# Generated by pormake.
# Topology zfa, (5)-cn, num edge types: 1
# Building blocks:
#     Node 0, Type 0, BuildingBlock: XOMCOT_clean_sbu_1, # of connection points: 5
#     Node 1, Type 0, BuildingBlock: XOMCOT_clean_sbu_1, # of connection points: 5
#     Node 2, Type 0, BuildingBlock: XOMCOT_clean_sbu_1, # of connection points: 5
#     Node 3, Type 0, BuildingBlock: XOMCOT_clean_sbu_1, # of connection points: 5
#     Node 4, Type 0, BuildingBlock: XOMCOT_clean_sbu_1, # of connection points: 5
#     Node 5, Type 0, BuildingBlock: XOMCOT_clean_sbu_1, # of connection points: 5
#     Node 6, Type 0, BuildingBlock: XOMCOT_clean_sbu_1, # of connection points: 5
#     Node 7, Type 0, BuildingBlock: XOMCOT_clean_sbu_1, # of connection points: 5
#     Edge 8, Type (0, 0), BuildingBlock: XUDNAN_clean_linker_2, # of connection points: 2
#     Edge 9, Type (0, 0), BuildingBlock: XUDNAN_clean_linker_2, # of connection points: 2
#     Edge 10, Type (0, 0), BuildingBlock: XUDNAN_clean_linker_2, # of connection points: 2
#     Edge 11, Type (0, 0), BuildingBlock: XUDNAN_clean_linker_2, # of connection points: 2
#     Edge 12, Type (0, 0), BuildingBlock: XUDNAN_clean_linker_2, # of connection points: 2
#     Edge 13, Type (0, 0), BuildingBlock: XUDNAN_clean_linker_2, # of connection points: 2
#     Edge 14, Type (0, 0), BuildingBlock: XUDNAN_clean_linker_2, # of connection points: 2
#     Edge 15, Type (0, 0), BuildingBlock: XUDNAN_clean_linker_2, # of connection points: 2
#     Edge 16, Type (0, 0), BuildingBlock: XUDNAN_clean_linker_2, # of connection points: 2
#     Edge 17, Type (0, 0), BuildingBlock: XUDNAN_clean_linker_2, # of connection points: 2
#     Edge 18, Type (0, 0), BuildingBlock: XUDNAN_clean_linker_2, # of connection points: 2
#     Edge 19, Type (0, 0), BuildingBlock: XUDNAN_clean_linker_2, # of connection points: 2
#     Edge 20, Type (0, 0), BuildingBlock: XUDNAN_clean_linker_2, # of connection points: 2
#     Edge 21, Type (0, 0), BuildingBlock: XUDNAN_clean_linker_2, # of connection points: 2
#     Edge 22, Type (0, 0), BuildingBlock: XUDNAN_clean_linker_2, # of connection points: 2
#     Edge 23, Type (0, 0), BuildingBlock: XUDNAN_clean_linker_2, # of connection points: 2
#     Edge 24, Type (0, 0), BuildingBlock: XUDNAN_clean_linker_2, # of connection points: 2
#     Edge 25, Type (0, 0), BuildingBlock: XUDNAN_clean_linker_2, # of connection points: 2
#     Edge 26, Type (0, 0), BuildingBlock: XUDNAN_clean_linker_2, # of connection points: 2
#     Edge 27, Type (0, 0), BuildingBlock: XUDNAN_clean_linker_2, # of connection points: 2
# Relax obj value: 0.195
# Max RMSD: 0.172
# Mean RMSD: 0.172
data_MOF--net-zfa--node1-XOMCOT_clean_sbu_1--edge1-XUDNAN_clean_linker_2
_symmetry_space_group_name_H-M    P1
_symmetry_Int_Tables_number       1
_symmetry_cell_setting            triclinic
loop_
_symmetry_equiv_pos_as_xyz
'x, y, z'
_cell_length_a     31.477324
_cell_length_b     31.308768
_cell_length_c     40.924383
_cell_angle_alpha  89.947862
_cell_angle_beta   89.78336
_cell_angle_gamma 89.804393
loop_
_atom_site_label
_atom_site_type_symbol
_atom_site_fract_x
_atom_site_fract_y
_atom_site_fract_z
_atom_type_partial_charge
C0 C 0.1554 0.17285 0.33152 0.0
C1 C 0.14626 0.13153 0.323 0.0
N2 N 0.10931 0.12048 0.33721 0.0
N3 N 0.12463 0.18831 0.35147 0.0
C4 C 0.097 0.15521 0.35445 0.0
H5 H 0.18195 0.19074 0.32202 0.0
Co6 Co 0.11708 0.2462 0.36525 0.0
C7 C 0.1374 0.19926 0.42853 0.0
O8 O 0.14149 0.16157 0.41486 0.0
N9 N 0.10887 0.30332 0.37798 0.0
C10 C 0.11465 0.36595 0.40316 0.0
C11 C 0.13163 0.32557 0.4 0.0
C12 C 0.07864 0.33108 0.36777 0.0
N13 N 0.08114 0.3694 0.38289 0.0
O14 O 0.05788 0.23631 0.37108 0.0
H15 H 0.15892 0.31322 0.41296 0.0
H16 H 0.05467 0.32313 0.34999 0.0
O17 O 0.12854 0.23203 0.41109 0.0
C18 C 0.04074 0.23846 0.34296 0.0
O19 O 0.0654 0.24553 0.31752 0.0
N20 N 0.17407 0.25814 0.35632 0.0
C21 C 0.25374 0.27194 0.3281 0.0
C22 C 0.24993 0.25138 0.35861 0.0
C23 C 0.20961 0.24476 0.37242 0.0
C24 C 0.17729 0.27983 0.32758 0.0
C25 C 0.21665 0.28698 0.31303 0.0
H26 H 0.20708 0.22731 0.39508 0.0
H27 H 0.1487 0.28976 0.31506 0.0
H28 H 0.06728 0.15704 0.36774 0.0
H29 H 0.16471 0.11169 0.30655 0.0
H30 H 0.12639 0.3909 0.41898 0.0
H31 H 0.27772 0.23967 0.37135 0.0
H32 H 0.21763 0.30232 0.28932 0.0
C33 C 0.32052 0.63001 0.81921 0.0
C34 C 0.36144 0.61459 0.81621 0.0
N35 N 0.37335 0.59815 0.84526 0.0
N36 N 0.30686 0.62345 0.85004 0.0
C37 C 0.33969 0.60417 0.86526 0.0
H38 H 0.30143 0.64345 0.79982 0.0
Co39 Co 0.25267 0.63035 0.86732 0.0
C40 C 0.2688 0.63565 0.93778 0.0
O41 O 0.23831 0.60782 0.94271 0.0
N42 N 0.1978 0.63707 0.88473 0.0
C43 C 0.14179 0.66204 0.91195 0.0
C44 C 0.18344 0.66948 0.90351 0.0
C45 C 0.16406 0.61087 0.88156 0.0
N46 N 0.12951 0.62499 0.89815 0.0
O47 O 0.25412 0.57149 0.87998 0.0
H48 H 0.20233 0.69646 0.91114 0.0
H49 H 0.16474 0.58207 0.86718 0.0
O50 O 0.27784 0.64784 0.9088 0.0
C51 C 0.24273 0.548 0.85619 0.0
O52 O 0.22853 0.56638 0.82948 0.0
N53 N 0.25062 0.6862 0.85165 0.0
C54 C 0.24375 0.76356 0.81791 0.0
C55 C 0.26747 0.76061 0.847 0.0
C56 C 0.27086 0.72139 0.86342 0.0
C57 C 0.22719 0.68848 0.82384 0.0
C58 C 0.22354 0.72659 0.80651 0.0
H59 H 0.28997 0.71937 0.88524 0.0
H60 H 0.21202 0.65998 0.81466 0.0
H61 H 0.33779 0.59227 0.89005 0.0
H62 H 0.38045 0.6146 0.79412 0.0
H63 H 0.12258 0.68214 0.92763 0.0
H64 H 0.2833 0.78824 0.85706 0.0
H65 H 0.20584 0.72657 0.78389 0.0
C66 C 0.88616 0.81341 0.31664 0.0
C67 C 0.90249 0.85124 0.30529 0.0
N68 N 0.92605 0.86888 0.32913 0.0
N69 N 0.89867 0.80733 0.34777 0.0
C70 C 0.92292 0.84177 0.35478 0.0
H71 H 0.86852 0.79043 0.30243 0.0
Co72 Co 0.89445 0.75527 0.37006 0.0
C73 C 0.85265 0.78472 0.43159 0.0
O74 O 0.8207 0.75889 0.42603 0.0
N75 N 0.89343 0.70151 0.39146 0.0
C76 C 0.90639 0.64933 0.42727 0.0
C77 C 0.89462 0.69144 0.4236 0.0
C78 C 0.90527 0.66481 0.37635 0.0
N79 N 0.91351 0.63265 0.39746 0.0
O80 O 0.95406 0.75705 0.37679 0.0
H81 H 0.89147 0.71363 0.44357 0.0
H82 H 0.91124 0.66274 0.35037 0.0
O83 O 0.88435 0.78578 0.41183 0.0
C84 C 0.97316 0.74235 0.35172 0.0
O85 O 0.95035 0.72731 0.32752 0.0
N86 N 0.83544 0.75296 0.36002 0.0
C87 C 0.75696 0.75523 0.32831 0.0
C88 C 0.77134 0.79072 0.34579 0.0
C89 C 0.81058 0.78892 0.36157 0.0
C90 C 0.8211 0.71778 0.34376 0.0
C91 C 0.78161 0.71797 0.32828 0.0
H92 H 0.8223 0.81754 0.37318 0.0
H93 H 0.84125 0.69028 0.34055 0.0
H94 H 0.94114 0.84484 0.37703 0.0
H95 H 0.89929 0.86358 0.2807 0.0
H96 H 0.91176 0.63311 0.45026 0.0
H97 H 0.75314 0.82014 0.34621 0.0
H98 H 0.77178 0.69019 0.31452 0.0
C99 C 0.68441 0.39047 0.82861 0.0
C100 C 0.64233 0.40218 0.82632 0.0
N101 N 0.63194 0.42525 0.85301 0.0
N102 N 0.70049 0.40574 0.85675 0.0
C103 C 0.6677 0.42647 0.87114 0.0
H104 H 0.7025 0.37388 0.81003 0.0
Co105 Co 0.75721 0.40806 0.86965 0.0
C106 C 0.75702 0.37185 0.93721 0.0
O107 O 0.79375 0.35332 0.9316 0.0
N108 N 0.81595 0.41174 0.88235 0.0
C109 C 0.88537 0.39912 0.88875 0.0
C110 C 0.84684 0.38151 0.88095 0.0
C111 C 0.83721 0.44741 0.89149 0.0
N112 N 0.87941 0.44085 0.89506 0.0
O113 O 0.74954 0.46738 0.87771 0.0
H114 H 0.84228 0.34836 0.87466 0.0
H115 H 0.8225 0.47834 0.89426 0.0
O116 O 0.73947 0.39399 0.91468 0.0
C117 C 0.7594 0.48654 0.85129 0.0
O118 O 0.77496 0.464 0.82692 0.0
N119 N 0.76419 0.35127 0.85719 0.0
C120 C 0.77535 0.2736 0.8249 0.0
C121 C 0.754 0.2755 0.85521 0.0
C122 C 0.74796 0.31497 0.87073 0.0
C123 C 0.78406 0.35007 0.82759 0.0
C124 C 0.79006 0.31179 0.81112 0.0
H125 H 0.72943 0.31627 0.89294 0.0
H126 H 0.79484 0.37949 0.81651 0.0
H127 H 0.67101 0.44486 0.89335 0.0
H128 H 0.62158 0.39555 0.80595 0.0
H129 H 0.91548 0.38237 0.88928 0.0
H130 H 0.74168 0.24695 0.86672 0.0
H131 H 0.80514 0.31251 0.78731 0.0
C132 C 0.62963 0.31513 0.25904 0.0
C133 C 0.62091 0.35801 0.26232 0.0
N134 N 0.59894 0.37056 0.23589 0.0
N135 N 0.61396 0.30119 0.23029 0.0
C136 C 0.59492 0.3357 0.21695 0.0
H137 H 0.64605 0.29538 0.27665 0.0
Co138 Co 0.61581 0.24609 0.21341 0.0
C139 C 0.6578 0.25879 0.1485 0.0
O140 O 0.68396 0.22734 0.15513 0.0
N141 N 0.61691 0.18889 0.19635 0.0
C142 C 0.63742 0.12333 0.18125 0.0
C143 C 0.65061 0.16212 0.19277 0.0
C144 C 0.58342 0.16465 0.18695 0.0
N145 N 0.59512 0.12489 0.17777 0.0
O146 O 0.5564 0.25094 0.20489 0.0
H147 H 0.68325 0.16956 0.19833 0.0
H148 H 0.55079 0.17536 0.18701 0.0
O149 O 0.62956 0.26968 0.16956 0.0
C150 C 0.53636 0.23815 0.23019 0.0
O151 O 0.55805 0.21991 0.25382 0.0
N152 N 0.67255 0.24198 0.22638 0.0
C153 C 0.74888 0.23899 0.26055 0.0
C154 C 0.7437 0.26707 0.23403 0.0
C155 C 0.70486 0.26867 0.21758 0.0
C156 C 0.67686 0.21526 0.25249 0.0
C157 C 0.71491 0.21268 0.26953 0.0
H158 H 0.70009 0.29282 0.19908 0.0
H159 H 0.65006 0.19632 0.26046 0.0
H160 H 0.57822 0.33526 0.19387 0.0
H161 H 0.62895 0.37816 0.28287 0.0
H162 H 0.65724 0.09552 0.17709 0.0
H163 H 0.76872 0.28893 0.22703 0.0
H164 H 0.71745 0.19061 0.28983 0.0
C165 C 0.19538 0.13575 0.76162 0.0
C166 C 0.15405 0.12206 0.76551 0.0
N167 N 0.14063 0.10603 0.73675 0.0
N168 N 0.20766 0.12856 0.73053 0.0
C169 C 0.17372 0.1107 0.71605 0.0
H170 H 0.21584 0.14796 0.78059 0.0
Co171 Co 0.26161 0.13055 0.71241 0.0
C172 C 0.24528 0.18261 0.65275 0.0
O173 O 0.27626 0.20829 0.66127 0.0
N174 N 0.31681 0.12985 0.69385 0.0
C175 C 0.36897 0.11489 0.65862 0.0
C176 C 0.32744 0.12747 0.66182 0.0
C177 C 0.35257 0.1171 0.70945 0.0
N178 N 0.38466 0.10766 0.68862 0.0
O179 O 0.25573 0.07179 0.70053 0.0
H180 H 0.30574 0.12965 0.64158 0.0
H181 H 0.35369 0.11011 0.73529 0.0
O182 O 0.23664 0.14983 0.67033 0.0
C183 C 0.26903 0.04935 0.72445 0.0
O184 O 0.28515 0.06905 0.74985 0.0
N185 N 0.26784 0.18708 0.72817 0.0
C186 C 0.27333 0.26371 0.76368 0.0
C187 C 0.24163 0.25776 0.73994 0.0
C188 C 0.23853 0.2188 0.72341 0.0
C189 C 0.29831 0.19199 0.75141 0.0
C190 C 0.30169 0.22976 0.76929 0.0
H191 H 0.21172 0.21377 0.70748 0.0
H192 H 0.31856 0.16554 0.75784 0.0
H193 H 0.17463 0.09812 0.69144 0.0
H194 H 0.13601 0.12236 0.78807 0.0
H195 H 0.38518 0.10834 0.6358 0.0
H196 H 0.21868 0.28247 0.73442 0.0
H197 H 0.32535 0.23126 0.78835 0.0
C198 C 0.37664 0.66755 0.24354 0.0
C199 C 0.39354 0.62694 0.24327 0.0
N200 N 0.42546 0.62605 0.22138 0.0
N201 N 0.3977 0.69214 0.22169 0.0
C202 C 0.42685 0.66553 0.20832 0.0
H203 H 0.35219 0.67866 0.26008 0.0
Co204 Co 0.39457 0.75154 0.21448 0.0
C205 C 0.35955 0.75779 0.14714 0.0
O206 O 0.33469 0.78968 0.15565 0.0
N207 N 0.39204 0.81171 0.2068 0.0
C208 C 0.37369 0.88068 0.20473 0.0
C209 C 0.3609 0.84042 0.21366 0.0
C210 C 0.42305 0.83583 0.1931 0.0
N211 N 0.41288 0.87772 0.19184 0.0
O212 O 0.45473 0.75253 0.20697 0.0
H213 H 0.33021 0.83325 0.22405 0.0
H214 H 0.4531 0.82324 0.18461 0.0
O215 O 0.38385 0.74018 0.16819 0.0
C216 C 0.47395 0.74918 0.23422 0.0
O217 O 0.45131 0.7449 0.26107 0.0
N218 N 0.33748 0.75075 0.22664 0.0
C219 C 0.25966 0.75544 0.2591 0.0
C220 C 0.26221 0.73936 0.227 0.0
C221 C 0.30184 0.73647 0.21129 0.0
C222 C 0.33575 0.76386 0.25833 0.0
C223 C 0.29737 0.76664 0.27493 0.0
H224 H 0.30367 0.72246 0.18725 0.0
H225 H 0.36475 0.77283 0.27062 0.0
H226 H 0.4504 0.67546 0.19057 0.0
H227 H 0.38528 0.60111 0.25969 0.0
H228 H 0.35538 0.90981 0.20732 0.0
H229 H 0.234 0.72939 0.21408 0.0
H230 H 0.29745 0.77728 0.30009 0.0
C231 C 0.83711 0.89009 0.75767 0.0
C232 C 0.87912 0.90195 0.76016 0.0
N233 N 0.88974 0.92416 0.7331 0.0
N234 N 0.82149 0.90469 0.72913 0.0
C235 C 0.85432 0.92487 0.71467 0.0
H236 H 0.81862 0.87405 0.77628 0.0
Co237 Co 0.76552 0.90744 0.71504 0.0
C238 C 0.77699 0.90904 0.64351 0.0
O239 O 0.75017 0.94114 0.6413 0.0
N240 N 0.70906 0.91066 0.70131 0.0
C241 C 0.64616 0.89985 0.67825 0.0
C242 C 0.68765 0.88575 0.68013 0.0
C243 C 0.67989 0.93878 0.71245 0.0
N244 N 0.64145 0.93321 0.69875 0.0
O245 O 0.77278 0.96689 0.70663 0.0
H246 H 0.7013 0.85905 0.66697 0.0
H247 H 0.68666 0.96334 0.73011 0.0
O248 O 0.78498 0.89239 0.67129 0.0
C249 C 0.76792 0.9863 0.73372 0.0
O250 O 0.75859 0.96392 0.75997 0.0
N251 N 0.75738 0.85099 0.72666 0.0
C252 C 0.74328 0.77221 0.75629 0.0
C253 C 0.76543 0.77495 0.72636 0.0
C254 C 0.77246 0.81494 0.71194 0.0
C255 C 0.73526 0.8489 0.75521 0.0
C256 C 0.728 0.81 0.77051 0.0
H257 H 0.79054 0.8169 0.6895 0.0
H258 H 0.72428 0.87806 0.76666 0.0
H259 H 0.85115 0.94276 0.69217 0.0
H260 H 0.89958 0.89617 0.78089 0.0
H261 H 0.62135 0.88629 0.66329 0.0
H262 H 0.77754 0.7466 0.71434 0.0
H263 H 0.71178 0.8099 0.79388 0.0
H264 H 0.96692 0.58589 0.43595 0.0
H265 H 0.90503 0.58704 0.34142 0.0
H266 H 0.94099 0.51912 0.32725 0.0
H267 H 0.06641 0.5453 0.40841 0.0
H268 H 0.07548 0.5129 0.44415 0.0
H269 H 0.04383 0.56075 0.44721 0.0
H270 H 0.9814 0.51708 0.47145 0.0
H271 H 0.01297 0.46912 0.46869 0.0
H272 H 0.96162 0.4715 0.44941 0.0
H273 H 0.9849 0.45111 0.3233 0.0
H274 H 0.03306 0.3893 0.3297 0.0
H275 H 0.06539 0.43273 0.42716 0.0
C276 C 0.96027 0.57162 0.41247 0.0
C277 C 0.93285 0.59185 0.38985 0.0
C278 C 0.92603 0.57235 0.35907 0.0
C279 C 0.94621 0.53368 0.35086 0.0
C280 C 0.97327 0.51484 0.37366 0.0
C281 C 0.98027 0.53317 0.40385 0.0
C282 C 0.01154 0.50705 0.42371 0.0
C283 C 0.05169 0.53306 0.43131 0.0
C284 C 0.99062 0.49018 0.45518 0.0
C285 C 0.0211 0.47112 0.4 0.0
C286 C 0.99867 0.47608 0.37129 0.0
C287 C 1.00247 0.44686 0.34575 0.0
C288 C 0.02981 0.41165 0.3497 0.0
C289 C 0.0532 0.40586 0.37895 0.0
C290 C 0.04855 0.43625 0.40432 0.0
H291 H 0.96404 0.43525 0.88037 0.0
H292 H 0.8686 0.5197 0.92236 0.0
H293 H 0.92247 0.57602 0.92785 0.0
H294 H 0.05083 0.46947 0.93291 0.0
H295 H 0.08988 0.46462 0.90077 0.0
H296 H 0.04378 0.4307 0.90085 0.0
H297 H 0.02544 0.45647 0.84236 0.0
H298 H 0.07125 0.49072 0.84231 0.0
H299 H 0.01931 0.51284 0.83455 0.0
H300 H 0.98613 0.6245 0.92626 0.0
H301 H 0.0552 0.66012 0.92038 0.0
H302 H 0.10976 0.54221 0.8826 0.0
C303 C 0.95435 0.46518 0.89128 0.0
C304 C 0.91165 0.47279 0.9007 0.0
C305 C 0.90071 0.51301 0.91438 0.0
C306 C 0.93122 0.54525 0.91779 0.0
C307 C 0.97272 0.53678 0.90776 0.0
C308 C 0.98442 0.49758 0.8951 0.0
C309 C 0.03109 0.49673 0.88593 0.0
C310 C 0.05532 0.46341 0.90634 0.0
C311 C 0.0371 0.48873 0.8491 0.0
C312 C 0.04369 0.54177 0.89511 0.0
C313 C 0.00958 0.56436 0.90758 0.0
C314 C 0.01322 0.60694 0.91689 0.0
C315 C 0.05285 0.62689 0.91354 0.0
C316 C 0.08861 0.60427 0.90115 0.0
C317 C 0.08353 0.56098 0.8919 0.0
H318 H 0.41217 0.95949 0.21406 0.0
H319 H 0.47485 0.87414 0.14558 0.0
H320 H 0.52428 0.93183 0.13017 0.0
H321 H 0.42352 0.05845 0.16477 0.0
H322 H 0.4331 0.09076 0.20041 0.0
H323 H 0.39975 0.04423 0.20341 0.0
H324 H 0.44725 0.01462 0.24987 0.0
H325 H 0.4806 0.06099 0.24693 0.0
H326 H 0.50352 1.0084 0.24288 0.0
H327 H 0.57088 0.99601 0.12615 0.0
H328 H 0.61206 0.0622 0.13435 0.0
H329 H 0.51848 0.10636 0.20464 0.0
C330 C 0.43554 0.95325 0.19519 0.0
C331 C 0.43955 0.91228 0.18096 0.0
C332 C 0.4714 0.90511 0.15702 0.0
C333 C 0.49937 0.9378 0.1479 0.0
C334 C 0.49493 0.97758 0.16278 0.0
C335 C 0.46371 0.98551 0.18584 0.0
C336 C 0.46779 0.03005 0.19996 0.0
C337 C 0.42871 0.05749 0.19162 0.0
C338 C 0.47525 0.02838 0.2371 0.0
C339 C 0.50688 0.04548 0.18187 0.0
C340 C 0.52176 0.01487 0.1603 0.0
C341 C 0.55919 0.02048 0.14257 0.0
C342 C 0.58243 0.058 0.14746 0.0
C343 C 0.5682 0.0894 0.16988 0.0
C344 C 0.52948 0.08335 0.18675 0.0
H345 H 0.57707 0.94835 0.65611 0.0
H346 H 0.62119 0.97715 0.75395 0.0
H347 H 0.56008 0.02548 0.76209 0.0
H348 H 0.54117 0.05249 0.6364 0.0
H349 H 0.49518 0.0349 0.61409 0.0
H350 H 0.54159 1.00127 0.6163 0.0
H351 H 0.49614 0.93955 0.63996 0.0
H352 H 0.44949 0.97286 0.63748 0.0
H353 H 0.46409 0.94883 0.67588 0.0
H354 H 0.49468 0.07223 0.75905 0.0
H355 H 0.42939 0.11251 0.74512 0.0
H356 H 0.42804 0.05172 0.64986 0.0
C357 C 0.57355 0.96425 0.67943 0.0
C358 C 0.60411 0.95903 0.7043 0.0
C359 C 0.5986 0.98106 0.73431 0.0
C360 C 0.56384 1.00844 0.73926 0.0
C361 C 0.53472 0.01339 0.71402 0.0
C362 C 0.53907 0.99172 0.68477 0.0
C363 C 0.50375 1.00319 0.66136 0.0
C364 C 0.5215 0.02422 0.6302 0.0
C365 C 0.47677 0.96376 0.6532 0.0
C366 C 0.47906 0.03491 0.68192 0.0
C367 C 0.49729 0.04032 0.71225 0.0
C368 C 0.48002 0.06814 0.73539 0.0
C369 C 0.44293 0.0908 0.72731 0.0
C370 C 0.42365 0.0856 0.69636 0.0
C371 C 0.44224 0.05723 0.67349 0.0
H372 H 0.48079 0.19113 0.26579 0.0
H373 H 0.49062 0.30723 0.2085 0.0
H374 H 0.41865 0.32892 0.22716 0.0
H375 H 0.36611 0.17374 0.252 0.0
H376 H 0.3584 0.15317 0.29273 0.0
H377 H 0.40874 0.14597 0.27234 0.0
H378 H 0.4464 0.18187 0.32132 0.0
H379 H 0.39616 0.19014 0.34151 0.0
H380 H 0.43062 0.23489 0.33366 0.0
H381 H 0.34881 0.34083 0.25719 0.0
H382 H 0.28324 0.33854 0.29039 0.0
H383 H 0.31854 0.21267 0.326 0.0
C384 C 0.46733 0.22064 0.25656 0.0
C385 C 0.49094 0.24745 0.23558 0.0
C386 C 0.47262 0.28597 0.22416 0.0
C387 C 0.43198 0.29865 0.23487 0.0
C388 C 0.41007 0.27203 0.25651 0.0
C389 C 0.4268 0.23339 0.26664 0.0
C390 C 0.3974 0.21091 0.29038 0.0
C391 C 0.38172 0.16844 0.276 0.0
C392 C 0.41895 0.20407 0.32368 0.0
C393 C 0.36183 0.24337 0.29275 0.0
C394 C 0.36972 0.27844 0.27312 0.0
C395 C 0.34199 0.31317 0.27218 0.0
C396 C 0.30477 0.31152 0.29114 0.0
C397 C 0.29535 0.27527 0.31072 0.0
C398 C 0.32475 0.24105 0.31165 0.0
H399 H 0.32021 0.99152 0.75369 0.0
H400 H 0.20005 1.004 0.7032 0.0
H401 H 0.18139 0.93002 0.71952 0.0
H402 H 0.3378 0.87595 0.73497 0.0
H403 H 0.36141 0.86664 0.77441 0.0
H404 H 0.36682 0.91799 0.75493 0.0
H405 H 0.33497 0.95407 0.80648 0.0
H406 H 0.32845 0.90289 0.82582 0.0
H407 H 0.28332 0.93789 0.82102 0.0
H408 H 0.17202 0.85919 0.74881 0.0
H409 H 0.17579 0.79388 0.78223 0.0
H410 H 0.30449 0.82648 0.81077 0.0
C411 C 0.29056 0.9781 0.74518 0.0
C412 C 0.26169 1.00303 0.72693 0.0
C413 C 0.2229 0.98494 0.7166 0.0
C414 C 0.21196 0.94315 0.72603 0.0
C415 C 0.24055 0.91995 0.74521 0.0
C416 C 0.27951 0.93648 0.75398 0.0
C417 C 0.30382 0.90605 0.77585 0.0
C418 C 0.34489 0.89074 0.75903 0.0
C419 C 0.31316 0.92646 0.80926 0.0
C420 C 0.27194 0.87024 0.77898 0.0
C421 C 0.23565 0.87882 0.76118 0.0
C422 C 0.20075 0.85165 0.7621 0.0
C423 C 0.20333 0.81444 0.78115 0.0
C424 C 0.24072 0.80429 0.79894 0.0
C425 C 0.27532 0.83298 0.79774 0.0
H426 H 0.5222 0.69853 0.2726 0.0
H427 H 0.5296 0.80291 0.20329 0.0
H428 H 0.6055 0.8132 0.2174 0.0
H429 H 0.58196 0.74225 0.33331 0.0
H430 H 0.60901 0.69394 0.34537 0.0
H431 H 0.55749 0.691 0.3267 0.0
H432 H 0.58712 0.64112 0.28149 0.0
H433 H 0.6387 0.64307 0.30044 0.0
H434 H 0.63283 0.65746 0.25803 0.0
H435 H 0.67633 0.81922 0.24608 0.0
H436 H 0.74004 0.81434 0.28123 0.0
H437 H 0.68738 0.703 0.32933 0.0
C438 C 0.54025 0.72273 0.25974 0.0
C439 C 0.52048 0.74992 0.23685 0.0
C440 C 0.5446 0.78147 0.22057 0.0
C441 C 0.58754 0.78763 0.2286 0.0
C442 C 0.60577 0.76124 0.2523 0.0
C443 C 0.58314 0.72864 0.26697 0.0
C444 C 0.60934 0.70572 0.29256 0.0
C445 C 0.58818 0.70842 0.32648 0.0
C446 C 0.61749 0.65908 0.28252 0.0
C447 C 0.64971 0.73173 0.29116 0.0
C448 C 0.64706 0.76361 0.2678 0.0
C449 C 0.67911 0.79383 0.26391 0.0
C450 C 0.71491 0.79108 0.28415 0.0
C451 C 0.71847 0.75821 0.30778 0.0
C452 C 0.68556 0.72806 0.31112 0.0
H453 H 0.72071 0.20499 0.82248 0.0
H454 H 0.843 0.24899 0.78636 0.0
H455 H 0.85001 0.1837 0.75329 0.0
H456 H 0.75346 0.09669 0.83249 0.0
H457 H 0.70251 0.07518 0.82128 0.0
H458 H 0.70567 0.12725 0.83963 0.0
H459 H 0.66504 0.15921 0.79024 0.0
H460 H 0.66251 0.10725 0.77146 0.0
H461 H 0.68562 0.15142 0.7495 0.0
H462 H 0.84425 0.11264 0.7244 0.0
H463 H 0.83062 0.03724 0.70887 0.0
H464 H 0.71552 0.03849 0.76726 0.0
C465 C 0.74919 0.20095 0.8079 0.0
C466 C 0.78092 0.23273 0.80676 0.0
C467 C 0.81755 0.22584 0.78705 0.0
C468 C 0.82195 0.18875 0.76817 0.0
C469 C 0.78972 0.15851 0.76947 0.0
C470 C 0.75443 0.16388 0.78929 0.0
C471 C 0.72592 0.12516 0.78832 0.0
C472 C 0.72167 0.10487 0.82245 0.0
C473 C 0.68219 0.13646 0.77403 0.0
C474 C 0.75105 0.09695 0.76529 0.0
C475 C 0.7873 0.11701 0.75403 0.0
C476 C 0.81587 0.09665 0.73293 0.0
C477 C 0.80779 0.05412 0.72402 0.0
C478 C 0.77199 0.03267 0.7368 0.0
C479 C 0.74297 0.05459 0.75707 0.0
H480 H 0.99903 0.2393 0.28508 0.0
H481 H 0.97791 0.23096 0.38978 0.0
H482 H 0.90013 0.22946 0.38026 0.0
H483 H 0.91332 0.30879 0.26752 0.0
H484 H 0.90093 0.2838 0.22907 0.0
H485 H 0.9545 0.28243 0.24429 0.0
H486 H 0.95506 0.19976 0.24049 0.0
H487 H 0.90158 0.20084 0.22503 0.0
H488 H 0.91399 0.16965 0.2608 0.0
H489 H 0.82456 0.23127 0.35863 0.0
H490 H 0.7578 0.23459 0.32715 0.0
H491 H 0.8303 0.24127 0.23688 0.0
C492 C 0.97821 0.23691 0.30613 0.0
C493 C 0.99445 0.23526 0.33821 0.0
C494 C 0.96605 0.23216 0.36499 0.0
C495 C 0.92192 0.23136 0.3598 0.0
C496 C 0.90705 0.2336 0.32774 0.0
C497 C 0.93446 0.23612 0.3014 0.0
C498 C 0.91086 0.23878 0.26937 0.0
C499 C 0.92048 0.28096 0.25153 0.0
C500 C 0.92097 0.19994 0.24765 0.0
C501 C 0.86564 0.23766 0.28169 0.0
C502 C 0.864 0.23458 0.31539 0.0
C503 C 0.82552 0.23337 0.33224 0.0
C504 C 0.78781 0.23508 0.31413 0.0
C505 C 0.78889 0.23797 0.27953 0.0
C506 C 0.82843 0.23942 0.26327 0.0
H507 H 0.19 0.48585 0.83509 0.0
H508 H 0.31664 0.50783 0.87234 0.0
H509 H 0.33758 0.4345 0.85606 0.0
H510 H 0.18525 0.36891 0.85882 0.0
H511 H 0.15523 0.35631 0.82269 0.0
H512 H 0.14922 0.40783 0.84181 0.0
H513 H 0.16756 0.44409 0.78669 0.0
H514 H 0.17482 0.3929 0.76756 0.0
H515 H 0.21716 0.4315 0.76666 0.0
H516 H 0.34779 0.36516 0.82557 0.0
H517 H 0.34422 0.3004 0.79192 0.0
H518 H 0.2082 0.31999 0.78019 0.0
C519 C 0.22158 0.47443 0.84102 0.0
C520 C 0.25163 0.50192 0.85531 0.0
C521 C 0.29299 0.48669 0.8621 0.0
C522 C 0.3052 0.44528 0.85266 0.0
C523 C 0.27525 0.41942 0.8373 0.0
C524 C 0.23387 0.43294 0.8325 0.0
C525 C 0.20837 0.3999 0.81409 0.0
C526 C 0.1724 0.38218 0.83565 0.0
C527 C 0.19098 0.41821 0.78185 0.0
C528 C 0.24233 0.3665 0.80789 0.0
C529 C 0.28068 0.37838 0.82135 0.0
C530 C 0.31757 0.35474 0.81595 0.0
C531 C 0.31507 0.31768 0.79679 0.0
C532 C 0.27576 0.30391 0.7835 0.0
C533 C 0.23898 0.32901 0.78949 0.0
H534 H 0.02418 0.69332 0.31358 0.0
H535 H 0.02505 0.80346 0.37778 0.0
H536 H 0.09951 0.81821 0.36161 0.0
H537 H 0.13556 0.6609 0.32774 0.0
H538 H 0.14263 0.64419 0.28593 0.0
H539 H 0.09104 0.64072 0.30495 0.0
H540 H 0.05934 0.68623 0.25801 0.0
H541 H 0.11091 0.69063 0.23919 0.0
H542 H 0.08129 0.73818 0.24941 0.0
H543 H 0.17025 0.82532 0.33342 0.0
H544 H 0.23585 0.8198 0.30077 0.0
H545 H 0.18987 0.70237 0.25709 0.0
C546 C 0.0404 0.72001 0.32476 0.0
C547 C 0.0192 0.74721 0.34699 0.0
C548 C 0.04112 0.78195 0.36105 0.0
C549 C 0.0832 0.79071 0.35181 0.0
C550 C 0.10276 0.76397 0.32896 0.0
C551 C 0.08236 0.72882 0.31613 0.0
C552 C 0.10999 0.70566 0.29146 0.0
C553 C 0.12043 0.66018 0.30324 0.0
C554 C 0.08912 0.70517 0.25752 0.0
C555 C 0.14889 0.73383 0.29179 0.0
C556 C 0.144 0.76734 0.31348 0.0
C557 C 0.17483 0.79868 0.31693 0.0
C558 C 0.21207 0.79513 0.2983 0.0
C559 C 0.21851 0.7602 0.27671 0.0
C560 C 0.18608 0.72948 0.27326 0.0
H561 H 0.79949 0.70485 0.75946 0.0
H562 H 0.67461 0.74565 0.79282 0.0
H563 H 0.66845 0.68008 0.82583 0.0
H564 H 0.77147 0.5947 0.74986 0.0
H565 H 0.8229 0.57547 0.7625 0.0
H566 H 0.81807 0.62694 0.74325 0.0
H567 H 0.85545 0.66162 0.79295 0.0
H568 H 0.85959 0.61028 0.81263 0.0
H569 H 0.83372 0.65404 0.83335 0.0
H570 H 0.67612 0.60957 0.85567 0.0
H571 H 0.69299 0.53551 0.87323 0.0
H572 H 0.81013 0.54001 0.81736 0.0
C573 C 0.77056 0.69994 0.77333 0.0
C574 C 0.73782 0.73089 0.77377 0.0
C575 C 0.70068 0.72302 0.79262 0.0
C576 C 0.6968 0.6858 0.81146 0.0
C577 C 0.7301 0.65647 0.81097 0.0
C578 C 0.76591 0.66279 0.79193 0.0
C579 C 0.79608 0.62527 0.79413 0.0
C580 C 0.80248 0.60436 0.76044 0.0
C581 C 0.83873 0.63862 0.80916 0.0
C582 C 0.77141 0.59665 0.81707 0.0
C583 C 0.73379 0.61544 0.82708 0.0
C584 C 0.70554 0.59456 0.84805 0.0
C585 C 0.71546 0.55279 0.85813 0.0
C586 C 0.75283 0.53253 0.84667 0.0
C587 C 0.78141 0.55506 0.8265 0.0
H588 H 0.1573 0.13664 0.47347 0.0
H589 H 0.13916 0.27364 0.46379 0.0
H590 H 0.15969 0.28312 0.52135 0.0
H591 H 0.11753 0.12877 0.55821 0.0
H592 H 0.15598 0.08855 0.56931 0.0
H593 H 0.13723 0.09197 0.52782 0.0
H594 H 0.21477 0.09878 0.50711 0.0
H595 H 0.23374 0.09541 0.54847 0.0
H596 H 0.24809 0.14039 0.52327 0.0
H597 H 0.18892 0.27882 0.57784 0.0
H598 H 0.22189 0.2606 0.63072 0.0
H599 H 0.2176 0.12613 0.60583 0.0
C600 C 0.15712 0.16861 0.48353 0.0
C601 C 0.14677 0.20445 0.46389 0.0
C602 C 0.14708 0.24569 0.47812 0.0
C603 C 0.1586 0.2514 0.5109 0.0
C604 C 0.16922 0.21554 0.52937 0.0
C605 C 0.16818 0.17487 0.51637 0.0
C606 C 0.1824 0.14191 0.54135 0.0
C607 C 0.14611 0.11097 0.54966 0.0
C608 C 0.22211 0.11771 0.52932 0.0
C609 C 0.1926 0.17054 0.57015 0.0
C610 C 0.1847 0.21291 0.56263 0.0
C611 C 0.19452 0.24574 0.58423 0.0
C612 C 0.21332 0.23511 0.61414 0.0
C613 C 0.22167 0.19201 0.62244 0.0
C614 C 0.21055 0.15925 0.60037 0.0
H615 H 0.28616 0.73869 0.11551 0.0
H616 H 0.4231 0.73365 0.10525 0.0
H617 H 0.41524 0.70378 0.04939 0.0
H618 H 0.26781 0.63765 0.07566 0.0
H619 H 0.2187 0.65475 0.05721 0.0
H620 H 0.23552 0.67786 0.09529 0.0
H621 H 0.23052 0.75347 0.06973 0.0
H622 H 0.21385 0.73058 1.03153 0.0
H623 H 0.25959 0.76503 1.03274 0.0
H624 H 0.39128 0.67837 0.99298 0.0
H625 H 0.35398 0.64988 0.94432 0.0
H626 H 0.2334 0.66383 0.99467 0.0
C627 C 0.31444 0.7315 0.10135 0.0
C628 C 0.35525 0.73899 0.11425 0.0
C629 C 0.39161 0.72828 0.09554 0.0
C630 C 0.38739 0.71149 0.06383 0.0
C631 C 0.34659 0.70465 0.05165 0.0
C632 C 0.31078 0.71352 0.07016 0.0
C633 C 0.27065 0.70075 0.05241 0.0
C634 C 0.24678 0.66566 0.07126 0.0
C635 C 0.24197 0.73979 0.04624 0.0
C636 C 0.2893 0.68376 1.02081 0.0
C637 C 0.33311 0.68697 1.02053 0.0
C638 C 0.35706 0.67518 0.99317 0.0
C639 C 0.33569 0.65924 0.96564 0.0
C640 C 0.29103 0.65427 0.96606 0.0
C641 C 0.26768 0.66672 0.994 0.0
H642 H 0.74331 0.90313 0.58217 0.0
H643 H 0.85695 0.87551 0.63792 0.0
H644 H 0.89174 0.84702 0.58802 0.0
H645 H 0.74638 0.80727 0.53601 0.0
H646 H 0.72594 0.83129 0.49921 0.0
H647 H 0.7121 0.85343 0.53841 0.0
H648 H 0.74061 0.92716 0.5198 0.0
H649 H 0.75487 0.90509 0.48059 0.0
H650 H 0.79444 0.93148 0.50499 0.0
H651 H 0.91407 0.82167 0.53124 0.0
H652 H 0.91801 0.7917 0.47515 0.0
H653 H 0.78739 0.82964 0.45856 0.0
C654 C 0.7757 0.89157 0.58372 0.0
C655 C 0.79771 0.89196 0.61372 0.0
C656 C 0.83965 0.87557 0.61508 0.0
C657 C 0.85972 0.85962 0.58684 0.0
C658 C 0.83715 0.85965 0.55755 0.0
C659 C 0.79578 0.87455 0.55598 0.0
C660 C 0.7771 0.86754 0.52235 0.0
C661 C 0.73809 0.83812 0.52412 0.0
C662 C 0.76611 0.91037 0.50597 0.0
C663 C 0.81416 0.8459 0.50533 0.0
C664 C 0.84894 0.84263 0.52571 0.0
C665 C 0.88698 0.82403 0.51513 0.0
C666 C 0.88908 0.80737 0.48323 0.0
C667 C 0.85305 0.80854 0.46271 0.0
C668 C 0.8154 0.82848 0.47384 0.0
H669 H 0.72378 0.25073 0.1058 0.0
H670 H 0.60669 0.32158 0.12105 0.0
H671 H 0.61883 0.35987 0.0686 0.0
H672 H 0.78382 0.33695 0.07155 0.0
H673 H 0.81202 0.30279 0.04338 0.0
H674 H 0.79341 0.28174 0.08178 0.0
H675 H 0.75234 0.22242 0.05115 0.0
H676 H 0.77082 0.24326 1.01266 0.0
H677 H 0.71467 0.23711 1.01999 0.0
H678 H 0.64452 0.38876 1.01224 0.0
H679 H 0.6814 0.40618 0.96018 0.0
H680 H 0.78166 0.31658 0.98511 0.0
C681 C 0.70046 0.27424 0.09829 0.0
C682 C 0.66409 0.28293 0.11755 0.0
C683 C 0.63476 0.31429 0.1067 0.0
C684 C 0.64143 0.33615 0.07694 0.0
C685 C 0.67772 0.3265 0.05851 0.0
C686 C 0.70676 0.29636 0.06906 0.0
C687 C 0.7434 0.29151 0.04537 0.0
C688 C 0.78565 0.30401 0.06148 0.0
C689 C 0.74539 0.24587 1.03147 0.0
C690 C 0.73057 0.32342 1.01951 0.0
C691 C 0.69259 0.34337 1.02723 0.0
C692 C 0.67438 0.37342 1.00619 0.0
C693 C 0.69555 0.38313 0.97666 0.0
C694 C 0.73461 0.36299 0.96854 0.0
C695 C 0.75209 0.33292 0.99051 0.0
H696 H 0.94796 0.92878 0.37458 0.0
H697 H 0.971 0.88792 0.2748 0.0
H698 H 0.02053 0.94765 0.26683 0.0
H699 H 0.95003 0.04212 0.35761 0.0
H700 H 0.97666 0.0562 0.39498 0.0
H701 H 0.94343 1.00949 0.39359 0.0
H702 H 1.00622 0.96283 0.41368 0.0
H703 H 0.03964 1.0094 0.41516 0.0
H704 H 0.0558 0.96359 0.39148 0.0
H705 H 0.06732 0.01064 0.26904 0.0
H706 H 0.10803 0.07566 0.28083 0.0
H707 H 0.05538 0.07879 0.37897 0.0
C708 C 0.96365 0.93248 0.35117 0.0
C709 C 0.95531 0.90389 0.3252 0.0
C710 C 0.97625 0.90979 0.29483 0.0
C711 C 1.0047 0.94348 0.29012 0.0
C712 C 0.01189 0.97132 0.31597 0.0
C713 C 0.99199 0.96648 0.34589 0.0
C714 C 1.00507 1.00183 0.36922 0.0
C715 C 0.9665 0.02902 0.37945 0.0
C716 C 0.02805 0.9833 0.39916 0.0
C717 C 0.03535 0.0271 0.34763 0.0
C718 C 0.03887 1.00856 0.31712 0.0
C719 C 0.06497 0.02543 0.29287 0.0
C720 C 0.08822 0.06227 0.2999 0.0
C721 C 0.08523 0.08221 0.3309 0.0
C722 C 0.05817 0.06438 0.35502 0.0
H723 H 0.42501 0.55546 0.80262 0.0
H724 H 0.40904 0.58758 0.90511 0.0
H725 H 0.47245 0.54463 0.91855 0.0
H726 H 0.45995 0.44795 0.81434 0.0
H727 H 0.49815 0.44926 0.78143 0.0
H728 H 0.45144 0.48258 0.77974 0.0
H729 H 0.49851 0.54973 0.77246 0.0
H730 H 0.54534 0.51658 0.77376 0.0
H731 H 0.53965 0.5606 0.80181 0.0
H732 H 0.53755 0.4976 0.92085 0.0
H733 H 0.60082 0.45239 0.91153 0.0
H734 H 0.57523 0.45313 0.80735 0.0
C735 C 0.43503 0.55398 0.82784 0.0
C736 C 0.41176 0.57488 0.8528 0.0
C737 C 0.42585 0.57142 0.88558 0.0
C738 C 0.46197 0.54721 0.89346 0.0
C739 C 0.48381 0.52667 0.8683 0.0
C740 C 0.47103 0.53002 0.83614 0.0
C741 C 0.50022 0.505 0.81367 0.0
C742 C 0.47598 0.46907 0.79627 0.0
C743 C 0.52224 0.53476 0.78898 0.0
C744 C 0.5315 0.48717 0.83822 0.0
C745 C 0.52142 0.49991 0.8696 0.0
C746 C 0.54585 0.48758 0.89634 0.0
C747 C 0.58186 0.46201 0.89078 0.0
C748 C 0.59328 0.44912 0.85871 0.0
C749 C 0.56731 0.46175 0.83222 0.0
H750 H 0.41335 0.5406 0.21802 0.0
H751 H 0.51017 0.63858 0.22026 0.0
H752 H 0.56607 0.58301 0.22135 0.0
H753 H 0.46273 0.46806 0.2716 0.0
H754 H 0.44749 0.42061 0.24971 0.0
H755 H 0.41517 0.46802 0.24719 0.0
H756 H 0.42165 0.46687 0.18403 0.0
H757 H 0.45389 0.4193 0.18647 0.0
H758 H 0.47357 0.46576 0.16529 0.0
H759 H 0.61056 0.51731 0.22848 0.0
H760 H 0.64134 0.44488 0.23588 0.0
H761 H 0.51664 0.38922 0.22462 0.0
C762 C 0.44639 0.55008 0.21821 0.0
C763 C 0.45766 0.59364 0.21879 0.0
C764 C 0.50108 0.60528 0.21924 0.0
C765 C 0.53296 0.57399 0.22003 0.0
C766 C 0.52083 0.53125 0.21975 0.0
C767 C 0.47865 0.51919 0.21831 0.0
C768 C 0.47426 0.471 0.21873 0.0
C769 C 0.44839 0.45607 0.24859 0.0
C770 C 0.45469 0.45479 0.18672 0.0
C771 C 0.52047 0.45795 0.22149 0.0
C772 C 0.54679 0.49321 0.22224 0.0
C773 C 0.59043 0.48941 0.22723 0.0
C774 C 0.60761 0.44843 0.23151 0.0
C775 C 0.58128 0.41205 0.23021 0.0
C776 C 0.53731 0.4168 0.22487 0.0
H777 H 0.09049 0.06407 0.78088 0.0
H778 H 0.10341 0.09428 0.67774 0.0
H779 H 0.04212 0.04838 0.66553 0.0
H780 H 0.06103 0.95548 0.77165 0.0
H781 H 0.02272 0.95581 0.80451 0.0
H782 H 0.06739 0.99157 0.80557 0.0
H783 H 0.01656 0.05647 0.81141 0.0
H784 H 0.97176 0.02084 0.81091 0.0
H785 H 0.9748 0.06412 0.78192 0.0
H786 H 0.98134 0.99723 0.66415 0.0
H787 H 0.92086 0.94916 0.6742 0.0
H788 H 0.94515 0.955 0.77848 0.0
C789 C 0.08011 0.06169 0.75579 0.0
C790 C 0.10219 0.0826 0.73024 0.0
C791 C 0.08762 0.07803 0.69769 0.0
C792 C 0.05272 0.05211 0.69049 0.0
C793 C 0.0324 0.0312 0.71614 0.0
C794 C 0.04514 0.03611 0.74817 0.0
C795 C 0.01746 0.01032 0.77119 0.0
C796 C 0.04373 0.97628 0.78929 0.0
C797 C 0.99373 0.03969 0.79527 0.0
C798 C 0.98727 0.99008 0.74703 0.0
C799 C 0.99665 1.00236 0.7154 0.0
C800 C 0.9734 0.9877 0.68884 0.0
C801 C 0.939 0.96049 0.69483 0.0
C802 C 0.92786 0.94846 0.72715 0.0
C803 C 0.9529 0.9631 0.75347 0.0
loop_
_geom_bond_atom_site_label_1
_geom_bond_atom_site_label_2
_geom_bond_distance
_geom_bond_site_symmetry_2
_ccdc_geom_bond_type
C0 C1 1.351 . S
C0 N3 1.368 . S
C0 H5 0.931 . S
C1 C0 1.351 . S
C1 N2 1.373 . S
C1 H29 0.930 . S
N2 C1 1.373 . S
N2 C4 1.340 . S
N3 C0 1.368 . S
N3 C4 1.321 . S
N3 Co6 2.135 . S
C4 N2 1.340 . S
C4 N3 1.321 . S
C4 H28 0.930 . S
H5 C0 0.931 . S
Co6 N3 2.135 . S
Co6 N9 2.121 . S
Co6 O14 2.055 1_455 S
Co6 O17 2.039 . S
Co6 N20 2.140 . S
C7 O8 1.227 . S
C7 O17 1.265 . S
O8 C7 1.227 . S
N9 Co6 2.121 . S
N9 C11 1.375 . S
N9 C12 1.313 . S
C10 C11 1.338 . S
C10 N13 1.377 . S
C10 H30 0.930 . S
C11 N9 1.375 . S
C11 C10 1.338 . S
C11 H15 0.931 . S
C12 N9 1.313 . S
C12 N13 1.344 . S
C12 H16 0.930 . S
N13 C10 1.377 . S
N13 C12 1.344 . S
O14 Co6 2.055 1_655 S
O14 C18 1.253 . S
H15 C11 0.931 . S
H16 C12 0.930 . S
O17 Co6 2.039 . S
O17 C7 1.265 . S
C18 O14 1.253 . S
C18 O19 1.227 1_655 S
O19 C18 1.227 1_455 S
N20 Co6 2.140 . S
N20 C23 1.346 . S
N20 C24 1.345 . S
C21 C22 1.387 . S
C21 C25 1.391 . S
C22 C21 1.387 . S
C22 C23 1.369 . S
C22 H31 0.929 . S
C23 N20 1.346 . S
C23 C22 1.369 . S
C23 H26 0.928 . S
C24 N20 1.345 . S
C24 C25 1.371 . S
C24 H27 0.931 . S
C25 C21 1.391 . S
C25 C24 1.371 . S
C25 H32 0.930 . S
H26 C23 0.928 . S
H27 C24 0.931 . S
H28 C4 0.930 . S
H29 C1 0.930 . S
H30 C10 0.930 . S
H31 C22 0.929 . S
H32 C25 0.930 . S
C33 C34 1.351 . S
C33 N36 1.368 . S
C33 H38 0.931 . S
C34 C33 1.351 . S
C34 N35 1.373 . S
C34 H62 0.930 . S
N35 C34 1.373 . S
N35 C37 1.340 . S
N36 C33 1.368 . S
N36 C37 1.321 . S
N36 Co39 2.135 . S
C37 N35 1.340 . S
C37 N36 1.321 . S
C37 H61 0.930 . S
H38 C33 0.931 . S
Co39 N36 2.135 . S
Co39 N42 2.121 . S
Co39 O47 2.055 . S
Co39 O50 2.039 . S
Co39 N53 2.140 . S
C40 O41 1.227 . S
C40 O50 1.265 . S
O41 C40 1.227 . S
N42 Co39 2.121 . S
N42 C44 1.375 . S
N42 C45 1.313 . S
C43 C44 1.338 . S
C43 N46 1.377 . S
C43 H63 0.930 . S
C44 N42 1.375 . S
C44 C43 1.338 . S
C44 H48 0.931 . S
C45 N42 1.313 . S
C45 N46 1.344 . S
C45 H49 0.930 . S
N46 C43 1.377 . S
N46 C45 1.344 . S
O47 Co39 2.055 . S
O47 C51 1.253 . S
H48 C44 0.931 . S
H49 C45 0.930 . S
O50 Co39 2.039 . S
O50 C40 1.265 . S
C51 O47 1.253 . S
C51 O52 1.227 . S
O52 C51 1.227 . S
N53 Co39 2.140 . S
N53 C56 1.346 . S
N53 C57 1.345 . S
C54 C55 1.387 . S
C54 C58 1.391 . S
C55 C54 1.387 . S
C55 C56 1.369 . S
C55 H64 0.929 . S
C56 N53 1.346 . S
C56 C55 1.369 . S
C56 H59 0.928 . S
C57 N53 1.345 . S
C57 C58 1.371 . S
C57 H60 0.931 . S
C58 C54 1.391 . S
C58 C57 1.371 . S
C58 H65 0.930 . S
H59 C56 0.928 . S
H60 C57 0.931 . S
H61 C37 0.930 . S
H62 C34 0.930 . S
H63 C43 0.930 . S
H64 C55 0.929 . S
H65 C58 0.930 . S
C66 C67 1.351 . S
C66 N69 1.368 . S
C66 H71 0.931 . S
C67 C66 1.351 . S
C67 N68 1.373 . S
C67 H95 0.930 . S
N68 C67 1.373 . S
N68 C70 1.340 . S
N69 C66 1.368 . S
N69 C70 1.321 . S
N69 Co72 2.135 . S
C70 N68 1.340 . S
C70 N69 1.321 . S
C70 H94 0.930 . S
H71 C66 0.931 . S
Co72 N69 2.135 . S
Co72 N75 2.121 . S
Co72 O80 2.055 1_655 S
Co72 O83 2.039 . S
Co72 N86 2.140 . S
C73 O74 1.227 . S
C73 O83 1.265 . S
O74 C73 1.227 . S
N75 Co72 2.121 . S
N75 C77 1.375 . S
N75 C78 1.313 . S
C76 C77 1.338 . S
C76 N79 1.377 . S
C76 H96 0.930 . S
C77 N75 1.375 . S
C77 C76 1.338 . S
C77 H81 0.931 . S
C78 N75 1.313 . S
C78 N79 1.344 . S
C78 H82 0.930 . S
N79 C76 1.377 . S
N79 C78 1.344 . S
O80 Co72 2.055 1_455 S
O80 C84 1.253 . S
H81 C77 0.931 . S
H82 C78 0.930 . S
O83 Co72 2.039 . S
O83 C73 1.265 . S
C84 O80 1.253 . S
C84 O85 1.227 1_455 S
O85 C84 1.227 1_655 S
N86 Co72 2.140 . S
N86 C89 1.346 . S
N86 C90 1.345 . S
C87 C88 1.387 . S
C87 C91 1.391 . S
C88 C87 1.387 . S
C88 C89 1.369 . S
C88 H97 0.929 . S
C89 N86 1.346 . S
C89 C88 1.369 . S
C89 H92 0.928 . S
C90 N86 1.345 . S
C90 C91 1.371 . S
C90 H93 0.931 . S
C91 C87 1.391 . S
C91 C90 1.371 . S
C91 H98 0.930 . S
H92 C89 0.928 . S
H93 C90 0.931 . S
H94 C70 0.930 . S
H95 C67 0.930 . S
H96 C76 0.930 . S
H97 C88 0.929 . S
H98 C91 0.930 . S
C99 C100 1.351 . S
C99 N102 1.368 . S
C99 H104 0.931 . S
C100 C99 1.351 . S
C100 N101 1.373 . S
C100 H128 0.930 . S
N101 C100 1.373 . S
N101 C103 1.340 . S
N102 C99 1.368 . S
N102 C103 1.321 . S
N102 Co105 2.135 . S
C103 N101 1.340 . S
C103 N102 1.321 . S
C103 H127 0.930 . S
H104 C99 0.931 . S
Co105 N102 2.135 . S
Co105 N108 2.121 . S
Co105 O113 2.055 . S
Co105 O116 2.039 . S
Co105 N119 2.140 . S
C106 O107 1.227 . S
C106 O116 1.265 . S
O107 C106 1.227 . S
N108 Co105 2.121 . S
N108 C110 1.375 . S
N108 C111 1.313 . S
C109 C110 1.338 . S
C109 N112 1.377 . S
C109 H129 0.930 . S
C110 N108 1.375 . S
C110 C109 1.338 . S
C110 H114 0.931 . S
C111 N108 1.313 . S
C111 N112 1.344 . S
C111 H115 0.930 . S
N112 C109 1.377 . S
N112 C111 1.344 . S
O113 Co105 2.055 . S
O113 C117 1.253 . S
H114 C110 0.931 . S
H115 C111 0.930 . S
O116 Co105 2.039 . S
O116 C106 1.265 . S
C117 O113 1.253 . S
C117 O118 1.227 . S
O118 C117 1.227 . S
N119 Co105 2.140 . S
N119 C122 1.346 . S
N119 C123 1.345 . S
C120 C121 1.387 . S
C120 C124 1.391 . S
C121 C120 1.387 . S
C121 C122 1.369 . S
C121 H130 0.929 . S
C122 N119 1.346 . S
C122 C121 1.369 . S
C122 H125 0.928 . S
C123 N119 1.345 . S
C123 C124 1.371 . S
C123 H126 0.931 . S
C124 C120 1.391 . S
C124 C123 1.371 . S
C124 H131 0.930 . S
H125 C122 0.928 . S
H126 C123 0.931 . S
H127 C103 0.930 . S
H128 C100 0.930 . S
H129 C109 0.930 . S
H130 C121 0.929 . S
H131 C124 0.930 . S
C132 C133 1.351 . S
C132 N135 1.368 . S
C132 H137 0.931 . S
C133 C132 1.351 . S
C133 N134 1.373 . S
C133 H161 0.930 . S
N134 C133 1.373 . S
N134 C136 1.340 . S
N135 C132 1.368 . S
N135 C136 1.321 . S
N135 Co138 2.135 . S
C136 N134 1.340 . S
C136 N135 1.321 . S
C136 H160 0.930 . S
H137 C132 0.931 . S
Co138 N135 2.135 . S
Co138 N141 2.121 . S
Co138 O146 2.055 . S
Co138 O149 2.039 . S
Co138 N152 2.140 . S
C139 O140 1.227 . S
C139 O149 1.265 . S
O140 C139 1.227 . S
N141 Co138 2.121 . S
N141 C143 1.375 . S
N141 C144 1.313 . S
C142 C143 1.338 . S
C142 N145 1.377 . S
C142 H162 0.930 . S
C143 N141 1.375 . S
C143 C142 1.338 . S
C143 H147 0.931 . S
C144 N141 1.313 . S
C144 N145 1.344 . S
C144 H148 0.930 . S
N145 C142 1.377 . S
N145 C144 1.344 . S
O146 Co138 2.055 . S
O146 C150 1.253 . S
H147 C143 0.931 . S
H148 C144 0.930 . S
O149 Co138 2.039 . S
O149 C139 1.265 . S
C150 O146 1.253 . S
C150 O151 1.227 . S
O151 C150 1.227 . S
N152 Co138 2.140 . S
N152 C155 1.346 . S
N152 C156 1.345 . S
C153 C154 1.387 . S
C153 C157 1.391 . S
C154 C153 1.387 . S
C154 C155 1.369 . S
C154 H163 0.929 . S
C155 N152 1.346 . S
C155 C154 1.369 . S
C155 H158 0.928 . S
C156 N152 1.345 . S
C156 C157 1.371 . S
C156 H159 0.931 . S
C157 C153 1.391 . S
C157 C156 1.371 . S
C157 H164 0.930 . S
H158 C155 0.928 . S
H159 C156 0.931 . S
H160 C136 0.930 . S
H161 C133 0.930 . S
H162 C142 0.930 . S
H163 C154 0.929 . S
H164 C157 0.930 . S
C165 C166 1.351 . S
C165 N168 1.368 . S
C165 H170 0.931 . S
C166 C165 1.351 . S
C166 N167 1.373 . S
C166 H194 0.930 . S
N167 C166 1.373 . S
N167 C169 1.340 . S
N168 C165 1.368 . S
N168 C169 1.321 . S
N168 Co171 2.135 . S
C169 N167 1.340 . S
C169 N168 1.321 . S
C169 H193 0.930 . S
H170 C165 0.931 . S
Co171 N168 2.135 . S
Co171 N174 2.121 . S
Co171 O179 2.055 1_545 S
Co171 O182 2.039 . S
Co171 N185 2.140 . S
C172 O173 1.227 . S
C172 O182 1.265 . S
O173 C172 1.227 . S
N174 Co171 2.121 . S
N174 C176 1.375 . S
N174 C177 1.313 . S
C175 C176 1.338 . S
C175 N178 1.377 . S
C175 H195 0.930 . S
C176 N174 1.375 . S
C176 C175 1.338 . S
C176 H180 0.931 . S
C177 N174 1.313 . S
C177 N178 1.344 . S
C177 H181 0.930 . S
N178 C175 1.377 . S
N178 C177 1.344 . S
O179 Co171 2.055 1_565 S
O179 C183 1.253 . S
H180 C176 0.931 . S
H181 C177 0.930 . S
O182 Co171 2.039 . S
O182 C172 1.265 . S
C183 O179 1.253 . S
C183 O184 1.227 1_565 S
O184 C183 1.227 1_545 S
N185 Co171 2.140 . S
N185 C188 1.346 . S
N185 C189 1.345 . S
C186 C187 1.387 . S
C186 C190 1.391 . S
C187 C186 1.387 . S
C187 C188 1.369 . S
C187 H196 0.929 . S
C188 N185 1.346 . S
C188 C187 1.369 . S
C188 H191 0.928 . S
C189 N185 1.345 . S
C189 C190 1.371 . S
C189 H192 0.931 . S
C190 C186 1.391 . S
C190 C189 1.371 . S
C190 H197 0.930 . S
H191 C188 0.928 . S
H192 C189 0.931 . S
H193 C169 0.930 . S
H194 C166 0.930 . S
H195 C175 0.930 . S
H196 C187 0.929 . S
H197 C190 0.930 . S
C198 C199 1.351 . S
C198 N201 1.368 . S
C198 H203 0.931 . S
C199 C198 1.351 . S
C199 N200 1.373 . S
C199 H227 0.930 . S
N200 C199 1.373 . S
N200 C202 1.340 . S
N201 C198 1.368 . S
N201 C202 1.321 . S
N201 Co204 2.135 . S
C202 N200 1.340 . S
C202 N201 1.321 . S
C202 H226 0.930 . S
H203 C198 0.931 . S
Co204 N201 2.135 . S
Co204 N207 2.121 . S
Co204 O212 2.055 . S
Co204 O215 2.039 . S
Co204 N218 2.140 . S
C205 O206 1.227 . S
C205 O215 1.265 . S
O206 C205 1.227 . S
N207 Co204 2.121 . S
N207 C209 1.375 . S
N207 C210 1.313 . S
C208 C209 1.338 . S
C208 N211 1.377 . S
C208 H228 0.930 . S
C209 N207 1.375 . S
C209 C208 1.338 . S
C209 H213 0.931 . S
C210 N207 1.313 . S
C210 N211 1.344 . S
C210 H214 0.930 . S
N211 C208 1.377 . S
N211 C210 1.344 . S
O212 Co204 2.055 . S
O212 C216 1.253 . S
H213 C209 0.931 . S
H214 C210 0.930 . S
O215 Co204 2.039 . S
O215 C205 1.265 . S
C216 O212 1.253 . S
C216 O217 1.227 . S
O217 C216 1.227 . S
N218 Co204 2.140 . S
N218 C221 1.346 . S
N218 C222 1.345 . S
C219 C220 1.387 . S
C219 C223 1.391 . S
C220 C219 1.387 . S
C220 C221 1.369 . S
C220 H229 0.929 . S
C221 N218 1.346 . S
C221 C220 1.369 . S
C221 H224 0.928 . S
C222 N218 1.345 . S
C222 C223 1.371 . S
C222 H225 0.931 . S
C223 C219 1.391 . S
C223 C222 1.371 . S
C223 H230 0.930 . S
H224 C221 0.928 . S
H225 C222 0.931 . S
H226 C202 0.930 . S
H227 C199 0.930 . S
H228 C208 0.930 . S
H229 C220 0.929 . S
H230 C223 0.930 . S
C231 C232 1.351 . S
C231 N234 1.368 . S
C231 H236 0.931 . S
C232 C231 1.351 . S
C232 N233 1.373 . S
C232 H260 0.930 . S
N233 C232 1.373 . S
N233 C235 1.340 . S
N234 C231 1.368 . S
N234 C235 1.321 . S
N234 Co237 2.135 . S
C235 N233 1.340 . S
C235 N234 1.321 . S
C235 H259 0.930 . S
H236 C231 0.931 . S
Co237 N234 2.135 . S
Co237 N240 2.121 . S
Co237 O245 2.055 1_565 S
Co237 O248 2.039 . S
Co237 N251 2.140 . S
C238 O239 1.227 . S
C238 O248 1.265 . S
O239 C238 1.227 . S
N240 Co237 2.121 . S
N240 C242 1.375 . S
N240 C243 1.313 . S
C241 C242 1.338 . S
C241 N244 1.377 . S
C241 H261 0.930 . S
C242 N240 1.375 . S
C242 C241 1.338 . S
C242 H246 0.931 . S
C243 N240 1.313 . S
C243 N244 1.344 . S
C243 H247 0.930 . S
N244 C241 1.377 . S
N244 C243 1.344 . S
O245 Co237 2.055 1_545 S
O245 C249 1.253 . S
H246 C242 0.931 . S
H247 C243 0.930 . S
O248 Co237 2.039 . S
O248 C238 1.265 . S
C249 O245 1.253 . S
C249 O250 1.227 1_545 S
O250 C249 1.227 1_565 S
N251 Co237 2.140 . S
N251 C254 1.346 . S
N251 C255 1.345 . S
C252 C253 1.387 . S
C252 C256 1.391 . S
C253 C252 1.387 . S
C253 C254 1.369 . S
C253 H262 0.929 . S
C254 N251 1.346 . S
C254 C253 1.369 . S
C254 H257 0.928 . S
C255 N251 1.345 . S
C255 C256 1.371 . S
C255 H258 0.931 . S
C256 C252 1.391 . S
C256 C255 1.371 . S
C256 H263 0.930 . S
H257 C254 0.928 . S
H258 C255 0.931 . S
H259 C235 0.930 . S
H260 C232 0.930 . S
H261 C241 0.930 . S
H262 C253 0.929 . S
H263 C256 0.930 . S
H264 C276 0.930 . S
H265 C278 0.930 . S
H266 C279 0.930 . S
H267 C283 0.959 . S
H268 C283 0.959 . S
H269 C283 0.961 . S
H270 C284 0.960 . S
H271 C284 0.961 . S
H272 C284 0.959 . S
H273 C287 0.929 . S
H274 C288 0.931 . S
H275 C290 0.930 . S
C276 H264 0.930 . S
C276 C277 1.399 . S
C276 C281 1.399 . S
C277 C276 1.399 . S
C277 C278 1.376 . S
C278 H265 0.930 . S
C278 C277 1.376 . S
C278 C279 1.388 . S
C279 H266 0.930 . S
C279 C278 1.388 . S
C279 C280 1.390 . S
C280 C279 1.390 . S
C280 C281 1.394 . S
C280 C286 1.465 . S
C281 C276 1.399 . S
C281 C280 1.394 . S
C281 C282 1.516 1_655 S
C282 C281 1.516 1_455 S
C282 C283 1.502 . S
C282 C284 1.561 1_455 S
C282 C285 1.526 . S
C283 H267 0.959 . S
C283 H268 0.959 . S
C283 H269 0.961 . S
C283 C282 1.502 . S
C284 H270 0.960 . S
C284 H271 0.961 . S
C284 H272 0.959 . S
C284 C282 1.561 1_655 S
C285 C282 1.526 . S
C285 C286 1.396 1_455 S
C285 C290 1.390 . S
C286 C280 1.465 . S
C286 C285 1.396 1_655 S
C286 C287 1.399 . S
C287 H273 0.929 . S
C287 C286 1.399 . S
C287 C288 1.385 1_655 S
C288 H274 0.931 . S
C288 C287 1.385 1_455 S
C288 C289 1.389 . S
C289 C288 1.389 . S
C289 C290 1.387 . S
C290 H275 0.930 . S
C290 C285 1.390 . S
C290 C289 1.387 . S
H291 C303 0.930 . S
H292 C305 0.930 . S
H293 C306 0.930 . S
H294 C310 0.959 . S
H295 C310 0.959 . S
H296 C310 0.961 . S
H297 C311 0.960 1_655 S
H298 C311 0.961 . S
H299 C311 0.959 1_655 S
H300 C314 0.929 . S
H301 C315 0.931 . S
H302 C317 0.930 . S
C303 H291 0.930 . S
C303 C304 1.399 . S
C303 C308 1.399 . S
C304 C303 1.399 . S
C304 C305 1.376 . S
C305 H292 0.930 . S
C305 C304 1.376 . S
C305 C306 1.388 . S
C306 H293 0.930 . S
C306 C305 1.388 . S
C306 C307 1.390 . S
C307 C306 1.390 . S
C307 C308 1.394 . S
C307 C313 1.465 1_655 S
C308 C303 1.399 . S
C308 C307 1.394 . S
C308 C309 1.516 1_655 S
C309 C308 1.516 1_455 S
C309 C310 1.502 . S
C309 C311 1.561 . S
C309 C312 1.526 . S
C310 H294 0.959 . S
C310 H295 0.959 . S
C310 H296 0.961 . S
C310 C309 1.502 . S
C311 H297 0.960 1_455 S
C311 H298 0.961 . S
C311 H299 0.959 1_455 S
C311 C309 1.561 . S
C312 C309 1.526 . S
C312 C313 1.396 . S
C312 C317 1.390 . S
C313 C307 1.465 1_455 S
C313 C312 1.396 . S
C313 C314 1.399 . S
C314 H300 0.929 . S
C314 C313 1.399 . S
C314 C315 1.385 . S
C315 H301 0.931 . S
C315 C314 1.385 . S
C315 C316 1.389 . S
C316 C315 1.389 . S
C316 C317 1.387 . S
C317 H302 0.930 . S
C317 C312 1.390 . S
C317 C316 1.387 . S
H318 C330 0.930 . S
H319 C332 0.930 . S
H320 C333 0.930 . S
H321 C337 0.959 . S
H322 C337 0.959 . S
H323 C337 0.961 1_565 S
H324 C338 0.960 . S
H325 C338 0.961 1_545 S
H326 C338 0.959 . S
H327 C341 0.929 . S
H328 C342 0.931 . S
H329 C344 0.930 . S
C330 H318 0.930 . S
C330 C331 1.399 . S
C330 C335 1.399 . S
C331 C330 1.399 . S
C331 C332 1.376 . S
C332 H319 0.930 . S
C332 C331 1.376 . S
C332 C333 1.388 . S
C333 H320 0.930 . S
C333 C332 1.388 . S
C333 C334 1.390 . S
C334 C333 1.390 . S
C334 C335 1.394 . S
C334 C340 1.465 1_565 S
C335 C330 1.399 . S
C335 C334 1.394 . S
C335 C336 1.536 . S
C336 C335 1.536 . S
C336 C337 1.495 1_565 S
C336 C338 1.569 . S
C336 C339 1.506 1_565 S
C337 H321 0.959 . S
C337 H322 0.959 . S
C337 H323 0.961 1_545 S
C337 C336 1.495 1_545 S
C338 H324 0.960 . S
C338 H325 0.961 1_565 S
C338 H326 0.959 . S
C338 C336 1.569 . S
C339 C336 1.506 1_545 S
C339 C340 1.396 . S
C339 C344 1.390 . S
C340 C334 1.465 1_545 S
C340 C339 1.396 . S
C340 C341 1.399 . S
C341 H327 0.929 . S
C341 C340 1.399 . S
C341 C342 1.385 . S
C342 H328 0.931 . S
C342 C341 1.385 . S
C342 C343 1.389 . S
C343 C342 1.389 . S
C343 C344 1.387 . S
C344 H329 0.930 . S
C344 C339 1.390 . S
C344 C343 1.387 . S
H345 C357 0.930 . S
H346 C359 0.930 . S
H347 C360 0.930 . S
H348 C364 0.959 . S
H349 C364 0.959 . S
H350 C364 0.961 . S
H351 C365 0.960 . S
H352 C365 0.961 1_545 S
H353 C365 0.959 . S
H354 C368 0.929 . S
H355 C369 0.931 . S
H356 C371 0.930 . S
C357 H345 0.930 . S
C357 C358 1.399 . S
C357 C362 1.399 . S
C358 C357 1.399 . S
C358 C359 1.376 . S
C359 H346 0.930 . S
C359 C358 1.376 . S
C359 C360 1.388 . S
C360 H347 0.930 . S
C360 C359 1.388 . S
C360 C361 1.390 . S
C361 C360 1.390 . S
C361 C362 1.394 . S
C361 C367 1.465 . S
C362 C357 1.399 . S
C362 C361 1.394 . S
C362 C363 1.516 1_565 S
C363 C362 1.516 1_545 S
C363 C364 1.502 . S
C363 C365 1.561 1_545 S
C363 C366 1.526 . S
C364 H348 0.959 . S
C364 H349 0.959 . S
C364 H350 0.961 . S
C364 C363 1.502 . S
C365 H351 0.960 . S
C365 H352 0.961 1_565 S
C365 H353 0.959 . S
C365 C363 1.561 1_565 S
C366 C363 1.526 . S
C366 C367 1.396 1_545 S
C366 C371 1.390 . S
C367 C361 1.465 . S
C367 C366 1.396 1_565 S
C367 C368 1.399 . S
C368 H354 0.929 . S
C368 C367 1.399 . S
C368 C369 1.385 1_565 S
C369 H355 0.931 . S
C369 C368 1.385 1_545 S
C369 C370 1.389 . S
C370 C369 1.389 . S
C370 C371 1.387 . S
C371 H356 0.930 . S
C371 C366 1.390 . S
C371 C370 1.387 . S
H372 C384 0.930 . S
H373 C386 0.930 . S
H374 C387 0.930 . S
H375 C391 0.959 . S
H376 C391 0.959 . S
H377 C391 0.961 . S
H378 C392 0.960 . S
H379 C392 0.961 . S
H380 C392 0.959 . S
H381 C395 0.929 . S
H382 C396 0.931 . S
H383 C398 0.930 . S
C384 H372 0.930 . S
C384 C385 1.399 . S
C384 C389 1.399 . S
C385 C384 1.399 . S
C385 C386 1.376 . S
C386 H373 0.930 . S
C386 C385 1.376 . S
C386 C387 1.388 . S
C387 H374 0.930 . S
C387 C386 1.388 . S
C387 C388 1.390 . S
C388 C387 1.390 . S
C388 C389 1.394 . S
C388 C394 1.465 . S
C389 C384 1.399 . S
C389 C388 1.394 . S
C389 C390 1.516 . S
C390 C389 1.516 . S
C390 C391 1.502 . S
C390 C392 1.561 . S
C390 C393 1.526 . S
C391 H375 0.959 . S
C391 H376 0.959 . S
C391 H377 0.961 . S
C391 C390 1.502 . S
C392 H378 0.960 . S
C392 H379 0.961 . S
C392 H380 0.959 . S
C392 C390 1.561 . S
C393 C390 1.526 . S
C393 C394 1.396 . S
C393 C398 1.390 . S
C394 C388 1.465 . S
C394 C393 1.396 . S
C394 C395 1.399 . S
C395 H381 0.929 . S
C395 C394 1.399 . S
C395 C396 1.385 . S
C396 H382 0.931 . S
C396 C395 1.385 . S
C396 C397 1.389 . S
C397 C396 1.389 . S
C397 C398 1.387 . S
C398 H383 0.930 . S
C398 C393 1.390 . S
C398 C397 1.387 . S
H399 C411 0.930 . S
H400 C413 0.930 . S
H401 C414 0.930 . S
H402 C418 0.959 . S
H403 C418 0.959 . S
H404 C418 0.961 . S
H405 C419 0.960 . S
H406 C419 0.961 . S
H407 C419 0.959 . S
H408 C422 0.929 . S
H409 C423 0.931 . S
H410 C425 0.930 . S
C411 H399 0.930 . S
C411 C412 1.399 . S
C411 C416 1.399 . S
C412 C411 1.399 . S
C412 C413 1.376 . S
C413 H400 0.930 . S
C413 C412 1.376 . S
C413 C414 1.388 . S
C414 H401 0.930 . S
C414 C413 1.388 . S
C414 C415 1.390 . S
C415 C414 1.390 . S
C415 C416 1.394 . S
C415 C421 1.465 . S
C416 C411 1.399 . S
C416 C415 1.394 . S
C416 C417 1.516 . S
C417 C416 1.516 . S
C417 C418 1.502 . S
C417 C419 1.561 . S
C417 C420 1.526 . S
C418 H402 0.959 . S
C418 H403 0.959 . S
C418 H404 0.961 . S
C418 C417 1.502 . S
C419 H405 0.960 . S
C419 H406 0.961 . S
C419 H407 0.959 . S
C419 C417 1.561 . S
C420 C417 1.526 . S
C420 C421 1.396 . S
C420 C425 1.390 . S
C421 C415 1.465 . S
C421 C420 1.396 . S
C421 C422 1.399 . S
C422 H408 0.929 . S
C422 C421 1.399 . S
C422 C423 1.385 . S
C423 H409 0.931 . S
C423 C422 1.385 . S
C423 C424 1.389 . S
C424 C423 1.389 . S
C424 C425 1.387 . S
C425 H410 0.930 . S
C425 C420 1.390 . S
C425 C424 1.387 . S
H426 C438 0.930 . S
H427 C440 0.930 . S
H428 C441 0.930 . S
H429 C445 0.959 . S
H430 C445 0.959 . S
H431 C445 0.961 . S
H432 C446 0.960 . S
H433 C446 0.961 . S
H434 C446 0.959 . S
H435 C449 0.929 . S
H436 C450 0.931 . S
H437 C452 0.930 . S
C438 H426 0.930 . S
C438 C439 1.399 . S
C438 C443 1.399 . S
C439 C438 1.399 . S
C439 C440 1.376 . S
C440 H427 0.930 . S
C440 C439 1.376 . S
C440 C441 1.388 . S
C441 H428 0.930 . S
C441 C440 1.388 . S
C441 C442 1.390 . S
C442 C441 1.390 . S
C442 C443 1.394 . S
C442 C448 1.465 . S
C443 C438 1.399 . S
C443 C442 1.394 . S
C443 C444 1.516 . S
C444 C443 1.516 . S
C444 C445 1.502 . S
C444 C446 1.561 . S
C444 C447 1.526 . S
C445 H429 0.959 . S
C445 H430 0.959 . S
C445 H431 0.961 . S
C445 C444 1.502 . S
C446 H432 0.960 . S
C446 H433 0.961 . S
C446 H434 0.959 . S
C446 C444 1.561 . S
C447 C444 1.526 . S
C447 C448 1.396 . S
C447 C452 1.390 . S
C448 C442 1.465 . S
C448 C447 1.396 . S
C448 C449 1.399 . S
C449 H435 0.929 . S
C449 C448 1.399 . S
C449 C450 1.385 . S
C450 H436 0.931 . S
C450 C449 1.385 . S
C450 C451 1.389 . S
C451 C450 1.389 . S
C451 C452 1.387 . S
C452 H437 0.930 . S
C452 C447 1.390 . S
C452 C451 1.387 . S
H453 C465 0.930 . S
H454 C467 0.930 . S
H455 C468 0.930 . S
H456 C472 0.959 . S
H457 C472 0.959 . S
H458 C472 0.961 . S
H459 C473 0.960 . S
H460 C473 0.961 . S
H461 C473 0.959 . S
H462 C476 0.929 . S
H463 C477 0.931 . S
H464 C479 0.930 . S
C465 H453 0.930 . S
C465 C466 1.399 . S
C465 C470 1.399 . S
C466 C465 1.399 . S
C466 C467 1.376 . S
C467 H454 0.930 . S
C467 C466 1.376 . S
C467 C468 1.388 . S
C468 H455 0.930 . S
C468 C467 1.388 . S
C468 C469 1.390 . S
C469 C468 1.390 . S
C469 C470 1.394 . S
C469 C475 1.465 . S
C470 C465 1.399 . S
C470 C469 1.394 . S
C470 C471 1.516 . S
C471 C470 1.516 . S
C471 C472 1.502 . S
C471 C473 1.561 . S
C471 C474 1.526 . S
C472 H456 0.959 . S
C472 H457 0.959 . S
C472 H458 0.961 . S
C472 C471 1.502 . S
C473 H459 0.960 . S
C473 H460 0.961 . S
C473 H461 0.959 . S
C473 C471 1.561 . S
C474 C471 1.526 . S
C474 C475 1.396 . S
C474 C479 1.390 . S
C475 C469 1.465 . S
C475 C474 1.396 . S
C475 C476 1.399 . S
C476 H462 0.929 . S
C476 C475 1.399 . S
C476 C477 1.385 . S
C477 H463 0.931 . S
C477 C476 1.385 . S
C477 C478 1.389 . S
C478 C477 1.389 . S
C478 C479 1.387 . S
C479 H464 0.930 . S
C479 C474 1.390 . S
C479 C478 1.387 . S
H480 C492 0.930 . S
H481 C494 0.930 . S
H482 C495 0.930 . S
H483 C499 0.959 . S
H484 C499 0.959 . S
H485 C499 0.961 . S
H486 C500 0.960 . S
H487 C500 0.961 . S
H488 C500 0.959 . S
H489 C503 0.929 . S
H490 C504 0.931 . S
H491 C506 0.930 . S
C492 H480 0.930 . S
C492 C493 1.399 . S
C492 C497 1.399 . S
C493 C492 1.399 . S
C493 C494 1.376 . S
C494 H481 0.930 . S
C494 C493 1.376 . S
C494 C495 1.388 . S
C495 H482 0.930 . S
C495 C494 1.388 . S
C495 C496 1.390 . S
C496 C495 1.390 . S
C496 C497 1.394 . S
C496 C502 1.465 . S
C497 C492 1.399 . S
C497 C496 1.394 . S
C497 C498 1.516 . S
C498 C497 1.516 . S
C498 C499 1.502 . S
C498 C500 1.561 . S
C498 C501 1.526 . S
C499 H483 0.959 . S
C499 H484 0.959 . S
C499 H485 0.961 . S
C499 C498 1.502 . S
C500 H486 0.960 . S
C500 H487 0.961 . S
C500 H488 0.959 . S
C500 C498 1.561 . S
C501 C498 1.526 . S
C501 C502 1.396 . S
C501 C506 1.390 . S
C502 C496 1.465 . S
C502 C501 1.396 . S
C502 C503 1.399 . S
C503 H489 0.929 . S
C503 C502 1.399 . S
C503 C504 1.385 . S
C504 H490 0.931 . S
C504 C503 1.385 . S
C504 C505 1.389 . S
C505 C504 1.389 . S
C505 C506 1.387 . S
C506 H491 0.930 . S
C506 C501 1.390 . S
C506 C505 1.387 . S
H507 C519 0.930 . S
H508 C521 0.930 . S
H509 C522 0.930 . S
H510 C526 0.959 . S
H511 C526 0.959 . S
H512 C526 0.961 . S
H513 C527 0.960 . S
H514 C527 0.961 . S
H515 C527 0.959 . S
H516 C530 0.929 . S
H517 C531 0.931 . S
H518 C533 0.930 . S
C519 H507 0.930 . S
C519 C520 1.399 . S
C519 C524 1.399 . S
C520 C519 1.399 . S
C520 C521 1.376 . S
C521 H508 0.930 . S
C521 C520 1.376 . S
C521 C522 1.388 . S
C522 H509 0.930 . S
C522 C521 1.388 . S
C522 C523 1.390 . S
C523 C522 1.390 . S
C523 C524 1.394 . S
C523 C529 1.465 . S
C524 C519 1.399 . S
C524 C523 1.394 . S
C524 C525 1.516 . S
C525 C524 1.516 . S
C525 C526 1.502 . S
C525 C527 1.561 . S
C525 C528 1.526 . S
C526 H510 0.959 . S
C526 H511 0.959 . S
C526 H512 0.961 . S
C526 C525 1.502 . S
C527 H513 0.960 . S
C527 H514 0.961 . S
C527 H515 0.959 . S
C527 C525 1.561 . S
C528 C525 1.526 . S
C528 C529 1.396 . S
C528 C533 1.390 . S
C529 C523 1.465 . S
C529 C528 1.396 . S
C529 C530 1.399 . S
C530 H516 0.929 . S
C530 C529 1.399 . S
C530 C531 1.385 . S
C531 H517 0.931 . S
C531 C530 1.385 . S
C531 C532 1.389 . S
C532 C531 1.389 . S
C532 C533 1.387 . S
C533 H518 0.930 . S
C533 C528 1.390 . S
C533 C532 1.387 . S
H534 C546 0.930 . S
H535 C548 0.930 . S
H536 C549 0.930 . S
H537 C553 0.959 . S
H538 C553 0.959 . S
H539 C553 0.961 . S
H540 C554 0.960 . S
H541 C554 0.961 . S
H542 C554 0.959 . S
H543 C557 0.929 . S
H544 C558 0.931 . S
H545 C560 0.930 . S
C546 H534 0.930 . S
C546 C547 1.399 . S
C546 C551 1.399 . S
C547 C546 1.399 . S
C547 C548 1.376 . S
C548 H535 0.930 . S
C548 C547 1.376 . S
C548 C549 1.388 . S
C549 H536 0.930 . S
C549 C548 1.388 . S
C549 C550 1.390 . S
C550 C549 1.390 . S
C550 C551 1.394 . S
C550 C556 1.465 . S
C551 C546 1.399 . S
C551 C550 1.394 . S
C551 C552 1.516 . S
C552 C551 1.516 . S
C552 C553 1.502 . S
C552 C554 1.561 . S
C552 C555 1.526 . S
C553 H537 0.959 . S
C553 H538 0.959 . S
C553 H539 0.961 . S
C553 C552 1.502 . S
C554 H540 0.960 . S
C554 H541 0.961 . S
C554 H542 0.959 . S
C554 C552 1.561 . S
C555 C552 1.526 . S
C555 C556 1.396 . S
C555 C560 1.390 . S
C556 C550 1.465 . S
C556 C555 1.396 . S
C556 C557 1.399 . S
C557 H543 0.929 . S
C557 C556 1.399 . S
C557 C558 1.385 . S
C558 H544 0.931 . S
C558 C557 1.385 . S
C558 C559 1.389 . S
C559 C558 1.389 . S
C559 C560 1.387 . S
C560 H545 0.930 . S
C560 C555 1.390 . S
C560 C559 1.387 . S
H561 C573 0.930 . S
H562 C575 0.930 . S
H563 C576 0.930 . S
H564 C580 0.959 . S
H565 C580 0.959 . S
H566 C580 0.961 . S
H567 C581 0.960 . S
H568 C581 0.961 . S
H569 C581 0.959 . S
H570 C584 0.929 . S
H571 C585 0.931 . S
H572 C587 0.930 . S
C573 H561 0.930 . S
C573 C574 1.399 . S
C573 C578 1.399 . S
C574 C573 1.399 . S
C574 C575 1.376 . S
C575 H562 0.930 . S
C575 C574 1.376 . S
C575 C576 1.388 . S
C576 H563 0.930 . S
C576 C575 1.388 . S
C576 C577 1.390 . S
C577 C576 1.390 . S
C577 C578 1.394 . S
C577 C583 1.465 . S
C578 C573 1.399 . S
C578 C577 1.394 . S
C578 C579 1.516 . S
C579 C578 1.516 . S
C579 C580 1.502 . S
C579 C581 1.561 . S
C579 C582 1.526 . S
C580 H564 0.959 . S
C580 H565 0.959 . S
C580 H566 0.961 . S
C580 C579 1.502 . S
C581 H567 0.960 . S
C581 H568 0.961 . S
C581 H569 0.959 . S
C581 C579 1.561 . S
C582 C579 1.526 . S
C582 C583 1.396 . S
C582 C587 1.390 . S
C583 C577 1.465 . S
C583 C582 1.396 . S
C583 C584 1.399 . S
C584 H570 0.929 . S
C584 C583 1.399 . S
C584 C585 1.385 . S
C585 H571 0.931 . S
C585 C584 1.385 . S
C585 C586 1.389 . S
C586 C585 1.389 . S
C586 C587 1.387 . S
C587 H572 0.930 . S
C587 C582 1.390 . S
C587 C586 1.387 . S
H588 C600 0.930 . S
H589 C602 0.930 . S
H590 C603 0.930 . S
H591 C607 0.959 . S
H592 C607 0.959 . S
H593 C607 0.961 . S
H594 C608 0.960 . S
H595 C608 0.961 . S
H596 C608 0.959 . S
H597 C611 0.929 . S
H598 C612 0.931 . S
H599 C614 0.930 . S
C600 H588 0.930 . S
C600 C601 1.399 . S
C600 C605 1.399 . S
C601 C600 1.399 . S
C601 C602 1.376 . S
C602 H589 0.930 . S
C602 C601 1.376 . S
C602 C603 1.388 . S
C603 H590 0.930 . S
C603 C602 1.388 . S
C603 C604 1.390 . S
C604 C603 1.390 . S
C604 C605 1.394 . S
C604 C610 1.465 . S
C605 C600 1.399 . S
C605 C604 1.394 . S
C605 C606 1.516 . S
C606 C605 1.516 . S
C606 C607 1.502 . S
C606 C608 1.561 . S
C606 C609 1.526 . S
C607 H591 0.959 . S
C607 H592 0.959 . S
C607 H593 0.961 . S
C607 C606 1.502 . S
C608 H594 0.960 . S
C608 H595 0.961 . S
C608 H596 0.959 . S
C608 C606 1.561 . S
C609 C606 1.526 . S
C609 C610 1.396 . S
C609 C614 1.390 . S
C610 C604 1.465 . S
C610 C609 1.396 . S
C610 C611 1.399 . S
C611 H597 0.929 . S
C611 C610 1.399 . S
C611 C612 1.385 . S
C612 H598 0.931 . S
C612 C611 1.385 . S
C612 C613 1.389 . S
C613 C612 1.389 . S
C613 C614 1.387 . S
C614 H599 0.930 . S
C614 C609 1.390 . S
C614 C613 1.387 . S
H615 C627 0.930 . S
H616 C629 0.930 . S
H617 C630 0.930 1_556 S
H618 C634 0.959 . S
H619 C634 0.959 . S
H620 C634 0.961 . S
H621 C635 0.960 . S
H622 C635 0.961 . S
H623 C635 0.959 . S
H624 C638 0.929 . S
H625 C639 0.931 . S
H626 C641 0.930 . S
C627 H615 0.930 . S
C627 C628 1.399 . S
C627 C632 1.399 . S
C628 C627 1.399 . S
C628 C629 1.376 . S
C629 H616 0.930 . S
C629 C628 1.376 . S
C629 C630 1.388 . S
C630 H617 0.930 1_554 S
C630 C629 1.388 . S
C630 C631 1.390 . S
C631 C630 1.390 . S
C631 C632 1.394 . S
C631 C637 1.465 1_554 S
C632 C627 1.399 . S
C632 C631 1.394 . S
C632 C633 1.516 . S
C633 C632 1.516 . S
C633 C634 1.502 . S
C633 C635 1.561 . S
C633 C636 1.526 1_554 S
C634 H618 0.959 . S
C634 H619 0.959 . S
C634 H620 0.961 . S
C634 C633 1.502 . S
C635 H621 0.960 . S
C635 H622 0.961 . S
C635 H623 0.959 . S
C635 C633 1.561 . S
C636 C633 1.526 1_556 S
C636 C637 1.396 . S
C636 C641 1.390 . S
C637 C631 1.465 1_556 S
C637 C636 1.396 . S
C637 C638 1.399 . S
C638 H624 0.929 . S
C638 C637 1.399 . S
C638 C639 1.385 . S
C639 H625 0.931 . S
C639 C638 1.385 . S
C639 C640 1.389 . S
C640 C639 1.389 . S
C640 C641 1.387 . S
C641 H626 0.930 . S
C641 C636 1.390 . S
C641 C640 1.387 . S
H642 C654 0.930 . S
H643 C656 0.930 . S
H644 C657 0.930 . S
H645 C661 0.959 . S
H646 C661 0.959 . S
H647 C661 0.961 . S
H648 C662 0.960 . S
H649 C662 0.961 . S
H650 C662 0.959 . S
H651 C665 0.929 . S
H652 C666 0.931 . S
H653 C668 0.930 . S
C654 H642 0.930 . S
C654 C655 1.399 . S
C654 C659 1.399 . S
C655 C654 1.399 . S
C655 C656 1.376 . S
C656 H643 0.930 . S
C656 C655 1.376 . S
C656 C657 1.388 . S
C657 H644 0.930 . S
C657 C656 1.388 . S
C657 C658 1.390 . S
C658 C657 1.390 . S
C658 C659 1.394 . S
C658 C664 1.465 . S
C659 C654 1.399 . S
C659 C658 1.394 . S
C659 C660 1.516 . S
C660 C659 1.516 . S
C660 C661 1.502 . S
C660 C662 1.561 . S
C660 C663 1.526 . S
C661 H645 0.959 . S
C661 H646 0.959 . S
C661 H647 0.961 . S
C661 C660 1.502 . S
C662 H648 0.960 . S
C662 H649 0.961 . S
C662 H650 0.959 . S
C662 C660 1.561 . S
C663 C660 1.526 . S
C663 C664 1.396 . S
C663 C668 1.390 . S
C664 C658 1.465 . S
C664 C663 1.396 . S
C664 C665 1.399 . S
C665 H651 0.929 . S
C665 C664 1.399 . S
C665 C666 1.385 . S
C666 H652 0.931 . S
C666 C665 1.385 . S
C666 C667 1.389 . S
C667 C666 1.389 . S
C667 C668 1.387 . S
C668 H653 0.930 . S
C668 C663 1.390 . S
C668 C667 1.387 . S
H669 C681 0.930 . S
H670 C683 0.930 . S
H671 C684 0.930 . S
H672 C688 0.959 . S
H673 C688 0.959 1_556 S
H674 C688 0.961 . S
H675 C689 0.960 . S
H676 C689 0.961 . S
H677 C689 0.959 . S
H678 C692 0.929 . S
H679 C693 0.931 . S
H680 C695 0.930 . S
C681 H669 0.930 . S
C681 C682 1.399 . S
C681 C686 1.399 . S
C682 C681 1.399 . S
C682 C683 1.376 . S
C683 H670 0.930 . S
C683 C682 1.376 . S
C683 C684 1.388 . S
C684 H671 0.930 . S
C684 C683 1.388 . S
C684 C685 1.390 . S
C685 C684 1.390 . S
C685 C686 1.394 . S
C685 C691 1.465 1_554 S
C686 C681 1.399 . S
C686 C685 1.394 . S
C686 C687 1.516 1_554 S
C687 C686 1.516 1_556 S
C687 C688 1.502 1_556 S
C687 C689 1.561 . S
C687 C690 1.526 . S
C688 H672 0.959 . S
C688 H673 0.959 1_554 S
C688 H674 0.961 . S
C688 C687 1.502 1_554 S
C689 H675 0.960 . S
C689 H676 0.961 . S
C689 H677 0.959 . S
C689 C687 1.561 . S
C690 C687 1.526 . S
C690 C691 1.396 . S
C690 C695 1.390 . S
C691 C685 1.465 1_556 S
C691 C690 1.396 . S
C691 C692 1.399 . S
C692 H678 0.929 . S
C692 C691 1.399 . S
C692 C693 1.385 . S
C693 H679 0.931 . S
C693 C692 1.385 . S
C693 C694 1.389 . S
C694 C693 1.389 . S
C694 C695 1.387 . S
C695 H680 0.930 . S
C695 C690 1.390 . S
C695 C694 1.387 . S
H696 C708 0.930 . S
H697 C710 0.930 . S
H698 C711 0.930 . S
H699 C715 0.959 . S
H700 C715 0.959 . S
H701 C715 0.961 . S
H702 C716 0.960 . S
H703 C716 0.961 1_545 S
H704 C716 0.959 . S
H705 C719 0.929 . S
H706 C720 0.931 . S
H707 C722 0.930 . S
C708 H696 0.930 . S
C708 C709 1.399 . S
C708 C713 1.399 . S
C709 C708 1.399 . S
C709 C710 1.376 . S
C710 H697 0.930 . S
C710 C709 1.376 . S
C710 C711 1.388 . S
C711 H698 0.930 . S
C711 C710 1.388 . S
C711 C712 1.390 . S
C712 C711 1.390 . S
C712 C713 1.394 . S
C712 C718 1.465 1_665 S
C713 C708 1.399 . S
C713 C712 1.394 . S
C713 C714 1.516 1_565 S
C714 C713 1.516 1_545 S
C714 C715 1.502 . S
C714 C716 1.561 1_645 S
C714 C717 1.526 1_655 S
C715 H699 0.959 . S
C715 H700 0.959 . S
C715 H701 0.961 . S
C715 C714 1.502 . S
C716 H702 0.960 . S
C716 H703 0.961 1_565 S
C716 H704 0.959 . S
C716 C714 1.561 1_465 S
C717 C714 1.526 1_455 S
C717 C718 1.396 . S
C717 C722 1.390 . S
C718 C712 1.465 1_445 S
C718 C717 1.396 . S
C718 C719 1.399 . S
C719 H705 0.929 . S
C719 C718 1.399 . S
C719 C720 1.385 . S
C720 H706 0.931 . S
C720 C719 1.385 . S
C720 C721 1.389 . S
C721 C720 1.389 . S
C721 C722 1.387 . S
C722 H707 0.930 . S
C722 C717 1.390 . S
C722 C721 1.387 . S
H723 C735 0.930 . S
H724 C737 0.930 . S
H725 C738 0.930 . S
H726 C742 0.959 . S
H727 C742 0.959 . S
H728 C742 0.961 . S
H729 C743 0.960 . S
H730 C743 0.961 . S
H731 C743 0.959 . S
H732 C746 0.929 . S
H733 C747 0.931 . S
H734 C749 0.930 . S
C735 H723 0.930 . S
C735 C736 1.399 . S
C735 C740 1.399 . S
C736 C735 1.399 . S
C736 C737 1.376 . S
C737 H724 0.930 . S
C737 C736 1.376 . S
C737 C738 1.388 . S
C738 H725 0.930 . S
C738 C737 1.388 . S
C738 C739 1.390 . S
C739 C738 1.390 . S
C739 C740 1.394 . S
C739 C745 1.465 . S
C740 C735 1.399 . S
C740 C739 1.394 . S
C740 C741 1.516 . S
C741 C740 1.516 . S
C741 C742 1.502 . S
C741 C743 1.561 . S
C741 C744 1.526 . S
C742 H726 0.959 . S
C742 H727 0.959 . S
C742 H728 0.961 . S
C742 C741 1.502 . S
C743 H729 0.960 . S
C743 H730 0.961 . S
C743 H731 0.959 . S
C743 C741 1.561 . S
C744 C741 1.526 . S
C744 C745 1.396 . S
C744 C749 1.390 . S
C745 C739 1.465 . S
C745 C744 1.396 . S
C745 C746 1.399 . S
C746 H732 0.929 . S
C746 C745 1.399 . S
C746 C747 1.385 . S
C747 H733 0.931 . S
C747 C746 1.385 . S
C747 C748 1.389 . S
C748 C747 1.389 . S
C748 C749 1.387 . S
C749 H734 0.930 . S
C749 C744 1.390 . S
C749 C748 1.387 . S
H750 C762 0.930 . S
H751 C764 0.930 . S
H752 C765 0.930 . S
H753 C769 0.959 . S
H754 C769 0.959 . S
H755 C769 0.961 . S
H756 C770 0.960 . S
H757 C770 0.961 . S
H758 C770 0.959 . S
H759 C773 0.929 . S
H760 C774 0.931 . S
H761 C776 0.930 . S
C762 H750 0.930 . S
C762 C763 1.399 . S
C762 C767 1.399 . S
C763 C762 1.399 . S
C763 C764 1.376 . S
C764 H751 0.930 . S
C764 C763 1.376 . S
C764 C765 1.388 . S
C765 H752 0.930 . S
C765 C764 1.388 . S
C765 C766 1.390 . S
C766 C765 1.390 . S
C766 C767 1.394 . S
C766 C772 1.465 . S
C767 C762 1.399 . S
C767 C766 1.394 . S
C767 C768 1.516 . S
C768 C767 1.516 . S
C768 C769 1.502 . S
C768 C770 1.561 . S
C768 C771 1.526 . S
C769 H753 0.959 . S
C769 H754 0.959 . S
C769 H755 0.961 . S
C769 C768 1.502 . S
C770 H756 0.960 . S
C770 H757 0.961 . S
C770 H758 0.959 . S
C770 C768 1.561 . S
C771 C768 1.526 . S
C771 C772 1.396 . S
C771 C776 1.390 . S
C772 C766 1.465 . S
C772 C771 1.396 . S
C772 C773 1.399 . S
C773 H759 0.929 . S
C773 C772 1.399 . S
C773 C774 1.385 . S
C774 H760 0.931 . S
C774 C773 1.385 . S
C774 C775 1.389 . S
C775 C774 1.389 . S
C775 C776 1.387 . S
C776 H761 0.930 . S
C776 C771 1.390 . S
C776 C775 1.387 . S
H777 C789 0.930 . S
H778 C791 0.930 . S
H779 C792 0.930 . S
H780 C796 0.959 . S
H781 C796 0.953 1_655 S
H782 C796 0.961 . S
H783 C797 0.960 . S
H784 C797 0.961 . S
H785 C797 0.959 . S
H786 C800 0.929 . S
H787 C801 0.931 . S
H788 C803 0.930 . S
C789 H777 0.930 . S
C789 C790 1.399 . S
C789 C794 1.399 . S
C790 C789 1.399 . S
C790 C791 1.376 . S
C791 H778 0.930 . S
C791 C790 1.376 . S
C791 C792 1.388 . S
C792 H779 0.930 . S
C792 C791 1.388 . S
C792 C793 1.390 . S
C793 C792 1.390 . S
C793 C794 1.394 . S
C793 C799 1.465 1_445 S
C794 C789 1.399 . S
C794 C793 1.394 . S
C794 C795 1.513 1_455 S
C795 C794 1.513 1_655 S
C795 C796 1.494 1_645 S
C795 C797 1.569 . S
C795 C798 1.529 1_545 S
C796 H780 0.959 . S
C796 H781 0.953 1_455 S
C796 H782 0.961 . S
C796 C795 1.494 1_465 S
C797 H783 0.960 . S
C797 H784 0.961 . S
C797 H785 0.959 . S
C797 C795 1.569 . S
C798 C795 1.529 1_565 S
C798 C799 1.396 . S
C798 C803 1.390 . S
C799 C793 1.465 1_665 S
C799 C798 1.396 . S
C799 C800 1.399 . S
C800 H786 0.929 . S
C800 C799 1.399 . S
C800 C801 1.385 . S
C801 H787 0.931 . S
C801 C800 1.385 . S
C801 C802 1.389 . S
C802 C801 1.389 . S
C802 C803 1.387 . S
C803 H788 0.930 . S
C803 C798 1.390 . S
C803 C802 1.387 . S
C277 N79 1.129 . S
C289 N13 1.133 . S
C304 N112 1.103 . S
C316 N46 1.097 . S
C331 N211 1.093 . S
C343 N145 1.091 . S
C358 N244 1.127 . S
C370 N178 1.132 . S
C385 C150 1.921 . S
C397 C21 1.923 . S
C412 C183 1.927 . S
C424 C54 1.911 . S
C439 C216 1.930 . S
C451 C87 1.922 . S
C466 C120 1.914 . S
C478 C249 1.923 . S
C493 C18 1.929 . S
C505 C153 1.927 . S
C520 C51 1.922 . S
C532 C186 1.916 . S
C547 C84 1.922 . S
C559 C219 1.916 . S
C574 C252 1.913 . S
C586 C117 1.924 . S
C601 C7 1.757 . S
C613 C172 1.721 . S
C628 C205 1.780 . S
C640 C40 1.708 . S
C655 C238 1.725 . S
C667 C73 1.752 . S
C682 C139 1.757 . S
C694 C106 1.738 . S
C709 N68 0.507 . S
C721 N2 0.648 . S
C736 N35 0.760 . S
C748 N101 0.595 . S
C763 N200 0.485 . S
C775 N134 0.746 . S
C790 N167 0.737 . S
C802 N233 0.647 . S
