# Generated by pormake.
# Topology ukv, (4)-cn, num edge types: 1
# Building blocks:
#     Node 0, Type 0, BuildingBlock: CEKHIL_clean_sbu_0, # of connection points: 4
#     Node 1, Type 0, BuildingBlock: CEKHIL_clean_sbu_0, # of connection points: 4
#     Node 2, Type 0, BuildingBlock: CEKHIL_clean_sbu_0, # of connection points: 4
#     Node 3, Type 0, BuildingBlock: CEKHIL_clean_sbu_0, # of connection points: 4
#     Node 4, Type 0, BuildingBlock: CEKHIL_clean_sbu_0, # of connection points: 4
#     Node 5, Type 0, BuildingBlock: CEKHIL_clean_sbu_0, # of connection points: 4
#     Node 6, Type 0, BuildingBlock: CEKHIL_clean_sbu_0, # of connection points: 4
#     Node 7, Type 0, BuildingBlock: CEKHIL_clean_sbu_0, # of connection points: 4
#     Node 8, Type 0, BuildingBlock: CEKHIL_clean_sbu_0, # of connection points: 4
#     Node 9, Type 0, BuildingBlock: CEKHIL_clean_sbu_0, # of connection points: 4
#     Node 10, Type 0, BuildingBlock: CEKHIL_clean_sbu_0, # of connection points: 4
#     Node 11, Type 0, BuildingBlock: CEKHIL_clean_sbu_0, # of connection points: 4
#     Node 12, Type 0, BuildingBlock: CEKHIL_clean_sbu_0, # of connection points: 4
#     Node 13, Type 0, BuildingBlock: CEKHIL_clean_sbu_0, # of connection points: 4
#     Node 14, Type 0, BuildingBlock: CEKHIL_clean_sbu_0, # of connection points: 4
#     Node 15, Type 0, BuildingBlock: CEKHIL_clean_sbu_0, # of connection points: 4
#     Node 16, Type 0, BuildingBlock: CEKHIL_clean_sbu_0, # of connection points: 4
#     Node 17, Type 0, BuildingBlock: CEKHIL_clean_sbu_0, # of connection points: 4
#     Node 18, Type 0, BuildingBlock: CEKHIL_clean_sbu_0, # of connection points: 4
#     Node 19, Type 0, BuildingBlock: CEKHIL_clean_sbu_0, # of connection points: 4
#     Node 20, Type 0, BuildingBlock: CEKHIL_clean_sbu_0, # of connection points: 4
#     Node 21, Type 0, BuildingBlock: CEKHIL_clean_sbu_0, # of connection points: 4
#     Node 22, Type 0, BuildingBlock: CEKHIL_clean_sbu_0, # of connection points: 4
#     Node 23, Type 0, BuildingBlock: CEKHIL_clean_sbu_0, # of connection points: 4
#     Node 24, Type 0, BuildingBlock: CEKHIL_clean_sbu_0, # of connection points: 4
#     Node 25, Type 0, BuildingBlock: CEKHIL_clean_sbu_0, # of connection points: 4
#     Node 26, Type 0, BuildingBlock: CEKHIL_clean_sbu_0, # of connection points: 4
#     Node 27, Type 0, BuildingBlock: CEKHIL_clean_sbu_0, # of connection points: 4
#     Node 28, Type 0, BuildingBlock: CEKHIL_clean_sbu_0, # of connection points: 4
#     Node 29, Type 0, BuildingBlock: CEKHIL_clean_sbu_0, # of connection points: 4
#     Node 30, Type 0, BuildingBlock: CEKHIL_clean_sbu_0, # of connection points: 4
#     Node 31, Type 0, BuildingBlock: CEKHIL_clean_sbu_0, # of connection points: 4
#     Node 32, Type 0, BuildingBlock: CEKHIL_clean_sbu_0, # of connection points: 4
#     Node 33, Type 0, BuildingBlock: CEKHIL_clean_sbu_0, # of connection points: 4
#     Node 34, Type 0, BuildingBlock: CEKHIL_clean_sbu_0, # of connection points: 4
#     Node 35, Type 0, BuildingBlock: CEKHIL_clean_sbu_0, # of connection points: 4
#     Edge 36, Type (0, 0), BuildingBlock: OJICUG_clean_linker_0, # of connection points: 2
#     Edge 37, Type (0, 0), BuildingBlock: OJICUG_clean_linker_0, # of connection points: 2
#     Edge 38, Type (0, 0), BuildingBlock: OJICUG_clean_linker_0, # of connection points: 2
#     Edge 39, Type (0, 0), BuildingBlock: OJICUG_clean_linker_0, # of connection points: 2
#     Edge 40, Type (0, 0), BuildingBlock: OJICUG_clean_linker_0, # of connection points: 2
#     Edge 41, Type (0, 0), BuildingBlock: OJICUG_clean_linker_0, # of connection points: 2
#     Edge 42, Type (0, 0), BuildingBlock: OJICUG_clean_linker_0, # of connection points: 2
#     Edge 43, Type (0, 0), BuildingBlock: OJICUG_clean_linker_0, # of connection points: 2
#     Edge 44, Type (0, 0), BuildingBlock: OJICUG_clean_linker_0, # of connection points: 2
#     Edge 45, Type (0, 0), BuildingBlock: OJICUG_clean_linker_0, # of connection points: 2
#     Edge 46, Type (0, 0), BuildingBlock: OJICUG_clean_linker_0, # of connection points: 2
#     Edge 47, Type (0, 0), BuildingBlock: OJICUG_clean_linker_0, # of connection points: 2
#     Edge 48, Type (0, 0), BuildingBlock: OJICUG_clean_linker_0, # of connection points: 2
#     Edge 49, Type (0, 0), BuildingBlock: OJICUG_clean_linker_0, # of connection points: 2
#     Edge 50, Type (0, 0), BuildingBlock: OJICUG_clean_linker_0, # of connection points: 2
#     Edge 51, Type (0, 0), BuildingBlock: OJICUG_clean_linker_0, # of connection points: 2
#     Edge 52, Type (0, 0), BuildingBlock: OJICUG_clean_linker_0, # of connection points: 2
#     Edge 53, Type (0, 0), BuildingBlock: OJICUG_clean_linker_0, # of connection points: 2
#     Edge 54, Type (0, 0), BuildingBlock: OJICUG_clean_linker_0, # of connection points: 2
#     Edge 55, Type (0, 0), BuildingBlock: OJICUG_clean_linker_0, # of connection points: 2
#     Edge 56, Type (0, 0), BuildingBlock: OJICUG_clean_linker_0, # of connection points: 2
#     Edge 57, Type (0, 0), BuildingBlock: OJICUG_clean_linker_0, # of connection points: 2
#     Edge 58, Type (0, 0), BuildingBlock: OJICUG_clean_linker_0, # of connection points: 2
#     Edge 59, Type (0, 0), BuildingBlock: OJICUG_clean_linker_0, # of connection points: 2
#     Edge 60, Type (0, 0), BuildingBlock: OJICUG_clean_linker_0, # of connection points: 2
#     Edge 61, Type (0, 0), BuildingBlock: OJICUG_clean_linker_0, # of connection points: 2
#     Edge 62, Type (0, 0), BuildingBlock: OJICUG_clean_linker_0, # of connection points: 2
#     Edge 63, Type (0, 0), BuildingBlock: OJICUG_clean_linker_0, # of connection points: 2
#     Edge 64, Type (0, 0), BuildingBlock: OJICUG_clean_linker_0, # of connection points: 2
#     Edge 65, Type (0, 0), BuildingBlock: OJICUG_clean_linker_0, # of connection points: 2
#     Edge 66, Type (0, 0), BuildingBlock: OJICUG_clean_linker_0, # of connection points: 2
#     Edge 67, Type (0, 0), BuildingBlock: OJICUG_clean_linker_0, # of connection points: 2
#     Edge 68, Type (0, 0), BuildingBlock: OJICUG_clean_linker_0, # of connection points: 2
#     Edge 69, Type (0, 0), BuildingBlock: OJICUG_clean_linker_0, # of connection points: 2
#     Edge 70, Type (0, 0), BuildingBlock: OJICUG_clean_linker_0, # of connection points: 2
#     Edge 71, Type (0, 0), BuildingBlock: OJICUG_clean_linker_0, # of connection points: 2
#     Edge 72, Type (0, 0), BuildingBlock: OJICUG_clean_linker_0, # of connection points: 2
#     Edge 73, Type (0, 0), BuildingBlock: OJICUG_clean_linker_0, # of connection points: 2
#     Edge 74, Type (0, 0), BuildingBlock: OJICUG_clean_linker_0, # of connection points: 2
#     Edge 75, Type (0, 0), BuildingBlock: OJICUG_clean_linker_0, # of connection points: 2
#     Edge 76, Type (0, 0), BuildingBlock: OJICUG_clean_linker_0, # of connection points: 2
#     Edge 77, Type (0, 0), BuildingBlock: OJICUG_clean_linker_0, # of connection points: 2
#     Edge 78, Type (0, 0), BuildingBlock: OJICUG_clean_linker_0, # of connection points: 2
#     Edge 79, Type (0, 0), BuildingBlock: OJICUG_clean_linker_0, # of connection points: 2
#     Edge 80, Type (0, 0), BuildingBlock: OJICUG_clean_linker_0, # of connection points: 2
#     Edge 81, Type (0, 0), BuildingBlock: OJICUG_clean_linker_0, # of connection points: 2
#     Edge 82, Type (0, 0), BuildingBlock: OJICUG_clean_linker_0, # of connection points: 2
#     Edge 83, Type (0, 0), BuildingBlock: OJICUG_clean_linker_0, # of connection points: 2
#     Edge 84, Type (0, 0), BuildingBlock: OJICUG_clean_linker_0, # of connection points: 2
#     Edge 85, Type (0, 0), BuildingBlock: OJICUG_clean_linker_0, # of connection points: 2
#     Edge 86, Type (0, 0), BuildingBlock: OJICUG_clean_linker_0, # of connection points: 2
#     Edge 87, Type (0, 0), BuildingBlock: OJICUG_clean_linker_0, # of connection points: 2
#     Edge 88, Type (0, 0), BuildingBlock: OJICUG_clean_linker_0, # of connection points: 2
#     Edge 89, Type (0, 0), BuildingBlock: OJICUG_clean_linker_0, # of connection points: 2
#     Edge 90, Type (0, 0), BuildingBlock: OJICUG_clean_linker_0, # of connection points: 2
#     Edge 91, Type (0, 0), BuildingBlock: OJICUG_clean_linker_0, # of connection points: 2
#     Edge 92, Type (0, 0), BuildingBlock: OJICUG_clean_linker_0, # of connection points: 2
#     Edge 93, Type (0, 0), BuildingBlock: OJICUG_clean_linker_0, # of connection points: 2
#     Edge 94, Type (0, 0), BuildingBlock: OJICUG_clean_linker_0, # of connection points: 2
#     Edge 95, Type (0, 0), BuildingBlock: OJICUG_clean_linker_0, # of connection points: 2
#     Edge 96, Type (0, 0), BuildingBlock: OJICUG_clean_linker_0, # of connection points: 2
#     Edge 97, Type (0, 0), BuildingBlock: OJICUG_clean_linker_0, # of connection points: 2
#     Edge 98, Type (0, 0), BuildingBlock: OJICUG_clean_linker_0, # of connection points: 2
#     Edge 99, Type (0, 0), BuildingBlock: OJICUG_clean_linker_0, # of connection points: 2
#     Edge 100, Type (0, 0), BuildingBlock: OJICUG_clean_linker_0, # of connection points: 2
#     Edge 101, Type (0, 0), BuildingBlock: OJICUG_clean_linker_0, # of connection points: 2
#     Edge 102, Type (0, 0), BuildingBlock: OJICUG_clean_linker_0, # of connection points: 2
#     Edge 103, Type (0, 0), BuildingBlock: OJICUG_clean_linker_0, # of connection points: 2
#     Edge 104, Type (0, 0), BuildingBlock: OJICUG_clean_linker_0, # of connection points: 2
#     Edge 105, Type (0, 0), BuildingBlock: OJICUG_clean_linker_0, # of connection points: 2
#     Edge 106, Type (0, 0), BuildingBlock: OJICUG_clean_linker_0, # of connection points: 2
#     Edge 107, Type (0, 0), BuildingBlock: OJICUG_clean_linker_0, # of connection points: 2
# Relax obj value: 0.231
# Max RMSD: 0.138
# Mean RMSD: 0.138
data_MOF--net-ukv--node1-CEKHIL_clean_sbu_0--edge1-OJICUG_clean_linker_0
_symmetry_space_group_name_H-M    P1
_symmetry_Int_Tables_number       1
_symmetry_cell_setting            triclinic
loop_
_symmetry_equiv_pos_as_xyz
'x, y, z'
_cell_length_a     68.173371
_cell_length_b     68.138924
_cell_length_c     15.662914
_cell_angle_alpha  90.003263
_cell_angle_beta   90.018249
_cell_angle_gamma 119.99716
loop_
_atom_site_label
_atom_site_type_symbol
_atom_site_fract_x
_atom_site_fract_y
_atom_site_fract_z
_atom_type_partial_charge
Co0 Co 0.2834 0.08222 0.11797 0.0
O1 O 0.27574 0.0584 0.19974 0.0
O2 O 0.25068 0.06388 0.1296 0.0
C3 C 0.30864 0.07671 0.04223 0.0
O4 O 0.28528 0.10462 0.02701 0.0
Co5 Co 0.33358 0.12223 0.10577 0.0
O6 O 0.32229 0.12722 -0.00387 0.0
C7 C 0.30189 0.1238 0.23252 0.0
C8 C 0.25471 0.05165 0.18282 0.0
C9 C 0.30138 0.11988 0.98122 0.0
O10 O 0.28551 0.10414 0.21025 0.0
O11 O 0.32194 0.13278 0.20167 0.0
O12 O 0.28707 0.06419 0.02843 0.0
O13 O 0.31394 0.09 0.10729 0.0
Co14 Co 0.93558 0.20802 0.11712 0.0
O15 O 0.9599 0.22413 0.19703 0.0
O16 O 0.95407 0.19371 0.12509 0.0
C17 C 0.94032 0.23867 0.0425 0.0
O18 O 0.91264 0.18769 0.02724 0.0
Co19 Co 0.89534 0.21798 0.11301 0.0
O20 O 0.88965 0.20203 0.00234 0.0
C21 C 0.89461 0.18403 0.23419 0.0
C22 C 0.9666 0.20992 0.17804 0.0
C23 C 0.89702 0.18864 0.98423 0.0
O24 O 0.91434 0.18787 0.21032 0.0
O25 O 0.88518 0.19493 0.20592 0.0
O26 O 0.95297 0.22983 0.02725 0.0
O27 O 0.9276 0.23075 0.1091 0.0
Co28 Co 0.81163 0.72948 0.1212 0.0
O29 O 0.79342 0.73463 0.20107 0.0
O30 O 0.82407 0.762 0.13957 0.0
C31 C 0.78221 0.70419 0.03974 0.0
O32 O 0.83378 0.72975 0.03228 0.0
Co33 Co 0.80371 0.68007 0.10377 0.0
O34 O 0.82077 0.69315 -0.00308 0.0
C35 C 0.83492 0.71138 0.23637 0.0
C36 C 0.80655 0.75612 0.18857 0.0
C37 C 0.83389 0.71431 0.98496 0.0
O38 O 0.83098 0.72741 0.21537 0.0
O39 O 0.82486 0.6916 0.20281 0.0
O40 O 0.79059 0.72579 0.02874 0.0
O41 O 0.79007 0.69875 0.1047 0.0
Co42 Co 0.08749 0.28239 0.36558 0.0
O43 O 0.06511 0.27627 0.27925 0.0
O44 O 0.06793 0.24984 0.35126 0.0
C45 C 0.08268 0.30838 0.43917 0.0
O46 O 0.10829 0.28276 0.46049 0.0
Co47 Co 0.12895 0.33163 0.38314 0.0
O48 O 0.13183 0.31944 0.49411 0.0
C49 C 0.13007 0.2995 0.25743 0.0
C50 C 0.0571 0.25495 0.29515 0.0
C51 C 0.12347 0.29833 0.50837 0.0
O52 O 0.1099 0.28367 0.27724 0.0
O53 O 0.13958 0.31948 0.28922 0.0
O54 O 0.06918 0.28688 0.45153 0.0
O55 O 0.09662 0.31328 0.37656 0.0
Co56 Co 0.73662 0.81406 0.35337 0.0
O57 O 0.73938 0.79068 0.2979 0.0
O58 O 0.76874 0.82323 0.33707 0.0
C59 C 0.71039 0.79145 0.45039 0.0
O60 O 0.73814 0.84145 0.41418 0.0
Co61 Co 0.6882 0.80843 0.33432 0.0
O62 O 0.70239 0.83561 0.40854 0.0
C63 C 0.71992 0.82569 0.19078 0.0
C64 C 0.76111 0.80344 0.30111 0.0
C65 C 0.72314 0.84725 0.43111 0.0
O66 O 0.73607 0.8277 0.23918 0.0
O67 O 0.69914 0.81561 0.21379 0.0
O68 O 0.73173 0.79885 0.46443 0.0
O69 O 0.70578 0.79546 0.37494 0.0
Co70 Co 0.2082 0.93122 0.37101 0.0
O71 O 0.22389 0.95385 0.28484 0.0
O72 O 0.19468 0.95036 0.35909 0.0
C73 C 0.23935 0.93636 0.44287 0.0
O74 O 0.18827 0.91012 0.46615 0.0
Co75 Co 0.21675 0.89018 0.38573 0.0
O76 O 0.20199 0.88695 0.49765 0.0
C77 C 0.18272 0.88862 0.26284 0.0
C78 C 0.21036 0.96149 0.30243 0.0
C79 C 0.18907 0.89503 0.51321 0.0
O80 O 0.18695 0.90874 0.28298 0.0
O81 O 0.19348 0.87929 0.2935 0.0
O82 O 0.23115 0.94965 0.45633 0.0
O83 O 0.2303 0.9225 0.37995 0.0
Co84 Co 0.73811 0.93085 0.85654 0.0
O85 O 0.74356 0.95897 0.8086 0.0
O86 O 0.77074 0.95219 0.84867 0.0
C87 C 0.7113 0.92694 0.95142 0.0
O88 O 0.73726 0.90327 0.91214 0.0
Co89 Co 0.68919 0.88985 0.82654 0.0
O90 O 0.70086 0.87489 0.90323 0.0
C91 C 0.72275 0.90428 0.68892 0.0
C92 C 0.76497 0.96638 0.81794 0.0
C93 C 0.72133 0.88278 0.92762 0.0
O94 O 0.73838 0.91821 0.73967 0.0
O95 O 0.70172 0.89351 0.70854 0.0
O96 O 0.73263 0.93979 0.96907 0.0
O97 O 0.70711 0.91973 0.87373 0.0
Co98 Co 0.08689 0.80831 0.87004 0.0
O99 O 0.06481 0.79212 0.78283 0.0
O100 O 0.06716 0.8211 0.85531 0.0
C101 C 0.08211 0.77741 0.94271 0.0
O102 O 0.10735 0.82865 0.96585 0.0
Co103 Co 0.12855 0.80092 0.88879 0.0
O104 O 0.13091 0.8156 0.00025 0.0
C105 C 0.1297 0.8343 0.76359 0.0
C106 C 0.05659 0.80525 0.7986 0.0
C107 C 0.12241 0.82823 0.01433 0.0
O108 O 0.10943 0.82974 0.7827 0.0
O109 O 0.13928 0.82392 0.79559 0.0
O110 O 0.06847 0.78524 0.95501 0.0
O111 O 0.09623 0.78673 0.88078 0.0
Co112 Co 0.20845 0.28023 0.86649 0.0
O113 O 0.22404 0.27286 0.78126 0.0
O114 O 0.19446 0.24751 0.85499 0.0
C115 C 0.23964 0.30589 0.93909 0.0
O116 O 0.18857 0.28186 0.96075 0.0
Co117 Co 0.21789 0.33015 0.88009 0.0
O118 O 0.20272 0.31887 0.99153 0.0
C119 C 0.1838 0.29795 0.75668 0.0
C120 C 0.2102 0.25176 0.799 0.0
C121 C 0.18952 0.29792 0.00724 0.0
O122 O 0.18762 0.28183 0.77751 0.0
O123 O 0.19481 0.31806 0.78713 0.0
O124 O 0.23107 0.28436 0.95266 0.0
O125 O 0.23095 0.31093 0.8756 0.0
Co126 Co 0.93497 0.73147 0.6185 0.0
O127 O 0.95947 0.73916 0.69681 0.0
O128 O 0.95354 0.76422 0.62891 0.0
C129 C 0.9395 0.70588 0.54052 0.0
O130 O 0.91187 0.72947 0.53074 0.0
Co131 Co 0.89463 0.68132 0.61198 0.0
O132 O 0.88873 0.6923 0.50338 0.0
C133 C 0.89434 0.71389 0.73764 0.0
C134 C 0.96618 0.76019 0.67996 0.0
C135 C 0.89609 0.71317 0.4873 0.0
O136 O 0.91399 0.72992 0.71365 0.0
O137 O 0.88483 0.6937 0.70786 0.0
O138 O 0.95206 0.72743 0.52626 0.0
O139 O 0.92688 0.70079 0.60751 0.0
Co140 Co 0.28344 0.20412 0.61784 0.0
O141 O 0.27567 0.22016 0.69976 0.0
O142 O 0.25071 0.18971 0.62887 0.0
C143 C 0.30876 0.23496 0.54266 0.0
O144 O 0.28541 0.18369 0.52673 0.0
Co145 Co 0.33361 0.21428 0.60623 0.0
O146 O 0.32244 0.19808 0.49641 0.0
C147 C 0.30179 0.18091 0.7324 0.0
C148 C 0.25467 0.2059 0.68237 0.0
C149 C 0.30154 0.18452 0.48119 0.0
O150 O 0.28544 0.18421 0.70996 0.0
O151 O 0.32186 0.19199 0.70183 0.0
O152 O 0.2872 0.22591 0.5286 0.0
O153 O 0.314 0.22691 0.60767 0.0
Co154 Co 0.81163 0.08751 0.62106 0.0
O155 O 0.79415 0.06563 0.70686 0.0
O156 O 0.82394 0.0675 0.64322 0.0
C157 C 0.78177 0.08288 0.54143 0.0
O158 O 0.83323 0.10795 0.5278 0.0
Co159 Co 0.80461 0.12934 0.59694 0.0
O160 O 0.82084 0.13182 0.48926 0.0
C161 C 0.83615 0.13019 0.72976 0.0
C162 C 0.80734 0.05721 0.69737 0.0
C163 C 0.8335 0.12321 0.47836 0.0
O164 O 0.83193 0.11002 0.71077 0.0
O165 O 0.82612 0.13981 0.69507 0.0
O166 O 0.78963 0.06915 0.53249 0.0
O167 O 0.79038 0.09699 0.60377 0.0
Co168 Co 0.95298 0.41739 0.43787 0.0
O169 O 0.94561 0.39342 0.5185 0.0
O170 O 0.92026 0.39866 0.44958 0.0
C171 C 0.97854 0.41235 0.36203 0.0
O172 O 0.95456 0.4398 0.34757 0.0
Co173 Co 1.00293 0.45785 0.4261 0.0
O174 O 0.99151 0.46252 0.31623 0.0
C175 C 0.97091 0.45887 0.55272 0.0
C176 C 0.92452 0.38639 0.50173 0.0
C177 C 0.97056 0.45507 0.30153 0.0
O178 O 0.95476 0.43904 0.53079 0.0
O179 O 0.99094 0.46815 0.52163 0.0
O180 O 0.957 0.39971 0.34774 0.0
O181 O 0.98364 0.42557 0.4272 0.0
Co182 Co 0.6014 0.53699 0.44897 0.0
O183 O 0.62546 0.5532 0.52985 0.0
O184 O 0.61978 0.52261 0.45957 0.0
C185 C 0.60663 0.56766 0.37325 0.0
O186 O 0.5787 0.51641 0.35875 0.0
Co187 Co 0.56136 0.54721 0.43912 0.0
O188 O 0.55582 0.53066 0.32988 0.0
C189 C 0.56018 0.51395 0.56506 0.0
C190 C 0.63217 0.53891 0.51244 0.0
C191 C 0.56317 0.51711 0.31419 0.0
O192 O 0.57977 0.51722 0.54195 0.0
O193 O 0.55111 0.52501 0.53495 0.0
O194 O 0.61914 0.55862 0.35896 0.0
O195 O 0.59358 0.55976 0.4389 0.0
Co196 Co 0.47736 0.06621 0.44869 0.0
O197 O 0.46101 0.07358 0.53052 0.0
O198 O 0.49144 0.09891 0.4607 0.0
C199 C 0.44675 0.04074 0.37262 0.0
O200 O 0.49801 0.06466 0.35764 0.0
Co201 Co 0.46782 0.01624 0.43619 0.0
O202 O 0.48377 0.0277 0.3261 0.0
C203 C 0.50103 0.04817 0.56263 0.0
C204 C 0.47512 0.09467 0.51384 0.0
C205 C 0.4972 0.04865 0.31134 0.0
O206 O 0.49737 0.06435 0.5409 0.0
O207 O 0.4902 0.02812 0.53152 0.0
O208 O 0.45559 0.06231 0.3591 0.0
O209 O 0.45484 0.03554 0.43765 0.0
Co210 Co 0.75312 0.61248 0.69747 0.0
O211 O 0.73015 0.60564 0.61277 0.0
O212 O 0.734 0.57981 0.68475 0.0
C213 C 0.74814 0.63823 0.77185 0.0
O214 O 0.77468 0.61367 0.79093 0.0
Co215 Co 0.79401 0.66225 0.7112 0.0
O216 O 0.79815 0.65061 0.82143 0.0
C217 C 0.79522 0.62998 0.58638 0.0
C218 C 0.72263 0.58444 0.62941 0.0
C219 C 0.79013 0.6296 0.8369 0.0
O220 O 0.77528 0.61396 0.60764 0.0
O221 O 0.80454 0.65008 0.61704 0.0
O222 O 0.73495 0.6167 0.78468 0.0
O223 O 0.76171 0.64326 0.70788 0.0
Co224 Co 0.40184 0.14168 0.70686 0.0
O225 O 0.4082 0.12571 0.62006 0.0
O226 O 0.43442 0.15477 0.69358 0.0
C227 C 0.37572 0.11067 0.77903 0.0
O228 O 0.40125 0.16184 0.80243 0.0
Co229 Co 0.35258 0.13385 0.72352 0.0
O230 O 0.36453 0.14859 0.8352 0.0
C231 C 0.38499 0.16754 0.59963 0.0
C232 C 0.42947 0.13902 0.63676 0.0
C233 C 0.38559 0.1613 0.85011 0.0
O234 O 0.40074 0.16308 0.61926 0.0
O235 O 0.36496 0.15701 0.63091 0.0
O236 O 0.39719 0.11863 0.79192 0.0
O237 O 0.37095 0.11989 0.71663 0.0
Co238 Co 0.87494 0.26555 0.69857 0.0
O239 O 0.89219 0.28758 0.61268 0.0
O240 O 0.86273 0.28568 0.6797 0.0
C241 C 0.90497 0.2699 0.77635 0.0
O242 O 0.85358 0.24511 0.79221 0.0
Co243 Co 0.88168 0.22352 0.7204 0.0
O244 O 0.86583 0.22104 0.82908 0.0
C245 C 0.84975 0.22294 0.58978 0.0
C246 C 0.87915 0.29608 0.625 0.0
C247 C 0.85333 0.22977 0.84107 0.0
O248 O 0.8542 0.24319 0.60906 0.0
O249 O 0.85978 0.21322 0.62352 0.0
O250 O 0.89725 0.28371 0.78645 0.0
O251 O 0.89614 0.25588 0.71379 0.0
Co252 Co 0.40197 0.26397 0.20696 0.0
O253 O 0.40827 0.2863 0.12022 0.0
O254 O 0.43455 0.28349 0.19327 0.0
C255 C 0.37589 0.26884 0.27953 0.0
O256 O 0.40142 0.24322 0.30242 0.0
Co257 Co 0.35268 0.22254 0.22373 0.0
O258 O 0.36469 0.21977 0.3353 0.0
C259 C 0.38502 0.22124 0.09958 0.0
C260 C 0.42955 0.29428 0.13655 0.0
C261 C 0.38576 0.22811 0.35014 0.0
O262 O 0.4008 0.24145 0.11921 0.0
O263 O 0.365 0.21176 0.13092 0.0
O264 O 0.39736 0.28237 0.29226 0.0
O265 O 0.37109 0.25487 0.21703 0.0
Co266 Co 0.75106 0.14441 0.20033 0.0
O267 O 0.72736 0.12828 0.11798 0.0
O268 O 0.73205 0.15814 0.19097 0.0
C269 C 0.74647 0.11371 0.27409 0.0
O270 O 0.77331 0.16474 0.29225 0.0
Co271 Co 0.79189 0.13536 0.20802 0.0
O272 O 0.79686 0.15113 0.31872 0.0
C273 C 0.79255 0.16918 0.08634 0.0
C274 C 0.72013 0.14209 0.13653 0.0
C275 C 0.789 0.16416 0.33618 0.0
O276 O 0.77265 0.16508 0.10901 0.0
O277 O 0.80208 0.15844 0.11528 0.0
O278 O 0.73342 0.12213 0.28854 0.0
O279 O 0.75957 0.12209 0.20871 0.0
Co280 Co 0.87587 0.61342 0.19797 0.0
O281 O 0.89237 0.607 0.1135 0.0
O282 O 0.86263 0.58084 0.18415 0.0
C283 C 0.9063 0.63923 0.27383 0.0
O284 O 0.85513 0.61402 0.29087 0.0
Co285 Co 0.88404 0.66288 0.21327 0.0
O286 O 0.8683 0.65078 0.32322 0.0
C287 C 0.85106 0.63077 0.08684 0.0
C288 C 0.87876 0.58573 0.12925 0.0
C289 C 0.85543 0.62971 0.3377 0.0
O290 O 0.85522 0.61487 0.10764 0.0
O291 O 0.86155 0.65079 0.11836 0.0
O292 O 0.89814 0.6177 0.28605 0.0
O293 O 0.89776 0.64426 0.20979 0.0
Co294 Co 0.59971 0.067 0.94992 0.0
O295 O 0.62294 0.07443 0.03409 0.0
O296 O 0.6182 0.09974 0.96233 0.0
C297 C 0.60536 0.04167 0.8755 0.0
O298 O 0.57776 0.06525 0.85697 0.0
Co299 Co 0.55958 0.01685 0.9364 0.0
O300 O 0.55487 0.02821 0.82649 0.0
C301 C 0.55774 0.04861 0.0621 0.0
C302 C 0.62993 0.09552 0.01738 0.0
C303 C 0.56243 0.04916 0.81118 0.0
O304 O 0.57743 0.06497 0.0403 0.0
O305 O 0.5488 0.02853 0.03145 0.0
O306 O 0.61809 0.06325 0.86225 0.0
O307 O 0.5918 0.03641 0.93962 0.0
Co308 Co 0.95256 0.53929 0.93834 0.0
O309 O 0.94511 0.55545 0.02092 0.0
O310 O 0.91986 0.52511 0.95028 0.0
C311 C 0.97799 0.57005 0.86308 0.0
O312 O 0.9542 0.51874 0.84681 0.0
Co313 Co 1.00259 0.54904 0.92553 0.0
O314 O 0.99116 0.53283 0.81587 0.0
C315 C 0.9708 0.51584 0.05217 0.0
C316 C 0.92404 0.54128 0.00421 0.0
C317 C 0.97021 0.5194 0.80099 0.0
O318 O 0.9545 0.51926 0.03007 0.0
O319 O 0.99084 0.52681 0.0213 0.0
O320 O 0.95643 0.56119 0.84931 0.0
O321 O 0.98317 0.56187 0.92781 0.0
Co322 Co 0.47882 0.41538 0.94903 0.0
O323 O 0.46199 0.39148 0.02975 0.0
O324 O 0.49269 0.39659 0.96213 0.0
C325 C 0.44853 0.41045 0.87129 0.0
O326 O 0.49992 0.43773 0.85923 0.0
Co327 Co 0.4694 0.4559 0.93582 0.0
O328 O 0.48596 0.46066 0.82705 0.0
C329 C 0.50196 0.4568 0.06452 0.0
C330 C 0.47608 0.38442 0.01408 0.0
C331 C 0.4994 0.45311 0.81307 0.0
O332 O 0.49845 0.43704 0.04243 0.0
O333 O 0.49123 0.46605 0.03288 0.0
O334 O 0.45739 0.39772 0.85808 0.0
O335 O 0.45642 0.42362 0.93667 0.0
Co336 Co 0.61656 0.75362 0.81281 0.0
O337 O 0.61071 0.72519 0.8589 0.0
O338 O 0.58387 0.73283 0.82252 0.0
C339 C 0.64256 0.75692 0.71555 0.0
O340 O 0.61764 0.78155 0.75906 0.0
Co341 Co 0.66592 0.79413 0.83829 0.0
O342 O 0.65424 0.80957 0.76413 0.0
C343 C 0.63371 0.77955 0.98069 0.0
C344 C 0.58935 0.71823 0.85101 0.0
C345 C 0.63363 0.80193 0.74221 0.0
O346 O 0.61744 0.76618 0.93089 0.0
O347 O 0.65455 0.78989 0.95829 0.0
O348 O 0.62109 0.7446 0.69905 0.0
O349 O 0.64732 0.76413 0.79309 0.0
Co350 Co 0.26723 0.87164 0.78087 0.0
O351 O 0.29066 0.88772 0.86408 0.0
O352 O 0.28576 0.85748 0.79306 0.0
C353 C 0.27265 0.90247 0.7059 0.0
O354 O 0.24525 0.85118 0.68875 0.0
Co355 Co 0.2269 0.88125 0.76707 0.0
O356 O 0.22246 0.86531 0.65697 0.0
C357 C 0.22537 0.84797 0.89362 0.0
C358 C 0.29763 0.8736 0.84732 0.0
C359 C 0.23004 0.85192 0.64231 0.0
O360 O 0.24514 0.85149 0.872 0.0
O361 O 0.21627 0.85889 0.86246 0.0
O362 O 0.28538 0.89364 0.69243 0.0
O363 O 0.25916 0.8942 0.77023 0.0
Co364 Co 0.14716 0.40086 0.77601 0.0
O365 O 0.13158 0.40855 0.86024 0.0
O366 O 0.16145 0.4336 0.78699 0.0
C367 C 0.11599 0.37536 0.70289 0.0
O368 O 0.16706 0.39891 0.68257 0.0
Co369 Co 0.13722 0.35075 0.76345 0.0
O370 O 0.1526 0.36183 0.65222 0.0
C371 C 0.17133 0.38285 0.88704 0.0
C372 C 0.14562 0.42957 0.84229 0.0
C373 C 0.16598 0.38274 0.63641 0.0
O374 O 0.16771 0.39908 0.86583 0.0
O375 O 0.16021 0.36274 0.85671 0.0
O376 O 0.1248 0.39691 0.68904 0.0
O377 O 0.12445 0.37023 0.7669 0.0
Co378 Co 0.41789 0.94728 0.0369 0.0
O379 O 0.39495 0.94012 0.95173 0.0
O380 O 0.39877 0.91461 0.02619 0.0
C381 C 0.41303 0.97346 0.109 0.0
O382 O 0.43928 0.94867 0.13116 0.0
Co383 Co 0.45898 0.99689 0.04885 0.0
O384 O 0.46262 0.98565 0.1608 0.0
C385 C 0.46013 0.964 0.92705 0.0
C386 C 0.38746 0.919 0.96987 0.0
C387 C 0.45455 0.96469 0.17722 0.0
O388 O 0.44004 0.94824 0.948 0.0
O389 O 0.46963 0.98418 0.95697 0.0
O390 O 0.39976 0.952 0.12294 0.0
O391 O 0.42664 0.97816 0.04531 0.0
Co392 Co 0.07203 0.47643 0.02824 0.0
O393 O 0.07945 0.46069 0.94367 0.0
O394 O 0.10472 0.49036 0.01733 0.0
C395 C 0.0462 0.44531 0.10081 0.0
O396 O 0.07047 0.49649 0.12192 0.0
Co397 Co 0.02218 0.46717 0.0417 0.0
O398 O 0.03354 0.48251 0.15291 0.0
C399 C 0.0544 0.50099 0.91763 0.0
C400 C 0.10052 0.47455 0.96169 0.0
C401 C 0.0545 0.49568 0.16839 0.0
O402 O 0.07052 0.4972 0.93874 0.0
O403 O 0.03431 0.49003 0.94809 0.0
O404 O 0.0677 0.45383 0.11496 0.0
O405 O 0.0413 0.45403 0.03706 0.0
Co406 Co 0.54229 0.59582 0.03178 0.0
O407 O 0.55931 0.618 0.94617 0.0
O408 O 0.52979 0.61579 0.01344 0.0
C409 C 0.57257 0.60036 0.10844 0.0
O410 O 0.52118 0.57515 0.12554 0.0
Co411 Co 0.5496 0.55406 0.05219 0.0
O412 O 0.53389 0.55137 0.1614 0.0
C413 C 0.5173 0.55329 0.92281 0.0
C414 C 0.54617 0.62637 0.95868 0.0
C415 C 0.5212 0.55987 0.17403 0.0
O416 O 0.5216 0.57346 0.94237 0.0
O417 O 0.52751 0.54367 0.95597 0.0
O418 O 0.56469 0.61402 0.1194 0.0
O419 O 0.5637 0.58639 0.04581 0.0
Co420 Co 0.07121 0.59802 0.52805 0.0
O421 O 0.07824 0.62092 0.44286 0.0
O422 O 0.10384 0.617 0.51627 0.0
C423 C 0.04532 0.60319 0.60072 0.0
O424 O 0.07005 0.57668 0.62212 0.0
Co425 Co 0.02159 0.55709 0.54304 0.0
O426 O 0.03324 0.55349 0.65419 0.0
C427 C 0.05376 0.55568 0.41821 0.0
C428 C 0.09938 0.62837 0.4604 0.0
C429 C 0.05425 0.5615 0.66911 0.0
O430 O 0.06977 0.57568 0.43895 0.0
O431 O 0.03371 0.5464 0.4492 0.0
O432 O 0.06682 0.61632 0.61437 0.0
O433 O 0.04042 0.58941 0.53748 0.0
Co434 Co 0.41909 0.47437 0.53381 0.0
O435 O 0.39537 0.45815 0.45177 0.0
O436 O 0.40018 0.48817 0.52407 0.0
C437 C 0.41443 0.44363 0.60763 0.0
O438 O 0.44126 0.4948 0.62545 0.0
Co439 Co 0.45993 0.46539 0.543 0.0
O440 O 0.46449 0.48098 0.65397 0.0
C441 C 0.46067 0.49908 0.42029 0.0
C442 C 0.3882 0.47204 0.47003 0.0
C443 C 0.45671 0.49411 0.67045 0.0
O444 O 0.44072 0.49494 0.44233 0.0
O445 O 0.4702 0.48841 0.44999 0.0
O446 O 0.40146 0.45213 0.6223 0.0
O447 O 0.42761 0.45207 0.54251 0.0
Co448 Co 0.54112 0.94929 0.53494 0.0
O449 O 0.55796 0.9444 0.44787 0.0
O450 O 0.52888 0.91686 0.51626 0.0
C451 C 0.57157 0.9752 0.61023 0.0
O452 O 0.52027 0.94863 0.63032 0.0
Co453 Co 0.54797 0.99814 0.55661 0.0
O454 O 0.53292 0.98508 0.66678 0.0
C455 C 0.51527 0.96636 0.42872 0.0
C456 C 0.54509 0.92286 0.46055 0.0
C457 C 0.52041 0.96387 0.67955 0.0
O458 O 0.51993 0.95068 0.44718 0.0
O459 O 0.52539 0.98618 0.46197 0.0
O460 O 0.56393 0.9537 0.62092 0.0
O461 O 0.56236 0.9802 0.54851 0.0
Co462 Co 0.26796 0.39859 0.27707 0.0
O463 O 0.29047 0.40493 0.3631 0.0
O464 O 0.28725 0.43117 0.29136 0.0
C465 C 0.273 0.3728 0.20307 0.0
O466 O 0.24697 0.398 0.18255 0.0
Co467 Co 0.22678 0.34918 0.25986 0.0
O468 O 0.2236 0.36128 0.14912 0.0
C469 C 0.22547 0.38112 0.38599 0.0
C470 C 0.29822 0.42622 0.34736 0.0
C471 C 0.2318 0.38236 0.13487 0.0
O472 O 0.24554 0.39707 0.36581 0.0
O473 O 0.21608 0.36114 0.35425 0.0
O474 O 0.28634 0.39433 0.19072 0.0
O475 O 0.2591 0.36777 0.26593 0.0
Co476 Co 0.61671 0.86757 0.31189 0.0
O477 O 0.61066 0.89003 0.35798 0.0
O478 O 0.58401 0.85542 0.32189 0.0
C479 C 0.64266 0.89041 0.21435 0.0
O480 O 0.61783 0.84077 0.25837 0.0
Co481 Co 0.66611 0.87656 0.33673 0.0
O482 O 0.65438 0.84926 0.26342 0.0
C483 C 0.63402 0.8587 0.4795 0.0
C484 C 0.58933 0.87545 0.35039 0.0
C485 C 0.63375 0.8363 0.24178 0.0
O486 O 0.61772 0.85593 0.43007 0.0
O487 O 0.65484 0.86916 0.45681 0.0
O488 O 0.62118 0.88111 0.19794 0.0
O489 O 0.64745 0.88794 0.29184 0.0
Co490 Co 0.14617 0.74917 0.28019 0.0
O491 O 0.13043 0.72538 0.36237 0.0
O492 O 0.16084 0.73108 0.29078 0.0
C493 C 0.11515 0.74335 0.20565 0.0
O494 O 0.16631 0.77159 0.18865 0.0
Co495 Co 0.13555 0.78889 0.26877 0.0
O496 O 0.15155 0.79394 0.15851 0.0
C497 C 0.16928 0.79085 0.39415 0.0
C498 C 0.14478 0.71878 0.34455 0.0
C499 C 0.16522 0.78675 0.14303 0.0
O500 O 0.1661 0.77123 0.37188 0.0
O501 O 0.15803 0.79969 0.36376 0.0
O502 O 0.12433 0.73095 0.19143 0.0
O503 O 0.1232 0.75669 0.27056 0.0
C504 C 0.21926 1.00139 0.32371 0.0
C505 C 0.2152 0.9836 0.26782 0.0
H506 H 0.23547 0.03753 0.34023 0.0
C507 C 0.22073 0.98843 0.18116 0.0
H508 H 0.21561 0.99811 0.39121 0.0
C509 C 0.23137 0.0108 0.15173 0.0
C510 C 0.23721 0.02874 0.2089 0.0
H511 H 0.21812 0.97504 0.13725 0.0
H512 H 0.23683 0.01421 0.08573 0.0
C513 C 0.2306 0.02389 0.29471 0.0
C514 C 0.99491 0.21181 0.28434 0.0
C515 C 0.98973 0.21545 0.20115 0.0
H516 H 0.02098 0.22094 0.37871 0.0
C517 C 1.00743 0.22924 0.14543 0.0
H518 H 0.98144 0.20167 0.3289 0.0
C519 C 0.02983 0.24068 0.17431 0.0
C520 C 0.03498 0.23814 0.25892 0.0
H521 H 1.00375 0.23268 0.08163 0.0
H522 H 0.04297 0.25263 0.13207 0.0
C523 C 0.01748 0.2228 0.31265 0.0
C524 C 0.79795 0.80238 0.28927 0.0
C525 C 0.77537 0.79471 0.26438 0.0
H526 H 0.82611 0.79615 0.28424 0.0
C527 C 0.76489 0.7763 0.20774 0.0
H528 H 0.80645 0.81651 0.33289 0.0
C529 C 0.77584 0.76483 0.18118 0.0
C530 C 0.79777 0.77146 0.20932 0.0
H531 H 0.74769 0.77008 0.1859 0.0
H532 H 0.76676 0.75015 0.14017 0.0
C533 C 0.80916 0.79077 0.26159 0.0
C534 C 0.79745 0.99784 0.73692 0.0
C535 C 0.78099 0.99059 0.80159 0.0
H536 H 0.81919 0.02517 0.65264 0.0
C537 C 0.77636 1.00644 0.83989 0.0
H538 H 0.80101 0.98579 0.70554 0.0
C539 C 0.78662 0.02866 0.81024 0.0
C540 C 0.80162 0.03562 0.7407 0.0
H541 H 0.76366 1.00122 0.88958 0.0
H542 H 0.78165 0.04004 0.83853 0.0
C543 C 0.80777 0.02032 0.70661 0.0
C544 C 0.02938 0.79118 0.67776 0.0
C545 C 0.0346 0.79992 0.76102 0.0
H546 H 1.00327 0.77235 0.58612 0.0
C547 C 0.01725 0.79894 0.81265 0.0
H548 H 0.0424 0.79151 0.63708 0.0
C549 C 0.99469 0.78749 0.78394 0.0
C550 C 0.98944 0.77758 0.70247 0.0
H551 H 0.02079 0.80516 0.8777 0.0
H552 H 0.98128 0.78513 0.82718 0.0
C553 C 1.00703 0.78027 0.64855 0.0
C554 C 0.23142 0.21045 0.79535 0.0
C555 C 0.23709 0.21116 0.70884 0.0
H556 H 0.21711 0.22207 0.89144 0.0
C557 C 0.23021 0.22215 0.65043 0.0
H558 H 0.23708 0.20254 0.8417 0.0
C559 C 0.21952 0.23391 0.67907 0.0
C560 C 0.21492 0.23426 0.76619 0.0
H561 H 0.23494 0.2234 0.58375 0.0
H562 H 0.21616 0.24393 0.63393 0.0
C563 C 0.21999 0.22158 0.82364 0.0
C564 C 0.89545 0.3232 0.50455 0.0
C565 C 0.88497 0.31799 0.58497 0.0
H566 H 0.91566 0.34919 0.41456 0.0
C567 C 0.88435 0.33525 0.63215 0.0
H568 H 0.89632 0.31027 0.46717 0.0
C569 C 0.8958 0.35773 0.60235 0.0
C570 C 0.90744 0.36299 0.52423 0.0
H571 H 0.87671 0.33173 0.695 0.0
H572 H 0.89677 0.37112 0.64256 0.0
C573 C 0.90647 0.34544 0.47435 0.0
C574 C 0.67296 0.55643 0.48013 0.0
C575 C 0.65514 0.5443 0.53769 0.0
H576 H 0.70868 0.57884 0.46472 0.0
C577 C 0.66018 0.54243 0.62317 0.0
H578 H 0.66941 0.55856 0.41439 0.0
C579 C 0.68275 0.55349 0.65149 0.0
C580 C 0.70042 0.56722 0.59525 0.0
H581 H 0.64665 0.53363 0.66902 0.0
H582 H 0.68617 0.55303 0.71879 0.0
C583 C 0.69539 0.56805 0.50889 0.0
C584 C 0.46122 0.13099 0.6542 0.0
C585 C 0.44642 0.13397 0.60027 0.0
H586 H 0.48206 0.1157 0.66879 0.0
C587 C 0.44454 0.12736 0.51443 0.0
H588 H 0.46255 0.1355 0.72113 0.0
C589 C 0.45616 0.1167 0.48417 0.0
C590 C 0.46942 0.11199 0.5397 0.0
H591 H 0.43299 0.12918 0.47202 0.0
H592 H 0.45325 0.11044 0.41911 0.0
C593 C 0.47235 0.11967 0.62443 0.0
C594 C 0.46232 0.33373 0.15175 0.0
C595 C 0.44649 0.3162 0.09924 0.0
H596 H 0.48432 0.36976 0.16567 0.0
C597 C 0.44379 0.32116 0.01456 0.0
H598 H 0.46435 0.33039 0.21783 0.0
C599 C 0.45558 0.34342 0.9844 0.0
C600 C 0.46995 0.36121 0.0388 0.0
H601 H 0.43149 0.30799 0.9732 0.0
H602 H 0.45205 0.34698 0.92054 0.0
C603 C 0.47372 0.35621 0.12208 0.0
C604 C 0.69241 0.13705 0.02238 0.0
C605 C 0.69725 0.13656 0.10922 0.0
H606 H 0.66666 0.12513 0.92548 0.0
C607 C 0.67928 0.12558 0.1672 0.0
H608 H 0.70605 0.14493 0.97634 0.0
C609 C 0.65688 0.11365 0.13792 0.0
C610 C 0.65207 0.11313 0.05055 0.0
H611 H 0.68266 0.12449 0.23413 0.0
H612 H 0.64345 0.10367 0.18284 0.0
C613 C 0.66992 0.12576 -0.00658 0.0
C614 C 0.88783 0.56822 0.00725 0.0
C615 C 0.88398 0.5687 0.09504 0.0
H616 H 0.90275 0.5579 0.90921 0.0
C617 C 0.89012 0.55661 0.15126 0.0
H618 H 0.88365 0.57781 0.96301 0.0
C619 C 0.90171 0.54585 0.12084 0.0
C620 C 0.90653 0.54635 0.03349 0.0
H621 H 0.88783 0.55723 0.21947 0.0
H622 H 0.90811 0.53837 0.16603 0.0
C623 C 0.89869 0.55681 0.97656 0.0
C624 C 0.57693 0.67824 0.82156 0.0
C625 C 0.57303 0.69398 0.8648 0.0
H626 H 0.57087 0.64437 0.81588 0.0
C627 C 0.55701 0.6864 0.93111 0.0
H628 H 0.5893 0.68371 0.77052 0.0
C629 C 0.54642 0.66362 0.95797 0.0
C630 C 0.55188 0.64835 0.91881 0.0
H631 H 0.55403 0.69836 0.96624 0.0
H632 H 0.5354 0.65846 0.01321 0.0
C633 C 0.56642 0.65571 0.84786 0.0
C634 C 0.34714 0.88983 -0.00616 0.0
C635 C 0.36523 0.90163 0.93684 0.0
H636 H 0.31096 0.87161 0.00962 0.0
C637 C 0.36073 0.90055 0.849 0.0
H638 H 0.35019 0.89092 0.06204 0.0
C639 C 0.33841 0.88887 0.81895 0.0
C640 C 0.32024 0.87876 0.87653 0.0
H641 H 0.37439 0.90991 0.80414 0.0
H642 H 0.33529 0.88953 0.75144 0.0
C643 C 0.32474 0.87883 0.96401 0.0
C644 C 0.13204 0.45656 0.81374 0.0
C645 C 0.14071 0.44717 0.87208 0.0
H646 H 0.11207 0.47265 0.79704 0.0
C647 C 0.13934 0.45047 0.95984 0.0
H648 H 0.13239 0.45369 0.74584 0.0
C649 C 0.12843 0.46201 0.98894 0.0
C650 C 0.11801 0.46963 0.93075 0.0
H651 H 0.14542 0.44289 0.00591 0.0
H652 H 0.12629 0.46307 0.05703 0.0
C653 C 0.1204 0.46735 0.84291 0.0
C654 C 0.12951 0.66837 0.48496 0.0
C655 C 0.11672 0.65065 0.42751 0.0
H656 H 0.14854 0.70449 0.5033 0.0
C657 C 0.11688 0.65564 0.34052 0.0
H658 H 0.12917 0.66495 0.55266 0.0
C659 C 0.12856 0.67811 0.31207 0.0
C660 C 0.13967 0.69595 0.37055 0.0
H661 H 0.1068 0.64228 0.29541 0.0
H662 H 0.12718 0.68163 0.24555 0.0
C663 C 0.14056 0.69094 0.45688 0.0
C664 C 0.36038 0.46922 0.3597 0.0
C665 C 0.36517 0.46629 0.44438 0.0
H666 H 0.33474 0.45939 0.26308 0.0
C667 C 0.34722 0.45299 0.49993 0.0
H668 H 0.37405 0.47896 0.31534 0.0
C669 C 0.32495 0.44133 0.4697 0.0
C670 C 0.32019 0.44323 0.3839 0.0
H671 H 0.35061 0.45008 0.56494 0.0
H672 H 0.3116 0.42974 0.51208 0.0
C673 C 0.33794 0.45806 0.32999 0.0
C674 C 0.54598 0.88619 0.45898 0.0
C675 C 0.55102 0.90684 0.42002 0.0
H676 H 0.55419 0.85948 0.46649 0.0
C677 C 0.56544 0.91423 0.34872 0.0
H678 H 0.53506 0.88017 0.51448 0.0
C679 C 0.57627 0.90257 0.32195 0.0
C680 C 0.57279 0.88305 0.36498 0.0
H681 H 0.56957 0.92995 0.31685 0.0
H682 H 0.58854 0.90965 0.27064 0.0
C683 C 0.55687 0.87434 0.43157 0.0
C684 C 0.2833 0.15641 0.86218 0.0
C685 C 0.29754 0.16213 0.79052 0.0
H686 H 0.27315 0.13787 0.98064 0.0
C687 C 0.30946 0.15054 0.77597 0.0
H688 H 0.27381 0.16497 0.87431 0.0
C689 C 0.30881 0.13506 0.83511 0.0
C690 C 0.29631 0.1308 0.91044 0.0
H691 H 0.32009 0.15412 0.72006 0.0
H692 H 0.31908 0.12726 0.82417 0.0
C693 C 0.28278 0.14081 0.92234 0.0
C694 C 0.86645 0.16789 0.77784 0.0
C695 C 0.85458 0.14427 0.78993 0.0
H696 H 0.8901 0.20031 0.82905 0.0
C697 C 0.85997 0.1351 0.8605 0.0
H698 H 0.86319 0.17548 0.72281 0.0
C699 C 0.87556 0.14957 0.92185 0.0
C700 C 0.88594 0.1732 0.91221 0.0
H701 H 0.85122 0.11695 0.87073 0.0
H702 H 0.87829 0.14237 0.97922 0.0
C703 C 0.88197 0.18214 0.83814 0.0
C704 C 0.85691 0.70831 0.77796 0.0
C705 C 0.88023 0.71882 0.79537 0.0
H706 H 0.82406 0.69952 0.82411 0.0
C707 C 0.88875 0.73194 0.86976 0.0
H708 H 0.84992 0.69851 0.72012 0.0
C709 C 0.87372 0.7326 0.92972 0.0
C710 C 0.85021 0.72033 0.9148 0.0
H711 H 0.90668 0.74029 0.88419 0.0
H712 H 0.88026 0.74112 0.99018 0.0
C713 C 0.8421 0.70907 0.83692 0.0
C714 C 0.15912 0.27941 0.62744 0.0
C715 C 0.16473 0.29344 0.69968 0.0
H716 H 0.14087 0.26967 0.50838 0.0
C717 C 0.15298 0.30516 0.71512 0.0
H718 H 0.16784 0.2701 0.61455 0.0
C719 C 0.13756 0.30466 0.65596 0.0
C720 C 0.13351 0.29246 0.57989 0.0
H721 H 0.15652 0.31567 0.7714 0.0
H722 H 0.12986 0.31502 0.66709 0.0
C723 C 0.14358 0.27899 0.56737 0.0
C724 C 0.74455 0.87443 0.55055 0.0
C725 C 0.7289 0.86759 0.48312 0.0
H726 H 0.75523 0.8924 0.66965 0.0
C727 C 0.71539 0.87776 0.47465 0.0
H728 H 0.75514 0.86688 0.5587 0.0
C729 C 0.71528 0.89205 0.53795 0.0
C730 C 0.72902 0.89688 0.61024 0.0
H731 H 0.70344 0.87318 0.42243 0.0
H732 H 0.7031 0.89782 0.53376 0.0
C733 C 0.74465 0.8891 0.6138 0.0
C734 C 0.14984 0.87427 0.57358 0.0
C735 C 0.17342 0.88477 0.58526 0.0
H736 H 0.11701 0.84961 0.62188 0.0
C737 C 0.18197 0.88104 0.66094 0.0
H738 H 0.14295 0.87675 0.51488 0.0
C739 C 0.1674 0.86552 0.72059 0.0
C740 C 0.1439 0.85336 0.70602 0.0
H741 H 0.20008 0.88913 0.67142 0.0
H742 H 0.17469 0.86227 0.77659 0.0
C743 C 0.13507 0.85863 0.63413 0.0
C744 C 0.7104 0.84403 0.97793 0.0
C745 C 0.72574 0.8675 0.98121 0.0
H746 H 0.69689 0.81216 0.04198 0.0
C747 C 0.74264 0.87598 0.04443 0.0
H748 H 0.69746 0.83685 0.92894 0.0
C749 C 0.74247 0.86157 0.10878 0.0
C750 C 0.72535 0.83864 0.11056 0.0
H751 H 0.7547 0.89396 0.04842 0.0
H752 H 0.75431 0.86882 0.16133 0.0
C753 C 0.71012 0.8298 0.04225 0.0
C754 C 0.14261 0.86765 0.07333 0.0
C755 C 0.13228 0.84411 0.08606 0.0
H756 H 0.16712 0.90073 0.12036 0.0
C757 C 0.13607 0.83589 0.16248 0.0
H758 H 0.14011 0.8743 0.01404 0.0
C759 C 0.1515 0.85074 0.22178 0.0
C760 C 0.16353 0.8742 0.20607 0.0
H761 H 0.1282 0.81781 0.17368 0.0
H762 H 0.15486 0.84371 0.27829 0.0
C763 C 0.15817 0.88271 0.1335 0.0
C764 C 0.15026 0.2796 0.06759 0.0
C765 C 0.17384 0.29278 0.07905 0.0
H766 H 0.11741 0.27134 0.11605 0.0
C767 C 0.18238 0.30522 0.1544 0.0
H768 H 0.14336 0.27008 0.0092 0.0
C769 C 0.16781 0.30621 0.21393 0.0
C770 C 0.1443 0.29473 0.19964 0.0
H771 H 0.20049 0.31529 0.1648 0.0
H772 H 0.17511 0.31685 0.26972 0.0
C773 C 0.13548 0.28049 0.12806 0.0
C774 C 0.85843 0.72972 0.36844 0.0
C775 C 0.85349 0.71588 0.29592 0.0
H776 H 0.87649 0.73995 0.48793 0.0
C777 C 0.86588 0.70478 0.28118 0.0
H778 H 0.84925 0.73861 0.38069 0.0
C779 C 0.88144 0.70584 0.34078 0.0
C780 C 0.88498 0.71796 0.41666 0.0
H781 H 0.86294 0.6945 0.22462 0.0
H782 H 0.88988 0.69618 0.32968 0.0
C783 C 0.8741 0.73067 0.42907 0.0
C784 C 0.30972 0.16189 0.27623 0.0
C785 C 0.29771 0.13838 0.29069 0.0
H786 H 0.31942 0.19482 0.3244 0.0
C787 C 0.28342 0.12989 0.36218 0.0
H788 H 0.3204 0.16894 0.22042 0.0
C789 C 0.2829 0.14498 0.42227 0.0
C790 C 0.29651 0.16852 0.41045 0.0
H791 H 0.27384 0.11183 0.37424 0.0
H792 H 0.27321 0.13831 0.48044 0.0
C793 C 0.30909 0.17675 0.33529 0.0
C794 C 0.8734 0.14425 0.42452 0.0
C795 C 0.84995 0.133 0.40836 0.0
H796 H 0.9065 0.1697 0.38088 0.0
C797 C 0.84213 0.13611 0.32972 0.0
H798 H 0.87971 0.14234 0.48562 0.0
C799 C 0.85717 0.15172 0.27134 0.0
C800 C 0.88039 0.16463 0.29024 0.0
H801 H 0.82414 0.12768 0.31609 0.0
H802 H 0.8504 0.1546 0.21304 0.0
C803 C 0.88865 0.16001 0.36525 0.0
C804 C 0.97775 0.46998 0.15508 0.0
C805 C 0.96537 0.46587 0.23066 0.0
H806 H 0.98889 0.48887 0.03963 0.0
C807 C 0.95191 0.47595 0.24267 0.0
H808 H 0.98799 0.46215 0.1441 0.0
C809 C 0.9524 0.49148 0.18233 0.0
C810 C 0.96651 0.49707 0.11039 0.0
H811 H 0.94239 0.47312 0.30119 0.0
H812 H 0.94298 0.50012 0.19457 0.0
C813 C 0.97834 0.48539 0.09573 0.0
C814 C 0.54192 0.47756 0.25519 0.0
C815 C 0.55209 0.50114 0.24344 0.0
H816 H 0.51764 0.44452 0.20686 0.0
C817 C 0.54789 0.50948 0.16824 0.0
H818 H 0.54481 0.47081 0.31342 0.0
C819 C 0.53238 0.49474 0.10896 0.0
C820 C 0.52067 0.47121 0.12324 0.0
H821 H 0.55579 0.52757 0.15746 0.0
H822 H 0.52891 0.5019 0.05307 0.0
C823 C 0.52628 0.46259 0.1949 0.0
C824 C 0.51969 0.04086 0.10552 0.0
C825 C 0.54318 0.05284 0.12006 0.0
H826 H 0.48679 0.03108 0.15402 0.0
C827 C 0.55169 0.06706 0.19178 0.0
H828 H 0.51264 0.03023 0.04956 0.0
C829 C 0.53665 0.0675 0.2521 0.0
C830 C 0.51312 0.05388 0.2403 0.0
H831 H 0.56975 0.07659 0.20388 0.0
H832 H 0.54333 0.0771 0.31049 0.0
C833 C 0.50486 0.04142 0.16485 0.0
C834 C 0.8111 0.61117 0.89641 0.0
C835 C 0.8006 0.62425 0.90845 0.0
H836 H 0.83575 0.6029 0.94442 0.0
C837 C 0.80442 0.63652 0.9842 0.0
H838 H 0.80855 0.6018 0.83766 0.0
C839 C 0.81997 0.63742 0.04365 0.0
C840 C 0.83208 0.62603 0.02889 0.0
H841 H 0.79637 0.64657 -0.00505 0.0
H842 H 0.82324 0.64793 0.09978 0.0
C843 C 0.82677 0.61197 0.95682 0.0
C844 C 0.40447 0.20065 0.90979 0.0
C845 C 0.39132 0.17708 0.92201 0.0
H846 H 0.41285 0.23363 0.95744 0.0
C847 C 0.37921 0.16871 -0.00192 0.0
H848 H 0.41371 0.20741 0.85078 0.0
C849 C 0.37846 0.18344 0.05757 0.0
C850 C 0.38983 0.20692 0.04242 0.0
H851 H 0.36908 0.15062 0.00892 0.0
H852 H 0.36801 0.17628 0.11384 0.0
C853 C 0.4038 0.21559 0.97016 0.0
C854 C 0.84499 0.21691 0.98976 0.0
C855 C 0.83704 0.22005 0.9115 0.0
H856 H 0.83687 0.19847 0.10648 0.0
C857 C 0.81357 0.20895 0.89606 0.0
H858 H 0.86301 0.22527 0.00282 0.0
C859 C 0.79839 0.19326 0.95562 0.0
C860 C 0.80675 0.18857 0.03022 0.0
H861 H 0.80716 0.2109 0.83524 0.0
H862 H 0.7805 0.18366 0.9405 0.0
C863 C 0.83002 0.20138 0.04848 0.0
C864 C 0.40456 0.20759 0.40991 0.0
C865 C 0.39147 0.21807 0.4221 0.0
H866 H 0.41283 0.18293 0.45759 0.0
C867 C 0.37936 0.21436 0.49816 0.0
H868 H 0.4138 0.21004 0.3509 0.0
C869 C 0.37855 0.19886 0.55764 0.0
C870 C 0.38986 0.18669 0.5425 0.0
H871 H 0.36927 0.22237 0.50896 0.0
H872 H 0.36809 0.19558 0.61388 0.0
C873 C 0.40383 0.19197 0.47028 0.0
C874 C 0.81906 0.18527 0.54327 0.0
C875 C 0.83106 0.20886 0.53038 0.0
H876 H 0.79552 0.15275 0.49251 0.0
C877 C 0.82577 0.21792 0.4592 0.0
H878 H 0.82227 0.17777 0.59869 0.0
C879 C 0.81018 0.20333 0.398 0.0
C880 C 0.79972 0.1797 0.40833 0.0
H881 H 0.83464 0.23604 0.44824 0.0
H882 H 0.80758 0.21042 0.34008 0.0
C883 C 0.80358 0.1709 0.48304 0.0
C884 C 0.80096 0.6115 0.45622 0.0
C885 C 0.80955 0.62529 0.52898 0.0
H886 H 0.80928 0.60181 0.33665 0.0
C887 C 0.83299 0.6366 0.5447 0.0
H888 H 0.78295 0.60251 0.44314 0.0
C889 C 0.84777 0.63593 0.48538 0.0
C890 C 0.8395 0.62398 0.40891 0.0
H891 H 0.84007 0.64691 0.60138 0.0
H892 H 0.86584 0.64596 0.49677 0.0
C893 C 0.81596 0.61093 0.39597 0.0
C894 C 0.54722 0.0416 0.66505 0.0
C895 C 0.55156 0.05423 0.74012 0.0
H896 H 0.528 0.03004 0.55043 0.0
C897 C 0.54146 0.06769 0.75191 0.0
H898 H 0.55501 0.03131 0.6543 0.0
C899 C 0.52572 0.06697 0.69196 0.0
C900 C 0.51993 0.05261 0.62059 0.0
H901 H 0.54443 0.07739 0.81007 0.0
H902 H 0.5171 0.07641 0.70409 0.0
C903 C 0.53161 0.04077 0.60609 0.0
C904 C 0.95243 0.46475 0.6829 0.0
C905 C 0.96644 0.47329 0.61069 0.0
H906 H 0.9424 0.47313 0.80166 0.0
C907 C 0.978 0.49677 0.59544 0.0
H908 H 0.94322 0.44671 0.69561 0.0
C909 C 0.97726 0.51159 0.65446 0.0
C910 C 0.96501 0.50335 0.73029 0.0
H911 H 0.98845 0.50385 0.53913 0.0
H912 H 0.98734 0.52967 0.64309 0.0
C913 C 0.9518 0.4798 0.7429 0.0
C914 C 0.55417 0.48967 0.69556 0.0
C915 C 0.54571 0.4951 0.62294 0.0
H916 H 0.54564 0.47141 0.81467 0.0
C917 C 0.52226 0.48324 0.60734 0.0
H918 H 0.57219 0.49847 0.70851 0.0
C919 C 0.50738 0.4678 0.66641 0.0
C920 C 0.51553 0.46385 0.74263 0.0
H921 H 0.51527 0.48661 0.55072 0.0
H922 H 0.48932 0.45986 0.65478 0.0
C923 C 0.53905 0.47411 0.75562 0.0
C924 C 0.64456 0.85489 0.62757 0.0
C925 C 0.62885 0.84602 0.5606 0.0
H926 H 0.65788 0.84788 0.73923 0.0
C927 C 0.61156 0.82317 0.564 0.0
H928 H 0.65796 0.87245 0.62673 0.0
C929 C 0.61168 0.80882 0.62813 0.0
C930 C 0.62903 0.81727 0.68959 0.0
H931 H 0.59935 0.81586 0.51263 0.0
H932 H 0.59945 0.79088 0.6251 0.0
C933 C 0.64457 0.84071 0.69161 0.0
C934 C 0.20951 0.81236 0.5836 0.0
C935 C 0.21931 0.83588 0.57149 0.0
H936 H 0.18555 0.77913 0.53597 0.0
C937 C 0.21492 0.84399 0.49606 0.0
H938 H 0.21256 0.80578 0.642 0.0
C939 C 0.19949 0.82903 0.43706 0.0
C940 C 0.1881 0.80553 0.45189 0.0
H941 H 0.22254 0.86204 0.48498 0.0
H942 H 0.19579 0.83598 0.3811 0.0
C943 C 0.19397 0.79717 0.52361 0.0
C944 C 0.20525 0.40099 0.57587 0.0
C945 C 0.18166 0.3877 0.56471 0.0
H946 H 0.2381 0.40939 0.52706 0.0
C947 C 0.17311 0.37512 0.48965 0.0
H948 H 0.21216 0.41064 0.63399 0.0
C949 C 0.18767 0.37412 0.43013 0.0
C950 C 0.2112 0.38576 0.44406 0.0
H951 H 0.155 0.36501 0.47939 0.0
H952 H 0.18037 0.36341 0.37453 0.0
C953 C 0.22003 0.4001 0.51536 0.0
C954 C 0.48415 0.97291 0.38463 0.0
C955 C 0.49635 0.96158 0.3705 0.0
H956 H 0.46046 0.98181 0.33499 0.0
C957 C 0.49114 0.94742 0.29879 0.0
H958 H 0.48733 0.98347 0.44051 0.0
C959 C 0.4755 0.94646 0.23804 0.0
C960 C 0.46493 0.95949 0.24936 0.0
H961 H 0.50018 0.93838 0.28693 0.0
H962 H 0.47304 0.93702 0.17953 0.0
C963 C 0.46862 0.97184 0.32479 0.0
C964 C 0.07249 0.54997 0.28873 0.0
C965 C 0.05833 0.5413 0.36051 0.0
H966 H 0.08262 0.54184 0.16976 0.0
C967 C 0.04667 0.51779 0.37501 0.0
H968 H 0.08177 0.56804 0.27658 0.0
C969 C 0.04742 0.50307 0.31549 0.0
C970 C 0.05978 0.51147 0.23996 0.0
H971 H 0.03609 0.51062 0.43096 0.0
H972 H 0.03724 0.48498 0.32611 0.0
C973 C 0.07313 0.53505 0.22827 0.0
C974 C 0.49823 0.53101 0.38117 0.0
C975 C 0.47489 0.51838 0.36376 0.0
H976 H 0.53115 0.55485 0.33487 0.0
C977 C 0.46644 0.52328 0.2899 0.0
H978 H 0.50518 0.52797 0.43863 0.0
C979 C 0.48153 0.539 0.23022 0.0
C980 C 0.50504 0.54995 0.2448 0.0
H981 H 0.4485 0.51384 0.27546 0.0
H982 H 0.47501 0.54113 0.16997 0.0
C983 C 0.51311 0.54659 0.32238 0.0
C984 C 0.07332 0.54111 0.72811 0.0
C985 C 0.05982 0.55115 0.74041 0.0
H986 H 0.08227 0.51692 0.77561 0.0
C987 C 0.04758 0.54709 0.81628 0.0
H988 H 0.08271 0.54388 0.66931 0.0
C989 C 0.0471 0.53171 0.87557 0.0
C990 C 0.05887 0.52 0.86041 0.0
H991 H 0.03726 0.55483 0.82733 0.0
H992 H 0.03658 0.5282 0.9318 0.0
C993 C 0.07292 0.5256 0.78828 0.0
C994 C 0.49345 0.54808 0.79193 0.0
C995 C 0.49858 0.53914 0.86385 0.0
H996 H 0.47545 0.54036 0.67239 0.0
C997 C 0.48644 0.5156 0.87775 0.0
H998 H 0.50244 0.56617 0.78024 0.0
C999 C 0.47101 0.50112 0.81768 0.0
C1000 C 0.46735 0.50978 0.74221 0.0
H1001 H 0.48956 0.50821 0.93378 0.0
H1002 H 0.46281 0.48299 0.82794 0.0
C1003 C 0.47791 0.53338 0.7309 0.0
C1004 C 0.51259 0.96916 0.8282 0.0
C1005 C 0.50442 0.95753 0.751 0.0
H1006 H 0.50478 0.98001 0.94436 0.0
C1007 C 0.48089 0.94475 0.73727 0.0
H1008 H 0.53065 0.97913 0.84004 0.0
C1009 C 0.46585 0.94536 0.79726 0.0
C1010 C 0.47438 0.95893 0.87061 0.0
H1011 H 0.47428 0.93594 0.67733 0.0
H1012 H 0.44788 0.93669 0.78334 0.0
C1013 C 0.49776 0.96985 0.88731 0.0
C1014 C 0.19611 0.40135 0.01614 0.0
C1015 C 0.19036 0.38724 0.94406 0.0
H1016 H 0.21451 0.41113 0.1349 0.0
C1017 C 0.20197 0.37538 0.92866 0.0
H1018 H 0.18751 0.41077 0.02898 0.0
C1019 C 0.21741 0.37585 0.98765 0.0
C1020 C 0.2216 0.38814 0.06356 0.0
H1021 H 0.19835 0.36482 0.87247 0.0
H1022 H 0.22503 0.36543 0.97647 0.0
C1023 C 0.21166 0.40172 0.07606 0.0
C1024 C 0.61139 0.79282 0.06453 0.0
C1025 C 0.6285 0.78702 0.06169 0.0
H1026 H 0.59957 0.81332 0.12478 0.0
C1027 C 0.64411 0.79371 0.12896 0.0
H1028 H 0.59924 0.788 0.01295 0.0
C1029 C 0.64427 0.80807 0.19258 0.0
C1030 C 0.62897 0.81624 0.1898 0.0
H1031 H 0.65734 0.78931 0.12858 0.0
H1032 H 0.65749 0.81413 0.24049 0.0
C1033 C 0.61165 0.80742 0.12827 0.0
C1034 C 0.1874 0.81757 0.9378 0.0
C1035 C 0.21092 0.82919 0.95189 0.0
H1036 H 0.15461 0.79416 0.98643 0.0
C1037 C 0.21957 0.82347 0.02317 0.0
H1038 H 0.18024 0.82113 0.88215 0.0
C1039 C 0.20463 0.80783 0.08344 0.0
C1040 C 0.18107 0.79777 0.07202 0.0
H1041 H 0.23764 0.83205 0.03494 0.0
H1042 H 0.21142 0.80488 0.14146 0.0
C1043 C 0.17269 0.80203 -0.00297 0.0
C1044 C 0.33551 0.08623 0.82443 0.0
C1045 C 0.35865 0.09776 0.84529 0.0
H1046 H 0.30139 0.06986 0.8708 0.0
C1047 C 0.36507 0.09961 0.93146 0.0
H1048 H 0.33013 0.08471 0.75849 0.0
C1049 C 0.34865 0.09153 -0.0042 0.0
C1050 C 0.32553 0.08099 0.97505 0.0
H1051 H 0.38279 0.10865 0.94948 0.0
H1052 H 0.35406 0.09441 0.06189 0.0
C1053 C 0.31908 0.07767 0.88871 0.0
C1054 C 0.92365 0.2623 -0.005 0.0
C1055 C 0.9352 0.25064 0.97504 0.0
H1056 H 0.90548 0.27816 0.94719 0.0
C1057 C 0.939 0.24782 0.88888 0.0
H1058 H 0.92035 0.26455 0.06088 0.0
C1059 C 0.93008 0.25515 0.82401 0.0
C1060 C 0.91771 0.26595 0.84397 0.0
H1061 H 0.9476 0.23867 0.87143 0.0
H1062 H 0.93213 0.25161 0.75821 0.0
C1063 C 0.9152 0.27013 0.92997 0.0
C1064 C 0.76433 0.67831 0.82037 0.0
C1065 C 0.75274 0.65506 0.83968 0.0
H1066 H 0.7823 0.71223 0.86905 0.0
C1067 C 0.74861 0.64824 0.92555 0.0
H1068 H 0.76788 0.68399 0.75468 0.0
C1069 C 0.75728 0.66437 0.99092 0.0
C1070 C 0.76975 0.68758 0.9716 0.0
H1071 H 0.73998 0.63044 0.94239 0.0
H1072 H 0.75499 0.65864 0.05659 0.0
C1073 C 0.77254 0.69445 0.88579 0.0
C1074 C 0.106 0.36491 0.54969 0.0
C1075 C 0.10325 0.35842 0.63596 0.0
H1076 H 0.1017 0.35394 0.41929 0.0
C1077 C 0.091 0.33527 0.65657 0.0
H1078 H 0.11561 0.38262 0.53186 0.0
C1079 C 0.08262 0.31886 0.59208 0.0
C1080 C 0.08684 0.32535 0.5059 0.0
H1081 H 0.08878 0.32982 0.7226 0.0
H1082 H 0.07423 0.30113 0.60989 0.0
C1083 C 0.09811 0.3485 0.48525 0.0
C1084 C 0.66997 0.77064 0.49732 0.0
C1085 C 0.69309 0.78152 0.5182 0.0
H1086 H 0.63585 0.754 0.54348 0.0
C1087 C 0.69948 0.78359 0.60447 0.0
H1088 H 0.66456 0.76883 0.43133 0.0
C1089 C 0.68304 0.77538 0.6688 0.0
C1090 C 0.65993 0.76463 0.64787 0.0
H1091 H 0.7172 0.79201 0.6224 0.0
H1092 H 0.68844 0.77757 0.73488 0.0
C1093 C 0.65354 0.76211 0.56151 0.0
C1094 C 0.24996 0.93629 0.59559 0.0
C1095 C 0.25214 0.93207 0.50931 0.0
H1096 H 0.2547 0.92997 0.72596 0.0
C1097 C 0.26382 0.9206 0.48841 0.0
H1098 H 0.24079 0.94483 0.61366 0.0
C1099 C 0.27219 0.91251 0.55268 0.0
C1100 C 0.26853 0.91528 0.63901 0.0
H1101 H 0.26559 0.91701 0.42238 0.0
H1102 H 0.28012 0.90276 0.53467 0.0
C1103 C 0.25785 0.92772 0.65988 0.0
C1104 C 0.67057 0.90644 -0.00342 0.0
C1105 C 0.69364 0.91864 0.01836 0.0
H1106 H 0.63632 0.88818 0.04162 0.0
C1107 C 0.69977 0.92205 0.10508 0.0
H1108 H 0.66535 0.9035 0.93028 0.0
C1109 C 0.68319 0.91304 0.16876 0.0
C1110 C 0.66013 0.90072 0.14703 0.0
H1111 H 0.71742 0.93128 0.1239 0.0
H1112 H 0.68845 0.91563 0.23504 0.0
C1113 C 0.65397 0.8977 0.06032 0.0
C1114 C 0.10553 0.7442 0.0523 0.0
C1115 C 0.10246 0.74757 0.13864 0.0
H1116 H 0.10153 0.75127 0.92211 0.0
C1117 C 0.08993 0.75816 0.15943 0.0
H1118 H 0.11535 0.73634 0.03435 0.0
C1119 C 0.08161 0.76629 0.0951 0.0
C1120 C 0.08617 0.76443 0.00896 0.0
H1121 H 0.08745 0.76108 0.22553 0.0
H1122 H 0.07301 0.77541 0.11311 0.0
C1123 C 0.09769 0.75281 0.98806 0.0
C1124 C 0.25781 0.33274 0.15665 0.0
C1125 C 0.26887 0.3559 0.13611 0.0
H1126 H 0.24046 0.29863 0.10993 0.0
C1127 C 0.27286 0.36241 0.04992 0.0
H1128 H 0.2544 0.32728 0.22263 0.0
C1129 C 0.26446 0.34602 0.98537 0.0
C1130 C 0.25242 0.32286 0.00592 0.0
H1131 H 0.28108 0.38014 0.0322 0.0
H1132 H 0.2665 0.35148 0.91939 0.0
C1133 C 0.24991 0.31635 0.09214 0.0
C1134 C 0.9158 0.64942 0.42778 0.0
C1135 C 0.91857 0.65608 0.34169 0.0
H1136 H 0.92015 0.6601 0.55865 0.0
C1137 C 0.93055 0.67929 0.32187 0.0
H1138 H 0.90636 0.63165 0.445 0.0
C1139 C 0.93882 0.69555 0.38687 0.0
C1140 C 0.93477 0.6889 0.47296 0.0
H1141 H 0.93278 0.68487 0.25603 0.0
H1142 H 0.94716 0.7133 0.36949 0.0
C1143 C 0.92361 0.66569 0.49283 0.0
C1144 C 0.34883 0.26016 0.49669 0.0
C1145 C 0.32571 0.24773 0.47582 0.0
H1146 H 0.38298 0.27725 0.4504 0.0
C1147 C 0.31927 0.24499 0.38949 0.0
H1148 H 0.35424 0.2624 0.56276 0.0
C1149 C 0.33572 0.25308 0.32522 0.0
C1150 C 0.35886 0.26454 0.34611 0.0
H1151 H 0.30159 0.23527 0.37146 0.0
H1152 H 0.33033 0.24951 0.2592 0.0
C1153 C 0.36527 0.26873 0.43238 0.0
C1154 C 0.77191 0.08266 0.38739 0.0
C1155 C 0.769 0.08658 0.47327 0.0
H1156 H 0.76709 0.08841 0.25632 0.0
C1157 C 0.75622 0.09697 0.49276 0.0
H1158 H 0.78196 0.07496 0.37059 0.0
C1159 C 0.74731 0.10421 0.42758 0.0
C1160 C 0.75152 0.10171 0.3416 0.0
H1161 H 0.75387 0.1003 0.5585 0.0
H1162 H 0.7384 0.11308 0.44471 0.0
C1163 C 0.76347 0.09041 0.32206 0.0
C1164 C 0.01873 0.42741 0.31748 0.0
C1165 C 0.99564 0.4165 0.29589 0.0
H1166 H 0.05298 0.44454 0.27223 0.0
C1167 C 0.98939 0.41248 0.20945 0.0
H1168 H 0.02401 0.43082 0.38365 0.0
C1169 C 1.00597 0.42069 0.14565 0.0
C1170 C 0.02907 0.43261 0.16718 0.0
H1171 H 0.97173 0.40432 0.19086 0.0
H1172 H 1.00071 0.41862 0.07942 0.0
C1173 C 0.03531 0.43518 0.2537 0.0
C1174 C 0.59735 0.58515 0.15529 0.0
C1175 C 0.58531 0.59628 0.17564 0.0
H1176 H 0.61419 0.56793 0.20221 0.0
C1177 C 0.58291 0.60046 0.26172 0.0
H1178 H 0.59931 0.58161 0.08939 0.0
C1179 C 0.59103 0.59223 0.32642 0.0
C1180 C 0.60213 0.58014 0.30608 0.0
H1181 H 0.57346 0.60874 0.27926 0.0
H1182 H 0.58777 0.59446 0.39238 0.0
C1183 C 0.60593 0.57739 0.21989 0.0
C1184 C 0.42916 0.01379 0.15466 0.0
C1185 C 0.41753 0.99063 0.17547 0.0
H1186 H 0.44701 0.04793 0.2011 0.0
C1187 C 0.41315 0.98424 0.26173 0.0
H1188 H 0.43288 0.01916 0.08869 0.0
C1189 C 0.42164 1.00068 0.3261 0.0
C1190 C 0.43418 0.02381 0.30537 0.0
H1191 H 0.40447 0.96652 0.27978 0.0
H1192 H 0.41921 0.99527 0.39218 0.0
C1193 C 0.43718 0.03024 0.21901 0.0
C1194 C 0.60483 0.03149 0.72201 0.0
C1195 C 0.60114 0.02485 0.8081 0.0
H1196 H 0.59809 0.02075 0.5914 0.0
C1197 C 0.59025 1.00166 0.82816 0.0
H1198 H 0.61292 0.04924 0.70463 0.0
C1199 C 0.58218 0.98536 0.76327 0.0
C1200 C 0.5844 0.99201 0.67732 0.0
H1201 H 0.58706 0.99611 0.89406 0.0
H1202 H 0.57284 0.9676 0.78061 0.0
C1203 C 0.59628 0.0152 0.65721 0.0
C1204 C 0.03456 0.60343 0.75314 0.0
C1205 C 0.02822 0.59904 0.66686 0.0
H1206 H 0.02342 0.59748 0.8834 0.0
C1207 C 1.00509 0.58764 0.64568 0.0
H1208 H 0.05225 0.61195 0.77142 0.0
C1209 C 0.98859 0.57976 0.70975 0.0
C1210 C 0.99496 0.5827 0.79617 0.0
H1211 H 0.99976 0.58392 0.57965 0.0
H1212 H 0.97092 0.57004 0.69158 0.0
C1213 C 0.01807 0.5951 0.81725 0.0
C1214 C 0.41483 0.4332 0.76044 0.0
C1215 C 0.41914 0.43113 0.67415 0.0
H1216 H 0.42098 0.42833 0.89083 0.0
C1217 C 0.43081 0.41965 0.65331 0.0
H1218 H 0.40611 0.44219 0.77853 0.0
C1219 C 0.43893 0.41131 0.71764 0.0
C1220 C 0.43597 0.41478 0.80399 0.0
H1221 H 0.43447 0.41794 0.58731 0.0
H1222 H 0.44878 0.40348 0.69972 0.0
C1223 C 0.4234 0.42534 0.82475 0.0
loop_
_geom_bond_atom_site_label_1
_geom_bond_atom_site_label_2
_geom_bond_distance
_geom_bond_site_symmetry_2
_ccdc_geom_bond_type
Co0 O1 2.216 . S
Co0 O2 2.091 . S
Co0 O4 2.004 1_554 S
Co0 O10 2.021 . S
Co0 O12 2.137 1_554 S
Co0 O13 2.244 . S
O1 Co0 2.216 . S
O1 C8 1.247 . S
O2 Co0 2.091 . S
O2 C8 1.261 . S
C3 O12 1.247 . S
C3 O13 1.272 1_556 S
O4 Co0 2.004 1_556 S
O4 C9 1.259 . S
Co5 O6 2.061 1_554 S
Co5 O11 2.052 . S
Co5 O13 2.135 . S
O6 Co5 2.061 1_556 S
O6 C9 1.235 . S
C7 O10 1.238 . S
C7 O11 1.241 . S
C8 O1 1.247 . S
C8 O2 1.261 . S
C9 O4 1.259 . S
C9 O6 1.235 . S
O10 Co0 2.021 . S
O10 C7 1.238 . S
O11 Co5 2.052 . S
O11 C7 1.241 . S
O12 Co0 2.137 1_556 S
O12 C3 1.247 . S
O13 Co0 2.244 . S
O13 C3 1.272 1_554 S
O13 Co5 2.135 . S
Co14 O15 2.216 . S
Co14 O16 2.091 . S
Co14 O18 2.004 1_554 S
Co14 O24 2.021 . S
Co14 O26 2.137 1_554 S
Co14 O27 2.244 . S
O15 Co14 2.216 . S
O15 C22 1.247 . S
O16 Co14 2.091 . S
O16 C22 1.261 . S
C17 O26 1.247 . S
C17 O27 1.272 1_556 S
O18 Co14 2.004 1_556 S
O18 C23 1.259 . S
Co19 O20 2.061 1_554 S
Co19 O25 2.052 . S
Co19 O27 2.135 . S
O20 Co19 2.061 1_556 S
O20 C23 1.235 . S
C21 O24 1.238 . S
C21 O25 1.241 . S
C22 O15 1.247 . S
C22 O16 1.261 . S
C23 O18 1.259 . S
C23 O20 1.235 . S
O24 Co14 2.021 . S
O24 C21 1.238 . S
O25 Co19 2.052 . S
O25 C21 1.241 . S
O26 Co14 2.137 1_556 S
O26 C17 1.247 . S
O27 Co14 2.244 . S
O27 C17 1.272 1_554 S
O27 Co19 2.135 . S
Co28 O29 2.216 . S
Co28 O30 2.091 . S
Co28 O32 2.004 1_554 S
Co28 O38 2.021 . S
Co28 O40 2.137 1_554 S
Co28 O41 2.244 . S
O29 Co28 2.216 . S
O29 C36 1.247 . S
O30 Co28 2.091 . S
O30 C36 1.261 . S
C31 O40 1.247 . S
C31 O41 1.272 1_556 S
O32 Co28 2.004 1_556 S
O32 C37 1.259 . S
Co33 O34 2.061 1_554 S
Co33 O39 2.052 . S
Co33 O41 2.135 . S
O34 Co33 2.061 1_556 S
O34 C37 1.235 . S
C35 O38 1.238 . S
C35 O39 1.241 . S
C36 O29 1.247 . S
C36 O30 1.261 . S
C37 O32 1.259 . S
C37 O34 1.235 . S
O38 Co28 2.021 . S
O38 C35 1.238 . S
O39 Co33 2.052 . S
O39 C35 1.241 . S
O40 Co28 2.137 1_556 S
O40 C31 1.247 . S
O41 Co28 2.244 . S
O41 C31 1.272 1_554 S
O41 Co33 2.135 . S
Co42 O43 2.216 . S
Co42 O44 2.091 . S
Co42 O46 2.004 . S
Co42 O52 2.021 . S
Co42 O54 2.137 . S
Co42 O55 2.244 . S
O43 Co42 2.216 . S
O43 C50 1.247 . S
O44 Co42 2.091 . S
O44 C50 1.261 . S
C45 O54 1.247 . S
C45 O55 1.272 . S
O46 Co42 2.004 . S
O46 C51 1.259 . S
Co47 O48 2.061 . S
Co47 O53 2.052 . S
Co47 O55 2.135 . S
O48 Co47 2.061 . S
O48 C51 1.235 . S
C49 O52 1.238 . S
C49 O53 1.241 . S
C50 O43 1.247 . S
C50 O44 1.261 . S
C51 O46 1.259 . S
C51 O48 1.235 . S
O52 Co42 2.021 . S
O52 C49 1.238 . S
O53 Co47 2.052 . S
O53 C49 1.241 . S
O54 Co42 2.137 . S
O54 C45 1.247 . S
O55 Co42 2.244 . S
O55 C45 1.272 . S
O55 Co47 2.135 . S
Co56 O57 2.216 . S
Co56 O58 2.091 . S
Co56 O60 2.004 . S
Co56 O66 2.021 . S
Co56 O68 2.137 . S
Co56 O69 2.244 . S
O57 Co56 2.216 . S
O57 C64 1.247 . S
O58 Co56 2.091 . S
O58 C64 1.261 . S
C59 O68 1.247 . S
C59 O69 1.272 . S
O60 Co56 2.004 . S
O60 C65 1.259 . S
Co61 O62 2.061 . S
Co61 O67 2.052 . S
Co61 O69 2.135 . S
O62 Co61 2.061 . S
O62 C65 1.235 . S
C63 O66 1.238 . S
C63 O67 1.241 . S
C64 O57 1.247 . S
C64 O58 1.261 . S
C65 O60 1.259 . S
C65 O62 1.235 . S
O66 Co56 2.021 . S
O66 C63 1.238 . S
O67 Co61 2.052 . S
O67 C63 1.241 . S
O68 Co56 2.137 . S
O68 C59 1.247 . S
O69 Co56 2.244 . S
O69 C59 1.272 . S
O69 Co61 2.135 . S
Co70 O71 2.216 . S
Co70 O72 2.091 . S
Co70 O74 2.004 . S
Co70 O80 2.021 . S
Co70 O82 2.137 . S
Co70 O83 2.244 . S
O71 Co70 2.216 . S
O71 C78 1.247 . S
O72 Co70 2.091 . S
O72 C78 1.261 . S
C73 O82 1.247 . S
C73 O83 1.272 . S
O74 Co70 2.004 . S
O74 C79 1.259 . S
Co75 O76 2.061 . S
Co75 O81 2.052 . S
Co75 O83 2.135 . S
O76 Co75 2.061 . S
O76 C79 1.235 . S
C77 O80 1.238 . S
C77 O81 1.241 . S
C78 O71 1.247 . S
C78 O72 1.261 . S
C79 O74 1.259 . S
C79 O76 1.235 . S
O80 Co70 2.021 . S
O80 C77 1.238 . S
O81 Co75 2.052 . S
O81 C77 1.241 . S
O82 Co70 2.137 . S
O82 C73 1.247 . S
O83 Co70 2.244 . S
O83 C73 1.272 . S
O83 Co75 2.135 . S
Co84 O85 2.216 . S
Co84 O86 2.091 . S
Co84 O88 2.004 1_556 S
Co84 O94 2.021 . S
Co84 O96 2.137 1_556 S
Co84 O97 2.244 . S
O85 Co84 2.216 . S
O85 C92 1.247 . S
O86 Co84 2.091 . S
O86 C92 1.261 . S
C87 O96 1.247 . S
C87 O97 1.272 1_554 S
O88 Co84 2.004 1_554 S
O88 C93 1.259 . S
Co89 O90 2.061 1_556 S
Co89 O95 2.052 . S
Co89 O97 2.135 . S
O90 Co89 2.061 1_554 S
O90 C93 1.235 . S
C91 O94 1.238 . S
C91 O95 1.241 . S
C92 O85 1.247 . S
C92 O86 1.261 . S
C93 O88 1.259 . S
C93 O90 1.235 . S
O94 Co84 2.021 . S
O94 C91 1.238 . S
O95 Co89 2.052 . S
O95 C91 1.241 . S
O96 Co84 2.137 1_554 S
O96 C87 1.247 . S
O97 Co84 2.244 . S
O97 C87 1.272 1_556 S
O97 Co89 2.135 . S
Co98 O99 2.216 . S
Co98 O100 2.091 . S
Co98 O102 2.004 1_556 S
Co98 O108 2.021 . S
Co98 O110 2.137 1_556 S
Co98 O111 2.244 . S
O99 Co98 2.216 . S
O99 C106 1.247 . S
O100 Co98 2.091 . S
O100 C106 1.261 . S
C101 O110 1.247 . S
C101 O111 1.272 1_554 S
O102 Co98 2.004 1_554 S
O102 C107 1.259 . S
Co103 O104 2.061 1_556 S
Co103 O109 2.052 . S
Co103 O111 2.135 . S
O104 Co103 2.061 1_554 S
O104 C107 1.235 . S
C105 O108 1.238 . S
C105 O109 1.241 . S
C106 O99 1.247 . S
C106 O100 1.261 . S
C107 O102 1.259 . S
C107 O104 1.235 . S
O108 Co98 2.021 . S
O108 C105 1.238 . S
O109 Co103 2.052 . S
O109 C105 1.241 . S
O110 Co98 2.137 1_554 S
O110 C101 1.247 . S
O111 Co98 2.244 . S
O111 C101 1.272 1_556 S
O111 Co103 2.135 . S
Co112 O113 2.216 . S
Co112 O114 2.091 . S
Co112 O116 2.004 1_556 S
Co112 O122 2.021 . S
Co112 O124 2.137 1_556 S
Co112 O125 2.244 . S
O113 Co112 2.216 . S
O113 C120 1.247 . S
O114 Co112 2.091 . S
O114 C120 1.261 . S
C115 O124 1.247 . S
C115 O125 1.272 1_554 S
O116 Co112 2.004 1_554 S
O116 C121 1.259 . S
Co117 O118 2.061 1_556 S
Co117 O123 2.052 . S
Co117 O125 2.135 . S
O118 Co117 2.061 1_554 S
O118 C121 1.235 . S
C119 O122 1.238 . S
C119 O123 1.241 . S
C120 O113 1.247 . S
C120 O114 1.261 . S
C121 O116 1.259 . S
C121 O118 1.235 . S
O122 Co112 2.021 . S
O122 C119 1.238 . S
O123 Co117 2.052 . S
O123 C119 1.241 . S
O124 Co112 2.137 1_554 S
O124 C115 1.247 . S
O125 Co112 2.244 . S
O125 C115 1.272 1_556 S
O125 Co117 2.135 . S
Co126 O127 2.216 . S
Co126 O128 2.091 . S
Co126 O130 2.004 . S
Co126 O136 2.021 . S
Co126 O138 2.137 . S
Co126 O139 2.244 . S
O127 Co126 2.216 . S
O127 C134 1.247 . S
O128 Co126 2.091 . S
O128 C134 1.261 . S
C129 O138 1.247 . S
C129 O139 1.272 . S
O130 Co126 2.004 . S
O130 C135 1.259 . S
Co131 O132 2.061 . S
Co131 O137 2.052 . S
Co131 O139 2.135 . S
O132 Co131 2.061 . S
O132 C135 1.235 . S
C133 O136 1.238 . S
C133 O137 1.241 . S
C134 O127 1.247 . S
C134 O128 1.261 . S
C135 O130 1.259 . S
C135 O132 1.235 . S
O136 Co126 2.021 . S
O136 C133 1.238 . S
O137 Co131 2.052 . S
O137 C133 1.241 . S
O138 Co126 2.137 . S
O138 C129 1.247 . S
O139 Co126 2.244 . S
O139 C129 1.272 . S
O139 Co131 2.135 . S
Co140 O141 2.216 . S
Co140 O142 2.091 . S
Co140 O144 2.004 . S
Co140 O150 2.021 . S
Co140 O152 2.137 . S
Co140 O153 2.244 . S
O141 Co140 2.216 . S
O141 C148 1.247 . S
O142 Co140 2.091 . S
O142 C148 1.261 . S
C143 O152 1.247 . S
C143 O153 1.272 . S
O144 Co140 2.004 . S
O144 C149 1.259 . S
Co145 O146 2.061 . S
Co145 O151 2.052 . S
Co145 O153 2.135 . S
O146 Co145 2.061 . S
O146 C149 1.235 . S
C147 O150 1.238 . S
C147 O151 1.241 . S
C148 O141 1.247 . S
C148 O142 1.261 . S
C149 O144 1.259 . S
C149 O146 1.235 . S
O150 Co140 2.021 . S
O150 C147 1.238 . S
O151 Co145 2.052 . S
O151 C147 1.241 . S
O152 Co140 2.137 . S
O152 C143 1.247 . S
O153 Co140 2.244 . S
O153 C143 1.272 . S
O153 Co145 2.135 . S
Co154 O155 2.216 . S
Co154 O156 2.091 . S
Co154 O158 2.004 . S
Co154 O164 2.021 . S
Co154 O166 2.137 . S
Co154 O167 2.244 . S
O155 Co154 2.216 . S
O155 C162 1.247 . S
O156 Co154 2.091 . S
O156 C162 1.261 . S
C157 O166 1.247 . S
C157 O167 1.272 . S
O158 Co154 2.004 . S
O158 C163 1.259 . S
Co159 O160 2.061 . S
Co159 O165 2.052 . S
Co159 O167 2.135 . S
O160 Co159 2.061 . S
O160 C163 1.235 . S
C161 O164 1.238 . S
C161 O165 1.241 . S
C162 O155 1.247 . S
C162 O156 1.261 . S
C163 O158 1.259 . S
C163 O160 1.235 . S
O164 Co154 2.021 . S
O164 C161 1.238 . S
O165 Co159 2.052 . S
O165 C161 1.241 . S
O166 Co154 2.137 . S
O166 C157 1.247 . S
O167 Co154 2.244 . S
O167 C157 1.272 . S
O167 Co159 2.135 . S
Co168 O169 2.216 . S
Co168 O170 2.091 . S
Co168 O172 2.004 . S
Co168 O178 2.021 . S
Co168 O180 2.137 . S
Co168 O181 2.244 . S
O169 Co168 2.216 . S
O169 C176 1.247 . S
O170 Co168 2.091 . S
O170 C176 1.261 . S
C171 O180 1.247 . S
C171 O181 1.272 . S
O172 Co168 2.004 . S
O172 C177 1.259 . S
Co173 O174 2.061 . S
Co173 O179 2.052 . S
Co173 O181 2.135 . S
O174 Co173 2.061 . S
O174 C177 1.235 . S
C175 O178 1.238 . S
C175 O179 1.241 . S
C176 O169 1.247 . S
C176 O170 1.261 . S
C177 O172 1.259 . S
C177 O174 1.235 . S
O178 Co168 2.021 . S
O178 C175 1.238 . S
O179 Co173 2.052 . S
O179 C175 1.241 . S
O180 Co168 2.137 . S
O180 C171 1.247 . S
O181 Co168 2.244 . S
O181 C171 1.272 . S
O181 Co173 2.135 . S
Co182 O183 2.216 . S
Co182 O184 2.091 . S
Co182 O186 2.004 . S
Co182 O192 2.021 . S
Co182 O194 2.137 . S
Co182 O195 2.244 . S
O183 Co182 2.216 . S
O183 C190 1.247 . S
O184 Co182 2.091 . S
O184 C190 1.261 . S
C185 O194 1.247 . S
C185 O195 1.272 . S
O186 Co182 2.004 . S
O186 C191 1.259 . S
Co187 O188 2.061 . S
Co187 O193 2.052 . S
Co187 O195 2.135 . S
O188 Co187 2.061 . S
O188 C191 1.235 . S
C189 O192 1.238 . S
C189 O193 1.241 . S
C190 O183 1.247 . S
C190 O184 1.261 . S
C191 O186 1.259 . S
C191 O188 1.235 . S
O192 Co182 2.021 . S
O192 C189 1.238 . S
O193 Co187 2.052 . S
O193 C189 1.241 . S
O194 Co182 2.137 . S
O194 C185 1.247 . S
O195 Co182 2.244 . S
O195 C185 1.272 . S
O195 Co187 2.135 . S
Co196 O197 2.216 . S
Co196 O198 2.091 . S
Co196 O200 2.004 . S
Co196 O206 2.021 . S
Co196 O208 2.137 . S
Co196 O209 2.244 . S
O197 Co196 2.216 . S
O197 C204 1.247 . S
O198 Co196 2.091 . S
O198 C204 1.261 . S
C199 O208 1.247 . S
C199 O209 1.272 . S
O200 Co196 2.004 . S
O200 C205 1.259 . S
Co201 O202 2.061 . S
Co201 O207 2.052 . S
Co201 O209 2.135 . S
O202 Co201 2.061 . S
O202 C205 1.235 . S
C203 O206 1.238 . S
C203 O207 1.241 . S
C204 O197 1.247 . S
C204 O198 1.261 . S
C205 O200 1.259 . S
C205 O202 1.235 . S
O206 Co196 2.021 . S
O206 C203 1.238 . S
O207 Co201 2.052 . S
O207 C203 1.241 . S
O208 Co196 2.137 . S
O208 C199 1.247 . S
O209 Co196 2.244 . S
O209 C199 1.272 . S
O209 Co201 2.135 . S
Co210 O211 2.216 . S
Co210 O212 2.091 . S
Co210 O214 2.004 . S
Co210 O220 2.021 . S
Co210 O222 2.137 . S
Co210 O223 2.244 . S
O211 Co210 2.216 . S
O211 C218 1.247 . S
O212 Co210 2.091 . S
O212 C218 1.261 . S
C213 O222 1.247 . S
C213 O223 1.272 . S
O214 Co210 2.004 . S
O214 C219 1.259 . S
Co215 O216 2.061 . S
Co215 O221 2.052 . S
Co215 O223 2.135 . S
O216 Co215 2.061 . S
O216 C219 1.235 . S
C217 O220 1.238 . S
C217 O221 1.241 . S
C218 O211 1.247 . S
C218 O212 1.261 . S
C219 O214 1.259 . S
C219 O216 1.235 . S
O220 Co210 2.021 . S
O220 C217 1.238 . S
O221 Co215 2.052 . S
O221 C217 1.241 . S
O222 Co210 2.137 . S
O222 C213 1.247 . S
O223 Co210 2.244 . S
O223 C213 1.272 . S
O223 Co215 2.135 . S
Co224 O225 2.216 . S
Co224 O226 2.091 . S
Co224 O228 2.004 . S
Co224 O234 2.021 . S
Co224 O236 2.137 . S
Co224 O237 2.244 . S
O225 Co224 2.216 . S
O225 C232 1.247 . S
O226 Co224 2.091 . S
O226 C232 1.261 . S
C227 O236 1.247 . S
C227 O237 1.272 . S
O228 Co224 2.004 . S
O228 C233 1.259 . S
Co229 O230 2.061 . S
Co229 O235 2.052 . S
Co229 O237 2.135 . S
O230 Co229 2.061 . S
O230 C233 1.235 . S
C231 O234 1.238 . S
C231 O235 1.241 . S
C232 O225 1.247 . S
C232 O226 1.261 . S
C233 O228 1.259 . S
C233 O230 1.235 . S
O234 Co224 2.021 . S
O234 C231 1.238 . S
O235 Co229 2.052 . S
O235 C231 1.241 . S
O236 Co224 2.137 . S
O236 C227 1.247 . S
O237 Co224 2.244 . S
O237 C227 1.272 . S
O237 Co229 2.135 . S
Co238 O239 2.216 . S
Co238 O240 2.091 . S
Co238 O242 2.004 . S
Co238 O248 2.021 . S
Co238 O250 2.137 . S
Co238 O251 2.244 . S
O239 Co238 2.216 . S
O239 C246 1.247 . S
O240 Co238 2.091 . S
O240 C246 1.261 . S
C241 O250 1.247 . S
C241 O251 1.272 . S
O242 Co238 2.004 . S
O242 C247 1.259 . S
Co243 O244 2.061 . S
Co243 O249 2.052 . S
Co243 O251 2.135 . S
O244 Co243 2.061 . S
O244 C247 1.235 . S
C245 O248 1.238 . S
C245 O249 1.241 . S
C246 O239 1.247 . S
C246 O240 1.261 . S
C247 O242 1.259 . S
C247 O244 1.235 . S
O248 Co238 2.021 . S
O248 C245 1.238 . S
O249 Co243 2.052 . S
O249 C245 1.241 . S
O250 Co238 2.137 . S
O250 C241 1.247 . S
O251 Co238 2.244 . S
O251 C241 1.272 . S
O251 Co243 2.135 . S
Co252 O253 2.216 . S
Co252 O254 2.091 . S
Co252 O256 2.004 . S
Co252 O262 2.021 . S
Co252 O264 2.137 . S
Co252 O265 2.244 . S
O253 Co252 2.216 . S
O253 C260 1.247 . S
O254 Co252 2.091 . S
O254 C260 1.261 . S
C255 O264 1.247 . S
C255 O265 1.272 . S
O256 Co252 2.004 . S
O256 C261 1.259 . S
Co257 O258 2.061 . S
Co257 O263 2.052 . S
Co257 O265 2.135 . S
O258 Co257 2.061 . S
O258 C261 1.235 . S
C259 O262 1.238 . S
C259 O263 1.241 . S
C260 O253 1.247 . S
C260 O254 1.261 . S
C261 O256 1.259 . S
C261 O258 1.235 . S
O262 Co252 2.021 . S
O262 C259 1.238 . S
O263 Co257 2.052 . S
O263 C259 1.241 . S
O264 Co252 2.137 . S
O264 C255 1.247 . S
O265 Co252 2.244 . S
O265 C255 1.272 . S
O265 Co257 2.135 . S
Co266 O267 2.216 . S
Co266 O268 2.091 . S
Co266 O270 2.004 . S
Co266 O276 2.021 . S
Co266 O278 2.137 . S
Co266 O279 2.244 . S
O267 Co266 2.216 . S
O267 C274 1.247 . S
O268 Co266 2.091 . S
O268 C274 1.261 . S
C269 O278 1.247 . S
C269 O279 1.272 . S
O270 Co266 2.004 . S
O270 C275 1.259 . S
Co271 O272 2.061 . S
Co271 O277 2.052 . S
Co271 O279 2.135 . S
O272 Co271 2.061 . S
O272 C275 1.235 . S
C273 O276 1.238 . S
C273 O277 1.241 . S
C274 O267 1.247 . S
C274 O268 1.261 . S
C275 O270 1.259 . S
C275 O272 1.235 . S
O276 Co266 2.021 . S
O276 C273 1.238 . S
O277 Co271 2.052 . S
O277 C273 1.241 . S
O278 Co266 2.137 . S
O278 C269 1.247 . S
O279 Co266 2.244 . S
O279 C269 1.272 . S
O279 Co271 2.135 . S
Co280 O281 2.216 . S
Co280 O282 2.091 . S
Co280 O284 2.004 . S
Co280 O290 2.021 . S
Co280 O292 2.137 . S
Co280 O293 2.244 . S
O281 Co280 2.216 . S
O281 C288 1.247 . S
O282 Co280 2.091 . S
O282 C288 1.261 . S
C283 O292 1.247 . S
C283 O293 1.272 . S
O284 Co280 2.004 . S
O284 C289 1.259 . S
Co285 O286 2.061 . S
Co285 O291 2.052 . S
Co285 O293 2.135 . S
O286 Co285 2.061 . S
O286 C289 1.235 . S
C287 O290 1.238 . S
C287 O291 1.241 . S
C288 O281 1.247 . S
C288 O282 1.261 . S
C289 O284 1.259 . S
C289 O286 1.235 . S
O290 Co280 2.021 . S
O290 C287 1.238 . S
O291 Co285 2.052 . S
O291 C287 1.241 . S
O292 Co280 2.137 . S
O292 C283 1.247 . S
O293 Co280 2.244 . S
O293 C283 1.272 . S
O293 Co285 2.135 . S
Co294 O295 2.216 . S
Co294 O296 2.091 . S
Co294 O298 2.004 . S
Co294 O304 2.021 . S
Co294 O306 2.137 . S
Co294 O307 2.244 . S
O295 Co294 2.216 . S
O295 C302 1.247 . S
O296 Co294 2.091 . S
O296 C302 1.261 . S
C297 O306 1.247 . S
C297 O307 1.272 . S
O298 Co294 2.004 . S
O298 C303 1.259 . S
Co299 O300 2.061 . S
Co299 O305 2.052 . S
Co299 O307 2.135 . S
O300 Co299 2.061 . S
O300 C303 1.235 . S
C301 O304 1.238 1_554 S
C301 O305 1.241 1_554 S
C302 O295 1.247 . S
C302 O296 1.261 . S
C303 O298 1.259 . S
C303 O300 1.235 . S
O304 Co294 2.021 . S
O304 C301 1.238 1_556 S
O305 Co299 2.052 . S
O305 C301 1.241 1_556 S
O306 Co294 2.137 . S
O306 C297 1.247 . S
O307 Co294 2.244 . S
O307 C297 1.272 . S
O307 Co299 2.135 . S
Co308 O309 2.216 . S
Co308 O310 2.091 . S
Co308 O312 2.004 . S
Co308 O318 2.021 . S
Co308 O320 2.137 . S
Co308 O321 2.244 . S
O309 Co308 2.216 . S
O309 C316 1.247 . S
O310 Co308 2.091 . S
O310 C316 1.261 . S
C311 O320 1.247 . S
C311 O321 1.272 . S
O312 Co308 2.004 . S
O312 C317 1.259 . S
Co313 O314 2.061 . S
Co313 O319 2.052 . S
Co313 O321 2.135 . S
O314 Co313 2.061 . S
O314 C317 1.235 . S
C315 O318 1.238 1_554 S
C315 O319 1.241 1_554 S
C316 O309 1.247 . S
C316 O310 1.261 . S
C317 O312 1.259 . S
C317 O314 1.235 . S
O318 Co308 2.021 . S
O318 C315 1.238 1_556 S
O319 Co313 2.052 . S
O319 C315 1.241 1_556 S
O320 Co308 2.137 . S
O320 C311 1.247 . S
O321 Co308 2.244 . S
O321 C311 1.272 . S
O321 Co313 2.135 . S
Co322 O323 2.216 . S
Co322 O324 2.091 . S
Co322 O326 2.004 . S
Co322 O332 2.021 . S
Co322 O334 2.137 . S
Co322 O335 2.244 . S
O323 Co322 2.216 . S
O323 C330 1.247 . S
O324 Co322 2.091 . S
O324 C330 1.261 . S
C325 O334 1.247 . S
C325 O335 1.272 . S
O326 Co322 2.004 . S
O326 C331 1.259 . S
Co327 O328 2.061 . S
Co327 O333 2.052 . S
Co327 O335 2.135 . S
O328 Co327 2.061 . S
O328 C331 1.235 . S
C329 O332 1.238 1_554 S
C329 O333 1.241 1_554 S
C330 O323 1.247 . S
C330 O324 1.261 . S
C331 O326 1.259 . S
C331 O328 1.235 . S
O332 Co322 2.021 . S
O332 C329 1.238 1_556 S
O333 Co327 2.052 . S
O333 C329 1.241 1_556 S
O334 Co322 2.137 . S
O334 C325 1.247 . S
O335 Co322 2.244 . S
O335 C325 1.272 . S
O335 Co327 2.135 . S
Co336 O337 2.216 . S
Co336 O338 2.091 . S
Co336 O340 2.004 . S
Co336 O346 2.021 . S
Co336 O348 2.137 . S
Co336 O349 2.244 . S
O337 Co336 2.216 . S
O337 C344 1.247 . S
O338 Co336 2.091 . S
O338 C344 1.261 . S
C339 O348 1.247 . S
C339 O349 1.272 . S
O340 Co336 2.004 . S
O340 C345 1.259 . S
Co341 O342 2.061 . S
Co341 O347 2.052 . S
Co341 O349 2.135 . S
O342 Co341 2.061 . S
O342 C345 1.235 . S
C343 O346 1.238 . S
C343 O347 1.241 . S
C344 O337 1.247 . S
C344 O338 1.261 . S
C345 O340 1.259 . S
C345 O342 1.235 . S
O346 Co336 2.021 . S
O346 C343 1.238 . S
O347 Co341 2.052 . S
O347 C343 1.241 . S
O348 Co336 2.137 . S
O348 C339 1.247 . S
O349 Co336 2.244 . S
O349 C339 1.272 . S
O349 Co341 2.135 . S
Co350 O351 2.216 . S
Co350 O352 2.091 . S
Co350 O354 2.004 . S
Co350 O360 2.021 . S
Co350 O362 2.137 . S
Co350 O363 2.244 . S
O351 Co350 2.216 . S
O351 C358 1.247 . S
O352 Co350 2.091 . S
O352 C358 1.261 . S
C353 O362 1.247 . S
C353 O363 1.272 . S
O354 Co350 2.004 . S
O354 C359 1.259 . S
Co355 O356 2.061 . S
Co355 O361 2.052 . S
Co355 O363 2.135 . S
O356 Co355 2.061 . S
O356 C359 1.235 . S
C357 O360 1.238 . S
C357 O361 1.241 . S
C358 O351 1.247 . S
C358 O352 1.261 . S
C359 O354 1.259 . S
C359 O356 1.235 . S
O360 Co350 2.021 . S
O360 C357 1.238 . S
O361 Co355 2.052 . S
O361 C357 1.241 . S
O362 Co350 2.137 . S
O362 C353 1.247 . S
O363 Co350 2.244 . S
O363 C353 1.272 . S
O363 Co355 2.135 . S
Co364 O365 2.216 . S
Co364 O366 2.091 . S
Co364 O368 2.004 . S
Co364 O374 2.021 . S
Co364 O376 2.137 . S
Co364 O377 2.244 . S
O365 Co364 2.216 . S
O365 C372 1.247 . S
O366 Co364 2.091 . S
O366 C372 1.261 . S
C367 O376 1.247 . S
C367 O377 1.272 . S
O368 Co364 2.004 . S
O368 C373 1.259 . S
Co369 O370 2.061 . S
Co369 O375 2.052 . S
Co369 O377 2.135 . S
O370 Co369 2.061 . S
O370 C373 1.235 . S
C371 O374 1.238 . S
C371 O375 1.241 . S
C372 O365 1.247 . S
C372 O366 1.261 . S
C373 O368 1.259 . S
C373 O370 1.235 . S
O374 Co364 2.021 . S
O374 C371 1.238 . S
O375 Co369 2.052 . S
O375 C371 1.241 . S
O376 Co364 2.137 . S
O376 C367 1.247 . S
O377 Co364 2.244 . S
O377 C367 1.272 . S
O377 Co369 2.135 . S
Co378 O379 2.216 . S
Co378 O380 2.091 . S
Co378 O382 2.004 . S
Co378 O388 2.021 . S
Co378 O390 2.137 . S
Co378 O391 2.244 . S
O379 Co378 2.216 . S
O379 C386 1.247 . S
O380 Co378 2.091 . S
O380 C386 1.261 . S
C381 O390 1.247 . S
C381 O391 1.272 . S
O382 Co378 2.004 . S
O382 C387 1.259 . S
Co383 O384 2.061 . S
Co383 O389 2.052 . S
Co383 O391 2.135 . S
O384 Co383 2.061 . S
O384 C387 1.235 . S
C385 O388 1.238 1_556 S
C385 O389 1.241 1_556 S
C386 O379 1.247 . S
C386 O380 1.261 . S
C387 O382 1.259 . S
C387 O384 1.235 . S
O388 Co378 2.021 . S
O388 C385 1.238 1_554 S
O389 Co383 2.052 . S
O389 C385 1.241 1_554 S
O390 Co378 2.137 . S
O390 C381 1.247 . S
O391 Co378 2.244 . S
O391 C381 1.272 . S
O391 Co383 2.135 . S
Co392 O393 2.216 . S
Co392 O394 2.091 . S
Co392 O396 2.004 . S
Co392 O402 2.021 . S
Co392 O404 2.137 . S
Co392 O405 2.244 . S
O393 Co392 2.216 . S
O393 C400 1.247 . S
O394 Co392 2.091 . S
O394 C400 1.261 . S
C395 O404 1.247 . S
C395 O405 1.272 . S
O396 Co392 2.004 . S
O396 C401 1.259 . S
Co397 O398 2.061 . S
Co397 O403 2.052 . S
Co397 O405 2.135 . S
O398 Co397 2.061 . S
O398 C401 1.235 . S
C399 O402 1.238 1_556 S
C399 O403 1.241 1_556 S
C400 O393 1.247 . S
C400 O394 1.261 . S
C401 O396 1.259 . S
C401 O398 1.235 . S
O402 Co392 2.021 . S
O402 C399 1.238 1_554 S
O403 Co397 2.052 . S
O403 C399 1.241 1_554 S
O404 Co392 2.137 . S
O404 C395 1.247 . S
O405 Co392 2.244 . S
O405 C395 1.272 . S
O405 Co397 2.135 . S
Co406 O407 2.216 . S
Co406 O408 2.091 . S
Co406 O410 2.004 . S
Co406 O416 2.021 . S
Co406 O418 2.137 . S
Co406 O419 2.244 . S
O407 Co406 2.216 . S
O407 C414 1.247 . S
O408 Co406 2.091 . S
O408 C414 1.261 . S
C409 O418 1.247 . S
C409 O419 1.272 . S
O410 Co406 2.004 . S
O410 C415 1.259 . S
Co411 O412 2.061 . S
Co411 O417 2.052 . S
Co411 O419 2.135 . S
O412 Co411 2.061 . S
O412 C415 1.235 . S
C413 O416 1.238 1_556 S
C413 O417 1.241 1_556 S
C414 O407 1.247 . S
C414 O408 1.261 . S
C415 O410 1.259 . S
C415 O412 1.235 . S
O416 Co406 2.021 . S
O416 C413 1.238 1_554 S
O417 Co411 2.052 . S
O417 C413 1.241 1_554 S
O418 Co406 2.137 . S
O418 C409 1.247 . S
O419 Co406 2.244 . S
O419 C409 1.272 . S
O419 Co411 2.135 . S
Co420 O421 2.216 . S
Co420 O422 2.091 . S
Co420 O424 2.004 . S
Co420 O430 2.021 . S
Co420 O432 2.137 . S
Co420 O433 2.244 . S
O421 Co420 2.216 . S
O421 C428 1.247 . S
O422 Co420 2.091 . S
O422 C428 1.261 . S
C423 O432 1.247 . S
C423 O433 1.272 . S
O424 Co420 2.004 . S
O424 C429 1.259 . S
Co425 O426 2.061 . S
Co425 O431 2.052 . S
Co425 O433 2.135 . S
O426 Co425 2.061 . S
O426 C429 1.235 . S
C427 O430 1.238 . S
C427 O431 1.241 . S
C428 O421 1.247 . S
C428 O422 1.261 . S
C429 O424 1.259 . S
C429 O426 1.235 . S
O430 Co420 2.021 . S
O430 C427 1.238 . S
O431 Co425 2.052 . S
O431 C427 1.241 . S
O432 Co420 2.137 . S
O432 C423 1.247 . S
O433 Co420 2.244 . S
O433 C423 1.272 . S
O433 Co425 2.135 . S
Co434 O435 2.216 . S
Co434 O436 2.091 . S
Co434 O438 2.004 . S
Co434 O444 2.021 . S
Co434 O446 2.137 . S
Co434 O447 2.244 . S
O435 Co434 2.216 . S
O435 C442 1.247 . S
O436 Co434 2.091 . S
O436 C442 1.261 . S
C437 O446 1.247 . S
C437 O447 1.272 . S
O438 Co434 2.004 . S
O438 C443 1.259 . S
Co439 O440 2.061 . S
Co439 O445 2.052 . S
Co439 O447 2.135 . S
O440 Co439 2.061 . S
O440 C443 1.235 . S
C441 O444 1.238 . S
C441 O445 1.241 . S
C442 O435 1.247 . S
C442 O436 1.261 . S
C443 O438 1.259 . S
C443 O440 1.235 . S
O444 Co434 2.021 . S
O444 C441 1.238 . S
O445 Co439 2.052 . S
O445 C441 1.241 . S
O446 Co434 2.137 . S
O446 C437 1.247 . S
O447 Co434 2.244 . S
O447 C437 1.272 . S
O447 Co439 2.135 . S
Co448 O449 2.216 . S
Co448 O450 2.091 . S
Co448 O452 2.004 . S
Co448 O458 2.021 . S
Co448 O460 2.137 . S
Co448 O461 2.244 . S
O449 Co448 2.216 . S
O449 C456 1.247 . S
O450 Co448 2.091 . S
O450 C456 1.261 . S
C451 O460 1.247 . S
C451 O461 1.272 . S
O452 Co448 2.004 . S
O452 C457 1.259 . S
Co453 O454 2.061 . S
Co453 O459 2.052 . S
Co453 O461 2.135 . S
O454 Co453 2.061 . S
O454 C457 1.235 . S
C455 O458 1.238 . S
C455 O459 1.241 . S
C456 O449 1.247 . S
C456 O450 1.261 . S
C457 O452 1.259 . S
C457 O454 1.235 . S
O458 Co448 2.021 . S
O458 C455 1.238 . S
O459 Co453 2.052 . S
O459 C455 1.241 . S
O460 Co448 2.137 . S
O460 C451 1.247 . S
O461 Co448 2.244 . S
O461 C451 1.272 . S
O461 Co453 2.135 . S
Co462 O463 2.216 . S
Co462 O464 2.091 . S
Co462 O466 2.004 . S
Co462 O472 2.021 . S
Co462 O474 2.137 . S
Co462 O475 2.244 . S
O463 Co462 2.216 . S
O463 C470 1.247 . S
O464 Co462 2.091 . S
O464 C470 1.261 . S
C465 O474 1.247 . S
C465 O475 1.272 . S
O466 Co462 2.004 . S
O466 C471 1.259 . S
Co467 O468 2.061 . S
Co467 O473 2.052 . S
Co467 O475 2.135 . S
O468 Co467 2.061 . S
O468 C471 1.235 . S
C469 O472 1.238 . S
C469 O473 1.241 . S
C470 O463 1.247 . S
C470 O464 1.261 . S
C471 O466 1.259 . S
C471 O468 1.235 . S
O472 Co462 2.021 . S
O472 C469 1.238 . S
O473 Co467 2.052 . S
O473 C469 1.241 . S
O474 Co462 2.137 . S
O474 C465 1.247 . S
O475 Co462 2.244 . S
O475 C465 1.272 . S
O475 Co467 2.135 . S
Co476 O477 2.216 . S
Co476 O478 2.091 . S
Co476 O480 2.004 . S
Co476 O486 2.021 . S
Co476 O488 2.137 . S
Co476 O489 2.244 . S
O477 Co476 2.216 . S
O477 C484 1.247 . S
O478 Co476 2.091 . S
O478 C484 1.261 . S
C479 O488 1.247 . S
C479 O489 1.272 . S
O480 Co476 2.004 . S
O480 C485 1.259 . S
Co481 O482 2.061 . S
Co481 O487 2.052 . S
Co481 O489 2.135 . S
O482 Co481 2.061 . S
O482 C485 1.235 . S
C483 O486 1.238 . S
C483 O487 1.241 . S
C484 O477 1.247 . S
C484 O478 1.261 . S
C485 O480 1.259 . S
C485 O482 1.235 . S
O486 Co476 2.021 . S
O486 C483 1.238 . S
O487 Co481 2.052 . S
O487 C483 1.241 . S
O488 Co476 2.137 . S
O488 C479 1.247 . S
O489 Co476 2.244 . S
O489 C479 1.272 . S
O489 Co481 2.135 . S
Co490 O491 2.216 . S
Co490 O492 2.091 . S
Co490 O494 2.004 . S
Co490 O500 2.021 . S
Co490 O502 2.137 . S
Co490 O503 2.244 . S
O491 Co490 2.216 . S
O491 C498 1.247 . S
O492 Co490 2.091 . S
O492 C498 1.261 . S
C493 O502 1.247 . S
C493 O503 1.272 . S
O494 Co490 2.004 . S
O494 C499 1.259 . S
Co495 O496 2.061 . S
Co495 O501 2.052 . S
Co495 O503 2.135 . S
O496 Co495 2.061 . S
O496 C499 1.235 . S
C497 O500 1.238 . S
C497 O501 1.241 . S
C498 O491 1.247 . S
C498 O492 1.261 . S
C499 O494 1.259 . S
C499 O496 1.235 . S
O500 Co490 2.021 . S
O500 C497 1.238 . S
O501 Co495 2.052 . S
O501 C497 1.241 . S
O502 Co490 2.137 . S
O502 C493 1.247 . S
O503 Co490 2.244 . S
O503 C493 1.272 . S
O503 Co495 2.135 . S
C504 C505 1.387 . S
C504 H508 0.950 . S
C504 C513 1.390 1_565 S
C505 C504 1.387 . S
C505 C507 1.387 . S
H506 C513 0.950 . S
C507 C505 1.387 . S
C507 C509 1.390 1_565 S
C507 H511 0.950 . S
H508 C504 0.950 . S
C509 C507 1.390 1_545 S
C509 C510 1.387 . S
C509 H512 0.950 . S
C510 C509 1.387 . S
C510 C513 1.387 . S
H511 C507 0.950 . S
H512 C509 0.950 . S
C513 C504 1.390 1_545 S
C513 H506 0.950 . S
C513 C510 1.387 . S
C514 C515 1.387 . S
C514 H518 0.950 . S
C514 C523 1.390 1_655 S
C515 C514 1.387 . S
C515 C517 1.387 . S
H516 C523 0.950 . S
C517 C515 1.387 . S
C517 C519 1.390 1_655 S
C517 H521 0.950 . S
H518 C514 0.950 . S
C519 C517 1.390 1_455 S
C519 C520 1.387 . S
C519 H522 0.950 . S
C520 C519 1.387 . S
C520 C523 1.387 . S
H521 C517 0.950 . S
H522 C519 0.950 . S
C523 C514 1.390 1_455 S
C523 H516 0.950 . S
C523 C520 1.387 . S
C524 C525 1.387 . S
C524 H528 0.950 . S
C524 C533 1.390 . S
C525 C524 1.387 . S
C525 C527 1.387 . S
H526 C533 0.950 . S
C527 C525 1.387 . S
C527 C529 1.390 . S
C527 H531 0.950 . S
H528 C524 0.950 . S
C529 C527 1.390 . S
C529 C530 1.387 . S
C529 H532 0.950 . S
C530 C529 1.387 . S
C530 C533 1.387 . S
H531 C527 0.950 . S
H532 C529 0.950 . S
C533 C524 1.390 . S
C533 H526 0.950 . S
C533 C530 1.387 . S
C534 C535 1.387 . S
C534 H538 0.950 . S
C534 C543 1.390 1_565 S
C535 C534 1.387 . S
C535 C537 1.387 . S
H536 C543 0.950 . S
C537 C535 1.387 . S
C537 C539 1.390 1_565 S
C537 H541 0.950 . S
H538 C534 0.950 . S
C539 C537 1.390 1_545 S
C539 C540 1.387 . S
C539 H542 0.950 . S
C540 C539 1.387 . S
C540 C543 1.387 . S
H541 C537 0.950 . S
H542 C539 0.950 . S
C543 C534 1.390 1_545 S
C543 H536 0.950 . S
C543 C540 1.387 . S
C544 C545 1.387 1_655 S
C544 H548 0.950 . S
C544 C553 1.390 . S
C545 C544 1.387 1_455 S
C545 C547 1.387 . S
H546 C553 0.950 . S
C547 C545 1.387 . S
C547 C549 1.390 . S
C547 H551 0.950 . S
H548 C544 0.950 . S
C549 C547 1.390 . S
C549 C550 1.387 1_455 S
C549 H552 0.950 . S
C550 C549 1.387 1_655 S
C550 C553 1.387 . S
H551 C547 0.950 . S
H552 C549 0.950 . S
C553 C544 1.390 . S
C553 H546 0.950 . S
C553 C550 1.387 . S
C554 C555 1.387 . S
C554 H558 0.950 . S
C554 C563 1.390 . S
C555 C554 1.387 . S
C555 C557 1.387 . S
H556 C563 0.950 . S
C557 C555 1.387 . S
C557 C559 1.390 . S
C557 H561 0.950 . S
H558 C554 0.950 . S
C559 C557 1.390 . S
C559 C560 1.387 . S
C559 H562 0.950 . S
C560 C559 1.387 . S
C560 C563 1.387 . S
H561 C557 0.950 . S
H562 C559 0.950 . S
C563 C554 1.390 . S
C563 H556 0.950 . S
C563 C560 1.387 . S
C564 C565 1.387 . S
C564 H568 0.950 . S
C564 C573 1.390 . S
C565 C564 1.387 . S
C565 C567 1.387 . S
H566 C573 0.950 . S
C567 C565 1.387 . S
C567 C569 1.390 . S
C567 H571 0.950 . S
H568 C564 0.950 . S
C569 C567 1.390 . S
C569 C570 1.387 . S
C569 H572 0.950 . S
C570 C569 1.387 . S
C570 C573 1.387 . S
H571 C567 0.950 . S
H572 C569 0.950 . S
C573 C564 1.390 . S
C573 H566 0.950 . S
C573 C570 1.387 . S
C574 C575 1.387 . S
C574 H578 0.950 . S
C574 C583 1.390 . S
C575 C574 1.387 . S
C575 C577 1.387 . S
H576 C583 0.950 . S
C577 C575 1.387 . S
C577 C579 1.390 . S
C577 H581 0.950 . S
H578 C574 0.950 . S
C579 C577 1.390 . S
C579 C580 1.387 . S
C579 H582 0.950 . S
C580 C579 1.387 . S
C580 C583 1.387 . S
H581 C577 0.950 . S
H582 C579 0.950 . S
C583 C574 1.390 . S
C583 H576 0.950 . S
C583 C580 1.387 . S
C584 C585 1.387 . S
C584 H588 0.950 . S
C584 C593 1.390 . S
C585 C584 1.387 . S
C585 C587 1.387 . S
H586 C593 0.950 . S
C587 C585 1.387 . S
C587 C589 1.390 . S
C587 H591 0.950 . S
H588 C584 0.950 . S
C589 C587 1.390 . S
C589 C590 1.387 . S
C589 H592 0.950 . S
C590 C589 1.387 . S
C590 C593 1.387 . S
H591 C587 0.950 . S
H592 C589 0.950 . S
C593 C584 1.390 . S
C593 H586 0.950 . S
C593 C590 1.387 . S
C594 C595 1.387 . S
C594 H598 0.950 . S
C594 C603 1.390 . S
C595 C594 1.387 . S
C595 C597 1.387 . S
H596 C603 0.950 . S
C597 C595 1.387 . S
C597 C599 1.390 . S
C597 H601 0.950 . S
H598 C594 0.950 . S
C599 C597 1.390 . S
C599 C600 1.387 . S
C599 H602 0.950 . S
C600 C599 1.387 . S
C600 C603 1.387 . S
H601 C597 0.950 . S
H602 C599 0.950 . S
C603 C594 1.390 . S
C603 H596 0.950 . S
C603 C600 1.387 . S
C604 C605 1.387 . S
C604 H608 0.950 . S
C604 C613 1.390 . S
C605 C604 1.387 . S
C605 C607 1.387 . S
H606 C613 0.950 1_556 S
C607 C605 1.387 . S
C607 C609 1.390 . S
C607 H611 0.950 . S
H608 C604 0.950 . S
C609 C607 1.390 . S
C609 C610 1.387 . S
C609 H612 0.950 . S
C610 C609 1.387 . S
C610 C613 1.387 . S
H611 C607 0.950 . S
H612 C609 0.950 . S
C613 C604 1.390 . S
C613 H606 0.950 1_554 S
C613 C610 1.387 . S
C614 C615 1.387 . S
C614 H618 0.950 . S
C614 C623 1.390 . S
C615 C614 1.387 . S
C615 C617 1.387 . S
H616 C623 0.950 1_556 S
C617 C615 1.387 . S
C617 C619 1.390 . S
C617 H621 0.950 . S
H618 C614 0.950 . S
C619 C617 1.390 . S
C619 C620 1.387 . S
C619 H622 0.950 . S
C620 C619 1.387 . S
C620 C623 1.387 . S
H621 C617 0.950 . S
H622 C619 0.950 . S
C623 C614 1.390 . S
C623 H616 0.950 1_554 S
C623 C620 1.387 . S
C624 C625 1.387 . S
C624 H628 0.950 . S
C624 C633 1.390 . S
C625 C624 1.387 . S
C625 C627 1.387 . S
H626 C633 0.950 . S
C627 C625 1.387 . S
C627 C629 1.390 . S
C627 H631 0.950 . S
H628 C624 0.950 . S
C629 C627 1.390 . S
C629 C630 1.387 . S
C629 H632 0.950 . S
C630 C629 1.387 . S
C630 C633 1.387 . S
H631 C627 0.950 . S
H632 C629 0.950 . S
C633 C624 1.390 . S
C633 H626 0.950 . S
C633 C630 1.387 . S
C634 C635 1.387 . S
C634 H638 0.950 1_556 S
C634 C643 1.390 . S
C635 C634 1.387 . S
C635 C637 1.387 . S
H636 C643 0.950 . S
C637 C635 1.387 . S
C637 C639 1.390 . S
C637 H641 0.950 . S
H638 C634 0.950 1_554 S
C639 C637 1.390 . S
C639 C640 1.387 . S
C639 H642 0.950 . S
C640 C639 1.387 . S
C640 C643 1.387 . S
H641 C637 0.950 . S
H642 C639 0.950 . S
C643 C634 1.390 . S
C643 H636 0.950 . S
C643 C640 1.387 . S
C644 C645 1.387 . S
C644 H648 0.950 . S
C644 C653 1.390 . S
C645 C644 1.387 . S
C645 C647 1.387 . S
H646 C653 0.950 . S
C647 C645 1.387 . S
C647 C649 1.390 . S
C647 H651 0.950 . S
H648 C644 0.950 . S
C649 C647 1.390 . S
C649 C650 1.387 . S
C649 H652 0.950 1_556 S
C650 C649 1.387 . S
C650 C653 1.387 . S
H651 C647 0.950 . S
H652 C649 0.950 1_554 S
C653 C644 1.390 . S
C653 H646 0.950 . S
C653 C650 1.387 . S
C654 C655 1.387 . S
C654 H658 0.950 . S
C654 C663 1.390 . S
C655 C654 1.387 . S
C655 C657 1.387 . S
H656 C663 0.950 . S
C657 C655 1.387 . S
C657 C659 1.390 . S
C657 H661 0.950 . S
H658 C654 0.950 . S
C659 C657 1.390 . S
C659 C660 1.387 . S
C659 H662 0.950 . S
C660 C659 1.387 . S
C660 C663 1.387 . S
H661 C657 0.950 . S
H662 C659 0.950 . S
C663 C654 1.390 . S
C663 H656 0.950 . S
C663 C660 1.387 . S
C664 C665 1.387 . S
C664 H668 0.950 . S
C664 C673 1.390 . S
C665 C664 1.387 . S
C665 C667 1.387 . S
H666 C673 0.950 . S
C667 C665 1.387 . S
C667 C669 1.390 . S
C667 H671 0.950 . S
H668 C664 0.950 . S
C669 C667 1.390 . S
C669 C670 1.387 . S
C669 H672 0.950 . S
C670 C669 1.387 . S
C670 C673 1.387 . S
H671 C667 0.950 . S
H672 C669 0.950 . S
C673 C664 1.390 . S
C673 H666 0.950 . S
C673 C670 1.387 . S
C674 C675 1.387 . S
C674 H678 0.950 . S
C674 C683 1.390 . S
C675 C674 1.387 . S
C675 C677 1.387 . S
H676 C683 0.950 . S
C677 C675 1.387 . S
C677 C679 1.390 . S
C677 H681 0.950 . S
H678 C674 0.950 . S
C679 C677 1.390 . S
C679 C680 1.387 . S
C679 H682 0.950 . S
C680 C679 1.387 . S
C680 C683 1.387 . S
H681 C677 0.950 . S
H682 C679 0.950 . S
C683 C674 1.390 . S
C683 H676 0.950 . S
C683 C680 1.387 . S
C684 C685 1.387 . S
C684 H688 0.950 . S
C684 C693 1.390 . S
C685 C684 1.387 . S
C685 C687 1.387 . S
H686 C693 0.950 . S
C687 C685 1.387 . S
C687 C689 1.390 . S
C687 H691 0.950 . S
H688 C684 0.950 . S
C689 C687 1.390 . S
C689 C690 1.387 . S
C689 H692 0.950 . S
C690 C689 1.387 . S
C690 C693 1.387 . S
H691 C687 0.950 . S
H692 C689 0.950 . S
C693 C684 1.390 . S
C693 H686 0.950 . S
C693 C690 1.387 . S
C694 C695 1.387 . S
C694 H698 0.950 . S
C694 C703 1.390 . S
C695 C694 1.387 . S
C695 C697 1.387 . S
H696 C703 0.950 . S
C697 C695 1.387 . S
C697 C699 1.390 . S
C697 H701 0.950 . S
H698 C694 0.950 . S
C699 C697 1.390 . S
C699 C700 1.387 . S
C699 H702 0.950 . S
C700 C699 1.387 . S
C700 C703 1.387 . S
H701 C697 0.950 . S
H702 C699 0.950 . S
C703 C694 1.390 . S
C703 H696 0.950 . S
C703 C700 1.387 . S
C704 C705 1.387 . S
C704 H708 0.950 . S
C704 C713 1.390 . S
C705 C704 1.387 . S
C705 C707 1.387 . S
H706 C713 0.950 . S
C707 C705 1.387 . S
C707 C709 1.390 . S
C707 H711 0.950 . S
H708 C704 0.950 . S
C709 C707 1.390 . S
C709 C710 1.387 . S
C709 H712 0.950 . S
C710 C709 1.387 . S
C710 C713 1.387 . S
H711 C707 0.950 . S
H712 C709 0.950 . S
C713 C704 1.390 . S
C713 H706 0.950 . S
C713 C710 1.387 . S
C714 C715 1.387 . S
C714 H718 0.950 . S
C714 C723 1.390 . S
C715 C714 1.387 . S
C715 C717 1.387 . S
H716 C723 0.950 . S
C717 C715 1.387 . S
C717 C719 1.390 . S
C717 H721 0.950 . S
H718 C714 0.950 . S
C719 C717 1.390 . S
C719 C720 1.387 . S
C719 H722 0.950 . S
C720 C719 1.387 . S
C720 C723 1.387 . S
H721 C717 0.950 . S
H722 C719 0.950 . S
C723 C714 1.390 . S
C723 H716 0.950 . S
C723 C720 1.387 . S
C724 C725 1.387 . S
C724 H728 0.950 . S
C724 C733 1.390 . S
C725 C724 1.387 . S
C725 C727 1.387 . S
H726 C733 0.950 . S
C727 C725 1.387 . S
C727 C729 1.390 . S
C727 H731 0.950 . S
H728 C724 0.950 . S
C729 C727 1.390 . S
C729 C730 1.387 . S
C729 H732 0.950 . S
C730 C729 1.387 . S
C730 C733 1.387 . S
H731 C727 0.950 . S
H732 C729 0.950 . S
C733 C724 1.390 . S
C733 H726 0.950 . S
C733 C730 1.387 . S
C734 C735 1.387 . S
C734 H738 0.950 . S
C734 C743 1.390 . S
C735 C734 1.387 . S
C735 C737 1.387 . S
H736 C743 0.950 . S
C737 C735 1.387 . S
C737 C739 1.390 . S
C737 H741 0.950 . S
H738 C734 0.950 . S
C739 C737 1.390 . S
C739 C740 1.387 . S
C739 H742 0.950 . S
C740 C739 1.387 . S
C740 C743 1.387 . S
H741 C737 0.950 . S
H742 C739 0.950 . S
C743 C734 1.390 . S
C743 H736 0.950 . S
C743 C740 1.387 . S
C744 C745 1.387 . S
C744 H748 0.950 . S
C744 C753 1.390 . S
C745 C744 1.387 . S
C745 C747 1.387 . S
H746 C753 0.950 . S
C747 C745 1.387 . S
C747 C749 1.390 . S
C747 H751 0.950 . S
H748 C744 0.950 . S
C749 C747 1.390 . S
C749 C750 1.387 . S
C749 H752 0.950 . S
C750 C749 1.387 . S
C750 C753 1.387 . S
H751 C747 0.950 . S
H752 C749 0.950 . S
C753 C744 1.390 . S
C753 H746 0.950 . S
C753 C750 1.387 . S
C754 C755 1.387 . S
C754 H758 0.950 . S
C754 C763 1.390 . S
C755 C754 1.387 . S
C755 C757 1.387 . S
H756 C763 0.950 . S
C757 C755 1.387 . S
C757 C759 1.390 . S
C757 H761 0.950 . S
H758 C754 0.950 . S
C759 C757 1.390 . S
C759 C760 1.387 . S
C759 H762 0.950 . S
C760 C759 1.387 . S
C760 C763 1.387 . S
H761 C757 0.950 . S
H762 C759 0.950 . S
C763 C754 1.390 . S
C763 H756 0.950 . S
C763 C760 1.387 . S
C764 C765 1.387 . S
C764 H768 0.950 . S
C764 C773 1.390 . S
C765 C764 1.387 . S
C765 C767 1.387 . S
H766 C773 0.950 . S
C767 C765 1.387 . S
C767 C769 1.390 . S
C767 H771 0.950 . S
H768 C764 0.950 . S
C769 C767 1.390 . S
C769 C770 1.387 . S
C769 H772 0.950 . S
C770 C769 1.387 . S
C770 C773 1.387 . S
H771 C767 0.950 . S
H772 C769 0.950 . S
C773 C764 1.390 . S
C773 H766 0.950 . S
C773 C770 1.387 . S
C774 C775 1.387 . S
C774 H778 0.950 . S
C774 C783 1.390 . S
C775 C774 1.387 . S
C775 C777 1.387 . S
H776 C783 0.950 . S
C777 C775 1.387 . S
C777 C779 1.390 . S
C777 H781 0.950 . S
H778 C774 0.950 . S
C779 C777 1.390 . S
C779 C780 1.387 . S
C779 H782 0.950 . S
C780 C779 1.387 . S
C780 C783 1.387 . S
H781 C777 0.950 . S
H782 C779 0.950 . S
C783 C774 1.390 . S
C783 H776 0.950 . S
C783 C780 1.387 . S
C784 C785 1.387 . S
C784 H788 0.950 . S
C784 C793 1.390 . S
C785 C784 1.387 . S
C785 C787 1.387 . S
H786 C793 0.950 . S
C787 C785 1.387 . S
C787 C789 1.390 . S
C787 H791 0.950 . S
H788 C784 0.950 . S
C789 C787 1.390 . S
C789 C790 1.387 . S
C789 H792 0.950 . S
C790 C789 1.387 . S
C790 C793 1.387 . S
H791 C787 0.950 . S
H792 C789 0.950 . S
C793 C784 1.390 . S
C793 H786 0.950 . S
C793 C790 1.387 . S
C794 C795 1.387 . S
C794 H798 0.950 . S
C794 C803 1.390 . S
C795 C794 1.387 . S
C795 C797 1.387 . S
H796 C803 0.950 . S
C797 C795 1.387 . S
C797 C799 1.390 . S
C797 H801 0.950 . S
H798 C794 0.950 . S
C799 C797 1.390 . S
C799 C800 1.387 . S
C799 H802 0.950 . S
C800 C799 1.387 . S
C800 C803 1.387 . S
H801 C797 0.950 . S
H802 C799 0.950 . S
C803 C794 1.390 . S
C803 H796 0.950 . S
C803 C800 1.387 . S
C804 C805 1.387 . S
C804 H808 0.950 . S
C804 C813 1.390 . S
C805 C804 1.387 . S
C805 C807 1.387 . S
H806 C813 0.950 . S
C807 C805 1.387 . S
C807 C809 1.390 . S
C807 H811 0.950 . S
H808 C804 0.950 . S
C809 C807 1.390 . S
C809 C810 1.387 . S
C809 H812 0.950 . S
C810 C809 1.387 . S
C810 C813 1.387 . S
H811 C807 0.950 . S
H812 C809 0.950 . S
C813 C804 1.390 . S
C813 H806 0.950 . S
C813 C810 1.387 . S
C814 C815 1.387 . S
C814 H818 0.950 . S
C814 C823 1.390 . S
C815 C814 1.387 . S
C815 C817 1.387 . S
H816 C823 0.950 . S
C817 C815 1.387 . S
C817 C819 1.390 . S
C817 H821 0.950 . S
H818 C814 0.950 . S
C819 C817 1.390 . S
C819 C820 1.387 . S
C819 H822 0.950 1_554 S
C820 C819 1.387 . S
C820 C823 1.387 . S
H821 C817 0.950 . S
H822 C819 0.950 1_556 S
C823 C814 1.390 . S
C823 H816 0.950 . S
C823 C820 1.387 . S
C824 C825 1.387 . S
C824 H828 0.950 . S
C824 C833 1.390 . S
C825 C824 1.387 . S
C825 C827 1.387 . S
H826 C833 0.950 . S
C827 C825 1.387 . S
C827 C829 1.390 . S
C827 H831 0.950 . S
H828 C824 0.950 . S
C829 C827 1.390 . S
C829 C830 1.387 . S
C829 H832 0.950 . S
C830 C829 1.387 . S
C830 C833 1.387 . S
H831 C827 0.950 . S
H832 C829 0.950 . S
C833 C824 1.390 . S
C833 H826 0.950 . S
C833 C830 1.387 . S
C834 C835 1.387 1_554 S
C834 H838 0.950 . S
C834 C843 1.390 . S
C835 C834 1.387 1_556 S
C835 C837 1.387 . S
H836 C843 0.950 . S
C837 C835 1.387 . S
C837 C839 1.390 1_556 S
C837 H841 0.950 . S
H838 C834 0.950 . S
C839 C837 1.390 1_554 S
C839 C840 1.387 . S
C839 H842 0.950 . S
C840 C839 1.387 . S
C840 C843 1.387 . S
H841 C837 0.950 . S
H842 C839 0.950 . S
C843 C834 1.390 . S
C843 H836 0.950 . S
C843 C840 1.387 . S
C844 C845 1.387 . S
C844 H848 0.950 . S
C844 C853 1.390 1_556 S
C845 C844 1.387 . S
C845 C847 1.387 1_556 S
H846 C853 0.950 1_556 S
C847 C845 1.387 1_554 S
C847 C849 1.390 . S
C847 H851 0.950 . S
H848 C844 0.950 . S
C849 C847 1.390 . S
C849 C850 1.387 . S
C849 H852 0.950 . S
C850 C849 1.387 . S
C850 C853 1.387 . S
H851 C847 0.950 . S
H852 C849 0.950 . S
C853 C844 1.390 1_554 S
C853 H846 0.950 1_554 S
C853 C850 1.387 . S
C854 C855 1.387 1_554 S
C854 H858 0.950 . S
C854 C863 1.390 . S
C855 C854 1.387 1_556 S
C855 C857 1.387 . S
H856 C863 0.950 . S
C857 C855 1.387 . S
C857 C859 1.390 1_556 S
C857 H861 0.950 . S
H858 C854 0.950 . S
C859 C857 1.390 1_554 S
C859 C860 1.387 . S
C859 H862 0.950 1_554 S
C860 C859 1.387 . S
C860 C863 1.387 . S
H861 C857 0.950 . S
H862 C859 0.950 1_556 S
C863 C854 1.390 . S
C863 H856 0.950 . S
C863 C860 1.387 . S
C864 C865 1.387 . S
C864 H868 0.950 . S
C864 C873 1.390 . S
C865 C864 1.387 . S
C865 C867 1.387 . S
H866 C873 0.950 . S
C867 C865 1.387 . S
C867 C869 1.390 . S
C867 H871 0.950 . S
H868 C864 0.950 . S
C869 C867 1.390 . S
C869 C870 1.387 . S
C869 H872 0.950 . S
C870 C869 1.387 . S
C870 C873 1.387 . S
H871 C867 0.950 . S
H872 C869 0.950 . S
C873 C864 1.390 . S
C873 H866 0.950 . S
C873 C870 1.387 . S
C874 C875 1.387 . S
C874 H878 0.950 . S
C874 C883 1.390 . S
C875 C874 1.387 . S
C875 C877 1.387 . S
H876 C883 0.950 . S
C877 C875 1.387 . S
C877 C879 1.390 . S
C877 H881 0.950 . S
H878 C874 0.950 . S
C879 C877 1.390 . S
C879 C880 1.387 . S
C879 H882 0.950 . S
C880 C879 1.387 . S
C880 C883 1.387 . S
H881 C877 0.950 . S
H882 C879 0.950 . S
C883 C874 1.390 . S
C883 H876 0.950 . S
C883 C880 1.387 . S
C884 C885 1.387 . S
C884 H888 0.950 . S
C884 C893 1.390 . S
C885 C884 1.387 . S
C885 C887 1.387 . S
H886 C893 0.950 . S
C887 C885 1.387 . S
C887 C889 1.390 . S
C887 H891 0.950 . S
H888 C884 0.950 . S
C889 C887 1.390 . S
C889 C890 1.387 . S
C889 H892 0.950 . S
C890 C889 1.387 . S
C890 C893 1.387 . S
H891 C887 0.950 . S
H892 C889 0.950 . S
C893 C884 1.390 . S
C893 H886 0.950 . S
C893 C890 1.387 . S
C894 C895 1.387 . S
C894 H898 0.950 . S
C894 C903 1.390 . S
C895 C894 1.387 . S
C895 C897 1.387 . S
H896 C903 0.950 . S
C897 C895 1.387 . S
C897 C899 1.390 . S
C897 H901 0.950 . S
H898 C894 0.950 . S
C899 C897 1.390 . S
C899 C900 1.387 . S
C899 H902 0.950 . S
C900 C899 1.387 . S
C900 C903 1.387 . S
H901 C897 0.950 . S
H902 C899 0.950 . S
C903 C894 1.390 . S
C903 H896 0.950 . S
C903 C900 1.387 . S
C904 C905 1.387 . S
C904 H908 0.950 . S
C904 C913 1.390 . S
C905 C904 1.387 . S
C905 C907 1.387 . S
H906 C913 0.950 . S
C907 C905 1.387 . S
C907 C909 1.390 . S
C907 H911 0.950 . S
H908 C904 0.950 . S
C909 C907 1.390 . S
C909 C910 1.387 . S
C909 H912 0.950 . S
C910 C909 1.387 . S
C910 C913 1.387 . S
H911 C907 0.950 . S
H912 C909 0.950 . S
C913 C904 1.390 . S
C913 H906 0.950 . S
C913 C910 1.387 . S
C914 C915 1.387 . S
C914 H918 0.950 . S
C914 C923 1.390 . S
C915 C914 1.387 . S
C915 C917 1.387 . S
H916 C923 0.950 . S
C917 C915 1.387 . S
C917 C919 1.390 . S
C917 H921 0.950 . S
H918 C914 0.950 . S
C919 C917 1.390 . S
C919 C920 1.387 . S
C919 H922 0.950 . S
C920 C919 1.387 . S
C920 C923 1.387 . S
H921 C917 0.950 . S
H922 C919 0.950 . S
C923 C914 1.390 . S
C923 H916 0.950 . S
C923 C920 1.387 . S
C924 C925 1.387 . S
C924 H928 0.950 . S
C924 C933 1.390 . S
C925 C924 1.387 . S
C925 C927 1.387 . S
H926 C933 0.950 . S
C927 C925 1.387 . S
C927 C929 1.390 . S
C927 H931 0.950 . S
H928 C924 0.950 . S
C929 C927 1.390 . S
C929 C930 1.387 . S
C929 H932 0.950 . S
C930 C929 1.387 . S
C930 C933 1.387 . S
H931 C927 0.950 . S
H932 C929 0.950 . S
C933 C924 1.390 . S
C933 H926 0.950 . S
C933 C930 1.387 . S
C934 C935 1.387 . S
C934 H938 0.950 . S
C934 C943 1.390 . S
C935 C934 1.387 . S
C935 C937 1.387 . S
H936 C943 0.950 . S
C937 C935 1.387 . S
C937 C939 1.390 . S
C937 H941 0.950 . S
H938 C934 0.950 . S
C939 C937 1.390 . S
C939 C940 1.387 . S
C939 H942 0.950 . S
C940 C939 1.387 . S
C940 C943 1.387 . S
H941 C937 0.950 . S
H942 C939 0.950 . S
C943 C934 1.390 . S
C943 H936 0.950 . S
C943 C940 1.387 . S
C944 C945 1.387 . S
C944 H948 0.950 . S
C944 C953 1.390 . S
C945 C944 1.387 . S
C945 C947 1.387 . S
H946 C953 0.950 . S
C947 C945 1.387 . S
C947 C949 1.390 . S
C947 H951 0.950 . S
H948 C944 0.950 . S
C949 C947 1.390 . S
C949 C950 1.387 . S
C949 H952 0.950 . S
C950 C949 1.387 . S
C950 C953 1.387 . S
H951 C947 0.950 . S
H952 C949 0.950 . S
C953 C944 1.390 . S
C953 H946 0.950 . S
C953 C950 1.387 . S
C954 C955 1.387 . S
C954 H958 0.950 . S
C954 C963 1.390 . S
C955 C954 1.387 . S
C955 C957 1.387 . S
H956 C963 0.950 . S
C957 C955 1.387 . S
C957 C959 1.390 . S
C957 H961 0.950 . S
H958 C954 0.950 . S
C959 C957 1.390 . S
C959 C960 1.387 . S
C959 H962 0.950 . S
C960 C959 1.387 . S
C960 C963 1.387 . S
H961 C957 0.950 . S
H962 C959 0.950 . S
C963 C954 1.390 . S
C963 H956 0.950 . S
C963 C960 1.387 . S
C964 C965 1.387 . S
C964 H968 0.950 . S
C964 C973 1.390 . S
C965 C964 1.387 . S
C965 C967 1.387 . S
H966 C973 0.950 . S
C967 C965 1.387 . S
C967 C969 1.390 . S
C967 H971 0.950 . S
H968 C964 0.950 . S
C969 C967 1.390 . S
C969 C970 1.387 . S
C969 H972 0.950 . S
C970 C969 1.387 . S
C970 C973 1.387 . S
H971 C967 0.950 . S
H972 C969 0.950 . S
C973 C964 1.390 . S
C973 H966 0.950 . S
C973 C970 1.387 . S
C974 C975 1.387 . S
C974 H978 0.950 . S
C974 C983 1.390 . S
C975 C974 1.387 . S
C975 C977 1.387 . S
H976 C983 0.950 . S
C977 C975 1.387 . S
C977 C979 1.390 . S
C977 H981 0.950 . S
H978 C974 0.950 . S
C979 C977 1.390 . S
C979 C980 1.387 . S
C979 H982 0.950 . S
C980 C979 1.387 . S
C980 C983 1.387 . S
H981 C977 0.950 . S
H982 C979 0.950 . S
C983 C974 1.390 . S
C983 H976 0.950 . S
C983 C980 1.387 . S
C984 C985 1.387 . S
C984 H988 0.950 . S
C984 C993 1.390 . S
C985 C984 1.387 . S
C985 C987 1.387 . S
H986 C993 0.950 . S
C987 C985 1.387 . S
C987 C989 1.390 . S
C987 H991 0.950 . S
H988 C984 0.950 . S
C989 C987 1.390 . S
C989 C990 1.387 . S
C989 H992 0.950 1_556 S
C990 C989 1.387 . S
C990 C993 1.387 . S
H991 C987 0.950 . S
H992 C989 0.950 1_554 S
C993 C984 1.390 . S
C993 H986 0.950 . S
C993 C990 1.387 . S
C994 C995 1.387 . S
C994 H998 0.950 . S
C994 C1003 1.390 . S
C995 C994 1.387 . S
C995 C997 1.387 . S
H996 C1003 0.950 . S
C997 C995 1.387 . S
C997 C999 1.390 . S
C997 H1001 0.950 1_556 S
H998 C994 0.950 . S
C999 C997 1.390 . S
C999 C1000 1.387 . S
C999 H1002 0.950 . S
C1000 C999 1.387 . S
C1000 C1003 1.387 . S
H1001 C997 0.950 1_554 S
H1002 C999 0.950 . S
C1003 C994 1.390 . S
C1003 H996 0.950 . S
C1003 C1000 1.387 . S
C1004 C1005 1.387 . S
C1004 H1008 0.950 . S
C1004 C1013 1.390 . S
C1005 C1004 1.387 . S
C1005 C1007 1.387 . S
H1006 C1013 0.950 . S
C1007 C1005 1.387 . S
C1007 C1009 1.390 . S
C1007 H1011 0.950 . S
H1008 C1004 0.950 . S
C1009 C1007 1.390 . S
C1009 C1010 1.387 . S
C1009 H1012 0.950 . S
C1010 C1009 1.387 . S
C1010 C1013 1.387 . S
H1011 C1007 0.950 . S
H1012 C1009 0.950 . S
C1013 C1004 1.390 . S
C1013 H1006 0.950 . S
C1013 C1010 1.387 . S
C1014 C1015 1.387 . S
C1014 H1018 0.950 . S
C1014 C1023 1.390 . S
C1015 C1014 1.387 . S
C1015 C1017 1.387 . S
H1016 C1023 0.950 . S
C1017 C1015 1.387 . S
C1017 C1019 1.390 1_556 S
C1017 H1021 0.950 . S
H1018 C1014 0.950 . S
C1019 C1017 1.390 1_554 S
C1019 C1020 1.387 . S
C1019 H1022 0.950 . S
C1020 C1019 1.387 . S
C1020 C1023 1.387 1_554 S
H1021 C1017 0.950 . S
H1022 C1019 0.950 . S
C1023 C1014 1.390 . S
C1023 H1016 0.950 . S
C1023 C1020 1.387 1_556 S
C1024 C1025 1.387 . S
C1024 H1028 0.950 . S
C1024 C1033 1.390 . S
C1025 C1024 1.387 . S
C1025 C1027 1.387 . S
H1026 C1033 0.950 . S
C1027 C1025 1.387 . S
C1027 C1029 1.390 1_556 S
C1027 H1031 0.950 1_556 S
H1028 C1024 0.950 . S
C1029 C1027 1.390 1_554 S
C1029 C1030 1.387 . S
C1029 H1032 0.950 . S
C1030 C1029 1.387 . S
C1030 C1033 1.387 1_554 S
H1031 C1027 0.950 1_554 S
H1032 C1029 0.950 . S
C1033 C1024 1.390 . S
C1033 H1026 0.950 . S
C1033 C1030 1.387 1_556 S
C1034 C1035 1.387 . S
C1034 H1038 0.950 . S
C1034 C1043 1.390 1_556 S
C1035 C1034 1.387 . S
C1035 C1037 1.387 . S
H1036 C1043 0.950 . S
C1037 C1035 1.387 . S
C1037 C1039 1.390 . S
C1037 H1041 0.950 . S
H1038 C1034 0.950 . S
C1039 C1037 1.390 . S
C1039 C1040 1.387 1_556 S
C1039 H1042 0.950 . S
C1040 C1039 1.387 1_554 S
C1040 C1043 1.387 . S
H1041 C1037 0.950 . S
H1042 C1039 0.950 . S
C1043 C1034 1.390 1_554 S
C1043 H1036 0.950 . S
C1043 C1040 1.387 . S
C1044 C1045 1.387 . S
C1044 H1048 0.950 . S
C1044 C1053 1.390 . S
C1045 C1044 1.387 . S
C1045 C1047 1.387 . S
H1046 C1053 0.950 . S
C1047 C1045 1.387 . S
C1047 C1049 1.390 . S
C1047 H1051 0.950 . S
H1048 C1044 0.950 . S
C1049 C1047 1.390 . S
C1049 C1050 1.387 . S
C1049 H1052 0.950 1_556 S
C1050 C1049 1.387 . S
C1050 C1053 1.387 . S
H1051 C1047 0.950 . S
H1052 C1049 0.950 1_554 S
C1053 C1044 1.390 . S
C1053 H1046 0.950 . S
C1053 C1050 1.387 . S
C1054 C1055 1.387 . S
C1054 H1058 0.950 . S
C1054 C1063 1.390 . S
C1055 C1054 1.387 . S
C1055 C1057 1.387 . S
H1056 C1063 0.950 . S
C1057 C1055 1.387 . S
C1057 C1059 1.390 . S
C1057 H1061 0.950 . S
H1058 C1054 0.950 . S
C1059 C1057 1.390 . S
C1059 C1060 1.387 . S
C1059 H1062 0.950 . S
C1060 C1059 1.387 . S
C1060 C1063 1.387 . S
H1061 C1057 0.950 . S
H1062 C1059 0.950 . S
C1063 C1054 1.390 . S
C1063 H1056 0.950 . S
C1063 C1060 1.387 . S
C1064 C1065 1.387 . S
C1064 H1068 0.950 . S
C1064 C1073 1.390 . S
C1065 C1064 1.387 . S
C1065 C1067 1.387 . S
H1066 C1073 0.950 . S
C1067 C1065 1.387 . S
C1067 C1069 1.390 . S
C1067 H1071 0.950 . S
H1068 C1064 0.950 . S
C1069 C1067 1.390 . S
C1069 C1070 1.387 . S
C1069 H1072 0.950 . S
C1070 C1069 1.387 . S
C1070 C1073 1.387 . S
H1071 C1067 0.950 . S
H1072 C1069 0.950 . S
C1073 C1064 1.390 . S
C1073 H1066 0.950 . S
C1073 C1070 1.387 . S
C1074 C1075 1.387 . S
C1074 H1078 0.950 . S
C1074 C1083 1.390 . S
C1075 C1074 1.387 . S
C1075 C1077 1.387 . S
H1076 C1083 0.950 . S
C1077 C1075 1.387 . S
C1077 C1079 1.390 . S
C1077 H1081 0.950 . S
H1078 C1074 0.950 . S
C1079 C1077 1.390 . S
C1079 C1080 1.387 . S
C1079 H1082 0.950 . S
C1080 C1079 1.387 . S
C1080 C1083 1.387 . S
H1081 C1077 0.950 . S
H1082 C1079 0.950 . S
C1083 C1074 1.390 . S
C1083 H1076 0.950 . S
C1083 C1080 1.387 . S
C1084 C1085 1.387 . S
C1084 H1088 0.950 . S
C1084 C1093 1.390 . S
C1085 C1084 1.387 . S
C1085 C1087 1.387 . S
H1086 C1093 0.950 . S
C1087 C1085 1.387 . S
C1087 C1089 1.390 . S
C1087 H1091 0.950 . S
H1088 C1084 0.950 . S
C1089 C1087 1.390 . S
C1089 C1090 1.387 . S
C1089 H1092 0.950 . S
C1090 C1089 1.387 . S
C1090 C1093 1.387 . S
H1091 C1087 0.950 . S
H1092 C1089 0.950 . S
C1093 C1084 1.390 . S
C1093 H1086 0.950 . S
C1093 C1090 1.387 . S
C1094 C1095 1.387 . S
C1094 H1098 0.950 . S
C1094 C1103 1.390 . S
C1095 C1094 1.387 . S
C1095 C1097 1.387 . S
H1096 C1103 0.950 . S
C1097 C1095 1.387 . S
C1097 C1099 1.390 . S
C1097 H1101 0.950 . S
H1098 C1094 0.950 . S
C1099 C1097 1.390 . S
C1099 C1100 1.387 . S
C1099 H1102 0.950 . S
C1100 C1099 1.387 . S
C1100 C1103 1.387 . S
H1101 C1097 0.950 . S
H1102 C1099 0.950 . S
C1103 C1094 1.390 . S
C1103 H1096 0.950 . S
C1103 C1100 1.387 . S
C1104 C1105 1.387 . S
C1104 H1108 0.950 1_554 S
C1104 C1113 1.390 . S
C1105 C1104 1.387 . S
C1105 C1107 1.387 . S
H1106 C1113 0.950 . S
C1107 C1105 1.387 . S
C1107 C1109 1.390 . S
C1107 H1111 0.950 . S
H1108 C1104 0.950 1_556 S
C1109 C1107 1.390 . S
C1109 C1110 1.387 . S
C1109 H1112 0.950 . S
C1110 C1109 1.387 . S
C1110 C1113 1.387 . S
H1111 C1107 0.950 . S
H1112 C1109 0.950 . S
C1113 C1104 1.390 . S
C1113 H1106 0.950 . S
C1113 C1110 1.387 . S
C1114 C1115 1.387 . S
C1114 H1118 0.950 . S
C1114 C1123 1.390 1_554 S
C1115 C1114 1.387 . S
C1115 C1117 1.387 . S
H1116 C1123 0.950 . S
C1117 C1115 1.387 . S
C1117 C1119 1.390 . S
C1117 H1121 0.950 . S
H1118 C1114 0.950 . S
C1119 C1117 1.390 . S
C1119 C1120 1.387 . S
C1119 H1122 0.950 . S
C1120 C1119 1.387 . S
C1120 C1123 1.387 1_554 S
H1121 C1117 0.950 . S
H1122 C1119 0.950 . S
C1123 C1114 1.390 1_556 S
C1123 H1116 0.950 . S
C1123 C1120 1.387 1_556 S
C1124 C1125 1.387 . S
C1124 H1128 0.950 . S
C1124 C1133 1.390 . S
C1125 C1124 1.387 . S
C1125 C1127 1.387 . S
H1126 C1133 0.950 . S
C1127 C1125 1.387 . S
C1127 C1129 1.390 . S
C1127 H1131 0.950 . S
H1128 C1124 0.950 . S
C1129 C1127 1.390 . S
C1129 C1130 1.387 . S
C1129 H1132 0.950 . S
C1130 C1129 1.387 . S
C1130 C1133 1.387 . S
H1131 C1127 0.950 . S
H1132 C1129 0.950 . S
C1133 C1124 1.390 . S
C1133 H1126 0.950 . S
C1133 C1130 1.387 . S
C1134 C1135 1.387 . S
C1134 H1138 0.950 . S
C1134 C1143 1.390 . S
C1135 C1134 1.387 . S
C1135 C1137 1.387 . S
H1136 C1143 0.950 . S
C1137 C1135 1.387 . S
C1137 C1139 1.390 . S
C1137 H1141 0.950 . S
H1138 C1134 0.950 . S
C1139 C1137 1.390 . S
C1139 C1140 1.387 . S
C1139 H1142 0.950 . S
C1140 C1139 1.387 . S
C1140 C1143 1.387 . S
H1141 C1137 0.950 . S
H1142 C1139 0.950 . S
C1143 C1134 1.390 . S
C1143 H1136 0.950 . S
C1143 C1140 1.387 . S
C1144 C1145 1.387 . S
C1144 H1148 0.950 . S
C1144 C1153 1.390 . S
C1145 C1144 1.387 . S
C1145 C1147 1.387 . S
H1146 C1153 0.950 . S
C1147 C1145 1.387 . S
C1147 C1149 1.390 . S
C1147 H1151 0.950 . S
H1148 C1144 0.950 . S
C1149 C1147 1.390 . S
C1149 C1150 1.387 . S
C1149 H1152 0.950 . S
C1150 C1149 1.387 . S
C1150 C1153 1.387 . S
H1151 C1147 0.950 . S
H1152 C1149 0.950 . S
C1153 C1144 1.390 . S
C1153 H1146 0.950 . S
C1153 C1150 1.387 . S
C1154 C1155 1.387 . S
C1154 H1158 0.950 . S
C1154 C1163 1.390 . S
C1155 C1154 1.387 . S
C1155 C1157 1.387 . S
H1156 C1163 0.950 . S
C1157 C1155 1.387 . S
C1157 C1159 1.390 . S
C1157 H1161 0.950 . S
H1158 C1154 0.950 . S
C1159 C1157 1.390 . S
C1159 C1160 1.387 . S
C1159 H1162 0.950 . S
C1160 C1159 1.387 . S
C1160 C1163 1.387 . S
H1161 C1157 0.950 . S
H1162 C1159 0.950 . S
C1163 C1154 1.390 . S
C1163 H1156 0.950 . S
C1163 C1160 1.387 . S
C1164 C1165 1.387 . S
C1164 H1168 0.950 . S
C1164 C1173 1.390 1_655 S
C1165 C1164 1.387 . S
C1165 C1167 1.387 . S
H1166 C1173 0.950 . S
C1167 C1165 1.387 . S
C1167 C1169 1.390 1_655 S
C1167 H1171 0.950 . S
H1168 C1164 0.950 . S
C1169 C1167 1.390 1_455 S
C1169 C1170 1.387 . S
C1169 H1172 0.950 . S
C1170 C1169 1.387 . S
C1170 C1173 1.387 . S
H1171 C1167 0.950 . S
H1172 C1169 0.950 . S
C1173 C1164 1.390 1_455 S
C1173 H1166 0.950 . S
C1173 C1170 1.387 . S
C1174 C1175 1.387 . S
C1174 H1178 0.950 . S
C1174 C1183 1.390 . S
C1175 C1174 1.387 . S
C1175 C1177 1.387 . S
H1176 C1183 0.950 . S
C1177 C1175 1.387 . S
C1177 C1179 1.390 . S
C1177 H1181 0.950 . S
H1178 C1174 0.950 . S
C1179 C1177 1.390 . S
C1179 C1180 1.387 . S
C1179 H1182 0.950 . S
C1180 C1179 1.387 . S
C1180 C1183 1.387 . S
H1181 C1177 0.950 . S
H1182 C1179 0.950 . S
C1183 C1174 1.390 . S
C1183 H1176 0.950 . S
C1183 C1180 1.387 . S
C1184 C1185 1.387 . S
C1184 H1188 0.950 . S
C1184 C1193 1.390 1_565 S
C1185 C1184 1.387 . S
C1185 C1187 1.387 . S
H1186 C1193 0.950 . S
C1187 C1185 1.387 . S
C1187 C1189 1.390 1_565 S
C1187 H1191 0.950 . S
H1188 C1184 0.950 . S
C1189 C1187 1.390 1_545 S
C1189 C1190 1.387 . S
C1189 H1192 0.950 . S
C1190 C1189 1.387 . S
C1190 C1193 1.387 . S
H1191 C1187 0.950 . S
H1192 C1189 0.950 . S
C1193 C1184 1.390 1_545 S
C1193 H1186 0.950 . S
C1193 C1190 1.387 . S
C1194 C1195 1.387 . S
C1194 H1198 0.950 . S
C1194 C1203 1.390 1_545 S
C1195 C1194 1.387 . S
C1195 C1197 1.387 . S
H1196 C1203 0.950 . S
C1197 C1195 1.387 . S
C1197 C1199 1.390 1_545 S
C1197 H1201 0.950 . S
H1198 C1194 0.950 . S
C1199 C1197 1.390 1_565 S
C1199 C1200 1.387 . S
C1199 H1202 0.950 . S
C1200 C1199 1.387 . S
C1200 C1203 1.387 . S
H1201 C1197 0.950 . S
H1202 C1199 0.950 . S
C1203 C1194 1.390 1_565 S
C1203 H1196 0.950 . S
C1203 C1200 1.387 . S
C1204 C1205 1.387 . S
C1204 H1208 0.950 . S
C1204 C1213 1.390 1_455 S
C1205 C1204 1.387 . S
C1205 C1207 1.387 . S
H1206 C1213 0.950 . S
C1207 C1205 1.387 . S
C1207 C1209 1.390 1_455 S
C1207 H1211 0.950 . S
H1208 C1204 0.950 . S
C1209 C1207 1.390 1_655 S
C1209 C1210 1.387 . S
C1209 H1212 0.950 . S
C1210 C1209 1.387 . S
C1210 C1213 1.387 . S
H1211 C1207 0.950 . S
H1212 C1209 0.950 . S
C1213 C1204 1.390 1_655 S
C1213 H1206 0.950 . S
C1213 C1210 1.387 . S
C1214 C1215 1.387 . S
C1214 H1218 0.950 . S
C1214 C1223 1.390 . S
C1215 C1214 1.387 . S
C1215 C1217 1.387 . S
H1216 C1223 0.950 . S
C1217 C1215 1.387 . S
C1217 C1219 1.390 . S
C1217 H1221 0.950 . S
H1218 C1214 0.950 . S
C1219 C1217 1.390 . S
C1219 C1220 1.387 . S
C1219 H1222 0.950 . S
C1220 C1219 1.387 . S
C1220 C1223 1.387 . S
H1221 C1217 0.950 . S
H1222 C1219 0.950 . S
C1223 C1214 1.390 . S
C1223 H1216 0.950 . S
C1223 C1220 1.387 . S
C505 C78 1.348 . S
C510 C8 1.348 . S
C515 C22 1.348 . S
C520 C50 1.348 . S
C525 C64 1.349 . S
C530 C36 1.348 . S
C535 C92 1.351 . S
C540 C162 1.351 . S
C545 C106 1.348 . S
C550 C134 1.348 . S
C555 C148 1.351 . S
C560 C120 1.351 . S
C565 C246 1.351 . S
C570 C176 1.351 . S
C575 C190 1.350 . S
C580 C218 1.350 . S
C585 C232 1.348 . S
C590 C204 1.348 . S
C595 C260 1.351 . S
C600 C330 1.351 1_554 S
C605 C274 1.350 . S
C610 C302 1.350 1_554 S
C615 C288 1.348 . S
C620 C316 1.349 1_554 S
C625 C344 1.351 . S
C630 C414 1.351 1_556 S
C635 C386 1.349 1_556 S
C640 C358 1.349 . S
C645 C372 1.348 . S
C650 C400 1.349 1_556 S
C655 C428 1.351 . S
C660 C498 1.351 . S
C665 C442 1.350 . S
C670 C470 1.350 . S
C675 C456 1.350 . S
C680 C484 1.350 . S
C685 C147 1.348 . S
C690 C9 1.320 . S
C695 C161 1.350 . S
C700 C23 1.317 . S
C705 C133 1.352 . S
C710 C37 1.320 . S
C715 C119 1.351 . S
C720 C51 1.320 . S
C725 C65 1.318 . S
C730 C91 1.352 . S
C735 C79 1.321 . S
C740 C105 1.351 . S
C745 C93 1.318 . S
C750 C63 1.352 . S
C755 C107 1.317 . S
C760 C77 1.350 . S
C765 C121 1.318 . S
C770 C49 1.349 . S
C775 C35 1.352 . S
C780 C135 1.318 . S
C785 C7 1.351 . S
C790 C149 1.321 . S
C795 C163 1.317 . S
C800 C21 1.351 . S
C805 C177 1.317 . S
C810 C315 1.349 . S
C815 C191 1.321 . S
C820 C329 1.349 . S
C825 C301 1.352 . S
C830 C205 1.320 . S
C835 C219 1.319 . S
C840 C287 1.351 . S
C845 C233 1.321 . S
C850 C259 1.350 . S
C855 C247 1.317 . S
C860 C273 1.351 . S
C865 C261 1.317 . S
C870 C231 1.350 . S
C875 C245 1.351 . S
C880 C275 1.321 . S
C885 C217 1.349 . S
C890 C289 1.319 . S
C895 C303 1.320 . S
C900 C203 1.351 . S
C905 C175 1.350 . S
C910 C317 1.317 . S
C915 C189 1.352 . S
C920 C331 1.318 . S
C925 C483 1.350 . S
C930 C345 1.321 . S
C935 C359 1.321 . S
C940 C497 1.349 . S
C945 C373 1.320 . S
C950 C469 1.352 . S
C955 C455 1.348 . S
C960 C387 1.318 . S
C965 C427 1.350 . S
C970 C401 1.321 . S
C975 C441 1.351 . S
C980 C415 1.317 . S
C985 C429 1.318 . S
C990 C399 1.352 . S
C995 C413 1.351 . S
C1000 C443 1.317 . S
C1005 C457 1.320 . S
C1010 C385 1.352 . S
C1015 C371 1.348 . S
C1020 C471 1.318 . S
C1025 C343 1.349 . S
C1030 C485 1.320 . S
C1035 C357 1.352 . S
C1040 C499 1.320 . S
C1045 C227 1.445 . S
C1050 C3 1.446 . S
C1055 C17 1.445 . S
C1060 C241 1.445 . S
C1065 C213 1.446 . S
C1070 C31 1.446 . S
C1075 C367 1.445 . S
C1080 C45 1.445 . S
C1085 C59 1.445 . S
C1090 C339 1.445 . S
C1095 C73 1.446 . S
C1100 C353 1.445 . S
C1105 C87 1.446 . S
C1110 C479 1.445 . S
C1115 C493 1.445 . S
C1120 C101 1.446 . S
C1125 C465 1.446 . S
C1130 C115 1.446 . S
C1135 C283 1.446 . S
C1140 C129 1.446 . S
C1145 C143 1.445 . S
C1150 C255 1.445 . S
C1155 C157 1.444 . S
C1160 C269 1.446 . S
C1165 C171 1.444 . S
C1170 C395 1.446 . S
C1175 C409 1.444 . S
C1180 C185 1.445 . S
C1185 C381 1.445 . S
C1190 C199 1.445 . S
C1195 C297 1.445 . S
C1200 C451 1.445 . S
C1205 C423 1.444 . S
C1210 C311 1.446 . S
C1215 C437 1.445 . S
C1220 C325 1.446 . S
