# Generated by pormake.
# Topology umy, (4)-cn, num edge types: 1
# Building blocks:
#     Node 0, Type 0, BuildingBlock: NAHDIM_clean_sbu_0, # of connection points: 4
#     Node 1, Type 0, BuildingBlock: NAHDIM_clean_sbu_0, # of connection points: 4
#     Node 2, Type 0, BuildingBlock: NAHDIM_clean_sbu_0, # of connection points: 4
#     Node 3, Type 0, BuildingBlock: NAHDIM_clean_sbu_0, # of connection points: 4
#     Node 4, Type 0, BuildingBlock: NAHDIM_clean_sbu_0, # of connection points: 4
#     Node 5, Type 0, BuildingBlock: NAHDIM_clean_sbu_0, # of connection points: 4
#     Node 6, Type 0, BuildingBlock: NAHDIM_clean_sbu_0, # of connection points: 4
#     Node 7, Type 0, BuildingBlock: NAHDIM_clean_sbu_0, # of connection points: 4
#     Node 8, Type 0, BuildingBlock: NAHDIM_clean_sbu_0, # of connection points: 4
#     Node 9, Type 0, BuildingBlock: NAHDIM_clean_sbu_0, # of connection points: 4
#     Node 10, Type 0, BuildingBlock: NAHDIM_clean_sbu_0, # of connection points: 4
#     Node 11, Type 0, BuildingBlock: NAHDIM_clean_sbu_0, # of connection points: 4
#     Edge 12, Type (0, 0), BuildingBlock: MIFKUJ_clean_linker_0, # of connection points: 2
#     Edge 13, Type (0, 0), BuildingBlock: MIFKUJ_clean_linker_0, # of connection points: 2
#     Edge 14, Type (0, 0), BuildingBlock: MIFKUJ_clean_linker_0, # of connection points: 2
#     Edge 15, Type (0, 0), BuildingBlock: MIFKUJ_clean_linker_0, # of connection points: 2
#     Edge 16, Type (0, 0), BuildingBlock: MIFKUJ_clean_linker_0, # of connection points: 2
#     Edge 17, Type (0, 0), BuildingBlock: MIFKUJ_clean_linker_0, # of connection points: 2
#     Edge 18, Type (0, 0), BuildingBlock: MIFKUJ_clean_linker_0, # of connection points: 2
#     Edge 19, Type (0, 0), BuildingBlock: MIFKUJ_clean_linker_0, # of connection points: 2
#     Edge 20, Type (0, 0), BuildingBlock: MIFKUJ_clean_linker_0, # of connection points: 2
#     Edge 21, Type (0, 0), BuildingBlock: MIFKUJ_clean_linker_0, # of connection points: 2
#     Edge 22, Type (0, 0), BuildingBlock: MIFKUJ_clean_linker_0, # of connection points: 2
#     Edge 23, Type (0, 0), BuildingBlock: MIFKUJ_clean_linker_0, # of connection points: 2
#     Edge 24, Type (0, 0), BuildingBlock: MIFKUJ_clean_linker_0, # of connection points: 2
#     Edge 25, Type (0, 0), BuildingBlock: MIFKUJ_clean_linker_0, # of connection points: 2
#     Edge 26, Type (0, 0), BuildingBlock: MIFKUJ_clean_linker_0, # of connection points: 2
#     Edge 27, Type (0, 0), BuildingBlock: MIFKUJ_clean_linker_0, # of connection points: 2
#     Edge 28, Type (0, 0), BuildingBlock: MIFKUJ_clean_linker_0, # of connection points: 2
#     Edge 29, Type (0, 0), BuildingBlock: MIFKUJ_clean_linker_0, # of connection points: 2
#     Edge 30, Type (0, 0), BuildingBlock: MIFKUJ_clean_linker_0, # of connection points: 2
#     Edge 31, Type (0, 0), BuildingBlock: MIFKUJ_clean_linker_0, # of connection points: 2
#     Edge 32, Type (0, 0), BuildingBlock: MIFKUJ_clean_linker_0, # of connection points: 2
#     Edge 33, Type (0, 0), BuildingBlock: MIFKUJ_clean_linker_0, # of connection points: 2
#     Edge 34, Type (0, 0), BuildingBlock: MIFKUJ_clean_linker_0, # of connection points: 2
#     Edge 35, Type (0, 0), BuildingBlock: MIFKUJ_clean_linker_0, # of connection points: 2
# Relax obj value: 0.158
# Max RMSD: 0.142
# Mean RMSD: 0.142
data_MOF--net-umy--node1-NAHDIM_clean_sbu_0--edge1-MIFKUJ_clean_linker_0
_symmetry_space_group_name_H-M    P1
_symmetry_Int_Tables_number       1
_symmetry_cell_setting            triclinic
loop_
_symmetry_equiv_pos_as_xyz
'x, y, z'
_cell_length_a     50.087004
_cell_length_b     50.108873
_cell_length_c     62.838727
_cell_angle_alpha  89.96265
_cell_angle_beta   90.007465
_cell_angle_gamma 120.01612
loop_
_atom_site_label
_atom_site_type_symbol
_atom_site_fract_x
_atom_site_fract_y
_atom_site_fract_z
_atom_type_partial_charge
C0 C 0.0218 0.38546 0.10749 0.0
O1 O 0.00905 0.36997 0.12502 0.0
O2 O 0.98884 0.30021 0.10262 0.0
Zn3 Zn 0.03239 0.3351 0.1002 0.0
O4 O 0.05568 0.32739 0.07737 0.0
C5 C 0.0549 0.31504 0.13476 0.0
O6 O 0.0447 0.29081 0.12235 0.0
O7 O 0.03316 0.37472 0.09425 0.0
C8 C 0.0848 0.34461 0.07724 0.0
O9 O 0.0978 0.36653 0.09157 0.0
C10 C 0.98119 0.27282 0.09737 0.0
O11 O 0.00146 0.26758 0.08783 0.0
O12 O 0.05271 0.33801 0.12852 0.0
C13 C 0.67592 0.05025 0.27213 0.0
O14 O 0.68708 0.04144 0.25644 0.0
O15 O 0.72356 0.01793 0.29437 0.0
Zn16 Zn 0.73206 0.06161 0.29139 0.0
O17 O 0.75685 0.08193 0.26504 0.0
C18 C 0.77101 0.07862 0.32868 0.0
O19 O 0.77296 0.05437 0.32322 0.0
O20 O 0.69142 0.06018 0.28919 0.0
C21 C 0.78596 0.09372 0.26452 0.0
O22 O 0.8005 0.09258 0.2816 0.0
C23 C 0.74042 0.0079 0.2868 0.0
O24 O 0.76479 0.02632 0.27545 0.0
O25 O 0.7548 0.08627 0.31742 0.0
C26 C 0.57913 0.66933 0.42508 0.0
O27 O 0.58691 0.69543 0.41534 0.0
O28 O 0.66825 0.68941 0.45197 0.0
Zn29 Zn 0.63908 0.7046 0.44494 0.0
O30 O 0.65383 0.7346 0.42059 0.0
C31 C 0.63567 0.71385 0.4893 0.0
O32 O 0.63697 0.68832 0.48997 0.0
O33 O 0.59775 0.66814 0.43825 0.0
C34 C 0.6812 0.75712 0.41916 0.0
O35 O 0.70143 0.76118 0.43395 0.0
C36 C 0.69092 0.69094 0.44186 0.0
O37 O 0.6982 0.70381 0.42295 0.0
O38 O 0.63563 0.72546 0.4713 0.0
C39 C 0.9375 0.60823 0.59258 0.0
O40 O 0.94035 0.62607 0.57639 0.0
O41 O 0.97136 0.68884 0.61972 0.0
Zn42 Zn 0.92903 0.65274 0.61605 0.0
O43 O 0.90674 0.65947 0.59199 0.0
C44 C 0.92047 0.64985 0.66097 0.0
O45 O 0.94868 0.65441 0.66037 0.0
O46 O 0.93227 0.61504 0.61099 0.0
C47 C 0.87754 0.64309 0.59139 0.0
O48 O 0.86326 0.62249 0.6064 0.0
C49 C 0.97628 0.71626 0.62052 0.0
O50 O 0.95341 0.72139 0.61686 0.0
O51 O 0.9066 0.64781 0.64358 0.0
C52 C 0.33831 0.95957 0.78069 0.0
O53 O 0.33833 0.97413 0.79808 0.0
O54 O 0.29243 0.99587 0.78311 0.0
Zn55 Zn 0.27826 0.9512 0.77845 0.0
O56 O 0.24453 0.93242 0.75673 0.0
C57 C 0.24697 0.93583 0.81874 0.0
O58 O 0.23981 0.9565 0.81253 0.0
O59 O 0.31435 0.94731 0.76908 0.0
C60 C 0.23102 0.90337 0.75445 0.0
O61 O 0.23986 0.88747 0.76619 0.0
C62 C 0.277 0.00903 0.7788 0.0
O63 O 0.25 0.99323 0.76952 0.0
O64 O 0.26306 0.9292 0.80654 0.0
C65 C 0.39023 0.33817 0.94314 0.0
O66 O 0.36465 0.33087 0.93283 0.0
O67 O 0.31778 0.29174 0.97092 0.0
Zn68 Zn 0.35018 0.28109 0.96324 0.0
O69 O 0.33837 0.25467 0.93708 0.0
C70 C 0.33727 0.22961 0.98997 0.0
O71 O 0.31525 0.21505 0.9759 0.0
O72 O 0.38985 0.32005 0.95744 0.0
C73 C 0.3562 0.24484 0.93131 0.0
O74 O 0.3812 0.25256 0.94249 0.0
C75 C 0.29028 0.2772 0.96399 0.0
O76 O 0.28214 0.25404 0.95082 0.0
O77 O 0.35551 0.25841 0.98783 0.0
C78 C 0.60739 0.94185 0.72544 0.0
O79 O 0.63243 0.9568 0.73705 0.0
O80 O 0.67894 0.96973 0.69471 0.0
Zn81 Zn 0.64724 0.92688 0.70353 0.0
O82 O 0.65973 0.91385 0.73019 0.0
C83 C 0.63942 0.87217 0.68098 0.0
O84 O 0.64002 0.86169 0.70003 0.0
O85 O 0.60778 0.92653 0.70947 0.0
C86 C 0.68458 0.91308 0.73204 0.0
O87 O 0.70372 0.92143 0.71585 0.0
C88 C 0.70041 0.98987 0.70624 0.0
O89 O 0.70337 0.98323 0.72601 0.0
O90 O 0.64153 0.89842 0.67909 0.0
C91 C 0.68061 0.60602 0.89336 0.0
O92 O 0.70564 0.60718 0.90091 0.0
O93 O 0.72432 0.70151 0.86808 0.0
Zn94 Zn 0.72584 0.6641 0.87741 0.0
O95 O 0.75009 0.67258 0.90443 0.0
C96 C 0.77343 0.65754 0.85517 0.0
O97 O 0.78863 0.66709 0.87318 0.0
O98 O 0.68321 0.62836 0.88221 0.0
C99 C 0.76917 0.69944 0.91107 0.0
O100 O 0.77332 0.72355 0.9001 0.0
C101 C 0.70839 0.71188 0.87664 0.0
O102 O 0.69088 0.69749 0.89311 0.0
O103 O 0.74649 0.65394 0.85379 0.0
C104 C 0.05942 0.68495 0.06813 0.0
O105 O 0.0509 0.69858 0.08223 0.0
O106 O 0.03635 0.73516 0.0342 0.0
Zn107 Zn 0.0762 0.74042 0.0454 0.0
O108 O 0.08919 0.76501 0.07252 0.0
C109 C 0.10938 0.78749 0.01547 0.0
O110 O 0.0913 0.79668 0.02381 0.0
O111 O 0.07141 0.6987 0.05074 0.0
C112 C 0.08101 0.78423 0.07812 0.0
O113 O 0.06259 0.78892 0.06576 0.0
C114 C 0.01133 0.72619 0.04431 0.0
O115 O 0.00981 0.7193 0.06461 0.0
O116 O 0.10801 0.76308 0.02262 0.0
C117 C 0.39234 0.0527 0.24604 0.0
O118 O 0.37857 0.05724 0.26228 0.0
O119 O 0.30789 0.01961 0.21985 0.0
Zn120 Zn 0.34758 0.05993 0.22133 0.0
O121 O 0.34481 0.08698 0.24399 0.0
C122 C 0.34422 0.06581 0.17553 0.0
O123 O 0.32904 0.03554 0.17606 0.0
O124 O 0.38275 0.05263 0.22732 0.0
C125 C 0.34163 0.10973 0.23873 0.0
O126 O 0.34002 0.11522 0.21847 0.0
C127 C 0.28302 0.01956 0.21574 0.0
O128 O 0.2837 0.04602 0.21398 0.0
O129 O 0.35481 0.08078 0.19274 0.0
C130 C 0.29673 0.38705 0.38641 0.0
O131 O 0.28932 0.36437 0.39991 0.0
O132 O 0.26243 0.31278 0.3556 0.0
Zn133 Zn 0.24505 0.33932 0.36507 0.0
O134 O 0.22125 0.324 0.39235 0.0
C135 C 0.20076 0.31494 0.33157 0.0
O136 O 0.20075 0.28968 0.33722 0.0
O137 O 0.28046 0.3821 0.3698 0.0
C138 C 0.20447 0.29582 0.39745 0.0
O139 O 0.20143 0.27428 0.38414 0.0
C140 C 0.27186 0.29869 0.36752 0.0
O141 O 0.27036 0.30055 0.38829 0.0
O142 O 0.21779 0.33976 0.34167 0.0
C143 C 0.96127 0.33554 0.573 0.0
O144 O 0.96103 0.32066 0.59029 0.0
O145 O -0.00271 0.28551 0.55069 0.0
Zn146 Zn 0.95554 0.28172 0.55236 0.0
O147 O 0.93116 0.25515 0.57696 0.0
C148 C 0.93059 0.23687 0.51886 0.0
O149 O 0.94235 0.22362 0.53062 0.0
O150 O 0.95961 0.32345 0.55494 0.0
C151 C 0.90199 0.24263 0.57628 0.0
O152 O 0.88909 0.24774 0.55975 0.0
C153 C 0.00272 0.26484 0.55756 0.0
O154 O 0.98103 0.241 0.56785 0.0
O155 O 0.93318 0.26222 0.52501 0.0
H156 H 0.07703 0.65148 0.04341 0.0
H157 H 0.06883 0.59996 0.05048 0.0
H158 H 0.02252 0.59631 0.10923 0.0
H159 H 0.03114 0.64807 0.10249 0.0
H160 H 0.0618 0.57573 0.11494 0.0
H161 H 0.9818 0.55686 0.06514 0.0
H162 H 0.95988 0.56369 0.03182 0.0
H163 H 0.01397 0.53517 0.9956 0.0
H164 H 0.03654 0.52858 0.0287 0.0
H165 H -0.00012 0.41514 0.13233 0.0
H166 H 0.00447 0.46541 0.12586 0.0
H167 H 0.05307 0.47403 0.06728 0.0
H168 H 0.04821 0.42368 0.07343 0.0
H169 H 0.01065 0.49143 0.06211 0.0
H170 H 0.09172 0.51191 0.11205 0.0
H171 H 0.11342 0.50502 0.14547 0.0
H172 H 0.05666 0.53033 0.18154 0.0
H173 H 0.03432 0.53697 0.14833 0.0
C174 C 0.06509 0.63973 0.05784 0.0
C175 C 0.05466 0.65383 0.07236 0.0
C176 C 0.06029 0.61022 0.0618 0.0
C177 C 0.04469 0.59414 0.08025 0.0
C178 C 0.03455 0.60829 0.09488 0.0
C179 C 0.03945 0.63785 0.09097 0.0
C180 C 0.0393 0.5627 0.08441 0.0
C181 C 0.0502 0.55717 0.10353 0.0
C182 C 0.02469 0.53866 0.06933 0.0
C183 C 0.01107 0.5425 0.0494 0.0
C184 C 0.9892 0.55228 0.05006 0.0
C185 C 0.97663 0.55606 0.03121 0.0
C186 C 0.98558 0.54994 0.0116 0.0
C187 C 0.00708 0.53994 0.0108 0.0
C188 C 0.01975 0.53615 0.0296 0.0
C189 C 0.01148 0.42769 0.11804 0.0
C190 C 0.02379 0.41547 0.10344 0.0
C191 C 0.01417 0.45646 0.11442 0.0
C192 C 0.02942 0.47359 0.09621 0.0
C193 C 0.04124 0.46119 0.08144 0.0
C194 C 0.03851 0.43244 0.08502 0.0
C195 C 0.03332 0.50455 0.09256 0.0
C196 C 0.02213 0.50998 0.07354 0.0
C197 C 0.04761 0.52848 0.10775 0.0
C198 C 0.06112 0.52462 0.12772 0.0
C199 C 0.0837 0.51577 0.12712 0.0
C200 C 0.09614 0.51195 0.14602 0.0
C201 C 0.08636 0.51715 0.16562 0.0
C202 C 0.06418 0.52626 0.16635 0.0
C203 C 0.05164 0.53008 0.1475 0.0
H204 H 0.09602 0.51418 0.18023 0.0
H205 H 0.97582 0.55289 0.99703 0.0
H206 H 0.63983 0.03552 0.2366 0.0
H207 H 0.59047 0.03389 0.23279 0.0
H208 H 0.59444 0.05986 0.29864 0.0
H209 H 0.64383 0.06148 0.30264 0.0
H210 H 0.5367 0.0122 0.28678 0.0
H211 H 0.61217 0.11278 0.2615 0.0
H212 H 0.65592 0.14975 0.23951 0.0
H213 H 0.60381 0.10827 0.18274 0.0
H214 H 0.55987 0.07076 0.20441 0.0
H215 H 0.42264 0.05747 0.28335 0.0
H216 H 0.46946 0.05439 0.28818 0.0
H217 H 0.47033 0.03646 0.22111 0.0
H218 H 0.42392 0.04007 0.21607 0.0
H219 H 0.52558 0.07947 0.23381 0.0
H220 H 0.44989 0.97931 0.25844 0.0
H221 H 0.40596 0.94159 0.27996 0.0
H222 H 0.45772 0.98089 0.33721 0.0
H223 H 0.50184 0.01914 0.31603 0.0
C224 C 0.63021 0.04083 0.25029 0.0
C225 C 0.64582 0.04878 0.2699 0.0
C226 C 0.60204 0.03995 0.24807 0.0
C227 C 0.58899 0.047 0.2654 0.0
C228 C 0.60419 0.05436 0.28509 0.0
C229 C 0.63245 0.05541 0.28731 0.0
C230 C 0.55969 0.04717 0.26285 0.0
C231 C 0.5343 0.02716 0.2754 0.0
C232 C 0.55649 0.06618 0.24763 0.0
C233 C 0.58285 0.08877 0.23457 0.0
C234 C 0.61013 0.11138 0.24433 0.0
C235 C 0.63495 0.13246 0.23192 0.0
C236 C 0.63268 0.1313 0.20974 0.0
C237 C 0.60555 0.10911 0.19992 0.0
C238 C 0.58068 0.08795 0.21226 0.0
C239 C 0.43267 0.05265 0.26965 0.0
C240 C 0.41961 0.0491 0.24932 0.0
C241 C 0.45936 0.05076 0.27246 0.0
C242 C 0.47326 0.04496 0.25503 0.0
C243 C 0.46001 0.04099 0.23477 0.0
C244 C 0.43344 0.04301 0.23194 0.0
C245 C 0.50238 0.04438 0.25768 0.0
C246 C 0.52784 0.06441 0.24517 0.0
C247 C 0.50555 0.02526 0.27286 0.0
C248 C 0.47906 0.0023 0.28565 0.0
C249 C 0.45181 0.98008 0.27563 0.0
C250 C 0.4269 0.95857 0.28776 0.0
C251 C 0.42902 0.9589 0.30994 0.0
C252 C 0.45609 0.98069 0.32003 0.0
C253 C 0.48107 0.00228 0.30797 0.0
H254 H 0.40971 0.94221 0.31931 0.0
H255 H 0.65192 0.14765 0.20016 0.0
H256 H 0.53584 0.66207 0.3955 0.0
H257 H 0.48694 0.61527 0.38782 0.0
H258 H 0.50575 0.56694 0.43711 0.0
H259 H 0.55482 0.61331 0.44459 0.0
H260 H 0.48604 0.53304 0.40212 0.0
H261 H 0.45367 0.59189 0.44436 0.0
H262 H 0.44945 0.63741 0.4538 0.0
H263 H 0.40433 0.63088 0.39433 0.0
H264 H 0.40865 0.58554 0.38442 0.0
H265 H 0.33957 0.4027 0.41783 0.0
H266 H 0.38668 0.45209 0.423 0.0
H267 H 0.36403 0.48951 0.36861 0.0
H268 H 0.31666 0.44004 0.36328 0.0
H269 H 0.3853 0.52961 0.40361 0.0
H270 H 0.41582 0.46895 0.36234 0.0
H271 H 0.41936 0.42283 0.35365 0.0
H272 H 0.46776 0.43253 0.41213 0.0
H273 H 0.4641 0.47846 0.42132 0.0
C274 C 0.52951 0.6415 0.40474 0.0
C275 C 0.54921 0.6414 0.42065 0.0
C276 C 0.50151 0.61481 0.40038 0.0
C277 C 0.49259 0.5877 0.41202 0.0
C278 C 0.51221 0.58759 0.42791 0.0
C279 C 0.54022 0.61416 0.4322 0.0
C280 C 0.46312 0.55915 0.40745 0.0
C281 C 0.464 0.53224 0.40268 0.0
C282 C 0.43444 0.55831 0.40761 0.0
C283 C 0.43179 0.58554 0.41355 0.0
C284 C 0.44308 0.60032 0.43322 0.0
C285 C 0.44062 0.62605 0.43867 0.0
C286 C 0.42671 0.63708 0.42464 0.0
C287 C 0.41514 0.62234 0.40516 0.0
C288 C 0.41757 0.59661 0.39963 0.0
C289 C 0.34447 0.42144 0.40701 0.0
C290 C 0.32447 0.41741 0.39007 0.0
C291 C 0.37145 0.44961 0.40995 0.0
C292 C 0.37893 0.47427 0.39604 0.0
C293 C 0.35864 0.47067 0.37947 0.0
C294 C 0.33167 0.44239 0.37642 0.0
C295 C 0.40831 0.50356 0.39864 0.0
C296 C 0.4074 0.53054 0.40297 0.0
C297 C 0.43699 0.50449 0.39816 0.0
C298 C 0.43944 0.477 0.3926 0.0
C299 C 0.42701 0.46111 0.37343 0.0
C300 C 0.42907 0.43503 0.3684 0.0
C301 C 0.44371 0.42472 0.38235 0.0
C302 C 0.45639 0.44053 0.40134 0.0
C303 C 0.45436 0.4666 0.40646 0.0
H304 H 0.44528 0.40451 0.37843 0.0
H305 H 0.42483 0.65701 0.42889 0.0
H306 H 0.93722 0.56952 0.62327 0.0
H307 H 0.94383 0.52484 0.61857 0.0
H308 H 0.95265 0.54035 0.55077 0.0
H309 H 0.94585 0.58513 0.55529 0.0
H310 H 0.91393 0.47963 0.56103 0.0
H311 H 0.01557 0.55952 0.57961 0.0
H312 H 0.05471 0.60242 0.60113 0.0
H313 H 0.0319 0.5423 0.65512 0.0
H314 H 0.99229 0.49912 0.63401 0.0
H315 H 0.96436 0.37304 0.54036 0.0
H316 H 0.96283 0.42089 0.54274 0.0
H317 H 0.95746 0.41294 0.61118 0.0
H318 H 0.95954 0.3653 0.60898 0.0
H319 H 0.9963 0.47126 0.59905 0.0
H320 H 0.89319 0.39226 0.58136 0.0
H321 H 0.85338 0.34918 0.56031 0.0
H322 H 0.8783 0.40745 0.50515 0.0
H323 H 0.91857 0.45079 0.52582 0.0
C324 C 0.94055 0.56347 0.60734 0.0
C325 C 0.9411 0.58093 0.58964 0.0
C326 C 0.94447 0.53801 0.60471 0.0
C327 C 0.9491 0.52955 0.58436 0.0
C328 C 0.94922 0.54662 0.56661 0.0
C329 C 0.94539 0.57221 0.56923 0.0
C330 C 0.95337 0.50258 0.58167 0.0
C331 C 0.93224 0.47798 0.56904 0.0
C332 C 0.97686 0.50025 0.59255 0.0
C333 C 0.00077 0.52614 0.60527 0.0
C334 C 0.01873 0.5555 0.59612 0.0
C335 C 0.04103 0.57986 0.60824 0.0
C336 C 0.04574 0.57511 0.62949 0.0
C337 C 0.02821 0.54596 0.63866 0.0
C338 C 0.00585 0.52152 0.62662 0.0
C339 C 0.96299 0.38152 0.55594 0.0
C340 C 0.96186 0.36526 0.57449 0.0
C341 C 0.96201 0.40882 0.55726 0.0
C342 C 0.95956 0.4202 0.57712 0.0
C343 C 0.95927 0.40449 0.59569 0.0
C344 C 0.96039 0.37724 0.59439 0.0
C345 C 0.95672 0.44818 0.57853 0.0
C346 C 0.9781 0.47298 0.59093 0.0
C347 C 0.93339 0.45066 0.5675 0.0
C348 C 0.90911 0.42467 0.55508 0.0
C349 C 0.89034 0.39582 0.5647 0.0
C350 C 0.86767 0.37137 0.55285 0.0
C351 C 0.86337 0.37555 0.53139 0.0
C352 C 0.88169 0.40423 0.52176 0.0
C353 C 0.90442 0.42875 0.53354 0.0
H354 H 0.8458 0.3566 0.52225 0.0
H355 H 0.06302 0.594 0.63884 0.0
H356 H 0.59919 0.97204 0.7587 0.0
H357 H 0.55281 0.974 0.76776 0.0
H358 H 0.50555 0.91612 0.7139 0.0
H359 H 0.55203 0.9143 0.70454 0.0
H360 H 0.49595 0.96472 0.71678 0.0
H361 H 0.49057 0.88639 0.76352 0.0
H362 H 0.50984 0.86441 0.7905 0.0
H363 H 0.52042 0.93384 0.83519 0.0
H364 H 0.50161 0.95651 0.80836 0.0
H365 H 0.34502 0.92933 0.74671 0.0
H366 H 0.39043 0.92578 0.73715 0.0
H367 H 0.43908 0.98162 0.79149 0.0
H368 H 0.39362 0.98488 0.80138 0.0
H369 H 0.44743 0.93303 0.78807 0.0
H370 H 0.45391 0.01201 0.74147 0.0
H371 H 0.43522 0.03466 0.71458 0.0
H372 H 0.42312 0.96478 0.66979 0.0
H373 H 0.44135 0.94146 0.69653 0.0
C374 C 0.57894 0.95968 0.74878 0.0
C375 C 0.57926 0.94293 0.73093 0.0
C376 C 0.55242 0.96074 0.75403 0.0
C377 C 0.52566 0.94492 0.74163 0.0
C378 C 0.52597 0.92843 0.72369 0.0
C379 C 0.55251 0.92735 0.71841 0.0
C380 C 0.49747 0.9459 0.74729 0.0
C381 C 0.48504 0.95736 0.73225 0.0
C382 C 0.48375 0.93698 0.76766 0.0
C383 C 0.49495 0.92332 0.78385 0.0
C384 C 0.49723 0.89712 0.77904 0.0
C385 C 0.50803 0.88451 0.79432 0.0
C386 C 0.51642 0.89777 0.81453 0.0
C387 C 0.51395 0.92362 0.81952 0.0
C388 C 0.50319 0.93634 0.80429 0.0
C389 C 0.36539 0.94089 0.75663 0.0
C390 C 0.36575 0.95746 0.77478 0.0
C391 C 0.39136 0.93893 0.75109 0.0
C392 C 0.41823 0.95373 0.76349 0.0
C393 C 0.41857 0.97006 0.78171 0.0
C394 C 0.39259 0.97196 0.78729 0.0
C395 C 0.44593 0.95195 0.75759 0.0
C396 C 0.45828 0.94033 0.77258 0.0
C397 C 0.45962 0.96079 0.7372 0.0
C398 C 0.4487 0.97481 0.72108 0.0
C399 C 0.44702 0.00133 0.72595 0.0
C400 C 0.43656 0.01431 0.71072 0.0
C401 C 0.4279 0.00112 0.69051 0.0
C402 C 0.42978 0.97495 0.68546 0.0
C403 C 0.44021 0.96185 0.70064 0.0
H404 H 0.41981 0.01121 0.67874 0.0
H405 H 0.52477 0.88797 0.82634 0.0
H406 H 0.44743 0.35842 0.96011 0.0
H407 H 0.49526 0.4055 0.95131 0.0
H408 H 0.44646 0.43014 0.906 0.0
H409 H 0.39851 0.38274 0.91445 0.0
H410 H 0.49944 0.43898 0.88956 0.0
H411 H 0.46863 0.46659 0.95384 0.0
H412 H 0.45147 0.46095 0.99117 0.0
H413 H 0.53481 0.46422 0.01173 0.0
H414 H 0.5523 0.46945 0.97448 0.0
H415 H 0.6247 0.59339 0.87719 0.0
H416 H 0.57406 0.549 0.8853 0.0
H417 H 0.61651 0.51402 0.92826 0.0
H418 H 0.66714 0.55821 0.92029 0.0
H419 H 0.56505 0.51257 0.94546 0.0
H420 H 0.59417 0.48256 0.88043 0.0
H421 H 0.61085 0.48869 0.84295 0.0
H422 H 0.52977 0.49105 0.82377 0.0
H423 H 0.51281 0.48536 0.86119 0.0
C424 C 0.44681 0.37387 0.94831 0.0
C425 C 0.41914 0.36689 0.93802 0.0
C426 C 0.47416 0.40085 0.94336 0.0
C427 C 0.47434 0.42152 0.9282 0.0
C428 C 0.44681 0.41453 0.91779 0.0
C429 C 0.41943 0.38748 0.92268 0.0
C430 C 0.50344 0.45012 0.92295 0.0
C431 C 0.51354 0.45535 0.90173 0.0
C432 C 0.52204 0.47121 0.93889 0.0
C433 C 0.51165 0.46814 0.96134 0.0
C434 C 0.4832 0.46587 0.9663 0.0
C435 C 0.47343 0.46279 0.98745 0.0
C436 C 0.492 0.46216 0.00381 0.0
C437 C 0.52043 0.46468 0.99905 0.0
C438 C 0.5303 0.46774 0.97791 0.0
C439 C 0.62326 0.57623 0.88835 0.0
C440 C 0.64994 0.57926 0.89806 0.0
C441 C 0.59433 0.55088 0.89292 0.0
C442 C 0.59163 0.52819 0.90728 0.0
C443 C 0.61816 0.53131 0.91713 0.0
C444 C 0.64707 0.55652 0.91249 0.0
C445 C 0.56115 0.50116 0.91215 0.0
C446 C 0.55081 0.49628 0.9333 0.0
C447 C 0.54225 0.48051 0.89613 0.0
C448 C 0.5524 0.48389 0.87363 0.0
C449 C 0.58003 0.48466 0.86824 0.0
C450 C 0.58951 0.488 0.847 0.0
C451 C 0.57143 0.49035 0.831 0.0
C452 C 0.54378 0.48929 0.83619 0.0
C453 C 0.53422 0.48598 0.85741 0.0
H454 H 0.5788 0.49293 0.81456 0.0
H455 H 0.4844 0.45978 0.02017 0.0
H456 H 0.06538 0.30405 0.04388 0.0
H457 H 0.09735 0.29367 0.01965 0.0
H458 H 0.17919 0.36194 0.05202 0.0
H459 H 0.14754 0.37297 0.07591 0.0
H460 H 0.18817 0.36584 0.01014 0.0
H461 H 0.14631 0.28406 0.06269 0.0
H462 H 0.10445 0.24103 0.08259 0.0
H463 H 0.06714 0.19172 0.02422 0.0
H464 H 0.10859 0.23467 0.00394 0.0
H465 H 0.2997 0.32258 0.99207 0.0
H466 H 0.26172 0.33474 0.00611 0.0
H467 H 0.19132 0.26345 0.96709 0.0
H468 H 0.22924 0.25068 0.95315 0.0
H469 H 0.17208 0.25982 0.00724 0.0
H470 H 0.21909 0.33956 0.95529 0.0
H471 H 0.26196 0.38256 0.93608 0.0
H472 H 0.29056 0.43588 0.9936 0.0
H473 H 0.24812 0.39304 0.01324 0.0
C474 C 0.0902 0.31699 0.04574 0.0
C475 C 0.10394 0.33919 0.0619 0.0
C476 C 0.10842 0.31097 0.03192 0.0
C477 C 0.14062 0.32675 0.03421 0.0
C478 C 0.15438 0.3495 0.04996 0.0
C479 C 0.13623 0.35569 0.06366 0.0
C480 C 0.16012 0.31896 0.02082 0.0
C481 C 0.18478 0.3427 0.00957 0.0
C482 C 0.15512 0.28859 0.0196 0.0
C483 C 0.13032 0.26271 0.03179 0.0
C484 C 0.12904 0.26413 0.05409 0.0
C485 C 0.10542 0.23975 0.06544 0.0
C486 C 0.08309 0.2137 0.05467 0.0
C487 C 0.08441 0.21194 0.03254 0.0
C488 C 0.10797 0.23628 0.02111 0.0
C489 C 0.27621 0.3096 0.98631 0.0
C490 C 0.26748 0.28561 0.97151 0.0
C491 C 0.25455 0.31673 0.99426 0.0
C492 C 0.22377 0.30028 0.98743 0.0
C493 C 0.215 0.27651 0.97249 0.0
C494 C 0.23669 0.26928 0.96454 0.0
C495 C 0.2006 0.30685 0.99694 0.0
C496 C 0.17521 0.28288 0.00747 0.0
C497 C 0.20504 0.33704 0.99756 0.0
C498 C 0.2305 0.36298 0.98577 0.0
C499 C 0.23463 0.36037 0.96388 0.0
C500 C 0.25885 0.38474 0.95291 0.0
C501 C 0.279 0.41191 0.96362 0.0
C502 C 0.27493 0.41481 0.98532 0.0
C503 C 0.25077 0.39051 0.99637 0.0
H504 H 0.29774 0.43074 0.9551 0.0
H505 H 0.06482 0.19484 0.06349 0.0
H506 H 0.76687 0.1136 0.23043 0.0
H507 H 0.79605 0.13876 0.19826 0.0
H508 H 0.87261 0.13031 0.22153 0.0
H509 H 0.84401 0.10638 0.25415 0.0
H510 H 0.8937 0.18433 0.20659 0.0
H511 H 0.82299 0.08409 0.17993 0.0
H512 H 0.77237 0.03797 0.17332 0.0
H513 H 0.74354 0.09263 0.13808 0.0
H514 H 0.79385 0.13918 0.14474 0.0
H515 H 0.97029 0.21499 0.10634 0.0
H516 H 0.93075 0.1779 0.13043 0.0
H517 H 0.88961 0.23546 0.13432 0.0
H518 H 0.92956 0.27318 0.11067 0.0
H519 H 0.85083 0.15422 0.13363 0.0
H520 H 0.91976 0.25559 0.17145 0.0
H521 H 0.97244 0.29965 0.17633 0.0
H522 H 0.0061 0.23735 0.18848 0.0
H523 H 0.95359 0.19291 0.1834 0.0
C524 C 0.78989 0.11701 0.22863 0.0
C525 C 0.8032 0.10808 0.2448 0.0
C526 C 0.80647 0.13119 0.21016 0.0
C527 C 0.83638 0.13601 0.20728 0.0
C528 C 0.84958 0.12685 0.22337 0.0
C529 C 0.83321 0.11317 0.242 0.0
C530 C 0.85449 0.15194 0.18798 0.0
C531 C 0.88424 0.17736 0.19071 0.0
C532 C 0.84236 0.14315 0.16711 0.0
C533 C 0.81211 0.11518 0.163 0.0
C534 C 0.80578 0.08632 0.1709 0.0
C535 C 0.77715 0.06009 0.16713 0.0
C536 C 0.75473 0.06238 0.15533 0.0
C537 C 0.76092 0.09089 0.14724 0.0
C538 C 0.7895 0.1172 0.15099 0.0
C539 C 0.95222 0.21928 0.1117 0.0
C540 C 0.95316 0.24713 0.10684 0.0
C541 C 0.92966 0.19804 0.12543 0.0
C542 C 0.90748 0.20414 0.13408 0.0
C543 C 0.90656 0.23043 0.12765 0.0
C544 C 0.92942 0.25195 0.11423 0.0
C545 C 0.88925 0.18635 0.1526 0.0
C546 C 0.85985 0.16077 0.14965 0.0
C547 C 0.90168 0.19455 0.17327 0.0
C548 C 0.93294 0.22107 0.17694 0.0
C549 C 0.93845 0.25135 0.17509 0.0
C550 C 0.96823 0.27634 0.17785 0.0
C551 C 0.99258 0.27126 0.18262 0.0
C552 C 0.9872 0.2412 0.18472 0.0
C553 C 0.95745 0.21612 0.18192 0.0
H554 H 0.01554 0.29065 0.18485 0.0
H555 H 0.73258 0.04204 0.15242 0.0
H556 H 0.73872 0.79617 0.40342 0.0
H557 H 0.75249 0.83445 0.37511 0.0
H558 H 0.65649 0.80733 0.36765 0.0
H559 H 0.64258 0.76804 0.39503 0.0
H560 H 0.68103 0.81902 0.33078 0.0
H561 H 0.7106 0.87244 0.3982 0.0
H562 H 0.73793 0.88803 0.43259 0.0
H563 H 0.82493 0.92615 0.40024 0.0
H564 H 0.79807 0.91044 0.36566 0.0
H565 H 0.68727 0.95958 0.30211 0.0
H566 H 0.68079 0.91226 0.31824 0.0
H567 H 0.77554 0.9407 0.30391 0.0
H568 H 0.78211 0.98793 0.2874 0.0
H569 H 0.75814 0.92751 0.34772 0.0
H570 H 0.72482 0.88096 0.27929 0.0
H571 H 0.69449 0.86747 0.24615 0.0
H572 H 0.61063 0.81857 0.28204 0.0
H573 H 0.64042 0.83215 0.31545 0.0
C574 C 0.7206 0.79829 0.3956 0.0
C575 C 0.68963 0.77936 0.40153 0.0
C576 C 0.72847 0.82022 0.37948 0.0
C577 C 0.7056 0.82424 0.3695 0.0
C578 C 0.67458 0.80471 0.37506 0.0
C579 C 0.66665 0.78233 0.3908 0.0
C580 C 0.71378 0.84958 0.35399 0.0
C581 C 0.6978 0.84275 0.33455 0.0
C582 C 0.73617 0.88053 0.35863 0.0
C583 C 0.75233 0.88992 0.37939 0.0
C584 C 0.73555 0.88394 0.39845 0.0
C585 C 0.75095 0.89283 0.41796 0.0
C586 C 0.78314 0.90797 0.41861 0.0
C587 C 0.8 0.91434 0.39972 0.0
C588 C 0.78471 0.90546 0.38016 0.0
C589 C 0.70654 0.95546 0.30201 0.0
C590 C 0.73523 0.97749 0.29361 0.0
C591 C 0.70276 0.92839 0.31113 0.0
C592 C 0.72769 0.92307 0.31219 0.0
C593 C 0.75604 0.94443 0.30312 0.0
C594 C 0.7597 0.97131 0.29367 0.0
C595 C 0.72486 0.89695 0.32488 0.0
C596 C 0.74182 0.90368 0.34381 0.0
C597 C 0.7029 0.86609 0.31998 0.0
C598 C 0.68488 0.85776 0.29991 0.0
C599 C 0.6999 0.86754 0.28014 0.0
C600 C 0.6828 0.85983 0.2613 0.0
C601 C 0.65065 0.84221 0.26199 0.0
C602 C 0.63554 0.83222 0.28153 0.0
C603 C 0.65252 0.83988 0.30043 0.0
H604 H 0.63746 0.83627 0.24738 0.0
H605 H 0.79503 0.91485 0.43373 0.0
H606 H 0.67486 0.65004 0.47427 0.0
H607 H 0.70917 0.64111 0.49687 0.0
H608 H 0.78677 0.70293 0.458 0.0
H609 H 0.7522 0.71141 0.43483 0.0
H610 H 0.7917 0.65368 0.47233 0.0
H611 H 0.77165 0.72975 0.50235 0.0
H612 H 0.73854 0.75048 0.51396 0.0
H613 H 0.69483 0.67767 0.55987 0.0
H614 H 0.72734 0.65619 0.54833 0.0
H615 H 0.8999 0.67947 0.55593 0.0
H616 H 0.87022 0.68715 0.52807 0.0
H617 H 0.78568 0.6245 0.56039 0.0
H618 H 0.81507 0.6167 0.58828 0.0
H619 H 0.78798 0.6784 0.54839 0.0
H620 H 0.80657 0.60129 0.51705 0.0
H621 H 0.83882 0.57995 0.50475 0.0
H622 H 0.88589 0.65567 0.46133 0.0
H623 H 0.85419 0.67771 0.4736 0.0
C624 C 0.69915 0.66133 0.47029 0.0
C625 C 0.71097 0.68174 0.45298 0.0
C626 C 0.71873 0.65628 0.48326 0.0
C627 C 0.75058 0.67201 0.47942 0.0
C628 C 0.76225 0.69078 0.4613 0.0
C629 C 0.74252 0.69557 0.44809 0.0
C630 C 0.77158 0.67038 0.49526 0.0
C631 C 0.7913 0.65954 0.4889 0.0
C632 C 0.77076 0.67781 0.51691 0.0
C633 C 0.75178 0.6912 0.52433 0.0
C634 C 0.75487 0.71806 0.51485 0.0
C635 C 0.73619 0.72993 0.52141 0.0
C636 C 0.71448 0.71529 0.53755 0.0
C637 C 0.71159 0.68891 0.54731 0.0
C638 C 0.73017 0.6769 0.54079 0.0
C639 C 0.87499 0.66728 0.55708 0.0
C640 C 0.85981 0.64747 0.57431 0.0
C641 C 0.85809 0.67161 0.54111 0.0
C642 C 0.82578 0.65626 0.54215 0.0
C643 C 0.81062 0.63655 0.55933 0.0
C644 C 0.82745 0.63206 0.57521 0.0
C645 C 0.80764 0.66108 0.52556 0.0
C646 C 0.78857 0.67273 0.53179 0.0
C647 C 0.80922 0.65457 0.50383 0.0
C648 C 0.82825 0.64133 0.49642 0.0
C649 C 0.82399 0.61354 0.50502 0.0
C650 C 0.84213 0.60128 0.49802 0.0
C651 C 0.86446 0.61649 0.48232 0.0
C652 C 0.86863 0.64395 0.47353 0.0
C653 C 0.85057 0.65632 0.48048 0.0
H654 H 0.87847 0.60696 0.47692 0.0
H655 H 0.69997 0.72444 0.54256 0.0
H656 H 0.02279 0.70994 0.63758 0.0
H657 H 0.06712 0.74836 0.65753 0.0
H658 H 0.04131 0.81666 0.64358 0.0
H659 H 0.99617 0.77803 0.62375 0.0
H660 H 0.11204 0.83347 0.64189 0.0
H661 H 0.02108 0.79659 0.68578 0.0
H662 H 0.97163 0.7562 0.70064 0.0
H663 H 0.01723 0.71142 0.72849 0.0
H664 H 0.0669 0.75131 0.71347 0.0
H665 H 0.20783 0.92936 0.7271 0.0
H666 H 0.16523 0.90275 0.70189 0.0
H667 H 0.15431 0.81535 0.72163 0.0
H668 H 0.19655 0.84163 0.74693 0.0
H669 H 0.0996 0.81349 0.71968 0.0
H670 H 0.18961 0.84839 0.67518 0.0
H671 H 0.2392 0.88695 0.65942 0.0
H672 H 0.19602 0.93453 0.63219 0.0
H673 H 0.14622 0.89644 0.64805 0.0
C674 C 0.02674 0.73324 0.63834 0.0
C675 C 0.00575 0.74087 0.62927 0.0
C676 C 0.05211 0.75513 0.64975 0.0
C677 C 0.05719 0.78511 0.65207 0.0
C678 C 0.03761 0.79353 0.64187 0.0
C679 C 0.01186 0.77145 0.63064 0.0
C680 C 0.08114 0.80626 0.66699 0.0
C681 C 0.10924 0.8297 0.65895 0.0
C682 C 0.07739 0.8007 0.68912 0.0
C683 C 0.04765 0.77679 0.69834 0.0
C684 C 0.02051 0.77797 0.69489 0.0
C685 C 0.99246 0.7552 0.70337 0.0
C686 C 0.9913 0.73125 0.71548 0.0
C687 C 0.01818 0.73 0.7191 0.0
C688 C 0.04629 0.7527 0.71063 0.0
C689 C 0.19637 0.90448 0.72605 0.0
C690 C 0.20557 0.88759 0.73901 0.0
C691 C 0.17212 0.88934 0.7116 0.0
C692 C 0.15676 0.85711 0.70983 0.0
C693 C 0.16585 0.84024 0.72279 0.0
C694 C 0.19006 0.85532 0.73719 0.0
C695 C 0.13096 0.84067 0.69467 0.0
C696 C 0.1024 0.81787 0.70269 0.0
C697 C 0.13438 0.84689 0.67254 0.0
C698 C 0.16429 0.8698 0.66302 0.0
C699 C 0.19075 0.86724 0.666 0.0
C700 C 0.21888 0.88897 0.65701 0.0
C701 C 0.22079 0.91324 0.64487 0.0
C702 C 0.19453 0.91576 0.64164 0.0
C703 C 0.16634 0.8941 0.65061 0.0
H704 H 0.24258 0.93003 0.63792 0.0
H705 H 0.9696 0.71375 0.72212 0.0
H706 H 0.33212 0.04776 0.79745 0.0
H707 H 0.34475 0.09295 0.81899 0.0
H708 H 0.25766 0.08545 0.80264 0.0
H709 H 0.24457 0.0398 0.78096 0.0
H710 H 0.31329 0.15022 0.80739 0.0
H711 H 0.25215 0.05458 0.84442 0.0
H712 H 0.2382 0.00134 0.85347 0.0
H713 H 0.32744 0.03391 0.88144 0.0
H714 H 0.34205 0.08749 0.87232 0.0
H715 H 0.30908 0.22814 0.90282 0.0
H716 H 0.29521 0.19198 0.87309 0.0
H717 H 0.37137 0.17818 0.88849 0.0
H718 H 0.38542 0.2142 0.91816 0.0
H719 H 0.31641 0.12366 0.88319 0.0
H720 H 0.37618 0.2208 0.84653 0.0
H721 H 0.38919 0.27324 0.83565 0.0
H722 H 0.30016 0.23727 0.80654 0.0
H723 H 0.28645 0.18464 0.81752 0.0
C724 C 0.31588 0.05605 0.79798 0.0
C725 C 0.28707 0.03985 0.78783 0.0
C726 C 0.32322 0.08197 0.81023 0.0
C727 C 0.30197 0.09219 0.81253 0.0
C728 C 0.27433 0.07781 0.80097 0.0
C729 C 0.26687 0.0517 0.78869 0.0
C730 C 0.3069 0.11462 0.82944 0.0
C731 C 0.31351 0.14442 0.82401 0.0
C732 C 0.3073 0.10687 0.85102 0.0
C733 C 0.29827 0.07497 0.85751 0.0
C734 C 0.26884 0.05038 0.85244 0.0
C735 C 0.26082 0.02014 0.85756 0.0
C736 C 0.28199 0.01419 0.86789 0.0
C737 C 0.31111 0.03855 0.87336 0.0
C738 C 0.31925 0.06888 0.86827 0.0
C739 C 0.32297 0.21752 0.8998 0.0
C740 C 0.34833 0.22398 0.91285 0.0
C741 C 0.31507 0.19698 0.88278 0.0
C742 C 0.33236 0.18256 0.87858 0.0
C743 C 0.35776 0.18911 0.8915 0.0
C744 C 0.36579 0.20975 0.9084 0.0
C745 C 0.32345 0.15972 0.86124 0.0
C746 C 0.31598 0.1296 0.86663 0.0
C747 C 0.32191 0.16722 0.8397 0.0
C748 C 0.33016 0.19883 0.83306 0.0
C749 C 0.35927 0.22411 0.83798 0.0
C750 C 0.3668 0.25386 0.83176 0.0
C751 C 0.34548 0.2586 0.82047 0.0
C752 C 0.31663 0.23357 0.81532 0.0
C753 C 0.30898 0.20378 0.82153 0.0
H754 H 0.35136 0.28165 0.81566 0.0
H755 H 0.27579 0.99071 0.87165 0.0
H756 H 0.67171 0.73631 0.88683 0.0
H757 H 0.66975 0.77867 0.86873 0.0
H758 H 0.74359 0.79088 0.82716 0.0
H759 H 0.74596 0.7491 0.84519 0.0
H760 H 0.74971 0.84606 0.83878 0.0
H761 H 0.66916 0.74695 0.81199 0.0
H762 H 0.62304 0.69544 0.8157 0.0
H763 H 0.57214 0.73624 0.84107 0.0
H764 H 0.61813 0.78799 0.83775 0.0
H765 H 0.73092 0.90042 0.7395 0.0
H766 H 0.73703 0.87453 0.77048 0.0
H767 H 0.65782 0.87163 0.79997 0.0
H768 H 0.65121 0.89701 0.76888 0.0
H769 H 0.65233 0.81678 0.80038 0.0
H770 H 0.73068 0.91702 0.82047 0.0
H771 H 0.7767 0.96839 0.81614 0.0
H772 H 0.83186 0.92665 0.80337 0.0
H773 H 0.78608 0.87499 0.80732 0.0
C774 C 0.68777 0.7483 0.87401 0.0
C775 C 0.7087 0.73909 0.86726 0.0
C776 C 0.68661 0.77245 0.86369 0.0
C777 C 0.70633 0.78766 0.84647 0.0
C778 C 0.7282 0.77947 0.84042 0.0
C779 C 0.72935 0.7554 0.85067 0.0
C780 C 0.70276 0.81033 0.83346 0.0
C781 C 0.72847 0.83976 0.83035 0.0
C782 C 0.67477 0.80231 0.82295 0.0
C783 C 0.64714 0.77125 0.82488 0.0
C784 C 0.64819 0.7449 0.81851 0.0
C785 C 0.62208 0.71568 0.82052 0.0
C786 C 0.59471 0.71256 0.82868 0.0
C787 C 0.59338 0.73868 0.8348 0.0
C788 C 0.61945 0.76796 0.83286 0.0
C789 C 0.71507 0.89469 0.7527 0.0
C790 C 0.69044 0.90052 0.75165 0.0
C791 C 0.71871 0.88006 0.77048 0.0
C792 C 0.698 0.87134 0.78763 0.0
C793 C 0.67406 0.87816 0.78693 0.0
C794 C 0.67032 0.89265 0.76913 0.0
C795 C 0.69955 0.85242 0.80522 0.0
C796 C 0.67344 0.82357 0.80916 0.0
C797 C 0.72719 0.86104 0.81645 0.0
C798 C 0.75485 0.89209 0.81406 0.0
C799 C 0.75256 0.91877 0.81658 0.0
C800 C 0.77863 0.94795 0.81422 0.0
C801 C 0.80718 0.95078 0.80945 0.0
C802 C 0.80973 0.92442 0.80707 0.0
C803 C 0.78373 0.89518 0.80939 0.0
H804 H 0.82733 0.97339 0.80763 0.0
H805 H 0.57451 0.68992 0.83021 0.0
H806 H 0.81804 0.75268 0.9263 0.0
H807 H 0.85539 0.75717 0.9532 0.0
H808 H 0.80257 0.65918 0.96439 0.0
H809 H 0.76535 0.65437 0.93743 0.0
H810 H 0.85522 0.7419 0.996 0.0
H811 H 0.85362 0.63304 0.96484 0.0
H812 H 0.8394 0.60142 0.93222 0.0
H813 H 0.85929 0.68074 0.89449 0.0
H814 H 0.87414 0.71291 0.92683 0.0
H815 H 0.95381 0.70841 0.06039 0.0
H816 H 0.90925 0.70386 0.04095 0.0
H817 H 0.96348 0.73407 0.98344 0.0
H818 H 0.00776 0.73841 0.00252 0.0
H819 H 0.90846 0.6844 0.97623 0.0
H820 H 0.94834 0.78257 0.01116 0.0
H821 H 0.96499 0.81781 0.04192 0.0
H822 H 0.87426 0.76674 0.06893 0.0
H823 H 0.85719 0.73092 0.03844 0.0
C824 C 0.81408 0.73217 0.93475 0.0
C825 C 0.78906 0.7031 0.92947 0.0
C826 C 0.83534 0.73481 0.95019 0.0
C827 C 0.8319 0.70844 0.96052 0.0
C828 C 0.80577 0.67974 0.95638 0.0
C829 C 0.78458 0.67705 0.94093 0.0
C830 C 0.85727 0.71038 0.97368 0.0
C831 C 0.86675 0.72919 0.99182 0.0
C832 C 0.87259 0.69419 0.96792 0.0
C833 C 0.86464 0.67527 0.94829 0.0
C834 C 0.85511 0.64375 0.94957 0.0
C835 C 0.84693 0.62573 0.93113 0.0
C836 C 0.84834 0.63904 0.91131 0.0
C837 C 0.85812 0.67044 0.90986 0.0
C838 C 0.86641 0.68856 0.92824 0.0
C839 C 0.95621 0.7141 0.04361 0.0
C840 C 0.9843 0.72371 0.033 0.0
C841 C 0.93079 0.71159 0.03256 0.0
C842 C 0.93315 0.71873 0.01078 0.0
C843 C 0.96116 0.72834 0.00022 0.0
C844 C 0.98648 0.73088 0.0112 0.0
C845 C 0.90648 0.71586 0.99869 0.0
C846 C 0.89671 0.69682 0.98066 0.0
C847 C 0.89139 0.73234 0.00434 0.0
C848 C 0.90159 0.75387 0.02265 0.0
C849 C 0.93202 0.7787 0.02375 0.0
C850 C 0.94151 0.7988 0.04112 0.0
C851 C 0.92072 0.79446 0.0574 0.0
C852 C 0.89036 0.77004 0.05632 0.0
C853 C 0.88075 0.74984 0.039 0.0
H854 H 0.92811 0.81006 0.07083 0.0
H855 H 0.84191 0.62504 0.89706 0.0
H856 H 0.22984 0.01266 0.19847 0.0
H857 H 0.18847 0.96647 0.18181 0.0
H858 H 0.23187 0.91476 0.20161 0.0
H859 H 0.27369 0.96103 0.21796 0.0
H860 H 0.22257 0.91056 0.16021 0.0
H861 H 0.16082 0.89851 0.22126 0.0
H862 H 0.13664 0.9143 0.24893 0.0
H863 H 0.08744 0.93343 0.20097 0.0
H864 H 0.11166 0.91817 0.17297 0.0
H865 H 0.11381 0.77562 0.10933 0.0
H866 H 0.14099 0.80987 0.13908 0.0
H867 H 0.10611 0.86959 0.1204 0.0
H868 H 0.07828 0.83507 0.09078 0.0
H869 H 0.10916 0.86595 0.164 0.0
H870 H 0.17549 0.88484 0.10345 0.0
H871 H 0.19995 0.87033 0.07516 0.0
H872 H 0.24121 0.84011 0.12224 0.0
H873 H 0.21662 0.85405 0.15082 0.0
C874 C 0.23024 0.9913 0.19972 0.0
C875 C 0.25526 0.9906 0.20929 0.0
C876 C 0.20644 0.96483 0.19027 0.0
C877 C 0.20705 0.93713 0.19047 0.0
C878 C 0.23099 0.93592 0.20122 0.0
C879 C 0.25487 0.9624 0.21056 0.0
C880 C 0.18524 0.91082 0.1771 0.0
C881 C 0.19774 0.90033 0.16143 0.0
C882 C 0.15288 0.89819 0.17819 0.0
C883 C 0.13827 0.90741 0.19499 0.0
C884 C 0.14505 0.90633 0.21659 0.0
C885 C 0.13129 0.91513 0.23234 0.0
C886 C 0.11057 0.92492 0.22671 0.0
C887 C 0.10351 0.92586 0.20531 0.0
C888 C 0.11722 0.91709 0.18949 0.0
C889 C 0.11157 0.79582 0.1117 0.0
C890 C 0.09432 0.80294 0.0975 0.0
C891 C 0.12707 0.81533 0.12873 0.0
C892 C 0.12597 0.84252 0.1317 0.0
C893 C 0.10728 0.84874 0.11834 0.0
C894 C 0.09154 0.82907 0.10137 0.0
C895 C 0.14664 0.86584 0.14732 0.0
C896 C 0.13398 0.8759 0.16318 0.0
C897 C 0.17896 0.87834 0.14639 0.0
C898 C 0.19395 0.87017 0.12925 0.0
C899 C 0.1896 0.87489 0.10776 0.0
C900 C 0.20351 0.8668 0.09167 0.0
C901 C 0.22205 0.85422 0.0969 0.0
C902 C 0.22679 0.8498 0.11822 0.0
C903 C 0.21289 0.8578 0.13436 0.0
H904 H 0.2328 0.84797 0.08442 0.0
H905 H 0.09994 0.93173 0.23893 0.0
H906 H 0.34125 0.10368 0.28214 0.0
H907 H 0.33593 0.13627 0.30891 0.0
H908 H 0.33123 0.19299 0.25904 0.0
H909 H 0.33679 0.1609 0.23231 0.0
H910 H 0.36824 0.22757 0.29148 0.0
H911 H 0.26637 0.13744 0.28295 0.0
H912 H 0.22888 0.08168 0.28359 0.0
H913 H 0.24884 0.07767 0.34959 0.0
H914 H 0.28677 0.13337 0.34925 0.0
H915 H 0.28499 0.29669 0.32574 0.0
H916 H 0.30378 0.26525 0.30926 0.0
H917 H 0.30513 0.22699 0.37049 0.0
H918 H 0.28616 0.25858 0.38728 0.0
H919 H 0.27685 0.1826 0.33901 0.0
H920 H 0.37178 0.27534 0.34877 0.0
H921 H 0.40786 0.33138 0.34789 0.0
H922 H 0.40086 0.33105 0.27978 0.0
H923 H 0.36434 0.27508 0.28026 0.0
C924 C 0.33921 0.12318 0.2769 0.0
C925 C 0.33928 0.12962 0.2551 0.0
C926 C 0.33614 0.14172 0.29221 0.0
C927 C 0.33302 0.16692 0.28593 0.0
C928 C 0.33371 0.17371 0.26422 0.0
C929 C 0.33673 0.15522 0.24895 0.0
C930 C 0.32796 0.18584 0.30175 0.0
C931 C 0.34826 0.21779 0.30187 0.0
C932 C 0.30246 0.17288 0.31581 0.0
C933 C 0.27967 0.13944 0.31601 0.0
C934 C 0.26295 0.1246 0.29755 0.0
C935 C 0.24159 0.09303 0.29787 0.0
C936 C 0.23656 0.07612 0.3166 0.0
C937 C 0.25282 0.09078 0.33508 0.0
C938 C 0.27424 0.12234 0.33484 0.0
C939 C 0.28939 0.28173 0.33578 0.0
C940 C 0.28409 0.28013 0.35783 0.0
C941 C 0.30031 0.2639 0.32634 0.0
C942 C 0.30619 0.2441 0.33871 0.0
C943 C 0.30089 0.2423 0.36072 0.0
C944 C 0.29012 0.26038 0.37026 0.0
C945 C 0.31653 0.22445 0.32817 0.0
C946 C 0.29727 0.19236 0.32904 0.0
C947 C 0.34297 0.23729 0.315 0.0
C948 C 0.36517 0.27098 0.31457 0.0
C949 C 0.37776 0.28724 0.33361 0.0
C950 C 0.39832 0.319 0.33318 0.0
C951 C 0.40662 0.33477 0.3138 0.0
C952 C 0.39442 0.3188 0.29479 0.0
C953 C 0.37382 0.28704 0.29513 0.0
H954 H 0.42253 0.35937 0.3135 0.0
H955 H 0.22 0.05168 0.31682 0.0
H956 H 0.20473 0.33507 0.42756 0.0
H957 H 0.17612 0.32199 0.46082 0.0
H958 H 0.13947 0.22523 0.44803 0.0
H959 H 0.16769 0.23819 0.41426 0.0
H960 H 0.09508 0.23564 0.45901 0.0
H961 H 0.19132 0.26122 0.48912 0.0
H962 H 0.24743 0.29123 0.49516 0.0
H963 H 0.23896 0.36718 0.51848 0.0
H964 H 0.18285 0.33783 0.51228 0.0
H965 H 0.01118 0.21523 0.5538 0.0
H966 H 0.05157 0.21309 0.53319 0.0
H967 H 0.09646 0.31123 0.52278 0.0
H968 H 0.05618 0.31355 0.54317 0.0
H969 H 0.13814 0.28869 0.52771 0.0
H970 H 0.04409 0.26576 0.48899 0.0
H971 H 0.98815 0.23579 0.48201 0.0
H972 H 0.99367 0.15348 0.47472 0.0
H973 H 0.04956 0.1829 0.48205 0.0
C974 C 0.19083 0.31098 0.43185 0.0
C975 C 0.18836 0.28765 0.41819 0.0
C976 C 0.1747 0.30354 0.45102 0.0
C977 C 0.15604 0.27263 0.45712 0.0
C978 C 0.1539 0.24924 0.4437 0.0
C979 C 0.16999 0.25668 0.4244 0.0
C980 C 0.13666 0.2651 0.47649 0.0
C981 C 0.10462 0.24651 0.47421 0.0
C982 C 0.14904 0.27949 0.49629 0.0
C983 C 0.18282 0.29731 0.50015 0.0
C984 C 0.20142 0.28439 0.49541 0.0
C985 C 0.23324 0.30129 0.49888 0.0
C986 C 0.24675 0.33111 0.50718 0.0
C987 C 0.22846 0.34407 0.51206 0.0
C988 C 0.19663 0.32729 0.50861 0.0
C989 C 0.03017 0.23649 0.54768 0.0
C990 C 0.03035 0.26451 0.54981 0.0
C991 C 0.05316 0.23519 0.53589 0.0
C992 C 0.07669 0.26194 0.52628 0.0
C993 C 0.07844 0.29034 0.53007 0.0
C994 C 0.05534 0.29161 0.54163 0.0
C995 C 0.09683 0.26011 0.50986 0.0
C996 C 0.12887 0.27702 0.51269 0.0
C997 C 0.08453 0.24407 0.49056 0.0
C998 C 0.05089 0.22642 0.48636 0.0
C999 C 0.03331 0.24121 0.48613 0.0
C1000 C 0.00162 0.22434 0.48207 0.0
C1001 C 0.98737 0.19274 0.47796 0.0
C1002 C 0.00474 0.17795 0.47795 0.0
C1003 C 0.0364 0.19469 0.48207 0.0
H1004 H 0.96289 0.17973 0.47468 0.0
H1005 H 0.27139 0.34415 0.50985 0.0
H1006 H 0.92031 0.23509 0.61576 0.0
H1007 H 0.88842 0.19838 0.64331 0.0
H1008 H 0.80871 0.16518 0.60252 0.0
H1009 H 0.84014 0.20248 0.57533 0.0
H1010 H 0.79296 0.16855 0.6416 0.0
H1011 H 0.85207 0.12781 0.60773 0.0
H1012 H 0.89989 0.12928 0.59627 0.0
H1013 H 0.93027 0.13985 0.6612 0.0
H1014 H 0.88276 0.13883 0.67302 0.0
H1015 H 0.69469 0.01371 0.66872 0.0
H1016 H 0.73134 0.06277 0.65251 0.0
H1017 H 0.79208 0.08412 0.70638 0.0
H1018 H 0.7553 0.03475 0.72287 0.0
H1019 H 0.82144 0.0924 0.6672 0.0
H1020 H 0.75598 0.12348 0.70072 0.0
H1021 H 0.70652 0.11946 0.71078 0.0
H1022 H 0.6863 0.12456 0.645 0.0
H1023 H 0.73543 0.12816 0.6345 0.0
C1024 C 0.89594 0.22007 0.61275 0.0
C1025 C 0.88274 0.22149 0.59333 0.0
C1026 C 0.87777 0.19906 0.62847 0.0
C1027 C 0.84626 0.1787 0.62486 0.0
C1028 C 0.83295 0.18068 0.60569 0.0
C1029 C 0.85098 0.20194 0.59011 0.0
C1030 C 0.82714 0.15446 0.64056 0.0
C1031 C 0.79914 0.15184 0.64713 0.0
C1032 C 0.83561 0.13317 0.6483 0.0
C1033 C 0.86407 0.13362 0.64122 0.0
C1034 C 0.86905 0.13067 0.61954 0.0
C1035 C 0.89608 0.13138 0.61298 0.0
C1036 C 0.91815 0.13476 0.62799 0.0
C1037 C 0.91319 0.13731 0.64959 0.0
C1038 C 0.88622 0.13665 0.65623 0.0
C1039 C 0.71573 0.02887 0.67724 0.0
C1040 C 0.72214 0.02032 0.69706 0.0
C1041 C 0.73657 0.057 0.66799 0.0
C1042 C 0.76424 0.07716 0.67836 0.0
C1043 C 0.77073 0.06888 0.69821 0.0
C1044 C 0.7497 0.04074 0.7076 0.0
C1045 C 0.7869 0.106 0.66765 0.0
C1046 C 0.81557 0.1095 0.66202 0.0
C1047 C 0.77887 0.12786 0.66057 0.0
C1048 C 0.74936 0.12593 0.66682 0.0
C1049 C 0.7409 0.12354 0.68838 0.0
C1050 C 0.71293 0.12137 0.69417 0.0
C1051 C 0.69326 0.12172 0.67854 0.0
C1052 C 0.70156 0.1243 0.65709 0.0
C1053 C 0.72949 0.12646 0.65122 0.0
H1054 H 0.67161 0.12002 0.68305 0.0
H1055 H 0.93906 0.13531 0.62289 0.0
H1056 H 0.16617 0.26687 0.30486 0.0
H1057 H 0.13955 0.26748 0.27249 0.0
H1058 H 0.16821 0.36312 0.28316 0.0
H1059 H 0.1949 0.36274 0.31573 0.0
H1060 H 0.10708 0.32857 0.26976 0.0
H1061 H 0.20673 0.34616 0.24841 0.0
H1062 H 0.24942 0.33506 0.24683 0.0
H1063 H 0.18945 0.24754 0.21769 0.0
H1064 H 0.14626 0.25793 0.21938 0.0
H1065 H 0.07968 0.36175 0.1641 0.0
H1066 H 0.10201 0.36161 0.19871 0.0
H1067 H 0.08193 0.26837 0.18776 0.0
H1068 H 0.0601 0.26849 0.15307 0.0
H1069 H 0.13917 0.30299 0.20163 0.0
H1070 H 0.0391 0.28354 0.22421 0.0
H1071 H 0.99531 0.29292 0.22691 0.0
H1072 H 0.05497 0.38243 0.25346 0.0
H1073 H 0.09909 0.37353 0.25102 0.0
C1074 C 0.16667 0.28801 0.30045 0.0
C1075 C 0.18287 0.31484 0.3128 0.0
C1076 C 0.15149 0.28832 0.2819 0.0
C1077 C 0.15225 0.31545 0.27531 0.0
C1078 C 0.16743 0.34198 0.28797 0.0
C1079 C 0.18274 0.34173 0.30652 0.0
C1080 C 0.13811 0.31631 0.25479 0.0
C1081 C 0.11433 0.32338 0.25481 0.0
C1082 C 0.1472 0.30892 0.23538 0.0
C1083 C 0.17319 0.3027 0.23421 0.0
C1084 C 0.20258 0.32444 0.24182 0.0
C1085 C 0.22688 0.3183 0.24088 0.0
C1086 C 0.22213 0.29058 0.23222 0.0
C1087 C 0.19309 0.26898 0.22442 0.0
C1088 C 0.1687 0.275 0.22535 0.0
C1089 C 0.08001 0.34121 0.16907 0.0
C1090 C 0.06827 0.31519 0.15578 0.0
C1091 C 0.09256 0.34108 0.18893 0.0
C1092 C 0.0934 0.31487 0.19591 0.0
C1093 C 0.08157 0.28886 0.18269 0.0
C1094 C 0.06913 0.289 0.16284 0.0
C1095 C 0.10782 0.31495 0.21655 0.0
C1096 C 0.13182 0.30816 0.21656 0.0
C1097 C 0.09881 0.32246 0.23596 0.0
C1098 C 0.07243 0.328 0.23723 0.0
C1099 C 0.04291 0.30531 0.23048 0.0
C1100 C 0.01803 0.31051 0.23201 0.0
C1101 C 0.0224 0.33832 0.24021 0.0
C1102 C 0.05163 0.36093 0.24705 0.0
C1103 C 0.07656 0.35578 0.24568 0.0
H1104 H 0.00311 0.34231 0.24134 0.0
H1105 H 0.24097 0.28586 0.23151 0.0
H1106 H 0.8997 0.25547 0.49223 0.0
H1107 H 0.87313 0.23102 0.45904 0.0
H1108 H 0.89898 0.16138 0.46675 0.0
H1109 H 0.92545 0.18555 0.49993 0.0
H1110 H 0.90854 0.18455 0.42587 0.0
H1111 H 0.82769 0.14471 0.47852 0.0
H1112 H 0.79646 0.14869 0.50734 0.0
H1113 H 0.76844 0.19831 0.46583 0.0
H1114 H 0.79988 0.19501 0.43683 0.0
H1115 H 0.80745 0.06817 0.35569 0.0
H1116 H 0.83516 0.09803 0.38693 0.0
H1117 H 0.80066 0.16033 0.37586 0.0
H1118 H 0.77241 0.13025 0.34461 0.0
H1119 H 0.79632 0.14458 0.41731 0.0
H1120 H 0.87457 0.18209 0.36398 0.0
H1121 H 0.90593 0.17861 0.33505 0.0
H1122 H 0.93932 0.13456 0.37741 0.0
H1123 H 0.90779 0.13736 0.40653 0.0
C1124 C 0.89974 0.23496 0.48686 0.0
C1125 C 0.91464 0.22241 0.49872 0.0
C1126 C 0.8845 0.221 0.46793 0.0
C1127 C 0.88395 0.1943 0.46054 0.0
C1128 C 0.89916 0.18199 0.47219 0.0
C1129 C 0.91419 0.19578 0.49118 0.0
C1130 C 0.86732 0.17896 0.44074 0.0
C1131 C 0.88395 0.17553 0.42405 0.0
C1132 C 0.83543 0.16802 0.4382 0.0
C1133 C 0.81641 0.16991 0.45558 0.0
C1134 C 0.81508 0.1567 0.47559 0.0
C1135 C 0.7973 0.15879 0.49195 0.0
C1136 C 0.78055 0.17382 0.48844 0.0
C1137 C 0.78147 0.18672 0.46854 0.0
C1138 C 0.79925 0.18473 0.45213 0.0
C1139 C 0.80574 0.08824 0.35984 0.0
C1140 C 0.78779 0.09688 0.34761 0.0
C1141 C 0.82174 0.10537 0.37767 0.0
C1142 C 0.82031 0.13164 0.38356 0.0
C1143 C 0.80214 0.14018 0.37154 0.0
C1144 C 0.78609 0.12301 0.35367 0.0
C1145 C 0.83746 0.1498 0.40248 0.0
C1146 C 0.82095 0.15379 0.41902 0.0
C1147 C 0.86951 0.16136 0.40486 0.0
C1148 C 0.88858 0.15969 0.3874 0.0
C1149 C 0.8884 0.17143 0.36709 0.0
C1150 C 0.90624 0.16962 0.35066 0.0
C1151 C 0.92455 0.15631 0.35438 0.0
C1152 C 0.9251 0.14484 0.37455 0.0
C1153 C 0.90727 0.14656 0.39103 0.0
H1154 H 0.93836 0.15493 0.34164 0.0
H1155 H 0.76679 0.17541 0.50113 0.0
H1156 H 0.63326 0.8852 0.63965 0.0
H1157 H 0.6315 0.85641 0.60786 0.0
H1158 H 0.63963 0.78989 0.64678 0.0
H1159 H 0.64156 0.81868 0.67878 0.0
H1160 H 0.67845 0.80812 0.61218 0.0
H1161 H 0.57155 0.77109 0.62565 0.0
H1162 H 0.52547 0.77539 0.63292 0.0
H1163 H 0.53767 0.82259 0.57354 0.0
H1164 H 0.58411 0.81896 0.56603 0.0
H1165 H 0.64002 0.6972 0.52998 0.0
H1166 H 0.64017 0.72306 0.56295 0.0
H1167 H 0.63067 0.79115 0.52692 0.0
H1168 H 0.63036 0.76534 0.4938 0.0
H1169 H 0.59176 0.77034 0.56083 0.0
H1170 H 0.69937 0.80864 0.54779 0.0
H1171 H 0.74574 0.80483 0.54055 0.0
H1172 H 0.73224 0.75522 0.599 0.0
H1173 H 0.68553 0.7584 0.60647 0.0
C1174 C 0.63457 0.86439 0.6415 0.0
C1175 C 0.63746 0.85418 0.66177 0.0
C1176 C 0.63347 0.84791 0.6233 0.0
C1177 C 0.63518 0.82088 0.62498 0.0
C1178 C 0.63823 0.81068 0.64516 0.0
C1179 C 0.63919 0.82709 0.66341 0.0
C1180 C 0.63415 0.80357 0.60559 0.0
C1181 C 0.65928 0.79941 0.60111 0.0
C1182 C 0.60944 0.79284 0.59095 0.0
C1183 C 0.58148 0.79501 0.59538 0.0
C1184 C 0.56456 0.78262 0.61422 0.0
C1185 C 0.53835 0.78489 0.61837 0.0
C1186 C 0.5287 0.79932 0.60373 0.0
C1187 C 0.5452 0.81145 0.58487 0.0
C1188 C 0.57145 0.80926 0.58066 0.0
C1189 C 0.63791 0.71765 0.52904 0.0
C1190 C 0.63522 0.72925 0.50926 0.0
C1191 C 0.63814 0.73248 0.54791 0.0
C1192 C 0.63571 0.75918 0.54736 0.0
C1193 C 0.63261 0.77058 0.52767 0.0
C1194 C 0.6325 0.75584 0.50877 0.0
C1195 C 0.63615 0.77508 0.56734 0.0
C1196 C 0.61088 0.77895 0.57194 0.0
C1197 C 0.66075 0.78554 0.58207 0.0
C1198 C 0.6888 0.78354 0.5776 0.0
C1199 C 0.70616 0.79672 0.55903 0.0
C1200 C 0.73256 0.79477 0.55492 0.0
C1201 C 0.74197 0.77986 0.56934 0.0
C1202 C 0.72496 0.76683 0.58788 0.0
C1203 C 0.69853 0.76873 0.59206 0.0
H1204 H 0.76237 0.77831 0.5661 0.0
H1205 H 0.50839 0.80105 0.60697 0.0
H1206 H 0.8621 0.63934 0.66783 0.0
H1207 H 0.83835 0.63902 0.70183 0.0
H1208 H 0.92132 0.6571 0.73477 0.0
H1209 H 0.94516 0.65701 0.70082 0.0
H1210 H 0.87068 0.61479 0.75578 0.0
H1211 H 0.90685 0.71467 0.7263 0.0
H1212 H 0.91363 0.75251 0.69868 0.0
H1213 H 0.8159 0.71737 0.69763 0.0
H1214 H 0.80847 0.67897 0.72504 0.0
H1215 H 0.83093 0.66396 0.85219 0.0
H1216 H 0.85679 0.66088 0.82001 0.0
H1217 H 0.77587 0.63905 0.78298 0.0
H1218 H 0.74994 0.64229 0.81494 0.0
H1219 H 0.82845 0.68498 0.765 0.0
H1220 H 0.79369 0.58391 0.79497 0.0
H1221 H 0.78916 0.54769 0.82322 0.0
H1222 H 0.88762 0.58802 0.82442 0.0
H1223 H 0.89275 0.62477 0.79636 0.0
C1224 C 0.87528 0.64312 0.6823 0.0
C1225 C 0.90559 0.64839 0.68161 0.0
C1226 C 0.8617 0.64302 0.70172 0.0
C1227 C 0.87824 0.64846 0.7208 0.0
C1228 C 0.90818 0.65289 0.72023 0.0
C1229 C 0.92179 0.65293 0.7008 0.0
C1230 C 0.86442 0.65023 0.74124 0.0
C1231 C 0.8618 0.63041 0.75792 0.0
C1232 C 0.85269 0.67049 0.74395 0.0
C1233 C 0.85707 0.69375 0.72761 0.0
C1234 C 0.88677 0.71486 0.72008 0.0
C1235 C 0.89074 0.73643 0.70447 0.0
C1236 C 0.8652 0.7373 0.69637 0.0
C1237 C 0.83566 0.71664 0.70391 0.0
C1238 C 0.83155 0.69499 0.7195 0.0
C1239 C 0.81854 0.65826 0.83723 0.0
C1240 C 0.78839 0.65345 0.83612 0.0
C1241 C 0.83333 0.65642 0.81887 0.0
C1242 C 0.8182 0.64964 0.79913 0.0
C1243 C 0.78797 0.64438 0.79806 0.0
C1244 C 0.77315 0.64614 0.81637 0.0
C1245 C 0.83413 0.64911 0.7794 0.0
C1246 C 0.83732 0.66935 0.76287 0.0
C1247 C 0.84672 0.62953 0.77697 0.0
C1248 C 0.84361 0.60728 0.79372 0.0
C1249 C 0.81438 0.58521 0.80137 0.0
C1250 C 0.8117 0.56456 0.81733 0.0
C1251 C 0.83809 0.56561 0.82565 0.0
C1252 C 0.8672 0.58726 0.81798 0.0
C1253 C 0.87001 0.60798 0.80204 0.0
H1254 H 0.83596 0.54961 0.83801 0.0
H1255 H 0.86832 0.75401 0.68428 0.0
H1256 H 0.213 0.94548 0.84845 0.0
H1257 H 0.19656 0.92137 0.88334 0.0
H1258 H 0.24095 0.86796 0.8717 0.0
H1259 H 0.2578 0.89224 0.83669 0.0
H1260 H 0.18218 0.8328 0.88711 0.0
H1261 H 0.27335 0.92589 0.90701 0.0
H1262 H 0.30954 0.98192 0.90816 0.0
H1263 H 0.23936 0.99622 0.93591 0.0
H1264 H 0.2027 0.94025 0.93488 0.0
H1265 H 0.14804 0.77382 0.99298 0.0
H1266 H 0.17769 0.79977 0.96099 0.0
H1267 H 0.14436 0.86413 0.96409 0.0
H1268 H 0.11527 0.83884 0.99614 0.0
H1269 H 0.20387 0.89322 0.95378 0.0
H1270 H 0.11159 0.80129 0.93077 0.0
H1271 H 0.07478 0.74539 0.92953 0.0
H1272 H 0.14632 0.72918 0.90688 0.0
H1273 H 0.18366 0.78499 0.90825 0.0
C1274 C 0.21954 0.92883 0.85334 0.0
C1275 C 0.23688 0.92094 0.83983 0.0
C1276 C 0.21019 0.91512 0.87334 0.0
C1277 C 0.21789 0.89317 0.88022 0.0
C1278 C 0.23493 0.88497 0.86671 0.0
C1279 C 0.2445 0.89886 0.84673 0.0
C1280 C 0.20693 0.87798 0.90118 0.0
C1281 C 0.18743 0.84591 0.90177 0.0
C1282 C 0.21334 0.89519 0.92021 0.0
C1283 C 0.23524 0.92889 0.92076 0.0
C1284 C 0.26559 0.94099 0.91326 0.0
C1285 C 0.28622 0.97273 0.91398 0.0
C1286 C 0.27676 0.99261 0.92212 0.0
C1287 C 0.24666 0.98078 0.92963 0.0
C1288 C 0.22598 0.94905 0.92905 0.0
C1289 C 0.14726 0.79367 0.98694 0.0
C1290 C 0.12912 0.80413 0.99702 0.0
C1291 C 0.16412 0.8084 0.96862 0.0
C1292 C 0.16292 0.83365 0.95999 0.0
C1293 C 0.14563 0.8447 0.97045 0.0
C1294 C 0.1289 0.8301 0.98875 0.0
C1295 C 0.17864 0.84808 0.93967 0.0
C1296 C 0.199 0.88003 0.93918 0.0
C1297 C 0.1729 0.83077 0.92072 0.0
C1298 C 0.15048 0.79724 0.91986 0.0
C1299 C 0.11952 0.78577 0.92569 0.0
C1300 C 0.09855 0.75412 0.92494 0.0
C1301 C 0.10823 0.73374 0.9182 0.0
C1302 C 0.13887 0.74499 0.91215 0.0
C1303 C 0.15994 0.77662 0.9129 0.0
H1304 H 0.09196 0.70924 0.91762 0.0
H1305 H 0.29273 0.01718 0.92258 0.0
H1306 H 0.37911 0.12766 0.16797 0.0
H1307 H 0.38073 0.15537 0.13558 0.0
H1308 H 0.31632 0.06946 0.10553 0.0
H1309 H 0.31524 0.04147 0.1377 0.0
H1310 H 0.3593 0.10572 0.07796 0.0
H1311 H 0.29266 0.11727 0.12713 0.0
H1312 H 0.27817 0.13039 0.16141 0.0
H1313 H 0.35108 0.22423 0.15478 0.0
H1314 H 0.3663 0.21156 0.12058 0.0
H1315 H 0.3055 0.16751 0.99729 0.0
H1316 H 0.30962 0.13991 0.02806 0.0
H1317 H 0.37988 0.2258 0.05488 0.0
H1318 H 0.37587 0.25366 0.02419 0.0
H1319 H 0.33484 0.18996 0.08382 0.0
H1320 H 0.39973 0.1773 0.03325 0.0
H1321 H 0.41226 0.16284 0.99874 0.0
H1322 H 0.3396 0.06936 0.00763 0.0
H1323 H 0.32635 0.08337 0.04208 0.0
C1324 C 0.36546 0.11462 0.15442 0.0
C1325 C 0.34687 0.08238 0.15545 0.0
C1326 C 0.36631 0.13051 0.13594 0.0
C1327 C 0.34819 0.11454 0.11826 0.0
C1328 C 0.33042 0.08226 0.119 0.0
C1329 C 0.32978 0.06631 0.13742 0.0
C1330 C 0.34708 0.13158 0.09927 0.0
C1331 C 0.35361 0.12391 0.07921 0.0
C1332 C 0.34009 0.15562 0.10093 0.0
C1333 C 0.33081 0.16339 0.1214 0.0
C1334 C 0.30574 0.14066 0.13305 0.0
C1335 C 0.29738 0.14802 0.15246 0.0
C1336 C 0.31375 0.17811 0.1603 0.0
C1337 C 0.33845 0.20092 0.1487 0.0
C1338 C 0.34694 0.19367 0.1293 0.0
C1339 C 0.32192 0.18055 0.00969 0.0
C1340 C 0.34035 0.21279 0.0083 0.0
C1341 C 0.32433 0.16471 0.02721 0.0
C1342 C 0.34522 0.18081 0.04366 0.0
C1343 C 0.36365 0.21297 0.04233 0.0
C1344 C 0.36138 0.22882 0.02475 0.0
C1345 C 0.34717 0.16417 0.06256 0.0
C1346 C 0.34066 0.17187 0.0826 0.0
C1347 C 0.35384 0.13996 0.06082 0.0
C1348 C 0.36187 0.13146 0.04016 0.0
C1349 C 0.38626 0.15372 0.02777 0.0
C1350 C 0.39352 0.14559 0.00823 0.0
C1351 C 0.37669 0.11522 0.00097 0.0
C1352 C 0.3526 0.09289 0.01326 0.0
C1353 C 0.34523 0.1009 0.0328 0.0
H1354 H 0.38234 0.10897 0.98584 0.0
H1355 H 0.30725 0.18376 0.17533 0.0
loop_
_geom_bond_atom_site_label_1
_geom_bond_atom_site_label_2
_geom_bond_distance
_geom_bond_site_symmetry_2
_ccdc_geom_bond_type
C0 O1 1.160 . S
C0 O7 1.185 . S
O1 C0 1.160 . S
O2 Zn3 1.899 . S
O2 C10 1.284 . S
Zn3 O2 1.899 . S
Zn3 O4 2.032 . S
Zn3 O7 2.086 . S
Zn3 O12 1.977 . S
O4 Zn3 2.032 . S
O4 C8 1.278 . S
C5 O6 1.203 . S
C5 O12 1.267 . S
O6 C5 1.203 . S
O7 C0 1.185 . S
O7 Zn3 2.086 . S
C8 O4 1.278 . S
C8 O9 1.211 . S
O9 C8 1.211 . S
C10 O2 1.284 . S
C10 O11 1.273 . S
O11 C10 1.273 . S
O12 Zn3 1.977 . S
O12 C5 1.267 . S
C13 O14 1.160 . S
C13 O20 1.185 . S
O14 C13 1.160 . S
O15 Zn16 1.899 . S
O15 C23 1.284 . S
Zn16 O15 1.899 . S
Zn16 O17 2.032 . S
Zn16 O20 2.086 . S
Zn16 O25 1.977 . S
O17 Zn16 2.032 . S
O17 C21 1.278 . S
C18 O19 1.203 . S
C18 O25 1.267 . S
O19 C18 1.203 . S
O20 C13 1.185 . S
O20 Zn16 2.086 . S
C21 O17 1.278 . S
C21 O22 1.211 . S
O22 C21 1.211 . S
C23 O15 1.284 . S
C23 O24 1.273 . S
O24 C23 1.273 . S
O25 Zn16 1.977 . S
O25 C18 1.267 . S
C26 O27 1.160 . S
C26 O33 1.185 . S
O27 C26 1.160 . S
O28 Zn29 1.899 . S
O28 C36 1.284 . S
Zn29 O28 1.899 . S
Zn29 O30 2.032 . S
Zn29 O33 2.086 . S
Zn29 O38 1.977 . S
O30 Zn29 2.032 . S
O30 C34 1.278 . S
C31 O32 1.203 . S
C31 O38 1.267 . S
O32 C31 1.203 . S
O33 C26 1.185 . S
O33 Zn29 2.086 . S
C34 O30 1.278 . S
C34 O35 1.211 . S
O35 C34 1.211 . S
C36 O28 1.284 . S
C36 O37 1.273 . S
O37 C36 1.273 . S
O38 Zn29 1.977 . S
O38 C31 1.267 . S
C39 O40 1.160 . S
C39 O46 1.185 . S
O40 C39 1.160 . S
O41 Zn42 1.899 . S
O41 C49 1.284 . S
Zn42 O41 1.899 . S
Zn42 O43 2.032 . S
Zn42 O46 2.086 . S
Zn42 O51 1.977 . S
O43 Zn42 2.032 . S
O43 C47 1.278 . S
C44 O45 1.203 . S
C44 O51 1.267 . S
O45 C44 1.203 . S
O46 C39 1.185 . S
O46 Zn42 2.086 . S
C47 O43 1.278 . S
C47 O48 1.211 . S
O48 C47 1.211 . S
C49 O41 1.284 . S
C49 O50 1.273 . S
O50 C49 1.273 . S
O51 Zn42 1.977 . S
O51 C44 1.267 . S
C52 O53 1.160 . S
C52 O59 1.185 . S
O53 C52 1.160 . S
O54 Zn55 1.899 . S
O54 C62 1.284 . S
Zn55 O54 1.899 . S
Zn55 O56 2.032 . S
Zn55 O59 2.086 . S
Zn55 O64 1.977 . S
O56 Zn55 2.032 . S
O56 C60 1.278 . S
C57 O58 1.203 . S
C57 O64 1.267 . S
O58 C57 1.203 . S
O59 C52 1.185 . S
O59 Zn55 2.086 . S
C60 O56 1.278 . S
C60 O61 1.211 . S
O61 C60 1.211 . S
C62 O54 1.284 . S
C62 O63 1.273 . S
O63 C62 1.273 . S
O64 Zn55 1.977 . S
O64 C57 1.267 . S
C65 O66 1.160 . S
C65 O72 1.185 . S
O66 C65 1.160 . S
O67 Zn68 1.899 . S
O67 C75 1.284 . S
Zn68 O67 1.899 . S
Zn68 O69 2.032 . S
Zn68 O72 2.086 . S
Zn68 O77 1.977 . S
O69 Zn68 2.032 . S
O69 C73 1.278 . S
C70 O71 1.203 . S
C70 O77 1.267 . S
O71 C70 1.203 . S
O72 C65 1.185 . S
O72 Zn68 2.086 . S
C73 O69 1.278 . S
C73 O74 1.211 . S
O74 C73 1.211 . S
C75 O67 1.284 . S
C75 O76 1.273 . S
O76 C75 1.273 . S
O77 Zn68 1.977 . S
O77 C70 1.267 . S
C78 O79 1.160 . S
C78 O85 1.185 . S
O79 C78 1.160 . S
O80 Zn81 1.899 . S
O80 C88 1.284 . S
Zn81 O80 1.899 . S
Zn81 O82 2.032 . S
Zn81 O85 2.086 . S
Zn81 O90 1.977 . S
O82 Zn81 2.032 . S
O82 C86 1.278 . S
C83 O84 1.203 . S
C83 O90 1.267 . S
O84 C83 1.203 . S
O85 C78 1.185 . S
O85 Zn81 2.086 . S
C86 O82 1.278 . S
C86 O87 1.211 . S
O87 C86 1.211 . S
C88 O80 1.284 . S
C88 O89 1.273 . S
O89 C88 1.273 . S
O90 Zn81 1.977 . S
O90 C83 1.267 . S
C91 O92 1.160 . S
C91 O98 1.185 . S
O92 C91 1.160 . S
O93 Zn94 1.899 . S
O93 C101 1.284 . S
Zn94 O93 1.899 . S
Zn94 O95 2.032 . S
Zn94 O98 2.086 . S
Zn94 O103 1.977 . S
O95 Zn94 2.032 . S
O95 C99 1.278 . S
C96 O97 1.203 . S
C96 O103 1.267 . S
O97 C96 1.203 . S
O98 C91 1.185 . S
O98 Zn94 2.086 . S
C99 O95 1.278 . S
C99 O100 1.211 . S
O100 C99 1.211 . S
C101 O93 1.284 . S
C101 O102 1.273 . S
O102 C101 1.273 . S
O103 Zn94 1.977 . S
O103 C96 1.267 . S
C104 O105 1.160 . S
C104 O111 1.185 . S
O105 C104 1.160 . S
O106 Zn107 1.899 . S
O106 C114 1.284 . S
Zn107 O106 1.899 . S
Zn107 O108 2.032 . S
Zn107 O111 2.086 . S
Zn107 O116 1.977 . S
O108 Zn107 2.032 . S
O108 C112 1.278 . S
C109 O110 1.203 . S
C109 O116 1.267 . S
O110 C109 1.203 . S
O111 C104 1.185 . S
O111 Zn107 2.086 . S
C112 O108 1.278 . S
C112 O113 1.211 . S
O113 C112 1.211 . S
C114 O106 1.284 . S
C114 O115 1.273 . S
O115 C114 1.273 . S
O116 Zn107 1.977 . S
O116 C109 1.267 . S
C117 O118 1.160 . S
C117 O124 1.185 . S
O118 C117 1.160 . S
O119 Zn120 1.899 . S
O119 C127 1.284 . S
Zn120 O119 1.899 . S
Zn120 O121 2.032 . S
Zn120 O124 2.086 . S
Zn120 O129 1.977 . S
O121 Zn120 2.032 . S
O121 C125 1.278 . S
C122 O123 1.203 . S
C122 O129 1.267 . S
O123 C122 1.203 . S
O124 C117 1.185 . S
O124 Zn120 2.086 . S
C125 O121 1.278 . S
C125 O126 1.211 . S
O126 C125 1.211 . S
C127 O119 1.284 . S
C127 O128 1.273 . S
O128 C127 1.273 . S
O129 Zn120 1.977 . S
O129 C122 1.267 . S
C130 O131 1.160 . S
C130 O137 1.185 . S
O131 C130 1.160 . S
O132 Zn133 1.899 . S
O132 C140 1.284 . S
Zn133 O132 1.899 . S
Zn133 O134 2.032 . S
Zn133 O137 2.086 . S
Zn133 O142 1.977 . S
O134 Zn133 2.032 . S
O134 C138 1.278 . S
C135 O136 1.203 . S
C135 O142 1.267 . S
O136 C135 1.203 . S
O137 C130 1.185 . S
O137 Zn133 2.086 . S
C138 O134 1.278 . S
C138 O139 1.211 . S
O139 C138 1.211 . S
C140 O132 1.284 . S
C140 O141 1.273 . S
O141 C140 1.273 . S
O142 Zn133 1.977 . S
O142 C135 1.267 . S
C143 O144 1.160 . S
C143 O150 1.185 . S
O144 C143 1.160 . S
O145 Zn146 1.899 . S
O145 C153 1.284 . S
Zn146 O145 1.899 . S
Zn146 O147 2.032 . S
Zn146 O150 2.086 . S
Zn146 O155 1.977 . S
O147 Zn146 2.032 . S
O147 C151 1.278 . S
C148 O149 1.203 . S
C148 O155 1.267 . S
O149 C148 1.203 . S
O150 C143 1.185 . S
O150 Zn146 2.086 . S
C151 O147 1.278 . S
C151 O152 1.211 . S
O152 C151 1.211 . S
C153 O145 1.284 . S
C153 O154 1.273 . S
O154 C153 1.273 . S
O155 Zn146 1.977 . S
O155 C148 1.267 . S
H156 C174 0.951 . S
H157 C176 0.951 . S
H158 C178 0.950 . S
H159 C179 0.950 . S
H160 C181 0.950 . S
H161 C184 0.950 . S
H162 C185 0.950 . S
H163 C187 0.950 1_556 S
H164 C188 0.950 . S
H165 C189 0.951 . S
H166 C191 0.951 . S
H167 C193 0.950 . S
H168 C194 0.950 . S
H169 C196 0.950 . S
H170 C199 0.950 . S
H171 C200 0.950 . S
H172 C202 0.950 . S
H173 C203 0.950 . S
C174 H156 0.951 . S
C174 C175 1.366 . S
C174 C176 1.388 . S
C175 C174 1.366 . S
C175 C179 1.385 . S
C176 H157 0.951 . S
C176 C174 1.388 . S
C176 C177 1.366 . S
C177 C176 1.366 . S
C177 C178 1.414 . S
C177 C180 1.499 . S
C178 H158 0.950 . S
C178 C177 1.414 . S
C178 C179 1.374 . S
C179 H159 0.950 . S
C179 C175 1.385 . S
C179 C178 1.374 . S
C180 C177 1.499 . S
C180 C181 1.373 . S
C180 C182 1.389 . S
C181 H160 0.950 . S
C181 C180 1.373 . S
C181 C197 1.377 . S
C182 C180 1.389 . S
C182 C183 1.524 . S
C182 C196 1.377 . S
C183 C182 1.524 . S
C183 C184 1.397 . S
C183 C188 1.363 . S
C184 H161 0.950 . S
C184 C183 1.397 . S
C184 C185 1.334 . S
C185 H162 0.950 . S
C185 C184 1.334 . S
C185 C186 1.287 1_554 S
C186 C185 1.287 1_556 S
C186 C187 1.524 1_556 S
C186 H205 0.913 . S
C187 H163 0.950 1_554 S
C187 C186 1.524 1_554 S
C187 C188 1.415 . S
C188 H164 0.950 . S
C188 C183 1.363 . S
C188 C187 1.415 . S
C189 H165 0.951 . S
C189 C190 1.366 . S
C189 C191 1.388 . S
C190 C189 1.366 . S
C190 C194 1.385 . S
C191 H166 0.951 . S
C191 C189 1.388 . S
C191 C192 1.366 . S
C192 C191 1.366 . S
C192 C193 1.414 . S
C192 C195 1.499 . S
C193 H167 0.950 . S
C193 C192 1.414 . S
C193 C194 1.374 . S
C194 H168 0.950 . S
C194 C190 1.385 . S
C194 C193 1.374 . S
C195 C192 1.499 . S
C195 C196 1.373 . S
C195 C197 1.389 . S
C196 H169 0.950 . S
C196 C182 1.377 . S
C196 C195 1.373 . S
C197 C181 1.377 . S
C197 C195 1.389 . S
C197 C198 1.524 . S
C198 C197 1.524 . S
C198 C199 1.397 . S
C198 C203 1.363 . S
C199 H170 0.950 . S
C199 C198 1.397 . S
C199 C200 1.334 . S
C200 H171 0.950 . S
C200 C199 1.334 . S
C200 C201 1.287 . S
C201 C200 1.287 . S
C201 C202 1.524 . S
C201 H204 0.999 . S
C202 H172 0.950 . S
C202 C201 1.524 . S
C202 C203 1.415 . S
C203 H173 0.950 . S
C203 C198 1.363 . S
C203 C202 1.415 . S
H204 C201 0.999 . S
H205 C186 0.913 . S
H206 C224 0.951 . S
H207 C226 0.951 . S
H208 C228 0.950 . S
H209 C229 0.950 . S
H210 C231 0.950 . S
H211 C234 0.950 . S
H212 C235 0.950 . S
H213 C237 0.950 . S
H214 C238 0.950 . S
H215 C239 0.951 . S
H216 C241 0.951 . S
H217 C243 0.950 . S
H218 C244 0.950 . S
H219 C246 0.950 . S
H220 C249 0.950 . S
H221 C250 0.950 . S
H222 C252 0.950 . S
H223 C253 0.950 . S
C224 H206 0.951 . S
C224 C225 1.366 . S
C224 C226 1.388 . S
C225 C224 1.366 . S
C225 C229 1.385 . S
C226 H207 0.951 . S
C226 C224 1.388 . S
C226 C227 1.366 . S
C227 C226 1.366 . S
C227 C228 1.414 . S
C227 C230 1.499 . S
C228 H208 0.950 . S
C228 C227 1.414 . S
C228 C229 1.374 . S
C229 H209 0.950 . S
C229 C225 1.385 . S
C229 C228 1.374 . S
C230 C227 1.499 . S
C230 C231 1.373 . S
C230 C232 1.389 . S
C231 H210 0.950 . S
C231 C230 1.373 . S
C231 C247 1.377 . S
C232 C230 1.389 . S
C232 C233 1.524 . S
C232 C246 1.377 . S
C233 C232 1.524 . S
C233 C234 1.397 . S
C233 C238 1.363 . S
C234 H211 0.950 . S
C234 C233 1.397 . S
C234 C235 1.334 . S
C235 H212 0.950 . S
C235 C234 1.334 . S
C235 C236 1.287 . S
C236 C235 1.287 . S
C236 C237 1.524 . S
C236 H255 0.913 . S
C237 H213 0.950 . S
C237 C236 1.524 . S
C237 C238 1.415 . S
C238 H214 0.950 . S
C238 C233 1.363 . S
C238 C237 1.415 . S
C239 H215 0.951 . S
C239 C240 1.366 . S
C239 C241 1.388 . S
C240 C239 1.366 . S
C240 C244 1.385 . S
C241 H216 0.951 . S
C241 C239 1.388 . S
C241 C242 1.366 . S
C242 C241 1.366 . S
C242 C243 1.414 . S
C242 C245 1.499 . S
C243 H217 0.950 . S
C243 C242 1.414 . S
C243 C244 1.374 . S
C244 H218 0.950 . S
C244 C240 1.385 . S
C244 C243 1.374 . S
C245 C242 1.499 . S
C245 C246 1.373 . S
C245 C247 1.389 . S
C246 H219 0.950 . S
C246 C232 1.377 . S
C246 C245 1.373 . S
C247 C231 1.377 . S
C247 C245 1.389 . S
C247 C248 1.524 . S
C248 C247 1.524 . S
C248 C249 1.397 1_545 S
C248 C253 1.363 . S
C249 H220 0.950 . S
C249 C248 1.397 1_565 S
C249 C250 1.334 . S
C250 H221 0.950 . S
C250 C249 1.334 . S
C250 C251 1.287 . S
C251 C250 1.287 . S
C251 C252 1.524 . S
C251 H254 0.999 . S
C252 H222 0.950 . S
C252 C251 1.524 . S
C252 C253 1.415 1_565 S
C253 H223 0.950 . S
C253 C248 1.363 . S
C253 C252 1.415 1_545 S
H254 C251 0.999 . S
H255 C236 0.913 . S
H256 C274 0.951 . S
H257 C276 0.951 . S
H258 C278 0.950 . S
H259 C279 0.950 . S
H260 C281 0.950 . S
H261 C284 0.950 . S
H262 C285 0.950 . S
H263 C287 0.950 . S
H264 C288 0.950 . S
H265 C289 0.951 . S
H266 C291 0.951 . S
H267 C293 0.950 . S
H268 C294 0.950 . S
H269 C296 0.950 . S
H270 C299 0.950 . S
H271 C300 0.950 . S
H272 C302 0.950 . S
H273 C303 0.950 . S
C274 H256 0.951 . S
C274 C275 1.366 . S
C274 C276 1.388 . S
C275 C274 1.366 . S
C275 C279 1.385 . S
C276 H257 0.951 . S
C276 C274 1.388 . S
C276 C277 1.366 . S
C277 C276 1.366 . S
C277 C278 1.414 . S
C277 C280 1.499 . S
C278 H258 0.950 . S
C278 C277 1.414 . S
C278 C279 1.374 . S
C279 H259 0.950 . S
C279 C275 1.385 . S
C279 C278 1.374 . S
C280 C277 1.499 . S
C280 C281 1.373 . S
C280 C282 1.389 . S
C281 H260 0.950 . S
C281 C280 1.373 . S
C281 C297 1.377 . S
C282 C280 1.389 . S
C282 C283 1.524 . S
C282 C296 1.377 . S
C283 C282 1.524 . S
C283 C284 1.397 . S
C283 C288 1.363 . S
C284 H261 0.950 . S
C284 C283 1.397 . S
C284 C285 1.334 . S
C285 H262 0.950 . S
C285 C284 1.334 . S
C285 C286 1.287 . S
C286 C285 1.287 . S
C286 C287 1.524 . S
C286 H305 0.913 . S
C287 H263 0.950 . S
C287 C286 1.524 . S
C287 C288 1.415 . S
C288 H264 0.950 . S
C288 C283 1.363 . S
C288 C287 1.415 . S
C289 H265 0.951 . S
C289 C290 1.366 . S
C289 C291 1.388 . S
C290 C289 1.366 . S
C290 C294 1.385 . S
C291 H266 0.951 . S
C291 C289 1.388 . S
C291 C292 1.366 . S
C292 C291 1.366 . S
C292 C293 1.414 . S
C292 C295 1.499 . S
C293 H267 0.950 . S
C293 C292 1.414 . S
C293 C294 1.374 . S
C294 H268 0.950 . S
C294 C290 1.385 . S
C294 C293 1.374 . S
C295 C292 1.499 . S
C295 C296 1.373 . S
C295 C297 1.389 . S
C296 H269 0.950 . S
C296 C282 1.377 . S
C296 C295 1.373 . S
C297 C281 1.377 . S
C297 C295 1.389 . S
C297 C298 1.524 . S
C298 C297 1.524 . S
C298 C299 1.397 . S
C298 C303 1.363 . S
C299 H270 0.950 . S
C299 C298 1.397 . S
C299 C300 1.334 . S
C300 H271 0.950 . S
C300 C299 1.334 . S
C300 C301 1.287 . S
C301 C300 1.287 . S
C301 C302 1.524 . S
C301 H304 0.999 . S
C302 H272 0.950 . S
C302 C301 1.524 . S
C302 C303 1.415 . S
C303 H273 0.950 . S
C303 C298 1.363 . S
C303 C302 1.415 . S
H304 C301 0.999 . S
H305 C286 0.913 . S
H306 C324 0.951 . S
H307 C326 0.951 . S
H308 C328 0.950 . S
H309 C329 0.950 . S
H310 C331 0.950 . S
H311 C334 0.950 . S
H312 C335 0.950 . S
H313 C337 0.950 . S
H314 C338 0.950 1_655 S
H315 C339 0.951 . S
H316 C341 0.951 . S
H317 C343 0.950 . S
H318 C344 0.950 . S
H319 C346 0.950 . S
H320 C349 0.950 . S
H321 C350 0.950 . S
H322 C352 0.950 . S
H323 C353 0.950 . S
C324 H306 0.951 . S
C324 C325 1.366 . S
C324 C326 1.388 . S
C325 C324 1.366 . S
C325 C329 1.385 . S
C326 H307 0.951 . S
C326 C324 1.388 . S
C326 C327 1.366 . S
C327 C326 1.366 . S
C327 C328 1.414 . S
C327 C330 1.499 . S
C328 H308 0.950 . S
C328 C327 1.414 . S
C328 C329 1.374 . S
C329 H309 0.950 . S
C329 C325 1.385 . S
C329 C328 1.374 . S
C330 C327 1.499 . S
C330 C331 1.373 . S
C330 C332 1.389 . S
C331 H310 0.950 . S
C331 C330 1.373 . S
C331 C347 1.377 . S
C332 C330 1.389 . S
C332 C333 1.524 . S
C332 C346 1.377 . S
C333 C332 1.524 . S
C333 C334 1.397 1_655 S
C333 C338 1.363 1_655 S
C334 H311 0.950 . S
C334 C333 1.397 1_455 S
C334 C335 1.334 . S
C335 H312 0.950 . S
C335 C334 1.334 . S
C335 C336 1.287 . S
C336 C335 1.287 . S
C336 C337 1.524 . S
C336 H355 0.913 . S
C337 H313 0.950 . S
C337 C336 1.524 . S
C337 C338 1.415 . S
C338 H314 0.950 1_455 S
C338 C333 1.363 1_455 S
C338 C337 1.415 . S
C339 H315 0.951 . S
C339 C340 1.366 . S
C339 C341 1.388 . S
C340 C339 1.366 . S
C340 C344 1.385 . S
C341 H316 0.951 . S
C341 C339 1.388 . S
C341 C342 1.366 . S
C342 C341 1.366 . S
C342 C343 1.414 . S
C342 C345 1.499 . S
C343 H317 0.950 . S
C343 C342 1.414 . S
C343 C344 1.374 . S
C344 H318 0.950 . S
C344 C340 1.385 . S
C344 C343 1.374 . S
C345 C342 1.499 . S
C345 C346 1.373 . S
C345 C347 1.389 . S
C346 H319 0.950 . S
C346 C332 1.377 . S
C346 C345 1.373 . S
C347 C331 1.377 . S
C347 C345 1.389 . S
C347 C348 1.524 . S
C348 C347 1.524 . S
C348 C349 1.397 . S
C348 C353 1.363 . S
C349 H320 0.950 . S
C349 C348 1.397 . S
C349 C350 1.334 . S
C350 H321 0.950 . S
C350 C349 1.334 . S
C350 C351 1.287 . S
C351 C350 1.287 . S
C351 C352 1.524 . S
C351 H354 0.999 . S
C352 H322 0.950 . S
C352 C351 1.524 . S
C352 C353 1.415 . S
C353 H323 0.950 . S
C353 C348 1.363 . S
C353 C352 1.415 . S
H354 C351 0.999 . S
H355 C336 0.913 . S
H356 C374 0.951 . S
H357 C376 0.951 . S
H358 C378 0.950 . S
H359 C379 0.950 . S
H360 C381 0.950 . S
H361 C384 0.950 . S
H362 C385 0.950 . S
H363 C387 0.950 . S
H364 C388 0.950 . S
H365 C389 0.951 . S
H366 C391 0.951 . S
H367 C393 0.950 . S
H368 C394 0.950 . S
H369 C396 0.950 . S
H370 C399 0.950 . S
H371 C400 0.950 1_545 S
H372 C402 0.950 . S
H373 C403 0.950 . S
C374 H356 0.951 . S
C374 C375 1.366 . S
C374 C376 1.388 . S
C375 C374 1.366 . S
C375 C379 1.385 . S
C376 H357 0.951 . S
C376 C374 1.388 . S
C376 C377 1.366 . S
C377 C376 1.366 . S
C377 C378 1.414 . S
C377 C380 1.499 . S
C378 H358 0.950 . S
C378 C377 1.414 . S
C378 C379 1.374 . S
C379 H359 0.950 . S
C379 C375 1.385 . S
C379 C378 1.374 . S
C380 C377 1.499 . S
C380 C381 1.373 . S
C380 C382 1.389 . S
C381 H360 0.950 . S
C381 C380 1.373 . S
C381 C397 1.377 . S
C382 C380 1.389 . S
C382 C383 1.524 . S
C382 C396 1.377 . S
C383 C382 1.524 . S
C383 C384 1.397 . S
C383 C388 1.363 . S
C384 H361 0.950 . S
C384 C383 1.397 . S
C384 C385 1.334 . S
C385 H362 0.950 . S
C385 C384 1.334 . S
C385 C386 1.287 . S
C386 C385 1.287 . S
C386 C387 1.524 . S
C386 H405 0.913 . S
C387 H363 0.950 . S
C387 C386 1.524 . S
C387 C388 1.415 . S
C388 H364 0.950 . S
C388 C383 1.363 . S
C388 C387 1.415 . S
C389 H365 0.951 . S
C389 C390 1.366 . S
C389 C391 1.388 . S
C390 C389 1.366 . S
C390 C394 1.385 . S
C391 H366 0.951 . S
C391 C389 1.388 . S
C391 C392 1.366 . S
C392 C391 1.366 . S
C392 C393 1.414 . S
C392 C395 1.499 . S
C393 H367 0.950 . S
C393 C392 1.414 . S
C393 C394 1.374 . S
C394 H368 0.950 . S
C394 C390 1.385 . S
C394 C393 1.374 . S
C395 C392 1.499 . S
C395 C396 1.373 . S
C395 C397 1.389 . S
C396 H369 0.950 . S
C396 C382 1.377 . S
C396 C395 1.373 . S
C397 C381 1.377 . S
C397 C395 1.389 . S
C397 C398 1.524 . S
C398 C397 1.524 . S
C398 C399 1.397 . S
C398 C403 1.363 . S
C399 H370 0.950 . S
C399 C398 1.397 . S
C399 C400 1.334 . S
C400 H371 0.950 1_565 S
C400 C399 1.334 . S
C400 C401 1.287 . S
C401 C400 1.287 . S
C401 C402 1.524 . S
C401 H404 0.999 . S
C402 H372 0.950 . S
C402 C401 1.524 . S
C402 C403 1.415 . S
C403 H373 0.950 . S
C403 C398 1.363 . S
C403 C402 1.415 . S
H404 C401 0.999 . S
H405 C386 0.913 . S
H406 C424 0.951 . S
H407 C426 0.951 . S
H408 C428 0.950 . S
H409 C429 0.950 . S
H410 C431 0.950 . S
H411 C434 0.950 . S
H412 C435 0.950 . S
H413 C437 0.950 1_554 S
H414 C438 0.950 . S
H415 C439 0.951 . S
H416 C441 0.951 . S
H417 C443 0.950 . S
H418 C444 0.950 . S
H419 C446 0.950 . S
H420 C449 0.950 . S
H421 C450 0.950 . S
H422 C452 0.950 . S
H423 C453 0.950 . S
C424 H406 0.951 . S
C424 C425 1.366 . S
C424 C426 1.388 . S
C425 C424 1.366 . S
C425 C429 1.385 . S
C426 H407 0.951 . S
C426 C424 1.388 . S
C426 C427 1.366 . S
C427 C426 1.366 . S
C427 C428 1.414 . S
C427 C430 1.499 . S
C428 H408 0.950 . S
C428 C427 1.414 . S
C428 C429 1.374 . S
C429 H409 0.950 . S
C429 C425 1.385 . S
C429 C428 1.374 . S
C430 C427 1.499 . S
C430 C431 1.373 . S
C430 C432 1.389 . S
C431 H410 0.950 . S
C431 C430 1.373 . S
C431 C447 1.377 . S
C432 C430 1.389 . S
C432 C433 1.524 . S
C432 C446 1.377 . S
C433 C432 1.524 . S
C433 C434 1.397 . S
C433 C438 1.363 . S
C434 H411 0.950 . S
C434 C433 1.397 . S
C434 C435 1.334 . S
C435 H412 0.950 . S
C435 C434 1.334 . S
C435 C436 1.287 . S
C436 C435 1.287 . S
C436 C437 1.524 . S
C436 H455 0.913 1_556 S
C437 H413 0.950 1_556 S
C437 C436 1.524 . S
C437 C438 1.415 . S
C438 H414 0.950 . S
C438 C433 1.363 . S
C438 C437 1.415 . S
C439 H415 0.951 . S
C439 C440 1.366 . S
C439 C441 1.388 . S
C440 C439 1.366 . S
C440 C444 1.385 . S
C441 H416 0.951 . S
C441 C439 1.388 . S
C441 C442 1.366 . S
C442 C441 1.366 . S
C442 C443 1.414 . S
C442 C445 1.499 . S
C443 H417 0.950 . S
C443 C442 1.414 . S
C443 C444 1.374 . S
C444 H418 0.950 . S
C444 C440 1.385 . S
C444 C443 1.374 . S
C445 C442 1.499 . S
C445 C446 1.373 . S
C445 C447 1.389 . S
C446 H419 0.950 . S
C446 C432 1.377 . S
C446 C445 1.373 . S
C447 C431 1.377 . S
C447 C445 1.389 . S
C447 C448 1.524 . S
C448 C447 1.524 . S
C448 C449 1.397 . S
C448 C453 1.363 . S
C449 H420 0.950 . S
C449 C448 1.397 . S
C449 C450 1.334 . S
C450 H421 0.950 . S
C450 C449 1.334 . S
C450 C451 1.287 . S
C451 C450 1.287 . S
C451 C452 1.524 . S
C451 H454 0.999 . S
C452 H422 0.950 . S
C452 C451 1.524 . S
C452 C453 1.415 . S
C453 H423 0.950 . S
C453 C448 1.363 . S
C453 C452 1.415 . S
H454 C451 0.999 . S
H455 C436 0.913 1_554 S
H456 C474 0.951 . S
H457 C476 0.951 . S
H458 C478 0.950 . S
H459 C479 0.950 . S
H460 C481 0.950 . S
H461 C484 0.950 . S
H462 C485 0.950 . S
H463 C487 0.950 . S
H464 C488 0.950 . S
H465 C489 0.951 1_554 S
H466 C491 0.951 . S
H467 C493 0.950 . S
H468 C494 0.950 . S
H469 C496 0.950 1_556 S
H470 C499 0.950 . S
H471 C500 0.950 . S
H472 C502 0.950 . S
H473 C503 0.950 . S
C474 H456 0.951 . S
C474 C475 1.366 . S
C474 C476 1.388 . S
C475 C474 1.366 . S
C475 C479 1.385 . S
C476 H457 0.951 . S
C476 C474 1.388 . S
C476 C477 1.366 . S
C477 C476 1.366 . S
C477 C478 1.414 . S
C477 C480 1.499 . S
C478 H458 0.950 . S
C478 C477 1.414 . S
C478 C479 1.374 . S
C479 H459 0.950 . S
C479 C475 1.385 . S
C479 C478 1.374 . S
C480 C477 1.499 . S
C480 C481 1.373 . S
C480 C482 1.389 . S
C481 H460 0.950 . S
C481 C480 1.373 . S
C481 C497 1.377 . S
C482 C480 1.389 . S
C482 C483 1.524 . S
C482 C496 1.377 . S
C483 C482 1.524 . S
C483 C484 1.397 . S
C483 C488 1.363 1_554 S
C484 H461 0.950 . S
C484 C483 1.397 . S
C484 C485 1.334 . S
C485 H462 0.950 . S
C485 C484 1.334 . S
C485 C486 1.287 . S
C486 C485 1.287 . S
C486 C487 1.524 1_554 S
C486 H505 0.913 . S
C487 H463 0.950 . S
C487 C486 1.524 1_556 S
C487 C488 1.415 . S
C488 H464 0.950 . S
C488 C483 1.363 1_556 S
C488 C487 1.415 . S
C489 H465 0.951 1_556 S
C489 C490 1.366 . S
C489 C491 1.388 1_556 S
C490 C489 1.366 . S
C490 C494 1.385 . S
C491 H466 0.951 . S
C491 C489 1.388 1_554 S
C491 C492 1.349 1_554 S
C492 C491 1.349 1_556 S
C492 C493 1.456 . S
C492 C495 1.475 1_556 S
C493 H467 0.950 . S
C493 C492 1.456 . S
C493 C494 1.374 . S
C494 H468 0.950 . S
C494 C490 1.385 . S
C494 C493 1.374 . S
C495 C492 1.475 1_554 S
C495 C496 1.373 . S
C495 C497 1.389 . S
C496 H469 0.950 1_554 S
C496 C482 1.377 . S
C496 C495 1.373 . S
C497 C481 1.377 . S
C497 C495 1.389 . S
C497 C498 1.524 . S
C498 C497 1.524 . S
C498 C499 1.397 . S
C498 C503 1.363 . S
C499 H470 0.950 . S
C499 C498 1.397 . S
C499 C500 1.334 . S
C500 H471 0.950 . S
C500 C499 1.334 . S
C500 C501 1.287 . S
C501 C500 1.287 . S
C501 C502 1.524 . S
C501 H504 0.999 . S
C502 H472 0.950 . S
C502 C501 1.524 . S
C502 C503 1.415 . S
C503 H473 0.950 . S
C503 C498 1.363 . S
C503 C502 1.415 . S
H504 C501 0.999 . S
H505 C486 0.913 . S
H506 C524 0.951 . S
H507 C526 0.951 . S
H508 C528 0.950 . S
H509 C529 0.950 . S
H510 C531 0.950 . S
H511 C534 0.950 . S
H512 C535 0.950 . S
H513 C537 0.950 . S
H514 C538 0.950 . S
H515 C539 0.951 1_455 S
H516 C541 0.951 . S
H517 C543 0.950 . S
H518 C544 0.950 . S
H519 C546 0.950 . S
H520 C549 0.950 . S
H521 C550 0.950 . S
H522 C552 0.950 . S
H523 C553 0.950 . S
C524 H506 0.951 . S
C524 C525 1.366 . S
C524 C526 1.388 . S
C525 C524 1.366 . S
C525 C529 1.385 . S
C526 H507 0.951 . S
C526 C524 1.388 . S
C526 C527 1.366 . S
C527 C526 1.366 . S
C527 C528 1.414 . S
C527 C530 1.499 . S
C528 H508 0.950 . S
C528 C527 1.414 . S
C528 C529 1.374 . S
C529 H509 0.950 . S
C529 C525 1.385 . S
C529 C528 1.374 . S
C530 C527 1.499 . S
C530 C531 1.373 . S
C530 C532 1.389 . S
C531 H510 0.950 . S
C531 C530 1.373 . S
C531 C547 1.377 . S
C532 C530 1.389 . S
C532 C533 1.524 . S
C532 C546 1.377 . S
C533 C532 1.524 . S
C533 C534 1.397 . S
C533 C538 1.363 . S
C534 H511 0.950 . S
C534 C533 1.397 . S
C534 C535 1.334 . S
C535 H512 0.950 . S
C535 C534 1.334 . S
C535 C536 1.287 . S
C536 C535 1.287 . S
C536 C537 1.524 . S
C536 H555 0.913 . S
C537 H513 0.950 . S
C537 C536 1.524 . S
C537 C538 1.415 . S
C538 H514 0.950 . S
C538 C533 1.363 . S
C538 C537 1.415 . S
C539 H515 0.951 1_655 S
C539 C540 1.366 . S
C539 C541 1.388 . S
C540 C539 1.366 . S
C540 C544 1.385 . S
C541 H516 0.951 . S
C541 C539 1.388 . S
C541 C542 1.366 . S
C542 C541 1.366 . S
C542 C543 1.414 . S
C542 C545 1.499 . S
C543 H517 0.950 . S
C543 C542 1.414 . S
C543 C544 1.374 . S
C544 H518 0.950 . S
C544 C540 1.385 . S
C544 C543 1.374 . S
C545 C542 1.499 . S
C545 C546 1.373 . S
C545 C547 1.389 . S
C546 H519 0.950 . S
C546 C532 1.377 . S
C546 C545 1.373 . S
C547 C531 1.377 . S
C547 C545 1.389 . S
C547 C548 1.524 . S
C548 C547 1.524 . S
C548 C549 1.397 . S
C548 C553 1.363 . S
C549 H520 0.950 . S
C549 C548 1.397 . S
C549 C550 1.334 . S
C550 H521 0.950 . S
C550 C549 1.334 . S
C550 C551 1.287 . S
C551 C550 1.287 . S
C551 C552 1.524 . S
C551 H554 0.999 1_655 S
C552 H522 0.950 . S
C552 C551 1.524 . S
C552 C553 1.415 . S
C553 H523 0.950 . S
C553 C548 1.363 . S
C553 C552 1.415 . S
H554 C551 0.999 1_455 S
H555 C536 0.913 . S
H556 C574 0.951 . S
H557 C576 0.951 . S
H558 C578 0.950 . S
H559 C579 0.950 . S
H560 C581 0.950 . S
H561 C584 0.950 . S
H562 C585 0.950 . S
H563 C587 0.950 . S
H564 C588 0.950 . S
H565 C589 0.951 . S
H566 C591 0.951 . S
H567 C593 0.950 . S
H568 C594 0.950 . S
H569 C596 0.950 . S
H570 C599 0.950 . S
H571 C600 0.950 . S
H572 C602 0.950 . S
H573 C603 0.950 . S
C574 H556 0.951 . S
C574 C575 1.366 . S
C574 C576 1.388 . S
C575 C574 1.366 . S
C575 C579 1.385 . S
C576 H557 0.951 . S
C576 C574 1.388 . S
C576 C577 1.366 . S
C577 C576 1.366 . S
C577 C578 1.414 . S
C577 C580 1.499 . S
C578 H558 0.950 . S
C578 C577 1.414 . S
C578 C579 1.374 . S
C579 H559 0.950 . S
C579 C575 1.385 . S
C579 C578 1.374 . S
C580 C577 1.499 . S
C580 C581 1.373 . S
C580 C582 1.389 . S
C581 H560 0.950 . S
C581 C580 1.373 . S
C581 C597 1.377 . S
C582 C580 1.389 . S
C582 C583 1.524 . S
C582 C596 1.377 . S
C583 C582 1.524 . S
C583 C584 1.397 . S
C583 C588 1.363 . S
C584 H561 0.950 . S
C584 C583 1.397 . S
C584 C585 1.334 . S
C585 H562 0.950 . S
C585 C584 1.334 . S
C585 C586 1.287 . S
C586 C585 1.287 . S
C586 C587 1.524 . S
C586 H605 0.913 . S
C587 H563 0.950 . S
C587 C586 1.524 . S
C587 C588 1.415 . S
C588 H564 0.950 . S
C588 C583 1.363 . S
C588 C587 1.415 . S
C589 H565 0.951 . S
C589 C590 1.366 . S
C589 C591 1.388 . S
C590 C589 1.366 . S
C590 C594 1.385 . S
C591 H566 0.951 . S
C591 C589 1.388 . S
C591 C592 1.366 . S
C592 C591 1.366 . S
C592 C593 1.414 . S
C592 C595 1.499 . S
C593 H567 0.950 . S
C593 C592 1.414 . S
C593 C594 1.374 . S
C594 H568 0.950 . S
C594 C590 1.385 . S
C594 C593 1.374 . S
C595 C592 1.499 . S
C595 C596 1.373 . S
C595 C597 1.389 . S
C596 H569 0.950 . S
C596 C582 1.377 . S
C596 C595 1.373 . S
C597 C581 1.377 . S
C597 C595 1.389 . S
C597 C598 1.524 . S
C598 C597 1.524 . S
C598 C599 1.397 . S
C598 C603 1.363 . S
C599 H570 0.950 . S
C599 C598 1.397 . S
C599 C600 1.334 . S
C600 H571 0.950 . S
C600 C599 1.334 . S
C600 C601 1.287 . S
C601 C600 1.287 . S
C601 C602 1.524 . S
C601 H604 0.999 . S
C602 H572 0.950 . S
C602 C601 1.524 . S
C602 C603 1.415 . S
C603 H573 0.950 . S
C603 C598 1.363 . S
C603 C602 1.415 . S
H604 C601 0.999 . S
H605 C586 0.913 . S
H606 C624 0.951 . S
H607 C626 0.951 . S
H608 C628 0.950 . S
H609 C629 0.950 . S
H610 C631 0.950 . S
H611 C634 0.950 . S
H612 C635 0.950 . S
H613 C637 0.950 . S
H614 C638 0.950 . S
H615 C639 0.951 . S
H616 C641 0.951 . S
H617 C643 0.950 . S
H618 C644 0.950 . S
H619 C646 0.950 . S
H620 C649 0.950 . S
H621 C650 0.950 . S
H622 C652 0.950 . S
H623 C653 0.950 . S
C624 H606 0.951 . S
C624 C625 1.366 . S
C624 C626 1.388 . S
C625 C624 1.366 . S
C625 C629 1.385 . S
C626 H607 0.951 . S
C626 C624 1.388 . S
C626 C627 1.366 . S
C627 C626 1.366 . S
C627 C628 1.414 . S
C627 C630 1.499 . S
C628 H608 0.950 . S
C628 C627 1.414 . S
C628 C629 1.374 . S
C629 H609 0.950 . S
C629 C625 1.385 . S
C629 C628 1.374 . S
C630 C627 1.499 . S
C630 C631 1.373 . S
C630 C632 1.389 . S
C631 H610 0.950 . S
C631 C630 1.373 . S
C631 C647 1.377 . S
C632 C630 1.389 . S
C632 C633 1.524 . S
C632 C646 1.377 . S
C633 C632 1.524 . S
C633 C634 1.397 . S
C633 C638 1.363 . S
C634 H611 0.950 . S
C634 C633 1.397 . S
C634 C635 1.334 . S
C635 H612 0.950 . S
C635 C634 1.334 . S
C635 C636 1.287 . S
C636 C635 1.287 . S
C636 C637 1.524 . S
C636 H655 0.913 . S
C637 H613 0.950 . S
C637 C636 1.524 . S
C637 C638 1.415 . S
C638 H614 0.950 . S
C638 C633 1.363 . S
C638 C637 1.415 . S
C639 H615 0.951 . S
C639 C640 1.366 . S
C639 C641 1.388 . S
C640 C639 1.366 . S
C640 C644 1.385 . S
C641 H616 0.951 . S
C641 C639 1.388 . S
C641 C642 1.366 . S
C642 C641 1.366 . S
C642 C643 1.414 . S
C642 C645 1.499 . S
C643 H617 0.950 . S
C643 C642 1.414 . S
C643 C644 1.374 . S
C644 H618 0.950 . S
C644 C640 1.385 . S
C644 C643 1.374 . S
C645 C642 1.499 . S
C645 C646 1.373 . S
C645 C647 1.389 . S
C646 H619 0.950 . S
C646 C632 1.377 . S
C646 C645 1.373 . S
C647 C631 1.377 . S
C647 C645 1.389 . S
C647 C648 1.524 . S
C648 C647 1.524 . S
C648 C649 1.397 . S
C648 C653 1.363 . S
C649 H620 0.950 . S
C649 C648 1.397 . S
C649 C650 1.334 . S
C650 H621 0.950 . S
C650 C649 1.334 . S
C650 C651 1.287 . S
C651 C650 1.287 . S
C651 C652 1.524 . S
C651 H654 0.999 . S
C652 H622 0.950 . S
C652 C651 1.524 . S
C652 C653 1.415 . S
C653 H623 0.950 . S
C653 C648 1.363 . S
C653 C652 1.415 . S
H654 C651 0.999 . S
H655 C636 0.913 . S
H656 C674 0.951 . S
H657 C676 0.951 . S
H658 C678 0.950 . S
H659 C679 0.950 . S
H660 C681 0.950 . S
H661 C684 0.950 . S
H662 C685 0.950 1_655 S
H663 C687 0.950 . S
H664 C688 0.950 . S
H665 C689 0.951 . S
H666 C691 0.951 . S
H667 C693 0.950 . S
H668 C694 0.950 . S
H669 C696 0.950 . S
H670 C699 0.950 . S
H671 C700 0.950 . S
H672 C702 0.950 . S
H673 C703 0.950 . S
C674 H656 0.951 . S
C674 C675 1.366 . S
C674 C676 1.388 . S
C675 C674 1.366 . S
C675 C679 1.385 . S
C676 H657 0.951 . S
C676 C674 1.388 . S
C676 C677 1.366 . S
C677 C676 1.366 . S
C677 C678 1.414 . S
C677 C680 1.499 . S
C678 H658 0.950 . S
C678 C677 1.414 . S
C678 C679 1.374 . S
C679 H659 0.950 . S
C679 C675 1.385 . S
C679 C678 1.374 . S
C680 C677 1.499 . S
C680 C681 1.373 . S
C680 C682 1.389 . S
C681 H660 0.950 . S
C681 C680 1.373 . S
C681 C697 1.377 . S
C682 C680 1.389 . S
C682 C683 1.524 . S
C682 C696 1.377 . S
C683 C682 1.524 . S
C683 C684 1.397 . S
C683 C688 1.363 . S
C684 H661 0.950 . S
C684 C683 1.397 . S
C684 C685 1.334 . S
C685 H662 0.950 1_455 S
C685 C684 1.334 . S
C685 C686 1.287 1_455 S
C686 C685 1.287 1_655 S
C686 C687 1.524 1_655 S
C686 H705 0.913 . S
C687 H663 0.950 . S
C687 C686 1.524 1_455 S
C687 C688 1.415 . S
C688 H664 0.950 . S
C688 C683 1.363 . S
C688 C687 1.415 . S
C689 H665 0.951 . S
C689 C690 1.366 . S
C689 C691 1.388 . S
C690 C689 1.366 . S
C690 C694 1.385 . S
C691 H666 0.951 . S
C691 C689 1.388 . S
C691 C692 1.366 . S
C692 C691 1.366 . S
C692 C693 1.414 . S
C692 C695 1.499 . S
C693 H667 0.950 . S
C693 C692 1.414 . S
C693 C694 1.374 . S
C694 H668 0.950 . S
C694 C690 1.385 . S
C694 C693 1.374 . S
C695 C692 1.499 . S
C695 C696 1.373 . S
C695 C697 1.389 . S
C696 H669 0.950 . S
C696 C682 1.377 . S
C696 C695 1.373 . S
C697 C681 1.377 . S
C697 C695 1.389 . S
C697 C698 1.524 . S
C698 C697 1.524 . S
C698 C699 1.397 . S
C698 C703 1.363 . S
C699 H670 0.950 . S
C699 C698 1.397 . S
C699 C700 1.334 . S
C700 H671 0.950 . S
C700 C699 1.334 . S
C700 C701 1.287 . S
C701 C700 1.287 . S
C701 C702 1.524 . S
C701 H704 0.999 . S
C702 H672 0.950 . S
C702 C701 1.524 . S
C702 C703 1.415 . S
C703 H673 0.950 . S
C703 C698 1.363 . S
C703 C702 1.415 . S
H704 C701 0.999 . S
H705 C686 0.913 . S
H706 C724 0.951 . S
H707 C726 0.951 . S
H708 C728 0.950 . S
H709 C729 0.950 . S
H710 C731 0.950 . S
H711 C734 0.950 . S
H712 C735 0.950 1_565 S
H713 C737 0.950 . S
H714 C738 0.950 . S
H715 C739 0.951 . S
H716 C741 0.951 . S
H717 C743 0.950 . S
H718 C744 0.950 . S
H719 C746 0.950 . S
H720 C749 0.950 . S
H721 C750 0.950 . S
H722 C752 0.950 . S
H723 C753 0.950 . S
C724 H706 0.951 . S
C724 C725 1.366 . S
C724 C726 1.388 . S
C725 C724 1.366 . S
C725 C729 1.385 . S
C726 H707 0.951 . S
C726 C724 1.388 . S
C726 C727 1.366 . S
C727 C726 1.366 . S
C727 C728 1.414 . S
C727 C730 1.499 . S
C728 H708 0.950 . S
C728 C727 1.414 . S
C728 C729 1.374 . S
C729 H709 0.950 . S
C729 C725 1.385 . S
C729 C728 1.374 . S
C730 C727 1.499 . S
C730 C731 1.373 . S
C730 C732 1.389 . S
C731 H710 0.950 . S
C731 C730 1.373 . S
C731 C747 1.377 . S
C732 C730 1.389 . S
C732 C733 1.524 . S
C732 C746 1.377 . S
C733 C732 1.524 . S
C733 C734 1.397 . S
C733 C738 1.363 . S
C734 H711 0.950 . S
C734 C733 1.397 . S
C734 C735 1.334 . S
C735 H712 0.950 1_545 S
C735 C734 1.334 . S
C735 C736 1.284 1_545 S
C736 C735 1.284 1_565 S
C736 C737 1.523 1_565 S
C736 H755 0.918 . S
C737 H713 0.950 . S
C737 C736 1.523 1_545 S
C737 C738 1.415 . S
C738 H714 0.950 . S
C738 C733 1.363 . S
C738 C737 1.415 . S
C739 H715 0.951 . S
C739 C740 1.366 . S
C739 C741 1.388 . S
C740 C739 1.366 . S
C740 C744 1.385 . S
C741 H716 0.951 . S
C741 C739 1.388 . S
C741 C742 1.366 . S
C742 C741 1.366 . S
C742 C743 1.414 . S
C742 C745 1.499 . S
C743 H717 0.950 . S
C743 C742 1.414 . S
C743 C744 1.374 . S
C744 H718 0.950 . S
C744 C740 1.385 . S
C744 C743 1.374 . S
C745 C742 1.499 . S
C745 C746 1.373 . S
C745 C747 1.389 . S
C746 H719 0.950 . S
C746 C732 1.377 . S
C746 C745 1.373 . S
C747 C731 1.377 . S
C747 C745 1.389 . S
C747 C748 1.524 . S
C748 C747 1.524 . S
C748 C749 1.397 . S
C748 C753 1.363 . S
C749 H720 0.950 . S
C749 C748 1.397 . S
C749 C750 1.334 . S
C750 H721 0.950 . S
C750 C749 1.334 . S
C750 C751 1.287 . S
C751 C750 1.287 . S
C751 C752 1.524 . S
C751 H754 0.999 . S
C752 H722 0.950 . S
C752 C751 1.524 . S
C752 C753 1.415 . S
C753 H723 0.950 . S
C753 C748 1.363 . S
C753 C752 1.415 . S
H754 C751 0.999 . S
H755 C736 0.918 . S
H756 C774 0.951 . S
H757 C776 0.951 . S
H758 C778 0.950 . S
H759 C779 0.950 . S
H760 C781 0.950 . S
H761 C784 0.950 . S
H762 C785 0.950 . S
H763 C787 0.950 . S
H764 C788 0.950 . S
H765 C789 0.951 . S
H766 C791 0.951 . S
H767 C793 0.950 . S
H768 C794 0.950 . S
H769 C796 0.950 . S
H770 C799 0.950 . S
H771 C800 0.950 . S
H772 C802 0.950 . S
H773 C803 0.950 . S
C774 H756 0.951 . S
C774 C775 1.366 . S
C774 C776 1.388 . S
C775 C774 1.366 . S
C775 C779 1.385 . S
C776 H757 0.951 . S
C776 C774 1.388 . S
C776 C777 1.366 . S
C777 C776 1.366 . S
C777 C778 1.414 . S
C777 C780 1.499 . S
C778 H758 0.950 . S
C778 C777 1.414 . S
C778 C779 1.374 . S
C779 H759 0.950 . S
C779 C775 1.385 . S
C779 C778 1.374 . S
C780 C777 1.499 . S
C780 C781 1.373 . S
C780 C782 1.389 . S
C781 H760 0.950 . S
C781 C780 1.373 . S
C781 C797 1.377 . S
C782 C780 1.389 . S
C782 C783 1.524 . S
C782 C796 1.377 . S
C783 C782 1.524 . S
C783 C784 1.397 . S
C783 C788 1.363 . S
C784 H761 0.950 . S
C784 C783 1.397 . S
C784 C785 1.334 . S
C785 H762 0.950 . S
C785 C784 1.334 . S
C785 C786 1.287 . S
C786 C785 1.287 . S
C786 C787 1.524 . S
C786 H805 0.913 . S
C787 H763 0.950 . S
C787 C786 1.524 . S
C787 C788 1.415 . S
C788 H764 0.950 . S
C788 C783 1.363 . S
C788 C787 1.415 . S
C789 H765 0.951 . S
C789 C790 1.366 . S
C789 C791 1.388 . S
C790 C789 1.366 . S
C790 C794 1.385 . S
C791 H766 0.951 . S
C791 C789 1.388 . S
C791 C792 1.366 . S
C792 C791 1.366 . S
C792 C793 1.414 . S
C792 C795 1.499 . S
C793 H767 0.950 . S
C793 C792 1.414 . S
C793 C794 1.374 . S
C794 H768 0.950 . S
C794 C790 1.385 . S
C794 C793 1.374 . S
C795 C792 1.499 . S
C795 C796 1.373 . S
C795 C797 1.389 . S
C796 H769 0.950 . S
C796 C782 1.377 . S
C796 C795 1.373 . S
C797 C781 1.377 . S
C797 C795 1.389 . S
C797 C798 1.524 . S
C798 C797 1.524 . S
C798 C799 1.397 . S
C798 C803 1.363 . S
C799 H770 0.950 . S
C799 C798 1.397 . S
C799 C800 1.334 . S
C800 H771 0.950 . S
C800 C799 1.334 . S
C800 C801 1.287 . S
C801 C800 1.287 . S
C801 C802 1.524 . S
C801 H804 0.999 . S
C802 H772 0.950 . S
C802 C801 1.524 . S
C802 C803 1.415 . S
C803 H773 0.950 . S
C803 C798 1.363 . S
C803 C802 1.415 . S
H804 C801 0.999 . S
H805 C786 0.913 . S
H806 C824 0.951 . S
H807 C826 0.951 . S
H808 C828 0.950 . S
H809 C829 0.950 . S
H810 C831 0.950 . S
H811 C834 0.950 . S
H812 C835 0.950 . S
H813 C837 0.950 . S
H814 C838 0.950 . S
H815 C839 0.951 . S
H816 C841 0.951 . S
H817 C843 0.950 . S
H818 C844 0.970 1_556 S
H819 C846 0.950 . S
H820 C849 0.950 . S
H821 C850 0.950 . S
H822 C852 0.950 . S
H823 C853 0.950 . S
C824 H806 0.951 . S
C824 C825 1.366 . S
C824 C826 1.388 . S
C825 C824 1.366 . S
C825 C829 1.385 . S
C826 H807 0.951 . S
C826 C824 1.388 . S
C826 C827 1.366 . S
C827 C826 1.366 . S
C827 C828 1.414 . S
C827 C830 1.499 . S
C828 H808 0.950 . S
C828 C827 1.414 . S
C828 C829 1.374 . S
C829 H809 0.950 . S
C829 C825 1.385 . S
C829 C828 1.374 . S
C830 C827 1.499 . S
C830 C831 1.373 . S
C830 C832 1.389 . S
C831 H810 0.950 . S
C831 C830 1.373 . S
C831 C847 1.377 . S
C832 C830 1.389 . S
C832 C833 1.524 . S
C832 C846 1.377 . S
C833 C832 1.524 . S
C833 C834 1.397 . S
C833 C838 1.363 . S
C834 H811 0.950 . S
C834 C833 1.397 . S
C834 C835 1.334 . S
C835 H812 0.950 . S
C835 C834 1.334 . S
C835 C836 1.287 . S
C836 C835 1.287 . S
C836 C837 1.524 . S
C836 H855 0.913 . S
C837 H813 0.950 . S
C837 C836 1.524 . S
C837 C838 1.415 . S
C838 H814 0.950 . S
C838 C833 1.363 . S
C838 C837 1.415 . S
C839 H815 0.951 . S
C839 C840 1.366 . S
C839 C841 1.388 . S
C840 C839 1.366 . S
C840 C844 1.385 . S
C841 H816 0.951 . S
C841 C839 1.388 . S
C841 C842 1.388 . S
C842 C841 1.388 . S
C842 C843 1.405 1_554 S
C842 C845 1.485 1_554 S
C843 H817 0.950 . S
C843 C842 1.405 1_556 S
C843 C844 1.374 1_556 S
C844 H818 0.970 1_554 S
C844 C840 1.385 . S
C844 C843 1.374 1_554 S
C845 C842 1.485 1_556 S
C845 C846 1.373 . S
C845 C847 1.389 . S
C846 H819 0.950 . S
C846 C832 1.377 . S
C846 C845 1.373 . S
C847 C831 1.377 . S
C847 C845 1.389 . S
C847 C848 1.524 . S
C848 C847 1.524 . S
C848 C849 1.397 . S
C848 C853 1.363 1_556 S
C849 H820 0.950 . S
C849 C848 1.397 . S
C849 C850 1.334 1_556 S
C850 H821 0.950 . S
C850 C849 1.334 1_554 S
C850 C851 1.287 . S
C851 C850 1.287 . S
C851 C852 1.524 . S
C851 H854 0.999 . S
C852 H822 0.950 . S
C852 C851 1.524 . S
C852 C853 1.415 . S
C853 H823 0.950 . S
C853 C848 1.363 1_554 S
C853 C852 1.415 . S
H854 C851 0.999 . S
H855 C836 0.913 . S
H856 C874 0.972 . S
H857 C876 0.951 . S
H858 C878 0.950 . S
H859 C879 0.950 . S
H860 C881 0.950 . S
H861 C884 0.950 . S
H862 C885 0.950 . S
H863 C887 0.950 . S
H864 C888 0.950 . S
H865 C889 0.951 . S
H866 C891 0.951 . S
H867 C893 0.950 . S
H868 C894 0.950 . S
H869 C896 0.950 . S
H870 C899 0.950 . S
H871 C900 0.950 . S
H872 C902 0.950 . S
H873 C903 0.950 . S
C874 H856 0.972 . S
C874 C875 1.366 . S
C874 C876 1.388 . S
C875 C874 1.366 . S
C875 C879 1.385 . S
C876 H857 0.951 . S
C876 C874 1.388 . S
C876 C877 1.366 . S
C877 C876 1.366 . S
C877 C878 1.414 . S
C877 C880 1.499 . S
C878 H858 0.950 . S
C878 C877 1.414 . S
C878 C879 1.374 . S
C879 H859 0.950 . S
C879 C875 1.385 . S
C879 C878 1.374 . S
C880 C877 1.499 . S
C880 C881 1.373 . S
C880 C882 1.389 . S
C881 H860 0.950 . S
C881 C880 1.373 . S
C881 C897 1.377 . S
C882 C880 1.389 . S
C882 C883 1.524 . S
C882 C896 1.377 . S
C883 C882 1.524 . S
C883 C884 1.397 . S
C883 C888 1.363 . S
C884 H861 0.950 . S
C884 C883 1.397 . S
C884 C885 1.334 . S
C885 H862 0.950 . S
C885 C884 1.334 . S
C885 C886 1.287 . S
C886 C885 1.287 . S
C886 C887 1.524 . S
C886 H905 0.913 . S
C887 H863 0.950 . S
C887 C886 1.524 . S
C887 C888 1.415 . S
C888 H864 0.950 . S
C888 C883 1.363 . S
C888 C887 1.415 . S
C889 H865 0.951 . S
C889 C890 1.366 . S
C889 C891 1.388 . S
C890 C889 1.366 . S
C890 C894 1.385 . S
C891 H866 0.951 . S
C891 C889 1.388 . S
C891 C892 1.366 . S
C892 C891 1.366 . S
C892 C893 1.414 . S
C892 C895 1.499 . S
C893 H867 0.950 . S
C893 C892 1.414 . S
C893 C894 1.374 . S
C894 H868 0.950 . S
C894 C890 1.385 . S
C894 C893 1.374 . S
C895 C892 1.499 . S
C895 C896 1.373 . S
C895 C897 1.389 . S
C896 H869 0.950 . S
C896 C882 1.377 . S
C896 C895 1.373 . S
C897 C881 1.377 . S
C897 C895 1.389 . S
C897 C898 1.524 . S
C898 C897 1.524 . S
C898 C899 1.397 . S
C898 C903 1.363 . S
C899 H870 0.950 . S
C899 C898 1.397 . S
C899 C900 1.334 . S
C900 H871 0.950 . S
C900 C899 1.334 . S
C900 C901 1.287 . S
C901 C900 1.287 . S
C901 C902 1.524 . S
C901 H904 0.999 . S
C902 H872 0.950 . S
C902 C901 1.524 . S
C902 C903 1.415 . S
C903 H873 0.950 . S
C903 C898 1.363 . S
C903 C902 1.415 . S
H904 C901 0.999 . S
H905 C886 0.913 . S
H906 C924 0.951 . S
H907 C926 0.951 . S
H908 C928 0.950 . S
H909 C929 0.950 . S
H910 C931 0.950 . S
H911 C934 0.950 . S
H912 C935 0.950 . S
H913 C937 0.950 . S
H914 C938 0.950 . S
H915 C939 0.951 . S
H916 C941 0.951 . S
H917 C943 0.950 . S
H918 C944 0.950 . S
H919 C946 0.950 . S
H920 C949 0.950 . S
H921 C950 0.950 . S
H922 C952 0.950 . S
H923 C953 0.950 . S
C924 H906 0.951 . S
C924 C925 1.366 . S
C924 C926 1.388 . S
C925 C924 1.366 . S
C925 C929 1.385 . S
C926 H907 0.951 . S
C926 C924 1.388 . S
C926 C927 1.366 . S
C927 C926 1.366 . S
C927 C928 1.414 . S
C927 C930 1.499 . S
C928 H908 0.950 . S
C928 C927 1.414 . S
C928 C929 1.374 . S
C929 H909 0.950 . S
C929 C925 1.385 . S
C929 C928 1.374 . S
C930 C927 1.499 . S
C930 C931 1.373 . S
C930 C932 1.389 . S
C931 H910 0.950 . S
C931 C930 1.373 . S
C931 C947 1.377 . S
C932 C930 1.389 . S
C932 C933 1.524 . S
C932 C946 1.377 . S
C933 C932 1.524 . S
C933 C934 1.397 . S
C933 C938 1.363 . S
C934 H911 0.950 . S
C934 C933 1.397 . S
C934 C935 1.334 . S
C935 H912 0.950 . S
C935 C934 1.334 . S
C935 C936 1.287 . S
C936 C935 1.287 . S
C936 C937 1.524 . S
C936 H955 0.913 . S
C937 H913 0.950 . S
C937 C936 1.524 . S
C937 C938 1.415 . S
C938 H914 0.950 . S
C938 C933 1.363 . S
C938 C937 1.415 . S
C939 H915 0.951 . S
C939 C940 1.366 . S
C939 C941 1.388 . S
C940 C939 1.366 . S
C940 C944 1.385 . S
C941 H916 0.951 . S
C941 C939 1.388 . S
C941 C942 1.366 . S
C942 C941 1.366 . S
C942 C943 1.414 . S
C942 C945 1.499 . S
C943 H917 0.950 . S
C943 C942 1.414 . S
C943 C944 1.374 . S
C944 H918 0.950 . S
C944 C940 1.385 . S
C944 C943 1.374 . S
C945 C942 1.499 . S
C945 C946 1.373 . S
C945 C947 1.389 . S
C946 H919 0.950 . S
C946 C932 1.377 . S
C946 C945 1.373 . S
C947 C931 1.377 . S
C947 C945 1.389 . S
C947 C948 1.524 . S
C948 C947 1.524 . S
C948 C949 1.397 . S
C948 C953 1.363 . S
C949 H920 0.950 . S
C949 C948 1.397 . S
C949 C950 1.334 . S
C950 H921 0.950 . S
C950 C949 1.334 . S
C950 C951 1.287 . S
C951 C950 1.287 . S
C951 C952 1.524 . S
C951 H954 0.999 . S
C952 H922 0.950 . S
C952 C951 1.524 . S
C952 C953 1.415 . S
C953 H923 0.950 . S
C953 C948 1.363 . S
C953 C952 1.415 . S
H954 C951 0.999 . S
H955 C936 0.913 . S
H956 C974 0.951 . S
H957 C976 0.951 . S
H958 C978 0.950 . S
H959 C979 0.950 . S
H960 C981 0.950 . S
H961 C984 0.950 . S
H962 C985 0.950 . S
H963 C987 0.950 . S
H964 C988 0.950 . S
H965 C989 0.951 1_655 S
H966 C991 0.951 . S
H967 C993 0.950 . S
H968 C994 0.950 . S
H969 C996 0.950 . S
H970 C999 0.950 . S
H971 C1000 0.950 . S
H972 C1002 0.950 . S
H973 C1003 0.950 . S
C974 H956 0.951 . S
C974 C975 1.366 . S
C974 C976 1.388 . S
C975 C974 1.366 . S
C975 C979 1.385 . S
C976 H957 0.951 . S
C976 C974 1.388 . S
C976 C977 1.366 . S
C977 C976 1.366 . S
C977 C978 1.414 . S
C977 C980 1.499 . S
C978 H958 0.950 . S
C978 C977 1.414 . S
C978 C979 1.374 . S
C979 H959 0.950 . S
C979 C975 1.385 . S
C979 C978 1.374 . S
C980 C977 1.499 . S
C980 C981 1.373 . S
C980 C982 1.389 . S
C981 H960 0.950 . S
C981 C980 1.373 . S
C981 C997 1.377 . S
C982 C980 1.389 . S
C982 C983 1.524 . S
C982 C996 1.377 . S
C983 C982 1.524 . S
C983 C984 1.397 . S
C983 C988 1.363 . S
C984 H961 0.950 . S
C984 C983 1.397 . S
C984 C985 1.334 . S
C985 H962 0.950 . S
C985 C984 1.334 . S
C985 C986 1.287 . S
C986 C985 1.287 . S
C986 C987 1.524 . S
C986 H1005 0.913 . S
C987 H963 0.950 . S
C987 C986 1.524 . S
C987 C988 1.415 . S
C988 H964 0.950 . S
C988 C983 1.363 . S
C988 C987 1.415 . S
C989 H965 0.951 1_455 S
C989 C990 1.366 . S
C989 C991 1.388 . S
C990 C989 1.366 . S
C990 C994 1.385 . S
C991 H966 0.951 . S
C991 C989 1.388 . S
C991 C992 1.366 . S
C992 C991 1.366 . S
C992 C993 1.414 . S
C992 C995 1.499 . S
C993 H967 0.950 . S
C993 C992 1.414 . S
C993 C994 1.374 . S
C994 H968 0.950 . S
C994 C990 1.385 . S
C994 C993 1.374 . S
C995 C992 1.499 . S
C995 C996 1.373 . S
C995 C997 1.389 . S
C996 H969 0.950 . S
C996 C982 1.377 . S
C996 C995 1.373 . S
C997 C981 1.377 . S
C997 C995 1.389 . S
C997 C998 1.524 . S
C998 C997 1.524 . S
C998 C999 1.397 . S
C998 C1003 1.363 . S
C999 H970 0.950 . S
C999 C998 1.397 . S
C999 C1000 1.334 . S
C1000 H971 0.950 . S
C1000 C999 1.334 . S
C1000 C1001 1.287 . S
C1001 C1000 1.287 . S
C1001 C1002 1.524 . S
C1001 H1004 0.999 1_455 S
C1002 H972 0.950 . S
C1002 C1001 1.524 . S
C1002 C1003 1.415 . S
C1003 H973 0.950 . S
C1003 C998 1.363 . S
C1003 C1002 1.415 . S
H1004 C1001 0.999 1_655 S
H1005 C986 0.913 . S
H1006 C1024 0.951 . S
H1007 C1026 0.951 . S
H1008 C1028 0.950 . S
H1009 C1029 0.950 . S
H1010 C1031 0.950 . S
H1011 C1034 0.950 . S
H1012 C1035 0.950 . S
H1013 C1037 0.950 . S
H1014 C1038 0.950 . S
H1015 C1039 0.951 1_565 S
H1016 C1041 0.951 . S
H1017 C1043 0.950 . S
H1018 C1044 0.950 . S
H1019 C1046 0.950 . S
H1020 C1049 0.950 . S
H1021 C1050 0.950 . S
H1022 C1052 0.950 . S
H1023 C1053 0.950 . S
C1024 H1006 0.951 . S
C1024 C1025 1.366 . S
C1024 C1026 1.388 . S
C1025 C1024 1.366 . S
C1025 C1029 1.385 . S
C1026 H1007 0.951 . S
C1026 C1024 1.388 . S
C1026 C1027 1.366 . S
C1027 C1026 1.366 . S
C1027 C1028 1.414 . S
C1027 C1030 1.499 . S
C1028 H1008 0.950 . S
C1028 C1027 1.414 . S
C1028 C1029 1.374 . S
C1029 H1009 0.950 . S
C1029 C1025 1.385 . S
C1029 C1028 1.374 . S
C1030 C1027 1.499 . S
C1030 C1031 1.373 . S
C1030 C1032 1.389 . S
C1031 H1010 0.950 . S
C1031 C1030 1.373 . S
C1031 C1047 1.377 . S
C1032 C1030 1.389 . S
C1032 C1033 1.524 . S
C1032 C1046 1.377 . S
C1033 C1032 1.524 . S
C1033 C1034 1.397 . S
C1033 C1038 1.363 . S
C1034 H1011 0.950 . S
C1034 C1033 1.397 . S
C1034 C1035 1.334 . S
C1035 H1012 0.950 . S
C1035 C1034 1.334 . S
C1035 C1036 1.287 . S
C1036 C1035 1.287 . S
C1036 C1037 1.524 . S
C1036 H1055 0.913 . S
C1037 H1013 0.950 . S
C1037 C1036 1.524 . S
C1037 C1038 1.415 . S
C1038 H1014 0.950 . S
C1038 C1033 1.363 . S
C1038 C1037 1.415 . S
C1039 H1015 0.951 1_545 S
C1039 C1040 1.366 . S
C1039 C1041 1.388 . S
C1040 C1039 1.366 . S
C1040 C1044 1.385 . S
C1041 H1016 0.951 . S
C1041 C1039 1.388 . S
C1041 C1042 1.366 . S
C1042 C1041 1.366 . S
C1042 C1043 1.414 . S
C1042 C1045 1.499 . S
C1043 H1017 0.950 . S
C1043 C1042 1.414 . S
C1043 C1044 1.374 . S
C1044 H1018 0.950 . S
C1044 C1040 1.385 . S
C1044 C1043 1.374 . S
C1045 C1042 1.499 . S
C1045 C1046 1.373 . S
C1045 C1047 1.389 . S
C1046 H1019 0.950 . S
C1046 C1032 1.377 . S
C1046 C1045 1.373 . S
C1047 C1031 1.377 . S
C1047 C1045 1.389 . S
C1047 C1048 1.524 . S
C1048 C1047 1.524 . S
C1048 C1049 1.397 . S
C1048 C1053 1.363 . S
C1049 H1020 0.950 . S
C1049 C1048 1.397 . S
C1049 C1050 1.334 . S
C1050 H1021 0.950 . S
C1050 C1049 1.334 . S
C1050 C1051 1.287 . S
C1051 C1050 1.287 . S
C1051 C1052 1.524 . S
C1051 H1054 0.999 . S
C1052 H1022 0.950 . S
C1052 C1051 1.524 . S
C1052 C1053 1.415 . S
C1053 H1023 0.950 . S
C1053 C1048 1.363 . S
C1053 C1052 1.415 . S
H1054 C1051 0.999 . S
H1055 C1036 0.913 . S
H1056 C1074 0.951 . S
H1057 C1076 0.951 . S
H1058 C1078 0.950 . S
H1059 C1079 0.950 . S
H1060 C1081 0.950 . S
H1061 C1084 0.950 . S
H1062 C1085 0.950 . S
H1063 C1087 0.950 . S
H1064 C1088 0.950 . S
H1065 C1089 0.951 . S
H1066 C1091 0.951 . S
H1067 C1093 0.950 . S
H1068 C1094 0.950 . S
H1069 C1096 0.950 . S
H1070 C1099 0.950 . S
H1071 C1100 0.950 . S
H1072 C1102 0.950 . S
H1073 C1103 0.950 . S
C1074 H1056 0.951 . S
C1074 C1075 1.366 . S
C1074 C1076 1.388 . S
C1075 C1074 1.366 . S
C1075 C1079 1.385 . S
C1076 H1057 0.951 . S
C1076 C1074 1.388 . S
C1076 C1077 1.366 . S
C1077 C1076 1.366 . S
C1077 C1078 1.414 . S
C1077 C1080 1.499 . S
C1078 H1058 0.950 . S
C1078 C1077 1.414 . S
C1078 C1079 1.374 . S
C1079 H1059 0.950 . S
C1079 C1075 1.385 . S
C1079 C1078 1.374 . S
C1080 C1077 1.499 . S
C1080 C1081 1.373 . S
C1080 C1082 1.389 . S
C1081 H1060 0.950 . S
C1081 C1080 1.373 . S
C1081 C1097 1.377 . S
C1082 C1080 1.389 . S
C1082 C1083 1.524 . S
C1082 C1096 1.377 . S
C1083 C1082 1.524 . S
C1083 C1084 1.397 . S
C1083 C1088 1.363 . S
C1084 H1061 0.950 . S
C1084 C1083 1.397 . S
C1084 C1085 1.334 . S
C1085 H1062 0.950 . S
C1085 C1084 1.334 . S
C1085 C1086 1.287 . S
C1086 C1085 1.287 . S
C1086 C1087 1.524 . S
C1086 H1105 0.913 . S
C1087 H1063 0.950 . S
C1087 C1086 1.524 . S
C1087 C1088 1.415 . S
C1088 H1064 0.950 . S
C1088 C1083 1.363 . S
C1088 C1087 1.415 . S
C1089 H1065 0.951 . S
C1089 C1090 1.366 . S
C1089 C1091 1.388 . S
C1090 C1089 1.366 . S
C1090 C1094 1.385 . S
C1091 H1066 0.951 . S
C1091 C1089 1.388 . S
C1091 C1092 1.366 . S
C1092 C1091 1.366 . S
C1092 C1093 1.414 . S
C1092 C1095 1.499 . S
C1093 H1067 0.950 . S
C1093 C1092 1.414 . S
C1093 C1094 1.374 . S
C1094 H1068 0.950 . S
C1094 C1090 1.385 . S
C1094 C1093 1.374 . S
C1095 C1092 1.499 . S
C1095 C1096 1.373 . S
C1095 C1097 1.389 . S
C1096 H1069 0.950 . S
C1096 C1082 1.377 . S
C1096 C1095 1.373 . S
C1097 C1081 1.377 . S
C1097 C1095 1.389 . S
C1097 C1098 1.524 . S
C1098 C1097 1.524 . S
C1098 C1099 1.397 . S
C1098 C1103 1.363 . S
C1099 H1070 0.950 . S
C1099 C1098 1.397 . S
C1099 C1100 1.334 . S
C1100 H1071 0.950 . S
C1100 C1099 1.334 . S
C1100 C1101 1.287 . S
C1101 C1100 1.287 . S
C1101 C1102 1.524 . S
C1101 H1104 0.999 . S
C1102 H1072 0.950 . S
C1102 C1101 1.524 . S
C1102 C1103 1.415 . S
C1103 H1073 0.950 . S
C1103 C1098 1.363 . S
C1103 C1102 1.415 . S
H1104 C1101 0.999 . S
H1105 C1086 0.913 . S
H1106 C1124 0.951 . S
H1107 C1126 0.951 . S
H1108 C1128 0.950 . S
H1109 C1129 0.950 . S
H1110 C1131 0.950 . S
H1111 C1134 0.950 . S
H1112 C1135 0.950 . S
H1113 C1137 0.950 . S
H1114 C1138 0.950 . S
H1115 C1139 0.951 . S
H1116 C1141 0.951 . S
H1117 C1143 0.950 . S
H1118 C1144 0.950 . S
H1119 C1146 0.950 . S
H1120 C1149 0.950 . S
H1121 C1150 0.950 . S
H1122 C1152 0.950 . S
H1123 C1153 0.950 . S
C1124 H1106 0.951 . S
C1124 C1125 1.366 . S
C1124 C1126 1.388 . S
C1125 C1124 1.366 . S
C1125 C1129 1.385 . S
C1126 H1107 0.951 . S
C1126 C1124 1.388 . S
C1126 C1127 1.366 . S
C1127 C1126 1.366 . S
C1127 C1128 1.414 . S
C1127 C1130 1.499 . S
C1128 H1108 0.950 . S
C1128 C1127 1.414 . S
C1128 C1129 1.374 . S
C1129 H1109 0.950 . S
C1129 C1125 1.385 . S
C1129 C1128 1.374 . S
C1130 C1127 1.499 . S
C1130 C1131 1.373 . S
C1130 C1132 1.389 . S
C1131 H1110 0.950 . S
C1131 C1130 1.373 . S
C1131 C1147 1.377 . S
C1132 C1130 1.389 . S
C1132 C1133 1.524 . S
C1132 C1146 1.377 . S
C1133 C1132 1.524 . S
C1133 C1134 1.397 . S
C1133 C1138 1.363 . S
C1134 H1111 0.950 . S
C1134 C1133 1.397 . S
C1134 C1135 1.334 . S
C1135 H1112 0.950 . S
C1135 C1134 1.334 . S
C1135 C1136 1.287 . S
C1136 C1135 1.287 . S
C1136 C1137 1.524 . S
C1136 H1155 0.913 . S
C1137 H1113 0.950 . S
C1137 C1136 1.524 . S
C1137 C1138 1.415 . S
C1138 H1114 0.950 . S
C1138 C1133 1.363 . S
C1138 C1137 1.415 . S
C1139 H1115 0.951 . S
C1139 C1140 1.366 . S
C1139 C1141 1.388 . S
C1140 C1139 1.366 . S
C1140 C1144 1.385 . S
C1141 H1116 0.951 . S
C1141 C1139 1.388 . S
C1141 C1142 1.366 . S
C1142 C1141 1.366 . S
C1142 C1143 1.414 . S
C1142 C1145 1.499 . S
C1143 H1117 0.950 . S
C1143 C1142 1.414 . S
C1143 C1144 1.374 . S
C1144 H1118 0.950 . S
C1144 C1140 1.385 . S
C1144 C1143 1.374 . S
C1145 C1142 1.499 . S
C1145 C1146 1.373 . S
C1145 C1147 1.389 . S
C1146 H1119 0.950 . S
C1146 C1132 1.377 . S
C1146 C1145 1.373 . S
C1147 C1131 1.377 . S
C1147 C1145 1.389 . S
C1147 C1148 1.524 . S
C1148 C1147 1.524 . S
C1148 C1149 1.397 . S
C1148 C1153 1.363 . S
C1149 H1120 0.950 . S
C1149 C1148 1.397 . S
C1149 C1150 1.334 . S
C1150 H1121 0.950 . S
C1150 C1149 1.334 . S
C1150 C1151 1.287 . S
C1151 C1150 1.287 . S
C1151 C1152 1.524 . S
C1151 H1154 0.999 . S
C1152 H1122 0.950 . S
C1152 C1151 1.524 . S
C1152 C1153 1.415 . S
C1153 H1123 0.950 . S
C1153 C1148 1.363 . S
C1153 C1152 1.415 . S
H1154 C1151 0.999 . S
H1155 C1136 0.913 . S
H1156 C1174 0.951 . S
H1157 C1176 0.951 . S
H1158 C1178 0.950 . S
H1159 C1179 0.950 . S
H1160 C1181 0.950 . S
H1161 C1184 0.950 . S
H1162 C1185 0.950 . S
H1163 C1187 0.950 . S
H1164 C1188 0.950 . S
H1165 C1189 0.951 . S
H1166 C1191 0.951 . S
H1167 C1193 0.950 . S
H1168 C1194 0.950 . S
H1169 C1196 0.950 . S
H1170 C1199 0.950 . S
H1171 C1200 0.950 . S
H1172 C1202 0.950 . S
H1173 C1203 0.950 . S
C1174 H1156 0.951 . S
C1174 C1175 1.366 . S
C1174 C1176 1.388 . S
C1175 C1174 1.366 . S
C1175 C1179 1.385 . S
C1176 H1157 0.951 . S
C1176 C1174 1.388 . S
C1176 C1177 1.366 . S
C1177 C1176 1.366 . S
C1177 C1178 1.414 . S
C1177 C1180 1.499 . S
C1178 H1158 0.950 . S
C1178 C1177 1.414 . S
C1178 C1179 1.374 . S
C1179 H1159 0.950 . S
C1179 C1175 1.385 . S
C1179 C1178 1.374 . S
C1180 C1177 1.499 . S
C1180 C1181 1.373 . S
C1180 C1182 1.389 . S
C1181 H1160 0.950 . S
C1181 C1180 1.373 . S
C1181 C1197 1.377 . S
C1182 C1180 1.389 . S
C1182 C1183 1.524 . S
C1182 C1196 1.377 . S
C1183 C1182 1.524 . S
C1183 C1184 1.397 . S
C1183 C1188 1.363 . S
C1184 H1161 0.950 . S
C1184 C1183 1.397 . S
C1184 C1185 1.334 . S
C1185 H1162 0.950 . S
C1185 C1184 1.334 . S
C1185 C1186 1.287 . S
C1186 C1185 1.287 . S
C1186 C1187 1.524 . S
C1186 H1205 0.913 . S
C1187 H1163 0.950 . S
C1187 C1186 1.524 . S
C1187 C1188 1.415 . S
C1188 H1164 0.950 . S
C1188 C1183 1.363 . S
C1188 C1187 1.415 . S
C1189 H1165 0.951 . S
C1189 C1190 1.366 . S
C1189 C1191 1.388 . S
C1190 C1189 1.366 . S
C1190 C1194 1.385 . S
C1191 H1166 0.951 . S
C1191 C1189 1.388 . S
C1191 C1192 1.366 . S
C1192 C1191 1.366 . S
C1192 C1193 1.414 . S
C1192 C1195 1.499 . S
C1193 H1167 0.950 . S
C1193 C1192 1.414 . S
C1193 C1194 1.374 . S
C1194 H1168 0.950 . S
C1194 C1190 1.385 . S
C1194 C1193 1.374 . S
C1195 C1192 1.499 . S
C1195 C1196 1.373 . S
C1195 C1197 1.389 . S
C1196 H1169 0.950 . S
C1196 C1182 1.377 . S
C1196 C1195 1.373 . S
C1197 C1181 1.377 . S
C1197 C1195 1.389 . S
C1197 C1198 1.524 . S
C1198 C1197 1.524 . S
C1198 C1199 1.397 . S
C1198 C1203 1.363 . S
C1199 H1170 0.950 . S
C1199 C1198 1.397 . S
C1199 C1200 1.334 . S
C1200 H1171 0.950 . S
C1200 C1199 1.334 . S
C1200 C1201 1.287 . S
C1201 C1200 1.287 . S
C1201 C1202 1.524 . S
C1201 H1204 0.999 . S
C1202 H1172 0.950 . S
C1202 C1201 1.524 . S
C1202 C1203 1.415 . S
C1203 H1173 0.950 . S
C1203 C1198 1.363 . S
C1203 C1202 1.415 . S
H1204 C1201 0.999 . S
H1205 C1186 0.913 . S
H1206 C1224 0.951 . S
H1207 C1226 0.951 . S
H1208 C1228 0.950 . S
H1209 C1229 0.950 . S
H1210 C1231 0.950 . S
H1211 C1234 0.950 . S
H1212 C1235 0.950 . S
H1213 C1237 0.950 . S
H1214 C1238 0.950 . S
H1215 C1239 0.951 . S
H1216 C1241 0.951 . S
H1217 C1243 0.950 . S
H1218 C1244 0.950 . S
H1219 C1246 0.950 . S
H1220 C1249 0.950 . S
H1221 C1250 0.950 . S
H1222 C1252 0.950 . S
H1223 C1253 0.950 . S
C1224 H1206 0.951 . S
C1224 C1225 1.366 . S
C1224 C1226 1.388 . S
C1225 C1224 1.366 . S
C1225 C1229 1.385 . S
C1226 H1207 0.951 . S
C1226 C1224 1.388 . S
C1226 C1227 1.366 . S
C1227 C1226 1.366 . S
C1227 C1228 1.414 . S
C1227 C1230 1.499 . S
C1228 H1208 0.950 . S
C1228 C1227 1.414 . S
C1228 C1229 1.374 . S
C1229 H1209 0.950 . S
C1229 C1225 1.385 . S
C1229 C1228 1.374 . S
C1230 C1227 1.499 . S
C1230 C1231 1.373 . S
C1230 C1232 1.389 . S
C1231 H1210 0.950 . S
C1231 C1230 1.373 . S
C1231 C1247 1.377 . S
C1232 C1230 1.389 . S
C1232 C1233 1.524 . S
C1232 C1246 1.377 . S
C1233 C1232 1.524 . S
C1233 C1234 1.397 . S
C1233 C1238 1.363 . S
C1234 H1211 0.950 . S
C1234 C1233 1.397 . S
C1234 C1235 1.334 . S
C1235 H1212 0.950 . S
C1235 C1234 1.334 . S
C1235 C1236 1.287 . S
C1236 C1235 1.287 . S
C1236 C1237 1.524 . S
C1236 H1255 0.913 . S
C1237 H1213 0.950 . S
C1237 C1236 1.524 . S
C1237 C1238 1.415 . S
C1238 H1214 0.950 . S
C1238 C1233 1.363 . S
C1238 C1237 1.415 . S
C1239 H1215 0.951 . S
C1239 C1240 1.366 . S
C1239 C1241 1.388 . S
C1240 C1239 1.366 . S
C1240 C1244 1.385 . S
C1241 H1216 0.951 . S
C1241 C1239 1.388 . S
C1241 C1242 1.366 . S
C1242 C1241 1.366 . S
C1242 C1243 1.414 . S
C1242 C1245 1.499 . S
C1243 H1217 0.950 . S
C1243 C1242 1.414 . S
C1243 C1244 1.374 . S
C1244 H1218 0.950 . S
C1244 C1240 1.385 . S
C1244 C1243 1.374 . S
C1245 C1242 1.499 . S
C1245 C1246 1.373 . S
C1245 C1247 1.389 . S
C1246 H1219 0.950 . S
C1246 C1232 1.377 . S
C1246 C1245 1.373 . S
C1247 C1231 1.377 . S
C1247 C1245 1.389 . S
C1247 C1248 1.524 . S
C1248 C1247 1.524 . S
C1248 C1249 1.397 . S
C1248 C1253 1.363 . S
C1249 H1220 0.950 . S
C1249 C1248 1.397 . S
C1249 C1250 1.334 . S
C1250 H1221 0.950 . S
C1250 C1249 1.334 . S
C1250 C1251 1.287 . S
C1251 C1250 1.287 . S
C1251 C1252 1.524 . S
C1251 H1254 0.999 . S
C1252 H1222 0.950 . S
C1252 C1251 1.524 . S
C1252 C1253 1.415 . S
C1253 H1223 0.950 . S
C1253 C1248 1.363 . S
C1253 C1252 1.415 . S
H1254 C1251 0.999 . S
H1255 C1236 0.913 . S
H1256 C1274 0.951 . S
H1257 C1276 0.951 . S
H1258 C1278 0.950 . S
H1259 C1279 0.950 . S
H1260 C1281 0.950 . S
H1261 C1284 0.950 . S
H1262 C1285 0.950 . S
H1263 C1287 0.950 . S
H1264 C1288 0.950 . S
H1265 C1289 0.951 . S
H1266 C1291 0.951 . S
H1267 C1293 0.950 . S
H1268 C1294 0.950 . S
H1269 C1296 0.950 . S
H1270 C1299 0.950 . S
H1271 C1300 0.950 . S
H1272 C1302 0.950 . S
H1273 C1303 0.950 . S
C1274 H1256 0.951 . S
C1274 C1275 1.366 . S
C1274 C1276 1.388 . S
C1275 C1274 1.366 . S
C1275 C1279 1.385 . S
C1276 H1257 0.951 . S
C1276 C1274 1.388 . S
C1276 C1277 1.366 . S
C1277 C1276 1.366 . S
C1277 C1278 1.414 . S
C1277 C1280 1.499 . S
C1278 H1258 0.950 . S
C1278 C1277 1.414 . S
C1278 C1279 1.374 . S
C1279 H1259 0.950 . S
C1279 C1275 1.385 . S
C1279 C1278 1.374 . S
C1280 C1277 1.499 . S
C1280 C1281 1.373 . S
C1280 C1282 1.389 . S
C1281 H1260 0.950 . S
C1281 C1280 1.373 . S
C1281 C1297 1.377 . S
C1282 C1280 1.389 . S
C1282 C1283 1.524 . S
C1282 C1296 1.377 . S
C1283 C1282 1.524 . S
C1283 C1284 1.397 . S
C1283 C1288 1.363 . S
C1284 H1261 0.950 . S
C1284 C1283 1.397 . S
C1284 C1285 1.334 . S
C1285 H1262 0.950 . S
C1285 C1284 1.334 . S
C1285 C1286 1.287 . S
C1286 C1285 1.287 . S
C1286 C1287 1.524 . S
C1286 H1305 0.913 . S
C1287 H1263 0.950 . S
C1287 C1286 1.524 . S
C1287 C1288 1.415 . S
C1288 H1264 0.950 . S
C1288 C1283 1.363 . S
C1288 C1287 1.415 . S
C1289 H1265 0.951 . S
C1289 C1290 1.366 . S
C1289 C1291 1.388 . S
C1290 C1289 1.366 . S
C1290 C1294 1.385 . S
C1291 H1266 0.951 . S
C1291 C1289 1.388 . S
C1291 C1292 1.366 . S
C1292 C1291 1.366 . S
C1292 C1293 1.414 . S
C1292 C1295 1.499 . S
C1293 H1267 0.950 . S
C1293 C1292 1.414 . S
C1293 C1294 1.374 . S
C1294 H1268 0.950 . S
C1294 C1290 1.385 . S
C1294 C1293 1.374 . S
C1295 C1292 1.499 . S
C1295 C1296 1.373 . S
C1295 C1297 1.389 . S
C1296 H1269 0.950 . S
C1296 C1282 1.377 . S
C1296 C1295 1.373 . S
C1297 C1281 1.377 . S
C1297 C1295 1.389 . S
C1297 C1298 1.524 . S
C1298 C1297 1.524 . S
C1298 C1299 1.397 . S
C1298 C1303 1.363 . S
C1299 H1270 0.950 . S
C1299 C1298 1.397 . S
C1299 C1300 1.334 . S
C1300 H1271 0.950 . S
C1300 C1299 1.334 . S
C1300 C1301 1.287 . S
C1301 C1300 1.287 . S
C1301 C1302 1.524 . S
C1301 H1304 0.999 . S
C1302 H1272 0.950 . S
C1302 C1301 1.524 . S
C1302 C1303 1.415 . S
C1303 H1273 0.950 . S
C1303 C1298 1.363 . S
C1303 C1302 1.415 . S
H1304 C1301 0.999 . S
H1305 C1286 0.913 . S
H1306 C1324 0.951 . S
H1307 C1326 0.951 . S
H1308 C1328 0.950 . S
H1309 C1329 0.950 . S
H1310 C1331 0.950 . S
H1311 C1334 0.950 . S
H1312 C1335 0.950 . S
H1313 C1337 0.950 . S
H1314 C1338 0.950 . S
H1315 C1339 0.951 1_556 S
H1316 C1341 0.951 . S
H1317 C1343 0.950 . S
H1318 C1344 0.950 . S
H1319 C1346 0.950 . S
H1320 C1349 0.950 . S
H1321 C1350 0.950 . S
H1322 C1352 0.950 . S
H1323 C1353 0.950 . S
C1324 H1306 0.951 . S
C1324 C1325 1.366 . S
C1324 C1326 1.388 . S
C1325 C1324 1.366 . S
C1325 C1329 1.385 . S
C1326 H1307 0.951 . S
C1326 C1324 1.388 . S
C1326 C1327 1.366 . S
C1327 C1326 1.366 . S
C1327 C1328 1.414 . S
C1327 C1330 1.499 . S
C1328 H1308 0.950 . S
C1328 C1327 1.414 . S
C1328 C1329 1.374 . S
C1329 H1309 0.950 . S
C1329 C1325 1.385 . S
C1329 C1328 1.374 . S
C1330 C1327 1.499 . S
C1330 C1331 1.373 . S
C1330 C1332 1.389 . S
C1331 H1310 0.950 . S
C1331 C1330 1.373 . S
C1331 C1347 1.377 . S
C1332 C1330 1.389 . S
C1332 C1333 1.524 . S
C1332 C1346 1.377 . S
C1333 C1332 1.524 . S
C1333 C1334 1.397 . S
C1333 C1338 1.363 . S
C1334 H1311 0.950 . S
C1334 C1333 1.397 . S
C1334 C1335 1.334 . S
C1335 H1312 0.950 . S
C1335 C1334 1.334 . S
C1335 C1336 1.287 . S
C1336 C1335 1.287 . S
C1336 C1337 1.524 . S
C1336 H1355 0.913 . S
C1337 H1313 0.950 . S
C1337 C1336 1.524 . S
C1337 C1338 1.415 . S
C1338 H1314 0.950 . S
C1338 C1333 1.363 . S
C1338 C1337 1.415 . S
C1339 H1315 0.951 1_554 S
C1339 C1340 1.366 . S
C1339 C1341 1.388 . S
C1340 C1339 1.366 . S
C1340 C1344 1.385 . S
C1341 H1316 0.951 . S
C1341 C1339 1.388 . S
C1341 C1342 1.366 . S
C1342 C1341 1.366 . S
C1342 C1343 1.414 . S
C1342 C1345 1.499 . S
C1343 H1317 0.950 . S
C1343 C1342 1.414 . S
C1343 C1344 1.374 . S
C1344 H1318 0.950 . S
C1344 C1340 1.385 . S
C1344 C1343 1.374 . S
C1345 C1342 1.499 . S
C1345 C1346 1.373 . S
C1345 C1347 1.389 . S
C1346 H1319 0.950 . S
C1346 C1332 1.377 . S
C1346 C1345 1.373 . S
C1347 C1331 1.377 . S
C1347 C1345 1.389 . S
C1347 C1348 1.524 . S
C1348 C1347 1.524 . S
C1348 C1349 1.397 . S
C1348 C1353 1.363 . S
C1349 H1320 0.950 . S
C1349 C1348 1.397 . S
C1349 C1350 1.334 . S
C1350 H1321 0.950 . S
C1350 C1349 1.334 . S
C1350 C1351 1.287 . S
C1351 C1350 1.287 . S
C1351 C1352 1.524 . S
C1351 H1354 0.999 . S
C1352 H1322 0.950 . S
C1352 C1351 1.524 . S
C1352 C1353 1.415 . S
C1353 H1323 0.950 . S
C1353 C1348 1.363 . S
C1353 C1352 1.415 . S
H1354 C1351 0.999 . S
H1355 C1336 0.913 . S
C175 C104 1.385 . S
C190 C0 1.385 . S
C225 C13 1.384 . S
C240 C117 1.385 . S
C275 C26 1.385 . S
C290 C130 1.385 . S
C325 C39 1.385 . S
C340 C143 1.384 . S
C375 C78 1.385 . S
C390 C52 1.385 . S
C425 C65 1.385 . S
C440 C91 1.385 . S
C475 C8 1.238 . S
C490 C75 1.291 . S
C525 C21 1.238 . S
C540 C10 1.292 1_655 S
C575 C34 1.239 . S
C590 C23 1.291 1_565 S
C625 C36 1.292 . S
C640 C47 1.238 . S
C675 C49 1.292 1_455 S
C690 C60 1.238 . S
C725 C62 1.292 1_545 S
C740 C73 1.238 . S
C775 C101 1.291 . S
C790 C86 1.238 . S
C825 C99 1.239 . S
C840 C114 1.292 1_655 S
C875 C127 1.291 1_565 S
C890 C112 1.239 . S
C925 C125 1.238 . S
C940 C140 1.291 . S
C975 C138 1.238 . S
C990 C153 1.292 1_455 S
C1025 C151 1.238 . S
C1040 C88 1.291 1_545 S
C1075 C135 1.113 . S
C1090 C5 1.113 . S
C1125 C148 1.113 . S
C1140 C18 1.112 . S
C1175 C83 1.112 . S
C1190 C31 1.113 . S
C1225 C44 1.113 . S
C1240 C96 1.112 . S
C1275 C57 1.112 . S
C1290 C109 1.112 1_556 S
C1325 C122 1.113 . S
C1340 C70 1.112 1_554 S
