# Generated by pormake.
# Topology snk, (6)-cn, num edge types: 1
# Building blocks:
#     Node 0, Type 0, BuildingBlock: GEDQOX_clean_sbu_0, # of connection points: 6
#     Node 1, Type 0, BuildingBlock: GEDQOX_clean_sbu_0, # of connection points: 6
#     Node 2, Type 0, BuildingBlock: GEDQOX_clean_sbu_0, # of connection points: 6
#     Node 3, Type 0, BuildingBlock: GEDQOX_clean_sbu_0, # of connection points: 6
#     Node 4, Type 0, BuildingBlock: GEDQOX_clean_sbu_0, # of connection points: 6
#     Node 5, Type 0, BuildingBlock: GEDQOX_clean_sbu_0, # of connection points: 6
#     Node 6, Type 0, BuildingBlock: GEDQOX_clean_sbu_0, # of connection points: 6
#     Node 7, Type 0, BuildingBlock: GEDQOX_clean_sbu_0, # of connection points: 6
#     Edge 8, Type (0, 0), BuildingBlock: MIFKUJ_clean_linker_0, # of connection points: 2
#     Edge 9, Type (0, 0), BuildingBlock: MIFKUJ_clean_linker_0, # of connection points: 2
#     Edge 10, Type (0, 0), BuildingBlock: MIFKUJ_clean_linker_0, # of connection points: 2
#     Edge 11, Type (0, 0), BuildingBlock: MIFKUJ_clean_linker_0, # of connection points: 2
#     Edge 12, Type (0, 0), BuildingBlock: MIFKUJ_clean_linker_0, # of connection points: 2
#     Edge 13, Type (0, 0), BuildingBlock: MIFKUJ_clean_linker_0, # of connection points: 2
#     Edge 14, Type (0, 0), BuildingBlock: MIFKUJ_clean_linker_0, # of connection points: 2
#     Edge 15, Type (0, 0), BuildingBlock: MIFKUJ_clean_linker_0, # of connection points: 2
#     Edge 16, Type (0, 0), BuildingBlock: MIFKUJ_clean_linker_0, # of connection points: 2
#     Edge 17, Type (0, 0), BuildingBlock: MIFKUJ_clean_linker_0, # of connection points: 2
#     Edge 18, Type (0, 0), BuildingBlock: MIFKUJ_clean_linker_0, # of connection points: 2
#     Edge 19, Type (0, 0), BuildingBlock: MIFKUJ_clean_linker_0, # of connection points: 2
#     Edge 20, Type (0, 0), BuildingBlock: MIFKUJ_clean_linker_0, # of connection points: 2
#     Edge 21, Type (0, 0), BuildingBlock: MIFKUJ_clean_linker_0, # of connection points: 2
#     Edge 22, Type (0, 0), BuildingBlock: MIFKUJ_clean_linker_0, # of connection points: 2
#     Edge 23, Type (0, 0), BuildingBlock: MIFKUJ_clean_linker_0, # of connection points: 2
#     Edge 24, Type (0, 0), BuildingBlock: MIFKUJ_clean_linker_0, # of connection points: 2
#     Edge 25, Type (0, 0), BuildingBlock: MIFKUJ_clean_linker_0, # of connection points: 2
#     Edge 26, Type (0, 0), BuildingBlock: MIFKUJ_clean_linker_0, # of connection points: 2
#     Edge 27, Type (0, 0), BuildingBlock: MIFKUJ_clean_linker_0, # of connection points: 2
#     Edge 28, Type (0, 0), BuildingBlock: MIFKUJ_clean_linker_0, # of connection points: 2
#     Edge 29, Type (0, 0), BuildingBlock: MIFKUJ_clean_linker_0, # of connection points: 2
#     Edge 30, Type (0, 0), BuildingBlock: MIFKUJ_clean_linker_0, # of connection points: 2
#     Edge 31, Type (0, 0), BuildingBlock: MIFKUJ_clean_linker_0, # of connection points: 2
# Relax obj value: 0.117
# Max RMSD: 0.180
# Mean RMSD: 0.180
data_MOF--net-snk--node1-GEDQOX_clean_sbu_0--edge1-MIFKUJ_clean_linker_0
_symmetry_space_group_name_H-M    P1
_symmetry_Int_Tables_number       1
_symmetry_cell_setting            triclinic
loop_
_symmetry_equiv_pos_as_xyz
'x, y, z'
_cell_length_a     69.239889
_cell_length_b     68.83667
_cell_length_c     20.088362
_cell_angle_alpha  89.526331
_cell_angle_beta   89.986645
_cell_angle_gamma 90.019401
loop_
_atom_site_label
_atom_site_type_symbol
_atom_site_fract_x
_atom_site_fract_y
_atom_site_fract_z
_atom_type_partial_charge
Nd0 Nd 0.02353 0.03409 0.52454 0.0
Nd1 Nd 0.99684 0.99314 0.52688 0.0
C2 C 0.03564 0.07053 0.51615 0.0
C3 C 0.05237 0.08238 0.49372 0.0
C4 C 0.04923 0.09842 0.45152 0.0
C5 C 0.06457 0.11047 0.43212 0.0
C6 C 0.08349 0.10683 0.45473 0.0
C7 C 0.08663 0.09057 0.49646 0.0
C8 C 0.07126 0.07848 0.51567 0.0
C9 C 0.04574 1.00041 0.5287 0.0
C10 C 0.01261 1.01181 0.38471 0.0
C11 C 0.98488 0.95664 0.53487 0.0
C12 C 0.96846 0.94461 0.55857 0.0
C13 C 0.97221 0.92732 0.59373 0.0
C14 C 0.95707 0.91514 0.61403 0.0
C15 C 0.93774 0.91992 0.59947 0.0
C16 C 0.93401 0.93744 0.56498 0.0
C17 C 0.94919 0.94966 0.54482 0.0
C18 C 0.97454 0.0268 0.52489 0.0
C19 C 1.00826 0.01512 0.66654 0.0
O20 O 0.02515 0.06228 0.46996 0.0
O21 O 0.03788 0.05957 0.56937 0.0
O22 O 0.05315 0.01778 0.52856 0.0
O23 O 0.02775 1.00214 0.52449 0.0
O24 O 0.01752 0.02824 0.41428 0.0
O25 O 1.00693 0.99598 0.41771 0.0
O26 O 0.99578 0.96473 0.58029 0.0
O27 O 0.98202 0.96785 0.4826 0.0
O28 O 0.96717 1.00942 0.52667 0.0
O29 O 0.99257 0.02515 0.52621 0.0
O30 O 1.00354 0.99867 0.63677 0.0
O31 O 0.01341 0.03115 0.63363 0.0
H32 H 0.0348 0.10175 0.43389 0.0
H33 H 0.06159 0.12261 0.39907 0.0
H34 H 0.10091 0.08739 0.51557 0.0
H35 H 0.07417 0.06623 0.54835 0.0
H36 H 0.98694 0.92314 0.60508 0.0
H37 H 0.96054 0.902 0.64146 0.0
H38 H 0.91938 0.94155 0.55219 0.0
H39 H 0.94585 0.96291 0.5178 0.0
Nd40 Nd 0.2394 0.7771 0.77847 0.0
Nd41 Nd 0.27969 0.74975 0.77963 0.0
C42 C 0.20326 0.78956 0.77035 0.0
C43 C 0.19128 0.8062 0.74755 0.0
C44 C 0.17553 0.80278 0.70528 0.0
C45 C 0.16331 0.81798 0.6856 0.0
C46 C 0.16647 0.83705 0.70798 0.0
C47 C 0.18243 0.84049 0.74981 0.0
C48 C 0.1947 0.82526 0.76935 0.0
C49 C 0.27317 0.79907 0.78386 0.0
C50 C 0.2617 0.76652 0.63815 0.0
C51 C 0.31585 0.73738 0.78713 0.0
C52 C 0.32775 0.7207 0.80989 0.0
C53 C 0.34441 0.7242 0.84776 0.0
C54 C 0.35655 0.70888 0.867 0.0
C55 C 0.35238 0.68964 0.84859 0.0
C56 C 0.33549 0.68614 0.81138 0.0
C57 C 0.32331 0.70149 0.7923 0.0
C58 C 0.24595 0.72773 0.77462 0.0
C59 C 0.25736 0.76019 0.91986 0.0
O60 O 0.21145 0.77894 0.72439 0.0
O61 O 0.21418 0.79193 0.82305 0.0
O62 O 0.25597 0.80668 0.78351 0.0
O63 O 0.27126 0.781 0.77927 0.0
O64 O 0.24537 0.7715 0.668 0.0
O65 O 0.27735 0.76064 0.67098 0.0
O66 O 0.30777 0.74809 0.8331 0.0
O67 O 0.30482 0.73492 0.73473 0.0
O68 O 0.26314 0.7201 0.77645 0.0
O69 O 0.24781 0.74583 0.77791 0.0
O70 O 0.27375 0.75542 0.88999 0.0
O71 O 0.24169 0.76598 0.88702 0.0
H72 H 0.17255 0.78823 0.68781 0.0
H73 H 0.15141 0.81477 0.65248 0.0
H74 H 0.18525 0.8549 0.7687 0.0
H75 H 0.20671 0.82838 0.80213 0.0
H76 H 0.34815 0.73888 0.862 0.0
H77 H 0.36919 0.71216 0.89658 0.0
H78 H 0.33187 0.67159 0.79561 0.0
H79 H 0.31057 0.69833 0.76306 0.0
Nd80 Nd 0.4966 0.99243 0.02635 0.0
Nd81 Nd 0.52382 0.03305 0.02597 0.0
C82 C 0.484 0.95615 1.01865 0.0
C83 C 0.46745 0.94432 0.99487 0.0
C84 C 0.47088 0.92875 0.9517 0.0
C85 C 0.45575 0.91662 0.93145 0.0
C86 C 0.43675 0.91967 0.9541 0.0
C87 C 0.43331 0.93546 0.99678 0.0
C88 C 0.44846 0.94763 1.01689 0.0
C89 C 0.47477 0.02647 0.02849 0.0
C90 C 0.50778 0.01463 0.88536 0.0
C91 C 0.53641 0.06934 0.03329 0.0
C92 C 0.55308 0.08114 0.05602 0.0
C93 C 0.54971 0.09761 0.0951 0.0
C94 C 0.565 0.10965 0.11442 0.0
C95 C 0.58411 0.10559 0.09492 0.0
C96 C 0.58747 0.08889 0.05643 0.0
C97 C 0.57215 0.0768 0.03725 0.0
C98 C 0.54569 0.99908 1.02302 0.0
C99 C 0.51274 1.01074 0.167 0.0
O100 O 0.49515 0.96421 0.9734 0.0
O101 O 0.4813 0.96721 0.07077 0.0
O102 O 0.46719 1.00916 0.02884 0.0
O103 O 0.49276 0.02452 0.02508 0.0
O104 O 0.50293 0.9982 0.91601 0.0
O105 O 0.51329 0.03053 0.91741 0.0
O106 O 0.52558 0.0612 0.07926 0.0
O107 O 0.53885 0.05834 0.98088 0.0
O108 O 0.55323 0.0164 1.02248 0.0
O109 O 0.5277 1.00097 0.02703 0.0
O110 O 0.51762 0.02717 0.13643 0.0
O111 O 0.50713 0.99489 0.1349 0.0
H112 H 0.48538 0.92583 0.93402 0.0
H113 H 0.45898 0.90486 0.89774 0.0
H114 H 0.41897 0.93819 1.01599 0.0
H115 H 0.44531 0.95946 0.05039 0.0
H116 H 0.53515 0.10128 0.11027 0.0
H117 H 0.56182 0.12214 0.14496 0.0
H118 H 0.60191 0.08535 0.03976 0.0
H119 H 0.57523 0.06422 1.00703 0.0
Nd120 Nd 0.28053 0.24928 0.26938 0.0
Nd121 Nd 0.24011 0.27667 0.27107 0.0
C122 C 0.31665 0.23688 0.25935 0.0
C123 C 0.32852 0.22047 0.23464 0.0
C124 C 0.34478 0.22441 0.19502 0.0
C125 C 0.35694 0.20938 0.17408 0.0
C126 C 0.3532 0.18994 0.19247 0.0
C127 C 0.33669 0.186 0.23144 0.0
C128 C 0.3245 0.20107 0.25225 0.0
C129 C 0.24682 0.22731 0.27577 0.0
C130 C 0.25759 0.25994 0.12949 0.0
C131 C 0.20401 0.28914 0.28087 0.0
C132 C 0.19214 0.30553 0.3056 0.0
C133 C 0.1755 0.30153 0.34317 0.0
C134 C 0.16336 0.31658 0.36411 0.0
C135 C 0.16751 0.33608 0.34779 0.0
C136 C 0.18441 0.34007 0.31093 0.0
C137 C 0.19659 0.32498 0.2901 0.0
C138 C 0.27387 0.29862 0.26525 0.0
C139 C 0.26285 0.26582 0.41101 0.0
O140 O 0.30846 0.2482 0.21474 0.0
O141 O 0.30577 0.2338 0.31191 0.0
O142 O 0.26403 0.21971 0.2752 0.0
O143 O 0.24866 0.24541 0.27082 0.0
O144 O 0.27393 0.25463 0.15888 0.0
O145 O 0.24218 0.26623 0.16242 0.0
O146 O 0.21215 0.27778 0.32548 0.0
O147 O 0.21495 0.29226 0.22848 0.0
O148 O 0.25667 0.30624 0.26593 0.0
O149 O 0.27199 0.28052 0.26946 0.0
O150 O 0.24654 0.27113 0.38145 0.0
O151 O 0.27833 0.2596 0.37823 0.0
H152 H 0.34822 0.23923 0.18074 0.0
H153 H 0.36926 0.21302 0.14324 0.0
H154 H 0.3334 0.1713 0.24729 0.0
H155 H 0.31208 0.19754 0.28286 0.0
H156 H 0.17175 0.28667 0.35583 0.0
H157 H 0.15072 0.31289 0.39334 0.0
H158 H 0.18804 0.35483 0.29674 0.0
H159 H 0.20932 0.32854 0.26114 0.0
Nd160 Nd 0.73975 0.27664 0.27485 0.0
Nd161 Nd 0.78013 0.24952 0.27648 0.0
C162 C 0.70357 0.28893 0.26646 0.0
C163 C 0.69177 0.30571 0.24397 0.0
C164 C 0.67537 0.3024 0.20459 0.0
C165 C 0.66334 0.31781 0.18532 0.0
C166 C 0.66738 0.33696 0.2052 0.0
C167 C 0.68401 0.34026 0.24396 0.0
C168 C 0.69607 0.32483 0.26308 0.0
C169 C 0.77334 0.29885 0.28106 0.0
C170 C 0.76218 0.26634 0.13475 0.0
C171 C 0.81636 0.23729 0.28333 0.0
C172 C 0.82826 0.22053 0.305 0.0
C173 C 0.82439 0.21024 0.36423 0.0
C174 C 0.83642 0.1949 0.3846 0.0
C175 C 0.85257 0.1895 0.34618 0.0
C176 C 0.85619 0.19975 0.28649 0.0
C177 C 0.84419 0.21507 0.26629 0.0
C178 C 0.74658 0.22726 0.27065 0.0
C179 C 0.75757 0.25972 0.41649 0.0
O180 O 0.71186 0.27846 0.22031 0.0
O181 O 0.71439 0.29116 0.3195 0.0
O182 O 0.75608 0.30633 0.28007 0.0
O183 O 0.7716 0.28076 0.27654 0.0
O184 O 0.74585 0.27137 0.16439 0.0
O185 O 0.77775 0.2603 0.16764 0.0
O186 O 0.80808 0.2477 0.32974 0.0
O187 O 0.80543 0.23491 0.23071 0.0
O188 O 0.76384 0.2198 0.27213 0.0
O189 O 0.74827 0.24538 0.27445 0.0
O190 O 0.77398 0.2548 0.38701 0.0
O191 O 0.74199 0.26567 0.38343 0.0
H192 H 0.67174 0.2878 0.18915 0.0
H193 H 0.65091 0.31469 0.15454 0.0
H194 H 0.68751 0.35473 0.26089 0.0
H195 H 0.70862 0.32785 0.29348 0.0
H196 H 0.81219 0.21416 0.39508 0.0
H197 H 0.83326 0.18751 0.43114 0.0
H198 H 0.86823 0.19585 0.25492 0.0
H199 H 0.84744 0.22277 0.22035 0.0
Nd200 Nd 0.78056 0.74951 0.77137 0.0
Nd201 Nd 0.74029 0.77712 0.77281 0.0
C202 C 0.81667 0.73699 0.76226 0.0
C203 C 0.82859 0.72054 0.73842 0.0
C204 C 0.84588 0.72445 0.70443 0.0
C205 C 0.85802 0.70931 0.68432 0.0
C206 C 0.85319 0.68979 0.69786 0.0
C207 C 0.83565 0.6859 0.73112 0.0
C208 C 0.82349 0.70109 0.75114 0.0
C209 C 0.74675 0.72768 0.77697 0.0
C210 C 0.75799 0.7606 0.63129 0.0
C211 C 0.70423 0.78979 0.78159 0.0
C212 C 0.69228 0.80625 0.80574 0.0
C213 C 0.67717 0.80257 0.85074 0.0
C214 C 0.66486 0.81754 0.87118 0.0
C215 C 0.66727 0.83664 0.84688 0.0
C216 C 0.6826 0.84034 0.80236 0.0
C217 C 0.69495 0.82535 0.78203 0.0
C218 C 0.77419 0.79888 0.76824 0.0
C219 C 0.76282 0.76611 0.91284 0.0
O220 O 0.80853 0.74813 0.71706 0.0
O221 O 0.8057 0.73403 0.81466 0.0
O222 O 0.76393 0.72001 0.77632 0.0
O223 O 0.74865 0.74579 0.77254 0.0
O224 O 0.77427 0.75522 0.6609 0.0
O225 O 0.74252 0.76681 0.66407 0.0
O226 O 0.71223 0.77844 0.82653 0.0
O227 O 0.71527 0.79276 0.72935 0.0
O228 O 0.75705 0.80663 0.76911 0.0
O229 O 0.77218 0.78078 0.77151 0.0
O230 O 0.74651 0.77139 0.8832 0.0
O231 O 0.77832 0.75992 0.88012 0.0
H232 H 0.85013 0.73932 0.69393 0.0
H233 H 0.87118 0.71293 0.65789 0.0
H234 H 0.83149 0.67112 0.74312 0.0
H235 H 0.81023 0.69762 0.7773 0.0
H236 H 0.67472 0.78798 0.86967 0.0
H237 H 0.65347 0.81412 0.90632 0.0
H238 H 0.68484 0.85477 0.78188 0.0
H239 H 0.7064 0.82869 0.74704 0.0
Nd240 Nd 0.52364 0.53411 0.02493 0.0
Nd241 Nd 0.49706 0.49313 0.0278 0.0
C242 C 0.53562 0.57058 1.01526 0.0
C243 C 0.55231 0.58244 0.99272 0.0
C244 C 0.54908 0.59868 0.9515 0.0
C245 C 0.56441 0.61074 0.93204 0.0
C246 C 0.5834 0.60692 0.95357 0.0
C247 C 0.58662 0.59045 0.99425 0.0
C248 C 0.57127 0.57834 1.01354 0.0
C249 C 0.54601 0.50055 0.03122 0.0
C250 C 0.51311 0.51138 0.88559 0.0
C251 C 0.48522 0.45662 0.03733 0.0
C252 C 0.46866 0.44462 0.06016 0.0
C253 C 0.47209 0.42826 0.10058 0.0
C254 C 0.45688 0.41606 0.12018 0.0
C255 C 0.43781 0.41989 0.09958 0.0
C256 C 0.43438 0.43648 0.05971 0.0
C257 C 0.44961 0.44872 0.0403 0.0
C258 C 0.47467 0.52667 1.02164 0.0
C259 C 0.50741 0.51594 0.16708 0.0
O260 O 0.52526 0.56211 0.96918 0.0
O261 O 0.53783 0.55981 0.06895 0.0
O262 O 0.55332 0.51797 0.02994 0.0
O263 O 0.528 0.50213 0.0271 0.0
O264 O 0.51797 0.52789 0.91475 0.0
O265 O 0.50742 0.49562 0.91889 0.0
O266 O 0.49566 0.46506 0.08323 0.0
O267 O 0.48282 0.46745 0.98389 0.0
O268 O 0.46737 0.50925 1.02319 0.0
O269 O 0.4927 0.52511 0.02534 0.0
O270 O 0.5026 0.49941 0.13798 0.0
O271 O 0.51316 0.53168 0.13376 0.0
H272 H 0.53461 0.60215 0.93472 0.0
H273 H 0.56136 0.62305 0.8998 0.0
H274 H 0.60096 0.58711 1.0125 0.0
H275 H 0.57424 0.56593 0.04539 0.0
H276 H 0.48664 0.42479 0.11661 0.0
H277 H 0.4601 0.40366 0.15176 0.0
H278 H 0.41997 0.43981 0.04214 0.0
H279 H 0.44649 0.46122 1.00905 0.0
Nd280 Nd 0.99681 0.49279 0.52166 0.0
Nd281 Nd 0.02425 0.53317 0.52124 0.0
C282 C 0.9841 0.45653 0.5147 0.0
C283 C 0.96749 0.44469 0.49175 0.0
C284 C 0.97095 0.42813 0.45325 0.0
C285 C 0.95572 0.41604 0.43372 0.0
C286 C 0.93655 0.42016 0.45243 0.0
C287 C 0.93309 0.43696 0.49035 0.0
C288 C 0.94836 0.44908 0.50974 0.0
C289 C 0.97504 0.5268 0.52584 0.0
C290 C 1.00752 0.51515 0.38058 0.0
C291 C 0.03709 0.56942 0.52655 0.0
C292 C 0.05386 0.58131 0.54755 0.0
C293 C 0.06317 0.57828 0.60895 0.0
C294 C 0.0784 0.59043 0.62868 0.0
C295 C 0.08466 0.60589 0.58751 0.0
C296 C 0.07541 0.60864 0.5257 0.0
C297 C 0.06022 0.59652 0.5061 0.0
C298 C 0.04596 0.49909 0.51752 0.0
C299 C 0.01336 0.51095 0.66234 0.0
O300 O 0.99504 0.46457 0.46886 0.0
O301 O 0.98156 0.46763 0.5668 0.0
O302 O 0.96746 0.50951 0.52525 0.0
O303 O 0.99305 0.52493 0.52196 0.0
O304 O 1.0025 0.49873 0.41098 0.0
O305 O 0.01344 0.53085 0.41285 0.0
O306 O 0.02649 0.56133 0.5733 0.0
O307 O 0.03936 0.55832 0.47438 0.0
O308 O 0.05359 0.51637 0.51798 0.0
O309 O 0.02797 0.50105 0.52093 0.0
O310 O 0.01832 0.52737 0.63186 0.0
O311 O 1.00755 0.49518 0.63013 0.0
H312 H 0.98556 0.42441 0.4387 0.0
H313 H 0.95899 0.40348 0.40366 0.0
H314 H 0.91861 0.44054 0.50643 0.0
H315 H 0.9452 0.46174 0.53951 0.0
H316 H 0.05857 0.56667 0.64205 0.0
H317 H 0.08499 0.58794 0.67687 0.0
H318 H 0.07999 0.62012 0.49205 0.0
H319 H 0.05329 0.59915 0.45851 0.0
H320 H 0.08307 0.14665 0.44148 0.0
H321 H 0.10968 0.16817 0.40993 0.0
H322 H 0.14763 0.11878 0.39413 0.0
H323 H 0.12103 0.0971 0.42463 0.0
H324 H 0.16483 0.14792 0.46037 0.0
H325 H 0.12965 0.14149 0.25566 0.0
H326 H 0.10094 0.14286 0.18315 0.0
H327 H 0.09509 0.20389 0.22074 0.0
H328 H 0.12363 0.20283 0.29427 0.0
H329 H 0.24334 0.18827 0.28723 0.0
H330 H 0.21473 0.16938 0.31657 0.0
H331 H 0.18107 0.22203 0.32516 0.0
H332 H 0.20982 0.24103 0.29369 0.0
H333 H 0.16081 0.19314 0.26726 0.0
H334 H 0.19818 0.19959 0.46631 0.0
H335 H 0.22764 0.19756 0.53514 0.0
H336 H 0.22956 0.13584 0.50799 0.0
H337 H 0.20049 0.1375 0.43733 0.0
C338 C 0.097 0.14028 0.43049 0.0
C339 C 0.09979 0.12004 0.43545 0.0
C340 C 0.11225 0.15266 0.41262 0.0
C341 C 0.13067 0.14513 0.39905 0.0
C342 C 0.13357 0.12498 0.4045 0.0
C343 C 0.11833 0.11258 0.42223 0.0
C344 C 0.14699 0.15821 0.37979 0.0
C345 C 0.16401 0.15765 0.41772 0.0
C346 C 0.14579 0.17135 0.32524 0.0
C347 C 0.12864 0.17203 0.28106 0.0
C348 C 0.12214 0.15517 0.24893 0.0
C349 C 0.10592 0.1559 0.20756 0.0
C350 C 0.09616 0.17344 0.19751 0.0
C351 C 0.10264 0.19031 0.22867 0.0
C352 C 0.11884 0.18965 0.27017 0.0
C353 C 0.22983 0.19585 0.29493 0.0
C354 C 0.22887 0.21619 0.28892 0.0
C355 C 0.21348 0.18502 0.31212 0.0
C356 C 0.19579 0.19427 0.32469 0.0
C357 C 0.19459 0.21455 0.31634 0.0
C358 C 0.21101 0.22543 0.2986 0.0
C359 C 0.17876 0.18264 0.3473 0.0
C360 C 0.16159 0.18351 0.31019 0.0
C361 C 0.17984 0.16973 0.40261 0.0
C362 C 0.1972 0.1687 0.446 0.0
C363 C 0.20495 0.1856 0.47457 0.0
C364 C 0.22157 0.18452 0.51396 0.0
C365 C 0.23042 0.1666 0.526 0.0
C366 C 0.22268 0.14971 0.49863 0.0
C367 C 0.20615 0.15071 0.45882 0.0
H368 H 0.24327 0.1658 0.55656 0.0
H369 H 0.08361 0.17398 0.16543 0.0
H370 H 0.03232 0.96288 0.54019 0.0
H371 H 0.05129 0.9336 0.56658 0.0
H372 H 0.10326 0.96816 0.57024 0.0
H373 H 0.08445 0.9972 0.54393 0.0
H374 H 0.10914 0.93461 0.50523 0.0
H375 H 0.0802 0.95427 0.71344 0.0
H376 H 0.05257 0.9624 0.78564 0.0
H377 H 0.02924 0.90521 0.75896 0.0
H378 H 0.05653 0.89685 0.68552 0.0
H379 H 0.17557 0.87499 0.67704 0.0
H380 H 0.15373 0.90122 0.64447 0.0
H381 H 0.10528 0.86203 0.65865 0.0
H382 H 0.12694 0.83589 0.69413 0.0
H383 H 0.09567 0.89603 0.70971 0.0
H384 H 0.12466 0.87552 0.50642 0.0
H385 H 0.15123 0.86714 0.43012 0.0
H386 H 0.17349 0.9252 0.44373 0.0
H387 H 0.1472 0.93386 0.52088 0.0
C388 C 0.04777 0.96415 0.54657 0.0
C389 C 0.05687 0.98233 0.54055 0.0
C390 C 0.05861 0.94745 0.56174 0.0
C391 C 0.07873 0.94868 0.57114 0.0
C392 C 0.08781 0.96679 0.56329 0.0
C393 C 0.07701 0.98341 0.54838 0.0
C394 C 0.09046 0.93134 0.59026 0.0
C395 C 0.10629 0.92628 0.55026 0.0
C396 C 0.08647 0.9201 0.64805 0.0
C397 C 0.07031 0.92499 0.69345 0.0
C398 C 0.06912 0.94346 0.72265 0.0
C399 C 0.05353 0.94812 0.76383 0.0
C400 C 0.03916 0.93435 0.77681 0.0
C401 C 0.04038 0.91587 0.7488 0.0
C402 C 0.0559 0.91116 0.7074 0.0
C403 C 0.16025 0.87194 0.67402 0.0
C404 C 0.15311 0.85319 0.68802 0.0
C405 C 0.14776 0.88696 0.6546 0.0
C406 C 0.12782 0.8836 0.64796 0.0
C407 C 0.12059 0.86501 0.66297 0.0
C408 C 0.13306 0.84999 0.68263 0.0
C409 C 0.11459 0.89948 0.6252 0.0
C410 C 0.09848 0.90426 0.66446 0.0
C411 C 0.11824 0.91042 0.56644 0.0
C412 C 0.13405 0.90529 0.51991 0.0
C413 C 0.1353 0.88646 0.49354 0.0
C414 C 0.1503 0.88167 0.45007 0.0
C415 C 0.16407 0.89561 0.43221 0.0
C416 C 0.16283 0.9144 0.45767 0.0
C417 C 0.14787 0.91927 0.50122 0.0
H418 H 0.17566 0.89187 0.39854 0.0
H419 H 0.0271 0.93799 0.80864 0.0
H420 H 0.27667 0.83793 0.80005 0.0
H421 H 0.30572 0.85666 0.82396 0.0
H422 H 0.33979 0.80425 0.81842 0.0
H423 H 0.31045 0.78531 0.79456 0.0
H424 H 0.3494 0.82665 0.92483 0.0
H425 H 0.34204 0.8371 0.69096 0.0
H426 H 0.32479 0.84558 0.58738 0.0
H427 H 0.31423 0.90302 0.66073 0.0
H428 H 0.33118 0.8948 0.76521 0.0
H429 H 0.43786 0.87999 0.93765 0.0
H430 H 0.41169 0.85837 0.90414 0.0
H431 H 0.37274 0.90717 0.89366 0.0
H432 H 0.39903 0.92901 0.9244 0.0
H433 H 0.36726 0.88464 0.79005 0.0
H434 H 0.37274 0.87366 0.02615 0.0
H435 H 0.38929 0.86514 0.13107 0.0
H436 H 0.40298 0.80875 0.05434 0.0
H437 H 0.38673 0.81704 0.94856 0.0
C438 C 0.29035 0.83036 0.80347 0.0
C439 C 0.29127 0.81012 0.79538 0.0
C440 C 0.307 0.84113 0.81697 0.0
C441 C 0.32506 0.83197 0.82233 0.0
C442 C 0.32605 0.81169 0.81441 0.0
C443 C 0.30931 0.80087 0.80067 0.0
C444 C 0.34269 0.84367 0.83752 0.0
C445 C 0.35353 0.83912 0.89463 0.0
C446 C 0.34788 0.86024 0.79911 0.0
C447 C 0.33776 0.86528 0.73616 0.0
C448 C 0.33592 0.8515 0.68522 0.0
C449 C 0.32622 0.85627 0.6263 0.0
C450 C 0.31839 0.87482 0.61753 0.0
C451 C 0.32029 0.88865 0.66761 0.0
C452 C 0.32997 0.88395 0.72666 0.0
C453 C 0.4238 0.88621 0.92756 0.0
C454 C 0.42067 0.90635 0.93394 0.0
C455 C 0.40873 0.87374 0.9091 0.0
C456 C 0.39007 0.88102 0.89712 0.0
C457 C 0.38694 0.90112 0.90282 0.0
C458 C 0.402 0.9136 0.92109 0.0
C459 C 0.37385 0.86781 0.87797 0.0
C460 C 0.36325 0.87209 0.82002 0.0
C461 C 0.36888 0.85103 0.9157 0.0
C462 C 0.37872 0.84606 0.97916 0.0
C463 C 0.37943 0.85951 0.03143 0.0
C464 C 0.38873 0.8547 0.0911 0.0
C465 C 0.39724 0.83644 0.09929 0.0
C466 C 0.39642 0.82291 0.04788 0.0
C467 C 0.38716 0.82765 0.98807 0.0
H468 H 0.40442 0.83275 0.14554 0.0
H469 H 0.31087 0.87848 0.57189 0.0
H470 H 0.43588 0.03031 0.03498 0.0
H471 H 0.41706 0.05956 0.05655 0.0
H472 H 0.46952 0.09322 0.06608 0.0
H473 H 0.48852 0.06373 0.0442 0.0
H474 H 0.4449 0.10152 0.16948 0.0
H475 H 0.44021 0.09785 0.9332 0.0
H476 H 0.43425 0.08223 0.82511 0.0
H477 H 0.37535 0.07134 0.881 0.0
H478 H 0.38103 0.08664 0.98987 0.0
H479 H 0.39289 0.19077 0.18406 0.0
H480 H 0.41469 0.16477 0.15035 0.0
H481 H 0.36604 0.12654 0.12296 0.0
H482 H 0.34405 0.15274 0.15394 0.0
H483 H 0.39079 0.12229 1.02356 0.0
H484 H 0.39614 0.12381 0.26237 0.0
H485 H 0.40215 0.13882 0.37147 0.0
H486 H 0.45989 0.15342 0.31114 0.0
H487 H 0.45413 0.13871 0.2013 0.0
C488 C 0.44345 0.04396 0.04112 0.0
C489 C 0.46371 0.04471 0.0379 0.0
C490 C 0.43263 0.06071 0.05329 0.0
C491 C 0.4418 0.0787 0.06244 0.0
C492 C 0.46209 0.07954 0.05912 0.0
C493 C 0.47295 0.06271 0.04648 0.0
C494 C 0.43005 0.09636 0.0772 0.0
C495 C 0.43331 0.10629 0.13693 0.0
C496 C 0.41461 0.10238 0.03558 0.0
C497 C 0.41109 0.09327 0.96996 0.0
C498 C 0.42602 0.092 0.92266 0.0
C499 C 0.42269 0.08322 0.86121 0.0
C500 C 0.40445 0.07576 0.84626 0.0
C501 C 0.38948 0.07711 0.89267 0.0
C502 C 0.39274 0.08586 0.95424 0.0
C503 C 0.38674 0.17692 0.17014 0.0
C504 C 0.3666 0.17395 0.17194 0.0
C505 C 0.3993 0.16194 0.15154 0.0
C506 C 0.39211 0.14351 0.13485 0.0
C507 C 0.37202 0.14056 0.1358 0.0
C508 C 0.35943 0.15555 0.15422 0.0
C509 C 0.40545 0.12732 0.11638 0.0
C510 C 0.40248 0.11764 0.05589 0.0
C511 C 0.42114 0.12152 0.15737 0.0
C512 C 0.42463 0.13036 0.22337 0.0
C513 C 0.41006 0.13036 0.27218 0.0
C514 C 0.41343 0.13879 0.33419 0.0
C515 C 0.43137 0.14712 0.34816 0.0
C516 C 0.44599 0.14699 0.3002 0.0
C517 C 0.44269 0.1386 0.23809 0.0
H518 H 0.43396 0.15363 0.3962 0.0
H519 H 0.40189 0.06897 0.79866 0.0
H520 H 0.93715 0.87995 0.59834 0.0
H521 H 0.91093 0.85823 0.63174 0.0
H522 H 0.8752 0.9077 0.67699 0.0
H523 H 0.90165 0.92953 0.64636 0.0
H524 H 0.87137 0.88117 0.77131 0.0
H525 H 0.86959 0.88051 0.53257 0.0
H526 H 0.88236 0.87622 0.41906 0.0
H527 H 0.89509 0.81644 0.46302 0.0
H528 H 0.88266 0.82045 0.57721 0.0
H529 H 0.77849 0.83801 0.76628 0.0
H530 H 0.80769 0.85682 0.74325 0.0
H531 H 0.84021 0.80377 0.72303 0.0
H532 H 0.81084 0.78481 0.74683 0.0
H533 H 0.84709 0.83013 0.61976 0.0
H534 H 0.84682 0.83078 0.85755 0.0
H535 H 0.83286 0.83537 0.96922 0.0
H536 H 0.82289 0.89566 0.9249 0.0
H537 H 0.83653 0.89138 0.81254 0.0
C538 C 0.92381 0.88627 0.61609 0.0
C539 C 0.92161 0.90659 0.61949 0.0
C540 C 0.9087 0.87378 0.63448 0.0
C541 C 0.89092 0.88126 0.65615 0.0
C542 C 0.88872 0.90151 0.66024 0.0
C543 C 0.90385 0.91402 0.64204 0.0
C544 C 0.87464 0.86804 0.675 0.0
C545 C 0.86595 0.87017 0.73777 0.0
C546 C 0.8678 0.85325 0.6322 0.0
C547 C 0.87542 0.85085 0.56372 0.0
C548 C 0.87529 0.8665 0.51826 0.0
C549 C 0.88243 0.86411 0.45375 0.0
C550 C 0.88959 0.84609 0.43391 0.0
C551 C 0.88958 0.8304 0.47851 0.0
C552 C 0.88249 0.83273 0.54313 0.0
C553 C 0.79189 0.83032 0.75753 0.0
C554 C 0.79238 0.8099 0.75828 0.0
C555 C 0.8086 0.84111 0.74448 0.0
C556 C 0.82621 0.83175 0.73175 0.0
C557 C 0.82679 0.81132 0.73273 0.0
C558 C 0.81004 0.80049 0.74646 0.0
C559 C 0.84376 0.84345 0.71561 0.0
C560 C 0.85265 0.84104 0.6534 0.0
C561 C 0.85071 0.85805 0.75872 0.0
C562 C 0.84256 0.86071 0.82638 0.0
C563 C 0.84151 0.84498 0.8714 0.0
C564 C 0.83368 0.84754 0.93487 0.0
C565 C 0.82695 0.86578 0.9541 0.0
C566 C 0.82809 0.88153 0.90992 0.0
C567 C 0.83589 0.87905 0.84636 0.0
H568 H 0.82089 0.86773 1.00326 0.0
H569 H 0.8951 0.84426 0.38392 0.0
H570 H 0.93614 0.03147 0.54489 0.0
H571 H 0.91635 0.05998 0.51997 0.0
H572 H 0.96718 0.09117 0.45541 0.0
H573 H 0.98715 0.06274 0.48311 0.0
H574 H 0.94396 0.11507 0.51874 0.0
H575 H 0.93518 0.0684 0.34586 0.0
H576 H 0.92755 0.03618 0.30011 0.0
H577 H 0.8699 0.03997 0.37734 0.0
H578 H 0.87734 0.07193 0.42566 0.0
H579 H 0.89214 0.18747 0.33596 0.0
H580 H 0.91336 0.16075 0.36891 0.0
H581 H 0.86419 0.1284 0.44115 0.0
H582 H 0.84275 0.15476 0.40589 0.0
H583 H 0.88728 0.10548 0.37158 0.0
H584 H 0.89649 0.1515 0.54771 0.0
H585 H 0.90424 0.18347 0.59535 0.0
H586 H 0.96095 0.18109 0.50919 0.0
H587 H 0.95344 0.1492 0.46028 0.0
C588 C 0.94313 0.04449 0.5261 0.0
C589 C 0.96318 0.04486 0.51556 0.0
C590 C 0.93178 0.06076 0.5114 0.0
C591 C 0.94013 0.07765 0.48404 0.0
C592 C 0.96032 0.07831 0.476 0.0
C593 C 0.97175 0.06207 0.49182 0.0
C594 C 0.92769 0.09427 0.46214 0.0
C595 C 0.93173 0.11299 0.48582 0.0
C596 C 0.91147 0.09162 0.41999 0.0
C597 C 0.90688 0.07253 0.3899 0.0
C598 C 0.92091 0.06233 0.3535 0.0
C599 C 0.91662 0.04411 0.32706 0.0
C600 C 0.89825 0.03607 0.3356 0.0
C601 C 0.88413 0.04622 0.37075 0.0
C602 C 0.88838 0.06437 0.3978 0.0
C603 C 0.88576 0.17462 0.35835 0.0
C604 C 0.86565 0.17335 0.3681 0.0
C605 C 0.89799 0.15941 0.37793 0.0
C606 C 0.89047 0.14258 0.40837 0.0
C607 C 0.8704 0.14123 0.41805 0.0
C608 C 0.85815 0.15643 0.39835 0.0
C609 C 0.90341 0.12621 0.42879 0.0
C610 C 0.89951 0.10755 0.40452 0.0
C611 C 0.91976 0.12893 0.47016 0.0
C612 C 0.92433 0.14805 0.4998 0.0
C613 C 0.91056 0.15786 0.53852 0.0
C614 C 0.91492 0.17595 0.56582 0.0
C615 C 0.93306 0.18433 0.55516 0.0
C616 C 0.9469 0.17459 0.51733 0.0
C617 C 0.9426 0.1565 0.48986 0.0
H618 H 0.93641 0.19834 0.57633 0.0
H619 H 0.89497 0.02197 0.31498 0.0
H620 H 0.7431 0.1881 0.26695 0.0
H621 H 0.71473 0.16887 0.23845 0.0
H622 H 0.68125 0.22134 0.21578 0.0
H623 H 0.70973 0.24071 0.2463 0.0
H624 H 0.66024 0.19335 0.27629 0.0
H625 H 0.69973 0.19695 0.08084 0.0
H626 H 0.72984 0.19386 1.01601 0.0
H627 H 0.73125 0.13263 0.05734 0.0
H628 H 0.70148 0.13537 0.12397 0.0
H629 H 0.58403 0.14553 0.10134 0.0
H630 H 0.6105 0.16708 0.13255 0.0
H631 H 0.64772 0.11754 0.16162 0.0
H632 H 0.62124 0.09583 0.13132 0.0
H633 H 0.66608 0.14568 0.09348 0.0
H634 H 0.62836 0.14216 0.29388 0.0
H635 H 0.59882 0.14473 0.36183 0.0
H636 H 0.5942 0.20528 0.31134 0.0
H637 H 0.62358 0.20301 0.24229 0.0
C638 C 0.72967 0.19558 0.25638 0.0
C639 C 0.72869 0.21596 0.25831 0.0
C640 C 0.71345 0.18454 0.23965 0.0
C641 C 0.69588 0.19361 0.22336 0.0
C642 C 0.69465 0.21398 0.22759 0.0
C643 C 0.71093 0.22506 0.2449 0.0
C644 C 0.67903 0.18172 0.20111 0.0
C645 C 0.66144 0.18317 0.23557 0.0
C646 C 0.68061 0.16809 0.14875 0.0
C647 C 0.69842 0.1664 0.10791 0.0
C648 C 0.70653 0.18284 0.07654 0.0
C649 C 0.72353 0.18116 0.03943 0.0
C650 C 0.73242 0.16308 0.03252 0.0
C651 C 0.72434 0.14663 0.06274 0.0
C652 C 0.70742 0.14824 0.10024 0.0
C653 C 0.59775 0.13914 0.11517 0.0
C654 C 0.60037 0.11883 0.11397 0.0
C655 C 0.61294 0.15154 0.13288 0.0
C656 C 0.63113 0.14399 0.15014 0.0
C657 C 0.63386 0.12377 0.14842 0.0
C658 C 0.61868 0.11135 0.1308 0.0
C659 C 0.64739 0.15712 0.16922 0.0
C660 C 0.66486 0.15594 0.13396 0.0
C661 C 0.6457 0.17096 0.22082 0.0
C662 C 0.62805 0.17236 0.26232 0.0
C663 C 0.62095 0.15599 0.2968 0.0
C664 C 0.60426 0.15739 0.3356 0.0
C665 C 0.59461 0.17514 0.34074 0.0
C666 C 0.60167 0.19153 0.30722 0.0
C667 C 0.61835 0.1902 0.26827 0.0
H668 H 0.58169 0.1762 0.37083 0.0
H669 H 0.74556 0.16181 1.00372 0.0
H670 H 0.67577 0.87492 0.87281 0.0
H671 H 0.6537 0.90078 0.90567 0.0
H672 H 0.6061 0.86039 0.90276 0.0
H673 H 0.62796 0.83459 0.8671 0.0
H674 H 0.59513 0.89398 0.84888 0.0
H675 H 0.62686 0.87525 0.05074 0.0
H676 H 0.65455 0.86797 0.12397 0.0
H677 H 0.67516 0.92645 0.09991 0.0
H678 H 0.64773 0.93401 0.02577 0.0
H679 H 0.53222 0.96146 1.01409 0.0
H680 H 0.55119 0.93216 0.98936 0.0
H681 H 0.6031 0.9668 0.98161 0.0
H682 H 0.58433 0.9958 1.00677 0.0
H683 H 0.60988 0.93393 0.04688 0.0
H684 H 0.57917 0.95179 0.83891 0.0
H685 H 0.55108 0.95918 0.76753 0.0
H686 H 0.52814 0.90219 0.80538 0.0
H687 H 0.55598 0.89456 0.87772 0.0
C688 C 0.66059 0.87152 0.87842 0.0
C689 C 0.65376 0.85253 0.86745 0.0
C690 C 0.64797 0.88632 0.89801 0.0
C691 C 0.6282 0.88255 0.90784 0.0
C692 C 0.62127 0.86371 0.89596 0.0
C693 C 0.63388 0.84889 0.87618 0.0
C694 C 0.61484 0.89825 0.93051 0.0
C695 C 0.59823 0.9025 0.89279 0.0
C696 C 0.61885 0.90961 0.98741 0.0
C697 C 0.63532 0.90514 0.03224 0.0
C698 C 0.63737 0.88652 0.06069 0.0
C699 C 0.65301 0.88235 0.10242 0.0
C700 C 0.66663 0.89672 0.11647 0.0
C701 C 0.66461 0.91532 0.08894 0.0
C702 C 0.64901 0.91956 0.04711 0.0
C703 C 0.54767 0.96274 1.00726 0.0
C704 C 0.55676 0.98094 1.01193 0.0
C705 C 0.55851 0.94602 0.99293 0.0
C706 C 0.57862 0.94724 0.9828 0.0
C707 C 0.58766 0.96539 0.98916 0.0
C708 C 0.57688 0.982 1.00342 0.0
C709 C 0.59041 0.92989 0.9646 0.0
C710 C 0.60672 0.9253 1.00325 0.0
C711 C 0.58609 0.91823 0.9087 0.0
C712 C 0.56955 0.92268 0.86423 0.0
C713 C 0.56808 0.94088 0.83229 0.0
C714 C 0.55221 0.94511 0.79163 0.0
C715 C 0.53781 0.93118 0.78206 0.0
C716 C 0.53929 0.91297 0.81291 0.0
C717 C 0.55512 0.90868 0.8537 0.0
H718 H 0.52553 0.93449 0.75064 0.0
H719 H 0.67873 0.89346 0.14879 0.0
H720 H 0.58311 0.64679 0.94273 0.0
H721 H 0.6097 0.66836 0.91133 0.0
H722 H 0.64735 0.6189 0.89069 0.0
H723 H 0.62077 0.59718 0.92109 0.0
H724 H 0.66494 0.64751 0.95795 0.0
H725 H 0.62895 0.64258 0.75444 0.0
H726 H 0.59998 0.64456 0.68333 0.0
H727 H 0.59463 0.70537 0.72565 0.0
H728 H 0.62343 0.70368 0.79781 0.0
H729 H 0.74306 0.6886 0.78493 0.0
H730 H 0.71443 0.66966 0.81359 0.0
H731 H 0.68109 0.7224 0.82785 0.0
H732 H 0.70986 0.74147 0.7971 0.0
H733 H 0.66044 0.69399 0.7685 0.0
H734 H 0.69856 0.69893 0.96651 0.0
H735 H 0.72826 0.6963 0.03383 0.0
H736 H 0.72981 0.63479 1.00151 0.0
H737 H 0.70048 0.63707 0.9323 0.0
C738 C 0.59696 0.64043 0.9307 0.0
C739 C 0.59968 0.62015 0.9343 0.0
C740 C 0.6122 0.65283 0.91291 0.0
C741 C 0.63054 0.64529 0.89802 0.0
C742 C 0.63336 0.6251 0.90207 0.0
C743 C 0.61813 0.61268 0.91975 0.0
C744 C 0.64686 0.65841 0.87897 0.0
C745 C 0.66402 0.65751 0.91607 0.0
C746 C 0.64552 0.6719 0.82547 0.0
C747 C 0.62821 0.67295 0.78212 0.0
C748 C 0.6215 0.65634 0.74905 0.0
C749 C 0.60513 0.65741 0.70847 0.0
C750 C 0.59544 0.67507 0.70014 0.0
C751 C 0.60213 0.6917 0.73225 0.0
C752 C 0.61848 0.69069 0.77296 0.0
C753 C 0.72961 0.6962 0.79371 0.0
C754 C 0.72875 0.71657 0.78949 0.0
C755 C 0.71324 0.68534 0.8105 0.0
C756 C 0.69564 0.69458 0.82449 0.0
C757 C 0.69453 0.71492 0.81789 0.0
C758 C 0.71097 0.72583 0.80053 0.0
C759 C 0.67864 0.68288 0.84692 0.0
C760 C 0.66133 0.68408 0.81065 0.0
C761 C 0.67985 0.66961 0.90118 0.0
C762 C 0.69736 0.6682 0.9437 0.0
C763 C 0.70529 0.68486 0.97331 0.0
C764 C 0.72206 0.68343 1.01186 0.0
C765 C 0.73087 0.66541 1.02201 0.0
C766 C 0.72296 0.64875 0.9936 0.0
C767 C 0.70628 0.6501 0.95463 0.0
H768 H 0.74384 0.66434 0.05193 0.0
H769 H 0.58277 0.67587 0.66868 0.0
H770 H 0.62769 0.33678 0.19877 0.0
H771 H 0.60616 0.36347 0.16777 0.0
H772 H 0.65531 0.40109 0.13905 0.0
H773 H 0.67699 0.37439 0.16904 0.0
H774 H 0.6273 0.41908 0.20839 0.0
H775 H 0.63084 0.38213 1.0067 0.0
H776 H 0.62829 0.35271 0.93806 0.0
H777 H 0.56814 0.34769 0.98732 0.0
H778 H 0.57039 0.37695 0.05705 0.0
H779 H 0.58494 0.49729 0.0366 0.0
H780 H 0.60416 0.46869 0.06477 0.0
H781 H 0.5521 0.43465 0.0842 0.0
H782 H 0.53277 0.46336 0.05385 0.0
H783 H 0.57994 0.41402 1.02402 0.0
H784 H 0.57614 0.45249 0.22094 0.0
H785 H 0.57898 0.48239 0.28715 0.0
H786 H 0.63986 0.48453 0.24766 0.0
H787 H 0.63735 0.45497 0.17971 0.0
C788 C 0.63399 0.35064 0.18505 0.0
C789 C 0.65417 0.35332 0.18624 0.0
C790 C 0.62161 0.36594 0.16748 0.0
C791 C 0.62907 0.3843 0.15044 0.0
C792 C 0.64917 0.38709 0.15212 0.0
C793 C 0.66157 0.37179 0.16956 0.0
C794 C 0.61597 0.40067 0.13162 0.0
C795 C 0.6171 0.41804 0.16758 0.0
C796 C 0.60223 0.39918 0.07963 0.0
C797 C 0.60083 0.38161 0.03768 0.0
C798 C 0.6171 0.37466 1.00335 0.0
C799 C 0.61571 0.35803 0.96417 0.0
C800 C 0.59808 0.3483 0.95849 0.0
C801 C 0.58179 0.35522 0.99186 0.0
C802 C 0.58312 0.37183 0.03118 0.0
C803 C 0.57756 0.48369 0.04642 0.0
C804 C 0.55731 0.4826 0.04368 0.0
C805 C 0.58858 0.46734 0.06295 0.0
C806 C 0.57961 0.44955 0.07822 0.0
C807 C 0.55937 0.44823 0.0732 0.0
C808 C 0.54832 0.46464 0.05605 0.0
C809 C 0.59145 0.43254 0.10021 0.0
C810 C 0.59005 0.41504 0.06506 0.0
C811 C 0.60496 0.4339 0.15306 0.0
C812 C 0.60652 0.45157 0.19473 0.0
C813 C 0.59011 0.4594 0.22595 0.0
C814 C 0.59166 0.47628 0.26384 0.0
C815 C 0.60957 0.48532 0.27164 0.0
C816 C 0.62599 0.47751 0.24157 0.0
C817 C 0.62451 0.4607 0.20331 0.0
H818 H 0.61073 0.49838 0.30104 0.0
H819 H 0.59702 0.33543 0.92811 0.0
H820 H 0.89957 0.42986 0.41427 0.0
H821 H 0.87305 0.4081 0.38513 0.0
H822 H 0.91011 0.35856 0.41662 0.0
H823 H 0.93666 0.3802 0.44675 0.0
H824 H 0.88875 0.35417 0.30475 0.0
H825 H 0.87637 0.37057 0.53184 0.0
H826 H 0.87163 0.39239 0.62718 0.0
H827 H 0.82272 0.41836 0.52984 0.0
H828 H 0.82733 0.39687 0.43345 0.0
H829 H 0.81032 0.28527 0.30198 0.0
H830 H 0.83904 0.30443 0.33081 0.0
H831 H 0.80538 0.35703 0.31584 0.0
H832 H 0.77676 0.33794 0.28914 0.0
H833 H 0.82613 0.3582 0.42371 0.0
H834 H 0.8393 0.34264 0.19448 0.0
H835 H 0.84403 0.32074 0.09931 0.0
H836 H 0.89131 0.29306 0.20074 0.0
H837 H 0.8867 0.31465 0.29691 0.0
C838 C 0.90209 0.41434 0.41569 0.0
C839 C 0.92035 0.40688 0.43327 0.0
C840 C 0.88688 0.40188 0.39875 0.0
C841 C 0.88946 0.38161 0.39924 0.0
C842 C 0.90772 0.37411 0.41566 0.0
C843 C 0.92294 0.38656 0.43271 0.0
C844 C 0.87306 0.36831 0.38323 0.0
C845 C 0.87514 0.35488 0.33136 0.0
C846 C 0.85516 0.36932 0.41718 0.0
C847 C 0.85231 0.38223 0.47516 0.0
C848 C 0.86469 0.38103 0.53054 0.0
C849 C 0.86201 0.39333 0.58481 0.0
C850 C 0.84691 0.40679 0.5845 0.0
C851 C 0.83443 0.40795 0.52998 0.0
C852 C 0.83705 0.3957 0.47554 0.0
C853 C 0.80914 0.3009 0.3046 0.0
C854 C 0.79128 0.31007 0.29349 0.0
C855 C 0.82557 0.31189 0.32079 0.0
C856 C 0.8245 0.33228 0.32527 0.0
C857 C 0.80667 0.34137 0.3131 0.0
C858 C 0.7903 0.33042 0.29747 0.0
C859 C 0.84164 0.34429 0.34425 0.0
C860 C 0.83973 0.35745 0.39702 0.0
C861 C 0.85966 0.34302 0.31105 0.0
C862 C 0.86253 0.33012 0.25314 0.0
C863 C 0.85062 0.33179 0.19667 0.0
C864 C 0.85329 0.31945 0.14252 0.0
C865 C 0.86792 0.30548 0.14405 0.0
C866 C 0.87996 0.30386 0.19966 0.0
C867 C 0.87733 0.31616 0.25397 0.0
H868 H 0.86997 0.29593 0.10209 0.0
H869 H 0.84486 0.41629 0.62657 0.0
H870 H 0.84381 0.65372 0.64917 0.0
H871 H 0.8656 0.62726 0.61923 0.0
H872 H 0.91463 0.66268 0.67088 0.0
H873 H 0.89294 0.68915 0.7017 0.0
H874 H 0.92132 0.6435 0.55618 0.0
H875 H 0.89919 0.62664 0.77507 0.0
H876 H 0.87506 0.62033 0.86294 0.0
H877 H 0.851 0.57391 0.74802 0.0
H878 H 0.87482 0.58012 0.659 0.0
H879 H 0.98855 0.56347 0.55475 0.0
H880 H 0.96926 0.59221 0.58307 0.0
H881 H 0.91701 0.55951 0.54967 0.0
H882 H 0.93619 0.53084 0.52365 0.0
H883 H 0.91341 0.57832 0.65961 0.0
H884 H 0.9348 0.59589 0.43866 0.0
H885 H 0.95897 0.60216 0.35086 0.0
H886 H 0.98449 0.64703 0.46927 0.0
H887 H 0.9606 0.64086 0.55817 0.0
C888 C 0.85921 0.65587 0.65482 0.0
C889 C 0.86652 0.67365 0.67825 0.0
C890 C 0.87169 0.64071 0.63742 0.0
C891 C 0.89182 0.64284 0.64336 0.0
C892 C 0.89919 0.66065 0.66565 0.0
C893 C 0.88672 0.67582 0.6831 0.0
C894 C 0.90511 0.62643 0.62705 0.0
C895 C 0.91974 0.62931 0.57942 0.0
C896 C 0.90298 0.60779 0.65654 0.0
C897 C 0.88868 0.60397 0.7101 0.0
C898 C 0.88866 0.61518 0.76831 0.0
C899 C 0.87505 0.61161 0.81836 0.0
C900 C 0.86147 0.59676 0.811 0.0
C901 C 0.86151 0.58542 0.75363 0.0
C902 C 0.87507 0.58895 0.70338 0.0
C903 C 0.97297 0.56254 0.55295 0.0
C904 C 0.96391 0.54491 0.53704 0.0
C905 C 0.96191 0.57898 0.56894 0.0
C906 C 0.94156 0.57817 0.56829 0.0
C907 C 0.93261 0.5606 0.551 0.0
C908 C 0.94362 0.54421 0.53575 0.0
C909 C 0.92941 0.59522 0.5876 0.0
C910 C 0.91502 0.59249 0.63621 0.0
C911 C 0.93177 0.61396 0.55889 0.0
C912 C 0.94604 0.61778 0.50532 0.0
C913 C 0.94565 0.607 0.44615 0.0
C914 C 0.95928 0.61055 0.39616 0.0
C915 C 0.97329 0.62494 0.40456 0.0
C916 C 0.97365 0.63586 0.46288 0.0
C917 C 0.96005 0.63236 0.51305 0.0
H918 H 0.98384 0.62766 0.36582 0.0
H919 H 0.85095 0.59401 0.84981 0.0
H920 H 0.31096 0.28489 0.24954 0.0
H921 H 0.33997 0.30392 0.22195 0.0
H922 H 0.30628 0.3566 0.22837 0.0
H923 H 0.27741 0.33765 0.25388 0.0
H924 H 0.32798 0.35708 0.12189 0.0
H925 H 0.33873 0.34283 0.35448 0.0
H926 H 0.34251 0.32147 0.45279 0.0
H927 H 0.39093 0.29345 0.36073 0.0
H928 H 0.38728 0.3145 0.26147 0.0
H929 H 0.40053 0.42933 0.13399 0.0
H930 H 0.37399 0.40737 0.16238 0.0
H931 H 0.41174 0.35813 0.13857 0.0
H932 H 0.43833 0.37996 0.10902 0.0
H933 H 0.38928 0.35403 0.24927 0.0
H934 H 0.37937 0.36925 1.019 0.0
H935 H 0.3756 0.39059 0.92067 0.0
H936 H 0.32544 0.41665 1.00836 0.0
H937 H 0.32906 0.39564 0.10769 0.0
C938 C 0.30983 0.30051 0.24517 0.0
C939 C 0.29191 0.30975 0.25351 0.0
C940 C 0.32642 0.31142 0.22976 0.0
C941 C 0.3254 0.33179 0.22324 0.0
C942 C 0.30751 0.34095 0.23271 0.0
C943 C 0.29099 0.33008 0.24764 0.0
C944 C 0.34269 0.3437 0.20491 0.0
C945 C 0.34129 0.35654 0.15035 0.0
C946 C 0.36033 0.34267 0.24054 0.0
C947 C 0.36261 0.33009 0.30029 0.0
C948 C 0.3501 0.33201 0.35501 0.0
C949 C 0.35223 0.31998 0.41093 0.0
C950 C 0.36692 0.30608 0.41292 0.0
C951 C 0.37954 0.30421 0.35907 0.0
C952 C 0.37746 0.3162 0.30299 0.0
C953 C 0.4032 0.41383 0.13412 0.0
C954 C 0.42164 0.4065 0.11876 0.0
C955 C 0.38799 0.40127 0.15065 0.0
C956 C 0.39077 0.38104 0.15201 0.0
C957 C 0.40922 0.37366 0.13801 0.0
C958 C 0.42445 0.38622 0.12131 0.0
C959 C 0.37436 0.36765 0.16722 0.0
C960 C 0.37596 0.3545 0.22085 0.0
C961 C 0.35686 0.36838 0.13081 0.0
C962 C 0.35459 0.38099 0.07105 0.0
C963 C 0.36762 0.37964 1.01754 0.0
C964 C 0.36549 0.39166 0.96159 0.0
C965 C 0.35032 0.405 0.95834 0.0
C966 C 0.3372 0.40632 1.01098 0.0
C967 C 0.33927 0.39435 0.06709 0.0
H968 H 0.3487 0.41429 0.91497 0.0
H969 H 0.36855 0.29677 0.45626 0.0
H970 H 0.43573 0.52999 1.01867 0.0
H971 H 0.41642 0.55854 0.99053 0.0
H972 H 0.46843 0.59242 0.96664 0.0
H973 H 0.48787 0.56378 0.99692 0.0
H974 H 0.44096 0.61338 0.02725 0.0
H975 H 0.44374 0.57433 0.83179 0.0
H976 H 0.44067 0.54426 0.76661 0.0
H977 H 0.38003 0.54192 0.81025 0.0
H978 H 0.38277 0.57167 0.8771 0.0
H979 H 0.39211 0.68985 0.85181 0.0
H980 H 0.41385 0.66331 0.88255 0.0
H981 H 0.36493 0.62582 0.91729 0.0
H982 H 0.34304 0.65237 0.8876 0.0
H983 H 0.39255 0.60755 0.84643 0.0
H984 H 0.39028 0.64546 0.04657 0.0
H985 H 0.39332 0.67524 0.11312 0.0
H986 H 0.45313 0.67992 0.05874 0.0
H987 H 0.45037 0.65029 0.99108 0.0
C988 C 0.44308 0.54356 1.0079 0.0
C989 C 0.46334 0.54461 1.0094 0.0
C990 C 0.43201 0.55987 0.99139 0.0
C991 C 0.44093 0.57759 0.97486 0.0
C992 C 0.46119 0.57889 0.97865 0.0
C993 C 0.4723 0.56253 0.9958 0.0
C994 C 0.429 0.59453 0.9528 0.0
C995 C 0.4306 0.61218 0.98697 0.0
C996 C 0.41521 0.59297 0.90088 0.0
C997 C 0.4135 0.57518 0.85996 0.0
C998 C 0.42977 0.56734 0.82791 0.0
C999 C 0.42809 0.55036 0.79062 0.0
C1000 C 0.41018 0.54121 0.78428 0.0
C1001 C 0.3939 0.54902 0.81522 0.0
C1002 C 0.39551 0.56594 0.85285 0.0
C1003 C 0.38591 0.67606 0.86681 0.0
C1004 C 0.36572 0.67337 0.8674 0.0
C1005 C 0.39841 0.66084 0.88422 0.0
C1006 C 0.39107 0.64256 0.90287 0.0
C1007 C 0.37097 0.63976 0.90297 0.0
C1008 C 0.35845 0.65498 0.88569 0.0
C1009 C 0.4043 0.62628 0.92152 0.0
C1010 C 0.40297 0.60876 0.88648 0.0
C1011 C 0.41837 0.628 0.97241 0.0
C1012 C 0.42006 0.64578 1.01318 0.0
C1013 C 0.40403 0.65293 0.04835 0.0
C1014 C 0.40571 0.66976 0.08636 0.0
C1015 C 0.42339 0.6795 0.09 0.0
C1016 C 0.43944 0.67238 0.05578 0.0
C1017 C 0.43783 0.65556 1.01764 0.0
H1018 H 0.42466 0.69253 0.11946 0.0
H1019 H 0.40892 0.52807 0.75535 0.0
H1020 H 0.24035 0.68915 0.79397 0.0
H1021 H 0.21208 0.66975 0.7652 0.0
H1022 H 0.18293 0.72144 0.69539 0.0
H1023 H 0.21111 0.74101 0.72699 0.0
H1024 H 0.15771 0.69895 0.7542 0.0
H1025 H 0.20511 0.68816 0.58606 0.0
H1026 H 0.23726 0.68004 0.54129 0.0
H1027 H 0.2336 0.62313 0.62948 0.0
H1028 H 0.20155 0.63099 0.67563 0.0
H1029 H 0.0876 0.64544 0.56865 0.0
H1030 H 0.11399 0.66694 0.60111 0.0
H1031 H 0.14415 0.61831 0.68897 0.0
H1032 H 0.11811 0.59656 0.65457 0.0
H1033 H 0.16833 0.64042 0.61646 0.0
H1034 H 0.11983 0.65267 0.7844 0.0
H1035 H 0.08737 0.66181 0.82387 0.0
H1036 H 0.09268 0.71739 0.72697 0.0
H1037 H 0.12508 0.70849 0.68621 0.0
C1038 C 0.22783 0.69642 0.77317 0.0
C1039 C 0.22795 0.71661 0.76261 0.0
C1040 C 0.21169 0.68528 0.75615 0.0
C1041 C 0.19544 0.69396 0.72634 0.0
C1042 C 0.19527 0.71429 0.71791 0.0
C1043 C 0.21136 0.72552 0.73608 0.0
C1044 C 0.17891 0.68172 0.70302 0.0
C1045 C 0.16004 0.68631 0.7233 0.0
C1046 C 0.1818 0.66507 0.66303 0.0
C1047 C 0.20099 0.66022 0.63476 0.0
C1048 C 0.21121 0.67395 0.59624 0.0
C1049 C 0.2294 0.66939 0.57057 0.0
C1050 C 0.23747 0.6511 0.58262 0.0
C1051 C 0.22734 0.6373 0.62022 0.0
C1052 C 0.20915 0.64179 0.64609 0.0
C1053 C 0.0999 0.63923 0.59441 0.0
C1054 C 0.10064 0.61917 0.60883 0.0
C1055 C 0.11492 0.65163 0.61365 0.0
C1056 C 0.13104 0.64435 0.6483 0.0
C1057 C 0.13187 0.62434 0.66255 0.0
C1058 C 0.11685 0.61192 0.6433 0.0
C1059 C 0.14721 0.65746 0.66855 0.0
C1060 C 0.16602 0.65306 0.64735 0.0
C1061 C 0.1442 0.67443 0.70674 0.0
C1062 C 0.1248 0.67984 0.73177 0.0
C1063 C 0.11402 0.66679 0.77115 0.0
C1064 C 0.09564 0.67194 0.79381 0.0
C1065 C 0.08795 0.69015 0.77781 0.0
C1066 C 0.09865 0.70328 0.73928 0.0
C1067 C 0.11702 0.6982 0.71645 0.0
H1068 H 0.07371 0.69411 0.79537 0.0
H1069 H 0.25157 0.6476 0.56274 0.0
H1070 H 0.12777 0.33576 0.3517 0.0
H1071 H 0.10601 0.36176 0.38574 0.0
H1072 H 0.15488 0.39904 0.42212 0.0
H1073 H 0.1768 0.37282 0.39079 0.0
H1074 H 0.12943 0.40274 0.51934 0.0
H1075 H 0.12599 0.40359 0.28042 0.0
H1076 H 0.12079 0.38982 0.16892 0.0
H1077 H 0.0624 0.37526 0.2214 0.0
H1078 H 0.06733 0.38873 0.33359 0.0
H1079 H 0.08486 0.49514 0.51374 0.0
H1080 H 0.10373 0.46601 0.49069 0.0
H1081 H 0.05125 0.43264 0.47426 0.0
H1082 H 0.0322 0.462 0.49773 0.0
H1083 H 0.07656 0.42536 0.3712 0.0
H1084 H 0.07969 0.42672 0.60845 0.0
H1085 H 0.0851 0.44124 0.71866 0.0
H1086 H 0.14439 0.45224 0.66819 0.0
H1087 H 0.13926 0.43804 0.55724 0.0
C1088 C 0.13396 0.3494 0.36764 0.0
C1089 C 0.15415 0.35209 0.36832 0.0
C1090 C 0.12144 0.36438 0.38642 0.0
C1091 C 0.12871 0.38254 0.40577 0.0
C1092 C 0.14884 0.38522 0.4072 0.0
C1093 C 0.16139 0.37023 0.38859 0.0
C1094 C 0.11542 0.39872 0.42476 0.0
C1095 C 0.11802 0.40779 0.48653 0.0
C1096 C 0.1001 0.40507 0.38303 0.0
C1097 C 0.0971 0.39697 0.31564 0.0
C1098 C 0.11209 0.39731 0.26837 0.0
C1099 C 0.10918 0.38959 0.20501 0.0
C1100 C 0.09129 0.38162 0.18815 0.0
C1101 C 0.07626 0.38141 0.23457 0.0
C1102 C 0.0791 0.38909 0.29803 0.0
C1103 C 0.0773 0.48157 0.50582 0.0
C1104 C 0.05702 0.48086 0.50759 0.0
C1105 C 0.08814 0.46489 0.49278 0.0
C1106 C 0.07898 0.44703 0.48119 0.0
C1107 C 0.05867 0.44623 0.48311 0.0
C1108 C 0.04779 0.46298 0.4967 0.0
C1109 C 0.09075 0.42948 0.46533 0.0
C1110 C 0.08788 0.42017 0.40418 0.0
C1111 C 0.10587 0.42296 0.50749 0.0
C1112 C 0.10904 0.43145 0.57428 0.0
C1113 C 0.09384 0.43237 0.62064 0.0
C1114 C 0.09687 0.44052 0.68329 0.0
C1115 C 0.11507 0.4477 0.70036 0.0
C1116 C 0.13029 0.44669 0.65487 0.0
C1117 C 0.12734 0.43857 0.59211 0.0
H1118 H 0.11738 0.454 0.7489 0.0
H1119 H 0.08906 0.37565 0.13907 0.0
H1120 H 0.02311 0.04284 0.74991 0.0
H1121 H 0.02421 0.04197 0.87176 0.0
H1122 H 0.99453 0.9869 0.87252 0.0
H1123 H 0.99334 0.98759 0.7511 0.0
H1124 H 0.97979 1.0124 0.96557 0.0
H1125 H 0.04182 0.98773 0.89825 0.0
H1126 H 0.0729 0.98859 0.83817 0.0
H1127 H 0.0887 0.04079 0.94018 0.0
H1128 H 0.05763 0.04039 1.00032 0.0
H1129 H 0.99738 0.98431 0.30136 0.0
H1130 H 0.99694 0.98481 0.1795 0.0
H1131 H 0.02842 0.03887 0.17861 0.0
H1132 H 0.02897 0.03852 0.30014 0.0
H1133 H 0.04243 0.01385 0.08546 0.0
H1134 H 0.98121 0.04003 0.14828 0.0
H1135 H 0.95003 0.04117 0.20705 0.0
H1136 H 0.93265 0.98806 0.11356 0.0
H1137 H 0.96385 0.98661 0.05425 0.0
C1138 C 0.0167 0.03059 0.77593 0.0
C1139 C 1.00816 0.01528 0.7405 0.0
C1140 C 0.01744 0.03008 0.84561 0.0
C1141 C 1.0096 0.01428 0.8812 0.0
C1142 C 1.00069 0.99921 0.84609 0.0
C1143 C 1.00008 0.99963 0.77654 0.0
C1144 C 0.01073 0.01338 0.95504 0.0
C1145 C 0.9935 1.01243 0.99174 0.0
C1146 C 0.02859 0.01393 0.98927 0.0
C1147 C 0.04731 0.01414 0.95331 0.0
C1148 C 0.05185 0.99948 0.90748 0.0
C1149 C 0.06948 0.99987 0.87349 0.0
C1150 C 0.08273 0.01476 0.8852 0.0
C1151 C 0.07841 0.02927 0.93109 0.0
C1152 C 0.06081 0.02897 0.9652 0.0
C1153 C 1.00433 0.99625 0.27532 0.0
C1154 C 0.01315 1.01141 0.31076 0.0
C1155 C 1.00398 0.99656 0.20561 0.0
C1156 C 0.0125 1.01198 0.1699 0.0
C1157 C 0.02174 0.02684 0.20506 0.0
C1158 C 0.02197 0.02663 0.27467 0.0
C1159 C 0.01149 1.0128 0.09596 0.0
C1160 C 0.02873 0.01374 0.05926 0.0
C1161 C 0.99364 1.01241 0.06166 0.0
C1162 C 0.97493 0.0131 0.09746 0.0
C1163 C 0.97081 0.02851 0.14071 0.0
C1164 C 0.95311 0.02923 0.17402 0.0
C1165 C 0.93938 0.01463 0.16437 0.0
C1166 C 0.94331 0.99933 0.12111 0.0
C1167 C 0.96098 0.99858 0.08751 0.0
H1168 H 0.92567 0.01522 0.19019 0.0
H1169 H 0.09636 0.01503 0.85883 0.0
H1170 H 0.23381 0.78026 0.55339 0.0
H1171 H 0.23339 0.77908 0.43221 0.0
H1172 H 0.28968 0.75229 0.43287 0.0
H1173 H 0.2904 0.75367 0.55459 0.0
H1174 H 0.28704 0.77924 0.33546 0.0
H1175 H 0.24897 0.72523 0.41008 0.0
H1176 H 0.22321 0.70901 0.4746 0.0
H1177 H 0.18041 0.74341 0.37365 0.0
H1178 H 0.20594 0.76008 0.30922 0.0
H1179 H 0.28513 0.74594 1.00404 0.0
H1180 H 0.28564 0.74678 0.12524 0.0
H1181 H 0.22962 0.77412 0.12584 0.0
H1182 H 0.22881 0.77308 1.00401 0.0
H1183 H 0.23225 0.74667 0.22268 0.0
H1184 H 0.27091 0.80069 0.14809 0.0
H1185 H 0.297 0.81657 0.08414 0.0
H1186 H 0.33914 0.7814 0.18545 0.0
H1187 H 0.31326 0.76511 0.24934 0.0
C1188 C 0.24619 0.77418 0.52802 0.0
C1189 C 0.26211 0.76694 0.56411 0.0
C1190 C 0.24587 0.77345 0.45852 0.0
C1191 C 0.26134 0.76528 0.42333 0.0
C1192 C 0.27752 0.75859 0.45892 0.0
C1193 C 0.2779 0.75938 0.52861 0.0
C1194 C 0.26046 0.7635 0.34954 0.0
C1195 C 0.2752 0.77188 0.31087 0.0
C1196 C 0.24481 0.75422 0.31723 0.0
C1197 C 0.22939 0.74403 0.35523 0.0
C1198 C 0.23407 0.72943 0.40193 0.0
C1199 C 0.21952 0.72014 0.43846 0.0
C1200 C 0.20019 0.7252 0.42834 0.0
C1201 C 0.19539 0.73952 0.38149 0.0
C1202 C 0.20989 0.74888 0.3449 0.0
C1203 C 0.27283 0.75207 0.02967 0.0
C1204 C 0.25697 0.75958 0.99391 0.0
C1205 C 0.2732 0.7526 0.0992 0.0
C1206 C 0.25783 0.76084 0.13476 0.0
C1207 C 0.24169 0.76778 0.09949 0.0
C1208 C 0.24126 0.76719 0.02975 0.0
C1209 C 0.25881 0.76246 0.2086 0.0
C1210 C 0.24409 0.75403 0.24728 0.0
C1211 C 0.27452 0.77162 0.24094 0.0
C1212 C 0.29013 0.78156 0.20308 0.0
C1213 C 0.28573 0.79625 0.15642 0.0
C1214 C 0.30048 0.80534 0.12022 0.0
C1215 C 0.31971 0.79997 0.13061 0.0
C1216 C 0.32423 0.78554 0.17739 0.0
C1217 C 0.30953 0.77638 0.21366 0.0
H1218 H 0.33111 0.80701 0.10251 0.0
H1219 H 0.18895 0.718 0.45671 0.0
H1220 H 0.52029 0.04347 0.8001 0.0
H1221 H 0.52113 0.04277 0.67841 0.0
H1222 H 0.49534 0.98572 0.68131 0.0
H1223 H 0.49478 0.9861 0.80254 0.0
H1224 H 0.52437 0.98651 0.59679 0.0
H1225 H 0.46933 0.02703 0.6384 0.0
H1226 H 0.45181 0.05469 0.68701 0.0
H1227 H 0.48967 0.09458 0.58588 0.0
H1228 H 0.5076 0.06714 0.53741 0.0
H1229 H 0.49994 0.98197 0.25204 0.0
H1230 H 0.49911 0.98258 0.37375 0.0
H1231 H 0.52558 0.03932 0.37139 0.0
H1232 H 0.52618 0.039 0.25011 0.0
H1233 H 0.49611 0.03867 0.45562 0.0
H1234 H 0.55111 0.99786 0.41407 0.0
H1235 H 0.56849 0.97004 0.36594 0.0
H1236 H 0.53031 0.93049 0.46719 0.0
H1237 H 0.51253 0.95809 0.51521 0.0
C1238 C 0.51467 0.03082 0.7749 0.0
C1239 C 0.50743 0.01487 0.81138 0.0
C1240 C 0.51511 0.03046 0.70521 0.0
C1241 C 0.50813 0.01425 0.67051 0.0
C1242 C 0.50083 0.99838 0.70683 0.0
C1243 C 0.50046 0.99868 0.77635 0.0
C1244 C 0.50876 0.01359 0.59647 0.0
C1245 C 0.51795 0.9978 0.56593 0.0
C1246 C 0.50077 0.0285 0.55605 0.0
C1247 C 0.48993 0.04502 0.5848 0.0
C1248 C 0.47401 0.0417 0.62692 0.0
C1249 C 0.46399 0.05733 0.65439 0.0
C1250 C 0.46965 0.07638 0.63968 0.0
C1251 C 0.48532 0.07982 0.5973 0.0
C1252 C 0.4954 0.06423 0.56978 0.0
C1253 C 0.50572 0.99453 0.27735 0.0
C1254 C 0.51314 1.01042 0.24101 0.0
C1255 C 0.50527 0.99484 0.34706 0.0
C1256 C 0.51241 1.01095 0.38191 0.0
C1257 C 0.51994 0.02675 0.34574 0.0
C1258 C 0.52033 0.02649 0.2762 0.0
C1259 C 0.51173 1.01159 0.45595 0.0
C1260 C 0.50252 0.02738 0.48648 0.0
C1261 C 0.51966 0.99666 0.49638 0.0
C1262 C 0.53037 0.98005 0.46769 0.0
C1263 C 0.54633 0.98323 0.42565 0.0
C1264 C 0.55627 0.9675 0.39846 0.0
C1265 C 0.55048 0.94851 0.41335 0.0
C1266 C 0.53477 0.94521 0.45561 0.0
C1267 C 0.52476 0.96089 0.48287 0.0
H1268 H 0.55819 0.93635 0.39225 0.0
H1269 H 0.46188 0.08846 0.66101 0.0
H1270 H 0.28163 0.24018 0.04597 0.0
H1271 H 0.2821 0.24096 0.92461 0.0
H1272 H 0.23311 0.27968 0.9237 0.0
H1273 H 0.23217 0.27847 0.0455 0.0
H1274 H 0.22925 0.25453 0.82795 0.0
H1275 H 0.28059 0.29608 0.89895 0.0
H1276 H 0.30999 0.30484 0.96119 0.0
H1277 H 0.34171 0.26024 0.86063 0.0
H1278 H 0.31243 0.25103 0.79842 0.0
H1279 H 0.23903 0.28605 0.49379 0.0
H1280 H 0.23821 0.28526 0.61513 0.0
H1281 H 0.28635 0.24549 0.61748 0.0
H1282 H 0.28766 0.24671 0.49567 0.0
H1283 H 0.29044 0.27134 0.7125 0.0
H1284 H 0.23759 0.23072 0.63902 0.0
H1285 H 0.20761 0.22377 0.57703 0.0
H1286 H 0.17815 0.26885 0.68266 0.0
H1287 H 0.20797 0.27633 0.74452 0.0
C1288 C 0.27087 0.2488 1.02007 0.0
C1289 C 0.25693 0.25938 0.05562 0.0
C1290 C 0.27123 0.24931 0.95051 0.0
C1291 C 0.25793 0.26074 0.91476 0.0
C1292 C 0.2436 0.27083 0.95004 0.0
C1293 C 0.24307 0.27012 1.01975 0.0
C1294 C 0.25913 0.26232 0.84078 0.0
C1295 C 0.24258 0.25844 0.80278 0.0
C1296 C 0.27658 0.26713 0.80759 0.0
C1297 C 0.29427 0.27275 0.84448 0.0
C1298 C 0.29381 0.28806 0.89042 0.0
C1299 C 0.31045 0.29311 0.92565 0.0
C1300 C 0.32769 0.28307 0.91498 0.0
C1301 C 0.32834 0.26799 0.8689 0.0
C1302 C 0.31173 0.26286 0.83359 0.0
C1303 C 0.24952 0.27719 0.52001 0.0
C1304 C 0.26334 0.26633 0.48487 0.0
C1305 C 0.24895 0.27666 0.58955 0.0
C1306 C 0.2619 0.26494 0.62566 0.0
C1307 C 0.27611 0.25455 0.59081 0.0
C1308 C 0.27686 0.25528 0.52112 0.0
C1309 C 0.26058 0.26346 0.69962 0.0
C1310 C 0.27712 0.26738 0.73765 0.0
C1311 C 0.24305 0.25889 0.73281 0.0
C1312 C 0.22507 0.25418 0.69605 0.0
C1313 C 0.22475 0.23922 0.64877 0.0
C1314 C 0.20779 0.23518 0.61368 0.0
C1315 C 0.19103 0.24586 0.62584 0.0
C1316 C 0.19115 0.26059 0.67325 0.0
C1317 C 0.20807 0.26474 0.70836 0.0
H1318 H 0.17793 0.24271 0.59859 0.0
H1319 H 0.34057 0.287 0.94233 0.0
H1320 H 0.73711 0.28497 0.05063 0.0
H1321 H 0.73641 0.28409 0.92931 0.0
H1322 H 0.78703 0.24757 0.92944 0.0
H1323 H 0.78817 0.24885 0.05112 0.0
H1324 H 0.78945 0.27379 0.83283 0.0
H1325 H 0.73969 0.22952 0.90892 0.0
H1326 H 0.71033 0.22044 0.97156 0.0
H1327 H 0.67761 0.26308 0.86295 0.0
H1328 H 0.7068 0.2727 0.80047 0.0
H1329 H 0.78288 0.24166 0.5013 0.0
H1330 H 0.7833 0.24259 0.62263 0.0
H1331 H 0.73189 0.27799 0.6211 0.0
H1332 H 0.73104 0.27664 0.49945 0.0
H1333 H 0.72967 0.25253 0.71841 0.0
H1334 H 0.77796 0.29759 0.64467 0.0
H1335 H 0.80669 0.30838 0.58188 0.0
H1336 H 0.84146 0.26627 0.68549 0.0
H1337 H 0.81287 0.25504 0.74827 0.0
C1338 C 0.74818 0.27681 0.02498 0.0
C1339 C 0.76264 0.26687 0.06081 0.0
C1340 C 0.74768 0.27623 0.95544 0.0
C1341 C 0.76139 0.26539 0.92005 0.0
C1342 C 0.77621 0.25594 0.95555 0.0
C1343 C 0.77685 0.2567 0.0252 0.0
C1344 C 0.76022 0.26381 0.84618 0.0
C1345 C 0.77646 0.26886 0.80792 0.0
C1346 C 0.74308 0.25794 0.81328 0.0
C1347 C 0.72549 0.25194 0.85037 0.0
C1348 C 0.72627 0.23705 0.89866 0.0
C1349 C 0.70966 0.23179 0.93411 0.0
C1350 C 0.69215 0.24118 0.92129 0.0
C1351 C 0.69119 0.25583 0.87287 0.0
C1352 C 0.70776 0.26119 0.83741 0.0
C1353 C 0.77158 0.24957 0.52665 0.0
C1354 C 0.75699 0.25919 0.49043 0.0
C1355 C 0.77191 0.25018 0.59619 0.0
C1356 C 0.75787 0.26072 0.63122 0.0
C1357 C 0.74294 0.26983 0.59532 0.0
C1358 C 0.74247 0.26905 0.52567 0.0
C1359 C 0.75893 0.26242 0.7051 0.0
C1360 C 0.74267 0.25741 0.74333 0.0
C1361 C 0.77598 0.26851 0.73799 0.0
C1362 C 0.79324 0.27535 0.70073 0.0
C1363 C 0.79171 0.29054 0.65375 0.0
C1364 C 0.80797 0.29675 0.6182 0.0
C1365 C 0.82588 0.28799 0.62957 0.0
C1366 C 0.82757 0.27303 0.67667 0.0
C1367 C 0.81135 0.26675 0.7123 0.0
H1368 H 0.83845 0.29281 0.60199 0.0
H1369 H 0.67932 0.23708 0.94883 0.0
H1370 H 0.78273 0.74177 0.54761 0.0
H1371 H 0.78326 0.74272 0.42628 0.0
H1372 H 0.73312 0.77992 0.42559 0.0
H1373 H 0.73215 0.77857 0.54734 0.0
H1374 H 0.72997 0.7545 0.33024 0.0
H1375 H 0.77988 0.79781 0.4002 0.0
H1376 H 0.80903 0.8078 0.46164 0.0
H1377 H 0.84229 0.76435 0.36108 0.0
H1378 H 0.81328 0.7539 0.29968 0.0
H1379 H 0.73855 0.78584 0.99555 0.0
H1380 H 0.73789 0.78525 0.11689 0.0
H1381 H 0.78701 0.74673 0.11944 0.0
H1382 H 0.78814 0.74771 0.99759 0.0
H1383 H 0.7905 0.77312 0.21383 0.0
H1384 H 0.73895 0.73059 0.14195 0.0
H1385 H 0.7092 0.72253 0.08036 0.0
H1386 H 0.67835 0.76689 0.18492 0.0
H1387 H 0.70794 0.77546 0.24638 0.0
C1388 C 0.77173 0.7501 0.52178 0.0
C1389 C 0.75746 0.7602 0.5574 0.0
C1390 C 0.77213 0.75072 0.45224 0.0
C1391 C 0.75849 0.76174 0.41657 0.0
C1392 C 0.74387 0.77138 0.45188 0.0
C1393 C 0.74333 0.77059 0.52158 0.0
C1394 C 0.75959 0.7633 0.34261 0.0
C1395 C 0.74314 0.75881 0.30487 0.0
C1396 C 0.77685 0.76864 0.30918 0.0
C1397 C 0.79436 0.77496 0.34579 0.0
C1398 C 0.79338 0.79029 0.39153 0.0
C1399 C 0.80988 0.79605 0.4263 0.0
C1400 C 0.82749 0.78669 0.41539 0.0
C1401 C 0.82864 0.77157 0.36954 0.0
C1402 C 0.81217 0.76574 0.3347 0.0
C1403 C 0.74929 0.77728 1.02179 0.0
C1404 C 0.76333 0.7667 0.98669 0.0
C1405 C 0.74882 0.77688 0.09133 0.0
C1406 C 0.76211 0.76558 0.1275 0.0
C1407 C 0.77652 0.75546 0.0927 0.0
C1408 C 0.77716 0.75605 1.02299 0.0
C1409 C 0.7609 0.76422 0.20147 0.0
C1410 C 0.77734 0.76876 0.23922 0.0
C1411 C 0.74356 0.75914 0.23491 0.0
C1412 C 0.72572 0.75377 0.19841 0.0
C1413 C 0.72586 0.7387 0.15155 0.0
C1414 C 0.70903 0.73403 0.11668 0.0
C1415 C 0.69193 0.74419 0.12865 0.0
C1416 C 0.69161 0.75903 0.17565 0.0
C1417 C 0.70839 0.7638 0.21054 0.0
H1418 H 0.67893 0.74055 0.10157 0.0
H1419 H 0.84025 0.79117 0.44234 0.0
H1420 H 0.53168 0.53648 0.80097 0.0
H1421 H 0.53081 0.53705 0.67961 0.0
H1422 H 0.49412 0.48637 0.68095 0.0
H1423 H 0.49544 0.48534 0.8027 0.0
H1424 H 0.51965 0.48342 0.58538 0.0
H1425 H 0.47642 0.53391 0.65609 0.0
H1426 H 0.46712 0.56348 0.71686 0.0
H1427 H 0.51019 0.59627 0.61109 0.0
H1428 H 0.52 0.56686 0.5504 0.0
H1429 H 0.48852 0.49101 0.25139 0.0
H1430 H 0.48918 0.49047 0.37276 0.0
H1431 H 0.52617 0.54092 0.37204 0.0
H1432 H 0.52507 0.54193 0.25025 0.0
H1433 H 0.50037 0.54395 0.46731 0.0
H1434 H 0.54349 0.49315 0.39644 0.0
H1435 H 0.55247 0.46347 0.3357 0.0
H1436 H 0.50918 0.43113 0.44194 0.0
H1437 H 0.49969 0.46064 0.50256 0.0
C1438 C 0.52347 0.52538 0.77556 0.0
C1439 C 0.51352 0.51092 0.81172 0.0
C1440 C 0.5229 0.5258 0.70601 0.0
C1441 C 0.51203 0.51202 0.67091 0.0
C1442 C 0.50253 0.49723 0.7068 0.0
C1443 C 0.5033 0.49665 0.77647 0.0
C1444 C 0.51052 0.5131 0.59694 0.0
C1445 C 0.51519 0.49659 0.55965 0.0
C1446 C 0.50509 0.5304 0.56302 0.0
C1447 C 0.49906 0.54813 0.59909 0.0
C1448 C 0.484 0.5474 0.64608 0.0
C1449 C 0.47862 0.56413 0.68048 0.0
C1450 C 0.48807 0.58171 0.66793 0.0
C1451 C 0.5029 0.58263 0.62081 0.0
C1452 C 0.50836 0.56594 0.58637 0.0
C1453 C 0.49675 0.50207 0.27694 0.0
C1454 C 0.50685 0.51646 0.24094 0.0
C1455 C 0.4972 0.50167 0.3465 0.0
C1456 C 0.50809 0.51538 0.38177 0.0
C1457 C 0.51774 0.53011 0.34605 0.0
C1458 C 0.51709 0.53068 0.27635 0.0
C1459 C 0.50952 0.51427 0.45575 0.0
C1460 C 0.50484 0.53078 0.49304 0.0
C1461 C 0.5149 0.49695 0.48969 0.0
C1462 C 0.52077 0.47916 0.45366 0.0
C1463 C 0.5358 0.47974 0.40657 0.0
C1464 C 0.541 0.46295 0.37219 0.0
C1465 C 0.5314 0.44546 0.38488 0.0
C1466 C 0.5166 0.44469 0.43211 0.0
C1467 C 0.51131 0.46144 0.46652 0.0
H1468 H 0.53545 0.43249 0.35818 0.0
H1469 H 0.48389 0.59463 0.69464 0.0
H1470 H 0.99952 0.48267 0.74736 0.0
H1471 H 0.99861 0.48337 0.86915 0.0
H1472 H 0.02699 0.53914 0.86683 0.0
H1473 H 0.02814 0.53853 0.74552 0.0
H1474 H 0.04181 0.51572 0.96279 0.0
H1475 H 0.97885 0.53614 0.89088 0.0
H1476 H 0.94814 0.53344 0.82954 0.0
H1477 H 0.93473 0.48072 0.93559 0.0
H1478 H 0.96552 0.48296 0.99693 0.0
H1479 H 0.02125 0.54351 0.29567 0.0
H1480 H 0.0221 0.54289 0.17388 0.0
H1481 H 0.99379 0.48708 0.17593 0.0
H1482 H 0.99271 0.48761 0.29726 0.0
H1483 H 0.97892 0.51056 0.0801 0.0
H1484 H 0.04191 0.49013 0.15188 0.0
H1485 H 0.07261 0.49285 0.21325 0.0
H1486 H 0.08596 0.54562 0.10741 0.0
H1487 H 0.05518 0.54336 0.04606 0.0
C1488 C 1.00571 0.49502 0.77269 0.0
C1489 C 0.01381 0.51058 0.73636 0.0
C1490 C 1.00508 0.49545 0.84238 0.0
C1491 C 0.01252 0.51143 0.87717 0.0
C1492 C 0.02112 0.52668 0.84115 0.0
C1493 C 0.0217 0.52632 0.7716 0.0
C1494 C 0.01107 0.51247 0.951 0.0
C1495 C 0.02803 0.51483 0.98837 0.0
C1496 C 0.99314 0.51096 0.9846 0.0
C1497 C 0.97458 0.50961 0.94798 0.0
C1498 C 0.96943 0.52389 0.90073 0.0
C1499 C 0.95199 0.52245 0.86603 0.0
C1500 C 0.93952 0.50689 0.87853 0.0
C1501 C 0.94443 0.49275 0.92589 0.0
C1502 C 0.96186 0.4941 0.96067 0.0
C1503 C 0.01506 0.53116 0.27029 0.0
C1504 C 1.007 0.51557 0.30655 0.0
C1505 C 0.01565 0.53079 0.20059 0.0
C1506 C 1.00822 0.51482 0.16572 0.0
C1507 C 0.99965 0.49953 0.20168 0.0
C1508 C 0.99912 0.49985 0.27123 0.0
C1509 C 1.00966 0.51381 0.09189 0.0
C1510 C 0.9927 0.51146 0.05452 0.0
C1511 C 0.02759 0.51533 0.05829 0.0
C1512 C 0.04614 0.51668 0.09489 0.0
C1513 C 0.05132 0.5024 0.14208 0.0
C1514 C 0.06875 0.50384 0.17679 0.0
C1515 C 0.08121 0.51943 0.16437 0.0
C1516 C 0.07628 0.53357 0.11706 0.0
C1517 C 0.05885 0.53221 0.08227 0.0
H1518 H 0.0947 0.52052 0.19128 0.0
H1519 H 0.92602 0.50581 0.85162 0.0
loop_
_geom_bond_atom_site_label_1
_geom_bond_atom_site_label_2
_geom_bond_distance
_geom_bond_site_symmetry_2
_ccdc_geom_bond_type
Nd0 C2 2.836 . S
Nd0 O20 2.500 . S
Nd0 O21 2.492 . S
Nd0 O22 2.487 1_545 S
Nd0 O23 2.682 1_545 S
Nd0 O24 2.410 . S
Nd0 O29 2.414 1_455 S
Nd0 O31 2.424 . S
Nd1 C11 2.836 . S
Nd1 O23 2.414 1_655 S
Nd1 O25 2.424 . S
Nd1 O26 2.500 . S
Nd1 O27 2.492 . S
Nd1 O28 2.487 1_565 S
Nd1 O29 2.682 1_565 S
Nd1 O30 2.410 . S
C2 Nd0 2.836 . S
C2 C3 1.498 . S
C2 O20 1.258 . S
C2 O21 1.239 . S
C3 C2 1.498 . S
C3 C4 1.366 . S
C3 C8 1.407 . S
C4 C3 1.366 . S
C4 C5 1.392 . S
C4 H32 0.930 . S
C5 C4 1.392 . S
C5 C6 1.398 . S
C5 H33 0.929 . S
C6 C5 1.398 . S
C6 C7 1.352 . S
C7 C6 1.352 . S
C7 C8 1.384 . S
C7 H34 0.930 . S
C8 C3 1.407 . S
C8 C7 1.384 . S
C8 H35 0.929 . S
C9 O22 1.241 . S
C9 O23 1.273 . S
C10 O24 1.251 . S
C10 O25 1.268 1_445 S
C11 Nd1 2.836 . S
C11 C12 1.498 . S
C11 O26 1.258 . S
C11 O27 1.239 . S
C12 C11 1.498 . S
C12 C13 1.366 . S
C12 C17 1.407 . S
C13 C12 1.366 . S
C13 C14 1.392 . S
C13 H36 0.930 . S
C14 C13 1.392 . S
C14 C15 1.398 . S
C14 H37 0.929 . S
C15 C14 1.398 . S
C15 C16 1.352 . S
C16 C15 1.352 . S
C16 C17 1.384 . S
C16 H38 0.930 . S
C17 C12 1.407 . S
C17 C16 1.384 . S
C17 H39 0.929 . S
C18 O28 1.241 . S
C18 O29 1.273 . S
C19 O30 1.251 . S
C19 O31 1.268 1_665 S
O20 Nd0 2.500 . S
O20 C2 1.258 . S
O21 Nd0 2.492 . S
O21 C2 1.239 . S
O22 Nd0 2.487 1_565 S
O22 C9 1.241 . S
O23 Nd0 2.682 1_565 S
O23 Nd1 2.414 1_455 S
O23 C9 1.273 . S
O24 Nd0 2.410 . S
O24 C10 1.251 . S
O25 Nd1 2.424 . S
O25 C10 1.268 1_665 S
O26 Nd1 2.500 . S
O26 C11 1.258 . S
O27 Nd1 2.492 . S
O27 C11 1.239 . S
O28 Nd1 2.487 1_545 S
O28 C18 1.241 . S
O29 Nd0 2.414 1_655 S
O29 Nd1 2.682 1_545 S
O29 C18 1.273 . S
O30 Nd1 2.410 . S
O30 C19 1.251 . S
O31 Nd0 2.424 . S
O31 C19 1.268 1_445 S
H32 C4 0.930 . S
H33 C5 0.929 . S
H34 C7 0.930 . S
H35 C8 0.929 . S
H36 C13 0.930 . S
H37 C14 0.929 . S
H38 C16 0.930 . S
H39 C17 0.929 . S
Nd40 C42 2.836 . S
Nd40 O60 2.500 . S
Nd40 O61 2.492 . S
Nd40 O62 2.487 . S
Nd40 O63 2.682 . S
Nd40 O64 2.410 . S
Nd40 O69 2.414 . S
Nd40 O71 2.424 . S
Nd41 C51 2.836 . S
Nd41 O63 2.414 . S
Nd41 O65 2.424 . S
Nd41 O66 2.500 . S
Nd41 O67 2.492 . S
Nd41 O68 2.487 . S
Nd41 O69 2.682 . S
Nd41 O70 2.410 . S
C42 Nd40 2.836 . S
C42 C43 1.498 . S
C42 O60 1.258 . S
C42 O61 1.239 . S
C43 C42 1.498 . S
C43 C44 1.366 . S
C43 C48 1.407 . S
C44 C43 1.366 . S
C44 C45 1.392 . S
C44 H72 0.930 . S
C45 C44 1.392 . S
C45 C46 1.398 . S
C45 H73 0.929 . S
C46 C45 1.398 . S
C46 C47 1.352 . S
C47 C46 1.352 . S
C47 C48 1.384 . S
C47 H74 0.930 . S
C48 C43 1.407 . S
C48 C47 1.384 . S
C48 H75 0.929 . S
C49 O62 1.241 . S
C49 O63 1.273 . S
C50 O64 1.251 . S
C50 O65 1.268 . S
C51 Nd41 2.836 . S
C51 C52 1.498 . S
C51 O66 1.258 . S
C51 O67 1.239 . S
C52 C51 1.498 . S
C52 C53 1.366 . S
C52 C57 1.407 . S
C53 C52 1.366 . S
C53 C54 1.392 . S
C53 H76 0.930 . S
C54 C53 1.392 . S
C54 C55 1.398 . S
C54 H77 0.929 . S
C55 C54 1.398 . S
C55 C56 1.352 . S
C56 C55 1.352 . S
C56 C57 1.384 . S
C56 H78 0.930 . S
C57 C52 1.407 . S
C57 C56 1.384 . S
C57 H79 0.929 . S
C58 O68 1.241 . S
C58 O69 1.273 . S
C59 O70 1.251 . S
C59 O71 1.268 . S
O60 Nd40 2.500 . S
O60 C42 1.258 . S
O61 Nd40 2.492 . S
O61 C42 1.239 . S
O62 Nd40 2.487 . S
O62 C49 1.241 . S
O63 Nd40 2.682 . S
O63 Nd41 2.414 . S
O63 C49 1.273 . S
O64 Nd40 2.410 . S
O64 C50 1.251 . S
O65 Nd41 2.424 . S
O65 C50 1.268 . S
O66 Nd41 2.500 . S
O66 C51 1.258 . S
O67 Nd41 2.492 . S
O67 C51 1.239 . S
O68 Nd41 2.487 . S
O68 C58 1.241 . S
O69 Nd40 2.414 . S
O69 Nd41 2.682 . S
O69 C58 1.273 . S
O70 Nd41 2.410 . S
O70 C59 1.251 . S
O71 Nd40 2.424 . S
O71 C59 1.268 . S
H72 C44 0.930 . S
H73 C45 0.929 . S
H74 C47 0.930 . S
H75 C48 0.929 . S
H76 C53 0.930 . S
H77 C54 0.929 . S
H78 C56 0.930 . S
H79 C57 0.929 . S
Nd80 C82 2.836 1_554 S
Nd80 O100 2.500 1_554 S
Nd80 O101 2.492 1_554 S
Nd80 O102 2.487 1_565 S
Nd80 O103 2.682 1_565 S
Nd80 O104 2.410 1_554 S
Nd80 O109 2.414 1_554 S
Nd80 O111 2.424 . S
Nd81 C91 2.836 1_556 S
Nd81 O103 2.414 1_556 S
Nd81 O105 2.424 . S
Nd81 O106 2.500 1_556 S
Nd81 O107 2.492 1_556 S
Nd81 O108 2.487 1_545 S
Nd81 O109 2.682 1_545 S
Nd81 O110 2.410 1_556 S
C82 Nd80 2.836 1_556 S
C82 C83 1.498 . S
C82 O100 1.258 . S
C82 O101 1.239 . S
C83 C82 1.498 . S
C83 C84 1.366 . S
C83 C88 1.407 . S
C84 C83 1.366 . S
C84 C85 1.392 . S
C84 H112 0.930 . S
C85 C84 1.392 . S
C85 C86 1.398 . S
C85 H113 0.929 . S
C86 C85 1.398 . S
C86 C87 1.352 . S
C87 C86 1.352 . S
C87 C88 1.384 . S
C87 H114 0.930 . S
C88 C83 1.407 . S
C88 C87 1.384 . S
C88 H115 0.929 . S
C89 O102 1.241 . S
C89 O103 1.273 . S
C90 O104 1.251 . S
C90 O105 1.268 1_565 S
C91 Nd81 2.836 1_554 S
C91 C92 1.498 . S
C91 O106 1.258 . S
C91 O107 1.239 . S
C92 C91 1.498 . S
C92 C93 1.366 . S
C92 C97 1.407 . S
C93 C92 1.366 . S
C93 C94 1.392 . S
C93 H116 0.930 . S
C94 C93 1.392 . S
C94 C95 1.398 . S
C94 H117 0.929 . S
C95 C94 1.398 . S
C95 C96 1.352 . S
C96 C95 1.352 . S
C96 C97 1.384 . S
C96 H118 0.930 . S
C97 C92 1.407 . S
C97 C96 1.384 . S
C97 H119 0.929 . S
C98 O108 1.241 . S
C98 O109 1.273 . S
C99 O110 1.251 . S
C99 O111 1.268 1_545 S
O100 Nd80 2.500 1_556 S
O100 C82 1.258 . S
O101 Nd80 2.492 1_556 S
O101 C82 1.239 . S
O102 Nd80 2.487 1_545 S
O102 C89 1.241 . S
O103 Nd80 2.682 1_545 S
O103 Nd81 2.414 1_554 S
O103 C89 1.273 . S
O104 Nd80 2.410 1_556 S
O104 C90 1.251 . S
O105 Nd81 2.424 . S
O105 C90 1.268 1_545 S
O106 Nd81 2.500 1_554 S
O106 C91 1.258 . S
O107 Nd81 2.492 1_554 S
O107 C91 1.239 . S
O108 Nd81 2.487 1_565 S
O108 C98 1.241 . S
O109 Nd80 2.414 1_556 S
O109 Nd81 2.682 1_565 S
O109 C98 1.273 . S
O110 Nd81 2.410 1_554 S
O110 C99 1.251 . S
O111 Nd80 2.424 . S
O111 C99 1.268 1_565 S
H112 C84 0.930 . S
H113 C85 0.929 . S
H114 C87 0.930 . S
H115 C88 0.929 . S
H116 C93 0.930 . S
H117 C94 0.929 . S
H118 C96 0.930 . S
H119 C97 0.929 . S
Nd120 C122 2.836 . S
Nd120 O140 2.500 . S
Nd120 O141 2.492 . S
Nd120 O142 2.487 . S
Nd120 O143 2.682 . S
Nd120 O144 2.410 . S
Nd120 O149 2.414 . S
Nd120 O151 2.424 . S
Nd121 C131 2.836 . S
Nd121 O143 2.414 . S
Nd121 O145 2.424 . S
Nd121 O146 2.500 . S
Nd121 O147 2.492 . S
Nd121 O148 2.487 . S
Nd121 O149 2.682 . S
Nd121 O150 2.410 . S
C122 Nd120 2.836 . S
C122 C123 1.498 . S
C122 O140 1.258 . S
C122 O141 1.239 . S
C123 C122 1.498 . S
C123 C124 1.366 . S
C123 C128 1.407 . S
C124 C123 1.366 . S
C124 C125 1.392 . S
C124 H152 0.930 . S
C125 C124 1.392 . S
C125 C126 1.398 . S
C125 H153 0.929 . S
C126 C125 1.398 . S
C126 C127 1.352 . S
C127 C126 1.352 . S
C127 C128 1.384 . S
C127 H154 0.930 . S
C128 C123 1.407 . S
C128 C127 1.384 . S
C128 H155 0.929 . S
C129 O142 1.241 . S
C129 O143 1.273 . S
C130 O144 1.251 . S
C130 O145 1.268 . S
C131 Nd121 2.836 . S
C131 C132 1.498 . S
C131 O146 1.258 . S
C131 O147 1.239 . S
C132 C131 1.498 . S
C132 C133 1.366 . S
C132 C137 1.407 . S
C133 C132 1.366 . S
C133 C134 1.392 . S
C133 H156 0.930 . S
C134 C133 1.392 . S
C134 C135 1.398 . S
C134 H157 0.929 . S
C135 C134 1.398 . S
C135 C136 1.352 . S
C136 C135 1.352 . S
C136 C137 1.384 . S
C136 H158 0.930 . S
C137 C132 1.407 . S
C137 C136 1.384 . S
C137 H159 0.929 . S
C138 O148 1.241 . S
C138 O149 1.273 . S
C139 O150 1.251 . S
C139 O151 1.268 . S
O140 Nd120 2.500 . S
O140 C122 1.258 . S
O141 Nd120 2.492 . S
O141 C122 1.239 . S
O142 Nd120 2.487 . S
O142 C129 1.241 . S
O143 Nd120 2.682 . S
O143 Nd121 2.414 . S
O143 C129 1.273 . S
O144 Nd120 2.410 . S
O144 C130 1.251 . S
O145 Nd121 2.424 . S
O145 C130 1.268 . S
O146 Nd121 2.500 . S
O146 C131 1.258 . S
O147 Nd121 2.492 . S
O147 C131 1.239 . S
O148 Nd121 2.487 . S
O148 C138 1.241 . S
O149 Nd120 2.414 . S
O149 Nd121 2.682 . S
O149 C138 1.273 . S
O150 Nd121 2.410 . S
O150 C139 1.251 . S
O151 Nd120 2.424 . S
O151 C139 1.268 . S
H152 C124 0.930 . S
H153 C125 0.929 . S
H154 C127 0.930 . S
H155 C128 0.929 . S
H156 C133 0.930 . S
H157 C134 0.929 . S
H158 C136 0.930 . S
H159 C137 0.929 . S
Nd160 C162 2.836 . S
Nd160 O180 2.500 . S
Nd160 O181 2.492 . S
Nd160 O182 2.487 . S
Nd160 O183 2.682 . S
Nd160 O184 2.410 . S
Nd160 O189 2.414 . S
Nd160 O191 2.424 . S
Nd161 C171 2.836 . S
Nd161 O183 2.414 . S
Nd161 O185 2.424 . S
Nd161 O186 2.500 . S
Nd161 O187 2.492 . S
Nd161 O188 2.487 . S
Nd161 O189 2.682 . S
Nd161 O190 2.410 . S
C162 Nd160 2.836 . S
C162 C163 1.498 . S
C162 O180 1.258 . S
C162 O181 1.239 . S
C163 C162 1.498 . S
C163 C164 1.366 . S
C163 C168 1.407 . S
C164 C163 1.366 . S
C164 C165 1.392 . S
C164 H192 0.930 . S
C165 C164 1.392 . S
C165 C166 1.398 . S
C165 H193 0.929 . S
C166 C165 1.398 . S
C166 C167 1.352 . S
C167 C166 1.352 . S
C167 C168 1.384 . S
C167 H194 0.930 . S
C168 C163 1.407 . S
C168 C167 1.384 . S
C168 H195 0.929 . S
C169 O182 1.241 . S
C169 O183 1.273 . S
C170 O184 1.251 . S
C170 O185 1.268 . S
C171 Nd161 2.836 . S
C171 C172 1.498 . S
C171 O186 1.258 . S
C171 O187 1.239 . S
C172 C171 1.498 . S
C172 C173 1.366 . S
C172 C177 1.407 . S
C173 C172 1.366 . S
C173 C174 1.392 . S
C173 H196 0.930 . S
C174 C173 1.392 . S
C174 C175 1.398 . S
C174 H197 0.929 . S
C175 C174 1.398 . S
C175 C176 1.352 . S
C176 C175 1.352 . S
C176 C177 1.384 . S
C176 H198 0.930 . S
C177 C172 1.407 . S
C177 C176 1.384 . S
C177 H199 0.929 . S
C178 O188 1.241 . S
C178 O189 1.273 . S
C179 O190 1.251 . S
C179 O191 1.268 . S
O180 Nd160 2.500 . S
O180 C162 1.258 . S
O181 Nd160 2.492 . S
O181 C162 1.239 . S
O182 Nd160 2.487 . S
O182 C169 1.241 . S
O183 Nd160 2.682 . S
O183 Nd161 2.414 . S
O183 C169 1.273 . S
O184 Nd160 2.410 . S
O184 C170 1.251 . S
O185 Nd161 2.424 . S
O185 C170 1.268 . S
O186 Nd161 2.500 . S
O186 C171 1.258 . S
O187 Nd161 2.492 . S
O187 C171 1.239 . S
O188 Nd161 2.487 . S
O188 C178 1.241 . S
O189 Nd160 2.414 . S
O189 Nd161 2.682 . S
O189 C178 1.273 . S
O190 Nd161 2.410 . S
O190 C179 1.251 . S
O191 Nd160 2.424 . S
O191 C179 1.268 . S
H192 C164 0.930 . S
H193 C165 0.929 . S
H194 C167 0.930 . S
H195 C168 0.929 . S
H196 C173 0.930 . S
H197 C174 0.929 . S
H198 C176 0.930 . S
H199 C177 0.929 . S
Nd200 C202 2.836 . S
Nd200 O220 2.500 . S
Nd200 O221 2.492 . S
Nd200 O222 2.487 . S
Nd200 O223 2.682 . S
Nd200 O224 2.410 . S
Nd200 O229 2.414 . S
Nd200 O231 2.424 . S
Nd201 C211 2.836 . S
Nd201 O223 2.414 . S
Nd201 O225 2.424 . S
Nd201 O226 2.500 . S
Nd201 O227 2.492 . S
Nd201 O228 2.487 . S
Nd201 O229 2.682 . S
Nd201 O230 2.410 . S
C202 Nd200 2.836 . S
C202 C203 1.498 . S
C202 O220 1.258 . S
C202 O221 1.239 . S
C203 C202 1.498 . S
C203 C204 1.366 . S
C203 C208 1.407 . S
C204 C203 1.366 . S
C204 C205 1.392 . S
C204 H232 0.930 . S
C205 C204 1.392 . S
C205 C206 1.398 . S
C205 H233 0.929 . S
C206 C205 1.398 . S
C206 C207 1.352 . S
C207 C206 1.352 . S
C207 C208 1.384 . S
C207 H234 0.930 . S
C208 C203 1.407 . S
C208 C207 1.384 . S
C208 H235 0.929 . S
C209 O222 1.241 . S
C209 O223 1.273 . S
C210 O224 1.251 . S
C210 O225 1.268 . S
C211 Nd201 2.836 . S
C211 C212 1.498 . S
C211 O226 1.258 . S
C211 O227 1.239 . S
C212 C211 1.498 . S
C212 C213 1.366 . S
C212 C217 1.407 . S
C213 C212 1.366 . S
C213 C214 1.392 . S
C213 H236 0.930 . S
C214 C213 1.392 . S
C214 C215 1.398 . S
C214 H237 0.929 . S
C215 C214 1.398 . S
C215 C216 1.352 . S
C216 C215 1.352 . S
C216 C217 1.384 . S
C216 H238 0.930 . S
C217 C212 1.407 . S
C217 C216 1.384 . S
C217 H239 0.929 . S
C218 O228 1.241 . S
C218 O229 1.273 . S
C219 O230 1.251 . S
C219 O231 1.268 . S
O220 Nd200 2.500 . S
O220 C202 1.258 . S
O221 Nd200 2.492 . S
O221 C202 1.239 . S
O222 Nd200 2.487 . S
O222 C209 1.241 . S
O223 Nd200 2.682 . S
O223 Nd201 2.414 . S
O223 C209 1.273 . S
O224 Nd200 2.410 . S
O224 C210 1.251 . S
O225 Nd201 2.424 . S
O225 C210 1.268 . S
O226 Nd201 2.500 . S
O226 C211 1.258 . S
O227 Nd201 2.492 . S
O227 C211 1.239 . S
O228 Nd201 2.487 . S
O228 C218 1.241 . S
O229 Nd200 2.414 . S
O229 Nd201 2.682 . S
O229 C218 1.273 . S
O230 Nd201 2.410 . S
O230 C219 1.251 . S
O231 Nd200 2.424 . S
O231 C219 1.268 . S
H232 C204 0.930 . S
H233 C205 0.929 . S
H234 C207 0.930 . S
H235 C208 0.929 . S
H236 C213 0.930 . S
H237 C214 0.929 . S
H238 C216 0.930 . S
H239 C217 0.929 . S
Nd240 C242 2.836 1_554 S
Nd240 O260 2.500 1_554 S
Nd240 O261 2.492 1_554 S
Nd240 O262 2.487 . S
Nd240 O263 2.682 . S
Nd240 O264 2.410 1_554 S
Nd240 O269 2.414 1_554 S
Nd240 O271 2.424 . S
Nd241 C251 2.836 1_556 S
Nd241 O263 2.414 1_556 S
Nd241 O265 2.424 . S
Nd241 O266 2.500 1_556 S
Nd241 O267 2.492 1_556 S
Nd241 O268 2.487 . S
Nd241 O269 2.682 . S
Nd241 O270 2.410 1_556 S
C242 Nd240 2.836 1_556 S
C242 C243 1.498 . S
C242 O260 1.258 . S
C242 O261 1.239 . S
C243 C242 1.498 . S
C243 C244 1.366 . S
C243 C248 1.407 . S
C244 C243 1.366 . S
C244 C245 1.392 . S
C244 H272 0.930 . S
C245 C244 1.392 . S
C245 C246 1.398 . S
C245 H273 0.929 . S
C246 C245 1.398 . S
C246 C247 1.352 . S
C247 C246 1.352 . S
C247 C248 1.384 . S
C247 H274 0.930 . S
C248 C243 1.407 . S
C248 C247 1.384 . S
C248 H275 0.929 . S
C249 O262 1.241 . S
C249 O263 1.273 . S
C250 O264 1.251 . S
C250 O265 1.268 . S
C251 Nd241 2.836 1_554 S
C251 C252 1.498 . S
C251 O266 1.258 . S
C251 O267 1.239 . S
C252 C251 1.498 . S
C252 C253 1.366 . S
C252 C257 1.407 . S
C253 C252 1.366 . S
C253 C254 1.392 . S
C253 H276 0.930 . S
C254 C253 1.392 . S
C254 C255 1.398 . S
C254 H277 0.929 . S
C255 C254 1.398 . S
C255 C256 1.352 . S
C256 C255 1.352 . S
C256 C257 1.384 . S
C256 H278 0.930 . S
C257 C252 1.407 . S
C257 C256 1.384 . S
C257 H279 0.929 . S
C258 O268 1.241 . S
C258 O269 1.273 . S
C259 O270 1.251 . S
C259 O271 1.268 . S
O260 Nd240 2.500 1_556 S
O260 C242 1.258 . S
O261 Nd240 2.492 1_556 S
O261 C242 1.239 . S
O262 Nd240 2.487 . S
O262 C249 1.241 . S
O263 Nd240 2.682 . S
O263 Nd241 2.414 1_554 S
O263 C249 1.273 . S
O264 Nd240 2.410 1_556 S
O264 C250 1.251 . S
O265 Nd241 2.424 . S
O265 C250 1.268 . S
O266 Nd241 2.500 1_554 S
O266 C251 1.258 . S
O267 Nd241 2.492 1_554 S
O267 C251 1.239 . S
O268 Nd241 2.487 . S
O268 C258 1.241 . S
O269 Nd240 2.414 1_556 S
O269 Nd241 2.682 . S
O269 C258 1.273 . S
O270 Nd241 2.410 1_554 S
O270 C259 1.251 . S
O271 Nd240 2.424 . S
O271 C259 1.268 . S
H272 C244 0.930 . S
H273 C245 0.929 . S
H274 C247 0.930 . S
H275 C248 0.929 . S
H276 C253 0.930 . S
H277 C254 0.929 . S
H278 C256 0.930 . S
H279 C257 0.929 . S
Nd280 C282 2.836 . S
Nd280 O300 2.500 . S
Nd280 O301 2.492 . S
Nd280 O302 2.487 . S
Nd280 O303 2.682 . S
Nd280 O304 2.410 . S
Nd280 O309 2.414 1_655 S
Nd280 O311 2.424 . S
Nd281 C291 2.836 . S
Nd281 O303 2.414 1_455 S
Nd281 O305 2.424 . S
Nd281 O306 2.500 . S
Nd281 O307 2.492 . S
Nd281 O308 2.487 . S
Nd281 O309 2.682 . S
Nd281 O310 2.410 . S
C282 Nd280 2.836 . S
C282 C283 1.498 . S
C282 O300 1.258 . S
C282 O301 1.239 . S
C283 C282 1.498 . S
C283 C284 1.366 . S
C283 C288 1.407 . S
C284 C283 1.366 . S
C284 C285 1.392 . S
C284 H312 0.930 . S
C285 C284 1.392 . S
C285 C286 1.398 . S
C285 H313 0.929 . S
C286 C285 1.398 . S
C286 C287 1.352 . S
C287 C286 1.352 . S
C287 C288 1.384 . S
C287 H314 0.930 . S
C288 C283 1.407 . S
C288 C287 1.384 . S
C288 H315 0.929 . S
C289 O302 1.241 . S
C289 O303 1.273 . S
C290 O304 1.251 . S
C290 O305 1.268 1_655 S
C291 Nd281 2.836 . S
C291 C292 1.498 . S
C291 O306 1.258 . S
C291 O307 1.239 . S
C292 C291 1.498 . S
C292 C293 1.366 . S
C292 C297 1.407 . S
C293 C292 1.366 . S
C293 C294 1.392 . S
C293 H316 0.930 . S
C294 C293 1.392 . S
C294 C295 1.398 . S
C294 H317 0.929 . S
C295 C294 1.398 . S
C295 C296 1.352 . S
C296 C295 1.352 . S
C296 C297 1.384 . S
C296 H318 0.930 . S
C297 C292 1.407 . S
C297 C296 1.384 . S
C297 H319 0.929 . S
C298 O308 1.241 . S
C298 O309 1.273 . S
C299 O310 1.251 . S
C299 O311 1.268 1_455 S
O300 Nd280 2.500 . S
O300 C282 1.258 . S
O301 Nd280 2.492 . S
O301 C282 1.239 . S
O302 Nd280 2.487 . S
O302 C289 1.241 . S
O303 Nd280 2.682 . S
O303 Nd281 2.414 1_655 S
O303 C289 1.273 . S
O304 Nd280 2.410 . S
O304 C290 1.251 . S
O305 Nd281 2.424 . S
O305 C290 1.268 1_455 S
O306 Nd281 2.500 . S
O306 C291 1.258 . S
O307 Nd281 2.492 . S
O307 C291 1.239 . S
O308 Nd281 2.487 . S
O308 C298 1.241 . S
O309 Nd280 2.414 1_455 S
O309 Nd281 2.682 . S
O309 C298 1.273 . S
O310 Nd281 2.410 . S
O310 C299 1.251 . S
O311 Nd280 2.424 . S
O311 C299 1.268 1_655 S
H312 C284 0.930 . S
H313 C285 0.929 . S
H314 C287 0.930 . S
H315 C288 0.929 . S
H316 C293 0.930 . S
H317 C294 0.929 . S
H318 C296 0.930 . S
H319 C297 0.929 . S
H320 C338 0.951 . S
H321 C340 0.951 . S
H322 C342 0.950 . S
H323 C343 0.950 . S
H324 C345 0.950 . S
H325 C348 0.950 . S
H326 C349 0.950 . S
H327 C351 0.950 . S
H328 C352 0.950 . S
H329 C353 0.951 . S
H330 C355 0.951 . S
H331 C357 0.950 . S
H332 C358 0.950 . S
H333 C360 0.950 . S
H334 C363 0.950 . S
H335 C364 0.950 . S
H336 C366 0.950 . S
H337 C367 0.950 . S
C338 H320 0.951 . S
C338 C339 1.366 . S
C338 C340 1.388 . S
C339 C338 1.366 . S
C339 C343 1.385 . S
C340 H321 0.951 . S
C340 C338 1.388 . S
C340 C341 1.366 . S
C341 C340 1.366 . S
C341 C342 1.414 . S
C341 C344 1.499 . S
C342 H322 0.950 . S
C342 C341 1.414 . S
C342 C343 1.374 . S
C343 H323 0.950 . S
C343 C339 1.385 . S
C343 C342 1.374 . S
C344 C341 1.499 . S
C344 C345 1.373 . S
C344 C346 1.389 . S
C345 H324 0.950 . S
C345 C344 1.373 . S
C345 C361 1.377 . S
C346 C344 1.389 . S
C346 C347 1.524 . S
C346 C360 1.377 . S
C347 C346 1.524 . S
C347 C348 1.397 . S
C347 C352 1.363 . S
C348 H325 0.950 . S
C348 C347 1.397 . S
C348 C349 1.334 . S
C349 H326 0.950 . S
C349 C348 1.334 . S
C349 C350 1.287 . S
C350 C349 1.287 . S
C350 C351 1.524 . S
C350 H369 0.913 . S
C351 H327 0.950 . S
C351 C350 1.524 . S
C351 C352 1.415 . S
C352 H328 0.950 . S
C352 C347 1.363 . S
C352 C351 1.415 . S
C353 H329 0.951 . S
C353 C354 1.366 . S
C353 C355 1.388 . S
C354 C353 1.366 . S
C354 C358 1.385 . S
C355 H330 0.951 . S
C355 C353 1.388 . S
C355 C356 1.366 . S
C356 C355 1.366 . S
C356 C357 1.414 . S
C356 C359 1.499 . S
C357 H331 0.950 . S
C357 C356 1.414 . S
C357 C358 1.374 . S
C358 H332 0.950 . S
C358 C354 1.385 . S
C358 C357 1.374 . S
C359 C356 1.499 . S
C359 C360 1.373 . S
C359 C361 1.389 . S
C360 H333 0.950 . S
C360 C346 1.377 . S
C360 C359 1.373 . S
C361 C345 1.377 . S
C361 C359 1.389 . S
C361 C362 1.524 . S
C362 C361 1.524 . S
C362 C363 1.397 . S
C362 C367 1.363 . S
C363 H334 0.950 . S
C363 C362 1.397 . S
C363 C364 1.334 . S
C364 H335 0.950 . S
C364 C363 1.334 . S
C364 C365 1.287 . S
C365 C364 1.287 . S
C365 C366 1.524 . S
C365 H368 0.999 . S
C366 H336 0.950 . S
C366 C365 1.524 . S
C366 C367 1.415 . S
C367 H337 0.950 . S
C367 C362 1.363 . S
C367 C366 1.415 . S
H368 C365 0.999 . S
H369 C350 0.913 . S
H370 C388 0.951 . S
H371 C390 0.951 . S
H372 C392 0.950 . S
H373 C393 0.950 . S
H374 C395 0.950 . S
H375 C398 0.950 . S
H376 C399 0.950 . S
H377 C401 0.950 . S
H378 C402 0.950 . S
H379 C403 0.951 . S
H380 C405 0.951 . S
H381 C407 0.950 . S
H382 C408 0.950 . S
H383 C410 0.950 . S
H384 C413 0.950 . S
H385 C414 0.950 . S
H386 C416 0.950 . S
H387 C417 0.950 . S
C388 H370 0.951 . S
C388 C389 1.366 . S
C388 C390 1.388 . S
C389 C388 1.366 . S
C389 C393 1.385 . S
C390 H371 0.951 . S
C390 C388 1.388 . S
C390 C391 1.366 . S
C391 C390 1.366 . S
C391 C392 1.414 . S
C391 C394 1.499 . S
C392 H372 0.950 . S
C392 C391 1.414 . S
C392 C393 1.374 . S
C393 H373 0.950 . S
C393 C389 1.385 . S
C393 C392 1.374 . S
C394 C391 1.499 . S
C394 C395 1.373 . S
C394 C396 1.389 . S
C395 H374 0.950 . S
C395 C394 1.373 . S
C395 C411 1.377 . S
C396 C394 1.389 . S
C396 C397 1.524 . S
C396 C410 1.377 . S
C397 C396 1.524 . S
C397 C398 1.397 . S
C397 C402 1.363 . S
C398 H375 0.950 . S
C398 C397 1.397 . S
C398 C399 1.334 . S
C399 H376 0.950 . S
C399 C398 1.334 . S
C399 C400 1.287 . S
C400 C399 1.287 . S
C400 C401 1.524 . S
C400 H419 0.913 . S
C401 H377 0.950 . S
C401 C400 1.524 . S
C401 C402 1.415 . S
C402 H378 0.950 . S
C402 C397 1.363 . S
C402 C401 1.415 . S
C403 H379 0.951 . S
C403 C404 1.366 . S
C403 C405 1.388 . S
C404 C403 1.366 . S
C404 C408 1.385 . S
C405 H380 0.951 . S
C405 C403 1.388 . S
C405 C406 1.366 . S
C406 C405 1.366 . S
C406 C407 1.414 . S
C406 C409 1.499 . S
C407 H381 0.950 . S
C407 C406 1.414 . S
C407 C408 1.374 . S
C408 H382 0.950 . S
C408 C404 1.385 . S
C408 C407 1.374 . S
C409 C406 1.499 . S
C409 C410 1.373 . S
C409 C411 1.389 . S
C410 H383 0.950 . S
C410 C396 1.377 . S
C410 C409 1.373 . S
C411 C395 1.377 . S
C411 C409 1.389 . S
C411 C412 1.524 . S
C412 C411 1.524 . S
C412 C413 1.397 . S
C412 C417 1.363 . S
C413 H384 0.950 . S
C413 C412 1.397 . S
C413 C414 1.334 . S
C414 H385 0.950 . S
C414 C413 1.334 . S
C414 C415 1.287 . S
C415 C414 1.287 . S
C415 C416 1.524 . S
C415 H418 0.999 . S
C416 H386 0.950 . S
C416 C415 1.524 . S
C416 C417 1.415 . S
C417 H387 0.950 . S
C417 C412 1.363 . S
C417 C416 1.415 . S
H418 C415 0.999 . S
H419 C400 0.913 . S
H420 C438 0.951 . S
H421 C440 0.951 . S
H422 C442 0.950 . S
H423 C443 0.950 . S
H424 C445 0.950 . S
H425 C448 0.950 . S
H426 C449 0.950 . S
H427 C451 0.950 . S
H428 C452 0.950 . S
H429 C453 0.951 . S
H430 C455 0.951 . S
H431 C457 0.950 . S
H432 C458 0.950 . S
H433 C460 0.950 . S
H434 C463 0.950 . S
H435 C464 0.950 . S
H436 C466 0.950 . S
H437 C467 0.950 . S
C438 H420 0.951 . S
C438 C439 1.366 . S
C438 C440 1.388 . S
C439 C438 1.366 . S
C439 C443 1.385 . S
C440 H421 0.951 . S
C440 C438 1.388 . S
C440 C441 1.366 . S
C441 C440 1.366 . S
C441 C442 1.414 . S
C441 C444 1.499 . S
C442 H422 0.950 . S
C442 C441 1.414 . S
C442 C443 1.374 . S
C443 H423 0.950 . S
C443 C439 1.385 . S
C443 C442 1.374 . S
C444 C441 1.499 . S
C444 C445 1.373 . S
C444 C446 1.389 . S
C445 H424 0.950 . S
C445 C444 1.373 . S
C445 C461 1.377 . S
C446 C444 1.389 . S
C446 C447 1.524 . S
C446 C460 1.377 . S
C447 C446 1.524 . S
C447 C448 1.397 . S
C447 C452 1.363 . S
C448 H425 0.950 . S
C448 C447 1.397 . S
C448 C449 1.334 . S
C449 H426 0.950 . S
C449 C448 1.334 . S
C449 C450 1.287 . S
C450 C449 1.287 . S
C450 C451 1.524 . S
C450 H469 0.913 . S
C451 H427 0.950 . S
C451 C450 1.524 . S
C451 C452 1.415 . S
C452 H428 0.950 . S
C452 C447 1.363 . S
C452 C451 1.415 . S
C453 H429 0.951 . S
C453 C454 1.366 . S
C453 C455 1.388 . S
C454 C453 1.366 . S
C454 C458 1.385 . S
C455 H430 0.951 . S
C455 C453 1.388 . S
C455 C456 1.366 . S
C456 C455 1.366 . S
C456 C457 1.414 . S
C456 C459 1.499 . S
C457 H431 0.950 . S
C457 C456 1.414 . S
C457 C458 1.374 . S
C458 H432 0.950 . S
C458 C454 1.385 . S
C458 C457 1.374 . S
C459 C456 1.499 . S
C459 C460 1.373 . S
C459 C461 1.389 . S
C460 H433 0.950 . S
C460 C446 1.377 . S
C460 C459 1.373 . S
C461 C445 1.377 . S
C461 C459 1.389 . S
C461 C462 1.524 . S
C462 C461 1.524 . S
C462 C463 1.397 . S
C462 C467 1.363 . S
C463 H434 0.950 . S
C463 C462 1.397 . S
C463 C464 1.334 . S
C464 H435 0.950 . S
C464 C463 1.334 . S
C464 C465 1.287 . S
C465 C464 1.287 . S
C465 C466 1.524 . S
C465 H468 0.999 . S
C466 H436 0.950 . S
C466 C465 1.524 . S
C466 C467 1.415 . S
C467 H437 0.950 . S
C467 C462 1.363 . S
C467 C466 1.415 . S
H468 C465 0.999 . S
H469 C450 0.913 . S
H470 C488 0.951 . S
H471 C490 0.951 . S
H472 C492 0.950 . S
H473 C493 0.950 . S
H474 C495 0.950 . S
H475 C498 0.950 . S
H476 C499 0.950 . S
H477 C501 0.950 . S
H478 C502 0.950 . S
H479 C503 0.951 . S
H480 C505 0.951 . S
H481 C507 0.950 . S
H482 C508 0.950 . S
H483 C510 0.950 1_556 S
H484 C513 0.950 . S
H485 C514 0.950 . S
H486 C516 0.950 . S
H487 C517 0.950 . S
C488 H470 0.951 . S
C488 C489 1.366 . S
C488 C490 1.388 . S
C489 C488 1.366 . S
C489 C493 1.385 . S
C490 H471 0.951 . S
C490 C488 1.388 . S
C490 C491 1.366 . S
C491 C490 1.366 . S
C491 C492 1.414 . S
C491 C494 1.499 . S
C492 H472 0.950 . S
C492 C491 1.414 . S
C492 C493 1.374 . S
C493 H473 0.950 . S
C493 C489 1.385 . S
C493 C492 1.374 . S
C494 C491 1.499 . S
C494 C495 1.373 . S
C494 C496 1.389 . S
C495 H474 0.950 . S
C495 C494 1.373 . S
C495 C511 1.377 . S
C496 C494 1.389 . S
C496 C497 1.524 1_554 S
C496 C510 1.377 . S
C497 C496 1.524 1_556 S
C497 C498 1.397 . S
C497 C502 1.363 . S
C498 H475 0.950 . S
C498 C497 1.397 . S
C498 C499 1.334 . S
C499 H476 0.950 . S
C499 C498 1.334 . S
C499 C500 1.287 . S
C500 C499 1.287 . S
C500 C501 1.524 . S
C500 H519 0.913 . S
C501 H477 0.950 . S
C501 C500 1.524 . S
C501 C502 1.415 . S
C502 H478 0.950 . S
C502 C497 1.363 . S
C502 C501 1.415 . S
C503 H479 0.951 . S
C503 C504 1.366 . S
C503 C505 1.388 . S
C504 C503 1.366 . S
C504 C508 1.385 . S
C505 H480 0.951 . S
C505 C503 1.388 . S
C505 C506 1.366 . S
C506 C505 1.366 . S
C506 C507 1.414 . S
C506 C509 1.499 . S
C507 H481 0.950 . S
C507 C506 1.414 . S
C507 C508 1.374 . S
C508 H482 0.950 . S
C508 C504 1.385 . S
C508 C507 1.374 . S
C509 C506 1.499 . S
C509 C510 1.373 . S
C509 C511 1.389 . S
C510 H483 0.950 1_554 S
C510 C496 1.377 . S
C510 C509 1.373 . S
C511 C495 1.377 . S
C511 C509 1.389 . S
C511 C512 1.524 . S
C512 C511 1.524 . S
C512 C513 1.397 . S
C512 C517 1.363 . S
C513 H484 0.950 . S
C513 C512 1.397 . S
C513 C514 1.334 . S
C514 H485 0.950 . S
C514 C513 1.334 . S
C514 C515 1.287 . S
C515 C514 1.287 . S
C515 C516 1.524 . S
C515 H518 0.999 . S
C516 H486 0.950 . S
C516 C515 1.524 . S
C516 C517 1.415 . S
C517 H487 0.950 . S
C517 C512 1.363 . S
C517 C516 1.415 . S
H518 C515 0.999 . S
H519 C500 0.913 . S
H520 C538 0.951 . S
H521 C540 0.951 . S
H522 C542 0.950 . S
H523 C543 0.950 . S
H524 C545 0.950 . S
H525 C548 0.950 . S
H526 C549 0.950 . S
H527 C551 0.950 . S
H528 C552 0.950 . S
H529 C553 0.951 . S
H530 C555 0.951 . S
H531 C557 0.950 . S
H532 C558 0.950 . S
H533 C560 0.950 . S
H534 C563 0.950 . S
H535 C564 0.950 . S
H536 C566 0.950 . S
H537 C567 0.950 . S
C538 H520 0.951 . S
C538 C539 1.366 . S
C538 C540 1.388 . S
C539 C538 1.366 . S
C539 C543 1.385 . S
C540 H521 0.951 . S
C540 C538 1.388 . S
C540 C541 1.366 . S
C541 C540 1.366 . S
C541 C542 1.414 . S
C541 C544 1.499 . S
C542 H522 0.950 . S
C542 C541 1.414 . S
C542 C543 1.374 . S
C543 H523 0.950 . S
C543 C539 1.385 . S
C543 C542 1.374 . S
C544 C541 1.499 . S
C544 C545 1.373 . S
C544 C546 1.389 . S
C545 H524 0.950 . S
C545 C544 1.373 . S
C545 C561 1.377 . S
C546 C544 1.389 . S
C546 C547 1.524 . S
C546 C560 1.377 . S
C547 C546 1.524 . S
C547 C548 1.397 . S
C547 C552 1.363 . S
C548 H525 0.950 . S
C548 C547 1.397 . S
C548 C549 1.334 . S
C549 H526 0.950 . S
C549 C548 1.334 . S
C549 C550 1.287 . S
C550 C549 1.287 . S
C550 C551 1.524 . S
C550 H569 0.913 . S
C551 H527 0.950 . S
C551 C550 1.524 . S
C551 C552 1.415 . S
C552 H528 0.950 . S
C552 C547 1.363 . S
C552 C551 1.415 . S
C553 H529 0.951 . S
C553 C554 1.366 . S
C553 C555 1.388 . S
C554 C553 1.366 . S
C554 C558 1.385 . S
C555 H530 0.951 . S
C555 C553 1.388 . S
C555 C556 1.366 . S
C556 C555 1.366 . S
C556 C557 1.414 . S
C556 C559 1.499 . S
C557 H531 0.950 . S
C557 C556 1.414 . S
C557 C558 1.374 . S
C558 H532 0.950 . S
C558 C554 1.385 . S
C558 C557 1.374 . S
C559 C556 1.499 . S
C559 C560 1.373 . S
C559 C561 1.389 . S
C560 H533 0.950 . S
C560 C546 1.377 . S
C560 C559 1.373 . S
C561 C545 1.377 . S
C561 C559 1.389 . S
C561 C562 1.524 . S
C562 C561 1.524 . S
C562 C563 1.397 . S
C562 C567 1.363 . S
C563 H534 0.950 . S
C563 C562 1.397 . S
C563 C564 1.334 . S
C564 H535 0.950 . S
C564 C563 1.334 . S
C564 C565 1.287 . S
C565 C564 1.287 . S
C565 C566 1.524 . S
C565 H568 0.999 . S
C566 H536 0.950 . S
C566 C565 1.524 . S
C566 C567 1.415 . S
C567 H537 0.950 . S
C567 C562 1.363 . S
C567 C566 1.415 . S
H568 C565 0.999 . S
H569 C550 0.913 . S
H570 C588 0.951 . S
H571 C590 0.951 . S
H572 C592 0.950 . S
H573 C593 0.950 . S
H574 C595 0.950 . S
H575 C598 0.950 . S
H576 C599 0.950 . S
H577 C601 0.950 . S
H578 C602 0.950 . S
H579 C603 0.951 . S
H580 C605 0.951 . S
H581 C607 0.950 . S
H582 C608 0.950 . S
H583 C610 0.950 . S
H584 C613 0.950 . S
H585 C614 0.950 . S
H586 C616 0.950 . S
H587 C617 0.950 . S
C588 H570 0.951 . S
C588 C589 1.366 . S
C588 C590 1.388 . S
C589 C588 1.366 . S
C589 C593 1.385 . S
C590 H571 0.951 . S
C590 C588 1.388 . S
C590 C591 1.366 . S
C591 C590 1.366 . S
C591 C592 1.414 . S
C591 C594 1.499 . S
C592 H572 0.950 . S
C592 C591 1.414 . S
C592 C593 1.374 . S
C593 H573 0.950 . S
C593 C589 1.385 . S
C593 C592 1.374 . S
C594 C591 1.499 . S
C594 C595 1.373 . S
C594 C596 1.389 . S
C595 H574 0.950 . S
C595 C594 1.373 . S
C595 C611 1.377 . S
C596 C594 1.389 . S
C596 C597 1.524 . S
C596 C610 1.377 . S
C597 C596 1.524 . S
C597 C598 1.397 . S
C597 C602 1.363 . S
C598 H575 0.950 . S
C598 C597 1.397 . S
C598 C599 1.334 . S
C599 H576 0.950 . S
C599 C598 1.334 . S
C599 C600 1.287 . S
C600 C599 1.287 . S
C600 C601 1.524 . S
C600 H619 0.913 . S
C601 H577 0.950 . S
C601 C600 1.524 . S
C601 C602 1.415 . S
C602 H578 0.950 . S
C602 C597 1.363 . S
C602 C601 1.415 . S
C603 H579 0.951 . S
C603 C604 1.366 . S
C603 C605 1.388 . S
C604 C603 1.366 . S
C604 C608 1.385 . S
C605 H580 0.951 . S
C605 C603 1.388 . S
C605 C606 1.366 . S
C606 C605 1.366 . S
C606 C607 1.414 . S
C606 C609 1.499 . S
C607 H581 0.950 . S
C607 C606 1.414 . S
C607 C608 1.374 . S
C608 H582 0.950 . S
C608 C604 1.385 . S
C608 C607 1.374 . S
C609 C606 1.499 . S
C609 C610 1.373 . S
C609 C611 1.389 . S
C610 H583 0.950 . S
C610 C596 1.377 . S
C610 C609 1.373 . S
C611 C595 1.377 . S
C611 C609 1.389 . S
C611 C612 1.524 . S
C612 C611 1.524 . S
C612 C613 1.397 . S
C612 C617 1.363 . S
C613 H584 0.950 . S
C613 C612 1.397 . S
C613 C614 1.334 . S
C614 H585 0.950 . S
C614 C613 1.334 . S
C614 C615 1.287 . S
C615 C614 1.287 . S
C615 C616 1.524 . S
C615 H618 0.999 . S
C616 H586 0.950 . S
C616 C615 1.524 . S
C616 C617 1.415 . S
C617 H587 0.950 . S
C617 C612 1.363 . S
C617 C616 1.415 . S
H618 C615 0.999 . S
H619 C600 0.913 . S
H620 C638 0.951 . S
H621 C640 0.951 . S
H622 C642 0.950 . S
H623 C643 0.950 . S
H624 C645 0.950 . S
H625 C648 0.950 . S
H626 C649 0.950 1_556 S
H627 C651 0.950 . S
H628 C652 0.950 . S
H629 C653 0.951 . S
H630 C655 0.951 . S
H631 C657 0.950 . S
H632 C658 0.950 . S
H633 C660 0.950 . S
H634 C663 0.950 . S
H635 C664 0.950 . S
H636 C666 0.950 . S
H637 C667 0.950 . S
C638 H620 0.951 . S
C638 C639 1.366 . S
C638 C640 1.388 . S
C639 C638 1.366 . S
C639 C643 1.385 . S
C640 H621 0.951 . S
C640 C638 1.388 . S
C640 C641 1.366 . S
C641 C640 1.366 . S
C641 C642 1.414 . S
C641 C644 1.499 . S
C642 H622 0.950 . S
C642 C641 1.414 . S
C642 C643 1.374 . S
C643 H623 0.950 . S
C643 C639 1.385 . S
C643 C642 1.374 . S
C644 C641 1.499 . S
C644 C645 1.373 . S
C644 C646 1.389 . S
C645 H624 0.950 . S
C645 C644 1.373 . S
C645 C661 1.377 . S
C646 C644 1.389 . S
C646 C647 1.524 . S
C646 C660 1.377 . S
C647 C646 1.524 . S
C647 C648 1.397 . S
C647 C652 1.363 . S
C648 H625 0.950 . S
C648 C647 1.397 . S
C648 C649 1.334 . S
C649 H626 0.950 1_554 S
C649 C648 1.334 . S
C649 C650 1.287 . S
C650 C649 1.287 . S
C650 C651 1.524 . S
C650 H669 0.913 1_554 S
C651 H627 0.950 . S
C651 C650 1.524 . S
C651 C652 1.415 . S
C652 H628 0.950 . S
C652 C647 1.363 . S
C652 C651 1.415 . S
C653 H629 0.951 . S
C653 C654 1.366 . S
C653 C655 1.388 . S
C654 C653 1.366 . S
C654 C658 1.385 . S
C655 H630 0.951 . S
C655 C653 1.388 . S
C655 C656 1.366 . S
C656 C655 1.366 . S
C656 C657 1.414 . S
C656 C659 1.499 . S
C657 H631 0.950 . S
C657 C656 1.414 . S
C657 C658 1.374 . S
C658 H632 0.950 . S
C658 C654 1.385 . S
C658 C657 1.374 . S
C659 C656 1.499 . S
C659 C660 1.373 . S
C659 C661 1.389 . S
C660 H633 0.950 . S
C660 C646 1.377 . S
C660 C659 1.373 . S
C661 C645 1.377 . S
C661 C659 1.389 . S
C661 C662 1.524 . S
C662 C661 1.524 . S
C662 C663 1.397 . S
C662 C667 1.363 . S
C663 H634 0.950 . S
C663 C662 1.397 . S
C663 C664 1.334 . S
C664 H635 0.950 . S
C664 C663 1.334 . S
C664 C665 1.287 . S
C665 C664 1.287 . S
C665 C666 1.524 . S
C665 H668 0.999 . S
C666 H636 0.950 . S
C666 C665 1.524 . S
C666 C667 1.415 . S
C667 H637 0.950 . S
C667 C662 1.363 . S
C667 C666 1.415 . S
H668 C665 0.999 . S
H669 C650 0.913 1_556 S
H670 C688 0.951 . S
H671 C690 0.951 . S
H672 C692 0.950 . S
H673 C693 0.950 . S
H674 C695 0.950 . S
H675 C698 0.950 . S
H676 C699 0.950 . S
H677 C701 0.950 . S
H678 C702 0.944 1_556 S
H679 C703 0.951 1_554 S
H680 C705 0.951 . S
H681 C707 0.950 . S
H682 C708 0.950 . S
H683 C710 0.950 . S
H684 C713 0.950 . S
H685 C714 0.950 . S
H686 C716 0.950 . S
H687 C717 0.950 . S
C688 H670 0.951 . S
C688 C689 1.366 . S
C688 C690 1.388 . S
C689 C688 1.366 . S
C689 C693 1.385 . S
C690 H671 0.951 . S
C690 C688 1.388 . S
C690 C691 1.366 . S
C691 C690 1.366 . S
C691 C692 1.414 . S
C691 C694 1.499 . S
C692 H672 0.950 . S
C692 C691 1.414 . S
C692 C693 1.374 . S
C693 H673 0.950 . S
C693 C689 1.385 . S
C693 C692 1.374 . S
C694 C691 1.499 . S
C694 C695 1.373 . S
C694 C696 1.389 . S
C695 H674 0.950 . S
C695 C694 1.373 . S
C695 C711 1.377 . S
C696 C694 1.389 . S
C696 C697 1.524 1_556 S
C696 C710 1.377 . S
C697 C696 1.524 1_554 S
C697 C698 1.397 . S
C697 C702 1.364 . S
C698 H675 0.950 . S
C698 C697 1.397 . S
C698 C699 1.334 . S
C699 H676 0.950 . S
C699 C698 1.334 . S
C699 C700 1.287 . S
C700 C699 1.287 . S
C700 C701 1.524 . S
C700 H719 0.913 . S
C701 H677 0.950 . S
C701 C700 1.524 . S
C701 C702 1.419 . S
C702 H678 0.944 1_554 S
C702 C697 1.364 . S
C702 C701 1.419 . S
C703 H679 0.951 1_556 S
C703 C704 1.366 . S
C703 C705 1.388 . S
C704 C703 1.366 . S
C704 C708 1.385 . S
C705 H680 0.951 . S
C705 C703 1.388 . S
C705 C706 1.366 . S
C706 C705 1.366 . S
C706 C707 1.414 . S
C706 C709 1.499 . S
C707 H681 0.950 . S
C707 C706 1.414 . S
C707 C708 1.374 . S
C708 H682 0.950 . S
C708 C704 1.385 . S
C708 C707 1.374 . S
C709 C706 1.499 . S
C709 C710 1.373 . S
C709 C711 1.389 . S
C710 H683 0.950 . S
C710 C696 1.377 . S
C710 C709 1.373 . S
C711 C695 1.377 . S
C711 C709 1.389 . S
C711 C712 1.524 . S
C712 C711 1.524 . S
C712 C713 1.397 . S
C712 C717 1.363 . S
C713 H684 0.950 . S
C713 C712 1.397 . S
C713 C714 1.334 . S
C714 H685 0.950 . S
C714 C713 1.334 . S
C714 C715 1.287 . S
C715 C714 1.287 . S
C715 C716 1.524 . S
C715 H718 0.999 . S
C716 H686 0.950 . S
C716 C715 1.524 . S
C716 C717 1.415 . S
C717 H687 0.950 . S
C717 C712 1.363 . S
C717 C716 1.415 . S
H718 C715 0.999 . S
H719 C700 0.913 . S
H720 C738 0.951 . S
H721 C740 0.951 . S
H722 C742 0.950 . S
H723 C743 0.950 . S
H724 C745 0.950 . S
H725 C748 0.950 . S
H726 C749 0.950 . S
H727 C751 0.950 . S
H728 C752 0.950 . S
H729 C753 0.951 . S
H730 C755 0.951 . S
H731 C757 0.950 . S
H732 C758 0.950 . S
H733 C760 0.950 . S
H734 C763 0.950 . S
H735 C764 0.950 1_554 S
H736 C766 0.950 1_554 S
H737 C767 0.950 . S
C738 H720 0.951 . S
C738 C739 1.366 . S
C738 C740 1.388 . S
C739 C738 1.366 . S
C739 C743 1.385 . S
C740 H721 0.951 . S
C740 C738 1.388 . S
C740 C741 1.366 . S
C741 C740 1.366 . S
C741 C742 1.414 . S
C741 C744 1.499 . S
C742 H722 0.950 . S
C742 C741 1.414 . S
C742 C743 1.374 . S
C743 H723 0.950 . S
C743 C739 1.385 . S
C743 C742 1.374 . S
C744 C741 1.499 . S
C744 C745 1.373 . S
C744 C746 1.389 . S
C745 H724 0.950 . S
C745 C744 1.373 . S
C745 C761 1.377 . S
C746 C744 1.389 . S
C746 C747 1.524 . S
C746 C760 1.377 . S
C747 C746 1.524 . S
C747 C748 1.397 . S
C747 C752 1.363 . S
C748 H725 0.950 . S
C748 C747 1.397 . S
C748 C749 1.334 . S
C749 H726 0.950 . S
C749 C748 1.334 . S
C749 C750 1.287 . S
C750 C749 1.287 . S
C750 C751 1.524 . S
C750 H769 0.913 . S
C751 H727 0.950 . S
C751 C750 1.524 . S
C751 C752 1.415 . S
C752 H728 0.950 . S
C752 C747 1.363 . S
C752 C751 1.415 . S
C753 H729 0.951 . S
C753 C754 1.366 . S
C753 C755 1.388 . S
C754 C753 1.366 . S
C754 C758 1.385 . S
C755 H730 0.951 . S
C755 C753 1.388 . S
C755 C756 1.366 . S
C756 C755 1.366 . S
C756 C757 1.414 . S
C756 C759 1.499 . S
C757 H731 0.950 . S
C757 C756 1.414 . S
C757 C758 1.374 . S
C758 H732 0.950 . S
C758 C754 1.385 . S
C758 C757 1.374 . S
C759 C756 1.499 . S
C759 C760 1.373 . S
C759 C761 1.389 . S
C760 H733 0.950 . S
C760 C746 1.377 . S
C760 C759 1.373 . S
C761 C745 1.377 . S
C761 C759 1.389 . S
C761 C762 1.524 . S
C762 C761 1.524 . S
C762 C763 1.397 . S
C762 C767 1.363 . S
C763 H734 0.950 . S
C763 C762 1.397 . S
C763 C764 1.334 . S
C764 H735 0.950 1_556 S
C764 C763 1.334 . S
C764 C765 1.287 1_556 S
C765 C764 1.287 1_554 S
C765 C766 1.524 1_554 S
C765 H768 0.999 . S
C766 H736 0.950 1_556 S
C766 C765 1.524 1_556 S
C766 C767 1.415 . S
C767 H737 0.950 . S
C767 C762 1.363 . S
C767 C766 1.415 . S
H768 C765 0.999 . S
H769 C750 0.913 . S
H770 C788 0.951 . S
H771 C790 0.951 . S
H772 C792 0.950 . S
H773 C793 0.950 . S
H774 C795 0.950 . S
H775 C798 0.950 . S
H776 C799 0.950 . S
H777 C801 0.950 . S
H778 C802 0.950 . S
H779 C803 0.951 . S
H780 C805 0.951 . S
H781 C807 0.950 . S
H782 C808 0.950 . S
H783 C810 0.950 1_556 S
H784 C813 0.950 . S
H785 C814 0.950 . S
H786 C816 0.950 . S
H787 C817 0.950 . S
C788 H770 0.951 . S
C788 C789 1.366 . S
C788 C790 1.388 . S
C789 C788 1.366 . S
C789 C793 1.385 . S
C790 H771 0.951 . S
C790 C788 1.388 . S
C790 C791 1.366 . S
C791 C790 1.366 . S
C791 C792 1.414 . S
C791 C794 1.499 . S
C792 H772 0.950 . S
C792 C791 1.414 . S
C792 C793 1.374 . S
C793 H773 0.950 . S
C793 C789 1.385 . S
C793 C792 1.374 . S
C794 C791 1.499 . S
C794 C795 1.373 . S
C794 C796 1.389 . S
C795 H774 0.950 . S
C795 C794 1.373 . S
C795 C811 1.377 . S
C796 C794 1.389 . S
C796 C797 1.524 1_554 S
C796 C810 1.377 . S
C797 C796 1.524 1_556 S
C797 C798 1.397 . S
C797 C802 1.363 . S
C798 H775 0.950 . S
C798 C797 1.397 . S
C798 C799 1.334 . S
C799 H776 0.950 . S
C799 C798 1.334 . S
C799 C800 1.287 . S
C800 C799 1.287 . S
C800 C801 1.524 . S
C800 H819 0.913 . S
C801 H777 0.950 . S
C801 C800 1.524 . S
C801 C802 1.415 . S
C802 H778 0.950 . S
C802 C797 1.363 . S
C802 C801 1.415 . S
C803 H779 0.951 . S
C803 C804 1.366 . S
C803 C805 1.388 . S
C804 C803 1.366 . S
C804 C808 1.385 . S
C805 H780 0.951 . S
C805 C803 1.388 . S
C805 C806 1.366 . S
C806 C805 1.366 . S
C806 C807 1.414 . S
C806 C809 1.499 . S
C807 H781 0.950 . S
C807 C806 1.414 . S
C807 C808 1.374 . S
C808 H782 0.950 . S
C808 C804 1.385 . S
C808 C807 1.374 . S
C809 C806 1.499 . S
C809 C810 1.373 . S
C809 C811 1.389 . S
C810 H783 0.950 1_554 S
C810 C796 1.377 . S
C810 C809 1.373 . S
C811 C795 1.377 . S
C811 C809 1.389 . S
C811 C812 1.524 . S
C812 C811 1.524 . S
C812 C813 1.397 . S
C812 C817 1.363 . S
C813 H784 0.950 . S
C813 C812 1.397 . S
C813 C814 1.334 . S
C814 H785 0.950 . S
C814 C813 1.334 . S
C814 C815 1.287 . S
C815 C814 1.287 . S
C815 C816 1.524 . S
C815 H818 0.999 . S
C816 H786 0.950 . S
C816 C815 1.524 . S
C816 C817 1.415 . S
C817 H787 0.950 . S
C817 C812 1.363 . S
C817 C816 1.415 . S
H818 C815 0.999 . S
H819 C800 0.913 . S
H820 C838 0.951 . S
H821 C840 0.951 . S
H822 C842 0.950 . S
H823 C843 0.950 . S
H824 C845 0.950 . S
H825 C848 0.950 . S
H826 C849 0.950 . S
H827 C851 0.950 . S
H828 C852 0.950 . S
H829 C853 0.951 . S
H830 C855 0.951 . S
H831 C857 0.950 . S
H832 C858 0.950 . S
H833 C860 0.950 . S
H834 C863 0.950 . S
H835 C864 0.950 . S
H836 C866 0.950 . S
H837 C867 0.950 . S
C838 H820 0.951 . S
C838 C839 1.366 . S
C838 C840 1.388 . S
C839 C838 1.366 . S
C839 C843 1.385 . S
C840 H821 0.951 . S
C840 C838 1.388 . S
C840 C841 1.366 . S
C841 C840 1.366 . S
C841 C842 1.414 . S
C841 C844 1.499 . S
C842 H822 0.950 . S
C842 C841 1.414 . S
C842 C843 1.374 . S
C843 H823 0.950 . S
C843 C839 1.385 . S
C843 C842 1.374 . S
C844 C841 1.499 . S
C844 C845 1.373 . S
C844 C846 1.389 . S
C845 H824 0.950 . S
C845 C844 1.373 . S
C845 C861 1.377 . S
C846 C844 1.389 . S
C846 C847 1.524 . S
C846 C860 1.377 . S
C847 C846 1.524 . S
C847 C848 1.397 . S
C847 C852 1.363 . S
C848 H825 0.950 . S
C848 C847 1.397 . S
C848 C849 1.334 . S
C849 H826 0.950 . S
C849 C848 1.334 . S
C849 C850 1.287 . S
C850 C849 1.287 . S
C850 C851 1.524 . S
C850 H869 0.913 . S
C851 H827 0.950 . S
C851 C850 1.524 . S
C851 C852 1.415 . S
C852 H828 0.950 . S
C852 C847 1.363 . S
C852 C851 1.415 . S
C853 H829 0.951 . S
C853 C854 1.366 . S
C853 C855 1.388 . S
C854 C853 1.366 . S
C854 C858 1.385 . S
C855 H830 0.951 . S
C855 C853 1.388 . S
C855 C856 1.366 . S
C856 C855 1.366 . S
C856 C857 1.414 . S
C856 C859 1.499 . S
C857 H831 0.950 . S
C857 C856 1.414 . S
C857 C858 1.374 . S
C858 H832 0.950 . S
C858 C854 1.385 . S
C858 C857 1.374 . S
C859 C856 1.499 . S
C859 C860 1.373 . S
C859 C861 1.389 . S
C860 H833 0.950 . S
C860 C846 1.377 . S
C860 C859 1.373 . S
C861 C845 1.377 . S
C861 C859 1.389 . S
C861 C862 1.524 . S
C862 C861 1.524 . S
C862 C863 1.397 . S
C862 C867 1.363 . S
C863 H834 0.950 . S
C863 C862 1.397 . S
C863 C864 1.334 . S
C864 H835 0.950 . S
C864 C863 1.334 . S
C864 C865 1.287 . S
C865 C864 1.287 . S
C865 C866 1.524 . S
C865 H868 0.999 . S
C866 H836 0.950 . S
C866 C865 1.524 . S
C866 C867 1.415 . S
C867 H837 0.950 . S
C867 C862 1.363 . S
C867 C866 1.415 . S
H868 C865 0.999 . S
H869 C850 0.913 . S
H870 C888 0.951 . S
H871 C890 0.951 . S
H872 C892 0.950 . S
H873 C893 0.950 . S
H874 C895 0.950 . S
H875 C898 0.950 . S
H876 C899 0.950 . S
H877 C901 0.950 . S
H878 C902 0.950 . S
H879 C903 0.951 . S
H880 C905 0.951 . S
H881 C907 0.950 . S
H882 C908 0.950 . S
H883 C910 0.950 . S
H884 C913 0.950 . S
H885 C914 0.950 . S
H886 C916 0.950 . S
H887 C917 0.950 . S
C888 H870 0.951 . S
C888 C889 1.366 . S
C888 C890 1.388 . S
C889 C888 1.366 . S
C889 C893 1.385 . S
C890 H871 0.951 . S
C890 C888 1.388 . S
C890 C891 1.366 . S
C891 C890 1.366 . S
C891 C892 1.414 . S
C891 C894 1.499 . S
C892 H872 0.950 . S
C892 C891 1.414 . S
C892 C893 1.374 . S
C893 H873 0.950 . S
C893 C889 1.385 . S
C893 C892 1.374 . S
C894 C891 1.499 . S
C894 C895 1.373 . S
C894 C896 1.389 . S
C895 H874 0.950 . S
C895 C894 1.373 . S
C895 C911 1.377 . S
C896 C894 1.389 . S
C896 C897 1.524 . S
C896 C910 1.377 . S
C897 C896 1.524 . S
C897 C898 1.397 . S
C897 C902 1.363 . S
C898 H875 0.950 . S
C898 C897 1.397 . S
C898 C899 1.334 . S
C899 H876 0.950 . S
C899 C898 1.334 . S
C899 C900 1.287 . S
C900 C899 1.287 . S
C900 C901 1.524 . S
C900 H919 0.913 . S
C901 H877 0.950 . S
C901 C900 1.524 . S
C901 C902 1.415 . S
C902 H878 0.950 . S
C902 C897 1.363 . S
C902 C901 1.415 . S
C903 H879 0.951 . S
C903 C904 1.366 . S
C903 C905 1.388 . S
C904 C903 1.366 . S
C904 C908 1.385 . S
C905 H880 0.951 . S
C905 C903 1.388 . S
C905 C906 1.366 . S
C906 C905 1.366 . S
C906 C907 1.414 . S
C906 C909 1.499 . S
C907 H881 0.950 . S
C907 C906 1.414 . S
C907 C908 1.374 . S
C908 H882 0.950 . S
C908 C904 1.385 . S
C908 C907 1.374 . S
C909 C906 1.499 . S
C909 C910 1.373 . S
C909 C911 1.389 . S
C910 H883 0.950 . S
C910 C896 1.377 . S
C910 C909 1.373 . S
C911 C895 1.377 . S
C911 C909 1.389 . S
C911 C912 1.524 . S
C912 C911 1.524 . S
C912 C913 1.397 . S
C912 C917 1.363 . S
C913 H884 0.950 . S
C913 C912 1.397 . S
C913 C914 1.334 . S
C914 H885 0.950 . S
C914 C913 1.334 . S
C914 C915 1.287 . S
C915 C914 1.287 . S
C915 C916 1.524 . S
C915 H918 0.999 . S
C916 H886 0.950 . S
C916 C915 1.524 . S
C916 C917 1.415 . S
C917 H887 0.950 . S
C917 C912 1.363 . S
C917 C916 1.415 . S
H918 C915 0.999 . S
H919 C900 0.913 . S
H920 C938 0.951 . S
H921 C940 0.951 . S
H922 C942 0.950 . S
H923 C943 0.950 . S
H924 C945 0.950 . S
H925 C948 0.950 . S
H926 C949 0.950 . S
H927 C951 0.950 . S
H928 C952 0.950 . S
H929 C953 0.951 . S
H930 C955 0.951 . S
H931 C957 0.950 . S
H932 C958 0.950 . S
H933 C960 0.950 . S
H934 C963 0.950 . S
H935 C964 0.950 . S
H936 C966 0.950 1_556 S
H937 C967 0.950 . S
C938 H920 0.951 . S
C938 C939 1.366 . S
C938 C940 1.388 . S
C939 C938 1.366 . S
C939 C943 1.385 . S
C940 H921 0.951 . S
C940 C938 1.388 . S
C940 C941 1.366 . S
C941 C940 1.366 . S
C941 C942 1.414 . S
C941 C944 1.499 . S
C942 H922 0.950 . S
C942 C941 1.414 . S
C942 C943 1.374 . S
C943 H923 0.950 . S
C943 C939 1.385 . S
C943 C942 1.374 . S
C944 C941 1.499 . S
C944 C945 1.373 . S
C944 C946 1.389 . S
C945 H924 0.950 . S
C945 C944 1.373 . S
C945 C961 1.377 . S
C946 C944 1.389 . S
C946 C947 1.524 . S
C946 C960 1.377 . S
C947 C946 1.524 . S
C947 C948 1.397 . S
C947 C952 1.363 . S
C948 H925 0.950 . S
C948 C947 1.397 . S
C948 C949 1.334 . S
C949 H926 0.950 . S
C949 C948 1.334 . S
C949 C950 1.287 . S
C950 C949 1.287 . S
C950 C951 1.524 . S
C950 H969 0.913 . S
C951 H927 0.950 . S
C951 C950 1.524 . S
C951 C952 1.415 . S
C952 H928 0.950 . S
C952 C947 1.363 . S
C952 C951 1.415 . S
C953 H929 0.951 . S
C953 C954 1.366 . S
C953 C955 1.388 . S
C954 C953 1.366 . S
C954 C958 1.385 . S
C955 H930 0.951 . S
C955 C953 1.388 . S
C955 C956 1.366 . S
C956 C955 1.366 . S
C956 C957 1.414 . S
C956 C959 1.499 . S
C957 H931 0.950 . S
C957 C956 1.414 . S
C957 C958 1.374 . S
C958 H932 0.950 . S
C958 C954 1.385 . S
C958 C957 1.374 . S
C959 C956 1.499 . S
C959 C960 1.373 . S
C959 C961 1.389 . S
C960 H933 0.950 . S
C960 C946 1.377 . S
C960 C959 1.373 . S
C961 C945 1.377 . S
C961 C959 1.389 . S
C961 C962 1.524 . S
C962 C961 1.524 . S
C962 C963 1.397 . S
C962 C967 1.363 . S
C963 H934 0.950 . S
C963 C962 1.397 . S
C963 C964 1.334 1_554 S
C964 H935 0.950 . S
C964 C963 1.334 1_556 S
C964 C965 1.287 . S
C965 C964 1.287 . S
C965 C966 1.524 1_556 S
C965 H968 0.999 . S
C966 H936 0.950 1_554 S
C966 C965 1.524 1_554 S
C966 C967 1.415 . S
C967 H937 0.950 . S
C967 C962 1.363 . S
C967 C966 1.415 . S
H968 C965 0.999 . S
H969 C950 0.913 . S
H970 C988 0.951 1_554 S
H971 C990 0.951 1_554 S
H972 C992 0.950 . S
H973 C993 0.950 . S
H974 C995 0.950 . S
H975 C998 0.950 . S
H976 C999 0.950 . S
H977 C1001 0.950 . S
H978 C1002 0.950 . S
H979 C1003 0.951 . S
H980 C1005 0.951 . S
H981 C1007 0.950 . S
H982 C1008 0.950 . S
H983 C1010 0.950 . S
H984 C1013 0.950 . S
H985 C1014 0.950 . S
H986 C1016 0.950 1_556 S
H987 C1017 0.950 . S
C988 H970 0.951 1_556 S
C988 C989 1.366 . S
C988 C990 1.388 . S
C989 C988 1.366 . S
C989 C993 1.385 . S
C990 H971 0.951 1_556 S
C990 C988 1.388 . S
C990 C991 1.366 . S
C991 C990 1.366 . S
C991 C992 1.414 . S
C991 C994 1.499 . S
C992 H972 0.950 . S
C992 C991 1.414 . S
C992 C993 1.374 . S
C993 H973 0.950 . S
C993 C989 1.385 . S
C993 C992 1.374 . S
C994 C991 1.499 . S
C994 C995 1.373 . S
C994 C996 1.389 . S
C995 H974 0.950 . S
C995 C994 1.373 . S
C995 C1011 1.377 . S
C996 C994 1.389 . S
C996 C997 1.524 . S
C996 C1010 1.377 . S
C997 C996 1.524 . S
C997 C998 1.397 . S
C997 C1002 1.363 . S
C998 H975 0.950 . S
C998 C997 1.397 . S
C998 C999 1.334 . S
C999 H976 0.950 . S
C999 C998 1.334 . S
C999 C1000 1.287 . S
C1000 C999 1.287 . S
C1000 C1001 1.524 . S
C1000 H1019 0.913 . S
C1001 H977 0.950 . S
C1001 C1000 1.524 . S
C1001 C1002 1.415 . S
C1002 H978 0.950 . S
C1002 C997 1.363 . S
C1002 C1001 1.415 . S
C1003 H979 0.951 . S
C1003 C1004 1.366 . S
C1003 C1005 1.388 . S
C1004 C1003 1.366 . S
C1004 C1008 1.385 . S
C1005 H980 0.951 . S
C1005 C1003 1.388 . S
C1005 C1006 1.366 . S
C1006 C1005 1.366 . S
C1006 C1007 1.414 . S
C1006 C1009 1.499 . S
C1007 H981 0.950 . S
C1007 C1006 1.414 . S
C1007 C1008 1.374 . S
C1008 H982 0.950 . S
C1008 C1004 1.385 . S
C1008 C1007 1.374 . S
C1009 C1006 1.499 . S
C1009 C1010 1.373 . S
C1009 C1011 1.389 . S
C1010 H983 0.950 . S
C1010 C996 1.377 . S
C1010 C1009 1.373 . S
C1011 C995 1.377 . S
C1011 C1009 1.389 . S
C1011 C1012 1.524 1_556 S
C1012 C1011 1.524 1_554 S
C1012 C1013 1.397 . S
C1012 C1017 1.363 1_554 S
C1013 H984 0.950 . S
C1013 C1012 1.397 . S
C1013 C1014 1.334 . S
C1014 H985 0.950 . S
C1014 C1013 1.334 . S
C1014 C1015 1.287 . S
C1015 C1014 1.287 . S
C1015 C1016 1.524 . S
C1015 H1018 0.999 . S
C1016 H986 0.950 1_554 S
C1016 C1015 1.524 . S
C1016 C1017 1.415 1_554 S
C1017 H987 0.950 . S
C1017 C1012 1.363 1_556 S
C1017 C1016 1.415 1_556 S
H1018 C1015 0.999 . S
H1019 C1000 0.913 . S
H1020 C1038 0.951 . S
H1021 C1040 0.951 . S
H1022 C1042 0.950 . S
H1023 C1043 0.950 . S
H1024 C1045 0.950 . S
H1025 C1048 0.950 . S
H1026 C1049 0.950 . S
H1027 C1051 0.950 . S
H1028 C1052 0.950 . S
H1029 C1053 0.951 . S
H1030 C1055 0.951 . S
H1031 C1057 0.950 . S
H1032 C1058 0.950 . S
H1033 C1060 0.950 . S
H1034 C1063 0.950 . S
H1035 C1064 0.950 . S
H1036 C1066 0.950 . S
H1037 C1067 0.950 . S
C1038 H1020 0.951 . S
C1038 C1039 1.366 . S
C1038 C1040 1.388 . S
C1039 C1038 1.366 . S
C1039 C1043 1.385 . S
C1040 H1021 0.951 . S
C1040 C1038 1.388 . S
C1040 C1041 1.366 . S
C1041 C1040 1.366 . S
C1041 C1042 1.414 . S
C1041 C1044 1.499 . S
C1042 H1022 0.950 . S
C1042 C1041 1.414 . S
C1042 C1043 1.374 . S
C1043 H1023 0.950 . S
C1043 C1039 1.385 . S
C1043 C1042 1.374 . S
C1044 C1041 1.499 . S
C1044 C1045 1.373 . S
C1044 C1046 1.389 . S
C1045 H1024 0.950 . S
C1045 C1044 1.373 . S
C1045 C1061 1.377 . S
C1046 C1044 1.389 . S
C1046 C1047 1.524 . S
C1046 C1060 1.377 . S
C1047 C1046 1.524 . S
C1047 C1048 1.397 . S
C1047 C1052 1.363 . S
C1048 H1025 0.950 . S
C1048 C1047 1.397 . S
C1048 C1049 1.334 . S
C1049 H1026 0.950 . S
C1049 C1048 1.334 . S
C1049 C1050 1.287 . S
C1050 C1049 1.287 . S
C1050 C1051 1.524 . S
C1050 H1069 0.913 . S
C1051 H1027 0.950 . S
C1051 C1050 1.524 . S
C1051 C1052 1.415 . S
C1052 H1028 0.950 . S
C1052 C1047 1.363 . S
C1052 C1051 1.415 . S
C1053 H1029 0.951 . S
C1053 C1054 1.366 . S
C1053 C1055 1.388 . S
C1054 C1053 1.366 . S
C1054 C1058 1.385 . S
C1055 H1030 0.951 . S
C1055 C1053 1.388 . S
C1055 C1056 1.366 . S
C1056 C1055 1.366 . S
C1056 C1057 1.414 . S
C1056 C1059 1.499 . S
C1057 H1031 0.950 . S
C1057 C1056 1.414 . S
C1057 C1058 1.374 . S
C1058 H1032 0.950 . S
C1058 C1054 1.385 . S
C1058 C1057 1.374 . S
C1059 C1056 1.499 . S
C1059 C1060 1.373 . S
C1059 C1061 1.389 . S
C1060 H1033 0.950 . S
C1060 C1046 1.377 . S
C1060 C1059 1.373 . S
C1061 C1045 1.377 . S
C1061 C1059 1.389 . S
C1061 C1062 1.524 . S
C1062 C1061 1.524 . S
C1062 C1063 1.397 . S
C1062 C1067 1.363 . S
C1063 H1034 0.950 . S
C1063 C1062 1.397 . S
C1063 C1064 1.334 . S
C1064 H1035 0.950 . S
C1064 C1063 1.334 . S
C1064 C1065 1.287 . S
C1065 C1064 1.287 . S
C1065 C1066 1.524 . S
C1065 H1068 0.999 . S
C1066 H1036 0.950 . S
C1066 C1065 1.524 . S
C1066 C1067 1.415 . S
C1067 H1037 0.950 . S
C1067 C1062 1.363 . S
C1067 C1066 1.415 . S
H1068 C1065 0.999 . S
H1069 C1050 0.913 . S
H1070 C1088 0.951 . S
H1071 C1090 0.951 . S
H1072 C1092 0.950 . S
H1073 C1093 0.950 . S
H1074 C1095 0.950 . S
H1075 C1098 0.950 . S
H1076 C1099 0.950 . S
H1077 C1101 0.950 . S
H1078 C1102 0.950 . S
H1079 C1103 0.951 . S
H1080 C1105 0.951 . S
H1081 C1107 0.950 . S
H1082 C1108 0.950 . S
H1083 C1110 0.950 . S
H1084 C1113 0.950 . S
H1085 C1114 0.950 . S
H1086 C1116 0.950 . S
H1087 C1117 0.950 . S
C1088 H1070 0.951 . S
C1088 C1089 1.366 . S
C1088 C1090 1.388 . S
C1089 C1088 1.366 . S
C1089 C1093 1.385 . S
C1090 H1071 0.951 . S
C1090 C1088 1.388 . S
C1090 C1091 1.366 . S
C1091 C1090 1.366 . S
C1091 C1092 1.414 . S
C1091 C1094 1.499 . S
C1092 H1072 0.950 . S
C1092 C1091 1.414 . S
C1092 C1093 1.374 . S
C1093 H1073 0.950 . S
C1093 C1089 1.385 . S
C1093 C1092 1.374 . S
C1094 C1091 1.499 . S
C1094 C1095 1.373 . S
C1094 C1096 1.389 . S
C1095 H1074 0.950 . S
C1095 C1094 1.373 . S
C1095 C1111 1.377 . S
C1096 C1094 1.389 . S
C1096 C1097 1.524 . S
C1096 C1110 1.377 . S
C1097 C1096 1.524 . S
C1097 C1098 1.397 . S
C1097 C1102 1.363 . S
C1098 H1075 0.950 . S
C1098 C1097 1.397 . S
C1098 C1099 1.334 . S
C1099 H1076 0.950 . S
C1099 C1098 1.334 . S
C1099 C1100 1.287 . S
C1100 C1099 1.287 . S
C1100 C1101 1.524 . S
C1100 H1119 0.913 . S
C1101 H1077 0.950 . S
C1101 C1100 1.524 . S
C1101 C1102 1.415 . S
C1102 H1078 0.950 . S
C1102 C1097 1.363 . S
C1102 C1101 1.415 . S
C1103 H1079 0.951 . S
C1103 C1104 1.366 . S
C1103 C1105 1.388 . S
C1104 C1103 1.366 . S
C1104 C1108 1.385 . S
C1105 H1080 0.951 . S
C1105 C1103 1.388 . S
C1105 C1106 1.366 . S
C1106 C1105 1.366 . S
C1106 C1107 1.414 . S
C1106 C1109 1.499 . S
C1107 H1081 0.950 . S
C1107 C1106 1.414 . S
C1107 C1108 1.374 . S
C1108 H1082 0.950 . S
C1108 C1104 1.385 . S
C1108 C1107 1.374 . S
C1109 C1106 1.499 . S
C1109 C1110 1.373 . S
C1109 C1111 1.389 . S
C1110 H1083 0.950 . S
C1110 C1096 1.377 . S
C1110 C1109 1.373 . S
C1111 C1095 1.377 . S
C1111 C1109 1.389 . S
C1111 C1112 1.524 . S
C1112 C1111 1.524 . S
C1112 C1113 1.397 . S
C1112 C1117 1.363 . S
C1113 H1084 0.950 . S
C1113 C1112 1.397 . S
C1113 C1114 1.334 . S
C1114 H1085 0.950 . S
C1114 C1113 1.334 . S
C1114 C1115 1.287 . S
C1115 C1114 1.287 . S
C1115 C1116 1.524 . S
C1115 H1118 0.999 . S
C1116 H1086 0.950 . S
C1116 C1115 1.524 . S
C1116 C1117 1.415 . S
C1117 H1087 0.950 . S
C1117 C1112 1.363 . S
C1117 C1116 1.415 . S
H1118 C1115 0.999 . S
H1119 C1100 0.913 . S
H1120 C1138 0.951 . S
H1121 C1140 0.951 . S
H1122 C1142 0.950 . S
H1123 C1143 0.950 . S
H1124 C1145 0.950 . S
H1125 C1148 0.950 1_655 S
H1126 C1149 0.950 . S
H1127 C1151 0.950 . S
H1128 C1152 0.950 . S
H1129 C1153 0.951 . S
H1130 C1155 0.951 . S
H1131 C1157 0.950 . S
H1132 C1158 0.950 . S
H1133 C1160 0.950 . S
H1134 C1163 0.950 1_455 S
H1135 C1164 0.950 . S
H1136 C1166 0.950 . S
H1137 C1167 0.950 . S
C1138 H1120 0.951 . S
C1138 C1139 1.366 1_455 S
C1138 C1140 1.388 . S
C1139 C1138 1.366 1_655 S
C1139 C1143 1.385 . S
C1140 H1121 0.951 . S
C1140 C1138 1.388 . S
C1140 C1141 1.366 1_455 S
C1141 C1140 1.366 1_655 S
C1141 C1142 1.414 . S
C1141 C1144 1.499 . S
C1142 H1122 0.950 . S
C1142 C1141 1.414 . S
C1142 C1143 1.374 . S
C1143 H1123 0.950 . S
C1143 C1139 1.385 . S
C1143 C1142 1.374 . S
C1144 C1141 1.499 . S
C1144 C1145 1.373 1_565 S
C1144 C1146 1.389 1_655 S
C1145 H1124 0.950 . S
C1145 C1144 1.373 1_545 S
C1145 C1161 1.377 1_556 S
C1146 C1144 1.389 1_455 S
C1146 C1147 1.524 . S
C1146 C1160 1.377 1_556 S
C1147 C1146 1.524 . S
C1147 C1148 1.397 . S
C1147 C1152 1.363 . S
C1148 H1125 0.950 1_455 S
C1148 C1147 1.397 . S
C1148 C1149 1.334 . S
C1149 H1126 0.950 . S
C1149 C1148 1.334 . S
C1149 C1150 1.287 . S
C1150 C1149 1.287 . S
C1150 C1151 1.524 . S
C1150 H1169 0.913 . S
C1151 H1127 0.950 . S
C1151 C1150 1.524 . S
C1151 C1152 1.415 . S
C1152 H1128 0.950 . S
C1152 C1147 1.363 . S
C1152 C1151 1.415 . S
C1153 H1129 0.951 . S
C1153 C1154 1.366 1_655 S
C1153 C1155 1.388 . S
C1154 C1153 1.366 1_455 S
C1154 C1158 1.385 . S
C1155 H1130 0.951 . S
C1155 C1153 1.388 . S
C1155 C1156 1.366 1_655 S
C1156 C1155 1.366 1_455 S
C1156 C1157 1.414 . S
C1156 C1159 1.499 . S
C1157 H1131 0.950 . S
C1157 C1156 1.414 . S
C1157 C1158 1.374 . S
C1158 H1132 0.950 . S
C1158 C1154 1.385 . S
C1158 C1157 1.374 . S
C1159 C1156 1.499 . S
C1159 C1160 1.373 1_545 S
C1159 C1161 1.389 1_455 S
C1160 H1133 0.950 . S
C1160 C1146 1.377 1_554 S
C1160 C1159 1.373 1_565 S
C1161 C1145 1.377 1_554 S
C1161 C1159 1.389 1_655 S
C1161 C1162 1.524 . S
C1162 C1161 1.524 . S
C1162 C1163 1.397 . S
C1162 C1167 1.363 . S
C1163 H1134 0.950 1_655 S
C1163 C1162 1.397 . S
C1163 C1164 1.334 . S
C1164 H1135 0.950 . S
C1164 C1163 1.334 . S
C1164 C1165 1.287 . S
C1165 C1164 1.287 . S
C1165 C1166 1.524 . S
C1165 H1168 0.999 . S
C1166 H1136 0.950 . S
C1166 C1165 1.524 . S
C1166 C1167 1.415 . S
C1167 H1137 0.950 . S
C1167 C1162 1.363 . S
C1167 C1166 1.415 . S
H1168 C1165 0.999 . S
H1169 C1150 0.913 . S
H1170 C1188 0.951 . S
H1171 C1190 0.951 . S
H1172 C1192 0.950 . S
H1173 C1193 0.950 . S
H1174 C1195 0.950 . S
H1175 C1198 0.950 . S
H1176 C1199 0.950 . S
H1177 C1201 0.950 . S
H1178 C1202 0.950 . S
H1179 C1203 0.951 . S
H1180 C1205 0.951 . S
H1181 C1207 0.950 . S
H1182 C1208 0.950 1_556 S
H1183 C1210 0.950 . S
H1184 C1213 0.950 . S
H1185 C1214 0.950 . S
H1186 C1216 0.950 . S
H1187 C1217 0.950 . S
C1188 H1170 0.951 . S
C1188 C1189 1.366 . S
C1188 C1190 1.388 . S
C1189 C1188 1.366 . S
C1189 C1193 1.385 . S
C1190 H1171 0.951 . S
C1190 C1188 1.388 . S
C1190 C1191 1.366 . S
C1191 C1190 1.366 . S
C1191 C1192 1.414 . S
C1191 C1194 1.499 . S
C1192 H1172 0.950 . S
C1192 C1191 1.414 . S
C1192 C1193 1.374 . S
C1193 H1173 0.950 . S
C1193 C1189 1.385 . S
C1193 C1192 1.374 . S
C1194 C1191 1.499 . S
C1194 C1195 1.373 . S
C1194 C1196 1.389 . S
C1195 H1174 0.950 . S
C1195 C1194 1.373 . S
C1195 C1211 1.377 . S
C1196 C1194 1.389 . S
C1196 C1197 1.524 . S
C1196 C1210 1.377 . S
C1197 C1196 1.524 . S
C1197 C1198 1.397 . S
C1197 C1202 1.363 . S
C1198 H1175 0.950 . S
C1198 C1197 1.397 . S
C1198 C1199 1.334 . S
C1199 H1176 0.950 . S
C1199 C1198 1.334 . S
C1199 C1200 1.287 . S
C1200 C1199 1.287 . S
C1200 C1201 1.524 . S
C1200 H1219 0.913 . S
C1201 H1177 0.950 . S
C1201 C1200 1.524 . S
C1201 C1202 1.415 . S
C1202 H1178 0.950 . S
C1202 C1197 1.363 . S
C1202 C1201 1.415 . S
C1203 H1179 0.951 . S
C1203 C1204 1.366 1_554 S
C1203 C1205 1.388 . S
C1204 C1203 1.366 1_556 S
C1204 C1208 1.385 1_556 S
C1205 H1180 0.951 . S
C1205 C1203 1.388 . S
C1205 C1206 1.366 . S
C1206 C1205 1.366 . S
C1206 C1207 1.414 . S
C1206 C1209 1.499 . S
C1207 H1181 0.950 . S
C1207 C1206 1.414 . S
C1207 C1208 1.374 . S
C1208 H1182 0.950 1_554 S
C1208 C1204 1.385 1_554 S
C1208 C1207 1.374 . S
C1209 C1206 1.499 . S
C1209 C1210 1.373 . S
C1209 C1211 1.389 . S
C1210 H1183 0.950 . S
C1210 C1196 1.377 . S
C1210 C1209 1.373 . S
C1211 C1195 1.377 . S
C1211 C1209 1.389 . S
C1211 C1212 1.524 . S
C1212 C1211 1.524 . S
C1212 C1213 1.397 . S
C1212 C1217 1.363 . S
C1213 H1184 0.950 . S
C1213 C1212 1.397 . S
C1213 C1214 1.334 . S
C1214 H1185 0.950 . S
C1214 C1213 1.334 . S
C1214 C1215 1.287 . S
C1215 C1214 1.287 . S
C1215 C1216 1.524 . S
C1215 H1218 0.999 . S
C1216 H1186 0.950 . S
C1216 C1215 1.524 . S
C1216 C1217 1.415 . S
C1217 H1187 0.950 . S
C1217 C1212 1.363 . S
C1217 C1216 1.415 . S
H1218 C1215 0.999 . S
H1219 C1200 0.913 . S
H1220 C1238 0.951 . S
H1221 C1240 0.951 . S
H1222 C1242 0.950 . S
H1223 C1243 0.950 . S
H1224 C1245 0.950 . S
H1225 C1248 0.950 . S
H1226 C1249 0.950 . S
H1227 C1251 0.950 . S
H1228 C1252 0.950 . S
H1229 C1253 0.951 . S
H1230 C1255 0.951 . S
H1231 C1257 0.950 . S
H1232 C1258 0.950 . S
H1233 C1260 0.950 . S
H1234 C1263 0.950 . S
H1235 C1264 0.950 . S
H1236 C1266 0.950 . S
H1237 C1267 0.950 . S
C1238 H1220 0.951 . S
C1238 C1239 1.366 1_545 S
C1238 C1240 1.388 . S
C1239 C1238 1.366 1_565 S
C1239 C1243 1.385 . S
C1240 H1221 0.951 . S
C1240 C1238 1.388 . S
C1240 C1241 1.366 1_545 S
C1241 C1240 1.366 1_565 S
C1241 C1242 1.414 . S
C1241 C1244 1.501 . S
C1242 H1222 0.950 . S
C1242 C1241 1.414 . S
C1242 C1243 1.374 . S
C1243 H1223 0.950 . S
C1243 C1239 1.385 . S
C1243 C1242 1.374 . S
C1244 C1241 1.501 . S
C1244 C1245 1.402 . S
C1244 C1246 1.360 1_565 S
C1245 H1224 0.950 . S
C1245 C1244 1.402 . S
C1245 C1261 1.377 . S
C1246 C1244 1.360 1_545 S
C1246 C1247 1.524 . S
C1246 C1260 1.377 . S
C1247 C1246 1.524 . S
C1247 C1248 1.397 . S
C1247 C1252 1.363 . S
C1248 H1225 0.950 . S
C1248 C1247 1.397 . S
C1248 C1249 1.334 . S
C1249 H1226 0.950 . S
C1249 C1248 1.334 . S
C1249 C1250 1.287 . S
C1250 C1249 1.287 . S
C1250 C1251 1.524 . S
C1250 H1269 0.913 . S
C1251 H1227 0.950 . S
C1251 C1250 1.524 . S
C1251 C1252 1.415 . S
C1252 H1228 0.950 . S
C1252 C1247 1.363 . S
C1252 C1251 1.415 . S
C1253 H1229 0.951 . S
C1253 C1254 1.366 1_565 S
C1253 C1255 1.388 . S
C1254 C1253 1.366 1_545 S
C1254 C1258 1.385 . S
C1255 H1230 0.951 . S
C1255 C1253 1.388 . S
C1255 C1256 1.366 1_565 S
C1256 C1255 1.366 1_545 S
C1256 C1257 1.414 . S
C1256 C1259 1.502 . S
C1257 H1231 0.950 . S
C1257 C1256 1.414 . S
C1257 C1258 1.374 . S
C1258 H1232 0.950 . S
C1258 C1254 1.385 . S
C1258 C1257 1.374 . S
C1259 C1256 1.502 . S
C1259 C1260 1.414 . S
C1259 C1261 1.348 1_545 S
C1260 H1233 0.950 . S
C1260 C1246 1.377 . S
C1260 C1259 1.414 . S
C1261 C1245 1.377 . S
C1261 C1259 1.348 1_565 S
C1261 C1262 1.524 . S
C1262 C1261 1.524 . S
C1262 C1263 1.397 . S
C1262 C1267 1.363 . S
C1263 H1234 0.950 . S
C1263 C1262 1.397 . S
C1263 C1264 1.334 . S
C1264 H1235 0.950 . S
C1264 C1263 1.334 . S
C1264 C1265 1.287 . S
C1265 C1264 1.287 . S
C1265 C1266 1.524 . S
C1265 H1268 0.999 . S
C1266 H1236 0.950 . S
C1266 C1265 1.524 . S
C1266 C1267 1.415 . S
C1267 H1237 0.950 . S
C1267 C1262 1.363 . S
C1267 C1266 1.415 . S
H1268 C1265 0.999 . S
H1269 C1250 0.913 . S
H1270 C1288 0.944 1_554 S
H1271 C1290 0.951 . S
H1272 C1292 0.950 . S
H1273 C1293 0.950 1_554 S
H1274 C1295 0.950 . S
H1275 C1298 0.950 . S
H1276 C1299 0.950 . S
H1277 C1301 0.950 . S
H1278 C1302 0.950 . S
H1279 C1303 0.951 . S
H1280 C1305 0.951 . S
H1281 C1307 0.950 . S
H1282 C1308 0.950 . S
H1283 C1310 0.950 . S
H1284 C1313 0.950 . S
H1285 C1314 0.950 . S
H1286 C1316 0.950 . S
H1287 C1317 0.950 . S
C1288 H1270 0.944 1_556 S
C1288 C1289 1.366 1_556 S
C1288 C1290 1.388 . S
C1289 C1288 1.366 1_554 S
C1289 C1293 1.385 1_554 S
C1290 H1271 0.951 . S
C1290 C1288 1.388 . S
C1290 C1291 1.366 . S
C1291 C1290 1.366 . S
C1291 C1292 1.414 . S
C1291 C1294 1.499 . S
C1292 H1272 0.950 . S
C1292 C1291 1.414 . S
C1292 C1293 1.374 . S
C1293 H1273 0.950 1_556 S
C1293 C1289 1.385 1_556 S
C1293 C1292 1.374 . S
C1294 C1291 1.499 . S
C1294 C1295 1.373 . S
C1294 C1296 1.389 . S
C1295 H1274 0.950 . S
C1295 C1294 1.373 . S
C1295 C1311 1.377 . S
C1296 C1294 1.389 . S
C1296 C1297 1.524 . S
C1296 C1310 1.377 . S
C1297 C1296 1.524 . S
C1297 C1298 1.397 . S
C1297 C1302 1.363 . S
C1298 H1275 0.950 . S
C1298 C1297 1.397 . S
C1298 C1299 1.334 . S
C1299 H1276 0.950 . S
C1299 C1298 1.334 . S
C1299 C1300 1.287 . S
C1300 C1299 1.287 . S
C1300 C1301 1.524 . S
C1300 H1319 0.913 . S
C1301 H1277 0.950 . S
C1301 C1300 1.524 . S
C1301 C1302 1.415 . S
C1302 H1278 0.950 . S
C1302 C1297 1.363 . S
C1302 C1301 1.415 . S
C1303 H1279 0.951 . S
C1303 C1304 1.366 . S
C1303 C1305 1.388 . S
C1304 C1303 1.366 . S
C1304 C1308 1.385 . S
C1305 H1280 0.951 . S
C1305 C1303 1.388 . S
C1305 C1306 1.366 . S
C1306 C1305 1.366 . S
C1306 C1307 1.414 . S
C1306 C1309 1.499 . S
C1307 H1281 0.950 . S
C1307 C1306 1.414 . S
C1307 C1308 1.374 . S
C1308 H1282 0.950 . S
C1308 C1304 1.385 . S
C1308 C1307 1.374 . S
C1309 C1306 1.499 . S
C1309 C1310 1.373 . S
C1309 C1311 1.389 . S
C1310 H1283 0.950 . S
C1310 C1296 1.377 . S
C1310 C1309 1.373 . S
C1311 C1295 1.377 . S
C1311 C1309 1.389 . S
C1311 C1312 1.524 . S
C1312 C1311 1.524 . S
C1312 C1313 1.397 . S
C1312 C1317 1.363 . S
C1313 H1284 0.950 . S
C1313 C1312 1.397 . S
C1313 C1314 1.334 . S
C1314 H1285 0.950 . S
C1314 C1313 1.334 . S
C1314 C1315 1.287 . S
C1315 C1314 1.287 . S
C1315 C1316 1.524 . S
C1315 H1318 0.999 . S
C1316 H1286 0.950 . S
C1316 C1315 1.524 . S
C1316 C1317 1.415 . S
C1317 H1287 0.950 . S
C1317 C1312 1.363 . S
C1317 C1316 1.415 . S
H1318 C1315 0.999 . S
H1319 C1300 0.913 . S
H1320 C1338 0.951 . S
H1321 C1340 0.951 . S
H1322 C1342 0.950 . S
H1323 C1343 0.950 1_554 S
H1324 C1345 0.950 . S
H1325 C1348 0.950 . S
H1326 C1349 0.950 . S
H1327 C1351 0.950 . S
H1328 C1352 0.950 . S
H1329 C1353 0.951 . S
H1330 C1355 0.951 . S
H1331 C1357 0.950 . S
H1332 C1358 0.950 . S
H1333 C1360 0.950 . S
H1334 C1363 0.950 . S
H1335 C1364 0.950 . S
H1336 C1366 0.950 . S
H1337 C1367 0.950 . S
C1338 H1320 0.951 . S
C1338 C1339 1.366 1_556 S
C1338 C1340 1.388 . S
C1339 C1338 1.366 1_554 S
C1339 C1343 1.385 1_554 S
C1340 H1321 0.951 . S
C1340 C1338 1.388 . S
C1340 C1341 1.366 . S
C1341 C1340 1.366 . S
C1341 C1342 1.414 . S
C1341 C1344 1.499 . S
C1342 H1322 0.950 . S
C1342 C1341 1.414 . S
C1342 C1343 1.374 . S
C1343 H1323 0.950 1_556 S
C1343 C1339 1.385 1_556 S
C1343 C1342 1.374 . S
C1344 C1341 1.499 . S
C1344 C1345 1.373 . S
C1344 C1346 1.389 . S
C1345 H1324 0.950 . S
C1345 C1344 1.373 . S
C1345 C1361 1.377 . S
C1346 C1344 1.389 . S
C1346 C1347 1.524 . S
C1346 C1360 1.377 . S
C1347 C1346 1.524 . S
C1347 C1348 1.397 . S
C1347 C1352 1.363 . S
C1348 H1325 0.950 . S
C1348 C1347 1.397 . S
C1348 C1349 1.334 . S
C1349 H1326 0.950 . S
C1349 C1348 1.334 . S
C1349 C1350 1.287 . S
C1350 C1349 1.287 . S
C1350 C1351 1.524 . S
C1350 H1369 0.913 . S
C1351 H1327 0.950 . S
C1351 C1350 1.524 . S
C1351 C1352 1.415 . S
C1352 H1328 0.950 . S
C1352 C1347 1.363 . S
C1352 C1351 1.415 . S
C1353 H1329 0.951 . S
C1353 C1354 1.366 . S
C1353 C1355 1.388 . S
C1354 C1353 1.366 . S
C1354 C1358 1.385 . S
C1355 H1330 0.951 . S
C1355 C1353 1.388 . S
C1355 C1356 1.366 . S
C1356 C1355 1.366 . S
C1356 C1357 1.414 . S
C1356 C1359 1.499 . S
C1357 H1331 0.950 . S
C1357 C1356 1.414 . S
C1357 C1358 1.374 . S
C1358 H1332 0.950 . S
C1358 C1354 1.385 . S
C1358 C1357 1.374 . S
C1359 C1356 1.499 . S
C1359 C1360 1.373 . S
C1359 C1361 1.389 . S
C1360 H1333 0.950 . S
C1360 C1346 1.377 . S
C1360 C1359 1.373 . S
C1361 C1345 1.377 . S
C1361 C1359 1.389 . S
C1361 C1362 1.524 . S
C1362 C1361 1.524 . S
C1362 C1363 1.397 . S
C1362 C1367 1.363 . S
C1363 H1334 0.950 . S
C1363 C1362 1.397 . S
C1363 C1364 1.334 . S
C1364 H1335 0.950 . S
C1364 C1363 1.334 . S
C1364 C1365 1.287 . S
C1365 C1364 1.287 . S
C1365 C1366 1.524 . S
C1365 H1368 0.999 . S
C1366 H1336 0.950 . S
C1366 C1365 1.524 . S
C1366 C1367 1.415 . S
C1367 H1337 0.950 . S
C1367 C1362 1.363 . S
C1367 C1366 1.415 . S
H1368 C1365 0.999 . S
H1369 C1350 0.913 . S
H1370 C1388 0.951 . S
H1371 C1390 0.951 . S
H1372 C1392 0.950 . S
H1373 C1393 0.950 . S
H1374 C1395 0.950 . S
H1375 C1398 0.950 . S
H1376 C1399 0.950 . S
H1377 C1401 0.950 . S
H1378 C1402 0.950 . S
H1379 C1403 0.953 . S
H1380 C1405 0.951 . S
H1381 C1407 0.950 . S
H1382 C1408 0.950 1_556 S
H1383 C1410 0.950 . S
H1384 C1413 0.950 . S
H1385 C1414 0.950 . S
H1386 C1416 0.950 . S
H1387 C1417 0.950 . S
C1388 H1370 0.951 . S
C1388 C1389 1.366 . S
C1388 C1390 1.388 . S
C1389 C1388 1.366 . S
C1389 C1393 1.385 . S
C1390 H1371 0.951 . S
C1390 C1388 1.388 . S
C1390 C1391 1.366 . S
C1391 C1390 1.366 . S
C1391 C1392 1.414 . S
C1391 C1394 1.499 . S
C1392 H1372 0.950 . S
C1392 C1391 1.414 . S
C1392 C1393 1.374 . S
C1393 H1373 0.950 . S
C1393 C1389 1.385 . S
C1393 C1392 1.374 . S
C1394 C1391 1.499 . S
C1394 C1395 1.373 . S
C1394 C1396 1.389 . S
C1395 H1374 0.950 . S
C1395 C1394 1.373 . S
C1395 C1411 1.377 . S
C1396 C1394 1.389 . S
C1396 C1397 1.524 . S
C1396 C1410 1.377 . S
C1397 C1396 1.524 . S
C1397 C1398 1.397 . S
C1397 C1402 1.363 . S
C1398 H1375 0.950 . S
C1398 C1397 1.397 . S
C1398 C1399 1.334 . S
C1399 H1376 0.950 . S
C1399 C1398 1.334 . S
C1399 C1400 1.287 . S
C1400 C1399 1.287 . S
C1400 C1401 1.524 . S
C1400 H1419 0.913 . S
C1401 H1377 0.950 . S
C1401 C1400 1.524 . S
C1401 C1402 1.415 . S
C1402 H1378 0.950 . S
C1402 C1397 1.363 . S
C1402 C1401 1.415 . S
C1403 H1379 0.953 . S
C1403 C1404 1.366 1_554 S
C1403 C1405 1.388 . S
C1404 C1403 1.366 1_556 S
C1404 C1408 1.385 1_556 S
C1405 H1380 0.951 . S
C1405 C1403 1.388 . S
C1405 C1406 1.366 . S
C1406 C1405 1.366 . S
C1406 C1407 1.414 . S
C1406 C1409 1.499 . S
C1407 H1381 0.950 . S
C1407 C1406 1.414 . S
C1407 C1408 1.374 . S
C1408 H1382 0.950 1_554 S
C1408 C1404 1.385 1_554 S
C1408 C1407 1.374 . S
C1409 C1406 1.499 . S
C1409 C1410 1.373 . S
C1409 C1411 1.389 . S
C1410 H1383 0.950 . S
C1410 C1396 1.377 . S
C1410 C1409 1.373 . S
C1411 C1395 1.377 . S
C1411 C1409 1.389 . S
C1411 C1412 1.524 . S
C1412 C1411 1.524 . S
C1412 C1413 1.397 . S
C1412 C1417 1.363 . S
C1413 H1384 0.950 . S
C1413 C1412 1.397 . S
C1413 C1414 1.334 . S
C1414 H1385 0.950 . S
C1414 C1413 1.334 . S
C1414 C1415 1.287 . S
C1415 C1414 1.287 . S
C1415 C1416 1.524 . S
C1415 H1418 0.999 . S
C1416 H1386 0.950 . S
C1416 C1415 1.524 . S
C1416 C1417 1.415 . S
C1417 H1387 0.950 . S
C1417 C1412 1.363 . S
C1417 C1416 1.415 . S
H1418 C1415 0.999 . S
H1419 C1400 0.913 . S
H1420 C1438 0.951 . S
H1421 C1440 0.951 . S
H1422 C1442 0.950 . S
H1423 C1443 0.950 . S
H1424 C1445 0.950 . S
H1425 C1448 0.950 . S
H1426 C1449 0.950 . S
H1427 C1451 0.950 . S
H1428 C1452 0.950 . S
H1429 C1453 0.951 . S
H1430 C1455 0.951 . S
H1431 C1457 0.950 . S
H1432 C1458 0.950 . S
H1433 C1460 0.950 . S
H1434 C1463 0.950 . S
H1435 C1464 0.950 . S
H1436 C1466 0.950 . S
H1437 C1467 0.950 . S
C1438 H1420 0.951 . S
C1438 C1439 1.366 . S
C1438 C1440 1.388 . S
C1439 C1438 1.366 . S
C1439 C1443 1.385 . S
C1440 H1421 0.951 . S
C1440 C1438 1.388 . S
C1440 C1441 1.366 . S
C1441 C1440 1.366 . S
C1441 C1442 1.414 . S
C1441 C1444 1.499 . S
C1442 H1422 0.950 . S
C1442 C1441 1.414 . S
C1442 C1443 1.374 . S
C1443 H1423 0.950 . S
C1443 C1439 1.385 . S
C1443 C1442 1.374 . S
C1444 C1441 1.499 . S
C1444 C1445 1.373 . S
C1444 C1446 1.389 . S
C1445 H1424 0.950 . S
C1445 C1444 1.373 . S
C1445 C1461 1.377 . S
C1446 C1444 1.389 . S
C1446 C1447 1.524 . S
C1446 C1460 1.377 . S
C1447 C1446 1.524 . S
C1447 C1448 1.397 . S
C1447 C1452 1.363 . S
C1448 H1425 0.950 . S
C1448 C1447 1.397 . S
C1448 C1449 1.334 . S
C1449 H1426 0.950 . S
C1449 C1448 1.334 . S
C1449 C1450 1.287 . S
C1450 C1449 1.287 . S
C1450 C1451 1.524 . S
C1450 H1469 0.913 . S
C1451 H1427 0.950 . S
C1451 C1450 1.524 . S
C1451 C1452 1.415 . S
C1452 H1428 0.950 . S
C1452 C1447 1.363 . S
C1452 C1451 1.415 . S
C1453 H1429 0.951 . S
C1453 C1454 1.366 . S
C1453 C1455 1.388 . S
C1454 C1453 1.366 . S
C1454 C1458 1.385 . S
C1455 H1430 0.951 . S
C1455 C1453 1.388 . S
C1455 C1456 1.366 . S
C1456 C1455 1.366 . S
C1456 C1457 1.414 . S
C1456 C1459 1.499 . S
C1457 H1431 0.950 . S
C1457 C1456 1.414 . S
C1457 C1458 1.374 . S
C1458 H1432 0.950 . S
C1458 C1454 1.385 . S
C1458 C1457 1.374 . S
C1459 C1456 1.499 . S
C1459 C1460 1.373 . S
C1459 C1461 1.389 . S
C1460 H1433 0.950 . S
C1460 C1446 1.377 . S
C1460 C1459 1.373 . S
C1461 C1445 1.377 . S
C1461 C1459 1.389 . S
C1461 C1462 1.524 . S
C1462 C1461 1.524 . S
C1462 C1463 1.397 . S
C1462 C1467 1.363 . S
C1463 H1434 0.950 . S
C1463 C1462 1.397 . S
C1463 C1464 1.334 . S
C1464 H1435 0.950 . S
C1464 C1463 1.334 . S
C1464 C1465 1.287 . S
C1465 C1464 1.287 . S
C1465 C1466 1.524 . S
C1465 H1468 0.999 . S
C1466 H1436 0.950 . S
C1466 C1465 1.524 . S
C1466 C1467 1.415 . S
C1467 H1437 0.950 . S
C1467 C1462 1.363 . S
C1467 C1466 1.415 . S
H1468 C1465 0.999 . S
H1469 C1450 0.913 . S
H1470 C1488 0.951 . S
H1471 C1490 0.951 . S
H1472 C1492 0.950 . S
H1473 C1493 0.950 . S
H1474 C1495 0.950 . S
H1475 C1498 0.950 . S
H1476 C1499 0.950 . S
H1477 C1501 0.950 . S
H1478 C1502 0.950 . S
H1479 C1503 0.951 . S
H1480 C1505 0.951 . S
H1481 C1507 0.950 . S
H1482 C1508 0.950 . S
H1483 C1510 0.950 . S
H1484 C1513 0.950 . S
H1485 C1514 0.950 . S
H1486 C1516 0.950 . S
H1487 C1517 0.950 . S
C1488 H1470 0.951 . S
C1488 C1489 1.366 1_655 S
C1488 C1490 1.388 . S
C1489 C1488 1.366 1_455 S
C1489 C1493 1.385 . S
C1490 H1471 0.951 . S
C1490 C1488 1.388 . S
C1490 C1491 1.366 1_655 S
C1491 C1490 1.366 1_455 S
C1491 C1492 1.414 . S
C1491 C1494 1.499 . S
C1492 H1472 0.950 . S
C1492 C1491 1.414 . S
C1492 C1493 1.374 . S
C1493 H1473 0.950 . S
C1493 C1489 1.385 . S
C1493 C1492 1.374 . S
C1494 C1491 1.499 . S
C1494 C1495 1.373 . S
C1494 C1496 1.389 1_455 S
C1495 H1474 0.950 . S
C1495 C1494 1.373 . S
C1495 C1511 1.377 1_556 S
C1496 C1494 1.389 1_655 S
C1496 C1497 1.524 . S
C1496 C1510 1.377 1_556 S
C1497 C1496 1.524 . S
C1497 C1498 1.397 . S
C1497 C1502 1.363 . S
C1498 H1475 0.950 . S
C1498 C1497 1.397 . S
C1498 C1499 1.334 . S
C1499 H1476 0.950 . S
C1499 C1498 1.334 . S
C1499 C1500 1.287 . S
C1500 C1499 1.287 . S
C1500 C1501 1.524 . S
C1500 H1519 0.913 . S
C1501 H1477 0.950 . S
C1501 C1500 1.524 . S
C1501 C1502 1.415 . S
C1502 H1478 0.950 . S
C1502 C1497 1.363 . S
C1502 C1501 1.415 . S
C1503 H1479 0.951 . S
C1503 C1504 1.366 1_455 S
C1503 C1505 1.388 . S
C1504 C1503 1.366 1_655 S
C1504 C1508 1.385 . S
C1505 H1480 0.951 . S
C1505 C1503 1.388 . S
C1505 C1506 1.366 1_455 S
C1506 C1505 1.366 1_655 S
C1506 C1507 1.414 . S
C1506 C1509 1.499 . S
C1507 H1481 0.950 . S
C1507 C1506 1.414 . S
C1507 C1508 1.374 . S
C1508 H1482 0.950 . S
C1508 C1504 1.385 . S
C1508 C1507 1.374 . S
C1509 C1506 1.499 . S
C1509 C1510 1.373 . S
C1509 C1511 1.389 1_655 S
C1510 H1483 0.950 . S
C1510 C1496 1.377 1_554 S
C1510 C1509 1.373 . S
C1511 C1495 1.377 1_554 S
C1511 C1509 1.389 1_455 S
C1511 C1512 1.524 . S
C1512 C1511 1.524 . S
C1512 C1513 1.397 . S
C1512 C1517 1.363 . S
C1513 H1484 0.950 . S
C1513 C1512 1.397 . S
C1513 C1514 1.334 . S
C1514 H1485 0.950 . S
C1514 C1513 1.334 . S
C1514 C1515 1.287 . S
C1515 C1514 1.287 . S
C1515 C1516 1.524 . S
C1515 H1518 0.999 . S
C1516 H1486 0.950 . S
C1516 C1515 1.524 . S
C1516 C1517 1.415 . S
C1517 H1487 0.950 . S
C1517 C1512 1.363 . S
C1517 C1516 1.415 . S
H1518 C1515 0.999 . S
H1519 C1500 0.913 . S
C339 C6 1.638 . S
C354 C129 1.626 . S
C389 C9 1.628 . S
C404 C46 1.638 . S
C439 C49 1.628 . S
C454 C86 1.640 . S
C489 C89 1.628 . S
C504 C126 1.637 . S
C539 C15 1.639 . S
C554 C218 1.630 . S
C589 C18 1.628 . S
C604 C175 1.639 . S
C639 C178 1.628 . S
C654 C95 1.637 . S
C689 C215 1.638 . S
C704 C98 1.629 . S
C739 C246 1.638 . S
C754 C209 1.628 . S
C789 C166 1.638 . S
C804 C249 1.628 . S
C839 C286 1.639 . S
C854 C169 1.629 . S
C889 C206 1.639 . S
C904 C289 1.628 . S
C939 C138 1.628 . S
C954 C255 1.638 . S
C989 C258 1.628 . S
C1004 C55 1.639 . S
C1039 C58 1.628 . S
C1054 C295 1.637 . S
C1089 C135 1.639 . S
C1104 C298 1.627 . S
C1139 C19 2.194 . S
C1154 C10 2.194 . S
C1189 C50 2.194 . S
C1204 C59 2.194 . S
C1239 C90 2.194 . S
C1254 C99 2.194 . S
C1289 C130 2.194 . S
C1304 C139 2.194 . S
C1339 C170 2.194 . S
C1354 C179 2.194 . S
C1389 C210 2.194 . S
C1404 C219 2.194 . S
C1439 C250 2.194 . S
C1454 C259 2.194 . S
C1489 C299 2.194 . S
C1504 C290 2.194 . S
