# Generated by pormake.
# Topology wjh, (4)-cn, num edge types: 1
# Building blocks:
#     Node 0, Type 0, BuildingBlock: QUQFOY_clean_sbu_3, # of connection points: 4
#     Node 1, Type 0, BuildingBlock: QUQFOY_clean_sbu_3, # of connection points: 4
#     Node 2, Type 0, BuildingBlock: QUQFOY_clean_sbu_3, # of connection points: 4
#     Node 3, Type 0, BuildingBlock: QUQFOY_clean_sbu_3, # of connection points: 4
#     Node 4, Type 0, BuildingBlock: QUQFOY_clean_sbu_3, # of connection points: 4
#     Node 5, Type 0, BuildingBlock: QUQFOY_clean_sbu_3, # of connection points: 4
#     Node 6, Type 0, BuildingBlock: QUQFOY_clean_sbu_3, # of connection points: 4
#     Node 7, Type 0, BuildingBlock: QUQFOY_clean_sbu_3, # of connection points: 4
#     Node 8, Type 0, BuildingBlock: QUQFOY_clean_sbu_3, # of connection points: 4
#     Node 9, Type 0, BuildingBlock: QUQFOY_clean_sbu_3, # of connection points: 4
#     Node 10, Type 0, BuildingBlock: QUQFOY_clean_sbu_3, # of connection points: 4
#     Node 11, Type 0, BuildingBlock: QUQFOY_clean_sbu_3, # of connection points: 4
#     Edge 12, Type (0, 0), BuildingBlock: UVAHIK_clean_linker_0, # of connection points: 2
#     Edge 13, Type (0, 0), BuildingBlock: UVAHIK_clean_linker_0, # of connection points: 2
#     Edge 14, Type (0, 0), BuildingBlock: UVAHIK_clean_linker_0, # of connection points: 2
#     Edge 15, Type (0, 0), BuildingBlock: UVAHIK_clean_linker_0, # of connection points: 2
#     Edge 16, Type (0, 0), BuildingBlock: UVAHIK_clean_linker_0, # of connection points: 2
#     Edge 17, Type (0, 0), BuildingBlock: UVAHIK_clean_linker_0, # of connection points: 2
#     Edge 18, Type (0, 0), BuildingBlock: UVAHIK_clean_linker_0, # of connection points: 2
#     Edge 19, Type (0, 0), BuildingBlock: UVAHIK_clean_linker_0, # of connection points: 2
#     Edge 20, Type (0, 0), BuildingBlock: UVAHIK_clean_linker_0, # of connection points: 2
#     Edge 21, Type (0, 0), BuildingBlock: UVAHIK_clean_linker_0, # of connection points: 2
#     Edge 22, Type (0, 0), BuildingBlock: UVAHIK_clean_linker_0, # of connection points: 2
#     Edge 23, Type (0, 0), BuildingBlock: UVAHIK_clean_linker_0, # of connection points: 2
#     Edge 24, Type (0, 0), BuildingBlock: UVAHIK_clean_linker_0, # of connection points: 2
#     Edge 25, Type (0, 0), BuildingBlock: UVAHIK_clean_linker_0, # of connection points: 2
#     Edge 26, Type (0, 0), BuildingBlock: UVAHIK_clean_linker_0, # of connection points: 2
#     Edge 27, Type (0, 0), BuildingBlock: UVAHIK_clean_linker_0, # of connection points: 2
#     Edge 28, Type (0, 0), BuildingBlock: UVAHIK_clean_linker_0, # of connection points: 2
#     Edge 29, Type (0, 0), BuildingBlock: UVAHIK_clean_linker_0, # of connection points: 2
#     Edge 30, Type (0, 0), BuildingBlock: UVAHIK_clean_linker_0, # of connection points: 2
#     Edge 31, Type (0, 0), BuildingBlock: UVAHIK_clean_linker_0, # of connection points: 2
#     Edge 32, Type (0, 0), BuildingBlock: UVAHIK_clean_linker_0, # of connection points: 2
#     Edge 33, Type (0, 0), BuildingBlock: UVAHIK_clean_linker_0, # of connection points: 2
#     Edge 34, Type (0, 0), BuildingBlock: UVAHIK_clean_linker_0, # of connection points: 2
#     Edge 35, Type (0, 0), BuildingBlock: UVAHIK_clean_linker_0, # of connection points: 2
# Relax obj value: 0.076
# Max RMSD: 0.098
# Mean RMSD: 0.098
data_MOF--net-wjh--node1-QUQFOY_clean_sbu_3--edge1-UVAHIK_clean_linker_0
_symmetry_space_group_name_H-M    P1
_symmetry_Int_Tables_number       1
_symmetry_cell_setting            triclinic
loop_
_symmetry_equiv_pos_as_xyz
'x, y, z'
_cell_length_a     80.246164
_cell_length_b     80.22647
_cell_length_c     34.607941
_cell_angle_alpha  90.010559
_cell_angle_beta   90.017768
_cell_angle_gamma 120.01333
loop_
_atom_site_label
_atom_site_type_symbol
_atom_site_fract_x
_atom_site_fract_y
_atom_site_fract_z
_atom_type_partial_charge
C0 C 0.54292 0.1533 0.98524 0.0
O1 O 0.55109 0.14856 0.01089 0.0
Cd2 Cd 0.54139 0.1405 0.07591 0.0
O3 O 0.52774 0.15404 -0.00686 0.0
Cd4 Cd 0.50757 0.14821 0.05262 0.0
C5 C 0.49625 0.1018 0.05998 0.0
O6 O 0.53468 0.1648 0.09564 0.0
O7 O 0.50783 0.14711 0.12427 0.0
O8 O 0.50227 0.17472 0.03536 0.0
C9 C 0.52553 0.15953 0.12706 0.0
O10 O 0.51304 0.10842 0.07416 0.0
C11 C 0.48471 0.16618 0.04546 0.0
O12 O 0.4908 0.11309 0.04665 0.0
O13 O 0.47739 0.14874 0.05585 0.0
C14 C 0.39003 0.54341 0.1497 0.0
O15 O 0.40279 0.55146 0.17567 0.0
Cd16 Cd 0.40001 0.5435 0.24215 0.0
O17 O 0.37356 0.52898 0.15767 0.0
Cd18 Cd 0.35867 0.50983 0.21791 0.0
C19 C 0.39343 0.49825 0.23107 0.0
O20 O 0.36891 0.53751 0.25957 0.0
O21 O 0.35907 0.51081 0.28938 0.0
O22 O 0.32684 0.50409 0.19934 0.0
C23 C 0.36447 0.52857 0.29129 0.0
O24 O 0.40338 0.51504 0.24541 0.0
C25 C 0.31792 0.48655 0.20965 0.0
O26 O 0.37713 0.49299 0.21555 0.0
O27 O 0.32815 0.47945 0.22067 0.0
C28 C 0.84829 0.39415 0.32627 0.0
O29 O 0.8516 0.40629 0.35291 0.0
Cd30 Cd 0.85608 0.40287 0.41938 0.0
O31 O 0.84715 0.378 0.33378 0.0
Cd32 Cd 0.84979 0.36224 0.39435 0.0
C33 C 0.89555 0.39729 0.41148 0.0
O34 O 0.83054 0.37131 0.433 0.0
O35 O 0.8466 0.36148 0.46577 0.0
O36 O 0.82475 0.33049 0.37242 0.0
C37 C 0.83377 0.36626 0.46535 0.0
O38 O 0.8883 0.40705 0.42481 0.0
C39 C 0.8332 0.32165 0.38437 0.0
O40 O 0.88493 0.38097 0.39572 0.0
O41 O 0.85007 0.33196 0.39775 0.0
C42 C 0.45118 0.84585 0.48638 0.0
O43 O 0.44218 0.84944 0.51219 0.0
Cd44 Cd 0.45154 0.85799 0.577 0.0
O45 O 0.46693 0.84621 0.49429 0.0
Cd46 Cd 0.48648 0.85162 0.55494 0.0
C47 C 0.49652 0.89764 0.56236 0.0
O48 O 0.45905 0.83427 0.59692 0.0
O49 O 0.48555 0.85216 0.62659 0.0
O50 O 0.49235 0.82552 0.53747 0.0
C51 C 0.46791 0.83947 0.62867 0.0
O52 O 0.47927 0.89052 0.57426 0.0
C53 C 0.5098 0.83413 0.54838 0.0
O54 O 0.50291 0.88676 0.55115 0.0
O55 O 0.51684 0.85149 0.55922 0.0
C56 C 0.6108 0.45637 0.65217 0.0
O57 O 0.5979 0.44675 0.67704 0.0
Cd58 Cd 0.59748 0.45618 0.7415 0.0
O59 O 0.62572 0.47234 0.66101 0.0
Cd60 Cd 0.63891 0.49116 0.7226 0.0
C61 C 0.60305 0.50126 0.7264 0.0
O62 O 0.62826 0.46335 0.76372 0.0
O63 O 0.63599 0.48946 0.79421 0.0
O64 O 0.67102 0.49708 0.70637 0.0
C65 C 0.63128 0.47187 0.79577 0.0
O66 O 0.59274 0.48405 0.73848 0.0
C67 C 0.67982 0.51436 0.71837 0.0
O68 O 0.62038 0.50752 0.71587 0.0
O69 O 0.66947 0.52132 0.72938 0.0
C70 C 0.15636 0.61232 0.81769 0.0
O71 O 0.15306 0.59932 0.84236 0.0
Cd72 Cd 0.14074 0.59741 0.90524 0.0
O73 O 0.15408 0.62656 0.82606 0.0
Cd74 Cd 0.14582 0.63851 0.88618 0.0
C75 C 0.10058 0.60119 0.88413 0.0
O76 O 0.16211 0.62824 0.93061 0.0
O77 O 0.14191 0.63467 0.95732 0.0
O78 O 0.17183 0.671 0.87235 0.0
C79 C 0.15502 0.6304 0.96142 0.0
O80 O 0.10784 0.59139 0.89733 0.0
C81 C 0.1627 0.67936 0.88292 0.0
O82 O 0.11129 0.61879 0.8748 0.0
O83 O 0.14515 0.6686 0.89209 0.0
C84 C 0.84692 0.45455 0.93656 0.0
O85 O 0.85012 0.44514 0.91101 0.0
Cd86 Cd 0.85473 0.45183 0.84401 0.0
O87 O 0.84593 0.46948 0.92746 0.0
Cd88 Cd 0.84873 0.48689 0.86537 0.0
C89 C 0.89441 0.49694 0.84962 0.0
O90 O 0.8295 0.45791 0.82819 0.0
O91 O 0.84559 0.48344 0.79425 0.0
O92 O 0.82386 0.49415 0.88554 0.0
C93 C 0.83284 0.46578 0.79537 0.0
O94 O 0.88705 0.47968 0.8376 0.0
C95 C 0.83253 0.51131 0.87289 0.0
O96 O 0.88387 0.50302 0.86424 0.0
O97 O 0.8494 0.51756 0.85979 0.0
C98 C 0.38698 0.84555 0.10075 0.0
O99 O 0.39955 0.8495 0.07472 0.0
Cd100 Cd 0.39748 0.85654 0.00911 0.0
O101 O 0.37112 0.84497 0.09291 0.0
Cd102 Cd 0.35632 0.84974 0.03297 0.0
C103 C 0.39176 0.89584 0.02255 0.0
O104 O 0.36619 0.83229 0.99065 0.0
O105 O 0.35711 0.8499 0.96137 0.0
O106 O 0.32446 0.82374 0.05143 0.0
C107 C 0.36219 0.83732 0.95904 0.0
O108 O 0.40167 0.88884 0.00878 0.0
C109 C 0.31561 0.83244 0.0412 0.0
O110 O 0.37508 0.8849 0.03659 0.0
O111 O 0.32589 0.84977 0.03022 0.0
C112 C 0.54211 0.38801 0.27195 0.0
O113 O 0.55196 0.40103 0.24745 0.0
Cd114 Cd 0.54305 0.40201 0.18281 0.0
O115 O 0.52613 0.37323 0.26264 0.0
Cd116 Cd 0.50768 0.36059 0.20049 0.0
C117 C 0.49806 0.39681 0.19668 0.0
O118 O 0.53571 0.37128 0.15998 0.0
O119 O 0.50981 0.36385 0.12898 0.0
O120 O 0.50123 0.32821 0.21592 0.0
C121 C 0.52739 0.36849 0.12775 0.0
O122 O 0.51537 0.40706 0.18511 0.0
C123 C 0.48401 0.31969 0.2036 0.0
O124 O 0.4916 0.37941 0.20696 0.0
O125 O 0.47732 0.33032 0.1928 0.0
C126 C 0.1573 0.54442 0.44015 0.0
O127 O 0.15389 0.55429 0.41615 0.0
Cd128 Cd 0.14133 0.54439 0.35326 0.0
O129 O 0.15508 0.528 0.43096 0.0
Cd130 Cd 0.14686 0.50841 0.36992 0.0
C131 C 0.10149 0.5 0.3735 0.0
O132 O 0.16279 0.53544 0.32644 0.0
O133 O 0.14268 0.50897 0.29898 0.0
O134 O 0.1732 0.50226 0.38241 0.0
C135 C 0.15564 0.52645 0.29538 0.0
O136 O 0.10858 0.51719 0.36111 0.0
C137 C 0.16424 0.48487 0.37109 0.0
O138 O 0.11234 0.49316 0.38185 0.0
O139 O 0.14665 0.47795 0.36213 0.0
C140 C 0.61007 0.15829 0.60266 0.0
O141 O 0.59703 0.15429 0.57766 0.0
Cd142 Cd 0.59601 0.14292 0.51455 0.0
O143 O 0.62497 0.15706 0.59447 0.0
Cd144 Cd 0.63777 0.14957 0.53422 0.0
C145 C 0.60135 0.10365 0.53537 0.0
O146 O 0.62685 0.1656 0.49087 0.0
O147 O 0.6346 0.14668 0.46275 0.0
O148 O 0.66997 0.17608 0.54879 0.0
C149 C 0.62969 0.15937 0.45958 0.0
O150 O 0.59097 0.11048 0.5234 0.0
C151 C 0.6787 0.16735 0.53805 0.0
O152 O 0.61905 0.11474 0.54342 0.0
O153 O 0.6683 0.1498 0.5285 0.0
C154 C 0.45552 0.60752 0.76483 0.0
O155 O 0.44759 0.59448 0.73934 0.0
Cd156 Cd 0.45508 0.59682 0.67268 0.0
O157 O 0.46961 0.62411 0.75623 0.0
Cd158 Cd 0.48832 0.63875 0.69534 0.0
C159 C 0.50078 0.60455 0.68344 0.0
O160 O 0.46017 0.62751 0.65465 0.0
O161 O 0.48673 0.63769 0.62401 0.0
O162 O 0.49351 0.67045 0.71335 0.0
C163 C 0.46889 0.63196 0.62267 0.0
O164 O 0.48399 0.5942 0.6694 0.0
C165 C 0.51091 0.67962 0.70212 0.0
O166 O 0.50578 0.62091 0.69839 0.0
O167 O 0.51821 0.66961 0.69084 0.0
C168 C 0.52681 0.15267 0.19714 0.0
C169 C 0.53597 0.16347 0.16399 0.0
C170 C 0.53753 0.1544 0.23022 0.0
C171 C 0.58434 0.18446 0.27835 0.0
H172 H 0.57485 0.13573 0.32083 0.0
C173 C 0.61714 0.17694 0.42114 0.0
C174 C 0.62277 0.16295 0.42282 0.0
C175 C 0.60811 0.17871 0.38828 0.0
C176 C 0.57778 0.14944 0.30901 0.0
H177 H 0.56319 0.18547 0.14021 0.0
H178 H 0.58185 0.18846 0.1979 0.0
H179 H 0.55484 0.13598 0.26812 0.0
H180 H 0.6244 0.1406 0.39071 0.0
H181 H 0.6086 0.14374 0.33303 0.0
H182 H 0.60745 0.1979 0.31909 0.0
C183 C 0.56645 0.17866 0.19838 0.0
C184 C 0.56614 0.14959 0.27929 0.0
C185 C 0.55577 0.17687 0.16529 0.0
C186 C 0.62012 0.15143 0.39028 0.0
C187 C 0.61098 0.15315 0.35742 0.0
C188 C 0.59594 0.18432 0.30826 0.0
C189 C 0.55753 0.16704 0.23074 0.0
C190 C 0.56931 0.16709 0.26365 0.0
C191 C 0.60448 0.16649 0.35652 0.0
C192 C 0.5928 0.16679 0.32378 0.0
H193 H 0.51155 0.1423 0.19702 0.0
H194 H 0.53027 0.14549 0.25506 0.0
H195 H 0.58706 0.19816 0.26683 0.0
H196 H 0.6191 0.18609 0.44576 0.0
H197 H 0.60317 0.18905 0.38847 0.0
C198 C 0.37187 0.53021 0.36177 0.0
C199 C 0.3705 0.5392 0.32809 0.0
C200 C 0.3806 0.54108 0.39481 0.0
C201 C 0.39703 0.58772 0.44275 0.0
H202 H 0.43737 0.57933 0.48308 0.0
C203 C 0.43818 0.61938 0.58602 0.0
C204 C 0.45799 0.62576 0.58618 0.0
C205 C 0.42713 0.61078 0.55312 0.0
C206 C 0.42626 0.58194 0.4719 0.0
H207 H 0.3758 0.56627 0.30334 0.0
H208 H 0.39095 0.58523 0.36121 0.0
H209 H 0.41696 0.55915 0.4307 0.0
H210 H 0.48203 0.6293 0.55138 0.0
H211 H 0.46264 0.61412 0.49386 0.0
H212 H 0.40645 0.61057 0.48417 0.0
C213 C 0.38538 0.56983 0.36199 0.0
C214 C 0.41441 0.57021 0.44235 0.0
C215 C 0.3768 0.55899 0.32885 0.0
C216 C 0.46677 0.62441 0.55216 0.0
C217 C 0.45568 0.61565 0.51935 0.0
C218 C 0.4088 0.59935 0.47269 0.0
C219 C 0.38792 0.56107 0.3948 0.0
C220 C 0.3997 0.57299 0.42748 0.0
C221 C 0.43569 0.60829 0.51993 0.0
C222 C 0.42358 0.5966 0.48735 0.0
H223 H 0.36704 0.51495 0.36208 0.0
H224 H 0.38217 0.53397 0.42001 0.0
H225 H 0.38578 0.59013 0.43171 0.0
H226 H 0.43106 0.62037 0.61179 0.0
H227 H 0.41174 0.60517 0.55435 0.0
C228 C 0.81204 0.43429 0.76291 0.0
C229 C 0.82585 0.45394 0.76012 0.0
C230 C 0.8073 0.42234 0.73066 0.0
C231 C 0.81269 0.42219 0.62419 0.0
H232 H 0.81406 0.37528 0.64384 0.0
C233 C 0.8121 0.37542 0.49897 0.0
C234 C 0.82656 0.37045 0.50104 0.0
C235 C 0.80712 0.38216 0.5316 0.0
C236 C 0.81358 0.38829 0.63791 0.0
H237 H 0.84465 0.47675 0.72097 0.0
H238 H 0.83664 0.45583 0.66475 0.0
H239 H 0.8144 0.39485 0.69792 0.0
H240 H 0.84628 0.36741 0.53926 0.0
H241 H 0.83791 0.37957 0.59614 0.0
H242 H 0.81307 0.41626 0.56417 0.0
C243 C 0.82931 0.44966 0.69174 0.0
C244 C 0.81354 0.3994 0.66888 0.0
C245 C 0.83399 0.46165 0.72399 0.0
C246 C 0.83512 0.37119 0.53683 0.0
C247 C 0.83023 0.37806 0.56946 0.0
C248 C 0.81279 0.41111 0.59322 0.0
C249 C 0.81631 0.42979 0.69501 0.0
C250 C 0.81358 0.41672 0.66232 0.0
C251 C 0.81659 0.38416 0.56688 0.0
C252 C 0.81372 0.39429 0.59975 0.0
H253 H 0.80535 0.42799 0.79034 0.0
H254 H 0.79697 0.40715 0.7339 0.0
H255 H 0.81247 0.43534 0.61824 0.0
H256 H 0.80506 0.37472 0.4718 0.0
H257 H 0.79629 0.38637 0.52891 0.0
C258 C 0.43749 0.82108 0.66595 0.0
C259 C 0.45716 0.83498 0.66528 0.0
C260 C 0.42646 0.81873 0.69878 0.0
C261 C 0.42504 0.84706 0.77912 0.0
H262 H 0.38496 0.79816 0.81931 0.0
C263 C 0.37016 0.8437 0.88885 0.0
C264 C 0.36849 0.83303 0.92224 0.0
C265 C 0.37916 0.84183 0.85596 0.0
C266 C 0.3961 0.81189 0.80831 0.0
H267 H 0.48101 0.85645 0.69915 0.0
H268 H 0.46166 0.85233 0.75666 0.0
H269 H 0.40595 0.79865 0.76743 0.0
H270 H 0.37356 0.81103 0.94656 0.0
H271 H 0.38923 0.80776 0.88908 0.0
H272 H 0.41537 0.86034 0.81996 0.0
C273 C 0.45477 0.84344 0.73157 0.0
C274 C 0.40805 0.81217 0.77867 0.0
C275 C 0.46585 0.84571 0.69879 0.0
C276 C 0.37478 0.81954 0.92128 0.0
C277 C 0.38366 0.81759 0.88834 0.0
C278 C 0.41304 0.84677 0.80848 0.0
C279 C 0.43488 0.8303 0.73145 0.0
C280 C 0.42268 0.82977 0.76393 0.0
C281 C 0.38649 0.82916 0.85585 0.0
C282 C 0.39846 0.82921 0.82336 0.0
H283 H 0.43044 0.81252 0.64058 0.0
H284 H 0.41115 0.80855 0.69785 0.0
H285 H 0.43601 0.86082 0.76789 0.0
H286 H 0.36535 0.85413 0.88868 0.0
H287 H 0.38091 0.8507 0.83099 0.0
C288 C 0.55848 0.3812 0.09261 0.0
C289 C 0.53872 0.37501 0.09182 0.0
C290 C 0.56989 0.38969 0.06014 0.0
C291 C 0.56848 0.397 0.95519 0.0
H292 H 0.61599 0.44476 0.97491 0.0
C293 C 0.61885 0.44099 0.83159 0.0
C294 C 0.62489 0.46072 0.83195 0.0
C295 C 0.6104 0.4297 0.86422 0.0
C296 C 0.60278 0.43145 0.96898 0.0
H297 H 0.51518 0.3719 0.05589 0.0
H298 H 0.53519 0.38691 -0.0009 0.0
H299 H 0.59632 0.42554 0.02904 0.0
H300 H 0.62784 0.48436 0.86732 0.0
H301 H 0.61289 0.46457 0.9244 0.0
H302 H 0.57456 0.40327 0.89513 0.0
C303 C 0.54183 0.38509 0.0248 0.0
C304 C 0.59161 0.42034 -7e-05 0.0
C305 C 0.53038 0.37657 0.05733 0.0
C306 C 0.62327 0.46918 0.86621 0.0
C307 C 0.61478 0.45785 0.89891 0.0
C308 C 0.57966 0.40809 0.92424 0.0
C309 C 0.56178 0.39215 0.02622 0.0
C310 C 0.57424 0.40312 -0.00667 0.0
C311 C 0.60783 0.43792 0.89788 0.0
C312 C 0.59681 0.42554 0.93083 0.0
H313 H 0.56527 0.38 0.1187 0.0
H314 H 0.58516 0.39467 0.06183 0.0
H315 H 0.55523 0.38373 0.94926 0.0
H316 H 0.6201 0.43411 0.80569 0.0
H317 H 0.60551 0.41444 0.86285 0.0
C318 C 0.17227 0.55674 0.25706 0.0
C319 C 0.15865 0.537 0.25883 0.0
C320 C 0.17361 0.56745 0.22433 0.0
C321 C 0.14399 0.56751 0.14424 0.0
H322 H 0.19246 0.60785 0.10309 0.0
C323 C 0.14652 0.62085 0.03059 0.0
C324 C 0.15823 0.62338 -0.00155 0.0
C325 C 0.14797 0.61176 0.0638 0.0
C326 C 0.17883 0.59661 0.11425 0.0
H327 H 0.13644 0.51276 0.22699 0.0
H328 H 0.13888 0.53151 0.16948 0.0
H329 H 0.19252 0.58765 0.15582 0.0
H330 H 0.18138 0.61944 0.97656 0.0
H331 H 0.18382 0.60354 0.03435 0.0
H332 H 0.13028 0.57621 0.10233 0.0
C333 C 0.1483 0.53872 0.19375 0.0
C334 C 0.17886 0.58513 0.14452 0.0
C335 C 0.147 0.52797 0.22651 0.0
C336 C 0.17209 0.6176 0.00085 0.0
C337 C 0.17357 0.60858 0.03402 0.0
C338 C 0.14396 0.57901 0.11407 0.0
C339 C 0.16134 0.55864 0.1927 0.0
C340 C 0.16143 0.57043 0.15974 0.0
C341 C 0.16122 0.60515 0.06546 0.0
C342 C 0.16137 0.59365 0.09874 0.0
H343 H 0.18151 0.56408 0.2815 0.0
H344 H 0.1837 0.58279 0.22446 0.0
H345 H 0.13033 0.55648 0.15577 0.0
H346 H 0.13578 0.62525 0.02962 0.0
H347 H 0.13848 0.60957 0.0879 0.0
C348 C 0.45787 0.29071 0.1703 0.0
C349 C 0.47362 0.29876 0.19584 0.0
C350 C 0.45112 0.27228 0.15504 0.0
C351 C 0.45578 0.24426 0.10286 0.0
H352 H 0.45483 0.20151 0.15702 0.0
C353 C 0.48294 0.19631 0.03971 0.0
C354 C 0.47446 0.177 0.05146 0.0
C355 C 0.47596 0.20801 0.0535 0.0
C356 C 0.45463 0.21311 0.14141 0.0
H357 H 0.49339 0.29313 0.22833 0.0
H358 H 0.48149 0.26096 0.20214 0.0
H359 H 0.45443 0.22726 0.19379 0.0
H360 H 0.45094 0.15438 0.08412 0.0
H361 H 0.43884 0.17492 0.10839 0.0
H362 H 0.45702 0.23061 0.05056 0.0
C363 C 0.4744 0.26887 0.19368 0.0
C364 C 0.45456 0.22792 0.16252 0.0
C365 C 0.48128 0.28735 0.2086 0.0
C366 C 0.45784 0.16922 0.07462 0.0
C367 C 0.45097 0.181 0.08874 0.0
C368 C 0.45602 0.22952 0.08177 0.0
C369 C 0.45983 0.26149 0.16547 0.0
C370 C 0.45579 0.24397 0.1435 0.0
C371 C 0.46044 0.20069 0.07954 0.0
C372 C 0.4561 0.21412 0.10088 0.0
H373 H 0.45163 0.29913 0.15995 0.0
H374 H 0.43972 0.26685 0.13369 0.0
H375 H 0.4569 0.2565 0.08735 0.0
H376 H 0.49573 0.2027 0.0218 0.0
H377 H 0.48364 0.22315 0.04602 0.0
C378 C 0.28801 0.45931 0.23802 0.0
C379 C 0.29682 0.47609 0.21531 0.0
C380 C 0.26933 0.45225 0.25208 0.0
C381 C 0.22579 0.45726 0.24617 0.0
H382 H 0.22667 0.45498 0.3581 0.0
C383 C 0.19382 0.48208 0.37472 0.0
C384 C 0.17469 0.47449 0.36246 0.0
C385 C 0.2053 0.47521 0.35915 0.0
C386 C 0.22608 0.4553 0.32685 0.0
H387 H 0.29227 0.49743 0.18625 0.0
H388 H 0.25968 0.48502 0.21042 0.0
H389 H 0.25271 0.45555 0.3207 0.0
H390 H 0.1521 0.45268 0.32666 0.0
H391 H 0.17227 0.4408 0.29919 0.0
H392 H 0.19974 0.45818 0.25248 0.0
C393 C 0.26719 0.47736 0.21759 0.0
C394 C 0.2409 0.45547 0.30537 0.0
C395 C 0.28592 0.48453 0.20383 0.0
C396 C 0.16681 0.45884 0.33667 0.0
C397 C 0.17837 0.45211 0.32072 0.0
C398 C 0.21088 0.45694 0.26764 0.0
C399 C 0.25904 0.46169 0.2433 0.0
C400 C 0.24129 0.4572 0.26489 0.0
C401 C 0.19792 0.46073 0.33075 0.0
C402 C 0.21127 0.45671 0.30827 0.0
H403 H 0.29601 0.45243 0.24728 0.0
H404 H 0.26331 0.43999 0.27144 0.0
H405 H 0.22565 0.45846 0.21501 0.0
H406 H 0.20028 0.49411 0.39461 0.0
H407 H 0.22034 0.48223 0.36731 0.0
C408 C 0.70794 0.17021 0.50593 0.0
C409 C 0.69966 0.17799 0.53067 0.0
C410 C 0.72644 0.18188 0.49106 0.0
C411 C 0.75492 0.21445 0.43902 0.0
H412 H 0.79715 0.25636 0.49415 0.0
C413 C 0.80353 0.28954 0.37626 0.0
C414 C 0.82259 0.3005 0.38938 0.0
C415 C 0.79175 0.27077 0.38962 0.0
C416 C 0.78571 0.24453 0.47828 0.0
H417 H 0.70491 0.20355 0.56208 0.0
H418 H 0.73724 0.2238 0.53663 0.0
H419 H 0.77103 0.23032 0.53033 0.0
H420 H 0.84482 0.29972 0.42374 0.0
H421 H 0.82418 0.26694 0.44712 0.0
H422 H 0.76911 0.2292 0.38698 0.0
C423 C 0.72944 0.20875 0.52849 0.0
C424 C 0.77068 0.2297 0.49905 0.0
C425 C 0.71088 0.19716 0.54299 0.0
C426 C 0.83015 0.29169 0.41323 0.0
C427 C 0.81832 0.27296 0.42685 0.0
C428 C 0.76989 0.22936 0.41823 0.0
C429 C 0.73709 0.20145 0.50112 0.0
C430 C 0.75482 0.21486 0.47965 0.0
C431 C 0.79877 0.26263 0.4165 0.0
C432 C 0.78511 0.24489 0.43767 0.0
H433 H 0.69965 0.15547 0.49591 0.0
H434 H 0.73207 0.17584 0.47032 0.0
H435 H 0.74283 0.20328 0.42323 0.0
H436 H 0.7973 0.29589 0.35777 0.0
H437 H 0.77673 0.26323 0.3812 0.0
C438 C 0.53628 0.83104 0.57936 0.0
C439 C 0.52014 0.82343 0.55483 0.0
C440 C 0.54304 0.81923 0.59378 0.0
C441 C 0.53862 0.78646 0.64542 0.0
H442 H 0.53868 0.74449 0.59003 0.0
C443 C 0.5124 0.71137 0.70836 0.0
C444 C 0.52089 0.70067 0.69589 0.0
C445 C 0.51906 0.73001 0.69451 0.0
C446 C 0.53912 0.75633 0.60595 0.0
H447 H 0.49967 0.79805 0.52315 0.0
H448 H 0.51162 0.77755 0.54782 0.0
H449 H 0.53869 0.77064 0.55399 0.0
H450 H 0.54408 0.70171 0.66178 0.0
H451 H 0.5556 0.73423 0.63742 0.0
H452 H 0.53801 0.77161 0.69736 0.0
C453 C 0.51898 0.79258 0.55616 0.0
C454 C 0.53897 0.77122 0.58527 0.0
C455 C 0.51208 0.80431 0.5421 0.0
C456 C 0.53719 0.70956 0.67186 0.0
C457 C 0.54372 0.72814 0.65769 0.0
C458 C 0.53859 0.77148 0.6661 0.0
C459 C 0.53397 0.79969 0.58348 0.0
C460 C 0.5381 0.78611 0.60479 0.0
C461 C 0.53424 0.73824 0.6677 0.0
C462 C 0.53822 0.75595 0.64655 0.0
H463 H 0.54283 0.84574 0.58967 0.0
H464 H 0.55475 0.82513 0.61444 0.0
H465 H 0.53779 0.79765 0.66131 0.0
H466 H 0.49985 0.70493 0.72692 0.0
H467 H 0.51138 0.73738 0.70263 0.0
C468 C 0.70924 0.54044 0.75063 0.0
C469 C 0.7008 0.52453 0.72552 0.0
C470 C 0.72774 0.54704 0.76535 0.0
C471 C 0.77153 0.5426 0.75689 0.0
H472 H 0.76991 0.54136 0.86895 0.0
C473 C 0.8032 0.51439 0.88008 0.0
C474 C 0.82224 0.52211 0.86711 0.0
C475 C 0.79175 0.52171 0.86644 0.0
C476 C 0.7707 0.542 0.8377 0.0
H477 H 0.70579 0.50428 0.69323 0.0
H478 H 0.73805 0.51587 0.7185 0.0
H479 H 0.74397 0.54169 0.83276 0.0
H480 H 0.84476 0.54472 0.83254 0.0
H481 H 0.82469 0.55743 0.80867 0.0
H482 H 0.79763 0.54172 0.76176 0.0
C483 C 0.73041 0.52323 0.72703 0.0
C484 C 0.75594 0.54236 0.81693 0.0
C485 C 0.71187 0.51652 0.71263 0.0
C486 C 0.8301 0.53838 0.84295 0.0
C487 C 0.81859 0.5456 0.82906 0.0
C488 C 0.78635 0.54238 0.77765 0.0
C489 C 0.73821 0.53799 0.75483 0.0
C490 C 0.75583 0.54191 0.77629 0.0
C491 C 0.79908 0.53682 0.8394 0.0
C492 C 0.78571 0.54133 0.81825 0.0
H493 H 0.70109 0.54696 0.76106 0.0
H494 H 0.73349 0.55859 0.78638 0.0
H495 H 0.77189 0.5424 0.72561 0.0
H496 H 0.79674 0.50189 0.89878 0.0
H497 H 0.77674 0.51454 0.87484 0.0
C498 C 0.16486 0.70816 0.91569 0.0
C499 C 0.17292 0.70029 0.89061 0.0
C500 C 0.17626 0.72663 0.931 0.0
C501 C 0.20856 0.75489 0.98382 0.0
H502 H 0.25044 0.7978 0.93021 0.0
C503 C 0.28353 0.80259 0.0475 0.0
C504 C 0.2945 0.82185 0.03559 0.0
C505 C 0.26479 0.79101 0.03381 0.0
C506 C 0.23861 0.78617 0.94567 0.0
H507 H 0.19862 0.70624 0.85896 0.0
H508 H 0.21838 0.73849 0.88519 0.0
H509 H 0.22448 0.77204 0.89311 0.0
H510 H 0.29382 0.84458 0.00292 0.0
H511 H 0.26109 0.82428 0.97885 0.0
H512 H 0.22324 0.7685 0.03632 0.0
C513 C 0.20334 0.73041 0.89327 0.0
C514 C 0.22383 0.77134 0.92437 0.0
C515 C 0.19203 0.71189 0.87832 0.0
C516 C 0.28576 0.82976 0.01251 0.0
C517 C 0.26706 0.81813 -0.00149 0.0
C518 C 0.22342 0.76964 0.00512 0.0
C519 C 0.19581 0.73764 0.92106 0.0
C520 C 0.20902 0.75522 0.94318 0.0
C521 C 0.2567 0.79844 0.00774 0.0
C522 C 0.23895 0.78509 0.98622 0.0
H523 H 0.15016 0.69958 0.92568 0.0
H524 H 0.17004 0.73194 0.95206 0.0
H525 H 0.19741 0.74258 -0.00083 0.0
H526 H 0.28984 0.7961 0.06537 0.0
H527 H 0.25723 0.77588 0.04132 0.0
C528 C 0.59332 0.16935 0.64744 0.0
C529 C 0.6071 0.16363 0.64186 0.0
C530 C 0.58834 0.17201 0.68451 0.0
C531 C 0.60223 0.1777 0.78739 0.0
H532 H 0.54703 0.15187 0.80387 0.0
C533 C 0.56799 0.15677 0.93807 0.0
C534 C 0.55133 0.15782 0.94596 0.0
C535 C 0.57585 0.16038 0.90108 0.0
C536 C 0.56247 0.15949 0.79968 0.0
H537 H 0.62728 0.15731 0.67071 0.0
H538 H 0.61835 0.16176 0.736 0.0
H539 H 0.55952 0.15327 0.73926 0.0
H540 H 0.53016 0.16397 0.92118 0.0
H541 H 0.54405 0.17043 0.85625 0.0
H542 H 0.60512 0.18363 0.84809 0.0
C543 C 0.61152 0.16429 0.71147 0.0
C544 C 0.56965 0.16026 0.76264 0.0
C545 C 0.6166 0.16169 0.67415 0.0
C546 C 0.54293 0.16293 0.91602 0.0
C547 C 0.55085 0.16658 0.87884 0.0
C548 C 0.59504 0.17698 0.82451 0.0
C549 C 0.59693 0.16894 0.71696 0.0
C550 C 0.5896 0.16919 0.75614 0.0
C551 C 0.56732 0.16518 0.87094 0.0
C552 C 0.57506 0.16763 0.83113 0.0
H553 H 0.58596 0.1713 0.62312 0.0
H554 H 0.57739 0.17604 0.68778 0.0
H555 H 0.61766 0.18488 0.78315 0.0
H556 H 0.57488 0.15287 0.96038 0.0
H557 H 0.58833 0.15885 0.8959 0.0
C558 C 0.45077 0.61744 0.83101 0.0
C559 C 0.44807 0.60295 0.80474 0.0
C560 C 0.44274 0.61259 0.86809 0.0
C561 C 0.40639 0.57054 0.92554 0.0
H562 H 0.43571 0.60149 0.0129 0.0
C563 C 0.41422 0.56224 0.09909 0.0
C564 C 0.39482 0.55103 0.10993 0.0
C565 C 0.41919 0.56991 0.06204 0.0
C566 C 0.42738 0.59258 0.98885 0.0
H567 H 0.4354 0.57211 0.79702 0.0
H568 H 0.42226 0.56376 0.86159 0.0
H569 H 0.44761 0.61215 0.94789 0.0
H570 H 0.36536 0.53917 0.09052 0.0
H571 H 0.37403 0.55309 0.02572 0.0
H572 H 0.38687 0.55029 0.96653 0.0
C573 C 0.42981 0.57881 0.85345 0.0
C574 C 0.43407 0.59889 0.95143 0.0
C575 C 0.43754 0.58362 0.81643 0.0
C576 C 0.38043 0.54766 0.08285 0.0
C577 C 0.38543 0.55561 0.04573 0.0
C578 C 0.39987 0.56407 0.96296 0.0
C579 C 0.4321 0.59317 0.87971 0.0
C580 C 0.4239 0.5877 0.91931 0.0
C581 C 0.4049 0.56685 0.03489 0.0
C582 C 0.41053 0.57478 -0.00487 0.0
H583 H 0.45873 0.63246 0.82266 0.0
H584 H 0.44468 0.62403 0.88743 0.0
H585 H 0.39788 0.56178 0.90148 0.0
H586 H 0.42567 0.56493 0.11915 0.0
H587 H 0.43431 0.57796 0.05456 0.0
C588 C 0.8437 0.43037 0.98574 0.0
C589 C 0.8445 0.4479 0.97712 0.0
C590 C 0.84214 0.42413 0.0238 0.0
C591 C 0.85277 0.44222 0.12285 0.0
H592 H 0.8206 0.38834 0.14987 0.0
C593 C 0.84521 0.41612 0.27954 0.0
C594 C 0.84589 0.39918 0.28633 0.0
C595 C 0.8436 0.42154 0.24213 0.0
C596 C 0.82978 0.40339 0.14266 0.0
H597 H 0.84392 0.47244 0.00184 0.0
H598 H 0.84119 0.46147 0.06876 0.0
H599 H 0.81979 0.39901 0.08416 0.0
H600 H 0.84504 0.37444 0.259 0.0
H601 H 0.84246 0.38408 0.1932 0.0
H602 H 0.863 0.4466 0.18106 0.0
C603 C 0.84191 0.45267 0.0458 0.0
C604 C 0.82927 0.40952 0.10512 0.0
C605 C 0.84339 0.45891 0.00753 0.0
C606 C 0.84456 0.38757 0.25474 0.0
C607 C 0.84299 0.39305 0.21711 0.0
C608 C 0.8533 0.4361 0.16034 0.0
C609 C 0.84138 0.43526 0.05429 0.0
C610 C 0.84087 0.42897 0.09476 0.0
C611 C 0.84269 0.4102 0.21044 0.0
C612 C 0.84188 0.41661 0.17062 0.0
H613 H 0.84447 0.42147 0.96308 0.0
H614 H 0.84204 0.4108 0.0294 0.0
H615 H 0.86212 0.45724 0.11558 0.0
H616 H 0.84599 0.42534 0.30318 0.0
H617 H 0.84303 0.43463 0.23805 0.0
C618 C 0.42423 0.83796 0.44073 0.0
C619 C 0.44311 0.84167 0.44682 0.0
C620 C 0.41678 0.83562 0.40354 0.0
C621 C 0.42331 0.82599 0.30223 0.0
H622 H 0.39697 0.85445 0.28077 0.0
C623 C 0.40859 0.84218 0.1481 0.0
C624 C 0.39127 0.84199 0.14051 0.0
C625 C 0.41337 0.83978 0.18557 0.0
C626 C 0.40397 0.84614 0.2864 0.0
H627 H 0.46872 0.845 0.41862 0.0
H628 H 0.4557 0.84109 0.35307 0.0
H629 H 0.40866 0.85466 0.34569 0.0
H630 H 0.36512 0.83858 0.16636 0.0
H631 H 0.37347 0.83425 0.23213 0.0
H632 H 0.41879 0.81768 0.24265 0.0
C633 C 0.44666 0.8399 0.37737 0.0
C634 C 0.41073 0.84629 0.3236 0.0
C635 C 0.45414 0.8422 0.41483 0.0
C636 C 0.37861 0.83889 0.17125 0.0
C637 C 0.38343 0.83649 0.20891 0.0
C638 C 0.41651 0.8258 0.26495 0.0
C639 C 0.42803 0.83698 0.37139 0.0
C640 C 0.42056 0.83631 0.33189 0.0
C641 C 0.40096 0.83711 0.21648 0.0
C642 C 0.4069 0.83601 0.25658 0.0
H643 H 0.41519 0.83715 0.46474 0.0
H644 H 0.40224 0.83296 0.39993 0.0
H645 H 0.43062 0.81798 0.30788 0.0
H646 H 0.4187 0.8445 0.12515 0.0
H647 H 0.4271 0.84061 0.19044 0.0
C648 C 0.61226 0.46095 0.58053 0.0
C649 C 0.60785 0.44876 0.61255 0.0
C650 C 0.60659 0.45316 0.54345 0.0
C651 C 0.57145 0.40719 0.4956 0.0
H652 H 0.59893 0.43445 0.40351 0.0
C653 C 0.53728 0.38659 0.34349 0.0
C654 C 0.54952 0.39065 0.31168 0.0
C655 C 0.54499 0.39211 0.38067 0.0
C656 C 0.59119 0.42639 0.42885 0.0
H657 H 0.5954 0.41912 0.63111 0.0
H658 H 0.58657 0.40557 0.56653 0.0
H659 H 0.61264 0.44718 0.46641 0.0
H660 H 0.57911 0.40225 0.29358 0.0
H661 H 0.59249 0.41077 0.35834 0.0
H662 H 0.55041 0.38596 0.45804 0.0
C663 C 0.59351 0.42104 0.5698 0.0
C664 C 0.59893 0.43394 0.46509 0.0
C665 C 0.59875 0.4288 0.6068 0.0
C666 C 0.56941 0.39918 0.31774 0.0
C667 C 0.57707 0.40426 0.35484 0.0
C668 C 0.56388 0.39945 0.45936 0.0
C669 C 0.59676 0.43305 0.53773 0.0
C670 C 0.58908 0.42456 0.49899 0.0
C671 C 0.56506 0.40141 0.38669 0.0
C672 C 0.57354 0.40904 0.42545 0.0
H673 H 0.61914 0.4764 0.58437 0.0
H674 H 0.60919 0.4629 0.51963 0.0
H675 H 0.5632 0.39967 0.52093 0.0
H676 H 0.52189 0.38015 0.3394 0.0
H677 H 0.53525 0.38983 0.40431 0.0
C678 C 0.17497 0.57203 0.48476 0.0
C679 C 0.16318 0.55212 0.47946 0.0
C680 C 0.17834 0.58 0.52169 0.0
C681 C 0.17083 0.56761 0.62678 0.0
H682 H 0.17149 0.61621 0.6329 0.0
C683 C 0.17369 0.6016 0.77394 0.0
C684 C 0.16223 0.61012 0.77862 0.0
C685 C 0.17721 0.5969 0.73723 0.0
C686 C 0.17116 0.60256 0.63183 0.0
H687 H 0.14618 0.52478 0.50831 0.0
H688 H 0.15123 0.53868 0.57291 0.0
H689 H 0.17082 0.60243 0.57025 0.0
H690 H 0.14597 0.62105 0.74885 0.0
H691 H 0.15128 0.61205 0.68462 0.0
H692 H 0.16967 0.56701 0.68832 0.0
C693 C 0.15843 0.54819 0.54881 0.0
C694 C 0.17114 0.59478 0.59574 0.0
C695 C 0.15546 0.54017 0.51181 0.0
C696 C 0.15497 0.61461 0.74587 0.0
C697 C 0.1581 0.60949 0.70908 0.0
C698 C 0.17049 0.57522 0.66286 0.0
C699 C 0.16953 0.56829 0.55411 0.0
C700 C 0.17083 0.57712 0.59268 0.0
C701 C 0.16891 0.60015 0.70438 0.0
C702 C 0.17051 0.59273 0.6659 0.0
H703 H 0.18126 0.58151 0.46017 0.0
H704 H 0.18746 0.59543 0.52463 0.0
H705 H 0.17088 0.55415 0.62571 0.0
H706 H 0.17965 0.59821 0.79884 0.0
H707 H 0.1861 0.59032 0.73478 0.0
C708 C 0.48801 0.06844 0.07846 0.0
C709 C 0.48333 0.08069 0.05806 0.0
C710 C 0.47665 0.04851 0.07502 0.0
C711 C 0.45914 0.00872 0.04163 0.0
H712 H 0.40344 0.98179 0.03506 0.0
C713 C 0.4169 0.92882 0.00194 0.0
C714 C 0.40019 0.917 0.02332 0.0
C715 C 0.42576 0.94881 0.00448 0.0
C716 C 0.41898 0.9891 0.03709 0.0
H717 H 0.46268 0.08156 0.01888 0.0
H718 H 0.443 0.04663 0.01222 0.0
H719 H 0.42119 0.01663 0.04512 0.0
H720 H 0.37931 0.91692 0.06323 0.0
H721 H 0.39509 0.95194 0.06837 0.0
H722 H 0.45706 0.98132 0.0348 0.0
C723 C 0.45535 0.0525 0.0313 0.0
C724 C 0.42916 0.00908 0.04245 0.0
C725 C 0.46667 0.07251 0.03497 0.0
C726 C 0.39218 0.92564 0.04639 0.0
C727 C 0.40117 0.94571 0.04919 0.0
C728 C 0.44901 0.98883 0.03644 0.0
C729 C 0.46041 0.04029 0.05081 0.0
C730 C 0.44936 0.0191 0.04492 0.0
C731 C 0.41826 0.95751 0.02876 0.0
C732 C 0.42882 0.97875 0.03401 0.0
H733 H 0.50059 0.07424 0.09692 0.0
H734 H 0.48071 0.03953 0.09119 0.0
H735 H 0.4747 0.01598 0.04278 0.0
H736 H 0.4233 0.92265 0.98345 0.0
H737 H 0.43864 0.95746 0.98763 0.0
C738 C 0.49152 0.42352 0.18196 0.0
C739 C 0.48558 0.40549 0.19889 0.0
C740 C 0.48024 0.43219 0.18526 0.0
C741 C 0.46107 0.45302 0.21829 0.0
H742 H 0.40533 0.42419 0.21378 0.0
C743 C 0.41718 0.48922 0.25511 0.0
C744 C 0.40153 0.48525 0.23103 0.0
C745 C 0.42606 0.47811 0.25298 0.0
C746 C 0.42089 0.43245 0.21486 0.0
H747 H 0.46291 0.38224 0.23198 0.0
H748 H 0.4434 0.39762 0.23851 0.0
H749 H 0.42351 0.40755 0.20425 0.0
H750 H 0.38247 0.46606 0.18672 0.0
H751 H 0.39833 0.44689 0.18228 0.0
H752 H 0.45863 0.47799 0.22757 0.0
C753 C 0.45665 0.40491 0.22214 0.0
C754 C 0.43131 0.42289 0.20982 0.0
C755 C 0.46789 0.39614 0.21857 0.0
C756 C 0.3945 0.46947 0.20569 0.0
C757 C 0.40354 0.45843 0.20327 0.0
C758 C 0.45071 0.46256 0.2231 0.0
C759 C 0.46282 0.42316 0.2059 0.0
C760 C 0.45154 0.43309 0.21137 0.0
C761 C 0.41968 0.46288 0.22637 0.0
C762 C 0.43049 0.45242 0.22156 0.0
H763 H 0.50495 0.43102 0.1662 0.0
H764 H 0.48523 0.44605 0.17164 0.0
H765 H 0.47662 0.4613 0.22027 0.0
H766 H 0.42277 0.50111 0.27536 0.0
H767 H 0.43813 0.48164 0.27193 0.0
C768 C 0.07224 0.47065 0.39918 0.0
C769 C 0.08039 0.48807 0.37857 0.0
C770 C 0.05232 0.45983 0.40486 0.0
C771 C 0.00882 0.43482 0.39543 0.0
H772 H 0.98147 0.4626 0.4126 0.0
C773 C 0.92576 0.39842 0.38861 0.0
C774 C 0.91667 0.40556 0.41273 0.0
C775 C 0.94585 0.40743 0.38737 0.0
C776 C 0.98886 0.45454 0.40841 0.0
H777 H 0.07394 0.50748 0.34675 0.0
H778 H 0.03936 0.48847 0.35576 0.0
H779 H 0.01616 0.48031 0.4053 0.0
H780 H 0.92146 0.42704 0.45609 0.0
H781 H 0.95636 0.44234 0.45484 0.0
H782 H 0.98145 0.40899 0.39961 0.0
C783 C 0.04832 0.48337 0.36853 0.0
C784 C 0.00878 0.46475 0.40357 0.0
C785 C 0.06818 0.49424 0.36315 0.0
C786 C 0.92803 0.42135 0.43679 0.0
C787 C 0.94807 0.4302 0.4359 0.0
C788 C 0.98884 0.42456 0.40057 0.0
C789 C 0.04014 0.46615 0.38983 0.0
C790 C 0.019 0.45506 0.39656 0.0
C791 C 0.95726 0.42364 0.41053 0.0
C792 C 0.9786 0.43432 0.40684 0.0
H793 H 0.08126 0.46552 0.41151 0.0
H794 H 0.04653 0.44673 0.42171 0.0
H795 H 0.01621 0.42688 0.38982 0.0
H796 H 0.9174 0.3863 0.36965 0.0
H797 H 0.9524 0.4021 0.3672 0.0
C798 C 0.529 0.92739 0.55496 0.0
C799 C 0.50909 0.91884 0.56149 0.0
C800 C 0.54071 0.94745 0.55473 0.0
C801 C 0.54094 0.99199 0.58572 0.0
H802 H 0.58144 0.01699 0.50942 0.0
C803 C 0.57234 0.07102 0.54227 0.0
C804 C 0.59248 0.0826 0.54056 0.0
C805 C 0.56376 0.05117 0.54739 0.0
C806 C 0.57033 0.01017 0.53118 0.0
H807 H 0.48585 0.92469 0.57215 0.0
H808 H 0.50603 0.95941 0.57071 0.0
H809 H 0.56334 0.98184 0.51329 0.0
H810 H 0.6194 0.0824 0.54248 0.0
H811 H 0.60422 0.04743 0.5507 0.0
H812 H 0.54745 0.02029 0.60252 0.0
C813 C 0.51278 0.95074 0.56687 0.0
C814 C 0.55999 0.99005 0.53349 0.0
C815 C 0.50115 0.93076 0.56741 0.0
C816 C 0.60385 0.07385 0.54381 0.0
C817 C 0.5952 0.05388 0.54834 0.0
C818 C 0.55111 0.01202 0.5831 0.0
C819 C 0.53273 0.95937 0.5608 0.0
C820 C 0.54492 0.98072 0.56033 0.0
C821 C 0.57508 0.0424 0.55042 0.0
C822 C 0.56566 0.02128 0.55539 0.0
H823 H 0.53558 0.9186 0.55043 0.0
H824 H 0.55603 0.95361 0.55029 0.0
H825 H 0.52979 0.98533 0.60743 0.0
H826 H 0.56316 0.07729 0.53996 0.0
H827 H 0.5482 0.04262 0.54848 0.0
C828 C 0.5765 0.5081 0.74063 0.0
C829 C 0.59447 0.51382 0.72366 0.0
C830 C 0.56783 0.51935 0.73654 0.0
C831 C 0.54691 0.53797 0.7015 0.0
H832 H 0.5755 0.59377 0.7034 0.0
C833 C 0.51033 0.58099 0.66058 0.0
C834 C 0.51407 0.59679 0.68403 0.0
C835 C 0.52161 0.57233 0.66351 0.0
C836 C 0.5673 0.57819 0.70302 0.0
H837 H 0.61765 0.53612 0.68979 0.0
H838 H 0.60229 0.55558 0.68191 0.0
H839 H 0.59227 0.57583 0.71473 0.0
H840 H 0.53308 0.61636 0.72792 0.0
H841 H 0.55258 0.6009 0.73375 0.0
H842 H 0.52188 0.54016 0.69108 0.0
C843 C 0.59503 0.54252 0.69889 0.0
C844 C 0.57694 0.56792 0.70911 0.0
C845 C 0.6038 0.53131 0.70324 0.0
C846 C 0.52985 0.60421 0.70944 0.0
C847 C 0.54106 0.59539 0.71266 0.0
C848 C 0.5373 0.54819 0.69561 0.0
C849 C 0.57682 0.53652 0.71507 0.0
C850 C 0.56682 0.54767 0.70853 0.0
C851 C 0.5368 0.57908 0.69029 0.0
C852 C 0.54735 0.56843 0.69619 0.0
H853 H 0.56902 0.49484 0.75695 0.0
H854 H 0.554 0.51452 0.75013 0.0
H855 H 0.53868 0.5224 0.70023 0.0
H856 H 0.49845 0.57509 0.64029 0.0
H857 H 0.51823 0.56011 0.64511 0.0
C858 C 0.07112 0.60064 0.8578 0.0
C859 C 0.07945 0.59182 0.87934 0.0
C860 C 0.05117 0.59136 0.85247 0.0
C861 C 0.00774 0.57293 0.86252 0.0
H862 H 0.98039 0.51749 0.84968 0.0
C863 C 0.92473 0.52637 0.87102 0.0
C864 C 0.91554 0.50969 0.84809 0.0
C865 C 0.94482 0.53744 0.87197 0.0
C866 C 0.98777 0.533 0.85265 0.0
H867 H 0.0733 0.5666 0.91315 0.0
H868 H 0.03866 0.55072 0.90476 0.0
H869 H 0.01512 0.53467 0.85628 0.0
H870 H 0.92016 0.49216 0.80655 0.0
H871 H 0.95507 0.51175 0.80725 0.0
H872 H 0.98033 0.57124 0.85776 0.0
C873 C 0.0475 0.56454 0.89099 0.0
C874 C 0.00772 0.54285 0.8571 0.0
C875 C 0.06739 0.57371 0.89602 0.0
C876 C 0.92681 0.50478 0.82493 0.0
C877 C 0.94685 0.51596 0.82551 0.0
C878 C 0.98774 0.56307 0.85775 0.0
C879 C 0.03913 0.57313 0.8688 0.0
C880 C 0.01795 0.5629 0.86254 0.0
C881 C 0.95614 0.53219 0.84968 0.0
C882 C 0.97749 0.54296 0.85304 0.0
H883 H 0.08003 0.61457 0.84449 0.0
H884 H 0.04524 0.59831 0.8349 0.0
H885 H 0.01513 0.58836 0.86692 0.0
H886 H 0.91644 0.53051 0.88928 0.0
H887 H 0.95145 0.54971 0.89123 0.0
loop_
_geom_bond_atom_site_label_1
_geom_bond_atom_site_label_2
_geom_bond_distance
_geom_bond_site_symmetry_2
_ccdc_geom_bond_type
C0 O1 1.306 1_556 S
C0 O3 1.160 1_556 S
O1 C0 1.306 1_554 S
O1 Cd2 2.228 . S
Cd2 O1 2.228 . S
Cd2 O6 2.273 . S
Cd2 O10 2.277 . S
O3 C0 1.160 1_554 S
O3 Cd4 2.203 . S
Cd4 O3 2.203 . S
Cd4 O6 2.411 . S
Cd4 O7 2.333 . S
Cd4 O8 2.352 . S
Cd4 O12 2.277 . S
Cd4 O13 2.356 . S
C5 O10 1.209 . S
C5 O12 1.226 . S
O6 Cd2 2.273 . S
O6 Cd4 2.411 . S
O6 C9 1.320 . S
O7 Cd4 2.333 . S
O7 C9 1.214 . S
O8 Cd4 2.352 . S
O8 C11 1.258 . S
C9 O6 1.320 . S
C9 O7 1.214 . S
O10 Cd2 2.277 . S
O10 C5 1.209 . S
C11 O8 1.258 . S
C11 O13 1.282 . S
O12 Cd4 2.277 . S
O12 C5 1.226 . S
O13 Cd4 2.356 . S
O13 C11 1.282 . S
C14 O15 1.306 . S
C14 O17 1.160 . S
O15 C14 1.306 . S
O15 Cd16 2.228 . S
Cd16 O15 2.228 . S
Cd16 O20 2.273 . S
Cd16 O24 2.277 . S
O17 C14 1.160 . S
O17 Cd18 2.203 . S
Cd18 O17 2.203 . S
Cd18 O20 2.411 . S
Cd18 O21 2.333 . S
Cd18 O22 2.352 . S
Cd18 O26 2.277 . S
Cd18 O27 2.356 . S
C19 O24 1.209 . S
C19 O26 1.226 . S
O20 Cd16 2.273 . S
O20 Cd18 2.411 . S
O20 C23 1.320 . S
O21 Cd18 2.333 . S
O21 C23 1.214 . S
O22 Cd18 2.352 . S
O22 C25 1.258 . S
C23 O20 1.320 . S
C23 O21 1.214 . S
O24 Cd16 2.277 . S
O24 C19 1.209 . S
C25 O22 1.258 . S
C25 O27 1.282 . S
O26 Cd18 2.277 . S
O26 C19 1.226 . S
O27 Cd18 2.356 . S
O27 C25 1.282 . S
C28 O29 1.306 . S
C28 O31 1.160 . S
O29 C28 1.306 . S
O29 Cd30 2.228 . S
Cd30 O29 2.228 . S
Cd30 O34 2.273 . S
Cd30 O38 2.277 . S
O31 C28 1.160 . S
O31 Cd32 2.203 . S
Cd32 O31 2.203 . S
Cd32 O34 2.411 . S
Cd32 O35 2.333 . S
Cd32 O36 2.352 . S
Cd32 O40 2.277 . S
Cd32 O41 2.356 . S
C33 O38 1.209 . S
C33 O40 1.226 . S
O34 Cd30 2.273 . S
O34 Cd32 2.411 . S
O34 C37 1.320 . S
O35 Cd32 2.333 . S
O35 C37 1.214 . S
O36 Cd32 2.352 . S
O36 C39 1.258 . S
C37 O34 1.320 . S
C37 O35 1.214 . S
O38 Cd30 2.277 . S
O38 C33 1.209 . S
C39 O36 1.258 . S
C39 O41 1.282 . S
O40 Cd32 2.277 . S
O40 C33 1.226 . S
O41 Cd32 2.356 . S
O41 C39 1.282 . S
C42 O43 1.306 . S
C42 O45 1.160 . S
O43 C42 1.306 . S
O43 Cd44 2.228 . S
Cd44 O43 2.228 . S
Cd44 O48 2.273 . S
Cd44 O52 2.277 . S
O45 C42 1.160 . S
O45 Cd46 2.203 . S
Cd46 O45 2.203 . S
Cd46 O48 2.411 . S
Cd46 O49 2.333 . S
Cd46 O50 2.352 . S
Cd46 O54 2.277 . S
Cd46 O55 2.356 . S
C47 O52 1.209 . S
C47 O54 1.226 . S
O48 Cd44 2.273 . S
O48 Cd46 2.411 . S
O48 C51 1.320 . S
O49 Cd46 2.333 . S
O49 C51 1.214 . S
O50 Cd46 2.352 . S
O50 C53 1.258 . S
C51 O48 1.320 . S
C51 O49 1.214 . S
O52 Cd44 2.277 . S
O52 C47 1.209 . S
C53 O50 1.258 . S
C53 O55 1.282 . S
O54 Cd46 2.277 . S
O54 C47 1.226 . S
O55 Cd46 2.356 . S
O55 C53 1.282 . S
C56 O57 1.306 . S
C56 O59 1.160 . S
O57 C56 1.306 . S
O57 Cd58 2.228 . S
Cd58 O57 2.228 . S
Cd58 O62 2.273 . S
Cd58 O66 2.277 . S
O59 C56 1.160 . S
O59 Cd60 2.203 . S
Cd60 O59 2.203 . S
Cd60 O62 2.411 . S
Cd60 O63 2.333 . S
Cd60 O64 2.352 . S
Cd60 O68 2.277 . S
Cd60 O69 2.356 . S
C61 O66 1.209 . S
C61 O68 1.226 . S
O62 Cd58 2.273 . S
O62 Cd60 2.411 . S
O62 C65 1.320 . S
O63 Cd60 2.333 . S
O63 C65 1.214 . S
O64 Cd60 2.352 . S
O64 C67 1.258 . S
C65 O62 1.320 . S
C65 O63 1.214 . S
O66 Cd58 2.277 . S
O66 C61 1.209 . S
C67 O64 1.258 . S
C67 O69 1.282 . S
O68 Cd60 2.277 . S
O68 C61 1.226 . S
O69 Cd60 2.356 . S
O69 C67 1.282 . S
C70 O71 1.306 . S
C70 O73 1.160 . S
O71 C70 1.306 . S
O71 Cd72 2.228 . S
Cd72 O71 2.228 . S
Cd72 O76 2.273 . S
Cd72 O80 2.277 . S
O73 C70 1.160 . S
O73 Cd74 2.203 . S
Cd74 O73 2.203 . S
Cd74 O76 2.411 . S
Cd74 O77 2.333 . S
Cd74 O78 2.352 . S
Cd74 O82 2.277 . S
Cd74 O83 2.356 . S
C75 O80 1.209 . S
C75 O82 1.226 . S
O76 Cd72 2.273 . S
O76 Cd74 2.411 . S
O76 C79 1.320 . S
O77 Cd74 2.333 . S
O77 C79 1.214 . S
O78 Cd74 2.352 . S
O78 C81 1.258 . S
C79 O76 1.320 . S
C79 O77 1.214 . S
O80 Cd72 2.277 . S
O80 C75 1.209 . S
C81 O78 1.258 . S
C81 O83 1.282 . S
O82 Cd74 2.277 . S
O82 C75 1.226 . S
O83 Cd74 2.356 . S
O83 C81 1.282 . S
C84 O85 1.306 . S
C84 O87 1.160 . S
O85 C84 1.306 . S
O85 Cd86 2.228 . S
Cd86 O85 2.228 . S
Cd86 O90 2.273 . S
Cd86 O94 2.277 . S
O87 C84 1.160 . S
O87 Cd88 2.203 . S
Cd88 O87 2.203 . S
Cd88 O90 2.411 . S
Cd88 O91 2.333 . S
Cd88 O92 2.352 . S
Cd88 O96 2.277 . S
Cd88 O97 2.356 . S
C89 O94 1.209 . S
C89 O96 1.226 . S
O90 Cd86 2.273 . S
O90 Cd88 2.411 . S
O90 C93 1.320 . S
O91 Cd88 2.333 . S
O91 C93 1.214 . S
O92 Cd88 2.352 . S
O92 C95 1.258 . S
C93 O90 1.320 . S
C93 O91 1.214 . S
O94 Cd86 2.277 . S
O94 C89 1.209 . S
C95 O92 1.258 . S
C95 O97 1.282 . S
O96 Cd88 2.277 . S
O96 C89 1.226 . S
O97 Cd88 2.356 . S
O97 C95 1.282 . S
C98 O99 1.306 . S
C98 O101 1.160 . S
O99 C98 1.306 . S
O99 Cd100 2.228 . S
Cd100 O99 2.228 . S
Cd100 O104 2.273 . S
Cd100 O108 2.277 . S
O101 C98 1.160 . S
O101 Cd102 2.203 . S
Cd102 O101 2.203 . S
Cd102 O104 2.411 . S
Cd102 O105 2.333 1_554 S
Cd102 O106 2.352 . S
Cd102 O110 2.277 . S
Cd102 O111 2.356 . S
C103 O108 1.209 . S
C103 O110 1.226 . S
O104 Cd100 2.273 . S
O104 Cd102 2.411 . S
O104 C107 1.320 1_554 S
O105 Cd102 2.333 1_556 S
O105 C107 1.214 . S
O106 Cd102 2.352 . S
O106 C109 1.258 . S
C107 O104 1.320 1_556 S
C107 O105 1.214 . S
O108 Cd100 2.277 . S
O108 C103 1.209 . S
C109 O106 1.258 . S
C109 O111 1.282 . S
O110 Cd102 2.277 . S
O110 C103 1.226 . S
O111 Cd102 2.356 . S
O111 C109 1.282 . S
C112 O113 1.306 . S
C112 O115 1.160 . S
O113 C112 1.306 . S
O113 Cd114 2.228 . S
Cd114 O113 2.228 . S
Cd114 O118 2.273 . S
Cd114 O122 2.277 . S
O115 C112 1.160 . S
O115 Cd116 2.203 . S
Cd116 O115 2.203 . S
Cd116 O118 2.411 . S
Cd116 O119 2.333 . S
Cd116 O120 2.352 . S
Cd116 O124 2.277 . S
Cd116 O125 2.356 . S
C117 O122 1.209 . S
C117 O124 1.226 . S
O118 Cd114 2.273 . S
O118 Cd116 2.411 . S
O118 C121 1.320 . S
O119 Cd116 2.333 . S
O119 C121 1.214 . S
O120 Cd116 2.352 . S
O120 C123 1.258 . S
C121 O118 1.320 . S
C121 O119 1.214 . S
O122 Cd114 2.277 . S
O122 C117 1.209 . S
C123 O120 1.258 . S
C123 O125 1.282 . S
O124 Cd116 2.277 . S
O124 C117 1.226 . S
O125 Cd116 2.356 . S
O125 C123 1.282 . S
C126 O127 1.306 . S
C126 O129 1.160 . S
O127 C126 1.306 . S
O127 Cd128 2.228 . S
Cd128 O127 2.228 . S
Cd128 O132 2.273 . S
Cd128 O136 2.277 . S
O129 C126 1.160 . S
O129 Cd130 2.203 . S
Cd130 O129 2.203 . S
Cd130 O132 2.411 . S
Cd130 O133 2.333 . S
Cd130 O134 2.352 . S
Cd130 O138 2.277 . S
Cd130 O139 2.356 . S
C131 O136 1.209 . S
C131 O138 1.226 . S
O132 Cd128 2.273 . S
O132 Cd130 2.411 . S
O132 C135 1.320 . S
O133 Cd130 2.333 . S
O133 C135 1.214 . S
O134 Cd130 2.352 . S
O134 C137 1.258 . S
C135 O132 1.320 . S
C135 O133 1.214 . S
O136 Cd128 2.277 . S
O136 C131 1.209 . S
C137 O134 1.258 . S
C137 O139 1.282 . S
O138 Cd130 2.277 . S
O138 C131 1.226 . S
O139 Cd130 2.356 . S
O139 C137 1.282 . S
C140 O141 1.306 . S
C140 O143 1.160 . S
O141 C140 1.306 . S
O141 Cd142 2.228 . S
Cd142 O141 2.228 . S
Cd142 O146 2.273 . S
Cd142 O150 2.277 . S
O143 C140 1.160 . S
O143 Cd144 2.203 . S
Cd144 O143 2.203 . S
Cd144 O146 2.411 . S
Cd144 O147 2.333 . S
Cd144 O148 2.352 . S
Cd144 O152 2.277 . S
Cd144 O153 2.356 . S
C145 O150 1.209 . S
C145 O152 1.226 . S
O146 Cd142 2.273 . S
O146 Cd144 2.411 . S
O146 C149 1.320 . S
O147 Cd144 2.333 . S
O147 C149 1.214 . S
O148 Cd144 2.352 . S
O148 C151 1.258 . S
C149 O146 1.320 . S
C149 O147 1.214 . S
O150 Cd142 2.277 . S
O150 C145 1.209 . S
C151 O148 1.258 . S
C151 O153 1.282 . S
O152 Cd144 2.277 . S
O152 C145 1.226 . S
O153 Cd144 2.356 . S
O153 C151 1.282 . S
C154 O155 1.306 . S
C154 O157 1.160 . S
O155 C154 1.306 . S
O155 Cd156 2.228 . S
Cd156 O155 2.228 . S
Cd156 O160 2.273 . S
Cd156 O164 2.277 . S
O157 C154 1.160 . S
O157 Cd158 2.203 . S
Cd158 O157 2.203 . S
Cd158 O160 2.411 . S
Cd158 O161 2.333 . S
Cd158 O162 2.352 . S
Cd158 O166 2.277 . S
Cd158 O167 2.356 . S
C159 O164 1.209 . S
C159 O166 1.226 . S
O160 Cd156 2.273 . S
O160 Cd158 2.411 . S
O160 C163 1.320 . S
O161 Cd158 2.333 . S
O161 C163 1.214 . S
O162 Cd158 2.352 . S
O162 C165 1.258 . S
C163 O160 1.320 . S
C163 O161 1.214 . S
O164 Cd156 2.277 . S
O164 C159 1.209 . S
C165 O162 1.258 . S
C165 O167 1.282 . S
O166 Cd158 2.277 . S
O166 C159 1.226 . S
O167 Cd158 2.356 . S
O167 C165 1.282 . S
C168 C169 1.349 . S
C168 C170 1.327 . S
C168 H193 0.950 . S
C169 C168 1.349 . S
C169 C185 1.349 . S
C170 C168 1.327 . S
C170 C189 1.429 . S
C170 H194 0.950 . S
C171 C188 1.574 . S
C171 C190 1.368 . S
C171 H195 0.949 . S
H172 C176 0.949 . S
C173 C174 1.349 . S
C173 C175 1.327 . S
C173 H196 0.950 . S
C174 C173 1.349 . S
C174 C186 1.349 . S
C175 C173 1.327 . S
C175 C191 1.429 . S
C175 H197 0.950 . S
C176 H172 0.949 . S
C176 C184 1.574 . S
C176 C192 1.368 . S
H177 C185 0.950 . S
H178 C183 0.950 . S
H179 C184 0.949 . S
H180 C186 0.950 . S
H181 C187 0.950 . S
H182 C188 0.949 . S
C183 H178 0.950 . S
C183 C185 1.327 . S
C183 C189 1.429 . S
C184 C176 1.574 . S
C184 H179 0.949 . S
C184 C190 1.368 . S
C185 C169 1.349 . S
C185 H177 0.950 . S
C185 C183 1.327 . S
C186 C174 1.349 . S
C186 H180 0.950 . S
C186 C187 1.327 . S
C187 H181 0.950 . S
C187 C186 1.327 . S
C187 C191 1.429 . S
C188 C171 1.574 . S
C188 H182 0.949 . S
C188 C192 1.368 . S
C189 C170 1.429 . S
C189 C183 1.429 . S
C189 C190 1.523 . S
C190 C171 1.368 . S
C190 C184 1.368 . S
C190 C189 1.523 . S
C191 C175 1.429 . S
C191 C187 1.429 . S
C191 C192 1.523 . S
C192 C176 1.368 . S
C192 C188 1.368 . S
C192 C191 1.523 . S
H193 C168 0.950 . S
H194 C170 0.950 . S
H195 C171 0.949 . S
H196 C173 0.950 . S
H197 C175 0.950 . S
C198 C199 1.349 . S
C198 C200 1.327 . S
C198 H223 0.950 . S
C199 C198 1.349 . S
C199 C215 1.349 . S
C200 C198 1.327 . S
C200 C219 1.429 . S
C200 H224 0.950 . S
C201 C218 1.574 . S
C201 C220 1.368 . S
C201 H225 0.949 . S
H202 C206 0.949 . S
C203 C204 1.349 . S
C203 C205 1.327 . S
C203 H226 0.950 . S
C204 C203 1.349 . S
C204 C216 1.349 . S
C205 C203 1.327 . S
C205 C221 1.429 . S
C205 H227 0.950 . S
C206 H202 0.949 . S
C206 C214 1.574 . S
C206 C222 1.368 . S
H207 C215 0.950 . S
H208 C213 0.950 . S
H209 C214 0.949 . S
H210 C216 0.950 . S
H211 C217 0.950 . S
H212 C218 0.949 . S
C213 H208 0.950 . S
C213 C215 1.327 . S
C213 C219 1.429 . S
C214 C206 1.574 . S
C214 H209 0.949 . S
C214 C220 1.368 . S
C215 C199 1.349 . S
C215 H207 0.950 . S
C215 C213 1.327 . S
C216 C204 1.349 . S
C216 H210 0.950 . S
C216 C217 1.327 . S
C217 H211 0.950 . S
C217 C216 1.327 . S
C217 C221 1.429 . S
C218 C201 1.574 . S
C218 H212 0.949 . S
C218 C222 1.368 . S
C219 C200 1.429 . S
C219 C213 1.429 . S
C219 C220 1.523 . S
C220 C201 1.368 . S
C220 C214 1.368 . S
C220 C219 1.523 . S
C221 C205 1.429 . S
C221 C217 1.429 . S
C221 C222 1.523 . S
C222 C206 1.368 . S
C222 C218 1.368 . S
C222 C221 1.523 . S
H223 C198 0.950 . S
H224 C200 0.950 . S
H225 C201 0.949 . S
H226 C203 0.950 . S
H227 C205 0.950 . S
C228 C229 1.349 . S
C228 C230 1.327 . S
C228 H253 0.950 . S
C229 C228 1.349 . S
C229 C245 1.349 . S
C230 C228 1.327 . S
C230 C249 1.429 . S
C230 H254 0.950 . S
C231 C248 1.574 . S
C231 C250 1.368 . S
C231 H255 0.949 . S
H232 C236 0.949 . S
C233 C234 1.349 . S
C233 C235 1.327 . S
C233 H256 0.950 . S
C234 C233 1.349 . S
C234 C246 1.349 . S
C235 C233 1.327 . S
C235 C251 1.429 . S
C235 H257 0.950 . S
C236 H232 0.949 . S
C236 C244 1.574 . S
C236 C252 1.368 . S
H237 C245 0.950 . S
H238 C243 0.950 . S
H239 C244 0.949 . S
H240 C246 0.950 . S
H241 C247 0.950 . S
H242 C248 0.949 . S
C243 H238 0.950 . S
C243 C245 1.327 . S
C243 C249 1.429 . S
C244 C236 1.574 . S
C244 H239 0.949 . S
C244 C250 1.368 . S
C245 C229 1.349 . S
C245 H237 0.950 . S
C245 C243 1.327 . S
C246 C234 1.349 . S
C246 H240 0.950 . S
C246 C247 1.327 . S
C247 H241 0.950 . S
C247 C246 1.327 . S
C247 C251 1.429 . S
C248 C231 1.574 . S
C248 H242 0.949 . S
C248 C252 1.368 . S
C249 C230 1.429 . S
C249 C243 1.429 . S
C249 C250 1.523 . S
C250 C231 1.368 . S
C250 C244 1.368 . S
C250 C249 1.523 . S
C251 C235 1.429 . S
C251 C247 1.429 . S
C251 C252 1.523 . S
C252 C236 1.368 . S
C252 C248 1.368 . S
C252 C251 1.523 . S
H253 C228 0.950 . S
H254 C230 0.950 . S
H255 C231 0.949 . S
H256 C233 0.950 . S
H257 C235 0.950 . S
C258 C259 1.349 . S
C258 C260 1.327 . S
C258 H283 0.950 . S
C259 C258 1.349 . S
C259 C275 1.349 . S
C260 C258 1.327 . S
C260 C279 1.429 . S
C260 H284 0.950 . S
C261 C278 1.574 . S
C261 C280 1.368 . S
C261 H285 0.949 . S
H262 C266 0.949 . S
C263 C264 1.349 . S
C263 C265 1.327 . S
C263 H286 0.950 . S
C264 C263 1.349 . S
C264 C276 1.349 . S
C265 C263 1.327 . S
C265 C281 1.429 . S
C265 H287 0.950 . S
C266 H262 0.949 . S
C266 C274 1.574 . S
C266 C282 1.368 . S
H267 C275 0.950 . S
H268 C273 0.950 . S
H269 C274 0.949 . S
H270 C276 0.950 . S
H271 C277 0.950 . S
H272 C278 0.949 . S
C273 H268 0.950 . S
C273 C275 1.327 . S
C273 C279 1.429 . S
C274 C266 1.574 . S
C274 H269 0.949 . S
C274 C280 1.368 . S
C275 C259 1.349 . S
C275 H267 0.950 . S
C275 C273 1.327 . S
C276 C264 1.349 . S
C276 H270 0.950 . S
C276 C277 1.327 . S
C277 H271 0.950 . S
C277 C276 1.327 . S
C277 C281 1.429 . S
C278 C261 1.574 . S
C278 H272 0.949 . S
C278 C282 1.368 . S
C279 C260 1.429 . S
C279 C273 1.429 . S
C279 C280 1.523 . S
C280 C261 1.368 . S
C280 C274 1.368 . S
C280 C279 1.523 . S
C281 C265 1.429 . S
C281 C277 1.429 . S
C281 C282 1.523 . S
C282 C266 1.368 . S
C282 C278 1.368 . S
C282 C281 1.523 . S
H283 C258 0.950 . S
H284 C260 0.950 . S
H285 C261 0.949 . S
H286 C263 0.950 . S
H287 C265 0.950 . S
C288 C289 1.349 . S
C288 C290 1.327 . S
C288 H313 0.950 . S
C289 C288 1.349 . S
C289 C305 1.349 . S
C290 C288 1.327 . S
C290 C309 1.429 . S
C290 H314 0.950 . S
C291 C308 1.574 . S
C291 C310 1.368 1_556 S
C291 H315 0.949 . S
H292 C296 0.949 . S
C293 C294 1.349 . S
C293 C295 1.327 . S
C293 H316 0.950 . S
C294 C293 1.349 . S
C294 C306 1.349 . S
C295 C293 1.327 . S
C295 C311 1.429 . S
C295 H317 0.950 . S
C296 H292 0.949 . S
C296 C304 1.574 1_556 S
C296 C312 1.368 . S
H297 C305 0.950 . S
H298 C303 0.950 . S
H299 C304 0.949 . S
H300 C306 0.950 . S
H301 C307 0.950 . S
H302 C308 0.949 . S
C303 H298 0.950 . S
C303 C305 1.327 . S
C303 C309 1.429 . S
C304 C296 1.574 1_554 S
C304 H299 0.949 . S
C304 C310 1.368 . S
C305 C289 1.349 . S
C305 H297 0.950 . S
C305 C303 1.327 . S
C306 C294 1.349 . S
C306 H300 0.950 . S
C306 C307 1.327 . S
C307 H301 0.950 . S
C307 C306 1.327 . S
C307 C311 1.429 . S
C308 C291 1.574 . S
C308 H302 0.949 . S
C308 C312 1.368 . S
C309 C290 1.429 . S
C309 C303 1.429 . S
C309 C310 1.523 . S
C310 C291 1.368 1_554 S
C310 C304 1.368 . S
C310 C309 1.523 . S
C311 C295 1.429 . S
C311 C307 1.429 . S
C311 C312 1.523 . S
C312 C296 1.368 . S
C312 C308 1.368 . S
C312 C311 1.523 . S
H313 C288 0.950 . S
H314 C290 0.950 . S
H315 C291 0.949 . S
H316 C293 0.950 . S
H317 C295 0.950 . S
C318 C319 1.349 . S
C318 C320 1.327 . S
C318 H343 0.950 . S
C319 C318 1.349 . S
C319 C335 1.349 . S
C320 C318 1.327 . S
C320 C339 1.429 . S
C320 H344 0.950 . S
C321 C338 1.574 . S
C321 C340 1.368 . S
C321 H345 0.949 . S
H322 C326 0.949 . S
C323 C324 1.349 . S
C323 C325 1.327 1_556 S
C323 H346 0.950 . S
C324 C323 1.349 . S
C324 C336 1.349 1_556 S
C325 C323 1.327 1_554 S
C325 C341 1.429 . S
C325 H347 0.950 . S
C326 H322 0.949 . S
C326 C334 1.574 . S
C326 C342 1.368 . S
H327 C335 0.950 . S
H328 C333 0.950 . S
H329 C334 0.949 . S
H330 C336 0.950 . S
H331 C337 0.950 . S
H332 C338 0.949 . S
C333 H328 0.950 . S
C333 C335 1.327 . S
C333 C339 1.429 . S
C334 C326 1.574 . S
C334 H329 0.949 . S
C334 C340 1.368 . S
C335 C319 1.349 . S
C335 H327 0.950 . S
C335 C333 1.327 . S
C336 C324 1.349 1_554 S
C336 H330 0.950 . S
C336 C337 1.327 . S
C337 H331 0.950 . S
C337 C336 1.327 . S
C337 C341 1.429 . S
C338 C321 1.574 . S
C338 H332 0.949 . S
C338 C342 1.368 . S
C339 C320 1.429 . S
C339 C333 1.429 . S
C339 C340 1.523 . S
C340 C321 1.368 . S
C340 C334 1.368 . S
C340 C339 1.523 . S
C341 C325 1.429 . S
C341 C337 1.429 . S
C341 C342 1.523 . S
C342 C326 1.368 . S
C342 C338 1.368 . S
C342 C341 1.523 . S
H343 C318 0.950 . S
H344 C320 0.950 . S
H345 C321 0.949 . S
H346 C323 0.950 . S
H347 C325 0.950 . S
C348 C349 1.349 . S
C348 C350 1.327 . S
C348 H373 0.950 . S
C349 C348 1.349 . S
C349 C365 1.349 . S
C350 C348 1.327 . S
C350 C369 1.429 . S
C350 H374 0.950 . S
C351 C368 1.574 . S
C351 C370 1.368 . S
C351 H375 0.949 . S
H352 C356 0.949 . S
C353 C354 1.349 . S
C353 C355 1.327 . S
C353 H376 0.950 . S
C354 C353 1.349 . S
C354 C366 1.349 . S
C355 C353 1.327 . S
C355 C371 1.429 . S
C355 H377 0.950 . S
C356 H352 0.949 . S
C356 C364 1.574 . S
C356 C372 1.368 . S
H357 C365 0.950 . S
H358 C363 0.950 . S
H359 C364 0.949 . S
H360 C366 0.950 . S
H361 C367 0.950 . S
H362 C368 0.949 . S
C363 H358 0.950 . S
C363 C365 1.327 . S
C363 C369 1.429 . S
C364 C356 1.574 . S
C364 H359 0.949 . S
C364 C370 1.368 . S
C365 C349 1.349 . S
C365 H357 0.950 . S
C365 C363 1.327 . S
C366 C354 1.349 . S
C366 H360 0.950 . S
C366 C367 1.327 . S
C367 H361 0.950 . S
C367 C366 1.327 . S
C367 C371 1.429 . S
C368 C351 1.574 . S
C368 H362 0.949 . S
C368 C372 1.368 . S
C369 C350 1.429 . S
C369 C363 1.429 . S
C369 C370 1.523 . S
C370 C351 1.368 . S
C370 C364 1.368 . S
C370 C369 1.523 . S
C371 C355 1.429 . S
C371 C367 1.429 . S
C371 C372 1.523 . S
C372 C356 1.368 . S
C372 C368 1.368 . S
C372 C371 1.523 . S
H373 C348 0.950 . S
H374 C350 0.950 . S
H375 C351 0.949 . S
H376 C353 0.950 . S
H377 C355 0.950 . S
C378 C379 1.349 . S
C378 C380 1.327 . S
C378 H403 0.950 . S
C379 C378 1.349 . S
C379 C395 1.349 . S
C380 C378 1.327 . S
C380 C399 1.429 . S
C380 H404 0.950 . S
C381 C398 1.574 . S
C381 C400 1.368 . S
C381 H405 0.949 . S
H382 C386 0.949 . S
C383 C384 1.349 . S
C383 C385 1.327 . S
C383 H406 0.950 . S
C384 C383 1.349 . S
C384 C396 1.349 . S
C385 C383 1.327 . S
C385 C401 1.429 . S
C385 H407 0.950 . S
C386 H382 0.949 . S
C386 C394 1.574 . S
C386 C402 1.368 . S
H387 C395 0.950 . S
H388 C393 0.950 . S
H389 C394 0.949 . S
H390 C396 0.950 . S
H391 C397 0.950 . S
H392 C398 0.949 . S
C393 H388 0.950 . S
C393 C395 1.327 . S
C393 C399 1.429 . S
C394 C386 1.574 . S
C394 H389 0.949 . S
C394 C400 1.368 . S
C395 C379 1.349 . S
C395 H387 0.950 . S
C395 C393 1.327 . S
C396 C384 1.349 . S
C396 H390 0.950 . S
C396 C397 1.327 . S
C397 H391 0.950 . S
C397 C396 1.327 . S
C397 C401 1.429 . S
C398 C381 1.574 . S
C398 H392 0.949 . S
C398 C402 1.368 . S
C399 C380 1.429 . S
C399 C393 1.429 . S
C399 C400 1.523 . S
C400 C381 1.368 . S
C400 C394 1.368 . S
C400 C399 1.523 . S
C401 C385 1.429 . S
C401 C397 1.429 . S
C401 C402 1.523 . S
C402 C386 1.368 . S
C402 C398 1.368 . S
C402 C401 1.523 . S
H403 C378 0.950 . S
H404 C380 0.950 . S
H405 C381 0.949 . S
H406 C383 0.950 . S
H407 C385 0.950 . S
C408 C409 1.349 . S
C408 C410 1.327 . S
C408 H433 0.950 . S
C409 C408 1.349 . S
C409 C425 1.349 . S
C410 C408 1.327 . S
C410 C429 1.429 . S
C410 H434 0.950 . S
C411 C428 1.574 . S
C411 C430 1.368 . S
C411 H435 0.949 . S
H412 C416 0.949 . S
C413 C414 1.349 . S
C413 C415 1.327 . S
C413 H436 0.950 . S
C414 C413 1.349 . S
C414 C426 1.349 . S
C415 C413 1.327 . S
C415 C431 1.429 . S
C415 H437 0.950 . S
C416 H412 0.949 . S
C416 C424 1.574 . S
C416 C432 1.368 . S
H417 C425 0.950 . S
H418 C423 0.950 . S
H419 C424 0.949 . S
H420 C426 0.950 . S
H421 C427 0.950 . S
H422 C428 0.949 . S
C423 H418 0.950 . S
C423 C425 1.327 . S
C423 C429 1.429 . S
C424 C416 1.574 . S
C424 H419 0.949 . S
C424 C430 1.368 . S
C425 C409 1.349 . S
C425 H417 0.950 . S
C425 C423 1.327 . S
C426 C414 1.349 . S
C426 H420 0.950 . S
C426 C427 1.327 . S
C427 H421 0.950 . S
C427 C426 1.327 . S
C427 C431 1.429 . S
C428 C411 1.574 . S
C428 H422 0.949 . S
C428 C432 1.368 . S
C429 C410 1.429 . S
C429 C423 1.429 . S
C429 C430 1.523 . S
C430 C411 1.368 . S
C430 C424 1.368 . S
C430 C429 1.523 . S
C431 C415 1.429 . S
C431 C427 1.429 . S
C431 C432 1.523 . S
C432 C416 1.368 . S
C432 C428 1.368 . S
C432 C431 1.523 . S
H433 C408 0.950 . S
H434 C410 0.950 . S
H435 C411 0.949 . S
H436 C413 0.950 . S
H437 C415 0.950 . S
C438 C439 1.349 . S
C438 C440 1.327 . S
C438 H463 0.950 . S
C439 C438 1.349 . S
C439 C455 1.349 . S
C440 C438 1.327 . S
C440 C459 1.429 . S
C440 H464 0.950 . S
C441 C458 1.574 . S
C441 C460 1.368 . S
C441 H465 0.949 . S
H442 C446 0.949 . S
C443 C444 1.349 . S
C443 C445 1.327 . S
C443 H466 0.950 . S
C444 C443 1.349 . S
C444 C456 1.349 . S
C445 C443 1.327 . S
C445 C461 1.429 . S
C445 H467 0.950 . S
C446 H442 0.949 . S
C446 C454 1.574 . S
C446 C462 1.368 . S
H447 C455 0.950 . S
H448 C453 0.950 . S
H449 C454 0.949 . S
H450 C456 0.950 . S
H451 C457 0.950 . S
H452 C458 0.949 . S
C453 H448 0.950 . S
C453 C455 1.327 . S
C453 C459 1.429 . S
C454 C446 1.574 . S
C454 H449 0.949 . S
C454 C460 1.368 . S
C455 C439 1.349 . S
C455 H447 0.950 . S
C455 C453 1.327 . S
C456 C444 1.349 . S
C456 H450 0.950 . S
C456 C457 1.327 . S
C457 H451 0.950 . S
C457 C456 1.327 . S
C457 C461 1.429 . S
C458 C441 1.574 . S
C458 H452 0.949 . S
C458 C462 1.368 . S
C459 C440 1.429 . S
C459 C453 1.429 . S
C459 C460 1.523 . S
C460 C441 1.368 . S
C460 C454 1.368 . S
C460 C459 1.523 . S
C461 C445 1.429 . S
C461 C457 1.429 . S
C461 C462 1.523 . S
C462 C446 1.368 . S
C462 C458 1.368 . S
C462 C461 1.523 . S
H463 C438 0.950 . S
H464 C440 0.950 . S
H465 C441 0.949 . S
H466 C443 0.950 . S
H467 C445 0.950 . S
C468 C469 1.349 . S
C468 C470 1.327 . S
C468 H493 0.950 . S
C469 C468 1.349 . S
C469 C485 1.349 . S
C470 C468 1.327 . S
C470 C489 1.429 . S
C470 H494 0.950 . S
C471 C488 1.574 . S
C471 C490 1.368 . S
C471 H495 0.949 . S
H472 C476 0.949 . S
C473 C474 1.349 . S
C473 C475 1.327 . S
C473 H496 0.950 . S
C474 C473 1.349 . S
C474 C486 1.349 . S
C475 C473 1.327 . S
C475 C491 1.429 . S
C475 H497 0.950 . S
C476 H472 0.949 . S
C476 C484 1.574 . S
C476 C492 1.368 . S
H477 C485 0.950 . S
H478 C483 0.950 . S
H479 C484 0.949 . S
H480 C486 0.950 . S
H481 C487 0.950 . S
H482 C488 0.949 . S
C483 H478 0.950 . S
C483 C485 1.327 . S
C483 C489 1.429 . S
C484 C476 1.574 . S
C484 H479 0.949 . S
C484 C490 1.368 . S
C485 C469 1.349 . S
C485 H477 0.950 . S
C485 C483 1.327 . S
C486 C474 1.349 . S
C486 H480 0.950 . S
C486 C487 1.327 . S
C487 H481 0.950 . S
C487 C486 1.327 . S
C487 C491 1.429 . S
C488 C471 1.574 . S
C488 H482 0.949 . S
C488 C492 1.368 . S
C489 C470 1.429 . S
C489 C483 1.429 . S
C489 C490 1.523 . S
C490 C471 1.368 . S
C490 C484 1.368 . S
C490 C489 1.523 . S
C491 C475 1.429 . S
C491 C487 1.429 . S
C491 C492 1.523 . S
C492 C476 1.368 . S
C492 C488 1.368 . S
C492 C491 1.523 . S
H493 C468 0.950 . S
H494 C470 0.950 . S
H495 C471 0.949 . S
H496 C473 0.950 . S
H497 C475 0.950 . S
C498 C499 1.349 . S
C498 C500 1.327 . S
C498 H523 0.950 . S
C499 C498 1.349 . S
C499 C515 1.349 . S
C500 C498 1.327 . S
C500 C519 1.429 . S
C500 H524 0.950 . S
C501 C518 1.574 . S
C501 C520 1.368 . S
C501 H525 0.949 . S
H502 C506 0.949 . S
C503 C504 1.349 . S
C503 C505 1.327 . S
C503 H526 0.950 . S
C504 C503 1.349 . S
C504 C516 1.349 1_554 S
C505 C503 1.327 . S
C505 C521 1.429 1_554 S
C505 H527 0.950 . S
C506 H502 0.949 . S
C506 C514 1.574 . S
C506 C522 1.368 . S
H507 C515 0.950 . S
H508 C513 0.950 . S
H509 C514 0.949 . S
H510 C516 0.950 . S
H511 C517 0.950 . S
H512 C518 0.949 1_554 S
C513 H508 0.950 . S
C513 C515 1.327 . S
C513 C519 1.429 . S
C514 C506 1.574 . S
C514 H509 0.949 . S
C514 C520 1.368 . S
C515 C499 1.349 . S
C515 H507 0.950 . S
C515 C513 1.327 . S
C516 C504 1.349 1_556 S
C516 H510 0.950 . S
C516 C517 1.327 . S
C517 H511 0.950 . S
C517 C516 1.327 . S
C517 C521 1.429 . S
C518 C501 1.574 . S
C518 H512 0.949 1_556 S
C518 C522 1.368 . S
C519 C500 1.429 . S
C519 C513 1.429 . S
C519 C520 1.523 . S
C520 C501 1.368 . S
C520 C514 1.368 . S
C520 C519 1.523 . S
C521 C505 1.429 1_556 S
C521 C517 1.429 . S
C521 C522 1.523 . S
C522 C506 1.368 . S
C522 C518 1.368 . S
C522 C521 1.523 . S
H523 C498 0.950 . S
H524 C500 0.950 . S
H525 C501 0.949 . S
H526 C503 0.950 . S
H527 C505 0.950 . S
C528 C529 1.349 . S
C528 C530 1.327 . S
C528 H553 0.950 . S
C529 C528 1.349 . S
C529 C545 1.349 . S
C530 C528 1.327 . S
C530 C549 1.429 . S
C530 H554 0.950 . S
C531 C548 1.574 . S
C531 C550 1.368 . S
C531 H555 0.949 . S
H532 C536 0.949 . S
C533 C534 1.349 . S
C533 C535 1.327 . S
C533 H556 0.950 . S
C534 C533 1.349 . S
C534 C546 1.349 . S
C535 C533 1.327 . S
C535 C551 1.429 . S
C535 H557 0.950 . S
C536 H532 0.949 . S
C536 C544 1.574 . S
C536 C552 1.368 . S
H537 C545 0.950 . S
H538 C543 0.950 . S
H539 C544 0.949 . S
H540 C546 0.950 . S
H541 C547 0.950 . S
H542 C548 0.949 . S
C543 H538 0.950 . S
C543 C545 1.327 . S
C543 C549 1.429 . S
C544 C536 1.574 . S
C544 H539 0.949 . S
C544 C550 1.368 . S
C545 C529 1.349 . S
C545 H537 0.950 . S
C545 C543 1.327 . S
C546 C534 1.349 . S
C546 H540 0.950 . S
C546 C547 1.327 . S
C547 H541 0.950 . S
C547 C546 1.327 . S
C547 C551 1.429 . S
C548 C531 1.574 . S
C548 H542 0.949 . S
C548 C552 1.368 . S
C549 C530 1.429 . S
C549 C543 1.429 . S
C549 C550 1.523 . S
C550 C531 1.368 . S
C550 C544 1.368 . S
C550 C549 1.523 . S
C551 C535 1.429 . S
C551 C547 1.429 . S
C551 C552 1.523 . S
C552 C536 1.368 . S
C552 C548 1.368 . S
C552 C551 1.523 . S
H553 C528 0.950 . S
H554 C530 0.950 . S
H555 C531 0.949 . S
H556 C533 0.950 . S
H557 C535 0.950 . S
C558 C559 1.349 . S
C558 C560 1.327 . S
C558 H583 0.950 . S
C559 C558 1.349 . S
C559 C575 1.349 . S
C560 C558 1.327 . S
C560 C579 1.429 . S
C560 H584 0.950 . S
C561 C578 1.574 . S
C561 C580 1.368 . S
C561 H585 0.949 . S
H562 C566 0.949 1_554 S
C563 C564 1.349 . S
C563 C565 1.327 . S
C563 H586 0.950 . S
C564 C563 1.349 . S
C564 C576 1.349 . S
C565 C563 1.327 . S
C565 C581 1.429 . S
C565 H587 0.950 . S
C566 H562 0.949 1_556 S
C566 C574 1.574 . S
C566 C582 1.368 1_556 S
H567 C575 0.950 . S
H568 C573 0.950 . S
H569 C574 0.949 . S
H570 C576 0.950 . S
H571 C577 0.950 . S
H572 C578 0.949 . S
C573 H568 0.950 . S
C573 C575 1.327 . S
C573 C579 1.429 . S
C574 C566 1.574 . S
C574 H569 0.949 . S
C574 C580 1.368 . S
C575 C559 1.349 . S
C575 H567 0.950 . S
C575 C573 1.327 . S
C576 C564 1.349 . S
C576 H570 0.950 . S
C576 C577 1.327 . S
C577 H571 0.950 . S
C577 C576 1.327 . S
C577 C581 1.429 . S
C578 C561 1.574 . S
C578 H572 0.949 . S
C578 C582 1.368 1_556 S
C579 C560 1.429 . S
C579 C573 1.429 . S
C579 C580 1.523 . S
C580 C561 1.368 . S
C580 C574 1.368 . S
C580 C579 1.523 . S
C581 C565 1.429 . S
C581 C577 1.429 . S
C581 C582 1.523 . S
C582 C566 1.368 1_554 S
C582 C578 1.368 1_554 S
C582 C581 1.523 . S
H583 C558 0.950 . S
H584 C560 0.950 . S
H585 C561 0.949 . S
H586 C563 0.950 . S
H587 C565 0.950 . S
C588 C589 1.349 . S
C588 C590 1.327 1_556 S
C588 H613 0.950 . S
C589 C588 1.349 . S
C589 C605 1.349 1_556 S
C590 C588 1.327 1_554 S
C590 C609 1.429 . S
C590 H614 0.950 . S
C591 C608 1.574 . S
C591 C610 1.368 . S
C591 H615 0.949 . S
H592 C596 0.949 . S
C593 C594 1.349 . S
C593 C595 1.327 . S
C593 H616 0.950 . S
C594 C593 1.349 . S
C594 C606 1.349 . S
C595 C593 1.327 . S
C595 C611 1.429 . S
C595 H617 0.950 . S
C596 H592 0.949 . S
C596 C604 1.574 . S
C596 C612 1.368 . S
H597 C605 0.950 . S
H598 C603 0.950 . S
H599 C604 0.949 . S
H600 C606 0.950 . S
H601 C607 0.950 . S
H602 C608 0.949 . S
C603 H598 0.950 . S
C603 C605 1.327 . S
C603 C609 1.429 . S
C604 C596 1.574 . S
C604 H599 0.949 . S
C604 C610 1.368 . S
C605 C589 1.349 1_554 S
C605 H597 0.950 . S
C605 C603 1.327 . S
C606 C594 1.349 . S
C606 H600 0.950 . S
C606 C607 1.327 . S
C607 H601 0.950 . S
C607 C606 1.327 . S
C607 C611 1.429 . S
C608 C591 1.574 . S
C608 H602 0.949 . S
C608 C612 1.368 . S
C609 C590 1.429 . S
C609 C603 1.429 . S
C609 C610 1.523 . S
C610 C591 1.368 . S
C610 C604 1.368 . S
C610 C609 1.523 . S
C611 C595 1.429 . S
C611 C607 1.429 . S
C611 C612 1.523 . S
C612 C596 1.368 . S
C612 C608 1.368 . S
C612 C611 1.523 . S
H613 C588 0.950 . S
H614 C590 0.950 . S
H615 C591 0.949 . S
H616 C593 0.950 . S
H617 C595 0.950 . S
C618 C619 1.349 . S
C618 C620 1.327 . S
C618 H643 0.950 . S
C619 C618 1.349 . S
C619 C635 1.349 . S
C620 C618 1.327 . S
C620 C639 1.429 . S
C620 H644 0.950 . S
C621 C638 1.574 . S
C621 C640 1.368 . S
C621 H645 0.949 . S
H622 C626 0.949 . S
C623 C624 1.349 . S
C623 C625 1.327 . S
C623 H646 0.950 . S
C624 C623 1.349 . S
C624 C636 1.349 . S
C625 C623 1.327 . S
C625 C641 1.429 . S
C625 H647 0.950 . S
C626 H622 0.949 . S
C626 C634 1.574 . S
C626 C642 1.368 . S
H627 C635 0.950 . S
H628 C633 0.950 . S
H629 C634 0.949 . S
H630 C636 0.950 . S
H631 C637 0.950 . S
H632 C638 0.949 . S
C633 H628 0.950 . S
C633 C635 1.327 . S
C633 C639 1.429 . S
C634 C626 1.574 . S
C634 H629 0.949 . S
C634 C640 1.368 . S
C635 C619 1.349 . S
C635 H627 0.950 . S
C635 C633 1.327 . S
C636 C624 1.349 . S
C636 H630 0.950 . S
C636 C637 1.327 . S
C637 H631 0.950 . S
C637 C636 1.327 . S
C637 C641 1.429 . S
C638 C621 1.574 . S
C638 H632 0.949 . S
C638 C642 1.368 . S
C639 C620 1.429 . S
C639 C633 1.429 . S
C639 C640 1.523 . S
C640 C621 1.368 . S
C640 C634 1.368 . S
C640 C639 1.523 . S
C641 C625 1.429 . S
C641 C637 1.429 . S
C641 C642 1.523 . S
C642 C626 1.368 . S
C642 C638 1.368 . S
C642 C641 1.523 . S
H643 C618 0.950 . S
H644 C620 0.950 . S
H645 C621 0.949 . S
H646 C623 0.950 . S
H647 C625 0.950 . S
C648 C649 1.349 . S
C648 C650 1.327 . S
C648 H673 0.950 . S
C649 C648 1.349 . S
C649 C665 1.349 . S
C650 C648 1.327 . S
C650 C669 1.429 . S
C650 H674 0.950 . S
C651 C668 1.574 . S
C651 C670 1.368 . S
C651 H675 0.949 . S
H652 C656 0.949 . S
C653 C654 1.349 . S
C653 C655 1.327 . S
C653 H676 0.950 . S
C654 C653 1.349 . S
C654 C666 1.349 . S
C655 C653 1.327 . S
C655 C671 1.429 . S
C655 H677 0.950 . S
C656 H652 0.949 . S
C656 C664 1.574 . S
C656 C672 1.368 . S
H657 C665 0.950 . S
H658 C663 0.950 . S
H659 C664 0.949 . S
H660 C666 0.950 . S
H661 C667 0.950 . S
H662 C668 0.949 . S
C663 H658 0.950 . S
C663 C665 1.327 . S
C663 C669 1.429 . S
C664 C656 1.574 . S
C664 H659 0.949 . S
C664 C670 1.368 . S
C665 C649 1.349 . S
C665 H657 0.950 . S
C665 C663 1.327 . S
C666 C654 1.349 . S
C666 H660 0.950 . S
C666 C667 1.327 . S
C667 H661 0.950 . S
C667 C666 1.327 . S
C667 C671 1.429 . S
C668 C651 1.574 . S
C668 H662 0.949 . S
C668 C672 1.368 . S
C669 C650 1.429 . S
C669 C663 1.429 . S
C669 C670 1.523 . S
C670 C651 1.368 . S
C670 C664 1.368 . S
C670 C669 1.523 . S
C671 C655 1.429 . S
C671 C667 1.429 . S
C671 C672 1.523 . S
C672 C656 1.368 . S
C672 C668 1.368 . S
C672 C671 1.523 . S
H673 C648 0.950 . S
H674 C650 0.950 . S
H675 C651 0.949 . S
H676 C653 0.950 . S
H677 C655 0.950 . S
C678 C679 1.349 . S
C678 C680 1.327 . S
C678 H703 0.950 . S
C679 C678 1.349 . S
C679 C695 1.349 . S
C680 C678 1.327 . S
C680 C699 1.429 . S
C680 H704 0.950 . S
C681 C698 1.574 . S
C681 C700 1.368 . S
C681 H705 0.949 . S
H682 C686 0.949 . S
C683 C684 1.349 . S
C683 C685 1.327 . S
C683 H706 0.950 . S
C684 C683 1.349 . S
C684 C696 1.349 . S
C685 C683 1.327 . S
C685 C701 1.429 . S
C685 H707 0.950 . S
C686 H682 0.949 . S
C686 C694 1.574 . S
C686 C702 1.368 . S
H687 C695 0.950 . S
H688 C693 0.950 . S
H689 C694 0.949 . S
H690 C696 0.950 . S
H691 C697 0.950 . S
H692 C698 0.949 . S
C693 H688 0.950 . S
C693 C695 1.327 . S
C693 C699 1.429 . S
C694 C686 1.574 . S
C694 H689 0.949 . S
C694 C700 1.368 . S
C695 C679 1.349 . S
C695 H687 0.950 . S
C695 C693 1.327 . S
C696 C684 1.349 . S
C696 H690 0.950 . S
C696 C697 1.327 . S
C697 H691 0.950 . S
C697 C696 1.327 . S
C697 C701 1.429 . S
C698 C681 1.574 . S
C698 H692 0.949 . S
C698 C702 1.368 . S
C699 C680 1.429 . S
C699 C693 1.429 . S
C699 C700 1.523 . S
C700 C681 1.368 . S
C700 C694 1.368 . S
C700 C699 1.523 . S
C701 C685 1.429 . S
C701 C697 1.429 . S
C701 C702 1.523 . S
C702 C686 1.368 . S
C702 C698 1.368 . S
C702 C701 1.523 . S
H703 C678 0.950 . S
H704 C680 0.950 . S
H705 C681 0.949 . S
H706 C683 0.950 . S
H707 C685 0.950 . S
C708 C709 1.349 . S
C708 C710 1.327 . S
C708 H733 0.950 . S
C709 C708 1.349 . S
C709 C725 1.349 . S
C710 C708 1.327 . S
C710 C729 1.429 . S
C710 H734 0.950 . S
C711 C728 1.574 1_545 S
C711 C730 1.368 . S
C711 H735 0.949 . S
H712 C716 0.949 . S
C713 C714 1.349 . S
C713 C715 1.327 . S
C713 H736 0.935 1_554 S
C714 C713 1.349 . S
C714 C726 1.349 . S
C715 C713 1.327 . S
C715 C731 1.429 . S
C715 H737 0.951 . S
C716 H712 0.949 . S
C716 C724 1.574 1_565 S
C716 C732 1.368 . S
H717 C725 0.950 . S
H718 C723 0.950 . S
H719 C724 0.949 . S
H720 C726 0.950 . S
H721 C727 0.950 . S
H722 C728 0.949 . S
C723 H718 0.950 . S
C723 C725 1.327 . S
C723 C729 1.429 . S
C724 C716 1.574 1_545 S
C724 H719 0.949 . S
C724 C730 1.368 . S
C725 C709 1.349 . S
C725 H717 0.950 . S
C725 C723 1.327 . S
C726 C714 1.349 . S
C726 H720 0.950 . S
C726 C727 1.327 . S
C727 H721 0.950 . S
C727 C726 1.327 . S
C727 C731 1.429 . S
C728 C711 1.574 1_565 S
C728 H722 0.949 . S
C728 C732 1.368 . S
C729 C710 1.429 . S
C729 C723 1.429 . S
C729 C730 1.523 . S
C730 C711 1.368 . S
C730 C724 1.368 . S
C730 C729 1.523 . S
C731 C715 1.429 . S
C731 C727 1.429 . S
C731 C732 1.523 . S
C732 C716 1.368 . S
C732 C728 1.368 . S
C732 C731 1.523 . S
H733 C708 0.950 . S
H734 C710 0.950 . S
H735 C711 0.949 . S
H736 C713 0.935 1_556 S
H737 C715 0.951 . S
C738 C739 1.349 . S
C738 C740 1.327 . S
C738 H763 0.950 . S
C739 C738 1.349 . S
C739 C755 1.349 . S
C740 C738 1.327 . S
C740 C759 1.429 . S
C740 H764 0.950 . S
C741 C758 1.574 . S
C741 C760 1.368 . S
C741 H765 0.949 . S
H742 C746 0.949 . S
C743 C744 1.349 . S
C743 C745 1.327 . S
C743 H766 0.950 . S
C744 C743 1.349 . S
C744 C756 1.349 . S
C745 C743 1.327 . S
C745 C761 1.429 . S
C745 H767 0.950 . S
C746 H742 0.949 . S
C746 C754 1.574 . S
C746 C762 1.368 . S
H747 C755 0.950 . S
H748 C753 0.950 . S
H749 C754 0.949 . S
H750 C756 0.950 . S
H751 C757 0.950 . S
H752 C758 0.949 . S
C753 H748 0.950 . S
C753 C755 1.327 . S
C753 C759 1.429 . S
C754 C746 1.574 . S
C754 H749 0.949 . S
C754 C760 1.368 . S
C755 C739 1.349 . S
C755 H747 0.950 . S
C755 C753 1.327 . S
C756 C744 1.349 . S
C756 H750 0.950 . S
C756 C757 1.327 . S
C757 H751 0.950 . S
C757 C756 1.327 . S
C757 C761 1.429 . S
C758 C741 1.574 . S
C758 H752 0.949 . S
C758 C762 1.368 . S
C759 C740 1.429 . S
C759 C753 1.429 . S
C759 C760 1.523 . S
C760 C741 1.368 . S
C760 C754 1.368 . S
C760 C759 1.523 . S
C761 C745 1.429 . S
C761 C757 1.429 . S
C761 C762 1.523 . S
C762 C746 1.368 . S
C762 C758 1.368 . S
C762 C761 1.523 . S
H763 C738 0.950 . S
H764 C740 0.950 . S
H765 C741 0.949 . S
H766 C743 0.950 . S
H767 C745 0.950 . S
C768 C769 1.349 . S
C768 C770 1.327 . S
C768 H793 0.950 . S
C769 C768 1.349 . S
C769 C785 1.349 . S
C770 C768 1.327 . S
C770 C789 1.429 . S
C770 H794 0.950 . S
C771 C788 1.574 1_455 S
C771 C790 1.368 . S
C771 H795 0.949 . S
H772 C776 0.949 . S
C773 C774 1.349 . S
C773 C775 1.327 . S
C773 H796 0.950 . S
C774 C773 1.349 . S
C774 C786 1.349 . S
C775 C773 1.327 . S
C775 C791 1.429 . S
C775 H797 0.950 . S
C776 H772 0.949 . S
C776 C784 1.574 1_655 S
C776 C792 1.368 . S
H777 C785 0.950 . S
H778 C783 0.950 . S
H779 C784 0.949 . S
H780 C786 0.950 . S
H781 C787 0.950 . S
H782 C788 0.949 . S
C783 H778 0.950 . S
C783 C785 1.327 . S
C783 C789 1.429 . S
C784 C776 1.574 1_455 S
C784 H779 0.949 . S
C784 C790 1.368 . S
C785 C769 1.349 . S
C785 H777 0.950 . S
C785 C783 1.327 . S
C786 C774 1.349 . S
C786 H780 0.950 . S
C786 C787 1.327 . S
C787 H781 0.950 . S
C787 C786 1.327 . S
C787 C791 1.429 . S
C788 C771 1.574 1_655 S
C788 H782 0.949 . S
C788 C792 1.368 . S
C789 C770 1.429 . S
C789 C783 1.429 . S
C789 C790 1.523 . S
C790 C771 1.368 . S
C790 C784 1.368 . S
C790 C789 1.523 . S
C791 C775 1.429 . S
C791 C787 1.429 . S
C791 C792 1.523 . S
C792 C776 1.368 . S
C792 C788 1.368 . S
C792 C791 1.523 . S
H793 C768 0.950 . S
H794 C770 0.950 . S
H795 C771 0.949 . S
H796 C773 0.950 . S
H797 C775 0.950 . S
C798 C799 1.349 . S
C798 C800 1.327 . S
C798 H823 0.950 . S
C799 C798 1.349 . S
C799 C815 1.349 . S
C800 C798 1.327 . S
C800 C819 1.429 . S
C800 H824 0.950 . S
C801 C818 1.574 1_565 S
C801 C820 1.368 . S
C801 H825 0.949 . S
H802 C806 0.949 . S
C803 C804 1.349 . S
C803 C805 1.327 . S
C803 H826 0.950 . S
C804 C803 1.349 . S
C804 C816 1.349 . S
C805 C803 1.327 . S
C805 C821 1.429 . S
C805 H827 0.950 . S
C806 H802 0.949 . S
C806 C814 1.574 1_545 S
C806 C822 1.368 . S
H807 C815 0.950 . S
H808 C813 0.950 . S
H809 C814 0.949 . S
H810 C816 0.950 . S
H811 C817 0.950 . S
H812 C818 0.949 . S
C813 H808 0.950 . S
C813 C815 1.327 . S
C813 C819 1.429 . S
C814 C806 1.574 1_565 S
C814 H809 0.949 . S
C814 C820 1.368 . S
C815 C799 1.349 . S
C815 H807 0.950 . S
C815 C813 1.327 . S
C816 C804 1.349 . S
C816 H810 0.950 . S
C816 C817 1.327 . S
C817 H811 0.950 . S
C817 C816 1.327 . S
C817 C821 1.429 . S
C818 C801 1.574 1_545 S
C818 H812 0.949 . S
C818 C822 1.368 . S
C819 C800 1.429 . S
C819 C813 1.429 . S
C819 C820 1.523 . S
C820 C801 1.368 . S
C820 C814 1.368 . S
C820 C819 1.523 . S
C821 C805 1.429 . S
C821 C817 1.429 . S
C821 C822 1.523 . S
C822 C806 1.368 . S
C822 C818 1.368 . S
C822 C821 1.523 . S
H823 C798 0.950 . S
H824 C800 0.950 . S
H825 C801 0.949 . S
H826 C803 0.950 . S
H827 C805 0.950 . S
C828 C829 1.349 . S
C828 C830 1.327 . S
C828 H853 0.950 . S
C829 C828 1.349 . S
C829 C845 1.349 . S
C830 C828 1.327 . S
C830 C849 1.429 . S
C830 H854 0.950 . S
C831 C848 1.574 . S
C831 C850 1.368 . S
C831 H855 0.949 . S
H832 C836 0.949 . S
C833 C834 1.349 . S
C833 C835 1.327 . S
C833 H856 0.950 . S
C834 C833 1.349 . S
C834 C846 1.349 . S
C835 C833 1.327 . S
C835 C851 1.429 . S
C835 H857 0.950 . S
C836 H832 0.949 . S
C836 C844 1.574 . S
C836 C852 1.368 . S
H837 C845 0.950 . S
H838 C843 0.950 . S
H839 C844 0.949 . S
H840 C846 0.950 . S
H841 C847 0.950 . S
H842 C848 0.949 . S
C843 H838 0.950 . S
C843 C845 1.327 . S
C843 C849 1.429 . S
C844 C836 1.574 . S
C844 H839 0.949 . S
C844 C850 1.368 . S
C845 C829 1.349 . S
C845 H837 0.950 . S
C845 C843 1.327 . S
C846 C834 1.349 . S
C846 H840 0.950 . S
C846 C847 1.327 . S
C847 H841 0.950 . S
C847 C846 1.327 . S
C847 C851 1.429 . S
C848 C831 1.574 . S
C848 H842 0.949 . S
C848 C852 1.368 . S
C849 C830 1.429 . S
C849 C843 1.429 . S
C849 C850 1.523 . S
C850 C831 1.368 . S
C850 C844 1.368 . S
C850 C849 1.523 . S
C851 C835 1.429 . S
C851 C847 1.429 . S
C851 C852 1.523 . S
C852 C836 1.368 . S
C852 C848 1.368 . S
C852 C851 1.523 . S
H853 C828 0.950 . S
H854 C830 0.950 . S
H855 C831 0.949 . S
H856 C833 0.950 . S
H857 C835 0.950 . S
C858 C859 1.349 . S
C858 C860 1.327 . S
C858 H883 0.950 . S
C859 C858 1.349 . S
C859 C875 1.349 . S
C860 C858 1.327 . S
C860 C879 1.429 . S
C860 H884 0.950 . S
C861 C878 1.574 1_455 S
C861 C880 1.368 . S
C861 H885 0.949 . S
H862 C866 0.949 . S
C863 C864 1.349 . S
C863 C865 1.327 . S
C863 H886 0.950 . S
C864 C863 1.349 . S
C864 C876 1.349 . S
C865 C863 1.327 . S
C865 C881 1.429 . S
C865 H887 0.950 . S
C866 H862 0.949 . S
C866 C874 1.574 1_655 S
C866 C882 1.368 . S
H867 C875 0.950 . S
H868 C873 0.950 . S
H869 C874 0.949 . S
H870 C876 0.950 . S
H871 C877 0.950 . S
H872 C878 0.949 . S
C873 H868 0.950 . S
C873 C875 1.327 . S
C873 C879 1.429 . S
C874 C866 1.574 1_455 S
C874 H869 0.949 . S
C874 C880 1.368 . S
C875 C859 1.349 . S
C875 H867 0.950 . S
C875 C873 1.327 . S
C876 C864 1.349 . S
C876 H870 0.950 . S
C876 C877 1.327 . S
C877 H871 0.950 . S
C877 C876 1.327 . S
C877 C881 1.429 . S
C878 C861 1.574 1_655 S
C878 H872 0.949 . S
C878 C882 1.368 . S
C879 C860 1.429 . S
C879 C873 1.429 . S
C879 C880 1.523 . S
C880 C861 1.368 . S
C880 C874 1.368 . S
C880 C879 1.523 . S
C881 C865 1.429 . S
C881 C877 1.429 . S
C881 C882 1.523 . S
C882 C866 1.368 . S
C882 C878 1.368 . S
C882 C881 1.523 . S
H883 C858 0.950 . S
H884 C860 0.950 . S
H885 C861 0.949 . S
H886 C863 0.950 . S
H887 C865 0.950 . S
C169 C9 1.026 . S
C174 C149 1.026 . S
C199 C23 1.026 . S
C204 C163 1.026 . S
C229 C93 1.027 . S
C234 C37 1.027 . S
C259 C51 1.027 . S
C264 C107 1.027 . S
C289 C121 1.027 . S
C294 C65 1.027 . S
C319 C135 1.027 . S
C324 C79 1.027 . S
C349 C123 1.285 . S
C354 C11 1.285 . S
C379 C25 1.285 . S
C384 C137 1.285 . S
C409 C151 1.285 . S
C414 C39 1.285 . S
C439 C53 1.285 . S
C444 C165 1.285 . S
C469 C67 1.285 . S
C474 C95 1.285 . S
C499 C81 1.285 . S
C504 C109 1.285 . S
C529 C140 1.639 . S
C534 C0 1.639 . S
C559 C154 1.639 . S
C564 C14 1.639 . S
C589 C84 1.639 . S
C594 C28 1.639 . S
C619 C42 1.639 . S
C624 C98 1.639 . S
C649 C56 1.639 . S
C654 C112 1.639 . S
C679 C126 1.639 . S
C684 C70 1.639 . S
C709 C5 1.266 . S
C714 C103 1.266 . S
C739 C117 1.266 . S
C744 C19 1.266 . S
C769 C131 1.266 . S
C774 C33 1.266 . S
C799 C47 1.266 . S
C804 C145 1.266 . S
C829 C61 1.266 . S
C834 C159 1.266 . S
C859 C75 1.266 . S
C864 C89 1.266 . S
