# Generated by pormake.
# Topology sva, (7)-cn, num edge types: 1
# Building blocks:
#     Node 0, Type 0, BuildingBlock: HICVOG_clean_sbu_0, # of connection points: 7
#     Node 1, Type 0, BuildingBlock: HICVOG_clean_sbu_0, # of connection points: 7
#     Node 2, Type 0, BuildingBlock: HICVOG_clean_sbu_0, # of connection points: 7
#     Node 3, Type 0, BuildingBlock: HICVOG_clean_sbu_0, # of connection points: 7
#     Node 4, Type 0, BuildingBlock: HICVOG_clean_sbu_0, # of connection points: 7
#     Node 5, Type 0, BuildingBlock: HICVOG_clean_sbu_0, # of connection points: 7
#     Node 6, Type 0, BuildingBlock: HICVOG_clean_sbu_0, # of connection points: 7
#     Node 7, Type 0, BuildingBlock: HICVOG_clean_sbu_0, # of connection points: 7
#     Edge 8, Type (0, 0), BuildingBlock: CIFDUS_clean_linker_0, # of connection points: 2
#     Edge 9, Type (0, 0), BuildingBlock: CIFDUS_clean_linker_0, # of connection points: 2
#     Edge 10, Type (0, 0), BuildingBlock: CIFDUS_clean_linker_0, # of connection points: 2
#     Edge 11, Type (0, 0), BuildingBlock: CIFDUS_clean_linker_0, # of connection points: 2
#     Edge 12, Type (0, 0), BuildingBlock: CIFDUS_clean_linker_0, # of connection points: 2
#     Edge 13, Type (0, 0), BuildingBlock: CIFDUS_clean_linker_0, # of connection points: 2
#     Edge 14, Type (0, 0), BuildingBlock: CIFDUS_clean_linker_0, # of connection points: 2
#     Edge 15, Type (0, 0), BuildingBlock: CIFDUS_clean_linker_0, # of connection points: 2
#     Edge 16, Type (0, 0), BuildingBlock: CIFDUS_clean_linker_0, # of connection points: 2
#     Edge 17, Type (0, 0), BuildingBlock: CIFDUS_clean_linker_0, # of connection points: 2
#     Edge 18, Type (0, 0), BuildingBlock: CIFDUS_clean_linker_0, # of connection points: 2
#     Edge 19, Type (0, 0), BuildingBlock: CIFDUS_clean_linker_0, # of connection points: 2
#     Edge 20, Type (0, 0), BuildingBlock: CIFDUS_clean_linker_0, # of connection points: 2
#     Edge 21, Type (0, 0), BuildingBlock: CIFDUS_clean_linker_0, # of connection points: 2
#     Edge 22, Type (0, 0), BuildingBlock: CIFDUS_clean_linker_0, # of connection points: 2
#     Edge 23, Type (0, 0), BuildingBlock: CIFDUS_clean_linker_0, # of connection points: 2
#     Edge 24, Type (0, 0), BuildingBlock: CIFDUS_clean_linker_0, # of connection points: 2
#     Edge 25, Type (0, 0), BuildingBlock: CIFDUS_clean_linker_0, # of connection points: 2
#     Edge 26, Type (0, 0), BuildingBlock: CIFDUS_clean_linker_0, # of connection points: 2
#     Edge 27, Type (0, 0), BuildingBlock: CIFDUS_clean_linker_0, # of connection points: 2
#     Edge 28, Type (0, 0), BuildingBlock: CIFDUS_clean_linker_0, # of connection points: 2
#     Edge 29, Type (0, 0), BuildingBlock: CIFDUS_clean_linker_0, # of connection points: 2
#     Edge 30, Type (0, 0), BuildingBlock: CIFDUS_clean_linker_0, # of connection points: 2
#     Edge 31, Type (0, 0), BuildingBlock: CIFDUS_clean_linker_0, # of connection points: 2
#     Edge 32, Type (0, 0), BuildingBlock: CIFDUS_clean_linker_0, # of connection points: 2
#     Edge 33, Type (0, 0), BuildingBlock: CIFDUS_clean_linker_0, # of connection points: 2
#     Edge 34, Type (0, 0), BuildingBlock: CIFDUS_clean_linker_0, # of connection points: 2
#     Edge 35, Type (0, 0), BuildingBlock: CIFDUS_clean_linker_0, # of connection points: 2
# Relax obj value: 0.239
# Max RMSD: 0.273
# Mean RMSD: 0.273
data_MOF--net-sva--node1-HICVOG_clean_sbu_0--edge1-CIFDUS_clean_linker_0
_symmetry_space_group_name_H-M    P1
_symmetry_Int_Tables_number       1
_symmetry_cell_setting            triclinic
loop_
_symmetry_equiv_pos_as_xyz
'x, y, z'
_cell_length_a     35.615356
_cell_length_b     35.736292
_cell_length_c     18.61345
_cell_angle_alpha  89.952036
_cell_angle_beta   90.270664
_cell_angle_gamma 89.832155
loop_
_atom_site_label
_atom_site_type_symbol
_atom_site_fract_x
_atom_site_fract_y
_atom_site_fract_z
_atom_type_partial_charge
Zn0 Zn 0.06395 0.20073 0.88182 0.0
C1 C 0.11191 0.25273 0.05026 0.0
N2 N 0.14261 0.23365 0.02949 0.0
C3 C 0.12944 0.21183 0.97642 0.0
N4 N 0.0924 0.21795 0.96428 0.0
N5 N 0.08099 0.24305 0.01204 0.0
C6 C 0.97946 0.30404 0.09619 0.0
O7 O 0.96185 0.27269 0.11076 0.0
O8 O 0.07536 0.14714 0.8581 0.0
Zn9 Zn 0.02901 0.24874 0.04728 0.0
N10 N 0.07237 0.23461 0.80294 0.0
C11 C 0.08705 0.29573 0.76132 0.0
C12 C 0.08115 0.27078 0.81768 0.0
C13 C 0.06926 0.22223 0.73428 0.0
N14 N 0.08396 0.28344 0.69257 0.0
C15 C 0.07541 0.24719 0.67713 0.0
O16 O 0.98638 0.22525 0.98935 0.0
C17 C 0.98148 0.20469 0.93447 0.0
O18 O 1.0087 0.1955 0.89476 0.0
H19 H 0.08338 0.28017 0.87274 0.0
H20 H 0.06144 0.19341 0.72492 0.0
C21 C 0.03444 0.23489 0.2003 0.0
C22 C 0.03421 0.21157 0.26129 0.0
C23 C 1.01947 0.15968 0.18664 0.0
C24 C 0.01997 0.18283 0.12663 0.0
N25 N 0.02763 0.21981 0.13453 0.0
N26 N 0.02671 0.1745 0.25223 0.0
H27 H 0.04075 0.26438 0.2042 0.0
C28 C 0.06467 0.12742 0.91087 0.0
O29 O 0.05748 0.14422 0.97203 0.0
O30 O 1.01211 0.30213 0.06846 0.0
H31 H 1.01439 0.17141 0.07397 0.0
H32 H 0.09394 0.32466 0.77206 0.0
H33 H 1.01354 0.13014 0.18122 0.0
Zn34 Zn 0.84954 0.56159 0.12198 0.0
C35 C 0.79224 0.60754 0.28453 0.0
N36 N 0.81162 0.63853 0.26705 0.0
C37 C 0.83576 0.62595 0.21724 0.0
N38 N 0.83075 0.58912 0.20378 0.0
N39 N 0.80401 0.57723 0.24743 0.0
C40 C 0.74672 0.47928 0.34856 0.0
O41 O 0.77831 0.4623 0.36565 0.0
O42 O 0.90376 0.57268 0.10122 0.0
Zn43 Zn 0.80082 0.52624 0.2863 0.0
N44 N 0.81643 0.57053 0.0412 0.0
C45 C 0.75557 0.5866 -0.00213 0.0
C46 C 0.78011 0.57972 0.05486 0.0
C47 C 0.82933 0.56788 0.97284 0.0
N48 N 0.76838 0.58401 0.92952 0.0
C49 C 0.80474 0.57499 0.91496 0.0
O50 O 0.82413 0.48339 0.22935 0.0
C51 C 0.84518 0.47919 0.17498 0.0
O52 O 0.85438 0.50669 0.13611 0.0
H53 H 0.77027 0.58162 0.10958 0.0
H54 H 0.85824 0.55974 0.96431 0.0
C55 C 0.81659 0.53696 0.43711 0.0
C56 C 0.83999 0.53692 0.4983 0.0
C57 C 0.89129 0.51811 0.42536 0.0
C58 C 0.86788 0.51769 0.3654 0.0
N59 N 0.83113 0.52721 0.37236 0.0
N60 N 0.87685 0.5276 0.4901 0.0
H61 H 0.7873 0.54475 0.4401 0.0
C62 C 0.92324 0.5614 0.15433 0.0
O63 O 0.90598 0.55369 0.21472 0.0
O64 O 0.74821 0.50979 0.31311 0.0
H65 H 0.87887 0.50972 0.31365 0.0
H66 H 0.72655 0.59388 0.00781 0.0
H67 H 0.92066 0.51074 0.42067 0.0
Zn68 Zn 0.49029 0.35197 0.40603 0.0
C69 C 0.44294 0.29343 0.56532 0.0
N70 N 0.41116 0.3091 0.5394 0.0
C71 C 0.424 0.33215 0.48831 0.0
N72 N 0.46173 0.33013 0.48249 0.0
N73 N 0.47406 0.3063 0.53189 0.0
C74 C 0.57775 0.25952 0.64145 0.0
O75 O 0.59063 0.29305 0.65638 0.0
O76 O 0.4726 0.40368 0.38175 0.0
Zn77 Zn 0.52504 0.3072 0.57447 0.0
N78 N 0.48938 0.318 0.32621 0.0
C79 C 0.4887 0.2554 0.28325 0.0
C80 C 0.48917 0.28068 0.34014 0.0
C81 C 0.48918 0.33126 0.25791 0.0
N82 N 0.48843 0.26856 0.21483 0.0
C83 C 0.48843 0.30593 0.20032 0.0
O84 O 0.56739 0.33305 0.52015 0.0
C85 C 0.57103 0.35488 0.46675 0.0
O86 O 0.54354 0.36251 0.42616 0.0
H87 H 0.48952 0.2707 0.395 0.0
H88 H 0.49011 0.36118 0.24917 0.0
C89 C 0.51739 0.32439 0.72428 0.0
C90 C 0.51355 0.34867 0.78308 0.0
C91 C 0.51327 0.40048 0.70299 0.0
C92 C 0.51755 0.37625 0.64508 0.0
N93 N 0.51951 0.33879 0.65698 0.0
N94 N 0.5114 0.38619 0.77043 0.0
H95 H 0.51811 0.29437 0.73116 0.0
C96 C 0.46515 0.42454 0.43507 0.0
O97 O 0.4616 0.40931 0.49887 0.0
O98 O 0.54713 0.25676 0.60581 0.0
H99 H 0.51925 0.38708 0.59093 0.0
H100 H 0.48864 0.22558 0.29328 0.0
H101 H 0.51153 0.43039 0.69452 0.0
Zn102 Zn 0.7452 0.02664 0.80066 0.0
C103 C 0.71711 0.92308 0.72953 0.0
N104 N 0.7394 0.91172 0.7835 0.0
C105 C 0.7556 0.9438 0.8053 0.0
N106 N 0.74354 0.97385 0.76695 0.0
N107 N 0.72 0.96027 0.71815 0.0
C108 C 0.6262 0.965 0.66679 0.0
O109 O 0.64117 0.96529 0.73138 0.0
O110 O 0.79825 0.04614 0.82004 0.0
Zn111 Zn 0.69941 0.98637 0.63714 0.0
N112 N 0.71729 0.02554 0.88864 0.0
C113 C 0.65645 0.0254 0.94047 0.0
C114 C 0.67938 0.02641 0.8803 0.0
C115 C 0.73343 0.02329 0.95481 0.0
N116 N 0.6724 0.02288 0.00655 0.0
C117 C 0.71035 0.02152 0.01586 0.0
O118 O 0.68855 0.03918 0.65406 0.0
C119 C 0.69411 0.06836 0.69061 0.0
O120 O 0.71631 0.06784 0.74443 0.0
H121 H 0.66712 0.02783 0.8271 0.0
H122 H 0.76372 0.02288 0.9593 0.0
C123 C 0.72252 0.99358 0.49173 0.0
C124 C 0.74849 0.99427 0.43496 0.0
C125 C 0.79618 0.97374 0.5158 0.0
C126 C 0.77044 0.97378 0.57186 0.0
N127 N 0.7342 0.98365 0.55856 0.0
N128 N 0.78468 0.98402 0.44902 0.0
H129 H 0.69327 1.0006 0.48385 0.0
C130 C 0.8009 0.07854 0.84838 0.0
O131 O 0.76988 0.09651 0.86493 0.0
O132 O 0.64728 0.96954 0.61263 0.0
H133 H 0.77933 0.96628 0.6256 0.0
H134 H 0.62621 0.02624 0.93479 0.0
H135 H 0.82514 0.96591 0.52531 0.0
Zn136 Zn 0.57264 0.69125 0.40606 0.0
C137 C 0.61314 0.749 0.5752 0.0
N138 N 0.64493 0.73036 0.56081 0.0
C139 C 0.63458 0.70643 0.50893 0.0
N140 N 0.59787 0.71097 0.49091 0.0
N141 N 0.58405 0.73719 0.53421 0.0
C142 C 0.48141 0.79789 0.61521 0.0
O143 O 0.46345 0.76683 0.63046 0.0
O144 O 0.58336 0.63696 0.39127 0.0
Zn145 Zn 0.53126 0.74201 0.56536 0.0
N146 N 0.58601 0.7209 0.32275 0.0
C147 C 0.61266 0.77634 0.27423 0.0
C148 C 0.60367 0.75413 0.3332 0.0
C149 C 0.57703 0.70886 0.25553 0.0
N150 N 0.60363 0.76444 0.20713 0.0
C151 C 0.58613 0.73114 0.19559 0.0
O152 O 0.49092 0.71885 0.50142 0.0
C153 C 0.48786 0.69792 0.4465 0.0
O154 O 0.51644 0.6878 0.41111 0.0
H155 H 0.61047 0.76344 0.38694 0.0
H156 H 0.56228 0.68263 0.24951 0.0
C157 C 0.53565 0.72664 0.71914 0.0
C158 C 0.53361 0.70302 0.7799 0.0
C159 C 0.51409 0.65319 0.70381 0.0
C160 C 0.51666 0.67651 0.64429 0.0
N161 N 0.52755 0.71263 0.65286 0.0
N162 N 0.52274 0.66687 0.76969 0.0
H163 H 0.54404 0.75554 0.72344 0.0
C164 C 0.56898 0.61869 0.44262 0.0
O165 O 0.55948 0.63685 0.50114 0.0
O166 O 0.5138 0.79546 0.58645 0.0
H167 H 0.51007 0.66584 0.59148 0.0
H168 H 0.62659 0.80293 0.28169 0.0
H169 H 0.50552 0.62434 0.69776 0.0
Zn170 Zn 0.35229 0.0569 0.64552 0.0
C171 C 0.30202 0.10558 0.81417 0.0
N172 N 0.32105 0.13598 0.79232 0.0
C173 C 0.34241 0.1225 0.73897 0.0
N174 N 0.33605 0.08569 0.72757 0.0
N175 N 0.31129 0.07467 0.77611 0.0
C176 C 0.25097 0.97555 0.86673 0.0
O177 O 0.28206 0.95766 0.88374 0.0
O178 O 0.40513 0.06894 0.61743 0.0
Zn179 Zn 0.3067 0.02339 0.81358 0.0
N180 N 0.31685 0.06385 0.56825 0.0
C181 C 0.25438 0.07495 0.5279 0.0
C182 C 0.28011 0.06995 0.58378 0.0
C183 C 0.32907 0.06262 0.49938 0.0
N184 N 0.26652 0.07375 0.45889 0.0
C185 C 0.30335 0.06796 0.4428 0.0
O186 O 0.3312 0.98043 0.7583 0.0
C187 C 0.35135 0.97543 0.70295 0.0
O188 O 0.35916 1.00226 0.66137 0.0
H189 H 0.27092 0.07079 0.63905 0.0
H190 H 0.35843 0.05695 0.48939 0.0
C191 C 0.31973 0.0301 0.96635 0.0
C192 C 0.34282 0.03118 0.02782 0.0
C193 C 0.39599 0.01897 0.95473 0.0
C194 C 0.37301 1.01802 0.89419 0.0
N195 N 0.33549 0.02374 0.90115 0.0
N196 N 0.38044 0.02562 0.01983 0.0
H197 H 0.28983 0.03503 0.96946 0.0
C198 C 0.42645 0.05883 0.66873 0.0
O199 O 0.41137 0.052 0.73164 0.0
O200 O 0.25342 1.00717 0.83535 0.0
H201 H 0.38495 1.0129 0.84186 0.0
H202 H 0.22498 0.07969 0.53923 0.0
H203 H 0.42595 1.0146 0.95012 0.0
Zn204 Zn 0.99089 0.85283 0.89889 0.0
C205 C 0.94073 0.79931 0.0616 0.0
N206 N 0.90998 0.81769 0.03803 0.0
C207 C 0.92371 0.83953 0.9857 0.0
N208 N 0.96101 0.83419 0.97695 0.0
N209 N 0.97201 0.80927 0.02551 0.0
C210 C 0.07181 0.74845 0.12007 0.0
O211 O 0.08957 0.77944 0.1368 0.0
O212 O 0.97746 0.90556 0.87218 0.0
Zn213 Zn 0.02306 0.80426 0.0655 0.0
N214 N 0.98703 0.81789 0.82067 0.0
C215 C 0.98168 0.75486 0.78126 0.0
C216 C 0.98438 0.78089 0.83668 0.0
C217 C 0.98713 0.83007 0.75163 0.0
N218 N 0.98171 0.76695 0.71212 0.0
C219 C 0.98414 0.80398 0.69545 0.0
O220 O 0.06684 0.82845 0.01272 0.0
C221 C 0.07166 0.85061 0.96019 0.0
O222 O 0.04467 0.86003 0.91971 0.0
H223 H 0.98454 0.77172 0.89206 0.0
H224 H 0.99008 0.8597 0.7412 0.0
C225 C 1.01662 0.81833 0.21785 0.0
C226 C 1.01413 0.84207 0.27788 0.0
C227 C 0.02041 0.8948 0.20101 0.0
C228 C 0.02289 0.87117 0.14193 0.0
N229 N 0.021 0.83355 0.15156 0.0
N230 N 1.01606 0.87976 0.26733 0.0
H231 H 1.01422 0.78829 0.22293 0.0
C232 C 0.97262 0.92732 0.92524 0.0
O233 O 0.97076 0.91311 0.99019 0.0
O234 O 0.03985 0.75096 0.08909 0.0
H235 H 0.02598 0.88264 0.08852 0.0
H236 H 0.97967 0.72529 0.79301 0.0
H237 H 0.02176 0.92483 0.19432 0.0
Zn238 Zn 0.25089 0.52173 0.30909 0.0
C239 C 0.21563 0.42216 0.22923 0.0
N240 N 0.23833 0.40815 0.28035 0.0
C241 C 0.25622 0.43871 0.30499 0.0
N242 N 0.24506 0.47036 0.27078 0.0
N243 N 0.21992 0.4596 0.2222 0.0
C244 C 0.12551 0.4706 0.17148 0.0
O245 O 0.14004 0.46816 0.23629 0.0
O246 O 0.30499 0.53822 0.33083 0.0
Zn247 Zn 0.19999 0.48981 0.14502 0.0
N248 N 0.22193 0.52054 0.39564 0.0
C249 C 0.16021 0.51945 0.44342 0.0
C250 C 0.18419 0.5214 0.3849 0.0
C251 C 0.23695 0.51777 0.46267 0.0
N252 N 0.17502 0.51638 0.51036 0.0
C253 C 0.2128 0.51544 0.52215 0.0
O254 O 0.19159 0.54319 0.1668 0.0
C255 C 0.20173 0.5702 0.20602 0.0
O256 O 0.22561 0.56559 0.25629 0.0
H257 H 0.17289 0.52326 0.33099 0.0
H258 H 0.26712 0.51621 0.46875 0.0
C259 C 0.22274 0.48787 -0.00267 0.0
C260 C 0.24906 0.48591 0.94136 0.0
C261 C 0.29829 0.48335 0.02769 0.0
C262 C 0.27207 0.48506 0.08285 0.0
N263 N 0.2349 0.48725 0.06652 0.0
N264 N 0.28624 0.48389 0.95844 0.0
H265 H 0.19296 0.49046 0.98665 0.0
C266 C 0.30798 0.57094 0.35782 0.0
O267 O 0.27708 0.58965 0.37199 0.0
O268 O 0.14717 0.47586 0.11842 0.0
H269 H 0.28124 0.48485 0.1383 0.0
H270 H 0.13009 0.52003 0.4358 0.0
H271 H 0.328 0.4817 0.03974 0.0
H272 H 0.02084 0.96139 0.83447 0.0
H273 H 0.94056 0.98271 0.00249 0.0
H274 H 0.96178 0.04755 0.01084 0.0
H275 H 1.00719 0.0955 0.97958 0.0
H276 H 0.08891 0.07506 0.81377 0.0
H277 H 0.06346 1.01189 0.79583 0.0
C278 C 1.00735 0.9806 0.87142 0.0
C279 C 0.97914 0.96762 0.91775 0.0
C280 C 0.0207 1.01735 0.87776 0.0
C281 C 0.96226 0.99236 0.96636 0.0
C282 C 0.97461 0.0292 0.97157 0.0
C283 C 1.01966 0.07714 0.9398 0.0
C284 C 0.05045 0.08932 0.89924 0.0
C285 C 1.00465 0.04149 0.9294 0.0
C286 C 0.06552 0.06585 0.84626 0.0
C287 C 0.05088 0.02994 0.83586 0.0
H288 H 0.95634 0.50488 0.22542 0.0
H289 H 0.97565 0.58569 0.05743 0.0
H290 H 0.03939 0.56081 0.0407 0.0
H291 H 0.09059 0.51865 0.08022 0.0
H292 H 0.07032 0.43907 0.25 0.0
H293 H 1.00513 0.4601 0.2581 0.0
C294 C 0.97456 0.5173 0.18544 0.0
C295 C 0.96182 0.54763 0.14382 0.0
C296 C 1.01057 0.50257 0.17564 0.0
C297 C 0.98522 0.56264 0.09071 0.0
C298 C 0.02147 0.54831 0.08098 0.0
C299 C 0.07155 0.50528 0.11757 0.0
C300 C 0.08496 0.47728 0.16438 0.0
C301 C 0.03453 0.51848 0.12366 0.0
C302 C 0.06039 0.4606 0.21348 0.0
C303 C 0.02332 0.47284 0.21854 0.0
H304 H 0.50983 0.588 0.50962 0.0
H305 H 0.59063 0.56729 0.34207 0.0
H306 H 0.56063 0.50717 0.31575 0.0
H307 H 0.51483 0.45871 0.34767 0.0
H308 H 0.43528 0.4795 0.51726 0.0
H309 H 0.46081 0.54234 0.53407 0.0
C310 C 0.52125 0.57014 0.46792 0.0
C311 C 0.55297 0.58148 0.42903 0.0
C312 C 0.50373 0.5361 0.45275 0.0
C313 C 0.56664 0.55869 0.37354 0.0
C314 C 0.54941 0.52451 0.3583 0.0
C315 C 0.50237 0.47743 0.38682 0.0
C316 C 0.47325 0.46472 0.43127 0.0
C317 C 0.51822 0.51278 0.39816 0.0
C318 C 0.4577 0.48891 0.48252 0.0
C319 C 0.47255 0.52455 0.49267 0.0
H320 H 0.59041 1.01323 0.57796 0.0
H321 H 0.57209 0.93175 0.74514 0.0
H322 H 0.50734 0.95348 0.75852 0.0
H323 H 0.45929 1.00023 0.7331 0.0
H324 H 0.47677 0.08304 0.56802 0.0
H325 H 0.53933 0.05677 0.54419 0.0
C326 C 0.57179 0.99954 0.61566 0.0
C327 C 0.58562 0.97091 0.66047 0.0
C328 C 0.53522 1.01327 0.6251 0.0
C329 C 0.56172 0.95375 0.71012 0.0
C330 C 0.52498 0.96644 0.71829 0.0
C331 C 0.47687 1.01271 0.69213 0.0
C332 C 0.46412 0.04409 0.65357 0.0
C333 C 0.51206 0.99712 0.67815 0.0
C334 C 0.48649 0.05921 0.59902 0.0
C335 C 0.52201 0.04407 0.5852 0.0
H336 H 0.23296 0.11992 0.76542 0.0
H337 H 0.29743 0.10739 0.95999 0.0
H338 H 0.24635 0.13552 0.02939 0.0
H339 H 0.18764 0.1723 0.03122 0.0
H340 H 0.12892 0.19389 0.83284 0.0
H341 H 0.1728 0.15392 0.76822 0.0
C342 C 0.23497 0.12195 0.8235 0.0
C343 C 0.2681 0.11011 0.85823 0.0
C344 C 0.20671 0.14076 0.86188 0.0
C345 C 0.27146 0.11464 0.9328 0.0
C346 C 0.24256 0.1315 0.97211 0.0
C347 C 0.18417 0.1678 0.97395 0.0
C348 C 0.15416 0.18529 0.93719 0.0
C349 C 0.21072 0.14601 0.93674 0.0
C350 C 0.15054 0.17969 0.86296 0.0
C351 C 0.17606 0.15711 0.82581 0.0
H352 H 0.87289 0.6846 0.2751 0.0
H353 H 0.85667 0.62577 0.0758 0.0
H354 H 0.89714 0.66991 0.01404 0.0
H355 H 0.92961 0.73034 0.01303 0.0
H356 H 0.93755 0.79484 0.20748 0.0
H357 H 0.90903 0.74353 0.27555 0.0
C358 C 0.87872 0.68121 0.21832 0.0
C359 C 0.86257 0.65111 0.18042 0.0
C360 C 0.90084 0.70791 0.18259 0.0
C361 C 0.86984 0.64748 0.10683 0.0
C362 C 0.89272 0.67315 0.07127 0.0
C363 C 0.9265 0.73233 0.0709 0.0
C364 C 0.93675 0.76557 0.10594 0.0
C365 C 0.90767 0.70391 0.10824 0.0
C366 C 0.93112 0.76887 0.18016 0.0
C367 C 0.91413 0.73983 0.21864 0.0
H368 H 0.36564 0.37404 0.53596 0.0
H369 H 0.42438 0.34338 0.34337 0.0
H370 H 0.38246 0.38249 0.27161 0.0
H371 H 0.3245 0.41935 0.26188 0.0
H372 H 0.25973 0.44241 0.45117 0.0
H373 H 0.30865 0.41383 0.52658 0.0
C374 C 0.36936 0.37628 0.47832 0.0
C375 C 0.39886 0.35658 0.44502 0.0
C376 C 0.34412 0.39804 0.43719 0.0
C377 C 0.403 0.35924 0.37041 0.0
C378 C 0.37871 0.38143 0.32933 0.0
C379 C 0.32201 0.41949 0.31999 0.0
C380 C 0.28949 0.43445 0.35145 0.0
C381 C 0.34885 0.40051 0.36198 0.0
C382 C 0.28543 0.43285 0.42629 0.0
C383 C 0.313 0.41562 0.4691 0.0
H384 H 0.67664 0.86681 0.78626 0.0
H385 H 0.70277 0.9197 0.58481 0.0
H386 H 0.66269 0.87526 0.52108 0.0
H387 H 0.62693 0.8165 0.52122 0.0
H388 H 0.61105 0.75729 0.71993 0.0
H389 H 0.63855 0.80936 0.78686 0.0
C390 C 0.67321 0.86876 0.72843 0.0
C391 C 0.69198 0.89709 0.69033 0.0
C392 C 0.65117 0.84216 0.69207 0.0
C393 C 0.68781 0.89896 0.61549 0.0
C394 C 0.665 0.87335 0.57905 0.0
C395 C 0.62788 0.816 0.57952 0.0
C396 C 0.61504 0.78409 0.61612 0.0
C397 C 0.64705 0.84445 0.61664 0.0
C398 C 0.61851 0.78252 0.69116 0.0
C399 C 0.6353 0.81186 0.72913 0.0
H400 H 0.81459 0.14514 0.91439 0.0
H401 H 0.87072 0.05312 0.80941 0.0
H402 H 0.93109 0.08472 0.82476 0.0
H403 H 0.96778 0.13885 0.86641 0.0
H404 H 0.91207 0.22949 0.9763 0.0
H405 H 0.85154 0.19822 0.95969 0.0
C406 C 0.83998 0.13191 0.89475 0.0
C407 C 0.83794 0.09682 0.86024 0.0
C408 C 0.87462 0.15021 0.90394 0.0
C409 C 0.87132 0.08009 0.83588 0.0
C410 C 0.90587 0.09823 0.84445 0.0
C411 C 0.94235 0.15202 0.88608 0.0
C412 C 0.9444 0.18686 0.92157 0.0
C413 C 0.9078 0.13344 0.87784 0.0
C414 C 0.91126 0.20294 0.94828 0.0
C415 C 0.87667 0.185 0.93894 0.0
H416 H 0.91262 0.46804 0.11132 0.0
H417 H 0.82206 0.40907 0.21454 0.0
H418 H 0.85615 0.34992 0.20017 0.0
H419 H 0.91157 0.31524 0.15867 0.0
H420 H 1.0034 0.37462 0.06031 0.0
H421 H 0.96911 0.43366 0.0738 0.0
C422 C 0.90008 0.44219 0.12998 0.0
C423 C 0.86445 0.44287 0.16287 0.0
C424 C 0.92027 0.40853 0.1232 0.0
C425 C 0.84917 0.40926 0.18842 0.0
C426 C 0.86874 0.37549 0.18042 0.0
C427 C 0.92421 0.34105 0.14015 0.0
C428 C 0.95999 0.34036 0.10797 0.0
C429 C 0.90433 0.37483 0.14806 0.0
C430 C 0.97593 0.37424 0.08502 0.0
C431 C 0.95624 0.40799 0.09246 0.0
H432 H 0.73552 0.41895 0.43491 0.0
H433 H 0.67619 0.49982 0.30411 0.0
H434 H 0.61699 0.46799 0.32881 0.0
H435 H 0.58231 0.41683 0.38537 0.0
H436 H 0.64104 0.33666 0.51869 0.0
H437 H 0.70037 0.36883 0.49517 0.0
C438 C 0.70963 0.42976 0.41195 0.0
C439 C 0.71039 0.46164 0.36724 0.0
C440 C 0.67564 0.41143 0.42664 0.0
C441 C 0.67649 0.47538 0.33858 0.0
C442 C 0.64261 0.45715 0.3526 0.0
C443 C 0.60809 0.40616 0.40908 0.0
C444 C 0.60726 0.374 0.45308 0.0
C445 C 0.64192 0.42501 0.39602 0.0
C446 C 0.64088 0.36116 0.48437 0.0
C447 C 0.67479 0.37957 0.47095 0.0
H448 H 0.69413 0.13815 0.75418 0.0
H449 H 0.6398 0.07347 0.58765 0.0
H450 H 0.59766 0.1251 0.56151 0.0
H451 H 0.57601 0.18932 0.58365 0.0
H452 H 0.63118 0.25549 0.7462 0.0
H453 H 0.67249 0.20301 0.77593 0.0
C454 C 0.6733 0.13548 0.71184 0.0
C455 C 0.67063 0.1018 0.67298 0.0
C456 C 0.64884 0.16565 0.69631 0.0
C457 C 0.64306 0.09896 0.61848 0.0
C458 C 0.6186 0.12853 0.60342 0.0
C459 C 0.59681 0.1921 0.62605 0.0
C460 C 0.60036 0.22627 0.66265 0.0
C461 C 0.62115 0.16202 0.6419 0.0
C462 C 0.62783 0.22951 0.71695 0.0
C463 C 0.65159 0.1995 0.73397 0.0
H464 H 0.78002 0.61659 0.42672 0.0
H465 H 0.72403 0.61032 0.22185 0.0
H466 H 0.66773 0.63931 0.27297 0.0
H467 H 0.63945 0.67638 0.37158 0.0
H468 H 0.69354 0.67662 0.57924 0.0
H469 H 0.74573 0.64064 0.53148 0.0
C470 C 0.75481 0.61992 0.39434 0.0
C471 C 0.75582 0.61087 0.32114 0.0
C472 C 0.72261 0.63658 0.42414 0.0
C473 C 0.72346 0.61633 0.2789 0.0
C474 C 0.69149 0.63347 0.30785 0.0
C475 C 0.66151 0.667 0.40726 0.0
C476 C 0.6621 0.67917 0.47908 0.0
C477 C 0.69129 0.64511 0.37986 0.0
C478 C 0.69232 0.66807 0.52345 0.0
C479 C 0.72227 0.64729 0.49635 0.0
H480 H 0.42805 0.2249 0.51896 0.0
H481 H 0.44701 0.28877 0.71136 0.0
H482 H 0.42139 0.23778 0.78418 0.0
H483 H 0.38414 0.17965 0.79012 0.0
H484 H 0.35606 0.12192 0.5944 0.0
H485 H 0.39436 0.16529 0.52553 0.0
C486 C 0.42802 0.22679 0.57717 0.0
C487 C 0.4408 0.25972 0.6103 0.0
C488 C 0.41058 0.19867 0.61764 0.0
C489 C 0.43906 0.26292 0.68525 0.0
C490 C 0.42354 0.2341 0.72656 0.0
C491 C 0.38695 0.17629 0.73248 0.0
C492 C 0.36813 0.14677 0.69752 0.0
C493 C 0.40776 0.20257 0.69296 0.0
C494 C 0.3714 0.14321 0.62287 0.0
C495 C 0.39301 0.16841 0.58338 0.0
H496 H 0.82517 0.92968 0.76226 0.0
H497 H 0.75834 0.94717 0.951 0.0
H498 H 0.80793 0.91961 0.0261 0.0
H499 H 0.86554 0.88108 0.03444 0.0
H500 H 0.92579 0.85399 0.84144 0.0
H501 H 0.884 0.89409 0.77124 0.0
C502 C 0.82242 0.92905 0.82032 0.0
C503 C 0.78904 0.94209 0.85175 0.0
C504 C 0.84956 0.91015 0.86183 0.0
C505 C 0.78465 0.93925 0.92635 0.0
C506 C 0.81262 0.92252 0.96888 0.0
C507 C 0.86973 0.88439 0.9771 0.0
C508 C 0.89951 0.86534 0.94335 0.0
C509 C 0.84442 0.90639 0.93672 0.0
C510 C 0.90414 0.86931 0.86902 0.0
C511 C 0.87994 0.89207 0.82879 0.0
H512 H 0.17606 0.36312 0.27794 0.0
H513 H 0.1994 0.42512 0.08506 0.0
H514 H 0.16053 0.38221 0.01514 0.0
H515 H 0.12678 0.32227 0.00653 0.0
H516 H 0.11213 0.25513 0.19616 0.0
H517 H 0.13939 0.3048 0.27027 0.0
C518 C 0.17218 0.36748 0.22069 0.0
C519 C 0.18989 0.39797 0.18692 0.0
C520 C 0.15088 0.34168 0.18057 0.0
C521 C 0.18513 0.40284 0.1127 0.0
C522 C 0.16312 0.37799 0.07262 0.0
C523 C 0.12813 0.31938 0.06453 0.0
C524 C 0.11584 0.28592 0.09651 0.0
C525 C 0.14647 0.34688 0.10573 0.0
C526 C 0.11958 0.2814 0.17104 0.0
C527 C 0.136 0.30949 0.21307 0.0
H528 H 0.32119 0.63932 0.41642 0.0
H529 H 0.37853 0.5436 0.32716 0.0
H530 H 0.43892 0.57528 0.34348 0.0
H531 H 0.47534 0.63048 0.38247 0.0
H532 H 0.4177 0.72471 0.47657 0.0
H533 H 0.3574 0.69349 0.45773 0.0
C534 C 0.34683 0.62525 0.40041 0.0
C535 C 0.34513 0.58908 0.37016 0.0
C536 C 0.38139 0.64361 0.40999 0.0
C537 C 0.37885 0.57139 0.35036 0.0
C538 C 0.41342 0.58958 0.35946 0.0
C539 C 0.44954 0.64443 0.39802 0.0
C540 C 0.45104 0.68026 0.42993 0.0
C541 C 0.41499 0.62582 0.38875 0.0
C542 C 0.41737 0.6974 0.45136 0.0
C543 C 0.38289 0.67946 0.44084 0.0
H544 H 0.41636 0.96276 0.63099 0.0
H545 H 0.32994 0.90613 0.75065 0.0
H546 H 0.36301 0.84653 0.7348 0.0
H547 H 0.41627 0.81065 0.68687 0.0
H548 H 0.50441 0.8678 0.57268 0.0
H549 H 0.47117 0.92733 0.58785 0.0
C550 C 0.40457 0.93735 0.65323 0.0
C551 C 0.37034 0.93886 0.69115 0.0
C552 C 0.42425 0.9034 0.64553 0.0
C553 C 0.35597 0.90574 0.7208 0.0
C554 C 0.37496 0.87169 0.7119 0.0
C555 C 0.42832 0.83609 0.66527 0.0
C556 C 0.46273 0.83459 0.62806 0.0
C557 C 0.40911 0.8702 0.67443 0.0
C558 C 0.478 0.86801 0.60129 0.0
C559 C 0.4589 0.90206 0.60972 0.0
H560 H 0.08501 0.91493 0.88743 0.0
H561 H 0.14089 0.82826 0.00968 0.0
H562 H 0.20114 0.85985 0.99249 0.0
H563 H 0.23776 0.91171 0.94188 0.0
H564 H 0.18128 0.99929 0.82298 0.0
H565 H 0.12117 0.96774 0.8405 0.0
C566 C 0.11039 0.90269 0.90992 0.0
C567 C 0.10851 0.86891 0.94902 0.0
C568 C 0.1447 0.92131 0.90084 0.0
C569 C 0.14158 0.85403 0.97903 0.0
C570 C 0.176 0.87213 0.96928 0.0
C571 C 0.21232 0.924 0.91983 0.0
C572 C 0.21412 0.95776 0.88071 0.0
C573 C 0.17787 0.90575 0.93023 0.0
C574 C 0.18077 0.97336 0.85316 0.0
C575 C 0.1464 0.95527 0.86297 0.0
H576 H 0.13723 0.73536 0.19211 0.0
H577 H 0.04833 0.67879 0.07749 0.0
H578 H 0.08119 0.61909 0.09305 0.0
H579 H 0.1356 0.58328 0.13691 0.0
H580 H 0.22372 0.63936 0.25459 0.0
H581 H 0.19071 0.69912 0.2396 0.0
C582 C 0.12491 0.70999 0.17061 0.0
C583 C 0.09035 0.7117 0.13325 0.0
C584 C 0.14397 0.67576 0.17979 0.0
C585 C 0.07481 0.67841 0.10635 0.0
C586 C 0.09368 0.64425 0.11503 0.0
C587 C 0.14784 0.60859 0.15892 0.0
C588 C 0.18247 0.60685 0.1961 0.0
C589 C 0.12842 0.64268 0.15107 0.0
C590 C 0.19733 0.63987 0.22542 0.0
C591 C 0.17841 0.67404 0.21692 0.0
H592 H 0.06328 0.17207 0.37185 0.0
H593 H 0.02277 0.28255 0.31669 0.0
H594 H 0.03394 0.30335 0.43956 0.0
H595 H 0.05222 0.28933 0.56428 0.0
H596 H 0.09177 0.17846 0.61881 0.0
H597 H 0.08326 0.15862 0.49474 0.0
C598 C 0.05684 0.20074 0.38651 0.0
C599 C 0.04239 0.22563 0.33466 0.0
C600 C 0.06271 0.21238 0.45747 0.0
C601 C 0.03457 0.2628 0.35472 0.0
C602 C 0.04062 0.27469 0.42534 0.0
C603 C 0.05919 0.26088 0.54893 0.0
C604 C 0.07184 0.23527 0.60122 0.0
C605 C 0.05434 0.24961 0.47729 0.0
C606 C 0.08088 0.19852 0.58035 0.0
C607 C 0.07635 0.1872 0.50918 0.0
H608 H 0.76194 0.55611 0.80011 0.0
H609 H 0.87487 0.58826 0.85848 0.0
H610 H 0.89469 0.58063 0.73436 0.0
H611 H 0.88062 0.56316 0.61026 0.0
H612 H 0.76792 0.52991 0.552 0.0
H613 H 0.74732 0.54086 0.67459 0.0
C614 C 0.79086 0.56168 0.78569 0.0
C615 C 0.81697 0.57192 0.83911 0.0
C616 C 0.80211 0.55742 0.71402 0.0
C617 C 0.85432 0.57917 0.81925 0.0
C618 C 0.86566 0.57518 0.74799 0.0
C619 C 0.85148 0.55835 0.62413 0.0
C620 C 0.82598 0.54595 0.57133 0.0
C621 C 0.8399 0.5639 0.69517 0.0
C622 C 0.78824 0.54018 0.59053 0.0
C623 C 0.77642 0.54604 0.66111 0.0
H624 H 0.47813 0.38142 0.89467 0.0
H625 H 0.54546 0.28479 0.84035 0.0
H626 H 0.54197 0.26277 0.96378 0.0
H627 H 0.52139 0.27164 0.08797 0.0
H628 H 0.45524 0.36882 0.14308 0.0
H629 H 0.45731 0.39016 0.0187 0.0
C630 C 0.4921 0.35556 0.90977 0.0
C631 C 0.51146 0.33461 0.8578 0.0
C632 C 0.49054 0.34328 0.98119 0.0
C633 C 0.5294 0.3011 0.87842 0.0
C634 C 0.52778 0.28859 0.94933 0.0
C635 C 0.50727 0.2974 0.07267 0.0
C636 C 0.48871 0.31884 0.12489 0.0
C637 C 0.5085 0.3095 0.00112 0.0
C638 C 0.47056 0.35221 0.10435 0.0
C639 C 0.47146 0.36431 0.0331 0.0
H640 H 0.78445 0.97633 0.31158 0.0
H641 H 0.68882 0.03866 0.39019 0.0
H642 H 0.67001 0.05308 0.26791 0.0
H643 H 0.67914 0.04646 0.13853 0.0
H644 H 0.77558 0.98601 0.05934 0.0
H645 H 0.79606 0.97353 0.18202 0.0
C646 C 0.75959 0.99327 0.30226 0.0
C647 C 0.73758 1.00519 0.36064 0.0
C648 C 0.74916 1.00219 0.23152 0.0
C649 C 0.70567 0.02754 0.34698 0.0
C650 C 0.69503 0.03631 0.27675 0.0
C651 C 0.70477 0.03069 0.14802 0.0
C652 C 0.72561 1.01713 0.08957 0.0
C653 C 0.71627 0.02336 0.2187 0.0
C654 C 0.75902 0.99714 0.10292 0.0
C655 C 0.77066 0.98971 0.17327 0.0
H656 H 0.57023 0.77654 0.08237 0.0
H657 H 0.58229 0.65993 0.13959 0.0
H658 H 0.56726 0.64184 0.01673 0.0
H659 H 0.55117 0.65875 0.89344 0.0
H660 H 0.53791 0.77534 0.83573 0.0
H661 H 0.55384 0.79352 0.95789 0.0
C662 C 0.56964 0.74714 0.06799 0.0
C663 C 0.57682 0.71971 0.1208 0.0
C664 C 0.56113 0.73683 -0.00312 0.0
C665 C 0.57593 0.68174 0.10098 0.0
C666 C 0.56767 0.67132 0.03037 0.0
C667 C 0.55156 0.68823 0.90715 0.0
C668 C 0.5436 0.71542 0.85417 0.0
C669 C 0.56013 0.69862 0.97801 0.0
C670 C 0.54458 0.75347 0.87389 0.0
C671 C 0.5534 0.76403 0.94436 0.0
H672 H 0.26289 0.04282 0.32924 0.0
H673 H 0.37036 0.09063 0.38514 0.0
H674 H 0.39099 0.0844 0.26121 0.0
H675 H 0.37955 0.06348 0.13831 0.0
H676 H 0.27259 1.0147 0.08179 0.0
H677 H 0.25051 0.02412 0.20422 0.0
C678 C 0.29073 0.05212 0.31416 0.0
C679 C 0.31529 0.06634 0.36679 0.0
C680 C 0.30247 0.04851 0.24263 0.0
C681 C 0.35123 0.07847 0.34634 0.0
C682 C 0.36299 0.07522 0.27528 0.0
C683 C 0.35136 0.05491 0.15261 0.0
C684 C 0.32783 0.03856 0.10061 0.0
C685 C 0.33904 0.0598 0.2233 0.0
C686 C 0.29122 0.02797 0.12006 0.0
C687 C 0.27863 0.03303 0.1904 0.0
H688 H 0.98013 0.87744 0.38778 0.0
H689 H 0.03765 0.77452 0.33502 0.0
H690 H 0.03141 0.75326 0.45876 0.0
H691 H 1.0125 0.76522 0.58335 0.0
H692 H 0.95594 0.86865 0.63585 0.0
H693 H 0.95958 0.88855 0.5109 0.0
C694 C 0.99133 0.85032 0.4032 0.0
C695 C 1.00908 0.82762 0.35181 0.0
C696 C 0.98824 0.83851 0.47465 0.0
C697 C 0.02315 0.7924 0.37277 0.0
C698 C 0.01992 0.78031 0.44384 0.0
C699 C 1.00076 0.79202 0.56736 0.0
C700 C 0.98471 0.81569 0.6192 0.0
C701 C 1.00285 0.8033 0.49533 0.0
C702 C 0.96949 0.8503 0.5976 0.0
C703 C 0.97125 0.8616 0.52598 0.0
H704 H 0.17695 0.48196 0.63183 0.0
H705 H 0.2799 0.5397 0.58104 0.0
H706 H 0.30046 0.53393 0.70566 0.0
H707 H 0.28799 0.51497 0.83015 0.0
H708 H 0.18455 0.45796 0.88025 0.0
H709 H 0.16521 0.4617 0.75483 0.0
C710 C 0.20391 0.49337 0.64785 0.0
C711 C 0.22683 0.51102 0.59677 0.0
C712 C 0.21531 0.49051 0.7197 0.0
C713 C 0.26185 0.52531 0.61855 0.0
C714 C 0.27354 0.52234 0.69011 0.0
C715 C 0.26129 0.50319 0.81357 0.0
C716 C 0.23748 0.48693 0.8649 0.0
C717 C 0.25034 0.50527 0.7412 0.0
C718 C 0.203 0.47167 0.84248 0.0
C719 C 0.19203 0.47347 0.77056 0.0
loop_
_geom_bond_atom_site_label_1
_geom_bond_atom_site_label_2
_geom_bond_distance
_geom_bond_site_symmetry_2
_ccdc_geom_bond_type
Zn0 N4 2.020 . S
Zn0 O8 2.019 . S
Zn0 N10 2.119 . S
Zn0 O18 1.975 1_455 S
C1 N2 1.334 . S
C1 N5 1.336 . S
N2 C1 1.334 . S
N2 C3 1.334 1_554 S
C3 N2 1.334 1_556 S
C3 N4 1.336 . S
N4 Zn0 2.020 . S
N4 C3 1.336 . S
N4 N5 1.354 1_556 S
N5 C1 1.336 . S
N5 N4 1.354 1_554 S
N5 Zn9 2.020 1_455 S
C6 O7 1.244 . S
C6 O30 1.257 . S
O7 C6 1.244 . S
O8 Zn0 2.019 . S
O8 C28 1.257 . S
Zn9 N5 2.020 1_655 S
Zn9 O16 1.975 . S
Zn9 N25 2.119 . S
Zn9 O30 2.019 . S
N10 Zn0 2.119 . S
N10 C12 1.334 1_455 S
N10 C13 1.328 . S
C11 C12 1.391 . S
C11 N14 1.329 . S
C11 H32 0.930 . S
C12 N10 1.334 1_655 S
C12 C11 1.391 . S
C12 H19 0.930 . S
C13 N10 1.328 . S
C13 C15 1.392 . S
C13 H20 0.930 . S
N14 C11 1.329 . S
N14 C15 1.331 1_655 S
C15 C13 1.392 . S
C15 N14 1.331 1_455 S
O16 Zn9 1.975 . S
O16 C17 1.252 1_554 S
C17 O16 1.252 1_556 S
C17 O18 1.252 . S
O18 Zn0 1.975 1_655 S
O18 C17 1.252 . S
H19 C12 0.930 . S
H20 C13 0.930 . S
C21 C22 1.392 . S
C21 N25 1.328 . S
C21 H27 0.930 . S
C22 C21 1.392 . S
C22 N26 1.331 . S
C23 C24 1.391 . S
C23 N26 1.329 . S
C23 H33 0.930 . S
C24 C23 1.391 . S
C24 N25 1.334 . S
C24 H31 0.930 1_655 S
N25 Zn9 2.119 . S
N25 C21 1.328 . S
N25 C24 1.334 . S
N26 C22 1.331 . S
N26 C23 1.329 . S
H27 C21 0.930 . S
C28 O8 1.257 . S
C28 O29 1.244 . S
O29 C28 1.244 . S
O30 C6 1.257 . S
O30 Zn9 2.019 . S
H31 C24 0.930 1_455 S
H32 C11 0.930 . S
H33 C23 0.930 . S
Zn34 N38 2.020 . S
Zn34 O42 2.019 . S
Zn34 N44 2.119 . S
Zn34 O52 1.975 . S
C35 N36 1.334 . S
C35 N39 1.336 . S
N36 C35 1.334 . S
N36 C37 1.334 . S
C37 N36 1.334 . S
C37 N38 1.336 . S
N38 Zn34 2.020 . S
N38 C37 1.336 . S
N38 N39 1.354 . S
N39 C35 1.336 . S
N39 N38 1.354 . S
N39 Zn43 2.020 . S
C40 O41 1.244 . S
C40 O64 1.257 . S
O41 C40 1.244 . S
O42 Zn34 2.019 . S
O42 C62 1.257 . S
Zn43 N39 2.020 . S
Zn43 O50 1.975 . S
Zn43 N59 2.119 . S
Zn43 O64 2.019 . S
N44 Zn34 2.119 . S
N44 C46 1.334 . S
N44 C47 1.328 . S
C45 C46 1.391 . S
C45 N48 1.329 1_554 S
C45 H66 0.930 . S
C46 N44 1.334 . S
C46 C45 1.391 . S
C46 H53 0.930 . S
C47 N44 1.328 . S
C47 C49 1.392 1_554 S
C47 H54 0.930 . S
N48 C45 1.329 1_556 S
N48 C49 1.331 . S
C49 C47 1.392 1_556 S
C49 N48 1.331 . S
O50 Zn43 1.975 . S
O50 C51 1.252 . S
C51 O50 1.252 . S
C51 O52 1.252 . S
O52 Zn34 1.975 . S
O52 C51 1.252 . S
H53 C46 0.930 . S
H54 C47 0.930 . S
C55 C56 1.392 . S
C55 N59 1.328 . S
C55 H61 0.930 . S
C56 C55 1.392 . S
C56 N60 1.331 . S
C57 C58 1.391 . S
C57 N60 1.329 . S
C57 H67 0.930 . S
C58 C57 1.391 . S
C58 N59 1.334 . S
C58 H65 0.930 . S
N59 Zn43 2.119 . S
N59 C55 1.328 . S
N59 C58 1.334 . S
N60 C56 1.331 . S
N60 C57 1.329 . S
H61 C55 0.930 . S
C62 O42 1.257 . S
C62 O63 1.244 . S
O63 C62 1.244 . S
O64 C40 1.257 . S
O64 Zn43 2.019 . S
H65 C58 0.930 . S
H66 C45 0.930 . S
H67 C57 0.930 . S
Zn68 N72 2.020 . S
Zn68 O76 2.019 . S
Zn68 N78 2.119 . S
Zn68 O86 1.975 . S
C69 N70 1.334 . S
C69 N73 1.336 . S
N70 C69 1.334 . S
N70 C71 1.334 . S
C71 N70 1.334 . S
C71 N72 1.336 . S
N72 Zn68 2.020 . S
N72 C71 1.336 . S
N72 N73 1.354 . S
N73 C69 1.336 . S
N73 N72 1.354 . S
N73 Zn77 2.020 . S
C74 O75 1.244 . S
C74 O98 1.257 . S
O75 C74 1.244 . S
O76 Zn68 2.019 . S
O76 C96 1.257 . S
Zn77 N73 2.020 . S
Zn77 O84 1.975 . S
Zn77 N93 2.119 . S
Zn77 O98 2.019 . S
N78 Zn68 2.119 . S
N78 C80 1.334 . S
N78 C81 1.328 . S
C79 C80 1.391 . S
C79 N82 1.329 . S
C79 H100 0.930 . S
C80 N78 1.334 . S
C80 C79 1.391 . S
C80 H87 0.930 . S
C81 N78 1.328 . S
C81 C83 1.392 . S
C81 H88 0.930 . S
N82 C79 1.329 . S
N82 C83 1.331 . S
C83 C81 1.392 . S
C83 N82 1.331 . S
O84 Zn77 1.975 . S
O84 C85 1.252 . S
C85 O84 1.252 . S
C85 O86 1.252 . S
O86 Zn68 1.975 . S
O86 C85 1.252 . S
H87 C80 0.930 . S
H88 C81 0.930 . S
C89 C90 1.392 . S
C89 N93 1.328 . S
C89 H95 0.930 . S
C90 C89 1.392 . S
C90 N94 1.331 . S
C91 C92 1.391 . S
C91 N94 1.329 . S
C91 H101 0.930 . S
C92 C91 1.391 . S
C92 N93 1.334 . S
C92 H99 0.930 . S
N93 Zn77 2.119 . S
N93 C89 1.328 . S
N93 C92 1.334 . S
N94 C90 1.331 . S
N94 C91 1.329 . S
H95 C89 0.930 . S
C96 O76 1.257 . S
C96 O97 1.244 . S
O97 C96 1.244 . S
O98 C74 1.257 . S
O98 Zn77 2.019 . S
H99 C92 0.930 . S
H100 C79 0.930 . S
H101 C91 0.930 . S
Zn102 N106 2.020 1_545 S
Zn102 O110 2.019 . S
Zn102 N112 2.119 . S
Zn102 O120 1.975 . S
C103 N104 1.334 . S
C103 N107 1.336 . S
N104 C103 1.334 . S
N104 C105 1.334 . S
C105 N104 1.334 . S
C105 N106 1.336 . S
N106 Zn102 2.020 1_565 S
N106 C105 1.336 . S
N106 N107 1.354 . S
N107 C103 1.336 . S
N107 N106 1.354 . S
N107 Zn111 2.020 . S
C108 O109 1.244 . S
C108 O132 1.257 . S
O109 C108 1.244 . S
O110 Zn102 2.019 . S
O110 C130 1.257 . S
Zn111 N107 2.020 . S
Zn111 O118 1.975 1_565 S
Zn111 N127 2.119 1_565 S
Zn111 O132 2.019 . S
N112 Zn102 2.119 . S
N112 C114 1.334 . S
N112 C115 1.328 . S
C113 C114 1.391 . S
C113 N116 1.329 1_556 S
C113 H134 0.930 . S
C114 N112 1.334 . S
C114 C113 1.391 . S
C114 H121 0.930 . S
C115 N112 1.328 . S
C115 C117 1.392 1_556 S
C115 H122 0.930 . S
N116 C113 1.329 1_554 S
N116 C117 1.331 . S
C117 C115 1.392 1_554 S
C117 N116 1.331 . S
O118 Zn111 1.975 1_545 S
O118 C119 1.252 . S
C119 O118 1.252 . S
C119 O120 1.252 . S
O120 Zn102 1.975 . S
O120 C119 1.252 . S
H121 C114 0.930 . S
H122 C115 0.930 . S
C123 C124 1.396 . S
C123 N127 1.332 . S
C123 H129 0.922 1_545 S
C124 C123 1.396 . S
C124 N128 1.331 . S
C125 C126 1.391 . S
C125 N128 1.329 . S
C125 H135 0.930 . S
C126 C125 1.391 . S
C126 N127 1.334 . S
C126 H133 0.930 . S
N127 Zn111 2.119 1_545 S
N127 C123 1.332 . S
N127 C126 1.334 . S
N128 C124 1.331 . S
N128 C125 1.329 . S
H129 C123 0.922 1_565 S
C130 O110 1.257 . S
C130 O131 1.244 . S
O131 C130 1.244 . S
O132 C108 1.257 . S
O132 Zn111 2.019 . S
H133 C126 0.930 . S
H134 C113 0.930 . S
H135 C125 0.930 . S
Zn136 N140 2.020 . S
Zn136 O144 2.019 . S
Zn136 N146 2.119 . S
Zn136 O154 1.975 . S
C137 N138 1.334 . S
C137 N141 1.336 . S
N138 C137 1.334 . S
N138 C139 1.334 . S
C139 N138 1.334 . S
C139 N140 1.336 . S
N140 Zn136 2.020 . S
N140 C139 1.336 . S
N140 N141 1.354 . S
N141 C137 1.336 . S
N141 N140 1.354 . S
N141 Zn145 2.020 . S
C142 O143 1.244 . S
C142 O166 1.257 . S
O143 C142 1.244 . S
O144 Zn136 2.019 . S
O144 C164 1.257 . S
Zn145 N141 2.020 . S
Zn145 O152 1.975 . S
Zn145 N161 2.119 . S
Zn145 O166 2.019 . S
N146 Zn136 2.119 . S
N146 C148 1.334 . S
N146 C149 1.328 . S
C147 C148 1.391 . S
C147 N150 1.329 . S
C147 H168 0.930 . S
C148 N146 1.334 . S
C148 C147 1.391 . S
C148 H155 0.930 . S
C149 N146 1.328 . S
C149 C151 1.392 . S
C149 H156 0.930 . S
N150 C147 1.329 . S
N150 C151 1.331 . S
C151 C149 1.392 . S
C151 N150 1.331 . S
O152 Zn145 1.975 . S
O152 C153 1.252 . S
C153 O152 1.252 . S
C153 O154 1.252 . S
O154 Zn136 1.975 . S
O154 C153 1.252 . S
H155 C148 0.930 . S
H156 C149 0.930 . S
C157 C158 1.392 . S
C157 N161 1.328 . S
C157 H163 0.930 . S
C158 C157 1.392 . S
C158 N162 1.331 . S
C159 C160 1.391 . S
C159 N162 1.329 . S
C159 H169 0.930 . S
C160 C159 1.391 . S
C160 N161 1.334 . S
C160 H167 0.930 . S
N161 Zn145 2.119 . S
N161 C157 1.328 . S
N161 C160 1.334 . S
N162 C158 1.331 . S
N162 C159 1.329 . S
H163 C157 0.930 . S
C164 O144 1.257 . S
C164 O165 1.244 . S
O165 C164 1.244 . S
O166 C142 1.257 . S
O166 Zn145 2.019 . S
H167 C160 0.930 . S
H168 C147 0.930 . S
H169 C159 0.930 . S
Zn170 N174 2.020 . S
Zn170 O178 2.019 . S
Zn170 N180 2.119 . S
Zn170 O188 1.975 1_545 S
C171 N172 1.334 . S
C171 N175 1.336 . S
N172 C171 1.334 . S
N172 C173 1.334 . S
C173 N172 1.334 . S
C173 N174 1.336 . S
N174 Zn170 2.020 . S
N174 C173 1.336 . S
N174 N175 1.354 . S
N175 C171 1.336 . S
N175 N174 1.354 . S
N175 Zn179 2.020 1_545 S
C176 O177 1.244 . S
C176 O200 1.257 . S
O177 C176 1.244 . S
O178 Zn170 2.019 . S
O178 C198 1.257 . S
Zn179 N175 2.020 1_565 S
Zn179 O186 1.975 . S
Zn179 N195 2.119 . S
Zn179 O200 2.019 . S
N180 Zn170 2.119 . S
N180 C182 1.334 1_545 S
N180 C183 1.328 . S
C181 C182 1.391 . S
C181 N184 1.329 . S
C181 H202 0.930 . S
C182 N180 1.334 1_565 S
C182 C181 1.391 . S
C182 H189 0.930 . S
C183 N180 1.328 . S
C183 C185 1.392 . S
C183 H190 0.930 . S
N184 C181 1.329 . S
N184 C185 1.331 1_565 S
C185 C183 1.392 . S
C185 N184 1.331 1_545 S
O186 Zn179 1.975 . S
O186 C187 1.252 . S
C187 O186 1.252 . S
C187 O188 1.252 . S
O188 Zn170 1.975 1_565 S
O188 C187 1.252 . S
H189 C182 0.930 . S
H190 C183 0.930 . S
C191 C192 1.392 1_556 S
C191 N195 1.328 . S
C191 H197 0.930 . S
C192 C191 1.392 1_554 S
C192 N196 1.331 . S
C193 C194 1.391 . S
C193 N196 1.329 1_556 S
C193 H203 0.930 . S
C194 C193 1.391 . S
C194 N195 1.334 . S
C194 H201 0.930 1_565 S
N195 Zn179 2.119 . S
N195 C191 1.328 . S
N195 C194 1.334 . S
N196 C192 1.331 . S
N196 C193 1.329 1_554 S
H197 C191 0.930 . S
C198 O178 1.257 . S
C198 O199 1.244 . S
O199 C198 1.244 . S
O200 C176 1.257 . S
O200 Zn179 2.019 . S
H201 C194 0.930 1_545 S
H202 C181 0.930 . S
H203 C193 0.930 . S
Zn204 N208 2.020 . S
Zn204 O212 2.019 . S
Zn204 N214 2.119 1_655 S
Zn204 O222 1.975 1_655 S
C205 N206 1.334 . S
C205 N209 1.336 . S
N206 C205 1.334 . S
N206 C207 1.334 1_554 S
C207 N206 1.334 1_556 S
C207 N208 1.336 . S
N208 Zn204 2.020 . S
N208 C207 1.336 . S
N208 N209 1.354 1_556 S
N209 C205 1.336 . S
N209 N208 1.354 1_554 S
N209 Zn213 2.020 1_655 S
C210 O211 1.244 . S
C210 O234 1.257 . S
O211 C210 1.244 . S
O212 Zn204 2.019 . S
O212 C232 1.257 . S
Zn213 N209 2.020 1_455 S
Zn213 O220 1.975 . S
Zn213 N229 2.119 . S
Zn213 O234 2.019 . S
N214 Zn204 2.119 1_455 S
N214 C216 1.334 . S
N214 C217 1.332 . S
C215 C216 1.391 . S
C215 N218 1.329 . S
C215 H236 0.930 . S
C216 N214 1.334 . S
C216 C215 1.391 . S
C216 H223 0.930 . S
C217 N214 1.332 . S
C217 C219 1.396 . S
C217 H224 0.922 1_455 S
N218 C215 1.329 . S
N218 C219 1.331 . S
C219 C217 1.396 . S
C219 N218 1.331 . S
O220 Zn213 1.975 . S
O220 C221 1.252 1_554 S
C221 O220 1.252 1_556 S
C221 O222 1.252 . S
O222 Zn204 1.975 1_455 S
O222 C221 1.252 . S
H223 C216 0.930 . S
H224 C217 0.922 1_655 S
C225 C226 1.392 . S
C225 N229 1.328 . S
C225 H231 0.930 . S
C226 C225 1.392 . S
C226 N230 1.331 . S
C227 C228 1.391 . S
C227 N230 1.329 . S
C227 H237 0.930 . S
C228 C227 1.391 . S
C228 N229 1.334 . S
C228 H235 0.930 . S
N229 Zn213 2.119 . S
N229 C225 1.328 . S
N229 C228 1.334 . S
N230 C226 1.331 . S
N230 C227 1.329 . S
H231 C225 0.930 . S
C232 O212 1.257 . S
C232 O233 1.244 . S
O233 C232 1.244 . S
O234 C210 1.257 . S
O234 Zn213 2.019 . S
H235 C228 0.930 . S
H236 C215 0.930 . S
H237 C227 0.930 . S
Zn238 N242 2.020 . S
Zn238 O246 2.019 . S
Zn238 N248 2.119 . S
Zn238 O256 1.975 . S
C239 N240 1.334 . S
C239 N243 1.336 . S
N240 C239 1.334 . S
N240 C241 1.334 . S
C241 N240 1.334 . S
C241 N242 1.336 . S
N242 Zn238 2.020 . S
N242 C241 1.336 . S
N242 N243 1.354 . S
N243 C239 1.336 . S
N243 N242 1.354 . S
N243 Zn247 2.020 . S
C244 O245 1.244 . S
C244 O268 1.257 . S
O245 C244 1.244 . S
O246 Zn238 2.019 . S
O246 C266 1.257 . S
Zn247 N243 2.020 . S
Zn247 O254 1.975 . S
Zn247 N263 2.119 . S
Zn247 O268 2.019 . S
N248 Zn238 2.119 . S
N248 C250 1.334 . S
N248 C251 1.328 . S
C249 C250 1.391 . S
C249 N252 1.329 . S
C249 H270 0.930 . S
C250 N248 1.334 . S
C250 C249 1.391 . S
C250 H257 0.930 . S
C251 N248 1.328 . S
C251 C253 1.392 . S
C251 H258 0.930 . S
N252 C249 1.329 . S
N252 C253 1.331 . S
C253 C251 1.392 . S
C253 N252 1.331 . S
O254 Zn247 1.975 . S
O254 C255 1.252 . S
C255 O254 1.252 . S
C255 O256 1.252 . S
O256 Zn238 1.975 . S
O256 C255 1.252 . S
H257 C250 0.930 . S
H258 C251 0.930 . S
C259 C260 1.392 1_554 S
C259 N263 1.328 . S
C259 H265 0.930 . S
C260 C259 1.392 1_556 S
C260 N264 1.331 . S
C261 C262 1.391 . S
C261 N264 1.329 1_554 S
C261 H271 0.930 . S
C262 C261 1.391 . S
C262 N263 1.334 . S
C262 H269 0.930 . S
N263 Zn247 2.119 . S
N263 C259 1.328 . S
N263 C262 1.334 . S
N264 C260 1.331 . S
N264 C261 1.329 1_556 S
H265 C259 0.930 . S
C266 O246 1.257 . S
C266 O267 1.244 . S
O267 C266 1.244 . S
O268 C244 1.257 . S
O268 Zn247 2.019 . S
H269 C262 0.930 . S
H270 C249 0.930 . S
H271 C261 0.930 . S
H272 C278 0.930 . S
H273 C281 0.930 . S
H274 C282 0.930 1_545 S
H275 C283 0.930 1_554 S
H276 C286 0.930 . S
H277 C287 0.930 . S
C278 H272 0.930 . S
C278 C279 1.355 . S
C278 C280 1.415 1_655 S
C279 C278 1.355 . S
C279 C281 1.419 1_556 S
C280 C278 1.415 1_455 S
C280 C285 1.425 1_565 S
C280 C287 1.409 1_565 S
C281 H273 0.930 . S
C281 C279 1.419 1_554 S
C281 C282 1.362 . S
C282 H274 0.930 1_565 S
C282 C281 1.362 . S
C282 C285 1.409 1_664 S
C283 H275 0.930 1_556 S
C283 C284 1.355 . S
C283 C285 1.415 . S
C284 C283 1.355 . S
C284 C286 1.419 . S
C285 C280 1.425 1_545 S
C285 C282 1.409 1_446 S
C285 C283 1.415 . S
C286 H276 0.930 . S
C286 C284 1.419 . S
C286 C287 1.362 . S
C287 H277 0.930 . S
C287 C280 1.409 1_545 S
C287 C286 1.362 . S
H288 C294 0.930 . S
H289 C297 0.930 . S
H290 C298 0.930 . S
H291 C299 0.930 . S
H292 C302 0.930 . S
H293 C303 0.930 1_655 S
C294 H288 0.930 . S
C294 C295 1.355 . S
C294 C296 1.415 . S
C295 C294 1.355 . S
C295 C297 1.419 . S
C296 C294 1.415 . S
C296 C301 1.425 1_655 S
C296 C303 1.409 1_655 S
C297 H289 0.930 . S
C297 C295 1.419 . S
C297 C298 1.362 1_655 S
C298 H290 0.930 . S
C298 C297 1.362 1_455 S
C298 C301 1.409 . S
C299 H291 0.930 . S
C299 C300 1.355 . S
C299 C301 1.415 . S
C300 C299 1.355 . S
C300 C302 1.419 . S
C301 C296 1.425 1_455 S
C301 C298 1.409 . S
C301 C299 1.415 . S
C302 H292 0.930 . S
C302 C300 1.419 . S
C302 C303 1.362 . S
C303 H293 0.930 1_455 S
C303 C296 1.409 1_455 S
C303 C302 1.362 . S
H304 C310 0.930 . S
H305 C313 0.930 . S
H306 C314 0.930 . S
H307 C315 0.930 . S
H308 C318 0.930 . S
H309 C319 0.930 . S
C310 H304 0.930 . S
C310 C311 1.355 . S
C310 C312 1.415 . S
C311 C310 1.355 . S
C311 C313 1.419 . S
C312 C310 1.415 . S
C312 C317 1.425 . S
C312 C319 1.409 . S
C313 H305 0.930 . S
C313 C311 1.419 . S
C313 C314 1.362 . S
C314 H306 0.930 . S
C314 C313 1.362 . S
C314 C317 1.409 . S
C315 H307 0.930 . S
C315 C316 1.355 . S
C315 C317 1.415 . S
C316 C315 1.355 . S
C316 C318 1.419 . S
C317 C312 1.425 . S
C317 C314 1.409 . S
C317 C315 1.415 . S
C318 H308 0.930 . S
C318 C316 1.419 . S
C318 C319 1.362 . S
C319 H309 0.930 . S
C319 C312 1.409 . S
C319 C318 1.362 . S
H320 C326 0.930 . S
H321 C329 0.930 . S
H322 C330 0.930 1_545 S
H323 C331 0.930 . S
H324 C334 0.930 . S
H325 C335 0.930 . S
C326 H320 0.930 . S
C326 C327 1.355 . S
C326 C328 1.415 1_565 S
C327 C326 1.355 . S
C327 C329 1.419 . S
C328 C326 1.415 1_545 S
C328 C333 1.425 . S
C328 C335 1.409 . S
C329 H321 0.930 . S
C329 C327 1.419 . S
C329 C330 1.362 . S
C330 H322 0.930 1_565 S
C330 C329 1.362 . S
C330 C333 1.409 1_565 S
C331 H323 0.930 . S
C331 C332 1.355 . S
C331 C333 1.415 . S
C332 C331 1.355 . S
C332 C334 1.419 . S
C333 C328 1.425 . S
C333 C330 1.409 1_545 S
C333 C331 1.415 . S
C334 H324 0.930 . S
C334 C332 1.419 . S
C334 C335 1.362 . S
C335 H325 0.930 . S
C335 C328 1.409 . S
C335 C334 1.362 . S
H336 C342 0.930 . S
H337 C345 0.930 . S
H338 C346 0.930 . S
H339 C347 0.930 . S
H340 C350 0.930 . S
H341 C351 0.930 . S
C342 H336 0.930 . S
C342 C343 1.355 . S
C342 C344 1.415 . S
C343 C342 1.355 . S
C343 C345 1.419 . S
C344 C342 1.415 . S
C344 C349 1.425 . S
C344 C351 1.409 . S
C345 H337 0.930 . S
C345 C343 1.419 . S
C345 C346 1.362 . S
C346 H338 0.930 . S
C346 C345 1.362 . S
C346 C349 1.409 . S
C347 H339 0.930 . S
C347 C348 1.355 . S
C347 C349 1.415 . S
C348 C347 1.355 . S
C348 C350 1.419 . S
C349 C344 1.425 . S
C349 C346 1.409 . S
C349 C347 1.415 . S
C350 H340 0.930 . S
C350 C348 1.419 . S
C350 C351 1.362 . S
C351 H341 0.930 . S
C351 C344 1.409 . S
C351 C350 1.362 . S
H352 C358 0.930 . S
H353 C361 0.930 . S
H354 C362 0.930 . S
H355 C363 0.930 . S
H356 C366 0.930 . S
H357 C367 0.930 . S
C358 H352 0.930 . S
C358 C359 1.355 . S
C358 C360 1.415 . S
C359 C358 1.355 . S
C359 C361 1.419 . S
C360 C358 1.415 . S
C360 C365 1.425 . S
C360 C367 1.409 . S
C361 H353 0.930 . S
C361 C359 1.419 . S
C361 C362 1.362 . S
C362 H354 0.930 . S
C362 C361 1.362 . S
C362 C365 1.409 . S
C363 H355 0.930 . S
C363 C364 1.355 . S
C363 C365 1.415 . S
C364 C363 1.355 . S
C364 C366 1.419 . S
C365 C360 1.425 . S
C365 C362 1.409 . S
C365 C363 1.415 . S
C366 H356 0.930 . S
C366 C364 1.419 . S
C366 C367 1.362 . S
C367 H357 0.930 . S
C367 C360 1.409 . S
C367 C366 1.362 . S
H368 C374 0.930 . S
H369 C377 0.930 . S
H370 C378 0.930 . S
H371 C379 0.930 . S
H372 C382 0.930 . S
H373 C383 0.930 . S
C374 H368 0.930 . S
C374 C375 1.355 . S
C374 C376 1.415 . S
C375 C374 1.355 . S
C375 C377 1.419 . S
C376 C374 1.415 . S
C376 C381 1.425 . S
C376 C383 1.409 . S
C377 H369 0.930 . S
C377 C375 1.419 . S
C377 C378 1.362 . S
C378 H370 0.930 . S
C378 C377 1.362 . S
C378 C381 1.409 . S
C379 H371 0.930 . S
C379 C380 1.355 . S
C379 C381 1.415 . S
C380 C379 1.355 . S
C380 C382 1.419 . S
C381 C376 1.425 . S
C381 C378 1.409 . S
C381 C379 1.415 . S
C382 H372 0.930 . S
C382 C380 1.419 . S
C382 C383 1.362 . S
C383 H373 0.930 . S
C383 C376 1.409 . S
C383 C382 1.362 . S
H384 C390 0.930 . S
H385 C393 0.930 . S
H386 C394 0.930 . S
H387 C395 0.930 . S
H388 C398 0.930 . S
H389 C399 0.930 . S
C390 H384 0.930 . S
C390 C391 1.355 . S
C390 C392 1.415 . S
C391 C390 1.355 . S
C391 C393 1.419 . S
C392 C390 1.415 . S
C392 C397 1.425 . S
C392 C399 1.409 . S
C393 H385 0.930 . S
C393 C391 1.419 . S
C393 C394 1.362 . S
C394 H386 0.930 . S
C394 C393 1.362 . S
C394 C397 1.409 . S
C395 H387 0.930 . S
C395 C396 1.355 . S
C395 C397 1.415 . S
C396 C395 1.355 . S
C396 C398 1.419 . S
C397 C392 1.425 . S
C397 C394 1.409 . S
C397 C395 1.415 . S
C398 H388 0.930 . S
C398 C396 1.419 . S
C398 C399 1.362 . S
C399 H389 0.930 . S
C399 C392 1.409 . S
C399 C398 1.362 . S
H400 C406 0.930 . S
H401 C409 0.930 . S
H402 C410 0.930 1_554 S
H403 C411 0.930 1_554 S
H404 C414 0.930 . S
H405 C415 0.930 . S
C406 H400 0.930 . S
C406 C407 1.355 . S
C406 C408 1.415 . S
C407 C406 1.355 . S
C407 C409 1.419 . S
C408 C406 1.415 . S
C408 C413 1.425 . S
C408 C415 1.409 . S
C409 H401 0.930 . S
C409 C407 1.419 . S
C409 C410 1.362 . S
C410 H402 0.930 1_556 S
C410 C409 1.362 . S
C410 C413 1.409 . S
C411 H403 0.930 1_556 S
C411 C412 1.355 . S
C411 C413 1.415 . S
C412 C411 1.355 . S
C412 C414 1.419 . S
C413 C408 1.425 . S
C413 C410 1.409 . S
C413 C411 1.415 . S
C414 H404 0.930 . S
C414 C412 1.419 . S
C414 C415 1.362 . S
C415 H405 0.930 . S
C415 C408 1.409 . S
C415 C414 1.362 . S
H416 C422 0.930 . S
H417 C425 0.930 . S
H418 C426 0.930 . S
H419 C427 0.930 . S
H420 C430 0.930 1_556 S
H421 C431 0.930 . S
C422 H416 0.930 . S
C422 C423 1.355 . S
C422 C424 1.415 . S
C423 C422 1.355 . S
C423 C425 1.419 . S
C424 C422 1.415 . S
C424 C429 1.425 . S
C424 C431 1.409 . S
C425 H417 0.930 . S
C425 C423 1.419 . S
C425 C426 1.362 . S
C426 H418 0.930 . S
C426 C425 1.362 . S
C426 C429 1.409 . S
C427 H419 0.930 . S
C427 C428 1.355 . S
C427 C429 1.415 . S
C428 C427 1.355 . S
C428 C430 1.419 . S
C429 C424 1.425 . S
C429 C426 1.409 . S
C429 C427 1.415 . S
C430 H420 0.930 1_554 S
C430 C428 1.419 . S
C430 C431 1.362 . S
C431 H421 0.930 . S
C431 C424 1.409 . S
C431 C430 1.362 . S
H432 C438 0.930 . S
H433 C441 0.930 . S
H434 C442 0.930 . S
H435 C443 0.930 . S
H436 C446 0.930 . S
H437 C447 0.930 . S
C438 H432 0.930 . S
C438 C439 1.355 . S
C438 C440 1.415 . S
C439 C438 1.355 . S
C439 C441 1.419 . S
C440 C438 1.415 . S
C440 C445 1.425 . S
C440 C447 1.409 . S
C441 H433 0.930 . S
C441 C439 1.419 . S
C441 C442 1.362 . S
C442 H434 0.930 . S
C442 C441 1.362 . S
C442 C445 1.409 . S
C443 H435 0.930 . S
C443 C444 1.355 . S
C443 C445 1.415 . S
C444 C443 1.355 . S
C444 C446 1.419 . S
C445 C440 1.425 . S
C445 C442 1.409 . S
C445 C443 1.415 . S
C446 H436 0.930 . S
C446 C444 1.419 . S
C446 C447 1.362 . S
C447 H437 0.930 . S
C447 C440 1.409 . S
C447 C446 1.362 . S
H448 C454 0.930 . S
H449 C457 0.930 . S
H450 C458 0.930 . S
H451 C459 0.930 . S
H452 C462 0.930 . S
H453 C463 0.930 . S
C454 H448 0.930 . S
C454 C455 1.355 . S
C454 C456 1.415 . S
C455 C454 1.355 . S
C455 C457 1.419 . S
C456 C454 1.415 . S
C456 C461 1.425 . S
C456 C463 1.409 . S
C457 H449 0.930 . S
C457 C455 1.419 . S
C457 C458 1.362 . S
C458 H450 0.930 . S
C458 C457 1.362 . S
C458 C461 1.409 . S
C459 H451 0.930 . S
C459 C460 1.355 . S
C459 C461 1.415 . S
C460 C459 1.355 . S
C460 C462 1.419 . S
C461 C456 1.425 . S
C461 C458 1.409 . S
C461 C459 1.415 . S
C462 H452 0.930 . S
C462 C460 1.419 . S
C462 C463 1.362 . S
C463 H453 0.930 . S
C463 C456 1.409 . S
C463 C462 1.362 . S
H464 C470 0.930 . S
H465 C473 0.930 . S
H466 C474 0.930 . S
H467 C475 0.930 . S
H468 C478 0.930 . S
H469 C479 0.930 . S
C470 H464 0.930 . S
C470 C471 1.355 . S
C470 C472 1.415 . S
C471 C470 1.355 . S
C471 C473 1.419 . S
C472 C470 1.415 . S
C472 C477 1.425 . S
C472 C479 1.409 . S
C473 H465 0.930 . S
C473 C471 1.419 . S
C473 C474 1.362 . S
C474 H466 0.930 . S
C474 C473 1.362 . S
C474 C477 1.409 . S
C475 H467 0.930 . S
C475 C476 1.355 . S
C475 C477 1.415 . S
C476 C475 1.355 . S
C476 C478 1.419 . S
C477 C472 1.425 . S
C477 C474 1.409 . S
C477 C475 1.415 . S
C478 H468 0.930 . S
C478 C476 1.419 . S
C478 C479 1.362 . S
C479 H469 0.930 . S
C479 C472 1.409 . S
C479 C478 1.362 . S
H480 C486 0.930 . S
H481 C489 0.930 . S
H482 C490 0.930 . S
H483 C491 0.930 . S
H484 C494 0.930 . S
H485 C495 0.930 . S
C486 H480 0.930 . S
C486 C487 1.355 . S
C486 C488 1.415 . S
C487 C486 1.355 . S
C487 C489 1.419 . S
C488 C486 1.415 . S
C488 C493 1.425 . S
C488 C495 1.409 . S
C489 H481 0.930 . S
C489 C487 1.419 . S
C489 C490 1.362 . S
C490 H482 0.930 . S
C490 C489 1.362 . S
C490 C493 1.409 . S
C491 H483 0.930 . S
C491 C492 1.355 . S
C491 C493 1.415 . S
C492 C491 1.355 . S
C492 C494 1.419 . S
C493 C488 1.425 . S
C493 C490 1.409 . S
C493 C491 1.415 . S
C494 H484 0.930 . S
C494 C492 1.419 . S
C494 C495 1.362 . S
C495 H485 0.930 . S
C495 C488 1.409 . S
C495 C494 1.362 . S
H496 C502 0.930 . S
H497 C505 0.930 . S
H498 C506 0.930 . S
H499 C507 0.930 . S
H500 C510 0.930 . S
H501 C511 0.930 . S
C502 H496 0.930 . S
C502 C503 1.355 . S
C502 C504 1.415 . S
C503 C502 1.355 . S
C503 C505 1.419 . S
C504 C502 1.415 . S
C504 C509 1.425 . S
C504 C511 1.409 . S
C505 H497 0.930 . S
C505 C503 1.419 . S
C505 C506 1.362 . S
C506 H498 0.930 . S
C506 C505 1.362 . S
C506 C509 1.409 . S
C507 H499 0.930 . S
C507 C508 1.355 . S
C507 C509 1.415 . S
C508 C507 1.355 . S
C508 C510 1.419 . S
C509 C504 1.425 . S
C509 C506 1.409 . S
C509 C507 1.415 . S
C510 H500 0.930 . S
C510 C508 1.419 . S
C510 C511 1.362 . S
C511 H501 0.930 . S
C511 C504 1.409 . S
C511 C510 1.362 . S
H512 C518 0.930 . S
H513 C521 0.930 . S
H514 C522 0.930 . S
H515 C523 0.930 . S
H516 C526 0.930 . S
H517 C527 0.930 . S
C518 H512 0.930 . S
C518 C519 1.355 . S
C518 C520 1.415 . S
C519 C518 1.355 . S
C519 C521 1.419 . S
C520 C518 1.415 . S
C520 C525 1.425 . S
C520 C527 1.409 . S
C521 H513 0.930 . S
C521 C519 1.419 . S
C521 C522 1.362 . S
C522 H514 0.930 . S
C522 C521 1.362 . S
C522 C525 1.409 . S
C523 H515 0.930 . S
C523 C524 1.355 . S
C523 C525 1.415 . S
C524 C523 1.355 . S
C524 C526 1.419 . S
C525 C520 1.425 . S
C525 C522 1.409 . S
C525 C523 1.415 . S
C526 H516 0.930 . S
C526 C524 1.419 . S
C526 C527 1.362 . S
C527 H517 0.930 . S
C527 C520 1.409 . S
C527 C526 1.362 . S
H528 C534 0.930 . S
H529 C537 0.930 . S
H530 C538 0.930 . S
H531 C539 0.930 . S
H532 C542 0.930 . S
H533 C543 0.930 . S
C534 H528 0.930 . S
C534 C535 1.355 . S
C534 C536 1.415 . S
C535 C534 1.355 . S
C535 C537 1.419 . S
C536 C534 1.415 . S
C536 C541 1.425 . S
C536 C543 1.409 . S
C537 H529 0.930 . S
C537 C535 1.419 . S
C537 C538 1.362 . S
C538 H530 0.930 . S
C538 C537 1.362 . S
C538 C541 1.409 . S
C539 H531 0.930 . S
C539 C540 1.355 . S
C539 C541 1.415 . S
C540 C539 1.355 . S
C540 C542 1.419 . S
C541 C536 1.425 . S
C541 C538 1.409 . S
C541 C539 1.415 . S
C542 H532 0.930 . S
C542 C540 1.419 . S
C542 C543 1.362 . S
C543 H533 0.930 . S
C543 C536 1.409 . S
C543 C542 1.362 . S
H544 C550 0.930 . S
H545 C553 0.930 . S
H546 C554 0.930 . S
H547 C555 0.930 . S
H548 C558 0.930 . S
H549 C559 0.930 . S
C550 H544 0.930 . S
C550 C551 1.355 . S
C550 C552 1.415 . S
C551 C550 1.355 . S
C551 C553 1.419 . S
C552 C550 1.415 . S
C552 C557 1.425 . S
C552 C559 1.409 . S
C553 H545 0.930 . S
C553 C551 1.419 . S
C553 C554 1.362 . S
C554 H546 0.930 . S
C554 C553 1.362 . S
C554 C557 1.409 . S
C555 H547 0.930 . S
C555 C556 1.355 . S
C555 C557 1.415 . S
C556 C555 1.355 . S
C556 C558 1.419 . S
C557 C552 1.425 . S
C557 C554 1.409 . S
C557 C555 1.415 . S
C558 H548 0.930 . S
C558 C556 1.419 . S
C558 C559 1.362 . S
C559 H549 0.930 . S
C559 C552 1.409 . S
C559 C558 1.362 . S
H560 C566 0.930 1_554 S
H561 C569 0.930 . S
H562 C570 0.930 . S
H563 C571 0.930 . S
H564 C574 0.930 . S
H565 C575 0.930 1_554 S
C566 H560 0.930 1_556 S
C566 C567 1.355 . S
C566 C568 1.415 . S
C567 C566 1.355 . S
C567 C569 1.419 . S
C568 C566 1.415 . S
C568 C573 1.425 . S
C568 C575 1.409 . S
C569 H561 0.930 . S
C569 C567 1.419 . S
C569 C570 1.362 . S
C570 H562 0.930 . S
C570 C569 1.362 . S
C570 C573 1.409 . S
C571 H563 0.930 . S
C571 C572 1.355 . S
C571 C573 1.415 . S
C572 C571 1.355 . S
C572 C574 1.419 . S
C573 C568 1.425 . S
C573 C570 1.409 . S
C573 C571 1.415 . S
C574 H564 0.930 . S
C574 C572 1.419 . S
C574 C575 1.362 . S
C575 H565 0.930 1_556 S
C575 C568 1.409 . S
C575 C574 1.362 . S
H576 C582 0.930 . S
H577 C585 0.930 . S
H578 C586 0.930 . S
H579 C587 0.930 . S
H580 C590 0.930 . S
H581 C591 0.930 . S
C582 H576 0.930 . S
C582 C583 1.355 . S
C582 C584 1.415 . S
C583 C582 1.355 . S
C583 C585 1.419 . S
C584 C582 1.415 . S
C584 C589 1.425 . S
C584 C591 1.409 . S
C585 H577 0.930 . S
C585 C583 1.419 . S
C585 C586 1.362 . S
C586 H578 0.930 . S
C586 C585 1.362 . S
C586 C589 1.409 . S
C587 H579 0.930 . S
C587 C588 1.355 . S
C587 C589 1.415 . S
C588 C587 1.355 . S
C588 C590 1.419 . S
C589 C584 1.425 . S
C589 C586 1.409 . S
C589 C587 1.415 . S
C590 H580 0.930 . S
C590 C588 1.419 . S
C590 C591 1.362 . S
C591 H581 0.930 . S
C591 C584 1.409 . S
C591 C590 1.362 . S
H592 C598 0.930 . S
H593 C601 0.930 . S
H594 C602 0.930 . S
H595 C603 0.930 . S
H596 C606 0.930 . S
H597 C607 0.930 . S
C598 H592 0.930 . S
C598 C599 1.355 1_455 S
C598 C600 1.415 . S
C599 C598 1.355 1_655 S
C599 C601 1.419 . S
C600 C598 1.415 . S
C600 C605 1.425 1_455 S
C600 C607 1.409 . S
C601 H593 0.930 . S
C601 C599 1.419 . S
C601 C602 1.362 . S
C602 H594 0.930 . S
C602 C601 1.362 . S
C602 C605 1.409 . S
C603 H595 0.930 . S
C603 C604 1.355 1_655 S
C603 C605 1.415 . S
C604 C603 1.355 1_455 S
C604 C606 1.419 . S
C605 C600 1.425 1_655 S
C605 C602 1.409 . S
C605 C603 1.415 . S
C606 H596 0.930 . S
C606 C604 1.419 . S
C606 C607 1.362 . S
C607 H597 0.930 . S
C607 C600 1.409 . S
C607 C606 1.362 . S
H608 C614 0.930 . S
H609 C617 0.930 . S
H610 C618 0.930 . S
H611 C619 0.930 . S
H612 C622 0.930 . S
H613 C623 0.930 . S
C614 H608 0.930 . S
C614 C615 1.355 . S
C614 C616 1.415 . S
C615 C614 1.355 . S
C615 C617 1.419 . S
C616 C614 1.415 . S
C616 C621 1.425 . S
C616 C623 1.409 . S
C617 H609 0.930 . S
C617 C615 1.419 . S
C617 C618 1.362 . S
C618 H610 0.930 . S
C618 C617 1.362 . S
C618 C621 1.409 . S
C619 H611 0.930 . S
C619 C620 1.355 . S
C619 C621 1.415 . S
C620 C619 1.355 . S
C620 C622 1.419 . S
C621 C616 1.425 . S
C621 C618 1.409 . S
C621 C619 1.415 . S
C622 H612 0.930 . S
C622 C620 1.419 . S
C622 C623 1.362 . S
C623 H613 0.930 . S
C623 C616 1.409 . S
C623 C622 1.362 . S
H624 C630 0.930 . S
H625 C633 0.930 . S
H626 C634 0.930 1_554 S
H627 C635 0.930 . S
H628 C638 0.930 . S
H629 C639 0.930 1_556 S
C630 H624 0.930 . S
C630 C631 1.355 . S
C630 C632 1.415 . S
C631 C630 1.355 . S
C631 C633 1.419 . S
C632 C630 1.415 . S
C632 C637 1.425 1_556 S
C632 C639 1.409 1_556 S
C633 H625 0.930 . S
C633 C631 1.419 . S
C633 C634 1.362 . S
C634 H626 0.930 1_556 S
C634 C633 1.362 . S
C634 C637 1.409 1_556 S
C635 H627 0.930 . S
C635 C636 1.355 . S
C635 C637 1.415 . S
C636 C635 1.355 . S
C636 C638 1.419 . S
C637 C632 1.425 1_554 S
C637 C634 1.409 1_554 S
C637 C635 1.415 . S
C638 H628 0.930 . S
C638 C636 1.419 . S
C638 C639 1.362 . S
C639 H629 0.930 1_554 S
C639 C632 1.409 1_554 S
C639 C638 1.362 . S
H640 C646 0.930 . S
H641 C649 0.930 . S
H642 C650 0.930 . S
H643 C651 0.930 . S
H644 C654 0.930 . S
H645 C655 0.930 . S
C646 H640 0.930 . S
C646 C647 1.355 . S
C646 C648 1.415 . S
C647 C646 1.355 . S
C647 C649 1.419 . S
C648 C646 1.415 . S
C648 C653 1.425 . S
C648 C655 1.409 . S
C649 H641 0.930 . S
C649 C647 1.419 . S
C649 C650 1.362 . S
C650 H642 0.930 . S
C650 C649 1.362 . S
C650 C653 1.409 . S
C651 H643 0.930 . S
C651 C652 1.355 . S
C651 C653 1.415 . S
C652 C651 1.355 . S
C652 C654 1.419 . S
C653 C648 1.425 . S
C653 C650 1.409 . S
C653 C651 1.415 . S
C654 H644 0.930 . S
C654 C652 1.419 . S
C654 C655 1.362 . S
C655 H645 0.930 . S
C655 C648 1.409 . S
C655 C654 1.362 . S
H656 C662 0.930 . S
H657 C665 0.930 . S
H658 C666 0.928 1_556 S
H659 C667 0.930 . S
H660 C670 0.930 . S
H661 C671 0.930 . S
C662 H656 0.930 . S
C662 C663 1.355 . S
C662 C664 1.415 . S
C663 C662 1.355 . S
C663 C665 1.419 . S
C664 C662 1.415 . S
C664 C669 1.425 1_554 S
C664 C671 1.409 1_554 S
C665 H657 0.930 . S
C665 C663 1.419 . S
C665 C666 1.362 . S
C666 H658 0.928 1_554 S
C666 C665 1.362 . S
C666 C669 1.409 1_554 S
C667 H659 0.930 . S
C667 C668 1.355 . S
C667 C669 1.415 . S
C668 C667 1.355 . S
C668 C670 1.419 . S
C669 C664 1.425 1_556 S
C669 C666 1.409 1_556 S
C669 C667 1.415 . S
C670 H660 0.930 . S
C670 C668 1.419 . S
C670 C671 1.362 . S
C671 H661 0.930 . S
C671 C664 1.409 1_556 S
C671 C670 1.362 . S
H672 C678 0.930 . S
H673 C681 0.930 . S
H674 C682 0.930 . S
H675 C683 0.930 1_545 S
H676 C686 0.930 . S
H677 C687 0.930 . S
C678 H672 0.930 . S
C678 C679 1.355 1_565 S
C678 C680 1.415 . S
C679 C678 1.355 1_545 S
C679 C681 1.419 . S
C680 C678 1.415 . S
C680 C685 1.425 . S
C680 C687 1.409 . S
C681 H673 0.930 . S
C681 C679 1.419 . S
C681 C682 1.362 . S
C682 H674 0.930 . S
C682 C681 1.362 . S
C682 C685 1.409 1_545 S
C683 H675 0.930 1_565 S
C683 C684 1.355 . S
C683 C685 1.415 . S
C684 C683 1.355 . S
C684 C686 1.419 . S
C685 C680 1.425 . S
C685 C682 1.409 1_565 S
C685 C683 1.415 . S
C686 H676 0.930 . S
C686 C684 1.419 . S
C686 C687 1.362 . S
C687 H677 0.930 . S
C687 C680 1.409 . S
C687 C686 1.362 . S
H688 C694 0.930 1_655 S
H689 C697 0.930 . S
H690 C698 0.930 . S
H691 C699 0.930 . S
H692 C702 0.930 . S
H693 C703 0.930 . S
C694 H688 0.930 1_455 S
C694 C695 1.355 . S
C694 C696 1.415 . S
C695 C694 1.355 . S
C695 C697 1.419 . S
C696 C694 1.415 . S
C696 C701 1.425 . S
C696 C703 1.409 1_455 S
C697 H689 0.930 . S
C697 C695 1.419 . S
C697 C698 1.362 . S
C698 H690 0.930 . S
C698 C697 1.362 . S
C698 C701 1.409 . S
C699 H691 0.930 . S
C699 C700 1.355 . S
C699 C701 1.415 . S
C700 C699 1.355 . S
C700 C702 1.419 1_455 S
C701 C696 1.425 . S
C701 C698 1.409 . S
C701 C699 1.415 . S
C702 H692 0.930 . S
C702 C700 1.419 1_655 S
C702 C703 1.362 . S
C703 H693 0.930 . S
C703 C696 1.409 1_655 S
C703 C702 1.362 . S
H704 C710 0.930 . S
H705 C713 0.930 . S
H706 C714 0.930 . S
H707 C715 0.930 . S
H708 C718 0.930 . S
H709 C719 0.930 . S
C710 H704 0.930 . S
C710 C711 1.355 . S
C710 C712 1.415 . S
C711 C710 1.355 . S
C711 C713 1.419 . S
C712 C710 1.415 . S
C712 C717 1.425 . S
C712 C719 1.409 . S
C713 H705 0.930 . S
C713 C711 1.419 . S
C713 C714 1.362 . S
C714 H706 0.930 . S
C714 C713 1.362 . S
C714 C717 1.409 . S
C715 H707 0.930 . S
C715 C716 1.355 . S
C715 C717 1.415 . S
C716 C715 1.355 . S
C716 C718 1.419 . S
C717 C712 1.425 . S
C717 C714 1.409 . S
C717 C715 1.415 . S
C718 H708 0.930 . S
C718 C716 1.419 . S
C718 C719 1.362 . S
C719 H709 0.930 . S
C719 C712 1.409 . S
C719 C718 1.362 . S
C279 C232 0.634 . S
C284 C28 0.684 . S
C295 C62 0.761 . S
C300 C244 0.758 . S
C311 C164 0.703 . S
C316 C96 0.654 . S
C327 C108 0.617 . S
C332 C198 0.666 . S
C343 C171 2.018 . S
C348 C3 2.094 . S
C359 C37 2.082 . S
C364 C205 2.068 . S
C375 C71 2.105 . S
C380 C241 2.025 . S
C391 C103 2.083 . S
C396 C137 2.069 . S
C407 C130 1.544 . S
C412 C17 1.507 . S
C423 C51 1.570 . S
C428 C6 1.593 . S
C439 C40 1.587 . S
C444 C85 1.563 . S
C455 C119 1.502 . S
C460 C74 1.542 . S
C471 C35 2.019 . S
C476 C139 2.090 . S
C487 C69 2.023 . S
C492 C173 2.103 . S
C503 C105 2.037 . S
C508 C207 2.110 . S
C519 C239 2.111 . S
C524 C1 2.050 . S
C535 C266 1.567 . S
C540 C153 1.534 . S
C551 C187 1.544 . S
C556 C142 1.572 . S
C567 C221 1.496 . S
C572 C176 1.536 . S
C583 C210 1.536 . S
C588 C255 1.495 . S
C599 C22 1.405 . S
C604 C15 1.405 . S
C615 C49 1.472 . S
C620 C56 1.468 . S
C631 C90 1.469 . S
C636 C83 1.473 . S
C647 C124 1.450 . S
C652 C117 1.442 . S
C663 C151 1.447 . S
C668 C158 1.446 . S
C679 C185 1.401 . S
C684 C192 1.401 . S
C695 C226 1.390 . S
C700 C219 1.391 . S
C711 C253 1.380 . S
C716 C260 1.381 . S
