# Generated by pormake.
# Topology wnd, (6)-cn, num edge types: 1
# Building blocks:
#     Node 0, Type 0, BuildingBlock: CUKXOW_clean_sbu_0, # of connection points: 6
#     Node 1, Type 0, BuildingBlock: CUKXOW_clean_sbu_0, # of connection points: 6
#     Node 2, Type 0, BuildingBlock: CUKXOW_clean_sbu_0, # of connection points: 6
#     Node 3, Type 0, BuildingBlock: CUKXOW_clean_sbu_0, # of connection points: 6
#     Node 4, Type 0, BuildingBlock: CUKXOW_clean_sbu_0, # of connection points: 6
#     Node 5, Type 0, BuildingBlock: CUKXOW_clean_sbu_0, # of connection points: 6
#     Node 6, Type 0, BuildingBlock: CUKXOW_clean_sbu_0, # of connection points: 6
#     Node 7, Type 0, BuildingBlock: CUKXOW_clean_sbu_0, # of connection points: 6
#     Node 8, Type 0, BuildingBlock: CUKXOW_clean_sbu_0, # of connection points: 6
#     Node 9, Type 0, BuildingBlock: CUKXOW_clean_sbu_0, # of connection points: 6
#     Node 10, Type 0, BuildingBlock: CUKXOW_clean_sbu_0, # of connection points: 6
#     Node 11, Type 0, BuildingBlock: CUKXOW_clean_sbu_0, # of connection points: 6
#     Node 12, Type 0, BuildingBlock: CUKXOW_clean_sbu_0, # of connection points: 6
#     Node 13, Type 0, BuildingBlock: CUKXOW_clean_sbu_0, # of connection points: 6
#     Node 14, Type 0, BuildingBlock: CUKXOW_clean_sbu_0, # of connection points: 6
#     Node 15, Type 0, BuildingBlock: CUKXOW_clean_sbu_0, # of connection points: 6
#     Node 16, Type 0, BuildingBlock: CUKXOW_clean_sbu_0, # of connection points: 6
#     Node 17, Type 0, BuildingBlock: CUKXOW_clean_sbu_0, # of connection points: 6
#     Node 18, Type 0, BuildingBlock: CUKXOW_clean_sbu_0, # of connection points: 6
#     Node 19, Type 0, BuildingBlock: CUKXOW_clean_sbu_0, # of connection points: 6
#     Node 20, Type 0, BuildingBlock: CUKXOW_clean_sbu_0, # of connection points: 6
#     Node 21, Type 0, BuildingBlock: CUKXOW_clean_sbu_0, # of connection points: 6
#     Node 22, Type 0, BuildingBlock: CUKXOW_clean_sbu_0, # of connection points: 6
#     Node 23, Type 0, BuildingBlock: CUKXOW_clean_sbu_0, # of connection points: 6
#     Node 24, Type 0, BuildingBlock: CUKXOW_clean_sbu_0, # of connection points: 6
#     Node 25, Type 0, BuildingBlock: CUKXOW_clean_sbu_0, # of connection points: 6
#     Node 26, Type 0, BuildingBlock: CUKXOW_clean_sbu_0, # of connection points: 6
#     Node 27, Type 0, BuildingBlock: CUKXOW_clean_sbu_0, # of connection points: 6
#     Node 28, Type 0, BuildingBlock: CUKXOW_clean_sbu_0, # of connection points: 6
#     Node 29, Type 0, BuildingBlock: CUKXOW_clean_sbu_0, # of connection points: 6
#     Node 30, Type 0, BuildingBlock: CUKXOW_clean_sbu_0, # of connection points: 6
#     Node 31, Type 0, BuildingBlock: CUKXOW_clean_sbu_0, # of connection points: 6
#     Node 32, Type 0, BuildingBlock: CUKXOW_clean_sbu_0, # of connection points: 6
#     Node 33, Type 0, BuildingBlock: CUKXOW_clean_sbu_0, # of connection points: 6
#     Node 34, Type 0, BuildingBlock: CUKXOW_clean_sbu_0, # of connection points: 6
#     Node 35, Type 0, BuildingBlock: CUKXOW_clean_sbu_0, # of connection points: 6
#     Edge 36, Type (0, 0), BuildingBlock: UVAHIK_clean_linker_0, # of connection points: 2
#     Edge 37, Type (0, 0), BuildingBlock: UVAHIK_clean_linker_0, # of connection points: 2
#     Edge 38, Type (0, 0), BuildingBlock: UVAHIK_clean_linker_0, # of connection points: 2
#     Edge 39, Type (0, 0), BuildingBlock: UVAHIK_clean_linker_0, # of connection points: 2
#     Edge 40, Type (0, 0), BuildingBlock: UVAHIK_clean_linker_0, # of connection points: 2
#     Edge 41, Type (0, 0), BuildingBlock: UVAHIK_clean_linker_0, # of connection points: 2
#     Edge 42, Type (0, 0), BuildingBlock: UVAHIK_clean_linker_0, # of connection points: 2
#     Edge 43, Type (0, 0), BuildingBlock: UVAHIK_clean_linker_0, # of connection points: 2
#     Edge 44, Type (0, 0), BuildingBlock: UVAHIK_clean_linker_0, # of connection points: 2
#     Edge 45, Type (0, 0), BuildingBlock: UVAHIK_clean_linker_0, # of connection points: 2
#     Edge 46, Type (0, 0), BuildingBlock: UVAHIK_clean_linker_0, # of connection points: 2
#     Edge 47, Type (0, 0), BuildingBlock: UVAHIK_clean_linker_0, # of connection points: 2
#     Edge 48, Type (0, 0), BuildingBlock: UVAHIK_clean_linker_0, # of connection points: 2
#     Edge 49, Type (0, 0), BuildingBlock: UVAHIK_clean_linker_0, # of connection points: 2
#     Edge 50, Type (0, 0), BuildingBlock: UVAHIK_clean_linker_0, # of connection points: 2
#     Edge 51, Type (0, 0), BuildingBlock: UVAHIK_clean_linker_0, # of connection points: 2
#     Edge 52, Type (0, 0), BuildingBlock: UVAHIK_clean_linker_0, # of connection points: 2
#     Edge 53, Type (0, 0), BuildingBlock: UVAHIK_clean_linker_0, # of connection points: 2
#     Edge 54, Type (0, 0), BuildingBlock: UVAHIK_clean_linker_0, # of connection points: 2
#     Edge 55, Type (0, 0), BuildingBlock: UVAHIK_clean_linker_0, # of connection points: 2
#     Edge 56, Type (0, 0), BuildingBlock: UVAHIK_clean_linker_0, # of connection points: 2
#     Edge 57, Type (0, 0), BuildingBlock: UVAHIK_clean_linker_0, # of connection points: 2
#     Edge 58, Type (0, 0), BuildingBlock: UVAHIK_clean_linker_0, # of connection points: 2
#     Edge 59, Type (0, 0), BuildingBlock: UVAHIK_clean_linker_0, # of connection points: 2
#     Edge 60, Type (0, 0), BuildingBlock: UVAHIK_clean_linker_0, # of connection points: 2
#     Edge 61, Type (0, 0), BuildingBlock: UVAHIK_clean_linker_0, # of connection points: 2
#     Edge 62, Type (0, 0), BuildingBlock: UVAHIK_clean_linker_0, # of connection points: 2
#     Edge 63, Type (0, 0), BuildingBlock: UVAHIK_clean_linker_0, # of connection points: 2
#     Edge 64, Type (0, 0), BuildingBlock: UVAHIK_clean_linker_0, # of connection points: 2
#     Edge 65, Type (0, 0), BuildingBlock: UVAHIK_clean_linker_0, # of connection points: 2
#     Edge 66, Type (0, 0), BuildingBlock: UVAHIK_clean_linker_0, # of connection points: 2
#     Edge 67, Type (0, 0), BuildingBlock: UVAHIK_clean_linker_0, # of connection points: 2
#     Edge 68, Type (0, 0), BuildingBlock: UVAHIK_clean_linker_0, # of connection points: 2
#     Edge 69, Type (0, 0), BuildingBlock: UVAHIK_clean_linker_0, # of connection points: 2
#     Edge 70, Type (0, 0), BuildingBlock: UVAHIK_clean_linker_0, # of connection points: 2
#     Edge 71, Type (0, 0), BuildingBlock: UVAHIK_clean_linker_0, # of connection points: 2
#     Edge 72, Type (0, 0), BuildingBlock: UVAHIK_clean_linker_0, # of connection points: 2
#     Edge 73, Type (0, 0), BuildingBlock: UVAHIK_clean_linker_0, # of connection points: 2
#     Edge 74, Type (0, 0), BuildingBlock: UVAHIK_clean_linker_0, # of connection points: 2
#     Edge 75, Type (0, 0), BuildingBlock: UVAHIK_clean_linker_0, # of connection points: 2
#     Edge 76, Type (0, 0), BuildingBlock: UVAHIK_clean_linker_0, # of connection points: 2
#     Edge 77, Type (0, 0), BuildingBlock: UVAHIK_clean_linker_0, # of connection points: 2
#     Edge 78, Type (0, 0), BuildingBlock: UVAHIK_clean_linker_0, # of connection points: 2
#     Edge 79, Type (0, 0), BuildingBlock: UVAHIK_clean_linker_0, # of connection points: 2
#     Edge 80, Type (0, 0), BuildingBlock: UVAHIK_clean_linker_0, # of connection points: 2
#     Edge 81, Type (0, 0), BuildingBlock: UVAHIK_clean_linker_0, # of connection points: 2
#     Edge 82, Type (0, 0), BuildingBlock: UVAHIK_clean_linker_0, # of connection points: 2
#     Edge 83, Type (0, 0), BuildingBlock: UVAHIK_clean_linker_0, # of connection points: 2
#     Edge 84, Type (0, 0), BuildingBlock: UVAHIK_clean_linker_0, # of connection points: 2
#     Edge 85, Type (0, 0), BuildingBlock: UVAHIK_clean_linker_0, # of connection points: 2
#     Edge 86, Type (0, 0), BuildingBlock: UVAHIK_clean_linker_0, # of connection points: 2
#     Edge 87, Type (0, 0), BuildingBlock: UVAHIK_clean_linker_0, # of connection points: 2
#     Edge 88, Type (0, 0), BuildingBlock: UVAHIK_clean_linker_0, # of connection points: 2
#     Edge 89, Type (0, 0), BuildingBlock: UVAHIK_clean_linker_0, # of connection points: 2
#     Edge 90, Type (0, 0), BuildingBlock: UVAHIK_clean_linker_0, # of connection points: 2
#     Edge 91, Type (0, 0), BuildingBlock: UVAHIK_clean_linker_0, # of connection points: 2
#     Edge 92, Type (0, 0), BuildingBlock: UVAHIK_clean_linker_0, # of connection points: 2
#     Edge 93, Type (0, 0), BuildingBlock: UVAHIK_clean_linker_0, # of connection points: 2
#     Edge 94, Type (0, 0), BuildingBlock: UVAHIK_clean_linker_0, # of connection points: 2
#     Edge 95, Type (0, 0), BuildingBlock: UVAHIK_clean_linker_0, # of connection points: 2
#     Edge 96, Type (0, 0), BuildingBlock: UVAHIK_clean_linker_0, # of connection points: 2
#     Edge 97, Type (0, 0), BuildingBlock: UVAHIK_clean_linker_0, # of connection points: 2
#     Edge 98, Type (0, 0), BuildingBlock: UVAHIK_clean_linker_0, # of connection points: 2
#     Edge 99, Type (0, 0), BuildingBlock: UVAHIK_clean_linker_0, # of connection points: 2
#     Edge 100, Type (0, 0), BuildingBlock: UVAHIK_clean_linker_0, # of connection points: 2
#     Edge 101, Type (0, 0), BuildingBlock: UVAHIK_clean_linker_0, # of connection points: 2
#     Edge 102, Type (0, 0), BuildingBlock: UVAHIK_clean_linker_0, # of connection points: 2
#     Edge 103, Type (0, 0), BuildingBlock: UVAHIK_clean_linker_0, # of connection points: 2
#     Edge 104, Type (0, 0), BuildingBlock: UVAHIK_clean_linker_0, # of connection points: 2
#     Edge 105, Type (0, 0), BuildingBlock: UVAHIK_clean_linker_0, # of connection points: 2
#     Edge 106, Type (0, 0), BuildingBlock: UVAHIK_clean_linker_0, # of connection points: 2
#     Edge 107, Type (0, 0), BuildingBlock: UVAHIK_clean_linker_0, # of connection points: 2
#     Edge 108, Type (0, 0), BuildingBlock: UVAHIK_clean_linker_0, # of connection points: 2
#     Edge 109, Type (0, 0), BuildingBlock: UVAHIK_clean_linker_0, # of connection points: 2
#     Edge 110, Type (0, 0), BuildingBlock: UVAHIK_clean_linker_0, # of connection points: 2
#     Edge 111, Type (0, 0), BuildingBlock: UVAHIK_clean_linker_0, # of connection points: 2
#     Edge 112, Type (0, 0), BuildingBlock: UVAHIK_clean_linker_0, # of connection points: 2
#     Edge 113, Type (0, 0), BuildingBlock: UVAHIK_clean_linker_0, # of connection points: 2
#     Edge 114, Type (0, 0), BuildingBlock: UVAHIK_clean_linker_0, # of connection points: 2
#     Edge 115, Type (0, 0), BuildingBlock: UVAHIK_clean_linker_0, # of connection points: 2
#     Edge 116, Type (0, 0), BuildingBlock: UVAHIK_clean_linker_0, # of connection points: 2
#     Edge 117, Type (0, 0), BuildingBlock: UVAHIK_clean_linker_0, # of connection points: 2
#     Edge 118, Type (0, 0), BuildingBlock: UVAHIK_clean_linker_0, # of connection points: 2
#     Edge 119, Type (0, 0), BuildingBlock: UVAHIK_clean_linker_0, # of connection points: 2
#     Edge 120, Type (0, 0), BuildingBlock: UVAHIK_clean_linker_0, # of connection points: 2
#     Edge 121, Type (0, 0), BuildingBlock: UVAHIK_clean_linker_0, # of connection points: 2
#     Edge 122, Type (0, 0), BuildingBlock: UVAHIK_clean_linker_0, # of connection points: 2
#     Edge 123, Type (0, 0), BuildingBlock: UVAHIK_clean_linker_0, # of connection points: 2
#     Edge 124, Type (0, 0), BuildingBlock: UVAHIK_clean_linker_0, # of connection points: 2
#     Edge 125, Type (0, 0), BuildingBlock: UVAHIK_clean_linker_0, # of connection points: 2
#     Edge 126, Type (0, 0), BuildingBlock: UVAHIK_clean_linker_0, # of connection points: 2
#     Edge 127, Type (0, 0), BuildingBlock: UVAHIK_clean_linker_0, # of connection points: 2
#     Edge 128, Type (0, 0), BuildingBlock: UVAHIK_clean_linker_0, # of connection points: 2
#     Edge 129, Type (0, 0), BuildingBlock: UVAHIK_clean_linker_0, # of connection points: 2
#     Edge 130, Type (0, 0), BuildingBlock: UVAHIK_clean_linker_0, # of connection points: 2
#     Edge 131, Type (0, 0), BuildingBlock: UVAHIK_clean_linker_0, # of connection points: 2
#     Edge 132, Type (0, 0), BuildingBlock: UVAHIK_clean_linker_0, # of connection points: 2
#     Edge 133, Type (0, 0), BuildingBlock: UVAHIK_clean_linker_0, # of connection points: 2
#     Edge 134, Type (0, 0), BuildingBlock: UVAHIK_clean_linker_0, # of connection points: 2
#     Edge 135, Type (0, 0), BuildingBlock: UVAHIK_clean_linker_0, # of connection points: 2
#     Edge 136, Type (0, 0), BuildingBlock: UVAHIK_clean_linker_0, # of connection points: 2
#     Edge 137, Type (0, 0), BuildingBlock: UVAHIK_clean_linker_0, # of connection points: 2
#     Edge 138, Type (0, 0), BuildingBlock: UVAHIK_clean_linker_0, # of connection points: 2
#     Edge 139, Type (0, 0), BuildingBlock: UVAHIK_clean_linker_0, # of connection points: 2
#     Edge 140, Type (0, 0), BuildingBlock: UVAHIK_clean_linker_0, # of connection points: 2
#     Edge 141, Type (0, 0), BuildingBlock: UVAHIK_clean_linker_0, # of connection points: 2
#     Edge 142, Type (0, 0), BuildingBlock: UVAHIK_clean_linker_0, # of connection points: 2
#     Edge 143, Type (0, 0), BuildingBlock: UVAHIK_clean_linker_0, # of connection points: 2
# Relax obj value: 0.048
# Max RMSD: 0.140
# Mean RMSD: 0.140
data_MOF--net-wnd--node1-CUKXOW_clean_sbu_0--edge1-UVAHIK_clean_linker_0
_symmetry_space_group_name_H-M    P1
_symmetry_Int_Tables_number       1
_symmetry_cell_setting            triclinic
loop_
_symmetry_equiv_pos_as_xyz
'x, y, z'
_cell_length_a     41.023756
_cell_length_b     41.052539
_cell_length_c     220.7712
_cell_angle_alpha  90.023105
_cell_angle_beta   90.007908
_cell_angle_gamma 119.97209
loop_
_atom_site_label
_atom_site_type_symbol
_atom_site_fract_x
_atom_site_fract_y
_atom_site_fract_z
_atom_type_partial_charge
Tb0 Tb 0.55768 0.0725 0.04938 0.0
C1 C 0.52664 0.03473 0.03674 0.0
Tb2 Tb 0.47687 0.00594 0.04876 0.0
O3 O 0.58033 0.0358 0.04734 0.0
O4 O 0.52941 0.0147 0.05197 0.0
O5 O 0.5513 0.06586 0.03961 0.0
C6 C 0.41669 0.93694 0.04811 0.0
O7 O 0.49795 0.00615 0.03958 0.0
C8 C 0.4833 0.07273 0.04816 0.0
C9 C 0.50348 0.05176 0.06083 0.0
O10 O 0.42023 0.96655 0.04537 0.0
O11 O 0.44702 0.94623 0.05119 0.0
O12 O 0.45345 0.04325 0.05023 0.0
O13 O 0.50546 0.06278 0.04606 0.0
O14 O 0.47998 0.01854 0.05839 0.0
O15 O 0.53351 0.07799 0.05791 0.0
C16 C 0.62266 0.13701 0.05054 0.0
O17 O 0.61144 0.10772 0.05398 0.0
O18 O 0.59705 0.13016 0.04649 0.0
C19 C 0.55152 0.00584 0.04945 0.0
Tb20 Tb 1.00336 0.52247 0.0488 0.0
C21 C 0.0396 0.5269 0.03608 0.0
Tb22 Tb 0.06995 0.50724 0.04802 0.0
O23 O 0.04063 0.58158 0.04666 0.0
O24 O 0.0615 0.55132 0.0512 0.0
O25 O 0.00875 0.52065 0.03903 0.0
C26 C 0.13942 0.517 0.04744 0.0
O27 O 0.06872 0.52747 0.03886 0.0
C28 C 1.00313 0.44689 0.04769 0.0
C29 C 0.02471 0.4889 0.06018 0.0
O30 O 0.12934 0.53688 0.05067 0.0
O31 O 0.11032 0.49156 0.0445 0.0
O32 O 0.03336 0.44618 0.04925 0.0
O33 O 0.01247 0.47914 0.04571 0.0
O34 O 0.05752 0.4977 0.05766 0.0
O35 O 0.99862 0.49348 0.05736 0.0
C36 C 0.9396 0.52463 0.04999 0.0
O37 O 0.96848 0.54084 0.05358 0.0
O38 O 0.94648 0.50694 0.04576 0.0
C39 C 0.0706 0.58225 0.04867 0.0
Tb40 Tb 0.55376 0.51779 0.04866 0.0
C41 C 0.54704 0.54806 0.03596 0.0
Tb42 Tb 0.56777 0.59868 0.04792 0.0
O43 O 0.49448 0.49563 0.04656 0.0
O44 O 0.52454 0.54638 0.05124 0.0
O45 O 0.55339 0.52346 0.03889 0.0
C46 C 0.55843 0.65863 0.04729 0.0
O47 O 0.54722 0.57701 0.03874 0.0
C48 C 0.62816 0.59232 0.04739 0.0
C49 C 0.58711 0.57273 0.06006 0.0
O50 O 0.58499 0.6555 0.04463 0.0
O51 O 0.53713 0.62796 0.05026 0.0
O52 O 0.62843 0.62226 0.04941 0.0
O53 O 0.59608 0.56996 0.0453 0.0
O54 O 0.57741 0.59613 0.05756 0.0
O55 O 0.58303 0.54238 0.0572 0.0
C56 C 0.55285 0.45269 0.05013 0.0
O57 O 0.53195 0.46294 0.05303 0.0
O58 O 0.57468 0.47935 0.04643 0.0
C59 C 0.49346 0.52439 0.04875 0.0
Tb60 Tb 0.07744 0.55651 0.45841 0.0
C61 C 0.03783 0.52644 0.47095 0.0
Tb62 Tb 0.01037 0.47606 0.45899 0.0
O63 O 0.04071 0.57945 0.4602 0.0
O64 O 0.01994 0.52846 0.45559 0.0
O65 O 0.06925 0.55088 0.46814 0.0
C66 C 0.94106 0.41622 0.45951 0.0
O67 O 0.00964 0.49738 0.46811 0.0
C68 C 0.07689 0.48204 0.45993 0.0
C69 C 0.05731 0.50205 0.447 0.0
O70 O 0.97067 0.41889 0.46212 0.0
O71 O 0.95053 0.44722 0.45663 0.0
O72 O 0.0476 0.45234 0.45777 0.0
O73 O 0.06688 0.50442 0.46191 0.0
O74 O 0.02386 0.47878 0.4494 0.0
O75 O 0.08336 0.53232 0.44991 0.0
C76 C 0.14276 0.62108 0.45775 0.0
O77 O 0.11317 0.61242 0.45449 0.0
O78 O 0.13576 0.59307 0.46127 0.0
C79 C 0.01094 0.55083 0.45798 0.0
Tb80 Tb 0.52364 0.5516 0.45768 0.0
C81 C 0.55337 0.54779 0.47093 0.0
Tb82 Tb 0.60569 0.57214 0.45952 0.0
O83 O 0.51256 0.50066 0.45286 0.0
O84 O 0.5527 0.52214 0.4597 0.0
O85 O 0.52736 0.54994 0.46761 0.0
C86 C 0.6682 0.56713 0.45883 0.0
O87 O 0.58411 0.55019 0.46849 0.0
C88 C 0.59073 0.62634 0.46156 0.0
C89 C 0.57886 0.58496 0.44651 0.0
O90 O 0.66515 0.59308 0.46172 0.0
O91 O 0.63618 0.54429 0.45631 0.0
O92 O 0.61871 0.6251 0.46412 0.0
O93 O 0.5764 0.60085 0.45766 0.0
O94 O 0.60443 0.58105 0.44967 0.0
O95 O 0.54669 0.57886 0.44899 0.0
C96 C 0.45563 0.54577 0.45782 0.0
O97 O 0.46379 0.52212 0.45534 0.0
O98 O 0.48588 0.57298 0.46023 0.0
C99 C 0.53865 0.49743 0.45563 0.0
Tb100 Tb 0.5276 0.00572 0.45814 0.0
C101 C 0.52862 0.04011 0.47121 0.0
Tb102 Tb 0.50702 0.06772 0.4595 0.0
O103 O 0.58151 0.04482 0.4539 0.0
O104 O 0.55686 0.06427 0.45999 0.0
O105 O 0.52622 0.01138 0.46804 0.0
C106 C 0.51259 0.13517 0.4586 0.0
O107 O 0.52746 0.06869 0.46861 0.0
C108 C 0.45265 0.99897 0.46177 0.0
C109 C 0.49297 0.02548 0.44682 0.0
O110 O 0.4853 0.10602 0.46125 0.0
O111 O 0.53642 0.12618 0.45643 0.0
O112 O 0.45308 0.02865 0.46397 0.0
O113 O 0.47863 0.00945 0.45798 0.0
O114 O 0.49916 0.05662 0.44969 0.0
O115 O 0.49731 0.99908 0.44961 0.0
C116 C 0.53129 0.94264 0.4591 0.0
O117 O 0.541 0.96427 0.45438 0.0
O118 O 0.51929 0.95635 0.46326 0.0
C119 C 0.58315 0.07459 0.45623 0.0
Tb120 Tb 0.59624 0.06513 0.95943 0.0
C121 C 0.5696 0.01958 0.94733 0.0
Tb122 Tb 0.51526 0.99836 0.9588 0.0
O123 O 0.61985 0.02805 0.95796 0.0
O124 O 0.5676 0.00817 0.9621 0.0
O125 O 0.59326 0.05264 0.9498 0.0
C126 C 0.44992 0.93427 0.95741 0.0
O127 O 0.53934 0.99343 0.95022 0.0
C128 C 0.52194 0.06527 0.95875 0.0
C129 C 0.54626 0.03568 0.97145 0.0
O130 O 0.46016 0.96528 0.95448 0.0
O131 O 0.47671 0.93918 0.96109 0.0
O132 O 0.49327 0.03552 0.96095 0.0
O133 O 0.54369 0.05607 0.9562 0.0
O134 O 0.52153 1.00462 0.96857 0.0
O135 O 0.575 0.06436 0.96863 0.0
C136 C 0.65605 0.13453 0.96001 0.0
O137 O 0.62543 0.1248 0.95699 0.0
O138 O 0.65298 0.10512 0.96275 0.0
C139 C 0.58996 0.99847 0.96 0.0
Tb140 Tb 1.00374 0.56206 0.95882 0.0
C141 C 0.04872 0.58028 0.94667 0.0
Tb142 Tb 0.07039 0.54767 0.95815 0.0
O143 O 0.04091 0.62263 0.95732 0.0
O144 O 0.0608 0.5903 0.96147 0.0
O145 O 0.01584 0.57127 0.94918 0.0
C146 C 0.13493 0.54726 0.95683 0.0
O147 O 0.07492 0.5761 0.94954 0.0
C148 C 1.00339 0.48755 0.95812 0.0
C149 C 0.03322 0.54134 0.97081 0.0
O150 O 0.10382 0.5256 0.95397 0.0
O151 O 0.12982 0.56946 0.9604 0.0
O152 O 0.03317 0.48852 0.96031 0.0
O153 O 0.01264 0.51853 0.95558 0.0
O154 O 0.06421 0.54756 0.96792 0.0
O155 O 1.00453 0.54152 0.968 0.0
C156 C 0.9344 0.55262 0.95946 0.0
O157 O 0.96391 0.57888 0.9622 0.0
O158 O 0.944 0.53176 0.9564 0.0
C159 C 0.07052 0.6223 0.95935 0.0
Tb160 Tb 0.50681 0.47325 0.95872 0.0
C161 C 0.48849 0.49993 0.94655 0.0
Tb162 Tb 0.52158 0.55444 0.95801 0.0
O163 O 0.44622 0.4502 0.95725 0.0
O164 O 0.47898 0.50243 0.96138 0.0
O165 O 0.49737 0.476 0.94908 0.0
C166 C 0.52232 0.61957 0.95673 0.0
O167 O 0.49294 0.53047 0.9494 0.0
C168 C 0.58148 0.54716 0.95795 0.0
C169 C 0.5281 0.5238 0.97069 0.0
O170 O 0.54399 0.6101 0.95388 0.0
O171 O 0.4999 0.59216 0.96026 0.0
O172 O 0.58079 0.57613 0.96012 0.0
O173 O 0.55037 0.52548 0.95544 0.0
O174 O 0.52198 0.54859 0.96778 0.0
O175 O 0.52766 0.49477 0.96789 0.0
C176 C 0.51529 0.41281 0.95943 0.0
O177 O 0.48915 0.41653 0.96211 0.0
O178 O 0.53664 0.44315 0.95638 0.0
C179 C 0.44684 0.48026 0.95928 0.0
Tb180 Tb 0.0635 0.59729 0.54844 0.0
C181 C 0.01602 0.56776 0.56021 0.0
Tb182 Tb 0.9977 0.51648 0.54866 0.0
O183 O 0.02661 0.62194 0.54895 0.0
O184 O 1.00718 0.56859 0.5454 0.0
O185 O 0.05076 0.58867 0.55808 0.0
C186 C 0.93295 0.45122 0.54868 0.0
O187 O 0.98903 0.54032 0.55695 0.0
C188 C 0.06459 0.52308 0.54952 0.0
C189 C 0.03648 0.55144 0.53609 0.0
O190 O 0.95462 0.46599 0.55336 0.0
O191 O 0.94742 0.47339 0.54408 0.0
O192 O 0.03515 0.49387 0.54739 0.0
O193 O 0.05471 0.545 0.5518 0.0
O194 O 1.00621 0.52511 0.53893 0.0
O195 O 0.06361 0.58113 0.53896 0.0
C196 C 0.13245 0.65759 0.54827 0.0
O197 O 0.12422 0.62386 0.5467 0.0
O198 O 0.10193 0.65731 0.54987 0.0
C199 C 0.99705 0.59128 0.54716 0.0
Tb200 Tb 0.46944 0.50184 0.54767 0.0
C201 C 0.49596 0.487 0.56046 0.0
Tb202 Tb 0.55146 0.52143 0.54932 0.0
O203 O 0.45494 0.44838 0.54309 0.0
O204 O 0.49858 0.47256 0.54931 0.0
O205 O 0.47143 0.49344 0.5575 0.0
C206 C 0.6187 0.52566 0.54903 0.0
O207 O 0.52678 0.49096 0.55776 0.0
C208 C 0.53809 0.57686 0.55134 0.0
C209 C 0.52057 0.52475 0.53614 0.0
O210 O 0.60665 0.53865 0.5533 0.0
O211 O 0.59282 0.51007 0.54492 0.0
O212 O 0.56535 0.57432 0.55381 0.0
O213 O 0.52291 0.55142 0.54742 0.0
O214 O 0.54668 0.52242 0.5394 0.0
O215 O 0.49016 0.52282 0.53863 0.0
C216 C 0.40767 0.50806 0.54852 0.0
O217 O 0.40941 0.48055 0.54592 0.0
O218 O 0.44061 0.53182 0.55066 0.0
C219 C 0.48342 0.44706 0.54542 0.0
Tb220 Tb 0.56633 0.0053 0.5482 0.0
C221 C 0.577 0.0453 0.56111 0.0
Tb222 Tb 0.54504 0.06655 0.54965 0.0
O223 O 0.62015 0.0452 0.54386 0.0
O224 O 0.59435 0.06324 0.55005 0.0
O225 O 0.57307 0.01546 0.55807 0.0
C226 C 0.53998 0.12896 0.54891 0.0
O227 O 0.57162 0.07142 0.55846 0.0
C228 C 0.49031 0.99729 0.55142 0.0
C229 C 0.544 0.03272 0.53651 0.0
O230 O 0.51915 0.09994 0.55227 0.0
O231 O 0.56405 0.12306 0.546 0.0
O232 O 0.49197 0.02652 0.55397 0.0
O233 O 0.51645 0.00828 0.54761 0.0
O234 O 0.54511 0.06072 0.53973 0.0
O235 O 0.54631 1.00466 0.53906 0.0
C236 C 0.56191 0.93833 0.54904 0.0
O237 O 0.58865 0.96763 0.54633 0.0
O238 O 0.53802 0.94693 0.55131 0.0
C239 C 0.62066 0.07432 0.5463 0.0
Tb240 Tb 0.22365 0.4005 0.38239 0.0
C241 C 0.18894 0.36795 0.36938 0.0
Tb242 Tb 0.14098 0.33917 0.38109 0.0
O243 O 0.23481 0.36144 0.38744 0.0
O244 O 0.19379 0.34169 0.38068 0.0
O245 O 0.21396 0.39751 0.37255 0.0
C246 C 0.07844 0.27204 0.38202 0.0
O247 O 0.16069 0.33819 0.37202 0.0
C248 C 0.15527 0.40794 0.3789 0.0
C249 C 0.17193 0.37968 0.39398 0.0
O250 O 0.0809 0.30126 0.3793 0.0
O251 O 0.11107 0.28079 0.38425 0.0
O252 O 0.12635 0.37831 0.37663 0.0
O253 O 0.17097 0.39736 0.38266 0.0
O254 O 0.14479 0.351 0.39089 0.0
O255 O 0.20463 0.4043 0.39147 0.0
C256 C 0.29265 0.46059 0.38137 0.0
O257 O 0.26283 0.46132 0.38312 0.0
O258 O 0.28361 0.42611 0.38023 0.0
C259 C 0.20844 0.33173 0.38477 0.0
Tb260 Tb 0.67194 0.8539 0.38221 0.0
C261 C 0.70685 0.85812 0.36909 0.0
Tb262 Tb 0.73478 0.83517 0.38062 0.0
O263 O 0.71005 0.90698 0.38674 0.0
O264 O 0.73066 0.88468 0.38041 0.0
O265 O 0.67791 0.85467 0.37232 0.0
C266 C 0.80249 0.84095 0.38144 0.0
O267 O 0.73562 0.85686 0.3716 0.0
C268 C 0.66654 0.78011 0.37815 0.0
C269 C 0.69237 0.81892 0.39332 0.0
O270 O 0.77327 0.81375 0.37879 0.0
O271 O 0.79346 0.86465 0.38365 0.0
O272 O 0.69678 0.78202 0.3759 0.0
O273 O 0.67622 0.80517 0.38211 0.0
O274 O 0.72378 0.82616 0.39043 0.0
O275 O 0.66544 0.8226 0.39058 0.0
C276 C 0.60845 0.85685 0.38128 0.0
O277 O 0.63002 0.86649 0.38602 0.0
O278 O 0.62241 0.84527 0.3771 0.0
C279 C 0.74025 0.91 0.38435 0.0
Tb280 Tb 0.21901 0.85055 0.38305 0.0
C281 C 0.21556 0.88057 0.36979 0.0
Tb282 Tb 0.23912 0.93236 0.38125 0.0
O283 O 0.16751 0.83874 0.38779 0.0
O284 O 0.18928 0.87925 0.38101 0.0
O285 O 0.2173 0.85447 0.37313 0.0
C286 C 0.23354 0.9944 0.382 0.0
O287 O 0.21821 0.91147 0.3722 0.0
C288 C 0.29338 0.91775 0.37913 0.0
C289 C 0.25256 0.9055 0.39424 0.0
O290 O 0.2611 0.99241 0.37947 0.0
O291 O 0.20943 0.9616 0.38413 0.0
O292 O 0.29183 0.9455 0.37656 0.0
O293 O 0.26808 0.90338 0.38307 0.0
O294 O 0.24822 0.93088 0.3911 0.0
O295 O 0.24643 0.87334 0.39175 0.0
C296 C 0.21438 0.78327 0.38242 0.0
O297 O 0.19081 0.79045 0.38519 0.0
O298 O 0.24091 0.81411 0.38005 0.0
C299 C 0.16427 0.86485 0.38503 0.0
Tb300 Tb 0.73936 0.88545 0.79287 0.0
C301 C 0.70054 0.8524 0.80539 0.0
Tb302 Tb 0.67253 0.80428 0.79331 0.0
O303 O 0.70209 0.90842 0.7943 0.0
O304 O 0.68211 0.85687 0.79002 0.0
O305 O 0.73227 0.87613 0.80258 0.0
C306 C 0.60295 0.74525 0.79353 0.0
O307 O 0.67157 0.82462 0.80248 0.0
C308 C 0.73909 0.81025 0.79417 0.0
C309 C 0.72113 0.83137 0.78148 0.0
O310 O 0.63197 0.74697 0.7962 0.0
O311 O 0.61313 0.77673 0.79075 0.0
O312 O 0.70938 0.77989 0.79228 0.0
O313 O 0.72924 0.83294 0.79607 0.0
O314 O 0.68721 0.80821 0.78375 0.0
O315 O 0.74709 0.86118 0.78451 0.0
C316 C 0.80417 0.95076 0.79267 0.0
O317 O 0.78268 0.935 0.788 0.0
O318 O 0.78946 0.92955 0.79736 0.0
C319 C 0.67248 0.87892 0.79228 0.0
Tb320 Tb 0.18584 0.88397 0.79181 0.0
C321 C 0.2194 0.87998 0.80448 0.0
Tb322 Tb 0.26649 0.89848 0.79215 0.0
O323 O 0.16363 0.82459 0.7936 0.0
O324 O 0.21409 0.85485 0.78885 0.0
O325 O 0.19258 0.88288 0.80157 0.0
C326 C 0.32725 0.89025 0.79258 0.0
O327 O 0.24961 0.88314 0.80166 0.0
C328 C 0.26001 0.95881 0.79309 0.0
C329 C 0.2375 0.91495 0.7802 0.0
O330 O 0.29276 0.86348 0.79333 0.0
O331 O 0.32745 0.92155 0.79168 0.0
O332 O 0.28987 0.95942 0.79099 0.0
O333 O 0.23802 0.92651 0.79511 0.0
O334 O 0.25894 0.9021 0.78246 0.0
O335 O 0.20982 0.91455 0.78338 0.0
C336 C 0.12085 0.88383 0.79086 0.0
O337 O 0.13292 0.86804 0.78708 0.0
O338 O 0.14556 0.90006 0.79512 0.0
C339 C 0.19223 0.82365 0.79132 0.0
Tb340 Tb 0.19173 0.33613 0.79049 0.0
C341 C 0.19292 0.36763 0.80382 0.0
Tb342 Tb 0.171 0.39768 0.79237 0.0
O343 O 0.24396 0.37677 0.78603 0.0
O344 O 0.22056 0.39411 0.79276 0.0
O345 O 0.19152 0.34008 0.80044 0.0
C346 C 0.17645 0.4653 0.79173 0.0
O347 O 0.19084 0.39632 0.80145 0.0
C348 C 0.11653 0.32854 0.79407 0.0
C349 C 0.16051 0.35968 0.77924 0.0
O350 O 0.14927 0.4358 0.79433 0.0
O351 O 0.20031 0.45659 0.78948 0.0
O352 O 0.11724 0.35734 0.79669 0.0
O353 O 0.14274 0.34015 0.79029 0.0
O354 O 0.16378 0.38865 0.78247 0.0
O355 O 0.16632 0.33334 0.78168 0.0
C356 C 0.1969 0.27367 0.7906 0.0
O357 O 0.22134 0.30572 0.78829 0.0
O358 O 0.16927 0.27664 0.79286 0.0
C359 C 0.24622 0.40551 0.78886 0.0
Tb360 Tb 0.26943 0.4012 0.29272 0.0
C361 C 0.24338 0.35926 0.27995 0.0
Tb362 Tb 0.18703 0.33921 0.29097 0.0
O363 O 0.28325 0.36211 0.29741 0.0
O364 O 0.23979 0.34288 0.29113 0.0
O365 O 0.26808 0.39008 0.28292 0.0
C366 C 0.11929 0.27694 0.29114 0.0
O367 O 0.21201 0.33292 0.2826 0.0
C368 C 0.20157 0.40831 0.28891 0.0
C369 C 0.21709 0.37391 0.30415 0.0
O370 O 0.13127 0.30303 0.28705 0.0
O371 O 0.14555 0.28576 0.29515 0.0
O372 O 0.17418 0.37879 0.2864 0.0
O373 O 0.21617 0.39762 0.29286 0.0
O374 O 0.19107 0.3454 0.30089 0.0
O375 O 0.24777 0.40212 0.30167 0.0
C376 C 0.33134 0.46891 0.29188 0.0
O377 O 0.32892 0.44024 0.29479 0.0
O378 O 0.29903 0.45929 0.28943 0.0
C379 C 0.25456 0.33248 0.29508 0.0
Tb380 Tb 0.67384 0.90406 0.29171 0.0
C381 C 0.71864 0.91918 0.27966 0.0
Tb382 Tb 0.73946 0.88797 0.2913 0.0
O383 O 0.71124 0.96513 0.29073 0.0
O384 O 0.73089 0.93151 0.29441 0.0
O385 O 0.68486 0.9081 0.28201 0.0
C386 C 0.80321 0.8856 0.2903 0.0
O387 O 0.74546 0.91723 0.28274 0.0
C388 C 0.67195 0.82866 0.2911 0.0
C389 C 0.70276 0.88565 0.30398 0.0
O390 O 0.77395 0.86802 0.28682 0.0
O391 O 0.79668 0.90471 0.29432 0.0
O392 O 0.70132 0.8292 0.29336 0.0
O393 O 0.68181 0.85969 0.28851 0.0
O394 O 0.73236 0.88829 0.30107 0.0
O395 O 0.67559 0.88867 0.30119 0.0
C396 C 0.60501 0.89635 0.29219 0.0
O397 O 0.61232 0.8691 0.29258 0.0
O398 O 0.63641 0.92778 0.2916 0.0
C399 C 0.74091 0.96391 0.29243 0.0
Tb400 Tb 0.17148 0.80588 0.2925 0.0
C401 C 0.15644 0.83858 0.28049 0.0
Tb402 Tb 0.18854 0.89058 0.29216 0.0
O403 O 0.1111 0.7846 0.29125 0.0
O404 O 0.14564 0.83715 0.29517 0.0
O405 O 0.16511 0.81406 0.28289 0.0
C406 C 0.18875 0.95505 0.29371 0.0
O407 O 0.16068 0.86883 0.28344 0.0
C408 C 0.24855 0.88439 0.28951 0.0
C409 C 0.1935 0.85376 0.30459 0.0
O410 O 0.16683 0.92854 0.28997 0.0
O411 O 0.21005 0.94501 0.29653 0.0
O412 O 0.24849 0.91594 0.28938 0.0
O413 O 0.21563 0.85986 0.29078 0.0
O414 O 0.18727 0.87907 0.30185 0.0
O415 O 0.19287 0.82508 0.30166 0.0
C416 C 0.17986 0.74573 0.29242 0.0
O417 O 0.15668 0.75007 0.2959 0.0
O418 O 0.19804 0.7751 0.28899 0.0
C419 C 0.1131 0.81559 0.29315 0.0
Tb420 Tb 0.73589 0.92701 0.88253 0.0
C421 C 0.69097 0.9005 0.8947 0.0
Tb422 Tb 0.66943 0.84572 0.88329 0.0
O423 O 0.69838 0.95009 0.884 0.0
O424 O 0.67879 0.89773 0.87991 0.0
O425 O 0.7238 0.92433 0.89217 0.0
C426 C 0.60517 0.78042 0.88457 0.0
O427 O 0.66485 0.86991 0.89187 0.0
C428 C 0.73669 0.85313 0.88331 0.0
C429 C 0.70628 0.8762 0.87059 0.0
O430 O 0.63633 0.79012 0.88744 0.0
O431 O 0.61005 0.80774 0.88103 0.0
O432 O 0.707 0.82409 0.88117 0.0
O433 O 0.72726 0.87481 0.88582 0.0
O434 O 0.67543 0.85151 0.87352 0.0
O435 O 0.73496 0.90527 0.87337 0.0
C436 C 0.80476 0.98756 0.88178 0.0
O437 O 0.77481 0.98372 0.87912 0.0
O438 O 0.7959 0.95726 0.88483 0.0
C439 C 0.66889 0.91997 0.882 0.0
Tb440 Tb 0.1437 0.83822 0.88155 0.0
C441 C 0.16857 0.81699 0.89363 0.0
Tb442 Tb 0.22461 0.85196 0.88242 0.0
O443 O 0.11938 0.77716 0.88262 0.0
O444 O 0.17265 0.81028 0.87884 0.0
O445 O 0.1452 0.82675 0.89114 0.0
C446 C 0.28983 0.85301 0.88391 0.0
O447 O 0.19922 0.82147 0.89083 0.0
C448 C 0.21806 0.91218 0.88265 0.0
C449 C 0.19549 0.86064 0.86973 0.0
O450 O 0.27907 0.87302 0.88695 0.0
O451 O 0.2637 0.83215 0.88007 0.0
O452 O 0.24707 0.91141 0.88052 0.0
O453 O 0.19585 0.88087 0.88504 0.0
O454 O 0.21973 0.85369 0.87264 0.0
O455 O 0.16636 0.86023 0.87249 0.0
C456 C 0.08444 0.84872 0.88094 0.0
O457 O 0.08755 0.8227 0.87809 0.0
O458 O 0.11469 0.86877 0.88409 0.0
C459 C 0.14968 0.77776 0.88071 0.0
Tb460 Tb 0.23375 0.33479 0.88125 0.0
C461 C 0.25411 0.38263 0.89311 0.0
Tb462 Tb 0.22017 0.40179 0.88156 0.0
O463 O 0.29453 0.37156 0.88265 0.0
O464 O 0.26264 0.39151 0.87839 0.0
O465 O 0.24345 0.34879 0.89083 0.0
C466 C 0.22081 0.46707 0.88231 0.0
O467 O 0.25095 0.40876 0.89003 0.0
C468 C 0.15921 0.33531 0.88196 0.0
C469 C 0.21315 0.36214 0.86908 0.0
O470 O 0.20798 0.44111 0.88644 0.0
O471 O 0.23367 0.45647 0.87782 0.0
O472 O 0.16024 0.36516 0.87982 0.0
O473 O 0.19045 0.34451 0.88439 0.0
O474 O 0.22034 0.39384 0.87183 0.0
O475 O 0.21259 0.33364 0.87205 0.0
C476 C 0.22467 0.26564 0.88091 0.0
O477 O 0.25058 0.29473 0.87805 0.0
O478 O 0.2039 0.27551 0.88394 0.0
C479 C 0.29467 0.40113 0.8805 0.0
Tb480 Tb 0.88934 0.73047 0.71693 0.0
C481 C 0.85733 0.69738 0.70373 0.0
Tb482 Tb 0.80641 0.66965 0.71535 0.0
O483 O 0.90091 0.68971 0.72137 0.0
O484 O 0.85909 0.67216 0.71484 0.0
O485 O 0.88422 0.72512 0.707 0.0
C486 C 0.74356 0.6026 0.71609 0.0
O487 O 0.82657 0.66943 0.70624 0.0
C488 C 0.82188 0.73889 0.71339 0.0
C489 C 0.83532 0.70972 0.72828 0.0
O490 O 0.74664 0.63192 0.7133 0.0
O491 O 0.77577 0.61119 0.71848 0.0
O492 O 0.7928 0.70982 0.71102 0.0
O493 O 0.83687 0.72758 0.71716 0.0
O494 O 0.80927 0.68008 0.72521 0.0
O495 O 0.86717 0.73552 0.72568 0.0
C496 C 0.9577 0.79208 0.71661 0.0
O497 O 0.94869 0.76149 0.71958 0.0
O498 O 0.92813 0.78809 0.7138 0.0
C499 C 0.87364 0.66079 0.7187 0.0
Tb500 Tb 0.33546 0.18207 0.71528 0.0
C501 C 0.3743 0.18942 0.70273 0.0
Tb502 Tb 0.40244 0.16839 0.71483 0.0
O503 O 0.37231 0.24125 0.71322 0.0
O504 O 0.39308 0.21179 0.71805 0.0
O505 O 0.34281 0.18268 0.70552 0.0
C506 C 0.47193 0.17794 0.71436 0.0
O507 O 0.40276 0.18946 0.70565 0.0
C508 C 0.33587 0.10776 0.7141 0.0
C509 C 0.35603 0.14902 0.72683 0.0
O510 O 0.46201 0.19865 0.7174 0.0
O511 O 0.44267 0.15182 0.71156 0.0
O512 O 0.3654 0.10764 0.71623 0.0
O513 O 0.34569 0.13983 0.712 0.0
O514 O 0.38934 0.15867 0.72443 0.0
O515 O 0.32992 0.15286 0.72387 0.0
C516 C 0.27117 0.18326 0.71653 0.0
O517 O 0.30186 0.2036 0.71957 0.0
O518 O 0.27649 0.16178 0.71282 0.0
C519 C 0.40207 0.24272 0.71551 0.0
Tb520 Tb 0.88776 0.18102 0.71529 0.0
C521 C 0.88011 0.21146 0.70266 0.0
Tb522 Tb 0.90156 0.2616 0.71464 0.0
O523 O 0.82831 0.15857 0.7133 0.0
O524 O 0.85844 0.2093 0.71799 0.0
O525 O 0.88638 0.18672 0.70554 0.0
C526 C 0.89169 0.3211 0.71405 0.0
O527 O 0.88087 0.24059 0.70545 0.0
C528 C 0.96195 0.25526 0.71396 0.0
C529 C 0.92068 0.23534 0.72673 0.0
O530 O 0.91965 0.31922 0.71167 0.0
O531 O 0.86941 0.28954 0.71672 0.0
O532 O 0.96227 0.28498 0.71609 0.0
O533 O 0.9298 0.23308 0.71187 0.0
O534 O 0.91075 0.25861 0.72427 0.0
O535 O 0.91685 0.20514 0.72386 0.0
C536 C 0.88833 0.1165 0.71621 0.0
O537 O 0.86645 0.12504 0.71922 0.0
O538 O 0.91033 0.14457 0.71276 0.0
C539 C 0.82725 0.18723 0.71553 0.0
Tb540 Tb 0.4056 0.21859 0.12614 0.0
C541 C 0.36726 0.18529 0.13866 0.0
Tb542 Tb 0.33927 0.1378 0.12639 0.0
O543 O 0.36804 0.24006 0.12836 0.0
O544 O 0.34817 0.19057 0.12335 0.0
O545 O 0.39831 0.21077 0.13587 0.0
C546 C 0.27013 0.07792 0.12679 0.0
O547 O 0.33909 0.15677 0.13572 0.0
C548 C 0.40604 0.14428 0.12693 0.0
C549 C 0.38518 0.16684 0.11436 0.0
O550 O 0.3 0.0797 0.12915 0.0
O551 O 0.27926 0.10978 0.12424 0.0
O552 O 0.37673 0.11494 0.12469 0.0
O553 O 0.39595 0.16594 0.12921 0.0
O554 O 0.35202 0.14269 0.11676 0.0
O555 O 0.41117 0.19658 0.11738 0.0
C556 C 0.47024 0.2837 0.12538 0.0
O557 O 0.4397 0.27525 0.12242 0.0
O558 O 0.46456 0.25525 0.1287 0.0
C559 C 0.33863 0.21186 0.12597 0.0
Tb560 Tb 0.85142 0.21636 0.12432 0.0
C561 C 0.88155 0.2082 0.13693 0.0
Tb562 Tb 0.93209 0.22996 0.12498 0.0
O563 O 0.82866 0.15706 0.12632 0.0
O564 O 0.87957 0.18669 0.12166 0.0
O565 O 0.85718 0.2152 0.13408 0.0
C566 C 0.99219 0.22076 0.12566 0.0
O567 O 0.91028 0.20829 0.13409 0.0
C568 C 0.92596 0.29048 0.12572 0.0
C569 C 0.90606 0.24979 0.11291 0.0
O570 O 0.9884 0.24644 0.12848 0.0
O571 O 0.96214 0.20029 0.12248 0.0
O572 O 0.95583 0.29082 0.12365 0.0
O573 O 0.90359 0.25826 0.12775 0.0
O574 O 0.92957 0.24013 0.11537 0.0
O575 O 0.8758 0.24577 0.11579 0.0
C576 C 0.78648 0.21615 0.12306 0.0
O577 O 0.79643 0.19551 0.12001 0.0
O578 O 0.81335 0.23733 0.12677 0.0
C579 C 0.85727 0.15568 0.12415 0.0
Tb580 Tb 0.85802 0.6685 0.1241 0.0
C581 C 0.85992 0.70039 0.13742 0.0
Tb582 Tb 0.83708 0.72993 0.12599 0.0
O583 O 0.91029 0.70921 0.11964 0.0
O584 O 0.88683 0.7266 0.12633 0.0
O585 O 0.85858 0.67283 0.13404 0.0
C586 C 0.84225 0.79744 0.12537 0.0
O587 O 0.85753 0.7289 0.13505 0.0
C588 C 0.78275 0.66085 0.12784 0.0
C589 C 0.82498 0.691 0.11294 0.0
O590 O 0.81576 0.76816 0.12812 0.0
O591 O 0.86562 0.78858 0.12296 0.0
O592 O 0.78334 0.68992 0.13033 0.0
O593 O 0.80881 0.67215 0.12403 0.0
O594 O 0.82919 0.72052 0.11611 0.0
O595 O 0.83055 0.66458 0.11542 0.0
C596 C 0.86403 0.60647 0.12415 0.0
O597 O 0.88584 0.63733 0.12127 0.0
O598 O 0.8386 0.61041 0.12702 0.0
C599 C 0.91248 0.73803 0.12242 0.0
Tb600 Tb 0.93389 0.73085 0.62664 0.0
C601 C 0.90497 0.68802 0.61399 0.0
Tb602 Tb 0.85126 0.66883 0.62538 0.0
O603 O 0.94926 0.69216 0.63107 0.0
O604 O 0.90394 0.67246 0.62517 0.0
O605 O 0.93025 0.71916 0.61683 0.0
C606 C 0.78432 0.60599 0.62637 0.0
O607 O 0.87431 0.66181 0.61682 0.0
C608 C 0.86472 0.73769 0.62339 0.0
C609 C 0.88508 0.7036 0.63842 0.0
O610 O 0.79628 0.62757 0.62164 0.0
O611 O 0.81009 0.61961 0.63052 0.0
O612 O 0.83646 0.70787 0.62111 0.0
O613 O 0.88065 0.72739 0.62716 0.0
O614 O 0.85861 0.67482 0.63527 0.0
O615 O 0.9148 0.73202 0.63578 0.0
C616 C 0.99571 0.79829 0.62566 0.0
O617 O 0.99389 0.7693 0.62836 0.0
O618 O 0.96287 0.78915 0.62347 0.0
C619 C 0.91988 0.66234 0.62895 0.0
Tb620 Tb 0.33984 0.23503 0.62625 0.0
C621 C 0.37939 0.24998 0.61325 0.0
Tb622 Tb 0.40137 0.21507 0.62419 0.0
O623 O 0.37946 0.28768 0.63093 0.0
O624 O 0.39797 0.26441 0.62436 0.0
O625 O 0.34938 0.24457 0.61641 0.0
C626 C 0.46375 0.20967 0.62421 0.0
O627 O 0.40605 0.24477 0.61573 0.0
C628 C 0.33211 0.16021 0.6223 0.0
C629 C 0.36877 0.21062 0.63752 0.0
O630 O 0.43538 0.19206 0.62057 0.0
O631 O 0.45719 0.23065 0.62783 0.0
O632 O 0.36137 0.16312 0.61957 0.0
O633 O 0.34311 0.18518 0.62632 0.0
O634 O 0.39673 0.21298 0.63413 0.0
O635 O 0.34012 0.21283 0.63517 0.0
C636 C 0.27205 0.22938 0.62569 0.0
O637 O 0.30104 0.25542 0.62857 0.0
O638 O 0.28138 0.20681 0.62311 0.0
C639 C 0.40882 0.28946 0.62834 0.0
Tb640 Tb 0.83896 0.13893 0.62554 0.0
C641 C 0.81854 0.16582 0.61356 0.0
Tb642 Tb 0.85333 0.22017 0.62496 0.0
O643 O 0.77775 0.11412 0.62452 0.0
O644 O 0.8107 0.16776 0.62817 0.0
O645 O 0.82819 0.14211 0.61596 0.0
C646 C 0.85379 0.28541 0.62465 0.0
O647 O 0.82319 0.1963 0.61646 0.0
C648 C 0.9137 0.21353 0.62471 0.0
C649 C 0.86054 0.18841 0.63752 0.0
O650 O 0.87032 0.27478 0.62074 0.0
O651 O 0.83657 0.25908 0.62863 0.0
O652 O 0.91299 0.24265 0.62679 0.0
O653 O 0.88236 0.19155 0.6223 0.0
O654 O 0.85368 0.21287 0.63469 0.0
O655 O 0.86051 0.15984 0.63467 0.0
C656 C 0.8487 0.07929 0.626 0.0
O657 O 0.82272 0.08245 0.62885 0.0
O658 O 0.86909 0.10966 0.62291 0.0
C659 C 0.77829 0.14469 0.62625 0.0
Tb660 Tb 0.40517 0.26381 0.215 0.0
C661 C 0.366 0.23767 0.22803 0.0
Tb662 Tb 0.33957 0.17889 0.21696 0.0
O663 O 0.3651 0.27814 0.21075 0.0
O664 O 0.34703 0.23352 0.21673 0.0
O665 O 0.39383 0.26424 0.22471 0.0
C666 C 0.27349 0.11565 0.21776 0.0
O667 O 0.34113 0.20386 0.22583 0.0
C668 C 0.40741 0.18569 0.21677 0.0
C669 C 0.37384 0.20885 0.2039 0.0
O670 O 0.30105 0.12667 0.2216 0.0
O671 O 0.28296 0.14058 0.21348 0.0
O672 O 0.37651 0.15399 0.21758 0.0
O673 O 0.39794 0.21017 0.21626 0.0
O674 O 0.34349 0.18548 0.2071 0.0
O675 O 0.40427 0.23754 0.20638 0.0
C676 C 0.47262 0.32619 0.21548 0.0
O677 O 0.44499 0.32112 0.21197 0.0
O678 O 0.46214 0.29624 0.21873 0.0
C679 C 0.33581 0.24901 0.21306 0.0
Tb680 Tb 0.81284 0.17013 0.21432 0.0
C681 C 0.84086 0.15455 0.2265 0.0
Tb682 Tb 0.89346 0.1845 0.21483 0.0
O683 O 0.79004 0.10983 0.21595 0.0
O684 O 0.84136 0.14184 0.21152 0.0
O685 O 0.81805 0.16513 0.22403 0.0
C686 C 0.95832 0.18441 0.21577 0.0
O687 O 0.87008 0.15671 0.22352 0.0
C688 C 0.8866 0.24458 0.21502 0.0
C689 C 0.86123 0.18901 0.20213 0.0
O690 O 0.95007 0.20702 0.21861 0.0
O691 O 0.92979 0.16144 0.21248 0.0
O692 O 0.915 0.24348 0.21269 0.0
O693 O 0.86513 0.21367 0.2176 0.0
O694 O 0.88737 0.18509 0.20506 0.0
O695 O 0.83141 0.18686 0.20492 0.0
C696 C 0.75257 0.17872 0.21342 0.0
O697 O 0.75234 0.14711 0.21296 0.0
O698 O 0.78677 0.20556 0.21436 0.0
C699 C 0.81949 0.11002 0.21374 0.0
Tb700 Tb 0.90488 0.66916 0.21489 0.0
C701 C 0.92377 0.71632 0.22683 0.0
Tb702 Tb 0.89084 0.73591 0.21515 0.0
O703 O 0.96546 0.70651 0.21638 0.0
O704 O 0.93325 0.72564 0.21197 0.0
O705 O 0.91444 0.68292 0.22449 0.0
C706 C 0.88975 0.80018 0.21628 0.0
O707 O 0.91972 0.74203 0.22378 0.0
C708 C 0.8305 0.66919 0.21539 0.0
C709 C 0.88408 0.69667 0.20266 0.0
O710 O 0.86893 0.76951 0.21929 0.0
O711 O 0.9116 0.79484 0.21266 0.0
O712 O 0.83174 0.69864 0.21302 0.0
O713 O 0.86138 0.67862 0.21799 0.0
O714 O 0.89042 0.72815 0.20541 0.0
O715 O 0.88437 0.66853 0.20563 0.0
C716 C 0.89583 0.59995 0.21449 0.0
O717 O 0.92243 0.62943 0.2118 0.0
O718 O 0.87432 0.60947 0.21737 0.0
C719 C 0.96525 0.73569 0.21413 0.0
C720 C 0.3712 0.12356 0.10547 0.0
C721 C 0.39545 0.15773 0.10839 0.0
C722 C 0.3828 0.11271 0.10026 0.0
C723 C 0.46948 0.13024 0.09221 0.0
H724 H 0.40021 0.07558 0.07916 0.0
C725 C 0.5169 0.09716 0.06939 0.0
C726 C 0.4934 0.06179 0.06674 0.0
C727 C 0.50549 0.10842 0.07458 0.0
C728 C 0.41981 0.09043 0.0828 0.0
H729 H 0.45055 0.20792 0.10796 0.0
H730 H 0.47037 0.1894 0.09882 0.0
H731 H 0.37879 0.09746 0.08773 0.0
H732 H 0.43978 0.01014 0.06761 0.0
H733 H 0.42012 0.02971 0.07667 0.0
H734 H 0.51056 0.12342 0.08724 0.0
C735 C 0.44264 0.17056 0.10063 0.0
C736 C 0.40753 0.10303 0.08772 0.0
C737 C 0.43109 0.18137 0.10585 0.0
C738 C 0.45867 0.03756 0.06951 0.0
C739 C 0.4472 0.04891 0.07468 0.0
C740 C 0.48179 0.11777 0.08728 0.0
C741 C 0.41892 0.13577 0.09782 0.0
C742 C 0.43217 0.12307 0.0925 0.0
C743 C 0.47023 0.08469 0.07723 0.0
C744 C 0.45709 0.09763 0.08252 0.0
H745 H 0.34364 0.10447 0.10731 0.0
H746 H 0.36386 0.08556 0.09827 0.0
H747 H 0.48909 0.14493 0.09585 0.0
H748 H 0.54377 0.11667 0.06738 0.0
H749 H 0.52382 0.13627 0.07639 0.0
C750 C 0.95111 0.28063 0.10427 0.0
C751 C 0.91629 0.27006 0.10703 0.0
C752 C 0.96279 0.3038 0.09915 0.0
C753 C 0.92871 0.33955 0.08669 0.0
H754 H 0.03173 0.42212 0.08645 0.0
C755 C 0.9794 0.45685 0.06873 0.0
C756 C 0.01481 0.46882 0.06608 0.0
C757 C 0.968 0.43377 0.07386 0.0
C758 C 1.00299 0.399 0.08641 0.0
H759 H 0.86594 0.27469 0.10639 0.0
H760 H 0.88629 0.3149 0.09748 0.0
H761 H 0.01008 0.37765 0.09485 0.0
H762 H 0.06644 0.4667 0.06691 0.0
H763 H 0.04646 0.42633 0.07581 0.0
H764 H 0.92159 0.36072 0.07823 0.0
C765 C 0.90451 0.30516 0.09926 0.0
C766 C 0.99059 0.37345 0.09122 0.0
C767 C 0.89289 0.28213 0.1044 0.0
C768 C 0.03904 0.45822 0.06883 0.0
C769 C 0.0276 0.43506 0.07396 0.0
C770 C 0.94112 0.36503 0.08186 0.0
C771 C 0.93988 0.31682 0.09664 0.0
C772 C 0.95328 0.34343 0.09143 0.0
C773 C 0.99166 0.42197 0.07647 0.0
C774 C 0.97841 0.39516 0.08166 0.0
H775 H 0.96992 0.27194 0.10617 0.0
H776 H 0.98995 0.31178 0.09718 0.0
H777 H 0.89994 0.31648 0.08666 0.0
H778 H 0.95996 0.46447 0.06675 0.0
H779 H 0.94043 0.42485 0.07574 0.0
C780 C 0.6165 0.61737 0.0688 0.0
C781 C 0.60788 0.58347 0.0659 0.0
C782 C 0.64026 0.62985 0.07386 0.0
C783 C 0.71543 0.61914 0.08121 0.0
H784 H 0.69767 0.66754 0.09488 0.0
C785 C 0.7981 0.65045 0.10371 0.0
C786 C 0.80653 0.68342 0.1069 0.0
C787 C 0.77592 0.64027 0.09848 0.0
C788 C 0.70338 0.6546 0.09106 0.0
H789 H 0.61659 0.53549 0.06622 0.0
H790 H 0.65738 0.55695 0.07507 0.0
H791 H 0.65315 0.64452 0.08647 0.0
H792 H 0.7996 0.73249 0.10689 0.0
H793 H 0.76137 0.71497 0.09771 0.0
H794 H 0.76556 0.62906 0.08581 0.0
C795 C 0.64633 0.57425 0.07337 0.0
C796 C 0.67776 0.64129 0.08624 0.0
C797 C 0.62256 0.56175 0.06832 0.0
C798 C 0.79362 0.70683 0.10457 0.0
C799 C 0.77136 0.69661 0.09933 0.0
C800 C 0.74105 0.63245 0.08603 0.0
C801 C 0.65604 0.60878 0.07614 0.0
C802 C 0.68333 0.62318 0.08127 0.0
C803 C 0.76159 0.66281 0.09629 0.0
C804 C 0.73528 0.65019 0.09103 0.0
H805 H 0.60589 0.63495 0.06706 0.0
H806 H 0.64731 0.65668 0.07586 0.0
H807 H 0.72105 0.60603 0.07741 0.0
H808 H 0.80748 0.63166 0.10537 0.0
H809 H 0.76876 0.61392 0.09629 0.0
C810 C 0.10428 0.51301 0.43882 0.0
C811 C 0.06772 0.4914 0.44118 0.0
C812 C 0.11564 0.50065 0.43376 0.0
C813 C 0.07955 0.43393 0.42081 0.0
H814 H 0.17946 0.4458 0.42108 0.0
C815 C 0.12678 0.36538 0.40261 0.0
C816 C 0.16269 0.3882 0.40009 0.0
C817 C 0.11583 0.37655 0.40786 0.0
C818 C 0.15159 0.44252 0.42091 0.0
H819 H 0.01415 0.44017 0.43993 0.0
H820 H 0.03397 0.41865 0.43114 0.0
H821 H 0.15868 0.46937 0.42951 0.0
H822 H 0.21588 0.4399 0.40132 0.0
H823 H 0.19677 0.45927 0.41045 0.0
H824 H 0.07248 0.40711 0.41221 0.0
C825 C 0.05382 0.44535 0.43317 0.0
C826 C 0.13969 0.45615 0.42573 0.0
C827 C 0.04246 0.4577 0.43823 0.0
C828 C 0.18802 0.42152 0.40313 0.0
C829 C 0.17707 0.43265 0.40838 0.0
C830 C 0.09144 0.42026 0.41598 0.0
C831 C 0.09075 0.46636 0.43092 0.0
C832 C 0.10352 0.45211 0.42574 0.0
C833 C 0.14051 0.41076 0.41073 0.0
C834 C 0.12763 0.4244 0.41597 0.0
H835 H 0.12457 0.53911 0.44096 0.0
H836 H 0.14407 0.51791 0.43209 0.0
H837 H 0.05174 0.43078 0.42061 0.0
H838 H 0.10652 0.33944 0.40042 0.0
H839 H 0.08773 0.35862 0.40961 0.0
C840 C 0.62575 0.61676 0.43812 0.0
C841 C 0.5895 0.60366 0.44051 0.0
C842 C 0.63757 0.63944 0.43294 0.0
C843 C 0.61762 0.7052 0.42457 0.0
H844 H 0.67826 0.69659 0.41189 0.0
C845 C 0.64872 0.78657 0.40202 0.0
C846 C 0.68399 0.7995 0.39927 0.0
C847 C 0.63877 0.76414 0.40721 0.0
C848 C 0.66182 0.69976 0.41544 0.0
H849 H 0.53656 0.60253 0.43908 0.0
H850 H 0.55704 0.64158 0.43004 0.0
H851 H 0.65687 0.65248 0.42036 0.0
H852 H 0.7371 0.80022 0.4 0.0
H853 H 0.71996 0.76164 0.40912 0.0
H854 H 0.6226 0.75248 0.41968 0.0
C855 C 0.5766 0.63496 0.43225 0.0
C856 C 0.64944 0.67435 0.42028 0.0
C857 C 0.56477 0.61226 0.43741 0.0
C858 C 0.70964 0.79066 0.40198 0.0
C859 C 0.69968 0.76823 0.40718 0.0
C860 C 0.63007 0.73063 0.41974 0.0
C861 C 0.61343 0.64959 0.43003 0.0
C862 C 0.62694 0.6766 0.42488 0.0
C863 C 0.66387 0.75414 0.4098 0.0
C864 C 0.65212 0.72812 0.41509 0.0
H865 H 0.64558 0.61074 0.44039 0.0
H866 H 0.66615 0.65031 0.43136 0.0
H867 H 0.60101 0.70824 0.4281 0.0
H868 H 0.62817 0.79269 0.40006 0.0
H869 H 0.61083 0.75354 0.40906 0.0
C870 C 0.28161 0.89231 0.40322 0.0
C871 C 0.27198 0.91649 0.4002 0.0
C872 C 0.30504 0.90462 0.40831 0.0
C873 C 0.34512 0.97816 0.4202 0.0
H874 H 0.42417 0.95251 0.4206 0.0
C875 C 0.46375 0.0414 0.43813 0.0
C876 C 0.4734 0.01643 0.44087 0.0
C877 C 0.44073 0.03065 0.43298 0.0
C878 C 0.40209 0.95966 0.4206 0.0
H879 H 0.27811 0.97214 0.40038 0.0
H880 H 0.3189 0.99353 0.40926 0.0
H881 H 0.37883 0.9298 0.41232 0.0
H882 H 0.46746 0.96098 0.44016 0.0
H883 H 0.42734 0.94225 0.43124 0.0
H884 H 0.36825 0.00782 0.42851 0.0
C885 C 0.30827 0.96499 0.40769 0.0
C886 C 0.376 0.94656 0.41585 0.0
C887 C 0.28486 0.9527 0.40258 0.0
C888 C 0.46075 0.98104 0.43818 0.0
C889 C 0.43773 0.97029 0.43304 0.0
C890 C 0.37119 0.9912 0.42496 0.0
C891 C 0.31941 0.9414 0.41053 0.0
C892 C 0.34706 0.95547 0.41561 0.0
C893 C 0.42681 0.99466 0.43044 0.0
C894 C 0.39994 0.982 0.42524 0.0
H895 H 0.27214 0.86418 0.40154 0.0
H896 H 0.3124 0.88545 0.41046 0.0
H897 H 0.32301 0.98527 0.42019 0.0
H898 H 0.47305 0.06894 0.44006 0.0
H899 H 0.43349 0.05042 0.43103 0.0
C900 C 0.55677 0.97384 0.93887 0.0
C901 C 0.57985 0.0095 0.94145 0.0
C902 C 0.56861 0.96237 0.93376 0.0
C903 C 0.63793 0.99735 0.92115 0.0
H904 H 0.6189 0.89482 0.92102 0.0
C905 C 0.70503 0.94581 0.9033 0.0
C906 C 0.68105 0.91075 0.9006 0.0
C907 C 0.6935 0.95752 0.90842 0.0
C908 C 0.62418 0.92344 0.92096 0.0
H909 H 0.63314 0.06147 0.94054 0.0
H910 H 0.6538 0.04138 0.93168 0.0
H911 H 0.5961 0.91648 0.92943 0.0
H912 H 0.6265 0.86003 0.90132 0.0
H913 H 0.60657 0.88042 0.91024 0.0
H914 H 0.66618 1.0043 0.91268 0.0
C915 C 0.62635 0.02237 0.93356 0.0
C916 C 0.61099 0.93586 0.92578 0.0
C917 C 0.61449 0.03388 0.93866 0.0
C918 C 0.64582 0.88715 0.90328 0.0
C919 C 0.63437 0.89881 0.90841 0.0
C920 C 0.65122 0.98495 0.91634 0.0
C921 C 0.60386 0.9862 0.9311 0.0
C922 C 0.6176 0.97296 0.92593 0.0
C923 C 0.65779 0.93441 0.91098 0.0
C924 C 0.64447 0.94783 0.91618 0.0
H925 H 0.52988 0.95429 0.94087 0.0
H926 H 0.55022 0.93461 0.93192 0.0
H927 H 0.64313 0.02593 0.92107 0.0
H928 H 0.73234 0.96479 0.90136 0.0
H929 H 0.71247 0.98487 0.91034 0.0
C930 C 0.1813 0.78452 0.90218 0.0
C931 C 0.15793 0.79643 0.89949 0.0
C932 C 0.16947 0.76145 0.90731 0.0
C933 C 0.09959 0.72711 0.91982 0.0
H934 H 0.12068 0.64498 0.9203 0.0
C935 C 0.03408 0.61027 0.93795 0.0
C936 C 0.05849 0.60002 0.94074 0.0
C937 C 0.04532 0.63298 0.93278 0.0
C938 C 0.11482 0.66794 0.92026 0.0
H939 H 0.10404 0.7941 0.90023 0.0
H940 H 0.08337 0.75373 0.90914 0.0
H941 H 0.14296 0.68859 0.91178 0.0
H942 H 0.11353 0.6048 0.94012 0.0
H943 H 0.13297 0.64423 0.93111 0.0
H944 H 0.07133 0.70632 0.9283 0.0
C945 C 0.11105 0.76252 0.90731 0.0
C946 C 0.1277 0.69306 0.91539 0.0
C947 C 0.12291 0.78566 0.90219 0.0
C948 C 0.09388 0.61196 0.93809 0.0
C949 C 0.10505 0.63456 0.93291 0.0
C950 C 0.08663 0.70193 0.92469 0.0
C951 C 0.13392 0.7496 0.90988 0.0
C952 C 0.12036 0.72305 0.91511 0.0
C953 C 0.08117 0.6459 0.93025 0.0
C954 C 0.09413 0.67206 0.92498 0.0
H955 H 0.20851 0.79231 0.90025 0.0
H956 H 0.18815 0.75267 0.90923 0.0
H957 H 0.09384 0.75015 0.91981 0.0
H958 H 1.00662 0.60166 0.93986 0.0
H959 H 0.026 0.64071 0.93078 0.0
C960 C 0.45787 0.51399 0.93786 0.0
C961 C 0.46874 0.48997 0.94061 0.0
C962 C 0.43543 0.50276 0.93265 0.0
C963 C 0.36638 0.41731 0.92454 0.0
H964 H 0.3832 0.48606 0.91132 0.0
C965 C 0.28373 0.36862 0.90196 0.0
C966 C 0.27454 0.39328 0.89899 0.0
C967 C 0.3066 0.38019 0.90712 0.0
C968 C 0.37773 0.46662 0.91501 0.0
H969 H 0.46523 0.43556 0.9399 0.0
H970 H 0.42638 0.41619 0.9308 0.0
H971 H 0.42611 0.50716 0.91994 0.0
H972 H 0.28139 0.44921 0.89927 0.0
H973 H 0.32047 0.46902 0.90834 0.0
H974 H 0.31783 0.37685 0.91965 0.0
C975 C 0.4349 0.44358 0.93272 0.0
C976 C 0.40246 0.47872 0.91994 0.0
C977 C 0.4575 0.45487 0.93791 0.0
C978 C 0.28788 0.42943 0.90143 0.0
C979 C 0.31066 0.44096 0.9066 0.0
C980 C 0.34155 0.40525 0.91962 0.0
C981 C 0.42312 0.46715 0.93007 0.0
C982 C 0.39715 0.4542 0.92477 0.0
C983 C 0.32082 0.41671 0.90947 0.0
C984 C 0.34688 0.42972 0.91478 0.0
H985 H 0.46584 0.54117 0.93981 0.0
H986 H 0.42666 0.52151 0.93076 0.0
H987 H 0.36106 0.39789 0.92823 0.0
H988 H 0.27422 0.34066 0.9002 0.0
H989 H 0.31411 0.36084 0.90916 0.0
C990 C 0.88949 0.64523 0.605 0.0
C991 C 0.91468 0.67885 0.60798 0.0
C992 C 0.90029 0.63411 0.59973 0.0
C993 C 0.98506 0.6468 0.59181 0.0
H994 H 0.91676 0.59974 0.57833 0.0
C995 C 0.03201 0.61065 0.56922 0.0
C996 C 1.00603 0.5779 0.56612 0.0
C997 C 0.02122 0.6226 0.5744 0.0
C998 C 0.93605 0.61233 0.58209 0.0
H999 H 0.97067 0.72781 0.60758 0.0
H1000 H 0.98934 0.7085 0.59838 0.0
H1001 H 0.89689 0.62255 0.58697 0.0
H1002 H 0.94858 0.53132 0.5662 0.0
H1003 H 0.93009 0.55164 0.57529 0.0
H1004 H 0.02409 0.63628 0.58697 0.0
C1005 C 0.96136 0.69049 0.60017 0.0
C1006 C 0.92466 0.62555 0.58704 0.0
C1007 C 0.9505 0.70172 0.60543 0.0
C1008 C 0.96936 0.55674 0.56845 0.0
C1009 C 0.95861 0.56862 0.57364 0.0
C1010 C 0.9964 0.63344 0.58687 0.0
C1011 C 0.93662 0.65623 0.59731 0.0
C1012 C 0.94901 0.64296 0.59197 0.0
C1013 C 0.9842 0.60206 0.57663 0.0
C1014 C 0.97204 0.61597 0.58194 0.0
H1015 H 0.86169 0.62685 0.60683 0.0
H1016 H 0.88058 0.60744 0.59767 0.0
H1017 H 1.00431 0.65948 0.59557 0.0
H1018 H 0.06043 0.62783 0.56754 0.0
H1019 H 0.04163 0.64868 0.57653 0.0
C1020 C 0.50829 0.45621 0.56927 0.0
C1021 C 0.48516 0.46788 0.56643 0.0
C1022 C 0.49612 0.43381 0.57446 0.0
C1023 C 0.40901 0.36691 0.58249 0.0
H1024 H 0.47837 0.37756 0.59529 0.0
C1025 C 0.36318 0.28154 0.60497 0.0
C1026 C 0.3873 0.26953 0.60733 0.0
C1027 C 0.37362 0.30482 0.59986 0.0
C1028 C 0.45872 0.37394 0.59172 0.0
H1029 H 0.43164 0.46642 0.56701 0.0
H1030 H 0.41071 0.42787 0.57615 0.0
H1031 H 0.50016 0.42239 0.58696 0.0
H1032 H 0.44043 0.27103 0.60593 0.0
H1033 H 0.45828 0.31115 0.59702 0.0
H1034 H 0.36755 0.31842 0.58729 0.0
C1035 C 0.43799 0.43545 0.57427 0.0
C1036 C 0.47121 0.3997 0.58694 0.0
C1037 C 0.45017 0.45787 0.56906 0.0
C1038 C 0.42121 0.27988 0.60428 0.0
C1039 C 0.43165 0.30319 0.59919 0.0
C1040 C 0.39647 0.34117 0.58729 0.0
C1041 C 0.46054 0.42257 0.57697 0.0
C1042 C 0.44662 0.39636 0.58224 0.0
C1043 C 0.40842 0.31668 0.59701 0.0
C1044 C 0.42129 0.34418 0.59193 0.0
H1045 H 0.53538 0.46327 0.56737 0.0
H1046 H 0.51411 0.42415 0.57638 0.0
H1047 H 0.38943 0.36312 0.5789 0.0
H1048 H 0.33685 0.27415 0.60719 0.0
H1049 H 0.35511 0.31478 0.59829 0.0
C1050 C 0.7885 0.12158 0.60479 0.0
C1051 C 0.79747 0.15543 0.60774 0.0
C1052 C 0.7646 0.10944 0.59975 0.0
C1053 C 0.72303 0.14161 0.58788 0.0
H1054 H 0.64613 0.03627 0.58719 0.0
C1055 C 0.60866 0.03089 0.56961 0.0
C1056 C 0.59551 0.05382 0.56715 0.0
C1057 C 0.63147 0.04218 0.57478 0.0
C1058 C 0.66762 0.0657 0.58728 0.0
H1059 H 0.789 0.20358 0.60755 0.0
H1060 H 0.74746 0.18242 0.59879 0.0
H1061 H 0.69152 0.05899 0.59549 0.0
H1062 H 0.5944 0.10568 0.56844 0.0
H1063 H 0.63348 0.12492 0.57749 0.0
H1064 H 0.69928 0.14834 0.57968 0.0
C1065 C 0.7591 0.16534 0.60035 0.0
C1066 C 0.69374 0.07873 0.59203 0.0
C1067 C 0.78295 0.17746 0.60539 0.0
C1068 C 0.60414 0.08736 0.57017 0.0
C1069 C 0.6269 0.09861 0.57534 0.0
C1070 C 0.69696 0.12859 0.58313 0.0
C1071 C 0.7491 0.13086 0.59752 0.0
C1072 C 0.72178 0.11686 0.5924 0.0
C1073 C 0.64165 0.07665 0.57763 0.0
C1074 C 0.66886 0.09047 0.58277 0.0
H1075 H 0.79913 0.10385 0.60646 0.0
H1076 H 0.75801 0.08306 0.59763 0.0
H1077 H 0.74455 0.17103 0.58797 0.0
H1078 H 0.60268 0.00492 0.5674 0.0
H1079 H 0.64244 0.02462 0.57639 0.0
C1080 C 0.78902 0.69661 0.7367 0.0
C1081 C 0.82556 0.71829 0.73433 0.0
C1082 C 0.77827 0.70804 0.74195 0.0
C1083 C 0.80396 0.79396 0.75087 0.0
H1084 H 0.73615 0.72357 0.76282 0.0
C1085 C 0.76902 0.84163 0.77349 0.0
C1086 C 0.7319 0.82097 0.77567 0.0
C1087 C 0.78027 0.82945 0.76839 0.0
C1088 C 0.75475 0.74358 0.75949 0.0
H1089 H 0.88002 0.768 0.73585 0.0
H1090 H 0.86149 0.78741 0.74503 0.0
H1091 H 0.75696 0.70054 0.75432 0.0
H1092 H 0.67724 0.77174 0.77405 0.0
H1093 H 0.69675 0.75088 0.76513 0.0
H1094 H 0.80176 0.837 0.75604 0.0
C1095 C 0.84083 0.76205 0.74275 0.0
C1096 C 0.76674 0.73035 0.75461 0.0
C1097 C 0.85156 0.75068 0.73751 0.0
C1098 C 0.70607 0.78839 0.77252 0.0
C1099 C 0.71734 0.7762 0.76742 0.0
C1100 C 0.79201 0.80718 0.75575 0.0
C1101 C 0.8038 0.74138 0.74496 0.0
C1102 C 0.79152 0.75537 0.75024 0.0
C1103 C 0.75472 0.79626 0.76535 0.0
C1104 C 0.76721 0.78217 0.76012 0.0
H1105 H 0.76818 0.67157 0.73437 0.0
H1106 H 0.74946 0.6915 0.74349 0.0
H1107 H 0.82244 0.814 0.74753 0.0
H1108 H 0.7898 0.86671 0.77582 0.0
H1109 H 0.80935 0.84544 0.76696 0.0
C1110 C 0.28134 0.9432 0.77134 0.0
C1111 C 0.2474 0.93442 0.77425 0.0
C1112 C 0.29292 0.96575 0.76614 0.0
C1113 C 0.25918 1.00219 0.75374 0.0
H1114 H 0.36312 0.08263 0.7531 0.0
C1115 C 0.31058 0.11758 0.7354 0.0
C1116 C 0.34583 0.12898 0.73274 0.0
C1117 C 0.29909 0.09485 0.74057 0.0
C1118 C 0.33411 0.06008 0.75316 0.0
H1119 H 0.19844 0.9415 0.77381 0.0
H1120 H 0.21853 0.98051 0.76475 0.0
H1121 H 0.34152 0.03901 0.76162 0.0
H1122 H 0.39702 0.12603 0.73357 0.0
H1123 H 0.37686 0.0862 0.74252 0.0
H1124 H 0.25175 0.02295 0.74527 0.0
C1125 C 0.23617 0.96991 0.76648 0.0
C1126 C 0.32173 0.03502 0.75805 0.0
C1127 C 0.2247 0.94759 0.7717 0.0
C1128 C 0.36977 0.11804 0.7355 0.0
C1129 C 0.35821 0.09518 0.74066 0.0
C1130 C 0.27159 0.02712 0.74884 0.0
C1131 C 0.27074 0.97984 0.7637 0.0
C1132 C 0.2841 0.00581 0.75841 0.0
C1133 C 0.32246 0.08277 0.74321 0.0
C1134 C 0.30921 0.05649 0.74849 0.0
H1135 H 0.29961 0.93367 0.77318 0.0
H1136 H 0.31945 0.97244 0.76406 0.0
H1137 H 0.23013 0.97973 0.75383 0.0
H1138 H 0.2914 0.12551 0.73341 0.0
H1139 H 0.27169 0.08651 0.74247 0.0
C1140 C 0.94868 0.27947 0.73556 0.0
C1141 C 0.9415 0.24626 0.73257 0.0
C1142 C 0.97269 0.29257 0.74058 0.0
C1143 C 0.05112 0.28618 0.74758 0.0
H1144 H 0.03139 0.33157 0.76146 0.0
C1145 C 0.13572 0.32009 0.76989 0.0
C1146 C 0.14256 0.35228 0.77317 0.0
C1147 C 0.11346 0.30946 0.76467 0.0
C1148 C 0.03763 0.31952 0.75758 0.0
H1149 H 0.95301 0.20007 0.73269 0.0
H1150 H 0.99429 0.2226 0.74148 0.0
H1151 H 0.98605 0.30677 0.75318 0.0
H1152 H 0.1329 0.39966 0.77332 0.0
H1153 H 0.09452 0.38135 0.76416 0.0
H1154 H 0.1026 0.29875 0.75198 0.0
C1155 C 0.98186 0.23888 0.73988 0.0
C1156 C 0.01154 0.30517 0.75283 0.0
C1157 C 0.95782 0.22575 0.73487 0.0
C1158 C 0.12816 0.37464 0.77093 0.0
C1159 C 0.10582 0.36394 0.7657 0.0
C1160 C 0.0772 0.30053 0.75232 0.0
C1161 C 0.99017 0.27282 0.74273 0.0
C1162 C 0.01785 0.28813 0.74779 0.0
C1163 C 0.09747 0.33074 0.76259 0.0
C1164 C 0.07072 0.31723 0.75739 0.0
H1165 H 0.93675 0.29612 0.73391 0.0
H1166 H 0.97863 0.31893 0.74264 0.0
H1167 H 0.05726 0.27394 0.74371 0.0
H1168 H 0.1463 0.30215 0.77148 0.0
H1169 H 0.10744 0.28359 0.76242 0.0
C1170 C 0.28964 0.37514 0.27145 0.0
C1171 C 0.2546 0.35032 0.27407 0.0
C1172 C 0.30236 0.36431 0.26636 0.0
C1173 C 0.2708 0.29308 0.25402 0.0
H1174 H 0.37529 0.31791 0.25396 0.0
C1175 C 0.32465 0.22422 0.23713 0.0
C1176 C 0.35801 0.24861 0.23402 0.0
C1177 C 0.31356 0.2367 0.2422 0.0
C1178 C 0.34612 0.31099 0.25389 0.0
H1179 H 0.20482 0.29512 0.27323 0.0
H1180 H 0.22706 0.27623 0.26446 0.0
H1181 H 0.35209 0.34112 0.26212 0.0
H1182 H 0.40702 0.30466 0.23406 0.0
H1183 H 0.38769 0.32625 0.24292 0.0
H1184 H 0.26474 0.26263 0.24584 0.0
C1185 C 0.24467 0.30422 0.26628 0.0
C1186 C 0.33283 0.32444 0.25855 0.0
C1187 C 0.23193 0.31506 0.27134 0.0
C1188 C 0.38111 0.28509 0.23633 0.0
C1189 C 0.37007 0.2975 0.24142 0.0
C1190 C 0.28403 0.27951 0.24939 0.0
C1191 C 0.28034 0.32841 0.26379 0.0
C1192 C 0.29494 0.31553 0.25869 0.0
C1193 C 0.33563 0.27378 0.2443 0.0
C1194 C 0.32179 0.28813 0.24929 0.0
H1195 H 0.30781 0.40257 0.27341 0.0
H1196 H 0.32967 0.38393 0.2645 0.0
H1197 H 0.24164 0.28618 0.25392 0.0
H1198 H 0.30616 0.19589 0.23552 0.0
H1199 H 0.28723 0.2175 0.2444 0.0
C1200 C 0.76382 0.94996 0.27107 0.0
C1201 C 0.72852 0.93859 0.2737 0.0
C1202 C 0.77547 0.97271 0.26591 0.0
C1203 C 0.74159 0.00833 0.25329 0.0
H1204 H 0.84563 0.08876 0.25294 0.0
C1205 C 0.79628 0.12605 0.23526 0.0
C1206 C 0.83063 0.13519 0.23246 0.0
C1207 C 0.78418 0.10328 0.24043 0.0
C1208 C 0.81658 0.06628 0.25294 0.0
H1209 H 0.67731 0.94142 0.27283 0.0
H1210 H 0.69776 0.98134 0.26386 0.0
H1211 H 0.82305 0.04498 0.26142 0.0
H1212 H 0.87977 0.12849 0.23307 0.0
H1213 H 0.85876 0.08906 0.24208 0.0
H1214 H 0.73516 0.02991 0.24482 0.0
C1215 C 0.71633 0.97232 0.26575 0.0
C1216 C 0.80361 0.04104 0.2578 0.0
C1217 C 0.70459 0.9494 0.2709 0.0
C1218 C 0.85323 0.12219 0.2351 0.0
C1219 C 0.84121 0.09958 0.24029 0.0
C1220 C 0.75454 0.03369 0.24844 0.0
C1221 C 0.75224 0.9849 0.26325 0.0
C1222 C 0.76597 0.01161 0.25803 0.0
C1223 C 0.8062 0.08925 0.24295 0.0
C1224 C 0.79222 0.06293 0.2482 0.0
H1225 H 0.78297 0.94207 0.27308 0.0
H1226 H 0.80296 0.98111 0.26403 0.0
H1227 H 0.71258 0.98577 0.25327 0.0
H1228 H 0.77807 0.13545 0.23335 0.0
H1229 H 0.75734 0.09633 0.24242 0.0
C1230 C 0.95529 0.70408 0.23561 0.0
C1231 C 0.94367 0.72721 0.23275 0.0
C1232 C 0.97788 0.71636 0.2408 0.0
C1233 C 0.04385 0.80394 0.24904 0.0
H1234 H 0.03286 0.73477 0.26187 0.0
C1235 C 0.12366 0.85181 0.272 0.0
C1236 C 0.13706 0.82919 0.27451 0.0
C1237 C 0.10119 0.84033 0.26678 0.0
C1238 C 0.03659 0.75439 0.2583 0.0
H1239 H 0.94579 0.78103 0.23329 0.0
H1240 H 0.9843 0.80196 0.24241 0.0
H1241 H 0.98981 0.71225 0.25328 0.0
H1242 H 0.13818 0.77723 0.27333 0.0
H1243 H 0.09938 0.75756 0.26424 0.0
H1244 H 0.09046 0.84614 0.25411 0.0
C1245 C 0.97669 0.77464 0.24056 0.0
C1246 C 0.01186 0.74146 0.25336 0.0
C1247 C 0.95423 0.76243 0.23535 0.0
C1248 C 0.12842 0.79545 0.27155 0.0
C1249 C 0.10583 0.78393 0.26636 0.0
C1250 C 0.06846 0.8169 0.25399 0.0
C1251 C 0.98936 0.75205 0.2433 0.0
C1252 C 0.01519 0.76601 0.24865 0.0
C1253 C 0.09138 0.80588 0.26396 0.0
C1254 C 0.06526 0.79226 0.25867 0.0
H1255 H 0.94799 0.67691 0.23372 0.0
H1256 H 0.98736 0.6983 0.24274 0.0
H1257 H 0.04778 0.82357 0.24545 0.0
H1258 H 0.12951 0.87787 0.27416 0.0
H1259 H 0.09037 0.85784 0.26508 0.0
C1260 C 0.50241 1.00277 0.02669 0.0
C1261 C 0.52986 0.0332 0.03006 0.0
C1262 C 0.50434 1.00279 0.02035 0.0
C1263 C 0.54552 0.06767 0.00735 0.0
H1264 H 0.52074 0.97686 0.99842 0.0
C1265 C 0.57049 0.06745 0.98152 0.0
C1266 C 0.54306 0.03706 0.97813 0.0
C1267 C 0.56855 0.06734 0.98785 0.0
C1268 C 0.52732 1.00238 1.00084 0.0
H1269 H 0.5815 0.08705 0.0294 0.0
H1270 H 0.58502 0.08678 0.01841 0.0
H1271 H 0.51842 0.97528 0.00946 0.0
H1272 H 0.49146 0.98316 0.97878 0.0
H1273 H 0.48792 0.98328 0.98977 0.0
H1274 H 0.55442 0.09477 0.99874 0.0
C1275 C 0.56162 0.06321 0.02064 0.0
C1276 C 0.52601 1.00146 0.00717 0.0
C1277 C 0.5597 0.06321 0.02696 0.0
C1278 C 0.51324 0.00698 0.98123 0.0
C1279 C 0.51132 0.00689 0.98755 0.0
C1280 C 0.54683 0.06859 1.00102 0.0
C1281 C 0.53375 0.03323 0.01725 0.0
C1282 C 0.53513 0.0341 0.01051 0.0
C1283 C 0.53914 0.03685 0.99094 0.0
C1284 C 0.53773 0.03595 0.99769 0.0
H1285 H 0.47898 0.97922 0.02892 0.0
H1286 H 0.48224 0.97937 0.01788 0.0
H1287 H 0.55211 0.09319 0.00977 0.0
H1288 H 0.5939 0.09105 0.97929 0.0
H1289 H 0.59064 0.09074 0.99033 0.0
C1290 C 0.06217 0.53714 0.98057 0.0
C1291 C 0.03194 0.53673 0.97749 0.0
C1292 C 0.0624 0.53533 0.98689 0.0
C1293 C 0.02169 0.55386 1.00046 0.0
H1294 H 0.05958 0.49593 0.00865 0.0
C1295 C 0.0098 0.5301 0.02635 0.0
C1296 C 0.04031 0.53089 0.0294 0.0
C1297 C 0.00917 0.53152 0.02003 0.0
C1298 C 0.04936 0.51263 0.00643 0.0
H1299 H 0.97773 0.53316 0.97868 0.0
H1300 H 0.97799 0.52961 0.98971 0.0
H1301 H 0.05632 0.4952 0.99762 0.0
H1302 H 0.09455 0.53462 0.02815 0.0
H1303 H 0.09357 0.53746 0.01711 0.0
H1304 H 0.01475 0.5713 0.00927 0.0
C1305 C 1.0018 0.53189 0.98722 0.0
C1306 C 0.04741 0.51215 1.0001 0.0
C1307 C 1.00153 0.53365 0.98089 0.0
C1308 C 0.07054 0.53386 0.02596 0.0
C1309 C 0.06987 0.53521 0.01963 0.0
C1310 C 0.02364 0.55433 0.00678 0.0
C1311 C 0.03241 0.53306 0.9903 0.0
C1312 C 0.03359 0.53279 0.99704 0.0
C1313 C 0.03902 0.53374 0.01659 0.0
C1314 C 0.03752 0.53375 0.00985 0.0
H1315 H 0.08612 0.53952 0.97811 0.0
H1316 H 0.08661 0.53672 0.9891 0.0
H1317 H 0.01152 0.5706 0.99824 0.0
H1318 H 0.98597 0.5278 0.02884 0.0
H1319 H 0.98479 0.52992 0.01784 0.0
C1320 C 0.54234 0.5143 0.02625 0.0
C1321 C 0.54227 0.5444 0.02928 0.0
C1322 C 0.54031 0.5119 0.01993 0.0
C1323 C 0.55869 0.57034 0.00627 0.0
H1324 H 0.49962 0.47422 0.99822 0.0
C1325 C 0.53295 0.55746 0.98042 0.0
C1326 C 0.53292 0.52735 0.97737 0.0
C1327 C 0.535 0.55978 0.98674 0.0
C1328 C 0.51666 0.50122 1.00039 0.0
H1329 H 0.53913 0.59518 0.02803 0.0
H1330 H 0.53521 0.59075 0.017 0.0
H1331 H 0.49964 0.47741 0.00925 0.0
H1332 H 0.53589 0.47647 0.9786 0.0
H1333 H 0.53988 0.48077 0.98963 0.0
H1334 H 0.57572 0.59415 0.99741 0.0
C1335 C 0.53738 0.56927 0.01951 0.0
C1336 C 0.5166 0.50306 0.00672 0.0
C1337 C 0.53934 0.57166 0.02584 0.0
C1338 C 0.53576 0.5 0.98079 0.0
C1339 C 0.53777 0.50231 0.98713 0.0
C1340 C 0.55876 0.56849 0.99994 0.0
C1341 C 0.53818 0.53952 0.01648 0.0
C1342 C 0.53761 0.53765 0.00974 0.0
C1343 C 0.53708 0.53207 0.99018 0.0
C1344 C 0.53772 0.53391 0.99692 0.0
H1345 H 0.54459 0.49277 0.02873 0.0
H1346 H 0.54141 0.48884 0.01775 0.0
H1347 H 0.57572 0.59733 0.00844 0.0
H1348 H 0.53075 0.57905 0.97795 0.0
H1349 H 0.53398 0.58285 0.98893 0.0
C1350 C 0.06738 0.57755 0.52603 0.0
C1351 C 0.038 0.54889 0.5294 0.0
C1352 C 0.06743 0.57559 0.51969 0.0
C1353 C 1.00351 0.53069 0.50669 0.0
H1354 H 0.09557 0.55887 0.49788 0.0
C1355 C 1.00581 0.50267 0.48101 0.0
C1356 C 0.03563 0.53051 0.47759 0.0
C1357 C 1.00551 0.50557 0.48732 0.0
C1358 C 0.06968 0.55133 0.50027 0.0
H1359 H 0.98609 0.49521 0.52875 0.0
H1360 H 0.98649 0.49177 0.51777 0.0
H1361 H 0.09697 0.56273 0.50891 0.0
H1362 H 0.08789 0.5839 0.47814 0.0
H1363 H 0.08702 0.58908 0.48909 0.0
H1364 H 0.97621 0.51926 0.49805 0.0
C1365 C 0.00913 0.51606 0.52 0.0
C1366 C 0.07051 0.55354 0.50659 0.0
C1367 C 0.00908 0.51797 0.52631 0.0
C1368 C 0.06459 0.56174 0.48062 0.0
C1369 C 0.06426 0.56463 0.48691 0.0
C1370 C 1.00268 0.52851 0.50037 0.0
C1371 C 0.0381 0.54497 0.51661 0.0
C1372 C 0.03742 0.54316 0.50988 0.0
C1373 C 0.035 0.53637 0.49035 0.0
C1374 C 0.03576 0.53878 0.49708 0.0
H1375 H 0.09007 0.60177 0.52826 0.0
H1376 H 0.09004 0.59847 0.51721 0.0
H1377 H 0.97761 0.52304 0.50908 0.0
H1378 H 0.98309 0.47821 0.47883 0.0
H1379 H 0.98268 0.48315 0.48984 0.0
C1380 C 0.51745 0.54243 0.48047 0.0
C1381 C 0.54824 0.54285 0.47759 0.0
C1382 C 0.51398 0.53994 0.48678 0.0
C1383 C 0.54752 0.51306 0.50048 0.0
H1384 H 0.51651 0.57628 0.50881 0.0
C1385 C 0.55581 0.52948 0.52655 0.0
C1386 C 0.5252 0.52924 0.52946 0.0
C1387 C 0.55892 0.53165 0.52023 0.0
C1388 C 0.52484 0.55814 0.50656 0.0
H1389 H 0.59928 0.54045 0.47913 0.0
H1390 H 0.59331 0.53639 0.4901 0.0
H1391 H 0.52017 0.57767 0.49779 0.0
H1392 H 0.4741 0.53161 0.52798 0.0
H1393 H 0.47944 0.53513 0.517 0.0
H1394 H 0.55222 0.49355 0.50925 0.0
C1395 C 0.57161 0.53758 0.48748 0.0
C1396 C 0.52688 0.55889 0.50023 0.0
C1397 C 0.57511 0.5401 0.48118 0.0
C1398 C 0.49813 0.53183 0.5259 0.0
C1399 C 0.50127 0.53403 0.51959 0.0
C1400 C 0.54549 0.51231 0.50681 0.0
C1401 C 0.54117 0.53776 0.49037 0.0
C1402 C 0.53827 0.53639 0.49711 0.0
C1403 C 0.53154 0.53369 0.51667 0.0
C1404 C 0.53415 0.53486 0.50993 0.0
H1405 H 0.4962 0.54447 0.47785 0.0
H1406 H 0.4899 0.53964 0.48885 0.0
H1407 H 0.55588 0.49494 0.49823 0.0
H1408 H 0.57722 0.52757 0.52914 0.0
H1409 H 0.58288 0.53186 0.51813 0.0
C1410 C 0.53814 1.00311 0.52633 0.0
C1411 C 0.54012 0.0327 0.52983 0.0
C1412 C 0.53645 1.00385 0.52001 0.0
C1413 C 0.55893 0.0692 0.50716 0.0
H1414 H 0.49454 0.9782 0.49813 0.0
C1415 C 0.53443 0.06988 0.48138 0.0
C1416 C 0.53226 0.04015 0.4779 0.0
C1417 C 0.53597 0.06917 0.4877 0.0
C1418 C 0.51304 1.00377 0.50058 0.0
H1419 H 0.54131 0.08609 0.52939 0.0
H1420 H 0.53795 0.08715 0.51836 0.0
H1421 H 0.49484 0.97637 0.50917 0.0
H1422 H 0.53062 0.98654 0.47838 0.0
H1423 H 0.53376 0.98555 0.4894 0.0
H1424 H 0.57718 0.0966 0.49857 0.0
C1425 C 0.53819 0.06358 0.52051 0.0
C1426 C 0.51316 1.00273 0.50691 0.0
C1427 C 0.53983 0.06282 0.52684 0.0
C1428 C 0.5322 0.00991 0.4809 0.0
C1429 C 0.53373 0.0092 0.48723 0.0
C1430 C 0.55883 0.07023 0.50082 0.0
C1431 C 0.53672 0.03421 0.51702 0.0
C1432 C 0.53611 0.03543 0.51028 0.0
C1433 C 0.53538 0.03871 0.49071 0.0
C1434 C 0.53588 0.03753 0.49745 0.0
H1435 H 0.53842 0.97948 0.52846 0.0
H1436 H 0.53579 0.98098 0.51746 0.0
H1437 H 0.57743 0.09477 0.5096 0.0
H1438 H 0.53441 0.0936 0.47924 0.0
H1439 H 0.53676 0.09216 0.49023 0.0
C1440 C 0.18172 0.34375 0.31373 0.0
C1441 C 0.212 0.37427 0.3108 0.0
C1442 C 0.17832 0.34327 0.32005 0.0
C1443 C 0.21045 0.40483 0.33361 0.0
H1444 H 0.18335 0.31218 0.34214 0.0
C1445 C 0.22142 0.39938 0.35967 0.0
C1446 C 0.19214 0.36838 0.36268 0.0
C1447 C 0.22367 0.40009 0.35334 0.0
C1448 C 0.19053 0.33818 0.33983 0.0
H1449 H 0.26216 0.42853 0.31224 0.0
H1450 H 0.25629 0.42753 0.32321 0.0
H1451 H 0.18647 0.31357 0.33111 0.0
H1452 H 0.14232 0.31372 0.36136 0.0
H1453 H 0.14609 0.31518 0.35036 0.0
H1454 H 0.21455 0.42946 0.34232 0.0
C1455 C 0.23495 0.40411 0.32063 0.0
C1456 C 0.19228 0.33896 0.3335 0.0
C1457 C 0.2384 0.40456 0.31433 0.0
C1458 C 0.16536 0.33802 0.35921 0.0
C1459 C 0.16761 0.33875 0.35289 0.0
C1460 C 0.20867 0.40405 0.33994 0.0
C1461 C 0.20506 0.37333 0.32358 0.0
C1462 C 0.20233 0.37231 0.33031 0.0
C1463 C 0.19672 0.36983 0.34987 0.0
C1464 C 0.19875 0.37072 0.34313 0.0
H1465 H 0.16084 0.31993 0.31117 0.0
H1466 H 0.15467 0.31934 0.32216 0.0
H1467 H 0.21778 0.43086 0.33129 0.0
H1468 H 0.2426 0.42323 0.3622 0.0
H1469 H 0.24676 0.42426 0.35117 0.0
C1470 C 0.67677 0.86469 0.35962 0.0
C1471 C 0.7068 0.86334 0.36245 0.0
C1472 C 0.67593 0.86801 0.35332 0.0
C1473 C 0.73669 0.89615 0.3397 0.0
H1474 H 0.64256 0.83564 0.33117 0.0
C1475 C 0.73064 0.88007 0.31376 0.0
C1476 C 0.70151 0.88173 0.31067 0.0
C1477 C 0.73055 0.87799 0.32007 0.0
C1478 C 0.66897 0.85304 0.33349 0.0
H1479 H 0.75967 0.8647 0.36085 0.0
H1480 H 0.75801 0.87014 0.34989 0.0
H1481 H 0.64418 0.8325 0.34219 0.0
H1482 H 0.64903 0.88183 0.31184 0.0
H1483 H 0.64901 0.87835 0.32288 0.0
H1484 H 0.76154 0.91651 0.331 0.0
C1485 C 0.73532 0.86912 0.35254 0.0
C1486 C 0.66991 0.85127 0.33981 0.0
C1487 C 0.73617 0.86581 0.35883 0.0
C1488 C 0.67193 0.8806 0.31406 0.0
C1489 C 0.67182 0.87844 0.32039 0.0
C1490 C 0.73576 0.89787 0.33339 0.0
C1491 C 0.7051 0.87006 0.3497 0.0
C1492 C 0.70383 0.87267 0.34299 0.0
C1493 C 0.70132 0.87745 0.32347 0.0
C1494 C 0.70195 0.87617 0.3302 0.0
H1495 H 0.65368 0.86294 0.36225 0.0
H1496 H 0.6525 0.86917 0.35129 0.0
H1497 H 0.76316 0.9135 0.34201 0.0
H1498 H 0.75381 0.88067 0.31131 0.0
H1499 H 0.75337 0.8766 0.3223 0.0
C1500 C 0.19999 0.82782 0.31457 0.0
C1501 C 0.19806 0.85613 0.31128 0.0
C1502 C 0.20176 0.82913 0.32091 0.0
C1503 C 0.17918 0.87077 0.33398 0.0
H1504 H 0.24428 0.84482 0.34295 0.0
C1505 C 0.20838 0.90199 0.35949 0.0
C1506 C 0.21075 0.87518 0.36314 0.0
C1507 C 0.20569 0.89797 0.35319 0.0
C1508 C 0.22557 0.85168 0.34052 0.0
H1509 H 0.19778 0.90873 0.31209 0.0
H1510 H 0.20126 0.91113 0.32308 0.0
H1511 H 0.2428 0.84139 0.3319 0.0
H1512 H 0.21173 0.8228 0.36299 0.0
H1513 H 0.20664 0.81565 0.35201 0.0
H1514 H 0.16202 0.8812 0.34257 0.0
C1515 C 0.20065 0.88751 0.32078 0.0
C1516 C 0.22476 0.84974 0.33418 0.0
C1517 C 0.1989 0.88622 0.31446 0.0
C1518 C 0.20994 0.84401 0.36033 0.0
C1519 C 0.20731 0.84003 0.35402 0.0
C1520 C 0.17998 0.87269 0.34031 0.0
C1521 C 0.2016 0.85876 0.32409 0.0
C1522 C 0.2018 0.85961 0.33084 0.0
C1523 C 0.20533 0.86706 0.35037 0.0
C1524 C 0.20341 0.86348 0.34365 0.0
H1525 H 0.19937 0.80421 0.31227 0.0
H1526 H 0.20225 0.80642 0.32333 0.0
H1527 H 0.16057 0.87781 0.33156 0.0
H1528 H 0.20907 0.92644 0.36148 0.0
H1529 H 0.20472 0.91959 0.35052 0.0
C1530 C 0.66853 0.82832 0.81545 0.0
C1531 C 0.69899 0.85559 0.81206 0.0
C1532 C 0.66863 0.8305 0.82178 0.0
C1533 C 0.71366 0.8964 0.83461 0.0
H1534 H 0.68235 0.80536 0.8439 0.0
C1535 C 0.73732 0.89974 0.86047 0.0
C1536 C 0.70728 0.87247 0.86392 0.0
C1537 C 0.73669 0.89729 0.85414 0.0
C1538 C 0.69086 0.831 0.84137 0.0
H1539 H 0.75305 0.90706 0.8127 0.0
H1540 H 0.75325 0.91061 0.82368 0.0
H1541 H 0.6788 0.80217 0.83287 0.0
H1542 H 0.65338 0.82075 0.86341 0.0
H1543 H 0.65225 0.81674 0.85243 0.0
H1544 H 0.72574 0.92523 0.84311 0.0
C1545 C 0.72914 0.8877 0.82146 0.0
C1546 C 0.68872 0.82914 0.83505 0.0
C1547 C 0.72909 0.88549 0.81515 0.0
C1548 C 0.67706 0.84229 0.86091 0.0
C1549 C 0.67646 0.83984 0.8546 0.0
C1550 C 0.71579 0.89825 0.84093 0.0
C1551 C 0.6991 0.86008 0.82486 0.0
C1552 C 0.70018 0.86183 0.83159 0.0
C1553 C 0.70606 0.86749 0.85113 0.0
C1554 C 0.70446 0.86558 0.84439 0.0
H1555 H 0.64486 0.80496 0.81322 0.0
H1556 H 0.64483 0.80902 0.82427 0.0
H1557 H 0.72222 0.92204 0.83209 0.0
H1558 H 0.7611 0.92331 0.86263 0.0
H1559 H 0.76021 0.91878 0.8516 0.0
C1560 C 0.23041 0.86734 0.86006 0.0
C1561 C 0.19963 0.86621 0.86307 0.0
C1562 C 0.23313 0.86983 0.85375 0.0
C1563 C 0.17468 0.84976 0.84006 0.0
H1564 H 0.27029 0.912 0.83204 0.0
C1565 C 0.18598 0.87467 0.81425 0.0
C1566 C 0.21676 0.87619 0.81117 0.0
C1567 C 0.18405 0.87302 0.82056 0.0
C1568 C 0.24346 0.89408 0.83421 0.0
H1569 H 0.14802 0.86782 0.86177 0.0
H1570 H 0.15295 0.87245 0.85075 0.0
H1571 H 0.26698 0.91168 0.84308 0.0
H1572 H 0.26937 0.87644 0.81238 0.0
H1573 H 0.26574 0.87306 0.82342 0.0
H1574 H 0.15116 0.832 0.83121 0.0
C1575 C 0.17474 0.8709 0.85329 0.0
C1576 C 0.24155 0.89399 0.84054 0.0
C1577 C 0.17207 0.86853 0.85961 0.0
C1578 C 0.24531 0.87541 0.81459 0.0
C1579 C 0.24336 0.87374 0.82092 0.0
C1580 C 0.17661 0.8498 0.83374 0.0
C1581 C 0.20511 0.87119 0.85028 0.0
C1582 C 0.20712 0.87187 0.84354 0.0
C1583 C 0.21279 0.87275 0.82399 0.0
C1584 C 0.211 0.87201 0.83073 0.0
H1585 H 0.25221 0.86563 0.86256 0.0
H1586 H 0.2567 0.86963 0.85158 0.0
H1587 H 0.14785 0.83187 0.84223 0.0
H1588 H 0.16347 0.87531 0.81179 0.0
H1589 H 0.16036 0.8728 0.82277 0.0
C1590 C 0.19982 0.39582 0.81416 0.0
C1591 C 0.19702 0.3665 0.81049 0.0
C1592 C 0.20216 0.39425 0.82046 0.0
C1593 C 0.18077 0.32781 0.83313 0.0
H1594 H 0.24705 0.41843 0.84209 0.0
C1595 C 0.20551 0.32915 0.85911 0.0
C1596 C 0.20843 0.35988 0.8624 0.0
C1597 C 0.20376 0.32862 0.85277 0.0
C1598 C 0.22807 0.39293 0.83967 0.0
H1599 H 0.19477 0.31255 0.81062 0.0
H1600 H 0.1992 0.31002 0.82162 0.0
H1601 H 0.24583 0.42032 0.83108 0.0
H1602 H 0.21051 0.4136 0.86155 0.0
H1603 H 0.207 0.41239 0.85056 0.0
H1604 H 0.16293 0.3005 0.84175 0.0
C1605 C 0.19919 0.33407 0.81961 0.0
C1606 C 0.22741 0.39402 0.83335 0.0
C1607 C 0.19693 0.33567 0.81329 0.0
C1608 C 0.20858 0.38956 0.85919 0.0
C1609 C 0.20683 0.38902 0.85287 0.0
C1610 C 0.18143 0.32673 0.83947 0.0
C1611 C 0.20173 0.36331 0.82327 0.0
C1612 C 0.20352 0.36157 0.83 0.0
C1613 C 0.20492 0.35882 0.84957 0.0
C1614 C 0.20484 0.35938 0.84282 0.0
H1615 H 0.19983 0.41996 0.81218 0.0
H1616 H 0.20355 0.41703 0.82313 0.0
H1617 H 0.16172 0.3024 0.8307 0.0
H1618 H 0.20537 0.30582 0.86143 0.0
H1619 H 0.20253 0.30501 0.85037 0.0
C1620 C 0.8342 0.66801 0.69351 0.0
C1621 C 0.86166 0.69744 0.69705 0.0
C1622 C 0.8371 0.66881 0.68719 0.0
C1623 C 0.90459 0.71299 0.67455 0.0
H1624 H 0.8141 0.68117 0.66504 0.0
C1625 C 0.90911 0.73363 0.64858 0.0
C1626 C 0.88147 0.7039 0.64511 0.0
C1627 C 0.90663 0.73322 0.65491 0.0
C1628 C 0.83958 0.68977 0.66762 0.0
H1629 H 0.91405 0.75067 0.69668 0.0
H1630 H 0.91897 0.75216 0.68566 0.0
H1631 H 0.81041 0.67951 0.67606 0.0
H1632 H 0.8293 0.65051 0.6456 0.0
H1633 H 0.82511 0.64974 0.65662 0.0
H1634 H 0.93375 0.72326 0.6661 0.0
C1635 C 0.89534 0.72823 0.68778 0.0
C1636 C 0.83747 0.6888 0.67395 0.0
C1637 C 0.89243 0.72744 0.69411 0.0
C1638 C 0.85104 0.67397 0.64812 0.0
C1639 C 0.84854 0.67359 0.65445 0.0
C1640 C 0.9067 0.71397 0.66821 0.0
C1641 C 0.86754 0.69907 0.68424 0.0
C1642 C 0.86993 0.70032 0.6775 0.0
C1643 C 0.87643 0.70311 0.65792 0.0
C1644 C 0.87421 0.70233 0.66467 0.0
H1645 H 0.81016 0.64435 0.6956 0.0
H1646 H 0.81551 0.64556 0.68462 0.0
H1647 H 0.93006 0.72156 0.67713 0.0
H1648 H 0.93292 0.75722 0.64643 0.0
H1649 H 0.9283 0.75669 0.65743 0.0
C1650 C 0.34024 0.20295 0.64784 0.0
C1651 C 0.36975 0.20609 0.64418 0.0
C1652 C 0.34218 0.20149 0.65414 0.0
C1653 C 0.3902 0.18252 0.66669 0.0
H1654 H 0.35659 0.24017 0.67606 0.0
C1655 C 0.4077 0.19824 0.69279 0.0
C1656 C 0.37666 0.19467 0.69606 0.0
C1657 C 0.40869 0.20103 0.68646 0.0
C1658 C 0.36578 0.22364 0.67352 0.0
H1659 H 0.4242 0.20936 0.64433 0.0
H1660 H 0.42761 0.20694 0.65535 0.0
H1661 H 0.35428 0.2411 0.66505 0.0
H1662 H 0.32256 0.19182 0.69522 0.0
H1663 H 0.32424 0.19645 0.68424 0.0
H1664 H 0.40151 0.16493 0.67519 0.0
C1665 C 0.40282 0.20534 0.65332 0.0
C1666 C 0.36442 0.22413 0.6672 0.0
C1667 C 0.40089 0.20683 0.64699 0.0
C1668 C 0.34698 0.19461 0.69286 0.0
C1669 C 0.34802 0.19747 0.68655 0.0
C1670 C 0.39156 0.18202 0.67303 0.0
C1671 C 0.37369 0.20316 0.65697 0.0
C1672 C 0.37627 0.20331 0.6637 0.0
C1673 C 0.37875 0.20046 0.68326 0.0
C1674 C 0.37905 0.20233 0.67652 0.0
H1675 H 0.3157 0.20211 0.64584 0.0
H1676 H 0.31892 0.19908 0.65681 0.0
H1677 H 0.39922 0.16589 0.66414 0.0
H1678 H 0.43109 0.19843 0.6951 0.0
H1679 H 0.43299 0.20376 0.68407 0.0
C1680 C 0.86661 0.2224 0.64724 0.0
C1681 C 0.86563 0.19185 0.64418 0.0
C1682 C 0.86857 0.22456 0.65355 0.0
C1683 C 0.89287 0.18822 0.66708 0.0
H1684 H 0.82924 0.21907 0.67535 0.0
C1685 C 0.87397 0.17714 0.69297 0.0
C1686 C 0.87499 0.20779 0.696 0.0
C1687 C 0.87195 0.17479 0.68666 0.0
C1688 C 0.84746 0.21079 0.67311 0.0
H1689 H 0.86691 0.14004 0.64538 0.0
H1690 H 0.87012 0.14375 0.65642 0.0
H1691 H 0.82867 0.21611 0.66432 0.0
H1692 H 0.87375 0.25958 0.69475 0.0
H1693 H 0.87043 0.25554 0.68372 0.0
H1694 H 0.91166 0.1829 0.67587 0.0
C1695 C 0.86962 0.16616 0.65391 0.0
C1696 C 0.84717 0.2091 0.66678 0.0
C1697 C 0.86767 0.16399 0.64758 0.0
C1698 C 0.87295 0.23556 0.69257 0.0
C1699 C 0.87093 0.23319 0.68624 0.0
C1700 C 0.89316 0.1899 0.6734 0.0
C1701 C 0.86959 0.19624 0.65697 0.0
C1702 C 0.86991 0.19786 0.66369 0.0
C1703 C 0.8709 0.203 0.68321 0.0
C1704 C 0.87045 0.20119 0.67649 0.0
H1705 H 0.86539 0.24456 0.64477 0.0
H1706 H 0.86925 0.24847 0.65575 0.0
H1707 H 0.9111 0.17995 0.66483 0.0
H1708 H 0.87522 0.15506 0.69546 0.0
H1709 H 0.87125 0.15081 0.68448 0.0
C1710 C 0.40361 0.22884 0.19363 0.0
C1711 C 0.37315 0.20356 0.19724 0.0
C1712 C 0.40214 0.22517 0.18733 0.0
C1713 C 0.33488 0.18373 0.17461 0.0
H1714 H 0.42412 0.20398 0.16559 0.0
C1715 C 0.33451 0.15995 0.14863 0.0
C1716 C 0.36544 0.18744 0.14535 0.0
C1717 C 0.33426 0.16097 0.15498 0.0
C1718 C 0.39903 0.19859 0.16803 0.0
H1719 H 0.31744 0.15407 0.197 0.0
H1720 H 0.31517 0.14741 0.18602 0.0
H1721 H 0.42633 0.2066 0.17661 0.0
H1722 H 0.41992 0.23822 0.1462 0.0
H1723 H 0.41926 0.24006 0.15719 0.0
H1724 H 0.30763 0.17572 0.16601 0.0
C1725 C 0.33998 0.17046 0.18807 0.0
C1726 C 0.4003 0.20009 0.17436 0.0
C1727 C 0.34142 0.17414 0.19438 0.0
C1728 C 0.39568 0.2164 0.14856 0.0
C1729 C 0.39546 0.21735 0.15488 0.0
C1730 C 0.33359 0.18214 0.16828 0.0
C1731 C 0.37021 0.19609 0.18446 0.0
C1732 C 0.36834 0.193 0.17773 0.0
C1733 C 0.36499 0.18943 0.15817 0.0
C1734 C 0.36576 0.18989 0.16491 0.0
H1735 H 0.42846 0.25195 0.19566 0.0
H1736 H 0.42576 0.24573 0.18469 0.0
H1737 H 0.30987 0.17859 0.17706 0.0
H1738 H 0.31074 0.13723 0.14632 0.0
H1739 H 0.31043 0.13892 0.15738 0.0
C1740 C 0.90565 0.20029 0.14697 0.0
C1741 C 0.87798 0.20285 0.14358 0.0
C1742 C 0.90346 0.19803 0.15329 0.0
C1743 C 0.86084 0.2202 0.16626 0.0
H1744 H 0.88751 0.15558 0.17519 0.0
C1745 C 0.83591 0.19459 0.19206 0.0
C1746 C 0.86407 0.19297 0.19545 0.0
C1747 C 0.83775 0.19621 0.18573 0.0
C1748 C 0.88036 0.1741 0.17277 0.0
H1749 H 0.82561 0.20377 0.14421 0.0
H1750 H 0.82161 0.19932 0.15519 0.0
H1751 H 0.88993 0.15637 0.16415 0.0
H1752 H 0.91677 0.19268 0.19482 0.0
H1753 H 0.92007 0.19589 0.18382 0.0
H1754 H 0.85126 0.23791 0.17487 0.0
C1755 C 0.84541 0.19982 0.15297 0.0
C1756 C 0.88174 0.17453 0.16644 0.0
C1757 C 0.8476 0.20211 0.14666 0.0
C1758 C 0.89445 0.19371 0.19237 0.0
C1759 C 0.89624 0.19528 0.18605 0.0
C1760 C 0.85943 0.21974 0.17259 0.0
C1761 C 0.87354 0.19824 0.15637 0.0
C1762 C 0.87198 0.19757 0.16311 0.0
C1763 C 0.86777 0.19621 0.18265 0.0
C1764 C 0.86921 0.19671 0.17592 0.0
H1765 H 0.92949 0.20087 0.14475 0.0
H1766 H 0.92577 0.19715 0.15578 0.0
H1767 H 0.85376 0.23878 0.16384 0.0
H1768 H 0.81208 0.19402 0.19428 0.0
H1769 H 0.81518 0.19659 0.18324 0.0
C1770 C 0.86605 0.72829 0.14777 0.0
C1771 C 0.86399 0.69931 0.1441 0.0
C1772 C 0.86765 0.7264 0.15407 0.0
C1773 C 0.88925 0.67998 0.16657 0.0
H1774 H 0.83047 0.71164 0.17608 0.0
C1775 C 0.87576 0.6632 0.19272 0.0
C1776 C 0.87866 0.69398 0.19599 0.0
C1777 C 0.87256 0.6619 0.18639 0.0
C1778 C 0.84732 0.70299 0.1735 0.0
H1779 H 0.86261 0.64577 0.14423 0.0
H1780 H 0.86522 0.64242 0.15524 0.0
H1781 H 0.82866 0.71362 0.16506 0.0
H1782 H 0.87992 0.74729 0.19513 0.0
H1783 H 0.87457 0.74506 0.18416 0.0
H1784 H 0.90802 0.66954 0.17503 0.0
C1785 C 0.86591 0.6668 0.15322 0.0
C1786 C 0.84632 0.70417 0.16717 0.0
C1787 C 0.86429 0.66868 0.1469 0.0
C1788 C 0.87769 0.72308 0.19278 0.0
C1789 C 0.8744 0.72172 0.18647 0.0
C1790 C 0.89024 0.67879 0.17291 0.0
C1791 C 0.8672 0.69546 0.15689 0.0
C1792 C 0.86754 0.69303 0.16363 0.0
C1793 C 0.872 0.69125 0.18319 0.0
C1794 C 0.86955 0.69062 0.17645 0.0
H1795 H 0.86606 0.75242 0.14578 0.0
H1796 H 0.86932 0.74931 0.15675 0.0
H1797 H 0.90622 0.67153 0.16398 0.0
H1798 H 0.87638 0.64026 0.19504 0.0
H1799 H 0.87034 0.6378 0.18401 0.0
C1800 C 0.52185 0.93823 0.05283 0.0
C1801 C 0.54767 0.9681 0.04919 0.0
C1802 C 0.5204 0.90332 0.05266 0.0
C1803 C 0.58001 0.86237 0.04883 0.0
H1804 H 0.48663 0.7671 0.04815 0.0
C1805 C 0.57946 0.72443 0.04397 0.0
C1806 C 0.55438 0.69242 0.04727 0.0
C1807 C 0.57679 0.75707 0.0442 0.0
C1808 C 0.51296 0.79344 0.04841 0.0
H1809 H 0.59159 0.98478 0.04245 0.0
H1810 H 0.58911 0.92439 0.04215 0.0
H1811 H 0.48494 0.82578 0.04872 0.0
H1812 H 0.50643 0.66906 0.05333 0.0
H1813 H 0.50205 0.72623 0.05382 0.0
H1814 H 0.60816 0.83046 0.04856 0.0
C1815 C 0.57025 0.92776 0.04519 0.0
C1816 C 0.51195 0.82705 0.04874 0.0
C1817 C 0.57156 0.96235 0.04534 0.0
C1818 C 0.52613 0.69339 0.05073 0.0
C1819 C 0.52351 0.72609 0.05098 0.0
C1820 C 0.58103 0.82891 0.04853 0.0
C1821 C 0.54503 0.89794 0.04889 0.0
C1822 C 0.54551 0.86192 0.04887 0.0
C1823 C 0.54907 0.75851 0.04777 0.0
C1824 C 0.54756 0.79399 0.04824 0.0
H1825 H 0.50359 0.94212 0.05592 0.0
H1826 H 0.50083 0.88095 0.05559 0.0
H1827 H 0.60638 0.88871 0.04906 0.0
H1828 H 0.60138 0.72437 0.04124 0.0
H1829 H 0.59651 0.78122 0.04158 0.0
C1830 C 0.11459 0.64571 0.04463 0.0
C1831 C 0.10841 0.61597 0.04848 0.0
C1832 C 0.14915 0.67903 0.0446 0.0
C1833 C 0.2493 0.72179 0.04864 0.0
H1834 H 0.24489 0.81399 0.04855 0.0
C1835 C 0.38156 0.86978 0.05145 0.0
C1836 C 0.38297 0.89913 0.04798 0.0
C1837 C 0.34899 0.83435 0.05153 0.0
C1838 C 0.24672 0.78858 0.04849 0.0
H1839 H 0.13353 0.59762 0.05532 0.0
H1840 H 0.19462 0.65607 0.05522 0.0
H1841 H 0.18687 0.75367 0.04869 0.0
H1842 H 0.35201 0.91437 0.04176 0.0
H1843 H 0.2954 0.85247 0.0418 0.0
H1844 H 0.30932 0.75689 0.0484 0.0
C1845 C 0.17266 0.65334 0.05218 0.0
C1846 C 0.21341 0.75395 0.04859 0.0
C1847 C 0.13781 0.61986 0.05222 0.0
C1848 C 0.35157 0.89228 0.0445 0.0
C1849 C 0.31907 0.85687 0.04456 0.0
C1850 C 0.28277 0.75656 0.04852 0.0
C1851 C 0.17844 0.68352 0.04843 0.0
C1852 C 0.21425 0.72014 0.0486 0.0
C1853 C 0.31718 0.82754 0.04813 0.0
C1854 C 0.28185 0.79039 0.04839 0.0
H1855 H 0.0925 0.6434 0.04166 0.0
H1856 H 0.15289 0.70142 0.04157 0.0
H1857 H 0.25086 0.69621 0.04861 0.0
H1858 H 0.40544 0.87435 0.05418 0.0
H1859 H 0.34845 0.81258 0.05437 0.0
C1860 C 0.20624 0.54924 0.05097 0.0
C1861 C 0.1776 0.52186 0.04732 0.0
C1862 C 0.24215 0.55318 0.05101 0.0
C1863 C 0.30523 0.53125 0.04213 0.0
H1864 H 0.35518 0.54175 0.05752 0.0
C1865 C 0.43066 0.5064 0.04448 0.0
C1866 C 0.46003 0.52903 0.04846 0.0
C1867 C 0.39814 0.50917 0.04423 0.0
C1868 C 0.34196 0.53947 0.05317 0.0
H1869 H 0.16398 0.47739 0.04081 0.0
H1870 H 0.22667 0.48417 0.04088 0.0
H1871 H 0.29464 0.53956 0.05726 0.0
H1872 H 0.47823 0.57188 0.0554 0.0
H1873 H 0.42156 0.57754 0.05488 0.0
H1874 H 0.35232 0.53094 0.03803 0.0
C1875 C 0.22155 0.50282 0.04368 0.0
C1876 C 0.30718 0.53813 0.05303 0.0
C1877 C 0.18559 0.49878 0.04366 0.0
C1878 C 0.45631 0.55464 0.0522 0.0
C1879 C 0.42365 0.55748 0.05195 0.0
C1880 C 0.34002 0.53273 0.04227 0.0
C1881 C 0.25022 0.52995 0.04738 0.0
C1882 C 0.28816 0.53347 0.04751 0.0
C1883 C 0.39409 0.53466 0.04797 0.0
C1884 C 0.35858 0.53627 0.0478 0.0
H1885 H 0.20084 0.56748 0.05383 0.0
H1886 H 0.26369 0.5746 0.05386 0.0
H1887 H 0.29169 0.52837 0.03779 0.0
H1888 H 0.43268 0.48626 0.04156 0.0
H1889 H 0.37577 0.49064 0.04119 0.0
C1890 C 0.96715 0.57118 0.46188 0.0
C1891 C 0.9732 0.5472 0.45809 0.0
C1892 C 0.93244 0.5697 0.46197 0.0
C1893 C 0.84617 0.53979 0.45293 0.0
H1894 H 0.80918 0.55708 0.46806 0.0
C1895 C 0.70228 0.53462 0.45513 0.0
C1896 C 0.70213 0.56323 0.4586 0.0
C1897 C 0.73407 0.53034 0.455 0.0
C1898 C 0.81925 0.5525 0.46379 0.0
H1899 H 0.94774 0.50316 0.45136 0.0
H1900 H 0.88626 0.49972 0.45161 0.0
H1901 H 0.86576 0.55188 0.46804 0.0
H1902 H 0.73506 0.60989 0.46465 0.0
H1903 H 0.7906 0.60246 0.46445 0.0
H1904 H 0.79939 0.54038 0.44869 0.0
C1905 C 0.90862 0.5199 0.45449 0.0
C1906 C 0.85174 0.54952 0.46377 0.0
C1907 C 0.94363 0.52148 0.4544 0.0
C1908 C 0.73439 0.58757 0.46194 0.0
C1909 C 0.76608 0.58314 0.46185 0.0
C1910 C 0.81346 0.54256 0.45295 0.0
C1911 C 0.90263 0.5441 0.45828 0.0
C1912 C 0.86606 0.54378 0.45833 0.0
C1913 C 0.76629 0.5544 0.45839 0.0
C1914 C 0.79996 0.54955 0.45837 0.0
H1915 H 0.98947 0.59146 0.46476 0.0
H1916 H 0.92929 0.58931 0.46485 0.0
H1917 H 0.85653 0.53577 0.44864 0.0
H1918 H 0.67772 0.51538 0.45252 0.0
H1919 H 0.73318 0.50775 0.45234 0.0
C1920 C 0.54813 0.20243 0.45539 0.0
C1921 C 0.5166 0.17288 0.45823 0.0
C1922 C 0.55223 0.2383 0.45507 0.0
C1923 C 0.56407 0.31601 0.458 0.0
H1924 H 0.4763 0.32491 0.45445 0.0
C1925 C 0.56266 0.45653 0.45978 0.0
C1926 C 0.54151 0.46301 0.45544 0.0
C1927 C 0.56186 0.42204 0.45995 0.0
C1928 C 0.50119 0.32298 0.45539 0.0
H1929 H 0.46478 0.15752 0.46301 0.0
H1930 H 0.47196 0.22024 0.46248 0.0
H1931 H 0.47008 0.26288 0.45509 0.0
H1932 H 0.50446 0.43944 0.4477 0.0
H1933 H 0.50344 0.37957 0.44793 0.0
H1934 H 0.59526 0.37626 0.4582 0.0
C1935 C 0.49333 0.21567 0.46044 0.0
C1936 C 0.49751 0.28735 0.45584 0.0
C1937 C 0.48926 0.1798 0.46076 0.0
C1938 C 0.52079 0.43507 0.45113 0.0
C1939 C 0.52 0.40068 0.45129 0.0
C1940 C 0.56775 0.35171 0.45756 0.0
C1941 C 0.52484 0.24536 0.45758 0.0
C1942 C 0.52888 0.28339 0.45715 0.0
C1943 C 0.53987 0.39342 0.45577 0.0
C1944 C 0.53635 0.35561 0.45623 0.0
H1945 H 0.56965 0.19782 0.45341 0.0
H1946 H 0.57659 0.26037 0.45277 0.0
H1947 H 0.58874 0.31396 0.45908 0.0
H1948 H 0.57886 0.47763 0.46316 0.0
H1949 H 0.57734 0.41732 0.46348 0.0
C1950 C 0.8963 0.3498 0.46253 0.0
C1951 C 0.90309 0.38271 0.45952 0.0
C1952 C 0.8607 0.31752 0.4623 0.0
C1953 C 0.79144 0.2476 0.45767 0.0
H1954 H 0.69998 0.25328 0.45851 0.0
C1955 C 0.64716 0.11923 0.45226 0.0
C1956 C 0.61736 0.11209 0.45617 0.0
C1957 C 0.68104 0.15335 0.45255 0.0
C1958 C 0.72525 0.25119 0.4583 0.0
H1959 H 0.87804 0.40809 0.45401 0.0
H1960 H 0.81596 0.35168 0.45355 0.0
H1961 H 0.76102 0.31049 0.45961 0.0
H1962 H 0.59907 0.13536 0.46334 0.0
H1963 H 0.65835 0.19503 0.46388 0.0
H1964 H 0.75583 0.18834 0.45647 0.0
C1965 C 0.83792 0.35079 0.45614 0.0
C1966 C 0.76025 0.28403 0.45887 0.0
C1967 C 0.87353 0.38304 0.45637 0.0
C1968 C 0.62157 0.1402 0.46025 0.0
C1969 C 0.6555 0.1744 0.46055 0.0
C1970 C 0.75652 0.21485 0.45709 0.0
C1971 C 0.83115 0.3175 0.45905 0.0
C1972 C 0.79379 0.28262 0.45856 0.0
C1973 C 0.6859 0.1811 0.45678 0.0
C1974 C 0.72297 0.21621 0.45738 0.0
H1975 H 0.91859 0.34886 0.46501 0.0
H1976 H 0.85633 0.29256 0.46467 0.0
H1977 H 0.81667 0.2455 0.45733 0.0
H1978 H 0.64458 0.09814 0.44904 0.0
H1979 H 0.70358 0.15787 0.4495 0.0
C1980 C 0.54691 0.3772 0.95608 0.0
C1981 C 0.51907 0.37887 0.95955 0.0
C1982 C 0.54941 0.34441 0.95597 0.0
C1983 C 0.4922 0.24209 0.95897 0.0
H1984 H 0.58833 0.24532 0.9587 0.0
C1985 C 0.50238 0.1094 0.96275 0.0
C1986 C 0.5258 0.10303 0.95888 0.0
C1987 C 0.50363 0.14398 0.96276 0.0
C1988 C 0.56129 0.24401 0.95871 0.0
H1989 H 0.47266 0.34809 0.96574 0.0
H1990 H 0.47735 0.29113 0.96565 0.0
H1991 H 0.5866 0.30403 0.95898 0.0
H1992 H 0.56894 0.12785 0.95199 0.0
H1993 H 0.57164 0.18898 0.95207 0.0
H1994 H 0.46688 0.18222 0.95876 0.0
C1995 C 0.49682 0.31476 0.96291 0.0
C1996 C 0.56026 0.27763 0.95887 0.0
C1997 C 0.49426 0.34748 0.963 0.0
C1998 C 0.55109 0.13225 0.95509 0.0
C1999 C 0.5525 0.16714 0.95513 0.0
C2000 C 0.49324 0.20861 0.95884 0.0
C2001 C 0.52416 0.31262 0.95934 0.0
C2002 C 0.52566 0.27707 0.95905 0.0
C2003 C 0.52832 0.17314 0.95891 0.0
C2004 C 0.52776 0.20911 0.95877 0.0
H2005 H 0.5664 0.40104 0.95337 0.0
H2006 H 0.57057 0.34372 0.95313 0.0
H2007 H 0.46504 0.24049 0.95895 0.0
H2008 H 0.48274 0.08746 0.96574 0.0
H2009 H 0.48512 0.14786 0.9658 0.0
C2010 C 0.93577 0.45045 0.95474 0.0
C2011 C 0.96525 0.45426 0.95846 0.0
C2012 C 0.90021 0.41791 0.95505 0.0
C2013 C 0.84187 0.33466 0.96486 0.0
H2014 H 0.78802 0.28927 0.94998 0.0
C2015 C 0.72105 0.1804 0.9636 0.0
C2016 C 0.68947 0.17263 0.96008 0.0
C2017 C 0.75304 0.21626 0.96353 0.0
C2018 C 0.80247 0.30181 0.95418 0.0
H2019 H 0.9809 0.42714 0.96537 0.0
H2020 H 0.91962 0.37044 0.96583 0.0
H2021 H 0.84649 0.34959 0.94961 0.0
H2022 H 0.66629 0.19619 0.95378 0.0
H2023 H 0.72219 0.25884 0.95364 0.0
H2024 H 0.79829 0.28647 0.96941 0.0
C2025 C 0.92331 0.39266 0.96277 0.0
C2026 C 0.83597 0.33648 0.95398 0.0
C2027 C 0.95862 0.42507 0.96247 0.0
C2028 C 0.69032 0.20141 0.95653 0.0
C2029 C 0.72238 0.23721 0.95642 0.0
C2030 C 0.80853 0.29996 0.96506 0.0
C2031 C 0.89358 0.38853 0.95907 0.0
C2032 C 0.85639 0.35313 0.95931 0.0
C2033 C 0.75418 0.24506 0.95991 0.0
C2034 C 0.78864 0.28289 0.95972 0.0
H2035 H 0.94035 0.47219 0.95152 0.0
H2036 H 0.87795 0.41579 0.95215 0.0
H2037 H 0.85636 0.34696 0.96907 0.0
H2038 H 0.72116 0.15869 0.96637 0.0
H2039 H 0.77719 0.22124 0.96622 0.0
C2040 C 0.61809 0.51614 0.95458 0.0
C2041 C 0.61462 0.54206 0.95828 0.0
C2042 C 0.65055 0.51295 0.95486 0.0
C2043 C 0.7342 0.53781 0.96458 0.0
H2044 H 0.77907 0.52943 0.94963 0.0
C2045 C 0.88859 0.57163 0.96312 0.0
C2046 C 0.89627 0.54787 0.95958 0.0
C2047 C 0.85265 0.56763 0.96311 0.0
C2048 C 0.76667 0.53131 0.95386 0.0
H2049 H 0.64221 0.58502 0.96515 0.0
H2050 H 0.69877 0.58009 0.96557 0.0
H2051 H 0.71866 0.52751 0.94934 0.0
H2052 H 0.8725 0.50109 0.95329 0.0
H2053 H 0.80972 0.49414 0.95324 0.0
H2054 H 0.78263 0.54247 0.96907 0.0
C2055 C 0.67635 0.56154 0.96254 0.0
C2056 C 0.73196 0.5301 0.95369 0.0
C2057 C 0.64403 0.56463 0.96226 0.0
C2058 C 0.86734 0.51987 0.95605 0.0
C2059 C 0.83147 0.51601 0.956 0.0
C2060 C 0.76895 0.53921 0.96474 0.0
C2061 C 0.68016 0.53575 0.95884 0.0
C2062 C 0.71552 0.53387 0.95904 0.0
C2063 C 0.82372 0.5399 0.95952 0.0
C2064 C 0.78583 0.53644 0.95937 0.0
H2065 H 0.59615 0.49895 0.95138 0.0
H2066 H 0.65244 0.49265 0.95197 0.0
H2067 H 0.72205 0.54001 0.96881 0.0
H2068 H 0.91042 0.5935 0.96588 0.0
H2069 H 0.84773 0.58677 0.96581 0.0
C2070 C 0.33941 0.48435 0.54653 0.0
C2071 C 0.37379 0.51191 0.54898 0.0
C2072 C 0.30731 0.48789 0.547 0.0
C2073 C 0.27561 0.557 0.5497 0.0
H2074 H 0.17999 0.46699 0.55278 0.0
C2075 C 0.13255 0.55518 0.55296 0.0
C2076 C 0.10209 0.52619 0.54981 0.0
C2077 C 0.16724 0.55601 0.55325 0.0
C2078 C 0.20645 0.4924 0.55189 0.0
H2079 H 0.40177 0.56497 0.55381 0.0
H2080 H 0.34558 0.57104 0.55468 0.0
H2081 H 0.23729 0.46323 0.55251 0.0
H2082 H 0.08428 0.47606 0.54438 0.0
H2083 H 0.14399 0.47748 0.54488 0.0
H2084 H 0.24428 0.586 0.54904 0.0
C2085 C 0.34343 0.54684 0.55235 0.0
C2086 C 0.23932 0.49022 0.55171 0.0
C2087 C 0.37556 0.54326 0.55188 0.0
C2088 C 0.10707 0.49858 0.5469 0.0
C2089 C 0.14131 0.49927 0.54721 0.0
C2090 C 0.24256 0.5592 0.54988 0.0
C2091 C 0.30882 0.51908 0.54994 0.0
C2092 C 0.27427 0.5223 0.5505 0.0
C2093 C 0.17172 0.52765 0.55044 0.0
C2094 C 0.2075 0.52673 0.55086 0.0
H2095 H 0.3373 0.46001 0.54425 0.0
H2096 H 0.28133 0.46629 0.545 0.0
H2097 H 0.30201 0.58225 0.54872 0.0
H2098 H 0.12944 0.57677 0.55527 0.0
H2099 H 0.19019 0.57826 0.55578 0.0
C2100 C 0.51351 0.61755 0.54729 0.0
C2101 C 0.53529 0.6113 0.55154 0.0
C2102 C 0.51422 0.652 0.54715 0.0
C2103 C 0.57517 0.75126 0.55161 0.0
H2104 H 0.48682 0.75973 0.54838 0.0
C2105 C 0.52725 0.87101 0.55222 0.0
C2106 C 0.55832 0.90078 0.54933 0.0
C2107 C 0.52344 0.83523 0.55245 0.0
C2108 C 0.51172 0.75783 0.54933 0.0
H2109 H 0.57342 0.63525 0.55914 0.0
H2110 H 0.57427 0.69503 0.55897 0.0
H2111 H 0.48078 0.69757 0.54912 0.0
H2112 H 0.60962 0.91664 0.54436 0.0
H2113 H 0.60295 0.85408 0.54471 0.0
H2114 H 0.60603 0.81135 0.55193 0.0
C2115 C 0.55729 0.67379 0.55566 0.0
C2116 C 0.50831 0.72221 0.54969 0.0
C2117 C 0.55661 0.63946 0.55578 0.0
C2118 C 0.5855 0.89419 0.54665 0.0
C2119 C 0.58173 0.85841 0.54688 0.0
C2120 C 0.57858 0.7868 0.55125 0.0
C2121 C 0.53672 0.6808 0.55126 0.0
C2122 C 0.54 0.71851 0.55086 0.0
C2123 C 0.55066 0.82849 0.54979 0.0
C2124 C 0.54692 0.79055 0.55011 0.0
H2125 H 0.4969 0.5963 0.54395 0.0
H2126 H 0.4982 0.65654 0.54369 0.0
H2127 H 0.60027 0.74948 0.55243 0.0
H2128 H 0.50584 0.87536 0.55432 0.0
H2129 H 0.49944 0.81299 0.55479 0.0
C2130 C 0.42531 0.95309 0.55498 0.0
C2131 C 0.45635 0.95971 0.55142 0.0
C2132 C 0.39164 0.91895 0.55458 0.0
C2133 C 0.34861 0.82017 0.55035 0.0
H2134 H 0.25994 0.8286 0.54738 0.0
C2135 C 0.20138 0.68986 0.54595 0.0
C2136 C 0.17039 0.69093 0.54841 0.0
C2137 C 0.23724 0.72191 0.5461 0.0
C2138 C 0.28425 0.82561 0.54829 0.0
H2139 H 0.47704 0.93551 0.54478 0.0
H2140 H 0.41816 0.87512 0.54419 0.0
H2141 H 0.32108 0.88523 0.54834 0.0
H2142 H 0.15238 0.72569 0.55306 0.0
H2143 H 0.21472 0.78097 0.55352 0.0
H2144 H 0.31166 0.76053 0.5505 0.0
C2145 C 0.41999 0.89654 0.54727 0.0
C2146 C 0.31929 0.85811 0.54882 0.0
C2147 C 0.45361 0.931 0.54761 0.0
C2148 C 0.17578 0.72425 0.55108 0.0
C2149 C 0.21154 0.75604 0.5513 0.0
C2150 C 0.31335 0.78751 0.54992 0.0
C2151 C 0.38848 0.89058 0.55065 0.0
C2152 C 0.35173 0.85574 0.54991 0.0
C2153 C 0.24274 0.75546 0.54877 0.0
C2154 C 0.28064 0.78986 0.54894 0.0
H2155 H 0.42668 0.97468 0.55797 0.0
H2156 H 0.36785 0.91485 0.55728 0.0
H2157 H 0.37327 0.81767 0.55121 0.0
H2158 H 0.19786 0.66441 0.54386 0.0
H2159 H 0.26049 0.7205 0.54405 0.0
C2160 C 0.1981 0.02642 0.38516 0.0
C2161 C 0.22969 0.02825 0.38236 0.0
C2162 C 0.19421 0.05834 0.38551 0.0
C2163 C 0.18282 0.12458 0.38268 0.0
H2164 H 0.27085 0.22105 0.38616 0.0
C2165 C 0.18407 0.26634 0.38081 0.0
C2166 C 0.20569 0.29446 0.38505 0.0
C2167 C 0.1849 0.23265 0.38069 0.0
C2168 C 0.24587 0.19429 0.38524 0.0
H2169 H 0.28184 0.06464 0.37767 0.0
H2170 H 0.275 0.12041 0.37822 0.0
H2171 H 0.27683 0.16508 0.38553 0.0
H2172 H 0.24371 0.30879 0.39268 0.0
H2173 H 0.24474 0.2499 0.39255 0.0
H2174 H 0.15176 0.15382 0.3825 0.0
C2175 C 0.25342 0.09448 0.38023 0.0
C2176 C 0.24942 0.16224 0.3848 0.0
C2177 C 0.25729 0.06252 0.37989 0.0
C2178 C 0.22697 0.2877 0.38932 0.0
C2179 C 0.22777 0.25407 0.38922 0.0
C2180 C 0.17926 0.1567 0.38312 0.0
C2181 C 0.22185 0.09282 0.38306 0.0
C2182 C 0.21796 0.12696 0.38351 0.0
C2183 C 0.20736 0.22641 0.38482 0.0
C2184 C 0.21075 0.19197 0.38442 0.0
H2185 H 0.17637 1.00031 0.38711 0.0
H2186 H 0.16979 0.05611 0.38779 0.0
H2187 H 0.15806 0.09794 0.38161 0.0
H2188 H 0.16745 0.27084 0.37745 0.0
H2189 H 0.16901 0.21211 0.37723 0.0
C2190 C 0.01057 0.22782 0.37969 0.0
C2191 C 0.04439 0.2345 0.38237 0.0
C2192 C 0.97848 0.1921 0.37997 0.0
C2193 C 0.90975 0.12066 0.38435 0.0
H2194 H 0.91824 0.03124 0.38246 0.0
C2195 C 0.78348 0.97319 0.38874 0.0
C2196 C 0.7773 0.9448 0.38458 0.0
C2197 C 0.81708 0.00764 0.38865 0.0
C2198 C 0.91534 0.05592 0.38296 0.0
H2199 H 0.07137 0.20925 0.38743 0.0
H2200 H 0.01527 0.14699 0.388 0.0
H2201 H 0.97445 0.09328 0.38173 0.0
H2202 H 0.80181 0.92965 0.37718 0.0
H2203 H 0.86056 0.99 0.37698 0.0
H2204 H 0.85063 0.08348 0.38544 0.0
C2205 C 0.01354 0.16912 0.38561 0.0
C2206 C 0.94763 0.09151 0.38261 0.0
C2207 C 0.04561 0.20485 0.38532 0.0
C2208 C 0.80589 0.95103 0.38045 0.0
C2209 C 0.83957 0.98558 0.38035 0.0
C2210 C 0.87752 0.08514 0.3847 0.0
C2211 C 0.97953 0.16228 0.38294 0.0
C2212 C 0.94523 0.12434 0.3833 0.0
C2213 C 0.8453 0.01456 0.38439 0.0
C2214 C 0.87987 0.0523 0.38403 0.0
H2215 H 0.00893 0.25016 0.37736 0.0
H2216 H 0.95294 0.18774 0.3778 0.0
H2217 H 0.90685 0.14527 0.38496 0.0
H2218 H 0.76203 0.96904 0.39201 0.0
H2219 H 0.82083 0.02899 0.3919 0.0
C2220 C 0.84697 0.81741 0.37927 0.0
C2221 C 0.84015 0.84473 0.38183 0.0
C2222 C 0.88271 0.82109 0.37965 0.0
C2223 C 0.95381 0.82417 0.38434 0.0
H2224 H 0.04348 0.92167 0.3823 0.0
C2225 C 0.1011 0.84613 0.38933 0.0
C2226 C 0.12958 0.86736 0.38513 0.0
C2227 C 0.06666 0.84531 0.38909 0.0
C2228 C 0.01873 0.89421 0.38285 0.0
H2229 H 0.86516 0.89739 0.38676 0.0
H2230 H 0.92747 0.90368 0.38749 0.0
H2231 H 0.98148 0.91582 0.38132 0.0
H2232 H 0.14494 0.90537 0.37749 0.0
H2233 H 0.08466 0.9039 0.37704 0.0
H2234 H 0.99091 0.80238 0.38574 0.0
C2235 C 0.90543 0.87962 0.38513 0.0
C2236 C 0.98318 0.89092 0.38235 0.0
C2237 C 0.86969 0.8759 0.38475 0.0
C2238 C 0.12349 0.88884 0.3808 0.0
C2239 C 0.08899 0.88805 0.38056 0.0
C2240 C 0.9893 0.82747 0.38485 0.0
C2241 C 0.91238 0.85221 0.3826 0.0
C2242 C 0.95027 0.85583 0.38309 0.0
C2243 C 0.0599 0.86571 0.38463 0.0
C2244 C 0.02222 0.86253 0.38412 0.0
H2245 H 0.8247 0.79319 0.37697 0.0
H2246 H 0.88719 0.79973 0.37758 0.0
H2247 H 0.92912 0.7968 0.385 0.0
H2248 H 0.10513 0.82948 0.39274 0.0
H2249 H 0.04518 0.82841 0.39237 0.0
C2250 C 0.39564 0.91611 0.79067 0.0
C2251 C 0.36091 0.88596 0.79251 0.0
C2252 C 0.42774 0.91252 0.79055 0.0
C2253 C 0.46034 0.84237 0.79093 0.0
H2254 H 0.5546 0.93047 0.79535 0.0
C2255 C 0.62612 0.89275 0.79706 0.0
C2256 C 0.63417 0.87349 0.7926 0.0
C2257 C 0.59122 0.89081 0.79722 0.0
C2258 C 0.52854 0.90533 0.79418 0.0
H2259 H 0.33222 0.82826 0.79563 0.0
H2260 H 0.38867 0.82224 0.79564 0.0
H2261 H 0.49729 0.93352 0.79546 0.0
H2262 H 0.61193 0.83636 0.78486 0.0
H2263 H 0.55089 0.83378 0.78498 0.0
H2264 H 0.49183 0.81386 0.78989 0.0
C2265 C 0.39106 0.84848 0.79415 0.0
C2266 C 0.49557 0.90731 0.79414 0.0
C2267 C 0.35875 0.85197 0.7942 0.0
C2268 C 0.60624 0.85128 0.78837 0.0
C2269 C 0.57129 0.84978 0.78846 0.0
C2270 C 0.49344 0.84027 0.79104 0.0
C2271 C 0.42608 0.87883 0.79236 0.0
C2272 C 0.46099 0.87598 0.79248 0.0
C2273 C 0.56363 0.87021 0.79282 0.0
C2274 C 0.52802 0.87176 0.79268 0.0
H2275 H 0.39802 0.94251 0.78927 0.0
H2276 H 0.45387 0.93624 0.78899 0.0
H2277 H 0.43435 0.81775 0.78957 0.0
H2278 H 0.64703 0.90966 0.80043 0.0
H2279 H 0.5861 0.90594 0.80076 0.0
C2280 C 0.16813 0.75721 0.79426 0.0
C2281 C 0.1949 0.78906 0.79109 0.0
C2282 C 0.16841 0.72345 0.79397 0.0
C2283 C 0.22687 0.68107 0.79076 0.0
H2284 H 0.12999 0.59046 0.78877 0.0
C2285 C 0.21057 0.53251 0.78838 0.0
C2286 C 0.17996 0.50287 0.79139 0.0
C2287 C 0.21388 0.5681 0.78803 0.0
C2288 C 0.15724 0.61539 0.78939 0.0
H2289 H 0.24346 0.81075 0.78519 0.0
H2290 H 0.24427 0.75124 0.78471 0.0
H2291 H 0.13386 0.65154 0.78866 0.0
H2292 H 0.12907 0.4872 0.79647 0.0
H2293 H 0.13495 0.54931 0.79594 0.0
H2294 H 0.25013 0.64471 0.79159 0.0
C2295 C 0.22305 0.75267 0.78743 0.0
C2296 C 0.15948 0.65046 0.78931 0.0
C2297 C 0.22261 0.78666 0.7877 0.0
C2298 C 0.15283 0.50949 0.79408 0.0
C2299 C 0.15614 0.54505 0.79375 0.0
C2300 C 0.22462 0.64584 0.79087 0.0
C2301 C 0.19552 0.72054 0.7905 0.0
C2302 C 0.19419 0.68369 0.79009 0.0
C2303 C 0.18661 0.57481 0.79069 0.0
C2304 C 0.18965 0.61251 0.79028 0.0
H2305 H 0.1466 0.75822 0.79696 0.0
H2306 H 0.1473 0.69952 0.79648 0.0
H2307 H 0.25398 0.70615 0.79141 0.0
H2308 H 0.23193 0.52815 0.78627 0.0
H2309 H 0.23749 0.59018 0.78559 0.0
C2310 C 0.55748 0.67856 0.79621 0.0
C2311 C 0.56485 0.71216 0.79338 0.0
C2312 C 0.52182 0.64659 0.79579 0.0
C2313 C 0.4533 0.57844 0.79061 0.0
H2314 H 0.36184 0.5839 0.79188 0.0
C2315 C 0.30922 0.45169 0.78474 0.0
C2316 C 0.27998 0.4432 0.78886 0.0
C2317 C 0.34288 0.48593 0.78511 0.0
C2318 C 0.38714 0.58193 0.79154 0.0
H2319 H 0.54083 0.7392 0.78802 0.0
H2320 H 0.47852 0.68325 0.78725 0.0
H2321 H 0.42293 0.64078 0.79326 0.0
H2322 H 0.2623 0.46418 0.79645 0.0
H2323 H 0.3212 0.52408 0.7971 0.0
H2324 H 0.4177 0.51961 0.789 0.0
C2325 C 0.50012 0.68161 0.78983 0.0
C2326 C 0.42211 0.61453 0.79228 0.0
C2327 C 0.53581 0.71356 0.79024 0.0
C2328 C 0.2844 0.4701 0.7932 0.0
C2329 C 0.31808 0.50442 0.79357 0.0
C2330 C 0.41842 0.54594 0.78986 0.0
C2331 C 0.49284 0.64764 0.79254 0.0
C2332 C 0.45557 0.61311 0.79183 0.0
C2333 C 0.34797 0.51238 0.7896 0.0
C2334 C 0.38493 0.54728 0.79031 0.0
H2335 H 0.57938 0.67683 0.79868 0.0
H2336 H 0.51695 0.62101 0.79801 0.0
H2337 H 0.47854 0.57646 0.79016 0.0
H2338 H 0.30643 0.43151 0.78132 0.0
H2339 H 0.36511 0.49152 0.78191 0.0
C2340 C 0.22847 0.47381 0.2929 0.0
C2341 C 0.2049 0.44573 0.28879 0.0
C2342 C 0.22846 0.50784 0.29318 0.0
C2343 C 0.16664 0.54639 0.29001 0.0
H2344 H 0.2571 0.64348 0.29183 0.0
C2345 C 0.21268 0.71246 0.28866 0.0
C2346 C 0.18471 0.71255 0.29231 0.0
C2347 C 0.21684 0.68073 0.2884 0.0
C2348 C 0.23162 0.61655 0.2913 0.0
H2349 H 0.1641 0.4316 0.28159 0.0
H2350 H 0.16413 0.491 0.28207 0.0
H2351 H 0.26215 0.58685 0.29071 0.0
H2352 H 0.13954 0.68007 0.29862 0.0
H2353 H 0.14668 0.62441 0.29818 0.0
H2354 H 0.13609 0.57594 0.29054 0.0
C2355 C 0.18222 0.4866 0.28512 0.0
C2356 C 0.23451 0.58416 0.29071 0.0
C2357 C 0.18237 0.45271 0.28482 0.0
C2358 C 0.16123 0.6806 0.29576 0.0
C2359 C 0.16523 0.64876 0.29548 0.0
C2360 C 0.16375 0.57868 0.29064 0.0
C2361 C 0.20472 0.51423 0.28938 0.0
C2362 C 0.20203 0.54877 0.29002 0.0
C2363 C 0.19294 0.64842 0.29177 0.0
C2364 C 0.19619 0.61412 0.29127 0.0
H2365 H 0.246 0.46904 0.29603 0.0
H2366 H 0.24595 0.52853 0.29653 0.0
H2367 H 0.14107 0.51945 0.28957 0.0
H2368 H 0.23121 0.73683 0.28596 0.0
H2369 H 0.2382 0.68119 0.28546 0.0
C2370 C 0.36419 0.53541 0.28818 0.0
C2371 C 0.36513 0.50666 0.29149 0.0
C2372 C 0.39617 0.57121 0.2878 0.0
C2373 C 0.49983 0.62026 0.28971 0.0
H2374 H 0.49199 0.71044 0.2908 0.0
C2375 C 0.62871 0.76342 0.29447 0.0
C2376 C 0.63437 0.79443 0.29099 0.0
C2377 C 0.59474 0.72961 0.29423 0.0
C2378 C 0.49454 0.68551 0.29041 0.0
H2379 H 0.39994 0.4928 0.29705 0.0
H2380 H 0.4556 0.55526 0.29647 0.0
H2381 H 0.43488 0.64855 0.291 0.0
H2382 H 0.60846 0.81469 0.28461 0.0
H2383 H 0.54819 0.75502 0.28421 0.0
H2384 H 0.55935 0.65699 0.28922 0.0
C2385 C 0.43045 0.55014 0.29407 0.0
C2386 C 0.46185 0.65003 0.29053 0.0
C2387 C 0.39851 0.51438 0.29444 0.0
C2388 C 0.60477 0.79125 0.28736 0.0
C2389 C 0.57037 0.75717 0.28714 0.0
C2390 C 0.53235 0.65557 0.28962 0.0
C2391 C 0.42979 0.57902 0.29072 0.0
C2392 C 0.46416 0.61693 0.29028 0.0
C2393 C 0.56534 0.72576 0.29049 0.0
C2394 C 0.53019 0.68861 0.29007 0.0
H2395 H 0.33876 0.53021 0.28586 0.0
H2396 H 0.3947 0.59259 0.28513 0.0
H2397 H 0.5027 0.5955 0.28935 0.0
H2398 H 0.65084 0.76507 0.29736 0.0
H2399 H 0.59154 0.7063 0.29697 0.0
C2400 C 0.3161 0.91063 0.28696 0.0
C2401 C 0.28243 0.88051 0.28917 0.0
C2402 C 0.34963 0.90968 0.28725 0.0
C2403 C 0.39071 0.84865 0.28862 0.0
H2404 H 0.47573 0.93753 0.29546 0.0
C2405 C 0.53475 0.85759 0.29315 0.0
C2406 C 0.56721 0.89247 0.2921 0.0
C2407 C 0.49904 0.85429 0.29296 0.0
C2408 C 0.45254 0.91266 0.29345 0.0
H2409 H 0.25763 0.82612 0.29353 0.0
H2410 H 0.31607 0.8236 0.2938 0.0
H2411 H 0.41531 0.93468 0.29449 0.0
H2412 H 0.58792 0.95105 0.28996 0.0
H2413 H 0.52606 0.94527 0.28946 0.0
H2414 H 0.42819 0.82698 0.28741 0.0
C2415 C 0.31633 0.84779 0.29179 0.0
C2416 C 0.41782 0.91101 0.29293 0.0
C2417 C 0.28276 0.84898 0.29157 0.0
C2418 C 0.56338 0.92387 0.29084 0.0
C2419 C 0.52782 0.92055 0.29059 0.0
C2420 C 0.42569 0.85047 0.28907 0.0
C2421 C 0.35025 0.8785 0.28974 0.0
C2422 C 0.38662 0.87918 0.29045 0.0
C2423 C 0.49508 0.88577 0.29168 0.0
C2424 C 0.45722 0.88271 0.29144 0.0
H2425 H 0.31672 0.93541 0.28513 0.0
H2426 H 0.37526 0.9336 0.28558 0.0
H2427 H 0.36713 0.82379 0.28668 0.0
H2428 H 0.53695 0.83291 0.29413 0.0
H2429 H 0.47461 0.82716 0.29389 0.0
C2430 C 0.01978 0.83051 0.87729 0.0
C2431 C 0.05124 0.85379 0.88087 0.0
C2432 C 0.98791 0.83461 0.87738 0.0
C2433 C 0.9385 0.87011 0.88689 0.0
H2434 H 0.88439 0.86213 0.87206 0.0
C2435 C 0.80456 0.88449 0.88656 0.0
C2436 C 0.77502 0.85854 0.88289 0.0
C2437 C 0.84031 0.88798 0.88618 0.0
C2438 C 0.89898 0.86414 0.87625 0.0
H2439 H 0.07436 0.89989 0.88729 0.0
H2440 H 0.01867 0.90707 0.88746 0.0
H2441 H 0.94266 0.86001 0.87163 0.0
H2442 H 0.75951 0.81588 0.87596 0.0
H2443 H 0.8212 0.82135 0.87537 0.0
H2444 H 0.89438 0.87341 0.89153 0.0
C2445 C 0.01848 0.88546 0.88462 0.0
C2446 C 0.93241 0.86293 0.876 0.0
C2447 C 0.05042 0.88148 0.8845 0.0
C2448 C 0.78182 0.83626 0.87884 0.0
C2449 C 0.81734 0.83967 0.87846 0.0
C2450 C 0.90493 0.87116 0.88715 0.0
C2451 C 0.98677 0.86198 0.88108 0.0
C2452 C 0.95233 0.86541 0.88132 0.0
C2453 C 0.84709 0.86547 0.88213 0.0
C2454 C 0.88444 0.86763 0.88184 0.0
H2455 H 0.01966 0.80888 0.87446 0.0
H2456 H 0.96381 0.81578 0.87466 0.0
H2457 H 0.95297 0.87175 0.89108 0.0
H2458 H 0.79985 0.90146 0.88981 0.0
H2459 H 0.8626 0.90826 0.88906 0.0
C2460 C 0.19286 0.19906 0.88454 0.0
C2461 C 0.22057 0.22783 0.88096 0.0
C2462 C 0.19011 0.1637 0.8848 0.0
C2463 C 0.24688 0.1179 0.8821 0.0
H2464 H 0.15071 0.02521 0.8824 0.0
C2465 C 0.23703 0.97535 0.87854 0.0
C2466 C 0.21378 0.94578 0.88244 0.0
C2467 C 0.23552 0.00851 0.87847 0.0
C2468 C 0.17774 0.05089 0.88239 0.0
H2469 H 0.26646 0.2421 0.87471 0.0
H2470 H 0.26139 0.18034 0.87507 0.0
H2471 H 0.1525 0.08568 0.88196 0.0
H2472 H 0.17061 0.92759 0.88933 0.0
H2473 H 0.16748 0.98581 0.88915 0.0
H2474 H 0.27217 0.08334 0.88247 0.0
C2475 C 0.24221 0.18515 0.87778 0.0
C2476 C 0.1788 0.08553 0.88214 0.0
C2477 C 0.24499 0.22047 0.87754 0.0
C2478 C 0.18833 0.9497 0.8862 0.0
C2479 C 0.18668 0.98304 0.88611 0.0
C2480 C 0.24581 0.08342 0.88233 0.0
C2481 C 0.21503 0.15643 0.88147 0.0
C2482 C 0.21344 0.11945 0.88192 0.0
C2483 C 0.21076 0.01303 0.88231 0.0
C2484 C 0.21128 0.04949 0.8824 0.0
H2485 H 0.17367 0.20405 0.88723 0.0
H2486 H 0.16908 0.14238 0.88772 0.0
H2487 H 0.27404 0.14343 0.8821 0.0
H2488 H 0.25675 0.973 0.87557 0.0
H2489 H 0.25392 0.03075 0.8754 0.0
C2490 C 0.84877 0.05304 0.87823 0.0
C2491 C 0.84245 0.02159 0.88164 0.0
C2492 C 0.88401 0.08583 0.8783 0.0
C2493 C 0.98485 0.12311 0.88216 0.0
H2494 H 0.98669 0.21843 0.88243 0.0
C2495 C 0.12153 0.26844 0.88569 0.0
C2496 C 0.12506 0.2977 0.88195 0.0
C2497 C 0.08797 0.23362 0.88573 0.0
C2498 C 0.98672 0.19207 0.8823 0.0
H2499 H 0.86803 0.99941 0.88773 0.0
H2500 H 0.92947 0.05684 0.88793 0.0
H2501 H 0.92663 0.16008 0.88229 0.0
H2502 H 0.09671 0.3134 0.87526 0.0
H2503 H 0.03858 0.25312 0.87534 0.0
H2504 H 0.04522 0.1555 0.88222 0.0
C2505 C 0.90743 0.05614 0.88514 0.0
C2506 C 0.95222 0.15855 0.88221 0.0
C2507 C 0.87217 0.02329 0.88505 0.0
C2508 C 0.09473 0.29144 0.87822 0.0
C2509 C 0.06133 0.25692 0.87828 0.0
C2510 C 0.01948 0.15677 0.88228 0.0
C2511 C 0.91372 0.08799 0.88181 0.0
C2512 C 0.95076 0.12359 0.88207 0.0
C2513 C 0.0573 0.22768 0.88208 0.0
C2514 C 0.02079 0.19166 0.88228 0.0
H2515 H 0.8264 0.05242 0.87553 0.0
H2516 H 0.88797 0.1095 0.87559 0.0
H2517 H 0.98484 0.09674 0.88201 0.0
H2518 H 0.1442 0.27276 0.88869 0.0
H2519 H 0.08564 0.21174 0.88875 0.0
C2520 C 0.85603 0.35309 0.71704 0.0
C2521 C 0.88694 0.3544 0.71408 0.0
C2522 C 0.85242 0.38514 0.71738 0.0
C2523 C 0.84199 0.45234 0.71492 0.0
H2524 H 0.93223 0.54731 0.71828 0.0
C2525 C 0.84705 0.59616 0.71434 0.0
C2526 C 0.86991 0.62315 0.71865 0.0
C2527 C 0.84684 0.56206 0.71388 0.0
C2528 C 0.90668 0.52097 0.71739 0.0
H2529 H 0.9378 0.38973 0.70901 0.0
H2530 H 0.93135 0.44574 0.70952 0.0
H2531 H 0.93645 0.4906 0.71711 0.0
H2532 H 0.90903 0.63509 0.72604 0.0
H2533 H 0.90828 0.57543 0.72532 0.0
H2534 H 0.81215 0.48274 0.71533 0.0
C2535 C 0.91018 0.42014 0.71167 0.0
C2536 C 0.90919 0.48852 0.71664 0.0
C2537 C 0.91378 0.38806 0.71134 0.0
C2538 C 0.89136 0.61488 0.72265 0.0
C2539 C 0.89113 0.58082 0.7222 0.0
C2540 C 0.83948 0.48486 0.71567 0.0
C2541 C 0.87966 0.41917 0.71475 0.0
C2542 C 0.87689 0.45379 0.7154 0.0
C2543 C 0.86948 0.55432 0.71773 0.0
C2544 C 0.87179 0.51954 0.71695 0.0
H2545 H 0.83494 0.32744 0.7192 0.0
H2546 H 0.8288 0.38349 0.71984 0.0
H2547 H 0.81661 0.42609 0.71392 0.0
H2548 H 0.83027 0.60188 0.71119 0.0
H2549 H 0.83001 0.54238 0.71037 0.0
C2550 C 0.46836 0.28129 0.7195 0.0
C2551 C 0.43919 0.27752 0.7157 0.0
C2552 C 0.50248 0.31554 0.71978 0.0
C2553 C 0.54075 0.41694 0.71713 0.0
H2554 H 0.63823 0.42343 0.71647 0.0
C2555 C 0.67658 0.55834 0.71326 0.0
C2556 C 0.70927 0.56515 0.71635 0.0
C2557 C 0.64427 0.52276 0.71343 0.0
C2558 C 0.61125 0.42213 0.71674 0.0
H2559 H 0.42302 0.3062 0.70915 0.0
H2560 H 0.48201 0.36553 0.70966 0.0
H2561 H 0.58096 0.36177 0.7164 0.0
H2562 H 0.73396 0.54024 0.72205 0.0
H2563 H 0.67733 0.47825 0.72247 0.0
H2564 H 0.5706 0.47698 0.71751 0.0
C2565 C 0.47866 0.34239 0.71246 0.0
C2566 C 0.57845 0.38676 0.7167 0.0
C2567 C 0.4449 0.3083 0.71215 0.0
C2568 C 0.70909 0.53573 0.71962 0.0
C2569 C 0.67671 0.50014 0.71982 0.0
C2570 C 0.57341 0.45217 0.71721 0.0
C2571 C 0.50773 0.34664 0.71633 0.0
C2572 C 0.54282 0.38382 0.71679 0.0
C2573 C 0.64382 0.49317 0.71673 0.0
C2574 C 0.60913 0.45534 0.71693 0.0
H2575 H 0.46449 0.25822 0.72236 0.0
H2576 H 0.5243 0.31803 0.72283 0.0
H2577 H 0.51373 0.41563 0.71733 0.0
H2578 H 0.67603 0.58044 0.71066 0.0
H2579 H 0.61977 0.51835 0.7109 0.0
C2580 C 0.53886 0.21058 0.71788 0.0
C2581 C 0.51012 0.18276 0.71429 0.0
C2582 C 0.57482 0.21459 0.71794 0.0
C2583 C 0.63781 0.19229 0.70912 0.0
H2584 H 0.68864 0.20425 0.72446 0.0
C2585 C 0.76409 0.16876 0.71136 0.0
C2586 C 0.7936 0.19157 0.71531 0.0
C2587 C 0.73139 0.17124 0.71116 0.0
C2588 C 0.67518 0.20157 0.72013 0.0
H2589 H 0.4964 0.13753 0.70794 0.0
H2590 H 0.55917 0.14449 0.70803 0.0
H2591 H 0.62791 0.20172 0.72424 0.0
H2592 H 0.81178 0.23441 0.72225 0.0
H2593 H 0.75482 0.23963 0.7218 0.0
H2594 H 0.68485 0.19203 0.705 0.0
C2595 C 0.55407 0.16341 0.71076 0.0
C2596 C 0.64028 0.20002 0.72 0.0
C2597 C 0.51807 0.15927 0.71073 0.0
C2598 C 0.78978 0.21704 0.71907 0.0
C2599 C 0.75694 0.21962 0.71887 0.0
C2600 C 0.67272 0.19402 0.70924 0.0
C2601 C 0.58286 0.19102 0.71439 0.0
C2602 C 0.62092 0.1948 0.7145 0.0
C2603 C 0.72727 0.19665 0.71491 0.0
C2604 C 0.69162 0.19806 0.71476 0.0
H2605 H 0.53351 0.22913 0.72066 0.0
H2606 H 0.59643 0.23636 0.72074 0.0
H2607 H 0.62402 0.189 0.70479 0.0
H2608 H 0.76614 0.14869 0.70843 0.0
H2609 H 0.70897 0.15255 0.70814 0.0
C2610 C 0.27206 0.18285 0.12212 0.0
C2611 C 0.30069 0.20771 0.12604 0.0
C2612 C 0.2367 0.18042 0.12217 0.0
C2613 C 0.17651 0.20509 0.13157 0.0
H2614 H 0.12671 0.19899 0.11635 0.0
C2615 C 0.0564 0.23934 0.12959 0.0
C2616 C 0.02569 0.21615 0.12587 0.0
C2617 C 0.08838 0.23541 0.12969 0.0
C2618 C 0.14002 0.20024 0.12064 0.0
H2619 H 0.315 0.24965 0.13305 0.0
H2620 H 0.25405 0.24608 0.13308 0.0
H2621 H 0.185 0.19662 0.11637 0.0
H2622 H 1.0041 0.17053 0.11936 0.0
H2623 H 0.06 0.16366 0.11953 0.0
H2624 H 0.13196 0.20949 0.13583 0.0
C2625 C 0.25826 0.22775 0.13005 0.0
C2626 C 0.17342 0.19879 0.12066 0.0
C2627 C 0.29338 0.23006 0.13 0.0
C2628 C 0.02745 0.18885 0.12227 0.0
C2629 C 0.05952 0.18505 0.12234 0.0
C2630 C 0.14327 0.20673 0.13155 0.0
C2631 C 0.22939 0.20296 0.12614 0.0
C2632 C 0.19238 0.20168 0.12612 0.0
C2633 C 0.09041 0.20831 0.12605 0.0
C2634 C 0.12483 0.20476 0.12608 0.0
H2635 H 0.27717 0.16584 0.11894 0.0
H2636 H 0.2151 0.16087 0.11912 0.0
H2637 H 0.18985 0.2066 0.13588 0.0
H2638 H 0.05582 0.26069 0.1324 0.0
H2639 H 0.11184 0.25409 0.13255 0.0
C2640 C 0.835 0.09073 0.12777 0.0
C2641 C 0.8601 0.12116 0.12417 0.0
C2642 C 0.83518 0.05686 0.12767 0.0
C2643 C 0.89181 0.01293 0.12398 0.0
H2644 H 0.79428 0.92199 0.12326 0.0
C2645 C 0.87487 0.86412 0.12175 0.0
C2646 C 0.84555 0.83493 0.12505 0.0
C2647 C 0.87792 0.89961 0.12142 0.0
C2648 C 0.82175 0.94702 0.12354 0.0
H2649 H 0.9053 0.14007 0.11763 0.0
H2650 H 0.90614 0.08062 0.11752 0.0
H2651 H 0.79807 0.98302 0.12308 0.0
H2652 H 0.79678 0.81998 0.13065 0.0
H2653 H 0.80234 0.88194 0.13018 0.0
H2654 H 0.91545 0.97679 0.12454 0.0
C2655 C 0.88641 0.08323 0.12045 0.0
C2656 C 0.82392 0.98206 0.12342 0.0
C2657 C 0.88605 0.11728 0.12053 0.0
C2658 C 0.81951 0.84192 0.12805 0.0
C2659 C 0.82261 0.8774 0.12773 0.0
C2660 C 0.88964 0.97775 0.12414 0.0
C2661 C 0.86052 0.05246 0.12396 0.0
C2662 C 0.85891 0.01544 0.12371 0.0
C2663 C 0.85175 0.9067 0.12439 0.0
C2664 C 0.85451 0.94431 0.12399 0.0
H2665 H 0.81483 0.09293 0.13066 0.0
H2666 H 0.81536 0.034 0.13051 0.0
H2667 H 0.91916 0.03814 0.12426 0.0
H2668 H 0.89535 0.85947 0.11939 0.0
H2669 H 0.90045 0.92129 0.11875 0.0
C2670 C 0.20245 0.04594 0.12382 0.0
C2671 C 0.23218 0.04452 0.12672 0.0
C2672 C 0.16682 0.01386 0.12348 0.0
C2673 C 0.0894 0.94648 0.12601 0.0
H2674 H 0.08455 0.8517 0.12242 0.0
C2675 C 0.95105 0.80247 0.12682 0.0
C2676 C 0.94643 0.77562 0.12245 0.0
C2677 C 0.98493 0.8366 0.12722 0.0
C2678 C 0.08537 0.87799 0.12337 0.0
H2679 H 0.24801 0.00896 0.13166 0.0
H2680 H 0.18564 0.9529 0.13113 0.0
H2681 H 0.14552 0.90845 0.1235 0.0
H2682 H 0.97271 0.76392 0.1149 0.0
H2683 H 0.03164 0.82364 0.11552 0.0
H2684 H 0.02912 0.91597 0.12576 0.0
C2685 C 0.18992 0.97861 0.12904 0.0
C2686 C 0.12036 0.91045 0.12408 0.0
C2687 C 0.22556 0.01072 0.12937 0.0
C2688 C 0.97566 0.78404 0.11834 0.0
C2689 C 0.00948 0.81812 0.11873 0.0
C2690 C 0.05433 0.91393 0.12531 0.0
C2691 C 0.16021 0.9797 0.12603 0.0
C2692 C 0.12283 0.94511 0.1254 0.0
C2693 C 0.01481 0.8445 0.12325 0.0
C2694 C 0.05193 0.87932 0.12396 0.0
H2695 H 0.20686 0.07171 0.12174 0.0
H2696 H 0.14471 0.01559 0.12108 0.0
H2697 H 0.09031 0.97267 0.12708 0.0
H2698 H 0.92894 0.79663 0.13006 0.0
H2699 H 0.98818 0.85619 0.13078 0.0
C2700 C 0.84564 0.78227 0.61932 0.0
C2701 C 0.86833 0.77529 0.62325 0.0
C2702 C 0.8461 0.8165 0.61953 0.0
C2703 C 0.90019 0.91477 0.625 0.0
H2704 H 0.80288 0.90883 0.6243 0.0
C2705 C 0.8282 0.01358 0.62928 0.0
C2706 C 0.85339 0.04594 0.62606 0.0
C2707 C 0.83169 0.98141 0.6291 0.0
C2708 C 0.83026 0.91099 0.62455 0.0
H2709 H 0.9102 0.79896 0.63037 0.0
H2710 H 0.91103 0.85892 0.63077 0.0
H2711 H 0.80654 0.8516 0.62354 0.0
H2712 H 0.90244 0.07051 0.62023 0.0
H2713 H 0.90844 0.01423 0.61988 0.0
H2714 H 0.92379 0.97424 0.6261 0.0
C2715 C 0.89303 0.83802 0.62748 0.0
C2716 C 0.83241 0.87821 0.62404 0.0
C2717 C 0.89252 0.80368 0.62727 0.0
C2718 C 0.8826 0.04587 0.62275 0.0
C2719 C 0.88616 0.01373 0.62258 0.0
C2720 C 0.89804 0.94765 0.62549 0.0
C2721 C 0.86927 0.84453 0.6237 0.0
C2722 C 0.86738 0.87968 0.62423 0.0
C2723 C 0.8605 0.98097 0.62571 0.0
C2724 C 0.86302 0.94612 0.62528 0.0
H2725 H 0.82692 0.76096 0.61614 0.0
H2726 H 0.82801 0.82088 0.61647 0.0
H2727 H 0.92757 0.91688 0.62513 0.0
H2728 H 0.80552 0.01297 0.63188 0.0
H2729 H 0.81179 0.95684 0.63163 0.0
C2730 C 0.28736 0.09762 0.61791 0.0
C2731 C 0.29483 0.12578 0.62219 0.0
C2732 C 0.25373 0.06328 0.61812 0.0
C2733 C 0.15725 0.01478 0.62447 0.0
H2734 H 0.1658 0.92573 0.62206 0.0
C2735 C 0.06365 0.84299 0.6278 0.0
C2736 C 0.02939 0.836 0.62526 0.0
C2737 C 0.09546 0.87884 0.62745 0.0
C2738 C 0.16293 0.95027 0.62279 0.0
H2739 H 0.2725 0.14083 0.62992 0.0
H2740 H 0.21363 0.08059 0.63032 0.0
H2741 H 0.22168 0.98767 0.62137 0.0
H2742 H 1.00126 0.86081 0.6204 0.0
H2743 H 0.05689 0.92335 0.61973 0.0
H2744 H 0.09851 0.97718 0.62601 0.0
C2745 C 0.23369 0.08511 0.62677 0.0
C2746 C 0.19491 0.98584 0.62232 0.0
C2747 C 0.26741 0.11956 0.62656 0.0
C2748 C 0.0274 0.86547 0.62239 0.0
C2749 C 0.05918 0.90134 0.62205 0.0
C2750 C 0.12518 0.97913 0.62493 0.0
C2751 C 0.2268 0.05629 0.62263 0.0
C2752 C 0.19249 0.01855 0.62313 0.0
C2753 C 0.09363 0.90845 0.62456 0.0
C2754 C 0.12765 0.94644 0.6241 0.0
H2755 H 0.30789 0.1018 0.61446 0.0
H2756 H 0.249 0.04202 0.61478 0.0
H2757 H 0.15437 0.0394 0.62508 0.0
H2758 H 0.06587 0.82077 0.63006 0.0
H2759 H 0.12141 0.88346 0.62951 0.0
C2760 C 0.22605 0.2493 0.62887 0.0
C2761 C 0.23415 0.22523 0.62549 0.0
C2762 C 0.18987 0.24469 0.62879 0.0
C2763 C 0.10229 0.20449 0.61984 0.0
H2764 H 0.05863 0.2125 0.63494 0.0
C2765 C 0.95126 0.18371 0.62118 0.0
C2766 C 0.94744 0.20936 0.6249 0.0
C2767 C 0.98452 0.18183 0.62131 0.0
C2768 C 0.07047 0.21048 0.63067 0.0
H2769 H 0.21097 0.17764 0.61936 0.0
H2770 H 0.14777 0.1697 0.61919 0.0
H2771 H 0.12045 0.21777 0.63498 0.0
H2772 H 0.9752 0.25312 0.63164 0.0
H2773 H 0.03295 0.25045 0.6318 0.0
H2774 H 0.05263 0.19805 0.61551 0.0
C2775 C 0.16937 0.19221 0.62188 0.0
C2776 C 0.10596 0.21352 0.6307 0.0
C2777 C 0.20551 0.19667 0.622 0.0
C2778 C 0.97725 0.23291 0.62874 0.0
C2779 C 0.01031 0.23112 0.62887 0.0
C2780 C 0.06681 0.20169 0.6198 0.0
C2781 C 0.16106 0.21603 0.62531 0.0
C2782 C 0.12253 0.21106 0.62528 0.0
C2783 C 0.01453 0.20566 0.62516 0.0
C2784 C 0.05068 0.20521 0.62521 0.0
H2785 H 0.24763 0.27158 0.6316 0.0
H2786 H 0.18452 0.26381 0.63142 0.0
H2787 H 0.11438 0.2027 0.61558 0.0
H2788 H 0.92902 0.16578 0.61808 0.0
H2789 H 0.98672 0.16177 0.6184 0.0
C2790 C 0.47664 0.22424 0.21445 0.0
C2791 C 0.44517 0.19001 0.21616 0.0
C2792 C 0.51188 0.22692 0.21374 0.0
C2793 C 0.5544 0.16979 0.21008 0.0
H2794 H 0.64231 0.24247 0.21899 0.0
C2795 C 0.68306 0.15122 0.21295 0.0
C2796 C 0.71906 0.1831 0.21315 0.0
C2797 C 0.65109 0.15502 0.21287 0.0
C2798 C 0.61828 0.22243 0.21638 0.0
H2799 H 0.4256 0.1317 0.2184 0.0
H2800 H 0.48662 0.13615 0.21704 0.0
H2801 H 0.58393 0.24474 0.21958 0.0
H2802 H 0.75017 0.24399 0.21335 0.0
H2803 H 0.69427 0.25081 0.21303 0.0
H2804 H 0.58826 0.14751 0.20681 0.0
C2805 C 0.48427 0.16098 0.2163 0.0
C2806 C 0.58486 0.22373 0.21673 0.0
C2807 C 0.4494 0.15851 0.21709 0.0
C2808 C 0.72263 0.21894 0.21321 0.0
C2809 C 0.6906 0.22279 0.21306 0.0
C2810 C 0.58782 0.16878 0.20965 0.0
C2811 C 0.51582 0.19513 0.2146 0.0
C2812 C 0.55241 0.19685 0.2137 0.0
C2813 C 0.65437 0.19084 0.21291 0.0
C2814 C 0.61997 0.19447 0.21291 0.0
H2815 H 0.47391 0.2486 0.21353 0.0
H2816 H 0.53579 0.25349 0.21238 0.0
H2817 H 0.52987 0.14907 0.20762 0.0
H2818 H 0.67954 0.12325 0.21295 0.0
H2819 H 0.62376 0.12972 0.21289 0.0
C2820 C 0.86321 0.5328 0.21789 0.0
C2821 C 0.8917 0.56208 0.21449 0.0
C2822 C 0.86033 0.49735 0.21809 0.0
C2823 C 0.91734 0.45145 0.21553 0.0
H2824 H 0.82093 0.35902 0.21526 0.0
C2825 C 0.90717 0.30911 0.21136 0.0
C2826 C 0.88301 0.27866 0.21504 0.0
C2827 C 0.90607 0.3425 0.21146 0.0
C2828 C 0.84803 0.38461 0.21541 0.0
H2829 H 0.93893 0.57713 0.2085 0.0
H2830 H 0.93366 0.51527 0.20875 0.0
H2831 H 0.8231 0.4197 0.21501 0.0
H2832 H 0.83844 0.2591 0.22171 0.0
H2833 H 0.83612 0.3178 0.22185 0.0
H2834 H 0.94231 0.41658 0.21586 0.0
C2835 C 0.91393 0.51972 0.21138 0.0
C2836 C 0.84931 0.41939 0.21526 0.0
C2837 C 0.91683 0.55512 0.2112 0.0
C2838 C 0.85708 0.28201 0.21877 0.0
C2839 C 0.85582 0.31558 0.21885 0.0
C2840 C 0.91606 0.41683 0.21565 0.0
C2841 C 0.88591 0.49045 0.21488 0.0
C2842 C 0.88405 0.45327 0.21525 0.0
C2843 C 0.88076 0.3464 0.21526 0.0
C2844 C 0.88145 0.38298 0.21551 0.0
H2845 H 0.84345 0.53744 0.22048 0.0
H2846 H 0.83862 0.47563 0.22087 0.0
H2847 H 0.94456 0.47688 0.21568 0.0
H2848 H 0.92728 0.30728 0.2084 0.0
H2849 H 0.92515 0.36539 0.20855 0.0
C2850 C 0.51826 0.39122 0.21197 0.0
C2851 C 0.51013 0.36035 0.21568 0.0
C2852 C 0.55374 0.42363 0.21217 0.0
C2853 C 0.65279 0.4591 0.21673 0.0
H2854 H 0.65799 0.5559 0.21589 0.0
C2855 C 0.792 0.60327 0.21947 0.0
C2856 C 0.79622 0.63175 0.21547 0.0
C2857 C 0.75797 0.56892 0.21967 0.0
C2858 C 0.65709 0.5291 0.21608 0.0
H2859 H 0.53264 0.33885 0.22247 0.0
H2860 H 0.59461 0.39566 0.22287 0.0
H2861 H 0.59696 0.49865 0.21593 0.0
H2862 H 0.76885 0.64639 0.20846 0.0
H2863 H 0.71003 0.58689 0.20879 0.0
H2864 H 0.7132 0.4899 0.21687 0.0
C2865 C 0.57373 0.39476 0.21976 0.0
C2866 C 0.62205 0.49624 0.21609 0.0
C2867 C 0.53819 0.36233 0.21957 0.0
C2868 C 0.76629 0.62506 0.21162 0.0
C2869 C 0.73249 0.59101 0.21183 0.0
C2870 C 0.68799 0.49211 0.21673 0.0
C2871 C 0.58189 0.4259 0.21608 0.0
C2872 C 0.61941 0.46079 0.21634 0.0
C2873 C 0.72761 0.56271 0.21592 0.0
C2874 C 0.69051 0.52748 0.21631 0.0
H2875 H 0.49721 0.39035 0.20891 0.0
H2876 H 0.55921 0.44681 0.2092 0.0
H2877 H 0.65179 0.43225 0.21688 0.0
H2878 H 0.81448 0.60791 0.22254 0.0
H2879 H 0.75503 0.54774 0.2229 0.0
C2880 C 0.52207 0.38764 0.05433 0.0
C2881 C 0.54932 0.41517 0.05053 0.0
C2882 C 0.51642 0.35113 0.05438 0.0
C2883 C 0.55992 0.29406 0.05021 0.0
H2884 H 0.45658 0.21214 0.04993 0.0
C2885 C 0.52098 0.14044 0.04527 0.0
C2886 C 0.49122 0.11187 0.04857 0.0
C2887 C 0.52888 0.17767 0.04571 0.0
C2888 C 0.4856 0.23461 0.0501 0.0
H2889 H 0.59275 0.4266 0.04392 0.0
H2890 H 0.58287 0.36267 0.04398 0.0
H2891 H 0.46954 0.27678 0.05044 0.0
H2892 H 0.44648 0.09956 0.05496 0.0
H2893 H 0.46036 0.16464 0.05579 0.0
H2894 H 0.57597 0.25182 0.04986 0.0
C2895 C 0.566 0.36932 0.04696 0.0
C2896 C 0.49305 0.27172 0.05038 0.0
C2897 C 0.57157 0.40587 0.0469 0.0
C2898 C 0.46941 0.12108 0.05233 0.0
C2899 C 0.47734 0.15833 0.05278 0.0
C2900 C 0.55247 0.25689 0.04994 0.0
C2901 C 0.53795 0.34137 0.05063 0.0
C2902 C 0.53028 0.30191 0.05043 0.0
C2903 C 0.50715 0.18711 0.04947 0.0
C2904 C 0.5152 0.22669 0.04987 0.0
H2905 H 0.50459 0.3941 0.05719 0.0
H2906 H 0.49502 0.33046 0.05734 0.0
H2907 H 0.58891 0.31664 0.05032 0.0
H2908 H 0.53786 0.13394 0.04228 0.0
H2909 H 0.55162 0.19893 0.04302 0.0
C2910 C 0.9565 0.37803 0.04769 0.0
C2911 C 0.96432 0.41527 0.04829 0.0
C2912 C 0.91944 0.34816 0.04814 0.0
C2913 C 0.82026 0.32811 0.04747 0.0
H2914 H 0.79857 0.23261 0.05438 0.0
C2915 C 0.68509 0.17632 0.0555 0.0
C2916 C 0.66031 0.1708 0.05072 0.0
C2917 C 0.7218 0.2069 0.05545 0.0
C2918 C 0.804 0.25923 0.05251 0.0
H2919 H 0.94033 0.45028 0.0503 0.0
H2920 H 0.87607 0.39884 0.05119 0.0
H2921 H 0.86321 0.28416 0.05402 0.0
H2922 H 0.65408 0.19285 0.04216 0.0
H2923 H 0.71833 0.24552 0.04194 0.0
H2924 H 0.761 0.30379 0.04619 0.0
C2925 C 0.89795 0.39239 0.05009 0.0
C2926 C 0.84126 0.28868 0.05221 0.0
C2927 C 0.93482 0.42207 0.04955 0.0
C2928 C 0.67259 0.19665 0.04593 0.0
C2929 C 0.70942 0.22696 0.04583 0.0
C2930 C 0.78301 0.29885 0.04784 0.0
C2931 C 0.8896 0.35499 0.0493 0.0
C2932 C 0.84992 0.32351 0.04967 0.0
C2933 C 0.73466 0.23236 0.05056 0.0
C2934 C 0.77434 0.26392 0.05034 0.0
H2935 H 0.97892 0.37207 0.04675 0.0
H2936 H 0.91418 0.31982 0.04745 0.0
H2937 H 0.82575 0.35426 0.04539 0.0
H2938 H 0.6762 0.1568 0.05927 0.0
H2939 H 0.74009 0.21051 0.05923 0.0
C2940 C 0.87565 0.50847 0.04632 0.0
C2941 C 0.90565 0.52825 0.05036 0.0
C2942 C 0.84449 0.51372 0.04641 0.0
C2943 C 0.81747 0.5834 0.05067 0.0
H2944 H 0.71543 0.50016 0.04906 0.0
C2945 C 0.6892 0.60543 0.05196 0.0
C2946 C 0.65927 0.58434 0.04798 0.0
C2947 C 0.7185 0.59756 0.05257 0.0
C2948 C 0.74377 0.52378 0.04945 0.0
H2949 H 0.92644 0.56838 0.05775 0.0
H2950 H 0.87203 0.57769 0.0579 0.0
H2951 H 0.7677 0.48781 0.04958 0.0
H2952 H 0.63649 0.53892 0.04145 0.0
H2953 H 0.68791 0.52552 0.0424 0.0
H2954 H 0.79386 0.61949 0.0504 0.0
C2955 C 0.87267 0.5583 0.05464 0.0
C2956 C 0.7737 0.51666 0.04976 0.0
C2957 C 0.90368 0.55282 0.05458 0.0
C2958 C 0.65909 0.5553 0.0446 0.0
C2959 C 0.6885 0.54757 0.04517 0.0
C2960 C 0.7876 0.59055 0.05031 0.0
C2961 C 0.84289 0.53908 0.05052 0.0
C2962 C 0.81089 0.5464 0.05036 0.0
C2963 C 0.71864 0.56863 0.04916 0.0
C2964 C 0.75035 0.56086 0.04968 0.0
H2965 H 0.87652 0.48936 0.04303 0.0
H2966 H 0.82216 0.49874 0.04315 0.0
H2967 H 0.84586 0.60697 0.05104 0.0
H2968 H 0.68974 0.62774 0.05466 0.0
H2969 H 0.74087 0.61395 0.05575 0.0
C2970 C 0.41074 0.567 0.46114 0.0
C2971 C 0.41771 0.54157 0.45793 0.0
C2972 C 0.37442 0.56214 0.46132 0.0
C2973 C 0.28315 0.51566 0.45325 0.0
H2974 H 0.24252 0.52578 0.46853 0.0
C2975 C 0.12542 0.46714 0.45617 0.0
C2976 C 0.11596 0.48935 0.45977 0.0
C2977 C 0.16262 0.47459 0.45591 0.0
C2978 C 0.25355 0.52334 0.4642 0.0
H2979 H 0.39247 0.49133 0.45237 0.0
H2980 H 0.32925 0.48285 0.45267 0.0
H2981 H 0.30701 0.5378 0.46808 0.0
H2982 H 0.13748 0.53597 0.46606 0.0
H2983 H 0.2026 0.54985 0.4655 0.0
H2984 H 0.22987 0.50135 0.44935 0.0
C2985 C 0.35173 0.5067 0.45501 0.0
C2986 C 0.29056 0.53023 0.46395 0.0
C2987 C 0.3879 0.51143 0.45487 0.0
C2988 C 0.14419 0.51887 0.46316 0.0
C2989 C 0.18141 0.52645 0.4629 0.0
C2990 C 0.24623 0.50896 0.45349 0.0
C2991 C 0.34449 0.5319 0.45825 0.0
C2992 C 0.3057 0.52618 0.45848 0.0
C2993 C 0.19116 0.50444 0.45926 0.0
C2994 C 0.23082 0.51243 0.45898 0.0
H2995 H 0.43328 0.5905 0.46353 0.0
H2996 H 0.36983 0.58223 0.46381 0.0
H2997 H 0.29415 0.51286 0.44894 0.0
H2998 H 0.10413 0.44414 0.45351 0.0
H2999 H 0.1689 0.45665 0.45314 0.0
C3000 C 0.56273 0.66281 0.45727 0.0
C3001 C 0.58291 0.65769 0.46194 0.0
C3002 C 0.5559 0.69283 0.45741 0.0
C3003 C 0.58733 0.78541 0.4649 0.0
H3004 H 0.49805 0.77483 0.45699 0.0
C3005 C 0.53596 0.89513 0.46554 0.0
C3006 C 0.53507 0.90895 0.45976 0.0
C3007 C 0.54105 0.86405 0.46618 0.0
C3008 C 0.52305 0.77806 0.45922 0.0
H3009 H 0.61111 0.67935 0.47051 0.0
H3010 H 0.59768 0.7311 0.47094 0.0
H3011 H 0.50703 0.72061 0.45775 0.0
H3012 H 0.53801 0.90095 0.45012 0.0
H3013 H 0.54535 0.84547 0.45124 0.0
H3014 H 0.60225 0.84282 0.46653 0.0
C3015 C 0.58814 0.71265 0.46704 0.0
C3016 C 0.52848 0.74714 0.45962 0.0
C3017 C 0.59565 0.68287 0.46683 0.0
C3018 C 0.53864 0.89081 0.45462 0.0
C3019 C 0.54277 0.85916 0.45526 0.0
C3020 C 0.58138 0.81613 0.46462 0.0
C3021 C 0.56829 0.71818 0.46231 0.0
C3022 C 0.5611 0.75049 0.46235 0.0
C3023 C 0.54434 0.84577 0.46104 0.0
C3024 C 0.54953 0.81281 0.46168 0.0
H3025 H 0.55283 0.64404 0.4534 0.0
H3026 H 0.54148 0.69644 0.45359 0.0
H3027 H 0.61303 0.78948 0.46696 0.0
H3028 H 0.53341 0.90877 0.46957 0.0
H3029 H 0.54209 0.85406 0.47068 0.0
C3030 C 0.38895 0.95019 0.46554 0.0
C3031 C 0.42209 0.95964 0.46235 0.0
C3032 C 0.35912 0.91295 0.46559 0.0
C3033 C 0.33603 0.81469 0.46243 0.0
H3034 H 0.23533 0.79753 0.45966 0.0
C3035 C 0.17981 0.68813 0.45447 0.0
C3036 C 0.17665 0.65859 0.45808 0.0
C3037 C 0.21022 0.72456 0.45521 0.0
C3038 C 0.26333 0.80185 0.46039 0.0
H3039 H 0.45061 0.93765 0.45687 0.0
H3040 H 0.39892 0.87325 0.45691 0.0
H3041 H 0.28749 0.86162 0.46086 0.0
H3042 H 0.20292 0.64355 0.46522 0.0
H3043 H 0.25587 0.70712 0.46657 0.0
H3044 H 0.31215 0.75508 0.46177 0.0
C3045 C 0.39579 0.89417 0.45942 0.0
C3046 C 0.29314 0.83857 0.46117 0.0
C3047 C 0.42538 0.9312 0.45937 0.0
C3048 C 0.20482 0.66584 0.46235 0.0
C3049 C 0.23518 0.70225 0.46311 0.0
C3050 C 0.30625 0.77801 0.46165 0.0
C3051 C 0.36211 0.8846 0.46247 0.0
C3052 C 0.32992 0.84545 0.46213 0.0
C3053 C 0.23802 0.73215 0.4596 0.0
C3054 C 0.26959 0.77115 0.46056 0.0
H3055 H 0.38578 0.97163 0.46788 0.0
H3056 H 0.33368 0.90639 0.46803 0.0
H3057 H 0.36395 0.81896 0.46323 0.0
H3058 H 0.15844 0.68325 0.45114 0.0
H3059 H 0.21189 0.74679 0.45236 0.0
C3060 C 0.50195 0.66489 0.96005 0.0
C3061 C 0.52543 0.65693 0.95648 0.0
C3062 C 0.5069 0.70116 0.96016 0.0
C3063 C 0.55163 0.79221 0.95192 0.0
H3064 H 0.54705 0.83258 0.96758 0.0
C3065 C 0.6039 0.95031 0.95574 0.0
C3066 C 0.58208 0.95936 0.95952 0.0
C3067 C 0.59583 0.91304 0.9552 0.0
C3068 C 0.54798 0.82161 0.96316 0.0
H3069 H 0.57188 0.68021 0.95013 0.0
H3070 H 0.5808 0.7436 0.95035 0.0
H3071 H 0.53407 0.76799 0.96683 0.0
H3072 H 0.53526 0.93698 0.96578 0.0
H3073 H 0.52069 0.87185 0.9648 0.0
H3074 H 0.56587 0.84604 0.94826 0.0
C3075 C 0.55829 0.72186 0.95302 0.0
C3076 C 0.54048 0.78453 0.96273 0.0
C3077 C 0.5533 0.68559 0.9529 0.0
C3078 C 0.55224 0.93064 0.96279 0.0
C3079 C 0.54417 0.89342 0.96226 0.0
C3080 C 0.55917 0.82934 0.95235 0.0
C3081 C 0.53546 0.73023 0.95671 0.0
C3082 C 0.5423 0.76937 0.95711 0.0
C3083 C 0.56588 0.88413 0.95847 0.0
C3084 C 0.55752 0.84453 0.95798 0.0
H3085 H 0.48015 0.64323 0.96283 0.0
H3086 H 0.48845 0.70648 0.96298 0.0
H3087 H 0.5528 0.78128 0.94751 0.0
H3088 H 0.62705 0.97199 0.95316 0.0
H3089 H 0.61337 0.90694 0.9523 0.0
C3090 C 0.13824 0.65297 0.96231 0.0
C3091 C 0.10959 0.65371 0.95895 0.0
C3092 C 0.1754 0.68249 0.96188 0.0
C3093 C 0.23181 0.78252 0.95742 0.0
H3094 H 0.31447 0.76211 0.95734 0.0
C3095 C 0.38473 0.89973 0.95322 0.0
C3096 C 0.41239 0.90026 0.95703 0.0
C3097 C 0.34826 0.86877 0.95318 0.0
C3098 C 0.29171 0.76829 0.95741 0.0
H3099 H 0.09708 0.68558 0.95248 0.0
H3100 H 0.16203 0.73712 0.95168 0.0
H3101 H 0.2498 0.70995 0.95779 0.0
H3102 H 0.42404 0.86862 0.96368 0.0
H3103 H 0.3602 0.81442 0.96363 0.0
H3104 H 0.27366 0.84082 0.95705 0.0
C3105 C 0.15584 0.71402 0.95472 0.0
C3106 C 0.25462 0.7384 0.95767 0.0
C3107 C 0.11866 0.6845 0.95516 0.0
C3108 C 0.40322 0.86887 0.96069 0.0
C3109 C 0.36672 0.83781 0.96064 0.0
C3110 C 0.26885 0.81237 0.95714 0.0
C3111 C 0.18469 0.71342 0.95808 0.0
C3112 C 0.22419 0.74514 0.9577 0.0
C3113 C 0.33866 0.83762 0.95695 0.0
C3114 C 0.29927 0.80565 0.95714 0.0
H3115 H 0.13185 0.62982 0.96534 0.0
H3116 H 0.19672 0.68136 0.96462 0.0
H3117 H 0.20914 0.78883 0.95754 0.0
H3118 H 0.39109 0.92354 0.95034 0.0
H3119 H 0.32752 0.8693 0.95021 0.0
C3120 C 0.20076 0.56782 0.96008 0.0
C3121 C 0.16933 0.54442 0.95651 0.0
C3122 C 0.23227 0.56311 0.96012 0.0
C3123 C 0.27892 0.51946 0.95166 0.0
H3124 H 0.32408 0.52277 0.96725 0.0
C3125 C 0.38469 0.46674 0.95511 0.0
C3126 C 0.41566 0.48825 0.95889 0.0
C3127 C 0.3555 0.47491 0.95467 0.0
C3128 C 0.31212 0.5222 0.96285 0.0
H3129 H 0.14631 0.4984 0.95008 0.0
H3130 H 0.20108 0.48991 0.95018 0.0
H3131 H 0.27234 0.53571 0.96664 0.0
H3132 H 0.44024 0.53454 0.96526 0.0
H3133 H 0.38971 0.54932 0.96442 0.0
H3134 H 0.31856 0.50561 0.94788 0.0
C3135 C 0.20172 0.51217 0.9529 0.0
C3136 C 0.28247 0.52969 0.9625 0.0
C3137 C 0.17026 0.51689 0.95286 0.0
C3138 C 0.41688 0.51785 0.96225 0.0
C3139 C 0.38773 0.52602 0.96182 0.0
C3140 C 0.30858 0.51195 0.95201 0.0
C3141 C 0.23293 0.5349 0.95659 0.0
C3142 C 0.2654 0.52828 0.95691 0.0
C3143 C 0.35667 0.50465 0.95802 0.0
C3144 C 0.32545 0.51311 0.95762 0.0
H3145 H 0.20078 0.58936 0.96292 0.0
H3146 H 0.25606 0.58148 0.96294 0.0
H3147 H 0.26675 0.51864 0.94727 0.0
H3148 H 0.38315 0.44376 0.95247 0.0
H3149 H 0.33178 0.4576 0.95176 0.0
C3150 C 0.67905 0.54019 0.55402 0.0
C3151 C 0.65654 0.52986 0.5488 0.0
C3152 C 0.71545 0.5455 0.55378 0.0
C3153 C 0.79479 0.57335 0.54372 0.0
H3154 H 0.82744 0.52357 0.55513 0.0
C3155 C 0.95097 0.61428 0.54759 0.0
C3156 C 0.95809 0.58425 0.5472 0.0
C3157 C 0.91394 0.60744 0.54765 0.0
C3158 C 0.81864 0.53762 0.55192 0.0
H3159 H 0.65415 0.51698 0.53923 0.0
H3160 H 0.71843 0.52733 0.53878 0.0
H3161 H 0.76251 0.51122 0.55548 0.0
H3162 H 0.93238 0.52381 0.54675 0.0
H3163 H 0.86768 0.51165 0.54701 0.0
H3164 H 0.85118 0.60037 0.54025 0.0
C3165 C 0.70769 0.53092 0.54306 0.0
C3166 C 0.78164 0.53068 0.55213 0.0
C3167 C 0.67096 0.52484 0.54333 0.0
C3168 C 0.92764 0.54736 0.54697 0.0
C3169 C 0.89067 0.54044 0.54717 0.0
C3170 C 0.83202 0.58088 0.54359 0.0
C3171 C 0.73025 0.54132 0.54829 0.0
C3172 C 0.76934 0.54836 0.54802 0.0
C3173 C 0.88347 0.57042 0.54748 0.0
C3174 C 0.84422 0.56295 0.54767 0.0
H3175 H 0.66855 0.54422 0.55829 0.0
H3176 H 0.73236 0.55369 0.55787 0.0
H3177 H 0.78602 0.58752 0.54053 0.0
H3178 H 0.97401 0.64302 0.54779 0.0
H3179 H 0.90908 0.63102 0.54794 0.0
C3180 C 0.55549 0.1897 0.54388 0.0
C3181 C 0.53546 0.16229 0.5483 0.0
C3182 C 0.55007 0.2206 0.5432 0.0
C3183 C 0.51873 0.27735 0.55158 0.0
H3184 H 0.50563 0.30993 0.53572 0.0
C3185 C 0.52063 0.41678 0.54834 0.0
C3186 C 0.49129 0.41575 0.5449 0.0
C3187 C 0.5267 0.38626 0.54836 0.0
C3188 C 0.50911 0.30102 0.54017 0.0
H3189 H 0.49424 0.14557 0.55549 0.0
H3190 H 0.48512 0.19966 0.55437 0.0
H3191 H 0.51482 0.25549 0.5366 0.0
H3192 H 0.44626 0.38265 0.5386 0.0
H3193 H 0.45705 0.32889 0.5386 0.0
H3194 H 0.51302 0.32263 0.55517 0.0
C3195 C 0.50501 0.19739 0.55143 0.0
C3196 C 0.51469 0.27012 0.54067 0.0
C3197 C 0.51015 0.16638 0.55206 0.0
C3198 C 0.469 0.38409 0.54129 0.0
C3199 C 0.47525 0.35345 0.54129 0.0
C3200 C 0.51356 0.30837 0.55108 0.0
C3201 C 0.52483 0.22482 0.54699 0.0
C3202 C 0.51945 0.2579 0.54639 0.0
C3203 C 0.50371 0.35397 0.54492 0.0
C3204 C 0.50872 0.32061 0.54537 0.0
H3205 H 0.57511 0.18712 0.54091 0.0
H3206 H 0.56598 0.24146 0.53978 0.0
H3207 H 0.52259 0.26881 0.55604 0.0
H3208 H 0.53855 0.44093 0.55112 0.0
H3209 H 0.54927 0.3878 0.55112 0.0
C3210 C 0.88645 0.39649 0.54268 0.0
C3211 C 0.89954 0.41353 0.54835 0.0
C3212 C 0.8561 0.35992 0.54228 0.0
C3213 C 0.77035 0.29304 0.54924 0.0
H3214 H 0.7851 0.21488 0.54214 0.0
C3215 C 0.65593 0.13815 0.55076 0.0
C3216 C 0.65209 0.1133 0.54609 0.0
C3217 C 0.68591 0.1749 0.5508 0.0
C3218 C 0.7802 0.23641 0.54402 0.0
H3219 H 0.891 0.40643 0.55805 0.0
H3220 H 0.83648 0.34249 0.55733 0.0
H3221 H 0.83777 0.27928 0.54271 0.0
H3222 H 0.67597 0.10733 0.53772 0.0
H3223 H 0.72783 0.17253 0.53758 0.0
H3224 H 0.71269 0.25121 0.55033 0.0
C3225 C 0.8503 0.35742 0.55322 0.0
C3226 C 0.81048 0.27315 0.5444 0.0
C3227 C 0.88132 0.39378 0.55363 0.0
C3228 C 0.67852 0.12601 0.54138 0.0
C3229 C 0.70831 0.16326 0.54135 0.0
C3230 C 0.73988 0.25656 0.54874 0.0
C3231 C 0.83783 0.34016 0.54754 0.0
C3232 C 0.80581 0.30154 0.54707 0.0
C3233 C 0.71246 0.18815 0.54608 0.0
C3234 C 0.74448 0.22756 0.54621 0.0
H3235 H 0.90018 0.41113 0.53854 0.0
H3236 H 0.84672 0.3471 0.53786 0.0
H3237 H 0.76613 0.31476 0.55124 0.0
H3238 H 0.63618 0.12905 0.55449 0.0
H3239 H 0.68853 0.19265 0.55461 0.0
C3240 C 0.18893 0.47448 0.3824 0.0
C3241 C 0.16284 0.447 0.37845 0.0
C3242 C 0.19566 0.5113 0.38221 0.0
C3243 C 0.15193 0.56686 0.37776 0.0
H3244 H 0.25285 0.65102 0.3801 0.0
C3245 C 0.23559 0.74027 0.37822 0.0
C3246 C 0.21007 0.74556 0.38173 0.0
C3247 C 0.23042 0.70417 0.37739 0.0
C3248 C 0.22454 0.62791 0.37938 0.0
H3249 H 0.12323 0.43634 0.3712 0.0
H3250 H 0.13493 0.50107 0.37085 0.0
H3251 H 0.24313 0.58762 0.3791 0.0
H3252 H 0.15946 0.71759 0.38717 0.0
H3253 H 0.1507 0.65474 0.38581 0.0
H3254 H 0.13335 0.60717 0.37801 0.0
C3255 C 0.15016 0.49401 0.37411 0.0
C3256 C 0.21892 0.59151 0.37887 0.0
C3257 C 0.14355 0.45705 0.37429 0.0
C3258 C 0.17951 0.71427 0.38443 0.0
C3259 C 0.17434 0.67823 0.3836 0.0
C3260 C 0.15755 0.60327 0.37828 0.0
C3261 C 0.17627 0.52154 0.37808 0.0
C3262 C 0.1825 0.56049 0.37813 0.0
C3263 C 0.19959 0.67268 0.38004 0.0
C3264 C 0.19387 0.6342 0.37917 0.0
H3265 H 0.2036 0.46739 0.38576 0.0
H3266 H 0.21535 0.53151 0.38542 0.0
H3267 H 0.1235 0.54359 0.37724 0.0
H3268 H 0.25931 0.76395 0.37607 0.0
H3269 H 0.25021 0.70087 0.37458 0.0
C3270 C 0.62031 0.71535 0.37445 0.0
C3271 C 0.62776 0.74837 0.37751 0.0
C3272 C 0.58375 0.68432 0.37434 0.0
C3273 C 0.48368 0.6562 0.37642 0.0
H3274 H 0.47134 0.5592 0.38077 0.0
C3275 C 0.33825 0.52944 0.38246 0.0
C3276 C 0.33064 0.49355 0.38065 0.0
C3277 C 0.37438 0.56056 0.38177 0.0
C3278 C 0.47419 0.5859 0.37945 0.0
H3279 H 0.60286 0.77535 0.38267 0.0
H3280 H 0.53918 0.72158 0.38239 0.0
H3281 H 0.53437 0.6134 0.37978 0.0
H3282 H 0.35444 0.46193 0.37663 0.0
H3283 H 0.41715 0.51617 0.37528 0.0
H3284 H 0.42359 0.62883 0.37605 0.0
C3285 C 0.5614 0.71951 0.38009 0.0
C3286 C 0.51039 0.61699 0.37889 0.0
C3287 C 0.59791 0.75027 0.38027 0.0
C3288 C 0.35964 0.4893 0.3781 0.0
C3289 C 0.39565 0.5204 0.37737 0.0
C3290 C 0.44746 0.62505 0.37693 0.0
C3291 C 0.55397 0.68599 0.3772 0.0
C3292 C 0.51554 0.65254 0.37742 0.0
C3293 C 0.40359 0.55646 0.37921 0.0
C3294 C 0.4422 0.58952 0.37851 0.0
H3295 H 0.64284 0.71318 0.37229 0.0
H3296 H 0.57878 0.65895 0.37203 0.0
H3297 H 0.48676 0.68317 0.37521 0.0
H3298 H 0.31636 0.53344 0.38445 0.0
H3299 H 0.3795 0.58773 0.38333 0.0
C3300 C 0.34965 0.92276 0.37376 0.0
C3301 C 0.32456 0.90976 0.37866 0.0
C3302 C 0.37928 0.91504 0.37347 0.0
C3303 C 0.41311 0.8542 0.3806 0.0
H3304 H 0.5095 0.92885 0.37402 0.0
C3305 C 0.55655 0.86413 0.38574 0.0
C3306 C 0.57478 0.86063 0.38061 0.0
C3307 C 0.52498 0.86839 0.38509 0.0
C3308 C 0.4826 0.90774 0.37583 0.0
H3309 H 0.31089 0.879 0.38713 0.0
H3310 H 0.36301 0.86722 0.3868 0.0
H3311 H 0.45622 0.93984 0.37362 0.0
H3312 H 0.57491 0.85924 0.3708 0.0
H3313 H 0.5203 0.86811 0.36966 0.0
H3314 H 0.44048 0.82328 0.3831 0.0
C3315 C 0.35943 0.88203 0.38304 0.0
C3316 C 0.45195 0.91382 0.37557 0.0
C3317 C 0.3296 0.88911 0.38326 0.0
C3318 C 0.56116 0.86171 0.37482 0.0
C3319 C 0.53015 0.86692 0.37417 0.0
C3320 C 0.44394 0.84861 0.38098 0.0
C3321 C 0.38469 0.89469 0.37813 0.0
C3322 C 0.41682 0.88729 0.37801 0.0
C3323 C 0.51179 0.87014 0.3793 0.0
C3324 C 0.47893 0.87543 0.37864 0.0
H3325 H 0.34618 0.93859 0.37014 0.0
H3326 H 0.39773 0.92483 0.36957 0.0
H3327 H 0.38639 0.83255 0.38237 0.0
H3328 H 0.56656 0.86337 0.39025 0.0
H3329 H 0.51119 0.87092 0.3891 0.0
C3330 C 0.06046 0.86669 0.78559 0.0
C3331 C 0.08321 0.88004 0.79077 0.0
C3332 C 0.02382 0.86087 0.78566 0.0
C3333 C 0.95938 0.88168 0.79478 0.0
H3334 H 0.8823 0.79844 0.78556 0.0
C3335 C 0.80806 0.85538 0.79392 0.0
C3336 C 0.77823 0.81829 0.79358 0.0
C3337 C 0.84519 0.86347 0.79326 0.0
C3338 C 0.9033 0.82151 0.78823 0.0
H3339 H 0.08587 0.8978 0.80007 0.0
H3340 H 0.02169 0.88612 0.80033 0.0
H3341 H 0.9468 0.81139 0.78514 0.0
H3342 H 0.76352 0.76026 0.79231 0.0
H3343 H 0.82849 0.77383 0.7915 0.0
H3344 H 0.91569 0.89035 0.79818 0.0
C3345 C 0.03214 0.8813 0.79612 0.0
C3346 C 0.94061 0.82944 0.7879 0.0
C3347 C 0.06896 0.88781 0.796 0.0
C3348 C 0.78612 0.78919 0.79259 0.0
C3349 C 0.82339 0.7971 0.79206 0.0
C3350 C 0.92203 0.87331 0.7952 0.0
C3351 C 0.00892 0.86759 0.79096 0.0
C3352 C 0.96922 0.85965 0.79117 0.0
C3353 C 0.85351 0.83443 0.7924 0.0
C3354 C 0.8934 0.84316 0.79193 0.0
H3355 H 0.07094 0.86062 0.78149 0.0
H3356 H 1.00724 0.85108 0.78156 0.0
H3357 H 0.98053 0.90559 0.79729 0.0
H3358 H 0.8027 0.87829 0.79459 0.0
H3359 H 0.86727 0.89264 0.79338 0.0
C3360 C 0.22139 0.98801 0.79598 0.0
C3361 C 0.25234 0.99029 0.79288 0.0
C3362 C 0.21362 0.01748 0.79567 0.0
C3363 C 0.23382 0.10124 0.78648 0.0
H3364 H 0.20039 0.13075 0.80083 0.0
C3365 C 0.23166 0.24035 0.78789 0.0
C3366 C 0.20075 0.2398 0.79072 0.0
C3367 C 0.23607 0.20876 0.78806 0.0
C3368 C 0.20925 0.12255 0.79676 0.0
H3369 H 0.29979 0.02521 0.7871 0.0
H3370 H 0.28683 0.0771 0.78664 0.0
H3371 H 0.21218 0.07816 0.80135 0.0
H3372 H 0.15006 0.20586 0.79592 0.0
H3373 H 0.15774 0.15037 0.79623 0.0
H3374 H 0.2314 0.14599 0.78192 0.0
C3375 C 0.26801 0.05228 0.78922 0.0
C3376 C 0.216 0.09237 0.79706 0.0
C3377 C 0.27568 0.02273 0.78952 0.0
C3378 C 0.17418 0.207 0.79371 0.0
C3379 C 0.17869 0.17536 0.79391 0.0
C3380 C 0.22721 0.13147 0.78619 0.0
C3381 C 0.23679 0.05 0.79227 0.0
C3382 C 0.22863 0.08149 0.79193 0.0
C3383 C 0.20973 0.17591 0.79108 0.0
C3384 C 0.2151 0.14267 0.79134 0.0
H3385 H 0.20329 0.96351 0.79867 0.0
H3386 H 0.18918 0.01457 0.79803 0.0
H3387 H 0.24277 0.0932 0.78241 0.0
H3388 H 0.25263 0.26533 0.78557 0.0
H3389 H 0.26055 0.21031 0.78591 0.0
C3390 C 0.08108 0.26475 0.78955 0.0
C3391 C 0.08536 0.2894 0.79429 0.0
C3392 C 0.05123 0.22786 0.78955 0.0
C3393 C 0.95794 0.16586 0.79667 0.0
H3394 H 0.971 0.08756 0.78919 0.0
C3395 C 0.85117 0.00649 0.79844 0.0
C3396 C 0.83783 0.98839 0.79284 0.0
C3397 C 0.88173 0.04303 0.79869 0.0
C3398 C 0.96704 0.10926 0.79126 0.0
H3399 H 0.06248 0.29486 0.8028 0.0
H3400 H 0.01098 0.22958 0.80299 0.0
H3401 H 0.02436 0.15134 0.78987 0.0
H3402 H 0.84621 0.99361 0.78313 0.0
H3403 H 0.90097 0.0575 0.78359 0.0
H3404 H 0.9008 0.12286 0.79827 0.0
C3405 C 0.02996 0.23905 0.79915 0.0
C3406 C 0.99748 0.14589 0.79163 0.0
C3407 C 0.05956 0.27636 0.79908 0.0
C3408 C 0.85606 0.00706 0.78749 0.0
C3409 C 0.88726 0.04341 0.78775 0.0
C3410 C 0.92774 0.12902 0.79641 0.0
C3411 C 0.02527 0.21433 0.79436 0.0
C3412 C 0.99327 0.17485 0.79427 0.0
C3413 C 0.89997 0.06177 0.79335 0.0
C3414 C 0.932 0.10058 0.79366 0.0
H3415 H 0.10038 0.27415 0.78576 0.0
H3416 H 0.04824 0.21024 0.7857 0.0
H3417 H 0.95327 0.18734 0.79864 0.0
H3418 H 0.83749 0.9927 0.80263 0.0
H3419 H 0.89126 0.05664 0.80305 0.0
C3420 C 0.16939 1.00237 0.29102 0.0
C3421 C 0.19137 0.99194 0.29449 0.0
C3422 C 0.1741 0.03848 0.2916 0.0
C3423 C 0.24472 0.13431 0.29639 0.0
H3424 H 0.16048 0.15221 0.29651 0.0
C3425 C 0.26601 0.28336 0.29975 0.0
C3426 C 0.2451 0.29305 0.29587 0.0
C3427 C 0.25789 0.24597 0.30013 0.0
C3428 C 0.18433 0.1477 0.29644 0.0
H3429 H 0.23459 0.01037 0.3014 0.0
H3430 H 0.24258 0.07296 0.30244 0.0
H3431 H 0.14882 0.08785 0.29595 0.0
H3432 H 0.19885 0.27131 0.28946 0.0
H3433 H 0.18501 0.20662 0.29007 0.0
H3434 H 0.28028 0.19404 0.29677 0.0
C3435 C 0.22216 0.0537 0.29921 0.0
C3436 C 0.17762 0.11082 0.29611 0.0
C3437 C 0.21742 0.01776 0.29864 0.0
C3438 C 0.21543 0.26469 0.29251 0.0
C3439 C 0.20732 0.22748 0.29288 0.0
C3440 C 0.25143 0.17114 0.2967 0.0
C3441 C 0.20094 0.06469 0.29565 0.0
C3442 C 0.20775 0.10373 0.29606 0.0
C3443 C 0.22866 0.21766 0.29665 0.0
C3444 C 0.22135 0.17833 0.2967 0.0
H3445 H 0.14912 0.98293 0.28779 0.0
H3446 H 0.15748 0.04621 0.28877 0.0
H3447 H 0.26859 0.12984 0.29627 0.0
H3448 H 0.28894 0.30471 0.30241 0.0
H3449 H 0.27458 0.23925 0.30313 0.0
C3450 C 0.06801 0.22113 0.29651 0.0
C3451 C 0.08126 0.24361 0.2913 0.0
C3452 C 0.03124 0.19055 0.2967 0.0
C3453 C 0.95419 0.1235 0.28704 0.0
H3454 H 0.88965 0.11213 0.30067 0.0
C3455 C 0.80985 0.99024 0.29096 0.0
C3456 C 0.77973 0.99592 0.29235 0.0
C3457 C 0.84669 0.02046 0.29084 0.0
C3458 C 0.90735 0.11505 0.29683 0.0
H3459 H 0.067 0.25157 0.28218 0.0
H3460 H 1.00309 0.19772 0.28247 0.0
H3461 H 0.95461 0.16457 0.30049 0.0
H3462 H 0.76405 0.0376 0.29458 0.0
H3463 H 0.82883 0.09076 0.29449 0.0
H3464 H 0.9071 0.07392 0.28339 0.0
C3465 C 0.02096 0.2038 0.28641 0.0
C3466 C 0.94455 0.14481 0.29675 0.0
C3467 C 0.05746 0.23465 0.28625 0.0
C3468 C 0.78694 0.0325 0.29355 0.0
C3469 C 0.82391 0.06278 0.29352 0.0
C3470 C 0.91721 0.09346 0.28716 0.0
C3471 C 1.00737 0.1816 0.29165 0.0
C3472 C 0.96827 0.14943 0.29184 0.0
C3473 C 0.85416 0.05703 0.29216 0.0
C3474 C 0.89337 0.08901 0.29204 0.0
H3475 H 0.08584 0.22752 0.30046 0.0
H3476 H 0.02155 0.17372 0.30079 0.0
H3477 H 0.97191 0.12628 0.28321 0.0
H3478 H 0.80488 0.96265 0.28979 0.0
H3479 H 0.8694 0.01518 0.28976 0.0
C3480 C 0.05107 0.80219 0.28904 0.0
C3481 C 0.08296 0.82499 0.29255 0.0
C3482 C 0.02215 0.81061 0.2885 0.0
C3483 C 0.99942 0.88688 0.29085 0.0
H3484 H 0.89677 0.80357 0.29073 0.0
C3485 C 0.86799 0.90383 0.29385 0.0
C3486 C 0.83721 0.88202 0.29004 0.0
C3487 C 0.89926 0.89873 0.29387 0.0
C3488 C 0.92529 0.82712 0.29069 0.0
H3489 H 0.11006 0.87462 0.29822 0.0
H3490 H 0.05912 0.88896 0.29742 0.0
H3491 H 0.94871 0.79107 0.29142 0.0
H3492 H 0.81512 0.83843 0.28318 0.0
H3493 H 0.86962 0.8293 0.28324 0.0
H3494 H 0.97557 0.92288 0.29027 0.0
C3495 C 0.05661 0.86493 0.29498 0.0
C3496 C 0.95513 0.81999 0.29107 0.0
C3497 C 0.08571 0.85663 0.29547 0.0
C3498 C 0.83848 0.85556 0.28617 0.0
C3499 C 0.86956 0.85021 0.28623 0.0
C3500 C 0.96947 0.89402 0.29052 0.0
C3501 C 0.02431 0.84185 0.29151 0.0
C3502 C 0.99262 0.84974 0.29113 0.0
C3503 C 0.90012 0.87146 0.29012 0.0
C3504 C 0.9321 0.86419 0.29042 0.0
H3505 H 0.0485 0.77787 0.28668 0.0
H3506 H 0.99817 0.79267 0.28568 0.0
H3507 H 0.02789 0.91049 0.2908 0.0
H3508 H 0.86767 0.92445 0.29687 0.0
H3509 H 0.92227 0.91534 0.29694 0.0
C3510 C 0.35506 0.88325 0.8881 0.0
C3511 C 0.32721 0.85625 0.8843 0.0
C3512 C 0.39142 0.88836 0.88811 0.0
C3513 C 0.45598 0.87253 0.87851 0.0
H3514 H 0.51493 0.89508 0.89324 0.0
C3515 C 0.60135 0.8826 0.87901 0.0
C3516 C 0.62976 0.91213 0.88237 0.0
C3517 C 0.56413 0.87476 0.8794 0.0
C3518 C 0.49893 0.88915 0.88908 0.0
H3519 H 0.31494 0.81256 0.8777 0.0
H3520 H 0.37822 0.82094 0.87779 0.0
H3521 H 0.4501 0.88219 0.89375 0.0
H3522 H 0.64188 0.95673 0.88878 0.0
H3523 H 0.57678 0.94336 0.88943 0.0
H3524 H 0.50478 0.87955 0.87384 0.0
C3525 C 0.3723 0.83872 0.88067 0.0
C3526 C 0.46177 0.88176 0.88938 0.0
C3527 C 0.33599 0.83371 0.88065 0.0
C3528 C 0.62042 0.93382 0.88613 0.0
C3529 C 0.58313 0.92594 0.88654 0.0
C3530 C 0.49306 0.87984 0.87823 0.0
C3531 C 0.40062 0.86647 0.88434 0.0
C3532 C 0.43986 0.87342 0.88409 0.0
C3533 C 0.55456 0.89636 0.88317 0.0
C3534 C 0.51501 0.88831 0.8835 0.0
H3535 H 0.34903 0.90109 0.89094 0.0
H3536 H 0.41259 0.91024 0.89095 0.0
H3537 H 0.4402 0.86694 0.87434 0.0
H3538 H 0.60794 0.86574 0.87603 0.0
H3539 H 0.54277 0.85157 0.87679 0.0
C3540 C 0.13105 0.71173 0.88359 0.0
C3541 C 0.15667 0.74584 0.88083 0.0
C3542 C 0.13842 0.68191 0.8838 0.0
C3543 C 0.20215 0.65014 0.87709 0.0
H3544 H 0.16249 0.57841 0.89025 0.0
C3545 C 0.21592 0.51736 0.87684 0.0
C3546 C 0.21687 0.50079 0.88234 0.0
C3547 C 0.20916 0.54749 0.87677 0.0
C3548 C 0.17449 0.59849 0.88659 0.0
H3549 H 0.20901 0.77497 0.8759 0.0
H3550 H 0.2239 0.72506 0.87674 0.0
H3551 H 0.15064 0.63051 0.89006 0.0
H3552 H 0.21283 0.50318 0.89208 0.0
H3553 H 0.20375 0.55755 0.89202 0.0
H3554 H 0.22842 0.61999 0.87386 0.0
C3555 C 0.19746 0.72026 0.8786 0.0
C3556 C 0.16692 0.62814 0.88641 0.0
C3557 C 0.18947 0.74949 0.87824 0.0
C3558 C 0.21205 0.51549 0.88778 0.0
C3559 C 0.2064 0.54642 0.88772 0.0
C3560 C 0.21064 0.62121 0.87737 0.0
C3561 C 0.17198 0.68584 0.88136 0.0
C3562 C 0.18037 0.65431 0.88162 0.0
C3563 C 0.20432 0.56261 0.8822 0.0
C3564 C 0.19659 0.59459 0.88208 0.0
H3565 H 0.10528 0.70805 0.88558 0.0
H3566 H 0.11751 0.65574 0.88583 0.0
H3567 H 0.21253 0.66897 0.87324 0.0
H3568 H 0.21908 0.50618 0.87258 0.0
H3569 H 0.20685 0.55818 0.87241 0.0
C3570 C 0.32463 0.46958 0.87806 0.0
C3571 C 0.32585 0.44022 0.88111 0.0
C3572 C 0.35392 0.50671 0.87871 0.0
C3573 C 0.45412 0.56256 0.88322 0.0
H3574 H 0.43292 0.64449 0.88422 0.0
C3575 C 0.57072 0.71433 0.88837 0.0
C3576 C 0.57114 0.74284 0.88481 0.0
C3577 C 0.53982 0.67784 0.88822 0.0
C3578 C 0.43931 0.62194 0.8839 0.0
H3579 H 0.35825 0.42646 0.88727 0.0
H3580 H 0.4093 0.49127 0.88846 0.0
H3581 H 0.38103 0.57987 0.88336 0.0
H3582 H 0.5393 0.75598 0.87842 0.0
H3583 H 0.48521 0.69214 0.87814 0.0
H3584 H 0.51234 0.60456 0.88374 0.0
C3585 C 0.38608 0.4857 0.88549 0.0
C3586 C 0.40958 0.58489 0.8834 0.0
C3587 C 0.35681 0.44858 0.88482 0.0
C3588 C 0.53965 0.7345 0.88122 0.0
C3589 C 0.50864 0.69798 0.88108 0.0
C3590 C 0.4838 0.59954 0.88373 0.0
C3591 C 0.38507 0.51526 0.88242 0.0
C3592 C 0.41661 0.55472 0.88304 0.0
C3593 C 0.50861 0.66908 0.88451 0.0
C3594 C 0.47679 0.62971 0.88407 0.0
H3595 H 0.30121 0.46381 0.87512 0.0
H3596 H 0.35243 0.52862 0.87621 0.0
H3597 H 0.46066 0.54014 0.88284 0.0
H3598 H 0.59461 0.72004 0.89119 0.0
H3599 H 0.54046 0.65641 0.89099 0.0
C3600 C 0.85944 0.80579 0.71657 0.0
C3601 C 0.83074 0.77829 0.71295 0.0
C3602 C 0.86712 0.8429 0.71646 0.0
C3603 C 0.82313 0.89965 0.71314 0.0
H3604 H 0.92577 0.9827 0.71409 0.0
C3605 C 0.9081 0.07214 0.71222 0.0
C3606 C 0.88504 0.07912 0.71607 0.0
C3607 C 0.90258 0.03581 0.71166 0.0
C3608 C 0.89697 0.95986 0.71378 0.0
H3609 H 0.78779 0.76798 0.70631 0.0
H3610 H 0.80123 0.83328 0.70609 0.0
H3611 H 0.91411 0.91863 0.71297 0.0
H3612 H 0.83888 0.05412 0.72247 0.0
H3613 H 0.82951 0.99072 0.72155 0.0
H3614 H 0.80599 0.94089 0.71391 0.0
C3615 C 0.81766 0.82595 0.70905 0.0
C3616 C 0.89027 0.92314 0.71318 0.0
C3617 C 0.81007 0.78868 0.70914 0.0
C3618 C 0.85702 0.04944 0.71946 0.0
C3619 C 0.85145 0.01311 0.71889 0.0
C3620 C 0.82983 0.93638 0.71375 0.0
C3621 C 0.84616 0.8534 0.71274 0.0
C3622 C 0.85328 0.89259 0.71292 0.0
C3623 C 0.87383 0.00578 0.71492 0.0
C3624 C 0.86681 0.96686 0.71413 0.0
H3625 H 0.87558 0.79853 0.7196 0.0
H3626 H 0.88882 0.86316 0.71943 0.0
H3627 H 0.79431 0.87671 0.713 0.0
H3628 H 0.92984 0.09458 0.70954 0.0
H3629 H 0.92013 0.03106 0.70853 0.0
C3630 C 1.0032 0.85704 0.71291 0.0
C3631 C 0.9958 0.82543 0.71639 0.0
C3632 C 0.03967 0.88814 0.71263 0.0
C3633 C 0.13944 0.91496 0.71507 0.0
H3634 H 0.15633 0.01667 0.71547 0.0
C3635 C 0.28809 0.04403 0.71782 0.0
C3636 C 0.29692 0.07586 0.71431 0.0
C3637 C 0.25115 0.01388 0.71806 0.0
C3638 C 0.15208 0.98844 0.71529 0.0
H3639 H 0.0204 0.80165 0.72236 0.0
H3640 H 0.08377 0.85587 0.72194 0.0
H3641 H 0.09217 0.96349 0.71589 0.0
H3642 H 0.27441 0.10098 0.7082 0.0
H3643 H 0.20984 0.04841 0.70861 0.0
H3644 H 0.19926 0.9398 0.71448 0.0
C3645 C 0.06172 0.85658 0.71934 0.0
C3646 C 0.11528 0.95794 0.71553 0.0
C3647 C 0.02535 0.82558 0.71962 0.0
C3648 C 0.26821 0.07701 0.71103 0.0
C3649 C 0.23124 0.0469 0.71127 0.0
C3650 C 0.17618 0.9454 0.71484 0.0
C3651 C 0.06945 0.88819 0.71582 0.0
C3652 C 0.1085 0.9208 0.71545 0.0
C3653 C 0.22225 0.01489 0.71478 0.0
C3654 C 0.18301 0.98254 0.71497 0.0
H3655 H 0.98089 0.8576 0.71038 0.0
H3656 H 0.04467 0.91185 0.70983 0.0
H3657 H 0.13528 0.88677 0.71489 0.0
H3658 H 0.30969 0.04254 0.72043 0.0
H3659 H 0.24515 0.98993 0.72088 0.0
C3660 C 0.20642 0.16573 0.71299 0.0
C3661 C 0.23726 0.18707 0.71681 0.0
C3662 C 0.1756 0.17161 0.71295 0.0
C3663 C 0.15064 0.24426 0.71659 0.0
H3664 H 0.04788 0.16199 0.71532 0.0
C3665 C 0.02342 0.26798 0.71833 0.0
C3666 C 0.99318 0.24728 0.71437 0.0
C3667 C 0.05264 0.25986 0.7188 0.0
C3668 C 0.07644 0.18532 0.71561 0.0
H3669 H 0.25977 0.23048 0.72369 0.0
H3670 H 0.20595 0.24054 0.72367 0.0
H3671 H 0.09946 0.14857 0.71589 0.0
H3672 H 0.97002 0.20258 0.70772 0.0
H3673 H 0.02103 0.18843 0.70851 0.0
H3674 H 0.1278 0.28104 0.71626 0.0
C3675 C 0.20568 0.21965 0.72064 0.0
C3676 C 0.106 0.17761 0.71594 0.0
C3677 C 0.23639 0.21371 0.72069 0.0
C3678 C 0.99273 0.21851 0.71088 0.0
C3679 C 0.02193 0.2104 0.71134 0.0
C3680 C 0.12113 0.25197 0.71625 0.0
C3681 C 0.17511 0.19904 0.71672 0.0
C3682 C 0.14347 0.20699 0.71643 0.0
C3683 C 0.05229 0.23097 0.71531 0.0
C3684 C 0.08364 0.22262 0.71575 0.0
H3685 H 0.20644 0.14505 0.70994 0.0
H3686 H 0.15268 0.15546 0.70983 0.0
H3687 H 0.1792 0.26761 0.71686 0.0
H3688 H 0.02426 0.29014 0.72111 0.0
H3689 H 0.07528 0.27593 0.72197 0.0
C3690 C 0.72117 0.18645 0.11894 0.0
C3691 C 0.74896 0.21278 0.12282 0.0
C3692 C 0.68462 0.18075 0.11908 0.0
C3693 C 0.62754 0.22272 0.12415 0.0
H3694 H 0.54589 0.1193 0.12385 0.0
C3695 C 0.47386 0.18105 0.12986 0.0
C3696 C 0.44527 0.1526 0.12635 0.0
C3697 C 0.51117 0.18937 0.12924 0.0
C3698 C 0.56829 0.14837 0.12386 0.0
H3699 H 0.76082 0.25455 0.12976 0.0
H3700 H 0.69684 0.24452 0.13003 0.0
H3701 H 0.6106 0.13275 0.12298 0.0
H3702 H 0.43299 0.11056 0.11944 0.0
H3703 H 0.49814 0.1251 0.11832 0.0
H3704 H 0.58512 0.23829 0.12506 0.0
C3705 C 0.70329 0.22845 0.12685 0.0
C3706 C 0.60544 0.15609 0.12336 0.0
C3707 C 0.73989 0.23412 0.12672 0.0
C3708 C 0.45452 0.13245 0.12223 0.0
C3709 C 0.49182 0.14076 0.12161 0.0
C3710 C 0.59033 0.21499 0.12464 0.0
C3711 C 0.67507 0.20127 0.12309 0.0
C3712 C 0.63554 0.19335 0.12351 0.0
C3713 C 0.52062 0.1693 0.12511 0.0
C3714 C 0.56024 0.1777 0.12451 0.0
H3715 H 0.72746 0.1697 0.11588 0.0
H3716 H 0.66374 0.16006 0.11605 0.0
H3717 H 0.65003 0.25175 0.12421 0.0
H3718 H 0.4673 0.19654 0.13314 0.0
H3719 H 0.53249 0.21108 0.13208 0.0
C3720 C 0.88896 0.32086 0.12889 0.0
C3721 C 0.9188 0.3223 0.12557 0.0
C3722 C 0.88173 0.35071 0.12868 0.0
C3723 C 0.89991 0.43357 0.11947 0.0
H3724 H 0.87283 0.46588 0.1342 0.0
C3725 C 0.89744 0.57265 0.12091 0.0
C3726 C 0.86828 0.57282 0.12421 0.0
C3727 C 0.90218 0.54123 0.12101 0.0
C3728 C 0.87988 0.45691 0.13003 0.0
H3729 H 0.96475 0.35605 0.11945 0.0
H3730 H 0.9526 0.40858 0.11914 0.0
H3731 H 0.88421 0.41301 0.13452 0.0
H3732 H 0.82099 0.5403 0.13017 0.0
H3733 H 0.82907 0.48508 0.13032 0.0
H3734 H 0.89583 0.47763 0.11499 0.0
C3735 C 0.93433 0.38415 0.12184 0.0
C3736 C 0.88643 0.42659 0.13021 0.0
C3737 C 0.94152 0.35425 0.12206 0.0
C3738 C 0.84377 0.5409 0.1276 0.0
C3739 C 0.84854 0.50941 0.12771 0.0
C3740 C 0.8934 0.4639 0.11929 0.0
C3741 C 0.9043 0.38275 0.12515 0.0
C3742 C 0.89671 0.41464 0.12494 0.0
C3743 C 0.87786 0.50923 0.12442 0.0
C3744 C 0.8835 0.4761 0.12458 0.0
H3745 H 0.87134 0.29675 0.1317 0.0
H3746 H 0.85818 0.34849 0.13124 0.0
H3747 H 0.9071 0.42472 0.1153 0.0
H3748 H 0.91683 0.59695 0.11828 0.0
H3749 H 0.92537 0.5423 0.1185 0.0
C3750 C 0.7525 0.59405 0.12456 0.0
C3751 C 0.75202 0.62152 0.12829 0.0
C3752 C 0.72294 0.55699 0.12471 0.0
C3753 C 0.62271 0.50053 0.12841 0.0
H3754 H 0.64166 0.41716 0.12713 0.0
C3755 C 0.5347 0.32795 0.12928 0.0
C3756 C 0.50426 0.32115 0.12554 0.0
C3757 C 0.56562 0.36425 0.12982 0.0
C3758 C 0.63588 0.44009 0.12754 0.0
H3759 H 0.72056 0.63189 0.13514 0.0
H3760 H 0.66847 0.56672 0.13542 0.0
H3761 H 0.69442 0.48114 0.12814 0.0
H3762 H 0.48244 0.34644 0.11932 0.0
H3763 H 0.53663 0.40977 0.1202 0.0
H3764 H 0.56416 0.45947 0.12785 0.0
C3765 C 0.69175 0.574 0.13235 0.0
C3766 C 0.66611 0.47676 0.12806 0.0
C3767 C 0.72155 0.6112 0.13222 0.0
C3768 C 0.50557 0.35099 0.12225 0.0
C3769 C 0.53642 0.38727 0.12279 0.0
C3770 C 0.59248 0.46386 0.12787 0.0
C3771 C 0.69208 0.54655 0.12857 0.0
C3772 C 0.65988 0.50743 0.12845 0.0
C3773 C 0.5666 0.39441 0.12664 0.0
C3774 C 0.59874 0.43326 0.12738 0.0
H3775 H 0.77542 0.60126 0.12143 0.0
H3776 H 0.7238 0.53673 0.12167 0.0
H3777 H 0.61698 0.52355 0.12865 0.0
H3778 H 0.53427 0.30539 0.13189 0.0
H3779 H 0.5883 0.36886 0.13285 0.0
C3780 C 0.88132 0.35162 0.62099 0.0
C3781 C 0.85773 0.32302 0.62501 0.0
C3782 C 0.88748 0.38813 0.62172 0.0
C3783 C 0.91397 0.46651 0.62676 0.0
H3784 H 0.83128 0.48274 0.63088 0.0
C3785 C 0.93663 0.61431 0.6324 0.0
C3786 C 0.91167 0.6232 0.62949 0.0
C3787 C 0.92977 0.57727 0.63235 0.0
C3788 C 0.85467 0.47868 0.62973 0.0
H3789 H 0.82149 0.30968 0.63285 0.0
H3790 H 0.83224 0.37329 0.63414 0.0
H3791 H 0.81937 0.41891 0.62938 0.0
H3792 H 0.85952 0.60047 0.62442 0.0
H3793 H 0.8476 0.5363 0.62434 0.0
H3794 H 0.94908 0.52643 0.62695 0.0
C3795 C 0.8458 0.36764 0.6304 0.0
C3796 C 0.8479 0.44209 0.62891 0.0
C3797 C 0.83972 0.33123 0.62968 0.0
C3798 C 0.87924 0.59442 0.62671 0.0
C3799 C 0.8723 0.55756 0.62669 0.0
C3800 C 0.92076 0.50315 0.62759 0.0
C3801 C 0.87006 0.39661 0.62647 0.0
C3802 C 0.87741 0.43557 0.62738 0.0
C3803 C 0.89768 0.54858 0.62944 0.0
C3804 C 0.89111 0.50965 0.62902 0.0
H3805 H 0.89556 0.34596 0.61736 0.0
H3806 H 0.90588 0.40971 0.61856 0.0
H3807 H 0.9374 0.4624 0.62567 0.0
H3808 H 0.96184 0.63606 0.63457 0.0
H3809 H 0.94965 0.5711 0.63456 0.0
C3810 C 0.73205 0.5585 0.6328 0.0
C3811 C 0.74681 0.57238 0.62702 0.0
C3812 C 0.69585 0.52743 0.63342 0.0
C3813 C 0.62816 0.44156 0.62641 0.0
H3814 H 0.54908 0.45254 0.63406 0.0
C3815 C 0.47354 0.32639 0.62416 0.0
C3816 C 0.4479 0.32089 0.6288 0.0
C3817 C 0.51033 0.35646 0.62438 0.0
C3818 C 0.57086 0.4486 0.63202 0.0
H3819 H 0.73592 0.56456 0.61738 0.0
H3820 H 0.67309 0.50913 0.61847 0.0
H3821 H 0.61319 0.506 0.63372 0.0
H3822 H 0.44071 0.34195 0.63738 0.0
H3823 H 0.5058 0.39382 0.63795 0.0
H3824 H 0.5869 0.38415 0.62488 0.0
C3825 C 0.68932 0.52274 0.6225 0.0
C3826 C 0.60751 0.47938 0.6318 0.0
C3827 C 0.72512 0.55436 0.62188 0.0
C3828 C 0.45994 0.34576 0.63373 0.0
C3829 C 0.49719 0.3756 0.63402 0.0
C3830 C 0.59182 0.41059 0.62676 0.0
C3831 C 0.67432 0.50925 0.62827 0.0
C3832 C 0.63622 0.47621 0.62889 0.0
C3833 C 0.5229 0.38149 0.62932 0.0
C3834 C 0.56237 0.4138 0.62945 0.0
H3835 H 0.74823 0.57205 0.63683 0.0
H3836 H 0.68478 0.51735 0.63792 0.0
H3837 H 0.65006 0.43844 0.62421 0.0
H3838 H 0.46501 0.30788 0.62027 0.0
H3839 H 0.52863 0.36037 0.62059 0.0
C3840 C 0.70922 0.12103 0.62693 0.0
C3841 C 0.74591 0.15097 0.62604 0.0
C3842 C 0.67861 0.12723 0.62684 0.0
C3843 C 0.65559 0.20435 0.62784 0.0
H3844 H 0.55977 0.12837 0.6213 0.0
C3845 C 0.50271 0.18468 0.61975 0.0
C3846 C 0.49695 0.20471 0.62437 0.0
C3847 C 0.53326 0.17853 0.61998 0.0
C3848 C 0.58642 0.15014 0.62308 0.0
H3849 H 0.77908 0.20998 0.62391 0.0
H3850 H 0.72623 0.2211 0.62365 0.0
H3851 H 0.61246 0.11702 0.62146 0.0
H3852 H 0.51844 0.23411 0.63287 0.0
H3853 H 0.57124 0.22249 0.6334 0.0
H3854 H 0.63005 0.23816 0.62921 0.0
C3855 C 0.72089 0.1931 0.6247 0.0
C3856 C 0.61658 0.14334 0.62326 0.0
C3857 C 0.75137 0.18688 0.62488 0.0
C3858 C 0.52242 0.21875 0.62922 0.0
C3859 C 0.55277 0.21222 0.6295 0.0
C3860 C 0.62556 0.21132 0.62759 0.0
C3861 C 0.68405 0.16344 0.62574 0.0
C3862 C 0.65163 0.17037 0.62563 0.0
C3863 C 0.55853 0.19186 0.62489 0.0
C3864 C 0.59054 0.18435 0.6252 0.0
H3865 H 0.70428 0.09295 0.62781 0.0
H3866 H 0.65078 0.10372 0.62772 0.0
H3867 H 0.68191 0.22565 0.62979 0.0
H3868 H 0.48356 0.17372 0.61594 0.0
H3869 H 0.53712 0.16349 0.61628 0.0
C3870 C 1.00241 0.16384 0.21193 0.0
C3871 C 0.99574 0.18766 0.21564 0.0
C3872 C 0.0387 0.16914 0.21138 0.0
C3873 C 0.11469 0.17477 0.21352 0.0
H3874 H 0.19825 0.27702 0.21247 0.0
C3875 C 0.26886 0.2116 0.21623 0.0
C3876 C 0.29635 0.24006 0.21258 0.0
C3877 C 0.23174 0.20403 0.21612 0.0
C3878 C 0.1752 0.24829 0.21268 0.0
H3879 H 0.02127 0.23497 0.22182 0.0
H3880 H 0.08458 0.24392 0.22094 0.0
H3881 H 0.13422 0.26585 0.21335 0.0
H3882 H 0.30668 0.28271 0.20589 0.0
H3883 H 0.24138 0.26945 0.20567 0.0
H3884 H 0.15566 0.15721 0.2128 0.0
C3885 C 0.06199 0.22157 0.21836 0.0
C3886 C 0.13854 0.2419 0.21328 0.0
C3887 C 0.02571 0.21625 0.21891 0.0
C3888 C 0.28596 0.2606 0.20875 0.0
C3889 C 0.24869 0.25312 0.20865 0.0
C3890 C 0.15135 0.18117 0.21294 0.0
C3891 C 0.06901 0.19839 0.21453 0.0
C3892 C 0.10789 0.20508 0.21376 0.0
C3893 C 0.22123 0.22489 0.21237 0.0
C3894 C 0.18207 0.21802 0.21256 0.0
H3895 H 0.97976 0.14166 0.20934 0.0
H3896 H 0.04318 0.15097 0.20835 0.0
H3897 H 0.09175 0.14608 0.21391 0.0
H3898 H 0.27616 0.19565 0.2193 0.0
H3899 H 0.21151 0.18256 0.21912 0.0
C3900 C 0.80673 0.0486 0.21808 0.0
C3901 C 0.82738 0.07877 0.21412 0.0
C3902 C 0.81473 0.01932 0.21852 0.0
C3903 C 0.88895 0.99527 0.2153 0.0
H3904 H 0.80628 0.8927 0.21645 0.0
C3905 C 0.90787 0.86497 0.21273 0.0
C3906 C 0.88622 0.83419 0.21654 0.0
C3907 C 0.90223 0.8959 0.21267 0.0
C3908 C 0.82973 0.9212 0.21621 0.0
H3909 H 0.87182 0.10175 0.20742 0.0
H3910 H 0.88582 0.05064 0.20817 0.0
H3911 H 0.79311 0.94423 0.21586 0.0
H3912 H 0.84257 0.81192 0.22338 0.0
H3913 H 0.83296 0.86595 0.22334 0.0
H3914 H 0.92553 0.97207 0.21561 0.0
C3915 C 0.86397 0.04984 0.21102 0.0
C3916 C 0.82217 0.95077 0.21587 0.0
C3917 C 0.85596 0.07909 0.21058 0.0
C3918 C 0.85956 0.83524 0.22039 0.0
C3919 C 0.85387 0.86607 0.22033 0.0
C3920 C 0.89652 0.96564 0.21564 0.0
C3921 C 0.84346 0.01957 0.215 0.0
C3922 C 0.85166 0.98818 0.21541 0.0
C3923 C 0.87475 0.89655 0.21641 0.0
C3924 C 0.86698 0.92825 0.2161 0.0
H3925 H 0.7847 0.04785 0.22088 0.0
H3926 H 0.79871 0.99671 0.22169 0.0
H3927 H 0.91236 0.02379 0.21504 0.0
H3928 H 0.92859 0.86479 0.20971 0.0
H3929 H 0.91859 0.91878 0.20957 0.0
C3930 C 0.02541 0.78471 0.21878 0.0
C3931 C 0.99605 0.77493 0.21463 0.0
C3932 C 0.05416 0.82212 0.21935 0.0
C3933 C 0.07828 0.92029 0.21572 0.0
H3934 H 0.18033 0.941 0.21835 0.0
C3935 C 0.21079 0.06867 0.21348 0.0
C3936 C 0.23885 0.07857 0.21789 0.0
C3937 C 0.17961 0.03226 0.21332 0.0
C3938 C 0.15192 0.93567 0.21768 0.0
H3939 H 0.97373 0.79611 0.20777 0.0
H3940 H 0.02428 0.8613 0.20864 0.0
H3941 H 0.12943 0.87618 0.21752 0.0
H3942 H 0.25593 0.05878 0.2257 0.0
H3943 H 0.20165 0.99528 0.22543 0.0
H3944 H 0.10124 0.98008 0.21574 0.0
C3945 C 0.02481 0.84043 0.21157 0.0
C3946 C 0.12267 0.89847 0.21722 0.0
C3947 C 0.99593 0.80307 0.21105 0.0
C3948 C 0.23474 0.05186 0.22224 0.0
C3949 C 0.2038 0.01546 0.22206 0.0
C3950 C 0.10765 0.95757 0.21613 0.0
C3951 C 0.05434 0.85048 0.21574 0.0
C3952 C 0.08542 0.89023 0.21625 0.0
C3953 C 0.17617 0.00508 0.21755 0.0
C3954 C 0.14476 0.96563 0.21713 0.0
H3955 H 0.02586 0.76353 0.22165 0.0
H3956 H 0.076 0.82884 0.22268 0.0
H3957 H 0.0499 0.91506 0.21506 0.0
H3958 H 0.21334 0.08879 0.21007 0.0
H3959 H 0.15886 0.02502 0.20978 0.0
loop_
_geom_bond_atom_site_label_1
_geom_bond_atom_site_label_2
_geom_bond_distance
_geom_bond_site_symmetry_2
_ccdc_geom_bond_type
Tb0 O3 2.451 1_545 S
Tb0 O4 2.596 . S
Tb0 O5 2.374 . S
Tb0 O13 2.343 . S
Tb0 O15 2.353 . S
Tb0 O17 2.427 . S
Tb0 O18 2.513 . S
C1 O5 1.251 . S
C1 O7 1.263 . S
Tb2 O4 2.343 . S
Tb2 O7 2.353 . S
Tb2 O10 2.427 1_545 S
Tb2 O11 2.513 1_545 S
Tb2 O12 2.453 . S
Tb2 O13 2.596 . S
Tb2 O14 2.374 . S
O3 Tb0 2.451 1_565 S
O3 C19 1.244 . S
O4 Tb0 2.596 . S
O4 Tb2 2.343 . S
O4 C19 1.259 1_545 S
O5 Tb0 2.374 . S
O5 C1 1.251 . S
C6 O10 1.275 . S
C6 O11 1.246 . S
O7 C1 1.263 . S
O7 Tb2 2.353 . S
C8 O12 1.245 . S
C8 O13 1.259 . S
C9 O14 1.250 . S
C9 O15 1.263 . S
O10 Tb2 2.427 1_565 S
O10 C6 1.275 . S
O11 Tb2 2.513 1_565 S
O11 C6 1.246 . S
O12 Tb2 2.453 . S
O12 C8 1.245 . S
O13 Tb0 2.343 . S
O13 Tb2 2.596 . S
O13 C8 1.259 . S
O14 Tb2 2.374 . S
O14 C9 1.250 . S
O15 Tb0 2.353 . S
O15 C9 1.263 . S
C16 O17 1.275 . S
C16 O18 1.246 . S
O17 Tb0 2.427 . S
O17 C16 1.275 . S
O18 Tb0 2.513 . S
O18 C16 1.246 . S
C19 O3 1.244 . S
C19 O4 1.259 1_565 S
Tb20 O23 2.453 1_655 S
Tb20 O24 2.596 1_655 S
Tb20 O25 2.374 1_655 S
Tb20 O33 2.343 . S
Tb20 O35 2.353 1_655 S
Tb20 O37 2.427 . S
Tb20 O38 2.513 . S
C21 O25 1.251 . S
C21 O27 1.263 . S
Tb22 O24 2.343 . S
Tb22 O27 2.353 . S
Tb22 O30 2.427 . S
Tb22 O31 2.513 . S
Tb22 O32 2.453 1_455 S
Tb22 O33 2.596 1_455 S
Tb22 O34 2.374 . S
O23 Tb20 2.453 1_455 S
O23 C39 1.245 . S
O24 Tb20 2.596 1_455 S
O24 Tb22 2.343 . S
O24 C39 1.259 . S
O25 Tb20 2.374 1_455 S
O25 C21 1.251 . S
C26 O30 1.275 . S
C26 O31 1.246 . S
O27 C21 1.263 . S
O27 Tb22 2.353 . S
C28 O32 1.245 . S
C28 O33 1.259 . S
C29 O34 1.250 . S
C29 O35 1.263 . S
O30 Tb22 2.427 . S
O30 C26 1.275 . S
O31 Tb22 2.513 . S
O31 C26 1.246 . S
O32 Tb22 2.453 1_655 S
O32 C28 1.245 . S
O33 Tb20 2.343 . S
O33 Tb22 2.596 1_655 S
O33 C28 1.259 . S
O34 Tb22 2.374 . S
O34 C29 1.250 . S
O35 Tb20 2.353 1_455 S
O35 C29 1.263 . S
C36 O37 1.275 . S
C36 O38 1.246 . S
O37 Tb20 2.427 . S
O37 C36 1.275 . S
O38 Tb20 2.513 . S
O38 C36 1.246 . S
C39 O23 1.245 . S
C39 O24 1.259 . S
Tb40 O43 2.453 . S
Tb40 O44 2.596 . S
Tb40 O45 2.374 . S
Tb40 O53 2.343 . S
Tb40 O55 2.353 . S
Tb40 O57 2.427 . S
Tb40 O58 2.513 . S
C41 O45 1.251 . S
C41 O47 1.263 . S
Tb42 O44 2.343 . S
Tb42 O47 2.353 . S
Tb42 O50 2.427 . S
Tb42 O51 2.513 . S
Tb42 O52 2.453 . S
Tb42 O53 2.596 . S
Tb42 O54 2.374 . S
O43 Tb40 2.453 . S
O43 C59 1.245 . S
O44 Tb40 2.596 . S
O44 Tb42 2.343 . S
O44 C59 1.259 . S
O45 Tb40 2.374 . S
O45 C41 1.251 . S
C46 O50 1.275 . S
C46 O51 1.246 . S
O47 C41 1.263 . S
O47 Tb42 2.353 . S
C48 O52 1.245 . S
C48 O53 1.259 . S
C49 O54 1.250 . S
C49 O55 1.263 . S
O50 Tb42 2.427 . S
O50 C46 1.275 . S
O51 Tb42 2.513 . S
O51 C46 1.246 . S
O52 Tb42 2.453 . S
O52 C48 1.245 . S
O53 Tb40 2.343 . S
O53 Tb42 2.596 . S
O53 C48 1.259 . S
O54 Tb42 2.374 . S
O54 C49 1.250 . S
O55 Tb40 2.353 . S
O55 C49 1.263 . S
C56 O57 1.275 . S
C56 O58 1.246 . S
O57 Tb40 2.427 . S
O57 C56 1.275 . S
O58 Tb40 2.513 . S
O58 C56 1.246 . S
C59 O43 1.245 . S
C59 O44 1.259 . S
Tb60 O63 2.447 1_455 S
Tb60 O64 2.596 . S
Tb60 O65 2.374 . S
Tb60 O73 2.343 . S
Tb60 O75 2.353 . S
Tb60 O77 2.427 . S
Tb60 O78 2.513 . S
C61 O65 1.251 . S
C61 O67 1.263 . S
Tb62 O64 2.343 . S
Tb62 O67 2.353 . S
Tb62 O70 2.427 1_455 S
Tb62 O71 2.513 1_455 S
Tb62 O72 2.453 . S
Tb62 O73 2.596 . S
Tb62 O74 2.374 . S
O63 Tb60 2.447 1_655 S
O63 C79 1.244 . S
O64 Tb60 2.596 . S
O64 Tb62 2.343 . S
O64 C79 1.259 1_455 S
O65 Tb60 2.374 . S
O65 C61 1.251 . S
C66 O70 1.275 . S
C66 O71 1.246 . S
O67 C61 1.263 . S
O67 Tb62 2.353 . S
C68 O72 1.245 . S
C68 O73 1.259 . S
C69 O74 1.250 . S
C69 O75 1.263 . S
O70 Tb62 2.427 1_655 S
O70 C66 1.275 . S
O71 Tb62 2.513 1_655 S
O71 C66 1.246 . S
O72 Tb62 2.453 . S
O72 C68 1.245 . S
O73 Tb60 2.343 . S
O73 Tb62 2.596 . S
O73 C68 1.259 . S
O74 Tb62 2.374 . S
O74 C69 1.250 . S
O75 Tb60 2.353 . S
O75 C69 1.263 . S
C76 O77 1.275 . S
C76 O78 1.246 . S
O77 Tb60 2.427 . S
O77 C76 1.275 . S
O78 Tb60 2.513 . S
O78 C76 1.246 . S
C79 O63 1.244 . S
C79 O64 1.259 1_655 S
Tb80 O83 2.453 . S
Tb80 O84 2.596 . S
Tb80 O85 2.374 . S
Tb80 O93 2.343 . S
Tb80 O95 2.353 . S
Tb80 O97 2.427 . S
Tb80 O98 2.513 . S
C81 O85 1.251 . S
C81 O87 1.263 . S
Tb82 O84 2.343 . S
Tb82 O87 2.353 . S
Tb82 O90 2.427 . S
Tb82 O91 2.513 . S
Tb82 O92 2.453 . S
Tb82 O93 2.596 . S
Tb82 O94 2.374 . S
O83 Tb80 2.453 . S
O83 C99 1.245 . S
O84 Tb80 2.596 . S
O84 Tb82 2.343 . S
O84 C99 1.259 . S
O85 Tb80 2.374 . S
O85 C81 1.251 . S
C86 O90 1.275 . S
C86 O91 1.246 . S
O87 C81 1.263 . S
O87 Tb82 2.353 . S
C88 O92 1.245 . S
C88 O93 1.259 . S
C89 O94 1.250 . S
C89 O95 1.263 . S
O90 Tb82 2.427 . S
O90 C86 1.275 . S
O91 Tb82 2.513 . S
O91 C86 1.246 . S
O92 Tb82 2.453 . S
O92 C88 1.245 . S
O93 Tb80 2.343 . S
O93 Tb82 2.596 . S
O93 C88 1.259 . S
O94 Tb82 2.374 . S
O94 C89 1.250 . S
O95 Tb80 2.353 . S
O95 C89 1.263 . S
C96 O97 1.275 . S
C96 O98 1.246 . S
O97 Tb80 2.427 . S
O97 C96 1.275 . S
O98 Tb80 2.513 . S
O98 C96 1.246 . S
C99 O83 1.245 . S
C99 O84 1.259 . S
Tb100 O103 2.453 1_565 S
Tb100 O104 2.596 1_565 S
Tb100 O105 2.374 1_565 S
Tb100 O113 2.343 . S
Tb100 O115 2.353 1_565 S
Tb100 O117 2.427 . S
Tb100 O118 2.513 . S
C101 O105 1.251 . S
C101 O107 1.263 . S
Tb102 O104 2.343 . S
Tb102 O107 2.353 . S
Tb102 O110 2.427 . S
Tb102 O111 2.513 . S
Tb102 O112 2.453 1_545 S
Tb102 O113 2.596 1_545 S
Tb102 O114 2.374 . S
O103 Tb100 2.453 1_545 S
O103 C119 1.245 . S
O104 Tb100 2.596 1_545 S
O104 Tb102 2.343 . S
O104 C119 1.259 . S
O105 Tb100 2.374 1_545 S
O105 C101 1.251 . S
C106 O110 1.275 . S
C106 O111 1.246 . S
O107 C101 1.263 . S
O107 Tb102 2.353 . S
C108 O112 1.245 . S
C108 O113 1.259 . S
C109 O114 1.250 . S
C109 O115 1.263 . S
O110 Tb102 2.427 . S
O110 C106 1.275 . S
O111 Tb102 2.513 . S
O111 C106 1.246 . S
O112 Tb102 2.453 1_565 S
O112 C108 1.245 . S
O113 Tb100 2.343 . S
O113 Tb102 2.596 1_565 S
O113 C108 1.259 . S
O114 Tb102 2.374 . S
O114 C109 1.250 . S
O115 Tb100 2.353 1_545 S
O115 C109 1.263 . S
C116 O117 1.275 . S
C116 O118 1.246 . S
O117 Tb100 2.427 . S
O117 C116 1.275 . S
O118 Tb100 2.513 . S
O118 C116 1.246 . S
C119 O103 1.245 . S
C119 O104 1.259 . S
Tb120 O123 2.453 1_545 S
Tb120 O124 2.596 1_545 S
Tb120 O125 2.374 . S
Tb120 O133 2.343 . S
Tb120 O135 2.353 . S
Tb120 O137 2.427 . S
Tb120 O138 2.513 . S
C121 O125 1.251 . S
C121 O127 1.263 . S
Tb122 O124 2.343 . S
Tb122 O127 2.353 1_565 S
Tb122 O130 2.427 . S
Tb122 O131 2.513 . S
Tb122 O132 2.453 1_565 S
Tb122 O133 2.596 1_565 S
Tb122 O134 2.374 1_565 S
O123 Tb120 2.453 1_565 S
O123 C139 1.245 . S
O124 Tb120 2.596 1_565 S
O124 Tb122 2.343 . S
O124 C139 1.259 . S
O125 Tb120 2.374 . S
O125 C121 1.251 . S
C126 O130 1.275 . S
C126 O131 1.246 . S
O127 C121 1.263 . S
O127 Tb122 2.353 1_545 S
C128 O132 1.245 . S
C128 O133 1.259 . S
C129 O134 1.250 . S
C129 O135 1.263 . S
O130 Tb122 2.427 . S
O130 C126 1.275 . S
O131 Tb122 2.513 . S
O131 C126 1.246 . S
O132 Tb122 2.453 1_545 S
O132 C128 1.245 . S
O133 Tb120 2.343 . S
O133 Tb122 2.596 1_545 S
O133 C128 1.259 . S
O134 Tb122 2.374 1_545 S
O134 C129 1.250 . S
O135 Tb120 2.353 . S
O135 C129 1.263 . S
C136 O137 1.275 . S
C136 O138 1.246 . S
O137 Tb120 2.427 . S
O137 C136 1.275 . S
O138 Tb120 2.513 . S
O138 C136 1.246 . S
C139 O123 1.245 . S
C139 O124 1.259 . S
Tb140 O143 2.453 . S
Tb140 O144 2.596 . S
Tb140 O145 2.374 . S
Tb140 O153 2.343 . S
Tb140 O155 2.353 . S
Tb140 O157 2.427 1_455 S
Tb140 O158 2.513 1_455 S
C141 O145 1.251 . S
C141 O147 1.263 . S
Tb142 O144 2.343 . S
Tb142 O147 2.353 . S
Tb142 O150 2.427 . S
Tb142 O151 2.513 . S
Tb142 O152 2.449 1_455 S
Tb142 O153 2.596 . S
Tb142 O154 2.374 . S
O143 Tb140 2.453 . S
O143 C159 1.245 . S
O144 Tb140 2.596 . S
O144 Tb142 2.343 . S
O144 C159 1.259 . S
O145 Tb140 2.374 . S
O145 C141 1.251 . S
C146 O150 1.275 . S
C146 O151 1.246 . S
O147 C141 1.263 . S
O147 Tb142 2.353 . S
C148 O152 1.250 . S
C148 O153 1.259 1_655 S
C149 O154 1.250 . S
C149 O155 1.263 . S
O150 Tb142 2.427 . S
O150 C146 1.275 . S
O151 Tb142 2.513 . S
O151 C146 1.246 . S
O152 Tb142 2.449 1_655 S
O152 C148 1.250 . S
O153 Tb140 2.343 . S
O153 Tb142 2.596 . S
O153 C148 1.259 1_455 S
O154 Tb142 2.374 . S
O154 C149 1.250 . S
O155 Tb140 2.353 . S
O155 C149 1.263 . S
C156 O157 1.275 . S
C156 O158 1.246 . S
O157 Tb140 2.427 1_655 S
O157 C156 1.275 . S
O158 Tb140 2.513 1_655 S
O158 C156 1.246 . S
C159 O143 1.245 . S
C159 O144 1.259 . S
Tb160 O163 2.453 . S
Tb160 O164 2.596 . S
Tb160 O165 2.374 . S
Tb160 O173 2.343 . S
Tb160 O175 2.353 . S
Tb160 O177 2.427 . S
Tb160 O178 2.513 . S
C161 O165 1.251 . S
C161 O167 1.263 . S
Tb162 O164 2.343 . S
Tb162 O167 2.353 . S
Tb162 O170 2.427 . S
Tb162 O171 2.513 . S
Tb162 O172 2.453 . S
Tb162 O173 2.596 . S
Tb162 O174 2.374 . S
O163 Tb160 2.453 . S
O163 C179 1.245 . S
O164 Tb160 2.596 . S
O164 Tb162 2.343 . S
O164 C179 1.259 . S
O165 Tb160 2.374 . S
O165 C161 1.251 . S
C166 O170 1.275 . S
C166 O171 1.246 . S
O167 C161 1.263 . S
O167 Tb162 2.353 . S
C168 O172 1.245 . S
C168 O173 1.259 . S
C169 O174 1.250 . S
C169 O175 1.263 . S
O170 Tb162 2.427 . S
O170 C166 1.275 . S
O171 Tb162 2.513 . S
O171 C166 1.246 . S
O172 Tb162 2.453 . S
O172 C168 1.245 . S
O173 Tb160 2.343 . S
O173 Tb162 2.596 . S
O173 C168 1.259 . S
O174 Tb162 2.374 . S
O174 C169 1.250 . S
O175 Tb160 2.353 . S
O175 C169 1.263 . S
C176 O177 1.275 . S
C176 O178 1.246 . S
O177 Tb160 2.427 . S
O177 C176 1.275 . S
O178 Tb160 2.513 . S
O178 C176 1.246 . S
C179 O163 1.245 . S
C179 O164 1.259 . S
Tb180 O183 2.453 1_455 S
Tb180 O184 2.596 1_455 S
Tb180 O185 2.374 . S
Tb180 O193 2.343 . S
Tb180 O195 2.353 . S
Tb180 O197 2.427 . S
Tb180 O198 2.513 . S
C181 O185 1.251 . S
C181 O187 1.263 . S
Tb182 O184 2.343 . S
Tb182 O187 2.353 1_655 S
Tb182 O190 2.427 . S
Tb182 O191 2.513 . S
Tb182 O192 2.453 1_655 S
Tb182 O193 2.596 1_655 S
Tb182 O194 2.374 1_655 S
O183 Tb180 2.453 1_655 S
O183 C199 1.245 . S
O184 Tb180 2.596 1_655 S
O184 Tb182 2.343 . S
O184 C199 1.259 . S
O185 Tb180 2.374 . S
O185 C181 1.251 . S
C186 O190 1.275 . S
C186 O191 1.246 . S
O187 C181 1.263 . S
O187 Tb182 2.353 1_455 S
C188 O192 1.245 . S
C188 O193 1.259 . S
C189 O194 1.250 . S
C189 O195 1.263 . S
O190 Tb182 2.427 . S
O190 C186 1.275 . S
O191 Tb182 2.513 . S
O191 C186 1.246 . S
O192 Tb182 2.453 1_455 S
O192 C188 1.245 . S
O193 Tb180 2.343 . S
O193 Tb182 2.596 1_455 S
O193 C188 1.259 . S
O194 Tb182 2.374 1_455 S
O194 C189 1.250 . S
O195 Tb180 2.353 . S
O195 C189 1.263 . S
C196 O197 1.275 . S
C196 O198 1.246 . S
O197 Tb180 2.427 . S
O197 C196 1.275 . S
O198 Tb180 2.513 . S
O198 C196 1.246 . S
C199 O183 1.245 . S
C199 O184 1.259 . S
Tb200 O203 2.453 . S
Tb200 O204 2.596 . S
Tb200 O205 2.374 . S
Tb200 O213 2.343 . S
Tb200 O215 2.353 . S
Tb200 O217 2.427 . S
Tb200 O218 2.513 . S
C201 O205 1.251 . S
C201 O207 1.263 . S
Tb202 O204 2.343 . S
Tb202 O207 2.353 . S
Tb202 O210 2.427 . S
Tb202 O211 2.513 . S
Tb202 O212 2.453 . S
Tb202 O213 2.596 . S
Tb202 O214 2.374 . S
O203 Tb200 2.453 . S
O203 C219 1.245 . S
O204 Tb200 2.596 . S
O204 Tb202 2.343 . S
O204 C219 1.259 . S
O205 Tb200 2.374 . S
O205 C201 1.251 . S
C206 O210 1.275 . S
C206 O211 1.246 . S
O207 C201 1.263 . S
O207 Tb202 2.353 . S
C208 O212 1.245 . S
C208 O213 1.259 . S
C209 O214 1.250 . S
C209 O215 1.263 . S
O210 Tb202 2.427 . S
O210 C206 1.275 . S
O211 Tb202 2.513 . S
O211 C206 1.246 . S
O212 Tb202 2.453 . S
O212 C208 1.245 . S
O213 Tb200 2.343 . S
O213 Tb202 2.596 . S
O213 C208 1.259 . S
O214 Tb202 2.374 . S
O214 C209 1.250 . S
O215 Tb200 2.353 . S
O215 C209 1.263 . S
C216 O217 1.275 . S
C216 O218 1.246 . S
O217 Tb200 2.427 . S
O217 C216 1.275 . S
O218 Tb200 2.513 . S
O218 C216 1.246 . S
C219 O203 1.245 . S
C219 O204 1.259 . S
Tb220 O223 2.453 . S
Tb220 O224 2.596 . S
Tb220 O225 2.374 . S
Tb220 O233 2.343 . S
Tb220 O235 2.353 . S
Tb220 O237 2.427 1_545 S
Tb220 O238 2.513 1_545 S
C221 O225 1.251 . S
C221 O227 1.263 . S
Tb222 O224 2.343 . S
Tb222 O227 2.353 . S
Tb222 O230 2.427 . S
Tb222 O231 2.513 . S
Tb222 O232 2.452 1_545 S
Tb222 O233 2.596 . S
Tb222 O234 2.374 . S
O223 Tb220 2.453 . S
O223 C239 1.245 . S
O224 Tb220 2.596 . S
O224 Tb222 2.343 . S
O224 C239 1.259 . S
O225 Tb220 2.374 . S
O225 C221 1.251 . S
C226 O230 1.275 . S
C226 O231 1.246 . S
O227 C221 1.263 . S
O227 Tb222 2.353 . S
C228 O232 1.246 . S
C228 O233 1.259 1_565 S
C229 O234 1.250 . S
C229 O235 1.263 . S
O230 Tb222 2.427 . S
O230 C226 1.275 . S
O231 Tb222 2.513 . S
O231 C226 1.246 . S
O232 Tb222 2.452 1_565 S
O232 C228 1.246 . S
O233 Tb220 2.343 . S
O233 Tb222 2.596 . S
O233 C228 1.259 1_545 S
O234 Tb222 2.374 . S
O234 C229 1.250 . S
O235 Tb220 2.353 . S
O235 C229 1.263 . S
C236 O237 1.275 . S
C236 O238 1.246 . S
O237 Tb220 2.427 1_565 S
O237 C236 1.275 . S
O238 Tb220 2.513 1_565 S
O238 C236 1.246 . S
C239 O223 1.245 . S
C239 O224 1.259 . S
Tb240 O243 2.453 . S
Tb240 O244 2.596 . S
Tb240 O245 2.374 . S
Tb240 O253 2.343 . S
Tb240 O255 2.353 . S
Tb240 O257 2.427 . S
Tb240 O258 2.513 . S
C241 O245 1.251 . S
C241 O247 1.263 . S
Tb242 O244 2.343 . S
Tb242 O247 2.353 . S
Tb242 O250 2.427 . S
Tb242 O251 2.513 . S
Tb242 O252 2.453 . S
Tb242 O253 2.596 . S
Tb242 O254 2.374 . S
O243 Tb240 2.453 . S
O243 C259 1.245 . S
O244 Tb240 2.596 . S
O244 Tb242 2.343 . S
O244 C259 1.259 . S
O245 Tb240 2.374 . S
O245 C241 1.251 . S
C246 O250 1.275 . S
C246 O251 1.246 . S
O247 C241 1.263 . S
O247 Tb242 2.353 . S
C248 O252 1.245 . S
C248 O253 1.259 . S
C249 O254 1.250 . S
C249 O255 1.263 . S
O250 Tb242 2.427 . S
O250 C246 1.275 . S
O251 Tb242 2.513 . S
O251 C246 1.246 . S
O252 Tb242 2.453 . S
O252 C248 1.245 . S
O253 Tb240 2.343 . S
O253 Tb242 2.596 . S
O253 C248 1.259 . S
O254 Tb242 2.374 . S
O254 C249 1.250 . S
O255 Tb240 2.353 . S
O255 C249 1.263 . S
C256 O257 1.275 . S
C256 O258 1.246 . S
O257 Tb240 2.427 . S
O257 C256 1.275 . S
O258 Tb240 2.513 . S
O258 C256 1.246 . S
C259 O243 1.245 . S
C259 O244 1.259 . S
Tb260 O263 2.453 . S
Tb260 O264 2.596 . S
Tb260 O265 2.374 . S
Tb260 O273 2.343 . S
Tb260 O275 2.353 . S
Tb260 O277 2.427 . S
Tb260 O278 2.513 . S
C261 O265 1.251 . S
C261 O267 1.263 . S
Tb262 O264 2.343 . S
Tb262 O267 2.353 . S
Tb262 O270 2.427 . S
Tb262 O271 2.513 . S
Tb262 O272 2.453 . S
Tb262 O273 2.596 . S
Tb262 O274 2.374 . S
O263 Tb260 2.453 . S
O263 C279 1.245 . S
O264 Tb260 2.596 . S
O264 Tb262 2.343 . S
O264 C279 1.259 . S
O265 Tb260 2.374 . S
O265 C261 1.251 . S
C266 O270 1.275 . S
C266 O271 1.246 . S
O267 C261 1.263 . S
O267 Tb262 2.353 . S
C268 O272 1.245 . S
C268 O273 1.259 . S
C269 O274 1.250 . S
C269 O275 1.263 . S
O270 Tb262 2.427 . S
O270 C266 1.275 . S
O271 Tb262 2.513 . S
O271 C266 1.246 . S
O272 Tb262 2.453 . S
O272 C268 1.245 . S
O273 Tb260 2.343 . S
O273 Tb262 2.596 . S
O273 C268 1.259 . S
O274 Tb262 2.374 . S
O274 C269 1.250 . S
O275 Tb260 2.353 . S
O275 C269 1.263 . S
C276 O277 1.275 . S
C276 O278 1.246 . S
O277 Tb260 2.427 . S
O277 C276 1.275 . S
O278 Tb260 2.513 . S
O278 C276 1.246 . S
C279 O263 1.245 . S
C279 O264 1.259 . S
Tb280 O283 2.453 . S
Tb280 O284 2.596 . S
Tb280 O285 2.374 . S
Tb280 O293 2.343 . S
Tb280 O295 2.353 . S
Tb280 O297 2.427 . S
Tb280 O298 2.513 . S
C281 O285 1.251 . S
C281 O287 1.263 . S
Tb282 O284 2.343 . S
Tb282 O287 2.353 . S
Tb282 O290 2.427 . S
Tb282 O291 2.513 . S
Tb282 O292 2.453 . S
Tb282 O293 2.596 . S
Tb282 O294 2.374 . S
O283 Tb280 2.453 . S
O283 C299 1.245 . S
O284 Tb280 2.596 . S
O284 Tb282 2.343 . S
O284 C299 1.259 . S
O285 Tb280 2.374 . S
O285 C281 1.251 . S
C286 O290 1.275 . S
C286 O291 1.246 . S
O287 C281 1.263 . S
O287 Tb282 2.353 . S
C288 O292 1.245 . S
C288 O293 1.259 . S
C289 O294 1.250 . S
C289 O295 1.263 . S
O290 Tb282 2.427 . S
O290 C286 1.275 . S
O291 Tb282 2.513 . S
O291 C286 1.246 . S
O292 Tb282 2.453 . S
O292 C288 1.245 . S
O293 Tb280 2.343 . S
O293 Tb282 2.596 . S
O293 C288 1.259 . S
O294 Tb282 2.374 . S
O294 C289 1.250 . S
O295 Tb280 2.353 . S
O295 C289 1.263 . S
C296 O297 1.275 . S
C296 O298 1.246 . S
O297 Tb280 2.427 . S
O297 C296 1.275 . S
O298 Tb280 2.513 . S
O298 C296 1.246 . S
C299 O283 1.245 . S
C299 O284 1.259 . S
Tb300 O303 2.453 . S
Tb300 O304 2.596 . S
Tb300 O305 2.374 . S
Tb300 O313 2.343 . S
Tb300 O315 2.353 . S
Tb300 O317 2.427 . S
Tb300 O318 2.513 . S
C301 O305 1.251 . S
C301 O307 1.263 . S
Tb302 O304 2.343 . S
Tb302 O307 2.353 . S
Tb302 O310 2.427 . S
Tb302 O311 2.513 . S
Tb302 O312 2.453 . S
Tb302 O313 2.596 . S
Tb302 O314 2.374 . S
O303 Tb300 2.453 . S
O303 C319 1.245 . S
O304 Tb300 2.596 . S
O304 Tb302 2.343 . S
O304 C319 1.259 . S
O305 Tb300 2.374 . S
O305 C301 1.251 . S
C306 O310 1.275 . S
C306 O311 1.246 . S
O307 C301 1.263 . S
O307 Tb302 2.353 . S
C308 O312 1.245 . S
C308 O313 1.259 . S
C309 O314 1.250 . S
C309 O315 1.263 . S
O310 Tb302 2.427 . S
O310 C306 1.275 . S
O311 Tb302 2.513 . S
O311 C306 1.246 . S
O312 Tb302 2.453 . S
O312 C308 1.245 . S
O313 Tb300 2.343 . S
O313 Tb302 2.596 . S
O313 C308 1.259 . S
O314 Tb302 2.374 . S
O314 C309 1.250 . S
O315 Tb300 2.353 . S
O315 C309 1.263 . S
C316 O317 1.275 . S
C316 O318 1.246 . S
O317 Tb300 2.427 . S
O317 C316 1.275 . S
O318 Tb300 2.513 . S
O318 C316 1.246 . S
C319 O303 1.245 . S
C319 O304 1.259 . S
Tb320 O323 2.453 . S
Tb320 O324 2.596 . S
Tb320 O325 2.374 . S
Tb320 O333 2.343 . S
Tb320 O335 2.353 . S
Tb320 O337 2.427 . S
Tb320 O338 2.513 . S
C321 O325 1.251 . S
C321 O327 1.263 . S
Tb322 O324 2.343 . S
Tb322 O327 2.353 . S
Tb322 O330 2.427 . S
Tb322 O331 2.513 . S
Tb322 O332 2.453 . S
Tb322 O333 2.596 . S
Tb322 O334 2.374 . S
O323 Tb320 2.453 . S
O323 C339 1.245 . S
O324 Tb320 2.596 . S
O324 Tb322 2.343 . S
O324 C339 1.259 . S
O325 Tb320 2.374 . S
O325 C321 1.251 . S
C326 O330 1.275 . S
C326 O331 1.246 . S
O327 C321 1.263 . S
O327 Tb322 2.353 . S
C328 O332 1.245 . S
C328 O333 1.259 . S
C329 O334 1.250 . S
C329 O335 1.263 . S
O330 Tb322 2.427 . S
O330 C326 1.275 . S
O331 Tb322 2.513 . S
O331 C326 1.246 . S
O332 Tb322 2.453 . S
O332 C328 1.245 . S
O333 Tb320 2.343 . S
O333 Tb322 2.596 . S
O333 C328 1.259 . S
O334 Tb322 2.374 . S
O334 C329 1.250 . S
O335 Tb320 2.353 . S
O335 C329 1.263 . S
C336 O337 1.275 . S
C336 O338 1.246 . S
O337 Tb320 2.427 . S
O337 C336 1.275 . S
O338 Tb320 2.513 . S
O338 C336 1.246 . S
C339 O323 1.245 . S
C339 O324 1.259 . S
Tb340 O343 2.453 . S
Tb340 O344 2.596 . S
Tb340 O345 2.374 . S
Tb340 O353 2.343 . S
Tb340 O355 2.353 . S
Tb340 O357 2.427 . S
Tb340 O358 2.513 . S
C341 O345 1.251 . S
C341 O347 1.263 . S
Tb342 O344 2.343 . S
Tb342 O347 2.353 . S
Tb342 O350 2.427 . S
Tb342 O351 2.513 . S
Tb342 O352 2.453 . S
Tb342 O353 2.596 . S
Tb342 O354 2.374 . S
O343 Tb340 2.453 . S
O343 C359 1.245 . S
O344 Tb340 2.596 . S
O344 Tb342 2.343 . S
O344 C359 1.259 . S
O345 Tb340 2.374 . S
O345 C341 1.251 . S
C346 O350 1.275 . S
C346 O351 1.246 . S
O347 C341 1.263 . S
O347 Tb342 2.353 . S
C348 O352 1.245 . S
C348 O353 1.259 . S
C349 O354 1.250 . S
C349 O355 1.263 . S
O350 Tb342 2.427 . S
O350 C346 1.275 . S
O351 Tb342 2.513 . S
O351 C346 1.246 . S
O352 Tb342 2.453 . S
O352 C348 1.245 . S
O353 Tb340 2.343 . S
O353 Tb342 2.596 . S
O353 C348 1.259 . S
O354 Tb342 2.374 . S
O354 C349 1.250 . S
O355 Tb340 2.353 . S
O355 C349 1.263 . S
C356 O357 1.275 . S
C356 O358 1.246 . S
O357 Tb340 2.427 . S
O357 C356 1.275 . S
O358 Tb340 2.513 . S
O358 C356 1.246 . S
C359 O343 1.245 . S
C359 O344 1.259 . S
Tb360 O363 2.453 . S
Tb360 O364 2.596 . S
Tb360 O365 2.374 . S
Tb360 O373 2.343 . S
Tb360 O375 2.353 . S
Tb360 O377 2.427 . S
Tb360 O378 2.513 . S
C361 O365 1.251 . S
C361 O367 1.263 . S
Tb362 O364 2.343 . S
Tb362 O367 2.353 . S
Tb362 O370 2.427 . S
Tb362 O371 2.513 . S
Tb362 O372 2.453 . S
Tb362 O373 2.596 . S
Tb362 O374 2.374 . S
O363 Tb360 2.453 . S
O363 C379 1.245 . S
O364 Tb360 2.596 . S
O364 Tb362 2.343 . S
O364 C379 1.259 . S
O365 Tb360 2.374 . S
O365 C361 1.251 . S
C366 O370 1.275 . S
C366 O371 1.246 . S
O367 C361 1.263 . S
O367 Tb362 2.353 . S
C368 O372 1.245 . S
C368 O373 1.259 . S
C369 O374 1.250 . S
C369 O375 1.263 . S
O370 Tb362 2.427 . S
O370 C366 1.275 . S
O371 Tb362 2.513 . S
O371 C366 1.246 . S
O372 Tb362 2.453 . S
O372 C368 1.245 . S
O373 Tb360 2.343 . S
O373 Tb362 2.596 . S
O373 C368 1.259 . S
O374 Tb362 2.374 . S
O374 C369 1.250 . S
O375 Tb360 2.353 . S
O375 C369 1.263 . S
C376 O377 1.275 . S
C376 O378 1.246 . S
O377 Tb360 2.427 . S
O377 C376 1.275 . S
O378 Tb360 2.513 . S
O378 C376 1.246 . S
C379 O363 1.245 . S
C379 O364 1.259 . S
Tb380 O383 2.453 . S
Tb380 O384 2.596 . S
Tb380 O385 2.374 . S
Tb380 O393 2.343 . S
Tb380 O395 2.353 . S
Tb380 O397 2.427 . S
Tb380 O398 2.513 . S
C381 O385 1.251 . S
C381 O387 1.263 . S
Tb382 O384 2.343 . S
Tb382 O387 2.353 . S
Tb382 O390 2.427 . S
Tb382 O391 2.513 . S
Tb382 O392 2.453 . S
Tb382 O393 2.596 . S
Tb382 O394 2.374 . S
O383 Tb380 2.453 . S
O383 C399 1.245 . S
O384 Tb380 2.596 . S
O384 Tb382 2.343 . S
O384 C399 1.259 . S
O385 Tb380 2.374 . S
O385 C381 1.251 . S
C386 O390 1.275 . S
C386 O391 1.246 . S
O387 C381 1.263 . S
O387 Tb382 2.353 . S
C388 O392 1.245 . S
C388 O393 1.259 . S
C389 O394 1.250 . S
C389 O395 1.263 . S
O390 Tb382 2.427 . S
O390 C386 1.275 . S
O391 Tb382 2.513 . S
O391 C386 1.246 . S
O392 Tb382 2.453 . S
O392 C388 1.245 . S
O393 Tb380 2.343 . S
O393 Tb382 2.596 . S
O393 C388 1.259 . S
O394 Tb382 2.374 . S
O394 C389 1.250 . S
O395 Tb380 2.353 . S
O395 C389 1.263 . S
C396 O397 1.275 . S
C396 O398 1.246 . S
O397 Tb380 2.427 . S
O397 C396 1.275 . S
O398 Tb380 2.513 . S
O398 C396 1.246 . S
C399 O383 1.245 . S
C399 O384 1.259 . S
Tb400 O403 2.453 . S
Tb400 O404 2.596 . S
Tb400 O405 2.374 . S
Tb400 O413 2.343 . S
Tb400 O415 2.353 . S
Tb400 O417 2.427 . S
Tb400 O418 2.513 . S
C401 O405 1.251 . S
C401 O407 1.263 . S
Tb402 O404 2.343 . S
Tb402 O407 2.353 . S
Tb402 O410 2.427 . S
Tb402 O411 2.513 . S
Tb402 O412 2.453 . S
Tb402 O413 2.596 . S
Tb402 O414 2.374 . S
O403 Tb400 2.453 . S
O403 C419 1.245 . S
O404 Tb400 2.596 . S
O404 Tb402 2.343 . S
O404 C419 1.259 . S
O405 Tb400 2.374 . S
O405 C401 1.251 . S
C406 O410 1.275 . S
C406 O411 1.246 . S
O407 C401 1.263 . S
O407 Tb402 2.353 . S
C408 O412 1.245 . S
C408 O413 1.259 . S
C409 O414 1.250 . S
C409 O415 1.263 . S
O410 Tb402 2.427 . S
O410 C406 1.275 . S
O411 Tb402 2.513 . S
O411 C406 1.246 . S
O412 Tb402 2.453 . S
O412 C408 1.245 . S
O413 Tb400 2.343 . S
O413 Tb402 2.596 . S
O413 C408 1.259 . S
O414 Tb402 2.374 . S
O414 C409 1.250 . S
O415 Tb400 2.353 . S
O415 C409 1.263 . S
C416 O417 1.275 . S
C416 O418 1.246 . S
O417 Tb400 2.427 . S
O417 C416 1.275 . S
O418 Tb400 2.513 . S
O418 C416 1.246 . S
C419 O403 1.245 . S
C419 O404 1.259 . S
Tb420 O423 2.453 . S
Tb420 O424 2.596 . S
Tb420 O425 2.374 . S
Tb420 O433 2.343 . S
Tb420 O435 2.353 . S
Tb420 O437 2.427 . S
Tb420 O438 2.513 . S
C421 O425 1.251 . S
C421 O427 1.263 . S
Tb422 O424 2.343 . S
Tb422 O427 2.353 . S
Tb422 O430 2.427 . S
Tb422 O431 2.513 . S
Tb422 O432 2.453 . S
Tb422 O433 2.596 . S
Tb422 O434 2.374 . S
O423 Tb420 2.453 . S
O423 C439 1.245 . S
O424 Tb420 2.596 . S
O424 Tb422 2.343 . S
O424 C439 1.259 . S
O425 Tb420 2.374 . S
O425 C421 1.251 . S
C426 O430 1.275 . S
C426 O431 1.246 . S
O427 C421 1.263 . S
O427 Tb422 2.353 . S
C428 O432 1.245 . S
C428 O433 1.259 . S
C429 O434 1.250 . S
C429 O435 1.263 . S
O430 Tb422 2.427 . S
O430 C426 1.275 . S
O431 Tb422 2.513 . S
O431 C426 1.246 . S
O432 Tb422 2.453 . S
O432 C428 1.245 . S
O433 Tb420 2.343 . S
O433 Tb422 2.596 . S
O433 C428 1.259 . S
O434 Tb422 2.374 . S
O434 C429 1.250 . S
O435 Tb420 2.353 . S
O435 C429 1.263 . S
C436 O437 1.275 . S
C436 O438 1.246 . S
O437 Tb420 2.427 . S
O437 C436 1.275 . S
O438 Tb420 2.513 . S
O438 C436 1.246 . S
C439 O423 1.245 . S
C439 O424 1.259 . S
Tb440 O443 2.453 . S
Tb440 O444 2.596 . S
Tb440 O445 2.374 . S
Tb440 O453 2.343 . S
Tb440 O455 2.353 . S
Tb440 O457 2.427 . S
Tb440 O458 2.513 . S
C441 O445 1.251 . S
C441 O447 1.263 . S
Tb442 O444 2.343 . S
Tb442 O447 2.353 . S
Tb442 O450 2.427 . S
Tb442 O451 2.513 . S
Tb442 O452 2.453 . S
Tb442 O453 2.596 . S
Tb442 O454 2.374 . S
O443 Tb440 2.453 . S
O443 C459 1.245 . S
O444 Tb440 2.596 . S
O444 Tb442 2.343 . S
O444 C459 1.259 . S
O445 Tb440 2.374 . S
O445 C441 1.251 . S
C446 O450 1.275 . S
C446 O451 1.246 . S
O447 C441 1.263 . S
O447 Tb442 2.353 . S
C448 O452 1.245 . S
C448 O453 1.259 . S
C449 O454 1.250 . S
C449 O455 1.263 . S
O450 Tb442 2.427 . S
O450 C446 1.275 . S
O451 Tb442 2.513 . S
O451 C446 1.246 . S
O452 Tb442 2.453 . S
O452 C448 1.245 . S
O453 Tb440 2.343 . S
O453 Tb442 2.596 . S
O453 C448 1.259 . S
O454 Tb442 2.374 . S
O454 C449 1.250 . S
O455 Tb440 2.353 . S
O455 C449 1.263 . S
C456 O457 1.275 . S
C456 O458 1.246 . S
O457 Tb440 2.427 . S
O457 C456 1.275 . S
O458 Tb440 2.513 . S
O458 C456 1.246 . S
C459 O443 1.245 . S
C459 O444 1.259 . S
Tb460 O463 2.453 . S
Tb460 O464 2.596 . S
Tb460 O465 2.374 . S
Tb460 O473 2.343 . S
Tb460 O475 2.353 . S
Tb460 O477 2.427 . S
Tb460 O478 2.513 . S
C461 O465 1.251 . S
C461 O467 1.263 . S
Tb462 O464 2.343 . S
Tb462 O467 2.353 . S
Tb462 O470 2.427 . S
Tb462 O471 2.513 . S
Tb462 O472 2.453 . S
Tb462 O473 2.596 . S
Tb462 O474 2.374 . S
O463 Tb460 2.453 . S
O463 C479 1.245 . S
O464 Tb460 2.596 . S
O464 Tb462 2.343 . S
O464 C479 1.259 . S
O465 Tb460 2.374 . S
O465 C461 1.251 . S
C466 O470 1.275 . S
C466 O471 1.246 . S
O467 C461 1.263 . S
O467 Tb462 2.353 . S
C468 O472 1.245 . S
C468 O473 1.259 . S
C469 O474 1.250 . S
C469 O475 1.263 . S
O470 Tb462 2.427 . S
O470 C466 1.275 . S
O471 Tb462 2.513 . S
O471 C466 1.246 . S
O472 Tb462 2.453 . S
O472 C468 1.245 . S
O473 Tb460 2.343 . S
O473 Tb462 2.596 . S
O473 C468 1.259 . S
O474 Tb462 2.374 . S
O474 C469 1.250 . S
O475 Tb460 2.353 . S
O475 C469 1.263 . S
C476 O477 1.275 . S
C476 O478 1.246 . S
O477 Tb460 2.427 . S
O477 C476 1.275 . S
O478 Tb460 2.513 . S
O478 C476 1.246 . S
C479 O463 1.245 . S
C479 O464 1.259 . S
Tb480 O483 2.453 . S
Tb480 O484 2.596 . S
Tb480 O485 2.374 . S
Tb480 O493 2.343 . S
Tb480 O495 2.353 . S
Tb480 O497 2.427 . S
Tb480 O498 2.513 . S
C481 O485 1.251 . S
C481 O487 1.263 . S
Tb482 O484 2.343 . S
Tb482 O487 2.353 . S
Tb482 O490 2.427 . S
Tb482 O491 2.513 . S
Tb482 O492 2.453 . S
Tb482 O493 2.596 . S
Tb482 O494 2.374 . S
O483 Tb480 2.453 . S
O483 C499 1.245 . S
O484 Tb480 2.596 . S
O484 Tb482 2.343 . S
O484 C499 1.259 . S
O485 Tb480 2.374 . S
O485 C481 1.251 . S
C486 O490 1.275 . S
C486 O491 1.246 . S
O487 C481 1.263 . S
O487 Tb482 2.353 . S
C488 O492 1.245 . S
C488 O493 1.259 . S
C489 O494 1.250 . S
C489 O495 1.263 . S
O490 Tb482 2.427 . S
O490 C486 1.275 . S
O491 Tb482 2.513 . S
O491 C486 1.246 . S
O492 Tb482 2.453 . S
O492 C488 1.245 . S
O493 Tb480 2.343 . S
O493 Tb482 2.596 . S
O493 C488 1.259 . S
O494 Tb482 2.374 . S
O494 C489 1.250 . S
O495 Tb480 2.353 . S
O495 C489 1.263 . S
C496 O497 1.275 . S
C496 O498 1.246 . S
O497 Tb480 2.427 . S
O497 C496 1.275 . S
O498 Tb480 2.513 . S
O498 C496 1.246 . S
C499 O483 1.245 . S
C499 O484 1.259 . S
Tb500 O503 2.453 . S
Tb500 O504 2.596 . S
Tb500 O505 2.374 . S
Tb500 O513 2.343 . S
Tb500 O515 2.353 . S
Tb500 O517 2.427 . S
Tb500 O518 2.513 . S
C501 O505 1.251 . S
C501 O507 1.263 . S
Tb502 O504 2.343 . S
Tb502 O507 2.353 . S
Tb502 O510 2.427 . S
Tb502 O511 2.513 . S
Tb502 O512 2.453 . S
Tb502 O513 2.596 . S
Tb502 O514 2.374 . S
O503 Tb500 2.453 . S
O503 C519 1.245 . S
O504 Tb500 2.596 . S
O504 Tb502 2.343 . S
O504 C519 1.259 . S
O505 Tb500 2.374 . S
O505 C501 1.251 . S
C506 O510 1.275 . S
C506 O511 1.246 . S
O507 C501 1.263 . S
O507 Tb502 2.353 . S
C508 O512 1.245 . S
C508 O513 1.259 . S
C509 O514 1.250 . S
C509 O515 1.263 . S
O510 Tb502 2.427 . S
O510 C506 1.275 . S
O511 Tb502 2.513 . S
O511 C506 1.246 . S
O512 Tb502 2.453 . S
O512 C508 1.245 . S
O513 Tb500 2.343 . S
O513 Tb502 2.596 . S
O513 C508 1.259 . S
O514 Tb502 2.374 . S
O514 C509 1.250 . S
O515 Tb500 2.353 . S
O515 C509 1.263 . S
C516 O517 1.275 . S
C516 O518 1.246 . S
O517 Tb500 2.427 . S
O517 C516 1.275 . S
O518 Tb500 2.513 . S
O518 C516 1.246 . S
C519 O503 1.245 . S
C519 O504 1.259 . S
Tb520 O523 2.453 . S
Tb520 O524 2.596 . S
Tb520 O525 2.374 . S
Tb520 O533 2.343 . S
Tb520 O535 2.353 . S
Tb520 O537 2.427 . S
Tb520 O538 2.513 . S
C521 O525 1.251 . S
C521 O527 1.263 . S
Tb522 O524 2.343 . S
Tb522 O527 2.353 . S
Tb522 O530 2.427 . S
Tb522 O531 2.513 . S
Tb522 O532 2.453 . S
Tb522 O533 2.596 . S
Tb522 O534 2.374 . S
O523 Tb520 2.453 . S
O523 C539 1.245 . S
O524 Tb520 2.596 . S
O524 Tb522 2.343 . S
O524 C539 1.259 . S
O525 Tb520 2.374 . S
O525 C521 1.251 . S
C526 O530 1.275 . S
C526 O531 1.246 . S
O527 C521 1.263 . S
O527 Tb522 2.353 . S
C528 O532 1.245 . S
C528 O533 1.259 . S
C529 O534 1.250 . S
C529 O535 1.263 . S
O530 Tb522 2.427 . S
O530 C526 1.275 . S
O531 Tb522 2.513 . S
O531 C526 1.246 . S
O532 Tb522 2.453 . S
O532 C528 1.245 . S
O533 Tb520 2.343 . S
O533 Tb522 2.596 . S
O533 C528 1.259 . S
O534 Tb522 2.374 . S
O534 C529 1.250 . S
O535 Tb520 2.353 . S
O535 C529 1.263 . S
C536 O537 1.275 . S
C536 O538 1.246 . S
O537 Tb520 2.427 . S
O537 C536 1.275 . S
O538 Tb520 2.513 . S
O538 C536 1.246 . S
C539 O523 1.245 . S
C539 O524 1.259 . S
Tb540 O543 2.453 . S
Tb540 O544 2.596 . S
Tb540 O545 2.374 . S
Tb540 O553 2.343 . S
Tb540 O555 2.353 . S
Tb540 O557 2.427 . S
Tb540 O558 2.513 . S
C541 O545 1.251 . S
C541 O547 1.263 . S
Tb542 O544 2.343 . S
Tb542 O547 2.353 . S
Tb542 O550 2.427 . S
Tb542 O551 2.513 . S
Tb542 O552 2.453 . S
Tb542 O553 2.596 . S
Tb542 O554 2.374 . S
O543 Tb540 2.453 . S
O543 C559 1.245 . S
O544 Tb540 2.596 . S
O544 Tb542 2.343 . S
O544 C559 1.259 . S
O545 Tb540 2.374 . S
O545 C541 1.251 . S
C546 O550 1.275 . S
C546 O551 1.246 . S
O547 C541 1.263 . S
O547 Tb542 2.353 . S
C548 O552 1.245 . S
C548 O553 1.259 . S
C549 O554 1.250 . S
C549 O555 1.263 . S
O550 Tb542 2.427 . S
O550 C546 1.275 . S
O551 Tb542 2.513 . S
O551 C546 1.246 . S
O552 Tb542 2.453 . S
O552 C548 1.245 . S
O553 Tb540 2.343 . S
O553 Tb542 2.596 . S
O553 C548 1.259 . S
O554 Tb542 2.374 . S
O554 C549 1.250 . S
O555 Tb540 2.353 . S
O555 C549 1.263 . S
C556 O557 1.275 . S
C556 O558 1.246 . S
O557 Tb540 2.427 . S
O557 C556 1.275 . S
O558 Tb540 2.513 . S
O558 C556 1.246 . S
C559 O543 1.245 . S
C559 O544 1.259 . S
Tb560 O563 2.453 . S
Tb560 O564 2.596 . S
Tb560 O565 2.374 . S
Tb560 O573 2.343 . S
Tb560 O575 2.353 . S
Tb560 O577 2.427 . S
Tb560 O578 2.513 . S
C561 O565 1.251 . S
C561 O567 1.263 . S
Tb562 O564 2.343 . S
Tb562 O567 2.353 . S
Tb562 O570 2.427 . S
Tb562 O571 2.513 . S
Tb562 O572 2.453 . S
Tb562 O573 2.596 . S
Tb562 O574 2.374 . S
O563 Tb560 2.453 . S
O563 C579 1.245 . S
O564 Tb560 2.596 . S
O564 Tb562 2.343 . S
O564 C579 1.259 . S
O565 Tb560 2.374 . S
O565 C561 1.251 . S
C566 O570 1.275 . S
C566 O571 1.246 . S
O567 C561 1.263 . S
O567 Tb562 2.353 . S
C568 O572 1.245 . S
C568 O573 1.259 . S
C569 O574 1.250 . S
C569 O575 1.263 . S
O570 Tb562 2.427 . S
O570 C566 1.275 . S
O571 Tb562 2.513 . S
O571 C566 1.246 . S
O572 Tb562 2.453 . S
O572 C568 1.245 . S
O573 Tb560 2.343 . S
O573 Tb562 2.596 . S
O573 C568 1.259 . S
O574 Tb562 2.374 . S
O574 C569 1.250 . S
O575 Tb560 2.353 . S
O575 C569 1.263 . S
C576 O577 1.275 . S
C576 O578 1.246 . S
O577 Tb560 2.427 . S
O577 C576 1.275 . S
O578 Tb560 2.513 . S
O578 C576 1.246 . S
C579 O563 1.245 . S
C579 O564 1.259 . S
Tb580 O583 2.453 . S
Tb580 O584 2.596 . S
Tb580 O585 2.374 . S
Tb580 O593 2.343 . S
Tb580 O595 2.353 . S
Tb580 O597 2.427 . S
Tb580 O598 2.513 . S
C581 O585 1.251 . S
C581 O587 1.263 . S
Tb582 O584 2.343 . S
Tb582 O587 2.353 . S
Tb582 O590 2.427 . S
Tb582 O591 2.513 . S
Tb582 O592 2.453 . S
Tb582 O593 2.596 . S
Tb582 O594 2.374 . S
O583 Tb580 2.453 . S
O583 C599 1.245 . S
O584 Tb580 2.596 . S
O584 Tb582 2.343 . S
O584 C599 1.259 . S
O585 Tb580 2.374 . S
O585 C581 1.251 . S
C586 O590 1.275 . S
C586 O591 1.246 . S
O587 C581 1.263 . S
O587 Tb582 2.353 . S
C588 O592 1.245 . S
C588 O593 1.259 . S
C589 O594 1.250 . S
C589 O595 1.263 . S
O590 Tb582 2.427 . S
O590 C586 1.275 . S
O591 Tb582 2.513 . S
O591 C586 1.246 . S
O592 Tb582 2.453 . S
O592 C588 1.245 . S
O593 Tb580 2.343 . S
O593 Tb582 2.596 . S
O593 C588 1.259 . S
O594 Tb582 2.374 . S
O594 C589 1.250 . S
O595 Tb580 2.353 . S
O595 C589 1.263 . S
C596 O597 1.275 . S
C596 O598 1.246 . S
O597 Tb580 2.427 . S
O597 C596 1.275 . S
O598 Tb580 2.513 . S
O598 C596 1.246 . S
C599 O583 1.245 . S
C599 O584 1.259 . S
Tb600 O603 2.453 . S
Tb600 O604 2.596 . S
Tb600 O605 2.374 . S
Tb600 O613 2.343 . S
Tb600 O615 2.353 . S
Tb600 O617 2.427 . S
Tb600 O618 2.513 . S
C601 O605 1.251 . S
C601 O607 1.263 . S
Tb602 O604 2.343 . S
Tb602 O607 2.353 . S
Tb602 O610 2.427 . S
Tb602 O611 2.513 . S
Tb602 O612 2.453 . S
Tb602 O613 2.596 . S
Tb602 O614 2.374 . S
O603 Tb600 2.453 . S
O603 C619 1.245 . S
O604 Tb600 2.596 . S
O604 Tb602 2.343 . S
O604 C619 1.259 . S
O605 Tb600 2.374 . S
O605 C601 1.251 . S
C606 O610 1.275 . S
C606 O611 1.246 . S
O607 C601 1.263 . S
O607 Tb602 2.353 . S
C608 O612 1.245 . S
C608 O613 1.259 . S
C609 O614 1.250 . S
C609 O615 1.263 . S
O610 Tb602 2.427 . S
O610 C606 1.275 . S
O611 Tb602 2.513 . S
O611 C606 1.246 . S
O612 Tb602 2.453 . S
O612 C608 1.245 . S
O613 Tb600 2.343 . S
O613 Tb602 2.596 . S
O613 C608 1.259 . S
O614 Tb602 2.374 . S
O614 C609 1.250 . S
O615 Tb600 2.353 . S
O615 C609 1.263 . S
C616 O617 1.275 . S
C616 O618 1.246 . S
O617 Tb600 2.427 . S
O617 C616 1.275 . S
O618 Tb600 2.513 . S
O618 C616 1.246 . S
C619 O603 1.245 . S
C619 O604 1.259 . S
Tb620 O623 2.453 . S
Tb620 O624 2.596 . S
Tb620 O625 2.374 . S
Tb620 O633 2.343 . S
Tb620 O635 2.353 . S
Tb620 O637 2.427 . S
Tb620 O638 2.513 . S
C621 O625 1.251 . S
C621 O627 1.263 . S
Tb622 O624 2.343 . S
Tb622 O627 2.353 . S
Tb622 O630 2.427 . S
Tb622 O631 2.513 . S
Tb622 O632 2.453 . S
Tb622 O633 2.596 . S
Tb622 O634 2.374 . S
O623 Tb620 2.453 . S
O623 C639 1.245 . S
O624 Tb620 2.596 . S
O624 Tb622 2.343 . S
O624 C639 1.259 . S
O625 Tb620 2.374 . S
O625 C621 1.251 . S
C626 O630 1.275 . S
C626 O631 1.246 . S
O627 C621 1.263 . S
O627 Tb622 2.353 . S
C628 O632 1.245 . S
C628 O633 1.259 . S
C629 O634 1.250 . S
C629 O635 1.263 . S
O630 Tb622 2.427 . S
O630 C626 1.275 . S
O631 Tb622 2.513 . S
O631 C626 1.246 . S
O632 Tb622 2.453 . S
O632 C628 1.245 . S
O633 Tb620 2.343 . S
O633 Tb622 2.596 . S
O633 C628 1.259 . S
O634 Tb622 2.374 . S
O634 C629 1.250 . S
O635 Tb620 2.353 . S
O635 C629 1.263 . S
C636 O637 1.275 . S
C636 O638 1.246 . S
O637 Tb620 2.427 . S
O637 C636 1.275 . S
O638 Tb620 2.513 . S
O638 C636 1.246 . S
C639 O623 1.245 . S
C639 O624 1.259 . S
Tb640 O643 2.453 . S
Tb640 O644 2.596 . S
Tb640 O645 2.374 . S
Tb640 O653 2.343 . S
Tb640 O655 2.353 . S
Tb640 O657 2.427 . S
Tb640 O658 2.513 . S
C641 O645 1.251 . S
C641 O647 1.263 . S
Tb642 O644 2.343 . S
Tb642 O647 2.353 . S
Tb642 O650 2.427 . S
Tb642 O651 2.513 . S
Tb642 O652 2.453 . S
Tb642 O653 2.596 . S
Tb642 O654 2.374 . S
O643 Tb640 2.453 . S
O643 C659 1.245 . S
O644 Tb640 2.596 . S
O644 Tb642 2.343 . S
O644 C659 1.259 . S
O645 Tb640 2.374 . S
O645 C641 1.251 . S
C646 O650 1.275 . S
C646 O651 1.246 . S
O647 C641 1.263 . S
O647 Tb642 2.353 . S
C648 O652 1.245 . S
C648 O653 1.259 . S
C649 O654 1.250 . S
C649 O655 1.263 . S
O650 Tb642 2.427 . S
O650 C646 1.275 . S
O651 Tb642 2.513 . S
O651 C646 1.246 . S
O652 Tb642 2.453 . S
O652 C648 1.245 . S
O653 Tb640 2.343 . S
O653 Tb642 2.596 . S
O653 C648 1.259 . S
O654 Tb642 2.374 . S
O654 C649 1.250 . S
O655 Tb640 2.353 . S
O655 C649 1.263 . S
C656 O657 1.275 . S
C656 O658 1.246 . S
O657 Tb640 2.427 . S
O657 C656 1.275 . S
O658 Tb640 2.513 . S
O658 C656 1.246 . S
C659 O643 1.245 . S
C659 O644 1.259 . S
Tb660 O663 2.453 . S
Tb660 O664 2.596 . S
Tb660 O665 2.374 . S
Tb660 O673 2.343 . S
Tb660 O675 2.353 . S
Tb660 O677 2.427 . S
Tb660 O678 2.513 . S
C661 O665 1.251 . S
C661 O667 1.263 . S
Tb662 O664 2.343 . S
Tb662 O667 2.353 . S
Tb662 O670 2.427 . S
Tb662 O671 2.513 . S
Tb662 O672 2.453 . S
Tb662 O673 2.596 . S
Tb662 O674 2.374 . S
O663 Tb660 2.453 . S
O663 C679 1.245 . S
O664 Tb660 2.596 . S
O664 Tb662 2.343 . S
O664 C679 1.259 . S
O665 Tb660 2.374 . S
O665 C661 1.251 . S
C666 O670 1.275 . S
C666 O671 1.246 . S
O667 C661 1.263 . S
O667 Tb662 2.353 . S
C668 O672 1.245 . S
C668 O673 1.259 . S
C669 O674 1.250 . S
C669 O675 1.263 . S
O670 Tb662 2.427 . S
O670 C666 1.275 . S
O671 Tb662 2.513 . S
O671 C666 1.246 . S
O672 Tb662 2.453 . S
O672 C668 1.245 . S
O673 Tb660 2.343 . S
O673 Tb662 2.596 . S
O673 C668 1.259 . S
O674 Tb662 2.374 . S
O674 C669 1.250 . S
O675 Tb660 2.353 . S
O675 C669 1.263 . S
C676 O677 1.275 . S
C676 O678 1.246 . S
O677 Tb660 2.427 . S
O677 C676 1.275 . S
O678 Tb660 2.513 . S
O678 C676 1.246 . S
C679 O663 1.245 . S
C679 O664 1.259 . S
Tb680 O683 2.453 . S
Tb680 O684 2.596 . S
Tb680 O685 2.374 . S
Tb680 O693 2.343 . S
Tb680 O695 2.353 . S
Tb680 O697 2.427 . S
Tb680 O698 2.513 . S
C681 O685 1.251 . S
C681 O687 1.263 . S
Tb682 O684 2.343 . S
Tb682 O687 2.353 . S
Tb682 O690 2.427 . S
Tb682 O691 2.513 . S
Tb682 O692 2.453 . S
Tb682 O693 2.596 . S
Tb682 O694 2.374 . S
O683 Tb680 2.453 . S
O683 C699 1.245 . S
O684 Tb680 2.596 . S
O684 Tb682 2.343 . S
O684 C699 1.259 . S
O685 Tb680 2.374 . S
O685 C681 1.251 . S
C686 O690 1.275 . S
C686 O691 1.246 . S
O687 C681 1.263 . S
O687 Tb682 2.353 . S
C688 O692 1.245 . S
C688 O693 1.259 . S
C689 O694 1.250 . S
C689 O695 1.263 . S
O690 Tb682 2.427 . S
O690 C686 1.275 . S
O691 Tb682 2.513 . S
O691 C686 1.246 . S
O692 Tb682 2.453 . S
O692 C688 1.245 . S
O693 Tb680 2.343 . S
O693 Tb682 2.596 . S
O693 C688 1.259 . S
O694 Tb682 2.374 . S
O694 C689 1.250 . S
O695 Tb680 2.353 . S
O695 C689 1.263 . S
C696 O697 1.275 . S
C696 O698 1.246 . S
O697 Tb680 2.427 . S
O697 C696 1.275 . S
O698 Tb680 2.513 . S
O698 C696 1.246 . S
C699 O683 1.245 . S
C699 O684 1.259 . S
Tb700 O703 2.453 . S
Tb700 O704 2.596 . S
Tb700 O705 2.374 . S
Tb700 O713 2.343 . S
Tb700 O715 2.353 . S
Tb700 O717 2.427 . S
Tb700 O718 2.513 . S
C701 O705 1.251 . S
C701 O707 1.263 . S
Tb702 O704 2.343 . S
Tb702 O707 2.353 . S
Tb702 O710 2.427 . S
Tb702 O711 2.513 . S
Tb702 O712 2.453 . S
Tb702 O713 2.596 . S
Tb702 O714 2.374 . S
O703 Tb700 2.453 . S
O703 C719 1.245 . S
O704 Tb700 2.596 . S
O704 Tb702 2.343 . S
O704 C719 1.259 . S
O705 Tb700 2.374 . S
O705 C701 1.251 . S
C706 O710 1.275 . S
C706 O711 1.246 . S
O707 C701 1.263 . S
O707 Tb702 2.353 . S
C708 O712 1.245 . S
C708 O713 1.259 . S
C709 O714 1.250 . S
C709 O715 1.263 . S
O710 Tb702 2.427 . S
O710 C706 1.275 . S
O711 Tb702 2.513 . S
O711 C706 1.246 . S
O712 Tb702 2.453 . S
O712 C708 1.245 . S
O713 Tb700 2.343 . S
O713 Tb702 2.596 . S
O713 C708 1.259 . S
O714 Tb702 2.374 . S
O714 C709 1.250 . S
O715 Tb700 2.353 . S
O715 C709 1.263 . S
C716 O717 1.275 . S
C716 O718 1.246 . S
O717 Tb700 2.427 . S
O717 C716 1.275 . S
O718 Tb700 2.513 . S
O718 C716 1.246 . S
C719 O703 1.245 . S
C719 O704 1.259 . S
C720 C721 1.349 . S
C720 C722 1.327 . S
C720 H745 0.950 . S
C721 C720 1.349 . S
C721 C737 1.349 . S
C722 C720 1.327 . S
C722 C741 1.429 . S
C722 H746 0.950 . S
C723 C740 1.574 . S
C723 C742 1.368 . S
C723 H747 0.949 . S
H724 C728 0.949 . S
C725 C726 1.349 . S
C725 C727 1.327 . S
C725 H748 0.950 . S
C726 C725 1.349 . S
C726 C738 1.349 . S
C727 C725 1.327 . S
C727 C743 1.429 . S
C727 H749 0.950 . S
C728 H724 0.949 . S
C728 C736 1.574 . S
C728 C744 1.368 . S
H729 C737 0.950 . S
H730 C735 0.950 . S
H731 C736 0.949 . S
H732 C738 0.950 . S
H733 C739 0.950 . S
H734 C740 0.949 . S
C735 H730 0.950 . S
C735 C737 1.327 . S
C735 C741 1.429 . S
C736 C728 1.574 . S
C736 H731 0.949 . S
C736 C742 1.368 . S
C737 C721 1.349 . S
C737 H729 0.950 . S
C737 C735 1.327 . S
C738 C726 1.349 . S
C738 H732 0.950 . S
C738 C739 1.327 . S
C739 H733 0.950 . S
C739 C738 1.327 . S
C739 C743 1.429 . S
C740 C723 1.574 . S
C740 H734 0.949 . S
C740 C744 1.368 . S
C741 C722 1.429 . S
C741 C735 1.429 . S
C741 C742 1.523 . S
C742 C723 1.368 . S
C742 C736 1.368 . S
C742 C741 1.523 . S
C743 C727 1.429 . S
C743 C739 1.429 . S
C743 C744 1.523 . S
C744 C728 1.368 . S
C744 C740 1.368 . S
C744 C743 1.523 . S
H745 C720 0.950 . S
H746 C722 0.950 . S
H747 C723 0.949 . S
H748 C725 0.950 . S
H749 C727 0.950 . S
C750 C751 1.349 . S
C750 C752 1.327 . S
C750 H775 0.950 . S
C751 C750 1.349 . S
C751 C767 1.349 . S
C752 C750 1.327 . S
C752 C771 1.429 . S
C752 H776 0.950 . S
C753 C770 1.574 . S
C753 C772 1.368 . S
C753 H777 0.949 . S
H754 C758 0.949 1_455 S
C755 C756 1.349 . S
C755 C757 1.327 . S
C755 H778 0.950 . S
C756 C755 1.349 . S
C756 C768 1.349 1_655 S
C757 C755 1.327 . S
C757 C773 1.429 . S
C757 H779 0.950 . S
C758 H754 0.949 1_655 S
C758 C766 1.574 . S
C758 C774 1.368 . S
H759 C767 0.950 . S
H760 C765 0.950 . S
H761 C766 0.949 . S
H762 C768 0.950 . S
H763 C769 0.950 . S
H764 C770 0.949 . S
C765 H760 0.950 . S
C765 C767 1.327 . S
C765 C771 1.429 . S
C766 C758 1.574 . S
C766 H761 0.949 . S
C766 C772 1.368 . S
C767 C751 1.349 . S
C767 H759 0.950 . S
C767 C765 1.327 . S
C768 C756 1.349 1_455 S
C768 H762 0.950 . S
C768 C769 1.327 . S
C769 H763 0.950 . S
C769 C768 1.327 . S
C769 C773 1.429 1_455 S
C770 C753 1.574 . S
C770 H764 0.949 . S
C770 C774 1.368 . S
C771 C752 1.429 . S
C771 C765 1.429 . S
C771 C772 1.523 . S
C772 C753 1.368 . S
C772 C766 1.368 . S
C772 C771 1.523 . S
C773 C757 1.429 . S
C773 C769 1.429 1_655 S
C773 C774 1.523 . S
C774 C758 1.368 . S
C774 C770 1.368 . S
C774 C773 1.523 . S
H775 C750 0.950 . S
H776 C752 0.950 . S
H777 C753 0.949 . S
H778 C755 0.950 . S
H779 C757 0.950 . S
C780 C781 1.349 . S
C780 C782 1.327 . S
C780 H805 0.950 . S
C781 C780 1.349 . S
C781 C797 1.349 . S
C782 C780 1.327 . S
C782 C801 1.429 . S
C782 H806 0.950 . S
C783 C800 1.574 . S
C783 C802 1.368 . S
C783 H807 0.949 . S
H784 C788 0.949 . S
C785 C786 1.349 . S
C785 C787 1.327 . S
C785 H808 0.950 . S
C786 C785 1.349 . S
C786 C798 1.349 . S
C787 C785 1.327 . S
C787 C803 1.429 . S
C787 H809 0.950 . S
C788 H784 0.949 . S
C788 C796 1.574 . S
C788 C804 1.368 . S
H789 C797 0.950 . S
H790 C795 0.950 . S
H791 C796 0.949 . S
H792 C798 0.950 . S
H793 C799 0.950 . S
H794 C800 0.949 . S
C795 H790 0.950 . S
C795 C797 1.327 . S
C795 C801 1.429 . S
C796 C788 1.574 . S
C796 H791 0.949 . S
C796 C802 1.368 . S
C797 C781 1.349 . S
C797 H789 0.950 . S
C797 C795 1.327 . S
C798 C786 1.349 . S
C798 H792 0.950 . S
C798 C799 1.327 . S
C799 H793 0.950 . S
C799 C798 1.327 . S
C799 C803 1.429 . S
C800 C783 1.574 . S
C800 H794 0.949 . S
C800 C804 1.368 . S
C801 C782 1.429 . S
C801 C795 1.429 . S
C801 C802 1.523 . S
C802 C783 1.368 . S
C802 C796 1.368 . S
C802 C801 1.523 . S
C803 C787 1.429 . S
C803 C799 1.429 . S
C803 C804 1.523 . S
C804 C788 1.368 . S
C804 C800 1.368 . S
C804 C803 1.523 . S
H805 C780 0.950 . S
H806 C782 0.950 . S
H807 C783 0.949 . S
H808 C785 0.950 . S
H809 C787 0.950 . S
C810 C811 1.349 . S
C810 C812 1.327 . S
C810 H835 0.950 . S
C811 C810 1.349 . S
C811 C827 1.349 . S
C812 C810 1.327 . S
C812 C831 1.429 . S
C812 H836 0.950 . S
C813 C830 1.574 . S
C813 C832 1.368 . S
C813 H837 0.949 . S
H814 C818 0.949 . S
C815 C816 1.349 . S
C815 C817 1.327 . S
C815 H838 0.950 . S
C816 C815 1.349 . S
C816 C828 1.349 . S
C817 C815 1.327 . S
C817 C833 1.429 . S
C817 H839 0.950 . S
C818 H814 0.949 . S
C818 C826 1.574 . S
C818 C834 1.368 . S
H819 C827 0.950 . S
H820 C825 0.950 . S
H821 C826 0.949 . S
H822 C828 0.950 . S
H823 C829 0.950 . S
H824 C830 0.949 . S
C825 H820 0.950 . S
C825 C827 1.327 . S
C825 C831 1.429 . S
C826 C818 1.574 . S
C826 H821 0.949 . S
C826 C832 1.368 . S
C827 C811 1.349 . S
C827 H819 0.950 . S
C827 C825 1.327 . S
C828 C816 1.349 . S
C828 H822 0.950 . S
C828 C829 1.327 . S
C829 H823 0.950 . S
C829 C828 1.327 . S
C829 C833 1.429 . S
C830 C813 1.574 . S
C830 H824 0.949 . S
C830 C834 1.368 . S
C831 C812 1.429 . S
C831 C825 1.429 . S
C831 C832 1.523 . S
C832 C813 1.368 . S
C832 C826 1.368 . S
C832 C831 1.523 . S
C833 C817 1.429 . S
C833 C829 1.429 . S
C833 C834 1.523 . S
C834 C818 1.368 . S
C834 C830 1.368 . S
C834 C833 1.523 . S
H835 C810 0.950 . S
H836 C812 0.950 . S
H837 C813 0.949 . S
H838 C815 0.950 . S
H839 C817 0.950 . S
C840 C841 1.349 . S
C840 C842 1.327 . S
C840 H865 0.950 . S
C841 C840 1.349 . S
C841 C857 1.349 . S
C842 C840 1.327 . S
C842 C861 1.429 . S
C842 H866 0.950 . S
C843 C860 1.574 . S
C843 C862 1.368 . S
C843 H867 0.949 . S
H844 C848 0.949 . S
C845 C846 1.349 . S
C845 C847 1.327 . S
C845 H868 0.950 . S
C846 C845 1.349 . S
C846 C858 1.349 . S
C847 C845 1.327 . S
C847 C863 1.429 . S
C847 H869 0.950 . S
C848 H844 0.949 . S
C848 C856 1.574 . S
C848 C864 1.368 . S
H849 C857 0.950 . S
H850 C855 0.950 . S
H851 C856 0.949 . S
H852 C858 0.950 . S
H853 C859 0.950 . S
H854 C860 0.949 . S
C855 H850 0.950 . S
C855 C857 1.327 . S
C855 C861 1.429 . S
C856 C848 1.574 . S
C856 H851 0.949 . S
C856 C862 1.368 . S
C857 C841 1.349 . S
C857 H849 0.950 . S
C857 C855 1.327 . S
C858 C846 1.349 . S
C858 H852 0.950 . S
C858 C859 1.327 . S
C859 H853 0.950 . S
C859 C858 1.327 . S
C859 C863 1.429 . S
C860 C843 1.574 . S
C860 H854 0.949 . S
C860 C864 1.368 . S
C861 C842 1.429 . S
C861 C855 1.429 . S
C861 C862 1.523 . S
C862 C843 1.368 . S
C862 C856 1.368 . S
C862 C861 1.523 . S
C863 C847 1.429 . S
C863 C859 1.429 . S
C863 C864 1.523 . S
C864 C848 1.368 . S
C864 C860 1.368 . S
C864 C863 1.523 . S
H865 C840 0.950 . S
H866 C842 0.950 . S
H867 C843 0.949 . S
H868 C845 0.950 . S
H869 C847 0.950 . S
C870 C871 1.349 . S
C870 C872 1.327 . S
C870 H895 0.950 . S
C871 C870 1.349 . S
C871 C887 1.349 . S
C872 C870 1.327 . S
C872 C891 1.429 . S
C872 H896 0.950 . S
C873 C890 1.574 . S
C873 C892 1.368 . S
C873 H897 0.949 . S
H874 C878 0.949 . S
C875 C876 1.349 1_545 S
C875 C877 1.327 . S
C875 H898 0.950 . S
C876 C875 1.349 1_565 S
C876 C888 1.349 . S
C877 C875 1.327 . S
C877 C893 1.429 1_545 S
C877 H899 0.950 . S
C878 H874 0.949 . S
C878 C886 1.574 . S
C878 C894 1.368 . S
H879 C887 0.950 . S
H880 C885 0.950 . S
H881 C886 0.949 . S
H882 C888 0.950 . S
H883 C889 0.950 . S
H884 C890 0.949 1_545 S
C885 H880 0.950 . S
C885 C887 1.327 . S
C885 C891 1.429 . S
C886 C878 1.574 . S
C886 H881 0.949 . S
C886 C892 1.368 . S
C887 C871 1.349 . S
C887 H879 0.950 . S
C887 C885 1.327 . S
C888 C876 1.349 . S
C888 H882 0.950 . S
C888 C889 1.327 . S
C889 H883 0.950 . S
C889 C888 1.327 . S
C889 C893 1.429 . S
C890 C873 1.574 . S
C890 H884 0.949 1_565 S
C890 C894 1.368 . S
C891 C872 1.429 . S
C891 C885 1.429 . S
C891 C892 1.523 . S
C892 C873 1.368 . S
C892 C886 1.368 . S
C892 C891 1.523 . S
C893 C877 1.429 1_565 S
C893 C889 1.429 . S
C893 C894 1.523 . S
C894 C878 1.368 . S
C894 C890 1.368 . S
C894 C893 1.523 . S
H895 C870 0.950 . S
H896 C872 0.950 . S
H897 C873 0.949 . S
H898 C875 0.950 . S
H899 C877 0.950 . S
C900 C901 1.349 . S
C900 C902 1.327 . S
C900 H925 0.950 . S
C901 C900 1.349 . S
C901 C917 1.349 1_565 S
C902 C900 1.327 . S
C902 C921 1.429 . S
C902 H926 0.950 . S
C903 C920 1.574 . S
C903 C922 1.368 . S
C903 H927 0.949 1_565 S
H904 C908 0.949 . S
C905 C906 1.349 . S
C905 C907 1.327 . S
C905 H928 0.950 . S
C906 C905 1.349 . S
C906 C918 1.349 . S
C907 C905 1.327 . S
C907 C923 1.429 . S
C907 H929 0.950 . S
C908 H904 0.949 . S
C908 C916 1.574 . S
C908 C924 1.368 . S
H909 C917 0.950 . S
H910 C915 0.950 . S
H911 C916 0.949 . S
H912 C918 0.950 . S
H913 C919 0.950 . S
H914 C920 0.949 . S
C915 H910 0.950 . S
C915 C917 1.327 . S
C915 C921 1.429 1_545 S
C916 C908 1.574 . S
C916 H911 0.949 . S
C916 C922 1.368 . S
C917 C901 1.349 1_545 S
C917 H909 0.950 . S
C917 C915 1.327 . S
C918 C906 1.349 . S
C918 H912 0.950 . S
C918 C919 1.327 . S
C919 H913 0.950 . S
C919 C918 1.327 . S
C919 C923 1.429 . S
C920 C903 1.574 . S
C920 H914 0.949 . S
C920 C924 1.368 . S
C921 C902 1.429 . S
C921 C915 1.429 1_565 S
C921 C922 1.523 . S
C922 C903 1.368 . S
C922 C916 1.368 . S
C922 C921 1.523 . S
C923 C907 1.429 . S
C923 C919 1.429 . S
C923 C924 1.523 . S
C924 C908 1.368 . S
C924 C920 1.368 . S
C924 C923 1.523 . S
H925 C900 0.950 . S
H926 C902 0.950 . S
H927 C903 0.949 1_545 S
H928 C905 0.950 . S
H929 C907 0.950 . S
C930 C931 1.349 . S
C930 C932 1.327 . S
C930 H955 0.950 . S
C931 C930 1.349 . S
C931 C947 1.349 . S
C932 C930 1.327 . S
C932 C951 1.429 . S
C932 H956 0.950 . S
C933 C950 1.574 . S
C933 C952 1.368 . S
C933 H957 0.949 . S
H934 C938 0.949 . S
C935 C936 1.349 . S
C935 C937 1.327 . S
C935 H958 0.950 . S
C936 C935 1.349 . S
C936 C948 1.349 . S
C937 C935 1.327 . S
C937 C953 1.429 . S
C937 H959 0.950 . S
C938 H934 0.949 . S
C938 C946 1.574 . S
C938 C954 1.368 . S
H939 C947 0.950 . S
H940 C945 0.950 . S
H941 C946 0.949 . S
H942 C948 0.950 . S
H943 C949 0.950 . S
H944 C950 0.949 . S
C945 H940 0.950 . S
C945 C947 1.327 . S
C945 C951 1.429 . S
C946 C938 1.574 . S
C946 H941 0.949 . S
C946 C952 1.368 . S
C947 C931 1.349 . S
C947 H939 0.950 . S
C947 C945 1.327 . S
C948 C936 1.349 . S
C948 H942 0.950 . S
C948 C949 1.327 . S
C949 H943 0.950 . S
C949 C948 1.327 . S
C949 C953 1.429 . S
C950 C933 1.574 . S
C950 H944 0.949 . S
C950 C954 1.368 . S
C951 C932 1.429 . S
C951 C945 1.429 . S
C951 C952 1.523 . S
C952 C933 1.368 . S
C952 C946 1.368 . S
C952 C951 1.523 . S
C953 C937 1.429 . S
C953 C949 1.429 . S
C953 C954 1.523 . S
C954 C938 1.368 . S
C954 C950 1.368 . S
C954 C953 1.523 . S
H955 C930 0.950 . S
H956 C932 0.950 . S
H957 C933 0.949 . S
H958 C935 0.950 . S
H959 C937 0.950 . S
C960 C961 1.349 . S
C960 C962 1.327 . S
C960 H985 0.950 . S
C961 C960 1.349 . S
C961 C977 1.349 . S
C962 C960 1.327 . S
C962 C981 1.429 . S
C962 H986 0.950 . S
C963 C980 1.574 . S
C963 C982 1.368 . S
C963 H987 0.949 . S
H964 C968 0.949 . S
C965 C966 1.349 . S
C965 C967 1.327 . S
C965 H988 0.950 . S
C966 C965 1.349 . S
C966 C978 1.349 . S
C967 C965 1.327 . S
C967 C983 1.429 . S
C967 H989 0.950 . S
C968 H964 0.949 . S
C968 C976 1.574 . S
C968 C984 1.368 . S
H969 C977 0.950 . S
H970 C975 0.950 . S
H971 C976 0.949 . S
H972 C978 0.950 . S
H973 C979 0.950 . S
H974 C980 0.949 . S
C975 H970 0.950 . S
C975 C977 1.327 . S
C975 C981 1.429 . S
C976 C968 1.574 . S
C976 H971 0.949 . S
C976 C982 1.368 . S
C977 C961 1.349 . S
C977 H969 0.950 . S
C977 C975 1.327 . S
C978 C966 1.349 . S
C978 H972 0.950 . S
C978 C979 1.327 . S
C979 H973 0.950 . S
C979 C978 1.327 . S
C979 C983 1.429 . S
C980 C963 1.574 . S
C980 H974 0.949 . S
C980 C984 1.368 . S
C981 C962 1.429 . S
C981 C975 1.429 . S
C981 C982 1.523 . S
C982 C963 1.368 . S
C982 C976 1.368 . S
C982 C981 1.523 . S
C983 C967 1.429 . S
C983 C979 1.429 . S
C983 C984 1.523 . S
C984 C968 1.368 . S
C984 C980 1.368 . S
C984 C983 1.523 . S
H985 C960 0.950 . S
H986 C962 0.950 . S
H987 C963 0.949 . S
H988 C965 0.950 . S
H989 C967 0.950 . S
C990 C991 1.349 . S
C990 C992 1.327 . S
C990 H1015 0.950 . S
C991 C990 1.349 . S
C991 C1007 1.349 . S
C992 C990 1.327 . S
C992 C1011 1.429 . S
C992 H1016 0.950 . S
C993 C1010 1.574 . S
C993 C1012 1.368 . S
C993 H1017 0.949 . S
H994 C998 0.949 . S
C995 C996 1.349 1_455 S
C995 C997 1.327 . S
C995 H1018 0.950 . S
C996 C995 1.349 1_655 S
C996 C1008 1.349 . S
C997 C995 1.327 . S
C997 C1013 1.429 1_455 S
C997 H1019 0.950 . S
C998 H994 0.949 . S
C998 C1006 1.574 . S
C998 C1014 1.368 . S
H999 C1007 0.950 . S
H1000 C1005 0.950 . S
H1001 C1006 0.949 . S
H1002 C1008 0.950 . S
H1003 C1009 0.950 . S
H1004 C1010 0.949 1_455 S
C1005 H1000 0.950 . S
C1005 C1007 1.327 . S
C1005 C1011 1.429 . S
C1006 C998 1.574 . S
C1006 H1001 0.949 . S
C1006 C1012 1.368 . S
C1007 C991 1.349 . S
C1007 H999 0.950 . S
C1007 C1005 1.327 . S
C1008 C996 1.349 . S
C1008 H1002 0.950 . S
C1008 C1009 1.327 . S
C1009 H1003 0.950 . S
C1009 C1008 1.327 . S
C1009 C1013 1.429 . S
C1010 C993 1.574 . S
C1010 H1004 0.949 1_655 S
C1010 C1014 1.368 . S
C1011 C992 1.429 . S
C1011 C1005 1.429 . S
C1011 C1012 1.523 . S
C1012 C993 1.368 . S
C1012 C1006 1.368 . S
C1012 C1011 1.523 . S
C1013 C997 1.429 1_655 S
C1013 C1009 1.429 . S
C1013 C1014 1.523 . S
C1014 C998 1.368 . S
C1014 C1010 1.368 . S
C1014 C1013 1.523 . S
H1015 C990 0.950 . S
H1016 C992 0.950 . S
H1017 C993 0.949 . S
H1018 C995 0.950 . S
H1019 C997 0.950 . S
C1020 C1021 1.349 . S
C1020 C1022 1.327 . S
C1020 H1045 0.950 . S
C1021 C1020 1.349 . S
C1021 C1037 1.349 . S
C1022 C1020 1.327 . S
C1022 C1041 1.429 . S
C1022 H1046 0.950 . S
C1023 C1040 1.574 . S
C1023 C1042 1.368 . S
C1023 H1047 0.949 . S
H1024 C1028 0.949 . S
C1025 C1026 1.349 . S
C1025 C1027 1.327 . S
C1025 H1048 0.950 . S
C1026 C1025 1.349 . S
C1026 C1038 1.349 . S
C1027 C1025 1.327 . S
C1027 C1043 1.429 . S
C1027 H1049 0.950 . S
C1028 H1024 0.949 . S
C1028 C1036 1.574 . S
C1028 C1044 1.368 . S
H1029 C1037 0.950 . S
H1030 C1035 0.950 . S
H1031 C1036 0.949 . S
H1032 C1038 0.950 . S
H1033 C1039 0.950 . S
H1034 C1040 0.949 . S
C1035 H1030 0.950 . S
C1035 C1037 1.327 . S
C1035 C1041 1.429 . S
C1036 C1028 1.574 . S
C1036 H1031 0.949 . S
C1036 C1042 1.368 . S
C1037 C1021 1.349 . S
C1037 H1029 0.950 . S
C1037 C1035 1.327 . S
C1038 C1026 1.349 . S
C1038 H1032 0.950 . S
C1038 C1039 1.327 . S
C1039 H1033 0.950 . S
C1039 C1038 1.327 . S
C1039 C1043 1.429 . S
C1040 C1023 1.574 . S
C1040 H1034 0.949 . S
C1040 C1044 1.368 . S
C1041 C1022 1.429 . S
C1041 C1035 1.429 . S
C1041 C1042 1.523 . S
C1042 C1023 1.368 . S
C1042 C1036 1.368 . S
C1042 C1041 1.523 . S
C1043 C1027 1.429 . S
C1043 C1039 1.429 . S
C1043 C1044 1.523 . S
C1044 C1028 1.368 . S
C1044 C1040 1.368 . S
C1044 C1043 1.523 . S
H1045 C1020 0.950 . S
H1046 C1022 0.950 . S
H1047 C1023 0.949 . S
H1048 C1025 0.950 . S
H1049 C1027 0.950 . S
C1050 C1051 1.349 . S
C1050 C1052 1.327 . S
C1050 H1075 0.950 . S
C1051 C1050 1.349 . S
C1051 C1067 1.349 . S
C1052 C1050 1.327 . S
C1052 C1071 1.429 . S
C1052 H1076 0.950 . S
C1053 C1070 1.574 . S
C1053 C1072 1.368 . S
C1053 H1077 0.949 . S
H1054 C1058 0.949 . S
C1055 C1056 1.349 . S
C1055 C1057 1.327 . S
C1055 H1078 0.950 . S
C1056 C1055 1.349 . S
C1056 C1068 1.349 . S
C1057 C1055 1.327 . S
C1057 C1073 1.429 . S
C1057 H1079 0.950 . S
C1058 H1054 0.949 . S
C1058 C1066 1.574 . S
C1058 C1074 1.368 . S
H1059 C1067 0.950 . S
H1060 C1065 0.950 . S
H1061 C1066 0.949 . S
H1062 C1068 0.950 . S
H1063 C1069 0.950 . S
H1064 C1070 0.949 . S
C1065 H1060 0.950 . S
C1065 C1067 1.327 . S
C1065 C1071 1.429 . S
C1066 C1058 1.574 . S
C1066 H1061 0.949 . S
C1066 C1072 1.368 . S
C1067 C1051 1.349 . S
C1067 H1059 0.950 . S
C1067 C1065 1.327 . S
C1068 C1056 1.349 . S
C1068 H1062 0.950 . S
C1068 C1069 1.327 . S
C1069 H1063 0.950 . S
C1069 C1068 1.327 . S
C1069 C1073 1.429 . S
C1070 C1053 1.574 . S
C1070 H1064 0.949 . S
C1070 C1074 1.368 . S
C1071 C1052 1.429 . S
C1071 C1065 1.429 . S
C1071 C1072 1.523 . S
C1072 C1053 1.368 . S
C1072 C1066 1.368 . S
C1072 C1071 1.523 . S
C1073 C1057 1.429 . S
C1073 C1069 1.429 . S
C1073 C1074 1.523 . S
C1074 C1058 1.368 . S
C1074 C1070 1.368 . S
C1074 C1073 1.523 . S
H1075 C1050 0.950 . S
H1076 C1052 0.950 . S
H1077 C1053 0.949 . S
H1078 C1055 0.950 . S
H1079 C1057 0.950 . S
C1080 C1081 1.349 . S
C1080 C1082 1.327 . S
C1080 H1105 0.950 . S
C1081 C1080 1.349 . S
C1081 C1097 1.349 . S
C1082 C1080 1.327 . S
C1082 C1101 1.429 . S
C1082 H1106 0.950 . S
C1083 C1100 1.574 . S
C1083 C1102 1.368 . S
C1083 H1107 0.949 . S
H1084 C1088 0.949 . S
C1085 C1086 1.349 . S
C1085 C1087 1.327 . S
C1085 H1108 0.950 . S
C1086 C1085 1.349 . S
C1086 C1098 1.349 . S
C1087 C1085 1.327 . S
C1087 C1103 1.429 . S
C1087 H1109 0.950 . S
C1088 H1084 0.949 . S
C1088 C1096 1.574 . S
C1088 C1104 1.368 . S
H1089 C1097 0.950 . S
H1090 C1095 0.950 . S
H1091 C1096 0.949 . S
H1092 C1098 0.950 . S
H1093 C1099 0.950 . S
H1094 C1100 0.949 . S
C1095 H1090 0.950 . S
C1095 C1097 1.327 . S
C1095 C1101 1.429 . S
C1096 C1088 1.574 . S
C1096 H1091 0.949 . S
C1096 C1102 1.368 . S
C1097 C1081 1.349 . S
C1097 H1089 0.950 . S
C1097 C1095 1.327 . S
C1098 C1086 1.349 . S
C1098 H1092 0.950 . S
C1098 C1099 1.327 . S
C1099 H1093 0.950 . S
C1099 C1098 1.327 . S
C1099 C1103 1.429 . S
C1100 C1083 1.574 . S
C1100 H1094 0.949 . S
C1100 C1104 1.368 . S
C1101 C1082 1.429 . S
C1101 C1095 1.429 . S
C1101 C1102 1.523 . S
C1102 C1083 1.368 . S
C1102 C1096 1.368 . S
C1102 C1101 1.523 . S
C1103 C1087 1.429 . S
C1103 C1099 1.429 . S
C1103 C1104 1.523 . S
C1104 C1088 1.368 . S
C1104 C1100 1.368 . S
C1104 C1103 1.523 . S
H1105 C1080 0.950 . S
H1106 C1082 0.950 . S
H1107 C1083 0.949 . S
H1108 C1085 0.950 . S
H1109 C1087 0.950 . S
C1110 C1111 1.349 . S
C1110 C1112 1.327 . S
C1110 H1135 0.950 . S
C1111 C1110 1.349 . S
C1111 C1127 1.349 . S
C1112 C1110 1.327 . S
C1112 C1131 1.429 . S
C1112 H1136 0.950 . S
C1113 C1130 1.574 . S
C1113 C1132 1.368 . S
C1113 H1137 0.949 1_545 S
H1114 C1118 0.949 . S
C1115 C1116 1.349 . S
C1115 C1117 1.327 . S
C1115 H1138 0.950 . S
C1116 C1115 1.349 . S
C1116 C1128 1.349 . S
C1117 C1115 1.327 . S
C1117 C1133 1.429 . S
C1117 H1139 0.950 . S
C1118 H1114 0.949 . S
C1118 C1126 1.574 . S
C1118 C1134 1.368 . S
H1119 C1127 0.950 . S
H1120 C1125 0.950 . S
H1121 C1126 0.949 . S
H1122 C1128 0.950 . S
H1123 C1129 0.950 . S
H1124 C1130 0.949 . S
C1125 H1120 0.950 . S
C1125 C1127 1.327 . S
C1125 C1131 1.429 . S
C1126 C1118 1.574 . S
C1126 H1121 0.949 . S
C1126 C1132 1.368 . S
C1127 C1111 1.349 . S
C1127 H1119 0.950 . S
C1127 C1125 1.327 . S
C1128 C1116 1.349 . S
C1128 H1122 0.950 . S
C1128 C1129 1.327 . S
C1129 H1123 0.950 . S
C1129 C1128 1.327 . S
C1129 C1133 1.429 . S
C1130 C1113 1.574 . S
C1130 H1124 0.949 . S
C1130 C1134 1.368 . S
C1131 C1112 1.429 . S
C1131 C1125 1.429 . S
C1131 C1132 1.523 1_565 S
C1132 C1113 1.368 . S
C1132 C1126 1.368 . S
C1132 C1131 1.523 1_545 S
C1133 C1117 1.429 . S
C1133 C1129 1.429 . S
C1133 C1134 1.523 . S
C1134 C1118 1.368 . S
C1134 C1130 1.368 . S
C1134 C1133 1.523 . S
H1135 C1110 0.950 . S
H1136 C1112 0.950 . S
H1137 C1113 0.949 1_565 S
H1138 C1115 0.950 . S
H1139 C1117 0.950 . S
C1140 C1141 1.349 . S
C1140 C1142 1.327 . S
C1140 H1165 0.950 . S
C1141 C1140 1.349 . S
C1141 C1157 1.349 . S
C1142 C1140 1.327 . S
C1142 C1161 1.429 . S
C1142 H1166 0.950 . S
C1143 C1160 1.574 . S
C1143 C1162 1.368 . S
C1143 H1167 0.949 . S
H1144 C1148 0.949 . S
C1145 C1146 1.349 . S
C1145 C1147 1.327 . S
C1145 H1168 0.950 . S
C1146 C1145 1.349 . S
C1146 C1158 1.349 . S
C1147 C1145 1.327 . S
C1147 C1163 1.429 . S
C1147 H1169 0.950 . S
C1148 H1144 0.949 . S
C1148 C1156 1.574 1_455 S
C1148 C1164 1.368 . S
H1149 C1157 0.950 . S
H1150 C1155 0.950 1_455 S
H1151 C1156 0.949 . S
H1152 C1158 0.950 . S
H1153 C1159 0.950 . S
H1154 C1160 0.949 . S
C1155 H1150 0.950 1_655 S
C1155 C1157 1.327 . S
C1155 C1161 1.429 . S
C1156 C1148 1.574 1_655 S
C1156 H1151 0.949 . S
C1156 C1162 1.368 1_655 S
C1157 C1141 1.349 . S
C1157 H1149 0.950 . S
C1157 C1155 1.327 . S
C1158 C1146 1.349 . S
C1158 H1152 0.950 . S
C1158 C1159 1.327 . S
C1159 H1153 0.950 . S
C1159 C1158 1.327 . S
C1159 C1163 1.429 . S
C1160 C1143 1.574 . S
C1160 H1154 0.949 . S
C1160 C1164 1.368 . S
C1161 C1142 1.429 . S
C1161 C1155 1.429 . S
C1161 C1162 1.523 1_655 S
C1162 C1143 1.368 . S
C1162 C1156 1.368 1_455 S
C1162 C1161 1.523 1_455 S
C1163 C1147 1.429 . S
C1163 C1159 1.429 . S
C1163 C1164 1.523 . S
C1164 C1148 1.368 . S
C1164 C1160 1.368 . S
C1164 C1163 1.523 . S
H1165 C1140 0.950 . S
H1166 C1142 0.950 . S
H1167 C1143 0.949 . S
H1168 C1145 0.950 . S
H1169 C1147 0.950 . S
C1170 C1171 1.349 . S
C1170 C1172 1.327 . S
C1170 H1195 0.950 . S
C1171 C1170 1.349 . S
C1171 C1187 1.349 . S
C1172 C1170 1.327 . S
C1172 C1191 1.429 . S
C1172 H1196 0.950 . S
C1173 C1190 1.574 . S
C1173 C1192 1.368 . S
C1173 H1197 0.949 . S
H1174 C1178 0.949 . S
C1175 C1176 1.349 . S
C1175 C1177 1.327 . S
C1175 H1198 0.950 . S
C1176 C1175 1.349 . S
C1176 C1188 1.349 . S
C1177 C1175 1.327 . S
C1177 C1193 1.429 . S
C1177 H1199 0.950 . S
C1178 H1174 0.949 . S
C1178 C1186 1.574 . S
C1178 C1194 1.368 . S
H1179 C1187 0.950 . S
H1180 C1185 0.950 . S
H1181 C1186 0.949 . S
H1182 C1188 0.950 . S
H1183 C1189 0.950 . S
H1184 C1190 0.949 . S
C1185 H1180 0.950 . S
C1185 C1187 1.327 . S
C1185 C1191 1.429 . S
C1186 C1178 1.574 . S
C1186 H1181 0.949 . S
C1186 C1192 1.368 . S
C1187 C1171 1.349 . S
C1187 H1179 0.950 . S
C1187 C1185 1.327 . S
C1188 C1176 1.349 . S
C1188 H1182 0.950 . S
C1188 C1189 1.327 . S
C1189 H1183 0.950 . S
C1189 C1188 1.327 . S
C1189 C1193 1.429 . S
C1190 C1173 1.574 . S
C1190 H1184 0.949 . S
C1190 C1194 1.368 . S
C1191 C1172 1.429 . S
C1191 C1185 1.429 . S
C1191 C1192 1.523 . S
C1192 C1173 1.368 . S
C1192 C1186 1.368 . S
C1192 C1191 1.523 . S
C1193 C1177 1.429 . S
C1193 C1189 1.429 . S
C1193 C1194 1.523 . S
C1194 C1178 1.368 . S
C1194 C1190 1.368 . S
C1194 C1193 1.523 . S
H1195 C1170 0.950 . S
H1196 C1172 0.950 . S
H1197 C1173 0.949 . S
H1198 C1175 0.950 . S
H1199 C1177 0.950 . S
C1200 C1201 1.349 . S
C1200 C1202 1.327 . S
C1200 H1225 0.950 . S
C1201 C1200 1.349 . S
C1201 C1217 1.349 . S
C1202 C1200 1.327 . S
C1202 C1221 1.429 . S
C1202 H1226 0.950 1_565 S
C1203 C1220 1.588 . S
C1203 C1222 1.363 . S
C1203 H1227 0.942 1_545 S
H1204 C1208 0.949 . S
C1205 C1206 1.349 . S
C1205 C1207 1.327 . S
C1205 H1228 0.950 . S
C1206 C1205 1.349 . S
C1206 C1218 1.349 . S
C1207 C1205 1.327 . S
C1207 C1223 1.429 . S
C1207 H1229 0.950 . S
C1208 H1204 0.949 . S
C1208 C1216 1.574 . S
C1208 C1224 1.368 . S
H1209 C1217 0.950 . S
H1210 C1215 0.950 . S
H1211 C1216 0.949 . S
H1212 C1218 0.950 . S
H1213 C1219 0.950 . S
H1214 C1220 0.949 . S
C1215 H1210 0.950 . S
C1215 C1217 1.327 . S
C1215 C1221 1.429 . S
C1216 C1208 1.574 . S
C1216 H1211 0.949 . S
C1216 C1222 1.368 . S
C1217 C1201 1.349 . S
C1217 H1209 0.950 . S
C1217 C1215 1.327 . S
C1218 C1206 1.349 . S
C1218 H1212 0.950 . S
C1218 C1219 1.327 . S
C1219 H1213 0.950 . S
C1219 C1218 1.327 . S
C1219 C1223 1.429 . S
C1220 C1203 1.588 . S
C1220 H1214 0.949 . S
C1220 C1224 1.368 . S
C1221 C1202 1.429 . S
C1221 C1215 1.429 . S
C1221 C1222 1.523 1_565 S
C1222 C1203 1.363 . S
C1222 C1216 1.368 . S
C1222 C1221 1.523 1_545 S
C1223 C1207 1.429 . S
C1223 C1219 1.429 . S
C1223 C1224 1.523 . S
C1224 C1208 1.368 . S
C1224 C1220 1.368 . S
C1224 C1223 1.523 . S
H1225 C1200 0.950 . S
H1226 C1202 0.950 1_545 S
H1227 C1203 0.942 1_565 S
H1228 C1205 0.950 . S
H1229 C1207 0.950 . S
C1230 C1231 1.349 . S
C1230 C1232 1.327 . S
C1230 H1255 0.950 . S
C1231 C1230 1.349 . S
C1231 C1247 1.349 . S
C1232 C1230 1.327 . S
C1232 C1251 1.429 . S
C1232 H1256 0.950 . S
C1233 C1250 1.574 . S
C1233 C1252 1.368 . S
C1233 H1257 0.949 . S
H1234 C1238 0.949 . S
C1235 C1236 1.349 . S
C1235 C1237 1.327 . S
C1235 H1258 0.950 . S
C1236 C1235 1.349 . S
C1236 C1248 1.349 . S
C1237 C1235 1.327 . S
C1237 C1253 1.429 . S
C1237 H1259 0.950 . S
C1238 H1234 0.949 . S
C1238 C1246 1.574 . S
C1238 C1254 1.368 . S
H1239 C1247 0.950 . S
H1240 C1245 0.950 . S
H1241 C1246 0.949 . S
H1242 C1248 0.950 . S
H1243 C1249 0.950 . S
H1244 C1250 0.949 . S
C1245 H1240 0.950 . S
C1245 C1247 1.327 . S
C1245 C1251 1.429 . S
C1246 C1238 1.574 . S
C1246 H1241 0.949 . S
C1246 C1252 1.368 . S
C1247 C1231 1.349 . S
C1247 H1239 0.950 . S
C1247 C1245 1.327 . S
C1248 C1236 1.349 . S
C1248 H1242 0.950 . S
C1248 C1249 1.327 . S
C1249 H1243 0.950 . S
C1249 C1248 1.327 . S
C1249 C1253 1.429 . S
C1250 C1233 1.574 . S
C1250 H1244 0.949 . S
C1250 C1254 1.368 . S
C1251 C1232 1.429 . S
C1251 C1245 1.429 . S
C1251 C1252 1.523 1_655 S
C1252 C1233 1.368 . S
C1252 C1246 1.368 . S
C1252 C1251 1.523 1_455 S
C1253 C1237 1.429 . S
C1253 C1249 1.429 . S
C1253 C1254 1.523 . S
C1254 C1238 1.368 . S
C1254 C1250 1.368 . S
C1254 C1253 1.523 . S
H1255 C1230 0.950 . S
H1256 C1232 0.950 . S
H1257 C1233 0.949 . S
H1258 C1235 0.950 . S
H1259 C1237 0.950 . S
C1260 C1261 1.349 . S
C1260 C1262 1.327 . S
C1260 H1285 0.950 1_545 S
C1261 C1260 1.349 . S
C1261 C1277 1.349 . S
C1262 C1260 1.327 . S
C1262 C1281 1.433 . S
C1262 H1286 0.946 1_545 S
C1263 C1280 1.574 1_554 S
C1263 C1282 1.368 . S
C1263 H1287 0.949 . S
H1264 C1268 0.949 1_565 S
C1265 C1266 1.349 . S
C1265 C1267 1.327 . S
C1265 H1288 0.950 . S
C1266 C1265 1.349 . S
C1266 C1278 1.349 . S
C1267 C1265 1.327 . S
C1267 C1283 1.429 . S
C1267 H1289 0.950 . S
C1268 H1264 0.949 1_545 S
C1268 C1276 1.575 1_556 S
C1268 C1284 1.368 . S
H1269 C1277 0.950 . S
H1270 C1275 0.950 . S
H1271 C1276 0.937 1_565 S
H1272 C1278 0.950 1_565 S
H1273 C1279 0.950 1_565 S
H1274 C1280 0.949 . S
C1275 H1270 0.950 . S
C1275 C1277 1.327 . S
C1275 C1281 1.429 . S
C1276 C1268 1.575 1_554 S
C1276 H1271 0.937 1_545 S
C1276 C1282 1.382 . S
C1277 C1261 1.349 . S
C1277 H1269 0.950 . S
C1277 C1275 1.327 . S
C1278 C1266 1.349 . S
C1278 H1272 0.950 1_545 S
C1278 C1279 1.327 . S
C1279 H1273 0.950 1_545 S
C1279 C1278 1.327 . S
C1279 C1283 1.429 . S
C1280 C1263 1.574 1_556 S
C1280 H1274 0.949 . S
C1280 C1284 1.368 . S
C1281 C1262 1.433 . S
C1281 C1275 1.429 . S
C1281 C1282 1.523 . S
C1282 C1263 1.368 . S
C1282 C1276 1.382 . S
C1282 C1281 1.523 . S
C1283 C1267 1.429 . S
C1283 C1279 1.429 . S
C1283 C1284 1.523 . S
C1284 C1268 1.368 . S
C1284 C1280 1.368 . S
C1284 C1283 1.523 . S
H1285 C1260 0.950 1_565 S
H1286 C1262 0.946 1_565 S
H1287 C1263 0.949 . S
H1288 C1265 0.950 . S
H1289 C1267 0.950 . S
C1290 C1291 1.349 . S
C1290 C1292 1.327 . S
C1290 H1315 0.950 . S
C1291 C1290 1.349 . S
C1291 C1307 1.349 . S
C1292 C1290 1.327 . S
C1292 C1311 1.429 . S
C1292 H1316 0.950 . S
C1293 C1310 1.574 1_556 S
C1293 C1312 1.368 . S
C1293 H1317 0.949 . S
H1294 C1298 0.949 . S
C1295 C1296 1.349 . S
C1295 C1297 1.327 . S
C1295 H1318 0.950 . S
C1296 C1295 1.349 . S
C1296 C1308 1.349 . S
C1297 C1295 1.327 . S
C1297 C1313 1.429 . S
C1297 H1319 0.950 . S
C1298 H1294 0.949 . S
C1298 C1306 1.574 1_554 S
C1298 C1314 1.368 . S
H1299 C1307 0.950 . S
H1300 C1305 0.950 . S
H1301 C1306 0.949 . S
H1302 C1308 0.950 . S
H1303 C1309 0.950 . S
H1304 C1310 0.949 . S
C1305 H1300 0.950 . S
C1305 C1307 1.327 . S
C1305 C1311 1.429 . S
C1306 C1298 1.574 1_556 S
C1306 H1301 0.949 . S
C1306 C1312 1.368 . S
C1307 C1291 1.349 . S
C1307 H1299 0.950 . S
C1307 C1305 1.327 . S
C1308 C1296 1.349 . S
C1308 H1302 0.950 . S
C1308 C1309 1.327 . S
C1309 H1303 0.950 . S
C1309 C1308 1.327 . S
C1309 C1313 1.429 . S
C1310 C1293 1.574 1_554 S
C1310 H1304 0.949 . S
C1310 C1314 1.368 . S
C1311 C1292 1.429 . S
C1311 C1305 1.429 . S
C1311 C1312 1.523 . S
C1312 C1293 1.368 . S
C1312 C1306 1.368 . S
C1312 C1311 1.523 . S
C1313 C1297 1.429 . S
C1313 C1309 1.429 . S
C1313 C1314 1.523 . S
C1314 C1298 1.368 . S
C1314 C1310 1.368 . S
C1314 C1313 1.523 . S
H1315 C1290 0.950 . S
H1316 C1292 0.950 . S
H1317 C1293 0.949 . S
H1318 C1295 0.950 . S
H1319 C1297 0.950 . S
C1320 C1321 1.349 . S
C1320 C1322 1.327 . S
C1320 H1345 0.950 . S
C1321 C1320 1.349 . S
C1321 C1337 1.349 . S
C1322 C1320 1.327 . S
C1322 C1341 1.429 . S
C1322 H1346 0.950 . S
C1323 C1340 1.574 1_554 S
C1323 C1342 1.368 . S
C1323 H1347 0.949 . S
H1324 C1328 0.949 . S
C1325 C1326 1.349 . S
C1325 C1327 1.327 . S
C1325 H1348 0.950 . S
C1326 C1325 1.349 . S
C1326 C1338 1.349 . S
C1327 C1325 1.327 . S
C1327 C1343 1.429 . S
C1327 H1349 0.950 . S
C1328 H1324 0.949 . S
C1328 C1336 1.574 1_556 S
C1328 C1344 1.368 . S
H1329 C1337 0.950 . S
H1330 C1335 0.950 . S
H1331 C1336 0.949 . S
H1332 C1338 0.950 . S
H1333 C1339 0.950 . S
H1334 C1340 0.949 . S
C1335 H1330 0.950 . S
C1335 C1337 1.327 . S
C1335 C1341 1.429 . S
C1336 C1328 1.574 1_554 S
C1336 H1331 0.949 . S
C1336 C1342 1.368 . S
C1337 C1321 1.349 . S
C1337 H1329 0.950 . S
C1337 C1335 1.327 . S
C1338 C1326 1.349 . S
C1338 H1332 0.950 . S
C1338 C1339 1.327 . S
C1339 H1333 0.950 . S
C1339 C1338 1.327 . S
C1339 C1343 1.429 . S
C1340 C1323 1.574 1_556 S
C1340 H1334 0.949 . S
C1340 C1344 1.368 . S
C1341 C1322 1.429 . S
C1341 C1335 1.429 . S
C1341 C1342 1.523 . S
C1342 C1323 1.368 . S
C1342 C1336 1.368 . S
C1342 C1341 1.523 . S
C1343 C1327 1.429 . S
C1343 C1339 1.429 . S
C1343 C1344 1.523 . S
C1344 C1328 1.368 . S
C1344 C1340 1.368 . S
C1344 C1343 1.523 . S
H1345 C1320 0.950 . S
H1346 C1322 0.950 . S
H1347 C1323 0.949 . S
H1348 C1325 0.950 . S
H1349 C1327 0.950 . S
C1350 C1351 1.349 . S
C1350 C1352 1.327 . S
C1350 H1375 0.950 . S
C1351 C1350 1.349 . S
C1351 C1367 1.349 . S
C1352 C1350 1.327 . S
C1352 C1371 1.429 . S
C1352 H1376 0.950 . S
C1353 C1370 1.575 . S
C1353 C1372 1.350 1_655 S
C1353 H1377 0.966 . S
H1354 C1358 0.949 . S
C1355 C1356 1.349 1_655 S
C1355 C1357 1.327 . S
C1355 H1378 0.950 . S
C1356 C1355 1.349 1_455 S
C1356 C1368 1.349 . S
C1357 C1355 1.327 . S
C1357 C1373 1.429 1_655 S
C1357 H1379 0.950 . S
C1358 H1354 0.949 . S
C1358 C1366 1.574 . S
C1358 C1374 1.368 . S
H1359 C1367 0.950 1_655 S
H1360 C1365 0.950 1_655 S
H1361 C1366 0.949 . S
H1362 C1368 0.950 . S
H1363 C1369 0.950 . S
H1364 C1370 0.949 . S
C1365 H1360 0.950 1_455 S
C1365 C1367 1.327 . S
C1365 C1371 1.429 . S
C1366 C1358 1.574 . S
C1366 H1361 0.949 . S
C1366 C1372 1.368 . S
C1367 C1351 1.349 . S
C1367 H1359 0.950 1_455 S
C1367 C1365 1.327 . S
C1368 C1356 1.349 . S
C1368 H1362 0.950 . S
C1368 C1369 1.327 . S
C1369 H1363 0.950 . S
C1369 C1368 1.327 . S
C1369 C1373 1.429 . S
C1370 C1353 1.575 . S
C1370 H1364 0.949 . S
C1370 C1374 1.368 1_655 S
C1371 C1352 1.429 . S
C1371 C1365 1.429 . S
C1371 C1372 1.523 . S
C1372 C1353 1.350 1_455 S
C1372 C1366 1.368 . S
C1372 C1371 1.523 . S
C1373 C1357 1.429 1_455 S
C1373 C1369 1.429 . S
C1373 C1374 1.523 . S
C1374 C1358 1.368 . S
C1374 C1370 1.368 1_455 S
C1374 C1373 1.523 . S
H1375 C1350 0.950 . S
H1376 C1352 0.950 . S
H1377 C1353 0.966 . S
H1378 C1355 0.950 . S
H1379 C1357 0.950 . S
C1380 C1381 1.349 . S
C1380 C1382 1.327 . S
C1380 H1405 0.950 . S
C1381 C1380 1.349 . S
C1381 C1397 1.349 . S
C1382 C1380 1.327 . S
C1382 C1401 1.429 . S
C1382 H1406 0.950 . S
C1383 C1400 1.574 . S
C1383 C1402 1.368 . S
C1383 H1407 0.949 . S
H1384 C1388 0.949 . S
C1385 C1386 1.349 . S
C1385 C1387 1.327 . S
C1385 H1408 0.950 . S
C1386 C1385 1.349 . S
C1386 C1398 1.349 . S
C1387 C1385 1.327 . S
C1387 C1403 1.429 . S
C1387 H1409 0.950 . S
C1388 H1384 0.949 . S
C1388 C1396 1.574 . S
C1388 C1404 1.368 . S
H1389 C1397 0.950 . S
H1390 C1395 0.950 . S
H1391 C1396 0.949 . S
H1392 C1398 0.950 . S
H1393 C1399 0.950 . S
H1394 C1400 0.949 . S
C1395 H1390 0.950 . S
C1395 C1397 1.327 . S
C1395 C1401 1.429 . S
C1396 C1388 1.574 . S
C1396 H1391 0.949 . S
C1396 C1402 1.368 . S
C1397 C1381 1.349 . S
C1397 H1389 0.950 . S
C1397 C1395 1.327 . S
C1398 C1386 1.349 . S
C1398 H1392 0.950 . S
C1398 C1399 1.327 . S
C1399 H1393 0.950 . S
C1399 C1398 1.327 . S
C1399 C1403 1.429 . S
C1400 C1383 1.574 . S
C1400 H1394 0.949 . S
C1400 C1404 1.368 . S
C1401 C1382 1.429 . S
C1401 C1395 1.429 . S
C1401 C1402 1.523 . S
C1402 C1383 1.368 . S
C1402 C1396 1.368 . S
C1402 C1401 1.523 . S
C1403 C1387 1.429 . S
C1403 C1399 1.429 . S
C1403 C1404 1.523 . S
C1404 C1388 1.368 . S
C1404 C1400 1.368 . S
C1404 C1403 1.523 . S
H1405 C1380 0.950 . S
H1406 C1382 0.950 . S
H1407 C1383 0.949 . S
H1408 C1385 0.950 . S
H1409 C1387 0.950 . S
C1410 C1411 1.351 . S
C1410 C1412 1.327 . S
C1410 H1435 0.948 1_545 S
C1411 C1410 1.351 . S
C1411 C1427 1.349 . S
C1412 C1410 1.327 . S
C1412 C1431 1.435 . S
C1412 H1436 0.944 1_545 S
C1413 C1430 1.574 . S
C1413 C1432 1.368 . S
C1413 H1437 0.949 . S
H1414 C1418 0.949 1_565 S
C1415 C1416 1.349 . S
C1415 C1417 1.327 . S
C1415 H1438 0.950 . S
C1416 C1415 1.349 . S
C1416 C1428 1.349 . S
C1417 C1415 1.327 . S
C1417 C1433 1.429 . S
C1417 H1439 0.950 . S
C1418 H1414 0.949 1_545 S
C1418 C1426 1.574 . S
C1418 C1434 1.368 . S
H1419 C1427 0.950 . S
H1420 C1425 0.950 . S
H1421 C1426 0.949 1_565 S
H1422 C1428 0.950 1_565 S
H1423 C1429 0.950 1_565 S
H1424 C1430 0.949 . S
C1425 H1420 0.950 . S
C1425 C1427 1.327 . S
C1425 C1431 1.429 . S
C1426 C1418 1.574 . S
C1426 H1421 0.949 1_545 S
C1426 C1432 1.368 . S
C1427 C1411 1.349 . S
C1427 H1419 0.950 . S
C1427 C1425 1.327 . S
C1428 C1416 1.349 . S
C1428 H1422 0.950 1_545 S
C1428 C1429 1.327 . S
C1429 H1423 0.950 1_545 S
C1429 C1428 1.327 . S
C1429 C1433 1.429 . S
C1430 C1413 1.574 . S
C1430 H1424 0.949 . S
C1430 C1434 1.368 . S
C1431 C1412 1.435 . S
C1431 C1425 1.429 . S
C1431 C1432 1.523 . S
C1432 C1413 1.368 . S
C1432 C1426 1.368 . S
C1432 C1431 1.523 . S
C1433 C1417 1.429 . S
C1433 C1429 1.429 . S
C1433 C1434 1.523 . S
C1434 C1418 1.368 . S
C1434 C1430 1.368 . S
C1434 C1433 1.523 . S
H1435 C1410 0.948 1_565 S
H1436 C1412 0.944 1_565 S
H1437 C1413 0.949 . S
H1438 C1415 0.950 . S
H1439 C1417 0.950 . S
C1440 C1441 1.349 . S
C1440 C1442 1.327 . S
C1440 H1465 0.950 . S
C1441 C1440 1.349 . S
C1441 C1457 1.349 . S
C1442 C1440 1.327 . S
C1442 C1461 1.429 . S
C1442 H1466 0.950 . S
C1443 C1460 1.574 . S
C1443 C1462 1.368 . S
C1443 H1467 0.949 . S
H1444 C1448 0.949 . S
C1445 C1446 1.349 . S
C1445 C1447 1.327 . S
C1445 H1468 0.950 . S
C1446 C1445 1.349 . S
C1446 C1458 1.349 . S
C1447 C1445 1.327 . S
C1447 C1463 1.429 . S
C1447 H1469 0.950 . S
C1448 H1444 0.949 . S
C1448 C1456 1.574 . S
C1448 C1464 1.368 . S
H1449 C1457 0.950 . S
H1450 C1455 0.950 . S
H1451 C1456 0.949 . S
H1452 C1458 0.950 . S
H1453 C1459 0.950 . S
H1454 C1460 0.949 . S
C1455 H1450 0.950 . S
C1455 C1457 1.327 . S
C1455 C1461 1.429 . S
C1456 C1448 1.574 . S
C1456 H1451 0.949 . S
C1456 C1462 1.368 . S
C1457 C1441 1.349 . S
C1457 H1449 0.950 . S
C1457 C1455 1.327 . S
C1458 C1446 1.349 . S
C1458 H1452 0.950 . S
C1458 C1459 1.327 . S
C1459 H1453 0.950 . S
C1459 C1458 1.327 . S
C1459 C1463 1.429 . S
C1460 C1443 1.574 . S
C1460 H1454 0.949 . S
C1460 C1464 1.368 . S
C1461 C1442 1.429 . S
C1461 C1455 1.429 . S
C1461 C1462 1.523 . S
C1462 C1443 1.368 . S
C1462 C1456 1.368 . S
C1462 C1461 1.523 . S
C1463 C1447 1.429 . S
C1463 C1459 1.429 . S
C1463 C1464 1.523 . S
C1464 C1448 1.368 . S
C1464 C1460 1.368 . S
C1464 C1463 1.523 . S
H1465 C1440 0.950 . S
H1466 C1442 0.950 . S
H1467 C1443 0.949 . S
H1468 C1445 0.950 . S
H1469 C1447 0.950 . S
C1470 C1471 1.349 . S
C1470 C1472 1.327 . S
C1470 H1495 0.950 . S
C1471 C1470 1.349 . S
C1471 C1487 1.349 . S
C1472 C1470 1.327 . S
C1472 C1491 1.429 . S
C1472 H1496 0.950 . S
C1473 C1490 1.574 . S
C1473 C1492 1.368 . S
C1473 H1497 0.949 . S
H1474 C1478 0.949 . S
C1475 C1476 1.349 . S
C1475 C1477 1.327 . S
C1475 H1498 0.950 . S
C1476 C1475 1.349 . S
C1476 C1488 1.349 . S
C1477 C1475 1.327 . S
C1477 C1493 1.429 . S
C1477 H1499 0.950 . S
C1478 H1474 0.949 . S
C1478 C1486 1.574 . S
C1478 C1494 1.368 . S
H1479 C1487 0.950 . S
H1480 C1485 0.950 . S
H1481 C1486 0.949 . S
H1482 C1488 0.950 . S
H1483 C1489 0.950 . S
H1484 C1490 0.949 . S
C1485 H1480 0.950 . S
C1485 C1487 1.327 . S
C1485 C1491 1.429 . S
C1486 C1478 1.574 . S
C1486 H1481 0.949 . S
C1486 C1492 1.368 . S
C1487 C1471 1.349 . S
C1487 H1479 0.950 . S
C1487 C1485 1.327 . S
C1488 C1476 1.349 . S
C1488 H1482 0.950 . S
C1488 C1489 1.327 . S
C1489 H1483 0.950 . S
C1489 C1488 1.327 . S
C1489 C1493 1.429 . S
C1490 C1473 1.574 . S
C1490 H1484 0.949 . S
C1490 C1494 1.368 . S
C1491 C1472 1.429 . S
C1491 C1485 1.429 . S
C1491 C1492 1.523 . S
C1492 C1473 1.368 . S
C1492 C1486 1.368 . S
C1492 C1491 1.523 . S
C1493 C1477 1.429 . S
C1493 C1489 1.429 . S
C1493 C1494 1.523 . S
C1494 C1478 1.368 . S
C1494 C1490 1.368 . S
C1494 C1493 1.523 . S
H1495 C1470 0.950 . S
H1496 C1472 0.950 . S
H1497 C1473 0.949 . S
H1498 C1475 0.950 . S
H1499 C1477 0.950 . S
C1500 C1501 1.349 . S
C1500 C1502 1.327 . S
C1500 H1525 0.950 . S
C1501 C1500 1.349 . S
C1501 C1517 1.349 . S
C1502 C1500 1.327 . S
C1502 C1521 1.429 . S
C1502 H1526 0.950 . S
C1503 C1520 1.574 . S
C1503 C1522 1.368 . S
C1503 H1527 0.949 . S
H1504 C1508 0.949 . S
C1505 C1506 1.349 . S
C1505 C1507 1.327 . S
C1505 H1528 0.950 . S
C1506 C1505 1.349 . S
C1506 C1518 1.349 . S
C1507 C1505 1.327 . S
C1507 C1523 1.429 . S
C1507 H1529 0.950 . S
C1508 H1504 0.949 . S
C1508 C1516 1.574 . S
C1508 C1524 1.368 . S
H1509 C1517 0.950 . S
H1510 C1515 0.950 . S
H1511 C1516 0.949 . S
H1512 C1518 0.950 . S
H1513 C1519 0.950 . S
H1514 C1520 0.949 . S
C1515 H1510 0.950 . S
C1515 C1517 1.327 . S
C1515 C1521 1.429 . S
C1516 C1508 1.574 . S
C1516 H1511 0.949 . S
C1516 C1522 1.368 . S
C1517 C1501 1.349 . S
C1517 H1509 0.950 . S
C1517 C1515 1.327 . S
C1518 C1506 1.349 . S
C1518 H1512 0.950 . S
C1518 C1519 1.327 . S
C1519 H1513 0.950 . S
C1519 C1518 1.327 . S
C1519 C1523 1.429 . S
C1520 C1503 1.574 . S
C1520 H1514 0.949 . S
C1520 C1524 1.368 . S
C1521 C1502 1.429 . S
C1521 C1515 1.429 . S
C1521 C1522 1.523 . S
C1522 C1503 1.368 . S
C1522 C1516 1.368 . S
C1522 C1521 1.523 . S
C1523 C1507 1.429 . S
C1523 C1519 1.429 . S
C1523 C1524 1.523 . S
C1524 C1508 1.368 . S
C1524 C1520 1.368 . S
C1524 C1523 1.523 . S
H1525 C1500 0.950 . S
H1526 C1502 0.950 . S
H1527 C1503 0.949 . S
H1528 C1505 0.950 . S
H1529 C1507 0.950 . S
C1530 C1531 1.349 . S
C1530 C1532 1.327 . S
C1530 H1555 0.950 . S
C1531 C1530 1.349 . S
C1531 C1547 1.349 . S
C1532 C1530 1.327 . S
C1532 C1551 1.429 . S
C1532 H1556 0.950 . S
C1533 C1550 1.574 . S
C1533 C1552 1.368 . S
C1533 H1557 0.949 . S
H1534 C1538 0.949 . S
C1535 C1536 1.349 . S
C1535 C1537 1.327 . S
C1535 H1558 0.950 . S
C1536 C1535 1.349 . S
C1536 C1548 1.349 . S
C1537 C1535 1.327 . S
C1537 C1553 1.429 . S
C1537 H1559 0.950 . S
C1538 H1534 0.949 . S
C1538 C1546 1.574 . S
C1538 C1554 1.368 . S
H1539 C1547 0.950 . S
H1540 C1545 0.950 . S
H1541 C1546 0.949 . S
H1542 C1548 0.950 . S
H1543 C1549 0.950 . S
H1544 C1550 0.949 . S
C1545 H1540 0.950 . S
C1545 C1547 1.327 . S
C1545 C1551 1.429 . S
C1546 C1538 1.574 . S
C1546 H1541 0.949 . S
C1546 C1552 1.368 . S
C1547 C1531 1.349 . S
C1547 H1539 0.950 . S
C1547 C1545 1.327 . S
C1548 C1536 1.349 . S
C1548 H1542 0.950 . S
C1548 C1549 1.327 . S
C1549 H1543 0.950 . S
C1549 C1548 1.327 . S
C1549 C1553 1.429 . S
C1550 C1533 1.574 . S
C1550 H1544 0.949 . S
C1550 C1554 1.368 . S
C1551 C1532 1.429 . S
C1551 C1545 1.429 . S
C1551 C1552 1.523 . S
C1552 C1533 1.368 . S
C1552 C1546 1.368 . S
C1552 C1551 1.523 . S
C1553 C1537 1.429 . S
C1553 C1549 1.429 . S
C1553 C1554 1.523 . S
C1554 C1538 1.368 . S
C1554 C1550 1.368 . S
C1554 C1553 1.523 . S
H1555 C1530 0.950 . S
H1556 C1532 0.950 . S
H1557 C1533 0.949 . S
H1558 C1535 0.950 . S
H1559 C1537 0.950 . S
C1560 C1561 1.349 . S
C1560 C1562 1.327 . S
C1560 H1585 0.950 . S
C1561 C1560 1.349 . S
C1561 C1577 1.349 . S
C1562 C1560 1.327 . S
C1562 C1581 1.429 . S
C1562 H1586 0.950 . S
C1563 C1580 1.574 . S
C1563 C1582 1.368 . S
C1563 H1587 0.949 . S
H1564 C1568 0.949 . S
C1565 C1566 1.349 . S
C1565 C1567 1.327 . S
C1565 H1588 0.950 . S
C1566 C1565 1.349 . S
C1566 C1578 1.349 . S
C1567 C1565 1.327 . S
C1567 C1583 1.429 . S
C1567 H1589 0.950 . S
C1568 H1564 0.949 . S
C1568 C1576 1.574 . S
C1568 C1584 1.368 . S
H1569 C1577 0.950 . S
H1570 C1575 0.950 . S
H1571 C1576 0.949 . S
H1572 C1578 0.950 . S
H1573 C1579 0.950 . S
H1574 C1580 0.949 . S
C1575 H1570 0.950 . S
C1575 C1577 1.327 . S
C1575 C1581 1.429 . S
C1576 C1568 1.574 . S
C1576 H1571 0.949 . S
C1576 C1582 1.368 . S
C1577 C1561 1.349 . S
C1577 H1569 0.950 . S
C1577 C1575 1.327 . S
C1578 C1566 1.349 . S
C1578 H1572 0.950 . S
C1578 C1579 1.327 . S
C1579 H1573 0.950 . S
C1579 C1578 1.327 . S
C1579 C1583 1.429 . S
C1580 C1563 1.574 . S
C1580 H1574 0.949 . S
C1580 C1584 1.368 . S
C1581 C1562 1.429 . S
C1581 C1575 1.429 . S
C1581 C1582 1.523 . S
C1582 C1563 1.368 . S
C1582 C1576 1.368 . S
C1582 C1581 1.523 . S
C1583 C1567 1.429 . S
C1583 C1579 1.429 . S
C1583 C1584 1.523 . S
C1584 C1568 1.368 . S
C1584 C1580 1.368 . S
C1584 C1583 1.523 . S
H1585 C1560 0.950 . S
H1586 C1562 0.950 . S
H1587 C1563 0.949 . S
H1588 C1565 0.950 . S
H1589 C1567 0.950 . S
C1590 C1591 1.349 . S
C1590 C1592 1.327 . S
C1590 H1615 0.950 . S
C1591 C1590 1.349 . S
C1591 C1607 1.349 . S
C1592 C1590 1.327 . S
C1592 C1611 1.429 . S
C1592 H1616 0.950 . S
C1593 C1610 1.574 . S
C1593 C1612 1.368 . S
C1593 H1617 0.949 . S
H1594 C1598 0.949 . S
C1595 C1596 1.349 . S
C1595 C1597 1.327 . S
C1595 H1618 0.950 . S
C1596 C1595 1.349 . S
C1596 C1608 1.349 . S
C1597 C1595 1.327 . S
C1597 C1613 1.429 . S
C1597 H1619 0.950 . S
C1598 H1594 0.949 . S
C1598 C1606 1.574 . S
C1598 C1614 1.368 . S
H1599 C1607 0.950 . S
H1600 C1605 0.950 . S
H1601 C1606 0.949 . S
H1602 C1608 0.950 . S
H1603 C1609 0.950 . S
H1604 C1610 0.949 . S
C1605 H1600 0.950 . S
C1605 C1607 1.327 . S
C1605 C1611 1.429 . S
C1606 C1598 1.574 . S
C1606 H1601 0.949 . S
C1606 C1612 1.368 . S
C1607 C1591 1.349 . S
C1607 H1599 0.950 . S
C1607 C1605 1.327 . S
C1608 C1596 1.349 . S
C1608 H1602 0.950 . S
C1608 C1609 1.327 . S
C1609 H1603 0.950 . S
C1609 C1608 1.327 . S
C1609 C1613 1.429 . S
C1610 C1593 1.574 . S
C1610 H1604 0.949 . S
C1610 C1614 1.368 . S
C1611 C1592 1.429 . S
C1611 C1605 1.429 . S
C1611 C1612 1.523 . S
C1612 C1593 1.368 . S
C1612 C1606 1.368 . S
C1612 C1611 1.523 . S
C1613 C1597 1.429 . S
C1613 C1609 1.429 . S
C1613 C1614 1.523 . S
C1614 C1598 1.368 . S
C1614 C1610 1.368 . S
C1614 C1613 1.523 . S
H1615 C1590 0.950 . S
H1616 C1592 0.950 . S
H1617 C1593 0.949 . S
H1618 C1595 0.950 . S
H1619 C1597 0.950 . S
C1620 C1621 1.349 . S
C1620 C1622 1.327 . S
C1620 H1645 0.950 . S
C1621 C1620 1.349 . S
C1621 C1637 1.349 . S
C1622 C1620 1.327 . S
C1622 C1641 1.429 . S
C1622 H1646 0.950 . S
C1623 C1640 1.574 . S
C1623 C1642 1.368 . S
C1623 H1647 0.949 . S
H1624 C1628 0.949 . S
C1625 C1626 1.349 . S
C1625 C1627 1.327 . S
C1625 H1648 0.950 . S
C1626 C1625 1.349 . S
C1626 C1638 1.349 . S
C1627 C1625 1.327 . S
C1627 C1643 1.429 . S
C1627 H1649 0.950 . S
C1628 H1624 0.949 . S
C1628 C1636 1.574 . S
C1628 C1644 1.368 . S
H1629 C1637 0.950 . S
H1630 C1635 0.950 . S
H1631 C1636 0.949 . S
H1632 C1638 0.950 . S
H1633 C1639 0.950 . S
H1634 C1640 0.949 . S
C1635 H1630 0.950 . S
C1635 C1637 1.327 . S
C1635 C1641 1.429 . S
C1636 C1628 1.574 . S
C1636 H1631 0.949 . S
C1636 C1642 1.368 . S
C1637 C1621 1.349 . S
C1637 H1629 0.950 . S
C1637 C1635 1.327 . S
C1638 C1626 1.349 . S
C1638 H1632 0.950 . S
C1638 C1639 1.327 . S
C1639 H1633 0.950 . S
C1639 C1638 1.327 . S
C1639 C1643 1.429 . S
C1640 C1623 1.574 . S
C1640 H1634 0.949 . S
C1640 C1644 1.368 . S
C1641 C1622 1.429 . S
C1641 C1635 1.429 . S
C1641 C1642 1.523 . S
C1642 C1623 1.368 . S
C1642 C1636 1.368 . S
C1642 C1641 1.523 . S
C1643 C1627 1.429 . S
C1643 C1639 1.429 . S
C1643 C1644 1.523 . S
C1644 C1628 1.368 . S
C1644 C1640 1.368 . S
C1644 C1643 1.523 . S
H1645 C1620 0.950 . S
H1646 C1622 0.950 . S
H1647 C1623 0.949 . S
H1648 C1625 0.950 . S
H1649 C1627 0.950 . S
C1650 C1651 1.349 . S
C1650 C1652 1.327 . S
C1650 H1675 0.950 . S
C1651 C1650 1.349 . S
C1651 C1667 1.349 . S
C1652 C1650 1.327 . S
C1652 C1671 1.429 . S
C1652 H1676 0.950 . S
C1653 C1670 1.574 . S
C1653 C1672 1.368 . S
C1653 H1677 0.949 . S
H1654 C1658 0.949 . S
C1655 C1656 1.349 . S
C1655 C1657 1.327 . S
C1655 H1678 0.950 . S
C1656 C1655 1.349 . S
C1656 C1668 1.349 . S
C1657 C1655 1.327 . S
C1657 C1673 1.429 . S
C1657 H1679 0.950 . S
C1658 H1654 0.949 . S
C1658 C1666 1.574 . S
C1658 C1674 1.368 . S
H1659 C1667 0.950 . S
H1660 C1665 0.950 . S
H1661 C1666 0.949 . S
H1662 C1668 0.950 . S
H1663 C1669 0.950 . S
H1664 C1670 0.949 . S
C1665 H1660 0.950 . S
C1665 C1667 1.327 . S
C1665 C1671 1.429 . S
C1666 C1658 1.574 . S
C1666 H1661 0.949 . S
C1666 C1672 1.368 . S
C1667 C1651 1.349 . S
C1667 H1659 0.950 . S
C1667 C1665 1.327 . S
C1668 C1656 1.349 . S
C1668 H1662 0.950 . S
C1668 C1669 1.327 . S
C1669 H1663 0.950 . S
C1669 C1668 1.327 . S
C1669 C1673 1.429 . S
C1670 C1653 1.574 . S
C1670 H1664 0.949 . S
C1670 C1674 1.368 . S
C1671 C1652 1.429 . S
C1671 C1665 1.429 . S
C1671 C1672 1.523 . S
C1672 C1653 1.368 . S
C1672 C1666 1.368 . S
C1672 C1671 1.523 . S
C1673 C1657 1.429 . S
C1673 C1669 1.429 . S
C1673 C1674 1.523 . S
C1674 C1658 1.368 . S
C1674 C1670 1.368 . S
C1674 C1673 1.523 . S
H1675 C1650 0.950 . S
H1676 C1652 0.950 . S
H1677 C1653 0.949 . S
H1678 C1655 0.950 . S
H1679 C1657 0.950 . S
C1680 C1681 1.349 . S
C1680 C1682 1.327 . S
C1680 H1705 0.950 . S
C1681 C1680 1.349 . S
C1681 C1697 1.349 . S
C1682 C1680 1.327 . S
C1682 C1701 1.429 . S
C1682 H1706 0.950 . S
C1683 C1700 1.574 . S
C1683 C1702 1.368 . S
C1683 H1707 0.949 . S
H1684 C1688 0.949 . S
C1685 C1686 1.349 . S
C1685 C1687 1.327 . S
C1685 H1708 0.950 . S
C1686 C1685 1.349 . S
C1686 C1698 1.349 . S
C1687 C1685 1.327 . S
C1687 C1703 1.429 . S
C1687 H1709 0.950 . S
C1688 H1684 0.949 . S
C1688 C1696 1.574 . S
C1688 C1704 1.368 . S
H1689 C1697 0.950 . S
H1690 C1695 0.950 . S
H1691 C1696 0.949 . S
H1692 C1698 0.950 . S
H1693 C1699 0.950 . S
H1694 C1700 0.949 . S
C1695 H1690 0.950 . S
C1695 C1697 1.327 . S
C1695 C1701 1.429 . S
C1696 C1688 1.574 . S
C1696 H1691 0.949 . S
C1696 C1702 1.368 . S
C1697 C1681 1.349 . S
C1697 H1689 0.950 . S
C1697 C1695 1.327 . S
C1698 C1686 1.349 . S
C1698 H1692 0.950 . S
C1698 C1699 1.327 . S
C1699 H1693 0.950 . S
C1699 C1698 1.327 . S
C1699 C1703 1.429 . S
C1700 C1683 1.574 . S
C1700 H1694 0.949 . S
C1700 C1704 1.368 . S
C1701 C1682 1.429 . S
C1701 C1695 1.429 . S
C1701 C1702 1.523 . S
C1702 C1683 1.368 . S
C1702 C1696 1.368 . S
C1702 C1701 1.523 . S
C1703 C1687 1.429 . S
C1703 C1699 1.429 . S
C1703 C1704 1.523 . S
C1704 C1688 1.368 . S
C1704 C1700 1.368 . S
C1704 C1703 1.523 . S
H1705 C1680 0.950 . S
H1706 C1682 0.950 . S
H1707 C1683 0.949 . S
H1708 C1685 0.950 . S
H1709 C1687 0.950 . S
C1710 C1711 1.349 . S
C1710 C1712 1.327 . S
C1710 H1735 0.950 . S
C1711 C1710 1.349 . S
C1711 C1727 1.349 . S
C1712 C1710 1.327 . S
C1712 C1731 1.429 . S
C1712 H1736 0.950 . S
C1713 C1730 1.574 . S
C1713 C1732 1.368 . S
C1713 H1737 0.949 . S
H1714 C1718 0.949 . S
C1715 C1716 1.349 . S
C1715 C1717 1.327 . S
C1715 H1738 0.950 . S
C1716 C1715 1.349 . S
C1716 C1728 1.349 . S
C1717 C1715 1.327 . S
C1717 C1733 1.429 . S
C1717 H1739 0.950 . S
C1718 H1714 0.949 . S
C1718 C1726 1.574 . S
C1718 C1734 1.368 . S
H1719 C1727 0.950 . S
H1720 C1725 0.950 . S
H1721 C1726 0.949 . S
H1722 C1728 0.950 . S
H1723 C1729 0.950 . S
H1724 C1730 0.949 . S
C1725 H1720 0.950 . S
C1725 C1727 1.327 . S
C1725 C1731 1.429 . S
C1726 C1718 1.574 . S
C1726 H1721 0.949 . S
C1726 C1732 1.368 . S
C1727 C1711 1.349 . S
C1727 H1719 0.950 . S
C1727 C1725 1.327 . S
C1728 C1716 1.349 . S
C1728 H1722 0.950 . S
C1728 C1729 1.327 . S
C1729 H1723 0.950 . S
C1729 C1728 1.327 . S
C1729 C1733 1.429 . S
C1730 C1713 1.574 . S
C1730 H1724 0.949 . S
C1730 C1734 1.368 . S
C1731 C1712 1.429 . S
C1731 C1725 1.429 . S
C1731 C1732 1.523 . S
C1732 C1713 1.368 . S
C1732 C1726 1.368 . S
C1732 C1731 1.523 . S
C1733 C1717 1.429 . S
C1733 C1729 1.429 . S
C1733 C1734 1.523 . S
C1734 C1718 1.368 . S
C1734 C1730 1.368 . S
C1734 C1733 1.523 . S
H1735 C1710 0.950 . S
H1736 C1712 0.950 . S
H1737 C1713 0.949 . S
H1738 C1715 0.950 . S
H1739 C1717 0.950 . S
C1740 C1741 1.349 . S
C1740 C1742 1.327 . S
C1740 H1765 0.950 . S
C1741 C1740 1.349 . S
C1741 C1757 1.349 . S
C1742 C1740 1.327 . S
C1742 C1761 1.429 . S
C1742 H1766 0.950 . S
C1743 C1760 1.574 . S
C1743 C1762 1.368 . S
C1743 H1767 0.949 . S
H1744 C1748 0.949 . S
C1745 C1746 1.349 . S
C1745 C1747 1.327 . S
C1745 H1768 0.950 . S
C1746 C1745 1.349 . S
C1746 C1758 1.349 . S
C1747 C1745 1.327 . S
C1747 C1763 1.429 . S
C1747 H1769 0.950 . S
C1748 H1744 0.949 . S
C1748 C1756 1.574 . S
C1748 C1764 1.368 . S
H1749 C1757 0.950 . S
H1750 C1755 0.950 . S
H1751 C1756 0.949 . S
H1752 C1758 0.950 . S
H1753 C1759 0.950 . S
H1754 C1760 0.949 . S
C1755 H1750 0.950 . S
C1755 C1757 1.327 . S
C1755 C1761 1.429 . S
C1756 C1748 1.574 . S
C1756 H1751 0.949 . S
C1756 C1762 1.368 . S
C1757 C1741 1.349 . S
C1757 H1749 0.950 . S
C1757 C1755 1.327 . S
C1758 C1746 1.349 . S
C1758 H1752 0.950 . S
C1758 C1759 1.327 . S
C1759 H1753 0.950 . S
C1759 C1758 1.327 . S
C1759 C1763 1.429 . S
C1760 C1743 1.574 . S
C1760 H1754 0.949 . S
C1760 C1764 1.368 . S
C1761 C1742 1.429 . S
C1761 C1755 1.429 . S
C1761 C1762 1.523 . S
C1762 C1743 1.368 . S
C1762 C1756 1.368 . S
C1762 C1761 1.523 . S
C1763 C1747 1.429 . S
C1763 C1759 1.429 . S
C1763 C1764 1.523 . S
C1764 C1748 1.368 . S
C1764 C1760 1.368 . S
C1764 C1763 1.523 . S
H1765 C1740 0.950 . S
H1766 C1742 0.950 . S
H1767 C1743 0.949 . S
H1768 C1745 0.950 . S
H1769 C1747 0.950 . S
C1770 C1771 1.349 . S
C1770 C1772 1.327 . S
C1770 H1795 0.950 . S
C1771 C1770 1.349 . S
C1771 C1787 1.349 . S
C1772 C1770 1.327 . S
C1772 C1791 1.429 . S
C1772 H1796 0.950 . S
C1773 C1790 1.574 . S
C1773 C1792 1.368 . S
C1773 H1797 0.949 . S
H1774 C1778 0.949 . S
C1775 C1776 1.349 . S
C1775 C1777 1.327 . S
C1775 H1798 0.950 . S
C1776 C1775 1.349 . S
C1776 C1788 1.349 . S
C1777 C1775 1.327 . S
C1777 C1793 1.429 . S
C1777 H1799 0.950 . S
C1778 H1774 0.949 . S
C1778 C1786 1.574 . S
C1778 C1794 1.368 . S
H1779 C1787 0.950 . S
H1780 C1785 0.950 . S
H1781 C1786 0.949 . S
H1782 C1788 0.950 . S
H1783 C1789 0.950 . S
H1784 C1790 0.949 . S
C1785 H1780 0.950 . S
C1785 C1787 1.327 . S
C1785 C1791 1.429 . S
C1786 C1778 1.574 . S
C1786 H1781 0.949 . S
C1786 C1792 1.368 . S
C1787 C1771 1.349 . S
C1787 H1779 0.950 . S
C1787 C1785 1.327 . S
C1788 C1776 1.349 . S
C1788 H1782 0.950 . S
C1788 C1789 1.327 . S
C1789 H1783 0.950 . S
C1789 C1788 1.327 . S
C1789 C1793 1.429 . S
C1790 C1773 1.574 . S
C1790 H1784 0.949 . S
C1790 C1794 1.368 . S
C1791 C1772 1.429 . S
C1791 C1785 1.429 . S
C1791 C1792 1.523 . S
C1792 C1773 1.368 . S
C1792 C1786 1.368 . S
C1792 C1791 1.523 . S
C1793 C1777 1.429 . S
C1793 C1789 1.429 . S
C1793 C1794 1.523 . S
C1794 C1778 1.368 . S
C1794 C1790 1.368 . S
C1794 C1793 1.523 . S
H1795 C1770 0.950 . S
H1796 C1772 0.950 . S
H1797 C1773 0.949 . S
H1798 C1775 0.950 . S
H1799 C1777 0.950 . S
C1800 C1801 1.349 . S
C1800 C1802 1.327 . S
C1800 H1825 0.950 . S
C1801 C1800 1.349 . S
C1801 C1817 1.349 . S
C1802 C1800 1.327 . S
C1802 C1821 1.429 . S
C1802 H1826 0.950 . S
C1803 C1820 1.574 . S
C1803 C1822 1.368 . S
C1803 H1827 0.949 . S
H1804 C1808 0.949 . S
C1805 C1806 1.349 . S
C1805 C1807 1.327 . S
C1805 H1828 0.950 . S
C1806 C1805 1.349 . S
C1806 C1818 1.349 . S
C1807 C1805 1.327 . S
C1807 C1823 1.429 . S
C1807 H1829 0.950 . S
C1808 H1804 0.949 . S
C1808 C1816 1.574 . S
C1808 C1824 1.368 . S
H1809 C1817 0.950 . S
H1810 C1815 0.950 . S
H1811 C1816 0.949 . S
H1812 C1818 0.950 . S
H1813 C1819 0.950 . S
H1814 C1820 0.949 . S
C1815 H1810 0.950 . S
C1815 C1817 1.327 . S
C1815 C1821 1.429 . S
C1816 C1808 1.574 . S
C1816 H1811 0.949 . S
C1816 C1822 1.368 . S
C1817 C1801 1.349 . S
C1817 H1809 0.950 . S
C1817 C1815 1.327 . S
C1818 C1806 1.349 . S
C1818 H1812 0.950 . S
C1818 C1819 1.327 . S
C1819 H1813 0.950 . S
C1819 C1818 1.327 . S
C1819 C1823 1.429 . S
C1820 C1803 1.574 . S
C1820 H1814 0.949 . S
C1820 C1824 1.368 . S
C1821 C1802 1.429 . S
C1821 C1815 1.429 . S
C1821 C1822 1.523 . S
C1822 C1803 1.368 . S
C1822 C1816 1.368 . S
C1822 C1821 1.523 . S
C1823 C1807 1.429 . S
C1823 C1819 1.429 . S
C1823 C1824 1.523 . S
C1824 C1808 1.368 . S
C1824 C1820 1.368 . S
C1824 C1823 1.523 . S
H1825 C1800 0.950 . S
H1826 C1802 0.950 . S
H1827 C1803 0.949 . S
H1828 C1805 0.950 . S
H1829 C1807 0.950 . S
C1830 C1831 1.349 . S
C1830 C1832 1.327 . S
C1830 H1855 0.950 . S
C1831 C1830 1.349 . S
C1831 C1847 1.349 . S
C1832 C1830 1.327 . S
C1832 C1851 1.429 . S
C1832 H1856 0.950 . S
C1833 C1850 1.574 . S
C1833 C1852 1.368 . S
C1833 H1857 0.949 . S
H1834 C1838 0.949 . S
C1835 C1836 1.349 . S
C1835 C1837 1.327 . S
C1835 H1858 0.950 . S
C1836 C1835 1.349 . S
C1836 C1848 1.349 . S
C1837 C1835 1.327 . S
C1837 C1853 1.429 . S
C1837 H1859 0.950 . S
C1838 H1834 0.949 . S
C1838 C1846 1.574 . S
C1838 C1854 1.368 . S
H1839 C1847 0.950 . S
H1840 C1845 0.950 . S
H1841 C1846 0.949 . S
H1842 C1848 0.950 . S
H1843 C1849 0.950 . S
H1844 C1850 0.949 . S
C1845 H1840 0.950 . S
C1845 C1847 1.327 . S
C1845 C1851 1.429 . S
C1846 C1838 1.574 . S
C1846 H1841 0.949 . S
C1846 C1852 1.368 . S
C1847 C1831 1.349 . S
C1847 H1839 0.950 . S
C1847 C1845 1.327 . S
C1848 C1836 1.349 . S
C1848 H1842 0.950 . S
C1848 C1849 1.327 . S
C1849 H1843 0.950 . S
C1849 C1848 1.327 . S
C1849 C1853 1.429 . S
C1850 C1833 1.574 . S
C1850 H1844 0.949 . S
C1850 C1854 1.368 . S
C1851 C1832 1.429 . S
C1851 C1845 1.429 . S
C1851 C1852 1.523 . S
C1852 C1833 1.368 . S
C1852 C1846 1.368 . S
C1852 C1851 1.523 . S
C1853 C1837 1.429 . S
C1853 C1849 1.429 . S
C1853 C1854 1.523 . S
C1854 C1838 1.368 . S
C1854 C1850 1.368 . S
C1854 C1853 1.523 . S
H1855 C1830 0.950 . S
H1856 C1832 0.950 . S
H1857 C1833 0.949 . S
H1858 C1835 0.950 . S
H1859 C1837 0.950 . S
C1860 C1861 1.349 . S
C1860 C1862 1.327 . S
C1860 H1885 0.950 . S
C1861 C1860 1.349 . S
C1861 C1877 1.349 . S
C1862 C1860 1.327 . S
C1862 C1881 1.429 . S
C1862 H1886 0.950 . S
C1863 C1880 1.574 . S
C1863 C1882 1.368 . S
C1863 H1887 0.949 . S
H1864 C1868 0.949 . S
C1865 C1866 1.349 . S
C1865 C1867 1.327 . S
C1865 H1888 0.950 . S
C1866 C1865 1.349 . S
C1866 C1878 1.349 . S
C1867 C1865 1.327 . S
C1867 C1883 1.429 . S
C1867 H1889 0.950 . S
C1868 H1864 0.949 . S
C1868 C1876 1.574 . S
C1868 C1884 1.368 . S
H1869 C1877 0.950 . S
H1870 C1875 0.950 . S
H1871 C1876 0.949 . S
H1872 C1878 0.950 . S
H1873 C1879 0.950 . S
H1874 C1880 0.949 . S
C1875 H1870 0.950 . S
C1875 C1877 1.327 . S
C1875 C1881 1.429 . S
C1876 C1868 1.574 . S
C1876 H1871 0.949 . S
C1876 C1882 1.368 . S
C1877 C1861 1.349 . S
C1877 H1869 0.950 . S
C1877 C1875 1.327 . S
C1878 C1866 1.349 . S
C1878 H1872 0.950 . S
C1878 C1879 1.327 . S
C1879 H1873 0.950 . S
C1879 C1878 1.327 . S
C1879 C1883 1.429 . S
C1880 C1863 1.574 . S
C1880 H1874 0.949 . S
C1880 C1884 1.368 . S
C1881 C1862 1.429 . S
C1881 C1875 1.429 . S
C1881 C1882 1.523 . S
C1882 C1863 1.368 . S
C1882 C1876 1.368 . S
C1882 C1881 1.523 . S
C1883 C1867 1.429 . S
C1883 C1879 1.429 . S
C1883 C1884 1.523 . S
C1884 C1868 1.368 . S
C1884 C1880 1.368 . S
C1884 C1883 1.523 . S
H1885 C1860 0.950 . S
H1886 C1862 0.950 . S
H1887 C1863 0.949 . S
H1888 C1865 0.950 . S
H1889 C1867 0.950 . S
C1890 C1891 1.349 . S
C1890 C1892 1.327 . S
C1890 H1915 0.950 . S
C1891 C1890 1.349 . S
C1891 C1907 1.349 . S
C1892 C1890 1.327 . S
C1892 C1911 1.429 . S
C1892 H1916 0.950 . S
C1893 C1910 1.574 . S
C1893 C1912 1.368 . S
C1893 H1917 0.949 . S
H1894 C1898 0.949 . S
C1895 C1896 1.349 . S
C1895 C1897 1.327 . S
C1895 H1918 0.950 . S
C1896 C1895 1.349 . S
C1896 C1908 1.349 . S
C1897 C1895 1.327 . S
C1897 C1913 1.429 . S
C1897 H1919 0.950 . S
C1898 H1894 0.949 . S
C1898 C1906 1.574 . S
C1898 C1914 1.368 . S
H1899 C1907 0.950 . S
H1900 C1905 0.950 . S
H1901 C1906 0.949 . S
H1902 C1908 0.950 . S
H1903 C1909 0.950 . S
H1904 C1910 0.949 . S
C1905 H1900 0.950 . S
C1905 C1907 1.327 . S
C1905 C1911 1.429 . S
C1906 C1898 1.574 . S
C1906 H1901 0.949 . S
C1906 C1912 1.368 . S
C1907 C1891 1.349 . S
C1907 H1899 0.950 . S
C1907 C1905 1.327 . S
C1908 C1896 1.349 . S
C1908 H1902 0.950 . S
C1908 C1909 1.327 . S
C1909 H1903 0.950 . S
C1909 C1908 1.327 . S
C1909 C1913 1.429 . S
C1910 C1893 1.574 . S
C1910 H1904 0.949 . S
C1910 C1914 1.368 . S
C1911 C1892 1.429 . S
C1911 C1905 1.429 . S
C1911 C1912 1.523 . S
C1912 C1893 1.368 . S
C1912 C1906 1.368 . S
C1912 C1911 1.523 . S
C1913 C1897 1.429 . S
C1913 C1909 1.429 . S
C1913 C1914 1.523 . S
C1914 C1898 1.368 . S
C1914 C1910 1.368 . S
C1914 C1913 1.523 . S
H1915 C1890 0.950 . S
H1916 C1892 0.950 . S
H1917 C1893 0.949 . S
H1918 C1895 0.950 . S
H1919 C1897 0.950 . S
C1920 C1921 1.349 . S
C1920 C1922 1.327 . S
C1920 H1945 0.950 . S
C1921 C1920 1.349 . S
C1921 C1937 1.349 . S
C1922 C1920 1.327 . S
C1922 C1941 1.429 . S
C1922 H1946 0.950 . S
C1923 C1940 1.574 . S
C1923 C1942 1.368 . S
C1923 H1947 0.949 . S
H1924 C1928 0.949 . S
C1925 C1926 1.349 . S
C1925 C1927 1.327 . S
C1925 H1948 0.950 . S
C1926 C1925 1.349 . S
C1926 C1938 1.349 . S
C1927 C1925 1.327 . S
C1927 C1943 1.429 . S
C1927 H1949 0.950 . S
C1928 H1924 0.949 . S
C1928 C1936 1.574 . S
C1928 C1944 1.368 . S
H1929 C1937 0.950 . S
H1930 C1935 0.950 . S
H1931 C1936 0.949 . S
H1932 C1938 0.950 . S
H1933 C1939 0.950 . S
H1934 C1940 0.949 . S
C1935 H1930 0.950 . S
C1935 C1937 1.327 . S
C1935 C1941 1.429 . S
C1936 C1928 1.574 . S
C1936 H1931 0.949 . S
C1936 C1942 1.368 . S
C1937 C1921 1.349 . S
C1937 H1929 0.950 . S
C1937 C1935 1.327 . S
C1938 C1926 1.349 . S
C1938 H1932 0.950 . S
C1938 C1939 1.327 . S
C1939 H1933 0.950 . S
C1939 C1938 1.327 . S
C1939 C1943 1.429 . S
C1940 C1923 1.574 . S
C1940 H1934 0.949 . S
C1940 C1944 1.368 . S
C1941 C1922 1.429 . S
C1941 C1935 1.429 . S
C1941 C1942 1.523 . S
C1942 C1923 1.368 . S
C1942 C1936 1.368 . S
C1942 C1941 1.523 . S
C1943 C1927 1.429 . S
C1943 C1939 1.429 . S
C1943 C1944 1.523 . S
C1944 C1928 1.368 . S
C1944 C1940 1.368 . S
C1944 C1943 1.523 . S
H1945 C1920 0.950 . S
H1946 C1922 0.950 . S
H1947 C1923 0.949 . S
H1948 C1925 0.950 . S
H1949 C1927 0.950 . S
C1950 C1951 1.349 . S
C1950 C1952 1.327 . S
C1950 H1975 0.950 . S
C1951 C1950 1.349 . S
C1951 C1967 1.349 . S
C1952 C1950 1.327 . S
C1952 C1971 1.429 . S
C1952 H1976 0.950 . S
C1953 C1970 1.574 . S
C1953 C1972 1.368 . S
C1953 H1977 0.949 . S
H1954 C1958 0.949 . S
C1955 C1956 1.349 . S
C1955 C1957 1.327 . S
C1955 H1978 0.950 . S
C1956 C1955 1.349 . S
C1956 C1968 1.349 . S
C1957 C1955 1.327 . S
C1957 C1973 1.429 . S
C1957 H1979 0.950 . S
C1958 H1954 0.949 . S
C1958 C1966 1.574 . S
C1958 C1974 1.368 . S
H1959 C1967 0.950 . S
H1960 C1965 0.950 . S
H1961 C1966 0.949 . S
H1962 C1968 0.950 . S
H1963 C1969 0.950 . S
H1964 C1970 0.949 . S
C1965 H1960 0.950 . S
C1965 C1967 1.327 . S
C1965 C1971 1.429 . S
C1966 C1958 1.574 . S
C1966 H1961 0.949 . S
C1966 C1972 1.368 . S
C1967 C1951 1.349 . S
C1967 H1959 0.950 . S
C1967 C1965 1.327 . S
C1968 C1956 1.349 . S
C1968 H1962 0.950 . S
C1968 C1969 1.327 . S
C1969 H1963 0.950 . S
C1969 C1968 1.327 . S
C1969 C1973 1.429 . S
C1970 C1953 1.574 . S
C1970 H1964 0.949 . S
C1970 C1974 1.368 . S
C1971 C1952 1.429 . S
C1971 C1965 1.429 . S
C1971 C1972 1.523 . S
C1972 C1953 1.368 . S
C1972 C1966 1.368 . S
C1972 C1971 1.523 . S
C1973 C1957 1.429 . S
C1973 C1969 1.429 . S
C1973 C1974 1.523 . S
C1974 C1958 1.368 . S
C1974 C1970 1.368 . S
C1974 C1973 1.523 . S
H1975 C1950 0.950 . S
H1976 C1952 0.950 . S
H1977 C1953 0.949 . S
H1978 C1955 0.950 . S
H1979 C1957 0.950 . S
C1980 C1981 1.349 . S
C1980 C1982 1.327 . S
C1980 H2005 0.950 . S
C1981 C1980 1.349 . S
C1981 C1997 1.349 . S
C1982 C1980 1.327 . S
C1982 C2001 1.429 . S
C1982 H2006 0.950 . S
C1983 C2000 1.574 . S
C1983 C2002 1.368 . S
C1983 H2007 0.949 . S
H1984 C1988 0.949 . S
C1985 C1986 1.349 . S
C1985 C1987 1.327 . S
C1985 H2008 0.950 . S
C1986 C1985 1.349 . S
C1986 C1998 1.349 . S
C1987 C1985 1.327 . S
C1987 C2003 1.429 . S
C1987 H2009 0.950 . S
C1988 H1984 0.949 . S
C1988 C1996 1.574 . S
C1988 C2004 1.368 . S
H1989 C1997 0.950 . S
H1990 C1995 0.950 . S
H1991 C1996 0.949 . S
H1992 C1998 0.950 . S
H1993 C1999 0.950 . S
H1994 C2000 0.949 . S
C1995 H1990 0.950 . S
C1995 C1997 1.327 . S
C1995 C2001 1.429 . S
C1996 C1988 1.574 . S
C1996 H1991 0.949 . S
C1996 C2002 1.368 . S
C1997 C1981 1.349 . S
C1997 H1989 0.950 . S
C1997 C1995 1.327 . S
C1998 C1986 1.349 . S
C1998 H1992 0.950 . S
C1998 C1999 1.327 . S
C1999 H1993 0.950 . S
C1999 C1998 1.327 . S
C1999 C2003 1.429 . S
C2000 C1983 1.574 . S
C2000 H1994 0.949 . S
C2000 C2004 1.368 . S
C2001 C1982 1.429 . S
C2001 C1995 1.429 . S
C2001 C2002 1.523 . S
C2002 C1983 1.368 . S
C2002 C1996 1.368 . S
C2002 C2001 1.523 . S
C2003 C1987 1.429 . S
C2003 C1999 1.429 . S
C2003 C2004 1.523 . S
C2004 C1988 1.368 . S
C2004 C2000 1.368 . S
C2004 C2003 1.523 . S
H2005 C1980 0.950 . S
H2006 C1982 0.950 . S
H2007 C1983 0.949 . S
H2008 C1985 0.950 . S
H2009 C1987 0.950 . S
C2010 C2011 1.349 . S
C2010 C2012 1.327 . S
C2010 H2035 0.950 . S
C2011 C2010 1.349 . S
C2011 C2027 1.349 . S
C2012 C2010 1.327 . S
C2012 C2031 1.429 . S
C2012 H2036 0.950 . S
C2013 C2030 1.574 . S
C2013 C2032 1.368 . S
C2013 H2037 0.949 . S
H2014 C2018 0.949 . S
C2015 C2016 1.349 . S
C2015 C2017 1.327 . S
C2015 H2038 0.950 . S
C2016 C2015 1.349 . S
C2016 C2028 1.349 . S
C2017 C2015 1.327 . S
C2017 C2033 1.429 . S
C2017 H2039 0.950 . S
C2018 H2014 0.949 . S
C2018 C2026 1.574 . S
C2018 C2034 1.368 . S
H2019 C2027 0.950 . S
H2020 C2025 0.950 . S
H2021 C2026 0.949 . S
H2022 C2028 0.950 . S
H2023 C2029 0.950 . S
H2024 C2030 0.949 . S
C2025 H2020 0.950 . S
C2025 C2027 1.327 . S
C2025 C2031 1.429 . S
C2026 C2018 1.574 . S
C2026 H2021 0.949 . S
C2026 C2032 1.368 . S
C2027 C2011 1.349 . S
C2027 H2019 0.950 . S
C2027 C2025 1.327 . S
C2028 C2016 1.349 . S
C2028 H2022 0.950 . S
C2028 C2029 1.327 . S
C2029 H2023 0.950 . S
C2029 C2028 1.327 . S
C2029 C2033 1.429 . S
C2030 C2013 1.574 . S
C2030 H2024 0.949 . S
C2030 C2034 1.368 . S
C2031 C2012 1.429 . S
C2031 C2025 1.429 . S
C2031 C2032 1.523 . S
C2032 C2013 1.368 . S
C2032 C2026 1.368 . S
C2032 C2031 1.523 . S
C2033 C2017 1.429 . S
C2033 C2029 1.429 . S
C2033 C2034 1.523 . S
C2034 C2018 1.368 . S
C2034 C2030 1.368 . S
C2034 C2033 1.523 . S
H2035 C2010 0.950 . S
H2036 C2012 0.950 . S
H2037 C2013 0.949 . S
H2038 C2015 0.950 . S
H2039 C2017 0.950 . S
C2040 C2041 1.349 . S
C2040 C2042 1.327 . S
C2040 H2065 0.950 . S
C2041 C2040 1.349 . S
C2041 C2057 1.349 . S
C2042 C2040 1.327 . S
C2042 C2061 1.429 . S
C2042 H2066 0.950 . S
C2043 C2060 1.574 . S
C2043 C2062 1.368 . S
C2043 H2067 0.949 . S
H2044 C2048 0.949 . S
C2045 C2046 1.349 . S
C2045 C2047 1.327 . S
C2045 H2068 0.950 . S
C2046 C2045 1.349 . S
C2046 C2058 1.349 . S
C2047 C2045 1.327 . S
C2047 C2063 1.429 . S
C2047 H2069 0.950 . S
C2048 H2044 0.949 . S
C2048 C2056 1.574 . S
C2048 C2064 1.368 . S
H2049 C2057 0.950 . S
H2050 C2055 0.950 . S
H2051 C2056 0.949 . S
H2052 C2058 0.950 . S
H2053 C2059 0.950 . S
H2054 C2060 0.949 . S
C2055 H2050 0.950 . S
C2055 C2057 1.327 . S
C2055 C2061 1.429 . S
C2056 C2048 1.574 . S
C2056 H2051 0.949 . S
C2056 C2062 1.368 . S
C2057 C2041 1.349 . S
C2057 H2049 0.950 . S
C2057 C2055 1.327 . S
C2058 C2046 1.349 . S
C2058 H2052 0.950 . S
C2058 C2059 1.327 . S
C2059 H2053 0.950 . S
C2059 C2058 1.327 . S
C2059 C2063 1.429 . S
C2060 C2043 1.574 . S
C2060 H2054 0.949 . S
C2060 C2064 1.368 . S
C2061 C2042 1.429 . S
C2061 C2055 1.429 . S
C2061 C2062 1.523 . S
C2062 C2043 1.368 . S
C2062 C2056 1.368 . S
C2062 C2061 1.523 . S
C2063 C2047 1.429 . S
C2063 C2059 1.429 . S
C2063 C2064 1.523 . S
C2064 C2048 1.368 . S
C2064 C2060 1.368 . S
C2064 C2063 1.523 . S
H2065 C2040 0.950 . S
H2066 C2042 0.950 . S
H2067 C2043 0.949 . S
H2068 C2045 0.950 . S
H2069 C2047 0.950 . S
C2070 C2071 1.349 . S
C2070 C2072 1.327 . S
C2070 H2095 0.950 . S
C2071 C2070 1.349 . S
C2071 C2087 1.349 . S
C2072 C2070 1.327 . S
C2072 C2091 1.429 . S
C2072 H2096 0.950 . S
C2073 C2090 1.574 . S
C2073 C2092 1.368 . S
C2073 H2097 0.949 . S
H2074 C2078 0.949 . S
C2075 C2076 1.349 . S
C2075 C2077 1.327 . S
C2075 H2098 0.950 . S
C2076 C2075 1.349 . S
C2076 C2088 1.349 . S
C2077 C2075 1.327 . S
C2077 C2093 1.429 . S
C2077 H2099 0.950 . S
C2078 H2074 0.949 . S
C2078 C2086 1.574 . S
C2078 C2094 1.368 . S
H2079 C2087 0.950 . S
H2080 C2085 0.950 . S
H2081 C2086 0.949 . S
H2082 C2088 0.950 . S
H2083 C2089 0.950 . S
H2084 C2090 0.949 . S
C2085 H2080 0.950 . S
C2085 C2087 1.327 . S
C2085 C2091 1.429 . S
C2086 C2078 1.574 . S
C2086 H2081 0.949 . S
C2086 C2092 1.368 . S
C2087 C2071 1.349 . S
C2087 H2079 0.950 . S
C2087 C2085 1.327 . S
C2088 C2076 1.349 . S
C2088 H2082 0.950 . S
C2088 C2089 1.327 . S
C2089 H2083 0.950 . S
C2089 C2088 1.327 . S
C2089 C2093 1.429 . S
C2090 C2073 1.574 . S
C2090 H2084 0.949 . S
C2090 C2094 1.368 . S
C2091 C2072 1.429 . S
C2091 C2085 1.429 . S
C2091 C2092 1.523 . S
C2092 C2073 1.368 . S
C2092 C2086 1.368 . S
C2092 C2091 1.523 . S
C2093 C2077 1.429 . S
C2093 C2089 1.429 . S
C2093 C2094 1.523 . S
C2094 C2078 1.368 . S
C2094 C2090 1.368 . S
C2094 C2093 1.523 . S
H2095 C2070 0.950 . S
H2096 C2072 0.950 . S
H2097 C2073 0.949 . S
H2098 C2075 0.950 . S
H2099 C2077 0.950 . S
C2100 C2101 1.349 . S
C2100 C2102 1.327 . S
C2100 H2125 0.950 . S
C2101 C2100 1.349 . S
C2101 C2117 1.349 . S
C2102 C2100 1.327 . S
C2102 C2121 1.429 . S
C2102 H2126 0.950 . S
C2103 C2120 1.574 . S
C2103 C2122 1.368 . S
C2103 H2127 0.949 . S
H2104 C2108 0.949 . S
C2105 C2106 1.349 . S
C2105 C2107 1.327 . S
C2105 H2128 0.950 . S
C2106 C2105 1.349 . S
C2106 C2118 1.349 . S
C2107 C2105 1.327 . S
C2107 C2123 1.429 . S
C2107 H2129 0.950 . S
C2108 H2104 0.949 . S
C2108 C2116 1.574 . S
C2108 C2124 1.368 . S
H2109 C2117 0.950 . S
H2110 C2115 0.950 . S
H2111 C2116 0.949 . S
H2112 C2118 0.950 . S
H2113 C2119 0.950 . S
H2114 C2120 0.949 . S
C2115 H2110 0.950 . S
C2115 C2117 1.327 . S
C2115 C2121 1.429 . S
C2116 C2108 1.574 . S
C2116 H2111 0.949 . S
C2116 C2122 1.368 . S
C2117 C2101 1.349 . S
C2117 H2109 0.950 . S
C2117 C2115 1.327 . S
C2118 C2106 1.349 . S
C2118 H2112 0.950 . S
C2118 C2119 1.327 . S
C2119 H2113 0.950 . S
C2119 C2118 1.327 . S
C2119 C2123 1.429 . S
C2120 C2103 1.574 . S
C2120 H2114 0.949 . S
C2120 C2124 1.368 . S
C2121 C2102 1.429 . S
C2121 C2115 1.429 . S
C2121 C2122 1.523 . S
C2122 C2103 1.368 . S
C2122 C2116 1.368 . S
C2122 C2121 1.523 . S
C2123 C2107 1.429 . S
C2123 C2119 1.429 . S
C2123 C2124 1.523 . S
C2124 C2108 1.368 . S
C2124 C2120 1.368 . S
C2124 C2123 1.523 . S
H2125 C2100 0.950 . S
H2126 C2102 0.950 . S
H2127 C2103 0.949 . S
H2128 C2105 0.950 . S
H2129 C2107 0.950 . S
C2130 C2131 1.349 . S
C2130 C2132 1.327 . S
C2130 H2155 0.950 . S
C2131 C2130 1.349 . S
C2131 C2147 1.349 . S
C2132 C2130 1.327 . S
C2132 C2151 1.429 . S
C2132 H2156 0.950 . S
C2133 C2150 1.574 . S
C2133 C2152 1.368 . S
C2133 H2157 0.949 . S
H2134 C2138 0.949 . S
C2135 C2136 1.349 . S
C2135 C2137 1.327 . S
C2135 H2158 0.950 . S
C2136 C2135 1.349 . S
C2136 C2148 1.349 . S
C2137 C2135 1.327 . S
C2137 C2153 1.429 . S
C2137 H2159 0.950 . S
C2138 H2134 0.949 . S
C2138 C2146 1.574 . S
C2138 C2154 1.368 . S
H2139 C2147 0.950 . S
H2140 C2145 0.950 . S
H2141 C2146 0.949 . S
H2142 C2148 0.950 . S
H2143 C2149 0.950 . S
H2144 C2150 0.949 . S
C2145 H2140 0.950 . S
C2145 C2147 1.327 . S
C2145 C2151 1.429 . S
C2146 C2138 1.574 . S
C2146 H2141 0.949 . S
C2146 C2152 1.368 . S
C2147 C2131 1.349 . S
C2147 H2139 0.950 . S
C2147 C2145 1.327 . S
C2148 C2136 1.349 . S
C2148 H2142 0.950 . S
C2148 C2149 1.327 . S
C2149 H2143 0.950 . S
C2149 C2148 1.327 . S
C2149 C2153 1.429 . S
C2150 C2133 1.574 . S
C2150 H2144 0.949 . S
C2150 C2154 1.368 . S
C2151 C2132 1.429 . S
C2151 C2145 1.429 . S
C2151 C2152 1.523 . S
C2152 C2133 1.368 . S
C2152 C2146 1.368 . S
C2152 C2151 1.523 . S
C2153 C2137 1.429 . S
C2153 C2149 1.429 . S
C2153 C2154 1.523 . S
C2154 C2138 1.368 . S
C2154 C2150 1.368 . S
C2154 C2153 1.523 . S
H2155 C2130 0.950 . S
H2156 C2132 0.950 . S
H2157 C2133 0.949 . S
H2158 C2135 0.950 . S
H2159 C2137 0.950 . S
C2160 C2161 1.349 . S
C2160 C2162 1.327 . S
C2160 H2185 0.950 . S
C2161 C2160 1.349 . S
C2161 C2177 1.349 . S
C2162 C2160 1.327 . S
C2162 C2181 1.429 . S
C2162 H2186 0.950 . S
C2163 C2180 1.574 . S
C2163 C2182 1.368 . S
C2163 H2187 0.949 . S
H2164 C2168 0.949 . S
C2165 C2166 1.349 . S
C2165 C2167 1.327 . S
C2165 H2188 0.950 . S
C2166 C2165 1.349 . S
C2166 C2178 1.349 . S
C2167 C2165 1.327 . S
C2167 C2183 1.429 . S
C2167 H2189 0.950 . S
C2168 H2164 0.949 . S
C2168 C2176 1.574 . S
C2168 C2184 1.368 . S
H2169 C2177 0.950 . S
H2170 C2175 0.950 . S
H2171 C2176 0.949 . S
H2172 C2178 0.950 . S
H2173 C2179 0.950 . S
H2174 C2180 0.949 . S
C2175 H2170 0.950 . S
C2175 C2177 1.327 . S
C2175 C2181 1.429 . S
C2176 C2168 1.574 . S
C2176 H2171 0.949 . S
C2176 C2182 1.368 . S
C2177 C2161 1.349 . S
C2177 H2169 0.950 . S
C2177 C2175 1.327 . S
C2178 C2166 1.349 . S
C2178 H2172 0.950 . S
C2178 C2179 1.327 . S
C2179 H2173 0.950 . S
C2179 C2178 1.327 . S
C2179 C2183 1.429 . S
C2180 C2163 1.574 . S
C2180 H2174 0.949 . S
C2180 C2184 1.368 . S
C2181 C2162 1.429 . S
C2181 C2175 1.429 . S
C2181 C2182 1.523 . S
C2182 C2163 1.368 . S
C2182 C2176 1.368 . S
C2182 C2181 1.523 . S
C2183 C2167 1.429 . S
C2183 C2179 1.429 . S
C2183 C2184 1.523 . S
C2184 C2168 1.368 . S
C2184 C2180 1.368 . S
C2184 C2183 1.523 . S
H2185 C2160 0.950 . S
H2186 C2162 0.950 . S
H2187 C2163 0.949 . S
H2188 C2165 0.950 . S
H2189 C2167 0.950 . S
C2190 C2191 1.349 . S
C2190 C2192 1.327 . S
C2190 H2215 0.950 . S
C2191 C2190 1.349 . S
C2191 C2207 1.349 . S
C2192 C2190 1.327 . S
C2192 C2211 1.429 1_455 S
C2192 H2216 0.950 . S
C2193 C2210 1.574 . S
C2193 C2212 1.368 . S
C2193 H2217 0.949 . S
H2194 C2198 0.949 . S
C2195 C2196 1.349 . S
C2195 C2197 1.327 1_565 S
C2195 H2218 0.950 . S
C2196 C2195 1.349 . S
C2196 C2208 1.349 . S
C2197 C2195 1.327 1_545 S
C2197 C2213 1.429 . S
C2197 H2219 0.950 . S
C2198 H2194 0.949 . S
C2198 C2206 1.574 . S
C2198 C2214 1.368 . S
H2199 C2207 0.950 . S
H2200 C2205 0.950 . S
H2201 C2206 0.949 . S
H2202 C2208 0.950 . S
H2203 C2209 0.950 . S
H2204 C2210 0.949 . S
C2205 H2200 0.950 . S
C2205 C2207 1.327 1_655 S
C2205 C2211 1.429 . S
C2206 C2198 1.574 . S
C2206 H2201 0.949 . S
C2206 C2212 1.368 . S
C2207 C2191 1.349 . S
C2207 H2199 0.950 . S
C2207 C2205 1.327 1_455 S
C2208 C2196 1.349 . S
C2208 H2202 0.950 . S
C2208 C2209 1.327 . S
C2209 H2203 0.950 . S
C2209 C2208 1.327 . S
C2209 C2213 1.429 1_565 S
C2210 C2193 1.574 . S
C2210 H2204 0.949 . S
C2210 C2214 1.368 . S
C2211 C2192 1.429 1_655 S
C2211 C2205 1.429 . S
C2211 C2212 1.523 . S
C2212 C2193 1.368 . S
C2212 C2206 1.368 . S
C2212 C2211 1.523 . S
C2213 C2197 1.429 . S
C2213 C2209 1.429 1_545 S
C2213 C2214 1.523 . S
C2214 C2198 1.368 . S
C2214 C2210 1.368 . S
C2214 C2213 1.523 . S
H2215 C2190 0.950 . S
H2216 C2192 0.950 . S
H2217 C2193 0.949 . S
H2218 C2195 0.950 . S
H2219 C2197 0.950 . S
C2220 C2221 1.349 . S
C2220 C2222 1.327 . S
C2220 H2245 0.950 . S
C2221 C2220 1.349 . S
C2221 C2237 1.349 . S
C2222 C2220 1.327 . S
C2222 C2241 1.429 . S
C2222 H2246 0.950 . S
C2223 C2240 1.574 . S
C2223 C2242 1.368 . S
C2223 H2247 0.949 . S
H2224 C2228 0.949 . S
C2225 C2226 1.349 . S
C2225 C2227 1.327 . S
C2225 H2248 0.950 . S
C2226 C2225 1.349 . S
C2226 C2238 1.349 . S
C2227 C2225 1.327 . S
C2227 C2243 1.429 . S
C2227 H2249 0.950 . S
C2228 H2224 0.949 . S
C2228 C2236 1.574 1_455 S
C2228 C2244 1.368 . S
H2229 C2237 0.950 . S
H2230 C2235 0.950 . S
H2231 C2236 0.949 . S
H2232 C2238 0.950 . S
H2233 C2239 0.950 . S
H2234 C2240 0.949 . S
C2235 H2230 0.950 . S
C2235 C2237 1.327 . S
C2235 C2241 1.429 . S
C2236 C2228 1.574 1_655 S
C2236 H2231 0.949 . S
C2236 C2242 1.368 . S
C2237 C2221 1.349 . S
C2237 H2229 0.950 . S
C2237 C2235 1.327 . S
C2238 C2226 1.349 . S
C2238 H2232 0.950 . S
C2238 C2239 1.327 . S
C2239 H2233 0.950 . S
C2239 C2238 1.327 . S
C2239 C2243 1.429 . S
C2240 C2223 1.574 . S
C2240 H2234 0.949 . S
C2240 C2244 1.368 1_655 S
C2241 C2222 1.429 . S
C2241 C2235 1.429 . S
C2241 C2242 1.523 . S
C2242 C2223 1.368 . S
C2242 C2236 1.368 . S
C2242 C2241 1.523 . S
C2243 C2227 1.429 . S
C2243 C2239 1.429 . S
C2243 C2244 1.523 . S
C2244 C2228 1.368 . S
C2244 C2240 1.368 1_455 S
C2244 C2243 1.523 . S
H2245 C2220 0.950 . S
H2246 C2222 0.950 . S
H2247 C2223 0.949 . S
H2248 C2225 0.950 . S
H2249 C2227 0.950 . S
C2250 C2251 1.349 . S
C2250 C2252 1.327 . S
C2250 H2275 0.950 . S
C2251 C2250 1.349 . S
C2251 C2267 1.349 . S
C2252 C2250 1.327 . S
C2252 C2271 1.429 . S
C2252 H2276 0.950 . S
C2253 C2270 1.574 . S
C2253 C2272 1.368 . S
C2253 H2277 0.949 . S
H2254 C2258 0.949 . S
C2255 C2256 1.349 . S
C2255 C2257 1.327 . S
C2255 H2278 0.950 . S
C2256 C2255 1.349 . S
C2256 C2268 1.349 . S
C2257 C2255 1.327 . S
C2257 C2273 1.429 . S
C2257 H2279 0.950 . S
C2258 H2254 0.949 . S
C2258 C2266 1.574 . S
C2258 C2274 1.368 . S
H2259 C2267 0.950 . S
H2260 C2265 0.950 . S
H2261 C2266 0.949 . S
H2262 C2268 0.950 . S
H2263 C2269 0.950 . S
H2264 C2270 0.949 . S
C2265 H2260 0.950 . S
C2265 C2267 1.327 . S
C2265 C2271 1.429 . S
C2266 C2258 1.574 . S
C2266 H2261 0.949 . S
C2266 C2272 1.368 . S
C2267 C2251 1.349 . S
C2267 H2259 0.950 . S
C2267 C2265 1.327 . S
C2268 C2256 1.349 . S
C2268 H2262 0.950 . S
C2268 C2269 1.327 . S
C2269 H2263 0.950 . S
C2269 C2268 1.327 . S
C2269 C2273 1.429 . S
C2270 C2253 1.574 . S
C2270 H2264 0.949 . S
C2270 C2274 1.368 . S
C2271 C2252 1.429 . S
C2271 C2265 1.429 . S
C2271 C2272 1.523 . S
C2272 C2253 1.368 . S
C2272 C2266 1.368 . S
C2272 C2271 1.523 . S
C2273 C2257 1.429 . S
C2273 C2269 1.429 . S
C2273 C2274 1.523 . S
C2274 C2258 1.368 . S
C2274 C2270 1.368 . S
C2274 C2273 1.523 . S
H2275 C2250 0.950 . S
H2276 C2252 0.950 . S
H2277 C2253 0.949 . S
H2278 C2255 0.950 . S
H2279 C2257 0.950 . S
C2280 C2281 1.349 . S
C2280 C2282 1.327 . S
C2280 H2305 0.950 . S
C2281 C2280 1.349 . S
C2281 C2297 1.349 . S
C2282 C2280 1.327 . S
C2282 C2301 1.429 . S
C2282 H2306 0.950 . S
C2283 C2300 1.574 . S
C2283 C2302 1.368 . S
C2283 H2307 0.949 . S
H2284 C2288 0.949 . S
C2285 C2286 1.349 . S
C2285 C2287 1.327 . S
C2285 H2308 0.950 . S
C2286 C2285 1.349 . S
C2286 C2298 1.349 . S
C2287 C2285 1.327 . S
C2287 C2303 1.429 . S
C2287 H2309 0.950 . S
C2288 H2284 0.949 . S
C2288 C2296 1.574 . S
C2288 C2304 1.368 . S
H2289 C2297 0.950 . S
H2290 C2295 0.950 . S
H2291 C2296 0.949 . S
H2292 C2298 0.950 . S
H2293 C2299 0.950 . S
H2294 C2300 0.949 . S
C2295 H2290 0.950 . S
C2295 C2297 1.327 . S
C2295 C2301 1.429 . S
C2296 C2288 1.574 . S
C2296 H2291 0.949 . S
C2296 C2302 1.368 . S
C2297 C2281 1.349 . S
C2297 H2289 0.950 . S
C2297 C2295 1.327 . S
C2298 C2286 1.349 . S
C2298 H2292 0.950 . S
C2298 C2299 1.327 . S
C2299 H2293 0.950 . S
C2299 C2298 1.327 . S
C2299 C2303 1.429 . S
C2300 C2283 1.574 . S
C2300 H2294 0.949 . S
C2300 C2304 1.368 . S
C2301 C2282 1.429 . S
C2301 C2295 1.429 . S
C2301 C2302 1.523 . S
C2302 C2283 1.368 . S
C2302 C2296 1.368 . S
C2302 C2301 1.523 . S
C2303 C2287 1.429 . S
C2303 C2299 1.429 . S
C2303 C2304 1.523 . S
C2304 C2288 1.368 . S
C2304 C2300 1.368 . S
C2304 C2303 1.523 . S
H2305 C2280 0.950 . S
H2306 C2282 0.950 . S
H2307 C2283 0.949 . S
H2308 C2285 0.950 . S
H2309 C2287 0.950 . S
C2310 C2311 1.349 . S
C2310 C2312 1.327 . S
C2310 H2335 0.950 . S
C2311 C2310 1.349 . S
C2311 C2327 1.349 . S
C2312 C2310 1.327 . S
C2312 C2331 1.429 . S
C2312 H2336 0.950 . S
C2313 C2330 1.574 . S
C2313 C2332 1.368 . S
C2313 H2337 0.949 . S
H2314 C2318 0.949 . S
C2315 C2316 1.349 . S
C2315 C2317 1.327 . S
C2315 H2338 0.950 . S
C2316 C2315 1.349 . S
C2316 C2328 1.349 . S
C2317 C2315 1.327 . S
C2317 C2333 1.429 . S
C2317 H2339 0.950 . S
C2318 H2314 0.949 . S
C2318 C2326 1.574 . S
C2318 C2334 1.368 . S
H2319 C2327 0.950 . S
H2320 C2325 0.950 . S
H2321 C2326 0.949 . S
H2322 C2328 0.950 . S
H2323 C2329 0.950 . S
H2324 C2330 0.949 . S
C2325 H2320 0.950 . S
C2325 C2327 1.327 . S
C2325 C2331 1.429 . S
C2326 C2318 1.574 . S
C2326 H2321 0.949 . S
C2326 C2332 1.368 . S
C2327 C2311 1.349 . S
C2327 H2319 0.950 . S
C2327 C2325 1.327 . S
C2328 C2316 1.349 . S
C2328 H2322 0.950 . S
C2328 C2329 1.327 . S
C2329 H2323 0.950 . S
C2329 C2328 1.327 . S
C2329 C2333 1.429 . S
C2330 C2313 1.574 . S
C2330 H2324 0.949 . S
C2330 C2334 1.368 . S
C2331 C2312 1.429 . S
C2331 C2325 1.429 . S
C2331 C2332 1.523 . S
C2332 C2313 1.368 . S
C2332 C2326 1.368 . S
C2332 C2331 1.523 . S
C2333 C2317 1.429 . S
C2333 C2329 1.429 . S
C2333 C2334 1.523 . S
C2334 C2318 1.368 . S
C2334 C2330 1.368 . S
C2334 C2333 1.523 . S
H2335 C2310 0.950 . S
H2336 C2312 0.950 . S
H2337 C2313 0.949 . S
H2338 C2315 0.950 . S
H2339 C2317 0.950 . S
C2340 C2341 1.349 . S
C2340 C2342 1.327 . S
C2340 H2365 0.950 . S
C2341 C2340 1.349 . S
C2341 C2357 1.349 . S
C2342 C2340 1.327 . S
C2342 C2361 1.429 . S
C2342 H2366 0.950 . S
C2343 C2360 1.574 . S
C2343 C2362 1.368 . S
C2343 H2367 0.949 . S
H2344 C2348 0.949 . S
C2345 C2346 1.349 . S
C2345 C2347 1.327 . S
C2345 H2368 0.950 . S
C2346 C2345 1.349 . S
C2346 C2358 1.349 . S
C2347 C2345 1.327 . S
C2347 C2363 1.429 . S
C2347 H2369 0.950 . S
C2348 H2344 0.949 . S
C2348 C2356 1.574 . S
C2348 C2364 1.368 . S
H2349 C2357 0.950 . S
H2350 C2355 0.950 . S
H2351 C2356 0.949 . S
H2352 C2358 0.950 . S
H2353 C2359 0.950 . S
H2354 C2360 0.949 . S
C2355 H2350 0.950 . S
C2355 C2357 1.327 . S
C2355 C2361 1.429 . S
C2356 C2348 1.574 . S
C2356 H2351 0.949 . S
C2356 C2362 1.368 . S
C2357 C2341 1.349 . S
C2357 H2349 0.950 . S
C2357 C2355 1.327 . S
C2358 C2346 1.349 . S
C2358 H2352 0.950 . S
C2358 C2359 1.327 . S
C2359 H2353 0.950 . S
C2359 C2358 1.327 . S
C2359 C2363 1.429 . S
C2360 C2343 1.574 . S
C2360 H2354 0.949 . S
C2360 C2364 1.368 . S
C2361 C2342 1.429 . S
C2361 C2355 1.429 . S
C2361 C2362 1.523 . S
C2362 C2343 1.368 . S
C2362 C2356 1.368 . S
C2362 C2361 1.523 . S
C2363 C2347 1.429 . S
C2363 C2359 1.429 . S
C2363 C2364 1.523 . S
C2364 C2348 1.368 . S
C2364 C2360 1.368 . S
C2364 C2363 1.523 . S
H2365 C2340 0.950 . S
H2366 C2342 0.950 . S
H2367 C2343 0.949 . S
H2368 C2345 0.950 . S
H2369 C2347 0.950 . S
C2370 C2371 1.349 . S
C2370 C2372 1.327 . S
C2370 H2395 0.950 . S
C2371 C2370 1.349 . S
C2371 C2387 1.349 . S
C2372 C2370 1.327 . S
C2372 C2391 1.429 . S
C2372 H2396 0.950 . S
C2373 C2390 1.574 . S
C2373 C2392 1.368 . S
C2373 H2397 0.949 . S
H2374 C2378 0.949 . S
C2375 C2376 1.349 . S
C2375 C2377 1.327 . S
C2375 H2398 0.950 . S
C2376 C2375 1.349 . S
C2376 C2388 1.349 . S
C2377 C2375 1.327 . S
C2377 C2393 1.429 . S
C2377 H2399 0.950 . S
C2378 H2374 0.949 . S
C2378 C2386 1.574 . S
C2378 C2394 1.368 . S
H2379 C2387 0.950 . S
H2380 C2385 0.950 . S
H2381 C2386 0.949 . S
H2382 C2388 0.950 . S
H2383 C2389 0.950 . S
H2384 C2390 0.949 . S
C2385 H2380 0.950 . S
C2385 C2387 1.327 . S
C2385 C2391 1.429 . S
C2386 C2378 1.574 . S
C2386 H2381 0.949 . S
C2386 C2392 1.368 . S
C2387 C2371 1.349 . S
C2387 H2379 0.950 . S
C2387 C2385 1.327 . S
C2388 C2376 1.349 . S
C2388 H2382 0.950 . S
C2388 C2389 1.327 . S
C2389 H2383 0.950 . S
C2389 C2388 1.327 . S
C2389 C2393 1.429 . S
C2390 C2373 1.574 . S
C2390 H2384 0.949 . S
C2390 C2394 1.368 . S
C2391 C2372 1.429 . S
C2391 C2385 1.429 . S
C2391 C2392 1.523 . S
C2392 C2373 1.368 . S
C2392 C2386 1.368 . S
C2392 C2391 1.523 . S
C2393 C2377 1.429 . S
C2393 C2389 1.429 . S
C2393 C2394 1.523 . S
C2394 C2378 1.368 . S
C2394 C2390 1.368 . S
C2394 C2393 1.523 . S
H2395 C2370 0.950 . S
H2396 C2372 0.950 . S
H2397 C2373 0.949 . S
H2398 C2375 0.950 . S
H2399 C2377 0.950 . S
C2400 C2401 1.349 . S
C2400 C2402 1.327 . S
C2400 H2425 0.950 . S
C2401 C2400 1.349 . S
C2401 C2417 1.349 . S
C2402 C2400 1.327 . S
C2402 C2421 1.429 . S
C2402 H2426 0.950 . S
C2403 C2420 1.574 . S
C2403 C2422 1.368 . S
C2403 H2427 0.949 . S
H2404 C2408 0.949 . S
C2405 C2406 1.349 . S
C2405 C2407 1.327 . S
C2405 H2428 0.950 . S
C2406 C2405 1.349 . S
C2406 C2418 1.349 . S
C2407 C2405 1.327 . S
C2407 C2423 1.429 . S
C2407 H2429 0.950 . S
C2408 H2404 0.949 . S
C2408 C2416 1.574 . S
C2408 C2424 1.368 . S
H2409 C2417 0.950 . S
H2410 C2415 0.950 . S
H2411 C2416 0.949 . S
H2412 C2418 0.950 . S
H2413 C2419 0.950 . S
H2414 C2420 0.949 . S
C2415 H2410 0.950 . S
C2415 C2417 1.327 . S
C2415 C2421 1.429 . S
C2416 C2408 1.574 . S
C2416 H2411 0.949 . S
C2416 C2422 1.368 . S
C2417 C2401 1.349 . S
C2417 H2409 0.950 . S
C2417 C2415 1.327 . S
C2418 C2406 1.349 . S
C2418 H2412 0.950 . S
C2418 C2419 1.327 . S
C2419 H2413 0.950 . S
C2419 C2418 1.327 . S
C2419 C2423 1.429 . S
C2420 C2403 1.574 . S
C2420 H2414 0.949 . S
C2420 C2424 1.368 . S
C2421 C2402 1.429 . S
C2421 C2415 1.429 . S
C2421 C2422 1.523 . S
C2422 C2403 1.368 . S
C2422 C2416 1.368 . S
C2422 C2421 1.523 . S
C2423 C2407 1.429 . S
C2423 C2419 1.429 . S
C2423 C2424 1.523 . S
C2424 C2408 1.368 . S
C2424 C2420 1.368 . S
C2424 C2423 1.523 . S
H2425 C2400 0.950 . S
H2426 C2402 0.950 . S
H2427 C2403 0.949 . S
H2428 C2405 0.950 . S
H2429 C2407 0.950 . S
C2430 C2431 1.349 . S
C2430 C2432 1.327 1_455 S
C2430 H2455 0.950 . S
C2431 C2430 1.349 . S
C2431 C2447 1.349 . S
C2432 C2430 1.327 1_655 S
C2432 C2451 1.429 . S
C2432 H2456 0.950 . S
C2433 C2450 1.574 . S
C2433 C2452 1.368 . S
C2433 H2457 0.949 . S
H2434 C2438 0.949 . S
C2435 C2436 1.349 . S
C2435 C2437 1.327 . S
C2435 H2458 0.950 . S
C2436 C2435 1.349 . S
C2436 C2448 1.349 . S
C2437 C2435 1.327 . S
C2437 C2453 1.429 . S
C2437 H2459 0.950 . S
C2438 H2434 0.949 . S
C2438 C2446 1.574 . S
C2438 C2454 1.368 . S
H2439 C2447 0.950 . S
H2440 C2445 0.950 . S
H2441 C2446 0.949 . S
H2442 C2448 0.950 . S
H2443 C2449 0.950 . S
H2444 C2450 0.949 . S
C2445 H2440 0.950 . S
C2445 C2447 1.327 . S
C2445 C2451 1.429 1_455 S
C2446 C2438 1.574 . S
C2446 H2441 0.949 . S
C2446 C2452 1.368 . S
C2447 C2431 1.349 . S
C2447 H2439 0.950 . S
C2447 C2445 1.327 . S
C2448 C2436 1.349 . S
C2448 H2442 0.950 . S
C2448 C2449 1.327 . S
C2449 H2443 0.950 . S
C2449 C2448 1.327 . S
C2449 C2453 1.429 . S
C2450 C2433 1.574 . S
C2450 H2444 0.949 . S
C2450 C2454 1.368 . S
C2451 C2432 1.429 . S
C2451 C2445 1.429 1_655 S
C2451 C2452 1.523 . S
C2452 C2433 1.368 . S
C2452 C2446 1.368 . S
C2452 C2451 1.523 . S
C2453 C2437 1.429 . S
C2453 C2449 1.429 . S
C2453 C2454 1.523 . S
C2454 C2438 1.368 . S
C2454 C2450 1.368 . S
C2454 C2453 1.523 . S
H2455 C2430 0.950 . S
H2456 C2432 0.950 . S
H2457 C2433 0.949 . S
H2458 C2435 0.950 . S
H2459 C2437 0.950 . S
C2460 C2461 1.349 . S
C2460 C2462 1.327 . S
C2460 H2485 0.950 . S
C2461 C2460 1.349 . S
C2461 C2477 1.349 . S
C2462 C2460 1.327 . S
C2462 C2481 1.429 . S
C2462 H2486 0.950 . S
C2463 C2480 1.574 . S
C2463 C2482 1.368 . S
C2463 H2487 0.949 . S
H2464 C2468 0.949 . S
C2465 C2466 1.349 . S
C2465 C2467 1.303 1_565 S
C2465 H2488 0.950 . S
C2466 C2465 1.349 . S
C2466 C2478 1.349 . S
C2467 C2465 1.303 1_545 S
C2467 C2483 1.443 . S
C2467 H2489 0.960 . S
C2468 H2464 0.949 . S
C2468 C2476 1.574 . S
C2468 C2484 1.368 . S
H2469 C2477 0.950 . S
H2470 C2475 0.950 . S
H2471 C2476 0.949 . S
H2472 C2478 0.950 . S
H2473 C2479 0.950 . S
H2474 C2480 0.949 . S
C2475 H2470 0.950 . S
C2475 C2477 1.327 . S
C2475 C2481 1.429 . S
C2476 C2468 1.574 . S
C2476 H2471 0.949 . S
C2476 C2482 1.368 . S
C2477 C2461 1.349 . S
C2477 H2469 0.950 . S
C2477 C2475 1.327 . S
C2478 C2466 1.349 . S
C2478 H2472 0.950 . S
C2478 C2479 1.327 . S
C2479 H2473 0.950 . S
C2479 C2478 1.327 . S
C2479 C2483 1.429 1_565 S
C2480 C2463 1.574 . S
C2480 H2474 0.949 . S
C2480 C2484 1.368 . S
C2481 C2462 1.429 . S
C2481 C2475 1.429 . S
C2481 C2482 1.523 . S
C2482 C2463 1.368 . S
C2482 C2476 1.368 . S
C2482 C2481 1.523 . S
C2483 C2467 1.443 . S
C2483 C2479 1.429 1_545 S
C2483 C2484 1.523 . S
C2484 C2468 1.368 . S
C2484 C2480 1.368 . S
C2484 C2483 1.523 . S
H2485 C2460 0.950 . S
H2486 C2462 0.950 . S
H2487 C2463 0.949 . S
H2488 C2465 0.950 . S
H2489 C2467 0.960 . S
C2490 C2491 1.349 . S
C2490 C2492 1.327 . S
C2490 H2515 0.950 . S
C2491 C2490 1.349 . S
C2491 C2507 1.349 . S
C2492 C2490 1.327 . S
C2492 C2511 1.429 . S
C2492 H2516 0.950 . S
C2493 C2510 1.574 1_655 S
C2493 C2512 1.368 . S
C2493 H2517 0.949 . S
H2494 C2498 0.949 . S
C2495 C2496 1.349 . S
C2495 C2497 1.327 . S
C2495 H2518 0.950 . S
C2496 C2495 1.349 . S
C2496 C2508 1.349 . S
C2497 C2495 1.327 . S
C2497 C2513 1.429 . S
C2497 H2519 0.950 . S
C2498 H2494 0.949 . S
C2498 C2506 1.574 . S
C2498 C2514 1.368 1_655 S
H2499 C2507 0.950 . S
H2500 C2505 0.950 . S
H2501 C2506 0.949 . S
H2502 C2508 0.950 . S
H2503 C2509 0.950 . S
H2504 C2510 0.949 . S
C2505 H2500 0.950 . S
C2505 C2507 1.327 . S
C2505 C2511 1.429 . S
C2506 C2498 1.574 . S
C2506 H2501 0.949 . S
C2506 C2512 1.368 . S
C2507 C2491 1.349 . S
C2507 H2499 0.950 . S
C2507 C2505 1.327 . S
C2508 C2496 1.349 . S
C2508 H2502 0.950 . S
C2508 C2509 1.327 . S
C2509 H2503 0.950 . S
C2509 C2508 1.327 . S
C2509 C2513 1.429 . S
C2510 C2493 1.574 1_455 S
C2510 H2504 0.949 . S
C2510 C2514 1.368 . S
C2511 C2492 1.429 . S
C2511 C2505 1.429 . S
C2511 C2512 1.523 . S
C2512 C2493 1.368 . S
C2512 C2506 1.368 . S
C2512 C2511 1.523 . S
C2513 C2497 1.429 . S
C2513 C2509 1.429 . S
C2513 C2514 1.523 . S
C2514 C2498 1.368 1_455 S
C2514 C2510 1.368 . S
C2514 C2513 1.523 . S
H2515 C2490 0.950 . S
H2516 C2492 0.950 . S
H2517 C2493 0.949 . S
H2518 C2495 0.950 . S
H2519 C2497 0.950 . S
C2520 C2521 1.349 . S
C2520 C2522 1.327 . S
C2520 H2545 0.950 . S
C2521 C2520 1.349 . S
C2521 C2537 1.349 . S
C2522 C2520 1.327 . S
C2522 C2541 1.429 . S
C2522 H2546 0.950 . S
C2523 C2540 1.574 . S
C2523 C2542 1.368 . S
C2523 H2547 0.949 . S
H2524 C2528 0.949 . S
C2525 C2526 1.349 . S
C2525 C2527 1.327 . S
C2525 H2548 0.950 . S
C2526 C2525 1.349 . S
C2526 C2538 1.349 . S
C2527 C2525 1.327 . S
C2527 C2543 1.429 . S
C2527 H2549 0.950 . S
C2528 H2524 0.949 . S
C2528 C2536 1.574 . S
C2528 C2544 1.368 . S
H2529 C2537 0.950 . S
H2530 C2535 0.950 . S
H2531 C2536 0.949 . S
H2532 C2538 0.950 . S
H2533 C2539 0.950 . S
H2534 C2540 0.949 . S
C2535 H2530 0.950 . S
C2535 C2537 1.327 . S
C2535 C2541 1.429 . S
C2536 C2528 1.574 . S
C2536 H2531 0.949 . S
C2536 C2542 1.368 . S
C2537 C2521 1.349 . S
C2537 H2529 0.950 . S
C2537 C2535 1.327 . S
C2538 C2526 1.349 . S
C2538 H2532 0.950 . S
C2538 C2539 1.327 . S
C2539 H2533 0.950 . S
C2539 C2538 1.327 . S
C2539 C2543 1.429 . S
C2540 C2523 1.574 . S
C2540 H2534 0.949 . S
C2540 C2544 1.368 . S
C2541 C2522 1.429 . S
C2541 C2535 1.429 . S
C2541 C2542 1.523 . S
C2542 C2523 1.368 . S
C2542 C2536 1.368 . S
C2542 C2541 1.523 . S
C2543 C2527 1.429 . S
C2543 C2539 1.429 . S
C2543 C2544 1.523 . S
C2544 C2528 1.368 . S
C2544 C2540 1.368 . S
C2544 C2543 1.523 . S
H2545 C2520 0.950 . S
H2546 C2522 0.950 . S
H2547 C2523 0.949 . S
H2548 C2525 0.950 . S
H2549 C2527 0.950 . S
C2550 C2551 1.349 . S
C2550 C2552 1.327 . S
C2550 H2575 0.950 . S
C2551 C2550 1.349 . S
C2551 C2567 1.349 . S
C2552 C2550 1.327 . S
C2552 C2571 1.429 . S
C2552 H2576 0.950 . S
C2553 C2570 1.574 . S
C2553 C2572 1.368 . S
C2553 H2577 0.949 . S
H2554 C2558 0.949 . S
C2555 C2556 1.349 . S
C2555 C2557 1.327 . S
C2555 H2578 0.950 . S
C2556 C2555 1.349 . S
C2556 C2568 1.349 . S
C2557 C2555 1.327 . S
C2557 C2573 1.429 . S
C2557 H2579 0.950 . S
C2558 H2554 0.949 . S
C2558 C2566 1.574 . S
C2558 C2574 1.368 . S
H2559 C2567 0.950 . S
H2560 C2565 0.950 . S
H2561 C2566 0.949 . S
H2562 C2568 0.950 . S
H2563 C2569 0.950 . S
H2564 C2570 0.949 . S
C2565 H2560 0.950 . S
C2565 C2567 1.327 . S
C2565 C2571 1.429 . S
C2566 C2558 1.574 . S
C2566 H2561 0.949 . S
C2566 C2572 1.368 . S
C2567 C2551 1.349 . S
C2567 H2559 0.950 . S
C2567 C2565 1.327 . S
C2568 C2556 1.349 . S
C2568 H2562 0.950 . S
C2568 C2569 1.327 . S
C2569 H2563 0.950 . S
C2569 C2568 1.327 . S
C2569 C2573 1.429 . S
C2570 C2553 1.574 . S
C2570 H2564 0.949 . S
C2570 C2574 1.368 . S
C2571 C2552 1.429 . S
C2571 C2565 1.429 . S
C2571 C2572 1.523 . S
C2572 C2553 1.368 . S
C2572 C2566 1.368 . S
C2572 C2571 1.523 . S
C2573 C2557 1.429 . S
C2573 C2569 1.429 . S
C2573 C2574 1.523 . S
C2574 C2558 1.368 . S
C2574 C2570 1.368 . S
C2574 C2573 1.523 . S
H2575 C2550 0.950 . S
H2576 C2552 0.950 . S
H2577 C2553 0.949 . S
H2578 C2555 0.950 . S
H2579 C2557 0.950 . S
C2580 C2581 1.349 . S
C2580 C2582 1.327 . S
C2580 H2605 0.950 . S
C2581 C2580 1.349 . S
C2581 C2597 1.349 . S
C2582 C2580 1.327 . S
C2582 C2601 1.429 . S
C2582 H2606 0.950 . S
C2583 C2600 1.574 . S
C2583 C2602 1.368 . S
C2583 H2607 0.949 . S
H2584 C2588 0.949 . S
C2585 C2586 1.349 . S
C2585 C2587 1.327 . S
C2585 H2608 0.950 . S
C2586 C2585 1.349 . S
C2586 C2598 1.349 . S
C2587 C2585 1.327 . S
C2587 C2603 1.429 . S
C2587 H2609 0.950 . S
C2588 H2584 0.949 . S
C2588 C2596 1.574 . S
C2588 C2604 1.368 . S
H2589 C2597 0.950 . S
H2590 C2595 0.950 . S
H2591 C2596 0.949 . S
H2592 C2598 0.950 . S
H2593 C2599 0.950 . S
H2594 C2600 0.949 . S
C2595 H2590 0.950 . S
C2595 C2597 1.327 . S
C2595 C2601 1.429 . S
C2596 C2588 1.574 . S
C2596 H2591 0.949 . S
C2596 C2602 1.368 . S
C2597 C2581 1.349 . S
C2597 H2589 0.950 . S
C2597 C2595 1.327 . S
C2598 C2586 1.349 . S
C2598 H2592 0.950 . S
C2598 C2599 1.327 . S
C2599 H2593 0.950 . S
C2599 C2598 1.327 . S
C2599 C2603 1.429 . S
C2600 C2583 1.574 . S
C2600 H2594 0.949 . S
C2600 C2604 1.368 . S
C2601 C2582 1.429 . S
C2601 C2595 1.429 . S
C2601 C2602 1.523 . S
C2602 C2583 1.368 . S
C2602 C2596 1.368 . S
C2602 C2601 1.523 . S
C2603 C2587 1.429 . S
C2603 C2599 1.429 . S
C2603 C2604 1.523 . S
C2604 C2588 1.368 . S
C2604 C2600 1.368 . S
C2604 C2603 1.523 . S
H2605 C2580 0.950 . S
H2606 C2582 0.950 . S
H2607 C2583 0.949 . S
H2608 C2585 0.950 . S
H2609 C2587 0.950 . S
C2610 C2611 1.349 . S
C2610 C2612 1.327 . S
C2610 H2635 0.950 . S
C2611 C2610 1.349 . S
C2611 C2627 1.349 . S
C2612 C2610 1.327 . S
C2612 C2631 1.429 . S
C2612 H2636 0.950 . S
C2613 C2630 1.574 . S
C2613 C2632 1.368 . S
C2613 H2637 0.949 . S
H2614 C2618 0.949 . S
C2615 C2616 1.349 . S
C2615 C2617 1.327 . S
C2615 H2638 0.950 . S
C2616 C2615 1.349 . S
C2616 C2628 1.349 . S
C2617 C2615 1.327 . S
C2617 C2633 1.429 . S
C2617 H2639 0.950 . S
C2618 H2614 0.949 . S
C2618 C2626 1.574 . S
C2618 C2634 1.368 . S
H2619 C2627 0.950 . S
H2620 C2625 0.950 . S
H2621 C2626 0.949 . S
H2622 C2628 0.950 . S
H2623 C2629 0.950 . S
H2624 C2630 0.949 . S
C2625 H2620 0.950 . S
C2625 C2627 1.327 . S
C2625 C2631 1.429 . S
C2626 C2618 1.574 . S
C2626 H2621 0.949 . S
C2626 C2632 1.368 . S
C2627 C2611 1.349 . S
C2627 H2619 0.950 . S
C2627 C2625 1.327 . S
C2628 C2616 1.349 . S
C2628 H2622 0.950 . S
C2628 C2629 1.327 . S
C2629 H2623 0.950 . S
C2629 C2628 1.327 . S
C2629 C2633 1.429 . S
C2630 C2613 1.574 . S
C2630 H2624 0.949 . S
C2630 C2634 1.368 . S
C2631 C2612 1.429 . S
C2631 C2625 1.429 . S
C2631 C2632 1.523 . S
C2632 C2613 1.368 . S
C2632 C2626 1.368 . S
C2632 C2631 1.523 . S
C2633 C2617 1.429 . S
C2633 C2629 1.429 . S
C2633 C2634 1.523 . S
C2634 C2618 1.368 . S
C2634 C2630 1.368 . S
C2634 C2633 1.523 . S
H2635 C2610 0.950 . S
H2636 C2612 0.950 . S
H2637 C2613 0.949 . S
H2638 C2615 0.950 . S
H2639 C2617 0.950 . S
C2640 C2641 1.349 . S
C2640 C2642 1.327 . S
C2640 H2665 0.950 . S
C2641 C2640 1.349 . S
C2641 C2657 1.349 . S
C2642 C2640 1.327 . S
C2642 C2661 1.429 . S
C2642 H2666 0.950 . S
C2643 C2660 1.574 1_545 S
C2643 C2662 1.368 . S
C2643 H2667 0.949 . S
H2644 C2648 0.949 . S
C2645 C2646 1.349 . S
C2645 C2647 1.327 . S
C2645 H2668 0.950 . S
C2646 C2645 1.349 . S
C2646 C2658 1.349 . S
C2647 C2645 1.327 . S
C2647 C2663 1.429 . S
C2647 H2669 0.950 . S
C2648 H2644 0.949 . S
C2648 C2656 1.574 . S
C2648 C2664 1.368 . S
H2649 C2657 0.950 . S
H2650 C2655 0.950 . S
H2651 C2656 0.949 . S
H2652 C2658 0.950 . S
H2653 C2659 0.950 . S
H2654 C2660 0.949 . S
C2655 H2650 0.950 . S
C2655 C2657 1.327 . S
C2655 C2661 1.429 . S
C2656 C2648 1.574 . S
C2656 H2651 0.949 . S
C2656 C2662 1.368 1_565 S
C2657 C2641 1.349 . S
C2657 H2649 0.950 . S
C2657 C2655 1.327 . S
C2658 C2646 1.349 . S
C2658 H2652 0.950 . S
C2658 C2659 1.327 . S
C2659 H2653 0.950 . S
C2659 C2658 1.327 . S
C2659 C2663 1.429 . S
C2660 C2643 1.574 1_565 S
C2660 H2654 0.949 . S
C2660 C2664 1.368 . S
C2661 C2642 1.429 . S
C2661 C2655 1.429 . S
C2661 C2662 1.523 . S
C2662 C2643 1.368 . S
C2662 C2656 1.368 1_545 S
C2662 C2661 1.523 . S
C2663 C2647 1.429 . S
C2663 C2659 1.429 . S
C2663 C2664 1.523 . S
C2664 C2648 1.368 . S
C2664 C2660 1.368 . S
C2664 C2663 1.523 . S
H2665 C2640 0.950 . S
H2666 C2642 0.950 . S
H2667 C2643 0.949 . S
H2668 C2645 0.950 . S
H2669 C2647 0.950 . S
C2670 C2671 1.349 . S
C2670 C2672 1.327 1_545 S
C2670 H2695 0.950 . S
C2671 C2670 1.349 . S
C2671 C2687 1.349 . S
C2672 C2670 1.327 1_565 S
C2672 C2691 1.429 . S
C2672 H2696 0.950 . S
C2673 C2690 1.574 . S
C2673 C2692 1.368 . S
C2673 H2697 0.949 . S
H2674 C2678 0.949 . S
C2675 C2676 1.349 . S
C2675 C2677 1.327 . S
C2675 H2698 0.950 . S
C2676 C2675 1.349 . S
C2676 C2688 1.349 . S
C2677 C2675 1.327 . S
C2677 C2693 1.429 1_655 S
C2677 H2699 0.950 . S
C2678 H2674 0.949 . S
C2678 C2686 1.574 . S
C2678 C2694 1.368 . S
H2679 C2687 0.950 . S
H2680 C2685 0.950 . S
H2681 C2686 0.949 . S
H2682 C2688 0.950 . S
H2683 C2689 0.950 . S
H2684 C2690 0.949 . S
C2685 H2680 0.950 . S
C2685 C2687 1.327 . S
C2685 C2691 1.429 1_545 S
C2686 C2678 1.574 . S
C2686 H2681 0.949 . S
C2686 C2692 1.368 . S
C2687 C2671 1.349 . S
C2687 H2679 0.950 . S
C2687 C2685 1.327 . S
C2688 C2676 1.349 . S
C2688 H2682 0.950 . S
C2688 C2689 1.327 1_655 S
C2689 H2683 0.950 . S
C2689 C2688 1.327 1_455 S
C2689 C2693 1.429 . S
C2690 C2673 1.574 . S
C2690 H2684 0.949 . S
C2690 C2694 1.368 . S
C2691 C2672 1.429 . S
C2691 C2685 1.429 1_565 S
C2691 C2692 1.523 . S
C2692 C2673 1.368 . S
C2692 C2686 1.368 . S
C2692 C2691 1.523 . S
C2693 C2677 1.429 1_455 S
C2693 C2689 1.429 . S
C2693 C2694 1.523 . S
C2694 C2678 1.368 . S
C2694 C2690 1.368 . S
C2694 C2693 1.523 . S
H2695 C2670 0.950 . S
H2696 C2672 0.950 . S
H2697 C2673 0.949 . S
H2698 C2675 0.950 . S
H2699 C2677 0.950 . S
C2700 C2701 1.349 . S
C2700 C2702 1.327 . S
C2700 H2725 0.950 . S
C2701 C2700 1.349 . S
C2701 C2717 1.349 . S
C2702 C2700 1.327 . S
C2702 C2721 1.429 . S
C2702 H2726 0.950 . S
C2703 C2720 1.574 . S
C2703 C2722 1.368 . S
C2703 H2727 0.949 . S
H2704 C2708 0.949 . S
C2705 C2706 1.349 . S
C2705 C2707 1.327 . S
C2705 H2728 0.950 . S
C2706 C2705 1.349 . S
C2706 C2718 1.349 . S
C2707 C2705 1.327 . S
C2707 C2723 1.429 1_545 S
C2707 H2729 0.950 . S
C2708 H2704 0.949 . S
C2708 C2716 1.574 . S
C2708 C2724 1.368 . S
H2709 C2717 0.950 . S
H2710 C2715 0.950 . S
H2711 C2716 0.949 . S
H2712 C2718 0.950 . S
H2713 C2719 0.950 . S
H2714 C2720 0.949 . S
C2715 H2710 0.950 . S
C2715 C2717 1.327 . S
C2715 C2721 1.429 . S
C2716 C2708 1.574 . S
C2716 H2711 0.949 . S
C2716 C2722 1.368 . S
C2717 C2701 1.349 . S
C2717 H2709 0.950 . S
C2717 C2715 1.327 . S
C2718 C2706 1.349 . S
C2718 H2712 0.950 . S
C2718 C2719 1.327 1_545 S
C2719 H2713 0.950 . S
C2719 C2718 1.327 1_565 S
C2719 C2723 1.429 . S
C2720 C2703 1.574 . S
C2720 H2714 0.949 . S
C2720 C2724 1.368 . S
C2721 C2702 1.429 . S
C2721 C2715 1.429 . S
C2721 C2722 1.523 . S
C2722 C2703 1.368 . S
C2722 C2716 1.368 . S
C2722 C2721 1.523 . S
C2723 C2707 1.429 1_565 S
C2723 C2719 1.429 . S
C2723 C2724 1.523 . S
C2724 C2708 1.368 . S
C2724 C2720 1.368 . S
C2724 C2723 1.523 . S
H2725 C2700 0.950 . S
H2726 C2702 0.950 . S
H2727 C2703 0.949 . S
H2728 C2705 0.950 . S
H2729 C2707 0.950 . S
C2730 C2731 1.349 . S
C2730 C2732 1.327 . S
C2730 H2755 0.950 . S
C2731 C2730 1.349 . S
C2731 C2747 1.349 . S
C2732 C2730 1.327 . S
C2732 C2751 1.429 . S
C2732 H2756 0.950 . S
C2733 C2750 1.574 1_545 S
C2733 C2752 1.368 . S
C2733 H2757 0.949 . S
H2734 C2738 0.949 . S
C2735 C2736 1.349 . S
C2735 C2737 1.327 . S
C2735 H2758 0.950 . S
C2736 C2735 1.349 . S
C2736 C2748 1.349 . S
C2737 C2735 1.327 . S
C2737 C2753 1.429 . S
C2737 H2759 0.950 . S
C2738 H2734 0.949 . S
C2738 C2746 1.574 . S
C2738 C2754 1.368 . S
H2739 C2747 0.950 . S
H2740 C2745 0.950 . S
H2741 C2746 0.949 . S
H2742 C2748 0.950 . S
H2743 C2749 0.950 . S
H2744 C2750 0.949 . S
C2745 H2740 0.950 . S
C2745 C2747 1.327 . S
C2745 C2751 1.429 . S
C2746 C2738 1.574 . S
C2746 H2741 0.949 . S
C2746 C2752 1.368 1_565 S
C2747 C2731 1.349 . S
C2747 H2739 0.950 . S
C2747 C2745 1.327 . S
C2748 C2736 1.349 . S
C2748 H2742 0.950 . S
C2748 C2749 1.327 . S
C2749 H2743 0.950 . S
C2749 C2748 1.327 . S
C2749 C2753 1.429 . S
C2750 C2733 1.574 1_565 S
C2750 H2744 0.949 . S
C2750 C2754 1.368 . S
C2751 C2732 1.429 . S
C2751 C2745 1.429 . S
C2751 C2752 1.523 . S
C2752 C2733 1.368 . S
C2752 C2746 1.368 1_545 S
C2752 C2751 1.523 . S
C2753 C2737 1.429 . S
C2753 C2749 1.429 . S
C2753 C2754 1.523 . S
C2754 C2738 1.368 . S
C2754 C2750 1.368 . S
C2754 C2753 1.523 . S
H2755 C2730 0.950 . S
H2756 C2732 0.950 . S
H2757 C2733 0.949 . S
H2758 C2735 0.950 . S
H2759 C2737 0.950 . S
C2760 C2761 1.349 . S
C2760 C2762 1.327 . S
C2760 H2785 0.950 . S
C2761 C2760 1.349 . S
C2761 C2777 1.349 . S
C2762 C2760 1.327 . S
C2762 C2781 1.429 . S
C2762 H2786 0.950 . S
C2763 C2780 1.574 . S
C2763 C2782 1.368 . S
C2763 H2787 0.949 . S
H2764 C2768 0.949 . S
C2765 C2766 1.349 . S
C2765 C2767 1.327 . S
C2765 H2788 0.950 . S
C2766 C2765 1.349 . S
C2766 C2778 1.349 . S
C2767 C2765 1.327 . S
C2767 C2783 1.429 1_655 S
C2767 H2789 0.954 . S
C2768 H2764 0.949 . S
C2768 C2776 1.574 . S
C2768 C2784 1.368 . S
H2769 C2777 0.950 . S
H2770 C2775 0.950 . S
H2771 C2776 0.949 . S
H2772 C2778 0.950 . S
H2773 C2779 0.950 1_455 S
H2774 C2780 0.949 . S
C2775 H2770 0.950 . S
C2775 C2777 1.327 . S
C2775 C2781 1.429 . S
C2776 C2768 1.574 . S
C2776 H2771 0.949 . S
C2776 C2782 1.368 . S
C2777 C2761 1.349 . S
C2777 H2769 0.950 . S
C2777 C2775 1.327 . S
C2778 C2766 1.349 . S
C2778 H2772 0.950 . S
C2778 C2779 1.327 . S
C2779 H2773 0.950 1_655 S
C2779 C2778 1.327 . S
C2779 C2783 1.429 1_655 S
C2780 C2763 1.574 . S
C2780 H2774 0.949 . S
C2780 C2784 1.368 . S
C2781 C2762 1.429 . S
C2781 C2775 1.429 . S
C2781 C2782 1.523 . S
C2782 C2763 1.368 . S
C2782 C2776 1.368 . S
C2782 C2781 1.523 . S
C2783 C2767 1.429 1_455 S
C2783 C2779 1.429 1_455 S
C2783 C2784 1.523 . S
C2784 C2768 1.368 . S
C2784 C2780 1.368 . S
C2784 C2783 1.523 . S
H2785 C2760 0.950 . S
H2786 C2762 0.950 . S
H2787 C2763 0.949 . S
H2788 C2765 0.950 . S
H2789 C2767 0.954 . S
C2790 C2791 1.349 . S
C2790 C2792 1.327 . S
C2790 H2815 0.950 . S
C2791 C2790 1.349 . S
C2791 C2807 1.349 . S
C2792 C2790 1.327 . S
C2792 C2811 1.429 . S
C2792 H2816 0.950 . S
C2793 C2810 1.574 . S
C2793 C2812 1.368 . S
C2793 H2817 0.949 . S
H2794 C2798 0.949 . S
C2795 C2796 1.349 . S
C2795 C2797 1.327 . S
C2795 H2818 0.950 . S
C2796 C2795 1.349 . S
C2796 C2808 1.349 . S
C2797 C2795 1.327 . S
C2797 C2813 1.429 . S
C2797 H2819 0.950 . S
C2798 H2794 0.949 . S
C2798 C2806 1.574 . S
C2798 C2814 1.368 . S
H2799 C2807 0.950 . S
H2800 C2805 0.950 . S
H2801 C2806 0.949 . S
H2802 C2808 0.950 . S
H2803 C2809 0.950 . S
H2804 C2810 0.949 . S
C2805 H2800 0.950 . S
C2805 C2807 1.327 . S
C2805 C2811 1.429 . S
C2806 C2798 1.574 . S
C2806 H2801 0.949 . S
C2806 C2812 1.368 . S
C2807 C2791 1.349 . S
C2807 H2799 0.950 . S
C2807 C2805 1.327 . S
C2808 C2796 1.349 . S
C2808 H2802 0.950 . S
C2808 C2809 1.327 . S
C2809 H2803 0.950 . S
C2809 C2808 1.327 . S
C2809 C2813 1.429 . S
C2810 C2793 1.574 . S
C2810 H2804 0.949 . S
C2810 C2814 1.368 . S
C2811 C2792 1.429 . S
C2811 C2805 1.429 . S
C2811 C2812 1.523 . S
C2812 C2793 1.368 . S
C2812 C2806 1.368 . S
C2812 C2811 1.523 . S
C2813 C2797 1.429 . S
C2813 C2809 1.429 . S
C2813 C2814 1.523 . S
C2814 C2798 1.368 . S
C2814 C2810 1.368 . S
C2814 C2813 1.523 . S
H2815 C2790 0.950 . S
H2816 C2792 0.950 . S
H2817 C2793 0.949 . S
H2818 C2795 0.950 . S
H2819 C2797 0.950 . S
C2820 C2821 1.349 . S
C2820 C2822 1.327 . S
C2820 H2845 0.950 . S
C2821 C2820 1.349 . S
C2821 C2837 1.349 . S
C2822 C2820 1.327 . S
C2822 C2841 1.429 . S
C2822 H2846 0.950 . S
C2823 C2840 1.574 . S
C2823 C2842 1.368 . S
C2823 H2847 0.949 . S
H2824 C2828 0.949 . S
C2825 C2826 1.349 . S
C2825 C2827 1.327 . S
C2825 H2848 0.950 . S
C2826 C2825 1.349 . S
C2826 C2838 1.349 . S
C2827 C2825 1.327 . S
C2827 C2843 1.429 . S
C2827 H2849 0.950 . S
C2828 H2824 0.949 . S
C2828 C2836 1.574 . S
C2828 C2844 1.368 . S
H2829 C2837 0.950 . S
H2830 C2835 0.950 . S
H2831 C2836 0.949 . S
H2832 C2838 0.950 . S
H2833 C2839 0.950 . S
H2834 C2840 0.949 . S
C2835 H2830 0.950 . S
C2835 C2837 1.327 . S
C2835 C2841 1.429 . S
C2836 C2828 1.574 . S
C2836 H2831 0.949 . S
C2836 C2842 1.368 . S
C2837 C2821 1.349 . S
C2837 H2829 0.950 . S
C2837 C2835 1.327 . S
C2838 C2826 1.349 . S
C2838 H2832 0.950 . S
C2838 C2839 1.327 . S
C2839 H2833 0.950 . S
C2839 C2838 1.327 . S
C2839 C2843 1.429 . S
C2840 C2823 1.574 . S
C2840 H2834 0.949 . S
C2840 C2844 1.368 . S
C2841 C2822 1.429 . S
C2841 C2835 1.429 . S
C2841 C2842 1.523 . S
C2842 C2823 1.368 . S
C2842 C2836 1.368 . S
C2842 C2841 1.523 . S
C2843 C2827 1.429 . S
C2843 C2839 1.429 . S
C2843 C2844 1.523 . S
C2844 C2828 1.368 . S
C2844 C2840 1.368 . S
C2844 C2843 1.523 . S
H2845 C2820 0.950 . S
H2846 C2822 0.950 . S
H2847 C2823 0.949 . S
H2848 C2825 0.950 . S
H2849 C2827 0.950 . S
C2850 C2851 1.349 . S
C2850 C2852 1.327 . S
C2850 H2875 0.950 . S
C2851 C2850 1.349 . S
C2851 C2867 1.349 . S
C2852 C2850 1.327 . S
C2852 C2871 1.429 . S
C2852 H2876 0.950 . S
C2853 C2870 1.574 . S
C2853 C2872 1.368 . S
C2853 H2877 0.949 . S
H2854 C2858 0.949 . S
C2855 C2856 1.349 . S
C2855 C2857 1.327 . S
C2855 H2878 0.950 . S
C2856 C2855 1.349 . S
C2856 C2868 1.349 . S
C2857 C2855 1.327 . S
C2857 C2873 1.429 . S
C2857 H2879 0.950 . S
C2858 H2854 0.949 . S
C2858 C2866 1.574 . S
C2858 C2874 1.368 . S
H2859 C2867 0.950 . S
H2860 C2865 0.950 . S
H2861 C2866 0.949 . S
H2862 C2868 0.950 . S
H2863 C2869 0.950 . S
H2864 C2870 0.949 . S
C2865 H2860 0.950 . S
C2865 C2867 1.327 . S
C2865 C2871 1.429 . S
C2866 C2858 1.574 . S
C2866 H2861 0.949 . S
C2866 C2872 1.368 . S
C2867 C2851 1.349 . S
C2867 H2859 0.950 . S
C2867 C2865 1.327 . S
C2868 C2856 1.349 . S
C2868 H2862 0.950 . S
C2868 C2869 1.327 . S
C2869 H2863 0.950 . S
C2869 C2868 1.327 . S
C2869 C2873 1.429 . S
C2870 C2853 1.574 . S
C2870 H2864 0.949 . S
C2870 C2874 1.368 . S
C2871 C2852 1.429 . S
C2871 C2865 1.429 . S
C2871 C2872 1.523 . S
C2872 C2853 1.368 . S
C2872 C2866 1.368 . S
C2872 C2871 1.523 . S
C2873 C2857 1.429 . S
C2873 C2869 1.429 . S
C2873 C2874 1.523 . S
C2874 C2858 1.368 . S
C2874 C2870 1.368 . S
C2874 C2873 1.523 . S
H2875 C2850 0.950 . S
H2876 C2852 0.950 . S
H2877 C2853 0.949 . S
H2878 C2855 0.950 . S
H2879 C2857 0.950 . S
C2880 C2881 1.349 . S
C2880 C2882 1.327 . S
C2880 H2905 0.950 . S
C2881 C2880 1.349 . S
C2881 C2897 1.349 . S
C2882 C2880 1.327 . S
C2882 C2901 1.429 . S
C2882 H2906 0.950 . S
C2883 C2900 1.574 . S
C2883 C2902 1.368 . S
C2883 H2907 0.949 . S
H2884 C2888 0.949 . S
C2885 C2886 1.349 . S
C2885 C2887 1.327 . S
C2885 H2908 0.950 . S
C2886 C2885 1.349 . S
C2886 C2898 1.349 . S
C2887 C2885 1.327 . S
C2887 C2903 1.429 . S
C2887 H2909 0.950 . S
C2888 H2884 0.949 . S
C2888 C2896 1.574 . S
C2888 C2904 1.368 . S
H2889 C2897 0.950 . S
H2890 C2895 0.950 . S
H2891 C2896 0.949 . S
H2892 C2898 0.950 . S
H2893 C2899 0.950 . S
H2894 C2900 0.949 . S
C2895 H2890 0.950 . S
C2895 C2897 1.327 . S
C2895 C2901 1.429 . S
C2896 C2888 1.574 . S
C2896 H2891 0.949 . S
C2896 C2902 1.368 . S
C2897 C2881 1.349 . S
C2897 H2889 0.950 . S
C2897 C2895 1.327 . S
C2898 C2886 1.349 . S
C2898 H2892 0.950 . S
C2898 C2899 1.327 . S
C2899 H2893 0.950 . S
C2899 C2898 1.327 . S
C2899 C2903 1.429 . S
C2900 C2883 1.574 . S
C2900 H2894 0.949 . S
C2900 C2904 1.368 . S
C2901 C2882 1.429 . S
C2901 C2895 1.429 . S
C2901 C2902 1.523 . S
C2902 C2883 1.368 . S
C2902 C2896 1.368 . S
C2902 C2901 1.523 . S
C2903 C2887 1.429 . S
C2903 C2899 1.429 . S
C2903 C2904 1.523 . S
C2904 C2888 1.368 . S
C2904 C2900 1.368 . S
C2904 C2903 1.523 . S
H2905 C2880 0.950 . S
H2906 C2882 0.950 . S
H2907 C2883 0.949 . S
H2908 C2885 0.950 . S
H2909 C2887 0.950 . S
C2910 C2911 1.349 . S
C2910 C2912 1.327 . S
C2910 H2935 0.950 . S
C2911 C2910 1.349 . S
C2911 C2927 1.349 . S
C2912 C2910 1.327 . S
C2912 C2931 1.429 . S
C2912 H2936 0.950 . S
C2913 C2930 1.574 . S
C2913 C2932 1.368 . S
C2913 H2937 0.949 . S
H2914 C2918 0.949 . S
C2915 C2916 1.349 . S
C2915 C2917 1.327 . S
C2915 H2938 0.950 . S
C2916 C2915 1.349 . S
C2916 C2928 1.349 . S
C2917 C2915 1.327 . S
C2917 C2933 1.429 . S
C2917 H2939 0.950 . S
C2918 H2914 0.949 . S
C2918 C2926 1.574 . S
C2918 C2934 1.368 . S
H2919 C2927 0.950 . S
H2920 C2925 0.950 . S
H2921 C2926 0.949 . S
H2922 C2928 0.950 . S
H2923 C2929 0.950 . S
H2924 C2930 0.949 . S
C2925 H2920 0.950 . S
C2925 C2927 1.327 . S
C2925 C2931 1.429 . S
C2926 C2918 1.574 . S
C2926 H2921 0.949 . S
C2926 C2932 1.368 . S
C2927 C2911 1.349 . S
C2927 H2919 0.950 . S
C2927 C2925 1.327 . S
C2928 C2916 1.349 . S
C2928 H2922 0.950 . S
C2928 C2929 1.327 . S
C2929 H2923 0.950 . S
C2929 C2928 1.327 . S
C2929 C2933 1.429 . S
C2930 C2913 1.574 . S
C2930 H2924 0.949 . S
C2930 C2934 1.368 . S
C2931 C2912 1.429 . S
C2931 C2925 1.429 . S
C2931 C2932 1.523 . S
C2932 C2913 1.368 . S
C2932 C2926 1.368 . S
C2932 C2931 1.523 . S
C2933 C2917 1.429 . S
C2933 C2929 1.429 . S
C2933 C2934 1.523 . S
C2934 C2918 1.368 . S
C2934 C2930 1.368 . S
C2934 C2933 1.523 . S
H2935 C2910 0.950 . S
H2936 C2912 0.950 . S
H2937 C2913 0.949 . S
H2938 C2915 0.950 . S
H2939 C2917 0.950 . S
C2940 C2941 1.349 . S
C2940 C2942 1.327 . S
C2940 H2965 0.950 . S
C2941 C2940 1.349 . S
C2941 C2957 1.349 . S
C2942 C2940 1.327 . S
C2942 C2961 1.429 . S
C2942 H2966 0.950 . S
C2943 C2960 1.574 . S
C2943 C2962 1.368 . S
C2943 H2967 0.949 . S
H2944 C2948 0.949 . S
C2945 C2946 1.349 . S
C2945 C2947 1.327 . S
C2945 H2968 0.950 . S
C2946 C2945 1.349 . S
C2946 C2958 1.349 . S
C2947 C2945 1.327 . S
C2947 C2963 1.429 . S
C2947 H2969 0.950 . S
C2948 H2944 0.949 . S
C2948 C2956 1.574 . S
C2948 C2964 1.368 . S
H2949 C2957 0.950 . S
H2950 C2955 0.950 . S
H2951 C2956 0.949 . S
H2952 C2958 0.950 . S
H2953 C2959 0.950 . S
H2954 C2960 0.949 . S
C2955 H2950 0.950 . S
C2955 C2957 1.327 . S
C2955 C2961 1.429 . S
C2956 C2948 1.574 . S
C2956 H2951 0.949 . S
C2956 C2962 1.368 . S
C2957 C2941 1.349 . S
C2957 H2949 0.950 . S
C2957 C2955 1.327 . S
C2958 C2946 1.349 . S
C2958 H2952 0.950 . S
C2958 C2959 1.327 . S
C2959 H2953 0.950 . S
C2959 C2958 1.327 . S
C2959 C2963 1.429 . S
C2960 C2943 1.574 . S
C2960 H2954 0.949 . S
C2960 C2964 1.368 . S
C2961 C2942 1.429 . S
C2961 C2955 1.429 . S
C2961 C2962 1.523 . S
C2962 C2943 1.368 . S
C2962 C2956 1.368 . S
C2962 C2961 1.523 . S
C2963 C2947 1.429 . S
C2963 C2959 1.429 . S
C2963 C2964 1.523 . S
C2964 C2948 1.368 . S
C2964 C2960 1.368 . S
C2964 C2963 1.523 . S
H2965 C2940 0.950 . S
H2966 C2942 0.950 . S
H2967 C2943 0.949 . S
H2968 C2945 0.950 . S
H2969 C2947 0.950 . S
C2970 C2971 1.349 . S
C2970 C2972 1.327 . S
C2970 H2995 0.950 . S
C2971 C2970 1.349 . S
C2971 C2987 1.349 . S
C2972 C2970 1.327 . S
C2972 C2991 1.429 . S
C2972 H2996 0.950 . S
C2973 C2990 1.574 . S
C2973 C2992 1.368 . S
C2973 H2997 0.949 . S
H2974 C2978 0.949 . S
C2975 C2976 1.349 . S
C2975 C2977 1.327 . S
C2975 H2998 0.950 . S
C2976 C2975 1.349 . S
C2976 C2988 1.349 . S
C2977 C2975 1.327 . S
C2977 C2993 1.429 . S
C2977 H2999 0.950 . S
C2978 H2974 0.949 . S
C2978 C2986 1.574 . S
C2978 C2994 1.368 . S
H2979 C2987 0.950 . S
H2980 C2985 0.950 . S
H2981 C2986 0.949 . S
H2982 C2988 0.950 . S
H2983 C2989 0.950 . S
H2984 C2990 0.949 . S
C2985 H2980 0.950 . S
C2985 C2987 1.327 . S
C2985 C2991 1.429 . S
C2986 C2978 1.574 . S
C2986 H2981 0.949 . S
C2986 C2992 1.368 . S
C2987 C2971 1.349 . S
C2987 H2979 0.950 . S
C2987 C2985 1.327 . S
C2988 C2976 1.349 . S
C2988 H2982 0.950 . S
C2988 C2989 1.327 . S
C2989 H2983 0.950 . S
C2989 C2988 1.327 . S
C2989 C2993 1.429 . S
C2990 C2973 1.574 . S
C2990 H2984 0.949 . S
C2990 C2994 1.368 . S
C2991 C2972 1.429 . S
C2991 C2985 1.429 . S
C2991 C2992 1.523 . S
C2992 C2973 1.368 . S
C2992 C2986 1.368 . S
C2992 C2991 1.523 . S
C2993 C2977 1.429 . S
C2993 C2989 1.429 . S
C2993 C2994 1.523 . S
C2994 C2978 1.368 . S
C2994 C2990 1.368 . S
C2994 C2993 1.523 . S
H2995 C2970 0.950 . S
H2996 C2972 0.950 . S
H2997 C2973 0.949 . S
H2998 C2975 0.950 . S
H2999 C2977 0.950 . S
C3000 C3001 1.349 . S
C3000 C3002 1.327 . S
C3000 H3025 0.950 . S
C3001 C3000 1.349 . S
C3001 C3017 1.349 . S
C3002 C3000 1.327 . S
C3002 C3021 1.429 . S
C3002 H3026 0.950 . S
C3003 C3020 1.574 . S
C3003 C3022 1.368 . S
C3003 H3027 0.949 . S
H3004 C3008 0.949 . S
C3005 C3006 1.349 . S
C3005 C3007 1.327 . S
C3005 H3028 0.950 . S
C3006 C3005 1.349 . S
C3006 C3018 1.349 . S
C3007 C3005 1.327 . S
C3007 C3023 1.429 . S
C3007 H3029 0.950 . S
C3008 H3004 0.949 . S
C3008 C3016 1.574 . S
C3008 C3024 1.368 . S
H3009 C3017 0.950 . S
H3010 C3015 0.950 . S
H3011 C3016 0.949 . S
H3012 C3018 0.950 . S
H3013 C3019 0.950 . S
H3014 C3020 0.949 . S
C3015 H3010 0.950 . S
C3015 C3017 1.327 . S
C3015 C3021 1.429 . S
C3016 C3008 1.574 . S
C3016 H3011 0.949 . S
C3016 C3022 1.368 . S
C3017 C3001 1.349 . S
C3017 H3009 0.950 . S
C3017 C3015 1.327 . S
C3018 C3006 1.349 . S
C3018 H3012 0.950 . S
C3018 C3019 1.327 . S
C3019 H3013 0.950 . S
C3019 C3018 1.327 . S
C3019 C3023 1.429 . S
C3020 C3003 1.574 . S
C3020 H3014 0.949 . S
C3020 C3024 1.368 . S
C3021 C3002 1.429 . S
C3021 C3015 1.429 . S
C3021 C3022 1.523 . S
C3022 C3003 1.368 . S
C3022 C3016 1.368 . S
C3022 C3021 1.523 . S
C3023 C3007 1.429 . S
C3023 C3019 1.429 . S
C3023 C3024 1.523 . S
C3024 C3008 1.368 . S
C3024 C3020 1.368 . S
C3024 C3023 1.523 . S
H3025 C3000 0.950 . S
H3026 C3002 0.950 . S
H3027 C3003 0.949 . S
H3028 C3005 0.950 . S
H3029 C3007 0.950 . S
C3030 C3031 1.349 . S
C3030 C3032 1.327 . S
C3030 H3055 0.950 . S
C3031 C3030 1.349 . S
C3031 C3047 1.349 . S
C3032 C3030 1.327 . S
C3032 C3051 1.429 . S
C3032 H3056 0.950 . S
C3033 C3050 1.574 . S
C3033 C3052 1.368 . S
C3033 H3057 0.949 . S
H3034 C3038 0.949 . S
C3035 C3036 1.349 . S
C3035 C3037 1.327 . S
C3035 H3058 0.950 . S
C3036 C3035 1.349 . S
C3036 C3048 1.349 . S
C3037 C3035 1.327 . S
C3037 C3053 1.429 . S
C3037 H3059 0.950 . S
C3038 H3034 0.949 . S
C3038 C3046 1.574 . S
C3038 C3054 1.368 . S
H3039 C3047 0.950 . S
H3040 C3045 0.950 . S
H3041 C3046 0.949 . S
H3042 C3048 0.950 . S
H3043 C3049 0.950 . S
H3044 C3050 0.949 . S
C3045 H3040 0.950 . S
C3045 C3047 1.327 . S
C3045 C3051 1.429 . S
C3046 C3038 1.574 . S
C3046 H3041 0.949 . S
C3046 C3052 1.368 . S
C3047 C3031 1.349 . S
C3047 H3039 0.950 . S
C3047 C3045 1.327 . S
C3048 C3036 1.349 . S
C3048 H3042 0.950 . S
C3048 C3049 1.327 . S
C3049 H3043 0.950 . S
C3049 C3048 1.327 . S
C3049 C3053 1.429 . S
C3050 C3033 1.574 . S
C3050 H3044 0.949 . S
C3050 C3054 1.368 . S
C3051 C3032 1.429 . S
C3051 C3045 1.429 . S
C3051 C3052 1.523 . S
C3052 C3033 1.368 . S
C3052 C3046 1.368 . S
C3052 C3051 1.523 . S
C3053 C3037 1.429 . S
C3053 C3049 1.429 . S
C3053 C3054 1.523 . S
C3054 C3038 1.368 . S
C3054 C3050 1.368 . S
C3054 C3053 1.523 . S
H3055 C3030 0.950 . S
H3056 C3032 0.950 . S
H3057 C3033 0.949 . S
H3058 C3035 0.950 . S
H3059 C3037 0.950 . S
C3060 C3061 1.349 . S
C3060 C3062 1.327 . S
C3060 H3085 0.950 . S
C3061 C3060 1.349 . S
C3061 C3077 1.349 . S
C3062 C3060 1.327 . S
C3062 C3081 1.429 . S
C3062 H3086 0.950 . S
C3063 C3080 1.574 . S
C3063 C3082 1.368 . S
C3063 H3087 0.949 . S
H3064 C3068 0.949 . S
C3065 C3066 1.349 . S
C3065 C3067 1.327 . S
C3065 H3088 0.950 . S
C3066 C3065 1.349 . S
C3066 C3078 1.349 . S
C3067 C3065 1.327 . S
C3067 C3083 1.429 . S
C3067 H3089 0.950 . S
C3068 H3064 0.949 . S
C3068 C3076 1.574 . S
C3068 C3084 1.368 . S
H3069 C3077 0.950 . S
H3070 C3075 0.950 . S
H3071 C3076 0.949 . S
H3072 C3078 0.950 . S
H3073 C3079 0.950 . S
H3074 C3080 0.949 . S
C3075 H3070 0.950 . S
C3075 C3077 1.327 . S
C3075 C3081 1.429 . S
C3076 C3068 1.574 . S
C3076 H3071 0.949 . S
C3076 C3082 1.368 . S
C3077 C3061 1.349 . S
C3077 H3069 0.950 . S
C3077 C3075 1.327 . S
C3078 C3066 1.349 . S
C3078 H3072 0.950 . S
C3078 C3079 1.327 . S
C3079 H3073 0.950 . S
C3079 C3078 1.327 . S
C3079 C3083 1.429 . S
C3080 C3063 1.574 . S
C3080 H3074 0.949 . S
C3080 C3084 1.368 . S
C3081 C3062 1.429 . S
C3081 C3075 1.429 . S
C3081 C3082 1.523 . S
C3082 C3063 1.368 . S
C3082 C3076 1.368 . S
C3082 C3081 1.523 . S
C3083 C3067 1.429 . S
C3083 C3079 1.429 . S
C3083 C3084 1.523 . S
C3084 C3068 1.368 . S
C3084 C3080 1.368 . S
C3084 C3083 1.523 . S
H3085 C3060 0.950 . S
H3086 C3062 0.950 . S
H3087 C3063 0.949 . S
H3088 C3065 0.950 . S
H3089 C3067 0.950 . S
C3090 C3091 1.349 . S
C3090 C3092 1.327 . S
C3090 H3115 0.950 . S
C3091 C3090 1.349 . S
C3091 C3107 1.349 . S
C3092 C3090 1.327 . S
C3092 C3111 1.429 . S
C3092 H3116 0.950 . S
C3093 C3110 1.574 . S
C3093 C3112 1.368 . S
C3093 H3117 0.949 . S
H3094 C3098 0.949 . S
C3095 C3096 1.349 . S
C3095 C3097 1.327 . S
C3095 H3118 0.950 . S
C3096 C3095 1.349 . S
C3096 C3108 1.349 . S
C3097 C3095 1.327 . S
C3097 C3113 1.429 . S
C3097 H3119 0.950 . S
C3098 H3094 0.949 . S
C3098 C3106 1.574 . S
C3098 C3114 1.368 . S
H3099 C3107 0.950 . S
H3100 C3105 0.950 . S
H3101 C3106 0.949 . S
H3102 C3108 0.950 . S
H3103 C3109 0.950 . S
H3104 C3110 0.949 . S
C3105 H3100 0.950 . S
C3105 C3107 1.327 . S
C3105 C3111 1.429 . S
C3106 C3098 1.574 . S
C3106 H3101 0.949 . S
C3106 C3112 1.368 . S
C3107 C3091 1.349 . S
C3107 H3099 0.950 . S
C3107 C3105 1.327 . S
C3108 C3096 1.349 . S
C3108 H3102 0.950 . S
C3108 C3109 1.327 . S
C3109 H3103 0.950 . S
C3109 C3108 1.327 . S
C3109 C3113 1.429 . S
C3110 C3093 1.574 . S
C3110 H3104 0.949 . S
C3110 C3114 1.368 . S
C3111 C3092 1.429 . S
C3111 C3105 1.429 . S
C3111 C3112 1.523 . S
C3112 C3093 1.368 . S
C3112 C3106 1.368 . S
C3112 C3111 1.523 . S
C3113 C3097 1.429 . S
C3113 C3109 1.429 . S
C3113 C3114 1.523 . S
C3114 C3098 1.368 . S
C3114 C3110 1.368 . S
C3114 C3113 1.523 . S
H3115 C3090 0.950 . S
H3116 C3092 0.950 . S
H3117 C3093 0.949 . S
H3118 C3095 0.950 . S
H3119 C3097 0.950 . S
C3120 C3121 1.349 . S
C3120 C3122 1.327 . S
C3120 H3145 0.950 . S
C3121 C3120 1.349 . S
C3121 C3137 1.349 . S
C3122 C3120 1.327 . S
C3122 C3141 1.429 . S
C3122 H3146 0.950 . S
C3123 C3140 1.574 . S
C3123 C3142 1.368 . S
C3123 H3147 0.949 . S
H3124 C3128 0.949 . S
C3125 C3126 1.349 . S
C3125 C3127 1.327 . S
C3125 H3148 0.950 . S
C3126 C3125 1.349 . S
C3126 C3138 1.349 . S
C3127 C3125 1.327 . S
C3127 C3143 1.429 . S
C3127 H3149 0.950 . S
C3128 H3124 0.949 . S
C3128 C3136 1.574 . S
C3128 C3144 1.368 . S
H3129 C3137 0.950 . S
H3130 C3135 0.950 . S
H3131 C3136 0.949 . S
H3132 C3138 0.950 . S
H3133 C3139 0.950 . S
H3134 C3140 0.949 . S
C3135 H3130 0.950 . S
C3135 C3137 1.327 . S
C3135 C3141 1.429 . S
C3136 C3128 1.574 . S
C3136 H3131 0.949 . S
C3136 C3142 1.368 . S
C3137 C3121 1.349 . S
C3137 H3129 0.950 . S
C3137 C3135 1.327 . S
C3138 C3126 1.349 . S
C3138 H3132 0.950 . S
C3138 C3139 1.327 . S
C3139 H3133 0.950 . S
C3139 C3138 1.327 . S
C3139 C3143 1.429 . S
C3140 C3123 1.574 . S
C3140 H3134 0.949 . S
C3140 C3144 1.368 . S
C3141 C3122 1.429 . S
C3141 C3135 1.429 . S
C3141 C3142 1.523 . S
C3142 C3123 1.368 . S
C3142 C3136 1.368 . S
C3142 C3141 1.523 . S
C3143 C3127 1.429 . S
C3143 C3139 1.429 . S
C3143 C3144 1.523 . S
C3144 C3128 1.368 . S
C3144 C3140 1.368 . S
C3144 C3143 1.523 . S
H3145 C3120 0.950 . S
H3146 C3122 0.950 . S
H3147 C3123 0.949 . S
H3148 C3125 0.950 . S
H3149 C3127 0.950 . S
C3150 C3151 1.349 . S
C3150 C3152 1.327 . S
C3150 H3175 0.950 . S
C3151 C3150 1.349 . S
C3151 C3167 1.349 . S
C3152 C3150 1.327 . S
C3152 C3171 1.429 . S
C3152 H3176 0.950 . S
C3153 C3170 1.574 . S
C3153 C3172 1.368 . S
C3153 H3177 0.949 . S
H3154 C3158 0.949 . S
C3155 C3156 1.349 . S
C3155 C3157 1.327 . S
C3155 H3178 0.950 . S
C3156 C3155 1.349 . S
C3156 C3168 1.349 . S
C3157 C3155 1.327 . S
C3157 C3173 1.429 . S
C3157 H3179 0.950 . S
C3158 H3154 0.949 . S
C3158 C3166 1.574 . S
C3158 C3174 1.368 . S
H3159 C3167 0.950 . S
H3160 C3165 0.950 . S
H3161 C3166 0.949 . S
H3162 C3168 0.950 . S
H3163 C3169 0.950 . S
H3164 C3170 0.949 . S
C3165 H3160 0.950 . S
C3165 C3167 1.327 . S
C3165 C3171 1.429 . S
C3166 C3158 1.574 . S
C3166 H3161 0.949 . S
C3166 C3172 1.368 . S
C3167 C3151 1.349 . S
C3167 H3159 0.950 . S
C3167 C3165 1.327 . S
C3168 C3156 1.349 . S
C3168 H3162 0.950 . S
C3168 C3169 1.327 . S
C3169 H3163 0.950 . S
C3169 C3168 1.327 . S
C3169 C3173 1.429 . S
C3170 C3153 1.574 . S
C3170 H3164 0.949 . S
C3170 C3174 1.368 . S
C3171 C3152 1.429 . S
C3171 C3165 1.429 . S
C3171 C3172 1.523 . S
C3172 C3153 1.368 . S
C3172 C3166 1.368 . S
C3172 C3171 1.523 . S
C3173 C3157 1.429 . S
C3173 C3169 1.429 . S
C3173 C3174 1.523 . S
C3174 C3158 1.368 . S
C3174 C3170 1.368 . S
C3174 C3173 1.523 . S
H3175 C3150 0.950 . S
H3176 C3152 0.950 . S
H3177 C3153 0.949 . S
H3178 C3155 0.950 . S
H3179 C3157 0.950 . S
C3180 C3181 1.349 . S
C3180 C3182 1.327 . S
C3180 H3205 0.950 . S
C3181 C3180 1.349 . S
C3181 C3197 1.349 . S
C3182 C3180 1.327 . S
C3182 C3201 1.429 . S
C3182 H3206 0.950 . S
C3183 C3200 1.574 . S
C3183 C3202 1.368 . S
C3183 H3207 0.949 . S
H3184 C3188 0.949 . S
C3185 C3186 1.349 . S
C3185 C3187 1.327 . S
C3185 H3208 0.950 . S
C3186 C3185 1.349 . S
C3186 C3198 1.349 . S
C3187 C3185 1.327 . S
C3187 C3203 1.429 . S
C3187 H3209 0.950 . S
C3188 H3184 0.949 . S
C3188 C3196 1.574 . S
C3188 C3204 1.368 . S
H3189 C3197 0.950 . S
H3190 C3195 0.950 . S
H3191 C3196 0.949 . S
H3192 C3198 0.950 . S
H3193 C3199 0.950 . S
H3194 C3200 0.949 . S
C3195 H3190 0.950 . S
C3195 C3197 1.327 . S
C3195 C3201 1.429 . S
C3196 C3188 1.574 . S
C3196 H3191 0.949 . S
C3196 C3202 1.368 . S
C3197 C3181 1.349 . S
C3197 H3189 0.950 . S
C3197 C3195 1.327 . S
C3198 C3186 1.349 . S
C3198 H3192 0.950 . S
C3198 C3199 1.327 . S
C3199 H3193 0.950 . S
C3199 C3198 1.327 . S
C3199 C3203 1.429 . S
C3200 C3183 1.574 . S
C3200 H3194 0.949 . S
C3200 C3204 1.368 . S
C3201 C3182 1.429 . S
C3201 C3195 1.429 . S
C3201 C3202 1.523 . S
C3202 C3183 1.368 . S
C3202 C3196 1.368 . S
C3202 C3201 1.523 . S
C3203 C3187 1.429 . S
C3203 C3199 1.429 . S
C3203 C3204 1.523 . S
C3204 C3188 1.368 . S
C3204 C3200 1.368 . S
C3204 C3203 1.523 . S
H3205 C3180 0.950 . S
H3206 C3182 0.950 . S
H3207 C3183 0.949 . S
H3208 C3185 0.950 . S
H3209 C3187 0.950 . S
C3210 C3211 1.349 . S
C3210 C3212 1.327 . S
C3210 H3235 0.950 . S
C3211 C3210 1.349 . S
C3211 C3227 1.349 . S
C3212 C3210 1.327 . S
C3212 C3231 1.429 . S
C3212 H3236 0.950 . S
C3213 C3230 1.574 . S
C3213 C3232 1.368 . S
C3213 H3237 0.949 . S
H3214 C3218 0.949 . S
C3215 C3216 1.349 . S
C3215 C3217 1.327 . S
C3215 H3238 0.950 . S
C3216 C3215 1.349 . S
C3216 C3228 1.349 . S
C3217 C3215 1.327 . S
C3217 C3233 1.429 . S
C3217 H3239 0.950 . S
C3218 H3214 0.949 . S
C3218 C3226 1.574 . S
C3218 C3234 1.368 . S
H3219 C3227 0.950 . S
H3220 C3225 0.950 . S
H3221 C3226 0.949 . S
H3222 C3228 0.950 . S
H3223 C3229 0.950 . S
H3224 C3230 0.949 . S
C3225 H3220 0.950 . S
C3225 C3227 1.327 . S
C3225 C3231 1.429 . S
C3226 C3218 1.574 . S
C3226 H3221 0.949 . S
C3226 C3232 1.368 . S
C3227 C3211 1.349 . S
C3227 H3219 0.950 . S
C3227 C3225 1.327 . S
C3228 C3216 1.349 . S
C3228 H3222 0.950 . S
C3228 C3229 1.327 . S
C3229 H3223 0.950 . S
C3229 C3228 1.327 . S
C3229 C3233 1.429 . S
C3230 C3213 1.574 . S
C3230 H3224 0.949 . S
C3230 C3234 1.368 . S
C3231 C3212 1.429 . S
C3231 C3225 1.429 . S
C3231 C3232 1.523 . S
C3232 C3213 1.368 . S
C3232 C3226 1.368 . S
C3232 C3231 1.523 . S
C3233 C3217 1.429 . S
C3233 C3229 1.429 . S
C3233 C3234 1.523 . S
C3234 C3218 1.368 . S
C3234 C3230 1.368 . S
C3234 C3233 1.523 . S
H3235 C3210 0.950 . S
H3236 C3212 0.950 . S
H3237 C3213 0.949 . S
H3238 C3215 0.950 . S
H3239 C3217 0.950 . S
C3240 C3241 1.349 . S
C3240 C3242 1.327 . S
C3240 H3265 0.950 . S
C3241 C3240 1.349 . S
C3241 C3257 1.349 . S
C3242 C3240 1.327 . S
C3242 C3261 1.429 . S
C3242 H3266 0.950 . S
C3243 C3260 1.574 . S
C3243 C3262 1.368 . S
C3243 H3267 0.949 . S
H3244 C3248 0.949 . S
C3245 C3246 1.349 . S
C3245 C3247 1.327 . S
C3245 H3268 0.950 . S
C3246 C3245 1.349 . S
C3246 C3258 1.349 . S
C3247 C3245 1.327 . S
C3247 C3263 1.429 . S
C3247 H3269 0.950 . S
C3248 H3244 0.949 . S
C3248 C3256 1.574 . S
C3248 C3264 1.368 . S
H3249 C3257 0.950 . S
H3250 C3255 0.950 . S
H3251 C3256 0.949 . S
H3252 C3258 0.950 . S
H3253 C3259 0.950 . S
H3254 C3260 0.949 . S
C3255 H3250 0.950 . S
C3255 C3257 1.327 . S
C3255 C3261 1.429 . S
C3256 C3248 1.574 . S
C3256 H3251 0.949 . S
C3256 C3262 1.368 . S
C3257 C3241 1.349 . S
C3257 H3249 0.950 . S
C3257 C3255 1.327 . S
C3258 C3246 1.349 . S
C3258 H3252 0.950 . S
C3258 C3259 1.327 . S
C3259 H3253 0.950 . S
C3259 C3258 1.327 . S
C3259 C3263 1.429 . S
C3260 C3243 1.574 . S
C3260 H3254 0.949 . S
C3260 C3264 1.368 . S
C3261 C3242 1.429 . S
C3261 C3255 1.429 . S
C3261 C3262 1.523 . S
C3262 C3243 1.368 . S
C3262 C3256 1.368 . S
C3262 C3261 1.523 . S
C3263 C3247 1.429 . S
C3263 C3259 1.429 . S
C3263 C3264 1.523 . S
C3264 C3248 1.368 . S
C3264 C3260 1.368 . S
C3264 C3263 1.523 . S
H3265 C3240 0.950 . S
H3266 C3242 0.950 . S
H3267 C3243 0.949 . S
H3268 C3245 0.950 . S
H3269 C3247 0.950 . S
C3270 C3271 1.349 . S
C3270 C3272 1.327 . S
C3270 H3295 0.950 . S
C3271 C3270 1.349 . S
C3271 C3287 1.349 . S
C3272 C3270 1.327 . S
C3272 C3291 1.429 . S
C3272 H3296 0.950 . S
C3273 C3290 1.574 . S
C3273 C3292 1.368 . S
C3273 H3297 0.949 . S
H3274 C3278 0.949 . S
C3275 C3276 1.349 . S
C3275 C3277 1.327 . S
C3275 H3298 0.950 . S
C3276 C3275 1.349 . S
C3276 C3288 1.349 . S
C3277 C3275 1.327 . S
C3277 C3293 1.429 . S
C3277 H3299 0.950 . S
C3278 H3274 0.949 . S
C3278 C3286 1.574 . S
C3278 C3294 1.368 . S
H3279 C3287 0.950 . S
H3280 C3285 0.950 . S
H3281 C3286 0.949 . S
H3282 C3288 0.950 . S
H3283 C3289 0.950 . S
H3284 C3290 0.949 . S
C3285 H3280 0.950 . S
C3285 C3287 1.327 . S
C3285 C3291 1.429 . S
C3286 C3278 1.574 . S
C3286 H3281 0.949 . S
C3286 C3292 1.368 . S
C3287 C3271 1.349 . S
C3287 H3279 0.950 . S
C3287 C3285 1.327 . S
C3288 C3276 1.349 . S
C3288 H3282 0.950 . S
C3288 C3289 1.327 . S
C3289 H3283 0.950 . S
C3289 C3288 1.327 . S
C3289 C3293 1.429 . S
C3290 C3273 1.574 . S
C3290 H3284 0.949 . S
C3290 C3294 1.368 . S
C3291 C3272 1.429 . S
C3291 C3285 1.429 . S
C3291 C3292 1.523 . S
C3292 C3273 1.368 . S
C3292 C3286 1.368 . S
C3292 C3291 1.523 . S
C3293 C3277 1.429 . S
C3293 C3289 1.429 . S
C3293 C3294 1.523 . S
C3294 C3278 1.368 . S
C3294 C3290 1.368 . S
C3294 C3293 1.523 . S
H3295 C3270 0.950 . S
H3296 C3272 0.950 . S
H3297 C3273 0.949 . S
H3298 C3275 0.950 . S
H3299 C3277 0.950 . S
C3300 C3301 1.349 . S
C3300 C3302 1.327 . S
C3300 H3325 0.950 . S
C3301 C3300 1.349 . S
C3301 C3317 1.349 . S
C3302 C3300 1.327 . S
C3302 C3321 1.429 . S
C3302 H3326 0.950 . S
C3303 C3320 1.574 . S
C3303 C3322 1.368 . S
C3303 H3327 0.949 . S
H3304 C3308 0.949 . S
C3305 C3306 1.349 . S
C3305 C3307 1.327 . S
C3305 H3328 0.950 . S
C3306 C3305 1.349 . S
C3306 C3318 1.349 . S
C3307 C3305 1.327 . S
C3307 C3323 1.429 . S
C3307 H3329 0.950 . S
C3308 H3304 0.949 . S
C3308 C3316 1.574 . S
C3308 C3324 1.368 . S
H3309 C3317 0.950 . S
H3310 C3315 0.950 . S
H3311 C3316 0.949 . S
H3312 C3318 0.950 . S
H3313 C3319 0.950 . S
H3314 C3320 0.949 . S
C3315 H3310 0.950 . S
C3315 C3317 1.327 . S
C3315 C3321 1.429 . S
C3316 C3308 1.574 . S
C3316 H3311 0.949 . S
C3316 C3322 1.368 . S
C3317 C3301 1.349 . S
C3317 H3309 0.950 . S
C3317 C3315 1.327 . S
C3318 C3306 1.349 . S
C3318 H3312 0.950 . S
C3318 C3319 1.327 . S
C3319 H3313 0.950 . S
C3319 C3318 1.327 . S
C3319 C3323 1.429 . S
C3320 C3303 1.574 . S
C3320 H3314 0.949 . S
C3320 C3324 1.368 . S
C3321 C3302 1.429 . S
C3321 C3315 1.429 . S
C3321 C3322 1.523 . S
C3322 C3303 1.368 . S
C3322 C3316 1.368 . S
C3322 C3321 1.523 . S
C3323 C3307 1.429 . S
C3323 C3319 1.429 . S
C3323 C3324 1.523 . S
C3324 C3308 1.368 . S
C3324 C3320 1.368 . S
C3324 C3323 1.523 . S
H3325 C3300 0.950 . S
H3326 C3302 0.950 . S
H3327 C3303 0.949 . S
H3328 C3305 0.950 . S
H3329 C3307 0.950 . S
C3330 C3331 1.349 . S
C3330 C3332 1.327 . S
C3330 H3355 0.950 . S
C3331 C3330 1.349 . S
C3331 C3347 1.349 . S
C3332 C3330 1.327 . S
C3332 C3351 1.429 . S
C3332 H3356 0.950 . S
C3333 C3350 1.574 . S
C3333 C3352 1.368 . S
C3333 H3357 0.949 . S
H3334 C3338 0.949 . S
C3335 C3336 1.349 . S
C3335 C3337 1.327 . S
C3335 H3358 0.950 . S
C3336 C3335 1.349 . S
C3336 C3348 1.349 . S
C3337 C3335 1.327 . S
C3337 C3353 1.429 . S
C3337 H3359 0.950 . S
C3338 H3334 0.949 . S
C3338 C3346 1.574 . S
C3338 C3354 1.368 . S
H3339 C3347 0.950 . S
H3340 C3345 0.950 . S
H3341 C3346 0.949 . S
H3342 C3348 0.950 . S
H3343 C3349 0.950 . S
H3344 C3350 0.949 . S
C3345 H3340 0.950 . S
C3345 C3347 1.327 . S
C3345 C3351 1.429 . S
C3346 C3338 1.574 . S
C3346 H3341 0.949 . S
C3346 C3352 1.368 . S
C3347 C3331 1.349 . S
C3347 H3339 0.950 . S
C3347 C3345 1.327 . S
C3348 C3336 1.349 . S
C3348 H3342 0.950 . S
C3348 C3349 1.327 . S
C3349 H3343 0.950 . S
C3349 C3348 1.327 . S
C3349 C3353 1.429 . S
C3350 C3333 1.574 . S
C3350 H3344 0.949 . S
C3350 C3354 1.368 . S
C3351 C3332 1.429 . S
C3351 C3345 1.429 . S
C3351 C3352 1.523 1_455 S
C3352 C3333 1.368 . S
C3352 C3346 1.368 . S
C3352 C3351 1.523 1_655 S
C3353 C3337 1.429 . S
C3353 C3349 1.429 . S
C3353 C3354 1.523 . S
C3354 C3338 1.368 . S
C3354 C3350 1.368 . S
C3354 C3353 1.523 . S
H3355 C3330 0.950 . S
H3356 C3332 0.950 . S
H3357 C3333 0.949 . S
H3358 C3335 0.950 . S
H3359 C3337 0.950 . S
C3360 C3361 1.349 . S
C3360 C3362 1.327 1_565 S
C3360 H3385 0.950 . S
C3361 C3360 1.349 . S
C3361 C3377 1.349 . S
C3362 C3360 1.327 1_545 S
C3362 C3381 1.429 . S
C3362 H3386 0.950 . S
C3363 C3380 1.574 . S
C3363 C3382 1.368 . S
C3363 H3387 0.949 . S
H3364 C3368 0.949 . S
C3365 C3366 1.349 . S
C3365 C3367 1.327 . S
C3365 H3388 0.950 . S
C3366 C3365 1.349 . S
C3366 C3378 1.349 . S
C3367 C3365 1.327 . S
C3367 C3383 1.429 . S
C3367 H3389 0.950 . S
C3368 H3364 0.949 . S
C3368 C3376 1.574 . S
C3368 C3384 1.368 . S
H3369 C3377 0.950 . S
H3370 C3375 0.950 . S
H3371 C3376 0.949 . S
H3372 C3378 0.950 . S
H3373 C3379 0.950 . S
H3374 C3380 0.949 . S
C3375 H3370 0.950 . S
C3375 C3377 1.327 1_545 S
C3375 C3381 1.429 . S
C3376 C3368 1.574 . S
C3376 H3371 0.949 . S
C3376 C3382 1.368 . S
C3377 C3361 1.349 . S
C3377 H3369 0.950 . S
C3377 C3375 1.327 1_565 S
C3378 C3366 1.349 . S
C3378 H3372 0.950 . S
C3378 C3379 1.327 . S
C3379 H3373 0.950 . S
C3379 C3378 1.327 . S
C3379 C3383 1.429 . S
C3380 C3363 1.574 . S
C3380 H3374 0.949 . S
C3380 C3384 1.368 . S
C3381 C3362 1.429 . S
C3381 C3375 1.429 . S
C3381 C3382 1.523 . S
C3382 C3363 1.368 . S
C3382 C3376 1.368 . S
C3382 C3381 1.523 . S
C3383 C3367 1.429 . S
C3383 C3379 1.429 . S
C3383 C3384 1.523 . S
C3384 C3368 1.368 . S
C3384 C3380 1.368 . S
C3384 C3383 1.523 . S
H3385 C3360 0.950 . S
H3386 C3362 0.950 . S
H3387 C3363 0.949 . S
H3388 C3365 0.950 . S
H3389 C3367 0.950 . S
C3390 C3391 1.349 . S
C3390 C3392 1.327 . S
C3390 H3415 0.950 . S
C3391 C3390 1.349 . S
C3391 C3407 1.349 . S
C3392 C3390 1.327 . S
C3392 C3411 1.429 . S
C3392 H3416 0.950 . S
C3393 C3410 1.574 . S
C3393 C3412 1.368 . S
C3393 H3417 0.949 . S
H3394 C3398 0.949 . S
C3395 C3396 1.370 . S
C3395 C3397 1.310 1_565 S
C3395 H3418 0.947 . S
C3396 C3395 1.370 . S
C3396 C3408 1.349 . S
C3397 C3395 1.310 1_545 S
C3397 C3413 1.429 . S
C3397 H3419 0.950 . S
C3398 H3394 0.949 . S
C3398 C3406 1.574 . S
C3398 C3414 1.368 . S
H3399 C3407 0.950 . S
H3400 C3405 0.950 . S
H3401 C3406 0.949 1_455 S
H3402 C3408 0.950 . S
H3403 C3409 0.950 . S
H3404 C3410 0.949 . S
C3405 H3400 0.950 . S
C3405 C3407 1.327 . S
C3405 C3411 1.429 . S
C3406 C3398 1.574 . S
C3406 H3401 0.949 1_655 S
C3406 C3412 1.368 . S
C3407 C3391 1.349 . S
C3407 H3399 0.950 . S
C3407 C3405 1.327 . S
C3408 C3396 1.349 . S
C3408 H3402 0.950 . S
C3408 C3409 1.327 1_565 S
C3409 H3403 0.950 . S
C3409 C3408 1.327 1_545 S
C3409 C3413 1.429 . S
C3410 C3393 1.574 . S
C3410 H3404 0.949 . S
C3410 C3414 1.368 . S
C3411 C3392 1.429 . S
C3411 C3405 1.429 . S
C3411 C3412 1.523 1_455 S
C3412 C3393 1.368 . S
C3412 C3406 1.368 . S
C3412 C3411 1.523 1_655 S
C3413 C3397 1.429 . S
C3413 C3409 1.429 . S
C3413 C3414 1.523 . S
C3414 C3398 1.368 . S
C3414 C3410 1.368 . S
C3414 C3413 1.523 . S
H3415 C3390 0.950 . S
H3416 C3392 0.950 . S
H3417 C3393 0.949 . S
H3418 C3395 0.947 . S
H3419 C3397 0.950 . S
C3420 C3421 1.349 . S
C3420 C3422 1.327 1_565 S
C3420 H3445 0.950 . S
C3421 C3420 1.349 . S
C3421 C3437 1.349 . S
C3422 C3420 1.327 1_545 S
C3422 C3441 1.429 . S
C3422 H3446 0.950 . S
C3423 C3440 1.574 . S
C3423 C3442 1.368 . S
C3423 H3447 0.949 . S
H3424 C3428 0.949 . S
C3425 C3426 1.349 . S
C3425 C3427 1.327 . S
C3425 H3448 0.950 . S
C3426 C3425 1.349 . S
C3426 C3438 1.349 . S
C3427 C3425 1.327 . S
C3427 C3443 1.429 . S
C3427 H3449 0.950 . S
C3428 H3424 0.949 . S
C3428 C3436 1.574 . S
C3428 C3444 1.368 . S
H3429 C3437 0.950 . S
H3430 C3435 0.950 . S
H3431 C3436 0.949 . S
H3432 C3438 0.950 . S
H3433 C3439 0.950 . S
H3434 C3440 0.949 . S
C3435 H3430 0.950 . S
C3435 C3437 1.327 1_545 S
C3435 C3441 1.429 . S
C3436 C3428 1.574 . S
C3436 H3431 0.949 . S
C3436 C3442 1.368 . S
C3437 C3421 1.349 . S
C3437 H3429 0.950 . S
C3437 C3435 1.327 1_565 S
C3438 C3426 1.349 . S
C3438 H3432 0.950 . S
C3438 C3439 1.327 . S
C3439 H3433 0.950 . S
C3439 C3438 1.327 . S
C3439 C3443 1.429 . S
C3440 C3423 1.574 . S
C3440 H3434 0.949 . S
C3440 C3444 1.368 . S
C3441 C3422 1.429 . S
C3441 C3435 1.429 . S
C3441 C3442 1.523 . S
C3442 C3423 1.368 . S
C3442 C3436 1.368 . S
C3442 C3441 1.523 . S
C3443 C3427 1.429 . S
C3443 C3439 1.429 . S
C3443 C3444 1.523 . S
C3444 C3428 1.368 . S
C3444 C3440 1.368 . S
C3444 C3443 1.523 . S
H3445 C3420 0.950 . S
H3446 C3422 0.950 . S
H3447 C3423 0.949 . S
H3448 C3425 0.950 . S
H3449 C3427 0.950 . S
C3450 C3451 1.349 . S
C3450 C3452 1.327 . S
C3450 H3475 0.950 . S
C3451 C3450 1.349 . S
C3451 C3467 1.349 . S
C3452 C3450 1.327 . S
C3452 C3471 1.429 . S
C3452 H3476 0.950 . S
C3453 C3470 1.574 . S
C3453 C3472 1.368 . S
C3453 H3477 0.949 . S
H3454 C3458 0.949 . S
C3455 C3456 1.349 . S
C3455 C3457 1.327 1_565 S
C3455 H3478 0.950 . S
C3456 C3455 1.349 . S
C3456 C3468 1.349 . S
C3457 C3455 1.327 1_545 S
C3457 C3473 1.429 . S
C3457 H3479 0.950 . S
C3458 H3454 0.949 . S
C3458 C3466 1.574 . S
C3458 C3474 1.368 . S
H3459 C3467 0.950 . S
H3460 C3465 0.950 . S
H3461 C3466 0.949 . S
H3462 C3468 0.950 . S
H3463 C3469 0.950 . S
H3464 C3470 0.949 . S
C3465 H3460 0.950 . S
C3465 C3467 1.327 . S
C3465 C3471 1.429 . S
C3466 C3458 1.574 . S
C3466 H3461 0.949 . S
C3466 C3472 1.368 . S
C3467 C3451 1.349 . S
C3467 H3459 0.950 . S
C3467 C3465 1.327 . S
C3468 C3456 1.349 . S
C3468 H3462 0.950 . S
C3468 C3469 1.327 1_565 S
C3469 H3463 0.950 . S
C3469 C3468 1.327 1_545 S
C3469 C3473 1.429 . S
C3470 C3453 1.574 . S
C3470 H3464 0.949 . S
C3470 C3474 1.368 . S
C3471 C3452 1.429 . S
C3471 C3465 1.429 . S
C3471 C3472 1.523 1_455 S
C3472 C3453 1.368 . S
C3472 C3466 1.368 . S
C3472 C3471 1.523 1_655 S
C3473 C3457 1.429 . S
C3473 C3469 1.429 . S
C3473 C3474 1.523 . S
C3474 C3458 1.368 . S
C3474 C3470 1.368 . S
C3474 C3473 1.523 . S
H3475 C3450 0.950 . S
H3476 C3452 0.950 . S
H3477 C3453 0.949 . S
H3478 C3455 0.950 . S
H3479 C3457 0.950 . S
C3480 C3481 1.349 . S
C3480 C3482 1.327 . S
C3480 H3505 0.950 . S
C3481 C3480 1.349 . S
C3481 C3497 1.349 . S
C3482 C3480 1.327 . S
C3482 C3501 1.429 . S
C3482 H3506 0.950 . S
C3483 C3500 1.574 . S
C3483 C3502 1.368 . S
C3483 H3507 0.949 1_655 S
H3484 C3488 0.949 . S
C3485 C3486 1.349 . S
C3485 C3487 1.327 . S
C3485 H3508 0.950 . S
C3486 C3485 1.349 . S
C3486 C3498 1.349 . S
C3487 C3485 1.327 . S
C3487 C3503 1.429 . S
C3487 H3509 0.950 . S
C3488 H3484 0.949 . S
C3488 C3496 1.574 . S
C3488 C3504 1.368 . S
H3489 C3497 0.950 . S
H3490 C3495 0.950 . S
H3491 C3496 0.949 . S
H3492 C3498 0.950 . S
H3493 C3499 0.950 . S
H3494 C3500 0.949 . S
C3495 H3490 0.950 . S
C3495 C3497 1.327 . S
C3495 C3501 1.429 . S
C3496 C3488 1.574 . S
C3496 H3491 0.949 . S
C3496 C3502 1.368 . S
C3497 C3481 1.349 . S
C3497 H3489 0.950 . S
C3497 C3495 1.327 . S
C3498 C3486 1.349 . S
C3498 H3492 0.950 . S
C3498 C3499 1.327 . S
C3499 H3493 0.950 . S
C3499 C3498 1.327 . S
C3499 C3503 1.429 . S
C3500 C3483 1.574 . S
C3500 H3494 0.949 . S
C3500 C3504 1.368 . S
C3501 C3482 1.429 . S
C3501 C3495 1.429 . S
C3501 C3502 1.523 1_455 S
C3502 C3483 1.368 . S
C3502 C3496 1.368 . S
C3502 C3501 1.523 1_655 S
C3503 C3487 1.429 . S
C3503 C3499 1.429 . S
C3503 C3504 1.523 . S
C3504 C3488 1.368 . S
C3504 C3500 1.368 . S
C3504 C3503 1.523 . S
H3505 C3480 0.950 . S
H3506 C3482 0.950 . S
H3507 C3483 0.949 1_455 S
H3508 C3485 0.950 . S
H3509 C3487 0.950 . S
C3510 C3511 1.349 . S
C3510 C3512 1.327 . S
C3510 H3535 0.950 . S
C3511 C3510 1.349 . S
C3511 C3527 1.349 . S
C3512 C3510 1.327 . S
C3512 C3531 1.429 . S
C3512 H3536 0.950 . S
C3513 C3530 1.574 . S
C3513 C3532 1.368 . S
C3513 H3537 0.949 . S
H3514 C3518 0.949 . S
C3515 C3516 1.349 . S
C3515 C3517 1.327 . S
C3515 H3538 0.950 . S
C3516 C3515 1.349 . S
C3516 C3528 1.349 . S
C3517 C3515 1.327 . S
C3517 C3533 1.429 . S
C3517 H3539 0.950 . S
C3518 H3514 0.949 . S
C3518 C3526 1.574 . S
C3518 C3534 1.368 . S
H3519 C3527 0.950 . S
H3520 C3525 0.950 . S
H3521 C3526 0.949 . S
H3522 C3528 0.950 . S
H3523 C3529 0.950 . S
H3524 C3530 0.949 . S
C3525 H3520 0.950 . S
C3525 C3527 1.327 . S
C3525 C3531 1.429 . S
C3526 C3518 1.574 . S
C3526 H3521 0.949 . S
C3526 C3532 1.368 . S
C3527 C3511 1.349 . S
C3527 H3519 0.950 . S
C3527 C3525 1.327 . S
C3528 C3516 1.349 . S
C3528 H3522 0.950 . S
C3528 C3529 1.327 . S
C3529 H3523 0.950 . S
C3529 C3528 1.327 . S
C3529 C3533 1.429 . S
C3530 C3513 1.574 . S
C3530 H3524 0.949 . S
C3530 C3534 1.368 . S
C3531 C3512 1.429 . S
C3531 C3525 1.429 . S
C3531 C3532 1.523 . S
C3532 C3513 1.368 . S
C3532 C3526 1.368 . S
C3532 C3531 1.523 . S
C3533 C3517 1.429 . S
C3533 C3529 1.429 . S
C3533 C3534 1.523 . S
C3534 C3518 1.368 . S
C3534 C3530 1.368 . S
C3534 C3533 1.523 . S
H3535 C3510 0.950 . S
H3536 C3512 0.950 . S
H3537 C3513 0.949 . S
H3538 C3515 0.950 . S
H3539 C3517 0.950 . S
C3540 C3541 1.349 . S
C3540 C3542 1.327 . S
C3540 H3565 0.950 . S
C3541 C3540 1.349 . S
C3541 C3557 1.349 . S
C3542 C3540 1.327 . S
C3542 C3561 1.429 . S
C3542 H3566 0.950 . S
C3543 C3560 1.574 . S
C3543 C3562 1.368 . S
C3543 H3567 0.949 . S
H3544 C3548 0.949 . S
C3545 C3546 1.349 . S
C3545 C3547 1.327 . S
C3545 H3568 0.950 . S
C3546 C3545 1.349 . S
C3546 C3558 1.349 . S
C3547 C3545 1.327 . S
C3547 C3563 1.429 . S
C3547 H3569 0.950 . S
C3548 H3544 0.949 . S
C3548 C3556 1.574 . S
C3548 C3564 1.368 . S
H3549 C3557 0.950 . S
H3550 C3555 0.950 . S
H3551 C3556 0.949 . S
H3552 C3558 0.950 . S
H3553 C3559 0.950 . S
H3554 C3560 0.949 . S
C3555 H3550 0.950 . S
C3555 C3557 1.327 . S
C3555 C3561 1.429 . S
C3556 C3548 1.574 . S
C3556 H3551 0.949 . S
C3556 C3562 1.368 . S
C3557 C3541 1.349 . S
C3557 H3549 0.950 . S
C3557 C3555 1.327 . S
C3558 C3546 1.349 . S
C3558 H3552 0.950 . S
C3558 C3559 1.327 . S
C3559 H3553 0.950 . S
C3559 C3558 1.327 . S
C3559 C3563 1.429 . S
C3560 C3543 1.574 . S
C3560 H3554 0.949 . S
C3560 C3564 1.368 . S
C3561 C3542 1.429 . S
C3561 C3555 1.429 . S
C3561 C3562 1.523 . S
C3562 C3543 1.368 . S
C3562 C3556 1.368 . S
C3562 C3561 1.523 . S
C3563 C3547 1.429 . S
C3563 C3559 1.429 . S
C3563 C3564 1.523 . S
C3564 C3548 1.368 . S
C3564 C3560 1.368 . S
C3564 C3563 1.523 . S
H3565 C3540 0.950 . S
H3566 C3542 0.950 . S
H3567 C3543 0.949 . S
H3568 C3545 0.950 . S
H3569 C3547 0.950 . S
C3570 C3571 1.349 . S
C3570 C3572 1.327 . S
C3570 H3595 0.950 . S
C3571 C3570 1.349 . S
C3571 C3587 1.349 . S
C3572 C3570 1.327 . S
C3572 C3591 1.429 . S
C3572 H3596 0.950 . S
C3573 C3590 1.574 . S
C3573 C3592 1.368 . S
C3573 H3597 0.949 . S
H3574 C3578 0.949 . S
C3575 C3576 1.349 . S
C3575 C3577 1.327 . S
C3575 H3598 0.950 . S
C3576 C3575 1.349 . S
C3576 C3588 1.349 . S
C3577 C3575 1.327 . S
C3577 C3593 1.429 . S
C3577 H3599 0.950 . S
C3578 H3574 0.949 . S
C3578 C3586 1.574 . S
C3578 C3594 1.368 . S
H3579 C3587 0.950 . S
H3580 C3585 0.950 . S
H3581 C3586 0.949 . S
H3582 C3588 0.950 . S
H3583 C3589 0.950 . S
H3584 C3590 0.949 . S
C3585 H3580 0.950 . S
C3585 C3587 1.327 . S
C3585 C3591 1.429 . S
C3586 C3578 1.574 . S
C3586 H3581 0.949 . S
C3586 C3592 1.368 . S
C3587 C3571 1.349 . S
C3587 H3579 0.950 . S
C3587 C3585 1.327 . S
C3588 C3576 1.349 . S
C3588 H3582 0.950 . S
C3588 C3589 1.327 . S
C3589 H3583 0.950 . S
C3589 C3588 1.327 . S
C3589 C3593 1.429 . S
C3590 C3573 1.574 . S
C3590 H3584 0.949 . S
C3590 C3594 1.368 . S
C3591 C3572 1.429 . S
C3591 C3585 1.429 . S
C3591 C3592 1.523 . S
C3592 C3573 1.368 . S
C3592 C3586 1.368 . S
C3592 C3591 1.523 . S
C3593 C3577 1.429 . S
C3593 C3589 1.429 . S
C3593 C3594 1.523 . S
C3594 C3578 1.368 . S
C3594 C3590 1.368 . S
C3594 C3593 1.523 . S
H3595 C3570 0.950 . S
H3596 C3572 0.950 . S
H3597 C3573 0.949 . S
H3598 C3575 0.950 . S
H3599 C3577 0.950 . S
C3600 C3601 1.349 . S
C3600 C3602 1.327 . S
C3600 H3625 0.950 . S
C3601 C3600 1.349 . S
C3601 C3617 1.349 . S
C3602 C3600 1.327 . S
C3602 C3621 1.429 . S
C3602 H3626 0.950 . S
C3603 C3620 1.574 . S
C3603 C3622 1.368 . S
C3603 H3627 0.949 . S
H3604 C3608 0.949 . S
C3605 C3606 1.349 . S
C3605 C3607 1.327 . S
C3605 H3628 0.950 . S
C3606 C3605 1.349 . S
C3606 C3618 1.349 . S
C3607 C3605 1.327 . S
C3607 C3623 1.429 . S
C3607 H3629 0.950 . S
C3608 H3604 0.949 . S
C3608 C3616 1.574 . S
C3608 C3624 1.368 . S
H3609 C3617 0.950 . S
H3610 C3615 0.950 . S
H3611 C3616 0.949 . S
H3612 C3618 0.950 . S
H3613 C3619 0.950 . S
H3614 C3620 0.949 . S
C3615 H3610 0.950 . S
C3615 C3617 1.327 . S
C3615 C3621 1.429 . S
C3616 C3608 1.574 . S
C3616 H3611 0.949 . S
C3616 C3622 1.368 . S
C3617 C3601 1.349 . S
C3617 H3609 0.950 . S
C3617 C3615 1.327 . S
C3618 C3606 1.349 . S
C3618 H3612 0.950 . S
C3618 C3619 1.327 . S
C3619 H3613 0.950 . S
C3619 C3618 1.327 . S
C3619 C3623 1.429 . S
C3620 C3603 1.574 . S
C3620 H3614 0.949 . S
C3620 C3624 1.368 . S
C3621 C3602 1.429 . S
C3621 C3615 1.429 . S
C3621 C3622 1.523 . S
C3622 C3603 1.368 . S
C3622 C3616 1.368 . S
C3622 C3621 1.523 . S
C3623 C3607 1.429 . S
C3623 C3619 1.429 . S
C3623 C3624 1.523 1_545 S
C3624 C3608 1.368 . S
C3624 C3620 1.368 . S
C3624 C3623 1.523 1_565 S
H3625 C3600 0.950 . S
H3626 C3602 0.950 . S
H3627 C3603 0.949 . S
H3628 C3605 0.950 . S
H3629 C3607 0.950 . S
C3630 C3631 1.349 . S
C3630 C3632 1.327 1_655 S
C3630 H3655 0.950 . S
C3631 C3630 1.349 . S
C3631 C3647 1.361 . S
C3632 C3630 1.327 1_455 S
C3632 C3651 1.429 . S
C3632 H3656 0.950 . S
C3633 C3650 1.574 . S
C3633 C3652 1.368 . S
C3633 H3657 0.949 . S
H3634 C3638 0.949 1_545 S
C3635 C3636 1.349 . S
C3635 C3637 1.327 . S
C3635 H3658 0.950 . S
C3636 C3635 1.349 . S
C3636 C3648 1.349 . S
C3637 C3635 1.327 . S
C3637 C3653 1.429 . S
C3637 H3659 0.950 . S
C3638 H3634 0.949 1_565 S
C3638 C3646 1.574 . S
C3638 C3654 1.368 . S
H3639 C3647 0.948 . S
H3640 C3645 0.950 . S
H3641 C3646 0.949 . S
H3642 C3648 0.950 . S
H3643 C3649 0.950 . S
H3644 C3650 0.949 . S
C3645 H3640 0.950 . S
C3645 C3647 1.317 1_455 S
C3645 C3651 1.429 . S
C3646 C3638 1.574 . S
C3646 H3641 0.949 . S
C3646 C3652 1.368 . S
C3647 C3631 1.361 . S
C3647 H3639 0.948 . S
C3647 C3645 1.317 1_655 S
C3648 C3636 1.349 . S
C3648 H3642 0.950 . S
C3648 C3649 1.327 . S
C3649 H3643 0.950 . S
C3649 C3648 1.327 . S
C3649 C3653 1.429 . S
C3650 C3633 1.574 . S
C3650 H3644 0.949 . S
C3650 C3654 1.368 . S
C3651 C3632 1.429 . S
C3651 C3645 1.429 . S
C3651 C3652 1.523 . S
C3652 C3633 1.368 . S
C3652 C3646 1.368 . S
C3652 C3651 1.523 . S
C3653 C3637 1.429 . S
C3653 C3649 1.429 . S
C3653 C3654 1.523 1_545 S
C3654 C3638 1.368 . S
C3654 C3650 1.368 . S
C3654 C3653 1.523 1_565 S
H3655 C3630 0.950 . S
H3656 C3632 0.950 . S
H3657 C3633 0.949 . S
H3658 C3635 0.950 . S
H3659 C3637 0.950 . S
C3660 C3661 1.349 . S
C3660 C3662 1.327 . S
C3660 H3685 0.950 . S
C3661 C3660 1.349 . S
C3661 C3677 1.349 . S
C3662 C3660 1.327 . S
C3662 C3681 1.429 . S
C3662 H3686 0.950 . S
C3663 C3680 1.574 . S
C3663 C3682 1.368 . S
C3663 H3687 0.949 . S
H3664 C3668 0.949 . S
C3665 C3666 1.356 . S
C3665 C3667 1.314 1_655 S
C3665 H3688 0.956 . S
C3666 C3665 1.356 . S
C3666 C3678 1.349 . S
C3667 C3665 1.314 1_455 S
C3667 C3683 1.429 . S
C3667 H3689 0.950 . S
C3668 H3664 0.949 . S
C3668 C3676 1.574 . S
C3668 C3684 1.368 . S
H3669 C3677 0.950 . S
H3670 C3675 0.950 . S
H3671 C3676 0.949 . S
H3672 C3678 0.950 . S
H3673 C3679 0.950 . S
H3674 C3680 0.949 . S
C3675 H3670 0.950 . S
C3675 C3677 1.327 . S
C3675 C3681 1.429 . S
C3676 C3668 1.574 . S
C3676 H3671 0.949 . S
C3676 C3682 1.368 . S
C3677 C3661 1.349 . S
C3677 H3669 0.950 . S
C3677 C3675 1.327 . S
C3678 C3666 1.349 . S
C3678 H3672 0.950 . S
C3678 C3679 1.327 1_655 S
C3679 H3673 0.950 . S
C3679 C3678 1.327 1_455 S
C3679 C3683 1.429 . S
C3680 C3663 1.574 . S
C3680 H3674 0.949 . S
C3680 C3684 1.368 . S
C3681 C3662 1.429 . S
C3681 C3675 1.429 . S
C3681 C3682 1.523 . S
C3682 C3663 1.368 . S
C3682 C3676 1.368 . S
C3682 C3681 1.523 . S
C3683 C3667 1.429 . S
C3683 C3679 1.429 . S
C3683 C3684 1.523 . S
C3684 C3668 1.368 . S
C3684 C3680 1.368 . S
C3684 C3683 1.523 . S
H3685 C3660 0.950 . S
H3686 C3662 0.950 . S
H3687 C3663 0.949 . S
H3688 C3665 0.956 . S
H3689 C3667 0.950 . S
C3690 C3691 1.349 . S
C3690 C3692 1.327 . S
C3690 H3715 0.950 . S
C3691 C3690 1.349 . S
C3691 C3707 1.349 . S
C3692 C3690 1.327 . S
C3692 C3711 1.429 . S
C3692 H3716 0.950 . S
C3693 C3710 1.574 . S
C3693 C3712 1.368 . S
C3693 H3717 0.949 . S
H3694 C3698 0.949 . S
C3695 C3696 1.349 . S
C3695 C3697 1.327 . S
C3695 H3718 0.950 . S
C3696 C3695 1.349 . S
C3696 C3708 1.349 . S
C3697 C3695 1.327 . S
C3697 C3713 1.429 . S
C3697 H3719 0.950 . S
C3698 H3694 0.949 . S
C3698 C3706 1.574 . S
C3698 C3714 1.368 . S
H3699 C3707 0.950 . S
H3700 C3705 0.950 . S
H3701 C3706 0.949 . S
H3702 C3708 0.950 . S
H3703 C3709 0.950 . S
H3704 C3710 0.949 . S
C3705 H3700 0.950 . S
C3705 C3707 1.327 . S
C3705 C3711 1.429 . S
C3706 C3698 1.574 . S
C3706 H3701 0.949 . S
C3706 C3712 1.368 . S
C3707 C3691 1.349 . S
C3707 H3699 0.950 . S
C3707 C3705 1.327 . S
C3708 C3696 1.349 . S
C3708 H3702 0.950 . S
C3708 C3709 1.327 . S
C3709 H3703 0.950 . S
C3709 C3708 1.327 . S
C3709 C3713 1.429 . S
C3710 C3693 1.574 . S
C3710 H3704 0.949 . S
C3710 C3714 1.368 . S
C3711 C3692 1.429 . S
C3711 C3705 1.429 . S
C3711 C3712 1.523 . S
C3712 C3693 1.368 . S
C3712 C3706 1.368 . S
C3712 C3711 1.523 . S
C3713 C3697 1.429 . S
C3713 C3709 1.429 . S
C3713 C3714 1.523 . S
C3714 C3698 1.368 . S
C3714 C3710 1.368 . S
C3714 C3713 1.523 . S
H3715 C3690 0.950 . S
H3716 C3692 0.950 . S
H3717 C3693 0.949 . S
H3718 C3695 0.950 . S
H3719 C3697 0.950 . S
C3720 C3721 1.349 . S
C3720 C3722 1.327 . S
C3720 H3745 0.950 . S
C3721 C3720 1.349 . S
C3721 C3737 1.349 . S
C3722 C3720 1.327 . S
C3722 C3741 1.429 . S
C3722 H3746 0.950 . S
C3723 C3740 1.574 . S
C3723 C3742 1.368 . S
C3723 H3747 0.949 . S
H3724 C3728 0.949 . S
C3725 C3726 1.349 . S
C3725 C3727 1.327 . S
C3725 H3748 0.950 . S
C3726 C3725 1.349 . S
C3726 C3738 1.349 . S
C3727 C3725 1.327 . S
C3727 C3743 1.429 . S
C3727 H3749 0.950 . S
C3728 H3724 0.949 . S
C3728 C3736 1.574 . S
C3728 C3744 1.368 . S
H3729 C3737 0.950 . S
H3730 C3735 0.950 . S
H3731 C3736 0.949 . S
H3732 C3738 0.950 . S
H3733 C3739 0.950 . S
H3734 C3740 0.949 . S
C3735 H3730 0.950 . S
C3735 C3737 1.327 . S
C3735 C3741 1.429 . S
C3736 C3728 1.574 . S
C3736 H3731 0.949 . S
C3736 C3742 1.368 . S
C3737 C3721 1.349 . S
C3737 H3729 0.950 . S
C3737 C3735 1.327 . S
C3738 C3726 1.349 . S
C3738 H3732 0.950 . S
C3738 C3739 1.327 . S
C3739 H3733 0.950 . S
C3739 C3738 1.327 . S
C3739 C3743 1.429 . S
C3740 C3723 1.574 . S
C3740 H3734 0.949 . S
C3740 C3744 1.368 . S
C3741 C3722 1.429 . S
C3741 C3735 1.429 . S
C3741 C3742 1.523 . S
C3742 C3723 1.368 . S
C3742 C3736 1.368 . S
C3742 C3741 1.523 . S
C3743 C3727 1.429 . S
C3743 C3739 1.429 . S
C3743 C3744 1.523 . S
C3744 C3728 1.368 . S
C3744 C3740 1.368 . S
C3744 C3743 1.523 . S
H3745 C3720 0.950 . S
H3746 C3722 0.950 . S
H3747 C3723 0.949 . S
H3748 C3725 0.950 . S
H3749 C3727 0.950 . S
C3750 C3751 1.349 . S
C3750 C3752 1.327 . S
C3750 H3775 0.950 . S
C3751 C3750 1.349 . S
C3751 C3767 1.349 . S
C3752 C3750 1.327 . S
C3752 C3771 1.429 . S
C3752 H3776 0.950 . S
C3753 C3770 1.574 . S
C3753 C3772 1.368 . S
C3753 H3777 0.949 . S
H3754 C3758 0.949 . S
C3755 C3756 1.349 . S
C3755 C3757 1.327 . S
C3755 H3778 0.950 . S
C3756 C3755 1.349 . S
C3756 C3768 1.349 . S
C3757 C3755 1.327 . S
C3757 C3773 1.429 . S
C3757 H3779 0.950 . S
C3758 H3754 0.949 . S
C3758 C3766 1.574 . S
C3758 C3774 1.368 . S
H3759 C3767 0.950 . S
H3760 C3765 0.950 . S
H3761 C3766 0.949 . S
H3762 C3768 0.950 . S
H3763 C3769 0.950 . S
H3764 C3770 0.949 . S
C3765 H3760 0.950 . S
C3765 C3767 1.327 . S
C3765 C3771 1.429 . S
C3766 C3758 1.574 . S
C3766 H3761 0.949 . S
C3766 C3772 1.368 . S
C3767 C3751 1.349 . S
C3767 H3759 0.950 . S
C3767 C3765 1.327 . S
C3768 C3756 1.349 . S
C3768 H3762 0.950 . S
C3768 C3769 1.327 . S
C3769 H3763 0.950 . S
C3769 C3768 1.327 . S
C3769 C3773 1.429 . S
C3770 C3753 1.574 . S
C3770 H3764 0.949 . S
C3770 C3774 1.368 . S
C3771 C3752 1.429 . S
C3771 C3765 1.429 . S
C3771 C3772 1.523 . S
C3772 C3753 1.368 . S
C3772 C3766 1.368 . S
C3772 C3771 1.523 . S
C3773 C3757 1.429 . S
C3773 C3769 1.429 . S
C3773 C3774 1.523 . S
C3774 C3758 1.368 . S
C3774 C3770 1.368 . S
C3774 C3773 1.523 . S
H3775 C3750 0.950 . S
H3776 C3752 0.950 . S
H3777 C3753 0.949 . S
H3778 C3755 0.950 . S
H3779 C3757 0.950 . S
C3780 C3781 1.349 . S
C3780 C3782 1.327 . S
C3780 H3805 0.950 . S
C3781 C3780 1.349 . S
C3781 C3797 1.349 . S
C3782 C3780 1.327 . S
C3782 C3801 1.429 . S
C3782 H3806 0.950 . S
C3783 C3800 1.574 . S
C3783 C3802 1.368 . S
C3783 H3807 0.949 . S
H3784 C3788 0.949 . S
C3785 C3786 1.349 . S
C3785 C3787 1.327 . S
C3785 H3808 0.950 . S
C3786 C3785 1.349 . S
C3786 C3798 1.349 . S
C3787 C3785 1.327 . S
C3787 C3803 1.429 . S
C3787 H3809 0.950 . S
C3788 H3784 0.949 . S
C3788 C3796 1.574 . S
C3788 C3804 1.368 . S
H3789 C3797 0.950 . S
H3790 C3795 0.950 . S
H3791 C3796 0.949 . S
H3792 C3798 0.950 . S
H3793 C3799 0.950 . S
H3794 C3800 0.949 . S
C3795 H3790 0.950 . S
C3795 C3797 1.327 . S
C3795 C3801 1.429 . S
C3796 C3788 1.574 . S
C3796 H3791 0.949 . S
C3796 C3802 1.368 . S
C3797 C3781 1.349 . S
C3797 H3789 0.950 . S
C3797 C3795 1.327 . S
C3798 C3786 1.349 . S
C3798 H3792 0.950 . S
C3798 C3799 1.327 . S
C3799 H3793 0.950 . S
C3799 C3798 1.327 . S
C3799 C3803 1.429 . S
C3800 C3783 1.574 . S
C3800 H3794 0.949 . S
C3800 C3804 1.368 . S
C3801 C3782 1.429 . S
C3801 C3795 1.429 . S
C3801 C3802 1.523 . S
C3802 C3783 1.368 . S
C3802 C3796 1.368 . S
C3802 C3801 1.523 . S
C3803 C3787 1.429 . S
C3803 C3799 1.429 . S
C3803 C3804 1.523 . S
C3804 C3788 1.368 . S
C3804 C3800 1.368 . S
C3804 C3803 1.523 . S
H3805 C3780 0.950 . S
H3806 C3782 0.950 . S
H3807 C3783 0.949 . S
H3808 C3785 0.950 . S
H3809 C3787 0.950 . S
C3810 C3811 1.349 . S
C3810 C3812 1.327 . S
C3810 H3835 0.950 . S
C3811 C3810 1.349 . S
C3811 C3827 1.349 . S
C3812 C3810 1.327 . S
C3812 C3831 1.429 . S
C3812 H3836 0.950 . S
C3813 C3830 1.574 . S
C3813 C3832 1.368 . S
C3813 H3837 0.949 . S
H3814 C3818 0.949 . S
C3815 C3816 1.349 . S
C3815 C3817 1.327 . S
C3815 H3838 0.950 . S
C3816 C3815 1.349 . S
C3816 C3828 1.349 . S
C3817 C3815 1.327 . S
C3817 C3833 1.429 . S
C3817 H3839 0.950 . S
C3818 H3814 0.949 . S
C3818 C3826 1.574 . S
C3818 C3834 1.368 . S
H3819 C3827 0.950 . S
H3820 C3825 0.950 . S
H3821 C3826 0.949 . S
H3822 C3828 0.950 . S
H3823 C3829 0.950 . S
H3824 C3830 0.949 . S
C3825 H3820 0.950 . S
C3825 C3827 1.327 . S
C3825 C3831 1.429 . S
C3826 C3818 1.574 . S
C3826 H3821 0.949 . S
C3826 C3832 1.368 . S
C3827 C3811 1.349 . S
C3827 H3819 0.950 . S
C3827 C3825 1.327 . S
C3828 C3816 1.349 . S
C3828 H3822 0.950 . S
C3828 C3829 1.327 . S
C3829 H3823 0.950 . S
C3829 C3828 1.327 . S
C3829 C3833 1.429 . S
C3830 C3813 1.574 . S
C3830 H3824 0.949 . S
C3830 C3834 1.368 . S
C3831 C3812 1.429 . S
C3831 C3825 1.429 . S
C3831 C3832 1.523 . S
C3832 C3813 1.368 . S
C3832 C3826 1.368 . S
C3832 C3831 1.523 . S
C3833 C3817 1.429 . S
C3833 C3829 1.429 . S
C3833 C3834 1.523 . S
C3834 C3818 1.368 . S
C3834 C3830 1.368 . S
C3834 C3833 1.523 . S
H3835 C3810 0.950 . S
H3836 C3812 0.950 . S
H3837 C3813 0.949 . S
H3838 C3815 0.950 . S
H3839 C3817 0.950 . S
C3840 C3841 1.349 . S
C3840 C3842 1.327 . S
C3840 H3865 0.950 . S
C3841 C3840 1.349 . S
C3841 C3857 1.349 . S
C3842 C3840 1.327 . S
C3842 C3861 1.429 . S
C3842 H3866 0.950 . S
C3843 C3860 1.574 . S
C3843 C3862 1.368 . S
C3843 H3867 0.949 . S
H3844 C3848 0.949 . S
C3845 C3846 1.349 . S
C3845 C3847 1.327 . S
C3845 H3868 0.950 . S
C3846 C3845 1.349 . S
C3846 C3858 1.349 . S
C3847 C3845 1.327 . S
C3847 C3863 1.429 . S
C3847 H3869 0.950 . S
C3848 H3844 0.949 . S
C3848 C3856 1.574 . S
C3848 C3864 1.368 . S
H3849 C3857 0.950 . S
H3850 C3855 0.950 . S
H3851 C3856 0.949 . S
H3852 C3858 0.950 . S
H3853 C3859 0.950 . S
H3854 C3860 0.949 . S
C3855 H3850 0.950 . S
C3855 C3857 1.327 . S
C3855 C3861 1.429 . S
C3856 C3848 1.574 . S
C3856 H3851 0.949 . S
C3856 C3862 1.368 . S
C3857 C3841 1.349 . S
C3857 H3849 0.950 . S
C3857 C3855 1.327 . S
C3858 C3846 1.349 . S
C3858 H3852 0.950 . S
C3858 C3859 1.327 . S
C3859 H3853 0.950 . S
C3859 C3858 1.327 . S
C3859 C3863 1.429 . S
C3860 C3843 1.574 . S
C3860 H3854 0.949 . S
C3860 C3864 1.368 . S
C3861 C3842 1.429 . S
C3861 C3855 1.429 . S
C3861 C3862 1.523 . S
C3862 C3843 1.368 . S
C3862 C3856 1.368 . S
C3862 C3861 1.523 . S
C3863 C3847 1.429 . S
C3863 C3859 1.429 . S
C3863 C3864 1.523 . S
C3864 C3848 1.368 . S
C3864 C3860 1.368 . S
C3864 C3863 1.523 . S
H3865 C3840 0.950 . S
H3866 C3842 0.950 . S
H3867 C3843 0.949 . S
H3868 C3845 0.950 . S
H3869 C3847 0.950 . S
C3870 C3871 1.349 . S
C3870 C3872 1.327 1_655 S
C3870 H3895 0.950 . S
C3871 C3870 1.349 . S
C3871 C3887 1.349 . S
C3872 C3870 1.327 1_455 S
C3872 C3891 1.429 . S
C3872 H3896 0.950 . S
C3873 C3890 1.574 . S
C3873 C3892 1.368 . S
C3873 H3897 0.949 . S
H3874 C3878 0.949 . S
C3875 C3876 1.349 . S
C3875 C3877 1.327 . S
C3875 H3898 0.950 . S
C3876 C3875 1.349 . S
C3876 C3888 1.349 . S
C3877 C3875 1.327 . S
C3877 C3893 1.429 . S
C3877 H3899 0.950 . S
C3878 H3874 0.949 . S
C3878 C3886 1.574 . S
C3878 C3894 1.368 . S
H3879 C3887 0.950 . S
H3880 C3885 0.950 . S
H3881 C3886 0.949 . S
H3882 C3888 0.950 . S
H3883 C3889 0.950 . S
H3884 C3890 0.949 . S
C3885 H3880 0.950 . S
C3885 C3887 1.327 1_455 S
C3885 C3891 1.429 . S
C3886 C3878 1.574 . S
C3886 H3881 0.949 . S
C3886 C3892 1.368 . S
C3887 C3871 1.349 . S
C3887 H3879 0.950 . S
C3887 C3885 1.327 1_655 S
C3888 C3876 1.349 . S
C3888 H3882 0.950 . S
C3888 C3889 1.327 . S
C3889 H3883 0.950 . S
C3889 C3888 1.327 . S
C3889 C3893 1.429 . S
C3890 C3873 1.574 . S
C3890 H3884 0.949 . S
C3890 C3894 1.368 . S
C3891 C3872 1.429 . S
C3891 C3885 1.429 . S
C3891 C3892 1.523 . S
C3892 C3873 1.368 . S
C3892 C3886 1.368 . S
C3892 C3891 1.523 . S
C3893 C3877 1.429 . S
C3893 C3889 1.429 . S
C3893 C3894 1.523 . S
C3894 C3878 1.368 . S
C3894 C3890 1.368 . S
C3894 C3893 1.523 . S
H3895 C3870 0.950 . S
H3896 C3872 0.950 . S
H3897 C3873 0.949 . S
H3898 C3875 0.950 . S
H3899 C3877 0.950 . S
C3900 C3901 1.349 . S
C3900 C3902 1.327 . S
C3900 H3925 0.950 . S
C3901 C3900 1.349 . S
C3901 C3917 1.349 . S
C3902 C3900 1.327 . S
C3902 C3921 1.429 . S
C3902 H3926 0.950 . S
C3903 C3920 1.574 . S
C3903 C3922 1.368 . S
C3903 H3927 0.949 1_565 S
H3904 C3908 0.949 . S
C3905 C3906 1.349 . S
C3905 C3907 1.327 . S
C3905 H3928 0.950 . S
C3906 C3905 1.349 . S
C3906 C3918 1.349 . S
C3907 C3905 1.327 . S
C3907 C3923 1.429 . S
C3907 H3929 0.950 . S
C3908 H3904 0.949 . S
C3908 C3916 1.574 . S
C3908 C3924 1.368 . S
H3909 C3917 0.950 . S
H3910 C3915 0.950 . S
H3911 C3916 0.949 . S
H3912 C3918 0.950 . S
H3913 C3919 0.950 . S
H3914 C3920 0.949 . S
C3915 H3910 0.950 . S
C3915 C3917 1.327 . S
C3915 C3921 1.429 . S
C3916 C3908 1.574 . S
C3916 H3911 0.949 . S
C3916 C3922 1.368 . S
C3917 C3901 1.349 . S
C3917 H3909 0.950 . S
C3917 C3915 1.327 . S
C3918 C3906 1.349 . S
C3918 H3912 0.950 . S
C3918 C3919 1.327 . S
C3919 H3913 0.950 . S
C3919 C3918 1.327 . S
C3919 C3923 1.429 . S
C3920 C3903 1.574 . S
C3920 H3914 0.949 . S
C3920 C3924 1.368 . S
C3921 C3902 1.429 . S
C3921 C3915 1.429 . S
C3921 C3922 1.523 1_545 S
C3922 C3903 1.368 . S
C3922 C3916 1.368 . S
C3922 C3921 1.523 1_565 S
C3923 C3907 1.429 . S
C3923 C3919 1.429 . S
C3923 C3924 1.523 . S
C3924 C3908 1.368 . S
C3924 C3920 1.368 . S
C3924 C3923 1.523 . S
H3925 C3900 0.950 . S
H3926 C3902 0.950 . S
H3927 C3903 0.949 1_545 S
H3928 C3905 0.950 . S
H3929 C3907 0.950 . S
C3930 C3931 1.349 . S
C3930 C3932 1.327 1_655 S
C3930 H3955 0.950 . S
C3931 C3930 1.349 . S
C3931 C3947 1.349 . S
C3932 C3930 1.327 1_455 S
C3932 C3951 1.429 . S
C3932 H3956 0.950 . S
C3933 C3950 1.574 . S
C3933 C3952 1.368 . S
C3933 H3957 0.949 . S
H3934 C3938 0.949 . S
C3935 C3936 1.349 . S
C3935 C3937 1.327 . S
C3935 H3958 0.950 . S
C3936 C3935 1.349 . S
C3936 C3948 1.349 . S
C3937 C3935 1.327 . S
C3937 C3953 1.429 . S
C3937 H3959 0.950 . S
C3938 H3934 0.949 . S
C3938 C3946 1.574 . S
C3938 C3954 1.368 . S
H3939 C3947 0.950 . S
H3940 C3945 0.950 . S
H3941 C3946 0.949 . S
H3942 C3948 0.950 . S
H3943 C3949 0.950 . S
H3944 C3950 0.949 . S
C3945 H3940 0.950 . S
C3945 C3947 1.327 1_455 S
C3945 C3951 1.429 . S
C3946 C3938 1.574 . S
C3946 H3941 0.949 . S
C3946 C3952 1.368 . S
C3947 C3931 1.349 . S
C3947 H3939 0.950 . S
C3947 C3945 1.327 1_655 S
C3948 C3936 1.349 . S
C3948 H3942 0.950 . S
C3948 C3949 1.327 . S
C3949 H3943 0.950 . S
C3949 C3948 1.327 . S
C3949 C3953 1.429 . S
C3950 C3933 1.574 . S
C3950 H3944 0.949 . S
C3950 C3954 1.368 . S
C3951 C3932 1.429 . S
C3951 C3945 1.429 . S
C3951 C3952 1.523 . S
C3952 C3933 1.368 . S
C3952 C3946 1.368 . S
C3952 C3951 1.523 . S
C3953 C3937 1.429 . S
C3953 C3949 1.429 . S
C3953 C3954 1.523 1_545 S
C3954 C3938 1.368 . S
C3954 C3950 1.368 . S
C3954 C3953 1.523 1_565 S
H3955 C3930 0.950 . S
H3956 C3932 0.950 . S
H3957 C3933 0.949 . S
H3958 C3935 0.950 . S
H3959 C3937 0.950 . S
C721 C549 1.804 . S
C726 C9 1.804 . S
C751 C569 1.804 . S
C756 C29 1.804 1_655 S
C781 C49 1.804 . S
C786 C589 1.804 . S
C811 C69 1.804 . S
C816 C249 1.804 . S
C841 C89 1.804 . S
C846 C269 1.804 . S
C871 C289 1.804 . S
C876 C109 1.804 1_565 S
C901 C121 1.804 1_565 S
C906 C421 1.804 . S
C931 C441 1.803 . S
C936 C141 1.803 . S
C961 C161 1.805 . S
C966 C461 1.805 . S
C991 C601 1.804 . S
C996 C181 1.804 1_655 S
C1021 C201 1.805 . S
C1026 C621 1.805 . S
C1051 C641 1.803 . S
C1056 C221 1.803 . S
C1081 C489 1.804 . S
C1086 C309 1.804 . S
C1111 C329 1.804 . S
C1116 C509 1.804 . S
C1141 C529 1.804 . S
C1146 C349 1.804 . S
C1171 C361 1.804 . S
C1176 C661 1.804 . S
C1201 C381 1.804 . S
C1206 C681 1.804 . S
C1231 C701 1.804 . S
C1236 C401 1.804 . S
C1261 C1 1.691 . S
C1266 C129 1.691 . S
C1291 C149 1.690 . S
C1296 C21 1.690 . S
C1321 C41 1.691 . S
C1326 C169 1.691 . S
C1351 C189 1.691 . S
C1356 C61 1.691 . S
C1381 C81 1.691 . S
C1386 C209 1.691 . S
C1411 C229 1.690 . S
C1416 C101 1.690 . S
C1441 C369 1.691 . S
C1446 C241 1.691 . S
C1471 C261 1.691 . S
C1476 C389 1.691 . S
C1501 C409 1.691 . S
C1506 C281 1.691 . S
C1531 C301 1.691 . S
C1536 C429 1.691 . S
C1561 C449 1.691 . S
C1566 C321 1.691 . S
C1591 C341 1.691 . S
C1596 C469 1.691 . S
C1621 C481 1.691 . S
C1626 C609 1.691 . S
C1651 C629 1.691 . S
C1656 C501 1.691 . S
C1681 C649 1.691 . S
C1686 C521 1.691 . S
C1711 C669 1.691 . S
C1716 C541 1.691 . S
C1741 C561 1.690 . S
C1746 C689 1.690 . S
C1771 C581 1.691 . S
C1776 C709 1.691 . S
C1801 C19 1.819 . S
C1806 C46 1.895 . S
C1831 C39 1.819 . S
C1836 C6 1.894 . S
C1861 C26 1.895 . S
C1866 C59 1.819 . S
C1891 C79 1.819 . S
C1896 C86 1.895 . S
C1921 C106 1.895 . S
C1926 C99 1.819 . S
C1951 C66 1.894 . S
C1956 C119 1.819 . S
C1981 C176 1.895 . S
C1986 C128 1.819 . S
C2011 C148 1.820 . S
C2016 C136 1.895 . S
C2041 C168 1.820 . S
C2046 C156 1.895 . S
C2071 C216 1.895 . S
C2076 C188 1.819 . S
C2101 C208 1.820 . S
C2106 C236 1.895 . S
C2131 C228 1.820 . S
C2136 C196 1.895 . S
C2161 C286 1.895 1_545 S
C2166 C259 1.819 . S
C2191 C246 1.895 . S
C2196 C279 1.819 . S
C2221 C266 1.895 . S
C2226 C299 1.819 . S
C2251 C326 1.895 . S
C2256 C319 1.819 . S
C2281 C339 1.819 . S
C2286 C346 1.894 . S
C2311 C306 1.894 . S
C2316 C359 1.819 . S
C2341 C368 1.819 . S
C2346 C416 1.894 . S
C2371 C376 1.895 . S
C2376 C388 1.819 . S
C2401 C408 1.819 . S
C2406 C396 1.895 . S
C2431 C456 1.894 . S
C2436 C428 1.819 . S
C2461 C476 1.895 . S
C2466 C448 1.819 . S
C2491 C436 1.895 1_545 S
C2496 C468 1.819 . S
C2521 C526 1.895 . S
C2526 C499 1.819 . S
C2551 C519 1.819 . S
C2556 C486 1.894 . S
C2581 C506 1.894 . S
C2586 C539 1.819 . S
C2611 C559 1.819 . S
C2616 C566 1.895 1_455 S
C2641 C579 1.819 . S
C2646 C586 1.895 . S
C2671 C546 1.895 . S
C2676 C599 1.819 . S
C2701 C608 1.819 . S
C2706 C656 1.894 . S
C2731 C628 1.819 . S
C2736 C616 1.895 1_455 S
C2761 C636 1.895 . S
C2766 C648 1.819 . S
C2791 C668 1.819 . S
C2796 C696 1.894 . S
C2821 C716 1.895 . S
C2826 C688 1.819 . S
C2851 C676 1.895 . S
C2856 C708 1.819 . S
C2881 C56 1.079 . S
C2886 C8 1.086 . S
C2911 C28 1.086 . S
C2916 C16 1.079 . S
C2941 C36 1.079 . S
C2946 C48 1.086 . S
C2971 C96 1.079 . S
C2976 C68 1.086 . S
C3001 C88 1.086 . S
C3006 C116 1.079 . S
C3031 C108 1.086 . S
C3036 C76 1.079 . S
C3061 C166 1.079 . S
C3066 C139 1.086 . S
C3091 C159 1.086 . S
C3096 C126 1.078 . S
C3121 C146 1.079 . S
C3126 C179 1.086 . S
C3151 C206 1.079 . S
C3156 C199 1.086 . S
C3181 C226 1.079 . S
C3186 C219 1.086 . S
C3211 C186 1.078 . S
C3216 C239 1.086 . S
C3241 C248 1.086 . S
C3246 C296 1.079 . S
C3271 C268 1.086 . S
C3276 C256 1.079 . S
C3301 C288 1.087 . S
C3306 C276 1.079 . S
C3331 C336 1.079 . S
C3336 C308 1.086 . S
C3361 C328 1.087 . S
C3366 C356 1.080 . S
C3391 C348 1.087 . S
C3396 C316 1.079 . S
C3421 C406 1.080 . S
C3426 C379 1.087 . S
C3451 C366 1.079 . S
C3456 C399 1.086 . S
C3481 C419 1.087 . S
C3486 C386 1.079 . S
C3511 C446 1.079 . S
C3516 C439 1.087 . S
C3541 C459 1.086 . S
C3546 C466 1.079 . S
C3571 C479 1.086 . S
C3576 C426 1.079 . S
C3601 C488 1.087 . S
C3606 C536 1.079 . S
C3631 C496 1.079 . S
C3636 C508 1.087 . S
C3661 C516 1.080 . S
C3666 C528 1.087 . S
C3691 C576 1.079 . S
C3696 C548 1.086 . S
C3721 C568 1.087 . S
C3726 C596 1.079 . S
C3751 C588 1.086 . S
C3756 C556 1.079 . S
C3781 C646 1.079 . S
C3786 C619 1.087 . S
C3811 C606 1.079 . S
C3816 C639 1.086 . S
C3841 C659 1.086 . S
C3846 C626 1.079 . S
C3871 C686 1.080 . S
C3876 C679 1.087 . S
C3901 C699 1.087 . S
C3906 C706 1.079 . S
C3931 C719 1.086 . S
C3936 C666 1.079 . S
