# Generated by pormake.
# Topology ukj, (4)-cn, num edge types: 1
# Building blocks:
#     Node 0, Type 0, BuildingBlock: CEKHIL_clean_sbu_0, # of connection points: 4
#     Node 1, Type 0, BuildingBlock: CEKHIL_clean_sbu_0, # of connection points: 4
#     Node 2, Type 0, BuildingBlock: CEKHIL_clean_sbu_0, # of connection points: 4
#     Node 3, Type 0, BuildingBlock: CEKHIL_clean_sbu_0, # of connection points: 4
#     Node 4, Type 0, BuildingBlock: CEKHIL_clean_sbu_0, # of connection points: 4
#     Node 5, Type 0, BuildingBlock: CEKHIL_clean_sbu_0, # of connection points: 4
#     Node 6, Type 0, BuildingBlock: CEKHIL_clean_sbu_0, # of connection points: 4
#     Node 7, Type 0, BuildingBlock: CEKHIL_clean_sbu_0, # of connection points: 4
#     Node 8, Type 0, BuildingBlock: CEKHIL_clean_sbu_0, # of connection points: 4
#     Node 9, Type 0, BuildingBlock: CEKHIL_clean_sbu_0, # of connection points: 4
#     Node 10, Type 0, BuildingBlock: CEKHIL_clean_sbu_0, # of connection points: 4
#     Node 11, Type 0, BuildingBlock: CEKHIL_clean_sbu_0, # of connection points: 4
#     Node 12, Type 0, BuildingBlock: CEKHIL_clean_sbu_0, # of connection points: 4
#     Node 13, Type 0, BuildingBlock: CEKHIL_clean_sbu_0, # of connection points: 4
#     Node 14, Type 0, BuildingBlock: CEKHIL_clean_sbu_0, # of connection points: 4
#     Node 15, Type 0, BuildingBlock: CEKHIL_clean_sbu_0, # of connection points: 4
#     Node 16, Type 0, BuildingBlock: CEKHIL_clean_sbu_0, # of connection points: 4
#     Node 17, Type 0, BuildingBlock: CEKHIL_clean_sbu_0, # of connection points: 4
#     Node 18, Type 0, BuildingBlock: CEKHIL_clean_sbu_0, # of connection points: 4
#     Node 19, Type 0, BuildingBlock: CEKHIL_clean_sbu_0, # of connection points: 4
#     Node 20, Type 0, BuildingBlock: CEKHIL_clean_sbu_0, # of connection points: 4
#     Node 21, Type 0, BuildingBlock: CEKHIL_clean_sbu_0, # of connection points: 4
#     Node 22, Type 0, BuildingBlock: CEKHIL_clean_sbu_0, # of connection points: 4
#     Node 23, Type 0, BuildingBlock: CEKHIL_clean_sbu_0, # of connection points: 4
#     Node 24, Type 0, BuildingBlock: CEKHIL_clean_sbu_0, # of connection points: 4
#     Node 25, Type 0, BuildingBlock: CEKHIL_clean_sbu_0, # of connection points: 4
#     Node 26, Type 0, BuildingBlock: CEKHIL_clean_sbu_0, # of connection points: 4
#     Node 27, Type 0, BuildingBlock: CEKHIL_clean_sbu_0, # of connection points: 4
#     Node 28, Type 0, BuildingBlock: CEKHIL_clean_sbu_0, # of connection points: 4
#     Node 29, Type 0, BuildingBlock: CEKHIL_clean_sbu_0, # of connection points: 4
#     Node 30, Type 0, BuildingBlock: CEKHIL_clean_sbu_0, # of connection points: 4
#     Node 31, Type 0, BuildingBlock: CEKHIL_clean_sbu_0, # of connection points: 4
#     Edge 32, Type (0, 0), BuildingBlock: OJICUG_clean_linker_0, # of connection points: 2
#     Edge 33, Type (0, 0), BuildingBlock: OJICUG_clean_linker_0, # of connection points: 2
#     Edge 34, Type (0, 0), BuildingBlock: OJICUG_clean_linker_0, # of connection points: 2
#     Edge 35, Type (0, 0), BuildingBlock: OJICUG_clean_linker_0, # of connection points: 2
#     Edge 36, Type (0, 0), BuildingBlock: OJICUG_clean_linker_0, # of connection points: 2
#     Edge 37, Type (0, 0), BuildingBlock: OJICUG_clean_linker_0, # of connection points: 2
#     Edge 38, Type (0, 0), BuildingBlock: OJICUG_clean_linker_0, # of connection points: 2
#     Edge 39, Type (0, 0), BuildingBlock: OJICUG_clean_linker_0, # of connection points: 2
#     Edge 40, Type (0, 0), BuildingBlock: OJICUG_clean_linker_0, # of connection points: 2
#     Edge 41, Type (0, 0), BuildingBlock: OJICUG_clean_linker_0, # of connection points: 2
#     Edge 42, Type (0, 0), BuildingBlock: OJICUG_clean_linker_0, # of connection points: 2
#     Edge 43, Type (0, 0), BuildingBlock: OJICUG_clean_linker_0, # of connection points: 2
#     Edge 44, Type (0, 0), BuildingBlock: OJICUG_clean_linker_0, # of connection points: 2
#     Edge 45, Type (0, 0), BuildingBlock: OJICUG_clean_linker_0, # of connection points: 2
#     Edge 46, Type (0, 0), BuildingBlock: OJICUG_clean_linker_0, # of connection points: 2
#     Edge 47, Type (0, 0), BuildingBlock: OJICUG_clean_linker_0, # of connection points: 2
#     Edge 48, Type (0, 0), BuildingBlock: OJICUG_clean_linker_0, # of connection points: 2
#     Edge 49, Type (0, 0), BuildingBlock: OJICUG_clean_linker_0, # of connection points: 2
#     Edge 50, Type (0, 0), BuildingBlock: OJICUG_clean_linker_0, # of connection points: 2
#     Edge 51, Type (0, 0), BuildingBlock: OJICUG_clean_linker_0, # of connection points: 2
#     Edge 52, Type (0, 0), BuildingBlock: OJICUG_clean_linker_0, # of connection points: 2
#     Edge 53, Type (0, 0), BuildingBlock: OJICUG_clean_linker_0, # of connection points: 2
#     Edge 54, Type (0, 0), BuildingBlock: OJICUG_clean_linker_0, # of connection points: 2
#     Edge 55, Type (0, 0), BuildingBlock: OJICUG_clean_linker_0, # of connection points: 2
#     Edge 56, Type (0, 0), BuildingBlock: OJICUG_clean_linker_0, # of connection points: 2
#     Edge 57, Type (0, 0), BuildingBlock: OJICUG_clean_linker_0, # of connection points: 2
#     Edge 58, Type (0, 0), BuildingBlock: OJICUG_clean_linker_0, # of connection points: 2
#     Edge 59, Type (0, 0), BuildingBlock: OJICUG_clean_linker_0, # of connection points: 2
#     Edge 60, Type (0, 0), BuildingBlock: OJICUG_clean_linker_0, # of connection points: 2
#     Edge 61, Type (0, 0), BuildingBlock: OJICUG_clean_linker_0, # of connection points: 2
#     Edge 62, Type (0, 0), BuildingBlock: OJICUG_clean_linker_0, # of connection points: 2
#     Edge 63, Type (0, 0), BuildingBlock: OJICUG_clean_linker_0, # of connection points: 2
#     Edge 64, Type (0, 0), BuildingBlock: OJICUG_clean_linker_0, # of connection points: 2
#     Edge 65, Type (0, 0), BuildingBlock: OJICUG_clean_linker_0, # of connection points: 2
#     Edge 66, Type (0, 0), BuildingBlock: OJICUG_clean_linker_0, # of connection points: 2
#     Edge 67, Type (0, 0), BuildingBlock: OJICUG_clean_linker_0, # of connection points: 2
#     Edge 68, Type (0, 0), BuildingBlock: OJICUG_clean_linker_0, # of connection points: 2
#     Edge 69, Type (0, 0), BuildingBlock: OJICUG_clean_linker_0, # of connection points: 2
#     Edge 70, Type (0, 0), BuildingBlock: OJICUG_clean_linker_0, # of connection points: 2
#     Edge 71, Type (0, 0), BuildingBlock: OJICUG_clean_linker_0, # of connection points: 2
#     Edge 72, Type (0, 0), BuildingBlock: OJICUG_clean_linker_0, # of connection points: 2
#     Edge 73, Type (0, 0), BuildingBlock: OJICUG_clean_linker_0, # of connection points: 2
#     Edge 74, Type (0, 0), BuildingBlock: OJICUG_clean_linker_0, # of connection points: 2
#     Edge 75, Type (0, 0), BuildingBlock: OJICUG_clean_linker_0, # of connection points: 2
#     Edge 76, Type (0, 0), BuildingBlock: OJICUG_clean_linker_0, # of connection points: 2
#     Edge 77, Type (0, 0), BuildingBlock: OJICUG_clean_linker_0, # of connection points: 2
#     Edge 78, Type (0, 0), BuildingBlock: OJICUG_clean_linker_0, # of connection points: 2
#     Edge 79, Type (0, 0), BuildingBlock: OJICUG_clean_linker_0, # of connection points: 2
#     Edge 80, Type (0, 0), BuildingBlock: OJICUG_clean_linker_0, # of connection points: 2
#     Edge 81, Type (0, 0), BuildingBlock: OJICUG_clean_linker_0, # of connection points: 2
#     Edge 82, Type (0, 0), BuildingBlock: OJICUG_clean_linker_0, # of connection points: 2
#     Edge 83, Type (0, 0), BuildingBlock: OJICUG_clean_linker_0, # of connection points: 2
#     Edge 84, Type (0, 0), BuildingBlock: OJICUG_clean_linker_0, # of connection points: 2
#     Edge 85, Type (0, 0), BuildingBlock: OJICUG_clean_linker_0, # of connection points: 2
#     Edge 86, Type (0, 0), BuildingBlock: OJICUG_clean_linker_0, # of connection points: 2
#     Edge 87, Type (0, 0), BuildingBlock: OJICUG_clean_linker_0, # of connection points: 2
#     Edge 88, Type (0, 0), BuildingBlock: OJICUG_clean_linker_0, # of connection points: 2
#     Edge 89, Type (0, 0), BuildingBlock: OJICUG_clean_linker_0, # of connection points: 2
#     Edge 90, Type (0, 0), BuildingBlock: OJICUG_clean_linker_0, # of connection points: 2
#     Edge 91, Type (0, 0), BuildingBlock: OJICUG_clean_linker_0, # of connection points: 2
#     Edge 92, Type (0, 0), BuildingBlock: OJICUG_clean_linker_0, # of connection points: 2
#     Edge 93, Type (0, 0), BuildingBlock: OJICUG_clean_linker_0, # of connection points: 2
#     Edge 94, Type (0, 0), BuildingBlock: OJICUG_clean_linker_0, # of connection points: 2
#     Edge 95, Type (0, 0), BuildingBlock: OJICUG_clean_linker_0, # of connection points: 2
# Relax obj value: 0.079
# Max RMSD: 0.171
# Mean RMSD: 0.171
data_MOF--net-ukj--node1-CEKHIL_clean_sbu_0--edge1-OJICUG_clean_linker_0
_symmetry_space_group_name_H-M    P1
_symmetry_Int_Tables_number       1
_symmetry_cell_setting            triclinic
loop_
_symmetry_equiv_pos_as_xyz
'x, y, z'
_cell_length_a     22.698596
_cell_length_b     46.96718
_cell_length_c     40.592434
_cell_angle_alpha  89.996216
_cell_angle_beta   89.999918
_cell_angle_gamma 90.010339
loop_
_atom_site_label
_atom_site_type_symbol
_atom_site_fract_x
_atom_site_fract_y
_atom_site_fract_z
_atom_type_partial_charge
Co0 Co 0.13623 0.33947 0.24854 0.0
O1 O 0.05813 0.32409 0.2484 0.0
O2 O 0.13673 0.30021 0.23243 0.0
C3 C 0.1304 0.35566 0.30018 0.0
O4 O 0.22418 0.35068 0.24735 0.0
Co5 Co 0.14372 0.40476 0.25364 0.0
O6 O 0.22836 0.39736 0.2604 0.0
C7 C 0.12425 0.37917 0.1887 0.0
C8 C 0.08022 0.30029 0.23858 0.0
C9 C 0.25342 0.37376 0.25389 0.0
O10 O 0.12558 0.35461 0.20262 0.0
O11 O 0.12764 0.40249 0.2049 0.0
O12 O 0.14465 0.32954 0.29421 0.0
O13 O 0.11385 0.37065 0.27491 0.0
Co14 Co 0.1265 0.91069 0.24728 0.0
O15 O 0.20475 0.92591 0.2466 0.0
O16 O 0.12593 0.95007 0.23155 0.0
C17 C 0.13343 0.89415 0.29874 0.0
O18 O 0.03842 0.89967 0.24676 0.0
Co19 Co 0.11872 0.84533 0.25196 0.0
O20 O 0.03436 0.85292 0.25951 0.0
C21 C 0.13607 0.87133 0.187 0.0
C22 C 0.18258 0.94984 0.23727 0.0
C23 C 0.00925 0.87658 0.25337 0.0
O24 O 0.1356 0.89581 0.20112 0.0
O25 O 0.13303 0.84792 0.20307 0.0
O26 O 0.11946 0.92036 0.2931 0.0
O27 O 0.1492 0.87929 0.27322 0.0
Co28 Co 0.13264 0.91126 0.98424 0.0
O29 O 0.05437 0.92646 0.98457 0.0
O30 O 0.13291 0.95052 0.00032 0.0
C31 C 0.12677 0.89497 0.93263 0.0
O32 O 0.22071 0.90025 0.98524 0.0
Co33 Co 0.14052 0.8459 0.97916 0.0
O34 O 0.22505 0.85354 0.97227 0.0
C35 C 0.12207 0.87158 0.04419 0.0
C36 C 0.07636 0.95031 -0.00569 0.0
C37 C 0.25001 0.87718 0.97872 0.0
O38 O 0.12266 0.89613 0.03022 0.0
O39 O 0.1255 0.84825 0.028 0.0
O40 O 0.14054 0.92117 0.9385 0.0
O41 O 0.11053 0.87999 0.95797 0.0
Co42 Co 0.12275 0.33999 0.98565 0.0
O43 O 0.20083 0.32461 0.98617 0.0
O44 O 0.12193 0.30062 0.00147 0.0
C45 C 0.12968 0.3564 0.93413 0.0
O46 O 0.03479 0.3512 0.98632 0.0
Co47 Co 0.1155 0.40528 0.9809 0.0
O48 O 0.031 0.39793 0.97349 0.0
C49 C 0.13374 0.37941 0.0458 0.0
C50 C 0.17856 0.30074 -0.00436 0.0
C51 C 1.00575 0.37432 0.97969 0.0
O52 O 0.1325 0.35491 0.03173 0.0
O53 O 0.13082 0.4028 0.0297 0.0
O54 O 0.11522 0.33027 0.93989 0.0
O55 O 0.14575 0.37129 0.95959 0.0
Co56 Co 0.87833 0.66058 0.73588 0.0
O57 O 0.95668 0.6757 0.73653 0.0
O58 O 0.87802 0.69995 0.75165 0.0
C59 C 0.88501 0.64409 0.68438 0.0
O60 O 0.79019 0.64966 0.73643 0.0
Co61 Co 0.87026 0.59523 0.73114 0.0
O62 O 0.78593 0.60292 0.72365 0.0
C63 C 0.88758 0.62117 0.79613 0.0
C64 C 0.93467 0.69965 0.7459 0.0
C65 C 0.76092 0.6266 0.72982 0.0
O66 O 0.88739 0.64566 0.78201 0.0
O67 O 0.88438 0.59777 0.78006 0.0
O68 O 0.87126 0.67031 0.69007 0.0
O69 O 0.90078 0.62917 0.70987 0.0
Co70 Co 0.88796 0.08956 0.7349 0.0
O71 O 0.80992 0.07411 0.73525 0.0
O72 O 0.88876 0.05027 0.75094 0.0
C73 C 0.88156 0.10581 0.68331 0.0
O74 O 0.97588 0.10082 0.73582 0.0
Co75 Co 0.89521 0.15486 0.72985 0.0
O76 O 0.97981 0.14751 0.7228 0.0
C77 C 0.87621 0.12919 0.79481 0.0
C78 C 0.8322 0.05031 0.74494 0.0
C79 C 1.00499 0.12392 0.7292 0.0
O80 O 0.8777 0.10464 0.78087 0.0
O81 O 0.87928 0.15253 0.77861 0.0
O82 O 0.89595 0.07969 0.68919 0.0
O83 O 0.86523 0.12075 0.70866 0.0
Co84 Co 0.87279 0.09 -0.00222 0.0
O85 O 0.95088 0.07462 -0.00249 0.0
O86 O 0.87217 0.05068 0.98183 0.0
C87 C 0.87906 0.10634 0.04934 0.0
O88 O 0.78483 0.10121 -0.00321 0.0
Co89 Co 0.86545 0.15528 0.00257 0.0
O90 O 0.78087 0.14792 0.00967 0.0
C91 C 0.8846 0.12949 0.93773 0.0
C92 C 0.92873 0.05079 0.98783 0.0
C93 C 0.7557 0.12431 0.00335 0.0
O94 O 0.88312 0.10499 0.95177 0.0
O95 O 0.88143 0.15287 0.95383 0.0
O96 O 0.86471 0.08021 0.04349 0.0
O97 O 0.89544 0.12126 0.02397 0.0
Co98 Co 0.8824 0.66112 -0.00114 0.0
O99 O 0.80414 0.67634 -0.00155 0.0
O100 O 0.88276 0.7004 0.98282 0.0
C101 C 0.87628 0.64483 0.05047 0.0
O102 O 0.97046 0.65012 -0.00205 0.0
Co103 Co 0.89035 0.59578 0.00398 0.0
O104 O 0.97486 0.60342 0.01093 0.0
C105 C 0.87228 0.62145 0.9389 0.0
C106 C 0.82619 0.7002 0.98878 0.0
C107 C 0.9998 0.62707 0.00448 0.0
O108 O 0.87262 0.64601 0.95286 0.0
O109 O 0.87571 0.59813 0.9551 0.0
O110 O 0.89013 0.67102 0.0446 0.0
O111 O 0.86015 0.62984 0.02511 0.0
Co112 Co 0.13853 0.83928 0.74744 0.0
O113 O 0.06037 0.82395 0.74709 0.0
O114 O 0.13911 0.79981 0.73193 0.0
C115 C 0.13177 0.85598 0.79887 0.0
O116 O 0.22654 0.85041 0.74661 0.0
Co117 Co 0.14605 0.90459 0.75178 0.0
O118 O 0.23054 0.89721 0.75913 0.0
C119 C 0.12756 0.87841 0.68704 0.0
C120 C 0.08251 0.80001 0.7378 0.0
C121 C 0.25569 0.87355 0.75306 0.0
O122 O 0.12874 0.85396 0.70123 0.0
O123 O 0.1306 0.90186 0.70301 0.0
O124 O 0.14612 0.8298 0.79329 0.0
O125 O 0.11572 0.87072 0.77331 0.0
Co126 Co 0.12839 0.41066 0.74843 0.0
O127 O 0.20662 0.42591 0.748 0.0
O128 O 0.12801 0.44985 0.73212 0.0
C129 C 0.13434 0.3946 0.8001 0.0
O130 O 0.04035 0.39962 0.74751 0.0
Co131 Co 0.12049 0.34535 0.75383 0.0
O132 O 0.03597 0.35298 0.76076 0.0
C133 C 0.13902 0.37076 0.68869 0.0
C134 C 0.18457 0.4497 0.73813 0.0
C135 C 0.01102 0.37659 0.75419 0.0
O136 O 0.13838 0.39535 0.70255 0.0
O137 O 0.13558 0.34748 0.70497 0.0
O138 O 0.1205 0.42077 0.79408 0.0
O139 O 0.15058 0.3795 0.77486 0.0
Co140 Co 0.13597 0.41005 0.48584 0.0
O141 O 0.05771 0.42524 0.48645 0.0
O142 O 0.13639 0.44933 0.50188 0.0
C143 C 0.12944 0.39379 0.43427 0.0
O144 O 0.22406 0.39904 0.48648 0.0
Co145 Co 0.14379 0.34474 0.48085 0.0
O146 O 0.22821 0.35235 0.4735 0.0
C147 C 0.12591 0.37042 0.54588 0.0
C148 C 0.07977 0.44911 0.49606 0.0
C149 C 0.25327 0.37599 0.4798 0.0
O150 O 0.1265 0.39494 0.53185 0.0
O151 O 0.12913 0.34707 0.52973 0.0
O152 O 0.14337 0.41997 0.44013 0.0
O153 O 0.11345 0.37877 0.45964 0.0
Co154 Co 0.12591 0.83861 0.48403 0.0
O155 O 0.20401 0.82322 0.48426 0.0
O156 O 0.12528 0.79924 0.49985 0.0
C157 C 0.1322 0.85507 0.43249 0.0
O158 O 0.03795 0.84981 0.48507 0.0
Co159 Co 0.11853 0.90394 0.47924 0.0
O160 O 0.03393 0.89654 0.47227 0.0
C161 C 0.13747 0.87804 0.54412 0.0
C162 C 0.18184 0.79937 0.49383 0.0
C163 C 0.00879 0.87292 0.47861 0.0
O164 O 0.13616 0.85352 0.5301 0.0
O165 O 0.13432 0.90142 0.52799 0.0
O166 O 0.11789 0.82892 0.43824 0.0
O167 O 0.14851 0.86992 0.45792 0.0
Co168 Co 0.87674 0.16061 0.23507 0.0
O169 O 0.95495 0.17588 0.23535 0.0
O170 O 0.8764 0.19983 0.25127 0.0
C171 C 0.8825 0.14448 0.18341 0.0
O172 O 0.78871 0.14953 0.2361 0.0
Co173 Co 0.86896 0.0953 0.22986 0.0
O174 O 0.78441 0.10287 0.22296 0.0
C175 C 0.8879 0.12082 0.29489 0.0
C176 C 0.93293 0.19969 0.24519 0.0
C177 C 0.75942 0.12648 0.22948 0.0
O178 O 0.887 0.14538 0.28097 0.0
O179 O 0.88444 0.09751 0.27867 0.0
O180 O 0.86861 0.17064 0.18941 0.0
O181 O 0.8989 0.12942 0.20866 0.0
Co182 Co 0.88684 0.58927 0.23571 0.0
O183 O 0.80865 0.57398 0.23617 0.0
O184 O 0.88743 0.54983 0.25128 0.0
C185 C 0.87999 0.60591 0.18427 0.0
O186 O 0.97488 0.60035 0.23642 0.0
Co187 Co 0.8945 0.65459 0.23125 0.0
O188 O 0.97894 0.64713 0.22383 0.0
C189 C 0.87632 0.62847 0.29606 0.0
C190 C 0.83081 0.55004 0.24546 0.0
C191 C 1.00405 0.62346 0.22992 0.0
O192 O 0.87729 0.60401 0.2819 0.0
O193 O 0.87937 0.65191 0.28005 0.0
O194 O 0.89425 0.57973 0.18987 0.0
O195 O 0.86404 0.6207 0.20981 0.0
Co196 Co 0.87592 0.58871 0.49902 0.0
O197 O 0.95408 0.57339 0.49881 0.0
O198 O 0.87545 0.54936 0.48318 0.0
C199 C 0.88216 0.60515 0.55058 0.0
O200 O 0.78793 0.59985 0.49795 0.0
Co201 Co 0.8683 0.65403 0.50386 0.0
O202 O 0.78369 0.64658 0.51073 0.0
C203 C 0.88724 0.62819 0.43896 0.0
C204 C 0.932 0.54953 0.4892 0.0
C205 C 0.75866 0.62294 0.50436 0.0
O206 O 0.88615 0.60366 0.45297 0.0
O207 O 0.88394 0.65155 0.45509 0.0
O208 O 0.86788 0.579 0.54481 0.0
O209 O 0.89843 0.62002 0.52516 0.0
Co210 Co 0.88637 0.16037 0.49773 0.0
O211 O 0.80817 0.17563 0.49711 0.0
O212 O 0.88695 0.19965 0.48167 0.0
C213 C 0.87975 0.14412 0.5493 0.0
O214 O 0.9744 0.14929 0.49711 0.0
Co215 Co 0.89395 0.09505 0.50277 0.0
O216 O 0.97838 0.1026 0.51015 0.0
C217 C 0.87602 0.12072 0.43774 0.0
C218 C 0.83032 0.19948 0.48748 0.0
C219 C 1.00353 0.12622 0.50383 0.0
O220 O 0.87684 0.14526 0.45173 0.0
O221 O 0.87909 0.09737 0.45391 0.0
O222 O 0.89377 0.17029 0.54345 0.0
O223 O 0.86374 0.12912 0.52393 0.0
Co224 Co 0.63768 0.33976 0.74731 0.0
O225 O 0.55954 0.32442 0.74676 0.0
O226 O 0.63843 0.30034 0.73167 0.0
C227 C 0.63062 0.35632 0.79876 0.0
O228 O 0.72569 0.35089 0.74668 0.0
Co229 Co 0.64525 0.40506 0.75188 0.0
O230 O 0.7297 0.39765 0.75934 0.0
C231 C 0.62725 0.37903 0.68702 0.0
C232 C 0.5818 0.30051 0.73745 0.0
C233 C 0.75484 0.37399 0.75323 0.0
O234 O 0.62821 0.35456 0.70115 0.0
O235 O 0.63024 0.40245 0.70306 0.0
O236 O 0.64499 0.33016 0.79313 0.0
O237 O 0.61472 0.37114 0.77323 0.0
Co238 Co 0.62918 0.91049 0.74846 0.0
O239 O 0.70738 0.92579 0.74812 0.0
O240 O 0.62876 0.94969 0.73219 0.0
C241 C 0.63501 0.89444 0.80015 0.0
O242 O 0.54116 0.89938 0.74745 0.0
Co243 Co 0.62145 0.84519 0.75383 0.0
O244 O 0.53689 0.85274 0.76068 0.0
C245 C 0.63999 0.87063 0.68871 0.0
C246 C 0.6853 0.94958 0.73825 0.0
C247 C 0.51188 0.87634 0.75409 0.0
O248 O 0.63938 0.89521 0.70259 0.0
O249 O 0.63648 0.84734 0.70497 0.0
O250 O 0.62109 0.92059 0.7941 0.0
O251 O 0.6514 0.87935 0.77493 0.0
Co252 Co 0.63552 0.91002 0.48585 0.0
O253 O 0.55734 0.92532 0.48665 0.0
O254 O 0.63629 0.94933 0.50181 0.0
C255 C 0.62843 0.89375 0.4343 0.0
O256 O 0.72355 0.89892 0.48626 0.0
Co257 Co 0.643 0.8447 0.48084 0.0
O258 O 0.72739 0.85222 0.47326 0.0
C259 C 0.62591 0.87044 0.54592 0.0
C260 C 0.57963 0.94918 0.49612 0.0
C261 C 0.75261 0.87583 0.47951 0.0
O262 O 0.6264 0.89496 0.5319 0.0
O263 O 0.62887 0.84707 0.52977 0.0
O264 O 0.64255 0.91991 0.44011 0.0
O265 O 0.61261 0.87876 0.45973 0.0
Co266 Co 0.62674 0.33914 0.4842 0.0
O267 O 0.7049 0.32382 0.48441 0.0
O268 O 0.62629 0.29984 0.50021 0.0
C269 C 0.63277 0.35544 0.43259 0.0
O270 O 0.53875 0.35027 0.4853 0.0
Co271 Co 0.6191 0.40445 0.47918 0.0
O272 O 0.53448 0.39698 0.47238 0.0
C273 C 0.63819 0.37875 0.54414 0.0
C274 C 0.68283 0.29999 0.49415 0.0
C275 C 0.50947 0.37335 0.47882 0.0
O276 O 0.63709 0.3542 0.53018 0.0
O277 O 0.63482 0.40209 0.52795 0.0
O278 O 0.61858 0.32929 0.43847 0.0
O279 O 0.64913 0.37039 0.45793 0.0
Co280 Co 0.37751 0.6603 0.23454 0.0
O281 O 0.45567 0.67563 0.23493 0.0
O282 O 0.37699 0.69947 0.2509 0.0
C283 C 0.38343 0.64432 0.18284 0.0
O284 O 0.28951 0.64918 0.23551 0.0
Co285 Co 0.3698 0.59501 0.22906 0.0
O286 O 0.28523 0.60255 0.22222 0.0
C287 C 0.38842 0.62035 0.29422 0.0
C288 C 0.43353 0.69939 0.24485 0.0
C289 C 0.26023 0.62614 0.22883 0.0
O290 O 0.3877 0.64495 0.28037 0.0
O291 O 0.38496 0.59708 0.27792 0.0
O292 O 0.36944 0.67046 0.18892 0.0
O293 O 0.3998 0.6292 0.20804 0.0
Co294 Co 0.38601 0.08957 0.2354 0.0
O295 O 0.30785 0.07424 0.23577 0.0
O296 O 0.38661 0.05017 0.25108 0.0
C297 C 0.37937 0.10612 0.18391 0.0
O298 O 0.47402 0.1007 0.23625 0.0
Co299 Co 0.39363 0.15487 0.23081 0.0
O300 O 0.47814 0.14746 0.22359 0.0
C301 C 0.37535 0.12886 0.29566 0.0
C302 C 0.33001 0.05034 0.24518 0.0
C303 C 0.50323 0.1238 0.22978 0.0
O304 O 0.37621 0.10438 0.28153 0.0
O305 O 0.37855 0.15227 0.27962 0.0
O306 O 0.39367 0.07996 0.18959 0.0
O307 O 0.36328 0.12095 0.20939 0.0
Co308 Co 0.37683 0.08907 0.49862 0.0
O309 O 0.45494 0.07369 0.49814 0.0
O310 O 0.37604 0.04972 0.48281 0.0
C311 C 0.38364 0.1055 0.55016 0.0
O312 O 0.28886 0.10026 0.49786 0.0
Co313 Co 0.36942 0.1544 0.5035 0.0
O314 O 0.28488 0.14699 0.51068 0.0
C315 C 0.38748 0.12855 0.43852 0.0
C316 C 0.43265 0.04983 0.48867 0.0
C317 C 0.25972 0.12337 0.50439 0.0
O318 O 0.38656 0.10402 0.45254 0.0
O319 O 0.38444 0.15191 0.45467 0.0
O320 O 0.36928 0.07935 0.54442 0.0
O321 O 0.39968 0.12037 0.52469 0.0
Co322 Co 0.38525 0.65974 0.49699 0.0
O323 O 0.30701 0.67496 0.49631 0.0
O324 O 0.38577 0.699 0.48088 0.0
C325 C 0.37865 0.64356 0.54858 0.0
O326 O 0.47331 0.64871 0.49644 0.0
Co327 Co 0.39295 0.59444 0.50209 0.0
O328 O 0.47735 0.60203 0.50953 0.0
C329 C 0.37527 0.62005 0.43702 0.0
C330 C 0.32914 0.69882 0.48668 0.0
C331 C 0.50247 0.62565 0.5032 0.0
O332 O 0.37585 0.64458 0.45102 0.0
O333 O 0.37842 0.5967 0.45319 0.0
O334 O 0.39257 0.66974 0.54267 0.0
O335 O 0.36267 0.62851 0.52324 0.0
Co336 Co 0.63602 0.83941 0.24862 0.0
O337 O 0.558 0.82394 0.2483 0.0
O338 O 0.63683 0.80016 0.23249 0.0
C339 C 0.62973 0.85558 0.30025 0.0
O340 O 0.72393 0.85069 0.24761 0.0
Co341 Co 0.6433 0.9047 0.25379 0.0
O342 O 0.72793 0.89736 0.2607 0.0
C343 C 0.62431 0.87913 0.18879 0.0
C344 C 0.58028 0.80018 0.23852 0.0
C345 C 0.75308 0.87378 0.25421 0.0
O346 O 0.62563 0.85457 0.20269 0.0
O347 O 0.62752 0.90245 0.20502 0.0
O348 O 0.64415 0.82947 0.2943 0.0
O349 O 0.61333 0.87057 0.27494 0.0
Co350 Co 0.62694 0.41052 0.24716 0.0
O351 O 0.70523 0.42571 0.24658 0.0
O352 O 0.62654 0.44989 0.23139 0.0
C353 C 0.63361 0.39406 0.29867 0.0
O354 O 0.53884 0.39954 0.24653 0.0
Co355 Co 0.61903 0.3452 0.2519 0.0
O356 O 0.53465 0.3528 0.25932 0.0
C357 C 0.63656 0.37112 0.18693 0.0
C358 C 0.68317 0.44964 0.23719 0.0
C359 C 0.5096 0.37647 0.25312 0.0
O360 O 0.63622 0.39561 0.20104 0.0
O361 O 0.63335 0.34772 0.203 0.0
O362 O 0.61968 0.42026 0.29294 0.0
O363 O 0.64949 0.37914 0.2732 0.0
Co364 Co 0.63225 0.41123 0.98424 0.0
O365 O 0.554 0.42646 0.98467 0.0
O366 O 0.63263 0.45049 0.00033 0.0
C367 C 0.62613 0.39501 0.93262 0.0
O368 O 0.7203 0.40019 0.98513 0.0
Co369 Co 0.64006 0.34589 0.97905 0.0
O370 O 0.72457 0.35351 0.97207 0.0
C371 C 0.62195 0.3715 0.04415 0.0
C372 C 0.57606 0.45031 -0.00564 0.0
C373 C 0.74957 0.37714 0.97855 0.0
O374 O 0.62242 0.39606 0.03022 0.0
O375 O 0.62532 0.34819 0.02792 0.0
O376 O 0.64 0.42119 0.93853 0.0
O377 O 0.60996 0.37999 0.95795 0.0
Co378 Co 0.62318 0.84003 0.98577 0.0
O379 O 0.70123 0.82461 0.98629 0.0
O380 O 0.62231 0.80067 0.00164 0.0
C381 C 0.63011 0.85639 0.93424 0.0
O382 O 0.53523 0.85126 0.98646 0.0
Co383 Co 0.61597 0.9053 0.98099 0.0
O384 O 0.53146 0.89798 0.9736 0.0
C385 C 0.63422 0.87946 0.04589 0.0
C386 C 0.67893 0.80077 -0.00419 0.0
C387 C 0.5062 0.87438 0.97983 0.0
O388 O 0.63298 0.85496 0.03183 0.0
O389 O 0.63126 0.90285 0.0298 0.0
O390 O 0.6156 0.83027 0.94002 0.0
O391 O 0.64622 0.8713 0.95968 0.0
Co392 Co 0.37844 0.16084 0.73546 0.0
O393 O 0.4567 0.17606 0.73618 0.0
O394 O 0.37786 0.20019 0.75125 0.0
C395 C 0.38543 0.14439 0.68396 0.0
O396 O 0.29036 0.14982 0.73595 0.0
Co397 Co 0.37063 0.09549 0.73063 0.0
O398 O 0.28626 0.10309 0.72312 0.0
C399 C 0.38769 0.12139 0.79566 0.0
C400 C 0.43452 0.19998 0.74554 0.0
C401 C 0.26118 0.12674 0.72933 0.0
O402 O 0.38747 0.1459 0.78159 0.0
O403 O 0.3846 0.09801 0.77955 0.0
O404 O 0.37144 0.17058 0.68965 0.0
O405 O 0.40117 0.12948 0.70945 0.0
Co406 Co 0.38761 0.58956 0.7344 0.0
O407 O 0.30957 0.57412 0.73459 0.0
O408 O 0.38826 0.55031 0.75057 0.0
C409 C 0.38157 0.60569 0.68274 0.0
O410 O 0.47553 0.60082 0.73554 0.0
Co411 Co 0.39497 0.65482 0.7292 0.0
O412 O 0.47964 0.64749 0.72244 0.0
C413 C 0.37549 0.6293 0.79418 0.0
C414 C 0.33174 0.55035 0.74445 0.0
C415 C 0.50473 0.6239 0.72897 0.0
O416 O 0.37696 0.60473 0.78029 0.0
O417 O 0.3788 0.65261 0.77794 0.0
O418 O 0.396 0.57959 0.68874 0.0
O419 O 0.36505 0.62069 0.708 0.0
Co420 Co 0.37301 0.5901 -0.00284 0.0
O421 O 0.4511 0.57472 -0.00332 0.0
O422 O 0.37224 0.55076 0.98125 0.0
C423 C 0.37975 0.60642 0.0487 0.0
O424 O 0.28505 0.60129 -0.00357 0.0
Co425 Co 0.36569 0.65537 0.00198 0.0
O426 O 0.28119 0.648 0.00934 0.0
C427 C 0.38425 0.62959 0.93708 0.0
C428 C 0.42885 0.55088 0.98713 0.0
C429 C 0.25597 0.62438 0.00309 0.0
O430 O 0.38291 0.60508 0.95113 0.0
O431 O 0.38125 0.65297 0.95319 0.0
O432 O 0.36534 0.58029 0.04288 0.0
O433 O 0.39591 0.62136 0.0233 0.0
Co434 Co 0.38214 0.16113 -0.00158 0.0
O435 O 0.30387 0.17634 -0.00201 0.0
O436 O 0.38249 0.20042 0.98241 0.0
C437 C 0.37595 0.14483 0.05002 0.0
O438 O 0.47021 0.15012 -0.00245 0.0
Co439 Co 0.39003 0.0958 0.00349 0.0
O440 O 0.47453 0.10342 0.0105 0.0
C441 C 0.37208 0.1215 0.93842 0.0
C442 C 0.3259 0.20021 0.98836 0.0
C443 C 0.49951 0.12706 0.00409 0.0
O444 O 0.37241 0.14604 0.95241 0.0
O445 O 0.3755 0.09816 0.9546 0.0
O446 O 0.38982 0.17102 0.04416 0.0
O447 O 0.35983 0.12985 0.02466 0.0
C448 C 0.12714 0.40576 0.13456 0.0
C449 C 0.12414 0.37992 0.15209 0.0
H450 H 0.13319 0.42603 0.08728 0.0
C451 C 0.12567 0.35425 0.13428 0.0
H452 H 0.12656 0.42594 0.14746 0.0
C453 C 0.13043 0.35429 0.10007 0.0
C454 C 0.13336 0.38002 0.08241 0.0
H455 H 0.12387 0.33388 0.14675 0.0
H456 H 0.13121 0.33396 0.08749 0.0
C457 C 0.13153 0.40581 0.10007 0.0
C458 C 0.1253 0.89652 0.09859 0.0
C459 C 0.12305 0.87084 0.08081 0.0
H460 H 0.1325 0.9168 0.14534 0.0
C461 C 0.12656 0.84501 0.0983 0.0
H462 H 0.12317 0.91689 0.08614 0.0
C463 C 0.13212 0.84496 0.13274 0.0
C464 C 0.13465 0.87074 0.15039 0.0
H465 H 0.12548 0.82483 0.08542 0.0
H466 H 0.13411 0.82473 0.14551 0.0
C467 C 0.13123 0.89647 0.13276 0.0
C468 C 0.88303 0.59481 0.85038 0.0
C469 C 0.88591 0.62058 0.83274 0.0
H470 H 0.87579 0.57469 0.89769 0.0
C471 C 0.88249 0.64632 0.85035 0.0
H472 H 0.885 0.57458 0.83763 0.0
C473 C 0.87621 0.64638 0.8845 0.0
C474 C 0.87361 0.62071 0.90228 0.0
H475 H 0.88402 0.66665 0.83778 0.0
H476 H 0.8741 0.66675 0.89694 0.0
C477 C 0.87714 0.59487 0.88481 0.0
C478 C 0.88313 0.10437 0.88344 0.0
C479 C 0.88478 0.13011 0.90111 0.0
H480 H 0.87782 0.0839 0.83674 0.0
C481 C 0.88212 0.15588 0.88345 0.0
H482 H 0.88467 0.08404 0.89602 0.0
C483 C 0.87802 0.1558 0.84894 0.0
C484 C 0.87616 0.12995 0.83142 0.0
H485 H 0.88279 0.17611 0.89625 0.0
H486 H 0.87667 0.17598 0.83605 0.0
C487 C 0.87867 0.10429 0.84922 0.0
C488 C 0.13026 0.85318 0.63278 0.0
C489 C 0.1279 0.87893 0.65042 0.0
H490 H 0.13645 0.83272 0.58608 0.0
C491 C 0.13032 0.9047 0.63273 0.0
H492 H 0.12898 0.83287 0.6454 0.0
C493 C 0.13481 0.90461 0.59824 0.0
C494 C 0.13731 0.87876 0.58074 0.0
H495 H 0.1291 0.92494 0.64548 0.0
H496 H 0.13592 0.92479 0.58534 0.0
C497 C 0.13509 0.8531 0.59855 0.0
C498 C 0.12979 0.34402 0.60014 0.0
C499 C 0.12701 0.36979 0.58249 0.0
H500 H 0.13642 0.32393 0.64751 0.0
C501 C 0.1299 0.39553 0.60012 0.0
H502 H 0.1282 0.32379 0.58737 0.0
C503 C 0.13562 0.39561 0.63428 0.0
C504 C 0.13815 0.36995 0.65208 0.0
H505 H 0.12839 0.41586 0.58754 0.0
H506 H 0.13736 0.416 0.64671 0.0
C507 C 0.13511 0.3441 0.6346 0.0
C508 C 0.88557 0.14576 0.34926 0.0
C509 C 0.88742 0.12007 0.3315 0.0
H510 H 0.87918 0.1661 0.39598 0.0
C511 C 0.88409 0.09425 0.34904 0.0
H512 H 0.8876 0.16613 0.33678 0.0
C513 C 0.87909 0.09424 0.38351 0.0
C514 C 0.87693 0.12005 0.40112 0.0
H515 H 0.88489 0.07406 0.33617 0.0
H516 H 0.87721 0.07403 0.39632 0.0
C517 C 0.88018 0.14575 0.38344 0.0
C518 C 0.87972 0.60329 0.35033 0.0
C519 C 0.87696 0.62903 0.33268 0.0
H520 H 0.88648 0.58286 0.39702 0.0
C521 C 0.87928 0.6548 0.35035 0.0
H522 H 0.87855 0.58297 0.33773 0.0
C523 C 0.88404 0.65474 0.38482 0.0
C524 C 0.88691 0.6289 0.40234 0.0
H525 H 0.87776 0.67504 0.33758 0.0
H526 H 0.88503 0.67492 0.39771 0.0
C527 C 0.88483 0.60323 0.38454 0.0
C528 C 0.63481 0.40533 0.59825 0.0
C529 C 0.63793 0.37949 0.58075 0.0
H530 H 0.62831 0.42562 0.6455 0.0
C531 C 0.63614 0.35382 0.59856 0.0
H532 H 0.63558 0.42551 0.58535 0.0
C533 C 0.63102 0.35388 0.63276 0.0
C534 C 0.62796 0.37961 0.6504 0.0
H535 H 0.63802 0.33345 0.5861 0.0
H536 H 0.63006 0.33355 0.64536 0.0
C537 C 0.63005 0.40539 0.63273 0.0
C538 C 0.63728 0.89552 0.63431 0.0
C539 C 0.63909 0.86985 0.6521 0.0
H540 H 0.63035 0.91584 0.58759 0.0
C541 C 0.63518 0.84402 0.63461 0.0
H542 H 0.63976 0.91589 0.64675 0.0
C543 C 0.62961 0.84399 0.60016 0.0
C544 C 0.62744 0.86979 0.58253 0.0
H545 H 0.63592 0.82384 0.64751 0.0
H546 H 0.62727 0.82378 0.58739 0.0
C547 C 0.63131 0.8955 0.60016 0.0
C548 C 0.38551 0.64519 0.34863 0.0
C549 C 0.38764 0.61953 0.33082 0.0
H550 H 0.37855 0.66547 0.39535 0.0
C551 C 0.38424 0.59368 0.3483 0.0
H552 H 0.38756 0.66558 0.3362 0.0
C553 C 0.37891 0.59362 0.38276 0.0
C554 C 0.37647 0.6194 0.40041 0.0
H555 H 0.38525 0.57351 0.33539 0.0
H556 H 0.37701 0.57339 0.39554 0.0
C557 C 0.37976 0.64513 0.38278 0.0
C558 C 0.38423 0.15511 0.38439 0.0
C559 C 0.38666 0.12926 0.40191 0.0
H560 H 0.37808 0.17543 0.33715 0.0
C561 C 0.38371 0.1036 0.38413 0.0
H562 H 0.38589 0.17529 0.39726 0.0
C563 C 0.37828 0.10368 0.34993 0.0
C564 C 0.37606 0.12943 0.33228 0.0
H565 H 0.38495 0.08322 0.39661 0.0
H566 H 0.37647 0.08336 0.33735 0.0
C567 C 0.37916 0.15519 0.34993 0.0
C568 C 0.62636 0.85425 0.13436 0.0
C569 C 0.62441 0.87991 0.15217 0.0
H570 H 0.63231 0.834 0.08756 0.0
C571 C 0.62714 0.90576 0.13467 0.0
H572 H 0.62479 0.83387 0.14682 0.0
C573 C 0.63163 0.90584 0.10018 0.0
C574 C 0.63383 0.88006 0.08251 0.0
H575 H 0.62624 0.92594 0.14758 0.0
H576 H 0.63304 0.92607 0.0874 0.0
C577 C 0.63121 0.85432 0.10015 0.0
C578 C 0.62587 0.39638 0.09856 0.0
C579 C 0.62316 0.37073 0.08076 0.0
H580 H 0.63359 0.41662 0.1453 0.0
C581 C 0.62644 0.34487 0.09823 0.0
H582 H 0.62397 0.41677 0.08612 0.0
C583 C 0.63216 0.34478 0.13266 0.0
C584 C 0.63511 0.37055 0.15032 0.0
H585 H 0.62501 0.3247 0.08533 0.0
H586 H 0.63391 0.32455 0.14541 0.0
C587 C 0.63198 0.3963 0.13271 0.0
C588 C 0.38321 0.09496 0.84988 0.0
C589 C 0.38591 0.12076 0.83227 0.0
H590 H 0.37604 0.07478 0.89715 0.0
C591 C 0.38223 0.14647 0.84992 0.0
H592 H 0.38539 0.07475 0.8371 0.0
C593 C 0.37587 0.14649 0.88406 0.0
C594 C 0.37346 0.12079 0.90181 0.0
H595 H 0.3836 0.16682 0.83737 0.0
H596 H 0.37355 0.16684 0.89653 0.0
C597 C 0.37724 0.09498 0.8843 0.0
C598 C 0.37797 0.65593 0.8483 0.0
C599 C 0.37526 0.63008 0.83078 0.0
H600 H 0.38358 0.67622 0.89559 0.0
C601 C 0.37691 0.60442 0.8486 0.0
H602 H 0.3773 0.67611 0.83539 0.0
C603 C 0.38147 0.60448 0.88282 0.0
C604 C 0.38409 0.63021 0.90047 0.0
H605 H 0.37533 0.58404 0.83614 0.0
H606 H 0.38235 0.58414 0.8954 0.0
C607 C 0.38217 0.65599 0.8828 0.0
C608 C 0.94636 0.25271 0.24908 0.0
C609 C 0.97057 0.22551 0.24515 0.0
H610 H 0.96182 0.29758 0.24928 0.0
C611 C 0.03124 0.22307 0.23796 0.0
H612 H 0.89985 0.25536 0.25419 0.0
C613 C 0.06686 0.24725 0.23474 0.0
C614 C 0.04264 0.27445 0.23866 0.0
H615 H 0.05138 0.20237 0.23454 0.0
H616 H 0.11338 0.24461 0.22964 0.0
C617 C 0.98197 0.27689 0.24586 0.0
C618 C 0.19594 0.00293 0.23443 0.0
C619 C 0.22023 0.97566 0.23759 0.0
H620 H 0.21139 0.0478 0.23518 0.0
C621 C 0.28103 0.97311 0.24439 0.0
H622 H 0.14933 0.00565 0.22967 0.0
C623 C 0.3167 0.99724 0.24797 0.0
C624 C 0.29241 0.0245 0.24481 0.0
H625 H 0.30124 0.95237 0.24722 0.0
H626 H 0.36331 0.99452 0.25274 0.0
C627 C 0.23161 0.02705 0.23801 0.0
C628 C 0.97791 0.9736 0.98722 0.0
C629 C 0.03863 0.9761 -0.00571 0.0
H630 H 0.89566 0.99506 0.97904 0.0
C631 C 0.06277 0.00333 -0.00186 0.0
H632 H 0.95782 0.95288 0.98387 0.0
C633 C 0.02707 0.02747 -0.00505 0.0
C634 C 0.96636 0.02497 0.98788 0.0
H635 H 0.10931 0.00602 0.00314 0.0
H636 H 0.04719 0.04818 -0.0017 0.0
C637 C 0.9422 0.99775 0.98405 0.0
C638 C 0.22746 0.2235 -0.00457 0.0
C639 C 0.28824 0.22602 0.98854 0.0
H640 H 0.14522 0.24496 0.00369 0.0
C641 C 0.31251 0.25326 0.98511 0.0
H642 H 0.20727 0.20277 -0.00154 0.0
C643 C 0.27688 0.2774 0.98853 0.0
C644 C 0.2161 0.27489 -0.00458 0.0
H645 H 0.35911 0.25596 0.98026 0.0
H646 H 0.2971 0.29813 0.98551 0.0
C647 C 0.19181 0.24765 -0.00116 0.0
C648 C 0.94829 0.75272 0.74868 0.0
C649 C 0.97245 0.72543 0.74557 0.0
H650 H 0.9639 0.79757 0.74783 0.0
C651 C 0.03326 0.72281 0.7388 0.0
H652 H 0.90168 0.7555 0.75343 0.0
C653 C 0.06903 0.74691 0.73517 0.0
C654 C 0.04484 0.7742 0.73826 0.0
H655 H 0.05338 0.70204 0.73601 0.0
H656 H 0.11563 0.74414 0.73041 0.0
C657 C 0.98404 0.77681 0.74505 0.0
C658 C 0.78358 0.97303 0.74536 0.0
C659 C 0.72285 0.97543 0.73828 0.0
H660 H 0.86567 0.99463 0.75362 0.0
C661 C 0.69851 0.00262 0.7345 0.0
H662 H 0.80382 0.95234 0.74866 0.0
C663 C 0.73403 0.02682 0.73776 0.0
C664 C 0.79475 0.02443 0.74484 0.0
H665 H 0.65195 0.00523 0.72949 0.0
H666 H 0.71376 0.0475 0.73446 0.0
C667 C 0.81911 0.99724 0.74861 0.0
C668 C 0.69214 0.74768 -0.00082 0.0
C669 C 0.71645 0.77491 -0.00434 0.0
H670 H 0.70757 0.7028 -0.00105 0.0
C671 C 0.77722 0.7774 0.98874 0.0
H672 H 0.64555 0.74501 0.00405 0.0
C673 C 0.81283 0.75324 0.9854 0.0
C674 C 0.78854 0.72601 0.98892 0.0
H675 H 0.79746 0.79811 0.98565 0.0
H676 H 0.85942 0.75592 0.98052 0.0
C677 C 0.72777 0.72352 -0.00416 0.0
C678 C 0.23352 0.52691 0.73731 0.0
C679 C 0.29422 0.52449 0.74443 0.0
H680 H 0.15139 0.50535 0.72911 0.0
C681 C 0.3185 0.4973 0.74835 0.0
H682 H 0.21332 0.54759 0.7339 0.0
C683 C 0.2829 0.4731 0.7452 0.0
C684 C 0.22219 0.47553 0.73808 0.0
H685 H 0.36504 0.49468 0.7534 0.0
H686 H 0.30308 0.45242 0.74861 0.0
C687 C 0.19793 0.50272 0.73415 0.0
C688 C 0.03042 0.52627 0.49634 0.0
C689 C 0.96968 0.52372 0.48938 0.0
H690 H 0.11274 0.50487 0.50452 0.0
C691 C 0.94552 0.49647 0.48579 0.0
H692 H 0.05054 0.547 0.4995 0.0
C693 C 0.98127 0.47234 0.48908 0.0
C694 C 0.04203 0.47489 0.49601 0.0
H695 H 0.89895 0.49375 0.48088 0.0
H696 H 0.96116 0.45161 0.48591 0.0
C697 C 0.06617 0.50215 0.49963 0.0
C698 C 0.23072 0.72213 0.49364 0.0
C699 C 0.2915 0.72463 0.48676 0.0
H700 H 0.1485 0.7436 0.50189 0.0
C701 C 0.31578 0.75187 0.48327 0.0
H702 H 0.21051 0.7014 0.49672 0.0
C703 C 0.28015 0.77602 0.48665 0.0
C704 C 0.21939 0.77352 0.49357 0.0
H705 H 0.36238 0.75456 0.47842 0.0
H706 H 0.30037 0.79674 0.48359 0.0
C707 C 0.19509 0.74628 0.49702 0.0
C708 C 0.73236 0.52682 0.23822 0.0
C709 C 0.79316 0.52422 0.245 0.0
H710 H 0.65004 0.50548 0.22981 0.0
C711 C 0.81741 0.49694 0.24801 0.0
H712 H 0.71218 0.54758 0.2355 0.0
C713 C 0.78169 0.47284 0.24433 0.0
C714 C 0.72088 0.47544 0.23757 0.0
H715 H 0.86402 0.49418 0.25275 0.0
H716 H 0.80186 0.45207 0.24707 0.0
C717 C 0.69665 0.50272 0.23454 0.0
C718 C 0.78121 0.27667 0.48708 0.0
C719 C 0.72046 0.27417 0.49405 0.0
H720 H 0.86347 0.25521 0.47893 0.0
C721 C 0.69624 0.24694 0.49771 0.0
H722 H 0.80137 0.29739 0.48387 0.0
C723 C 0.73192 0.22279 0.49446 0.0
C724 C 0.79267 0.22529 0.48751 0.0
H725 H 0.64967 0.24425 0.50263 0.0
H726 H 0.71176 0.20207 0.49768 0.0
C727 C 0.81689 0.25252 0.48384 0.0
C728 C 0.44778 0.25307 0.74819 0.0
C729 C 0.47214 0.22581 0.7452 0.0
H730 H 0.46313 0.29794 0.74724 0.0
C731 C 0.53298 0.22326 0.73851 0.0
H732 H 0.40114 0.25579 0.75286 0.0
C733 C 0.56861 0.24739 0.73487 0.0
C734 C 0.54424 0.27466 0.73785 0.0
H735 H 0.55324 0.20251 0.73581 0.0
H736 H 0.61525 0.24468 0.7302 0.0
C737 C 0.48341 0.2772 0.74455 0.0
C738 C 0.53097 0.02644 0.49569 0.0
C739 C 0.47014 0.02396 0.48894 0.0
H740 H 0.61317 0.00494 0.50387 0.0
C741 C 0.4457 0.99673 0.48575 0.0
H742 H 0.55129 0.04716 0.49854 0.0
C743 C 0.48126 0.97256 0.48923 0.0
C744 C 0.5421 0.97504 0.49595 0.0
H745 H 0.39906 0.99406 0.48102 0.0
H746 H 0.46094 0.95184 0.48636 0.0
C747 C 0.56653 0.00227 0.49916 0.0
C748 C 0.48215 0.77664 0.24566 0.0
C749 C 0.54286 0.77429 0.23854 0.0
H750 H 0.40011 0.755 0.25386 0.0
C751 C 0.56725 0.74712 0.23464 0.0
H752 H 0.46186 0.79731 0.24906 0.0
C753 C 0.53176 0.72289 0.2378 0.0
C754 C 0.47104 0.72525 0.24491 0.0
H755 H 0.61381 0.74454 0.2296 0.0
H756 H 0.55203 0.70222 0.23439 0.0
C757 C 0.44667 0.75242 0.24882 0.0
C758 C 0.56274 0.50336 -0.00234 0.0
C759 C 0.53844 0.47613 -0.00581 0.0
H760 H 0.54738 0.54823 -0.0027 0.0
C761 C 0.47767 0.47363 0.98726 0.0
H762 H 0.60933 0.50604 0.00253 0.0
C763 C 0.44205 0.49779 0.98386 0.0
C764 C 0.46638 0.52502 0.98732 0.0
H765 H 0.45746 0.45291 0.9842 0.0
H766 H 0.39547 0.49511 0.97899 0.0
C767 C 0.52714 0.52751 -0.00575 0.0
C768 C 0.12703 0.35461 0.39293 0.0
C769 C 0.12691 0.38368 0.40017 0.0
H770 H 0.12877 0.32302 0.3552 0.0
C771 C 0.12598 0.40368 0.37428 0.0
H772 H 0.1278 0.33888 0.41245 0.0
C773 C 0.12586 0.39474 0.34156 0.0
C774 C 0.12762 0.36569 0.33432 0.0
H775 H 0.12546 0.42633 0.37928 0.0
H776 H 0.12565 0.41048 0.32205 0.0
C777 C 0.12785 0.34567 0.3602 0.0
C778 C 0.13685 0.90361 0.35883 0.0
C779 C 0.13593 0.88379 0.33276 0.0
H780 H 0.1371 0.91004 0.41112 0.0
C781 C 0.13575 0.85468 0.33973 0.0
H782 H 0.13741 0.9263 0.35404 0.0
C783 C 0.13485 0.84551 0.37237 0.0
C784 C 0.13507 0.86533 0.39844 0.0
H785 H 0.13497 0.83909 0.32006 0.0
H786 H 0.13388 0.82282 0.37716 0.0
C787 C 0.13689 0.89444 0.39147 0.0
C788 C 0.12609 0.89536 0.83986 0.0
C789 C 0.12806 0.86626 0.83288 0.0
H790 H 0.12454 0.9272 0.87732 0.0
C791 C 0.12753 0.84642 0.85894 0.0
H792 H 0.12645 0.91097 0.82021 0.0
C793 C 0.12571 0.85556 0.89158 0.0
C794 C 0.12534 0.88467 0.89857 0.0
H795 H 0.1286 0.82373 0.85416 0.0
H796 H 0.12589 0.83996 0.91123 0.0
C797 C 0.12521 0.90451 0.87251 0.0
C798 C 0.13573 0.35544 0.84145 0.0
C799 C 0.136 0.38451 0.83423 0.0
H800 H 0.13297 0.32383 0.87912 0.0
C801 C 0.13621 0.4045 0.86013 0.0
H802 H 0.1355 0.33972 0.82192 0.0
C803 C 0.13542 0.39554 0.89284 0.0
C804 C 0.13348 0.36648 0.90005 0.0
H805 H 0.13683 0.42716 0.85514 0.0
H806 H 0.13507 0.41126 0.91237 0.0
C807 C 0.134 0.34648 0.87415 0.0
C808 C 0.88633 0.60464 0.64336 0.0
C809 C 0.8871 0.63374 0.65036 0.0
H810 H 0.88356 0.57283 0.60588 0.0
C811 C 0.88812 0.65358 0.62431 0.0
H812 H 0.88545 0.58903 0.66301 0.0
C813 C 0.88768 0.64444 0.59166 0.0
C814 C 0.8853 0.61536 0.58465 0.0
H815 H 0.88912 0.67626 0.62912 0.0
H816 H 0.88801 0.66007 0.57203 0.0
C817 C 0.88496 0.5955 0.6107 0.0
C818 C 0.87669 0.14495 0.64201 0.0
C819 C 0.87846 0.11588 0.6492 0.0
H820 H 0.87609 0.1766 0.60435 0.0
C821 C 0.87848 0.09591 0.62328 0.0
H822 H 0.87663 0.16066 0.66155 0.0
C823 C 0.87745 0.10489 0.59057 0.0
C824 C 0.87735 0.13397 0.58339 0.0
H825 H 0.8794 0.07325 0.62824 0.0
H826 H 0.87808 0.08919 0.57102 0.0
C827 C 0.87659 0.15393 0.60931 0.0
C828 C 0.88416 0.10532 0.14205 0.0
C829 C 0.88435 0.13439 0.14929 0.0
H830 H 0.88179 0.07373 0.10435 0.0
C831 C 0.88472 0.15439 0.1234 0.0
H832 H 0.88381 0.08959 0.16157 0.0
C833 C 0.88423 0.14545 0.09068 0.0
C834 C 0.88243 0.1164 0.08345 0.0
H835 H 0.88527 0.17705 0.1284 0.0
H836 H 0.88404 0.16119 0.07116 0.0
C837 C 0.88273 0.09639 0.10934 0.0
C838 C 0.87438 0.65441 0.11057 0.0
C839 C 0.87449 0.63456 0.08453 0.0
H840 H 0.87532 0.6609 0.16287 0.0
C841 C 0.87444 0.60545 0.09155 0.0
H842 H 0.87402 0.6771 0.10574 0.0
C843 C 0.8759 0.59632 0.1242 0.0
C844 C 0.87648 0.61618 0.15024 0.0
H845 H 0.87458 0.58983 0.07192 0.0
H846 H 0.87667 0.57364 0.12901 0.0
C847 C 0.8749 0.64528 0.14323 0.0
C848 C 0.62431 0.40469 0.87254 0.0
C849 C 0.62443 0.38479 0.89854 0.0
H850 H 0.62548 0.41126 0.82027 0.0
C851 C 0.62457 0.3557 0.89146 0.0
H852 H 0.62379 0.42736 0.87742 0.0
C853 C 0.62625 0.34662 0.8588 0.0
C854 C 0.62686 0.36652 0.8328 0.0
H855 H 0.62473 0.34004 0.91107 0.0
H856 H 0.62718 0.32395 0.85394 0.0
C857 C 0.62505 0.39561 0.83987 0.0
C858 C 0.636 0.89547 0.89289 0.0
C859 C 0.63401 0.86643 0.90014 0.0
H860 H 0.6375 0.92705 0.85513 0.0
C861 C 0.63458 0.8464 0.87427 0.0
H862 H 0.63562 0.91122 0.91239 0.0
C863 C 0.63637 0.85532 0.84155 0.0
C864 C 0.63667 0.88437 0.83429 0.0
H865 H 0.63352 0.82375 0.87928 0.0
H866 H 0.63617 0.83957 0.82205 0.0
C867 C 0.63686 0.9044 0.86016 0.0
C868 C 0.62608 0.85454 0.393 0.0
C869 C 0.62575 0.88361 0.40022 0.0
H870 H 0.62815 0.82294 0.35529 0.0
C871 C 0.62463 0.9036 0.37432 0.0
H872 H 0.627 0.83882 0.41253 0.0
C873 C 0.62464 0.89465 0.34161 0.0
C874 C 0.62669 0.8656 0.33438 0.0
H875 H 0.62394 0.92626 0.37931 0.0
H876 H 0.62433 0.91038 0.32209 0.0
C877 C 0.62702 0.8456 0.36028 0.0
C878 C 0.63523 0.34566 0.37251 0.0
C879 C 0.63551 0.36558 0.39849 0.0
H880 H 0.63522 0.33906 0.32023 0.0
C881 C 0.63728 0.39466 0.39138 0.0
H882 H 0.6343 0.32299 0.37741 0.0
C883 C 0.63715 0.40372 0.3587 0.0
C884 C 0.63617 0.38381 0.33272 0.0
H885 H 0.63753 0.41033 0.41096 0.0
H886 H 0.63768 0.42639 0.35381 0.0
C887 C 0.63603 0.35472 0.33982 0.0
C888 C 0.38545 0.65437 0.12284 0.0
C889 C 0.38534 0.63431 0.14868 0.0
H890 H 0.38448 0.66125 0.07062 0.0
C891 C 0.38545 0.60526 0.14138 0.0
H892 H 0.38577 0.67701 0.1279 0.0
C893 C 0.384 0.59638 0.10865 0.0
C894 C 0.38337 0.61643 0.08281 0.0
H895 H 0.38532 0.5895 0.16086 0.0
H896 H 0.38326 0.57373 0.10361 0.0
C897 C 0.38494 0.64548 0.0901 0.0
C898 C 0.37557 0.09643 0.12385 0.0
C899 C 0.37594 0.11632 0.14985 0.0
H900 H 0.37448 0.08986 0.07157 0.0
C901 C 0.37418 0.14541 0.14278 0.0
H902 H 0.37647 0.07375 0.12871 0.0
C903 C 0.3737 0.15449 0.1101 0.0
C904 C 0.37404 0.1346 0.0841 0.0
H905 H 0.37443 0.16106 0.16238 0.0
H906 H 0.37321 0.17717 0.10522 0.0
C907 C 0.37416 0.10551 0.09118 0.0
C908 C 0.38779 0.10498 0.64291 0.0
C909 C 0.3879 0.13408 0.64992 0.0
H910 H 0.38583 0.07317 0.60542 0.0
C911 C 0.38869 0.15394 0.62389 0.0
H912 H 0.38714 0.08936 0.66255 0.0
C913 C 0.38859 0.14481 0.59123 0.0
C914 C 0.38679 0.11572 0.58421 0.0
H915 H 0.3892 0.17662 0.62871 0.0
H916 H 0.38865 0.16044 0.5716 0.0
C917 C 0.38677 0.09585 0.61025 0.0
C918 C 0.37866 0.59556 0.62275 0.0
C919 C 0.37828 0.61562 0.64858 0.0
H920 H 0.37822 0.58868 0.57051 0.0
C921 C 0.37575 0.64465 0.64127 0.0
H922 H 0.38015 0.57292 0.6278 0.0
C923 C 0.37529 0.65353 0.60853 0.0
C924 C 0.37642 0.63348 0.5827 0.0
H925 H 0.37537 0.66042 0.66074 0.0
H926 H 0.37421 0.67617 0.60348 0.0
C927 C 0.37726 0.60443 0.59 0.0
C928 C 0.34954 0.40039 0.253 0.0
C929 C 0.31899 0.37413 0.25305 0.0
H930 H 0.43303 0.42189 0.25275 0.0
C931 C 0.35182 0.3489 0.25248 0.0
H932 H 0.32581 0.42039 0.25315 0.0
C933 C 0.41346 0.34989 0.25245 0.0
C934 C 0.44402 0.37614 0.25267 0.0
H935 H 0.33 0.32839 0.25244 0.0
H936 H 0.43717 0.32988 0.25218 0.0
C937 C 0.41119 0.40138 0.25265 0.0
C938 C 0.84915 0.90046 0.25344 0.0
C939 C 0.81865 0.87419 0.25343 0.0
H940 H 0.93262 0.92198 0.25319 0.0
C941 C 0.85151 0.84897 0.25282 0.0
H942 H 0.8254 0.92045 0.25364 0.0
C943 C 0.91315 0.84998 0.25277 0.0
C944 C 0.94367 0.87624 0.25301 0.0
H945 H 0.82972 0.82845 0.25274 0.0
H946 H 0.93689 0.82998 0.25244 0.0
C947 C 0.91081 0.90147 0.25306 0.0
C948 C 0.34847 0.90206 0.98003 0.0
C949 C 0.31559 0.87683 0.9796 0.0
H950 H 0.4339 0.92104 0.98031 0.0
C951 C 0.34608 0.85057 0.97988 0.0
H952 H 0.32669 0.92257 0.9799 0.0
C953 C 0.40771 0.84956 0.98032 0.0
C954 C 0.44061 0.87478 0.98018 0.0
H955 H 0.32232 0.83057 0.97985 0.0
H956 H 0.42948 0.82904 0.9804 0.0
C957 C 0.41013 0.90105 0.98015 0.0
C958 C 0.90969 0.40098 0.98011 0.0
C959 C 0.94017 0.37471 0.98003 0.0
H960 H 0.82626 0.42251 0.97994 0.0
C961 C 0.90727 0.34949 0.98003 0.0
H962 H 0.93347 0.42097 0.98038 0.0
C963 C 0.84563 0.3505 0.97956 0.0
C964 C 0.81515 0.37677 0.9794 0.0
H965 H 0.92904 0.32897 0.98001 0.0
H966 H 0.82187 0.33051 0.97942 0.0
C967 C 0.84804 0.40199 0.97997 0.0
C968 C 0.66477 0.60004 0.7305 0.0
C969 C 0.69534 0.62629 0.73023 0.0
H970 H 0.58131 0.57855 0.73054 0.0
C971 C 0.66252 0.65153 0.73016 0.0
H972 H 0.68847 0.58003 0.73085 0.0
C973 C 0.60086 0.65055 0.72979 0.0
C974 C 0.57031 0.62429 0.7298 0.0
H975 H 0.68436 0.67204 0.73001 0.0
H976 H 0.57713 0.67055 0.72957 0.0
C977 C 0.60313 0.59906 0.73045 0.0
C978 C 0.10106 0.1506 0.72986 0.0
C979 C 0.07057 0.12433 0.7298 0.0
H980 H 0.18452 0.17213 0.72998 0.0
C981 C 0.10345 0.09911 0.73014 0.0
H982 H 0.0773 0.17059 0.72987 0.0
C983 C 0.16509 0.10012 0.72999 0.0
C984 C 0.19559 0.12638 0.72982 0.0
H985 H 0.08166 0.07859 0.73016 0.0
H986 H 0.18883 0.08012 0.73011 0.0
C987 C 0.16272 0.15161 0.73004 0.0
C988 C 0.59561 0.10046 0.00311 0.0
C989 C 0.56509 0.12672 0.00328 0.0
H990 H 0.67904 0.07895 0.00277 0.0
C991 C 0.59795 0.15195 0.00279 0.0
H992 H 0.57187 0.08045 0.00319 0.0
C993 C 0.65961 0.15095 0.00274 0.0
C994 C 0.69012 0.12469 0.00285 0.0
H995 H 0.57615 0.17246 0.00283 0.0
H996 H 0.68337 0.17095 0.00255 0.0
C997 C 0.65725 0.09946 0.00274 0.0
C998 C 0.15985 0.651 0.0027 0.0
C999 C 0.19039 0.62474 0.00279 0.0
H1000 H 0.07637 0.67248 0.00295 0.0
C1001 C 0.15755 0.59951 0.00286 0.0
H1002 H 0.18359 0.671 0.00238 0.0
C1003 C 0.09592 0.60049 0.00341 0.0
C1004 C 0.06537 0.62674 0.00357 0.0
H1005 H 0.17938 0.579 0.00289 0.0
H1006 H 0.07221 0.58047 0.0036 0.0
C1007 C 0.0982 0.65198 0.00292 0.0
C1008 C 0.41578 0.84969 0.75329 0.0
C1009 C 0.4463 0.87596 0.75322 0.0
H1010 H 0.33233 0.82817 0.75305 0.0
C1011 C 0.41345 0.90118 0.75244 0.0
H1012 H 0.43952 0.82969 0.7536 0.0
C1013 C 0.35179 0.90017 0.75232 0.0
C1014 C 0.32127 0.87391 0.75265 0.0
H1015 H 0.43525 0.92169 0.75229 0.0
H1016 H 0.32805 0.92017 0.75189 0.0
C1017 C 0.35414 0.84869 0.75284 0.0
C1018 C 0.85321 0.34907 0.75296 0.0
C1019 C 0.82042 0.37432 0.75287 0.0
H1020 H 0.93853 0.33001 0.7536 0.0
C1021 C 0.85102 0.40056 0.75264 0.0
H1022 H 0.83134 0.32857 0.75309 0.0
C1023 C 0.91267 0.40152 0.75273 0.0
C1024 C 0.94545 0.37627 0.75338 0.0
H1025 H 0.82733 0.42057 0.75229 0.0
H1026 H 0.93454 0.42202 0.75265 0.0
C1027 C 0.91485 0.35003 0.75338 0.0
C1028 C 0.34942 0.34943 0.48032 0.0
C1029 C 0.31886 0.37567 0.48021 0.0
H1030 H 0.4329 0.32795 0.48019 0.0
C1031 C 0.35168 0.40092 0.48026 0.0
H1032 H 0.32572 0.32941 0.48056 0.0
C1033 C 0.41333 0.39995 0.47985 0.0
C1034 C 0.44389 0.3737 0.47969 0.0
H1035 H 0.32984 0.42142 0.48024 0.0
H1036 H 0.43705 0.41996 0.47973 0.0
C1037 C 0.41107 0.34845 0.48023 0.0
C1038 C 0.91278 0.89961 0.47965 0.0
C1039 C 0.94322 0.87333 0.47939 0.0
H1040 H 0.82939 0.92117 0.48011 0.0
C1041 C 0.91028 0.84812 0.47975 0.0
H1042 H 0.93658 0.9196 0.47965 0.0
C1043 C 0.84864 0.84916 0.47981 0.0
C1044 C 0.81819 0.87544 0.47984 0.0
H1045 H 0.93202 0.8276 0.47963 0.0
H1046 H 0.82484 0.82917 0.47993 0.0
C1047 C 0.85113 0.90065 0.48003 0.0
C1048 C 0.59937 0.1504 0.23056 0.0
C1049 C 0.56881 0.12415 0.23036 0.0
H1050 H 0.68287 0.17189 0.23068 0.0
C1051 C 0.60163 0.09891 0.23051 0.0
H1052 H 0.57566 0.17041 0.23073 0.0
C1053 C 0.66328 0.09989 0.23029 0.0
C1054 C 0.69384 0.12614 0.23022 0.0
H1055 H 0.57979 0.0784 0.23043 0.0
H1056 H 0.68699 0.07988 0.23024 0.0
C1057 C 0.66103 0.15138 0.23066 0.0
C1058 C 0.1002 0.65004 0.23064 0.0
C1059 C 0.06963 0.6238 0.23029 0.0
H1060 H 0.18369 0.67152 0.23067 0.0
C1061 C 0.10244 0.59855 0.23006 0.0
H1062 H 0.0765 0.67005 0.2311 0.0
C1063 C 0.16409 0.59953 0.2296 0.0
C1064 C 0.19466 0.62578 0.2297 0.0
H1065 H 0.0806 0.57805 0.22984 0.0
H1066 H 0.1878 0.57952 0.22926 0.0
C1067 C 0.16185 0.65102 0.23051 0.0
C1068 C 0.66256 0.64956 0.50324 0.0
C1069 C 0.69309 0.6233 0.50348 0.0
H1070 H 0.57909 0.67106 0.50272 0.0
C1071 C 0.66024 0.59807 0.503 0.0
H1072 H 0.6863 0.66956 0.50331 0.0
C1073 C 0.59859 0.59906 0.50286 0.0
C1074 C 0.56806 0.62531 0.50286 0.0
H1075 H 0.68204 0.57756 0.50311 0.0
H1076 H 0.57486 0.57905 0.50266 0.0
C1077 C 0.60091 0.65055 0.50277 0.0
C1078 C 0.10203 0.15106 0.50325 0.0
C1079 C 0.06912 0.12584 0.5034 0.0
H1080 H 0.18746 0.17003 0.5036 0.0
C1081 C 0.09959 0.09957 0.50332 0.0
H1082 H 0.08025 0.17158 0.50325 0.0
C1083 C 0.16123 0.09855 0.50332 0.0
C1084 C 0.19414 0.12377 0.50372 0.0
H1085 H 0.07581 0.07958 0.50317 0.0
H1086 H 0.183 0.07803 0.50336 0.0
C1087 C 0.16368 0.15004 0.50357 0.0
loop_
_geom_bond_atom_site_label_1
_geom_bond_atom_site_label_2
_geom_bond_distance
_geom_bond_site_symmetry_2
_ccdc_geom_bond_type
Co0 O1 2.216 . S
Co0 O2 2.091 . S
Co0 O4 2.004 . S
Co0 O10 2.021 . S
Co0 O12 2.137 . S
Co0 O13 2.244 . S
O1 Co0 2.216 . S
O1 C8 1.247 . S
O2 Co0 2.091 . S
O2 C8 1.261 . S
C3 O12 1.247 . S
C3 O13 1.272 . S
O4 Co0 2.004 . S
O4 C9 1.259 . S
Co5 O6 2.061 . S
Co5 O11 2.052 . S
Co5 O13 2.135 . S
O6 Co5 2.061 . S
O6 C9 1.235 . S
C7 O10 1.238 . S
C7 O11 1.241 . S
C8 O1 1.247 . S
C8 O2 1.261 . S
C9 O4 1.259 . S
C9 O6 1.235 . S
O10 Co0 2.021 . S
O10 C7 1.238 . S
O11 Co5 2.052 . S
O11 C7 1.241 . S
O12 Co0 2.137 . S
O12 C3 1.247 . S
O13 Co0 2.244 . S
O13 C3 1.272 . S
O13 Co5 2.135 . S
Co14 O15 2.216 . S
Co14 O16 2.091 . S
Co14 O18 2.004 . S
Co14 O24 2.021 . S
Co14 O26 2.137 . S
Co14 O27 2.244 . S
O15 Co14 2.216 . S
O15 C22 1.247 . S
O16 Co14 2.091 . S
O16 C22 1.261 . S
C17 O26 1.247 . S
C17 O27 1.272 . S
O18 Co14 2.004 . S
O18 C23 1.259 1_455 S
Co19 O20 2.061 . S
Co19 O25 2.052 . S
Co19 O27 2.135 . S
O20 Co19 2.061 . S
O20 C23 1.235 1_455 S
C21 O24 1.238 . S
C21 O25 1.241 . S
C22 O15 1.247 . S
C22 O16 1.261 . S
C23 O18 1.259 1_655 S
C23 O20 1.235 1_655 S
O24 Co14 2.021 . S
O24 C21 1.238 . S
O25 Co19 2.052 . S
O25 C21 1.241 . S
O26 Co14 2.137 . S
O26 C17 1.247 . S
O27 Co14 2.244 . S
O27 C17 1.272 . S
O27 Co19 2.135 . S
Co28 O29 2.216 . S
Co28 O30 2.091 . S
Co28 O32 2.004 . S
Co28 O38 2.021 1_556 S
Co28 O40 2.137 . S
Co28 O41 2.244 . S
O29 Co28 2.216 . S
O29 C36 1.247 . S
O30 Co28 2.091 . S
O30 C36 1.261 . S
C31 O40 1.247 . S
C31 O41 1.272 . S
O32 Co28 2.004 . S
O32 C37 1.263 . S
Co33 O34 2.061 . S
Co33 O39 2.052 . S
Co33 O41 2.135 1_554 S
O34 Co33 2.061 . S
O34 C37 1.232 1_554 S
C35 O38 1.238 . S
C35 O39 1.241 . S
C36 O29 1.247 . S
C36 O30 1.261 . S
C37 O32 1.263 . S
C37 O34 1.232 1_556 S
O38 Co28 2.021 1_554 S
O38 C35 1.238 . S
O39 Co33 2.052 . S
O39 C35 1.241 . S
O40 Co28 2.137 . S
O40 C31 1.247 . S
O41 Co28 2.244 . S
O41 C31 1.272 . S
O41 Co33 2.135 1_556 S
Co42 O43 2.216 . S
Co42 O44 2.091 . S
Co42 O46 2.004 . S
Co42 O52 2.021 1_556 S
Co42 O54 2.137 . S
Co42 O55 2.244 . S
O43 Co42 2.216 . S
O43 C50 1.247 . S
O44 Co42 2.091 . S
O44 C50 1.261 . S
C45 O54 1.247 . S
C45 O55 1.272 . S
O46 Co42 2.004 . S
O46 C51 1.263 1_455 S
Co47 O48 2.061 . S
Co47 O53 2.052 . S
Co47 O55 2.135 1_554 S
O48 Co47 2.061 . S
O48 C51 1.232 1_454 S
C49 O52 1.238 . S
C49 O53 1.241 . S
C50 O43 1.247 . S
C50 O44 1.261 . S
C51 O46 1.263 1_655 S
C51 O48 1.232 1_656 S
O52 Co42 2.021 1_554 S
O52 C49 1.238 . S
O53 Co47 2.052 . S
O53 C49 1.241 . S
O54 Co42 2.137 . S
O54 C45 1.247 . S
O55 Co42 2.244 . S
O55 C45 1.272 . S
O55 Co47 2.135 1_556 S
Co56 O57 2.216 . S
Co56 O58 2.091 . S
Co56 O60 2.004 . S
Co56 O66 2.021 . S
Co56 O68 2.137 . S
Co56 O69 2.244 . S
O57 Co56 2.216 . S
O57 C64 1.247 . S
O58 Co56 2.091 . S
O58 C64 1.261 . S
C59 O68 1.247 . S
C59 O69 1.272 . S
O60 Co56 2.004 . S
O60 C65 1.259 . S
Co61 O62 2.061 . S
Co61 O67 2.052 . S
Co61 O69 2.135 . S
O62 Co61 2.061 . S
O62 C65 1.235 . S
C63 O66 1.238 . S
C63 O67 1.241 . S
C64 O57 1.247 . S
C64 O58 1.261 . S
C65 O60 1.259 . S
C65 O62 1.235 . S
O66 Co56 2.021 . S
O66 C63 1.238 . S
O67 Co61 2.052 . S
O67 C63 1.241 . S
O68 Co56 2.137 . S
O68 C59 1.247 . S
O69 Co56 2.244 . S
O69 C59 1.272 . S
O69 Co61 2.135 . S
Co70 O71 2.216 . S
Co70 O72 2.091 . S
Co70 O74 2.004 . S
Co70 O80 2.021 . S
Co70 O82 2.137 . S
Co70 O83 2.244 . S
O71 Co70 2.216 . S
O71 C78 1.247 . S
O72 Co70 2.091 . S
O72 C78 1.261 . S
C73 O82 1.247 . S
C73 O83 1.272 . S
O74 Co70 2.004 . S
O74 C79 1.259 1_655 S
Co75 O76 2.061 . S
Co75 O81 2.052 . S
Co75 O83 2.135 . S
O76 Co75 2.061 . S
O76 C79 1.235 1_655 S
C77 O80 1.238 . S
C77 O81 1.241 . S
C78 O71 1.247 . S
C78 O72 1.261 . S
C79 O74 1.259 1_455 S
C79 O76 1.235 1_455 S
O80 Co70 2.021 . S
O80 C77 1.238 . S
O81 Co75 2.052 . S
O81 C77 1.241 . S
O82 Co70 2.137 . S
O82 C73 1.247 . S
O83 Co70 2.244 . S
O83 C73 1.272 . S
O83 Co75 2.135 . S
Co84 O85 2.216 . S
Co84 O86 2.091 . S
Co84 O88 2.004 . S
Co84 O94 2.021 1_554 S
Co84 O96 2.137 . S
Co84 O97 2.244 . S
O85 Co84 2.216 . S
O85 C92 1.247 . S
O86 Co84 2.091 . S
O86 C92 1.261 . S
C87 O96 1.247 . S
C87 O97 1.272 . S
O88 Co84 2.004 . S
O88 C93 1.263 . S
Co89 O90 2.061 . S
Co89 O95 2.052 . S
Co89 O97 2.135 1_556 S
O90 Co89 2.061 . S
O90 C93 1.232 1_556 S
C91 O94 1.238 . S
C91 O95 1.241 . S
C92 O85 1.247 . S
C92 O86 1.261 . S
C93 O88 1.263 . S
C93 O90 1.232 1_554 S
O94 Co84 2.021 1_556 S
O94 C91 1.238 . S
O95 Co89 2.052 . S
O95 C91 1.241 . S
O96 Co84 2.137 . S
O96 C87 1.247 . S
O97 Co84 2.244 . S
O97 C87 1.272 . S
O97 Co89 2.135 1_554 S
Co98 O99 2.216 . S
Co98 O100 2.091 . S
Co98 O102 2.004 . S
Co98 O108 2.021 1_554 S
Co98 O110 2.137 . S
Co98 O111 2.244 . S
O99 Co98 2.216 . S
O99 C106 1.247 . S
O100 Co98 2.091 . S
O100 C106 1.261 . S
C101 O110 1.247 . S
C101 O111 1.272 . S
O102 Co98 2.004 . S
O102 C107 1.263 1_655 S
Co103 O104 2.061 . S
Co103 O109 2.052 . S
Co103 O111 2.135 1_556 S
O104 Co103 2.061 . S
O104 C107 1.232 1_656 S
C105 O108 1.238 . S
C105 O109 1.241 . S
C106 O99 1.247 . S
C106 O100 1.261 . S
C107 O102 1.263 1_455 S
C107 O104 1.232 1_454 S
O108 Co98 2.021 1_556 S
O108 C105 1.238 . S
O109 Co103 2.052 . S
O109 C105 1.241 . S
O110 Co98 2.137 . S
O110 C101 1.247 . S
O111 Co98 2.244 . S
O111 C101 1.272 . S
O111 Co103 2.135 1_554 S
Co112 O113 2.216 . S
Co112 O114 2.091 . S
Co112 O116 2.004 . S
Co112 O122 2.021 . S
Co112 O124 2.137 . S
Co112 O125 2.244 . S
O113 Co112 2.216 . S
O113 C120 1.247 . S
O114 Co112 2.091 . S
O114 C120 1.261 . S
C115 O124 1.247 . S
C115 O125 1.272 . S
O116 Co112 2.004 . S
O116 C121 1.259 . S
Co117 O118 2.061 . S
Co117 O123 2.052 . S
Co117 O125 2.135 . S
O118 Co117 2.061 . S
O118 C121 1.235 . S
C119 O122 1.238 . S
C119 O123 1.241 . S
C120 O113 1.247 . S
C120 O114 1.261 . S
C121 O116 1.259 . S
C121 O118 1.235 . S
O122 Co112 2.021 . S
O122 C119 1.238 . S
O123 Co117 2.052 . S
O123 C119 1.241 . S
O124 Co112 2.137 . S
O124 C115 1.247 . S
O125 Co112 2.244 . S
O125 C115 1.272 . S
O125 Co117 2.135 . S
Co126 O127 2.216 . S
Co126 O128 2.091 . S
Co126 O130 2.004 . S
Co126 O136 2.021 . S
Co126 O138 2.137 . S
Co126 O139 2.244 . S
O127 Co126 2.216 . S
O127 C134 1.247 . S
O128 Co126 2.091 . S
O128 C134 1.261 . S
C129 O138 1.247 . S
C129 O139 1.272 . S
O130 Co126 2.004 . S
O130 C135 1.259 1_455 S
Co131 O132 2.061 . S
Co131 O137 2.052 . S
Co131 O139 2.135 . S
O132 Co131 2.061 . S
O132 C135 1.235 1_455 S
C133 O136 1.238 . S
C133 O137 1.241 . S
C134 O127 1.247 . S
C134 O128 1.261 . S
C135 O130 1.259 1_655 S
C135 O132 1.235 1_655 S
O136 Co126 2.021 . S
O136 C133 1.238 . S
O137 Co131 2.052 . S
O137 C133 1.241 . S
O138 Co126 2.137 . S
O138 C129 1.247 . S
O139 Co126 2.244 . S
O139 C129 1.272 . S
O139 Co131 2.135 . S
Co140 O141 2.216 . S
Co140 O142 2.091 . S
Co140 O144 2.004 . S
Co140 O150 2.021 . S
Co140 O152 2.137 . S
Co140 O153 2.244 . S
O141 Co140 2.216 . S
O141 C148 1.247 . S
O142 Co140 2.091 . S
O142 C148 1.261 . S
C143 O152 1.247 . S
C143 O153 1.272 . S
O144 Co140 2.004 . S
O144 C149 1.259 . S
Co145 O146 2.061 . S
Co145 O151 2.052 . S
Co145 O153 2.135 . S
O146 Co145 2.061 . S
O146 C149 1.235 . S
C147 O150 1.238 . S
C147 O151 1.241 . S
C148 O141 1.247 . S
C148 O142 1.261 . S
C149 O144 1.259 . S
C149 O146 1.235 . S
O150 Co140 2.021 . S
O150 C147 1.238 . S
O151 Co145 2.052 . S
O151 C147 1.241 . S
O152 Co140 2.137 . S
O152 C143 1.247 . S
O153 Co140 2.244 . S
O153 C143 1.272 . S
O153 Co145 2.135 . S
Co154 O155 2.216 . S
Co154 O156 2.091 . S
Co154 O158 2.004 . S
Co154 O164 2.021 . S
Co154 O166 2.137 . S
Co154 O167 2.244 . S
O155 Co154 2.216 . S
O155 C162 1.247 . S
O156 Co154 2.091 . S
O156 C162 1.261 . S
C157 O166 1.247 . S
C157 O167 1.272 . S
O158 Co154 2.004 . S
O158 C163 1.259 1_455 S
Co159 O160 2.061 . S
Co159 O165 2.052 . S
Co159 O167 2.135 . S
O160 Co159 2.061 . S
O160 C163 1.235 1_455 S
C161 O164 1.238 . S
C161 O165 1.241 . S
C162 O155 1.247 . S
C162 O156 1.261 . S
C163 O158 1.259 1_655 S
C163 O160 1.235 1_655 S
O164 Co154 2.021 . S
O164 C161 1.238 . S
O165 Co159 2.052 . S
O165 C161 1.241 . S
O166 Co154 2.137 . S
O166 C157 1.247 . S
O167 Co154 2.244 . S
O167 C157 1.272 . S
O167 Co159 2.135 . S
Co168 O169 2.216 . S
Co168 O170 2.091 . S
Co168 O172 2.004 . S
Co168 O178 2.021 . S
Co168 O180 2.137 . S
Co168 O181 2.244 . S
O169 Co168 2.216 . S
O169 C176 1.247 . S
O170 Co168 2.091 . S
O170 C176 1.261 . S
C171 O180 1.247 . S
C171 O181 1.272 . S
O172 Co168 2.004 . S
O172 C177 1.259 . S
Co173 O174 2.061 . S
Co173 O179 2.052 . S
Co173 O181 2.135 . S
O174 Co173 2.061 . S
O174 C177 1.235 . S
C175 O178 1.238 . S
C175 O179 1.241 . S
C176 O169 1.247 . S
C176 O170 1.261 . S
C177 O172 1.259 . S
C177 O174 1.235 . S
O178 Co168 2.021 . S
O178 C175 1.238 . S
O179 Co173 2.052 . S
O179 C175 1.241 . S
O180 Co168 2.137 . S
O180 C171 1.247 . S
O181 Co168 2.244 . S
O181 C171 1.272 . S
O181 Co173 2.135 . S
Co182 O183 2.216 . S
Co182 O184 2.091 . S
Co182 O186 2.004 . S
Co182 O192 2.021 . S
Co182 O194 2.137 . S
Co182 O195 2.244 . S
O183 Co182 2.216 . S
O183 C190 1.247 . S
O184 Co182 2.091 . S
O184 C190 1.261 . S
C185 O194 1.247 . S
C185 O195 1.272 . S
O186 Co182 2.004 . S
O186 C191 1.259 1_655 S
Co187 O188 2.061 . S
Co187 O193 2.052 . S
Co187 O195 2.135 . S
O188 Co187 2.061 . S
O188 C191 1.235 1_655 S
C189 O192 1.238 . S
C189 O193 1.241 . S
C190 O183 1.247 . S
C190 O184 1.261 . S
C191 O186 1.259 1_455 S
C191 O188 1.235 1_455 S
O192 Co182 2.021 . S
O192 C189 1.238 . S
O193 Co187 2.052 . S
O193 C189 1.241 . S
O194 Co182 2.137 . S
O194 C185 1.247 . S
O195 Co182 2.244 . S
O195 C185 1.272 . S
O195 Co187 2.135 . S
Co196 O197 2.216 . S
Co196 O198 2.091 . S
Co196 O200 2.004 . S
Co196 O206 2.021 . S
Co196 O208 2.137 . S
Co196 O209 2.244 . S
O197 Co196 2.216 . S
O197 C204 1.247 . S
O198 Co196 2.091 . S
O198 C204 1.261 . S
C199 O208 1.247 . S
C199 O209 1.272 . S
O200 Co196 2.004 . S
O200 C205 1.259 . S
Co201 O202 2.061 . S
Co201 O207 2.052 . S
Co201 O209 2.135 . S
O202 Co201 2.061 . S
O202 C205 1.235 . S
C203 O206 1.238 . S
C203 O207 1.241 . S
C204 O197 1.247 . S
C204 O198 1.261 . S
C205 O200 1.259 . S
C205 O202 1.235 . S
O206 Co196 2.021 . S
O206 C203 1.238 . S
O207 Co201 2.052 . S
O207 C203 1.241 . S
O208 Co196 2.137 . S
O208 C199 1.247 . S
O209 Co196 2.244 . S
O209 C199 1.272 . S
O209 Co201 2.135 . S
Co210 O211 2.216 . S
Co210 O212 2.091 . S
Co210 O214 2.004 . S
Co210 O220 2.021 . S
Co210 O222 2.137 . S
Co210 O223 2.244 . S
O211 Co210 2.216 . S
O211 C218 1.247 . S
O212 Co210 2.091 . S
O212 C218 1.261 . S
C213 O222 1.247 . S
C213 O223 1.272 . S
O214 Co210 2.004 . S
O214 C219 1.259 1_655 S
Co215 O216 2.061 . S
Co215 O221 2.052 . S
Co215 O223 2.135 . S
O216 Co215 2.061 . S
O216 C219 1.235 1_655 S
C217 O220 1.238 . S
C217 O221 1.241 . S
C218 O211 1.247 . S
C218 O212 1.261 . S
C219 O214 1.259 1_455 S
C219 O216 1.235 1_455 S
O220 Co210 2.021 . S
O220 C217 1.238 . S
O221 Co215 2.052 . S
O221 C217 1.241 . S
O222 Co210 2.137 . S
O222 C213 1.247 . S
O223 Co210 2.244 . S
O223 C213 1.272 . S
O223 Co215 2.135 . S
Co224 O225 2.216 . S
Co224 O226 2.091 . S
Co224 O228 2.004 . S
Co224 O234 2.021 . S
Co224 O236 2.137 . S
Co224 O237 2.244 . S
O225 Co224 2.216 . S
O225 C232 1.247 . S
O226 Co224 2.091 . S
O226 C232 1.261 . S
C227 O236 1.247 . S
C227 O237 1.272 . S
O228 Co224 2.004 . S
O228 C233 1.259 . S
Co229 O230 2.061 . S
Co229 O235 2.052 . S
Co229 O237 2.135 . S
O230 Co229 2.061 . S
O230 C233 1.235 . S
C231 O234 1.238 . S
C231 O235 1.241 . S
C232 O225 1.247 . S
C232 O226 1.261 . S
C233 O228 1.259 . S
C233 O230 1.235 . S
O234 Co224 2.021 . S
O234 C231 1.238 . S
O235 Co229 2.052 . S
O235 C231 1.241 . S
O236 Co224 2.137 . S
O236 C227 1.247 . S
O237 Co224 2.244 . S
O237 C227 1.272 . S
O237 Co229 2.135 . S
Co238 O239 2.216 . S
Co238 O240 2.091 . S
Co238 O242 2.004 . S
Co238 O248 2.021 . S
Co238 O250 2.137 . S
Co238 O251 2.244 . S
O239 Co238 2.216 . S
O239 C246 1.247 . S
O240 Co238 2.091 . S
O240 C246 1.261 . S
C241 O250 1.247 . S
C241 O251 1.272 . S
O242 Co238 2.004 . S
O242 C247 1.259 . S
Co243 O244 2.061 . S
Co243 O249 2.052 . S
Co243 O251 2.135 . S
O244 Co243 2.061 . S
O244 C247 1.235 . S
C245 O248 1.238 . S
C245 O249 1.241 . S
C246 O239 1.247 . S
C246 O240 1.261 . S
C247 O242 1.259 . S
C247 O244 1.235 . S
O248 Co238 2.021 . S
O248 C245 1.238 . S
O249 Co243 2.052 . S
O249 C245 1.241 . S
O250 Co238 2.137 . S
O250 C241 1.247 . S
O251 Co238 2.244 . S
O251 C241 1.272 . S
O251 Co243 2.135 . S
Co252 O253 2.216 . S
Co252 O254 2.091 . S
Co252 O256 2.004 . S
Co252 O262 2.021 . S
Co252 O264 2.137 . S
Co252 O265 2.244 . S
O253 Co252 2.216 . S
O253 C260 1.247 . S
O254 Co252 2.091 . S
O254 C260 1.261 . S
C255 O264 1.247 . S
C255 O265 1.272 . S
O256 Co252 2.004 . S
O256 C261 1.259 . S
Co257 O258 2.061 . S
Co257 O263 2.052 . S
Co257 O265 2.135 . S
O258 Co257 2.061 . S
O258 C261 1.235 . S
C259 O262 1.238 . S
C259 O263 1.241 . S
C260 O253 1.247 . S
C260 O254 1.261 . S
C261 O256 1.259 . S
C261 O258 1.235 . S
O262 Co252 2.021 . S
O262 C259 1.238 . S
O263 Co257 2.052 . S
O263 C259 1.241 . S
O264 Co252 2.137 . S
O264 C255 1.247 . S
O265 Co252 2.244 . S
O265 C255 1.272 . S
O265 Co257 2.135 . S
Co266 O267 2.216 . S
Co266 O268 2.091 . S
Co266 O270 2.004 . S
Co266 O276 2.021 . S
Co266 O278 2.137 . S
Co266 O279 2.244 . S
O267 Co266 2.216 . S
O267 C274 1.247 . S
O268 Co266 2.091 . S
O268 C274 1.261 . S
C269 O278 1.247 . S
C269 O279 1.272 . S
O270 Co266 2.004 . S
O270 C275 1.259 . S
Co271 O272 2.061 . S
Co271 O277 2.052 . S
Co271 O279 2.135 . S
O272 Co271 2.061 . S
O272 C275 1.235 . S
C273 O276 1.238 . S
C273 O277 1.241 . S
C274 O267 1.247 . S
C274 O268 1.261 . S
C275 O270 1.259 . S
C275 O272 1.235 . S
O276 Co266 2.021 . S
O276 C273 1.238 . S
O277 Co271 2.052 . S
O277 C273 1.241 . S
O278 Co266 2.137 . S
O278 C269 1.247 . S
O279 Co266 2.244 . S
O279 C269 1.272 . S
O279 Co271 2.135 . S
Co280 O281 2.216 . S
Co280 O282 2.091 . S
Co280 O284 2.004 . S
Co280 O290 2.021 . S
Co280 O292 2.137 . S
Co280 O293 2.244 . S
O281 Co280 2.216 . S
O281 C288 1.247 . S
O282 Co280 2.091 . S
O282 C288 1.261 . S
C283 O292 1.247 . S
C283 O293 1.272 . S
O284 Co280 2.004 . S
O284 C289 1.259 . S
Co285 O286 2.061 . S
Co285 O291 2.052 . S
Co285 O293 2.135 . S
O286 Co285 2.061 . S
O286 C289 1.235 . S
C287 O290 1.238 . S
C287 O291 1.241 . S
C288 O281 1.247 . S
C288 O282 1.261 . S
C289 O284 1.259 . S
C289 O286 1.235 . S
O290 Co280 2.021 . S
O290 C287 1.238 . S
O291 Co285 2.052 . S
O291 C287 1.241 . S
O292 Co280 2.137 . S
O292 C283 1.247 . S
O293 Co280 2.244 . S
O293 C283 1.272 . S
O293 Co285 2.135 . S
Co294 O295 2.216 . S
Co294 O296 2.091 . S
Co294 O298 2.004 . S
Co294 O304 2.021 . S
Co294 O306 2.137 . S
Co294 O307 2.244 . S
O295 Co294 2.216 . S
O295 C302 1.247 . S
O296 Co294 2.091 . S
O296 C302 1.261 . S
C297 O306 1.247 . S
C297 O307 1.272 . S
O298 Co294 2.004 . S
O298 C303 1.259 . S
Co299 O300 2.061 . S
Co299 O305 2.052 . S
Co299 O307 2.135 . S
O300 Co299 2.061 . S
O300 C303 1.235 . S
C301 O304 1.238 . S
C301 O305 1.241 . S
C302 O295 1.247 . S
C302 O296 1.261 . S
C303 O298 1.259 . S
C303 O300 1.235 . S
O304 Co294 2.021 . S
O304 C301 1.238 . S
O305 Co299 2.052 . S
O305 C301 1.241 . S
O306 Co294 2.137 . S
O306 C297 1.247 . S
O307 Co294 2.244 . S
O307 C297 1.272 . S
O307 Co299 2.135 . S
Co308 O309 2.216 . S
Co308 O310 2.091 . S
Co308 O312 2.004 . S
Co308 O318 2.021 . S
Co308 O320 2.137 . S
Co308 O321 2.244 . S
O309 Co308 2.216 . S
O309 C316 1.247 . S
O310 Co308 2.091 . S
O310 C316 1.261 . S
C311 O320 1.247 . S
C311 O321 1.272 . S
O312 Co308 2.004 . S
O312 C317 1.259 . S
Co313 O314 2.061 . S
Co313 O319 2.052 . S
Co313 O321 2.135 . S
O314 Co313 2.061 . S
O314 C317 1.235 . S
C315 O318 1.238 . S
C315 O319 1.241 . S
C316 O309 1.247 . S
C316 O310 1.261 . S
C317 O312 1.259 . S
C317 O314 1.235 . S
O318 Co308 2.021 . S
O318 C315 1.238 . S
O319 Co313 2.052 . S
O319 C315 1.241 . S
O320 Co308 2.137 . S
O320 C311 1.247 . S
O321 Co308 2.244 . S
O321 C311 1.272 . S
O321 Co313 2.135 . S
Co322 O323 2.216 . S
Co322 O324 2.091 . S
Co322 O326 2.004 . S
Co322 O332 2.021 . S
Co322 O334 2.137 . S
Co322 O335 2.244 . S
O323 Co322 2.216 . S
O323 C330 1.247 . S
O324 Co322 2.091 . S
O324 C330 1.261 . S
C325 O334 1.247 . S
C325 O335 1.272 . S
O326 Co322 2.004 . S
O326 C331 1.259 . S
Co327 O328 2.061 . S
Co327 O333 2.052 . S
Co327 O335 2.135 . S
O328 Co327 2.061 . S
O328 C331 1.235 . S
C329 O332 1.238 . S
C329 O333 1.241 . S
C330 O323 1.247 . S
C330 O324 1.261 . S
C331 O326 1.259 . S
C331 O328 1.235 . S
O332 Co322 2.021 . S
O332 C329 1.238 . S
O333 Co327 2.052 . S
O333 C329 1.241 . S
O334 Co322 2.137 . S
O334 C325 1.247 . S
O335 Co322 2.244 . S
O335 C325 1.272 . S
O335 Co327 2.135 . S
Co336 O337 2.216 . S
Co336 O338 2.091 . S
Co336 O340 2.004 . S
Co336 O346 2.021 . S
Co336 O348 2.137 . S
Co336 O349 2.244 . S
O337 Co336 2.216 . S
O337 C344 1.247 . S
O338 Co336 2.091 . S
O338 C344 1.261 . S
C339 O348 1.247 . S
C339 O349 1.272 . S
O340 Co336 2.004 . S
O340 C345 1.259 . S
Co341 O342 2.061 . S
Co341 O347 2.052 . S
Co341 O349 2.135 . S
O342 Co341 2.061 . S
O342 C345 1.235 . S
C343 O346 1.238 . S
C343 O347 1.241 . S
C344 O337 1.247 . S
C344 O338 1.261 . S
C345 O340 1.259 . S
C345 O342 1.235 . S
O346 Co336 2.021 . S
O346 C343 1.238 . S
O347 Co341 2.052 . S
O347 C343 1.241 . S
O348 Co336 2.137 . S
O348 C339 1.247 . S
O349 Co336 2.244 . S
O349 C339 1.272 . S
O349 Co341 2.135 . S
Co350 O351 2.216 . S
Co350 O352 2.091 . S
Co350 O354 2.004 . S
Co350 O360 2.021 . S
Co350 O362 2.137 . S
Co350 O363 2.244 . S
O351 Co350 2.216 . S
O351 C358 1.247 . S
O352 Co350 2.091 . S
O352 C358 1.261 . S
C353 O362 1.247 . S
C353 O363 1.272 . S
O354 Co350 2.004 . S
O354 C359 1.259 . S
Co355 O356 2.061 . S
Co355 O361 2.052 . S
Co355 O363 2.135 . S
O356 Co355 2.061 . S
O356 C359 1.235 . S
C357 O360 1.238 . S
C357 O361 1.241 . S
C358 O351 1.247 . S
C358 O352 1.261 . S
C359 O354 1.259 . S
C359 O356 1.235 . S
O360 Co350 2.021 . S
O360 C357 1.238 . S
O361 Co355 2.052 . S
O361 C357 1.241 . S
O362 Co350 2.137 . S
O362 C353 1.247 . S
O363 Co350 2.244 . S
O363 C353 1.272 . S
O363 Co355 2.135 . S
Co364 O365 2.216 . S
Co364 O366 2.091 . S
Co364 O368 2.004 . S
Co364 O374 2.021 1_556 S
Co364 O376 2.137 . S
Co364 O377 2.244 . S
O365 Co364 2.216 . S
O365 C372 1.247 . S
O366 Co364 2.091 . S
O366 C372 1.261 . S
C367 O376 1.247 . S
C367 O377 1.272 . S
O368 Co364 2.004 . S
O368 C373 1.263 . S
Co369 O370 2.061 . S
Co369 O375 2.052 . S
Co369 O377 2.135 1_554 S
O370 Co369 2.061 . S
O370 C373 1.232 1_554 S
C371 O374 1.238 . S
C371 O375 1.241 . S
C372 O365 1.247 . S
C372 O366 1.261 . S
C373 O368 1.263 . S
C373 O370 1.232 1_556 S
O374 Co364 2.021 1_554 S
O374 C371 1.238 . S
O375 Co369 2.052 . S
O375 C371 1.241 . S
O376 Co364 2.137 . S
O376 C367 1.247 . S
O377 Co364 2.244 . S
O377 C367 1.272 . S
O377 Co369 2.135 1_556 S
Co378 O379 2.216 . S
Co378 O380 2.091 . S
Co378 O382 2.004 . S
Co378 O388 2.021 1_556 S
Co378 O390 2.137 . S
Co378 O391 2.244 . S
O379 Co378 2.216 . S
O379 C386 1.247 . S
O380 Co378 2.091 . S
O380 C386 1.261 . S
C381 O390 1.247 . S
C381 O391 1.272 . S
O382 Co378 2.004 . S
O382 C387 1.263 . S
Co383 O384 2.061 . S
Co383 O389 2.052 . S
Co383 O391 2.135 1_554 S
O384 Co383 2.061 . S
O384 C387 1.232 1_554 S
C385 O388 1.238 . S
C385 O389 1.241 . S
C386 O379 1.247 . S
C386 O380 1.261 . S
C387 O382 1.263 . S
C387 O384 1.232 1_556 S
O388 Co378 2.021 1_554 S
O388 C385 1.238 . S
O389 Co383 2.052 . S
O389 C385 1.241 . S
O390 Co378 2.137 . S
O390 C381 1.247 . S
O391 Co378 2.244 . S
O391 C381 1.272 . S
O391 Co383 2.135 1_556 S
Co392 O393 2.216 . S
Co392 O394 2.091 . S
Co392 O396 2.004 . S
Co392 O402 2.021 . S
Co392 O404 2.137 . S
Co392 O405 2.244 . S
O393 Co392 2.216 . S
O393 C400 1.247 . S
O394 Co392 2.091 . S
O394 C400 1.261 . S
C395 O404 1.247 . S
C395 O405 1.272 . S
O396 Co392 2.004 . S
O396 C401 1.259 . S
Co397 O398 2.061 . S
Co397 O403 2.052 . S
Co397 O405 2.135 . S
O398 Co397 2.061 . S
O398 C401 1.235 . S
C399 O402 1.238 . S
C399 O403 1.241 . S
C400 O393 1.247 . S
C400 O394 1.261 . S
C401 O396 1.259 . S
C401 O398 1.235 . S
O402 Co392 2.021 . S
O402 C399 1.238 . S
O403 Co397 2.052 . S
O403 C399 1.241 . S
O404 Co392 2.137 . S
O404 C395 1.247 . S
O405 Co392 2.244 . S
O405 C395 1.272 . S
O405 Co397 2.135 . S
Co406 O407 2.216 . S
Co406 O408 2.091 . S
Co406 O410 2.004 . S
Co406 O416 2.021 . S
Co406 O418 2.137 . S
Co406 O419 2.244 . S
O407 Co406 2.216 . S
O407 C414 1.247 . S
O408 Co406 2.091 . S
O408 C414 1.261 . S
C409 O418 1.247 . S
C409 O419 1.272 . S
O410 Co406 2.004 . S
O410 C415 1.259 . S
Co411 O412 2.061 . S
Co411 O417 2.052 . S
Co411 O419 2.135 . S
O412 Co411 2.061 . S
O412 C415 1.235 . S
C413 O416 1.238 . S
C413 O417 1.241 . S
C414 O407 1.247 . S
C414 O408 1.261 . S
C415 O410 1.259 . S
C415 O412 1.235 . S
O416 Co406 2.021 . S
O416 C413 1.238 . S
O417 Co411 2.052 . S
O417 C413 1.241 . S
O418 Co406 2.137 . S
O418 C409 1.247 . S
O419 Co406 2.244 . S
O419 C409 1.272 . S
O419 Co411 2.135 . S
Co420 O421 2.216 . S
Co420 O422 2.091 . S
Co420 O424 2.004 . S
Co420 O430 2.021 1_554 S
Co420 O432 2.137 . S
Co420 O433 2.244 . S
O421 Co420 2.216 . S
O421 C428 1.247 . S
O422 Co420 2.091 . S
O422 C428 1.261 . S
C423 O432 1.247 . S
C423 O433 1.272 . S
O424 Co420 2.004 . S
O424 C429 1.263 . S
Co425 O426 2.061 . S
Co425 O431 2.052 . S
Co425 O433 2.135 1_556 S
O426 Co425 2.061 . S
O426 C429 1.232 1_556 S
C427 O430 1.238 . S
C427 O431 1.241 . S
C428 O421 1.247 . S
C428 O422 1.261 . S
C429 O424 1.263 . S
C429 O426 1.232 1_554 S
O430 Co420 2.021 1_556 S
O430 C427 1.238 . S
O431 Co425 2.052 . S
O431 C427 1.241 . S
O432 Co420 2.137 . S
O432 C423 1.247 . S
O433 Co420 2.244 . S
O433 C423 1.272 . S
O433 Co425 2.135 1_554 S
Co434 O435 2.216 . S
Co434 O436 2.091 . S
Co434 O438 2.004 . S
Co434 O444 2.021 1_554 S
Co434 O446 2.137 . S
Co434 O447 2.244 . S
O435 Co434 2.216 . S
O435 C442 1.247 . S
O436 Co434 2.091 . S
O436 C442 1.261 . S
C437 O446 1.247 . S
C437 O447 1.272 . S
O438 Co434 2.004 . S
O438 C443 1.263 . S
Co439 O440 2.061 . S
Co439 O445 2.052 . S
Co439 O447 2.135 1_556 S
O440 Co439 2.061 . S
O440 C443 1.232 1_556 S
C441 O444 1.238 . S
C441 O445 1.241 . S
C442 O435 1.247 . S
C442 O436 1.261 . S
C443 O438 1.263 . S
C443 O440 1.232 1_554 S
O444 Co434 2.021 1_556 S
O444 C441 1.238 . S
O445 Co439 2.052 . S
O445 C441 1.241 . S
O446 Co434 2.137 . S
O446 C437 1.247 . S
O447 Co434 2.244 . S
O447 C437 1.272 . S
O447 Co439 2.135 1_554 S
C448 C449 1.387 . S
C448 H452 0.950 . S
C448 C457 1.390 . S
C449 C448 1.387 . S
C449 C451 1.387 . S
H450 C457 0.950 . S
C451 C449 1.387 . S
C451 C453 1.390 . S
C451 H455 0.950 . S
H452 C448 0.950 . S
C453 C451 1.390 . S
C453 C454 1.387 . S
C453 H456 0.950 . S
C454 C453 1.387 . S
C454 C457 1.387 . S
H455 C451 0.950 . S
H456 C453 0.950 . S
C457 C448 1.390 . S
C457 H450 0.950 . S
C457 C454 1.387 . S
C458 C459 1.387 . S
C458 H462 0.950 . S
C458 C467 1.390 . S
C459 C458 1.387 . S
C459 C461 1.387 . S
H460 C467 0.950 . S
C461 C459 1.387 . S
C461 C463 1.390 . S
C461 H465 0.950 . S
H462 C458 0.950 . S
C463 C461 1.390 . S
C463 C464 1.387 . S
C463 H466 0.950 . S
C464 C463 1.387 . S
C464 C467 1.387 . S
H465 C461 0.950 . S
H466 C463 0.950 . S
C467 C458 1.390 . S
C467 H460 0.950 . S
C467 C464 1.387 . S
C468 C469 1.387 . S
C468 H472 0.950 . S
C468 C477 1.390 . S
C469 C468 1.387 . S
C469 C471 1.387 . S
H470 C477 0.950 . S
C471 C469 1.387 . S
C471 C473 1.390 . S
C471 H475 0.950 . S
H472 C468 0.950 . S
C473 C471 1.390 . S
C473 C474 1.387 . S
C473 H476 0.950 . S
C474 C473 1.387 . S
C474 C477 1.387 . S
H475 C471 0.950 . S
H476 C473 0.950 . S
C477 C468 1.390 . S
C477 H470 0.950 . S
C477 C474 1.387 . S
C478 C479 1.387 . S
C478 H482 0.950 . S
C478 C487 1.390 . S
C479 C478 1.387 . S
C479 C481 1.387 . S
H480 C487 0.950 . S
C481 C479 1.387 . S
C481 C483 1.390 . S
C481 H485 0.950 . S
H482 C478 0.950 . S
C483 C481 1.390 . S
C483 C484 1.387 . S
C483 H486 0.950 . S
C484 C483 1.387 . S
C484 C487 1.387 . S
H485 C481 0.950 . S
H486 C483 0.950 . S
C487 C478 1.390 . S
C487 H480 0.950 . S
C487 C484 1.387 . S
C488 C489 1.387 . S
C488 H492 0.950 . S
C488 C497 1.390 . S
C489 C488 1.387 . S
C489 C491 1.387 . S
H490 C497 0.950 . S
C491 C489 1.387 . S
C491 C493 1.390 . S
C491 H495 0.950 . S
H492 C488 0.950 . S
C493 C491 1.390 . S
C493 C494 1.387 . S
C493 H496 0.950 . S
C494 C493 1.387 . S
C494 C497 1.387 . S
H495 C491 0.950 . S
H496 C493 0.950 . S
C497 C488 1.390 . S
C497 H490 0.950 . S
C497 C494 1.387 . S
C498 C499 1.387 . S
C498 H502 0.950 . S
C498 C507 1.390 . S
C499 C498 1.387 . S
C499 C501 1.387 . S
H500 C507 0.950 . S
C501 C499 1.387 . S
C501 C503 1.390 . S
C501 H505 0.950 . S
H502 C498 0.950 . S
C503 C501 1.390 . S
C503 C504 1.387 . S
C503 H506 0.950 . S
C504 C503 1.387 . S
C504 C507 1.387 . S
H505 C501 0.950 . S
H506 C503 0.950 . S
C507 C498 1.390 . S
C507 H500 0.950 . S
C507 C504 1.387 . S
C508 C509 1.387 . S
C508 H512 0.950 . S
C508 C517 1.390 . S
C509 C508 1.387 . S
C509 C511 1.387 . S
H510 C517 0.950 . S
C511 C509 1.387 . S
C511 C513 1.390 . S
C511 H515 0.950 . S
H512 C508 0.950 . S
C513 C511 1.390 . S
C513 C514 1.387 . S
C513 H516 0.950 . S
C514 C513 1.387 . S
C514 C517 1.387 . S
H515 C511 0.950 . S
H516 C513 0.950 . S
C517 C508 1.390 . S
C517 H510 0.950 . S
C517 C514 1.387 . S
C518 C519 1.387 . S
C518 H522 0.950 . S
C518 C527 1.390 . S
C519 C518 1.387 . S
C519 C521 1.387 . S
H520 C527 0.950 . S
C521 C519 1.387 . S
C521 C523 1.390 . S
C521 H525 0.950 . S
H522 C518 0.950 . S
C523 C521 1.390 . S
C523 C524 1.387 . S
C523 H526 0.950 . S
C524 C523 1.387 . S
C524 C527 1.387 . S
H525 C521 0.950 . S
H526 C523 0.950 . S
C527 C518 1.390 . S
C527 H520 0.950 . S
C527 C524 1.387 . S
C528 C529 1.387 . S
C528 H532 0.950 . S
C528 C537 1.390 . S
C529 C528 1.387 . S
C529 C531 1.387 . S
H530 C537 0.950 . S
C531 C529 1.387 . S
C531 C533 1.390 . S
C531 H535 0.950 . S
H532 C528 0.950 . S
C533 C531 1.390 . S
C533 C534 1.387 . S
C533 H536 0.950 . S
C534 C533 1.387 . S
C534 C537 1.387 . S
H535 C531 0.950 . S
H536 C533 0.950 . S
C537 C528 1.390 . S
C537 H530 0.950 . S
C537 C534 1.387 . S
C538 C539 1.387 . S
C538 H542 0.950 . S
C538 C547 1.390 . S
C539 C538 1.387 . S
C539 C541 1.387 . S
H540 C547 0.950 . S
C541 C539 1.387 . S
C541 C543 1.390 . S
C541 H545 0.950 . S
H542 C538 0.950 . S
C543 C541 1.390 . S
C543 C544 1.387 . S
C543 H546 0.950 . S
C544 C543 1.387 . S
C544 C547 1.387 . S
H545 C541 0.950 . S
H546 C543 0.950 . S
C547 C538 1.390 . S
C547 H540 0.950 . S
C547 C544 1.387 . S
C548 C549 1.387 . S
C548 H552 0.950 . S
C548 C557 1.390 . S
C549 C548 1.387 . S
C549 C551 1.387 . S
H550 C557 0.950 . S
C551 C549 1.387 . S
C551 C553 1.390 . S
C551 H555 0.950 . S
H552 C548 0.950 . S
C553 C551 1.390 . S
C553 C554 1.387 . S
C553 H556 0.950 . S
C554 C553 1.387 . S
C554 C557 1.387 . S
H555 C551 0.950 . S
H556 C553 0.950 . S
C557 C548 1.390 . S
C557 H550 0.950 . S
C557 C554 1.387 . S
C558 C559 1.387 . S
C558 H562 0.950 . S
C558 C567 1.390 . S
C559 C558 1.387 . S
C559 C561 1.387 . S
H560 C567 0.950 . S
C561 C559 1.387 . S
C561 C563 1.390 . S
C561 H565 0.950 . S
H562 C558 0.950 . S
C563 C561 1.390 . S
C563 C564 1.387 . S
C563 H566 0.950 . S
C564 C563 1.387 . S
C564 C567 1.387 . S
H565 C561 0.950 . S
H566 C563 0.950 . S
C567 C558 1.390 . S
C567 H560 0.950 . S
C567 C564 1.387 . S
C568 C569 1.387 . S
C568 H572 0.950 . S
C568 C577 1.390 . S
C569 C568 1.387 . S
C569 C571 1.387 . S
H570 C577 0.950 . S
C571 C569 1.387 . S
C571 C573 1.390 . S
C571 H575 0.950 . S
H572 C568 0.950 . S
C573 C571 1.390 . S
C573 C574 1.387 . S
C573 H576 0.950 . S
C574 C573 1.387 . S
C574 C577 1.387 . S
H575 C571 0.950 . S
H576 C573 0.950 . S
C577 C568 1.390 . S
C577 H570 0.950 . S
C577 C574 1.387 . S
C578 C579 1.387 . S
C578 H582 0.950 . S
C578 C587 1.390 . S
C579 C578 1.387 . S
C579 C581 1.387 . S
H580 C587 0.950 . S
C581 C579 1.387 . S
C581 C583 1.390 . S
C581 H585 0.950 . S
H582 C578 0.950 . S
C583 C581 1.390 . S
C583 C584 1.387 . S
C583 H586 0.950 . S
C584 C583 1.387 . S
C584 C587 1.387 . S
H585 C581 0.950 . S
H586 C583 0.950 . S
C587 C578 1.390 . S
C587 H580 0.950 . S
C587 C584 1.387 . S
C588 C589 1.387 . S
C588 H592 0.950 . S
C588 C597 1.390 . S
C589 C588 1.387 . S
C589 C591 1.387 . S
H590 C597 0.950 . S
C591 C589 1.387 . S
C591 C593 1.390 . S
C591 H595 0.950 . S
H592 C588 0.950 . S
C593 C591 1.390 . S
C593 C594 1.387 . S
C593 H596 0.950 . S
C594 C593 1.387 . S
C594 C597 1.387 . S
H595 C591 0.950 . S
H596 C593 0.950 . S
C597 C588 1.390 . S
C597 H590 0.950 . S
C597 C594 1.387 . S
C598 C599 1.387 . S
C598 H602 0.950 . S
C598 C607 1.390 . S
C599 C598 1.387 . S
C599 C601 1.387 . S
H600 C607 0.950 . S
C601 C599 1.387 . S
C601 C603 1.390 . S
C601 H605 0.950 . S
H602 C598 0.950 . S
C603 C601 1.390 . S
C603 C604 1.387 . S
C603 H606 0.950 . S
C604 C603 1.387 . S
C604 C607 1.387 . S
H605 C601 0.950 . S
H606 C603 0.950 . S
C607 C598 1.390 . S
C607 H600 0.950 . S
C607 C604 1.387 . S
C608 C609 1.387 . S
C608 H612 0.950 . S
C608 C617 1.390 1_655 S
C609 C608 1.387 . S
C609 C611 1.387 . S
H610 C617 0.950 . S
C611 C609 1.387 . S
C611 C613 1.390 1_655 S
C611 H615 0.950 . S
H612 C608 0.950 . S
C613 C611 1.390 1_455 S
C613 C614 1.387 . S
C613 H616 0.950 . S
C614 C613 1.387 . S
C614 C617 1.387 . S
H615 C611 0.950 . S
H616 C613 0.950 . S
C617 C608 1.390 1_455 S
C617 H610 0.950 . S
C617 C614 1.387 . S
C618 C619 1.387 . S
C618 H622 0.950 . S
C618 C627 1.390 1_565 S
C619 C618 1.387 . S
C619 C621 1.387 . S
H620 C627 0.950 . S
C621 C619 1.387 . S
C621 C623 1.390 1_565 S
C621 H625 0.950 . S
H622 C618 0.950 . S
C623 C621 1.390 1_545 S
C623 C624 1.387 . S
C623 H626 0.950 . S
C624 C623 1.387 . S
C624 C627 1.387 . S
H625 C621 0.950 . S
H626 C623 0.950 . S
C627 C618 1.390 1_545 S
C627 H620 0.950 . S
C627 C624 1.387 . S
C628 C629 1.387 . S
C628 H632 0.950 . S
C628 C637 1.390 1_465 S
C629 C628 1.387 . S
C629 C631 1.387 1_556 S
H630 C637 0.950 . S
C631 C629 1.387 1_554 S
C631 C633 1.390 1_465 S
C631 H635 0.950 . S
H632 C628 0.950 . S
C633 C631 1.390 1_645 S
C633 C634 1.387 . S
C633 H636 0.950 . S
C634 C633 1.387 . S
C634 C637 1.387 1_554 S
H635 C631 0.950 . S
H636 C633 0.950 . S
C637 C628 1.390 1_645 S
C637 H630 0.950 . S
C637 C634 1.387 1_556 S
C638 C639 1.387 . S
C638 H642 0.950 . S
C638 C647 1.390 . S
C639 C638 1.387 . S
C639 C641 1.387 1_554 S
H640 C647 0.950 . S
C641 C639 1.387 1_556 S
C641 C643 1.390 . S
C641 H645 0.950 . S
H642 C638 0.950 . S
C643 C641 1.390 . S
C643 C644 1.387 . S
C643 H646 0.950 . S
C644 C643 1.387 . S
C644 C647 1.387 1_556 S
H645 C641 0.950 . S
H646 C643 0.950 . S
C647 C638 1.390 . S
C647 H640 0.950 . S
C647 C644 1.387 1_554 S
C648 C649 1.387 . S
C648 H652 0.950 . S
C648 C657 1.390 1_655 S
C649 C648 1.387 . S
C649 C651 1.387 . S
H650 C657 0.950 . S
C651 C649 1.387 . S
C651 C653 1.390 1_655 S
C651 H655 0.950 . S
H652 C648 0.950 . S
C653 C651 1.390 1_455 S
C653 C654 1.387 . S
C653 H656 0.950 . S
C654 C653 1.387 . S
C654 C657 1.387 . S
H655 C651 0.950 . S
H656 C653 0.950 . S
C657 C648 1.390 1_455 S
C657 H650 0.950 . S
C657 C654 1.387 . S
C658 C659 1.387 . S
C658 H662 0.950 . S
C658 C667 1.390 1_565 S
C659 C658 1.387 . S
C659 C661 1.387 . S
H660 C667 0.950 . S
C661 C659 1.387 . S
C661 C663 1.390 1_565 S
C661 H665 0.950 . S
H662 C658 0.950 . S
C663 C661 1.390 1_545 S
C663 C664 1.387 . S
C663 H666 0.950 . S
C664 C663 1.387 . S
C664 C667 1.387 . S
H665 C661 0.950 . S
H666 C663 0.950 . S
C667 C658 1.390 1_545 S
C667 H660 0.950 . S
C667 C664 1.387 . S
C668 C669 1.387 1_554 S
C668 H672 0.950 . S
C668 C677 1.390 . S
C669 C668 1.387 1_556 S
C669 C671 1.387 . S
H670 C677 0.950 . S
C671 C669 1.387 . S
C671 C673 1.390 . S
C671 H675 0.950 . S
H672 C668 0.950 . S
C673 C671 1.390 . S
C673 C674 1.387 1_556 S
C673 H676 0.950 . S
C674 C673 1.387 1_554 S
C674 C677 1.387 . S
H675 C671 0.950 . S
H676 C673 0.950 . S
C677 C668 1.390 . S
C677 H670 0.950 . S
C677 C674 1.387 . S
C678 C679 1.387 . S
C678 H682 0.950 . S
C678 C687 1.390 . S
C679 C678 1.387 . S
C679 C681 1.387 . S
H680 C687 0.950 . S
C681 C679 1.387 . S
C681 C683 1.390 . S
C681 H685 0.950 . S
H682 C678 0.950 . S
C683 C681 1.390 . S
C683 C684 1.387 . S
C683 H686 0.950 . S
C684 C683 1.387 . S
C684 C687 1.387 . S
H685 C681 0.950 . S
H686 C683 0.950 . S
C687 C678 1.390 . S
C687 H680 0.950 . S
C687 C684 1.387 . S
C688 C689 1.387 . S
C688 H692 0.950 . S
C688 C697 1.390 1_655 S
C689 C688 1.387 . S
C689 C691 1.387 . S
H690 C697 0.950 . S
C691 C689 1.387 . S
C691 C693 1.390 1_655 S
C691 H695 0.950 . S
H692 C688 0.950 . S
C693 C691 1.390 1_455 S
C693 C694 1.387 . S
C693 H696 0.950 . S
C694 C693 1.387 . S
C694 C697 1.387 . S
H695 C691 0.950 . S
H696 C693 0.950 . S
C697 C688 1.390 1_455 S
C697 H690 0.950 . S
C697 C694 1.387 . S
C698 C699 1.387 . S
C698 H702 0.950 . S
C698 C707 1.390 . S
C699 C698 1.387 . S
C699 C701 1.387 . S
H700 C707 0.950 . S
C701 C699 1.387 . S
C701 C703 1.390 . S
C701 H705 0.950 . S
H702 C698 0.950 . S
C703 C701 1.390 . S
C703 C704 1.387 . S
C703 H706 0.950 . S
C704 C703 1.387 . S
C704 C707 1.387 . S
H705 C701 0.950 . S
H706 C703 0.950 . S
C707 C698 1.390 . S
C707 H700 0.950 . S
C707 C704 1.387 . S
C708 C709 1.387 . S
C708 H712 0.950 . S
C708 C717 1.390 . S
C709 C708 1.387 . S
C709 C711 1.387 . S
H710 C717 0.950 . S
C711 C709 1.387 . S
C711 C713 1.390 . S
C711 H715 0.950 . S
H712 C708 0.950 . S
C713 C711 1.390 . S
C713 C714 1.387 . S
C713 H716 0.950 . S
C714 C713 1.387 . S
C714 C717 1.387 . S
H715 C711 0.950 . S
H716 C713 0.950 . S
C717 C708 1.390 . S
C717 H710 0.950 . S
C717 C714 1.387 . S
C718 C719 1.387 . S
C718 H722 0.950 . S
C718 C727 1.390 . S
C719 C718 1.387 . S
C719 C721 1.387 . S
H720 C727 0.950 . S
C721 C719 1.387 . S
C721 C723 1.390 . S
C721 H725 0.950 . S
H722 C718 0.950 . S
C723 C721 1.390 . S
C723 C724 1.387 . S
C723 H726 0.950 . S
C724 C723 1.387 . S
C724 C727 1.387 . S
H725 C721 0.950 . S
H726 C723 0.950 . S
C727 C718 1.390 . S
C727 H720 0.950 . S
C727 C724 1.387 . S
C728 C729 1.387 . S
C728 H732 0.950 . S
C728 C737 1.390 . S
C729 C728 1.387 . S
C729 C731 1.387 . S
H730 C737 0.950 . S
C731 C729 1.387 . S
C731 C733 1.390 . S
C731 H735 0.950 . S
H732 C728 0.950 . S
C733 C731 1.390 . S
C733 C734 1.387 . S
C733 H736 0.950 . S
C734 C733 1.387 . S
C734 C737 1.387 . S
H735 C731 0.950 . S
H736 C733 0.950 . S
C737 C728 1.390 . S
C737 H730 0.950 . S
C737 C734 1.387 . S
C738 C739 1.387 . S
C738 H742 0.950 . S
C738 C747 1.390 1_545 S
C739 C738 1.387 . S
C739 C741 1.387 . S
H740 C747 0.950 . S
C741 C739 1.387 . S
C741 C743 1.390 1_545 S
C741 H745 0.950 . S
H742 C738 0.950 . S
C743 C741 1.390 1_565 S
C743 C744 1.387 . S
C743 H746 0.950 . S
C744 C743 1.387 . S
C744 C747 1.387 . S
H745 C741 0.950 . S
H746 C743 0.950 . S
C747 C738 1.390 1_565 S
C747 H740 0.950 . S
C747 C744 1.387 . S
C748 C749 1.387 . S
C748 H752 0.950 . S
C748 C757 1.390 . S
C749 C748 1.387 . S
C749 C751 1.387 . S
H750 C757 0.950 . S
C751 C749 1.387 . S
C751 C753 1.390 . S
C751 H755 0.950 . S
H752 C748 0.950 . S
C753 C751 1.390 . S
C753 C754 1.387 . S
C753 H756 0.950 . S
C754 C753 1.387 . S
C754 C757 1.387 . S
H755 C751 0.950 . S
H756 C753 0.950 . S
C757 C748 1.390 . S
C757 H750 0.950 . S
C757 C754 1.387 . S
C758 C759 1.387 1_554 S
C758 H762 0.950 . S
C758 C767 1.390 . S
C759 C758 1.387 1_556 S
C759 C761 1.387 . S
H760 C767 0.950 . S
C761 C759 1.387 . S
C761 C763 1.390 . S
C761 H765 0.950 . S
H762 C758 0.950 . S
C763 C761 1.390 . S
C763 C764 1.387 1_556 S
C763 H766 0.950 . S
C764 C763 1.387 1_554 S
C764 C767 1.387 . S
H765 C761 0.950 . S
H766 C763 0.950 . S
C767 C758 1.390 . S
C767 H760 0.950 . S
C767 C764 1.387 . S
C768 C769 1.387 . S
C768 H772 0.950 . S
C768 C777 1.390 . S
C769 C768 1.387 . S
C769 C771 1.387 . S
H770 C777 0.950 . S
C771 C769 1.387 . S
C771 C773 1.390 . S
C771 H775 0.950 . S
H772 C768 0.950 . S
C773 C771 1.390 . S
C773 C774 1.387 . S
C773 H776 0.950 . S
C774 C773 1.387 . S
C774 C777 1.387 . S
H775 C771 0.950 . S
H776 C773 0.950 . S
C777 C768 1.390 . S
C777 H770 0.950 . S
C777 C774 1.387 . S
C778 C779 1.387 . S
C778 H782 0.950 . S
C778 C787 1.390 . S
C779 C778 1.387 . S
C779 C781 1.387 . S
H780 C787 0.950 . S
C781 C779 1.387 . S
C781 C783 1.390 . S
C781 H785 0.950 . S
H782 C778 0.950 . S
C783 C781 1.390 . S
C783 C784 1.387 . S
C783 H786 0.950 . S
C784 C783 1.387 . S
C784 C787 1.387 . S
H785 C781 0.950 . S
H786 C783 0.950 . S
C787 C778 1.390 . S
C787 H780 0.950 . S
C787 C784 1.387 . S
C788 C789 1.387 . S
C788 H792 0.950 . S
C788 C797 1.390 . S
C789 C788 1.387 . S
C789 C791 1.387 . S
H790 C797 0.950 . S
C791 C789 1.387 . S
C791 C793 1.390 . S
C791 H795 0.950 . S
H792 C788 0.950 . S
C793 C791 1.390 . S
C793 C794 1.387 . S
C793 H796 0.950 . S
C794 C793 1.387 . S
C794 C797 1.387 . S
H795 C791 0.950 . S
H796 C793 0.950 . S
C797 C788 1.390 . S
C797 H790 0.950 . S
C797 C794 1.387 . S
C798 C799 1.387 . S
C798 H802 0.950 . S
C798 C807 1.390 . S
C799 C798 1.387 . S
C799 C801 1.387 . S
H800 C807 0.950 . S
C801 C799 1.387 . S
C801 C803 1.390 . S
C801 H805 0.950 . S
H802 C798 0.950 . S
C803 C801 1.390 . S
C803 C804 1.387 . S
C803 H806 0.950 . S
C804 C803 1.387 . S
C804 C807 1.387 . S
H805 C801 0.950 . S
H806 C803 0.950 . S
C807 C798 1.390 . S
C807 H800 0.950 . S
C807 C804 1.387 . S
C808 C809 1.387 . S
C808 H812 0.950 . S
C808 C817 1.390 . S
C809 C808 1.387 . S
C809 C811 1.387 . S
H810 C817 0.950 . S
C811 C809 1.387 . S
C811 C813 1.390 . S
C811 H815 0.950 . S
H812 C808 0.950 . S
C813 C811 1.390 . S
C813 C814 1.387 . S
C813 H816 0.950 . S
C814 C813 1.387 . S
C814 C817 1.387 . S
H815 C811 0.950 . S
H816 C813 0.950 . S
C817 C808 1.390 . S
C817 H810 0.950 . S
C817 C814 1.387 . S
C818 C819 1.387 . S
C818 H822 0.950 . S
C818 C827 1.390 . S
C819 C818 1.387 . S
C819 C821 1.387 . S
H820 C827 0.950 . S
C821 C819 1.387 . S
C821 C823 1.390 . S
C821 H825 0.950 . S
H822 C818 0.950 . S
C823 C821 1.390 . S
C823 C824 1.387 . S
C823 H826 0.950 . S
C824 C823 1.387 . S
C824 C827 1.387 . S
H825 C821 0.950 . S
H826 C823 0.950 . S
C827 C818 1.390 . S
C827 H820 0.950 . S
C827 C824 1.387 . S
C828 C829 1.387 . S
C828 H832 0.950 . S
C828 C837 1.390 . S
C829 C828 1.387 . S
C829 C831 1.387 . S
H830 C837 0.950 . S
C831 C829 1.387 . S
C831 C833 1.390 . S
C831 H835 0.950 . S
H832 C828 0.950 . S
C833 C831 1.390 . S
C833 C834 1.387 . S
C833 H836 0.950 . S
C834 C833 1.387 . S
C834 C837 1.387 . S
H835 C831 0.950 . S
H836 C833 0.950 . S
C837 C828 1.390 . S
C837 H830 0.950 . S
C837 C834 1.387 . S
C838 C839 1.387 . S
C838 H842 0.950 . S
C838 C847 1.390 . S
C839 C838 1.387 . S
C839 C841 1.387 . S
H840 C847 0.950 . S
C841 C839 1.387 . S
C841 C843 1.390 . S
C841 H845 0.950 . S
H842 C838 0.950 . S
C843 C841 1.390 . S
C843 C844 1.387 . S
C843 H846 0.950 . S
C844 C843 1.387 . S
C844 C847 1.387 . S
H845 C841 0.950 . S
H846 C843 0.950 . S
C847 C838 1.390 . S
C847 H840 0.950 . S
C847 C844 1.387 . S
C848 C849 1.387 . S
C848 H852 0.950 . S
C848 C857 1.390 . S
C849 C848 1.387 . S
C849 C851 1.387 . S
H850 C857 0.950 . S
C851 C849 1.387 . S
C851 C853 1.390 . S
C851 H855 0.950 . S
H852 C848 0.950 . S
C853 C851 1.390 . S
C853 C854 1.387 . S
C853 H856 0.950 . S
C854 C853 1.387 . S
C854 C857 1.387 . S
H855 C851 0.950 . S
H856 C853 0.950 . S
C857 C848 1.390 . S
C857 H850 0.950 . S
C857 C854 1.387 . S
C858 C859 1.387 . S
C858 H862 0.950 . S
C858 C867 1.390 . S
C859 C858 1.387 . S
C859 C861 1.387 . S
H860 C867 0.950 . S
C861 C859 1.387 . S
C861 C863 1.390 . S
C861 H865 0.950 . S
H862 C858 0.950 . S
C863 C861 1.390 . S
C863 C864 1.387 . S
C863 H866 0.950 . S
C864 C863 1.387 . S
C864 C867 1.387 . S
H865 C861 0.950 . S
H866 C863 0.950 . S
C867 C858 1.390 . S
C867 H860 0.950 . S
C867 C864 1.387 . S
C868 C869 1.387 . S
C868 H872 0.950 . S
C868 C877 1.390 . S
C869 C868 1.387 . S
C869 C871 1.387 . S
H870 C877 0.950 . S
C871 C869 1.387 . S
C871 C873 1.390 . S
C871 H875 0.950 . S
H872 C868 0.950 . S
C873 C871 1.390 . S
C873 C874 1.387 . S
C873 H876 0.950 . S
C874 C873 1.387 . S
C874 C877 1.387 . S
H875 C871 0.950 . S
H876 C873 0.950 . S
C877 C868 1.390 . S
C877 H870 0.950 . S
C877 C874 1.387 . S
C878 C879 1.387 . S
C878 H882 0.950 . S
C878 C887 1.390 . S
C879 C878 1.387 . S
C879 C881 1.387 . S
H880 C887 0.950 . S
C881 C879 1.387 . S
C881 C883 1.390 . S
C881 H885 0.950 . S
H882 C878 0.950 . S
C883 C881 1.390 . S
C883 C884 1.387 . S
C883 H886 0.950 . S
C884 C883 1.387 . S
C884 C887 1.387 . S
H885 C881 0.950 . S
H886 C883 0.950 . S
C887 C878 1.390 . S
C887 H880 0.950 . S
C887 C884 1.387 . S
C888 C889 1.387 . S
C888 H892 0.950 . S
C888 C897 1.390 . S
C889 C888 1.387 . S
C889 C891 1.387 . S
H890 C897 0.950 . S
C891 C889 1.387 . S
C891 C893 1.390 . S
C891 H895 0.950 . S
H892 C888 0.950 . S
C893 C891 1.390 . S
C893 C894 1.387 . S
C893 H896 0.950 . S
C894 C893 1.387 . S
C894 C897 1.387 . S
H895 C891 0.950 . S
H896 C893 0.950 . S
C897 C888 1.390 . S
C897 H890 0.950 . S
C897 C894 1.387 . S
C898 C899 1.387 . S
C898 H902 0.950 . S
C898 C907 1.390 . S
C899 C898 1.387 . S
C899 C901 1.387 . S
H900 C907 0.950 . S
C901 C899 1.387 . S
C901 C903 1.390 . S
C901 H905 0.950 . S
H902 C898 0.950 . S
C903 C901 1.390 . S
C903 C904 1.387 . S
C903 H906 0.950 . S
C904 C903 1.387 . S
C904 C907 1.387 . S
H905 C901 0.950 . S
H906 C903 0.950 . S
C907 C898 1.390 . S
C907 H900 0.950 . S
C907 C904 1.387 . S
C908 C909 1.387 . S
C908 H912 0.950 . S
C908 C917 1.390 . S
C909 C908 1.387 . S
C909 C911 1.387 . S
H910 C917 0.950 . S
C911 C909 1.387 . S
C911 C913 1.390 . S
C911 H915 0.950 . S
H912 C908 0.950 . S
C913 C911 1.390 . S
C913 C914 1.387 . S
C913 H916 0.950 . S
C914 C913 1.387 . S
C914 C917 1.387 . S
H915 C911 0.950 . S
H916 C913 0.950 . S
C917 C908 1.390 . S
C917 H910 0.950 . S
C917 C914 1.387 . S
C918 C919 1.387 . S
C918 H922 0.950 . S
C918 C927 1.390 . S
C919 C918 1.387 . S
C919 C921 1.387 . S
H920 C927 0.950 . S
C921 C919 1.387 . S
C921 C923 1.390 . S
C921 H925 0.950 . S
H922 C918 0.950 . S
C923 C921 1.390 . S
C923 C924 1.387 . S
C923 H926 0.950 . S
C924 C923 1.387 . S
C924 C927 1.387 . S
H925 C921 0.950 . S
H926 C923 0.950 . S
C927 C918 1.390 . S
C927 H920 0.950 . S
C927 C924 1.387 . S
C928 C929 1.387 . S
C928 H932 0.950 . S
C928 C937 1.390 . S
C929 C928 1.387 . S
C929 C931 1.387 . S
H930 C937 0.950 . S
C931 C929 1.387 . S
C931 C933 1.390 . S
C931 H935 0.950 . S
H932 C928 0.950 . S
C933 C931 1.390 . S
C933 C934 1.387 . S
C933 H936 0.950 . S
C934 C933 1.387 . S
C934 C937 1.387 . S
H935 C931 0.950 . S
H936 C933 0.950 . S
C937 C928 1.390 . S
C937 H930 0.950 . S
C937 C934 1.387 . S
C938 C939 1.387 . S
C938 H942 0.950 . S
C938 C947 1.390 . S
C939 C938 1.387 . S
C939 C941 1.387 . S
H940 C947 0.950 . S
C941 C939 1.387 . S
C941 C943 1.390 . S
C941 H945 0.950 . S
H942 C938 0.950 . S
C943 C941 1.390 . S
C943 C944 1.387 . S
C943 H946 0.950 . S
C944 C943 1.387 . S
C944 C947 1.387 . S
H945 C941 0.950 . S
H946 C943 0.950 . S
C947 C938 1.390 . S
C947 H940 0.950 . S
C947 C944 1.387 . S
C948 C949 1.390 1_556 S
C948 H952 0.950 . S
C948 C957 1.390 . S
C949 C948 1.390 1_554 S
C949 C951 1.385 . S
H950 C957 0.950 . S
C951 C949 1.385 . S
C951 C953 1.390 . S
C951 H955 0.950 . S
H952 C948 0.950 . S
C953 C951 1.390 . S
C953 C954 1.385 . S
C953 H956 0.950 . S
C954 C953 1.385 . S
C954 C957 1.390 1_554 S
H955 C951 0.950 . S
H956 C953 0.950 . S
C957 C948 1.390 . S
C957 H950 0.950 . S
C957 C954 1.390 1_556 S
C958 C959 1.390 1_556 S
C958 H962 0.950 . S
C958 C967 1.390 . S
C959 C958 1.390 1_554 S
C959 C961 1.385 . S
H960 C967 0.950 . S
C961 C959 1.385 . S
C961 C963 1.390 . S
C961 H965 0.950 . S
H962 C958 0.950 . S
C963 C961 1.390 . S
C963 C964 1.385 . S
C963 H966 0.950 . S
C964 C963 1.385 . S
C964 C967 1.390 1_554 S
H965 C961 0.950 . S
H966 C963 0.950 . S
C967 C958 1.390 . S
C967 H960 0.950 . S
C967 C964 1.390 1_556 S
C968 C969 1.387 . S
C968 H972 0.950 . S
C968 C977 1.390 . S
C969 C968 1.387 . S
C969 C971 1.387 . S
H970 C977 0.950 . S
C971 C969 1.387 . S
C971 C973 1.390 . S
C971 H975 0.950 . S
H972 C968 0.950 . S
C973 C971 1.390 . S
C973 C974 1.387 . S
C973 H976 0.950 . S
C974 C973 1.387 . S
C974 C977 1.387 . S
H975 C971 0.950 . S
H976 C973 0.950 . S
C977 C968 1.390 . S
C977 H970 0.950 . S
C977 C974 1.387 . S
C978 C979 1.387 . S
C978 H982 0.950 . S
C978 C987 1.390 . S
C979 C978 1.387 . S
C979 C981 1.387 . S
H980 C987 0.950 . S
C981 C979 1.387 . S
C981 C983 1.390 . S
C981 H985 0.950 . S
H982 C978 0.950 . S
C983 C981 1.390 . S
C983 C984 1.387 . S
C983 H986 0.950 . S
C984 C983 1.387 . S
C984 C987 1.387 . S
H985 C981 0.950 . S
H986 C983 0.950 . S
C987 C978 1.390 . S
C987 H980 0.950 . S
C987 C984 1.387 . S
C988 C989 1.385 . S
C988 H992 0.950 . S
C988 C997 1.390 . S
C989 C988 1.385 . S
C989 C991 1.390 1_556 S
H990 C997 0.950 . S
C991 C989 1.390 1_554 S
C991 C993 1.390 . S
C991 H995 0.950 . S
H992 C988 0.950 . S
C993 C991 1.390 . S
C993 C994 1.390 1_554 S
C993 H996 0.950 . S
C994 C993 1.390 1_556 S
C994 C997 1.385 . S
H995 C991 0.950 . S
H996 C993 0.950 . S
C997 C988 1.390 . S
C997 H990 0.950 . S
C997 C994 1.385 . S
C998 C999 1.385 . S
C998 H1002 0.950 . S
C998 C1007 1.390 . S
C999 C998 1.385 . S
C999 C1001 1.390 1_556 S
H1000 C1007 0.950 . S
C1001 C999 1.390 1_554 S
C1001 C1003 1.390 . S
C1001 H1005 0.950 . S
H1002 C998 0.950 . S
C1003 C1001 1.390 . S
C1003 C1004 1.390 1_554 S
C1003 H1006 0.950 . S
C1004 C1003 1.390 1_556 S
C1004 C1007 1.385 . S
H1005 C1001 0.950 . S
H1006 C1003 0.950 . S
C1007 C998 1.390 . S
C1007 H1000 0.950 . S
C1007 C1004 1.385 . S
C1008 C1009 1.387 . S
C1008 H1012 0.950 . S
C1008 C1017 1.390 . S
C1009 C1008 1.387 . S
C1009 C1011 1.387 . S
H1010 C1017 0.950 . S
C1011 C1009 1.387 . S
C1011 C1013 1.390 . S
C1011 H1015 0.950 . S
H1012 C1008 0.950 . S
C1013 C1011 1.390 . S
C1013 C1014 1.387 . S
C1013 H1016 0.950 . S
C1014 C1013 1.387 . S
C1014 C1017 1.387 . S
H1015 C1011 0.950 . S
H1016 C1013 0.950 . S
C1017 C1008 1.390 . S
C1017 H1010 0.950 . S
C1017 C1014 1.387 . S
C1018 C1019 1.387 . S
C1018 H1022 0.950 . S
C1018 C1027 1.390 . S
C1019 C1018 1.387 . S
C1019 C1021 1.387 . S
H1020 C1027 0.950 . S
C1021 C1019 1.387 . S
C1021 C1023 1.390 . S
C1021 H1025 0.950 . S
H1022 C1018 0.950 . S
C1023 C1021 1.390 . S
C1023 C1024 1.387 . S
C1023 H1026 0.950 . S
C1024 C1023 1.387 . S
C1024 C1027 1.387 . S
H1025 C1021 0.950 . S
H1026 C1023 0.950 . S
C1027 C1018 1.390 . S
C1027 H1020 0.950 . S
C1027 C1024 1.387 . S
C1028 C1029 1.387 . S
C1028 H1032 0.950 . S
C1028 C1037 1.390 . S
C1029 C1028 1.387 . S
C1029 C1031 1.387 . S
H1030 C1037 0.950 . S
C1031 C1029 1.387 . S
C1031 C1033 1.390 . S
C1031 H1035 0.950 . S
H1032 C1028 0.950 . S
C1033 C1031 1.390 . S
C1033 C1034 1.387 . S
C1033 H1036 0.950 . S
C1034 C1033 1.387 . S
C1034 C1037 1.387 . S
H1035 C1031 0.950 . S
H1036 C1033 0.950 . S
C1037 C1028 1.390 . S
C1037 H1030 0.950 . S
C1037 C1034 1.387 . S
C1038 C1039 1.387 . S
C1038 H1042 0.950 . S
C1038 C1047 1.390 . S
C1039 C1038 1.387 . S
C1039 C1041 1.387 . S
H1040 C1047 0.950 . S
C1041 C1039 1.387 . S
C1041 C1043 1.390 . S
C1041 H1045 0.950 . S
H1042 C1038 0.950 . S
C1043 C1041 1.390 . S
C1043 C1044 1.387 . S
C1043 H1046 0.950 . S
C1044 C1043 1.387 . S
C1044 C1047 1.387 . S
H1045 C1041 0.950 . S
H1046 C1043 0.950 . S
C1047 C1038 1.390 . S
C1047 H1040 0.950 . S
C1047 C1044 1.387 . S
C1048 C1049 1.387 . S
C1048 H1052 0.950 . S
C1048 C1057 1.390 . S
C1049 C1048 1.387 . S
C1049 C1051 1.387 . S
H1050 C1057 0.950 . S
C1051 C1049 1.387 . S
C1051 C1053 1.390 . S
C1051 H1055 0.950 . S
H1052 C1048 0.950 . S
C1053 C1051 1.390 . S
C1053 C1054 1.387 . S
C1053 H1056 0.950 . S
C1054 C1053 1.387 . S
C1054 C1057 1.387 . S
H1055 C1051 0.950 . S
H1056 C1053 0.950 . S
C1057 C1048 1.390 . S
C1057 H1050 0.950 . S
C1057 C1054 1.387 . S
C1058 C1059 1.387 . S
C1058 H1062 0.950 . S
C1058 C1067 1.390 . S
C1059 C1058 1.387 . S
C1059 C1061 1.387 . S
H1060 C1067 0.950 . S
C1061 C1059 1.387 . S
C1061 C1063 1.390 . S
C1061 H1065 0.950 . S
H1062 C1058 0.950 . S
C1063 C1061 1.390 . S
C1063 C1064 1.387 . S
C1063 H1066 0.950 . S
C1064 C1063 1.387 . S
C1064 C1067 1.387 . S
H1065 C1061 0.950 . S
H1066 C1063 0.950 . S
C1067 C1058 1.390 . S
C1067 H1060 0.950 . S
C1067 C1064 1.387 . S
C1068 C1069 1.387 . S
C1068 H1072 0.950 . S
C1068 C1077 1.390 . S
C1069 C1068 1.387 . S
C1069 C1071 1.387 . S
H1070 C1077 0.950 . S
C1071 C1069 1.387 . S
C1071 C1073 1.390 . S
C1071 H1075 0.950 . S
H1072 C1068 0.950 . S
C1073 C1071 1.390 . S
C1073 C1074 1.387 . S
C1073 H1076 0.950 . S
C1074 C1073 1.387 . S
C1074 C1077 1.387 . S
H1075 C1071 0.950 . S
H1076 C1073 0.950 . S
C1077 C1068 1.390 . S
C1077 H1070 0.950 . S
C1077 C1074 1.387 . S
C1078 C1079 1.387 . S
C1078 H1082 0.950 . S
C1078 C1087 1.390 . S
C1079 C1078 1.387 . S
C1079 C1081 1.387 . S
H1080 C1087 0.950 . S
C1081 C1079 1.387 . S
C1081 C1083 1.390 . S
C1081 H1085 0.950 . S
H1082 C1078 0.950 . S
C1083 C1081 1.390 . S
C1083 C1084 1.387 . S
C1083 H1086 0.950 . S
C1084 C1083 1.387 . S
C1084 C1087 1.387 . S
H1085 C1081 0.950 . S
H1086 C1083 0.950 . S
C1087 C1078 1.390 . S
C1087 H1080 0.950 . S
C1087 C1084 1.387 . S
C449 C7 1.318 . S
C454 C49 1.323 . S
C459 C35 1.315 . S
C464 C21 1.318 . S
C469 C63 1.314 . S
C474 C105 1.319 . S
C479 C91 1.319 . S
C484 C77 1.322 . S
C489 C119 1.299 . S
C494 C161 1.300 . S
C499 C147 1.304 . S
C504 C133 1.303 . S
C509 C175 1.303 . S
C514 C217 1.304 . S
C519 C189 1.303 . S
C524 C203 1.304 . S
C529 C273 1.304 . S
C534 C231 1.303 . S
C539 C245 1.299 . S
C544 C259 1.300 . S
C549 C287 1.303 . S
C554 C329 1.304 . S
C559 C315 1.300 . S
C564 C301 1.299 . S
C569 C343 1.314 . S
C574 C385 1.319 . S
C579 C371 1.315 . S
C584 C357 1.318 . S
C589 C399 1.314 . S
C594 C441 1.319 . S
C599 C413 1.314 . S
C604 C427 1.319 . S
C609 C176 1.522 . S
C614 C8 1.522 . S
C619 C22 1.522 . S
C624 C302 1.522 . S
C629 C36 1.515 . S
C634 C92 1.515 . S
C639 C442 1.515 . S
C644 C50 1.515 . S
C649 C64 1.522 . S
C654 C120 1.522 . S
C659 C246 1.522 . S
C664 C78 1.522 . S
C669 C386 1.515 . S
C674 C106 1.515 . S
C679 C414 1.522 . S
C684 C134 1.522 . S
C689 C204 1.515 . S
C694 C148 1.515 . S
C699 C330 1.515 . S
C704 C162 1.515 . S
C709 C190 1.522 . S
C714 C358 1.522 . S
C719 C274 1.515 . S
C724 C218 1.515 . S
C729 C400 1.522 . S
C734 C232 1.522 . S
C739 C316 1.515 . S
C744 C260 1.515 . S
C749 C344 1.522 . S
C754 C288 1.522 . S
C759 C372 1.515 . S
C764 C428 1.515 . S
C769 C143 1.493 . S
C774 C3 1.492 . S
C779 C17 1.492 . S
C784 C157 1.493 . S
C789 C115 1.473 . S
C794 C31 1.470 . S
C799 C129 1.477 . S
C804 C45 1.474 . S
C809 C59 1.492 . S
C814 C199 1.493 . S
C819 C73 1.488 . S
C824 C213 1.489 . S
C829 C171 1.477 . S
C834 C87 1.474 . S
C839 C101 1.478 . S
C844 C185 1.473 . S
C849 C367 1.474 . S
C854 C227 1.469 . S
C859 C381 1.478 . S
C864 C241 1.473 . S
C869 C255 1.489 . S
C874 C339 1.488 . S
C879 C269 1.489 . S
C884 C353 1.488 . S
C889 C283 1.473 . S
C894 C423 1.470 . S
C899 C297 1.477 . S
C904 C437 1.474 . S
C909 C395 1.492 . S
C914 C311 1.493 . S
C919 C409 1.492 . S
C924 C325 1.493 . S
C929 C9 1.465 . S
C934 C359 1.465 . S
C939 C345 1.465 . S
C944 C23 1.465 . S
C949 C37 1.456 1_554 S
C954 C387 1.456 1_554 S
C959 C51 1.456 1_554 S
C964 C373 1.456 1_554 S
C969 C65 1.465 . S
C974 C415 1.465 . S
C979 C79 1.467 . S
C984 C401 1.467 . S
C989 C443 1.456 1_556 S
C994 C93 1.456 1_556 S
C999 C429 1.456 1_556 S
C1004 C107 1.456 1_556 S
C1009 C247 1.464 . S
C1014 C121 1.464 . S
C1019 C233 1.464 . S
C1024 C135 1.464 . S
C1029 C149 1.459 . S
C1034 C275 1.459 . S
C1039 C163 1.457 . S
C1044 C261 1.457 . S
C1049 C303 1.466 . S
C1054 C177 1.466 . S
C1059 C191 1.464 . S
C1064 C289 1.464 . S
C1069 C205 1.459 . S
C1074 C331 1.459 . S
C1079 C219 1.459 . S
C1084 C317 1.459 . S
