# Generated by pormake.
# Topology ske, (6)-cn, num edge types: 1
# Building blocks:
#     Node 0, Type 0, BuildingBlock: CUWYAW_clean_sbu_0, # of connection points: 6
#     Node 1, Type 0, BuildingBlock: CUWYAW_clean_sbu_0, # of connection points: 6
#     Node 2, Type 0, BuildingBlock: CUWYAW_clean_sbu_0, # of connection points: 6
#     Node 3, Type 0, BuildingBlock: CUWYAW_clean_sbu_0, # of connection points: 6
#     Node 4, Type 0, BuildingBlock: CUWYAW_clean_sbu_0, # of connection points: 6
#     Node 5, Type 0, BuildingBlock: CUWYAW_clean_sbu_0, # of connection points: 6
#     Node 6, Type 0, BuildingBlock: CUWYAW_clean_sbu_0, # of connection points: 6
#     Node 7, Type 0, BuildingBlock: CUWYAW_clean_sbu_0, # of connection points: 6
#     Edge 8, Type (0, 0), BuildingBlock: MIFKUJ_clean_linker_0, # of connection points: 2
#     Edge 9, Type (0, 0), BuildingBlock: MIFKUJ_clean_linker_0, # of connection points: 2
#     Edge 10, Type (0, 0), BuildingBlock: MIFKUJ_clean_linker_0, # of connection points: 2
#     Edge 11, Type (0, 0), BuildingBlock: MIFKUJ_clean_linker_0, # of connection points: 2
#     Edge 12, Type (0, 0), BuildingBlock: MIFKUJ_clean_linker_0, # of connection points: 2
#     Edge 13, Type (0, 0), BuildingBlock: MIFKUJ_clean_linker_0, # of connection points: 2
#     Edge 14, Type (0, 0), BuildingBlock: MIFKUJ_clean_linker_0, # of connection points: 2
#     Edge 15, Type (0, 0), BuildingBlock: MIFKUJ_clean_linker_0, # of connection points: 2
#     Edge 16, Type (0, 0), BuildingBlock: MIFKUJ_clean_linker_0, # of connection points: 2
#     Edge 17, Type (0, 0), BuildingBlock: MIFKUJ_clean_linker_0, # of connection points: 2
#     Edge 18, Type (0, 0), BuildingBlock: MIFKUJ_clean_linker_0, # of connection points: 2
#     Edge 19, Type (0, 0), BuildingBlock: MIFKUJ_clean_linker_0, # of connection points: 2
#     Edge 20, Type (0, 0), BuildingBlock: MIFKUJ_clean_linker_0, # of connection points: 2
#     Edge 21, Type (0, 0), BuildingBlock: MIFKUJ_clean_linker_0, # of connection points: 2
#     Edge 22, Type (0, 0), BuildingBlock: MIFKUJ_clean_linker_0, # of connection points: 2
#     Edge 23, Type (0, 0), BuildingBlock: MIFKUJ_clean_linker_0, # of connection points: 2
#     Edge 24, Type (0, 0), BuildingBlock: MIFKUJ_clean_linker_0, # of connection points: 2
#     Edge 25, Type (0, 0), BuildingBlock: MIFKUJ_clean_linker_0, # of connection points: 2
#     Edge 26, Type (0, 0), BuildingBlock: MIFKUJ_clean_linker_0, # of connection points: 2
#     Edge 27, Type (0, 0), BuildingBlock: MIFKUJ_clean_linker_0, # of connection points: 2
#     Edge 28, Type (0, 0), BuildingBlock: MIFKUJ_clean_linker_0, # of connection points: 2
#     Edge 29, Type (0, 0), BuildingBlock: MIFKUJ_clean_linker_0, # of connection points: 2
#     Edge 30, Type (0, 0), BuildingBlock: MIFKUJ_clean_linker_0, # of connection points: 2
#     Edge 31, Type (0, 0), BuildingBlock: MIFKUJ_clean_linker_0, # of connection points: 2
# Relax obj value: 0.180
# Max RMSD: 0.190
# Mean RMSD: 0.184
data_MOF--net-ske--node1-CUWYAW_clean_sbu_0--edge1-MIFKUJ_clean_linker_0
_symmetry_space_group_name_H-M    P1
_symmetry_Int_Tables_number       1
_symmetry_cell_setting            triclinic
loop_
_symmetry_equiv_pos_as_xyz
'x, y, z'
_cell_length_a     120.43279
_cell_length_b     38.161924
_cell_length_c     20.155829
_cell_angle_alpha  89.868084
_cell_angle_beta   90.013316
_cell_angle_gamma 97.877879
loop_
_atom_site_label
_atom_site_type_symbol
_atom_site_fract_x
_atom_site_fract_y
_atom_site_fract_z
_atom_type_partial_charge
C0 C 0.17454 0.23227 0.54223 0.0
Eu1 Eu 0.15459 0.25172 0.53327 0.0
C2 C 0.18513 0.23568 0.58047 0.0
C3 C 0.19069 0.26871 0.60084 0.0
C4 C 0.20136 0.27139 0.62989 0.0
C5 C 0.2067 0.24111 0.63921 0.0
C6 C 0.20093 0.20801 0.62048 0.0
C7 C 0.19029 0.20538 0.59143 0.0
C8 C 0.14998 0.31958 0.52532 0.0
C9 C 0.14284 0.25899 0.67708 0.0
C10 C 0.10976 0.27661 0.53278 0.0
Eu11 Eu 0.12986 0.258 0.53865 0.0
C12 C 0.09814 0.27009 0.50656 0.0
C13 C 0.09095 0.23881 0.52148 0.0
C14 C 0.07947 0.23593 0.50718 0.0
C15 C 0.07489 0.26426 0.47783 0.0
C16 C 0.08221 0.29482 0.46003 0.0
C17 C 0.09368 0.2977 0.4744 0.0
C18 C 0.13456 0.18972 0.54129 0.0
C19 C 0.14187 0.25378 0.39461 0.0
O20 O 0.16558 0.21433 0.56869 0.0
O21 O 0.17234 0.25983 0.5086 0.0
O22 O 0.15832 0.30805 0.49582 0.0
O23 O 0.14499 0.29574 0.56243 0.0
O24 O 0.15103 0.24691 0.64433 0.0
O25 O 0.13456 0.27097 0.64506 0.0
O26 O 0.11794 0.28983 0.4935 0.0
O27 O 0.11281 0.25414 0.57585 0.0
O28 O 0.12609 0.20031 0.57088 0.0
O29 O 0.13948 0.2147 0.50689 0.0
O30 O 0.13363 0.26524 0.42817 0.0
O31 O 0.15013 0.2411 0.4257 0.0
H32 H 0.1869 0.29255 0.59303 0.0
H33 H 0.20546 0.29723 0.64457 0.0
H34 H 0.2048 0.18417 0.62601 0.0
H35 H 0.18623 0.17967 0.57558 0.0
H36 H 0.09409 0.2171 0.54676 0.0
H37 H 0.0741 0.2121 0.52212 0.0
H38 H 0.07904 0.31694 0.43632 0.0
H39 H 0.099 0.3222 0.46277 0.0
C40 C 0.85433 0.27225 0.54152 0.0
Eu41 Eu 0.87453 0.25474 0.53128 0.0
C42 C 0.84356 0.266 0.5785 0.0
C43 C 0.836 0.2348 0.56977 0.0
C44 C 0.82527 0.23134 0.59798 0.0
C45 C 0.82181 0.25898 0.63551 0.0
C46 C 0.82951 0.28972 0.6458 0.0
C47 C 0.84022 0.29321 0.61743 0.0
C48 C 0.87932 0.18697 0.52312 0.0
C49 C 0.8863 0.24833 0.67516 0.0
C50 C 0.9192 0.22948 0.53277 0.0
Eu51 Eu 0.89923 0.24901 0.53692 0.0
C52 C 0.93074 0.23344 0.50634 0.0
C53 C 0.93631 0.26609 0.48413 0.0
C54 C 0.94779 0.26989 0.46896 0.0
C55 C 0.95395 0.24119 0.47628 0.0
C56 C 0.94817 0.20832 0.49657 0.0
C57 C 0.93672 0.20453 0.51118 0.0
C58 C 0.89446 0.31717 0.54192 0.0
C59 C 0.88745 0.25604 0.39285 0.0
O60 O 0.86309 0.28926 0.57153 0.0
O61 O 0.85692 0.24712 0.50288 0.0
O62 O 0.87109 0.19863 0.49275 0.0
O63 O 0.88418 0.21073 0.5607 0.0
O64 O 0.87809 0.26013 0.64204 0.0
O65 O 0.8946 0.23636 0.64357 0.0
O66 O 0.91087 0.21505 0.49582 0.0
O67 O 0.9165 0.25465 0.57087 0.0
O68 O 0.903 0.30634 0.57055 0.0
O69 O 0.88955 0.29261 0.50664 0.0
O70 O 0.89566 0.24395 0.42585 0.0
O71 O 0.87914 0.268 0.42467 0.0
H72 H 0.83825 0.21334 0.53977 0.0
H73 H 0.81963 0.2071 0.58977 0.0
H74 H 0.82711 0.31172 0.67369 0.0
H75 H 0.84578 0.31777 0.62422 0.0
H76 H 0.93186 0.28884 0.48031 0.0
H77 H 0.95187 0.29547 0.45246 0.0
H78 H 0.95257 0.18571 0.50406 0.0
H79 H 0.93262 0.17922 0.52907 0.0
C80 C 0.10912 0.77421 0.49111 0.0
Eu81 Eu 0.12937 0.75675 0.48514 0.0
C82 C 0.09751 0.76807 0.5172 0.0
C83 C 0.09054 0.73573 0.50784 0.0
C84 C 0.07903 0.73277 0.52159 0.0
C85 C 0.07422 0.76213 0.54457 0.0
C86 C 0.08133 0.79388 0.55693 0.0
C87 C 0.09282 0.7968 0.54331 0.0
C88 C 0.13441 0.689 0.48062 0.0
C89 C 0.14134 0.75187 0.62914 0.0
C90 C 0.17433 0.7346 0.48066 0.0
Eu91 Eu 0.15411 0.75207 0.49038 0.0
C92 C 0.18525 0.74152 0.44524 0.0
C93 C 0.19359 0.76875 0.46618 0.0
C94 C 0.2044 0.77217 0.43921 0.0
C95 C 0.2072 0.74838 0.39078 0.0
C96 C 0.19878 0.72179 0.36838 0.0
C97 C 0.18796 0.71831 0.3955 0.0
C98 C 0.14917 0.81979 0.49708 0.0
C99 C 0.14226 0.75809 0.34669 0.0
O100 O 0.11729 0.78803 0.5298 0.0
O101 O 0.11221 0.75135 0.44916 0.0
O102 O 0.126 0.69968 0.45047 0.0
O103 O 0.13923 0.71363 0.51618 0.0
O104 O 0.13301 0.76305 0.59589 0.0
O105 O 0.14971 0.7401 0.59766 0.0
O106 O 0.16564 0.71809 0.44917 0.0
O107 O 0.17163 0.75909 0.52047 0.0
O108 O 0.15778 0.80898 0.52488 0.0
O109 O 0.14424 0.79555 0.46091 0.0
O110 O 0.15049 0.74633 0.37969 0.0
O111 O 0.13396 0.77002 0.37852 0.0
H112 H 0.09388 0.71314 0.48731 0.0
H113 H 0.07381 0.70798 0.51108 0.0
H114 H 0.07797 0.81684 0.57567 0.0
H115 H 0.09798 0.82208 0.55055 0.0
H116 H 0.19187 0.78692 0.50485 0.0
H117 H 0.21061 0.79327 0.45699 0.0
H118 H 0.20065 0.70275 0.33171 0.0
H119 H 0.18181 0.69668 0.37901 0.0
C120 C 0.91849 0.728 0.49324 0.0
Eu121 Eu 0.89855 0.74777 0.48879 0.0
C122 C 0.93005 0.73269 0.51951 0.0
C123 C 0.93593 0.76625 0.53339 0.0
C124 C 0.94744 0.77014 0.54786 0.0
C125 C 0.95332 0.74059 0.54824 0.0
C126 C 0.94723 0.70693 0.53674 0.0
C127 C 0.93576 0.70308 0.5227 0.0
C128 C 0.89407 0.81625 0.48638 0.0
C129 C 0.88665 0.75288 0.63265 0.0
C130 C 0.85378 0.77266 0.48509 0.0
Eu131 Eu 0.87392 0.75441 0.49417 0.0
C132 C 0.8428 0.76585 0.45022 0.0
C133 C 0.83399 0.74212 0.47741 0.0
C134 C 0.82321 0.73889 0.45012 0.0
C135 C 0.8209 0.75944 0.39508 0.0
C136 C 0.82977 0.78249 0.36672 0.0
C137 C 0.84058 0.78578 0.39413 0.0
C138 C 0.87845 0.68613 0.49894 0.0
C139 C 0.88574 0.74906 0.35054 0.0
O140 O 0.91022 0.71426 0.53137 0.0
O141 O 0.91571 0.75238 0.45331 0.0
O142 O 0.90242 0.80527 0.45619 0.0
O143 O 0.88904 0.79148 0.52093 0.0
O144 O 0.89472 0.74033 0.59929 0.0
O145 O 0.87859 0.76634 0.60109 0.0
O146 O 0.86248 0.78877 0.45298 0.0
O147 O 0.85644 0.74819 0.52529 0.0
O148 O 0.87004 0.69726 0.52829 0.0
O149 O 0.88343 0.71053 0.46325 0.0
O150 O 0.87776 0.76189 0.38385 0.0
O151 O 0.89375 0.73544 0.3822 0.0
H152 H 0.93171 0.78953 0.53107 0.0
H153 H 0.95176 0.79641 0.5576 0.0
H154 H 0.95141 0.68357 0.53552 0.0
H155 H 0.93142 0.67698 0.51141 0.0
H156 H 0.83534 0.72664 0.52105 0.0
H157 H 0.81665 0.72048 0.47272 0.0
H158 H 0.82829 0.79902 0.32478 0.0
H159 H 0.8471 0.80473 0.37251 0.0
C160 C 0.67531 0.73754 0.04827 0.0
Eu161 Eu 0.65484 0.75314 0.03962 0.0
C162 C 0.6861 0.74398 0.08525 0.0
C163 C 0.69505 0.76763 0.05947 0.0
C164 C 0.7057 0.77062 0.08835 0.0
C165 C 0.70775 0.74986 0.14363 0.0
C166 C 0.69872 0.72693 0.17072 0.0
C167 C 0.68803 0.72391 0.14171 0.0
C168 C 0.6495 0.82009 0.02927 0.0
C169 C 0.64336 0.75994 0.18421 0.0
C170 C 0.60976 0.7733 0.04329 0.0
Eu171 Eu 0.63015 0.75696 0.04709 0.0
C172 C 0.59806 0.76776 0.01831 0.0
C173 C 0.59106 0.73542 0.02716 0.0
C174 C 0.57949 0.73292 0.01525 0.0
C175 C 0.57466 0.76273 0.99465 0.0
C176 C 0.58179 0.79454 0.98271 0.0
C177 C 0.59333 0.797 0.99449 0.0
C178 C 0.63561 0.68952 0.05165 0.0
C179 C 0.6418 0.75154 0.90212 0.0
O180 O 0.66665 0.71881 0.07646 0.0
O181 O 0.67249 0.76341 1.01213 0.0
O182 O 0.65768 0.80872 0.99803 0.0
O183 O 0.64496 0.79658 0.0686 0.0
O184 O 0.65153 0.74811 0.15093 0.0
O185 O 0.63496 0.77141 0.15259 0.0
O186 O 0.61784 0.78855 1.00536 0.0
O187 O 0.61298 0.74951 0.08292 0.0
O188 O 0.62734 0.69984 0.0838 0.0
O189 O 0.64005 0.71434 0.01524 0.0
O190 O 0.63354 0.76291 0.9357 0.0
O191 O 0.6502 0.7398 0.93343 0.0
H192 H 0.69391 0.78321 0.01562 0.0
H193 H 0.71239 0.78896 0.06672 0.0
H194 H 0.69999 0.71028 0.21285 0.0
H195 H 0.68139 0.70505 0.16238 0.0
H196 H 0.59442 0.71244 0.04601 0.0
H197 H 0.57427 0.70806 0.02536 0.0
H198 H 0.57842 0.81787 0.96573 0.0
H199 H 0.59851 0.82232 0.98776 0.0
C200 C 0.3535 0.77258 0.05621 0.0
Eu201 Eu 0.37387 0.75629 0.04702 0.0
C202 C 0.34275 0.76593 0.0935 0.0
C203 C 0.33435 0.73854 0.07409 0.0
C204 C 0.32365 0.73516 0.10262 0.0
C205 C 0.32103 0.75916 0.15114 0.0
C206 C 0.32953 0.78588 0.17214 0.0
C207 C 0.34024 0.78932 0.14343 0.0
C208 C 0.37891 0.68918 0.03729 0.0
C209 C 0.38553 0.74979 0.19174 0.0
C210 C 0.41884 0.73439 0.05082 0.0
Eu211 Eu 0.39854 0.7515 0.05404 0.0
C212 C 0.43038 0.73828 0.02404 0.0
C213 C 0.43641 0.77152 1.00905 0.0
C214 C 0.44793 0.77482 0.99511 0.0
C215 C 0.45368 0.745 0.99636 0.0
C216 C 0.44745 0.71164 1.00886 0.0
C217 C 0.43596 0.70838 0.02239 0.0
C218 C 0.39325 0.81893 0.05871 0.0
C219 C 0.38685 0.75768 0.90899 0.0
O220 O 0.36221 0.79084 0.08473 0.0
O221 O 0.35626 0.74703 0.01924 0.0
O222 O 0.37077 0.70085 1.00613 0.0
O223 O 0.38359 0.7125 0.07636 0.0
O224 O 0.37724 0.76103 0.15837 0.0
O225 O 0.39395 0.7384 0.16039 0.0
O226 O 0.41053 0.71762 0.01646 0.0
O227 O 0.41592 0.7604 0.08586 0.0
O228 O 0.40137 0.80826 0.0918 0.0
O229 O 0.3888 0.79442 0.02192 0.0
O230 O 0.39521 0.74669 0.94237 0.0
O231 O 0.3784 0.76908 0.94039 0.0
H232 H 0.33591 0.72022 0.03533 0.0
H233 H 0.31738 0.71395 0.08591 0.0
H234 H 0.32779 0.80506 0.20888 0.0
H235 H 0.34644 0.81105 0.15886 0.0
H236 H 0.43231 0.79507 1.01024 0.0
H237 H 0.45237 0.80087 0.98457 0.0
H238 H 0.45153 0.68809 1.01135 0.0
H239 H 0.43152 0.68253 0.03471 0.0
C240 C 0.61093 0.27509 0.9795 0.0
Eu241 Eu 0.63127 0.25834 0.97585 0.0
C242 C 0.59915 0.26707 1.00238 0.0
C243 C 0.59234 0.23567 0.98397 0.0
C244 C 0.58073 0.2317 0.99459 0.0
C245 C 0.57567 0.25907 0.02363 0.0
C246 C 0.5826 0.28963 0.04521 0.0
C247 C 0.59419 0.2936 0.03452 0.0
C248 C 0.63616 0.19027 0.97222 0.0
C249 C 0.64265 0.2524 0.12145 0.0
C250 C 0.67604 0.23692 0.97611 0.0
Eu251 Eu 0.65566 0.25318 0.98463 0.0
C252 C 0.68663 0.24242 0.93724 0.0
C253 C 0.69429 0.27353 0.94413 0.0
C254 C 0.7049 0.27647 0.91451 0.0
C255 C 0.70815 0.24838 0.87738 0.0
C256 C 0.70035 0.21772 0.86877 0.0
C257 C 0.68975 0.21474 0.89858 0.0
C258 C 0.65063 0.32059 0.99513 0.0
C259 C 0.64451 0.26126 0.83953 0.0
O260 O 0.61875 0.2876 0.02159 0.0
O261 O 0.61446 0.25426 0.93521 0.0
O262 O 0.62814 0.20139 0.93904 0.0
O263 O 0.64073 0.21472 1.00879 0.0
O264 O 0.63468 0.2651 0.08721 0.0
O265 O 0.65085 0.23946 0.09054 0.0
O266 O 0.66728 0.21777 0.94994 0.0
O267 O 0.67335 0.26349 1.01058 0.0
O268 O 0.65852 0.30843 0.02798 0.0
O269 O 0.6462 0.29754 0.95487 0.0
O270 O 0.65238 0.24794 0.87316 0.0
O271 O 0.63637 0.274 0.87113 0.0
H272 H 0.59588 0.21478 0.95865 0.0
H273 H 0.57567 0.2079 0.97691 0.0
H274 H 0.57904 0.31098 0.06885 0.0
H275 H 0.59923 0.31816 0.0488 0.0
H276 H 0.69223 0.29533 0.97389 0.0
H277 H 0.71063 0.30066 0.92141 0.0
H278 H 0.70259 0.19541 0.84117 0.0
H279 H 0.68412 0.19022 0.89315 0.0
C280 C 0.41945 0.25035 0.99583 0.0
Eu281 Eu 0.39824 0.25565 0.98371 0.0
C282 C 0.4316 0.24821 1.00349 0.0
C283 C 0.43873 0.27659 0.03141 0.0
C284 C 0.45029 0.2757 0.03561 0.0
C285 C 0.45503 0.24645 1.01183 0.0
C286 C 0.44785 0.21774 0.98498 0.0
C287 C 0.43626 0.21863 0.98086 0.0
C288 C 0.39071 0.31951 0.97297 0.0
C289 C 0.38564 0.2537 0.12627 0.0
C290 C 0.35239 0.26295 0.97795 0.0
Eu291 Eu 0.37332 0.25212 0.98812 0.0
C292 C 0.3422 0.26026 0.93589 0.0
C293 C 0.33669 0.22748 0.91383 0.0
C294 C 0.32621 0.22528 0.88244 0.0
C295 C 0.32101 0.25577 0.8725 0.0
C296 C 0.32675 0.28864 0.89262 0.0
C297 C 0.33719 0.2908 0.92402 0.0
C298 C 0.38069 0.18842 1.00256 0.0
C299 C 0.386 0.25194 0.84353 0.0
O300 O 0.41218 0.22413 0.97449 0.0
O301 O 0.41515 0.27886 1.01135 0.0
O302 O 0.3988 0.31007 0.93774 0.0
O303 O 0.38698 0.29497 1.01236 0.0
O304 O 0.3941 0.2437 0.09261 0.0
O305 O 0.37711 0.2646 0.09522 0.0
O306 O 0.36089 0.28683 0.96272 0.0
O307 O 0.35552 0.2338 1.00122 0.0
O308 O 0.37229 0.19785 0.03483 0.0
O309 O 0.38452 0.2121 0.96156 0.0
O310 O 0.37672 0.2556 0.87666 0.0
O311 O 0.39544 0.24838 0.87437 0.0
H312 H 0.43541 0.29974 0.04959 0.0
H313 H 0.4555 0.29801 0.05771 0.0
H314 H 0.4512 0.19492 0.96556 0.0
H315 H 0.43099 0.1964 0.95885 0.0
H316 H 0.3403 0.20339 0.92234 0.0
H317 H 0.32213 0.19959 0.86674 0.0
H318 H 0.32298 0.31263 0.88667 0.0
H319 H 0.34118 0.31634 0.94125 0.0
H320 H 0.21544 0.19646 0.72618 0.0
H321 H 0.2348 0.19938 0.76436 0.0
H322 H 0.24383 0.29538 0.65208 0.0
H323 H 0.22456 0.29196 0.61178 0.0
H324 H 0.25911 0.25183 0.635 0.0
H325 H 0.24105 0.29646 0.8223 0.0
H326 H 0.22676 0.29601 0.91 0.0
H327 H 0.23655 0.20072 0.99117 0.0
H328 H 0.2508 0.20033 0.90337 0.0
H329 H 0.31264 0.301 0.78494 0.0
H330 H 0.29336 0.29879 0.74535 0.0
H331 H 0.28383 0.20252 0.856 0.0
H332 H 0.303 0.20518 0.89758 0.0
H333 H 0.26883 0.24695 0.87369 0.0
H334 H 0.28687 0.20234 0.68562 0.0
H335 H 0.30117 0.20309 0.59785 0.0
H336 H 0.29145 0.29882 0.51823 0.0
H337 H 0.27719 0.29891 0.6061 0.0
C338 C 0.22154 0.21816 0.70934 0.0
C339 C 0.21838 0.244 0.66586 0.0
C340 C 0.23261 0.21997 0.73176 0.0
C341 C 0.2408 0.2478 0.7117 0.0
C342 C 0.23768 0.27369 0.66846 0.0
C343 C 0.22661 0.27189 0.64598 0.0
C344 C 0.25265 0.24951 0.73477 0.0
C345 C 0.26124 0.25128 0.68726 0.0
C346 C 0.25546 0.24798 0.80288 0.0
C347 C 0.24692 0.24819 0.85586 0.0
C348 C 0.24009 0.27526 0.85854 0.0
C349 C 0.23201 0.27518 0.90833 0.0
C350 C 0.23072 0.24831 0.95603 0.0
C351 C 0.23754 0.2215 0.95414 0.0
C352 C 0.24563 0.22143 0.90441 0.0
C353 C 0.30645 0.27937 0.80102 0.0
C354 C 0.30942 0.25324 0.84448 0.0
C355 C 0.29543 0.27797 0.77782 0.0
C356 C 0.28712 0.25031 0.79715 0.0
C357 C 0.29007 0.2241 0.84019 0.0
C358 C 0.30109 0.22546 0.86341 0.0
C359 C 0.2753 0.24915 0.77393 0.0
C360 C 0.2667 0.24751 0.82143 0.0
C361 C 0.27249 0.25085 0.70582 0.0
C362 C 0.28104 0.25082 0.65285 0.0
C363 C 0.28785 0.22371 0.64971 0.0
C364 C 0.29593 0.22395 0.59989 0.0
C365 C 0.29724 0.25104 0.5526 0.0
C366 C 0.29044 0.27789 0.55495 0.0
C367 C 0.28235 0.27779 0.60472 0.0
H368 H 0.3035 0.25118 0.51407 0.0
H369 H 0.22446 0.2483 0.99454 0.0
H370 H 0.72786 0.27497 0.93812 0.0
H371 H 0.74693 0.27684 0.89585 0.0
H372 H 0.734 0.2278 0.71393 0.0
H373 H 0.71485 0.22573 0.75616 0.0
H374 H 0.75136 0.19793 0.75577 0.0
H375 H 0.74434 0.31727 0.72237 0.0
H376 H 0.73877 0.37473 0.75422 0.0
H377 H 0.76534 0.38956 0.89774 0.0
H378 H 0.77098 0.33193 0.86738 0.0
H379 H 0.80229 0.23218 0.57263 0.0
H380 H 0.78309 0.22993 0.61309 0.0
H381 H 0.79546 0.27826 0.79674 0.0
H382 H 0.81473 0.28064 0.75648 0.0
H383 H 0.7783 0.30858 0.75249 0.0
H384 H 0.7852 0.18881 0.78599 0.0
H385 H 0.79074 0.13138 0.75354 0.0
H386 H 0.76434 0.11752 0.60883 0.0
H387 H 0.75873 0.17511 0.63981 0.0
C388 C 0.72904 0.26502 0.88872 0.0
C389 C 0.71978 0.25041 0.85042 0.0
C390 C 0.73998 0.26606 0.86459 0.0
C391 C 0.74195 0.25288 0.80124 0.0
C392 C 0.73273 0.23814 0.76295 0.0
C393 C 0.72177 0.23694 0.7872 0.0
C394 C 0.75362 0.25388 0.7756 0.0
C395 C 0.75719 0.22224 0.75415 0.0
C396 C 0.76136 0.2854 0.77481 0.0
C397 C 0.75801 0.32013 0.79301 0.0
C398 C 0.74894 0.33266 0.76107 0.0
C399 C 0.74578 0.36528 0.7788 0.0
C400 C 0.75168 0.38574 0.82809 0.0
C401 C 0.76077 0.37366 0.85963 0.0
C402 C 0.76396 0.34104 0.84214 0.0
C403 C 0.80096 0.24187 0.62205 0.0
C404 C 0.8101 0.25643 0.66138 0.0
C405 C 0.78994 0.24063 0.64511 0.0
C406 C 0.78778 0.25357 0.70837 0.0
C407 C 0.79688 0.26814 0.74775 0.0
C408 C 0.80791 0.26952 0.7246 0.0
C409 C 0.77604 0.25261 0.73288 0.0
C410 C 0.77246 0.28427 0.75408 0.0
C411 C 0.76829 0.22112 0.73334 0.0
C412 C 0.77162 0.18643 0.71479 0.0
C413 C 0.78063 0.17364 0.7469 0.0
C414 C 0.78377 0.14104 0.72883 0.0
C415 C 0.77791 0.12086 0.67904 0.0
C416 C 0.76888 0.1332 0.64733 0.0
C417 C 0.76571 0.1658 0.66516 0.0
H418 H 0.78035 0.09563 0.66513 0.0
H419 H 0.74922 0.41099 0.84174 0.0
H420 H 0.31419 0.76862 0.27944 0.0
H421 H 0.29499 0.76698 0.32066 0.0
H422 H 0.28221 0.7436 0.12351 0.0
H423 H 0.30134 0.74606 0.08172 0.0
H424 H 0.2717 0.79337 0.18035 0.0
H425 H 0.28084 0.67931 0.24285 0.0
H426 H 0.29204 0.63748 0.29562 0.0
H427 H 0.28731 0.68342 0.48606 0.0
H428 H 0.2762 0.72588 0.43426 0.0
H429 H 0.21441 0.73933 0.2632 0.0
H430 H 0.23371 0.74117 0.22379 0.0
H431 H 0.24597 0.76412 0.42218 0.0
H432 H 0.22671 0.76139 0.46223 0.0
H433 H 0.25681 0.71501 0.36577 0.0
H434 H 0.24761 0.82882 0.30374 0.0
H435 H 0.23643 0.87078 0.25126 0.0
H436 H 0.24131 0.82556 0.06037 0.0
H437 H 0.2524 0.78298 0.11186 0.0
C438 C 0.3073 0.76326 0.24479 0.0
C439 C 0.30934 0.75729 0.17726 0.0
C440 C 0.29631 0.76205 0.26854 0.0
C441 C 0.28711 0.75482 0.22535 0.0
C442 C 0.28914 0.74911 0.1579 0.0
C443 C 0.3001 0.7502 0.13419 0.0
C444 C 0.27538 0.75367 0.25004 0.0
C445 C 0.26841 0.77588 0.22033 0.0
C446 C 0.27112 0.73151 0.30329 0.0
C447 C 0.27779 0.70602 0.33456 0.0
C448 C 0.28227 0.6807 0.2959 0.0
C449 C 0.28858 0.65683 0.32565 0.0
C450 C 0.29041 0.65786 0.39412 0.0
C451 C 0.2859 0.6827 0.43301 0.0
C452 C 0.27959 0.70665 0.40349 0.0
C453 C 0.2212 0.74462 0.29854 0.0
C454 C 0.21897 0.75039 0.3659 0.0
C455 C 0.23225 0.74595 0.27582 0.0
C456 C 0.24134 0.75315 0.31984 0.0
C457 C 0.23913 0.75863 0.38715 0.0
C458 C 0.22809 0.7574 0.40987 0.0
C459 C 0.25313 0.75464 0.29595 0.0
C460 C 0.26011 0.73251 0.32583 0.0
C461 C 0.2574 0.7769 0.24289 0.0
C462 C 0.25074 0.80247 0.21176 0.0
C463 C 0.24622 0.82763 0.25064 0.0
C464 C 0.23992 0.85156 0.22107 0.0
C465 C 0.23813 0.85077 0.15255 0.0
C466 C 0.24268 0.8261 0.11345 0.0
C467 C 0.24899 0.80208 0.1428 0.0
H468 H 0.23325 0.86933 0.12974 0.0
H469 H 0.2953 0.63935 0.41707 0.0
H470 H 0.71438 0.74839 0.27434 0.0
H471 H 0.73342 0.74952 0.31773 0.0
H472 H 0.74647 0.7557 0.1182 0.0
H473 H 0.72748 0.75354 0.07449 0.0
H474 H 0.75615 0.70918 0.18945 0.0
H475 H 0.74881 0.82868 0.21956 0.0
H476 H 0.73833 0.87574 0.25916 0.0
H477 H 0.74239 0.84292 0.46062 0.0
H478 H 0.75276 0.79533 0.42213 0.0
H479 H 0.81386 0.76033 0.26519 0.0
H480 H 0.79469 0.75864 0.22377 0.0
H481 H 0.78222 0.75263 0.42458 0.0
H482 H 0.80136 0.75534 0.46638 0.0
H483 H 0.77216 0.79859 0.354 0.0
H484 H 0.77961 0.67947 0.32437 0.0
H485 H 0.79008 0.63234 0.28515 0.0
H486 H 0.78579 0.6642 0.08334 0.0
H487 H 0.77542 0.71187 0.12143 0.0
C488 C 0.72129 0.74979 0.23965 0.0
C489 C 0.71936 0.7511 0.17084 0.0
C490 C 0.7322 0.75074 0.26458 0.0
C491 C 0.74144 0.75309 0.22132 0.0
C492 C 0.73952 0.75402 0.15268 0.0
C493 C 0.72863 0.75313 0.12776 0.0
C494 C 0.7531 0.75428 0.24729 0.0
C495 C 0.75969 0.72903 0.22479 0.0
C496 C 0.75769 0.77962 0.29464 0.0
C497 C 0.75145 0.80821 0.3179 0.0
C498 C 0.74738 0.83131 0.27226 0.0
C499 C 0.74148 0.85811 0.29452 0.0
C500 C 0.73967 0.86225 0.36235 0.0
C501 C 0.74378 0.83965 0.40808 0.0
C502 C 0.74968 0.81277 0.38608 0.0
C503 C 0.80705 0.75885 0.3006 0.0
C504 C 0.80919 0.75777 0.36919 0.0
C505 C 0.79606 0.75757 0.2768 0.0
C506 C 0.78695 0.7551 0.32097 0.0
C507 C 0.78907 0.75439 0.38943 0.0
C508 C 0.80004 0.7556 0.41324 0.0
C509 C 0.77522 0.75355 0.296 0.0
C510 C 0.76862 0.77872 0.3187 0.0
C511 C 0.77061 0.72812 0.24888 0.0
C512 C 0.77684 0.69947 0.22581 0.0
C513 C 0.78098 0.67662 0.27166 0.0
C514 C 0.78688 0.64977 0.24962 0.0
C515 C 0.78863 0.64534 0.18181 0.0
C516 C 0.78445 0.6677 0.13587 0.0
C517 C 0.77855 0.69462 0.15764 0.0
H518 H 0.7932 0.62453 0.16485 0.0
H519 H 0.7351 0.88303 0.37948 0.0
H520 H 0.16528 0.87705 0.4977 0.0
H521 H 0.1629 0.93948 0.49833 0.0
H522 H 0.12695 0.91071 0.49668 0.0
H523 H 0.12944 0.84809 0.48933 0.0
H524 H 0.13036 0.96576 0.43237 0.0
H525 H 0.14453 0.93986 0.64506 0.0
H526 H 0.1573 0.91778 0.72582 0.0
H527 H 0.18456 0.99239 0.6534 0.0
H528 H 0.17196 0.01472 0.57163 0.0
H529 H 0.12028 0.13124 0.57911 0.0
H530 H 0.12279 0.06889 0.56645 0.0
H531 H 0.15521 0.10025 0.47795 0.0
H532 H 0.15259 0.1628 0.4885 0.0
H533 H 0.15344 0.04543 0.58858 0.0
H534 H 0.13687 0.07176 0.37765 0.0
H535 H 0.12233 0.09357 0.3087 0.0
H536 H 0.09721 0.01649 0.396 0.0
H537 H 0.11159 0.99457 0.46622 0.0
C538 C 0.15686 0.88409 0.49691 0.0
C539 C 0.14754 0.85765 0.49414 0.0
C540 C 0.15549 0.91993 0.49815 0.0
C541 C 0.14472 0.93038 0.50024 0.0
C542 C 0.13537 0.90381 0.4957 0.0
C543 C 0.13678 0.86788 0.49177 0.0
C544 C 0.14326 0.96878 0.50731 0.0
C545 C 0.13534 0.98284 0.46732 0.0
C546 C 0.14973 0.99184 0.55245 0.0
C547 C 0.15733 0.97872 0.60183 0.0
C548 C 0.15326 0.95143 0.64613 0.0
C549 C 0.16047 0.93888 0.69211 0.0
C550 C 0.17174 0.95357 0.69464 0.0
C551 C 0.17583 0.98099 0.65133 0.0
C552 C 0.16865 0.99364 0.60521 0.0
C553 C 0.12795 0.12489 0.55686 0.0
C554 C 0.13625 0.15198 0.53479 0.0
C555 C 0.12935 0.08923 0.54957 0.0
C556 C 0.13917 0.07985 0.52112 0.0
C557 C 0.14756 0.10685 0.50004 0.0
C558 C 0.14606 0.14256 0.50606 0.0
C559 C 0.14065 0.04186 0.51369 0.0
C560 C 0.14853 0.02805 0.55377 0.0
C561 C 0.1339 0.01884 0.47039 0.0
C562 C 0.12529 0.03176 0.42763 0.0
C563 C 0.12823 0.05966 0.38255 0.0
C564 C 0.12003 0.072 0.34315 0.0
C565 C 0.10885 0.05648 0.34808 0.0
C566 C 0.10587 0.02851 0.39228 0.0
C567 C 0.11404 0.0161 0.43184 0.0
H568 H 0.10251 0.06608 0.31756 0.0
H569 H 0.17731 0.94377 0.73026 0.0
H570 H 0.87528 0.34464 0.51068 0.0
H571 H 0.87265 0.40696 0.50334 0.0
H572 H 0.90777 0.43755 0.54634 0.0
H573 H 0.91009 0.3753 0.55989 0.0
H574 H 0.89833 0.48193 0.60198 0.0
H575 H 0.89413 0.43745 0.38217 0.0
H576 H 0.8865 0.39649 0.29408 0.0
H577 H 0.85381 0.42678 0.32315 0.0
H578 H 0.86117 0.46707 0.41325 0.0
H579 H 0.89731 0.65841 0.45977 0.0
H580 H 0.90044 0.59594 0.46359 0.0
H581 H 0.86684 0.56635 0.5367 0.0
H582 H 0.86382 0.62855 0.53556 0.0
H583 H 0.87626 0.52376 0.41724 0.0
H584 H 0.88223 0.56584 0.64688 0.0
H585 H 0.89155 0.6083 0.72822 0.0
H586 H 0.92373 0.58518 0.66352 0.0
H587 H 0.91458 0.54296 0.58107 0.0
C588 C 0.8824 0.36472 0.51907 0.0
C589 C 0.89288 0.35502 0.5359 0.0
C590 C 0.88094 0.40052 0.51406 0.0
C591 C 0.89007 0.42757 0.52245 0.0
C592 C 0.90054 0.41765 0.53951 0.0
C593 C 0.90189 0.38191 0.54694 0.0
C594 C 0.88873 0.46602 0.51388 0.0
C595 C 0.89362 0.4908 0.56084 0.0
C596 C 0.8826 0.47847 0.4604 0.0
C597 C 0.87819 0.45505 0.40495 0.0
C598 C 0.8853 0.43526 0.37004 0.0
C599 C 0.88102 0.41211 0.31977 0.0
C600 C 0.86967 0.40904 0.30289 0.0
C601 C 0.86259 0.42915 0.3363 0.0
C602 C 0.86681 0.4521 0.38712 0.0
C603 C 0.8906 0.63854 0.47654 0.0
C604 C 0.88034 0.64842 0.49762 0.0
C605 C 0.89239 0.60289 0.4786 0.0
C606 C 0.88385 0.57646 0.50027 0.0
C607 C 0.87352 0.58624 0.51959 0.0
C608 C 0.87183 0.62184 0.51913 0.0
C609 C 0.88577 0.53874 0.50534 0.0
C610 C 0.88101 0.51439 0.4578 0.0
C611 C 0.89227 0.52683 0.55691 0.0
C612 C 0.89773 0.55156 0.60743 0.0
C613 C 0.8913 0.57003 0.64967 0.0
C614 C 0.89655 0.594 0.69602 0.0
C615 C 0.90823 0.59951 0.70091 0.0
C616 C 0.91468 0.58093 0.65962 0.0
C617 C 0.90947 0.55696 0.61312 0.0
H618 H 0.91228 0.6181 0.73678 0.0
H619 H 0.86638 0.3911 0.26392 0.0
H620 H 0.87769 0.84493 0.55404 0.0
H621 H 0.87523 0.90762 0.5623 0.0
H622 H 0.90464 0.93586 0.44124 0.0
H623 H 0.90694 0.87341 0.4316 0.0
H624 H 0.88699 0.96459 0.61205 0.0
H625 H 0.9022 0.00757 0.3472 0.0
H626 H 0.90257 0.98199 0.23502 0.0
H627 H 0.87417 0.90544 0.28362 0.0
H628 H 0.87353 0.93088 0.39568 0.0
H629 H 0.89496 0.15465 0.59205 0.0
H630 H 0.89762 0.09187 0.5887 0.0
H631 H 0.87043 0.07142 0.44861 0.0
H632 H 0.8679 0.13374 0.45107 0.0
H633 H 0.88645 0.03823 0.40933 0.0
H634 H 0.86757 0.04736 0.61529 0.0
H635 H 0.86417 0.06937 0.72737 0.0
H636 H 0.89516 0.03812 0.79522 0.0
H637 H 0.89882 0.01631 0.68321 0.0
C638 C 0.8836 0.86455 0.52906 0.0
C639 C 0.89247 0.85415 0.49187 0.0
C640 C 0.88222 0.90044 0.53405 0.0
C641 C 0.88967 0.92674 0.50185 0.0
C642 C 0.89864 0.91628 0.46561 0.0
C643 C 0.89997 0.88047 0.46029 0.0
C644 C 0.88803 0.96498 0.50538 0.0
C645 C 0.88692 0.98068 0.56767 0.0
C646 C 0.88767 0.98612 0.44765 0.0
C647 C 0.8879 0.97092 0.38006 0.0
C648 C 0.89601 0.98537 0.33384 0.0
C649 C 0.89627 0.97088 0.27029 0.0
C650 C 0.88843 0.94203 0.25228 0.0
C651 C 0.88027 0.9277 0.2977 0.0
C652 C 0.87996 0.94212 0.36126 0.0
C653 C 0.88957 0.13668 0.56062 0.0
C654 C 0.8812 0.14919 0.522 0.0
C655 C 0.89105 0.10073 0.55891 0.0
C656 C 0.88416 0.07654 0.51874 0.0
C657 C 0.87588 0.08928 0.4799 0.0
C658 C 0.87442 0.12504 0.48154 0.0
C659 C 0.88556 0.03807 0.51608 0.0
C660 C 0.88662 0.02228 0.45383 0.0
C661 C 0.88555 0.01668 0.57374 0.0
C662 C 0.88353 0.03055 0.64068 0.0
C663 C 0.87372 0.04554 0.65391 0.0
C664 C 0.87174 0.0579 0.71745 0.0
C665 C 0.87945 0.05516 0.76832 0.0
C666 C 0.8892 0.04022 0.75571 0.0
C667 C 0.89123 0.02785 0.69222 0.0
H668 H 0.87783 0.0644 0.8176 0.0
H669 H 0.88865 0.93083 0.2031 0.0
H670 H 0.12254 0.63252 0.41846 0.0
H671 H 0.12479 0.57001 0.42831 0.0
H672 H 0.15267 0.59724 0.56149 0.0
H673 H 0.15028 0.65997 0.55267 0.0
H674 H 0.14056 0.53273 0.39702 0.0
H675 H 0.15392 0.53012 0.67261 0.0
H676 H 0.15128 0.56179 0.77681 0.0
H677 H 0.12007 0.58924 0.70413 0.0
H678 H 0.12245 0.55734 0.59992 0.0
H679 H 0.16253 0.37421 0.462 0.0
H680 H 0.15959 0.43616 0.45727 0.0
H681 H 0.12998 0.41251 0.57844 0.0
H682 H 0.13308 0.35017 0.58467 0.0
H683 H 0.1416 0.47395 0.61633 0.0
H684 H 0.12822 0.42437 0.40877 0.0
H685 H 0.12943 0.39065 0.3054 0.0
H686 H 0.15746 0.46487 0.24164 0.0
H687 H 0.15652 0.49879 0.34511 0.0
C688 C 0.12916 0.62522 0.44991 0.0
C689 C 0.13618 0.65122 0.48518 0.0
C690 C 0.13046 0.58939 0.45535 0.0
C691 C 0.13882 0.57855 0.49627 0.0
C692 C 0.14602 0.60464 0.53051 0.0
C693 C 0.14469 0.64057 0.52522 0.0
C694 C 0.13993 0.54002 0.50285 0.0
C695 C 0.14081 0.52 0.44507 0.0
C696 C 0.14003 0.52286 0.56534 0.0
C697 C 0.13843 0.54165 0.62822 0.0
C698 C 0.14647 0.5428 0.679 0.0
C699 C 0.14502 0.56081 0.73803 0.0
C700 C 0.13553 0.57762 0.74699 0.0
C701 C 0.12744 0.57632 0.69704 0.0
C702 C 0.12884 0.55831 0.63795 0.0
C703 C 0.15539 0.38213 0.4878 0.0
C704 C 0.14802 0.35721 0.52356 0.0
C705 C 0.15369 0.41765 0.48483 0.0
C706 C 0.14446 0.42918 0.51663 0.0
C707 C 0.13715 0.4044 0.55334 0.0
C708 C 0.13891 0.36874 0.55671 0.0
C709 C 0.14244 0.46693 0.51057 0.0
C710 C 0.14137 0.48676 0.56835 0.0
C711 C 0.14194 0.48378 0.44803 0.0
C712 C 0.14235 0.46398 0.38494 0.0
C713 C 0.13467 0.43343 0.37282 0.0
C714 C 0.13531 0.41428 0.31422 0.0
C715 C 0.14353 0.42557 0.26704 0.0
C716 C 0.1511 0.45614 0.27825 0.0
C717 C 0.15051 0.47537 0.33683 0.0
H718 H 0.14403 0.41066 0.22176 0.0
H719 H 0.13443 0.59158 0.79269 0.0
H720 H 0.64998 0.66179 0.9675 0.0
H721 H 0.65221 0.59941 0.9524 0.0
H722 H 0.62777 0.57004 0.10622 0.0
H723 H 0.62533 0.63224 0.12021 0.0
H724 H 0.65924 0.55126 0.02557 0.0
H725 H 0.61315 0.48935 0.07644 0.0
H726 H 0.59406 0.50483 0.06229 0.0
H727 H 0.60564 0.57655 0.90473 0.0
H728 H 0.62476 0.56114 0.91729 0.0
H729 H 0.65827 0.36953 0.08785 0.0
H730 H 0.6554 0.43155 0.09334 0.0
H731 H 0.63549 0.41881 0.91484 0.0
H732 H 0.63803 0.35602 0.91065 0.0
H733 H 0.6263 0.45932 0.99516 0.0
H734 H 0.66354 0.46038 0.91564 0.0
H735 H 0.68286 0.4457 0.91448 0.0
H736 H 0.68937 0.49744 0.1022 0.0
H737 H 0.67004 0.51202 0.10491 0.0
C738 C 0.64508 0.642 0.99806 0.0
C739 C 0.63741 0.65193 0.04469 0.0
C740 C 0.64638 0.6063 0.9895 0.0
C741 C 0.64004 0.57968 0.02736 0.0
C742 C 0.63259 0.58978 0.07522 0.0
C743 C 0.63125 0.62543 0.08352 0.0
C744 C 0.64126 0.5415 0.01715 0.0
C745 C 0.65202 0.53122 0.01898 0.0
C746 C 0.63191 0.51517 1.00668 0.0
C747 C 0.62041 0.52434 0.99833 0.0
C748 C 0.61161 0.50832 0.03862 0.0
C749 C 0.60079 0.5171 0.03089 0.0
C750 C 0.59865 0.54174 0.9828 0.0
C751 C 0.60732 0.55757 0.94214 0.0
C752 C 0.61815 0.54885 0.94961 0.0
C753 C 0.65326 0.3799 0.04976 0.0
C754 C 0.64847 0.35796 0.99842 0.0
C755 C 0.65167 0.41552 0.05273 0.0
C756 C 0.64544 0.43039 1.00368 0.0
C757 C 0.64039 0.40821 0.95315 0.0
C758 C 0.64187 0.37232 0.95063 0.0
C759 C 0.64426 0.46899 1.00535 0.0
C760 C 0.63352 0.47936 1.00182 0.0
C761 C 0.65366 0.49556 1.01229 0.0
C762 C 0.66532 0.48704 1.0107 0.0
C763 C 0.66907 0.46843 0.95687 0.0
C764 C 0.68003 0.46015 0.95591 0.0
C765 C 0.68733 0.47056 1.0083 0.0
C766 C 0.6837 0.48936 0.06168 0.0
C767 C 0.67275 0.49768 0.06292 0.0
H768 H 0.6958 0.46412 1.00748 0.0
H769 H 0.59027 0.54852 0.97693 0.0
H770 H 0.38239 0.84952 0.95936 0.0
H771 H 0.38046 0.91242 0.94609 0.0
H772 H 0.39808 0.93584 0.13029 0.0
H773 H 0.4003 0.87317 0.14294 0.0
H774 H 0.37646 0.96653 0.10859 0.0
H775 H 0.4125 0.95526 1.00372 0.0
H776 H 0.42391 0.92735 0.92289 0.0
H777 H 0.40345 0.95735 0.76363 0.0
H778 H 0.39184 0.98512 0.84369 0.0
H779 H 0.38477 0.15087 0.11141 0.0
H780 H 0.38762 0.08877 0.11761 0.0
H781 H 0.3845 0.08061 0.90449 0.0
H782 H 0.3827 0.14388 0.89832 0.0
H783 H 0.39784 0.03978 0.93535 0.0
H784 H 0.36206 0.05072 0.02426 0.0
H785 H 0.34801 0.07392 0.09473 0.0
H786 H 0.36395 0.03963 0.26925 0.0
H787 H 0.37819 0.01662 0.19985 0.0
C788 C 0.38582 0.86808 0.99711 0.0
C789 C 0.39153 0.8565 0.05213 0.0
C790 C 0.38473 0.90398 0.98938 0.0
C791 C 0.38917 0.9288 0.03709 0.0
C792 C 0.39461 0.91712 0.09289 0.0
C793 C 0.39589 0.88137 0.09999 0.0
C794 C 0.38826 0.96703 0.02863 0.0
C795 C 0.38122 0.98276 0.07134 0.0
C796 C 0.39406 0.98768 0.97789 0.0
C797 C 0.40126 0.97201 0.92972 0.0
C798 C 0.41041 0.95576 0.9515 0.0
C799 C 0.41691 0.93999 0.90582 0.0
C800 C 0.41439 0.94051 0.83818 0.0
C801 C 0.40539 0.95697 0.81604 0.0
C802 C 0.39886 0.97277 0.86153 0.0
C803 C 0.38489 0.13584 0.06591 0.0
C804 C 0.3835 0.15197 1.00447 0.0
C805 C 0.38636 0.10016 0.06942 0.0
C806 C 0.38585 0.07919 1.01178 0.0
C807 C 0.38485 0.09581 0.94993 0.0
C808 C 0.38382 0.13199 0.94629 0.0
C809 C 0.38614 0.04005 0.0165 0.0
C810 C 0.39302 0.02391 0.97283 0.0
C811 C 0.37983 0.01861 0.06484 0.0
C812 C 0.37125 0.03223 0.10685 0.0
C813 C 0.36261 0.04831 0.07769 0.0
C814 C 0.35461 0.06141 0.11744 0.0
C815 C 0.35511 0.05833 0.18643 0.0
C816 C 0.36359 0.04203 0.21581 0.0
C817 C 0.37162 0.02892 0.17629 0.0
H818 H 0.34891 0.0685 0.21712 0.0
H819 H 0.41941 0.92821 0.80291 0.0
H820 H 0.39931 0.37612 0.89736 0.0
H821 H 0.39746 0.43847 0.91491 0.0
H822 H 0.37642 0.41004 0.08527 0.0
H823 H 0.37803 0.34746 0.06673 0.0
H824 H 0.36829 0.45911 0.01937 0.0
H825 H 0.4045 0.44601 0.10111 0.0
H826 H 0.42349 0.42872 0.09869 0.0
H827 H 0.43237 0.50012 0.93635 0.0
H828 H 0.41338 0.51748 0.93715 0.0
H829 H 0.39244 0.65444 0.1175 0.0
H830 H 0.39457 0.59121 0.11436 0.0
H831 H 0.37232 0.57701 0.94587 0.0
H832 H 0.36996 0.63938 0.94999 0.0
H833 H 0.40229 0.54864 0.02755 0.0
H834 H 0.35638 0.49852 0.94892 0.0
H835 H 0.33747 0.51518 0.96453 0.0
H836 H 0.34813 0.56874 0.14544 0.0
H837 H 0.36705 0.552 0.13143 0.0
C838 C 0.39423 0.38315 0.9383 0.0
C839 C 0.38886 0.35691 0.98088 0.0
C840 C 0.39324 0.41886 0.94864 0.0
C841 C 0.38699 0.42922 1.00231 0.0
C842 C 0.38134 0.40287 0.04372 0.0
C843 C 0.38227 0.36708 0.0331 0.0
C844 C 0.38633 0.46746 0.01497 0.0
C845 C 0.37574 0.47861 0.02119 0.0
C846 C 0.39603 0.49304 0.01934 0.0
C847 C 0.40748 0.48283 0.01885 0.0
C848 C 0.41048 0.45785 0.06458 0.0
C849 C 0.42125 0.44806 0.06355 0.0
C850 C 0.42912 0.46326 0.0173 0.0
C851 C 0.42626 0.48835 0.9721 0.0
C852 C 0.41549 0.4982 0.97287 0.0
C853 C 0.38802 0.63771 0.0799 0.0
C854 C 0.38092 0.65173 0.03454 0.0
C855 C 0.38926 0.60163 0.07801 0.0
C856 C 0.38343 0.57903 0.0307 0.0
C857 C 0.37668 0.59351 0.98396 0.0
C858 C 0.37538 0.6293 0.98619 0.0
C859 C 0.38425 0.54032 0.02979 0.0
C860 C 0.39486 0.52908 0.0259 0.0
C861 C 0.37458 0.51452 0.02938 0.0
C862 C 0.36316 0.52423 0.03878 0.0
C863 C 0.35467 0.51369 0.99221 0.0
C864 C 0.34395 0.52319 1.00074 0.0
C865 C 0.34161 0.54309 0.05584 0.0
C866 C 0.34997 0.55343 0.10267 0.0
C867 C 0.36069 0.54398 0.09441 0.0
H868 H 0.33331 0.55044 0.0623 0.0
H869 H 0.43746 0.45564 0.01658 0.0
H870 H 0.62707 0.13446 0.89607 0.0
H871 H 0.62896 0.07182 0.91041 0.0
H872 H 0.64998 0.09766 0.08168 0.0
H873 H 0.64845 0.16043 0.06572 0.0
H874 H 0.65834 0.05082 0.01699 0.0
H875 H 0.62128 0.05884 0.09171 0.0
H876 H 0.60205 0.07407 0.08607 0.0
H877 H 0.59503 0.00557 0.91815 0.0
H878 H 0.61427 0.99029 0.92222 0.0
H879 H 0.63516 0.85328 0.10627 0.0
H880 H 0.63251 0.91608 0.10282 0.0
H881 H 0.65599 0.93337 0.9406 0.0
H882 H 0.65882 0.87133 0.94492 0.0
H883 H 0.62503 0.95858 0.01441 0.0
H884 H 0.67123 0.01345 0.94886 0.0
H885 H 0.69024 0.99871 0.96987 0.0
H886 H 0.67857 0.94256 0.14688 0.0
H887 H 0.65954 0.95738 0.12746 0.0
C888 C 0.63211 0.12675 0.93668 0.0
C889 C 0.63756 0.15238 0.97994 0.0
C890 C 0.63313 0.09083 0.94522 0.0
C891 C 0.63944 0.07958 0.99804 0.0
C892 C 0.64503 0.10537 0.04064 0.0
C893 C 0.64414 0.14133 0.03157 0.0
C894 C 0.64035 0.04113 1.00832 0.0
C895 C 0.65103 0.03076 0.01639 0.0
C896 C 0.63084 0.01464 1.00944 0.0
C897 C 0.61925 0.02366 1.00693 0.0
C898 C 0.61566 0.04721 0.0533 0.0
C899 C 0.60476 0.05582 0.05042 0.0
C900 C 0.59733 0.04086 1.00169 0.0
C901 C 0.60079 0.01717 0.95582 0.0
C902 C 0.6117 0.0085 0.95843 0.0
C903 C 0.63974 0.87057 0.06998 0.0
C904 C 0.6473 0.85745 0.02642 0.0
C905 C 0.6382 0.90644 0.06787 0.0
C906 C 0.6442 0.92982 0.02222 0.0
C907 C 0.65146 0.91628 0.97737 0.0
C908 C 0.65304 0.88066 0.97971 0.0
C909 C 0.64302 0.96839 0.0213 0.0
C910 C 0.63232 0.97873 0.01504 0.0
C911 C 0.65248 0.99498 0.02385 0.0
C912 C 0.66394 0.98626 0.0363 0.0
C913 C 0.67273 0.99809 0.9924 0.0
C914 C 0.68351 0.98969 1.00402 0.0
C915 C 0.6856 0.96962 0.05956 0.0
C916 C 0.67693 0.95799 0.10374 0.0
C917 C 0.66615 0.96635 0.09241 0.0
H918 H 0.69395 0.96313 0.06843 0.0
H919 H 0.5889 0.04756 0.99954 0.0
H920 H 0.15822 0.2381 0.30962 0.0
H921 H 0.15825 0.24028 0.1885 0.0
H922 H 0.12541 0.27329 0.19044 0.0
H923 H 0.1253 0.27114 0.31195 0.0
H924 H 0.12698 0.22196 0.09721 0.0
H925 H 0.14769 0.33282 0.15827 0.0
H926 H 0.16228 0.37277 0.21677 0.0
H927 H 0.18788 0.32356 0.12001 0.0
H928 H 0.17342 0.28294 0.06158 0.0
H929 H 0.1266 0.27705 0.76042 0.0
H930 H 0.12651 0.27686 0.88156 0.0
H931 H 0.15916 0.2426 0.88308 0.0
H932 H 0.15936 0.24281 0.76147 0.0
H933 H 0.15752 0.29539 0.97467 0.0
H934 H 0.13629 0.18419 0.9137 0.0
H935 H 0.12138 0.14537 0.85536 0.0
H936 H 0.09635 0.19699 0.95237 0.0
H937 H 0.11113 0.23649 1.0106 0.0
C938 C 0.15098 0.24577 0.28447 0.0
C939 C 0.14176 0.25449 0.32078 0.0
C940 C 0.15103 0.24716 0.21507 0.0
C941 C 0.14188 0.25727 0.18022 0.0
C942 C 0.13258 0.26546 0.21619 0.0
C943 C 0.13254 0.2643 0.28573 0.0
C944 C 0.14203 0.25918 0.10632 0.0
C945 C 0.13357 0.2384 0.07046 0.0
C946 C 0.15074 0.28014 0.07121 0.0
C947 C 0.15947 0.30459 0.10604 0.0
C948 C 0.15643 0.33031 0.14987 0.0
C949 C 0.16468 0.35312 0.18294 0.0
C950 C 0.176 0.35064 0.17225 0.0
C951 C 0.17911 0.32541 0.12831 0.0
C952 C 0.17089 0.30251 0.09514 0.0
C953 C 0.1338 0.26956 0.78631 0.0
C954 C 0.14298 0.25983 0.75094 0.0
C955 C 0.13371 0.26934 0.85576 0.0
C956 C 0.14277 0.25936 0.8916 0.0
C957 C 0.15206 0.25034 0.85656 0.0
C958 C 0.15214 0.25037 0.78696 0.0
C959 C 0.14249 0.25803 0.96556 0.0
C960 C 0.15093 0.27895 1.00143 0.0
C961 C 0.13372 0.23737 1.0007 0.0
C962 C 0.12482 0.21353 0.966 0.0
C963 C 0.12761 0.18746 0.92219 0.0
C964 C 0.11918 0.16529 0.88921 0.0
C965 C 0.10792 0.16877 0.90001 0.0
C966 C 0.10507 0.19436 0.94397 0.0
C967 C 0.11347 0.21662 0.97702 0.0
H968 H 0.10141 0.15159 0.87444 0.0
H969 H 0.18238 0.36832 0.19789 0.0
H970 H 0.90358 0.23688 0.30925 0.0
H971 H 0.90358 0.23704 0.18787 0.0
H972 H 0.87164 0.27621 0.18767 0.0
H973 H 0.8717 0.27687 0.30872 0.0
H974 H 0.89031 0.2013 0.10191 0.0
H975 H 0.86853 0.32498 0.0506 0.0
H976 H 0.86748 0.3843 0.09663 0.0
H977 H 0.89952 0.38413 0.1899 0.0
H978 H 0.9008 0.32493 0.14416 0.0
H979 H 0.86998 0.26656 0.75842 0.0
H980 H 0.87008 0.26731 0.87985 0.0
H981 H 0.90255 0.23169 0.88048 0.0
H982 H 0.90242 0.23013 0.75946 0.0
H983 H 0.88358 0.30472 0.96571 0.0
H984 H 0.90571 0.18251 0.01804 0.0
H985 H 0.9078 0.12514 0.96678 0.0
H986 H 0.87605 0.12375 0.86907 0.0
H987 H 0.87369 0.18078 0.92051 0.0
C988 C 0.89659 0.24579 0.28344 0.0
C989 C 0.88766 0.25696 0.319 0.0
C990 C 0.89659 0.24578 0.21389 0.0
C991 C 0.88767 0.25698 0.17822 0.0
C992 C 0.87874 0.26811 0.2137 0.0
C993 C 0.87876 0.26828 0.28317 0.0
C994 C 0.88752 0.25587 0.10413 0.0
C995 C 0.88899 0.22411 0.07221 0.0
C996 C 0.88554 0.28527 0.06494 0.0
C997 C 0.8847 0.32039 0.09442 0.0
C998 C 0.87534 0.3376 0.08101 0.0
C999 C 0.87471 0.37119 0.10701 0.0
C1000 C 0.88343 0.38797 0.14607 0.0
C1001 C 0.89277 0.37107 0.15968 0.0
C1002 C 0.89343 0.33744 0.13396 0.0
C1003 C 0.87712 0.25864 0.78436 0.0
C1004 C 0.88617 0.24809 0.74897 0.0
C1005 C 0.87717 0.2592 0.85389 0.0
C1006 C 0.88626 0.24917 0.88963 0.0
C1007 C 0.89533 0.23887 0.85433 0.0
C1008 C 0.89526 0.23813 0.78491 0.0
C1009 C 0.88636 0.25021 0.96366 0.0
C1010 C 0.88487 0.28192 0.99552 0.0
C1011 C 0.88838 0.22083 1.00274 0.0
C1012 C 0.88959 0.1861 0.97265 0.0
C1013 C 0.89915 0.16986 0.98589 0.0
C1014 C 0.90039 0.13741 0.95675 0.0
C1015 C 0.89209 0.12085 0.91452 0.0
C1016 C 0.8825 0.13662 0.9016 0.0
C1017 C 0.88121 0.16904 0.9307 0.0
H1018 H 0.89309 0.09577 0.89195 0.0
H1019 H 0.88296 0.4141 0.16572 0.0
H1020 H 0.12556 0.77211 0.26249 0.0
H1021 H 0.12548 0.77076 0.14126 0.0
H1022 H 0.15902 0.74321 0.14174 0.0
H1023 H 0.15918 0.74447 0.26327 0.0
H1024 H 0.15641 0.79464 0.04878 0.0
H1025 H 0.1375 0.68087 0.11159 0.0
H1026 H 0.12342 0.63901 0.17033 0.0
H1027 H 0.09695 0.68341 0.07182 0.0
H1028 H 0.11088 0.72593 0.01319 0.0
H1029 H 0.15806 0.73828 0.71353 0.0
H1030 H 0.15812 0.73973 0.83472 0.0
H1031 H 0.12454 0.76691 0.83401 0.0
H1032 H 0.12439 0.76556 0.71246 0.0
H1033 H 0.12716 0.71567 0.92711 0.0
H1034 H 0.14601 0.82946 0.86457 0.0
H1035 H 0.16004 0.87158 0.80618 0.0
H1036 H 0.18659 0.82742 0.90423 0.0
H1037 H 0.17271 0.78461 0.96261 0.0
C1038 C 0.13295 0.76588 0.23696 0.0
C1039 C 0.14237 0.75834 0.27285 0.0
C1040 C 0.13287 0.76496 0.16752 0.0
C1041 C 0.14221 0.75656 0.13225 0.0
C1042 C 0.15171 0.7497 0.16781 0.0
C1043 C 0.15177 0.75034 0.23737 0.0
C1044 C 0.14201 0.7548 0.05834 0.0
C1045 C 0.15011 0.77701 0.02221 0.0
C1046 C 0.13363 0.7324 0.02347 0.0
C1047 C 0.12523 0.70684 0.05853 0.0
C1048 C 0.12867 0.68192 0.10289 0.0
C1049 C 0.12072 0.65803 0.13608 0.0
C1050 C 0.1093 0.65861 0.12495 0.0
C1051 C 0.1058 0.68303 0.08047 0.0
C1052 C 0.11372 0.70702 0.0472 0.0
C1053 C 0.15066 0.74449 0.73898 0.0
C1054 C 0.14123 0.75188 0.70301 0.0
C1055 C 0.15073 0.74545 0.80842 0.0
C1056 C 0.14138 0.75375 0.84363 0.0
C1057 C 0.13186 0.7605 0.80799 0.0
C1058 C 0.13181 0.75981 0.73842 0.0
C1059 C 0.14156 0.75551 0.91755 0.0
C1060 C 0.13346 0.7333 0.95367 0.0
C1061 C 0.14994 0.77791 0.95243 0.0
C1062 C 0.15832 0.80357 0.91741 0.0
C1063 C 0.15484 0.8285 0.87324 0.0
C1064 C 0.16277 0.85255 0.84022 0.0
C1065 C 0.1742 0.85213 0.8513 0.0
C1066 C 0.17773 0.82768 0.8956 0.0
C1067 C 0.16984 0.80353 0.92871 0.0
H1068 H 0.18032 0.8708 0.82569 0.0
H1069 H 0.10315 0.64009 0.15068 0.0
H1070 H 0.87278 0.78272 0.7169 0.0
H1071 H 0.87279 0.78216 0.83803 0.0
H1072 H 0.90077 0.72275 0.83767 0.0
H1073 H 0.90078 0.72294 0.71611 0.0
H1074 H 0.88493 0.69571 0.92629 0.0
H1075 H 0.9045 0.81036 0.87478 0.0
H1076 H 0.90737 0.86899 0.82098 0.0
H1077 H 0.87804 0.89658 0.91799 0.0
H1078 H 0.8749 0.83787 0.97165 0.0
H1079 H 0.89968 0.71949 0.26625 0.0
H1080 H 0.8997 0.72022 0.1451 0.0
H1081 H 0.87163 0.77926 0.14555 0.0
H1082 H 0.87158 0.77886 0.26711 0.0
H1083 H 0.88752 0.80657 0.05692 0.0
H1084 H 0.8679 0.69201 0.10811 0.0
H1085 H 0.86498 0.63336 0.16184 0.0
H1086 H 0.89433 0.60565 0.06537 0.0
H1087 H 0.89753 0.66437 1.01178 0.0
C1088 C 0.87897 0.76958 0.7424 0.0
C1089 C 0.88682 0.753 0.70651 0.0
C1090 C 0.87899 0.76941 0.81185 0.0
C1091 C 0.88686 0.75274 0.84722 0.0
C1092 C 0.89464 0.73587 0.81159 0.0
C1093 C 0.89466 0.73613 0.74201 0.0
C1094 C 0.88686 0.75258 0.92127 0.0
C1095 C 0.88567 0.71999 0.95483 0.0
C1096 C 0.88752 0.78419 0.95873 0.0
C1097 C 0.8894 0.81957 0.92671 0.0
C1098 C 0.89861 0.82881 0.88422 0.0
C1099 C 0.90029 0.86208 0.85382 0.0
C1100 C 0.89287 0.88646 0.86591 0.0
C1101 C 0.88377 0.87765 0.90859 0.0
C1102 C 0.88204 0.84439 0.93905 0.0
C1103 C 0.89347 0.73258 0.24076 0.0
C1104 C 0.88559 0.749 0.27667 0.0
C1105 C 0.89348 0.73286 0.1713 0.0
C1106 C 0.8856 0.7495 0.13596 0.0
C1107 C 0.87778 0.7662 0.17161 0.0
C1108 C 0.87774 0.76581 0.24119 0.0
C1109 C 0.8856 0.7497 0.06192 0.0
C1110 C 0.88679 0.7823 0.02837 0.0
C1111 C 0.88493 0.7181 0.02445 0.0
C1112 C 0.88302 0.68273 0.05646 0.0
C1113 C 0.87379 0.67352 0.09878 0.0
C1114 C 0.87207 0.64025 0.12914 0.0
C1115 C 0.87948 0.61583 0.11717 0.0
C1116 C 0.88861 0.62461 0.07467 0.0
C1117 C 0.89037 0.65788 0.04425 0.0
H1118 H 0.87814 0.59008 0.14071 0.0
H1119 H 0.89419 0.91221 0.84233 0.0
H1120 H 0.65965 0.74157 0.26791 0.0
H1121 H 0.6595 0.7407 0.38933 0.0
H1122 H 0.62726 0.77798 0.38925 0.0
H1123 H 0.62746 0.77961 0.26819 0.0
H1124 H 0.64014 0.81117 0.48217 0.0
H1125 H 0.63015 0.68971 0.41745 0.0
H1126 H 0.63261 0.63456 0.35914 0.0
H1127 H 0.66355 0.63039 0.46288 0.0
H1128 H 0.66135 0.68581 0.52117 0.0
H1129 H 0.62557 0.77057 0.81856 0.0
H1130 H 0.62578 0.77187 0.69713 0.0
H1131 H 0.65798 0.73443 0.69703 0.0
H1132 H 0.65774 0.73234 0.81801 0.0
H1133 H 0.64512 0.70138 0.60423 0.0
H1134 H 0.65514 0.82265 0.66916 0.0
H1135 H 0.6527 0.87768 0.72793 0.0
H1136 H 0.62179 0.88226 0.62409 0.0
H1137 H 0.62397 0.82695 0.56537 0.0
C1138 C 0.65255 0.74972 0.29368 0.0
C1139 C 0.64355 0.76055 0.25804 0.0
C1140 C 0.65244 0.74904 0.36324 0.0
C1141 C 0.64329 0.75878 0.39874 0.0
C1142 C 0.63442 0.77028 0.36323 0.0
C1143 C 0.63454 0.77112 0.2938 0.0
C1144 C 0.64287 0.75678 0.47273 0.0
C1145 C 0.6411 0.78701 0.50876 0.0
C1146 C 0.64433 0.72553 0.50786 0.0
C1147 C 0.64564 0.69209 0.47318 0.0
C1148 C 0.63752 0.67717 0.42748 0.0
C1149 C 0.63886 0.64584 0.39448 0.0
C1150 C 0.64825 0.62903 0.40717 0.0
C1151 C 0.65629 0.64347 0.45303 0.0
C1152 C 0.655 0.67482 0.4861 0.0
C1153 C 0.63268 0.76248 0.79274 0.0
C1154 C 0.64165 0.75144 0.82829 0.0
C1155 C 0.63282 0.76342 0.72318 0.0
C1156 C 0.64197 0.75372 0.68765 0.0
C1157 C 0.65083 0.74209 0.72308 0.0
C1158 C 0.65068 0.74099 0.79248 0.0
C1159 C 0.6424 0.75577 0.61367 0.0
C1160 C 0.64417 0.72555 0.57765 0.0
C1161 C 0.64094 0.78704 0.57857 0.0
C1162 C 0.63967 0.82048 0.61334 0.0
C1163 C 0.64779 0.83526 0.65919 0.0
C1164 C 0.64645 0.86652 0.69245 0.0
C1165 C 0.63708 0.88341 0.67988 0.0
C1166 C 0.62904 0.86912 0.63385 0.0
C1167 C 0.63032 0.83784 0.60052 0.0
H1168 H 0.63606 0.9076 0.70569 0.0
H1169 H 0.64927 0.60478 0.38157 0.0
H1170 H 0.40429 0.74965 0.82476 0.0
H1171 H 0.40405 0.74918 0.70304 0.0
H1172 H 0.36928 0.76494 0.70462 0.0
H1173 H 0.36946 0.76574 0.82582 0.0
H1174 H 0.37335 0.71222 0.61765 0.0
H1175 H 0.38819 0.83197 0.66635 0.0
H1176 H 0.40098 0.88001 0.71868 0.0
H1177 H 0.42898 0.84499 0.61915 0.0
H1178 H 0.41637 0.79635 0.56702 0.0
H1179 H 0.36816 0.75897 0.27567 0.0
H1180 H 0.36842 0.76039 0.39731 0.0
H1181 H 0.40307 0.74333 0.39659 0.0
H1182 H 0.40287 0.74156 0.27535 0.0
H1183 H 0.39901 0.79714 0.48314 0.0
H1184 H 0.38389 0.67686 0.4352 0.0
H1185 H 0.37088 0.62923 0.38333 0.0
H1186 H 0.34311 0.66622 0.48187 0.0
H1187 H 0.35594 0.71444 0.5336 0.0
C1188 C 0.3966 0.75311 0.79921 0.0
C1189 C 0.38691 0.75788 0.83519 0.0
C1190 C 0.39648 0.75292 0.72961 0.0
C1191 C 0.38665 0.75716 0.69461 0.0
C1192 C 0.37695 0.7616 0.73045 0.0
C1193 C 0.3771 0.76223 0.79986 0.0
C1194 C 0.38642 0.75678 0.62067 0.0
C1195 C 0.37887 0.73108 0.58827 0.0
C1196 C 0.39373 0.78099 0.58221 0.0
C1197 C 0.40135 0.81025 0.61335 0.0
C1198 C 0.39708 0.83429 0.6561 0.0
C1199 C 0.4043 0.86168 0.68565 0.0
C1200 C 0.41579 0.86548 0.6724 0.0
C1201 C 0.42008 0.84196 0.62945 0.0
C1202 C 0.4129 0.81449 0.59986 0.0
C1203 C 0.37583 0.7554 0.30137 0.0
C1204 C 0.38548 0.74996 0.26559 0.0
C1205 C 0.37596 0.75618 0.37095 0.0
C1206 C 0.38576 0.75187 0.40619 0.0
C1207 C 0.39542 0.74677 0.37057 0.0
C1208 C 0.39526 0.74555 0.30115 0.0
C1209 C 0.38596 0.75252 0.48015 0.0
C1210 C 0.3935 0.77829 0.51256 0.0
C1211 C 0.3786 0.72846 0.51866 0.0
C1212 C 0.37086 0.69951 0.48767 0.0
C1213 C 0.375 0.67505 0.44532 0.0
C1214 C 0.36766 0.6479 0.41605 0.0
C1215 C 0.35617 0.64476 0.42914 0.0
C1216 C 0.352 0.66873 0.47168 0.0
C1217 C 0.35931 0.69596 0.50102 0.0
H1218 H 0.3505 0.62371 0.40645 0.0
H1219 H 0.42136 0.88671 0.69527 0.0
H1220 H 0.62841 0.28227 0.20417 0.0
H1221 H 0.62865 0.28387 0.32568 0.0
H1222 H 0.65661 0.22436 0.32762 0.0
H1223 H 0.65638 0.22239 0.20651 0.0
H1224 H 0.64144 0.20005 0.42109 0.0
H1225 H 0.66052 0.31309 0.35315 0.0
H1226 H 0.66269 0.36976 0.29238 0.0
H1227 H 0.63418 0.3999 0.39436 0.0
H1228 H 0.63172 0.34312 0.45504 0.0
H1229 H 0.65873 0.23208 0.75576 0.0
H1230 H 0.65838 0.23093 0.63429 0.0
H1231 H 0.63042 0.29043 0.63424 0.0
H1232 H 0.63075 0.29191 0.75544 0.0
H1233 H 0.64548 0.31484 0.53981 0.0
H1234 H 0.6264 0.20194 0.60779 0.0
H1235 H 0.62409 0.14505 0.66786 0.0
H1236 H 0.65251 0.11456 0.56546 0.0
H1237 H 0.65509 0.17153 0.50544 0.0
C1238 C 0.63458 0.26937 0.23041 0.0
C1239 C 0.6424 0.25231 0.19533 0.0
C1240 C 0.63474 0.27045 0.29998 0.0
C1241 C 0.64274 0.25457 0.33602 0.0
C1242 C 0.65038 0.23686 0.30112 0.0
C1243 C 0.65025 0.23587 0.23167 0.0
C1244 C 0.64325 0.25668 0.40998 0.0
C1245 C 0.64246 0.22518 0.44696 0.0
C1246 C 0.64436 0.2894 0.44409 0.0
C1247 C 0.64587 0.32369 0.40813 0.0
C1248 C 0.65466 0.33168 0.36226 0.0
C1249 C 0.65595 0.36384 0.32787 0.0
C1250 C 0.64856 0.38838 0.33937 0.0
C1251 C 0.63988 0.38084 0.38543 0.0
C1252 C 0.63854 0.34869 0.41986 0.0
C1253 C 0.65255 0.24511 0.72997 0.0
C1254 C 0.64475 0.26198 0.76562 0.0
C1255 C 0.65232 0.24428 0.6604 0.0
C1256 C 0.64429 0.26025 0.62488 0.0
C1257 C 0.63669 0.27787 0.66033 0.0
C1258 C 0.63688 0.27859 0.72982 0.0
C1259 C 0.64369 0.2582 0.55093 0.0
C1260 C 0.64445 0.28971 0.51394 0.0
C1261 C 0.64256 0.22548 0.51679 0.0
C1262 C 0.64101 0.19116 0.55265 0.0
C1263 C 0.63221 0.18323 0.59848 0.0
C1264 C 0.63084 0.15095 0.63246 0.0
C1265 C 0.63817 0.12624 0.62063 0.0
C1266 C 0.64686 0.13374 0.57465 0.0
C1267 C 0.64827 0.16602 0.54062 0.0
H1268 H 0.63709 0.10126 0.64696 0.0
H1269 H 0.64957 0.41326 0.31269 0.0
H1270 H 0.36788 0.25523 0.20988 0.0
H1271 H 0.36786 0.25385 0.3309 0.0
H1272 H 0.40349 0.24968 0.33074 0.0
H1273 H 0.40346 0.24958 0.20925 0.0
H1274 H 0.39424 0.2068 0.4207 0.0
H1275 H 0.39142 0.32781 0.36595 0.0
H1276 H 0.38338 0.37635 0.31087 0.0
H1277 H 0.35198 0.34506 0.40955 0.0
H1278 H 0.35979 0.29603 0.46455 0.0
H1279 H 0.40379 0.25221 0.75889 0.0
H1280 H 0.4036 0.25215 0.63789 0.0
H1281 H 0.36771 0.25046 0.63926 0.0
H1282 H 0.36785 0.25134 0.76069 0.0
H1283 H 0.37704 0.2962 0.54912 0.0
H1284 H 0.38023 0.17528 0.60479 0.0
H1285 H 0.38859 0.12738 0.65992 0.0
H1286 H 0.41977 0.15977 0.55962 0.0
H1287 H 0.41165 0.20817 0.50456 0.0
C1288 C 0.37573 0.25407 0.23555 0.0
C1289 C 0.38569 0.25276 0.19987 0.0
C1290 C 0.37571 0.25347 0.30493 0.0
C1291 C 0.38572 0.25243 0.34038 0.0
C1292 C 0.39566 0.25062 0.30475 0.0
C1293 C 0.39564 0.25064 0.23523 0.0
C1294 C 0.38578 0.25293 0.41444 0.0
C1295 C 0.39061 0.22669 0.44867 0.0
C1296 C 0.38084 0.27835 0.45139 0.0
C1297 C 0.37617 0.30806 0.41892 0.0
C1298 C 0.38279 0.33116 0.3756 0.0
C1299 C 0.37827 0.35877 0.34443 0.0
C1300 C 0.36717 0.36374 0.35659 0.0
C1301 C 0.36057 0.34116 0.40012 0.0
C1302 C 0.36504 0.31348 0.43136 0.0
C1303 C 0.39583 0.25172 0.73364 0.0
C1304 C 0.38582 0.2516 0.76976 0.0
C1305 C 0.39573 0.25154 0.66424 0.0
C1306 C 0.38562 0.25074 0.6292 0.0
C1307 C 0.37562 0.25097 0.66508 0.0
C1308 C 0.37571 0.25139 0.73459 0.0
C1309 C 0.3855 0.25012 0.55522 0.0
C1310 C 0.38066 0.27634 0.52106 0.0
C1311 C 0.39049 0.22482 0.51835 0.0
C1312 C 0.39536 0.19553 0.551 0.0
C1313 C 0.38889 0.17232 0.59483 0.0
C1314 C 0.39359 0.14506 0.62601 0.0
C1315 C 0.40471 0.14058 0.6134 0.0
C1316 C 0.41116 0.16329 0.5694 0.0
C1317 C 0.40651 0.19062 0.53814 0.0
H1318 H 0.40833 0.11947 0.63761 0.0
H1319 H 0.36369 0.38512 0.33237 0.0
H1320 H 0.06212 0.31741 0.49923 0.0
H1321 H 0.0418 0.31467 0.49157 0.0
H1322 H 0.03902 0.20511 0.43374 0.0
H1323 H 0.05945 0.20793 0.43921 0.0
H1324 H 0.02504 0.24039 0.36093 0.0
H1325 H 0.03344 0.22795 0.59244 0.0
H1326 H 0.04297 0.24506 0.69815 0.0
H1327 H 0.02923 0.34313 0.69649 0.0
H1328 H 0.01975 0.32679 0.59026 0.0
H1329 H 0.96688 0.1934 0.42517 0.0
H1330 H 0.98725 0.19846 0.42048 0.0
H1331 H 0.98982 0.3046 0.49766 0.0
H1332 H 0.96945 0.2989 0.50663 0.0
H1333 H 1.00406 0.27165 0.55905 0.0
H1334 H 0.9954 0.28456 0.32901 0.0
H1335 H 0.98597 0.26835 0.22266 0.0
H1336 H 1.00017 0.1711 0.21997 0.0
H1337 H 1.00957 0.18653 0.32677 0.0
C1338 C 0.05724 0.29284 0.48376 0.0
C1339 C 0.06248 0.26287 0.46986 0.0
C1340 C 0.04557 0.29122 0.48012 0.0
C1341 C 0.03883 0.25955 0.463 0.0
C1342 C 0.04403 0.22982 0.44738 0.0
C1343 C 0.05571 0.2314 0.45103 0.0
C1344 C 0.02636 0.25731 0.46274 0.0
C1345 C 0.02043 0.24682 0.40447 0.0
C1346 C 0.02033 0.26652 0.51899 0.0
C1347 C 0.02597 0.27629 0.58308 0.0
C1348 C 0.03252 0.25327 0.61438 0.0
C1349 C 0.0379 0.26281 0.67442 0.0
C1350 C 0.03673 0.2952 0.70393 0.0
C1351 C 0.03015 0.31807 0.67353 0.0
C1352 C 0.02476 0.30867 0.61344 0.0
C1353 C 0.97174 0.21782 0.44152 0.0
C1354 C 0.96641 0.24567 0.46659 0.0
C1355 C 0.98345 0.22087 0.4379 0.0
C1356 C 0.99016 0.2521 0.45794 0.0
C1357 C 0.98487 0.28021 0.48171 0.0
C1358 C 0.97316 0.27705 0.48605 0.0
C1359 C 1.00268 0.25488 0.457 0.0
C1360 C 1.00863 0.26538 0.51524 0.0
C1361 C 1.00872 0.24584 0.40058 0.0
C1362 C 1.00311 0.23657 0.33619 0.0
C1363 C 0.99645 0.25961 0.30597 0.0
C1364 C 0.99112 0.25058 0.24557 0.0
C1365 C 0.99245 0.21868 0.21465 0.0
C1366 C 0.99914 0.19579 0.244 0.0
C1367 C 1.00448 0.20468 0.30443 0.0
H1368 H 0.98831 0.21173 0.1679 0.0
H1369 H 0.0409 0.30255 0.75042 0.0
H1370 H 0.96608 0.69622 0.61235 0.0
H1371 H 0.98646 0.70034 0.61602 0.0
H1372 H 0.98937 0.79917 0.50896 0.0
H1373 H 0.969 0.79421 0.50164 0.0
H1374 H 1.00312 0.76021 0.45791 0.0
H1375 H 0.99532 0.79304 0.68061 0.0
H1376 H 0.98623 0.78657 0.79038 0.0
H1377 H 1.00003 0.69009 0.82367 0.0
H1378 H 1.0091 0.69574 0.71368 0.0
H1379 H 0.06115 0.81228 0.5083 0.0
H1380 H 0.0408 0.80902 0.51504 0.0
H1381 H 0.03861 0.70465 0.60062 0.0
H1382 H 0.05909 0.70802 0.59537 0.0
H1383 H 0.02464 0.74575 0.66374 0.0
H1384 H 0.03248 0.71399 0.43977 0.0
H1385 H 0.04173 0.72185 0.33058 0.0
H1386 H 0.02788 0.81856 0.30083 0.0
H1387 H 0.01867 0.81153 0.41031 0.0
C1388 C 0.97102 0.71882 0.58929 0.0
C1389 C 0.96579 0.74483 0.55653 0.0
C1390 C 0.98273 0.72137 0.59219 0.0
C1391 C 0.98954 0.75028 0.5634 0.0
C1392 C 0.98435 0.7766 0.53172 0.0
C1393 C 0.97265 0.77392 0.52828 0.0
C1394 C 1.00203 0.7524 0.56376 0.0
C1395 C 1.00781 0.7576 0.5032 0.0
C1396 C 1.00822 0.74807 0.62241 0.0
C1397 C 1.0028 0.74465 0.68863 0.0
C1398 C 0.99635 0.7703 0.71113 0.0
C1399 C 0.99121 0.76681 0.77342 0.0
C1400 C 0.99253 0.73789 0.8139 0.0
C1401 C 0.99901 0.71245 0.79223 0.0
C1402 C 1.00416 0.71581 0.72995 0.0
C1403 C 0.05639 0.78879 0.5295 0.0
C1404 C 0.0618 0.76041 0.55139 0.0
C1405 C 0.04471 0.78684 0.53272 0.0
C1406 C 0.03814 0.75643 0.55765 0.0
C1407 C 0.0435 0.72835 0.58098 0.0
C1408 C 0.0552 0.73021 0.57752 0.0
C1409 C 0.02566 0.75384 0.5581 0.0
C1410 C 0.01991 0.74844 0.61864 0.0
C1411 C 0.01949 0.75821 0.49954 0.0
C1412 C 0.02497 0.76239 0.43352 0.0
C1413 C 0.03148 0.73707 0.41017 0.0
C1414 C 0.0367 0.74136 0.34819 0.0
C1415 C 0.03541 0.77073 0.30886 0.0
C1416 C 0.02888 0.79584 0.33138 0.0
C1417 C 0.02365 0.7917 0.39336 0.0
H1418 H 0.03946 0.774 0.26089 0.0
H1419 H 0.98854 0.73523 0.86211 0.0
H1420 H 0.5592 0.70945 0.94436 0.0
H1421 H 0.53877 0.70688 0.94085 0.0
H1422 H 0.54149 0.81029 0.03007 0.0
H1423 H 0.56184 0.81269 0.03522 0.0
H1424 H 0.52521 0.76534 0.08853 0.0
H1425 H 0.53585 0.79842 0.86452 0.0
H1426 H 0.54502 0.79206 0.75666 0.0
H1427 H 0.52508 0.69102 0.72812 0.0
H1428 H 0.51589 0.69656 0.83629 0.0
H1429 H 0.46952 0.79861 0.04126 0.0
H1430 H 0.48988 0.80254 0.03538 0.0
H1431 H 0.48671 0.70275 0.93235 0.0
H1432 H 0.46633 0.69958 0.93464 0.0
H1433 H 0.50328 0.74513 0.88046 0.0
H1434 H 0.49274 0.71076 0.10292 0.0
H1435 H 0.48367 0.71528 0.21168 0.0
H1436 H 0.50349 0.81611 0.24471 0.0
H1437 H 0.51257 0.81241 0.1357 0.0
C1438 C 0.55545 0.73163 0.96334 0.0
C1439 C 0.56222 0.76138 0.98968 0.0
C1440 C 0.54376 0.73024 0.96085 0.0
C1441 C 0.53855 0.75855 0.98463 0.0
C1442 C 0.54528 0.78816 1.01118 0.0
C1443 C 0.55695 0.78963 0.01348 0.0
C1444 C 0.5261 0.75718 0.98314 0.0
C1445 C 0.52043 0.76139 0.04286 0.0
C1446 C 0.5198 0.75104 0.92396 0.0
C1447 C 0.52527 0.74775 0.85879 0.0
C1448 C 0.53349 0.77472 0.83547 0.0
C1449 C 0.53867 0.77129 0.77424 0.0
C1450 C 0.53566 0.74112 0.73564 0.0
C1451 C 0.52742 0.71436 0.75812 0.0
C1452 C 0.52221 0.71764 0.81935 0.0
C1453 C 0.47311 0.77778 0.0161 0.0
C1454 C 0.46617 0.74864 0.98879 0.0
C1455 C 0.48481 0.77983 0.01364 0.0
C1456 C 0.48991 0.75255 0.98474 0.0
C1457 C 0.48303 0.72403 0.95546 0.0
C1458 C 0.47133 0.7221 0.95739 0.0
C1459 C 0.50236 0.75347 0.98589 0.0
C1460 C 0.50804 0.7491 0.92617 0.0
C1461 C 0.50868 0.75919 0.04522 0.0
C1462 C 0.50325 0.76146 0.11085 0.0
C1463 C 0.4951 0.73402 0.13316 0.0
C1464 C 0.48997 0.73641 0.19488 0.0
C1465 C 0.49298 0.766 0.235 0.0
C1466 C 0.50115 0.79322 0.21354 0.0
C1467 C 0.5063 0.79098 0.15181 0.0
H1468 H 0.489 0.76781 0.28278 0.0
H1469 H 0.53968 0.73851 0.68825 0.0
H1470 H 0.47161 0.30171 0.98694 0.0
H1471 H 0.49186 0.30194 0.99122 0.0
H1472 H 0.48698 0.19121 0.04318 0.0
H1473 H 0.46664 0.19106 0.0414 0.0
H1474 H 0.50327 0.22671 0.11754 0.0
H1475 H 0.49469 0.21889 0.88549 0.0
H1476 H 0.48656 0.23631 0.78012 0.0
H1477 H 0.50685 0.33789 0.78971 0.0
H1478 H 0.51498 0.32125 0.89566 0.0
H1479 H 0.56015 0.20134 0.05448 0.0
H1480 H 0.53969 0.19753 0.05365 0.0
H1481 H 0.54245 0.30791 1.00048 0.0
H1482 H 0.56284 0.31164 0.99906 0.0
H1483 H 0.52712 0.26994 0.92563 0.0
H1484 H 0.53531 0.27867 0.15868 0.0
H1485 H 0.54341 0.26175 0.26447 0.0
H1486 H 0.52392 0.15892 0.25312 0.0
H1487 H 0.51581 0.17507 0.14673 0.0
C1488 C 0.47481 0.27743 1.0 0.0
C1489 C 0.46744 0.24635 0.01387 0.0
C1490 C 0.48642 0.27753 1.0017 0.0
C1491 C 0.49098 0.24648 0.01667 0.0
C1492 C 0.48367 0.21547 0.03121 0.0
C1493 C 0.47203 0.21536 0.0296 0.0
C1494 C 0.50337 0.24654 0.01739 0.0
C1495 C 0.50847 0.23564 0.07518 0.0
C1496 C 0.51022 0.2589 0.9627 0.0
C1497 C 0.50537 0.26893 0.89883 0.0
C1498 C 0.49736 0.24504 0.86539 0.0
C1499 C 0.49276 0.25476 0.80551 0.0
C1500 C 0.49617 0.28821 0.77832 0.0
C1501 C 0.5042 0.31199 0.81087 0.0
C1502 C 0.50882 0.30242 0.8708 0.0
C1503 C 0.55641 0.2248 0.0425 0.0
C1504 C 0.56319 0.25685 0.02717 0.0
C1505 C 0.5447 0.22265 0.04257 0.0
C1506 C 0.5395 0.25252 0.02755 0.0
C1507 C 0.54624 0.28451 1.0124 0.0
C1508 C 0.55793 0.28668 1.01233 0.0
C1509 C 0.52704 0.2504 0.02598 0.0
C1510 C 0.52192 0.26089 0.96793 0.0
C1511 C 0.52019 0.23771 0.08043 0.0
C1512 C 0.52505 0.22795 0.14439 0.0
C1513 C 0.53282 0.25234 0.17846 0.0
C1514 C 0.5374 0.24291 0.23858 0.0
C1515 C 0.53421 0.20925 0.2654 0.0
C1516 C 0.5264 0.18497 0.23223 0.0
C1517 C 0.52181 0.19426 0.17204 0.0
H1518 H 0.53776 0.202 0.31196 0.0
H1519 H 0.4926 0.29568 0.73195 0.0
loop_
_geom_bond_atom_site_label_1
_geom_bond_atom_site_label_2
_geom_bond_distance
_geom_bond_site_symmetry_2
_ccdc_geom_bond_type
C0 Eu1 2.835 . S
C0 C2 1.500 . S
C0 O20 1.257 . S
C0 O21 1.260 . S
Eu1 C0 2.835 . S
Eu1 O20 2.473 . S
Eu1 O21 2.480 . S
Eu1 O22 2.430 . S
Eu1 O23 2.670 . S
Eu1 O24 2.394 . S
Eu1 O29 2.355 . S
Eu1 O31 2.374 . S
C2 C0 1.500 . S
C2 C3 1.377 . S
C2 C7 1.377 . S
C3 C2 1.377 . S
C3 C4 1.395 . S
C3 H32 0.931 . S
C4 C3 1.395 . S
C4 C5 1.383 . S
C4 H33 0.931 . S
C5 C4 1.383 . S
C5 C6 1.394 . S
C6 C5 1.394 . S
C6 C7 1.378 . S
C6 H34 0.931 . S
C7 C2 1.377 . S
C7 C6 1.378 . S
C7 H35 0.931 . S
C8 O22 1.259 . S
C8 O23 1.270 . S
C9 O24 1.251 . S
C9 O25 1.251 . S
C10 Eu11 2.835 . S
C10 C12 1.500 . S
C10 O26 1.257 . S
C10 O27 1.260 . S
Eu11 C10 2.835 . S
Eu11 O23 2.355 . S
Eu11 O25 2.374 . S
Eu11 O26 2.473 . S
Eu11 O27 2.480 . S
Eu11 O28 2.430 . S
Eu11 O29 2.670 . S
Eu11 O30 2.394 . S
C12 C10 1.500 . S
C12 C13 1.377 . S
C12 C17 1.377 . S
C13 C12 1.377 . S
C13 C14 1.395 . S
C13 H36 0.931 . S
C14 C13 1.395 . S
C14 C15 1.383 . S
C14 H37 0.931 . S
C15 C14 1.383 . S
C15 C16 1.394 . S
C16 C15 1.394 . S
C16 C17 1.378 . S
C16 H38 0.931 . S
C17 C12 1.377 . S
C17 C16 1.378 . S
C17 H39 0.931 . S
C18 O28 1.259 . S
C18 O29 1.270 . S
C19 O30 1.251 . S
C19 O31 1.251 . S
O20 C0 1.257 . S
O20 Eu1 2.473 . S
O21 C0 1.260 . S
O21 Eu1 2.480 . S
O22 Eu1 2.430 . S
O22 C8 1.259 . S
O23 Eu1 2.670 . S
O23 C8 1.270 . S
O23 Eu11 2.355 . S
O24 Eu1 2.394 . S
O24 C9 1.251 . S
O25 C9 1.251 . S
O25 Eu11 2.374 . S
O26 C10 1.257 . S
O26 Eu11 2.473 . S
O27 C10 1.260 . S
O27 Eu11 2.480 . S
O28 Eu11 2.430 . S
O28 C18 1.259 . S
O29 Eu1 2.355 . S
O29 Eu11 2.670 . S
O29 C18 1.270 . S
O30 Eu11 2.394 . S
O30 C19 1.251 . S
O31 Eu1 2.374 . S
O31 C19 1.251 . S
H32 C3 0.931 . S
H33 C4 0.931 . S
H34 C6 0.931 . S
H35 C7 0.931 . S
H36 C13 0.931 . S
H37 C14 0.931 . S
H38 C16 0.931 . S
H39 C17 0.931 . S
C40 Eu41 2.835 . S
C40 C42 1.500 . S
C40 O60 1.257 . S
C40 O61 1.260 . S
Eu41 C40 2.835 . S
Eu41 O60 2.473 . S
Eu41 O61 2.480 . S
Eu41 O62 2.430 . S
Eu41 O63 2.670 . S
Eu41 O64 2.394 . S
Eu41 O69 2.355 . S
Eu41 O71 2.374 . S
C42 C40 1.500 . S
C42 C43 1.377 . S
C42 C47 1.377 . S
C43 C42 1.377 . S
C43 C44 1.395 . S
C43 H72 0.931 . S
C44 C43 1.395 . S
C44 C45 1.383 . S
C44 H73 0.931 . S
C45 C44 1.383 . S
C45 C46 1.394 . S
C46 C45 1.394 . S
C46 C47 1.378 . S
C46 H74 0.931 . S
C47 C42 1.377 . S
C47 C46 1.378 . S
C47 H75 0.931 . S
C48 O62 1.259 . S
C48 O63 1.270 . S
C49 O64 1.251 . S
C49 O65 1.251 . S
C50 Eu51 2.835 . S
C50 C52 1.500 . S
C50 O66 1.257 . S
C50 O67 1.260 . S
Eu51 C50 2.835 . S
Eu51 O63 2.355 . S
Eu51 O65 2.374 . S
Eu51 O66 2.473 . S
Eu51 O67 2.480 . S
Eu51 O68 2.430 . S
Eu51 O69 2.670 . S
Eu51 O70 2.394 . S
C52 C50 1.500 . S
C52 C53 1.377 . S
C52 C57 1.377 . S
C53 C52 1.377 . S
C53 C54 1.395 . S
C53 H76 0.931 . S
C54 C53 1.395 . S
C54 C55 1.383 . S
C54 H77 0.931 . S
C55 C54 1.383 . S
C55 C56 1.394 . S
C56 C55 1.394 . S
C56 C57 1.378 . S
C56 H78 0.931 . S
C57 C52 1.377 . S
C57 C56 1.378 . S
C57 H79 0.931 . S
C58 O68 1.259 . S
C58 O69 1.270 . S
C59 O70 1.251 . S
C59 O71 1.251 . S
O60 C40 1.257 . S
O60 Eu41 2.473 . S
O61 C40 1.260 . S
O61 Eu41 2.480 . S
O62 Eu41 2.430 . S
O62 C48 1.259 . S
O63 Eu41 2.670 . S
O63 C48 1.270 . S
O63 Eu51 2.355 . S
O64 Eu41 2.394 . S
O64 C49 1.251 . S
O65 C49 1.251 . S
O65 Eu51 2.374 . S
O66 C50 1.257 . S
O66 Eu51 2.473 . S
O67 C50 1.260 . S
O67 Eu51 2.480 . S
O68 Eu51 2.430 . S
O68 C58 1.259 . S
O69 Eu41 2.355 . S
O69 Eu51 2.670 . S
O69 C58 1.270 . S
O70 Eu51 2.394 . S
O70 C59 1.251 . S
O71 Eu41 2.374 . S
O71 C59 1.251 . S
H72 C43 0.931 . S
H73 C44 0.931 . S
H74 C46 0.931 . S
H75 C47 0.931 . S
H76 C53 0.931 . S
H77 C54 0.931 . S
H78 C56 0.931 . S
H79 C57 0.931 . S
C80 Eu81 2.835 . S
C80 C82 1.500 . S
C80 O100 1.257 . S
C80 O101 1.260 . S
Eu81 C80 2.835 . S
Eu81 O100 2.473 . S
Eu81 O101 2.480 . S
Eu81 O102 2.430 . S
Eu81 O103 2.670 . S
Eu81 O104 2.394 . S
Eu81 O109 2.355 . S
Eu81 O111 2.374 . S
C82 C80 1.500 . S
C82 C83 1.377 . S
C82 C87 1.377 . S
C83 C82 1.377 . S
C83 C84 1.395 . S
C83 H112 0.931 . S
C84 C83 1.395 . S
C84 C85 1.383 . S
C84 H113 0.931 . S
C85 C84 1.383 . S
C85 C86 1.394 . S
C86 C85 1.394 . S
C86 C87 1.378 . S
C86 H114 0.931 . S
C87 C82 1.377 . S
C87 C86 1.378 . S
C87 H115 0.931 . S
C88 O102 1.259 . S
C88 O103 1.270 . S
C89 O104 1.251 . S
C89 O105 1.251 . S
C90 Eu91 2.835 . S
C90 C92 1.500 . S
C90 O106 1.257 . S
C90 O107 1.260 . S
Eu91 C90 2.835 . S
Eu91 O103 2.355 . S
Eu91 O105 2.374 . S
Eu91 O106 2.473 . S
Eu91 O107 2.480 . S
Eu91 O108 2.430 . S
Eu91 O109 2.670 . S
Eu91 O110 2.394 . S
C92 C90 1.500 . S
C92 C93 1.377 . S
C92 C97 1.377 . S
C93 C92 1.377 . S
C93 C94 1.395 . S
C93 H116 0.931 . S
C94 C93 1.395 . S
C94 C95 1.383 . S
C94 H117 0.931 . S
C95 C94 1.383 . S
C95 C96 1.394 . S
C96 C95 1.394 . S
C96 C97 1.378 . S
C96 H118 0.931 . S
C97 C92 1.377 . S
C97 C96 1.378 . S
C97 H119 0.931 . S
C98 O108 1.259 . S
C98 O109 1.270 . S
C99 O110 1.251 . S
C99 O111 1.251 . S
O100 C80 1.257 . S
O100 Eu81 2.473 . S
O101 C80 1.260 . S
O101 Eu81 2.480 . S
O102 Eu81 2.430 . S
O102 C88 1.259 . S
O103 Eu81 2.670 . S
O103 C88 1.270 . S
O103 Eu91 2.355 . S
O104 Eu81 2.394 . S
O104 C89 1.251 . S
O105 C89 1.251 . S
O105 Eu91 2.374 . S
O106 C90 1.257 . S
O106 Eu91 2.473 . S
O107 C90 1.260 . S
O107 Eu91 2.480 . S
O108 Eu91 2.430 . S
O108 C98 1.259 . S
O109 Eu81 2.355 . S
O109 Eu91 2.670 . S
O109 C98 1.270 . S
O110 Eu91 2.394 . S
O110 C99 1.251 . S
O111 Eu81 2.374 . S
O111 C99 1.251 . S
H112 C83 0.931 . S
H113 C84 0.931 . S
H114 C86 0.931 . S
H115 C87 0.931 . S
H116 C93 0.931 . S
H117 C94 0.931 . S
H118 C96 0.931 . S
H119 C97 0.931 . S
C120 Eu121 2.835 . S
C120 C122 1.500 . S
C120 O140 1.257 . S
C120 O141 1.260 . S
Eu121 C120 2.835 . S
Eu121 O140 2.473 . S
Eu121 O141 2.480 . S
Eu121 O142 2.430 . S
Eu121 O143 2.670 . S
Eu121 O144 2.394 . S
Eu121 O149 2.355 . S
Eu121 O151 2.374 . S
C122 C120 1.500 . S
C122 C123 1.377 . S
C122 C127 1.377 . S
C123 C122 1.377 . S
C123 C124 1.395 . S
C123 H152 0.931 . S
C124 C123 1.395 . S
C124 C125 1.383 . S
C124 H153 0.931 . S
C125 C124 1.383 . S
C125 C126 1.394 . S
C126 C125 1.394 . S
C126 C127 1.378 . S
C126 H154 0.931 . S
C127 C122 1.377 . S
C127 C126 1.378 . S
C127 H155 0.931 . S
C128 O142 1.259 . S
C128 O143 1.270 . S
C129 O144 1.251 . S
C129 O145 1.251 . S
C130 Eu131 2.835 . S
C130 C132 1.500 . S
C130 O146 1.257 . S
C130 O147 1.260 . S
Eu131 C130 2.835 . S
Eu131 O143 2.355 . S
Eu131 O145 2.374 . S
Eu131 O146 2.473 . S
Eu131 O147 2.480 . S
Eu131 O148 2.430 . S
Eu131 O149 2.670 . S
Eu131 O150 2.394 . S
C132 C130 1.500 . S
C132 C133 1.377 . S
C132 C137 1.377 . S
C133 C132 1.377 . S
C133 C134 1.395 . S
C133 H156 0.931 . S
C134 C133 1.395 . S
C134 C135 1.383 . S
C134 H157 0.931 . S
C135 C134 1.383 . S
C135 C136 1.394 . S
C136 C135 1.394 . S
C136 C137 1.378 . S
C136 H158 0.931 . S
C137 C132 1.377 . S
C137 C136 1.378 . S
C137 H159 0.931 . S
C138 O148 1.259 . S
C138 O149 1.270 . S
C139 O150 1.251 . S
C139 O151 1.251 . S
O140 C120 1.257 . S
O140 Eu121 2.473 . S
O141 C120 1.260 . S
O141 Eu121 2.480 . S
O142 Eu121 2.430 . S
O142 C128 1.259 . S
O143 Eu121 2.670 . S
O143 C128 1.270 . S
O143 Eu131 2.355 . S
O144 Eu121 2.394 . S
O144 C129 1.251 . S
O145 C129 1.251 . S
O145 Eu131 2.374 . S
O146 C130 1.257 . S
O146 Eu131 2.473 . S
O147 C130 1.260 . S
O147 Eu131 2.480 . S
O148 Eu131 2.430 . S
O148 C138 1.259 . S
O149 Eu121 2.355 . S
O149 Eu131 2.670 . S
O149 C138 1.270 . S
O150 Eu131 2.394 . S
O150 C139 1.251 . S
O151 Eu121 2.374 . S
O151 C139 1.251 . S
H152 C123 0.931 . S
H153 C124 0.931 . S
H154 C126 0.931 . S
H155 C127 0.931 . S
H156 C133 0.931 . S
H157 C134 0.931 . S
H158 C136 0.931 . S
H159 C137 0.931 . S
C160 Eu161 2.835 1_554 S
C160 C162 1.500 . S
C160 O180 1.257 . S
C160 O181 1.260 . S
Eu161 C160 2.835 1_556 S
Eu161 O180 2.473 1_556 S
Eu161 O181 2.480 1_556 S
Eu161 O182 2.430 . S
Eu161 O183 2.670 . S
Eu161 O184 2.394 1_556 S
Eu161 O189 2.355 1_556 S
Eu161 O191 2.374 . S
C162 C160 1.500 . S
C162 C163 1.377 . S
C162 C167 1.377 . S
C163 C162 1.377 . S
C163 C164 1.395 . S
C163 H192 0.931 . S
C164 C163 1.395 . S
C164 C165 1.383 . S
C164 H193 0.931 . S
C165 C164 1.383 . S
C165 C166 1.394 . S
C166 C165 1.394 . S
C166 C167 1.378 . S
C166 H194 0.931 . S
C167 C162 1.377 . S
C167 C166 1.378 . S
C167 H195 0.931 . S
C168 O182 1.259 . S
C168 O183 1.270 . S
C169 O184 1.251 . S
C169 O185 1.251 . S
C170 Eu171 2.835 1_556 S
C170 C172 1.500 . S
C170 O186 1.257 . S
C170 O187 1.260 . S
Eu171 C170 2.835 1_554 S
Eu171 O183 2.355 1_554 S
Eu171 O185 2.374 . S
Eu171 O186 2.473 1_554 S
Eu171 O187 2.480 1_554 S
Eu171 O188 2.430 . S
Eu171 O189 2.670 . S
Eu171 O190 2.394 1_554 S
C172 C170 1.500 . S
C172 C173 1.377 . S
C172 C177 1.377 . S
C173 C172 1.377 . S
C173 C174 1.395 . S
C173 H196 0.931 . S
C174 C173 1.395 . S
C174 C175 1.383 . S
C174 H197 0.931 . S
C175 C174 1.383 . S
C175 C176 1.394 . S
C176 C175 1.394 . S
C176 C177 1.378 . S
C176 H198 0.931 . S
C177 C172 1.377 . S
C177 C176 1.378 . S
C177 H199 0.931 . S
C178 O188 1.259 . S
C178 O189 1.270 . S
C179 O190 1.251 . S
C179 O191 1.251 . S
O180 C160 1.257 . S
O180 Eu161 2.473 1_554 S
O181 C160 1.260 . S
O181 Eu161 2.480 1_554 S
O182 Eu161 2.430 . S
O182 C168 1.259 . S
O183 Eu161 2.670 . S
O183 C168 1.270 . S
O183 Eu171 2.355 1_556 S
O184 Eu161 2.394 1_554 S
O184 C169 1.251 . S
O185 C169 1.251 . S
O185 Eu171 2.374 . S
O186 C170 1.257 . S
O186 Eu171 2.473 1_556 S
O187 C170 1.260 . S
O187 Eu171 2.480 1_556 S
O188 Eu171 2.430 . S
O188 C178 1.259 . S
O189 Eu161 2.355 1_554 S
O189 Eu171 2.670 . S
O189 C178 1.270 . S
O190 Eu171 2.394 1_556 S
O190 C179 1.251 . S
O191 Eu161 2.374 . S
O191 C179 1.251 . S
H192 C163 0.931 . S
H193 C164 0.931 . S
H194 C166 0.931 . S
H195 C167 0.931 . S
H196 C173 0.931 . S
H197 C174 0.931 . S
H198 C176 0.931 . S
H199 C177 0.931 . S
C200 Eu201 2.835 1_554 S
C200 C202 1.500 . S
C200 O220 1.257 . S
C200 O221 1.260 . S
Eu201 C200 2.835 1_556 S
Eu201 O220 2.473 1_556 S
Eu201 O221 2.480 1_556 S
Eu201 O222 2.430 . S
Eu201 O223 2.670 . S
Eu201 O224 2.394 1_556 S
Eu201 O229 2.355 1_556 S
Eu201 O231 2.374 . S
C202 C200 1.500 . S
C202 C203 1.377 . S
C202 C207 1.377 . S
C203 C202 1.377 . S
C203 C204 1.395 . S
C203 H232 0.931 . S
C204 C203 1.395 . S
C204 C205 1.383 . S
C204 H233 0.931 . S
C205 C204 1.383 . S
C205 C206 1.394 . S
C206 C205 1.394 . S
C206 C207 1.378 . S
C206 H234 0.931 . S
C207 C202 1.377 . S
C207 C206 1.378 . S
C207 H235 0.931 . S
C208 O222 1.259 . S
C208 O223 1.270 . S
C209 O224 1.251 . S
C209 O225 1.251 . S
C210 Eu211 2.835 1_556 S
C210 C212 1.500 . S
C210 O226 1.257 . S
C210 O227 1.260 . S
Eu211 C210 2.835 1_554 S
Eu211 O223 2.355 1_554 S
Eu211 O225 2.374 . S
Eu211 O226 2.473 1_554 S
Eu211 O227 2.480 1_554 S
Eu211 O228 2.430 . S
Eu211 O229 2.670 . S
Eu211 O230 2.394 1_554 S
C212 C210 1.500 . S
C212 C213 1.377 . S
C212 C217 1.377 . S
C213 C212 1.377 . S
C213 C214 1.395 . S
C213 H236 0.931 . S
C214 C213 1.395 . S
C214 C215 1.383 . S
C214 H237 0.931 . S
C215 C214 1.383 . S
C215 C216 1.394 . S
C216 C215 1.394 . S
C216 C217 1.378 . S
C216 H238 0.931 . S
C217 C212 1.377 . S
C217 C216 1.378 . S
C217 H239 0.931 . S
C218 O228 1.259 . S
C218 O229 1.270 . S
C219 O230 1.251 . S
C219 O231 1.251 . S
O220 C200 1.257 . S
O220 Eu201 2.473 1_554 S
O221 C200 1.260 . S
O221 Eu201 2.480 1_554 S
O222 Eu201 2.430 . S
O222 C208 1.259 . S
O223 Eu201 2.670 . S
O223 C208 1.270 . S
O223 Eu211 2.355 1_556 S
O224 Eu201 2.394 1_554 S
O224 C209 1.251 . S
O225 C209 1.251 . S
O225 Eu211 2.374 . S
O226 C210 1.257 . S
O226 Eu211 2.473 1_556 S
O227 C210 1.260 . S
O227 Eu211 2.480 1_556 S
O228 Eu211 2.430 . S
O228 C218 1.259 . S
O229 Eu201 2.355 1_554 S
O229 Eu211 2.670 . S
O229 C218 1.270 . S
O230 Eu211 2.394 1_556 S
O230 C219 1.251 . S
O231 Eu201 2.374 . S
O231 C219 1.251 . S
H232 C203 0.931 . S
H233 C204 0.931 . S
H234 C206 0.931 . S
H235 C207 0.931 . S
H236 C213 0.931 . S
H237 C214 0.931 . S
H238 C216 0.931 . S
H239 C217 0.931 . S
C240 Eu241 2.835 1_554 S
C240 C242 1.500 . S
C240 O260 1.257 . S
C240 O261 1.260 . S
Eu241 C240 2.835 1_556 S
Eu241 O260 2.473 1_556 S
Eu241 O261 2.480 1_556 S
Eu241 O262 2.430 . S
Eu241 O263 2.670 . S
Eu241 O264 2.394 1_556 S
Eu241 O269 2.355 1_556 S
Eu241 O271 2.374 . S
C242 C240 1.500 . S
C242 C243 1.377 . S
C242 C247 1.377 . S
C243 C242 1.377 . S
C243 C244 1.395 . S
C243 H272 0.931 . S
C244 C243 1.395 . S
C244 C245 1.383 . S
C244 H273 0.931 . S
C245 C244 1.383 . S
C245 C246 1.394 . S
C246 C245 1.394 . S
C246 C247 1.378 . S
C246 H274 0.931 . S
C247 C242 1.377 . S
C247 C246 1.378 . S
C247 H275 0.931 . S
C248 O262 1.259 . S
C248 O263 1.270 . S
C249 O264 1.251 . S
C249 O265 1.251 . S
C250 Eu251 2.835 1_556 S
C250 C252 1.500 . S
C250 O266 1.257 . S
C250 O267 1.260 . S
Eu251 C250 2.835 1_554 S
Eu251 O263 2.355 1_554 S
Eu251 O265 2.374 . S
Eu251 O266 2.473 1_554 S
Eu251 O267 2.480 1_554 S
Eu251 O268 2.430 . S
Eu251 O269 2.670 . S
Eu251 O270 2.394 1_554 S
C252 C250 1.500 . S
C252 C253 1.377 . S
C252 C257 1.377 . S
C253 C252 1.377 . S
C253 C254 1.395 . S
C253 H276 0.931 . S
C254 C253 1.395 . S
C254 C255 1.383 . S
C254 H277 0.931 . S
C255 C254 1.383 . S
C255 C256 1.394 . S
C256 C255 1.394 . S
C256 C257 1.378 . S
C256 H278 0.931 . S
C257 C252 1.377 . S
C257 C256 1.378 . S
C257 H279 0.931 . S
C258 O268 1.259 . S
C258 O269 1.270 . S
C259 O270 1.251 . S
C259 O271 1.251 . S
O260 C240 1.257 . S
O260 Eu241 2.473 1_554 S
O261 C240 1.260 . S
O261 Eu241 2.480 1_554 S
O262 Eu241 2.430 . S
O262 C248 1.259 . S
O263 Eu241 2.670 . S
O263 C248 1.270 . S
O263 Eu251 2.355 1_556 S
O264 Eu241 2.394 1_554 S
O264 C249 1.251 . S
O265 C249 1.251 . S
O265 Eu251 2.374 . S
O266 C250 1.257 . S
O266 Eu251 2.473 1_556 S
O267 C250 1.260 . S
O267 Eu251 2.480 1_556 S
O268 Eu251 2.430 . S
O268 C258 1.259 . S
O269 Eu241 2.355 1_554 S
O269 Eu251 2.670 . S
O269 C258 1.270 . S
O270 Eu251 2.394 1_556 S
O270 C259 1.251 . S
O271 Eu241 2.374 . S
O271 C259 1.251 . S
H272 C243 0.931 . S
H273 C244 0.931 . S
H274 C246 0.931 . S
H275 C247 0.931 . S
H276 C253 0.931 . S
H277 C254 0.931 . S
H278 C256 0.931 . S
H279 C257 0.931 . S
C280 Eu281 2.835 1_554 S
C280 C282 1.500 . S
C280 O300 1.257 . S
C280 O301 1.260 . S
Eu281 C280 2.835 1_556 S
Eu281 O300 2.473 1_556 S
Eu281 O301 2.480 1_556 S
Eu281 O302 2.430 . S
Eu281 O303 2.670 . S
Eu281 O304 2.394 1_556 S
Eu281 O309 2.355 1_556 S
Eu281 O311 2.374 . S
C282 C280 1.500 . S
C282 C283 1.377 . S
C282 C287 1.377 . S
C283 C282 1.377 . S
C283 C284 1.395 . S
C283 H312 0.931 . S
C284 C283 1.395 . S
C284 C285 1.383 . S
C284 H313 0.931 . S
C285 C284 1.383 . S
C285 C286 1.394 . S
C286 C285 1.394 . S
C286 C287 1.378 . S
C286 H314 0.931 . S
C287 C282 1.377 . S
C287 C286 1.378 . S
C287 H315 0.931 . S
C288 O302 1.259 . S
C288 O303 1.270 . S
C289 O304 1.251 . S
C289 O305 1.251 . S
C290 Eu291 2.835 1_556 S
C290 C292 1.500 . S
C290 O306 1.257 . S
C290 O307 1.260 . S
Eu291 C290 2.835 1_554 S
Eu291 O303 2.355 1_554 S
Eu291 O305 2.374 . S
Eu291 O306 2.473 1_554 S
Eu291 O307 2.480 1_554 S
Eu291 O308 2.430 . S
Eu291 O309 2.670 . S
Eu291 O310 2.394 1_554 S
C292 C290 1.500 . S
C292 C293 1.377 . S
C292 C297 1.377 . S
C293 C292 1.377 . S
C293 C294 1.395 . S
C293 H316 0.931 . S
C294 C293 1.395 . S
C294 C295 1.383 . S
C294 H317 0.931 . S
C295 C294 1.383 . S
C295 C296 1.394 . S
C296 C295 1.394 . S
C296 C297 1.378 . S
C296 H318 0.931 . S
C297 C292 1.377 . S
C297 C296 1.378 . S
C297 H319 0.931 . S
C298 O308 1.259 . S
C298 O309 1.270 . S
C299 O310 1.251 . S
C299 O311 1.251 . S
O300 C280 1.257 . S
O300 Eu281 2.473 1_554 S
O301 C280 1.260 . S
O301 Eu281 2.480 1_554 S
O302 Eu281 2.430 . S
O302 C288 1.259 . S
O303 Eu281 2.670 . S
O303 C288 1.270 . S
O303 Eu291 2.355 1_556 S
O304 Eu281 2.394 1_554 S
O304 C289 1.251 . S
O305 C289 1.251 . S
O305 Eu291 2.374 . S
O306 C290 1.257 . S
O306 Eu291 2.473 1_556 S
O307 C290 1.260 . S
O307 Eu291 2.480 1_556 S
O308 Eu291 2.430 . S
O308 C298 1.259 . S
O309 Eu281 2.355 1_554 S
O309 Eu291 2.670 . S
O309 C298 1.270 . S
O310 Eu291 2.394 1_556 S
O310 C299 1.251 . S
O311 Eu281 2.374 . S
O311 C299 1.251 . S
H312 C283 0.931 . S
H313 C284 0.931 . S
H314 C286 0.931 . S
H315 C287 0.931 . S
H316 C293 0.931 . S
H317 C294 0.931 . S
H318 C296 0.931 . S
H319 C297 0.931 . S
H320 C338 0.951 . S
H321 C340 0.951 . S
H322 C342 0.950 . S
H323 C343 0.950 . S
H324 C345 0.950 . S
H325 C348 0.950 . S
H326 C349 0.950 . S
H327 C351 0.950 . S
H328 C352 0.950 . S
H329 C353 0.951 . S
H330 C355 0.951 . S
H331 C357 0.950 . S
H332 C358 0.950 . S
H333 C360 0.950 . S
H334 C363 0.950 . S
H335 C364 0.950 . S
H336 C366 0.950 . S
H337 C367 0.950 . S
C338 H320 0.951 . S
C338 C339 1.366 . S
C338 C340 1.388 . S
C339 C338 1.366 . S
C339 C343 1.385 . S
C340 H321 0.951 . S
C340 C338 1.388 . S
C340 C341 1.366 . S
C341 C340 1.366 . S
C341 C342 1.414 . S
C341 C344 1.499 . S
C342 H322 0.950 . S
C342 C341 1.414 . S
C342 C343 1.374 . S
C343 H323 0.950 . S
C343 C339 1.385 . S
C343 C342 1.374 . S
C344 C341 1.499 . S
C344 C345 1.373 . S
C344 C346 1.389 . S
C345 H324 0.950 . S
C345 C344 1.373 . S
C345 C361 1.377 . S
C346 C344 1.389 . S
C346 C347 1.524 . S
C346 C360 1.377 . S
C347 C346 1.524 . S
C347 C348 1.397 . S
C347 C352 1.363 . S
C348 H325 0.950 . S
C348 C347 1.397 . S
C348 C349 1.334 . S
C349 H326 0.950 . S
C349 C348 1.334 . S
C349 C350 1.287 . S
C350 C349 1.287 . S
C350 C351 1.524 . S
C350 H369 0.913 . S
C351 H327 0.950 . S
C351 C350 1.524 . S
C351 C352 1.415 . S
C352 H328 0.950 . S
C352 C347 1.363 . S
C352 C351 1.415 . S
C353 H329 0.951 . S
C353 C354 1.366 . S
C353 C355 1.388 . S
C354 C353 1.366 . S
C354 C358 1.385 . S
C355 H330 0.951 . S
C355 C353 1.388 . S
C355 C356 1.366 . S
C356 C355 1.366 . S
C356 C357 1.414 . S
C356 C359 1.499 . S
C357 H331 0.950 . S
C357 C356 1.414 . S
C357 C358 1.374 . S
C358 H332 0.950 . S
C358 C354 1.385 . S
C358 C357 1.374 . S
C359 C356 1.499 . S
C359 C360 1.373 . S
C359 C361 1.389 . S
C360 H333 0.950 . S
C360 C346 1.377 . S
C360 C359 1.373 . S
C361 C345 1.377 . S
C361 C359 1.389 . S
C361 C362 1.524 . S
C362 C361 1.524 . S
C362 C363 1.397 . S
C362 C367 1.363 . S
C363 H334 0.950 . S
C363 C362 1.397 . S
C363 C364 1.334 . S
C364 H335 0.950 . S
C364 C363 1.334 . S
C364 C365 1.287 . S
C365 C364 1.287 . S
C365 C366 1.524 . S
C365 H368 0.999 . S
C366 H336 0.950 . S
C366 C365 1.524 . S
C366 C367 1.415 . S
C367 H337 0.950 . S
C367 C362 1.363 . S
C367 C366 1.415 . S
H368 C365 0.999 . S
H369 C350 0.913 . S
H370 C388 0.951 . S
H371 C390 0.951 . S
H372 C392 0.950 . S
H373 C393 0.950 . S
H374 C395 0.950 . S
H375 C398 0.950 . S
H376 C399 0.950 . S
H377 C401 0.950 . S
H378 C402 0.950 . S
H379 C403 0.951 . S
H380 C405 0.951 . S
H381 C407 0.950 . S
H382 C408 0.950 . S
H383 C410 0.950 . S
H384 C413 0.950 . S
H385 C414 0.950 . S
H386 C416 0.950 . S
H387 C417 0.950 . S
C388 H370 0.951 . S
C388 C389 1.366 . S
C388 C390 1.388 . S
C389 C388 1.366 . S
C389 C393 1.385 . S
C390 H371 0.951 . S
C390 C388 1.388 . S
C390 C391 1.366 . S
C391 C390 1.366 . S
C391 C392 1.414 . S
C391 C394 1.499 . S
C392 H372 0.950 . S
C392 C391 1.414 . S
C392 C393 1.374 . S
C393 H373 0.950 . S
C393 C389 1.385 . S
C393 C392 1.374 . S
C394 C391 1.499 . S
C394 C395 1.373 . S
C394 C396 1.389 . S
C395 H374 0.950 . S
C395 C394 1.373 . S
C395 C411 1.377 . S
C396 C394 1.389 . S
C396 C397 1.524 . S
C396 C410 1.377 . S
C397 C396 1.524 . S
C397 C398 1.397 . S
C397 C402 1.363 . S
C398 H375 0.950 . S
C398 C397 1.397 . S
C398 C399 1.334 . S
C399 H376 0.950 . S
C399 C398 1.334 . S
C399 C400 1.287 . S
C400 C399 1.287 . S
C400 C401 1.524 . S
C400 H419 0.913 . S
C401 H377 0.950 . S
C401 C400 1.524 . S
C401 C402 1.415 . S
C402 H378 0.950 . S
C402 C397 1.363 . S
C402 C401 1.415 . S
C403 H379 0.951 . S
C403 C404 1.366 . S
C403 C405 1.388 . S
C404 C403 1.366 . S
C404 C408 1.385 . S
C405 H380 0.951 . S
C405 C403 1.388 . S
C405 C406 1.366 . S
C406 C405 1.366 . S
C406 C407 1.414 . S
C406 C409 1.499 . S
C407 H381 0.950 . S
C407 C406 1.414 . S
C407 C408 1.374 . S
C408 H382 0.950 . S
C408 C404 1.385 . S
C408 C407 1.374 . S
C409 C406 1.499 . S
C409 C410 1.373 . S
C409 C411 1.389 . S
C410 H383 0.950 . S
C410 C396 1.377 . S
C410 C409 1.373 . S
C411 C395 1.377 . S
C411 C409 1.389 . S
C411 C412 1.524 . S
C412 C411 1.524 . S
C412 C413 1.397 . S
C412 C417 1.363 . S
C413 H384 0.950 . S
C413 C412 1.397 . S
C413 C414 1.334 . S
C414 H385 0.950 . S
C414 C413 1.334 . S
C414 C415 1.287 . S
C415 C414 1.287 . S
C415 C416 1.524 . S
C415 H418 0.999 . S
C416 H386 0.950 . S
C416 C415 1.524 . S
C416 C417 1.415 . S
C417 H387 0.950 . S
C417 C412 1.363 . S
C417 C416 1.415 . S
H418 C415 0.999 . S
H419 C400 0.913 . S
H420 C438 0.951 . S
H421 C440 0.951 . S
H422 C442 0.950 . S
H423 C443 0.950 . S
H424 C445 0.950 . S
H425 C448 0.950 . S
H426 C449 0.950 . S
H427 C451 0.950 . S
H428 C452 0.950 . S
H429 C453 0.951 . S
H430 C455 0.951 . S
H431 C457 0.950 . S
H432 C458 0.950 . S
H433 C460 0.950 . S
H434 C463 0.950 . S
H435 C464 0.950 . S
H436 C466 0.950 . S
H437 C467 0.950 . S
C438 H420 0.951 . S
C438 C439 1.366 . S
C438 C440 1.388 . S
C439 C438 1.366 . S
C439 C443 1.385 . S
C440 H421 0.951 . S
C440 C438 1.388 . S
C440 C441 1.366 . S
C441 C440 1.366 . S
C441 C442 1.414 . S
C441 C444 1.499 . S
C442 H422 0.950 . S
C442 C441 1.414 . S
C442 C443 1.374 . S
C443 H423 0.950 . S
C443 C439 1.385 . S
C443 C442 1.374 . S
C444 C441 1.499 . S
C444 C445 1.373 . S
C444 C446 1.389 . S
C445 H424 0.950 . S
C445 C444 1.373 . S
C445 C461 1.377 . S
C446 C444 1.389 . S
C446 C447 1.524 . S
C446 C460 1.377 . S
C447 C446 1.524 . S
C447 C448 1.397 . S
C447 C452 1.363 . S
C448 H425 0.950 . S
C448 C447 1.397 . S
C448 C449 1.334 . S
C449 H426 0.950 . S
C449 C448 1.334 . S
C449 C450 1.287 . S
C450 C449 1.287 . S
C450 C451 1.524 . S
C450 H469 0.913 . S
C451 H427 0.950 . S
C451 C450 1.524 . S
C451 C452 1.415 . S
C452 H428 0.950 . S
C452 C447 1.363 . S
C452 C451 1.415 . S
C453 H429 0.951 . S
C453 C454 1.366 . S
C453 C455 1.388 . S
C454 C453 1.366 . S
C454 C458 1.385 . S
C455 H430 0.951 . S
C455 C453 1.388 . S
C455 C456 1.366 . S
C456 C455 1.366 . S
C456 C457 1.414 . S
C456 C459 1.499 . S
C457 H431 0.950 . S
C457 C456 1.414 . S
C457 C458 1.374 . S
C458 H432 0.950 . S
C458 C454 1.385 . S
C458 C457 1.374 . S
C459 C456 1.499 . S
C459 C460 1.373 . S
C459 C461 1.389 . S
C460 H433 0.950 . S
C460 C446 1.377 . S
C460 C459 1.373 . S
C461 C445 1.377 . S
C461 C459 1.389 . S
C461 C462 1.524 . S
C462 C461 1.524 . S
C462 C463 1.397 . S
C462 C467 1.363 . S
C463 H434 0.950 . S
C463 C462 1.397 . S
C463 C464 1.334 . S
C464 H435 0.950 . S
C464 C463 1.334 . S
C464 C465 1.287 . S
C465 C464 1.287 . S
C465 C466 1.524 . S
C465 H468 0.999 . S
C466 H436 0.950 . S
C466 C465 1.524 . S
C466 C467 1.415 . S
C467 H437 0.950 . S
C467 C462 1.363 . S
C467 C466 1.415 . S
H468 C465 0.999 . S
H469 C450 0.913 . S
H470 C488 0.951 . S
H471 C490 0.951 . S
H472 C492 0.950 . S
H473 C493 0.950 . S
H474 C495 0.950 . S
H475 C498 0.950 . S
H476 C499 0.950 . S
H477 C501 0.950 . S
H478 C502 0.950 . S
H479 C503 0.951 . S
H480 C505 0.951 . S
H481 C507 0.950 . S
H482 C508 0.950 . S
H483 C510 0.950 . S
H484 C513 0.950 . S
H485 C514 0.950 . S
H486 C516 0.950 . S
H487 C517 0.950 . S
C488 H470 0.951 . S
C488 C489 1.366 . S
C488 C490 1.388 . S
C489 C488 1.366 . S
C489 C493 1.385 . S
C490 H471 0.951 . S
C490 C488 1.388 . S
C490 C491 1.366 . S
C491 C490 1.366 . S
C491 C492 1.414 . S
C491 C494 1.499 . S
C492 H472 0.950 . S
C492 C491 1.414 . S
C492 C493 1.374 . S
C493 H473 0.950 . S
C493 C489 1.385 . S
C493 C492 1.374 . S
C494 C491 1.499 . S
C494 C495 1.373 . S
C494 C496 1.389 . S
C495 H474 0.950 . S
C495 C494 1.373 . S
C495 C511 1.377 . S
C496 C494 1.389 . S
C496 C497 1.524 . S
C496 C510 1.377 . S
C497 C496 1.524 . S
C497 C498 1.397 . S
C497 C502 1.363 . S
C498 H475 0.950 . S
C498 C497 1.397 . S
C498 C499 1.334 . S
C499 H476 0.950 . S
C499 C498 1.334 . S
C499 C500 1.287 . S
C500 C499 1.287 . S
C500 C501 1.524 . S
C500 H519 0.913 . S
C501 H477 0.950 . S
C501 C500 1.524 . S
C501 C502 1.415 . S
C502 H478 0.950 . S
C502 C497 1.363 . S
C502 C501 1.415 . S
C503 H479 0.951 . S
C503 C504 1.366 . S
C503 C505 1.388 . S
C504 C503 1.366 . S
C504 C508 1.385 . S
C505 H480 0.951 . S
C505 C503 1.388 . S
C505 C506 1.366 . S
C506 C505 1.366 . S
C506 C507 1.414 . S
C506 C509 1.499 . S
C507 H481 0.950 . S
C507 C506 1.414 . S
C507 C508 1.374 . S
C508 H482 0.950 . S
C508 C504 1.385 . S
C508 C507 1.374 . S
C509 C506 1.499 . S
C509 C510 1.373 . S
C509 C511 1.389 . S
C510 H483 0.950 . S
C510 C496 1.377 . S
C510 C509 1.373 . S
C511 C495 1.377 . S
C511 C509 1.389 . S
C511 C512 1.524 . S
C512 C511 1.524 . S
C512 C513 1.397 . S
C512 C517 1.363 . S
C513 H484 0.950 . S
C513 C512 1.397 . S
C513 C514 1.334 . S
C514 H485 0.950 . S
C514 C513 1.334 . S
C514 C515 1.287 . S
C515 C514 1.287 . S
C515 C516 1.524 . S
C515 H518 0.999 . S
C516 H486 0.950 . S
C516 C515 1.524 . S
C516 C517 1.415 . S
C517 H487 0.950 . S
C517 C512 1.363 . S
C517 C516 1.415 . S
H518 C515 0.999 . S
H519 C500 0.913 . S
H520 C538 0.951 . S
H521 C540 0.951 . S
H522 C542 0.950 . S
H523 C543 0.950 . S
H524 C545 0.950 . S
H525 C548 0.950 . S
H526 C549 0.950 . S
H527 C551 0.950 . S
H528 C552 0.950 1_545 S
H529 C553 0.951 . S
H530 C555 0.951 . S
H531 C557 0.950 . S
H532 C558 0.950 . S
H533 C560 0.950 . S
H534 C563 0.950 . S
H535 C564 0.950 . S
H536 C566 0.950 . S
H537 C567 0.959 . S
C538 H520 0.951 . S
C538 C539 1.366 . S
C538 C540 1.388 . S
C539 C538 1.366 . S
C539 C543 1.385 . S
C540 H521 0.951 . S
C540 C538 1.388 . S
C540 C541 1.366 . S
C541 C540 1.366 . S
C541 C542 1.414 . S
C541 C544 1.499 . S
C542 H522 0.950 . S
C542 C541 1.414 . S
C542 C543 1.374 . S
C543 H523 0.950 . S
C543 C539 1.385 . S
C543 C542 1.374 . S
C544 C541 1.499 . S
C544 C545 1.373 . S
C544 C546 1.389 . S
C545 H524 0.950 . S
C545 C544 1.373 . S
C545 C561 1.377 1_565 S
C546 C544 1.389 . S
C546 C547 1.524 . S
C546 C560 1.377 1_565 S
C547 C546 1.524 . S
C547 C548 1.397 . S
C547 C552 1.363 . S
C548 H525 0.950 . S
C548 C547 1.397 . S
C548 C549 1.334 . S
C549 H526 0.950 . S
C549 C548 1.334 . S
C549 C550 1.287 . S
C550 C549 1.287 . S
C550 C551 1.524 . S
C550 H569 0.913 . S
C551 H527 0.950 . S
C551 C550 1.524 . S
C551 C552 1.415 . S
C552 H528 0.950 1_565 S
C552 C547 1.363 . S
C552 C551 1.415 . S
C553 H529 0.951 . S
C553 C554 1.366 . S
C553 C555 1.388 . S
C554 C553 1.366 . S
C554 C558 1.385 . S
C555 H530 0.951 . S
C555 C553 1.388 . S
C555 C556 1.366 . S
C556 C555 1.366 . S
C556 C557 1.414 . S
C556 C559 1.499 . S
C557 H531 0.950 . S
C557 C556 1.414 . S
C557 C558 1.374 . S
C558 H532 0.950 . S
C558 C554 1.385 . S
C558 C557 1.374 . S
C559 C556 1.499 . S
C559 C560 1.373 . S
C559 C561 1.389 . S
C560 H533 0.950 . S
C560 C546 1.377 1_545 S
C560 C559 1.373 . S
C561 C545 1.377 1_545 S
C561 C559 1.389 . S
C561 C562 1.524 . S
C562 C561 1.524 . S
C562 C563 1.397 . S
C562 C567 1.363 . S
C563 H534 0.950 . S
C563 C562 1.397 . S
C563 C564 1.334 . S
C564 H535 0.950 . S
C564 C563 1.334 . S
C564 C565 1.287 . S
C565 C564 1.287 . S
C565 C566 1.524 . S
C565 H568 0.999 . S
C566 H536 0.950 . S
C566 C565 1.524 . S
C566 C567 1.415 . S
C567 H537 0.959 . S
C567 C562 1.363 . S
C567 C566 1.415 . S
H568 C565 0.999 . S
H569 C550 0.913 . S
H570 C588 0.951 . S
H571 C590 0.951 . S
H572 C592 0.950 . S
H573 C593 0.950 . S
H574 C595 0.950 . S
H575 C598 0.950 . S
H576 C599 0.950 . S
H577 C601 0.950 . S
H578 C602 0.950 . S
H579 C603 0.951 . S
H580 C605 0.951 . S
H581 C607 0.950 . S
H582 C608 0.950 . S
H583 C610 0.950 . S
H584 C613 0.950 . S
H585 C614 0.950 . S
H586 C616 0.950 . S
H587 C617 0.950 . S
C588 H570 0.951 . S
C588 C589 1.366 . S
C588 C590 1.388 . S
C589 C588 1.366 . S
C589 C593 1.385 . S
C590 H571 0.951 . S
C590 C588 1.388 . S
C590 C591 1.366 . S
C591 C590 1.366 . S
C591 C592 1.414 . S
C591 C594 1.499 . S
C592 H572 0.950 . S
C592 C591 1.414 . S
C592 C593 1.374 . S
C593 H573 0.950 . S
C593 C589 1.385 . S
C593 C592 1.374 . S
C594 C591 1.499 . S
C594 C595 1.373 . S
C594 C596 1.389 . S
C595 H574 0.950 . S
C595 C594 1.373 . S
C595 C611 1.377 . S
C596 C594 1.389 . S
C596 C597 1.524 . S
C596 C610 1.377 . S
C597 C596 1.524 . S
C597 C598 1.397 . S
C597 C602 1.363 . S
C598 H575 0.950 . S
C598 C597 1.397 . S
C598 C599 1.334 . S
C599 H576 0.950 . S
C599 C598 1.334 . S
C599 C600 1.287 . S
C600 C599 1.287 . S
C600 C601 1.524 . S
C600 H619 0.913 . S
C601 H577 0.950 . S
C601 C600 1.524 . S
C601 C602 1.415 . S
C602 H578 0.950 . S
C602 C597 1.363 . S
C602 C601 1.415 . S
C603 H579 0.951 . S
C603 C604 1.366 . S
C603 C605 1.388 . S
C604 C603 1.366 . S
C604 C608 1.385 . S
C605 H580 0.951 . S
C605 C603 1.388 . S
C605 C606 1.366 . S
C606 C605 1.366 . S
C606 C607 1.414 . S
C606 C609 1.499 . S
C607 H581 0.950 . S
C607 C606 1.414 . S
C607 C608 1.374 . S
C608 H582 0.950 . S
C608 C604 1.385 . S
C608 C607 1.374 . S
C609 C606 1.499 . S
C609 C610 1.373 . S
C609 C611 1.389 . S
C610 H583 0.950 . S
C610 C596 1.377 . S
C610 C609 1.373 . S
C611 C595 1.377 . S
C611 C609 1.389 . S
C611 C612 1.524 . S
C612 C611 1.524 . S
C612 C613 1.397 . S
C612 C617 1.363 . S
C613 H584 0.950 . S
C613 C612 1.397 . S
C613 C614 1.334 . S
C614 H585 0.950 . S
C614 C613 1.334 . S
C614 C615 1.287 . S
C615 C614 1.287 . S
C615 C616 1.524 . S
C615 H618 0.999 . S
C616 H586 0.950 . S
C616 C615 1.524 . S
C616 C617 1.415 . S
C617 H587 0.950 . S
C617 C612 1.363 . S
C617 C616 1.415 . S
H618 C615 0.999 . S
H619 C600 0.913 . S
H620 C638 0.951 . S
H621 C640 0.951 . S
H622 C642 0.950 . S
H623 C643 0.950 . S
H624 C645 0.950 . S
H625 C648 0.950 . S
H626 C649 0.950 . S
H627 C651 0.950 . S
H628 C652 0.950 . S
H629 C653 0.951 . S
H630 C655 0.951 . S
H631 C657 0.950 . S
H632 C658 0.950 . S
H633 C660 0.950 . S
H634 C663 0.950 . S
H635 C664 0.950 . S
H636 C666 0.950 . S
H637 C667 0.950 . S
C638 H620 0.951 . S
C638 C639 1.366 . S
C638 C640 1.388 . S
C639 C638 1.366 . S
C639 C643 1.385 . S
C640 H621 0.951 . S
C640 C638 1.388 . S
C640 C641 1.366 . S
C641 C640 1.366 . S
C641 C642 1.414 . S
C641 C644 1.499 . S
C642 H622 0.950 . S
C642 C641 1.414 . S
C642 C643 1.374 . S
C643 H623 0.950 . S
C643 C639 1.385 . S
C643 C642 1.374 . S
C644 C641 1.499 . S
C644 C645 1.373 . S
C644 C646 1.389 . S
C645 H624 0.950 . S
C645 C644 1.373 . S
C645 C661 1.377 1_565 S
C646 C644 1.389 . S
C646 C647 1.524 . S
C646 C660 1.377 1_565 S
C647 C646 1.524 . S
C647 C648 1.397 . S
C647 C652 1.363 . S
C648 H625 0.950 . S
C648 C647 1.397 . S
C648 C649 1.334 . S
C649 H626 0.950 . S
C649 C648 1.334 . S
C649 C650 1.287 . S
C650 C649 1.287 . S
C650 C651 1.524 . S
C650 H669 0.913 . S
C651 H627 0.950 . S
C651 C650 1.524 . S
C651 C652 1.415 . S
C652 H628 0.950 . S
C652 C647 1.363 . S
C652 C651 1.415 . S
C653 H629 0.951 . S
C653 C654 1.366 . S
C653 C655 1.388 . S
C654 C653 1.366 . S
C654 C658 1.385 . S
C655 H630 0.951 . S
C655 C653 1.388 . S
C655 C656 1.366 . S
C656 C655 1.366 . S
C656 C657 1.414 . S
C656 C659 1.499 . S
C657 H631 0.950 . S
C657 C656 1.414 . S
C657 C658 1.374 . S
C658 H632 0.950 . S
C658 C654 1.385 . S
C658 C657 1.374 . S
C659 C656 1.499 . S
C659 C660 1.373 . S
C659 C661 1.389 . S
C660 H633 0.950 . S
C660 C646 1.377 1_545 S
C660 C659 1.373 . S
C661 C645 1.377 1_545 S
C661 C659 1.389 . S
C661 C662 1.524 . S
C662 C661 1.524 . S
C662 C663 1.397 . S
C662 C667 1.363 . S
C663 H634 0.950 . S
C663 C662 1.397 . S
C663 C664 1.334 . S
C664 H635 0.950 . S
C664 C663 1.334 . S
C664 C665 1.287 . S
C665 C664 1.287 . S
C665 C666 1.524 . S
C665 H668 0.999 . S
C666 H636 0.950 . S
C666 C665 1.524 . S
C666 C667 1.415 . S
C667 H637 0.950 . S
C667 C662 1.363 . S
C667 C666 1.415 . S
H668 C665 0.999 . S
H669 C650 0.913 . S
H670 C688 0.951 . S
H671 C690 0.951 . S
H672 C692 0.950 . S
H673 C693 0.950 . S
H674 C695 0.950 . S
H675 C698 0.950 . S
H676 C699 0.950 . S
H677 C701 0.950 . S
H678 C702 0.950 . S
H679 C703 0.951 . S
H680 C705 0.951 . S
H681 C707 0.950 . S
H682 C708 0.950 . S
H683 C710 0.950 . S
H684 C713 0.950 . S
H685 C714 0.950 . S
H686 C716 0.950 . S
H687 C717 0.950 . S
C688 H670 0.951 . S
C688 C689 1.366 . S
C688 C690 1.388 . S
C689 C688 1.366 . S
C689 C693 1.385 . S
C690 H671 0.951 . S
C690 C688 1.388 . S
C690 C691 1.366 . S
C691 C690 1.366 . S
C691 C692 1.414 . S
C691 C694 1.499 . S
C692 H672 0.950 . S
C692 C691 1.414 . S
C692 C693 1.374 . S
C693 H673 0.950 . S
C693 C689 1.385 . S
C693 C692 1.374 . S
C694 C691 1.499 . S
C694 C695 1.373 . S
C694 C696 1.389 . S
C695 H674 0.950 . S
C695 C694 1.373 . S
C695 C711 1.377 . S
C696 C694 1.389 . S
C696 C697 1.524 . S
C696 C710 1.377 . S
C697 C696 1.524 . S
C697 C698 1.397 . S
C697 C702 1.363 . S
C698 H675 0.950 . S
C698 C697 1.397 . S
C698 C699 1.334 . S
C699 H676 0.950 . S
C699 C698 1.334 . S
C699 C700 1.287 . S
C700 C699 1.287 . S
C700 C701 1.524 . S
C700 H719 0.913 . S
C701 H677 0.950 . S
C701 C700 1.524 . S
C701 C702 1.415 . S
C702 H678 0.950 . S
C702 C697 1.363 . S
C702 C701 1.415 . S
C703 H679 0.951 . S
C703 C704 1.366 . S
C703 C705 1.388 . S
C704 C703 1.366 . S
C704 C708 1.385 . S
C705 H680 0.951 . S
C705 C703 1.388 . S
C705 C706 1.366 . S
C706 C705 1.366 . S
C706 C707 1.414 . S
C706 C709 1.499 . S
C707 H681 0.950 . S
C707 C706 1.414 . S
C707 C708 1.374 . S
C708 H682 0.950 . S
C708 C704 1.385 . S
C708 C707 1.374 . S
C709 C706 1.499 . S
C709 C710 1.373 . S
C709 C711 1.389 . S
C710 H683 0.950 . S
C710 C696 1.377 . S
C710 C709 1.373 . S
C711 C695 1.377 . S
C711 C709 1.389 . S
C711 C712 1.524 . S
C712 C711 1.524 . S
C712 C713 1.397 . S
C712 C717 1.363 . S
C713 H684 0.950 . S
C713 C712 1.397 . S
C713 C714 1.334 . S
C714 H685 0.950 . S
C714 C713 1.334 . S
C714 C715 1.287 . S
C715 C714 1.287 . S
C715 C716 1.524 . S
C715 H718 0.999 . S
C716 H686 0.950 . S
C716 C715 1.524 . S
C716 C717 1.415 . S
C717 H687 0.950 . S
C717 C712 1.363 . S
C717 C716 1.415 . S
H718 C715 0.999 . S
H719 C700 0.913 . S
H720 C738 0.951 . S
H721 C740 0.951 . S
H722 C742 0.950 . S
H723 C743 0.950 . S
H724 C745 0.950 . S
H725 C748 0.950 . S
H726 C749 0.950 . S
H727 C751 0.950 . S
H728 C752 0.950 . S
H729 C753 0.951 . S
H730 C755 0.951 . S
H731 C757 0.950 . S
H732 C758 0.950 . S
H733 C760 0.950 . S
H734 C763 0.950 . S
H735 C764 0.950 . S
H736 C766 0.950 . S
H737 C767 0.950 . S
C738 H720 0.951 . S
C738 C739 1.366 . S
C738 C740 1.388 . S
C739 C738 1.366 . S
C739 C743 1.385 1_556 S
C740 H721 0.951 . S
C740 C738 1.388 . S
C740 C741 1.366 . S
C741 C740 1.366 . S
C741 C742 1.414 1_556 S
C741 C744 1.499 . S
C742 H722 0.950 . S
C742 C741 1.414 1_554 S
C742 C743 1.374 . S
C743 H723 0.950 . S
C743 C739 1.385 1_554 S
C743 C742 1.374 . S
C744 C741 1.499 . S
C744 C745 1.372 1_556 S
C744 C746 1.391 . S
C745 H724 0.950 . S
C745 C744 1.372 1_554 S
C745 C761 1.377 . S
C746 C744 1.391 . S
C746 C747 1.524 . S
C746 C760 1.377 . S
C747 C746 1.524 . S
C747 C748 1.397 1_556 S
C747 C752 1.363 . S
C748 H725 0.950 . S
C748 C747 1.397 1_554 S
C748 C749 1.334 . S
C749 H726 0.950 . S
C749 C748 1.334 . S
C749 C750 1.287 1_554 S
C750 C749 1.287 1_556 S
C750 C751 1.524 . S
C750 H769 0.913 . S
C751 H727 0.950 . S
C751 C750 1.524 . S
C751 C752 1.415 . S
C752 H728 0.950 . S
C752 C747 1.363 . S
C752 C751 1.415 . S
C753 H729 0.951 . S
C753 C754 1.366 1_554 S
C753 C755 1.388 . S
C754 C753 1.366 1_556 S
C754 C758 1.385 . S
C755 H730 0.951 . S
C755 C753 1.388 . S
C755 C756 1.366 1_554 S
C756 C755 1.366 1_556 S
C756 C757 1.414 . S
C756 C759 1.499 . S
C757 H731 0.950 . S
C757 C756 1.414 . S
C757 C758 1.374 . S
C758 H732 0.950 . S
C758 C754 1.385 . S
C758 C757 1.374 . S
C759 C756 1.499 . S
C759 C760 1.373 . S
C759 C761 1.389 1_556 S
C760 H733 0.950 . S
C760 C746 1.377 . S
C760 C759 1.373 . S
C761 C745 1.377 . S
C761 C759 1.389 1_554 S
C761 C762 1.524 . S
C762 C761 1.524 . S
C762 C763 1.397 1_554 S
C762 C767 1.363 . S
C763 H734 0.950 . S
C763 C762 1.397 1_556 S
C763 C764 1.334 . S
C764 H735 0.950 . S
C764 C763 1.334 . S
C764 C765 1.287 1_556 S
C765 C764 1.287 1_554 S
C765 C766 1.524 . S
C765 H768 0.999 . S
C766 H736 0.950 . S
C766 C765 1.524 . S
C766 C767 1.415 . S
C767 H737 0.950 . S
C767 C762 1.363 . S
C767 C766 1.415 . S
H768 C765 0.999 . S
H769 C750 0.913 . S
H770 C788 0.951 . S
H771 C790 0.951 . S
H772 C792 0.950 . S
H773 C793 0.950 . S
H774 C795 0.950 . S
H775 C798 0.950 . S
H776 C799 0.950 . S
H777 C801 0.950 . S
H778 C802 0.950 . S
H779 C803 0.951 . S
H780 C805 0.951 . S
H781 C807 0.950 . S
H782 C808 0.950 . S
H783 C810 0.950 . S
H784 C813 0.950 . S
H785 C814 0.950 . S
H786 C816 0.950 . S
H787 C817 0.950 . S
C788 H770 0.951 . S
C788 C789 1.366 . S
C788 C790 1.388 . S
C789 C788 1.366 . S
C789 C793 1.385 1_556 S
C790 H771 0.951 . S
C790 C788 1.388 . S
C790 C791 1.366 . S
C791 C790 1.366 . S
C791 C792 1.414 1_556 S
C791 C794 1.499 . S
C792 H772 0.950 . S
C792 C791 1.414 1_554 S
C792 C793 1.374 . S
C793 H773 0.950 . S
C793 C789 1.385 1_554 S
C793 C792 1.374 . S
C794 C791 1.499 . S
C794 C795 1.373 1_556 S
C794 C796 1.389 . S
C795 H774 0.950 . S
C795 C794 1.373 1_554 S
C795 C811 1.377 1_565 S
C796 C794 1.389 . S
C796 C797 1.524 . S
C796 C810 1.377 1_565 S
C797 C796 1.524 . S
C797 C798 1.397 . S
C797 C802 1.363 . S
C798 H775 0.950 . S
C798 C797 1.397 . S
C798 C799 1.334 . S
C799 H776 0.950 . S
C799 C798 1.334 . S
C799 C800 1.287 . S
C800 C799 1.287 . S
C800 C801 1.524 . S
C800 H819 0.913 . S
C801 H777 0.950 . S
C801 C800 1.524 . S
C801 C802 1.415 . S
C802 H778 0.950 . S
C802 C797 1.363 . S
C802 C801 1.415 . S
C803 H779 0.951 . S
C803 C804 1.366 1_554 S
C803 C805 1.388 . S
C804 C803 1.366 1_556 S
C804 C808 1.385 . S
C805 H780 0.951 . S
C805 C803 1.388 . S
C805 C806 1.366 1_554 S
C806 C805 1.366 1_556 S
C806 C807 1.414 . S
C806 C809 1.499 . S
C807 H781 0.950 . S
C807 C806 1.414 . S
C807 C808 1.374 . S
C808 H782 0.950 . S
C808 C804 1.385 . S
C808 C807 1.374 . S
C809 C806 1.499 . S
C809 C810 1.373 . S
C809 C811 1.389 1_556 S
C810 H783 0.950 . S
C810 C796 1.377 1_545 S
C810 C809 1.373 . S
C811 C795 1.377 1_545 S
C811 C809 1.389 1_554 S
C811 C812 1.524 . S
C812 C811 1.524 . S
C812 C813 1.397 . S
C812 C817 1.363 . S
C813 H784 0.950 . S
C813 C812 1.397 . S
C813 C814 1.334 . S
C814 H785 0.950 . S
C814 C813 1.334 . S
C814 C815 1.287 . S
C815 C814 1.287 . S
C815 C816 1.524 . S
C815 H818 0.999 . S
C816 H786 0.950 . S
C816 C815 1.524 . S
C816 C817 1.415 . S
C817 H787 0.950 . S
C817 C812 1.363 . S
C817 C816 1.415 . S
H818 C815 0.999 . S
H819 C800 0.913 . S
H820 C838 0.951 . S
H821 C840 0.951 . S
H822 C842 0.950 . S
H823 C843 0.950 . S
H824 C845 0.950 . S
H825 C848 0.950 . S
H826 C849 0.950 . S
H827 C851 0.950 . S
H828 C852 0.950 . S
H829 C853 0.951 . S
H830 C855 0.951 . S
H831 C857 0.950 . S
H832 C858 0.950 . S
H833 C860 0.950 . S
H834 C863 0.950 . S
H835 C864 0.950 . S
H836 C866 0.950 . S
H837 C867 0.950 . S
C838 H820 0.951 . S
C838 C839 1.366 1_556 S
C838 C840 1.388 . S
C839 C838 1.366 1_554 S
C839 C843 1.385 . S
C840 H821 0.951 . S
C840 C838 1.388 . S
C840 C841 1.366 1_556 S
C841 C840 1.366 1_554 S
C841 C842 1.414 . S
C841 C844 1.499 . S
C842 H822 0.950 . S
C842 C841 1.414 . S
C842 C843 1.374 . S
C843 H823 0.950 . S
C843 C839 1.385 . S
C843 C842 1.374 . S
C844 C841 1.499 . S
C844 C845 1.373 . S
C844 C846 1.389 . S
C845 H824 0.950 . S
C845 C844 1.373 . S
C845 C861 1.377 . S
C846 C844 1.389 . S
C846 C847 1.524 . S
C846 C860 1.377 1_554 S
C847 C846 1.524 . S
C847 C848 1.397 . S
C847 C852 1.363 1_554 S
C848 H825 0.950 . S
C848 C847 1.397 . S
C848 C849 1.334 . S
C849 H826 0.950 . S
C849 C848 1.334 . S
C849 C850 1.287 . S
C850 C849 1.287 . S
C850 C851 1.524 1_554 S
C850 H869 0.913 . S
C851 H827 0.950 . S
C851 C850 1.524 1_556 S
C851 C852 1.415 . S
C852 H828 0.950 . S
C852 C847 1.363 1_556 S
C852 C851 1.415 . S
C853 H829 0.951 . S
C853 C854 1.366 . S
C853 C855 1.388 . S
C854 C853 1.366 . S
C854 C858 1.385 1_554 S
C855 H830 0.951 . S
C855 C853 1.388 . S
C855 C856 1.366 . S
C856 C855 1.366 . S
C856 C857 1.414 1_554 S
C856 C859 1.499 1_554 S
C857 H831 0.950 . S
C857 C856 1.414 1_556 S
C857 C858 1.374 . S
C858 H832 0.950 . S
C858 C854 1.385 1_556 S
C858 C857 1.374 . S
C859 C856 1.499 1_556 S
C859 C860 1.373 . S
C859 C861 1.389 1_556 S
C860 H833 0.950 . S
C860 C846 1.377 1_556 S
C860 C859 1.373 . S
C861 C845 1.377 . S
C861 C859 1.389 1_554 S
C861 C862 1.524 . S
C862 C861 1.524 . S
C862 C863 1.397 1_554 S
C862 C867 1.363 . S
C863 H834 0.950 . S
C863 C862 1.397 1_556 S
C863 C864 1.334 . S
C864 H835 0.950 . S
C864 C863 1.334 . S
C864 C865 1.287 . S
C865 C864 1.287 . S
C865 C866 1.524 1_556 S
C865 H868 0.999 . S
C866 H836 0.950 . S
C866 C865 1.524 1_554 S
C866 C867 1.415 . S
C867 H837 0.950 . S
C867 C862 1.363 . S
C867 C866 1.415 . S
H868 C865 0.999 . S
H869 C850 0.913 . S
H870 C888 0.951 . S
H871 C890 0.951 . S
H872 C892 0.950 . S
H873 C893 0.950 . S
H874 C895 0.950 . S
H875 C898 0.950 . S
H876 C899 0.950 1_554 S
H877 C901 0.950 . S
H878 C902 0.950 . S
H879 C903 0.951 . S
H880 C905 0.951 . S
H881 C907 0.950 . S
H882 C908 0.950 . S
H883 C910 0.950 . S
H884 C913 0.950 . S
H885 C914 0.950 1_556 S
H886 C916 0.950 . S
H887 C917 0.950 1_545 S
C888 H870 0.951 . S
C888 C889 1.366 1_556 S
C888 C890 1.388 . S
C889 C888 1.366 1_554 S
C889 C893 1.385 . S
C890 H871 0.951 . S
C890 C888 1.388 . S
C890 C891 1.366 1_556 S
C891 C890 1.366 1_554 S
C891 C892 1.414 . S
C891 C894 1.499 . S
C892 H872 0.950 . S
C892 C891 1.414 . S
C892 C893 1.374 . S
C893 H873 0.950 . S
C893 C889 1.385 . S
C893 C892 1.374 . S
C894 C891 1.499 . S
C894 C895 1.373 . S
C894 C896 1.389 1_554 S
C895 H874 0.950 . S
C895 C894 1.373 . S
C895 C911 1.377 1_545 S
C896 C894 1.389 1_556 S
C896 C897 1.524 . S
C896 C910 1.377 1_545 S
C897 C896 1.524 . S
C897 C898 1.397 1_556 S
C897 C902 1.363 . S
C898 H875 0.950 . S
C898 C897 1.397 1_554 S
C898 C899 1.334 1_554 S
C899 H876 0.950 1_556 S
C899 C898 1.334 1_556 S
C899 C900 1.287 . S
C900 C899 1.287 . S
C900 C901 1.524 . S
C900 H919 0.913 . S
C901 H877 0.950 . S
C901 C900 1.524 . S
C901 C902 1.415 . S
C902 H878 0.950 . S
C902 C897 1.363 . S
C902 C901 1.415 . S
C903 H879 0.951 . S
C903 C904 1.366 . S
C903 C905 1.388 . S
C904 C903 1.366 . S
C904 C908 1.385 1_554 S
C905 H880 0.951 . S
C905 C903 1.388 . S
C905 C906 1.366 . S
C906 C905 1.366 . S
C906 C907 1.414 1_554 S
C906 C909 1.499 . S
C907 H881 0.950 . S
C907 C906 1.414 1_556 S
C907 C908 1.374 . S
C908 H882 0.950 . S
C908 C904 1.385 1_556 S
C908 C907 1.374 . S
C909 C906 1.499 . S
C909 C910 1.370 1_554 S
C909 C911 1.393 . S
C910 H883 0.950 . S
C910 C896 1.377 1_565 S
C910 C909 1.370 1_556 S
C911 C895 1.377 1_565 S
C911 C909 1.393 . S
C911 C912 1.524 . S
C912 C911 1.524 . S
C912 C913 1.397 1_554 S
C912 C917 1.363 . S
C913 H884 0.950 . S
C913 C912 1.397 1_556 S
C913 C914 1.334 1_556 S
C914 H885 0.950 1_554 S
C914 C913 1.334 1_554 S
C914 C915 1.287 . S
C915 C914 1.287 . S
C915 C916 1.524 . S
C915 H918 0.999 . S
C916 H886 0.950 . S
C916 C915 1.524 . S
C916 C917 1.415 . S
C917 H887 0.950 1_565 S
C917 C912 1.363 . S
C917 C916 1.415 . S
H918 C915 0.999 . S
H919 C900 0.913 . S
H920 C938 0.951 . S
H921 C940 0.951 . S
H922 C942 0.950 . S
H923 C943 0.950 . S
H924 C945 0.950 . S
H925 C948 0.950 . S
H926 C949 0.950 . S
H927 C951 0.950 . S
H928 C952 0.950 1_556 S
H929 C953 0.951 . S
H930 C955 0.951 . S
H931 C957 0.950 . S
H932 C958 0.950 . S
H933 C960 0.950 . S
H934 C963 0.950 . S
H935 C964 0.950 . S
H936 C966 0.950 . S
H937 C967 0.950 . S
C938 H920 0.951 . S
C938 C939 1.366 . S
C938 C940 1.388 . S
C939 C938 1.366 . S
C939 C943 1.385 . S
C940 H921 0.951 . S
C940 C938 1.388 . S
C940 C941 1.366 . S
C941 C940 1.366 . S
C941 C942 1.414 . S
C941 C944 1.499 . S
C942 H922 0.950 . S
C942 C941 1.414 . S
C942 C943 1.374 . S
C943 H923 0.950 . S
C943 C939 1.385 . S
C943 C942 1.374 . S
C944 C941 1.499 . S
C944 C945 1.373 1_554 S
C944 C946 1.389 1_554 S
C945 H924 0.950 . S
C945 C944 1.373 1_556 S
C945 C961 1.377 . S
C946 C944 1.389 1_556 S
C946 C947 1.524 1_556 S
C946 C960 1.377 . S
C947 C946 1.524 1_554 S
C947 C948 1.397 . S
C947 C952 1.363 . S
C948 H925 0.950 . S
C948 C947 1.397 . S
C948 C949 1.334 . S
C949 H926 0.950 . S
C949 C948 1.334 . S
C949 C950 1.287 . S
C950 C949 1.287 . S
C950 C951 1.524 . S
C950 H969 0.913 . S
C951 H927 0.950 . S
C951 C950 1.524 . S
C951 C952 1.415 . S
C952 H928 0.950 1_554 S
C952 C947 1.363 . S
C952 C951 1.415 . S
C953 H929 0.951 . S
C953 C954 1.366 . S
C953 C955 1.388 . S
C954 C953 1.366 . S
C954 C958 1.385 . S
C955 H930 0.951 . S
C955 C953 1.388 . S
C955 C956 1.366 . S
C956 C955 1.366 . S
C956 C957 1.414 . S
C956 C959 1.499 . S
C957 H931 0.950 . S
C957 C956 1.414 . S
C957 C958 1.374 . S
C958 H932 0.950 . S
C958 C954 1.385 . S
C958 C957 1.374 . S
C959 C956 1.499 . S
C959 C960 1.373 . S
C959 C961 1.389 . S
C960 H933 0.950 . S
C960 C946 1.377 . S
C960 C959 1.373 . S
C961 C945 1.377 . S
C961 C959 1.389 . S
C961 C962 1.524 . S
C962 C961 1.524 . S
C962 C963 1.397 . S
C962 C967 1.363 . S
C963 H934 0.950 . S
C963 C962 1.397 . S
C963 C964 1.334 . S
C964 H935 0.950 . S
C964 C963 1.334 . S
C964 C965 1.287 . S
C965 C964 1.287 . S
C965 C966 1.524 . S
C965 H968 0.999 . S
C966 H936 0.950 . S
C966 C965 1.524 . S
C966 C967 1.415 . S
C967 H937 0.950 . S
C967 C962 1.363 . S
C967 C966 1.415 . S
H968 C965 0.999 . S
H969 C950 0.913 . S
H970 C988 0.951 . S
H971 C990 0.951 . S
H972 C992 0.950 . S
H973 C993 0.950 . S
H974 C995 0.950 1_554 S
H975 C998 0.950 . S
H976 C999 0.950 . S
H977 C1001 0.950 . S
H978 C1002 0.950 . S
H979 C1003 0.951 . S
H980 C1005 0.951 . S
H981 C1007 0.950 . S
H982 C1008 0.950 . S
H983 C1010 0.950 . S
H984 C1013 0.950 . S
H985 C1014 0.950 . S
H986 C1016 0.950 . S
H987 C1017 0.950 . S
C988 H970 0.951 . S
C988 C989 1.366 . S
C988 C990 1.388 . S
C989 C988 1.366 . S
C989 C993 1.385 . S
C990 H971 0.951 . S
C990 C988 1.388 . S
C990 C991 1.366 . S
C991 C990 1.366 . S
C991 C992 1.414 . S
C991 C994 1.499 . S
C992 H972 0.950 . S
C992 C991 1.414 . S
C992 C993 1.374 . S
C993 H973 0.950 . S
C993 C989 1.385 . S
C993 C992 1.374 . S
C994 C991 1.499 . S
C994 C995 1.373 1_554 S
C994 C996 1.389 1_554 S
C995 H974 0.950 1_556 S
C995 C994 1.373 1_556 S
C995 C1011 1.377 . S
C996 C994 1.389 1_556 S
C996 C997 1.524 1_556 S
C996 C1010 1.377 . S
C997 C996 1.524 1_554 S
C997 C998 1.397 . S
C997 C1002 1.363 1_554 S
C998 H975 0.950 . S
C998 C997 1.397 . S
C998 C999 1.334 . S
C999 H976 0.950 . S
C999 C998 1.334 . S
C999 C1000 1.287 . S
C1000 C999 1.287 . S
C1000 C1001 1.524 . S
C1000 H1019 0.913 . S
C1001 H977 0.950 . S
C1001 C1000 1.524 . S
C1001 C1002 1.415 1_554 S
C1002 H978 0.950 . S
C1002 C997 1.363 1_556 S
C1002 C1001 1.415 1_556 S
C1003 H979 0.951 . S
C1003 C1004 1.366 . S
C1003 C1005 1.388 . S
C1004 C1003 1.366 . S
C1004 C1008 1.385 . S
C1005 H980 0.951 . S
C1005 C1003 1.388 . S
C1005 C1006 1.366 . S
C1006 C1005 1.366 . S
C1006 C1007 1.414 . S
C1006 C1009 1.499 . S
C1007 H981 0.950 . S
C1007 C1006 1.414 . S
C1007 C1008 1.374 . S
C1008 H982 0.950 . S
C1008 C1004 1.385 . S
C1008 C1007 1.374 . S
C1009 C1006 1.499 . S
C1009 C1010 1.373 . S
C1009 C1011 1.389 . S
C1010 H983 0.950 . S
C1010 C996 1.377 . S
C1010 C1009 1.373 . S
C1011 C995 1.377 . S
C1011 C1009 1.389 . S
C1011 C1012 1.524 . S
C1012 C1011 1.524 . S
C1012 C1013 1.397 . S
C1012 C1017 1.363 . S
C1013 H984 0.950 . S
C1013 C1012 1.397 . S
C1013 C1014 1.334 . S
C1014 H985 0.950 . S
C1014 C1013 1.334 . S
C1014 C1015 1.287 . S
C1015 C1014 1.287 . S
C1015 C1016 1.524 . S
C1015 H1018 0.999 . S
C1016 H986 0.950 . S
C1016 C1015 1.524 . S
C1016 C1017 1.415 . S
C1017 H987 0.950 . S
C1017 C1012 1.363 . S
C1017 C1016 1.415 . S
H1018 C1015 0.999 . S
H1019 C1000 0.913 . S
H1020 C1038 0.951 . S
H1021 C1040 0.951 . S
H1022 C1042 0.950 . S
H1023 C1043 0.950 . S
H1024 C1045 0.950 . S
H1025 C1048 0.950 . S
H1026 C1049 0.950 . S
H1027 C1051 0.950 . S
H1028 C1052 0.950 . S
H1029 C1053 0.951 . S
H1030 C1055 0.951 . S
H1031 C1057 0.950 . S
H1032 C1058 0.950 . S
H1033 C1060 0.950 1_556 S
H1034 C1063 0.950 . S
H1035 C1064 0.950 . S
H1036 C1066 0.950 . S
H1037 C1067 0.950 1_554 S
C1038 H1020 0.951 . S
C1038 C1039 1.366 . S
C1038 C1040 1.388 . S
C1039 C1038 1.366 . S
C1039 C1043 1.385 . S
C1040 H1021 0.951 . S
C1040 C1038 1.388 . S
C1040 C1041 1.366 . S
C1041 C1040 1.366 . S
C1041 C1042 1.414 . S
C1041 C1044 1.499 . S
C1042 H1022 0.950 . S
C1042 C1041 1.414 . S
C1042 C1043 1.374 . S
C1043 H1023 0.950 . S
C1043 C1039 1.385 . S
C1043 C1042 1.374 . S
C1044 C1041 1.499 . S
C1044 C1045 1.373 . S
C1044 C1046 1.389 . S
C1045 H1024 0.950 . S
C1045 C1044 1.373 . S
C1045 C1061 1.377 . S
C1046 C1044 1.389 . S
C1046 C1047 1.524 . S
C1046 C1060 1.377 . S
C1047 C1046 1.524 . S
C1047 C1048 1.397 . S
C1047 C1052 1.363 . S
C1048 H1025 0.950 . S
C1048 C1047 1.397 . S
C1048 C1049 1.334 . S
C1049 H1026 0.950 . S
C1049 C1048 1.334 . S
C1049 C1050 1.287 . S
C1050 C1049 1.287 . S
C1050 C1051 1.524 . S
C1050 H1069 0.913 . S
C1051 H1027 0.950 . S
C1051 C1050 1.524 . S
C1051 C1052 1.415 . S
C1052 H1028 0.950 . S
C1052 C1047 1.363 . S
C1052 C1051 1.415 . S
C1053 H1029 0.951 . S
C1053 C1054 1.366 . S
C1053 C1055 1.388 . S
C1054 C1053 1.366 . S
C1054 C1058 1.385 . S
C1055 H1030 0.951 . S
C1055 C1053 1.388 . S
C1055 C1056 1.366 . S
C1056 C1055 1.366 . S
C1056 C1057 1.414 . S
C1056 C1059 1.499 . S
C1057 H1031 0.950 . S
C1057 C1056 1.414 . S
C1057 C1058 1.374 . S
C1058 H1032 0.950 . S
C1058 C1054 1.385 . S
C1058 C1057 1.374 . S
C1059 C1056 1.499 . S
C1059 C1060 1.373 1_556 S
C1059 C1061 1.389 1_556 S
C1060 H1033 0.950 1_554 S
C1060 C1046 1.377 . S
C1060 C1059 1.373 1_554 S
C1061 C1045 1.377 . S
C1061 C1059 1.389 1_554 S
C1061 C1062 1.524 1_554 S
C1062 C1061 1.524 1_556 S
C1062 C1063 1.397 . S
C1062 C1067 1.363 . S
C1063 H1034 0.950 . S
C1063 C1062 1.397 . S
C1063 C1064 1.334 . S
C1064 H1035 0.950 . S
C1064 C1063 1.334 . S
C1064 C1065 1.287 . S
C1065 C1064 1.287 . S
C1065 C1066 1.524 . S
C1065 H1068 0.999 . S
C1066 H1036 0.950 . S
C1066 C1065 1.524 . S
C1066 C1067 1.415 . S
C1067 H1037 0.950 1_556 S
C1067 C1062 1.363 . S
C1067 C1066 1.415 . S
H1068 C1065 0.999 . S
H1069 C1050 0.913 . S
H1070 C1088 0.951 . S
H1071 C1090 0.951 . S
H1072 C1092 0.950 . S
H1073 C1093 0.950 . S
H1074 C1095 0.950 1_556 S
H1075 C1098 0.950 . S
H1076 C1099 0.950 . S
H1077 C1101 0.950 . S
H1078 C1102 0.950 . S
H1079 C1103 0.951 . S
H1080 C1105 0.951 . S
H1081 C1107 0.950 . S
H1082 C1108 0.950 . S
H1083 C1110 0.950 . S
H1084 C1113 0.950 . S
H1085 C1114 0.950 . S
H1086 C1116 0.950 . S
H1087 C1117 0.950 . S
C1088 H1070 0.951 . S
C1088 C1089 1.366 . S
C1088 C1090 1.388 . S
C1089 C1088 1.366 . S
C1089 C1093 1.385 . S
C1090 H1071 0.951 . S
C1090 C1088 1.388 . S
C1090 C1091 1.366 . S
C1091 C1090 1.366 . S
C1091 C1092 1.414 . S
C1091 C1094 1.499 . S
C1092 H1072 0.950 . S
C1092 C1091 1.414 . S
C1092 C1093 1.374 . S
C1093 H1073 0.950 . S
C1093 C1089 1.385 . S
C1093 C1092 1.374 . S
C1094 C1091 1.499 . S
C1094 C1095 1.373 1_556 S
C1094 C1096 1.389 1_556 S
C1095 H1074 0.950 1_554 S
C1095 C1094 1.373 1_554 S
C1095 C1111 1.377 . S
C1096 C1094 1.389 1_554 S
C1096 C1097 1.524 1_554 S
C1096 C1110 1.377 . S
C1097 C1096 1.524 1_556 S
C1097 C1098 1.397 . S
C1097 C1102 1.363 1_556 S
C1098 H1075 0.950 . S
C1098 C1097 1.397 . S
C1098 C1099 1.334 . S
C1099 H1076 0.950 . S
C1099 C1098 1.334 . S
C1099 C1100 1.287 . S
C1100 C1099 1.287 . S
C1100 C1101 1.524 . S
C1100 H1119 0.913 . S
C1101 H1077 0.950 . S
C1101 C1100 1.524 . S
C1101 C1102 1.415 1_556 S
C1102 H1078 0.950 . S
C1102 C1097 1.363 1_554 S
C1102 C1101 1.415 1_554 S
C1103 H1079 0.951 . S
C1103 C1104 1.366 . S
C1103 C1105 1.388 . S
C1104 C1103 1.366 . S
C1104 C1108 1.385 . S
C1105 H1080 0.951 . S
C1105 C1103 1.388 . S
C1105 C1106 1.366 . S
C1106 C1105 1.366 . S
C1106 C1107 1.414 . S
C1106 C1109 1.499 . S
C1107 H1081 0.950 . S
C1107 C1106 1.414 . S
C1107 C1108 1.374 . S
C1108 H1082 0.950 . S
C1108 C1104 1.385 . S
C1108 C1107 1.374 . S
C1109 C1106 1.499 . S
C1109 C1110 1.373 . S
C1109 C1111 1.389 . S
C1110 H1083 0.950 . S
C1110 C1096 1.377 . S
C1110 C1109 1.373 . S
C1111 C1095 1.377 . S
C1111 C1109 1.389 . S
C1111 C1112 1.524 . S
C1112 C1111 1.524 . S
C1112 C1113 1.397 . S
C1112 C1117 1.363 . S
C1113 H1084 0.950 . S
C1113 C1112 1.397 . S
C1113 C1114 1.334 . S
C1114 H1085 0.950 . S
C1114 C1113 1.334 . S
C1114 C1115 1.287 . S
C1115 C1114 1.287 . S
C1115 C1116 1.524 . S
C1115 H1118 0.999 . S
C1116 H1086 0.950 . S
C1116 C1115 1.524 . S
C1116 C1117 1.415 . S
C1117 H1087 0.950 . S
C1117 C1112 1.363 . S
C1117 C1116 1.415 . S
H1118 C1115 0.999 . S
H1119 C1100 0.913 . S
H1120 C1138 0.951 . S
H1121 C1140 0.951 . S
H1122 C1142 0.950 . S
H1123 C1143 0.950 . S
H1124 C1145 0.950 . S
H1125 C1148 0.950 . S
H1126 C1149 0.950 . S
H1127 C1151 0.950 . S
H1128 C1152 0.950 . S
H1129 C1153 0.951 . S
H1130 C1155 0.951 . S
H1131 C1157 0.950 . S
H1132 C1158 0.950 . S
H1133 C1160 0.950 . S
H1134 C1163 0.950 . S
H1135 C1164 0.950 . S
H1136 C1166 0.950 . S
H1137 C1167 0.950 . S
C1138 H1120 0.951 . S
C1138 C1139 1.366 . S
C1138 C1140 1.388 . S
C1139 C1138 1.366 . S
C1139 C1143 1.385 . S
C1140 H1121 0.951 . S
C1140 C1138 1.388 . S
C1140 C1141 1.366 . S
C1141 C1140 1.366 . S
C1141 C1142 1.414 . S
C1141 C1144 1.499 . S
C1142 H1122 0.950 . S
C1142 C1141 1.414 . S
C1142 C1143 1.374 . S
C1143 H1123 0.950 . S
C1143 C1139 1.385 . S
C1143 C1142 1.374 . S
C1144 C1141 1.499 . S
C1144 C1145 1.373 . S
C1144 C1146 1.389 . S
C1145 H1124 0.950 . S
C1145 C1144 1.373 . S
C1145 C1161 1.377 . S
C1146 C1144 1.389 . S
C1146 C1147 1.524 . S
C1146 C1160 1.377 . S
C1147 C1146 1.524 . S
C1147 C1148 1.397 . S
C1147 C1152 1.363 . S
C1148 H1125 0.950 . S
C1148 C1147 1.397 . S
C1148 C1149 1.334 . S
C1149 H1126 0.950 . S
C1149 C1148 1.334 . S
C1149 C1150 1.287 . S
C1150 C1149 1.287 . S
C1150 C1151 1.524 . S
C1150 H1169 0.913 . S
C1151 H1127 0.950 . S
C1151 C1150 1.524 . S
C1151 C1152 1.415 . S
C1152 H1128 0.950 . S
C1152 C1147 1.363 . S
C1152 C1151 1.415 . S
C1153 H1129 0.951 . S
C1153 C1154 1.366 . S
C1153 C1155 1.388 . S
C1154 C1153 1.366 . S
C1154 C1158 1.385 . S
C1155 H1130 0.951 . S
C1155 C1153 1.388 . S
C1155 C1156 1.366 . S
C1156 C1155 1.366 . S
C1156 C1157 1.414 . S
C1156 C1159 1.499 . S
C1157 H1131 0.950 . S
C1157 C1156 1.414 . S
C1157 C1158 1.374 . S
C1158 H1132 0.950 . S
C1158 C1154 1.385 . S
C1158 C1157 1.374 . S
C1159 C1156 1.499 . S
C1159 C1160 1.373 . S
C1159 C1161 1.389 . S
C1160 H1133 0.950 . S
C1160 C1146 1.377 . S
C1160 C1159 1.373 . S
C1161 C1145 1.377 . S
C1161 C1159 1.389 . S
C1161 C1162 1.524 . S
C1162 C1161 1.524 . S
C1162 C1163 1.397 . S
C1162 C1167 1.363 . S
C1163 H1134 0.950 . S
C1163 C1162 1.397 . S
C1163 C1164 1.334 . S
C1164 H1135 0.950 . S
C1164 C1163 1.334 . S
C1164 C1165 1.287 . S
C1165 C1164 1.287 . S
C1165 C1166 1.524 . S
C1165 H1168 0.999 . S
C1166 H1136 0.950 . S
C1166 C1165 1.524 . S
C1166 C1167 1.415 . S
C1167 H1137 0.950 . S
C1167 C1162 1.363 . S
C1167 C1166 1.415 . S
H1168 C1165 0.999 . S
H1169 C1150 0.913 . S
H1170 C1188 0.951 . S
H1171 C1190 0.951 . S
H1172 C1192 0.950 . S
H1173 C1193 0.950 . S
H1174 C1195 0.950 . S
H1175 C1198 0.950 . S
H1176 C1199 0.950 . S
H1177 C1201 0.950 . S
H1178 C1202 0.950 . S
H1179 C1203 0.951 . S
H1180 C1205 0.951 . S
H1181 C1207 0.950 . S
H1182 C1208 0.950 . S
H1183 C1210 0.950 . S
H1184 C1213 0.950 . S
H1185 C1214 0.950 . S
H1186 C1216 0.950 . S
H1187 C1217 0.950 . S
C1188 H1170 0.951 . S
C1188 C1189 1.366 . S
C1188 C1190 1.388 . S
C1189 C1188 1.366 . S
C1189 C1193 1.385 . S
C1190 H1171 0.951 . S
C1190 C1188 1.388 . S
C1190 C1191 1.366 . S
C1191 C1190 1.366 . S
C1191 C1192 1.414 . S
C1191 C1194 1.499 . S
C1192 H1172 0.950 . S
C1192 C1191 1.414 . S
C1192 C1193 1.374 . S
C1193 H1173 0.950 . S
C1193 C1189 1.385 . S
C1193 C1192 1.374 . S
C1194 C1191 1.499 . S
C1194 C1195 1.373 . S
C1194 C1196 1.389 . S
C1195 H1174 0.950 . S
C1195 C1194 1.373 . S
C1195 C1211 1.377 . S
C1196 C1194 1.389 . S
C1196 C1197 1.524 . S
C1196 C1210 1.377 . S
C1197 C1196 1.524 . S
C1197 C1198 1.397 . S
C1197 C1202 1.363 . S
C1198 H1175 0.950 . S
C1198 C1197 1.397 . S
C1198 C1199 1.334 . S
C1199 H1176 0.950 . S
C1199 C1198 1.334 . S
C1199 C1200 1.287 . S
C1200 C1199 1.287 . S
C1200 C1201 1.524 . S
C1200 H1219 0.913 . S
C1201 H1177 0.950 . S
C1201 C1200 1.524 . S
C1201 C1202 1.415 . S
C1202 H1178 0.950 . S
C1202 C1197 1.363 . S
C1202 C1201 1.415 . S
C1203 H1179 0.951 . S
C1203 C1204 1.366 . S
C1203 C1205 1.388 . S
C1204 C1203 1.366 . S
C1204 C1208 1.385 . S
C1205 H1180 0.951 . S
C1205 C1203 1.388 . S
C1205 C1206 1.366 . S
C1206 C1205 1.366 . S
C1206 C1207 1.414 . S
C1206 C1209 1.499 . S
C1207 H1181 0.950 . S
C1207 C1206 1.414 . S
C1207 C1208 1.374 . S
C1208 H1182 0.950 . S
C1208 C1204 1.385 . S
C1208 C1207 1.374 . S
C1209 C1206 1.499 . S
C1209 C1210 1.373 . S
C1209 C1211 1.389 . S
C1210 H1183 0.950 . S
C1210 C1196 1.377 . S
C1210 C1209 1.373 . S
C1211 C1195 1.377 . S
C1211 C1209 1.389 . S
C1211 C1212 1.524 . S
C1212 C1211 1.524 . S
C1212 C1213 1.397 . S
C1212 C1217 1.363 . S
C1213 H1184 0.950 . S
C1213 C1212 1.397 . S
C1213 C1214 1.334 . S
C1214 H1185 0.950 . S
C1214 C1213 1.334 . S
C1214 C1215 1.287 . S
C1215 C1214 1.287 . S
C1215 C1216 1.524 . S
C1215 H1218 0.999 . S
C1216 H1186 0.950 . S
C1216 C1215 1.524 . S
C1216 C1217 1.415 . S
C1217 H1187 0.950 . S
C1217 C1212 1.363 . S
C1217 C1216 1.415 . S
H1218 C1215 0.999 . S
H1219 C1200 0.913 . S
H1220 C1238 0.951 . S
H1221 C1240 0.951 . S
H1222 C1242 0.950 . S
H1223 C1243 0.950 . S
H1224 C1245 0.950 . S
H1225 C1248 0.950 . S
H1226 C1249 0.950 . S
H1227 C1251 0.950 . S
H1228 C1252 0.950 . S
H1229 C1253 0.951 . S
H1230 C1255 0.951 . S
H1231 C1257 0.950 . S
H1232 C1258 0.950 . S
H1233 C1260 0.950 . S
H1234 C1263 0.950 . S
H1235 C1264 0.950 . S
H1236 C1266 0.950 . S
H1237 C1267 0.950 . S
C1238 H1220 0.951 . S
C1238 C1239 1.366 . S
C1238 C1240 1.388 . S
C1239 C1238 1.366 . S
C1239 C1243 1.385 . S
C1240 H1221 0.951 . S
C1240 C1238 1.388 . S
C1240 C1241 1.366 . S
C1241 C1240 1.366 . S
C1241 C1242 1.414 . S
C1241 C1244 1.499 . S
C1242 H1222 0.950 . S
C1242 C1241 1.414 . S
C1242 C1243 1.374 . S
C1243 H1223 0.950 . S
C1243 C1239 1.385 . S
C1243 C1242 1.374 . S
C1244 C1241 1.499 . S
C1244 C1245 1.373 . S
C1244 C1246 1.389 . S
C1245 H1224 0.950 . S
C1245 C1244 1.373 . S
C1245 C1261 1.377 . S
C1246 C1244 1.389 . S
C1246 C1247 1.524 . S
C1246 C1260 1.377 . S
C1247 C1246 1.524 . S
C1247 C1248 1.397 . S
C1247 C1252 1.363 . S
C1248 H1225 0.950 . S
C1248 C1247 1.397 . S
C1248 C1249 1.334 . S
C1249 H1226 0.950 . S
C1249 C1248 1.334 . S
C1249 C1250 1.287 . S
C1250 C1249 1.287 . S
C1250 C1251 1.524 . S
C1250 H1269 0.913 . S
C1251 H1227 0.950 . S
C1251 C1250 1.524 . S
C1251 C1252 1.415 . S
C1252 H1228 0.950 . S
C1252 C1247 1.363 . S
C1252 C1251 1.415 . S
C1253 H1229 0.951 . S
C1253 C1254 1.366 . S
C1253 C1255 1.388 . S
C1254 C1253 1.366 . S
C1254 C1258 1.385 . S
C1255 H1230 0.951 . S
C1255 C1253 1.388 . S
C1255 C1256 1.366 . S
C1256 C1255 1.366 . S
C1256 C1257 1.414 . S
C1256 C1259 1.499 . S
C1257 H1231 0.950 . S
C1257 C1256 1.414 . S
C1257 C1258 1.374 . S
C1258 H1232 0.950 . S
C1258 C1254 1.385 . S
C1258 C1257 1.374 . S
C1259 C1256 1.499 . S
C1259 C1260 1.373 . S
C1259 C1261 1.389 . S
C1260 H1233 0.950 . S
C1260 C1246 1.377 . S
C1260 C1259 1.373 . S
C1261 C1245 1.377 . S
C1261 C1259 1.389 . S
C1261 C1262 1.524 . S
C1262 C1261 1.524 . S
C1262 C1263 1.397 . S
C1262 C1267 1.363 . S
C1263 H1234 0.950 . S
C1263 C1262 1.397 . S
C1263 C1264 1.334 . S
C1264 H1235 0.950 . S
C1264 C1263 1.334 . S
C1264 C1265 1.287 . S
C1265 C1264 1.287 . S
C1265 C1266 1.524 . S
C1265 H1268 0.999 . S
C1266 H1236 0.950 . S
C1266 C1265 1.524 . S
C1266 C1267 1.415 . S
C1267 H1237 0.950 . S
C1267 C1262 1.363 . S
C1267 C1266 1.415 . S
H1268 C1265 0.999 . S
H1269 C1250 0.913 . S
H1270 C1288 0.951 . S
H1271 C1290 0.951 . S
H1272 C1292 0.950 . S
H1273 C1293 0.950 . S
H1274 C1295 0.950 . S
H1275 C1298 0.950 . S
H1276 C1299 0.950 . S
H1277 C1301 0.950 . S
H1278 C1302 0.950 . S
H1279 C1303 0.951 . S
H1280 C1305 0.951 . S
H1281 C1307 0.950 . S
H1282 C1308 0.950 . S
H1283 C1310 0.950 . S
H1284 C1313 0.950 . S
H1285 C1314 0.950 . S
H1286 C1316 0.950 . S
H1287 C1317 0.950 . S
C1288 H1270 0.951 . S
C1288 C1289 1.366 . S
C1288 C1290 1.388 . S
C1289 C1288 1.366 . S
C1289 C1293 1.385 . S
C1290 H1271 0.951 . S
C1290 C1288 1.388 . S
C1290 C1291 1.366 . S
C1291 C1290 1.366 . S
C1291 C1292 1.414 . S
C1291 C1294 1.499 . S
C1292 H1272 0.950 . S
C1292 C1291 1.414 . S
C1292 C1293 1.374 . S
C1293 H1273 0.950 . S
C1293 C1289 1.385 . S
C1293 C1292 1.374 . S
C1294 C1291 1.499 . S
C1294 C1295 1.373 . S
C1294 C1296 1.389 . S
C1295 H1274 0.950 . S
C1295 C1294 1.373 . S
C1295 C1311 1.377 . S
C1296 C1294 1.389 . S
C1296 C1297 1.524 . S
C1296 C1310 1.377 . S
C1297 C1296 1.524 . S
C1297 C1298 1.397 . S
C1297 C1302 1.363 . S
C1298 H1275 0.950 . S
C1298 C1297 1.397 . S
C1298 C1299 1.334 . S
C1299 H1276 0.950 . S
C1299 C1298 1.334 . S
C1299 C1300 1.287 . S
C1300 C1299 1.287 . S
C1300 C1301 1.524 . S
C1300 H1319 0.913 . S
C1301 H1277 0.950 . S
C1301 C1300 1.524 . S
C1301 C1302 1.415 . S
C1302 H1278 0.950 . S
C1302 C1297 1.363 . S
C1302 C1301 1.415 . S
C1303 H1279 0.951 . S
C1303 C1304 1.366 . S
C1303 C1305 1.388 . S
C1304 C1303 1.366 . S
C1304 C1308 1.385 . S
C1305 H1280 0.951 . S
C1305 C1303 1.388 . S
C1305 C1306 1.366 . S
C1306 C1305 1.366 . S
C1306 C1307 1.414 . S
C1306 C1309 1.499 . S
C1307 H1281 0.950 . S
C1307 C1306 1.414 . S
C1307 C1308 1.374 . S
C1308 H1282 0.950 . S
C1308 C1304 1.385 . S
C1308 C1307 1.374 . S
C1309 C1306 1.499 . S
C1309 C1310 1.373 . S
C1309 C1311 1.389 . S
C1310 H1283 0.950 . S
C1310 C1296 1.377 . S
C1310 C1309 1.373 . S
C1311 C1295 1.377 . S
C1311 C1309 1.389 . S
C1311 C1312 1.524 . S
C1312 C1311 1.524 . S
C1312 C1313 1.397 . S
C1312 C1317 1.363 . S
C1313 H1284 0.950 . S
C1313 C1312 1.397 . S
C1313 C1314 1.334 . S
C1314 H1285 0.950 . S
C1314 C1313 1.334 . S
C1314 C1315 1.287 . S
C1315 C1314 1.287 . S
C1315 C1316 1.524 . S
C1315 H1318 0.999 . S
C1316 H1286 0.950 . S
C1316 C1315 1.524 . S
C1316 C1317 1.415 . S
C1317 H1287 0.950 . S
C1317 C1312 1.363 . S
C1317 C1316 1.415 . S
H1318 C1315 0.999 . S
H1319 C1300 0.913 . S
H1320 C1338 0.951 . S
H1321 C1340 0.951 . S
H1322 C1342 0.950 . S
H1323 C1343 0.950 . S
H1324 C1345 0.950 . S
H1325 C1348 0.950 . S
H1326 C1349 0.950 . S
H1327 C1351 0.950 . S
H1328 C1352 0.950 . S
H1329 C1353 0.951 . S
H1330 C1355 0.951 . S
H1331 C1357 0.950 . S
H1332 C1358 0.950 . S
H1333 C1360 0.950 . S
H1334 C1363 0.950 . S
H1335 C1364 0.950 . S
H1336 C1366 0.950 . S
H1337 C1367 0.950 . S
C1338 H1320 0.951 . S
C1338 C1339 1.366 . S
C1338 C1340 1.388 . S
C1339 C1338 1.366 . S
C1339 C1343 1.385 . S
C1340 H1321 0.951 . S
C1340 C1338 1.388 . S
C1340 C1341 1.366 . S
C1341 C1340 1.366 . S
C1341 C1342 1.414 . S
C1341 C1344 1.499 . S
C1342 H1322 0.950 . S
C1342 C1341 1.414 . S
C1342 C1343 1.374 . S
C1343 H1323 0.950 . S
C1343 C1339 1.385 . S
C1343 C1342 1.374 . S
C1344 C1341 1.499 . S
C1344 C1345 1.373 . S
C1344 C1346 1.389 . S
C1345 H1324 0.950 . S
C1345 C1344 1.373 . S
C1345 C1361 1.377 1_455 S
C1346 C1344 1.389 . S
C1346 C1347 1.524 . S
C1346 C1360 1.377 1_455 S
C1347 C1346 1.524 . S
C1347 C1348 1.397 . S
C1347 C1352 1.363 . S
C1348 H1325 0.950 . S
C1348 C1347 1.397 . S
C1348 C1349 1.334 . S
C1349 H1326 0.950 . S
C1349 C1348 1.334 . S
C1349 C1350 1.287 . S
C1350 C1349 1.287 . S
C1350 C1351 1.524 . S
C1350 H1369 0.913 . S
C1351 H1327 0.950 . S
C1351 C1350 1.524 . S
C1351 C1352 1.415 . S
C1352 H1328 0.950 . S
C1352 C1347 1.363 . S
C1352 C1351 1.415 . S
C1353 H1329 0.951 . S
C1353 C1354 1.366 . S
C1353 C1355 1.388 . S
C1354 C1353 1.366 . S
C1354 C1358 1.385 . S
C1355 H1330 0.951 . S
C1355 C1353 1.388 . S
C1355 C1356 1.366 . S
C1356 C1355 1.366 . S
C1356 C1357 1.414 . S
C1356 C1359 1.499 . S
C1357 H1331 0.950 . S
C1357 C1356 1.414 . S
C1357 C1358 1.374 . S
C1358 H1332 0.950 . S
C1358 C1354 1.385 . S
C1358 C1357 1.374 . S
C1359 C1356 1.499 . S
C1359 C1360 1.373 . S
C1359 C1361 1.389 . S
C1360 H1333 0.950 . S
C1360 C1346 1.377 1_655 S
C1360 C1359 1.373 . S
C1361 C1345 1.377 1_655 S
C1361 C1359 1.389 . S
C1361 C1362 1.524 . S
C1362 C1361 1.524 . S
C1362 C1363 1.397 . S
C1362 C1367 1.363 . S
C1363 H1334 0.950 . S
C1363 C1362 1.397 . S
C1363 C1364 1.334 . S
C1364 H1335 0.950 . S
C1364 C1363 1.334 . S
C1364 C1365 1.287 . S
C1365 C1364 1.287 . S
C1365 C1366 1.524 . S
C1365 H1368 0.999 . S
C1366 H1336 0.950 . S
C1366 C1365 1.524 . S
C1366 C1367 1.415 . S
C1367 H1337 0.950 . S
C1367 C1362 1.363 . S
C1367 C1366 1.415 . S
H1368 C1365 0.999 . S
H1369 C1350 0.913 . S
H1370 C1388 0.951 . S
H1371 C1390 0.951 . S
H1372 C1392 0.950 . S
H1373 C1393 0.950 . S
H1374 C1395 0.950 . S
H1375 C1398 0.950 . S
H1376 C1399 0.950 . S
H1377 C1401 0.950 . S
H1378 C1402 0.950 . S
H1379 C1403 0.951 . S
H1380 C1405 0.951 . S
H1381 C1407 0.950 . S
H1382 C1408 0.950 . S
H1383 C1410 0.950 . S
H1384 C1413 0.950 . S
H1385 C1414 0.950 . S
H1386 C1416 0.950 . S
H1387 C1417 0.950 . S
C1388 H1370 0.951 . S
C1388 C1389 1.366 . S
C1388 C1390 1.388 . S
C1389 C1388 1.366 . S
C1389 C1393 1.385 . S
C1390 H1371 0.951 . S
C1390 C1388 1.388 . S
C1390 C1391 1.366 . S
C1391 C1390 1.366 . S
C1391 C1392 1.414 . S
C1391 C1394 1.499 . S
C1392 H1372 0.950 . S
C1392 C1391 1.414 . S
C1392 C1393 1.374 . S
C1393 H1373 0.950 . S
C1393 C1389 1.385 . S
C1393 C1392 1.374 . S
C1394 C1391 1.499 . S
C1394 C1395 1.373 . S
C1394 C1396 1.389 . S
C1395 H1374 0.950 . S
C1395 C1394 1.373 . S
C1395 C1411 1.377 1_655 S
C1396 C1394 1.389 . S
C1396 C1397 1.524 . S
C1396 C1410 1.377 1_655 S
C1397 C1396 1.524 . S
C1397 C1398 1.397 . S
C1397 C1402 1.363 . S
C1398 H1375 0.950 . S
C1398 C1397 1.397 . S
C1398 C1399 1.334 . S
C1399 H1376 0.950 . S
C1399 C1398 1.334 . S
C1399 C1400 1.287 . S
C1400 C1399 1.287 . S
C1400 C1401 1.524 . S
C1400 H1419 0.913 1_556 S
C1401 H1377 0.950 . S
C1401 C1400 1.524 . S
C1401 C1402 1.415 . S
C1402 H1378 0.950 . S
C1402 C1397 1.363 . S
C1402 C1401 1.415 . S
C1403 H1379 0.951 . S
C1403 C1404 1.366 . S
C1403 C1405 1.388 . S
C1404 C1403 1.366 . S
C1404 C1408 1.385 . S
C1405 H1380 0.951 . S
C1405 C1403 1.388 . S
C1405 C1406 1.366 . S
C1406 C1405 1.366 . S
C1406 C1407 1.414 . S
C1406 C1409 1.499 . S
C1407 H1381 0.950 . S
C1407 C1406 1.414 . S
C1407 C1408 1.374 . S
C1408 H1382 0.950 . S
C1408 C1404 1.385 . S
C1408 C1407 1.374 . S
C1409 C1406 1.499 . S
C1409 C1410 1.373 . S
C1409 C1411 1.389 . S
C1410 H1383 0.950 . S
C1410 C1396 1.377 1_455 S
C1410 C1409 1.373 . S
C1411 C1395 1.377 1_455 S
C1411 C1409 1.389 . S
C1411 C1412 1.524 . S
C1412 C1411 1.524 . S
C1412 C1413 1.397 . S
C1412 C1417 1.363 . S
C1413 H1384 0.950 . S
C1413 C1412 1.397 . S
C1413 C1414 1.334 . S
C1414 H1385 0.950 . S
C1414 C1413 1.334 . S
C1414 C1415 1.287 . S
C1415 C1414 1.287 . S
C1415 C1416 1.524 . S
C1415 H1418 0.999 . S
C1416 H1386 0.950 . S
C1416 C1415 1.524 . S
C1416 C1417 1.415 . S
C1417 H1387 0.950 . S
C1417 C1412 1.363 . S
C1417 C1416 1.415 . S
H1418 C1415 0.999 . S
H1419 C1400 0.913 1_554 S
H1420 C1438 0.951 . S
H1421 C1440 0.951 . S
H1422 C1442 0.950 . S
H1423 C1443 0.950 . S
H1424 C1445 0.950 . S
H1425 C1448 0.950 . S
H1426 C1449 0.950 . S
H1427 C1451 0.950 . S
H1428 C1452 0.950 . S
H1429 C1453 0.951 . S
H1430 C1455 0.951 . S
H1431 C1457 0.950 . S
H1432 C1458 0.950 . S
H1433 C1460 0.950 . S
H1434 C1463 0.950 . S
H1435 C1464 0.950 . S
H1436 C1466 0.950 . S
H1437 C1467 0.950 . S
C1438 H1420 0.951 . S
C1438 C1439 1.366 . S
C1438 C1440 1.388 . S
C1439 C1438 1.366 . S
C1439 C1443 1.385 . S
C1440 H1421 0.951 . S
C1440 C1438 1.388 . S
C1440 C1441 1.366 . S
C1441 C1440 1.366 . S
C1441 C1442 1.414 . S
C1441 C1444 1.499 . S
C1442 H1422 0.950 . S
C1442 C1441 1.414 . S
C1442 C1443 1.374 . S
C1443 H1423 0.950 . S
C1443 C1439 1.385 . S
C1443 C1442 1.374 . S
C1444 C1441 1.499 . S
C1444 C1445 1.373 . S
C1444 C1446 1.389 . S
C1445 H1424 0.950 . S
C1445 C1444 1.373 . S
C1445 C1461 1.377 . S
C1446 C1444 1.389 . S
C1446 C1447 1.524 . S
C1446 C1460 1.377 . S
C1447 C1446 1.524 . S
C1447 C1448 1.397 . S
C1447 C1452 1.363 . S
C1448 H1425 0.950 . S
C1448 C1447 1.397 . S
C1448 C1449 1.334 . S
C1449 H1426 0.950 . S
C1449 C1448 1.334 . S
C1449 C1450 1.287 . S
C1450 C1449 1.287 . S
C1450 C1451 1.524 . S
C1450 H1469 0.913 . S
C1451 H1427 0.950 . S
C1451 C1450 1.524 . S
C1451 C1452 1.415 . S
C1452 H1428 0.950 . S
C1452 C1447 1.363 . S
C1452 C1451 1.415 . S
C1453 H1429 0.951 . S
C1453 C1454 1.366 . S
C1453 C1455 1.388 . S
C1454 C1453 1.366 . S
C1454 C1458 1.385 . S
C1455 H1430 0.951 . S
C1455 C1453 1.388 . S
C1455 C1456 1.366 . S
C1456 C1455 1.366 . S
C1456 C1457 1.414 . S
C1456 C1459 1.499 . S
C1457 H1431 0.950 . S
C1457 C1456 1.414 . S
C1457 C1458 1.374 . S
C1458 H1432 0.950 . S
C1458 C1454 1.385 . S
C1458 C1457 1.374 . S
C1459 C1456 1.499 . S
C1459 C1460 1.373 . S
C1459 C1461 1.389 . S
C1460 H1433 0.950 . S
C1460 C1446 1.377 . S
C1460 C1459 1.373 . S
C1461 C1445 1.377 . S
C1461 C1459 1.389 . S
C1461 C1462 1.524 . S
C1462 C1461 1.524 . S
C1462 C1463 1.397 . S
C1462 C1467 1.363 . S
C1463 H1434 0.950 . S
C1463 C1462 1.397 . S
C1463 C1464 1.334 1_556 S
C1464 H1435 0.950 . S
C1464 C1463 1.334 1_554 S
C1464 C1465 1.287 . S
C1465 C1464 1.287 . S
C1465 C1466 1.524 . S
C1465 H1468 0.999 . S
C1466 H1436 0.950 . S
C1466 C1465 1.524 . S
C1466 C1467 1.415 1_554 S
C1467 H1437 0.950 . S
C1467 C1462 1.363 . S
C1467 C1466 1.415 1_556 S
H1468 C1465 0.999 . S
H1469 C1450 0.913 . S
H1470 C1488 0.951 . S
H1471 C1490 0.951 . S
H1472 C1492 0.950 . S
H1473 C1493 0.950 . S
H1474 C1495 0.950 . S
H1475 C1498 0.950 . S
H1476 C1499 0.950 . S
H1477 C1501 0.950 . S
H1478 C1502 0.950 . S
H1479 C1503 0.951 . S
H1480 C1505 0.951 . S
H1481 C1507 0.950 . S
H1482 C1508 0.950 . S
H1483 C1510 0.950 . S
H1484 C1513 0.950 . S
H1485 C1514 0.950 . S
H1486 C1516 0.950 . S
H1487 C1517 0.950 . S
C1488 H1470 0.951 . S
C1488 C1489 1.366 . S
C1488 C1490 1.388 . S
C1489 C1488 1.366 . S
C1489 C1493 1.385 . S
C1490 H1471 0.951 . S
C1490 C1488 1.388 . S
C1490 C1491 1.366 . S
C1491 C1490 1.366 . S
C1491 C1492 1.414 . S
C1491 C1494 1.499 . S
C1492 H1472 0.950 . S
C1492 C1491 1.414 . S
C1492 C1493 1.374 . S
C1493 H1473 0.950 . S
C1493 C1489 1.385 . S
C1493 C1492 1.374 . S
C1494 C1491 1.499 . S
C1494 C1495 1.373 . S
C1494 C1496 1.389 . S
C1495 H1474 0.950 . S
C1495 C1494 1.373 . S
C1495 C1511 1.377 . S
C1496 C1494 1.389 . S
C1496 C1497 1.524 . S
C1496 C1510 1.377 . S
C1497 C1496 1.524 . S
C1497 C1498 1.397 . S
C1497 C1502 1.363 . S
C1498 H1475 0.950 . S
C1498 C1497 1.397 . S
C1498 C1499 1.334 1_554 S
C1499 H1476 0.950 . S
C1499 C1498 1.334 1_556 S
C1499 C1500 1.287 . S
C1500 C1499 1.287 . S
C1500 C1501 1.524 . S
C1500 H1519 0.913 . S
C1501 H1477 0.950 . S
C1501 C1500 1.524 . S
C1501 C1502 1.415 1_556 S
C1502 H1478 0.950 . S
C1502 C1497 1.363 . S
C1502 C1501 1.415 1_554 S
C1503 H1479 0.951 . S
C1503 C1504 1.366 . S
C1503 C1505 1.388 . S
C1504 C1503 1.366 . S
C1504 C1508 1.385 . S
C1505 H1480 0.951 . S
C1505 C1503 1.388 . S
C1505 C1506 1.366 . S
C1506 C1505 1.366 . S
C1506 C1507 1.414 . S
C1506 C1509 1.499 . S
C1507 H1481 0.950 . S
C1507 C1506 1.414 . S
C1507 C1508 1.374 . S
C1508 H1482 0.950 . S
C1508 C1504 1.385 . S
C1508 C1507 1.374 . S
C1509 C1506 1.499 . S
C1509 C1510 1.373 . S
C1509 C1511 1.389 . S
C1510 H1483 0.950 . S
C1510 C1496 1.377 . S
C1510 C1509 1.373 . S
C1511 C1495 1.377 . S
C1511 C1509 1.389 . S
C1511 C1512 1.524 . S
C1512 C1511 1.524 . S
C1512 C1513 1.397 . S
C1512 C1517 1.363 . S
C1513 H1484 0.950 . S
C1513 C1512 1.397 . S
C1513 C1514 1.334 . S
C1514 H1485 0.950 . S
C1514 C1513 1.334 . S
C1514 C1515 1.287 . S
C1515 C1514 1.287 . S
C1515 C1516 1.524 . S
C1515 H1518 0.999 . S
C1516 H1486 0.950 . S
C1516 C1515 1.524 . S
C1516 C1517 1.415 . S
C1517 H1487 0.950 . S
C1517 C1512 1.363 . S
C1517 C1516 1.415 . S
H1518 C1515 0.999 . S
H1519 C1500 0.913 . S
C339 C5 1.691 . S
C354 C295 1.690 . S
C389 C255 1.691 . S
C404 C45 1.691 . S
C439 C205 1.691 . S
C454 C95 1.691 . S
C489 C165 1.691 . S
C504 C135 1.691 . S
C539 C98 1.529 . S
C554 C18 1.503 . S
C589 C58 1.502 . S
C604 C138 1.528 . S
C639 C128 1.502 . S
C654 C48 1.527 . S
C689 C88 1.501 . S
C704 C8 1.527 . S
C739 C178 1.440 1_556 S
C754 C258 1.440 1_556 S
C789 C218 1.440 1_556 S
C804 C298 1.440 1_556 S
C839 C288 1.441 1_554 S
C854 C208 1.441 1_554 S
C889 C248 1.442 1_554 S
C904 C168 1.441 1_554 S
C939 C19 2.001 . S
C954 C9 2.001 . S
C989 C59 2.001 . S
C1004 C49 2.001 . S
C1039 C99 2.001 . S
C1054 C89 2.001 . S
C1089 C129 2.001 . S
C1104 C139 2.001 . S
C1139 C169 2.001 . S
C1154 C179 2.001 . S
C1189 C219 2.001 . S
C1204 C209 2.001 . S
C1239 C249 2.001 . S
C1254 C259 2.001 . S
C1289 C289 2.001 . S
C1304 C299 2.001 . S
C1339 C15 2.318 . S
C1354 C55 2.317 . S
C1389 C125 2.317 . S
C1404 C85 2.317 . S
C1439 C175 2.318 . S
C1454 C215 2.319 . S
C1489 C285 2.319 . S
C1504 C245 2.318 . S
