# Generated by pormake.
# Topology umy, (4)-cn, num edge types: 1
# Building blocks:
#     Node 0, Type 0, BuildingBlock: QUQFOY_clean_sbu_1, # of connection points: 4
#     Node 1, Type 0, BuildingBlock: QUQFOY_clean_sbu_1, # of connection points: 4
#     Node 2, Type 0, BuildingBlock: QUQFOY_clean_sbu_1, # of connection points: 4
#     Node 3, Type 0, BuildingBlock: QUQFOY_clean_sbu_1, # of connection points: 4
#     Node 4, Type 0, BuildingBlock: QUQFOY_clean_sbu_1, # of connection points: 4
#     Node 5, Type 0, BuildingBlock: QUQFOY_clean_sbu_1, # of connection points: 4
#     Node 6, Type 0, BuildingBlock: QUQFOY_clean_sbu_1, # of connection points: 4
#     Node 7, Type 0, BuildingBlock: QUQFOY_clean_sbu_1, # of connection points: 4
#     Node 8, Type 0, BuildingBlock: QUQFOY_clean_sbu_1, # of connection points: 4
#     Node 9, Type 0, BuildingBlock: QUQFOY_clean_sbu_1, # of connection points: 4
#     Node 10, Type 0, BuildingBlock: QUQFOY_clean_sbu_1, # of connection points: 4
#     Node 11, Type 0, BuildingBlock: QUQFOY_clean_sbu_1, # of connection points: 4
#     Edge 12, Type (0, 0), BuildingBlock: OJICUG_clean_linker_0, # of connection points: 2
#     Edge 13, Type (0, 0), BuildingBlock: OJICUG_clean_linker_0, # of connection points: 2
#     Edge 14, Type (0, 0), BuildingBlock: OJICUG_clean_linker_0, # of connection points: 2
#     Edge 15, Type (0, 0), BuildingBlock: OJICUG_clean_linker_0, # of connection points: 2
#     Edge 16, Type (0, 0), BuildingBlock: OJICUG_clean_linker_0, # of connection points: 2
#     Edge 17, Type (0, 0), BuildingBlock: OJICUG_clean_linker_0, # of connection points: 2
#     Edge 18, Type (0, 0), BuildingBlock: OJICUG_clean_linker_0, # of connection points: 2
#     Edge 19, Type (0, 0), BuildingBlock: OJICUG_clean_linker_0, # of connection points: 2
#     Edge 20, Type (0, 0), BuildingBlock: OJICUG_clean_linker_0, # of connection points: 2
#     Edge 21, Type (0, 0), BuildingBlock: OJICUG_clean_linker_0, # of connection points: 2
#     Edge 22, Type (0, 0), BuildingBlock: OJICUG_clean_linker_0, # of connection points: 2
#     Edge 23, Type (0, 0), BuildingBlock: OJICUG_clean_linker_0, # of connection points: 2
#     Edge 24, Type (0, 0), BuildingBlock: OJICUG_clean_linker_0, # of connection points: 2
#     Edge 25, Type (0, 0), BuildingBlock: OJICUG_clean_linker_0, # of connection points: 2
#     Edge 26, Type (0, 0), BuildingBlock: OJICUG_clean_linker_0, # of connection points: 2
#     Edge 27, Type (0, 0), BuildingBlock: OJICUG_clean_linker_0, # of connection points: 2
#     Edge 28, Type (0, 0), BuildingBlock: OJICUG_clean_linker_0, # of connection points: 2
#     Edge 29, Type (0, 0), BuildingBlock: OJICUG_clean_linker_0, # of connection points: 2
#     Edge 30, Type (0, 0), BuildingBlock: OJICUG_clean_linker_0, # of connection points: 2
#     Edge 31, Type (0, 0), BuildingBlock: OJICUG_clean_linker_0, # of connection points: 2
#     Edge 32, Type (0, 0), BuildingBlock: OJICUG_clean_linker_0, # of connection points: 2
#     Edge 33, Type (0, 0), BuildingBlock: OJICUG_clean_linker_0, # of connection points: 2
#     Edge 34, Type (0, 0), BuildingBlock: OJICUG_clean_linker_0, # of connection points: 2
#     Edge 35, Type (0, 0), BuildingBlock: OJICUG_clean_linker_0, # of connection points: 2
# Relax obj value: 0.086
# Max RMSD: 0.117
# Mean RMSD: 0.117
data_MOF--net-umy--node1-QUQFOY_clean_sbu_1--edge1-OJICUG_clean_linker_0
_symmetry_space_group_name_H-M    P1
_symmetry_Int_Tables_number       1
_symmetry_cell_setting            triclinic
loop_
_symmetry_equiv_pos_as_xyz
'x, y, z'
_cell_length_a     30.244597
_cell_length_b     30.169968
_cell_length_c     38.139649
_cell_angle_alpha  89.989554
_cell_angle_beta   90.011038
_cell_angle_gamma 120.08733
loop_
_atom_site_label
_atom_site_type_symbol
_atom_site_fract_x
_atom_site_fract_y
_atom_site_fract_z
_atom_type_partial_charge
O0 O 1.00153 0.32462 0.15989 0.0
Cd1 Cd 0.0725 0.3883 0.14959 0.0
Cd2 Cd 0.0893 0.31678 0.12114 0.0
O3 O 1.01199 0.26872 0.12894 0.0
O4 O 0.06516 0.45045 0.15231 0.0
O5 O 0.08532 0.42501 0.10346 0.0
C6 C 0.07599 0.45732 0.11933 0.0
C7 C 0.13206 0.31606 0.06996 0.0
C8 C 0.98433 0.27925 0.14841 0.0
C9 C 0.14581 0.36771 0.18754 0.0
O10 O 0.13144 0.33059 0.16627 0.0
O11 O 0.1307 0.39989 0.18382 0.0
O12 O 0.11131 0.27728 0.09081 0.0
O13 O 0.12646 0.3548 0.07712 0.0
O14 O 0.69334 0.99369 0.32636 0.0
Cd15 Cd 0.6963 0.06292 0.31977 0.0
Cd16 Cd 0.78947 0.09446 0.29159 0.0
O17 O 0.7699 0.01957 0.30418 0.0
O18 O 0.62542 0.05152 0.32019 0.0
O19 O 0.67636 0.08026 0.27383 0.0
C20 C 0.63266 0.06704 0.28805 0.0
C21 C 0.83063 0.13293 0.23879 0.0
C22 C 0.7293 0.98506 0.31885 0.0
C23 C 0.78554 0.14738 0.3574 0.0
O24 O 0.81304 0.14486 0.33319 0.0
O25 O 0.73739 0.11777 0.35728 0.0
O26 O 0.8522 0.11942 0.26222 0.0
O27 O 0.78433 0.1226 0.24439 0.0
O28 O 0.72113 0.68478 0.49068 0.0
Cd29 Cd 0.65451 0.68688 0.48382 0.0
Cd30 Cd 0.71759 0.7822 0.45634 0.0
O31 O 0.77215 0.76215 0.4694 0.0
O32 O 0.5953 0.61544 0.48499 0.0
O33 O 0.6158 0.66561 0.4383 0.0
C34 C 0.58575 0.62203 0.45304 0.0
C35 C 0.7245 0.82785 0.40476 0.0
C36 C 0.76587 0.72129 0.48384 0.0
C37 C 0.65851 0.7756 0.52178 0.0
O38 O 0.68878 0.80372 0.49783 0.0
O39 O 0.64035 0.72742 0.52145 0.0
O40 O 0.75773 0.84742 0.42953 0.0
O41 O 0.68817 0.78098 0.40828 0.0
O42 O 0.0518 0.7134 0.65981 0.0
Cd43 Cd 0.98086 0.64967 0.6495 0.0
Cd44 Cd 0.96395 0.72116 0.62105 0.0
O45 O 0.04125 0.76928 0.62889 0.0
O46 O 0.98827 0.58756 0.65226 0.0
O47 O 0.96807 0.61294 0.60339 0.0
C48 C 0.97743 0.58066 0.61928 0.0
C49 C 0.9212 0.7219 0.56986 0.0
C50 C 0.06894 0.75877 0.64835 0.0
C51 C 0.90743 0.67011 0.68743 0.0
O52 O 0.92177 0.70724 0.66616 0.0
O53 O 0.92262 0.638 0.68371 0.0
O54 O 0.94191 0.76065 0.59073 0.0
O55 O 0.92686 0.68318 0.57701 0.0
O56 O 0.35985 0.0443 0.82637 0.0
Cd57 Cd 0.35683 0.97504 0.81977 0.0
Cd58 Cd 0.2637 0.94359 0.79157 0.0
O59 O 0.28331 1.01848 0.80416 0.0
O60 O 0.42767 0.98633 0.82014 0.0
O61 O 0.37664 0.95765 0.77381 0.0
C62 C 0.42035 0.9708 0.78801 0.0
C63 C 0.22258 0.90515 0.73874 0.0
C64 C 0.32392 0.05297 0.81886 0.0
C65 C 0.26755 0.89061 0.85739 0.0
O66 O 0.24008 0.89316 0.83316 0.0
O67 O 0.31571 0.9202 0.85729 0.0
O68 O 0.201 0.91867 0.76215 0.0
O69 O 0.26887 0.91546 0.74438 0.0
O70 O 0.33207 0.35302 0.99081 0.0
Cd71 Cd 0.39861 0.35078 0.98396 0.0
Cd72 Cd 0.33548 0.25558 0.95645 0.0
O73 O 0.28097 0.27569 0.96949 0.0
O74 O 0.45793 0.42217 0.98505 0.0
O75 O 0.43725 0.3719 0.93841 0.0
C76 C 0.46739 0.41549 0.95311 0.0
C77 C 0.32865 0.21004 0.90484 0.0
C78 C 0.28731 0.31656 0.98394 0.0
C79 C 0.39443 0.26199 0.02193 0.0
O80 O 0.36416 0.23392 0.99797 0.0
O81 O 0.41267 0.31018 0.02161 0.0
O82 O 0.29535 0.19043 0.92956 0.0
O83 O 0.36501 0.25688 0.90843 0.0
O84 O 0.71838 0.04395 0.67193 0.0
Cd85 Cd 0.6521 0.97472 0.67852 0.0
Cd86 Cd 0.71375 0.94321 0.70672 0.0
O87 O 0.76906 1.0181 0.69415 0.0
O88 O 0.5926 0.98609 0.67813 0.0
O89 O 0.61489 0.95737 0.72447 0.0
C90 C 0.58437 0.97058 0.71027 0.0
C91 C 0.71643 0.9047 0.75952 0.0
C92 C 0.76297 0.0526 0.67946 0.0
C93 C 0.6569 0.89028 0.64089 0.0
O94 O 0.68693 0.89282 0.66511 0.0
O95 O 0.63834 0.91987 0.64101 0.0
O96 O 0.75153 0.91825 0.7361 0.0
O97 O 0.68046 0.91502 0.7539 0.0
O98 O 0.69567 0.71296 0.83835 0.0
Cd99 Cd 0.70298 0.64929 0.84866 0.0
Cd100 Cd 0.79128 0.72082 0.87714 0.0
O101 O 0.76202 0.76887 0.86932 0.0
O102 O 0.6335 0.58712 0.84596 0.0
O103 O 0.67914 0.61263 0.8948 0.0
C104 C 0.63748 0.58029 0.87895 0.0
C105 C 0.83476 0.72155 0.92835 0.0
C106 C 0.72383 0.75832 0.84984 0.0
C107 C 0.79691 0.66991 0.81075 0.0
O108 O 0.81965 0.70704 0.83203 0.0
O109 O 0.74962 0.63773 0.81446 0.0
O110 O 0.85278 0.76034 0.90749 0.0
O111 O 0.79041 0.6828 0.92117 0.0
O112 O 0.99782 0.68464 0.00754 0.0
Cd113 Cd 0.06661 0.68689 0.01441 0.0
Cd114 Cd 0.09868 0.7821 0.04192 0.0
O115 O 1.02405 0.76197 0.02886 0.0
O116 O 0.05454 0.61551 0.01329 0.0
O117 O 0.08412 0.66574 0.05995 0.0
C118 C 0.07067 0.62216 0.04524 0.0
C119 C 0.13736 0.82764 0.09354 0.0
C120 C 0.98952 0.7211 0.0144 0.0
C121 C 0.15125 0.77571 0.97647 0.0
O122 O 0.14904 0.80377 0.00043 0.0
O123 O 0.12129 0.72752 0.97678 0.0
O124 O 0.12368 0.84725 0.06881 0.0
O125 O 0.12689 0.78081 0.08996 0.0
O126 O 0.33428 0.99338 0.17208 0.0
Cd127 Cd 0.40053 0.06263 0.17868 0.0
Cd128 Cd 0.33885 0.0941 0.20685 0.0
O129 O 0.28356 0.01922 0.19424 0.0
O130 O 0.46006 0.05131 0.17828 0.0
O131 O 0.43779 0.08 0.22463 0.0
C132 C 0.46831 0.06684 0.21041 0.0
C133 C 0.33616 0.13253 0.25967 0.0
C134 C 0.28967 0.98472 0.17957 0.0
C135 C 0.39572 0.14708 0.14105 0.0
O136 O 0.3657 0.14454 0.16526 0.0
O137 O 0.41427 0.11748 0.14117 0.0
O138 O 0.30107 0.11902 0.23624 0.0
O139 O 0.37213 0.12221 0.25405 0.0
O140 O 0.35714 0.32425 0.3386 0.0
Cd141 Cd 0.34995 0.38799 0.3489 0.0
Cd142 Cd 0.26154 0.3165 0.37733 0.0
O143 O 0.29069 0.26837 0.3695 0.0
O144 O 0.41948 0.45008 0.34613 0.0
O145 O 0.37391 0.42473 0.395 0.0
C146 C 0.41556 0.457 0.37911 0.0
C147 C 0.21807 0.31578 0.42853 0.0
C148 C 0.3289 0.27888 0.35005 0.0
C149 C 0.25607 0.36754 0.31095 0.0
O150 O 0.23326 0.33042 0.33222 0.0
O151 O 0.30338 0.39964 0.31467 0.0
O152 O 0.2 0.27702 0.40765 0.0
O153 O 0.26245 0.35449 0.42138 0.0
O154 O 0.05519 0.35292 0.5077 0.0
Cd155 Cd 0.98647 0.35081 0.51455 0.0
Cd156 Cd 0.95422 0.2555 0.54203 0.0
O157 O 0.02883 0.27555 0.52899 0.0
O158 O 0.99869 0.42225 0.51338 0.0
O159 O 0.96902 0.37206 0.56006 0.0
C160 C 0.98255 0.41565 0.54533 0.0
C161 C 0.91544 0.20983 0.59359 0.0
C162 C 0.06341 0.31641 0.51455 0.0
C163 C 0.90176 0.2621 0.47656 0.0
O164 O 0.90391 0.23398 0.50051 0.0
O165 O 0.93177 0.31028 0.47689 0.0
O166 O 0.92911 0.19027 0.56884 0.0
O167 O 0.92597 0.2567 0.59007 0.0
C168 C 0.07754 0.58173 0.10096 0.0
C169 C 0.07352 0.58082 0.06424 0.0
H170 H 0.08097 0.54316 0.14717 0.0
C171 C 0.07168 0.53961 0.04572 0.0
H172 H 0.07901 0.61293 0.11596 0.0
C173 C 0.07362 0.50006 0.06353 0.0
C174 C 0.07652 0.5004 0.10029 0.0
H175 H 0.06886 0.53792 0.01739 0.0
H176 H 0.07187 0.46874 0.04852 0.0
C177 C 0.07855 0.54171 0.11882 0.0
C178 C 0.59215 0.0695 0.23133 0.0
C179 C 0.59162 0.06888 0.26815 0.0
H180 H 0.55316 0.06867 0.18422 0.0
C181 C 0.55088 0.06895 0.28586 0.0
H182 H 0.62298 0.06937 0.21697 0.0
C183 C 0.51135 0.06943 0.26713 0.0
C184 C 0.51124 0.06878 0.23032 0.0
H185 H 0.54956 0.06872 0.31425 0.0
H186 H 0.48036 0.06924 0.28149 0.0
C187 C 0.55208 0.06892 0.2126 0.0
C188 C 0.53842 0.58148 0.39736 0.0
C189 C 0.54157 0.58062 0.43407 0.0
H190 H 0.49637 0.54282 0.35118 0.0
C191 C 0.50224 0.53941 0.45263 0.0
H192 H 0.56811 0.61267 0.38233 0.0
C193 C 0.46074 0.49982 0.43486 0.0
C194 C 0.45813 0.50011 0.3981 0.0
H195 H 0.50341 0.53778 0.48097 0.0
H196 H 0.43119 0.46851 0.4499 0.0
C197 C 0.49737 0.54141 0.37954 0.0
C198 C 0.97978 0.53786 0.56352 0.0
C199 C 0.97689 0.53755 0.60028 0.0
H200 H 0.98449 0.49992 0.51741 0.0
C201 C 0.97482 0.49625 0.61884 0.0
H202 H 0.98156 0.56918 0.54849 0.0
C203 C 0.97578 0.45618 0.60101 0.0
C204 C 0.97979 0.45706 0.5643 0.0
H205 H 0.97241 0.49483 0.64719 0.0
H206 H 0.97428 0.42498 0.61604 0.0
C207 C 0.98168 0.49827 0.54574 0.0
C208 C 0.50069 0.96866 0.71251 0.0
C209 C 0.54152 0.96873 0.7302 0.0
H210 H 0.42988 0.96838 0.71692 0.0
C211 C 0.54148 0.96811 0.76702 0.0
H212 H 0.49956 0.96889 0.68413 0.0
C213 C 0.50203 0.9687 0.78577 0.0
C214 C 0.4613 0.96885 0.76808 0.0
H215 H 0.57246 0.96824 0.78136 0.0
H216 H 0.5034 0.96896 0.81415 0.0
C217 C 0.4607 0.96819 0.73127 0.0
C218 C 0.51464 0.45587 0.89737 0.0
C219 C 0.51157 0.45682 0.93409 0.0
H220 H 0.55661 0.4944 0.85115 0.0
C221 C 0.55095 0.49806 0.95259 0.0
H222 H 0.4849 0.42465 0.88238 0.0
C223 C 0.59243 0.53759 0.93476 0.0
C224 C 0.59495 0.53721 0.898 0.0
H225 H 0.54983 0.49977 0.98092 0.0
H226 H 0.62201 0.56894 0.94976 0.0
C227 C 0.55567 0.49588 0.8795 0.0
C228 C 0.15957 0.27171 0.02733 0.0
C229 C 0.16586 0.3176 0.04131 0.0
H230 H 0.19225 0.23559 0.99714 0.0
C231 C 0.20889 0.36413 0.03142 0.0
H232 H 0.12665 0.23529 0.03438 0.0
C233 C 0.24716 0.36431 0.01055 0.0
C234 C 0.24253 0.31803 0.99857 0.0
H235 H 0.21484 0.40008 0.0419 0.0
H236 H 0.28155 0.40046 0.00534 0.0
C237 C 0.19716 0.27196 0.00584 0.0
C238 C 0.8613 0.20981 0.20028 0.0
C239 C 0.86082 0.16424 0.20869 0.0
H240 H 0.90155 0.28283 0.17448 0.0
C241 C 0.89595 0.15354 0.19232 0.0
H242 H 0.83488 0.21912 0.21288 0.0
C243 C 0.933 0.18914 0.16959 0.0
C244 C 0.93679 0.23698 0.16378 0.0
H245 H 0.89641 0.11871 0.19852 0.0
H246 H 0.9613 0.18085 0.15898 0.0
C247 C 0.8995 0.24628 0.1784 0.0
C248 C 0.77214 0.9021 0.36442 0.0
C249 C 0.72541 0.86073 0.37569 0.0
H250 H 0.80995 0.973 0.33636 0.0
C251 C 0.67969 0.85632 0.36314 0.0
H252 H 0.80794 0.90637 0.37371 0.0
C253 C 0.68075 0.89522 0.34239 0.0
C254 C 0.72757 0.93844 0.33309 0.0
H255 H 0.64313 0.82498 0.37163 0.0
H256 H 0.64494 0.89278 0.3352 0.0
C257 C 0.77323 0.94018 0.3429 0.0
C258 C 0.80611 0.6736 0.51042 0.0
C259 C 0.81068 0.71987 0.49847 0.0
H260 H 0.8385 0.63785 0.54174 0.0
C261 C 0.85601 0.76596 0.50577 0.0
H262 H 0.77175 0.63743 0.50519 0.0
C263 C 0.89363 0.76623 0.52725 0.0
C264 C 0.88739 0.72036 0.54121 0.0
H265 H 0.86087 0.80233 0.49708 0.0
H266 H 0.92651 0.80267 0.53432 0.0
C267 C 0.8444 0.67381 0.53128 0.0
C268 C 0.1202 0.84888 0.66954 0.0
C269 C 0.11646 0.80107 0.66373 0.0
H270 H 0.15673 0.9193 0.69847 0.0
C271 C 0.15379 0.79181 0.67835 0.0
H272 H 0.09187 0.85713 0.65893 0.0
C273 C 0.19197 0.8283 0.70023 0.0
C274 C 0.1924 0.87384 0.70865 0.0
H275 H 0.15179 0.75529 0.67442 0.0
H276 H 0.21842 0.81902 0.71283 0.0
C277 C 0.15724 0.8845 0.69228 0.0
C278 C 0.27999 0.09785 0.84288 0.0
C279 C 0.32566 0.09957 0.83311 0.0
H280 H 0.24525 0.13162 0.87367 0.0
C281 C 0.37247 0.14276 0.84249 0.0
H282 H 0.24328 0.06506 0.83627 0.0
C283 C 0.37351 0.18162 0.86325 0.0
C284 C 0.32778 0.17721 0.87575 0.0
H285 H 0.40828 0.14519 0.83533 0.0
H286 H 0.41007 0.21292 0.8718 0.0
C287 C 0.28106 0.13589 0.86442 0.0
C288 C 0.7626 0.84846 0.8287 0.0
C289 C 0.71855 0.8006 0.83448 0.0
H290 H 0.79643 0.91892 0.79981 0.0
C291 C 0.67196 0.79128 0.81984 0.0
H292 H 0.79919 0.85675 0.83932 0.0
C293 C 0.67023 0.82777 0.79798 0.0
C294 C 0.71531 0.87337 0.7896 0.0
H295 H 0.63746 0.75472 0.82374 0.0
H296 H 0.63449 0.81845 0.78536 0.0
C297 C 0.76115 0.88408 0.80598 0.0
C298 C 0.9066 0.76591 0.971 0.0
C299 C 0.86702 0.72002 0.95701 0.0
H300 H 0.97541 0.80205 0.00121 0.0
C301 C 0.86353 0.6735 0.9669 0.0
H302 H 0.9101 0.80233 0.96395 0.0
C303 C 0.90162 0.67332 0.98778 0.0
C304 C 0.94326 0.71961 -0.00024 0.0
H305 H 0.83352 0.63754 0.95641 0.0
H306 H 0.89986 0.63718 0.99299 0.0
C307 C 0.94395 0.76567 0.9925 0.0
C308 C 0.20087 0.93984 0.1555 0.0
C309 C 0.2448 0.93812 0.16531 0.0
H310 H 0.13238 0.90607 0.12467 0.0
C311 C 0.24843 0.89493 0.15596 0.0
H312 H 0.19695 0.97263 0.16209 0.0
C313 C 0.21061 0.85606 0.13518 0.0
C314 C 0.1693 0.86047 0.12264 0.0
H315 H 0.2818 0.89249 0.16314 0.0
H316 H 0.21586 0.82476 0.12666 0.0
C317 C 0.1639 0.9018 0.13395 0.0
C318 C 0.3824 0.20936 0.29821 0.0
C319 C 0.33728 0.16383 0.28977 0.0
H320 H 0.41524 0.28236 0.32403 0.0
C321 C 0.29145 0.15317 0.30612 0.0
H322 H 0.41814 0.21864 0.28562 0.0
C323 C 0.29003 0.18877 0.32885 0.0
C324 C 0.33411 0.23658 0.33468 0.0
H325 H 0.25614 0.11838 0.2999 0.0
H326 H 0.25344 0.18053 0.33944 0.0
C327 C 0.38071 0.24584 0.32009 0.0
C328 C 0.14618 0.27145 0.47114 0.0
C329 C 0.18583 0.31733 0.45718 0.0
H330 H 0.07735 0.23536 0.50131 0.0
C331 C 0.1894 0.36388 0.4671 0.0
H332 H 0.14261 0.23502 0.46407 0.0
C333 C 0.15134 0.36409 0.48797 0.0
C334 C 0.10964 0.31783 0.49992 0.0
H335 H 0.21946 0.39983 0.45664 0.0
H336 H 0.15316 0.40027 0.4932 0.0
C337 C 0.10886 0.27173 0.49263 0.0
C338 C 0.84212 0.18134 0.63517 0.0
C339 C 0.88344 0.17694 0.62265 0.0
H340 H 0.77089 0.14488 0.66307 0.0
C341 C 0.8888 0.13557 0.63394 0.0
H342 H 0.8369 0.21268 0.62666 0.0
C343 C 0.8518 0.09749 0.65544 0.0
C344 C 0.80786 0.09922 0.66523 0.0
H345 H 0.92033 0.13131 0.62467 0.0
H346 H 0.85569 0.06468 0.66201 0.0
C347 C 0.80427 0.14244 0.6559 0.0
C348 C 0.23866 0.41589 0.26421 0.0
C349 C 0.22826 0.36934 0.27968 0.0
H350 H 0.21953 0.45212 0.22296 0.0
C351 C 0.1914 0.32309 0.26442 0.0
H352 H 0.26703 0.45204 0.27551 0.0
C353 C 0.1658 0.32313 0.2341 0.0
C354 C 0.17535 0.36942 0.21882 0.0
H355 H 0.18296 0.28663 0.27558 0.0
H356 H 0.13769 0.2867 0.22296 0.0
C357 C 0.21163 0.41594 0.23428 0.0
C358 C 0.88446 0.25613 0.4123 0.0
C359 C 0.8677 0.23753 0.44634 0.0
H360 H 0.87163 0.24142 0.35714 0.0
C361 C 0.82082 0.19203 0.45082 0.0
H362 H 0.92067 0.29094 0.40816 0.0
C363 C 0.79213 0.16452 0.4217 0.0
C364 C 0.8107 0.18123 0.38765 0.0
H365 H 0.80714 0.17696 0.47684 0.0
H366 H 0.75702 0.12857 0.42584 0.0
C367 C 0.85657 0.22777 0.38316 0.0
C368 C 0.6464 0.87316 0.5766 0.0
C369 C 0.64822 0.85643 0.61065 0.0
H370 H 0.64904 0.86073 0.52146 0.0
C371 C 0.64756 0.8099 0.61515 0.0
H372 H 0.64726 0.90911 0.57244 0.0
C373 C 0.64711 0.78155 0.58603 0.0
C374 C 0.64899 0.80016 0.55198 0.0
H375 H 0.64893 0.79624 0.64118 0.0
H376 H 0.6485 0.74674 0.59018 0.0
C377 C 0.64762 0.84565 0.54748 0.0
C378 C 0.84162 0.62175 0.73413 0.0
C379 C 0.87782 0.66831 0.71868 0.0
H380 H 0.78621 0.58552 0.77533 0.0
C381 C 0.88723 0.71456 0.73395 0.0
H382 H 0.83383 0.5856 0.72282 0.0
C383 C 0.86156 0.71451 0.76424 0.0
C384 C 0.82477 0.66821 0.7795 0.0
H385 H 0.91528 0.75102 0.72281 0.0
H386 H 0.86989 0.75093 0.77539 0.0
C387 C 0.81451 0.6217 0.76404 0.0
C388 C 0.19651 0.81019 0.8831 0.0
C389 C 0.24237 0.85673 0.88762 0.0
H390 H 0.13242 0.74696 0.90805 0.0
C391 C 0.26089 0.87343 0.92168 0.0
H392 H 0.1815 0.79656 0.85707 0.0
C393 C 0.23217 0.84587 0.95079 0.0
C394 C 0.18532 0.80035 0.94627 0.0
H395 H 0.29597 0.90938 0.92585 0.0
H396 H 0.24582 0.86092 0.97682 0.0
C397 C 0.16861 0.78178 0.91222 0.0
C398 C 0.40514 0.22751 0.11532 0.0
C399 C 0.40444 0.18096 0.11082 0.0
H400 H 0.4043 0.29074 0.09035 0.0
C401 C 0.4063 0.16428 0.07676 0.0
H402 H 0.40373 0.24114 0.14135 0.0
C403 C 0.40517 0.19184 0.04764 0.0
C404 C 0.40385 0.23735 0.05214 0.0
H405 H 0.40543 0.12832 0.07261 0.0
H406 H 0.4038 0.1768 0.02162 0.0
C407 C 0.40567 0.25592 0.08619 0.0
loop_
_geom_bond_atom_site_label_1
_geom_bond_atom_site_label_2
_geom_bond_distance
_geom_bond_site_symmetry_2
_ccdc_geom_bond_type
O0 Cd1 2.223 . S
O0 C8 1.315 . S
Cd1 O0 2.223 . S
Cd1 O4 2.297 . S
Cd1 O5 2.439 . S
Cd1 O11 2.240 . S
Cd2 O3 2.240 . S
Cd2 O10 2.223 . S
Cd2 O12 2.297 . S
Cd2 O13 2.439 . S
O3 Cd2 2.240 . S
O3 C8 1.279 . S
O4 Cd1 2.297 . S
O4 C6 1.247 . S
O5 Cd1 2.439 . S
O5 C6 1.208 . S
C6 O4 1.247 . S
C6 O5 1.208 . S
C7 O12 1.247 . S
C7 O13 1.208 . S
C8 O0 1.315 . S
C8 O3 1.279 . S
C9 O10 1.315 . S
C9 O11 1.279 . S
O10 Cd2 2.223 . S
O10 C9 1.315 . S
O11 Cd1 2.240 . S
O11 C9 1.279 . S
O12 Cd2 2.297 . S
O12 C7 1.247 . S
O13 Cd2 2.439 . S
O13 C7 1.208 . S
O14 Cd15 2.223 . S
O14 C22 1.315 . S
Cd15 O14 2.223 . S
Cd15 O18 2.297 . S
Cd15 O19 2.439 . S
Cd15 O25 2.240 . S
Cd16 O17 2.240 . S
Cd16 O24 2.223 . S
Cd16 O26 2.297 . S
Cd16 O27 2.439 . S
O17 Cd16 2.240 . S
O17 C22 1.279 . S
O18 Cd15 2.297 . S
O18 C20 1.247 . S
O19 Cd15 2.439 . S
O19 C20 1.208 . S
C20 O18 1.247 . S
C20 O19 1.208 . S
C21 O26 1.247 . S
C21 O27 1.208 . S
C22 O14 1.315 . S
C22 O17 1.279 . S
C23 O24 1.315 . S
C23 O25 1.279 . S
O24 Cd16 2.223 . S
O24 C23 1.315 . S
O25 Cd15 2.240 . S
O25 C23 1.279 . S
O26 Cd16 2.297 . S
O26 C21 1.247 . S
O27 Cd16 2.439 . S
O27 C21 1.208 . S
O28 Cd29 2.223 . S
O28 C36 1.315 . S
Cd29 O28 2.223 . S
Cd29 O32 2.297 . S
Cd29 O33 2.439 . S
Cd29 O39 2.240 . S
Cd30 O31 2.240 . S
Cd30 O38 2.223 . S
Cd30 O40 2.297 . S
Cd30 O41 2.439 . S
O31 Cd30 2.240 . S
O31 C36 1.279 . S
O32 Cd29 2.297 . S
O32 C34 1.247 . S
O33 Cd29 2.439 . S
O33 C34 1.208 . S
C34 O32 1.247 . S
C34 O33 1.208 . S
C35 O40 1.247 . S
C35 O41 1.208 . S
C36 O28 1.315 . S
C36 O31 1.279 . S
C37 O38 1.315 . S
C37 O39 1.279 . S
O38 Cd30 2.223 . S
O38 C37 1.315 . S
O39 Cd29 2.240 . S
O39 C37 1.279 . S
O40 Cd30 2.297 . S
O40 C35 1.247 . S
O41 Cd30 2.439 . S
O41 C35 1.208 . S
O42 Cd43 2.223 . S
O42 C50 1.315 . S
Cd43 O42 2.223 . S
Cd43 O46 2.297 . S
Cd43 O47 2.439 . S
Cd43 O53 2.240 . S
Cd44 O45 2.240 . S
Cd44 O52 2.223 . S
Cd44 O54 2.297 . S
Cd44 O55 2.439 . S
O45 Cd44 2.240 . S
O45 C50 1.279 . S
O46 Cd43 2.297 . S
O46 C48 1.247 . S
O47 Cd43 2.439 . S
O47 C48 1.208 . S
C48 O46 1.247 . S
C48 O47 1.208 . S
C49 O54 1.247 . S
C49 O55 1.208 . S
C50 O42 1.315 . S
C50 O45 1.279 . S
C51 O52 1.315 . S
C51 O53 1.279 . S
O52 Cd44 2.223 . S
O52 C51 1.315 . S
O53 Cd43 2.240 . S
O53 C51 1.279 . S
O54 Cd44 2.297 . S
O54 C49 1.247 . S
O55 Cd44 2.439 . S
O55 C49 1.208 . S
O56 Cd57 2.223 . S
O56 C64 1.315 . S
Cd57 O56 2.223 . S
Cd57 O60 2.297 . S
Cd57 O61 2.439 . S
Cd57 O67 2.240 . S
Cd58 O59 2.240 . S
Cd58 O66 2.223 . S
Cd58 O68 2.297 . S
Cd58 O69 2.439 . S
O59 Cd58 2.240 . S
O59 C64 1.279 . S
O60 Cd57 2.297 . S
O60 C62 1.247 . S
O61 Cd57 2.439 . S
O61 C62 1.208 . S
C62 O60 1.247 . S
C62 O61 1.208 . S
C63 O68 1.247 . S
C63 O69 1.208 . S
C64 O56 1.315 . S
C64 O59 1.279 . S
C65 O66 1.315 . S
C65 O67 1.279 . S
O66 Cd58 2.223 . S
O66 C65 1.315 . S
O67 Cd57 2.240 . S
O67 C65 1.279 . S
O68 Cd58 2.297 . S
O68 C63 1.247 . S
O69 Cd58 2.439 . S
O69 C63 1.208 . S
O70 Cd71 2.223 1_554 S
O70 C78 1.315 1_554 S
Cd71 O70 2.223 1_556 S
Cd71 O74 2.297 . S
Cd71 O75 2.439 . S
Cd71 O81 2.240 . S
Cd72 O73 2.240 . S
Cd72 O80 2.223 1_556 S
Cd72 O82 2.297 . S
Cd72 O83 2.439 . S
O73 Cd72 2.240 . S
O73 C78 1.279 . S
O74 Cd71 2.297 . S
O74 C76 1.247 . S
O75 Cd71 2.439 . S
O75 C76 1.208 . S
C76 O74 1.247 . S
C76 O75 1.208 . S
C77 O82 1.247 . S
C77 O83 1.208 . S
C78 O70 1.315 1_556 S
C78 O73 1.279 . S
C79 O80 1.315 . S
C79 O81 1.279 1_554 S
O80 Cd72 2.223 1_554 S
O80 C79 1.315 . S
O81 Cd71 2.240 . S
O81 C79 1.279 1_556 S
O82 Cd72 2.297 . S
O82 C77 1.247 . S
O83 Cd72 2.439 . S
O83 C77 1.208 . S
O84 Cd85 2.223 . S
O84 C92 1.315 . S
Cd85 O84 2.223 . S
Cd85 O88 2.297 . S
Cd85 O89 2.439 . S
Cd85 O95 2.240 . S
Cd86 O87 2.240 . S
Cd86 O94 2.223 . S
Cd86 O96 2.297 . S
Cd86 O97 2.439 . S
O87 Cd86 2.240 . S
O87 C92 1.279 . S
O88 Cd85 2.297 . S
O88 C90 1.247 . S
O89 Cd85 2.439 . S
O89 C90 1.208 . S
C90 O88 1.247 . S
C90 O89 1.208 . S
C91 O96 1.247 . S
C91 O97 1.208 . S
C92 O84 1.315 . S
C92 O87 1.279 . S
C93 O94 1.315 . S
C93 O95 1.279 . S
O94 Cd86 2.223 . S
O94 C93 1.315 . S
O95 Cd85 2.240 . S
O95 C93 1.279 . S
O96 Cd86 2.297 . S
O96 C91 1.247 . S
O97 Cd86 2.439 . S
O97 C91 1.208 . S
O98 Cd99 2.223 . S
O98 C106 1.315 . S
Cd99 O98 2.223 . S
Cd99 O102 2.297 . S
Cd99 O103 2.439 . S
Cd99 O109 2.240 . S
Cd100 O101 2.240 . S
Cd100 O108 2.223 . S
Cd100 O110 2.297 . S
Cd100 O111 2.439 . S
O101 Cd100 2.240 . S
O101 C106 1.279 . S
O102 Cd99 2.297 . S
O102 C104 1.247 . S
O103 Cd99 2.439 . S
O103 C104 1.208 . S
C104 O102 1.247 . S
C104 O103 1.208 . S
C105 O110 1.247 . S
C105 O111 1.208 . S
C106 O98 1.315 . S
C106 O101 1.279 . S
C107 O108 1.315 . S
C107 O109 1.279 . S
O108 Cd100 2.223 . S
O108 C107 1.315 . S
O109 Cd99 2.240 . S
O109 C107 1.279 . S
O110 Cd100 2.297 . S
O110 C105 1.247 . S
O111 Cd100 2.439 . S
O111 C105 1.208 . S
O112 Cd113 2.223 1_556 S
O112 C120 1.315 1_556 S
Cd113 O112 2.223 1_554 S
Cd113 O116 2.297 . S
Cd113 O117 2.439 . S
Cd113 O123 2.240 . S
Cd114 O115 2.240 . S
Cd114 O122 2.223 1_554 S
Cd114 O124 2.297 . S
Cd114 O125 2.439 . S
O115 Cd114 2.240 . S
O115 C120 1.279 . S
O116 Cd113 2.297 . S
O116 C118 1.247 . S
O117 Cd113 2.439 . S
O117 C118 1.208 . S
C118 O116 1.247 . S
C118 O117 1.208 . S
C119 O124 1.247 . S
C119 O125 1.208 . S
C120 O112 1.315 1_554 S
C120 O115 1.279 . S
C121 O122 1.315 . S
C121 O123 1.279 1_556 S
O122 Cd114 2.223 1_556 S
O122 C121 1.315 . S
O123 Cd113 2.240 . S
O123 C121 1.279 1_554 S
O124 Cd114 2.297 . S
O124 C119 1.247 . S
O125 Cd114 2.439 . S
O125 C119 1.208 . S
O126 Cd127 2.223 . S
O126 C134 1.315 . S
Cd127 O126 2.223 . S
Cd127 O130 2.297 . S
Cd127 O131 2.439 . S
Cd127 O137 2.240 . S
Cd128 O129 2.240 . S
Cd128 O136 2.223 . S
Cd128 O138 2.297 . S
Cd128 O139 2.439 . S
O129 Cd128 2.240 . S
O129 C134 1.279 . S
O130 Cd127 2.297 . S
O130 C132 1.247 . S
O131 Cd127 2.439 . S
O131 C132 1.208 . S
C132 O130 1.247 . S
C132 O131 1.208 . S
C133 O138 1.247 . S
C133 O139 1.208 . S
C134 O126 1.315 . S
C134 O129 1.279 . S
C135 O136 1.315 . S
C135 O137 1.279 . S
O136 Cd128 2.223 . S
O136 C135 1.315 . S
O137 Cd127 2.240 . S
O137 C135 1.279 . S
O138 Cd128 2.297 . S
O138 C133 1.247 . S
O139 Cd128 2.439 . S
O139 C133 1.208 . S
O140 Cd141 2.223 . S
O140 C148 1.315 . S
Cd141 O140 2.223 . S
Cd141 O144 2.297 . S
Cd141 O145 2.439 . S
Cd141 O151 2.240 . S
Cd142 O143 2.240 . S
Cd142 O150 2.223 . S
Cd142 O152 2.297 . S
Cd142 O153 2.439 . S
O143 Cd142 2.240 . S
O143 C148 1.279 . S
O144 Cd141 2.297 . S
O144 C146 1.247 . S
O145 Cd141 2.439 . S
O145 C146 1.208 . S
C146 O144 1.247 . S
C146 O145 1.208 . S
C147 O152 1.247 . S
C147 O153 1.208 . S
C148 O140 1.315 . S
C148 O143 1.279 . S
C149 O150 1.315 . S
C149 O151 1.279 . S
O150 Cd142 2.223 . S
O150 C149 1.315 . S
O151 Cd141 2.240 . S
O151 C149 1.279 . S
O152 Cd142 2.297 . S
O152 C147 1.247 . S
O153 Cd142 2.439 . S
O153 C147 1.208 . S
O154 Cd155 2.223 . S
O154 C162 1.315 . S
Cd155 O154 2.223 . S
Cd155 O158 2.297 . S
Cd155 O159 2.439 . S
Cd155 O165 2.240 . S
Cd156 O157 2.240 . S
Cd156 O164 2.223 . S
Cd156 O166 2.297 . S
Cd156 O167 2.439 . S
O157 Cd156 2.240 . S
O157 C162 1.279 . S
O158 Cd155 2.297 . S
O158 C160 1.247 . S
O159 Cd155 2.439 . S
O159 C160 1.208 . S
C160 O158 1.247 . S
C160 O159 1.208 . S
C161 O166 1.247 . S
C161 O167 1.208 . S
C162 O154 1.315 . S
C162 O157 1.279 . S
C163 O164 1.315 . S
C163 O165 1.279 . S
O164 Cd156 2.223 . S
O164 C163 1.315 . S
O165 Cd155 2.240 . S
O165 C163 1.279 . S
O166 Cd156 2.297 . S
O166 C161 1.247 . S
O167 Cd156 2.439 . S
O167 C161 1.208 . S
C168 C169 1.387 . S
C168 H172 0.950 . S
C168 C177 1.390 . S
C169 C168 1.387 . S
C169 C171 1.387 . S
H170 C177 0.950 . S
C171 C169 1.387 . S
C171 C173 1.390 . S
C171 H175 0.950 . S
H172 C168 0.950 . S
C173 C171 1.390 . S
C173 C174 1.387 . S
C173 H176 0.950 . S
C174 C173 1.387 . S
C174 C177 1.387 . S
H175 C171 0.950 . S
H176 C173 0.950 . S
C177 C168 1.390 . S
C177 H170 0.950 . S
C177 C174 1.387 . S
C178 C179 1.387 . S
C178 H182 0.950 . S
C178 C187 1.390 . S
C179 C178 1.387 . S
C179 C181 1.387 . S
H180 C187 0.950 . S
C181 C179 1.387 . S
C181 C183 1.390 . S
C181 H185 0.950 1_545 S
H182 C178 0.950 . S
C183 C181 1.390 . S
C183 C184 1.387 . S
C183 H186 0.950 1_545 S
C184 C183 1.387 . S
C184 C187 1.387 . S
H185 C181 0.950 1_565 S
H186 C183 0.950 1_565 S
C187 C178 1.390 . S
C187 H180 0.950 . S
C187 C184 1.387 . S
C188 C189 1.387 . S
C188 H192 0.950 . S
C188 C197 1.390 . S
C189 C188 1.387 . S
C189 C191 1.387 . S
H190 C197 0.950 . S
C191 C189 1.387 . S
C191 C193 1.390 . S
C191 H195 0.950 . S
H192 C188 0.950 . S
C193 C191 1.390 . S
C193 C194 1.387 . S
C193 H196 0.950 . S
C194 C193 1.387 . S
C194 C197 1.387 . S
H195 C191 0.950 . S
H196 C193 0.950 . S
C197 C188 1.390 . S
C197 H190 0.950 . S
C197 C194 1.387 . S
C198 C199 1.387 . S
C198 H202 0.950 . S
C198 C207 1.390 . S
C199 C198 1.387 . S
C199 C201 1.387 . S
H200 C207 0.950 . S
C201 C199 1.387 . S
C201 C203 1.390 . S
C201 H205 0.950 . S
H202 C198 0.950 . S
C203 C201 1.390 . S
C203 C204 1.387 . S
C203 H206 0.950 . S
C204 C203 1.387 . S
C204 C207 1.387 . S
H205 C201 0.950 . S
H206 C203 0.950 . S
C207 C198 1.390 . S
C207 H200 0.950 . S
C207 C204 1.387 . S
C208 C209 1.387 . S
C208 H212 0.950 1_565 S
C208 C217 1.390 . S
C209 C208 1.387 . S
C209 C211 1.387 . S
H210 C217 0.950 1_545 S
C211 C209 1.387 . S
C211 C213 1.390 . S
C211 H215 0.950 . S
H212 C208 0.950 1_545 S
C213 C211 1.390 . S
C213 C214 1.387 . S
C213 H216 0.950 . S
C214 C213 1.387 . S
C214 C217 1.387 . S
H215 C211 0.950 . S
H216 C213 0.950 . S
C217 C208 1.390 . S
C217 H210 0.950 1_565 S
C217 C214 1.387 . S
C218 C219 1.387 . S
C218 H222 0.950 . S
C218 C227 1.390 . S
C219 C218 1.387 . S
C219 C221 1.387 . S
H220 C227 0.950 . S
C221 C219 1.387 . S
C221 C223 1.390 . S
C221 H225 0.950 . S
H222 C218 0.950 . S
C223 C221 1.390 . S
C223 C224 1.387 . S
C223 H226 0.950 . S
C224 C223 1.387 . S
C224 C227 1.387 . S
H225 C221 0.950 . S
H226 C223 0.950 . S
C227 C218 1.390 . S
C227 H220 0.950 . S
C227 C224 1.387 . S
C228 C229 1.387 . S
C228 H232 0.950 . S
C228 C237 1.390 . S
C229 C228 1.387 . S
C229 C231 1.387 . S
H230 C237 0.950 . S
C231 C229 1.387 . S
C231 C233 1.390 . S
C231 H235 0.950 . S
H232 C228 0.950 . S
C233 C231 1.390 . S
C233 C234 1.387 . S
C233 H236 0.950 1_554 S
C234 C233 1.387 . S
C234 C237 1.387 . S
H235 C231 0.950 . S
H236 C233 0.950 1_556 S
C237 C228 1.390 . S
C237 H230 0.950 . S
C237 C234 1.387 . S
C238 C239 1.387 . S
C238 H242 0.950 . S
C238 C247 1.390 . S
C239 C238 1.387 . S
C239 C241 1.387 . S
H240 C247 0.950 . S
C241 C239 1.387 . S
C241 C243 1.390 . S
C241 H245 0.950 . S
H242 C238 0.950 . S
C243 C241 1.390 . S
C243 C244 1.387 . S
C243 H246 0.950 . S
C244 C243 1.387 . S
C244 C247 1.387 . S
H245 C241 0.950 . S
H246 C243 0.950 . S
C247 C238 1.390 . S
C247 H240 0.950 . S
C247 C244 1.387 . S
C248 C249 1.387 . S
C248 H252 0.950 . S
C248 C257 1.390 . S
C249 C248 1.387 . S
C249 C251 1.387 . S
H250 C257 0.955 . S
C251 C249 1.387 . S
C251 C253 1.390 . S
C251 H255 0.950 . S
H252 C248 0.950 . S
C253 C251 1.390 . S
C253 C254 1.387 . S
C253 H256 0.950 . S
C254 C253 1.387 . S
C254 C257 1.387 . S
H255 C251 0.950 . S
H256 C253 0.950 . S
C257 C248 1.390 . S
C257 H250 0.955 . S
C257 C254 1.387 . S
C258 C259 1.387 . S
C258 H262 0.950 . S
C258 C267 1.390 . S
C259 C258 1.387 . S
C259 C261 1.387 . S
H260 C267 0.950 . S
C261 C259 1.387 . S
C261 C263 1.390 . S
C261 H265 0.950 . S
H262 C258 0.950 . S
C263 C261 1.390 . S
C263 C264 1.387 . S
C263 H266 0.950 . S
C264 C263 1.387 . S
C264 C267 1.387 . S
H265 C261 0.950 . S
H266 C263 0.950 . S
C267 C258 1.390 . S
C267 H260 0.950 . S
C267 C264 1.387 . S
C268 C269 1.387 . S
C268 H272 0.950 . S
C268 C277 1.390 . S
C269 C268 1.387 . S
C269 C271 1.387 . S
H270 C277 0.950 . S
C271 C269 1.387 . S
C271 C273 1.390 . S
C271 H275 0.950 . S
H272 C268 0.950 . S
C273 C271 1.390 . S
C273 C274 1.387 . S
C273 H276 0.950 . S
C274 C273 1.387 . S
C274 C277 1.387 . S
H275 C271 0.950 . S
H276 C273 0.950 . S
C277 C268 1.390 . S
C277 H270 0.950 . S
C277 C274 1.387 . S
C278 C279 1.387 . S
C278 H282 0.950 . S
C278 C287 1.390 . S
C279 C278 1.387 . S
C279 C281 1.387 . S
H280 C287 0.950 . S
C281 C279 1.387 . S
C281 C283 1.390 . S
C281 H285 0.950 . S
H282 C278 0.950 . S
C283 C281 1.390 . S
C283 C284 1.387 . S
C283 H286 0.950 . S
C284 C283 1.387 . S
C284 C287 1.387 . S
H285 C281 0.950 . S
H286 C283 0.950 . S
C287 C278 1.390 . S
C287 H280 0.950 . S
C287 C284 1.387 . S
C288 C289 1.387 . S
C288 H292 0.950 . S
C288 C297 1.390 . S
C289 C288 1.387 . S
C289 C291 1.387 . S
H290 C297 0.950 . S
C291 C289 1.387 . S
C291 C293 1.390 . S
C291 H295 0.950 . S
H292 C288 0.950 . S
C293 C291 1.390 . S
C293 C294 1.387 . S
C293 H296 0.950 . S
C294 C293 1.387 . S
C294 C297 1.387 . S
H295 C291 0.950 . S
H296 C293 0.950 . S
C297 C288 1.390 . S
C297 H290 0.950 . S
C297 C294 1.387 . S
C298 C299 1.387 . S
C298 H302 0.950 . S
C298 C307 1.390 . S
C299 C298 1.387 . S
C299 C301 1.387 . S
H300 C307 0.965 . S
C301 C299 1.387 . S
C301 C303 1.390 1_556 S
C301 H305 0.950 . S
H302 C298 0.950 . S
C303 C301 1.390 1_554 S
C303 C304 1.387 1_554 S
C303 H306 0.950 . S
C304 C303 1.387 1_556 S
C304 C307 1.387 . S
H305 C301 0.950 . S
H306 C303 0.950 . S
C307 C298 1.390 . S
C307 H300 0.965 . S
C307 C304 1.387 . S
C308 C309 1.387 . S
C308 H312 0.950 . S
C308 C317 1.390 . S
C309 C308 1.387 . S
C309 C311 1.387 . S
H310 C317 0.950 . S
C311 C309 1.387 . S
C311 C313 1.390 . S
C311 H315 0.950 . S
H312 C308 0.950 . S
C313 C311 1.390 . S
C313 C314 1.387 . S
C313 H316 0.950 . S
C314 C313 1.387 . S
C314 C317 1.387 . S
H315 C311 0.950 . S
H316 C313 0.950 . S
C317 C308 1.390 . S
C317 H310 0.950 . S
C317 C314 1.387 . S
C318 C319 1.387 . S
C318 H322 0.950 . S
C318 C327 1.390 . S
C319 C318 1.387 . S
C319 C321 1.387 . S
H320 C327 0.950 . S
C321 C319 1.387 . S
C321 C323 1.390 . S
C321 H325 0.950 . S
H322 C318 0.950 . S
C323 C321 1.390 . S
C323 C324 1.387 . S
C323 H326 0.950 . S
C324 C323 1.387 . S
C324 C327 1.387 . S
H325 C321 0.950 . S
H326 C323 0.950 . S
C327 C318 1.390 . S
C327 H320 0.950 . S
C327 C324 1.387 . S
C328 C329 1.387 . S
C328 H332 0.950 . S
C328 C337 1.390 . S
C329 C328 1.387 . S
C329 C331 1.387 . S
H330 C337 0.950 . S
C331 C329 1.387 . S
C331 C333 1.390 . S
C331 H335 0.950 . S
H332 C328 0.950 . S
C333 C331 1.390 . S
C333 C334 1.387 . S
C333 H336 0.950 . S
C334 C333 1.387 . S
C334 C337 1.387 . S
H335 C331 0.950 . S
H336 C333 0.950 . S
C337 C328 1.390 . S
C337 H330 0.950 . S
C337 C334 1.387 . S
C338 C339 1.387 . S
C338 H342 0.950 . S
C338 C347 1.390 . S
C339 C338 1.387 . S
C339 C341 1.387 . S
H340 C347 0.950 . S
C341 C339 1.387 . S
C341 C343 1.390 . S
C341 H345 0.950 . S
H342 C338 0.950 . S
C343 C341 1.390 . S
C343 C344 1.387 . S
C343 H346 0.950 . S
C344 C343 1.387 . S
C344 C347 1.387 . S
H345 C341 0.950 . S
H346 C343 0.950 . S
C347 C338 1.390 . S
C347 H340 0.950 . S
C347 C344 1.387 . S
C348 C349 1.387 . S
C348 H352 0.950 . S
C348 C357 1.390 . S
C349 C348 1.387 . S
C349 C351 1.387 . S
H350 C357 0.950 . S
C351 C349 1.387 . S
C351 C353 1.390 . S
C351 H355 0.950 . S
H352 C348 0.950 . S
C353 C351 1.390 . S
C353 C354 1.387 . S
C353 H356 0.950 . S
C354 C353 1.387 . S
C354 C357 1.387 . S
H355 C351 0.950 . S
H356 C353 0.950 . S
C357 C348 1.390 . S
C357 H350 0.950 . S
C357 C354 1.387 . S
C358 C359 1.387 . S
C358 H362 0.950 . S
C358 C367 1.390 . S
C359 C358 1.387 . S
C359 C361 1.387 . S
H360 C367 0.950 . S
C361 C359 1.387 . S
C361 C363 1.390 . S
C361 H365 0.950 . S
H362 C358 0.950 . S
C363 C361 1.390 . S
C363 C364 1.387 . S
C363 H366 0.950 . S
C364 C363 1.387 . S
C364 C367 1.387 . S
H365 C361 0.950 . S
H366 C363 0.950 . S
C367 C358 1.390 . S
C367 H360 0.950 . S
C367 C364 1.387 . S
C368 C369 1.387 . S
C368 H372 0.950 . S
C368 C377 1.390 . S
C369 C368 1.387 . S
C369 C371 1.387 . S
H370 C377 0.950 . S
C371 C369 1.387 . S
C371 C373 1.390 . S
C371 H375 0.950 . S
H372 C368 0.950 . S
C373 C371 1.390 . S
C373 C374 1.387 . S
C373 H376 0.950 . S
C374 C373 1.387 . S
C374 C377 1.387 . S
H375 C371 0.950 . S
H376 C373 0.950 . S
C377 C368 1.390 . S
C377 H370 0.950 . S
C377 C374 1.387 . S
C378 C379 1.387 . S
C378 H382 0.950 . S
C378 C387 1.390 . S
C379 C378 1.387 . S
C379 C381 1.387 . S
H380 C387 0.950 . S
C381 C379 1.387 . S
C381 C383 1.390 . S
C381 H385 0.950 . S
H382 C378 0.950 . S
C383 C381 1.390 . S
C383 C384 1.387 . S
C383 H386 0.950 . S
C384 C383 1.387 . S
C384 C387 1.387 . S
H385 C381 0.950 . S
H386 C383 0.950 . S
C387 C378 1.390 . S
C387 H380 0.950 . S
C387 C384 1.387 . S
C388 C389 1.387 . S
C388 H392 0.950 . S
C388 C397 1.390 . S
C389 C388 1.387 . S
C389 C391 1.387 . S
H390 C397 0.950 . S
C391 C389 1.387 . S
C391 C393 1.390 . S
C391 H395 0.950 . S
H392 C388 0.950 . S
C393 C391 1.390 . S
C393 C394 1.387 . S
C393 H396 0.950 . S
C394 C393 1.387 . S
C394 C397 1.387 . S
H395 C391 0.950 . S
H396 C393 0.950 . S
C397 C388 1.390 . S
C397 H390 0.950 . S
C397 C394 1.387 . S
C398 C399 1.387 . S
C398 H402 0.950 . S
C398 C407 1.390 . S
C399 C398 1.387 . S
C399 C401 1.387 . S
H400 C407 0.950 . S
C401 C399 1.387 . S
C401 C403 1.390 . S
C401 H405 0.950 . S
H402 C398 0.950 . S
C403 C401 1.390 . S
C403 C404 1.387 . S
C403 H406 0.950 . S
C404 C403 1.387 . S
C404 C407 1.387 . S
H405 C401 0.950 . S
H406 C403 0.950 . S
C407 C398 1.390 . S
C407 H400 0.950 . S
C407 C404 1.387 . S
C169 C118 1.501 . S
C174 C6 1.502 . S
C179 C20 1.499 . S
C184 C132 1.499 . S
C189 C34 1.501 . S
C194 C146 1.502 . S
C199 C48 1.501 . S
C204 C160 1.502 . S
C209 C90 1.503 . S
C214 C62 1.503 . S
C219 C76 1.501 . S
C224 C104 1.502 . S
C229 C7 1.573 . S
C234 C78 1.585 1_554 S
C239 C21 1.574 . S
C244 C8 1.585 1_655 S
C249 C35 1.574 . S
C254 C22 1.585 1_565 S
C259 C36 1.584 . S
C264 C49 1.574 . S
C269 C50 1.584 1_455 S
C274 C63 1.573 . S
C279 C64 1.585 1_545 S
C284 C77 1.573 . S
C289 C106 1.584 . S
C294 C91 1.573 . S
C299 C105 1.574 . S
C304 C120 1.585 1_656 S
C309 C134 1.585 1_565 S
C314 C119 1.574 . S
C319 C133 1.574 . S
C324 C148 1.585 . S
C329 C147 1.573 . S
C334 C162 1.585 1_455 S
C339 C161 1.573 . S
C344 C92 1.584 1_545 S
C349 C149 1.494 . S
C354 C9 1.494 . S
C359 C163 1.495 . S
C364 C23 1.494 . S
C369 C93 1.495 . S
C374 C37 1.494 . S
C379 C51 1.494 . S
C384 C107 1.494 . S
C389 C65 1.494 . S
C394 C121 1.495 . S
C399 C135 1.494 . S
C404 C79 1.495 . S
