# Generated by pormake.
# Topology unf, (4)-cn, num edge types: 1
# Building blocks:
#     Node 0, Type 0, BuildingBlock: NAHDIM_clean_sbu_0, # of connection points: 4
#     Node 1, Type 0, BuildingBlock: NAHDIM_clean_sbu_0, # of connection points: 4
#     Node 2, Type 0, BuildingBlock: NAHDIM_clean_sbu_0, # of connection points: 4
#     Node 3, Type 0, BuildingBlock: NAHDIM_clean_sbu_0, # of connection points: 4
#     Node 4, Type 0, BuildingBlock: NAHDIM_clean_sbu_0, # of connection points: 4
#     Node 5, Type 0, BuildingBlock: NAHDIM_clean_sbu_0, # of connection points: 4
#     Node 6, Type 0, BuildingBlock: NAHDIM_clean_sbu_0, # of connection points: 4
#     Node 7, Type 0, BuildingBlock: NAHDIM_clean_sbu_0, # of connection points: 4
#     Node 8, Type 0, BuildingBlock: NAHDIM_clean_sbu_0, # of connection points: 4
#     Node 9, Type 0, BuildingBlock: NAHDIM_clean_sbu_0, # of connection points: 4
#     Node 10, Type 0, BuildingBlock: NAHDIM_clean_sbu_0, # of connection points: 4
#     Node 11, Type 0, BuildingBlock: NAHDIM_clean_sbu_0, # of connection points: 4
#     Edge 12, Type (0, 0), BuildingBlock: CIFDUS_clean_linker_0, # of connection points: 2
#     Edge 13, Type (0, 0), BuildingBlock: CIFDUS_clean_linker_0, # of connection points: 2
#     Edge 14, Type (0, 0), BuildingBlock: CIFDUS_clean_linker_0, # of connection points: 2
#     Edge 15, Type (0, 0), BuildingBlock: CIFDUS_clean_linker_0, # of connection points: 2
#     Edge 16, Type (0, 0), BuildingBlock: CIFDUS_clean_linker_0, # of connection points: 2
#     Edge 17, Type (0, 0), BuildingBlock: CIFDUS_clean_linker_0, # of connection points: 2
#     Edge 18, Type (0, 0), BuildingBlock: CIFDUS_clean_linker_0, # of connection points: 2
#     Edge 19, Type (0, 0), BuildingBlock: CIFDUS_clean_linker_0, # of connection points: 2
#     Edge 20, Type (0, 0), BuildingBlock: CIFDUS_clean_linker_0, # of connection points: 2
#     Edge 21, Type (0, 0), BuildingBlock: CIFDUS_clean_linker_0, # of connection points: 2
#     Edge 22, Type (0, 0), BuildingBlock: CIFDUS_clean_linker_0, # of connection points: 2
#     Edge 23, Type (0, 0), BuildingBlock: CIFDUS_clean_linker_0, # of connection points: 2
#     Edge 24, Type (0, 0), BuildingBlock: CIFDUS_clean_linker_0, # of connection points: 2
#     Edge 25, Type (0, 0), BuildingBlock: CIFDUS_clean_linker_0, # of connection points: 2
#     Edge 26, Type (0, 0), BuildingBlock: CIFDUS_clean_linker_0, # of connection points: 2
#     Edge 27, Type (0, 0), BuildingBlock: CIFDUS_clean_linker_0, # of connection points: 2
#     Edge 28, Type (0, 0), BuildingBlock: CIFDUS_clean_linker_0, # of connection points: 2
#     Edge 29, Type (0, 0), BuildingBlock: CIFDUS_clean_linker_0, # of connection points: 2
#     Edge 30, Type (0, 0), BuildingBlock: CIFDUS_clean_linker_0, # of connection points: 2
#     Edge 31, Type (0, 0), BuildingBlock: CIFDUS_clean_linker_0, # of connection points: 2
#     Edge 32, Type (0, 0), BuildingBlock: CIFDUS_clean_linker_0, # of connection points: 2
#     Edge 33, Type (0, 0), BuildingBlock: CIFDUS_clean_linker_0, # of connection points: 2
#     Edge 34, Type (0, 0), BuildingBlock: CIFDUS_clean_linker_0, # of connection points: 2
#     Edge 35, Type (0, 0), BuildingBlock: CIFDUS_clean_linker_0, # of connection points: 2
# Relax obj value: 0.234
# Max RMSD: 0.177
# Mean RMSD: 0.177
data_MOF--net-unf--node1-NAHDIM_clean_sbu_0--edge1-CIFDUS_clean_linker_0
_symmetry_space_group_name_H-M    P1
_symmetry_Int_Tables_number       1
_symmetry_cell_setting            triclinic
loop_
_symmetry_equiv_pos_as_xyz
'x, y, z'
_cell_length_a     32.88545
_cell_length_b     32.984875
_cell_length_c     33.511822
_cell_angle_alpha  89.969311
_cell_angle_beta   90.209569
_cell_angle_gamma 119.91304
loop_
_atom_site_label
_atom_site_type_symbol
_atom_site_fract_x
_atom_site_fract_y
_atom_site_fract_z
_atom_type_partial_charge
C0 C 0.13015 0.40917 0.15114 0.0
O1 O 0.12991 0.44586 0.13615 0.0
O2 O 0.05411 0.41131 0.07473 0.0
Zn3 Zn 0.07331 0.3626 0.08184 0.0
O4 O 0.11558 0.36697 0.03681 0.0
C5 C 0.9839 0.29746 0.0536 0.0
O6 O -0.00644 0.33446 0.03207 0.0
O7 O 0.10739 0.36996 0.13352 0.0
C8 C 0.11092 0.33083 0.01911 0.0
O9 O 0.07761 0.28933 0.03045 0.0
C10 C 0.07225 0.44298 0.04828 0.0
O11 O 0.10927 0.44862 0.02874 0.0
O12 O 0.01393 0.30003 0.07896 0.0
C13 C 0.56285 0.71263 0.17354 0.0
O14 O 0.53097 0.70029 0.14532 0.0
O15 O 0.55228 0.62373 0.09655 0.0
Zn16 Zn 0.60762 0.68293 0.11636 0.0
O17 O 0.62172 0.7318 0.07494 0.0
C18 C 0.65738 0.63209 0.12477 0.0
O19 O 0.61545 0.59707 0.13303 0.0
O20 O 0.59736 0.70604 0.16833 0.0
C21 C 0.66277 0.7664 0.07051 0.0
O22 O 0.69651 0.77124 0.09462 0.0
C23 C 0.55859 0.61314 0.06152 0.0
O24 O 0.59792 0.6414 0.04306 0.0
O25 O 0.66264 0.67253 0.11916 0.0
C26 C 0.25464 0.84504 0.12818 0.0
O27 O 0.29385 0.84725 0.11672 0.0
O28 O 0.33198 0.91366 0.04991 0.0
Zn29 Zn 0.27095 0.90993 0.06313 0.0
O30 O 0.22554 0.87898 0.01816 0.0
C31 C 0.32053 0.0109 0.07336 0.0
O32 O 0.35808 0.00663 0.07595 0.0
O33 O 0.2406 0.87016 0.11094 0.0
C34 C 0.19238 0.88778 0.01326 0.0
O35 O 0.19054 0.91902 0.03632 0.0
C36 C 0.34965 0.92993 0.01597 0.0
O37 O 0.32668 0.94214 0.99108 0.0
O38 O 0.28044 0.97449 0.07006 0.0
C39 C 0.60938 0.88219 0.35884 0.0
O40 O 0.57175 0.88326 0.37023 0.0
O41 O 0.60346 0.95501 0.43919 0.0
Zn42 Zn 0.65771 0.94545 0.42631 0.0
O43 O 0.66897 0.91339 0.47235 0.0
C44 C 0.71326 0.0448 0.41499 0.0
O45 O 0.67203 0.04139 0.40999 0.0
O46 O 0.64779 0.90639 0.37751 0.0
C47 C 0.66028 0.91718 0.50866 0.0
O48 O 0.64244 0.94366 0.51831 0.0
C49 C 0.56586 0.92447 0.45572 0.0
O50 O 0.55949 0.8824 0.46219 0.0
O51 O 0.71566 0.00796 0.42047 0.0
C52 C 0.06681 0.68526 0.28982 0.0
O53 O 0.08761 0.67611 0.31917 0.0
O54 O -0.00622 0.61126 0.37584 0.0
Zn55 Zn 0.00839 0.67372 0.35351 0.0
O56 O 0.06336 0.72405 0.38291 0.0
C57 C 0.91346 0.64587 0.37036 0.0
O58 O 0.9087 0.60435 0.36452 0.0
O59 O 0.02731 0.68219 0.29628 0.0
C60 C 0.06138 0.74015 0.4168 0.0
O61 O 0.02063 0.72411 0.4345 0.0
C62 C 0.01692 0.60751 0.40465 0.0
O63 O 0.05563 0.64455 0.41674 0.0
O64 O 0.95294 0.68204 0.36389 0.0
C65 C 0.27126 0.39303 0.339 0.0
O66 O 0.28241 0.42773 0.364 0.0
O67 O 0.37006 0.41526 0.41164 0.0
Zn68 Zn 0.30359 0.3629 0.40441 0.0
O69 O 0.26183 0.37152 0.44285 0.0
C70 C 0.32188 0.30573 0.45291 0.0
O71 O 0.33615 0.34351 0.47481 0.0
O72 O 0.27896 0.36032 0.34911 0.0
C73 C 0.22839 0.33813 0.46155 0.0
O74 O 0.21916 0.29505 0.45524 0.0
C75 C 0.38023 0.44635 0.43827 0.0
O76 O 0.34617 0.44815 0.45702 0.0
O77 O 0.30427 0.30413 0.41871 0.0
C78 C 0.83031 0.61217 0.88512 0.0
O79 O 0.83888 0.64429 0.9122 0.0
O80 O 0.91006 0.55597 0.95196 0.0
Zn81 Zn 0.88733 0.60075 0.93935 0.0
O82 O 0.85088 0.60436 0.98593 0.0
C83 C 0.9808 0.66757 0.91494 0.0
O84 O 0.97918 0.63055 0.89868 0.0
O85 O 0.84784 0.58576 0.88983 0.0
C86 C 0.86901 0.63722 0.01148 0.0
O87 O 0.9133 0.66964 0.00816 0.0
C88 C 0.89375 0.52735 0.98084 0.0
O89 O 0.8568 0.5224 5e-05 0.0
O90 O 0.94466 0.66333 0.93236 0.0
C91 C 0.36922 0.23299 0.8333 0.0
O92 O 0.34116 0.20528 0.86123 0.0
O93 O 0.4226 0.36317 0.90664 0.0
Zn94 Zn 0.37854 0.29592 0.89266 0.0
O95 O 0.38713 0.25662 0.93408 0.0
C96 C 0.30199 0.31514 0.8884 0.0
O97 O 0.33456 0.35578 0.87468 0.0
O98 O 0.39065 0.27693 0.83914 0.0
C99 C 0.35814 0.23694 0.96232 0.0
O100 O 0.3216 0.24283 0.96522 0.0
C101 C 0.41366 0.3758 0.93976 0.0
O102 O 0.37758 0.34517 0.96058 0.0
O103 O 0.31233 0.28355 0.89563 0.0
C104 C 0.72515 0.09787 0.83299 0.0
O105 O 0.71684 0.12202 0.85964 0.0
O106 O 0.6239 0.02096 0.90228 0.0
Zn107 Zn 0.68999 0.03453 0.89615 0.0
O108 O 0.73121 0.08713 0.93301 0.0
C109 C 0.65989 0.93666 0.90474 0.0
O110 O 0.62438 0.93112 0.88265 0.0
O111 O 0.71405 0.05592 0.84093 0.0
C112 C 0.75477 0.0841 0.96181 0.0
O113 O 0.75123 0.04355 0.97012 0.0
C114 C 0.60547 0.00486 0.93604 0.0
O115 O 0.6306 -0.00093 0.96365 0.0
O116 O 0.6932 0.97773 0.91192 0.0
C117 C 0.3689 0.08577 0.64466 0.0
O118 O 0.39583 0.11311 0.61603 0.0
O119 O 0.38981 0.01355 0.56446 0.0
Zn120 Zn 0.33631 0.02345 0.57965 0.0
O121 O 0.33702 0.07482 0.547 0.0
C122 C 0.2754 0.93891 0.54005 0.0
O123 O 0.31497 0.95085 0.5216 0.0
O124 O 0.34054 0.04297 0.63689 0.0
C125 C 0.32192 0.07147 0.51151 0.0
O126 O 0.30508 0.03156 0.49232 0.0
C127 C 0.42414 0.0423 0.54333 0.0
O128 O 0.42781 0.08262 0.53377 0.0
O129 O 0.27537 0.96452 0.56834 0.0
C130 C 0.88636 0.26047 0.657 0.0
O131 O 0.89197 0.23547 0.62934 0.0
O132 O 0.95596 0.39166 0.58448 0.0
Zn133 Zn 0.9354 0.32503 0.5985 0.0
O134 O 0.88833 0.28426 0.55736 0.0
C135 C 0.03168 0.34786 0.59039 0.0
O136 O 0.03979 0.39092 0.59393 0.0
O137 O 0.90439 0.30425 0.65168 0.0
C138 C 0.89981 0.27224 0.52523 0.0
O139 O 0.94416 0.2863 0.51821 0.0
C140 C 0.92997 0.39994 0.56176 0.0
O141 O 0.88746 0.36598 0.55332 0.0
O142 O -0.00999 0.31411 0.59401 0.0
C143 C 0.71654 0.58893 0.67028 0.0
O144 O 0.71474 0.56323 0.63965 0.0
O145 O 0.62851 0.60103 0.59309 0.0
Zn146 Zn 0.69631 0.63822 0.60999 0.0
O147 O 0.73549 0.62774 0.57008 0.0
C148 C 0.68937 0.72189 0.61804 0.0
O149 O 0.65057 0.69427 0.63743 0.0
O150 O 0.7082 0.62225 0.66487 0.0
C151 C 0.74508 0.64944 0.53703 0.0
O152 O 0.73054 0.67939 0.53025 0.0
C153 C 0.61632 0.5707 0.56547 0.0
O154 O 0.64715 0.56028 0.5513 0.0
O155 O 0.71529 0.70585 0.60641 0.0
H156 H 0.11805 0.26083 0.98327 0.0
H157 H 0.18061 0.41113 0.98597 0.0
H158 H 0.24205 0.41906 0.94063 0.0
H159 H 0.28251 0.38383 0.90621 0.0
H160 H 0.22249 0.23387 0.90687 0.0
H161 H 0.15506 0.22527 0.9443 0.0
C162 C 0.14479 0.29532 0.9736 0.0
C163 C 0.14508 0.33532 0.98841 0.0
C164 C 0.18052 0.29969 0.94814 0.0
C165 C 0.17986 0.37974 0.97537 0.0
C166 C 0.21501 0.38434 0.94941 0.0
C167 C 0.25419 0.34921 0.91377 0.0
C168 C 0.25758 0.30956 0.904 0.0
C169 C 0.21634 0.34462 0.93642 0.0
C170 C 0.22076 0.26495 0.91426 0.0
C171 C 0.18232 0.26001 0.9358 0.0
H172 H 0.6051 0.75889 0.0094 0.0
H173 H 0.74143 0.85158 0.0604 0.0
H174 H 0.75455 0.91084 0.01049 0.0
H175 H 0.72489 0.93829 0.95587 0.0
H176 H 0.588 0.84608 0.90554 0.0
H177 H 0.57796 0.78422 0.95136 0.0
C178 C 0.63778 0.79199 0.00954 0.0
C179 C 0.67197 0.8011 0.0389 0.0
C180 C 0.64505 0.82587 0.98085 0.0
C181 C 0.7144 0.84384 0.03828 0.0
C182 C 0.72194 0.87773 0.00977 0.0
C183 C 0.69307 0.90448 0.95451 0.0
C184 C 0.65703 0.89701 0.92759 0.0
C185 C 0.68717 0.86939 0.98137 0.0
C186 C 0.61622 0.85285 0.92606 0.0
C187 C 0.61033 0.81753 0.9524 0.0
H188 H 0.18455 0.8197 0.9628 0.0
H189 H 0.10967 0.88758 0.00551 0.0
H190 H 0.03813 0.82805 0.9732 0.0
H191 H -0.00538 0.75104 0.94162 0.0
H192 H 0.06872 0.68174 0.90057 0.0
H193 H 0.14295 0.74802 0.9228 0.0
C194 C 0.15279 0.82193 0.96448 0.0
C195 C 0.15219 0.85742 0.98727 0.0
C196 C 0.11154 0.78714 0.9464 0.0
C197 C 0.11098 0.86029 0.98859 0.0
C198 C 0.06996 0.82616 0.97022 0.0
C199 C 0.02711 0.75077 0.93689 0.0
C200 C 0.02607 0.71116 0.92024 0.0
C201 C 0.06946 0.78851 0.95042 0.0
C202 C 0.0685 0.71165 0.91365 0.0
C203 C 0.11095 0.74943 0.92655 0.0
H204 H 0.63957 0.76607 0.6331 0.0
H205 H 0.75769 0.77924 0.56627 0.0
H206 H 0.76164 0.84427 0.52886 0.0
H207 H 0.72526 0.8903 0.509 0.0
H208 H 0.60831 0.87909 0.57579 0.0
H209 H 0.61045 0.82068 0.6196 0.0
C210 C 0.66672 0.78373 0.61088 0.0
C211 C 0.6976 0.76711 0.60197 0.0
C212 C 0.66868 0.82109 0.58914 0.0
C213 C 0.73305 0.79087 0.57349 0.0
C214 C 0.73528 0.82801 0.55188 0.0
C215 C 0.70069 0.87548 0.53352 0.0
C216 C 0.66621 0.88815 0.53889 0.0
C217 C 0.70222 0.8422 0.55845 0.0
C218 C 0.63507 0.86958 0.5711 0.0
C219 C 0.63615 0.83608 0.59599 0.0
H220 H 0.07108 0.7864 0.48684 0.0
H221 H 0.15045 0.77222 0.39078 0.0
H222 H 0.22333 0.83021 0.42195 0.0
H223 H 0.26454 0.88648 0.47484 0.0
H224 H 0.18671 0.90359 0.57043 0.0
H225 H 0.1132 0.84245 0.54124 0.0
C226 C 0.10433 0.79597 0.47281 0.0
C227 C 0.10522 0.77516 0.43644 0.0
C228 C 0.14638 0.82971 0.4908 0.0
C229 C 0.14863 0.78786 0.41865 0.0
C230 C 0.19042 0.82097 0.43648 0.0
C231 C 0.23159 0.87671 0.48956 0.0
C232 C 0.2311 0.89962 0.52469 0.0
C233 C 0.18967 0.84229 0.47234 0.0
C234 C 0.18803 0.88649 0.54328 0.0
C235 C 0.14599 0.85164 0.52656 0.0
H236 H 0.11726 0.41167 0.56221 0.0
H237 H 0.02774 0.26356 0.58206 0.0
H238 H 0.08262 0.24764 0.54595 0.0
H239 H 0.15219 0.27527 0.50356 0.0
H240 H 0.23986 0.42329 0.48179 0.0
H241 H 0.18943 0.43963 0.52384 0.0
C242 C 0.11007 0.37594 0.55923 0.0
C243 C 0.06831 0.33887 0.57453 0.0
C244 C 0.14113 0.36693 0.53761 0.0
C245 C 0.05956 0.29277 0.57037 0.0
C246 C 0.09081 0.28359 0.54958 0.0
C247 C 0.16046 0.31112 0.50823 0.0
C248 C 0.1994 0.3479 0.48916 0.0
C249 C 0.13105 0.32031 0.53216 0.0
C250 C 0.20982 0.39422 0.49578 0.0
C251 C 0.18105 0.40366 0.51989 0.0
H252 H 0.74978 0.69574 0.11694 0.0
H253 H 0.65001 0.54833 0.10554 0.0
H254 H 0.70899 0.53603 0.07252 0.0
H255 H 0.78528 0.56897 0.03908 0.0
H256 H 0.88519 0.71626 0.05072 0.0
H257 H 0.82988 0.7267 0.09179 0.0
C258 C 0.74123 0.66078 0.10789 0.0
C259 C 0.69543 0.62317 0.11307 0.0
C260 C 0.77513 0.65403 0.08855 0.0
C261 C 0.68498 0.57794 0.10176 0.0
C262 C 0.71859 0.57091 0.0826 0.0
C263 C 0.79513 0.60322 0.05107 0.0
C264 C 0.83881 0.64194 0.04133 0.0
C265 C 0.76318 0.60898 0.07457 0.0
C266 C 0.8516 0.68596 0.05762 0.0
C267 C 0.81994 0.692 0.08097 0.0
H268 H 0.29324 0.1753 0.01374 0.0
H269 H 0.43326 0.22347 0.96986 0.0
H270 H 0.43672 0.16129 0.0065 0.0
H271 H 0.39622 0.08768 0.04365 0.0
H272 H 0.25396 0.03614 0.08293 0.0
H273 H 0.25546 0.10575 0.05613 0.0
C274 C 0.32481 0.17268 0.01268 0.0
C275 C 0.36267 0.20355 0.9887 0.0
C276 C 0.32608 0.13612 0.03292 0.0
C277 C 0.40338 0.19976 0.98774 0.0
C278 C 0.40541 0.16423 0.00868 0.0
C279 C 0.36597 0.09225 0.04722 0.0
C280 C 0.32495 0.05679 0.06498 0.0
C281 C 0.36643 0.13138 0.03034 0.0
C282 C 0.28586 0.06294 0.06913 0.0
C283 C 0.28661 0.10258 0.05366 0.0
H284 H 0.90782 0.28636 0.01357 0.0
H285 H 0.96211 0.20903 0.07627 0.0
H286 H 0.89305 0.13532 0.05638 0.0
H287 H 0.82097 0.09331 0.01597 0.0
H288 H 0.76846 0.17203 0.95262 0.0
H289 H 0.83303 0.2448 0.97837 0.0
C290 C 0.90444 0.2534 0.02315 0.0
C291 C 0.94023 0.25306 0.04585 0.0
C292 C 0.86507 0.21143 0.01138 0.0
C293 C 0.93503 0.21014 0.05861 0.0
C294 C 0.89566 0.16803 0.04714 0.0
C295 C 0.8233 0.12634 0.00824 0.0
C296 C 0.79026 0.12721 0.98199 0.0
C297 C 0.86097 0.16828 0.02276 0.0
C298 C 0.79365 0.17031 0.97245 0.0
C299 C 0.83062 0.21202 0.9871 0.0
H300 H 0.35263 0.15671 0.54451 0.0
H301 H 0.28849 0.0766 0.43769 0.0
H302 H 0.28331 0.14239 0.40965 0.0
H303 H 0.2952 0.22206 0.41647 0.0
H304 H 0.35872 0.30066 0.52418 0.0
H305 H 0.36575 0.23581 0.55083 0.0
C306 C 0.33765 0.15355 0.515 0.0
C307 C 0.32085 0.11174 0.4933 0.0
C308 C 0.33445 0.19118 0.49928 0.0
C309 C 0.30166 0.10841 0.45507 0.0
C310 C 0.2986 0.14597 0.43904 0.0
C311 C 0.31062 0.22498 0.44573 0.0
C312 C 0.32624 0.26611 0.46832 0.0
C313 C 0.31455 0.18741 0.46104 0.0
C314 C 0.34625 0.26939 0.50616 0.0
C315 C 0.35036 0.23234 0.52148 0.0
H316 H 0.90463 0.21032 0.47522 0.0
H317 H 0.81197 0.25898 0.51569 0.0
H318 H 0.74696 0.1964 0.47855 0.0
H319 H 0.71449 0.12237 0.4423 0.0
H320 H 0.80514 0.06891 0.40772 0.0
H321 H 0.87317 0.13928 0.4341 0.0
C322 C 0.8704 0.20768 0.47522 0.0
C323 C 0.86283 0.23878 0.49833 0.0
C324 C 0.83283 0.17061 0.45504 0.0
C325 C 0.81835 0.23498 0.49839 0.0
C326 C 0.78123 0.19927 0.47718 0.0
C327 C 0.74929 0.12664 0.43967 0.0
C328 C 0.7549 0.09057 0.42332 0.0
C329 C 0.78773 0.16604 0.4565 0.0
C330 C 0.80007 0.09626 0.42043 0.0
C331 C 0.83888 0.13633 0.43564 0.0
H332 H 0.85252 0.58381 0.42297 0.0
H333 H 0.89667 0.71899 0.37077 0.0
H334 H 0.84548 0.73076 0.41649 0.0
H335 H 0.79304 0.70493 0.47463 0.0
H336 H 0.75507 0.5727 0.53023 0.0
H337 H 0.79928 0.55747 0.4799 0.0
C338 C 0.85022 0.61545 0.42106 0.0
C339 C 0.8779 0.65036 0.39342 0.0
C340 C 0.82245 0.62275 0.44845 0.0
C341 C 0.87541 0.6916 0.39178 0.0
C342 C 0.8464 0.6984 0.41801 0.0
C343 C 0.79424 0.67267 0.47552 0.0
C344 C 0.77108 0.64008 0.50612 0.0
C345 C 0.82058 0.66463 0.44704 0.0
C346 C 0.77305 0.59853 0.50715 0.0
C347 C 0.79812 0.5897 0.47831 0.0
H348 H 0.25162 0.45775 0.30852 0.0
H349 H 0.23465 0.32146 0.28486 0.0
H350 H 0.1892 0.3144 0.22491 0.0
H351 H 0.15279 0.34604 0.18011 0.0
H352 H 0.17073 0.48281 0.20303 0.0
H353 H 0.21718 0.49042 0.26254 0.0
C354 C 0.23819 0.42657 0.29018 0.0
C355 C 0.24643 0.39014 0.30128 0.0
C356 C 0.21201 0.42268 0.25577 0.0
C357 C 0.22888 0.35007 0.27704 0.0
C358 C 0.20273 0.34591 0.2428 0.0
C359 C 0.16673 0.37748 0.19817 0.0
C360 C 0.15804 0.41368 0.18729 0.0
C361 C 0.19376 0.38182 0.23209 0.0
C362 C 0.17683 0.45439 0.21077 0.0
C363 C 0.20341 0.45879 0.2448 0.0
H364 H 0.6333 0.76059 0.22632 0.0
H365 H 0.49101 0.72542 0.19912 0.0
H366 H 0.49245 0.77446 0.25451 0.0
H367 H 0.53526 0.82925 0.30945 0.0
H368 H 0.67858 0.86569 0.33418 0.0
H369 H 0.67554 0.81438 0.28074 0.0
C370 C 0.60238 0.76323 0.23266 0.0
C371 C 0.56207 0.73928 0.20869 0.0
C372 C 0.60377 0.79208 0.2639 0.0
C373 C 0.52251 0.7435 0.21715 0.0
C374 C 0.52335 0.77162 0.24874 0.0
C375 C 0.5658 0.82595 0.30313 0.0
C376 C 0.60708 0.85141 0.32579 0.0
C377 C 0.56399 0.79646 0.27207 0.0
C378 C 0.64637 0.84672 0.31717 0.0
C379 C 0.64469 0.81725 0.28666 0.0
H380 H 0.16213 0.81163 0.1403 0.0
H381 H 0.28053 0.80213 0.18448 0.0
H382 H 0.23123 0.74774 0.23642 0.0
H383 H 0.15577 0.70686 0.27137 0.0
H384 H 0.03759 0.71656 0.22653 0.0
H385 H 0.08551 0.76626 0.17204 0.0
C386 C 0.17721 0.79772 0.16132 0.0
C387 C 0.22504 0.8114 0.15901 0.0
C388 C 0.14867 0.76628 0.1907 0.0
C389 C 0.24385 0.79234 0.18589 0.0
C390 C 0.21569 0.76124 0.21551 0.0
C391 C 0.14026 0.71927 0.24938 0.0
C392 C 0.09327 0.70837 0.25328 0.0
C393 C 0.16819 0.74841 0.21845 0.0
C394 C 0.0737 0.72456 0.22436 0.0
C395 C 0.10115 0.75322 0.19332 0.0
H396 H 0.81056 0.55417 0.82097 0.0
H397 H 0.78889 0.66383 0.86799 0.0
H398 H 0.7489 0.66386 0.80675 0.0
H399 H 0.72434 0.63645 0.73854 0.0
H400 H 0.74654 0.52768 0.6904 0.0
H401 H 0.78153 0.52331 0.75355 0.0
C402 C 0.79677 0.57781 0.81792 0.0
C403 C 0.80312 0.60921 0.84891 0.0
C404 C 0.77397 0.57793 0.78241 0.0
C405 C 0.78483 0.63948 0.84454 0.0
C406 C 0.76191 0.63957 0.8095 0.0
C407 C 0.73645 0.61148 0.74189 0.0
C408 C 0.73317 0.58274 0.70966 0.0
C409 C 0.75695 0.60949 0.77804 0.0
C410 C 0.74878 0.55037 0.71468 0.0
C411 C 0.76893 0.54793 0.75076 0.0
H412 H 0.33122 0.14115 0.81469 0.0
H413 H 0.42257 0.27975 0.76854 0.0
H414 H 0.43264 0.24611 0.70697 0.0
H415 H 0.41349 0.17752 0.66559 0.0
H416 H 0.32099 0.03903 0.71145 0.0
H417 H 0.31382 0.07263 0.77412 0.0
C418 C 0.3534 0.16408 0.79121 0.0
C419 C 0.37592 0.21291 0.79614 0.0
C420 C 0.35895 0.14455 0.75594 0.0
C421 C 0.4047 0.24205 0.76547 0.0
C422 C 0.41052 0.22285 0.73027 0.0
C423 C 0.39209 0.15461 0.6894 0.0
C424 C 0.36774 0.10582 0.68379 0.0
C425 C 0.38759 0.17416 0.72512 0.0
C426 C 0.34003 0.0767 0.71494 0.0
C427 C 0.33582 0.09588 0.75075 0.0
H428 H 0.76742 0.19014 0.81482 0.0
H429 H 0.74271 0.05723 0.76935 0.0
H430 H 0.79067 0.09615 0.71096 0.0
H431 H 0.84081 0.16783 0.67378 0.0
H432 H 0.86651 0.30096 0.71958 0.0
H433 H 0.81704 0.26186 0.77723 0.0
C434 C 0.77219 0.16959 0.79201 0.0
C435 C 0.75148 0.12084 0.7964 0.0
C436 C 0.80026 0.19223 0.75882 0.0
C437 C 0.75828 0.0948 0.76668 0.0
C438 C 0.78578 0.11703 0.73335 0.0
C439 C 0.83571 0.18839 0.69638 0.0
C440 C 0.85743 0.23727 0.69243 0.0
C441 C 0.80723 0.16573 0.72932 0.0
C442 C 0.8503 0.2633 0.72195 0.0
C443 C 0.82194 0.24097 0.75486 0.0
H444 H 0.98434 0.42272 0.06901 0.0
H445 H 0.10204 0.51531 0.99551 0.0
H446 H 0.05637 0.54828 0.96703 0.0
H447 H 0.98263 0.54947 0.9619 0.0
H448 H 0.86496 0.45695 0.03544 0.0
H449 H 0.91099 0.42469 0.06459 0.0
C450 C 0.00027 0.45051 0.04711 0.0
C451 C 0.04662 0.46662 0.03448 0.0
C452 C 0.97361 0.46876 0.03042 0.0
C453 C 0.06649 0.50234 0.00581 0.0
C454 C 0.04032 0.52103 0.98935 0.0
C455 C 0.96685 0.52195 0.98405 0.0
C456 C 0.9203 0.50539 0.99629 0.0
C457 C -0.00631 0.50409 0.00109 0.0
C458 C 0.90066 0.47017 0.0254 0.0
C459 C 0.92701 0.45187 0.04221 0.0
H460 H 0.56525 0.58083 0.98898 0.0
H461 H 0.47538 0.54478 0.09209 0.0
H462 H 0.42163 0.46873 0.06245 0.0
H463 H 0.40215 0.41157 0.00876 0.0
H464 H 0.49276 0.44715 0.90619 0.0
H465 H 0.54435 0.5247 0.93425 0.0
C466 C 0.53378 0.55649 0.00494 0.0
C467 C 0.52443 0.56837 0.04278 0.0
C468 C 0.50334 0.51279 0.98793 0.0
C469 C 0.48344 0.53645 0.06296 0.0
C470 C 0.45275 0.49296 0.04607 0.0
C471 C 0.43308 0.4363 0.99241 0.0
C472 C 0.44377 0.4235 0.95555 0.0
C473 C 0.46267 0.4806 0.00881 0.0
C474 C 0.48384 0.45607 0.93469 0.0
C475 C 0.51336 0.50039 0.95072 0.0
H476 H 0.39823 0.96736 0.94765 0.0
H477 H 0.40749 0.91198 0.06201 0.0
H478 H 0.48727 0.92988 0.047 0.0
H479 H 0.55491 0.96296 0.00231 0.0
H480 H 0.546 0.01846 0.88795 0.0
H481 H 0.46539 -0.00127 0.90216 0.0
C482 C 0.41759 0.95899 0.96923 0.0
C483 C 0.39697 0.93848 0.00592 0.0
C484 C 0.46352 0.96955 0.96051 0.0
C485 C 0.42254 0.92781 0.03353 0.0
C486 C 0.4682 0.9381 0.02503 0.0
C487 C 0.53538 0.97076 0.98045 0.0
C488 C 0.5565 -0.00765 0.94422 0.0
C489 C 0.48913 0.9593 0.98876 0.0
C490 C 0.53058 0.00193 0.91612 0.0
C491 C 0.48449 -0.00933 0.92421 0.0
H492 H 0.57514 0.01102 0.45493 0.0
H493 H 0.48316 0.86939 0.49441 0.0
H494 H 0.43205 0.89384 0.52607 0.0
H495 H 0.41415 0.95547 0.54325 0.0
H496 H 0.50596 0.09698 0.50348 0.0
H497 H 0.55687 0.07246 0.47154 0.0
C498 C 0.54375 0.98535 0.47021 0.0
C499 C 0.53298 0.93839 0.47224 0.0
C500 C 0.5148 -0.0003 0.48864 0.0
C501 C 0.49224 0.90572 0.49231 0.0
C502 C 0.46309 0.9197 0.51057 0.0
C503 C 0.44548 0.98107 0.52786 0.0
C504 C 0.45638 0.02807 0.52595 0.0
C505 C 0.47425 0.96665 0.50918 0.0
C506 C 0.49683 0.06063 0.50549 0.0
C507 C 0.52588 0.04662 0.48712 0.0
H508 H 0.89604 0.41616 0.4937 0.0
H509 H 0.01117 0.48147 0.57739 0.0
H510 H 0.04934 0.55096 0.53508 0.0
H511 H 0.05049 0.59229 0.47384 0.0
H512 H 0.93588 0.52575 0.38963 0.0
H513 H 0.89743 0.45706 0.43246 0.0
C514 C 0.92919 0.44581 0.50299 0.0
C515 C 0.95058 0.44385 0.53876 0.0
C516 C 0.9514 0.48503 0.47814 0.0
C517 C -0.0061 0.48228 0.55005 0.0
C518 C 0.01585 0.52186 0.52578 0.0
C519 C 0.0173 0.56262 0.46464 0.0
C520 C -0.00382 0.56416 0.42852 0.0
C521 C -0.00486 0.52338 0.48956 0.0
C522 C 0.95304 0.52546 0.4172 0.0
C523 C 0.93085 0.48626 0.44178 0.0
H524 H 0.41034 0.50113 0.5045 0.0
H525 H 0.45875 0.44958 0.40787 0.0
H526 H 0.53597 0.48324 0.43918 0.0
H527 H 0.58827 0.52356 0.49549 0.0
H528 H 0.54016 0.57508 0.5923 0.0
H529 H 0.46387 0.54455 0.5595 0.0
C530 C 0.43792 0.49777 0.48996 0.0
C531 C 0.42868 0.47271 0.45395 0.0
C532 C 0.48199 0.51649 0.50846 0.0
C533 C 0.46487 0.46865 0.43561 0.0
C534 C 0.50897 0.48764 0.45361 0.0
C535 C 0.56105 0.52794 0.50956 0.0
C536 C 0.56967 0.55108 0.54649 0.0
C537 C 0.51759 0.51081 0.49038 0.0
C538 C 0.53427 0.5571 0.56399 0.0
C539 C 0.49073 0.53982 0.5452 0.0
loop_
_geom_bond_atom_site_label_1
_geom_bond_atom_site_label_2
_geom_bond_distance
_geom_bond_site_symmetry_2
_ccdc_geom_bond_type
C0 O1 1.160 . S
C0 O7 1.185 . S
O1 C0 1.160 . S
O2 Zn3 1.899 . S
O2 C10 1.284 . S
Zn3 O2 1.899 . S
Zn3 O4 2.032 . S
Zn3 O7 2.086 . S
Zn3 O12 1.977 1_455 S
O4 Zn3 2.032 . S
O4 C8 1.278 . S
C5 O6 1.203 . S
C5 O12 1.267 . S
O6 C5 1.203 . S
O7 C0 1.185 . S
O7 Zn3 2.086 . S
C8 O4 1.278 . S
C8 O9 1.211 . S
O9 C8 1.211 . S
C10 O2 1.284 . S
C10 O11 1.273 . S
O11 C10 1.273 . S
O12 Zn3 1.977 1_655 S
O12 C5 1.267 . S
C13 O14 1.160 . S
C13 O20 1.185 . S
O14 C13 1.160 . S
O15 Zn16 1.899 . S
O15 C23 1.284 . S
Zn16 O15 1.899 . S
Zn16 O17 2.032 . S
Zn16 O20 2.086 . S
Zn16 O25 1.977 . S
O17 Zn16 2.032 . S
O17 C21 1.278 . S
C18 O19 1.203 . S
C18 O25 1.267 . S
O19 C18 1.203 . S
O20 C13 1.185 . S
O20 Zn16 2.086 . S
C21 O17 1.278 . S
C21 O22 1.211 . S
O22 C21 1.211 . S
C23 O15 1.284 . S
C23 O24 1.273 . S
O24 C23 1.273 . S
O25 Zn16 1.977 . S
O25 C18 1.267 . S
C26 O27 1.160 . S
C26 O33 1.185 . S
O27 C26 1.160 . S
O28 Zn29 1.899 . S
O28 C36 1.284 . S
Zn29 O28 1.899 . S
Zn29 O30 2.032 . S
Zn29 O33 2.086 . S
Zn29 O38 1.977 1_565 S
O30 Zn29 2.032 . S
O30 C34 1.278 . S
C31 O32 1.203 . S
C31 O38 1.267 . S
O32 C31 1.203 . S
O33 C26 1.185 . S
O33 Zn29 2.086 . S
C34 O30 1.278 . S
C34 O35 1.211 . S
O35 C34 1.211 . S
C36 O28 1.284 . S
C36 O37 1.273 . S
O37 C36 1.273 . S
O38 Zn29 1.977 1_545 S
O38 C31 1.267 . S
C39 O40 1.160 . S
C39 O46 1.185 . S
O40 C39 1.160 . S
O41 Zn42 1.899 . S
O41 C49 1.284 . S
Zn42 O41 1.899 . S
Zn42 O43 2.032 . S
Zn42 O46 2.086 . S
Zn42 O51 1.977 1_565 S
O43 Zn42 2.032 . S
O43 C47 1.278 . S
C44 O45 1.203 . S
C44 O51 1.267 . S
O45 C44 1.203 . S
O46 C39 1.185 . S
O46 Zn42 2.086 . S
C47 O43 1.278 . S
C47 O48 1.211 . S
O48 C47 1.211 . S
C49 O41 1.284 . S
C49 O50 1.273 . S
O50 C49 1.273 . S
O51 Zn42 1.977 1_545 S
O51 C44 1.267 . S
C52 O53 1.160 . S
C52 O59 1.185 . S
O53 C52 1.160 . S
O54 Zn55 1.899 . S
O54 C62 1.284 . S
Zn55 O54 1.899 . S
Zn55 O56 2.032 . S
Zn55 O59 2.086 . S
Zn55 O64 1.977 1_455 S
O56 Zn55 2.032 . S
O56 C60 1.278 . S
C57 O58 1.203 . S
C57 O64 1.267 . S
O58 C57 1.203 . S
O59 C52 1.185 . S
O59 Zn55 2.086 . S
C60 O56 1.278 . S
C60 O61 1.211 . S
O61 C60 1.211 . S
C62 O54 1.284 . S
C62 O63 1.273 . S
O63 C62 1.273 . S
O64 Zn55 1.977 1_655 S
O64 C57 1.267 . S
C65 O66 1.160 . S
C65 O72 1.185 . S
O66 C65 1.160 . S
O67 Zn68 1.899 . S
O67 C75 1.284 . S
Zn68 O67 1.899 . S
Zn68 O69 2.032 . S
Zn68 O72 2.086 . S
Zn68 O77 1.977 . S
O69 Zn68 2.032 . S
O69 C73 1.278 . S
C70 O71 1.203 . S
C70 O77 1.267 . S
O71 C70 1.203 . S
O72 C65 1.185 . S
O72 Zn68 2.086 . S
C73 O69 1.278 . S
C73 O74 1.211 . S
O74 C73 1.211 . S
C75 O67 1.284 . S
C75 O76 1.273 . S
O76 C75 1.273 . S
O77 Zn68 1.977 . S
O77 C70 1.267 . S
C78 O79 1.160 . S
C78 O85 1.185 . S
O79 C78 1.160 . S
O80 Zn81 1.899 . S
O80 C88 1.284 . S
Zn81 O80 1.899 . S
Zn81 O82 2.032 . S
Zn81 O85 2.086 . S
Zn81 O90 1.977 1_655 S
O82 Zn81 2.032 . S
O82 C86 1.278 . S
C83 O84 1.203 . S
C83 O90 1.267 . S
O84 C83 1.203 . S
O85 C78 1.185 . S
O85 Zn81 2.086 . S
C86 O82 1.278 . S
C86 O87 1.211 . S
O87 C86 1.211 . S
C88 O80 1.284 . S
C88 O89 1.273 . S
O89 C88 1.273 . S
O90 Zn81 1.977 1_455 S
O90 C83 1.267 . S
C91 O92 1.160 . S
C91 O98 1.185 . S
O92 C91 1.160 . S
O93 Zn94 1.899 . S
O93 C101 1.284 . S
Zn94 O93 1.899 . S
Zn94 O95 2.032 . S
Zn94 O98 2.086 . S
Zn94 O103 1.977 . S
O95 Zn94 2.032 . S
O95 C99 1.278 . S
C96 O97 1.203 . S
C96 O103 1.267 . S
O97 C96 1.203 . S
O98 C91 1.185 . S
O98 Zn94 2.086 . S
C99 O95 1.278 . S
C99 O100 1.211 . S
O100 C99 1.211 . S
C101 O93 1.284 . S
C101 O102 1.273 . S
O102 C101 1.273 . S
O103 Zn94 1.977 . S
O103 C96 1.267 . S
C104 O105 1.160 . S
C104 O111 1.185 . S
O105 C104 1.160 . S
O106 Zn107 1.899 . S
O106 C114 1.284 . S
Zn107 O106 1.899 . S
Zn107 O108 2.032 . S
Zn107 O111 2.086 . S
Zn107 O116 1.977 1_545 S
O108 Zn107 2.032 . S
O108 C112 1.278 . S
C109 O110 1.203 . S
C109 O116 1.267 . S
O110 C109 1.203 . S
O111 C104 1.185 . S
O111 Zn107 2.086 . S
C112 O108 1.278 . S
C112 O113 1.211 . S
O113 C112 1.211 . S
C114 O106 1.284 . S
C114 O115 1.273 . S
O115 C114 1.273 . S
O116 Zn107 1.977 1_565 S
O116 C109 1.267 . S
C117 O118 1.160 . S
C117 O124 1.185 . S
O118 C117 1.160 . S
O119 Zn120 1.899 . S
O119 C127 1.284 . S
Zn120 O119 1.899 . S
Zn120 O121 2.032 . S
Zn120 O124 2.086 . S
Zn120 O129 1.977 1_545 S
O121 Zn120 2.032 . S
O121 C125 1.278 . S
C122 O123 1.203 . S
C122 O129 1.267 . S
O123 C122 1.203 . S
O124 C117 1.185 . S
O124 Zn120 2.086 . S
C125 O121 1.278 . S
C125 O126 1.211 . S
O126 C125 1.211 . S
C127 O119 1.284 . S
C127 O128 1.273 . S
O128 C127 1.273 . S
O129 Zn120 1.977 1_565 S
O129 C122 1.267 . S
C130 O131 1.160 . S
C130 O137 1.185 . S
O131 C130 1.160 . S
O132 Zn133 1.899 . S
O132 C140 1.284 . S
Zn133 O132 1.899 . S
Zn133 O134 2.032 . S
Zn133 O137 2.086 . S
Zn133 O142 1.977 1_655 S
O134 Zn133 2.032 . S
O134 C138 1.278 . S
C135 O136 1.203 . S
C135 O142 1.267 . S
O136 C135 1.203 . S
O137 C130 1.185 . S
O137 Zn133 2.086 . S
C138 O134 1.278 . S
C138 O139 1.211 . S
O139 C138 1.211 . S
C140 O132 1.284 . S
C140 O141 1.273 . S
O141 C140 1.273 . S
O142 Zn133 1.977 1_455 S
O142 C135 1.267 . S
C143 O144 1.160 . S
C143 O150 1.185 . S
O144 C143 1.160 . S
O145 Zn146 1.899 . S
O145 C153 1.284 . S
Zn146 O145 1.899 . S
Zn146 O147 2.032 . S
Zn146 O150 2.086 . S
Zn146 O155 1.977 . S
O147 Zn146 2.032 . S
O147 C151 1.278 . S
C148 O149 1.203 . S
C148 O155 1.267 . S
O149 C148 1.203 . S
O150 C143 1.185 . S
O150 Zn146 2.086 . S
C151 O147 1.278 . S
C151 O152 1.211 . S
O152 C151 1.211 . S
C153 O145 1.284 . S
C153 O154 1.273 . S
O154 C153 1.273 . S
O155 Zn146 1.977 . S
O155 C148 1.267 . S
H156 C162 0.930 . S
H157 C165 0.930 . S
H158 C166 0.930 . S
H159 C167 0.930 . S
H160 C170 0.930 . S
H161 C171 0.930 . S
C162 H156 0.930 . S
C162 C163 1.355 . S
C162 C164 1.415 1_554 S
C163 C162 1.355 . S
C163 C165 1.419 . S
C164 C162 1.415 1_556 S
C164 C169 1.425 . S
C164 C171 1.409 . S
C165 H157 0.930 . S
C165 C163 1.419 . S
C165 C166 1.362 . S
C166 H158 0.930 . S
C166 C165 1.362 . S
C166 C169 1.409 1_554 S
C167 H159 0.930 . S
C167 C168 1.355 . S
C167 C169 1.415 . S
C168 C167 1.355 . S
C168 C170 1.419 . S
C169 C164 1.425 . S
C169 C166 1.409 1_556 S
C169 C167 1.415 . S
C170 H160 0.930 . S
C170 C168 1.419 . S
C170 C171 1.362 . S
C171 H161 0.930 . S
C171 C164 1.409 . S
C171 C170 1.362 . S
H172 C178 0.930 . S
H173 C181 0.930 . S
H174 C182 0.930 . S
H175 C183 0.930 . S
H176 C186 0.930 . S
H177 C187 0.930 1_554 S
C178 H172 0.930 . S
C178 C179 1.355 . S
C178 C180 1.415 1_554 S
C179 C178 1.355 . S
C179 C181 1.419 . S
C180 C178 1.415 1_556 S
C180 C185 1.425 . S
C180 C187 1.409 . S
C181 H173 0.930 . S
C181 C179 1.419 . S
C181 C182 1.362 1_554 S
C182 H174 0.930 . S
C182 C181 1.362 1_556 S
C182 C185 1.409 . S
C183 H175 0.930 . S
C183 C184 1.355 . S
C183 C185 1.415 . S
C184 C183 1.355 . S
C184 C186 1.419 . S
C185 C180 1.425 . S
C185 C182 1.409 . S
C185 C183 1.415 . S
C186 H176 0.930 . S
C186 C184 1.419 . S
C186 C187 1.362 . S
C187 H177 0.930 1_556 S
C187 C180 1.409 . S
C187 C186 1.362 . S
H188 C194 0.930 . S
H189 C197 0.930 . S
H190 C198 0.930 . S
H191 C199 0.930 . S
H192 C202 0.930 . S
H193 C203 0.930 . S
C194 H188 0.930 . S
C194 C195 1.355 . S
C194 C196 1.415 . S
C195 C194 1.355 . S
C195 C197 1.419 1_554 S
C196 C194 1.415 . S
C196 C201 1.425 1_554 S
C196 C203 1.409 . S
C197 H189 0.930 . S
C197 C195 1.419 1_556 S
C197 C198 1.362 . S
C198 H190 0.930 . S
C198 C197 1.362 . S
C198 C201 1.409 . S
C199 H191 0.930 . S
C199 C200 1.355 . S
C199 C201 1.415 . S
C200 C199 1.355 . S
C200 C202 1.419 . S
C201 C196 1.425 1_556 S
C201 C198 1.409 . S
C201 C199 1.415 . S
C202 H192 0.930 . S
C202 C200 1.419 . S
C202 C203 1.362 1_556 S
C203 H193 0.930 . S
C203 C196 1.409 . S
C203 C202 1.362 1_554 S
H204 C210 0.930 . S
H205 C213 0.930 . S
H206 C214 0.930 . S
H207 C215 0.930 . S
H208 C218 0.930 . S
H209 C219 0.930 . S
C210 H204 0.930 . S
C210 C211 1.355 . S
C210 C212 1.415 . S
C211 C210 1.355 . S
C211 C213 1.419 . S
C212 C210 1.415 . S
C212 C217 1.425 . S
C212 C219 1.409 . S
C213 H205 0.930 . S
C213 C211 1.419 . S
C213 C214 1.362 . S
C214 H206 0.930 . S
C214 C213 1.362 . S
C214 C217 1.409 . S
C215 H207 0.930 . S
C215 C216 1.355 . S
C215 C217 1.415 . S
C216 C215 1.355 . S
C216 C218 1.419 . S
C217 C212 1.425 . S
C217 C214 1.409 . S
C217 C215 1.415 . S
C218 H208 0.930 . S
C218 C216 1.419 . S
C218 C219 1.362 . S
C219 H209 0.930 . S
C219 C212 1.409 . S
C219 C218 1.362 . S
H220 C226 0.930 . S
H221 C229 0.930 . S
H222 C230 0.930 . S
H223 C231 0.930 . S
H224 C234 0.930 . S
H225 C235 0.930 . S
C226 H220 0.930 . S
C226 C227 1.355 . S
C226 C228 1.415 . S
C227 C226 1.355 . S
C227 C229 1.419 . S
C228 C226 1.415 . S
C228 C233 1.425 . S
C228 C235 1.409 . S
C229 H221 0.930 . S
C229 C227 1.419 . S
C229 C230 1.362 . S
C230 H222 0.930 . S
C230 C229 1.362 . S
C230 C233 1.409 . S
C231 H223 0.930 . S
C231 C232 1.355 . S
C231 C233 1.415 . S
C232 C231 1.355 . S
C232 C234 1.419 . S
C233 C228 1.425 . S
C233 C230 1.409 . S
C233 C231 1.415 . S
C234 H224 0.930 . S
C234 C232 1.419 . S
C234 C235 1.362 . S
C235 H225 0.930 . S
C235 C228 1.409 . S
C235 C234 1.362 . S
H236 C242 0.930 . S
H237 C245 0.930 . S
H238 C246 0.930 . S
H239 C247 0.930 . S
H240 C250 0.930 . S
H241 C251 0.930 . S
C242 H236 0.930 . S
C242 C243 1.355 . S
C242 C244 1.415 . S
C243 C242 1.355 . S
C243 C245 1.419 . S
C244 C242 1.415 . S
C244 C249 1.425 . S
C244 C251 1.409 . S
C245 H237 0.930 . S
C245 C243 1.419 . S
C245 C246 1.362 . S
C246 H238 0.930 . S
C246 C245 1.362 . S
C246 C249 1.409 . S
C247 H239 0.930 . S
C247 C248 1.355 . S
C247 C249 1.415 . S
C248 C247 1.355 . S
C248 C250 1.419 . S
C249 C244 1.425 . S
C249 C246 1.409 . S
C249 C247 1.415 . S
C250 H240 0.930 . S
C250 C248 1.419 . S
C250 C251 1.362 . S
C251 H241 0.930 . S
C251 C244 1.409 . S
C251 C250 1.362 . S
H252 C258 0.930 . S
H253 C261 0.930 1_556 S
H254 C262 0.930 . S
H255 C263 0.930 . S
H256 C266 0.930 . S
H257 C267 0.930 . S
C258 H252 0.930 . S
C258 C259 1.355 . S
C258 C260 1.415 . S
C259 C258 1.355 . S
C259 C261 1.419 . S
C260 C258 1.415 . S
C260 C265 1.425 1_554 S
C260 C267 1.409 . S
C261 H253 0.930 1_554 S
C261 C259 1.419 . S
C261 C262 1.362 1_554 S
C262 H254 0.930 . S
C262 C261 1.362 1_556 S
C262 C265 1.409 . S
C263 H255 0.930 . S
C263 C264 1.355 . S
C263 C265 1.415 . S
C264 C263 1.355 . S
C264 C266 1.419 1_556 S
C265 C260 1.425 1_556 S
C265 C262 1.409 . S
C265 C263 1.415 . S
C266 H256 0.930 . S
C266 C264 1.419 1_554 S
C266 C267 1.362 . S
C267 H257 0.930 . S
C267 C260 1.409 . S
C267 C266 1.362 . S
H268 C274 0.930 . S
H269 C277 0.930 . S
H270 C278 0.930 . S
H271 C279 0.928 . S
H272 C282 0.930 . S
H273 C283 0.930 . S
C274 H268 0.930 . S
C274 C275 1.355 1_554 S
C274 C276 1.415 . S
C275 C274 1.355 1_556 S
C275 C277 1.419 . S
C276 C274 1.415 . S
C276 C281 1.420 1_554 S
C276 C283 1.409 . S
C277 H269 0.930 . S
C277 C275 1.419 . S
C277 C278 1.362 . S
C278 H270 0.930 . S
C278 C277 1.362 . S
C278 C281 1.417 . S
C279 H271 0.928 . S
C279 C280 1.355 . S
C279 C281 1.411 1_554 S
C280 C279 1.355 . S
C280 C282 1.419 . S
C281 C276 1.420 1_556 S
C281 C278 1.417 . S
C281 C279 1.411 1_556 S
C282 H272 0.930 . S
C282 C280 1.419 . S
C282 C283 1.362 . S
C283 H273 0.930 . S
C283 C276 1.409 . S
C283 C282 1.362 . S
H284 C290 0.930 . S
H285 C293 0.930 . S
H286 C294 0.930 . S
H287 C295 0.937 . S
H288 C298 0.930 . S
H289 C299 0.930 . S
C290 H284 0.930 . S
C290 C291 1.355 . S
C290 C292 1.415 . S
C291 C290 1.355 . S
C291 C293 1.419 . S
C292 C290 1.415 . S
C292 C297 1.425 . S
C292 C299 1.409 1_554 S
C293 H285 0.930 . S
C293 C291 1.419 . S
C293 C294 1.362 . S
C294 H286 0.930 . S
C294 C293 1.362 . S
C294 C297 1.409 . S
C295 H287 0.937 . S
C295 C296 1.337 1_554 S
C295 C297 1.425 . S
C296 C295 1.337 1_556 S
C296 C298 1.419 . S
C297 C292 1.425 . S
C297 C294 1.409 . S
C297 C295 1.425 . S
C298 H288 0.930 . S
C298 C296 1.419 . S
C298 C299 1.362 . S
C299 H289 0.930 . S
C299 C292 1.409 1_556 S
C299 C298 1.362 . S
H300 C306 0.930 . S
H301 C309 0.930 . S
H302 C310 0.930 . S
H303 C311 0.930 . S
H304 C314 0.930 . S
H305 C315 0.930 . S
C306 H300 0.930 . S
C306 C307 1.355 . S
C306 C308 1.415 . S
C307 C306 1.355 . S
C307 C309 1.419 . S
C308 C306 1.415 . S
C308 C313 1.425 . S
C308 C315 1.409 . S
C309 H301 0.930 . S
C309 C307 1.419 . S
C309 C310 1.362 . S
C310 H302 0.930 . S
C310 C309 1.362 . S
C310 C313 1.409 . S
C311 H303 0.930 . S
C311 C312 1.355 . S
C311 C313 1.415 . S
C312 C311 1.355 . S
C312 C314 1.419 . S
C313 C308 1.425 . S
C313 C310 1.409 . S
C313 C311 1.415 . S
C314 H304 0.930 . S
C314 C312 1.419 . S
C314 C315 1.362 . S
C315 H305 0.930 . S
C315 C308 1.409 . S
C315 C314 1.362 . S
H316 C322 0.930 . S
H317 C325 0.930 . S
H318 C326 0.930 . S
H319 C327 0.930 . S
H320 C330 0.930 . S
H321 C331 0.930 . S
C322 H316 0.930 . S
C322 C323 1.355 . S
C322 C324 1.415 . S
C323 C322 1.355 . S
C323 C325 1.419 . S
C324 C322 1.415 . S
C324 C329 1.425 . S
C324 C331 1.409 . S
C325 H317 0.930 . S
C325 C323 1.419 . S
C325 C326 1.362 . S
C326 H318 0.930 . S
C326 C325 1.362 . S
C326 C329 1.409 . S
C327 H319 0.930 . S
C327 C328 1.355 . S
C327 C329 1.415 . S
C328 C327 1.355 . S
C328 C330 1.419 . S
C329 C324 1.425 . S
C329 C326 1.409 . S
C329 C327 1.415 . S
C330 H320 0.930 . S
C330 C328 1.419 . S
C330 C331 1.362 . S
C331 H321 0.930 . S
C331 C324 1.409 . S
C331 C330 1.362 . S
H332 C338 0.930 . S
H333 C341 0.930 . S
H334 C342 0.930 . S
H335 C343 0.930 . S
H336 C346 0.930 . S
H337 C347 0.930 . S
C338 H332 0.930 . S
C338 C339 1.355 . S
C338 C340 1.415 . S
C339 C338 1.355 . S
C339 C341 1.419 . S
C340 C338 1.415 . S
C340 C345 1.425 . S
C340 C347 1.409 . S
C341 H333 0.930 . S
C341 C339 1.419 . S
C341 C342 1.362 . S
C342 H334 0.930 . S
C342 C341 1.362 . S
C342 C345 1.409 . S
C343 H335 0.930 . S
C343 C344 1.355 . S
C343 C345 1.415 . S
C344 C343 1.355 . S
C344 C346 1.419 . S
C345 C340 1.425 . S
C345 C342 1.409 . S
C345 C343 1.415 . S
C346 H336 0.930 . S
C346 C344 1.419 . S
C346 C347 1.362 . S
C347 H337 0.930 . S
C347 C340 1.409 . S
C347 C346 1.362 . S
H348 C354 0.930 . S
H349 C357 0.930 . S
H350 C358 0.930 . S
H351 C359 0.930 . S
H352 C362 0.930 . S
H353 C363 0.930 . S
C354 H348 0.930 . S
C354 C355 1.355 . S
C354 C356 1.415 . S
C355 C354 1.355 . S
C355 C357 1.419 . S
C356 C354 1.415 . S
C356 C361 1.425 . S
C356 C363 1.409 . S
C357 H349 0.930 . S
C357 C355 1.419 . S
C357 C358 1.362 . S
C358 H350 0.930 . S
C358 C357 1.362 . S
C358 C361 1.409 . S
C359 H351 0.930 . S
C359 C360 1.355 . S
C359 C361 1.415 . S
C360 C359 1.355 . S
C360 C362 1.419 . S
C361 C356 1.425 . S
C361 C358 1.409 . S
C361 C359 1.415 . S
C362 H352 0.930 . S
C362 C360 1.419 . S
C362 C363 1.362 . S
C363 H353 0.930 . S
C363 C356 1.409 . S
C363 C362 1.362 . S
H364 C370 0.930 . S
H365 C373 0.930 . S
H366 C374 0.930 . S
H367 C375 0.930 . S
H368 C378 0.930 . S
H369 C379 0.930 . S
C370 H364 0.930 . S
C370 C371 1.355 . S
C370 C372 1.415 . S
C371 C370 1.355 . S
C371 C373 1.419 . S
C372 C370 1.415 . S
C372 C377 1.425 . S
C372 C379 1.409 . S
C373 H365 0.930 . S
C373 C371 1.419 . S
C373 C374 1.362 . S
C374 H366 0.930 . S
C374 C373 1.362 . S
C374 C377 1.409 . S
C375 H367 0.930 . S
C375 C376 1.355 . S
C375 C377 1.415 . S
C376 C375 1.355 . S
C376 C378 1.419 . S
C377 C372 1.425 . S
C377 C374 1.409 . S
C377 C375 1.415 . S
C378 H368 0.930 . S
C378 C376 1.419 . S
C378 C379 1.362 . S
C379 H369 0.930 . S
C379 C372 1.409 . S
C379 C378 1.362 . S
H380 C386 0.930 . S
H381 C389 0.930 . S
H382 C390 0.930 . S
H383 C391 0.930 . S
H384 C394 0.930 . S
H385 C395 0.930 . S
C386 H380 0.930 . S
C386 C387 1.355 . S
C386 C388 1.415 . S
C387 C386 1.355 . S
C387 C389 1.419 . S
C388 C386 1.415 . S
C388 C393 1.425 . S
C388 C395 1.409 . S
C389 H381 0.930 . S
C389 C387 1.419 . S
C389 C390 1.362 . S
C390 H382 0.930 . S
C390 C389 1.362 . S
C390 C393 1.409 . S
C391 H383 0.930 . S
C391 C392 1.355 . S
C391 C393 1.415 . S
C392 C391 1.355 . S
C392 C394 1.419 . S
C393 C388 1.425 . S
C393 C390 1.409 . S
C393 C391 1.415 . S
C394 H384 0.930 . S
C394 C392 1.419 . S
C394 C395 1.362 . S
C395 H385 0.930 . S
C395 C388 1.409 . S
C395 C394 1.362 . S
H396 C402 0.930 . S
H397 C405 0.930 . S
H398 C406 0.930 . S
H399 C407 0.930 . S
H400 C410 0.930 . S
H401 C411 0.930 . S
C402 H396 0.930 . S
C402 C403 1.355 . S
C402 C404 1.415 . S
C403 C402 1.355 . S
C403 C405 1.419 . S
C404 C402 1.415 . S
C404 C409 1.425 . S
C404 C411 1.409 . S
C405 H397 0.930 . S
C405 C403 1.419 . S
C405 C406 1.362 . S
C406 H398 0.930 . S
C406 C405 1.362 . S
C406 C409 1.409 . S
C407 H399 0.930 . S
C407 C408 1.355 . S
C407 C409 1.415 . S
C408 C407 1.355 . S
C408 C410 1.419 . S
C409 C404 1.425 . S
C409 C406 1.409 . S
C409 C407 1.415 . S
C410 H400 0.930 . S
C410 C408 1.419 . S
C410 C411 1.362 . S
C411 H401 0.930 . S
C411 C404 1.409 . S
C411 C410 1.362 . S
H412 C418 0.930 . S
H413 C421 0.930 . S
H414 C422 0.930 . S
H415 C423 0.930 . S
H416 C426 0.930 . S
H417 C427 0.930 . S
C418 H412 0.930 . S
C418 C419 1.355 . S
C418 C420 1.415 . S
C419 C418 1.355 . S
C419 C421 1.419 . S
C420 C418 1.415 . S
C420 C425 1.425 . S
C420 C427 1.409 . S
C421 H413 0.930 . S
C421 C419 1.419 . S
C421 C422 1.362 . S
C422 H414 0.930 . S
C422 C421 1.362 . S
C422 C425 1.409 . S
C423 H415 0.930 . S
C423 C424 1.355 . S
C423 C425 1.415 . S
C424 C423 1.355 . S
C424 C426 1.419 . S
C425 C420 1.425 . S
C425 C422 1.409 . S
C425 C423 1.415 . S
C426 H416 0.930 . S
C426 C424 1.419 . S
C426 C427 1.362 . S
C427 H417 0.930 . S
C427 C420 1.409 . S
C427 C426 1.362 . S
H428 C434 0.930 . S
H429 C437 0.930 . S
H430 C438 0.930 . S
H431 C439 0.930 . S
H432 C442 0.930 . S
H433 C443 0.930 . S
C434 H428 0.930 . S
C434 C435 1.355 . S
C434 C436 1.415 . S
C435 C434 1.355 . S
C435 C437 1.419 . S
C436 C434 1.415 . S
C436 C441 1.425 . S
C436 C443 1.409 . S
C437 H429 0.930 . S
C437 C435 1.419 . S
C437 C438 1.362 . S
C438 H430 0.930 . S
C438 C437 1.362 . S
C438 C441 1.409 . S
C439 H431 0.930 . S
C439 C440 1.355 . S
C439 C441 1.415 . S
C440 C439 1.355 . S
C440 C442 1.419 . S
C441 C436 1.425 . S
C441 C438 1.409 . S
C441 C439 1.415 . S
C442 H432 0.930 . S
C442 C440 1.419 . S
C442 C443 1.362 . S
C443 H433 0.930 . S
C443 C436 1.409 . S
C443 C442 1.362 . S
H444 C450 0.930 . S
H445 C453 0.930 . S
H446 C454 0.940 . S
H447 C455 0.930 . S
H448 C458 0.930 . S
H449 C459 0.940 . S
C450 H444 0.930 . S
C450 C451 1.355 1_655 S
C450 C452 1.415 . S
C451 C450 1.355 1_455 S
C451 C453 1.419 . S
C452 C450 1.415 . S
C452 C457 1.425 1_654 S
C452 C459 1.413 . S
C453 H445 0.930 . S
C453 C451 1.419 . S
C453 C454 1.349 1_554 S
C454 H446 0.940 . S
C454 C453 1.349 1_556 S
C454 C457 1.413 . S
C455 H447 0.930 . S
C455 C456 1.355 1_455 S
C455 C457 1.415 . S
C456 C455 1.355 1_655 S
C456 C458 1.419 . S
C457 C452 1.425 1_456 S
C457 C454 1.413 . S
C457 C455 1.415 . S
C458 H448 0.930 . S
C458 C456 1.419 . S
C458 C459 1.349 1_556 S
C459 H449 0.940 . S
C459 C452 1.413 . S
C459 C458 1.349 1_554 S
H460 C466 0.930 1_556 S
H461 C469 0.930 . S
H462 C470 0.930 . S
H463 C471 0.930 1_554 S
H464 C474 0.930 . S
H465 C475 0.930 . S
C466 H460 0.930 1_554 S
C466 C467 1.355 . S
C466 C468 1.415 1_554 S
C467 C466 1.355 . S
C467 C469 1.419 . S
C468 C466 1.415 1_556 S
C468 C473 1.425 1_556 S
C468 C475 1.409 . S
C469 H461 0.930 . S
C469 C467 1.419 . S
C469 C470 1.362 . S
C470 H462 0.930 . S
C470 C469 1.362 . S
C470 C473 1.409 . S
C471 H463 0.930 1_556 S
C471 C472 1.355 . S
C471 C473 1.415 1_556 S
C472 C471 1.355 . S
C472 C474 1.419 . S
C473 C468 1.425 1_554 S
C473 C470 1.409 . S
C473 C471 1.415 1_554 S
C474 H464 0.930 . S
C474 C472 1.419 . S
C474 C475 1.362 . S
C475 H465 0.930 . S
C475 C468 1.409 . S
C475 C474 1.362 . S
H476 C482 0.930 1_556 S
H477 C485 0.930 . S
H478 C486 0.930 . S
H479 C487 0.930 1_554 S
H480 C490 0.930 . S
H481 C491 0.930 . S
C482 H476 0.930 1_554 S
C482 C483 1.355 . S
C482 C484 1.415 1_554 S
C483 C482 1.355 . S
C483 C485 1.419 1_565 S
C484 C482 1.415 1_556 S
C484 C489 1.425 1_566 S
C484 C491 1.409 . S
C485 H477 0.930 . S
C485 C483 1.419 1_545 S
C485 C486 1.362 . S
C486 H478 0.930 . S
C486 C485 1.362 . S
C486 C489 1.409 . S
C487 H479 0.930 1_556 S
C487 C488 1.355 . S
C487 C489 1.415 1_556 S
C488 C487 1.355 . S
C488 C490 1.419 1_545 S
C489 C484 1.425 1_544 S
C489 C486 1.409 . S
C489 C487 1.415 1_554 S
C490 H480 0.930 . S
C490 C488 1.419 1_565 S
C490 C491 1.362 . S
C491 H481 0.930 . S
C491 C484 1.409 . S
C491 C490 1.362 . S
H492 C498 0.930 . S
H493 C501 0.930 . S
H494 C502 0.930 . S
H495 C503 0.930 . S
H496 C506 0.930 . S
H497 C507 0.930 . S
C498 H492 0.930 . S
C498 C499 1.355 1_545 S
C498 C500 1.415 . S
C499 C498 1.355 1_565 S
C499 C501 1.419 . S
C500 C498 1.415 . S
C500 C505 1.425 1_545 S
C500 C507 1.409 . S
C501 H493 0.930 . S
C501 C499 1.419 . S
C501 C502 1.362 . S
C502 H494 0.930 . S
C502 C501 1.362 . S
C502 C505 1.409 . S
C503 H495 0.930 . S
C503 C504 1.355 1_565 S
C503 C505 1.415 . S
C504 C503 1.355 1_545 S
C504 C506 1.419 . S
C505 C500 1.425 1_565 S
C505 C502 1.409 . S
C505 C503 1.415 . S
C506 H496 0.930 . S
C506 C504 1.419 . S
C506 C507 1.362 . S
C507 H497 0.930 . S
C507 C500 1.409 . S
C507 C506 1.362 . S
H508 C514 0.930 . S
H509 C517 0.930 . S
H510 C518 0.930 . S
H511 C519 0.930 . S
H512 C522 0.930 . S
H513 C523 0.930 . S
C514 H508 0.930 . S
C514 C515 1.355 . S
C514 C516 1.415 . S
C515 C514 1.355 . S
C515 C517 1.419 1_655 S
C516 C514 1.415 . S
C516 C521 1.425 1_655 S
C516 C523 1.409 . S
C517 H509 0.930 . S
C517 C515 1.419 1_455 S
C517 C518 1.362 . S
C518 H510 0.930 . S
C518 C517 1.362 . S
C518 C521 1.409 . S
C519 H511 0.930 . S
C519 C520 1.355 . S
C519 C521 1.415 . S
C520 C519 1.355 . S
C520 C522 1.419 1_455 S
C521 C516 1.425 1_455 S
C521 C518 1.409 . S
C521 C519 1.415 . S
C522 H512 0.930 . S
C522 C520 1.419 1_655 S
C522 C523 1.362 . S
C523 H513 0.930 . S
C523 C516 1.409 . S
C523 C522 1.362 . S
H524 C530 0.930 . S
H525 C533 0.930 . S
H526 C534 0.930 . S
H527 C535 0.930 . S
H528 C538 0.930 . S
H529 C539 0.930 . S
C530 H524 0.930 . S
C530 C531 1.355 . S
C530 C532 1.415 . S
C531 C530 1.355 . S
C531 C533 1.419 . S
C532 C530 1.415 . S
C532 C537 1.425 . S
C532 C539 1.409 . S
C533 H525 0.930 . S
C533 C531 1.419 . S
C533 C534 1.362 . S
C534 H526 0.930 . S
C534 C533 1.362 . S
C534 C537 1.409 . S
C535 H527 0.930 . S
C535 C536 1.355 . S
C535 C537 1.415 . S
C536 C535 1.355 . S
C536 C538 1.419 . S
C537 C532 1.425 . S
C537 C534 1.409 . S
C537 C535 1.415 . S
C538 H528 0.930 . S
C538 C536 1.419 . S
C538 C539 1.362 . S
C539 H529 0.930 . S
C539 C532 1.409 . S
C539 C538 1.362 . S
C163 C8 0.845 . S
C168 C96 0.853 . S
C179 C21 0.730 . S
C184 C109 0.711 . S
C195 C34 0.737 . S
C200 C83 0.707 . S
C211 C148 0.739 . S
C216 C47 0.784 . S
C227 C60 0.756 . S
C232 C122 0.786 . S
C243 C135 0.858 . S
C248 C73 0.840 . S
C259 C18 0.723 . S
C264 C86 0.768 . S
C275 C99 0.810 . S
C280 C31 0.846 . S
C291 C5 0.859 . S
C296 C112 0.836 . S
C307 C125 0.731 . S
C312 C70 0.710 . S
C323 C138 0.842 . S
C328 C44 0.830 . S
C339 C57 0.854 . S
C344 C151 0.822 . S
C355 C65 1.724 . S
C360 C0 1.724 . S
C371 C13 1.733 . S
C376 C39 1.764 . S
C387 C26 1.757 . S
C392 C52 1.774 . S
C403 C78 1.726 . S
C408 C143 1.722 . S
C419 C91 1.773 . S
C424 C117 1.766 . S
C435 C104 1.768 . S
C440 C130 1.771 . S
C451 C10 1.512 . S
C456 C88 1.512 . S
C467 C23 1.552 . S
C472 C101 1.552 . S
C483 C36 1.552 . S
C488 C114 1.552 . S
C499 C49 1.492 . S
C504 C127 1.492 . S
C515 C140 1.498 . S
C520 C62 1.498 . S
C531 C75 1.552 . S
C536 C153 1.552 . S
