# Generated by pormake.
# Topology umy, (4)-cn, num edge types: 1
# Building blocks:
#     Node 0, Type 0, BuildingBlock: TATPOV_clean_sbu_0, # of connection points: 4
#     Node 1, Type 0, BuildingBlock: TATPOV_clean_sbu_0, # of connection points: 4
#     Node 2, Type 0, BuildingBlock: TATPOV_clean_sbu_0, # of connection points: 4
#     Node 3, Type 0, BuildingBlock: TATPOV_clean_sbu_0, # of connection points: 4
#     Node 4, Type 0, BuildingBlock: TATPOV_clean_sbu_0, # of connection points: 4
#     Node 5, Type 0, BuildingBlock: TATPOV_clean_sbu_0, # of connection points: 4
#     Node 6, Type 0, BuildingBlock: TATPOV_clean_sbu_0, # of connection points: 4
#     Node 7, Type 0, BuildingBlock: TATPOV_clean_sbu_0, # of connection points: 4
#     Node 8, Type 0, BuildingBlock: TATPOV_clean_sbu_0, # of connection points: 4
#     Node 9, Type 0, BuildingBlock: TATPOV_clean_sbu_0, # of connection points: 4
#     Node 10, Type 0, BuildingBlock: TATPOV_clean_sbu_0, # of connection points: 4
#     Node 11, Type 0, BuildingBlock: TATPOV_clean_sbu_0, # of connection points: 4
#     Edge 12, Type (0, 0), BuildingBlock: XIVTED_clean_linker_0, # of connection points: 2
#     Edge 13, Type (0, 0), BuildingBlock: XIVTED_clean_linker_0, # of connection points: 2
#     Edge 14, Type (0, 0), BuildingBlock: XIVTED_clean_linker_0, # of connection points: 2
#     Edge 15, Type (0, 0), BuildingBlock: XIVTED_clean_linker_0, # of connection points: 2
#     Edge 16, Type (0, 0), BuildingBlock: XIVTED_clean_linker_0, # of connection points: 2
#     Edge 17, Type (0, 0), BuildingBlock: XIVTED_clean_linker_0, # of connection points: 2
#     Edge 18, Type (0, 0), BuildingBlock: XIVTED_clean_linker_0, # of connection points: 2
#     Edge 19, Type (0, 0), BuildingBlock: XIVTED_clean_linker_0, # of connection points: 2
#     Edge 20, Type (0, 0), BuildingBlock: XIVTED_clean_linker_0, # of connection points: 2
#     Edge 21, Type (0, 0), BuildingBlock: XIVTED_clean_linker_0, # of connection points: 2
#     Edge 22, Type (0, 0), BuildingBlock: XIVTED_clean_linker_0, # of connection points: 2
#     Edge 23, Type (0, 0), BuildingBlock: XIVTED_clean_linker_0, # of connection points: 2
#     Edge 24, Type (0, 0), BuildingBlock: XIVTED_clean_linker_0, # of connection points: 2
#     Edge 25, Type (0, 0), BuildingBlock: XIVTED_clean_linker_0, # of connection points: 2
#     Edge 26, Type (0, 0), BuildingBlock: XIVTED_clean_linker_0, # of connection points: 2
#     Edge 27, Type (0, 0), BuildingBlock: XIVTED_clean_linker_0, # of connection points: 2
#     Edge 28, Type (0, 0), BuildingBlock: XIVTED_clean_linker_0, # of connection points: 2
#     Edge 29, Type (0, 0), BuildingBlock: XIVTED_clean_linker_0, # of connection points: 2
#     Edge 30, Type (0, 0), BuildingBlock: XIVTED_clean_linker_0, # of connection points: 2
#     Edge 31, Type (0, 0), BuildingBlock: XIVTED_clean_linker_0, # of connection points: 2
#     Edge 32, Type (0, 0), BuildingBlock: XIVTED_clean_linker_0, # of connection points: 2
#     Edge 33, Type (0, 0), BuildingBlock: XIVTED_clean_linker_0, # of connection points: 2
#     Edge 34, Type (0, 0), BuildingBlock: XIVTED_clean_linker_0, # of connection points: 2
#     Edge 35, Type (0, 0), BuildingBlock: XIVTED_clean_linker_0, # of connection points: 2
# Relax obj value: 0.091
# Max RMSD: 0.114
# Mean RMSD: 0.114
data_MOF--net-umy--node1-TATPOV_clean_sbu_0--edge1-XIVTED_clean_linker_0
_symmetry_space_group_name_H-M    P1
_symmetry_Int_Tables_number       1
_symmetry_cell_setting            triclinic
loop_
_symmetry_equiv_pos_as_xyz
'x, y, z'
_cell_length_a     39.653886
_cell_length_b     39.629002
_cell_length_c     48.746017
_cell_angle_alpha  90.080604
_cell_angle_beta   89.905437
_cell_angle_gamma 120.01206
loop_
_atom_site_label
_atom_site_type_symbol
_atom_site_fract_x
_atom_site_fract_y
_atom_site_fract_z
_atom_type_partial_charge
Zn0 Zn 0.09908 0.29611 0.11545 0.0
Zn1 Zn 0.09519 0.36111 0.10939 0.0
O2 O 0.03724 0.31973 0.11267 0.0
O3 O 0.04029 0.26599 0.11704 0.0
O4 O 0.09415 0.41061 0.10236 0.0
O5 O 0.12524 0.30336 0.07927 0.0
O6 O 0.1236 0.35785 0.07443 0.0
C7 C 0.02038 0.28288 0.11556 0.0
C8 C 0.13574 0.35039 0.15958 0.0
O9 O 0.1232 0.36979 0.14659 0.0
O10 O 0.13074 0.31848 0.15002 0.0
C11 C 0.09367 0.43302 0.12085 0.0
O12 O 0.09373 0.42414 0.14679 0.0
C13 C 0.13283 0.33331 0.06548 0.0
Zn14 Zn 0.79909 0.09167 0.27953 0.0
Zn15 Zn 0.73485 0.0956 0.27051 0.0
O16 O 0.71345 0.03671 0.27534 0.0
O17 O 0.7663 0.03344 0.28363 0.0
O18 O 0.68666 0.09841 0.26306 0.0
O19 O 0.81917 0.11342 0.24228 0.0
O20 O 0.76911 0.12237 0.23632 0.0
C21 C 0.72972 0.01673 0.28068 0.0
C22 C 0.78552 0.13608 0.32053 0.0
O23 O 0.75441 0.12507 0.30685 0.0
O24 O 0.81059 0.1273 0.31253 0.0
C25 C 0.66453 0.0796 0.24315 0.0
O26 O 0.67378 0.05851 0.2274 0.0
C27 C 0.80104 0.12565 0.22786 0.0
Zn28 Zn 0.6909 0.80786 0.44863 0.0
Zn29 Zn 0.62771 0.73769 0.44193 0.0
O30 O 0.67088 0.72353 0.44501 0.0
O31 O 0.72307 0.78137 0.45007 0.0
O32 O 0.57959 0.68617 0.43436 0.0
O33 O 0.68283 0.8264 0.41263 0.0
O34 O 0.62961 0.76928 0.40738 0.0
C35 C 0.70757 0.74469 0.44818 0.0
C36 C 0.63564 0.78766 0.49244 0.0
O37 O 0.61746 0.75571 0.47921 0.0
O38 O 0.66717 0.81546 0.48317 0.0
C39 C 0.55623 0.6635 0.45251 0.0
O40 O 0.56321 0.67321 0.47852 0.0
C41 C 0.65326 0.80348 0.39873 0.0
Zn42 Zn 0.90195 0.71003 0.61014 0.0
Zn43 Zn 0.89647 0.64167 0.59813 0.0
O44 O 0.95523 0.6781 0.60422 0.0
O45 O 0.96005 0.73445 0.61454 0.0
O46 O 0.89401 0.59147 0.58793 0.0
O47 O 0.88085 0.71142 0.57323 0.0
O48 O 0.87072 0.6524 0.56482 0.0
C49 C 0.97589 0.71389 0.61076 0.0
C50 C 0.85554 0.64883 0.64898 0.0
O51 O 0.86596 0.62908 0.63423 0.0
O52 O 0.86558 0.68358 0.6425 0.0
C53 C 0.90523 0.57498 0.60503 0.0
O54 O 0.91743 0.59081 0.62933 0.0
C55 C 0.86818 0.68199 0.5577 0.0
Zn56 Zn 0.17726 0.87109 0.78315 0.0
Zn57 Zn 0.24962 0.88355 0.77634 0.0
O58 O 0.2599 0.93969 0.77811 0.0
O59 O 0.20028 0.92966 0.78257 0.0
O60 O 0.30262 0.88996 0.76931 0.0
O61 O 0.15933 0.84095 0.74834 0.0
O62 O 0.21908 0.85195 0.74198 0.0
C63 C 0.23662 0.9529 0.7805 0.0
C64 C 0.20146 0.84184 0.8279 0.0
O65 O 0.2331 0.85655 0.81422 0.0
O66 O 0.17226 0.84302 0.81867 0.0
C67 C 0.32542 0.89062 0.78788 0.0
O68 O 0.31496 0.88774 0.81374 0.0
C69 C 0.18387 0.83719 0.73409 0.0
Zn70 Zn 0.2682 0.18725 0.93641 0.0
Zn71 Zn 0.33411 0.25122 0.92228 0.0
O72 O 0.29692 0.27233 0.93023 0.0
O73 O 0.24264 0.21957 0.94234 0.0
O74 O 0.38342 0.29921 0.91087 0.0
O75 O 0.26464 0.16387 0.89948 0.0
O76 O 0.32209 0.21391 0.88913 0.0
C77 C 0.26162 0.25599 0.93824 0.0
C78 C 0.33211 0.20477 0.97287 0.0
O79 O 0.34978 0.23471 0.95763 0.0
O80 O 0.29734 0.17888 0.96757 0.0
C81 C 0.40208 0.32595 0.92837 0.0
O82 O 0.38851 0.32159 0.95352 0.0
C83 C 0.2928 0.181 0.88293 0.0
Zn84 Zn 0.71148 0.90232 0.72544 0.0
Zn85 Zn 0.64278 0.89518 0.73805 0.0
O86 O 0.67815 0.95447 0.73312 0.0
O87 O 0.73484 0.96037 0.72243 0.0
O88 O 0.59169 0.89066 0.74865 0.0
O89 O 0.71387 0.88046 0.76165 0.0
O90 O 0.65478 0.86941 0.77093 0.0
C91 C 0.71398 0.9757 0.7269 0.0
C92 C 0.65141 0.8567 0.68609 0.0
O93 O 0.63116 0.86609 0.70121 0.0
O94 O 0.6862 0.86704 0.69254 0.0
C95 C 0.57419 0.90113 0.73185 0.0
O96 O 0.58959 0.91405 0.70754 0.0
C97 C 0.68478 0.8673 0.77752 0.0
Zn98 Zn 0.8086 0.68469 0.8861 0.0
Zn99 Zn 0.73671 0.62402 0.89289 0.0
O100 O 0.72587 0.66928 0.8898 0.0
O101 O 0.78495 0.71972 0.88524 0.0
O102 O 0.68368 0.57797 0.89984 0.0
O103 O 0.82614 0.67361 0.92157 0.0
O104 O 0.76686 0.62384 0.92763 0.0
C105 C 0.74845 0.70581 0.88686 0.0
C106 C 0.78525 0.62935 0.84212 0.0
O107 O 0.75345 0.61228 0.85559 0.0
O108 O 0.81398 0.66033 0.85121 0.0
C109 C 0.65862 0.56047 0.88111 0.0
O110 O 0.66727 0.57251 0.85562 0.0
C111 C 0.80182 0.64511 0.93578 0.0
Zn112 Zn 0.08071 0.8071 0.05801 0.0
Zn113 Zn 0.08946 0.74717 0.07291 0.0
O114 O 0.03026 0.72179 0.06686 0.0
O115 O 0.02283 0.7712 0.05476 0.0
O116 O 0.09497 0.70164 0.08493 0.0
O117 O 0.10234 0.8336 0.09373 0.0
O118 O 0.11411 0.78668 0.10504 0.0
C119 C 0.00837 0.73521 0.05968 0.0
C120 C 0.1282 0.79236 0.02042 0.0
O121 O 0.11947 0.76378 0.03644 0.0
O122 O 0.11655 0.81621 0.02555 0.0
C123 C 0.08653 0.67409 0.06804 0.0
O124 O 0.07503 0.6765 0.04322 0.0
C125 C 0.11584 0.81901 0.11047 0.0
Zn126 Zn 0.30803 0.13186 0.21005 0.0
Zn127 Zn 0.36807 0.11971 0.21664 0.0
O128 O 0.32259 0.06373 0.21556 0.0
O129 O 0.27255 0.07299 0.21122 0.0
O130 O 0.41464 0.1135 0.22241 0.0
O131 O 0.32205 0.16374 0.24433 0.0
O132 O 0.3701 0.15177 0.25083 0.0
C133 C 0.28605 0.05007 0.21329 0.0
C134 C 0.36094 0.15994 0.16478 0.0
O135 O 0.3782 0.14575 0.17856 0.0
O136 O 0.33057 0.15878 0.17408 0.0
C137 C 0.42248 0.09274 0.2067 0.0
O138 O 0.39933 0.07451 0.18594 0.0
C139 C 0.35038 0.16745 0.25848 0.0
Zn140 Zn 0.18705 0.27223 0.38981 0.0
Zn141 Zn 0.24589 0.34302 0.40263 0.0
O142 O 0.27311 0.31112 0.39617 0.0
O143 O 0.22499 0.25271 0.38557 0.0
O144 O 0.29046 0.39514 0.41373 0.0
O145 O 0.16248 0.26777 0.42645 0.0
O146 O 0.208 0.32805 0.43566 0.0
C147 C 0.26097 0.27582 0.38942 0.0
C148 C 0.19763 0.33239 0.35127 0.0
O149 O 0.2268 0.35383 0.3664 0.0
O150 O 0.17499 0.29695 0.35741 0.0
C151 C 0.3183 0.41416 0.39706 0.0
O152 O 0.31684 0.39968 0.37253 0.0
C153 C 0.177 0.29686 0.44238 0.0
Zn154 Zn 0.8739 0.17733 0.55764 0.0
Zn155 Zn 0.88688 0.24994 0.56436 0.0
O156 O 0.94258 0.2596 0.56049 0.0
O157 O 0.93223 0.19993 0.55534 0.0
O158 O 0.89453 0.3033 0.57126 0.0
O159 O 0.8471 0.16103 0.59384 0.0
O160 O 0.85654 0.22041 0.59927 0.0
C161 C 0.95558 0.23631 0.5569 0.0
C162 C 0.84152 0.20107 0.51433 0.0
O163 O 0.85756 0.23312 0.52754 0.0
O164 O 0.84289 0.17187 0.52342 0.0
C165 C 0.89852 0.32706 0.55235 0.0
O166 O 0.89836 0.31715 0.5266 0.0
C167 C 0.84317 0.18568 0.60786 0.0
H168 H 0.10227 0.65609 0.11902 0.0
H169 H 0.08833 0.45694 0.06926 0.0
H170 H 0.07589 0.61293 0.03589 0.0
H171 H 0.09787 0.4907 0.15441 0.0
H172 H 0.08748 0.51596 0.05648 0.0
H173 H 0.10461 0.59774 0.13216 0.0
C174 C 0.09706 0.63441 0.10351 0.0
C175 C 0.08881 0.63938 0.07631 0.0
C176 C 0.08973 0.51048 0.07797 0.0
C177 C 0.09148 0.5726 0.09123 0.0
C178 C 0.09027 0.47677 0.0853 0.0
C179 C 0.09312 0.46879 0.11298 0.0
C180 C 0.09224 0.53662 0.09842 0.0
C181 C 0.09554 0.49562 0.13283 0.0
C182 C 0.09831 0.60107 0.11106 0.0
C183 C 0.08226 0.61031 0.05711 0.0
N184 N 0.0951 0.52838 0.12516 0.0
N185 N 0.08377 0.57821 0.06494 0.0
H186 H 0.63683 0.11978 0.27214 0.0
H187 H 0.44877 0.05127 0.17738 0.0
H188 H 0.61058 0.04335 0.20239 0.0
H189 H 0.47622 0.12722 0.24755 0.0
H190 H 0.5075 0.04742 0.18614 0.0
H191 H 0.57768 0.12236 0.26334 0.0
C192 C 0.61863 0.10353 0.25495 0.0
C193 C 0.62872 0.08134 0.23795 0.0
C194 C 0.50062 0.0649 0.19961 0.0
C195 C 0.5608 0.08416 0.22775 0.0
C196 C 0.4671 0.06711 0.19463 0.0
C197 C 0.45758 0.08964 0.21173 0.0
C198 C 0.52477 0.08538 0.22185 0.0
C199 C 0.48239 0.10951 0.23379 0.0
C200 C 0.5848 0.105 0.24994 0.0
C201 C 0.60395 0.06085 0.21601 0.0
N202 N 0.51481 0.10693 0.23818 0.0
N203 N 0.57113 0.06277 0.21152 0.0
H204 H 0.53586 0.63282 0.40087 0.0
H205 H 0.33377 0.44911 0.44761 0.0
H206 H 0.49665 0.61066 0.48504 0.0
H207 H 0.38092 0.46408 0.36575 0.0
H208 H 0.39146 0.50993 0.4613 0.0
H209 H 0.47763 0.57266 0.38729 0.0
C210 C 0.51502 0.6153 0.41653 0.0
C211 C 0.5212 0.62682 0.44416 0.0
C212 C 0.38917 0.49991 0.44034 0.0
C213 C 0.45429 0.55783 0.42869 0.0
C214 C 0.35619 0.46523 0.43248 0.0
C215 C 0.35252 0.45143 0.40548 0.0
C216 C 0.41864 0.52107 0.42105 0.0
C217 C 0.38252 0.47353 0.38679 0.0
C218 C 0.48176 0.5809 0.40874 0.0
C219 C 0.49314 0.60289 0.46352 0.0
N220 N 0.41429 0.50725 0.39492 0.0
N221 N 0.46086 0.56955 0.4554 0.0
H222 H 0.92116 0.52878 0.63792 0.0
H223 H 0.89737 0.3808 0.51759 0.0
H224 H 0.8896 0.53904 0.55489 0.0
H225 H 0.90677 0.3593 0.60329 0.0
H226 H 0.90015 0.44191 0.53018 0.0
H227 H 0.92133 0.46932 0.6249 0.0
C228 C 0.91427 0.51855 0.61695 0.0
C229 C 0.90524 0.53886 0.59748 0.0
C230 C 0.90164 0.42381 0.5462 0.0
C231 C 0.90556 0.47091 0.58242 0.0
C232 C 0.90019 0.38898 0.53903 0.0
C233 C 0.9017 0.36483 0.55942 0.0
C234 C 0.90489 0.43466 0.57394 0.0
C235 C 0.90533 0.37692 0.58688 0.0
C236 C 0.91434 0.48457 0.60954 0.0
C237 C 0.89658 0.52423 0.5706 0.0
N238 N 0.9068 0.41097 0.59333 0.0
N239 N 0.89701 0.49118 0.56385 0.0
H240 H 0.52683 0.91657 0.69989 0.0
H241 H 0.37779 0.88499 0.82146 0.0
H242 H 0.53793 0.88251 0.78197 0.0
H243 H 0.35818 0.90214 0.7368 0.0
H244 H 0.43854 0.88774 0.80799 0.0
H245 H 0.46671 0.91484 0.71361 0.0
C246 C 0.51663 0.9087 0.7208 0.0
C247 C 0.53745 0.89964 0.7398 0.0
C248 C 0.42093 0.89091 0.79237 0.0
C249 C 0.46868 0.89775 0.75569 0.0
C250 C 0.38629 0.88946 0.80006 0.0
C251 C 0.3628 0.89328 0.78023 0.0
C252 C 0.43229 0.89644 0.76468 0.0
C253 C 0.37529 0.89895 0.75279 0.0
C254 C 0.48227 0.90769 0.72862 0.0
C255 C 0.5228 0.88963 0.76662 0.0
N256 N 0.40917 0.90038 0.74584 0.0
N257 N 0.48936 0.88904 0.77377 0.0
H258 H 0.43494 0.34773 0.87729 0.0
H259 H 0.62864 0.53365 0.93218 0.0
H260 H 0.45343 0.38431 0.96206 0.0
H261 H 0.60116 0.51036 0.84609 0.0
H262 H 0.56565 0.47733 0.9435 0.0
H263 H 0.49682 0.40552 0.86542 0.0
C264 C 0.45197 0.36792 0.89341 0.0
C265 C 0.43902 0.36114 0.92073 0.0
C266 C 0.57332 0.48458 0.92213 0.0
C267 C 0.50989 0.42722 0.90729 0.0
C268 C 0.60935 0.5167 0.91563 0.0
C269 C 0.62024 0.52672 0.88812 0.0
C270 C 0.54801 0.46204 0.90099 0.0
C271 C 0.59396 0.50372 0.86757 0.0
C272 C 0.48725 0.40095 0.8866 0.0
C273 C 0.46225 0.38835 0.94073 0.0
N274 N 0.55911 0.47234 0.87443 0.0
N275 N 0.49662 0.42009 0.93363 0.0
H276 H 0.09708 0.29547 0.01906 0.0
H277 H 0.29778 0.3313 0.95704 0.0
H278 H 0.20929 0.37866 0.0517 0.0
H279 H 0.18458 0.23343 0.93839 0.0
H280 H 0.26607 0.36268 0.98079 0.0
H281 H 0.12901 0.28746 0.97862 0.0
C282 C 0.12845 0.31305 0.01714 0.0
C283 C 0.15075 0.3378 0.03845 0.0
C284 C 0.24822 0.33477 0.9709 0.0
C285 C 0.18759 0.32776 0.99302 0.0
C286 C 0.26627 0.31697 0.95722 0.0
C287 C 0.2437 0.27942 0.94622 0.0
C288 C 0.20743 0.31492 0.97331 0.0
C289 C 0.20304 0.2621 0.94706 0.0
C290 C 0.14671 0.30829 0.99422 0.0
C291 C 0.19127 0.35952 0.03544 0.0
N292 N 0.18623 0.27975 0.9607 0.0
N293 N 0.20856 0.35348 0.01331 0.0
H294 H 0.81166 0.19516 0.20834 0.0
H295 H 0.97268 0.20555 0.10591 0.0
H296 H 0.83193 0.10062 0.18901 0.0
H297 H 0.97187 0.30725 0.1367 0.0
H298 H 0.9072 0.1647 0.12403 0.0
H299 H 0.85632 0.23359 0.171 0.0
C300 C 0.82451 0.18211 0.19562 0.0
C301 C 0.81873 0.14504 0.20179 0.0
C302 C 0.92098 0.196 0.12644 0.0
C303 C 0.86943 0.18838 0.15951 0.0
C304 C 0.95837 0.21933 0.11606 0.0
C305 C 0.97801 0.2597 0.12041 0.0
C306 C 0.90337 0.21304 0.14179 0.0
C307 C 0.95785 0.27613 0.13323 0.0
C308 C 0.8501 0.20404 0.17449 0.0
C309 C 0.83614 0.12936 0.185 0.0
N310 N 0.92187 0.25262 0.14409 0.0
N311 N 0.86101 0.15124 0.16483 0.0
H312 H 0.69038 0.80746 0.35143 0.0
H313 H 0.6542 0.976 0.29893 0.0
H314 H 0.60649 0.83346 0.38696 0.0
H315 H 0.752 0.96212 0.27693 0.0
H316 H 0.62234 0.91077 0.31944 0.0
H317 H 0.69771 0.84935 0.3124 0.0
C318 C 0.67243 0.82093 0.35039 0.0
C319 C 0.64777 0.81718 0.37216 0.0
C320 C 0.65035 0.92168 0.30952 0.0
C321 C 0.65711 0.8663 0.32844 0.0
C322 C 0.66847 0.9588 0.29772 0.0
C323 C 0.70615 0.97473 0.28681 0.0
C324 C 0.67007 0.90047 0.31018 0.0
C325 C 0.72328 0.95121 0.28568 0.0
C326 C 0.67682 0.84508 0.32829 0.0
C327 C 0.62559 0.83562 0.37032 0.0
N328 N 0.70536 0.91551 0.2976 0.0
N329 N 0.63133 0.8601 0.34904 0.0
H330 H 0.78569 0.77817 0.44019 0.0
H331 H 0.80047 0.62334 0.53564 0.0
H332 H 0.68554 0.67119 0.46705 0.0
H333 H 0.89158 0.74192 0.52225 0.0
H334 H 0.76198 0.63111 0.49917 0.0
H335 H 0.828 0.75503 0.45774 0.0
C336 C 0.77258 0.74945 0.44937 0.0
C337 C 0.73213 0.72694 0.45278 0.0
C338 C 0.79081 0.65504 0.50379 0.0
C339 C 0.78043 0.70057 0.47344 0.0
C340 C 0.8128 0.65054 0.52442 0.0
C341 C 0.84887 0.68226 0.53205 0.0
C342 C 0.80546 0.69133 0.4907 0.0
C343 C 0.8636 0.71697 0.51714 0.0
C344 C 0.79675 0.73626 0.45942 0.0
C345 C 0.71665 0.68965 0.46433 0.0
N346 N 0.8417 0.7207 0.49738 0.0
N347 N 0.74091 0.67793 0.47486 0.0
H348 H 0.0331 0.79001 0.60786 0.0
H349 H 0.1478 0.7595 0.72415 0.0
H350 H 0.01288 0.67596 0.6298 0.0
H351 H 0.18758 0.87043 0.68503 0.0
H352 H 0.10679 0.72696 0.68424 0.0
H353 H 0.09703 0.81909 0.62943 0.0
C354 C 0.04255 0.77105 0.61672 0.0
C355 C 0.01747 0.73062 0.61754 0.0
C356 C 0.12548 0.75832 0.68387 0.0
C357 C 0.0902 0.76368 0.64291 0.0
C358 C 0.14905 0.77679 0.70657 0.0
C359 C 0.17102 0.81749 0.70758 0.0
C360 C 0.12311 0.78099 0.6626 0.0
C361 C 0.17114 0.83888 0.68474 0.0
C362 C 0.07911 0.78764 0.62901 0.0
C363 C 0.03126 0.70733 0.62896 0.0
N364 N 0.14683 0.82043 0.66338 0.0
N365 N 0.06635 0.72426 0.64187 0.0
H366 H 0.19711 0.99202 0.77323 0.0
H367 H 0.35226 0.17502 0.85905 0.0
H368 H 0.31 0.0098 0.79596 0.0
H369 H 0.23078 0.13916 0.84997 0.0
H370 H 0.3446 0.12687 0.82405 0.0
H371 H 0.21709 0.05793 0.78852 0.0
C372 C 0.22638 0.01006 0.78104 0.0
C373 C 0.2516 0.9951 0.78396 0.0
C374 C 0.31993 0.13031 0.82924 0.0
C375 C 0.27448 0.07047 0.80196 0.0
C376 C 0.32436 0.15791 0.84902 0.0
C377 C 0.29193 0.16049 0.85753 0.0
C378 C 0.28294 0.10571 0.8179 0.0
C379 C 0.25633 0.13759 0.84416 0.0
C380 C 0.23778 0.04772 0.78978 0.0
C381 C 0.28946 0.02006 0.79369 0.0
N382 N 0.25269 0.11089 0.82524 0.0
N383 N 0.29952 0.05633 0.80294 0.0
H384 H 0.78606 0.78497 0.89127 0.0
H385 H 0.62699 0.80033 0.80125 0.0
H386 H 0.67437 0.6859 0.8709 0.0
H387 H 0.74656 0.89096 0.81118 0.0
H388 H 0.63638 0.76259 0.83749 0.0
H389 H 0.76397 0.82811 0.87364 0.0
C390 C 0.75662 0.77231 0.88349 0.0
C391 C 0.73234 0.73178 0.88195 0.0
C392 C 0.66023 0.79115 0.83215 0.0
C393 C 0.70705 0.78101 0.86123 0.0
C394 C 0.6548 0.81271 0.81164 0.0
C395 C 0.68627 0.84839 0.80308 0.0
C396 C 0.69722 0.8058 0.84414 0.0
C397 C 0.72177 0.86322 0.81698 0.0
C398 C 0.744 0.79696 0.87339 0.0
C399 C 0.69421 0.71701 0.87214 0.0
N400 N 0.7264 0.84171 0.8366 0.0
N401 N 0.68297 0.74162 0.86157 0.0
H402 H 0.8397 0.60539 0.94585 0.0
H403 H 0.94886 0.75054 0.06352 0.0
H404 H 0.79621 0.67351 0.98495 0.0
H405 H 0.97406 0.66031 0.0406 0.0
H406 H 0.88514 0.71371 0.04189 0.0
H407 H 0.88016 0.61442 0.98615 0.0
C408 C 0.83757 0.62089 0.96349 0.0
C409 C 0.81471 0.63865 0.96236 0.0
C410 C 0.90409 0.70135 0.04212 0.0
C411 C 0.86193 0.65066 0.00784 0.0
C412 C 0.94051 0.72245 0.05446 0.0
C413 C 0.96692 0.70874 0.05335 0.0
C414 C 0.8945 0.66688 0.02782 0.0
C415 C 0.95459 0.67202 0.04167 0.0
C416 C 0.8608 0.62629 0.98643 0.0
C417 C 0.81339 0.6592 0.9853 0.0
N418 N 0.91961 0.6528 0.02867 0.0
N419 N 0.83738 0.66538 0.00692 0.0
H420 H 0.30528 0.99377 0.20238 0.0
H421 H 0.17555 0.81951 0.13961 0.0
H422 H 0.20654 0.01005 0.21469 0.0
H423 H 0.10163 0.87046 0.13739 0.0
H424 H 0.2159 0.86748 0.17443 0.0
H425 H 0.26155 0.92812 0.18565 0.0
C426 C 0.27424 0.9831 0.20232 0.0
C427 C 0.25963 0.00775 0.20939 0.0
C428 C 0.19084 0.86818 0.16643 0.0
C429 C 0.20905 0.93224 0.19042 0.0
C430 C 0.16751 0.84041 0.1468 0.0
C431 C 0.13584 0.84172 0.13518 0.0
C432 C 0.1822 0.89724 0.1743 0.0
C433 C 0.12637 0.86904 0.14535 0.0
C434 C 0.24909 0.94535 0.1928 0.0
C435 C 0.21919 0.99236 0.20894 0.0
N436 N 0.14966 0.8959 0.16406 0.0
N437 N 0.19547 0.95591 0.19914 0.0
H438 H 0.38026 0.24488 0.26592 0.0
H439 H 0.24974 0.20213 0.39122 0.0
H440 H 0.335 0.1364 0.30961 0.0
H441 H 0.3348 0.3201 0.36932 0.0
H442 H 0.28807 0.17893 0.36685 0.0
H443 H 0.37324 0.2756 0.30742 0.0
C444 C 0.37023 0.22801 0.28467 0.0
C445 C 0.35823 0.18828 0.28461 0.0
C446 C 0.29902 0.21 0.368 0.0
C447 C 0.34838 0.22242 0.33164 0.0
C448 C 0.27707 0.22322 0.38187 0.0
C449 C 0.28877 0.26297 0.38177 0.0
C450 C 0.33222 0.23663 0.35325 0.0
C451 C 0.32458 0.28914 0.36962 0.0
C452 C 0.36609 0.24543 0.30833 0.0
C453 C 0.34474 0.16726 0.30909 0.0
N454 N 0.34452 0.27541 0.35513 0.0
N455 N 0.33919 0.18434 0.33152 0.0
H456 H 0.17057 0.35481 0.46863 0.0
H457 H -0.00483 0.1966 0.55914 0.0
H458 H 0.13522 0.2329 0.47387 0.0
H459 H 0.01082 0.3101 0.54087 0.0
H460 H 0.05908 0.21691 0.53958 0.0
H461 H 0.12453 0.34554 0.50572 0.0
C462 C 0.15386 0.32639 0.47807 0.0
C463 C 0.15607 0.29439 0.46797 0.0
C464 C 0.04886 0.23765 0.54022 0.0
C465 C 0.10385 0.28365 0.51012 0.0
C466 C 0.01237 0.22607 0.55143 0.0
C467 C -0.00272 0.2514 0.55104 0.0
C468 C 0.07028 0.27465 0.52816 0.0
C469 C 0.02117 0.28949 0.54126 0.0
C470 C 0.12753 0.32107 0.49909 0.0
C471 C 0.13384 0.25816 0.48079 0.0
N472 N 0.05625 0.29975 0.52965 0.0
N473 N 0.10843 0.25371 0.50099 0.0
H474 H 0.76639 0.15605 0.61897 0.0
H475 H 0.789 0.03303 0.73434 0.0
H476 H 0.87584 0.18405 0.65599 0.0
H477 H 0.6774 0.01342 0.70664 0.0
H478 H 0.81988 0.09821 0.71462 0.0
H479 H 0.73214 0.11494 0.65854 0.0
C480 C 0.78314 0.15475 0.63606 0.0
C481 C 0.82378 0.17326 0.63449 0.0
C482 C 0.78852 0.08013 0.71331 0.0
C483 C 0.78519 0.12536 0.67907 0.0
C484 C 0.77091 0.04288 0.72459 0.0
C485 C 0.73078 0.01766 0.72157 0.0
C486 C 0.76598 0.09179 0.69815 0.0
C487 C 0.70855 0.03194 0.70913 0.0
C488 C 0.76367 0.13109 0.65854 0.0
C489 C 0.84439 0.17022 0.65668 0.0
N490 N 0.72659 0.06776 0.69719 0.0
N491 N 0.82484 0.14604 0.67787 0.0
H492 H 0.25367 0.38043 0.31516 0.0
H493 H 0.10852 0.37639 0.20106 0.0
H494 H 0.12925 0.31701 0.3273 0.0
H495 H 0.19795 0.3486 0.18153 0.0
H496 H 0.1268 0.38165 0.24979 0.0
H497 H 0.24336 0.39555 0.26802 0.0
C498 C 0.22429 0.37064 0.30813 0.0
C499 C 0.19219 0.34731 0.32495 0.0
C500 C 0.14295 0.3754 0.23464 0.0
C501 C 0.18047 0.36512 0.27172 0.0
C502 C 0.1328 0.37267 0.20694 0.0
C503 C 0.1518 0.36199 0.18743 0.0
C504 C 0.17298 0.36853 0.24255 0.0
C505 C 0.18263 0.35681 0.19606 0.0
C506 C 0.2185 0.37911 0.28132 0.0
C507 C 0.15468 0.3349 0.31484 0.0
N508 N 0.19231 0.36011 0.22306 0.0
N509 N 0.1498 0.34398 0.28881 0.0
H510 H 0.77739 0.13992 0.49155 0.0
H511 H 0.85361 0.18998 0.34447 0.0
H512 H 0.87071 0.25621 0.47417 0.0
H513 H 0.72942 0.12504 0.3577 0.0
H514 H 0.86235 0.21365 0.39191 0.0
H515 H 0.75927 0.13166 0.44291 0.0
C516 C 0.79347 0.16398 0.47754 0.0
C517 C 0.82553 0.19876 0.48672 0.0
C518 C 0.83317 0.19489 0.38419 0.0
C519 C 0.8059 0.18907 0.43125 0.0
C520 C 0.82819 0.18127 0.35725 0.0
C521 C 0.79077 0.15546 0.3473 0.0
C522 C 0.80062 0.1815 0.40146 0.0
C523 C 0.75874 0.14501 0.36463 0.0
C524 C 0.78312 0.15929 0.44989 0.0
C525 C 0.84565 0.22904 0.46782 0.0
N526 N 0.76444 0.15732 0.39115 0.0
N527 N 0.83614 0.22315 0.44075 0.0
H528 H 0.66326 0.80149 0.66187 0.0
H529 H 0.63702 0.85113 0.51517 0.0
H530 H 0.60633 0.86878 0.6497 0.0
H531 H 0.60798 0.73309 0.53304 0.0
H532 H 0.62884 0.86091 0.56391 0.0
H533 H 0.64677 0.77739 0.61461 0.0
C534 C 0.64669 0.81059 0.64936 0.0
C535 C 0.63612 0.83711 0.65956 0.0
C536 C 0.62336 0.83261 0.55702 0.0
C537 C 0.61828 0.81069 0.60555 0.0
C538 C 0.62807 0.82705 0.52931 0.0
C539 C 0.6231 0.79127 0.52022 0.0
C540 C 0.61509 0.80264 0.57579 0.0
C541 C 0.61179 0.76101 0.5393 0.0
C542 C 0.63719 0.79676 0.62252 0.0
C543 C 0.61478 0.84818 0.64256 0.0
N544 N 0.60915 0.76768 0.5664 0.0
N545 N 0.60737 0.83566 0.61609 0.0
H546 H 0.80153 0.66231 0.67355 0.0
H547 H 0.84624 0.6262 0.81927 0.0
H548 H 0.86448 0.60062 0.68438 0.0
H549 H 0.73099 0.60561 0.8015 0.0
H550 H 0.85559 0.61869 0.77037 0.0
H551 H 0.7762 0.64439 0.72042 0.0
C552 C 0.80944 0.64443 0.68567 0.0
C553 C 0.83518 0.633 0.67523 0.0
C554 C 0.8279 0.61484 0.77729 0.0
C555 C 0.80725 0.61338 0.7288 0.0
C556 C 0.82259 0.61915 0.80509 0.0
C557 C 0.78781 0.61643 0.81426 0.0
C558 C 0.79878 0.60928 0.75851 0.0
C559 C 0.75812 0.60761 0.79515 0.0
C560 C 0.79488 0.63409 0.71229 0.0
C561 C 0.84459 0.60988 0.69171 0.0
N562 N 0.76465 0.60536 0.76798 0.0
N563 N 0.83139 0.6016 0.71799 0.0
H564 H 0.2563 0.8747 0.86803 0.0
H565 H 0.1202 0.73381 0.98669 0.0
H566 H 0.1415 0.77795 0.85187 0.0
H567 H 0.18155 0.85898 0.99467 0.0
H568 H 0.14544 0.74095 0.93964 0.0
H569 H 0.24604 0.85925 0.9173 0.0
C570 C 0.22953 0.84945 0.87478 0.0
C571 C 0.19957 0.82759 0.85606 0.0
C572 C 0.15401 0.7667 0.95203 0.0
C573 C 0.18804 0.80968 0.91181 0.0
C574 C 0.13983 0.7627 0.9788 0.0
C575 C 0.14865 0.79591 0.99436 0.0
C576 C 0.17796 0.80408 0.94121 0.0
C577 C 0.17388 0.83272 0.98316 0.0
C578 C 0.22364 0.84088 0.90278 0.0
C579 C 0.16517 0.79552 0.86578 0.0
N580 N 0.18765 0.83586 0.95718 0.0
N581 N 0.16024 0.78755 0.89307 0.0
H582 H 0.38234 0.1262 0.12484 0.0
H583 H 0.38275 0.26432 0.0058 0.0
H584 H 0.36477 0.22345 0.14039 0.0
H585 H 0.32185 0.13904 0.99849 0.0
H586 H 0.4027 0.25846 0.05242 0.0
H587 H 0.38691 0.14069 0.07544 0.0
C588 C 0.3808 0.15136 0.11791 0.0
C589 C 0.37299 0.17363 0.1365 0.0
C590 C 0.38576 0.23242 0.04026 0.0
C591 C 0.37862 0.19043 0.08061 0.0
C592 C 0.37451 0.23568 0.01372 0.0
C593 C 0.3503 0.20204 0.9985 0.0
C594 C 0.37352 0.19536 0.05123 0.0
C595 C 0.34018 0.16562 0.00975 0.0
C596 C 0.38313 0.15939 0.08984 0.0
C597 C 0.37062 0.20556 0.12658 0.0
N598 N 0.35173 0.16319 0.03555 0.0
N599 N 0.37328 0.21297 0.09923 0.0
loop_
_geom_bond_atom_site_label_1
_geom_bond_atom_site_label_2
_geom_bond_distance
_geom_bond_site_symmetry_2
_ccdc_geom_bond_type
Zn0 O3 2.031 . S
Zn0 O5 2.049 . S
Zn0 O10 2.067 . S
Zn1 O2 1.962 . S
Zn1 O4 1.986 . S
Zn1 O6 1.996 . S
Zn1 O9 1.943 . S
O2 Zn1 1.962 . S
O2 C7 1.254 . S
O3 Zn0 2.031 . S
O3 C7 1.269 . S
O4 Zn1 1.986 . S
O4 C11 1.262 . S
O5 Zn0 2.049 . S
O5 C13 1.260 . S
O6 Zn1 1.996 . S
O6 C13 1.257 . S
C7 O2 1.254 . S
C7 O3 1.269 . S
C8 O9 1.249 . S
C8 O10 1.270 . S
O9 Zn1 1.943 . S
O9 C8 1.249 . S
O10 Zn0 2.067 . S
O10 C8 1.270 . S
C11 O4 1.262 . S
C11 O12 1.232 . S
O12 C11 1.232 . S
C13 O5 1.260 . S
C13 O6 1.257 . S
Zn14 O17 2.031 . S
Zn14 O19 2.049 . S
Zn14 O24 2.067 . S
Zn15 O16 1.962 . S
Zn15 O18 1.986 . S
Zn15 O20 1.996 . S
Zn15 O23 1.943 . S
O16 Zn15 1.962 . S
O16 C21 1.254 . S
O17 Zn14 2.031 . S
O17 C21 1.269 . S
O18 Zn15 1.986 . S
O18 C25 1.262 . S
O19 Zn14 2.049 . S
O19 C27 1.260 . S
O20 Zn15 1.996 . S
O20 C27 1.257 . S
C21 O16 1.254 . S
C21 O17 1.269 . S
C22 O23 1.249 . S
C22 O24 1.270 . S
O23 Zn15 1.943 . S
O23 C22 1.249 . S
O24 Zn14 2.067 . S
O24 C22 1.270 . S
C25 O18 1.262 . S
C25 O26 1.232 . S
O26 C25 1.232 . S
C27 O19 1.260 . S
C27 O20 1.257 . S
Zn28 O31 2.031 . S
Zn28 O33 2.049 . S
Zn28 O38 2.067 . S
Zn29 O30 1.962 . S
Zn29 O32 1.986 . S
Zn29 O34 1.996 . S
Zn29 O37 1.943 . S
O30 Zn29 1.962 . S
O30 C35 1.254 . S
O31 Zn28 2.031 . S
O31 C35 1.269 . S
O32 Zn29 1.986 . S
O32 C39 1.262 . S
O33 Zn28 2.049 . S
O33 C41 1.260 . S
O34 Zn29 1.996 . S
O34 C41 1.257 . S
C35 O30 1.254 . S
C35 O31 1.269 . S
C36 O37 1.249 . S
C36 O38 1.270 . S
O37 Zn29 1.943 . S
O37 C36 1.249 . S
O38 Zn28 2.067 . S
O38 C36 1.270 . S
C39 O32 1.262 . S
C39 O40 1.232 . S
O40 C39 1.232 . S
C41 O33 1.260 . S
C41 O34 1.257 . S
Zn42 O45 2.031 . S
Zn42 O47 2.049 . S
Zn42 O52 2.067 . S
Zn43 O44 1.962 . S
Zn43 O46 1.986 . S
Zn43 O48 1.996 . S
Zn43 O51 1.943 . S
O44 Zn43 1.962 . S
O44 C49 1.254 . S
O45 Zn42 2.031 . S
O45 C49 1.269 . S
O46 Zn43 1.986 . S
O46 C53 1.262 . S
O47 Zn42 2.049 . S
O47 C55 1.260 . S
O48 Zn43 1.996 . S
O48 C55 1.257 . S
C49 O44 1.254 . S
C49 O45 1.269 . S
C50 O51 1.249 . S
C50 O52 1.270 . S
O51 Zn43 1.943 . S
O51 C50 1.249 . S
O52 Zn42 2.067 . S
O52 C50 1.270 . S
C53 O46 1.262 . S
C53 O54 1.232 . S
O54 C53 1.232 . S
C55 O47 1.260 . S
C55 O48 1.257 . S
Zn56 O59 2.031 . S
Zn56 O61 2.049 . S
Zn56 O66 2.067 . S
Zn57 O58 1.962 . S
Zn57 O60 1.986 . S
Zn57 O62 1.996 . S
Zn57 O65 1.943 . S
O58 Zn57 1.962 . S
O58 C63 1.254 . S
O59 Zn56 2.031 . S
O59 C63 1.269 . S
O60 Zn57 1.986 . S
O60 C67 1.262 . S
O61 Zn56 2.049 . S
O61 C69 1.260 . S
O62 Zn57 1.996 . S
O62 C69 1.257 . S
C63 O58 1.254 . S
C63 O59 1.269 . S
C64 O65 1.249 . S
C64 O66 1.270 . S
O65 Zn57 1.943 . S
O65 C64 1.249 . S
O66 Zn56 2.067 . S
O66 C64 1.270 . S
C67 O60 1.262 . S
C67 O68 1.232 . S
O68 C67 1.232 . S
C69 O61 1.260 . S
C69 O62 1.257 . S
Zn70 O73 2.031 . S
Zn70 O75 2.049 . S
Zn70 O80 2.067 . S
Zn71 O72 1.962 . S
Zn71 O74 1.986 . S
Zn71 O76 1.996 . S
Zn71 O79 1.943 . S
O72 Zn71 1.962 . S
O72 C77 1.254 . S
O73 Zn70 2.031 . S
O73 C77 1.269 . S
O74 Zn71 1.986 . S
O74 C81 1.262 . S
O75 Zn70 2.049 . S
O75 C83 1.260 . S
O76 Zn71 1.996 . S
O76 C83 1.257 . S
C77 O72 1.254 . S
C77 O73 1.269 . S
C78 O79 1.249 . S
C78 O80 1.270 . S
O79 Zn71 1.943 . S
O79 C78 1.249 . S
O80 Zn70 2.067 . S
O80 C78 1.270 . S
C81 O74 1.262 . S
C81 O82 1.232 . S
O82 C81 1.232 . S
C83 O75 1.260 . S
C83 O76 1.257 . S
Zn84 O87 2.031 . S
Zn84 O89 2.049 . S
Zn84 O94 2.067 . S
Zn85 O86 1.962 . S
Zn85 O88 1.986 . S
Zn85 O90 1.996 . S
Zn85 O93 1.943 . S
O86 Zn85 1.962 . S
O86 C91 1.254 . S
O87 Zn84 2.031 . S
O87 C91 1.269 . S
O88 Zn85 1.986 . S
O88 C95 1.262 . S
O89 Zn84 2.049 . S
O89 C97 1.260 . S
O90 Zn85 1.996 . S
O90 C97 1.257 . S
C91 O86 1.254 . S
C91 O87 1.269 . S
C92 O93 1.249 . S
C92 O94 1.270 . S
O93 Zn85 1.943 . S
O93 C92 1.249 . S
O94 Zn84 2.067 . S
O94 C92 1.270 . S
C95 O88 1.262 . S
C95 O96 1.232 . S
O96 C95 1.232 . S
C97 O89 1.260 . S
C97 O90 1.257 . S
Zn98 O101 2.031 . S
Zn98 O103 2.049 . S
Zn98 O108 2.067 . S
Zn99 O100 1.962 . S
Zn99 O102 1.986 . S
Zn99 O104 1.996 . S
Zn99 O107 1.943 . S
O100 Zn99 1.962 . S
O100 C105 1.254 . S
O101 Zn98 2.031 . S
O101 C105 1.269 . S
O102 Zn99 1.986 . S
O102 C109 1.262 . S
O103 Zn98 2.049 . S
O103 C111 1.260 . S
O104 Zn99 1.996 . S
O104 C111 1.257 . S
C105 O100 1.254 . S
C105 O101 1.269 . S
C106 O107 1.249 . S
C106 O108 1.270 . S
O107 Zn99 1.943 . S
O107 C106 1.249 . S
O108 Zn98 2.067 . S
O108 C106 1.270 . S
C109 O102 1.262 . S
C109 O110 1.232 . S
O110 C109 1.232 . S
C111 O103 1.260 . S
C111 O104 1.257 . S
Zn112 O115 2.031 . S
Zn112 O117 2.049 . S
Zn112 O122 2.067 . S
Zn113 O114 1.962 . S
Zn113 O116 1.986 . S
Zn113 O118 1.996 . S
Zn113 O121 1.943 . S
O114 Zn113 1.962 . S
O114 C119 1.254 . S
O115 Zn112 2.031 . S
O115 C119 1.269 . S
O116 Zn113 1.986 . S
O116 C123 1.262 . S
O117 Zn112 2.049 . S
O117 C125 1.260 . S
O118 Zn113 1.996 . S
O118 C125 1.257 . S
C119 O114 1.254 . S
C119 O115 1.269 . S
C120 O121 1.249 . S
C120 O122 1.270 . S
O121 Zn113 1.943 . S
O121 C120 1.249 . S
O122 Zn112 2.067 . S
O122 C120 1.270 . S
C123 O116 1.262 . S
C123 O124 1.232 . S
O124 C123 1.232 . S
C125 O117 1.260 . S
C125 O118 1.257 . S
Zn126 O129 2.031 . S
Zn126 O131 2.049 . S
Zn126 O136 2.067 . S
Zn127 O128 1.962 . S
Zn127 O130 1.986 . S
Zn127 O132 1.996 . S
Zn127 O135 1.943 . S
O128 Zn127 1.962 . S
O128 C133 1.254 . S
O129 Zn126 2.031 . S
O129 C133 1.269 . S
O130 Zn127 1.986 . S
O130 C137 1.262 . S
O131 Zn126 2.049 . S
O131 C139 1.260 . S
O132 Zn127 1.996 . S
O132 C139 1.257 . S
C133 O128 1.254 . S
C133 O129 1.269 . S
C134 O135 1.249 . S
C134 O136 1.270 . S
O135 Zn127 1.943 . S
O135 C134 1.249 . S
O136 Zn126 2.067 . S
O136 C134 1.270 . S
C137 O130 1.262 . S
C137 O138 1.232 . S
O138 C137 1.232 . S
C139 O131 1.260 . S
C139 O132 1.257 . S
Zn140 O143 2.031 . S
Zn140 O145 2.049 . S
Zn140 O150 2.067 . S
Zn141 O142 1.962 . S
Zn141 O144 1.986 . S
Zn141 O146 1.996 . S
Zn141 O149 1.943 . S
O142 Zn141 1.962 . S
O142 C147 1.254 . S
O143 Zn140 2.031 . S
O143 C147 1.269 . S
O144 Zn141 1.986 . S
O144 C151 1.262 . S
O145 Zn140 2.049 . S
O145 C153 1.260 . S
O146 Zn141 1.996 . S
O146 C153 1.257 . S
C147 O142 1.254 . S
C147 O143 1.269 . S
C148 O149 1.249 . S
C148 O150 1.270 . S
O149 Zn141 1.943 . S
O149 C148 1.249 . S
O150 Zn140 2.067 . S
O150 C148 1.270 . S
C151 O144 1.262 . S
C151 O152 1.232 . S
O152 C151 1.232 . S
C153 O145 1.260 . S
C153 O146 1.257 . S
Zn154 O157 2.031 . S
Zn154 O159 2.049 . S
Zn154 O164 2.067 . S
Zn155 O156 1.962 . S
Zn155 O158 1.986 . S
Zn155 O160 1.996 . S
Zn155 O163 1.943 . S
O156 Zn155 1.962 . S
O156 C161 1.254 . S
O157 Zn154 2.031 . S
O157 C161 1.269 . S
O158 Zn155 1.986 . S
O158 C165 1.262 . S
O159 Zn154 2.049 . S
O159 C167 1.260 . S
O160 Zn155 1.996 . S
O160 C167 1.257 . S
C161 O156 1.254 . S
C161 O157 1.269 . S
C162 O163 1.249 . S
C162 O164 1.270 . S
O163 Zn155 1.943 . S
O163 C162 1.249 . S
O164 Zn154 2.067 . S
O164 C162 1.270 . S
C165 O158 1.262 . S
C165 O166 1.232 . S
O166 C165 1.232 . S
C167 O159 1.260 . S
C167 O160 1.257 . S
H168 C174 0.930 . S
H169 C178 0.930 . S
H170 C183 0.929 . S
H171 C181 0.929 . S
H172 C176 0.929 . S
H173 C182 0.929 . S
C174 H168 0.930 . S
C174 C175 1.367 . S
C174 C182 1.378 . S
C175 C174 1.367 . S
C175 C183 1.433 . S
C176 H172 0.929 . S
C176 C178 1.378 . S
C176 C180 1.350 . S
C177 C180 1.463 . S
C177 C182 1.350 . S
C177 N185 1.427 . S
C178 H169 0.930 . S
C178 C176 1.378 . S
C178 C179 1.367 . S
C179 C178 1.367 . S
C179 C181 1.433 . S
C180 C176 1.350 . S
C180 C177 1.463 . S
C180 N184 1.427 . S
C181 H171 0.929 . S
C181 C179 1.433 . S
C181 N184 1.384 . S
C182 H173 0.929 . S
C182 C174 1.378 . S
C182 C177 1.350 . S
C183 H170 0.929 . S
C183 C175 1.433 . S
C183 N185 1.384 . S
N184 C180 1.427 . S
N184 C181 1.384 . S
N185 C177 1.427 . S
N185 C183 1.384 . S
H186 C192 0.930 . S
H187 C196 0.930 . S
H188 C201 0.929 . S
H189 C199 0.929 . S
H190 C194 0.929 . S
H191 C200 0.929 . S
C192 H186 0.930 . S
C192 C193 1.367 . S
C192 C200 1.378 . S
C193 C192 1.367 . S
C193 C201 1.433 . S
C194 H190 0.929 . S
C194 C196 1.378 . S
C194 C198 1.350 . S
C195 C198 1.463 . S
C195 C200 1.350 . S
C195 N203 1.427 . S
C196 H187 0.930 . S
C196 C194 1.378 . S
C196 C197 1.367 . S
C197 C196 1.367 . S
C197 C199 1.433 . S
C198 C194 1.350 . S
C198 C195 1.463 . S
C198 N202 1.427 . S
C199 H189 0.929 . S
C199 C197 1.433 . S
C199 N202 1.384 . S
C200 H191 0.929 . S
C200 C192 1.378 . S
C200 C195 1.350 . S
C201 H188 0.929 . S
C201 C193 1.433 . S
C201 N203 1.384 . S
N202 C198 1.427 . S
N202 C199 1.384 . S
N203 C195 1.427 . S
N203 C201 1.384 . S
H204 C210 0.930 . S
H205 C214 0.930 . S
H206 C219 0.929 . S
H207 C217 0.929 . S
H208 C212 0.929 . S
H209 C218 0.929 . S
C210 H204 0.930 . S
C210 C211 1.367 . S
C210 C218 1.378 . S
C211 C210 1.367 . S
C211 C219 1.433 . S
C212 H208 0.929 . S
C212 C214 1.378 . S
C212 C216 1.350 . S
C213 C216 1.463 . S
C213 C218 1.350 . S
C213 N221 1.427 . S
C214 H205 0.930 . S
C214 C212 1.378 . S
C214 C215 1.367 . S
C215 C214 1.367 . S
C215 C217 1.433 . S
C216 C212 1.350 . S
C216 C213 1.463 . S
C216 N220 1.427 . S
C217 H207 0.929 . S
C217 C215 1.433 . S
C217 N220 1.384 . S
C218 H209 0.929 . S
C218 C210 1.378 . S
C218 C213 1.350 . S
C219 H206 0.929 . S
C219 C211 1.433 . S
C219 N221 1.384 . S
N220 C216 1.427 . S
N220 C217 1.384 . S
N221 C213 1.427 . S
N221 C219 1.384 . S
H222 C228 0.930 . S
H223 C232 0.930 . S
H224 C237 0.929 . S
H225 C235 0.929 . S
H226 C230 0.929 . S
H227 C236 0.929 . S
C228 H222 0.930 . S
C228 C229 1.367 . S
C228 C236 1.378 . S
C229 C228 1.367 . S
C229 C237 1.433 . S
C230 H226 0.929 . S
C230 C232 1.378 . S
C230 C234 1.350 . S
C231 C234 1.463 . S
C231 C236 1.350 . S
C231 N239 1.427 . S
C232 H223 0.930 . S
C232 C230 1.378 . S
C232 C233 1.367 . S
C233 C232 1.367 . S
C233 C235 1.433 . S
C234 C230 1.350 . S
C234 C231 1.463 . S
C234 N238 1.427 . S
C235 H225 0.929 . S
C235 C233 1.433 . S
C235 N238 1.384 . S
C236 H227 0.929 . S
C236 C228 1.378 . S
C236 C231 1.350 . S
C237 H224 0.929 . S
C237 C229 1.433 . S
C237 N239 1.384 . S
N238 C234 1.427 . S
N238 C235 1.384 . S
N239 C231 1.427 . S
N239 C237 1.384 . S
H240 C246 0.930 . S
H241 C250 0.930 . S
H242 C255 0.929 . S
H243 C253 0.929 . S
H244 C248 0.929 . S
H245 C254 0.929 . S
C246 H240 0.930 . S
C246 C247 1.367 . S
C246 C254 1.378 . S
C247 C246 1.367 . S
C247 C255 1.433 . S
C248 H244 0.929 . S
C248 C250 1.378 . S
C248 C252 1.350 . S
C249 C252 1.463 . S
C249 C254 1.350 . S
C249 N257 1.427 . S
C250 H241 0.930 . S
C250 C248 1.378 . S
C250 C251 1.367 . S
C251 C250 1.367 . S
C251 C253 1.433 . S
C252 C248 1.350 . S
C252 C249 1.463 . S
C252 N256 1.427 . S
C253 H243 0.929 . S
C253 C251 1.433 . S
C253 N256 1.384 . S
C254 H245 0.929 . S
C254 C246 1.378 . S
C254 C249 1.350 . S
C255 H242 0.929 . S
C255 C247 1.433 . S
C255 N257 1.384 . S
N256 C252 1.427 . S
N256 C253 1.384 . S
N257 C249 1.427 . S
N257 C255 1.384 . S
H258 C264 0.930 . S
H259 C268 0.930 . S
H260 C273 0.929 . S
H261 C271 0.929 . S
H262 C266 0.929 . S
H263 C272 0.929 . S
C264 H258 0.930 . S
C264 C265 1.367 . S
C264 C272 1.378 . S
C265 C264 1.367 . S
C265 C273 1.433 . S
C266 H262 0.929 . S
C266 C268 1.378 . S
C266 C270 1.350 . S
C267 C270 1.463 . S
C267 C272 1.350 . S
C267 N275 1.427 . S
C268 H259 0.930 . S
C268 C266 1.378 . S
C268 C269 1.367 . S
C269 C268 1.367 . S
C269 C271 1.433 . S
C270 C266 1.350 . S
C270 C267 1.463 . S
C270 N274 1.427 . S
C271 H261 0.929 . S
C271 C269 1.433 . S
C271 N274 1.384 . S
C272 H263 0.929 . S
C272 C264 1.378 . S
C272 C267 1.350 . S
C273 H260 0.929 . S
C273 C265 1.433 . S
C273 N275 1.384 . S
N274 C270 1.427 . S
N274 C271 1.384 . S
N275 C267 1.427 . S
N275 C273 1.384 . S
H276 C282 0.930 . S
H277 C286 0.930 . S
H278 C291 0.929 . S
H279 C289 0.929 . S
H280 C284 0.929 . S
H281 C290 0.929 . S
C282 H276 0.930 . S
C282 C283 1.367 . S
C282 C290 1.378 . S
C283 C282 1.367 . S
C283 C291 1.433 . S
C284 H280 0.929 . S
C284 C286 1.378 1_554 S
C284 C288 1.350 . S
C285 C288 1.463 . S
C285 C290 1.350 . S
C285 N293 1.427 . S
C286 H277 0.930 . S
C286 C284 1.378 1_556 S
C286 C287 1.367 . S
C287 C286 1.367 . S
C287 C289 1.433 . S
C288 C284 1.350 . S
C288 C285 1.463 . S
C288 N292 1.427 . S
C289 H279 0.929 . S
C289 C287 1.433 . S
C289 N292 1.384 1_556 S
C290 H281 0.929 . S
C290 C282 1.378 . S
C290 C285 1.350 . S
C291 H278 0.929 . S
C291 C283 1.433 . S
C291 N293 1.384 . S
N292 C288 1.427 . S
N292 C289 1.384 1_554 S
N293 C285 1.427 . S
N293 C291 1.384 . S
H294 C300 0.930 . S
H295 C304 0.930 . S
H296 C309 0.929 . S
H297 C307 0.929 1_455 S
H298 C302 0.929 . S
H299 C308 0.929 . S
C300 H294 0.930 . S
C300 C301 1.367 . S
C300 C308 1.378 . S
C301 C300 1.367 . S
C301 C309 1.433 . S
C302 H298 0.929 . S
C302 C304 1.378 . S
C302 C306 1.350 . S
C303 C306 1.463 . S
C303 C308 1.350 . S
C303 N311 1.427 . S
C304 H295 0.930 . S
C304 C302 1.378 . S
C304 C305 1.367 . S
C305 C304 1.367 . S
C305 C307 1.433 . S
C306 C302 1.350 . S
C306 C303 1.463 . S
C306 N310 1.427 . S
C307 H297 0.929 1_655 S
C307 C305 1.433 . S
C307 N310 1.384 . S
C308 H299 0.929 . S
C308 C300 1.378 . S
C308 C303 1.350 . S
C309 H296 0.929 . S
C309 C301 1.433 . S
C309 N311 1.384 . S
N310 C306 1.427 . S
N310 C307 1.384 . S
N311 C303 1.427 . S
N311 C309 1.384 . S
H312 C318 0.930 . S
H313 C322 0.930 . S
H314 C327 0.929 . S
H315 C325 0.929 . S
H316 C320 0.929 . S
H317 C326 0.929 . S
C318 H312 0.930 . S
C318 C319 1.367 . S
C318 C326 1.378 . S
C319 C318 1.367 . S
C319 C327 1.433 . S
C320 H316 0.929 . S
C320 C322 1.378 . S
C320 C324 1.350 . S
C321 C324 1.463 . S
C321 C326 1.350 . S
C321 N329 1.427 . S
C322 H313 0.930 . S
C322 C320 1.378 . S
C322 C323 1.367 . S
C323 C322 1.367 . S
C323 C325 1.433 . S
C324 C320 1.350 . S
C324 C321 1.463 . S
C324 N328 1.427 . S
C325 H315 0.929 . S
C325 C323 1.433 . S
C325 N328 1.384 . S
C326 H317 0.929 . S
C326 C318 1.378 . S
C326 C321 1.350 . S
C327 H314 0.929 . S
C327 C319 1.433 . S
C327 N329 1.384 . S
N328 C324 1.427 . S
N328 C325 1.384 . S
N329 C321 1.427 . S
N329 C327 1.384 . S
H330 C336 0.930 . S
H331 C340 0.930 . S
H332 C345 0.929 . S
H333 C343 0.929 . S
H334 C338 0.929 . S
H335 C344 0.929 . S
C336 H330 0.930 . S
C336 C337 1.367 . S
C336 C344 1.378 . S
C337 C336 1.367 . S
C337 C345 1.433 . S
C338 H334 0.929 . S
C338 C340 1.378 . S
C338 C342 1.350 . S
C339 C342 1.463 . S
C339 C344 1.350 . S
C339 N347 1.427 . S
C340 H331 0.930 . S
C340 C338 1.378 . S
C340 C341 1.367 . S
C341 C340 1.367 . S
C341 C343 1.433 . S
C342 C338 1.350 . S
C342 C339 1.463 . S
C342 N346 1.427 . S
C343 H333 0.929 . S
C343 C341 1.433 . S
C343 N346 1.384 . S
C344 H335 0.929 . S
C344 C336 1.378 . S
C344 C339 1.350 . S
C345 H332 0.929 . S
C345 C337 1.433 . S
C345 N347 1.384 . S
N346 C342 1.427 . S
N346 C343 1.384 . S
N347 C339 1.427 . S
N347 C345 1.384 . S
H348 C354 0.930 . S
H349 C358 0.930 . S
H350 C363 0.929 . S
H351 C361 0.929 . S
H352 C356 0.929 . S
H353 C362 0.929 . S
C354 H348 0.930 . S
C354 C355 1.367 . S
C354 C362 1.378 . S
C355 C354 1.367 . S
C355 C363 1.433 . S
C356 H352 0.929 . S
C356 C358 1.378 . S
C356 C360 1.350 . S
C357 C360 1.463 . S
C357 C362 1.350 . S
C357 N365 1.427 . S
C358 H349 0.930 . S
C358 C356 1.378 . S
C358 C359 1.367 . S
C359 C358 1.367 . S
C359 C361 1.433 . S
C360 C356 1.350 . S
C360 C357 1.463 . S
C360 N364 1.427 . S
C361 H351 0.929 . S
C361 C359 1.433 . S
C361 N364 1.384 . S
C362 H353 0.929 . S
C362 C354 1.378 . S
C362 C357 1.350 . S
C363 H350 0.929 . S
C363 C355 1.433 . S
C363 N365 1.384 . S
N364 C360 1.427 . S
N364 C361 1.384 . S
N365 C357 1.427 . S
N365 C363 1.384 . S
H366 C372 0.930 . S
H367 C376 0.930 . S
H368 C381 0.929 . S
H369 C379 0.929 . S
H370 C374 0.929 . S
H371 C380 0.929 . S
C372 H366 0.930 . S
C372 C373 1.367 . S
C372 C380 1.378 . S
C373 C372 1.367 . S
C373 C381 1.433 . S
C374 H370 0.929 . S
C374 C376 1.378 . S
C374 C378 1.350 . S
C375 C378 1.463 . S
C375 C380 1.350 . S
C375 N383 1.427 . S
C376 H367 0.930 . S
C376 C374 1.378 . S
C376 C377 1.367 . S
C377 C376 1.367 . S
C377 C379 1.433 . S
C378 C374 1.350 . S
C378 C375 1.463 . S
C378 N382 1.427 . S
C379 H369 0.929 . S
C379 C377 1.433 . S
C379 N382 1.384 . S
C380 H371 0.929 . S
C380 C372 1.378 . S
C380 C375 1.350 . S
C381 H368 0.929 . S
C381 C373 1.433 . S
C381 N383 1.384 . S
N382 C378 1.427 . S
N382 C379 1.384 . S
N383 C375 1.427 . S
N383 C381 1.384 . S
H384 C390 0.930 . S
H385 C394 0.930 . S
H386 C399 0.929 . S
H387 C397 0.929 . S
H388 C392 0.929 . S
H389 C398 0.929 . S
C390 H384 0.930 . S
C390 C391 1.367 . S
C390 C398 1.378 . S
C391 C390 1.367 . S
C391 C399 1.433 . S
C392 H388 0.929 . S
C392 C394 1.378 . S
C392 C396 1.350 . S
C393 C396 1.463 . S
C393 C398 1.350 . S
C393 N401 1.427 . S
C394 H385 0.930 . S
C394 C392 1.378 . S
C394 C395 1.367 . S
C395 C394 1.367 . S
C395 C397 1.433 . S
C396 C392 1.350 . S
C396 C393 1.463 . S
C396 N400 1.427 . S
C397 H387 0.929 . S
C397 C395 1.433 . S
C397 N400 1.384 . S
C398 H389 0.929 . S
C398 C390 1.378 . S
C398 C393 1.350 . S
C399 H386 0.929 . S
C399 C391 1.433 . S
C399 N401 1.384 . S
N400 C396 1.427 . S
N400 C397 1.384 . S
N401 C393 1.427 . S
N401 C399 1.384 . S
H402 C408 0.930 . S
H403 C412 0.930 . S
H404 C417 0.929 . S
H405 C415 0.929 . S
H406 C410 0.929 . S
H407 C416 0.929 . S
C408 H402 0.930 . S
C408 C409 1.367 . S
C408 C416 1.378 . S
C409 C408 1.367 . S
C409 C417 1.433 . S
C410 H406 0.929 . S
C410 C412 1.378 1_556 S
C410 C414 1.350 . S
C411 C414 1.463 . S
C411 C416 1.350 . S
C411 N419 1.427 . S
C412 H403 0.930 . S
C412 C410 1.378 1_554 S
C412 C413 1.367 . S
C413 C412 1.367 . S
C413 C415 1.433 1_554 S
C414 C410 1.350 . S
C414 C411 1.463 . S
C414 N418 1.427 . S
C415 H405 0.929 . S
C415 C413 1.433 1_556 S
C415 N418 1.384 . S
C416 H407 0.929 . S
C416 C408 1.378 . S
C416 C411 1.350 . S
C417 H404 0.929 . S
C417 C409 1.433 . S
C417 N419 1.384 . S
N418 C414 1.427 . S
N418 C415 1.384 . S
N419 C411 1.427 . S
N419 C417 1.384 . S
H420 C426 0.930 1_545 S
H421 C430 0.930 . S
H422 C435 0.929 . S
H423 C433 0.929 . S
H424 C428 0.929 . S
H425 C434 0.929 . S
C426 H420 0.930 1_565 S
C426 C427 1.367 . S
C426 C434 1.378 . S
C427 C426 1.367 . S
C427 C435 1.433 . S
C428 H424 0.929 . S
C428 C430 1.378 . S
C428 C432 1.350 . S
C429 C432 1.463 . S
C429 C434 1.350 . S
C429 N437 1.427 . S
C430 H421 0.930 . S
C430 C428 1.378 . S
C430 C431 1.367 . S
C431 C430 1.367 . S
C431 C433 1.433 . S
C432 C428 1.350 . S
C432 C429 1.463 . S
C432 N436 1.427 . S
C433 H423 0.929 . S
C433 C431 1.433 . S
C433 N436 1.384 . S
C434 H425 0.929 . S
C434 C426 1.378 . S
C434 C429 1.350 . S
C435 H422 0.929 . S
C435 C427 1.433 . S
C435 N437 1.384 . S
N436 C432 1.427 . S
N436 C433 1.384 . S
N437 C429 1.427 . S
N437 C435 1.384 . S
H438 C444 0.930 . S
H439 C448 0.930 . S
H440 C453 0.929 . S
H441 C451 0.929 . S
H442 C446 0.929 . S
H443 C452 0.929 . S
C444 H438 0.930 . S
C444 C445 1.367 . S
C444 C452 1.378 . S
C445 C444 1.367 . S
C445 C453 1.433 . S
C446 H442 0.929 . S
C446 C448 1.378 . S
C446 C450 1.350 . S
C447 C450 1.463 . S
C447 C452 1.350 . S
C447 N455 1.427 . S
C448 H439 0.930 . S
C448 C446 1.378 . S
C448 C449 1.367 . S
C449 C448 1.367 . S
C449 C451 1.433 . S
C450 C446 1.350 . S
C450 C447 1.463 . S
C450 N454 1.427 . S
C451 H441 0.929 . S
C451 C449 1.433 . S
C451 N454 1.384 . S
C452 H443 0.929 . S
C452 C444 1.378 . S
C452 C447 1.350 . S
C453 H440 0.929 . S
C453 C445 1.433 . S
C453 N455 1.384 . S
N454 C450 1.427 . S
N454 C451 1.384 . S
N455 C447 1.427 . S
N455 C453 1.384 . S
H456 C462 0.930 . S
H457 C466 0.930 1_655 S
H458 C471 0.929 . S
H459 C469 0.929 . S
H460 C464 0.929 . S
H461 C470 0.929 . S
C462 H456 0.930 . S
C462 C463 1.367 . S
C462 C470 1.378 . S
C463 C462 1.367 . S
C463 C471 1.433 . S
C464 H460 0.929 . S
C464 C466 1.378 . S
C464 C468 1.350 . S
C465 C468 1.463 . S
C465 C470 1.350 . S
C465 N473 1.427 . S
C466 H457 0.930 1_455 S
C466 C464 1.378 . S
C466 C467 1.367 . S
C467 C466 1.367 . S
C467 C469 1.433 . S
C468 C464 1.350 . S
C468 C465 1.463 . S
C468 N472 1.427 . S
C469 H459 0.929 . S
C469 C467 1.433 . S
C469 N472 1.384 . S
C470 H461 0.929 . S
C470 C462 1.378 . S
C470 C465 1.350 . S
C471 H458 0.929 . S
C471 C463 1.433 . S
C471 N473 1.384 . S
N472 C468 1.427 . S
N472 C469 1.384 . S
N473 C465 1.427 . S
N473 C471 1.384 . S
H474 C480 0.930 . S
H475 C484 0.930 . S
H476 C489 0.929 . S
H477 C487 0.929 1_565 S
H478 C482 0.929 . S
H479 C488 0.929 . S
C480 H474 0.930 . S
C480 C481 1.367 . S
C480 C488 1.378 . S
C481 C480 1.367 . S
C481 C489 1.433 . S
C482 H478 0.929 . S
C482 C484 1.378 . S
C482 C486 1.350 . S
C483 C486 1.463 . S
C483 C488 1.350 . S
C483 N491 1.427 . S
C484 H475 0.930 . S
C484 C482 1.378 . S
C484 C485 1.367 . S
C485 C484 1.367 . S
C485 C487 1.433 . S
C486 C482 1.350 . S
C486 C483 1.463 . S
C486 N490 1.427 . S
C487 H477 0.929 1_545 S
C487 C485 1.433 . S
C487 N490 1.384 . S
C488 H479 0.929 . S
C488 C480 1.378 . S
C488 C483 1.350 . S
C489 H476 0.929 . S
C489 C481 1.433 . S
C489 N491 1.384 . S
N490 C486 1.427 . S
N490 C487 1.384 . S
N491 C483 1.427 . S
N491 C489 1.384 . S
H492 C498 0.930 . S
H493 C502 0.930 . S
H494 C507 0.929 . S
H495 C505 0.929 . S
H496 C500 0.929 . S
H497 C506 0.929 . S
C498 H492 0.930 . S
C498 C499 1.367 . S
C498 C506 1.378 . S
C499 C498 1.367 . S
C499 C507 1.433 . S
C500 H496 0.929 . S
C500 C502 1.378 . S
C500 C504 1.350 . S
C501 C504 1.463 . S
C501 C506 1.350 . S
C501 N509 1.427 . S
C502 H493 0.930 . S
C502 C500 1.378 . S
C502 C503 1.367 . S
C503 C502 1.367 . S
C503 C505 1.433 . S
C504 C500 1.350 . S
C504 C501 1.463 . S
C504 N508 1.427 . S
C505 H495 0.929 . S
C505 C503 1.433 . S
C505 N508 1.384 . S
C506 H497 0.929 . S
C506 C498 1.378 . S
C506 C501 1.350 . S
C507 H494 0.929 . S
C507 C499 1.433 . S
C507 N509 1.384 . S
N508 C504 1.427 . S
N508 C505 1.384 . S
N509 C501 1.427 . S
N509 C507 1.384 . S
H510 C516 0.930 . S
H511 C520 0.930 . S
H512 C525 0.929 . S
H513 C523 0.929 . S
H514 C518 0.929 . S
H515 C524 0.929 . S
C516 H510 0.930 . S
C516 C517 1.367 . S
C516 C524 1.378 . S
C517 C516 1.367 . S
C517 C525 1.433 . S
C518 H514 0.929 . S
C518 C520 1.378 . S
C518 C522 1.350 . S
C519 C522 1.463 . S
C519 C524 1.350 . S
C519 N527 1.427 . S
C520 H511 0.930 . S
C520 C518 1.378 . S
C520 C521 1.367 . S
C521 C520 1.367 . S
C521 C523 1.433 . S
C522 C518 1.350 . S
C522 C519 1.463 . S
C522 N526 1.427 . S
C523 H513 0.929 . S
C523 C521 1.433 . S
C523 N526 1.384 . S
C524 H515 0.929 . S
C524 C516 1.378 . S
C524 C519 1.350 . S
C525 H512 0.929 . S
C525 C517 1.433 . S
C525 N527 1.384 . S
N526 C522 1.427 . S
N526 C523 1.384 . S
N527 C519 1.427 . S
N527 C525 1.384 . S
H528 C534 0.930 . S
H529 C538 0.930 . S
H530 C543 0.929 . S
H531 C541 0.929 . S
H532 C536 0.929 . S
H533 C542 0.929 . S
C534 H528 0.930 . S
C534 C535 1.367 . S
C534 C542 1.378 . S
C535 C534 1.367 . S
C535 C543 1.433 . S
C536 H532 0.929 . S
C536 C538 1.378 . S
C536 C540 1.350 . S
C537 C540 1.463 . S
C537 C542 1.350 . S
C537 N545 1.427 . S
C538 H529 0.930 . S
C538 C536 1.378 . S
C538 C539 1.367 . S
C539 C538 1.367 . S
C539 C541 1.433 . S
C540 C536 1.350 . S
C540 C537 1.463 . S
C540 N544 1.427 . S
C541 H531 0.929 . S
C541 C539 1.433 . S
C541 N544 1.384 . S
C542 H533 0.929 . S
C542 C534 1.378 . S
C542 C537 1.350 . S
C543 H530 0.929 . S
C543 C535 1.433 . S
C543 N545 1.384 . S
N544 C540 1.427 . S
N544 C541 1.384 . S
N545 C537 1.427 . S
N545 C543 1.384 . S
H546 C552 0.930 . S
H547 C556 0.930 . S
H548 C561 0.929 . S
H549 C559 0.929 . S
H550 C554 0.929 . S
H551 C560 0.929 . S
C552 H546 0.930 . S
C552 C553 1.367 . S
C552 C560 1.378 . S
C553 C552 1.367 . S
C553 C561 1.433 . S
C554 H550 0.929 . S
C554 C556 1.378 . S
C554 C558 1.350 . S
C555 C558 1.463 . S
C555 C560 1.350 . S
C555 N563 1.427 . S
C556 H547 0.930 . S
C556 C554 1.378 . S
C556 C557 1.367 . S
C557 C556 1.367 . S
C557 C559 1.433 . S
C558 C554 1.350 . S
C558 C555 1.463 . S
C558 N562 1.427 . S
C559 H549 0.929 . S
C559 C557 1.433 . S
C559 N562 1.384 . S
C560 H551 0.929 . S
C560 C552 1.378 . S
C560 C555 1.350 . S
C561 H548 0.929 . S
C561 C553 1.433 . S
C561 N563 1.384 . S
N562 C558 1.427 . S
N562 C559 1.384 . S
N563 C555 1.427 . S
N563 C561 1.384 . S
H564 C570 0.930 . S
H565 C574 0.930 . S
H566 C579 0.929 . S
H567 C577 0.929 . S
H568 C572 0.929 . S
H569 C578 0.929 . S
C570 H564 0.930 . S
C570 C571 1.367 . S
C570 C578 1.378 . S
C571 C570 1.367 . S
C571 C579 1.433 . S
C572 H568 0.929 . S
C572 C574 1.378 . S
C572 C576 1.350 . S
C573 C576 1.463 . S
C573 C578 1.350 . S
C573 N581 1.427 . S
C574 H565 0.930 . S
C574 C572 1.378 . S
C574 C575 1.367 . S
C575 C574 1.367 . S
C575 C577 1.433 . S
C576 C572 1.350 . S
C576 C573 1.463 . S
C576 N580 1.427 . S
C577 H567 0.929 . S
C577 C575 1.433 . S
C577 N580 1.384 . S
C578 H569 0.929 . S
C578 C570 1.378 . S
C578 C573 1.350 . S
C579 H566 0.929 . S
C579 C571 1.433 . S
C579 N581 1.384 . S
N580 C576 1.427 . S
N580 C577 1.384 . S
N581 C573 1.427 . S
N581 C579 1.384 . S
H582 C588 0.930 . S
H583 C592 0.930 . S
H584 C597 0.929 . S
H585 C595 0.929 . S
H586 C590 0.929 . S
H587 C596 0.929 . S
C588 H582 0.930 . S
C588 C589 1.367 . S
C588 C596 1.378 . S
C589 C588 1.367 . S
C589 C597 1.433 . S
C590 H586 0.929 . S
C590 C592 1.378 . S
C590 C594 1.350 . S
C591 C594 1.463 . S
C591 C596 1.350 . S
C591 N599 1.427 . S
C592 H583 0.930 . S
C592 C590 1.378 . S
C592 C593 1.367 . S
C593 C592 1.367 . S
C593 C595 1.433 . S
C594 C590 1.350 . S
C594 C591 1.463 . S
C594 N598 1.427 . S
C595 H585 0.929 . S
C595 C593 1.433 . S
C595 N598 1.384 . S
C596 H587 0.929 . S
C596 C588 1.378 . S
C596 C591 1.350 . S
C597 H584 0.929 . S
C597 C589 1.433 . S
C597 N599 1.384 . S
N598 C594 1.427 . S
N598 C595 1.384 . S
N599 C591 1.427 . S
N599 C597 1.384 . S
C175 C123 1.421 . S
C179 C11 1.421 . S
C193 C25 1.420 . S
C197 C137 1.416 . S
C211 C39 1.420 . S
C215 C151 1.421 . S
C229 C53 1.417 . S
C233 C165 1.415 . S
C247 C95 1.415 . S
C251 C67 1.419 . S
C265 C81 1.421 . S
C269 C109 1.421 . S
C283 C13 1.295 . S
C287 C77 1.375 . S
C301 C27 1.292 . S
C305 C7 1.375 1_655 S
C319 C41 1.307 . S
C323 C21 1.369 1_565 S
C337 C35 1.369 . S
C341 C55 1.304 . S
C355 C49 1.370 1_455 S
C359 C69 1.302 . S
C373 C63 1.371 1_545 S
C377 C83 1.301 . S
C391 C105 1.368 . S
C395 C97 1.308 . S
C409 C111 1.306 . S
C413 C119 1.369 1_655 S
C427 C133 1.366 1_565 S
C431 C125 1.312 . S
C445 C139 1.294 . S
C449 C147 1.374 . S
C463 C153 1.312 . S
C467 C161 1.366 1_455 S
C481 C167 1.292 . S
C485 C91 1.375 1_545 S
C499 C148 1.258 . S
C503 C8 1.248 . S
C517 C162 1.244 . S
C521 C22 1.247 . S
C535 C92 1.246 . S
C539 C36 1.244 . S
C553 C50 1.244 . S
C557 C106 1.247 . S
C571 C64 1.251 . S
C575 C120 1.259 1_556 S
C589 C134 1.258 . S
C593 C78 1.254 1_554 S
