# Generated by pormake.
# Topology wnd, (6)-cn, num edge types: 1
# Building blocks:
#     Node 0, Type 0, BuildingBlock: BETDEL_clean_sbu_0, # of connection points: 6
#     Node 1, Type 0, BuildingBlock: BETDEL_clean_sbu_0, # of connection points: 6
#     Node 2, Type 0, BuildingBlock: BETDEL_clean_sbu_0, # of connection points: 6
#     Node 3, Type 0, BuildingBlock: BETDEL_clean_sbu_0, # of connection points: 6
#     Node 4, Type 0, BuildingBlock: BETDEL_clean_sbu_0, # of connection points: 6
#     Node 5, Type 0, BuildingBlock: BETDEL_clean_sbu_0, # of connection points: 6
#     Node 6, Type 0, BuildingBlock: BETDEL_clean_sbu_0, # of connection points: 6
#     Node 7, Type 0, BuildingBlock: BETDEL_clean_sbu_0, # of connection points: 6
#     Node 8, Type 0, BuildingBlock: BETDEL_clean_sbu_0, # of connection points: 6
#     Node 9, Type 0, BuildingBlock: BETDEL_clean_sbu_0, # of connection points: 6
#     Node 10, Type 0, BuildingBlock: BETDEL_clean_sbu_0, # of connection points: 6
#     Node 11, Type 0, BuildingBlock: BETDEL_clean_sbu_0, # of connection points: 6
#     Node 12, Type 0, BuildingBlock: BETDEL_clean_sbu_0, # of connection points: 6
#     Node 13, Type 0, BuildingBlock: BETDEL_clean_sbu_0, # of connection points: 6
#     Node 14, Type 0, BuildingBlock: BETDEL_clean_sbu_0, # of connection points: 6
#     Node 15, Type 0, BuildingBlock: BETDEL_clean_sbu_0, # of connection points: 6
#     Node 16, Type 0, BuildingBlock: BETDEL_clean_sbu_0, # of connection points: 6
#     Node 17, Type 0, BuildingBlock: BETDEL_clean_sbu_0, # of connection points: 6
#     Node 18, Type 0, BuildingBlock: BETDEL_clean_sbu_0, # of connection points: 6
#     Node 19, Type 0, BuildingBlock: BETDEL_clean_sbu_0, # of connection points: 6
#     Node 20, Type 0, BuildingBlock: BETDEL_clean_sbu_0, # of connection points: 6
#     Node 21, Type 0, BuildingBlock: BETDEL_clean_sbu_0, # of connection points: 6
#     Node 22, Type 0, BuildingBlock: BETDEL_clean_sbu_0, # of connection points: 6
#     Node 23, Type 0, BuildingBlock: BETDEL_clean_sbu_0, # of connection points: 6
#     Node 24, Type 0, BuildingBlock: BETDEL_clean_sbu_0, # of connection points: 6
#     Node 25, Type 0, BuildingBlock: BETDEL_clean_sbu_0, # of connection points: 6
#     Node 26, Type 0, BuildingBlock: BETDEL_clean_sbu_0, # of connection points: 6
#     Node 27, Type 0, BuildingBlock: BETDEL_clean_sbu_0, # of connection points: 6
#     Node 28, Type 0, BuildingBlock: BETDEL_clean_sbu_0, # of connection points: 6
#     Node 29, Type 0, BuildingBlock: BETDEL_clean_sbu_0, # of connection points: 6
#     Node 30, Type 0, BuildingBlock: BETDEL_clean_sbu_0, # of connection points: 6
#     Node 31, Type 0, BuildingBlock: BETDEL_clean_sbu_0, # of connection points: 6
#     Node 32, Type 0, BuildingBlock: BETDEL_clean_sbu_0, # of connection points: 6
#     Node 33, Type 0, BuildingBlock: BETDEL_clean_sbu_0, # of connection points: 6
#     Node 34, Type 0, BuildingBlock: BETDEL_clean_sbu_0, # of connection points: 6
#     Node 35, Type 0, BuildingBlock: BETDEL_clean_sbu_0, # of connection points: 6
#     Edge 36, Type (0, 0), BuildingBlock: EZIPEK_clean_linker_0, # of connection points: 2
#     Edge 37, Type (0, 0), BuildingBlock: EZIPEK_clean_linker_0, # of connection points: 2
#     Edge 38, Type (0, 0), BuildingBlock: EZIPEK_clean_linker_0, # of connection points: 2
#     Edge 39, Type (0, 0), BuildingBlock: EZIPEK_clean_linker_0, # of connection points: 2
#     Edge 40, Type (0, 0), BuildingBlock: EZIPEK_clean_linker_0, # of connection points: 2
#     Edge 41, Type (0, 0), BuildingBlock: EZIPEK_clean_linker_0, # of connection points: 2
#     Edge 42, Type (0, 0), BuildingBlock: EZIPEK_clean_linker_0, # of connection points: 2
#     Edge 43, Type (0, 0), BuildingBlock: EZIPEK_clean_linker_0, # of connection points: 2
#     Edge 44, Type (0, 0), BuildingBlock: EZIPEK_clean_linker_0, # of connection points: 2
#     Edge 45, Type (0, 0), BuildingBlock: EZIPEK_clean_linker_0, # of connection points: 2
#     Edge 46, Type (0, 0), BuildingBlock: EZIPEK_clean_linker_0, # of connection points: 2
#     Edge 47, Type (0, 0), BuildingBlock: EZIPEK_clean_linker_0, # of connection points: 2
#     Edge 48, Type (0, 0), BuildingBlock: EZIPEK_clean_linker_0, # of connection points: 2
#     Edge 49, Type (0, 0), BuildingBlock: EZIPEK_clean_linker_0, # of connection points: 2
#     Edge 50, Type (0, 0), BuildingBlock: EZIPEK_clean_linker_0, # of connection points: 2
#     Edge 51, Type (0, 0), BuildingBlock: EZIPEK_clean_linker_0, # of connection points: 2
#     Edge 52, Type (0, 0), BuildingBlock: EZIPEK_clean_linker_0, # of connection points: 2
#     Edge 53, Type (0, 0), BuildingBlock: EZIPEK_clean_linker_0, # of connection points: 2
#     Edge 54, Type (0, 0), BuildingBlock: EZIPEK_clean_linker_0, # of connection points: 2
#     Edge 55, Type (0, 0), BuildingBlock: EZIPEK_clean_linker_0, # of connection points: 2
#     Edge 56, Type (0, 0), BuildingBlock: EZIPEK_clean_linker_0, # of connection points: 2
#     Edge 57, Type (0, 0), BuildingBlock: EZIPEK_clean_linker_0, # of connection points: 2
#     Edge 58, Type (0, 0), BuildingBlock: EZIPEK_clean_linker_0, # of connection points: 2
#     Edge 59, Type (0, 0), BuildingBlock: EZIPEK_clean_linker_0, # of connection points: 2
#     Edge 60, Type (0, 0), BuildingBlock: EZIPEK_clean_linker_0, # of connection points: 2
#     Edge 61, Type (0, 0), BuildingBlock: EZIPEK_clean_linker_0, # of connection points: 2
#     Edge 62, Type (0, 0), BuildingBlock: EZIPEK_clean_linker_0, # of connection points: 2
#     Edge 63, Type (0, 0), BuildingBlock: EZIPEK_clean_linker_0, # of connection points: 2
#     Edge 64, Type (0, 0), BuildingBlock: EZIPEK_clean_linker_0, # of connection points: 2
#     Edge 65, Type (0, 0), BuildingBlock: EZIPEK_clean_linker_0, # of connection points: 2
#     Edge 66, Type (0, 0), BuildingBlock: EZIPEK_clean_linker_0, # of connection points: 2
#     Edge 67, Type (0, 0), BuildingBlock: EZIPEK_clean_linker_0, # of connection points: 2
#     Edge 68, Type (0, 0), BuildingBlock: EZIPEK_clean_linker_0, # of connection points: 2
#     Edge 69, Type (0, 0), BuildingBlock: EZIPEK_clean_linker_0, # of connection points: 2
#     Edge 70, Type (0, 0), BuildingBlock: EZIPEK_clean_linker_0, # of connection points: 2
#     Edge 71, Type (0, 0), BuildingBlock: EZIPEK_clean_linker_0, # of connection points: 2
#     Edge 72, Type (0, 0), BuildingBlock: EZIPEK_clean_linker_0, # of connection points: 2
#     Edge 73, Type (0, 0), BuildingBlock: EZIPEK_clean_linker_0, # of connection points: 2
#     Edge 74, Type (0, 0), BuildingBlock: EZIPEK_clean_linker_0, # of connection points: 2
#     Edge 75, Type (0, 0), BuildingBlock: EZIPEK_clean_linker_0, # of connection points: 2
#     Edge 76, Type (0, 0), BuildingBlock: EZIPEK_clean_linker_0, # of connection points: 2
#     Edge 77, Type (0, 0), BuildingBlock: EZIPEK_clean_linker_0, # of connection points: 2
#     Edge 78, Type (0, 0), BuildingBlock: EZIPEK_clean_linker_0, # of connection points: 2
#     Edge 79, Type (0, 0), BuildingBlock: EZIPEK_clean_linker_0, # of connection points: 2
#     Edge 80, Type (0, 0), BuildingBlock: EZIPEK_clean_linker_0, # of connection points: 2
#     Edge 81, Type (0, 0), BuildingBlock: EZIPEK_clean_linker_0, # of connection points: 2
#     Edge 82, Type (0, 0), BuildingBlock: EZIPEK_clean_linker_0, # of connection points: 2
#     Edge 83, Type (0, 0), BuildingBlock: EZIPEK_clean_linker_0, # of connection points: 2
#     Edge 84, Type (0, 0), BuildingBlock: EZIPEK_clean_linker_0, # of connection points: 2
#     Edge 85, Type (0, 0), BuildingBlock: EZIPEK_clean_linker_0, # of connection points: 2
#     Edge 86, Type (0, 0), BuildingBlock: EZIPEK_clean_linker_0, # of connection points: 2
#     Edge 87, Type (0, 0), BuildingBlock: EZIPEK_clean_linker_0, # of connection points: 2
#     Edge 88, Type (0, 0), BuildingBlock: EZIPEK_clean_linker_0, # of connection points: 2
#     Edge 89, Type (0, 0), BuildingBlock: EZIPEK_clean_linker_0, # of connection points: 2
#     Edge 90, Type (0, 0), BuildingBlock: EZIPEK_clean_linker_0, # of connection points: 2
#     Edge 91, Type (0, 0), BuildingBlock: EZIPEK_clean_linker_0, # of connection points: 2
#     Edge 92, Type (0, 0), BuildingBlock: EZIPEK_clean_linker_0, # of connection points: 2
#     Edge 93, Type (0, 0), BuildingBlock: EZIPEK_clean_linker_0, # of connection points: 2
#     Edge 94, Type (0, 0), BuildingBlock: EZIPEK_clean_linker_0, # of connection points: 2
#     Edge 95, Type (0, 0), BuildingBlock: EZIPEK_clean_linker_0, # of connection points: 2
#     Edge 96, Type (0, 0), BuildingBlock: EZIPEK_clean_linker_0, # of connection points: 2
#     Edge 97, Type (0, 0), BuildingBlock: EZIPEK_clean_linker_0, # of connection points: 2
#     Edge 98, Type (0, 0), BuildingBlock: EZIPEK_clean_linker_0, # of connection points: 2
#     Edge 99, Type (0, 0), BuildingBlock: EZIPEK_clean_linker_0, # of connection points: 2
#     Edge 100, Type (0, 0), BuildingBlock: EZIPEK_clean_linker_0, # of connection points: 2
#     Edge 101, Type (0, 0), BuildingBlock: EZIPEK_clean_linker_0, # of connection points: 2
#     Edge 102, Type (0, 0), BuildingBlock: EZIPEK_clean_linker_0, # of connection points: 2
#     Edge 103, Type (0, 0), BuildingBlock: EZIPEK_clean_linker_0, # of connection points: 2
#     Edge 104, Type (0, 0), BuildingBlock: EZIPEK_clean_linker_0, # of connection points: 2
#     Edge 105, Type (0, 0), BuildingBlock: EZIPEK_clean_linker_0, # of connection points: 2
#     Edge 106, Type (0, 0), BuildingBlock: EZIPEK_clean_linker_0, # of connection points: 2
#     Edge 107, Type (0, 0), BuildingBlock: EZIPEK_clean_linker_0, # of connection points: 2
#     Edge 108, Type (0, 0), BuildingBlock: EZIPEK_clean_linker_0, # of connection points: 2
#     Edge 109, Type (0, 0), BuildingBlock: EZIPEK_clean_linker_0, # of connection points: 2
#     Edge 110, Type (0, 0), BuildingBlock: EZIPEK_clean_linker_0, # of connection points: 2
#     Edge 111, Type (0, 0), BuildingBlock: EZIPEK_clean_linker_0, # of connection points: 2
#     Edge 112, Type (0, 0), BuildingBlock: EZIPEK_clean_linker_0, # of connection points: 2
#     Edge 113, Type (0, 0), BuildingBlock: EZIPEK_clean_linker_0, # of connection points: 2
#     Edge 114, Type (0, 0), BuildingBlock: EZIPEK_clean_linker_0, # of connection points: 2
#     Edge 115, Type (0, 0), BuildingBlock: EZIPEK_clean_linker_0, # of connection points: 2
#     Edge 116, Type (0, 0), BuildingBlock: EZIPEK_clean_linker_0, # of connection points: 2
#     Edge 117, Type (0, 0), BuildingBlock: EZIPEK_clean_linker_0, # of connection points: 2
#     Edge 118, Type (0, 0), BuildingBlock: EZIPEK_clean_linker_0, # of connection points: 2
#     Edge 119, Type (0, 0), BuildingBlock: EZIPEK_clean_linker_0, # of connection points: 2
#     Edge 120, Type (0, 0), BuildingBlock: EZIPEK_clean_linker_0, # of connection points: 2
#     Edge 121, Type (0, 0), BuildingBlock: EZIPEK_clean_linker_0, # of connection points: 2
#     Edge 122, Type (0, 0), BuildingBlock: EZIPEK_clean_linker_0, # of connection points: 2
#     Edge 123, Type (0, 0), BuildingBlock: EZIPEK_clean_linker_0, # of connection points: 2
#     Edge 124, Type (0, 0), BuildingBlock: EZIPEK_clean_linker_0, # of connection points: 2
#     Edge 125, Type (0, 0), BuildingBlock: EZIPEK_clean_linker_0, # of connection points: 2
#     Edge 126, Type (0, 0), BuildingBlock: EZIPEK_clean_linker_0, # of connection points: 2
#     Edge 127, Type (0, 0), BuildingBlock: EZIPEK_clean_linker_0, # of connection points: 2
#     Edge 128, Type (0, 0), BuildingBlock: EZIPEK_clean_linker_0, # of connection points: 2
#     Edge 129, Type (0, 0), BuildingBlock: EZIPEK_clean_linker_0, # of connection points: 2
#     Edge 130, Type (0, 0), BuildingBlock: EZIPEK_clean_linker_0, # of connection points: 2
#     Edge 131, Type (0, 0), BuildingBlock: EZIPEK_clean_linker_0, # of connection points: 2
#     Edge 132, Type (0, 0), BuildingBlock: EZIPEK_clean_linker_0, # of connection points: 2
#     Edge 133, Type (0, 0), BuildingBlock: EZIPEK_clean_linker_0, # of connection points: 2
#     Edge 134, Type (0, 0), BuildingBlock: EZIPEK_clean_linker_0, # of connection points: 2
#     Edge 135, Type (0, 0), BuildingBlock: EZIPEK_clean_linker_0, # of connection points: 2
#     Edge 136, Type (0, 0), BuildingBlock: EZIPEK_clean_linker_0, # of connection points: 2
#     Edge 137, Type (0, 0), BuildingBlock: EZIPEK_clean_linker_0, # of connection points: 2
#     Edge 138, Type (0, 0), BuildingBlock: EZIPEK_clean_linker_0, # of connection points: 2
#     Edge 139, Type (0, 0), BuildingBlock: EZIPEK_clean_linker_0, # of connection points: 2
#     Edge 140, Type (0, 0), BuildingBlock: EZIPEK_clean_linker_0, # of connection points: 2
#     Edge 141, Type (0, 0), BuildingBlock: EZIPEK_clean_linker_0, # of connection points: 2
#     Edge 142, Type (0, 0), BuildingBlock: EZIPEK_clean_linker_0, # of connection points: 2
#     Edge 143, Type (0, 0), BuildingBlock: EZIPEK_clean_linker_0, # of connection points: 2
# Relax obj value: 0.091
# Max RMSD: 0.175
# Mean RMSD: 0.175
data_MOF--net-wnd--node1-BETDEL_clean_sbu_0--edge1-EZIPEK_clean_linker_0
_symmetry_space_group_name_H-M    P1
_symmetry_Int_Tables_number       1
_symmetry_cell_setting            triclinic
loop_
_symmetry_equiv_pos_as_xyz
'x, y, z'
_cell_length_a     24.732559
_cell_length_b     24.75289
_cell_length_c     117.58957
_cell_angle_alpha  90.022853
_cell_angle_beta   90.132335
_cell_angle_gamma 119.86038
loop_
_atom_site_label
_atom_site_type_symbol
_atom_site_fract_x
_atom_site_fract_y
_atom_site_fract_z
_atom_type_partial_charge
Dy0 Dy 0.47263 0.07551 0.04899 0.0
C1 C 0.55447 0.90673 0.05643 0.0
C2 C 0.47716 0.18765 0.05109 0.0
Dy3 Dy 0.51639 0.99375 0.05675 0.0
O4 O 0.50999 0.16933 0.05674 0.0
O5 O 0.43812 0.14232 0.04449 0.0
O6 O 0.45393 0.0435 0.03126 0.0
O7 O 0.52947 0.04415 0.04015 0.0
C8 C 0.49828 0.02975 0.03082 0.0
C9 C 0.47505 0.04361 0.07363 0.0
O10 O 0.6114 0.07233 0.05694 0.0
O11 O 0.57852 0.13974 0.05098 0.0
O12 O 0.53932 0.92569 0.0656 0.0
O13 O 0.54721 0.93403 0.04765 0.0
O14 O 0.52454 0.03778 0.0744 0.0
O15 O 0.45126 0.02108 0.06418 0.0
O16 O 0.37885 0.98512 0.0508 0.0
O17 O 0.42112 0.9204 0.05186 0.0
C18 C 0.62336 0.12828 0.05424 0.0
C19 C 0.37245 0.92825 0.0509 0.0
Dy20 Dy 0.99534 0.42132 0.05094 0.0
C21 C 0.16831 0.67678 0.05595 0.0
C22 C 0.88706 0.31051 0.05318 0.0
Dy23 Dy 0.08042 0.5519 0.0571 0.0
O24 O 0.9289 0.32226 0.04536 0.0
O25 O 0.90728 0.35718 0.06013 0.0
O26 O 0.02694 0.43124 0.03313 0.0
O27 O 0.02496 0.50706 0.04116 0.0
C28 C 0.03892 0.48845 0.032 0.0
C29 C 0.03276 0.46742 0.07504 0.0
O30 O 1.0005 0.56661 0.05687 0.0
O31 O 0.931 0.46249 0.05372 0.0
O32 O 0.15981 0.64112 0.06471 0.0
O33 O 0.12928 0.64415 0.04802 0.0
O34 O 0.04295 0.52443 0.07553 0.0
O35 O 0.05219 0.4618 0.06554 0.0
O36 O 0.08733 0.42214 0.05441 0.0
O37 O 0.14835 0.52631 0.05031 0.0
C38 C 0.94345 0.52065 0.05565 0.0
C39 C 0.14337 0.47179 0.05232 0.0
Dy40 Dy 0.65077 0.60099 0.05129 0.0
C41 C 0.39701 0.51991 0.05758 0.0
C42 C 0.76091 0.6026 0.0543 0.0
Dy43 Dy 0.52168 0.55475 0.05758 0.0
O44 O 0.74756 0.62618 0.04555 0.0
O45 O 0.71619 0.58281 0.06165 0.0
O46 O 0.6452 0.62612 0.03369 0.0
O47 O 0.56544 0.54821 0.04104 0.0
C48 C 0.58744 0.58306 0.03213 0.0
C49 C 0.60502 0.58689 0.07547 0.0
O50 O 0.5054 0.46071 0.05494 0.0
O51 O 0.60943 0.49509 0.05203 0.0
O52 O 0.42662 0.51164 0.06595 0.0
O53 O 0.43589 0.54861 0.04938 0.0
O54 O 0.54847 0.53972 0.07565 0.0
O55 O 0.61107 0.61511 0.0663 0.0
O56 O 0.65293 0.69461 0.05278 0.0
O57 O 0.54613 0.65219 0.0547 0.0
C58 C 0.55086 0.44934 0.05321 0.0
C59 C 0.60215 0.70081 0.05335 0.0
Dy60 Dy 0.07179 0.46999 0.4696 0.0
C61 C 0.89554 0.55195 0.46285 0.0
C62 C 0.177 0.46236 0.46596 0.0
Dy63 Dy 0.98143 0.51106 0.46286 0.0
O64 O 0.13385 0.429 0.47347 0.0
O65 O 0.15999 0.49698 0.46057 0.0
O66 O 0.10024 0.52248 0.48576 0.0
O67 O 1.00999 0.49169 0.47983 0.0
C68 C 0.04985 0.52482 0.48742 0.0
C69 C 0.03573 0.47685 0.44538 0.0
O70 O 0.0614 0.60321 0.46646 0.0
O71 O 0.1295 0.56877 0.46283 0.0
O72 O 0.90221 0.51995 0.45469 0.0
O73 O 0.93509 0.56058 0.47086 0.0
O74 O 0.02668 0.52459 0.44502 0.0
O75 O 0.01514 0.45259 0.45483 0.0
O76 O 0.98079 0.37553 0.4699 0.0
O77 O 0.91163 0.41295 0.46679 0.0
C78 C 0.11808 0.61485 0.46459 0.0
C79 C 0.92289 0.36674 0.46868 0.0
Dy80 Dy 0.58622 0.64556 0.46616 0.0
C81 C 0.50273 0.38436 0.46047 0.0
C82 C 0.60347 0.76349 0.46528 0.0
Dy83 Dy 0.54799 0.5119 0.46009 0.0
O84 O 0.60943 0.73705 0.47438 0.0
O85 O 0.59533 0.72804 0.4566 0.0
O86 O 0.54023 0.61942 0.48293 0.0
O87 O 0.57879 0.56692 0.47635 0.0
C88 C 0.54723 0.5715 0.48455 0.0
C89 C 0.58174 0.59524 0.44205 0.0
O90 O 0.45574 0.49778 0.46518 0.0
O91 O 0.48179 0.60094 0.46354 0.0
O92 O 0.48976 0.41405 0.45276 0.0
O93 O 0.54092 0.42464 0.46779 0.0
O94 O 0.58809 0.54595 0.44221 0.0
O95 O 0.55169 0.59162 0.45094 0.0
O96 O 0.68182 0.6513 0.46431 0.0
O97 O 0.64764 0.54495 0.46293 0.0
C98 C 0.44007 0.54119 0.46493 0.0
C99 C 0.69274 0.60337 0.46369 0.0
Dy100 Dy 0.41114 0.98423 0.4688 0.0
C101 C 0.67188 0.1681 0.46164 0.0
C102 C 0.30005 0.87725 0.46599 0.0
Dy103 Dy 0.5473 0.07876 0.46068 0.0
O104 O 0.31049 0.91965 0.47366 0.0
O105 O 0.34917 0.89487 0.45975 0.0
O106 O 0.4259 0.98017 0.48748 0.0
O107 O 0.50237 0.03448 0.47693 0.0
C108 C 0.4861 0.01544 0.4871 0.0
C109 C 0.45584 0.02037 0.44394 0.0
O110 O 0.55958 0.9987 0.46462 0.0
O111 O 0.45472 0.92507 0.46407 0.0
O112 O 0.64692 0.1224 0.45434 0.0
O113 O 0.62801 0.16646 0.46796 0.0
O114 O 0.51572 0.04344 0.44235 0.0
O115 O 0.45216 0.03798 0.45378 0.0
O116 O 0.40826 0.07607 0.46762 0.0
O117 O 0.51348 0.14577 0.46342 0.0
C118 C 0.51442 0.94053 0.46416 0.0
C119 C 0.45605 0.13382 0.46564 0.0
Dy120 Dy 0.55495 0.06727 0.95998 0.0
C121 C 0.60622 0.87404 0.96448 0.0
C122 C 0.5194 0.15554 0.96241 0.0
Dy123 Dy 0.60494 0.98313 0.96661 0.0
O124 O 0.52894 0.13632 0.95269 0.0
O125 O 0.52987 0.12706 0.97063 0.0
O126 O 0.5332 0.0238 0.94222 0.0
O127 O 0.60907 0.03153 0.95123 0.0
C128 C 0.57635 0.00816 0.94246 0.0
C129 C 0.5877 0.03688 0.98479 0.0
O130 O 0.69743 0.07175 0.96342 0.0
O131 O 0.65563 0.13778 0.96246 0.0
O132 O 0.62466 0.90934 0.97351 0.0
O133 O 0.59216 0.90101 0.95653 0.0
O134 O 0.63257 0.0239 0.98384 0.0
O135 O 0.55271 0.01798 0.97597 0.0
O136 O 0.46187 0.98445 0.96153 0.0
O137 O 0.49922 0.9197 0.9671 0.0
C138 C 0.70398 0.12869 0.96286 0.0
C139 C 0.4522 0.92945 0.96471 0.0
Dy140 Dy 0.99646 0.50647 0.95943 0.0
C141 C 0.18995 0.74528 0.96639 0.0
C142 C 0.90413 0.38228 0.95814 0.0
Dy143 Dy 0.08067 0.63369 0.9665 0.0
O144 O 0.95681 0.4075 0.95272 0.0
O145 O 0.90097 0.42569 0.96378 0.0
O146 O 0.03567 0.53664 0.94115 0.0
O147 O 0.02656 0.59846 0.95131 0.0
C148 C 0.04731 0.59383 0.94192 0.0
C149 C 0.03199 0.5633 0.98497 0.0
O150 O 0.99117 0.63654 0.96267 0.0
O151 O 0.9293 0.5323 0.96641 0.0
O152 O 0.14876 0.72662 0.97449 0.0
O153 O 0.16901 0.70502 0.95818 0.0
O154 O 0.04322 0.6202 0.9839 0.0
O155 O 0.04817 0.54584 0.97593 0.0
O156 O 0.07179 0.48782 0.96357 0.0
O157 O 0.14307 0.5918 0.96258 0.0
C158 C 0.93482 0.5871 0.96451 0.0
C159 C 0.12937 0.53274 0.96275 0.0
Dy160 Dy 0.5594 0.50863 0.95955 0.0
C161 C 0.31138 0.45145 0.96337 0.0
C162 C 0.68392 0.54523 0.95937 0.0
Dy163 Dy 0.42374 0.46071 0.96731 0.0
O164 O 0.64776 0.52798 0.95045 0.0
O165 O 0.65177 0.54148 0.96832 0.0
O166 O 0.52644 0.51776 0.94173 0.0
O167 O 0.46629 0.44709 0.95251 0.0
C168 C 0.46979 0.47134 0.94297 0.0
C169 C 0.49422 0.50519 0.98599 0.0
O170 O 0.42455 0.36892 0.96734 0.0
O171 O 0.53125 0.41047 0.96384 0.0
O172 O 0.32245 0.42274 0.97161 0.0
O173 O 0.36017 0.48083 0.957 0.0
O174 O 0.43375 0.47817 0.986 0.0
O175 O 0.51372 0.50463 0.97594 0.0
O176 O 0.56821 0.60051 0.96167 0.0
O177 O 0.46222 0.56359 0.96325 0.0
C178 C 0.47521 0.36283 0.96617 0.0
C179 C 0.52064 0.60995 0.96233 0.0
Dy180 Dy 0.08177 0.55379 0.56005 0.0
C181 C 0.8944 0.62188 0.55547 0.0
C182 C 0.16566 0.51082 0.55888 0.0
Dy183 Dy 0.99184 0.60083 0.55373 0.0
O184 O 0.1711 0.55527 0.56562 0.0
O185 O 0.11423 0.48962 0.55316 0.0
O186 O 0.04337 0.54152 0.57856 0.0
O187 O 0.04542 0.60849 0.56834 0.0
C188 C 0.02682 0.584 0.57784 0.0
C189 C 0.01716 0.54857 0.53572 0.0
O190 O 0.08525 0.69232 0.55542 0.0
O191 O 0.15047 0.64916 0.55462 0.0
O192 O 0.93699 0.64561 0.54751 0.0
O193 O 0.90946 0.59288 0.56291 0.0
O194 O 0.96511 0.5476 0.5375 0.0
O195 O 0.05516 0.58076 0.5436 0.0
O196 O 0.99808 0.4642 0.55646 0.0
O197 O 0.9295 0.50027 0.55912 0.0
C198 C 0.14225 0.69792 0.55518 0.0
C199 C 0.94128 0.45389 0.5579 0.0
Dy200 Dy 0.51372 0.5578 0.55733 0.0
C201 C 0.47437 0.31615 0.55181 0.0
C202 C 0.55652 0.68374 0.55719 0.0
Dy203 Dy 0.48363 0.43045 0.55036 0.0
O204 O 0.54806 0.65037 0.56628 0.0
O205 O 0.54107 0.64816 0.54829 0.0
O206 O 0.45856 0.51643 0.57376 0.0
O207 O 0.50612 0.47608 0.56656 0.0
C208 C 0.46765 0.46892 0.57428 0.0
C209 C 0.52632 0.50782 0.53253 0.0
O210 O 0.3859 0.42304 0.55141 0.0
O211 O 0.41661 0.528 0.553 0.0
O212 O 0.44756 0.33191 0.54391 0.0
O213 O 0.50105 0.36062 0.55917 0.0
O214 O 0.53261 0.45934 0.53393 0.0
O215 O 0.49164 0.50956 0.54042 0.0
O216 O 0.61149 0.57835 0.55629 0.0
O217 O 0.58892 0.4778 0.55242 0.0
C218 C 0.37277 0.4694 0.55215 0.0
C219 C 0.62936 0.5374 0.55438 0.0
Dy220 Dy 0.51589 0.99645 0.55896 0.0
C221 C 0.76229 0.18908 0.55692 0.0
C222 C 0.3913 0.90867 0.55984 0.0
Dy223 Dy 0.65248 0.08407 0.55217 0.0
O224 O 0.41467 0.96731 0.56224 0.0
O225 O 0.43619 0.89756 0.55756 0.0
O226 O 0.54497 0.03149 0.5775 0.0
O227 O 0.60737 0.02778 0.56668 0.0
C228 C 0.60294 0.04587 0.57636 0.0
C229 C 0.58686 0.05929 0.53281 0.0
O230 O 0.65034 0.99079 0.55345 0.0
O231 O 0.54225 0.92966 0.55184 0.0
O232 O 0.74885 0.15869 0.54731 0.0
O233 O 0.7189 0.15711 0.56421 0.0
O234 O 0.64734 0.09121 0.53343 0.0
O235 O 0.56384 0.03809 0.54266 0.0
O236 O 0.50731 0.07634 0.55362 0.0
O237 O 0.61165 0.1463 0.55615 0.0
C238 C 0.59813 0.93511 0.55258 0.0
C239 C 0.55342 0.13353 0.55464 0.0
Dy240 Dy 0.13115 0.41722 0.38425 0.0
C241 C 0.21098 0.23415 0.39102 0.0
C242 C 0.12832 0.52494 0.38724 0.0
Dy243 Dy 0.17405 0.32286 0.39209 0.0
O244 O 0.09521 0.48244 0.37966 0.0
O245 O 0.15943 0.50642 0.39346 0.0
O246 O 0.1462 0.42161 0.36565 0.0
O247 O 0.16915 0.36541 0.37576 0.0
C248 C 0.16861 0.38397 0.36561 0.0
C249 C 0.13759 0.37775 0.40908 0.0
O250 O 0.26725 0.40346 0.38886 0.0
O251 O 0.23611 0.47714 0.38718 0.0
O252 O 0.22961 0.27846 0.39858 0.0
O253 O 0.1699 0.2368 0.38448 0.0
O254 O 0.17472 0.35488 0.41057 0.0
O255 O 0.11843 0.36213 0.39908 0.0
O256 O 0.03741 0.3237 0.3848 0.0
O257 O 0.07414 0.25467 0.3891 0.0
C258 C 0.28016 0.46141 0.3878 0.0
C259 C 0.02843 0.26596 0.38661 0.0
Dy260 Dy 0.64845 0.75562 0.38156 0.0
C261 C 0.82696 0.01229 0.39018 0.0
C262 C 0.54478 0.64178 0.38446 0.0
Dy263 Dy 0.73748 0.8867 0.38905 0.0
O264 O 0.58456 0.65552 0.3761 0.0
O265 O 0.56511 0.68819 0.39151 0.0
O266 O 0.62305 0.7795 0.36501 0.0
O267 O 0.71113 0.84079 0.37171 0.0
C268 C 0.67271 0.83307 0.36365 0.0
C269 C 0.6786 0.79659 0.40615 0.0
O270 O 0.66171 0.90063 0.38286 0.0
O271 O 0.5896 0.7995 0.38663 0.0
O272 O 0.77709 0.98451 0.39643 0.0
O273 O 0.82894 0.97071 0.38373 0.0
O274 O 0.69332 0.8549 0.40706 0.0
O275 O 0.70072 0.79395 0.39677 0.0
O276 O 0.74132 0.75414 0.38136 0.0
O277 O 0.80798 0.85699 0.38735 0.0
C278 C 0.60383 0.85762 0.38444 0.0
C279 C 0.7983 0.80169 0.38409 0.0
Dy280 Dy 0.31179 0.93277 0.38226 0.0
C281 C 0.0528 0.85323 0.38749 0.0
C282 C 0.42841 0.94641 0.38286 0.0
Dy283 Dy 0.17916 0.89372 0.38853 0.0
O284 O 0.41049 0.97412 0.37551 0.0
O285 O 0.38397 0.915 0.39003 0.0
O286 O 0.28363 0.87693 0.36638 0.0
O287 O 0.22923 0.91404 0.37191 0.0
C288 C 0.23342 0.87892 0.36446 0.0
C289 C 0.26344 0.92348 0.40654 0.0
O290 O 0.16849 0.80159 0.38522 0.0
O291 O 0.2704 0.83469 0.38945 0.0
O292 O 0.09142 0.89188 0.39507 0.0
O293 O 0.0834 0.83696 0.3807 0.0
O294 O 0.2052 0.87893 0.40675 0.0
O295 O 0.27069 0.94854 0.39702 0.0
O296 O 0.31621 0.02818 0.38281 0.0
O297 O 0.20913 0.99196 0.38442 0.0
C298 C 0.21267 0.7891 0.38761 0.0
C299 C 0.26732 0.03788 0.38342 0.0
Dy300 Dy 0.74378 0.78376 0.79963 0.0
C301 C 0.57441 0.88155 0.79405 0.0
C302 C 0.84721 0.77583 0.79544 0.0
Dy303 Dy 0.65913 0.83988 0.79326 0.0
O304 O 0.80471 0.74143 0.80291 0.0
O305 O 0.83003 0.80974 0.78981 0.0
O306 O 0.74875 0.79267 0.81856 0.0
O307 O 0.69826 0.82516 0.80908 0.0
C308 C 0.71616 0.8206 0.81904 0.0
C309 C 0.71226 0.80579 0.77594 0.0
O310 O 0.74331 0.92765 0.79761 0.0
O311 O 0.80949 0.88756 0.79616 0.0
O312 O 0.57898 0.84901 0.78576 0.0
O313 O 0.6163 0.8915 0.80168 0.0
O314 O 0.70398 0.85398 0.77537 0.0
O315 O 0.68958 0.77949 0.7852 0.0
O316 O 0.64862 0.69586 0.79701 0.0
O317 O 0.58839 0.74428 0.79868 0.0
C318 C 0.79983 0.93563 0.79714 0.0
C319 C 0.59323 0.69351 0.79783 0.0
Dy320 Dy 0.26159 0.96578 0.80024 0.0
C321 C 0.18371 0.71146 0.79596 0.0
C322 C 0.26489 0.07743 0.79914 0.0
Dy323 Dy 0.22019 0.83606 0.7937 0.0
O324 O 0.29318 0.06288 0.80687 0.0
O325 O 0.23899 0.03288 0.79178 0.0
O326 O 0.28425 0.95511 0.81795 0.0
O327 O 0.20824 0.87885 0.80975 0.0
C328 C 0.24043 0.89743 0.81896 0.0
C329 C 0.24724 0.91927 0.77601 0.0
O330 O 0.12507 0.81952 0.79336 0.0
O331 O 0.15546 0.92158 0.79793 0.0
O332 O 0.20661 0.7441 0.7867 0.0
O333 O 0.18172 0.74721 0.8038 0.0
O334 O 0.20392 0.86074 0.77554 0.0
O335 O 0.27649 0.92702 0.78516 0.0
O336 O 0.35616 0.97225 0.79745 0.0
O337 O 0.31832 0.86586 0.7983 0.0
C338 C 0.11182 0.86364 0.79524 0.0
C339 C 0.36542 0.92351 0.7981 0.0
Dy340 Dy 0.08753 0.31119 0.80301 0.0
C341 C 0.33848 0.48844 0.79495 0.0
C342 C 0.97992 0.19886 0.8009 0.0
Dy343 Dy 0.21463 0.3974 0.79621 0.0
O344 O 0.99137 0.23838 0.80916 0.0
O345 O 0.02548 0.22217 0.79372 0.0
O346 O 0.09921 0.34195 0.82086 0.0
O347 O 0.17544 0.34321 0.81233 0.0
C348 C 0.15726 0.35611 0.82162 0.0
C349 C 0.12752 0.34926 0.77862 0.0
O350 O 0.23418 0.3214 0.79905 0.0
O351 O 0.13001 0.24903 0.7996 0.0
O352 O 0.30868 0.44502 0.78741 0.0
O353 O 0.30006 0.48321 0.80293 0.0
O354 O 0.18386 0.35792 0.77815 0.0
O355 O 0.12285 0.36877 0.78816 0.0
O356 O 0.08178 0.40079 0.80129 0.0
O357 O 0.18855 0.46758 0.80131 0.0
C358 C 0.18923 0.26355 0.79895 0.0
C359 C 0.13134 0.4583 0.80173 0.0
Dy360 Dy 0.23691 0.40638 0.29422 0.0
C361 C 0.27636 0.20453 0.29831 0.0
C362 C 0.20295 0.49649 0.29438 0.0
Dy363 Dy 0.27744 0.31279 0.30221 0.0
O364 O 0.21352 0.47315 0.28528 0.0
O365 O 0.21274 0.47186 0.30332 0.0
O366 O 0.23242 0.36867 0.27616 0.0
O367 O 0.29474 0.36908 0.2875 0.0
C368 C 0.27323 0.35047 0.27773 0.0
C369 C 0.23657 0.34224 0.32074 0.0
O370 O 0.37228 0.40432 0.30166 0.0
O371 O 0.33625 0.47426 0.29805 0.0
O372 O 0.30885 0.24372 0.30641 0.0
O373 O 0.24806 0.22637 0.29217 0.0
O374 O 0.26073 0.30613 0.32074 0.0
O375 O 0.23801 0.36325 0.31072 0.0
O376 O 0.14208 0.32643 0.29556 0.0
O377 O 0.17355 0.2535 0.29804 0.0
C378 C 0.38188 0.46237 0.30019 0.0
C379 C 0.12939 0.26852 0.29651 0.0
Dy380 Dy 0.665 0.83759 0.29087 0.0
C381 C 0.86391 0.08692 0.29549 0.0
C382 C 0.58639 0.71068 0.29283 0.0
Dy383 Dy 0.76115 0.97046 0.29692 0.0
O384 O 0.58185 0.74589 0.28505 0.0
O385 O 0.63468 0.7446 0.29915 0.0
O386 O 0.66008 0.87258 0.27285 0.0
O387 O 0.74194 0.9165 0.2818 0.0
C388 C 0.71582 0.92106 0.27294 0.0
C389 C 0.72315 0.89694 0.31544 0.0
O390 O 0.66988 0.97364 0.29348 0.0
O391 O 0.60081 0.86912 0.29678 0.0
O392 O 0.82578 0.06642 0.30411 0.0
O393 O 0.84178 0.04616 0.28736 0.0
O394 O 0.77786 0.94535 0.31413 0.0
O395 O 0.68847 0.89311 0.30702 0.0
O396 O 0.74438 0.82105 0.2927 0.0
O397 O 0.82066 0.9239 0.29563 0.0
C398 C 0.61124 0.92572 0.29474 0.0
C399 C 0.80274 0.8638 0.29445 0.0
Dy400 Dy 0.23325 0.84733 0.29182 0.0
C401 C 0.98018 0.77572 0.29576 0.0
C402 C 0.36073 0.89155 0.29135 0.0
Dy403 Dy 0.098 0.79616 0.29812 0.0
O404 O 0.31772 0.83933 0.2869 0.0
O405 O 0.33372 0.92038 0.29561 0.0
O406 O 0.20439 0.86169 0.27366 0.0
O407 O 0.14302 0.78829 0.28332 0.0
C408 C 0.14745 0.81521 0.27413 0.0
C409 C 0.17406 0.85301 0.31615 0.0
O410 O 0.10308 0.70625 0.29704 0.0
O411 O 0.21132 0.75494 0.29844 0.0
O412 O 0.99792 0.75194 0.30394 0.0
O413 O 0.02486 0.80414 0.28848 0.0
O414 O 0.12049 0.84871 0.3144 0.0
O415 O 0.1825 0.82166 0.30845 0.0
O416 O 0.23671 0.93398 0.29669 0.0
O417 O 0.13398 0.89582 0.29226 0.0
C418 C 0.15611 0.70395 0.2978 0.0
C419 C 0.19014 0.9431 0.29454 0.0
Dy420 Dy 0.73793 0.88457 0.89024 0.0
C421 C 0.54411 0.93916 0.88682 0.0
C422 C 0.82585 0.84778 0.88875 0.0
Dy423 Dy 0.64886 0.93413 0.88234 0.0
O424 O 0.81188 0.86689 0.89807 0.0
O425 O 0.79203 0.84913 0.88043 0.0
O426 O 0.69437 0.87322 0.90804 0.0
O427 O 0.70115 0.94135 0.89729 0.0
C428 C 0.67889 0.91631 0.90669 0.0
C429 C 0.67856 0.89369 0.86383 0.0
O430 O 0.74167 0.02537 0.8832 0.0
O431 O 0.80734 0.98418 0.88706 0.0
O432 O 0.58294 0.96994 0.8786 0.0
O433 O 0.56463 0.90903 0.89276 0.0
O434 O 0.64516 0.92097 0.86365 0.0
O435 O 0.69731 0.89287 0.87396 0.0
O436 O 0.65503 0.79298 0.88806 0.0
O437 O 0.58612 0.82921 0.8844 0.0
C438 C 0.798 0.03151 0.88496 0.0
C439 C 0.59869 0.78345 0.8861 0.0
Dy440 Dy 0.17868 0.88648 0.89113 0.0
C441 C 0.12166 0.63835 0.88468 0.0
C442 C 0.21698 0.01302 0.89169 0.0
Dy443 Dy 0.13218 0.75428 0.88436 0.0
O444 O 0.23941 0.98523 0.89791 0.0
O445 O 0.17206 0.97087 0.88551 0.0
O446 O 0.19231 0.8604 0.90938 0.0
O447 O 0.12077 0.79571 0.89951 0.0
C448 C 0.14862 0.80232 0.90876 0.0
C449 C 0.15365 0.82568 0.86585 0.0
O450 O 0.03863 0.75078 0.8854 0.0
O451 O 0.08014 0.85809 0.88695 0.0
O452 O 0.13964 0.67603 0.87611 0.0
O453 O 0.1045 0.66199 0.89282 0.0
O454 O 0.10755 0.76891 0.86695 0.0
O455 O 0.18702 0.84231 0.87493 0.0
O456 O 0.26898 0.89694 0.88632 0.0
O457 O 0.23452 0.7932 0.88933 0.0
C458 C 0.03199 0.80114 0.88581 0.0
C459 C 0.28055 0.85151 0.88811 0.0
Dy460 Dy 0.17292 0.31454 0.89259 0.0
C461 C 0.41506 0.52126 0.88568 0.0
C462 C 0.0479 0.23066 0.8915 0.0
Dy463 Dy 0.30484 0.41125 0.8864 0.0
O464 O 0.07431 0.27496 0.89904 0.0
O465 O 0.09012 0.23126 0.88487 0.0
O466 O 0.20916 0.30354 0.90994 0.0
O467 O 0.25278 0.38789 0.90192 0.0
C468 C 0.257 0.3597 0.91047 0.0
C469 C 0.23675 0.34916 0.86806 0.0
O470 O 0.31448 0.32538 0.89018 0.0
O471 O 0.21018 0.25355 0.88725 0.0
O472 O 0.37804 0.49513 0.87713 0.0
O473 O 0.39373 0.48559 0.89457 0.0
O474 O 0.29556 0.36716 0.86945 0.0
O475 O 0.21756 0.36571 0.8767 0.0
O476 O 0.15326 0.3919 0.89035 0.0
O477 O 0.25592 0.46873 0.88716 0.0
C478 C 0.2683 0.26667 0.88868 0.0
C479 C 0.19575 0.45036 0.88853 0.0
Dy480 Dy 0.81058 0.73768 0.71894 0.0
C481 C 0.88903 0.55962 0.72481 0.0
C482 C 0.80435 0.84504 0.71988 0.0
Dy483 Dy 0.85509 0.65084 0.72579 0.0
O484 O 0.7811 0.80405 0.71172 0.0
O485 O 0.82677 0.82495 0.72768 0.0
O486 O 0.78837 0.70259 0.70129 0.0
O487 O 0.86426 0.70316 0.70963 0.0
C488 C 0.83224 0.68845 0.70043 0.0
C489 C 0.82597 0.70756 0.74326 0.0
O490 O 0.94794 0.72723 0.72136 0.0
O491 O 0.91665 0.80064 0.72142 0.0
O492 O 0.91005 0.60527 0.73214 0.0
O493 O 0.84708 0.56229 0.71855 0.0
O494 O 0.86937 0.69238 0.74398 0.0
O495 O 0.7977 0.68524 0.73409 0.0
O496 O 0.71653 0.6488 0.72156 0.0
O497 O 0.75634 0.58134 0.72199 0.0
C498 C 0.96131 0.78539 0.72139 0.0
C499 C 0.70862 0.59118 0.72154 0.0
Dy500 Dy 0.33085 0.07971 0.71808 0.0
C501 C 0.50238 0.33842 0.72442 0.0
C502 C 0.22522 0.96547 0.71844 0.0
Dy503 Dy 0.41465 0.21281 0.72506 0.0
O504 O 0.24876 0.99974 0.70949 0.0
O505 O 0.26323 0.99072 0.72695 0.0
O506 O 0.37124 0.09559 0.7008 0.0
O507 O 0.36297 0.16752 0.70898 0.0
C508 C 0.38135 0.1524 0.69996 0.0
C509 C 0.3605 0.12566 0.74234 0.0
O510 O 0.33324 0.22358 0.72223 0.0
O511 O 0.26528 0.11768 0.72234 0.0
O512 O 0.48611 0.30386 0.73355 0.0
O513 O 0.47084 0.30406 0.71587 0.0
O514 O 0.37046 0.18263 0.74298 0.0
O515 O 0.38327 0.12172 0.73309 0.0
O516 O 0.42217 0.07929 0.72057 0.0
O517 O 0.4852 0.18696 0.71982 0.0
C518 C 0.27633 0.17613 0.72224 0.0
C519 C 0.47843 0.13061 0.72014 0.0
Dy520 Dy 0.98661 0.25475 0.71617 0.0
C521 C 0.73037 0.17394 0.72328 0.0
C522 C 0.10117 0.26487 0.71825 0.0
Dy523 Dy 0.85758 0.22163 0.723 0.0
O524 O 0.08377 0.28565 0.70958 0.0
O525 O 0.05786 0.24305 0.72585 0.0
O526 O 0.95841 0.20678 0.69961 0.0
O527 O 0.90626 0.24547 0.70625 0.0
C528 C 0.90897 0.21161 0.6983 0.0
C529 C 0.94459 0.26457 0.74031 0.0
O530 O 0.84049 0.12482 0.72224 0.0
O531 O 0.94147 0.14998 0.71794 0.0
O532 O 0.7714 0.2246 0.7284 0.0
O533 O 0.75897 0.14831 0.7184 0.0
O534 O 0.89506 0.27028 0.74017 0.0
O535 O 0.93901 0.22889 0.73219 0.0
O536 O 0.99154 0.35074 0.71749 0.0
O537 O 0.88568 0.31473 0.7161 0.0
C538 C 0.88248 0.10852 0.72005 0.0
C539 C 0.94337 0.36108 0.71681 0.0
Dy540 Dy 0.41665 0.13995 0.1335 0.0
C541 C 0.24175 0.22428 0.12869 0.0
C542 C 0.51885 0.1268 0.13124 0.0
Dy543 Dy 0.32062 0.17594 0.12667 0.0
O544 O 0.48033 0.10503 0.1398 0.0
O545 O 0.49882 0.15119 0.1238 0.0
O546 O 0.43964 0.18946 0.14975 0.0
O547 O 0.3481 0.1522 0.14329 0.0
C548 C 0.38594 0.18584 0.15114 0.0
C549 C 0.36354 0.12941 0.10972 0.0
O550 O 0.40142 0.27171 0.12704 0.0
O551 O 0.47577 0.24464 0.13176 0.0
O552 O 0.25336 0.2046 0.1192 0.0
O553 O 0.27335 0.21766 0.13684 0.0
O554 O 0.30778 0.12298 0.10982 0.0
O555 O 0.39352 0.16588 0.11775 0.0
O556 O 0.32439 0.04507 0.13366 0.0
O557 O 0.25316 0.08002 0.13153 0.0
C558 C 0.45917 0.28673 0.12942 0.0
C559 C 0.26597 0.03487 0.13294 0.0
Dy560 Dy 0.92454 0.30294 0.1331 0.0
C561 C 0.84804 0.04892 0.12814 0.0
C562 C 0.93613 0.4176 0.13112 0.0
Dy563 Dy 0.89427 0.17485 0.12635 0.0
O564 O 0.95486 0.3991 0.13991 0.0
O565 O 0.91648 0.37559 0.12322 0.0
O566 O 0.87568 0.27457 0.14957 0.0
O567 O 0.91774 0.22456 0.1432 0.0
C568 C 0.88317 0.22685 0.15112 0.0
C569 C 0.93294 0.25987 0.10895 0.0
O570 O 0.79809 0.15824 0.12495 0.0
O571 O 0.81929 0.25311 0.1323 0.0
O572 O 0.87917 0.0827 0.11945 0.0
O573 O 0.84183 0.08375 0.13565 0.0
O574 O 0.94221 0.21236 0.10923 0.0
O575 O 0.89807 0.25397 0.11724 0.0
O576 O 0.0226 0.31424 0.13219 0.0
O577 O 0.99168 0.20902 0.13137 0.0
C578 C 0.77923 0.19589 0.12876 0.0
C579 C 0.03576 0.26786 0.13219 0.0
Dy580 Dy 0.75897 0.65358 0.1336 0.0
C581 C 0.0152 0.82958 0.12943 0.0
C582 C 0.64636 0.54821 0.1309 0.0
Dy583 Dy 0.89059 0.74091 0.12759 0.0
O584 O 0.66221 0.58503 0.13971 0.0
O585 O 0.69064 0.57097 0.12347 0.0
O586 O 0.76942 0.68587 0.15145 0.0
O587 O 0.84551 0.68529 0.14333 0.0
C588 C 0.82712 0.69907 0.15251 0.0
C589 C 0.80845 0.68864 0.10969 0.0
O590 O 0.90495 0.66059 0.12813 0.0
O591 O 0.80087 0.58998 0.13133 0.0
O592 O 0.98194 0.81716 0.12016 0.0
O593 O 0.9801 0.79405 0.13753 0.0
O594 O 0.86601 0.70032 0.10942 0.0
O595 O 0.80082 0.70958 0.11889 0.0
O596 O 0.75293 0.74152 0.13152 0.0
O597 O 0.8598 0.80853 0.13242 0.0
C598 C 0.85933 0.60335 0.12944 0.0
C599 C 0.80214 0.79871 0.13231 0.0
Dy600 Dy 0.892 0.74301 0.62855 0.0
C601 C 0.95382 0.55757 0.63391 0.0
C602 C 0.85238 0.82974 0.62823 0.0
Dy603 Dy 0.94474 0.66278 0.63548 0.0
O604 O 0.86578 0.80738 0.61932 0.0
O605 O 0.86201 0.80567 0.63727 0.0
O606 O 0.87253 0.6957 0.61094 0.0
O607 O 0.95011 0.71052 0.62004 0.0
C608 C 0.91873 0.68455 0.61127 0.0
C609 C 0.92274 0.71263 0.65379 0.0
O610 O 0.03554 0.75283 0.63247 0.0
O611 O 0.99039 0.81581 0.63216 0.0
O612 O 0.96298 0.58962 0.6432 0.0
O613 O 0.94574 0.58646 0.62553 0.0
O614 O 0.97063 0.70452 0.65264 0.0
O615 O 0.88842 0.69366 0.64484 0.0
O616 O 0.80014 0.66145 0.63126 0.0
O617 O 0.84 0.59517 0.63361 0.0
C618 C 0.03996 0.80882 0.63236 0.0
C619 C 0.79239 0.60545 0.63243 0.0
Dy620 Dy 0.32759 0.18721 0.6284 0.0
C621 C 0.53273 0.414 0.63382 0.0
C622 C 0.23426 0.06425 0.62753 0.0
Dy623 Dy 0.41818 0.31071 0.63602 0.0
O624 O 0.2806 0.09083 0.62046 0.0
O625 O 0.23721 0.10598 0.63459 0.0
O626 O 0.36459 0.21977 0.6102 0.0
O627 O 0.3604 0.28118 0.62109 0.0
C628 C 0.37772 0.27747 0.6113 0.0
C629 C 0.37134 0.23866 0.65424 0.0
O630 O 0.33196 0.3223 0.63443 0.0
O631 O 0.26039 0.21687 0.63396 0.0
O632 O 0.49035 0.40922 0.64103 0.0
O633 O 0.51102 0.36392 0.62775 0.0
O634 O 0.39085 0.29808 0.65406 0.0
O635 O 0.38187 0.22083 0.64469 0.0
O636 O 0.40139 0.16323 0.631 0.0
O637 O 0.47749 0.26561 0.63213 0.0
C638 C 0.27317 0.27518 0.63473 0.0
C639 C 0.46038 0.20581 0.63124 0.0
Dy640 Dy 0.89948 0.18885 0.62675 0.0
C641 C 0.64342 0.1232 0.63105 0.0
C642 C 0.02666 0.23884 0.6285 0.0
Dy643 Dy 0.76293 0.14404 0.63231 0.0
O644 O 0.99153 0.19989 0.62064 0.0
O645 O 0.99254 0.25175 0.63507 0.0
O646 O 0.86744 0.15274 0.60849 0.0
O647 O 0.81953 0.18528 0.61775 0.0
C648 C 0.81774 0.15818 0.60863 0.0
C649 C 0.83615 0.18363 0.65082 0.0
O650 O 0.76515 0.05232 0.62936 0.0
O651 O 0.87101 0.09375 0.63259 0.0
O652 O 0.67344 0.12731 0.64038 0.0
O653 O 0.67604 0.12256 0.62245 0.0
O654 O 0.78473 0.18476 0.64959 0.0
O655 O 0.84247 0.15384 0.64252 0.0
O656 O 0.90972 0.28143 0.62941 0.0
O657 O 0.80404 0.24862 0.62981 0.0
C658 C 0.81551 0.04538 0.63064 0.0
C659 C 0.86365 0.29334 0.62999 0.0
Dy660 Dy 0.42149 0.22147 0.22319 0.0
C661 C 0.22394 0.27439 0.21725 0.0
C662 C 0.50363 0.17546 0.22349 0.0
Dy663 Dy 0.32439 0.25601 0.21708 0.0
O664 O 0.45697 0.15918 0.23042 0.0
O665 O 0.5055 0.21749 0.21664 0.0
O666 O 0.43722 0.27393 0.24008 0.0
O667 O 0.34965 0.23092 0.23289 0.0
C668 C 0.38155 0.26696 0.24083 0.0
C669 C 0.35538 0.2109 0.19903 0.0
O670 O 0.41492 0.35186 0.21845 0.0
O671 O 0.48808 0.31894 0.21898 0.0
O672 O 0.26778 0.29684 0.20959 0.0
O673 O 0.23666 0.24452 0.22481 0.0
O674 O 0.30048 0.20289 0.20101 0.0
O675 O 0.39309 0.24571 0.20672 0.0
O676 O 0.34186 0.12683 0.21935 0.0
O677 O 0.26501 0.15333 0.22076 0.0
C678 C 0.47396 0.36356 0.21865 0.0
C679 C 0.28272 0.11107 0.22003 0.0
Dy680 Dy 0.84959 0.21879 0.22301 0.0
C681 C 0.79808 0.97037 0.22047 0.0
C682 C 0.89397 0.34514 0.22135 0.0
Dy683 Dy 0.81522 0.08738 0.21813 0.0
O684 O 0.87294 0.31251 0.23062 0.0
O685 O 0.8912 0.30882 0.21315 0.0
O686 O 0.80598 0.18462 0.24058 0.0
O687 O 0.85185 0.14443 0.23303 0.0
C688 C 0.82056 0.1411 0.24173 0.0
C689 C 0.85172 0.15664 0.1991 0.0
O690 O 0.71934 0.07932 0.22091 0.0
O691 O 0.75062 0.18424 0.21897 0.0
O692 O 0.78567 0.99151 0.21128 0.0
O693 O 0.81383 0.0111 0.22851 0.0
O694 O 0.85678 0.10784 0.20095 0.0
O695 O 0.81947 0.16209 0.20708 0.0
O696 O 0.94541 0.23513 0.22056 0.0
O697 O 0.92021 0.13193 0.2197 0.0
C698 C 0.70645 0.12574 0.22008 0.0
C699 C 0.96188 0.19228 0.21969 0.0
Dy700 Dy 0.85052 0.65511 0.22419 0.0
C701 C 0.09683 0.84825 0.2185 0.0
C702 C 0.72499 0.56562 0.22398 0.0
Dy703 Dy 0.98251 0.74225 0.21754 0.0
O704 O 0.75142 0.61276 0.23094 0.0
O705 O 0.7679 0.56628 0.21754 0.0
O706 O 0.8765 0.69376 0.24252 0.0
O707 O 0.94148 0.68815 0.2325 0.0
C708 C 0.93487 0.70887 0.24179 0.0
C709 C 0.91032 0.69293 0.19908 0.0
O710 O 0.98855 0.65375 0.21859 0.0
O711 O 0.88138 0.58664 0.21999 0.0
O712 O 0.06355 0.82517 0.20937 0.0
O713 O 0.07003 0.8104 0.22692 0.0
O714 O 0.96765 0.70459 0.19999 0.0
O715 O 0.89398 0.70909 0.20823 0.0
O716 O 0.8382 0.73473 0.22004 0.0
O717 O 0.94253 0.80487 0.22233 0.0
C718 C 0.93888 0.59651 0.21887 0.0
C719 C 0.88368 0.79188 0.22156 0.0
C720 C 0.41887 0.06896 0.10312 0.0
C721 C 0.3915 0.10657 0.10051 0.0
C722 C 0.40759 0.09247 0.0802 0.0
C723 C 0.44446 0.06371 0.08289 0.0
N724 N 0.48513 0.02706 0.09798 0.0
N725 N 0.37218 0.16377 0.08612 0.0
C726 C 0.45062 0.05354 0.09464 0.0
C727 C 0.3894 0.12085 0.08892 0.0
N728 N 0.41059 0.04317 0.1136 0.0
N729 N 0.38728 0.09168 0.06939 0.0
H730 H 0.35971 0.18646 0.09215 0.0
H731 H 0.3767 0.18167 0.07793 0.0
H732 H 0.39859 0.07358 0.06251 0.0
H733 H 0.35404 0.10441 0.06741 0.0
H734 H 0.41961 1.00741 0.11562 0.0
H735 H 0.39157 0.05589 0.12009 0.0
H736 H 0.50054 0.02958 0.10633 0.0
H737 H 0.49905 1.0031 0.09258 0.0
C738 C 0.92274 0.34073 0.09661 0.0
C739 C 0.95861 0.31289 0.10017 0.0
C740 C 0.04218 0.38508 0.08699 0.0
C741 C 1.00906 0.41726 0.08437 0.0
N742 N 0.91942 0.42851 0.0881 0.0
N743 N 0.05775 0.31603 0.09949 0.0
C744 C 0.95026 0.39628 0.08973 0.0
C745 C 0.01944 0.33678 0.09546 0.0
N746 N 0.8604 0.3112 0.09896 0.0
N747 N 0.0967 0.40123 0.0815 0.0
H748 H 0.04577 0.28386 0.10602 0.0
H749 H 0.10424 0.33493 0.09717 0.0
H750 H 0.12075 0.44188 0.07684 0.0
H751 H 0.117 0.37315 0.08121 0.0
H752 H 0.83018 0.32516 0.09566 0.0
H753 H 0.83707 0.26811 0.10299 0.0
H754 H 0.88092 0.421 0.09289 0.0
H755 H 0.93499 0.46586 0.08252 0.0
C756 C 0.68477 0.67435 0.08806 0.0
C757 C 0.65432 0.61033 0.08488 0.0
C758 C 0.72811 0.59727 0.09752 0.0
C759 C 0.7596 0.66199 0.10028 0.0
N760 N 0.77672 0.76398 0.09582 0.0
N761 N 0.64083 0.50835 0.08815 0.0
C762 C 0.74014 0.70082 0.0949 0.0
C763 C 0.67446 0.57108 0.09004 0.0
N764 N 0.65777 0.7092 0.08534 0.0
N765 N 0.7506 0.56113 0.10187 0.0
H766 H 0.6015 0.48789 0.08296 0.0
H767 H 0.64854 0.47562 0.09226 0.0
H768 H 0.78828 0.57864 0.10747 0.0
H769 H 0.73478 0.51509 0.09958 0.0
H770 H 0.67304 0.75359 0.08863 0.0
H771 H 0.61577 0.69121 0.08089 0.0
H772 H 0.76962 0.79516 0.09097 0.0
H773 H 0.81775 0.78516 0.10061 0.0
C774 C 0.08564 0.41049 0.43841 0.0
C775 C 0.05862 0.44895 0.43593 0.0
C776 C 0.07052 0.42891 0.41555 0.0
C777 C 0.11115 0.40425 0.41819 0.0
N778 N 0.16736 0.38826 0.43359 0.0
N779 N 0.02676 0.49366 0.42089 0.0
C780 C 0.12186 0.40042 0.43002 0.0
C781 C 0.05262 0.45862 0.42416 0.0
N782 N 0.0757 0.38059 0.44856 0.0
N783 N 0.04419 0.42085 0.40505 0.0
H784 H 1.00216 0.50702 0.42623 0.0
H785 H 0.0308 0.51034 0.41264 0.0
H786 H 0.05469 0.402 0.39821 0.0
H787 H 1.00715 0.42849 0.40334 0.0
H788 H 0.08857 0.34699 0.45006 0.0
H789 H 0.04858 0.38281 0.45496 0.0
H790 H 0.17695 0.38596 0.44216 0.0
H791 H 0.20244 0.39115 0.42837 0.0
C792 C 0.57959 0.68762 0.43145 0.0
C793 C 0.60454 0.64645 0.43274 0.0
C794 C 0.66158 0.69215 0.41478 0.0
C795 C 0.64928 0.74302 0.41504 0.0
N796 N 0.59465 0.78731 0.42494 0.0
N797 N 0.68498 0.62515 0.42608 0.0
C798 C 0.6086 0.74071 0.42389 0.0
C799 C 0.65049 0.6538 0.42461 0.0
N800 N 0.52503 0.67402 0.43665 0.0
N801 N 0.67919 0.67591 0.40498 0.0
H802 H 0.68236 0.5994 0.43323 0.0
H803 H 0.72224 0.63399 0.42076 0.0
H804 H 0.67577 0.6925 0.3971 0.0
H805 H 0.68524 0.63719 0.40441 0.0
H806 H 0.50167 0.69859 0.43511 0.0
H807 H 0.49919 0.63416 0.44145 0.0
H808 H 0.57213 0.79175 0.43207 0.0
H809 H 0.6075 0.82279 0.41903 0.0
C810 C 0.37655 0.97947 0.4145 0.0
C811 C 0.31096 0.95014 0.41643 0.0
C812 C 0.33876 0.97386 0.43696 0.0
C813 C 0.40293 0.99078 0.43491 0.0
N814 N 0.47034 0.98266 0.42091 0.0
N815 N 0.23077 0.92241 0.43055 0.0
C816 C 0.41772 0.98482 0.42349 0.0
C817 C 0.29247 0.94746 0.42799 0.0
N818 N 0.40206 0.00798 0.40448 0.0
N819 N 0.32096 0.98478 0.44725 0.0
H820 H 0.19631 0.91278 0.42453 0.0
H821 H 0.21352 0.91068 0.43878 0.0
H822 H 0.34768 0.99537 0.4545 0.0
H823 H 0.27942 0.98505 0.44852 0.0
H824 H 0.45022 0.03488 0.40346 0.0
H825 H 0.3767 0.01238 0.3979 0.0
H826 H 0.48009 0.97545 0.4126 0.0
H827 H 0.49802 0.97781 0.42705 0.0
C828 C 0.63997 0.02432 0.92457 0.0
C829 C 0.59619 0.98321 0.93254 0.0
C830 C 0.6017 0.89588 0.92334 0.0
C831 C 0.64483 0.93713 0.91506 0.0
N832 N 0.67346 0.03415 0.90522 0.0
N833 N 0.51896 0.87759 0.93665 0.0
C834 C 0.6554 0.99971 0.91492 0.0
C835 C 0.57219 0.91822 0.93108 0.0
N836 N 0.66547 0.08716 0.92589 0.0
N837 N 0.58689 0.83494 0.92371 0.0
H838 H 0.49526 0.89309 0.94183 0.0
H839 H 0.4953 0.82967 0.93523 0.0
H840 H 0.60031 0.81397 0.91752 0.0
H841 H 0.56226 0.80542 0.93041 0.0
H842 H 0.70268 0.11927 0.92097 0.0
H843 H 0.6527 0.10705 0.93243 0.0
H844 H 0.67883 0.07856 0.90459 0.0
H845 H 0.66992 0.01402 0.89736 0.0
C846 C 0.16401 0.72828 0.92214 0.0
C847 C 0.1262 0.75289 0.91809 0.0
C848 C 0.03685 0.67038 0.92874 0.0
C849 C 0.07404 0.6455 0.93295 0.0
N850 N 0.17488 0.65369 0.93427 0.0
N851 N 0.0325 0.75801 0.92046 0.0
C852 C 0.13828 0.67539 0.92978 0.0
C853 C 0.06427 0.72671 0.92221 0.0
N854 N 0.22456 0.75552 0.91861 0.0
N855 N 0.97402 0.63837 0.93051 0.0
H856 H 0.05133 0.7999 0.91599 0.0
H857 H 0.99047 0.74618 0.92444 0.0
H858 H 0.95208 0.59624 0.93484 0.0
H859 H 0.9431 0.64985 0.92667 0.0
H860 H 0.25507 0.73944 0.92056 0.0
H861 H 0.24445 0.79431 0.9133 0.0
H862 H 0.2228 0.6746 0.93318 0.0
H863 H 0.15719 0.61474 0.93953 0.0
C864 C 0.38702 0.38073 0.93152 0.0
C865 C 0.41742 0.44511 0.93424 0.0
C866 C 0.34067 0.45428 0.92196 0.0
C867 C 0.30805 0.38838 0.9197 0.0
N868 N 0.29014 0.28867 0.9268 0.0
N869 N 0.41677 0.5417 0.93341 0.0
C870 C 0.32805 0.35153 0.9258 0.0
C871 C 0.39273 0.4816 0.92974 0.0
N872 N 0.41585 0.34723 0.93391 0.0
N873 N 0.32054 0.49104 0.91705 0.0
H874 H 0.45472 0.56308 0.93893 0.0
H875 H 0.39668 0.56915 0.93176 0.0
H876 H 0.27737 0.47322 0.91316 0.0
H877 H 0.34643 0.53943 0.91691 0.0
H878 H 0.39932 0.30208 0.93088 0.0
H879 H 0.4596 0.36678 0.93779 0.0
H880 H 0.30077 0.26163 0.93215 0.0
H881 H 0.24532 0.26421 0.92351 0.0
C882 C 0.98802 0.69705 0.59437 0.0
C883 C 0.94022 0.65698 0.60188 0.0
C884 C 0.94874 0.56772 0.59409 0.0
C885 C 0.99905 0.6085 0.58685 0.0
N886 N 0.07555 0.71565 0.58266 0.0
N887 N 0.86373 0.55211 0.60667 0.0
C888 C 0.02043 0.67404 0.58759 0.0
C889 C 0.91741 0.59167 0.60108 0.0
N890 N 1.00089 0.7573 0.59332 0.0
N891 N 0.93226 0.50632 0.59469 0.0
H892 H 0.84051 0.56825 0.6118 0.0
H893 H 0.83963 0.50399 0.6056 0.0
H894 H 0.95327 0.48678 0.58984 0.0
H895 H 0.90111 0.47535 0.60062 0.0
H896 H 0.02923 0.78728 0.58697 0.0
H897 H 0.9782 0.77554 0.59811 0.0
H898 H 0.09736 0.76361 0.58391 0.0
H899 H 0.10397 0.70235 0.57853 0.0
C900 C 0.45943 0.43772 0.59523 0.0
C901 C 0.44419 0.41935 0.58372 0.0
C902 C 0.37802 0.30932 0.59039 0.0
C903 C 0.39618 0.32734 0.60191 0.0
N904 N 0.43562 0.41458 0.61511 0.0
N905 N 0.38146 0.33763 0.57056 0.0
C906 C 0.43109 0.39314 0.60427 0.0
C907 C 0.40167 0.35497 0.58141 0.0
N908 N 0.50369 0.49796 0.59761 0.0
N909 N 0.33569 0.24845 0.58802 0.0
H910 H 0.40562 0.36568 0.56381 0.0
H911 H 0.34217 0.29614 0.5682 0.0
H912 H 0.30767 0.21694 0.59421 0.0
H913 H 0.32568 0.22899 0.57993 0.0
H914 H 0.5222 0.51368 0.60569 0.0
H915 H 0.52655 0.53146 0.59134 0.0
H916 H 0.45145 0.46113 0.61708 0.0
H917 H 0.41948 0.38634 0.62217 0.0
C918 C 0.73209 0.16273 0.59686 0.0
C919 C 0.76246 0.12919 0.60036 0.0
C920 C 0.68994 0.04241 0.5878 0.0
C921 C 0.65543 0.07309 0.5852 0.0
N922 N 0.64032 0.16061 0.58877 0.0
N923 N 0.75769 0.02951 0.601 0.0
C924 C 0.67518 0.13237 0.59031 0.0
C925 C 0.73812 0.06717 0.59626 0.0
N926 N 0.75957 0.22496 0.5992 0.0
N927 N 0.67699 0.98884 0.58225 0.0
H928 H 0.79004 0.04398 0.60754 0.0
H929 H 0.73656 0.98184 0.59941 0.0
H930 H 0.6392 0.96515 0.57685 0.0
H931 H 0.70634 0.96989 0.58249 0.0
H932 H 0.74393 0.25374 0.59586 0.0
H933 H 0.80171 0.24934 0.60357 0.0
H934 H 0.64797 0.20009 0.59326 0.0
H935 H 0.60097 0.14224 0.58357 0.0
C936 C 0.74591 0.69288 0.7583 0.0
C937 C 0.80211 0.7335 0.75258 0.0
C938 C 0.80297 0.82261 0.76273 0.0
C939 C 0.74269 0.7824 0.76735 0.0
N940 N 0.65284 0.67888 0.76767 0.0
N941 N 0.8831 0.83868 0.74898 0.0
C942 C 0.7135 0.7174 0.76469 0.0
C943 C 0.83041 0.79883 0.75476 0.0
N944 N 0.72401 0.63018 0.75792 0.0
N945 N 0.83543 0.88316 0.7663 0.0
H946 H 0.904 0.82277 0.74326 0.0
H947 H 0.90276 0.8869 0.74905 0.0
H948 H 0.81727 0.90233 0.77197 0.0
H949 H 0.88212 0.91322 0.76439 0.0
H950 H 0.68748 0.59818 0.76296 0.0
H951 H 0.74626 0.61067 0.75336 0.0
H952 H 0.62662 0.6329 0.76492 0.0
H953 H 0.62646 0.69469 0.77185 0.0
C954 C 0.24299 1.00504 0.76423 0.0
C955 C 0.27015 0.96688 0.76637 0.0
C956 C 0.35672 0.03412 0.75346 0.0
C957 C 0.32971 0.07241 0.75105 0.0
N958 N 0.24126 0.08761 0.75312 0.0
N959 N 0.34336 0.93577 0.76049 0.0
C960 C 0.27123 0.05605 0.75622 0.0
C961 C 0.32408 0.97879 0.7602 0.0
N962 N 0.18985 0.99233 0.7699 0.0
N963 N 0.41585 0.05246 0.74992 0.0
H964 H 0.32091 0.89512 0.76532 0.0
H965 H 0.37757 0.93727 0.75513 0.0
H966 H 0.44251 0.09311 0.74539 0.0
H967 H 0.44103 0.03116 0.7525 0.0
H968 H 0.17041 0.02113 0.76992 0.0
H969 H 0.16664 0.9537 0.77518 0.0
H970 H 0.25935 0.12371 0.74723 0.0
H971 H 0.19644 0.07559 0.75566 0.0
C972 C 0.97229 0.2683 0.76128 0.0
C973 C 0.99263 0.28549 0.74994 0.0
C974 C 0.10153 0.34769 0.75738 0.0
C975 C 0.08049 0.33146 0.76879 0.0
N976 N 0.98987 0.29663 0.78102 0.0
N977 N 0.07731 0.352 0.73759 0.0
C978 C 0.01431 0.29778 0.77059 0.0
C979 C 0.0576 0.32758 0.74812 0.0
N980 N 0.91271 0.22168 0.76328 0.0
N981 N 0.16371 0.38516 0.75529 0.0
H982 H 0.04864 0.33459 0.73059 0.0
H983 H 0.12046 0.3908 0.73586 0.0
H984 H 0.19581 0.4124 0.7615 0.0
H985 H 0.18369 0.3905 0.7473 0.0
H986 H 0.89734 0.20242 0.77131 0.0
H987 H 0.88084 0.19763 0.75679 0.0
H988 H 0.9426 0.2809 0.78221 0.0
H989 H 0.01626 0.31749 0.78819 0.0
C990 C 0.3485 0.3094 0.27103 0.0
C991 C 0.29898 0.32313 0.26882 0.0
C992 C 0.31461 0.31187 0.24853 0.0
C993 C 0.35563 0.28833 0.25061 0.0
N994 N 0.40379 0.25609 0.26483 0.0
N995 N 0.22138 0.30981 0.25475 0.0
C996 C 0.37059 0.28496 0.26215 0.0
C997 C 0.27774 0.3156 0.25741 0.0
N998 N 0.3751 0.31878 0.28151 0.0
N999 N 0.31471 0.3372 0.23833 0.0
H1000 H 0.18811 0.30305 0.26084 0.0
H1001 H 0.20429 0.30143 0.24644 0.0
H1002 H 0.34252 0.33824 0.23172 0.0
H1003 H 0.29196 0.3626 0.23708 0.0
H1004 H 0.41797 0.32144 0.28293 0.0
H1005 H 0.35526 0.32436 0.28877 0.0
H1006 H 0.41374 0.24918 0.27311 0.0
H1007 H 0.41677 0.23368 0.25885 0.0
C1008 C 0.80043 0.99783 0.25921 0.0
C1009 C 0.74271 0.9778 0.26493 0.0
C1010 C 0.74453 0.07351 0.25778 0.0
C1011 C 0.79814 0.08988 0.25096 0.0
N1012 N 0.89001 0.08021 0.24931 0.0
N1013 N 0.65436 0.99288 0.26748 0.0
C1014 C 0.82957 0.05526 0.2528 0.0
C1015 C 0.71335 0.01457 0.26355 0.0
N1016 N 0.82584 0.95987 0.2593 0.0
N1017 N 0.72606 0.11628 0.25976 0.0
H1018 H 0.62993 0.95087 0.27171 0.0
H1019 H 0.62753 0.01338 0.26551 0.0
H1020 H 0.75095 0.16221 0.25705 0.0
H1021 H 0.69138 0.10915 0.26557 0.0
H1022 H 0.86297 0.96672 0.25416 0.0
H1023 H 0.80583 0.91777 0.26369 0.0
H1024 H 0.91811 0.06117 0.25125 0.0
H1025 H 0.91496 0.12443 0.24573 0.0
C1026 C 1.00999 0.69936 0.25527 0.0
C1027 C 0.98501 0.73591 0.25099 0.0
C1028 C 0.06805 0.82717 0.26154 0.0
C1029 C 0.0953 0.791 0.2652 0.0
N1030 N 0.09816 0.69563 0.26333 0.0
N1031 N 0.9823 0.83138 0.25187 0.0
C1032 C 0.06737 0.72778 0.26153 0.0
C1033 C 1.01192 0.79907 0.25466 0.0
N1034 N 0.97664 0.63616 0.25393 0.0
N1035 N 0.09671 0.88876 0.26445 0.0
H1036 H 0.94202 0.81215 0.24689 0.0
H1037 H 0.99494 0.87556 0.2549 0.0
H1038 H 0.13725 0.91019 0.26935 0.0
H1039 H 0.08304 0.91985 0.26157 0.0
H1040 H 0.98764 0.6057 0.25807 0.0
H1041 H 0.93408 0.61361 0.24961 0.0
H1042 H 0.08418 0.65181 0.2599 0.0
H1043 H 0.14201 0.71615 0.26708 0.0
C1044 C 0.51741 0.97744 0.01425 0.0
C1045 C 0.52665 0.03299 0.01946 0.0
C1046 C 0.57541 0.09151 1.00185 0.0
C1047 C 0.5627 0.03526 0.99642 0.0
N1048 N 0.51567 0.92331 0.99691 0.0
N1049 N 0.55888 0.14237 0.01804 0.0
C1050 C 0.53214 0.97784 1.0025 0.0
C1051 C 0.55425 0.08994 0.01321 0.0
N1052 N 0.49484 0.92428 0.02059 0.0
N1053 N 0.60917 0.14674 0.99622 0.0
H1054 H 0.54863 0.14487 0.02656 0.0
H1055 H 0.57047 0.18289 0.01354 0.0
H1056 H 0.62248 0.14922 0.98774 0.0
H1057 H 0.62706 0.19023 1.00006 0.0
H1058 H 0.49315 0.88357 0.0178 0.0
H1059 H 0.4815 0.92204 0.02906 0.0
H1060 H 0.4873 0.87932 1.00035 0.0
H1061 H 0.52683 0.92168 0.98845 0.0
C1062 C 0.97989 0.4928 1.00182 0.0
C1063 C 0.03477 0.54105 0.99676 0.0
C1064 C 0.08956 0.56117 0.01532 0.0
C1065 C 0.03556 0.51101 0.02025 0.0
N1066 N 0.9294 0.42741 0.01824 0.0
N1067 N 0.14311 0.62022 0.9984 0.0
C1068 C 0.98076 0.47646 0.01348 0.0
C1069 C 0.08991 0.57512 1.00347 0.0
N1070 N 0.92607 0.46434 0.99556 0.0
N1071 N 0.14056 0.59555 0.02206 0.0
H1072 H 0.14535 0.6321 0.98985 0.0
H1073 H 0.18652 0.64366 1.00233 0.0
H1074 H 0.1423 0.58472 0.03056 0.0
H1075 H 0.18 0.63637 0.01956 0.0
H1076 H 0.88236 0.43388 0.99889 0.0
H1077 H 0.92446 0.47349 0.98694 0.0
H1078 H 0.89097 0.39476 0.01364 0.0
H1079 H 0.92573 0.41814 0.02693 0.0
C1080 C 0.55031 0.50175 0.01621 0.0
C1081 C 0.56717 0.5627 0.01999 0.0
C1082 C 0.5618 0.58983 0.99991 0.0
C1083 C 0.53069 0.52598 0.99687 0.0
N1084 N 0.48969 0.41925 1.00281 0.0
N1085 N 0.59214 0.66728 0.0148 0.0
C1086 C 0.52309 0.48137 1.00524 0.0
C1087 C 0.57411 0.60756 0.01163 0.0
N1088 N 0.56612 0.46539 0.02248 0.0
N1089 N 0.58114 0.63372 0.99157 0.0
H1090 H 0.60646 0.6841 0.023 0.0
H1091 H 0.58972 0.69937 0.0094 0.0
H1092 H 0.57511 0.62154 0.98301 0.0
H1093 H 0.60892 0.68135 0.99303 0.0
H1094 H 0.56017 0.42306 0.01951 0.0
H1095 H 0.59216 0.48101 0.02994 0.0
H1096 H 0.47817 0.38509 0.009 0.0
H1097 H 0.47024 0.40223 0.99482 0.0
C1098 C 0.03767 0.4963 0.51924 0.0
C1099 C 0.03508 0.54833 0.52353 0.0
C1100 C 0.03919 0.5851 0.5038 0.0
C1101 C 0.03431 0.52911 0.49957 0.0
N1102 N 0.01871 0.42657 0.50336 0.0
N1103 N 0.03303 0.64323 0.51995 0.0
C1104 C 0.03046 0.4833 0.50735 0.0
C1105 C 0.03585 0.5931 0.5158 0.0
N1106 N 0.04939 0.46046 0.52651 0.0
N1107 N 0.04892 0.63143 0.49635 0.0
H1108 H 0.03677 0.65394 0.5286 0.0
H1109 H 0.0251 0.67314 0.5149 0.0
H1110 H 0.04818 0.62562 0.48757 0.0
H1111 H 0.06058 0.67632 0.49883 0.0
H1112 H 0.05837 0.42556 0.52384 0.0
H1113 H 0.05572 0.4699 0.53518 0.0
H1114 H 1.0092 0.38914 0.50866 0.0
H1115 H 0.01234 0.41494 0.49475 0.0
C1116 C 0.49519 0.49656 0.5007 0.0
C1117 C 0.54734 0.55177 0.49664 0.0
C1118 C 0.58304 0.58262 0.51651 0.0
C1119 C 0.52851 0.52929 0.52053 0.0
N1120 N 0.42803 0.4401 0.51659 0.0
N1121 N 0.64032 0.64941 0.50058 0.0
C1122 C 0.48322 0.4877 0.51263 0.0
C1123 C 0.59122 0.59531 0.50455 0.0
N1124 N 0.45784 0.45174 0.49308 0.0
N1125 N 0.62764 0.62042 0.52416 0.0
H1126 H 0.65053 0.65786 0.49194 0.0
H1127 H 0.66988 0.68675 0.50575 0.0
H1128 H 0.62095 0.61466 0.53293 0.0
H1129 H 0.67192 0.65578 0.52192 0.0
H1130 H 0.42186 0.40787 0.49536 0.0
H1131 H 0.46667 0.45687 0.48438 0.0
H1132 H 0.39022 0.41186 0.51139 0.0
H1133 H 0.41782 0.43219 0.52523 0.0
C1134 C 0.57128 0.00831 0.51363 0.0
C1135 C 0.55494 0.042 0.52141 0.0
C1136 C 0.51228 0.07386 0.50541 0.0
C1137 C 0.5239 0.03639 0.49784 0.0
N1138 N 0.56654 0.96968 0.4944 0.0
N1139 N 0.50184 0.09948 0.52486 0.0
C1140 C 0.55444 1.00442 0.50187 0.0
C1141 C 0.52316 0.07271 0.51731 0.0
N1142 N 0.60336 0.98027 0.51757 0.0
N1143 N 0.4922 0.11204 0.50107 0.0
H1144 H 0.50753 0.09744 0.53354 0.0
H1145 H 0.47358 0.11801 0.52268 0.0
H1146 H 0.48625 0.11492 0.49234 0.0
H1147 H 0.48784 0.14513 0.50582 0.0
H1148 H 0.62313 0.96071 0.51239 0.0
H1149 H 0.61125 0.97737 0.52621 0.0
H1150 H 0.58171 0.93882 0.49668 0.0
H1151 H 0.56079 0.97199 0.48569 0.0
C1152 C 0.26324 0.37829 0.34084 0.0
C1153 C 0.21971 0.3605 0.33173 0.0
C1154 C 0.13911 0.34838 0.34537 0.0
C1155 C 0.18215 0.3629 0.35455 0.0
N1156 N 0.28039 0.3768 0.36109 0.0
N1157 N 0.11494 0.32463 0.32531 0.0
C1158 C 0.24275 0.37325 0.3523 0.0
C1159 C 0.15734 0.34493 0.33399 0.0
N1160 N 0.32505 0.40202 0.33847 0.0
N1161 N 0.08039 0.33791 0.34756 0.0
H1162 H 0.12787 0.32638 0.31687 0.0
H1163 H 0.06699 0.30408 0.32643 0.0
H1164 H 0.06274 0.33252 0.35578 0.0
H1165 H 0.04952 0.33598 0.34134 0.0
H1166 H 0.36023 0.42218 0.34457 0.0
H1167 H 0.34174 0.40742 0.33018 0.0
H1168 H 0.32326 0.37907 0.36003 0.0
H1169 H 0.26509 0.36945 0.36945 0.0
C1170 C 0.6762 0.89776 0.34659 0.0
C1171 C 0.69054 0.85378 0.35149 0.0
C1172 C 0.71031 0.82769 0.33212 0.0
C1173 C 0.70156 0.87555 0.3274 0.0
N1174 N 0.68232 0.96089 0.33027 0.0
N1175 N 0.72364 0.77798 0.3489 0.0
C1176 C 0.68595 0.9117 0.33468 0.0
C1177 C 0.70839 0.81919 0.34421 0.0
N1178 N 0.65113 0.92488 0.35326 0.0
N1179 N 0.71894 0.7892 0.32494 0.0
H1180 H 0.71979 0.76804 0.35756 0.0
H1181 H 0.74381 0.75639 0.34439 0.0
H1182 H 0.72037 0.79435 0.31612 0.0
H1183 H 0.71976 0.74942 0.32751 0.0
H1184 H 0.63204 0.95094 0.35006 0.0
H1185 H 0.64573 0.91798 0.36201 0.0
H1186 H 0.67928 0.99409 0.33524 0.0
H1187 H 0.68582 0.97063 0.32159 0.0
C1188 C 0.16063 0.80607 0.33573 0.0
C1189 C 0.1945 0.85742 0.32828 0.0
C1190 C 0.24522 0.92534 0.34486 0.0
C1191 C 0.21323 0.87344 0.3523 0.0
N1192 N 0.14848 0.76257 0.35468 0.0
N1193 N 0.27587 0.9631 0.32552 0.0
C1194 C 0.17317 0.81332 0.34767 0.0
C1195 C 0.23861 0.9163 0.33281 0.0
N1196 N 0.11498 0.75057 0.33142 0.0
N1197 N 0.28245 0.98343 0.34933 0.0
H1198 H 0.27303 0.95716 0.31674 0.0
H1199 H 0.31323 1.00564 0.32806 0.0
H1200 H 0.29195 0.99173 0.35798 0.0
H1201 H 0.30106 0.02426 0.34459 0.0
H1202 H 0.08298 0.71403 0.33645 0.0
H1203 H 0.10672 0.74191 0.32273 0.0
H1204 H 0.12587 0.71676 0.35176 0.0
H1205 H 0.15377 0.76614 0.3635 0.0
C1206 C 0.64506 0.80793 0.83546 0.0
C1207 C 0.70389 0.84227 0.8301 0.0
C1208 C 0.74951 0.89799 0.84814 0.0
C1209 C 0.68964 0.86793 0.85318 0.0
N1210 N 0.57886 0.79727 0.85149 0.0
N1211 N 0.8099 0.92632 0.83072 0.0
C1212 C 0.637 0.82374 0.84677 0.0
C1213 C 0.75555 0.88886 0.83632 0.0
N1214 N 0.59756 0.75843 0.82992 0.0
N1215 N 0.80055 0.93559 0.85464 0.0
H1216 H 0.81436 0.92213 0.82202 0.0
H1217 H 0.84792 0.96499 0.83434 0.0
H1218 H 0.79746 0.9439 0.86323 0.0
H1219 H 0.84626 0.95425 0.85182 0.0
H1220 H 0.55589 0.72662 0.83379 0.0
H1221 H 0.60133 0.7467 0.82156 0.0
H1222 H 0.53783 0.77153 0.84688 0.0
H1223 H 0.57141 0.8031 0.86002 0.0
C1224 C 0.20261 0.81295 0.8477 0.0
C1225 C 0.18012 0.84695 0.85408 0.0
C1226 C 0.18829 0.90719 0.83679 0.0
C1227 C 0.21383 0.87536 0.83063 0.0
N1228 N 0.25403 0.80482 0.83069 0.0
N1229 N 0.15857 0.93127 0.85506 0.0
C1230 C 0.22312 0.82997 0.83622 0.0
C1231 C 0.17517 0.8956 0.8487 0.0
N1232 N 0.20349 0.76336 0.85256 0.0
N1233 N 0.17524 0.94764 0.83115 0.0
H1234 H 0.14784 0.92319 0.86369 0.0
H1235 H 0.15986 0.97151 0.85211 0.0
H1236 H 0.18387 0.95705 0.8225 0.0
H1237 H 0.1511 0.96792 0.83469 0.0
H1238 H 0.21057 0.73124 0.84805 0.0
H1239 H 0.19425 0.75258 0.86112 0.0
H1240 H 0.26977 0.77759 0.83465 0.0
H1241 H 0.26778 0.81462 0.82221 0.0
C1242 C 0.22763 0.40788 0.83838 0.0
C1243 C 0.18162 0.35252 0.83309 0.0
C1244 C 0.17125 0.29405 0.85078 0.0
C1245 C 0.21414 0.3503 0.85628 0.0
N1246 N 0.27417 0.46265 0.85596 0.0
N1247 N 0.10397 0.24345 0.83454 0.0
C1248 C 0.24002 0.40774 0.85024 0.0
C1249 C 0.15187 0.2957 0.83938 0.0
N1250 N 0.25961 0.46078 0.83204 0.0
N1251 N 0.1499 0.23879 0.85639 0.0
H1252 H 0.09138 0.24104 0.82602 0.0
H1253 H 0.0749 0.20312 0.83906 0.0
H1254 H 0.16039 0.2363 0.8649 0.0
H1255 H 0.12483 0.1954 0.8525 0.0
H1256 H 0.2986 0.501 0.83499 0.0
H1257 H 0.25013 0.46284 0.82346 0.0
H1258 H 0.28887 0.50622 0.85238 0.0
H1259 H 0.2824 0.46472 0.86467 0.0
C1260 C 0.88839 0.75387 0.68327 0.0
C1261 C 0.86062 0.69502 0.68889 0.0
C1262 C 0.87348 0.64752 0.67146 0.0
C1263 C 0.89628 0.70527 0.66555 0.0
N1264 N 0.9196 0.81177 0.66549 0.0
N1265 N 0.82141 0.58471 0.6881 0.0
C1266 C 0.90191 0.75792 0.67138 0.0
C1267 C 0.85197 0.6416 0.68291 0.0
N1268 N 0.90388 0.80641 0.68946 0.0
N1269 N 0.87352 0.59838 0.66618 0.0
H1270 H 0.80814 0.57931 0.69663 0.0
H1271 H 0.80618 0.54264 0.68386 0.0
H1272 H 0.88399 0.59893 0.6576 0.0
H1273 H 0.86576 0.55809 0.67036 0.0
H1274 H 0.9298 0.85139 0.68626 0.0
H1275 H 0.89606 0.80543 0.69818 0.0
H1276 H 0.91826 0.85001 0.66883 0.0
H1277 H 0.93125 0.81655 0.65688 0.0
C1278 C 0.31794 0.16917 0.67103 0.0
C1279 C 0.37389 0.21087 0.66539 0.0
C1280 C 0.43376 0.22002 0.68285 0.0
C1281 C 0.37816 0.17582 0.68834 0.0
N1282 N 0.2685 0.09983 0.68693 0.0
N1283 N 0.48627 0.26782 0.66513 0.0
C1284 C 0.32058 0.14799 0.68221 0.0
C1285 C 0.4322 0.23389 0.67109 0.0
N1286 N 0.26198 0.15115 0.66583 0.0
N1287 N 0.488 0.2495 0.68896 0.0
H1288 H 0.48695 0.27837 0.65653 0.0
H1289 H 0.53029 0.28091 0.66838 0.0
H1290 H 0.49084 0.23937 0.69748 0.0
H1291 H 0.52895 0.28708 0.68591 0.0
H1292 H 0.21924 0.12734 0.66997 0.0
H1293 H 0.25845 0.16341 0.65748 0.0
H1294 H 0.22726 0.07252 0.68247 0.0
H1295 H 0.26774 0.08423 0.69517 0.0
C1296 C 0.82822 0.13914 0.67036 0.0
C1297 C 0.86118 0.18908 0.66262 0.0
C1298 C 0.92177 0.25681 0.67864 0.0
C1299 C 0.88579 0.20806 0.68643 0.0
N1300 N 0.79817 0.10661 0.68996 0.0
N1301 N 0.93332 0.298 0.65953 0.0
C1302 C 0.83706 0.15028 0.68234 0.0
C1303 C 0.90631 0.24861 0.66682 0.0
N1304 N 0.78882 0.08077 0.66623 0.0
N1305 N 0.97214 0.31046 0.68249 0.0
H1306 H 0.92633 0.29302 0.65078 0.0
H1307 H 0.95988 0.34412 0.66219 0.0
H1308 H 0.98319 0.31973 0.69109 0.0
H1309 H 1.005 0.34438 0.67714 0.0
H1310 H 0.76785 0.04104 0.67129 0.0
H1311 H 0.78126 0.0711 0.65755 0.0
H1312 H 0.75805 0.06561 0.68767 0.0
H1313 H 0.80317 0.11418 0.69873 0.0
C1314 C 0.37705 0.15974 0.18274 0.0
C1315 C 0.37227 0.21076 0.18687 0.0
C1316 C 0.36952 0.24332 0.16714 0.0
C1317 C 0.36819 0.18869 0.1631 0.0
N1318 N 0.36008 0.0894 0.16707 0.0
N1319 N 0.36194 0.30106 0.18319 0.0
C1320 C 0.36861 0.1452 0.17094 0.0
C1321 C 0.36801 0.25265 0.1791 0.0
N1322 N 0.39136 0.12614 0.19012 0.0
N1323 N 0.37431 0.28719 0.15952 0.0
H1324 H 0.36627 0.31254 0.19181 0.0
H1325 H 0.35065 0.32857 0.17814 0.0
H1326 H 0.37263 0.28022 0.15075 0.0
H1327 H 0.38308 0.33144 0.16182 0.0
H1328 H 0.40154 0.0919 0.18756 0.0
H1329 H 0.39795 0.13643 0.19879 0.0
H1330 H 0.35383 0.05322 0.17241 0.0
H1331 H 0.35321 0.07703 0.15848 0.0
C1332 C 0.9258 0.24202 0.17118 0.0
C1333 C 0.87899 0.2042 0.16315 0.0
C1334 C 0.80994 0.14278 0.17901 0.0
C1335 C 0.85757 0.17929 0.18703 0.0
N1336 N 0.96376 0.25852 0.19065 0.0
N1337 N 0.77913 0.11531 0.1592 0.0
C1338 C 0.91625 0.22752 0.18306 0.0
C1339 C 0.82176 0.15366 0.16705 0.0
N1340 N 0.97882 0.29344 0.16747 0.0
N1341 N 0.75319 0.09754 0.18289 0.0
H1342 H 0.78742 0.12253 0.15051 0.0
H1343 H 0.73815 0.07447 0.1611 0.0
H1344 H 0.74386 0.08687 0.19149 0.0
H1345 H 0.71407 0.07271 0.17777 0.0
H1346 H 1.01115 0.32777 0.17286 0.0
H1347 H 0.98923 0.30359 0.15888 0.0
H1348 H 1.01 0.2877 0.18833 0.0
H1349 H 0.95724 0.25268 0.1994 0.0
C1350 C 0.89923 0.75165 0.16922 0.0
C1351 C 0.851 0.69647 0.16419 0.0
C1352 C 0.83698 0.64064 0.18247 0.0
C1353 C 0.88601 0.69561 0.18743 0.0
N1354 N 0.96871 0.80209 0.1852 0.0
N1355 N 0.76924 0.58956 0.16626 0.0
C1356 C 0.91829 0.75075 0.1807 0.0
C1357 C 0.81872 0.64124 0.1709 0.0
N1358 N 0.92462 0.80602 0.16318 0.0
N1359 N 0.80989 0.5869 0.1887 0.0
H1360 H 0.75761 0.58625 0.15768 0.0
H1361 H 0.73817 0.55049 0.17086 0.0
H1362 H 0.82064 0.58549 0.19724 0.0
H1363 H 0.77909 0.54307 0.18543 0.0
H1364 H 0.95396 0.84977 0.16666 0.0
H1365 H 0.91306 0.80809 0.15472 0.0
H1366 H 0.99979 0.84054 0.18045 0.0
H1367 H 0.98163 0.80535 0.1937 0.0
C1368 C 0.62499 0.86211 0.06095 0.0
C1369 C 0.57081 0.85645 0.05557 0.0
C1370 C 0.55493 0.76209 0.04586 0.0
C1371 C 0.60301 0.76177 0.05251 0.0
N1372 N 0.68386 0.81196 0.06667 0.0
N1373 N 0.47827 0.79514 0.04432 0.0
C1374 C 0.63867 0.81235 0.06005 0.0
C1375 C 0.53455 0.80516 0.04833 0.0
N1376 N 0.66434 0.91579 0.06663 0.0
N1377 N 0.52828 0.72062 0.03711 0.0
H1378 H 0.45994 0.82391 0.04628 0.0
H1379 H 0.44653 0.75468 0.04006 0.0
H1380 H 0.54028 0.6869 0.03521 0.0
H1381 H 0.49854 0.72331 0.03113 0.0
H1382 H 0.70796 0.92596 0.06969 0.0
H1383 H 0.65539 0.95253 0.06755 0.0
H1384 H 0.70572 0.84285 0.07337 0.0
H1385 H 0.69789 0.77893 0.06579 0.0
C1386 C 0.22284 0.79004 0.06222 0.0
C1387 C 0.21798 0.74335 0.05456 0.0
C1388 C 0.29946 0.82464 0.04266 0.0
C1389 C 0.31068 0.86995 0.05109 0.0
N1390 N 0.28662 0.89516 0.06953 0.0
N1391 N 0.26015 0.71559 0.03855 0.0
C1392 C 0.27287 0.8527 0.061 0.0
C1393 C 0.25816 0.76056 0.04499 0.0
N1394 N 0.17884 0.77496 0.07047 0.0
N1395 N 0.32899 0.84321 0.03241 0.0
H1396 H 0.23386 0.66825 0.04041 0.0
H1397 H 0.29279 0.72537 0.03215 0.0
H1398 H 0.35907 0.89004 0.03048 0.0
H1399 H 0.31882 0.81327 0.0255 0.0
H1400 H 0.17604 0.80798 0.07555 0.0
H1401 H 0.14185 0.72979 0.07163 0.0
H1402 H 0.2661 0.88348 0.07754 0.0
H1403 H 0.32125 0.94171 0.06881 0.0
C1404 C 0.243 0.51482 0.06368 0.0
C1405 C 0.20334 0.47317 0.05504 0.0
C1406 C 0.28957 0.45757 0.04871 0.0
C1407 C 0.32898 0.4996 0.05729 0.0
N1408 N 0.33967 0.55807 0.07437 0.0
N1409 N 0.18514 0.39736 0.04058 0.0
C1410 C 0.30434 0.52451 0.06526 0.0
C1411 C 0.22544 0.44181 0.04799 0.0
N1412 N 0.22319 0.54776 0.07011 0.0
N1413 N 0.31385 0.4333 0.04116 0.0
H1414 H 0.13873 0.38618 0.03972 0.0
H1415 H 0.19592 0.36853 0.03583 0.0
H1416 H 0.35877 0.43989 0.04193 0.0
H1417 H 0.29069 0.40834 0.03391 0.0
H1418 H 0.25269 0.58582 0.07514 0.0
H1419 H 0.17765 0.53961 0.07004 0.0
H1420 H 0.32167 0.56987 0.08133 0.0
H1421 H 0.3863 0.57074 0.07545 0.0
C1422 C 0.84526 0.61236 0.45488 0.0
C1423 C 0.84823 0.57321 0.46345 0.0
C1424 C 0.76688 0.58123 0.47415 0.0
C1425 C 0.75654 0.61089 0.46478 0.0
N1426 N 0.78768 0.65883 0.44646 0.0
N1427 N 0.8069 0.51534 0.48086 0.0
C1428 C 0.79688 0.62836 0.45525 0.0
C1429 C 0.80838 0.55715 0.47308 0.0
N1430 N 0.88973 0.63569 0.44659 0.0
N1431 N 0.73613 0.57577 0.4841 0.0
H1432 H 0.83424 0.49429 0.48021 0.0
H1433 H 0.77427 0.49675 0.48738 0.0
H1434 H 0.70586 0.59346 0.48503 0.0
H1435 H 0.74536 0.55993 0.49166 0.0
H1436 H 0.89396 0.66882 0.44067 0.0
H1437 H 0.92572 0.62536 0.44612 0.0
H1438 H 0.80985 0.66673 0.43862 0.0
H1439 H 0.75591 0.67485 0.44698 0.0
C1440 C 0.45744 0.21538 0.45298 0.0
C1441 C 0.44636 0.18841 0.46398 0.0
C1442 C 0.45329 0.28381 0.4718 0.0
C1443 C 0.47691 0.31497 0.46124 0.0
N1444 N 0.50472 0.3099 0.44174 0.0
N1445 N 0.4315 0.19568 0.48395 0.0
C1446 C 0.4787 0.28032 0.45174 0.0
C1447 C 0.4429 0.22207 0.47341 0.0
N1448 N 0.44775 0.17842 0.44369 0.0
N1449 N 0.43843 0.31243 0.48016 0.0
H1450 H 0.41892 0.14913 0.48515 0.0
H1451 H 0.43651 0.22024 0.49144 0.0
H1452 H 0.4418 0.35564 0.47894 0.0
H1453 H 0.41649 0.2908 0.48771 0.0
H1454 H 0.4494 0.19334 0.43536 0.0
H1455 H 0.43136 0.13071 0.44442 0.0
H1456 H 0.51383 0.28846 0.43498 0.0
H1457 H 0.5222 0.35736 0.44047 0.0
C1458 C 0.8462 0.28133 0.45624 0.0
C1459 C 0.8673 0.30336 0.46742 0.0
C1460 C 0.7652 0.22444 0.47478 0.0
C1461 C 0.7405 0.21131 0.46349 0.0
N1462 N 0.75802 0.23237 0.44336 0.0
N1463 N 0.84664 0.29768 0.48745 0.0
C1464 C 0.78138 0.24026 0.45416 0.0
C1465 C 0.82682 0.27499 0.47674 0.0
N1466 N 0.88833 0.30079 0.44756 0.0
N1467 N 0.73088 0.18713 0.48357 0.0
H1468 H 0.89242 0.33235 0.48917 0.0
H1469 H 0.81707 0.28439 0.49446 0.0
H1470 H 0.68738 0.14747 0.48242 0.0
H1471 H 0.74844 0.19128 0.49178 0.0
H1472 H 0.8773 0.28243 0.43936 0.0
H1473 H 0.93587 0.33064 0.4489 0.0
H1474 H 0.78458 0.25763 0.43641 0.0
H1475 H 0.71083 0.20498 0.44143 0.0
C1476 C 0.52046 0.30024 0.97387 0.0
C1477 C 0.47293 0.3014 0.96726 0.0
C1478 C 0.44777 0.1998 0.95903 0.0
C1479 C 0.5024 0.205 0.96412 0.0
N1480 N 0.59548 0.26499 0.97537 0.0
N1481 N 0.39014 0.25131 0.95343 0.0
C1482 C 0.53958 0.25608 0.97139 0.0
C1483 C 0.43557 0.25045 0.95991 0.0
N1484 N 0.54747 0.3418 0.98259 0.0
N1485 N 0.40652 0.14568 0.95367 0.0
H1486 H 0.37726 0.28522 0.95426 0.0
H1487 H 0.36698 0.2199 0.94686 0.0
H1488 H 0.41371 0.10774 0.95293 0.0
H1489 H 0.36273 0.13617 0.95083 0.0
H1490 H 0.57777 0.33944 0.98848 0.0
H1491 H 0.53447 0.37475 0.98461 0.0
H1492 H 0.62762 0.30508 0.97968 0.0
H1493 H 0.61297 0.23553 0.97341 0.0
C1494 C 0.83738 0.27315 0.94989 0.0
C1495 C 0.8599 0.31357 0.95949 0.0
C1496 C 0.78908 0.22641 0.97184 0.0
C1497 C 0.76652 0.1863 0.96227 0.0
N1498 N 0.7809 0.16646 0.94285 0.0
N1499 N 0.87156 0.3224 0.97993 0.0
C1500 C 0.7949 0.20811 0.95152 0.0
C1501 C 0.83995 0.28834 0.97058 0.0
N1502 N 0.85335 0.29721 0.93918 0.0
N1503 N 0.76094 0.20558 0.98215 0.0
H1504 H 0.91158 0.36604 0.97936 0.0
H1505 H 0.86262 0.30467 0.98816 0.0
H1506 H 0.72698 0.15924 0.98354 0.0
H1507 H 0.76922 0.2347 0.98912 0.0
H1508 H 0.83321 0.27132 0.93183 0.0
H1509 H 0.88303 0.34442 0.93759 0.0
H1510 H 0.80383 0.17797 0.93506 0.0
H1511 H 0.75059 0.11883 0.94394 0.0
C1512 C 0.76845 0.52109 0.95445 0.0
C1513 C 0.75064 0.56158 0.95958 0.0
C1514 C 0.85706 0.62501 0.96734 0.0
C1515 C 0.87537 0.5861 0.96168 0.0
N1516 N 0.85208 0.50782 0.94717 0.0
N1517 N 0.78115 0.65976 0.96882 0.0
C1518 C 0.83224 0.53788 0.95434 0.0
C1519 C 0.79598 0.61598 0.9654 0.0
N1520 N 0.72423 0.46413 0.95039 0.0
N1521 N 0.89659 0.66839 0.97498 0.0
H1522 H 0.73752 0.65533 0.96734 0.0
H1523 H 0.8137 0.70297 0.97213 0.0
H1524 H 0.94161 0.67658 0.97649 0.0
H1525 H 0.8833 0.69315 0.98035 0.0
H1526 H 0.73443 0.42991 0.94782 0.0
H1527 H 0.6765 0.44799 0.95073 0.0
H1528 H 0.82406 0.47754 0.94078 0.0
H1529 H 0.89811 0.51752 0.94679 0.0
C1530 C 0.2843 0.47794 0.54382 0.0
C1531 C 0.3077 0.45877 0.55303 0.0
C1532 C 0.23033 0.46333 0.5657 0.0
C1533 C 0.21357 0.4914 0.55686 0.0
N1534 N 0.22727 0.52895 0.53754 0.0
N1535 N 0.30297 0.43187 0.57277 0.0
C1536 C 0.24052 0.49867 0.54586 0.0
C1537 C 0.27992 0.45018 0.56395 0.0
N1538 N 0.30467 0.47655 0.5331 0.0
N1539 N 0.19774 0.44783 0.57567 0.0
H1540 H 0.33558 0.41753 0.57154 0.0
H1541 H 0.29149 0.43262 0.58126 0.0
H1542 H 0.16169 0.45718 0.57724 0.0
H1543 H 0.20298 0.42164 0.58205 0.0
H1544 H 0.28608 0.48447 0.52576 0.0
H1545 H 0.3365 0.46137 0.53152 0.0
H1546 H 0.25001 0.5416 0.52974 0.0
H1547 H 0.1969 0.54624 0.5387 0.0
C1548 C 0.53827 0.77061 0.56333 0.0
C1549 C 0.57356 0.75066 0.55692 0.0
C1550 C 0.63051 0.85449 0.54794 0.0
C1551 C 0.59743 0.87522 0.55485 0.0
N1552 N 0.53122 0.85657 0.57129 0.0
N1553 N 0.6614 0.77654 0.54473 0.0
C1554 C 0.55524 0.83445 0.56325 0.0
C1555 C 0.62224 0.79358 0.54971 0.0
N1556 N 0.48544 0.72807 0.56885 0.0
N1557 N 0.66728 0.89148 0.53933 0.0
H1558 H 0.65713 0.73283 0.54594 0.0
H1559 H 0.7013 0.80736 0.54027 0.0
H1560 H 0.67477 0.93624 0.53789 0.0
H1561 H 0.68684 0.8763 0.53316 0.0
H1562 H 0.45369 0.73921 0.57243 0.0
H1563 H 0.46935 0.68036 0.56887 0.0
H1564 H 0.50656 0.83073 0.57835 0.0
H1565 H 0.54057 0.90245 0.57159 0.0
C1566 C 0.28138 0.86399 0.5521 0.0
C1567 C 0.3238 0.86052 0.55989 0.0
C1568 C 0.24051 0.75904 0.56651 0.0
C1569 C 0.2005 0.75821 0.55763 0.0
N1570 N 0.18397 0.8082 0.54152 0.0
N1571 N 0.34474 0.80476 0.57441 0.0
C1572 C 0.22075 0.81078 0.55043 0.0
C1573 C 0.30341 0.80821 0.5671 0.0
N1574 N 0.29939 0.91762 0.54613 0.0
N1575 N 0.21805 0.71314 0.57458 0.0
H1576 H 0.38933 0.84203 0.57599 0.0
H1577 H 0.33614 0.76403 0.57854 0.0
H1578 H 0.17334 0.67464 0.57442 0.0
H1579 H 0.2419 0.71542 0.58203 0.0
H1580 H 0.26892 0.92576 0.54128 0.0
H1581 H 0.34413 0.95611 0.54661 0.0
H1582 H 0.19867 0.84152 0.53511 0.0
H1583 H 0.13959 0.77033 0.54008 0.0
C1584 C 0.26435 0.13154 0.37577 0.0
C1585 C 0.27506 0.10134 0.38501 0.0
C1586 C 0.24834 0.16113 0.3984 0.0
C1587 C 0.23768 0.19174 0.38914 0.0
N1588 N 0.25603 0.22003 0.36927 0.0
N1589 N 0.29427 0.09966 0.40499 0.0
C1590 C 0.25189 0.18115 0.37789 0.0
C1591 C 0.27322 0.12084 0.39628 0.0
N1592 N 0.26416 0.11144 0.36496 0.0
N1593 N 0.23068 0.16672 0.40914 0.0
H1594 H 0.31282 0.07049 0.4036 0.0
H1595 H 0.29944 0.11596 0.41331 0.0
H1596 H 0.21019 0.19354 0.41107 0.0
H1597 H 0.23098 0.14026 0.416 0.0
H1598 H 0.24883 0.12578 0.35793 0.0
H1599 H 0.27671 0.07789 0.36316 0.0
H1600 H 0.27151 0.21798 0.36114 0.0
H1601 H 0.25094 0.2589 0.37056 0.0
C1602 C 0.93757 0.17272 0.37734 0.0
C1603 C 0.96467 0.20957 0.38718 0.0
C1604 C 0.89778 0.11876 0.39922 0.0
C1605 C 0.87068 0.08162 0.38933 0.0
N1606 N 0.85129 0.07952 0.36915 0.0
N1607 N 0.95975 0.2227 0.40731 0.0
C1608 C 0.88651 0.11056 0.37843 0.0
C1609 C 0.94066 0.18409 0.39806 0.0
N1610 N 0.96234 0.1963 0.36693 0.0
N1611 N 0.88596 0.09118 0.40967 0.0
H1612 H 0.99086 0.27045 0.40661 0.0
H1613 H 0.94038 0.20891 0.41537 0.0
H1614 H 0.85615 0.04366 0.41091 0.0
H1615 H 0.90952 0.11434 0.41704 0.0
H1616 H 0.95031 0.16952 0.35954 0.0
H1617 H 0.99763 0.24232 0.36585 0.0
H1618 H 0.85695 0.1001 0.3612 0.0
H1619 H 0.81188 0.03537 0.36967 0.0
C1620 C 0.89291 0.81013 0.3746 0.0
C1621 C 0.8554 0.79522 0.38446 0.0
C1622 C 0.94426 0.80665 0.39597 0.0
C1623 C 0.98432 0.83156 0.38641 0.0
N1624 N 0.99721 0.86369 0.36672 0.0
N1625 N 0.84596 0.78227 0.40478 0.0
C1626 C 0.95858 0.83419 0.3757 0.0
C1627 C 0.8812 0.79374 0.3952 0.0
N1628 N 0.86561 0.80207 0.36418 0.0
N1629 N 0.96576 0.79334 0.40568 0.0
H1630 H 0.79906 0.76991 0.40447 0.0
H1631 H 0.86393 0.78824 0.41299 0.0
H1632 H 1.01101 0.80091 0.4065 0.0
H1633 H 0.93721 0.76936 0.41253 0.0
H1634 H 0.88873 0.80657 0.35654 0.0
H1635 H 0.81779 0.78436 0.36327 0.0
H1636 H 0.98197 0.87283 0.35908 0.0
H1637 H 0.04559 0.88477 0.36722 0.0
C1638 C 0.46586 0.94808 0.78806 0.0
C1639 C 0.42886 0.92989 0.79807 0.0
C1640 C 0.48726 0.88065 0.80535 0.0
C1641 C 0.52497 0.89927 0.79541 0.0
N1642 N 0.55912 0.96214 0.77847 0.0
N1643 N 0.4155 0.8946 0.81741 0.0
C1644 C 0.51693 0.93648 0.7871 0.0
C1645 C 0.44362 0.90152 0.8071 0.0
N1646 N 0.45061 0.97402 0.77926 0.0
N1647 N 0.49 0.83958 0.81278 0.0
H1648 H 0.384 0.91028 0.81892 0.0
H1649 H 0.42807 0.87956 0.8247 0.0
H1650 H 0.51914 0.82083 0.81165 0.0
H1651 H 0.45899 0.81915 0.8195 0.0
H1652 H 0.47026 0.98104 0.7712 0.0
H1653 H 0.41604 0.98623 0.77991 0.0
H1654 H 0.55988 0.99481 0.7728 0.0
H1655 H 0.59681 0.95467 0.77753 0.0
C1656 C 0.12294 0.59757 0.78987 0.0
C1657 C 0.1638 0.64396 0.7977 0.0
C1658 C 0.1585 0.56101 0.81003 0.0
C1659 C 0.12679 0.51625 0.80139 0.0
N1660 N 0.08259 0.49267 0.78252 0.0
N1661 N 0.2287 0.66946 0.81449 0.0
C1662 C 0.10932 0.53454 0.79119 0.0
C1663 C 0.18316 0.62551 0.80767 0.0
N1664 N 0.09543 0.61311 0.78138 0.0
N1665 N 0.16585 0.54152 0.8205 0.0
H1666 H 0.25167 0.71691 0.81265 0.0
H1667 H 0.2488 0.65856 0.82125 0.0
H1668 H 0.14804 0.49445 0.8224 0.0
H1669 H 0.18357 0.57098 0.82752 0.0
H1670 H 0.06052 0.58029 0.77613 0.0
H1671 H 0.10313 0.65817 0.78025 0.0
H1672 H 0.07634 0.50513 0.77436 0.0
H1673 H 0.06973 0.44585 0.78329 0.0
C1674 C 0.49327 0.63076 0.78682 0.0
C1675 C 0.53267 0.63431 0.79605 0.0
C1676 C 0.44553 0.53865 0.80412 0.0
C1677 C 0.40666 0.53534 0.79485 0.0
N1678 N 0.39734 0.5704 0.7762 0.0
N1679 N 0.54942 0.58745 0.8126 0.0
C1680 C 0.43199 0.57856 0.7858 0.0
C1681 C 0.50981 0.58655 0.80438 0.0
N1682 N 0.51299 0.67909 0.7793 0.0
N1683 N 0.42062 0.49626 0.81275 0.0
H1684 H 0.59574 0.62291 0.81325 0.0
H1685 H 0.53811 0.55146 0.81835 0.0
H1686 H 0.37578 0.45775 0.81243 0.0
H1687 H 0.44323 0.49992 0.82042 0.0
H1688 H 0.48359 0.68371 0.77352 0.0
H1689 H 0.55784 0.71738 0.77923 0.0
H1690 H 0.41599 0.59499 0.7687 0.0
H1691 H 0.3508 0.53594 0.77536 0.0
C1692 C 0.13566 0.5402 0.30153 0.0
C1693 C 0.18578 0.54641 0.29463 0.0
C1694 C 0.20197 0.64675 0.2878 0.0
C1695 C 0.15846 0.64526 0.29593 0.0
N1696 N 0.08854 0.59261 0.31147 0.0
N1697 N 0.2749 0.61241 0.28299 0.0
C1698 C 0.12604 0.59225 0.303 0.0
C1699 C 0.22079 0.60123 0.28817 0.0
N1700 N 0.09611 0.4841 0.30642 0.0
N1701 N 0.22546 0.69172 0.27959 0.0
H1702 H 0.29258 0.58206 0.28343 0.0
H1703 H 0.30601 0.65505 0.27932 0.0
H1704 H 0.21466 0.72721 0.27903 0.0
H1705 H 0.25117 0.69045 0.27269 0.0
H1706 H 0.0554 0.47496 0.31062 0.0
H1707 H 0.10071 0.44476 0.30533 0.0
H1708 H 0.06935 0.55843 0.31772 0.0
H1709 H 0.08032 0.62959 0.31274 0.0
C1710 C 0.46966 0.56054 0.30826 0.0
C1711 C 0.44589 0.51766 0.29913 0.0
C1712 C 0.52316 0.59816 0.28635 0.0
C1713 C 0.53988 0.64351 0.29508 0.0
N1714 N 0.52376 0.66866 0.31421 0.0
N1715 N 0.44866 0.49499 0.27931 0.0
C1716 C 0.51249 0.62476 0.30607 0.0
C1717 C 0.47293 0.53615 0.28815 0.0
N1718 N 0.4506 0.53952 0.31905 0.0
N1719 N 0.55638 0.61393 0.27645 0.0
H1720 H 0.41468 0.44851 0.28047 0.0
H1721 H 0.46013 0.50734 0.27082 0.0
H1722 H 0.59351 0.65856 0.2749 0.0
H1723 H 0.55082 0.58177 0.2702 0.0
H1724 H 0.46995 0.5666 0.3263 0.0
H1725 H 0.41974 0.49264 0.32073 0.0
H1726 H 0.50019 0.65857 0.32193 0.0
H1727 H 0.55237 0.71632 0.31291 0.0
C1728 C 0.46938 0.94473 0.30103 0.0
C1729 C 0.42969 0.91335 0.29152 0.0
C1730 C 0.51093 0.89514 0.28381 0.0
C1731 C 0.55328 0.93046 0.29275 0.0
N1732 N 0.57512 0.99902 0.30874 0.0
N1733 N 0.42575 0.88286 0.27195 0.0
C1734 C 0.53351 0.95941 0.30089 0.0
C1735 C 0.45486 0.8967 0.2823 0.0
N1736 N 0.44548 0.95657 0.31055 0.0
N1737 N 0.52133 0.85647 0.27705 0.0
H1738 H 0.38646 0.88692 0.2703 0.0
H1739 H 0.44539 0.87535 0.2647 0.0
H1740 H 0.55951 0.85034 0.27794 0.0
H1741 H 0.48825 0.8254 0.2713 0.0
H1742 H 0.47045 0.97282 0.31812 0.0
H1743 H 0.39911 0.94505 0.31135 0.0
H1744 H 0.56533 0.02608 0.31422 0.0
H1745 H 0.62131 0.0089 0.30905 0.0
C1746 C 0.96339 0.836 0.87684 0.0
C1747 C 0.9698 0.79735 0.88498 0.0
C1748 C 0.87431 0.78223 0.89442 0.0
C1749 C 0.87483 0.82951 0.88746 0.0
N1750 N 0.92534 0.90705 0.87279 0.0
N1751 N 0.93087 0.7323 0.90158 0.0
C1752 C 0.92036 0.85737 0.87876 0.0
C1753 C 0.92461 0.76936 0.89372 0.0
N1754 N 0.9987 0.85205 0.86719 0.0
N1755 N 0.82474 0.74816 0.90143 0.0
H1756 H 0.96438 0.7187 0.90091 0.0
H1757 H 0.90455 0.717 0.90899 0.0
H1758 H 0.787 0.75576 0.90207 0.0
H1759 H 0.81823 0.70895 0.90585 0.0
H1760 H 0.99255 0.87545 0.86039 0.0
H1761 H 0.02954 0.83578 0.86549 0.0
H1762 H 0.96174 0.93325 0.8672 0.0
H1763 H 0.89694 0.92639 0.87423 0.0
C1764 C 0.28712 0.18805 0.89898 0.0
C1765 C 0.27782 0.21116 0.88859 0.0
C1766 C 0.24805 0.10963 0.87973 0.0
C1767 C 0.24305 0.08261 0.89066 0.0
N1768 N 0.25523 0.09785 0.91104 0.0
N1769 N 0.25163 0.19434 0.86872 0.0
C1770 C 0.263 0.1225 0.90038 0.0
C1771 C 0.25926 0.17198 0.87885 0.0
N1772 N 0.31927 0.22883 0.90752 0.0
N1773 N 0.2453 0.07696 0.87017 0.0
H1774 H 0.2649 0.24114 0.86758 0.0
H1775 H 0.2301 0.1662 0.86167 0.0
H1776 H 0.24231 0.03348 0.87046 0.0
H1777 H 0.25361 0.0959 0.86202 0.0
H1778 H 0.33309 0.21579 0.91491 0.0
H1779 H 0.33832 0.27677 0.90654 0.0
H1780 H 0.26286 0.12404 0.91842 0.0
H1781 H 0.23558 0.05033 0.91257 0.0
C1782 C 0.89161 0.126 0.87704 0.0
C1783 C 0.85396 0.09388 0.88648 0.0
C1784 C 0.94154 0.15524 0.89947 0.0
C1785 C 0.97952 0.18784 0.89003 0.0
N1786 N 0.98514 0.21696 0.87026 0.0
N1787 N 0.83717 0.08845 0.90669 0.0
C1788 C 0.9528 0.17713 0.87893 0.0
C1789 C 0.87704 0.11259 0.8977 0.0
N1790 N 0.86981 0.10602 0.86629 0.0
N1791 N 0.96762 0.16101 0.90999 0.0
H1792 H 0.79005 0.05611 0.90563 0.0
H1793 H 0.84929 0.10475 0.915 0.0
H1794 H 0.0149 0.18979 0.91167 0.0
H1795 H 0.94345 0.13297 0.91687 0.0
H1796 H 0.89768 0.12227 0.85907 0.0
H1797 H 0.82427 0.07051 0.86468 0.0
H1798 H 0.96612 0.21458 0.86224 0.0
H1799 H 0.02871 0.25655 0.87142 0.0
C1800 C 0.95221 0.44646 0.72959 0.0
C1801 C 0.94998 0.4243 0.71836 0.0
C1802 C 0.92432 0.50278 0.71137 0.0
C1803 C 0.91446 0.51618 0.72273 0.0
N1804 N 0.91423 0.49523 0.7428 0.0
N1805 N 0.93091 0.42958 0.69846 0.0
C1806 C 0.92815 0.48733 0.7319 0.0
C1807 C 0.93548 0.45229 0.70921 0.0
N1808 N 0.97647 0.42754 0.73812 0.0
N1809 N 0.92587 0.53996 0.70263 0.0
H1810 H 0.94247 0.39541 0.69653 0.0
H1811 H 0.91276 0.44232 0.69163 0.0
H1812 H 0.92246 0.57985 0.70388 0.0
H1813 H 0.9379 0.53561 0.69434 0.0
H1814 H 0.98476 0.44602 0.74631 0.0
H1815 H 0.99453 0.39812 0.73665 0.0
H1816 H 0.91667 0.47004 0.74968 0.0
H1817 H 0.89453 0.52257 0.74489 0.0
C1818 C 0.55414 0.45155 0.73116 0.0
C1819 C 0.55179 0.40587 0.72347 0.0
C1820 C 0.63626 0.48977 0.71242 0.0
C1821 C 0.6459 0.53344 0.72109 0.0
N1822 N 0.61521 0.55581 0.73909 0.0
N1823 N 0.59979 0.38191 0.70782 0.0
C1824 C 0.60473 0.51448 0.73053 0.0
C1825 C 0.59488 0.42518 0.71429 0.0
N1826 N 0.50704 0.43552 0.7388 0.0
N1827 N 0.66739 0.5104 0.70236 0.0
H1828 H 0.57434 0.33421 0.70941 0.0
H1829 H 0.63441 0.3936 0.70174 0.0
H1830 H 0.69711 0.55767 0.70073 0.0
H1831 H 0.65849 0.48174 0.69529 0.0
H1832 H 0.50291 0.46784 0.74385 0.0
H1833 H 0.46883 0.39064 0.73936 0.0
H1834 H 0.59206 0.54306 0.74686 0.0
H1835 H 0.64942 0.60263 0.7386 0.0
C1836 C 0.5747 0.15635 0.73152 0.0
C1837 C 0.53723 0.12846 0.72167 0.0
C1838 C 0.626 0.12675 0.71268 0.0
C1839 C 0.66173 0.15089 0.72287 0.0
N1840 N 0.66016 0.16652 0.74308 0.0
N1841 N 0.5233 0.07546 0.70383 0.0
C1842 C 0.63285 0.15855 0.73263 0.0
C1843 C 0.56137 0.10896 0.71264 0.0
N1844 N 0.55677 0.18374 0.73964 0.0
N1845 N 0.65423 0.12533 0.70279 0.0
H1846 H 0.4766 0.06379 0.70337 0.0
H1847 H 0.53651 0.0547 0.69754 0.0
H1848 H 0.70159 0.1406 0.70212 0.0
H1849 H 0.63178 0.11464 0.69493 0.0
H1850 H 0.58609 0.21056 0.74624 0.0
H1851 H 0.51528 0.18482 0.7393 0.0
H1852 H 0.63808 0.16674 0.75061 0.0
H1853 H 0.70119 0.16508 0.74434 0.0
C1854 C 0.19755 0.29585 0.12447 0.0
C1855 C 0.19429 0.24434 0.13051 0.0
C1856 C 0.10542 0.23552 0.14133 0.0
C1857 C 0.10018 0.2771 0.13375 0.0
N1858 N 0.14779 0.35689 0.11958 0.0
N1859 N 0.1402 0.16096 0.14407 0.0
C1860 C 0.14872 0.3109 0.12581 0.0
C1861 C 0.1476 0.21378 0.13893 0.0
N1862 N 0.24783 0.33073 0.11766 0.0
N1863 N 0.069 0.21638 0.15084 0.0
H1864 H 0.16746 0.14087 0.14218 0.0
H1865 H 0.10276 0.13322 0.14935 0.0
H1866 H 0.03841 0.23264 0.1528 0.0
H1867 H 0.07409 0.19041 0.1573 0.0
H1868 H 0.25603 0.37118 0.11352 0.0
H1869 H 0.28406 0.32107 0.11665 0.0
H1870 H 0.17861 0.38093 0.11303 0.0
H1871 H 0.11526 0.37119 0.121 0.0
C1872 C 0.84962 0.96362 0.13951 0.0
C1873 C 0.82778 0.98188 0.12987 0.0
C1874 C 0.77322 0.87339 0.12304 0.0
C1875 C 0.79603 0.85568 0.13261 0.0
N1876 N 0.83827 0.87893 0.15154 0.0
N1877 N 0.75684 0.95255 0.11401 0.0
C1878 C 0.82826 0.89938 0.14138 0.0
C1879 C 0.7858 0.93618 0.1221 0.0
N1880 N 0.89395 0.00775 0.14649 0.0
N1881 N 0.74193 0.83114 0.11462 0.0
H1882 H 0.76492 0.99792 0.11313 0.0
H1883 H 0.72105 0.92057 0.10881 0.0
H1884 H 0.72864 0.78422 0.1153 0.0
H1885 H 0.7311 0.84288 0.10678 0.0
H1886 H 0.91656 0.99737 0.15288 0.0
H1887 H 0.9127 0.05548 0.14528 0.0
H1888 H 0.85664 0.9073 0.15868 0.0
H1889 H 0.82179 0.83178 0.15314 0.0
C1890 C 0.16673 0.96018 0.1423 0.0
C1891 C 0.21002 0.97139 0.13351 0.0
C1892 C 0.12821 0.88152 0.12299 0.0
C1893 C 0.0827 0.87768 0.13085 0.0
N1894 N 0.05866 0.92114 0.14721 0.0
N1895 N 0.23145 0.94528 0.11497 0.0
C1896 C 0.10205 0.91848 0.14041 0.0
C1897 C 0.19083 0.93221 0.12376 0.0
N1898 N 0.18775 0.99081 0.15243 0.0
N1899 N 0.11225 0.8359 0.11501 0.0
H1900 H 0.27796 0.98042 0.11542 0.0
H1901 H 0.21817 0.92366 0.10705 0.0
H1902 H 0.06753 0.79744 0.11434 0.0
H1903 H 0.14468 0.83302 0.10978 0.0
H1904 H 0.15965 0.98085 0.15959 0.0
H1905 H 0.23498 0.0217 0.15394 0.0
H1906 H 0.07007 0.95413 0.15362 0.0
H1907 H 1.01088 0.89524 0.14566 0.0
C1908 C 0.7848 0.87653 0.63398 0.0
C1909 C 0.83796 0.88192 0.62822 0.0
C1910 C 0.86353 0.98614 0.6218 0.0
C1911 C 0.81539 0.98482 0.62875 0.0
N1912 N 0.7345 0.92971 0.64257 0.0
N1913 N 0.93563 0.94839 0.61885 0.0
C1914 C 0.77668 0.92994 0.63507 0.0
C1915 C 0.87908 0.93827 0.62267 0.0
N1916 N 0.74134 0.82003 0.63821 0.0
N1917 N 0.89465 0.03313 0.61417 0.0
H1918 H 0.95065 0.91601 0.61966 0.0
H1919 H 0.97072 0.99165 0.61603 0.0
H1920 H 0.88673 0.0702 0.61327 0.0
H1921 H 0.92407 0.0321 0.60795 0.0
H1922 H 0.69862 0.81125 0.64147 0.0
H1923 H 0.74579 0.78038 0.63755 0.0
H1924 H 0.71004 0.894 0.64838 0.0
H1925 H 0.72719 0.96743 0.64355 0.0
C1926 C 0.16258 0.95739 0.61896 0.0
C1927 C 0.19097 0.99545 0.62868 0.0
C1928 C 0.12819 0.90525 0.64106 0.0
C1929 C 0.10105 0.8673 0.63135 0.0
N1930 N 0.10458 0.85244 0.61126 0.0
N1931 N 0.21526 0.99918 0.64873 0.0
C1932 C 0.12271 0.8919 0.62036 0.0
C1933 C 0.17808 0.96751 0.63968 0.0
N1934 N 0.17017 0.98392 0.60847 0.0
N1935 N 0.10526 0.88229 0.65161 0.0
H1936 H 0.255 0.0429 0.64798 0.0
H1937 H 0.21111 0.97913 0.6567 0.0
H1938 H 0.07112 0.83595 0.65295 0.0
H1939 H 0.11765 0.91001 0.65889 0.0
H1940 H 0.14534 0.95923 0.6013 0.0
H1941 H 0.19677 0.03172 0.60708 0.0
H1942 H 0.1228 0.86634 0.60312 0.0
H1943 H 0.07622 0.80437 0.61217 0.0
C1944 C 0.17517 0.26174 0.64326 0.0
C1945 C 0.21831 0.28489 0.63418 0.0
C1946 C 0.13929 0.29068 0.62222 0.0
C1947 C 0.09357 0.25832 0.6307 0.0
N1948 N 0.06684 0.20763 0.64905 0.0
N1949 N 0.24204 0.32062 0.61481 0.0
C1950 C 0.11137 0.24333 0.64125 0.0
C1951 C 0.20084 0.30012 0.62365 0.0
N1952 N 0.19558 0.25702 0.65382 0.0
N1953 N 0.12416 0.31353 0.61291 0.0
H1954 H 0.28825 0.33137 0.61571 0.0
H1955 H 0.22989 0.32448 0.60649 0.0
H1956 H 0.07972 0.30749 0.61163 0.0
H1957 H 0.15666 0.34287 0.60696 0.0
H1958 H 0.16834 0.246 0.66112 0.0
H1959 H 0.24212 0.27031 0.65544 0.0
H1960 H 0.07601 0.1894 0.6563 0.0
H1961 H 0.01943 0.19127 0.64785 0.0
C1962 C 0.57156 0.13529 0.23257 0.0
C1963 C 0.54607 0.14794 0.22271 0.0
C1964 C 0.6159 0.1276 0.21075 0.0
C1965 C 0.6415 0.11553 0.22056 0.0
N1966 N 0.63022 0.08869 0.24033 0.0
N1967 N 0.52943 0.13344 0.20244 0.0
C1968 C 0.61437 0.11258 0.2313 0.0
C1969 C 0.56383 0.13712 0.2118 0.0
N1970 N 0.55886 0.14905 0.24314 0.0
N1971 N 0.64264 0.13184 0.2004 0.0
H1972 H 0.48887 0.13609 0.20298 0.0
H1973 H 0.53665 0.12026 0.19442 0.0
H1974 H 0.67834 0.12155 0.19927 0.0
H1975 H 0.63161 0.1485 0.19313 0.0
H1976 H 0.58154 0.14723 0.25048 0.0
H1977 H 0.52983 0.16761 0.24453 0.0
H1978 H 0.60807 0.07979 0.24818 0.0
H1979 H 0.66079 0.07137 0.23948 0.0
C1980 C 0.90809 0.49545 0.20941 0.0
C1981 C 0.9443 0.53917 0.21792 0.0
C1982 C 0.95901 0.45838 0.22731 0.0
C1983 C 0.91338 0.41251 0.21997 0.0
N1984 N 0.83836 0.38727 0.20477 0.0
N1985 N 1.00611 0.56348 0.23498 0.0
C1986 C 0.88691 0.43108 0.2111 0.0
C1987 C 0.97107 0.52122 0.2268 0.0
N1988 N 0.89402 0.51594 0.19966 0.0
N1989 N 0.9921 0.44229 0.23451 0.0
H1990 H 0.01902 0.6104 0.23445 0.0
H1991 H 0.02037 0.55173 0.24246 0.0
H1992 H 0.98516 0.39719 0.23497 0.0
H1993 H 0.03007 0.47445 0.23929 0.0
H1994 H 0.87242 0.48743 0.19265 0.0
H1995 H 0.91042 0.56316 0.19816 0.0
H1996 H 0.81312 0.39823 0.19903 0.0
H1997 H 0.81873 0.33949 0.20604 0.0
C1998 C 0.55125 0.45262 0.23049 0.0
C1999 C 0.52863 0.428 0.21951 0.0
C2000 C 0.62944 0.50602 0.21146 0.0
C2001 C 0.6559 0.52185 0.22259 0.0
N2002 N 0.64131 0.50571 0.24288 0.0
N2003 N 0.54637 0.42989 0.19941 0.0
C2004 C 0.61637 0.49483 0.23218 0.0
C2005 C 0.56772 0.45478 0.20994 0.0
N2006 N 0.51035 0.43456 0.23936 0.0
N2007 N 0.66223 0.54146 0.20236 0.0
H2008 H 0.50035 0.39492 0.19797 0.0
H2009 H 0.57489 0.44173 0.19227 0.0
H2010 H 0.70562 0.58164 0.20318 0.0
H2011 H 0.64352 0.5353 0.1942 0.0
H2012 H 0.52234 0.45444 0.24743 0.0
H2013 H 0.46269 0.4042 0.23825 0.0
H2014 H 0.61596 0.48212 0.25006 0.0
H2015 H 0.68868 0.53411 0.24455 0.0
C2016 C 0.55235 0.35547 0.06063 0.0
C2017 C 0.53395 0.38318 0.05209 0.0
C2018 C 0.47838 0.28256 0.04225 0.0
C2019 C 0.48964 0.25313 0.05163 0.0
N2020 N 0.51925 0.26207 0.07153 0.0
N2021 N 0.46366 0.36768 0.03639 0.0
C2022 C 0.52136 0.28969 0.06136 0.0
C2023 C 0.49166 0.34506 0.04345 0.0
N2024 N 0.59845 0.3913 0.06818 0.0
N2025 N 0.45904 0.25359 0.03194 0.0
H2026 H 0.47271 0.41348 0.03661 0.0
H2027 H 0.42766 0.33915 0.03084 0.0
H2028 H 0.45257 0.20973 0.03012 0.0
H2029 H 0.45656 0.27664 0.02471 0.0
H2030 H 0.61657 0.37253 0.07397 0.0
H2031 H 0.62297 0.43975 0.06786 0.0
H2032 H 0.53761 0.2873 0.07902 0.0
H2033 H 0.49182 0.21436 0.07285 0.0
C2034 C 0.78379 0.24645 0.04298 0.0
C2035 C 0.82068 0.25976 0.05302 0.0
C2036 C 0.72551 0.19525 0.06406 0.0
C2037 C 0.68999 0.17741 0.05387 0.0
N2038 N 0.68817 0.17422 0.03336 0.0
N2039 N 0.82766 0.23726 0.07276 0.0
C2040 C 0.71992 0.1996 0.04325 0.0
C2041 C 0.79172 0.23137 0.06347 0.0
N2042 N 0.80808 0.28064 0.03331 0.0
N2043 N 0.69579 0.17885 0.07432 0.0
H2044 H 0.87629 0.26168 0.07255 0.0
H2045 H 0.80963 0.21286 0.0803 0.0
H2046 H 0.64735 0.15286 0.07504 0.0
H2047 H 0.71856 0.19575 0.08207 0.0
H2048 H 0.78088 0.27737 0.02628 0.0
H2049 H 0.85385 0.31655 0.03261 0.0
H2050 H 0.70959 0.18373 0.02542 0.0
H2051 H 0.6417 0.13903 0.0332 0.0
C2052 C 0.88807 0.57111 0.06494 0.0
C2053 C 0.89322 0.53717 0.05562 0.0
C2054 C 0.80838 0.54256 0.04584 0.0
C2055 C 0.80841 0.58269 0.0545 0.0
N2056 N 0.85168 0.63998 0.07185 0.0
N2057 N 0.86736 0.50286 0.03612 0.0
C2058 C 0.84906 0.59809 0.06396 0.0
C2059 C 0.85574 0.52604 0.04578 0.0
N2060 N 0.91946 0.57641 0.07484 0.0
N2061 N 0.76135 0.51734 0.03797 0.0
H2062 H 0.90286 0.49199 0.03555 0.0
H2063 H 0.84598 0.50044 0.02835 0.0
H2064 H 0.72414 0.52587 0.03785 0.0
H2065 H 0.75569 0.48257 0.03228 0.0
H2066 H 0.91221 0.5941 0.08235 0.0
H2067 H 0.94943 0.55857 0.07583 0.0
H2068 H 0.88478 0.65829 0.07833 0.0
H2069 H 0.82378 0.66056 0.0714 0.0
C2070 C 0.33741 0.49471 0.47505 0.0
C2071 C 0.37262 0.52011 0.46502 0.0
C2072 C 0.27825 0.50065 0.45493 0.0
C2073 C 0.24147 0.47121 0.46485 0.0
N2074 N 0.23719 0.41994 0.48268 0.0
N2075 N 0.37251 0.52664 0.4446 0.0
C2076 C 0.27119 0.46171 0.47441 0.0
C2077 C 0.34195 0.51709 0.45472 0.0
N2078 N 0.36706 0.50325 0.48524 0.0
N2079 N 0.25369 0.51379 0.44563 0.0
H2080 H 0.41831 0.53564 0.44406 0.0
H2081 H 0.35025 0.51841 0.43673 0.0
H2082 H 0.20651 0.49632 0.44425 0.0
H2083 H 0.28136 0.54387 0.43921 0.0
H2084 H 0.34355 0.49038 0.49298 0.0
H2085 H 0.41541 0.52935 0.48601 0.0
H2086 H 0.25769 0.40924 0.48942 0.0
H2087 H 0.18964 0.38893 0.48193 0.0
C2088 C 0.60644 0.85908 0.45728 0.0
C2089 C 0.5814 0.80945 0.46522 0.0
C2090 C 0.51114 0.84489 0.47244 0.0
C2091 C 0.53293 0.89182 0.46398 0.0
N2092 N 0.59051 0.93381 0.4466 0.0
N2093 N 0.49492 0.74369 0.47759 0.0
C2094 C 0.57757 0.89613 0.45589 0.0
C2095 C 0.52956 0.79903 0.47205 0.0
N2096 N 0.6585 0.8716 0.45123 0.0
N2097 N 0.47473 0.84503 0.48115 0.0
H2098 H 0.50316 0.70647 0.47699 0.0
H2099 H 0.4531 0.73186 0.48167 0.0
H2100 H 0.46067 0.87811 0.48194 0.0
H2101 H 0.46372 0.81595 0.4882 0.0
H2102 H 0.68259 0.91095 0.44615 0.0
H2103 H 0.68075 0.84538 0.45203 0.0
H2104 H 0.61787 0.93429 0.43984 0.0
H2105 H 0.56852 0.95977 0.44508 0.0
C2106 C 0.26498 0.7681 0.47208 0.0
C2107 C 0.25102 0.81096 0.46665 0.0
C2108 C 0.15779 0.72462 0.45814 0.0
C2109 C 0.16829 0.68133 0.46435 0.0
N2110 N 0.22796 0.66287 0.47862 0.0
N2111 N 0.17838 0.83095 0.45659 0.0
C2112 C 0.22108 0.70322 0.47164 0.0
C2113 C 0.19557 0.78945 0.46031 0.0
N2114 N 0.32069 0.78946 0.47759 0.0
N2115 N 0.11338 0.70383 0.44978 0.0
H2116 H 0.20473 0.87849 0.45837 0.0
H2117 H 0.13543 0.81764 0.4528 0.0
H2118 H 0.08708 0.65695 0.44751 0.0
H2119 H 0.10741 0.73346 0.44428 0.0
H2120 H 0.33771 0.76063 0.48028 0.0
H2121 H 0.3515 0.83668 0.479 0.0
H2122 H 0.26063 0.67721 0.48517 0.0
H2123 H 0.19857 0.61493 0.47843 0.0
C2124 C 0.57575 0.71659 0.95375 0.0
C2125 C 0.5354 0.676 0.9623 0.0
C2126 C 0.53657 0.76509 0.97167 0.0
C2127 C 0.58452 0.80636 0.96418 0.0
N2128 N 0.65369 0.82188 0.94858 0.0
N2129 N 0.48333 0.66314 0.98033 0.0
C2130 C 0.60505 0.78217 0.95532 0.0
C2131 C 0.51707 0.70051 0.97149 0.0
N2132 N 0.58436 0.69231 0.94393 0.0
N2133 N 0.50697 0.78669 0.97855 0.0
H2134 H 0.46745 0.61553 0.98065 0.0
H2135 H 0.47572 0.68048 0.98787 0.0
H2136 H 0.51805 0.8331 0.97876 0.0
H2137 H 0.46694 0.75746 0.98315 0.0
H2138 H 0.60795 0.71928 0.9369 0.0
H2139 H 0.56234 0.64455 0.94235 0.0
H2140 H 0.67505 0.80694 0.94273 0.0
H2141 H 0.67627 0.8702 0.94949 0.0
C2142 C 0.27815 0.85444 0.9704 0.0
C2143 C 0.25728 0.79144 0.96775 0.0
C2144 C 0.36459 0.81634 0.96387 0.0
C2145 C 0.3863 0.87968 0.96676 0.0
N2146 N 0.36461 0.95098 0.97728 0.0
N2147 N 0.28397 0.71014 0.9671 0.0
C2148 C 0.34333 0.89651 0.97138 0.0
C2149 C 0.30148 0.7716 0.96602 0.0
N2150 N 0.23626 0.8746 0.97176 0.0
N2151 N 0.40255 0.79824 0.95875 0.0
H2152 H 0.23991 0.67746 0.97 0.0
H2153 H 0.31542 0.6937 0.96682 0.0
H2154 H 0.44923 0.82808 0.95695 0.0
H2155 H 0.38586 0.75368 0.9554 0.0
H2156 H 0.24962 0.92158 0.97252 0.0
H2157 H 0.18818 0.84474 0.97126 0.0
H2158 H 0.33512 0.96294 0.98153 0.0
H2159 H 0.41165 0.98006 0.97922 0.0
C2160 C 0.21299 0.5221 0.97275 0.0
C2161 C 0.17874 0.51554 0.96268 0.0
C2162 C 0.22497 0.45848 0.95366 0.0
C2163 C 0.26231 0.46896 0.96349 0.0
N2164 N 0.30411 0.52602 0.98107 0.0
N2165 N 0.15727 0.48515 0.94299 0.0
C2166 C 0.25973 0.50488 0.97269 0.0
C2167 C 0.18623 0.48588 0.95295 0.0
N2168 N 0.19936 0.54263 0.98252 0.0
N2169 N 0.22574 0.42129 0.94513 0.0
H2170 H 0.12815 0.50422 0.94225 0.0
H2171 H 0.16564 0.47016 0.93526 0.0
H2172 H 0.25363 0.40063 0.94542 0.0
H2173 H 0.19568 0.40699 0.93817 0.0
H2174 H 0.2179 0.54163 0.99043 0.0
H2175 H 0.1651 0.55527 0.98288 0.0
H2176 H 0.30831 0.55829 0.98721 0.0
H2177 H 0.34081 0.51675 0.98129 0.0
C2178 C 0.73331 0.58824 0.56445 0.0
C2179 C 0.69769 0.56018 0.55447 0.0
C2180 C 0.79207 0.57517 0.54481 0.0
C2181 C 0.82879 0.60838 0.55443 0.0
N2182 N 0.83564 0.65466 0.57277 0.0
N2183 N 0.69618 0.54028 0.53435 0.0
C2184 C 0.79966 0.61747 0.56405 0.0
C2185 C 0.72798 0.55772 0.54442 0.0
N2186 N 0.70356 0.58453 0.57446 0.0
N2187 N 0.81657 0.55592 0.53636 0.0
H2188 H 0.64925 0.52676 0.53366 0.0
H2189 H 0.71784 0.54502 0.52653 0.0
H2190 H 0.86238 0.56506 0.53624 0.0
H2191 H 0.78946 0.52514 0.52995 0.0
H2192 H 0.72634 0.59815 0.58227 0.0
H2193 H 0.65513 0.56245 0.57514 0.0
H2194 H 0.81791 0.66797 0.57956 0.0
H2195 H 0.88426 0.67698 0.57268 0.0
C2196 C 0.49594 0.18366 0.5626 0.0
C2197 C 0.53719 0.18346 0.55427 0.0
C2198 C 0.52541 0.26041 0.54297 0.0
C2199 C 0.48676 0.26326 0.55162 0.0
N2200 N 0.43816 0.2311 0.56997 0.0
N2201 N 0.59847 0.22669 0.53734 0.0
C2202 C 0.47281 0.22563 0.5615 0.0
C2203 C 0.55412 0.22339 0.54469 0.0
N2204 N 0.47846 0.14309 0.57156 0.0
N2205 N 0.53461 0.29283 0.53307 0.0
H2206 H 0.61897 0.1989 0.53809 0.0
H2207 H 0.61845 0.25983 0.53094 0.0
H2208 H 0.51679 0.32235 0.53154 0.0
H2209 H 0.55595 0.28703 0.52592 0.0
H2210 H 0.44227 0.13444 0.57709 0.0
H2211 H 0.49884 0.11585 0.57328 0.0
H2212 H 0.4335 0.21265 0.57809 0.0
H2213 H 0.4152 0.25623 0.56889 0.0
C2214 C 0.89418 0.34803 0.54924 0.0
C2215 C 0.89048 0.38765 0.55753 0.0
C2216 C 0.79681 0.29765 0.56502 0.0
C2217 C 0.80849 0.2568 0.55809 0.0
N2218 N 0.88093 0.24634 0.54576 0.0
N2219 N 0.84282 0.39677 0.57479 0.0
C2220 C 0.86125 0.28296 0.5509 0.0
C2221 C 0.8434 0.36154 0.56592 0.0
N2222 N 0.92626 0.37228 0.53942 0.0
N2223 N 0.74028 0.27817 0.57005 0.0
H2224 H 0.87452 0.44408 0.57559 0.0
H2225 H 0.81372 0.37753 0.58181 0.0
H2226 H 0.70117 0.23487 0.56879 0.0
H2227 H 0.72944 0.30851 0.5743 0.0
H2228 H 0.92682 0.34467 0.53277 0.0
H2229 H 0.94402 0.41901 0.53737 0.0
H2230 H 0.92194 0.2649 0.54102 0.0
H2231 H 0.86086 0.19878 0.54739 0.0
C2232 C 0.1115 0.61458 0.39158 0.0
C2233 C 0.14738 0.5918 0.38634 0.0
C2234 C 0.22718 0.69886 0.38148 0.0
C2235 C 0.19507 0.72206 0.3881 0.0
N2236 N 0.11311 0.70074 0.40156 0.0
N2237 N 0.242 0.61175 0.37684 0.0
C2238 C 0.13894 0.67946 0.39375 0.0
C2239 C 0.20619 0.63387 0.3815 0.0
N2240 N 0.05068 0.57448 0.39422 0.0
N2241 N 0.27512 0.73782 0.37456 0.0
H2242 H 0.22589 0.56443 0.37559 0.0
H2243 H 0.28867 0.64029 0.37467 0.0
H2244 H 0.2921 0.78548 0.37415 0.0
H2245 H 0.29461 0.7221 0.36847 0.0
H2246 H 0.02043 0.58926 0.39715 0.0
H2247 H 0.02916 0.52696 0.39238 0.0
H2248 H 0.07533 0.6712 0.40663 0.0
H2249 H 0.13376 0.74755 0.40389 0.0
C2250 C 0.45421 0.5544 0.39457 0.0
C2251 C 0.47822 0.59096 0.3846 0.0
C2252 C 0.37189 0.54236 0.37662 0.0
C2253 C 0.34745 0.50979 0.38697 0.0
N2254 N 0.36404 0.49221 0.4065 0.0
N2255 N 0.45759 0.62955 0.36715 0.0
C2256 C 0.38836 0.51779 0.39614 0.0
C2257 C 0.43654 0.5874 0.37586 0.0
N2258 N 0.49463 0.55387 0.40247 0.0
N2259 N 0.33384 0.52907 0.36736 0.0
H2260 H 0.50402 0.66392 0.36619 0.0
H2261 H 0.42798 0.63406 0.3614 0.0
H2262 H 0.28606 0.49792 0.3676 0.0
H2263 H 0.35048 0.54522 0.35921 0.0
H2264 H 0.48065 0.52398 0.40943 0.0
H2265 H 0.54294 0.57964 0.40151 0.0
H2266 H 0.39072 0.50142 0.41386 0.0
H2267 H 0.31617 0.46613 0.40799 0.0
C2268 C 0.5313 0.95987 0.38868 0.0
C2269 C 0.47954 0.93208 0.38128 0.0
C2270 C 0.50855 0.854 0.37564 0.0
C2271 C 0.55605 0.87761 0.3841 0.0
N2272 N 0.60567 0.94661 0.40002 0.0
N2273 N 0.41775 0.85311 0.36751 0.0
C2274 C 0.5656 0.92899 0.39097 0.0
C2275 C 0.46818 0.87951 0.37462 0.0
N2276 N 0.54877 0.01701 0.39321 0.0
N2277 N 0.50305 0.80851 0.36835 0.0
H2278 H 0.39035 0.87339 0.36589 0.0
H2279 H 0.40177 0.81043 0.36346 0.0
H2280 H 0.52831 0.78556 0.36931 0.0
H2281 H 0.47552 0.79513 0.36106 0.0
H2282 H 0.5893 0.04266 0.39797 0.0
H2283 H 0.52597 0.04151 0.39107 0.0
H2284 H 0.61012 0.97976 0.40597 0.0
H2285 H 0.6297 0.92348 0.40226 0.0
C2286 C 0.01438 0.8407 0.80568 0.0
C2287 C 0.04462 0.84435 0.79525 0.0
C2288 C 0.94279 0.79018 0.78559 0.0
C2289 C 0.91357 0.79253 0.79579 0.0
N2290 N 0.92418 0.83414 0.81485 0.0
N2291 N 0.03891 0.82821 0.77495 0.0
C2292 C 0.94994 0.82153 0.80566 0.0
C2293 C 1.0091 0.82059 0.7851 0.0
N2294 N 0.04632 0.85248 0.81571 0.0
N2295 N 0.90687 0.75765 0.77647 0.0
H2296 H 0.08721 0.84924 0.77429 0.0
H2297 H 0.01645 0.81808 0.76709 0.0
H2298 H 0.85824 0.73444 0.77665 0.0
H2299 H 0.92457 0.74911 0.76909 0.0
H2300 H 0.02488 0.84401 0.82364 0.0
H2301 H 0.09303 0.86451 0.81612 0.0
H2302 H 0.95067 0.86184 0.82163 0.0
H2303 H 0.87757 0.82244 0.81528 0.0
C2304 C 0.2551 0.16174 0.78937 0.0
C2305 C 0.25137 0.12941 0.79958 0.0
C2306 C 0.2101 0.18822 0.80952 0.0
C2307 C 0.20682 0.21465 0.79905 0.0
N2308 N 0.21883 0.22156 0.7787 0.0
N2309 N 0.21231 0.10274 0.81887 0.0
C2310 C 0.22721 0.19994 0.78887 0.0
C2311 C 0.22569 0.1403 0.80956 0.0
N2312 N 0.28709 0.15744 0.78026 0.0
N2313 N 0.20009 0.21009 0.81951 0.0
H2314 H 0.22118 0.06597 0.81936 0.0
H2315 H 0.18672 0.10431 0.82576 0.0
H2316 H 0.18889 0.2454 0.8198 0.0
H2317 H 0.20864 0.1974 0.82747 0.0
H2318 H 0.29635 0.18421 0.77293 0.0
H2319 H 0.30982 0.1315 0.78046 0.0
H2320 H 0.22672 0.20723 0.77085 0.0
H2321 H 0.19882 0.24991 0.77806 0.0
C2322 C 0.87704 0.11057 0.79481 0.0
C2323 C 0.93291 0.13148 0.80096 0.0
C2324 C 0.90687 0.02253 0.80403 0.0
C2325 C 0.85229 1.00192 0.79719 0.0
N2326 N 0.80057 0.0295 0.78276 0.0
N2327 N 1.00699 0.10878 0.80998 0.0
C2328 C 0.84192 0.04701 0.7916 0.0
C2329 C 0.94964 0.08781 0.80513 0.0
N2330 N 0.85679 0.15124 0.79218 0.0
N2331 N 0.91741 0.98074 0.8098 0.0
H2332 H 0.03766 0.15573 0.81166 0.0
H2333 H 0.02569 0.08016 0.81175 0.0
H2334 H 0.89038 0.93277 0.80889 0.0
H2335 H 0.95135 0.99359 0.81609 0.0
H2336 H 0.81334 0.13724 0.78852 0.0
H2337 H 0.88074 0.19773 0.79478 0.0
H2338 H 0.7951 0.06131 0.77779 0.0
H2339 H 0.77784 0.98425 0.7795 0.0
C2340 C 0.17414 0.02977 0.30194 0.0
C2341 C 0.20451 0.00873 0.29439 0.0
C2342 C 0.28832 0.11619 0.29145 0.0
C2343 C 0.25595 0.13759 0.29823 0.0
N2344 N 0.1643 0.11664 0.30892 0.0
N2345 N 0.2811 0.03274 0.2797 0.0
C2346 C 0.19759 0.09489 0.30315 0.0
C2347 C 0.2588 0.05236 0.28845 0.0
N2348 N 0.12507 0.98814 0.30838 0.0
N2349 N 0.34797 0.15666 0.28815 0.0
H2350 H 0.25877 0.98651 0.27695 0.0
H2351 H 0.31729 0.06313 0.27441 0.0
H2352 H 0.37123 0.20327 0.29069 0.0
H2353 H 0.37616 0.14267 0.28401 0.0
H2354 H 0.1065 1.00115 0.31508 0.0
H2355 H 0.10471 0.94014 0.30747 0.0
H2356 H 0.11803 0.08848 0.31135 0.0
H2357 H 0.18201 0.16369 0.31079 0.0
C2358 C 0.03429 0.17785 0.30531 0.0
C2359 C 0.06226 0.2192 0.29603 0.0
C2360 C 0.95859 0.17951 0.28727 0.0
C2361 C 0.93137 0.1351 0.29612 0.0
N2362 N 0.9476 0.0806 0.31171 0.0
N2363 N 0.05273 0.24999 0.27701 0.0
C2364 C 0.97027 0.13112 0.30466 0.0
C2365 C 0.02479 0.21742 0.28668 0.0
N2366 N 0.06796 0.18415 0.31494 0.0
N2367 N 0.92107 0.18627 0.27952 0.0
H2368 H 0.10102 0.27648 0.27613 0.0
H2369 H 0.02865 0.2458 0.26949 0.0
H2370 H 0.87253 0.15934 0.2797 0.0
H2371 H 0.93754 0.22194 0.27354 0.0
H2372 H 0.04773 0.16014 0.32244 0.0
H2373 H 0.11498 0.2172 0.31584 0.0
H2374 H 0.97592 0.0723 0.31717 0.0
H2375 H 0.90224 0.04325 0.31126 0.0
C2376 C 0.89127 0.77966 0.28651 0.0
C2377 C 0.92862 0.79014 0.29634 0.0
C2378 C 0.88134 0.84682 0.30519 0.0
C2379 C 0.84899 0.842 0.29492 0.0
N2380 N 0.82957 0.81121 0.2752 0.0
N2381 N 0.96885 0.84612 0.31411 0.0
C2382 C 0.85555 0.81018 0.28542 0.0
C2383 C 0.92604 0.82666 0.30548 0.0
N2384 N 0.88952 0.73982 0.27827 0.0
N2385 N 0.86819 0.86892 0.31482 0.0
H2386 H 1.00316 0.83375 0.31483 0.0
H2387 H 0.97398 0.87948 0.32008 0.0
H2388 H 0.83673 0.88521 0.31497 0.0
H2389 H 0.8844 0.86597 0.32285 0.0
H2390 H 0.85909 0.72553 0.27136 0.0
H2391 H 0.91483 0.7165 0.27887 0.0
H2392 H 0.8383 0.79506 0.26764 0.0
H2393 H 0.80346 0.83332 0.27405 0.0
C2394 C 0.38671 0.91079 0.89682 0.0
C2395 C 0.34689 0.86799 0.88842 0.0
C2396 C 0.43712 0.87194 0.87904 0.0
C2397 C 0.47721 0.91934 0.88676 0.0
N2398 N 0.49226 0.98719 0.90255 0.0
N2399 N 0.334 0.81287 0.87081 0.0
C2400 C 0.45254 0.9396 0.89555 0.0
C2401 C 0.372 0.8496 0.87937 0.0
N2402 N 0.36124 0.92246 0.90615 0.0
N2403 N 0.46093 0.8463 0.87167 0.0
H2404 H 0.28582 0.7933 0.87102 0.0
H2405 H 0.35041 0.80494 0.86321 0.0
H2406 H 0.50844 0.862 0.87087 0.0
H2407 H 0.43332 0.80631 0.86691 0.0
H2408 H 0.38697 0.94826 0.91315 0.0
H2409 H 0.31328 0.90189 0.90735 0.0
H2410 H 0.47783 0.00852 0.90849 0.0
H2411 H 0.54066 0.00873 0.90184 0.0
C2412 C 0.12354 0.54425 0.87686 0.0
C2413 C 0.13633 0.58703 0.88592 0.0
C2414 C 0.17797 0.53263 0.8972 0.0
C2415 C 0.17412 0.49637 0.88762 0.0
N2416 N 0.14712 0.46989 0.8679 0.0
N2417 N 0.19342 0.63181 0.90341 0.0
C2418 C 0.148 0.50282 0.8773 0.0
C2419 C 0.1681 0.58386 0.89578 0.0
N2420 N 0.08632 0.54171 0.86803 0.0
N2421 N 0.18925 0.51725 0.90773 0.0
H2422 H 0.19387 0.67357 0.90212 0.0
H2423 H 0.22145 0.6334 0.91019 0.0
H2424 H 0.19202 0.47717 0.90915 0.0
H2425 H 0.18756 0.53953 0.91514 0.0
H2426 H 0.07053 0.5077 0.86171 0.0
H2427 H 0.06623 0.57004 0.8676 0.0
H2428 H 0.13528 0.47772 0.85981 0.0
H2429 H 0.16236 0.43747 0.86806 0.0
C2430 C 0.44997 0.63036 0.89217 0.0
C2431 C 0.46209 0.58837 0.88591 0.0
C2432 C 0.55574 0.6765 0.87791 0.0
C2433 C 0.5483 0.71755 0.88539 0.0
N2434 N 0.49252 0.73231 0.9008 0.0
N2435 N 0.52913 0.57021 0.87362 0.0
C2436 C 0.49643 0.69427 0.89281 0.0
C2437 C 0.51566 0.61113 0.87897 0.0
N2438 N 0.39288 0.60999 0.89701 0.0
N2439 N 0.59976 0.70018 0.86953 0.0
H2440 H 0.5005 0.52198 0.87417 0.0
H2441 H 0.57103 0.58377 0.86944 0.0
H2442 H 0.62925 0.74782 0.86833 0.0
H2443 H 0.60306 0.67312 0.86309 0.0
H2444 H 0.37922 0.63983 0.90059 0.0
H2445 H 0.35681 0.56399 0.89648 0.0
H2446 H 0.45968 0.71587 0.90731 0.0
H2447 H 0.52504 0.77956 0.90152 0.0
C2448 C 0.80829 0.93825 0.72916 0.0
C2449 C 0.81867 0.91094 0.71938 0.0
C2450 C 0.86608 0.01221 0.70973 0.0
C2451 C 0.86191 0.04083 0.7199 0.0
N2452 N 0.83814 0.03275 0.73992 0.0
N2453 N 0.87149 0.92625 0.70133 0.0
C2454 C 0.83529 1.00424 0.72979 0.0
C2455 C 0.85103 0.9489 0.70989 0.0
N2456 N 0.7715 0.90094 0.73775 0.0
N2457 N 0.88263 0.04474 0.69977 0.0
H2458 H 0.86391 0.88107 0.70111 0.0
H2459 H 0.90178 0.95434 0.69498 0.0
H2460 H 0.89427 0.09114 0.69924 0.0
H2461 H 0.87892 0.02401 0.69187 0.0
H2462 H 0.75736 0.91739 0.74463 0.0
H2463 H 0.75016 0.85246 0.73749 0.0
H2464 H 0.82565 0.00935 0.74767 0.0
H2465 H 0.85854 0.08095 0.74076 0.0
C2466 C 0.06005 0.8703 0.73003 0.0
C2467 C 0.02817 0.83313 0.7205 0.0
C2468 C 0.12815 0.87395 0.71053 0.0
C2469 C 0.15806 0.91785 0.71942 0.0
N2470 N 0.14535 0.96881 0.73605 0.0
N2471 N 0.03094 0.80351 0.70105 0.0
C2472 C 0.1222 0.91926 0.72875 0.0
C2473 C 0.06198 0.83624 0.71053 0.0
N2474 N 0.03254 0.85697 0.74048 0.0
N2475 N 0.16296 0.86641 0.70233 0.0
H2476 H 0.98282 0.77408 0.70085 0.0
H2477 H 0.0522 0.80932 0.69316 0.0
H2478 H 0.21157 0.89153 0.70228 0.0
H2479 H 0.1441 0.83101 0.69627 0.0
H2480 H 0.05616 0.88018 0.74786 0.0
H2481 H 0.98953 0.81739 0.74193 0.0
H2482 H 0.11842 0.97305 0.74242 0.0
H2483 H 0.18781 0.00931 0.73483 0.0
C2484 C 0.17947 0.16807 0.71306 0.0
C2485 C 0.22526 0.19157 0.72184 0.0
C2486 C 0.19769 0.27192 0.7262 0.0
C2487 C 0.14907 0.24568 0.7181 0.0
N2488 N 0.08513 0.1607 0.70537 0.0
N2489 N 0.266 0.25536 0.73866 0.0
C2490 C 0.13756 0.19152 0.71194 0.0
C2491 C 0.2307 0.24042 0.72898 0.0
N2492 N 0.17716 0.12522 0.70547 0.0
N2493 N 0.21333 0.32799 0.73104 0.0
H2494 H 0.28868 0.23139 0.74123 0.0
H2495 H 0.26715 0.28656 0.74474 0.0
H2496 H 0.19116 0.35293 0.72878 0.0
H2497 H 0.25216 0.35251 0.73627 0.0
H2498 H 0.15093 0.11338 0.698 0.0
H2499 H 0.20405 0.10396 0.70624 0.0
H2500 H 0.07011 0.11667 0.70192 0.0
H2501 H 0.05394 0.1768 0.70401 0.0
C2502 C 0.66498 0.11189 0.13185 0.0
C2503 C 0.71107 0.17442 0.12887 0.0
C2504 C 0.63146 0.2049 0.12993 0.0
C2505 C 0.58461 0.1419 0.13141 0.0
N2506 N 0.55502 0.03357 0.13183 0.0
N2507 N 0.73013 0.27323 0.1212 0.0
C2508 C 0.60077 0.09474 0.1318 0.0
C2509 C 0.69196 0.21883 0.12675 0.0
N2510 N 0.68147 0.06923 0.13521 0.0
N2511 N 0.619 0.25195 0.13195 0.0
H2512 H 0.77273 0.28306 0.11769 0.0
H2513 H 0.71565 0.30453 0.11875 0.0
H2514 H 0.57651 0.2439 0.13521 0.0
H2515 H 0.65338 0.29885 0.13181 0.0
H2516 H 0.64993 0.02648 0.13879 0.0
H2517 H 0.72673 0.07721 0.13538 0.0
H2518 H 0.56396 0.99699 0.1307 0.0
H2519 H 0.50767 0.01964 0.13204 0.0
C2520 C 0.93588 0.50784 0.12162 0.0
C2521 C 0.91999 0.46775 0.13115 0.0
C2522 C 0.86653 0.5184 0.13978 0.0
C2523 C 0.87652 0.55388 0.12975 0.0
N2524 N 0.91287 0.57593 0.11035 0.0
N2525 N 0.85471 0.42356 0.14779 0.0
C2526 C 0.90907 0.54681 0.12044 0.0
C2527 C 0.88114 0.46983 0.13984 0.0
N2528 N 0.97778 0.50976 0.11383 0.0
N2529 N 0.84579 0.53272 0.14945 0.0
H2530 H 0.86073 0.38484 0.14792 0.0
H2531 H 0.82094 0.42005 0.1535 0.0
H2532 H 0.83689 0.56955 0.14991 0.0
H2533 H 0.84399 0.51239 0.15731 0.0
H2534 H 0.99594 0.54225 0.10728 0.0
H2535 H 0.99883 0.48236 0.1145 0.0
H2536 H 0.92977 0.56709 0.1029 0.0
H2537 H 0.89408 0.60498 0.10916 0.0
C2538 C 0.55769 0.45751 0.12093 0.0
C2539 C 0.59621 0.48224 0.13069 0.0
C2540 C 0.54122 0.38043 0.13988 0.0
C2541 C 0.50693 0.35387 0.12975 0.0
N2542 N 0.49081 0.36517 0.10983 0.0
N2543 N 0.63722 0.46148 0.14783 0.0
C2544 C 0.51732 0.39191 0.12003 0.0
C2545 C 0.59152 0.44226 0.13974 0.0
N2546 N 0.55884 0.49673 0.11263 0.0
N2547 N 0.52465 0.34775 0.14982 0.0
H2548 H 0.6778 0.50462 0.14762 0.0
H2549 H 0.63856 0.4316 0.15393 0.0
H2550 H 0.48663 0.30319 0.15043 0.0
H2551 H 0.54425 0.36764 0.15766 0.0
H2552 H 0.52766 0.48206 0.10583 0.0
H2553 H 0.58757 0.54498 0.11306 0.0
H2554 H 0.50185 0.38975 0.10221 0.0
H2555 H 0.46221 0.31721 0.10878 0.0
C2556 C 0.92432 0.40194 0.62244 0.0
C2557 C 0.88133 0.35998 0.63052 0.0
C2558 C 0.88152 0.4474 0.64023 0.0
C2559 C 0.93195 0.48995 0.63331 0.0
N2560 N 1.00595 0.50755 0.61846 0.0
N2561 N 0.82791 0.34466 0.64845 0.0
C2562 C 0.95466 0.46711 0.62457 0.0
C2563 C 0.86238 0.38314 0.6398 0.0
N2564 N 0.93451 0.37953 0.61253 0.0
N2565 N 0.84856 0.46711 0.64663 0.0
H2566 H 0.81256 0.29721 0.64854 0.0
H2567 H 0.81943 0.36114 0.65601 0.0
H2568 H 0.85691 0.51259 0.64652 0.0
H2569 H 0.80775 0.43659 0.65092 0.0
H2570 H 0.9608 0.40802 0.60584 0.0
H2571 H 0.91133 0.33219 0.6105 0.0
H2572 H 0.02821 0.49311 0.61271 0.0
H2573 H 0.02961 0.55556 0.61985 0.0
C2574 C 0.69899 0.52832 0.64336 0.0
C2575 C 0.72759 0.55328 0.63274 0.0
C2576 C 0.62859 0.48799 0.62286 0.0
C2577 C 0.59924 0.46363 0.63352 0.0
N2578 N 0.61071 0.44742 0.65347 0.0
N2579 N 0.71855 0.56559 0.61261 0.0
C2580 C 0.63542 0.48048 0.64368 0.0
C2581 C 0.6922 0.53516 0.62255 0.0
N2582 N 0.73175 0.55284 0.6532 0.0
N2583 N 0.59655 0.46453 0.61292 0.0
H2584 H 0.76545 0.59889 0.61188 0.0
H2585 H 0.69334 0.56155 0.60525 0.0
H2586 H 0.54911 0.43328 0.61252 0.0
H2587 H 0.61759 0.4729 0.60496 0.0
H2588 H 0.7117 0.54255 0.66125 0.0
H2589 H 0.77834 0.58781 0.65328 0.0
H2590 H 0.6369 0.45258 0.66075 0.0
H2591 H 0.56545 0.40999 0.65407 0.0
C2592 C 0.60308 0.19258 0.62348 0.0
C2593 C 0.59432 0.14151 0.63041 0.0
C2594 C 0.50332 0.13998 0.63909 0.0
C2595 C 0.50761 0.1852 0.63113 0.0
N2596 N 0.55408 0.24407 0.61405 0.0
N2597 N 0.52957 0.06009 0.64353 0.0
C2598 C 0.55516 0.20829 0.6228 0.0
C2599 C 0.54238 0.11323 0.63783 0.0
N2600 N 0.65874 0.22953 0.6182 0.0
N2601 N 0.46415 0.12471 0.6482 0.0
H2602 H 0.5567 0.03882 0.6427 0.0
H2603 H 0.48887 0.03396 0.64818 0.0
H2604 H 0.43675 0.14511 0.64973 0.0
H2605 H 0.46372 0.09684 0.65487 0.0
H2606 H 0.6689 0.27057 0.61399 0.0
H2607 H 0.69757 0.22414 0.61913 0.0
H2608 H 0.58397 0.25633 0.60709 0.0
H2609 H 0.51953 0.25624 0.61315 0.0
C2610 C 0.0732 0.26294 0.2257 0.0
C2611 C 0.02976 0.21409 0.21855 0.0
C2612 C 0.11671 0.21075 0.20918 0.0
C2613 C 0.15959 0.26259 0.21576 0.0
N2614 N 0.1787 0.34937 0.22754 0.0
N2615 N 0.01301 0.15394 0.20132 0.0
C2616 C 0.13775 0.29234 0.22315 0.0
C2617 C 0.05221 0.1914 0.20966 0.0
N2618 N 0.05344 0.27913 0.23529 0.0
N2619 N 0.13713 0.17857 0.20272 0.0
H2620 H 0.96614 0.14062 0.20102 0.0
H2621 H 0.02842 0.14165 0.19405 0.0
H2622 H 0.18417 0.19275 0.20168 0.0
H2623 H 0.10705 0.13568 0.19898 0.0
H2624 H 0.08409 0.3107 0.24126 0.0
H2625 H 1.00709 0.25586 0.23795 0.0
H2626 H 0.16483 0.37564 0.23238 0.0
H2627 H 0.22545 0.37308 0.22512 0.0
C2628 C 0.79611 0.87666 0.22895 0.0
C2629 C 0.81921 0.92401 0.22058 0.0
C2630 C 0.8877 0.88701 0.21318 0.0
C2631 C 0.86704 0.84161 0.22189 0.0
N2632 N 0.81136 0.80097 0.23947 0.0
N2633 N 0.90133 0.98606 0.20716 0.0
C2634 C 0.82401 0.8387 0.2302 0.0
C2635 C 0.86898 0.93258 0.21335 0.0
N2636 N 0.74667 0.8672 0.23555 0.0
N2637 N 0.92338 0.88548 0.20448 0.0
H2638 H 0.892 0.02264 0.20737 0.0
H2639 H 0.94217 0.99727 0.20278 0.0
H2640 H 0.93909 0.85359 0.20411 0.0
H2641 H 0.93305 0.91255 0.19717 0.0
H2642 H 0.72357 0.82958 0.24104 0.0
H2643 H 0.7255 0.89449 0.23489 0.0
H2644 H 0.78566 0.80147 0.24643 0.0
H2645 H 0.83153 0.77313 0.2407 0.0
C2646 C 0.19323 0.94072 0.21098 0.0
C2647 C 0.14708 0.91443 0.21954 0.0
C2648 C 0.19402 0.01625 0.22911 0.0
C2649 C 0.23494 0.04375 0.21981 0.0
N2650 N 0.26056 0.03398 0.20045 0.0
N2651 N 0.09348 0.93314 0.23497 0.0
C2652 C 0.23124 1.00644 0.21035 0.0
C2653 C 0.14477 0.95357 0.2282 0.0
N2654 N 0.20134 0.90309 0.2035 0.0
N2655 N 0.20233 0.04942 0.23889 0.0
H2656 H 0.05351 0.89001 0.23393 0.0
H2657 H 0.08749 0.96212 0.24063 0.0
H2658 H 0.2379 0.09547 0.2399 0.0
H2659 H 0.17749 0.0292 0.24631 0.0
H2660 H 0.23815 0.91995 0.19775 0.0
H2661 H 0.17523 0.85458 0.20387 0.0
H2662 H 0.25536 0.00935 0.19296 0.0
H2663 H 0.28313 0.08202 0.19942 0.0
loop_
_geom_bond_atom_site_label_1
_geom_bond_atom_site_label_2
_geom_bond_distance
_geom_bond_site_symmetry_2
_ccdc_geom_bond_type
Dy0 O4 2.398 . S
Dy0 O5 2.491 . S
Dy0 O6 2.403 . S
Dy0 O7 2.664 . S
Dy0 O11 2.326 . S
Dy0 O15 2.310 . S
Dy0 O16 2.351 1_545 S
C1 O12 1.185 . S
C1 O13 1.355 . S
C2 O4 1.185 . S
C2 O5 1.355 . S
Dy3 O7 2.310 1_565 S
Dy3 O10 2.351 1_565 S
Dy3 O12 2.398 . S
Dy3 O13 2.491 . S
Dy3 O14 2.402 1_565 S
Dy3 O15 2.664 1_565 S
Dy3 O17 2.326 . S
O4 Dy0 2.398 . S
O4 C2 1.185 . S
O5 Dy0 2.491 . S
O5 C2 1.355 . S
O6 Dy0 2.403 . S
O6 C8 1.254 . S
O7 Dy0 2.664 . S
O7 Dy3 2.310 1_545 S
O7 C8 1.268 . S
C8 O6 1.254 . S
C8 O7 1.268 . S
C9 O14 1.258 . S
C9 O15 1.268 . S
O10 Dy3 2.351 1_545 S
O10 C18 1.249 . S
O11 Dy0 2.326 . S
O11 C18 1.267 . S
O12 C1 1.185 . S
O12 Dy3 2.398 . S
O13 C1 1.355 . S
O13 Dy3 2.491 . S
O14 Dy3 2.402 1_545 S
O14 C9 1.258 . S
O15 Dy0 2.310 . S
O15 Dy3 2.664 1_545 S
O15 C9 1.268 . S
O16 Dy0 2.351 1_565 S
O16 C19 1.249 . S
O17 Dy3 2.326 . S
O17 C19 1.267 . S
C18 O10 1.249 . S
C18 O11 1.267 . S
C19 O16 1.249 . S
C19 O17 1.267 . S
Dy20 O24 2.398 . S
Dy20 O25 2.491 . S
Dy20 O26 2.403 . S
Dy20 O27 2.664 1_655 S
Dy20 O31 2.326 . S
Dy20 O35 2.310 . S
Dy20 O36 2.351 1_655 S
C21 O32 1.185 . S
C21 O33 1.355 . S
C22 O24 1.185 . S
C22 O25 1.355 . S
Dy23 O27 2.310 . S
Dy23 O30 2.351 1_455 S
Dy23 O32 2.398 . S
Dy23 O33 2.491 . S
Dy23 O34 2.403 . S
Dy23 O35 2.664 1_455 S
Dy23 O37 2.326 . S
O24 Dy20 2.398 . S
O24 C22 1.185 . S
O25 Dy20 2.491 . S
O25 C22 1.355 . S
O26 Dy20 2.403 . S
O26 C28 1.254 1_655 S
O27 Dy20 2.664 1_455 S
O27 Dy23 2.310 . S
O27 C28 1.268 . S
C28 O26 1.254 1_455 S
C28 O27 1.268 . S
C29 O34 1.254 . S
C29 O35 1.268 1_455 S
O30 Dy23 2.351 1_655 S
O30 C38 1.249 . S
O31 Dy20 2.326 . S
O31 C38 1.267 . S
O32 C21 1.185 . S
O32 Dy23 2.398 . S
O33 C21 1.355 . S
O33 Dy23 2.491 . S
O34 Dy23 2.403 . S
O34 C29 1.254 . S
O35 Dy20 2.310 . S
O35 Dy23 2.664 1_655 S
O35 C29 1.268 1_655 S
O36 Dy20 2.351 1_455 S
O36 C39 1.249 . S
O37 Dy23 2.326 . S
O37 C39 1.267 . S
C38 O30 1.249 . S
C38 O31 1.267 . S
C39 O36 1.249 . S
C39 O37 1.267 . S
Dy40 O44 2.398 . S
Dy40 O45 2.491 . S
Dy40 O46 2.403 . S
Dy40 O47 2.664 . S
Dy40 O51 2.326 . S
Dy40 O55 2.310 . S
Dy40 O56 2.351 . S
C41 O52 1.185 . S
C41 O53 1.355 . S
C42 O44 1.185 . S
C42 O45 1.355 . S
Dy43 O47 2.310 . S
Dy43 O50 2.351 . S
Dy43 O52 2.398 . S
Dy43 O53 2.491 . S
Dy43 O54 2.403 . S
Dy43 O55 2.664 . S
Dy43 O57 2.326 . S
O44 Dy40 2.398 . S
O44 C42 1.185 . S
O45 Dy40 2.491 . S
O45 C42 1.355 . S
O46 Dy40 2.403 . S
O46 C48 1.254 . S
O47 Dy40 2.664 . S
O47 Dy43 2.310 . S
O47 C48 1.268 . S
C48 O46 1.254 . S
C48 O47 1.268 . S
C49 O54 1.254 . S
C49 O55 1.268 . S
O50 Dy43 2.351 . S
O50 C58 1.249 . S
O51 Dy40 2.326 . S
O51 C58 1.267 . S
O52 C41 1.185 . S
O52 Dy43 2.398 . S
O53 C41 1.355 . S
O53 Dy43 2.491 . S
O54 Dy43 2.403 . S
O54 C49 1.254 . S
O55 Dy40 2.310 . S
O55 Dy43 2.664 . S
O55 C49 1.268 . S
O56 Dy40 2.351 . S
O56 C59 1.249 . S
O57 Dy43 2.326 . S
O57 C59 1.267 . S
C58 O50 1.249 . S
C58 O51 1.267 . S
C59 O56 1.249 . S
C59 O57 1.267 . S
Dy60 O64 2.398 . S
Dy60 O65 2.491 . S
Dy60 O66 2.403 . S
Dy60 O67 2.664 . S
Dy60 O71 2.326 . S
Dy60 O75 2.310 . S
Dy60 O76 2.351 1_455 S
C61 O72 1.185 . S
C61 O73 1.355 . S
C62 O64 1.185 . S
C62 O65 1.355 . S
Dy63 O67 2.310 1_655 S
Dy63 O70 2.351 1_655 S
Dy63 O72 2.398 . S
Dy63 O73 2.491 . S
Dy63 O74 2.402 1_655 S
Dy63 O75 2.664 1_655 S
Dy63 O77 2.326 . S
O64 Dy60 2.398 . S
O64 C62 1.185 . S
O65 Dy60 2.491 . S
O65 C62 1.355 . S
O66 Dy60 2.403 . S
O66 C68 1.254 . S
O67 Dy60 2.664 . S
O67 Dy63 2.310 1_455 S
O67 C68 1.268 . S
C68 O66 1.254 . S
C68 O67 1.268 . S
C69 O74 1.258 . S
C69 O75 1.268 . S
O70 Dy63 2.351 1_455 S
O70 C78 1.249 . S
O71 Dy60 2.326 . S
O71 C78 1.267 . S
O72 C61 1.185 . S
O72 Dy63 2.398 . S
O73 C61 1.355 . S
O73 Dy63 2.491 . S
O74 Dy63 2.402 1_455 S
O74 C69 1.258 . S
O75 Dy60 2.310 . S
O75 Dy63 2.664 1_455 S
O75 C69 1.268 . S
O76 Dy60 2.351 1_655 S
O76 C79 1.249 . S
O77 Dy63 2.326 . S
O77 C79 1.267 . S
C78 O70 1.249 . S
C78 O71 1.267 . S
C79 O76 1.249 . S
C79 O77 1.267 . S
Dy80 O84 2.398 . S
Dy80 O85 2.491 . S
Dy80 O86 2.403 . S
Dy80 O87 2.664 . S
Dy80 O91 2.326 . S
Dy80 O95 2.310 . S
Dy80 O96 2.351 . S
C81 O92 1.185 . S
C81 O93 1.355 . S
C82 O84 1.185 . S
C82 O85 1.355 . S
Dy83 O87 2.310 . S
Dy83 O90 2.351 . S
Dy83 O92 2.398 . S
Dy83 O93 2.491 . S
Dy83 O94 2.403 . S
Dy83 O95 2.664 . S
Dy83 O97 2.326 . S
O84 Dy80 2.398 . S
O84 C82 1.185 . S
O85 Dy80 2.491 . S
O85 C82 1.355 . S
O86 Dy80 2.403 . S
O86 C88 1.254 . S
O87 Dy80 2.664 . S
O87 Dy83 2.310 . S
O87 C88 1.268 . S
C88 O86 1.254 . S
C88 O87 1.268 . S
C89 O94 1.254 . S
C89 O95 1.268 . S
O90 Dy83 2.351 . S
O90 C98 1.249 . S
O91 Dy80 2.326 . S
O91 C98 1.267 . S
O92 C81 1.185 . S
O92 Dy83 2.398 . S
O93 C81 1.355 . S
O93 Dy83 2.491 . S
O94 Dy83 2.403 . S
O94 C89 1.254 . S
O95 Dy80 2.310 . S
O95 Dy83 2.664 . S
O95 C89 1.268 . S
O96 Dy80 2.351 . S
O96 C99 1.249 . S
O97 Dy83 2.326 . S
O97 C99 1.267 . S
C98 O90 1.249 . S
C98 O91 1.267 . S
C99 O96 1.249 . S
C99 O97 1.267 . S
Dy100 O104 2.398 . S
Dy100 O105 2.491 . S
Dy100 O106 2.403 . S
Dy100 O107 2.664 1_565 S
Dy100 O111 2.326 . S
Dy100 O115 2.310 . S
Dy100 O116 2.351 1_565 S
C101 O112 1.185 . S
C101 O113 1.355 . S
C102 O104 1.185 . S
C102 O105 1.355 . S
Dy103 O107 2.310 . S
Dy103 O110 2.351 1_545 S
Dy103 O112 2.398 . S
Dy103 O113 2.491 . S
Dy103 O114 2.403 . S
Dy103 O115 2.664 1_545 S
Dy103 O117 2.326 . S
O104 Dy100 2.398 . S
O104 C102 1.185 . S
O105 Dy100 2.491 . S
O105 C102 1.355 . S
O106 Dy100 2.403 . S
O106 C108 1.254 1_565 S
O107 Dy100 2.664 1_545 S
O107 Dy103 2.310 . S
O107 C108 1.268 . S
C108 O106 1.254 1_545 S
C108 O107 1.268 . S
C109 O114 1.254 . S
C109 O115 1.268 1_545 S
O110 Dy103 2.351 1_565 S
O110 C118 1.249 . S
O111 Dy100 2.326 . S
O111 C118 1.267 . S
O112 C101 1.185 . S
O112 Dy103 2.398 . S
O113 C101 1.355 . S
O113 Dy103 2.491 . S
O114 Dy103 2.403 . S
O114 C109 1.254 . S
O115 Dy100 2.310 . S
O115 Dy103 2.664 1_565 S
O115 C109 1.268 1_565 S
O116 Dy100 2.351 1_545 S
O116 C119 1.249 . S
O117 Dy103 2.326 . S
O117 C119 1.267 . S
C118 O110 1.249 . S
C118 O111 1.267 . S
C119 O116 1.249 . S
C119 O117 1.267 . S
Dy120 O124 2.398 . S
Dy120 O125 2.491 . S
Dy120 O126 2.403 . S
Dy120 O127 2.664 1_545 S
Dy120 O131 2.326 . S
Dy120 O135 2.310 . S
Dy120 O136 2.351 1_545 S
C121 O132 1.185 . S
C121 O133 1.355 . S
C122 O124 1.185 . S
C122 O125 1.355 . S
Dy123 O127 2.310 . S
Dy123 O130 2.351 1_565 S
Dy123 O132 2.398 . S
Dy123 O133 2.491 . S
Dy123 O134 2.403 . S
Dy123 O135 2.664 1_565 S
Dy123 O137 2.326 . S
O124 Dy120 2.398 . S
O124 C122 1.185 . S
O125 Dy120 2.491 . S
O125 C122 1.355 . S
O126 Dy120 2.403 . S
O126 C128 1.254 . S
O127 Dy120 2.664 1_565 S
O127 Dy123 2.310 . S
O127 C128 1.268 1_565 S
C128 O126 1.254 . S
C128 O127 1.268 1_545 S
C129 O134 1.254 1_545 S
C129 O135 1.268 . S
O130 Dy123 2.351 1_545 S
O130 C138 1.249 . S
O131 Dy120 2.326 . S
O131 C138 1.267 . S
O132 C121 1.185 . S
O132 Dy123 2.398 . S
O133 C121 1.355 . S
O133 Dy123 2.491 . S
O134 Dy123 2.403 . S
O134 C129 1.254 1_565 S
O135 Dy120 2.310 . S
O135 Dy123 2.664 1_545 S
O135 C129 1.268 . S
O136 Dy120 2.351 1_565 S
O136 C139 1.249 . S
O137 Dy123 2.326 . S
O137 C139 1.267 . S
C138 O130 1.249 . S
C138 O131 1.267 . S
C139 O136 1.249 . S
C139 O137 1.267 . S
Dy140 O144 2.398 . S
Dy140 O145 2.491 . S
Dy140 O146 2.403 1_655 S
Dy140 O147 2.664 1_655 S
Dy140 O151 2.326 . S
Dy140 O155 2.310 1_655 S
Dy140 O156 2.351 1_655 S
C141 O152 1.185 . S
C141 O153 1.355 . S
C142 O144 1.185 . S
C142 O145 1.355 . S
Dy143 O147 2.310 . S
Dy143 O150 2.351 1_455 S
Dy143 O152 2.398 . S
Dy143 O153 2.491 . S
Dy143 O154 2.403 . S
Dy143 O155 2.664 . S
Dy143 O157 2.326 . S
O144 Dy140 2.398 . S
O144 C142 1.185 . S
O145 Dy140 2.491 . S
O145 C142 1.355 . S
O146 Dy140 2.403 1_455 S
O146 C148 1.254 . S
O147 Dy140 2.664 1_455 S
O147 Dy143 2.310 . S
O147 C148 1.268 . S
C148 O146 1.254 . S
C148 O147 1.268 . S
C149 O154 1.254 . S
C149 O155 1.268 . S
O150 Dy143 2.351 1_655 S
O150 C158 1.249 . S
O151 Dy140 2.326 . S
O151 C158 1.267 . S
O152 C141 1.185 . S
O152 Dy143 2.398 . S
O153 C141 1.355 . S
O153 Dy143 2.491 . S
O154 Dy143 2.403 . S
O154 C149 1.254 . S
O155 Dy140 2.310 1_455 S
O155 Dy143 2.664 . S
O155 C149 1.268 . S
O156 Dy140 2.351 1_455 S
O156 C159 1.249 . S
O157 Dy143 2.326 . S
O157 C159 1.267 . S
C158 O150 1.249 . S
C158 O151 1.267 . S
C159 O156 1.249 . S
C159 O157 1.267 . S
Dy160 O164 2.398 . S
Dy160 O165 2.491 . S
Dy160 O166 2.403 . S
Dy160 O167 2.664 . S
Dy160 O171 2.326 . S
Dy160 O175 2.310 . S
Dy160 O176 2.351 . S
C161 O172 1.185 . S
C161 O173 1.355 . S
C162 O164 1.185 . S
C162 O165 1.355 . S
Dy163 O167 2.310 . S
Dy163 O170 2.351 . S
Dy163 O172 2.398 . S
Dy163 O173 2.491 . S
Dy163 O174 2.403 . S
Dy163 O175 2.664 . S
Dy163 O177 2.326 . S
O164 Dy160 2.398 . S
O164 C162 1.185 . S
O165 Dy160 2.491 . S
O165 C162 1.355 . S
O166 Dy160 2.403 . S
O166 C168 1.254 . S
O167 Dy160 2.664 . S
O167 Dy163 2.310 . S
O167 C168 1.268 . S
C168 O166 1.254 . S
C168 O167 1.268 . S
C169 O174 1.254 . S
C169 O175 1.268 . S
O170 Dy163 2.351 . S
O170 C178 1.249 . S
O171 Dy160 2.326 . S
O171 C178 1.267 . S
O172 C161 1.185 . S
O172 Dy163 2.398 . S
O173 C161 1.355 . S
O173 Dy163 2.491 . S
O174 Dy163 2.403 . S
O174 C169 1.254 . S
O175 Dy160 2.310 . S
O175 Dy163 2.664 . S
O175 C169 1.268 . S
O176 Dy160 2.351 . S
O176 C179 1.249 . S
O177 Dy163 2.326 . S
O177 C179 1.267 . S
C178 O170 1.249 . S
C178 O171 1.267 . S
C179 O176 1.249 . S
C179 O177 1.267 . S
Dy180 O184 2.398 . S
Dy180 O185 2.491 . S
Dy180 O186 2.403 . S
Dy180 O187 2.664 1_455 S
Dy180 O191 2.326 . S
Dy180 O195 2.310 . S
Dy180 O196 2.351 1_455 S
C181 O192 1.185 . S
C181 O193 1.355 . S
C182 O184 1.185 . S
C182 O185 1.355 . S
Dy183 O187 2.310 . S
Dy183 O190 2.351 1_655 S
Dy183 O192 2.398 . S
Dy183 O193 2.491 . S
Dy183 O194 2.403 . S
Dy183 O195 2.664 1_655 S
Dy183 O197 2.326 . S
O184 Dy180 2.398 . S
O184 C182 1.185 . S
O185 Dy180 2.491 . S
O185 C182 1.355 . S
O186 Dy180 2.403 . S
O186 C188 1.254 . S
O187 Dy180 2.664 1_655 S
O187 Dy183 2.310 . S
O187 C188 1.268 1_655 S
C188 O186 1.254 . S
C188 O187 1.268 1_455 S
C189 O194 1.254 1_455 S
C189 O195 1.268 . S
O190 Dy183 2.351 1_455 S
O190 C198 1.249 . S
O191 Dy180 2.326 . S
O191 C198 1.267 . S
O192 C181 1.185 . S
O192 Dy183 2.398 . S
O193 C181 1.355 . S
O193 Dy183 2.491 . S
O194 Dy183 2.403 . S
O194 C189 1.254 1_655 S
O195 Dy180 2.310 . S
O195 Dy183 2.664 1_455 S
O195 C189 1.268 . S
O196 Dy180 2.351 1_655 S
O196 C199 1.249 . S
O197 Dy183 2.326 . S
O197 C199 1.267 . S
C198 O190 1.249 . S
C198 O191 1.267 . S
C199 O196 1.249 . S
C199 O197 1.267 . S
Dy200 O204 2.398 . S
Dy200 O205 2.491 . S
Dy200 O206 2.403 . S
Dy200 O207 2.664 . S
Dy200 O211 2.326 . S
Dy200 O215 2.310 . S
Dy200 O216 2.351 . S
C201 O212 1.185 . S
C201 O213 1.355 . S
C202 O204 1.185 . S
C202 O205 1.355 . S
Dy203 O207 2.310 . S
Dy203 O210 2.351 . S
Dy203 O212 2.398 . S
Dy203 O213 2.491 . S
Dy203 O214 2.403 . S
Dy203 O215 2.664 . S
Dy203 O217 2.326 . S
O204 Dy200 2.398 . S
O204 C202 1.185 . S
O205 Dy200 2.491 . S
O205 C202 1.355 . S
O206 Dy200 2.403 . S
O206 C208 1.254 . S
O207 Dy200 2.664 . S
O207 Dy203 2.310 . S
O207 C208 1.268 . S
C208 O206 1.254 . S
C208 O207 1.268 . S
C209 O214 1.254 . S
C209 O215 1.268 . S
O210 Dy203 2.351 . S
O210 C218 1.249 . S
O211 Dy200 2.326 . S
O211 C218 1.267 . S
O212 C201 1.185 . S
O212 Dy203 2.398 . S
O213 C201 1.355 . S
O213 Dy203 2.491 . S
O214 Dy203 2.403 . S
O214 C209 1.254 . S
O215 Dy200 2.310 . S
O215 Dy203 2.664 . S
O215 C209 1.268 . S
O216 Dy200 2.351 . S
O216 C219 1.249 . S
O217 Dy203 2.326 . S
O217 C219 1.267 . S
C218 O210 1.249 . S
C218 O211 1.267 . S
C219 O216 1.249 . S
C219 O217 1.267 . S
Dy220 O224 2.398 . S
Dy220 O225 2.491 . S
Dy220 O226 2.403 1_565 S
Dy220 O227 2.664 1_565 S
Dy220 O231 2.326 . S
Dy220 O235 2.310 1_565 S
Dy220 O236 2.351 1_565 S
C221 O232 1.185 . S
C221 O233 1.355 . S
C222 O224 1.185 . S
C222 O225 1.355 . S
Dy223 O227 2.310 . S
Dy223 O230 2.351 1_545 S
Dy223 O232 2.398 . S
Dy223 O233 2.491 . S
Dy223 O234 2.403 . S
Dy223 O235 2.664 . S
Dy223 O237 2.326 . S
O224 Dy220 2.398 . S
O224 C222 1.185 . S
O225 Dy220 2.491 . S
O225 C222 1.355 . S
O226 Dy220 2.403 1_545 S
O226 C228 1.254 . S
O227 Dy220 2.664 1_545 S
O227 Dy223 2.310 . S
O227 C228 1.268 . S
C228 O226 1.254 . S
C228 O227 1.268 . S
C229 O234 1.254 . S
C229 O235 1.268 . S
O230 Dy223 2.351 1_565 S
O230 C238 1.249 . S
O231 Dy220 2.326 . S
O231 C238 1.267 . S
O232 C221 1.185 . S
O232 Dy223 2.398 . S
O233 C221 1.355 . S
O233 Dy223 2.491 . S
O234 Dy223 2.403 . S
O234 C229 1.254 . S
O235 Dy220 2.310 1_545 S
O235 Dy223 2.664 . S
O235 C229 1.268 . S
O236 Dy220 2.351 1_545 S
O236 C239 1.249 . S
O237 Dy223 2.326 . S
O237 C239 1.267 . S
C238 O230 1.249 . S
C238 O231 1.267 . S
C239 O236 1.249 . S
C239 O237 1.267 . S
Dy240 O244 2.398 . S
Dy240 O245 2.491 . S
Dy240 O246 2.403 . S
Dy240 O247 2.664 . S
Dy240 O251 2.326 . S
Dy240 O255 2.310 . S
Dy240 O256 2.351 . S
C241 O252 1.185 . S
C241 O253 1.355 . S
C242 O244 1.185 . S
C242 O245 1.355 . S
Dy243 O247 2.310 . S
Dy243 O250 2.351 . S
Dy243 O252 2.398 . S
Dy243 O253 2.491 . S
Dy243 O254 2.403 . S
Dy243 O255 2.664 . S
Dy243 O257 2.326 . S
O244 Dy240 2.398 . S
O244 C242 1.185 . S
O245 Dy240 2.491 . S
O245 C242 1.355 . S
O246 Dy240 2.403 . S
O246 C248 1.254 . S
O247 Dy240 2.664 . S
O247 Dy243 2.310 . S
O247 C248 1.268 . S
C248 O246 1.254 . S
C248 O247 1.268 . S
C249 O254 1.254 . S
C249 O255 1.268 . S
O250 Dy243 2.351 . S
O250 C258 1.249 . S
O251 Dy240 2.326 . S
O251 C258 1.267 . S
O252 C241 1.185 . S
O252 Dy243 2.398 . S
O253 C241 1.355 . S
O253 Dy243 2.491 . S
O254 Dy243 2.403 . S
O254 C249 1.254 . S
O255 Dy240 2.310 . S
O255 Dy243 2.664 . S
O255 C249 1.268 . S
O256 Dy240 2.351 . S
O256 C259 1.249 . S
O257 Dy243 2.326 . S
O257 C259 1.267 . S
C258 O250 1.249 . S
C258 O251 1.267 . S
C259 O256 1.249 . S
C259 O257 1.267 . S
Dy260 O264 2.398 . S
Dy260 O265 2.491 . S
Dy260 O266 2.403 . S
Dy260 O267 2.664 . S
Dy260 O271 2.326 . S
Dy260 O275 2.310 . S
Dy260 O276 2.351 . S
C261 O272 1.185 1_545 S
C261 O273 1.355 1_545 S
C262 O264 1.185 . S
C262 O265 1.355 . S
Dy263 O267 2.310 . S
Dy263 O270 2.351 . S
Dy263 O272 2.398 . S
Dy263 O273 2.491 . S
Dy263 O274 2.403 . S
Dy263 O275 2.664 . S
Dy263 O277 2.326 . S
O264 Dy260 2.398 . S
O264 C262 1.185 . S
O265 Dy260 2.491 . S
O265 C262 1.355 . S
O266 Dy260 2.403 . S
O266 C268 1.254 . S
O267 Dy260 2.664 . S
O267 Dy263 2.310 . S
O267 C268 1.268 . S
C268 O266 1.254 . S
C268 O267 1.268 . S
C269 O274 1.254 . S
C269 O275 1.268 . S
O270 Dy263 2.351 . S
O270 C278 1.249 . S
O271 Dy260 2.326 . S
O271 C278 1.267 . S
O272 C261 1.185 1_565 S
O272 Dy263 2.398 . S
O273 C261 1.355 1_565 S
O273 Dy263 2.491 . S
O274 Dy263 2.403 . S
O274 C269 1.254 . S
O275 Dy260 2.310 . S
O275 Dy263 2.664 . S
O275 C269 1.268 . S
O276 Dy260 2.351 . S
O276 C279 1.249 . S
O277 Dy263 2.326 . S
O277 C279 1.267 . S
C278 O270 1.249 . S
C278 O271 1.267 . S
C279 O276 1.249 . S
C279 O277 1.267 . S
Dy280 O284 2.398 . S
Dy280 O285 2.491 . S
Dy280 O286 2.403 . S
Dy280 O287 2.664 . S
Dy280 O291 2.326 . S
Dy280 O295 2.310 . S
Dy280 O296 2.351 . S
C281 O292 1.185 . S
C281 O293 1.355 . S
C282 O284 1.185 . S
C282 O285 1.355 . S
Dy283 O287 2.310 . S
Dy283 O290 2.351 . S
Dy283 O292 2.398 . S
Dy283 O293 2.491 . S
Dy283 O294 2.403 . S
Dy283 O295 2.664 . S
Dy283 O297 2.326 . S
O284 Dy280 2.398 . S
O284 C282 1.185 . S
O285 Dy280 2.491 . S
O285 C282 1.355 . S
O286 Dy280 2.403 . S
O286 C288 1.254 . S
O287 Dy280 2.664 . S
O287 Dy283 2.310 . S
O287 C288 1.268 . S
C288 O286 1.254 . S
C288 O287 1.268 . S
C289 O294 1.254 . S
C289 O295 1.268 . S
O290 Dy283 2.351 . S
O290 C298 1.249 . S
O291 Dy280 2.326 . S
O291 C298 1.267 . S
O292 C281 1.185 . S
O292 Dy283 2.398 . S
O293 C281 1.355 . S
O293 Dy283 2.491 . S
O294 Dy283 2.403 . S
O294 C289 1.254 . S
O295 Dy280 2.310 . S
O295 Dy283 2.664 . S
O295 C289 1.268 . S
O296 Dy280 2.351 . S
O296 C299 1.249 . S
O297 Dy283 2.326 . S
O297 C299 1.267 . S
C298 O290 1.249 . S
C298 O291 1.267 . S
C299 O296 1.249 . S
C299 O297 1.267 . S
Dy300 O304 2.398 . S
Dy300 O305 2.491 . S
Dy300 O306 2.403 . S
Dy300 O307 2.664 . S
Dy300 O311 2.326 . S
Dy300 O315 2.310 . S
Dy300 O316 2.351 . S
C301 O312 1.185 . S
C301 O313 1.355 . S
C302 O304 1.185 . S
C302 O305 1.355 . S
Dy303 O307 2.310 . S
Dy303 O310 2.351 . S
Dy303 O312 2.398 . S
Dy303 O313 2.491 . S
Dy303 O314 2.403 . S
Dy303 O315 2.664 . S
Dy303 O317 2.326 . S
O304 Dy300 2.398 . S
O304 C302 1.185 . S
O305 Dy300 2.491 . S
O305 C302 1.355 . S
O306 Dy300 2.403 . S
O306 C308 1.254 . S
O307 Dy300 2.664 . S
O307 Dy303 2.310 . S
O307 C308 1.268 . S
C308 O306 1.254 . S
C308 O307 1.268 . S
C309 O314 1.254 . S
C309 O315 1.268 . S
O310 Dy303 2.351 . S
O310 C318 1.249 . S
O311 Dy300 2.326 . S
O311 C318 1.267 . S
O312 C301 1.185 . S
O312 Dy303 2.398 . S
O313 C301 1.355 . S
O313 Dy303 2.491 . S
O314 Dy303 2.403 . S
O314 C309 1.254 . S
O315 Dy300 2.310 . S
O315 Dy303 2.664 . S
O315 C309 1.268 . S
O316 Dy300 2.351 . S
O316 C319 1.249 . S
O317 Dy303 2.326 . S
O317 C319 1.267 . S
C318 O310 1.249 . S
C318 O311 1.267 . S
C319 O316 1.249 . S
C319 O317 1.267 . S
Dy320 O324 2.398 1_565 S
Dy320 O325 2.491 1_565 S
Dy320 O326 2.403 . S
Dy320 O327 2.664 . S
Dy320 O331 2.326 . S
Dy320 O335 2.310 . S
Dy320 O336 2.351 . S
C321 O332 1.185 . S
C321 O333 1.355 . S
C322 O324 1.185 . S
C322 O325 1.355 . S
Dy323 O327 2.310 . S
Dy323 O330 2.351 . S
Dy323 O332 2.398 . S
Dy323 O333 2.491 . S
Dy323 O334 2.403 . S
Dy323 O335 2.664 . S
Dy323 O337 2.326 . S
O324 Dy320 2.398 1_545 S
O324 C322 1.185 . S
O325 Dy320 2.491 1_545 S
O325 C322 1.355 . S
O326 Dy320 2.403 . S
O326 C328 1.254 . S
O327 Dy320 2.664 . S
O327 Dy323 2.310 . S
O327 C328 1.268 . S
C328 O326 1.254 . S
C328 O327 1.268 . S
C329 O334 1.254 . S
C329 O335 1.268 . S
O330 Dy323 2.351 . S
O330 C338 1.249 . S
O331 Dy320 2.326 . S
O331 C338 1.267 . S
O332 C321 1.185 . S
O332 Dy323 2.398 . S
O333 C321 1.355 . S
O333 Dy323 2.491 . S
O334 Dy323 2.403 . S
O334 C329 1.254 . S
O335 Dy320 2.310 . S
O335 Dy323 2.664 . S
O335 C329 1.268 . S
O336 Dy320 2.351 . S
O336 C339 1.249 . S
O337 Dy323 2.326 . S
O337 C339 1.267 . S
C338 O330 1.249 . S
C338 O331 1.267 . S
C339 O336 1.249 . S
C339 O337 1.267 . S
Dy340 O344 2.398 1_455 S
Dy340 O345 2.491 . S
Dy340 O346 2.403 . S
Dy340 O347 2.664 . S
Dy340 O351 2.326 . S
Dy340 O355 2.310 . S
Dy340 O356 2.351 . S
C341 O352 1.185 . S
C341 O353 1.355 . S
C342 O344 1.185 . S
C342 O345 1.355 1_655 S
Dy343 O347 2.310 . S
Dy343 O350 2.351 . S
Dy343 O352 2.398 . S
Dy343 O353 2.491 . S
Dy343 O354 2.403 . S
Dy343 O355 2.664 . S
Dy343 O357 2.326 . S
O344 Dy340 2.398 1_655 S
O344 C342 1.185 . S
O345 Dy340 2.491 . S
O345 C342 1.355 1_455 S
O346 Dy340 2.403 . S
O346 C348 1.254 . S
O347 Dy340 2.664 . S
O347 Dy343 2.310 . S
O347 C348 1.268 . S
C348 O346 1.254 . S
C348 O347 1.268 . S
C349 O354 1.254 . S
C349 O355 1.268 . S
O350 Dy343 2.351 . S
O350 C358 1.249 . S
O351 Dy340 2.326 . S
O351 C358 1.267 . S
O352 C341 1.185 . S
O352 Dy343 2.398 . S
O353 C341 1.355 . S
O353 Dy343 2.491 . S
O354 Dy343 2.403 . S
O354 C349 1.254 . S
O355 Dy340 2.310 . S
O355 Dy343 2.664 . S
O355 C349 1.268 . S
O356 Dy340 2.351 . S
O356 C359 1.249 . S
O357 Dy343 2.326 . S
O357 C359 1.267 . S
C358 O350 1.249 . S
C358 O351 1.267 . S
C359 O356 1.249 . S
C359 O357 1.267 . S
Dy360 O364 2.398 . S
Dy360 O365 2.491 . S
Dy360 O366 2.403 . S
Dy360 O367 2.664 . S
Dy360 O371 2.326 . S
Dy360 O375 2.310 . S
Dy360 O376 2.351 . S
C361 O372 1.185 . S
C361 O373 1.355 . S
C362 O364 1.185 . S
C362 O365 1.355 . S
Dy363 O367 2.310 . S
Dy363 O370 2.351 . S
Dy363 O372 2.398 . S
Dy363 O373 2.491 . S
Dy363 O374 2.403 . S
Dy363 O375 2.664 . S
Dy363 O377 2.326 . S
O364 Dy360 2.398 . S
O364 C362 1.185 . S
O365 Dy360 2.491 . S
O365 C362 1.355 . S
O366 Dy360 2.403 . S
O366 C368 1.254 . S
O367 Dy360 2.664 . S
O367 Dy363 2.310 . S
O367 C368 1.268 . S
C368 O366 1.254 . S
C368 O367 1.268 . S
C369 O374 1.254 . S
C369 O375 1.268 . S
O370 Dy363 2.351 . S
O370 C378 1.249 . S
O371 Dy360 2.326 . S
O371 C378 1.267 . S
O372 C361 1.185 . S
O372 Dy363 2.398 . S
O373 C361 1.355 . S
O373 Dy363 2.491 . S
O374 Dy363 2.403 . S
O374 C369 1.254 . S
O375 Dy360 2.310 . S
O375 Dy363 2.664 . S
O375 C369 1.268 . S
O376 Dy360 2.351 . S
O376 C379 1.249 . S
O377 Dy363 2.326 . S
O377 C379 1.267 . S
C378 O370 1.249 . S
C378 O371 1.267 . S
C379 O376 1.249 . S
C379 O377 1.267 . S
Dy380 O384 2.398 . S
Dy380 O385 2.491 . S
Dy380 O386 2.403 . S
Dy380 O387 2.664 . S
Dy380 O391 2.326 . S
Dy380 O395 2.310 . S
Dy380 O396 2.351 . S
C381 O392 1.185 . S
C381 O393 1.355 . S
C382 O384 1.185 . S
C382 O385 1.355 . S
Dy383 O387 2.310 . S
Dy383 O390 2.351 . S
Dy383 O392 2.398 1_565 S
Dy383 O393 2.491 1_565 S
Dy383 O394 2.403 . S
Dy383 O395 2.664 . S
Dy383 O397 2.326 . S
O384 Dy380 2.398 . S
O384 C382 1.185 . S
O385 Dy380 2.491 . S
O385 C382 1.355 . S
O386 Dy380 2.403 . S
O386 C388 1.254 . S
O387 Dy380 2.664 . S
O387 Dy383 2.310 . S
O387 C388 1.268 . S
C388 O386 1.254 . S
C388 O387 1.268 . S
C389 O394 1.254 . S
C389 O395 1.268 . S
O390 Dy383 2.351 . S
O390 C398 1.249 . S
O391 Dy380 2.326 . S
O391 C398 1.267 . S
O392 C381 1.185 . S
O392 Dy383 2.398 1_545 S
O393 C381 1.355 . S
O393 Dy383 2.491 1_545 S
O394 Dy383 2.403 . S
O394 C389 1.254 . S
O395 Dy380 2.310 . S
O395 Dy383 2.664 . S
O395 C389 1.268 . S
O396 Dy380 2.351 . S
O396 C399 1.249 . S
O397 Dy383 2.326 . S
O397 C399 1.267 . S
C398 O390 1.249 . S
C398 O391 1.267 . S
C399 O396 1.249 . S
C399 O397 1.267 . S
Dy400 O404 2.398 . S
Dy400 O405 2.491 . S
Dy400 O406 2.403 . S
Dy400 O407 2.664 . S
Dy400 O411 2.326 . S
Dy400 O415 2.310 . S
Dy400 O416 2.351 . S
C401 O412 1.185 . S
C401 O413 1.355 1_655 S
C402 O404 1.185 . S
C402 O405 1.355 . S
Dy403 O407 2.310 . S
Dy403 O410 2.351 . S
Dy403 O412 2.398 1_455 S
Dy403 O413 2.491 . S
Dy403 O414 2.403 . S
Dy403 O415 2.664 . S
Dy403 O417 2.326 . S
O404 Dy400 2.398 . S
O404 C402 1.185 . S
O405 Dy400 2.491 . S
O405 C402 1.355 . S
O406 Dy400 2.403 . S
O406 C408 1.254 . S
O407 Dy400 2.664 . S
O407 Dy403 2.310 . S
O407 C408 1.268 . S
C408 O406 1.254 . S
C408 O407 1.268 . S
C409 O414 1.254 . S
C409 O415 1.268 . S
O410 Dy403 2.351 . S
O410 C418 1.249 . S
O411 Dy400 2.326 . S
O411 C418 1.267 . S
O412 C401 1.185 . S
O412 Dy403 2.398 1_655 S
O413 C401 1.355 1_455 S
O413 Dy403 2.491 . S
O414 Dy403 2.403 . S
O414 C409 1.254 . S
O415 Dy400 2.310 . S
O415 Dy403 2.664 . S
O415 C409 1.268 . S
O416 Dy400 2.351 . S
O416 C419 1.249 . S
O417 Dy403 2.326 . S
O417 C419 1.267 . S
C418 O410 1.249 . S
C418 O411 1.267 . S
C419 O416 1.249 . S
C419 O417 1.267 . S
Dy420 O424 2.398 . S
Dy420 O425 2.491 . S
Dy420 O426 2.403 . S
Dy420 O427 2.664 . S
Dy420 O431 2.326 . S
Dy420 O435 2.310 . S
Dy420 O436 2.351 . S
C421 O432 1.185 . S
C421 O433 1.355 . S
C422 O424 1.185 . S
C422 O425 1.355 . S
Dy423 O427 2.310 . S
Dy423 O430 2.351 . S
Dy423 O432 2.398 . S
Dy423 O433 2.491 . S
Dy423 O434 2.403 . S
Dy423 O435 2.664 . S
Dy423 O437 2.326 . S
O424 Dy420 2.398 . S
O424 C422 1.185 . S
O425 Dy420 2.491 . S
O425 C422 1.355 . S
O426 Dy420 2.403 . S
O426 C428 1.254 . S
O427 Dy420 2.664 . S
O427 Dy423 2.310 . S
O427 C428 1.268 . S
C428 O426 1.254 . S
C428 O427 1.268 . S
C429 O434 1.254 . S
C429 O435 1.268 . S
O430 Dy423 2.351 . S
O430 C438 1.249 . S
O431 Dy420 2.326 . S
O431 C438 1.267 . S
O432 C421 1.185 . S
O432 Dy423 2.398 . S
O433 C421 1.355 . S
O433 Dy423 2.491 . S
O434 Dy423 2.403 . S
O434 C429 1.254 . S
O435 Dy420 2.310 . S
O435 Dy423 2.664 . S
O435 C429 1.268 . S
O436 Dy420 2.351 . S
O436 C439 1.249 . S
O437 Dy423 2.326 . S
O437 C439 1.267 . S
C438 O430 1.249 . S
C438 O431 1.267 . S
C439 O436 1.249 . S
C439 O437 1.267 . S
Dy440 O444 2.398 . S
Dy440 O445 2.491 . S
Dy440 O446 2.403 . S
Dy440 O447 2.664 . S
Dy440 O451 2.326 . S
Dy440 O455 2.310 . S
Dy440 O456 2.351 . S
C441 O452 1.185 . S
C441 O453 1.355 . S
C442 O444 1.185 1_545 S
C442 O445 1.355 1_545 S
Dy443 O447 2.310 . S
Dy443 O450 2.351 . S
Dy443 O452 2.398 . S
Dy443 O453 2.491 . S
Dy443 O454 2.403 . S
Dy443 O455 2.664 . S
Dy443 O457 2.326 . S
O444 Dy440 2.398 . S
O444 C442 1.185 1_565 S
O445 Dy440 2.491 . S
O445 C442 1.355 1_565 S
O446 Dy440 2.403 . S
O446 C448 1.254 . S
O447 Dy440 2.664 . S
O447 Dy443 2.310 . S
O447 C448 1.268 . S
C448 O446 1.254 . S
C448 O447 1.268 . S
C449 O454 1.254 . S
C449 O455 1.268 . S
O450 Dy443 2.351 . S
O450 C458 1.249 . S
O451 Dy440 2.326 . S
O451 C458 1.267 . S
O452 C441 1.185 . S
O452 Dy443 2.398 . S
O453 C441 1.355 . S
O453 Dy443 2.491 . S
O454 Dy443 2.403 . S
O454 C449 1.254 . S
O455 Dy440 2.310 . S
O455 Dy443 2.664 . S
O455 C449 1.268 . S
O456 Dy440 2.351 . S
O456 C459 1.249 . S
O457 Dy443 2.326 . S
O457 C459 1.267 . S
C458 O450 1.249 . S
C458 O451 1.267 . S
C459 O456 1.249 . S
C459 O457 1.267 . S
Dy460 O464 2.398 . S
Dy460 O465 2.491 . S
Dy460 O466 2.403 . S
Dy460 O467 2.664 . S
Dy460 O471 2.326 . S
Dy460 O475 2.310 . S
Dy460 O476 2.351 . S
C461 O472 1.185 . S
C461 O473 1.355 . S
C462 O464 1.185 . S
C462 O465 1.355 . S
Dy463 O467 2.310 . S
Dy463 O470 2.351 . S
Dy463 O472 2.398 . S
Dy463 O473 2.491 . S
Dy463 O474 2.403 . S
Dy463 O475 2.664 . S
Dy463 O477 2.326 . S
O464 Dy460 2.398 . S
O464 C462 1.185 . S
O465 Dy460 2.491 . S
O465 C462 1.355 . S
O466 Dy460 2.403 . S
O466 C468 1.254 . S
O467 Dy460 2.664 . S
O467 Dy463 2.310 . S
O467 C468 1.268 . S
C468 O466 1.254 . S
C468 O467 1.268 . S
C469 O474 1.254 . S
C469 O475 1.268 . S
O470 Dy463 2.351 . S
O470 C478 1.249 . S
O471 Dy460 2.326 . S
O471 C478 1.267 . S
O472 C461 1.185 . S
O472 Dy463 2.398 . S
O473 C461 1.355 . S
O473 Dy463 2.491 . S
O474 Dy463 2.403 . S
O474 C469 1.254 . S
O475 Dy460 2.310 . S
O475 Dy463 2.664 . S
O475 C469 1.268 . S
O476 Dy460 2.351 . S
O476 C479 1.249 . S
O477 Dy463 2.326 . S
O477 C479 1.267 . S
C478 O470 1.249 . S
C478 O471 1.267 . S
C479 O476 1.249 . S
C479 O477 1.267 . S
Dy480 O484 2.398 . S
Dy480 O485 2.491 . S
Dy480 O486 2.403 . S
Dy480 O487 2.664 . S
Dy480 O491 2.326 . S
Dy480 O495 2.310 . S
Dy480 O496 2.351 . S
C481 O492 1.185 . S
C481 O493 1.355 . S
C482 O484 1.185 . S
C482 O485 1.355 . S
Dy483 O487 2.310 . S
Dy483 O490 2.351 . S
Dy483 O492 2.398 . S
Dy483 O493 2.491 . S
Dy483 O494 2.403 . S
Dy483 O495 2.664 . S
Dy483 O497 2.326 . S
O484 Dy480 2.398 . S
O484 C482 1.185 . S
O485 Dy480 2.491 . S
O485 C482 1.355 . S
O486 Dy480 2.403 . S
O486 C488 1.254 . S
O487 Dy480 2.664 . S
O487 Dy483 2.310 . S
O487 C488 1.268 . S
C488 O486 1.254 . S
C488 O487 1.268 . S
C489 O494 1.254 . S
C489 O495 1.268 . S
O490 Dy483 2.351 . S
O490 C498 1.249 . S
O491 Dy480 2.326 . S
O491 C498 1.267 . S
O492 C481 1.185 . S
O492 Dy483 2.398 . S
O493 C481 1.355 . S
O493 Dy483 2.491 . S
O494 Dy483 2.403 . S
O494 C489 1.254 . S
O495 Dy480 2.310 . S
O495 Dy483 2.664 . S
O495 C489 1.268 . S
O496 Dy480 2.351 . S
O496 C499 1.249 . S
O497 Dy483 2.326 . S
O497 C499 1.267 . S
C498 O490 1.249 . S
C498 O491 1.267 . S
C499 O496 1.249 . S
C499 O497 1.267 . S
Dy500 O504 2.398 1_545 S
Dy500 O505 2.491 . S
Dy500 O506 2.403 . S
Dy500 O507 2.664 . S
Dy500 O511 2.326 . S
Dy500 O515 2.310 . S
Dy500 O516 2.351 . S
C501 O512 1.185 . S
C501 O513 1.355 . S
C502 O504 1.185 . S
C502 O505 1.355 1_565 S
Dy503 O507 2.310 . S
Dy503 O510 2.351 . S
Dy503 O512 2.398 . S
Dy503 O513 2.491 . S
Dy503 O514 2.403 . S
Dy503 O515 2.664 . S
Dy503 O517 2.326 . S
O504 Dy500 2.398 1_565 S
O504 C502 1.185 . S
O505 Dy500 2.491 . S
O505 C502 1.355 1_545 S
O506 Dy500 2.403 . S
O506 C508 1.254 . S
O507 Dy500 2.664 . S
O507 Dy503 2.310 . S
O507 C508 1.268 . S
C508 O506 1.254 . S
C508 O507 1.268 . S
C509 O514 1.254 . S
C509 O515 1.268 . S
O510 Dy503 2.351 . S
O510 C518 1.249 . S
O511 Dy500 2.326 . S
O511 C518 1.267 . S
O512 C501 1.185 . S
O512 Dy503 2.398 . S
O513 C501 1.355 . S
O513 Dy503 2.491 . S
O514 Dy503 2.403 . S
O514 C509 1.254 . S
O515 Dy500 2.310 . S
O515 Dy503 2.664 . S
O515 C509 1.268 . S
O516 Dy500 2.351 . S
O516 C519 1.249 . S
O517 Dy503 2.326 . S
O517 C519 1.267 . S
C518 O510 1.249 . S
C518 O511 1.267 . S
C519 O516 1.249 . S
C519 O517 1.267 . S
Dy520 O524 2.398 1_655 S
Dy520 O525 2.491 1_655 S
Dy520 O526 2.403 . S
Dy520 O527 2.664 . S
Dy520 O531 2.326 . S
Dy520 O535 2.310 . S
Dy520 O536 2.351 . S
C521 O532 1.185 . S
C521 O533 1.355 . S
C522 O524 1.185 . S
C522 O525 1.355 . S
Dy523 O527 2.310 . S
Dy523 O530 2.351 . S
Dy523 O532 2.398 . S
Dy523 O533 2.491 . S
Dy523 O534 2.403 . S
Dy523 O535 2.664 . S
Dy523 O537 2.326 . S
O524 Dy520 2.398 1_455 S
O524 C522 1.185 . S
O525 Dy520 2.491 1_455 S
O525 C522 1.355 . S
O526 Dy520 2.403 . S
O526 C528 1.254 . S
O527 Dy520 2.664 . S
O527 Dy523 2.310 . S
O527 C528 1.268 . S
C528 O526 1.254 . S
C528 O527 1.268 . S
C529 O534 1.254 . S
C529 O535 1.268 . S
O530 Dy523 2.351 . S
O530 C538 1.249 . S
O531 Dy520 2.326 . S
O531 C538 1.267 . S
O532 C521 1.185 . S
O532 Dy523 2.398 . S
O533 C521 1.355 . S
O533 Dy523 2.491 . S
O534 Dy523 2.403 . S
O534 C529 1.254 . S
O535 Dy520 2.310 . S
O535 Dy523 2.664 . S
O535 C529 1.268 . S
O536 Dy520 2.351 . S
O536 C539 1.249 . S
O537 Dy523 2.326 . S
O537 C539 1.267 . S
C538 O530 1.249 . S
C538 O531 1.267 . S
C539 O536 1.249 . S
C539 O537 1.267 . S
Dy540 O544 2.398 . S
Dy540 O545 2.491 . S
Dy540 O546 2.403 . S
Dy540 O547 2.664 . S
Dy540 O551 2.326 . S
Dy540 O555 2.310 . S
Dy540 O556 2.351 . S
C541 O552 1.185 . S
C541 O553 1.355 . S
C542 O544 1.185 . S
C542 O545 1.355 . S
Dy543 O547 2.310 . S
Dy543 O550 2.351 . S
Dy543 O552 2.398 . S
Dy543 O553 2.491 . S
Dy543 O554 2.403 . S
Dy543 O555 2.664 . S
Dy543 O557 2.326 . S
O544 Dy540 2.398 . S
O544 C542 1.185 . S
O545 Dy540 2.491 . S
O545 C542 1.355 . S
O546 Dy540 2.403 . S
O546 C548 1.254 . S
O547 Dy540 2.664 . S
O547 Dy543 2.310 . S
O547 C548 1.268 . S
C548 O546 1.254 . S
C548 O547 1.268 . S
C549 O554 1.254 . S
C549 O555 1.268 . S
O550 Dy543 2.351 . S
O550 C558 1.249 . S
O551 Dy540 2.326 . S
O551 C558 1.267 . S
O552 C541 1.185 . S
O552 Dy543 2.398 . S
O553 C541 1.355 . S
O553 Dy543 2.491 . S
O554 Dy543 2.403 . S
O554 C549 1.254 . S
O555 Dy540 2.310 . S
O555 Dy543 2.664 . S
O555 C549 1.268 . S
O556 Dy540 2.351 . S
O556 C559 1.249 . S
O557 Dy543 2.326 . S
O557 C559 1.267 . S
C558 O550 1.249 . S
C558 O551 1.267 . S
C559 O556 1.249 . S
C559 O557 1.267 . S
Dy560 O564 2.398 . S
Dy560 O565 2.491 . S
Dy560 O566 2.403 . S
Dy560 O567 2.664 . S
Dy560 O571 2.326 . S
Dy560 O575 2.310 . S
Dy560 O576 2.351 . S
C561 O572 1.185 . S
C561 O573 1.355 . S
C562 O564 1.185 . S
C562 O565 1.355 . S
Dy563 O567 2.310 . S
Dy563 O570 2.351 . S
Dy563 O572 2.398 . S
Dy563 O573 2.491 . S
Dy563 O574 2.403 . S
Dy563 O575 2.664 . S
Dy563 O577 2.326 . S
O564 Dy560 2.398 . S
O564 C562 1.185 . S
O565 Dy560 2.491 . S
O565 C562 1.355 . S
O566 Dy560 2.403 . S
O566 C568 1.254 . S
O567 Dy560 2.664 . S
O567 Dy563 2.310 . S
O567 C568 1.268 . S
C568 O566 1.254 . S
C568 O567 1.268 . S
C569 O574 1.254 . S
C569 O575 1.268 . S
O570 Dy563 2.351 . S
O570 C578 1.249 . S
O571 Dy560 2.326 . S
O571 C578 1.267 . S
O572 C561 1.185 . S
O572 Dy563 2.398 . S
O573 C561 1.355 . S
O573 Dy563 2.491 . S
O574 Dy563 2.403 . S
O574 C569 1.254 . S
O575 Dy560 2.310 . S
O575 Dy563 2.664 . S
O575 C569 1.268 . S
O576 Dy560 2.351 . S
O576 C579 1.249 . S
O577 Dy563 2.326 . S
O577 C579 1.267 . S
C578 O570 1.249 . S
C578 O571 1.267 . S
C579 O576 1.249 . S
C579 O577 1.267 . S
Dy580 O584 2.398 . S
Dy580 O585 2.491 . S
Dy580 O586 2.403 . S
Dy580 O587 2.664 . S
Dy580 O591 2.326 . S
Dy580 O595 2.310 . S
Dy580 O596 2.351 . S
C581 O592 1.185 1_455 S
C581 O593 1.355 1_455 S
C582 O584 1.185 . S
C582 O585 1.355 . S
Dy583 O587 2.310 . S
Dy583 O590 2.351 . S
Dy583 O592 2.398 . S
Dy583 O593 2.491 . S
Dy583 O594 2.403 . S
Dy583 O595 2.664 . S
Dy583 O597 2.326 . S
O584 Dy580 2.398 . S
O584 C582 1.185 . S
O585 Dy580 2.491 . S
O585 C582 1.355 . S
O586 Dy580 2.403 . S
O586 C588 1.254 . S
O587 Dy580 2.664 . S
O587 Dy583 2.310 . S
O587 C588 1.268 . S
C588 O586 1.254 . S
C588 O587 1.268 . S
C589 O594 1.254 . S
C589 O595 1.268 . S
O590 Dy583 2.351 . S
O590 C598 1.249 . S
O591 Dy580 2.326 . S
O591 C598 1.267 . S
O592 C581 1.185 1_655 S
O592 Dy583 2.398 . S
O593 C581 1.355 1_655 S
O593 Dy583 2.491 . S
O594 Dy583 2.403 . S
O594 C589 1.254 . S
O595 Dy580 2.310 . S
O595 Dy583 2.664 . S
O595 C589 1.268 . S
O596 Dy580 2.351 . S
O596 C599 1.249 . S
O597 Dy583 2.326 . S
O597 C599 1.267 . S
C598 O590 1.249 . S
C598 O591 1.267 . S
C599 O596 1.249 . S
C599 O597 1.267 . S
Dy600 O604 2.398 . S
Dy600 O605 2.491 . S
Dy600 O606 2.403 . S
Dy600 O607 2.664 . S
Dy600 O611 2.326 . S
Dy600 O615 2.310 . S
Dy600 O616 2.351 . S
C601 O612 1.185 . S
C601 O613 1.355 . S
C602 O604 1.185 . S
C602 O605 1.355 . S
Dy603 O607 2.310 . S
Dy603 O610 2.351 . S
Dy603 O612 2.398 . S
Dy603 O613 2.491 . S
Dy603 O614 2.403 . S
Dy603 O615 2.664 . S
Dy603 O617 2.326 . S
O604 Dy600 2.398 . S
O604 C602 1.185 . S
O605 Dy600 2.491 . S
O605 C602 1.355 . S
O606 Dy600 2.403 . S
O606 C608 1.254 . S
O607 Dy600 2.664 . S
O607 Dy603 2.310 . S
O607 C608 1.268 . S
C608 O606 1.254 . S
C608 O607 1.268 . S
C609 O614 1.254 . S
C609 O615 1.268 . S
O610 Dy603 2.351 . S
O610 C618 1.249 . S
O611 Dy600 2.326 . S
O611 C618 1.267 . S
O612 C601 1.185 . S
O612 Dy603 2.398 . S
O613 C601 1.355 . S
O613 Dy603 2.491 . S
O614 Dy603 2.403 . S
O614 C609 1.254 . S
O615 Dy600 2.310 . S
O615 Dy603 2.664 . S
O615 C609 1.268 . S
O616 Dy600 2.351 . S
O616 C619 1.249 . S
O617 Dy603 2.326 . S
O617 C619 1.267 . S
C618 O610 1.249 . S
C618 O611 1.267 . S
C619 O616 1.249 . S
C619 O617 1.267 . S
Dy620 O624 2.398 . S
Dy620 O625 2.491 . S
Dy620 O626 2.403 . S
Dy620 O627 2.664 . S
Dy620 O631 2.326 . S
Dy620 O635 2.310 . S
Dy620 O636 2.351 . S
C621 O632 1.185 . S
C621 O633 1.355 . S
C622 O624 1.185 . S
C622 O625 1.355 . S
Dy623 O627 2.310 . S
Dy623 O630 2.351 . S
Dy623 O632 2.398 . S
Dy623 O633 2.491 . S
Dy623 O634 2.403 . S
Dy623 O635 2.664 . S
Dy623 O637 2.326 . S
O624 Dy620 2.398 . S
O624 C622 1.185 . S
O625 Dy620 2.491 . S
O625 C622 1.355 . S
O626 Dy620 2.403 . S
O626 C628 1.254 . S
O627 Dy620 2.664 . S
O627 Dy623 2.310 . S
O627 C628 1.268 . S
C628 O626 1.254 . S
C628 O627 1.268 . S
C629 O634 1.254 . S
C629 O635 1.268 . S
O630 Dy623 2.351 . S
O630 C638 1.249 . S
O631 Dy620 2.326 . S
O631 C638 1.267 . S
O632 C621 1.185 . S
O632 Dy623 2.398 . S
O633 C621 1.355 . S
O633 Dy623 2.491 . S
O634 Dy623 2.403 . S
O634 C629 1.254 . S
O635 Dy620 2.310 . S
O635 Dy623 2.664 . S
O635 C629 1.268 . S
O636 Dy620 2.351 . S
O636 C639 1.249 . S
O637 Dy623 2.326 . S
O637 C639 1.267 . S
C638 O630 1.249 . S
C638 O631 1.267 . S
C639 O636 1.249 . S
C639 O637 1.267 . S
Dy640 O644 2.398 . S
Dy640 O645 2.491 . S
Dy640 O646 2.403 . S
Dy640 O647 2.664 . S
Dy640 O651 2.326 . S
Dy640 O655 2.310 . S
Dy640 O656 2.351 . S
C641 O652 1.185 . S
C641 O653 1.355 . S
C642 O644 1.185 1_455 S
C642 O645 1.355 1_455 S
Dy643 O647 2.310 . S
Dy643 O650 2.351 . S
Dy643 O652 2.398 . S
Dy643 O653 2.491 . S
Dy643 O654 2.403 . S
Dy643 O655 2.664 . S
Dy643 O657 2.326 . S
O644 Dy640 2.398 . S
O644 C642 1.185 1_655 S
O645 Dy640 2.491 . S
O645 C642 1.355 1_655 S
O646 Dy640 2.403 . S
O646 C648 1.254 . S
O647 Dy640 2.664 . S
O647 Dy643 2.310 . S
O647 C648 1.268 . S
C648 O646 1.254 . S
C648 O647 1.268 . S
C649 O654 1.254 . S
C649 O655 1.268 . S
O650 Dy643 2.351 . S
O650 C658 1.249 . S
O651 Dy640 2.326 . S
O651 C658 1.267 . S
O652 C641 1.185 . S
O652 Dy643 2.398 . S
O653 C641 1.355 . S
O653 Dy643 2.491 . S
O654 Dy643 2.403 . S
O654 C649 1.254 . S
O655 Dy640 2.310 . S
O655 Dy643 2.664 . S
O655 C649 1.268 . S
O656 Dy640 2.351 . S
O656 C659 1.249 . S
O657 Dy643 2.326 . S
O657 C659 1.267 . S
C658 O650 1.249 . S
C658 O651 1.267 . S
C659 O656 1.249 . S
C659 O657 1.267 . S
Dy660 O664 2.398 . S
Dy660 O665 2.491 . S
Dy660 O666 2.403 . S
Dy660 O667 2.664 . S
Dy660 O671 2.326 . S
Dy660 O675 2.310 . S
Dy660 O676 2.351 . S
C661 O672 1.185 . S
C661 O673 1.355 . S
C662 O664 1.185 . S
C662 O665 1.355 . S
Dy663 O667 2.310 . S
Dy663 O670 2.351 . S
Dy663 O672 2.398 . S
Dy663 O673 2.491 . S
Dy663 O674 2.403 . S
Dy663 O675 2.664 . S
Dy663 O677 2.326 . S
O664 Dy660 2.398 . S
O664 C662 1.185 . S
O665 Dy660 2.491 . S
O665 C662 1.355 . S
O666 Dy660 2.403 . S
O666 C668 1.254 . S
O667 Dy660 2.664 . S
O667 Dy663 2.310 . S
O667 C668 1.268 . S
C668 O666 1.254 . S
C668 O667 1.268 . S
C669 O674 1.254 . S
C669 O675 1.268 . S
O670 Dy663 2.351 . S
O670 C678 1.249 . S
O671 Dy660 2.326 . S
O671 C678 1.267 . S
O672 C661 1.185 . S
O672 Dy663 2.398 . S
O673 C661 1.355 . S
O673 Dy663 2.491 . S
O674 Dy663 2.403 . S
O674 C669 1.254 . S
O675 Dy660 2.310 . S
O675 Dy663 2.664 . S
O675 C669 1.268 . S
O676 Dy660 2.351 . S
O676 C679 1.249 . S
O677 Dy663 2.326 . S
O677 C679 1.267 . S
C678 O670 1.249 . S
C678 O671 1.267 . S
C679 O676 1.249 . S
C679 O677 1.267 . S
Dy680 O684 2.398 . S
Dy680 O685 2.491 . S
Dy680 O686 2.403 . S
Dy680 O687 2.664 . S
Dy680 O691 2.326 . S
Dy680 O695 2.310 . S
Dy680 O696 2.351 . S
C681 O692 1.185 . S
C681 O693 1.355 1_565 S
C682 O684 1.185 . S
C682 O685 1.355 . S
Dy683 O687 2.310 . S
Dy683 O690 2.351 . S
Dy683 O692 2.398 1_545 S
Dy683 O693 2.491 . S
Dy683 O694 2.403 . S
Dy683 O695 2.664 . S
Dy683 O697 2.326 . S
O684 Dy680 2.398 . S
O684 C682 1.185 . S
O685 Dy680 2.491 . S
O685 C682 1.355 . S
O686 Dy680 2.403 . S
O686 C688 1.254 . S
O687 Dy680 2.664 . S
O687 Dy683 2.310 . S
O687 C688 1.268 . S
C688 O686 1.254 . S
C688 O687 1.268 . S
C689 O694 1.254 . S
C689 O695 1.268 . S
O690 Dy683 2.351 . S
O690 C698 1.249 . S
O691 Dy680 2.326 . S
O691 C698 1.267 . S
O692 C681 1.185 . S
O692 Dy683 2.398 1_565 S
O693 C681 1.355 1_545 S
O693 Dy683 2.491 . S
O694 Dy683 2.403 . S
O694 C689 1.254 . S
O695 Dy680 2.310 . S
O695 Dy683 2.664 . S
O695 C689 1.268 . S
O696 Dy680 2.351 . S
O696 C699 1.249 . S
O697 Dy683 2.326 . S
O697 C699 1.267 . S
C698 O690 1.249 . S
C698 O691 1.267 . S
C699 O696 1.249 . S
C699 O697 1.267 . S
Dy700 O704 2.398 . S
Dy700 O705 2.491 . S
Dy700 O706 2.403 . S
Dy700 O707 2.664 . S
Dy700 O711 2.326 . S
Dy700 O715 2.310 . S
Dy700 O716 2.351 . S
C701 O712 1.185 . S
C701 O713 1.355 . S
C702 O704 1.185 . S
C702 O705 1.355 . S
Dy703 O707 2.310 . S
Dy703 O710 2.351 . S
Dy703 O712 2.398 1_655 S
Dy703 O713 2.491 1_655 S
Dy703 O714 2.403 . S
Dy703 O715 2.664 . S
Dy703 O717 2.326 . S
O704 Dy700 2.398 . S
O704 C702 1.185 . S
O705 Dy700 2.491 . S
O705 C702 1.355 . S
O706 Dy700 2.403 . S
O706 C708 1.254 . S
O707 Dy700 2.664 . S
O707 Dy703 2.310 . S
O707 C708 1.268 . S
C708 O706 1.254 . S
C708 O707 1.268 . S
C709 O714 1.254 . S
C709 O715 1.268 . S
O710 Dy703 2.351 . S
O710 C718 1.249 . S
O711 Dy700 2.326 . S
O711 C718 1.267 . S
O712 C701 1.185 . S
O712 Dy703 2.398 1_455 S
O713 C701 1.355 . S
O713 Dy703 2.491 1_455 S
O714 Dy703 2.403 . S
O714 C709 1.254 . S
O715 Dy700 2.310 . S
O715 Dy703 2.664 . S
O715 C709 1.268 . S
O716 Dy700 2.351 . S
O716 C719 1.249 . S
O717 Dy703 2.326 . S
O717 C719 1.267 . S
C718 O710 1.249 . S
C718 O711 1.267 . S
C719 O716 1.249 . S
C719 O717 1.267 . S
C720 C721 1.363 . S
C720 C726 1.379 . S
C720 N728 1.356 . S
C721 C720 1.363 . S
C721 C727 1.363 . S
C722 C723 1.363 . S
C722 C727 1.379 . S
C722 N729 1.356 . S
C723 C722 1.363 . S
C723 C726 1.363 . S
N724 C726 1.356 . S
N724 H736 0.984 . S
N724 H737 0.985 . S
N725 C727 1.356 . S
N725 H730 0.984 . S
N725 H731 0.985 . S
C726 C720 1.379 . S
C726 C723 1.363 . S
C726 N724 1.356 . S
C727 C721 1.363 . S
C727 C722 1.379 . S
C727 N725 1.356 . S
N728 C720 1.356 . S
N728 H734 0.984 . S
N728 H735 0.984 . S
N729 C722 1.356 . S
N729 H732 0.984 . S
N729 H733 0.985 . S
H730 N725 0.984 . S
H731 N725 0.985 . S
H732 N729 0.984 . S
H733 N729 0.985 . S
H734 N728 0.984 . S
H735 N728 0.984 . S
H736 N724 0.984 . S
H737 N724 0.985 . S
C738 C739 1.363 . S
C738 C744 1.379 . S
C738 N746 1.356 . S
C739 C738 1.363 . S
C739 C745 1.363 . S
C740 C741 1.363 . S
C740 C745 1.379 . S
C740 N747 1.356 1_655 S
C741 C740 1.363 . S
C741 C744 1.363 . S
N742 C744 1.356 . S
N742 H754 0.984 . S
N742 H755 0.985 . S
N743 C745 1.356 . S
N743 H748 0.984 . S
N743 H749 0.985 . S
C744 C738 1.379 . S
C744 C741 1.363 . S
C744 N742 1.356 . S
C745 C739 1.363 . S
C745 C740 1.379 . S
C745 N743 1.356 . S
N746 C738 1.356 . S
N746 H752 0.984 . S
N746 H753 0.984 . S
N747 C740 1.356 1_455 S
N747 H750 0.984 . S
N747 H751 0.985 . S
H748 N743 0.984 . S
H749 N743 0.985 . S
H750 N747 0.984 . S
H751 N747 0.985 . S
H752 N746 0.984 . S
H753 N746 0.984 . S
H754 N742 0.984 . S
H755 N742 0.985 . S
C756 C757 1.363 . S
C756 C762 1.379 . S
C756 N764 1.356 . S
C757 C756 1.363 . S
C757 C763 1.363 . S
C758 C759 1.363 . S
C758 C763 1.379 . S
C758 N765 1.356 . S
C759 C758 1.363 . S
C759 C762 1.363 . S
N760 C762 1.356 . S
N760 H772 0.984 . S
N760 H773 0.985 . S
N761 C763 1.356 . S
N761 H766 0.984 . S
N761 H767 0.985 . S
C762 C756 1.379 . S
C762 C759 1.363 . S
C762 N760 1.356 . S
C763 C757 1.363 . S
C763 C758 1.379 . S
C763 N761 1.356 . S
N764 C756 1.356 . S
N764 H770 0.984 . S
N764 H771 0.984 . S
N765 C758 1.356 . S
N765 H768 0.984 . S
N765 H769 0.985 . S
H766 N761 0.984 . S
H767 N761 0.985 . S
H768 N765 0.984 . S
H769 N765 0.985 . S
H770 N764 0.984 . S
H771 N764 0.984 . S
H772 N760 0.984 . S
H773 N760 0.985 . S
C774 C775 1.363 . S
C774 C780 1.379 . S
C774 N782 1.356 . S
C775 C774 1.363 . S
C775 C781 1.363 . S
C776 C777 1.363 . S
C776 C781 1.379 . S
C776 N783 1.356 . S
C777 C776 1.363 . S
C777 C780 1.363 . S
N778 C780 1.356 . S
N778 H790 0.984 . S
N778 H791 0.985 . S
N779 C781 1.356 . S
N779 H784 0.984 . S
N779 H785 0.985 . S
C780 C774 1.379 . S
C780 C777 1.363 . S
C780 N778 1.356 . S
C781 C775 1.363 . S
C781 C776 1.379 . S
C781 N779 1.356 . S
N782 C774 1.356 . S
N782 H788 0.984 . S
N782 H789 0.984 . S
N783 C776 1.356 . S
N783 H786 0.984 . S
N783 H787 0.985 . S
H784 N779 0.984 . S
H785 N779 0.985 . S
H786 N783 0.984 . S
H787 N783 0.985 . S
H788 N782 0.984 . S
H789 N782 0.984 . S
H790 N778 0.984 . S
H791 N778 0.985 . S
C792 C793 1.363 . S
C792 C798 1.379 . S
C792 N800 1.356 . S
C793 C792 1.363 . S
C793 C799 1.363 . S
C794 C795 1.363 . S
C794 C799 1.379 . S
C794 N801 1.356 . S
C795 C794 1.363 . S
C795 C798 1.363 . S
N796 C798 1.356 . S
N796 H808 0.984 . S
N796 H809 0.985 . S
N797 C799 1.356 . S
N797 H802 0.984 . S
N797 H803 0.985 . S
C798 C792 1.379 . S
C798 C795 1.363 . S
C798 N796 1.356 . S
C799 C793 1.363 . S
C799 C794 1.379 . S
C799 N797 1.356 . S
N800 C792 1.356 . S
N800 H806 0.984 . S
N800 H807 0.984 . S
N801 C794 1.356 . S
N801 H804 0.984 . S
N801 H805 0.985 . S
H802 N797 0.984 . S
H803 N797 0.985 . S
H804 N801 0.984 . S
H805 N801 0.985 . S
H806 N800 0.984 . S
H807 N800 0.984 . S
H808 N796 0.984 . S
H809 N796 0.985 . S
C810 C811 1.363 . S
C810 C816 1.379 . S
C810 N818 1.356 . S
C811 C810 1.363 . S
C811 C817 1.363 . S
C812 C813 1.363 . S
C812 C817 1.379 . S
C812 N819 1.356 . S
C813 C812 1.363 . S
C813 C816 1.363 . S
N814 C816 1.356 . S
N814 H826 0.984 . S
N814 H827 0.985 . S
N815 C817 1.356 . S
N815 H820 0.984 . S
N815 H821 0.985 . S
C816 C810 1.379 . S
C816 C813 1.363 . S
C816 N814 1.356 . S
C817 C811 1.363 . S
C817 C812 1.379 . S
C817 N815 1.356 . S
N818 C810 1.356 . S
N818 H824 0.984 . S
N818 H825 0.984 . S
N819 C812 1.356 . S
N819 H822 0.985 1_565 S
N819 H823 0.985 . S
H820 N815 0.984 . S
H821 N815 0.985 . S
H822 N819 0.985 1_545 S
H823 N819 0.985 . S
H824 N818 0.984 . S
H825 N818 0.984 . S
H826 N814 0.984 . S
H827 N814 0.985 . S
C828 C829 1.363 1_545 S
C828 C834 1.379 1_545 S
C828 N836 1.356 . S
C829 C828 1.363 1_565 S
C829 C835 1.363 . S
C830 C831 1.363 . S
C830 C835 1.379 . S
C830 N837 1.356 . S
C831 C830 1.363 . S
C831 C834 1.363 . S
N832 C834 1.356 . S
N832 H844 0.984 1_565 S
N832 H845 0.985 . S
N833 C835 1.356 . S
N833 H838 0.984 . S
N833 H839 0.985 . S
C834 C828 1.379 1_565 S
C834 C831 1.363 . S
C834 N832 1.356 . S
C835 C829 1.363 . S
C835 C830 1.379 . S
C835 N833 1.356 . S
N836 C828 1.356 . S
N836 H842 0.984 . S
N836 H843 0.984 . S
N837 C830 1.356 . S
N837 H840 0.984 . S
N837 H841 0.985 . S
H838 N833 0.984 . S
H839 N833 0.985 . S
H840 N837 0.984 . S
H841 N837 0.985 . S
H842 N836 0.984 . S
H843 N836 0.984 . S
H844 N832 0.984 1_545 S
H845 N832 0.985 . S
C846 C847 1.363 . S
C846 C852 1.379 . S
C846 N854 1.356 . S
C847 C846 1.363 . S
C847 C853 1.363 . S
C848 C849 1.363 . S
C848 C853 1.379 . S
C848 N855 1.356 . S
C849 C848 1.363 . S
C849 C852 1.363 . S
N850 C852 1.356 . S
N850 H862 0.984 . S
N850 H863 0.985 . S
N851 C853 1.356 . S
N851 H856 0.984 . S
N851 H857 0.985 . S
C852 C846 1.379 . S
C852 C849 1.363 . S
C852 N850 1.356 . S
C853 C847 1.363 . S
C853 C848 1.379 . S
C853 N851 1.356 . S
N854 C846 1.356 . S
N854 H860 0.984 . S
N854 H861 0.984 . S
N855 C848 1.356 . S
N855 H858 0.984 1_455 S
N855 H859 0.985 1_455 S
H856 N851 0.984 . S
H857 N851 0.985 . S
H858 N855 0.984 1_655 S
H859 N855 0.985 1_655 S
H860 N854 0.984 . S
H861 N854 0.984 . S
H862 N850 0.984 . S
H863 N850 0.985 . S
C864 C865 1.363 . S
C864 C870 1.379 . S
C864 N872 1.356 . S
C865 C864 1.363 . S
C865 C871 1.363 . S
C866 C867 1.363 . S
C866 C871 1.379 . S
C866 N873 1.356 . S
C867 C866 1.363 . S
C867 C870 1.363 . S
N868 C870 1.356 . S
N868 H880 0.984 . S
N868 H881 0.985 . S
N869 C871 1.356 . S
N869 H874 0.984 . S
N869 H875 0.985 . S
C870 C864 1.379 . S
C870 C867 1.363 . S
C870 N868 1.356 . S
C871 C865 1.363 . S
C871 C866 1.379 . S
C871 N869 1.356 . S
N872 C864 1.356 . S
N872 H878 0.984 . S
N872 H879 0.984 . S
N873 C866 1.356 . S
N873 H876 0.984 . S
N873 H877 0.985 . S
H874 N869 0.984 . S
H875 N869 0.985 . S
H876 N873 0.984 . S
H877 N873 0.985 . S
H878 N872 0.984 . S
H879 N872 0.984 . S
H880 N868 0.984 . S
H881 N868 0.985 . S
C882 C883 1.363 . S
C882 C888 1.379 . S
C882 N890 1.356 . S
C883 C882 1.363 . S
C883 C889 1.363 . S
C884 C885 1.363 . S
C884 C889 1.379 . S
C884 N891 1.356 . S
C885 C884 1.363 . S
C885 C888 1.363 . S
N886 C888 1.356 1_455 S
N886 H898 0.984 . S
N886 H899 0.985 . S
N887 C889 1.356 . S
N887 H892 0.984 . S
N887 H893 0.985 . S
C888 C882 1.379 . S
C888 C885 1.363 . S
C888 N886 1.356 1_655 S
C889 C883 1.363 . S
C889 C884 1.379 . S
C889 N887 1.356 . S
N890 C882 1.356 . S
N890 H896 0.984 . S
N890 H897 0.984 . S
N891 C884 1.356 . S
N891 H894 0.984 . S
N891 H895 0.985 . S
H892 N887 0.984 . S
H893 N887 0.985 . S
H894 N891 0.984 . S
H895 N891 0.985 . S
H896 N890 0.984 . S
H897 N890 0.984 . S
H898 N886 0.984 . S
H899 N886 0.985 . S
C900 C901 1.363 . S
C900 C906 1.379 . S
C900 N908 1.356 . S
C901 C900 1.363 . S
C901 C907 1.363 . S
C902 C903 1.363 . S
C902 C907 1.379 . S
C902 N909 1.356 . S
C903 C902 1.363 . S
C903 C906 1.363 . S
N904 C906 1.356 . S
N904 H916 0.984 . S
N904 H917 0.985 . S
N905 C907 1.356 . S
N905 H910 0.984 . S
N905 H911 0.985 . S
C906 C900 1.379 . S
C906 C903 1.363 . S
C906 N904 1.356 . S
C907 C901 1.363 . S
C907 C902 1.379 . S
C907 N905 1.356 . S
N908 C900 1.356 . S
N908 H914 0.984 . S
N908 H915 0.984 . S
N909 C902 1.356 . S
N909 H912 0.984 . S
N909 H913 0.985 . S
H910 N905 0.984 . S
H911 N905 0.985 . S
H912 N909 0.984 . S
H913 N909 0.985 . S
H914 N908 0.984 . S
H915 N908 0.984 . S
H916 N904 0.984 . S
H917 N904 0.985 . S
C918 C919 1.363 . S
C918 C924 1.379 . S
C918 N926 1.356 . S
C919 C918 1.363 . S
C919 C925 1.363 . S
C920 C921 1.363 . S
C920 C925 1.379 . S
C920 N927 1.356 1_545 S
C921 C920 1.363 . S
C921 C924 1.363 . S
N922 C924 1.356 . S
N922 H934 0.984 . S
N922 H935 0.985 . S
N923 C925 1.356 . S
N923 H928 0.984 . S
N923 H929 0.985 . S
C924 C918 1.379 . S
C924 C921 1.363 . S
C924 N922 1.356 . S
C925 C919 1.363 . S
C925 C920 1.379 . S
C925 N923 1.356 . S
N926 C918 1.356 . S
N926 H932 0.984 . S
N926 H933 0.984 . S
N927 C920 1.356 1_565 S
N927 H930 0.984 . S
N927 H931 0.985 . S
H928 N923 0.984 . S
H929 N923 0.985 . S
H930 N927 0.984 . S
H931 N927 0.985 . S
H932 N926 0.984 . S
H933 N926 0.984 . S
H934 N922 0.984 . S
H935 N922 0.985 . S
C936 C937 1.363 . S
C936 C942 1.379 . S
C936 N944 1.356 . S
C937 C936 1.363 . S
C937 C943 1.363 . S
C938 C939 1.363 . S
C938 C943 1.379 . S
C938 N945 1.356 . S
C939 C938 1.363 . S
C939 C942 1.363 . S
N940 C942 1.356 . S
N940 H952 0.984 . S
N940 H953 0.985 . S
N941 C943 1.356 . S
N941 H946 0.984 . S
N941 H947 0.985 . S
C942 C936 1.379 . S
C942 C939 1.363 . S
C942 N940 1.356 . S
C943 C937 1.363 . S
C943 C938 1.379 . S
C943 N941 1.356 . S
N944 C936 1.356 . S
N944 H950 0.984 . S
N944 H951 0.984 . S
N945 C938 1.356 . S
N945 H948 0.984 . S
N945 H949 0.985 . S
H946 N941 0.984 . S
H947 N941 0.985 . S
H948 N945 0.984 . S
H949 N945 0.985 . S
H950 N944 0.984 . S
H951 N944 0.984 . S
H952 N940 0.984 . S
H953 N940 0.985 . S
C954 C955 1.363 1_545 S
C954 C960 1.379 . S
C954 N962 1.356 . S
C955 C954 1.363 1_565 S
C955 C961 1.363 . S
C956 C957 1.363 . S
C956 C961 1.379 1_545 S
C956 N963 1.356 . S
C957 C956 1.363 . S
C957 C960 1.363 . S
N958 C960 1.356 . S
N958 H970 0.984 . S
N958 H971 0.985 . S
N959 C961 1.356 . S
N959 H964 0.984 . S
N959 H965 0.985 . S
C960 C954 1.379 . S
C960 C957 1.363 . S
C960 N958 1.356 . S
C961 C955 1.363 . S
C961 C956 1.379 1_565 S
C961 N959 1.356 . S
N962 C954 1.356 . S
N962 H968 0.984 . S
N962 H969 0.984 1_545 S
N963 C956 1.356 . S
N963 H966 0.984 . S
N963 H967 0.985 . S
H964 N959 0.984 . S
H965 N959 0.985 . S
H966 N963 0.984 . S
H967 N963 0.985 . S
H968 N962 0.984 . S
H969 N962 0.984 1_565 S
H970 N958 0.984 . S
H971 N958 0.985 . S
C972 C973 1.363 . S
C972 C978 1.379 1_655 S
C972 N980 1.356 . S
C973 C972 1.363 . S
C973 C979 1.363 1_655 S
C974 C975 1.363 . S
C974 C979 1.379 . S
C974 N981 1.356 . S
C975 C974 1.363 . S
C975 C978 1.363 . S
N976 C978 1.356 . S
N976 H988 0.984 . S
N976 H989 0.985 . S
N977 C979 1.356 . S
N977 H982 0.984 1_455 S
N977 H983 0.985 . S
C978 C972 1.379 1_455 S
C978 C975 1.363 . S
C978 N976 1.356 . S
C979 C973 1.363 1_455 S
C979 C974 1.379 . S
C979 N977 1.356 . S
N980 C972 1.356 . S
N980 H986 0.984 . S
N980 H987 0.984 . S
N981 C974 1.356 . S
N981 H984 0.984 . S
N981 H985 0.985 . S
H982 N977 0.984 1_655 S
H983 N977 0.985 . S
H984 N981 0.984 . S
H985 N981 0.985 . S
H986 N980 0.984 . S
H987 N980 0.984 . S
H988 N976 0.984 . S
H989 N976 0.985 . S
C990 C991 1.363 . S
C990 C996 1.379 . S
C990 N998 1.356 . S
C991 C990 1.363 . S
C991 C997 1.363 . S
C992 C993 1.363 . S
C992 C997 1.379 . S
C992 N999 1.356 . S
C993 C992 1.363 . S
C993 C996 1.363 . S
N994 C996 1.356 . S
N994 H1006 0.984 . S
N994 H1007 0.985 . S
N995 C997 1.356 . S
N995 H1000 0.984 . S
N995 H1001 0.985 . S
C996 C990 1.379 . S
C996 C993 1.363 . S
C996 N994 1.356 . S
C997 C991 1.363 . S
C997 C992 1.379 . S
C997 N995 1.356 . S
N998 C990 1.356 . S
N998 H1004 0.984 . S
N998 H1005 0.984 . S
N999 C992 1.356 . S
N999 H1002 0.984 . S
N999 H1003 0.985 . S
H1000 N995 0.984 . S
H1001 N995 0.985 . S
H1002 N999 0.984 . S
H1003 N999 0.985 . S
H1004 N998 0.984 . S
H1005 N998 0.984 . S
H1006 N994 0.984 . S
H1007 N994 0.985 . S
C1008 C1009 1.363 . S
C1008 C1014 1.379 1_565 S
C1008 N1016 1.356 . S
C1009 C1008 1.363 . S
C1009 C1015 1.363 1_565 S
C1010 C1011 1.363 . S
C1010 C1015 1.379 . S
C1010 N1017 1.356 . S
C1011 C1010 1.363 . S
C1011 C1014 1.363 . S
N1012 C1014 1.356 . S
N1012 H1024 0.984 . S
N1012 H1025 0.985 . S
N1013 C1015 1.357 . S
N1013 H1018 0.980 1_545 S
N1013 H1019 0.988 . S
C1014 C1008 1.379 1_545 S
C1014 C1011 1.363 . S
C1014 N1012 1.356 . S
C1015 C1009 1.363 1_545 S
C1015 C1010 1.379 . S
C1015 N1013 1.357 . S
N1016 C1008 1.356 . S
N1016 H1022 0.984 . S
N1016 H1023 0.984 . S
N1017 C1010 1.356 . S
N1017 H1020 0.984 . S
N1017 H1021 0.985 . S
H1018 N1013 0.980 1_565 S
H1019 N1013 0.988 . S
H1020 N1017 0.984 . S
H1021 N1017 0.985 . S
H1022 N1016 0.984 . S
H1023 N1016 0.984 . S
H1024 N1012 0.984 . S
H1025 N1012 0.985 . S
C1026 C1027 1.363 . S
C1026 C1032 1.379 1_655 S
C1026 N1034 1.356 . S
C1027 C1026 1.363 . S
C1027 C1033 1.363 1_655 S
C1028 C1029 1.363 . S
C1028 C1033 1.379 . S
C1028 N1035 1.356 . S
C1029 C1028 1.363 . S
C1029 C1032 1.363 . S
N1030 C1032 1.356 . S
N1030 H1042 0.984 . S
N1030 H1043 0.985 . S
N1031 C1033 1.356 . S
N1031 H1036 0.984 1_455 S
N1031 H1037 0.985 . S
C1032 C1026 1.379 1_455 S
C1032 C1029 1.363 . S
C1032 N1030 1.356 . S
C1033 C1027 1.363 1_455 S
C1033 C1028 1.379 . S
C1033 N1031 1.356 . S
N1034 C1026 1.356 . S
N1034 H1040 0.984 . S
N1034 H1041 0.984 . S
N1035 C1028 1.356 . S
N1035 H1038 0.984 . S
N1035 H1039 0.985 . S
H1036 N1031 0.984 1_655 S
H1037 N1031 0.985 . S
H1038 N1035 0.984 . S
H1039 N1035 0.985 . S
H1040 N1034 0.984 . S
H1041 N1034 0.984 . S
H1042 N1030 0.984 . S
H1043 N1030 0.985 . S
C1044 C1045 1.363 1_565 S
C1044 C1050 1.379 1_554 S
C1044 N1052 1.356 . S
C1045 C1044 1.363 1_545 S
C1045 C1051 1.363 . S
C1046 C1047 1.363 . S
C1046 C1051 1.379 1_556 S
C1046 N1053 1.356 . S
C1047 C1046 1.363 . S
C1047 C1050 1.363 1_545 S
N1048 C1050 1.356 . S
N1048 H1060 0.984 . S
N1048 H1061 0.985 . S
N1049 C1051 1.356 . S
N1049 H1054 0.984 . S
N1049 H1055 0.985 . S
C1050 C1044 1.379 1_556 S
C1050 C1047 1.363 1_565 S
C1050 N1048 1.356 . S
C1051 C1045 1.363 . S
C1051 C1046 1.379 1_554 S
C1051 N1049 1.356 . S
N1052 C1044 1.356 . S
N1052 H1058 0.984 . S
N1052 H1059 0.984 . S
N1053 C1046 1.356 . S
N1053 H1056 0.984 . S
N1053 H1057 0.985 . S
H1054 N1049 0.984 . S
H1055 N1049 0.985 . S
H1056 N1053 0.984 . S
H1057 N1053 0.985 . S
H1058 N1052 0.984 . S
H1059 N1052 0.984 . S
H1060 N1048 0.984 . S
H1061 N1048 0.985 . S
C1062 C1063 1.363 1_655 S
C1062 C1068 1.379 1_556 S
C1062 N1070 1.356 . S
C1063 C1062 1.363 1_455 S
C1063 C1069 1.363 . S
C1064 C1065 1.363 . S
C1064 C1069 1.379 1_554 S
C1064 N1071 1.356 . S
C1065 C1064 1.363 . S
C1065 C1068 1.363 1_455 S
N1066 C1068 1.356 . S
N1066 H1078 0.984 . S
N1066 H1079 0.985 . S
N1067 C1069 1.356 . S
N1067 H1072 0.984 . S
N1067 H1073 0.985 . S
C1068 C1062 1.379 1_554 S
C1068 C1065 1.363 1_655 S
C1068 N1066 1.356 . S
C1069 C1063 1.363 . S
C1069 C1064 1.379 1_556 S
C1069 N1067 1.356 . S
N1070 C1062 1.356 . S
N1070 H1076 0.984 . S
N1070 H1077 0.984 . S
N1071 C1064 1.356 . S
N1071 H1074 0.984 . S
N1071 H1075 0.985 . S
H1072 N1067 0.984 . S
H1073 N1067 0.985 . S
H1074 N1071 0.984 . S
H1075 N1071 0.985 . S
H1076 N1070 0.984 . S
H1077 N1070 0.984 . S
H1078 N1066 0.984 . S
H1079 N1066 0.985 . S
C1080 C1081 1.363 . S
C1080 C1086 1.379 1_554 S
C1080 N1088 1.356 . S
C1081 C1080 1.363 . S
C1081 C1087 1.363 . S
C1082 C1083 1.363 . S
C1082 C1087 1.379 1_556 S
C1082 N1089 1.356 . S
C1083 C1082 1.363 . S
C1083 C1086 1.363 . S
N1084 C1086 1.356 . S
N1084 H1096 0.984 . S
N1084 H1097 0.985 . S
N1085 C1087 1.356 . S
N1085 H1090 0.984 . S
N1085 H1091 0.985 . S
C1086 C1080 1.379 1_556 S
C1086 C1083 1.363 . S
C1086 N1084 1.356 . S
C1087 C1081 1.363 . S
C1087 C1082 1.379 1_554 S
C1087 N1085 1.356 . S
N1088 C1080 1.356 . S
N1088 H1094 0.984 . S
N1088 H1095 0.984 . S
N1089 C1082 1.356 . S
N1089 H1092 0.984 . S
N1089 H1093 0.985 . S
H1090 N1085 0.984 . S
H1091 N1085 0.985 . S
H1092 N1089 0.984 . S
H1093 N1089 0.985 . S
H1094 N1088 0.984 . S
H1095 N1088 0.984 . S
H1096 N1084 0.984 . S
H1097 N1084 0.985 . S
C1098 C1099 1.363 . S
C1098 C1104 1.379 . S
C1098 N1106 1.356 . S
C1099 C1098 1.363 . S
C1099 C1105 1.363 . S
C1100 C1101 1.363 . S
C1100 C1105 1.379 . S
C1100 N1107 1.356 . S
C1101 C1100 1.363 . S
C1101 C1104 1.363 . S
N1102 C1104 1.356 . S
N1102 H1114 0.984 . S
N1102 H1115 0.985 . S
N1103 C1105 1.356 . S
N1103 H1108 0.984 . S
N1103 H1109 0.985 . S
C1104 C1098 1.379 . S
C1104 C1101 1.363 . S
C1104 N1102 1.356 . S
C1105 C1099 1.363 . S
C1105 C1100 1.379 . S
C1105 N1103 1.356 . S
N1106 C1098 1.356 . S
N1106 H1112 0.984 . S
N1106 H1113 0.984 . S
N1107 C1100 1.356 . S
N1107 H1110 0.984 . S
N1107 H1111 0.985 . S
H1108 N1103 0.984 . S
H1109 N1103 0.985 . S
H1110 N1107 0.984 . S
H1111 N1107 0.985 . S
H1112 N1106 0.984 . S
H1113 N1106 0.984 . S
H1114 N1102 0.984 . S
H1115 N1102 0.985 . S
C1116 C1117 1.363 . S
C1116 C1122 1.379 . S
C1116 N1124 1.356 . S
C1117 C1116 1.363 . S
C1117 C1123 1.363 . S
C1118 C1119 1.363 . S
C1118 C1123 1.379 . S
C1118 N1125 1.356 . S
C1119 C1118 1.363 . S
C1119 C1122 1.363 . S
N1120 C1122 1.356 . S
N1120 H1132 0.984 . S
N1120 H1133 0.985 . S
N1121 C1123 1.356 . S
N1121 H1126 0.984 . S
N1121 H1127 0.985 . S
C1122 C1116 1.379 . S
C1122 C1119 1.363 . S
C1122 N1120 1.356 . S
C1123 C1117 1.363 . S
C1123 C1118 1.379 . S
C1123 N1121 1.356 . S
N1124 C1116 1.356 . S
N1124 H1130 0.984 . S
N1124 H1131 0.984 . S
N1125 C1118 1.356 . S
N1125 H1128 0.984 . S
N1125 H1129 0.985 . S
H1126 N1121 0.984 . S
H1127 N1121 0.985 . S
H1128 N1125 0.984 . S
H1129 N1125 0.985 . S
H1130 N1124 0.984 . S
H1131 N1124 0.984 . S
H1132 N1120 0.984 . S
H1133 N1120 0.985 . S
C1134 C1135 1.363 1_565 S
C1134 C1140 1.379 . S
C1134 N1142 1.356 . S
C1135 C1134 1.363 1_545 S
C1135 C1141 1.363 . S
C1136 C1137 1.363 . S
C1136 C1141 1.379 . S
C1136 N1143 1.356 . S
C1137 C1136 1.363 . S
C1137 C1140 1.363 1_545 S
N1138 C1140 1.356 . S
N1138 H1150 0.984 . S
N1138 H1151 0.985 . S
N1139 C1141 1.356 . S
N1139 H1144 0.984 . S
N1139 H1145 0.985 . S
C1140 C1134 1.379 . S
C1140 C1137 1.363 1_565 S
C1140 N1138 1.356 . S
C1141 C1135 1.363 . S
C1141 C1136 1.379 . S
C1141 N1139 1.356 . S
N1142 C1134 1.356 . S
N1142 H1148 0.984 . S
N1142 H1149 0.984 . S
N1143 C1136 1.356 . S
N1143 H1146 0.984 . S
N1143 H1147 0.985 . S
H1144 N1139 0.984 . S
H1145 N1139 0.985 . S
H1146 N1143 0.984 . S
H1147 N1143 0.985 . S
H1148 N1142 0.984 . S
H1149 N1142 0.984 . S
H1150 N1138 0.984 . S
H1151 N1138 0.985 . S
C1152 C1153 1.363 . S
C1152 C1158 1.379 . S
C1152 N1160 1.356 . S
C1153 C1152 1.363 . S
C1153 C1159 1.363 . S
C1154 C1155 1.363 . S
C1154 C1159 1.379 . S
C1154 N1161 1.356 . S
C1155 C1154 1.363 . S
C1155 C1158 1.363 . S
N1156 C1158 1.356 . S
N1156 H1168 0.984 . S
N1156 H1169 0.985 . S
N1157 C1159 1.356 . S
N1157 H1162 0.984 . S
N1157 H1163 0.985 . S
C1158 C1152 1.379 . S
C1158 C1155 1.363 . S
C1158 N1156 1.356 . S
C1159 C1153 1.363 . S
C1159 C1154 1.379 . S
C1159 N1157 1.356 . S
N1160 C1152 1.356 . S
N1160 H1166 0.984 . S
N1160 H1167 0.984 . S
N1161 C1154 1.356 . S
N1161 H1164 0.984 . S
N1161 H1165 0.985 . S
H1162 N1157 0.984 . S
H1163 N1157 0.985 . S
H1164 N1161 0.984 . S
H1165 N1161 0.985 . S
H1166 N1160 0.984 . S
H1167 N1160 0.984 . S
H1168 N1156 0.984 . S
H1169 N1156 0.985 . S
C1170 C1171 1.363 . S
C1170 C1176 1.379 . S
C1170 N1178 1.356 . S
C1171 C1170 1.363 . S
C1171 C1177 1.363 . S
C1172 C1173 1.363 . S
C1172 C1177 1.379 . S
C1172 N1179 1.356 . S
C1173 C1172 1.363 . S
C1173 C1176 1.363 . S
N1174 C1176 1.356 . S
N1174 H1186 0.984 . S
N1174 H1187 0.985 . S
N1175 C1177 1.356 . S
N1175 H1180 0.984 . S
N1175 H1181 0.985 . S
C1176 C1170 1.379 . S
C1176 C1173 1.363 . S
C1176 N1174 1.356 . S
C1177 C1171 1.363 . S
C1177 C1172 1.379 . S
C1177 N1175 1.356 . S
N1178 C1170 1.356 . S
N1178 H1184 0.984 . S
N1178 H1185 0.984 . S
N1179 C1172 1.356 . S
N1179 H1182 0.984 . S
N1179 H1183 0.985 . S
H1180 N1175 0.984 . S
H1181 N1175 0.985 . S
H1182 N1179 0.984 . S
H1183 N1179 0.985 . S
H1184 N1178 0.984 . S
H1185 N1178 0.984 . S
H1186 N1174 0.984 . S
H1187 N1174 0.985 . S
C1188 C1189 1.363 . S
C1188 C1194 1.379 . S
C1188 N1196 1.356 . S
C1189 C1188 1.363 . S
C1189 C1195 1.363 . S
C1190 C1191 1.363 . S
C1190 C1195 1.379 . S
C1190 N1197 1.356 . S
C1191 C1190 1.363 . S
C1191 C1194 1.363 . S
N1192 C1194 1.356 . S
N1192 H1204 0.984 . S
N1192 H1205 0.985 . S
N1193 C1195 1.356 . S
N1193 H1198 0.984 . S
N1193 H1199 0.985 . S
C1194 C1188 1.379 . S
C1194 C1191 1.363 . S
C1194 N1192 1.356 . S
C1195 C1189 1.363 . S
C1195 C1190 1.379 . S
C1195 N1193 1.356 . S
N1196 C1188 1.356 . S
N1196 H1202 0.984 . S
N1196 H1203 0.984 . S
N1197 C1190 1.356 . S
N1197 H1200 0.984 . S
N1197 H1201 0.985 . S
H1198 N1193 0.984 . S
H1199 N1193 0.985 . S
H1200 N1197 0.984 . S
H1201 N1197 0.985 . S
H1202 N1196 0.984 . S
H1203 N1196 0.984 . S
H1204 N1192 0.984 . S
H1205 N1192 0.985 . S
C1206 C1207 1.363 . S
C1206 C1212 1.379 . S
C1206 N1214 1.356 . S
C1207 C1206 1.363 . S
C1207 C1213 1.363 . S
C1208 C1209 1.363 . S
C1208 C1213 1.379 . S
C1208 N1215 1.356 . S
C1209 C1208 1.363 . S
C1209 C1212 1.363 . S
N1210 C1212 1.356 . S
N1210 H1222 0.984 . S
N1210 H1223 0.985 . S
N1211 C1213 1.356 . S
N1211 H1216 0.984 . S
N1211 H1217 0.985 . S
C1212 C1206 1.379 . S
C1212 C1209 1.363 . S
C1212 N1210 1.356 . S
C1213 C1207 1.363 . S
C1213 C1208 1.379 . S
C1213 N1211 1.356 . S
N1214 C1206 1.356 . S
N1214 H1220 0.984 . S
N1214 H1221 0.984 . S
N1215 C1208 1.356 . S
N1215 H1218 0.984 . S
N1215 H1219 0.985 . S
H1216 N1211 0.984 . S
H1217 N1211 0.985 . S
H1218 N1215 0.984 . S
H1219 N1215 0.985 . S
H1220 N1214 0.984 . S
H1221 N1214 0.984 . S
H1222 N1210 0.984 . S
H1223 N1210 0.985 . S
C1224 C1225 1.363 . S
C1224 C1230 1.379 . S
C1224 N1232 1.356 . S
C1225 C1224 1.363 . S
C1225 C1231 1.363 . S
C1226 C1227 1.363 . S
C1226 C1231 1.379 . S
C1226 N1233 1.356 . S
C1227 C1226 1.363 . S
C1227 C1230 1.363 . S
N1228 C1230 1.356 . S
N1228 H1240 0.984 . S
N1228 H1241 0.985 . S
N1229 C1231 1.356 . S
N1229 H1234 0.984 . S
N1229 H1235 0.985 . S
C1230 C1224 1.379 . S
C1230 C1227 1.363 . S
C1230 N1228 1.356 . S
C1231 C1225 1.363 . S
C1231 C1226 1.379 . S
C1231 N1229 1.356 . S
N1232 C1224 1.356 . S
N1232 H1238 0.984 . S
N1232 H1239 0.984 . S
N1233 C1226 1.356 . S
N1233 H1236 0.984 . S
N1233 H1237 0.985 . S
H1234 N1229 0.984 . S
H1235 N1229 0.985 . S
H1236 N1233 0.984 . S
H1237 N1233 0.985 . S
H1238 N1232 0.984 . S
H1239 N1232 0.984 . S
H1240 N1228 0.984 . S
H1241 N1228 0.985 . S
C1242 C1243 1.363 . S
C1242 C1248 1.379 . S
C1242 N1250 1.356 . S
C1243 C1242 1.363 . S
C1243 C1249 1.363 . S
C1244 C1245 1.363 . S
C1244 C1249 1.379 . S
C1244 N1251 1.356 . S
C1245 C1244 1.363 . S
C1245 C1248 1.363 . S
N1246 C1248 1.356 . S
N1246 H1258 0.984 . S
N1246 H1259 0.985 . S
N1247 C1249 1.356 . S
N1247 H1252 0.984 . S
N1247 H1253 0.985 . S
C1248 C1242 1.379 . S
C1248 C1245 1.363 . S
C1248 N1246 1.356 . S
C1249 C1243 1.363 . S
C1249 C1244 1.379 . S
C1249 N1247 1.356 . S
N1250 C1242 1.356 . S
N1250 H1256 0.984 . S
N1250 H1257 0.984 . S
N1251 C1244 1.356 . S
N1251 H1254 0.984 . S
N1251 H1255 0.985 . S
H1252 N1247 0.984 . S
H1253 N1247 0.985 . S
H1254 N1251 0.984 . S
H1255 N1251 0.985 . S
H1256 N1250 0.984 . S
H1257 N1250 0.984 . S
H1258 N1246 0.984 . S
H1259 N1246 0.985 . S
C1260 C1261 1.363 . S
C1260 C1266 1.379 . S
C1260 N1268 1.356 . S
C1261 C1260 1.363 . S
C1261 C1267 1.363 . S
C1262 C1263 1.363 . S
C1262 C1267 1.379 . S
C1262 N1269 1.356 . S
C1263 C1262 1.363 . S
C1263 C1266 1.363 . S
N1264 C1266 1.356 . S
N1264 H1276 0.984 . S
N1264 H1277 0.985 . S
N1265 C1267 1.356 . S
N1265 H1270 0.984 . S
N1265 H1271 0.985 . S
C1266 C1260 1.379 . S
C1266 C1263 1.363 . S
C1266 N1264 1.356 . S
C1267 C1261 1.363 . S
C1267 C1262 1.379 . S
C1267 N1265 1.356 . S
N1268 C1260 1.356 . S
N1268 H1274 0.984 . S
N1268 H1275 0.984 . S
N1269 C1262 1.356 . S
N1269 H1272 0.984 . S
N1269 H1273 0.985 . S
H1270 N1265 0.984 . S
H1271 N1265 0.985 . S
H1272 N1269 0.984 . S
H1273 N1269 0.985 . S
H1274 N1268 0.984 . S
H1275 N1268 0.984 . S
H1276 N1264 0.984 . S
H1277 N1264 0.985 . S
C1278 C1279 1.363 . S
C1278 C1284 1.379 . S
C1278 N1286 1.356 . S
C1279 C1278 1.363 . S
C1279 C1285 1.363 . S
C1280 C1281 1.363 . S
C1280 C1285 1.379 . S
C1280 N1287 1.356 . S
C1281 C1280 1.363 . S
C1281 C1284 1.363 . S
N1282 C1284 1.356 . S
N1282 H1294 0.984 . S
N1282 H1295 0.985 . S
N1283 C1285 1.356 . S
N1283 H1288 0.984 . S
N1283 H1289 0.985 . S
C1284 C1278 1.379 . S
C1284 C1281 1.363 . S
C1284 N1282 1.356 . S
C1285 C1279 1.363 . S
C1285 C1280 1.379 . S
C1285 N1283 1.356 . S
N1286 C1278 1.356 . S
N1286 H1292 0.984 . S
N1286 H1293 0.984 . S
N1287 C1280 1.356 . S
N1287 H1290 0.984 . S
N1287 H1291 0.985 . S
H1288 N1283 0.984 . S
H1289 N1283 0.985 . S
H1290 N1287 0.984 . S
H1291 N1287 0.985 . S
H1292 N1286 0.984 . S
H1293 N1286 0.984 . S
H1294 N1282 0.984 . S
H1295 N1282 0.985 . S
C1296 C1297 1.363 . S
C1296 C1302 1.379 . S
C1296 N1304 1.356 . S
C1297 C1296 1.363 . S
C1297 C1303 1.363 . S
C1298 C1299 1.363 . S
C1298 C1303 1.379 . S
C1298 N1305 1.356 . S
C1299 C1298 1.363 . S
C1299 C1302 1.363 . S
N1300 C1302 1.356 . S
N1300 H1312 0.984 . S
N1300 H1313 0.985 . S
N1301 C1303 1.356 . S
N1301 H1306 0.984 . S
N1301 H1307 0.985 . S
C1302 C1296 1.379 . S
C1302 C1299 1.363 . S
C1302 N1300 1.356 . S
C1303 C1297 1.363 . S
C1303 C1298 1.379 . S
C1303 N1301 1.356 . S
N1304 C1296 1.356 . S
N1304 H1310 0.984 . S
N1304 H1311 0.984 . S
N1305 C1298 1.356 . S
N1305 H1308 0.984 . S
N1305 H1309 0.985 . S
H1306 N1301 0.984 . S
H1307 N1301 0.985 . S
H1308 N1305 0.984 . S
H1309 N1305 0.985 . S
H1310 N1304 0.984 . S
H1311 N1304 0.984 . S
H1312 N1300 0.984 . S
H1313 N1300 0.985 . S
C1314 C1315 1.363 . S
C1314 C1320 1.379 . S
C1314 N1322 1.356 . S
C1315 C1314 1.363 . S
C1315 C1321 1.363 . S
C1316 C1317 1.363 . S
C1316 C1321 1.379 . S
C1316 N1323 1.356 . S
C1317 C1316 1.363 . S
C1317 C1320 1.363 . S
N1318 C1320 1.356 . S
N1318 H1330 0.984 . S
N1318 H1331 0.985 . S
N1319 C1321 1.356 . S
N1319 H1324 0.984 . S
N1319 H1325 0.985 . S
C1320 C1314 1.379 . S
C1320 C1317 1.363 . S
C1320 N1318 1.356 . S
C1321 C1315 1.363 . S
C1321 C1316 1.379 . S
C1321 N1319 1.356 . S
N1322 C1314 1.356 . S
N1322 H1328 0.984 . S
N1322 H1329 0.984 . S
N1323 C1316 1.356 . S
N1323 H1326 0.984 . S
N1323 H1327 0.985 . S
H1324 N1319 0.984 . S
H1325 N1319 0.985 . S
H1326 N1323 0.984 . S
H1327 N1323 0.985 . S
H1328 N1322 0.984 . S
H1329 N1322 0.984 . S
H1330 N1318 0.984 . S
H1331 N1318 0.985 . S
C1332 C1333 1.363 . S
C1332 C1338 1.379 . S
C1332 N1340 1.356 . S
C1333 C1332 1.363 . S
C1333 C1339 1.363 . S
C1334 C1335 1.363 . S
C1334 C1339 1.379 . S
C1334 N1341 1.356 . S
C1335 C1334 1.363 . S
C1335 C1338 1.363 . S
N1336 C1338 1.356 . S
N1336 H1348 0.984 . S
N1336 H1349 0.985 . S
N1337 C1339 1.356 . S
N1337 H1342 0.984 . S
N1337 H1343 0.985 . S
C1338 C1332 1.379 . S
C1338 C1335 1.363 . S
C1338 N1336 1.356 . S
C1339 C1333 1.363 . S
C1339 C1334 1.379 . S
C1339 N1337 1.356 . S
N1340 C1332 1.356 . S
N1340 H1346 0.984 . S
N1340 H1347 0.984 . S
N1341 C1334 1.356 . S
N1341 H1344 0.984 . S
N1341 H1345 0.985 . S
H1342 N1337 0.984 . S
H1343 N1337 0.985 . S
H1344 N1341 0.984 . S
H1345 N1341 0.985 . S
H1346 N1340 0.984 . S
H1347 N1340 0.984 . S
H1348 N1336 0.984 . S
H1349 N1336 0.985 . S
C1350 C1351 1.363 . S
C1350 C1356 1.379 . S
C1350 N1358 1.356 . S
C1351 C1350 1.363 . S
C1351 C1357 1.363 . S
C1352 C1353 1.363 . S
C1352 C1357 1.379 . S
C1352 N1359 1.356 . S
C1353 C1352 1.363 . S
C1353 C1356 1.363 . S
N1354 C1356 1.356 . S
N1354 H1366 0.984 . S
N1354 H1367 0.985 . S
N1355 C1357 1.356 . S
N1355 H1360 0.984 . S
N1355 H1361 0.985 . S
C1356 C1350 1.379 . S
C1356 C1353 1.363 . S
C1356 N1354 1.356 . S
C1357 C1351 1.363 . S
C1357 C1352 1.379 . S
C1357 N1355 1.356 . S
N1358 C1350 1.356 . S
N1358 H1364 0.984 . S
N1358 H1365 0.984 . S
N1359 C1352 1.356 . S
N1359 H1362 0.984 . S
N1359 H1363 0.985 . S
H1360 N1355 0.984 . S
H1361 N1355 0.985 . S
H1362 N1359 0.984 . S
H1363 N1359 0.985 . S
H1364 N1358 0.984 . S
H1365 N1358 0.984 . S
H1366 N1354 0.984 . S
H1367 N1354 0.985 . S
C1368 C1369 1.363 . S
C1368 C1374 1.379 . S
C1368 N1376 1.356 . S
C1369 C1368 1.363 . S
C1369 C1375 1.363 . S
C1370 C1371 1.363 . S
C1370 C1375 1.379 . S
C1370 N1377 1.356 . S
C1371 C1370 1.363 . S
C1371 C1374 1.363 . S
N1372 C1374 1.356 . S
N1372 H1384 0.984 . S
N1372 H1385 0.985 . S
N1373 C1375 1.356 . S
N1373 H1378 0.984 . S
N1373 H1379 0.985 . S
C1374 C1368 1.379 . S
C1374 C1371 1.363 . S
C1374 N1372 1.356 . S
C1375 C1369 1.363 . S
C1375 C1370 1.379 . S
C1375 N1373 1.356 . S
N1376 C1368 1.356 . S
N1376 H1382 0.984 . S
N1376 H1383 0.984 . S
N1377 C1370 1.356 . S
N1377 H1380 0.984 . S
N1377 H1381 0.985 . S
H1378 N1373 0.984 . S
H1379 N1373 0.985 . S
H1380 N1377 0.984 . S
H1381 N1377 0.985 . S
H1382 N1376 0.984 . S
H1383 N1376 0.984 . S
H1384 N1372 0.984 . S
H1385 N1372 0.985 . S
C1386 C1387 1.363 . S
C1386 C1392 1.379 . S
C1386 N1394 1.356 . S
C1387 C1386 1.363 . S
C1387 C1393 1.363 . S
C1388 C1389 1.363 . S
C1388 C1393 1.379 . S
C1388 N1395 1.356 . S
C1389 C1388 1.363 . S
C1389 C1392 1.363 . S
N1390 C1392 1.356 . S
N1390 H1402 0.984 . S
N1390 H1403 0.985 . S
N1391 C1393 1.356 . S
N1391 H1396 0.984 . S
N1391 H1397 0.985 . S
C1392 C1386 1.379 . S
C1392 C1389 1.363 . S
C1392 N1390 1.356 . S
C1393 C1387 1.363 . S
C1393 C1388 1.379 . S
C1393 N1391 1.356 . S
N1394 C1386 1.356 . S
N1394 H1400 0.984 . S
N1394 H1401 0.984 . S
N1395 C1388 1.356 . S
N1395 H1398 0.984 . S
N1395 H1399 0.985 . S
H1396 N1391 0.984 . S
H1397 N1391 0.985 . S
H1398 N1395 0.984 . S
H1399 N1395 0.985 . S
H1400 N1394 0.984 . S
H1401 N1394 0.984 . S
H1402 N1390 0.984 . S
H1403 N1390 0.985 . S
C1404 C1405 1.363 . S
C1404 C1410 1.379 . S
C1404 N1412 1.356 . S
C1405 C1404 1.363 . S
C1405 C1411 1.363 . S
C1406 C1407 1.363 . S
C1406 C1411 1.379 . S
C1406 N1413 1.356 . S
C1407 C1406 1.363 . S
C1407 C1410 1.363 . S
N1408 C1410 1.356 . S
N1408 H1420 0.984 . S
N1408 H1421 0.985 . S
N1409 C1411 1.356 . S
N1409 H1414 0.984 . S
N1409 H1415 0.985 . S
C1410 C1404 1.379 . S
C1410 C1407 1.363 . S
C1410 N1408 1.356 . S
C1411 C1405 1.363 . S
C1411 C1406 1.379 . S
C1411 N1409 1.356 . S
N1412 C1404 1.356 . S
N1412 H1418 0.984 . S
N1412 H1419 0.984 . S
N1413 C1406 1.356 . S
N1413 H1416 0.984 . S
N1413 H1417 0.985 . S
H1414 N1409 0.984 . S
H1415 N1409 0.985 . S
H1416 N1413 0.984 . S
H1417 N1413 0.985 . S
H1418 N1412 0.984 . S
H1419 N1412 0.984 . S
H1420 N1408 0.984 . S
H1421 N1408 0.985 . S
C1422 C1423 1.363 . S
C1422 C1428 1.379 . S
C1422 N1430 1.356 . S
C1423 C1422 1.363 . S
C1423 C1429 1.363 . S
C1424 C1425 1.363 . S
C1424 C1429 1.379 . S
C1424 N1431 1.356 . S
C1425 C1424 1.363 . S
C1425 C1428 1.363 . S
N1426 C1428 1.356 . S
N1426 H1438 0.984 . S
N1426 H1439 0.985 . S
N1427 C1429 1.356 . S
N1427 H1432 0.984 . S
N1427 H1433 0.985 . S
C1428 C1422 1.379 . S
C1428 C1425 1.363 . S
C1428 N1426 1.356 . S
C1429 C1423 1.363 . S
C1429 C1424 1.379 . S
C1429 N1427 1.356 . S
N1430 C1422 1.356 . S
N1430 H1436 0.984 . S
N1430 H1437 0.984 . S
N1431 C1424 1.356 . S
N1431 H1434 0.984 . S
N1431 H1435 0.985 . S
H1432 N1427 0.984 . S
H1433 N1427 0.985 . S
H1434 N1431 0.984 . S
H1435 N1431 0.985 . S
H1436 N1430 0.984 . S
H1437 N1430 0.984 . S
H1438 N1426 0.984 . S
H1439 N1426 0.985 . S
C1440 C1441 1.363 . S
C1440 C1446 1.379 . S
C1440 N1448 1.356 . S
C1441 C1440 1.363 . S
C1441 C1447 1.363 . S
C1442 C1443 1.363 . S
C1442 C1447 1.379 . S
C1442 N1449 1.356 . S
C1443 C1442 1.363 . S
C1443 C1446 1.363 . S
N1444 C1446 1.356 . S
N1444 H1456 0.984 . S
N1444 H1457 0.985 . S
N1445 C1447 1.356 . S
N1445 H1450 0.984 . S
N1445 H1451 0.985 . S
C1446 C1440 1.379 . S
C1446 C1443 1.363 . S
C1446 N1444 1.356 . S
C1447 C1441 1.363 . S
C1447 C1442 1.379 . S
C1447 N1445 1.356 . S
N1448 C1440 1.356 . S
N1448 H1454 0.984 . S
N1448 H1455 0.984 . S
N1449 C1442 1.356 . S
N1449 H1452 0.984 . S
N1449 H1453 0.985 . S
H1450 N1445 0.984 . S
H1451 N1445 0.985 . S
H1452 N1449 0.984 . S
H1453 N1449 0.985 . S
H1454 N1448 0.984 . S
H1455 N1448 0.984 . S
H1456 N1444 0.984 . S
H1457 N1444 0.985 . S
C1458 C1459 1.363 . S
C1458 C1464 1.379 . S
C1458 N1466 1.356 . S
C1459 C1458 1.363 . S
C1459 C1465 1.363 . S
C1460 C1461 1.363 . S
C1460 C1465 1.379 . S
C1460 N1467 1.356 . S
C1461 C1460 1.363 . S
C1461 C1464 1.363 . S
N1462 C1464 1.356 . S
N1462 H1474 0.984 . S
N1462 H1475 0.985 . S
N1463 C1465 1.356 . S
N1463 H1468 0.984 . S
N1463 H1469 0.985 . S
C1464 C1458 1.379 . S
C1464 C1461 1.363 . S
C1464 N1462 1.356 . S
C1465 C1459 1.363 . S
C1465 C1460 1.379 . S
C1465 N1463 1.356 . S
N1466 C1458 1.356 . S
N1466 H1472 0.984 . S
N1466 H1473 0.984 . S
N1467 C1460 1.356 . S
N1467 H1470 0.984 . S
N1467 H1471 0.985 . S
H1468 N1463 0.984 . S
H1469 N1463 0.985 . S
H1470 N1467 0.984 . S
H1471 N1467 0.985 . S
H1472 N1466 0.984 . S
H1473 N1466 0.984 . S
H1474 N1462 0.984 . S
H1475 N1462 0.985 . S
C1476 C1477 1.363 . S
C1476 C1482 1.379 . S
C1476 N1484 1.356 . S
C1477 C1476 1.363 . S
C1477 C1483 1.363 . S
C1478 C1479 1.363 . S
C1478 C1483 1.379 . S
C1478 N1485 1.356 . S
C1479 C1478 1.363 . S
C1479 C1482 1.363 . S
N1480 C1482 1.356 . S
N1480 H1492 0.984 . S
N1480 H1493 0.985 . S
N1481 C1483 1.356 . S
N1481 H1486 0.984 . S
N1481 H1487 0.985 . S
C1482 C1476 1.379 . S
C1482 C1479 1.363 . S
C1482 N1480 1.356 . S
C1483 C1477 1.363 . S
C1483 C1478 1.379 . S
C1483 N1481 1.356 . S
N1484 C1476 1.356 . S
N1484 H1490 0.984 . S
N1484 H1491 0.984 . S
N1485 C1478 1.356 . S
N1485 H1488 0.984 . S
N1485 H1489 0.985 . S
H1486 N1481 0.984 . S
H1487 N1481 0.985 . S
H1488 N1485 0.984 . S
H1489 N1485 0.985 . S
H1490 N1484 0.984 . S
H1491 N1484 0.984 . S
H1492 N1480 0.984 . S
H1493 N1480 0.985 . S
C1494 C1495 1.363 . S
C1494 C1500 1.379 . S
C1494 N1502 1.356 . S
C1495 C1494 1.363 . S
C1495 C1501 1.363 . S
C1496 C1497 1.363 . S
C1496 C1501 1.379 . S
C1496 N1503 1.356 . S
C1497 C1496 1.363 . S
C1497 C1500 1.363 . S
N1498 C1500 1.356 . S
N1498 H1510 0.984 . S
N1498 H1511 0.985 . S
N1499 C1501 1.356 . S
N1499 H1504 0.984 . S
N1499 H1505 0.985 . S
C1500 C1494 1.379 . S
C1500 C1497 1.363 . S
C1500 N1498 1.356 . S
C1501 C1495 1.363 . S
C1501 C1496 1.379 . S
C1501 N1499 1.356 . S
N1502 C1494 1.356 . S
N1502 H1508 0.984 . S
N1502 H1509 0.984 . S
N1503 C1496 1.356 . S
N1503 H1506 0.984 . S
N1503 H1507 0.985 . S
H1504 N1499 0.984 . S
H1505 N1499 0.985 . S
H1506 N1503 0.984 . S
H1507 N1503 0.985 . S
H1508 N1502 0.984 . S
H1509 N1502 0.984 . S
H1510 N1498 0.984 . S
H1511 N1498 0.985 . S
C1512 C1513 1.363 . S
C1512 C1518 1.379 . S
C1512 N1520 1.356 . S
C1513 C1512 1.363 . S
C1513 C1519 1.363 . S
C1514 C1515 1.363 . S
C1514 C1519 1.379 . S
C1514 N1521 1.356 . S
C1515 C1514 1.363 . S
C1515 C1518 1.363 . S
N1516 C1518 1.356 . S
N1516 H1528 0.984 . S
N1516 H1529 0.985 . S
N1517 C1519 1.356 . S
N1517 H1522 0.984 . S
N1517 H1523 0.985 . S
C1518 C1512 1.379 . S
C1518 C1515 1.363 . S
C1518 N1516 1.356 . S
C1519 C1513 1.363 . S
C1519 C1514 1.379 . S
C1519 N1517 1.356 . S
N1520 C1512 1.356 . S
N1520 H1526 0.984 . S
N1520 H1527 0.984 . S
N1521 C1514 1.356 . S
N1521 H1524 0.984 . S
N1521 H1525 0.985 . S
H1522 N1517 0.984 . S
H1523 N1517 0.985 . S
H1524 N1521 0.984 . S
H1525 N1521 0.985 . S
H1526 N1520 0.984 . S
H1527 N1520 0.984 . S
H1528 N1516 0.984 . S
H1529 N1516 0.985 . S
C1530 C1531 1.363 . S
C1530 C1536 1.379 . S
C1530 N1538 1.356 . S
C1531 C1530 1.363 . S
C1531 C1537 1.363 . S
C1532 C1533 1.363 . S
C1532 C1537 1.379 . S
C1532 N1539 1.356 . S
C1533 C1532 1.363 . S
C1533 C1536 1.363 . S
N1534 C1536 1.356 . S
N1534 H1546 0.984 . S
N1534 H1547 0.985 . S
N1535 C1537 1.356 . S
N1535 H1540 0.984 . S
N1535 H1541 0.985 . S
C1536 C1530 1.379 . S
C1536 C1533 1.363 . S
C1536 N1534 1.356 . S
C1537 C1531 1.363 . S
C1537 C1532 1.379 . S
C1537 N1535 1.356 . S
N1538 C1530 1.356 . S
N1538 H1544 0.984 . S
N1538 H1545 0.984 . S
N1539 C1532 1.356 . S
N1539 H1542 0.984 . S
N1539 H1543 0.985 . S
H1540 N1535 0.984 . S
H1541 N1535 0.985 . S
H1542 N1539 0.984 . S
H1543 N1539 0.985 . S
H1544 N1538 0.984 . S
H1545 N1538 0.984 . S
H1546 N1534 0.984 . S
H1547 N1534 0.985 . S
C1548 C1549 1.363 . S
C1548 C1554 1.379 . S
C1548 N1556 1.356 . S
C1549 C1548 1.363 . S
C1549 C1555 1.363 . S
C1550 C1551 1.363 . S
C1550 C1555 1.379 . S
C1550 N1557 1.356 . S
C1551 C1550 1.363 . S
C1551 C1554 1.363 . S
N1552 C1554 1.356 . S
N1552 H1564 0.984 . S
N1552 H1565 0.985 . S
N1553 C1555 1.356 . S
N1553 H1558 0.984 . S
N1553 H1559 0.985 . S
C1554 C1548 1.379 . S
C1554 C1551 1.363 . S
C1554 N1552 1.356 . S
C1555 C1549 1.363 . S
C1555 C1550 1.379 . S
C1555 N1553 1.356 . S
N1556 C1548 1.356 . S
N1556 H1562 0.984 . S
N1556 H1563 0.984 . S
N1557 C1550 1.356 . S
N1557 H1560 0.984 . S
N1557 H1561 0.985 . S
H1558 N1553 0.984 . S
H1559 N1553 0.985 . S
H1560 N1557 0.984 . S
H1561 N1557 0.985 . S
H1562 N1556 0.984 . S
H1563 N1556 0.984 . S
H1564 N1552 0.984 . S
H1565 N1552 0.985 . S
C1566 C1567 1.363 . S
C1566 C1572 1.379 . S
C1566 N1574 1.356 . S
C1567 C1566 1.363 . S
C1567 C1573 1.363 . S
C1568 C1569 1.363 . S
C1568 C1573 1.379 . S
C1568 N1575 1.356 . S
C1569 C1568 1.363 . S
C1569 C1572 1.363 . S
N1570 C1572 1.356 . S
N1570 H1582 0.984 . S
N1570 H1583 0.985 . S
N1571 C1573 1.356 . S
N1571 H1576 0.984 . S
N1571 H1577 0.985 . S
C1572 C1566 1.379 . S
C1572 C1569 1.363 . S
C1572 N1570 1.356 . S
C1573 C1567 1.363 . S
C1573 C1568 1.379 . S
C1573 N1571 1.356 . S
N1574 C1566 1.356 . S
N1574 H1580 0.984 . S
N1574 H1581 0.984 . S
N1575 C1568 1.356 . S
N1575 H1578 0.984 . S
N1575 H1579 0.985 . S
H1576 N1571 0.984 . S
H1577 N1571 0.985 . S
H1578 N1575 0.984 . S
H1579 N1575 0.985 . S
H1580 N1574 0.984 . S
H1581 N1574 0.984 . S
H1582 N1570 0.984 . S
H1583 N1570 0.985 . S
C1584 C1585 1.363 . S
C1584 C1590 1.379 . S
C1584 N1592 1.356 . S
C1585 C1584 1.363 . S
C1585 C1591 1.363 . S
C1586 C1587 1.363 . S
C1586 C1591 1.379 . S
C1586 N1593 1.356 . S
C1587 C1586 1.363 . S
C1587 C1590 1.363 . S
N1588 C1590 1.356 . S
N1588 H1600 0.984 . S
N1588 H1601 0.985 . S
N1589 C1591 1.356 1_565 S
N1589 H1594 0.984 . S
N1589 H1595 0.985 . S
C1590 C1584 1.379 . S
C1590 C1587 1.363 . S
C1590 N1588 1.356 . S
C1591 C1585 1.363 . S
C1591 C1586 1.379 . S
C1591 N1589 1.356 1_545 S
N1592 C1584 1.356 . S
N1592 H1598 0.984 . S
N1592 H1599 0.984 . S
N1593 C1586 1.356 . S
N1593 H1596 0.984 . S
N1593 H1597 0.985 . S
H1594 N1589 0.984 . S
H1595 N1589 0.985 . S
H1596 N1593 0.984 . S
H1597 N1593 0.985 . S
H1598 N1592 0.984 . S
H1599 N1592 0.984 . S
H1600 N1588 0.984 . S
H1601 N1588 0.985 . S
C1602 C1603 1.363 1_655 S
C1602 C1608 1.379 . S
C1602 N1610 1.356 . S
C1603 C1602 1.363 1_455 S
C1603 C1609 1.363 . S
C1604 C1605 1.363 . S
C1604 C1609 1.379 1_655 S
C1604 N1611 1.356 . S
C1605 C1604 1.363 . S
C1605 C1608 1.363 . S
N1606 C1608 1.356 . S
N1606 H1618 0.984 . S
N1606 H1619 0.985 . S
N1607 C1609 1.356 . S
N1607 H1612 0.984 . S
N1607 H1613 0.985 . S
C1608 C1602 1.379 . S
C1608 C1605 1.363 . S
C1608 N1606 1.356 . S
C1609 C1603 1.363 . S
C1609 C1604 1.379 1_455 S
C1609 N1607 1.356 . S
N1610 C1602 1.356 . S
N1610 H1616 0.984 . S
N1610 H1617 0.984 1_655 S
N1611 C1604 1.356 . S
N1611 H1614 0.984 . S
N1611 H1615 0.985 . S
H1612 N1607 0.984 . S
H1613 N1607 0.985 . S
H1614 N1611 0.984 . S
H1615 N1611 0.985 . S
H1616 N1610 0.984 . S
H1617 N1610 0.984 1_455 S
H1618 N1606 0.984 . S
H1619 N1606 0.985 . S
C1620 C1621 1.363 . S
C1620 C1626 1.379 . S
C1620 N1628 1.356 . S
C1621 C1620 1.363 . S
C1621 C1627 1.363 . S
C1622 C1623 1.363 . S
C1622 C1627 1.379 . S
C1622 N1629 1.356 . S
C1623 C1622 1.363 . S
C1623 C1626 1.363 . S
N1624 C1626 1.356 1_455 S
N1624 H1636 0.984 . S
N1624 H1637 0.985 . S
N1625 C1627 1.356 . S
N1625 H1630 0.984 . S
N1625 H1631 0.985 . S
C1626 C1620 1.379 . S
C1626 C1623 1.363 . S
C1626 N1624 1.356 1_655 S
C1627 C1621 1.363 . S
C1627 C1622 1.379 . S
C1627 N1625 1.356 . S
N1628 C1620 1.356 . S
N1628 H1634 0.984 . S
N1628 H1635 0.984 . S
N1629 C1622 1.356 . S
N1629 H1632 0.984 1_655 S
N1629 H1633 0.985 . S
H1630 N1625 0.984 . S
H1631 N1625 0.985 . S
H1632 N1629 0.984 1_455 S
H1633 N1629 0.985 . S
H1634 N1628 0.984 . S
H1635 N1628 0.984 . S
H1636 N1624 0.984 . S
H1637 N1624 0.985 . S
C1638 C1639 1.363 . S
C1638 C1644 1.379 . S
C1638 N1646 1.356 . S
C1639 C1638 1.363 . S
C1639 C1645 1.363 . S
C1640 C1641 1.363 . S
C1640 C1645 1.379 . S
C1640 N1647 1.356 . S
C1641 C1640 1.363 . S
C1641 C1644 1.363 . S
N1642 C1644 1.356 . S
N1642 H1654 0.984 . S
N1642 H1655 0.985 . S
N1643 C1645 1.356 . S
N1643 H1648 0.984 . S
N1643 H1649 0.985 . S
C1644 C1638 1.379 . S
C1644 C1641 1.363 . S
C1644 N1642 1.356 . S
C1645 C1639 1.363 . S
C1645 C1640 1.379 . S
C1645 N1643 1.356 . S
N1646 C1638 1.356 . S
N1646 H1652 0.984 . S
N1646 H1653 0.984 . S
N1647 C1640 1.356 . S
N1647 H1650 0.984 . S
N1647 H1651 0.985 . S
H1648 N1643 0.984 . S
H1649 N1643 0.985 . S
H1650 N1647 0.984 . S
H1651 N1647 0.985 . S
H1652 N1646 0.984 . S
H1653 N1646 0.984 . S
H1654 N1642 0.984 . S
H1655 N1642 0.985 . S
C1656 C1657 1.363 . S
C1656 C1662 1.379 . S
C1656 N1664 1.356 . S
C1657 C1656 1.363 . S
C1657 C1663 1.363 . S
C1658 C1659 1.363 . S
C1658 C1663 1.379 . S
C1658 N1665 1.356 . S
C1659 C1658 1.363 . S
C1659 C1662 1.363 . S
N1660 C1662 1.356 . S
N1660 H1672 0.984 . S
N1660 H1673 0.985 . S
N1661 C1663 1.356 . S
N1661 H1666 0.984 . S
N1661 H1667 0.985 . S
C1662 C1656 1.379 . S
C1662 C1659 1.363 . S
C1662 N1660 1.356 . S
C1663 C1657 1.363 . S
C1663 C1658 1.379 . S
C1663 N1661 1.356 . S
N1664 C1656 1.356 . S
N1664 H1670 0.984 . S
N1664 H1671 0.984 . S
N1665 C1658 1.356 . S
N1665 H1668 0.984 . S
N1665 H1669 0.985 . S
H1666 N1661 0.984 . S
H1667 N1661 0.985 . S
H1668 N1665 0.984 . S
H1669 N1665 0.985 . S
H1670 N1664 0.984 . S
H1671 N1664 0.984 . S
H1672 N1660 0.984 . S
H1673 N1660 0.985 . S
C1674 C1675 1.363 . S
C1674 C1680 1.379 . S
C1674 N1682 1.356 . S
C1675 C1674 1.363 . S
C1675 C1681 1.363 . S
C1676 C1677 1.363 . S
C1676 C1681 1.379 . S
C1676 N1683 1.356 . S
C1677 C1676 1.363 . S
C1677 C1680 1.363 . S
N1678 C1680 1.356 . S
N1678 H1690 0.984 . S
N1678 H1691 0.985 . S
N1679 C1681 1.356 . S
N1679 H1684 0.984 . S
N1679 H1685 0.985 . S
C1680 C1674 1.379 . S
C1680 C1677 1.363 . S
C1680 N1678 1.356 . S
C1681 C1675 1.363 . S
C1681 C1676 1.379 . S
C1681 N1679 1.356 . S
N1682 C1674 1.356 . S
N1682 H1688 0.984 . S
N1682 H1689 0.984 . S
N1683 C1676 1.356 . S
N1683 H1686 0.984 . S
N1683 H1687 0.985 . S
H1684 N1679 0.984 . S
H1685 N1679 0.985 . S
H1686 N1683 0.984 . S
H1687 N1683 0.985 . S
H1688 N1682 0.984 . S
H1689 N1682 0.984 . S
H1690 N1678 0.984 . S
H1691 N1678 0.985 . S
C1692 C1693 1.363 . S
C1692 C1698 1.379 . S
C1692 N1700 1.356 . S
C1693 C1692 1.363 . S
C1693 C1699 1.363 . S
C1694 C1695 1.363 . S
C1694 C1699 1.379 . S
C1694 N1701 1.356 . S
C1695 C1694 1.363 . S
C1695 C1698 1.363 . S
N1696 C1698 1.356 . S
N1696 H1708 0.984 . S
N1696 H1709 0.985 . S
N1697 C1699 1.356 . S
N1697 H1702 0.984 . S
N1697 H1703 0.985 . S
C1698 C1692 1.379 . S
C1698 C1695 1.363 . S
C1698 N1696 1.356 . S
C1699 C1693 1.363 . S
C1699 C1694 1.379 . S
C1699 N1697 1.356 . S
N1700 C1692 1.356 . S
N1700 H1706 0.984 . S
N1700 H1707 0.984 . S
N1701 C1694 1.356 . S
N1701 H1704 0.984 . S
N1701 H1705 0.985 . S
H1702 N1697 0.984 . S
H1703 N1697 0.985 . S
H1704 N1701 0.984 . S
H1705 N1701 0.985 . S
H1706 N1700 0.984 . S
H1707 N1700 0.984 . S
H1708 N1696 0.984 . S
H1709 N1696 0.985 . S
C1710 C1711 1.363 . S
C1710 C1716 1.379 . S
C1710 N1718 1.356 . S
C1711 C1710 1.363 . S
C1711 C1717 1.363 . S
C1712 C1713 1.363 . S
C1712 C1717 1.379 . S
C1712 N1719 1.356 . S
C1713 C1712 1.363 . S
C1713 C1716 1.363 . S
N1714 C1716 1.356 . S
N1714 H1726 0.984 . S
N1714 H1727 0.985 . S
N1715 C1717 1.356 . S
N1715 H1720 0.984 . S
N1715 H1721 0.985 . S
C1716 C1710 1.379 . S
C1716 C1713 1.363 . S
C1716 N1714 1.356 . S
C1717 C1711 1.363 . S
C1717 C1712 1.379 . S
C1717 N1715 1.356 . S
N1718 C1710 1.356 . S
N1718 H1724 0.984 . S
N1718 H1725 0.984 . S
N1719 C1712 1.356 . S
N1719 H1722 0.984 . S
N1719 H1723 0.985 . S
H1720 N1715 0.984 . S
H1721 N1715 0.985 . S
H1722 N1719 0.984 . S
H1723 N1719 0.985 . S
H1724 N1718 0.984 . S
H1725 N1718 0.984 . S
H1726 N1714 0.984 . S
H1727 N1714 0.985 . S
C1728 C1729 1.363 . S
C1728 C1734 1.379 . S
C1728 N1736 1.356 . S
C1729 C1728 1.363 . S
C1729 C1735 1.363 . S
C1730 C1731 1.363 . S
C1730 C1735 1.379 . S
C1730 N1737 1.356 . S
C1731 C1730 1.363 . S
C1731 C1734 1.363 . S
N1732 C1734 1.356 . S
N1732 H1744 0.984 . S
N1732 H1745 0.985 . S
N1733 C1735 1.356 . S
N1733 H1738 0.984 . S
N1733 H1739 0.985 . S
C1734 C1728 1.379 . S
C1734 C1731 1.363 . S
C1734 N1732 1.356 . S
C1735 C1729 1.363 . S
C1735 C1730 1.379 . S
C1735 N1733 1.356 . S
N1736 C1728 1.356 . S
N1736 H1742 0.984 . S
N1736 H1743 0.984 . S
N1737 C1730 1.356 . S
N1737 H1740 0.984 . S
N1737 H1741 0.985 . S
H1738 N1733 0.984 . S
H1739 N1733 0.985 . S
H1740 N1737 0.984 . S
H1741 N1737 0.985 . S
H1742 N1736 0.984 . S
H1743 N1736 0.984 . S
H1744 N1732 0.984 . S
H1745 N1732 0.985 . S
C1746 C1747 1.363 . S
C1746 C1752 1.379 1_455 S
C1746 N1754 1.356 . S
C1747 C1746 1.363 . S
C1747 C1753 1.363 1_455 S
C1748 C1749 1.363 . S
C1748 C1753 1.379 . S
C1748 N1755 1.356 . S
C1749 C1748 1.363 . S
C1749 C1752 1.363 . S
N1750 C1752 1.356 . S
N1750 H1762 0.984 . S
N1750 H1763 0.985 . S
N1751 C1753 1.356 . S
N1751 H1756 1.000 . S
N1751 H1757 0.985 . S
C1752 C1746 1.379 1_655 S
C1752 C1749 1.363 . S
C1752 N1750 1.356 . S
C1753 C1747 1.363 1_655 S
C1753 C1748 1.379 . S
C1753 N1751 1.356 . S
N1754 C1746 1.356 . S
N1754 H1760 0.984 . S
N1754 H1761 0.984 . S
N1755 C1748 1.356 . S
N1755 H1758 0.984 . S
N1755 H1759 0.985 . S
H1756 N1751 1.000 . S
H1757 N1751 0.985 . S
H1758 N1755 0.984 . S
H1759 N1755 0.985 . S
H1760 N1754 0.984 . S
H1761 N1754 0.984 . S
H1762 N1750 0.984 . S
H1763 N1750 0.985 . S
C1764 C1765 1.363 . S
C1764 C1770 1.379 . S
C1764 N1772 1.356 . S
C1765 C1764 1.363 . S
C1765 C1771 1.363 . S
C1766 C1767 1.363 . S
C1766 C1771 1.379 . S
C1766 N1773 1.356 . S
C1767 C1766 1.363 . S
C1767 C1770 1.363 . S
N1768 C1770 1.356 . S
N1768 H1780 0.984 . S
N1768 H1781 0.985 . S
N1769 C1771 1.356 . S
N1769 H1774 0.984 . S
N1769 H1775 0.985 . S
C1770 C1764 1.379 . S
C1770 C1767 1.363 . S
C1770 N1768 1.356 . S
C1771 C1765 1.363 . S
C1771 C1766 1.379 . S
C1771 N1769 1.356 . S
N1772 C1764 1.356 . S
N1772 H1778 0.984 . S
N1772 H1779 0.984 . S
N1773 C1766 1.356 . S
N1773 H1776 0.984 . S
N1773 H1777 0.985 . S
H1774 N1769 0.984 . S
H1775 N1769 0.985 . S
H1776 N1773 0.984 . S
H1777 N1773 0.985 . S
H1778 N1772 0.984 . S
H1779 N1772 0.984 . S
H1780 N1768 0.984 . S
H1781 N1768 0.985 . S
C1782 C1783 1.363 . S
C1782 C1788 1.379 . S
C1782 N1790 1.356 . S
C1783 C1782 1.363 . S
C1783 C1789 1.363 . S
C1784 C1785 1.363 . S
C1784 C1789 1.379 . S
C1784 N1791 1.356 . S
C1785 C1784 1.363 . S
C1785 C1788 1.363 . S
N1786 C1788 1.356 1_455 S
N1786 H1798 0.984 . S
N1786 H1799 0.985 . S
N1787 C1789 1.356 . S
N1787 H1792 0.984 . S
N1787 H1793 0.985 . S
C1788 C1782 1.379 . S
C1788 C1785 1.363 . S
C1788 N1786 1.356 1_655 S
C1789 C1783 1.363 . S
C1789 C1784 1.379 . S
C1789 N1787 1.356 . S
N1790 C1782 1.356 . S
N1790 H1796 0.984 . S
N1790 H1797 0.984 1_545 S
N1791 C1784 1.356 . S
N1791 H1794 0.984 1_655 S
N1791 H1795 0.985 . S
H1792 N1787 0.984 . S
H1793 N1787 0.985 . S
H1794 N1791 0.984 1_455 S
H1795 N1791 0.985 . S
H1796 N1790 0.984 . S
H1797 N1790 0.984 1_565 S
H1798 N1786 0.984 . S
H1799 N1786 0.985 . S
C1800 C1801 1.363 . S
C1800 C1806 1.379 . S
C1800 N1808 1.356 . S
C1801 C1800 1.363 . S
C1801 C1807 1.363 . S
C1802 C1803 1.363 . S
C1802 C1807 1.379 . S
C1802 N1809 1.356 . S
C1803 C1802 1.363 . S
C1803 C1806 1.363 . S
N1804 C1806 1.356 . S
N1804 H1816 0.984 . S
N1804 H1817 0.985 . S
N1805 C1807 1.356 . S
N1805 H1810 0.984 . S
N1805 H1811 0.985 . S
C1806 C1800 1.379 . S
C1806 C1803 1.363 . S
C1806 N1804 1.356 . S
C1807 C1801 1.363 . S
C1807 C1802 1.379 . S
C1807 N1805 1.356 . S
N1808 C1800 1.356 . S
N1808 H1814 0.984 . S
N1808 H1815 0.984 . S
N1809 C1802 1.356 . S
N1809 H1812 0.984 . S
N1809 H1813 0.985 . S
H1810 N1805 0.984 . S
H1811 N1805 0.985 . S
H1812 N1809 0.984 . S
H1813 N1809 0.985 . S
H1814 N1808 0.984 . S
H1815 N1808 0.984 . S
H1816 N1804 0.984 . S
H1817 N1804 0.985 . S
C1818 C1819 1.363 . S
C1818 C1824 1.379 . S
C1818 N1826 1.356 . S
C1819 C1818 1.363 . S
C1819 C1825 1.363 . S
C1820 C1821 1.363 . S
C1820 C1825 1.379 . S
C1820 N1827 1.356 . S
C1821 C1820 1.363 . S
C1821 C1824 1.363 . S
N1822 C1824 1.356 . S
N1822 H1834 0.984 . S
N1822 H1835 0.985 . S
N1823 C1825 1.356 . S
N1823 H1828 0.984 . S
N1823 H1829 0.985 . S
C1824 C1818 1.379 . S
C1824 C1821 1.363 . S
C1824 N1822 1.356 . S
C1825 C1819 1.363 . S
C1825 C1820 1.379 . S
C1825 N1823 1.356 . S
N1826 C1818 1.356 . S
N1826 H1832 0.984 . S
N1826 H1833 0.984 . S
N1827 C1820 1.356 . S
N1827 H1830 0.984 . S
N1827 H1831 0.985 . S
H1828 N1823 0.984 . S
H1829 N1823 0.985 . S
H1830 N1827 0.984 . S
H1831 N1827 0.985 . S
H1832 N1826 0.984 . S
H1833 N1826 0.984 . S
H1834 N1822 0.984 . S
H1835 N1822 0.985 . S
C1836 C1837 1.363 . S
C1836 C1842 1.379 . S
C1836 N1844 1.356 . S
C1837 C1836 1.363 . S
C1837 C1843 1.363 . S
C1838 C1839 1.363 . S
C1838 C1843 1.379 . S
C1838 N1845 1.356 . S
C1839 C1838 1.363 . S
C1839 C1842 1.363 . S
N1840 C1842 1.356 . S
N1840 H1852 0.984 . S
N1840 H1853 0.985 . S
N1841 C1843 1.356 . S
N1841 H1846 0.984 . S
N1841 H1847 0.985 . S
C1842 C1836 1.379 . S
C1842 C1839 1.363 . S
C1842 N1840 1.356 . S
C1843 C1837 1.363 . S
C1843 C1838 1.379 . S
C1843 N1841 1.356 . S
N1844 C1836 1.356 . S
N1844 H1850 0.984 . S
N1844 H1851 0.984 . S
N1845 C1838 1.356 . S
N1845 H1848 0.984 . S
N1845 H1849 0.985 . S
H1846 N1841 0.984 . S
H1847 N1841 0.985 . S
H1848 N1845 0.984 . S
H1849 N1845 0.985 . S
H1850 N1844 0.984 . S
H1851 N1844 0.984 . S
H1852 N1840 0.984 . S
H1853 N1840 0.985 . S
C1854 C1855 1.363 . S
C1854 C1860 1.379 . S
C1854 N1862 1.356 . S
C1855 C1854 1.363 . S
C1855 C1861 1.363 . S
C1856 C1857 1.363 . S
C1856 C1861 1.379 . S
C1856 N1863 1.356 1_455 S
C1857 C1856 1.363 . S
C1857 C1860 1.363 . S
N1858 C1860 1.356 . S
N1858 H1870 0.984 . S
N1858 H1871 0.985 . S
N1859 C1861 1.356 . S
N1859 H1864 0.984 . S
N1859 H1865 0.985 . S
C1860 C1854 1.379 . S
C1860 C1857 1.363 . S
C1860 N1858 1.356 . S
C1861 C1855 1.363 . S
C1861 C1856 1.379 . S
C1861 N1859 1.356 . S
N1862 C1854 1.356 . S
N1862 H1868 0.984 . S
N1862 H1869 0.984 . S
N1863 C1856 1.356 1_655 S
N1863 H1866 0.984 . S
N1863 H1867 0.985 . S
H1864 N1859 0.984 . S
H1865 N1859 0.985 . S
H1866 N1863 0.984 . S
H1867 N1863 0.985 . S
H1868 N1862 0.984 . S
H1869 N1862 0.984 . S
H1870 N1858 0.984 . S
H1871 N1858 0.985 . S
C1872 C1873 1.363 . S
C1872 C1878 1.379 . S
C1872 N1880 1.356 1_565 S
C1873 C1872 1.363 . S
C1873 C1879 1.363 . S
C1874 C1875 1.363 . S
C1874 C1879 1.379 . S
C1874 N1881 1.356 . S
C1875 C1874 1.363 . S
C1875 C1878 1.363 . S
N1876 C1878 1.356 . S
N1876 H1888 0.984 . S
N1876 H1889 0.985 . S
N1877 C1879 1.356 . S
N1877 H1882 0.984 1_565 S
N1877 H1883 0.985 . S
C1878 C1872 1.379 . S
C1878 C1875 1.363 . S
C1878 N1876 1.356 . S
C1879 C1873 1.363 . S
C1879 C1874 1.379 . S
C1879 N1877 1.356 . S
N1880 C1872 1.356 1_545 S
N1880 H1886 0.984 . S
N1880 H1887 0.984 . S
N1881 C1874 1.356 . S
N1881 H1884 0.984 . S
N1881 H1885 0.985 . S
H1882 N1877 0.984 1_545 S
H1883 N1877 0.985 . S
H1884 N1881 0.984 . S
H1885 N1881 0.985 . S
H1886 N1880 0.984 . S
H1887 N1880 0.984 . S
H1888 N1876 0.984 . S
H1889 N1876 0.985 . S
C1890 C1891 1.363 1_565 S
C1890 C1896 1.379 . S
C1890 N1898 1.356 1_565 S
C1891 C1890 1.363 1_545 S
C1891 C1897 1.363 1_545 S
C1892 C1893 1.363 . S
C1892 C1897 1.379 . S
C1892 N1899 1.356 . S
C1893 C1892 1.363 . S
C1893 C1896 1.363 . S
N1894 C1896 1.356 . S
N1894 H1906 0.984 . S
N1894 H1907 0.985 1_455 S
N1895 C1897 1.356 . S
N1895 H1900 0.984 1_565 S
N1895 H1901 0.985 . S
C1896 C1890 1.379 . S
C1896 C1893 1.363 . S
C1896 N1894 1.356 . S
C1897 C1891 1.363 1_565 S
C1897 C1892 1.379 . S
C1897 N1895 1.356 . S
N1898 C1890 1.356 1_545 S
N1898 H1904 0.984 . S
N1898 H1905 0.984 . S
N1899 C1892 1.356 . S
N1899 H1902 0.984 . S
N1899 H1903 0.985 . S
H1900 N1895 0.984 1_545 S
H1901 N1895 0.985 . S
H1902 N1899 0.984 . S
H1903 N1899 0.985 . S
H1904 N1898 0.984 . S
H1905 N1898 0.984 . S
H1906 N1894 0.984 . S
H1907 N1894 0.985 1_655 S
C1908 C1909 1.363 . S
C1908 C1914 1.379 . S
C1908 N1916 1.356 . S
C1909 C1908 1.363 . S
C1909 C1915 1.363 . S
C1910 C1911 1.363 . S
C1910 C1915 1.379 1_545 S
C1910 N1917 1.356 . S
C1911 C1910 1.363 . S
C1911 C1914 1.363 1_545 S
N1912 C1914 1.356 . S
N1912 H1924 0.984 . S
N1912 H1925 0.985 . S
N1913 C1915 1.356 . S
N1913 H1918 0.984 . S
N1913 H1919 0.985 . S
C1914 C1908 1.379 . S
C1914 C1911 1.363 1_565 S
C1914 N1912 1.356 . S
C1915 C1909 1.363 . S
C1915 C1910 1.379 1_565 S
C1915 N1913 1.356 . S
N1916 C1908 1.356 . S
N1916 H1922 0.984 . S
N1916 H1923 0.984 . S
N1917 C1910 1.356 . S
N1917 H1920 0.984 . S
N1917 H1921 0.985 . S
H1918 N1913 0.984 . S
H1919 N1913 0.985 . S
H1920 N1917 0.984 . S
H1921 N1917 0.985 . S
H1922 N1916 0.984 . S
H1923 N1916 0.984 . S
H1924 N1912 0.984 . S
H1925 N1912 0.985 . S
C1926 C1927 1.363 . S
C1926 C1932 1.379 . S
C1926 N1934 1.356 . S
C1927 C1926 1.363 . S
C1927 C1933 1.363 . S
C1928 C1929 1.363 . S
C1928 C1933 1.379 . S
C1928 N1935 1.356 . S
C1929 C1928 1.363 . S
C1929 C1932 1.363 . S
N1930 C1932 1.356 1_655 S
N1930 H1942 0.984 . S
N1930 H1943 0.985 . S
N1931 C1933 1.356 . S
N1931 H1936 0.984 1_565 S
N1931 H1937 0.985 . S
C1932 C1926 1.379 . S
C1932 C1929 1.363 . S
C1932 N1930 1.356 1_455 S
C1933 C1927 1.363 . S
C1933 C1928 1.379 . S
C1933 N1931 1.356 . S
N1934 C1926 1.356 . S
N1934 H1940 0.984 . S
N1934 H1941 0.984 1_565 S
N1935 C1928 1.356 . S
N1935 H1938 0.984 . S
N1935 H1939 0.985 . S
H1936 N1931 0.984 1_545 S
H1937 N1931 0.985 . S
H1938 N1935 0.984 . S
H1939 N1935 0.985 . S
H1940 N1934 0.984 . S
H1941 N1934 0.984 1_545 S
H1942 N1930 0.984 . S
H1943 N1930 0.985 . S
C1944 C1945 1.363 . S
C1944 C1950 1.379 . S
C1944 N1952 1.356 . S
C1945 C1944 1.363 . S
C1945 C1951 1.363 . S
C1946 C1947 1.363 . S
C1946 C1951 1.379 . S
C1946 N1953 1.356 . S
C1947 C1946 1.363 . S
C1947 C1950 1.363 . S
N1948 C1950 1.356 . S
N1948 H1960 0.984 . S
N1948 H1961 0.985 1_455 S
N1949 C1951 1.356 . S
N1949 H1954 0.984 . S
N1949 H1955 0.985 . S
C1950 C1944 1.379 . S
C1950 C1947 1.363 . S
C1950 N1948 1.356 . S
C1951 C1945 1.363 . S
C1951 C1946 1.379 . S
C1951 N1949 1.356 . S
N1952 C1944 1.356 . S
N1952 H1958 0.984 . S
N1952 H1959 0.984 . S
N1953 C1946 1.356 . S
N1953 H1956 0.984 . S
N1953 H1957 0.985 . S
H1954 N1949 0.984 . S
H1955 N1949 0.985 . S
H1956 N1953 0.984 . S
H1957 N1953 0.985 . S
H1958 N1952 0.984 . S
H1959 N1952 0.984 . S
H1960 N1948 0.984 . S
H1961 N1948 0.985 1_655 S
C1962 C1963 1.363 . S
C1962 C1968 1.379 . S
C1962 N1970 1.356 . S
C1963 C1962 1.363 . S
C1963 C1969 1.363 . S
C1964 C1965 1.363 . S
C1964 C1969 1.379 . S
C1964 N1971 1.356 . S
C1965 C1964 1.363 . S
C1965 C1968 1.363 . S
N1966 C1968 1.356 . S
N1966 H1978 0.984 . S
N1966 H1979 0.985 . S
N1967 C1969 1.356 . S
N1967 H1972 0.984 . S
N1967 H1973 0.985 . S
C1968 C1962 1.379 . S
C1968 C1965 1.363 . S
C1968 N1966 1.356 . S
C1969 C1963 1.363 . S
C1969 C1964 1.379 . S
C1969 N1967 1.356 . S
N1970 C1962 1.356 . S
N1970 H1976 0.984 . S
N1970 H1977 0.984 . S
N1971 C1964 1.356 . S
N1971 H1974 0.984 . S
N1971 H1975 0.985 . S
H1972 N1967 0.984 . S
H1973 N1967 0.985 . S
H1974 N1971 0.984 . S
H1975 N1971 0.985 . S
H1976 N1970 0.984 . S
H1977 N1970 0.984 . S
H1978 N1966 0.984 . S
H1979 N1966 0.985 . S
C1980 C1981 1.363 . S
C1980 C1986 1.379 . S
C1980 N1988 1.356 . S
C1981 C1980 1.363 . S
C1981 C1987 1.363 . S
C1982 C1983 1.363 . S
C1982 C1987 1.379 . S
C1982 N1989 1.356 . S
C1983 C1982 1.363 . S
C1983 C1986 1.363 . S
N1984 C1986 1.356 . S
N1984 H1996 0.984 . S
N1984 H1997 0.985 . S
N1985 C1987 1.356 . S
N1985 H1990 0.984 . S
N1985 H1991 0.985 . S
C1986 C1980 1.379 . S
C1986 C1983 1.363 . S
C1986 N1984 1.356 . S
C1987 C1981 1.363 . S
C1987 C1982 1.379 . S
C1987 N1985 1.356 . S
N1988 C1980 1.356 . S
N1988 H1994 0.984 . S
N1988 H1995 0.984 . S
N1989 C1982 1.356 . S
N1989 H1992 0.984 . S
N1989 H1993 0.985 . S
H1990 N1985 0.984 . S
H1991 N1985 0.985 . S
H1992 N1989 0.984 . S
H1993 N1989 0.985 . S
H1994 N1988 0.984 . S
H1995 N1988 0.984 . S
H1996 N1984 0.984 . S
H1997 N1984 0.985 . S
C1998 C1999 1.363 . S
C1998 C2004 1.379 . S
C1998 N2006 1.356 . S
C1999 C1998 1.363 . S
C1999 C2005 1.363 . S
C2000 C2001 1.363 . S
C2000 C2005 1.379 . S
C2000 N2007 1.356 . S
C2001 C2000 1.363 . S
C2001 C2004 1.363 . S
N2002 C2004 1.356 . S
N2002 H2014 0.984 . S
N2002 H2015 0.985 . S
N2003 C2005 1.356 . S
N2003 H2008 0.984 . S
N2003 H2009 0.985 . S
C2004 C1998 1.379 . S
C2004 C2001 1.363 . S
C2004 N2002 1.356 . S
C2005 C1999 1.363 . S
C2005 C2000 1.379 . S
C2005 N2003 1.356 . S
N2006 C1998 1.356 . S
N2006 H2012 0.984 . S
N2006 H2013 0.984 . S
N2007 C2000 1.356 . S
N2007 H2010 0.984 . S
N2007 H2011 0.985 . S
H2008 N2003 0.984 . S
H2009 N2003 0.985 . S
H2010 N2007 0.984 . S
H2011 N2007 0.985 . S
H2012 N2006 0.984 . S
H2013 N2006 0.984 . S
H2014 N2002 0.984 . S
H2015 N2002 0.985 . S
C2016 C2017 1.363 . S
C2016 C2022 1.379 . S
C2016 N2024 1.356 . S
C2017 C2016 1.363 . S
C2017 C2023 1.363 . S
C2018 C2019 1.363 . S
C2018 C2023 1.379 . S
C2018 N2025 1.356 . S
C2019 C2018 1.363 . S
C2019 C2022 1.363 . S
N2020 C2022 1.356 . S
N2020 H2032 0.984 . S
N2020 H2033 0.985 . S
N2021 C2023 1.356 . S
N2021 H2026 0.984 . S
N2021 H2027 0.985 . S
C2022 C2016 1.379 . S
C2022 C2019 1.363 . S
C2022 N2020 1.356 . S
C2023 C2017 1.363 . S
C2023 C2018 1.379 . S
C2023 N2021 1.356 . S
N2024 C2016 1.356 . S
N2024 H2030 0.984 . S
N2024 H2031 0.984 . S
N2025 C2018 1.356 . S
N2025 H2028 0.984 . S
N2025 H2029 0.985 . S
H2026 N2021 0.984 . S
H2027 N2021 0.985 . S
H2028 N2025 0.984 . S
H2029 N2025 0.985 . S
H2030 N2024 0.984 . S
H2031 N2024 0.984 . S
H2032 N2020 0.984 . S
H2033 N2020 0.985 . S
C2034 C2035 1.363 . S
C2034 C2040 1.379 . S
C2034 N2042 1.356 . S
C2035 C2034 1.363 . S
C2035 C2041 1.363 . S
C2036 C2037 1.363 . S
C2036 C2041 1.379 . S
C2036 N2043 1.356 . S
C2037 C2036 1.363 . S
C2037 C2040 1.363 . S
N2038 C2040 1.356 . S
N2038 H2050 0.984 . S
N2038 H2051 0.985 . S
N2039 C2041 1.356 . S
N2039 H2044 0.984 . S
N2039 H2045 0.985 . S
C2040 C2034 1.379 . S
C2040 C2037 1.363 . S
C2040 N2038 1.356 . S
C2041 C2035 1.363 . S
C2041 C2036 1.379 . S
C2041 N2039 1.356 . S
N2042 C2034 1.356 . S
N2042 H2048 0.984 . S
N2042 H2049 0.984 . S
N2043 C2036 1.356 . S
N2043 H2046 0.984 . S
N2043 H2047 0.985 . S
H2044 N2039 0.984 . S
H2045 N2039 0.985 . S
H2046 N2043 0.984 . S
H2047 N2043 0.985 . S
H2048 N2042 0.984 . S
H2049 N2042 0.984 . S
H2050 N2038 0.984 . S
H2051 N2038 0.985 . S
C2052 C2053 1.363 . S
C2052 C2058 1.379 . S
C2052 N2060 1.356 . S
C2053 C2052 1.363 . S
C2053 C2059 1.363 . S
C2054 C2055 1.363 . S
C2054 C2059 1.379 . S
C2054 N2061 1.356 . S
C2055 C2054 1.363 . S
C2055 C2058 1.363 . S
N2056 C2058 1.356 . S
N2056 H2068 0.984 . S
N2056 H2069 0.985 . S
N2057 C2059 1.356 . S
N2057 H2062 0.984 . S
N2057 H2063 0.985 . S
C2058 C2052 1.379 . S
C2058 C2055 1.363 . S
C2058 N2056 1.356 . S
C2059 C2053 1.363 . S
C2059 C2054 1.379 . S
C2059 N2057 1.356 . S
N2060 C2052 1.356 . S
N2060 H2066 0.984 . S
N2060 H2067 0.984 . S
N2061 C2054 1.356 . S
N2061 H2064 0.984 . S
N2061 H2065 0.985 . S
H2062 N2057 0.984 . S
H2063 N2057 0.985 . S
H2064 N2061 0.984 . S
H2065 N2061 0.985 . S
H2066 N2060 0.984 . S
H2067 N2060 0.984 . S
H2068 N2056 0.984 . S
H2069 N2056 0.985 . S
C2070 C2071 1.363 . S
C2070 C2076 1.379 . S
C2070 N2078 1.356 . S
C2071 C2070 1.363 . S
C2071 C2077 1.363 . S
C2072 C2073 1.363 . S
C2072 C2077 1.379 . S
C2072 N2079 1.356 . S
C2073 C2072 1.363 . S
C2073 C2076 1.363 . S
N2074 C2076 1.356 . S
N2074 H2086 0.984 . S
N2074 H2087 0.985 . S
N2075 C2077 1.356 . S
N2075 H2080 0.984 . S
N2075 H2081 0.985 . S
C2076 C2070 1.379 . S
C2076 C2073 1.363 . S
C2076 N2074 1.356 . S
C2077 C2071 1.363 . S
C2077 C2072 1.379 . S
C2077 N2075 1.356 . S
N2078 C2070 1.356 . S
N2078 H2084 0.984 . S
N2078 H2085 0.984 . S
N2079 C2072 1.356 . S
N2079 H2082 0.984 . S
N2079 H2083 0.985 . S
H2080 N2075 0.984 . S
H2081 N2075 0.985 . S
H2082 N2079 0.984 . S
H2083 N2079 0.985 . S
H2084 N2078 0.984 . S
H2085 N2078 0.984 . S
H2086 N2074 0.984 . S
H2087 N2074 0.985 . S
C2088 C2089 1.363 . S
C2088 C2094 1.379 . S
C2088 N2096 1.356 . S
C2089 C2088 1.363 . S
C2089 C2095 1.363 . S
C2090 C2091 1.363 . S
C2090 C2095 1.379 . S
C2090 N2097 1.356 . S
C2091 C2090 1.363 . S
C2091 C2094 1.363 . S
N2092 C2094 1.356 . S
N2092 H2104 0.984 . S
N2092 H2105 0.985 . S
N2093 C2095 1.356 . S
N2093 H2098 0.984 . S
N2093 H2099 0.985 . S
C2094 C2088 1.379 . S
C2094 C2091 1.363 . S
C2094 N2092 1.356 . S
C2095 C2089 1.363 . S
C2095 C2090 1.379 . S
C2095 N2093 1.356 . S
N2096 C2088 1.356 . S
N2096 H2102 0.984 . S
N2096 H2103 0.984 . S
N2097 C2090 1.356 . S
N2097 H2100 0.984 . S
N2097 H2101 0.985 . S
H2098 N2093 0.984 . S
H2099 N2093 0.985 . S
H2100 N2097 0.984 . S
H2101 N2097 0.985 . S
H2102 N2096 0.984 . S
H2103 N2096 0.984 . S
H2104 N2092 0.984 . S
H2105 N2092 0.985 . S
C2106 C2107 1.363 . S
C2106 C2112 1.379 . S
C2106 N2114 1.356 . S
C2107 C2106 1.363 . S
C2107 C2113 1.363 . S
C2108 C2109 1.363 . S
C2108 C2113 1.379 . S
C2108 N2115 1.356 . S
C2109 C2108 1.363 . S
C2109 C2112 1.363 . S
N2110 C2112 1.356 . S
N2110 H2122 0.984 . S
N2110 H2123 0.985 . S
N2111 C2113 1.356 . S
N2111 H2116 0.984 . S
N2111 H2117 0.985 . S
C2112 C2106 1.379 . S
C2112 C2109 1.363 . S
C2112 N2110 1.356 . S
C2113 C2107 1.363 . S
C2113 C2108 1.379 . S
C2113 N2111 1.356 . S
N2114 C2106 1.356 . S
N2114 H2120 0.984 . S
N2114 H2121 0.984 . S
N2115 C2108 1.356 . S
N2115 H2118 0.984 . S
N2115 H2119 0.985 . S
H2116 N2111 0.984 . S
H2117 N2111 0.985 . S
H2118 N2115 0.984 . S
H2119 N2115 0.985 . S
H2120 N2114 0.984 . S
H2121 N2114 0.984 . S
H2122 N2110 0.984 . S
H2123 N2110 0.985 . S
C2124 C2125 1.363 . S
C2124 C2130 1.379 . S
C2124 N2132 1.356 . S
C2125 C2124 1.363 . S
C2125 C2131 1.363 . S
C2126 C2127 1.363 . S
C2126 C2131 1.379 . S
C2126 N2133 1.356 . S
C2127 C2126 1.363 . S
C2127 C2130 1.363 . S
N2128 C2130 1.356 . S
N2128 H2140 0.984 . S
N2128 H2141 0.985 . S
N2129 C2131 1.356 . S
N2129 H2134 0.984 . S
N2129 H2135 0.985 . S
C2130 C2124 1.379 . S
C2130 C2127 1.363 . S
C2130 N2128 1.356 . S
C2131 C2125 1.363 . S
C2131 C2126 1.379 . S
C2131 N2129 1.356 . S
N2132 C2124 1.356 . S
N2132 H2138 0.984 . S
N2132 H2139 0.984 . S
N2133 C2126 1.356 . S
N2133 H2136 0.984 . S
N2133 H2137 0.985 . S
H2134 N2129 0.984 . S
H2135 N2129 0.985 . S
H2136 N2133 0.984 . S
H2137 N2133 0.985 . S
H2138 N2132 0.984 . S
H2139 N2132 0.984 . S
H2140 N2128 0.984 . S
H2141 N2128 0.985 . S
C2142 C2143 1.363 . S
C2142 C2148 1.379 . S
C2142 N2150 1.356 . S
C2143 C2142 1.363 . S
C2143 C2149 1.363 . S
C2144 C2145 1.363 . S
C2144 C2149 1.379 . S
C2144 N2151 1.356 . S
C2145 C2144 1.363 . S
C2145 C2148 1.363 . S
N2146 C2148 1.356 . S
N2146 H2158 0.984 . S
N2146 H2159 0.985 . S
N2147 C2149 1.356 . S
N2147 H2152 0.984 . S
N2147 H2153 0.985 . S
C2148 C2142 1.379 . S
C2148 C2145 1.363 . S
C2148 N2146 1.356 . S
C2149 C2143 1.363 . S
C2149 C2144 1.379 . S
C2149 N2147 1.356 . S
N2150 C2142 1.356 . S
N2150 H2156 0.984 . S
N2150 H2157 0.984 . S
N2151 C2144 1.356 . S
N2151 H2154 0.984 . S
N2151 H2155 0.985 . S
H2152 N2147 0.984 . S
H2153 N2147 0.985 . S
H2154 N2151 0.984 . S
H2155 N2151 0.985 . S
H2156 N2150 0.984 . S
H2157 N2150 0.984 . S
H2158 N2146 0.984 . S
H2159 N2146 0.985 . S
C2160 C2161 1.363 . S
C2160 C2166 1.379 . S
C2160 N2168 1.356 . S
C2161 C2160 1.363 . S
C2161 C2167 1.363 . S
C2162 C2163 1.363 . S
C2162 C2167 1.379 . S
C2162 N2169 1.356 . S
C2163 C2162 1.363 . S
C2163 C2166 1.363 . S
N2164 C2166 1.356 . S
N2164 H2176 0.984 . S
N2164 H2177 0.985 . S
N2165 C2167 1.356 . S
N2165 H2170 0.984 . S
N2165 H2171 0.985 . S
C2166 C2160 1.379 . S
C2166 C2163 1.363 . S
C2166 N2164 1.356 . S
C2167 C2161 1.363 . S
C2167 C2162 1.379 . S
C2167 N2165 1.356 . S
N2168 C2160 1.356 . S
N2168 H2174 0.984 . S
N2168 H2175 0.984 . S
N2169 C2162 1.356 . S
N2169 H2172 0.984 . S
N2169 H2173 0.985 . S
H2170 N2165 0.984 . S
H2171 N2165 0.985 . S
H2172 N2169 0.984 . S
H2173 N2169 0.985 . S
H2174 N2168 0.984 . S
H2175 N2168 0.984 . S
H2176 N2164 0.984 . S
H2177 N2164 0.985 . S
C2178 C2179 1.363 . S
C2178 C2184 1.379 . S
C2178 N2186 1.356 . S
C2179 C2178 1.363 . S
C2179 C2185 1.363 . S
C2180 C2181 1.363 . S
C2180 C2185 1.379 . S
C2180 N2187 1.356 . S
C2181 C2180 1.363 . S
C2181 C2184 1.363 . S
N2182 C2184 1.356 . S
N2182 H2194 0.984 . S
N2182 H2195 0.985 . S
N2183 C2185 1.356 . S
N2183 H2188 0.984 . S
N2183 H2189 0.985 . S
C2184 C2178 1.379 . S
C2184 C2181 1.363 . S
C2184 N2182 1.356 . S
C2185 C2179 1.363 . S
C2185 C2180 1.379 . S
C2185 N2183 1.356 . S
N2186 C2178 1.356 . S
N2186 H2192 0.984 . S
N2186 H2193 0.984 . S
N2187 C2180 1.356 . S
N2187 H2190 0.984 . S
N2187 H2191 0.985 . S
H2188 N2183 0.984 . S
H2189 N2183 0.985 . S
H2190 N2187 0.984 . S
H2191 N2187 0.985 . S
H2192 N2186 0.984 . S
H2193 N2186 0.984 . S
H2194 N2182 0.984 . S
H2195 N2182 0.985 . S
C2196 C2197 1.363 . S
C2196 C2202 1.379 . S
C2196 N2204 1.356 . S
C2197 C2196 1.363 . S
C2197 C2203 1.363 . S
C2198 C2199 1.363 . S
C2198 C2203 1.379 . S
C2198 N2205 1.356 . S
C2199 C2198 1.363 . S
C2199 C2202 1.363 . S
N2200 C2202 1.356 . S
N2200 H2212 0.984 . S
N2200 H2213 0.985 . S
N2201 C2203 1.356 . S
N2201 H2206 0.984 . S
N2201 H2207 0.985 . S
C2202 C2196 1.379 . S
C2202 C2199 1.363 . S
C2202 N2200 1.356 . S
C2203 C2197 1.363 . S
C2203 C2198 1.379 . S
C2203 N2201 1.356 . S
N2204 C2196 1.356 . S
N2204 H2210 0.984 . S
N2204 H2211 0.984 . S
N2205 C2198 1.356 . S
N2205 H2208 0.984 . S
N2205 H2209 0.985 . S
H2206 N2201 0.984 . S
H2207 N2201 0.985 . S
H2208 N2205 0.984 . S
H2209 N2205 0.985 . S
H2210 N2204 0.984 . S
H2211 N2204 0.984 . S
H2212 N2200 0.984 . S
H2213 N2200 0.985 . S
C2214 C2215 1.363 . S
C2214 C2220 1.379 . S
C2214 N2222 1.356 . S
C2215 C2214 1.363 . S
C2215 C2221 1.363 . S
C2216 C2217 1.363 . S
C2216 C2221 1.379 . S
C2216 N2223 1.356 . S
C2217 C2216 1.363 . S
C2217 C2220 1.363 . S
N2218 C2220 1.356 . S
N2218 H2230 0.984 . S
N2218 H2231 0.985 . S
N2219 C2221 1.356 . S
N2219 H2224 0.984 . S
N2219 H2225 0.985 . S
C2220 C2214 1.379 . S
C2220 C2217 1.363 . S
C2220 N2218 1.356 . S
C2221 C2215 1.363 . S
C2221 C2216 1.379 . S
C2221 N2219 1.356 . S
N2222 C2214 1.356 . S
N2222 H2228 0.984 . S
N2222 H2229 0.984 . S
N2223 C2216 1.356 . S
N2223 H2226 0.984 . S
N2223 H2227 0.985 . S
H2224 N2219 0.984 . S
H2225 N2219 0.985 . S
H2226 N2223 0.984 . S
H2227 N2223 0.985 . S
H2228 N2222 0.984 . S
H2229 N2222 0.984 . S
H2230 N2218 0.984 . S
H2231 N2218 0.985 . S
C2232 C2233 1.363 . S
C2232 C2238 1.379 . S
C2232 N2240 1.356 . S
C2233 C2232 1.363 . S
C2233 C2239 1.363 . S
C2234 C2235 1.363 . S
C2234 C2239 1.379 . S
C2234 N2241 1.356 . S
C2235 C2234 1.363 . S
C2235 C2238 1.363 . S
N2236 C2238 1.356 . S
N2236 H2248 0.984 . S
N2236 H2249 0.985 . S
N2237 C2239 1.356 . S
N2237 H2242 0.984 . S
N2237 H2243 0.985 . S
C2238 C2232 1.379 . S
C2238 C2235 1.363 . S
C2238 N2236 1.356 . S
C2239 C2233 1.363 . S
C2239 C2234 1.379 . S
C2239 N2237 1.356 . S
N2240 C2232 1.356 . S
N2240 H2246 0.984 . S
N2240 H2247 0.984 . S
N2241 C2234 1.356 . S
N2241 H2244 0.984 . S
N2241 H2245 0.985 . S
H2242 N2237 0.984 . S
H2243 N2237 0.985 . S
H2244 N2241 0.984 . S
H2245 N2241 0.985 . S
H2246 N2240 0.984 . S
H2247 N2240 0.984 . S
H2248 N2236 0.984 . S
H2249 N2236 0.985 . S
C2250 C2251 1.363 . S
C2250 C2256 1.379 . S
C2250 N2258 1.356 . S
C2251 C2250 1.363 . S
C2251 C2257 1.363 . S
C2252 C2253 1.363 . S
C2252 C2257 1.379 . S
C2252 N2259 1.356 . S
C2253 C2252 1.363 . S
C2253 C2256 1.363 . S
N2254 C2256 1.356 . S
N2254 H2266 0.984 . S
N2254 H2267 0.985 . S
N2255 C2257 1.356 . S
N2255 H2260 0.984 . S
N2255 H2261 0.985 . S
C2256 C2250 1.379 . S
C2256 C2253 1.363 . S
C2256 N2254 1.356 . S
C2257 C2251 1.363 . S
C2257 C2252 1.379 . S
C2257 N2255 1.356 . S
N2258 C2250 1.356 . S
N2258 H2264 0.984 . S
N2258 H2265 0.984 . S
N2259 C2252 1.356 . S
N2259 H2262 0.984 . S
N2259 H2263 0.985 . S
H2260 N2255 0.984 . S
H2261 N2255 0.985 . S
H2262 N2259 0.984 . S
H2263 N2259 0.985 . S
H2264 N2258 0.984 . S
H2265 N2258 0.984 . S
H2266 N2254 0.984 . S
H2267 N2254 0.985 . S
C2268 C2269 1.363 . S
C2268 C2274 1.379 . S
C2268 N2276 1.356 . S
C2269 C2268 1.363 . S
C2269 C2275 1.363 . S
C2270 C2271 1.363 . S
C2270 C2275 1.379 . S
C2270 N2277 1.356 . S
C2271 C2270 1.363 . S
C2271 C2274 1.363 . S
N2272 C2274 1.356 . S
N2272 H2284 0.984 . S
N2272 H2285 0.985 . S
N2273 C2275 1.356 . S
N2273 H2278 0.984 . S
N2273 H2279 0.985 . S
C2274 C2268 1.379 . S
C2274 C2271 1.363 . S
C2274 N2272 1.356 . S
C2275 C2269 1.363 . S
C2275 C2270 1.379 . S
C2275 N2273 1.356 . S
N2276 C2268 1.356 . S
N2276 H2282 0.984 . S
N2276 H2283 0.984 . S
N2277 C2270 1.356 . S
N2277 H2280 0.984 . S
N2277 H2281 0.985 . S
H2278 N2273 0.984 . S
H2279 N2273 0.985 . S
H2280 N2277 0.984 . S
H2281 N2277 0.985 . S
H2282 N2276 0.984 . S
H2283 N2276 0.984 . S
H2284 N2272 0.984 . S
H2285 N2272 0.985 . S
C2286 C2287 1.363 . S
C2286 C2292 1.379 1_455 S
C2286 N2294 1.356 . S
C2287 C2286 1.363 . S
C2287 C2293 1.363 . S
C2288 C2289 1.363 . S
C2288 C2293 1.379 1_655 S
C2288 N2295 1.356 . S
C2289 C2288 1.363 . S
C2289 C2292 1.363 . S
N2290 C2292 1.356 . S
N2290 H2302 0.984 . S
N2290 H2303 0.985 . S
N2291 C2293 1.356 . S
N2291 H2296 0.984 . S
N2291 H2297 0.985 . S
C2292 C2286 1.379 1_655 S
C2292 C2289 1.363 . S
C2292 N2290 1.356 . S
C2293 C2287 1.363 . S
C2293 C2288 1.379 1_455 S
C2293 N2291 1.356 . S
N2294 C2286 1.356 . S
N2294 H2300 0.984 . S
N2294 H2301 0.984 . S
N2295 C2288 1.356 . S
N2295 H2298 0.984 . S
N2295 H2299 0.985 . S
H2296 N2291 0.984 . S
H2297 N2291 0.985 . S
H2298 N2295 0.984 . S
H2299 N2295 0.985 . S
H2300 N2294 0.984 . S
H2301 N2294 0.984 . S
H2302 N2290 0.984 . S
H2303 N2290 0.985 . S
C2304 C2305 1.363 . S
C2304 C2310 1.379 . S
C2304 N2312 1.356 . S
C2305 C2304 1.363 . S
C2305 C2311 1.363 . S
C2306 C2307 1.363 . S
C2306 C2311 1.379 . S
C2306 N2313 1.356 . S
C2307 C2306 1.363 . S
C2307 C2310 1.363 . S
N2308 C2310 1.356 . S
N2308 H2320 0.984 . S
N2308 H2321 0.985 . S
N2309 C2311 1.356 . S
N2309 H2314 0.984 . S
N2309 H2315 0.985 . S
C2310 C2304 1.379 . S
C2310 C2307 1.363 . S
C2310 N2308 1.356 . S
C2311 C2305 1.363 . S
C2311 C2306 1.379 . S
C2311 N2309 1.356 . S
N2312 C2304 1.356 . S
N2312 H2318 0.984 . S
N2312 H2319 0.984 . S
N2313 C2306 1.356 . S
N2313 H2316 0.984 . S
N2313 H2317 0.985 . S
H2314 N2309 0.984 . S
H2315 N2309 0.985 . S
H2316 N2313 0.984 . S
H2317 N2313 0.985 . S
H2318 N2312 0.984 . S
H2319 N2312 0.984 . S
H2320 N2308 0.984 . S
H2321 N2308 0.985 . S
C2322 C2323 1.363 . S
C2322 C2328 1.379 . S
C2322 N2330 1.356 . S
C2323 C2322 1.363 . S
C2323 C2329 1.363 . S
C2324 C2325 1.363 1_545 S
C2324 C2329 1.379 . S
C2324 N2331 1.356 1_545 S
C2325 C2324 1.363 1_565 S
C2325 C2328 1.363 1_565 S
N2326 C2328 1.356 . S
N2326 H2338 0.984 . S
N2326 H2339 0.985 1_545 S
N2327 C2329 1.356 . S
N2327 H2332 0.984 . S
N2327 H2333 0.985 . S
C2328 C2322 1.379 . S
C2328 C2325 1.363 1_545 S
C2328 N2326 1.356 . S
C2329 C2323 1.363 . S
C2329 C2324 1.379 . S
C2329 N2327 1.356 . S
N2330 C2322 1.356 . S
N2330 H2336 0.984 . S
N2330 H2337 0.984 . S
N2331 C2324 1.356 1_565 S
N2331 H2334 0.984 . S
N2331 H2335 0.985 . S
H2332 N2327 0.984 . S
H2333 N2327 0.985 . S
H2334 N2331 0.984 . S
H2335 N2331 0.985 . S
H2336 N2330 0.984 . S
H2337 N2330 0.984 . S
H2338 N2326 0.984 . S
H2339 N2326 0.985 1_565 S
C2340 C2341 1.363 1_545 S
C2340 C2346 1.379 . S
C2340 N2348 1.356 1_545 S
C2341 C2340 1.363 1_565 S
C2341 C2347 1.363 1_565 S
C2342 C2343 1.363 . S
C2342 C2347 1.379 . S
C2342 N2349 1.356 . S
C2343 C2342 1.363 . S
C2343 C2346 1.363 . S
N2344 C2346 1.356 . S
N2344 H2356 0.984 . S
N2344 H2357 0.985 . S
N2345 C2347 1.356 . S
N2345 H2350 0.984 1_545 S
N2345 H2351 0.985 . S
C2346 C2340 1.379 . S
C2346 C2343 1.363 . S
C2346 N2344 1.356 . S
C2347 C2341 1.363 1_545 S
C2347 C2342 1.379 . S
C2347 N2345 1.356 . S
N2348 C2340 1.356 1_565 S
N2348 H2354 0.984 . S
N2348 H2355 0.984 . S
N2349 C2342 1.356 . S
N2349 H2352 0.984 . S
N2349 H2353 0.985 . S
H2350 N2345 0.984 1_565 S
H2351 N2345 0.985 . S
H2352 N2349 0.984 . S
H2353 N2349 0.985 . S
H2354 N2348 0.984 . S
H2355 N2348 0.984 . S
H2356 N2344 0.984 . S
H2357 N2344 0.985 . S
C2358 C2359 1.363 . S
C2358 C2364 1.379 1_455 S
C2358 N2366 1.356 . S
C2359 C2358 1.363 . S
C2359 C2365 1.363 . S
C2360 C2361 1.363 . S
C2360 C2365 1.379 1_655 S
C2360 N2367 1.356 . S
C2361 C2360 1.363 . S
C2361 C2364 1.363 . S
N2362 C2364 1.356 . S
N2362 H2374 0.984 . S
N2362 H2375 0.985 . S
N2363 C2365 1.356 . S
N2363 H2368 0.984 . S
N2363 H2369 0.985 . S
C2364 C2358 1.379 1_655 S
C2364 C2361 1.363 . S
C2364 N2362 1.356 . S
C2365 C2359 1.363 . S
C2365 C2360 1.379 1_455 S
C2365 N2363 1.356 . S
N2366 C2358 1.356 . S
N2366 H2372 0.984 . S
N2366 H2373 0.984 . S
N2367 C2360 1.356 . S
N2367 H2370 0.984 . S
N2367 H2371 0.985 . S
H2368 N2363 0.984 . S
H2369 N2363 0.985 . S
H2370 N2367 0.984 . S
H2371 N2367 0.985 . S
H2372 N2366 0.984 . S
H2373 N2366 0.984 . S
H2374 N2362 0.984 . S
H2375 N2362 0.985 . S
C2376 C2377 1.363 . S
C2376 C2382 1.379 . S
C2376 N2384 1.356 . S
C2377 C2376 1.363 . S
C2377 C2383 1.363 . S
C2378 C2379 1.363 . S
C2378 C2383 1.379 . S
C2378 N2385 1.356 . S
C2379 C2378 1.363 . S
C2379 C2382 1.363 . S
N2380 C2382 1.356 . S
N2380 H2392 0.984 . S
N2380 H2393 0.985 . S
N2381 C2383 1.356 . S
N2381 H2386 0.984 . S
N2381 H2387 0.985 . S
C2382 C2376 1.379 . S
C2382 C2379 1.363 . S
C2382 N2380 1.356 . S
C2383 C2377 1.363 . S
C2383 C2378 1.379 . S
C2383 N2381 1.356 . S
N2384 C2376 1.356 . S
N2384 H2390 0.984 . S
N2384 H2391 0.984 . S
N2385 C2378 1.356 . S
N2385 H2388 0.984 . S
N2385 H2389 0.985 . S
H2386 N2381 0.984 . S
H2387 N2381 0.985 . S
H2388 N2385 0.984 . S
H2389 N2385 0.985 . S
H2390 N2384 0.984 . S
H2391 N2384 0.984 . S
H2392 N2380 0.984 . S
H2393 N2380 0.985 . S
C2394 C2395 1.363 . S
C2394 C2400 1.379 . S
C2394 N2402 1.356 . S
C2395 C2394 1.363 . S
C2395 C2401 1.363 . S
C2396 C2397 1.363 . S
C2396 C2401 1.379 . S
C2396 N2403 1.356 . S
C2397 C2396 1.363 . S
C2397 C2400 1.363 . S
N2398 C2400 1.356 . S
N2398 H2410 0.984 . S
N2398 H2411 0.985 . S
N2399 C2401 1.356 . S
N2399 H2404 0.984 . S
N2399 H2405 0.985 . S
C2400 C2394 1.379 . S
C2400 C2397 1.363 . S
C2400 N2398 1.356 . S
C2401 C2395 1.363 . S
C2401 C2396 1.379 . S
C2401 N2399 1.356 . S
N2402 C2394 1.356 . S
N2402 H2408 0.984 . S
N2402 H2409 0.984 . S
N2403 C2396 1.356 . S
N2403 H2406 0.984 . S
N2403 H2407 0.985 . S
H2404 N2399 0.984 . S
H2405 N2399 0.985 . S
H2406 N2403 0.984 . S
H2407 N2403 0.985 . S
H2408 N2402 0.984 . S
H2409 N2402 0.984 . S
H2410 N2398 0.984 . S
H2411 N2398 0.985 . S
C2412 C2413 1.363 . S
C2412 C2418 1.379 . S
C2412 N2420 1.356 . S
C2413 C2412 1.363 . S
C2413 C2419 1.363 . S
C2414 C2415 1.363 . S
C2414 C2419 1.379 . S
C2414 N2421 1.356 . S
C2415 C2414 1.363 . S
C2415 C2418 1.363 . S
N2416 C2418 1.356 . S
N2416 H2428 0.984 . S
N2416 H2429 0.985 . S
N2417 C2419 1.356 . S
N2417 H2422 0.984 . S
N2417 H2423 0.985 . S
C2418 C2412 1.379 . S
C2418 C2415 1.363 . S
C2418 N2416 1.356 . S
C2419 C2413 1.363 . S
C2419 C2414 1.379 . S
C2419 N2417 1.356 . S
N2420 C2412 1.356 . S
N2420 H2426 0.984 . S
N2420 H2427 0.984 . S
N2421 C2414 1.356 . S
N2421 H2424 0.984 . S
N2421 H2425 0.985 . S
H2422 N2417 0.984 . S
H2423 N2417 0.985 . S
H2424 N2421 0.984 . S
H2425 N2421 0.985 . S
H2426 N2420 0.984 . S
H2427 N2420 0.984 . S
H2428 N2416 0.984 . S
H2429 N2416 0.985 . S
C2430 C2431 1.363 . S
C2430 C2436 1.379 . S
C2430 N2438 1.356 . S
C2431 C2430 1.363 . S
C2431 C2437 1.363 . S
C2432 C2433 1.363 . S
C2432 C2437 1.379 . S
C2432 N2439 1.356 . S
C2433 C2432 1.363 . S
C2433 C2436 1.363 . S
N2434 C2436 1.356 . S
N2434 H2446 0.984 . S
N2434 H2447 0.985 . S
N2435 C2437 1.356 . S
N2435 H2440 0.984 . S
N2435 H2441 0.985 . S
C2436 C2430 1.379 . S
C2436 C2433 1.363 . S
C2436 N2434 1.356 . S
C2437 C2431 1.363 . S
C2437 C2432 1.379 . S
C2437 N2435 1.356 . S
N2438 C2430 1.356 . S
N2438 H2444 0.984 . S
N2438 H2445 0.984 . S
N2439 C2432 1.356 . S
N2439 H2442 0.984 . S
N2439 H2443 0.985 . S
H2440 N2435 0.984 . S
H2441 N2435 0.985 . S
H2442 N2439 0.984 . S
H2443 N2439 0.985 . S
H2444 N2438 0.984 . S
H2445 N2438 0.984 . S
H2446 N2434 0.984 . S
H2447 N2434 0.985 . S
C2448 C2449 1.363 . S
C2448 C2454 1.379 1_565 S
C2448 N2456 1.356 . S
C2449 C2448 1.363 . S
C2449 C2455 1.363 . S
C2450 C2451 1.363 . S
C2450 C2455 1.379 1_545 S
C2450 N2457 1.356 . S
C2451 C2450 1.363 . S
C2451 C2454 1.363 . S
N2452 C2454 1.356 . S
N2452 H2464 0.984 . S
N2452 H2465 0.985 . S
N2453 C2455 1.356 . S
N2453 H2458 0.984 . S
N2453 H2459 0.985 . S
C2454 C2448 1.379 1_545 S
C2454 C2451 1.363 . S
C2454 N2452 1.356 . S
C2455 C2449 1.363 . S
C2455 C2450 1.379 1_565 S
C2455 N2453 1.356 . S
N2456 C2448 1.356 . S
N2456 H2462 0.984 . S
N2456 H2463 0.984 . S
N2457 C2450 1.356 . S
N2457 H2460 0.984 . S
N2457 H2461 0.985 . S
H2458 N2453 0.984 . S
H2459 N2453 0.985 . S
H2460 N2457 0.984 . S
H2461 N2457 0.985 . S
H2462 N2456 0.984 . S
H2463 N2456 0.984 . S
H2464 N2452 0.984 . S
H2465 N2452 0.985 . S
C2466 C2467 1.363 1_455 S
C2466 C2472 1.379 . S
C2466 N2474 1.356 1_455 S
C2467 C2466 1.363 1_655 S
C2467 C2473 1.363 1_655 S
C2468 C2469 1.363 . S
C2468 C2473 1.379 . S
C2468 N2475 1.356 . S
C2469 C2468 1.363 . S
C2469 C2472 1.363 . S
N2470 C2472 1.356 . S
N2470 H2482 0.984 1_565 S
N2470 H2483 0.985 1_565 S
N2471 C2473 1.356 1_655 S
N2471 H2476 0.984 . S
N2471 H2477 0.985 . S
C2472 C2466 1.379 . S
C2472 C2469 1.363 . S
C2472 N2470 1.356 . S
C2473 C2467 1.363 1_455 S
C2473 C2468 1.379 . S
C2473 N2471 1.356 1_455 S
N2474 C2466 1.356 1_655 S
N2474 H2480 0.984 1_655 S
N2474 H2481 0.984 . S
N2475 C2468 1.356 . S
N2475 H2478 0.984 . S
N2475 H2479 0.985 . S
H2476 N2471 0.984 . S
H2477 N2471 0.985 . S
H2478 N2475 0.984 . S
H2479 N2475 0.985 . S
H2480 N2474 0.984 1_455 S
H2481 N2474 0.984 . S
H2482 N2470 0.984 1_545 S
H2483 N2470 0.985 1_545 S
C2484 C2485 1.363 . S
C2484 C2490 1.379 . S
C2484 N2492 1.356 . S
C2485 C2484 1.363 . S
C2485 C2491 1.363 . S
C2486 C2487 1.363 . S
C2486 C2491 1.379 . S
C2486 N2493 1.356 . S
C2487 C2486 1.363 . S
C2487 C2490 1.363 . S
N2488 C2490 1.356 . S
N2488 H2500 0.984 . S
N2488 H2501 0.985 . S
N2489 C2491 1.356 . S
N2489 H2494 0.984 . S
N2489 H2495 0.985 . S
C2490 C2484 1.379 . S
C2490 C2487 1.363 . S
C2490 N2488 1.356 . S
C2491 C2485 1.363 . S
C2491 C2486 1.379 . S
C2491 N2489 1.356 . S
N2492 C2484 1.356 . S
N2492 H2498 0.984 . S
N2492 H2499 0.984 . S
N2493 C2486 1.356 . S
N2493 H2496 0.984 . S
N2493 H2497 0.985 . S
H2494 N2489 0.984 . S
H2495 N2489 0.985 . S
H2496 N2493 0.984 . S
H2497 N2493 0.985 . S
H2498 N2492 0.984 . S
H2499 N2492 0.984 . S
H2500 N2488 0.984 . S
H2501 N2488 0.985 . S
C2502 C2503 1.363 . S
C2502 C2508 1.379 . S
C2502 N2510 1.356 . S
C2503 C2502 1.363 . S
C2503 C2509 1.363 . S
C2504 C2505 1.363 . S
C2504 C2509 1.379 . S
C2504 N2511 1.356 . S
C2505 C2504 1.363 . S
C2505 C2508 1.363 . S
N2506 C2508 1.356 . S
N2506 H2518 0.984 . S
N2506 H2519 0.985 . S
N2507 C2509 1.356 . S
N2507 H2512 0.984 . S
N2507 H2513 0.985 . S
C2508 C2502 1.379 . S
C2508 C2505 1.363 . S
C2508 N2506 1.356 . S
C2509 C2503 1.363 . S
C2509 C2504 1.379 . S
C2509 N2507 1.356 . S
N2510 C2502 1.356 . S
N2510 H2516 0.984 . S
N2510 H2517 0.984 . S
N2511 C2504 1.356 . S
N2511 H2514 0.984 . S
N2511 H2515 0.985 . S
H2512 N2507 0.984 . S
H2513 N2507 0.985 . S
H2514 N2511 0.984 . S
H2515 N2511 0.985 . S
H2516 N2510 0.984 . S
H2517 N2510 0.984 . S
H2518 N2506 0.984 . S
H2519 N2506 0.985 . S
C2520 C2521 1.363 . S
C2520 C2526 1.379 . S
C2520 N2528 1.356 . S
C2521 C2520 1.363 . S
C2521 C2527 1.363 . S
C2522 C2523 1.363 . S
C2522 C2527 1.379 . S
C2522 N2529 1.356 . S
C2523 C2522 1.363 . S
C2523 C2526 1.363 . S
N2524 C2526 1.356 . S
N2524 H2536 0.984 . S
N2524 H2537 0.985 . S
N2525 C2527 1.356 . S
N2525 H2530 0.984 . S
N2525 H2531 0.985 . S
C2526 C2520 1.379 . S
C2526 C2523 1.363 . S
C2526 N2524 1.356 . S
C2527 C2521 1.363 . S
C2527 C2522 1.379 . S
C2527 N2525 1.356 . S
N2528 C2520 1.356 . S
N2528 H2534 0.984 . S
N2528 H2535 0.984 . S
N2529 C2522 1.356 . S
N2529 H2532 0.984 . S
N2529 H2533 0.985 . S
H2530 N2525 0.984 . S
H2531 N2525 0.985 . S
H2532 N2529 0.984 . S
H2533 N2529 0.985 . S
H2534 N2528 0.984 . S
H2535 N2528 0.984 . S
H2536 N2524 0.984 . S
H2537 N2524 0.985 . S
C2538 C2539 1.363 . S
C2538 C2544 1.379 . S
C2538 N2546 1.356 . S
C2539 C2538 1.363 . S
C2539 C2545 1.363 . S
C2540 C2541 1.363 . S
C2540 C2545 1.379 . S
C2540 N2547 1.356 . S
C2541 C2540 1.363 . S
C2541 C2544 1.363 . S
N2542 C2544 1.356 . S
N2542 H2554 0.984 . S
N2542 H2555 0.985 . S
N2543 C2545 1.356 . S
N2543 H2548 0.984 . S
N2543 H2549 0.985 . S
C2544 C2538 1.379 . S
C2544 C2541 1.363 . S
C2544 N2542 1.356 . S
C2545 C2539 1.363 . S
C2545 C2540 1.379 . S
C2545 N2543 1.356 . S
N2546 C2538 1.356 . S
N2546 H2552 0.984 . S
N2546 H2553 0.984 . S
N2547 C2540 1.356 . S
N2547 H2550 0.984 . S
N2547 H2551 0.985 . S
H2548 N2543 0.984 . S
H2549 N2543 0.985 . S
H2550 N2547 0.984 . S
H2551 N2547 0.985 . S
H2552 N2546 0.984 . S
H2553 N2546 0.984 . S
H2554 N2542 0.984 . S
H2555 N2542 0.985 . S
C2556 C2557 1.363 . S
C2556 C2562 1.379 . S
C2556 N2564 1.356 . S
C2557 C2556 1.363 . S
C2557 C2563 1.363 . S
C2558 C2559 1.363 . S
C2558 C2563 1.379 . S
C2558 N2565 1.356 . S
C2559 C2558 1.363 . S
C2559 C2562 1.363 . S
N2560 C2562 1.356 . S
N2560 H2572 0.984 . S
N2560 H2573 0.985 . S
N2561 C2563 1.356 . S
N2561 H2566 0.984 . S
N2561 H2567 0.985 . S
C2562 C2556 1.379 . S
C2562 C2559 1.363 . S
C2562 N2560 1.356 . S
C2563 C2557 1.363 . S
C2563 C2558 1.379 . S
C2563 N2561 1.356 . S
N2564 C2556 1.356 . S
N2564 H2570 0.984 . S
N2564 H2571 0.984 . S
N2565 C2558 1.356 . S
N2565 H2568 0.984 . S
N2565 H2569 0.985 . S
H2566 N2561 0.984 . S
H2567 N2561 0.985 . S
H2568 N2565 0.984 . S
H2569 N2565 0.985 . S
H2570 N2564 0.984 . S
H2571 N2564 0.984 . S
H2572 N2560 0.984 . S
H2573 N2560 0.985 . S
C2574 C2575 1.363 . S
C2574 C2580 1.379 . S
C2574 N2582 1.356 . S
C2575 C2574 1.363 . S
C2575 C2581 1.363 . S
C2576 C2577 1.363 . S
C2576 C2581 1.379 . S
C2576 N2583 1.356 . S
C2577 C2576 1.363 . S
C2577 C2580 1.363 . S
N2578 C2580 1.356 . S
N2578 H2590 0.984 . S
N2578 H2591 0.985 . S
N2579 C2581 1.356 . S
N2579 H2584 0.984 . S
N2579 H2585 0.985 . S
C2580 C2574 1.379 . S
C2580 C2577 1.363 . S
C2580 N2578 1.356 . S
C2581 C2575 1.363 . S
C2581 C2576 1.379 . S
C2581 N2579 1.356 . S
N2582 C2574 1.356 . S
N2582 H2588 0.984 . S
N2582 H2589 0.984 . S
N2583 C2576 1.356 . S
N2583 H2586 0.984 . S
N2583 H2587 0.985 . S
H2584 N2579 0.984 . S
H2585 N2579 0.985 . S
H2586 N2583 0.984 . S
H2587 N2583 0.985 . S
H2588 N2582 0.984 . S
H2589 N2582 0.984 . S
H2590 N2578 0.984 . S
H2591 N2578 0.985 . S
C2592 C2593 1.363 . S
C2592 C2598 1.379 . S
C2592 N2600 1.356 . S
C2593 C2592 1.363 . S
C2593 C2599 1.363 . S
C2594 C2595 1.363 . S
C2594 C2599 1.379 . S
C2594 N2601 1.356 . S
C2595 C2594 1.363 . S
C2595 C2598 1.363 . S
N2596 C2598 1.356 . S
N2596 H2608 0.984 . S
N2596 H2609 0.985 . S
N2597 C2599 1.356 . S
N2597 H2602 0.984 . S
N2597 H2603 0.985 . S
C2598 C2592 1.379 . S
C2598 C2595 1.363 . S
C2598 N2596 1.356 . S
C2599 C2593 1.363 . S
C2599 C2594 1.379 . S
C2599 N2597 1.356 . S
N2600 C2592 1.356 . S
N2600 H2606 0.984 . S
N2600 H2607 0.984 . S
N2601 C2594 1.356 . S
N2601 H2604 0.984 . S
N2601 H2605 0.985 . S
H2602 N2597 0.984 . S
H2603 N2597 0.985 . S
H2604 N2601 0.984 . S
H2605 N2601 0.985 . S
H2606 N2600 0.984 . S
H2607 N2600 0.984 . S
H2608 N2596 0.984 . S
H2609 N2596 0.985 . S
C2610 C2611 1.363 1_455 S
C2610 C2616 1.379 . S
C2610 N2618 1.356 . S
C2611 C2610 1.363 1_655 S
C2611 C2617 1.363 1_655 S
C2612 C2613 1.363 . S
C2612 C2617 1.379 . S
C2612 N2619 1.356 . S
C2613 C2612 1.363 . S
C2613 C2616 1.363 . S
N2614 C2616 1.356 . S
N2614 H2626 0.984 . S
N2614 H2627 0.985 . S
N2615 C2617 1.356 1_655 S
N2615 H2620 0.984 . S
N2615 H2621 0.985 . S
C2616 C2610 1.379 . S
C2616 C2613 1.363 . S
C2616 N2614 1.356 . S
C2617 C2611 1.363 1_455 S
C2617 C2612 1.379 . S
C2617 N2615 1.356 1_455 S
N2618 C2610 1.356 . S
N2618 H2624 0.984 . S
N2618 H2625 0.984 1_455 S
N2619 C2612 1.356 . S
N2619 H2622 0.984 . S
N2619 H2623 0.985 . S
H2620 N2615 0.984 . S
H2621 N2615 0.985 . S
H2622 N2619 0.984 . S
H2623 N2619 0.985 . S
H2624 N2618 0.984 . S
H2625 N2618 0.984 1_655 S
H2626 N2614 0.984 . S
H2627 N2614 0.985 . S
C2628 C2629 1.363 . S
C2628 C2634 1.379 . S
C2628 N2636 1.356 . S
C2629 C2628 1.363 . S
C2629 C2635 1.363 . S
C2630 C2631 1.363 . S
C2630 C2635 1.379 . S
C2630 N2637 1.356 . S
C2631 C2630 1.363 . S
C2631 C2634 1.363 . S
N2632 C2634 1.356 . S
N2632 H2644 0.984 . S
N2632 H2645 0.985 . S
N2633 C2635 1.356 . S
N2633 H2638 0.984 1_565 S
N2633 H2639 0.985 . S
C2634 C2628 1.379 . S
C2634 C2631 1.363 . S
C2634 N2632 1.356 . S
C2635 C2629 1.363 . S
C2635 C2630 1.379 . S
C2635 N2633 1.356 . S
N2636 C2628 1.356 . S
N2636 H2642 0.984 . S
N2636 H2643 0.984 . S
N2637 C2630 1.356 . S
N2637 H2640 0.984 . S
N2637 H2641 0.985 . S
H2638 N2633 0.984 1_545 S
H2639 N2633 0.985 . S
H2640 N2637 0.984 . S
H2641 N2637 0.985 . S
H2642 N2636 0.984 . S
H2643 N2636 0.984 . S
H2644 N2632 0.984 . S
H2645 N2632 0.985 . S
C2646 C2647 1.363 . S
C2646 C2652 1.379 1_565 S
C2646 N2654 1.356 . S
C2647 C2646 1.363 . S
C2647 C2653 1.363 . S
C2648 C2649 1.363 . S
C2648 C2653 1.379 1_545 S
C2648 N2655 1.356 . S
C2649 C2648 1.363 . S
C2649 C2652 1.363 . S
N2650 C2652 1.356 . S
N2650 H2662 0.984 . S
N2650 H2663 0.985 . S
N2651 C2653 1.356 . S
N2651 H2656 0.984 . S
N2651 H2657 0.985 . S
C2652 C2646 1.379 1_545 S
C2652 C2649 1.363 . S
C2652 N2650 1.356 . S
C2653 C2647 1.363 . S
C2653 C2648 1.379 1_565 S
C2653 N2651 1.356 . S
N2654 C2646 1.356 . S
N2654 H2660 0.984 . S
N2654 H2661 0.984 . S
N2655 C2648 1.356 . S
N2655 H2658 0.984 . S
N2655 H2659 0.985 . S
H2656 N2651 0.984 . S
H2657 N2651 0.985 . S
H2658 N2655 0.984 . S
H2659 N2655 0.985 . S
H2660 N2654 0.984 . S
H2661 N2654 0.984 . S
H2662 N2650 0.984 . S
H2663 N2650 0.985 . S
C721 C549 2.009 . S
C723 C9 2.009 . S
C739 C569 2.009 . S
C741 C29 2.009 1_655 S
C757 C49 2.009 . S
C759 C589 2.009 . S
C775 C69 2.009 . S
C777 C249 2.009 . S
C793 C89 2.009 . S
C795 C269 2.009 . S
C811 C289 2.009 . S
C813 C109 2.009 1_565 S
C829 C128 2.010 1_565 S
C831 C428 2.010 . S
C847 C448 2.009 . S
C849 C148 2.009 . S
C865 C168 2.009 . S
C867 C468 2.009 . S
C883 C608 2.010 . S
C885 C188 2.010 1_655 S
C901 C208 2.009 . S
C903 C628 2.009 . S
C919 C648 2.009 . S
C921 C228 2.009 . S
C937 C489 2.010 . S
C939 C309 2.010 . S
C955 C329 2.009 . S
C957 C509 2.009 . S
C973 C529 2.009 . S
C975 C349 2.009 . S
C991 C368 2.009 . S
C993 C668 2.009 . S
C1009 C388 2.009 . S
C1011 C688 2.009 . S
C1027 C708 2.009 . S
C1029 C408 2.009 . S
C1045 C8 1.520 . S
C1047 C129 1.520 . S
C1063 C149 1.520 . S
C1065 C28 1.520 . S
C1081 C48 1.521 . S
C1083 C169 1.521 . S
C1099 C189 1.520 . S
C1101 C68 1.520 . S
C1117 C88 1.520 . S
C1119 C209 1.520 . S
C1135 C229 1.520 . S
C1137 C108 1.520 . S
C1153 C369 1.521 . S
C1155 C248 1.521 . S
C1171 C268 1.521 . S
C1173 C389 1.521 . S
C1189 C409 1.521 . S
C1191 C288 1.521 . S
C1207 C308 1.521 . S
C1209 C429 1.521 . S
C1225 C449 1.520 . S
C1227 C328 1.520 . S
C1243 C348 1.521 . S
C1245 C469 1.521 . S
C1261 C488 1.521 . S
C1263 C609 1.521 . S
C1279 C629 1.521 . S
C1281 C508 1.521 . S
C1297 C649 1.521 . S
C1299 C528 1.521 . S
C1315 C669 1.521 . S
C1317 C548 1.521 . S
C1333 C568 1.521 . S
C1335 C689 1.521 . S
C1351 C588 1.521 . S
C1353 C709 1.521 . S
C1369 C1 1.569 . S
C1371 C59 1.594 . S
C1387 C21 1.569 . S
C1389 C19 1.593 . S
C1405 C39 1.594 . S
C1407 C41 1.569 . S
C1423 C61 1.569 . S
C1425 C99 1.594 . S
C1441 C119 1.594 . S
C1443 C81 1.569 . S
C1459 C79 1.593 . S
C1461 C101 1.569 . S
C1477 C178 1.594 . S
C1479 C122 1.569 . S
C1495 C142 1.568 . S
C1497 C138 1.593 . S
C1513 C162 1.569 . S
C1515 C158 1.594 . S
C1531 C218 1.594 . S
C1533 C182 1.569 . S
C1549 C202 1.569 . S
C1551 C238 1.594 . S
C1567 C222 1.568 . S
C1569 C198 1.593 . S
C1585 C299 1.594 1_545 S
C1587 C241 1.569 . S
C1603 C259 1.593 . S
C1605 C261 1.569 . S
C1621 C279 1.593 . S
C1623 C281 1.569 1_655 S
C1639 C339 1.594 . S
C1641 C301 1.569 . S
C1657 C321 1.569 . S
C1659 C359 1.593 . S
C1675 C319 1.593 . S
C1677 C341 1.569 . S
C1693 C362 1.569 . S
C1695 C418 1.593 . S
C1711 C378 1.594 . S
C1713 C382 1.569 . S
C1729 C402 1.569 . S
C1731 C398 1.593 . S
C1747 C458 1.593 . S
C1749 C422 1.569 . S
C1765 C478 1.593 . S
C1767 C442 1.569 . S
C1783 C438 1.593 1_545 S
C1785 C462 1.569 1_655 S
C1801 C539 1.594 . S
C1803 C481 1.569 . S
C1819 C501 1.569 . S
C1821 C499 1.593 . S
C1837 C519 1.593 . S
C1839 C521 1.569 . S
C1855 C541 1.569 . S
C1857 C579 1.594 1_455 S
C1873 C561 1.569 1_565 S
C1875 C599 1.593 . S
C1891 C559 1.594 . S
C1893 C581 1.569 . S
C1909 C602 1.569 . S
C1911 C658 1.593 . S
C1927 C622 1.569 1_565 S
C1929 C618 1.593 1_455 S
C1945 C638 1.593 . S
C1947 C642 1.569 . S
C1963 C662 1.569 . S
C1965 C698 1.593 . S
C1981 C718 1.593 . S
C1983 C682 1.569 . S
C1999 C678 1.594 . S
C2001 C702 1.569 . S
C2017 C58 1.251 . S
C2019 C2 1.302 . S
C2035 C22 1.302 . S
C2037 C18 1.250 . S
C2053 C38 1.250 . S
C2055 C42 1.302 . S
C2071 C98 1.251 . S
C2073 C62 1.302 . S
C2089 C82 1.302 . S
C2091 C118 1.250 . S
C2107 C102 1.302 . S
C2109 C78 1.250 . S
C2125 C179 1.251 . S
C2127 C121 1.303 . S
C2143 C141 1.302 . S
C2145 C139 1.250 . S
C2161 C159 1.250 . S
C2163 C161 1.302 . S
C2179 C219 1.251 . S
C2181 C181 1.303 . S
C2197 C239 1.250 . S
C2199 C201 1.302 . S
C2215 C199 1.250 . S
C2217 C221 1.302 . S
C2233 C242 1.302 . S
C2235 C298 1.250 . S
C2251 C262 1.302 . S
C2253 C258 1.250 . S
C2269 C282 1.302 . S
C2271 C278 1.251 . S
C2287 C338 1.250 . S
C2289 C302 1.302 . S
C2305 C322 1.302 . S
C2307 C358 1.250 . S
C2323 C342 1.302 . S
C2325 C318 1.250 . S
C2341 C419 1.250 . S
C2343 C361 1.302 . S
C2359 C379 1.250 . S
C2361 C381 1.302 . S
C2377 C401 1.302 . S
C2379 C399 1.250 . S
C2395 C459 1.250 . S
C2397 C421 1.302 . S
C2413 C441 1.302 . S
C2415 C479 1.250 . S
C2431 C461 1.302 . S
C2433 C439 1.250 . S
C2449 C482 1.302 . S
C2451 C538 1.250 . S
C2467 C498 1.250 . S
C2469 C502 1.302 . S
C2485 C518 1.250 . S
C2487 C522 1.302 . S
C2503 C578 1.250 . S
C2505 C542 1.302 . S
C2521 C562 1.302 . S
C2523 C598 1.251 . S
C2539 C582 1.302 . S
C2541 C558 1.250 . S
C2557 C659 1.250 . S
C2559 C601 1.302 . S
C2575 C619 1.250 . S
C2577 C621 1.302 . S
C2593 C641 1.302 . S
C2595 C639 1.250 . S
C2611 C699 1.250 . S
C2613 C661 1.302 . S
C2629 C681 1.302 . S
C2631 C719 1.250 . S
C2647 C701 1.302 . S
C2649 C679 1.250 . S
