# Generated by pormake.
# Topology ukd, (4)-cn, num edge types: 1
# Building blocks:
#     Node 0, Type 0, BuildingBlock: QUQFOY_clean_sbu_3, # of connection points: 4
#     Node 1, Type 0, BuildingBlock: QUQFOY_clean_sbu_3, # of connection points: 4
#     Node 2, Type 0, BuildingBlock: QUQFOY_clean_sbu_3, # of connection points: 4
#     Node 3, Type 0, BuildingBlock: QUQFOY_clean_sbu_3, # of connection points: 4
#     Node 4, Type 0, BuildingBlock: QUQFOY_clean_sbu_3, # of connection points: 4
#     Node 5, Type 0, BuildingBlock: QUQFOY_clean_sbu_3, # of connection points: 4
#     Node 6, Type 0, BuildingBlock: QUQFOY_clean_sbu_3, # of connection points: 4
#     Node 7, Type 0, BuildingBlock: QUQFOY_clean_sbu_3, # of connection points: 4
#     Node 8, Type 0, BuildingBlock: QUQFOY_clean_sbu_3, # of connection points: 4
#     Node 9, Type 0, BuildingBlock: QUQFOY_clean_sbu_3, # of connection points: 4
#     Node 10, Type 0, BuildingBlock: QUQFOY_clean_sbu_3, # of connection points: 4
#     Node 11, Type 0, BuildingBlock: QUQFOY_clean_sbu_3, # of connection points: 4
#     Node 12, Type 0, BuildingBlock: QUQFOY_clean_sbu_3, # of connection points: 4
#     Node 13, Type 0, BuildingBlock: QUQFOY_clean_sbu_3, # of connection points: 4
#     Node 14, Type 0, BuildingBlock: QUQFOY_clean_sbu_3, # of connection points: 4
#     Node 15, Type 0, BuildingBlock: QUQFOY_clean_sbu_3, # of connection points: 4
#     Node 16, Type 0, BuildingBlock: QUQFOY_clean_sbu_3, # of connection points: 4
#     Node 17, Type 0, BuildingBlock: QUQFOY_clean_sbu_3, # of connection points: 4
#     Node 18, Type 0, BuildingBlock: QUQFOY_clean_sbu_3, # of connection points: 4
#     Node 19, Type 0, BuildingBlock: QUQFOY_clean_sbu_3, # of connection points: 4
#     Node 20, Type 0, BuildingBlock: QUQFOY_clean_sbu_3, # of connection points: 4
#     Node 21, Type 0, BuildingBlock: QUQFOY_clean_sbu_3, # of connection points: 4
#     Node 22, Type 0, BuildingBlock: QUQFOY_clean_sbu_3, # of connection points: 4
#     Node 23, Type 0, BuildingBlock: QUQFOY_clean_sbu_3, # of connection points: 4
#     Node 24, Type 0, BuildingBlock: QUQFOY_clean_sbu_3, # of connection points: 4
#     Node 25, Type 0, BuildingBlock: QUQFOY_clean_sbu_3, # of connection points: 4
#     Node 26, Type 0, BuildingBlock: QUQFOY_clean_sbu_3, # of connection points: 4
#     Node 27, Type 0, BuildingBlock: QUQFOY_clean_sbu_3, # of connection points: 4
#     Node 28, Type 0, BuildingBlock: QUQFOY_clean_sbu_3, # of connection points: 4
#     Node 29, Type 0, BuildingBlock: QUQFOY_clean_sbu_3, # of connection points: 4
#     Node 30, Type 0, BuildingBlock: QUQFOY_clean_sbu_3, # of connection points: 4
#     Node 31, Type 0, BuildingBlock: QUQFOY_clean_sbu_3, # of connection points: 4
#     Edge 32, Type (0, 0), BuildingBlock: XIVTED_clean_linker_0, # of connection points: 2
#     Edge 33, Type (0, 0), BuildingBlock: XIVTED_clean_linker_0, # of connection points: 2
#     Edge 34, Type (0, 0), BuildingBlock: XIVTED_clean_linker_0, # of connection points: 2
#     Edge 35, Type (0, 0), BuildingBlock: XIVTED_clean_linker_0, # of connection points: 2
#     Edge 36, Type (0, 0), BuildingBlock: XIVTED_clean_linker_0, # of connection points: 2
#     Edge 37, Type (0, 0), BuildingBlock: XIVTED_clean_linker_0, # of connection points: 2
#     Edge 38, Type (0, 0), BuildingBlock: XIVTED_clean_linker_0, # of connection points: 2
#     Edge 39, Type (0, 0), BuildingBlock: XIVTED_clean_linker_0, # of connection points: 2
#     Edge 40, Type (0, 0), BuildingBlock: XIVTED_clean_linker_0, # of connection points: 2
#     Edge 41, Type (0, 0), BuildingBlock: XIVTED_clean_linker_0, # of connection points: 2
#     Edge 42, Type (0, 0), BuildingBlock: XIVTED_clean_linker_0, # of connection points: 2
#     Edge 43, Type (0, 0), BuildingBlock: XIVTED_clean_linker_0, # of connection points: 2
#     Edge 44, Type (0, 0), BuildingBlock: XIVTED_clean_linker_0, # of connection points: 2
#     Edge 45, Type (0, 0), BuildingBlock: XIVTED_clean_linker_0, # of connection points: 2
#     Edge 46, Type (0, 0), BuildingBlock: XIVTED_clean_linker_0, # of connection points: 2
#     Edge 47, Type (0, 0), BuildingBlock: XIVTED_clean_linker_0, # of connection points: 2
#     Edge 48, Type (0, 0), BuildingBlock: XIVTED_clean_linker_0, # of connection points: 2
#     Edge 49, Type (0, 0), BuildingBlock: XIVTED_clean_linker_0, # of connection points: 2
#     Edge 50, Type (0, 0), BuildingBlock: XIVTED_clean_linker_0, # of connection points: 2
#     Edge 51, Type (0, 0), BuildingBlock: XIVTED_clean_linker_0, # of connection points: 2
#     Edge 52, Type (0, 0), BuildingBlock: XIVTED_clean_linker_0, # of connection points: 2
#     Edge 53, Type (0, 0), BuildingBlock: XIVTED_clean_linker_0, # of connection points: 2
#     Edge 54, Type (0, 0), BuildingBlock: XIVTED_clean_linker_0, # of connection points: 2
#     Edge 55, Type (0, 0), BuildingBlock: XIVTED_clean_linker_0, # of connection points: 2
#     Edge 56, Type (0, 0), BuildingBlock: XIVTED_clean_linker_0, # of connection points: 2
#     Edge 57, Type (0, 0), BuildingBlock: XIVTED_clean_linker_0, # of connection points: 2
#     Edge 58, Type (0, 0), BuildingBlock: XIVTED_clean_linker_0, # of connection points: 2
#     Edge 59, Type (0, 0), BuildingBlock: XIVTED_clean_linker_0, # of connection points: 2
#     Edge 60, Type (0, 0), BuildingBlock: XIVTED_clean_linker_0, # of connection points: 2
#     Edge 61, Type (0, 0), BuildingBlock: XIVTED_clean_linker_0, # of connection points: 2
#     Edge 62, Type (0, 0), BuildingBlock: XIVTED_clean_linker_0, # of connection points: 2
#     Edge 63, Type (0, 0), BuildingBlock: XIVTED_clean_linker_0, # of connection points: 2
#     Edge 64, Type (0, 0), BuildingBlock: XIVTED_clean_linker_0, # of connection points: 2
#     Edge 65, Type (0, 0), BuildingBlock: XIVTED_clean_linker_0, # of connection points: 2
#     Edge 66, Type (0, 0), BuildingBlock: XIVTED_clean_linker_0, # of connection points: 2
#     Edge 67, Type (0, 0), BuildingBlock: XIVTED_clean_linker_0, # of connection points: 2
#     Edge 68, Type (0, 0), BuildingBlock: XIVTED_clean_linker_0, # of connection points: 2
#     Edge 69, Type (0, 0), BuildingBlock: XIVTED_clean_linker_0, # of connection points: 2
#     Edge 70, Type (0, 0), BuildingBlock: XIVTED_clean_linker_0, # of connection points: 2
#     Edge 71, Type (0, 0), BuildingBlock: XIVTED_clean_linker_0, # of connection points: 2
#     Edge 72, Type (0, 0), BuildingBlock: XIVTED_clean_linker_0, # of connection points: 2
#     Edge 73, Type (0, 0), BuildingBlock: XIVTED_clean_linker_0, # of connection points: 2
#     Edge 74, Type (0, 0), BuildingBlock: XIVTED_clean_linker_0, # of connection points: 2
#     Edge 75, Type (0, 0), BuildingBlock: XIVTED_clean_linker_0, # of connection points: 2
#     Edge 76, Type (0, 0), BuildingBlock: XIVTED_clean_linker_0, # of connection points: 2
#     Edge 77, Type (0, 0), BuildingBlock: XIVTED_clean_linker_0, # of connection points: 2
#     Edge 78, Type (0, 0), BuildingBlock: XIVTED_clean_linker_0, # of connection points: 2
#     Edge 79, Type (0, 0), BuildingBlock: XIVTED_clean_linker_0, # of connection points: 2
#     Edge 80, Type (0, 0), BuildingBlock: XIVTED_clean_linker_0, # of connection points: 2
#     Edge 81, Type (0, 0), BuildingBlock: XIVTED_clean_linker_0, # of connection points: 2
#     Edge 82, Type (0, 0), BuildingBlock: XIVTED_clean_linker_0, # of connection points: 2
#     Edge 83, Type (0, 0), BuildingBlock: XIVTED_clean_linker_0, # of connection points: 2
#     Edge 84, Type (0, 0), BuildingBlock: XIVTED_clean_linker_0, # of connection points: 2
#     Edge 85, Type (0, 0), BuildingBlock: XIVTED_clean_linker_0, # of connection points: 2
#     Edge 86, Type (0, 0), BuildingBlock: XIVTED_clean_linker_0, # of connection points: 2
#     Edge 87, Type (0, 0), BuildingBlock: XIVTED_clean_linker_0, # of connection points: 2
#     Edge 88, Type (0, 0), BuildingBlock: XIVTED_clean_linker_0, # of connection points: 2
#     Edge 89, Type (0, 0), BuildingBlock: XIVTED_clean_linker_0, # of connection points: 2
#     Edge 90, Type (0, 0), BuildingBlock: XIVTED_clean_linker_0, # of connection points: 2
#     Edge 91, Type (0, 0), BuildingBlock: XIVTED_clean_linker_0, # of connection points: 2
#     Edge 92, Type (0, 0), BuildingBlock: XIVTED_clean_linker_0, # of connection points: 2
#     Edge 93, Type (0, 0), BuildingBlock: XIVTED_clean_linker_0, # of connection points: 2
#     Edge 94, Type (0, 0), BuildingBlock: XIVTED_clean_linker_0, # of connection points: 2
#     Edge 95, Type (0, 0), BuildingBlock: XIVTED_clean_linker_0, # of connection points: 2
# Relax obj value: 0.049
# Max RMSD: 0.080
# Mean RMSD: 0.075
data_MOF--net-ukd--node1-QUQFOY_clean_sbu_3--edge1-XIVTED_clean_linker_0
_symmetry_space_group_name_H-M    P1
_symmetry_Int_Tables_number       1
_symmetry_cell_setting            triclinic
loop_
_symmetry_equiv_pos_as_xyz
'x, y, z'
_cell_length_a     47.050136
_cell_length_b     46.717065
_cell_length_c     76.704282
_cell_angle_alpha  89.902018
_cell_angle_beta   90.059098
_cell_angle_gamma 89.969134
loop_
_atom_site_label
_atom_site_type_symbol
_atom_site_fract_x
_atom_site_fract_y
_atom_site_fract_z
_atom_type_partial_charge
C0 C 0.19794 0.20961 0.29605 0.0
O1 O 0.17143 0.20704 0.29872 0.0
Cd2 Cd 0.15038 0.18408 0.3236 0.0
O3 O 0.21602 0.20087 0.30723 0.0
Cd4 Cd 0.21506 0.18017 0.33697 0.0
C5 C 0.17368 0.2333 0.35303 0.0
O6 O 0.17907 0.14396 0.33094 0.0
O7 O 0.1896 0.14999 0.35797 0.0
O8 O 0.25889 0.15541 0.32926 0.0
C9 C 0.17565 0.13618 0.34662 0.0
O10 O 0.15278 0.2198 0.34645 0.0
C11 C 0.27192 0.16122 0.34332 0.0
O12 O 0.19926 0.22569 0.35007 0.0
O13 O 0.25881 0.17673 0.35428 0.0
C14 C 0.03222 0.94288 0.541 0.0
O15 O 0.04351 0.9183 0.54246 0.0
Cd16 Cd 0.06081 0.89811 0.56887 0.0
O17 O 0.03114 0.95988 0.554 0.0
Cd18 Cd 0.04732 0.96139 0.58508 0.0
C19 C -0.0004 0.90939 0.59357 0.0
O20 O 0.09032 0.93357 0.58122 0.0
O21 O 0.07718 0.93886 0.60778 0.0
O22 O 0.06527 0.00896 0.5786 0.0
C23 C 0.09534 0.929 0.59718 0.0
O24 O 0.01733 0.89319 0.5858 0.0
C25 C 0.05674 0.02051 0.59262 0.0
O26 O 0.00405 0.93625 0.59482 0.0
O27 O 0.04233 0.00486 0.60291 0.0
C28 C 0.27242 0.77986 0.79235 0.0
O29 O 0.29652 0.79203 0.79318 0.0
Cd30 Cd 0.31856 0.80883 0.81912 0.0
O31 O 0.25651 0.77813 0.80578 0.0
Cd32 Cd 0.25624 0.79415 0.83688 0.0
C33 C 0.30824 0.74565 0.84291 0.0
O34 O 0.28453 0.83713 0.83349 0.0
O35 O 0.27994 0.82214 0.8598 0.0
O36 O 0.20925 0.81295 0.83081 0.0
C37 C 0.29012 0.84069 0.84948 0.0
O38 O 0.32359 0.76397 0.83495 0.0
C39 C 0.19799 0.80471 0.84498 0.0
O40 O 0.28171 0.75 0.84523 0.0
O41 O 0.21349 0.78999 0.85522 0.0
C42 C 0.43029 0.02975 0.04209 0.0
O43 O 0.41854 0.05412 0.0435 0.0
Cd44 Cd 0.40351 0.07445 0.07035 0.0
O45 O 0.43232 0.01305 0.05522 0.0
Cd46 Cd 0.41751 0.01064 0.08648 0.0
C47 C 0.46671 0.06161 0.09324 0.0
O48 O 0.37498 0.0395 0.08396 0.0
O49 O 0.39022 0.03347 0.11009 0.0
O50 O 0.39841 0.96401 0.07917 0.0
C51 C 0.37159 0.04418 0.10007 0.0
O52 O 0.44867 0.07789 0.08575 0.0
C53 C 0.40676 0.95139 0.09291 0.0
O54 O 0.4619 0.03488 0.09508 0.0
O55 O 0.42157 0.96603 0.10353 0.0
C56 C 0.18922 0.7865 0.17809 0.0
O57 O 0.16544 0.79932 0.17726 0.0
Cd58 Cd 0.14491 0.81796 0.15119 0.0
O59 O 0.20544 0.78515 0.1648 0.0
Cd60 Cd 0.20739 0.80262 0.13408 0.0
C61 C 0.15452 0.75568 0.12658 0.0
O62 O 0.17991 0.84618 0.13754 0.0
O63 O 0.18525 0.83195 0.11115 0.0
O64 O 0.25434 0.82032 0.14129 0.0
C65 C 0.17505 0.8504 0.12151 0.0
O66 O 0.13928 0.7741 0.1345 0.0
C67 C 0.26631 0.81207 0.12736 0.0
O68 O 0.18128 0.75935 0.12486 0.0
O69 O 0.25114 0.7979 0.11668 0.0
C70 C 0.43311 0.94168 0.43092 0.0
O71 O 0.42133 0.9173 0.42982 0.0
Cd72 Cd 0.40662 0.89617 0.4031 0.0
O73 O 0.43529 0.9578 0.41754 0.0
Cd74 Cd 0.42077 0.95862 0.38623 0.0
C75 C 0.47021 0.90754 0.38064 0.0
O76 O 0.37765 0.93041 0.38893 0.0
O77 O 0.39358 0.9353 0.36286 0.0
O78 O 0.40227 0.00583 0.39264 0.0
C79 C 0.37441 0.92555 0.37283 0.0
O80 O 0.45206 0.89153 0.3882 0.0
C81 C 0.41041 0.01749 0.37855 0.0
O82 O 0.46532 0.93416 0.37834 0.0
O83 O 0.42495 0.0021 0.3682 0.0
C84 C 0.27212 0.18172 0.68192 0.0
O85 O 0.29603 0.16924 0.68074 0.0
Cd86 Cd 0.31725 0.15216 0.65463 0.0
O87 O 0.25572 0.18382 0.66871 0.0
Cd88 Cd 0.25413 0.16816 0.63757 0.0
C89 C 0.30707 0.21552 0.63097 0.0
O90 O 0.28218 0.12505 0.64044 0.0
O91 O 0.27668 0.14009 0.61422 0.0
O92 O 0.20716 0.14946 0.64372 0.0
C93 C 0.2874 0.1216 0.6244 0.0
O94 O 0.32244 0.19692 0.6387 0.0
C95 C 0.19546 0.15894 0.62995 0.0
O96 O 0.28036 0.21172 0.62906 0.0
O97 O 0.21078 0.17419 0.61992 0.0
C98 C 0.01544 0.02442 0.92781 0.0
O99 O 0.02252 0.05026 0.92501 0.0
Cd100 Cd 0.04392 0.06834 0.89897 0.0
O101 O 0.02018 0.00517 0.9164 0.0
Cd102 Cd 0.04145 0.00287 0.88671 0.0
C103 C -0.00948 0.04731 0.87134 0.0
O104 O 0.08073 0.03597 0.8915 0.0
O105 O 0.07141 0.02651 0.8647 0.0
O106 O 0.06356 0.9576 0.89494 0.0
C107 C 0.08745 0.03889 0.87562 0.0
O108 O 0.00561 0.06753 0.87752 0.0
C109 C 0.05698 0.94448 0.88102 0.0
O110 O -0.00307 0.02117 0.87407 0.0
O111 O 0.04197 0.95815 0.87002 0.0
C112 C 0.71308 0.81714 0.61755 0.0
O113 O 0.72143 0.80327 0.6043 0.0
Cd114 Cd 0.7611 0.77068 0.60584 0.0
O115 O 0.72511 0.81348 0.63225 0.0
Cd116 Cd 0.76293 0.7844 0.64569 0.0
C117 C 0.81412 0.81472 0.62145 0.0
O118 O 0.75558 0.7387 0.63005 0.0
O119 O 0.79344 0.74303 0.64585 0.0
O120 O 0.72873 0.77748 0.66879 0.0
C121 C 0.77763 0.72721 0.63661 0.0
O122 O 0.80392 0.79913 0.60937 0.0
C123 C 0.74573 0.78233 0.68128 0.0
O124 O 0.80211 0.81591 0.63633 0.0
O125 O 0.77091 0.78963 0.67726 0.0
C126 C 0.90633 0.96849 0.36324 0.0
O127 O 0.91535 0.98015 0.34935 0.0
Cd128 Cd 0.9412 0.02433 0.35036 0.0
O129 O 0.91246 0.9792 0.37802 0.0
Cd130 Cd 0.9407 0.01917 0.39023 0.0
C131 C 0.89536 0.06725 0.37314 0.0
O132 O 0.98142 0.02 0.36984 0.0
O133 O 0.97705 0.05531 0.38786 0.0
O134 O 0.95905 0.98552 0.41161 0.0
C135 C -0.00804 0.04244 0.37659 0.0
O136 O 0.90629 0.06056 0.35854 0.0
C137 C 0.95292 0.00056 0.42484 0.0
O138 O 0.90331 0.05499 0.38713 0.0
O139 O 0.94023 0.02412 0.42204 0.0
C140 C 0.75261 0.16016 0.11514 0.0
O141 O 0.74413 0.17394 0.10185 0.0
Cd142 Cd 0.70325 0.20492 0.10316 0.0
O143 O 0.74022 0.16338 0.12974 0.0
Cd144 Cd 0.70136 0.19168 0.14272 0.0
C145 C 0.65197 0.15865 0.11848 0.0
O146 O 0.70689 0.23784 0.12704 0.0
O147 O 0.66886 0.2315 0.14241 0.0
O148 O 0.73511 0.20009 0.16587 0.0
C149 C 0.68419 0.2482 0.13342 0.0
O150 O 0.66177 0.17444 0.10635 0.0
C151 C 0.71827 0.19465 0.17834 0.0
O152 O 0.66361 0.15844 0.1335 0.0
O153 O 0.69336 0.18646 0.17429 0.0
C154 C 0.56047 0.00573 0.865 0.0
O155 O 0.55085 -0.00595 0.8513 0.0
Cd156 Cd 0.52491 0.95004 0.85272 0.0
O157 O 0.55481 -0.00482 0.87992 0.0
Cd158 Cd 0.52623 0.95552 0.89236 0.0
C159 C 0.5707 0.90669 0.87543 0.0
O160 O 0.48504 0.95506 0.8723 0.0
O161 O 0.48979 0.91939 0.89008 0.0
O162 O 0.50779 -0.0107 0.91353 0.0
C163 C 0.47452 0.93264 0.87911 0.0
O164 O 0.55958 0.91343 0.86086 0.0
C165 C 0.51375 0.97429 0.92685 0.0
O166 O 0.56316 0.91917 0.88941 0.0
O167 O 0.52659 0.95079 0.9242 0.0
C168 C 0.71168 0.15537 0.85699 0.0
O169 O 0.72297 0.16557 0.87066 0.0
Cd170 Cd 0.76682 0.19149 0.8693 0.0
O171 O 0.72258 0.16037 0.84211 0.0
Cd172 Cd 0.76229 0.18824 0.82934 0.0
C173 C 0.8102 0.14411 0.84783 0.0
O174 O 0.76244 0.23043 0.84874 0.0
O175 O 0.79796 0.22523 0.83115 0.0
O176 O 0.72852 0.20516 0.80767 0.0
C177 C 0.78483 0.2408 0.84198 0.0
O178 O 0.80311 0.15605 0.86208 0.0
C179 C 0.74367 0.19897 0.79453 0.0
O180 O 0.79825 0.15104 0.83354 0.0
O181 O 0.76733 0.18679 0.79753 0.0
C182 C 0.56376 0.9692 0.60694 0.0
O183 O 0.55327 0.97984 0.62071 0.0
Cd184 Cd 0.52598 0.02305 0.61974 0.0
O185 O 0.55821 0.98028 0.59214 0.0
Cd186 Cd 0.52858 0.01948 0.58003 0.0
C187 C 0.57139 0.06844 0.59829 0.0
O188 O 0.48689 0.01788 0.59959 0.0
O189 O 0.49103 0.05444 0.58243 0.0
O190 O 0.51183 0.98523 0.55873 0.0
C191 C 0.47588 0.04027 0.593 0.0
O192 O 0.55998 0.06066 0.61256 0.0
C193 C 0.51696 0.0006 0.54546 0.0
O194 O 0.56457 0.0566 0.58396 0.0
O195 O 0.52869 0.02468 0.54816 0.0
C196 C 0.75941 0.8137 0.3601 0.0
O197 O 0.7518 0.80112 0.37399 0.0
Cd198 Cd 0.71077 0.7709 0.37478 0.0
O199 O 0.7461 0.80922 0.3459 0.0
Cd200 Cd 0.70648 0.77869 0.33549 0.0
C201 C 0.65884 0.8156 0.35811 0.0
O202 O 0.71285 0.73463 0.35278 0.0
O203 O 0.67107 0.74244 0.34203 0.0
O204 O 0.73712 0.76338 0.31212 0.0
C205 C 0.68816 0.7253 0.3494 0.0
O206 O 0.66891 0.80112 0.37078 0.0
C207 C 0.71971 0.76792 0.2998 0.0
O208 O 0.67009 0.81409 0.34303 0.0
O209 O 0.69583 0.77869 0.30392 0.0
C210 C 0.90331 0.00896 0.10759 0.0
O211 O 0.91697 0.00066 0.12095 0.0
Cd212 Cd 0.9478 0.95957 0.12012 0.0
O213 O 0.90653 -0.00379 0.09307 0.0
Cd214 Cd 0.93475 0.95667 0.08057 0.0
C215 C 0.90181 0.90761 0.10536 0.0
O216 O 0.98044 0.96308 0.09621 0.0
O217 O 0.97461 0.92423 0.08133 0.0
O218 O 0.94319 -0.01035 0.05684 0.0
C219 C -0.00899 0.94016 0.09011 0.0
O220 O 0.91748 0.91772 0.11741 0.0
C221 C 0.93771 0.97217 0.04466 0.0
O222 O 0.90174 0.91893 0.09023 0.0
O223 O 0.92945 0.94732 0.04913 0.0
C224 C 0.69228 0.70168 0.79719 0.0
O225 O 0.66649 0.69461 0.7995 0.0
Cd226 Cd 0.64775 0.67303 0.82542 0.0
O227 O 0.71088 0.69662 0.80889 0.0
Cd228 Cd 0.71265 0.67474 0.8384 0.0
C229 C 0.66877 0.72642 0.85329 0.0
O230 O 0.67929 0.63563 0.83345 0.0
O231 O 0.68909 0.64456 0.86028 0.0
O232 O 0.75739 0.65244 0.83006 0.0
C233 C 0.67638 0.62879 0.84933 0.0
O234 O 0.64865 0.71161 0.84681 0.0
C235 C 0.77059 0.65895 0.84394 0.0
O236 O 0.69471 0.71957 0.85092 0.0
O237 O 0.75714 0.67386 0.85506 0.0
C238 C 0.52972 0.44627 0.04344 0.0
O239 O 0.54143 0.42186 0.04479 0.0
Cd240 Cd 0.55734 0.40107 0.07136 0.0
O241 O 0.52811 0.46294 0.05657 0.0
Cd242 Cd 0.54379 0.46423 0.08773 0.0
C243 C 0.49451 0.41317 0.09442 0.0
O244 O 0.58656 0.43556 0.08489 0.0
O245 O 0.57139 0.44082 0.11107 0.0
O246 O 0.56299 0.51124 0.08126 0.0
C247 C 0.59015 0.43066 0.10096 0.0
O248 O 0.51243 0.3969 0.08688 0.0
C249 C 0.55419 0.52322 0.09508 0.0
O250 O 0.49948 0.43985 0.09631 0.0
O251 O 0.53912 0.50806 0.1053 0.0
C252 C 0.77153 0.27282 0.29491 0.0
O253 O 0.79739 0.2796 0.29726 0.0
Cd254 Cd 0.81682 0.30028 0.32316 0.0
O255 O 0.75304 0.27765 0.30669 0.0
Cd256 Cd 0.75215 0.29865 0.33645 0.0
C257 C 0.79593 0.24653 0.35085 0.0
O258 O 0.78574 0.33754 0.33176 0.0
O259 O 0.77702 0.32761 0.35855 0.0
O260 O 0.70732 0.32186 0.32913 0.0
C261 C 0.7897 0.34353 0.34766 0.0
O262 O 0.81602 0.2614 0.34439 0.0
C263 C 0.69451 0.31449 0.34299 0.0
O264 O 0.76998 0.25344 0.34855 0.0
O265 O 0.70822 0.29879 0.35361 0.0
C266 C 0.929 0.53272 0.54268 0.0
O267 O 0.91704 0.557 0.544 0.0
Cd268 Cd 0.9019 0.57744 0.57085 0.0
O269 O 0.9314 0.51631 0.55592 0.0
Cd270 Cd 0.91724 0.51475 0.58725 0.0
C271 C 0.96538 0.56689 0.5936 0.0
O272 O 0.87368 0.54241 0.58481 0.0
O273 O 0.88969 0.5369 0.61083 0.0
O274 O 0.89969 0.46714 0.5809 0.0
C275 C 0.87043 0.54684 0.60096 0.0
O276 O 0.94696 0.58279 0.58617 0.0
C277 C 0.90852 0.45563 0.59489 0.0
O278 O 0.96111 0.54008 0.59544 0.0
O279 O 0.92298 0.47133 0.60512 0.0
C280 C 0.68857 0.27966 0.67827 0.0
O281 O 0.66303 0.28719 0.67544 0.0
Cd282 Cd 0.64571 0.3065 0.6485 0.0
O283 O 0.70753 0.283 0.66657 0.0
Cd284 Cd 0.71069 0.30217 0.63641 0.0
C285 C 0.66611 0.25075 0.62217 0.0
O286 O 0.67822 0.34248 0.63967 0.0
O287 O 0.68838 0.33116 0.61329 0.0
O288 O 0.7558 0.32397 0.64455 0.0
C289 C 0.67564 0.34802 0.62359 0.0
O290 O 0.64623 0.26643 0.62814 0.0
C291 C 0.76912 0.31609 0.63099 0.0
O292 O 0.69215 0.25705 0.62468 0.0
O293 O 0.75555 0.30065 0.62019 0.0
C294 C 0.93808 0.44366 0.93059 0.0
O295 O 0.92682 0.419 0.92971 0.0
Cd296 Cd 0.91194 0.39668 0.90342 0.0
O297 O 0.93956 0.45968 0.91713 0.0
Cd298 Cd 0.9242 0.4597 0.88591 0.0
C299 C 0.97477 0.40982 0.8804 0.0
O300 O 0.88232 0.4299 0.88901 0.0
O301 O 0.89744 0.43512 0.8628 0.0
O302 O 0.90431 0.50633 0.89225 0.0
C303 C 0.87907 0.42444 0.87298 0.0
O304 O 0.95725 0.39354 0.8883 0.0
C305 C 0.91212 0.51819 0.87815 0.0
O306 O 0.96913 0.43621 0.87779 0.0
O307 O 0.92699 0.50317 0.86778 0.0
C308 C 0.76921 0.68596 0.18304 0.0
O309 O 0.79339 0.67414 0.18149 0.0
Cd310 Cd 0.81413 0.65917 0.15478 0.0
O311 O 0.75261 0.68834 0.16994 0.0
Cd312 Cd 0.75118 0.67388 0.13852 0.0
C313 C 0.80238 0.72312 0.13214 0.0
O314 O 0.77968 0.63073 0.14076 0.0
O315 O 0.77392 0.64684 0.11478 0.0
O316 O 0.70463 0.65431 0.14491 0.0
C317 C 0.78438 0.62773 0.12463 0.0
O318 O 0.81834 0.70475 0.1396 0.0
C319 C 0.69255 0.66354 0.13121 0.0
O320 O 0.77582 0.7185 0.13021 0.0
O321 O 0.70743 0.67909 0.1211 0.0
C322 C 0.51494 0.52847 0.429 0.0
O323 O 0.52482 0.55376 0.42833 0.0
Cd324 Cd 0.5497 0.57601 0.40497 0.0
O325 O 0.51838 0.5111 0.41632 0.0
Cd326 Cd 0.54129 0.5115 0.38684 0.0
C327 C 0.49665 0.56489 0.37419 0.0
O328 O 0.58123 0.54027 0.39559 0.0
O329 O 0.57867 0.53305 0.36807 0.0
O330 O 0.55764 0.46321 0.39314 0.0
C331 C 0.59179 0.54451 0.38068 0.0
O332 O 0.51225 0.58117 0.38346 0.0
C333 C 0.55199 0.45315 0.37816 0.0
O334 O 0.50099 0.53791 0.37369 0.0
O335 O 0.53966 0.46987 0.36746 0.0
C336 C 0.20475 0.31464 0.11501 0.0
O337 O 0.21395 0.30293 0.1012 0.0
Cd338 Cd 0.25574 0.27325 0.10082 0.0
O339 O 0.21729 0.31036 0.12949 0.0
Cd340 Cd 0.25859 0.28299 0.14042 0.0
C341 C 0.30731 0.31829 0.11658 0.0
O342 O 0.25488 0.23811 0.1236 0.0
O343 O 0.29412 0.24611 0.13759 0.0
O344 O 0.23432 0.26085 0.16458 0.0
C345 C 0.2787 0.22883 0.12905 0.0
O346 O 0.29708 0.30386 0.10398 0.0
C347 C 0.24701 0.27459 0.17648 0.0
O348 O 0.29625 0.31675 0.13171 0.0
O349 O 0.26471 0.29361 0.17177 0.0
C350 C 0.40926 0.458 0.86474 0.0
O351 O 0.42151 0.46672 0.85099 0.0
Cd352 Cd 0.45132 0.50864 0.85117 0.0
O353 O 0.4135 0.47071 0.87917 0.0
Cd354 Cd 0.44196 0.51075 0.89083 0.0
C355 C 0.4058 0.55949 0.86764 0.0
O356 O 0.48659 0.50627 0.87377 0.0
O357 O 0.4803 0.5447 0.889 0.0
O358 O 0.4541 0.4779 0.91396 0.0
C359 C 0.49666 0.52953 0.87972 0.0
O360 O 0.42057 0.54991 0.85503 0.0
C361 C 0.44871 0.4948 0.92645 0.0
O362 O 0.40723 0.54784 0.88265 0.0
O363 O 0.43881 0.51928 0.92246 0.0
C364 C 0.25421 0.65582 0.61411 0.0
O365 O 0.2458 0.66898 0.60056 0.0
Cd366 Cd 0.2063 0.7017 0.60121 0.0
O367 O 0.24239 0.66045 0.62875 0.0
Cd368 Cd 0.20464 0.69115 0.64099 0.0
C369 C 0.15347 0.65879 0.61794 0.0
O370 O 0.21179 0.7359 0.62422 0.0
O371 O 0.17313 0.73177 0.63921 0.0
O372 O 0.23806 0.70103 0.66408 0.0
C373 C 0.18929 0.74743 0.63009 0.0
O374 O 0.16338 0.67358 0.60538 0.0
C375 C 0.22101 0.69664 0.67659 0.0
O376 O 0.16572 0.65874 0.63277 0.0
O377 O 0.19614 0.6882 0.67264 0.0
C378 C 0.06017 0.507 0.36618 0.0
O379 O 0.05041 0.49538 0.35249 0.0
Cd380 Cd 0.02525 0.45096 0.35385 0.0
O381 O 0.05465 0.49637 0.38109 0.0
Cd382 Cd 0.02603 0.4566 0.39348 0.0
C383 C 0.07224 0.40924 0.37687 0.0
O384 O -0.01489 0.4552 0.37324 0.0
O385 O -0.00966 0.41961 0.39103 0.0
O386 O 0.00686 0.49048 0.41434 0.0
C387 C 0.97495 0.43255 0.37998 0.0
O388 O 0.06105 0.41563 0.36226 0.0
C389 C 0.01268 0.47568 0.42777 0.0
O390 O 0.06406 0.42135 0.39083 0.0
O391 O 0.02576 0.45224 0.42532 0.0
C392 C 0.21077 0.65748 0.35625 0.0
O393 O 0.22135 0.66969 0.36952 0.0
Cd394 Cd 0.2616 0.70146 0.36727 0.0
O395 O 0.22101 0.66218 0.34117 0.0
Cd396 Cd 0.25858 0.69133 0.32761 0.0
C397 C 0.31198 0.65839 0.34832 0.0
O398 O 0.25445 0.73622 0.34467 0.0
O399 O 0.29102 0.73113 0.32789 0.0
O400 O 0.22386 0.70267 0.30539 0.0
C401 C 0.27642 0.74715 0.33772 0.0
O402 O 0.30404 0.67356 0.3612 0.0
C403 C 0.23985 0.69743 0.29248 0.0
O404 O 0.29757 0.65792 0.33425 0.0
O405 O 0.2645 0.68775 0.29585 0.0
C406 C 0.05561 0.46747 0.10953 0.0
O407 O 0.04344 0.47699 0.12309 0.0
Cd408 Cd 0.01272 0.51823 0.12181 0.0
O409 O 0.05109 0.47916 0.0948 0.0
Cd410 Cd 0.0223 0.5181 0.08209 0.0
C411 C 0.05695 0.56916 0.10413 0.0
O412 O 0.97788 0.51301 0.09916 0.0
O413 O -0.01728 0.55088 0.08317 0.0
O414 O 0.01151 0.48372 0.05961 0.0
C415 C 0.96691 0.53555 0.09274 0.0
O416 O 0.04216 0.56023 0.11692 0.0
C417 C 0.01641 0.50018 0.04679 0.0
O418 O 0.05618 0.5563 0.0895 0.0
O419 O 0.0254 0.52516 0.05031 0.0
C420 C 0.25945 0.30592 0.85865 0.0
O421 O 0.25139 0.29305 0.87235 0.0
Cd422 Cd 0.20913 0.26399 0.87237 0.0
O423 O 0.24612 0.30232 0.84438 0.0
Cd424 Cd 0.20588 0.27414 0.83288 0.0
C425 C 0.15934 0.31157 0.85661 0.0
O426 O 0.20964 0.22873 0.84963 0.0
O427 O 0.17115 0.23656 0.83486 0.0
O428 O 0.23805 0.26124 0.8098 0.0
C429 C 0.18607 0.21941 0.84382 0.0
O430 O 0.16917 0.29647 0.86907 0.0
C431 C 0.22137 0.26703 0.79728 0.0
O432 O 0.16996 0.30972 0.84138 0.0
O433 O 0.19731 0.2776 0.80122 0.0
C434 C 0.40303 0.50241 0.6074 0.0
O435 O 0.41629 0.49379 0.62084 0.0
Cd436 Cd 0.44839 0.45365 0.61984 0.0
O437 O 0.40705 0.49035 0.59274 0.0
Cd438 Cd 0.43606 0.45179 0.57986 0.0
C439 C 0.40424 0.40103 0.60395 0.0
O440 O 0.48094 0.45939 0.59605 0.0
O441 O 0.47747 0.42116 0.58035 0.0
O442 O 0.44264 0.4855 0.55633 0.0
C443 C 0.49275 0.43725 0.58976 0.0
O444 O 0.41953 0.41089 0.61627 0.0
C445 C 0.4379 0.46797 0.54406 0.0
O446 O 0.40398 0.41312 0.58905 0.0
O447 O 0.43113 0.44261 0.54839 0.0
H448 H 0.08118 0.36975 0.40263 0.0
H449 H 0.19986 0.28494 0.34913 0.0
H450 H 0.11244 0.39717 0.35247 0.0
H451 H 0.13249 0.24258 0.37715 0.0
H452 H 0.18094 0.33136 0.35879 0.0
H453 H 0.11304 0.32805 0.40127 0.0
C454 C 0.0952 0.36731 0.39154 0.0
C455 C 0.094 0.38658 0.37752 0.0
C456 C 0.17087 0.3118 0.3632 0.0
C457 C 0.13062 0.33969 0.37611 0.0
C458 C 0.18173 0.28541 0.35783 0.0
C459 C 0.16751 0.2601 0.3623 0.0
C460 C 0.14609 0.31262 0.37336 0.0
C461 C 0.14387 0.26175 0.37337 0.0
C462 C 0.11326 0.3436 0.39078 0.0
C463 C 0.1125 0.3825 0.36342 0.0
N464 N 0.13373 0.28764 0.37845 0.0
N465 N 0.13003 0.35941 0.36303 0.0
H466 H 0.95646 0.93436 0.61287 0.0
H467 H 0.85139 0.80525 0.59512 0.0
H468 H 0.98125 0.85485 0.58852 0.0
H469 H 0.83834 0.85923 0.64006 0.0
H470 H 0.89633 0.82906 0.58971 0.0
H471 H 0.91072 0.91221 0.62091 0.0
C472 C 0.95243 0.9123 0.60932 0.0
C473 C 0.97271 0.89653 0.5999 0.0
C474 C 0.8837 0.83573 0.60078 0.0
C475 C 0.92065 0.87149 0.60879 0.0
C476 C 0.85789 0.82225 0.60384 0.0
C477 C 0.84103 0.83019 0.61811 0.0
C478 C 0.89282 0.85767 0.6119 0.0
C479 C 0.85077 0.85237 0.62896 0.0
C480 C 0.92642 0.89973 0.61394 0.0
C481 C 0.96637 0.86799 0.5957 0.0
N482 N 0.87607 0.86552 0.62559 0.0
N483 N 0.94088 0.85657 0.60001 0.0
H484 H 0.3657 0.58413 0.88936 0.0
H485 H 0.36029 0.72621 0.83336 0.0
H486 H 0.40639 0.59437 0.83928 0.0
H487 H 0.28705 0.70244 0.86408 0.0
H488 H 0.38196 0.6805 0.8401 0.0
H489 H 0.33998 0.62942 0.88429 0.0
C490 C 0.36912 0.59573 0.87731 0.0
C491 C 0.38837 0.58549 0.86476 0.0
C492 C 0.36114 0.68522 0.8454 0.0
C493 C 0.35954 0.63706 0.85912 0.0
C494 C 0.34874 0.71146 0.84165 0.0
C495 C 0.32165 0.71822 0.84809 0.0
C496 C 0.34667 0.66544 0.85586 0.0
C497 C 0.30789 0.69802 0.85876 0.0
C498 C 0.35441 0.62144 0.87444 0.0
C499 C 0.39189 0.60133 0.84936 0.0
N500 N 0.32062 0.67243 0.86239 0.0
N501 N 0.37788 0.62638 0.84708 0.0
H502 H 0.50888 0.03854 0.1143 0.0
H503 H 0.61781 0.16191 0.08997 0.0
H504 H 0.48761 0.11356 0.08395 0.0
H505 H 0.6266 0.117 0.13896 0.0
H506 H 0.57361 0.13672 0.08465 0.0
H507 H 0.55526 0.06049 0.12122 0.0
C508 C 0.51386 0.05955 0.10915 0.0
C509 C 0.49431 0.07419 0.09851 0.0
C510 C 0.58519 0.13231 0.09657 0.0
C511 C 0.54705 0.09891 0.10609 0.0
C512 C 0.61057 0.1466 0.09961 0.0
C513 C 0.62593 0.14176 0.11502 0.0
C514 C 0.57496 0.11271 0.10891 0.0
C515 C 0.61532 0.12153 0.12696 0.0
C516 C 0.54021 0.07202 0.11314 0.0
C517 C 0.50185 0.10139 0.09223 0.0
N518 N 0.59039 0.10764 0.12366 0.0
N519 N 0.52761 0.11267 0.09599 0.0
H520 H 0.09944 0.74024 0.13155 0.0
H521 H 0.10036 0.59038 0.08351 0.0
H522 H 0.17762 0.70972 0.1086 0.0
H523 H 0.05117 0.60887 0.12965 0.0
H524 H 0.12562 0.63624 0.08742 0.0
H525 H 0.07718 0.69482 0.12489 0.0
C526 C 0.11198 0.72409 0.12497 0.0
C527 C 0.14065 0.72882 0.12082 0.0
C528 C 0.10937 0.62997 0.09666 0.0
C529 C 0.11492 0.67642 0.11312 0.0
C530 C 0.09493 0.60397 0.09444 0.0
C531 C 0.0736 0.5958 0.10627 0.0
C532 C 0.10182 0.64799 0.11053 0.0
C533 C 0.06746 0.61415 0.12022 0.0
C534 C 0.09919 0.69805 0.12125 0.0
C535 C 0.15554 0.70692 0.11216 0.0
N536 N 0.08128 0.63942 0.12185 0.0
N537 N 0.14248 0.68151 0.1086 0.0
H538 H 0.49125 0.85616 0.39108 0.0
H539 H 0.63334 0.85509 0.33618 0.0
H540 H 0.51279 0.92995 0.35974 0.0
H541 H 0.62416 0.81424 0.38642 0.0
H542 H 0.58747 0.8794 0.34087 0.0
H543 H 0.53768 0.83596 0.38509 0.0
C544 C 0.50566 0.86811 0.38281 0.0
C545 C 0.49806 0.89492 0.37596 0.0
C546 C 0.5958 0.86527 0.35085 0.0
C547 C 0.55161 0.87164 0.36906 0.0
C548 C 0.62185 0.85137 0.3482 0.0
C549 C 0.63258 0.83248 0.3609 0.0
C550 C 0.58029 0.85967 0.3661 0.0
C551 C 0.61684 0.82853 0.37624 0.0
C552 C 0.5323 0.85658 0.3795 0.0
C553 C 0.51785 0.90929 0.36536 0.0
N554 N 0.59143 0.84172 0.3783 0.0
N555 N 0.54381 0.89739 0.36215 0.0
H556 H 0.3607 0.23317 0.6385 0.0
H557 H 0.36097 0.37773 0.58413 0.0
H558 H 0.28501 0.25965 0.61087 0.0
H559 H 0.41035 0.36367 0.63087 0.0
H560 H 0.33584 0.33233 0.58969 0.0
H561 H 0.38294 0.27831 0.63109 0.0
C562 C 0.34871 0.2484 0.63077 0.0
C563 C 0.32078 0.24258 0.6254 0.0
C564 C 0.35209 0.33944 0.5987 0.0
C565 C 0.34645 0.29468 0.61686 0.0
C566 C 0.36648 0.3652 0.59553 0.0
C567 C 0.38784 0.37449 0.60704 0.0
C568 C 0.35964 0.32279 0.61324 0.0
C569 C 0.39405 0.35748 0.62164 0.0
C570 C 0.36146 0.2743 0.62662 0.0
C571 C 0.30651 0.26333 0.61537 0.0
N572 N 0.38021 0.33243 0.62422 0.0
N573 N 0.31955 0.28857 0.61137 0.0
H574 H 0.98075 0.09142 0.84891 0.0
H575 H 0.82305 0.10532 0.87316 0.0
H576 H 0.93899 0.02125 0.87494 0.0
H577 H 0.85104 0.13612 0.823 0.0
H578 H 0.8657 0.07532 0.87499 0.0
H579 H 0.93427 0.1095 0.83949 0.0
C580 C 0.96179 0.07952 0.8523 0.0
C581 C 0.96356 0.05488 0.86271 0.0
C582 C 0.86221 0.08824 0.86345 0.0
C583 C 0.91058 0.07584 0.85251 0.0
C584 C 0.83803 0.10544 0.86244 0.0
C585 C 0.8337 0.12325 0.84795 0.0
C586 C 0.88258 0.08961 0.85013 0.0
C587 C 0.85365 0.12261 0.83437 0.0
C588 C 0.93535 0.08978 0.84691 0.0
C589 C 0.93844 0.04025 0.86685 0.0
N590 N 0.87763 0.10653 0.83596 0.0
N591 N 0.91284 0.05135 0.86209 0.0
H592 H 0.82984 0.5759 0.58236 0.0
H593 H 0.81367 0.69395 0.65544 0.0
H594 H 0.86504 0.56739 0.63411 0.0
H595 H 0.76023 0.69264 0.6097 0.0
H596 H 0.83081 0.64625 0.6482 0.0
H597 H 0.80185 0.61688 0.59234 0.0
C598 C 0.83136 0.58238 0.59588 0.0
C599 C 0.85012 0.5685 0.60737 0.0
C600 C 0.8151 0.65617 0.63982 0.0
C601 C 0.81843 0.61544 0.61879 0.0
C602 C 0.80539 0.68348 0.64391 0.0
C603 C 0.78574 0.69732 0.63304 0.0
C604 C 0.80548 0.64273 0.62456 0.0
C605 C 0.77548 0.68268 0.61838 0.0
C606 C 0.81537 0.60576 0.60157 0.0
C607 C 0.8511 0.57766 0.62476 0.0
N608 N 0.78581 0.65627 0.6144 0.0
N609 N 0.83581 0.6008 0.62987 0.0
H610 H 0.15496 0.12617 0.37933 0.0
H611 H 0.02473 0.02885 0.34813 0.0
H612 H 0.14188 0.10358 0.32536 0.0
H613 H 0.02463 0.0794 0.39518 0.0
H614 H 0.0721 0.04787 0.34111 0.0
H615 H 0.11186 0.09991 0.38699 0.0
C616 C 0.14323 0.11538 0.36911 0.0
C617 C 0.15183 0.11733 0.35165 0.0
C618 C 0.06166 0.05464 0.35299 0.0
C619 C 0.1025 0.0873 0.36034 0.0
C620 C 0.03473 0.0438 0.357 0.0
C621 C 0.0207 0.05277 0.37217 0.0
C622 C 0.0747 0.07412 0.3644 0.0
C623 C 0.03457 0.07213 0.38325 0.0
C624 C 0.11856 0.10053 0.37349 0.0
C625 C 0.13583 0.10282 0.33897 0.0
N626 N 0.0608 0.08211 0.37916 0.0
N627 N 0.11181 0.0885 0.34355 0.0
H628 H 0.63081 0.40265 0.08197 0.0
H629 H 0.64604 0.27911 0.1521 0.0
H630 H 0.59453 0.40727 0.13356 0.0
H631 H 0.70149 0.2849 0.10746 0.0
H632 H 0.62799 0.32683 0.14563 0.0
H633 H 0.6584 0.36077 0.09109 0.0
C634 C 0.62895 0.3951 0.09528 0.0
C635 C 0.61006 0.40823 0.10697 0.0
C636 C 0.64431 0.31787 0.13732 0.0
C637 C 0.64129 0.36023 0.11739 0.0
C638 C 0.65454 0.29055 0.14096 0.0
C639 C 0.67511 0.27797 0.1302 0.0
C640 C 0.65434 0.33263 0.12261 0.0
C641 C 0.68557 0.29385 0.11606 0.0
C642 C 0.64472 0.37122 0.10047 0.0
C643 C 0.60862 0.39767 0.12407 0.0
N644 N 0.67477 0.32027 0.11251 0.0
N645 N 0.62371 0.37407 0.12869 0.0
H646 H 0.43974 0.94918 0.85209 0.0
H647 H 0.31357 0.84529 0.88195 0.0
H648 H 0.44318 0.89363 0.89707 0.0
H649 H 0.32012 0.8791 0.82969 0.0
H650 H 0.35665 0.87128 0.88988 0.0
H651 H 0.39186 0.93103 0.84565 0.0
C652 C 0.43038 0.93329 0.86063 0.0
C653 C 0.4455 0.92269 0.87504 0.0
C654 C 0.34852 0.8732 0.87671 0.0
C655 C 0.3909 0.90225 0.86793 0.0
C656 C 0.32385 0.85849 0.8722 0.0
C657 C 0.31346 0.85973 0.85507 0.0
C658 C 0.36287 0.88939 0.86404 0.0
C659 C 0.32757 0.87734 0.84301 0.0
C660 C 0.40313 0.92297 0.85696 0.0
C661 C 0.43241 0.90219 0.88572 0.0
N662 N 0.35173 0.89134 0.84768 0.0
N663 N 0.40589 0.89266 0.88195 0.0
H664 H 0.8751 0.40108 0.84043 0.0
H665 H 0.76867 0.27587 0.86894 0.0
H666 H 0.84016 0.3945 0.89231 0.0
H667 H 0.82424 0.2719 0.82427 0.0
H668 H 0.78764 0.32358 0.87568 0.0
H669 H 0.84865 0.3583 0.8321 0.0
C670 C 0.86158 0.39085 0.85002 0.0
C671 C 0.8601 0.40115 0.86716 0.0
C672 C 0.79552 0.31224 0.86437 0.0
C673 C 0.82989 0.3521 0.85772 0.0
C674 C 0.78472 0.28509 0.86052 0.0
C675 C 0.7951 0.26985 0.84612 0.0
C676 C 0.81651 0.32426 0.85359 0.0
C677 C 0.81584 0.28277 0.8356 0.0
C678 C 0.84659 0.36635 0.84527 0.0
C679 C 0.8421 0.38711 0.87899 0.0
N680 N 0.82585 0.30919 0.83955 0.0
N681 N 0.82782 0.36314 0.87409 0.0
H682 H 0.31787 0.08293 0.64374 0.0
H683 H 0.44382 0.07903 0.57524 0.0
H684 H 0.31197 0.11953 0.59215 0.0
H685 H 0.44081 0.02147 0.61927 0.0
H686 H 0.39547 0.0943 0.58166 0.0
H687 H 0.36231 0.05944 0.63532 0.0
C688 C 0.32568 0.08566 0.63056 0.0
C689 C 0.31138 0.10348 0.61869 0.0
C690 C 0.40525 0.07818 0.58988 0.0
C691 C 0.3623 0.07707 0.60908 0.0
C692 C 0.43296 0.06959 0.58628 0.0
C693 C 0.44641 0.04909 0.59682 0.0
C694 C 0.39093 0.06653 0.60427 0.0
C695 C 0.43121 0.0374 0.61086 0.0
C696 C 0.35105 0.07228 0.62578 0.0
C697 C 0.32239 0.10618 0.60177 0.0
N698 N 0.40431 0.0465 0.6143 0.0
N699 N 0.34739 0.09345 0.59756 0.0
H700 H 0.64116 0.71578 0.36875 0.0
H701 H 0.62458 0.55441 0.35178 0.0
H702 H 0.71206 0.67255 0.34487 0.0
H703 H 0.60509 0.58816 0.40274 0.0
H704 H 0.65308 0.59748 0.34578 0.0
H705 H 0.62245 0.66937 0.37833 0.0
C706 C 0.65281 0.69643 0.36564 0.0
C707 C 0.67812 0.69771 0.35611 0.0
C708 C 0.6429 0.59505 0.35835 0.0
C709 C 0.65662 0.64495 0.36653 0.0
C710 C 0.62662 0.57066 0.36176 0.0
C711 C 0.61228 0.56789 0.37771 0.0
C712 C 0.64403 0.61698 0.3708 0.0
C713 C 0.61566 0.58948 0.39024 0.0
C714 C 0.64225 0.67011 0.37114 0.0
C715 C 0.69253 0.6722 0.35232 0.0
N716 N 0.63068 0.61345 0.38637 0.0
N717 N 0.68127 0.64661 0.35728 0.0
H718 H 0.14592 0.88974 0.14106 0.0
H719 H 0.02235 0.90208 0.07158 0.0
H720 H 0.15207 0.85564 0.08892 0.0
H721 H 0.02724 0.95878 0.11583 0.0
H722 H 0.07032 0.88533 0.07787 0.0
H723 H 0.10338 0.91639 0.13227 0.0
C724 C 0.13859 0.88821 0.1277 0.0
C725 C 0.15234 0.87015 0.11576 0.0
C726 C 0.06109 0.90165 0.08613 0.0
C727 C 0.1036 0.90023 0.10573 0.0
C728 C 0.03363 0.91111 0.0826 0.0
C729 C 0.02077 0.93167 0.09329 0.0
C730 C 0.0757 0.91242 0.10067 0.0
C731 C 0.03643 0.94284 0.10729 0.0
C732 C 0.11433 0.90342 0.1227 0.0
C733 C 0.14201 0.86908 0.09861 0.0
N734 N 0.06301 0.93277 0.11074 0.0
N735 N 0.11804 0.88355 0.09419 0.0
H736 H 0.69579 0.77777 0.85004 0.0
H737 H 0.57706 0.86634 0.90095 0.0
H738 H 0.6244 0.73706 0.87508 0.0
H739 H 0.61073 0.89299 0.85122 0.0
H740 H 0.60684 0.8231 0.89956 0.0
H741 H 0.67695 0.82464 0.85891 0.0
C742 C 0.67666 0.77868 0.85787 0.0
C743 C 0.66144 0.75369 0.86176 0.0
C744 C 0.60803 0.83878 0.88917 0.0
C745 C 0.64018 0.80675 0.87201 0.0
C746 C 0.5912 0.86339 0.88996 0.0
C747 C 0.59132 0.88297 0.87608 0.0
C748 C 0.62556 0.8343 0.87464 0.0
C749 C 0.60984 0.87817 0.86207 0.0
C750 C 0.66589 0.80533 0.8628 0.0
C751 C 0.63658 0.75595 0.87175 0.0
N752 N 0.62624 0.85424 0.86169 0.0
N753 N 0.62661 0.78208 0.87649 0.0
H754 H 0.45256 0.43606 0.11559 0.0
H755 H 0.3408 0.31781 0.08773 0.0
H756 H 0.4729 0.36193 0.08439 0.0
H757 H 0.33356 0.35735 0.13841 0.0
H758 H 0.38558 0.34252 0.08328 0.0
H759 H 0.40558 0.41482 0.12178 0.0
C760 C 0.44726 0.41538 0.11012 0.0
C761 C 0.46671 0.40079 0.09944 0.0
C762 C 0.37417 0.34588 0.09536 0.0
C763 C 0.41328 0.37695 0.10615 0.0
C764 C 0.34847 0.33188 0.09791 0.0
C765 C 0.33342 0.33529 0.11355 0.0
C766 C 0.38498 0.36377 0.10843 0.0
C767 C 0.34458 0.35395 0.12621 0.0
C768 C 0.42057 0.40333 0.11369 0.0
C769 C 0.45875 0.37403 0.09272 0.0
N770 N 0.3698 0.36757 0.12338 0.0
N771 N 0.43264 0.36318 0.09605 0.0
H772 H 0.8885 0.10728 0.39869 0.0
H773 H 0.76923 0.19506 0.34741 0.0
H774 H 0.85506 0.08054 0.34894 0.0
H775 H 0.84005 0.23606 0.37289 0.0
H776 H 0.78824 0.14826 0.3564 0.0
H777 H 0.85816 0.15012 0.39732 0.0
C778 C 0.8743 0.11012 0.3877 0.0
C779 C 0.87442 0.09066 0.3738 0.0
C780 C 0.79913 0.16761 0.36036 0.0
C781 C 0.83955 0.13887 0.37238 0.0
C782 C 0.78826 0.19422 0.35536 0.0
C783 C 0.8033 0.21926 0.35934 0.0
C784 C 0.82474 0.16631 0.36972 0.0
C785 C 0.82803 0.21712 0.36948 0.0
C786 C 0.85714 0.13449 0.38692 0.0
C787 C 0.85578 0.0953 0.3598 0.0
N788 N 0.8381 0.19102 0.37428 0.0
N789 N 0.83909 0.11902 0.35942 0.0
H790 H 0.1294 0.61648 0.63841 0.0
H791 H -0.01577 0.62037 0.5858 0.0
H792 H 0.11598 0.66546 0.5913 0.0
H793 H 0.009 0.54347 0.61328 0.0
H794 H 0.03002 0.64136 0.5926 0.0
H795 H 0.08326 0.59273 0.63357 0.0
C796 C 0.11686 0.62218 0.62707 0.0
C797 C 0.12656 0.64302 0.61525 0.0
C798 C 0.02547 0.6199 0.59717 0.0
C799 C 0.07402 0.61645 0.60989 0.0
C800 C -0.00079 0.60788 0.59338 0.0
C801 C -0.00726 0.57996 0.59887 0.0
C802 C 0.04554 0.60416 0.60671 0.0
C803 C 0.01319 0.56499 0.60869 0.0
C804 C 0.09068 0.60859 0.62432 0.0
C805 C 0.1095 0.64952 0.60076 0.0
N806 N 0.03879 0.57731 0.61234 0.0
N807 N 0.08405 0.6365 0.59859 0.0
H808 H 0.6102 0.08112 0.62342 0.0
H809 H 0.62164 0.24086 0.60032 0.0
H810 H 0.57812 0.11048 0.57382 0.0
H811 H 0.6922 0.19885 0.62558 0.0
H812 H 0.60389 0.1941 0.59082 0.0
H813 H 0.6394 0.1244 0.62544 0.0
C814 C 0.60962 0.09655 0.61286 0.0
C815 C 0.59169 0.09243 0.59848 0.0
C816 C 0.62359 0.19519 0.59811 0.0
C817 C 0.62443 0.14199 0.60088 0.0
C818 C 0.63365 0.22178 0.60356 0.0
C819 C 0.65832 0.22356 0.61377 0.0
C820 C 0.6378 0.17026 0.60341 0.0
C821 C 0.67314 0.19829 0.61767 0.0
C822 C 0.62637 0.12108 0.61397 0.0
C823 C 0.59174 0.11294 0.5851 0.0
N824 N 0.66226 0.17253 0.61284 0.0
N825 N 0.6074 0.13724 0.58681 0.0
H826 H 0.13039 0.31698 0.8871 0.0
H827 H 0.01416 0.42985 0.85647 0.0
H828 H 0.13113 0.3482 0.83404 0.0
H829 H -0.00055 0.36239 0.89395 0.0
H830 H 0.06111 0.40857 0.85008 0.0
H831 H 0.08689 0.34345 0.89231 0.0
C832 C 0.12156 0.32956 0.87652 0.0
C833 C 0.13433 0.33001 0.86 0.0
C834 C 0.04739 0.39858 0.85964 0.0
C835 C 0.08421 0.36052 0.86601 0.0
C836 C 0.02075 0.41067 0.86332 0.0
C837 C 0.00283 0.39781 0.87571 0.0
C838 C 0.05618 0.37403 0.86878 0.0
C839 C 0.01236 0.37298 0.88421 0.0
C840 C 0.09661 0.34462 0.87953 0.0
C841 C 0.12184 0.34704 0.84692 0.0
N842 N 0.03837 0.36209 0.88068 0.0
N843 N 0.09729 0.36161 0.85018 0.0
H844 H 0.90421 0.87421 0.13438 0.0
H845 H 0.78081 0.76507 0.11019 0.0
H846 H 0.86046 0.88182 0.08504 0.0
H847 H 0.85329 0.74441 0.14246 0.0
H848 H 0.80337 0.81131 0.103 0.0
H849 H 0.87835 0.83036 0.14026 0.0
C850 C 0.88903 0.86677 0.12477 0.0
C851 C 0.8847 0.8817 0.10911 0.0
C852 C 0.8142 0.79645 0.11158 0.0
C853 C 0.85486 0.83114 0.11586 0.0
C854 C 0.80137 0.77019 0.11572 0.0
C855 C 0.81517 0.75081 0.12694 0.0
C856 C 0.84059 0.8034 0.11903 0.0
C857 C 0.84182 0.7585 0.13371 0.0
C858 C 0.87434 0.8416 0.12813 0.0
C859 C 0.86461 0.87087 0.09723 0.0
N860 N 0.85347 0.78418 0.12976 0.0
N861 N 0.85034 0.84615 0.10085 0.0
H862 H 0.48621 0.62151 0.36915 0.0
H863 H 0.3294 0.60949 0.3311 0.0
H864 H 0.44979 0.53811 0.35967 0.0
H865 H 0.35709 0.67292 0.36826 0.0
H866 H 0.37597 0.58541 0.33408 0.0
H867 H 0.44179 0.64351 0.36009 0.0
C868 C 0.46899 0.60776 0.36495 0.0
C869 C 0.47158 0.57784 0.36554 0.0
C870 C 0.37164 0.60463 0.34149 0.0
C871 C 0.42052 0.60313 0.35512 0.0
C872 C 0.34525 0.61835 0.3398 0.0
C873 C 0.33938 0.64309 0.34955 0.0
C874 C 0.3923 0.61637 0.35259 0.0
C875 C 0.36057 0.65375 0.36063 0.0
C876 C 0.44361 0.62039 0.35982 0.0
C877 C 0.4486 0.56124 0.35959 0.0
N878 N 0.38608 0.64046 0.36175 0.0
N879 N 0.42377 0.57413 0.35479 0.0
H880 H 0.36959 0.06883 0.13236 0.0
H881 H 0.25859 0.19065 0.10481 0.0
H882 H 0.33032 0.07213 0.0815 0.0
H883 H 0.32067 0.1998 0.14588 0.0
H884 H 0.2769 0.14232 0.09903 0.0
H885 H 0.34309 0.11168 0.14064 0.0
C886 C 0.35507 0.0783 0.12302 0.0
C887 C 0.35244 0.06715 0.10613 0.0
C888 C 0.28633 0.15492 0.10936 0.0
C889 C 0.32216 0.11618 0.11552 0.0
C890 C 0.27591 0.18242 0.11267 0.0
C891 C 0.28835 0.19929 0.12572 0.0
C892 C 0.30899 0.14421 0.11937 0.0
C893 C 0.31068 0.18762 0.13556 0.0
C894 C 0.34007 0.10284 0.12773 0.0
C895 C 0.33319 0.08024 0.0946 0.0
N896 N 0.32028 0.16082 0.13219 0.0
N897 N 0.31891 0.10423 0.09946 0.0
H898 H 0.53166 0.51347 0.85277 0.0
H899 H 0.65622 0.61957 0.88228 0.0
H900 H 0.52804 0.56757 0.89826 0.0
H901 H 0.64546 0.59204 0.82898 0.0
H902 H 0.61497 0.59088 0.89056 0.0
H903 H 0.57891 0.53317 0.84604 0.0
C904 C 0.54094 0.52922 0.86142 0.0
C905 C 0.52589 0.53915 0.87598 0.0
C906 C 0.62182 0.59092 0.87708 0.0
C907 C 0.57967 0.56134 0.86854 0.0
C908 C 0.64543 0.60719 0.87235 0.0
C909 C 0.65404 0.6085 0.85487 0.0
C910 C 0.60685 0.57565 0.86427 0.0
C911 C 0.63932 0.59187 0.84258 0.0
C912 C 0.56778 0.54048 0.85756 0.0
C913 C 0.5388 0.55958 0.88678 0.0
N914 N 0.61628 0.57625 0.84749 0.0
N915 N 0.56491 0.57 0.88284 0.0
H916 H 0.21303 0.78372 0.60588 0.0
H917 H 0.13473 0.90167 0.57696 0.0
H918 H 0.14723 0.77894 0.64494 0.0
H919 H 0.10281 0.9058 0.62963 0.0
H920 H 0.16324 0.8601 0.58503 0.0
H921 H 0.19662 0.83192 0.59818 0.0
C922 C 0.19517 0.79283 0.61283 0.0
C923 C 0.18117 0.77717 0.62586 0.0
C924 C 0.15069 0.87052 0.59498 0.0
C925 C 0.162 0.83193 0.617 0.0
C926 C 0.13421 0.8942 0.59033 0.0
C927 C 0.11616 0.90705 0.60261 0.0
C928 C 0.14899 0.85959 0.61202 0.0
C929 C 0.11629 0.89646 0.61972 0.0
C930 C 0.18564 0.82024 0.60833 0.0
C931 C 0.15836 0.79008 0.63461 0.0
N932 N 0.13207 0.87306 0.62384 0.0
N933 N 0.14948 0.81665 0.62999 0.0
H934 H 0.9439 0.39314 0.39786 0.0
H935 H 0.82123 0.37984 0.32738 0.0
H936 H 0.94045 0.44811 0.35262 0.0
H937 H 0.81321 0.34857 0.38013 0.0
H938 H 0.86503 0.40465 0.33573 0.0
H939 H 0.89659 0.37532 0.39083 0.0
C940 C 0.93316 0.40146 0.38642 0.0
C941 C 0.94617 0.42204 0.37575 0.0
C942 C 0.85346 0.39265 0.34551 0.0
C943 C 0.89193 0.40164 0.3676 0.0
C944 C 0.82848 0.3785 0.34077 0.0
C945 C 0.81369 0.36191 0.35305 0.0
C946 C 0.86388 0.38983 0.36258 0.0
C947 C 0.82397 0.36099 0.37021 0.0
C948 C 0.90606 0.39141 0.38248 0.0
C949 C 0.93117 0.43221 0.36117 0.0
N950 N 0.84863 0.37443 0.37441 0.0
N951 N 0.90489 0.4217 0.35742 0.0
H952 H 0.31311 0.77934 0.31874 0.0
H953 H 0.33361 0.89739 0.39168 0.0
H954 H 0.2612 0.78189 0.36505 0.0
H955 H 0.36877 0.90418 0.33988 0.0
H956 H 0.30482 0.85679 0.382 0.0
H957 H 0.33199 0.82635 0.32598 0.0
C958 C 0.30556 0.78993 0.33041 0.0
C959 C 0.28579 0.77663 0.34142 0.0
C960 C 0.31853 0.86743 0.3727 0.0
C961 C 0.30751 0.83046 0.34989 0.0
C962 C 0.33498 0.8906 0.37821 0.0
C963 C 0.35391 0.90392 0.36662 0.0
C964 C 0.32128 0.85741 0.35554 0.0
C965 C 0.3547 0.89437 0.3493 0.0
C966 C 0.31626 0.81685 0.3345 0.0
C967 C 0.2765 0.79142 0.35626 0.0
N968 N 0.33892 0.87146 0.34436 0.0
N969 N 0.28776 0.81745 0.36021 0.0
H970 H 0.93156 0.51655 0.1188 0.0
H971 H 0.80662 0.6243 0.09178 0.0
H972 H 0.93508 0.57438 0.07493 0.0
H973 H 0.81374 0.58719 0.14318 0.0
H974 H 0.8486 0.59738 0.0828 0.0
H975 H 0.88359 0.53427 0.12543 0.0
C976 C 0.92214 0.53275 0.11049 0.0
C977 C 0.93737 0.54426 0.09641 0.0
C978 C 0.84081 0.59492 0.096 0.0
C979 C 0.88272 0.5643 0.10378 0.0
C980 C 0.81677 0.61018 0.10112 0.0
C981 C 0.80692 0.60829 0.11833 0.0
C982 C 0.85504 0.57754 0.10815 0.0
C983 C 0.82082 0.58949 0.12983 0.0
C984 C 0.89486 0.54287 0.11429 0.0
C985 C 0.92421 0.56517 0.08603 0.0
N986 N 0.84437 0.575 0.12458 0.0
N987 N 0.89769 0.57455 0.08994 0.0
H988 H 0.14708 0.18945 0.82524 0.0
H989 H 0.12531 0.06838 0.8959 0.0
H990 H 0.20181 0.18278 0.87023 0.0
H991 H 0.09546 0.06069 0.84288 0.0
H992 H 0.15377 0.10992 0.88723 0.0
H993 H 0.12765 0.14234 0.83187 0.0
C994 C 0.1551 0.17796 0.8365 0.0
C995 C 0.17592 0.19007 0.84729 0.0
C996 C 0.14131 0.09887 0.87746 0.0
C997 C 0.15358 0.13616 0.85505 0.0
C998 C 0.12503 0.0752 0.88239 0.0
C999 C 0.10775 0.06127 0.87013 0.0
C1000 C 0.13992 0.10887 0.86022 0.0
C1001 C 0.10832 0.07089 0.8528 0.0
C1002 C 0.14411 0.15099 0.84022 0.0
C1003 C 0.18574 0.17415 0.86161 0.0
N1004 N 0.1238 0.09435 0.84842 0.0
N1005 N 0.17417 0.1481 0.86524 0.0
H1006 H 0.52641 0.4563 0.61661 0.0
H1007 H 0.65622 0.35445 0.5902 0.0
H1008 H 0.52666 0.4006 0.57179 0.0
H1009 H 0.64354 0.38565 0.64256 0.0
H1010 H 0.61422 0.38112 0.58081 0.0
H1011 H 0.57457 0.43967 0.62388 0.0
C1012 C 0.53672 0.44085 0.60821 0.0
C1013 C 0.52249 0.42955 0.59369 0.0
C1014 C 0.62083 0.38237 0.59431 0.0
C1015 C 0.57734 0.41078 0.60179 0.0
C1016 C 0.64486 0.36726 0.59967 0.0
C1017 C 0.65314 0.36751 0.61725 0.0
C1018 C 0.60506 0.398 0.60658 0.0
C1019 C 0.63769 0.38462 0.62893 0.0
C1020 C 0.56409 0.43134 0.61238 0.0
C1021 C 0.53676 0.40959 0.58322 0.0
N1022 N 0.61422 0.39902 0.62341 0.0
N1023 N 0.56336 0.40081 0.58749 0.0
H1024 H 0.24573 0.22131 0.18994 0.0
H1025 H 0.17386 0.25349 0.27775 0.0
H1026 H 0.23852 0.31015 0.20444 0.0
H1027 H 0.24425 0.19429 0.27693 0.0
H1028 H 0.1892 0.27227 0.24929 0.0
H1029 H 0.23709 0.20759 0.22034 0.0
C1030 C 0.24232 0.23788 0.19959 0.0
C1031 C 0.24278 0.26684 0.19484 0.0
C1032 C 0.20137 0.25541 0.25551 0.0
C1033 C 0.23232 0.25134 0.22926 0.0
C1034 C 0.19259 0.24458 0.2716 0.0
C1035 C 0.20783 0.2223 0.27957 0.0
C1036 C 0.22489 0.24313 0.24719 0.0
C1037 C 0.23202 0.21153 0.27117 0.0
C1038 C 0.23759 0.23007 0.21685 0.0
C1039 C 0.2384 0.2876 0.20773 0.0
N1040 N 0.23952 0.22167 0.25522 0.0
N1041 N 0.23279 0.27942 0.22442 0.0
H1042 H 0.03125 0.91194 0.51084 0.0
H1043 H 0.94762 0.03042 0.45545 0.0
H1044 H 0.00442 -0.00713 0.53246 0.0
H1045 H 0.97855 0.9506 0.43445 0.0
H1046 H 0.9658 0.01641 0.48416 0.0
H1047 H 0.01006 0.92536 0.48311 0.0
C1048 C 0.02093 0.9326 0.50977 0.0
C1049 C 0.01971 0.95134 0.52404 0.0
C1050 C 0.96847 0.00194 0.47328 0.0
C1051 C -0.0048 0.96685 0.49216 0.0
C1052 C 0.95802 0.00986 0.45691 0.0
C1053 C 0.96167 -0.00833 0.44253 0.0
C1054 C -0.01738 0.97564 0.47525 0.0
C1055 C 0.97534 0.96533 0.44515 0.0
C1056 C 0.00876 0.94024 0.49389 0.0
C1057 C 0.00595 0.97778 0.52181 0.0
N1058 N -0.01462 0.95817 0.46116 0.0
N1059 N -0.00577 0.98478 0.50615 0.0
H1060 H 0.27354 0.71125 0.68841 0.0
H1061 H 0.22183 0.75309 0.78443 0.0
H1062 H 0.18713 0.69905 0.70575 0.0
H1063 H 0.30344 0.77523 0.76248 0.0
H1064 H 0.20935 0.72929 0.75698 0.0
H1065 H 0.28588 0.72956 0.71709 0.0
C1066 C 0.25719 0.71214 0.69833 0.0
C1067 C 0.22921 0.70382 0.69464 0.0
C1068 C 0.22996 0.73939 0.75823 0.0
C1069 C 0.24313 0.7252 0.72755 0.0
C1070 C 0.23708 0.75303 0.77386 0.0
C1071 C 0.2637 0.76629 0.77577 0.0
C1072 C 0.24969 0.73888 0.7445 0.0
C1073 C 0.28264 0.76544 0.76165 0.0
C1074 C 0.26423 0.72275 0.71471 0.0
C1075 C 0.20896 0.70531 0.70805 0.0
N1076 N 0.27527 0.75197 0.74668 0.0
N1077 N 0.21627 0.71606 0.72392 0.0
H1078 H 0.42935 0.05994 0.01156 0.0
H1079 H 0.51893 0.94457 0.95757 0.0
H1080 H 0.45982 0.98073 0.03393 0.0
H1081 H 0.48667 0.02362 0.93605 0.0
H1082 H 0.49926 0.9579 0.98597 0.0
H1083 H 0.45136 0.04707 0.984 0.0
C1084 C 0.4406 0.03976 0.01068 0.0
C1085 C 0.44268 0.02138 0.02512 0.0
C1086 C 0.49662 0.97237 0.97504 0.0
C1087 C 0.46816 0.00654 -0.00653 0.0
C1088 C 0.50794 0.96483 0.95885 0.0
C1089 C 0.50435 0.98299 0.94442 0.0
C1090 C 0.48163 -0.00178 0.97676 0.0
C1091 C 0.48988 0.00894 0.9468 0.0
C1092 C 0.45325 0.03245 -0.00509 0.0
C1093 C 0.45761 -0.00446 0.02314 0.0
N1094 N 0.47897 0.01571 0.96264 0.0
N1095 N 0.4698 -0.01112 0.0076 0.0
H1096 H 0.18763 0.71553 0.28177 0.0
H1097 H 0.23872 0.75754 0.18557 0.0
H1098 H 0.2721 0.69786 0.26267 0.0
H1099 H 0.15792 0.78155 0.20791 0.0
H1100 H 0.25043 0.73213 0.21261 0.0
H1101 H 0.17504 0.73516 0.25338 0.0
C1102 C 0.20346 0.71547 0.27152 0.0
C1103 C 0.23103 0.70525 0.27462 0.0
C1104 C 0.23015 0.74297 0.21155 0.0
C1105 C 0.21685 0.72812 0.24208 0.0
C1106 C 0.22348 0.75755 0.19615 0.0
C1107 C 0.19733 0.77183 0.19447 0.0
C1108 C 0.21049 0.74259 0.22531 0.0
C1109 C 0.17838 0.771 0.20859 0.0
C1110 C 0.19629 0.72683 0.25531 0.0
C1111 C 0.25061 0.70559 0.26083 0.0
N1112 N 0.18534 0.75664 0.22337 0.0
N1113 N 0.24322 0.71712 0.24516 0.0
H1114 H 0.43295 0.91226 0.46172 0.0
H1115 H 0.52012 0.03071 0.51474 0.0
H1116 H 0.46191 -0.00865 0.43853 0.0
H1117 H 0.49224 0.95008 0.53632 0.0
H1118 H 0.50034 0.0166 0.48646 0.0
H1119 H 0.45517 0.92608 0.48906 0.0
C1120 C 0.4439 0.93262 0.46237 0.0
C1121 C 0.44552 0.95068 0.44777 0.0
C1122 C 0.49872 0.00196 0.49738 0.0
C1123 C 0.47125 0.96662 0.47917 0.0
C1124 C 0.5101 0.00995 0.51349 0.0
C1125 C 0.50773 -0.00843 0.52791 0.0
C1126 C 0.48488 0.97546 0.49573 0.0
C1127 C 0.49447 0.96497 0.52558 0.0
C1128 C 0.45669 0.94047 0.47802 0.0
C1129 C 0.46008 0.97678 0.44946 0.0
N1130 N 0.48346 0.95779 0.50984 0.0
N1131 N 0.47241 0.98397 0.46489 0.0
H1132 H 0.18759 0.26791 0.76797 0.0
H1133 H 0.30367 0.18405 0.71172 0.0
H1134 H 0.27242 0.24769 0.78564 0.0
H1135 H 0.2228 0.21044 0.69033 0.0
H1136 H 0.29177 0.20772 0.73887 0.0
H1137 H 0.19966 0.24852 0.73918 0.0
C1138 C 0.20884 0.25978 0.76573 0.0
C1139 C 0.22898 0.25922 0.77924 0.0
C1140 C 0.27657 0.20842 0.72827 0.0
C1141 C 0.24275 0.23679 0.74655 0.0
C1142 C 0.2833 0.19475 0.71273 0.0
C1143 C 0.26418 0.19517 0.69868 0.0
C1144 C 0.25042 0.22263 0.72993 0.0
C1145 C 0.23816 0.20952 0.70083 0.0
C1146 C 0.21566 0.2486 0.74934 0.0
C1147 C 0.25614 0.24837 0.77566 0.0
N1148 N 0.23199 0.22266 0.7162 0.0
N1149 N 0.26213 0.23744 0.75973 0.0
H1150 H 0.00101 0.06036 0.95443 0.0
H1151 H 0.93916 0.93689 0.01606 0.0
H1152 H -0.00297 0.97158 0.939 0.0
H1153 H 0.94986 0.02499 0.0316 0.0
H1154 H 0.95529 0.94962 0.98666 0.0
H1155 H 0.97794 0.04806 0.98178 0.0
C1156 C -0.0047 0.03823 0.95677 0.0
C1157 C 0.00119 0.01694 0.94441 0.0
C1158 C 0.95384 0.96618 -0.00352 0.0
C1159 C 0.97457 0.00267 0.97584 0.0
C1160 C 0.94448 0.95897 0.01322 0.0
C1161 C 0.94338 0.97989 0.02631 0.0
C1162 C 0.96204 -0.00551 -0.00713 0.0
C1163 C 0.95059 0.00812 0.02195 0.0
C1164 C 0.98203 0.03123 0.97242 0.0
C1165 C -0.00695 -0.01133 0.94819 0.0
N1166 N 0.95977 0.01454 0.00565 0.0
N1167 N 0.98024 0.98233 0.96362 0.0
H1168 H 0.69225 0.77258 0.69348 0.0
H1169 H 0.74523 0.72057 0.78738 0.0
H1170 H 0.7796 0.77848 0.71035 0.0
H1171 H 0.65807 0.71676 0.76982 0.0
H1172 H 0.75803 0.74474 0.76018 0.0
H1173 H 0.67898 0.75605 0.72248 0.0
C1174 C 0.70861 0.77073 0.70337 0.0
C1175 C 0.73711 0.7767 0.69946 0.0
C1176 C 0.7361 0.7387 0.76233 0.0
C1177 C 0.72212 0.75732 0.73269 0.0
C1178 C 0.72878 0.72482 0.77783 0.0
C1179 C 0.70055 0.71642 0.78086 0.0
C1180 C 0.71505 0.7442 0.74976 0.0
C1181 C 0.68012 0.72265 0.76805 0.0
C1182 C 0.70103 0.76119 0.71993 0.0
C1183 C 0.75738 0.77406 0.71281 0.0
N1184 N 0.68781 0.73605 0.75307 0.0
N1185 N 0.74953 0.76425 0.72881 0.0
H1186 H 0.77153 0.20525 0.1906 0.0
H1187 H 0.71843 0.25444 0.28488 0.0
H1188 H 0.68431 0.19776 0.20737 0.0
H1189 H 0.80559 0.2586 0.26743 0.0
H1190 H 0.70556 0.23116 0.2574 0.0
H1191 H 0.78462 0.22138 0.21967 0.0
C1192 C 0.75516 0.20669 0.20048 0.0
C1193 C 0.72675 0.20035 0.19653 0.0
C1194 C 0.7275 0.23709 0.25965 0.0
C1195 C 0.74153 0.21927 0.22987 0.0
C1196 C 0.73486 0.25047 0.2753 0.0
C1197 C 0.76312 0.25868 0.27844 0.0
C1198 C 0.74854 0.23194 0.24706 0.0
C1199 C 0.78352 0.25283 0.26558 0.0
C1200 C 0.76264 0.216 0.21709 0.0
C1201 C 0.70646 0.20247 0.20987 0.0
N1202 N 0.7758 0.23993 0.25048 0.0
N1203 N 0.7142 0.21206 0.22593 0.0
H1204 H 0.77454 0.19549 0.76432 0.0
H1205 H 0.65445 0.27214 0.70678 0.0
H1206 H 0.69295 0.22195 0.78433 0.0
H1207 H 0.73983 0.25683 0.68835 0.0
H1208 H 0.66708 0.25006 0.73453 0.0
H1209 H 0.76084 0.21362 0.73554 0.0
C1210 C 0.75365 0.20486 0.76262 0.0
C1211 C 0.73489 0.20734 0.77675 0.0
C1212 C 0.68306 0.25151 0.72443 0.0
C1213 C 0.71918 0.22823 0.74395 0.0
C1214 C 0.67588 0.26415 0.70855 0.0
C1215 C 0.69614 0.26648 0.6952 0.0
C1216 C 0.71071 0.24099 0.72702 0.0
C1217 C 0.72355 0.25563 0.69829 0.0
C1218 C 0.74591 0.21532 0.74622 0.0
C1219 C 0.70813 0.21971 0.77383 0.0
N1220 N 0.73003 0.24336 0.71388 0.0
N1221 N 0.70112 0.22977 0.75777 0.0
H1222 H 0.68527 0.76872 0.27073 0.0
H1223 H 0.80043 0.68595 0.21301 0.0
H1224 H 0.76982 0.7465 0.28799 0.0
H1225 H 0.71981 0.71407 0.19209 0.0
H1226 H 0.78838 0.70768 0.24072 0.0
H1227 H 0.69667 0.7494 0.2418 0.0
C1228 C 0.70628 0.76006 0.26839 0.0
C1229 C 0.72659 0.7591 0.2818 0.0
C1230 C 0.77325 0.70917 0.23011 0.0
C1231 C 0.73961 0.7368 0.24894 0.0
C1232 C 0.78009 0.69662 0.21423 0.0
C1233 C 0.76111 0.69815 0.20014 0.0
C1234 C 0.74716 0.72339 0.23206 0.0
C1235 C 0.73508 0.71235 0.20261 0.0
C1236 C 0.71272 0.74896 0.25192 0.0
C1237 C 0.75344 0.74758 0.27809 0.0
N1238 N 0.72884 0.72444 0.21829 0.0
N1239 N 0.75908 0.73679 0.26208 0.0
H1240 H 0.50287 0.49676 0.03472 0.0
H1241 H 0.4658 0.44269 0.93836 0.0
H1242 H 0.52631 0.41428 0.0138 0.0
H1243 H 0.44903 0.52897 0.95561 0.0
H1244 H 0.48378 0.43102 0.96724 0.0
H1245 H 0.47993 0.50848 0.00687 0.0
C1246 C 0.50329 0.48117 0.02429 0.0
C1247 C 0.51664 0.45452 0.02661 0.0
C1248 C 0.47605 0.4525 0.9648 0.0
C1249 C 0.49024 0.46767 -0.00513 0.0
C1250 C 0.46566 0.45915 0.9483 0.0
C1251 C 0.45609 0.48691 0.94454 0.0
C1252 C 0.47706 0.47376 0.9777 0.0
C1253 C 0.45626 0.5073 0.95797 0.0
C1254 C 0.49012 0.48784 0.00843 0.0
C1255 C 0.51641 0.43512 0.01265 0.0
N1256 N 0.46683 0.50038 0.97396 0.0
N1257 N 0.50343 0.44208 -0.00255 0.0
H1258 H 0.01797 0.44661 0.4587 0.0
H1259 H 0.92735 0.5622 0.51189 0.0
H1260 H -0.01519 0.5248 0.43653 0.0
H1261 H 0.95885 0.48382 0.5348 0.0
H1262 H 0.94919 0.54889 0.48434 0.0
H1263 H -0.00194 0.4603 0.48697 0.0
C1264 C 0.00672 0.46675 0.45981 0.0
C1265 C 0.00298 0.48457 0.44524 0.0
C1266 C 0.95134 0.53455 0.49537 0.0
C1267 C 0.97999 0.50021 0.47744 0.0
C1268 C 0.93879 0.54211 0.51113 0.0
C1269 C 0.94122 0.5241 0.52572 0.0
C1270 C 0.96651 0.50876 0.4941 0.0
C1271 C 0.95637 0.49835 0.5239 0.0
C1272 C -0.00473 0.4745 0.47593 0.0
C1273 C -0.01184 0.51038 0.4474 0.0
N1274 N 0.96847 0.49146 0.50837 0.0
N1275 N 0.97714 0.51736 0.46317 0.0
H1276 H 0.00096 0.44702 0.03592 0.0
H1277 H 0.96355 0.49519 0.93835 0.0
H1278 H 0.01541 0.53283 0.01694 0.0
H1279 H 0.94201 0.41323 0.96088 0.0
H1280 H -0.01415 0.50887 0.96603 0.0
H1281 H -0.01635 0.43339 0.00723 0.0
C1282 C 0.00074 0.46297 0.02564 0.0
C1283 C 0.00945 0.49116 0.02885 0.0
C1284 C 0.97622 0.48792 0.96486 0.0
C1285 C -0.01075 0.47576 -0.00408 0.0
C1286 C 0.96342 0.48011 0.9491 0.0
C1287 C 0.95078 0.45304 0.94729 0.0
C1288 C 0.97646 0.46844 0.97883 0.0
C1289 C 0.95135 0.43436 0.96163 0.0
C1290 C -0.00927 0.45519 0.00925 0.0
C1291 C 0.00884 0.51086 0.01501 0.0
N1292 N 0.96397 0.44241 0.97674 0.0
N1293 N -0.00134 0.50284 -0.00087 0.0
H1294 H 0.497 0.5623 0.45569 0.0
H1295 H 0.4417 0.43337 0.5152 0.0
H1296 H 0.49687 0.4744 0.43833 0.0
H1297 H 0.44547 0.52177 0.5313 0.0
H1298 H 0.45652 0.4479 0.48582 0.0
H1299 H 0.47322 0.54772 0.4823 0.0
C1300 C 0.49195 0.53986 0.45745 0.0
C1301 C 0.49927 0.5195 0.4448 0.0
C1302 C 0.45378 0.4641 0.49576 0.0
C1303 C 0.47188 0.50255 0.47547 0.0
C1304 C 0.4452 0.45586 0.51248 0.0
C1305 C 0.44263 0.47639 0.52574 0.0
C1306 C 0.45972 0.49304 0.49234 0.0
C1307 C 0.44746 0.50519 0.52154 0.0
C1308 C 0.47825 0.53154 0.47268 0.0
C1309 C 0.49178 0.4908 0.44778 0.0
N1310 N 0.45596 0.5126 0.50527 0.0
N1311 N 0.47868 0.48311 0.4629 0.0
H1312 H 0.30689 0.13134 0.32144 0.0
H1313 H 0.38782 0.05841 0.39977 0.0
H1314 H 0.3 0.16058 0.3746 0.0
H1315 H 0.40792 0.04129 0.34593 0.0
H1316 H 0.36066 0.10037 0.39067 0.0
H1317 H 0.34832 0.10281 0.32964 0.0
C1318 C 0.31437 0.13211 0.33479 0.0
C1319 C 0.2997 0.148 0.34742 0.0
C1320 C 0.37145 0.0878 0.38084 0.0
C1321 C 0.34693 0.11511 0.35696 0.0
C1322 C 0.38699 0.06384 0.38604 0.0
C1323 C 0.39979 0.04612 0.37356 0.0
C1324 C 0.36821 0.0938 0.363 0.0
C1325 C 0.39823 0.05428 0.35597 0.0
C1326 C 0.33808 0.11584 0.33947 0.0
C1327 C 0.3105 0.14842 0.36447 0.0
N1328 N 0.38219 0.07721 0.35117 0.0
N1329 N 0.33316 0.13181 0.36881 0.0
H1330 H 0.05402 0.04596 0.62474 0.0
H1331 H 0.17015 0.16211 0.59779 0.0
H1332 H 0.08296 0.0604 0.57209 0.0
H1333 H 0.15575 0.1327 0.6504 0.0
H1334 H 0.12783 0.13584 0.58837 0.0
H1335 H 0.08047 0.08834 0.63411 0.0
C1336 C 0.06535 0.05843 0.61507 0.0
C1337 C 0.06676 0.04933 0.59767 0.0
C1338 C 0.13363 0.13563 0.60204 0.0
C1339 C 0.09719 0.09763 0.60832 0.0
C1340 C 0.1577 0.15074 0.60744 0.0
C1341 C 0.16677 0.14913 0.62485 0.0
C1342 C 0.11854 0.11892 0.61415 0.0
C1343 C 0.14977 0.13412 0.6368 0.0
C1344 C 0.08056 0.08254 0.62045 0.0
C1345 C 0.08169 0.06638 0.5857 0.0
N1346 N 0.12671 0.11927 0.63118 0.0
N1347 N 0.09666 0.08948 0.59129 0.0
H1348 H 0.15689 0.82761 0.82405 0.0
H1349 H 0.08622 0.90861 0.90286 0.0
H1350 H 0.17504 0.80699 0.87777 0.0
H1351 H 0.0562 0.916 0.84986 0.0
H1352 H 0.11403 0.86667 0.8945 0.0
H1353 H 0.11533 0.85477 0.83343 0.0
C1354 C 0.15178 0.82832 0.83782 0.0
C1355 C 0.16966 0.81538 0.85017 0.0
C1356 C 0.10095 0.87711 0.88475 0.0
C1357 C 0.12242 0.84696 0.86106 0.0
C1358 C 0.08507 0.90109 0.88953 0.0
C1359 C 0.06922 0.9161 0.87697 0.0
C1360 C 0.10134 0.86832 0.86725 0.0
C1361 C 0.06833 0.90525 0.85993 0.0
C1362 C 0.12804 0.84387 0.84318 0.0
C1363 C 0.16191 0.8168 0.86781 0.0
N1364 N 0.0846 0.88234 0.8555 0.0
N1365 N 0.13918 0.83284 0.87277 0.0
H1366 H 0.30595 0.83529 0.14918 0.0
H1367 H 0.38228 0.91253 0.071 0.0
H1368 H 0.29211 0.8126 0.09534 0.0
H1369 H 0.40644 0.92468 0.12475 0.0
H1370 H 0.35537 0.87008 0.07942 0.0
H1371 H 0.34845 0.86173 0.14065 0.0
C1372 C 0.3122 0.83538 0.13559 0.0
C1373 C 0.2952 0.82215 0.1229 0.0
C1374 C 0.367 0.88165 0.08936 0.0
C1375 C 0.34357 0.85286 0.11298 0.0
C1376 C 0.3824 0.90591 0.08454 0.0
C1377 C 0.39621 0.92244 0.09725 0.0
C1378 C 0.36497 0.87412 0.10705 0.0
C1379 C 0.39589 0.9127 0.11456 0.0
C1380 C 0.33649 0.85051 0.13071 0.0
C1381 C 0.30446 0.82271 0.10553 0.0
N1382 N 0.37999 0.88951 0.11901 0.0
N1383 N 0.3277 0.83835 0.10102 0.0
H1384 H 0.68649 0.84609 0.64383 0.0
H1385 H 0.58886 0.93957 0.58021 0.0
H1386 H 0.68565 0.83544 0.58791 0.0
H1387 H 0.58387 0.94283 0.63639 0.0
H1388 H 0.62369 0.90095 0.58261 0.0
H1389 H 0.64847 0.88123 0.64121 0.0
C1390 C 0.67829 0.8511 0.63098 0.0
C1391 C 0.68941 0.83786 0.61605 0.0
C1392 C 0.61485 0.91001 0.5944 0.0
C1393 C 0.64575 0.87824 0.61297 0.0
C1394 C 0.59495 0.93209 0.59305 0.0
C1395 C 0.5835 0.94459 0.60813 0.0
C1396 C 0.62348 0.90047 0.61095 0.0
C1397 C 0.59215 0.93392 0.62441 0.0
C1398 C 0.65649 0.87115 0.6295 0.0
C1399 C 0.67777 0.84514 0.59977 0.0
N1400 N 0.61173 0.91261 0.62538 0.0
N1401 N 0.65667 0.86496 0.59865 0.0
H1402 H 0.88439 0.94275 0.33405 0.0
H1403 H 0.79071 0.83085 0.38835 0.0
H1404 H 0.88516 0.9366 0.39024 0.0
H1405 H 0.78278 0.84333 0.33275 0.0
H1406 H 0.82873 0.86633 0.38891 0.0
H1407 H 0.85065 0.90305 0.33299 0.0
C1408 C 0.87764 0.93294 0.34617 0.0
C1409 C 0.88751 0.94318 0.36227 0.0
C1410 C 0.81875 0.86124 0.37658 0.0
C1411 C 0.84881 0.89776 0.36114 0.0
C1412 C 0.79703 0.84094 0.37624 0.0
C1413 C 0.78338 0.8342 0.36049 0.0
C1414 C 0.82696 0.87491 0.36106 0.0
C1415 C 0.79258 0.84795 0.34521 0.0
C1416 C 0.85831 0.91031 0.34555 0.0
C1417 C 0.87802 0.92957 0.37753 0.0
N1418 N 0.81372 0.86771 0.34589 0.0
N1419 N 0.85914 0.90765 0.37658 0.0
H1420 H 0.77996 0.14199 0.08556 0.0
H1421 H 0.88574 0.03721 0.13699 0.0
H1422 H 0.78003 0.1319 0.14153 0.0
H1423 H 0.87464 0.03579 0.0811 0.0
H1424 H 0.85066 0.07569 0.13882 0.0
H1425 H 0.81832 0.10678 0.08363 0.0
C1426 C 0.78811 0.1325 0.09745 0.0
C1427 C 0.77663 0.13982 0.11372 0.0
C1428 C 0.85596 0.06699 0.12615 0.0
C1429 C 0.82054 0.09955 0.1116 0.0
C1430 C 0.87604 0.04506 0.12509 0.0
C1431 C 0.88305 0.03312 0.10888 0.0
C1432 C 0.84288 0.07718 0.11088 0.0
C1433 C 0.86979 0.0442 0.0939 0.0
C1434 C 0.80996 0.11235 0.09633 0.0
C1435 C 0.78808 0.12681 0.12869 0.0
N1436 N 0.85033 0.06557 0.09527 0.0
N1437 N 0.80936 0.1073 0.12726 0.0
H1438 H 0.57908 0.03265 0.83535 0.0
H1439 H 0.68423 0.1376 0.88663 0.0
H1440 H 0.58537 0.03607 0.89149 0.0
H1441 H 0.68167 0.13014 0.83053 0.0
H1442 H 0.64472 0.10388 0.88863 0.0
H1443 H 0.61326 0.07179 0.83335 0.0
C1444 C 0.58748 0.04174 0.84727 0.0
C1445 C 0.57948 0.03087 0.86361 0.0
C1446 C 0.6527 0.10975 0.87588 0.0
C1447 C 0.61875 0.07568 0.86139 0.0
C1448 C 0.67526 0.12904 0.87472 0.0
C1449 C 0.68646 0.13657 0.85838 0.0
C1450 C 0.64124 0.09787 0.8606 0.0
C1451 C 0.67387 0.12483 0.84341 0.0
C1452 C 0.60705 0.06409 0.84611 0.0
C1453 C 0.59103 0.04362 0.8786 0.0
N1454 N 0.65205 0.10597 0.84489 0.0
N1455 N 0.61019 0.06523 0.87712 0.0
H1456 H 0.80615 0.63047 0.82172 0.0
H1457 H 0.88911 0.55864 0.89952 0.0
H1458 H 0.79939 0.65932 0.87497 0.0
H1459 H 0.90891 0.54208 0.84557 0.0
H1460 H 0.86136 0.60031 0.89061 0.0
H1461 H 0.84838 0.60293 0.82964 0.0
C1462 C 0.81384 0.63141 0.83503 0.0
C1463 C 0.79896 0.64683 0.84778 0.0
C1464 C 0.8722 0.58794 0.88071 0.0
C1465 C 0.84707 0.61504 0.85699 0.0
C1466 C 0.88807 0.56413 0.8858 0.0
C1467 C 0.90097 0.54665 0.87324 0.0
C1468 C 0.86873 0.59401 0.8629 0.0
C1469 C 0.89914 0.55489 0.85567 0.0
C1470 C 0.838 0.61569 0.83954 0.0
C1471 C 0.81004 0.6475 0.86476 0.0
N1472 N 0.88279 0.57766 0.85098 0.0
N1473 N 0.83313 0.63138 0.86895 0.0
H1474 H 0.66684 0.66591 0.09915 0.0
H1475 H 0.55175 0.54915 0.12708 0.0
H1476 H 0.65353 0.63682 0.15193 0.0
H1477 H 0.58063 0.5626 0.07432 0.0
H1478 H 0.57824 0.5917 0.13614 0.0
H1479 H 0.62481 0.63888 0.09002 0.0
C1480 C 0.65468 0.65444 0.10889 0.0
C1481 C 0.66397 0.65317 0.12627 0.0
C1482 C 0.57831 0.58564 0.12252 0.0
C1483 C 0.61608 0.62212 0.11591 0.0
C1484 C 0.56308 0.56143 0.11732 0.0
C1485 C 0.56443 0.55204 0.09998 0.0
C1486 C 0.59487 0.60055 0.11027 0.0
C1487 C 0.57938 0.56884 0.08788 0.0
C1488 C 0.63078 0.6389 0.10366 0.0
C1489 C 0.64736 0.63801 0.13835 0.0
N1490 N 0.59434 0.59206 0.0933 0.0
N1491 N 0.62445 0.62276 0.1329 0.0
H1492 H 0.6661 0.31127 0.37408 0.0
H1493 H 0.55421 0.43077 0.34521 0.0
H1494 H 0.65865 0.34491 0.32184 0.0
H1495 H 0.57591 0.41166 0.39866 0.0
H1496 H 0.58246 0.3896 0.33587 0.0
H1497 H 0.62362 0.33821 0.38237 0.0
C1498 C 0.65523 0.32387 0.36427 0.0
C1499 C 0.66621 0.32626 0.34732 0.0
C1500 C 0.5806 0.39412 0.34966 0.0
C1501 C 0.6177 0.35716 0.35673 0.0
C1502 C 0.56435 0.41753 0.35502 0.0
C1503 C 0.56314 0.42495 0.37272 0.0
C1504 C 0.59565 0.37803 0.36211 0.0
C1505 C 0.57662 0.40696 0.38485 0.0
C1506 C 0.63103 0.33931 0.36902 0.0
C1507 C 0.65115 0.34279 0.33512 0.0
N1508 N 0.59264 0.38456 0.3793 0.0
N1509 N 0.62786 0.35788 0.34011 0.0
H1510 H 0.88618 0.41416 0.57395 0.0
H1511 H 0.80517 0.3448 0.6528 0.0
H1512 H 0.90737 0.43201 0.62757 0.0
H1513 H 0.79799 0.31364 0.60006 0.0
H1514 H 0.84763 0.37152 0.64445 0.0
H1515 H 0.85951 0.37216 0.58343 0.0
C1516 C 0.88573 0.40886 0.58771 0.0
C1517 C 0.8986 0.42684 0.60003 0.0
C1518 C 0.83713 0.3584 0.63476 0.0
C1519 C 0.86756 0.37915 0.61102 0.0
C1520 C 0.81284 0.34315 0.63953 0.0
C1521 C 0.79774 0.32738 0.62703 0.0
C1522 C 0.84609 0.35827 0.6173 0.0
C1523 C 0.8088 0.32577 0.61008 0.0
C1524 C 0.87047 0.38487 0.59312 0.0
C1525 C 0.89756 0.41884 0.61765 0.0
N1526 N 0.83199 0.3415 0.60562 0.0
N1527 N 0.88173 0.39592 0.62267 0.0
H1528 H 0.07501 0.44018 0.13898 0.0
H1529 H 0.17564 0.33278 0.08604 0.0
H1530 H 0.08149 0.4388 0.08283 0.0
H1531 H 0.17806 0.34193 0.14204 0.0
H1532 H 0.13742 0.36809 0.08482 0.0
H1533 H 0.10925 0.40083 0.14051 0.0
C1534 C 0.08352 0.43155 0.12698 0.0
C1535 C 0.07547 0.44295 0.11076 0.0
C1536 C 0.14624 0.36229 0.09738 0.0
C1537 C 0.11462 0.3979 0.11242 0.0
C1538 C 0.16803 0.34205 0.0981 0.0
C1539 C 0.18024 0.33449 0.11416 0.0
C1540 C 0.13649 0.37504 0.11283 0.0
C1541 C 0.16942 0.34722 0.12936 0.0
C1542 C 0.10309 0.40911 0.12786 0.0
C1543 C 0.08718 0.43084 0.09563 0.0
N1544 N 0.14824 0.36694 0.12831 0.0
N1545 N 0.10618 0.40904 0.09684 0.0
H1546 H 0.38366 0.43039 0.89204 0.0
H1547 H 0.2856 0.33291 0.83131 0.0
H1548 H 0.38942 0.4297 0.83586 0.0
H1549 H 0.2887 0.32485 0.88738 0.0
H1550 H 0.32388 0.36805 0.8327 0.0
H1551 H 0.34915 0.3915 0.89059 0.0
C1552 C 0.37776 0.42201 0.87938 0.0
C1553 C 0.38938 0.43346 0.86403 0.0
C1554 C 0.31632 0.35848 0.84469 0.0
C1555 C 0.34972 0.38892 0.8623 0.0
C1556 C 0.2944 0.33842 0.84392 0.0
C1557 C 0.28379 0.32598 0.85927 0.0
C1558 C 0.32761 0.36639 0.86093 0.0
C1559 C 0.29616 0.33389 0.87521 0.0
C1560 C 0.35806 0.39974 0.87858 0.0
C1561 C 0.381 0.4216 0.84803 0.0
N1562 N 0.31728 0.35373 0.87563 0.0
N1563 N 0.36154 0.4001 0.84757 0.0
H1564 H 0.38432 0.52983 0.63686 0.0
H1565 H 0.28104 0.63619 0.58473 0.0
H1566 H 0.37493 0.52959 0.58085 0.0
H1567 H 0.2806 0.62713 0.64077 0.0
H1568 H 0.31849 0.60005 0.5831 0.0
H1569 H 0.34931 0.56842 0.63857 0.0
C1570 C 0.37499 0.53793 0.62492 0.0
C1571 C 0.38251 0.52634 0.60869 0.0
C1572 C 0.31022 0.60601 0.59575 0.0
C1573 C 0.34245 0.57053 0.61056 0.0
C1574 C 0.28887 0.62669 0.5967 0.0
C1575 C 0.27754 0.63464 0.61291 0.0
C1576 C 0.32046 0.59325 0.61112 0.0
C1577 C 0.28857 0.62159 0.62798 0.0
C1578 C 0.35496 0.55993 0.62591 0.0
C1579 C 0.36971 0.53774 0.59365 0.0
N1580 N 0.30939 0.60154 0.62672 0.0
N1581 N 0.35031 0.55917 0.59496 0.0
H1582 H 0.07797 0.53422 0.33648 0.0
H1583 H 0.18539 0.63876 0.38644 0.0
H1584 H 0.08646 0.53657 0.39253 0.0
H1585 H 0.18099 0.63051 0.33043 0.0
H1586 H 0.14643 0.60436 0.3891 0.0
H1587 H 0.11268 0.57277 0.33422 0.0
C1588 C 0.08697 0.54296 0.34834 0.0
C1589 C 0.07939 0.53196 0.36472 0.0
C1590 C 0.15395 0.61017 0.37623 0.0
C1591 C 0.11936 0.57611 0.3622 0.0
C1592 C 0.17619 0.62982 0.37471 0.0
C1593 C 0.18661 0.63743 0.35819 0.0
C1594 C 0.14201 0.59811 0.36114 0.0
C1595 C 0.1738 0.62519 0.34344 0.0
C1596 C 0.10686 0.56496 0.34702 0.0
C1597 C 0.09174 0.54427 0.37962 0.0
N1598 N 0.15225 0.60611 0.34528 0.0
N1599 N 0.11122 0.56558 0.37799 0.0
loop_
_geom_bond_atom_site_label_1
_geom_bond_atom_site_label_2
_geom_bond_distance
_geom_bond_site_symmetry_2
_ccdc_geom_bond_type
C0 O1 1.306 . S
C0 O3 1.160 . S
O1 C0 1.306 . S
O1 Cd2 2.228 . S
Cd2 O1 2.228 . S
Cd2 O6 2.273 . S
Cd2 O10 2.277 . S
O3 C0 1.160 . S
O3 Cd4 2.203 . S
Cd4 O3 2.203 . S
Cd4 O6 2.411 . S
Cd4 O7 2.333 . S
Cd4 O8 2.352 . S
Cd4 O12 2.277 . S
Cd4 O13 2.356 . S
C5 O10 1.209 . S
C5 O12 1.226 . S
O6 Cd2 2.273 . S
O6 Cd4 2.411 . S
O6 C9 1.320 . S
O7 Cd4 2.333 . S
O7 C9 1.214 . S
O8 Cd4 2.352 . S
O8 C11 1.258 . S
C9 O6 1.320 . S
C9 O7 1.214 . S
O10 Cd2 2.277 . S
O10 C5 1.209 . S
C11 O8 1.258 . S
C11 O13 1.282 . S
O12 Cd4 2.277 . S
O12 C5 1.226 . S
O13 Cd4 2.356 . S
O13 C11 1.282 . S
C14 O15 1.306 . S
C14 O17 1.160 . S
O15 C14 1.306 . S
O15 Cd16 2.228 . S
Cd16 O15 2.228 . S
Cd16 O20 2.273 . S
Cd16 O24 2.277 . S
O17 C14 1.160 . S
O17 Cd18 2.203 . S
Cd18 O17 2.203 . S
Cd18 O20 2.411 . S
Cd18 O21 2.333 . S
Cd18 O22 2.352 . S
Cd18 O26 2.277 . S
Cd18 O27 2.356 1_565 S
C19 O24 1.209 . S
C19 O26 1.226 . S
O20 Cd16 2.273 . S
O20 Cd18 2.411 . S
O20 C23 1.320 . S
O21 Cd18 2.333 . S
O21 C23 1.214 . S
O22 Cd18 2.352 . S
O22 C25 1.258 1_565 S
C23 O20 1.320 . S
C23 O21 1.214 . S
O24 Cd16 2.277 . S
O24 C19 1.209 . S
C25 O22 1.258 1_545 S
C25 O27 1.282 . S
O26 Cd18 2.277 . S
O26 C19 1.226 . S
O27 Cd18 2.356 1_545 S
O27 C25 1.282 . S
C28 O29 1.306 . S
C28 O31 1.160 . S
O29 C28 1.306 . S
O29 Cd30 2.228 . S
Cd30 O29 2.228 . S
Cd30 O34 2.273 . S
Cd30 O38 2.277 . S
O31 C28 1.160 . S
O31 Cd32 2.203 . S
Cd32 O31 2.203 . S
Cd32 O34 2.411 . S
Cd32 O35 2.333 . S
Cd32 O36 2.352 . S
Cd32 O40 2.277 . S
Cd32 O41 2.356 . S
C33 O38 1.209 . S
C33 O40 1.226 . S
O34 Cd30 2.273 . S
O34 Cd32 2.411 . S
O34 C37 1.320 . S
O35 Cd32 2.333 . S
O35 C37 1.214 . S
O36 Cd32 2.352 . S
O36 C39 1.258 . S
C37 O34 1.320 . S
C37 O35 1.214 . S
O38 Cd30 2.277 . S
O38 C33 1.209 . S
C39 O36 1.258 . S
C39 O41 1.282 . S
O40 Cd32 2.277 . S
O40 C33 1.226 . S
O41 Cd32 2.356 . S
O41 C39 1.282 . S
C42 O43 1.306 . S
C42 O45 1.160 . S
O43 C42 1.306 . S
O43 Cd44 2.228 . S
Cd44 O43 2.228 . S
Cd44 O48 2.273 . S
Cd44 O52 2.277 . S
O45 C42 1.160 . S
O45 Cd46 2.203 . S
Cd46 O45 2.203 . S
Cd46 O48 2.411 . S
Cd46 O49 2.333 . S
Cd46 O50 2.352 . S
Cd46 O54 2.277 . S
Cd46 O55 2.356 1_545 S
C47 O52 1.209 . S
C47 O54 1.226 . S
O48 Cd44 2.273 . S
O48 Cd46 2.411 . S
O48 C51 1.320 . S
O49 Cd46 2.333 . S
O49 C51 1.214 . S
O50 Cd46 2.352 . S
O50 C53 1.258 1_545 S
C51 O48 1.320 . S
C51 O49 1.214 . S
O52 Cd44 2.277 . S
O52 C47 1.209 . S
C53 O50 1.258 1_565 S
C53 O55 1.282 . S
O54 Cd46 2.277 . S
O54 C47 1.226 . S
O55 Cd46 2.356 1_565 S
O55 C53 1.282 . S
C56 O57 1.306 . S
C56 O59 1.160 . S
O57 C56 1.306 . S
O57 Cd58 2.228 . S
Cd58 O57 2.228 . S
Cd58 O62 2.273 . S
Cd58 O66 2.277 . S
O59 C56 1.160 . S
O59 Cd60 2.203 . S
Cd60 O59 2.203 . S
Cd60 O62 2.411 . S
Cd60 O63 2.333 . S
Cd60 O64 2.352 . S
Cd60 O68 2.277 . S
Cd60 O69 2.356 . S
C61 O66 1.209 . S
C61 O68 1.226 . S
O62 Cd58 2.273 . S
O62 Cd60 2.411 . S
O62 C65 1.320 . S
O63 Cd60 2.333 . S
O63 C65 1.214 . S
O64 Cd60 2.352 . S
O64 C67 1.258 . S
C65 O62 1.320 . S
C65 O63 1.214 . S
O66 Cd58 2.277 . S
O66 C61 1.209 . S
C67 O64 1.258 . S
C67 O69 1.282 . S
O68 Cd60 2.277 . S
O68 C61 1.226 . S
O69 Cd60 2.356 . S
O69 C67 1.282 . S
C70 O71 1.306 . S
C70 O73 1.160 . S
O71 C70 1.306 . S
O71 Cd72 2.228 . S
Cd72 O71 2.228 . S
Cd72 O76 2.273 . S
Cd72 O80 2.277 . S
O73 C70 1.160 . S
O73 Cd74 2.203 . S
Cd74 O73 2.203 . S
Cd74 O76 2.411 . S
Cd74 O77 2.333 . S
Cd74 O78 2.352 . S
Cd74 O82 2.277 . S
Cd74 O83 2.356 1_565 S
C75 O80 1.209 . S
C75 O82 1.226 . S
O76 Cd72 2.273 . S
O76 Cd74 2.411 . S
O76 C79 1.320 . S
O77 Cd74 2.333 . S
O77 C79 1.214 . S
O78 Cd74 2.352 . S
O78 C81 1.258 1_565 S
C79 O76 1.320 . S
C79 O77 1.214 . S
O80 Cd72 2.277 . S
O80 C75 1.209 . S
C81 O78 1.258 1_545 S
C81 O83 1.282 . S
O82 Cd74 2.277 . S
O82 C75 1.226 . S
O83 Cd74 2.356 1_545 S
O83 C81 1.282 . S
C84 O85 1.306 . S
C84 O87 1.160 . S
O85 C84 1.306 . S
O85 Cd86 2.228 . S
Cd86 O85 2.228 . S
Cd86 O90 2.273 . S
Cd86 O94 2.277 . S
O87 C84 1.160 . S
O87 Cd88 2.203 . S
Cd88 O87 2.203 . S
Cd88 O90 2.411 . S
Cd88 O91 2.333 . S
Cd88 O92 2.352 . S
Cd88 O96 2.277 . S
Cd88 O97 2.356 . S
C89 O94 1.209 . S
C89 O96 1.226 . S
O90 Cd86 2.273 . S
O90 Cd88 2.411 . S
O90 C93 1.320 . S
O91 Cd88 2.333 . S
O91 C93 1.214 . S
O92 Cd88 2.352 . S
O92 C95 1.258 . S
C93 O90 1.320 . S
C93 O91 1.214 . S
O94 Cd86 2.277 . S
O94 C89 1.209 . S
C95 O92 1.258 . S
C95 O97 1.282 . S
O96 Cd88 2.277 . S
O96 C89 1.226 . S
O97 Cd88 2.356 . S
O97 C95 1.282 . S
C98 O99 1.306 . S
C98 O101 1.160 . S
O99 C98 1.306 . S
O99 Cd100 2.228 . S
Cd100 O99 2.228 . S
Cd100 O104 2.273 . S
Cd100 O108 2.277 . S
O101 C98 1.160 . S
O101 Cd102 2.203 . S
Cd102 O101 2.203 . S
Cd102 O104 2.411 . S
Cd102 O105 2.333 . S
Cd102 O106 2.352 . S
Cd102 O110 2.277 . S
Cd102 O111 2.356 1_545 S
C103 O108 1.209 . S
C103 O110 1.226 . S
O104 Cd100 2.273 . S
O104 Cd102 2.411 . S
O104 C107 1.320 . S
O105 Cd102 2.333 . S
O105 C107 1.214 . S
O106 Cd102 2.352 . S
O106 C109 1.258 1_545 S
C107 O104 1.320 . S
C107 O105 1.214 . S
O108 Cd100 2.277 . S
O108 C103 1.209 . S
C109 O106 1.258 1_565 S
C109 O111 1.282 . S
O110 Cd102 2.277 . S
O110 C103 1.226 . S
O111 Cd102 2.356 1_565 S
O111 C109 1.282 . S
C112 O113 1.306 . S
C112 O115 1.160 . S
O113 C112 1.306 . S
O113 Cd114 2.228 . S
Cd114 O113 2.228 . S
Cd114 O118 2.273 . S
Cd114 O122 2.277 . S
O115 C112 1.160 . S
O115 Cd116 2.203 . S
Cd116 O115 2.203 . S
Cd116 O118 2.411 . S
Cd116 O119 2.333 . S
Cd116 O120 2.352 . S
Cd116 O124 2.277 . S
Cd116 O125 2.356 . S
C117 O122 1.209 . S
C117 O124 1.226 . S
O118 Cd114 2.273 . S
O118 Cd116 2.411 . S
O118 C121 1.320 . S
O119 Cd116 2.333 . S
O119 C121 1.214 . S
O120 Cd116 2.352 . S
O120 C123 1.258 . S
C121 O118 1.320 . S
C121 O119 1.214 . S
O122 Cd114 2.277 . S
O122 C117 1.209 . S
C123 O120 1.258 . S
C123 O125 1.282 . S
O124 Cd116 2.277 . S
O124 C117 1.226 . S
O125 Cd116 2.356 . S
O125 C123 1.282 . S
C126 O127 1.306 . S
C126 O129 1.160 1_565 S
O127 C126 1.306 . S
O127 Cd128 2.228 1_565 S
Cd128 O127 2.228 1_545 S
Cd128 O132 2.273 . S
Cd128 O136 2.277 . S
O129 C126 1.160 1_545 S
O129 Cd130 2.203 . S
Cd130 O129 2.203 . S
Cd130 O132 2.411 . S
Cd130 O133 2.333 . S
Cd130 O134 2.373 . S
Cd130 O138 2.277 . S
Cd130 O139 2.356 . S
C131 O136 1.209 . S
C131 O138 1.226 . S
O132 Cd128 2.273 . S
O132 Cd130 2.411 . S
O132 C135 1.320 . S
O133 Cd130 2.333 . S
O133 C135 1.214 . S
O134 Cd130 2.373 . S
O134 C137 1.274 . S
C135 O132 1.320 . S
C135 O133 1.214 . S
O136 Cd128 2.277 . S
O136 C131 1.209 . S
C137 O134 1.274 . S
C137 O139 1.282 . S
O138 Cd130 2.277 . S
O138 C131 1.226 . S
O139 Cd130 2.356 . S
O139 C137 1.282 . S
C140 O141 1.306 . S
C140 O143 1.160 . S
O141 C140 1.306 . S
O141 Cd142 2.228 . S
Cd142 O141 2.228 . S
Cd142 O146 2.273 . S
Cd142 O150 2.277 . S
O143 C140 1.160 . S
O143 Cd144 2.203 . S
Cd144 O143 2.203 . S
Cd144 O146 2.411 . S
Cd144 O147 2.333 . S
Cd144 O148 2.352 . S
Cd144 O152 2.277 . S
Cd144 O153 2.356 . S
C145 O150 1.209 . S
C145 O152 1.226 . S
O146 Cd142 2.273 . S
O146 Cd144 2.411 . S
O146 C149 1.320 . S
O147 Cd144 2.333 . S
O147 C149 1.214 . S
O148 Cd144 2.352 . S
O148 C151 1.258 . S
C149 O146 1.320 . S
C149 O147 1.214 . S
O150 Cd142 2.277 . S
O150 C145 1.209 . S
C151 O148 1.258 . S
C151 O153 1.282 . S
O152 Cd144 2.277 . S
O152 C145 1.226 . S
O153 Cd144 2.356 . S
O153 C151 1.282 . S
C154 O155 1.306 . S
C154 O157 1.160 1_545 S
O155 C154 1.306 . S
O155 Cd156 2.228 1_545 S
Cd156 O155 2.228 1_565 S
Cd156 O160 2.273 . S
Cd156 O164 2.277 . S
O157 C154 1.160 1_565 S
O157 Cd158 2.203 . S
Cd158 O157 2.203 . S
Cd158 O160 2.411 . S
Cd158 O161 2.333 . S
Cd158 O162 2.373 . S
Cd158 O166 2.277 . S
Cd158 O167 2.356 . S
C159 O164 1.209 . S
C159 O166 1.226 . S
O160 Cd156 2.273 . S
O160 Cd158 2.411 . S
O160 C163 1.320 . S
O161 Cd158 2.333 . S
O161 C163 1.214 . S
O162 Cd158 2.373 . S
O162 C165 1.274 . S
C163 O160 1.320 . S
C163 O161 1.214 . S
O164 Cd156 2.277 . S
O164 C159 1.209 . S
C165 O162 1.274 . S
C165 O167 1.282 . S
O166 Cd158 2.277 . S
O166 C159 1.226 . S
O167 Cd158 2.356 . S
O167 C165 1.282 . S
C168 O169 1.306 . S
C168 O171 1.160 . S
O169 C168 1.306 . S
O169 Cd170 2.228 . S
Cd170 O169 2.228 . S
Cd170 O174 2.273 . S
Cd170 O178 2.277 . S
O171 C168 1.160 . S
O171 Cd172 2.203 . S
Cd172 O171 2.203 . S
Cd172 O174 2.411 . S
Cd172 O175 2.333 . S
Cd172 O176 2.352 . S
Cd172 O180 2.277 . S
Cd172 O181 2.356 . S
C173 O178 1.209 . S
C173 O180 1.226 . S
O174 Cd170 2.273 . S
O174 Cd172 2.411 . S
O174 C177 1.320 . S
O175 Cd172 2.333 . S
O175 C177 1.214 . S
O176 Cd172 2.352 . S
O176 C179 1.258 . S
C177 O174 1.320 . S
C177 O175 1.214 . S
O178 Cd170 2.277 . S
O178 C173 1.209 . S
C179 O176 1.258 . S
C179 O181 1.282 . S
O180 Cd172 2.277 . S
O180 C173 1.226 . S
O181 Cd172 2.356 . S
O181 C179 1.282 . S
C182 O183 1.306 . S
C182 O185 1.160 1_565 S
O183 C182 1.306 . S
O183 Cd184 2.228 1_565 S
Cd184 O183 2.228 1_545 S
Cd184 O188 2.273 . S
Cd184 O192 2.277 . S
O185 C182 1.160 1_545 S
O185 Cd186 2.203 . S
Cd186 O185 2.203 . S
Cd186 O188 2.411 . S
Cd186 O189 2.333 . S
Cd186 O190 2.373 . S
Cd186 O194 2.277 . S
Cd186 O195 2.356 . S
C187 O192 1.209 . S
C187 O194 1.226 . S
O188 Cd184 2.273 . S
O188 Cd186 2.411 . S
O188 C191 1.320 . S
O189 Cd186 2.333 . S
O189 C191 1.214 . S
O190 Cd186 2.373 . S
O190 C193 1.274 . S
C191 O188 1.320 . S
C191 O189 1.214 . S
O192 Cd184 2.277 . S
O192 C187 1.209 . S
C193 O190 1.274 . S
C193 O195 1.282 . S
O194 Cd186 2.277 . S
O194 C187 1.226 . S
O195 Cd186 2.356 . S
O195 C193 1.282 . S
C196 O197 1.306 . S
C196 O199 1.160 . S
O197 C196 1.306 . S
O197 Cd198 2.228 . S
Cd198 O197 2.228 . S
Cd198 O202 2.273 . S
Cd198 O206 2.277 . S
O199 C196 1.160 . S
O199 Cd200 2.203 . S
Cd200 O199 2.203 . S
Cd200 O202 2.411 . S
Cd200 O203 2.333 . S
Cd200 O204 2.352 . S
Cd200 O208 2.277 . S
Cd200 O209 2.356 . S
C201 O206 1.209 . S
C201 O208 1.226 . S
O202 Cd198 2.273 . S
O202 Cd200 2.411 . S
O202 C205 1.320 . S
O203 Cd200 2.333 . S
O203 C205 1.214 . S
O204 Cd200 2.352 . S
O204 C207 1.258 . S
C205 O202 1.320 . S
C205 O203 1.214 . S
O206 Cd198 2.277 . S
O206 C201 1.209 . S
C207 O204 1.258 . S
C207 O209 1.282 . S
O208 Cd200 2.277 . S
O208 C201 1.226 . S
O209 Cd200 2.356 . S
O209 C207 1.282 . S
C210 O211 1.306 . S
C210 O213 1.160 1_545 S
O211 C210 1.306 . S
O211 Cd212 2.228 1_545 S
Cd212 O211 2.228 1_565 S
Cd212 O216 2.273 . S
Cd212 O220 2.277 . S
O213 C210 1.160 1_565 S
O213 Cd214 2.203 . S
Cd214 O213 2.203 . S
Cd214 O216 2.411 . S
Cd214 O217 2.333 . S
Cd214 O218 2.373 . S
Cd214 O222 2.277 . S
Cd214 O223 2.356 . S
C215 O220 1.209 . S
C215 O222 1.226 . S
O216 Cd212 2.273 . S
O216 Cd214 2.411 . S
O216 C219 1.320 . S
O217 Cd214 2.333 . S
O217 C219 1.214 . S
O218 Cd214 2.373 . S
O218 C221 1.274 . S
C219 O216 1.320 . S
C219 O217 1.214 . S
O220 Cd212 2.277 . S
O220 C215 1.209 . S
C221 O218 1.274 . S
C221 O223 1.282 . S
O222 Cd214 2.277 . S
O222 C215 1.226 . S
O223 Cd214 2.356 . S
O223 C221 1.282 . S
C224 O225 1.306 . S
C224 O227 1.160 . S
O225 C224 1.306 . S
O225 Cd226 2.228 . S
Cd226 O225 2.228 . S
Cd226 O230 2.273 . S
Cd226 O234 2.277 . S
O227 C224 1.160 . S
O227 Cd228 2.203 . S
Cd228 O227 2.203 . S
Cd228 O230 2.411 . S
Cd228 O231 2.333 . S
Cd228 O232 2.352 . S
Cd228 O236 2.277 . S
Cd228 O237 2.356 . S
C229 O234 1.209 . S
C229 O236 1.226 . S
O230 Cd226 2.273 . S
O230 Cd228 2.411 . S
O230 C233 1.320 . S
O231 Cd228 2.333 . S
O231 C233 1.214 . S
O232 Cd228 2.352 . S
O232 C235 1.258 . S
C233 O230 1.320 . S
C233 O231 1.214 . S
O234 Cd226 2.277 . S
O234 C229 1.209 . S
C235 O232 1.258 . S
C235 O237 1.282 . S
O236 Cd228 2.277 . S
O236 C229 1.226 . S
O237 Cd228 2.356 . S
O237 C235 1.282 . S
C238 O239 1.306 . S
C238 O241 1.160 . S
O239 C238 1.306 . S
O239 Cd240 2.228 . S
Cd240 O239 2.228 . S
Cd240 O244 2.273 . S
Cd240 O248 2.277 . S
O241 C238 1.160 . S
O241 Cd242 2.203 . S
Cd242 O241 2.203 . S
Cd242 O244 2.411 . S
Cd242 O245 2.333 . S
Cd242 O246 2.352 . S
Cd242 O250 2.277 . S
Cd242 O251 2.356 . S
C243 O248 1.209 . S
C243 O250 1.226 . S
O244 Cd240 2.273 . S
O244 Cd242 2.411 . S
O244 C247 1.320 . S
O245 Cd242 2.333 . S
O245 C247 1.214 . S
O246 Cd242 2.352 . S
O246 C249 1.258 . S
C247 O244 1.320 . S
C247 O245 1.214 . S
O248 Cd240 2.277 . S
O248 C243 1.209 . S
C249 O246 1.258 . S
C249 O251 1.282 . S
O250 Cd242 2.277 . S
O250 C243 1.226 . S
O251 Cd242 2.356 . S
O251 C249 1.282 . S
C252 O253 1.306 . S
C252 O255 1.160 . S
O253 C252 1.306 . S
O253 Cd254 2.228 . S
Cd254 O253 2.228 . S
Cd254 O258 2.273 . S
Cd254 O262 2.277 . S
O255 C252 1.160 . S
O255 Cd256 2.203 . S
Cd256 O255 2.203 . S
Cd256 O258 2.411 . S
Cd256 O259 2.333 . S
Cd256 O260 2.352 . S
Cd256 O264 2.277 . S
Cd256 O265 2.356 . S
C257 O262 1.209 . S
C257 O264 1.226 . S
O258 Cd254 2.273 . S
O258 Cd256 2.411 . S
O258 C261 1.320 . S
O259 Cd256 2.333 . S
O259 C261 1.214 . S
O260 Cd256 2.352 . S
O260 C263 1.258 . S
C261 O258 1.320 . S
C261 O259 1.214 . S
O262 Cd254 2.277 . S
O262 C257 1.209 . S
C263 O260 1.258 . S
C263 O265 1.282 . S
O264 Cd256 2.277 . S
O264 C257 1.226 . S
O265 Cd256 2.356 . S
O265 C263 1.282 . S
C266 O267 1.306 . S
C266 O269 1.160 . S
O267 C266 1.306 . S
O267 Cd268 2.228 . S
Cd268 O267 2.228 . S
Cd268 O272 2.273 . S
Cd268 O276 2.277 . S
O269 C266 1.160 . S
O269 Cd270 2.203 . S
Cd270 O269 2.203 . S
Cd270 O272 2.411 . S
Cd270 O273 2.333 . S
Cd270 O274 2.352 . S
Cd270 O278 2.277 . S
Cd270 O279 2.356 . S
C271 O276 1.209 . S
C271 O278 1.226 . S
O272 Cd268 2.273 . S
O272 Cd270 2.411 . S
O272 C275 1.320 . S
O273 Cd270 2.333 . S
O273 C275 1.214 . S
O274 Cd270 2.352 . S
O274 C277 1.258 . S
C275 O272 1.320 . S
C275 O273 1.214 . S
O276 Cd268 2.277 . S
O276 C271 1.209 . S
C277 O274 1.258 . S
C277 O279 1.282 . S
O278 Cd270 2.277 . S
O278 C271 1.226 . S
O279 Cd270 2.356 . S
O279 C277 1.282 . S
C280 O281 1.306 . S
C280 O283 1.160 . S
O281 C280 1.306 . S
O281 Cd282 2.228 . S
Cd282 O281 2.228 . S
Cd282 O286 2.273 . S
Cd282 O290 2.277 . S
O283 C280 1.160 . S
O283 Cd284 2.203 . S
Cd284 O283 2.203 . S
Cd284 O286 2.411 . S
Cd284 O287 2.333 . S
Cd284 O288 2.352 . S
Cd284 O292 2.277 . S
Cd284 O293 2.356 . S
C285 O290 1.209 . S
C285 O292 1.226 . S
O286 Cd282 2.273 . S
O286 Cd284 2.411 . S
O286 C289 1.320 . S
O287 Cd284 2.333 . S
O287 C289 1.214 . S
O288 Cd284 2.352 . S
O288 C291 1.258 . S
C289 O286 1.320 . S
C289 O287 1.214 . S
O290 Cd282 2.277 . S
O290 C285 1.209 . S
C291 O288 1.258 . S
C291 O293 1.282 . S
O292 Cd284 2.277 . S
O292 C285 1.226 . S
O293 Cd284 2.356 . S
O293 C291 1.282 . S
C294 O295 1.306 . S
C294 O297 1.160 . S
O295 C294 1.306 . S
O295 Cd296 2.228 . S
Cd296 O295 2.228 . S
Cd296 O300 2.273 . S
Cd296 O304 2.277 . S
O297 C294 1.160 . S
O297 Cd298 2.203 . S
Cd298 O297 2.203 . S
Cd298 O300 2.411 . S
Cd298 O301 2.333 . S
Cd298 O302 2.352 . S
Cd298 O306 2.277 . S
Cd298 O307 2.356 . S
C299 O304 1.209 . S
C299 O306 1.226 . S
O300 Cd296 2.273 . S
O300 Cd298 2.411 . S
O300 C303 1.320 . S
O301 Cd298 2.333 . S
O301 C303 1.214 . S
O302 Cd298 2.352 . S
O302 C305 1.258 . S
C303 O300 1.320 . S
C303 O301 1.214 . S
O304 Cd296 2.277 . S
O304 C299 1.209 . S
C305 O302 1.258 . S
C305 O307 1.282 . S
O306 Cd298 2.277 . S
O306 C299 1.226 . S
O307 Cd298 2.356 . S
O307 C305 1.282 . S
C308 O309 1.306 . S
C308 O311 1.160 . S
O309 C308 1.306 . S
O309 Cd310 2.228 . S
Cd310 O309 2.228 . S
Cd310 O314 2.273 . S
Cd310 O318 2.277 . S
O311 C308 1.160 . S
O311 Cd312 2.203 . S
Cd312 O311 2.203 . S
Cd312 O314 2.411 . S
Cd312 O315 2.333 . S
Cd312 O316 2.352 . S
Cd312 O320 2.277 . S
Cd312 O321 2.356 . S
C313 O318 1.209 . S
C313 O320 1.226 . S
O314 Cd310 2.273 . S
O314 Cd312 2.411 . S
O314 C317 1.320 . S
O315 Cd312 2.333 . S
O315 C317 1.214 . S
O316 Cd312 2.352 . S
O316 C319 1.258 . S
C317 O314 1.320 . S
C317 O315 1.214 . S
O318 Cd310 2.277 . S
O318 C313 1.209 . S
C319 O316 1.258 . S
C319 O321 1.282 . S
O320 Cd312 2.277 . S
O320 C313 1.226 . S
O321 Cd312 2.356 . S
O321 C319 1.282 . S
C322 O323 1.306 . S
C322 O325 1.160 . S
O323 C322 1.306 . S
O323 Cd324 2.228 . S
Cd324 O323 2.228 . S
Cd324 O328 2.273 . S
Cd324 O332 2.277 . S
O325 C322 1.160 . S
O325 Cd326 2.203 . S
Cd326 O325 2.203 . S
Cd326 O328 2.411 . S
Cd326 O329 2.333 . S
Cd326 O330 2.352 . S
Cd326 O334 2.277 . S
Cd326 O335 2.356 . S
C327 O332 1.209 . S
C327 O334 1.226 . S
O328 Cd324 2.273 . S
O328 Cd326 2.411 . S
O328 C331 1.320 . S
O329 Cd326 2.333 . S
O329 C331 1.214 . S
O330 Cd326 2.352 . S
O330 C333 1.258 . S
C331 O328 1.320 . S
C331 O329 1.214 . S
O332 Cd324 2.277 . S
O332 C327 1.209 . S
C333 O330 1.258 . S
C333 O335 1.282 . S
O334 Cd326 2.277 . S
O334 C327 1.226 . S
O335 Cd326 2.356 . S
O335 C333 1.282 . S
C336 O337 1.306 . S
C336 O339 1.160 . S
O337 C336 1.306 . S
O337 Cd338 2.228 . S
Cd338 O337 2.228 . S
Cd338 O342 2.273 . S
Cd338 O346 2.277 . S
O339 C336 1.160 . S
O339 Cd340 2.203 . S
Cd340 O339 2.203 . S
Cd340 O342 2.411 . S
Cd340 O343 2.333 . S
Cd340 O344 2.352 . S
Cd340 O348 2.277 . S
Cd340 O349 2.356 . S
C341 O346 1.209 . S
C341 O348 1.226 . S
O342 Cd338 2.273 . S
O342 Cd340 2.411 . S
O342 C345 1.320 . S
O343 Cd340 2.333 . S
O343 C345 1.214 . S
O344 Cd340 2.352 . S
O344 C347 1.258 . S
C345 O342 1.320 . S
C345 O343 1.214 . S
O346 Cd338 2.277 . S
O346 C341 1.209 . S
C347 O344 1.258 . S
C347 O349 1.282 . S
O348 Cd340 2.277 . S
O348 C341 1.226 . S
O349 Cd340 2.356 . S
O349 C347 1.282 . S
C350 O351 1.306 . S
C350 O353 1.160 . S
O351 C350 1.306 . S
O351 Cd352 2.228 . S
Cd352 O351 2.228 . S
Cd352 O356 2.273 . S
Cd352 O360 2.277 . S
O353 C350 1.160 . S
O353 Cd354 2.203 . S
Cd354 O353 2.203 . S
Cd354 O356 2.411 . S
Cd354 O357 2.333 . S
Cd354 O358 2.352 . S
Cd354 O362 2.277 . S
Cd354 O363 2.356 . S
C355 O360 1.209 . S
C355 O362 1.226 . S
O356 Cd352 2.273 . S
O356 Cd354 2.411 . S
O356 C359 1.320 . S
O357 Cd354 2.333 . S
O357 C359 1.214 . S
O358 Cd354 2.352 . S
O358 C361 1.258 . S
C359 O356 1.320 . S
C359 O357 1.214 . S
O360 Cd352 2.277 . S
O360 C355 1.209 . S
C361 O358 1.258 . S
C361 O363 1.282 . S
O362 Cd354 2.277 . S
O362 C355 1.226 . S
O363 Cd354 2.356 . S
O363 C361 1.282 . S
C364 O365 1.306 . S
C364 O367 1.160 . S
O365 C364 1.306 . S
O365 Cd366 2.228 . S
Cd366 O365 2.228 . S
Cd366 O370 2.273 . S
Cd366 O374 2.277 . S
O367 C364 1.160 . S
O367 Cd368 2.203 . S
Cd368 O367 2.203 . S
Cd368 O370 2.411 . S
Cd368 O371 2.333 . S
Cd368 O372 2.352 . S
Cd368 O376 2.277 . S
Cd368 O377 2.356 . S
C369 O374 1.209 . S
C369 O376 1.226 . S
O370 Cd366 2.273 . S
O370 Cd368 2.411 . S
O370 C373 1.320 . S
O371 Cd368 2.333 . S
O371 C373 1.214 . S
O372 Cd368 2.352 . S
O372 C375 1.258 . S
C373 O370 1.320 . S
C373 O371 1.214 . S
O374 Cd366 2.277 . S
O374 C369 1.209 . S
C375 O372 1.258 . S
C375 O377 1.282 . S
O376 Cd368 2.277 . S
O376 C369 1.226 . S
O377 Cd368 2.356 . S
O377 C375 1.282 . S
C378 O379 1.306 . S
C378 O381 1.160 . S
O379 C378 1.306 . S
O379 Cd380 2.228 . S
Cd380 O379 2.228 . S
Cd380 O384 2.273 . S
Cd380 O388 2.277 . S
O381 C378 1.160 . S
O381 Cd382 2.203 . S
Cd382 O381 2.203 . S
Cd382 O384 2.411 . S
Cd382 O385 2.333 . S
Cd382 O386 2.352 . S
Cd382 O390 2.277 . S
Cd382 O391 2.356 . S
C383 O388 1.209 . S
C383 O390 1.226 . S
O384 Cd380 2.273 . S
O384 Cd382 2.411 . S
O384 C387 1.320 . S
O385 Cd382 2.333 . S
O385 C387 1.214 . S
O386 Cd382 2.352 . S
O386 C389 1.258 . S
C387 O384 1.320 . S
C387 O385 1.214 . S
O388 Cd380 2.277 . S
O388 C383 1.209 . S
C389 O386 1.258 . S
C389 O391 1.282 . S
O390 Cd382 2.277 . S
O390 C383 1.226 . S
O391 Cd382 2.356 . S
O391 C389 1.282 . S
C392 O393 1.306 . S
C392 O395 1.160 . S
O393 C392 1.306 . S
O393 Cd394 2.228 . S
Cd394 O393 2.228 . S
Cd394 O398 2.273 . S
Cd394 O402 2.277 . S
O395 C392 1.160 . S
O395 Cd396 2.203 . S
Cd396 O395 2.203 . S
Cd396 O398 2.411 . S
Cd396 O399 2.333 . S
Cd396 O400 2.352 . S
Cd396 O404 2.277 . S
Cd396 O405 2.356 . S
C397 O402 1.209 . S
C397 O404 1.226 . S
O398 Cd394 2.273 . S
O398 Cd396 2.411 . S
O398 C401 1.320 . S
O399 Cd396 2.333 . S
O399 C401 1.214 . S
O400 Cd396 2.352 . S
O400 C403 1.258 . S
C401 O398 1.320 . S
C401 O399 1.214 . S
O402 Cd394 2.277 . S
O402 C397 1.209 . S
C403 O400 1.258 . S
C403 O405 1.282 . S
O404 Cd396 2.277 . S
O404 C397 1.226 . S
O405 Cd396 2.356 . S
O405 C403 1.282 . S
C406 O407 1.306 . S
C406 O409 1.160 . S
O407 C406 1.306 . S
O407 Cd408 2.228 . S
Cd408 O407 2.228 . S
Cd408 O412 2.273 . S
Cd408 O416 2.277 . S
O409 C406 1.160 . S
O409 Cd410 2.203 . S
Cd410 O409 2.203 . S
Cd410 O412 2.411 . S
Cd410 O413 2.333 . S
Cd410 O414 2.352 . S
Cd410 O418 2.277 . S
Cd410 O419 2.356 . S
C411 O416 1.209 . S
C411 O418 1.226 . S
O412 Cd408 2.273 . S
O412 Cd410 2.411 . S
O412 C415 1.320 . S
O413 Cd410 2.333 . S
O413 C415 1.214 . S
O414 Cd410 2.352 . S
O414 C417 1.258 . S
C415 O412 1.320 . S
C415 O413 1.214 . S
O416 Cd408 2.277 . S
O416 C411 1.209 . S
C417 O414 1.258 . S
C417 O419 1.282 . S
O418 Cd410 2.277 . S
O418 C411 1.226 . S
O419 Cd410 2.356 . S
O419 C417 1.282 . S
C420 O421 1.306 . S
C420 O423 1.160 . S
O421 C420 1.306 . S
O421 Cd422 2.228 . S
Cd422 O421 2.228 . S
Cd422 O426 2.273 . S
Cd422 O430 2.277 . S
O423 C420 1.160 . S
O423 Cd424 2.203 . S
Cd424 O423 2.203 . S
Cd424 O426 2.411 . S
Cd424 O427 2.333 . S
Cd424 O428 2.352 . S
Cd424 O432 2.277 . S
Cd424 O433 2.356 . S
C425 O430 1.209 . S
C425 O432 1.226 . S
O426 Cd422 2.273 . S
O426 Cd424 2.411 . S
O426 C429 1.320 . S
O427 Cd424 2.333 . S
O427 C429 1.214 . S
O428 Cd424 2.352 . S
O428 C431 1.258 . S
C429 O426 1.320 . S
C429 O427 1.214 . S
O430 Cd422 2.277 . S
O430 C425 1.209 . S
C431 O428 1.258 . S
C431 O433 1.282 . S
O432 Cd424 2.277 . S
O432 C425 1.226 . S
O433 Cd424 2.356 . S
O433 C431 1.282 . S
C434 O435 1.306 . S
C434 O437 1.160 . S
O435 C434 1.306 . S
O435 Cd436 2.228 . S
Cd436 O435 2.228 . S
Cd436 O440 2.273 . S
Cd436 O444 2.277 . S
O437 C434 1.160 . S
O437 Cd438 2.203 . S
Cd438 O437 2.203 . S
Cd438 O440 2.411 . S
Cd438 O441 2.333 . S
Cd438 O442 2.352 . S
Cd438 O446 2.277 . S
Cd438 O447 2.356 . S
C439 O444 1.209 . S
C439 O446 1.226 . S
O440 Cd436 2.273 . S
O440 Cd438 2.411 . S
O440 C443 1.320 . S
O441 Cd438 2.333 . S
O441 C443 1.214 . S
O442 Cd438 2.352 . S
O442 C445 1.258 . S
C443 O440 1.320 . S
C443 O441 1.214 . S
O444 Cd436 2.277 . S
O444 C439 1.209 . S
C445 O442 1.258 . S
C445 O447 1.282 . S
O446 Cd438 2.277 . S
O446 C439 1.226 . S
O447 Cd438 2.356 . S
O447 C445 1.282 . S
H448 C454 0.930 . S
H449 C458 0.930 . S
H450 C463 0.929 . S
H451 C461 0.929 . S
H452 C456 0.929 . S
H453 C462 0.929 . S
C454 H448 0.930 . S
C454 C455 1.367 . S
C454 C462 1.378 . S
C455 C454 1.367 . S
C455 C463 1.433 . S
C456 H452 0.929 . S
C456 C458 1.378 . S
C456 C460 1.350 . S
C457 C460 1.463 . S
C457 C462 1.350 . S
C457 N465 1.427 . S
C458 H449 0.930 . S
C458 C456 1.378 . S
C458 C459 1.367 . S
C459 C458 1.367 . S
C459 C461 1.433 . S
C460 C456 1.350 . S
C460 C457 1.463 . S
C460 N464 1.427 . S
C461 H451 0.929 . S
C461 C459 1.433 . S
C461 N464 1.384 . S
C462 H453 0.929 . S
C462 C454 1.378 . S
C462 C457 1.350 . S
C463 H450 0.929 . S
C463 C455 1.433 . S
C463 N465 1.384 . S
N464 C460 1.427 . S
N464 C461 1.384 . S
N465 C457 1.427 . S
N465 C463 1.384 . S
H466 C472 0.930 . S
H467 C476 0.930 . S
H468 C481 0.929 . S
H469 C479 0.929 . S
H470 C474 0.929 . S
H471 C480 0.929 . S
C472 H466 0.930 . S
C472 C473 1.367 . S
C472 C480 1.378 . S
C473 C472 1.367 . S
C473 C481 1.433 . S
C474 H470 0.929 . S
C474 C476 1.378 . S
C474 C478 1.350 . S
C475 C478 1.463 . S
C475 C480 1.350 . S
C475 N483 1.427 . S
C476 H467 0.930 . S
C476 C474 1.378 . S
C476 C477 1.367 . S
C477 C476 1.367 . S
C477 C479 1.433 . S
C478 C474 1.350 . S
C478 C475 1.463 . S
C478 N482 1.427 . S
C479 H469 0.929 . S
C479 C477 1.433 . S
C479 N482 1.384 . S
C480 H471 0.929 . S
C480 C472 1.378 . S
C480 C475 1.350 . S
C481 H468 0.929 . S
C481 C473 1.433 . S
C481 N483 1.384 . S
N482 C478 1.427 . S
N482 C479 1.384 . S
N483 C475 1.427 . S
N483 C481 1.384 . S
H484 C490 0.930 . S
H485 C494 0.930 . S
H486 C499 0.929 . S
H487 C497 0.929 . S
H488 C492 0.929 . S
H489 C498 0.929 . S
C490 H484 0.930 . S
C490 C491 1.367 . S
C490 C498 1.378 . S
C491 C490 1.367 . S
C491 C499 1.433 . S
C492 H488 0.929 . S
C492 C494 1.378 . S
C492 C496 1.350 . S
C493 C496 1.463 . S
C493 C498 1.350 . S
C493 N501 1.427 . S
C494 H485 0.930 . S
C494 C492 1.378 . S
C494 C495 1.367 . S
C495 C494 1.367 . S
C495 C497 1.433 . S
C496 C492 1.350 . S
C496 C493 1.463 . S
C496 N500 1.427 . S
C497 H487 0.929 . S
C497 C495 1.433 . S
C497 N500 1.384 . S
C498 H489 0.929 . S
C498 C490 1.378 . S
C498 C493 1.350 . S
C499 H486 0.929 . S
C499 C491 1.433 . S
C499 N501 1.384 . S
N500 C496 1.427 . S
N500 C497 1.384 . S
N501 C493 1.427 . S
N501 C499 1.384 . S
H502 C508 0.930 . S
H503 C512 0.930 . S
H504 C517 0.929 . S
H505 C515 0.929 . S
H506 C510 0.929 . S
H507 C516 0.929 . S
C508 H502 0.930 . S
C508 C509 1.367 . S
C508 C516 1.378 . S
C509 C508 1.367 . S
C509 C517 1.433 . S
C510 H506 0.929 . S
C510 C512 1.378 . S
C510 C514 1.350 . S
C511 C514 1.463 . S
C511 C516 1.350 . S
C511 N519 1.427 . S
C512 H503 0.930 . S
C512 C510 1.378 . S
C512 C513 1.367 . S
C513 C512 1.367 . S
C513 C515 1.433 . S
C514 C510 1.350 . S
C514 C511 1.463 . S
C514 N518 1.427 . S
C515 H505 0.929 . S
C515 C513 1.433 . S
C515 N518 1.384 . S
C516 H507 0.929 . S
C516 C508 1.378 . S
C516 C511 1.350 . S
C517 H504 0.929 . S
C517 C509 1.433 . S
C517 N519 1.384 . S
N518 C514 1.427 . S
N518 C515 1.384 . S
N519 C511 1.427 . S
N519 C517 1.384 . S
H520 C526 0.930 . S
H521 C530 0.930 . S
H522 C535 0.929 . S
H523 C533 0.929 . S
H524 C528 0.929 . S
H525 C534 0.929 . S
C526 H520 0.930 . S
C526 C527 1.367 . S
C526 C534 1.378 . S
C527 C526 1.367 . S
C527 C535 1.433 . S
C528 H524 0.929 . S
C528 C530 1.378 . S
C528 C532 1.350 . S
C529 C532 1.463 . S
C529 C534 1.350 . S
C529 N537 1.427 . S
C530 H521 0.930 . S
C530 C528 1.378 . S
C530 C531 1.367 . S
C531 C530 1.367 . S
C531 C533 1.433 . S
C532 C528 1.350 . S
C532 C529 1.463 . S
C532 N536 1.427 . S
C533 H523 0.929 . S
C533 C531 1.433 . S
C533 N536 1.384 . S
C534 H525 0.929 . S
C534 C526 1.378 . S
C534 C529 1.350 . S
C535 H522 0.929 . S
C535 C527 1.433 . S
C535 N537 1.384 . S
N536 C532 1.427 . S
N536 C533 1.384 . S
N537 C529 1.427 . S
N537 C535 1.384 . S
H538 C544 0.930 . S
H539 C548 0.930 . S
H540 C553 0.929 . S
H541 C551 0.929 . S
H542 C546 0.929 . S
H543 C552 0.929 . S
C544 H538 0.930 . S
C544 C545 1.367 . S
C544 C552 1.378 . S
C545 C544 1.367 . S
C545 C553 1.433 . S
C546 H542 0.929 . S
C546 C548 1.378 . S
C546 C550 1.350 . S
C547 C550 1.463 . S
C547 C552 1.350 . S
C547 N555 1.427 . S
C548 H539 0.930 . S
C548 C546 1.378 . S
C548 C549 1.367 . S
C549 C548 1.367 . S
C549 C551 1.433 . S
C550 C546 1.350 . S
C550 C547 1.463 . S
C550 N554 1.427 . S
C551 H541 0.929 . S
C551 C549 1.433 . S
C551 N554 1.384 . S
C552 H543 0.929 . S
C552 C544 1.378 . S
C552 C547 1.350 . S
C553 H540 0.929 . S
C553 C545 1.433 . S
C553 N555 1.384 . S
N554 C550 1.427 . S
N554 C551 1.384 . S
N555 C547 1.427 . S
N555 C553 1.384 . S
H556 C562 0.930 . S
H557 C566 0.930 . S
H558 C571 0.929 . S
H559 C569 0.929 . S
H560 C564 0.929 . S
H561 C570 0.929 . S
C562 H556 0.930 . S
C562 C563 1.367 . S
C562 C570 1.378 . S
C563 C562 1.367 . S
C563 C571 1.433 . S
C564 H560 0.929 . S
C564 C566 1.378 . S
C564 C568 1.350 . S
C565 C568 1.463 . S
C565 C570 1.350 . S
C565 N573 1.427 . S
C566 H557 0.930 . S
C566 C564 1.378 . S
C566 C567 1.367 . S
C567 C566 1.367 . S
C567 C569 1.433 . S
C568 C564 1.350 . S
C568 C565 1.463 . S
C568 N572 1.427 . S
C569 H559 0.929 . S
C569 C567 1.433 . S
C569 N572 1.384 . S
C570 H561 0.929 . S
C570 C562 1.378 . S
C570 C565 1.350 . S
C571 H558 0.929 . S
C571 C563 1.433 . S
C571 N573 1.384 . S
N572 C568 1.427 . S
N572 C569 1.384 . S
N573 C565 1.427 . S
N573 C571 1.384 . S
H574 C580 0.957 . S
H575 C584 0.930 . S
H576 C589 0.929 . S
H577 C587 0.929 . S
H578 C582 0.929 . S
H579 C588 0.929 . S
C580 H574 0.957 . S
C580 C581 1.367 . S
C580 C588 1.378 . S
C581 C580 1.367 . S
C581 C589 1.433 . S
C582 H578 0.929 . S
C582 C584 1.378 . S
C582 C586 1.350 . S
C583 C586 1.463 . S
C583 C588 1.350 . S
C583 N591 1.427 . S
C584 H575 0.930 . S
C584 C582 1.378 . S
C584 C585 1.367 . S
C585 C584 1.367 . S
C585 C587 1.433 . S
C586 C582 1.350 . S
C586 C583 1.463 . S
C586 N590 1.427 . S
C587 H577 0.929 . S
C587 C585 1.433 . S
C587 N590 1.384 . S
C588 H579 0.929 . S
C588 C580 1.378 . S
C588 C583 1.350 . S
C589 H576 0.929 . S
C589 C581 1.433 . S
C589 N591 1.384 . S
N590 C586 1.427 . S
N590 C587 1.384 . S
N591 C583 1.427 . S
N591 C589 1.384 . S
H592 C598 0.930 . S
H593 C602 0.930 . S
H594 C607 0.929 . S
H595 C605 0.929 . S
H596 C600 0.929 . S
H597 C606 0.929 . S
C598 H592 0.930 . S
C598 C599 1.367 . S
C598 C606 1.378 . S
C599 C598 1.367 . S
C599 C607 1.433 . S
C600 H596 0.929 . S
C600 C602 1.378 . S
C600 C604 1.350 . S
C601 C604 1.463 . S
C601 C606 1.350 . S
C601 N609 1.427 . S
C602 H593 0.930 . S
C602 C600 1.378 . S
C602 C603 1.367 . S
C603 C602 1.367 . S
C603 C605 1.433 . S
C604 C600 1.350 . S
C604 C601 1.463 . S
C604 N608 1.427 . S
C605 H595 0.929 . S
C605 C603 1.433 . S
C605 N608 1.384 . S
C606 H597 0.929 . S
C606 C598 1.378 . S
C606 C601 1.350 . S
C607 H594 0.929 . S
C607 C599 1.433 . S
C607 N609 1.384 . S
N608 C604 1.427 . S
N608 C605 1.384 . S
N609 C601 1.427 . S
N609 C607 1.384 . S
H610 C616 0.930 . S
H611 C620 0.930 . S
H612 C625 0.929 . S
H613 C623 0.929 . S
H614 C618 0.929 . S
H615 C624 0.929 . S
C616 H610 0.930 . S
C616 C617 1.367 . S
C616 C624 1.378 . S
C617 C616 1.367 . S
C617 C625 1.433 . S
C618 H614 0.929 . S
C618 C620 1.378 . S
C618 C622 1.350 . S
C619 C622 1.463 . S
C619 C624 1.350 . S
C619 N627 1.427 . S
C620 H611 0.930 . S
C620 C618 1.378 . S
C620 C621 1.367 . S
C621 C620 1.367 . S
C621 C623 1.433 . S
C622 C618 1.350 . S
C622 C619 1.463 . S
C622 N626 1.427 . S
C623 H613 0.929 . S
C623 C621 1.433 . S
C623 N626 1.384 . S
C624 H615 0.929 . S
C624 C616 1.378 . S
C624 C619 1.350 . S
C625 H612 0.929 . S
C625 C617 1.433 . S
C625 N627 1.384 . S
N626 C622 1.427 . S
N626 C623 1.384 . S
N627 C619 1.427 . S
N627 C625 1.384 . S
H628 C634 0.930 . S
H629 C638 0.930 . S
H630 C643 0.929 . S
H631 C641 0.929 . S
H632 C636 0.929 . S
H633 C642 0.929 . S
C634 H628 0.930 . S
C634 C635 1.367 . S
C634 C642 1.378 . S
C635 C634 1.367 . S
C635 C643 1.433 . S
C636 H632 0.929 . S
C636 C638 1.378 . S
C636 C640 1.350 . S
C637 C640 1.463 . S
C637 C642 1.350 . S
C637 N645 1.427 . S
C638 H629 0.930 . S
C638 C636 1.378 . S
C638 C639 1.367 . S
C639 C638 1.367 . S
C639 C641 1.433 . S
C640 C636 1.350 . S
C640 C637 1.463 . S
C640 N644 1.427 . S
C641 H631 0.929 . S
C641 C639 1.433 . S
C641 N644 1.384 . S
C642 H633 0.929 . S
C642 C634 1.378 . S
C642 C637 1.350 . S
C643 H630 0.929 . S
C643 C635 1.433 . S
C643 N645 1.384 . S
N644 C640 1.427 . S
N644 C641 1.384 . S
N645 C637 1.427 . S
N645 C643 1.384 . S
H646 C652 0.930 . S
H647 C656 0.930 . S
H648 C661 0.929 . S
H649 C659 0.929 . S
H650 C654 0.929 . S
H651 C660 0.929 . S
C652 H646 0.930 . S
C652 C653 1.367 . S
C652 C660 1.378 . S
C653 C652 1.367 . S
C653 C661 1.433 . S
C654 H650 0.929 . S
C654 C656 1.378 . S
C654 C658 1.350 . S
C655 C658 1.463 . S
C655 C660 1.350 . S
C655 N663 1.427 . S
C656 H647 0.930 . S
C656 C654 1.378 . S
C656 C657 1.367 . S
C657 C656 1.367 . S
C657 C659 1.433 . S
C658 C654 1.350 . S
C658 C655 1.463 . S
C658 N662 1.427 . S
C659 H649 0.929 . S
C659 C657 1.433 . S
C659 N662 1.384 . S
C660 H651 0.929 . S
C660 C652 1.378 . S
C660 C655 1.350 . S
C661 H648 0.929 . S
C661 C653 1.433 . S
C661 N663 1.384 . S
N662 C658 1.427 . S
N662 C659 1.384 . S
N663 C655 1.427 . S
N663 C661 1.384 . S
H664 C670 0.930 . S
H665 C674 0.930 . S
H666 C679 0.929 . S
H667 C677 0.929 . S
H668 C672 0.929 . S
H669 C678 0.929 . S
C670 H664 0.930 . S
C670 C671 1.367 . S
C670 C678 1.378 . S
C671 C670 1.367 . S
C671 C679 1.433 . S
C672 H668 0.929 . S
C672 C674 1.378 . S
C672 C676 1.350 . S
C673 C676 1.463 . S
C673 C678 1.350 . S
C673 N681 1.427 . S
C674 H665 0.930 . S
C674 C672 1.378 . S
C674 C675 1.367 . S
C675 C674 1.367 . S
C675 C677 1.433 . S
C676 C672 1.350 . S
C676 C673 1.463 . S
C676 N680 1.427 . S
C677 H667 0.929 . S
C677 C675 1.433 . S
C677 N680 1.384 . S
C678 H669 0.929 . S
C678 C670 1.378 . S
C678 C673 1.350 . S
C679 H666 0.929 . S
C679 C671 1.433 . S
C679 N681 1.384 . S
N680 C676 1.427 . S
N680 C677 1.384 . S
N681 C673 1.427 . S
N681 C679 1.384 . S
H682 C688 0.930 . S
H683 C692 0.930 . S
H684 C697 0.929 . S
H685 C695 0.929 . S
H686 C690 0.929 . S
H687 C696 0.929 . S
C688 H682 0.930 . S
C688 C689 1.367 . S
C688 C696 1.378 . S
C689 C688 1.367 . S
C689 C697 1.433 . S
C690 H686 0.929 . S
C690 C692 1.378 . S
C690 C694 1.350 . S
C691 C694 1.463 . S
C691 C696 1.350 . S
C691 N699 1.427 . S
C692 H683 0.930 . S
C692 C690 1.378 . S
C692 C693 1.367 . S
C693 C692 1.367 . S
C693 C695 1.433 . S
C694 C690 1.350 . S
C694 C691 1.463 . S
C694 N698 1.427 . S
C695 H685 0.929 . S
C695 C693 1.433 . S
C695 N698 1.384 . S
C696 H687 0.929 . S
C696 C688 1.378 . S
C696 C691 1.350 . S
C697 H684 0.929 . S
C697 C689 1.433 . S
C697 N699 1.384 . S
N698 C694 1.427 . S
N698 C695 1.384 . S
N699 C691 1.427 . S
N699 C697 1.384 . S
H700 C706 0.930 . S
H701 C710 0.930 . S
H702 C715 0.929 . S
H703 C713 0.929 . S
H704 C708 0.929 . S
H705 C714 0.929 . S
C706 H700 0.930 . S
C706 C707 1.367 . S
C706 C714 1.378 . S
C707 C706 1.367 . S
C707 C715 1.433 . S
C708 H704 0.929 . S
C708 C710 1.378 . S
C708 C712 1.350 . S
C709 C712 1.463 . S
C709 C714 1.350 . S
C709 N717 1.427 . S
C710 H701 0.930 . S
C710 C708 1.378 . S
C710 C711 1.367 . S
C711 C710 1.367 . S
C711 C713 1.433 . S
C712 C708 1.350 . S
C712 C709 1.463 . S
C712 N716 1.427 . S
C713 H703 0.929 . S
C713 C711 1.433 . S
C713 N716 1.384 . S
C714 H705 0.929 . S
C714 C706 1.378 . S
C714 C709 1.350 . S
C715 H702 0.929 . S
C715 C707 1.433 . S
C715 N717 1.384 . S
N716 C712 1.427 . S
N716 C713 1.384 . S
N717 C709 1.427 . S
N717 C715 1.384 . S
H718 C724 0.930 . S
H719 C728 0.930 . S
H720 C733 0.929 . S
H721 C731 0.929 . S
H722 C726 0.929 . S
H723 C732 0.929 . S
C724 H718 0.930 . S
C724 C725 1.367 . S
C724 C732 1.378 . S
C725 C724 1.367 . S
C725 C733 1.433 . S
C726 H722 0.929 . S
C726 C728 1.378 . S
C726 C730 1.350 . S
C727 C730 1.463 . S
C727 C732 1.350 . S
C727 N735 1.427 . S
C728 H719 0.930 . S
C728 C726 1.378 . S
C728 C729 1.367 . S
C729 C728 1.367 . S
C729 C731 1.433 . S
C730 C726 1.350 . S
C730 C727 1.463 . S
C730 N734 1.427 . S
C731 H721 0.929 . S
C731 C729 1.433 . S
C731 N734 1.384 . S
C732 H723 0.929 . S
C732 C724 1.378 . S
C732 C727 1.350 . S
C733 H720 0.929 . S
C733 C725 1.433 . S
C733 N735 1.384 . S
N734 C730 1.427 . S
N734 C731 1.384 . S
N735 C727 1.427 . S
N735 C733 1.384 . S
H736 C742 0.930 . S
H737 C746 0.930 . S
H738 C751 0.929 . S
H739 C749 0.929 . S
H740 C744 0.929 . S
H741 C750 0.929 . S
C742 H736 0.930 . S
C742 C743 1.367 . S
C742 C750 1.378 . S
C743 C742 1.367 . S
C743 C751 1.433 . S
C744 H740 0.929 . S
C744 C746 1.378 . S
C744 C748 1.350 . S
C745 C748 1.463 . S
C745 C750 1.350 . S
C745 N753 1.427 . S
C746 H737 0.930 . S
C746 C744 1.378 . S
C746 C747 1.367 . S
C747 C746 1.367 . S
C747 C749 1.433 . S
C748 C744 1.350 . S
C748 C745 1.463 . S
C748 N752 1.427 . S
C749 H739 0.929 . S
C749 C747 1.433 . S
C749 N752 1.384 . S
C750 H741 0.929 . S
C750 C742 1.378 . S
C750 C745 1.350 . S
C751 H738 0.929 . S
C751 C743 1.433 . S
C751 N753 1.384 . S
N752 C748 1.427 . S
N752 C749 1.384 . S
N753 C745 1.427 . S
N753 C751 1.384 . S
H754 C760 0.930 . S
H755 C764 0.930 . S
H756 C769 0.929 . S
H757 C767 0.929 . S
H758 C762 0.929 . S
H759 C768 0.929 . S
C760 H754 0.930 . S
C760 C761 1.367 . S
C760 C768 1.378 . S
C761 C760 1.367 . S
C761 C769 1.433 . S
C762 H758 0.929 . S
C762 C764 1.378 . S
C762 C766 1.350 . S
C763 C766 1.463 . S
C763 C768 1.350 . S
C763 N771 1.427 . S
C764 H755 0.930 . S
C764 C762 1.378 . S
C764 C765 1.367 . S
C765 C764 1.367 . S
C765 C767 1.433 . S
C766 C762 1.350 . S
C766 C763 1.463 . S
C766 N770 1.427 . S
C767 H757 0.929 . S
C767 C765 1.433 . S
C767 N770 1.384 . S
C768 H759 0.929 . S
C768 C760 1.378 . S
C768 C763 1.350 . S
C769 H756 0.929 . S
C769 C761 1.433 . S
C769 N771 1.384 . S
N770 C766 1.427 . S
N770 C767 1.384 . S
N771 C763 1.427 . S
N771 C769 1.384 . S
H772 C778 0.930 . S
H773 C782 0.930 . S
H774 C787 0.929 . S
H775 C785 0.929 . S
H776 C780 0.929 . S
H777 C786 0.929 . S
C778 H772 0.930 . S
C778 C779 1.367 . S
C778 C786 1.378 . S
C779 C778 1.367 . S
C779 C787 1.433 . S
C780 H776 0.929 . S
C780 C782 1.378 . S
C780 C784 1.350 . S
C781 C784 1.463 . S
C781 C786 1.350 . S
C781 N789 1.427 . S
C782 H773 0.930 . S
C782 C780 1.378 . S
C782 C783 1.367 . S
C783 C782 1.367 . S
C783 C785 1.433 . S
C784 C780 1.350 . S
C784 C781 1.463 . S
C784 N788 1.427 . S
C785 H775 0.929 . S
C785 C783 1.433 . S
C785 N788 1.384 . S
C786 H777 0.929 . S
C786 C778 1.378 . S
C786 C781 1.350 . S
C787 H774 0.929 . S
C787 C779 1.433 . S
C787 N789 1.384 . S
N788 C784 1.427 . S
N788 C785 1.384 . S
N789 C781 1.427 . S
N789 C787 1.384 . S
H790 C796 0.930 . S
H791 C800 0.930 . S
H792 C805 0.929 . S
H793 C803 0.929 . S
H794 C798 0.929 . S
H795 C804 0.929 . S
C796 H790 0.930 . S
C796 C797 1.367 . S
C796 C804 1.378 . S
C797 C796 1.367 . S
C797 C805 1.433 . S
C798 H794 0.929 . S
C798 C800 1.378 . S
C798 C802 1.350 . S
C799 C802 1.463 . S
C799 C804 1.350 . S
C799 N807 1.427 . S
C800 H791 0.930 . S
C800 C798 1.378 . S
C800 C801 1.367 . S
C801 C800 1.367 . S
C801 C803 1.433 . S
C802 C798 1.350 . S
C802 C799 1.463 . S
C802 N806 1.427 . S
C803 H793 0.929 . S
C803 C801 1.433 . S
C803 N806 1.384 . S
C804 H795 0.929 . S
C804 C796 1.378 . S
C804 C799 1.350 . S
C805 H792 0.929 . S
C805 C797 1.433 . S
C805 N807 1.384 . S
N806 C802 1.427 . S
N806 C803 1.384 . S
N807 C799 1.427 . S
N807 C805 1.384 . S
H808 C814 0.930 . S
H809 C818 0.930 . S
H810 C823 0.929 . S
H811 C821 0.929 . S
H812 C816 0.929 . S
H813 C822 0.929 . S
C814 H808 0.930 . S
C814 C815 1.367 . S
C814 C822 1.378 . S
C815 C814 1.367 . S
C815 C823 1.433 . S
C816 H812 0.929 . S
C816 C818 1.378 . S
C816 C820 1.350 . S
C817 C820 1.463 . S
C817 C822 1.350 . S
C817 N825 1.427 . S
C818 H809 0.930 . S
C818 C816 1.378 . S
C818 C819 1.367 . S
C819 C818 1.367 . S
C819 C821 1.433 . S
C820 C816 1.350 . S
C820 C817 1.463 . S
C820 N824 1.427 . S
C821 H811 0.929 . S
C821 C819 1.433 . S
C821 N824 1.384 . S
C822 H813 0.929 . S
C822 C814 1.378 . S
C822 C817 1.350 . S
C823 H810 0.929 . S
C823 C815 1.433 . S
C823 N825 1.384 . S
N824 C820 1.427 . S
N824 C821 1.384 . S
N825 C817 1.427 . S
N825 C823 1.384 . S
H826 C832 0.930 . S
H827 C836 0.930 . S
H828 C841 0.929 . S
H829 C839 0.929 . S
H830 C834 0.929 . S
H831 C840 0.929 . S
C832 H826 0.930 . S
C832 C833 1.367 . S
C832 C840 1.378 . S
C833 C832 1.367 . S
C833 C841 1.433 . S
C834 H830 0.929 . S
C834 C836 1.378 . S
C834 C838 1.350 . S
C835 C838 1.463 . S
C835 C840 1.350 . S
C835 N843 1.427 . S
C836 H827 0.930 . S
C836 C834 1.378 . S
C836 C837 1.367 . S
C837 C836 1.367 . S
C837 C839 1.433 . S
C838 C834 1.350 . S
C838 C835 1.463 . S
C838 N842 1.427 . S
C839 H829 0.929 . S
C839 C837 1.433 . S
C839 N842 1.384 . S
C840 H831 0.929 . S
C840 C832 1.378 . S
C840 C835 1.350 . S
C841 H828 0.929 . S
C841 C833 1.433 . S
C841 N843 1.384 . S
N842 C838 1.427 . S
N842 C839 1.384 . S
N843 C835 1.427 . S
N843 C841 1.384 . S
H844 C850 0.930 . S
H845 C854 0.930 . S
H846 C859 0.929 . S
H847 C857 0.929 . S
H848 C852 0.929 . S
H849 C858 0.929 . S
C850 H844 0.930 . S
C850 C851 1.367 . S
C850 C858 1.378 . S
C851 C850 1.367 . S
C851 C859 1.433 . S
C852 H848 0.929 . S
C852 C854 1.378 . S
C852 C856 1.350 . S
C853 C856 1.463 . S
C853 C858 1.350 . S
C853 N861 1.427 . S
C854 H845 0.930 . S
C854 C852 1.378 . S
C854 C855 1.367 . S
C855 C854 1.367 . S
C855 C857 1.433 . S
C856 C852 1.350 . S
C856 C853 1.463 . S
C856 N860 1.427 . S
C857 H847 0.929 . S
C857 C855 1.433 . S
C857 N860 1.384 . S
C858 H849 0.929 . S
C858 C850 1.378 . S
C858 C853 1.350 . S
C859 H846 0.929 . S
C859 C851 1.433 . S
C859 N861 1.384 . S
N860 C856 1.427 . S
N860 C857 1.384 . S
N861 C853 1.427 . S
N861 C859 1.384 . S
H862 C868 0.930 . S
H863 C872 0.930 . S
H864 C877 0.929 . S
H865 C875 0.929 . S
H866 C870 0.929 . S
H867 C876 0.929 . S
C868 H862 0.930 . S
C868 C869 1.367 . S
C868 C876 1.378 . S
C869 C868 1.367 . S
C869 C877 1.433 . S
C870 H866 0.929 . S
C870 C872 1.378 . S
C870 C874 1.350 . S
C871 C874 1.463 . S
C871 C876 1.350 . S
C871 N879 1.427 . S
C872 H863 0.930 . S
C872 C870 1.378 . S
C872 C873 1.367 . S
C873 C872 1.367 . S
C873 C875 1.433 . S
C874 C870 1.350 . S
C874 C871 1.463 . S
C874 N878 1.427 . S
C875 H865 0.929 . S
C875 C873 1.433 . S
C875 N878 1.384 . S
C876 H867 0.929 . S
C876 C868 1.378 . S
C876 C871 1.350 . S
C877 H864 0.929 . S
C877 C869 1.433 . S
C877 N879 1.384 . S
N878 C874 1.427 . S
N878 C875 1.384 . S
N879 C871 1.427 . S
N879 C877 1.384 . S
H880 C886 0.930 . S
H881 C890 0.930 . S
H882 C895 0.929 . S
H883 C893 0.929 . S
H884 C888 0.929 . S
H885 C894 0.929 . S
C886 H880 0.930 . S
C886 C887 1.367 . S
C886 C894 1.378 . S
C887 C886 1.367 . S
C887 C895 1.433 . S
C888 H884 0.929 . S
C888 C890 1.378 . S
C888 C892 1.350 . S
C889 C892 1.463 . S
C889 C894 1.350 . S
C889 N897 1.427 . S
C890 H881 0.930 . S
C890 C888 1.378 . S
C890 C891 1.367 . S
C891 C890 1.367 . S
C891 C893 1.433 . S
C892 C888 1.350 . S
C892 C889 1.463 . S
C892 N896 1.427 . S
C893 H883 0.929 . S
C893 C891 1.433 . S
C893 N896 1.384 . S
C894 H885 0.929 . S
C894 C886 1.378 . S
C894 C889 1.350 . S
C895 H882 0.929 . S
C895 C887 1.433 . S
C895 N897 1.384 . S
N896 C892 1.427 . S
N896 C893 1.384 . S
N897 C889 1.427 . S
N897 C895 1.384 . S
H898 C904 0.930 . S
H899 C908 0.930 . S
H900 C913 0.929 . S
H901 C911 0.929 . S
H902 C906 0.929 . S
H903 C912 0.929 . S
C904 H898 0.930 . S
C904 C905 1.367 . S
C904 C912 1.378 . S
C905 C904 1.367 . S
C905 C913 1.433 . S
C906 H902 0.929 . S
C906 C908 1.378 . S
C906 C910 1.350 . S
C907 C910 1.463 . S
C907 C912 1.350 . S
C907 N915 1.427 . S
C908 H899 0.930 . S
C908 C906 1.378 . S
C908 C909 1.367 . S
C909 C908 1.367 . S
C909 C911 1.433 . S
C910 C906 1.350 . S
C910 C907 1.463 . S
C910 N914 1.427 . S
C911 H901 0.929 . S
C911 C909 1.433 . S
C911 N914 1.384 . S
C912 H903 0.929 . S
C912 C904 1.378 . S
C912 C907 1.350 . S
C913 H900 0.929 . S
C913 C905 1.433 . S
C913 N915 1.384 . S
N914 C910 1.427 . S
N914 C911 1.384 . S
N915 C907 1.427 . S
N915 C913 1.384 . S
H916 C922 0.930 . S
H917 C926 0.930 . S
H918 C931 0.929 . S
H919 C929 0.929 . S
H920 C924 0.929 . S
H921 C930 0.929 . S
C922 H916 0.930 . S
C922 C923 1.367 . S
C922 C930 1.378 . S
C923 C922 1.367 . S
C923 C931 1.433 . S
C924 H920 0.929 . S
C924 C926 1.378 . S
C924 C928 1.350 . S
C925 C928 1.463 . S
C925 C930 1.350 . S
C925 N933 1.427 . S
C926 H917 0.930 . S
C926 C924 1.378 . S
C926 C927 1.367 . S
C927 C926 1.367 . S
C927 C929 1.433 . S
C928 C924 1.350 . S
C928 C925 1.463 . S
C928 N932 1.427 . S
C929 H919 0.929 . S
C929 C927 1.433 . S
C929 N932 1.384 . S
C930 H921 0.929 . S
C930 C922 1.378 . S
C930 C925 1.350 . S
C931 H918 0.929 . S
C931 C923 1.433 . S
C931 N933 1.384 . S
N932 C928 1.427 . S
N932 C929 1.384 . S
N933 C925 1.427 . S
N933 C931 1.384 . S
H934 C940 0.930 . S
H935 C944 0.930 . S
H936 C949 0.929 . S
H937 C947 0.929 . S
H938 C942 0.929 . S
H939 C948 0.929 . S
C940 H934 0.930 . S
C940 C941 1.367 . S
C940 C948 1.378 . S
C941 C940 1.367 . S
C941 C949 1.433 . S
C942 H938 0.929 . S
C942 C944 1.378 . S
C942 C946 1.350 . S
C943 C946 1.463 . S
C943 C948 1.350 . S
C943 N951 1.427 . S
C944 H935 0.930 . S
C944 C942 1.378 . S
C944 C945 1.367 . S
C945 C944 1.367 . S
C945 C947 1.433 . S
C946 C942 1.350 . S
C946 C943 1.463 . S
C946 N950 1.427 . S
C947 H937 0.929 . S
C947 C945 1.433 . S
C947 N950 1.384 . S
C948 H939 0.929 . S
C948 C940 1.378 . S
C948 C943 1.350 . S
C949 H936 0.929 . S
C949 C941 1.433 . S
C949 N951 1.384 . S
N950 C946 1.427 . S
N950 C947 1.384 . S
N951 C943 1.427 . S
N951 C949 1.384 . S
H952 C958 0.930 . S
H953 C962 0.930 . S
H954 C967 0.929 . S
H955 C965 0.929 . S
H956 C960 0.929 . S
H957 C966 0.929 . S
C958 H952 0.930 . S
C958 C959 1.367 . S
C958 C966 1.378 . S
C959 C958 1.367 . S
C959 C967 1.433 . S
C960 H956 0.929 . S
C960 C962 1.378 . S
C960 C964 1.350 . S
C961 C964 1.463 . S
C961 C966 1.350 . S
C961 N969 1.427 . S
C962 H953 0.930 . S
C962 C960 1.378 . S
C962 C963 1.367 . S
C963 C962 1.367 . S
C963 C965 1.433 . S
C964 C960 1.350 . S
C964 C961 1.463 . S
C964 N968 1.427 . S
C965 H955 0.929 . S
C965 C963 1.433 . S
C965 N968 1.384 . S
C966 H957 0.929 . S
C966 C958 1.378 . S
C966 C961 1.350 . S
C967 H954 0.929 . S
C967 C959 1.433 . S
C967 N969 1.384 . S
N968 C964 1.427 . S
N968 C965 1.384 . S
N969 C961 1.427 . S
N969 C967 1.384 . S
H970 C976 0.930 . S
H971 C980 0.930 . S
H972 C985 0.929 . S
H973 C983 0.929 . S
H974 C978 0.929 . S
H975 C984 0.929 . S
C976 H970 0.930 . S
C976 C977 1.367 . S
C976 C984 1.378 . S
C977 C976 1.367 . S
C977 C985 1.433 . S
C978 H974 0.929 . S
C978 C980 1.378 . S
C978 C982 1.350 . S
C979 C982 1.463 . S
C979 C984 1.350 . S
C979 N987 1.427 . S
C980 H971 0.930 . S
C980 C978 1.378 . S
C980 C981 1.367 . S
C981 C980 1.367 . S
C981 C983 1.433 . S
C982 C978 1.350 . S
C982 C979 1.463 . S
C982 N986 1.427 . S
C983 H973 0.929 . S
C983 C981 1.433 . S
C983 N986 1.384 . S
C984 H975 0.929 . S
C984 C976 1.378 . S
C984 C979 1.350 . S
C985 H972 0.929 . S
C985 C977 1.433 . S
C985 N987 1.384 . S
N986 C982 1.427 . S
N986 C983 1.384 . S
N987 C979 1.427 . S
N987 C985 1.384 . S
H988 C994 0.930 . S
H989 C998 0.930 . S
H990 C1003 0.929 . S
H991 C1001 0.929 . S
H992 C996 0.929 . S
H993 C1002 0.929 . S
C994 H988 0.930 . S
C994 C995 1.367 . S
C994 C1002 1.378 . S
C995 C994 1.367 . S
C995 C1003 1.433 . S
C996 H992 0.929 . S
C996 C998 1.378 . S
C996 C1000 1.350 . S
C997 C1000 1.463 . S
C997 C1002 1.350 . S
C997 N1005 1.427 . S
C998 H989 0.930 . S
C998 C996 1.378 . S
C998 C999 1.367 . S
C999 C998 1.367 . S
C999 C1001 1.433 . S
C1000 C996 1.350 . S
C1000 C997 1.463 . S
C1000 N1004 1.427 . S
C1001 H991 0.929 . S
C1001 C999 1.433 . S
C1001 N1004 1.384 . S
C1002 H993 0.929 . S
C1002 C994 1.378 . S
C1002 C997 1.350 . S
C1003 H990 0.929 . S
C1003 C995 1.433 . S
C1003 N1005 1.384 . S
N1004 C1000 1.427 . S
N1004 C1001 1.384 . S
N1005 C997 1.427 . S
N1005 C1003 1.384 . S
H1006 C1012 0.930 . S
H1007 C1016 0.930 . S
H1008 C1021 0.929 . S
H1009 C1019 0.929 . S
H1010 C1014 0.929 . S
H1011 C1020 0.929 . S
C1012 H1006 0.930 . S
C1012 C1013 1.367 . S
C1012 C1020 1.378 . S
C1013 C1012 1.367 . S
C1013 C1021 1.433 . S
C1014 H1010 0.929 . S
C1014 C1016 1.378 . S
C1014 C1018 1.350 . S
C1015 C1018 1.463 . S
C1015 C1020 1.350 . S
C1015 N1023 1.427 . S
C1016 H1007 0.930 . S
C1016 C1014 1.378 . S
C1016 C1017 1.367 . S
C1017 C1016 1.367 . S
C1017 C1019 1.433 . S
C1018 C1014 1.350 . S
C1018 C1015 1.463 . S
C1018 N1022 1.427 . S
C1019 H1009 0.929 . S
C1019 C1017 1.433 . S
C1019 N1022 1.384 . S
C1020 H1011 0.929 . S
C1020 C1012 1.378 . S
C1020 C1015 1.350 . S
C1021 H1008 0.929 . S
C1021 C1013 1.433 . S
C1021 N1023 1.384 . S
N1022 C1018 1.427 . S
N1022 C1019 1.384 . S
N1023 C1015 1.427 . S
N1023 C1021 1.384 . S
H1024 C1030 0.930 . S
H1025 C1034 0.930 . S
H1026 C1039 0.929 . S
H1027 C1037 0.929 . S
H1028 C1032 0.929 . S
H1029 C1038 0.929 . S
C1030 H1024 0.930 . S
C1030 C1031 1.367 . S
C1030 C1038 1.378 . S
C1031 C1030 1.367 . S
C1031 C1039 1.433 . S
C1032 H1028 0.929 . S
C1032 C1034 1.378 . S
C1032 C1036 1.350 . S
C1033 C1036 1.463 . S
C1033 C1038 1.350 . S
C1033 N1041 1.427 . S
C1034 H1025 0.930 . S
C1034 C1032 1.378 . S
C1034 C1035 1.367 . S
C1035 C1034 1.367 . S
C1035 C1037 1.433 . S
C1036 C1032 1.350 . S
C1036 C1033 1.463 . S
C1036 N1040 1.427 . S
C1037 H1027 0.929 . S
C1037 C1035 1.433 . S
C1037 N1040 1.384 . S
C1038 H1029 0.929 . S
C1038 C1030 1.378 . S
C1038 C1033 1.350 . S
C1039 H1026 0.929 . S
C1039 C1031 1.433 . S
C1039 N1041 1.384 . S
N1040 C1036 1.427 . S
N1040 C1037 1.384 . S
N1041 C1033 1.427 . S
N1041 C1039 1.384 . S
H1042 C1048 0.930 . S
H1043 C1052 0.930 . S
H1044 C1057 0.929 . S
H1045 C1055 0.929 . S
H1046 C1050 0.929 . S
H1047 C1056 0.935 . S
C1048 H1042 0.930 . S
C1048 C1049 1.367 . S
C1048 C1056 1.374 1_455 S
C1049 C1048 1.367 . S
C1049 C1057 1.433 1_565 S
C1050 H1046 0.929 . S
C1050 C1052 1.378 1_455 S
C1050 C1054 1.350 1_445 S
C1051 C1054 1.463 1_455 S
C1051 C1056 1.347 1_455 S
C1051 N1059 1.427 1_565 S
C1052 H1043 0.930 . S
C1052 C1050 1.378 1_655 S
C1052 C1053 1.367 . S
C1053 C1052 1.367 . S
C1053 C1055 1.433 1_545 S
C1054 C1050 1.350 1_665 S
C1054 C1051 1.463 1_655 S
C1054 N1058 1.427 . S
C1055 H1045 0.929 . S
C1055 C1053 1.433 1_565 S
C1055 N1058 1.384 . S
C1056 H1047 0.935 . S
C1056 C1048 1.374 1_655 S
C1056 C1051 1.347 1_655 S
C1057 H1044 0.929 . S
C1057 C1049 1.433 1_545 S
C1057 N1059 1.384 . S
N1058 C1054 1.427 . S
N1058 C1055 1.384 . S
N1059 C1051 1.427 1_545 S
N1059 C1057 1.384 . S
H1060 C1066 0.930 . S
H1061 C1070 0.930 . S
H1062 C1075 0.929 . S
H1063 C1073 0.929 . S
H1064 C1068 0.929 . S
H1065 C1074 0.929 . S
C1066 H1060 0.930 . S
C1066 C1067 1.367 . S
C1066 C1074 1.378 . S
C1067 C1066 1.367 . S
C1067 C1075 1.433 . S
C1068 H1064 0.929 . S
C1068 C1070 1.378 . S
C1068 C1072 1.350 . S
C1069 C1072 1.463 . S
C1069 C1074 1.350 . S
C1069 N1077 1.427 . S
C1070 H1061 0.930 . S
C1070 C1068 1.378 . S
C1070 C1071 1.367 . S
C1071 C1070 1.367 . S
C1071 C1073 1.433 . S
C1072 C1068 1.350 . S
C1072 C1069 1.463 . S
C1072 N1076 1.427 . S
C1073 H1063 0.929 . S
C1073 C1071 1.433 . S
C1073 N1076 1.384 . S
C1074 H1065 0.929 . S
C1074 C1066 1.378 . S
C1074 C1069 1.350 . S
C1075 H1062 0.929 . S
C1075 C1067 1.433 . S
C1075 N1077 1.384 . S
N1076 C1072 1.427 . S
N1076 C1073 1.384 . S
N1077 C1069 1.427 . S
N1077 C1075 1.384 . S
H1078 C1084 0.930 . S
H1079 C1088 0.930 . S
H1080 C1093 0.929 . S
H1081 C1091 0.929 . S
H1082 C1086 0.929 . S
H1083 C1092 0.929 . S
C1084 H1078 0.930 . S
C1084 C1085 1.367 . S
C1084 C1092 1.378 . S
C1085 C1084 1.367 . S
C1085 C1093 1.433 1_545 S
C1086 H1082 0.929 . S
C1086 C1088 1.378 . S
C1086 C1090 1.350 1_565 S
C1087 C1090 1.463 1_554 S
C1087 C1092 1.350 . S
C1087 N1095 1.427 1_545 S
C1088 H1079 0.930 . S
C1088 C1086 1.378 . S
C1088 C1089 1.367 . S
C1089 C1088 1.367 . S
C1089 C1091 1.433 1_565 S
C1090 C1086 1.350 1_545 S
C1090 C1087 1.463 1_556 S
C1090 N1094 1.427 . S
C1091 H1081 0.929 . S
C1091 C1089 1.433 1_545 S
C1091 N1094 1.384 . S
C1092 H1083 0.929 . S
C1092 C1084 1.378 . S
C1092 C1087 1.350 . S
C1093 H1080 0.929 . S
C1093 C1085 1.433 1_565 S
C1093 N1095 1.384 . S
N1094 C1090 1.427 . S
N1094 C1091 1.384 . S
N1095 C1087 1.427 1_565 S
N1095 C1093 1.384 . S
H1096 C1102 0.930 . S
H1097 C1106 0.930 . S
H1098 C1111 0.929 . S
H1099 C1109 0.929 . S
H1100 C1104 0.929 . S
H1101 C1110 0.929 . S
C1102 H1096 0.930 . S
C1102 C1103 1.367 . S
C1102 C1110 1.378 . S
C1103 C1102 1.367 . S
C1103 C1111 1.433 . S
C1104 H1100 0.929 . S
C1104 C1106 1.378 . S
C1104 C1108 1.350 . S
C1105 C1108 1.463 . S
C1105 C1110 1.350 . S
C1105 N1113 1.427 . S
C1106 H1097 0.930 . S
C1106 C1104 1.378 . S
C1106 C1107 1.367 . S
C1107 C1106 1.367 . S
C1107 C1109 1.433 . S
C1108 C1104 1.350 . S
C1108 C1105 1.463 . S
C1108 N1112 1.427 . S
C1109 H1099 0.929 . S
C1109 C1107 1.433 . S
C1109 N1112 1.384 . S
C1110 H1101 0.929 . S
C1110 C1102 1.378 . S
C1110 C1105 1.350 . S
C1111 H1098 0.929 . S
C1111 C1103 1.433 . S
C1111 N1113 1.384 . S
N1112 C1108 1.427 . S
N1112 C1109 1.384 . S
N1113 C1105 1.427 . S
N1113 C1111 1.384 . S
H1114 C1120 0.930 . S
H1115 C1124 0.930 . S
H1116 C1129 0.929 . S
H1117 C1127 0.929 . S
H1118 C1122 0.929 . S
H1119 C1128 0.929 . S
C1120 H1114 0.930 . S
C1120 C1121 1.367 . S
C1120 C1128 1.378 . S
C1121 C1120 1.367 . S
C1121 C1129 1.433 1_565 S
C1122 H1118 0.929 . S
C1122 C1124 1.378 . S
C1122 C1126 1.350 1_545 S
C1123 C1126 1.463 . S
C1123 C1128 1.350 . S
C1123 N1131 1.427 1_565 S
C1124 H1115 0.930 . S
C1124 C1122 1.378 . S
C1124 C1125 1.367 . S
C1125 C1124 1.367 . S
C1125 C1127 1.433 1_545 S
C1126 C1122 1.350 1_565 S
C1126 C1123 1.463 . S
C1126 N1130 1.427 . S
C1127 H1117 0.929 . S
C1127 C1125 1.433 1_565 S
C1127 N1130 1.384 . S
C1128 H1119 0.929 . S
C1128 C1120 1.378 . S
C1128 C1123 1.350 . S
C1129 H1116 0.929 . S
C1129 C1121 1.433 1_545 S
C1129 N1131 1.384 . S
N1130 C1126 1.427 . S
N1130 C1127 1.384 . S
N1131 C1123 1.427 1_545 S
N1131 C1129 1.384 . S
H1132 C1138 0.930 . S
H1133 C1142 0.930 . S
H1134 C1147 0.929 . S
H1135 C1145 0.929 . S
H1136 C1140 0.929 . S
H1137 C1146 0.929 . S
C1138 H1132 0.930 . S
C1138 C1139 1.367 . S
C1138 C1146 1.378 . S
C1139 C1138 1.367 . S
C1139 C1147 1.433 . S
C1140 H1136 0.929 . S
C1140 C1142 1.378 . S
C1140 C1144 1.350 . S
C1141 C1144 1.463 . S
C1141 C1146 1.350 . S
C1141 N1149 1.427 . S
C1142 H1133 0.930 . S
C1142 C1140 1.378 . S
C1142 C1143 1.367 . S
C1143 C1142 1.367 . S
C1143 C1145 1.433 . S
C1144 C1140 1.350 . S
C1144 C1141 1.463 . S
C1144 N1148 1.427 . S
C1145 H1135 0.929 . S
C1145 C1143 1.433 . S
C1145 N1148 1.384 . S
C1146 H1137 0.929 . S
C1146 C1138 1.378 . S
C1146 C1141 1.350 . S
C1147 H1134 0.929 . S
C1147 C1139 1.433 . S
C1147 N1149 1.384 . S
N1148 C1144 1.427 . S
N1148 C1145 1.384 . S
N1149 C1141 1.427 . S
N1149 C1147 1.384 . S
H1150 C1156 0.930 . S
H1151 C1160 0.930 . S
H1152 C1165 0.949 . S
H1153 C1163 0.929 . S
H1154 C1158 0.929 1_556 S
H1155 C1164 0.929 . S
C1156 H1150 0.930 . S
C1156 C1157 1.367 . S
C1156 C1164 1.378 . S
C1157 C1156 1.367 . S
C1157 C1165 1.401 1_455 S
C1158 H1154 0.929 1_554 S
C1158 C1160 1.378 . S
C1158 C1162 1.350 1_565 S
C1159 C1162 1.463 1_456 S
C1159 C1164 1.350 . S
C1159 N1167 1.427 1_455 S
C1160 H1151 0.930 . S
C1160 C1158 1.378 . S
C1160 C1161 1.367 . S
C1161 C1160 1.367 . S
C1161 C1163 1.431 1_665 S
C1162 C1158 1.350 1_545 S
C1162 C1159 1.463 1_654 S
C1162 N1166 1.427 1_655 S
C1163 H1153 0.929 . S
C1163 C1161 1.431 1_445 S
C1163 N1166 1.385 . S
C1164 H1155 0.929 . S
C1164 C1156 1.378 . S
C1164 C1159 1.350 . S
C1165 H1152 0.949 . S
C1165 C1157 1.401 1_655 S
C1165 N1167 1.396 . S
N1166 C1162 1.427 1_455 S
N1166 C1163 1.385 . S
N1167 C1159 1.427 1_655 S
N1167 C1165 1.396 . S
H1168 C1174 0.930 . S
H1169 C1178 0.930 . S
H1170 C1183 0.929 . S
H1171 C1181 0.929 . S
H1172 C1176 0.929 . S
H1173 C1182 0.929 . S
C1174 H1168 0.930 . S
C1174 C1175 1.367 . S
C1174 C1182 1.378 . S
C1175 C1174 1.367 . S
C1175 C1183 1.433 . S
C1176 H1172 0.929 . S
C1176 C1178 1.378 . S
C1176 C1180 1.350 . S
C1177 C1180 1.463 . S
C1177 C1182 1.350 . S
C1177 N1185 1.427 . S
C1178 H1169 0.930 . S
C1178 C1176 1.378 . S
C1178 C1179 1.367 . S
C1179 C1178 1.367 . S
C1179 C1181 1.433 . S
C1180 C1176 1.350 . S
C1180 C1177 1.463 . S
C1180 N1184 1.427 . S
C1181 H1171 0.929 . S
C1181 C1179 1.433 . S
C1181 N1184 1.384 . S
C1182 H1173 0.929 . S
C1182 C1174 1.378 . S
C1182 C1177 1.350 . S
C1183 H1170 0.929 . S
C1183 C1175 1.433 . S
C1183 N1185 1.384 . S
N1184 C1180 1.427 . S
N1184 C1181 1.384 . S
N1185 C1177 1.427 . S
N1185 C1183 1.384 . S
H1186 C1192 0.930 . S
H1187 C1196 0.930 . S
H1188 C1201 0.929 . S
H1189 C1199 0.929 . S
H1190 C1194 0.929 . S
H1191 C1200 0.929 . S
C1192 H1186 0.930 . S
C1192 C1193 1.367 . S
C1192 C1200 1.378 . S
C1193 C1192 1.367 . S
C1193 C1201 1.433 . S
C1194 H1190 0.929 . S
C1194 C1196 1.378 . S
C1194 C1198 1.350 . S
C1195 C1198 1.463 . S
C1195 C1200 1.350 . S
C1195 N1203 1.427 . S
C1196 H1187 0.930 . S
C1196 C1194 1.378 . S
C1196 C1197 1.367 . S
C1197 C1196 1.367 . S
C1197 C1199 1.433 . S
C1198 C1194 1.350 . S
C1198 C1195 1.463 . S
C1198 N1202 1.427 . S
C1199 H1189 0.929 . S
C1199 C1197 1.433 . S
C1199 N1202 1.384 . S
C1200 H1191 0.929 . S
C1200 C1192 1.378 . S
C1200 C1195 1.350 . S
C1201 H1188 0.929 . S
C1201 C1193 1.433 . S
C1201 N1203 1.384 . S
N1202 C1198 1.427 . S
N1202 C1199 1.384 . S
N1203 C1195 1.427 . S
N1203 C1201 1.384 . S
H1204 C1210 0.930 . S
H1205 C1214 0.930 . S
H1206 C1219 0.929 . S
H1207 C1217 0.929 . S
H1208 C1212 0.929 . S
H1209 C1218 0.929 . S
C1210 H1204 0.930 . S
C1210 C1211 1.367 . S
C1210 C1218 1.378 . S
C1211 C1210 1.367 . S
C1211 C1219 1.433 . S
C1212 H1208 0.929 . S
C1212 C1214 1.378 . S
C1212 C1216 1.350 . S
C1213 C1216 1.463 . S
C1213 C1218 1.350 . S
C1213 N1221 1.427 . S
C1214 H1205 0.930 . S
C1214 C1212 1.378 . S
C1214 C1215 1.367 . S
C1215 C1214 1.367 . S
C1215 C1217 1.433 . S
C1216 C1212 1.350 . S
C1216 C1213 1.463 . S
C1216 N1220 1.427 . S
C1217 H1207 0.929 . S
C1217 C1215 1.433 . S
C1217 N1220 1.384 . S
C1218 H1209 0.929 . S
C1218 C1210 1.378 . S
C1218 C1213 1.350 . S
C1219 H1206 0.929 . S
C1219 C1211 1.433 . S
C1219 N1221 1.384 . S
N1220 C1216 1.427 . S
N1220 C1217 1.384 . S
N1221 C1213 1.427 . S
N1221 C1219 1.384 . S
H1222 C1228 0.930 . S
H1223 C1232 0.930 . S
H1224 C1237 0.929 . S
H1225 C1235 0.929 . S
H1226 C1230 0.929 . S
H1227 C1236 0.929 . S
C1228 H1222 0.930 . S
C1228 C1229 1.367 . S
C1228 C1236 1.378 . S
C1229 C1228 1.367 . S
C1229 C1237 1.433 . S
C1230 H1226 0.929 . S
C1230 C1232 1.378 . S
C1230 C1234 1.350 . S
C1231 C1234 1.463 . S
C1231 C1236 1.350 . S
C1231 N1239 1.427 . S
C1232 H1223 0.930 . S
C1232 C1230 1.378 . S
C1232 C1233 1.367 . S
C1233 C1232 1.367 . S
C1233 C1235 1.433 . S
C1234 C1230 1.350 . S
C1234 C1231 1.463 . S
C1234 N1238 1.427 . S
C1235 H1225 0.929 . S
C1235 C1233 1.433 . S
C1235 N1238 1.384 . S
C1236 H1227 0.929 . S
C1236 C1228 1.378 . S
C1236 C1231 1.350 . S
C1237 H1224 0.929 . S
C1237 C1229 1.433 . S
C1237 N1239 1.384 . S
N1238 C1234 1.427 . S
N1238 C1235 1.384 . S
N1239 C1231 1.427 . S
N1239 C1237 1.384 . S
H1240 C1246 0.930 . S
H1241 C1250 0.930 . S
H1242 C1255 0.929 . S
H1243 C1253 0.929 . S
H1244 C1248 0.929 . S
H1245 C1254 0.929 . S
C1246 H1240 0.930 . S
C1246 C1247 1.367 . S
C1246 C1254 1.378 . S
C1247 C1246 1.367 . S
C1247 C1255 1.433 . S
C1248 H1244 0.929 . S
C1248 C1250 1.378 . S
C1248 C1252 1.350 . S
C1249 C1252 1.463 1_554 S
C1249 C1254 1.350 . S
C1249 N1257 1.427 . S
C1250 H1241 0.930 . S
C1250 C1248 1.378 . S
C1250 C1251 1.367 . S
C1251 C1250 1.367 . S
C1251 C1253 1.433 . S
C1252 C1248 1.350 . S
C1252 C1249 1.463 1_556 S
C1252 N1256 1.427 . S
C1253 H1243 0.929 . S
C1253 C1251 1.433 . S
C1253 N1256 1.384 . S
C1254 H1245 0.929 . S
C1254 C1246 1.378 . S
C1254 C1249 1.350 . S
C1255 H1242 0.929 . S
C1255 C1247 1.433 . S
C1255 N1257 1.384 . S
N1256 C1252 1.427 . S
N1256 C1253 1.384 . S
N1257 C1249 1.427 . S
N1257 C1255 1.384 . S
H1258 C1264 0.930 . S
H1259 C1268 0.930 . S
H1260 C1273 0.929 1_655 S
H1261 C1271 0.936 . S
H1262 C1266 0.929 . S
H1263 C1272 0.929 . S
C1264 H1258 0.930 . S
C1264 C1265 1.367 . S
C1264 C1272 1.378 . S
C1265 C1264 1.367 . S
C1265 C1273 1.433 . S
C1266 H1262 0.929 . S
C1266 C1268 1.378 . S
C1266 C1270 1.350 . S
C1267 C1270 1.463 1_455 S
C1267 C1272 1.350 . S
C1267 N1275 1.427 1_455 S
C1268 H1259 0.930 . S
C1268 C1266 1.378 . S
C1268 C1269 1.367 . S
C1269 C1268 1.367 . S
C1269 C1271 1.433 . S
C1270 C1266 1.350 . S
C1270 C1267 1.463 1_655 S
C1270 N1274 1.427 1_655 S
C1271 H1261 0.936 . S
C1271 C1269 1.433 . S
C1271 N1274 1.384 1_655 S
C1272 H1263 0.929 . S
C1272 C1264 1.378 . S
C1272 C1267 1.350 . S
C1273 H1260 0.929 1_455 S
C1273 C1265 1.433 . S
C1273 N1275 1.384 1_455 S
N1274 C1270 1.427 1_455 S
N1274 C1271 1.384 1_455 S
N1275 C1267 1.427 1_655 S
N1275 C1273 1.384 1_655 S
H1276 C1282 0.930 . S
H1277 C1286 0.930 . S
H1278 C1291 0.929 . S
H1279 C1289 0.929 . S
H1280 C1284 0.923 1_455 S
H1281 C1290 0.929 . S
C1282 H1276 0.930 . S
C1282 C1283 1.367 . S
C1282 C1290 1.378 1_455 S
C1283 C1282 1.367 . S
C1283 C1291 1.433 . S
C1284 H1280 0.923 1_655 S
C1284 C1286 1.381 . S
C1284 C1288 1.352 . S
C1285 C1288 1.463 1_454 S
C1285 C1290 1.350 1_455 S
C1285 N1293 1.427 . S
C1286 H1277 0.930 . S
C1286 C1284 1.381 . S
C1286 C1287 1.367 . S
C1287 C1286 1.367 . S
C1287 C1289 1.433 . S
C1288 C1284 1.352 . S
C1288 C1285 1.463 1_656 S
C1288 N1292 1.427 . S
C1289 H1279 0.929 . S
C1289 C1287 1.433 . S
C1289 N1292 1.384 . S
C1290 H1281 0.929 . S
C1290 C1282 1.378 1_655 S
C1290 C1285 1.350 1_655 S
C1291 H1278 0.929 . S
C1291 C1283 1.433 . S
C1291 N1293 1.384 . S
N1292 C1288 1.427 . S
N1292 C1289 1.384 . S
N1293 C1285 1.427 . S
N1293 C1291 1.384 . S
H1294 C1300 0.930 . S
H1295 C1304 0.930 . S
H1296 C1309 0.929 . S
H1297 C1307 0.929 . S
H1298 C1302 0.929 . S
H1299 C1308 0.929 . S
C1300 H1294 0.930 . S
C1300 C1301 1.367 . S
C1300 C1308 1.378 . S
C1301 C1300 1.367 . S
C1301 C1309 1.433 . S
C1302 H1298 0.929 . S
C1302 C1304 1.378 . S
C1302 C1306 1.350 . S
C1303 C1306 1.463 . S
C1303 C1308 1.350 . S
C1303 N1311 1.427 . S
C1304 H1295 0.930 . S
C1304 C1302 1.378 . S
C1304 C1305 1.367 . S
C1305 C1304 1.367 . S
C1305 C1307 1.433 . S
C1306 C1302 1.350 . S
C1306 C1303 1.463 . S
C1306 N1310 1.427 . S
C1307 H1297 0.929 . S
C1307 C1305 1.433 . S
C1307 N1310 1.384 . S
C1308 H1299 0.929 . S
C1308 C1300 1.378 . S
C1308 C1303 1.350 . S
C1309 H1296 0.929 . S
C1309 C1301 1.433 . S
C1309 N1311 1.384 . S
N1310 C1306 1.427 . S
N1310 C1307 1.384 . S
N1311 C1303 1.427 . S
N1311 C1309 1.384 . S
H1312 C1318 0.930 . S
H1313 C1322 0.930 . S
H1314 C1327 0.929 . S
H1315 C1325 0.929 . S
H1316 C1320 0.929 . S
H1317 C1326 0.929 . S
C1318 H1312 0.930 . S
C1318 C1319 1.367 . S
C1318 C1326 1.378 . S
C1319 C1318 1.367 . S
C1319 C1327 1.433 . S
C1320 H1316 0.929 . S
C1320 C1322 1.378 . S
C1320 C1324 1.350 . S
C1321 C1324 1.463 . S
C1321 C1326 1.350 . S
C1321 N1329 1.427 . S
C1322 H1313 0.930 . S
C1322 C1320 1.378 . S
C1322 C1323 1.367 . S
C1323 C1322 1.367 . S
C1323 C1325 1.433 . S
C1324 C1320 1.350 . S
C1324 C1321 1.463 . S
C1324 N1328 1.427 . S
C1325 H1315 0.929 . S
C1325 C1323 1.433 . S
C1325 N1328 1.384 . S
C1326 H1317 0.929 . S
C1326 C1318 1.378 . S
C1326 C1321 1.350 . S
C1327 H1314 0.929 . S
C1327 C1319 1.433 . S
C1327 N1329 1.384 . S
N1328 C1324 1.427 . S
N1328 C1325 1.384 . S
N1329 C1321 1.427 . S
N1329 C1327 1.384 . S
H1330 C1336 0.940 . S
H1331 C1340 0.930 . S
H1332 C1345 0.929 . S
H1333 C1343 0.929 . S
H1334 C1338 0.929 . S
H1335 C1344 0.929 . S
C1336 H1330 0.940 . S
C1336 C1337 1.367 . S
C1336 C1344 1.378 . S
C1337 C1336 1.367 . S
C1337 C1345 1.433 . S
C1338 H1334 0.929 . S
C1338 C1340 1.378 . S
C1338 C1342 1.350 . S
C1339 C1342 1.463 . S
C1339 C1344 1.350 . S
C1339 N1347 1.427 . S
C1340 H1331 0.930 . S
C1340 C1338 1.378 . S
C1340 C1341 1.367 . S
C1341 C1340 1.367 . S
C1341 C1343 1.433 . S
C1342 C1338 1.350 . S
C1342 C1339 1.463 . S
C1342 N1346 1.427 . S
C1343 H1333 0.929 . S
C1343 C1341 1.433 . S
C1343 N1346 1.384 . S
C1344 H1335 0.929 . S
C1344 C1336 1.378 . S
C1344 C1339 1.350 . S
C1345 H1332 0.929 . S
C1345 C1337 1.433 . S
C1345 N1347 1.384 . S
N1346 C1342 1.427 . S
N1346 C1343 1.384 . S
N1347 C1339 1.427 . S
N1347 C1345 1.384 . S
H1348 C1354 0.930 . S
H1349 C1358 0.930 . S
H1350 C1363 0.929 . S
H1351 C1361 0.957 . S
H1352 C1356 0.929 . S
H1353 C1362 0.929 . S
C1354 H1348 0.930 . S
C1354 C1355 1.367 . S
C1354 C1362 1.378 . S
C1355 C1354 1.367 . S
C1355 C1363 1.433 . S
C1356 H1352 0.929 . S
C1356 C1358 1.378 . S
C1356 C1360 1.350 . S
C1357 C1360 1.463 . S
C1357 C1362 1.350 . S
C1357 N1365 1.427 . S
C1358 H1349 0.930 . S
C1358 C1356 1.378 . S
C1358 C1359 1.367 . S
C1359 C1358 1.367 . S
C1359 C1361 1.433 . S
C1360 C1356 1.350 . S
C1360 C1357 1.463 . S
C1360 N1364 1.427 . S
C1361 H1351 0.957 . S
C1361 C1359 1.433 . S
C1361 N1364 1.384 . S
C1362 H1353 0.929 . S
C1362 C1354 1.378 . S
C1362 C1357 1.350 . S
C1363 H1350 0.929 . S
C1363 C1355 1.433 . S
C1363 N1365 1.384 . S
N1364 C1360 1.427 . S
N1364 C1361 1.384 . S
N1365 C1357 1.427 . S
N1365 C1363 1.384 . S
H1366 C1372 0.930 . S
H1367 C1376 0.930 . S
H1368 C1381 0.929 . S
H1369 C1379 0.929 . S
H1370 C1374 0.929 . S
H1371 C1380 0.929 . S
C1372 H1366 0.930 . S
C1372 C1373 1.367 . S
C1372 C1380 1.378 . S
C1373 C1372 1.367 . S
C1373 C1381 1.433 . S
C1374 H1370 0.929 . S
C1374 C1376 1.378 . S
C1374 C1378 1.350 . S
C1375 C1378 1.463 . S
C1375 C1380 1.350 . S
C1375 N1383 1.427 . S
C1376 H1367 0.930 . S
C1376 C1374 1.378 . S
C1376 C1377 1.367 . S
C1377 C1376 1.367 . S
C1377 C1379 1.433 . S
C1378 C1374 1.350 . S
C1378 C1375 1.463 . S
C1378 N1382 1.427 . S
C1379 H1369 0.929 . S
C1379 C1377 1.433 . S
C1379 N1382 1.384 . S
C1380 H1371 0.929 . S
C1380 C1372 1.378 . S
C1380 C1375 1.350 . S
C1381 H1368 0.929 . S
C1381 C1373 1.433 . S
C1381 N1383 1.384 . S
N1382 C1378 1.427 . S
N1382 C1379 1.384 . S
N1383 C1375 1.427 . S
N1383 C1381 1.384 . S
H1384 C1390 0.930 . S
H1385 C1394 0.930 . S
H1386 C1399 0.929 . S
H1387 C1397 0.929 . S
H1388 C1392 0.929 . S
H1389 C1398 0.929 . S
C1390 H1384 0.930 . S
C1390 C1391 1.367 . S
C1390 C1398 1.378 . S
C1391 C1390 1.367 . S
C1391 C1399 1.433 . S
C1392 H1388 0.929 . S
C1392 C1394 1.378 . S
C1392 C1396 1.350 . S
C1393 C1396 1.463 . S
C1393 C1398 1.350 . S
C1393 N1401 1.427 . S
C1394 H1385 0.930 . S
C1394 C1392 1.378 . S
C1394 C1395 1.367 . S
C1395 C1394 1.367 . S
C1395 C1397 1.433 . S
C1396 C1392 1.350 . S
C1396 C1393 1.463 . S
C1396 N1400 1.427 . S
C1397 H1387 0.929 . S
C1397 C1395 1.433 . S
C1397 N1400 1.384 . S
C1398 H1389 0.929 . S
C1398 C1390 1.378 . S
C1398 C1393 1.350 . S
C1399 H1386 0.929 . S
C1399 C1391 1.433 . S
C1399 N1401 1.384 . S
N1400 C1396 1.427 . S
N1400 C1397 1.384 . S
N1401 C1393 1.427 . S
N1401 C1399 1.384 . S
H1402 C1408 0.930 . S
H1403 C1412 0.930 . S
H1404 C1417 0.929 . S
H1405 C1415 0.929 . S
H1406 C1410 0.929 . S
H1407 C1416 0.929 . S
C1408 H1402 0.930 . S
C1408 C1409 1.367 . S
C1408 C1416 1.378 . S
C1409 C1408 1.367 . S
C1409 C1417 1.433 . S
C1410 H1406 0.929 . S
C1410 C1412 1.378 . S
C1410 C1414 1.350 . S
C1411 C1414 1.463 . S
C1411 C1416 1.350 . S
C1411 N1419 1.427 . S
C1412 H1403 0.930 . S
C1412 C1410 1.378 . S
C1412 C1413 1.367 . S
C1413 C1412 1.367 . S
C1413 C1415 1.433 . S
C1414 C1410 1.350 . S
C1414 C1411 1.463 . S
C1414 N1418 1.427 . S
C1415 H1405 0.929 . S
C1415 C1413 1.433 . S
C1415 N1418 1.384 . S
C1416 H1407 0.929 . S
C1416 C1408 1.378 . S
C1416 C1411 1.350 . S
C1417 H1404 0.929 . S
C1417 C1409 1.433 . S
C1417 N1419 1.384 . S
N1418 C1414 1.427 . S
N1418 C1415 1.384 . S
N1419 C1411 1.427 . S
N1419 C1417 1.384 . S
H1420 C1426 0.930 . S
H1421 C1430 0.930 . S
H1422 C1435 0.929 . S
H1423 C1433 0.929 . S
H1424 C1428 0.929 . S
H1425 C1434 0.929 . S
C1426 H1420 0.930 . S
C1426 C1427 1.367 . S
C1426 C1434 1.378 . S
C1427 C1426 1.367 . S
C1427 C1435 1.433 . S
C1428 H1424 0.929 . S
C1428 C1430 1.378 . S
C1428 C1432 1.350 . S
C1429 C1432 1.463 . S
C1429 C1434 1.350 . S
C1429 N1437 1.427 . S
C1430 H1421 0.930 . S
C1430 C1428 1.378 . S
C1430 C1431 1.367 . S
C1431 C1430 1.367 . S
C1431 C1433 1.433 . S
C1432 C1428 1.350 . S
C1432 C1429 1.463 . S
C1432 N1436 1.427 . S
C1433 H1423 0.929 . S
C1433 C1431 1.433 . S
C1433 N1436 1.384 . S
C1434 H1425 0.929 . S
C1434 C1426 1.378 . S
C1434 C1429 1.350 . S
C1435 H1422 0.929 . S
C1435 C1427 1.433 . S
C1435 N1437 1.384 . S
N1436 C1432 1.427 . S
N1436 C1433 1.384 . S
N1437 C1429 1.427 . S
N1437 C1435 1.384 . S
H1438 C1444 0.930 . S
H1439 C1448 0.930 . S
H1440 C1453 0.929 . S
H1441 C1451 0.929 . S
H1442 C1446 0.929 . S
H1443 C1452 0.929 . S
C1444 H1438 0.930 . S
C1444 C1445 1.367 . S
C1444 C1452 1.378 . S
C1445 C1444 1.367 . S
C1445 C1453 1.433 . S
C1446 H1442 0.929 . S
C1446 C1448 1.378 . S
C1446 C1450 1.350 . S
C1447 C1450 1.463 . S
C1447 C1452 1.350 . S
C1447 N1455 1.427 . S
C1448 H1439 0.930 . S
C1448 C1446 1.378 . S
C1448 C1449 1.367 . S
C1449 C1448 1.367 . S
C1449 C1451 1.433 . S
C1450 C1446 1.350 . S
C1450 C1447 1.463 . S
C1450 N1454 1.427 . S
C1451 H1441 0.929 . S
C1451 C1449 1.433 . S
C1451 N1454 1.384 . S
C1452 H1443 0.929 . S
C1452 C1444 1.378 . S
C1452 C1447 1.350 . S
C1453 H1440 0.929 . S
C1453 C1445 1.433 . S
C1453 N1455 1.384 . S
N1454 C1450 1.427 . S
N1454 C1451 1.384 . S
N1455 C1447 1.427 . S
N1455 C1453 1.384 . S
H1456 C1462 0.930 . S
H1457 C1466 0.930 . S
H1458 C1471 0.929 . S
H1459 C1469 0.929 . S
H1460 C1464 0.929 . S
H1461 C1470 0.929 . S
C1462 H1456 0.930 . S
C1462 C1463 1.367 . S
C1462 C1470 1.378 . S
C1463 C1462 1.367 . S
C1463 C1471 1.433 . S
C1464 H1460 0.929 . S
C1464 C1466 1.378 . S
C1464 C1468 1.350 . S
C1465 C1468 1.463 . S
C1465 C1470 1.350 . S
C1465 N1473 1.427 . S
C1466 H1457 0.930 . S
C1466 C1464 1.378 . S
C1466 C1467 1.367 . S
C1467 C1466 1.367 . S
C1467 C1469 1.433 . S
C1468 C1464 1.350 . S
C1468 C1465 1.463 . S
C1468 N1472 1.427 . S
C1469 H1459 0.929 . S
C1469 C1467 1.433 . S
C1469 N1472 1.384 . S
C1470 H1461 0.929 . S
C1470 C1462 1.378 . S
C1470 C1465 1.350 . S
C1471 H1458 0.929 . S
C1471 C1463 1.433 . S
C1471 N1473 1.384 . S
N1472 C1468 1.427 . S
N1472 C1469 1.384 . S
N1473 C1465 1.427 . S
N1473 C1471 1.384 . S
H1474 C1480 0.930 . S
H1475 C1484 0.930 . S
H1476 C1489 0.929 . S
H1477 C1487 0.929 . S
H1478 C1482 0.929 . S
H1479 C1488 0.929 . S
C1480 H1474 0.930 . S
C1480 C1481 1.367 . S
C1480 C1488 1.378 . S
C1481 C1480 1.367 . S
C1481 C1489 1.433 . S
C1482 H1478 0.929 . S
C1482 C1484 1.378 . S
C1482 C1486 1.350 . S
C1483 C1486 1.463 . S
C1483 C1488 1.350 . S
C1483 N1491 1.427 . S
C1484 H1475 0.930 . S
C1484 C1482 1.378 . S
C1484 C1485 1.367 . S
C1485 C1484 1.367 . S
C1485 C1487 1.433 . S
C1486 C1482 1.350 . S
C1486 C1483 1.463 . S
C1486 N1490 1.427 . S
C1487 H1477 0.929 . S
C1487 C1485 1.433 . S
C1487 N1490 1.384 . S
C1488 H1479 0.929 . S
C1488 C1480 1.378 . S
C1488 C1483 1.350 . S
C1489 H1476 0.929 . S
C1489 C1481 1.433 . S
C1489 N1491 1.384 . S
N1490 C1486 1.427 . S
N1490 C1487 1.384 . S
N1491 C1483 1.427 . S
N1491 C1489 1.384 . S
H1492 C1498 0.930 . S
H1493 C1502 0.930 . S
H1494 C1507 0.929 . S
H1495 C1505 0.929 . S
H1496 C1500 0.929 . S
H1497 C1506 0.929 . S
C1498 H1492 0.930 . S
C1498 C1499 1.367 . S
C1498 C1506 1.378 . S
C1499 C1498 1.367 . S
C1499 C1507 1.433 . S
C1500 H1496 0.929 . S
C1500 C1502 1.378 . S
C1500 C1504 1.350 . S
C1501 C1504 1.463 . S
C1501 C1506 1.350 . S
C1501 N1509 1.427 . S
C1502 H1493 0.930 . S
C1502 C1500 1.378 . S
C1502 C1503 1.367 . S
C1503 C1502 1.367 . S
C1503 C1505 1.433 . S
C1504 C1500 1.350 . S
C1504 C1501 1.463 . S
C1504 N1508 1.427 . S
C1505 H1495 0.929 . S
C1505 C1503 1.433 . S
C1505 N1508 1.384 . S
C1506 H1497 0.929 . S
C1506 C1498 1.378 . S
C1506 C1501 1.350 . S
C1507 H1494 0.929 . S
C1507 C1499 1.433 . S
C1507 N1509 1.384 . S
N1508 C1504 1.427 . S
N1508 C1505 1.384 . S
N1509 C1501 1.427 . S
N1509 C1507 1.384 . S
H1510 C1516 0.930 . S
H1511 C1520 0.930 . S
H1512 C1525 0.929 . S
H1513 C1523 0.929 . S
H1514 C1518 0.929 . S
H1515 C1524 0.929 . S
C1516 H1510 0.930 . S
C1516 C1517 1.367 . S
C1516 C1524 1.378 . S
C1517 C1516 1.367 . S
C1517 C1525 1.433 . S
C1518 H1514 0.929 . S
C1518 C1520 1.378 . S
C1518 C1522 1.350 . S
C1519 C1522 1.463 . S
C1519 C1524 1.350 . S
C1519 N1527 1.427 . S
C1520 H1511 0.930 . S
C1520 C1518 1.378 . S
C1520 C1521 1.367 . S
C1521 C1520 1.367 . S
C1521 C1523 1.433 . S
C1522 C1518 1.350 . S
C1522 C1519 1.463 . S
C1522 N1526 1.427 . S
C1523 H1513 0.929 . S
C1523 C1521 1.433 . S
C1523 N1526 1.384 . S
C1524 H1515 0.929 . S
C1524 C1516 1.378 . S
C1524 C1519 1.350 . S
C1525 H1512 0.929 . S
C1525 C1517 1.433 . S
C1525 N1527 1.384 . S
N1526 C1522 1.427 . S
N1526 C1523 1.384 . S
N1527 C1519 1.427 . S
N1527 C1525 1.384 . S
H1528 C1534 0.930 . S
H1529 C1538 0.930 . S
H1530 C1543 0.929 . S
H1531 C1541 0.929 . S
H1532 C1536 0.929 . S
H1533 C1542 0.929 . S
C1534 H1528 0.930 . S
C1534 C1535 1.367 . S
C1534 C1542 1.378 . S
C1535 C1534 1.367 . S
C1535 C1543 1.433 . S
C1536 H1532 0.929 . S
C1536 C1538 1.378 . S
C1536 C1540 1.350 . S
C1537 C1540 1.463 . S
C1537 C1542 1.350 . S
C1537 N1545 1.427 . S
C1538 H1529 0.930 . S
C1538 C1536 1.378 . S
C1538 C1539 1.367 . S
C1539 C1538 1.367 . S
C1539 C1541 1.433 . S
C1540 C1536 1.350 . S
C1540 C1537 1.463 . S
C1540 N1544 1.427 . S
C1541 H1531 0.929 . S
C1541 C1539 1.433 . S
C1541 N1544 1.384 . S
C1542 H1533 0.929 . S
C1542 C1534 1.378 . S
C1542 C1537 1.350 . S
C1543 H1530 0.929 . S
C1543 C1535 1.433 . S
C1543 N1545 1.384 . S
N1544 C1540 1.427 . S
N1544 C1541 1.384 . S
N1545 C1537 1.427 . S
N1545 C1543 1.384 . S
H1546 C1552 0.930 . S
H1547 C1556 0.930 . S
H1548 C1561 0.929 . S
H1549 C1559 0.929 . S
H1550 C1554 0.929 . S
H1551 C1560 0.929 . S
C1552 H1546 0.930 . S
C1552 C1553 1.367 . S
C1552 C1560 1.378 . S
C1553 C1552 1.367 . S
C1553 C1561 1.433 . S
C1554 H1550 0.929 . S
C1554 C1556 1.378 . S
C1554 C1558 1.350 . S
C1555 C1558 1.463 . S
C1555 C1560 1.350 . S
C1555 N1563 1.427 . S
C1556 H1547 0.930 . S
C1556 C1554 1.378 . S
C1556 C1557 1.367 . S
C1557 C1556 1.367 . S
C1557 C1559 1.433 . S
C1558 C1554 1.350 . S
C1558 C1555 1.463 . S
C1558 N1562 1.427 . S
C1559 H1549 0.929 . S
C1559 C1557 1.433 . S
C1559 N1562 1.384 . S
C1560 H1551 0.929 . S
C1560 C1552 1.378 . S
C1560 C1555 1.350 . S
C1561 H1548 0.929 . S
C1561 C1553 1.433 . S
C1561 N1563 1.384 . S
N1562 C1558 1.427 . S
N1562 C1559 1.384 . S
N1563 C1555 1.427 . S
N1563 C1561 1.384 . S
H1564 C1570 0.930 . S
H1565 C1574 0.930 . S
H1566 C1579 0.929 . S
H1567 C1577 0.929 . S
H1568 C1572 0.929 . S
H1569 C1578 0.929 . S
C1570 H1564 0.930 . S
C1570 C1571 1.367 . S
C1570 C1578 1.378 . S
C1571 C1570 1.367 . S
C1571 C1579 1.433 . S
C1572 H1568 0.929 . S
C1572 C1574 1.378 . S
C1572 C1576 1.350 . S
C1573 C1576 1.463 . S
C1573 C1578 1.350 . S
C1573 N1581 1.427 . S
C1574 H1565 0.930 . S
C1574 C1572 1.378 . S
C1574 C1575 1.367 . S
C1575 C1574 1.367 . S
C1575 C1577 1.433 . S
C1576 C1572 1.350 . S
C1576 C1573 1.463 . S
C1576 N1580 1.427 . S
C1577 H1567 0.929 . S
C1577 C1575 1.433 . S
C1577 N1580 1.384 . S
C1578 H1569 0.929 . S
C1578 C1570 1.378 . S
C1578 C1573 1.350 . S
C1579 H1566 0.929 . S
C1579 C1571 1.433 . S
C1579 N1581 1.384 . S
N1580 C1576 1.427 . S
N1580 C1577 1.384 . S
N1581 C1573 1.427 . S
N1581 C1579 1.384 . S
H1582 C1588 0.930 . S
H1583 C1592 0.930 . S
H1584 C1597 0.929 . S
H1585 C1595 0.929 . S
H1586 C1590 0.929 . S
H1587 C1596 0.929 . S
C1588 H1582 0.930 . S
C1588 C1589 1.367 . S
C1588 C1596 1.378 . S
C1589 C1588 1.367 . S
C1589 C1597 1.433 . S
C1590 H1586 0.929 . S
C1590 C1592 1.378 . S
C1590 C1594 1.350 . S
C1591 C1594 1.463 . S
C1591 C1596 1.350 . S
C1591 N1599 1.427 . S
C1592 H1583 0.930 . S
C1592 C1590 1.378 . S
C1592 C1593 1.367 . S
C1593 C1592 1.367 . S
C1593 C1595 1.433 . S
C1594 C1590 1.350 . S
C1594 C1591 1.463 . S
C1594 N1598 1.427 . S
C1595 H1585 0.929 . S
C1595 C1593 1.433 . S
C1595 N1598 1.384 . S
C1596 H1587 0.929 . S
C1596 C1588 1.378 . S
C1596 C1591 1.350 . S
C1597 H1584 0.929 . S
C1597 C1589 1.433 . S
C1597 N1599 1.384 . S
N1598 C1594 1.427 . S
N1598 C1595 1.384 . S
N1599 C1591 1.427 . S
N1599 C1597 1.384 . S
C455 C383 1.290 . S
C459 C5 1.287 . S
C473 C19 1.289 1_655 S
C477 C117 1.289 . S
C491 C355 1.292 . S
C495 C33 1.284 . S
C509 C47 1.289 . S
C513 C145 1.289 . S
C527 C61 1.284 . S
C531 C411 1.292 . S
C545 C75 1.283 . S
C549 C201 1.293 . S
C563 C89 1.283 . S
C567 C439 1.293 . S
C581 C103 1.283 1_655 S
C585 C173 1.293 . S
C599 C275 1.338 . S
C603 C121 1.316 . S
C617 C9 1.335 . S
C621 C135 1.325 1_455 S
C635 C247 1.338 . S
C639 C149 1.315 . S
C653 C163 1.322 . S
C657 C37 1.337 . S
C671 C303 1.334 . S
C675 C177 1.324 . S
C689 C93 1.337 . S
C693 C191 1.314 . S
C707 C205 1.319 . S
C711 C331 1.333 . S
C725 C65 1.337 . S
C729 C219 1.314 1_455 S
C743 C229 1.285 . S
C747 C159 1.291 . S
C761 C243 1.289 . S
C765 C341 1.289 . S
C779 C131 1.291 . S
C783 C257 1.285 . S
C797 C369 1.292 . S
C801 C271 1.283 1_455 S
C815 C187 1.291 . S
C819 C285 1.287 . S
C833 C425 1.290 . S
C837 C299 1.288 1_455 S
C851 C215 1.290 . S
C855 C313 1.288 . S
C869 C327 1.283 . S
C873 C397 1.293 . S
C887 C51 1.333 . S
C891 C345 1.321 . S
C905 C359 1.324 . S
C909 C233 1.334 . S
C923 C373 1.319 . S
C927 C23 1.338 . S
C941 C387 1.314 1_655 S
C945 C261 1.336 . S
C959 C401 1.318 . S
C963 C79 1.338 . S
C977 C415 1.325 1_655 S
C981 C317 1.334 . S
C995 C429 1.314 . S
C999 C107 1.337 . S
C1013 C443 1.325 . S
C1017 C289 1.335 . S
C1031 C347 1.507 . S
C1035 C0 1.501 . S
C1049 C14 1.500 . S
C1053 C137 1.505 . S
C1067 C375 1.508 . S
C1071 C28 1.502 . S
C1085 C42 1.500 . S
C1089 C165 1.505 . S
C1103 C403 1.511 . S
C1107 C56 1.508 . S
C1121 C70 1.500 . S
C1125 C193 1.505 . S
C1139 C431 1.511 . S
C1143 C84 1.507 . S
C1157 C98 1.506 . S
C1161 C221 1.509 . S
C1175 C123 1.513 . S
C1179 C224 1.509 . S
C1193 C151 1.512 . S
C1197 C252 1.508 . S
C1211 C179 1.506 . S
C1215 C280 1.501 . S
C1229 C207 1.511 . S
C1233 C308 1.507 . S
C1247 C238 1.507 . S
C1251 C361 1.512 . S
C1265 C389 1.507 . S
C1269 C266 1.503 . S
C1283 C417 1.512 . S
C1287 C294 1.506 . S
C1301 C322 1.500 . S
C1305 C445 1.505 . S
C1319 C11 1.409 . S
C1323 C81 1.408 . S
C1337 C25 1.405 . S
C1341 C95 1.408 . S
C1355 C39 1.406 . S
C1359 C109 1.409 . S
C1373 C67 1.408 . S
C1377 C53 1.408 . S
C1391 C112 1.551 . S
C1395 C182 1.554 . S
C1409 C126 1.552 . S
C1413 C196 1.549 . S
C1427 C140 1.550 . S
C1431 C210 1.549 . S
C1445 C154 1.550 . S
C1449 C168 1.549 . S
C1463 C235 1.409 . S
C1467 C305 1.406 . S
C1481 C319 1.406 . S
C1485 C249 1.405 . S
C1499 C263 1.405 . S
C1503 C333 1.406 . S
C1517 C277 1.408 . S
C1521 C291 1.409 . S
C1535 C406 1.550 . S
C1539 C336 1.550 . S
C1553 C350 1.550 . S
C1557 C420 1.554 . S
C1571 C434 1.551 . S
C1575 C364 1.549 . S
C1589 C378 1.552 . S
C1593 C392 1.549 . S
