# Generated by pormake.
# Topology ukk, (4)-cn, num edge types: 1
# Building blocks:
#     Node 0, Type 0, BuildingBlock: CEKHIL_clean_sbu_0, # of connection points: 4
#     Node 1, Type 0, BuildingBlock: CEKHIL_clean_sbu_0, # of connection points: 4
#     Node 2, Type 0, BuildingBlock: CEKHIL_clean_sbu_0, # of connection points: 4
#     Node 3, Type 0, BuildingBlock: CEKHIL_clean_sbu_0, # of connection points: 4
#     Node 4, Type 0, BuildingBlock: CEKHIL_clean_sbu_0, # of connection points: 4
#     Node 5, Type 0, BuildingBlock: CEKHIL_clean_sbu_0, # of connection points: 4
#     Node 6, Type 0, BuildingBlock: CEKHIL_clean_sbu_0, # of connection points: 4
#     Node 7, Type 0, BuildingBlock: CEKHIL_clean_sbu_0, # of connection points: 4
#     Node 8, Type 0, BuildingBlock: CEKHIL_clean_sbu_0, # of connection points: 4
#     Node 9, Type 0, BuildingBlock: CEKHIL_clean_sbu_0, # of connection points: 4
#     Node 10, Type 0, BuildingBlock: CEKHIL_clean_sbu_0, # of connection points: 4
#     Node 11, Type 0, BuildingBlock: CEKHIL_clean_sbu_0, # of connection points: 4
#     Node 12, Type 0, BuildingBlock: CEKHIL_clean_sbu_0, # of connection points: 4
#     Node 13, Type 0, BuildingBlock: CEKHIL_clean_sbu_0, # of connection points: 4
#     Node 14, Type 0, BuildingBlock: CEKHIL_clean_sbu_0, # of connection points: 4
#     Node 15, Type 0, BuildingBlock: CEKHIL_clean_sbu_0, # of connection points: 4
#     Edge 16, Type (0, 0), BuildingBlock: MIFKUJ_clean_linker_0, # of connection points: 2
#     Edge 17, Type (0, 0), BuildingBlock: MIFKUJ_clean_linker_0, # of connection points: 2
#     Edge 18, Type (0, 0), BuildingBlock: MIFKUJ_clean_linker_0, # of connection points: 2
#     Edge 19, Type (0, 0), BuildingBlock: MIFKUJ_clean_linker_0, # of connection points: 2
#     Edge 20, Type (0, 0), BuildingBlock: MIFKUJ_clean_linker_0, # of connection points: 2
#     Edge 21, Type (0, 0), BuildingBlock: MIFKUJ_clean_linker_0, # of connection points: 2
#     Edge 22, Type (0, 0), BuildingBlock: MIFKUJ_clean_linker_0, # of connection points: 2
#     Edge 23, Type (0, 0), BuildingBlock: MIFKUJ_clean_linker_0, # of connection points: 2
#     Edge 24, Type (0, 0), BuildingBlock: MIFKUJ_clean_linker_0, # of connection points: 2
#     Edge 25, Type (0, 0), BuildingBlock: MIFKUJ_clean_linker_0, # of connection points: 2
#     Edge 26, Type (0, 0), BuildingBlock: MIFKUJ_clean_linker_0, # of connection points: 2
#     Edge 27, Type (0, 0), BuildingBlock: MIFKUJ_clean_linker_0, # of connection points: 2
#     Edge 28, Type (0, 0), BuildingBlock: MIFKUJ_clean_linker_0, # of connection points: 2
#     Edge 29, Type (0, 0), BuildingBlock: MIFKUJ_clean_linker_0, # of connection points: 2
#     Edge 30, Type (0, 0), BuildingBlock: MIFKUJ_clean_linker_0, # of connection points: 2
#     Edge 31, Type (0, 0), BuildingBlock: MIFKUJ_clean_linker_0, # of connection points: 2
#     Edge 32, Type (0, 0), BuildingBlock: MIFKUJ_clean_linker_0, # of connection points: 2
#     Edge 33, Type (0, 0), BuildingBlock: MIFKUJ_clean_linker_0, # of connection points: 2
#     Edge 34, Type (0, 0), BuildingBlock: MIFKUJ_clean_linker_0, # of connection points: 2
#     Edge 35, Type (0, 0), BuildingBlock: MIFKUJ_clean_linker_0, # of connection points: 2
#     Edge 36, Type (0, 0), BuildingBlock: MIFKUJ_clean_linker_0, # of connection points: 2
#     Edge 37, Type (0, 0), BuildingBlock: MIFKUJ_clean_linker_0, # of connection points: 2
#     Edge 38, Type (0, 0), BuildingBlock: MIFKUJ_clean_linker_0, # of connection points: 2
#     Edge 39, Type (0, 0), BuildingBlock: MIFKUJ_clean_linker_0, # of connection points: 2
#     Edge 40, Type (0, 0), BuildingBlock: MIFKUJ_clean_linker_0, # of connection points: 2
#     Edge 41, Type (0, 0), BuildingBlock: MIFKUJ_clean_linker_0, # of connection points: 2
#     Edge 42, Type (0, 0), BuildingBlock: MIFKUJ_clean_linker_0, # of connection points: 2
#     Edge 43, Type (0, 0), BuildingBlock: MIFKUJ_clean_linker_0, # of connection points: 2
#     Edge 44, Type (0, 0), BuildingBlock: MIFKUJ_clean_linker_0, # of connection points: 2
#     Edge 45, Type (0, 0), BuildingBlock: MIFKUJ_clean_linker_0, # of connection points: 2
#     Edge 46, Type (0, 0), BuildingBlock: MIFKUJ_clean_linker_0, # of connection points: 2
#     Edge 47, Type (0, 0), BuildingBlock: MIFKUJ_clean_linker_0, # of connection points: 2
# Relax obj value: 0.120
# Max RMSD: 0.296
# Mean RMSD: 0.296
data_MOF--net-ukk--node1-CEKHIL_clean_sbu_0--edge1-MIFKUJ_clean_linker_0
_symmetry_space_group_name_H-M    P1
_symmetry_Int_Tables_number       1
_symmetry_cell_setting            triclinic
loop_
_symmetry_equiv_pos_as_xyz
'x, y, z'
_cell_length_a     69.885992
_cell_length_b     69.966963
_cell_length_c     20.568448
_cell_angle_alpha  89.980678
_cell_angle_beta   89.964865
_cell_angle_gamma 89.98475
loop_
_atom_site_label
_atom_site_type_symbol
_atom_site_fract_x
_atom_site_fract_y
_atom_site_fract_z
_atom_type_partial_charge
Co0 Co 0.3538 0.11403 0.16105 0.0
O1 O 0.32702 0.11089 0.1446 0.0
O2 O 0.3486 0.11806 0.06951 0.0
C3 C 0.35802 0.08783 0.22209 0.0
O4 O 0.38288 0.1175 0.16109 0.0
Co5 Co 0.36668 0.12207 0.302 0.0
O6 O 0.39203 0.11531 0.26563 0.0
C7 C 0.35077 0.15353 0.22555 0.0
C8 C 0.33078 0.11477 0.08429 0.0
C9 C 0.39592 0.11582 0.20508 0.0
O10 O 0.34963 0.14204 0.17712 0.0
O11 O 0.35656 0.14833 0.28186 0.0
O12 O 0.35777 0.08671 0.15908 0.0
O13 O 0.35307 0.1042 0.24639 0.0
Co14 Co 0.11388 0.64453 0.83456 0.0
O15 O 0.11219 0.67166 0.8435 0.0
O16 O 0.11736 0.65157 0.92499 0.0
C17 C 0.08789 0.64015 0.77245 0.0
O18 O 0.1158 0.61546 0.84149 0.0
Co19 Co 0.12305 0.6294 0.69744 0.0
O20 O 0.11592 0.60475 0.73835 0.0
C21 C 0.15427 0.64516 0.77429 0.0
C22 C 0.11534 0.66913 0.90495 0.0
C23 C 0.11505 0.6018 0.79951 0.0
O24 O 0.14227 0.64669 0.82119 0.0
O25 O 0.14934 0.63977 0.71725 0.0
O26 O 0.08639 0.64202 0.83501 0.0
O27 O 0.10463 0.64397 0.74827 0.0
Co28 Co 0.6448 0.884 0.16892 0.0
O29 O 0.67209 0.88503 0.16039 0.0
O30 O 0.65203 0.87879 0.07976 0.0
C31 C 0.64121 0.91089 0.22689 0.0
O32 O 0.61568 0.88256 0.15989 0.0
Co33 Co 0.62692 0.87819 0.30461 0.0
O34 O 0.60368 0.88776 0.25977 0.0
C35 C 0.64348 0.84514 0.23779 0.0
C36 C 0.66961 0.88083 0.09956 0.0
C37 C 0.60165 0.88647 0.19836 0.0
O38 O 0.64654 0.85601 0.18867 0.0
O39 O 0.63626 0.85119 0.29119 0.0
O40 O 0.64306 0.91153 0.16407 0.0
O41 O 0.64392 0.89429 0.25342 0.0
Co42 Co 0.88693 0.3504 0.83447 0.0
O43 O 0.88822 0.32316 0.84273 0.0
O44 O 0.88214 0.34313 0.92387 0.0
C45 C 0.91368 0.35378 0.77517 0.0
O46 O 0.88546 0.37944 0.84379 0.0
Co47 Co 0.88049 0.36817 0.69903 0.0
O48 O 0.8897 0.39153 0.74353 0.0
C49 C 0.84754 0.35232 0.76877 0.0
C50 C 0.88454 0.32563 0.90395 0.0
C51 C 0.88876 0.39354 0.80502 0.0
O52 O 0.85877 0.34881 0.81658 0.0
O53 O 0.85336 0.35949 0.71499 0.0
O54 O 0.91451 0.352 0.83794 0.0
O55 O 0.89694 0.35131 0.74934 0.0
Co56 Co 0.35425 0.38987 0.08646 0.0
O57 O 0.32716 0.39015 0.09974 0.0
O58 O 0.34866 0.38715 0.17833 0.0
C59 C 0.35527 0.41507 0.01921 0.0
O60 O 0.38344 0.38986 0.0894 0.0
Co61 Co 0.36928 0.38055 0.94869 0.0
O62 O 0.39359 0.3905 0.98554 0.0
C63 C 0.35541 0.34932 0.03064 0.0
C64 C 0.33076 0.38828 0.1612 0.0
C65 C 0.39675 0.39173 0.04647 0.0
O66 O 0.35393 0.36135 0.07737 0.0
O67 O 0.35979 0.35417 0.97248 0.0
O68 O 0.35451 0.41746 0.08173 0.0
O69 O 0.35314 0.39767 0.9989 0.0
Co70 Co 0.39134 0.64448 0.89752 0.0
O71 O 0.39606 0.67111 0.88381 0.0
O72 O 0.38818 0.65055 0.80629 0.0
C73 C 0.41686 0.63848 0.96026 0.0
O74 O 0.38641 0.61572 0.89455 0.0
Co75 Co 0.38125 0.63111 0.03598 0.0
O76 O 0.38633 0.60554 0.99824 0.0
C77 C 0.35136 0.6493 0.95828 0.0
C78 C 0.39242 0.668 0.82294 0.0
C79 C 0.38644 0.60223 0.93728 0.0
O80 O 0.36339 0.64987 0.91123 0.0
O81 O 0.3558 0.64321 0.01499 0.0
O82 O 0.41843 0.63917 0.8974 0.0
O83 O 0.40054 0.64404 0.98375 0.0
Co84 Co 0.64453 0.61101 0.09271 0.0
O85 O 0.67174 0.61257 0.10238 0.0
O86 O 0.65102 0.61495 0.18348 0.0
C87 C 0.64345 0.58514 0.02847 0.0
O88 O 0.61544 0.60952 0.09933 0.0
Co89 Co 0.62803 0.61816 0.95479 0.0
O90 O 0.60452 0.60783 0.99647 0.0
C91 C 0.64046 0.6508 0.03208 0.0
C92 C 0.66877 0.61509 0.16398 0.0
C93 C 0.60188 0.60688 0.05782 0.0
O94 O 0.64306 0.63939 0.08008 0.0
O95 O 0.63604 0.6452 0.97483 0.0
O96 O 0.64539 0.58332 0.09097 0.0
O97 O 0.64508 0.60237 0.00621 0.0
Co98 Co 0.6139 0.35743 0.8978 0.0
O99 O 0.61691 0.33025 0.89351 0.0
O100 O 0.61992 0.34982 0.80943 0.0
C101 C 0.5867 0.35784 0.95624 0.0
O102 O 0.6114 0.38625 0.88568 0.0
Co103 Co 0.61764 0.37632 0.03376 0.0
O104 O 0.60739 0.39875 0.98575 0.0
C105 C 0.65227 0.36429 0.96563 0.0
C106 C 0.62045 0.33243 0.83208 0.0
C107 C 0.60767 0.40036 0.92393 0.0
O108 O 0.64186 0.36045 0.91608 0.0
O109 O 0.64543 0.3693 0.02081 0.0
O110 O 0.58628 0.35498 0.89388 0.0
O111 O 0.60359 0.35783 0.98222 0.0
Co112 Co 0.85491 0.60842 0.66428 0.0
O113 O 0.82796 0.60535 0.65068 0.0
O114 O 0.84879 0.61276 0.57352 0.0
C115 C 0.85946 0.58204 0.7242 0.0
O116 O 0.88397 0.61194 0.66094 0.0
Co117 Co 0.86948 0.6161 0.80307 0.0
O118 O 0.89444 0.60906 0.76382 0.0
C119 C 0.85227 0.64768 0.73054 0.0
C120 C 0.8311 0.60951 0.5902 0.0
C121 C 0.89756 0.60991 0.70281 0.0
O122 O 0.85087 0.63635 0.68178 0.0
O123 O 0.85866 0.64233 0.78594 0.0
O124 O 0.85884 0.58109 0.66118 0.0
O125 O 0.85491 0.59841 0.74943 0.0
Co126 Co 0.61244 0.14165 0.35819 0.0
O127 O 0.61011 0.16878 0.36829 0.0
O128 O 0.61661 0.14857 0.44824 0.0
C129 C 0.58616 0.1368 0.29771 0.0
O130 O 0.61523 0.1127 0.36515 0.0
Co131 Co 0.62093 0.1264 0.22056 0.0
O132 O 0.61825 0.10113 0.26333 0.0
C133 C 0.65221 0.14339 0.29405 0.0
C134 C 0.61404 0.16615 0.42924 0.0
C135 C 0.61681 0.09876 0.32461 0.0
O136 O 0.64063 0.14452 0.34228 0.0
O137 O 0.64691 0.13791 0.23751 0.0
O138 O 0.58501 0.13848 0.36048 0.0
O139 O 0.60269 0.14089 0.27255 0.0
Co140 Co 0.14335 0.3907 0.6539 0.0
O141 O 0.17059 0.3887 0.64503 0.0
O142 O 0.14992 0.38698 0.5634 0.0
C143 C 0.14242 0.41654 0.7185 0.0
O144 O 0.1143 0.39256 0.64584 0.0
Co145 Co 0.12573 0.38352 0.78986 0.0
O146 O 0.10271 0.39465 0.74772 0.0
C147 C 0.13818 0.35071 0.7124 0.0
C148 C 0.1676 0.3865 0.58326 0.0
C149 C 0.1005 0.3955 0.68621 0.0
O150 O 0.14158 0.36233 0.66559 0.0
O151 O 0.13306 0.35626 0.76913 0.0
O152 O 0.14477 0.41826 0.65614 0.0
O153 O 0.14351 0.39923 0.74079 0.0
Co154 Co 0.38685 0.85789 0.34375 0.0
O155 O 0.388 0.83067 0.35286 0.0
O156 O 0.38392 0.85102 0.43444 0.0
C157 C 0.41238 0.86153 0.27901 0.0
O158 O 0.38551 0.88695 0.35139 0.0
Co159 Co 0.3775 0.8743 0.20849 0.0
O160 O 0.38688 0.89828 0.24912 0.0
C161 C 0.34633 0.8582 0.28587 0.0
C162 C 0.38536 0.83341 0.41453 0.0
C163 C 0.38753 0.90076 0.31051 0.0
O164 O 0.35839 0.8562 0.33235 0.0
O165 O 0.35117 0.86411 0.2293 0.0
O166 O 0.41441 0.85984 0.34146 0.0
O167 O 0.39533 0.85831 0.25662 0.0
Co168 Co 0.85629 0.88063 0.6128 0.0
O169 O 0.82938 0.87614 0.62297 0.0
O170 O 0.85064 0.8747 0.70271 0.0
C171 C 0.85398 0.90736 0.55297 0.0
O172 O 0.88507 0.88479 0.61981 0.0
Co173 Co 0.87379 0.87767 0.47465 0.0
O174 O 0.89655 0.88886 0.51847 0.0
C175 C 0.86348 0.84269 0.54404 0.0
C176 C 0.83291 0.8731 0.684 0.0
C177 C 0.8987 0.88893 0.58008 0.0
O178 O 0.86044 0.85288 0.59478 0.0
O179 O 0.86722 0.84981 0.4881 0.0
O180 O 0.8523 0.90803 0.61582 0.0
O181 O 0.85472 0.89041 0.52786 0.0
Co182 Co 0.88826 0.13857 0.39248 0.0
O183 O 0.89582 0.16409 0.37019 0.0
O184 O 0.8837 0.14295 0.30101 0.0
C185 C 0.91402 0.13085 0.45213 0.0
O186 O 0.87976 0.1108 0.39767 0.0
Co187 Co 0.87944 0.1292 0.5358 0.0
O188 O 0.87716 0.10266 0.5032 0.0
C189 C 0.85022 0.14887 0.45929 0.0
C190 C 0.89008 0.16014 0.31175 0.0
C191 C 0.8767 0.09848 0.44292 0.0
O192 O 0.86144 0.14756 0.41014 0.0
O193 O 0.85502 0.14332 0.51627 0.0
O194 O 0.91453 0.1298 0.38907 0.0
O195 O 0.89894 0.13888 0.47671 0.0
Co196 Co 0.14563 0.11119 0.5796 0.0
O197 O 0.17287 0.11395 0.58663 0.0
O198 O 0.15288 0.11325 0.67019 0.0
C199 C 0.14586 0.08683 0.50841 0.0
O200 O 0.1167 0.10791 0.59009 0.0
Co201 Co 0.12627 0.12019 0.4479 0.0
O202 O 0.10412 0.10736 0.48935 0.0
C203 C 0.13822 0.15204 0.53139 0.0
C204 C 0.17039 0.1146 0.64908 0.0
C205 C 0.10267 0.10507 0.55059 0.0
O206 O 0.14276 0.13972 0.57502 0.0
O207 O 0.13238 0.14726 0.47469 0.0
O208 O 0.14834 0.08379 0.57006 0.0
O209 O 0.14552 0.10461 0.49064 0.0
Co210 Co 0.10859 0.85469 0.4041 0.0
O211 O 0.105 0.82806 0.38747 0.0
O212 O 0.11143 0.84969 0.31184 0.0
C213 C 0.08298 0.8584 0.46902 0.0
O214 O 0.11237 0.88365 0.40483 0.0
Co215 Co 0.11849 0.86657 0.54454 0.0
O216 O 0.11369 0.89255 0.50987 0.0
C217 C 0.14868 0.85005 0.46348 0.0
C218 C 0.10806 0.8319 0.32673 0.0
C219 C 0.11298 0.89659 0.44946 0.0
O220 O 0.13682 0.85031 0.41587 0.0
O221 O 0.14392 0.85481 0.52137 0.0
O222 O 0.08121 0.85865 0.40621 0.0
O223 O 0.09974 0.85362 0.49065 0.0
H224 H 0.40425 0.93022 0.24659 0.0
H225 H 0.404 0.96381 0.27591 0.0
H226 H 0.37568 0.95028 0.45664 0.0
H227 H 0.37573 0.91623 0.42687 0.0
H228 H 0.35683 0.97742 0.39094 0.0
H229 H 0.42068 0.96999 0.45899 0.0
H230 H 0.45418 0.95902 0.45617 0.0
H231 H 0.46397 0.99151 0.28218 0.0
H232 H 0.43047 0.00239 0.28308 0.0
H233 H 0.35075 0.07971 0.35085 0.0
H234 H 0.36013 0.05047 0.40987 0.0
H235 H 0.39049 0.03075 0.23985 0.0
H236 H 0.38118 0.05946 0.18146 0.0
H237 H 0.41013 0.02284 0.35246 0.0
H238 H 0.34432 0.01781 0.26615 0.0
H239 H 0.3105 0.02789 0.26193 0.0
H240 H 0.30511 0.01837 0.46742 0.0
H241 H 0.339 0.00843 0.47283 0.0
C242 C 0.39824 0.93429 0.29315 0.0
C243 C 0.38983 0.92059 0.33414 0.0
C244 C 0.3983 0.95354 0.31025 0.0
C245 C 0.39002 0.95961 0.36889 0.0
C246 C 0.38229 0.94589 0.4114 0.0
C247 C 0.38236 0.92647 0.39442 0.0
C248 C 0.38738 0.98041 0.38017 0.0
C249 C 0.36859 0.98739 0.38495 0.0
C250 C 0.40268 0.99347 0.37211 0.0
C251 C 0.42297 0.98702 0.3712 0.0
C252 C 0.42992 0.97471 0.41988 0.0
C253 C 0.44894 0.96851 0.41861 0.0
C254 C 0.4612 0.97456 0.36903 0.0
C255 C 0.45447 0.98684 0.32061 0.0
C256 C 0.43546 0.99307 0.32157 0.0
C257 C 0.35966 0.0692 0.32675 0.0
C258 C 0.36501 0.07165 0.2614 0.0
C259 C 0.365 0.05257 0.36038 0.0
C260 C 0.37594 0.03842 0.3291 0.0
C261 C 0.38211 0.04148 0.26508 0.0
C262 C 0.37662 0.05784 0.23151 0.0
C263 C 0.3796 0.01946 0.35881 0.0
C264 C 0.39855 0.01288 0.36175 0.0
C265 C 0.36449 0.00672 0.3734 0.0
C266 C 0.34419 0.01265 0.37006 0.0
C267 C 0.33594 0.01801 0.31046 0.0
C268 C 0.31677 0.02367 0.30784 0.0
C269 C 0.30568 0.02384 0.36441 0.0
C270 C 0.31373 0.01829 0.42368 0.0
C271 C 0.33291 0.01265 0.42656 0.0
H272 H 0.29084 0.02822 0.3623 0.0
H273 H 0.47591 0.96973 0.36815 0.0
H274 H 0.07839 0.64696 0.64401 0.0
H275 H 0.04813 0.63791 0.5902 0.0
H276 H 0.03064 0.60795 0.76382 0.0
H277 H 0.06036 0.61678 0.81662 0.0
H278 H 0.02004 0.58854 0.65721 0.0
H279 H 0.01834 0.65546 0.73491 0.0
H280 H 0.02944 0.68894 0.73194 0.0
H281 H 0.01654 0.69197 0.52807 0.0
H282 H 0.00554 0.65842 0.52984 0.0
H283 H 0.92785 0.59599 0.77048 0.0
H284 H 0.96149 0.59726 0.74183 0.0
H285 H 0.94732 0.62313 0.55762 0.0
H286 H 0.91316 0.62214 0.58669 0.0
H287 H 0.97546 0.64258 0.61951 0.0
H288 H 0.96551 0.578 0.56204 0.0
H289 H 0.95367 0.54498 0.57279 0.0
H290 H 0.98837 0.53694 0.74282 0.0
H291 H 4e-05 0.57002 0.73425 0.0
C292 C 0.06818 0.63812 0.66979 0.0
C293 C 0.07154 0.63278 0.73466 0.0
C294 C 0.05092 0.63302 0.63925 0.0
C295 C 0.03702 0.62238 0.67322 0.0
C296 C 0.04108 0.61612 0.73647 0.0
C297 C 0.05805 0.62132 0.76686 0.0
C298 C 0.01745 0.61903 0.6474 0.0
C299 C 0.01027 0.6003 0.64821 0.0
C300 C 0.00485 0.63431 0.63319 0.0
C301 C 0.01137 0.65443 0.63231 0.0
C302 C 0.01799 0.66325 0.68941 0.0
C303 C 0.02424 0.68223 0.68796 0.0
C304 C 0.02376 0.69256 0.6298 0.0
C305 C 0.01696 0.68394 0.57303 0.0
C306 C 0.01072 0.66496 0.57422 0.0
C307 C 0.93177 0.60181 0.7235 0.0
C308 C 0.91778 0.60908 0.68103 0.0
C309 C 0.95108 0.60235 0.70687 0.0
C310 C 0.95698 0.61004 0.64714 0.0
C311 C 0.94307 0.61699 0.60377 0.0
C312 C 0.92358 0.61636 0.62034 0.0
C313 C 0.9778 0.61215 0.63398 0.0
C314 C 0.98522 0.63065 0.62563 0.0
C315 C 0.9906 0.59662 0.64204 0.0
C316 C 0.98366 0.57658 0.6474 0.0
C317 C 0.97052 0.56925 0.60201 0.0
C318 C 0.96382 0.5505 0.60777 0.0
C319 C 0.97024 0.53887 0.65846 0.0
C320 C 0.98339 0.54596 0.70355 0.0
C321 C 0.99007 0.56472 0.69822 0.0
H322 H 0.96505 0.52435 0.66276 0.0
H323 H 0.0286 0.70724 0.62876 0.0
H324 H 0.63951 0.91577 0.35969 0.0
H325 H 0.63048 0.94515 0.41836 0.0
H326 H 0.62093 0.97363 0.23517 0.0
H327 H 0.6298 0.94477 0.17707 0.0
H328 H 0.64745 0.98132 0.41119 0.0
H329 H 0.58297 0.00038 0.24128 0.0
H330 H 0.55735 0.98259 0.18533 0.0
H331 H 0.56085 0.93798 0.32813 0.0
H332 H 0.58622 0.95561 0.38568 0.0
H333 H 0.64171 0.07169 0.28636 0.0
H334 H 0.64178 0.03788 0.31491 0.0
H335 H 0.59373 0.04687 0.4431 0.0
H336 H 0.59397 0.08124 0.41557 0.0
H337 H 0.58887 0.01691 0.34804 0.0
H338 H 0.6309 0.03281 0.51641 0.0
H339 H 0.65744 0.04931 0.57177 0.0
H340 H 0.69775 0.02295 0.44216 0.0
H341 H 0.67144 0.00653 0.38527 0.0
C342 C 0.63535 0.92831 0.33224 0.0
C343 C 0.63539 0.92801 0.26385 0.0
C344 C 0.63022 0.94503 0.36571 0.0
C345 C 0.62477 0.96145 0.33107 0.0
C346 C 0.62473 0.96102 0.26292 0.0
C347 C 0.62995 0.94452 0.22972 0.0
C348 C 0.62002 0.97964 0.36418 0.0
C349 C 0.63448 0.98902 0.39888 0.0
C350 C 0.60275 0.98938 0.35016 0.0
C351 C 0.58655 0.97937 0.31789 0.0
C352 C 0.5781 0.98692 0.26137 0.0
C353 C 0.56366 0.97681 0.22918 0.0
C354 C 0.55752 0.95915 0.25312 0.0
C355 C 0.56565 0.95164 0.30961 0.0
C356 C 0.58005 0.96169 0.34202 0.0
C357 C 0.63139 0.06654 0.32156 0.0
C358 C 0.61784 0.07898 0.34882 0.0
C359 C 0.63148 0.04725 0.33808 0.0
C360 C 0.61785 0.03991 0.38145 0.0
C361 C 0.60446 0.05234 0.40994 0.0
C362 C 0.60465 0.07189 0.39443 0.0
C363 C 0.61693 0.01894 0.39073 0.0
C364 C 0.60144 0.00903 0.36339 0.0
C365 C 0.63312 0.00864 0.4126 0.0
C366 C 0.64914 0.01841 0.44653 0.0
C367 C 0.64541 0.03061 0.49943 0.0
C368 C 0.66042 0.03994 0.53113 0.0
C369 C 0.67927 0.03717 0.51051 0.0
C370 C 0.68314 0.02505 0.45816 0.0
C371 C 0.66817 0.01569 0.42625 0.0
H372 H 0.69087 0.04441 0.53512 0.0
H373 H 0.5465 0.95124 0.22795 0.0
H374 H 0.0705 0.41149 0.75028 0.0
H375 H 0.03678 0.40828 0.72376 0.0
H376 H 0.05156 0.38197 0.54079 0.0
H377 H 0.08563 0.38478 0.56793 0.0
H378 H 0.01023 0.41674 0.63523 0.0
H379 H 0.02211 0.34338 0.5239 0.0
H380 H 0.04702 0.31844 0.51534 0.0
H381 H 0.06926 0.33468 0.70192 0.0
H382 H 0.04433 0.35952 0.7118 0.0
H383 H 0.9167 0.37119 0.65533 0.0
H384 H 0.94656 0.38092 0.60042 0.0
H385 H 0.97935 0.3558 0.75623 0.0
H386 H 0.94997 0.34646 0.81101 0.0
H387 H 0.99439 0.34762 0.63433 0.0
H388 H 0.96996 0.40151 0.7618 0.0
H389 H 0.94594 0.42615 0.78837 0.0
H390 H 0.94983 0.44841 0.59421 0.0
H391 H 0.97373 0.42371 0.56634 0.0
C392 C 0.06664 0.4054 0.70366 0.0
C393 C 0.08072 0.39795 0.66192 0.0
C394 C 0.04731 0.40375 0.68824 0.0
C395 C 0.04161 0.39456 0.63083 0.0
C396 C 0.05565 0.3889 0.58576 0.0
C397 C 0.07511 0.39055 0.60126 0.0
C398 C 0.02141 0.38818 0.62502 0.0
C399 C 0.00668 0.40166 0.63315 0.0
C400 C 0.01674 0.36849 0.62298 0.0
C401 C 0.03156 0.35342 0.61808 0.0
C402 C 0.03231 0.34157 0.56307 0.0
C403 C 0.04641 0.32747 0.55802 0.0
C404 C 0.05976 0.32503 0.60794 0.0
C405 C 0.05895 0.33662 0.6632 0.0
C406 C 0.04484 0.3507 0.66856 0.0
C407 C 0.93033 0.36757 0.6771 0.0
C408 C 0.93108 0.35818 0.7375 0.0
C409 C 0.94731 0.37313 0.64586 0.0
C410 C 0.96514 0.36902 0.67427 0.0
C411 C 0.96577 0.35899 0.73321 0.0
C412 C 0.94895 0.35377 0.76469 0.0
C413 C 0.98337 0.37613 0.64667 0.0
C414 C 0.99774 0.36276 0.63256 0.0
C415 C 0.98776 0.39585 0.64505 0.0
C416 C 0.97339 0.41062 0.66172 0.0
C417 C 0.96555 0.41155 0.72462 0.0
C418 C 0.952 0.42555 0.73996 0.0
C419 C 0.94631 0.4388 0.69293 0.0
C420 C 0.95421 0.4381 0.63053 0.0
C421 C 0.96775 0.42411 0.61493 0.0
H422 H 0.93584 0.44964 0.7049 0.0
H423 H 0.0707 0.31414 0.60387 0.0
H424 H 0.37553 0.41746 0.90461 0.0
H425 H 0.38336 0.4471 0.84513 0.0
H426 H 0.34813 0.47923 0.97842 0.0
H427 H 0.34081 0.45011 0.03811 0.0
H428 H 0.34439 0.49134 0.84881 0.0
H429 H 0.39347 0.47435 0.01106 0.0
H430 H 0.41858 0.45295 0.05381 0.0
H431 H 0.44943 0.45753 0.87392 0.0
H432 H 0.4243 0.47872 0.82972 0.0
H433 H 0.38289 0.57085 0.01451 0.0
H434 H 0.38101 0.53757 0.98223 0.0
H435 H 0.38772 0.55358 0.78114 0.0
H436 H 0.38925 0.58746 0.81293 0.0
H437 H 0.40992 0.5152 0.89299 0.0
H438 H 0.35917 0.53718 0.73754 0.0
H439 H 0.33253 0.55881 0.70911 0.0
H440 H 0.30433 0.54501 0.88863 0.0
H441 H 0.33098 0.52354 0.91845 0.0
C442 C 0.36921 0.43084 0.92003 0.0
C443 C 0.3577 0.43164 0.97602 0.0
C444 C 0.37367 0.4477 0.88621 0.0
C445 C 0.36629 0.46532 0.90746 0.0
C446 C 0.35386 0.46578 0.96094 0.0
C447 C 0.34978 0.44916 0.99523 0.0
C448 C 0.3728 0.48378 0.88017 0.0
C449 C 0.3589 0.49641 0.85621 0.0
C450 C 0.39172 0.49038 0.88987 0.0
C451 C 0.40689 0.47785 0.91674 0.0
C452 C 0.40553 0.47066 0.98045 0.0
C453 C 0.41976 0.45859 0.00497 0.0
C454 C 0.43554 0.45381 0.96649 0.0
C455 C 0.43716 0.46118 0.90355 0.0
C456 C 0.42292 0.4732 0.87872 0.0
C457 C 0.38403 0.56747 0.96328 0.0
C458 C 0.38607 0.58194 0.91626 0.0
C459 C 0.38304 0.54836 0.94501 0.0
C460 C 0.38414 0.54316 0.87942 0.0
C461 C 0.38666 0.55738 0.83203 0.0
C462 C 0.38754 0.57669 0.85031 0.0
C463 C 0.3814 0.52279 0.86278 0.0
C464 C 0.39585 0.50982 0.88031 0.0
C465 C 0.36296 0.51586 0.84764 0.0
C466 C 0.34712 0.52895 0.83041 0.0
C467 C 0.34739 0.53895 0.77121 0.0
C468 C 0.33227 0.55113 0.75479 0.0
C469 C 0.31675 0.55327 0.79705 0.0
C470 C 0.31636 0.54333 0.85596 0.0
C471 C 0.33146 0.53117 0.87264 0.0
H472 H 0.30498 0.56256 0.78402 0.0
H473 H 0.44651 0.44443 0.98546 0.0
H474 H 0.44738 0.61866 0.91708 0.0
H475 H 0.47501 0.6079 0.97799 0.0
H476 H 0.45057 0.63046 0.15469 0.0
H477 H 0.42235 0.64147 0.09288 0.0
H478 H 0.48883 0.64161 0.13265 0.0
H479 H 0.45484 0.58347 0.14571 0.0
H480 H 0.43403 0.55756 0.10583 0.0
H481 H 0.47639 0.54198 0.96421 0.0
H482 H 0.49733 0.56799 0.00228 0.0
H483 H 0.58637 0.61413 0.17883 0.0
H484 H 0.55227 0.61335 0.20818 0.0
H485 H 0.53868 0.5923 0.01647 0.0
H486 H 0.57229 0.59252 0.98786 0.0
H487 H 0.51551 0.57652 0.10214 0.0
H488 H 0.53979 0.64223 0.05842 0.0
H489 H 0.56027 0.66978 0.08635 0.0
H490 H 0.53594 0.67134 0.27807 0.0
H491 H 0.51545 0.64368 0.2513 0.0
C492 C 0.44769 0.62123 0.969 0.0
C493 C 0.43273 0.631 0.00019 0.0
C494 C 0.46347 0.6149 0.00393 0.0
C495 C 0.46473 0.6181 0.07106 0.0
C496 C 0.44975 0.62769 0.10296 0.0
C497 C 0.4337 0.63394 0.06775 0.0
C498 C 0.48264 0.61259 0.10483 0.0
C499 C 0.49448 0.62722 0.12838 0.0
C500 C 0.49 0.59381 0.09918 0.0
C501 C 0.47772 0.57769 0.07719 0.0
C502 C 0.45973 0.57454 0.106 0.0
C503 C 0.44789 0.55985 0.08363 0.0
C504 C 0.45389 0.54812 0.03258 0.0
C505 C 0.47178 0.55104 0.00389 0.0
C506 C 0.48367 0.56574 0.02599 0.0
C507 C 0.57611 0.60892 0.14362 0.0
C508 C 0.58201 0.60373 0.0806 0.0
C509 C 0.55663 0.60855 0.16036 0.0
C510 C 0.54284 0.60305 0.11421 0.0
C511 C 0.54896 0.59661 0.05304 0.0
C512 C 0.56826 0.59692 0.03647 0.0
C513 C 0.52198 0.60584 0.12481 0.0
C514 C 0.50959 0.59067 0.10982 0.0
C515 C 0.51414 0.62414 0.13751 0.0
C516 C 0.52629 0.64082 0.15318 0.0
C517 C 0.53888 0.64843 0.10658 0.0
C518 C 0.55048 0.66405 0.12219 0.0
C519 C 0.54945 0.67227 0.18401 0.0
C520 C 0.53676 0.66493 0.23027 0.0
C521 C 0.52516 0.64929 0.21493 0.0
H522 H 0.55845 0.68435 0.19603 0.0
H523 H 0.44468 0.53678 0.01524 0.0
H524 H 0.58756 0.42963 0.97652 0.0
H525 H 0.58999 0.46327 0.94891 0.0
H526 H 0.62573 0.44931 0.78439 0.0
H527 H 0.62353 0.41527 0.81282 0.0
H528 H 0.64284 0.47454 0.85935 0.0
H529 H 0.58239 0.47275 0.7608 0.0
H530 H 0.54855 0.46402 0.74516 0.0
H531 H 0.53331 0.49446 0.91885 0.0
H532 H 0.56709 0.50315 0.93619 0.0
H533 H 0.65139 0.57747 0.90028 0.0
H534 H 0.64215 0.54854 0.83917 0.0
H535 H 0.61091 0.52816 0.00632 0.0
H536 H 0.6205 0.55642 0.06747 0.0
H537 H 0.59161 0.52322 0.88093 0.0
H538 H 0.65346 0.51317 0.99245 0.0
H539 H 0.68743 0.52104 0.01102 0.0
H540 H 0.69934 0.51255 0.80821 0.0
H541 H 0.66534 0.50487 0.78841 0.0
C542 C 0.59552 0.43364 0.93338 0.0
C543 C 0.60549 0.41984 0.89717 0.0
C544 C 0.59677 0.45292 0.91719 0.0
C545 C 0.60794 0.4589 0.8642 0.0
C546 C 0.61694 0.44503 0.82528 0.0
C547 C 0.6156 0.42559 0.84135 0.0
C548 C 0.61238 0.47957 0.85701 0.0
C549 C 0.63161 0.48524 0.86146 0.0
C550 C 0.5978 0.49362 0.86 0.0
C551 C 0.57735 0.48862 0.84974 0.0
C552 C 0.57185 0.47752 0.79586 0.0
C553 C 0.55266 0.47258 0.78668 0.0
C554 C 0.53879 0.47869 0.83097 0.0
C555 C 0.54407 0.48978 0.88449 0.0
C556 C 0.56325 0.49476 0.89392 0.0
C557 C 0.64239 0.56684 0.92338 0.0
C558 C 0.63684 0.56895 0.98865 0.0
C559 C 0.6371 0.55043 0.88856 0.0
C560 C 0.6258 0.5363 0.91832 0.0
C561 C 0.61953 0.53896 0.9824 0.0
C562 C 0.62517 0.555 0.01745 0.0
C563 C 0.62184 0.51776 0.88653 0.0
C564 C 0.60275 0.51256 0.87523 0.0
C565 C 0.6365 0.50414 0.87685 0.0
C566 C 0.65687 0.50874 0.88879 0.0
C567 C 0.6633 0.51317 0.95175 0.0
C568 C 0.68255 0.51755 0.96252 0.0
C569 C 0.69552 0.51737 0.91078 0.0
C570 C 0.68927 0.51274 0.8482 0.0
C571 C 0.67002 0.50838 0.83717 0.0
H572 H 0.71043 0.52076 0.91921 0.0
H573 H 0.52394 0.47483 0.82381 0.0
H574 H 0.41317 0.38035 0.16137 0.0
H575 H 0.44754 0.37853 0.18527 0.0
H576 H 0.45999 0.40532 0.00102 0.0
H577 H 0.42597 0.4074 0.97754 0.0
H578 H 0.47165 0.35753 0.11686 0.0
H579 H 0.5015 0.42759 0.99957 0.0
H580 H 0.49266 0.46165 0.99396 0.0
H581 H 0.46103 0.45635 0.17206 0.0
H582 H 0.46997 0.42234 0.17951 0.0
H583 H 0.55082 0.34898 0.91857 0.0
H584 H 0.52081 0.35704 0.97202 0.0
H585 H 0.55182 0.38394 0.12843 0.0
H586 H 0.58229 0.37559 0.07493 0.0
H587 H 0.52125 0.40659 0.07268 0.0
H588 H 0.53014 0.34545 0.16796 0.0
H589 H 0.53848 0.31121 0.16993 0.0
H590 H 0.49235 0.29902 0.0386 0.0
H591 H 0.4839 0.33321 0.03501 0.0
C592 C 0.42325 0.38634 0.12694 0.0
C593 C 0.4169 0.39381 0.06726 0.0
C594 C 0.44287 0.38524 0.14053 0.0
C595 C 0.45638 0.39185 0.09512 0.0
C596 C 0.44992 0.40039 0.03739 0.0
C597 C 0.43042 0.4014 0.02369 0.0
C598 C 0.47708 0.38756 0.10274 0.0
C599 C 0.48253 0.36832 0.1086 0.0
C600 C 0.49133 0.40168 0.0931 0.0
C601 C 0.48642 0.42234 0.09005 0.0
C602 C 0.49285 0.43371 0.03798 0.0
C603 C 0.48778 0.45302 0.0344 0.0
C604 C 0.4763 0.46116 0.08263 0.0
C605 C 0.46992 0.45003 0.13469 0.0
C606 C 0.47498 0.43073 0.13861 0.0
C607 C 0.55133 0.35644 0.96468 0.0
C608 C 0.56889 0.36166 0.99262 0.0
C609 C 0.53415 0.36098 0.99529 0.0
C610 C 0.5341 0.37096 0.05436 0.0
C611 C 0.5516 0.37614 0.08296 0.0
C612 C 0.56894 0.37131 0.05259 0.0
C613 C 0.51548 0.37654 0.08319 0.0
C614 C 0.51043 0.39595 0.08361 0.0
C615 C 0.50155 0.36261 0.0987 0.0
C616 C 0.5064 0.34194 0.10124 0.0
C617 C 0.52183 0.33549 0.13926 0.0
C618 C 0.52657 0.31608 0.14067 0.0
C619 C 0.51595 0.30295 0.10442 0.0
C620 C 0.50054 0.3092 0.06674 0.0
C621 C 0.49574 0.3286 0.06512 0.0
H622 H 0.51965 0.28794 0.10554 0.0
H623 H 0.47232 0.47608 0.0796 0.0
H624 H 0.87353 0.40828 0.91788 0.0
H625 H 0.87172 0.44224 0.9481 0.0
H626 H 0.90528 0.45689 0.77909 0.0
H627 H 0.90722 0.42335 0.74928 0.0
H628 H 0.91418 0.47983 0.87943 0.0
H629 H 0.85609 0.45548 0.77342 0.0
H630 H 0.82807 0.43408 0.76849 0.0
H631 H 0.80836 0.45563 0.95218 0.0
H632 H 0.83644 0.47701 0.95846 0.0
H633 H 0.88309 0.55386 0.68504 0.0
H634 H 0.89108 0.52444 0.74218 0.0
H635 H 0.85748 0.54267 0.90692 0.0
H636 H 0.84963 0.57265 0.84962 0.0
H637 H 0.84832 0.50549 0.85736 0.0
H638 H 0.90285 0.53924 0.93018 0.0
H639 H 0.93072 0.56065 0.92114 0.0
H640 H 0.95768 0.5214 0.78944 0.0
H641 H 0.92977 0.50008 0.79577 0.0
C642 C 0.88091 0.41874 0.88827 0.0
C643 C 0.89029 0.41321 0.83073 0.0
C644 C 0.87982 0.43812 0.90544 0.0
C645 C 0.88818 0.45213 0.86542 0.0
C646 C 0.89873 0.44639 0.81079 0.0
C647 C 0.89971 0.42718 0.7935 0.0
C648 C 0.88425 0.47282 0.87431 0.0
C649 C 0.89979 0.48552 0.87545 0.0
C650 C 0.86542 0.48023 0.87102 0.0
C651 C 0.84844 0.46762 0.86683 0.0
C652 C 0.84582 0.45556 0.81289 0.0
C653 C 0.82994 0.44345 0.80984 0.0
C654 C 0.81648 0.44344 0.86013 0.0
C655 C 0.81883 0.45561 0.91339 0.0
C656 C 0.83472 0.46773 0.91673 0.0
C657 C 0.8776 0.55176 0.73381 0.0
C658 C 0.86566 0.56543 0.76287 0.0
C659 C 0.88228 0.535 0.76659 0.0
C660 C 0.87499 0.53144 0.82896 0.0
C661 C 0.86335 0.54525 0.85897 0.0
C662 C 0.85892 0.56231 0.82639 0.0
C663 C 0.87834 0.51244 0.85868 0.0
C664 C 0.86269 0.50001 0.8646 0.0
C665 C 0.89711 0.50527 0.86714 0.0
C666 C 0.91412 0.51802 0.86348 0.0
C667 C 0.91464 0.53524 0.89882 0.0
C668 C 0.93046 0.5474 0.89405 0.0
C669 C 0.94594 0.54245 0.85451 0.0
C670 C 0.94565 0.5253 0.81978 0.0
C671 C 0.92983 0.51315 0.824 0.0
H672 H 0.95818 0.55187 0.85087 0.0
H673 H 0.80421 0.43403 0.85774 0.0
H674 H 0.57973 0.13953 0.16532 0.0
H675 H 0.54994 0.13118 0.1075 0.0
H676 H 0.52533 0.11163 0.28816 0.0
H677 H 0.55457 0.11971 0.34503 0.0
H678 H 0.5164 0.08776 0.18938 0.0
H679 H 0.51826 0.15791 0.2288 0.0
H680 H 0.5321 0.18987 0.20953 0.0
H681 H 0.52409 0.18297 0.00387 0.0
H682 H 0.51036 0.15088 0.02205 0.0
H683 H 0.42572 0.10674 0.28382 0.0
H684 H 0.45943 0.10583 0.25789 0.0
H685 H 0.44713 0.1209 0.0589 0.0
H686 H 0.41272 0.12215 0.08494 0.0
H687 H 0.47698 0.14223 0.11253 0.0
H688 H 0.46302 0.07658 0.08758 0.0
H689 H 0.4477 0.04582 0.11432 0.0
H690 H 0.47798 0.04396 0.29574 0.0
H691 H 0.49325 0.07484 0.27073 0.0
C692 C 0.568 0.13321 0.19216 0.0
C693 C 0.56938 0.13045 0.25974 0.0
C694 C 0.55102 0.12848 0.15921 0.0
C695 C 0.53537 0.12082 0.19357 0.0
C696 C 0.53719 0.1174 0.26044 0.0
C697 C 0.55392 0.12219 0.29308 0.0
C698 C 0.51638 0.11753 0.16317 0.0
C699 C 0.50781 0.09956 0.17154 0.0
C700 C 0.50537 0.13272 0.13732 0.0
C701 C 0.51354 0.15197 0.12667 0.0
C702 C 0.51957 0.16319 0.17949 0.0
C703 C 0.52737 0.18132 0.16877 0.0
C704 C 0.52904 0.18842 0.1055 0.0
C705 C 0.52284 0.17743 0.05283 0.0
C706 C 0.51505 0.15928 0.0633 0.0
C707 C 0.42998 0.10981 0.23427 0.0
C708 C 0.4164 0.11456 0.18646 0.0
C709 C 0.44936 0.10911 0.21939 0.0
C710 C 0.45581 0.11292 0.15617 0.0
C711 C 0.44241 0.1177 0.10787 0.0
C712 C 0.42279 0.11838 0.1228 0.0
C713 C 0.47672 0.11282 0.14366 0.0
C714 C 0.48567 0.13011 0.12705 0.0
C715 C 0.48808 0.09698 0.16233 0.0
C716 C 0.47936 0.07806 0.17703 0.0
C717 C 0.46641 0.06964 0.13323 0.0
C718 C 0.45771 0.05218 0.14814 0.0
C719 C 0.46188 0.04294 0.20666 0.0
C720 C 0.4748 0.05111 0.25033 0.0
C721 C 0.48353 0.06858 0.23571 0.0
H722 H 0.4551 0.02944 0.21819 0.0
H723 H 0.53508 0.20246 0.09729 0.0
H724 H 0.1145 0.57026 0.72282 0.0
H725 H 0.11208 0.53718 0.75461 0.0
H726 H 0.10927 0.55349 0.95657 0.0
H727 H 0.11197 0.5874 0.92484 0.0
H728 H 0.13454 0.52257 0.93174 0.0
H729 H 0.06946 0.5354 0.89558 0.0
H730 H 0.04142 0.55008 0.84265 0.0
H731 H 0.05378 0.51953 0.6666 0.0
H732 H 0.08205 0.50491 0.71791 0.0
H733 H 0.13313 0.41828 0.84942 0.0
H734 H 0.12168 0.44671 0.90941 0.0
H735 H 0.12678 0.48035 0.73455 0.0
H736 H 0.13828 0.4527 0.67562 0.0
H737 H 0.08954 0.48225 0.80553 0.0
H738 H 0.16124 0.48358 0.8379 0.0
H739 H 0.19001 0.46964 0.88897 0.0
H740 H 0.16309 0.47293 0.07642 0.0
H741 H 0.13412 0.48674 0.02619 0.0
C742 C 0.11326 0.56706 0.77418 0.0
C743 C 0.11333 0.58164 0.82123 0.0
C744 C 0.11176 0.54801 0.79226 0.0
C745 C 0.11004 0.54287 0.85784 0.0
C746 C 0.11035 0.55722 0.90559 0.0
C747 C 0.11189 0.57654 0.88737 0.0
C748 C 0.10882 0.52225 0.87388 0.0
C749 C 0.12426 0.51367 0.9064 0.0
C750 C 0.09519 0.51056 0.84206 0.0
C751 C 0.07786 0.51892 0.81097 0.0
C752 C 0.06622 0.5318 0.84556 0.0
C753 C 0.05028 0.54015 0.81578 0.0
C754 C 0.04579 0.53571 0.75136 0.0
C755 C 0.05722 0.5229 0.7166 0.0
C756 C 0.07318 0.51452 0.74612 0.0
C757 C 0.13189 0.43182 0.82424 0.0
C758 C 0.13655 0.43324 0.75777 0.0
C759 C 0.1253 0.44795 0.85839 0.0
C760 C 0.12316 0.4655 0.82599 0.0
C761 C 0.12809 0.46687 0.76017 0.0
C762 C 0.13476 0.45101 0.72659 0.0
C763 C 0.11608 0.48302 0.85825 0.0
C764 C 0.09905 0.49101 0.83461 0.0
C765 C 0.12807 0.49408 0.89861 0.0
C766 C 0.14551 0.48597 0.92834 0.0
C767 C 0.16145 0.48121 0.88993 0.0
C768 C 0.17778 0.47336 0.91872 0.0
C769 C 0.17835 0.47035 0.98588 0.0
C770 C 0.16262 0.47523 0.02441 0.0
C771 C 0.14625 0.48307 0.99583 0.0
H772 H 0.19101 0.46427 0.00808 0.0
H773 H 0.03347 0.54221 0.72836 0.0
H774 H 0.42225 0.85032 0.15538 0.0
H775 H 0.45254 0.85766 0.09901 0.0
H776 H 0.46877 0.89484 0.25696 0.0
H777 H 0.439 0.88734 0.31319 0.0
H778 H 0.47966 0.90912 0.13478 0.0
H779 H 0.48192 0.8496 0.26198 0.0
H780 H 0.47125 0.81678 0.2867 0.0
H781 H 0.48466 0.79947 0.0916 0.0
H782 H 0.49518 0.8323 0.0656 0.0
H783 H 0.57286 0.90788 0.24837 0.0
H784 H 0.53919 0.90712 0.21863 0.0
H785 H 0.55196 0.86851 0.06085 0.0
H786 H 0.586 0.8692 0.09089 0.0
H787 H 0.52473 0.85436 0.13786 0.0
H788 H 0.53386 0.9127 0.02976 0.0
H789 H 0.54504 0.94557 0.00981 0.0
H790 H 0.51056 0.96596 0.16804 0.0
H791 H 0.49958 0.93316 0.19036 0.0
C792 C 0.43215 0.86039 0.17698 0.0
C793 C 0.42851 0.86812 0.23876 0.0
C794 C 0.4494 0.86455 0.14495 0.0
C795 C 0.46293 0.87673 0.17403 0.0
C796 C 0.45853 0.88547 0.23352 0.0
C797 C 0.44159 0.88106 0.26583 0.0
C798 C 0.48262 0.87879 0.14811 0.0
C799 C 0.48958 0.89719 0.13476 0.0
C800 C 0.49535 0.86309 0.14597 0.0
C801 C 0.48906 0.84341 0.1616 0.0
C802 C 0.48243 0.83882 0.22424 0.0
C803 C 0.47645 0.82022 0.23851 0.0
C804 C 0.47721 0.80606 0.19067 0.0
C805 C 0.48402 0.81047 0.12853 0.0
C806 C 0.48999 0.82906 0.114 0.0
C807 C 0.56858 0.89951 0.2065 0.0
C808 C 0.58202 0.88843 0.17235 0.0
C809 C 0.54931 0.89923 0.1891 0.0
C810 C 0.543 0.88784 0.13719 0.0
C811 C 0.55653 0.87747 0.10086 0.0
C812 C 0.57595 0.87792 0.11792 0.0
C813 C 0.52211 0.88493 0.12774 0.0
C814 C 0.51488 0.86632 0.13483 0.0
C815 C 0.50919 0.90051 0.12441 0.0
C816 C 0.5159 0.92036 0.11182 0.0
C817 C 0.52878 0.92414 0.06078 0.0
C818 C 0.53509 0.94279 0.04903 0.0
C819 C 0.5285 0.95784 0.08759 0.0
C820 C 0.51559 0.95429 0.13804 0.0
C821 C 0.50935 0.93565 0.15034 0.0
H822 H 0.5334 0.97227 0.07842 0.0
H823 H 0.47258 0.79167 0.20181 0.0
H824 H 0.84005 0.94186 0.58703 0.0
H825 H 0.84298 0.97198 0.52848 0.0
H826 H 0.87349 0.94347 0.37409 0.0
H827 H 0.87018 0.91282 0.43246 0.0
H828 H 0.8915 0.97821 0.43082 0.0
H829 H 0.834 0.95874 0.32916 0.0
H830 H 0.80168 0.94482 0.32201 0.0
H831 H 0.7799 0.98873 0.44765 0.0
H832 H 0.81215 0.00276 0.45644 0.0
H833 H 0.89037 0.07782 0.33959 0.0
H834 H 0.88559 0.04346 0.31941 0.0
H835 H 0.84827 0.04028 0.48621 0.0
H836 H 0.8532 0.07422 0.50703 0.0
H837 H 0.83526 0.01874 0.37883 0.0
H838 H 0.89325 0.03139 0.50417 0.0
H839 H 0.92511 0.04589 0.51752 0.0
H840 H 0.94588 0.01432 0.35294 0.0
H841 H 0.91385 0.00013 0.3372 0.0
C842 C 0.84722 0.94192 0.5403 0.0
C843 C 0.85491 0.92505 0.51423 0.0
C844 C 0.8488 0.95911 0.50678 0.0
C845 C 0.85832 0.95988 0.44684 0.0
C846 C 0.86598 0.94307 0.42015 0.0
C847 C 0.86405 0.92565 0.45333 0.0
C848 C 0.86101 0.97874 0.41566 0.0
C849 C 0.87933 0.98693 0.417 0.0
C850 C 0.84505 0.9901 0.39862 0.0
C851 C 0.82555 0.98179 0.39351 0.0
C852 C 0.82236 0.96537 0.35562 0.0
C853 C 0.80403 0.95746 0.35122 0.0
C854 C 0.78875 0.96588 0.38436 0.0
C855 C 0.79175 0.98224 0.42193 0.0
C856 C 0.81005 0.9902 0.42653 0.0
C857 C 0.88091 0.06979 0.37112 0.0
C858 C 0.87232 0.07855 0.42528 0.0
C859 C 0.8782 0.05024 0.35957 0.0
C860 C 0.86661 0.03939 0.40144 0.0
C861 C 0.8572 0.04843 0.4532 0.0
C862 C 0.86016 0.06777 0.46538 0.0
C863 C 0.86559 0.01832 0.39672 0.0
C864 C 0.84757 0.0098 0.38928 0.0
C865 C 0.88178 0.00669 0.40868 0.0
C866 C 0.90109 0.01495 0.41884 0.0
C867 C 0.90455 0.02769 0.47041 0.0
C868 C 0.92265 0.03583 0.47848 0.0
C869 C 0.93753 0.03103 0.43614 0.0
C870 C 0.93432 0.01807 0.38561 0.0
C871 C 0.91618 0.01002 0.37695 0.0
H872 H 0.95155 0.03733 0.44252 0.0
H873 H 0.77457 0.95974 0.38089 0.0
H874 H 0.9386 0.1024 0.42124 0.0
H875 H 0.96794 0.09344 0.47802 0.0
H876 H 0.9556 0.13475 0.62789 0.0
H877 H 0.92579 0.14351 0.57159 0.0
H878 H 0.99112 0.13963 0.56364 0.0
H879 H 0.95743 0.09015 0.67296 0.0
H880 H 0.9358 0.06256 0.68507 0.0
H881 H 0.97187 0.02916 0.55998 0.0
H882 H 0.99358 0.05663 0.5462 0.0
H883 H 0.08535 0.11959 0.65917 0.0
H884 H 0.05079 0.11945 0.68127 0.0
H885 H 0.042 0.08126 0.51946 0.0
H886 H 0.07625 0.08182 0.49625 0.0
H887 H 0.01547 0.07528 0.62265 0.0
H888 H 0.04124 0.12461 0.48523 0.0
H889 H 0.06317 0.15101 0.45818 0.0
H890 H 0.04116 0.18371 0.61833 0.0
H891 H 0.01946 0.1572 0.64742 0.0
C892 C 0.94193 0.10928 0.46704 0.0
C893 C 0.93008 0.12376 0.49184 0.0
C894 C 0.95861 0.10404 0.49971 0.0
C895 C 0.96389 0.11335 0.55735 0.0
C896 C 0.95167 0.12729 0.58374 0.0
C897 C 0.9347 0.13228 0.55162 0.0
C898 C 0.98342 0.1104 0.58357 0.0
C899 C 0.99629 0.12571 0.57898 0.0
C900 C 0.99028 0.09206 0.60106 0.0
C901 C 0.97714 0.07552 0.60846 0.0
C902 C 0.96069 0.07698 0.64759 0.0
C903 C 0.94843 0.06134 0.65489 0.0
C904 C 0.9525 0.0441 0.62353 0.0
C905 C 0.96879 0.0425 0.58452 0.0
C906 C 0.98109 0.0581 0.57699 0.0
C907 C 0.0761 0.11061 0.63 0.0
C908 C 0.08337 0.10083 0.57573 0.0
C909 C 0.05639 0.11056 0.64258 0.0
C910 C 0.04385 0.10046 0.60164 0.0
C911 C 0.05141 0.08909 0.55176 0.0
C912 C 0.07097 0.08949 0.53835 0.0
C913 C 0.02301 0.10446 0.60199 0.0
C914 C 0.01004 0.08936 0.61043 0.0
C915 C 0.01601 0.12287 0.58623 0.0
C916 C 0.02903 0.13881 0.56926 0.0
C917 C 0.04128 0.13732 0.51523 0.0
C918 C 0.05366 0.1523 0.49948 0.0
C919 C 0.05367 0.16897 0.53677 0.0
C920 C 0.04126 0.17073 0.58978 0.0
C921 C 0.02894 0.15571 0.60604 0.0
H922 H 0.06326 0.18051 0.52423 0.0
H923 H 0.943 0.032 0.62924 0.0
H924 H 0.10587 0.9135 0.33006 0.0
H925 H 0.10682 0.94788 0.30443 0.0
H926 H 0.1228 0.96002 0.50275 0.0
H927 H 0.12155 0.92636 0.52872 0.0
H928 H 0.09569 0.98391 0.4645 0.0
H929 H 0.15585 0.95763 0.37148 0.0
H930 H 0.17326 0.9374 0.29285 0.0
H931 H 0.14485 0.96566 0.13463 0.0
H932 H 0.12717 0.98593 0.21245 0.0
H933 H 0.16609 0.05419 0.50705 0.0
H934 H 0.15716 0.02416 0.45491 0.0
H935 H 0.10928 0.05203 0.3629 0.0
H936 H 0.11894 0.08257 0.4121 0.0
H937 H 0.14442 0.01072 0.31446 0.0
H938 H 0.07448 0.02467 0.43075 0.0
H939 H 0.05927 0.04433 0.51622 0.0
H940 H 0.10994 0.03991 0.6333 0.0
H941 H 0.12527 0.02001 0.5489 0.0
C942 C 0.10953 0.92356 0.36806 0.0
C943 C 0.11353 0.91713 0.43153 0.0
C944 C 0.11007 0.94318 0.35334 0.0
C945 C 0.11479 0.95655 0.40179 0.0
C946 C 0.11886 0.95005 0.46473 0.0
C947 C 0.11819 0.93068 0.47947 0.0
C948 C 0.11609 0.9774 0.38886 0.0
C949 C 0.10596 0.98977 0.43026 0.0
C950 C 0.12934 0.98521 0.34398 0.0
C951 C 0.14007 0.97311 0.29765 0.0
C952 C 0.15326 0.95944 0.31992 0.0
C953 C 0.16318 0.94799 0.27552 0.0
C954 C 0.16012 0.95021 0.20879 0.0
C955 C 0.14718 0.96393 0.18631 0.0
C956 C 0.13722 0.9754 0.23051 0.0
C957 C 0.15414 0.05409 0.47348 0.0
C958 C 0.14308 0.07059 0.46397 0.0
C959 C 0.14912 0.03697 0.44347 0.0
C960 C 0.1326 0.03592 0.4051 0.0
C961 C 0.12221 0.05266 0.39184 0.0
C962 C 0.12765 0.07004 0.42028 0.0
C963 C 0.1245 0.01683 0.39158 0.0
C964 C 0.13338 0.0049 0.34583 0.0
C965 C 0.11019 0.00928 0.43262 0.0
C966 C 0.10101 0.02105 0.48355 0.0
C967 C 0.08231 0.02789 0.47485 0.0
C968 C 0.07367 0.03903 0.5231 0.0
C969 C 0.08364 0.04339 0.58012 0.0
C970 C 0.10225 0.03656 0.58911 0.0
C971 C 0.1109 0.02534 0.54116 0.0
H972 H 0.07695 0.05205 0.61734 0.0
H973 H 0.1678 0.94132 0.17451 0.0
H974 H 0.91378 0.87653 0.69576 0.0
H975 H 0.94777 0.87538 0.725 0.0
H976 H 0.96182 0.90611 0.54945 0.0
H977 H 0.92813 0.90742 0.52045 0.0
H978 H 0.97249 0.85599 0.65398 0.0
H979 H 0.00258 0.92903 0.55816 0.0
H980 H 0.99429 0.96319 0.56541 0.0
H981 H 0.96285 0.95274 0.74125 0.0
H982 H 0.97119 0.91855 0.73575 0.0
H983 H 0.0459 0.85593 0.43472 0.0
H984 H 0.0178 0.8632 0.49987 0.0
H985 H 0.05377 0.87744 0.66307 0.0
H986 H 0.08241 0.8697 0.59757 0.0
H987 H 0.02213 0.90573 0.62084 0.0
H988 H 0.03148 0.84234 0.69531 0.0
H989 H 0.03968 0.8082 0.68521 0.0
H990 H 0.99219 0.7998 0.55602 0.0
H991 H 0.98386 0.83395 0.56451 0.0
C992 C 0.92407 0.88359 0.66457 0.0
C993 C 0.91831 0.89187 0.60538 0.0
C994 C 0.94349 0.88288 0.68128 0.0
C995 C 0.95738 0.89072 0.63964 0.0
C996 C 0.95143 0.90024 0.58305 0.0
C997 C 0.93212 0.90082 0.56613 0.0
C998 C 0.97801 0.88625 0.64812 0.0
C999 C 0.98338 0.86691 0.64853 0.0
C1000 C 0.99232 0.90049 0.64241 0.0
C1001 C 0.98752 0.92115 0.6465 0.0
C1002 C 0.99405 0.93401 0.59876 0.0
C1003 C 0.98929 0.95339 0.60245 0.0
C1004 C 0.97804 0.96013 0.65372 0.0
C1005 C 0.97154 0.9475 0.70148 0.0
C1006 C 0.97626 0.9281 0.69804 0.0
C1007 C 0.04792 0.86051 0.48456 0.0
C1008 C 0.06634 0.86226 0.51114 0.0
C1009 C 0.03183 0.8646 0.52176 0.0
C1010 C 0.03374 0.87076 0.5862 0.0
C1011 C 0.05208 0.87262 0.61337 0.0
C1012 C 0.06835 0.86816 0.57615 0.0
C1013 C 0.01614 0.8756 0.62258 0.0
C1014 C 0.0113 0.89493 0.62971 0.0
C1015 C 0.00229 0.8614 0.63551 0.0
C1016 C 0.00705 0.84075 0.63064 0.0
C1017 C 0.02283 0.83324 0.6645 0.0
C1018 C 0.0275 0.81388 0.65907 0.0
C1019 C 0.01646 0.80184 0.62002 0.0
C1020 C 0.00071 0.80914 0.58636 0.0
C1021 C 0.99598 0.8285 0.5916 0.0
H1022 H 0.0201 0.78685 0.61585 0.0
H1023 H 0.97436 0.97514 0.65645 0.0
H1024 H 0.33944 0.32053 0.95734 0.0
H1025 H 0.33515 0.28686 0.99002 0.0
H1026 H 0.36264 0.29868 0.17318 0.0
H1027 H 0.36634 0.33217 0.1422 0.0
H1028 H 0.37628 0.26458 0.0831 0.0
H1029 H 0.3237 0.2948 0.19966 0.0
H1030 H 0.29379 0.31313 0.21226 0.0
H1031 H 0.26491 0.27428 0.08402 0.0
H1032 H 0.29477 0.25593 0.06961 0.0
H1033 H 0.3659 0.18462 0.28733 0.0
H1034 H 0.36368 0.21804 0.2525 0.0
H1035 H 0.32466 0.20194 0.09975 0.0
H1036 H 0.32703 0.16846 0.13349 0.0
H1037 H 0.31535 0.23751 0.16645 0.0
H1038 H 0.36657 0.20612 0.05472 0.0
H1039 H 0.39553 0.18616 0.04652 0.0
H1040 H 0.42653 0.22636 0.16382 0.0
H1041 H 0.39761 0.24641 0.1737 0.0
C1042 C 0.34451 0.31587 0.00451 0.0
C1043 C 0.35314 0.32892 0.04737 0.0
C1044 C 0.34198 0.29675 0.0232 0.0
C1045 C 0.34845 0.29045 0.08419 0.0
C1046 C 0.35742 0.30336 0.1262 0.0
C1047 C 0.3595 0.32246 0.1084 0.0
C1048 C 0.34662 0.27024 0.104 0.0
C1049 C 0.36298 0.25867 0.10156 0.0
C1050 C 0.32918 0.26253 0.12693 0.0
C1051 C 0.31157 0.27421 0.13257 0.0
C1052 C 0.31109 0.29041 0.17301 0.0
C1053 C 0.29411 0.30073 0.18082 0.0
C1054 C 0.27747 0.29487 0.14889 0.0
C1055 C 0.27782 0.27881 0.10862 0.0
C1056 C 0.29477 0.26847 0.10054 0.0
C1057 C 0.35651 0.18825 0.24731 0.0
C1058 C 0.34675 0.17393 0.21284 0.0
C1059 C 0.35533 0.20731 0.22729 0.0
C1060 C 0.34417 0.21235 0.17317 0.0
C1061 C 0.33337 0.19829 0.14151 0.0
C1062 C 0.33479 0.1792 0.16077 0.0
C1063 C 0.34506 0.23197 0.14646 0.0
C1064 C 0.32858 0.24338 0.14742 0.0
C1065 C 0.36238 0.23955 0.12185 0.0
C1066 C 0.37986 0.22765 0.11556 0.0
C1067 C 0.37951 0.21061 0.07929 0.0
C1068 C 0.39593 0.1993 0.07425 0.0
C1069 C 0.41285 0.20495 0.10479 0.0
C1070 C 0.4134 0.22198 0.14028 0.0
C1071 C 0.397 0.23333 0.1456 0.0
H1072 H 0.42555 0.19617 0.10082 0.0
H1073 H 0.26425 0.30267 0.15568 0.0
H1074 H 0.17052 0.64741 0.89414 0.0
H1075 H 0.20392 0.65198 0.92157 0.0
H1076 H 0.21815 0.65613 0.71789 0.0
H1077 H 0.18444 0.65072 0.68958 0.0
H1078 H 0.24331 0.63486 0.77588 0.0
H1079 H 0.21744 0.69626 0.82306 0.0
H1080 H 0.19469 0.71939 0.8701 0.0
H1081 H 0.2097 0.70082 0.06242 0.0
H1082 H 0.23234 0.67738 0.01653 0.0
H1083 H 0.33738 0.66446 0.84541 0.0
H1084 H 0.30402 0.66805 0.81358 0.0
H1085 H 0.28599 0.64948 0.00381 0.0
H1086 H 0.31952 0.64564 0.03647 0.0
H1087 H 0.26355 0.68071 0.94668 0.0
H1088 H 0.28761 0.61759 0.89529 0.0
H1089 H 0.31109 0.59556 0.84647 0.0
H1090 H 0.29967 0.61909 0.65758 0.0
H1091 H 0.27641 0.6416 0.70561 0.0
C1092 C 0.18064 0.64945 0.85485 0.0
C1093 C 0.17471 0.64882 0.78947 0.0
C1094 C 0.19982 0.65219 0.8708 0.0
C1095 C 0.21358 0.65487 0.82199 0.0
C1096 C 0.20778 0.65424 0.75651 0.0
C1097 C 0.18851 0.65118 0.74034 0.0
C1098 C 0.23406 0.65743 0.83999 0.0
C1099 C 0.24773 0.64518 0.81225 0.0
C1100 C 0.23991 0.67066 0.88837 0.0
C1101 C 0.22651 0.68496 0.91628 0.0
C1102 C 0.21582 0.69703 0.87538 0.0
C1103 C 0.20294 0.7102 0.90184 0.0
C1104 C 0.20072 0.71155 0.9692 0.0
C1105 C 0.21143 0.69976 0.01024 0.0
C1106 C 0.22431 0.68655 0.98403 0.0
C1107 C 0.3264 0.66136 0.88108 0.0
C1108 C 0.33119 0.65444 0.94337 0.0
C1109 C 0.30731 0.66346 0.86264 0.0
C1110 C 0.29258 0.65877 0.90602 0.0
C1111 C 0.2972 0.65313 0.96962 0.0
C1112 C 0.31637 0.65091 0.98814 0.0
C1113 C 0.2725 0.65807 0.88293 0.0
C1114 C 0.25902 0.67061 0.90978 0.0
C1115 C 0.26682 0.64526 0.8333 0.0
C1116 C 0.28042 0.63141 0.80414 0.0
C1117 C 0.2902 0.61816 0.84341 0.0
C1118 C 0.30347 0.60559 0.81588 0.0
C1119 C 0.3069 0.60595 0.74896 0.0
C1120 C 0.29702 0.61885 0.70943 0.0
C1121 C 0.2838 0.63153 0.73678 0.0
H1122 H 0.31718 0.59621 0.72772 0.0
H1123 H 0.19073 0.72173 0.98958 0.0
H1124 H 0.67055 0.82937 0.15982 0.0
H1125 H 0.67374 0.79583 0.12927 0.0
H1126 H 0.62848 0.78093 0.26267 0.0
H1127 H 0.62558 0.81457 0.29499 0.0
H1128 H 0.6562 0.75308 0.25683 0.0
H1129 H 0.61868 0.79031 0.10312 0.0
H1130 H 0.61384 0.81751 0.02856 0.0
H1131 H 0.66201 0.79942 0.91436 0.0
H1132 H 0.66728 0.77224 0.98879 0.0
H1133 H 0.6209 0.66873 0.12633 0.0
H1134 H 0.62374 0.70198 0.16062 0.0
H1135 H 0.66505 0.7121 0.00828 0.0
H1136 H 0.66132 0.6788 0.97143 0.0
H1137 H 0.64291 0.74227 0.02252 0.0
H1138 H 0.67839 0.7028 0.16787 0.0
H1139 H 0.68252 0.67482 0.23943 0.0
H1140 H 0.63973 0.6968 0.36927 0.0
H1141 H 0.63491 0.72464 0.29753 0.0
C1142 C 0.66153 0.8189 0.18365 0.0
C1143 C 0.64761 0.82459 0.22913 0.0
C1144 C 0.66335 0.79975 0.16602 0.0
C1145 C 0.65101 0.78597 0.19243 0.0
C1146 C 0.63806 0.79138 0.2414 0.0
C1147 C 0.63641 0.81058 0.25985 0.0
C1148 C 0.65039 0.76642 0.16462 0.0
C1149 C 0.65318 0.75068 0.20576 0.0
C1150 C 0.64697 0.76333 0.09752 0.0
C1151 C 0.64346 0.77935 0.05177 0.0
C1152 C 0.62827 0.79218 0.06222 0.0
C1153 C 0.62546 0.80759 0.02001 0.0
C1154 C 0.63763 0.81021 0.96684 0.0
C1155 C 0.6526 0.79738 0.9556 0.0
C1156 C 0.65549 0.78196 0.99773 0.0
C1157 C 0.63039 0.67816 0.09969 0.0
C1158 C 0.64102 0.67132 0.04672 0.0
C1159 C 0.63212 0.69709 0.11955 0.0
C1160 C 0.64509 0.70938 0.08843 0.0
C1161 C 0.65511 0.7028 0.03344 0.0
C1162 C 0.65299 0.68386 0.01239 0.0
C1163 C 0.64841 0.72884 0.11487 0.0
C1164 C 0.64617 0.7446 0.07347 0.0
C1165 C 0.65251 0.73192 0.18164 0.0
C1166 C 0.65618 0.71576 0.22696 0.0
C1167 C 0.66981 0.70165 0.21157 0.0
C1168 C 0.67221 0.68577 0.25201 0.0
C1169 C 0.66132 0.68399 0.30865 0.0
C1170 C 0.64812 0.69817 0.32525 0.0
C1171 C 0.64553 0.71401 0.28468 0.0
H1172 H 0.66315 0.67165 0.33979 0.0
H1173 H 0.63546 0.82217 0.93429 0.0
H1174 H 0.67107 0.38139 0.86792 0.0
H1175 H 0.70458 0.37754 0.83765 0.0
H1176 H 0.71371 0.3418 0.00592 0.0
H1177 H 0.68002 0.3464 0.03803 0.0
H1178 H 0.74447 0.36439 0.98168 0.0
H1179 H 0.70514 0.32204 0.85747 0.0
H1180 H 0.6769 0.31478 0.78996 0.0
H1181 H 0.69795 0.35198 0.64014 0.0
H1182 H 0.72612 0.35982 0.70729 0.0
H1183 H 0.83102 0.32917 0.85923 0.0
H1184 H 0.79746 0.3283 0.89145 0.0
H1185 H 0.78349 0.36786 0.7378 0.0
H1186 H 0.81719 0.36865 0.70446 0.0
H1187 H 0.75506 0.34024 0.7574 0.0
H1188 H 0.79192 0.385 0.88603 0.0
H1189 H 0.81913 0.39416 0.9557 0.0
H1190 H 0.80228 0.35224 0.09715 0.0
H1191 H 0.77508 0.34269 0.02788 0.0
C1192 C 0.68033 0.37299 0.89908 0.0
C1193 C 0.67306 0.36406 0.95496 0.0
C1194 C 0.69942 0.37069 0.88155 0.0
C1195 C 0.71149 0.35889 0.91838 0.0
C1196 C 0.70456 0.35081 0.97647 0.0
C1197 C 0.68541 0.35346 0.99487 0.0
C1198 C 0.73096 0.35444 0.89394 0.0
C1199 C 0.74677 0.35876 0.93315 0.0
C1200 C 0.73396 0.34733 0.83012 0.0
C1201 C 0.71769 0.34165 0.78773 0.0
C1202 C 0.70374 0.32871 0.81018 0.0
C1203 C 0.68771 0.32455 0.7721 0.0
C1204 C 0.68556 0.33306 0.7111 0.0
C1205 C 0.69959 0.3455 0.6876 0.0
C1206 C 0.71561 0.34979 0.72562 0.0
C1207 C 0.82079 0.33745 0.83144 0.0
C1208 C 0.82682 0.34922 0.77981 0.0
C1209 C 0.8016 0.33693 0.85001 0.0
C1210 C 0.78807 0.34832 0.8179 0.0
C1211 C 0.79375 0.35903 0.76339 0.0
C1212 C 0.813 0.35946 0.74439 0.0
C1213 C 0.76851 0.3504 0.84496 0.0
C1214 C 0.75271 0.34562 0.80621 0.0
C1215 C 0.76549 0.35702 0.90926 0.0
C1216 C 0.78158 0.36303 0.95156 0.0
C1217 C 0.79408 0.37768 0.93185 0.0
C1218 C 0.80949 0.38295 0.97127 0.0
C1219 C 0.81246 0.37375 0.03074 0.0
C1220 C 0.79997 0.35933 0.05104 0.0
C1221 C 0.78454 0.35401 0.01177 0.0
H1222 H 0.82441 0.37782 0.06116 0.0
H1223 H 0.67307 0.32991 0.68187 0.0
H1224 H 0.83006 0.66252 0.63412 0.0
H1225 H 0.82751 0.69595 0.60169 0.0
H1226 H 0.86187 0.71253 0.76634 0.0
H1227 H 0.86431 0.679 0.79989 0.0
H1228 H 0.83329 0.73934 0.73685 0.0
H1229 H 0.88318 0.70391 0.62442 0.0
H1230 H 0.89516 0.67705 0.55826 0.0
H1231 H 0.85697 0.69262 0.40357 0.0
H1232 H 0.84457 0.71943 0.46928 0.0
H1233 H 0.87761 0.82311 0.64581 0.0
H1234 H 0.8726 0.78955 0.67214 0.0
H1235 H 0.84214 0.78169 0.49167 0.0
H1236 H 0.84778 0.81549 0.46386 0.0
H1237 H 0.86428 0.75062 0.52275 0.0
H1238 H 0.8172 0.78873 0.62917 0.0
H1239 H 0.80719 0.81698 0.69236 0.0
H1240 H 0.83963 0.79713 0.85615 0.0
H1241 H 0.85015 0.76893 0.79358 0.0
C1242 C 0.83679 0.67329 0.66428 0.0
C1243 C 0.84769 0.66807 0.71902 0.0
C1244 C 0.83528 0.6924 0.64563 0.0
C1245 C 0.84484 0.70665 0.68081 0.0
C1246 C 0.85446 0.70171 0.73837 0.0
C1247 C 0.85586 0.68254 0.75745 0.0
C1248 C 0.84664 0.7262 0.65367 0.0
C1249 C 0.8401 0.74183 0.6902 0.0
C1250 C 0.8551 0.72941 0.59196 0.0
C1251 C 0.86282 0.71354 0.55197 0.0
C1252 C 0.87727 0.70154 0.57643 0.0
C1253 C 0.88414 0.68633 0.53902 0.0
C1254 C 0.87679 0.6831 0.47681 0.0
C1255 C 0.86262 0.69512 0.4518 0.0
C1256 C 0.85568 0.71033 0.48908 0.0
C1257 C 0.8701 0.81416 0.61122 0.0
C1258 C 0.86288 0.82185 0.55316 0.0
C1259 C 0.86717 0.79502 0.62645 0.0
C1260 C 0.85649 0.7833 0.58482 0.0
C1261 C 0.85024 0.7906 0.52476 0.0
C1262 C 0.8535 0.80982 0.50883 0.0
C1263 C 0.85125 0.76378 0.60634 0.0
C1264 C 0.85713 0.74815 0.56883 0.0
C1265 C 0.84205 0.7606 0.66688 0.0
C1266 C 0.83457 0.77675 0.70646 0.0
C1267 C 0.82221 0.79038 0.67867 0.0
C1268 C 0.81652 0.80644 0.71425 0.0
C1269 C 0.82292 0.80894 0.77799 0.0
C1270 C 0.83478 0.79523 0.80663 0.0
C1271 C 0.84058 0.77918 0.77116 0.0
H1272 H 0.81856 0.82141 0.80536 0.0
H1273 H 0.88211 0.67131 0.44794 0.0
H1274 H 0.81919 0.14587 0.54061 0.0
H1275 H 0.78553 0.14908 0.51037 0.0
H1276 H 0.80202 0.16768 0.31845 0.0
H1277 H 0.83567 0.16484 0.34835 0.0
H1278 H 0.7696 0.18587 0.35862 0.0
H1279 H 0.79284 0.12198 0.34243 0.0
H1280 H 0.80892 0.09263 0.38009 0.0
H1281 H 0.76682 0.08594 0.53051 0.0
H1282 H 0.75068 0.11548 0.49447 0.0
H1283 H 0.68133 0.15069 0.20661 0.0
H1284 H 0.71544 0.15552 0.23174 0.0
H1285 H 0.70337 0.14896 0.43604 0.0
H1286 H 0.66959 0.14457 0.41211 0.0
H1287 H 0.73403 0.12482 0.38127 0.0
H1288 H 0.71147 0.19032 0.39407 0.0
H1289 H 0.69595 0.21925 0.35038 0.0
H1290 H 0.73734 0.22164 0.19617 0.0
H1291 H 0.75293 0.19252 0.23847 0.0
C1292 C 0.81571 0.15113 0.49253 0.0
C1293 C 0.83017 0.15477 0.44663 0.0
C1294 C 0.79644 0.15286 0.47519 0.0
C1295 C 0.7913 0.15819 0.41166 0.0
C1296 C 0.80566 0.1634 0.36754 0.0
C1297 C 0.82492 0.16169 0.38478 0.0
C1298 C 0.77117 0.15647 0.38948 0.0
C1299 C 0.76188 0.17248 0.36299 0.0
C1300 C 0.76113 0.13895 0.39466 0.0
C1301 C 0.77067 0.12106 0.41618 0.0
C1302 C 0.7871 0.11434 0.38387 0.0
C1303 C 0.79621 0.09766 0.40488 0.0
C1304 C 0.78892 0.08745 0.45776 0.0
C1305 C 0.77247 0.09389 0.48962 0.0
C1306 C 0.76333 0.1106 0.46892 0.0
C1307 C 0.68596 0.15044 0.25684 0.0
C1308 C 0.67271 0.14727 0.30726 0.0
C1309 C 0.70539 0.15323 0.27109 0.0
C1310 C 0.71183 0.15257 0.33574 0.0
C1311 C 0.69865 0.14951 0.38589 0.0
C1312 C 0.67931 0.14708 0.37195 0.0
C1313 C 0.73238 0.15431 0.35193 0.0
C1314 C 0.74179 0.1382 0.37687 0.0
C1315 C 0.74255 0.17162 0.34431 0.0
C1316 C 0.73321 0.18911 0.31892 0.0
C1317 C 0.71713 0.19689 0.35043 0.0
C1318 C 0.70835 0.21335 0.32603 0.0
C1319 C 0.71561 0.22224 0.27039 0.0
C1320 C 0.7317 0.21472 0.23918 0.0
C1321 C 0.74052 0.19824 0.26336 0.0
H1322 H 0.7088 0.23499 0.25159 0.0
H1323 H 0.796 0.07454 0.47396 0.0
H1324 H 0.14271 0.32044 0.79698 0.0
H1325 H 0.14415 0.28627 0.76875 0.0
H1326 H 0.13712 0.30039 0.56614 0.0
H1327 H 0.136 0.33422 0.59325 0.0
H1328 H 0.11151 0.2715 0.61665 0.0
H1329 H 0.17859 0.28853 0.60839 0.0
H1330 H 0.20865 0.30125 0.65375 0.0
H1331 H 0.20729 0.2588 0.80452 0.0
H1332 H 0.17704 0.24601 0.76059 0.0
H1333 H 0.12874 0.18348 0.45752 0.0
H1334 H 0.12956 0.21708 0.49054 0.0
H1335 H 0.1505 0.2006 0.67969 0.0
H1336 H 0.15015 0.1672 0.64694 0.0
H1337 H 0.16914 0.2307 0.6409 0.0
H1338 H 0.10322 0.21407 0.65828 0.0
H1339 H 0.0715 0.20208 0.62618 0.0
H1340 H 0.06913 0.24317 0.47119 0.0
H1341 H 0.10093 0.25544 0.50262 0.0
C1342 C 0.14154 0.31622 0.74649 0.0
C1343 C 0.13931 0.33004 0.69741 0.0
C1344 C 0.14243 0.29676 0.73045 0.0
C1345 C 0.14079 0.29091 0.66535 0.0
C1346 C 0.13844 0.30465 0.61659 0.0
C1347 C 0.13788 0.324 0.63231 0.0
C1348 C 0.1409 0.27045 0.64737 0.0
C1349 C 0.12416 0.26259 0.62122 0.0
C1350 C 0.15725 0.2588 0.65531 0.0
C1351 C 0.17543 0.26647 0.68169 0.0
C1352 C 0.18459 0.28204 0.65162 0.0
C1353 C 0.20169 0.28923 0.67697 0.0
C1354 C 0.20984 0.28088 0.73211 0.0
C1355 C 0.20094 0.26528 0.76189 0.0
C1356 C 0.18382 0.25805 0.73677 0.0
C1357 C 0.1336 0.18701 0.50599 0.0
C1358 C 0.1393 0.17256 0.54951 0.0
C1359 C 0.13396 0.20622 0.52502 0.0
C1360 C 0.13986 0.21137 0.58798 0.0
C1361 C 0.14589 0.19702 0.63094 0.0
C1362 C 0.1456 0.17787 0.61199 0.0
C1363 C 0.13971 0.23166 0.60943 0.0
C1364 C 0.15645 0.23953 0.63625 0.0
C1365 C 0.12323 0.2433 0.60319 0.0
C1366 C 0.10452 0.2355 0.58231 0.0
C1367 C 0.09602 0.2204 0.6169 0.0
C1368 C 0.07799 0.21362 0.599 0.0
C1369 C 0.0683 0.22181 0.54651 0.0
C1370 C 0.07665 0.23682 0.51179 0.0
C1371 C 0.09467 0.24373 0.52972 0.0
H1372 H 0.0543 0.21658 0.53284 0.0
H1373 H 0.22309 0.28646 0.75165 0.0
H1374 H 0.16393 0.83942 0.34636 0.0
H1375 H 0.19756 0.83661 0.31761 0.0
H1376 H 0.21335 0.84713 0.51718 0.0
H1377 H 0.17959 0.85053 0.54624 0.0
H1378 H 0.23246 0.86972 0.44311 0.0
H1379 H 0.22103 0.80284 0.43972 0.0
H1380 H 0.20657 0.77171 0.41259 0.0
H1381 H 0.21807 0.78125 0.21012 0.0
H1382 H 0.23243 0.81254 0.23589 0.0
H1383 H 0.33075 0.85045 0.40455 0.0
H1384 H 0.29723 0.84592 0.43206 0.0
H1385 H 0.28172 0.85222 0.23043 0.0
H1386 H 0.31554 0.85704 0.20183 0.0
H1387 H 0.26307 0.82037 0.30458 0.0
H1388 H 0.27455 0.88847 0.31491 0.0
H1389 H 0.29227 0.91716 0.34984 0.0
H1390 H 0.28214 0.90271 0.54983 0.0
H1391 H 0.2646 0.87377 0.51607 0.0
C1392 C 0.17449 0.84089 0.38457 0.0
C1393 C 0.16899 0.84547 0.44862 0.0
C1394 C 0.19379 0.8391 0.36798 0.0
C1395 C 0.20807 0.8416 0.41515 0.0
C1396 C 0.2026 0.84521 0.47981 0.0
C1397 C 0.18327 0.84711 0.49644 0.0
C1398 C 0.22857 0.8425 0.39567 0.0
C1399 C 0.23916 0.85872 0.41372 0.0
C1400 C 0.23731 0.82843 0.35587 0.0
C1401 C 0.22769 0.81013 0.33974 0.0
C1402 C 0.22026 0.79843 0.38931 0.0
C1403 C 0.21217 0.7807 0.37421 0.0
C1404 C 0.2115 0.77447 0.30972 0.0
C1405 C 0.21869 0.78606 0.26009 0.0
C1406 C 0.22681 0.80379 0.27492 0.0
C1407 C 0.32033 0.85078 0.3656 0.0
C1408 C 0.32591 0.85426 0.30081 0.0
C1409 C 0.30114 0.84818 0.38164 0.0
C1410 C 0.28704 0.84887 0.33339 0.0
C1411 C 0.29246 0.85166 0.26832 0.0
C1412 C 0.31176 0.85448 0.25214 0.0
C1413 C 0.26663 0.84748 0.35213 0.0
C1414 C 0.25616 0.83127 0.33389 0.0
C1415 C 0.25804 0.86136 0.39261 0.0
C1416 C 0.26841 0.87887 0.41295 0.0
C1417 C 0.27623 0.89133 0.36634 0.0
C1418 C 0.28622 0.90765 0.38592 0.0
C1419 C 0.28837 0.91173 0.45201 0.0
C1420 C 0.28048 0.89952 0.49866 0.0
C1421 C 0.2705 0.88317 0.47932 0.0
H1422 H 0.29611 0.92437 0.46708 0.0
H1423 H 0.20537 0.76068 0.29817 0.0
H1424 H 0.20757 0.12045 0.61536 0.0
H1425 H 0.23531 0.12233 0.68682 0.0
H1426 H 0.19874 0.11473 0.85389 0.0
H1427 H 0.1707 0.11317 0.78237 0.0
H1428 H 0.22563 0.14183 0.87567 0.0
H1429 H 0.22464 0.07756 0.79322 0.0
H1430 H 0.22363 0.05268 0.70844 0.0
H1431 H 0.27615 0.07387 0.62747 0.0
H1432 H 0.27734 0.09907 0.71129 0.0
H1433 H 0.29273 0.11074 0.10713 0.0
H1434 H 0.26657 0.1128 0.02942 0.0
H1435 H 0.30689 0.1233 0.87464 0.0
H1436 H 0.33342 0.12118 0.95272 0.0
H1437 H 0.27929 0.09635 0.8426 0.0
H1438 H 0.28123 0.15944 0.93073 0.0
H1439 H 0.28234 0.18363 0.01779 0.0
H1440 H 0.22804 0.16423 0.08984 0.0
H1441 H 0.22674 0.13969 0.00386 0.0
C1442 C 0.20537 0.11924 0.66733 0.0
C1443 C 0.18695 0.1165 0.69326 0.0
C1444 C 0.22128 0.12026 0.70809 0.0
C1445 C 0.21914 0.11836 0.77558 0.0
C1446 C 0.20071 0.11616 0.80187 0.0
C1447 C 0.18472 0.11522 0.76101 0.0
C1448 C 0.2362 0.11832 0.81842 0.0
C1449 C 0.23726 0.13176 0.86891 0.0
C1450 C 0.25163 0.1055 0.80844 0.0
C1451 C 0.25097 0.09032 0.75812 0.0
C1452 C 0.2359 0.07701 0.75703 0.0
C1453 C 0.2353 0.06283 0.7092 0.0
C1454 C 0.24978 0.06173 0.66249 0.0
C1455 C 0.26492 0.07477 0.66362 0.0
C1456 C 0.26557 0.08899 0.71131 0.0
C1457 C 0.29611 0.11349 0.05659 0.0
C1458 C 0.31516 0.11583 0.03602 0.0
C1459 C 0.2811 0.11476 0.01229 0.0
C1460 C 0.28477 0.11845 0.94649 0.0
C1461 C 0.30378 0.12053 0.92538 0.0
C1462 C 0.31889 0.11934 0.96993 0.0
C1463 C 0.26862 0.11975 0.9001 0.0
C1464 C 0.26772 0.10653 0.84899 0.0
C1465 C 0.25334 0.13273 0.90967 0.0
C1466 C 0.25396 0.14761 0.96109 0.0
C1467 C 0.26958 0.16023 0.96542 0.0
C1468 C 0.27024 0.17402 0.01454 0.0
C1469 C 0.25528 0.17544 0.05938 0.0
C1470 C 0.23962 0.1631 0.05509 0.0
C1471 C 0.23891 0.14926 0.00613 0.0
H1472 H 0.25582 0.18612 0.09738 0.0
H1473 H 0.2493 0.05074 0.6255 0.0
H1474 H 0.09954 0.79463 0.34793 0.0
H1475 H 0.10182 0.76813 0.27184 0.0
H1476 H 0.11935 0.80693 0.12009 0.0
H1477 H 0.11701 0.83385 0.1966 0.0
H1478 H 0.09219 0.7789 0.08042 0.0
H1479 H 0.1518 0.78254 0.19345 0.0
H1480 H 0.17139 0.78531 0.2924 0.0
H1481 H 0.15082 0.73085 0.35862 0.0
H1482 H 0.13043 0.72811 0.26123 0.0
H1483 H 0.12205 0.70582 0.87008 0.0
H1484 H 0.12246 0.73401 0.93939 0.0
H1485 H 0.1118 0.69862 0.10743 0.0
H1486 H 0.112 0.67005 0.03796 0.0
H1487 H 0.13691 0.72616 0.13556 0.0
H1488 H 0.07541 0.72358 0.03158 0.0
H1489 H 0.05319 0.72133 0.93879 0.0
H1490 H 0.0762 0.77321 0.85916 0.0
H1491 H 0.09874 0.77562 0.95107 0.0
C1492 C 0.1038 0.79763 0.29832 0.0
C1493 C 0.10828 0.81633 0.27834 0.0
C1494 C 0.1051 0.78244 0.25494 0.0
C1495 C 0.11103 0.78556 0.19077 0.0
C1496 C 0.11483 0.80427 0.16967 0.0
C1497 C 0.11353 0.81959 0.21332 0.0
C1498 C 0.11378 0.76903 0.14696 0.0
C1499 C 0.10221 0.76751 0.09166 0.0
C1500 C 0.12652 0.75401 0.16294 0.0
C1501 C 0.13943 0.7552 0.22019 0.0
C1502 C 0.15133 0.7712 0.22928 0.0
C1503 C 0.16256 0.77278 0.28518 0.0
C1504 C 0.16237 0.75825 0.33178 0.0
C1505 C 0.15094 0.7421 0.3225 0.0
C1506 C 0.1395 0.74055 0.26701 0.0
C1507 C 0.11986 0.70399 0.92186 0.0
C1508 C 0.11673 0.68577 0.94863 0.0
C1509 C 0.12006 0.72014 0.96137 0.0
C1510 C 0.1167 0.71848 0.02833 0.0
C1511 C 0.11429 0.70022 0.05573 0.0
C1512 C 0.11437 0.68394 0.01613 0.0
C1513 C 0.11518 0.73589 0.06909 0.0
C1514 C 0.12699 0.73759 0.12389 0.0
C1515 C 0.10254 0.75102 0.05295 0.0
C1516 C 0.08889 0.74968 0.99789 0.0
C1517 C 0.07582 0.73444 0.99405 0.0
C1518 C 0.06316 0.73314 0.94165 0.0
C1519 C 0.06332 0.74709 0.89302 0.0
C1520 C 0.07611 0.7624 0.89681 0.0
C1521 C 0.08882 0.76375 0.94908 0.0
H1522 H 0.05351 0.74606 0.85248 0.0
H1523 H 0.17108 0.75949 0.37504 0.0
H1524 H 0.70718 0.88257 0.13263 0.0
H1525 H 0.73491 0.87804 0.06272 0.0
H1526 H 0.69778 0.86828 0.89858 0.0
H1527 H 0.6697 0.87247 0.96905 0.0
H1528 H 0.72753 0.84316 0.90023 0.0
H1529 H 0.71979 0.91083 0.91629 0.0
H1530 H 0.71547 0.94179 0.97162 0.0
H1531 H 0.76907 0.93432 0.07038 0.0
H1532 H 0.77359 0.90317 0.0163 0.0
H1533 H 0.79625 0.86367 0.65368 0.0
H1534 H 0.76917 0.86053 0.72765 0.0
H1535 H 0.80669 0.86944 0.89134 0.0
H1536 H 0.83399 0.87271 0.81716 0.0
H1537 H 0.77681 0.89412 0.89043 0.0
H1538 H 0.78347 0.82535 0.87657 0.0
H1539 H 0.78672 0.79408 0.82204 0.0
H1540 H 0.73536 0.80475 0.71361 0.0
H1541 H 0.73152 0.83585 0.76876 0.0
C1542 C 0.70484 0.87948 0.08165 0.0
C1543 C 0.68623 0.87806 0.05618 0.0
C1544 C 0.72074 0.87693 0.04172 0.0
C1545 C 0.71842 0.87311 0.97528 0.0
C1546 C 0.69987 0.87129 0.94974 0.0
C1547 C 0.68387 0.87378 0.98991 0.0
C1548 C 0.73548 0.87132 0.93281 0.0
C1549 C 0.7382 0.85439 0.89742 0.0
C1550 C 0.74958 0.88582 0.93017 0.0
C1551 C 0.74693 0.90458 0.96271 0.0
C1552 C 0.73058 0.91571 0.9502 0.0
C1553 C 0.72811 0.93331 0.98127 0.0
C1554 C 0.74196 0.94 0.02462 0.0
C1555 C 0.75834 0.92912 0.03686 0.0
C1556 C 0.76087 0.9115 0.00597 0.0
C1557 C 0.79882 0.86468 0.7055 0.0
C1558 C 0.81719 0.86872 0.72965 0.0
C1559 C 0.78333 0.86269 0.74777 0.0
C1560 C 0.78591 0.86468 0.81503 0.0
C1561 C 0.80441 0.86782 0.83954 0.0
C1562 C 0.81997 0.8697 0.79718 0.0
C1563 C 0.76903 0.86586 0.85846 0.0
C1564 C 0.76624 0.8828 0.89368 0.0
C1565 C 0.75484 0.85145 0.86044 0.0
C1566 C 0.75731 0.83297 0.82632 0.0
C1567 C 0.77294 0.82106 0.84081 0.0
C1568 C 0.77484 0.80335 0.81 0.0
C1569 C 0.76138 0.79753 0.76391 0.0
C1570 C 0.74582 0.8093 0.74915 0.0
C1571 C 0.74369 0.8269 0.78051 0.0
H1572 H 0.76295 0.78386 0.73989 0.0
H1573 H 0.74002 0.95362 0.04861 0.0
H1574 H 0.91539 0.18894 0.29332 0.0
H1575 H 0.91169 0.21668 0.22232 0.0
H1576 H 0.85779 0.19426 0.15352 0.0
H1577 H 0.86222 0.16582 0.22146 0.0
H1578 H 0.87313 0.21058 0.05946 0.0
H1579 H 0.86134 0.23078 0.27448 0.0
H1580 H 0.86686 0.23485 0.39205 0.0
H1581 H 0.91746 0.26766 0.35244 0.0
H1582 H 0.9124 0.26356 0.23459 0.0
H1583 H 0.86569 0.32298 0.02056 0.0
H1584 H 0.86265 0.29448 0.08954 0.0
H1585 H 0.89855 0.26299 0.95632 0.0
H1586 H 0.90076 0.29093 0.88633 0.0
H1587 H 0.88538 0.27437 0.15625 0.0
H1588 H 0.88818 0.21731 0.94751 0.0
H1589 H 0.87665 0.2139 0.8348 0.0
H1590 H 0.83312 0.25595 0.87028 0.0
H1591 H 0.84418 0.25941 0.98344 0.0
C1592 C 0.90295 0.18981 0.262 0.0
C1593 C 0.8891 0.17532 0.26251 0.0
C1594 C 0.9007 0.20577 0.22209 0.0
C1595 C 0.88414 0.20793 0.18404 0.0
C1596 C 0.87064 0.19303 0.18265 0.0
C1597 C 0.87319 0.17675 0.22121 0.0
C1598 C 0.88091 0.22583 0.14652 0.0
C1599 C 0.87574 0.22451 0.08076 0.0
C1600 C 0.88345 0.24414 0.17478 0.0
C1601 C 0.88655 0.24674 0.24566 0.0
C1602 C 0.87371 0.23876 0.29083 0.0
C1603 C 0.87675 0.24109 0.35753 0.0
C1604 C 0.89252 0.25148 0.37969 0.0
C1605 C 0.90526 0.25961 0.33519 0.0
C1606 C 0.9023 0.2573 0.26843 0.0
C1607 C 0.87286 0.30992 0.0062 0.0
C1608 C 0.88331 0.30906 0.94796 0.0
C1609 C 0.87112 0.29366 0.04551 0.0
C1610 C 0.88001 0.27641 0.02744 0.0
C1611 C 0.89101 0.27587 0.97033 0.0
C1612 C 0.89239 0.29192 0.93056 0.0
C1613 C 0.87839 0.25903 0.06865 0.0
C1614 C 0.88258 0.26044 0.13515 0.0
C1615 C 0.874 0.2409 0.04183 0.0
C1616 C 0.86712 0.23871 0.9739 0.0
C1617 C 0.87608 0.22575 0.9314 0.0
C1618 C 0.86964 0.22383 0.86739 0.0
C1619 C 0.85419 0.23473 0.84535 0.0
C1620 C 0.84512 0.24755 0.88734 0.0
C1621 C 0.85148 0.24951 0.95141 0.0
H1622 H 0.84924 0.23323 0.79577 0.0
H1623 H 0.89485 0.25326 0.43135 0.0
H1624 H 0.20177 0.37014 0.61099 0.0
H1625 H 0.22961 0.36722 0.53993 0.0
H1626 H 0.19814 0.39438 0.38468 0.0
H1627 H 0.16983 0.39628 0.45488 0.0
H1628 H 0.21944 0.36805 0.33572 0.0
H1629 H 0.23116 0.41905 0.48839 0.0
H1630 H 0.23416 0.4335 0.59731 0.0
H1631 H 0.27879 0.39373 0.64526 0.0
H1632 H 0.27589 0.3789 0.53686 0.0
H1633 H 0.29509 0.40244 0.14483 0.0
H1634 H 0.26795 0.40007 0.21872 0.0
H1635 H 0.30299 0.36946 0.35665 0.0
H1636 H 0.33062 0.37254 0.28335 0.0
H1637 H 0.28075 0.39474 0.41647 0.0
H1638 H 0.27123 0.34744 0.25053 0.0
H1639 H 0.26874 0.33674 0.13672 0.0
H1640 H 0.21901 0.37181 0.10964 0.0
H1641 H 0.22175 0.38357 0.22216 0.0
C1642 C 0.20077 0.37534 0.56148 0.0
C1643 C 0.18378 0.38363 0.53845 0.0
C1644 C 0.21672 0.37376 0.52102 0.0
C1645 C 0.21619 0.38108 0.45747 0.0
C1646 C 0.19895 0.38873 0.43364 0.0
C1647 C 0.1828 0.38986 0.4737 0.0
C1648 C 0.23375 0.38133 0.41663 0.0
C1649 C 0.23279 0.37404 0.35315 0.0
C1650 C 0.25134 0.38877 0.43981 0.0
C1651 C 0.25317 0.39775 0.5048 0.0
C1652 C 0.24153 0.41332 0.52233 0.0
C1653 C 0.24322 0.42158 0.58393 0.0
C1654 C 0.25662 0.4145 0.62823 0.0
C1655 C 0.2684 0.39918 0.61093 0.0
C1656 C 0.26675 0.39085 0.54941 0.0
C1657 C 0.29705 0.39525 0.19102 0.0
C1658 C 0.31489 0.38752 0.20828 0.0
C1659 C 0.28149 0.39382 0.23305 0.0
C1660 C 0.28329 0.38413 0.29244 0.0
C1661 C 0.30125 0.37685 0.31073 0.0
C1662 C 0.317 0.37861 0.26901 0.0
C1663 C 0.26636 0.38175 0.33523 0.0
C1664 C 0.26745 0.38858 0.39917 0.0
C1665 C 0.24883 0.37416 0.312 0.0
C1666 C 0.24677 0.36649 0.24493 0.0
C1667 C 0.25981 0.35297 0.2203 0.0
C1668 C 0.25837 0.34672 0.15594 0.0
C1669 C 0.24365 0.35346 0.11616 0.0
C1670 C 0.23038 0.36657 0.14054 0.0
C1671 C 0.23193 0.3731 0.20455 0.0
H1672 H 0.24255 0.34856 0.06639 0.0
H1673 H 0.25791 0.42091 0.67591 0.0
H1674 H 0.39536 0.83149 0.54294 0.0
H1675 H 0.39543 0.80278 0.61207 0.0
H1676 H 0.37134 0.76989 0.45489 0.0
H1677 H 0.37182 0.79824 0.3852 0.0
H1678 H 0.35473 0.76402 0.59009 0.0
H1679 H 0.41308 0.76356 0.46355 0.0
H1680 H 0.44272 0.77782 0.42022 0.0
H1681 H 0.46365 0.78606 0.61446 0.0
H1682 H 0.43394 0.77212 0.65896 0.0
H1683 H 0.37563 0.66959 0.7026 0.0
H1684 H 0.37358 0.69759 0.63077 0.0
H1685 H 0.40707 0.73034 0.76715 0.0
H1686 H 0.40909 0.70264 0.83883 0.0
H1687 H 0.41837 0.73608 0.64013 0.0
H1688 H 0.36081 0.73562 0.76752 0.0
H1689 H 0.33135 0.72132 0.81212 0.0
H1690 H 0.30876 0.71511 0.61921 0.0
H1691 H 0.33827 0.72905 0.57333 0.0
C1692 C 0.38989 0.81817 0.5236 0.0
C1693 C 0.38374 0.81696 0.4588 0.0
C1694 C 0.38994 0.80184 0.56293 0.0
C1695 C 0.3834 0.7843 0.53827 0.0
C1696 C 0.37638 0.78333 0.47464 0.0
C1697 C 0.37678 0.79948 0.43492 0.0
C1698 C 0.38519 0.76665 0.57704 0.0
C1699 C 0.3686 0.75776 0.60059 0.0
C1700 C 0.40331 0.75871 0.59108 0.0
C1701 C 0.42119 0.76705 0.56457 0.0
C1702 C 0.42391 0.76861 0.49702 0.0
C1703 C 0.44074 0.77659 0.47225 0.0
C1704 C 0.45503 0.7829 0.51457 0.0
C1705 C 0.45254 0.7812 0.58175 0.0
C1706 C 0.43571 0.77326 0.60677 0.0
C1707 C 0.38272 0.68271 0.71672 0.0
C1708 C 0.39245 0.68399 0.77629 0.0
C1709 C 0.38146 0.69868 0.67595 0.0
C1710 C 0.39005 0.71604 0.69408 0.0
C1711 C 0.40034 0.71708 0.75238 0.0
C1712 C 0.40142 0.70126 0.79332 0.0
C1713 C 0.3879 0.73338 0.65363 0.0
C1714 C 0.40446 0.74226 0.62967 0.0
C1715 C 0.36973 0.7413 0.6395 0.0
C1716 C 0.35185 0.73316 0.66693 0.0
C1717 C 0.34964 0.73105 0.73455 0.0
C1718 C 0.33292 0.72303 0.76008 0.0
C1719 C 0.31822 0.71725 0.71851 0.0
C1720 C 0.32018 0.71955 0.65134 0.0
C1721 C 0.3369 0.72751 0.62554 0.0
H1722 H 0.30529 0.71103 0.73837 0.0
H1723 H 0.46806 0.78906 0.4953 0.0
H1724 H 0.66879 0.6146 0.29765 0.0
H1725 H 0.69674 0.61653 0.3694 0.0
H1726 H 0.73337 0.6243 0.20245 0.0
H1727 H 0.70573 0.6219 0.13095 0.0
H1728 H 0.74766 0.59799 0.27558 0.0
H1729 H 0.72637 0.66231 0.31539 0.0
H1730 H 0.70407 0.68826 0.34448 0.0
H1731 H 0.69258 0.66115 0.52768 0.0
H1732 H 0.71522 0.63526 0.50028 0.0
H1733 H 0.83229 0.61827 0.45996 0.0
H1734 H 0.80498 0.6215 0.3857 0.0
H1735 H 0.76633 0.60776 0.54249 0.0
H1736 H 0.79333 0.60462 0.61657 0.0
H1737 H 0.75388 0.6384 0.47245 0.0
H1738 H 0.77761 0.5746 0.4298 0.0
H1739 H 0.80221 0.55094 0.39959 0.0
H1740 H 0.80994 0.57879 0.21538 0.0
H1741 H 0.78554 0.60278 0.24488 0.0
C1742 C 0.68279 0.61691 0.27647 0.0
C1743 C 0.68509 0.61788 0.2087 0.0
C1744 C 0.69875 0.61814 0.31748 0.0
C1745 C 0.7172 0.62062 0.29135 0.0
C1746 C 0.71934 0.62227 0.22379 0.0
C1747 C 0.70349 0.62088 0.18295 0.0
C1748 C 0.73446 0.62006 0.33353 0.0
C1749 C 0.74912 0.60708 0.31802 0.0
C1750 C 0.73632 0.63162 0.38956 0.0
C1751 C 0.7223 0.64678 0.40552 0.0
C1752 C 0.71898 0.66183 0.36167 0.0
C1753 C 0.70635 0.67656 0.37798 0.0
C1754 C 0.69678 0.67627 0.43762 0.0
C1755 C 0.69997 0.66133 0.48141 0.0
C1756 C 0.71279 0.64669 0.46572 0.0
C1757 C 0.81797 0.61588 0.47842 0.0
C1758 C 0.81497 0.61111 0.54401 0.0
C1759 C 0.8024 0.61772 0.43602 0.0
C1760 C 0.78363 0.61478 0.45861 0.0
C1761 C 0.78067 0.61014 0.5241 0.0
C1762 C 0.79616 0.60826 0.56629 0.0
C1763 C 0.76697 0.61637 0.41435 0.0
C1764 C 0.75241 0.62945 0.42968 0.0
C1765 C 0.76532 0.60507 0.35768 0.0
C1766 C 0.7799 0.59059 0.33982 0.0
C1767 C 0.78466 0.57576 0.38306 0.0
C1768 C 0.79855 0.56228 0.36603 0.0
C1769 C 0.80768 0.56339 0.30568 0.0
C1770 C 0.80289 0.57796 0.26215 0.0
C1771 C 0.78902 0.5915 0.27897 0.0
H1772 H 0.81842 0.55294 0.29258 0.0
H1773 H 0.68693 0.68765 0.44997 0.0
H1774 H 0.62193 0.16591 0.56002 0.0
H1775 H 0.62639 0.19374 0.63103 0.0
H1776 H 0.61606 0.23134 0.46854 0.0
H1777 H 0.61168 0.20379 0.39761 0.0
H1778 H 0.64696 0.24282 0.54133 0.0
H1779 H 0.5813 0.22312 0.57731 0.0
H1780 H 0.55598 0.20012 0.60668 0.0
H1781 H 0.58128 0.1926 0.79517 0.0
H1782 H 0.60691 0.21538 0.76656 0.0
H1783 H 0.62268 0.33065 0.69883 0.0
H1784 H 0.62569 0.30175 0.63214 0.0
H1785 H 0.63063 0.26754 0.80593 0.0
H1786 H 0.62726 0.29613 0.8724 0.0
H1787 H 0.60434 0.25325 0.7309 0.0
H1788 H 0.66969 0.27165 0.69981 0.0
H1789 H 0.69685 0.29271 0.67286 0.0
H1790 H 0.67374 0.30197 0.48206 0.0
H1791 H 0.64659 0.28065 0.50752 0.0
C1792 C 0.62056 0.18011 0.53958 0.0
C1793 C 0.61634 0.18265 0.47336 0.0
C1794 C 0.62313 0.19598 0.58011 0.0
C1795 C 0.62148 0.21459 0.55499 0.0
C1796 C 0.61745 0.21711 0.48883 0.0
C1797 C 0.61483 0.20132 0.44848 0.0
C1798 C 0.6235 0.23155 0.59754 0.0
C1799 C 0.63755 0.24521 0.58251 0.0
C1800 C 0.61158 0.23438 0.65223 0.0
C1801 C 0.59612 0.22079 0.66955 0.0
C1802 C 0.58154 0.21645 0.62483 0.0
C1803 C 0.56713 0.20348 0.64138 0.0
C1804 C 0.56706 0.19487 0.70269 0.0
C1805 C 0.58137 0.19926 0.74766 0.0
C1806 C 0.59584 0.2122 0.73133 0.0
C1807 C 0.62466 0.31698 0.72265 0.0
C1808 C 0.62445 0.31562 0.79077 0.0
C1809 C 0.6265 0.30049 0.68455 0.0
C1810 C 0.62838 0.28244 0.71407 0.0
C1811 C 0.62907 0.28126 0.78207 0.0
C1812 C 0.62712 0.29765 0.81999 0.0
C1813 C 0.62779 0.26466 0.67477 0.0
C1814 C 0.61391 0.25085 0.69017 0.0
C1815 C 0.64002 0.2616 0.62097 0.0
C1816 C 0.65604 0.27472 0.60577 0.0
C1817 C 0.67035 0.27828 0.65225 0.0
C1818 C 0.68579 0.29017 0.63712 0.0
C1819 C 0.68696 0.29878 0.57595 0.0
C1820 C 0.67279 0.29533 0.52949 0.0
C1821 C 0.65744 0.28325 0.54408 0.0
H1822 H 0.69886 0.30809 0.56452 0.0
H1823 H 0.55588 0.18483 0.7154 0.0
loop_
_geom_bond_atom_site_label_1
_geom_bond_atom_site_label_2
_geom_bond_distance
_geom_bond_site_symmetry_2
_ccdc_geom_bond_type
Co0 O1 2.216 . S
Co0 O2 2.091 . S
Co0 O4 2.004 . S
Co0 O10 2.021 . S
Co0 O12 2.137 . S
Co0 O13 2.244 . S
O1 Co0 2.216 . S
O1 C8 1.247 . S
O2 Co0 2.091 . S
O2 C8 1.261 . S
C3 O12 1.247 . S
C3 O13 1.272 . S
O4 Co0 2.004 . S
O4 C9 1.259 . S
Co5 O6 2.061 . S
Co5 O11 2.052 . S
Co5 O13 2.135 . S
O6 Co5 2.061 . S
O6 C9 1.235 . S
C7 O10 1.238 . S
C7 O11 1.241 . S
C8 O1 1.247 . S
C8 O2 1.261 . S
C9 O4 1.259 . S
C9 O6 1.235 . S
O10 Co0 2.021 . S
O10 C7 1.238 . S
O11 Co5 2.052 . S
O11 C7 1.241 . S
O12 Co0 2.137 . S
O12 C3 1.247 . S
O13 Co0 2.244 . S
O13 C3 1.272 . S
O13 Co5 2.135 . S
Co14 O15 2.216 . S
Co14 O16 2.091 . S
Co14 O18 2.004 . S
Co14 O24 2.021 . S
Co14 O26 2.137 . S
Co14 O27 2.244 . S
O15 Co14 2.216 . S
O15 C22 1.247 . S
O16 Co14 2.091 . S
O16 C22 1.261 . S
C17 O26 1.247 . S
C17 O27 1.272 . S
O18 Co14 2.004 . S
O18 C23 1.259 . S
Co19 O20 2.061 . S
Co19 O25 2.052 . S
Co19 O27 2.135 . S
O20 Co19 2.061 . S
O20 C23 1.235 . S
C21 O24 1.238 . S
C21 O25 1.241 . S
C22 O15 1.247 . S
C22 O16 1.261 . S
C23 O18 1.259 . S
C23 O20 1.235 . S
O24 Co14 2.021 . S
O24 C21 1.238 . S
O25 Co19 2.052 . S
O25 C21 1.241 . S
O26 Co14 2.137 . S
O26 C17 1.247 . S
O27 Co14 2.244 . S
O27 C17 1.272 . S
O27 Co19 2.135 . S
Co28 O29 2.216 . S
Co28 O30 2.091 . S
Co28 O32 2.004 . S
Co28 O38 2.021 . S
Co28 O40 2.137 . S
Co28 O41 2.244 . S
O29 Co28 2.216 . S
O29 C36 1.247 . S
O30 Co28 2.091 . S
O30 C36 1.261 . S
C31 O40 1.247 . S
C31 O41 1.272 . S
O32 Co28 2.004 . S
O32 C37 1.259 . S
Co33 O34 2.061 . S
Co33 O39 2.052 . S
Co33 O41 2.135 . S
O34 Co33 2.061 . S
O34 C37 1.235 . S
C35 O38 1.238 . S
C35 O39 1.241 . S
C36 O29 1.247 . S
C36 O30 1.261 . S
C37 O32 1.259 . S
C37 O34 1.235 . S
O38 Co28 2.021 . S
O38 C35 1.238 . S
O39 Co33 2.052 . S
O39 C35 1.241 . S
O40 Co28 2.137 . S
O40 C31 1.247 . S
O41 Co28 2.244 . S
O41 C31 1.272 . S
O41 Co33 2.135 . S
Co42 O43 2.216 . S
Co42 O44 2.091 . S
Co42 O46 2.004 . S
Co42 O52 2.021 . S
Co42 O54 2.137 . S
Co42 O55 2.244 . S
O43 Co42 2.216 . S
O43 C50 1.247 . S
O44 Co42 2.091 . S
O44 C50 1.261 . S
C45 O54 1.247 . S
C45 O55 1.272 . S
O46 Co42 2.004 . S
O46 C51 1.259 . S
Co47 O48 2.061 . S
Co47 O53 2.052 . S
Co47 O55 2.135 . S
O48 Co47 2.061 . S
O48 C51 1.235 . S
C49 O52 1.238 . S
C49 O53 1.241 . S
C50 O43 1.247 . S
C50 O44 1.261 . S
C51 O46 1.259 . S
C51 O48 1.235 . S
O52 Co42 2.021 . S
O52 C49 1.238 . S
O53 Co47 2.052 . S
O53 C49 1.241 . S
O54 Co42 2.137 . S
O54 C45 1.247 . S
O55 Co42 2.244 . S
O55 C45 1.272 . S
O55 Co47 2.135 . S
Co56 O57 2.216 . S
Co56 O58 2.091 . S
Co56 O60 2.004 . S
Co56 O66 2.021 . S
Co56 O68 2.137 . S
Co56 O69 2.244 . S
O57 Co56 2.216 . S
O57 C64 1.247 . S
O58 Co56 2.091 . S
O58 C64 1.261 . S
C59 O68 1.247 . S
C59 O69 1.272 . S
O60 Co56 2.004 . S
O60 C65 1.259 . S
Co61 O62 2.061 1_556 S
Co61 O67 2.052 . S
Co61 O69 2.135 1_556 S
O62 Co61 2.061 1_554 S
O62 C65 1.235 . S
C63 O66 1.238 . S
C63 O67 1.241 1_554 S
C64 O57 1.247 . S
C64 O58 1.261 . S
C65 O60 1.259 . S
C65 O62 1.235 . S
O66 Co56 2.021 . S
O66 C63 1.238 . S
O67 Co61 2.052 . S
O67 C63 1.241 1_556 S
O68 Co56 2.137 . S
O68 C59 1.247 . S
O69 Co56 2.244 . S
O69 C59 1.272 . S
O69 Co61 2.135 1_554 S
Co70 O71 2.216 . S
Co70 O72 2.091 . S
Co70 O74 2.004 . S
Co70 O80 2.021 . S
Co70 O82 2.137 . S
Co70 O83 2.244 . S
O71 Co70 2.216 . S
O71 C78 1.247 . S
O72 Co70 2.091 . S
O72 C78 1.261 . S
C73 O82 1.247 . S
C73 O83 1.272 . S
O74 Co70 2.004 . S
O74 C79 1.259 . S
Co75 O76 2.061 1_554 S
Co75 O81 2.052 . S
Co75 O83 2.135 1_554 S
O76 Co75 2.061 1_556 S
O76 C79 1.235 . S
C77 O80 1.238 . S
C77 O81 1.241 1_556 S
C78 O71 1.247 . S
C78 O72 1.261 . S
C79 O74 1.259 . S
C79 O76 1.235 . S
O80 Co70 2.021 . S
O80 C77 1.238 . S
O81 Co75 2.052 . S
O81 C77 1.241 1_554 S
O82 Co70 2.137 . S
O82 C73 1.247 . S
O83 Co70 2.244 . S
O83 C73 1.272 . S
O83 Co75 2.135 1_556 S
Co84 O85 2.216 . S
Co84 O86 2.091 . S
Co84 O88 2.004 . S
Co84 O94 2.021 . S
Co84 O96 2.137 . S
Co84 O97 2.244 . S
O85 Co84 2.216 . S
O85 C92 1.247 . S
O86 Co84 2.091 . S
O86 C92 1.261 . S
C87 O96 1.247 . S
C87 O97 1.272 . S
O88 Co84 2.004 . S
O88 C93 1.259 . S
Co89 O90 2.061 1_556 S
Co89 O95 2.052 . S
Co89 O97 2.135 1_556 S
O90 Co89 2.061 1_554 S
O90 C93 1.235 . S
C91 O94 1.238 . S
C91 O95 1.241 1_554 S
C92 O85 1.247 . S
C92 O86 1.261 . S
C93 O88 1.259 . S
C93 O90 1.235 . S
O94 Co84 2.021 . S
O94 C91 1.238 . S
O95 Co89 2.052 . S
O95 C91 1.241 1_556 S
O96 Co84 2.137 . S
O96 C87 1.247 . S
O97 Co84 2.244 . S
O97 C87 1.272 . S
O97 Co89 2.135 1_554 S
Co98 O99 2.216 . S
Co98 O100 2.091 . S
Co98 O102 2.004 . S
Co98 O108 2.021 . S
Co98 O110 2.137 . S
Co98 O111 2.244 . S
O99 Co98 2.216 . S
O99 C106 1.247 . S
O100 Co98 2.091 . S
O100 C106 1.261 . S
C101 O110 1.247 . S
C101 O111 1.272 . S
O102 Co98 2.004 . S
O102 C107 1.259 . S
Co103 O104 2.061 1_554 S
Co103 O109 2.052 . S
Co103 O111 2.135 1_554 S
O104 Co103 2.061 1_556 S
O104 C107 1.235 . S
C105 O108 1.238 . S
C105 O109 1.241 1_556 S
C106 O99 1.247 . S
C106 O100 1.261 . S
C107 O102 1.259 . S
C107 O104 1.235 . S
O108 Co98 2.021 . S
O108 C105 1.238 . S
O109 Co103 2.052 . S
O109 C105 1.241 1_554 S
O110 Co98 2.137 . S
O110 C101 1.247 . S
O111 Co98 2.244 . S
O111 C101 1.272 . S
O111 Co103 2.135 1_556 S
Co112 O113 2.216 . S
Co112 O114 2.091 . S
Co112 O116 2.004 . S
Co112 O122 2.021 . S
Co112 O124 2.137 . S
Co112 O125 2.244 . S
O113 Co112 2.216 . S
O113 C120 1.247 . S
O114 Co112 2.091 . S
O114 C120 1.261 . S
C115 O124 1.247 . S
C115 O125 1.272 . S
O116 Co112 2.004 . S
O116 C121 1.259 . S
Co117 O118 2.061 . S
Co117 O123 2.052 . S
Co117 O125 2.135 . S
O118 Co117 2.061 . S
O118 C121 1.235 . S
C119 O122 1.238 . S
C119 O123 1.241 . S
C120 O113 1.247 . S
C120 O114 1.261 . S
C121 O116 1.259 . S
C121 O118 1.235 . S
O122 Co112 2.021 . S
O122 C119 1.238 . S
O123 Co117 2.052 . S
O123 C119 1.241 . S
O124 Co112 2.137 . S
O124 C115 1.247 . S
O125 Co112 2.244 . S
O125 C115 1.272 . S
O125 Co117 2.135 . S
Co126 O127 2.216 . S
Co126 O128 2.091 . S
Co126 O130 2.004 . S
Co126 O136 2.021 . S
Co126 O138 2.137 . S
Co126 O139 2.244 . S
O127 Co126 2.216 . S
O127 C134 1.247 . S
O128 Co126 2.091 . S
O128 C134 1.261 . S
C129 O138 1.247 . S
C129 O139 1.272 . S
O130 Co126 2.004 . S
O130 C135 1.259 . S
Co131 O132 2.061 . S
Co131 O137 2.052 . S
Co131 O139 2.135 . S
O132 Co131 2.061 . S
O132 C135 1.235 . S
C133 O136 1.238 . S
C133 O137 1.241 . S
C134 O127 1.247 . S
C134 O128 1.261 . S
C135 O130 1.259 . S
C135 O132 1.235 . S
O136 Co126 2.021 . S
O136 C133 1.238 . S
O137 Co131 2.052 . S
O137 C133 1.241 . S
O138 Co126 2.137 . S
O138 C129 1.247 . S
O139 Co126 2.244 . S
O139 C129 1.272 . S
O139 Co131 2.135 . S
Co140 O141 2.216 . S
Co140 O142 2.091 . S
Co140 O144 2.004 . S
Co140 O150 2.021 . S
Co140 O152 2.137 . S
Co140 O153 2.244 . S
O141 Co140 2.216 . S
O141 C148 1.247 . S
O142 Co140 2.091 . S
O142 C148 1.261 . S
C143 O152 1.247 . S
C143 O153 1.272 . S
O144 Co140 2.004 . S
O144 C149 1.259 . S
Co145 O146 2.061 . S
Co145 O151 2.052 . S
Co145 O153 2.135 . S
O146 Co145 2.061 . S
O146 C149 1.235 . S
C147 O150 1.238 . S
C147 O151 1.241 . S
C148 O141 1.247 . S
C148 O142 1.261 . S
C149 O144 1.259 . S
C149 O146 1.235 . S
O150 Co140 2.021 . S
O150 C147 1.238 . S
O151 Co145 2.052 . S
O151 C147 1.241 . S
O152 Co140 2.137 . S
O152 C143 1.247 . S
O153 Co140 2.244 . S
O153 C143 1.272 . S
O153 Co145 2.135 . S
Co154 O155 2.216 . S
Co154 O156 2.091 . S
Co154 O158 2.004 . S
Co154 O164 2.021 . S
Co154 O166 2.137 . S
Co154 O167 2.244 . S
O155 Co154 2.216 . S
O155 C162 1.247 . S
O156 Co154 2.091 . S
O156 C162 1.261 . S
C157 O166 1.247 . S
C157 O167 1.272 . S
O158 Co154 2.004 . S
O158 C163 1.259 . S
Co159 O160 2.061 . S
Co159 O165 2.052 . S
Co159 O167 2.135 . S
O160 Co159 2.061 . S
O160 C163 1.235 . S
C161 O164 1.238 . S
C161 O165 1.241 . S
C162 O155 1.247 . S
C162 O156 1.261 . S
C163 O158 1.259 . S
C163 O160 1.235 . S
O164 Co154 2.021 . S
O164 C161 1.238 . S
O165 Co159 2.052 . S
O165 C161 1.241 . S
O166 Co154 2.137 . S
O166 C157 1.247 . S
O167 Co154 2.244 . S
O167 C157 1.272 . S
O167 Co159 2.135 . S
Co168 O169 2.216 . S
Co168 O170 2.091 . S
Co168 O172 2.004 . S
Co168 O178 2.021 . S
Co168 O180 2.137 . S
Co168 O181 2.244 . S
O169 Co168 2.216 . S
O169 C176 1.247 . S
O170 Co168 2.091 . S
O170 C176 1.261 . S
C171 O180 1.247 . S
C171 O181 1.272 . S
O172 Co168 2.004 . S
O172 C177 1.259 . S
Co173 O174 2.061 . S
Co173 O179 2.052 . S
Co173 O181 2.135 . S
O174 Co173 2.061 . S
O174 C177 1.235 . S
C175 O178 1.238 . S
C175 O179 1.241 . S
C176 O169 1.247 . S
C176 O170 1.261 . S
C177 O172 1.259 . S
C177 O174 1.235 . S
O178 Co168 2.021 . S
O178 C175 1.238 . S
O179 Co173 2.052 . S
O179 C175 1.241 . S
O180 Co168 2.137 . S
O180 C171 1.247 . S
O181 Co168 2.244 . S
O181 C171 1.272 . S
O181 Co173 2.135 . S
Co182 O183 2.216 . S
Co182 O184 2.091 . S
Co182 O186 2.004 . S
Co182 O192 2.021 . S
Co182 O194 2.137 . S
Co182 O195 2.244 . S
O183 Co182 2.216 . S
O183 C190 1.247 . S
O184 Co182 2.091 . S
O184 C190 1.261 . S
C185 O194 1.247 . S
C185 O195 1.272 . S
O186 Co182 2.004 . S
O186 C191 1.259 . S
Co187 O188 2.061 . S
Co187 O193 2.052 . S
Co187 O195 2.135 . S
O188 Co187 2.061 . S
O188 C191 1.235 . S
C189 O192 1.238 . S
C189 O193 1.241 . S
C190 O183 1.247 . S
C190 O184 1.261 . S
C191 O186 1.259 . S
C191 O188 1.235 . S
O192 Co182 2.021 . S
O192 C189 1.238 . S
O193 Co187 2.052 . S
O193 C189 1.241 . S
O194 Co182 2.137 . S
O194 C185 1.247 . S
O195 Co182 2.244 . S
O195 C185 1.272 . S
O195 Co187 2.135 . S
Co196 O197 2.216 . S
Co196 O198 2.091 . S
Co196 O200 2.004 . S
Co196 O206 2.021 . S
Co196 O208 2.137 . S
Co196 O209 2.244 . S
O197 Co196 2.216 . S
O197 C204 1.247 . S
O198 Co196 2.091 . S
O198 C204 1.261 . S
C199 O208 1.247 . S
C199 O209 1.272 . S
O200 Co196 2.004 . S
O200 C205 1.259 . S
Co201 O202 2.061 . S
Co201 O207 2.052 . S
Co201 O209 2.135 . S
O202 Co201 2.061 . S
O202 C205 1.235 . S
C203 O206 1.238 . S
C203 O207 1.241 . S
C204 O197 1.247 . S
C204 O198 1.261 . S
C205 O200 1.259 . S
C205 O202 1.235 . S
O206 Co196 2.021 . S
O206 C203 1.238 . S
O207 Co201 2.052 . S
O207 C203 1.241 . S
O208 Co196 2.137 . S
O208 C199 1.247 . S
O209 Co196 2.244 . S
O209 C199 1.272 . S
O209 Co201 2.135 . S
Co210 O211 2.216 . S
Co210 O212 2.091 . S
Co210 O214 2.004 . S
Co210 O220 2.021 . S
Co210 O222 2.137 . S
Co210 O223 2.244 . S
O211 Co210 2.216 . S
O211 C218 1.247 . S
O212 Co210 2.091 . S
O212 C218 1.261 . S
C213 O222 1.247 . S
C213 O223 1.272 . S
O214 Co210 2.004 . S
O214 C219 1.259 . S
Co215 O216 2.061 . S
Co215 O221 2.052 . S
Co215 O223 2.135 . S
O216 Co215 2.061 . S
O216 C219 1.235 . S
C217 O220 1.238 . S
C217 O221 1.241 . S
C218 O211 1.247 . S
C218 O212 1.261 . S
C219 O214 1.259 . S
C219 O216 1.235 . S
O220 Co210 2.021 . S
O220 C217 1.238 . S
O221 Co215 2.052 . S
O221 C217 1.241 . S
O222 Co210 2.137 . S
O222 C213 1.247 . S
O223 Co210 2.244 . S
O223 C213 1.272 . S
O223 Co215 2.135 . S
H224 C242 0.951 . S
H225 C244 0.951 . S
H226 C246 0.950 . S
H227 C247 0.950 . S
H228 C249 0.950 . S
H229 C252 0.950 . S
H230 C253 0.950 . S
H231 C255 0.950 . S
H232 C256 0.950 . S
H233 C257 0.951 . S
H234 C259 0.951 . S
H235 C261 0.950 . S
H236 C262 0.950 . S
H237 C264 0.950 . S
H238 C267 0.950 . S
H239 C268 0.950 . S
H240 C270 0.950 . S
H241 C271 0.950 . S
C242 H224 0.951 . S
C242 C243 1.366 . S
C242 C244 1.388 . S
C243 C242 1.366 . S
C243 C247 1.385 . S
C244 H225 0.951 . S
C244 C242 1.388 . S
C244 C245 1.366 . S
C245 C244 1.366 . S
C245 C246 1.414 . S
C245 C248 1.499 . S
C246 H226 0.950 . S
C246 C245 1.414 . S
C246 C247 1.374 . S
C247 H227 0.950 . S
C247 C243 1.385 . S
C247 C246 1.374 . S
C248 C245 1.499 . S
C248 C249 1.373 . S
C248 C250 1.389 . S
C249 H228 0.950 . S
C249 C248 1.373 . S
C249 C265 1.377 1_565 S
C250 C248 1.389 . S
C250 C251 1.524 . S
C250 C264 1.377 1_565 S
C251 C250 1.524 . S
C251 C252 1.397 . S
C251 C256 1.363 . S
C252 H229 0.950 . S
C252 C251 1.397 . S
C252 C253 1.334 . S
C253 H230 0.950 . S
C253 C252 1.334 . S
C253 C254 1.287 . S
C254 C253 1.287 . S
C254 C255 1.524 . S
C254 H273 0.913 . S
C255 H231 0.950 . S
C255 C254 1.524 . S
C255 C256 1.415 . S
C256 H232 0.950 . S
C256 C251 1.363 . S
C256 C255 1.415 . S
C257 H233 0.951 . S
C257 C258 1.366 . S
C257 C259 1.388 . S
C258 C257 1.366 . S
C258 C262 1.385 . S
C259 H234 0.951 . S
C259 C257 1.388 . S
C259 C260 1.366 . S
C260 C259 1.366 . S
C260 C261 1.414 . S
C260 C263 1.499 . S
C261 H235 0.950 . S
C261 C260 1.414 . S
C261 C262 1.374 . S
C262 H236 0.950 . S
C262 C258 1.385 . S
C262 C261 1.374 . S
C263 C260 1.499 . S
C263 C264 1.373 . S
C263 C265 1.389 . S
C264 H237 0.950 . S
C264 C250 1.377 1_545 S
C264 C263 1.373 . S
C265 C249 1.377 1_545 S
C265 C263 1.389 . S
C265 C266 1.524 . S
C266 C265 1.524 . S
C266 C267 1.397 . S
C266 C271 1.363 . S
C267 H238 0.950 . S
C267 C266 1.397 . S
C267 C268 1.334 . S
C268 H239 0.950 . S
C268 C267 1.334 . S
C268 C269 1.287 . S
C269 C268 1.287 . S
C269 C270 1.524 . S
C269 H272 0.999 . S
C270 H240 0.950 . S
C270 C269 1.524 . S
C270 C271 1.415 . S
C271 H241 0.950 . S
C271 C266 1.363 . S
C271 C270 1.415 . S
H272 C269 0.999 . S
H273 C254 0.913 . S
H274 C292 0.951 . S
H275 C294 0.951 . S
H276 C296 0.950 . S
H277 C297 0.950 . S
H278 C299 0.950 . S
H279 C302 0.950 . S
H280 C303 0.950 . S
H281 C305 0.950 . S
H282 C306 0.950 . S
H283 C307 0.951 . S
H284 C309 0.951 . S
H285 C311 0.950 . S
H286 C312 0.950 . S
H287 C314 0.950 . S
H288 C317 0.950 . S
H289 C318 0.950 . S
H290 C320 0.950 . S
H291 C321 0.950 . S
C292 H274 0.951 . S
C292 C293 1.366 . S
C292 C294 1.388 . S
C293 C292 1.366 . S
C293 C297 1.385 . S
C294 H275 0.951 . S
C294 C292 1.388 . S
C294 C295 1.366 . S
C295 C294 1.366 . S
C295 C296 1.414 . S
C295 C298 1.499 . S
C296 H276 0.950 . S
C296 C295 1.414 . S
C296 C297 1.374 . S
C297 H277 0.950 . S
C297 C293 1.385 . S
C297 C296 1.374 . S
C298 C295 1.499 . S
C298 C299 1.373 . S
C298 C300 1.389 . S
C299 H278 0.950 . S
C299 C298 1.373 . S
C299 C315 1.377 1_455 S
C300 C298 1.389 . S
C300 C301 1.524 . S
C300 C314 1.377 1_455 S
C301 C300 1.524 . S
C301 C302 1.397 . S
C301 C306 1.363 . S
C302 H279 0.950 . S
C302 C301 1.397 . S
C302 C303 1.334 . S
C303 H280 0.950 . S
C303 C302 1.334 . S
C303 C304 1.287 . S
C304 C303 1.287 . S
C304 C305 1.524 . S
C304 H323 0.913 . S
C305 H281 0.950 . S
C305 C304 1.524 . S
C305 C306 1.415 . S
C306 H282 0.950 . S
C306 C301 1.363 . S
C306 C305 1.415 . S
C307 H283 0.951 . S
C307 C308 1.366 . S
C307 C309 1.388 . S
C308 C307 1.366 . S
C308 C312 1.385 . S
C309 H284 0.951 . S
C309 C307 1.388 . S
C309 C310 1.366 . S
C310 C309 1.366 . S
C310 C311 1.414 . S
C310 C313 1.499 . S
C311 H285 0.950 . S
C311 C310 1.414 . S
C311 C312 1.374 . S
C312 H286 0.950 . S
C312 C308 1.385 . S
C312 C311 1.374 . S
C313 C310 1.499 . S
C313 C314 1.373 . S
C313 C315 1.389 . S
C314 H287 0.950 . S
C314 C300 1.377 1_655 S
C314 C313 1.373 . S
C315 C299 1.377 1_655 S
C315 C313 1.389 . S
C315 C316 1.524 . S
C316 C315 1.524 . S
C316 C317 1.397 . S
C316 C321 1.363 . S
C317 H288 0.950 . S
C317 C316 1.397 . S
C317 C318 1.334 . S
C318 H289 0.950 . S
C318 C317 1.334 . S
C318 C319 1.287 . S
C319 C318 1.287 . S
C319 C320 1.524 . S
C319 H322 0.999 . S
C320 H290 0.950 . S
C320 C319 1.524 . S
C320 C321 1.415 . S
C321 H291 0.950 . S
C321 C316 1.363 . S
C321 C320 1.415 . S
H322 C319 0.999 . S
H323 C304 0.913 . S
H324 C342 0.951 . S
H325 C344 0.951 . S
H326 C346 0.950 . S
H327 C347 0.950 . S
H328 C349 0.950 . S
H329 C352 0.950 . S
H330 C353 0.950 . S
H331 C355 0.950 . S
H332 C356 0.950 . S
H333 C357 0.951 . S
H334 C359 0.951 . S
H335 C361 0.950 . S
H336 C362 0.950 . S
H337 C364 0.950 . S
H338 C367 0.950 . S
H339 C368 0.950 . S
H340 C370 0.950 . S
H341 C371 0.950 . S
C342 H324 0.951 . S
C342 C343 1.366 . S
C342 C344 1.388 . S
C343 C342 1.366 . S
C343 C347 1.385 . S
C344 H325 0.951 . S
C344 C342 1.388 . S
C344 C345 1.366 . S
C345 C344 1.366 . S
C345 C346 1.414 . S
C345 C348 1.499 . S
C346 H326 0.950 . S
C346 C345 1.414 . S
C346 C347 1.374 . S
C347 H327 0.950 . S
C347 C343 1.385 . S
C347 C346 1.374 . S
C348 C345 1.499 . S
C348 C349 1.373 . S
C348 C350 1.389 . S
C349 H328 0.950 . S
C349 C348 1.373 . S
C349 C365 1.377 1_565 S
C350 C348 1.389 . S
C350 C351 1.524 . S
C350 C364 1.377 1_565 S
C351 C350 1.524 . S
C351 C352 1.397 . S
C351 C356 1.363 . S
C352 H329 0.950 . S
C352 C351 1.397 . S
C352 C353 1.334 . S
C353 H330 0.950 . S
C353 C352 1.334 . S
C353 C354 1.287 . S
C354 C353 1.287 . S
C354 C355 1.524 . S
C354 H373 0.913 . S
C355 H331 0.950 . S
C355 C354 1.524 . S
C355 C356 1.415 . S
C356 H332 0.950 . S
C356 C351 1.363 . S
C356 C355 1.415 . S
C357 H333 0.951 . S
C357 C358 1.366 . S
C357 C359 1.388 . S
C358 C357 1.366 . S
C358 C362 1.385 . S
C359 H334 0.951 . S
C359 C357 1.388 . S
C359 C360 1.366 . S
C360 C359 1.366 . S
C360 C361 1.414 . S
C360 C363 1.499 . S
C361 H335 0.950 . S
C361 C360 1.414 . S
C361 C362 1.374 . S
C362 H336 0.950 . S
C362 C358 1.385 . S
C362 C361 1.374 . S
C363 C360 1.499 . S
C363 C364 1.373 . S
C363 C365 1.389 . S
C364 H337 0.950 . S
C364 C350 1.377 1_545 S
C364 C363 1.373 . S
C365 C349 1.377 1_545 S
C365 C363 1.389 . S
C365 C366 1.524 . S
C366 C365 1.524 . S
C366 C367 1.397 . S
C366 C371 1.363 . S
C367 H338 0.950 . S
C367 C366 1.397 . S
C367 C368 1.334 . S
C368 H339 0.950 . S
C368 C367 1.334 . S
C368 C369 1.287 . S
C369 C368 1.287 . S
C369 C370 1.524 . S
C369 H372 0.999 . S
C370 H340 0.950 . S
C370 C369 1.524 . S
C370 C371 1.415 . S
C371 H341 0.950 . S
C371 C366 1.363 . S
C371 C370 1.415 . S
H372 C369 0.999 . S
H373 C354 0.913 . S
H374 C392 0.951 . S
H375 C394 0.951 . S
H376 C396 0.950 . S
H377 C397 0.950 . S
H378 C399 0.950 . S
H379 C402 0.950 . S
H380 C403 0.950 . S
H381 C405 0.950 . S
H382 C406 0.950 . S
H383 C407 0.951 . S
H384 C409 0.951 . S
H385 C411 0.950 . S
H386 C412 0.950 . S
H387 C414 0.950 . S
H388 C417 0.950 . S
H389 C418 0.950 . S
H390 C420 0.950 . S
H391 C421 0.950 . S
C392 H374 0.951 . S
C392 C393 1.366 . S
C392 C394 1.388 . S
C393 C392 1.366 . S
C393 C397 1.385 . S
C394 H375 0.951 . S
C394 C392 1.388 . S
C394 C395 1.366 . S
C395 C394 1.366 . S
C395 C396 1.414 . S
C395 C398 1.499 . S
C396 H376 0.950 . S
C396 C395 1.414 . S
C396 C397 1.374 . S
C397 H377 0.950 . S
C397 C393 1.385 . S
C397 C396 1.374 . S
C398 C395 1.499 . S
C398 C399 1.373 . S
C398 C400 1.389 . S
C399 H378 0.950 . S
C399 C398 1.373 . S
C399 C415 1.377 1_455 S
C400 C398 1.389 . S
C400 C401 1.524 . S
C400 C414 1.377 1_455 S
C401 C400 1.524 . S
C401 C402 1.397 . S
C401 C406 1.363 . S
C402 H379 0.950 . S
C402 C401 1.397 . S
C402 C403 1.334 . S
C403 H380 0.950 . S
C403 C402 1.334 . S
C403 C404 1.287 . S
C404 C403 1.287 . S
C404 C405 1.524 . S
C404 H423 0.913 . S
C405 H381 0.950 . S
C405 C404 1.524 . S
C405 C406 1.415 . S
C406 H382 0.950 . S
C406 C401 1.363 . S
C406 C405 1.415 . S
C407 H383 0.951 . S
C407 C408 1.366 . S
C407 C409 1.388 . S
C408 C407 1.366 . S
C408 C412 1.385 . S
C409 H384 0.951 . S
C409 C407 1.388 . S
C409 C410 1.366 . S
C410 C409 1.366 . S
C410 C411 1.414 . S
C410 C413 1.499 . S
C411 H385 0.950 . S
C411 C410 1.414 . S
C411 C412 1.374 . S
C412 H386 0.950 . S
C412 C408 1.385 . S
C412 C411 1.374 . S
C413 C410 1.499 . S
C413 C414 1.373 . S
C413 C415 1.389 . S
C414 H387 0.950 . S
C414 C400 1.377 1_655 S
C414 C413 1.373 . S
C415 C399 1.377 1_655 S
C415 C413 1.389 . S
C415 C416 1.524 . S
C416 C415 1.524 . S
C416 C417 1.397 . S
C416 C421 1.363 . S
C417 H388 0.950 . S
C417 C416 1.397 . S
C417 C418 1.334 . S
C418 H389 0.950 . S
C418 C417 1.334 . S
C418 C419 1.287 . S
C419 C418 1.287 . S
C419 C420 1.524 . S
C419 H422 0.999 . S
C420 H390 0.950 . S
C420 C419 1.524 . S
C420 C421 1.415 . S
C421 H391 0.950 . S
C421 C416 1.363 . S
C421 C420 1.415 . S
H422 C419 0.999 . S
H423 C404 0.913 . S
H424 C442 0.951 . S
H425 C444 0.951 . S
H426 C446 0.950 . S
H427 C447 0.950 . S
H428 C449 0.950 . S
H429 C452 0.950 . S
H430 C453 0.950 . S
H431 C455 0.950 . S
H432 C456 0.950 1_556 S
H433 C457 0.951 . S
H434 C459 0.951 . S
H435 C461 0.950 . S
H436 C462 0.950 . S
H437 C464 0.950 . S
H438 C467 0.950 . S
H439 C468 0.950 . S
H440 C470 0.950 . S
H441 C471 0.950 . S
C442 H424 0.951 . S
C442 C443 1.366 1_556 S
C442 C444 1.388 . S
C443 C442 1.366 1_554 S
C443 C447 1.385 . S
C444 H425 0.951 . S
C444 C442 1.388 . S
C444 C445 1.366 . S
C445 C444 1.366 . S
C445 C446 1.414 1_556 S
C445 C448 1.499 . S
C446 H426 0.950 . S
C446 C445 1.414 1_554 S
C446 C447 1.374 . S
C447 H427 0.950 . S
C447 C443 1.385 . S
C447 C446 1.374 . S
C448 C445 1.499 . S
C448 C449 1.373 . S
C448 C450 1.389 . S
C449 H428 0.950 . S
C449 C448 1.373 . S
C449 C465 1.377 . S
C450 C448 1.389 . S
C450 C451 1.524 1_556 S
C450 C464 1.377 . S
C451 C450 1.524 1_554 S
C451 C452 1.397 . S
C451 C456 1.363 . S
C452 H429 0.950 . S
C452 C451 1.397 . S
C452 C453 1.334 . S
C453 H430 0.950 . S
C453 C452 1.334 . S
C453 C454 1.287 . S
C454 C453 1.287 . S
C454 C455 1.524 . S
C454 H473 0.913 . S
C455 H431 0.950 . S
C455 C454 1.524 . S
C455 C456 1.415 . S
C456 H432 0.950 1_554 S
C456 C451 1.363 . S
C456 C455 1.415 . S
C457 H433 0.951 . S
C457 C458 1.366 . S
C457 C459 1.388 . S
C458 C457 1.366 . S
C458 C462 1.385 . S
C459 H434 0.951 . S
C459 C457 1.388 . S
C459 C460 1.366 . S
C460 C459 1.366 . S
C460 C461 1.414 . S
C460 C463 1.499 . S
C461 H435 0.950 . S
C461 C460 1.414 . S
C461 C462 1.374 . S
C462 H436 0.950 . S
C462 C458 1.385 . S
C462 C461 1.374 . S
C463 C460 1.499 . S
C463 C464 1.373 . S
C463 C465 1.389 . S
C464 H437 0.950 . S
C464 C450 1.377 . S
C464 C463 1.373 . S
C465 C449 1.377 . S
C465 C463 1.389 . S
C465 C466 1.524 . S
C466 C465 1.524 . S
C466 C467 1.397 . S
C466 C471 1.363 . S
C467 H438 0.950 . S
C467 C466 1.397 . S
C467 C468 1.334 . S
C468 H439 0.950 . S
C468 C467 1.334 . S
C468 C469 1.287 . S
C469 C468 1.287 . S
C469 C470 1.524 . S
C469 H472 0.999 . S
C470 H440 0.950 . S
C470 C469 1.524 . S
C470 C471 1.415 . S
C471 H441 0.950 . S
C471 C466 1.363 . S
C471 C470 1.415 . S
H472 C469 0.999 . S
H473 C454 0.913 . S
H474 C492 0.951 . S
H475 C494 0.951 . S
H476 C496 0.950 . S
H477 C497 0.950 . S
H478 C499 0.950 . S
H479 C502 0.950 . S
H480 C503 0.950 . S
H481 C505 0.950 . S
H482 C506 0.950 . S
H483 C507 0.951 . S
H484 C509 0.951 . S
H485 C511 0.950 1_556 S
H486 C512 0.950 . S
H487 C514 0.950 . S
H488 C517 0.950 . S
H489 C518 0.950 . S
H490 C520 0.950 . S
H491 C521 0.950 . S
C492 H474 0.951 . S
C492 C493 1.366 . S
C492 C494 1.388 . S
C493 C492 1.366 . S
C493 C497 1.385 1_556 S
C494 H475 0.951 . S
C494 C492 1.388 . S
C494 C495 1.366 1_556 S
C495 C494 1.366 1_554 S
C495 C496 1.414 . S
C495 C498 1.499 . S
C496 H476 0.950 . S
C496 C495 1.414 . S
C496 C497 1.374 . S
C497 H477 0.950 . S
C497 C493 1.385 1_554 S
C497 C496 1.374 . S
C498 C495 1.499 . S
C498 C499 1.373 . S
C498 C500 1.389 1_554 S
C499 H478 0.950 . S
C499 C498 1.373 . S
C499 C515 1.377 . S
C500 C498 1.389 1_556 S
C500 C501 1.524 . S
C500 C514 1.377 . S
C501 C500 1.524 . S
C501 C502 1.397 . S
C501 C506 1.363 . S
C502 H479 0.950 . S
C502 C501 1.397 . S
C502 C503 1.334 . S
C503 H480 0.950 . S
C503 C502 1.334 . S
C503 C504 1.287 . S
C504 C503 1.287 . S
C504 C505 1.524 . S
C504 H523 0.913 . S
C505 H481 0.950 . S
C505 C504 1.524 . S
C505 C506 1.415 . S
C506 H482 0.950 . S
C506 C501 1.363 . S
C506 C505 1.415 . S
C507 H483 0.951 . S
C507 C508 1.366 . S
C507 C509 1.388 . S
C508 C507 1.366 . S
C508 C512 1.385 . S
C509 H484 0.951 . S
C509 C507 1.388 . S
C509 C510 1.366 . S
C510 C509 1.366 . S
C510 C511 1.414 . S
C510 C513 1.499 . S
C511 H485 0.950 1_554 S
C511 C510 1.414 . S
C511 C512 1.374 . S
C512 H486 0.950 . S
C512 C508 1.385 . S
C512 C511 1.374 . S
C513 C510 1.499 . S
C513 C514 1.373 1_554 S
C513 C515 1.389 . S
C514 H487 0.950 . S
C514 C500 1.377 . S
C514 C513 1.373 1_556 S
C515 C499 1.377 . S
C515 C513 1.389 . S
C515 C516 1.524 . S
C516 C515 1.524 . S
C516 C517 1.397 . S
C516 C521 1.363 . S
C517 H488 0.950 . S
C517 C516 1.397 . S
C517 C518 1.334 . S
C518 H489 0.950 . S
C518 C517 1.334 . S
C518 C519 1.287 . S
C519 C518 1.287 . S
C519 C520 1.524 . S
C519 H522 0.999 . S
C520 H490 0.950 . S
C520 C519 1.524 . S
C520 C521 1.415 . S
C521 H491 0.950 . S
C521 C516 1.363 . S
C521 C520 1.415 . S
H522 C519 0.999 . S
H523 C504 0.913 . S
H524 C542 0.951 . S
H525 C544 0.951 . S
H526 C546 0.950 . S
H527 C547 0.950 . S
H528 C549 0.950 . S
H529 C552 0.950 . S
H530 C553 0.950 . S
H531 C555 0.950 . S
H532 C556 0.950 . S
H533 C557 0.951 . S
H534 C559 0.951 . S
H535 C561 0.950 . S
H536 C562 0.950 . S
H537 C564 0.950 . S
H538 C567 0.950 . S
H539 C568 0.950 . S
H540 C570 0.950 . S
H541 C571 0.950 1_556 S
C542 H524 0.951 . S
C542 C543 1.366 . S
C542 C544 1.388 . S
C543 C542 1.366 . S
C543 C547 1.385 . S
C544 H525 0.951 . S
C544 C542 1.388 . S
C544 C545 1.366 . S
C545 C544 1.366 . S
C545 C546 1.414 . S
C545 C548 1.499 . S
C546 H526 0.950 . S
C546 C545 1.414 . S
C546 C547 1.374 . S
C547 H527 0.950 . S
C547 C543 1.385 . S
C547 C546 1.374 . S
C548 C545 1.499 . S
C548 C549 1.373 . S
C548 C550 1.389 . S
C549 H528 0.950 . S
C549 C548 1.373 . S
C549 C565 1.377 . S
C550 C548 1.389 . S
C550 C551 1.524 . S
C550 C564 1.377 . S
C551 C550 1.524 . S
C551 C552 1.397 . S
C551 C556 1.363 . S
C552 H529 0.950 . S
C552 C551 1.397 . S
C552 C553 1.334 . S
C553 H530 0.950 . S
C553 C552 1.334 . S
C553 C554 1.287 . S
C554 C553 1.287 . S
C554 C555 1.524 . S
C554 H573 0.913 . S
C555 H531 0.950 . S
C555 C554 1.524 . S
C555 C556 1.415 . S
C556 H532 0.950 . S
C556 C551 1.363 . S
C556 C555 1.415 . S
C557 H533 0.951 . S
C557 C558 1.366 1_556 S
C557 C559 1.388 . S
C558 C557 1.366 1_554 S
C558 C562 1.385 . S
C559 H534 0.951 . S
C559 C557 1.388 . S
C559 C560 1.366 . S
C560 C559 1.366 . S
C560 C561 1.414 1_556 S
C560 C563 1.499 . S
C561 H535 0.950 . S
C561 C560 1.414 1_554 S
C561 C562 1.374 . S
C562 H536 0.950 . S
C562 C558 1.385 . S
C562 C561 1.374 . S
C563 C560 1.499 . S
C563 C564 1.373 . S
C563 C565 1.389 . S
C564 H537 0.950 . S
C564 C550 1.377 . S
C564 C563 1.373 . S
C565 C549 1.377 . S
C565 C563 1.389 . S
C565 C566 1.524 1_556 S
C566 C565 1.524 1_554 S
C566 C567 1.397 . S
C566 C571 1.363 . S
C567 H538 0.950 . S
C567 C566 1.397 . S
C567 C568 1.334 . S
C568 H539 0.950 . S
C568 C567 1.334 . S
C568 C569 1.287 . S
C569 C568 1.287 . S
C569 C570 1.524 . S
C569 H572 0.999 . S
C570 H540 0.950 . S
C570 C569 1.524 . S
C570 C571 1.415 . S
C571 H541 0.950 1_554 S
C571 C566 1.363 . S
C571 C570 1.415 . S
H572 C569 0.999 . S
H573 C554 0.913 . S
H574 C592 0.951 . S
H575 C594 0.951 . S
H576 C596 0.950 1_556 S
H577 C597 0.950 . S
H578 C599 0.950 . S
H579 C602 0.950 . S
H580 C603 0.950 . S
H581 C605 0.950 . S
H582 C606 0.950 . S
H583 C607 0.951 . S
H584 C609 0.951 . S
H585 C611 0.950 . S
H586 C612 0.950 . S
H587 C614 0.950 . S
H588 C617 0.950 . S
H589 C618 0.950 . S
H590 C620 0.950 . S
H591 C621 0.950 . S
C592 H574 0.951 . S
C592 C593 1.366 . S
C592 C594 1.388 . S
C593 C592 1.366 . S
C593 C597 1.385 . S
C594 H575 0.951 . S
C594 C592 1.388 . S
C594 C595 1.366 . S
C595 C594 1.366 . S
C595 C596 1.414 . S
C595 C598 1.499 . S
C596 H576 0.950 1_554 S
C596 C595 1.414 . S
C596 C597 1.374 . S
C597 H577 0.950 . S
C597 C593 1.385 . S
C597 C596 1.374 . S
C598 C595 1.499 . S
C598 C599 1.373 . S
C598 C600 1.389 . S
C599 H578 0.950 . S
C599 C598 1.373 . S
C599 C615 1.377 . S
C600 C598 1.389 . S
C600 C601 1.524 . S
C600 C614 1.377 . S
C601 C600 1.524 . S
C601 C602 1.397 . S
C601 C606 1.363 . S
C602 H579 0.950 . S
C602 C601 1.397 . S
C602 C603 1.334 . S
C603 H580 0.950 . S
C603 C602 1.334 . S
C603 C604 1.287 . S
C604 C603 1.287 . S
C604 C605 1.524 . S
C604 H623 0.913 . S
C605 H581 0.950 . S
C605 C604 1.524 . S
C605 C606 1.415 . S
C606 H582 0.950 . S
C606 C601 1.363 . S
C606 C605 1.415 . S
C607 H583 0.951 . S
C607 C608 1.366 . S
C607 C609 1.388 . S
C608 C607 1.366 . S
C608 C612 1.385 1_556 S
C609 H584 0.951 . S
C609 C607 1.388 . S
C609 C610 1.366 1_556 S
C610 C609 1.366 1_554 S
C610 C611 1.414 . S
C610 C613 1.499 . S
C611 H585 0.950 . S
C611 C610 1.414 . S
C611 C612 1.374 . S
C612 H586 0.950 . S
C612 C608 1.385 1_554 S
C612 C611 1.374 . S
C613 C610 1.499 . S
C613 C614 1.373 . S
C613 C615 1.389 . S
C614 H587 0.950 . S
C614 C600 1.377 . S
C614 C613 1.373 . S
C615 C599 1.377 . S
C615 C613 1.389 . S
C615 C616 1.524 1_554 S
C616 C615 1.524 1_556 S
C616 C617 1.397 1_556 S
C616 C621 1.363 . S
C617 H588 0.950 . S
C617 C616 1.397 1_554 S
C617 C618 1.334 . S
C618 H589 0.950 . S
C618 C617 1.334 . S
C618 C619 1.287 1_554 S
C619 C618 1.287 1_556 S
C619 C620 1.524 . S
C619 H622 0.999 . S
C620 H590 0.950 . S
C620 C619 1.524 . S
C620 C621 1.415 . S
C621 H591 0.950 . S
C621 C616 1.363 . S
C621 C620 1.415 . S
H622 C619 0.999 . S
H623 C604 0.913 . S
H624 C642 0.951 . S
H625 C644 0.951 . S
H626 C646 0.950 . S
H627 C647 0.950 . S
H628 C649 0.950 . S
H629 C652 0.950 . S
H630 C653 0.950 . S
H631 C655 0.950 . S
H632 C656 0.950 . S
H633 C657 0.951 . S
H634 C659 0.951 . S
H635 C661 0.950 . S
H636 C662 0.950 . S
H637 C664 0.950 . S
H638 C667 0.950 . S
H639 C668 0.950 . S
H640 C670 0.950 . S
H641 C671 0.950 . S
C642 H624 0.951 . S
C642 C643 1.366 . S
C642 C644 1.388 . S
C643 C642 1.366 . S
C643 C647 1.385 . S
C644 H625 0.951 . S
C644 C642 1.388 . S
C644 C645 1.366 . S
C645 C644 1.366 . S
C645 C646 1.414 . S
C645 C648 1.499 . S
C646 H626 0.950 . S
C646 C645 1.414 . S
C646 C647 1.374 . S
C647 H627 0.950 . S
C647 C643 1.385 . S
C647 C646 1.374 . S
C648 C645 1.499 . S
C648 C649 1.373 . S
C648 C650 1.389 . S
C649 H628 0.950 . S
C649 C648 1.373 . S
C649 C665 1.377 . S
C650 C648 1.389 . S
C650 C651 1.524 . S
C650 C664 1.377 . S
C651 C650 1.524 . S
C651 C652 1.397 . S
C651 C656 1.363 . S
C652 H629 0.950 . S
C652 C651 1.397 . S
C652 C653 1.334 . S
C653 H630 0.950 . S
C653 C652 1.334 . S
C653 C654 1.287 . S
C654 C653 1.287 . S
C654 C655 1.524 . S
C654 H673 0.913 . S
C655 H631 0.950 . S
C655 C654 1.524 . S
C655 C656 1.415 . S
C656 H632 0.950 . S
C656 C651 1.363 . S
C656 C655 1.415 . S
C657 H633 0.951 . S
C657 C658 1.366 . S
C657 C659 1.388 . S
C658 C657 1.366 . S
C658 C662 1.385 . S
C659 H634 0.951 . S
C659 C657 1.388 . S
C659 C660 1.366 . S
C660 C659 1.366 . S
C660 C661 1.414 . S
C660 C663 1.499 . S
C661 H635 0.950 . S
C661 C660 1.414 . S
C661 C662 1.374 . S
C662 H636 0.950 . S
C662 C658 1.385 . S
C662 C661 1.374 . S
C663 C660 1.499 . S
C663 C664 1.373 . S
C663 C665 1.389 . S
C664 H637 0.950 . S
C664 C650 1.377 . S
C664 C663 1.373 . S
C665 C649 1.377 . S
C665 C663 1.389 . S
C665 C666 1.524 . S
C666 C665 1.524 . S
C666 C667 1.397 . S
C666 C671 1.363 . S
C667 H638 0.950 . S
C667 C666 1.397 . S
C667 C668 1.334 . S
C668 H639 0.950 . S
C668 C667 1.334 . S
C668 C669 1.287 . S
C669 C668 1.287 . S
C669 C670 1.524 . S
C669 H672 0.999 . S
C670 H640 0.950 . S
C670 C669 1.524 . S
C670 C671 1.415 . S
C671 H641 0.950 . S
C671 C666 1.363 . S
C671 C670 1.415 . S
H672 C669 0.999 . S
H673 C654 0.913 . S
H674 C692 0.951 . S
H675 C694 0.951 . S
H676 C696 0.950 . S
H677 C697 0.950 . S
H678 C699 0.950 . S
H679 C702 0.950 . S
H680 C703 0.950 . S
H681 C705 0.950 1_556 S
H682 C706 0.950 . S
H683 C707 0.951 . S
H684 C709 0.951 . S
H685 C711 0.950 . S
H686 C712 0.950 . S
H687 C714 0.950 . S
H688 C717 0.950 . S
H689 C718 0.950 . S
H690 C720 0.950 . S
H691 C721 0.950 . S
C692 H674 0.951 . S
C692 C693 1.366 . S
C692 C694 1.388 . S
C693 C692 1.366 . S
C693 C697 1.385 . S
C694 H675 0.951 . S
C694 C692 1.388 . S
C694 C695 1.366 . S
C695 C694 1.366 . S
C695 C696 1.414 . S
C695 C698 1.499 . S
C696 H676 0.950 . S
C696 C695 1.414 . S
C696 C697 1.374 . S
C697 H677 0.950 . S
C697 C693 1.385 . S
C697 C696 1.374 . S
C698 C695 1.499 . S
C698 C699 1.373 . S
C698 C700 1.389 . S
C699 H678 0.950 . S
C699 C698 1.373 . S
C699 C715 1.377 . S
C700 C698 1.389 . S
C700 C701 1.524 . S
C700 C714 1.377 . S
C701 C700 1.524 . S
C701 C702 1.397 . S
C701 C706 1.363 . S
C702 H679 0.950 . S
C702 C701 1.397 . S
C702 C703 1.334 . S
C703 H680 0.950 . S
C703 C702 1.334 . S
C703 C704 1.287 . S
C704 C703 1.287 . S
C704 C705 1.524 . S
C704 H723 0.913 . S
C705 H681 0.950 1_554 S
C705 C704 1.524 . S
C705 C706 1.415 . S
C706 H682 0.950 . S
C706 C701 1.363 . S
C706 C705 1.415 . S
C707 H683 0.951 . S
C707 C708 1.366 . S
C707 C709 1.388 . S
C708 C707 1.366 . S
C708 C712 1.385 . S
C709 H684 0.951 . S
C709 C707 1.388 . S
C709 C710 1.366 . S
C710 C709 1.366 . S
C710 C711 1.414 . S
C710 C713 1.499 . S
C711 H685 0.950 . S
C711 C710 1.414 . S
C711 C712 1.374 . S
C712 H686 0.950 . S
C712 C708 1.385 . S
C712 C711 1.374 . S
C713 C710 1.499 . S
C713 C714 1.373 . S
C713 C715 1.389 . S
C714 H687 0.950 . S
C714 C700 1.377 . S
C714 C713 1.373 . S
C715 C699 1.377 . S
C715 C713 1.389 . S
C715 C716 1.524 . S
C716 C715 1.524 . S
C716 C717 1.397 . S
C716 C721 1.363 . S
C717 H688 0.950 . S
C717 C716 1.397 . S
C717 C718 1.334 . S
C718 H689 0.950 . S
C718 C717 1.334 . S
C718 C719 1.287 . S
C719 C718 1.287 . S
C719 C720 1.524 . S
C719 H722 0.999 . S
C720 H690 0.950 . S
C720 C719 1.524 . S
C720 C721 1.415 . S
C721 H691 0.950 . S
C721 C716 1.363 . S
C721 C720 1.415 . S
H722 C719 0.999 . S
H723 C704 0.913 . S
H724 C742 0.951 . S
H725 C744 0.951 . S
H726 C746 0.950 . S
H727 C747 0.950 . S
H728 C749 0.950 . S
H729 C752 0.950 . S
H730 C753 0.950 . S
H731 C755 0.950 . S
H732 C756 0.950 . S
H733 C757 0.951 . S
H734 C759 0.951 . S
H735 C761 0.950 . S
H736 C762 0.950 . S
H737 C764 0.950 . S
H738 C767 0.950 . S
H739 C768 0.950 . S
H740 C770 0.950 . S
H741 C771 0.950 . S
C742 H724 0.951 . S
C742 C743 1.366 . S
C742 C744 1.388 . S
C743 C742 1.366 . S
C743 C747 1.385 . S
C744 H725 0.951 . S
C744 C742 1.388 . S
C744 C745 1.366 . S
C745 C744 1.366 . S
C745 C746 1.414 . S
C745 C748 1.499 . S
C746 H726 0.950 . S
C746 C745 1.414 . S
C746 C747 1.374 . S
C747 H727 0.950 . S
C747 C743 1.385 . S
C747 C746 1.374 . S
C748 C745 1.499 . S
C748 C749 1.373 . S
C748 C750 1.389 . S
C749 H728 0.950 . S
C749 C748 1.373 . S
C749 C765 1.377 . S
C750 C748 1.389 . S
C750 C751 1.524 . S
C750 C764 1.377 . S
C751 C750 1.524 . S
C751 C752 1.397 . S
C751 C756 1.363 . S
C752 H729 0.950 . S
C752 C751 1.397 . S
C752 C753 1.334 . S
C753 H730 0.950 . S
C753 C752 1.334 . S
C753 C754 1.287 . S
C754 C753 1.287 . S
C754 C755 1.524 . S
C754 H773 0.913 . S
C755 H731 0.950 . S
C755 C754 1.524 . S
C755 C756 1.415 . S
C756 H732 0.950 . S
C756 C751 1.363 . S
C756 C755 1.415 . S
C757 H733 0.951 . S
C757 C758 1.366 . S
C757 C759 1.388 . S
C758 C757 1.366 . S
C758 C762 1.385 . S
C759 H734 0.951 . S
C759 C757 1.388 . S
C759 C760 1.366 . S
C760 C759 1.366 . S
C760 C761 1.414 . S
C760 C763 1.499 . S
C761 H735 0.950 . S
C761 C760 1.414 . S
C761 C762 1.374 . S
C762 H736 0.950 . S
C762 C758 1.385 . S
C762 C761 1.374 . S
C763 C760 1.499 . S
C763 C764 1.373 . S
C763 C765 1.389 . S
C764 H737 0.950 . S
C764 C750 1.377 . S
C764 C763 1.373 . S
C765 C749 1.377 . S
C765 C763 1.389 . S
C765 C766 1.524 . S
C766 C765 1.524 . S
C766 C767 1.397 . S
C766 C771 1.363 . S
C767 H738 0.950 . S
C767 C766 1.397 . S
C767 C768 1.334 . S
C768 H739 0.950 . S
C768 C767 1.334 . S
C768 C769 1.287 . S
C769 C768 1.287 . S
C769 C770 1.524 1_556 S
C769 H772 0.999 1_556 S
C770 H740 0.950 . S
C770 C769 1.524 1_554 S
C770 C771 1.415 1_554 S
C771 H741 0.950 . S
C771 C766 1.363 . S
C771 C770 1.415 1_556 S
H772 C769 0.999 1_554 S
H773 C754 0.913 . S
H774 C792 0.951 . S
H775 C794 0.951 . S
H776 C796 0.950 . S
H777 C797 0.950 . S
H778 C799 0.950 . S
H779 C802 0.950 . S
H780 C803 0.950 . S
H781 C805 0.950 . S
H782 C806 0.950 . S
H783 C807 0.951 . S
H784 C809 0.951 . S
H785 C811 0.950 . S
H786 C812 0.950 . S
H787 C814 0.950 . S
H788 C817 0.950 . S
H789 C818 0.950 . S
H790 C820 0.950 . S
H791 C821 0.950 . S
C792 H774 0.951 . S
C792 C793 1.366 . S
C792 C794 1.388 . S
C793 C792 1.366 . S
C793 C797 1.385 . S
C794 H775 0.951 . S
C794 C792 1.388 . S
C794 C795 1.366 . S
C795 C794 1.366 . S
C795 C796 1.414 . S
C795 C798 1.499 . S
C796 H776 0.950 . S
C796 C795 1.414 . S
C796 C797 1.374 . S
C797 H777 0.950 . S
C797 C793 1.385 . S
C797 C796 1.374 . S
C798 C795 1.499 . S
C798 C799 1.373 . S
C798 C800 1.389 . S
C799 H778 0.950 . S
C799 C798 1.373 . S
C799 C815 1.377 . S
C800 C798 1.389 . S
C800 C801 1.524 . S
C800 C814 1.377 . S
C801 C800 1.524 . S
C801 C802 1.397 . S
C801 C806 1.363 . S
C802 H779 0.950 . S
C802 C801 1.397 . S
C802 C803 1.334 . S
C803 H780 0.950 . S
C803 C802 1.334 . S
C803 C804 1.287 . S
C804 C803 1.287 . S
C804 C805 1.524 . S
C804 H823 0.913 . S
C805 H781 0.950 . S
C805 C804 1.524 . S
C805 C806 1.415 . S
C806 H782 0.950 . S
C806 C801 1.363 . S
C806 C805 1.415 . S
C807 H783 0.951 . S
C807 C808 1.366 . S
C807 C809 1.388 . S
C808 C807 1.366 . S
C808 C812 1.385 . S
C809 H784 0.951 . S
C809 C807 1.388 . S
C809 C810 1.366 . S
C810 C809 1.366 . S
C810 C811 1.414 . S
C810 C813 1.499 . S
C811 H785 0.950 . S
C811 C810 1.414 . S
C811 C812 1.374 . S
C812 H786 0.950 . S
C812 C808 1.385 . S
C812 C811 1.374 . S
C813 C810 1.499 . S
C813 C814 1.373 . S
C813 C815 1.389 . S
C814 H787 0.950 . S
C814 C800 1.377 . S
C814 C813 1.373 . S
C815 C799 1.377 . S
C815 C813 1.389 . S
C815 C816 1.524 . S
C816 C815 1.524 . S
C816 C817 1.397 . S
C816 C821 1.363 . S
C817 H788 0.950 . S
C817 C816 1.397 . S
C817 C818 1.334 . S
C818 H789 0.950 . S
C818 C817 1.334 . S
C818 C819 1.287 . S
C819 C818 1.287 . S
C819 C820 1.524 . S
C819 H822 0.999 . S
C820 H790 0.950 . S
C820 C819 1.524 . S
C820 C821 1.415 . S
C821 H791 0.950 . S
C821 C816 1.363 . S
C821 C820 1.415 . S
H822 C819 0.999 . S
H823 C804 0.913 . S
H824 C842 0.951 . S
H825 C844 0.951 . S
H826 C846 0.950 . S
H827 C847 0.950 . S
H828 C849 0.950 . S
H829 C852 0.950 . S
H830 C853 0.950 . S
H831 C855 0.950 . S
H832 C856 0.950 1_545 S
H833 C857 0.951 . S
H834 C859 0.951 . S
H835 C861 0.950 . S
H836 C862 0.950 . S
H837 C864 0.950 . S
H838 C867 0.950 . S
H839 C868 0.950 . S
H840 C870 0.950 . S
H841 C871 0.950 . S
C842 H824 0.951 . S
C842 C843 1.366 . S
C842 C844 1.388 . S
C843 C842 1.366 . S
C843 C847 1.385 . S
C844 H825 0.951 . S
C844 C842 1.388 . S
C844 C845 1.366 . S
C845 C844 1.366 . S
C845 C846 1.414 . S
C845 C848 1.499 . S
C846 H826 0.950 . S
C846 C845 1.414 . S
C846 C847 1.374 . S
C847 H827 0.950 . S
C847 C843 1.385 . S
C847 C846 1.374 . S
C848 C845 1.499 . S
C848 C849 1.373 . S
C848 C850 1.389 . S
C849 H828 0.950 . S
C849 C848 1.373 . S
C849 C865 1.377 1_565 S
C850 C848 1.389 . S
C850 C851 1.524 . S
C850 C864 1.377 1_565 S
C851 C850 1.524 . S
C851 C852 1.397 . S
C851 C856 1.363 . S
C852 H829 0.950 . S
C852 C851 1.397 . S
C852 C853 1.334 . S
C853 H830 0.950 . S
C853 C852 1.334 . S
C853 C854 1.287 . S
C854 C853 1.287 . S
C854 C855 1.524 . S
C854 H873 0.913 . S
C855 H831 0.950 . S
C855 C854 1.524 . S
C855 C856 1.415 . S
C856 H832 0.950 1_565 S
C856 C851 1.363 . S
C856 C855 1.415 . S
C857 H833 0.951 . S
C857 C858 1.366 . S
C857 C859 1.388 . S
C858 C857 1.366 . S
C858 C862 1.385 . S
C859 H834 0.951 . S
C859 C857 1.388 . S
C859 C860 1.366 . S
C860 C859 1.366 . S
C860 C861 1.414 . S
C860 C863 1.499 . S
C861 H835 0.950 . S
C861 C860 1.414 . S
C861 C862 1.374 . S
C862 H836 0.950 . S
C862 C858 1.385 . S
C862 C861 1.374 . S
C863 C860 1.499 . S
C863 C864 1.373 . S
C863 C865 1.389 . S
C864 H837 0.950 . S
C864 C850 1.377 1_545 S
C864 C863 1.373 . S
C865 C849 1.377 1_545 S
C865 C863 1.389 . S
C865 C866 1.524 . S
C866 C865 1.524 . S
C866 C867 1.397 . S
C866 C871 1.363 . S
C867 H838 0.950 . S
C867 C866 1.397 . S
C867 C868 1.334 . S
C868 H839 0.950 . S
C868 C867 1.334 . S
C868 C869 1.287 . S
C869 C868 1.287 . S
C869 C870 1.524 . S
C869 H872 0.999 . S
C870 H840 0.950 . S
C870 C869 1.524 . S
C870 C871 1.415 . S
C871 H841 0.950 . S
C871 C866 1.363 . S
C871 C870 1.415 . S
H872 C869 0.999 . S
H873 C854 0.913 . S
H874 C892 0.951 . S
H875 C894 0.951 . S
H876 C896 0.950 . S
H877 C897 0.950 . S
H878 C899 0.950 . S
H879 C902 0.950 . S
H880 C903 0.950 . S
H881 C905 0.950 . S
H882 C906 0.950 . S
H883 C907 0.951 . S
H884 C909 0.951 . S
H885 C911 0.950 . S
H886 C912 0.950 . S
H887 C914 0.950 . S
H888 C917 0.950 . S
H889 C918 0.950 . S
H890 C920 0.950 . S
H891 C921 0.950 . S
C892 H874 0.951 . S
C892 C893 1.366 . S
C892 C894 1.388 . S
C893 C892 1.366 . S
C893 C897 1.385 . S
C894 H875 0.951 . S
C894 C892 1.388 . S
C894 C895 1.366 . S
C895 C894 1.366 . S
C895 C896 1.414 . S
C895 C898 1.499 . S
C896 H876 0.950 . S
C896 C895 1.414 . S
C896 C897 1.374 . S
C897 H877 0.950 . S
C897 C893 1.385 . S
C897 C896 1.374 . S
C898 C895 1.499 . S
C898 C899 1.373 . S
C898 C900 1.389 . S
C899 H878 0.950 . S
C899 C898 1.373 . S
C899 C915 1.377 1_655 S
C900 C898 1.389 . S
C900 C901 1.524 . S
C900 C914 1.377 1_655 S
C901 C900 1.524 . S
C901 C902 1.397 . S
C901 C906 1.363 . S
C902 H879 0.950 . S
C902 C901 1.397 . S
C902 C903 1.334 . S
C903 H880 0.950 . S
C903 C902 1.334 . S
C903 C904 1.287 . S
C904 C903 1.287 . S
C904 C905 1.524 . S
C904 H923 0.913 . S
C905 H881 0.950 . S
C905 C904 1.524 . S
C905 C906 1.415 . S
C906 H882 0.950 . S
C906 C901 1.363 . S
C906 C905 1.415 . S
C907 H883 0.951 . S
C907 C908 1.366 . S
C907 C909 1.388 . S
C908 C907 1.366 . S
C908 C912 1.385 . S
C909 H884 0.951 . S
C909 C907 1.388 . S
C909 C910 1.366 . S
C910 C909 1.366 . S
C910 C911 1.414 . S
C910 C913 1.499 . S
C911 H885 0.950 . S
C911 C910 1.414 . S
C911 C912 1.374 . S
C912 H886 0.950 . S
C912 C908 1.385 . S
C912 C911 1.374 . S
C913 C910 1.499 . S
C913 C914 1.373 . S
C913 C915 1.389 . S
C914 H887 0.950 . S
C914 C900 1.377 1_455 S
C914 C913 1.373 . S
C915 C899 1.377 1_455 S
C915 C913 1.389 . S
C915 C916 1.524 . S
C916 C915 1.524 . S
C916 C917 1.397 . S
C916 C921 1.363 . S
C917 H888 0.950 . S
C917 C916 1.397 . S
C917 C918 1.334 . S
C918 H889 0.950 . S
C918 C917 1.334 . S
C918 C919 1.287 . S
C919 C918 1.287 . S
C919 C920 1.524 . S
C919 H922 0.999 . S
C920 H890 0.950 . S
C920 C919 1.524 . S
C920 C921 1.415 . S
C921 H891 0.950 . S
C921 C916 1.363 . S
C921 C920 1.415 . S
H922 C919 0.999 . S
H923 C904 0.913 . S
H924 C942 0.951 . S
H925 C944 0.951 . S
H926 C946 0.950 . S
H927 C947 0.950 . S
H928 C949 0.950 . S
H929 C952 0.950 . S
H930 C953 0.950 . S
H931 C955 0.950 . S
H932 C956 0.950 1_545 S
H933 C957 0.951 . S
H934 C959 0.951 . S
H935 C961 0.950 . S
H936 C962 0.950 . S
H937 C964 0.950 . S
H938 C967 0.950 . S
H939 C968 0.950 . S
H940 C970 0.950 1_565 S
H941 C971 0.953 . S
C942 H924 0.951 . S
C942 C943 1.366 . S
C942 C944 1.388 . S
C943 C942 1.366 . S
C943 C947 1.385 . S
C944 H925 0.951 . S
C944 C942 1.388 . S
C944 C945 1.366 . S
C945 C944 1.366 . S
C945 C946 1.414 . S
C945 C948 1.499 . S
C946 H926 0.950 . S
C946 C945 1.414 . S
C946 C947 1.374 . S
C947 H927 0.950 . S
C947 C943 1.385 . S
C947 C946 1.374 . S
C948 C945 1.499 . S
C948 C949 1.373 . S
C948 C950 1.389 . S
C949 H928 0.950 . S
C949 C948 1.373 . S
C949 C965 1.377 1_565 S
C950 C948 1.389 . S
C950 C951 1.524 . S
C950 C964 1.377 1_565 S
C951 C950 1.524 . S
C951 C952 1.397 . S
C951 C956 1.363 . S
C952 H929 0.950 . S
C952 C951 1.397 . S
C952 C953 1.334 . S
C953 H930 0.950 . S
C953 C952 1.334 . S
C953 C954 1.287 . S
C954 C953 1.287 . S
C954 C955 1.524 . S
C954 H973 0.913 . S
C955 H931 0.950 . S
C955 C954 1.524 . S
C955 C956 1.415 . S
C956 H932 0.950 1_565 S
C956 C951 1.363 . S
C956 C955 1.415 . S
C957 H933 0.951 . S
C957 C958 1.366 . S
C957 C959 1.388 . S
C958 C957 1.366 . S
C958 C962 1.385 . S
C959 H934 0.951 . S
C959 C957 1.388 . S
C959 C960 1.366 . S
C960 C959 1.366 . S
C960 C961 1.414 . S
C960 C963 1.499 . S
C961 H935 0.950 . S
C961 C960 1.414 . S
C961 C962 1.374 . S
C962 H936 0.950 . S
C962 C958 1.385 . S
C962 C961 1.374 . S
C963 C960 1.499 . S
C963 C964 1.373 . S
C963 C965 1.389 . S
C964 H937 0.950 . S
C964 C950 1.377 1_545 S
C964 C963 1.373 . S
C965 C949 1.377 1_545 S
C965 C963 1.389 . S
C965 C966 1.524 . S
C966 C965 1.524 . S
C966 C967 1.397 . S
C966 C971 1.361 1_545 S
C967 H938 0.950 . S
C967 C966 1.397 . S
C967 C968 1.334 . S
C968 H939 0.950 . S
C968 C967 1.334 . S
C968 C969 1.287 . S
C969 C968 1.287 . S
C969 C970 1.524 . S
C969 H972 0.999 . S
C970 H940 0.950 1_545 S
C970 C969 1.524 . S
C970 C971 1.414 1_545 S
C971 H941 0.953 . S
C971 C966 1.361 1_565 S
C971 C970 1.414 1_565 S
H972 C969 0.999 . S
H973 C954 0.913 . S
H974 C992 0.951 . S
H975 C994 0.951 . S
H976 C996 0.950 . S
H977 C997 0.950 . S
H978 C999 0.950 . S
H979 C1002 0.950 . S
H980 C1003 0.950 . S
H981 C1005 0.950 . S
H982 C1006 0.950 1_455 S
H983 C1007 0.951 . S
H984 C1009 0.951 . S
H985 C1011 0.950 . S
H986 C1012 0.950 . S
H987 C1014 0.950 . S
H988 C1017 0.950 . S
H989 C1018 0.950 . S
H990 C1020 0.950 . S
H991 C1021 0.950 1_655 S
C992 H974 0.951 . S
C992 C993 1.366 . S
C992 C994 1.388 . S
C993 C992 1.366 . S
C993 C997 1.385 . S
C994 H975 0.951 . S
C994 C992 1.388 . S
C994 C995 1.366 . S
C995 C994 1.366 . S
C995 C996 1.414 . S
C995 C998 1.499 . S
C996 H976 0.950 . S
C996 C995 1.414 . S
C996 C997 1.374 . S
C997 H977 0.950 . S
C997 C993 1.385 . S
C997 C996 1.374 . S
C998 C995 1.499 . S
C998 C999 1.373 . S
C998 C1000 1.389 . S
C999 H978 0.950 . S
C999 C998 1.373 . S
C999 C1015 1.377 1_655 S
C1000 C998 1.389 . S
C1000 C1001 1.524 . S
C1000 C1014 1.377 1_655 S
C1001 C1000 1.524 . S
C1001 C1002 1.397 . S
C1001 C1006 1.363 . S
C1002 H979 0.950 . S
C1002 C1001 1.397 . S
C1002 C1003 1.334 . S
C1003 H980 0.950 . S
C1003 C1002 1.334 . S
C1003 C1004 1.287 . S
C1004 C1003 1.287 . S
C1004 C1005 1.524 . S
C1004 H1023 0.913 . S
C1005 H981 0.950 . S
C1005 C1004 1.524 . S
C1005 C1006 1.415 . S
C1006 H982 0.950 1_655 S
C1006 C1001 1.363 . S
C1006 C1005 1.415 . S
C1007 H983 0.951 . S
C1007 C1008 1.366 . S
C1007 C1009 1.388 . S
C1008 C1007 1.366 . S
C1008 C1012 1.385 . S
C1009 H984 0.951 . S
C1009 C1007 1.388 . S
C1009 C1010 1.366 . S
C1010 C1009 1.366 . S
C1010 C1011 1.414 . S
C1010 C1013 1.499 . S
C1011 H985 0.950 . S
C1011 C1010 1.414 . S
C1011 C1012 1.374 . S
C1012 H986 0.950 . S
C1012 C1008 1.385 . S
C1012 C1011 1.374 . S
C1013 C1010 1.499 . S
C1013 C1014 1.373 . S
C1013 C1015 1.389 . S
C1014 H987 0.950 . S
C1014 C1000 1.377 1_455 S
C1014 C1013 1.373 . S
C1015 C999 1.377 1_455 S
C1015 C1013 1.389 . S
C1015 C1016 1.524 . S
C1016 C1015 1.524 . S
C1016 C1017 1.397 . S
C1016 C1021 1.363 . S
C1017 H988 0.950 . S
C1017 C1016 1.397 . S
C1017 C1018 1.334 . S
C1018 H989 0.950 . S
C1018 C1017 1.334 . S
C1018 C1019 1.287 . S
C1019 C1018 1.287 . S
C1019 C1020 1.524 . S
C1019 H1022 0.999 . S
C1020 H990 0.950 . S
C1020 C1019 1.524 . S
C1020 C1021 1.415 . S
C1021 H991 0.950 1_455 S
C1021 C1016 1.363 . S
C1021 C1020 1.415 . S
H1022 C1019 0.999 . S
H1023 C1004 0.913 . S
H1024 C1042 0.951 . S
H1025 C1044 0.951 . S
H1026 C1046 0.950 . S
H1027 C1047 0.950 . S
H1028 C1049 0.950 . S
H1029 C1052 0.950 . S
H1030 C1053 0.950 . S
H1031 C1055 0.950 . S
H1032 C1056 0.950 . S
H1033 C1057 0.951 . S
H1034 C1059 0.951 . S
H1035 C1061 0.950 . S
H1036 C1062 0.950 . S
H1037 C1064 0.950 . S
H1038 C1067 0.950 . S
H1039 C1068 0.950 . S
H1040 C1070 0.950 . S
H1041 C1071 0.950 . S
C1042 H1024 0.951 . S
C1042 C1043 1.366 . S
C1042 C1044 1.388 . S
C1043 C1042 1.366 . S
C1043 C1047 1.385 . S
C1044 H1025 0.951 . S
C1044 C1042 1.388 . S
C1044 C1045 1.366 . S
C1045 C1044 1.366 . S
C1045 C1046 1.414 . S
C1045 C1048 1.499 . S
C1046 H1026 0.950 . S
C1046 C1045 1.414 . S
C1046 C1047 1.374 . S
C1047 H1027 0.950 . S
C1047 C1043 1.385 . S
C1047 C1046 1.374 . S
C1048 C1045 1.499 . S
C1048 C1049 1.373 . S
C1048 C1050 1.389 . S
C1049 H1028 0.950 . S
C1049 C1048 1.373 . S
C1049 C1065 1.377 . S
C1050 C1048 1.389 . S
C1050 C1051 1.524 . S
C1050 C1064 1.377 . S
C1051 C1050 1.524 . S
C1051 C1052 1.397 . S
C1051 C1056 1.363 . S
C1052 H1029 0.950 . S
C1052 C1051 1.397 . S
C1052 C1053 1.334 . S
C1053 H1030 0.950 . S
C1053 C1052 1.334 . S
C1053 C1054 1.287 . S
C1054 C1053 1.287 . S
C1054 C1055 1.524 . S
C1054 H1073 0.913 . S
C1055 H1031 0.950 . S
C1055 C1054 1.524 . S
C1055 C1056 1.415 . S
C1056 H1032 0.950 . S
C1056 C1051 1.363 . S
C1056 C1055 1.415 . S
C1057 H1033 0.951 . S
C1057 C1058 1.366 . S
C1057 C1059 1.388 . S
C1058 C1057 1.366 . S
C1058 C1062 1.385 . S
C1059 H1034 0.951 . S
C1059 C1057 1.388 . S
C1059 C1060 1.366 . S
C1060 C1059 1.366 . S
C1060 C1061 1.414 . S
C1060 C1063 1.499 . S
C1061 H1035 0.950 . S
C1061 C1060 1.414 . S
C1061 C1062 1.374 . S
C1062 H1036 0.950 . S
C1062 C1058 1.385 . S
C1062 C1061 1.374 . S
C1063 C1060 1.499 . S
C1063 C1064 1.373 . S
C1063 C1065 1.389 . S
C1064 H1037 0.950 . S
C1064 C1050 1.377 . S
C1064 C1063 1.373 . S
C1065 C1049 1.377 . S
C1065 C1063 1.389 . S
C1065 C1066 1.524 . S
C1066 C1065 1.524 . S
C1066 C1067 1.397 . S
C1066 C1071 1.363 . S
C1067 H1038 0.950 . S
C1067 C1066 1.397 . S
C1067 C1068 1.334 1_554 S
C1068 H1039 0.950 . S
C1068 C1067 1.334 1_556 S
C1068 C1069 1.287 . S
C1069 C1068 1.287 . S
C1069 C1070 1.524 1_556 S
C1069 H1072 0.999 . S
C1070 H1040 0.950 . S
C1070 C1069 1.524 1_554 S
C1070 C1071 1.415 . S
C1071 H1041 0.950 . S
C1071 C1066 1.363 . S
C1071 C1070 1.415 . S
H1072 C1069 0.999 . S
H1073 C1054 0.913 . S
H1074 C1092 0.951 . S
H1075 C1094 0.951 . S
H1076 C1096 0.950 . S
H1077 C1097 0.950 . S
H1078 C1099 0.950 . S
H1079 C1102 0.950 . S
H1080 C1103 0.950 . S
H1081 C1105 0.950 . S
H1082 C1106 0.950 . S
H1083 C1107 0.951 . S
H1084 C1109 0.951 . S
H1085 C1111 0.950 1_554 S
H1086 C1112 0.950 1_554 S
H1087 C1114 0.950 . S
H1088 C1117 0.950 . S
H1089 C1118 0.950 . S
H1090 C1120 0.950 . S
H1091 C1121 0.950 . S
C1092 H1074 0.951 . S
C1092 C1093 1.366 . S
C1092 C1094 1.388 . S
C1093 C1092 1.366 . S
C1093 C1097 1.385 . S
C1094 H1075 0.951 . S
C1094 C1092 1.388 . S
C1094 C1095 1.366 . S
C1095 C1094 1.366 . S
C1095 C1096 1.414 . S
C1095 C1098 1.499 . S
C1096 H1076 0.950 . S
C1096 C1095 1.414 . S
C1096 C1097 1.374 . S
C1097 H1077 0.950 . S
C1097 C1093 1.385 . S
C1097 C1096 1.374 . S
C1098 C1095 1.499 . S
C1098 C1099 1.373 . S
C1098 C1100 1.389 . S
C1099 H1078 0.950 . S
C1099 C1098 1.373 . S
C1099 C1115 1.377 . S
C1100 C1098 1.389 . S
C1100 C1101 1.524 . S
C1100 C1114 1.377 . S
C1101 C1100 1.524 . S
C1101 C1102 1.397 . S
C1101 C1106 1.363 1_556 S
C1102 H1079 0.950 . S
C1102 C1101 1.397 . S
C1102 C1103 1.334 . S
C1103 H1080 0.950 . S
C1103 C1102 1.334 . S
C1103 C1104 1.287 1_556 S
C1104 C1103 1.287 1_554 S
C1104 C1105 1.524 . S
C1104 H1123 0.913 . S
C1105 H1081 0.950 . S
C1105 C1104 1.524 . S
C1105 C1106 1.415 . S
C1106 H1082 0.950 . S
C1106 C1101 1.363 1_554 S
C1106 C1105 1.415 . S
C1107 H1083 0.951 . S
C1107 C1108 1.366 . S
C1107 C1109 1.388 . S
C1108 C1107 1.366 . S
C1108 C1112 1.385 . S
C1109 H1084 0.951 . S
C1109 C1107 1.388 . S
C1109 C1110 1.366 . S
C1110 C1109 1.366 . S
C1110 C1111 1.414 . S
C1110 C1113 1.499 . S
C1111 H1085 0.950 1_556 S
C1111 C1110 1.414 . S
C1111 C1112 1.374 . S
C1112 H1086 0.950 1_556 S
C1112 C1108 1.385 . S
C1112 C1111 1.374 . S
C1113 C1110 1.499 . S
C1113 C1114 1.373 . S
C1113 C1115 1.389 . S
C1114 H1087 0.950 . S
C1114 C1100 1.377 . S
C1114 C1113 1.373 . S
C1115 C1099 1.377 . S
C1115 C1113 1.389 . S
C1115 C1116 1.524 . S
C1116 C1115 1.524 . S
C1116 C1117 1.397 . S
C1116 C1121 1.363 . S
C1117 H1088 0.950 . S
C1117 C1116 1.397 . S
C1117 C1118 1.334 . S
C1118 H1089 0.950 . S
C1118 C1117 1.334 . S
C1118 C1119 1.287 . S
C1119 C1118 1.287 . S
C1119 C1120 1.524 . S
C1119 H1122 0.999 . S
C1120 H1090 0.950 . S
C1120 C1119 1.524 . S
C1120 C1121 1.415 . S
C1121 H1091 0.950 . S
C1121 C1116 1.363 . S
C1121 C1120 1.415 . S
H1122 C1119 0.999 . S
H1123 C1104 0.913 . S
H1124 C1142 0.951 . S
H1125 C1144 0.951 . S
H1126 C1146 0.950 . S
H1127 C1147 0.950 . S
H1128 C1149 0.950 . S
H1129 C1152 0.950 . S
H1130 C1153 0.950 . S
H1131 C1155 0.950 . S
H1132 C1156 0.950 . S
H1133 C1157 0.951 . S
H1134 C1159 0.951 . S
H1135 C1161 0.950 . S
H1136 C1162 0.950 . S
H1137 C1164 0.950 . S
H1138 C1167 0.950 . S
H1139 C1168 0.950 . S
H1140 C1170 0.950 . S
H1141 C1171 0.950 . S
C1142 H1124 0.951 . S
C1142 C1143 1.366 . S
C1142 C1144 1.388 . S
C1143 C1142 1.366 . S
C1143 C1147 1.385 . S
C1144 H1125 0.951 . S
C1144 C1142 1.388 . S
C1144 C1145 1.366 . S
C1145 C1144 1.366 . S
C1145 C1146 1.414 . S
C1145 C1148 1.499 . S
C1146 H1126 0.950 . S
C1146 C1145 1.414 . S
C1146 C1147 1.374 . S
C1147 H1127 0.950 . S
C1147 C1143 1.385 . S
C1147 C1146 1.374 . S
C1148 C1145 1.499 . S
C1148 C1149 1.373 . S
C1148 C1150 1.389 . S
C1149 H1128 0.950 . S
C1149 C1148 1.373 . S
C1149 C1165 1.377 . S
C1150 C1148 1.389 . S
C1150 C1151 1.524 . S
C1150 C1164 1.377 . S
C1151 C1150 1.524 . S
C1151 C1152 1.397 . S
C1151 C1156 1.363 1_554 S
C1152 H1129 0.950 . S
C1152 C1151 1.397 . S
C1152 C1153 1.334 1_554 S
C1153 H1130 0.950 . S
C1153 C1152 1.334 1_556 S
C1153 C1154 1.287 . S
C1154 C1153 1.287 . S
C1154 C1155 1.524 . S
C1154 H1173 0.913 . S
C1155 H1131 0.950 . S
C1155 C1154 1.524 . S
C1155 C1156 1.415 . S
C1156 H1132 0.950 . S
C1156 C1151 1.363 1_556 S
C1156 C1155 1.415 . S
C1157 H1133 0.951 . S
C1157 C1158 1.366 . S
C1157 C1159 1.388 . S
C1158 C1157 1.366 . S
C1158 C1162 1.385 . S
C1159 H1134 0.951 . S
C1159 C1157 1.388 . S
C1159 C1160 1.366 . S
C1160 C1159 1.366 . S
C1160 C1161 1.414 . S
C1160 C1163 1.499 . S
C1161 H1135 0.950 . S
C1161 C1160 1.414 . S
C1161 C1162 1.374 . S
C1162 H1136 0.950 . S
C1162 C1158 1.385 . S
C1162 C1161 1.374 . S
C1163 C1160 1.499 . S
C1163 C1164 1.373 . S
C1163 C1165 1.389 . S
C1164 H1137 0.950 . S
C1164 C1150 1.377 . S
C1164 C1163 1.373 . S
C1165 C1149 1.377 . S
C1165 C1163 1.389 . S
C1165 C1166 1.524 . S
C1166 C1165 1.524 . S
C1166 C1167 1.397 . S
C1166 C1171 1.363 . S
C1167 H1138 0.950 . S
C1167 C1166 1.397 . S
C1167 C1168 1.334 . S
C1168 H1139 0.950 . S
C1168 C1167 1.334 . S
C1168 C1169 1.287 . S
C1169 C1168 1.287 . S
C1169 C1170 1.524 . S
C1169 H1172 0.999 . S
C1170 H1140 0.950 . S
C1170 C1169 1.524 . S
C1170 C1171 1.415 . S
C1171 H1141 0.950 . S
C1171 C1166 1.363 . S
C1171 C1170 1.415 . S
H1172 C1169 0.999 . S
H1173 C1154 0.913 . S
H1174 C1192 0.951 . S
H1175 C1194 0.951 . S
H1176 C1196 0.950 . S
H1177 C1197 0.950 . S
H1178 C1199 0.950 . S
H1179 C1202 0.950 . S
H1180 C1203 0.950 . S
H1181 C1205 0.950 . S
H1182 C1206 0.950 . S
H1183 C1207 0.951 . S
H1184 C1209 0.951 . S
H1185 C1211 0.950 . S
H1186 C1212 0.950 . S
H1187 C1214 0.950 . S
H1188 C1217 0.950 . S
H1189 C1218 0.950 . S
H1190 C1220 0.950 . S
H1191 C1221 0.950 . S
C1192 H1174 0.951 . S
C1192 C1193 1.366 . S
C1192 C1194 1.388 . S
C1193 C1192 1.366 . S
C1193 C1197 1.385 . S
C1194 H1175 0.951 . S
C1194 C1192 1.388 . S
C1194 C1195 1.366 . S
C1195 C1194 1.366 . S
C1195 C1196 1.414 . S
C1195 C1198 1.499 . S
C1196 H1176 0.950 . S
C1196 C1195 1.414 . S
C1196 C1197 1.374 . S
C1197 H1177 0.950 . S
C1197 C1193 1.385 . S
C1197 C1196 1.374 . S
C1198 C1195 1.499 . S
C1198 C1199 1.373 . S
C1198 C1200 1.389 . S
C1199 H1178 0.950 . S
C1199 C1198 1.373 . S
C1199 C1215 1.377 . S
C1200 C1198 1.389 . S
C1200 C1201 1.524 . S
C1200 C1214 1.377 . S
C1201 C1200 1.524 . S
C1201 C1202 1.397 . S
C1201 C1206 1.363 . S
C1202 H1179 0.950 . S
C1202 C1201 1.397 . S
C1202 C1203 1.334 . S
C1203 H1180 0.950 . S
C1203 C1202 1.334 . S
C1203 C1204 1.287 . S
C1204 C1203 1.287 . S
C1204 C1205 1.524 . S
C1204 H1223 0.913 . S
C1205 H1181 0.950 . S
C1205 C1204 1.524 . S
C1205 C1206 1.415 . S
C1206 H1182 0.950 . S
C1206 C1201 1.363 . S
C1206 C1205 1.415 . S
C1207 H1183 0.951 . S
C1207 C1208 1.366 . S
C1207 C1209 1.388 . S
C1208 C1207 1.366 . S
C1208 C1212 1.385 . S
C1209 H1184 0.951 . S
C1209 C1207 1.388 . S
C1209 C1210 1.366 . S
C1210 C1209 1.366 . S
C1210 C1211 1.414 . S
C1210 C1213 1.499 . S
C1211 H1185 0.950 . S
C1211 C1210 1.414 . S
C1211 C1212 1.374 . S
C1212 H1186 0.950 . S
C1212 C1208 1.385 . S
C1212 C1211 1.374 . S
C1213 C1210 1.499 . S
C1213 C1214 1.373 . S
C1213 C1215 1.389 . S
C1214 H1187 0.950 . S
C1214 C1200 1.377 . S
C1214 C1213 1.373 . S
C1215 C1199 1.377 . S
C1215 C1213 1.389 . S
C1215 C1216 1.524 . S
C1216 C1215 1.524 . S
C1216 C1217 1.397 . S
C1216 C1221 1.363 1_556 S
C1217 H1188 0.950 . S
C1217 C1216 1.397 . S
C1217 C1218 1.334 1_556 S
C1218 H1189 0.950 . S
C1218 C1217 1.334 1_554 S
C1218 C1219 1.287 . S
C1219 C1218 1.287 . S
C1219 C1220 1.524 . S
C1219 H1222 0.999 . S
C1220 H1190 0.950 . S
C1220 C1219 1.524 . S
C1220 C1221 1.415 . S
C1221 H1191 0.950 . S
C1221 C1216 1.363 1_554 S
C1221 C1220 1.415 . S
H1222 C1219 0.999 . S
H1223 C1204 0.913 . S
H1224 C1242 0.951 . S
H1225 C1244 0.951 . S
H1226 C1246 0.950 . S
H1227 C1247 0.950 . S
H1228 C1249 0.950 . S
H1229 C1252 0.950 . S
H1230 C1253 0.950 . S
H1231 C1255 0.950 . S
H1232 C1256 0.950 . S
H1233 C1257 0.951 . S
H1234 C1259 0.951 . S
H1235 C1261 0.950 . S
H1236 C1262 0.950 . S
H1237 C1264 0.950 . S
H1238 C1267 0.950 . S
H1239 C1268 0.950 . S
H1240 C1270 0.950 . S
H1241 C1271 0.950 . S
C1242 H1224 0.951 . S
C1242 C1243 1.366 . S
C1242 C1244 1.388 . S
C1243 C1242 1.366 . S
C1243 C1247 1.385 . S
C1244 H1225 0.951 . S
C1244 C1242 1.388 . S
C1244 C1245 1.366 . S
C1245 C1244 1.366 . S
C1245 C1246 1.414 . S
C1245 C1248 1.499 . S
C1246 H1226 0.950 . S
C1246 C1245 1.414 . S
C1246 C1247 1.374 . S
C1247 H1227 0.950 . S
C1247 C1243 1.385 . S
C1247 C1246 1.374 . S
C1248 C1245 1.499 . S
C1248 C1249 1.373 . S
C1248 C1250 1.389 . S
C1249 H1228 0.950 . S
C1249 C1248 1.373 . S
C1249 C1265 1.377 . S
C1250 C1248 1.389 . S
C1250 C1251 1.524 . S
C1250 C1264 1.377 . S
C1251 C1250 1.524 . S
C1251 C1252 1.397 . S
C1251 C1256 1.363 . S
C1252 H1229 0.950 . S
C1252 C1251 1.397 . S
C1252 C1253 1.334 . S
C1253 H1230 0.950 . S
C1253 C1252 1.334 . S
C1253 C1254 1.287 . S
C1254 C1253 1.287 . S
C1254 C1255 1.524 . S
C1254 H1273 0.913 . S
C1255 H1231 0.950 . S
C1255 C1254 1.524 . S
C1255 C1256 1.415 . S
C1256 H1232 0.950 . S
C1256 C1251 1.363 . S
C1256 C1255 1.415 . S
C1257 H1233 0.951 . S
C1257 C1258 1.366 . S
C1257 C1259 1.388 . S
C1258 C1257 1.366 . S
C1258 C1262 1.385 . S
C1259 H1234 0.951 . S
C1259 C1257 1.388 . S
C1259 C1260 1.366 . S
C1260 C1259 1.366 . S
C1260 C1261 1.414 . S
C1260 C1263 1.499 . S
C1261 H1235 0.950 . S
C1261 C1260 1.414 . S
C1261 C1262 1.374 . S
C1262 H1236 0.950 . S
C1262 C1258 1.385 . S
C1262 C1261 1.374 . S
C1263 C1260 1.499 . S
C1263 C1264 1.373 . S
C1263 C1265 1.389 . S
C1264 H1237 0.950 . S
C1264 C1250 1.377 . S
C1264 C1263 1.373 . S
C1265 C1249 1.377 . S
C1265 C1263 1.389 . S
C1265 C1266 1.524 . S
C1266 C1265 1.524 . S
C1266 C1267 1.397 . S
C1266 C1271 1.363 . S
C1267 H1238 0.950 . S
C1267 C1266 1.397 . S
C1267 C1268 1.334 . S
C1268 H1239 0.950 . S
C1268 C1267 1.334 . S
C1268 C1269 1.287 . S
C1269 C1268 1.287 . S
C1269 C1270 1.524 . S
C1269 H1272 0.999 . S
C1270 H1240 0.950 . S
C1270 C1269 1.524 . S
C1270 C1271 1.415 . S
C1271 H1241 0.950 . S
C1271 C1266 1.363 . S
C1271 C1270 1.415 . S
H1272 C1269 0.999 . S
H1273 C1254 0.913 . S
H1274 C1292 0.951 . S
H1275 C1294 0.951 . S
H1276 C1296 0.950 . S
H1277 C1297 0.950 . S
H1278 C1299 0.950 . S
H1279 C1302 0.950 . S
H1280 C1303 0.950 . S
H1281 C1305 0.950 . S
H1282 C1306 0.950 . S
H1283 C1307 0.951 . S
H1284 C1309 0.951 . S
H1285 C1311 0.950 . S
H1286 C1312 0.950 . S
H1287 C1314 0.950 . S
H1288 C1317 0.950 . S
H1289 C1318 0.950 . S
H1290 C1320 0.950 . S
H1291 C1321 0.950 . S
C1292 H1274 0.951 . S
C1292 C1293 1.366 . S
C1292 C1294 1.388 . S
C1293 C1292 1.366 . S
C1293 C1297 1.385 . S
C1294 H1275 0.951 . S
C1294 C1292 1.388 . S
C1294 C1295 1.366 . S
C1295 C1294 1.366 . S
C1295 C1296 1.414 . S
C1295 C1298 1.499 . S
C1296 H1276 0.950 . S
C1296 C1295 1.414 . S
C1296 C1297 1.374 . S
C1297 H1277 0.950 . S
C1297 C1293 1.385 . S
C1297 C1296 1.374 . S
C1298 C1295 1.499 . S
C1298 C1299 1.373 . S
C1298 C1300 1.389 . S
C1299 H1278 0.950 . S
C1299 C1298 1.373 . S
C1299 C1315 1.377 . S
C1300 C1298 1.389 . S
C1300 C1301 1.524 . S
C1300 C1314 1.377 . S
C1301 C1300 1.524 . S
C1301 C1302 1.397 . S
C1301 C1306 1.363 . S
C1302 H1279 0.950 . S
C1302 C1301 1.397 . S
C1302 C1303 1.334 . S
C1303 H1280 0.950 . S
C1303 C1302 1.334 . S
C1303 C1304 1.287 . S
C1304 C1303 1.287 . S
C1304 C1305 1.524 . S
C1304 H1323 0.913 . S
C1305 H1281 0.950 . S
C1305 C1304 1.524 . S
C1305 C1306 1.415 . S
C1306 H1282 0.950 . S
C1306 C1301 1.363 . S
C1306 C1305 1.415 . S
C1307 H1283 0.951 . S
C1307 C1308 1.366 . S
C1307 C1309 1.388 . S
C1308 C1307 1.366 . S
C1308 C1312 1.385 . S
C1309 H1284 0.951 . S
C1309 C1307 1.388 . S
C1309 C1310 1.366 . S
C1310 C1309 1.366 . S
C1310 C1311 1.414 . S
C1310 C1313 1.499 . S
C1311 H1285 0.950 . S
C1311 C1310 1.414 . S
C1311 C1312 1.374 . S
C1312 H1286 0.950 . S
C1312 C1308 1.385 . S
C1312 C1311 1.374 . S
C1313 C1310 1.499 . S
C1313 C1314 1.373 . S
C1313 C1315 1.389 . S
C1314 H1287 0.950 . S
C1314 C1300 1.377 . S
C1314 C1313 1.373 . S
C1315 C1299 1.377 . S
C1315 C1313 1.389 . S
C1315 C1316 1.524 . S
C1316 C1315 1.524 . S
C1316 C1317 1.397 . S
C1316 C1321 1.363 . S
C1317 H1288 0.950 . S
C1317 C1316 1.397 . S
C1317 C1318 1.334 . S
C1318 H1289 0.950 . S
C1318 C1317 1.334 . S
C1318 C1319 1.287 . S
C1319 C1318 1.287 . S
C1319 C1320 1.524 . S
C1319 H1322 0.999 . S
C1320 H1290 0.950 . S
C1320 C1319 1.524 . S
C1320 C1321 1.415 . S
C1321 H1291 0.950 . S
C1321 C1316 1.363 . S
C1321 C1320 1.415 . S
H1322 C1319 0.999 . S
H1323 C1304 0.913 . S
H1324 C1342 0.951 . S
H1325 C1344 0.951 . S
H1326 C1346 0.950 . S
H1327 C1347 0.950 . S
H1328 C1349 0.950 . S
H1329 C1352 0.950 . S
H1330 C1353 0.950 . S
H1331 C1355 0.950 . S
H1332 C1356 0.950 . S
H1333 C1357 0.951 . S
H1334 C1359 0.951 . S
H1335 C1361 0.950 . S
H1336 C1362 0.950 . S
H1337 C1364 0.950 . S
H1338 C1367 0.950 . S
H1339 C1368 0.950 . S
H1340 C1370 0.950 . S
H1341 C1371 0.950 . S
C1342 H1324 0.951 . S
C1342 C1343 1.366 . S
C1342 C1344 1.388 . S
C1343 C1342 1.366 . S
C1343 C1347 1.385 . S
C1344 H1325 0.951 . S
C1344 C1342 1.388 . S
C1344 C1345 1.366 . S
C1345 C1344 1.366 . S
C1345 C1346 1.414 . S
C1345 C1348 1.499 . S
C1346 H1326 0.950 . S
C1346 C1345 1.414 . S
C1346 C1347 1.374 . S
C1347 H1327 0.950 . S
C1347 C1343 1.385 . S
C1347 C1346 1.374 . S
C1348 C1345 1.499 . S
C1348 C1349 1.373 . S
C1348 C1350 1.389 . S
C1349 H1328 0.950 . S
C1349 C1348 1.373 . S
C1349 C1365 1.377 . S
C1350 C1348 1.389 . S
C1350 C1351 1.524 . S
C1350 C1364 1.377 . S
C1351 C1350 1.524 . S
C1351 C1352 1.397 . S
C1351 C1356 1.363 . S
C1352 H1329 0.950 . S
C1352 C1351 1.397 . S
C1352 C1353 1.334 . S
C1353 H1330 0.950 . S
C1353 C1352 1.334 . S
C1353 C1354 1.287 . S
C1354 C1353 1.287 . S
C1354 C1355 1.524 . S
C1354 H1373 0.913 . S
C1355 H1331 0.950 . S
C1355 C1354 1.524 . S
C1355 C1356 1.415 . S
C1356 H1332 0.950 . S
C1356 C1351 1.363 . S
C1356 C1355 1.415 . S
C1357 H1333 0.951 . S
C1357 C1358 1.366 . S
C1357 C1359 1.388 . S
C1358 C1357 1.366 . S
C1358 C1362 1.385 . S
C1359 H1334 0.951 . S
C1359 C1357 1.388 . S
C1359 C1360 1.366 . S
C1360 C1359 1.366 . S
C1360 C1361 1.414 . S
C1360 C1363 1.499 . S
C1361 H1335 0.950 . S
C1361 C1360 1.414 . S
C1361 C1362 1.374 . S
C1362 H1336 0.950 . S
C1362 C1358 1.385 . S
C1362 C1361 1.374 . S
C1363 C1360 1.499 . S
C1363 C1364 1.373 . S
C1363 C1365 1.389 . S
C1364 H1337 0.950 . S
C1364 C1350 1.377 . S
C1364 C1363 1.373 . S
C1365 C1349 1.377 . S
C1365 C1363 1.389 . S
C1365 C1366 1.524 . S
C1366 C1365 1.524 . S
C1366 C1367 1.397 . S
C1366 C1371 1.363 . S
C1367 H1338 0.950 . S
C1367 C1366 1.397 . S
C1367 C1368 1.334 . S
C1368 H1339 0.950 . S
C1368 C1367 1.334 . S
C1368 C1369 1.287 . S
C1369 C1368 1.287 . S
C1369 C1370 1.524 . S
C1369 H1372 0.999 . S
C1370 H1340 0.950 . S
C1370 C1369 1.524 . S
C1370 C1371 1.415 . S
C1371 H1341 0.950 . S
C1371 C1366 1.363 . S
C1371 C1370 1.415 . S
H1372 C1369 0.999 . S
H1373 C1354 0.913 . S
H1374 C1392 0.951 . S
H1375 C1394 0.951 . S
H1376 C1396 0.950 . S
H1377 C1397 0.950 . S
H1378 C1399 0.950 . S
H1379 C1402 0.950 . S
H1380 C1403 0.950 . S
H1381 C1405 0.950 . S
H1382 C1406 0.950 . S
H1383 C1407 0.951 . S
H1384 C1409 0.951 . S
H1385 C1411 0.950 . S
H1386 C1412 0.950 . S
H1387 C1414 0.950 . S
H1388 C1417 0.950 . S
H1389 C1418 0.950 . S
H1390 C1420 0.950 . S
H1391 C1421 0.950 . S
C1392 H1374 0.951 . S
C1392 C1393 1.366 . S
C1392 C1394 1.388 . S
C1393 C1392 1.366 . S
C1393 C1397 1.385 . S
C1394 H1375 0.951 . S
C1394 C1392 1.388 . S
C1394 C1395 1.366 . S
C1395 C1394 1.366 . S
C1395 C1396 1.414 . S
C1395 C1398 1.499 . S
C1396 H1376 0.950 . S
C1396 C1395 1.414 . S
C1396 C1397 1.374 . S
C1397 H1377 0.950 . S
C1397 C1393 1.385 . S
C1397 C1396 1.374 . S
C1398 C1395 1.499 . S
C1398 C1399 1.373 . S
C1398 C1400 1.389 . S
C1399 H1378 0.950 . S
C1399 C1398 1.373 . S
C1399 C1415 1.377 . S
C1400 C1398 1.389 . S
C1400 C1401 1.524 . S
C1400 C1414 1.377 . S
C1401 C1400 1.524 . S
C1401 C1402 1.397 . S
C1401 C1406 1.363 . S
C1402 H1379 0.950 . S
C1402 C1401 1.397 . S
C1402 C1403 1.334 . S
C1403 H1380 0.950 . S
C1403 C1402 1.334 . S
C1403 C1404 1.287 . S
C1404 C1403 1.287 . S
C1404 C1405 1.524 . S
C1404 H1423 0.913 . S
C1405 H1381 0.950 . S
C1405 C1404 1.524 . S
C1405 C1406 1.415 . S
C1406 H1382 0.950 . S
C1406 C1401 1.363 . S
C1406 C1405 1.415 . S
C1407 H1383 0.951 . S
C1407 C1408 1.366 . S
C1407 C1409 1.388 . S
C1408 C1407 1.366 . S
C1408 C1412 1.385 . S
C1409 H1384 0.951 . S
C1409 C1407 1.388 . S
C1409 C1410 1.366 . S
C1410 C1409 1.366 . S
C1410 C1411 1.414 . S
C1410 C1413 1.499 . S
C1411 H1385 0.950 . S
C1411 C1410 1.414 . S
C1411 C1412 1.374 . S
C1412 H1386 0.950 . S
C1412 C1408 1.385 . S
C1412 C1411 1.374 . S
C1413 C1410 1.499 . S
C1413 C1414 1.373 . S
C1413 C1415 1.389 . S
C1414 H1387 0.950 . S
C1414 C1400 1.377 . S
C1414 C1413 1.373 . S
C1415 C1399 1.377 . S
C1415 C1413 1.389 . S
C1415 C1416 1.524 . S
C1416 C1415 1.524 . S
C1416 C1417 1.397 . S
C1416 C1421 1.363 . S
C1417 H1388 0.950 . S
C1417 C1416 1.397 . S
C1417 C1418 1.334 . S
C1418 H1389 0.950 . S
C1418 C1417 1.334 . S
C1418 C1419 1.287 . S
C1419 C1418 1.287 . S
C1419 C1420 1.524 . S
C1419 H1422 0.999 . S
C1420 H1390 0.950 . S
C1420 C1419 1.524 . S
C1420 C1421 1.415 . S
C1421 H1391 0.950 . S
C1421 C1416 1.363 . S
C1421 C1420 1.415 . S
H1422 C1419 0.999 . S
H1423 C1404 0.913 . S
H1424 C1442 0.951 . S
H1425 C1444 0.951 . S
H1426 C1446 0.950 . S
H1427 C1447 0.950 . S
H1428 C1449 0.950 . S
H1429 C1452 0.950 . S
H1430 C1453 0.950 . S
H1431 C1455 0.950 . S
H1432 C1456 0.950 . S
H1433 C1457 0.951 . S
H1434 C1459 0.951 . S
H1435 C1461 0.950 . S
H1436 C1462 0.950 . S
H1437 C1464 0.950 . S
H1438 C1467 0.950 . S
H1439 C1468 0.950 . S
H1440 C1470 0.950 . S
H1441 C1471 0.950 . S
C1442 H1424 0.951 . S
C1442 C1443 1.366 . S
C1442 C1444 1.388 . S
C1443 C1442 1.366 . S
C1443 C1447 1.385 . S
C1444 H1425 0.951 . S
C1444 C1442 1.388 . S
C1444 C1445 1.366 . S
C1445 C1444 1.366 . S
C1445 C1446 1.414 . S
C1445 C1448 1.499 . S
C1446 H1426 0.950 . S
C1446 C1445 1.414 . S
C1446 C1447 1.374 . S
C1447 H1427 0.950 . S
C1447 C1443 1.385 . S
C1447 C1446 1.374 . S
C1448 C1445 1.499 . S
C1448 C1449 1.373 . S
C1448 C1450 1.389 . S
C1449 H1428 0.950 . S
C1449 C1448 1.373 . S
C1449 C1465 1.377 . S
C1450 C1448 1.389 . S
C1450 C1451 1.524 . S
C1450 C1464 1.377 . S
C1451 C1450 1.524 . S
C1451 C1452 1.397 . S
C1451 C1456 1.363 . S
C1452 H1429 0.950 . S
C1452 C1451 1.397 . S
C1452 C1453 1.334 . S
C1453 H1430 0.950 . S
C1453 C1452 1.334 . S
C1453 C1454 1.287 . S
C1454 C1453 1.287 . S
C1454 C1455 1.524 . S
C1454 H1473 0.913 . S
C1455 H1431 0.950 . S
C1455 C1454 1.524 . S
C1455 C1456 1.415 . S
C1456 H1432 0.950 . S
C1456 C1451 1.363 . S
C1456 C1455 1.415 . S
C1457 H1433 0.951 . S
C1457 C1458 1.366 . S
C1457 C1459 1.388 . S
C1458 C1457 1.366 . S
C1458 C1462 1.385 1_554 S
C1459 H1434 0.951 . S
C1459 C1457 1.388 . S
C1459 C1460 1.366 1_554 S
C1460 C1459 1.366 1_556 S
C1460 C1461 1.414 . S
C1460 C1463 1.499 . S
C1461 H1435 0.950 . S
C1461 C1460 1.414 . S
C1461 C1462 1.374 . S
C1462 H1436 0.950 . S
C1462 C1458 1.385 1_556 S
C1462 C1461 1.374 . S
C1463 C1460 1.499 . S
C1463 C1464 1.373 . S
C1463 C1465 1.389 . S
C1464 H1437 0.950 . S
C1464 C1450 1.377 . S
C1464 C1463 1.373 . S
C1465 C1449 1.377 . S
C1465 C1463 1.389 . S
C1465 C1466 1.524 . S
C1466 C1465 1.524 . S
C1466 C1467 1.397 . S
C1466 C1471 1.363 1_556 S
C1467 H1438 0.950 . S
C1467 C1466 1.397 . S
C1467 C1468 1.334 1_556 S
C1468 H1439 0.950 . S
C1468 C1467 1.334 1_554 S
C1468 C1469 1.287 . S
C1469 C1468 1.287 . S
C1469 C1470 1.524 . S
C1469 H1472 0.999 . S
C1470 H1440 0.950 . S
C1470 C1469 1.524 . S
C1470 C1471 1.415 . S
C1471 H1441 0.950 . S
C1471 C1466 1.363 1_554 S
C1471 C1470 1.415 . S
H1472 C1469 0.999 . S
H1473 C1454 0.913 . S
H1474 C1492 0.951 . S
H1475 C1494 0.951 . S
H1476 C1496 0.950 . S
H1477 C1497 0.950 . S
H1478 C1499 0.950 . S
H1479 C1502 0.950 . S
H1480 C1503 0.950 . S
H1481 C1505 0.950 . S
H1482 C1506 0.950 . S
H1483 C1507 0.951 . S
H1484 C1509 0.951 . S
H1485 C1511 0.950 . S
H1486 C1512 0.950 . S
H1487 C1514 0.950 . S
H1488 C1517 0.950 . S
H1489 C1518 0.950 . S
H1490 C1520 0.950 . S
H1491 C1521 0.950 . S
C1492 H1474 0.951 . S
C1492 C1493 1.366 . S
C1492 C1494 1.388 . S
C1493 C1492 1.366 . S
C1493 C1497 1.385 . S
C1494 H1475 0.951 . S
C1494 C1492 1.388 . S
C1494 C1495 1.366 . S
C1495 C1494 1.366 . S
C1495 C1496 1.414 . S
C1495 C1498 1.499 . S
C1496 H1476 0.950 . S
C1496 C1495 1.414 . S
C1496 C1497 1.374 . S
C1497 H1477 0.950 . S
C1497 C1493 1.385 . S
C1497 C1496 1.374 . S
C1498 C1495 1.499 . S
C1498 C1499 1.373 . S
C1498 C1500 1.389 . S
C1499 H1478 0.950 . S
C1499 C1498 1.373 . S
C1499 C1515 1.377 . S
C1500 C1498 1.389 . S
C1500 C1501 1.524 . S
C1500 C1514 1.377 . S
C1501 C1500 1.524 . S
C1501 C1502 1.397 . S
C1501 C1506 1.363 . S
C1502 H1479 0.950 . S
C1502 C1501 1.397 . S
C1502 C1503 1.334 . S
C1503 H1480 0.950 . S
C1503 C1502 1.334 . S
C1503 C1504 1.287 . S
C1504 C1503 1.287 . S
C1504 C1505 1.524 . S
C1504 H1523 0.913 . S
C1505 H1481 0.950 . S
C1505 C1504 1.524 . S
C1505 C1506 1.415 . S
C1506 H1482 0.950 . S
C1506 C1501 1.363 . S
C1506 C1505 1.415 . S
C1507 H1483 0.951 . S
C1507 C1508 1.366 . S
C1507 C1509 1.388 . S
C1508 C1507 1.366 . S
C1508 C1512 1.385 1_556 S
C1509 H1484 0.951 . S
C1509 C1507 1.388 . S
C1509 C1510 1.366 1_556 S
C1510 C1509 1.366 1_554 S
C1510 C1511 1.414 . S
C1510 C1513 1.499 . S
C1511 H1485 0.950 . S
C1511 C1510 1.414 . S
C1511 C1512 1.374 . S
C1512 H1486 0.950 . S
C1512 C1508 1.385 1_554 S
C1512 C1511 1.374 . S
C1513 C1510 1.499 . S
C1513 C1514 1.373 . S
C1513 C1515 1.389 . S
C1514 H1487 0.950 . S
C1514 C1500 1.377 . S
C1514 C1513 1.373 . S
C1515 C1499 1.377 . S
C1515 C1513 1.389 . S
C1515 C1516 1.524 . S
C1516 C1515 1.524 . S
C1516 C1517 1.397 . S
C1516 C1521 1.363 1_554 S
C1517 H1488 0.950 . S
C1517 C1516 1.397 . S
C1517 C1518 1.334 1_554 S
C1518 H1489 0.950 . S
C1518 C1517 1.334 1_556 S
C1518 C1519 1.287 . S
C1519 C1518 1.287 . S
C1519 C1520 1.524 . S
C1519 H1522 0.999 . S
C1520 H1490 0.950 . S
C1520 C1519 1.524 . S
C1520 C1521 1.415 . S
C1521 H1491 0.950 . S
C1521 C1516 1.363 1_556 S
C1521 C1520 1.415 . S
H1522 C1519 0.999 . S
H1523 C1504 0.913 . S
H1524 C1542 0.951 . S
H1525 C1544 0.951 . S
H1526 C1546 0.950 . S
H1527 C1547 0.950 . S
H1528 C1549 0.950 . S
H1529 C1552 0.950 . S
H1530 C1553 0.950 . S
H1531 C1555 0.950 . S
H1532 C1556 0.950 . S
H1533 C1557 0.951 . S
H1534 C1559 0.951 . S
H1535 C1561 0.950 . S
H1536 C1562 0.950 . S
H1537 C1564 0.950 . S
H1538 C1567 0.950 . S
H1539 C1568 0.950 . S
H1540 C1570 0.950 . S
H1541 C1571 0.950 . S
C1542 H1524 0.951 . S
C1542 C1543 1.366 . S
C1542 C1544 1.388 . S
C1543 C1542 1.366 . S
C1543 C1547 1.385 1_554 S
C1544 H1525 0.951 . S
C1544 C1542 1.388 . S
C1544 C1545 1.366 1_554 S
C1545 C1544 1.366 1_556 S
C1545 C1546 1.414 . S
C1545 C1548 1.499 . S
C1546 H1526 0.950 . S
C1546 C1545 1.414 . S
C1546 C1547 1.374 . S
C1547 H1527 0.950 . S
C1547 C1543 1.385 1_556 S
C1547 C1546 1.374 . S
C1548 C1545 1.499 . S
C1548 C1549 1.373 . S
C1548 C1550 1.389 . S
C1549 H1528 0.950 . S
C1549 C1548 1.373 . S
C1549 C1565 1.377 . S
C1550 C1548 1.389 . S
C1550 C1551 1.524 . S
C1550 C1564 1.377 . S
C1551 C1550 1.524 . S
C1551 C1552 1.397 . S
C1551 C1556 1.363 . S
C1552 H1529 0.950 . S
C1552 C1551 1.397 . S
C1552 C1553 1.334 . S
C1553 H1530 0.950 . S
C1553 C1552 1.334 . S
C1553 C1554 1.287 . S
C1554 C1553 1.287 . S
C1554 C1555 1.524 1_556 S
C1554 H1573 0.913 . S
C1555 H1531 0.950 . S
C1555 C1554 1.524 1_554 S
C1555 C1556 1.415 1_554 S
C1556 H1532 0.950 . S
C1556 C1551 1.363 . S
C1556 C1555 1.415 1_556 S
C1557 H1533 0.951 . S
C1557 C1558 1.366 . S
C1557 C1559 1.388 . S
C1558 C1557 1.366 . S
C1558 C1562 1.385 . S
C1559 H1534 0.951 . S
C1559 C1557 1.388 . S
C1559 C1560 1.366 . S
C1560 C1559 1.366 . S
C1560 C1561 1.414 . S
C1560 C1563 1.499 . S
C1561 H1535 0.950 . S
C1561 C1560 1.414 . S
C1561 C1562 1.374 . S
C1562 H1536 0.950 . S
C1562 C1558 1.385 . S
C1562 C1561 1.374 . S
C1563 C1560 1.499 . S
C1563 C1564 1.373 . S
C1563 C1565 1.389 . S
C1564 H1537 0.950 . S
C1564 C1550 1.377 . S
C1564 C1563 1.373 . S
C1565 C1549 1.377 . S
C1565 C1563 1.389 . S
C1565 C1566 1.524 . S
C1566 C1565 1.524 . S
C1566 C1567 1.397 . S
C1566 C1571 1.363 . S
C1567 H1538 0.950 . S
C1567 C1566 1.397 . S
C1567 C1568 1.334 . S
C1568 H1539 0.950 . S
C1568 C1567 1.334 . S
C1568 C1569 1.287 . S
C1569 C1568 1.287 . S
C1569 C1570 1.524 . S
C1569 H1572 0.999 . S
C1570 H1540 0.950 . S
C1570 C1569 1.524 . S
C1570 C1571 1.415 . S
C1571 H1541 0.950 . S
C1571 C1566 1.363 . S
C1571 C1570 1.415 . S
H1572 C1569 0.999 . S
H1573 C1554 0.913 . S
H1574 C1592 0.951 . S
H1575 C1594 0.951 . S
H1576 C1596 0.950 . S
H1577 C1597 0.950 . S
H1578 C1599 0.950 . S
H1579 C1602 0.950 . S
H1580 C1603 0.950 . S
H1581 C1605 0.950 . S
H1582 C1606 0.950 . S
H1583 C1607 0.948 1_556 S
H1584 C1609 0.951 . S
H1585 C1611 0.950 . S
H1586 C1612 0.950 . S
H1587 C1614 0.950 . S
H1588 C1617 0.950 . S
H1589 C1618 0.950 . S
H1590 C1620 0.950 . S
H1591 C1621 0.950 1_554 S
C1592 H1574 0.951 . S
C1592 C1593 1.366 . S
C1592 C1594 1.388 . S
C1593 C1592 1.366 . S
C1593 C1597 1.385 . S
C1594 H1575 0.951 . S
C1594 C1592 1.388 . S
C1594 C1595 1.366 . S
C1595 C1594 1.366 . S
C1595 C1596 1.414 . S
C1595 C1598 1.499 . S
C1596 H1576 0.950 . S
C1596 C1595 1.414 . S
C1596 C1597 1.374 . S
C1597 H1577 0.950 . S
C1597 C1593 1.385 . S
C1597 C1596 1.374 . S
C1598 C1595 1.499 . S
C1598 C1599 1.373 . S
C1598 C1600 1.389 . S
C1599 H1578 0.950 . S
C1599 C1598 1.373 . S
C1599 C1615 1.377 . S
C1600 C1598 1.389 . S
C1600 C1601 1.524 . S
C1600 C1614 1.377 . S
C1601 C1600 1.524 . S
C1601 C1602 1.397 . S
C1601 C1606 1.363 . S
C1602 H1579 0.950 . S
C1602 C1601 1.397 . S
C1602 C1603 1.334 . S
C1603 H1580 0.950 . S
C1603 C1602 1.334 . S
C1603 C1604 1.287 . S
C1604 C1603 1.287 . S
C1604 C1605 1.524 . S
C1604 H1623 0.913 . S
C1605 H1581 0.950 . S
C1605 C1604 1.524 . S
C1605 C1606 1.415 . S
C1606 H1582 0.950 . S
C1606 C1601 1.363 . S
C1606 C1605 1.415 . S
C1607 H1583 0.948 1_554 S
C1607 C1608 1.364 1_554 S
C1607 C1609 1.393 . S
C1608 C1607 1.364 1_556 S
C1608 C1612 1.385 1_556 S
C1609 H1584 0.951 . S
C1609 C1607 1.393 . S
C1609 C1610 1.366 . S
C1610 C1609 1.366 . S
C1610 C1611 1.414 . S
C1610 C1613 1.499 . S
C1611 H1585 0.950 . S
C1611 C1610 1.414 . S
C1611 C1612 1.374 . S
C1612 H1586 0.950 . S
C1612 C1608 1.385 1_554 S
C1612 C1611 1.374 . S
C1613 C1610 1.499 . S
C1613 C1614 1.373 . S
C1613 C1615 1.389 . S
C1614 H1587 0.950 . S
C1614 C1600 1.377 . S
C1614 C1613 1.373 . S
C1615 C1599 1.377 . S
C1615 C1613 1.389 . S
C1615 C1616 1.518 1_554 S
C1616 C1615 1.518 1_556 S
C1616 C1617 1.402 . S
C1616 C1621 1.364 . S
C1617 H1588 0.950 . S
C1617 C1616 1.402 . S
C1617 C1618 1.334 . S
C1618 H1589 0.950 . S
C1618 C1617 1.334 . S
C1618 C1619 1.287 . S
C1619 C1618 1.287 . S
C1619 C1620 1.524 . S
C1619 H1622 0.999 . S
C1620 H1590 0.950 . S
C1620 C1619 1.524 . S
C1620 C1621 1.415 . S
C1621 H1591 0.950 1_556 S
C1621 C1616 1.364 . S
C1621 C1620 1.415 . S
H1622 C1619 0.999 . S
H1623 C1604 0.913 . S
H1624 C1642 0.951 . S
H1625 C1644 0.951 . S
H1626 C1646 0.950 . S
H1627 C1647 0.950 . S
H1628 C1649 0.950 . S
H1629 C1652 0.950 . S
H1630 C1653 0.950 . S
H1631 C1655 0.950 . S
H1632 C1656 0.950 . S
H1633 C1657 0.951 . S
H1634 C1659 0.951 . S
H1635 C1661 0.950 . S
H1636 C1662 0.950 . S
H1637 C1664 0.950 . S
H1638 C1667 0.950 . S
H1639 C1668 0.950 . S
H1640 C1670 0.950 . S
H1641 C1671 0.950 . S
C1642 H1624 0.951 . S
C1642 C1643 1.366 . S
C1642 C1644 1.388 . S
C1643 C1642 1.366 . S
C1643 C1647 1.385 . S
C1644 H1625 0.951 . S
C1644 C1642 1.388 . S
C1644 C1645 1.366 . S
C1645 C1644 1.366 . S
C1645 C1646 1.414 . S
C1645 C1648 1.499 . S
C1646 H1626 0.950 . S
C1646 C1645 1.414 . S
C1646 C1647 1.374 . S
C1647 H1627 0.950 . S
C1647 C1643 1.385 . S
C1647 C1646 1.374 . S
C1648 C1645 1.499 . S
C1648 C1649 1.373 . S
C1648 C1650 1.389 . S
C1649 H1628 0.950 . S
C1649 C1648 1.373 . S
C1649 C1665 1.377 . S
C1650 C1648 1.389 . S
C1650 C1651 1.524 . S
C1650 C1664 1.377 . S
C1651 C1650 1.524 . S
C1651 C1652 1.397 . S
C1651 C1656 1.363 . S
C1652 H1629 0.950 . S
C1652 C1651 1.397 . S
C1652 C1653 1.334 . S
C1653 H1630 0.950 . S
C1653 C1652 1.334 . S
C1653 C1654 1.287 . S
C1654 C1653 1.287 . S
C1654 C1655 1.524 . S
C1654 H1673 0.913 . S
C1655 H1631 0.950 . S
C1655 C1654 1.524 . S
C1655 C1656 1.415 . S
C1656 H1632 0.950 . S
C1656 C1651 1.363 . S
C1656 C1655 1.415 . S
C1657 H1633 0.951 . S
C1657 C1658 1.366 . S
C1657 C1659 1.388 . S
C1658 C1657 1.366 . S
C1658 C1662 1.385 . S
C1659 H1634 0.951 . S
C1659 C1657 1.388 . S
C1659 C1660 1.366 . S
C1660 C1659 1.366 . S
C1660 C1661 1.414 . S
C1660 C1663 1.499 . S
C1661 H1635 0.950 . S
C1661 C1660 1.414 . S
C1661 C1662 1.374 . S
C1662 H1636 0.950 . S
C1662 C1658 1.385 . S
C1662 C1661 1.374 . S
C1663 C1660 1.499 . S
C1663 C1664 1.373 . S
C1663 C1665 1.389 . S
C1664 H1637 0.950 . S
C1664 C1650 1.377 . S
C1664 C1663 1.373 . S
C1665 C1649 1.377 . S
C1665 C1663 1.389 . S
C1665 C1666 1.524 . S
C1666 C1665 1.524 . S
C1666 C1667 1.397 . S
C1666 C1671 1.363 . S
C1667 H1638 0.950 . S
C1667 C1666 1.397 . S
C1667 C1668 1.334 . S
C1668 H1639 0.950 . S
C1668 C1667 1.334 . S
C1668 C1669 1.287 . S
C1669 C1668 1.287 . S
C1669 C1670 1.524 . S
C1669 H1672 0.999 . S
C1670 H1640 0.950 . S
C1670 C1669 1.524 . S
C1670 C1671 1.415 . S
C1671 H1641 0.950 . S
C1671 C1666 1.363 . S
C1671 C1670 1.415 . S
H1672 C1669 0.999 . S
H1673 C1654 0.913 . S
H1674 C1692 0.951 . S
H1675 C1694 0.951 . S
H1676 C1696 0.950 . S
H1677 C1697 0.950 . S
H1678 C1699 0.950 . S
H1679 C1702 0.950 . S
H1680 C1703 0.950 . S
H1681 C1705 0.950 . S
H1682 C1706 0.950 . S
H1683 C1707 0.951 . S
H1684 C1709 0.951 . S
H1685 C1711 0.950 . S
H1686 C1712 0.950 . S
H1687 C1714 0.950 . S
H1688 C1717 0.950 . S
H1689 C1718 0.950 . S
H1690 C1720 0.950 . S
H1691 C1721 0.950 . S
C1692 H1674 0.951 . S
C1692 C1693 1.366 . S
C1692 C1694 1.388 . S
C1693 C1692 1.366 . S
C1693 C1697 1.385 . S
C1694 H1675 0.951 . S
C1694 C1692 1.388 . S
C1694 C1695 1.366 . S
C1695 C1694 1.366 . S
C1695 C1696 1.414 . S
C1695 C1698 1.499 . S
C1696 H1676 0.950 . S
C1696 C1695 1.414 . S
C1696 C1697 1.374 . S
C1697 H1677 0.950 . S
C1697 C1693 1.385 . S
C1697 C1696 1.374 . S
C1698 C1695 1.499 . S
C1698 C1699 1.373 . S
C1698 C1700 1.389 . S
C1699 H1678 0.950 . S
C1699 C1698 1.373 . S
C1699 C1715 1.377 . S
C1700 C1698 1.389 . S
C1700 C1701 1.524 . S
C1700 C1714 1.377 . S
C1701 C1700 1.524 . S
C1701 C1702 1.397 . S
C1701 C1706 1.363 . S
C1702 H1679 0.950 . S
C1702 C1701 1.397 . S
C1702 C1703 1.334 . S
C1703 H1680 0.950 . S
C1703 C1702 1.334 . S
C1703 C1704 1.287 . S
C1704 C1703 1.287 . S
C1704 C1705 1.524 . S
C1704 H1723 0.913 . S
C1705 H1681 0.950 . S
C1705 C1704 1.524 . S
C1705 C1706 1.415 . S
C1706 H1682 0.950 . S
C1706 C1701 1.363 . S
C1706 C1705 1.415 . S
C1707 H1683 0.951 . S
C1707 C1708 1.366 . S
C1707 C1709 1.388 . S
C1708 C1707 1.366 . S
C1708 C1712 1.385 . S
C1709 H1684 0.951 . S
C1709 C1707 1.388 . S
C1709 C1710 1.366 . S
C1710 C1709 1.366 . S
C1710 C1711 1.414 . S
C1710 C1713 1.499 . S
C1711 H1685 0.950 . S
C1711 C1710 1.414 . S
C1711 C1712 1.374 . S
C1712 H1686 0.950 . S
C1712 C1708 1.385 . S
C1712 C1711 1.374 . S
C1713 C1710 1.499 . S
C1713 C1714 1.373 . S
C1713 C1715 1.389 . S
C1714 H1687 0.950 . S
C1714 C1700 1.377 . S
C1714 C1713 1.373 . S
C1715 C1699 1.377 . S
C1715 C1713 1.389 . S
C1715 C1716 1.524 . S
C1716 C1715 1.524 . S
C1716 C1717 1.397 . S
C1716 C1721 1.363 . S
C1717 H1688 0.950 . S
C1717 C1716 1.397 . S
C1717 C1718 1.334 . S
C1718 H1689 0.950 . S
C1718 C1717 1.334 . S
C1718 C1719 1.287 . S
C1719 C1718 1.287 . S
C1719 C1720 1.524 . S
C1719 H1722 0.999 . S
C1720 H1690 0.950 . S
C1720 C1719 1.524 . S
C1720 C1721 1.415 . S
C1721 H1691 0.950 . S
C1721 C1716 1.363 . S
C1721 C1720 1.415 . S
H1722 C1719 0.999 . S
H1723 C1704 0.913 . S
H1724 C1742 0.951 . S
H1725 C1744 0.951 . S
H1726 C1746 0.950 . S
H1727 C1747 0.950 . S
H1728 C1749 0.950 . S
H1729 C1752 0.950 . S
H1730 C1753 0.950 . S
H1731 C1755 0.950 . S
H1732 C1756 0.950 . S
H1733 C1757 0.951 . S
H1734 C1759 0.951 . S
H1735 C1761 0.950 . S
H1736 C1762 0.950 . S
H1737 C1764 0.950 . S
H1738 C1767 0.950 . S
H1739 C1768 0.950 . S
H1740 C1770 0.950 . S
H1741 C1771 0.950 . S
C1742 H1724 0.951 . S
C1742 C1743 1.366 . S
C1742 C1744 1.388 . S
C1743 C1742 1.366 . S
C1743 C1747 1.385 . S
C1744 H1725 0.951 . S
C1744 C1742 1.388 . S
C1744 C1745 1.366 . S
C1745 C1744 1.366 . S
C1745 C1746 1.414 . S
C1745 C1748 1.499 . S
C1746 H1726 0.950 . S
C1746 C1745 1.414 . S
C1746 C1747 1.374 . S
C1747 H1727 0.950 . S
C1747 C1743 1.385 . S
C1747 C1746 1.374 . S
C1748 C1745 1.499 . S
C1748 C1749 1.373 . S
C1748 C1750 1.389 . S
C1749 H1728 0.950 . S
C1749 C1748 1.373 . S
C1749 C1765 1.377 . S
C1750 C1748 1.389 . S
C1750 C1751 1.524 . S
C1750 C1764 1.377 . S
C1751 C1750 1.524 . S
C1751 C1752 1.397 . S
C1751 C1756 1.363 . S
C1752 H1729 0.950 . S
C1752 C1751 1.397 . S
C1752 C1753 1.334 . S
C1753 H1730 0.950 . S
C1753 C1752 1.334 . S
C1753 C1754 1.287 . S
C1754 C1753 1.287 . S
C1754 C1755 1.524 . S
C1754 H1773 0.913 . S
C1755 H1731 0.950 . S
C1755 C1754 1.524 . S
C1755 C1756 1.415 . S
C1756 H1732 0.950 . S
C1756 C1751 1.363 . S
C1756 C1755 1.415 . S
C1757 H1733 0.951 . S
C1757 C1758 1.366 . S
C1757 C1759 1.388 . S
C1758 C1757 1.366 . S
C1758 C1762 1.385 . S
C1759 H1734 0.951 . S
C1759 C1757 1.388 . S
C1759 C1760 1.366 . S
C1760 C1759 1.366 . S
C1760 C1761 1.414 . S
C1760 C1763 1.499 . S
C1761 H1735 0.950 . S
C1761 C1760 1.414 . S
C1761 C1762 1.374 . S
C1762 H1736 0.950 . S
C1762 C1758 1.385 . S
C1762 C1761 1.374 . S
C1763 C1760 1.499 . S
C1763 C1764 1.373 . S
C1763 C1765 1.389 . S
C1764 H1737 0.950 . S
C1764 C1750 1.377 . S
C1764 C1763 1.373 . S
C1765 C1749 1.377 . S
C1765 C1763 1.389 . S
C1765 C1766 1.524 . S
C1766 C1765 1.524 . S
C1766 C1767 1.397 . S
C1766 C1771 1.363 . S
C1767 H1738 0.950 . S
C1767 C1766 1.397 . S
C1767 C1768 1.334 . S
C1768 H1739 0.950 . S
C1768 C1767 1.334 . S
C1768 C1769 1.287 . S
C1769 C1768 1.287 . S
C1769 C1770 1.524 . S
C1769 H1772 0.999 . S
C1770 H1740 0.950 . S
C1770 C1769 1.524 . S
C1770 C1771 1.415 . S
C1771 H1741 0.950 . S
C1771 C1766 1.363 . S
C1771 C1770 1.415 . S
H1772 C1769 0.999 . S
H1773 C1754 0.913 . S
H1774 C1792 0.951 . S
H1775 C1794 0.951 . S
H1776 C1796 0.950 . S
H1777 C1797 0.950 . S
H1778 C1799 0.950 . S
H1779 C1802 0.950 . S
H1780 C1803 0.950 . S
H1781 C1805 0.950 . S
H1782 C1806 0.950 . S
H1783 C1807 0.951 . S
H1784 C1809 0.951 . S
H1785 C1811 0.950 . S
H1786 C1812 0.950 . S
H1787 C1814 0.950 . S
H1788 C1817 0.950 . S
H1789 C1818 0.950 . S
H1790 C1820 0.950 . S
H1791 C1821 0.950 . S
C1792 H1774 0.951 . S
C1792 C1793 1.366 . S
C1792 C1794 1.388 . S
C1793 C1792 1.366 . S
C1793 C1797 1.385 . S
C1794 H1775 0.951 . S
C1794 C1792 1.388 . S
C1794 C1795 1.366 . S
C1795 C1794 1.366 . S
C1795 C1796 1.414 . S
C1795 C1798 1.499 . S
C1796 H1776 0.950 . S
C1796 C1795 1.414 . S
C1796 C1797 1.374 . S
C1797 H1777 0.950 . S
C1797 C1793 1.385 . S
C1797 C1796 1.374 . S
C1798 C1795 1.499 . S
C1798 C1799 1.373 . S
C1798 C1800 1.389 . S
C1799 H1778 0.950 . S
C1799 C1798 1.373 . S
C1799 C1815 1.377 . S
C1800 C1798 1.389 . S
C1800 C1801 1.524 . S
C1800 C1814 1.377 . S
C1801 C1800 1.524 . S
C1801 C1802 1.397 . S
C1801 C1806 1.363 . S
C1802 H1779 0.950 . S
C1802 C1801 1.397 . S
C1802 C1803 1.334 . S
C1803 H1780 0.950 . S
C1803 C1802 1.334 . S
C1803 C1804 1.287 . S
C1804 C1803 1.287 . S
C1804 C1805 1.524 . S
C1804 H1823 0.913 . S
C1805 H1781 0.950 . S
C1805 C1804 1.524 . S
C1805 C1806 1.415 . S
C1806 H1782 0.950 . S
C1806 C1801 1.363 . S
C1806 C1805 1.415 . S
C1807 H1783 0.951 . S
C1807 C1808 1.366 . S
C1807 C1809 1.388 . S
C1808 C1807 1.366 . S
C1808 C1812 1.385 . S
C1809 H1784 0.951 . S
C1809 C1807 1.388 . S
C1809 C1810 1.366 . S
C1810 C1809 1.366 . S
C1810 C1811 1.414 . S
C1810 C1813 1.499 . S
C1811 H1785 0.950 . S
C1811 C1810 1.414 . S
C1811 C1812 1.374 . S
C1812 H1786 0.950 . S
C1812 C1808 1.385 . S
C1812 C1811 1.374 . S
C1813 C1810 1.499 . S
C1813 C1814 1.373 . S
C1813 C1815 1.389 . S
C1814 H1787 0.950 . S
C1814 C1800 1.377 . S
C1814 C1813 1.373 . S
C1815 C1799 1.377 . S
C1815 C1813 1.389 . S
C1815 C1816 1.524 . S
C1816 C1815 1.524 . S
C1816 C1817 1.397 . S
C1816 C1821 1.363 . S
C1817 H1788 0.950 . S
C1817 C1816 1.397 . S
C1817 C1818 1.334 . S
C1818 H1789 0.950 . S
C1818 C1817 1.334 . S
C1818 C1819 1.287 . S
C1819 C1818 1.287 . S
C1819 C1820 1.524 . S
C1819 H1822 0.999 . S
C1820 H1790 0.950 . S
C1820 C1819 1.524 . S
C1820 C1821 1.415 . S
C1821 H1791 0.950 . S
C1821 C1816 1.363 . S
C1821 C1820 1.415 . S
H1822 C1819 0.999 . S
H1823 C1804 0.913 . S
C243 C163 1.166 . S
C258 C3 1.163 . S
C293 C17 1.162 . S
C308 C121 1.166 . S
C343 C31 1.164 . S
C358 C135 1.165 . S
C393 C149 1.166 . S
C408 C45 1.164 . S
C443 C59 1.164 . S
C458 C79 1.166 . S
C493 C73 1.164 . S
C508 C93 1.165 . S
C543 C107 1.165 . S
C558 C87 1.163 . S
C593 C65 1.166 . S
C608 C101 1.163 . S
C643 C51 1.167 . S
C658 C115 1.163 . S
C693 C129 1.163 . S
C708 C9 1.167 . S
C743 C23 1.167 . S
C758 C143 1.163 . S
C793 C157 1.163 . S
C808 C37 1.166 . S
C843 C171 1.163 . S
C858 C191 1.167 . S
C893 C185 1.163 . S
C908 C205 1.167 . S
C943 C219 1.166 . S
C958 C199 1.164 . S
C993 C177 1.167 . S
C1008 C213 1.163 . S
C1043 C63 1.022 . S
C1058 C7 1.023 . S
C1093 C21 1.022 . S
C1108 C77 1.023 . S
C1143 C35 1.022 . S
C1158 C91 1.022 . S
C1193 C105 1.022 . S
C1208 C49 1.022 . S
C1243 C119 1.023 . S
C1258 C175 1.022 . S
C1293 C189 1.023 . S
C1308 C133 1.022 . S
C1343 C147 1.022 . S
C1358 C203 1.023 . S
C1393 C217 1.022 . S
C1408 C161 1.023 . S
C1443 C204 1.321 . S
C1458 C8 1.321 . S
C1493 C218 1.321 . S
C1508 C22 1.321 . S
C1543 C36 1.321 . S
C1558 C176 1.321 . S
C1593 C190 1.322 . S
C1608 C50 1.322 . S
C1643 C148 1.320 . S
C1658 C64 1.320 . S
C1693 C162 1.320 . S
C1708 C78 1.320 . S
C1743 C92 1.319 . S
C1758 C120 1.319 . S
C1793 C134 1.319 . S
C1808 C106 1.319 . S
