# Generated by pormake.
# Topology kag, (6)-cn, num edge types: 1
# Building blocks:
#     Node 0, Type 0, BuildingBlock: KUMBOL_clean_sbu_0, # of connection points: 6
#     Node 1, Type 0, BuildingBlock: KUMBOL_clean_sbu_0, # of connection points: 6
#     Node 2, Type 0, BuildingBlock: KUMBOL_clean_sbu_0, # of connection points: 6
#     Edge 3, Type (0, 0), BuildingBlock: EZIPEK_clean_linker_0, # of connection points: 2
#     Edge 4, Type (0, 0), BuildingBlock: EZIPEK_clean_linker_0, # of connection points: 2
#     Edge 5, Type (0, 0), BuildingBlock: EZIPEK_clean_linker_0, # of connection points: 2
#     Edge 6, Type (0, 0), BuildingBlock: EZIPEK_clean_linker_0, # of connection points: 2
#     Edge 7, Type (0, 0), BuildingBlock: EZIPEK_clean_linker_0, # of connection points: 2
#     Edge 8, Type (0, 0), BuildingBlock: EZIPEK_clean_linker_0, # of connection points: 2
#     Edge 9, Type (0, 0), BuildingBlock: EZIPEK_clean_linker_0, # of connection points: 2
#     Edge 10, Type (0, 0), BuildingBlock: EZIPEK_clean_linker_0, # of connection points: 2
#     Edge 11, Type (0, 0), BuildingBlock: EZIPEK_clean_linker_0, # of connection points: 2
# Relax obj value: 0.105
# Max RMSD: 0.222
# Mean RMSD: 0.162
data_MOF--net-kag--node1-KUMBOL_clean_sbu_0--edge1-EZIPEK_clean_linker_0
_symmetry_space_group_name_H-M    P1
_symmetry_Int_Tables_number       1
_symmetry_cell_setting            triclinic
loop_
_symmetry_equiv_pos_as_xyz
'x, y, z'
_cell_length_a     31.800387
_cell_length_b     22.564276
_cell_length_c     11.206428
_cell_angle_alpha  95.667124
_cell_angle_beta   113.47507
_cell_angle_gamma 92.346754
loop_
_atom_site_label
_atom_site_type_symbol
_atom_site_fract_x
_atom_site_fract_y
_atom_site_fract_z
_atom_type_partial_charge
Gd0 Gd 0.01644 0.64843 0.04233 0.0
Gd1 Gd 1.00562 0.48764 0.96228 0.0
C2 C 0.15408 0.43349 0.12598 0.0
C3 C 0.16548 0.40348 0.92802 0.0
C4 C 0.09169 0.4365 0.91377 0.0
C5 C 0.10857 0.44619 0.04938 0.0
C6 C 0.11987 0.41386 0.852 0.0
C7 C 0.18252 0.41319 0.06465 0.0
C8 C 0.16994 0.44165 0.26239 0.0
C9 C 0.14057 0.46099 0.3197 0.0
N10 N 0.08082 0.46792 0.10664 0.0
C11 C 0.09605 0.47338 0.24053 0.0
H12 H 0.07479 0.48691 0.29002 0.0
C13 C 0.02872 0.4318 0.70853 0.0
N14 N 0.04771 0.44812 0.84212 0.0
C15 C 0.05535 0.40982 0.64351 0.0
C16 C 0.10135 0.40166 0.71535 0.0
H17 H 0.99269 0.43578 0.65068 0.0
H18 H 0.21767 0.4043 0.12218 0.0
H19 H 0.05216 0.74756 0.89289 0.0
H20 H 0.20459 0.43255 0.32422 0.0
H21 H 0.15219 0.46645 0.42534 0.0
H22 H 0.18767 0.38705 0.88205 0.0
H23 H 0.94759 0.63942 0.2154 0.0
H24 H 0.9411 0.84978 0.69096 0.0
H25 H 0.02008 0.82161 0.73971 0.0
H26 H 0.83628 0.81081 0.88812 0.0
H27 H 0.04021 0.39885 0.53791 0.0
H28 H 0.12197 0.38459 0.66469 0.0
H29 H 0.87226 0.84513 0.74666 0.0
H30 H 0.88327 0.68556 0.23102 0.0
N31 N 0.98949 0.72576 0.91077 0.0
C32 C 0.95439 0.81515 0.7531 0.0
C33 C 0.99889 0.79933 0.78009 0.0
C34 C 0.9292 0.78978 0.81591 0.0
C35 C 0.94807 0.74469 0.89581 0.0
C36 C 0.01651 0.756 0.86351 0.0
N37 N 0.94815 0.68338 0.05428 0.0
C38 C 0.9274 0.72425 0.97297 0.0
C39 C 0.89439 0.69595 0.15539 0.0
C40 C 0.8716 0.73543 0.06819 0.0
C41 C 0.93211 0.66983 0.1462 0.0
C42 C 0.88787 0.75 0.97527 0.0
H43 H 0.84219 0.75554 0.07533 0.0
O44 O 0.06949 0.66499 0.23966 0.0
O45 O 0.05681 0.56826 0.03851 0.0
O46 O 1.00054 0.5027 0.16019 0.0
O47 O 0.01277 0.60614 0.21179 0.0
O48 O 0.07365 0.64387 0.97207 0.0
O49 O 0.04744 0.73893 0.13152 0.0
O50 O 0.97678 0.4027 0.84375 0.0
O51 O 0.96788 0.56638 -0.00577 0.0
O52 O 0.99571 0.63169 0.82007 0.0
O53 O 0.99418 0.52801 0.7774 0.0
O54 O 0.93194 0.50681 0.83452 0.0
O55 O 0.9832 0.41322 0.04252 0.0
C56 C 0.08368 0.58998 -0.00946 0.0
C57 C 0.86715 0.79169 0.88935 0.0
C58 C 0.88754 0.81112 0.80863 0.0
C59 C 0.07769 0.72114 0.23565 0.0
C60 C 0.12662 0.7424 0.27713 0.0
C61 C 0.15909 0.72798 0.39654 0.0
C62 C 0.1417 0.77569 0.19947 0.0
C63 C 0.18874 0.79347 0.24046 0.0
C64 C 0.20583 0.74533 0.43662 0.0
C65 C 0.2207 0.77777 0.3588 0.0
C66 C 1.00587 0.55221 0.24086 0.0
C67 C 0.9282 0.55476 0.90144 0.0
C68 C 0.96519 0.38021 0.92915 0.0
C69 C 0.91637 0.35616 0.87976 0.0
C70 C 0.88323 0.37523 0.76623 0.0
C71 C 0.90245 0.3132 0.94268 0.0
C72 C 0.85598 0.29018 0.89245 0.0
C73 C 0.83723 0.35318 0.7185 0.0
C74 C 0.8236 0.31085 0.78111 0.0
C75 C 0.99199 0.58202 0.74077 0.0
H76 H 0.14833 0.70263 0.45826 0.0
H77 H 0.11728 0.78768 0.1075 0.0
H78 H 0.23057 0.73357 0.52828 0.0
H79 H 0.25704 0.79115 0.39125 0.0
H80 H 0.89271 0.4069 0.71287 0.0
H81 H 0.92751 0.29711 0.02854 0.0
H82 H 0.81216 0.36838 0.63156 0.0
H83 H 0.7878 0.29335 0.74148 0.0
Gd84 Gd 0.44217 1.02821 0.90509 0.0
Gd85 Gd 0.56693 1.05043 0.0422 0.0
C86 C 0.66289 0.92603 0.29958 0.0
C87 C 0.69509 0.98578 0.51352 0.0
C88 C 0.63876 1.02488 0.32561 0.0
C89 C 0.63433 0.97155 0.24822 0.0
C90 C 0.66927 1.03284 0.45913 0.0
C91 C 0.69233 0.93269 0.43341 0.0
C92 C 0.66306 0.87702 0.2132 0.0
C93 C 0.63462 0.8738 0.07983 0.0
N94 N 0.60549 0.96658 0.11937 0.0
C95 C 0.60567 0.919 0.0348 0.0
H96 H 0.58533 0.91776 0.9313 0.0
C97 C 0.62155 0.1255 0.33707 0.0
N98 N 0.61451 0.06999 0.26819 0.0
C99 C 0.65054 0.13528 0.47067 0.0
C100 C 0.67407 0.08851 0.5325 0.0
H101 H 0.6044 0.16231 0.28969 0.0
H102 H 0.71401 0.89777 0.47502 0.0
H103 H 0.42272 0.15623 0.03546 0.0
H104 H 0.68559 0.84199 0.24789 0.0
H105 H 0.63513 0.83662 0.01167 0.0
H106 H 0.71855 0.99082 0.61602 0.0
H107 H 0.4015 0.92127 0.64788 0.0
H108 H 0.31785 0.23557 0.73683 0.0
H109 H 0.37033 0.23604 0.97 0.0
H110 H 0.28471 0.098 0.35028 0.0
H111 H 0.65502 0.17902 0.52556 0.0
H112 H 0.6968 0.09639 0.63562 0.0
H113 H 0.28868 0.18625 0.50381 0.0
H114 H 0.34995 0.90967 0.41288 0.0
N115 N 0.40068 0.1117 0.84243 0.0
C116 C 0.34112 0.20079 0.76511 0.0
C117 C 0.37068 0.20121 0.89678 0.0
C118 C 0.34149 0.15505 0.6719 0.0
C119 C 0.37125 0.10974 0.71491 0.0
C120 C 0.40088 0.15662 0.93337 0.0
N121 N 0.39244 1.01341 0.68036 0.0
C122 C 0.36758 0.05926 0.63029 0.0
C123 C 0.35491 0.95222 0.47265 0.0
C124 C 0.3312 1.0002 0.41791 0.0
C125 C 0.38455 0.95919 0.60565 0.0
C126 C 0.33607 0.05392 0.49795 0.0
H127 H 0.30804 0.99458 0.31534 0.0
O128 O 0.39488 0.95583 0.90322 0.0
O129 O 0.50723 0.97823 0.97083 0.0
O130 O 0.53656 1.01464 0.82456 0.0
O131 O 0.4625 1.04488 0.739 0.0
O132 O 0.44727 0.92663 0.88357 0.0
O133 O 0.39803 1.04195 0.01105 0.0
O134 O 0.62305 0.11358 0.05798 0.0
O135 O 0.50203 0.10092 0.97507 0.0
O136 O 0.47278 0.06627 0.12131 0.0
O137 O 0.54538 1.03245 0.20558 0.0
O138 O 0.56205 0.15235 0.0507 0.0
O139 O 0.6082 1.02982 0.93084 0.0
C140 C 0.4907 0.92203 0.94078 0.0
C141 C 0.30899 0.10112 0.45175 0.0
C142 C 0.31131 0.15137 0.53907 0.0
C143 C 0.37774 0.98799 0.97278 0.0
C144 C 0.32744 0.98055 0.9273 0.0
C145 C 0.29843 1.00218 0.81216 0.0
C146 C 0.30817 0.94727 -0.00453 0.0
C147 C 0.26025 0.93483 0.94774 0.0
C148 C 0.25072 0.99026 0.76505 0.0
C149 C 0.23162 0.9564 0.83199 0.0
C150 C 0.50061 1.03078 0.72679 0.0
C151 C 0.5185 0.15706 -0.00249 0.0
C152 C 0.63598 0.07829 0.98213 0.0
C153 C 0.68588 0.07228 0.02792 0.0
C154 C 0.70615 1.02434 0.09421 0.0
C155 C 0.71385 0.11536 0.00438 0.0
C156 C 0.76142 0.11045 0.04686 0.0
C157 C 0.75345 1.01981 0.1378 0.0
C158 C 0.78111 0.06272 0.11442 0.0
C159 C 0.50786 1.04843 0.21865 0.0
H160 H 0.31256 1.02742 0.75782 0.0
H161 H 0.3304 0.92997 0.08403 0.0
H162 H 0.22853 1.00679 0.67572 0.0
H163 H 0.19461 0.94705 0.79389 0.0
H164 H 0.68573 0.99011 0.11178 0.0
H165 H 0.69867 0.15233 0.9521 0.0
H166 H 0.76861 0.98268 0.18903 0.0
H167 H 0.81771 0.05847 0.14763 0.0
Gd168 Gd 0.5678 0.54565 0.03964 0.0
Gd169 Gd 0.44169 0.53346 0.88492 0.0
C170 C 0.37265 0.37436 0.5717 0.0
C171 C 0.34962 0.41989 0.36971 0.0
C172 C 0.38551 0.48154 0.58092 0.0
C173 C 0.38967 0.43118 0.64422 0.0
C174 C 0.36657 0.4764 0.44295 0.0
C175 C 0.35243 0.36896 0.43401 0.0
C176 C 0.37726 0.32475 0.64021 0.0
C177 C 0.39692 0.33327 0.77723 0.0
N178 N 0.41139 0.43767 0.77707 0.0
C179 C 0.41227 0.39063 0.84427 0.0
H180 H 0.42673 0.39723 0.95017 0.0
C181 C 0.40155 0.58604 0.59719 0.0
N182 N 0.40401 0.5351 0.65537 0.0
C183 C 0.38361 0.58306 0.46054 0.0
C184 C 0.36686 0.52787 0.38315 0.0
H185 H 0.41482 0.62879 0.65551 0.0
H186 H 0.33939 0.32561 0.37647 0.0
H187 H 0.58174 0.68806 0.01571 0.0
H188 H 0.36575 0.28001 0.5886 0.0
H189 H 0.40195 0.29596 0.83233 0.0
H190 H 0.33478 0.41503 0.26348 0.0
H191 H 0.60379 0.43623 0.23504 0.0
H192 H 0.6429 0.78595 0.40114 0.0
H193 H 0.603 0.78403 0.16004 0.0
H194 H 0.68592 0.62896 0.67711 0.0
H195 H 0.38326 0.62329 0.41524 0.0
H196 H 0.354 0.52552 0.27741 0.0
H197 H 0.67504 0.72708 0.59439 0.0
H198 H 0.64586 0.42657 0.4682 0.0
N199 N 0.59873 0.6367 0.17315 0.0
C200 C 0.6318 0.74364 0.33822 0.0
C201 C 0.60999 0.74306 0.20246 0.0
C202 C 0.63965 0.68935 0.39042 0.0
C203 C 0.62295 0.63595 0.30364 0.0
C204 C 0.59568 0.68879 0.12081 0.0
N205 N 0.61193 0.53154 0.26165 0.0
C206 C 0.63059 0.58139 0.34958 0.0
C207 C 0.64172 0.47048 0.43612 0.0
C208 C 0.65946 0.52153 0.52757 0.0
C209 C 0.6179 0.47627 0.30312 0.0
C210 C 0.65381 0.57796 0.48476 0.0
H211 H 0.67719 0.51692 0.6307 0.0
O212 O 0.63295 0.51095 0.05102 0.0
O213 O 0.50427 0.47705 0.96238 0.0
O214 O 0.46386 0.52777 0.09965 0.0
O215 O 0.54264 0.55381 0.20037 0.0
O216 O 0.56563 0.44278 0.00742 0.0
O217 O 0.60646 0.58181 0.93671 0.0
O218 O 0.37442 0.56734 0.83715 0.0
O219 O 0.50482 0.60248 0.96938 0.0
O220 O 0.53989 0.57143 0.83636 0.0
O221 O 0.47194 0.51371 0.73676 0.0
O222 O 0.4423 0.63565 0.89291 0.0
O223 O 0.39617 0.50318 0.9751 0.0
C224 C 0.52261 0.42564 0.96863 0.0
C225 C 0.66939 0.63085 0.5727 0.0
C226 C 0.66267 0.68657 0.52562 0.0
C227 C 0.64036 0.54826 0.97829 0.0
C228 C 0.68768 0.5794 0.02252 0.0
C229 C 0.70137 0.62786 0.12206 0.0
C230 C 0.71849 0.56404 0.96212 0.0
C231 C 0.76199 0.59772 0.00171 0.0
C232 C 0.74329 0.66134 0.15918 0.0
C233 C 0.77305 0.64661 0.09959 0.0
C234 C 0.50258 0.54062 0.2042 0.0
C235 C 0.48555 0.65312 0.94767 0.0
C236 C 0.36386 0.53724 0.91655 0.0
C237 C 0.34257 0.57056 -0.0028 0.0
C238 C 0.36702 0.62135 0.08357 0.0
C239 C 0.29683 0.55438 0.98285 0.0
C240 C 0.27539 0.59032 0.0507 0.0
C241 C 0.34643 0.65637 0.1513 0.0
C242 C 0.30113 0.64147 0.13434 0.0
C243 C 0.5081 0.54137 0.73099 0.0
H244 H 0.67953 0.64046 0.17109 0.0
H245 H 0.70905 0.5261 0.88662 0.0
H246 H 0.75299 0.69887 0.2357 0.0
H247 H 0.80545 0.67293 0.13281 0.0
H248 H 0.40189 0.63456 0.09681 0.0
H249 H 0.27753 0.51525 0.9163 0.0
H250 H 0.36558 0.69587 0.21653 0.0
H251 H 0.28596 0.67034 0.1865 0.0
C252 C 0.95864 0.54108 0.50263 0.0
C253 C 0.98992 0.58374 0.60456 0.0
C254 C 0.03656 0.59222 0.47597 0.0
C255 C 1.00479 0.55118 0.37308 0.0
N256 N 0.94571 0.47005 0.31225 0.0
N257 N 0.05356 0.65977 0.67108 0.0
C258 C 0.96827 0.52106 0.39192 0.0
C259 C 0.02686 0.61283 0.585 0.0
N260 N 0.91884 0.52105 0.51065 0.0
N261 N 0.07845 0.60731 0.47457 0.0
H262 H 0.05007 0.67367 0.75621 0.0
H263 H 0.07656 0.68779 0.65269 0.0
H264 H 0.08841 0.58765 0.40282 0.0
H265 H 0.10528 0.633 0.55153 0.0
H266 H 0.8923 0.49434 0.43476 0.0
H267 H 0.91037 0.53686 0.58827 0.0
H268 H 0.92136 0.44321 0.32754 0.0
H269 H 0.95614 0.44966 0.24263 0.0
C270 C 0.4808 0.99425 0.3652 0.0
C271 C 0.50476 1.04493 0.34778 0.0
C272 C 0.52794 0.08428 0.58025 0.0
C273 C 0.50344 1.03409 0.59735 0.0
N274 N 0.46482 0.93559 0.51469 0.0
N275 N 0.54181 0.14427 0.42994 0.0
C276 C 0.48173 0.98774 0.49164 0.0
C277 C 0.52607 0.09142 0.45328 0.0
N278 N 0.45579 0.95317 0.25944 0.0
N279 N 0.5545 0.12422 0.68658 0.0
H280 H 0.54007 0.15099 0.33786 0.0
H281 H 0.55267 0.18276 0.49746 0.0
H282 H 0.55585 0.12165 0.78036 0.0
H283 H 0.57783 0.15737 0.68431 0.0
H284 H 0.43263 0.91942 0.2602 0.0
H285 H 0.45594 0.95499 0.16713 0.0
H286 H 0.45328 0.89703 0.44757 0.0
H287 H 0.46585 0.92943 0.60635 0.0
C288 C 0.48853 0.49065 0.50244 0.0
C289 C 0.51012 0.54116 0.59897 0.0
C290 C 0.52465 0.59172 0.43205 0.0
C291 C 0.50177 0.54199 0.33627 0.0
N292 N 0.452 0.44975 0.27514 0.0
N293 N 0.56058 0.63408 0.6574 0.0
C294 C 0.48057 0.49344 0.36951 0.0
C295 C 0.53159 0.59002 0.56492 0.0
N296 N 0.4797 0.43712 0.5392 0.0
N297 N 0.53635 0.64347 0.39404 0.0
H298 H 0.56441 0.64277 0.75353 0.0
H299 H 0.58392 0.6618 0.63964 0.0
H300 H 0.53183 0.64761 0.29832 0.0
H301 H 0.54621 0.68432 0.45398 0.0
H302 H 0.46972 0.39704 0.47653 0.0
H303 H 0.48781 0.43041 0.63566 0.0
H304 H 0.42984 0.4197 0.2921 0.0
H305 H 0.4475 0.44494 0.17776 0.0
C306 C 0.14233 0.56795 0.89471 0.0
C307 C 0.13154 0.57413 0.00683 0.0
C308 C 0.21471 0.57409 0.14349 0.0
C309 C 0.22563 0.57797 0.03253 0.0
N310 N 0.19749 0.58963 0.80255 0.0
N311 N 0.16051 0.59197 0.24268 0.0
C312 C 0.18877 0.57722 0.90785 0.0
C313 C 0.16863 0.57946 0.13262 0.0
N314 N 0.10801 0.55176 0.77421 0.0
N315 N 0.24832 0.56394 0.25957 0.0
H316 H 0.12758 0.5936 0.24017 0.0
H317 H 0.18664 0.60375 0.33574 0.0
H318 H 0.28179 0.55841 0.26978 0.0
H319 H 0.2419 0.55472 0.34036 0.0
H320 H 0.11394 0.53935 0.69057 0.0
H321 H 0.07423 0.54337 0.76248 0.0
H322 H 0.17166 0.59576 0.71279 0.0
H323 H 0.23044 0.60002 0.8078 0.0
C324 C 0.80535 0.21109 0.09614 0.0
C325 C 0.79063 0.15472 0.01771 0.0
C326 C 0.83122 0.18296 0.88353 0.0
C327 C 0.84024 0.24194 0.9499 0.0
N328 N 0.83521 0.31396 0.11624 0.0
N329 N 0.78657 0.0871 0.83193 0.0
C330 C 0.82759 0.25639 0.05652 0.0
C331 C 0.80315 0.14039 0.91073 0.0
N332 N 0.79864 0.22084 0.20943 0.0
N333 N 0.84991 0.1678 0.79515 0.0
H334 H 0.76627 0.05446 0.84943 0.0
H335 H 0.78996 0.07679 0.74376 0.0
H336 H 0.8707 0.19816 0.77346 0.0
H337 H 0.84842 0.12424 0.75232 0.0
H338 H 0.81264 0.25865 0.27799 0.0
H339 H 0.78197 0.18878 0.24034 0.0
H340 H 0.82181 0.3293 0.18336 0.0
H341 H 0.85326 0.34745 0.09352 0.0
C342 C 0.50921 0.82954 0.07393 0.0
C343 C 0.50799 0.85695 0.96286 0.0
C344 C 0.50243 0.75059 0.85312 0.0
C345 C 0.5011 0.72294 0.96234 0.0
N346 N 0.49002 0.7425 0.16222 0.0
N347 N 0.51249 0.84002 0.75485 0.0
C348 C 0.50132 0.76458 0.06896 0.0
C349 C 0.50714 0.81591 0.85525 0.0
N350 N 0.5193 0.86609 0.18774 0.0
N351 N 0.49531 0.71403 0.74117 0.0
H352 H 0.5179 0.88607 0.75784 0.0
H353 H 0.51659 0.81555 0.67717 0.0
H354 H 0.49192 0.66768 0.73591 0.0
H355 H 0.4898 0.72879 0.65154 0.0
H356 H 0.52535 0.85043 0.27702 0.0
H357 H 0.52709 0.912 0.19457 0.0
H358 H 0.48477 0.76938 0.23525 0.0
H359 H 0.48081 0.69723 0.15735 0.0
C360 C 0.85147 0.60314 0.84543 0.0
C361 C 0.88275 0.563 0.91632 0.0
C362 C 0.82848 0.53645 0.01686 0.0
C363 C 0.79926 0.58013 0.95553 0.0
N364 N 0.7846 0.65881 0.81777 0.0
N365 N 0.88965 0.47556 0.02674 0.0
C366 C 0.81092 0.61389 0.86981 0.0
C367 C 0.86794 0.52537 -0.01006 0.0
N368 N 0.85988 0.62962 0.7517 0.0
N369 N 0.82031 0.5075 0.10824 0.0
H370 H 0.91878 0.4664 0.0121 0.0
H371 H 0.87614 0.44082 0.05897 0.0
H372 H 0.79129 0.51219 0.12865 0.0
H373 H 0.84392 0.48185 0.17066 0.0
H374 H 0.83683 0.65482 0.68667 0.0
H375 H 0.88922 0.62324 0.73356 0.0
H376 H 0.79274 0.68906 0.76431 0.0
H377 H 0.75572 0.66843 0.83575 0.0
C378 C 0.21 0.89291 0.18792 0.0
C379 C 0.20486 0.82961 0.16066 0.0
C380 C 0.23712 0.83501 -0.00411 0.0
C381 C 0.24007 0.89843 0.01858 0.0
N382 N 0.22285 0.98821 0.1195 0.0
N383 N 0.20718 0.7399 0.02836 0.0
C384 C 0.22449 0.92751 0.10956 0.0
C385 C 0.21653 0.80047 0.06134 0.0
N386 N 0.20234 0.91985 0.29139 0.0
N387 N 0.25486 0.80793 0.91369 0.0
H388 H 0.19329 0.71305 0.07666 0.0
H389 H 0.21018 0.71653 0.94772 0.0
H390 H 0.26838 0.83165 0.85976 0.0
H391 H 0.25882 0.76237 0.90448 0.0
H392 H 0.21117 0.96502 0.3271 0.0
H393 H 0.18997 0.89627 0.34796 0.0
H394 H 0.20701 1.01142 0.17274 0.0
H395 H 0.23494 1.01541 0.06784 0.0
C396 C 0.50741 0.31188 0.85772 0.0
C397 C 0.50751 0.35581 0.96083 0.0
C398 C 0.50225 0.26518 0.07656 0.0
C399 C 0.50078 0.22198 0.97116 0.0
N400 N 0.48842 0.20916 0.74546 0.0
N401 N 0.51435 0.36889 0.18293 0.0
C402 C 0.49899 0.24734 0.85732 0.0
C403 C 0.50663 0.33035 0.07313 0.0
N404 N 0.52016 0.33109 0.76452 0.0
N405 N 0.4981 0.24328 0.18071 0.0
H406 H 0.51851 0.41506 0.18501 0.0
H407 H 0.51979 0.35591 0.27403 0.0
H408 H 0.49337 0.19748 0.18207 0.0
H409 H 0.49459 0.26916 0.2577 0.0
H410 H 0.5251 0.30231 0.69354 0.0
H411 H 0.53193 0.37534 0.7697 0.0
H412 H 0.48195 0.22343 0.65463 0.0
H413 H 0.48074 0.16345 0.74205 0.0
loop_
_geom_bond_atom_site_label_1
_geom_bond_atom_site_label_2
_geom_bond_distance
_geom_bond_site_symmetry_2
_ccdc_geom_bond_type
Gd0 N31 2.661 1_454 S
Gd0 N37 2.601 . S
Gd0 O44 2.545 . S
Gd0 O45 2.606 . S
Gd0 O47 2.429 . S
Gd0 O48 2.545 . S
Gd0 O49 2.412 1_554 S
Gd0 O51 2.362 1_454 S
Gd0 O52 2.324 1_454 S
Gd0 C59 2.828 . S
Gd1 N10 2.661 1_656 S
Gd1 N14 2.601 . S
Gd1 O45 2.362 1_656 S
Gd1 O46 2.324 1_656 S
Gd1 O50 2.545 . S
Gd1 O51 2.606 . S
Gd1 O53 2.429 . S
Gd1 O54 2.545 . S
Gd1 O55 2.412 1_556 S
Gd1 C68 2.828 . S
C2 C5 1.417 . S
C2 C7 1.431 1_554 S
C2 C8 1.412 . S
C3 C6 1.437 . S
C3 C7 1.317 . S
C3 H22 0.929 . S
C4 C5 1.426 1_556 S
C4 C6 1.413 . S
C4 N14 1.359 1_455 S
C5 C2 1.417 . S
C5 C4 1.426 1_554 S
C5 N10 1.350 . S
C6 C3 1.437 . S
C6 C4 1.413 . S
C6 C16 1.391 . S
C7 C2 1.431 1_556 S
C7 C3 1.317 . S
C7 H18 0.930 1_556 S
C8 C2 1.412 . S
C8 C9 1.355 . S
C8 H20 0.930 . S
C9 C8 1.355 . S
C9 C11 1.402 . S
C9 H21 0.930 . S
N10 Gd1 2.661 1_454 S
N10 C5 1.350 . S
N10 C11 1.307 . S
C11 C9 1.402 . S
C11 N10 1.307 . S
C11 H12 0.930 . S
H12 C11 0.930 . S
C13 N14 1.334 . S
C13 C15 1.394 . S
C13 H17 0.930 . S
N14 Gd1 2.601 . S
N14 C4 1.359 1_655 S
N14 C13 1.334 . S
C15 C13 1.394 . S
C15 C16 1.359 1_655 S
C15 H27 0.930 . S
C16 C6 1.391 . S
C16 C15 1.359 1_455 S
C16 H28 0.929 . S
H17 C13 0.930 . S
H18 C7 0.930 1_554 S
H19 C36 0.930 . S
H20 C8 0.930 . S
H21 C9 0.930 . S
H22 C3 0.929 . S
H23 C41 0.930 . S
H24 C32 0.930 . S
H25 C33 0.930 . S
H26 C57 0.929 . S
H27 C15 0.930 . S
H28 C16 0.929 . S
H29 C58 0.930 1_556 S
H30 C39 0.930 . S
N31 Gd0 2.661 1_656 S
N31 C35 1.350 . S
N31 C36 1.307 . S
C32 H24 0.930 . S
C32 C33 1.355 . S
C32 C34 1.412 . S
C33 H25 0.930 . S
C33 C32 1.355 . S
C33 C36 1.402 . S
C34 C32 1.412 . S
C34 C35 1.417 . S
C34 C58 1.431 1_556 S
C35 N31 1.350 . S
C35 C34 1.417 . S
C35 C38 1.426 1_556 S
C36 H19 0.930 . S
C36 N31 1.307 . S
C36 C33 1.402 . S
N37 Gd0 2.601 . S
N37 C38 1.359 1_455 S
N37 C41 1.334 . S
C38 C35 1.426 1_554 S
C38 N37 1.359 1_655 S
C38 C42 1.413 . S
C39 H30 0.930 . S
C39 C40 1.359 1_455 S
C39 C41 1.394 . S
C40 C39 1.359 1_655 S
C40 C42 1.391 . S
C40 H43 0.929 . S
C41 H23 0.930 . S
C41 N37 1.334 . S
C41 C39 1.394 . S
C42 C38 1.413 . S
C42 C40 1.391 . S
C42 C57 1.437 . S
H43 C40 0.929 . S
O44 Gd0 2.545 . S
O44 C59 1.258 . S
O45 Gd0 2.606 . S
O45 Gd1 2.362 1_454 S
O45 C56 1.284 . S
O46 Gd1 2.324 1_454 S
O46 C66 1.254 . S
O47 Gd0 2.429 . S
O47 C66 1.268 . S
O48 Gd0 2.545 . S
O48 C56 1.250 . S
O49 Gd0 2.412 1_556 S
O49 C59 1.252 1_556 S
O50 Gd1 2.545 . S
O50 C68 1.258 . S
O51 Gd0 2.362 1_656 S
O51 Gd1 2.606 . S
O51 C67 1.284 . S
O52 Gd0 2.324 1_656 S
O52 C75 1.254 . S
O53 Gd1 2.429 . S
O53 C75 1.268 . S
O54 Gd1 2.545 . S
O54 C67 1.250 . S
O55 Gd1 2.412 1_554 S
O55 C68 1.252 1_554 S
C56 O45 1.284 . S
C56 O48 1.250 . S
C57 H26 0.929 . S
C57 C42 1.437 . S
C57 C58 1.317 . S
C58 H29 0.930 1_554 S
C58 C34 1.431 1_554 S
C58 C57 1.317 . S
C59 Gd0 2.828 . S
C59 O44 1.258 . S
C59 O49 1.252 1_554 S
C59 C60 1.497 . S
C60 C59 1.497 . S
C60 C61 1.395 . S
C60 C62 1.380 1_554 S
C61 C60 1.395 . S
C61 C64 1.398 . S
C61 H76 0.930 . S
C62 C60 1.380 1_556 S
C62 C63 1.391 1_556 S
C62 H77 0.930 . S
C63 C62 1.391 1_554 S
C63 C65 1.387 . S
C64 C61 1.398 . S
C64 C65 1.380 . S
C64 H78 0.930 . S
C65 C63 1.387 . S
C65 C64 1.380 . S
C65 H79 0.930 . S
C66 O46 1.254 . S
C66 O47 1.268 . S
C67 O51 1.284 . S
C67 O54 1.250 . S
C68 Gd1 2.828 . S
C68 O50 1.258 . S
C68 O55 1.252 1_556 S
C68 C69 1.497 . S
C69 C68 1.497 . S
C69 C70 1.395 . S
C69 C71 1.380 1_556 S
C70 C69 1.395 . S
C70 C73 1.398 . S
C70 H80 0.930 . S
C71 C69 1.380 1_554 S
C71 C72 1.391 1_554 S
C71 H81 0.930 . S
C72 C71 1.391 1_556 S
C72 C74 1.387 . S
C73 C70 1.398 . S
C73 C74 1.380 . S
C73 H82 0.930 . S
C74 C72 1.387 . S
C74 C73 1.380 . S
C74 H83 0.930 . S
C75 O52 1.254 . S
C75 O53 1.268 . S
H76 C61 0.930 . S
H77 C62 0.930 . S
H78 C64 0.930 . S
H79 C65 0.930 . S
H80 C70 0.930 . S
H81 C71 0.930 . S
H82 C73 0.930 . S
H83 C74 0.930 . S
Gd84 N115 2.661 1_565 S
Gd84 N121 2.601 1_565 S
Gd84 O128 2.545 . S
Gd84 O129 2.606 1_556 S
Gd84 O131 2.429 . S
Gd84 O132 2.545 . S
Gd84 O133 2.412 . S
Gd84 O135 2.362 1_565 S
Gd84 O136 2.324 1_556 S
Gd84 C143 2.828 . S
Gd85 N94 2.661 1_545 S
Gd85 N98 2.601 1_545 S
Gd85 O129 2.362 1_545 S
Gd85 O130 2.324 1_554 S
Gd85 O134 2.545 . S
Gd85 O135 2.606 1_554 S
Gd85 O137 2.429 . S
Gd85 O138 2.545 . S
Gd85 O139 2.412 . S
Gd85 C152 2.828 . S
C86 C89 1.417 . S
C86 C91 1.431 . S
C86 C92 1.412 1_554 S
C87 C90 1.437 . S
C87 C91 1.317 . S
C87 H106 0.929 . S
C88 C89 1.426 . S
C88 C90 1.413 . S
C88 N98 1.359 . S
C89 C86 1.417 . S
C89 C88 1.426 . S
C89 N94 1.350 . S
C90 C87 1.437 . S
C90 C88 1.413 . S
C90 C100 1.391 . S
C91 C86 1.431 . S
C91 C87 1.317 . S
C91 H102 0.930 . S
C92 C86 1.412 1_556 S
C92 C93 1.355 . S
C92 H104 0.930 . S
C93 C92 1.355 . S
C93 C95 1.402 . S
C93 H105 0.930 . S
N94 Gd85 2.661 1_565 S
N94 C89 1.350 . S
N94 C95 1.307 1_554 S
C95 C93 1.402 . S
C95 N94 1.307 1_556 S
C95 H96 0.930 . S
H96 C95 0.930 . S
C97 N98 1.334 . S
C97 C99 1.394 . S
C97 H101 0.930 1_565 S
N98 Gd85 2.601 1_565 S
N98 C88 1.359 . S
N98 C97 1.334 . S
C99 C97 1.394 . S
C99 C100 1.359 . S
C99 H111 0.930 . S
C100 C90 1.391 . S
C100 C99 1.359 . S
C100 H112 0.929 . S
H101 C97 0.930 1_545 S
H102 C91 0.930 . S
H103 C120 0.930 . S
H104 C92 0.930 . S
H105 C93 0.930 . S
H106 C87 0.929 . S
H107 C125 0.930 1_565 S
H108 C116 0.930 . S
H109 C117 0.930 . S
H110 C141 0.929 . S
H111 C99 0.930 . S
H112 C100 0.929 . S
H113 C142 0.930 . S
H114 C123 0.930 . S
N115 Gd84 2.661 1_545 S
N115 C119 1.350 . S
N115 C120 1.307 1_556 S
C116 H108 0.930 . S
C116 C117 1.355 . S
C116 C118 1.412 1_554 S
C117 H109 0.930 . S
C117 C116 1.355 . S
C117 C120 1.402 . S
C118 C116 1.412 1_556 S
C118 C119 1.417 . S
C118 C142 1.431 . S
C119 N115 1.350 . S
C119 C118 1.417 . S
C119 C122 1.426 . S
C120 H103 0.930 . S
C120 N115 1.307 1_554 S
C120 C117 1.402 . S
N121 Gd84 2.601 1_545 S
N121 C122 1.359 . S
N121 C125 1.334 . S
C122 C119 1.426 . S
C122 N121 1.359 . S
C122 C126 1.413 . S
C123 H114 0.930 . S
C123 C124 1.359 . S
C123 C125 1.394 . S
C124 C123 1.359 . S
C124 C126 1.391 . S
C124 H127 0.929 . S
C125 H107 0.930 1_545 S
C125 N121 1.334 . S
C125 C123 1.394 . S
C126 C122 1.413 . S
C126 C124 1.391 . S
C126 C141 1.437 . S
H127 C124 0.929 . S
O128 Gd84 2.545 . S
O128 C143 1.258 . S
O129 Gd84 2.606 1_554 S
O129 Gd85 2.362 1_565 S
O129 C140 1.284 . S
O130 Gd85 2.324 1_556 S
O130 C150 1.253 . S
O131 Gd84 2.429 . S
O131 C150 1.267 1_565 S
O132 Gd84 2.545 . S
O132 C140 1.250 1_556 S
O133 Gd84 2.412 . S
O133 C143 1.252 . S
O134 Gd85 2.545 . S
O134 C152 1.258 . S
O135 Gd84 2.362 1_545 S
O135 Gd85 2.606 1_556 S
O135 C151 1.284 . S
O136 Gd84 2.324 1_554 S
O136 C159 1.254 . S
O137 Gd85 2.429 . S
O137 C159 1.268 1_545 S
O138 Gd85 2.545 . S
O138 C151 1.250 1_554 S
O139 Gd85 2.412 . S
O139 C152 1.252 . S
C140 O129 1.284 . S
C140 O132 1.250 1_554 S
C141 H110 0.929 . S
C141 C126 1.437 . S
C141 C142 1.317 . S
C142 H113 0.930 . S
C142 C118 1.431 . S
C142 C141 1.317 . S
C143 Gd84 2.828 . S
C143 O128 1.258 . S
C143 O133 1.252 . S
C143 C144 1.497 . S
C144 C143 1.497 . S
C144 C145 1.395 . S
C144 C146 1.380 . S
C145 C144 1.395 . S
C145 C148 1.398 . S
C145 H160 0.930 . S
C146 C144 1.380 . S
C146 C147 1.391 . S
C146 H161 0.930 1_556 S
C147 C146 1.391 . S
C147 C149 1.387 . S
C148 C145 1.398 . S
C148 C149 1.380 . S
C148 H162 0.930 . S
C149 C147 1.387 . S
C149 C148 1.380 . S
C149 H163 0.930 . S
C150 O130 1.253 . S
C150 O131 1.267 1_545 S
C151 O135 1.284 . S
C151 O138 1.250 1_556 S
C152 Gd85 2.828 . S
C152 O134 1.258 . S
C152 O139 1.252 . S
C152 C153 1.497 . S
C153 C152 1.497 . S
C153 C154 1.395 . S
C153 C155 1.380 . S
C154 C153 1.395 . S
C154 C157 1.398 . S
C154 H164 0.930 . S
C155 C153 1.380 . S
C155 C156 1.391 . S
C155 H165 0.930 1_554 S
C156 C155 1.391 . S
C156 C158 1.387 . S
C157 C154 1.398 . S
C157 C158 1.380 . S
C157 H166 0.930 . S
C158 C156 1.387 . S
C158 C157 1.380 . S
C158 H167 0.930 . S
C159 O136 1.254 . S
C159 O137 1.268 1_565 S
H160 C145 0.930 . S
H161 C146 0.930 1_554 S
H162 C148 0.930 . S
H163 C149 0.930 . S
H164 C154 0.930 . S
H165 C155 0.930 1_556 S
H166 C157 0.930 . S
H167 C158 0.930 . S
Gd168 N199 2.661 . S
Gd168 N205 2.601 . S
Gd168 O212 2.545 . S
Gd168 O213 2.606 1_554 S
Gd168 O215 2.429 . S
Gd168 O216 2.545 . S
Gd168 O217 2.412 . S
Gd168 O219 2.362 . S
Gd168 O220 2.324 1_554 S
Gd168 C227 2.828 . S
Gd169 N178 2.661 . S
Gd169 N182 2.601 . S
Gd169 O213 2.362 . S
Gd169 O214 2.324 1_556 S
Gd169 O218 2.545 . S
Gd169 O219 2.606 1_556 S
Gd169 O221 2.429 . S
Gd169 O222 2.545 . S
Gd169 O223 2.412 . S
Gd169 C236 2.828 . S
C170 C173 1.417 . S
C170 C175 1.431 . S
C170 C176 1.412 1_556 S
C171 C174 1.437 . S
C171 C175 1.317 . S
C171 H190 0.929 . S
C172 C173 1.426 . S
C172 C174 1.413 . S
C172 N182 1.359 . S
C173 C170 1.417 . S
C173 C172 1.426 . S
C173 N178 1.350 . S
C174 C171 1.437 . S
C174 C172 1.413 . S
C174 C184 1.391 . S
C175 C170 1.431 . S
C175 C171 1.317 . S
C175 H186 0.930 . S
C176 C170 1.412 1_554 S
C176 C177 1.355 . S
C176 H188 0.930 . S
C177 C176 1.355 . S
C177 C179 1.402 . S
C177 H189 0.930 . S
N178 Gd169 2.661 . S
N178 C173 1.350 . S
N178 C179 1.307 1_556 S
C179 C177 1.402 . S
C179 N178 1.307 1_554 S
C179 H180 0.930 . S
H180 C179 0.930 . S
C181 N182 1.334 . S
C181 C183 1.394 . S
C181 H185 0.930 . S
N182 Gd169 2.601 . S
N182 C172 1.359 . S
N182 C181 1.334 . S
C183 C181 1.394 . S
C183 C184 1.359 . S
C183 H195 0.930 . S
C184 C174 1.391 . S
C184 C183 1.359 . S
C184 H196 0.929 . S
H185 C181 0.930 . S
H186 C175 0.930 . S
H187 C204 0.930 . S
H188 C176 0.930 . S
H189 C177 0.930 . S
H190 C171 0.929 . S
H191 C209 0.930 . S
H192 C200 0.930 . S
H193 C201 0.930 . S
H194 C225 0.929 . S
H195 C183 0.930 . S
H196 C184 0.929 . S
H197 C226 0.930 . S
H198 C207 0.930 . S
N199 Gd168 2.661 . S
N199 C203 1.350 . S
N199 C204 1.307 1_554 S
C200 H192 0.930 . S
C200 C201 1.355 . S
C200 C202 1.412 1_556 S
C201 H193 0.930 . S
C201 C200 1.355 . S
C201 C204 1.402 . S
C202 C200 1.412 1_554 S
C202 C203 1.417 . S
C202 C226 1.431 . S
C203 N199 1.350 . S
C203 C202 1.417 . S
C203 C206 1.426 . S
C204 H187 0.930 . S
C204 N199 1.307 1_556 S
C204 C201 1.402 . S
N205 Gd168 2.601 . S
N205 C206 1.359 . S
N205 C209 1.334 . S
C206 C203 1.426 . S
C206 N205 1.359 . S
C206 C210 1.413 . S
C207 H198 0.930 . S
C207 C208 1.359 . S
C207 C209 1.394 . S
C208 C207 1.359 . S
C208 C210 1.391 . S
C208 H211 0.929 . S
C209 H191 0.930 . S
C209 N205 1.334 . S
C209 C207 1.394 . S
C210 C206 1.413 . S
C210 C208 1.391 . S
C210 C225 1.437 . S
H211 C208 0.929 . S
O212 Gd168 2.545 . S
O212 C227 1.258 . S
O213 Gd168 2.606 1_556 S
O213 Gd169 2.362 . S
O213 C224 1.284 . S
O214 Gd169 2.324 1_554 S
O214 C234 1.254 . S
O215 Gd168 2.429 . S
O215 C234 1.268 . S
O216 Gd168 2.545 . S
O216 C224 1.250 1_554 S
O217 Gd168 2.412 . S
O217 C227 1.252 . S
O218 Gd169 2.545 . S
O218 C236 1.258 . S
O219 Gd168 2.362 . S
O219 Gd169 2.606 1_554 S
O219 C235 1.284 . S
O220 Gd168 2.324 1_556 S
O220 C243 1.254 . S
O221 Gd169 2.429 . S
O221 C243 1.268 . S
O222 Gd169 2.545 . S
O222 C235 1.250 1_556 S
O223 Gd169 2.412 . S
O223 C236 1.252 . S
C224 O213 1.284 . S
C224 O216 1.250 1_556 S
C225 H194 0.929 . S
C225 C210 1.437 . S
C225 C226 1.317 . S
C226 H197 0.930 . S
C226 C202 1.431 . S
C226 C225 1.317 . S
C227 Gd168 2.828 . S
C227 O212 1.258 . S
C227 O217 1.252 . S
C227 C228 1.497 . S
C228 C227 1.497 . S
C228 C229 1.395 . S
C228 C230 1.380 . S
C229 C228 1.395 . S
C229 C232 1.398 . S
C229 H244 0.930 . S
C230 C228 1.380 . S
C230 C231 1.391 . S
C230 H245 0.930 1_554 S
C231 C230 1.391 . S
C231 C233 1.387 . S
C232 C229 1.398 . S
C232 C233 1.380 . S
C232 H246 0.930 . S
C233 C231 1.387 . S
C233 C232 1.380 . S
C233 H247 0.930 . S
C234 O214 1.254 . S
C234 O215 1.268 . S
C235 O219 1.284 . S
C235 O222 1.250 1_554 S
C236 Gd169 2.828 . S
C236 O218 1.258 . S
C236 O223 1.252 . S
C236 C237 1.497 . S
C237 C236 1.497 . S
C237 C238 1.395 . S
C237 C239 1.380 . S
C238 C237 1.395 . S
C238 C241 1.398 . S
C238 H248 0.930 . S
C239 C237 1.380 . S
C239 C240 1.391 . S
C239 H249 0.930 1_556 S
C240 C239 1.391 . S
C240 C242 1.387 . S
C241 C238 1.398 . S
C241 C242 1.380 . S
C241 H250 0.930 . S
C242 C240 1.387 . S
C242 C241 1.380 . S
C242 H251 0.930 . S
C243 O220 1.254 . S
C243 O221 1.268 . S
H244 C229 0.930 . S
H245 C230 0.930 1_556 S
H246 C232 0.930 . S
H247 C233 0.930 . S
H248 C238 0.930 . S
H249 C239 0.930 1_554 S
H250 C241 0.930 . S
H251 C242 0.930 . S
C252 C253 1.363 . S
C252 C258 1.379 . S
C252 N260 1.356 . S
C253 C252 1.363 . S
C253 C259 1.363 1_655 S
C254 C255 1.363 . S
C254 C259 1.379 . S
C254 N261 1.356 . S
C255 C254 1.363 . S
C255 C258 1.363 1_455 S
N256 C258 1.356 . S
N256 H268 0.984 . S
N256 H269 0.985 . S
N257 C259 1.356 . S
N257 H262 0.984 . S
N257 H263 0.985 . S
C258 C252 1.379 . S
C258 C255 1.363 1_655 S
C258 N256 1.356 . S
C259 C253 1.363 1_455 S
C259 C254 1.379 . S
C259 N257 1.356 . S
N260 C252 1.356 . S
N260 H266 0.984 . S
N260 H267 0.984 . S
N261 C254 1.356 . S
N261 H264 0.984 . S
N261 H265 0.985 . S
H262 N257 0.984 . S
H263 N257 0.985 . S
H264 N261 0.984 . S
H265 N261 0.985 . S
H266 N260 0.984 . S
H267 N260 0.984 . S
H268 N256 0.984 . S
H269 N256 0.985 . S
C270 C271 1.363 . S
C270 C276 1.379 . S
C270 N278 1.356 . S
C271 C270 1.363 . S
C271 C277 1.363 1_565 S
C272 C273 1.363 . S
C272 C277 1.379 . S
C272 N279 1.356 . S
C273 C272 1.363 . S
C273 C276 1.363 1_545 S
N274 C276 1.356 . S
N274 H286 0.984 . S
N274 H287 0.985 . S
N275 C277 1.356 . S
N275 H280 0.984 . S
N275 H281 0.985 . S
C276 C270 1.379 . S
C276 C273 1.363 1_565 S
C276 N274 1.356 . S
C277 C271 1.363 1_545 S
C277 C272 1.379 . S
C277 N275 1.356 . S
N278 C270 1.356 . S
N278 H284 0.984 . S
N278 H285 0.984 . S
N279 C272 1.356 . S
N279 H282 0.984 . S
N279 H283 0.985 . S
H280 N275 0.984 . S
H281 N275 0.985 . S
H282 N279 0.984 . S
H283 N279 0.985 . S
H284 N278 0.984 . S
H285 N278 0.984 . S
H286 N274 0.984 . S
H287 N274 0.985 . S
C288 C289 1.363 . S
C288 C294 1.379 . S
C288 N296 1.356 . S
C289 C288 1.363 . S
C289 C295 1.363 . S
C290 C291 1.363 . S
C290 C295 1.379 . S
C290 N297 1.356 . S
C291 C290 1.363 . S
C291 C294 1.363 . S
N292 C294 1.356 . S
N292 H304 0.984 . S
N292 H305 0.985 . S
N293 C295 1.356 . S
N293 H298 0.984 . S
N293 H299 0.985 . S
C294 C288 1.379 . S
C294 C291 1.363 . S
C294 N292 1.356 . S
C295 C289 1.363 . S
C295 C290 1.379 . S
C295 N293 1.356 . S
N296 C288 1.356 . S
N296 H302 0.984 . S
N296 H303 0.984 . S
N297 C290 1.356 . S
N297 H300 0.984 . S
N297 H301 0.985 . S
H298 N293 0.984 . S
H299 N293 0.985 . S
H300 N297 0.984 . S
H301 N297 0.985 . S
H302 N296 0.984 . S
H303 N296 0.984 . S
H304 N292 0.984 . S
H305 N292 0.985 . S
C306 C307 1.363 1_556 S
C306 C312 1.379 . S
C306 N314 1.356 . S
C307 C306 1.363 1_554 S
C307 C313 1.363 . S
C308 C309 1.363 . S
C308 C313 1.379 . S
C308 N315 1.356 . S
C309 C308 1.363 . S
C309 C312 1.363 1_554 S
N310 C312 1.356 . S
N310 H322 0.984 . S
N310 H323 0.985 . S
N311 C313 1.356 . S
N311 H316 0.984 . S
N311 H317 0.985 . S
C312 C306 1.379 . S
C312 C309 1.363 1_556 S
C312 N310 1.356 . S
C313 C307 1.363 . S
C313 C308 1.379 . S
C313 N311 1.356 . S
N314 C306 1.356 . S
N314 H320 0.984 . S
N314 H321 0.984 . S
N315 C308 1.356 . S
N315 H318 0.984 . S
N315 H319 0.985 . S
H316 N311 0.984 . S
H317 N311 0.985 . S
H318 N315 0.984 . S
H319 N315 0.985 . S
H320 N314 0.984 . S
H321 N314 0.984 . S
H322 N310 0.984 . S
H323 N310 0.985 . S
C324 C325 1.363 . S
C324 C330 1.379 . S
C324 N332 1.356 . S
C325 C324 1.363 . S
C325 C331 1.363 1_554 S
C326 C327 1.363 1_556 S
C326 C331 1.379 . S
C326 N333 1.356 . S
C327 C326 1.363 1_554 S
C327 C330 1.363 . S
N328 C330 1.356 . S
N328 H340 0.984 . S
N328 H341 0.985 . S
N329 C331 1.356 . S
N329 H334 0.984 . S
N329 H335 0.985 . S
C330 C324 1.379 . S
C330 C327 1.363 . S
C330 N328 1.356 . S
C331 C325 1.363 1_556 S
C331 C326 1.379 . S
C331 N329 1.356 . S
N332 C324 1.356 . S
N332 H338 0.984 . S
N332 H339 0.984 . S
N333 C326 1.356 . S
N333 H336 0.984 . S
N333 H337 0.985 . S
H334 N329 0.984 . S
H335 N329 0.985 . S
H336 N333 0.984 . S
H337 N333 0.985 . S
H338 N332 0.984 . S
H339 N332 0.984 . S
H340 N328 0.984 . S
H341 N328 0.985 . S
C342 C343 1.363 . S
C342 C348 1.379 . S
C342 N350 1.356 . S
C343 C342 1.363 . S
C343 C349 1.363 1_554 S
C344 C345 1.363 1_556 S
C344 C349 1.379 . S
C344 N351 1.356 . S
C345 C344 1.363 1_554 S
C345 C348 1.363 . S
N346 C348 1.356 . S
N346 H358 0.984 . S
N346 H359 0.985 . S
N347 C349 1.356 . S
N347 H352 0.984 . S
N347 H353 0.985 . S
C348 C342 1.379 . S
C348 C345 1.363 . S
C348 N346 1.356 . S
C349 C343 1.363 1_556 S
C349 C344 1.379 . S
C349 N347 1.356 . S
N350 C342 1.356 . S
N350 H356 0.984 . S
N350 H357 0.984 . S
N351 C344 1.356 . S
N351 H354 0.984 . S
N351 H355 0.985 . S
H352 N347 0.984 . S
H353 N347 0.985 . S
H354 N351 0.984 . S
H355 N351 0.985 . S
H356 N350 0.984 . S
H357 N350 0.984 . S
H358 N346 0.984 . S
H359 N346 0.985 . S
C360 C361 1.363 . S
C360 C366 1.379 . S
C360 N368 1.356 . S
C361 C360 1.363 . S
C361 C367 1.363 1_556 S
C362 C363 1.363 1_554 S
C362 C367 1.379 . S
C362 N369 1.356 . S
C363 C362 1.363 1_556 S
C363 C366 1.363 . S
N364 C366 1.356 . S
N364 H376 0.984 . S
N364 H377 0.985 . S
N365 C367 1.356 . S
N365 H370 0.984 . S
N365 H371 0.985 . S
C366 C360 1.379 . S
C366 C363 1.363 . S
C366 N364 1.356 . S
C367 C361 1.363 1_554 S
C367 C362 1.379 . S
C367 N365 1.356 . S
N368 C360 1.356 . S
N368 H374 0.984 . S
N368 H375 0.984 . S
N369 C362 1.356 . S
N369 H372 0.984 . S
N369 H373 0.985 . S
H370 N365 0.984 . S
H371 N365 0.985 . S
H372 N369 0.984 . S
H373 N369 0.985 . S
H374 N368 0.984 . S
H375 N368 0.984 . S
H376 N364 0.984 . S
H377 N364 0.985 . S
C378 C379 1.363 1_554 S
C378 C384 1.379 . S
C378 N386 1.356 . S
C379 C378 1.363 1_556 S
C379 C385 1.363 . S
C380 C381 1.363 . S
C380 C385 1.379 . S
C380 N387 1.356 . S
C381 C380 1.363 . S
C381 C384 1.363 1_556 S
N382 C384 1.356 . S
N382 H394 0.984 . S
N382 H395 0.985 . S
N383 C385 1.356 . S
N383 H388 0.984 . S
N383 H389 0.985 . S
C384 C378 1.379 . S
C384 C381 1.363 1_554 S
C384 N382 1.356 . S
C385 C379 1.363 . S
C385 C380 1.379 . S
C385 N383 1.356 . S
N386 C378 1.356 . S
N386 H392 0.984 . S
N386 H393 0.984 . S
N387 C380 1.356 . S
N387 H390 0.984 . S
N387 H391 0.985 . S
H388 N383 0.984 . S
H389 N383 0.985 . S
H390 N387 0.984 . S
H391 N387 0.985 . S
H392 N386 0.984 . S
H393 N386 0.984 . S
H394 N382 0.984 . S
H395 N382 0.985 . S
C396 C397 1.363 . S
C396 C402 1.379 . S
C396 N404 1.356 . S
C397 C396 1.363 . S
C397 C403 1.363 1_556 S
C398 C399 1.363 1_554 S
C398 C403 1.379 . S
C398 N405 1.356 . S
C399 C398 1.363 1_556 S
C399 C402 1.363 . S
N400 C402 1.356 . S
N400 H412 0.984 . S
N400 H413 0.985 . S
N401 C403 1.356 . S
N401 H406 0.984 . S
N401 H407 0.985 . S
C402 C396 1.379 . S
C402 C399 1.363 . S
C402 N400 1.356 . S
C403 C397 1.363 1_554 S
C403 C398 1.379 . S
C403 N401 1.356 . S
N404 C396 1.356 . S
N404 H410 0.984 . S
N404 H411 0.984 . S
N405 C398 1.356 . S
N405 H408 0.984 . S
N405 H409 0.985 . S
H406 N401 0.984 . S
H407 N401 0.985 . S
H408 N405 0.984 . S
H409 N405 0.985 . S
H410 N404 0.984 . S
H411 N404 0.984 . S
H412 N400 0.984 . S
H413 N400 0.985 . S
C253 C75 1.493 . S
C255 C66 1.493 . S
C271 C159 1.468 . S
C273 C150 1.470 . S
C289 C243 1.485 . S
C291 C234 1.485 . S
C307 C56 1.672 . S
C309 C240 1.630 1_554 S
C325 C156 0.828 . S
C327 C72 0.856 1_554 S
C343 C140 2.345 . S
C345 C235 2.446 . S
C361 C67 1.672 . S
C363 C231 1.636 1_556 S
C379 C63 0.854 1_556 S
C381 C147 0.829 . S
C397 C224 2.444 . S
C399 C151 2.343 . S
