# Generated by pormake.
# Topology zfo, (5)-cn, num edge types: 1
# Building blocks:
#     Node 0, Type 0, BuildingBlock: XOMCOT_clean_sbu_1, # of connection points: 5
#     Node 1, Type 0, BuildingBlock: XOMCOT_clean_sbu_1, # of connection points: 5
#     Node 2, Type 0, BuildingBlock: XOMCOT_clean_sbu_1, # of connection points: 5
#     Node 3, Type 0, BuildingBlock: XOMCOT_clean_sbu_1, # of connection points: 5
#     Node 4, Type 0, BuildingBlock: XOMCOT_clean_sbu_1, # of connection points: 5
#     Node 5, Type 0, BuildingBlock: XOMCOT_clean_sbu_1, # of connection points: 5
#     Node 6, Type 0, BuildingBlock: XOMCOT_clean_sbu_1, # of connection points: 5
#     Node 7, Type 0, BuildingBlock: XOMCOT_clean_sbu_1, # of connection points: 5
#     Node 8, Type 0, BuildingBlock: XOMCOT_clean_sbu_1, # of connection points: 5
#     Node 9, Type 0, BuildingBlock: XOMCOT_clean_sbu_1, # of connection points: 5
#     Node 10, Type 0, BuildingBlock: XOMCOT_clean_sbu_1, # of connection points: 5
#     Node 11, Type 0, BuildingBlock: XOMCOT_clean_sbu_1, # of connection points: 5
#     Node 12, Type 0, BuildingBlock: XOMCOT_clean_sbu_1, # of connection points: 5
#     Node 13, Type 0, BuildingBlock: XOMCOT_clean_sbu_1, # of connection points: 5
#     Node 14, Type 0, BuildingBlock: XOMCOT_clean_sbu_1, # of connection points: 5
#     Node 15, Type 0, BuildingBlock: XOMCOT_clean_sbu_1, # of connection points: 5
#     Edge 16, Type (0, 0), BuildingBlock: XUDNAN_clean_linker_2, # of connection points: 2
#     Edge 17, Type (0, 0), BuildingBlock: XUDNAN_clean_linker_2, # of connection points: 2
#     Edge 18, Type (0, 0), BuildingBlock: XUDNAN_clean_linker_2, # of connection points: 2
#     Edge 19, Type (0, 0), BuildingBlock: XUDNAN_clean_linker_2, # of connection points: 2
#     Edge 20, Type (0, 0), BuildingBlock: XUDNAN_clean_linker_2, # of connection points: 2
#     Edge 21, Type (0, 0), BuildingBlock: XUDNAN_clean_linker_2, # of connection points: 2
#     Edge 22, Type (0, 0), BuildingBlock: XUDNAN_clean_linker_2, # of connection points: 2
#     Edge 23, Type (0, 0), BuildingBlock: XUDNAN_clean_linker_2, # of connection points: 2
#     Edge 24, Type (0, 0), BuildingBlock: XUDNAN_clean_linker_2, # of connection points: 2
#     Edge 25, Type (0, 0), BuildingBlock: XUDNAN_clean_linker_2, # of connection points: 2
#     Edge 26, Type (0, 0), BuildingBlock: XUDNAN_clean_linker_2, # of connection points: 2
#     Edge 27, Type (0, 0), BuildingBlock: XUDNAN_clean_linker_2, # of connection points: 2
#     Edge 28, Type (0, 0), BuildingBlock: XUDNAN_clean_linker_2, # of connection points: 2
#     Edge 29, Type (0, 0), BuildingBlock: XUDNAN_clean_linker_2, # of connection points: 2
#     Edge 30, Type (0, 0), BuildingBlock: XUDNAN_clean_linker_2, # of connection points: 2
#     Edge 31, Type (0, 0), BuildingBlock: XUDNAN_clean_linker_2, # of connection points: 2
#     Edge 32, Type (0, 0), BuildingBlock: XUDNAN_clean_linker_2, # of connection points: 2
#     Edge 33, Type (0, 0), BuildingBlock: XUDNAN_clean_linker_2, # of connection points: 2
#     Edge 34, Type (0, 0), BuildingBlock: XUDNAN_clean_linker_2, # of connection points: 2
#     Edge 35, Type (0, 0), BuildingBlock: XUDNAN_clean_linker_2, # of connection points: 2
#     Edge 36, Type (0, 0), BuildingBlock: XUDNAN_clean_linker_2, # of connection points: 2
#     Edge 37, Type (0, 0), BuildingBlock: XUDNAN_clean_linker_2, # of connection points: 2
#     Edge 38, Type (0, 0), BuildingBlock: XUDNAN_clean_linker_2, # of connection points: 2
#     Edge 39, Type (0, 0), BuildingBlock: XUDNAN_clean_linker_2, # of connection points: 2
#     Edge 40, Type (0, 0), BuildingBlock: XUDNAN_clean_linker_2, # of connection points: 2
#     Edge 41, Type (0, 0), BuildingBlock: XUDNAN_clean_linker_2, # of connection points: 2
#     Edge 42, Type (0, 0), BuildingBlock: XUDNAN_clean_linker_2, # of connection points: 2
#     Edge 43, Type (0, 0), BuildingBlock: XUDNAN_clean_linker_2, # of connection points: 2
#     Edge 44, Type (0, 0), BuildingBlock: XUDNAN_clean_linker_2, # of connection points: 2
#     Edge 45, Type (0, 0), BuildingBlock: XUDNAN_clean_linker_2, # of connection points: 2
#     Edge 46, Type (0, 0), BuildingBlock: XUDNAN_clean_linker_2, # of connection points: 2
#     Edge 47, Type (0, 0), BuildingBlock: XUDNAN_clean_linker_2, # of connection points: 2
#     Edge 48, Type (0, 0), BuildingBlock: XUDNAN_clean_linker_2, # of connection points: 2
#     Edge 49, Type (0, 0), BuildingBlock: XUDNAN_clean_linker_2, # of connection points: 2
#     Edge 50, Type (0, 0), BuildingBlock: XUDNAN_clean_linker_2, # of connection points: 2
#     Edge 51, Type (0, 0), BuildingBlock: XUDNAN_clean_linker_2, # of connection points: 2
#     Edge 52, Type (0, 0), BuildingBlock: XUDNAN_clean_linker_2, # of connection points: 2
#     Edge 53, Type (0, 0), BuildingBlock: XUDNAN_clean_linker_2, # of connection points: 2
#     Edge 54, Type (0, 0), BuildingBlock: XUDNAN_clean_linker_2, # of connection points: 2
#     Edge 55, Type (0, 0), BuildingBlock: XUDNAN_clean_linker_2, # of connection points: 2
# Relax obj value: 0.175
# Max RMSD: 0.150
# Mean RMSD: 0.150
data_MOF--net-zfo--node1-XOMCOT_clean_sbu_1--edge1-XUDNAN_clean_linker_2
_symmetry_space_group_name_H-M    P1
_symmetry_Int_Tables_number       1
_symmetry_cell_setting            triclinic
loop_
_symmetry_equiv_pos_as_xyz
'x, y, z'
_cell_length_a     35.177226
_cell_length_b     35.18548
_cell_length_c     51.988151
_cell_angle_alpha  90.067382
_cell_angle_beta   89.927423
_cell_angle_gamma 89.671046
loop_
_atom_site_label
_atom_site_type_symbol
_atom_site_fract_x
_atom_site_fract_y
_atom_site_fract_z
_atom_type_partial_charge
C0 C 0.03382 0.21233 0.17103 0.0
C1 C 0.99588 0.21046 0.17713 0.0
N2 N 0.97677 0.23587 0.16261 0.0
N3 N 0.03908 0.23887 0.15273 0.0
C4 C 1.0037 0.25273 0.14786 0.0
H5 H 0.05632 0.19523 0.17931 0.0
Co6 Co 0.08762 0.25033 0.13945 0.0
C7 C 0.0694 0.301 0.0961 0.0
O8 O 0.0917 0.32709 0.10591 0.0
N9 N 0.13686 0.26146 0.12653 0.0
C10 C 0.18684 0.2591 0.10029 0.0
C11 C 0.1479 0.25823 0.10171 0.0
C12 C 0.16994 0.2645 0.13983 0.0
N13 N 0.20078 0.26278 0.12424 0.0
O14 O 0.08533 0.29876 0.15628 0.0
H15 H 0.12918 0.25184 0.08582 0.0
H16 H 0.1715 0.2637 0.16061 0.0
O17 O 0.06453 0.26977 0.10809 0.0
C18 C 0.09271 0.29355 0.18002 0.0
O19 O 0.1017 0.25919 0.18787 0.0
N20 N 0.09076 0.20138 0.12518 0.0
C21 C 0.09409 0.12326 0.11489 0.0
C22 C 0.06252 0.14539 0.10717 0.0
C23 C 0.06182 0.1846 0.112 0.0
C24 C 0.12193 0.1807 0.13207 0.0
C25 C 0.12503 0.14243 0.1259 0.0
H26 H 0.03678 0.20089 0.1069 0.0
H27 H 0.14421 0.19339 0.14337 0.0
H28 H 0.99785 0.27499 0.13405 0.0
H29 H 0.98325 0.19131 0.19095 0.0
H30 H 0.20378 0.25427 0.08317 0.0
H31 H 0.03753 0.13272 0.09877 0.0
H32 H 0.15112 0.12802 0.13104 0.0
C33 C 0.78432 0.99353 0.65824 0.0
C34 C 0.78017 0.95513 0.66151 0.0
N35 N 0.74552 0.94494 0.65299 0.0
N36 N 0.75299 0.00827 0.64704 0.0
C37 C 0.72912 0.97816 0.64519 0.0
H38 H 0.8094 0.00955 0.66315 0.0
Co39 Co 0.75074 0.06055 0.63734 0.0
C40 C 0.71298 0.02509 0.58876 0.0
O41 O 0.72159 0.9892 0.59258 0.0
N42 N 0.74961 0.11288 0.62842 0.0
C43 C 0.75461 0.16641 0.60587 0.0
C44 C 0.75393 0.12735 0.60458 0.0
C45 C 0.74812 0.14391 0.64389 0.0
N46 N 0.751 0.17707 0.63069 0.0
O47 O 0.70429 0.06689 0.6564 0.0
H48 H 0.75794 0.11054 0.58736 0.0
H49 H 0.74589 0.14209 0.66453 0.0
O50 O 0.72322 0.05041 0.60502 0.0
C51 C 0.71399 0.07341 0.67964 0.0
O52 O 0.75033 0.07192 0.68547 0.0
N53 N 0.79822 0.05564 0.62128 0.0
C54 C 0.87375 0.0342 0.61585 0.0
C55 C 0.84608 0.01876 0.59965 0.0
C56 C 0.8081 0.02987 0.60273 0.0
C57 C 0.82551 0.07409 0.63496 0.0
C58 C 0.86358 0.06374 0.63257 0.0
H59 H 0.78686 0.01481 0.59209 0.0
H60 H 0.8173 0.09384 0.64995 0.0
H61 H 0.70047 0.98056 0.63786 0.0
H62 H 0.80197 0.93623 0.66876 0.0
H63 H 0.75908 0.18526 0.58975 0.0
H64 H 0.85308 0.99561 0.58669 0.0
H65 H 0.88432 0.07613 0.64544 0.0
C66 C 0.99864 0.69861 0.13829 0.0
C67 C 0.03731 0.69213 0.13765 0.0
N68 N 0.05468 0.72086 0.15006 0.0
N69 N 0.99163 0.73146 0.15085 0.0
C70 C 0.02624 0.74397 0.15813 0.0
H71 H 0.9771 0.68085 0.12971 0.0
Co72 Co 0.94493 0.75613 0.1554 0.0
C73 C 0.90794 0.75397 0.10441 0.0
O74 O 0.89577 0.78888 0.10841 0.0
N75 N 0.89717 0.78041 0.16067 0.0
C76 C 0.84952 0.81976 0.17065 0.0
C77 C 0.88832 0.81486 0.17064 0.0
C78 C 0.86291 0.76456 0.15568 0.0
N79 N 0.83354 0.78818 0.161 0.0
O80 O 0.92528 0.71239 0.1722 0.0
H81 H 0.90821 0.83562 0.17758 0.0
H82 H 0.85965 0.73622 0.1479 0.0
O83 O 0.92806 0.73734 0.1216 0.0
C84 C 0.9304 0.71538 0.19638 0.0
O85 O 0.94944 0.7448 0.205 0.0
N86 N 0.96626 0.80015 0.14108 0.0
C87 C 0.00939 0.86364 0.1287 0.0
C88 C 0.99953 0.83744 0.10961 0.0
C89 C 0.9788 0.80509 0.11637 0.0
C90 C 0.97659 0.82509 0.1598 0.0
C91 C 0.99761 0.85726 0.15402 0.0
H92 H 0.97497 0.78334 0.102 0.0
H93 H 0.97012 0.81882 0.17968 0.0
H94 H 0.03059 0.77038 0.1683 0.0
H95 H 0.05145 0.66824 0.12857 0.0
H96 H 0.83436 0.84508 0.17675 0.0
H97 H 0.00953 0.84086 0.09004 0.0
H98 H 0.00556 0.87646 0.16939 0.0
C99 C 0.22213 0.96931 0.67093 0.0
C100 C 0.22256 0.00623 0.67943 0.0
N101 N 0.25398 0.02329 0.67022 0.0
N102 N 0.25276 0.96269 0.65594 0.0
C103 C 0.27271 0.99553 0.6571 0.0
H104 H 0.19998 0.94887 0.67469 0.0
Co105 Co 0.25966 0.91632 0.63794 0.0
C106 C 0.28573 0.97259 0.59495 0.0
O107 O 0.27301 0.0048 0.60448 0.0
N108 N 0.26565 0.86933 0.62042 0.0
C109 C 0.26083 0.82798 0.58832 0.0
C110 C 0.25963 0.86556 0.59496 0.0
C111 C 0.2702 0.83302 0.62891 0.0
N112 N 0.26747 0.807 0.60958 0.0
O113 O 0.30915 0.91148 0.6527 0.0
H114 H 0.25232 0.88854 0.58207 0.0
H115 H 0.27395 0.8259 0.64898 0.0
O116 O 0.28087 0.94143 0.60718 0.0
C117 C 0.30597 0.89853 0.67547 0.0
O118 O 0.27209 0.88958 0.6841 0.0
N119 N 0.20969 0.91977 0.62543 0.0
C120 C 0.13116 0.92679 0.62006 0.0
C121 C 0.15557 0.95333 0.60872 0.0
C122 C 0.19483 0.94935 0.61169 0.0
C123 C 0.18649 0.89242 0.63514 0.0
C124 C 0.14717 0.89514 0.63244 0.0
H125 H 0.21258 0.97166 0.60463 0.0
H126 H 0.19843 0.86956 0.64648 0.0
H127 H 0.2997 0.99946 0.64754 0.0
H128 H 0.20061 0.01963 0.69093 0.0
H129 H 0.25503 0.81727 0.56925 0.0
H130 H 0.14449 0.97852 0.59934 0.0
H131 H 0.12941 0.8737 0.64122 0.0
C132 C 0.50998 0.28537 0.83758 0.0
C133 C 0.47196 0.28099 0.83257 0.0
N134 N 0.46141 0.24581 0.83986 0.0
N135 N 0.52388 0.25357 0.84863 0.0
C136 C 0.49411 0.22927 0.8484 0.0
H137 H 0.52603 0.31112 0.83465 0.0
Co138 Co 0.5735 0.25129 0.86283 0.0
C139 C 0.53129 0.20881 0.90759 0.0
O140 O 0.49556 0.21281 0.90086 0.0
N141 N 0.62347 0.24998 0.87688 0.0
C142 C 0.66796 0.25507 0.90704 0.0
C143 C 0.62997 0.25801 0.90189 0.0
C144 C 0.65868 0.24245 0.86713 0.0
N145 N 0.68628 0.24504 0.88531 0.0
O146 O 0.58331 0.20545 0.84392 0.0
H147 H 0.6083 0.26577 0.91573 0.0
H148 H 0.66404 0.23472 0.84732 0.0
O149 O 0.55766 0.22261 0.89352 0.0
C150 C 0.59674 0.21396 0.82189 0.0
O151 O 0.60212 0.24999 0.81642 0.0
N152 N 0.56443 0.29788 0.87955 0.0
C153 C 0.54862 0.37167 0.89604 0.0
C154 C 0.52777 0.34093 0.90557 0.0
C155 C 0.53585 0.30425 0.89686 0.0
C156 C 0.5858 0.3273 0.8707 0.0
C157 C 0.5784 0.36448 0.87871 0.0
H158 H 0.5176 0.28163 0.90296 0.0
H159 H 0.60775 0.32198 0.85653 0.0
H160 H 0.49628 0.20029 0.85507 0.0
H161 H 0.45333 0.30319 0.82556 0.0
H162 H 0.68112 0.26042 0.92549 0.0
H163 H 0.50398 0.34541 0.91849 0.0
H164 H 0.59514 0.3875 0.8709 0.0
C165 C 0.72231 0.5387 0.34396 0.0
C166 C 0.72989 0.5009 0.34007 0.0
N167 N 0.75241 0.48868 0.35923 0.0
N168 N 0.7404 0.55078 0.36529 0.0
C169 C 0.75837 0.51935 0.37447 0.0
H170 H 0.70435 0.55636 0.33201 0.0
Co171 Co 0.736 0.60184 0.37542 0.0
C172 C 0.75415 0.60276 0.43076 0.0
O173 O 0.72374 0.62384 0.4341 0.0
N174 N 0.73065 0.65525 0.38444 0.0
C175 C 0.70669 0.71147 0.3968 0.0
C176 C 0.70121 0.67299 0.39644 0.0
C177 C 0.7536 0.68463 0.37762 0.0
N178 N 0.73961 0.71906 0.38482 0.0
O179 O 0.78289 0.61207 0.35814 0.0
H180 H 0.6767 0.65936 0.40472 0.0
H181 H 0.7799 0.68112 0.36713 0.0
O182 O 0.76315 0.59123 0.40816 0.0
C183 C 0.77515 0.61809 0.33453 0.0
O184 O 0.73935 0.62011 0.32751 0.0
N185 N 0.68844 0.58999 0.38929 0.0
C186 C 0.61434 0.56695 0.39986 0.0
C187 C 0.64513 0.5516 0.41358 0.0
C188 C 0.6821 0.56299 0.40767 0.0
C189 C 0.65903 0.60385 0.37504 0.0
C190 C 0.62174 0.59373 0.38053 0.0
H191 H 0.70556 0.54871 0.41698 0.0
H192 H 0.66473 0.62302 0.35926 0.0
H193 H 0.77566 0.51896 0.39167 0.0
H194 H 0.71931 0.48345 0.3245 0.0
H195 H 0.68691 0.73231 0.4044 0.0
H196 H 0.64095 0.52964 0.42786 0.0
H197 H 0.59901 0.60635 0.36934 0.0
C198 C 0.5044 0.7291 0.83839 0.0
C199 C 0.54325 0.72961 0.83668 0.0
N200 N 0.55667 0.7531 0.85495 0.0
N201 N 0.49292 0.75221 0.85759 0.0
C202 C 0.52549 0.7664 0.86755 0.0
H203 H 0.48556 0.71245 0.82651 0.0
Co204 Co 0.44113 0.75789 0.86458 0.0
C205 C 0.43254 0.78179 0.91829 0.0
O206 O 0.40513 0.75658 0.91893 0.0
N207 N 0.38782 0.76397 0.87006 0.0
C208 C 0.3329 0.79436 0.87682 0.0
C209 C 0.37165 0.79806 0.87527 0.0
C210 C 0.35781 0.74013 0.86794 0.0
N211 N 0.32403 0.75783 0.87216 0.0
O212 O 0.43999 0.80345 0.84419 0.0
H213 H 0.3872 0.82421 0.87791 0.0
H214 H 0.36026 0.71058 0.8628 0.0
O215 O 0.45138 0.78641 0.89727 0.0
C216 C 0.43123 0.7927 0.8215 0.0
O217 O 0.42576 0.75622 0.8176 0.0
N218 N 0.44311 0.71075 0.88164 0.0
C219 C 0.45804 0.63575 0.89614 0.0
C220 C 0.4724 0.66607 0.91056 0.0
C221 C 0.46552 0.70335 0.90258 0.0
C222 C 0.42953 0.68147 0.86723 0.0
C223 C 0.43596 0.64381 0.87438 0.0
H224 H 0.48061 0.72583 0.91223 0.0
H225 H 0.41586 0.68728 0.84904 0.0
H226 H 0.52636 0.78613 0.88352 0.0
H227 H 0.56038 0.71317 0.82335 0.0
H228 H 0.31299 0.81696 0.88129 0.0
H229 H 0.49107 0.66102 0.92677 0.0
H230 H 0.42516 0.62119 0.86233 0.0
C231 C 0.18358 0.50492 0.37891 0.0
C232 C 0.18228 0.544 0.3795 0.0
N233 N 0.21212 0.55739 0.36602 0.0
N234 N 0.21432 0.4937 0.36534 0.0
C235 C 0.23086 0.52623 0.35745 0.0
H236 H 0.16332 0.48592 0.38771 0.0
Co237 Co 0.23014 0.44431 0.35803 0.0
C238 C 0.22945 0.41029 0.41042 0.0
O239 O 0.26351 0.39608 0.40607 0.0
N240 N 0.24507 0.39437 0.34866 0.0
C241 C 0.26123 0.34901 0.32055 0.0
C242 C 0.25699 0.38739 0.32436 0.0
C243 C 0.24073 0.35918 0.35889 0.0
N244 N 0.25124 0.33135 0.34237 0.0
O245 O 0.18204 0.43396 0.34265 0.0
H246 H 0.2614 0.40905 0.30994 0.0
H247 H 0.22778 0.3534 0.37729 0.0
O248 O 0.21202 0.42829 0.3925 0.0
C249 C 0.18095 0.44562 0.31944 0.0
O250 O 0.20911 0.46668 0.31106 0.0
N251 N 0.27888 0.45568 0.37154 0.0
C252 C 0.35129 0.4772 0.38797 0.0
C253 C 0.3192 0.48513 0.4031 0.0
C254 C 0.28324 0.47448 0.39443 0.0
C255 C 0.30978 0.44884 0.35635 0.0
C256 C 0.34617 0.45849 0.36442 0.0
H257 H 0.25874 0.4821 0.40593 0.0
H258 H 0.30659 0.43687 0.33746 0.0
H259 H 0.25668 0.52687 0.34613 0.0
H260 H 0.16074 0.56117 0.3889 0.0
H261 H 0.27072 0.33511 0.30307 0.0
H262 H 0.3216 0.50053 0.42106 0.0
H263 H 0.37002 0.45177 0.35201 0.0
C264 C 0.99548 0.67893 0.89144 0.0
C265 C 0.03351 0.67032 0.89327 0.0
N266 N 0.05333 0.69714 0.8806 0.0
N267 N 0.9911 0.71121 0.87781 0.0
C268 C 0.02684 0.72162 0.87138 0.0
H269 H 0.97242 0.66235 0.89927 0.0
Co270 Co 0.94457 0.73365 0.8688 0.0
C271 C 0.90778 0.74056 0.91975 0.0
O272 O 0.89876 0.7759 0.9141 0.0
N273 N 0.89693 0.75462 0.85857 0.0
C274 C 0.8517 0.77641 0.83217 0.0
C275 C 0.89009 0.76997 0.83518 0.0
C276 C 0.86162 0.74985 0.86859 0.0
N277 N 0.83387 0.76402 0.85341 0.0
O278 O 0.92817 0.6873 0.85389 0.0
H279 H 0.91142 0.77425 0.8205 0.0
H280 H 0.8556 0.7337 0.88572 0.0
O281 O 0.92454 0.71974 0.90294 0.0
C282 C 0.94374 0.68255 0.83196 0.0
O283 O 0.97149 0.70531 0.8252 0.0
N284 N 0.96232 0.78074 0.88146 0.0
C285 C 0.99262 0.85088 0.89578 0.0
C286 C 0.99437 0.81979 0.91259 0.0
C287 C 0.97954 0.78478 0.90491 0.0
C288 C 0.96221 0.81024 0.86454 0.0
C289 C 0.97619 0.84564 0.87149 0.0
H290 H 0.98244 0.76072 0.91769 0.0
H291 H 0.95233 0.8064 0.84519 0.0
H292 H 0.03315 0.74628 0.85974 0.0
H293 H 0.04558 0.64621 0.90333 0.0
H294 H 0.83796 0.78847 0.81542 0.0
H295 H 0.00786 0.82219 0.93123 0.0
H296 H 0.97421 0.86864 0.85773 0.0
C297 C 0.20338 1.00376 0.33767 0.0
C298 C 0.20557 0.0419 0.33213 0.0
N299 N 0.23917 0.05485 0.34075 0.0
N300 N 0.23514 0.99271 0.3502 0.0
C301 C 0.25706 0.02415 0.35077 0.0
H302 H 0.17946 0.98548 0.33372 0.0
Co303 Co 0.24396 0.94332 0.36292 0.0
C304 C 0.27374 0.99027 0.40948 0.0
O305 O 0.25869 0.02344 0.40395 0.0
N306 N 0.25294 0.89389 0.375 0.0
C307 C 0.25513 0.84426 0.40127 0.0
C308 C 0.25262 0.88306 0.3999 0.0
C309 C 0.25576 0.86103 0.36155 0.0
N310 N 0.25663 0.83027 0.37716 0.0
O311 O 0.29132 0.94142 0.34464 0.0
H312 H 0.24826 0.90187 0.41609 0.0
H313 H 0.25434 0.85961 0.34077 0.0
O314 O 0.26888 0.96184 0.39449 0.0
C315 C 0.28546 0.93797 0.32054 0.0
O316 O 0.25032 0.93699 0.31207 0.0
N317 N 0.1955 0.94344 0.37899 0.0
C318 C 0.11837 0.94367 0.39294 0.0
C319 C 0.14216 0.97434 0.39923 0.0
C320 C 0.18063 0.97337 0.39244 0.0
C321 C 0.17302 0.91318 0.37316 0.0
C322 C 0.13516 0.91199 0.38089 0.0
H323 H 0.19728 0.99824 0.39602 0.0
H324 H 0.18385 0.89013 0.36152 0.0
H325 H 0.28524 0.02483 0.35906 0.0
H326 H 0.1832 0.05922 0.32385 0.0
H327 H 0.25433 0.82756 0.41873 0.0
H328 H 0.13113 1.00008 0.40788 0.0
H329 H 0.11906 0.88682 0.37628 0.0
C330 C 0.01295 0.22942 0.8296 0.0
C331 C 0.97376 0.22934 0.82892 0.0
N332 N 0.96069 0.24114 0.85193 0.0
N333 N 0.02484 0.24165 0.85285 0.0
C334 C 0.99218 0.2487 0.86596 0.0
H335 H 0.03147 0.21925 0.81447 0.0
Co336 Co 0.07594 0.24178 0.86429 0.0
C337 C 0.07165 0.2951 0.90886 0.0
O338 O 0.0988 0.31645 0.89941 0.0
N339 N 0.12726 0.241 0.87567 0.0
C340 C 0.17662 0.22887 0.90118 0.0
C341 C 0.13799 0.23411 0.90018 0.0
C342 C 0.16029 0.23971 0.86207 0.0
N343 N 0.19074 0.23219 0.87724 0.0
O344 O 0.08373 0.2897 0.84765 0.0
H345 H 0.1187 0.23064 0.9162 0.0
H346 H 0.16177 0.24151 0.84133 0.0
O347 O 0.0604 0.26613 0.89628 0.0
C348 C 0.09286 0.28482 0.82412 0.0
O349 O 0.09681 0.24986 0.81557 0.0
N350 N 0.069 0.1938 0.87864 0.0
C351 C 0.06193 0.11874 0.89503 0.0
C352 C 0.04021 0.14787 0.90644 0.0
C353 C 0.04432 0.18532 0.89806 0.0
C354 C 0.09023 0.16602 0.8673 0.0
C355 C 0.08774 0.12849 0.87552 0.0
H356 H 0.02696 0.20713 0.90679 0.0
H357 H 0.10932 0.17315 0.85173 0.0
H358 H 0.99132 0.2579 0.88578 0.0
H359 H 0.9563 0.21906 0.81328 0.0
H360 H 0.19297 0.22156 0.91812 0.0
H361 H 0.01931 0.14182 0.92115 0.0
H362 H 0.10571 0.10733 0.8664 0.0
C363 C 0.7451 0.0429 0.32834 0.0
C364 C 0.74924 0.00444 0.32501 0.0
N365 N 0.75623 0.98861 0.34803 0.0
N366 N 0.74919 0.05191 0.35347 0.0
C367 C 0.75594 0.01781 0.36499 0.0
H368 H 0.74112 0.06275 0.31283 0.0
Co369 Co 0.75381 0.1021 0.367 0.0
C370 C 0.69823 0.06662 0.40453 0.0
O371 O 0.68409 0.04111 0.38884 0.0
N372 N 0.75942 0.15184 0.38036 0.0
C373 C 0.7635 0.20063 0.4076 0.0
C374 C 0.75885 0.16197 0.40544 0.0
C375 C 0.76509 0.18502 0.36773 0.0
N376 N 0.76739 0.21524 0.38383 0.0
O377 O 0.70893 0.11796 0.34868 0.0
H378 H 0.75554 0.14255 0.42136 0.0
H379 H 0.76713 0.18718 0.34707 0.0
O380 O 0.72387 0.08946 0.39698 0.0
C381 C 0.71678 0.13033 0.32624 0.0
O382 O 0.75266 0.13162 0.31918 0.0
N383 N 0.79871 0.08731 0.38294 0.0
C384 C 0.86518 0.04874 0.39474 0.0
C385 C 0.83696 0.05344 0.41351 0.0
C386 C 0.80353 0.07311 0.4072 0.0
C387 C 0.82745 0.08609 0.36545 0.0
C388 C 0.86095 0.06665 0.3709 0.0
H389 H 0.78083 0.07434 0.42117 0.0
H390 H 0.82293 0.09759 0.3464 0.0
H391 H 0.76222 0.01454 0.38523 0.0
H392 H 0.74803 0.98932 0.30688 0.0
H393 H 0.76455 0.2166 0.42539 0.0
H394 H 0.83954 0.03981 0.4321 0.0
H395 H 0.8824 0.06358 0.35604 0.0
C396 C 0.50301 0.7831 0.1783 0.0
C397 C 0.54165 0.78609 0.18021 0.0
N398 N 0.55665 0.78299 0.15652 0.0
N399 N 0.49294 0.77862 0.15341 0.0
C400 C 0.52662 0.7782 0.1406 0.0
H401 H 0.48408 0.78272 0.19455 0.0
Co402 Co 0.44274 0.76935 0.14201 0.0
C403 C 0.46801 0.82696 0.10169 0.0
O404 O 0.49028 0.84725 0.11653 0.0
N405 N 0.39267 0.75926 0.13088 0.0
C406 C 0.34325 0.74523 0.10589 0.0
C407 C 0.38197 0.75046 0.10666 0.0
C408 C 0.35981 0.75871 0.14448 0.0
N409 N 0.32926 0.75057 0.12975 0.0
O410 O 0.42498 0.81377 0.1604 0.0
H411 H 0.4011 0.74788 0.09047 0.0
H412 H 0.35804 0.76364 0.1649 0.0
O413 O 0.45013 0.79858 0.11083 0.0
C414 C 0.41473 0.80603 0.18337 0.0
O415 O 0.41623 0.77037 0.19093 0.0
N416 N 0.45958 0.72488 0.1259 0.0
C417 C 0.48607 0.65434 0.10904 0.0
C418 C 0.48992 0.68667 0.09351 0.0
C419 C 0.4764 0.72177 0.10226 0.0
C420 C 0.45478 0.69372 0.14097 0.0
C421 C 0.46764 0.65812 0.13289 0.0
H422 H 0.48045 0.74627 0.09015 0.0
H423 H 0.44125 0.69676 0.15956 0.0
H424 H 0.5292 0.77413 0.12006 0.0
H425 H 0.5576 0.78855 0.19793 0.0
H426 H 0.32671 0.73866 0.08893 0.0
H427 H 0.50426 0.68516 0.07509 0.0
H428 H 0.46331 0.63384 0.14531 0.0
C429 C 0.28665 0.4844 0.66868 0.0
C430 C 0.28843 0.52313 0.66587 0.0
N431 N 0.26527 0.53337 0.64649 0.0
N432 N 0.26211 0.46985 0.6514 0.0
C433 C 0.24974 0.50047 0.63786 0.0
H434 H 0.30254 0.46769 0.68245 0.0
Co435 Co 0.25188 0.41728 0.65057 0.0
C436 C 0.23394 0.39698 0.59717 0.0
O437 O 0.25526 0.36683 0.60138 0.0
N438 N 0.241 0.36387 0.65113 0.0
C439 C 0.2049 0.31199 0.64881 0.0
C440 C 0.20569 0.35075 0.64618 0.0
C441 C 0.26113 0.33185 0.65698 0.0
N442 N 0.23981 0.29992 0.65562 0.0
O443 O 0.20363 0.42586 0.66703 0.0
H444 H 0.18177 0.36837 0.64068 0.0
H445 H 0.29062 0.33148 0.66253 0.0
O446 O 0.22903 0.42128 0.61541 0.0
C447 C 0.20674 0.43139 0.69119 0.0
O448 O 0.24084 0.43454 0.70113 0.0
N449 N 0.3007 0.40964 0.63688 0.0
C450 C 0.37755 0.4063 0.62392 0.0
C451 C 0.35115 0.42284 0.6071 0.0
C452 C 0.31296 0.42503 0.61421 0.0
C453 C 0.32632 0.3952 0.65392 0.0
C454 C 0.36473 0.39231 0.6476 0.0
H455 H 0.2938 0.44083 0.60199 0.0
H456 H 0.31711 0.38749 0.67305 0.0
H457 H 0.22973 0.49875 0.62211 0.0
H458 H 0.3063 0.54223 0.67677 0.0
H459 H 0.18051 0.29406 0.64546 0.0
H460 H 0.36013 0.4352 0.58903 0.0
H461 H 0.38447 0.38125 0.66174 0.0
C462 C 0.52139 0.32026 0.14943 0.0
C463 C 0.4831 0.31821 0.15427 0.0
N464 N 0.47257 0.28148 0.15346 0.0
N465 N 0.5355 0.28515 0.14477 0.0
C466 C 0.50533 0.26197 0.14878 0.0
H467 H 0.53767 0.34619 0.1487 0.0
Co468 Co 0.58742 0.27523 0.1358 0.0
C469 C 0.54506 0.2332 0.09226 0.0
O470 O 0.51097 0.24513 0.09866 0.0
N471 N 0.63909 0.26647 0.12773 0.0
C472 C 0.69279 0.2608 0.10543 0.0
C473 C 0.65397 0.26448 0.10386 0.0
C474 C 0.66965 0.2643 0.14355 0.0
N475 N 0.70299 0.26088 0.13044 0.0
O476 O 0.58821 0.23195 0.15827 0.0
H477 H 0.63775 0.26691 0.08629 0.0
H478 H 0.66736 0.26646 0.16425 0.0
O479 O 0.57394 0.2433 0.10559 0.0
C480 C 0.58607 0.24146 0.18193 0.0
O481 O 0.58206 0.27755 0.18788 0.0
N482 N 0.58822 0.31942 0.1156 0.0
C483 C 0.58267 0.3937 0.0974 0.0
C484 C 0.56119 0.36456 0.08621 0.0
C485 C 0.56442 0.3275 0.09558 0.0
C486 C 0.6113 0.34681 0.1254 0.0
C487 C 0.60934 0.38402 0.11637 0.0
H488 H 0.54538 0.30649 0.08811 0.0
H489 H 0.62962 0.34027 0.14151 0.0
H490 H 0.50717 0.23135 0.14714 0.0
H491 H 0.46428 0.34233 0.15682 0.0
H492 H 0.71187 0.25852 0.08918 0.0
H493 H 0.53989 0.37071 0.07176 0.0
H494 H 0.62701 0.40543 0.12527 0.0
C495 C 0.79396 0.50683 0.67996 0.0
C496 C 0.80181 0.46874 0.68187 0.0
N497 N 0.77972 0.44987 0.66512 0.0
N498 N 0.76693 0.51285 0.66194 0.0
C499 C 0.75964 0.47728 0.65274 0.0
H500 H 0.80614 0.52824 0.69222 0.0
Co501 Co 0.74099 0.5605 0.65666 0.0
C502 C 0.79519 0.56268 0.61279 0.0
O503 O 0.82487 0.56055 0.62804 0.0
N504 N 0.71528 0.60768 0.65201 0.0
C505 C 0.66927 0.65142 0.65313 0.0
C506 C 0.67797 0.6137 0.65677 0.0
C507 C 0.72886 0.64273 0.64609 0.0
N508 N 0.70126 0.6698 0.64657 0.0
O509 O 0.78305 0.58707 0.67108 0.0
H510 H 0.65829 0.59221 0.66318 0.0
H511 H 0.75844 0.64839 0.64189 0.0
O512 O 0.76174 0.56357 0.62228 0.0
C513 C 0.77664 0.59863 0.69394 0.0
O514 O 0.74249 0.59391 0.70368 0.0
N515 N 0.69853 0.53467 0.64442 0.0
C516 C 0.63607 0.49169 0.63023 0.0
C517 C 0.65256 0.51694 0.6127 0.0
C518 C 0.68389 0.53842 0.62025 0.0
C519 C 0.68117 0.51221 0.66218 0.0
C520 C 0.65035 0.48979 0.65533 0.0
H521 H 0.69573 0.55865 0.60696 0.0
H522 H 0.69216 0.51094 0.6816 0.0
H523 H 0.73805 0.47117 0.63854 0.0
H524 H 0.82117 0.4558 0.6955 0.0
H525 H 0.64173 0.66465 0.65601 0.0
H526 H 0.64142 0.51994 0.59338 0.0
H527 H 0.63744 0.47154 0.66962 0.0
H528 H 0.04951 0.0746 0.08483 0.0
H529 H 0.13518 0.07328 0.1454 0.0
H530 H 0.13133 0.00483 0.14741 0.0
H531 H 0.99123 0.01238 0.11683 0.0
H532 H 0.97357 0.98822 0.08872 0.0
H533 H 0.98964 0.03647 0.08626 0.0
H534 H 0.03694 0.01661 0.05036 0.0
H535 H 0.021 0.96812 0.05278 0.0
H536 H 0.07075 0.97895 0.05631 0.0
H537 H 0.1129 0.93863 0.14881 0.0
H538 H 0.07624 0.87936 0.15177 0.0
H539 H 0.99759 0.92152 0.09421 0.0
C540 C 0.06798 0.06025 0.09832 0.0
C541 C 0.09357 0.08058 0.11427 0.0
C542 C 0.11668 0.05956 0.13173 0.0
C543 C 0.11454 0.02008 0.13332 0.0
C544 C 0.0886 1.00139 0.11782 0.0
C545 C 0.06535 0.02065 0.10083 0.0
C546 C 0.03557 0.9943 0.08964 0.0
C547 C 0.99513 0.0087 0.09574 0.0
C548 C 0.04143 0.9892 0.06054 0.0
C549 C 0.04473 0.95789 0.10404 0.0
C550 C 0.07623 0.96251 0.11958 0.0
C551 C 0.08859 0.93435 0.13643 0.0
C552 C 0.06756 0.90092 0.13808 0.0
C553 C 0.03436 0.89612 0.12317 0.0
C554 C 0.02338 0.92441 0.10538 0.0
H555 H 0.08294 0.95722 0.58335 0.0
H556 H 0.08638 0.91667 0.66224 0.0
H557 H 0.01995 0.93647 0.66825 0.0
H558 H 0.02987 0.03991 0.59601 0.0
H559 H 1.00183 0.0384 0.56703 0.0
H560 H 0.04858 0.01732 0.5675 0.0
H561 H 0.02072 0.95294 0.55266 0.0
H562 H 0.97387 0.97392 0.5519 0.0
H563 H 0.98255 0.9318 0.57075 0.0
H564 H 0.95662 0.96611 0.66774 0.0
H565 H 0.89674 1.00076 0.65961 0.0
H566 H 0.93204 0.02222 0.58102 0.0
C567 C 0.06948 0.952 0.60175 0.0
C568 C 0.08982 0.93489 0.62221 0.0
C569 C 0.07125 0.92876 0.64605 0.0
C570 C 0.03354 0.94021 0.64975 0.0
C571 C 0.01463 0.95761 0.62942 0.0
C572 C 0.03165 0.96318 0.60578 0.0
C573 C 0.00513 0.98418 0.5876 0.0
C574 C 0.02239 0.02221 0.57904 0.0
C575 C 0.99497 0.95921 0.56435 0.0
C576 C 0.97101 0.99033 0.60501 0.0
C577 C 0.9773 0.97466 0.62903 0.0
C578 C 0.95111 0.97813 0.64895 0.0
C579 C 0.91741 0.99806 0.64423 0.0
C580 C 0.91015 0.01415 0.61978 0.0
C581 C 0.93707 0.00997 0.59981 0.0
H582 H 0.4838 0.58238 0.86218 0.0
H583 H 0.45998 0.60033 0.94319 0.0
H584 H 0.48228 0.53484 0.95259 0.0
H585 H 0.4541 0.48491 0.85914 0.0
H586 H 0.49115 0.47145 0.83688 0.0
H587 H 0.47295 0.51938 0.83696 0.0
H588 H 0.54127 0.54483 0.84366 0.0
H589 H 0.55963 0.49695 0.84386 0.0
H590 H 0.56888 0.52817 0.87062 0.0
H591 H 0.5062 0.46653 0.9526 0.0
H592 H 0.53027 0.40161 0.94329 0.0
H593 H 0.539 0.4302 0.86238 0.0
C594 C 0.48274 0.57239 0.88187 0.0
C595 C 0.46978 0.59619 0.90195 0.0
C596 C 0.4698 0.58243 0.92755 0.0
C597 C 0.48235 0.54535 0.93303 0.0
C598 C 0.49506 0.52266 0.91272 0.0
C599 C 0.49537 0.53574 0.88766 0.0
C600 C 0.51071 0.50608 0.86927 0.0
C601 C 0.48042 0.49479 0.8494 0.0
C602 C 0.5473 0.51984 0.85609 0.0
C603 C 0.51885 0.47407 0.88784 0.0
C604 C 0.5096 0.48404 0.91281 0.0
C605 C 0.51372 0.45851 0.93313 0.0
C606 C 0.52733 0.42177 0.92769 0.0
C607 C 0.53686 0.41112 0.90219 0.0
C608 C 0.53274 0.43781 0.88214 0.0
H609 H 0.55963 0.55423 0.36358 0.0
H610 H 0.58014 0.5478 0.44582 0.0
H611 H 0.51479 0.52384 0.45223 0.0
H612 H 0.46316 0.58837 0.36838 0.0
H613 H 0.44786 0.56197 0.34056 0.0
H614 H 0.4963 0.57787 0.34284 0.0
H615 H 0.52005 0.50858 0.33636 0.0
H616 H 0.47169 0.49242 0.33424 0.0
H617 H 0.50341 0.47183 0.35766 0.0
H618 H 0.44673 0.49951 0.44905 0.0
H619 H 0.38238 0.47811 0.43667 0.0
H620 H 0.40711 0.50589 0.35704 0.0
C621 C 0.55038 0.54849 0.38305 0.0
C622 C 0.57504 0.55317 0.40421 0.0
C623 C 0.56189 0.54414 0.42926 0.0
C624 C 0.52477 0.53073 0.43311 0.0
C625 C 0.50122 0.52672 0.41174 0.0
C626 C 0.51357 0.53558 0.38724 0.0
C627 C 0.48298 0.52913 0.36741 0.0
C628 C 0.47192 0.56657 0.35402 0.0
C629 C 0.49528 0.49868 0.34777 0.0
C630 C 0.45141 0.51502 0.3845 0.0
C631 C 0.46232 0.51364 0.41 0.0
C632 C 0.43782 0.50072 0.42915 0.0
C633 C 0.40128 0.48883 0.42195 0.0
C634 C 0.38967 0.4901 0.39585 0.0
C635 C 0.41518 0.50376 0.37708 0.0
H636 H 0.06554 0.05656 0.86331 0.0
H637 H 0.04393 0.08884 0.94271 0.0
H638 H 0.02879 0.02206 0.95292 0.0
H639 H 0.99382 0.99196 0.85661 0.0
H640 H 0.02053 0.95872 0.83723 0.0
H641 H 0.03253 0.00829 0.83681 0.0
H642 H 0.10184 0.99194 0.84987 0.0
H643 H 0.09016 0.94214 0.85012 0.0
H644 H 0.1105 0.9639 0.87829 0.0
H645 H 0.00943 0.95247 0.95294 0.0
H646 H 0.98934 0.88684 0.94288 0.0
H647 H 0.03065 0.90057 0.86473 0.0
C648 C 0.05889 0.04972 0.88309 0.0
C649 C 0.05603 0.07823 0.90216 0.0
C650 C 0.04582 0.06773 0.92759 0.0
C651 C 0.03754 0.02978 0.93367 0.0
C652 C 0.04029 1.00258 0.91423 0.0
C653 C 0.05125 0.01212 0.88955 0.0
C654 C 0.05049 0.9782 0.87175 0.0
C655 C 0.02269 0.9847 0.8493 0.0
C656 C 0.09064 0.96848 0.86194 0.0
C657 C 0.03612 0.94825 0.89003 0.0
C658 C 0.03051 0.96262 0.91449 0.0
C659 C 0.01444 0.94072 0.93398 0.0
C660 C 1.00326 0.90342 0.92812 0.0
C661 C 0.00822 0.88854 0.90298 0.0
C662 C 0.02591 0.91112 0.88405 0.0
H663 H 0.07617 0.98835 0.42716 0.0
H664 H 0.06311 0.90722 0.36444 0.0
H665 H 0.99474 0.91662 0.36577 0.0
H666 H 0.98203 0.97249 0.45951 0.0
H667 H 0.97541 0.02263 0.46523 0.0
H668 H 0.02266 1.00245 0.46487 0.0
H669 H 0.04265 0.05076 0.42986 0.0
H670 H 0.99563 0.07099 0.4301 0.0
H671 H 0.01576 0.05359 0.40041 0.0
H672 H 0.93 0.94126 0.36777 0.0
H673 H 0.87362 0.98319 0.36878 0.0
H674 H 0.92701 0.05328 0.42686 0.0
C675 C 0.0592 0.97203 0.41387 0.0
C676 C 0.07605 0.94636 0.39606 0.0
C677 C 0.05188 0.92587 0.37915 0.0
C678 C 0.01251 0.9312 0.37955 0.0
C679 C 0.99726 0.95754 0.39665 0.0
C680 C 0.01976 0.97786 0.41343 0.0
C681 C 0.99689 0.00884 0.42681 0.0
C682 C 0.99408 1.00113 0.45583 0.0
C683 C 0.01373 0.04837 0.42146 0.0
C684 C 0.95864 1.00395 0.41382 0.0
C685 C 0.95934 0.97335 0.39709 0.0
C686 C 0.92879 0.96482 0.38115 0.0
C687 C 0.89702 0.98879 0.38176 0.0
C688 C 0.89623 0.02101 0.39801 0.0
C689 C 0.9269 0.02823 0.41473 0.0
H690 H 0.5786 0.45144 0.13232 0.0
H691 H 0.56365 0.42721 0.05108 0.0
H692 H 0.54007 0.49289 0.04439 0.0
H693 H 0.49699 0.50461 0.14071 0.0
H694 H 0.51737 0.53824 0.16286 0.0
H695 H 0.53657 0.49086 0.16071 0.0
H696 H 0.60349 0.5178 0.15095 0.0
H697 H 0.58465 0.56538 0.15348 0.0
H698 H 0.60949 0.55076 0.12475 0.0
H699 H 0.51284 0.5599 0.04777 0.0
H700 H 0.48644 0.62245 0.06058 0.0
H701 H 0.52241 0.60196 0.13922 0.0
C702 C 0.57168 0.46013 0.1129 0.0
C703 C 0.57338 0.43419 0.09217 0.0
C704 C 0.56253 0.44655 0.06728 0.0
C705 C 0.54926 0.48382 0.06328 0.0
C706 C 0.54726 0.50836 0.08435 0.0
C707 C 0.55859 0.49703 0.1086 0.0
C708 C 0.55186 0.52783 0.12838 0.0
C709 C 0.52405 0.51458 0.14939 0.0
C710 C 0.58963 0.54124 0.14007 0.0
C711 C 0.53422 0.55813 0.11161 0.0
C712 C 0.5319 0.54659 0.08625 0.0
C713 C 0.51503 0.56941 0.06752 0.0
C714 C 0.5002 0.60492 0.07496 0.0
C715 C 0.50228 0.61714 0.10093 0.0
C716 C 0.51988 0.59337 0.1193 0.0
H717 H 0.41744 0.46673 0.60566 0.0
H718 H 0.43069 0.35018 0.6313 0.0
H719 H 0.50052 0.35667 0.62881 0.0
H720 H 0.50385 0.46902 0.56224 0.0
H721 H 0.51393 0.5173 0.57153 0.0
H722 H 0.46544 0.50105 0.5703 0.0
H723 H 0.45575 0.52206 0.61766 0.0
H724 H 0.50408 0.53803 0.61913 0.0
H725 H 0.48716 0.50372 0.64212 0.0
H726 H 0.5674 0.37902 0.6309 0.0
H727 H 0.62665 0.41548 0.63683 0.0
H728 H 0.56996 0.51709 0.60908 0.0
C729 C 0.435 0.44207 0.60968 0.0
C730 C 0.41878 0.40783 0.61842 0.0
C731 C 0.44268 0.37664 0.62453 0.0
C732 C 0.48229 0.37999 0.62299 0.0
C733 C 0.49744 0.4146 0.61511 0.0
C734 C 0.47451 0.445 0.60829 0.0
C735 C 0.49764 0.48044 0.60353 0.0
C736 C 0.49506 0.49266 0.57521 0.0
C737 C 0.48543 0.51294 0.6217 0.0
C738 C 0.53695 0.46575 0.60997 0.0
C739 C 0.53634 0.42753 0.61619 0.0
C740 C 0.56845 0.40867 0.62547 0.0
C741 C 0.60183 0.42957 0.62891 0.0
C742 C 0.6027 0.46884 0.62311 0.0
C743 C 0.57016 0.48685 0.61295 0.0
H744 H 0.10358 0.34073 0.05723 0.0
H745 H 0.00959 0.26509 0.07321 0.0
H746 H 0.99487 0.26225 0.02674 0.0
H747 H 0.06091 0.39127 1.00111 0.0
H748 H 0.10566 0.3924 0.9842 0.0
H749 H 0.10482 0.39358 0.01887 0.0
H750 H 0.14937 0.33471 0.02019 0.0
H751 H 0.15024 0.33325 0.98562 0.0
H752 H 0.13568 0.29197 1.00353 0.0
H753 H 0.99454 0.26226 0.97846 0.0
H754 H 0.00996 0.26283 0.93222 0.0
H755 H 0.10585 0.3366 0.9473 0.0
C756 C 0.07909 0.32463 0.05103 0.0
C757 C 0.05724 0.30369 0.06887 0.0
C758 C 0.02638 0.28171 0.05989 0.0
C759 C 0.01779 0.28 0.03354 0.0
C760 C 0.04047 0.30024 0.01637 0.0
C761 C 0.07052 0.32215 0.02474 0.0
C762 C 0.09303 0.3377 1.00221 0.0
C763 C 0.09097 0.38133 1.00156 0.0
C764 C 0.13452 0.32355 1.00294 0.0
C765 C 0.07151 0.32043 0.97984 0.0
C766 C 0.04095 0.29941 0.98844 0.0
C767 C 0.01815 0.27897 0.97152 0.0
C768 C 0.02726 0.27937 0.94523 0.0
C769 C 0.05913 0.29976 0.93601 0.0
C770 C 0.08096 0.32122 0.9536 0.0
H771 H 0.69486 0.00536 0.43674 0.0
H772 H 0.68302 0.12791 0.43458 0.0
H773 H 0.67629 0.12938 0.48192 0.0
H774 H 0.63177 0.98706 0.49351 0.0
H775 H 0.66324 0.95087 0.50589 0.0
H776 H 0.65992 0.95862 0.47169 0.0
H777 H 0.73271 0.96848 0.46944 0.0
H778 H 0.73632 0.96097 0.50355 0.0
H779 H 0.7544 1.00408 0.48953 0.0
H780 H 0.67723 0.11835 0.52948 0.0
H781 H 0.69015 0.09641 0.57368 0.0
H782 H 0.70531 0.98123 0.54526 0.0
C783 C 0.68936 0.03225 0.44625 0.0
C784 C 0.68842 0.06647 0.43211 0.0
C785 C 0.68312 0.1014 0.44516 0.0
C786 C 0.6792 0.10246 0.472 0.0
C787 C 0.6811 0.06834 0.48555 0.0
C788 C 0.6862 0.03386 0.47315 0.0
C789 C 0.69219 1.00199 0.49238 0.0
C790 C 0.65984 0.97292 0.49077 0.0
C791 C 0.73122 0.98278 0.48849 0.0
C792 C 0.69058 0.02407 0.51745 0.0
C793 C 0.68342 0.06217 0.5131 0.0
C794 C 0.68257 0.08853 0.53314 0.0
C795 C 0.69012 0.0758 0.55821 0.0
C796 C 0.69905 0.03715 0.56304 0.0
C797 C 0.69828 0.01091 0.54235 0.0
H798 H 0.86438 0.77346 0.95696 0.0
H799 H 0.942 0.67935 0.94341 0.0
H800 H 0.94279 0.66567 0.99009 0.0
H801 H 0.90848 0.80818 0.00955 0.0
H802 H 0.86618 0.82245 0.02671 0.0
H803 H 0.86557 0.81971 0.99223 0.0
H804 H 0.8086 0.77336 0.99406 0.0
H805 H 0.80882 0.77618 0.02869 0.0
H806 H 0.81222 0.73059 0.01298 0.0
H807 H 0.94345 0.66962 0.03889 0.0
H808 H 0.94312 0.69019 0.08443 0.0
H809 H 0.86466 0.78137 0.0652 0.0
C810 C 0.88066 0.74923 0.96368 0.0
C811 C 0.90303 0.7274 0.94656 0.0
C812 C 0.92429 0.6962 0.95615 0.0
C813 C 0.92493 0.68825 0.98265 0.0
C814 C 0.90369 0.7114 0.99917 0.0
C815 C 0.88151 0.74095 0.98992 0.0
C816 C 0.86449 0.76423 0.01155 0.0
C817 C 0.87695 0.80609 0.00991 0.0
C818 C 0.82095 0.76087 0.01183 0.0
C819 C 0.88201 0.74443 0.03446 0.0
C820 C 0.90402 0.71361 0.02709 0.0
C821 C 0.92563 0.69318 0.0449 0.0
C822 C 0.92529 0.70508 0.07074 0.0
C823 C 0.9038 0.73735 0.0784 0.0
C824 C 0.88117 0.75642 0.06005 0.0
H825 H 0.27031 0.03883 0.45049 0.0
H826 H 0.31185 0.92732 0.42789 0.0
H827 H 0.3276 0.91333 0.47324 0.0
H828 H 0.33997 0.05502 0.50376 0.0
H829 H 0.30438 0.07851 0.52315 0.0
H830 H 0.30233 0.08173 0.48857 0.0
H831 H 0.23352 0.05577 0.48942 0.0
H832 H 0.23542 0.05225 0.52386 0.0
H833 H 0.22426 0.01091 0.50487 0.0
H834 H 0.32987 0.90832 0.52185 0.0
H835 H 0.31958 0.91329 0.56881 0.0
H836 H 0.27747 0.02851 0.55892 0.0
C837 C 0.28379 0.01186 0.45487 0.0
C838 C 0.28955 0.98405 0.4356 0.0
C839 C 0.30677 0.94894 0.44233 0.0
C840 C 0.31604 0.94084 0.46805 0.0
C841 C 0.30849 0.96837 0.48673 0.0
C842 C 0.2932 1.00339 0.48035 0.0
C843 C 0.28452 0.02682 0.5041 0.0
C844 C 0.30929 0.06264 0.50494 0.0
C845 C 0.24192 0.037 0.50564 0.0
C846 C 0.29586 0.99899 0.52491 0.0
C847 C 0.31011 0.9656 0.51459 0.0
C848 C 0.31941 0.93461 0.53013 0.0
C849 C 0.3133 0.93763 0.55678 0.0
C850 C 0.29775 0.97129 0.56761 0.0
C851 C 0.28995 1.00257 0.5514 0.0
H852 H 0.49032 0.21981 0.05623 0.0
H853 H 0.61174 0.20892 0.06911 0.0
H854 H 0.62071 0.19205 0.02329 0.0
H855 H 0.4821 0.14301 0.00668 0.0
H856 H 0.44722 0.17 0.98894 0.0
H857 H 0.45002 0.17463 0.02342 0.0
H858 H 0.45789 0.24749 0.01864 0.0
H859 H 0.45532 0.2431 0.98427 0.0
H860 H 0.4958 0.26567 0.99887 0.0
H861 H 0.61705 0.18616 0.97459 0.0
H862 H 0.60108 0.19104 0.92839 0.0
H863 H 0.48201 0.20518 0.94822 0.0
C864 C 0.51876 0.21283 0.04972 0.0
C865 C 0.55039 0.21608 0.06634 0.0
C866 C 0.58708 0.20702 0.05677 0.0
C867 C 0.59241 0.19718 0.03077 0.0
C868 C 0.5607 0.1959 0.01467 0.0
C869 C 0.52451 0.20301 0.02394 0.0
C870 C 0.49549 0.20349 1.00246 0.0
C871 C 0.46703 0.17083 0.00557 0.0
C872 C 0.47495 0.24223 1.00098 0.0
C873 C 0.5211 0.19709 0.97946 0.0
C874 C 0.55857 0.19223 0.98683 0.0
C875 C 0.58771 0.18925 0.96868 0.0
C876 C 0.57839 0.19222 0.94246 0.0
C877 C 0.54029 0.19847 0.9346 0.0
C878 C 0.51132 0.19973 0.95345 0.0
H879 H 0.7409 0.5498 0.57652 0.0
H880 H 0.86026 0.57705 0.58461 0.0
H881 H 0.86583 0.58174 0.53712 0.0
H882 H 0.74823 0.49523 0.51676 0.0
H883 H 0.7038 0.51392 0.50486 0.0
H884 H 0.71098 0.50833 0.53897 0.0
H885 H 0.69479 0.57952 0.54618 0.0
H886 H 0.68719 0.58523 0.51223 0.0
H887 H 0.7208 0.61514 0.52866 0.0
H888 H 0.85567 0.58934 0.48801 0.0
H889 H 0.83004 0.60238 0.44424 0.0
H890 H 0.71777 0.57064 0.47037 0.0
C891 C 0.76831 0.55664 0.56849 0.0
C892 C 0.79999 0.56342 0.5844 0.0
C893 C 0.83551 0.57169 0.57282 0.0
C894 C 0.83895 0.5743 0.54585 0.0
C895 C 0.80671 0.56811 0.53076 0.0
C896 C 0.77212 0.55933 0.54185 0.0
C897 C 0.74088 0.55671 0.52206 0.0
C898 C 0.72506 0.51613 0.52058 0.0
C899 C 0.70908 0.58589 0.52761 0.0
C900 C 0.76285 0.56664 0.49805 0.0
C901 C 0.80095 0.57249 0.50314 0.0
C902 C 0.826 0.58427 0.48382 0.0
C903 C 0.81137 0.59137 0.459 0.0
C904 C 0.77212 0.58713 0.45407 0.0
C905 C 0.74802 0.57364 0.47366 0.0
H906 H 0.41178 0.80686 0.06864 0.0
H907 H 0.52286 0.85926 0.07071 0.0
H908 H 0.52447 0.85948 0.02294 0.0
H909 H 0.43141 0.74401 0.01899 0.0
H910 H 0.38471 0.74657 0.00485 0.0
H911 H 0.39066 0.75536 0.03866 0.0
H912 H 0.35803 0.82114 0.03394 0.0
H913 H 0.35162 0.81257 1.00005 0.0
H914 H 0.37598 0.85465 0.01076 0.0
H915 H 0.51589 0.84638 0.97393 0.0
H916 H 0.4973 0.82326 0.93049 0.0
H917 H 0.39194 0.78068 0.96259 0.0
C918 C 0.43628 0.81885 0.05911 0.0
C919 C 0.46722 0.83291 0.07341 0.0
C920 C 0.49862 0.84865 0.06014 0.0
C921 C 0.49982 0.84873 0.033 0.0
C922 C 0.4692 0.83338 0.01947 0.0
C923 C 0.43785 0.81916 0.03226 0.0
C924 C 0.40951 0.80209 0.01385 0.0
C925 C 0.40377 0.7595 0.01942 0.0
C926 C 0.37154 0.82393 0.0147 0.0
C927 C 0.42993 0.80817 0.98861 0.0
C928 C 0.46427 0.82636 0.99196 0.0
C929 C 0.48876 0.83264 0.97115 0.0
C930 C 0.47799 0.81952 0.94651 0.0
C931 C 0.44312 0.80026 0.94301 0.0
C932 C 0.41876 0.79539 0.9644 0.0
H933 H 0.24545 0.35095 0.55592 0.0
H934 H 0.19492 0.4593 0.57717 0.0
H935 H 0.18013 0.47142 0.53112 0.0
H936 H 0.29243 0.3836 0.50196 0.0
H937 H 0.28641 0.34046 0.48371 0.0
H938 H 0.28751 0.33868 0.51824 0.0
H939 H 0.22198 0.30528 0.51851 0.0
H940 H 0.22063 0.30708 0.48388 0.0
H941 H 0.18218 0.32729 0.50244 0.0
H942 H 0.17578 0.47283 0.48127 0.0
H943 H 0.18686 0.46596 0.43434 0.0
H944 H 0.24305 0.3579 0.44758 0.0
C945 C 0.2306 0.37704 0.55117 0.0
C946 C 0.22108 0.40407 0.57032 0.0
C947 C 0.20217 0.43798 0.56292 0.0
C948 C 0.19365 0.44503 0.5368 0.0
C949 C 0.20421 0.41787 0.51838 0.0
C950 C 0.22238 0.38458 0.52543 0.0
C951 C 0.23425 0.36131 0.50227 0.0
C952 C 0.27771 0.35572 0.50151 0.0
C953 C 0.21351 0.32297 0.50175 0.0
C954 C 0.22075 0.38693 0.48083 0.0
C955 C 0.20279 0.41914 0.49031 0.0
C956 C 0.18944 0.4475 0.47377 0.0
C957 C 0.1956 0.44325 0.4471 0.0
C958 C 0.21552 0.41121 0.43733 0.0
C959 C 0.22741 0.3825 0.45447 0.0
H960 H 0.13338 0.35926 0.18341 0.0
H961 H 0.04716 0.29255 0.22156 0.0
H962 H 0.05263 0.33279 0.2603 0.0
H963 H 0.19223 0.36405 0.23417 0.0
H964 H 0.20918 0.41174 0.22925 0.0
H965 H 0.19194 0.38467 0.20243 0.0
H966 H 0.14313 0.4378 0.1918 0.0
H967 H 0.16057 0.46537 0.21851 0.0
H968 H 0.11073 0.45421 0.21637 0.0
H969 H 0.07676 0.37048 0.29735 0.0
H970 H 0.11593 0.40492 0.32917 0.0
H971 H 0.18616 0.44804 0.26718 0.0
C972 C 0.11428 0.35467 0.19946 0.0
C973 C 0.08909 0.32371 0.19944 0.0
C974 C 0.06595 0.31685 0.22118 0.0
C975 C 0.06892 0.3395 0.24324 0.0
C976 C 0.09526 0.3689 0.24326 0.0
C977 C 0.11724 0.37691 0.22181 0.0
C978 C 0.14706 0.40641 0.22803 0.0
C979 C 0.18746 0.39076 0.22319 0.0
C980 C 0.13993 0.44313 0.21277 0.0
C981 C 0.13955 0.41233 0.25648 0.0
C982 C 0.10926 0.39085 0.26486 0.0
C983 C 0.09985 0.38831 0.29092 0.0
C984 C 0.12229 0.40785 0.30889 0.0
C985 C 0.15374 0.42959 0.30068 0.0
C986 C 0.16173 0.43245 0.27407 0.0
H987 H 0.72704 0.13425 0.70964 0.0
H988 H 0.64223 0.04876 0.69345 0.0
H989 H 0.60295 0.07331 0.72988 0.0
H990 H 0.72126 0.13415 0.77722 0.0
H991 H 0.72672 0.18483 0.78045 0.0
H992 H 0.74734 0.16043 0.75332 0.0
H993 H 0.71097 0.20471 0.72193 0.0
H994 H 0.69079 0.22976 0.74894 0.0
H995 H 0.66011 0.20959 0.72483 0.0
H996 H 0.57587 0.1059 0.77113 0.0
H997 H 0.55898 0.14886 0.80755 0.0
H998 H 0.66034 0.21471 0.79287 0.0
C999 C 0.69998 0.12088 0.71355 0.0
C1000 C 0.68755 0.0896 0.69888 0.0
C1001 C 0.652 0.07295 0.70446 0.0
C1002 C 0.62978 0.08654 0.7252 0.0
C1003 C 0.64337 0.11715 0.73968 0.0
C1004 C 0.67735 0.13455 0.73359 0.0
C1005 C 0.68547 0.1678 0.75112 0.0
C1006 C 0.72238 0.16139 0.76643 0.0
C1007 C 0.68689 0.20517 0.73579 0.0
C1008 C 0.65101 0.16634 0.76842 0.0
C1009 C 0.62719 0.13668 0.76195 0.0
C1010 C 0.59419 0.12938 0.77611 0.0
C1011 C 0.58497 0.15362 0.79687 0.0
C1012 C 0.60836 0.18499 0.80284 0.0
C1013 C 0.64186 0.19101 0.78857 0.0
H1014 H 0.83614 0.66603 0.331 0.0
H1015 H 0.77733 0.57498 0.29189 0.0
H1016 H 0.81729 0.58447 0.25339 0.0
H1017 H 0.83794 0.72606 0.27937 0.0
H1018 H 0.88411 0.74619 0.2853 0.0
H1019 H 0.85682 0.72739 0.31158 0.0
H1020 H 0.91258 0.68242 0.32371 0.0
H1021 H 0.94028 0.7014 0.29755 0.0
H1022 H 0.93233 0.65094 0.29972 0.0
H1023 H 0.85582 0.61014 0.21716 0.0
H1024 H 0.8918 0.64935 0.18617 0.0
H1025 H 0.92559 0.72408 0.24847 0.0
C1026 C 0.83304 0.64712 0.3147 0.0
C1027 C 0.80444 0.61926 0.31441 0.0
C1028 C 0.79965 0.59607 0.29242 0.0
C1029 C 0.82219 0.60124 0.27052 0.0
C1030 C 0.84931 0.62987 0.27089 0.0
C1031 C 0.85511 0.65227 0.29246 0.0
C1032 C 0.88287 0.68391 0.28674 0.0
C1033 C 0.86431 0.72319 0.29099 0.0
C1034 C 0.91917 0.67938 0.30289 0.0
C1035 C 0.89068 0.67651 0.25848 0.0
C1036 C 0.87142 0.64497 0.24976 0.0
C1037 C 0.87174 0.63444 0.22385 0.0
C1038 C 0.89212 0.65691 0.20636 0.0
C1039 C 0.91179 0.68953 0.21489 0.0
C1040 C 0.91141 0.69894 0.24137 0.0
H1041 H 0.42114 0.77397 0.77145 0.0
H1042 H 0.42339 0.87112 0.82282 0.0
H1043 H 0.40232 0.91257 0.78686 0.0
H1044 H 0.44912 0.82433 0.71116 0.0
H1045 H 0.41705 0.79593 0.69226 0.0
H1046 H 0.43931 0.77602 0.72046 0.0
H1047 H 0.37306 0.75902 0.73896 0.0
H1048 H 0.35076 0.77863 0.71089 0.0
H1049 H 0.33758 0.79589 0.74235 0.0
H1050 H 0.37128 0.94085 0.74696 0.0
H1051 H 0.33125 0.95231 0.70849 0.0
H1052 H 0.34883 0.836 0.6842 0.0
C1053 C 0.41817 0.80414 0.77511 0.0
C1054 C 0.42405 0.81937 0.79996 0.0
C1055 C 0.41942 0.85892 0.80389 0.0
C1056 C 0.40752 0.88262 0.78354 0.0
C1057 C 0.40084 0.86631 0.75941 0.0
C1058 C 0.40625 0.82789 0.75519 0.0
C1059 C 0.39301 0.81609 0.72868 0.0
C1060 C 0.42663 0.80228 0.71216 0.0
C1061 C 0.36175 0.78565 0.73034 0.0
C1062 C 0.37751 0.8535 0.71889 0.0
C1063 C 0.38306 0.88243 0.73658 0.0
C1064 C 0.36777 0.91867 0.73273 0.0
C1065 C 0.34531 0.92505 0.71078 0.0
C1066 C 0.33833 0.89533 0.69311 0.0
C1067 C 0.35529 0.85949 0.69693 0.0
H1068 H 0.86791 0.6688 0.82579 0.0
H1069 H 0.97859 0.64829 0.79152 0.0
H1070 H 0.9478 0.62382 0.75222 0.0
H1071 H 0.81836 0.58639 0.79627 0.0
H1072 H 0.77523 0.61348 0.79176 0.0
H1073 H 0.80628 0.6242 0.8183 0.0
H1074 H 0.80947 0.69404 0.80295 0.0
H1075 H 0.77941 0.68344 0.77592 0.0
H1076 H 0.82548 0.70427 0.77075 0.0
H1077 H 0.90524 0.6081 0.71511 0.0
H1078 H 0.85333 0.59553 0.68427 0.0
H1079 H 0.77057 0.62777 0.74251 0.0
C1080 C 0.88559 0.65765 0.81043 0.0
C1081 C 0.92558 0.65969 0.81177 0.0
C1082 C 0.94787 0.64638 0.7909 0.0
C1083 C 0.93066 0.63268 0.76848 0.0
C1084 C 0.89114 0.63267 0.76724 0.0
C1085 C 0.86883 0.64427 0.78778 0.0
C1086 C 0.82705 0.64371 0.78087 0.0
C1087 C 0.80546 0.61523 0.7978 0.0
C1088 C 0.80933 0.68374 0.78273 0.0
C1089 C 0.82944 0.63027 0.75322 0.0
C1090 C 0.86663 0.62414 0.7457 0.0
C1091 C 0.87594 0.61242 0.72083 0.0
C1092 C 0.84632 0.60566 0.70339 0.0
C1093 C 0.80795 0.61057 0.71099 0.0
C1094 C 0.79962 0.62362 0.73612 0.0
H1095 H 0.33107 0.87584 0.31713 0.0
H1096 H 0.30437 0.98296 0.28046 0.0
H1097 H 0.34227 0.96394 0.24237 0.0
H1098 H 0.42885 0.86076 0.28765 0.0
H1099 H 0.42032 0.81056 0.28408 0.0
H1100 H 0.39914 0.83634 0.3105 0.0
H1101 H 0.33279 0.81261 0.29648 0.0
H1102 H 0.35345 0.78747 0.26976 0.0
H1103 H 0.31639 0.82209 0.26426 0.0
H1104 H 0.37449 0.9291 0.20572 0.0
H1105 H 0.39893 0.88181 0.17427 0.0
H1106 H 0.40165 0.79667 0.23457 0.0
C1107 C 0.33513 0.89599 0.30164 0.0
C1108 C 0.31625 0.93139 0.30195 0.0
C1109 C 0.31984 0.95624 0.28075 0.0
C1110 C 0.34112 0.94558 0.25903 0.0
C1111 C 0.35824 0.90974 0.25875 0.0
C1112 C 0.35573 0.88543 0.27963 0.0
C1113 C 0.37207 0.84666 0.27324 0.0
C1114 C 0.40719 0.83809 0.28985 0.0
C1115 C 0.34187 0.8154 0.2761 0.0
C1116 C 0.38294 0.85255 0.24534 0.0
C1117 C 0.37539 0.88923 0.23737 0.0
C1118 C 0.38111 0.90045 0.21188 0.0
C1119 C 0.39486 0.87343 0.19412 0.0
C1120 C 0.40218 0.83558 0.20191 0.0
C1121 C 0.39644 0.82539 0.22794 0.0
H1122 H 0.09962 0.28107 0.77207 0.0
H1123 H 0.10277 0.3606 0.83584 0.0
H1124 H 0.12081 0.41196 0.80567 0.0
H1125 H 0.17956 0.31214 0.74136 0.0
H1126 H 0.16203 0.3052 0.70914 0.0
H1127 H 0.14359 0.27706 0.73503 0.0
H1128 H 0.07523 0.2993 0.72366 0.0
H1129 H 0.0937 0.3279 0.69779 0.0
H1130 H 0.06441 0.3494 0.72236 0.0
H1131 H 0.1494 0.45091 0.77006 0.0
H1132 H 0.18636 0.47358 0.73267 0.0
H1133 H 0.16077 0.36982 0.69165 0.0
C1134 C 0.1033 0.30946 0.77969 0.0
C1135 C 0.0998 0.31688 0.80633 0.0
C1136 C 0.10509 0.35435 0.81549 0.0
C1137 C 0.1152 0.38367 0.79846 0.0
C1138 C 0.11918 0.37513 0.77233 0.0
C1139 C 0.11304 0.33892 0.76299 0.0
C1140 C 0.12259 0.33599 0.73462 0.0
C1141 C 0.15379 0.30585 0.72978 0.0
C1142 C 0.08684 0.32767 0.71867 0.0
C1143 C 0.1369 0.37578 0.72962 0.0
C1144 C 0.13423 0.39814 0.75152 0.0
C1145 C 0.15046 0.43416 0.7526 0.0
C1146 C 0.17121 0.44693 0.73125 0.0
C1147 C 0.17517 0.42396 0.70904 0.0
C1148 C 0.15655 0.38866 0.70789 0.0
H1149 H 0.725 0.13341 0.27432 0.0
H1150 H 0.64178 0.14955 0.33504 0.0
H1151 H 0.59457 0.17077 0.30258 0.0
H1152 H 0.70329 0.21328 0.23866 0.0
H1153 H 0.71075 0.19088 0.20784 0.0
H1154 H 0.73534 0.17332 0.23566 0.0
H1155 H 0.70766 0.10629 0.2267 0.0
H1156 H 0.68237 0.12447 0.19915 0.0
H1157 H 0.6569 0.10042 0.22439 0.0
H1158 H 0.5606 0.19949 0.26449 0.0
H1159 H 0.5423 0.23222 0.22424 0.0
H1160 H 0.64638 0.19354 0.188 0.0
C1161 C 0.69666 0.14088 0.28081 0.0
C1162 C 0.68702 0.14006 0.30722 0.0
C1163 C 0.64966 0.1499 0.31489 0.0
C1164 C 0.62271 0.16185 0.29658 0.0
C1165 C 0.63344 0.16296 0.27068 0.0
C1166 C 0.66946 0.15229 0.26282 0.0
C1167 C 0.67489 0.15824 0.23419 0.0
C1168 C 0.70801 0.18558 0.22881 0.0
C1169 C 0.6808 0.12008 0.22029 0.0
C1170 C 0.63693 0.17587 0.22726 0.0
C1171 C 0.61321 0.17791 0.24852 0.0
C1172 C 0.57842 0.19702 0.24759 0.0
C1173 C 0.5682 0.21542 0.22467 0.0
C1174 C 0.59242 0.21421 0.20293 0.0
C1175 C 0.62666 0.19331 0.20402 0.0
H1176 H 0.40821 0.31765 0.17096 0.0
H1177 H 0.44759 0.21453 0.13312 0.0
H1178 H 0.38123 0.19559 0.12604 0.0
H1179 H 0.32125 0.2769 0.20058 0.0
H1180 H 0.29386 0.31951 0.19486 0.0
H1181 H 0.34434 0.32251 0.2004 0.0
H1182 H 0.35236 0.35865 0.15738 0.0
H1183 H 0.30204 0.35562 0.15167 0.0
H1184 H 0.33508 0.33753 0.12806 0.0
H1185 H 0.31125 0.19156 0.11787 0.0
H1186 H 0.24259 0.20201 0.11043 0.0
H1187 H 0.24726 0.30759 0.15308 0.0
C1188 C 0.40311 0.2908 0.16149 0.0
C1189 C 0.43373 0.26769 0.15265 0.0
C1190 C 0.42517 0.23266 0.14048 0.0
C1191 C 0.38735 0.22168 0.13623 0.0
C1192 C 0.35809 0.24575 0.1444 0.0
C1193 C 0.36547 0.27944 0.15701 0.0
C1194 C 0.32889 0.30147 0.16218 0.0
C1195 C 0.32166 0.30532 0.19124 0.0
C1196 C 0.32965 0.34062 0.14903 0.0
C1197 C 0.29988 0.27549 0.14974 0.0
C1198 C 0.31741 0.24332 0.13983 0.0
C1199 C 0.2972 0.21631 0.12591 0.0
C1200 C 0.25828 0.2225 0.1217 0.0
C1201 C 0.23973 0.25537 0.13137 0.0
C1202 C 0.2607 0.28188 0.14597 0.0
H1203 H 0.74314 0.24434 0.60416 0.0
H1204 H 0.7636 0.19847 0.68057 0.0
H1205 H 0.76987 0.26332 0.69741 0.0
H1206 H 0.81084 0.31884 0.6079 0.0
H1207 H 0.78239 0.35293 0.59051 0.0
H1208 H 0.7768 0.30288 0.5844 0.0
H1209 H 0.70486 0.30846 0.59446 0.0
H1210 H 0.71022 0.35858 0.60057 0.0
H1211 H 0.68967 0.32836 0.62478 0.0
H1212 H 0.77769 0.33269 0.70588 0.0
H1213 H 0.78503 0.40207 0.70573 0.0
H1214 H 0.76066 0.4048 0.62395 0.0
C1215 C 0.74897 0.24765 0.62444 0.0
C1216 C 0.75292 0.21555 0.64087 0.0
C1217 C 0.76004 0.22194 0.6674 0.0
C1218 C 0.76384 0.25892 0.67722 0.0
C1219 C 0.7604 0.2896 0.66042 0.0
C1220 C 0.75292 0.28447 0.63461 0.0
C1221 C 0.75148 0.32248 0.62064 0.0
C1222 C 0.78221 0.32438 0.59962 0.0
C1223 C 0.71169 0.3299 0.60945 0.0
C1224 C 0.76002 0.34972 0.64257 0.0
C1225 C 0.76489 0.32997 0.66533 0.0
C1226 C 0.77391 0.34841 0.68818 0.0
C1227 C 0.77836 0.38795 0.68782 0.0
C1228 C 0.77392 0.4091 0.66477 0.0
C1229 C 0.76411 0.38957 0.64188 0.0
H1230 H 0.61243 0.81957 0.18216 0.0
H1231 H 0.59193 0.74374 0.11794 0.0
H1232 H 0.6615 0.73718 0.11129 0.0
H1233 H 0.69521 0.86676 0.15576 0.0
H1234 H 0.71844 0.86971 0.18657 0.0
H1235 H 0.66731 0.86999 0.1848 0.0
H1236 H 0.665 0.81243 0.21584 0.0
H1237 H 0.7161 0.81176 0.21755 0.0
H1238 H 0.69091 0.76966 0.20783 0.0
H1239 H 0.73423 0.73615 0.11388 0.0
H1240 H 0.80262 0.74395 0.12352 0.0
H1241 H 0.77384 0.81935 0.18675 0.0
C1242 C 0.62249 0.80168 0.16661 0.0
C1243 C 0.59673 0.78204 0.15062 0.0
C1244 C 0.61112 0.75935 0.13025 0.0
C1245 C 0.65057 0.75527 0.12647 0.0
C1246 C 0.67515 0.77428 0.14312 0.0
C1247 C 0.66152 0.79734 0.16262 0.0
C1248 C 0.69349 0.81413 0.17832 0.0
C1249 C 0.69361 0.85773 0.17622 0.0
C1250 C 0.69123 0.80121 0.20655 0.0
C1251 C 0.72743 0.7967 0.16481 0.0
C1252 C 0.71643 0.77376 0.14457 0.0
C1253 C 0.74307 0.75416 0.12964 0.0
C1254 C 0.78186 0.7585 0.13541 0.0
C1255 C 0.79367 0.78228 0.15591 0.0
C1256 C 0.76586 0.80137 0.17077 0.0
H1257 H 0.26369 0.59946 0.6738 0.0
H1258 H 0.25867 0.55368 0.59645 0.0
H1259 H 0.25926 0.61908 0.57888 0.0
H1260 H 0.202 0.68207 0.66124 0.0
H1261 H 0.22835 0.71292 0.68231 0.0
H1262 H 0.22647 0.66265 0.68874 0.0
H1263 H 0.30003 0.6597 0.68877 0.0
H1264 H 0.30213 0.70986 0.68205 0.0
H1265 H 0.32589 0.67647 0.66109 0.0
H1266 H 0.26659 0.68848 0.56982 0.0
H1267 H 0.27106 0.75753 0.56896 0.0
H1268 H 0.26634 0.76057 0.65259 0.0
C1269 C 0.26239 0.6033 0.65316 0.0
C1270 C 0.2612 0.57144 0.63641 0.0
C1271 C 0.2592 0.57759 0.60957 0.0
C1272 C 0.25984 0.61463 0.59947 0.0
C1273 C 0.26185 0.64531 0.61648 0.0
C1274 C 0.26234 0.64015 0.64278 0.0
C1275 C 0.26389 0.67817 0.65677 0.0
C1276 C 0.22804 0.68431 0.67324 0.0
C1277 C 0.30015 0.68121 0.67313 0.0
C1278 C 0.26489 0.70554 0.63418 0.0
C1279 C 0.26402 0.68577 0.6112 0.0
C1280 C 0.26635 0.70429 0.58769 0.0
C1281 C 0.26867 0.744 0.58751 0.0
C1282 C 0.26793 0.76559 0.61069 0.0
C1283 C 0.26655 0.74561 0.63441 0.0
H1284 H 0.89586 0.2551 0.82431 0.0
H1285 H 0.93707 0.22298 0.89989 0.0
H1286 H 0.87106 0.21738 0.91526 0.0
H1287 H 0.81686 0.31219 0.8471 0.0
H1288 H 0.78507 0.29825 0.82165 0.0
H1289 H 0.83562 0.29872 0.81609 0.0
H1290 H 0.83322 0.2282 0.80193 0.0
H1291 H 0.78268 0.22747 0.80765 0.0
H1292 H 0.81319 0.19335 0.82335 0.0
H1293 H 0.80168 0.2136 0.92247 0.0
H1294 H 0.73209 0.2183 0.92287 0.0
H1295 H 0.73302 0.25584 0.84336 0.0
C1296 C 0.89087 0.24681 0.84406 0.0
C1297 C 0.92178 0.23958 0.86094 0.0
C1298 C 0.91406 0.22918 0.88672 0.0
C1299 C 0.8766 0.22556 0.89555 0.0
C1300 C 0.84689 0.23265 0.87847 0.0
C1301 C 0.85341 0.24348 0.85334 0.0
C1302 C 0.81595 0.2509 0.83945 0.0
C1303 C 0.81322 0.29249 0.83055 0.0
C1304 C 0.81098 0.22333 0.81675 0.0
C1305 C 0.78749 0.24265 0.86077 0.0
C1306 C 0.80624 0.23172 0.88295 0.0
C1307 C 0.7867 0.22251 0.90531 0.0
C1308 C 0.74704 0.22549 0.90536 0.0
C1309 C 0.72684 0.23812 0.88332 0.0
C1310 C 0.74748 0.24604 0.8605 0.0
H1311 H 0.72389 0.78556 0.4099 0.0
H1312 H 0.7864 0.73852 0.34509 0.0
H1313 H 0.80356 0.80335 0.33154 0.0
H1314 H 0.68271 0.86086 0.37673 0.0
H1315 H 0.68531 0.89459 0.40278 0.0
H1316 H 0.68261 0.84458 0.4096 0.0
H1317 H 0.7445 0.84864 0.4364 0.0
H1318 H 0.74728 0.89881 0.4297 0.0
H1319 H 0.7868 0.86799 0.42197 0.0
H1320 H 0.80719 0.87319 0.32197 0.0
H1321 H 0.79818 0.9425 0.31753 0.0
H1322 H 0.73278 0.94489 0.38818 0.0
C1323 C 0.74155 0.7887 0.39301 0.0
C1324 C 0.75368 0.75658 0.37859 0.0
C1325 C 0.77708 0.76232 0.35673 0.0
C1326 C 0.78687 0.79918 0.3488 0.0
C1327 C 0.77339 0.83013 0.36304 0.0
C1328 C 0.7515 0.82527 0.38483 0.0
C1329 C 0.73834 0.86325 0.39568 0.0
C1330 C 0.69466 0.86596 0.39621 0.0
C1331 C 0.75525 0.87007 0.42253 0.0
C1332 C 0.75514 0.89028 0.37608 0.0
C1333 C 0.7756 0.87054 0.35757 0.0
C1334 C 0.79168 0.88891 0.33653 0.0
C1335 C 0.78623 0.92825 0.33409 0.0
C1336 C 0.76484 0.94902 0.35253 0.0
C1337 C 0.7498 0.9298 0.37408 0.0
H1338 H 0.09718 0.76008 0.87325 0.0
H1339 H 0.10246 0.63737 0.88109 0.0
H1340 H 0.1723 0.63954 0.87853 0.0
H1341 H 0.17626 0.76787 0.82761 0.0
H1342 H 0.19326 0.81157 0.84145 0.0
H1343 H 0.14341 0.80028 0.84292 0.0
H1344 H 0.14473 0.80801 0.89246 0.0
H1345 H 0.19459 0.81911 0.89117 0.0
H1346 H 0.17827 0.78059 0.91108 0.0
H1347 H 0.24175 0.65506 0.87722 0.0
H1348 H 0.30579 0.68278 0.87654 0.0
H1349 H 0.25578 0.79526 0.86768 0.0
C1350 C 0.11296 0.73362 0.87403 0.0
C1351 C 0.09414 0.69856 0.87755 0.0
C1352 C 0.11607 0.66465 0.87884 0.0
C1353 C 0.15583 0.66554 0.87722 0.0
C1354 C 0.17347 0.70055 0.87415 0.0
C1355 C 0.1528 0.73398 0.87241 0.0
C1356 C 0.17893 0.76789 0.86976 0.0
C1357 C 0.17258 0.78808 0.84389 0.0
C1358 C 0.17382 0.79552 0.89247 0.0
C1359 C 0.21744 0.74828 0.8706 0.0
C1360 C 0.21362 0.70944 0.87307 0.0
C1361 C 0.24512 0.68543 0.875 0.0
C1362 C 0.28154 0.70152 0.87445 0.0
C1363 C 0.28636 0.74136 0.87194 0.0
C1364 C 0.25356 0.7648 0.86984 0.0
H1365 H 0.2288 0.27596 0.30957 0.0
H1366 H 0.27593 0.29589 0.38528 0.0
H1367 H 0.28217 0.22634 0.39194 0.0
H1368 H 0.17277 0.1948 0.32798 0.0
H1369 H 0.1798 0.17038 0.29783 0.0
H1370 H 0.18063 0.22152 0.29891 0.0
H1371 H 0.2474 0.22081 0.27779 0.0
H1372 H 0.24696 0.16963 0.27694 0.0
H1373 H 0.28535 0.19413 0.29265 0.0
H1374 H 0.2858 0.15476 0.38928 0.0
H1375 H 0.27714 0.08641 0.38079 0.0
H1376 H 0.22331 0.11292 0.30798 0.0
C1377 C 0.24045 0.26554 0.32751 0.0
C1378 C 0.25217 0.29105 0.34691 0.0
C1379 C 0.2667 0.27662 0.37032 0.0
C1380 C 0.27062 0.23728 0.37413 0.0
C1381 C 0.2593 0.21285 0.35445 0.0
C1382 C 0.24379 0.22639 0.33181 0.0
C1383 C 0.23182 0.19409 0.31434 0.0
C1384 C 0.18869 0.19527 0.30949 0.0
C1385 C 0.25423 0.19472 0.28893 0.0
C1386 C 0.24302 0.16021 0.33068 0.0
C1387 C 0.25949 0.17166 0.35351 0.0
C1388 C 0.27268 0.14549 0.37154 0.0
C1389 C 0.26786 0.10665 0.36647 0.0
C1390 C 0.24931 0.09427 0.3438 0.0
C1391 C 0.23735 0.12156 0.32553 0.0
H1392 H 0.61375 0.75432 0.81986 0.0
H1393 H 0.58979 0.76772 0.90119 0.0
H1394 H 0.65885 0.77354 0.90979 0.0
H1395 H 0.69613 0.69694 0.82644 0.0
H1396 H 0.72098 0.71808 0.79977 0.0
H1397 H 0.66982 0.71724 0.80002 0.0
H1398 H 0.66786 0.79043 0.79443 0.0
H1399 H 0.71905 0.79139 0.794 0.0
H1400 H 0.69311 0.82012 0.81686 0.0
H1401 H 0.73131 0.77286 0.9095 0.0
H1402 H 0.80026 0.77091 0.90013 0.0
H1403 H 0.77603 0.75856 0.81882 0.0
C1404 C 0.62297 0.75864 0.83949 0.0
C1405 C 0.59635 0.7604 0.85991 0.0
C1406 C 0.6096 0.76663 0.88526 0.0
C1407 C 0.64878 0.76971 0.89031 0.0
C1408 C 0.67426 0.76689 0.86974 0.0
C1409 C 0.66178 0.76194 0.84479 0.0
C1410 C 0.69477 0.75931 0.82608 0.0
C1411 C 0.69545 0.72059 0.81227 0.0
C1412 C 0.69362 0.79229 0.8067 0.0
C1413 C 0.72795 0.76309 0.84439 0.0
C1414 C 0.7156 0.76728 0.86951 0.0
C1415 C 0.74119 0.76991 0.88987 0.0
C1416 C 0.78031 0.7685 0.88439 0.0
C1417 C 0.79357 0.76471 0.85875 0.0
C1418 C 0.76685 0.76203 0.83856 0.0
H1419 H 0.19568 0.61634 0.39788 0.0
H1420 H 0.25232 0.58777 0.32622 0.0
H1421 H 0.26999 0.65527 0.32058 0.0
H1422 H 0.15712 0.70628 0.37749 0.0
H1423 H 0.16414 0.72834 0.40842 0.0
H1424 H 0.15606 0.67794 0.40635 0.0
H1425 H 0.2187 0.66529 0.43125 0.0
H1426 H 0.22702 0.71563 0.43333 0.0
H1427 H 0.26258 0.68483 0.41932 0.0
H1428 H 0.2807 0.72744 0.32298 0.0
H1429 H 0.28516 0.79592 0.33422 0.0
H1430 H 0.22086 0.77499 0.40393 0.0
C1431 C 0.21141 0.62421 0.38082 0.0
C1432 C 0.22242 0.59669 0.36244 0.0
C1433 C 0.24378 0.60826 0.34068 0.0
C1434 C 0.25377 0.64658 0.33724 0.0
C1435 C 0.2423 0.67296 0.35578 0.0
C1436 C 0.22166 0.66211 0.37717 0.0
C1437 C 0.21317 0.69551 0.39457 0.0
C1438 C 0.17007 0.70242 0.39683 0.0
C1439 C 0.23147 0.68997 0.42118 0.0
C1440 C 0.23229 0.72697 0.37972 0.0
C1441 C 0.24884 0.71368 0.35732 0.0
C1442 C 0.26787 0.73805 0.34053 0.0
C1443 C 0.27016 0.77687 0.34697 0.0
C1444 C 0.25379 0.79075 0.37008 0.0
C1445 C 0.23444 0.76527 0.38642 0.0
H1446 H 0.39557 0.27895 0.82153 0.0
H1447 H 0.43725 0.18255 0.86579 0.0
H1448 H 0.37151 0.16533 0.8761 0.0
H1449 H 0.32483 0.30601 0.86476 0.0
H1450 H 0.29057 0.32014 0.8408 0.0
H1451 H 0.34056 0.32218 0.83364 0.0
H1452 H 0.33052 0.27924 0.79377 0.0
H1453 H 0.28036 0.27718 0.80075 0.0
H1454 H 0.3076 0.23389 0.79752 0.0
H1455 H 0.30199 0.16264 0.88619 0.0
H1456 H 0.23372 0.17395 0.89434 0.0
H1457 H 0.23587 0.27211 0.84419 0.0
C1458 C 0.3913 0.25391 0.83314 0.0
C1459 C 0.42254 0.23242 0.84286 0.0
C1460 C 0.41459 0.19968 0.85783 0.0
C1461 C 0.37703 0.18959 0.8639 0.0
C1462 C 0.34732 0.2122 0.85477 0.0
C1463 C 0.35395 0.24352 0.83951 0.0
C1464 C 0.31705 0.26458 0.83366 0.0
C1465 C 0.31835 0.30565 0.84383 0.0
C1466 C 0.30838 0.26366 0.8047 0.0
C1467 C 0.28874 0.24084 0.84867 0.0
C1468 C 0.30689 0.21055 0.86049 0.0
C1469 C 0.28746 0.18593 0.87675 0.0
C1470 C 0.24871 0.19267 0.88136 0.0
C1471 C 0.22949 0.22376 0.86981 0.0
C1472 C 0.2497 0.24774 0.85285 0.0
H1473 H 0.74525 0.27754 0.41166 0.0
H1474 H 0.80118 0.24336 0.34078 0.0
H1475 H 0.80889 0.31077 0.329 0.0
H1476 H 0.69344 0.35454 0.38566 0.0
H1477 H 0.69826 0.3847 0.4135 0.0
H1478 H 0.69935 0.33385 0.41712 0.0
H1479 H 0.76464 0.33845 0.43987 0.0
H1480 H 0.76385 0.38939 0.43616 0.0
H1481 H 0.80343 0.36205 0.42393 0.0
H1482 H 0.80688 0.38149 0.3235 0.0
H1483 H 0.79299 0.45052 0.32397 0.0
H1484 H 0.74037 0.43986 0.39883 0.0
C1485 C 0.75974 0.28413 0.39387 0.0
C1486 C 0.77267 0.25484 0.37719 0.0
C1487 C 0.79065 0.26501 0.3538 0.0
C1488 C 0.79549 0.30332 0.34704 0.0
C1489 C 0.78237 0.33135 0.3639 0.0
C1490 C 0.76482 0.32228 0.38683 0.0
C1491 C 0.75148 0.35787 0.40086 0.0
C1492 C 0.70806 0.35772 0.40449 0.0
C1493 C 0.77209 0.36218 0.42674 0.0
C1494 C 0.76367 0.38839 0.382 0.0
C1495 C 0.78173 0.37238 0.36091 0.0
C1496 C 0.79337 0.39435 0.34009 0.0
C1497 C 0.78554 0.43347 0.34054 0.0
C1498 C 0.76651 0.4504 0.36166 0.0
C1499 C 0.75609 0.42768 0.38288 0.0
H1500 H 0.11096 0.69454 0.11843 0.0
H1501 H 0.09044 0.76243 0.18687 0.0
H1502 H 0.15896 0.77642 0.18959 0.0
H1503 H 0.20149 0.6541 0.1392 0.0
H1504 H 0.22182 0.65563 0.10738 0.0
H1505 H 0.17128 0.65001 0.11136 0.0
H1506 H 0.1595 0.70904 0.08264 0.0
H1507 H 0.20997 0.71497 0.07868 0.0
H1508 H 0.18136 0.7536 0.09099 0.0
H1509 H 0.22967 0.78458 0.18411 0.0
H1510 H 0.29693 0.78631 0.17088 0.0
H1511 H 0.27161 0.71176 0.10661 0.0
C1512 C 0.12083 0.71183 0.13425 0.0
C1513 C 0.09507 0.72736 0.15244 0.0
C1514 C 0.10937 0.75051 0.17253 0.0
C1515 C 0.14834 0.75846 0.17433 0.0
C1516 C 0.1728 0.74299 0.15594 0.0
C1517 C 0.15963 0.72006 0.13633 0.0
C1518 C 0.19175 0.70771 0.11868 0.0
C1519 C 0.19689 0.66428 0.1192 0.0
C1520 C 0.18525 0.72221 0.09112 0.0
C1521 C 0.22501 0.72757 0.13129 0.0
C1522 C 0.2135 0.74763 0.15281 0.0
C1523 C 0.23905 0.7687 0.1674 0.0
C1524 C 0.27734 0.76932 0.15979 0.0
C1525 C 0.28989 0.74903 0.13773 0.0
C1526 C 0.26311 0.72784 0.12342 0.0
H1527 H 0.19493 0.24137 0.67086 0.0
H1528 H 0.31074 0.26911 0.64962 0.0
H1529 H 0.32878 0.20123 0.65378 0.0
H1530 H 0.21757 0.16688 0.71692 0.0
H1531 H 0.17757 0.13827 0.70753 0.0
H1532 H 0.17504 0.18926 0.70474 0.0
H1533 H 0.15834 0.1828 0.65638 0.0
H1534 H 0.16076 0.13187 0.65904 0.0
H1535 H 0.18951 0.15601 0.63551 0.0
H1536 H 0.33252 0.12814 0.6575 0.0
H1537 H 0.32174 0.05887 0.66094 0.0
H1538 H 0.20298 0.08086 0.67862 0.0
C1539 C 0.22415 0.23335 0.6671 0.0
C1540 C 0.25135 0.26081 0.65981 0.0
C1541 C 0.28941 0.24884 0.65548 0.0
C1542 C 0.29988 0.21024 0.65769 0.0
C1543 C 0.27206 0.18387 0.66443 0.0
C1544 C 0.235 0.19513 0.66919 0.0
C1545 C 0.20996 0.16144 0.67521 0.0
C1546 C 0.19411 0.16413 0.70274 0.0
C1547 C 0.17776 0.15782 0.65535 0.0
C1548 C 0.23846 0.12923 0.67268 0.0
C1549 C 0.27421 0.14254 0.6666 0.0
C1550 C 0.30462 0.11756 0.66244 0.0
C1551 C 0.29819 0.07813 0.66433 0.0
C1552 C 0.26156 0.06384 0.67028 0.0
C1553 C 0.2316 0.0902 0.67466 0.0
H1554 H 0.7701 0.27089 0.10411 0.0
H1555 H 0.7246 0.24574 0.1799 0.0
H1556 H 0.78988 0.24009 0.19666 0.0
H1557 H 0.84721 0.20485 0.10654 0.0
H1558 H 0.87974 0.23508 0.08939 0.0
H1559 H 0.82941 0.23902 0.08365 0.0
H1560 H 0.83179 0.31075 0.0947 0.0
H1561 H 0.88214 0.307 0.10058 0.0
H1562 H 0.85104 0.32567 0.12518 0.0
H1563 H 0.86049 0.23485 0.2049 0.0
H1564 H 0.93037 0.2294 0.20395 0.0
H1565 H 0.93045 0.25687 0.12266 0.0
C1566 C 0.77346 0.26406 0.12423 0.0
C1567 C 0.74149 0.25862 0.14056 0.0
C1568 C 0.74809 0.25028 0.16688 0.0
C1569 C 0.78527 0.24695 0.17661 0.0
C1570 C 0.81587 0.25219 0.15989 0.0
C1571 C 0.81036 0.26059 0.13425 0.0
C1572 C 0.84811 0.26386 0.12016 0.0
C1573 C 0.85129 0.23392 0.09867 0.0
C1574 C 0.85358 0.30423 0.10953 0.0
C1575 C 0.87582 0.25558 0.14183 0.0
C1576 C 0.85655 0.2491 0.1646 0.0
C1577 C 0.87578 0.23991 0.18717 0.0
C1578 C 0.91556 0.2367 0.18639 0.0
C1579 C 0.93608 0.24254 0.16322 0.0
C1580 C 0.91576 0.25268 0.14073 0.0
H1581 H 0.77668 0.87921 0.6729 0.0
H1582 H 0.68319 0.92095 0.62593 0.0
H1583 H 0.66296 0.85497 0.61846 0.0
H1584 H 0.79959 0.79898 0.63327 0.0
H1585 H 0.81133 0.76843 0.65995 0.0
H1586 H 0.81764 0.81905 0.66271 0.0
H1587 H 0.7749 0.82027 0.7033 0.0
H1588 H 0.76872 0.76962 0.7008 0.0
H1589 H 0.72775 0.80059 0.70172 0.0
H1590 H 0.65271 0.78381 0.61602 0.0
H1591 H 0.65286 0.71367 0.61945 0.0
H1592 H 0.75506 0.71788 0.66566 0.0
C1593 C 0.752 0.87498 0.66093 0.0
C1594 C 0.73176 0.90617 0.65002 0.0
C1595 C 0.69925 0.89824 0.63482 0.0
C1596 C 0.6876 0.8606 0.63029 0.0
C1597 C 0.70873 0.83083 0.64091 0.0
C1598 C 0.74023 0.83762 0.65596 0.0
C1599 C 0.75834 0.80057 0.66492 0.0
C1600 C 0.79915 0.79653 0.65459 0.0
C1601 C 0.75735 0.7976 0.69444 0.0
C1602 C 0.7321 0.77175 0.65255 0.0
C1603 C 0.70355 0.78988 0.63888 0.0
C1604 C 0.67507 0.76942 0.62654 0.0
C1605 C 0.67539 0.72961 0.62855 0.0
C1606 C 0.70417 0.71034 0.64253 0.0
C1607 C 0.7332 0.7318 0.65439 0.0
loop_
_geom_bond_atom_site_label_1
_geom_bond_atom_site_label_2
_geom_bond_distance
_geom_bond_site_symmetry_2
_ccdc_geom_bond_type
C0 C1 1.351 . S
C0 N3 1.368 . S
C0 H5 0.931 . S
C1 C0 1.351 . S
C1 N2 1.373 . S
C1 H29 0.930 . S
N2 C1 1.373 . S
N2 C4 1.340 . S
N3 C0 1.368 . S
N3 C4 1.321 . S
N3 Co6 2.135 1_655 S
C4 N2 1.340 . S
C4 N3 1.321 . S
C4 H28 0.930 . S
H5 C0 0.931 . S
Co6 N3 2.135 1_455 S
Co6 N9 2.121 . S
Co6 O14 2.055 . S
Co6 O17 2.039 . S
Co6 N20 2.140 . S
C7 O8 1.227 . S
C7 O17 1.265 . S
O8 C7 1.227 . S
N9 Co6 2.121 . S
N9 C11 1.375 . S
N9 C12 1.313 . S
C10 C11 1.338 . S
C10 N13 1.377 . S
C10 H30 0.930 . S
C11 N9 1.375 . S
C11 C10 1.338 . S
C11 H15 0.931 . S
C12 N9 1.313 . S
C12 N13 1.344 . S
C12 H16 0.930 . S
N13 C10 1.377 . S
N13 C12 1.344 . S
O14 Co6 2.055 . S
O14 C18 1.253 . S
H15 C11 0.931 . S
H16 C12 0.930 . S
O17 Co6 2.039 . S
O17 C7 1.265 . S
C18 O14 1.253 . S
C18 O19 1.227 . S
O19 C18 1.227 . S
N20 Co6 2.140 . S
N20 C23 1.346 . S
N20 C24 1.345 . S
C21 C22 1.387 1_455 S
C21 C25 1.391 . S
C22 C21 1.387 1_655 S
C22 C23 1.369 1_655 S
C22 H31 0.929 . S
C23 N20 1.346 . S
C23 C22 1.369 1_455 S
C23 H26 0.928 1_455 S
C24 N20 1.345 . S
C24 C25 1.371 . S
C24 H27 0.931 . S
C25 C21 1.391 . S
C25 C24 1.371 . S
C25 H32 0.930 . S
H26 C23 0.928 1_655 S
H27 C24 0.931 . S
H28 C4 0.930 . S
H29 C1 0.930 . S
H30 C10 0.930 . S
H31 C22 0.929 . S
H32 C25 0.930 . S
C33 C34 1.351 . S
C33 N36 1.368 . S
C33 H38 0.931 . S
C34 C33 1.351 . S
C34 N35 1.373 . S
C34 H62 0.930 . S
N35 C34 1.373 . S
N35 C37 1.340 . S
N36 C33 1.368 . S
N36 C37 1.321 . S
N36 Co39 2.135 1_565 S
C37 N35 1.340 . S
C37 N36 1.321 . S
C37 H61 0.930 . S
H38 C33 0.931 . S
Co39 N36 2.135 1_545 S
Co39 N42 2.121 . S
Co39 O47 2.055 . S
Co39 O50 2.039 . S
Co39 N53 2.140 . S
C40 O41 1.227 . S
C40 O50 1.265 . S
O41 C40 1.227 . S
N42 Co39 2.121 . S
N42 C44 1.375 . S
N42 C45 1.313 . S
C43 C44 1.338 . S
C43 N46 1.377 . S
C43 H63 0.930 . S
C44 N42 1.375 . S
C44 C43 1.338 . S
C44 H48 0.931 . S
C45 N42 1.313 . S
C45 N46 1.344 . S
C45 H49 0.930 . S
N46 C43 1.377 . S
N46 C45 1.344 . S
O47 Co39 2.055 . S
O47 C51 1.253 . S
H48 C44 0.931 . S
H49 C45 0.930 . S
O50 Co39 2.039 . S
O50 C40 1.265 . S
C51 O47 1.253 . S
C51 O52 1.227 . S
O52 C51 1.227 . S
N53 Co39 2.140 . S
N53 C56 1.346 . S
N53 C57 1.345 . S
C54 C55 1.387 1_545 S
C54 C58 1.391 . S
C55 C54 1.387 1_565 S
C55 C56 1.369 1_565 S
C55 H64 0.929 . S
C56 N53 1.346 . S
C56 C55 1.369 1_545 S
C56 H59 0.928 1_545 S
C57 N53 1.345 . S
C57 C58 1.371 . S
C57 H60 0.931 . S
C58 C54 1.391 . S
C58 C57 1.371 . S
C58 H65 0.930 . S
H59 C56 0.928 1_565 S
H60 C57 0.931 . S
H61 C37 0.930 . S
H62 C34 0.930 . S
H63 C43 0.930 . S
H64 C55 0.929 . S
H65 C58 0.930 . S
C66 C67 1.351 . S
C66 N69 1.368 . S
C66 H71 0.931 . S
C67 C66 1.351 . S
C67 N68 1.373 . S
C67 H95 0.930 . S
N68 C67 1.373 . S
N68 C70 1.340 . S
N69 C66 1.368 . S
N69 C70 1.321 . S
N69 Co72 2.135 1_455 S
C70 N68 1.340 . S
C70 N69 1.321 . S
C70 H94 0.930 . S
H71 C66 0.931 . S
Co72 N69 2.135 1_655 S
Co72 N75 2.121 . S
Co72 O80 2.055 . S
Co72 O83 2.039 . S
Co72 N86 2.140 . S
C73 O74 1.227 . S
C73 O83 1.265 . S
O74 C73 1.227 . S
N75 Co72 2.121 . S
N75 C77 1.375 . S
N75 C78 1.313 . S
C76 C77 1.338 . S
C76 N79 1.377 . S
C76 H96 0.930 . S
C77 N75 1.375 . S
C77 C76 1.338 . S
C77 H81 0.931 . S
C78 N75 1.313 . S
C78 N79 1.344 . S
C78 H82 0.930 . S
N79 C76 1.377 . S
N79 C78 1.344 . S
O80 Co72 2.055 . S
O80 C84 1.253 . S
H81 C77 0.931 . S
H82 C78 0.930 . S
O83 Co72 2.039 . S
O83 C73 1.265 . S
C84 O80 1.253 . S
C84 O85 1.227 . S
O85 C84 1.227 . S
N86 Co72 2.140 . S
N86 C89 1.346 . S
N86 C90 1.345 . S
C87 C88 1.387 1_655 S
C87 C91 1.391 . S
C88 C87 1.387 1_455 S
C88 C89 1.369 1_455 S
C88 H97 0.929 . S
C89 N86 1.346 . S
C89 C88 1.369 1_655 S
C89 H92 0.928 1_655 S
C90 N86 1.345 . S
C90 C91 1.371 . S
C90 H93 0.931 . S
C91 C87 1.391 . S
C91 C90 1.371 . S
C91 H98 0.930 . S
H92 C89 0.928 1_455 S
H93 C90 0.931 . S
H94 C70 0.930 . S
H95 C67 0.930 . S
H96 C76 0.930 . S
H97 C88 0.929 . S
H98 C91 0.930 . S
C99 C100 1.351 . S
C99 N102 1.368 . S
C99 H104 0.931 . S
C100 C99 1.351 . S
C100 N101 1.373 . S
C100 H128 0.930 . S
N101 C100 1.373 . S
N101 C103 1.340 . S
N102 C99 1.368 . S
N102 C103 1.321 . S
N102 Co105 2.135 1_545 S
C103 N101 1.340 . S
C103 N102 1.321 . S
C103 H127 0.930 . S
H104 C99 0.931 . S
Co105 N102 2.135 1_565 S
Co105 N108 2.121 . S
Co105 O113 2.055 . S
Co105 O116 2.039 . S
Co105 N119 2.140 . S
C106 O107 1.227 . S
C106 O116 1.265 . S
O107 C106 1.227 . S
N108 Co105 2.121 . S
N108 C110 1.375 . S
N108 C111 1.313 . S
C109 C110 1.338 . S
C109 N112 1.377 . S
C109 H129 0.930 . S
C110 N108 1.375 . S
C110 C109 1.338 . S
C110 H114 0.931 . S
C111 N108 1.313 . S
C111 N112 1.344 . S
C111 H115 0.930 . S
N112 C109 1.377 . S
N112 C111 1.344 . S
O113 Co105 2.055 . S
O113 C117 1.253 . S
H114 C110 0.931 . S
H115 C111 0.930 . S
O116 Co105 2.039 . S
O116 C106 1.265 . S
C117 O113 1.253 . S
C117 O118 1.227 . S
O118 C117 1.227 . S
N119 Co105 2.140 . S
N119 C122 1.346 . S
N119 C123 1.345 . S
C120 C121 1.387 1_565 S
C120 C124 1.391 . S
C121 C120 1.387 1_545 S
C121 C122 1.369 1_545 S
C121 H130 0.929 . S
C122 N119 1.346 . S
C122 C121 1.369 1_565 S
C122 H125 0.928 1_565 S
C123 N119 1.345 . S
C123 C124 1.371 . S
C123 H126 0.931 . S
C124 C120 1.391 . S
C124 C123 1.371 . S
C124 H131 0.930 . S
H125 C122 0.928 1_545 S
H126 C123 0.931 . S
H127 C103 0.930 . S
H128 C100 0.930 . S
H129 C109 0.930 . S
H130 C121 0.929 . S
H131 C124 0.930 . S
C132 C133 1.351 . S
C132 N135 1.368 . S
C132 H137 0.931 . S
C133 C132 1.351 . S
C133 N134 1.373 . S
C133 H161 0.930 . S
N134 C133 1.373 . S
N134 C136 1.340 . S
N135 C132 1.368 . S
N135 C136 1.321 . S
N135 Co138 2.135 . S
C136 N134 1.340 . S
C136 N135 1.321 . S
C136 H160 0.930 . S
H137 C132 0.931 . S
Co138 N135 2.135 . S
Co138 N141 2.121 . S
Co138 O146 2.055 . S
Co138 O149 2.039 . S
Co138 N152 2.140 . S
C139 O140 1.227 . S
C139 O149 1.265 . S
O140 C139 1.227 . S
N141 Co138 2.121 . S
N141 C143 1.375 . S
N141 C144 1.313 . S
C142 C143 1.338 . S
C142 N145 1.377 . S
C142 H162 0.930 . S
C143 N141 1.375 . S
C143 C142 1.338 . S
C143 H147 0.931 . S
C144 N141 1.313 . S
C144 N145 1.344 . S
C144 H148 0.930 . S
N145 C142 1.377 . S
N145 C144 1.344 . S
O146 Co138 2.055 . S
O146 C150 1.253 . S
H147 C143 0.931 . S
H148 C144 0.930 . S
O149 Co138 2.039 . S
O149 C139 1.265 . S
C150 O146 1.253 . S
C150 O151 1.227 . S
O151 C150 1.227 . S
N152 Co138 2.140 . S
N152 C155 1.346 . S
N152 C156 1.345 . S
C153 C154 1.387 . S
C153 C157 1.391 . S
C154 C153 1.387 . S
C154 C155 1.369 . S
C154 H163 0.929 . S
C155 N152 1.346 . S
C155 C154 1.369 . S
C155 H158 0.928 . S
C156 N152 1.345 . S
C156 C157 1.371 . S
C156 H159 0.931 . S
C157 C153 1.391 . S
C157 C156 1.371 . S
C157 H164 0.930 . S
H158 C155 0.928 . S
H159 C156 0.931 . S
H160 C136 0.930 . S
H161 C133 0.930 . S
H162 C142 0.930 . S
H163 C154 0.929 . S
H164 C157 0.930 . S
C165 C166 1.351 . S
C165 N168 1.368 . S
C165 H170 0.931 . S
C166 C165 1.351 . S
C166 N167 1.373 . S
C166 H194 0.930 . S
N167 C166 1.373 . S
N167 C169 1.340 . S
N168 C165 1.368 . S
N168 C169 1.321 . S
N168 Co171 2.135 . S
C169 N167 1.340 . S
C169 N168 1.321 . S
C169 H193 0.930 . S
H170 C165 0.931 . S
Co171 N168 2.135 . S
Co171 N174 2.121 . S
Co171 O179 2.055 . S
Co171 O182 2.039 . S
Co171 N185 2.140 . S
C172 O173 1.227 . S
C172 O182 1.265 . S
O173 C172 1.227 . S
N174 Co171 2.121 . S
N174 C176 1.375 . S
N174 C177 1.313 . S
C175 C176 1.338 . S
C175 N178 1.377 . S
C175 H195 0.930 . S
C176 N174 1.375 . S
C176 C175 1.338 . S
C176 H180 0.931 . S
C177 N174 1.313 . S
C177 N178 1.344 . S
C177 H181 0.930 . S
N178 C175 1.377 . S
N178 C177 1.344 . S
O179 Co171 2.055 . S
O179 C183 1.253 . S
H180 C176 0.931 . S
H181 C177 0.930 . S
O182 Co171 2.039 . S
O182 C172 1.265 . S
C183 O179 1.253 . S
C183 O184 1.227 . S
O184 C183 1.227 . S
N185 Co171 2.140 . S
N185 C188 1.346 . S
N185 C189 1.345 . S
C186 C187 1.387 . S
C186 C190 1.391 . S
C187 C186 1.387 . S
C187 C188 1.369 . S
C187 H196 0.929 . S
C188 N185 1.346 . S
C188 C187 1.369 . S
C188 H191 0.928 . S
C189 N185 1.345 . S
C189 C190 1.371 . S
C189 H192 0.931 . S
C190 C186 1.391 . S
C190 C189 1.371 . S
C190 H197 0.930 . S
H191 C188 0.928 . S
H192 C189 0.931 . S
H193 C169 0.930 . S
H194 C166 0.930 . S
H195 C175 0.930 . S
H196 C187 0.929 . S
H197 C190 0.930 . S
C198 C199 1.351 . S
C198 N201 1.368 . S
C198 H203 0.931 . S
C199 C198 1.351 . S
C199 N200 1.373 . S
C199 H227 0.930 . S
N200 C199 1.373 . S
N200 C202 1.340 . S
N201 C198 1.368 . S
N201 C202 1.321 . S
N201 Co204 2.135 . S
C202 N200 1.340 . S
C202 N201 1.321 . S
C202 H226 0.930 . S
H203 C198 0.931 . S
Co204 N201 2.135 . S
Co204 N207 2.121 . S
Co204 O212 2.055 . S
Co204 O215 2.039 . S
Co204 N218 2.140 . S
C205 O206 1.227 . S
C205 O215 1.265 . S
O206 C205 1.227 . S
N207 Co204 2.121 . S
N207 C209 1.375 . S
N207 C210 1.313 . S
C208 C209 1.338 . S
C208 N211 1.377 . S
C208 H228 0.930 . S
C209 N207 1.375 . S
C209 C208 1.338 . S
C209 H213 0.931 . S
C210 N207 1.313 . S
C210 N211 1.344 . S
C210 H214 0.930 . S
N211 C208 1.377 . S
N211 C210 1.344 . S
O212 Co204 2.055 . S
O212 C216 1.253 . S
H213 C209 0.931 . S
H214 C210 0.930 . S
O215 Co204 2.039 . S
O215 C205 1.265 . S
C216 O212 1.253 . S
C216 O217 1.227 . S
O217 C216 1.227 . S
N218 Co204 2.140 . S
N218 C221 1.346 . S
N218 C222 1.345 . S
C219 C220 1.387 . S
C219 C223 1.391 . S
C220 C219 1.387 . S
C220 C221 1.369 . S
C220 H229 0.929 . S
C221 N218 1.346 . S
C221 C220 1.369 . S
C221 H224 0.928 . S
C222 N218 1.345 . S
C222 C223 1.371 . S
C222 H225 0.931 . S
C223 C219 1.391 . S
C223 C222 1.371 . S
C223 H230 0.930 . S
H224 C221 0.928 . S
H225 C222 0.931 . S
H226 C202 0.930 . S
H227 C199 0.930 . S
H228 C208 0.930 . S
H229 C220 0.929 . S
H230 C223 0.930 . S
C231 C232 1.351 . S
C231 N234 1.368 . S
C231 H236 0.931 . S
C232 C231 1.351 . S
C232 N233 1.373 . S
C232 H260 0.930 . S
N233 C232 1.373 . S
N233 C235 1.340 . S
N234 C231 1.368 . S
N234 C235 1.321 . S
N234 Co237 2.135 . S
C235 N233 1.340 . S
C235 N234 1.321 . S
C235 H259 0.930 . S
H236 C231 0.931 . S
Co237 N234 2.135 . S
Co237 N240 2.121 . S
Co237 O245 2.055 . S
Co237 O248 2.039 . S
Co237 N251 2.140 . S
C238 O239 1.227 . S
C238 O248 1.265 . S
O239 C238 1.227 . S
N240 Co237 2.121 . S
N240 C242 1.375 . S
N240 C243 1.313 . S
C241 C242 1.338 . S
C241 N244 1.377 . S
C241 H261 0.930 . S
C242 N240 1.375 . S
C242 C241 1.338 . S
C242 H246 0.931 . S
C243 N240 1.313 . S
C243 N244 1.344 . S
C243 H247 0.930 . S
N244 C241 1.377 . S
N244 C243 1.344 . S
O245 Co237 2.055 . S
O245 C249 1.253 . S
H246 C242 0.931 . S
H247 C243 0.930 . S
O248 Co237 2.039 . S
O248 C238 1.265 . S
C249 O245 1.253 . S
C249 O250 1.227 . S
O250 C249 1.227 . S
N251 Co237 2.140 . S
N251 C254 1.346 . S
N251 C255 1.345 . S
C252 C253 1.387 . S
C252 C256 1.391 . S
C253 C252 1.387 . S
C253 C254 1.369 . S
C253 H262 0.929 . S
C254 N251 1.346 . S
C254 C253 1.369 . S
C254 H257 0.928 . S
C255 N251 1.345 . S
C255 C256 1.371 . S
C255 H258 0.931 . S
C256 C252 1.391 . S
C256 C255 1.371 . S
C256 H263 0.930 . S
H257 C254 0.928 . S
H258 C255 0.931 . S
H259 C235 0.930 . S
H260 C232 0.930 . S
H261 C241 0.930 . S
H262 C253 0.929 . S
H263 C256 0.930 . S
C264 C265 1.351 . S
C264 N267 1.368 . S
C264 H269 0.931 . S
C265 C264 1.351 . S
C265 N266 1.373 . S
C265 H293 0.930 . S
N266 C265 1.373 . S
N266 C268 1.340 . S
N267 C264 1.368 . S
N267 C268 1.321 . S
N267 Co270 2.135 1_455 S
C268 N266 1.340 . S
C268 N267 1.321 . S
C268 H292 0.930 . S
H269 C264 0.931 . S
Co270 N267 2.135 1_655 S
Co270 N273 2.121 . S
Co270 O278 2.055 . S
Co270 O281 2.039 . S
Co270 N284 2.140 . S
C271 O272 1.227 . S
C271 O281 1.265 . S
O272 C271 1.227 . S
N273 Co270 2.121 . S
N273 C275 1.375 . S
N273 C276 1.313 . S
C274 C275 1.338 . S
C274 N277 1.377 . S
C274 H294 0.930 . S
C275 N273 1.375 . S
C275 C274 1.338 . S
C275 H279 0.931 . S
C276 N273 1.313 . S
C276 N277 1.344 . S
C276 H280 0.930 . S
N277 C274 1.377 . S
N277 C276 1.344 . S
O278 Co270 2.055 . S
O278 C282 1.253 . S
H279 C275 0.931 . S
H280 C276 0.930 . S
O281 Co270 2.039 . S
O281 C271 1.265 . S
C282 O278 1.253 . S
C282 O283 1.227 . S
O283 C282 1.227 . S
N284 Co270 2.140 . S
N284 C287 1.346 . S
N284 C288 1.345 . S
C285 C286 1.387 1_655 S
C285 C289 1.391 . S
C286 C285 1.387 1_455 S
C286 C287 1.369 1_455 S
C286 H295 0.929 . S
C287 N284 1.346 . S
C287 C286 1.369 1_655 S
C287 H290 0.928 1_655 S
C288 N284 1.345 . S
C288 C289 1.371 . S
C288 H291 0.931 . S
C289 C285 1.391 . S
C289 C288 1.371 . S
C289 H296 0.930 . S
H290 C287 0.928 1_455 S
H291 C288 0.931 . S
H292 C268 0.930 . S
H293 C265 0.930 . S
H294 C274 0.930 . S
H295 C286 0.929 . S
H296 C289 0.930 . S
C297 C298 1.351 . S
C297 N300 1.368 . S
C297 H302 0.931 . S
C298 C297 1.351 . S
C298 N299 1.373 . S
C298 H326 0.930 . S
N299 C298 1.373 . S
N299 C301 1.340 . S
N300 C297 1.368 . S
N300 C301 1.321 . S
N300 Co303 2.135 1_545 S
C301 N299 1.340 . S
C301 N300 1.321 . S
C301 H325 0.930 . S
H302 C297 0.931 . S
Co303 N300 2.135 1_565 S
Co303 N306 2.121 . S
Co303 O311 2.055 . S
Co303 O314 2.039 . S
Co303 N317 2.140 . S
C304 O305 1.227 . S
C304 O314 1.265 . S
O305 C304 1.227 . S
N306 Co303 2.121 . S
N306 C308 1.375 . S
N306 C309 1.313 . S
C307 C308 1.338 . S
C307 N310 1.377 . S
C307 H327 0.930 . S
C308 N306 1.375 . S
C308 C307 1.338 . S
C308 H312 0.931 . S
C309 N306 1.313 . S
C309 N310 1.344 . S
C309 H313 0.930 . S
N310 C307 1.377 . S
N310 C309 1.344 . S
O311 Co303 2.055 . S
O311 C315 1.253 . S
H312 C308 0.931 . S
H313 C309 0.930 . S
O314 Co303 2.039 . S
O314 C304 1.265 . S
C315 O311 1.253 . S
C315 O316 1.227 . S
O316 C315 1.227 . S
N317 Co303 2.140 . S
N317 C320 1.346 . S
N317 C321 1.345 . S
C318 C319 1.387 1_565 S
C318 C322 1.391 . S
C319 C318 1.387 1_545 S
C319 C320 1.369 1_545 S
C319 H328 0.929 . S
C320 N317 1.346 . S
C320 C319 1.369 1_565 S
C320 H323 0.928 1_565 S
C321 N317 1.345 . S
C321 C322 1.371 . S
C321 H324 0.931 . S
C322 C318 1.391 . S
C322 C321 1.371 . S
C322 H329 0.930 . S
H323 C320 0.928 1_545 S
H324 C321 0.931 . S
H325 C301 0.930 . S
H326 C298 0.930 . S
H327 C307 0.930 . S
H328 C319 0.929 . S
H329 C322 0.930 . S
C330 C331 1.351 . S
C330 N333 1.368 . S
C330 H335 0.931 . S
C331 C330 1.351 . S
C331 N332 1.373 . S
C331 H359 0.930 . S
N332 C331 1.373 . S
N332 C334 1.340 . S
N333 C330 1.368 . S
N333 C334 1.321 . S
N333 Co336 2.135 1_655 S
C334 N332 1.340 . S
C334 N333 1.321 . S
C334 H358 0.930 . S
H335 C330 0.931 . S
Co336 N333 2.135 1_455 S
Co336 N339 2.121 . S
Co336 O344 2.055 . S
Co336 O347 2.039 . S
Co336 N350 2.140 . S
C337 O338 1.227 . S
C337 O347 1.265 . S
O338 C337 1.227 . S
N339 Co336 2.121 . S
N339 C341 1.375 . S
N339 C342 1.313 . S
C340 C341 1.338 . S
C340 N343 1.377 . S
C340 H360 0.930 . S
C341 N339 1.375 . S
C341 C340 1.338 . S
C341 H345 0.931 . S
C342 N339 1.313 . S
C342 N343 1.344 . S
C342 H346 0.930 . S
N343 C340 1.377 . S
N343 C342 1.344 . S
O344 Co336 2.055 . S
O344 C348 1.253 . S
H345 C341 0.931 . S
H346 C342 0.930 . S
O347 Co336 2.039 . S
O347 C337 1.265 . S
C348 O344 1.253 . S
C348 O349 1.227 . S
O349 C348 1.227 . S
N350 Co336 2.140 . S
N350 C353 1.346 . S
N350 C354 1.345 . S
C351 C352 1.387 1_455 S
C351 C355 1.391 . S
C352 C351 1.387 1_655 S
C352 C353 1.369 1_655 S
C352 H361 0.929 . S
C353 N350 1.346 . S
C353 C352 1.369 1_455 S
C353 H356 0.928 1_455 S
C354 N350 1.345 . S
C354 C355 1.371 . S
C354 H357 0.931 . S
C355 C351 1.391 . S
C355 C354 1.371 . S
C355 H362 0.930 . S
H356 C353 0.928 1_655 S
H357 C354 0.931 . S
H358 C334 0.930 . S
H359 C331 0.930 . S
H360 C340 0.930 . S
H361 C352 0.929 . S
H362 C355 0.930 . S
C363 C364 1.351 . S
C363 N366 1.368 . S
C363 H368 0.931 . S
C364 C363 1.351 . S
C364 N365 1.373 . S
C364 H392 0.930 . S
N365 C364 1.373 . S
N365 C367 1.340 . S
N366 C363 1.368 . S
N366 C367 1.321 . S
N366 Co369 2.135 1_565 S
C367 N365 1.340 . S
C367 N366 1.321 . S
C367 H391 0.930 . S
H368 C363 0.931 . S
Co369 N366 2.135 1_545 S
Co369 N372 2.121 . S
Co369 O377 2.055 . S
Co369 O380 2.039 . S
Co369 N383 2.140 . S
C370 O371 1.227 . S
C370 O380 1.265 . S
O371 C370 1.227 . S
N372 Co369 2.121 . S
N372 C374 1.375 . S
N372 C375 1.313 . S
C373 C374 1.338 . S
C373 N376 1.377 . S
C373 H393 0.930 . S
C374 N372 1.375 . S
C374 C373 1.338 . S
C374 H378 0.931 . S
C375 N372 1.313 . S
C375 N376 1.344 . S
C375 H379 0.930 . S
N376 C373 1.377 . S
N376 C375 1.344 . S
O377 Co369 2.055 . S
O377 C381 1.253 . S
H378 C374 0.931 . S
H379 C375 0.930 . S
O380 Co369 2.039 . S
O380 C370 1.265 . S
C381 O377 1.253 . S
C381 O382 1.227 . S
O382 C381 1.227 . S
N383 Co369 2.140 . S
N383 C386 1.346 . S
N383 C387 1.345 . S
C384 C385 1.387 1_545 S
C384 C388 1.391 . S
C385 C384 1.387 1_565 S
C385 C386 1.369 1_565 S
C385 H394 0.929 . S
C386 N383 1.346 . S
C386 C385 1.369 1_545 S
C386 H389 0.928 1_545 S
C387 N383 1.345 . S
C387 C388 1.371 . S
C387 H390 0.931 . S
C388 C384 1.391 . S
C388 C387 1.371 . S
C388 H395 0.930 . S
H389 C386 0.928 1_565 S
H390 C387 0.931 . S
H391 C367 0.930 . S
H392 C364 0.930 . S
H393 C373 0.930 . S
H394 C385 0.929 . S
H395 C388 0.930 . S
C396 C397 1.351 . S
C396 N399 1.368 . S
C396 H401 0.931 . S
C397 C396 1.351 . S
C397 N398 1.373 . S
C397 H425 0.930 . S
N398 C397 1.373 . S
N398 C400 1.340 . S
N399 C396 1.368 . S
N399 C400 1.321 . S
N399 Co402 2.135 . S
C400 N398 1.340 . S
C400 N399 1.321 . S
C400 H424 0.930 . S
H401 C396 0.931 . S
Co402 N399 2.135 . S
Co402 N405 2.121 . S
Co402 O410 2.055 . S
Co402 O413 2.039 . S
Co402 N416 2.140 . S
C403 O404 1.227 . S
C403 O413 1.265 . S
O404 C403 1.227 . S
N405 Co402 2.121 . S
N405 C407 1.375 . S
N405 C408 1.313 . S
C406 C407 1.338 . S
C406 N409 1.377 . S
C406 H426 0.930 . S
C407 N405 1.375 . S
C407 C406 1.338 . S
C407 H411 0.931 . S
C408 N405 1.313 . S
C408 N409 1.344 . S
C408 H412 0.930 . S
N409 C406 1.377 . S
N409 C408 1.344 . S
O410 Co402 2.055 . S
O410 C414 1.253 . S
H411 C407 0.931 . S
H412 C408 0.930 . S
O413 Co402 2.039 . S
O413 C403 1.265 . S
C414 O410 1.253 . S
C414 O415 1.227 . S
O415 C414 1.227 . S
N416 Co402 2.140 . S
N416 C419 1.346 . S
N416 C420 1.345 . S
C417 C418 1.387 . S
C417 C421 1.391 . S
C418 C417 1.387 . S
C418 C419 1.369 . S
C418 H427 0.929 . S
C419 N416 1.346 . S
C419 C418 1.369 . S
C419 H422 0.928 . S
C420 N416 1.345 . S
C420 C421 1.371 . S
C420 H423 0.931 . S
C421 C417 1.391 . S
C421 C420 1.371 . S
C421 H428 0.930 . S
H422 C419 0.928 . S
H423 C420 0.931 . S
H424 C400 0.930 . S
H425 C397 0.930 . S
H426 C406 0.930 . S
H427 C418 0.929 . S
H428 C421 0.930 . S
C429 C430 1.351 . S
C429 N432 1.368 . S
C429 H434 0.931 . S
C430 C429 1.351 . S
C430 N431 1.373 . S
C430 H458 0.930 . S
N431 C430 1.373 . S
N431 C433 1.340 . S
N432 C429 1.368 . S
N432 C433 1.321 . S
N432 Co435 2.135 . S
C433 N431 1.340 . S
C433 N432 1.321 . S
C433 H457 0.930 . S
H434 C429 0.931 . S
Co435 N432 2.135 . S
Co435 N438 2.121 . S
Co435 O443 2.055 . S
Co435 O446 2.039 . S
Co435 N449 2.140 . S
C436 O437 1.227 . S
C436 O446 1.265 . S
O437 C436 1.227 . S
N438 Co435 2.121 . S
N438 C440 1.375 . S
N438 C441 1.313 . S
C439 C440 1.338 . S
C439 N442 1.377 . S
C439 H459 0.930 . S
C440 N438 1.375 . S
C440 C439 1.338 . S
C440 H444 0.931 . S
C441 N438 1.313 . S
C441 N442 1.344 . S
C441 H445 0.930 . S
N442 C439 1.377 . S
N442 C441 1.344 . S
O443 Co435 2.055 . S
O443 C447 1.253 . S
H444 C440 0.931 . S
H445 C441 0.930 . S
O446 Co435 2.039 . S
O446 C436 1.265 . S
C447 O443 1.253 . S
C447 O448 1.227 . S
O448 C447 1.227 . S
N449 Co435 2.140 . S
N449 C452 1.346 . S
N449 C453 1.345 . S
C450 C451 1.387 . S
C450 C454 1.391 . S
C451 C450 1.387 . S
C451 C452 1.369 . S
C451 H460 0.929 . S
C452 N449 1.346 . S
C452 C451 1.369 . S
C452 H455 0.928 . S
C453 N449 1.345 . S
C453 C454 1.371 . S
C453 H456 0.931 . S
C454 C450 1.391 . S
C454 C453 1.371 . S
C454 H461 0.930 . S
H455 C452 0.928 . S
H456 C453 0.931 . S
H457 C433 0.930 . S
H458 C430 0.930 . S
H459 C439 0.930 . S
H460 C451 0.929 . S
H461 C454 0.930 . S
C462 C463 1.351 . S
C462 N465 1.368 . S
C462 H467 0.931 . S
C463 C462 1.351 . S
C463 N464 1.373 . S
C463 H491 0.930 . S
N464 C463 1.373 . S
N464 C466 1.340 . S
N465 C462 1.368 . S
N465 C466 1.321 . S
N465 Co468 2.135 . S
C466 N464 1.340 . S
C466 N465 1.321 . S
C466 H490 0.930 . S
H467 C462 0.931 . S
Co468 N465 2.135 . S
Co468 N471 2.121 . S
Co468 O476 2.055 . S
Co468 O479 2.039 . S
Co468 N482 2.140 . S
C469 O470 1.227 . S
C469 O479 1.265 . S
O470 C469 1.227 . S
N471 Co468 2.121 . S
N471 C473 1.375 . S
N471 C474 1.313 . S
C472 C473 1.338 . S
C472 N475 1.377 . S
C472 H492 0.930 . S
C473 N471 1.375 . S
C473 C472 1.338 . S
C473 H477 0.931 . S
C474 N471 1.313 . S
C474 N475 1.344 . S
C474 H478 0.930 . S
N475 C472 1.377 . S
N475 C474 1.344 . S
O476 Co468 2.055 . S
O476 C480 1.253 . S
H477 C473 0.931 . S
H478 C474 0.930 . S
O479 Co468 2.039 . S
O479 C469 1.265 . S
C480 O476 1.253 . S
C480 O481 1.227 . S
O481 C480 1.227 . S
N482 Co468 2.140 . S
N482 C485 1.346 . S
N482 C486 1.345 . S
C483 C484 1.387 . S
C483 C487 1.391 . S
C484 C483 1.387 . S
C484 C485 1.369 . S
C484 H493 0.929 . S
C485 N482 1.346 . S
C485 C484 1.369 . S
C485 H488 0.928 . S
C486 N482 1.345 . S
C486 C487 1.371 . S
C486 H489 0.931 . S
C487 C483 1.391 . S
C487 C486 1.371 . S
C487 H494 0.930 . S
H488 C485 0.928 . S
H489 C486 0.931 . S
H490 C466 0.930 . S
H491 C463 0.930 . S
H492 C472 0.930 . S
H493 C484 0.929 . S
H494 C487 0.930 . S
C495 C496 1.351 . S
C495 N498 1.368 . S
C495 H500 0.931 . S
C496 C495 1.351 . S
C496 N497 1.373 . S
C496 H524 0.930 . S
N497 C496 1.373 . S
N497 C499 1.340 . S
N498 C495 1.368 . S
N498 C499 1.321 . S
N498 Co501 2.135 . S
C499 N497 1.340 . S
C499 N498 1.321 . S
C499 H523 0.930 . S
H500 C495 0.931 . S
Co501 N498 2.135 . S
Co501 N504 2.121 . S
Co501 O509 2.055 . S
Co501 O512 2.039 . S
Co501 N515 2.140 . S
C502 O503 1.227 . S
C502 O512 1.265 . S
O503 C502 1.227 . S
N504 Co501 2.121 . S
N504 C506 1.375 . S
N504 C507 1.313 . S
C505 C506 1.338 . S
C505 N508 1.377 . S
C505 H525 0.930 . S
C506 N504 1.375 . S
C506 C505 1.338 . S
C506 H510 0.931 . S
C507 N504 1.313 . S
C507 N508 1.344 . S
C507 H511 0.930 . S
N508 C505 1.377 . S
N508 C507 1.344 . S
O509 Co501 2.055 . S
O509 C513 1.253 . S
H510 C506 0.931 . S
H511 C507 0.930 . S
O512 Co501 2.039 . S
O512 C502 1.265 . S
C513 O509 1.253 . S
C513 O514 1.227 . S
O514 C513 1.227 . S
N515 Co501 2.140 . S
N515 C518 1.346 . S
N515 C519 1.345 . S
C516 C517 1.387 . S
C516 C520 1.391 . S
C517 C516 1.387 . S
C517 C518 1.369 . S
C517 H526 0.929 . S
C518 N515 1.346 . S
C518 C517 1.369 . S
C518 H521 0.928 . S
C519 N515 1.345 . S
C519 C520 1.371 . S
C519 H522 0.931 . S
C520 C516 1.391 . S
C520 C519 1.371 . S
C520 H527 0.930 . S
H521 C518 0.928 . S
H522 C519 0.931 . S
H523 C499 0.930 . S
H524 C496 0.930 . S
H525 C505 0.930 . S
H526 C517 0.929 . S
H527 C520 0.930 . S
H528 C540 0.928 . S
H529 C542 0.930 . S
H530 C543 0.930 . S
H531 C547 0.959 . S
H532 C547 0.959 1_565 S
H533 C547 0.961 . S
H534 C548 0.941 1_545 S
H535 C548 0.977 1_655 S
H536 C548 0.965 . S
H537 C551 0.929 . S
H538 C552 0.931 . S
H539 C554 0.930 . S
C540 H528 0.928 . S
C540 C541 1.401 1_655 S
C540 C545 1.399 . S
C541 C540 1.401 1_455 S
C541 C542 1.376 . S
C542 H529 0.930 . S
C542 C541 1.376 . S
C542 C543 1.388 . S
C543 H530 0.930 . S
C543 C542 1.388 . S
C543 C544 1.390 . S
C544 C543 1.390 . S
C544 C545 1.394 1_455 S
C544 C550 1.465 1_545 S
C545 C540 1.399 . S
C545 C544 1.394 1_655 S
C545 C546 1.516 . S
C546 C545 1.516 . S
C546 C547 1.502 . S
C546 C548 1.559 1_645 S
C546 C549 1.526 1_545 S
C547 H531 0.959 . S
C547 H532 0.959 1_545 S
C547 H533 0.961 . S
C547 C546 1.502 . S
C548 H534 0.941 1_565 S
C548 H535 0.977 1_455 S
C548 H536 0.965 . S
C548 C546 1.559 1_465 S
C549 C546 1.526 1_565 S
C549 C550 1.396 1_655 S
C549 C554 1.390 . S
C550 C544 1.465 1_565 S
C550 C549 1.396 1_455 S
C550 C551 1.399 . S
C551 H537 0.929 . S
C551 C550 1.399 . S
C551 C552 1.385 . S
C552 H538 0.931 . S
C552 C551 1.385 . S
C552 C553 1.389 1_455 S
C553 C552 1.389 1_655 S
C553 C554 1.387 . S
C554 H539 0.930 . S
C554 C549 1.390 . S
C554 C553 1.387 . S
H555 C567 0.930 . S
H556 C569 0.930 . S
H557 C570 0.930 . S
H558 C574 0.959 . S
H559 C574 0.959 1_655 S
H560 C574 0.961 . S
H561 C575 0.976 . S
H562 C575 0.948 1_655 S
H563 C575 0.955 1_665 S
H564 C578 0.929 . S
H565 C579 0.931 . S
H566 C581 0.930 . S
C567 H555 0.930 . S
C567 C568 1.399 1_545 S
C567 C572 1.399 . S
C568 C567 1.399 1_565 S
C568 C569 1.376 . S
C569 H556 0.930 . S
C569 C568 1.376 . S
C569 C570 1.388 . S
C570 H557 0.930 . S
C570 C569 1.388 . S
C570 C571 1.390 . S
C571 C570 1.390 . S
C571 C572 1.394 1_565 S
C571 C577 1.465 1_455 S
C572 C567 1.399 . S
C572 C571 1.394 1_545 S
C572 C573 1.516 . S
C573 C572 1.516 . S
C573 C574 1.502 . S
C573 C575 1.563 . S
C573 C576 1.526 1_455 S
C574 H558 0.959 . S
C574 H559 0.959 1_455 S
C574 H560 0.961 . S
C574 C573 1.502 . S
C575 H561 0.976 . S
C575 H562 0.948 1_455 S
C575 H563 0.955 1_445 S
C575 C573 1.563 . S
C576 C573 1.526 1_655 S
C576 C577 1.396 1_545 S
C576 C581 1.390 . S
C577 C571 1.465 1_655 S
C577 C576 1.396 1_565 S
C577 C578 1.399 . S
C578 H564 0.929 . S
C578 C577 1.399 . S
C578 C579 1.385 . S
C579 H565 0.931 . S
C579 C578 1.385 . S
C579 C580 1.389 1_565 S
C580 C579 1.389 1_545 S
C580 C581 1.387 . S
C581 H566 0.930 . S
C581 C576 1.390 . S
C581 C580 1.387 . S
H582 C594 0.930 . S
H583 C596 0.930 . S
H584 C597 0.930 . S
H585 C601 0.959 . S
H586 C601 0.959 . S
H587 C601 0.961 . S
H588 C602 0.960 . S
H589 C602 0.961 . S
H590 C602 0.959 . S
H591 C605 0.929 . S
H592 C606 0.931 . S
H593 C608 0.930 . S
C594 H582 0.930 . S
C594 C595 1.399 . S
C594 C599 1.399 . S
C595 C594 1.399 . S
C595 C596 1.376 . S
C596 H583 0.930 . S
C596 C595 1.376 . S
C596 C597 1.388 . S
C597 H584 0.930 . S
C597 C596 1.388 . S
C597 C598 1.390 . S
C598 C597 1.390 . S
C598 C599 1.394 . S
C598 C604 1.465 . S
C599 C594 1.399 . S
C599 C598 1.394 . S
C599 C600 1.516 . S
C600 C599 1.516 . S
C600 C601 1.502 . S
C600 C602 1.561 . S
C600 C603 1.526 . S
C601 H585 0.959 . S
C601 H586 0.959 . S
C601 H587 0.961 . S
C601 C600 1.502 . S
C602 H588 0.960 . S
C602 H589 0.961 . S
C602 H590 0.959 . S
C602 C600 1.561 . S
C603 C600 1.526 . S
C603 C604 1.396 . S
C603 C608 1.390 . S
C604 C598 1.465 . S
C604 C603 1.396 . S
C604 C605 1.399 . S
C605 H591 0.929 . S
C605 C604 1.399 . S
C605 C606 1.385 . S
C606 H592 0.931 . S
C606 C605 1.385 . S
C606 C607 1.389 . S
C607 C606 1.389 . S
C607 C608 1.387 . S
C608 H593 0.930 . S
C608 C603 1.390 . S
C608 C607 1.387 . S
H609 C621 0.930 . S
H610 C623 0.930 . S
H611 C624 0.930 . S
H612 C628 0.959 . S
H613 C628 0.959 . S
H614 C628 0.961 . S
H615 C629 0.960 . S
H616 C629 0.961 . S
H617 C629 0.959 . S
H618 C632 0.929 . S
H619 C633 0.931 . S
H620 C635 0.930 . S
C621 H609 0.930 . S
C621 C622 1.399 . S
C621 C626 1.399 . S
C622 C621 1.399 . S
C622 C623 1.376 . S
C623 H610 0.930 . S
C623 C622 1.376 . S
C623 C624 1.388 . S
C624 H611 0.930 . S
C624 C623 1.388 . S
C624 C625 1.390 . S
C625 C624 1.390 . S
C625 C626 1.394 . S
C625 C631 1.465 . S
C626 C621 1.399 . S
C626 C625 1.394 . S
C626 C627 1.516 . S
C627 C626 1.516 . S
C627 C628 1.502 . S
C627 C629 1.561 . S
C627 C630 1.526 . S
C628 H612 0.959 . S
C628 H613 0.959 . S
C628 H614 0.961 . S
C628 C627 1.502 . S
C629 H615 0.960 . S
C629 H616 0.961 . S
C629 H617 0.959 . S
C629 C627 1.561 . S
C630 C627 1.526 . S
C630 C631 1.396 . S
C630 C635 1.390 . S
C631 C625 1.465 . S
C631 C630 1.396 . S
C631 C632 1.399 . S
C632 H618 0.929 . S
C632 C631 1.399 . S
C632 C633 1.385 . S
C633 H619 0.931 . S
C633 C632 1.385 . S
C633 C634 1.389 . S
C634 C633 1.389 . S
C634 C635 1.387 . S
C635 H620 0.930 . S
C635 C630 1.390 . S
C635 C634 1.387 . S
H636 C648 0.930 1_655 S
H637 C650 0.930 . S
H638 C651 0.930 . S
H639 C655 0.959 . S
H640 C655 0.959 1_565 S
H641 C655 0.961 . S
H642 C656 0.960 1_545 S
H643 C656 0.961 1_655 S
H644 C656 0.959 . S
H645 C659 0.929 . S
H646 C660 0.931 . S
H647 C662 0.930 . S
C648 H636 0.930 1_455 S
C648 C649 1.399 . S
C648 C653 1.399 . S
C649 C648 1.399 . S
C649 C650 1.376 . S
C650 H637 0.930 . S
C650 C649 1.376 . S
C650 C651 1.388 . S
C651 H638 0.930 . S
C651 C650 1.388 . S
C651 C652 1.390 . S
C652 C651 1.390 . S
C652 C653 1.397 . S
C652 C658 1.465 1_545 S
C653 C648 1.399 . S
C653 C652 1.397 . S
C653 C654 1.513 1_455 S
C654 C653 1.513 1_655 S
C654 C655 1.502 . S
C654 C656 1.561 1_645 S
C654 C657 1.526 1_545 S
C655 H639 0.959 . S
C655 H640 0.959 1_545 S
C655 H641 0.961 . S
C655 C654 1.502 . S
C656 H642 0.960 1_565 S
C656 H643 0.961 1_455 S
C656 H644 0.959 . S
C656 C654 1.561 1_465 S
C657 C654 1.526 1_565 S
C657 C658 1.396 1_655 S
C657 C662 1.390 . S
C658 C652 1.465 1_565 S
C658 C657 1.396 1_455 S
C658 C659 1.399 . S
C659 H645 0.929 . S
C659 C658 1.399 . S
C659 C660 1.385 . S
C660 H646 0.931 . S
C660 C659 1.385 . S
C660 C661 1.389 1_455 S
C661 C660 1.389 1_655 S
C661 C662 1.387 . S
C662 H647 0.930 . S
C662 C657 1.390 . S
C662 C661 1.387 . S
H663 C675 0.930 . S
H664 C677 0.930 . S
H665 C678 0.930 . S
H666 C682 0.959 . S
H667 C682 0.959 . S
H668 C682 0.961 1_455 S
H669 C683 0.960 . S
H670 C683 0.961 1_655 S
H671 C683 0.959 . S
H672 C686 0.929 . S
H673 C687 0.931 . S
H674 C689 0.930 1_565 S
C675 H663 0.930 . S
C675 C676 1.399 . S
C675 C680 1.399 . S
C676 C675 1.399 . S
C676 C677 1.376 1_565 S
C677 H664 0.930 . S
C677 C676 1.376 1_545 S
C677 C678 1.388 . S
C678 H665 0.930 . S
C678 C677 1.388 . S
C678 C679 1.390 . S
C679 C678 1.390 . S
C679 C680 1.394 1_545 S
C679 C685 1.465 1_455 S
C680 C675 1.399 . S
C680 C679 1.394 1_565 S
C680 C681 1.516 1_455 S
C681 C680 1.516 1_655 S
C681 C682 1.502 . S
C681 C683 1.561 1_665 S
C681 C684 1.526 1_565 S
C682 H666 0.959 . S
C682 H667 0.959 . S
C682 H668 0.961 1_655 S
C682 C681 1.502 . S
C683 H669 0.960 . S
C683 H670 0.961 1_455 S
C683 H671 0.959 . S
C683 C681 1.561 1_445 S
C684 C681 1.526 1_545 S
C684 C685 1.396 . S
C684 C689 1.390 . S
C685 C679 1.465 1_655 S
C685 C684 1.396 . S
C685 C686 1.399 . S
C686 H672 0.929 . S
C686 C685 1.399 . S
C686 C687 1.385 . S
C687 H673 0.931 . S
C687 C686 1.385 . S
C687 C688 1.389 . S
C688 C687 1.389 . S
C688 C689 1.387 . S
C689 H674 0.930 1_545 S
C689 C684 1.390 . S
C689 C688 1.387 . S
H690 C702 0.930 . S
H691 C704 0.930 . S
H692 C705 0.930 . S
H693 C709 0.959 . S
H694 C709 0.959 . S
H695 C709 0.961 . S
H696 C710 0.960 . S
H697 C710 0.961 . S
H698 C710 0.959 . S
H699 C713 0.929 . S
H700 C714 0.931 . S
H701 C716 0.930 . S
C702 H690 0.930 . S
C702 C703 1.399 . S
C702 C707 1.399 . S
C703 C702 1.399 . S
C703 C704 1.376 . S
C704 H691 0.930 . S
C704 C703 1.376 . S
C704 C705 1.388 . S
C705 H692 0.930 . S
C705 C704 1.388 . S
C705 C706 1.390 . S
C706 C705 1.390 . S
C706 C707 1.394 . S
C706 C712 1.465 . S
C707 C702 1.399 . S
C707 C706 1.394 . S
C707 C708 1.516 . S
C708 C707 1.516 . S
C708 C709 1.502 . S
C708 C710 1.561 . S
C708 C711 1.526 . S
C709 H693 0.959 . S
C709 H694 0.959 . S
C709 H695 0.961 . S
C709 C708 1.502 . S
C710 H696 0.960 . S
C710 H697 0.961 . S
C710 H698 0.959 . S
C710 C708 1.561 . S
C711 C708 1.526 . S
C711 C712 1.396 . S
C711 C716 1.390 . S
C712 C706 1.465 . S
C712 C711 1.396 . S
C712 C713 1.399 . S
C713 H699 0.929 . S
C713 C712 1.399 . S
C713 C714 1.385 . S
C714 H700 0.931 . S
C714 C713 1.385 . S
C714 C715 1.389 . S
C715 C714 1.389 . S
C715 C716 1.387 . S
C716 H701 0.930 . S
C716 C711 1.390 . S
C716 C715 1.387 . S
H717 C729 0.930 . S
H718 C731 0.930 . S
H719 C732 0.930 . S
H720 C736 0.959 . S
H721 C736 0.959 . S
H722 C736 0.961 . S
H723 C737 0.960 . S
H724 C737 0.961 . S
H725 C737 0.959 . S
H726 C740 0.929 . S
H727 C741 0.931 . S
H728 C743 0.930 . S
C729 H717 0.930 . S
C729 C730 1.399 . S
C729 C734 1.399 . S
C730 C729 1.399 . S
C730 C731 1.376 . S
C731 H718 0.930 . S
C731 C730 1.376 . S
C731 C732 1.388 . S
C732 H719 0.930 . S
C732 C731 1.388 . S
C732 C733 1.390 . S
C733 C732 1.390 . S
C733 C734 1.394 . S
C733 C739 1.465 . S
C734 C729 1.399 . S
C734 C733 1.394 . S
C734 C735 1.516 . S
C735 C734 1.516 . S
C735 C736 1.502 . S
C735 C737 1.561 . S
C735 C738 1.526 . S
C736 H720 0.959 . S
C736 H721 0.959 . S
C736 H722 0.961 . S
C736 C735 1.502 . S
C737 H723 0.960 . S
C737 H724 0.961 . S
C737 H725 0.959 . S
C737 C735 1.561 . S
C738 C735 1.526 . S
C738 C739 1.396 . S
C738 C743 1.390 . S
C739 C733 1.465 . S
C739 C738 1.396 . S
C739 C740 1.399 . S
C740 H726 0.929 . S
C740 C739 1.399 . S
C740 C741 1.385 . S
C741 H727 0.931 . S
C741 C740 1.385 . S
C741 C742 1.389 . S
C742 C741 1.389 . S
C742 C743 1.387 . S
C743 H728 0.930 . S
C743 C738 1.390 . S
C743 C742 1.387 . S
H744 C756 0.930 . S
H745 C758 0.930 . S
H746 C759 0.930 . S
H747 C763 0.962 . S
H748 C763 0.979 . S
H749 C763 0.939 1_554 S
H750 C764 0.957 1_554 S
H751 C764 0.963 . S
H752 C764 0.959 . S
H753 C767 0.929 . S
H754 C768 0.931 . S
H755 C770 0.930 . S
C756 H744 0.930 . S
C756 C757 1.399 . S
C756 C761 1.399 . S
C757 C756 1.399 . S
C757 C758 1.376 . S
C758 H745 0.930 . S
C758 C757 1.376 . S
C758 C759 1.388 . S
C759 H746 0.930 . S
C759 C758 1.388 . S
C759 C760 1.390 . S
C760 C759 1.390 . S
C760 C761 1.394 . S
C760 C766 1.465 1_554 S
C761 C756 1.399 . S
C761 C760 1.394 . S
C761 C762 1.517 1_554 S
C762 C761 1.517 1_556 S
C762 C763 1.502 1_455 S
C762 C764 1.561 . S
C762 C765 1.525 . S
C763 H747 0.962 . S
C763 H748 0.979 . S
C763 H749 0.939 1_556 S
C763 C762 1.502 1_655 S
C764 H750 0.957 1_556 S
C764 H751 0.963 . S
C764 H752 0.959 . S
C764 C762 1.561 . S
C765 C762 1.525 . S
C765 C766 1.396 . S
C765 C770 1.390 . S
C766 C760 1.465 1_556 S
C766 C765 1.396 . S
C766 C767 1.399 . S
C767 H753 0.929 . S
C767 C766 1.399 . S
C767 C768 1.385 . S
C768 H754 0.931 . S
C768 C767 1.385 . S
C768 C769 1.389 . S
C769 C768 1.389 . S
C769 C770 1.387 . S
C770 H755 0.930 . S
C770 C765 1.390 . S
C770 C769 1.387 . S
H771 C783 0.930 . S
H772 C785 0.930 . S
H773 C786 0.930 . S
H774 C790 0.959 . S
H775 C790 0.959 . S
H776 C790 0.961 . S
H777 C791 0.960 . S
H778 C791 0.961 . S
H779 C791 0.959 . S
H780 C794 0.929 . S
H781 C795 0.931 . S
H782 C797 0.930 . S
C783 H771 0.930 . S
C783 C784 1.399 . S
C783 C788 1.399 . S
C784 C783 1.399 . S
C784 C785 1.376 . S
C785 H772 0.930 . S
C785 C784 1.376 . S
C785 C786 1.388 . S
C786 H773 0.930 . S
C786 C785 1.388 . S
C786 C787 1.390 . S
C787 C786 1.390 . S
C787 C788 1.394 . S
C787 C793 1.465 . S
C788 C783 1.399 . S
C788 C787 1.394 . S
C788 C789 1.516 . S
C789 C788 1.516 . S
C789 C790 1.502 . S
C789 C791 1.561 1_545 S
C789 C792 1.526 . S
C790 H774 0.959 . S
C790 H775 0.959 . S
C790 H776 0.961 . S
C790 C789 1.502 . S
C791 H777 0.960 . S
C791 H778 0.961 . S
C791 H779 0.959 . S
C791 C789 1.561 1_565 S
C792 C789 1.526 . S
C792 C793 1.396 . S
C792 C797 1.390 . S
C793 C787 1.465 . S
C793 C792 1.396 . S
C793 C794 1.399 . S
C794 H780 0.929 . S
C794 C793 1.399 . S
C794 C795 1.385 . S
C795 H781 0.931 . S
C795 C794 1.385 . S
C795 C796 1.389 . S
C796 C795 1.389 . S
C796 C797 1.387 . S
C797 H782 0.930 . S
C797 C792 1.390 . S
C797 C796 1.387 . S
H798 C810 0.930 . S
H799 C812 0.930 . S
H800 C813 0.930 . S
H801 C817 0.962 . S
H802 C817 0.979 . S
H803 C817 0.939 1_556 S
H804 C818 0.957 1_556 S
H805 C818 0.963 . S
H806 C818 0.959 . S
H807 C821 0.929 . S
H808 C822 0.931 . S
H809 C824 0.930 . S
C810 H798 0.930 . S
C810 C811 1.399 . S
C810 C815 1.399 . S
C811 C810 1.399 . S
C811 C812 1.376 . S
C812 H799 0.930 . S
C812 C811 1.376 . S
C812 C813 1.388 . S
C813 H800 0.930 . S
C813 C812 1.388 . S
C813 C814 1.390 . S
C814 C813 1.390 . S
C814 C815 1.394 . S
C814 C820 1.465 1_556 S
C815 C810 1.399 . S
C815 C814 1.394 . S
C815 C816 1.517 1_556 S
C816 C815 1.517 1_554 S
C816 C817 1.502 1_655 S
C816 C818 1.561 . S
C816 C819 1.525 . S
C817 H801 0.962 . S
C817 H802 0.979 . S
C817 H803 0.939 1_554 S
C817 C816 1.502 1_455 S
C818 H804 0.957 1_554 S
C818 H805 0.963 . S
C818 H806 0.959 . S
C818 C816 1.561 . S
C819 C816 1.525 . S
C819 C820 1.396 . S
C819 C824 1.390 . S
C820 C814 1.465 1_554 S
C820 C819 1.396 . S
C820 C821 1.399 . S
C821 H807 0.929 . S
C821 C820 1.399 . S
C821 C822 1.385 . S
C822 H808 0.931 . S
C822 C821 1.385 . S
C822 C823 1.389 . S
C823 C822 1.389 . S
C823 C824 1.387 . S
C824 H809 0.930 . S
C824 C819 1.390 . S
C824 C823 1.387 . S
H825 C837 0.930 1_545 S
H826 C839 0.930 . S
H827 C840 0.930 . S
H828 C844 0.936 1_565 S
H829 C844 0.959 . S
H830 C844 0.961 . S
H831 C845 0.960 . S
H832 C845 0.961 . S
H833 C845 0.959 . S
H834 C848 0.929 . S
H835 C849 0.931 . S
H836 C851 0.930 1_545 S
C837 H825 0.930 1_565 S
C837 C838 1.399 . S
C837 C842 1.399 . S
C838 C837 1.399 . S
C838 C839 1.376 . S
C839 H826 0.930 . S
C839 C838 1.376 . S
C839 C840 1.388 . S
C840 H827 0.930 . S
C840 C839 1.388 . S
C840 C841 1.390 . S
C841 C840 1.390 . S
C841 C842 1.394 . S
C841 C847 1.465 . S
C842 C837 1.399 . S
C842 C841 1.394 . S
C842 C843 1.516 1_565 S
C843 C842 1.516 1_545 S
C843 C844 1.502 . S
C843 C845 1.561 . S
C843 C846 1.526 1_545 S
C844 H828 0.936 1_545 S
C844 H829 0.959 . S
C844 H830 0.961 . S
C844 C843 1.502 . S
C845 H831 0.960 . S
C845 H832 0.961 . S
C845 H833 0.959 . S
C845 C843 1.561 . S
C846 C843 1.526 1_565 S
C846 C847 1.396 . S
C846 C851 1.390 . S
C847 C841 1.465 . S
C847 C846 1.396 . S
C847 C848 1.399 . S
C848 H834 0.929 . S
C848 C847 1.399 . S
C848 C849 1.385 . S
C849 H835 0.931 . S
C849 C848 1.385 . S
C849 C850 1.389 . S
C850 C849 1.389 . S
C850 C851 1.387 . S
C851 H836 0.930 1_565 S
C851 C846 1.390 . S
C851 C850 1.387 . S
H852 C864 0.930 . S
H853 C866 0.930 . S
H854 C867 0.930 . S
H855 C871 0.962 . S
H856 C871 0.979 . S
H857 C871 0.939 1_554 S
H858 C872 0.957 1_554 S
H859 C872 0.963 . S
H860 C872 0.959 . S
H861 C875 0.929 . S
H862 C876 0.931 . S
H863 C878 0.930 . S
C864 H852 0.930 . S
C864 C865 1.399 . S
C864 C869 1.399 . S
C865 C864 1.399 . S
C865 C866 1.376 . S
C866 H853 0.930 . S
C866 C865 1.376 . S
C866 C867 1.388 . S
C867 H854 0.930 . S
C867 C866 1.388 . S
C867 C868 1.390 . S
C868 C867 1.390 . S
C868 C869 1.394 . S
C868 C874 1.465 1_554 S
C869 C864 1.399 . S
C869 C868 1.394 . S
C869 C870 1.517 1_554 S
C870 C869 1.517 1_556 S
C870 C871 1.502 . S
C870 C872 1.561 . S
C870 C873 1.525 . S
C871 H855 0.962 . S
C871 H856 0.979 . S
C871 H857 0.939 1_556 S
C871 C870 1.502 . S
C872 H858 0.957 1_556 S
C872 H859 0.963 . S
C872 H860 0.959 . S
C872 C870 1.561 . S
C873 C870 1.525 . S
C873 C874 1.396 . S
C873 C878 1.390 . S
C874 C868 1.465 1_556 S
C874 C873 1.396 . S
C874 C875 1.399 . S
C875 H861 0.929 . S
C875 C874 1.399 . S
C875 C876 1.385 . S
C876 H862 0.931 . S
C876 C875 1.385 . S
C876 C877 1.389 . S
C877 C876 1.389 . S
C877 C878 1.387 . S
C878 H863 0.930 . S
C878 C873 1.390 . S
C878 C877 1.387 . S
H879 C891 0.930 . S
H880 C893 0.930 . S
H881 C894 0.930 . S
H882 C898 0.959 . S
H883 C898 0.959 . S
H884 C898 0.961 . S
H885 C899 0.960 . S
H886 C899 0.961 . S
H887 C899 0.959 . S
H888 C902 0.929 . S
H889 C903 0.931 . S
H890 C905 0.930 . S
C891 H879 0.930 . S
C891 C892 1.399 . S
C891 C896 1.399 . S
C892 C891 1.399 . S
C892 C893 1.376 . S
C893 H880 0.930 . S
C893 C892 1.376 . S
C893 C894 1.388 . S
C894 H881 0.930 . S
C894 C893 1.388 . S
C894 C895 1.390 . S
C895 C894 1.390 . S
C895 C896 1.394 . S
C895 C901 1.465 . S
C896 C891 1.399 . S
C896 C895 1.394 . S
C896 C897 1.516 . S
C897 C896 1.516 . S
C897 C898 1.502 . S
C897 C899 1.561 . S
C897 C900 1.526 . S
C898 H882 0.959 . S
C898 H883 0.959 . S
C898 H884 0.961 . S
C898 C897 1.502 . S
C899 H885 0.960 . S
C899 H886 0.961 . S
C899 H887 0.959 . S
C899 C897 1.561 . S
C900 C897 1.526 . S
C900 C901 1.396 . S
C900 C905 1.390 . S
C901 C895 1.465 . S
C901 C900 1.396 . S
C901 C902 1.399 . S
C902 H888 0.929 . S
C902 C901 1.399 . S
C902 C903 1.385 . S
C903 H889 0.931 . S
C903 C902 1.385 . S
C903 C904 1.389 . S
C904 C903 1.389 . S
C904 C905 1.387 . S
C905 H890 0.930 . S
C905 C900 1.390 . S
C905 C904 1.387 . S
H906 C918 0.930 . S
H907 C920 0.930 . S
H908 C921 0.930 . S
H909 C925 0.962 . S
H910 C925 0.979 . S
H911 C925 0.939 1_554 S
H912 C926 0.957 1_554 S
H913 C926 0.963 . S
H914 C926 0.959 . S
H915 C929 0.929 . S
H916 C930 0.931 . S
H917 C932 0.930 . S
C918 H906 0.930 . S
C918 C919 1.399 . S
C918 C923 1.399 . S
C919 C918 1.399 . S
C919 C920 1.376 . S
C920 H907 0.930 . S
C920 C919 1.376 . S
C920 C921 1.388 . S
C921 H908 0.930 . S
C921 C920 1.388 . S
C921 C922 1.390 . S
C922 C921 1.390 . S
C922 C923 1.394 . S
C922 C928 1.465 1_554 S
C923 C918 1.399 . S
C923 C922 1.394 . S
C923 C924 1.517 1_554 S
C924 C923 1.517 1_556 S
C924 C925 1.502 . S
C924 C926 1.561 . S
C924 C927 1.525 . S
C925 H909 0.962 . S
C925 H910 0.979 . S
C925 H911 0.939 1_556 S
C925 C924 1.502 . S
C926 H912 0.957 1_556 S
C926 H913 0.963 . S
C926 H914 0.959 . S
C926 C924 1.561 . S
C927 C924 1.525 . S
C927 C928 1.396 . S
C927 C932 1.390 . S
C928 C922 1.465 1_556 S
C928 C927 1.396 . S
C928 C929 1.399 . S
C929 H915 0.929 . S
C929 C928 1.399 . S
C929 C930 1.385 . S
C930 H916 0.931 . S
C930 C929 1.385 . S
C930 C931 1.389 . S
C931 C930 1.389 . S
C931 C932 1.387 . S
C932 H917 0.930 . S
C932 C927 1.390 . S
C932 C931 1.387 . S
H933 C945 0.930 . S
H934 C947 0.930 . S
H935 C948 0.930 . S
H936 C952 0.959 . S
H937 C952 0.959 . S
H938 C952 0.961 . S
H939 C953 0.960 . S
H940 C953 0.961 . S
H941 C953 0.959 . S
H942 C956 0.929 . S
H943 C957 0.931 . S
H944 C959 0.930 . S
C945 H933 0.930 . S
C945 C946 1.399 . S
C945 C950 1.399 . S
C946 C945 1.399 . S
C946 C947 1.376 . S
C947 H934 0.930 . S
C947 C946 1.376 . S
C947 C948 1.388 . S
C948 H935 0.930 . S
C948 C947 1.388 . S
C948 C949 1.390 . S
C949 C948 1.390 . S
C949 C950 1.394 . S
C949 C955 1.465 . S
C950 C945 1.399 . S
C950 C949 1.394 . S
C950 C951 1.516 . S
C951 C950 1.516 . S
C951 C952 1.502 . S
C951 C953 1.561 . S
C951 C954 1.526 . S
C952 H936 0.959 . S
C952 H937 0.959 . S
C952 H938 0.961 . S
C952 C951 1.502 . S
C953 H939 0.960 . S
C953 H940 0.961 . S
C953 H941 0.959 . S
C953 C951 1.561 . S
C954 C951 1.526 . S
C954 C955 1.396 . S
C954 C959 1.390 . S
C955 C949 1.465 . S
C955 C954 1.396 . S
C955 C956 1.399 . S
C956 H942 0.929 . S
C956 C955 1.399 . S
C956 C957 1.385 . S
C957 H943 0.931 . S
C957 C956 1.385 . S
C957 C958 1.389 . S
C958 C957 1.389 . S
C958 C959 1.387 . S
C959 H944 0.930 . S
C959 C954 1.390 . S
C959 C958 1.387 . S
H960 C972 0.930 . S
H961 C974 0.930 . S
H962 C975 0.930 . S
H963 C979 0.959 . S
H964 C979 0.959 . S
H965 C979 0.961 . S
H966 C980 0.960 . S
H967 C980 0.961 . S
H968 C980 0.959 . S
H969 C983 0.929 . S
H970 C984 0.931 . S
H971 C986 0.930 . S
C972 H960 0.930 . S
C972 C973 1.399 . S
C972 C977 1.399 . S
C973 C972 1.399 . S
C973 C974 1.376 . S
C974 H961 0.930 . S
C974 C973 1.376 . S
C974 C975 1.388 . S
C975 H962 0.930 . S
C975 C974 1.388 . S
C975 C976 1.390 . S
C976 C975 1.390 . S
C976 C977 1.394 . S
C976 C982 1.465 . S
C977 C972 1.399 . S
C977 C976 1.394 . S
C977 C978 1.516 . S
C978 C977 1.516 . S
C978 C979 1.502 . S
C978 C980 1.561 . S
C978 C981 1.526 . S
C979 H963 0.959 . S
C979 H964 0.959 . S
C979 H965 0.961 . S
C979 C978 1.502 . S
C980 H966 0.960 . S
C980 H967 0.961 . S
C980 H968 0.959 . S
C980 C978 1.561 . S
C981 C978 1.526 . S
C981 C982 1.396 . S
C981 C986 1.390 . S
C982 C976 1.465 . S
C982 C981 1.396 . S
C982 C983 1.399 . S
C983 H969 0.929 . S
C983 C982 1.399 . S
C983 C984 1.385 . S
C984 H970 0.931 . S
C984 C983 1.385 . S
C984 C985 1.389 . S
C985 C984 1.389 . S
C985 C986 1.387 . S
C986 H971 0.930 . S
C986 C981 1.390 . S
C986 C985 1.387 . S
H987 C999 0.930 . S
H988 C1001 0.930 . S
H989 C1002 0.930 . S
H990 C1006 0.959 . S
H991 C1006 0.959 . S
H992 C1006 0.961 . S
H993 C1007 0.960 . S
H994 C1007 0.961 . S
H995 C1007 0.959 . S
H996 C1010 0.929 . S
H997 C1011 0.931 . S
H998 C1013 0.930 . S
C999 H987 0.930 . S
C999 C1000 1.399 . S
C999 C1004 1.399 . S
C1000 C999 1.399 . S
C1000 C1001 1.376 . S
C1001 H988 0.930 . S
C1001 C1000 1.376 . S
C1001 C1002 1.388 . S
C1002 H989 0.930 . S
C1002 C1001 1.388 . S
C1002 C1003 1.390 . S
C1003 C1002 1.390 . S
C1003 C1004 1.394 . S
C1003 C1009 1.465 . S
C1004 C999 1.399 . S
C1004 C1003 1.394 . S
C1004 C1005 1.516 . S
C1005 C1004 1.516 . S
C1005 C1006 1.502 . S
C1005 C1007 1.561 . S
C1005 C1008 1.526 . S
C1006 H990 0.959 . S
C1006 H991 0.959 . S
C1006 H992 0.961 . S
C1006 C1005 1.502 . S
C1007 H993 0.960 . S
C1007 H994 0.961 . S
C1007 H995 0.959 . S
C1007 C1005 1.561 . S
C1008 C1005 1.526 . S
C1008 C1009 1.396 . S
C1008 C1013 1.390 . S
C1009 C1003 1.465 . S
C1009 C1008 1.396 . S
C1009 C1010 1.399 . S
C1010 H996 0.929 . S
C1010 C1009 1.399 . S
C1010 C1011 1.385 . S
C1011 H997 0.931 . S
C1011 C1010 1.385 . S
C1011 C1012 1.389 . S
C1012 C1011 1.389 . S
C1012 C1013 1.387 . S
C1013 H998 0.930 . S
C1013 C1008 1.390 . S
C1013 C1012 1.387 . S
H1014 C1026 0.930 . S
H1015 C1028 0.930 . S
H1016 C1029 0.930 . S
H1017 C1033 0.959 . S
H1018 C1033 0.959 . S
H1019 C1033 0.961 . S
H1020 C1034 0.960 . S
H1021 C1034 0.961 . S
H1022 C1034 0.959 . S
H1023 C1037 0.929 . S
H1024 C1038 0.931 . S
H1025 C1040 0.930 . S
C1026 H1014 0.930 . S
C1026 C1027 1.399 . S
C1026 C1031 1.399 . S
C1027 C1026 1.399 . S
C1027 C1028 1.376 . S
C1028 H1015 0.930 . S
C1028 C1027 1.376 . S
C1028 C1029 1.388 . S
C1029 H1016 0.930 . S
C1029 C1028 1.388 . S
C1029 C1030 1.390 . S
C1030 C1029 1.390 . S
C1030 C1031 1.394 . S
C1030 C1036 1.465 . S
C1031 C1026 1.399 . S
C1031 C1030 1.394 . S
C1031 C1032 1.516 . S
C1032 C1031 1.516 . S
C1032 C1033 1.502 . S
C1032 C1034 1.561 . S
C1032 C1035 1.526 . S
C1033 H1017 0.959 . S
C1033 H1018 0.959 . S
C1033 H1019 0.961 . S
C1033 C1032 1.502 . S
C1034 H1020 0.960 . S
C1034 H1021 0.961 . S
C1034 H1022 0.959 . S
C1034 C1032 1.561 . S
C1035 C1032 1.526 . S
C1035 C1036 1.396 . S
C1035 C1040 1.390 . S
C1036 C1030 1.465 . S
C1036 C1035 1.396 . S
C1036 C1037 1.399 . S
C1037 H1023 0.929 . S
C1037 C1036 1.399 . S
C1037 C1038 1.385 . S
C1038 H1024 0.931 . S
C1038 C1037 1.385 . S
C1038 C1039 1.389 . S
C1039 C1038 1.389 . S
C1039 C1040 1.387 . S
C1040 H1025 0.930 . S
C1040 C1035 1.390 . S
C1040 C1039 1.387 . S
H1041 C1053 0.930 . S
H1042 C1055 0.930 . S
H1043 C1056 0.930 . S
H1044 C1060 0.959 . S
H1045 C1060 0.959 . S
H1046 C1060 0.961 . S
H1047 C1061 0.960 . S
H1048 C1061 0.961 . S
H1049 C1061 0.959 . S
H1050 C1064 0.929 . S
H1051 C1065 0.931 . S
H1052 C1067 0.930 . S
C1053 H1041 0.930 . S
C1053 C1054 1.399 . S
C1053 C1058 1.399 . S
C1054 C1053 1.399 . S
C1054 C1055 1.376 . S
C1055 H1042 0.930 . S
C1055 C1054 1.376 . S
C1055 C1056 1.388 . S
C1056 H1043 0.930 . S
C1056 C1055 1.388 . S
C1056 C1057 1.390 . S
C1057 C1056 1.390 . S
C1057 C1058 1.394 . S
C1057 C1063 1.465 . S
C1058 C1053 1.399 . S
C1058 C1057 1.394 . S
C1058 C1059 1.516 . S
C1059 C1058 1.516 . S
C1059 C1060 1.502 . S
C1059 C1061 1.561 . S
C1059 C1062 1.526 . S
C1060 H1044 0.959 . S
C1060 H1045 0.959 . S
C1060 H1046 0.961 . S
C1060 C1059 1.502 . S
C1061 H1047 0.960 . S
C1061 H1048 0.961 . S
C1061 H1049 0.959 . S
C1061 C1059 1.561 . S
C1062 C1059 1.526 . S
C1062 C1063 1.396 . S
C1062 C1067 1.390 . S
C1063 C1057 1.465 . S
C1063 C1062 1.396 . S
C1063 C1064 1.399 . S
C1064 H1050 0.929 . S
C1064 C1063 1.399 . S
C1064 C1065 1.385 . S
C1065 H1051 0.931 . S
C1065 C1064 1.385 . S
C1065 C1066 1.389 . S
C1066 C1065 1.389 . S
C1066 C1067 1.387 . S
C1067 H1052 0.930 . S
C1067 C1062 1.390 . S
C1067 C1066 1.387 . S
H1068 C1080 0.930 . S
H1069 C1082 0.930 . S
H1070 C1083 0.930 . S
H1071 C1087 0.959 . S
H1072 C1087 0.959 . S
H1073 C1087 0.961 . S
H1074 C1088 0.960 . S
H1075 C1088 0.961 . S
H1076 C1088 0.959 . S
H1077 C1091 0.929 . S
H1078 C1092 0.931 . S
H1079 C1094 0.930 . S
C1080 H1068 0.930 . S
C1080 C1081 1.399 . S
C1080 C1085 1.399 . S
C1081 C1080 1.399 . S
C1081 C1082 1.376 . S
C1082 H1069 0.930 . S
C1082 C1081 1.376 . S
C1082 C1083 1.388 . S
C1083 H1070 0.930 . S
C1083 C1082 1.388 . S
C1083 C1084 1.390 . S
C1084 C1083 1.390 . S
C1084 C1085 1.394 . S
C1084 C1090 1.465 . S
C1085 C1080 1.399 . S
C1085 C1084 1.394 . S
C1085 C1086 1.516 . S
C1086 C1085 1.516 . S
C1086 C1087 1.502 . S
C1086 C1088 1.561 . S
C1086 C1089 1.526 . S
C1087 H1071 0.959 . S
C1087 H1072 0.959 . S
C1087 H1073 0.961 . S
C1087 C1086 1.502 . S
C1088 H1074 0.960 . S
C1088 H1075 0.961 . S
C1088 H1076 0.959 . S
C1088 C1086 1.561 . S
C1089 C1086 1.526 . S
C1089 C1090 1.396 . S
C1089 C1094 1.390 . S
C1090 C1084 1.465 . S
C1090 C1089 1.396 . S
C1090 C1091 1.399 . S
C1091 H1077 0.929 . S
C1091 C1090 1.399 . S
C1091 C1092 1.385 . S
C1092 H1078 0.931 . S
C1092 C1091 1.385 . S
C1092 C1093 1.389 . S
C1093 C1092 1.389 . S
C1093 C1094 1.387 . S
C1094 H1079 0.930 . S
C1094 C1089 1.390 . S
C1094 C1093 1.387 . S
H1095 C1107 0.930 . S
H1096 C1109 0.930 . S
H1097 C1110 0.930 . S
H1098 C1114 0.959 . S
H1099 C1114 0.959 . S
H1100 C1114 0.961 . S
H1101 C1115 0.960 . S
H1102 C1115 0.961 . S
H1103 C1115 0.959 . S
H1104 C1118 0.929 . S
H1105 C1119 0.931 . S
H1106 C1121 0.930 . S
C1107 H1095 0.930 . S
C1107 C1108 1.399 . S
C1107 C1112 1.399 . S
C1108 C1107 1.399 . S
C1108 C1109 1.376 . S
C1109 H1096 0.930 . S
C1109 C1108 1.376 . S
C1109 C1110 1.388 . S
C1110 H1097 0.930 . S
C1110 C1109 1.388 . S
C1110 C1111 1.390 . S
C1111 C1110 1.390 . S
C1111 C1112 1.394 . S
C1111 C1117 1.465 . S
C1112 C1107 1.399 . S
C1112 C1111 1.394 . S
C1112 C1113 1.516 . S
C1113 C1112 1.516 . S
C1113 C1114 1.502 . S
C1113 C1115 1.561 . S
C1113 C1116 1.526 . S
C1114 H1098 0.959 . S
C1114 H1099 0.959 . S
C1114 H1100 0.961 . S
C1114 C1113 1.502 . S
C1115 H1101 0.960 . S
C1115 H1102 0.961 . S
C1115 H1103 0.959 . S
C1115 C1113 1.561 . S
C1116 C1113 1.526 . S
C1116 C1117 1.396 . S
C1116 C1121 1.390 . S
C1117 C1111 1.465 . S
C1117 C1116 1.396 . S
C1117 C1118 1.399 . S
C1118 H1104 0.929 . S
C1118 C1117 1.399 . S
C1118 C1119 1.385 . S
C1119 H1105 0.931 . S
C1119 C1118 1.385 . S
C1119 C1120 1.389 . S
C1120 C1119 1.389 . S
C1120 C1121 1.387 . S
C1121 H1106 0.930 . S
C1121 C1116 1.390 . S
C1121 C1120 1.387 . S
H1122 C1134 0.930 . S
H1123 C1136 0.930 . S
H1124 C1137 0.930 . S
H1125 C1141 0.959 . S
H1126 C1141 0.959 . S
H1127 C1141 0.961 . S
H1128 C1142 0.960 . S
H1129 C1142 0.961 . S
H1130 C1142 0.959 . S
H1131 C1145 0.929 . S
H1132 C1146 0.931 . S
H1133 C1148 0.930 . S
C1134 H1122 0.930 . S
C1134 C1135 1.399 . S
C1134 C1139 1.399 . S
C1135 C1134 1.399 . S
C1135 C1136 1.376 . S
C1136 H1123 0.930 . S
C1136 C1135 1.376 . S
C1136 C1137 1.388 . S
C1137 H1124 0.930 . S
C1137 C1136 1.388 . S
C1137 C1138 1.390 . S
C1138 C1137 1.390 . S
C1138 C1139 1.394 . S
C1138 C1144 1.465 . S
C1139 C1134 1.399 . S
C1139 C1138 1.394 . S
C1139 C1140 1.516 . S
C1140 C1139 1.516 . S
C1140 C1141 1.502 . S
C1140 C1142 1.561 . S
C1140 C1143 1.526 . S
C1141 H1125 0.959 . S
C1141 H1126 0.959 . S
C1141 H1127 0.961 . S
C1141 C1140 1.502 . S
C1142 H1128 0.960 . S
C1142 H1129 0.961 . S
C1142 H1130 0.959 . S
C1142 C1140 1.561 . S
C1143 C1140 1.526 . S
C1143 C1144 1.396 . S
C1143 C1148 1.390 . S
C1144 C1138 1.465 . S
C1144 C1143 1.396 . S
C1144 C1145 1.399 . S
C1145 H1131 0.929 . S
C1145 C1144 1.399 . S
C1145 C1146 1.385 . S
C1146 H1132 0.931 . S
C1146 C1145 1.385 . S
C1146 C1147 1.389 . S
C1147 C1146 1.389 . S
C1147 C1148 1.387 . S
C1148 H1133 0.930 . S
C1148 C1143 1.390 . S
C1148 C1147 1.387 . S
H1149 C1161 0.930 . S
H1150 C1163 0.930 . S
H1151 C1164 0.930 . S
H1152 C1168 0.959 . S
H1153 C1168 0.959 . S
H1154 C1168 0.961 . S
H1155 C1169 0.960 . S
H1156 C1169 0.961 . S
H1157 C1169 0.959 . S
H1158 C1172 0.929 . S
H1159 C1173 0.931 . S
H1160 C1175 0.930 . S
C1161 H1149 0.930 . S
C1161 C1162 1.399 . S
C1161 C1166 1.399 . S
C1162 C1161 1.399 . S
C1162 C1163 1.376 . S
C1163 H1150 0.930 . S
C1163 C1162 1.376 . S
C1163 C1164 1.388 . S
C1164 H1151 0.930 . S
C1164 C1163 1.388 . S
C1164 C1165 1.390 . S
C1165 C1164 1.390 . S
C1165 C1166 1.394 . S
C1165 C1171 1.465 . S
C1166 C1161 1.399 . S
C1166 C1165 1.394 . S
C1166 C1167 1.516 . S
C1167 C1166 1.516 . S
C1167 C1168 1.502 . S
C1167 C1169 1.561 . S
C1167 C1170 1.526 . S
C1168 H1152 0.959 . S
C1168 H1153 0.959 . S
C1168 H1154 0.961 . S
C1168 C1167 1.502 . S
C1169 H1155 0.960 . S
C1169 H1156 0.961 . S
C1169 H1157 0.959 . S
C1169 C1167 1.561 . S
C1170 C1167 1.526 . S
C1170 C1171 1.396 . S
C1170 C1175 1.390 . S
C1171 C1165 1.465 . S
C1171 C1170 1.396 . S
C1171 C1172 1.399 . S
C1172 H1158 0.929 . S
C1172 C1171 1.399 . S
C1172 C1173 1.385 . S
C1173 H1159 0.931 . S
C1173 C1172 1.385 . S
C1173 C1174 1.389 . S
C1174 C1173 1.389 . S
C1174 C1175 1.387 . S
C1175 H1160 0.930 . S
C1175 C1170 1.390 . S
C1175 C1174 1.387 . S
H1176 C1188 0.930 . S
H1177 C1190 0.930 . S
H1178 C1191 0.930 . S
H1179 C1195 0.959 . S
H1180 C1195 0.959 . S
H1181 C1195 0.961 . S
H1182 C1196 0.960 . S
H1183 C1196 0.961 . S
H1184 C1196 0.959 . S
H1185 C1199 0.929 . S
H1186 C1200 0.931 . S
H1187 C1202 0.930 . S
C1188 H1176 0.930 . S
C1188 C1189 1.399 . S
C1188 C1193 1.399 . S
C1189 C1188 1.399 . S
C1189 C1190 1.376 . S
C1190 H1177 0.930 . S
C1190 C1189 1.376 . S
C1190 C1191 1.388 . S
C1191 H1178 0.930 . S
C1191 C1190 1.388 . S
C1191 C1192 1.390 . S
C1192 C1191 1.390 . S
C1192 C1193 1.394 . S
C1192 C1198 1.465 . S
C1193 C1188 1.399 . S
C1193 C1192 1.394 . S
C1193 C1194 1.516 . S
C1194 C1193 1.516 . S
C1194 C1195 1.502 . S
C1194 C1196 1.561 . S
C1194 C1197 1.526 . S
C1195 H1179 0.959 . S
C1195 H1180 0.959 . S
C1195 H1181 0.961 . S
C1195 C1194 1.502 . S
C1196 H1182 0.960 . S
C1196 H1183 0.961 . S
C1196 H1184 0.959 . S
C1196 C1194 1.561 . S
C1197 C1194 1.526 . S
C1197 C1198 1.396 . S
C1197 C1202 1.390 . S
C1198 C1192 1.465 . S
C1198 C1197 1.396 . S
C1198 C1199 1.399 . S
C1199 H1185 0.929 . S
C1199 C1198 1.399 . S
C1199 C1200 1.385 . S
C1200 H1186 0.931 . S
C1200 C1199 1.385 . S
C1200 C1201 1.389 . S
C1201 C1200 1.389 . S
C1201 C1202 1.387 . S
C1202 H1187 0.930 . S
C1202 C1197 1.390 . S
C1202 C1201 1.387 . S
H1203 C1215 0.930 . S
H1204 C1217 0.930 . S
H1205 C1218 0.930 . S
H1206 C1222 0.959 . S
H1207 C1222 0.959 . S
H1208 C1222 0.961 . S
H1209 C1223 0.960 . S
H1210 C1223 0.961 . S
H1211 C1223 0.959 . S
H1212 C1226 0.929 . S
H1213 C1227 0.931 . S
H1214 C1229 0.930 . S
C1215 H1203 0.930 . S
C1215 C1216 1.399 . S
C1215 C1220 1.399 . S
C1216 C1215 1.399 . S
C1216 C1217 1.376 . S
C1217 H1204 0.930 . S
C1217 C1216 1.376 . S
C1217 C1218 1.388 . S
C1218 H1205 0.930 . S
C1218 C1217 1.388 . S
C1218 C1219 1.390 . S
C1219 C1218 1.390 . S
C1219 C1220 1.394 . S
C1219 C1225 1.465 . S
C1220 C1215 1.399 . S
C1220 C1219 1.394 . S
C1220 C1221 1.516 . S
C1221 C1220 1.516 . S
C1221 C1222 1.502 . S
C1221 C1223 1.561 . S
C1221 C1224 1.526 . S
C1222 H1206 0.959 . S
C1222 H1207 0.959 . S
C1222 H1208 0.961 . S
C1222 C1221 1.502 . S
C1223 H1209 0.960 . S
C1223 H1210 0.961 . S
C1223 H1211 0.959 . S
C1223 C1221 1.561 . S
C1224 C1221 1.526 . S
C1224 C1225 1.396 . S
C1224 C1229 1.390 . S
C1225 C1219 1.465 . S
C1225 C1224 1.396 . S
C1225 C1226 1.399 . S
C1226 H1212 0.929 . S
C1226 C1225 1.399 . S
C1226 C1227 1.385 . S
C1227 H1213 0.931 . S
C1227 C1226 1.385 . S
C1227 C1228 1.389 . S
C1228 C1227 1.389 . S
C1228 C1229 1.387 . S
C1229 H1214 0.930 . S
C1229 C1224 1.390 . S
C1229 C1228 1.387 . S
H1230 C1242 0.930 . S
H1231 C1244 0.930 . S
H1232 C1245 0.930 . S
H1233 C1249 0.959 . S
H1234 C1249 0.959 . S
H1235 C1249 0.961 . S
H1236 C1250 0.960 . S
H1237 C1250 0.961 . S
H1238 C1250 0.959 . S
H1239 C1253 0.929 . S
H1240 C1254 0.931 . S
H1241 C1256 0.930 . S
C1242 H1230 0.930 . S
C1242 C1243 1.399 . S
C1242 C1247 1.399 . S
C1243 C1242 1.399 . S
C1243 C1244 1.376 . S
C1244 H1231 0.930 . S
C1244 C1243 1.376 . S
C1244 C1245 1.388 . S
C1245 H1232 0.930 . S
C1245 C1244 1.388 . S
C1245 C1246 1.390 . S
C1246 C1245 1.390 . S
C1246 C1247 1.394 . S
C1246 C1252 1.465 . S
C1247 C1242 1.399 . S
C1247 C1246 1.394 . S
C1247 C1248 1.516 . S
C1248 C1247 1.516 . S
C1248 C1249 1.502 . S
C1248 C1250 1.561 . S
C1248 C1251 1.526 . S
C1249 H1233 0.959 . S
C1249 H1234 0.959 . S
C1249 H1235 0.961 . S
C1249 C1248 1.502 . S
C1250 H1236 0.960 . S
C1250 H1237 0.961 . S
C1250 H1238 0.959 . S
C1250 C1248 1.561 . S
C1251 C1248 1.526 . S
C1251 C1252 1.396 . S
C1251 C1256 1.390 . S
C1252 C1246 1.465 . S
C1252 C1251 1.396 . S
C1252 C1253 1.399 . S
C1253 H1239 0.929 . S
C1253 C1252 1.399 . S
C1253 C1254 1.385 . S
C1254 H1240 0.931 . S
C1254 C1253 1.385 . S
C1254 C1255 1.389 . S
C1255 C1254 1.389 . S
C1255 C1256 1.387 . S
C1256 H1241 0.930 . S
C1256 C1251 1.390 . S
C1256 C1255 1.387 . S
H1257 C1269 0.930 . S
H1258 C1271 0.930 . S
H1259 C1272 0.930 . S
H1260 C1276 0.959 . S
H1261 C1276 0.959 . S
H1262 C1276 0.961 . S
H1263 C1277 0.960 . S
H1264 C1277 0.961 . S
H1265 C1277 0.959 . S
H1266 C1280 0.929 . S
H1267 C1281 0.931 . S
H1268 C1283 0.930 . S
C1269 H1257 0.930 . S
C1269 C1270 1.399 . S
C1269 C1274 1.399 . S
C1270 C1269 1.399 . S
C1270 C1271 1.376 . S
C1271 H1258 0.930 . S
C1271 C1270 1.376 . S
C1271 C1272 1.388 . S
C1272 H1259 0.930 . S
C1272 C1271 1.388 . S
C1272 C1273 1.390 . S
C1273 C1272 1.390 . S
C1273 C1274 1.394 . S
C1273 C1279 1.465 . S
C1274 C1269 1.399 . S
C1274 C1273 1.394 . S
C1274 C1275 1.516 . S
C1275 C1274 1.516 . S
C1275 C1276 1.502 . S
C1275 C1277 1.561 . S
C1275 C1278 1.526 . S
C1276 H1260 0.959 . S
C1276 H1261 0.959 . S
C1276 H1262 0.961 . S
C1276 C1275 1.502 . S
C1277 H1263 0.960 . S
C1277 H1264 0.961 . S
C1277 H1265 0.959 . S
C1277 C1275 1.561 . S
C1278 C1275 1.526 . S
C1278 C1279 1.396 . S
C1278 C1283 1.390 . S
C1279 C1273 1.465 . S
C1279 C1278 1.396 . S
C1279 C1280 1.399 . S
C1280 H1266 0.929 . S
C1280 C1279 1.399 . S
C1280 C1281 1.385 . S
C1281 H1267 0.931 . S
C1281 C1280 1.385 . S
C1281 C1282 1.389 . S
C1282 C1281 1.389 . S
C1282 C1283 1.387 . S
C1283 H1268 0.930 . S
C1283 C1278 1.390 . S
C1283 C1282 1.387 . S
H1284 C1296 0.930 . S
H1285 C1298 0.930 . S
H1286 C1299 0.930 . S
H1287 C1303 0.959 . S
H1288 C1303 0.959 . S
H1289 C1303 0.961 . S
H1290 C1304 0.960 . S
H1291 C1304 0.961 . S
H1292 C1304 0.959 . S
H1293 C1307 0.929 . S
H1294 C1308 0.931 . S
H1295 C1310 0.930 . S
C1296 H1284 0.930 . S
C1296 C1297 1.399 . S
C1296 C1301 1.399 . S
C1297 C1296 1.399 . S
C1297 C1298 1.376 . S
C1298 H1285 0.930 . S
C1298 C1297 1.376 . S
C1298 C1299 1.388 . S
C1299 H1286 0.930 . S
C1299 C1298 1.388 . S
C1299 C1300 1.390 . S
C1300 C1299 1.390 . S
C1300 C1301 1.394 . S
C1300 C1306 1.465 . S
C1301 C1296 1.399 . S
C1301 C1300 1.394 . S
C1301 C1302 1.516 . S
C1302 C1301 1.516 . S
C1302 C1303 1.502 . S
C1302 C1304 1.561 . S
C1302 C1305 1.526 . S
C1303 H1287 0.959 . S
C1303 H1288 0.959 . S
C1303 H1289 0.961 . S
C1303 C1302 1.502 . S
C1304 H1290 0.960 . S
C1304 H1291 0.961 . S
C1304 H1292 0.959 . S
C1304 C1302 1.561 . S
C1305 C1302 1.526 . S
C1305 C1306 1.396 . S
C1305 C1310 1.390 . S
C1306 C1300 1.465 . S
C1306 C1305 1.396 . S
C1306 C1307 1.399 . S
C1307 H1293 0.929 . S
C1307 C1306 1.399 . S
C1307 C1308 1.385 . S
C1308 H1294 0.931 . S
C1308 C1307 1.385 . S
C1308 C1309 1.389 . S
C1309 C1308 1.389 . S
C1309 C1310 1.387 . S
C1310 H1295 0.930 . S
C1310 C1305 1.390 . S
C1310 C1309 1.387 . S
H1311 C1323 0.930 . S
H1312 C1325 0.930 . S
H1313 C1326 0.930 . S
H1314 C1330 0.959 . S
H1315 C1330 0.959 . S
H1316 C1330 0.961 . S
H1317 C1331 0.960 . S
H1318 C1331 0.961 . S
H1319 C1331 0.959 . S
H1320 C1334 0.929 . S
H1321 C1335 0.931 . S
H1322 C1337 0.930 . S
C1323 H1311 0.930 . S
C1323 C1324 1.399 . S
C1323 C1328 1.399 . S
C1324 C1323 1.399 . S
C1324 C1325 1.376 . S
C1325 H1312 0.930 . S
C1325 C1324 1.376 . S
C1325 C1326 1.388 . S
C1326 H1313 0.930 . S
C1326 C1325 1.388 . S
C1326 C1327 1.390 . S
C1327 C1326 1.390 . S
C1327 C1328 1.394 . S
C1327 C1333 1.465 . S
C1328 C1323 1.399 . S
C1328 C1327 1.394 . S
C1328 C1329 1.516 . S
C1329 C1328 1.516 . S
C1329 C1330 1.502 . S
C1329 C1331 1.561 . S
C1329 C1332 1.526 . S
C1330 H1314 0.959 . S
C1330 H1315 0.959 . S
C1330 H1316 0.961 . S
C1330 C1329 1.502 . S
C1331 H1317 0.960 . S
C1331 H1318 0.961 . S
C1331 H1319 0.959 . S
C1331 C1329 1.561 . S
C1332 C1329 1.526 . S
C1332 C1333 1.396 . S
C1332 C1337 1.390 . S
C1333 C1327 1.465 . S
C1333 C1332 1.396 . S
C1333 C1334 1.399 . S
C1334 H1320 0.929 . S
C1334 C1333 1.399 . S
C1334 C1335 1.385 . S
C1335 H1321 0.931 . S
C1335 C1334 1.385 . S
C1335 C1336 1.389 . S
C1336 C1335 1.389 . S
C1336 C1337 1.387 . S
C1337 H1322 0.930 . S
C1337 C1332 1.390 . S
C1337 C1336 1.387 . S
H1338 C1350 0.930 . S
H1339 C1352 0.930 . S
H1340 C1353 0.930 . S
H1341 C1357 0.959 . S
H1342 C1357 0.959 . S
H1343 C1357 0.961 . S
H1344 C1358 0.960 . S
H1345 C1358 0.961 . S
H1346 C1358 0.959 . S
H1347 C1361 0.929 . S
H1348 C1362 0.931 . S
H1349 C1364 0.930 . S
C1350 H1338 0.930 . S
C1350 C1351 1.399 . S
C1350 C1355 1.399 . S
C1351 C1350 1.399 . S
C1351 C1352 1.376 . S
C1352 H1339 0.930 . S
C1352 C1351 1.376 . S
C1352 C1353 1.388 . S
C1353 H1340 0.930 . S
C1353 C1352 1.388 . S
C1353 C1354 1.390 . S
C1354 C1353 1.390 . S
C1354 C1355 1.394 . S
C1354 C1360 1.465 . S
C1355 C1350 1.399 . S
C1355 C1354 1.394 . S
C1355 C1356 1.516 . S
C1356 C1355 1.516 . S
C1356 C1357 1.502 . S
C1356 C1358 1.561 . S
C1356 C1359 1.526 . S
C1357 H1341 0.959 . S
C1357 H1342 0.959 . S
C1357 H1343 0.961 . S
C1357 C1356 1.502 . S
C1358 H1344 0.960 . S
C1358 H1345 0.961 . S
C1358 H1346 0.959 . S
C1358 C1356 1.561 . S
C1359 C1356 1.526 . S
C1359 C1360 1.396 . S
C1359 C1364 1.390 . S
C1360 C1354 1.465 . S
C1360 C1359 1.396 . S
C1360 C1361 1.399 . S
C1361 H1347 0.929 . S
C1361 C1360 1.399 . S
C1361 C1362 1.385 . S
C1362 H1348 0.931 . S
C1362 C1361 1.385 . S
C1362 C1363 1.389 . S
C1363 C1362 1.389 . S
C1363 C1364 1.387 . S
C1364 H1349 0.930 . S
C1364 C1359 1.390 . S
C1364 C1363 1.387 . S
H1365 C1377 0.930 . S
H1366 C1379 0.930 . S
H1367 C1380 0.930 . S
H1368 C1384 0.959 . S
H1369 C1384 0.959 . S
H1370 C1384 0.961 . S
H1371 C1385 0.960 . S
H1372 C1385 0.961 . S
H1373 C1385 0.959 . S
H1374 C1388 0.929 . S
H1375 C1389 0.931 . S
H1376 C1391 0.930 . S
C1377 H1365 0.930 . S
C1377 C1378 1.399 . S
C1377 C1382 1.399 . S
C1378 C1377 1.399 . S
C1378 C1379 1.376 . S
C1379 H1366 0.930 . S
C1379 C1378 1.376 . S
C1379 C1380 1.388 . S
C1380 H1367 0.930 . S
C1380 C1379 1.388 . S
C1380 C1381 1.390 . S
C1381 C1380 1.390 . S
C1381 C1382 1.394 . S
C1381 C1387 1.465 . S
C1382 C1377 1.399 . S
C1382 C1381 1.394 . S
C1382 C1383 1.516 . S
C1383 C1382 1.516 . S
C1383 C1384 1.502 . S
C1383 C1385 1.561 . S
C1383 C1386 1.526 . S
C1384 H1368 0.959 . S
C1384 H1369 0.959 . S
C1384 H1370 0.961 . S
C1384 C1383 1.502 . S
C1385 H1371 0.960 . S
C1385 H1372 0.961 . S
C1385 H1373 0.959 . S
C1385 C1383 1.561 . S
C1386 C1383 1.526 . S
C1386 C1387 1.396 . S
C1386 C1391 1.390 . S
C1387 C1381 1.465 . S
C1387 C1386 1.396 . S
C1387 C1388 1.399 . S
C1388 H1374 0.929 . S
C1388 C1387 1.399 . S
C1388 C1389 1.385 . S
C1389 H1375 0.931 . S
C1389 C1388 1.385 . S
C1389 C1390 1.389 . S
C1390 C1389 1.389 . S
C1390 C1391 1.387 . S
C1391 H1376 0.930 . S
C1391 C1386 1.390 . S
C1391 C1390 1.387 . S
H1392 C1404 0.930 . S
H1393 C1406 0.930 . S
H1394 C1407 0.930 . S
H1395 C1411 0.959 . S
H1396 C1411 0.959 . S
H1397 C1411 0.961 . S
H1398 C1412 0.960 . S
H1399 C1412 0.961 . S
H1400 C1412 0.959 . S
H1401 C1415 0.929 . S
H1402 C1416 0.931 . S
H1403 C1418 0.930 . S
C1404 H1392 0.930 . S
C1404 C1405 1.399 . S
C1404 C1409 1.399 . S
C1405 C1404 1.399 . S
C1405 C1406 1.376 . S
C1406 H1393 0.930 . S
C1406 C1405 1.376 . S
C1406 C1407 1.388 . S
C1407 H1394 0.930 . S
C1407 C1406 1.388 . S
C1407 C1408 1.390 . S
C1408 C1407 1.390 . S
C1408 C1409 1.394 . S
C1408 C1414 1.465 . S
C1409 C1404 1.399 . S
C1409 C1408 1.394 . S
C1409 C1410 1.516 . S
C1410 C1409 1.516 . S
C1410 C1411 1.502 . S
C1410 C1412 1.561 . S
C1410 C1413 1.526 . S
C1411 H1395 0.959 . S
C1411 H1396 0.959 . S
C1411 H1397 0.961 . S
C1411 C1410 1.502 . S
C1412 H1398 0.960 . S
C1412 H1399 0.961 . S
C1412 H1400 0.959 . S
C1412 C1410 1.561 . S
C1413 C1410 1.526 . S
C1413 C1414 1.396 . S
C1413 C1418 1.390 . S
C1414 C1408 1.465 . S
C1414 C1413 1.396 . S
C1414 C1415 1.399 . S
C1415 H1401 0.929 . S
C1415 C1414 1.399 . S
C1415 C1416 1.385 . S
C1416 H1402 0.931 . S
C1416 C1415 1.385 . S
C1416 C1417 1.389 . S
C1417 C1416 1.389 . S
C1417 C1418 1.387 . S
C1418 H1403 0.930 . S
C1418 C1413 1.390 . S
C1418 C1417 1.387 . S
H1419 C1431 0.930 . S
H1420 C1433 0.930 . S
H1421 C1434 0.930 . S
H1422 C1438 0.959 . S
H1423 C1438 0.959 . S
H1424 C1438 0.961 . S
H1425 C1439 0.960 . S
H1426 C1439 0.961 . S
H1427 C1439 0.959 . S
H1428 C1442 0.929 . S
H1429 C1443 0.931 . S
H1430 C1445 0.930 . S
C1431 H1419 0.930 . S
C1431 C1432 1.399 . S
C1431 C1436 1.399 . S
C1432 C1431 1.399 . S
C1432 C1433 1.376 . S
C1433 H1420 0.930 . S
C1433 C1432 1.376 . S
C1433 C1434 1.388 . S
C1434 H1421 0.930 . S
C1434 C1433 1.388 . S
C1434 C1435 1.390 . S
C1435 C1434 1.390 . S
C1435 C1436 1.394 . S
C1435 C1441 1.465 . S
C1436 C1431 1.399 . S
C1436 C1435 1.394 . S
C1436 C1437 1.516 . S
C1437 C1436 1.516 . S
C1437 C1438 1.502 . S
C1437 C1439 1.561 . S
C1437 C1440 1.526 . S
C1438 H1422 0.959 . S
C1438 H1423 0.959 . S
C1438 H1424 0.961 . S
C1438 C1437 1.502 . S
C1439 H1425 0.960 . S
C1439 H1426 0.961 . S
C1439 H1427 0.959 . S
C1439 C1437 1.561 . S
C1440 C1437 1.526 . S
C1440 C1441 1.396 . S
C1440 C1445 1.390 . S
C1441 C1435 1.465 . S
C1441 C1440 1.396 . S
C1441 C1442 1.399 . S
C1442 H1428 0.929 . S
C1442 C1441 1.399 . S
C1442 C1443 1.385 . S
C1443 H1429 0.931 . S
C1443 C1442 1.385 . S
C1443 C1444 1.389 . S
C1444 C1443 1.389 . S
C1444 C1445 1.387 . S
C1445 H1430 0.930 . S
C1445 C1440 1.390 . S
C1445 C1444 1.387 . S
H1446 C1458 0.930 . S
H1447 C1460 0.930 . S
H1448 C1461 0.930 . S
H1449 C1465 0.959 . S
H1450 C1465 0.959 . S
H1451 C1465 0.961 . S
H1452 C1466 0.960 . S
H1453 C1466 0.961 . S
H1454 C1466 0.959 . S
H1455 C1469 0.929 . S
H1456 C1470 0.931 . S
H1457 C1472 0.930 . S
C1458 H1446 0.930 . S
C1458 C1459 1.399 . S
C1458 C1463 1.399 . S
C1459 C1458 1.399 . S
C1459 C1460 1.376 . S
C1460 H1447 0.930 . S
C1460 C1459 1.376 . S
C1460 C1461 1.388 . S
C1461 H1448 0.930 . S
C1461 C1460 1.388 . S
C1461 C1462 1.390 . S
C1462 C1461 1.390 . S
C1462 C1463 1.394 . S
C1462 C1468 1.465 . S
C1463 C1458 1.399 . S
C1463 C1462 1.394 . S
C1463 C1464 1.516 . S
C1464 C1463 1.516 . S
C1464 C1465 1.502 . S
C1464 C1466 1.561 . S
C1464 C1467 1.526 . S
C1465 H1449 0.959 . S
C1465 H1450 0.959 . S
C1465 H1451 0.961 . S
C1465 C1464 1.502 . S
C1466 H1452 0.960 . S
C1466 H1453 0.961 . S
C1466 H1454 0.959 . S
C1466 C1464 1.561 . S
C1467 C1464 1.526 . S
C1467 C1468 1.396 . S
C1467 C1472 1.390 . S
C1468 C1462 1.465 . S
C1468 C1467 1.396 . S
C1468 C1469 1.399 . S
C1469 H1455 0.929 . S
C1469 C1468 1.399 . S
C1469 C1470 1.385 . S
C1470 H1456 0.931 . S
C1470 C1469 1.385 . S
C1470 C1471 1.389 . S
C1471 C1470 1.389 . S
C1471 C1472 1.387 . S
C1472 H1457 0.930 . S
C1472 C1467 1.390 . S
C1472 C1471 1.387 . S
H1473 C1485 0.930 . S
H1474 C1487 0.930 . S
H1475 C1488 0.930 . S
H1476 C1492 0.959 . S
H1477 C1492 0.959 . S
H1478 C1492 0.961 . S
H1479 C1493 0.960 . S
H1480 C1493 0.961 . S
H1481 C1493 0.959 . S
H1482 C1496 0.929 . S
H1483 C1497 0.931 . S
H1484 C1499 0.930 . S
C1485 H1473 0.930 . S
C1485 C1486 1.399 . S
C1485 C1490 1.399 . S
C1486 C1485 1.399 . S
C1486 C1487 1.376 . S
C1487 H1474 0.930 . S
C1487 C1486 1.376 . S
C1487 C1488 1.388 . S
C1488 H1475 0.930 . S
C1488 C1487 1.388 . S
C1488 C1489 1.390 . S
C1489 C1488 1.390 . S
C1489 C1490 1.394 . S
C1489 C1495 1.465 . S
C1490 C1485 1.399 . S
C1490 C1489 1.394 . S
C1490 C1491 1.516 . S
C1491 C1490 1.516 . S
C1491 C1492 1.502 . S
C1491 C1493 1.561 . S
C1491 C1494 1.526 . S
C1492 H1476 0.959 . S
C1492 H1477 0.959 . S
C1492 H1478 0.961 . S
C1492 C1491 1.502 . S
C1493 H1479 0.960 . S
C1493 H1480 0.961 . S
C1493 H1481 0.959 . S
C1493 C1491 1.561 . S
C1494 C1491 1.526 . S
C1494 C1495 1.396 . S
C1494 C1499 1.390 . S
C1495 C1489 1.465 . S
C1495 C1494 1.396 . S
C1495 C1496 1.399 . S
C1496 H1482 0.929 . S
C1496 C1495 1.399 . S
C1496 C1497 1.385 . S
C1497 H1483 0.931 . S
C1497 C1496 1.385 . S
C1497 C1498 1.389 . S
C1498 C1497 1.389 . S
C1498 C1499 1.387 . S
C1499 H1484 0.930 . S
C1499 C1494 1.390 . S
C1499 C1498 1.387 . S
H1500 C1512 0.930 . S
H1501 C1514 0.930 . S
H1502 C1515 0.930 . S
H1503 C1519 0.959 . S
H1504 C1519 0.959 . S
H1505 C1519 0.961 . S
H1506 C1520 0.960 . S
H1507 C1520 0.961 . S
H1508 C1520 0.959 . S
H1509 C1523 0.929 . S
H1510 C1524 0.931 . S
H1511 C1526 0.930 . S
C1512 H1500 0.930 . S
C1512 C1513 1.399 . S
C1512 C1517 1.399 . S
C1513 C1512 1.399 . S
C1513 C1514 1.376 . S
C1514 H1501 0.930 . S
C1514 C1513 1.376 . S
C1514 C1515 1.388 . S
C1515 H1502 0.930 . S
C1515 C1514 1.388 . S
C1515 C1516 1.390 . S
C1516 C1515 1.390 . S
C1516 C1517 1.394 . S
C1516 C1522 1.465 . S
C1517 C1512 1.399 . S
C1517 C1516 1.394 . S
C1517 C1518 1.516 . S
C1518 C1517 1.516 . S
C1518 C1519 1.502 . S
C1518 C1520 1.561 . S
C1518 C1521 1.526 . S
C1519 H1503 0.959 . S
C1519 H1504 0.959 . S
C1519 H1505 0.961 . S
C1519 C1518 1.502 . S
C1520 H1506 0.960 . S
C1520 H1507 0.961 . S
C1520 H1508 0.959 . S
C1520 C1518 1.561 . S
C1521 C1518 1.526 . S
C1521 C1522 1.396 . S
C1521 C1526 1.390 . S
C1522 C1516 1.465 . S
C1522 C1521 1.396 . S
C1522 C1523 1.399 . S
C1523 H1509 0.929 . S
C1523 C1522 1.399 . S
C1523 C1524 1.385 . S
C1524 H1510 0.931 . S
C1524 C1523 1.385 . S
C1524 C1525 1.389 . S
C1525 C1524 1.389 . S
C1525 C1526 1.387 . S
C1526 H1511 0.930 . S
C1526 C1521 1.390 . S
C1526 C1525 1.387 . S
H1527 C1539 0.930 . S
H1528 C1541 0.930 . S
H1529 C1542 0.930 . S
H1530 C1546 0.959 . S
H1531 C1546 0.959 . S
H1532 C1546 0.961 . S
H1533 C1547 0.960 . S
H1534 C1547 0.961 . S
H1535 C1547 0.959 . S
H1536 C1550 0.929 . S
H1537 C1551 0.931 . S
H1538 C1553 0.930 . S
C1539 H1527 0.930 . S
C1539 C1540 1.399 . S
C1539 C1544 1.399 . S
C1540 C1539 1.399 . S
C1540 C1541 1.376 . S
C1541 H1528 0.930 . S
C1541 C1540 1.376 . S
C1541 C1542 1.388 . S
C1542 H1529 0.930 . S
C1542 C1541 1.388 . S
C1542 C1543 1.390 . S
C1543 C1542 1.390 . S
C1543 C1544 1.394 . S
C1543 C1549 1.465 . S
C1544 C1539 1.399 . S
C1544 C1543 1.394 . S
C1544 C1545 1.516 . S
C1545 C1544 1.516 . S
C1545 C1546 1.502 . S
C1545 C1547 1.561 . S
C1545 C1548 1.526 . S
C1546 H1530 0.959 . S
C1546 H1531 0.959 . S
C1546 H1532 0.961 . S
C1546 C1545 1.502 . S
C1547 H1533 0.960 . S
C1547 H1534 0.961 . S
C1547 H1535 0.959 . S
C1547 C1545 1.561 . S
C1548 C1545 1.526 . S
C1548 C1549 1.396 . S
C1548 C1553 1.390 . S
C1549 C1543 1.465 . S
C1549 C1548 1.396 . S
C1549 C1550 1.399 . S
C1550 H1536 0.929 . S
C1550 C1549 1.399 . S
C1550 C1551 1.385 . S
C1551 H1537 0.931 . S
C1551 C1550 1.385 . S
C1551 C1552 1.389 . S
C1552 C1551 1.389 . S
C1552 C1553 1.387 . S
C1553 H1538 0.930 . S
C1553 C1548 1.390 . S
C1553 C1552 1.387 . S
H1554 C1566 0.930 . S
H1555 C1568 0.930 . S
H1556 C1569 0.930 . S
H1557 C1573 0.959 . S
H1558 C1573 0.959 . S
H1559 C1573 0.961 . S
H1560 C1574 0.960 . S
H1561 C1574 0.961 . S
H1562 C1574 0.959 . S
H1563 C1577 0.929 . S
H1564 C1578 0.931 . S
H1565 C1580 0.930 . S
C1566 H1554 0.930 . S
C1566 C1567 1.399 . S
C1566 C1571 1.399 . S
C1567 C1566 1.399 . S
C1567 C1568 1.376 . S
C1568 H1555 0.930 . S
C1568 C1567 1.376 . S
C1568 C1569 1.388 . S
C1569 H1556 0.930 . S
C1569 C1568 1.388 . S
C1569 C1570 1.390 . S
C1570 C1569 1.390 . S
C1570 C1571 1.394 . S
C1570 C1576 1.465 . S
C1571 C1566 1.399 . S
C1571 C1570 1.394 . S
C1571 C1572 1.516 . S
C1572 C1571 1.516 . S
C1572 C1573 1.502 . S
C1572 C1574 1.561 . S
C1572 C1575 1.526 . S
C1573 H1557 0.959 . S
C1573 H1558 0.959 . S
C1573 H1559 0.961 . S
C1573 C1572 1.502 . S
C1574 H1560 0.960 . S
C1574 H1561 0.961 . S
C1574 H1562 0.959 . S
C1574 C1572 1.561 . S
C1575 C1572 1.526 . S
C1575 C1576 1.396 . S
C1575 C1580 1.390 . S
C1576 C1570 1.465 . S
C1576 C1575 1.396 . S
C1576 C1577 1.399 . S
C1577 H1563 0.929 . S
C1577 C1576 1.399 . S
C1577 C1578 1.385 . S
C1578 H1564 0.931 . S
C1578 C1577 1.385 . S
C1578 C1579 1.389 . S
C1579 C1578 1.389 . S
C1579 C1580 1.387 . S
C1580 H1565 0.930 . S
C1580 C1575 1.390 . S
C1580 C1579 1.387 . S
H1581 C1593 0.930 . S
H1582 C1595 0.930 . S
H1583 C1596 0.930 . S
H1584 C1600 0.959 . S
H1585 C1600 0.959 . S
H1586 C1600 0.961 . S
H1587 C1601 0.960 . S
H1588 C1601 0.961 . S
H1589 C1601 0.959 . S
H1590 C1604 0.929 . S
H1591 C1605 0.931 . S
H1592 C1607 0.930 . S
C1593 H1581 0.930 . S
C1593 C1594 1.399 . S
C1593 C1598 1.399 . S
C1594 C1593 1.399 . S
C1594 C1595 1.376 . S
C1595 H1582 0.930 . S
C1595 C1594 1.376 . S
C1595 C1596 1.388 . S
C1596 H1583 0.930 . S
C1596 C1595 1.388 . S
C1596 C1597 1.390 . S
C1597 C1596 1.390 . S
C1597 C1598 1.394 . S
C1597 C1603 1.465 . S
C1598 C1593 1.399 . S
C1598 C1597 1.394 . S
C1598 C1599 1.516 . S
C1599 C1598 1.516 . S
C1599 C1600 1.502 . S
C1599 C1601 1.561 . S
C1599 C1602 1.526 . S
C1600 H1584 0.959 . S
C1600 H1585 0.959 . S
C1600 H1586 0.961 . S
C1600 C1599 1.502 . S
C1601 H1587 0.960 . S
C1601 H1588 0.961 . S
C1601 H1589 0.959 . S
C1601 C1599 1.561 . S
C1602 C1599 1.526 . S
C1602 C1603 1.396 . S
C1602 C1607 1.390 . S
C1603 C1597 1.465 . S
C1603 C1602 1.396 . S
C1603 C1604 1.399 . S
C1604 H1590 0.929 . S
C1604 C1603 1.399 . S
C1604 C1605 1.385 . S
C1605 H1591 0.931 . S
C1605 C1604 1.385 . S
C1605 C1606 1.389 . S
C1606 C1605 1.389 . S
C1606 C1607 1.387 . S
C1607 H1592 0.930 . S
C1607 C1602 1.390 . S
C1607 C1606 1.387 . S
C541 C21 1.336 . S
C553 C87 1.334 . S
C568 C120 1.335 . S
C580 C54 1.332 . S
C595 C219 1.309 . S
C607 C153 1.310 . S
C622 C186 1.311 . S
C634 C252 1.313 . S
C649 C351 1.319 . S
C661 C285 1.311 . S
C676 C318 1.333 . S
C688 C384 1.340 . S
C703 C483 1.316 . S
C715 C417 1.310 . S
C730 C450 1.335 . S
C742 C516 1.340 . S
C757 C7 1.467 . S
C769 C337 1.462 . S
C784 C370 1.456 . S
C796 C40 1.459 . S
C811 C271 1.502 . S
C823 C73 1.506 . S
C838 C304 1.462 . S
C850 C106 1.468 . S
C865 C469 1.456 . S
C877 C139 1.459 . S
C892 C502 1.497 . S
C904 C172 1.502 . S
C919 C403 1.498 . S
C931 C205 1.503 . S
C946 C436 1.499 . S
C958 C238 1.492 . S
C973 C18 1.305 . S
C985 C249 1.316 . S
C1000 C51 1.289 . S
C1012 C150 1.316 . S
C1027 C183 1.259 . S
C1039 C84 1.268 . S
C1054 C216 1.284 . S
C1066 C117 1.258 . S
C1081 C282 1.310 . S
C1093 C513 1.294 . S
C1108 C315 1.292 . S
C1120 C414 1.274 . S
C1135 C348 1.305 . S
C1147 C447 1.316 . S
C1162 C381 1.261 . S
C1174 C480 1.258 . S
C1189 N464 1.283 . S
C1201 N13 1.233 . S
C1216 N46 1.290 . S
C1228 N497 1.230 . S
C1243 N398 1.282 . S
C1255 N79 1.233 . S
C1270 N431 1.278 . S
C1282 N112 1.238 . S
C1297 N332 1.292 . S
C1309 N145 1.223 . S
C1324 N178 1.289 . S
C1336 N365 1.230 . S
C1351 N266 1.246 . S
C1363 N211 1.273 . S
C1378 N244 1.235 . S
C1390 N299 1.280 . S
C1405 N200 1.289 . S
C1417 N277 1.223 . S
C1432 N233 1.234 . S
C1444 N310 1.291 . S
C1459 N134 1.287 . S
C1471 N343 1.223 . S
C1486 N376 1.268 . S
C1498 N167 1.235 . S
C1513 N68 1.287 . S
C1525 N409 1.223 . S
C1540 N442 1.257 . S
C1552 N101 1.243 . S
C1567 N475 1.257 . S
C1579 N2 1.243 . S
C1594 N35 1.288 . S
C1606 N508 1.223 . S
