# Generated by pormake.
# Topology wjm, (5)-cn, num edge types: 1
# Building blocks:
#     Node 0, Type 0, BuildingBlock: BEQFEK_clean_sbu_0, # of connection points: 5
#     Node 1, Type 0, BuildingBlock: BEQFEK_clean_sbu_0, # of connection points: 5
#     Node 2, Type 0, BuildingBlock: BEQFEK_clean_sbu_0, # of connection points: 5
#     Node 3, Type 0, BuildingBlock: BEQFEK_clean_sbu_0, # of connection points: 5
#     Node 4, Type 0, BuildingBlock: BEQFEK_clean_sbu_0, # of connection points: 5
#     Node 5, Type 0, BuildingBlock: BEQFEK_clean_sbu_0, # of connection points: 5
#     Node 6, Type 0, BuildingBlock: BEQFEK_clean_sbu_0, # of connection points: 5
#     Node 7, Type 0, BuildingBlock: BEQFEK_clean_sbu_0, # of connection points: 5
#     Node 8, Type 0, BuildingBlock: BEQFEK_clean_sbu_0, # of connection points: 5
#     Node 9, Type 0, BuildingBlock: BEQFEK_clean_sbu_0, # of connection points: 5
#     Node 10, Type 0, BuildingBlock: BEQFEK_clean_sbu_0, # of connection points: 5
#     Node 11, Type 0, BuildingBlock: BEQFEK_clean_sbu_0, # of connection points: 5
#     Edge 12, Type (0, 0), BuildingBlock: EZIPEK_clean_linker_0, # of connection points: 2
#     Edge 13, Type (0, 0), BuildingBlock: EZIPEK_clean_linker_0, # of connection points: 2
#     Edge 14, Type (0, 0), BuildingBlock: EZIPEK_clean_linker_0, # of connection points: 2
#     Edge 15, Type (0, 0), BuildingBlock: EZIPEK_clean_linker_0, # of connection points: 2
#     Edge 16, Type (0, 0), BuildingBlock: EZIPEK_clean_linker_0, # of connection points: 2
#     Edge 17, Type (0, 0), BuildingBlock: EZIPEK_clean_linker_0, # of connection points: 2
#     Edge 18, Type (0, 0), BuildingBlock: EZIPEK_clean_linker_0, # of connection points: 2
#     Edge 19, Type (0, 0), BuildingBlock: EZIPEK_clean_linker_0, # of connection points: 2
#     Edge 20, Type (0, 0), BuildingBlock: EZIPEK_clean_linker_0, # of connection points: 2
#     Edge 21, Type (0, 0), BuildingBlock: EZIPEK_clean_linker_0, # of connection points: 2
#     Edge 22, Type (0, 0), BuildingBlock: EZIPEK_clean_linker_0, # of connection points: 2
#     Edge 23, Type (0, 0), BuildingBlock: EZIPEK_clean_linker_0, # of connection points: 2
#     Edge 24, Type (0, 0), BuildingBlock: EZIPEK_clean_linker_0, # of connection points: 2
#     Edge 25, Type (0, 0), BuildingBlock: EZIPEK_clean_linker_0, # of connection points: 2
#     Edge 26, Type (0, 0), BuildingBlock: EZIPEK_clean_linker_0, # of connection points: 2
#     Edge 27, Type (0, 0), BuildingBlock: EZIPEK_clean_linker_0, # of connection points: 2
#     Edge 28, Type (0, 0), BuildingBlock: EZIPEK_clean_linker_0, # of connection points: 2
#     Edge 29, Type (0, 0), BuildingBlock: EZIPEK_clean_linker_0, # of connection points: 2
#     Edge 30, Type (0, 0), BuildingBlock: EZIPEK_clean_linker_0, # of connection points: 2
#     Edge 31, Type (0, 0), BuildingBlock: EZIPEK_clean_linker_0, # of connection points: 2
#     Edge 32, Type (0, 0), BuildingBlock: EZIPEK_clean_linker_0, # of connection points: 2
#     Edge 33, Type (0, 0), BuildingBlock: EZIPEK_clean_linker_0, # of connection points: 2
#     Edge 34, Type (0, 0), BuildingBlock: EZIPEK_clean_linker_0, # of connection points: 2
#     Edge 35, Type (0, 0), BuildingBlock: EZIPEK_clean_linker_0, # of connection points: 2
#     Edge 36, Type (0, 0), BuildingBlock: EZIPEK_clean_linker_0, # of connection points: 2
#     Edge 37, Type (0, 0), BuildingBlock: EZIPEK_clean_linker_0, # of connection points: 2
#     Edge 38, Type (0, 0), BuildingBlock: EZIPEK_clean_linker_0, # of connection points: 2
#     Edge 39, Type (0, 0), BuildingBlock: EZIPEK_clean_linker_0, # of connection points: 2
#     Edge 40, Type (0, 0), BuildingBlock: EZIPEK_clean_linker_0, # of connection points: 2
#     Edge 41, Type (0, 0), BuildingBlock: EZIPEK_clean_linker_0, # of connection points: 2
# Relax obj value: 0.720
# Max RMSD: 0.248
# Mean RMSD: 0.248
data_MOF--net-wjm--node1-BEQFEK_clean_sbu_0--edge1-EZIPEK_clean_linker_0
_symmetry_space_group_name_H-M    P1
_symmetry_Int_Tables_number       1
_symmetry_cell_setting            triclinic
loop_
_symmetry_equiv_pos_as_xyz
'x, y, z'
_cell_length_a     25.756323
_cell_length_b     25.771782
_cell_length_c     33.427625
_cell_angle_alpha  89.778798
_cell_angle_beta   90.300379
_cell_angle_gamma 119.99787
loop_
_atom_site_label
_atom_site_type_symbol
_atom_site_fract_x
_atom_site_fract_y
_atom_site_fract_z
_atom_type_partial_charge
Co0 Co 0.26911 0.44879 0.30584 0.0
Co1 Co 0.25917 0.38136 0.22524 0.0
C2 C 0.22379 0.31686 0.3059 0.0
O3 O 0.23874 0.3665 0.3226 0.0
O4 O 0.22694 0.3143 0.26778 0.0
C5 C 0.29879 0.53447 0.3726 0.0
O6 O 0.28403 0.55277 0.40496 0.0
C7 C 0.19655 0.31515 0.15085 0.0
C8 C 0.27315 0.35184 0.10924 0.0
C9 C 0.21114 0.31755 0.11034 0.0
N10 N 0.24748 0.34867 0.17187 0.0
N11 N 0.29304 0.36892 0.14682 0.0
C12 C 0.13568 0.28332 0.16947 0.0
H13 H 0.13554 0.25412 0.19401 0.0
H14 H 0.12586 0.31663 0.18317 0.0
H15 H 0.10055 0.2559 0.14716 0.0
C16 C 0.20744 0.49733 0.25958 0.0
N17 N 0.22429 0.45577 0.26337 0.0
N18 N 0.22876 0.43688 0.22771 0.0
C19 C 0.21966 0.47041 0.20008 0.0
C20 C 0.20582 0.5096 0.21952 0.0
C21 C 0.2037 0.53288 0.29339 0.0
H22 H 0.18125 0.50328 0.31936 0.0
H23 H 0.17873 0.5559 0.28446 0.0
H24 H 0.24969 0.5671 0.30189 0.0
O25 O 0.35524 0.48071 0.2888 0.0
O26 O 0.3471 0.42848 0.23387 0.0
H27 H 0.27838 0.51936 0.1521 0.0
H28 H 0.20102 0.47606 0.13825 0.0
C29 C 0.23668 0.47588 0.15695 0.0
H30 H 0.24449 0.43965 0.14736 0.0
H31 H 0.33761 0.39771 0.15495 0.0
O32 O 0.25949 0.48782 0.35469 0.0
C33 C 0.379 0.46656 0.26047 0.0
Co34 Co 0.84241 0.27088 0.62837 0.0
Co35 Co 0.89684 0.25301 0.5483 0.0
C36 C 0.93762 0.23366 0.62797 0.0
O37 O 0.9029 0.24975 0.64313 0.0
O38 O 0.93817 0.22688 0.59006 0.0
C39 C 0.77453 0.28107 0.70091 0.0
O40 O 0.75148 0.25777 0.73589 0.0
C41 C 0.91134 0.19542 0.47417 0.0
C42 C 0.91826 0.26252 0.43 0.0
C43 C 0.91178 0.20595 0.43299 0.0
N44 N 0.91429 0.2425 0.49388 0.0
N45 N 0.92031 0.28297 0.46714 0.0
C46 C 0.90882 0.14257 0.49474 0.0
H47 H 0.94761 0.1584 0.51547 0.0
H48 H 0.86767 0.1198 0.51324 0.0
H49 H 0.90967 0.11068 0.47289 0.0
C50 C 0.7304 0.20412 0.58425 0.0
N51 N 0.78889 0.22129 0.5883 0.0
N52 N 0.81034 0.21724 0.55352 0.0
C53 C 0.76557 0.19907 0.52602 0.0
C54 C 0.71367 0.19052 0.54465 0.0
C55 C 0.69427 0.21224 0.61567 0.0
H56 H 0.71138 0.26082 0.61934 0.0
H57 H 0.69897 0.19314 0.64428 0.0
H58 H 0.64609 0.18999 0.60733 0.0
O59 O 0.88934 0.3548 0.60754 0.0
O60 O 0.93435 0.34166 0.55493 0.0
H61 H 0.80322 0.24915 0.47255 0.0
H62 H 0.73105 0.1828 0.4655 0.0
C63 C 0.77441 0.20181 0.48179 0.0
H64 H 0.79663 0.17626 0.47368 0.0
H65 H 0.92205 0.32321 0.47416 0.0
O66 O 0.79947 0.25781 0.68074 0.0
C67 C 0.92653 0.37584 0.57855 0.0
Co68 Co 0.56575 0.82178 0.97385 0.0
Co69 Co 0.63447 0.86751 0.89205 0.0
C70 C 0.69621 0.92098 0.96978 0.0
O71 O 0.6464 0.88688 0.98653 0.0
O72 O 0.70257 0.91665 0.93212 0.0
C73 C 0.49361 0.7732 0.04701 0.0
O74 O 0.48046 0.74385 0.08108 0.0
C75 C 0.70213 0.87989 0.81526 0.0
C76 C 0.64206 0.8915 0.7734 0.0
C77 C 0.69126 0.88335 0.77444 0.0
N78 N 0.65962 0.8835 0.83662 0.0
N79 N 0.62507 0.89196 0.81119 0.0
C80 C 0.7521 0.87448 0.83395 0.0
H81 H 0.77591 0.91118 0.85595 0.0
H82 H 0.73318 0.83165 0.85077 0.0
H83 H 0.78418 0.87656 0.81108 0.0
C84 C 0.52076 0.70783 0.9368 0.0
N85 N 0.56303 0.76587 0.93688 0.0
N86 N 0.59021 0.78111 0.90226 0.0
C87 C 0.5671 0.73085 0.87927 0.0
C88 C 0.52525 0.68051 0.90179 0.0
C89 C 0.46536 0.68828 0.96133 0.0
H90 H 0.46111 0.72792 0.96822 0.0
H91 H 0.46892 0.66845 0.98998 0.0
H92 H 0.42375 0.65693 0.94516 0.0
O93 O 0.52178 0.86067 0.95147 0.0
O94 O 0.57744 0.89953 0.89703 0.0
H95 H 0.52959 0.69927 0.82015 0.0
H96 H 0.60981 0.72977 0.8249 0.0
C97 C 0.57122 0.73422 0.83457 0.0
H98 H 0.57782 0.77755 0.82393 0.0
H99 H 0.58764 0.8949 0.81948 0.0
O100 O 0.53729 0.77868 1.02641 0.0
C101 C 0.53567 0.89362 0.92032 0.0
Co102 Co 0.74002 0.58414 0.31944 0.0
Co103 Co 0.76373 0.64716 0.23424 0.0
C104 C 0.79712 0.71952 0.30896 0.0
O105 O 0.77533 0.67006 0.32752 0.0
O106 O 0.79895 0.72066 0.2707 0.0
C107 C 0.71464 0.51217 0.39624 0.0
O108 O 0.73045 0.51092 0.43348 0.0
C109 C 0.81866 0.71128 0.15605 0.0
C110 C 0.75265 0.64391 0.11449 0.0
C111 C 0.80698 0.697 0.11536 0.0
N112 N 0.77421 0.66712 0.17771 0.0
N113 N 0.73448 0.62801 0.1524 0.0
C114 C 0.87047 0.7655 0.17421 0.0
H115 H 0.85332 0.78791 0.19411 0.0
H116 H 0.89683 0.75147 0.19316 0.0
H117 H 0.89962 0.79739 0.15087 0.0
C118 C 0.79973 0.52472 0.2804 0.0
N119 N 0.7841 0.56748 0.28109 0.0
N120 N 0.79415 0.59315 0.24556 0.0
C121 C 0.81605 0.56649 0.2214 0.0
C122 C 0.8196 0.52191 0.24259 0.0
C123 C 0.78766 0.48094 0.31317 0.0
H124 H 0.74078 0.44391 0.3101 0.0
H125 H 0.79421 0.50298 0.34254 0.0
H126 H 0.81769 0.46173 0.31091 0.0
O127 O 0.65632 0.55382 0.30037 0.0
O128 O 0.67408 0.602 0.24213 0.0
H129 H 0.78248 0.55745 0.16186 0.0
H130 H 0.85191 0.55677 0.16552 0.0
C131 C 0.82631 0.57739 0.17751 0.0
H132 H 0.85158 0.62611 0.17173 0.0
H133 H 0.69595 0.58878 0.16111 0.0
O134 O 0.74627 0.55865 0.37522 0.0
C135 C 0.63767 0.56711 0.26863 0.0
Co136 Co 0.17773 0.74007 0.62732 0.0
Co137 Co 0.11798 0.7574 0.55136 0.0
C138 C 0.08583 0.77493 0.63738 0.0
O139 O 0.12431 0.76346 0.65246 0.0
O140 O 0.08163 0.77871 0.59928 0.0
C141 C 0.23319 0.73975 0.70504 0.0
O142 O 0.20958 0.76869 0.72242 0.0
C143 C 0.12429 0.82204 0.47472 0.0
C144 C 0.04346 0.75249 0.44399 0.0
C145 C 0.09396 0.808 0.4383 0.0
N146 N 0.09389 0.77635 0.50056 0.0
N147 N 0.04474 0.73576 0.48208 0.0
C148 C 0.18177 0.87809 0.48403 0.0
H149 H 0.19738 0.87693 0.5148 0.0
H150 H 0.21645 0.88499 0.46179 0.0
H151 H 0.17448 0.91692 0.48124 0.0
C152 C 0.28706 0.808 0.58359 0.0
N153 N 0.229 0.79202 0.5881 0.0
N154 N 0.20432 0.78802 0.55289 0.0
C155 C 0.2455 0.79657 0.52461 0.0
C156 C 0.29958 0.81072 0.54326 0.0
C157 C 0.32677 0.80885 0.61671 0.0
H158 H 0.31843 0.76273 0.62183 0.0
H159 H 0.31727 0.82576 0.64458 0.0
H160 H 0.3747 0.83774 0.60871 0.0
O161 O 0.12615 0.6581 0.60402 0.0
O162 O 0.076 0.66846 0.55365 0.0
H163 H 0.2486 0.74764 0.47369 0.0
H164 H 0.25088 0.81636 0.46209 0.0
C165 C 0.23009 0.77679 0.48212 0.0
H166 H 0.18087 0.75158 0.47798 0.0
H167 H 0.01379 0.6947 0.49467 0.0
O168 O 0.22417 0.72706 0.66813 0.0
C169 C 0.08592 0.63512 0.57687 0.0
Co170 Co 0.4222 0.12975 0.97248 0.0
Co171 Co 0.36001 0.10769 0.88917 0.0
C172 C 0.28845 0.06906 0.96539 0.0
O173 O 0.33793 0.08978 0.98388 0.0
O174 O 0.28673 0.0722 0.92706 0.0
C175 C 0.47569 0.12389 0.04233 0.0
O176 O 0.44294 0.0664 0.03472 0.0
C177 C 0.30707 0.12029 0.80983 0.0
C178 C 0.36553 0.10447 0.76961 0.0
C179 C 0.32198 0.1209 0.76939 0.0
N180 N 0.34192 0.1059 0.83236 0.0
N181 N 0.37568 0.09553 0.80772 0.0
C182 C 0.2608 0.13263 0.8269 0.0
H183 H 0.23047 0.09489 0.84662 0.0
H184 H 0.28318 0.17338 0.84584 0.0
H185 H 0.23437 0.13878 0.80291 0.0
C186 C 0.49349 0.25025 0.94296 0.0
N187 N 0.44593 0.19519 0.93871 0.0
N188 N 0.41934 0.19014 0.90431 0.0
C189 C 0.44798 0.24467 0.88624 0.0
C190 C 0.4935 0.28698 0.91183 0.0
C191 C 0.54588 0.25889 0.96804 0.0
H192 H 0.54516 0.21564 0.97122 0.0
H193 H 0.54272 0.27387 0.9985 0.0
H194 H 0.58943 0.29068 0.95421 0.0
O195 O 0.445 0.07401 0.95064 0.0
O196 O 0.39763 0.05365 0.8923 0.0
H197 H 0.48201 0.28999 0.82942 0.0
H198 H 0.40237 0.25931 0.8379 0.0
C199 C 0.441 0.25226 0.84247 0.0
H200 H 0.43221 0.21158 0.82609 0.0
H201 H 0.40798 0.08491 0.81702 0.0
O202 O 0.46407 0.15915 1.02297 0.0
C203 C 0.43009 0.04565 0.91784 0.0
Co204 Co 0.58741 0.73861 0.41549 0.0
Co205 Co 0.64718 0.76362 0.49959 0.0
C206 C 0.72055 0.80088 0.42318 0.0
O207 O 0.67191 0.78016 0.40361 0.0
O208 O 0.72012 0.79937 0.4616 0.0
C209 C 0.54245 0.68483 0.34522 0.0
O210 O 0.58811 0.67574 0.34793 0.0
C211 C 0.70853 0.82037 0.57846 0.0
C212 C 0.64132 0.7514 0.61859 0.0
C213 C 0.69312 0.80677 0.6188 0.0
N214 N 0.66629 0.77556 0.55592 0.0
N215 N 0.62718 0.73428 0.58038 0.0
C216 C 0.76194 0.87424 0.56147 0.0
H217 H 0.78594 0.85955 0.54105 0.0
H218 H 0.74671 0.9003 0.54329 0.0
H219 H 0.79277 0.90295 0.58548 0.0
C220 C 0.51778 0.78694 0.45133 0.0
N221 N 0.56488 0.77782 0.45224 0.0
N222 N 0.58902 0.78926 0.48819 0.0
C223 C 0.5576 0.807 0.51133 0.0
C224 C 0.51125 0.80564 0.48873 0.0
C225 C 0.47468 0.76957 0.41702 0.0
H226 H 0.45383 0.72069 0.41163 0.0
H227 H 0.49932 0.79329 0.38961 0.0
H228 H 0.43894 0.78065 0.42288 0.0
O229 O 0.56255 0.65715 0.4345 0.0
O230 O 0.60638 0.67378 0.49397 0.0
H231 H 0.54806 0.77455 0.57116 0.0
H232 H 0.54293 0.84147 0.56621 0.0
C233 C 0.56644 0.81805 0.55532 0.0
H234 H 0.61488 0.84547 0.56216 0.0
H235 H 0.58917 0.69514 0.57088 0.0
O236 O 0.5439 0.72644 0.36607 0.0
C237 C 0.57421 0.63799 0.46635 0.0
Co238 Co 0.82699 0.5477 0.7748 0.0
Co239 Co 0.88056 0.62728 0.85022 0.0
C240 C 0.90858 0.67375 0.76325 0.0
O241 O 0.85923 0.62876 0.75258 0.0
O242 O 0.92383 0.68143 0.80046 0.0
C243 C 0.77897 0.49171 0.6956 0.0
O244 O 0.7977 0.54402 0.67849 0.0
C245 C 0.89309 0.70754 0.92177 0.0
C246 C 0.89802 0.64885 0.96817 0.0
C247 C 0.89276 0.69933 0.96342 0.0
N248 N 0.89596 0.66218 0.90352 0.0
N249 N 0.90027 0.62853 0.93178 0.0
C250 C 0.89188 0.75744 0.89962 0.0
H251 H 0.93015 0.77799 0.87852 0.0
H252 H 0.85028 0.73909 0.88139 0.0
H253 H 0.89445 0.79208 0.92048 0.0
C254 C 0.71797 0.49036 0.82121 0.0
N255 N 0.77441 0.53491 0.81522 0.0
N256 N 0.79357 0.57146 0.84594 0.0
C257 C 0.74741 0.55209 0.87208 0.0
C258 C 0.69845 0.49926 0.85762 0.0
C259 C 0.68609 0.43707 0.79427 0.0
H260 H 0.71597 0.41874 0.78765 0.0
H261 H 0.67527 0.45142 0.76559 0.0
H262 H 0.64416 0.40111 0.80774 0.0
O263 O 0.89026 0.532 0.79507 0.0
O264 O 0.9233 0.57993 0.85248 0.0
H265 H 0.77812 0.57685 0.93228 0.0
H266 H 0.7041 0.56557 0.92292 0.0
C267 C 0.74959 0.58315 0.91017 0.0
H268 H 0.76958 0.63157 0.90398 0.0
H269 H 0.90108 0.58913 0.92635 0.0
O270 O 0.78689 0.48817 0.73278 0.0
C271 C 0.92375 0.54498 0.82589 0.0
Co272 Co 0.2875 0.87131 0.09055 0.0
Co273 Co 0.25952 0.91119 0.17127 0.0
C274 C 0.22055 0.93548 0.08879 0.0
O275 O 0.24359 0.90824 0.07154 0.0
O276 O 0.22272 0.94061 0.12707 0.0
C277 C 0.34921 0.87345 1.02362 0.0
O278 O 0.36833 0.93089 1.02748 0.0
C279 C 0.19067 0.89192 0.24811 0.0
C280 C 0.25814 0.96859 0.28325 0.0
C281 C 0.20237 0.91758 0.28603 0.0
N282 N 0.23795 0.9256 0.22418 0.0
N283 N 0.27729 0.97214 0.24538 0.0
C284 C 0.13523 0.83611 0.23536 0.0
H285 H 0.14106 0.82123 0.20548 0.0
H286 H 0.12293 0.80022 0.25797 0.0
H287 H 0.09761 0.84545 0.2338 0.0
C288 C 0.2337 0.7543 0.12884 0.0
N289 N 0.24534 0.81139 0.12858 0.0
N290 N 0.23969 0.82761 0.16485 0.0
C291 C 0.2279 0.78141 0.1899 0.0
C292 C 0.22211 0.7331 0.16765 0.0
C293 C 0.24288 0.72381 0.09382 0.0
H294 H 0.29168 0.74308 0.0888 0.0
H295 H 0.22283 0.73149 0.06658 0.0
H296 H 0.22249 0.67491 0.09906 0.0
O297 O 0.36736 0.93175 0.11185 0.0
O298 O 0.34946 0.96253 0.16923 0.0
H299 H 0.2579 0.83436 0.24312 0.0
H300 H 0.25989 0.76541 0.24544 0.0
C301 C 0.23423 0.78665 0.23432 0.0
H302 H 0.18929 0.7625 0.24825 0.0
H303 H 0.31883 1.00501 0.23456 0.0
O304 O 0.30551 0.83726 0.04506 0.0
C305 C 0.38597 0.9647 0.1428 0.0
Co306 Co 0.44378 0.27832 0.40798 0.0
Co307 Co 0.38402 0.25575 0.4941 0.0
C308 C 0.31044 0.23334 0.42068 0.0
O309 O 0.35899 0.25227 0.40157 0.0
O310 O 0.30953 0.22714 0.45874 0.0
C311 C 0.51028 0.30339 0.33008 0.0
O312 O 0.51082 0.28908 0.29248 0.0
C313 C 0.3231 0.20425 0.57393 0.0
C314 C 0.39488 0.2689 0.61375 0.0
C315 C 0.34001 0.2164 0.61426 0.0
N316 N 0.36729 0.24667 0.55112 0.0
N317 N 0.40914 0.28564 0.57544 0.0
C318 C 0.26644 0.15376 0.55716 0.0
H319 H 0.24504 0.1721 0.53709 0.0
H320 H 0.27731 0.1248 0.53867 0.0
H321 H 0.23484 0.12684 0.58129 0.0
C322 C 0.49967 0.21414 0.44456 0.0
N323 N 0.45717 0.23012 0.44488 0.0
N324 N 0.43342 0.22077 0.4809 0.0
C325 C 0.46092 0.19859 0.50438 0.0
C326 C 0.50436 0.19465 0.48226 0.0
C327 C 0.54303 0.22785 0.41137 0.0
H328 H 0.51996 0.2202 0.38217 0.0
H329 H 0.5643 0.19961 0.41349 0.0
H330 H 0.57862 0.27541 0.41393 0.0
O331 O 0.48212 0.3617 0.42832 0.0
O332 O 0.43343 0.34485 0.48613 0.0
H333 H 0.47615 0.23427 0.56349 0.0
H334 H 0.47278 0.16297 0.55997 0.0
C335 C 0.45312 0.18995 0.54857 0.0
H336 H 0.40488 0.16686 0.55592 0.0
H337 H 0.44896 0.32263 0.56576 0.0
O338 O 0.465 0.27015 0.35156 0.0
C339 C 0.47028 0.38068 0.46022 0.0
Co340 Co 0.18296 0.45601 0.76124 0.0
Co341 Co 0.13582 0.36835 0.83529 0.0
C342 C 0.09616 0.31705 0.75621 0.0
O343 O 0.1264 0.37144 0.74458 0.0
O344 O 0.09711 0.30349 0.79308 0.0
C345 C 0.25507 0.54547 0.69364 0.0
O346 O 0.28044 0.55033 0.65878 0.0
C347 C 0.11759 0.30217 0.91563 0.0
C348 C 0.14964 0.38357 0.95271 0.0
C349 C 0.13094 0.32328 0.95508 0.0
N350 N 0.12941 0.34895 0.89141 0.0
N351 N 0.14774 0.39682 0.91419 0.0
C352 C 0.09492 0.23967 0.90115 0.0
H353 H 0.05414 0.22553 0.88261 0.0
H354 H 0.12917 0.23875 0.88162 0.0
H355 H 0.08457 0.20813 0.92654 0.0
C356 C 0.29563 0.50212 0.80642 0.0
N357 N 0.23792 0.46073 0.79986 0.0
N358 N 0.22058 0.41821 0.82676 0.0
C359 C 0.26863 0.42893 0.84945 0.0
C360 C 0.31766 0.48375 0.83805 0.0
C361 C 0.32686 0.56115 0.78554 0.0
H362 H 0.29495 0.57761 0.78098 0.0
H363 H 0.3423 0.55477 0.75608 0.0
H364 H 0.36608 0.59501 0.80278 0.0
O365 O 0.13209 0.48526 0.78444 0.0
O366 O 0.09155 0.41559 0.83182 0.0
H367 H 0.25427 0.39499 0.90965 0.0
H368 H 0.31399 0.39258 0.88393 0.0
C369 C 0.26842 0.38655 0.88034 0.0
H370 H 0.23626 0.33967 0.87156 0.0
H371 H 0.16197 0.43969 0.90304 0.0
O372 O 0.22869 0.49437 0.71067 0.0
C373 C 0.09433 0.45992 0.81264 0.0
Co374 Co 0.75082 0.19484 0.09018 0.0
Co375 Co 0.76778 0.13745 0.169 0.0
C376 C 0.7856 0.09815 0.08772 0.0
O377 O 0.77071 0.13418 0.07264 0.0
O378 O 0.79085 0.09616 0.12574 0.0
C379 C 0.72277 0.24947 1.02231 0.0
O380 O 0.73722 0.28398 0.99052 0.0
C381 C 0.82719 0.11981 0.24145 0.0
C382 C 0.76142 0.11147 0.28684 0.0
C383 C 0.81789 0.11797 0.28282 0.0
N384 N 0.77954 0.1176 0.22268 0.0
N385 N 0.73987 0.11071 0.25011 0.0
C386 C 0.87942 0.12302 0.21984 0.0
H387 H 0.86293 0.08516 0.19844 0.0
H388 H 0.90186 0.16494 0.20196 0.0
H389 H 0.91183 0.12112 0.24097 0.0
C390 C 0.81726 0.30458 0.13555 0.0
N391 N 0.80113 0.24653 0.13062 0.0
N392 N 0.80546 0.22393 0.16499 0.0
C393 C 0.82325 0.26748 0.19315 0.0
C394 C 0.83083 0.31976 0.1754 0.0
C395 C 0.80697 0.34093 0.10494 0.0
H396 H 0.83007 0.34208 0.07679 0.0
H397 H 0.82382 0.38759 0.11521 0.0
H398 H 0.75822 0.31947 0.09904 0.0
O399 O 0.66656 0.14953 0.11144 0.0
O400 O 0.67933 0.10364 0.16399 0.0
H401 H 0.83905 0.29936 0.25419 0.0
H402 H 0.84567 0.2342 0.24498 0.0
C403 C 0.82016 0.25674 0.23722 0.0
H404 H 0.77272 0.22759 0.24605 0.0
H405 H 0.69947 0.10937 0.2439 0.0
O406 O 0.76291 0.2445 0.04116 0.0
C407 C 0.64532 0.11273 0.14069 0.0
C408 C 0.54726 0.58014 0.25833 0.0
C409 C 0.57181 0.5416 0.26254 0.0
C410 C 0.47 0.45408 0.26293 0.0
C411 C 0.44536 0.49243 0.25958 0.0
N412 N 0.45997 0.58972 0.24293 0.0
N413 N 0.55464 0.4399 0.26162 0.0
C414 C 0.4839 0.5549 0.25394 0.0
C415 C 0.53297 0.4785 0.26243 0.0
N416 N 0.58405 0.64086 0.26058 0.0
N417 N 0.43344 0.3935 0.26671 0.0
H418 H 0.60006 0.45309 0.26007 0.0
H419 H 0.60006 0.45309 0.26007 0.0
H420 H 0.38704 0.37285 0.26975 0.0
H421 H 0.45002 0.36393 0.26794 0.0
H422 H 0.56858 0.6712 0.26121 0.0
H423 H 0.6302 0.66133 0.26507 0.0
H424 H 0.48555 0.63413 0.23377 0.0
H425 H 0.41396 0.57276 0.23967 0.0
C426 C 1.00227 0.47182 0.61033 0.0
C427 C 0.96837 0.44168 0.57616 0.0
C428 C 0.02128 0.53676 0.539 0.0
C429 C 0.04589 0.56825 0.57553 0.0
N430 N 0.03884 0.56217 0.64784 0.0
N431 N 0.94014 0.44757 0.5081 0.0
C432 C 0.031 0.53493 0.61172 0.0
C433 C 0.97626 0.47471 0.54037 0.0
N434 N 1.00849 0.4408 0.64141 0.0
N435 N 0.04246 0.5647 0.5031 0.0
H436 H 0.90624 0.40275 0.50843 0.0
H437 H 0.9403 0.47102 0.48259 0.0
H438 H 0.07826 0.60837 0.50066 0.0
H439 H 0.02926 0.54218 0.47584 0.0
H440 H 0.03857 0.46248 0.66477 0.0
H441 H 0.98972 0.39434 0.64136 0.0
H442 H 0.02275 0.53683 0.67373 0.0
H443 H 0.05155 0.60714 0.65133 0.0
C444 C 0.41781 0.94223 0.91051 0.0
C445 C 0.45497 1.00556 0.9093 0.0
C446 C 0.54459 0.99524 0.91376 0.0
C447 C 0.50778 0.93173 0.91357 0.0
N448 N 0.41024 0.84466 0.90419 0.0
N449 N 0.55288 0.09146 0.89957 0.0
C450 C 0.44457 0.90519 0.90943 0.0
C451 C 0.51811 0.03159 0.90743 0.0
N452 N 0.35733 0.91761 0.91517 0.0
N453 N 0.60421 0.0212 0.92312 0.0
H454 H 0.53475 0.11922 0.89459 0.0
H455 H 0.59871 0.11219 0.89395 0.0
H456 H 0.62546 0.99684 0.92987 0.0
H457 H 0.63156 0.06694 0.92819 0.0
H458 H 0.3286 0.87248 0.92147 0.0
H459 H 0.33626 0.94321 0.91529 0.0
H460 H 0.36466 0.82304 0.89744 0.0
H461 H 0.42844 0.81648 0.90336 0.0
C462 C 0.58583 0.54663 0.4718 0.0
C463 C 0.5481 0.57218 0.47107 0.0
C464 C 0.45911 0.47191 0.46558 0.0
C465 C 0.49686 0.44631 0.4661 0.0
N466 N 0.59387 0.4569 0.47839 0.0
N467 N 0.44941 0.55997 0.47641 0.0
C468 C 0.55962 0.48303 0.4719 0.0
C469 C 0.48479 0.53489 0.47088 0.0
N470 N 0.64669 0.58312 0.47037 0.0
N471 N 0.399 0.43626 0.4584 0.0
H472 H 0.46696 0.60581 0.48088 0.0
H473 H 0.40318 0.53544 0.48015 0.0
H474 H 0.37862 0.39033 0.45318 0.0
H475 H 0.36936 0.45227 0.4549 0.0
H476 H 0.67662 0.56757 0.46663 0.0
H477 H 0.66764 0.62974 0.47021 0.0
H478 H 0.63855 0.48048 0.48736 0.0
H479 H 0.57624 0.41059 0.47815 0.0
C480 C 0.02167 0.48847 0.78558 0.0
C481 C 0.04814 0.47809 0.81939 0.0
C482 C 0.98588 0.50446 0.86126 0.0
C483 C 0.96955 0.52535 0.82656 0.0
N484 N 0.99919 0.56141 0.75938 0.0
N485 N 0.06046 0.48467 0.89134 0.0
C486 C 0.99517 0.52423 0.78969 0.0
C487 C 0.03164 0.48829 0.85805 0.0
N488 N 0.01897 0.46232 0.74975 0.0
N489 N 0.95706 0.49816 0.89659 0.0
H490 H 0.09505 0.47493 0.88995 0.0
H491 H 0.0537 0.49681 0.91971 0.0
H492 H 0.92241 0.50764 0.89957 0.0
H493 H 0.96385 0.47823 0.92174 0.0
H494 H 0.99472 0.46588 0.72585 0.0
H495 H 0.03482 0.43252 0.74568 0.0
H496 H 0.02292 0.56523 0.73349 0.0
H497 H 0.98901 0.59542 0.7635 0.0
C498 C 0.47954 0.06675 0.14997 0.0
C499 C 0.45207 1.00328 0.14855 0.0
C500 C 0.5511 0.01174 0.14299 0.0
C501 C 0.57898 0.07522 0.14568 0.0
N502 N 0.57086 0.16239 0.16004 0.0
N503 N 0.46205 0.91545 0.1545 0.0
C504 C 0.54345 0.10249 0.15185 0.0
C505 C 0.4881 0.9759 0.14854 0.0
N506 N 0.44481 0.09298 0.14751 0.0
N507 N 0.58401 0.98564 0.13236 0.0
H508 H 0.41617 0.88791 0.15938 0.0
H509 H 0.48645 0.8936 0.1588 0.0
H510 H 0.62972 0.0099 0.1261 0.0
H511 H 0.565 0.94025 0.12586 0.0
H512 H 0.46212 0.13891 0.14461 0.0
H513 H 0.39817 0.06852 0.14573 0.0
H514 H 0.54786 0.18415 0.16863 0.0
H515 H 0.61734 0.18964 0.16146 0.0
C516 C 0.18891 0.27108 0.04217 0.0
C517 C 0.173 0.29793 0.07326 0.0
C518 C 0.10298 0.30463 1.02645 0.0
C519 C 0.13183 0.2948 0.99386 0.0
N520 N 0.20695 0.27165 0.97123 0.0
N521 N 0.11975 0.34999 0.09144 0.0
C522 C 0.17512 0.2773 1.00173 0.0
C523 C 0.13004 0.316 0.06495 0.0
N524 N 0.2185 0.24099 0.05122 0.0
N525 N 0.05193 0.30707 1.01989 0.0
H526 H 0.14302 0.36559 0.11818 0.0
H527 H 0.09299 0.36863 0.08462 0.0
H528 H 0.03202 0.29941 0.99159 0.0
H529 H 0.0267 0.31024 0.04306 0.0
H530 H 0.22729 0.21696 1.02996 0.0
H531 H 0.22809 0.23483 0.08066 0.0
H532 H 0.24382 0.26594 0.97598 0.0
H533 H 0.19947 0.27707 0.94131 0.0
C534 C 0.83018 0.08902 0.35152 0.0
C535 C 0.85743 0.12738 0.31832 0.0
C536 C 0.93811 0.19532 0.36345 0.0
C537 C 0.90076 0.16739 0.39691 0.0
N538 N 0.80603 0.08603 0.42123 0.0
N539 N 0.93884 0.22246 0.29444 0.0
C540 C 0.84602 0.11267 0.39089 0.0
C541 C 0.9129 0.18134 0.32434 0.0
N542 N 0.78677 0.03095 0.34522 0.0
N543 N 0.99674 0.23768 0.36936 0.0
H544 H 0.92119 0.21652 0.26582 0.0
H545 H 0.9755 0.26511 0.29919 0.0
H546 H 0.01572 0.24839 0.39796 0.0
H547 H 0.02714 0.25679 0.34592 0.0
H548 H 0.76779 0.99987 0.36835 0.0
H549 H 0.77486 0.01299 0.31645 0.0
H550 H 0.7628 0.05021 0.41669 0.0
H551 H 0.81364 0.10223 0.45023 0.0
C552 C 0.72911 0.9161 0.70521 0.0
C553 C 0.71835 0.87529 0.737 0.0
C554 C 0.72786 0.80928 0.68856 0.0
C555 C 0.71964 0.84082 0.65665 0.0
N556 N 0.7087 0.92494 0.63575 0.0
N557 N 0.70316 0.77811 0.7571 0.0
C558 C 0.7209 0.89546 0.66499 0.0
C559 C 0.71824 0.82114 0.72852 0.0
N560 N 0.74476 0.97388 0.71368 0.0
N561 N 0.7421 0.76606 0.68037 0.0
H562 H 0.69291 0.78295 0.78626 0.0
H563 H 0.69581 0.73536 0.75083 0.0
H564 H 0.74934 0.75695 0.65115 0.0
H565 H 0.7529 0.74447 0.70257 0.0
H566 H 0.75732 0.0068 0.69171 0.0
H567 H 0.75138 0.98978 0.74304 0.0
H568 H 0.70261 0.96123 0.64162 0.0
H569 H 0.69973 0.9104 0.60627 0.0
C570 C 0.81202 0.73327 0.04546 0.0
C571 C 0.8426 0.72539 0.07822 0.0
C572 C 0.92261 0.74082 0.03182 0.0
C573 C 0.88346 0.72935 0.99889 0.0
N574 N 0.78815 0.71496 0.97522 0.0
N575 N 0.92858 0.71904 0.10137 0.0
C576 C 0.82802 0.72742 1.00568 0.0
C577 C 0.89934 0.73024 0.07141 0.0
N578 N 0.76641 0.74449 0.05257 0.0
N579 N 0.9813 0.7585 1.02486 0.0
H580 H 0.91252 0.70859 0.1304 0.0
H581 H 0.96654 0.71535 0.09653 0.0
H582 H 0.99862 0.76603 0.99587 0.0
H583 H 0.01317 0.77143 0.04763 0.0
H584 H 0.74535 0.75529 1.02998 0.0
H585 H 0.75449 0.74933 0.08156 0.0
H586 H 0.74417 0.70524 0.97973 0.0
H587 H 0.79779 0.71109 0.94573 0.0
C588 C 0.10667 0.87759 0.38081 0.0
C589 C 0.11931 0.83493 0.39852 0.0
C590 C 0.18876 0.84974 0.34405 0.0
C591 C 0.17253 0.88853 0.3244 0.0
N592 N 0.11093 0.93433 0.32127 0.0
N593 N 0.16048 0.76932 0.39158 0.0
C594 C 0.12983 0.90094 0.34196 0.0
C595 C 0.15675 0.81767 0.3785 0.0
N596 N 0.07351 0.89649 0.40143 0.0
N597 N 0.23647 0.8452 0.33086 0.0
H598 H 0.13668 0.74345 0.41608 0.0
H599 H 0.18211 0.75099 0.37565 0.0
H600 H 0.26245 0.86915 0.30646 0.0
H601 H 0.25422 0.82264 0.34662 0.0
H602 H 0.06768 0.93187 0.39221 0.0
H603 H 0.05484 0.8791 0.42935 0.0
H604 H 0.07568 0.94025 0.33045 0.0
H605 H 0.1279 0.9528 0.29323 0.0
C606 C 0.31288 0.19699 0.72479 0.0
C607 C 0.3027 0.13807 0.73146 0.0
C608 C 0.30209 0.12357 0.65882 0.0
C609 C 0.31221 0.18247 0.65214 0.0
N610 N 0.30375 0.2647 0.67847 0.0
N611 N 0.2644 0.03911 0.70444 0.0
C612 C 0.30894 0.2152 0.68514 0.0
C613 C 0.28865 0.09918 0.69819 0.0
N614 N 0.33157 0.23762 0.75517 0.0
N615 N 0.3107 0.09272 0.62899 0.0
H616 H 0.25372 0.02038 0.73307 0.0
H617 H 0.24909 0.00799 0.68121 0.0
H618 H 0.32392 0.10962 0.60029 0.0
H619 H 0.3101 0.05245 0.63386 0.0
H620 H 0.3461 0.28289 0.75064 0.0
H621 H 0.33744 0.22744 0.78427 0.0
H622 H 0.29655 0.28771 0.70137 0.0
H623 H 0.29998 0.27832 0.64965 0.0
C624 C 0.22555 0.25446 0.4057 0.0
C625 C 0.2576 0.22463 0.3961 0.0
C626 C 0.23289 0.22507 0.32467 0.0
C627 C 0.21291 0.26599 0.33373 0.0
N628 N 0.15969 0.29041 0.38186 0.0
N629 N 0.2675 0.15871 0.35033 0.0
C630 C 0.19859 0.27031 0.37414 0.0
C631 C 0.25252 0.2019 0.35667 0.0
N632 N 0.22404 0.27123 0.44414 0.0
N633 N 0.23466 0.20977 0.28591 0.0
H634 H 0.28075 0.14111 0.37389 0.0
H635 H 0.26202 0.13698 0.32315 0.0
H636 H 0.21213 0.21805 0.26304 0.0
H637 H 0.25664 0.18732 0.2766 0.0
H638 H 0.20909 0.30067 0.45183 0.0
H639 H 0.23832 0.25617 0.46843 0.0
H640 H 0.14351 0.29068 0.4103 0.0
H641 H 0.139 0.30081 0.35871 0.0
C642 C 0.04369 0.26349 0.65144 0.0
C643 C 0.98057 0.22944 0.65685 0.0
C644 C 0.99537 0.23225 0.72998 0.0
C645 C 0.05795 0.2719 0.72477 0.0
N646 N 0.14255 0.30259 0.68143 0.0
N647 N 0.9006 0.16033 0.69909 0.0
C648 C 0.08224 0.27951 0.68564 0.0
C649 C 0.95822 0.20631 0.69554 0.0
N650 N 0.06707 0.28394 0.61436 0.0
N651 N 0.97022 0.2225 0.76708 0.0
H652 H 0.8733 0.14089 0.67403 0.0
H653 H 0.88248 0.13778 0.72587 0.0
H654 H 0.99496 0.2379 0.79336 0.0
H655 H 0.92408 0.2009 0.77166 0.0
H656 H 0.11178 0.31616 0.60964 0.0
H657 H 0.04166 0.26987 0.58825 0.0
H658 H 0.16295 0.30496 0.65413 0.0
H659 H 0.17107 0.31328 0.70615 0.0
C660 C 0.77292 0.02999 0.98696 0.0
C661 C 0.74403 0.96789 0.99634 0.0
C662 C 0.76677 0.99312 0.06803 0.0
C663 C 0.7893 0.05476 0.05886 0.0
N664 N 0.84134 0.1314 1.00942 0.0
N665 N 0.73689 0.8934 0.0429 0.0
C666 C 0.80182 0.07282 1.01812 0.0
C667 C 0.74907 0.95069 0.03605 0.0
N668 N 0.76949 0.04877 0.94931 0.0
N669 N 0.75987 0.97417 0.10681 0.0
H670 H 0.72538 0.86245 1.01971 0.0
H671 H 0.74426 0.87866 0.07027 0.0
H672 H 0.77981 1.00297 0.13085 0.0
H673 H 0.73445 0.9293 0.1151 0.0
H674 H 0.78268 0.0932 0.94262 0.0
H675 H 0.75088 0.02003 0.92507 0.0
H676 H 0.85605 0.14678 0.98049 0.0
H677 H 0.86445 0.1628 0.03188 0.0
C678 C 0.81166 0.79171 0.40669 0.0
C679 C 0.77493 0.81689 0.39822 0.0
C680 C 0.79065 0.81229 0.32604 0.0
C681 C 0.81337 0.77342 0.33458 0.0
N682 N 0.87256 0.75182 0.37986 0.0
N683 N 0.75616 0.87774 0.35284 0.0
C684 C 0.83369 0.77264 0.37409 0.0
C685 C 0.7746 0.83703 0.35865 0.0
N686 N 0.82255 0.78317 0.44541 0.0
N687 N 0.78121 0.82261 0.28737 0.0
H688 H 0.74412 0.89509 0.377 0.0
H689 H 0.75742 0.8975 0.32538 0.0
H690 H 0.79843 0.81064 0.26326 0.0
H691 H 0.7574 0.84385 0.27919 0.0
H692 H 0.84225 0.75803 0.45386 0.0
H693 H 0.81267 0.8027 0.46924 0.0
H694 H 0.89221 0.75248 0.40727 0.0
H695 H 0.88883 0.73847 0.35576 0.0
C696 C 0.95414 0.67144 0.69695 0.0
C697 C 0.95334 0.7059 0.73005 0.0
C698 C 0.03891 0.79422 0.69859 0.0
C699 C 0.0333 0.75992 0.66383 0.0
N700 N 0.97063 0.6694 0.62644 0.0
N701 N 0.9909 0.80422 0.7585 0.0
C702 C 0.98524 0.70034 0.66167 0.0
C703 C 0.99454 0.76877 0.72977 0.0
N704 N 0.93062 0.61091 0.7 0.0
N705 N 0.08711 0.85052 0.70209 0.0
H706 H 0.95863 0.78715 0.78098 0.0
H707 H 0.01644 0.85082 0.75795 0.0
H708 H 0.11808 0.87065 0.679 0.0
H709 H 0.09755 0.87563 0.72828 0.0
H710 H 0.93924 0.5868 0.67871 0.0
H711 H 0.91104 0.58621 0.72572 0.0
H712 H 0.93303 0.62684 0.62357 0.0
H713 H 0.99116 0.68826 0.59933 0.0
C714 C 0.17618 0.9395 1.02352 0.0
C715 C 0.19909 0.96703 0.06119 0.0
C716 C 0.23802 0.06485 1.02902 0.0
C717 C 0.23442 0.03741 0.99153 0.0
N718 N 0.18529 0.94894 0.95099 0.0
N719 N 0.23219 0.05483 0.10173 0.0
C720 C 0.19683 0.97471 0.98793 0.0
C721 C 0.2223 0.02952 0.0647 0.0
N722 N 0.13754 0.87922 1.02239 0.0
N723 N 0.26054 0.12529 1.02993 0.0
H724 H 0.21586 0.02894 0.12755 0.0
H725 H 0.25455 0.10074 0.10695 0.0
H726 H 0.27216 0.15048 1.00355 0.0
H727 H 0.26441 0.1495 0.05568 0.0
H728 H 0.11641 0.85568 0.99649 0.0
H729 H 0.12341 0.85396 0.04871 0.0
H730 H 0.16407 0.90292 0.94623 0.0
H731 H 0.19728 0.97452 0.92488 0.0
C732 C 0.39856 0.54258 0.36231 0.0
C733 C 0.36073 0.56757 0.3578 0.0
C734 C 0.4405 0.65372 0.32307 0.0
C735 C 0.4815 0.63552 0.33521 0.0
N736 N 0.4988 0.55738 0.36054 0.0
N737 N 0.3476 0.65073 0.33819 0.0
C738 C 0.46015 0.57774 0.35226 0.0
C739 C 0.38183 0.62387 0.33885 0.0
N740 N 0.37537 0.48481 0.37533 0.0
N741 N 0.45932 0.70162 0.29794 0.0
H742 H 0.30525 0.63166 0.35115 0.0
H743 H 0.36336 0.69434 0.32807 0.0
H744 H 0.50285 0.72382 0.28649 0.0
H745 H 0.43066 0.71502 0.28559 0.0
H746 H 0.39864 0.46144 0.37412 0.0
H747 H 0.33112 0.45836 0.38469 0.0
H748 H 0.48924 0.52313 0.38089 0.0
H749 H 0.54003 0.57397 0.34647 0.0
C750 C 0.7143 0.33099 0.6858 0.0
C751 C 0.77078 0.33323 0.68629 0.0
C752 C 0.81838 0.43602 0.66215 0.0
C753 C 0.76689 0.43857 0.67231 0.0
N754 N 0.66263 0.38836 0.68805 0.0
N755 N 0.87938 0.3949 0.6802 0.0
C756 C 0.71317 0.38528 0.68107 0.0
C757 C 0.82336 0.38684 0.67515 0.0
N758 N 0.66235 0.27754 0.69023 0.0
N759 N 0.8653 0.48371 0.64419 0.0
H760 H 0.88843 0.36288 0.69233 0.0
H761 H 0.88843 0.36288 0.69233 0.0
H762 H 0.86147 0.51972 0.63343 0.0
H763 H 0.90517 0.48435 0.63771 0.0
H764 H 0.61992 0.27261 0.68686 0.0
H765 H 0.66157 0.23699 0.69405 0.0
H766 H 0.62313 0.35316 0.69952 0.0
H767 H 0.66187 0.4281 0.68337 0.0
C768 C 0.45226 0.88899 1.01538 0.0
C769 C 0.38987 0.85203 1.01 0.0
C770 C 0.398 0.76261 1.02019 0.0
C771 C 0.45828 0.80007 0.03283 0.0
N772 N 0.54339 0.89894 0.04367 0.0
N773 N 0.31001 0.75691 0.98855 0.0
C774 C 0.48589 0.86334 1.03037 0.0
C775 C 0.36512 0.78958 1.00598 0.0
N776 N 0.47975 0.94749 1.00383 0.0
N777 N 0.37151 0.70172 1.02355 0.0
H778 H 0.28684 0.77755 0.97737 0.0
H779 H 0.29026 0.71155 0.98178 0.0
H780 H 0.39446 0.68021 0.03327 0.0
H781 H 0.32599 0.67249 1.01883 0.0
H782 H 0.52607 0.97376 1.00117 0.0
H783 H 0.45644 0.96654 0.99071 0.0
H784 H 0.56383 0.94533 0.04574 0.0
H785 H 0.56958 0.88203 0.05537 0.0
C786 C 0.60872 0.4603 0.37056 0.0
C787 C 0.66215 0.45915 0.37921 0.0
C788 C 0.61695 0.35728 0.35278 0.0
C789 C 0.56229 0.35697 0.3469 0.0
N790 N 0.50544 0.40819 0.34986 0.0
N791 N 0.71159 0.40094 0.38788 0.0
C792 C 0.55798 0.4083 0.35589 0.0
C793 C 0.66453 0.40589 0.37329 0.0
N794 N 0.60395 0.50985 0.37718 0.0
N795 N 0.62414 0.3118 0.33813 0.0
H796 H 0.74912 0.4361 0.40149 0.0
H797 H 0.71153 0.36048 0.38882 0.0
H798 H 0.58981 0.27382 0.32435 0.0
H799 H 0.66551 0.31373 0.33722 0.0
H800 H 0.63872 0.55041 0.38797 0.0
H801 H 0.63872 0.55041 0.38797 0.0
H802 H 0.50101 0.44552 0.35551 0.0
H803 H 0.46619 0.37054 0.34018 0.0
C804 C 0.30988 0.65484 0.71218 0.0
C805 C 0.25555 0.59854 0.7108 0.0
C806 C 0.20274 0.64639 0.73822 0.0
C807 C 0.25102 0.70259 0.72808 0.0
N808 N 0.35439 0.76342 0.71131 0.0
N809 N 0.14729 0.54627 0.71312 0.0
C810 C 0.30659 0.70778 0.71819 0.0
C811 C 0.20113 0.59503 0.72239 0.0
N812 N 0.36383 0.65775 0.70695 0.0
N813 N 0.15579 0.64254 0.75914 0.0
H814 H 0.14273 0.50803 0.69929 0.0
H815 H 0.10772 0.54764 0.71526 0.0
H816 H 0.15614 0.68066 0.76998 0.0
H817 H 0.12097 0.60159 0.76913 0.0
H818 H 0.40484 0.69689 0.71081 0.0
H819 H 0.36768 0.61997 0.70177 0.0
H820 H 0.39478 0.77109 0.69918 0.0
H821 H 0.35175 0.80195 0.71672 0.0
C822 C 0.56979 0.11938 0.04706 0.0
C823 C 0.53871 0.14995 0.05597 0.0
C824 C 0.6321 0.246 0.05192 0.0
C825 C 0.66017 0.21549 0.03547 0.0
N826 N 0.65506 0.12325 1.01457 0.0
N827 N 0.54309 0.23782 0.08314 0.0
C828 C 0.62906 0.15216 0.03253 0.0
C829 C 0.57129 0.21209 0.06406 0.0
N830 N 0.54424 0.05979 0.05501 0.0
N831 N 0.66232 0.30722 0.05359 0.0
H832 H 0.49848 0.2125 0.09221 0.0
H833 H 0.56443 0.28205 0.09288 0.0
H834 H 0.70688 0.33351 0.04483 0.0
H835 H 0.64267 0.33248 0.06146 0.0
H836 H 0.56883 0.03777 0.05476 0.0
H837 H 0.50229 0.03534 0.06834 0.0
H838 H 0.63165 0.07756 1.00815 0.0
H839 H 0.69855 0.14548 1.00322 0.0
C840 C 0.27128 0.67537 0.19256 0.0
C841 C 0.21824 0.67633 0.18213 0.0
C842 C 0.15954 0.56668 0.18922 0.0
C843 C 0.2113 0.5664 0.20347 0.0
N844 N 0.31616 0.62054 0.22165 0.0
N845 N 0.11084 0.62457 0.1746 0.0
C846 C 0.26717 0.62082 0.20591 0.0
C847 C 0.16206 0.62236 0.18153 0.0
N848 N 0.32584 0.72629 0.18852 0.0
N849 N 0.10829 0.51352 0.1821 0.0
H850 H 0.11109 0.66444 0.16851 0.0
H851 H 0.06793 0.58787 0.17799 0.0
H852 H 0.10466 0.47206 0.18807 0.0
H853 H 0.07144 0.51036 0.16691 0.0
H854 H 0.36657 0.72716 0.19088 0.0
H855 H 0.33065 0.76747 0.18008 0.0
H856 H 0.35589 0.65922 0.22912 0.0
H857 H 0.31631 0.58138 0.22936 0.0
C858 C 0.6096 0.24735 0.50993 0.0
C859 C 0.55798 0.19311 0.49804 0.0
C860 C 0.60902 0.1369 0.51541 0.0
C861 C 0.66145 0.19139 0.52554 0.0
N862 N 0.71597 0.29949 0.5253 0.0
N863 N 0.51147 0.08804 0.48282 0.0
C864 C 0.66298 0.24694 0.52066 0.0
C865 C 0.55857 0.13836 0.49885 0.0
N866 N 0.6073 0.29919 0.51175 0.0
N867 N 0.60683 0.08364 0.52273 0.0
H868 H 0.47295 0.08694 0.47181 0.0
H869 H 0.51253 0.04883 0.47758 0.0
H870 H 0.64358 0.08105 0.53348 0.0
H871 H 0.56776 0.04219 0.52052 0.0
H872 H 0.64067 0.33851 0.52477 0.0
H873 H 0.57002 0.30216 0.50288 0.0
H874 H 0.72176 0.34129 0.51782 0.0
H875 H 0.75598 0.30127 0.53338 0.0
C876 C 0.43141 0.54441 0.83505 0.0
C877 C 0.37747 0.52039 0.85792 0.0
C878 C 0.4389 0.57463 0.91526 0.0
C879 C 0.48396 0.61532 0.88939 0.0
N880 N 0.54045 0.60671 0.83587 0.0
N881 N 0.33234 0.51844 0.92218 0.0
C882 C 0.48608 0.59121 0.85192 0.0
C883 C 0.38181 0.53551 0.89912 0.0
N884 N 0.42995 0.52356 0.79737 0.0
N885 N 0.45157 0.57053 0.9543 0.0
H886 H 0.28893 0.4971 0.91069 0.0
H887 H 0.33569 0.53247 0.95181 0.0
H888 H 0.49524 0.59568 0.96544 0.0
H889 H 0.42007 0.53832 0.97356 0.0
H890 H 0.46584 0.54373 0.77762 0.0
H891 H 0.39179 0.48656 0.78569 0.0
H892 H 0.54605 0.58749 0.81012 0.0
H893 H 0.58002 0.63429 0.85153 0.0
C894 C 0.87907 0.472 0.22379 0.0
C895 C 0.82307 0.47007 0.22581 0.0
C896 C 0.77183 0.36631 0.20127 0.0
C897 C 0.8283 0.37014 0.19563 0.0
N898 N 0.93597 0.42673 0.19903 0.0
N899 N 0.71667 0.41843 0.21245 0.0
C900 C 0.88206 0.42301 0.20637 0.0
C901 C 0.76957 0.41799 0.21349 0.0
N902 N 0.92911 0.52034 0.23916 0.0
N903 N 0.7202 0.3127 0.19585 0.0
H904 H 0.71246 0.45454 0.22217 0.0
H905 H 0.67765 0.38488 0.19919 0.0
H906 H 0.71975 0.27391 0.18661 0.0
H907 H 0.67789 0.30502 0.20375 0.0
H908 H 0.9703 0.52244 0.24254 0.0
H909 H 0.92861 0.55749 0.251 0.0
H910 H 0.97708 0.46578 0.20236 0.0
H911 H 0.93958 0.39107 0.18756 0.0
C912 C 0.45494 0.86106 0.4998 0.0
C913 C 0.45732 0.80738 0.50321 0.0
C914 C 0.35285 0.75392 0.5266 0.0
C915 C 0.35209 0.80871 0.52615 0.0
N916 N 0.40373 0.9156 0.51676 0.0
N917 N 0.41132 0.70374 0.52315 0.0
C918 C 0.40347 0.86258 0.51381 0.0
C919 C 0.40697 0.75405 0.51753 0.0
N920 N 0.50143 0.91027 0.48229 0.0
N921 N 0.30133 0.70154 0.53499 0.0
H922 H 0.44925 0.70131 0.51557 0.0
H923 H 0.37914 0.6655 0.53782 0.0
H924 H 0.26121 0.6997 0.54253 0.0
H925 H 0.29665 0.6593 0.5316 0.0
H926 H 0.4995 0.94831 0.47426 0.0
H927 H 0.54077 0.9116 0.4732 0.0
H928 H 0.44207 0.95729 0.51334 0.0
H929 H 0.36612 0.91814 0.52522 0.0
C930 C 0.58484 0.43849 0.85891 0.0
C931 C 0.6411 0.45617 0.87786 0.0
C932 C 0.58628 0.38625 0.93146 0.0
C933 C 0.53735 0.35372 0.90545 0.0
N934 N 0.47613 0.37746 0.86377 0.0
N935 N 0.6934 0.44217 0.93406 0.0
C936 C 0.53176 0.38797 0.87427 0.0
C937 C 0.64144 0.42968 0.91512 0.0
N938 N 0.58248 0.46898 0.82612 0.0
N939 N 0.57797 0.38263 0.97173 0.0
H940 H 0.73562 0.4692 0.9217 0.0
H941 H 0.69336 0.42009 0.96034 0.0
H942 H 0.53506 0.35801 0.98392 0.0
H943 H 0.61228 0.4094 0.9917 0.0
H944 H 0.54436 0.45425 0.80834 0.0
H945 H 0.61965 0.50844 0.81615 0.0
H946 H 0.46843 0.40371 0.84354 0.0
H947 H 0.4381 0.34623 0.8793 0.0
loop_
_geom_bond_atom_site_label_1
_geom_bond_atom_site_label_2
_geom_bond_distance
_geom_bond_site_symmetry_2
_ccdc_geom_bond_type
Co0 O3 1.970 . S
Co0 N17 1.989 . S
Co0 O25 1.967 . S
Co0 O32 1.920 . S
Co1 O4 1.966 . S
Co1 N10 2.022 . S
Co1 N18 1.993 . S
Co1 O26 1.941 . S
C2 O3 1.258 . S
C2 O4 1.263 . S
O3 Co0 1.970 . S
O3 C2 1.258 . S
O4 Co1 1.966 . S
O4 C2 1.263 . S
C5 O6 1.235 . S
C5 O32 1.289 . S
O6 C5 1.235 . S
C7 C9 1.400 . S
C7 N10 1.351 . S
C7 C12 1.501 . S
C8 C9 1.387 . S
C8 N11 1.341 . S
C9 C7 1.400 . S
C9 C8 1.387 . S
N10 Co1 2.022 . S
N10 C7 1.351 . S
N10 N11 1.365 . S
N11 C8 1.341 . S
N11 N10 1.365 . S
N11 H31 0.862 . S
C12 C7 1.501 . S
C12 H13 0.961 . S
C12 H14 0.961 . S
C12 H15 0.960 . S
H13 C12 0.961 . S
H14 C12 0.961 . S
H15 C12 0.960 . S
C16 N17 1.342 . S
C16 C20 1.401 . S
C16 C21 1.499 . S
N17 Co0 1.989 . S
N17 C16 1.342 . S
N17 N18 1.388 . S
N18 Co1 1.993 . S
N18 N17 1.388 . S
N18 C19 1.346 . S
C19 N18 1.346 . S
C19 C20 1.396 . S
C19 C29 1.510 . S
C20 C16 1.401 . S
C20 C19 1.396 . S
C21 C16 1.499 . S
C21 H22 0.959 . S
C21 H23 0.960 . S
C21 H24 0.961 . S
H22 C21 0.959 . S
H23 C21 0.960 . S
H24 C21 0.961 . S
O25 Co0 1.967 . S
O25 C33 1.258 . S
O26 Co1 1.941 . S
O26 C33 1.266 . S
H27 C29 0.959 . S
H28 C29 0.961 . S
C29 C19 1.510 . S
C29 H27 0.959 . S
C29 H28 0.961 . S
C29 H30 0.960 . S
H30 C29 0.960 . S
H31 N11 0.862 . S
O32 Co0 1.920 . S
O32 C5 1.289 . S
C33 O25 1.258 . S
C33 O26 1.266 . S
Co34 O37 1.970 . S
Co34 N51 1.989 . S
Co34 O59 1.967 . S
Co34 O66 1.920 . S
Co35 O38 1.966 . S
Co35 N44 2.022 . S
Co35 N52 1.993 . S
Co35 O60 1.941 . S
C36 O37 1.258 . S
C36 O38 1.263 . S
O37 Co34 1.970 . S
O37 C36 1.258 . S
O38 Co35 1.966 . S
O38 C36 1.263 . S
C39 O40 1.235 . S
C39 O66 1.289 . S
O40 C39 1.235 . S
C41 C43 1.400 . S
C41 N44 1.351 . S
C41 C46 1.501 . S
C42 C43 1.387 . S
C42 N45 1.341 . S
C43 C41 1.400 . S
C43 C42 1.387 . S
N44 Co35 2.022 . S
N44 C41 1.351 . S
N44 N45 1.365 . S
N45 C42 1.341 . S
N45 N44 1.365 . S
N45 H65 0.862 . S
C46 C41 1.501 . S
C46 H47 0.961 . S
C46 H48 0.961 . S
C46 H49 0.960 . S
H47 C46 0.961 . S
H48 C46 0.961 . S
H49 C46 0.960 . S
C50 N51 1.342 . S
C50 C54 1.401 . S
C50 C55 1.499 . S
N51 Co34 1.989 . S
N51 C50 1.342 . S
N51 N52 1.388 . S
N52 Co35 1.993 . S
N52 N51 1.388 . S
N52 C53 1.346 . S
C53 N52 1.346 . S
C53 C54 1.396 . S
C53 C63 1.510 . S
C54 C50 1.401 . S
C54 C53 1.396 . S
C55 C50 1.499 . S
C55 H56 0.959 . S
C55 H57 0.960 . S
C55 H58 0.961 . S
H56 C55 0.959 . S
H57 C55 0.960 . S
H58 C55 0.961 . S
O59 Co34 1.967 . S
O59 C67 1.258 . S
O60 Co35 1.941 . S
O60 C67 1.266 . S
H61 C63 0.959 . S
H62 C63 0.961 . S
C63 C53 1.510 . S
C63 H61 0.959 . S
C63 H62 0.961 . S
C63 H64 0.960 . S
H64 C63 0.960 . S
H65 N45 0.862 . S
O66 Co34 1.920 . S
O66 C39 1.289 . S
C67 O59 1.258 . S
C67 O60 1.266 . S
Co68 O71 1.970 . S
Co68 N85 1.989 . S
Co68 O93 1.967 . S
Co68 O100 1.920 . S
Co69 O72 1.966 . S
Co69 N78 2.022 . S
Co69 N86 1.993 . S
Co69 O94 1.941 . S
C70 O71 1.258 . S
C70 O72 1.263 . S
O71 Co68 1.970 . S
O71 C70 1.258 . S
O72 Co69 1.966 . S
O72 C70 1.263 . S
C73 O74 1.235 . S
C73 O100 1.289 . S
O74 C73 1.235 . S
C75 C77 1.400 . S
C75 N78 1.351 . S
C75 C80 1.501 . S
C76 C77 1.387 . S
C76 N79 1.341 . S
C77 C75 1.400 . S
C77 C76 1.387 . S
N78 Co69 2.022 . S
N78 C75 1.351 . S
N78 N79 1.365 . S
N79 C76 1.341 . S
N79 N78 1.365 . S
N79 H99 0.862 . S
C80 C75 1.501 . S
C80 H81 0.961 . S
C80 H82 0.961 . S
C80 H83 0.960 . S
H81 C80 0.961 . S
H82 C80 0.961 . S
H83 C80 0.960 . S
C84 N85 1.342 . S
C84 C88 1.401 . S
C84 C89 1.499 . S
N85 Co68 1.989 . S
N85 C84 1.342 . S
N85 N86 1.388 . S
N86 Co69 1.993 . S
N86 N85 1.388 . S
N86 C87 1.346 . S
C87 N86 1.346 . S
C87 C88 1.396 . S
C87 C97 1.510 . S
C88 C84 1.401 . S
C88 C87 1.396 . S
C89 C84 1.499 . S
C89 H90 0.959 . S
C89 H91 0.960 . S
C89 H92 0.961 . S
H90 C89 0.959 . S
H91 C89 0.960 . S
H92 C89 0.961 . S
O93 Co68 1.967 . S
O93 C101 1.258 . S
O94 Co69 1.941 . S
O94 C101 1.266 . S
H95 C97 0.959 . S
H96 C97 0.961 . S
C97 C87 1.510 . S
C97 H95 0.959 . S
C97 H96 0.961 . S
C97 H98 0.960 . S
H98 C97 0.960 . S
H99 N79 0.862 . S
O100 Co68 1.920 . S
O100 C73 1.289 . S
C101 O93 1.258 . S
C101 O94 1.266 . S
Co102 O105 1.970 . S
Co102 N119 1.989 . S
Co102 O127 1.967 . S
Co102 O134 1.920 . S
Co103 O106 1.966 . S
Co103 N112 2.022 . S
Co103 N120 1.993 . S
Co103 O128 1.941 . S
C104 O105 1.258 . S
C104 O106 1.263 . S
O105 Co102 1.970 . S
O105 C104 1.258 . S
O106 Co103 1.966 . S
O106 C104 1.263 . S
C107 O108 1.235 . S
C107 O134 1.289 . S
O108 C107 1.235 . S
C109 C111 1.400 . S
C109 N112 1.351 . S
C109 C114 1.501 . S
C110 C111 1.387 . S
C110 N113 1.341 . S
C111 C109 1.400 . S
C111 C110 1.387 . S
N112 Co103 2.022 . S
N112 C109 1.351 . S
N112 N113 1.365 . S
N113 C110 1.341 . S
N113 N112 1.365 . S
N113 H133 0.862 . S
C114 C109 1.501 . S
C114 H115 0.961 . S
C114 H116 0.961 . S
C114 H117 0.960 . S
H115 C114 0.961 . S
H116 C114 0.961 . S
H117 C114 0.960 . S
C118 N119 1.342 . S
C118 C122 1.401 . S
C118 C123 1.499 . S
N119 Co102 1.989 . S
N119 C118 1.342 . S
N119 N120 1.388 . S
N120 Co103 1.993 . S
N120 N119 1.388 . S
N120 C121 1.346 . S
C121 N120 1.346 . S
C121 C122 1.396 . S
C121 C131 1.510 . S
C122 C118 1.401 . S
C122 C121 1.396 . S
C123 C118 1.499 . S
C123 H124 0.959 . S
C123 H125 0.960 . S
C123 H126 0.961 . S
H124 C123 0.959 . S
H125 C123 0.960 . S
H126 C123 0.961 . S
O127 Co102 1.967 . S
O127 C135 1.258 . S
O128 Co103 1.941 . S
O128 C135 1.266 . S
H129 C131 0.959 . S
H130 C131 0.961 . S
C131 C121 1.510 . S
C131 H129 0.959 . S
C131 H130 0.961 . S
C131 H132 0.960 . S
H132 C131 0.960 . S
H133 N113 0.862 . S
O134 Co102 1.920 . S
O134 C107 1.289 . S
C135 O127 1.258 . S
C135 O128 1.266 . S
Co136 O139 1.970 . S
Co136 N153 1.989 . S
Co136 O161 1.967 . S
Co136 O168 1.920 . S
Co137 O140 1.966 . S
Co137 N146 2.022 . S
Co137 N154 1.993 . S
Co137 O162 1.941 . S
C138 O139 1.258 . S
C138 O140 1.263 . S
O139 Co136 1.970 . S
O139 C138 1.258 . S
O140 Co137 1.966 . S
O140 C138 1.263 . S
C141 O142 1.235 . S
C141 O168 1.289 . S
O142 C141 1.235 . S
C143 C145 1.400 . S
C143 N146 1.351 . S
C143 C148 1.501 . S
C144 C145 1.387 . S
C144 N147 1.341 . S
C145 C143 1.400 . S
C145 C144 1.387 . S
N146 Co137 2.022 . S
N146 C143 1.351 . S
N146 N147 1.365 . S
N147 C144 1.341 . S
N147 N146 1.365 . S
N147 H167 0.862 . S
C148 C143 1.501 . S
C148 H149 0.961 . S
C148 H150 0.961 . S
C148 H151 0.960 . S
H149 C148 0.961 . S
H150 C148 0.961 . S
H151 C148 0.960 . S
C152 N153 1.342 . S
C152 C156 1.401 . S
C152 C157 1.499 . S
N153 Co136 1.989 . S
N153 C152 1.342 . S
N153 N154 1.388 . S
N154 Co137 1.993 . S
N154 N153 1.388 . S
N154 C155 1.346 . S
C155 N154 1.346 . S
C155 C156 1.396 . S
C155 C165 1.510 . S
C156 C152 1.401 . S
C156 C155 1.396 . S
C157 C152 1.499 . S
C157 H158 0.959 . S
C157 H159 0.960 . S
C157 H160 0.961 . S
H158 C157 0.959 . S
H159 C157 0.960 . S
H160 C157 0.961 . S
O161 Co136 1.967 . S
O161 C169 1.258 . S
O162 Co137 1.941 . S
O162 C169 1.266 . S
H163 C165 0.959 . S
H164 C165 0.961 . S
C165 C155 1.510 . S
C165 H163 0.959 . S
C165 H164 0.961 . S
C165 H166 0.960 . S
H166 C165 0.960 . S
H167 N147 0.862 . S
O168 Co136 1.920 . S
O168 C141 1.289 . S
C169 O161 1.258 . S
C169 O162 1.266 . S
Co170 O173 1.970 . S
Co170 N187 1.989 . S
Co170 O195 1.967 . S
Co170 O202 1.920 . S
Co171 O174 1.966 . S
Co171 N180 2.022 . S
Co171 N188 1.993 . S
Co171 O196 1.941 . S
C172 O173 1.258 . S
C172 O174 1.263 . S
O173 Co170 1.970 . S
O173 C172 1.258 . S
O174 Co171 1.966 . S
O174 C172 1.263 . S
C175 O176 1.235 . S
C175 O202 1.289 . S
O176 C175 1.235 . S
C177 C179 1.400 . S
C177 N180 1.351 . S
C177 C182 1.501 . S
C178 C179 1.387 . S
C178 N181 1.341 . S
C179 C177 1.400 . S
C179 C178 1.387 . S
N180 Co171 2.022 . S
N180 C177 1.351 . S
N180 N181 1.365 . S
N181 C178 1.341 . S
N181 N180 1.365 . S
N181 H201 0.862 . S
C182 C177 1.501 . S
C182 H183 0.961 . S
C182 H184 0.961 . S
C182 H185 0.960 . S
H183 C182 0.961 . S
H184 C182 0.961 . S
H185 C182 0.960 . S
C186 N187 1.342 . S
C186 C190 1.401 . S
C186 C191 1.499 . S
N187 Co170 1.989 . S
N187 C186 1.342 . S
N187 N188 1.388 . S
N188 Co171 1.993 . S
N188 N187 1.388 . S
N188 C189 1.346 . S
C189 N188 1.346 . S
C189 C190 1.396 . S
C189 C199 1.510 . S
C190 C186 1.401 . S
C190 C189 1.396 . S
C191 C186 1.499 . S
C191 H192 0.959 . S
C191 H193 0.960 . S
C191 H194 0.961 . S
H192 C191 0.959 . S
H193 C191 0.960 . S
H194 C191 0.961 . S
O195 Co170 1.967 . S
O195 C203 1.258 . S
O196 Co171 1.941 . S
O196 C203 1.266 . S
H197 C199 0.959 . S
H198 C199 0.961 . S
C199 C189 1.510 . S
C199 H197 0.959 . S
C199 H198 0.961 . S
C199 H200 0.960 . S
H200 C199 0.960 . S
H201 N181 0.862 . S
O202 Co170 1.920 . S
O202 C175 1.289 . S
C203 O195 1.258 . S
C203 O196 1.266 . S
Co204 O207 1.970 . S
Co204 N221 1.989 . S
Co204 O229 1.967 . S
Co204 O236 1.920 . S
Co205 O208 1.966 . S
Co205 N214 2.022 . S
Co205 N222 1.993 . S
Co205 O230 1.941 . S
C206 O207 1.258 . S
C206 O208 1.263 . S
O207 Co204 1.970 . S
O207 C206 1.258 . S
O208 Co205 1.966 . S
O208 C206 1.263 . S
C209 O210 1.235 . S
C209 O236 1.289 . S
O210 C209 1.235 . S
C211 C213 1.400 . S
C211 N214 1.351 . S
C211 C216 1.501 . S
C212 C213 1.387 . S
C212 N215 1.341 . S
C213 C211 1.400 . S
C213 C212 1.387 . S
N214 Co205 2.022 . S
N214 C211 1.351 . S
N214 N215 1.365 . S
N215 C212 1.341 . S
N215 N214 1.365 . S
N215 H235 0.862 . S
C216 C211 1.501 . S
C216 H217 0.961 . S
C216 H218 0.961 . S
C216 H219 0.960 . S
H217 C216 0.961 . S
H218 C216 0.961 . S
H219 C216 0.960 . S
C220 N221 1.342 . S
C220 C224 1.401 . S
C220 C225 1.499 . S
N221 Co204 1.989 . S
N221 C220 1.342 . S
N221 N222 1.388 . S
N222 Co205 1.993 . S
N222 N221 1.388 . S
N222 C223 1.346 . S
C223 N222 1.346 . S
C223 C224 1.396 . S
C223 C233 1.510 . S
C224 C220 1.401 . S
C224 C223 1.396 . S
C225 C220 1.499 . S
C225 H226 0.959 . S
C225 H227 0.960 . S
C225 H228 0.961 . S
H226 C225 0.959 . S
H227 C225 0.960 . S
H228 C225 0.961 . S
O229 Co204 1.967 . S
O229 C237 1.258 . S
O230 Co205 1.941 . S
O230 C237 1.266 . S
H231 C233 0.959 . S
H232 C233 0.961 . S
C233 C223 1.510 . S
C233 H231 0.959 . S
C233 H232 0.961 . S
C233 H234 0.960 . S
H234 C233 0.960 . S
H235 N215 0.862 . S
O236 Co204 1.920 . S
O236 C209 1.289 . S
C237 O229 1.258 . S
C237 O230 1.266 . S
Co238 O241 1.970 . S
Co238 N255 1.989 . S
Co238 O263 1.967 . S
Co238 O270 1.920 . S
Co239 O242 1.966 . S
Co239 N248 2.022 . S
Co239 N256 1.993 . S
Co239 O264 1.941 . S
C240 O241 1.258 . S
C240 O242 1.263 . S
O241 Co238 1.970 . S
O241 C240 1.258 . S
O242 Co239 1.966 . S
O242 C240 1.263 . S
C243 O244 1.235 . S
C243 O270 1.289 . S
O244 C243 1.235 . S
C245 C247 1.400 . S
C245 N248 1.351 . S
C245 C250 1.501 . S
C246 C247 1.387 . S
C246 N249 1.341 . S
C247 C245 1.400 . S
C247 C246 1.387 . S
N248 Co239 2.022 . S
N248 C245 1.351 . S
N248 N249 1.365 . S
N249 C246 1.341 . S
N249 N248 1.365 . S
N249 H269 0.862 . S
C250 C245 1.501 . S
C250 H251 0.961 . S
C250 H252 0.961 . S
C250 H253 0.960 . S
H251 C250 0.961 . S
H252 C250 0.961 . S
H253 C250 0.960 . S
C254 N255 1.342 . S
C254 C258 1.401 . S
C254 C259 1.499 . S
N255 Co238 1.989 . S
N255 C254 1.342 . S
N255 N256 1.388 . S
N256 Co239 1.993 . S
N256 N255 1.388 . S
N256 C257 1.346 . S
C257 N256 1.346 . S
C257 C258 1.396 . S
C257 C267 1.510 . S
C258 C254 1.401 . S
C258 C257 1.396 . S
C259 C254 1.499 . S
C259 H260 0.959 . S
C259 H261 0.960 . S
C259 H262 0.961 . S
H260 C259 0.959 . S
H261 C259 0.960 . S
H262 C259 0.961 . S
O263 Co238 1.967 . S
O263 C271 1.258 . S
O264 Co239 1.941 . S
O264 C271 1.266 . S
H265 C267 0.959 . S
H266 C267 0.961 . S
C267 C257 1.510 . S
C267 H265 0.959 . S
C267 H266 0.961 . S
C267 H268 0.960 . S
H268 C267 0.960 . S
H269 N249 0.862 . S
O270 Co238 1.920 . S
O270 C243 1.289 . S
C271 O263 1.258 . S
C271 O264 1.266 . S
Co272 O275 1.970 . S
Co272 N289 1.989 . S
Co272 O297 1.967 . S
Co272 O304 1.920 . S
Co273 O276 1.966 . S
Co273 N282 2.022 . S
Co273 N290 1.993 . S
Co273 O298 1.941 . S
C274 O275 1.258 . S
C274 O276 1.263 . S
O275 Co272 1.970 . S
O275 C274 1.258 . S
O276 Co273 1.966 . S
O276 C274 1.263 . S
C277 O278 1.235 . S
C277 O304 1.289 . S
O278 C277 1.235 . S
C279 C281 1.400 . S
C279 N282 1.351 . S
C279 C284 1.501 . S
C280 C281 1.387 . S
C280 N283 1.341 . S
C281 C279 1.400 . S
C281 C280 1.387 . S
N282 Co273 2.022 . S
N282 C279 1.351 . S
N282 N283 1.365 . S
N283 C280 1.341 . S
N283 N282 1.365 . S
N283 H303 0.862 . S
C284 C279 1.501 . S
C284 H285 0.961 . S
C284 H286 0.961 . S
C284 H287 0.960 . S
H285 C284 0.961 . S
H286 C284 0.961 . S
H287 C284 0.960 . S
C288 N289 1.342 . S
C288 C292 1.401 . S
C288 C293 1.499 . S
N289 Co272 1.989 . S
N289 C288 1.342 . S
N289 N290 1.388 . S
N290 Co273 1.993 . S
N290 N289 1.388 . S
N290 C291 1.346 . S
C291 N290 1.346 . S
C291 C292 1.396 . S
C291 C301 1.510 . S
C292 C288 1.401 . S
C292 C291 1.396 . S
C293 C288 1.499 . S
C293 H294 0.959 . S
C293 H295 0.960 . S
C293 H296 0.961 . S
H294 C293 0.959 . S
H295 C293 0.960 . S
H296 C293 0.961 . S
O297 Co272 1.967 . S
O297 C305 1.258 . S
O298 Co273 1.941 . S
O298 C305 1.266 . S
H299 C301 0.959 . S
H300 C301 0.961 . S
C301 C291 1.510 . S
C301 H299 0.959 . S
C301 H300 0.961 . S
C301 H302 0.960 . S
H302 C301 0.960 . S
H303 N283 0.862 . S
O304 Co272 1.920 . S
O304 C277 1.289 . S
C305 O297 1.258 . S
C305 O298 1.266 . S
Co306 O309 1.970 . S
Co306 N323 1.989 . S
Co306 O331 1.967 . S
Co306 O338 1.920 . S
Co307 O310 1.966 . S
Co307 N316 2.022 . S
Co307 N324 1.993 . S
Co307 O332 1.941 . S
C308 O309 1.258 . S
C308 O310 1.263 . S
O309 Co306 1.970 . S
O309 C308 1.258 . S
O310 Co307 1.966 . S
O310 C308 1.263 . S
C311 O312 1.235 . S
C311 O338 1.289 . S
O312 C311 1.235 . S
C313 C315 1.400 . S
C313 N316 1.351 . S
C313 C318 1.501 . S
C314 C315 1.387 . S
C314 N317 1.341 . S
C315 C313 1.400 . S
C315 C314 1.387 . S
N316 Co307 2.022 . S
N316 C313 1.351 . S
N316 N317 1.365 . S
N317 C314 1.341 . S
N317 N316 1.365 . S
N317 H337 0.862 . S
C318 C313 1.501 . S
C318 H319 0.961 . S
C318 H320 0.961 . S
C318 H321 0.960 . S
H319 C318 0.961 . S
H320 C318 0.961 . S
H321 C318 0.960 . S
C322 N323 1.342 . S
C322 C326 1.401 . S
C322 C327 1.499 . S
N323 Co306 1.989 . S
N323 C322 1.342 . S
N323 N324 1.388 . S
N324 Co307 1.993 . S
N324 N323 1.388 . S
N324 C325 1.346 . S
C325 N324 1.346 . S
C325 C326 1.396 . S
C325 C335 1.510 . S
C326 C322 1.401 . S
C326 C325 1.396 . S
C327 C322 1.499 . S
C327 H328 0.959 . S
C327 H329 0.960 . S
C327 H330 0.961 . S
H328 C327 0.959 . S
H329 C327 0.960 . S
H330 C327 0.961 . S
O331 Co306 1.967 . S
O331 C339 1.258 . S
O332 Co307 1.941 . S
O332 C339 1.266 . S
H333 C335 0.959 . S
H334 C335 0.961 . S
C335 C325 1.510 . S
C335 H333 0.959 . S
C335 H334 0.961 . S
C335 H336 0.960 . S
H336 C335 0.960 . S
H337 N317 0.862 . S
O338 Co306 1.920 . S
O338 C311 1.289 . S
C339 O331 1.258 . S
C339 O332 1.266 . S
Co340 O343 1.970 . S
Co340 N357 1.989 . S
Co340 O365 1.967 . S
Co340 O372 1.920 . S
Co341 O344 1.966 . S
Co341 N350 2.022 . S
Co341 N358 1.993 . S
Co341 O366 1.941 . S
C342 O343 1.258 . S
C342 O344 1.263 . S
O343 Co340 1.970 . S
O343 C342 1.258 . S
O344 Co341 1.966 . S
O344 C342 1.263 . S
C345 O346 1.235 . S
C345 O372 1.289 . S
O346 C345 1.235 . S
C347 C349 1.400 . S
C347 N350 1.351 . S
C347 C352 1.501 . S
C348 C349 1.387 . S
C348 N351 1.341 . S
C349 C347 1.400 . S
C349 C348 1.387 . S
N350 Co341 2.022 . S
N350 C347 1.351 . S
N350 N351 1.365 . S
N351 C348 1.341 . S
N351 N350 1.365 . S
N351 H371 0.862 . S
C352 C347 1.501 . S
C352 H353 0.961 . S
C352 H354 0.961 . S
C352 H355 0.960 . S
H353 C352 0.961 . S
H354 C352 0.961 . S
H355 C352 0.960 . S
C356 N357 1.342 . S
C356 C360 1.401 . S
C356 C361 1.499 . S
N357 Co340 1.989 . S
N357 C356 1.342 . S
N357 N358 1.388 . S
N358 Co341 1.993 . S
N358 N357 1.388 . S
N358 C359 1.346 . S
C359 N358 1.346 . S
C359 C360 1.396 . S
C359 C369 1.510 . S
C360 C356 1.401 . S
C360 C359 1.396 . S
C361 C356 1.499 . S
C361 H362 0.959 . S
C361 H363 0.960 . S
C361 H364 0.961 . S
H362 C361 0.959 . S
H363 C361 0.960 . S
H364 C361 0.961 . S
O365 Co340 1.967 . S
O365 C373 1.258 . S
O366 Co341 1.941 . S
O366 C373 1.266 . S
H367 C369 0.959 . S
H368 C369 0.961 . S
C369 C359 1.510 . S
C369 H367 0.959 . S
C369 H368 0.961 . S
C369 H370 0.960 . S
H370 C369 0.960 . S
H371 N351 0.862 . S
O372 Co340 1.920 . S
O372 C345 1.289 . S
C373 O365 1.258 . S
C373 O366 1.266 . S
Co374 O377 1.970 . S
Co374 N391 1.989 . S
Co374 O399 1.967 . S
Co374 O406 1.920 . S
Co375 O378 1.966 . S
Co375 N384 2.022 . S
Co375 N392 1.993 . S
Co375 O400 1.941 . S
C376 O377 1.258 . S
C376 O378 1.263 . S
O377 Co374 1.970 . S
O377 C376 1.258 . S
O378 Co375 1.966 . S
O378 C376 1.263 . S
C379 O380 1.235 . S
C379 O406 1.289 . S
O380 C379 1.235 . S
C381 C383 1.400 . S
C381 N384 1.351 . S
C381 C386 1.501 . S
C382 C383 1.387 . S
C382 N385 1.341 . S
C383 C381 1.400 . S
C383 C382 1.387 . S
N384 Co375 2.022 . S
N384 C381 1.351 . S
N384 N385 1.365 . S
N385 C382 1.341 . S
N385 N384 1.365 . S
N385 H405 0.862 . S
C386 C381 1.501 . S
C386 H387 0.961 . S
C386 H388 0.961 . S
C386 H389 0.960 . S
H387 C386 0.961 . S
H388 C386 0.961 . S
H389 C386 0.960 . S
C390 N391 1.342 . S
C390 C394 1.401 . S
C390 C395 1.499 . S
N391 Co374 1.989 . S
N391 C390 1.342 . S
N391 N392 1.388 . S
N392 Co375 1.993 . S
N392 N391 1.388 . S
N392 C393 1.346 . S
C393 N392 1.346 . S
C393 C394 1.396 . S
C393 C403 1.510 . S
C394 C390 1.401 . S
C394 C393 1.396 . S
C395 C390 1.499 . S
C395 H396 0.959 . S
C395 H397 0.960 . S
C395 H398 0.961 . S
H396 C395 0.959 . S
H397 C395 0.960 . S
H398 C395 0.961 . S
O399 Co374 1.967 . S
O399 C407 1.258 . S
O400 Co375 1.941 . S
O400 C407 1.266 . S
H401 C403 0.959 . S
H402 C403 0.961 . S
C403 C393 1.510 . S
C403 H401 0.959 . S
C403 H402 0.961 . S
C403 H404 0.960 . S
H404 C403 0.960 . S
H405 N385 0.862 . S
O406 Co374 1.920 . S
O406 C379 1.289 . S
C407 O399 1.258 . S
C407 O400 1.266 . S
C408 C409 1.363 . S
C408 C414 1.379 . S
C408 N416 1.356 . S
C409 C408 1.363 . S
C409 C415 1.363 . S
C410 C411 1.363 . S
C410 C415 1.379 . S
C410 N417 1.356 . S
C411 C410 1.363 . S
C411 C414 1.363 . S
N412 C414 1.356 . S
N412 H424 0.984 . S
N412 H425 0.985 . S
N413 C415 1.356 . S
N413 H418 0.984 . S
N413 H419 0.985 . S
C414 C408 1.379 . S
C414 C411 1.363 . S
C414 N412 1.356 . S
C415 C409 1.363 . S
C415 C410 1.379 . S
C415 N413 1.356 . S
N416 C408 1.356 . S
N416 H422 0.984 . S
N416 H423 0.984 . S
N417 C410 1.356 . S
N417 H420 0.984 . S
N417 H421 0.985 . S
H418 N413 0.984 . S
H419 N413 0.985 . S
H420 N417 0.984 . S
H421 N417 0.985 . S
H422 N416 0.984 . S
H423 N416 0.984 . S
H424 N412 0.984 . S
H425 N412 0.985 . S
C426 C427 1.363 . S
C426 C432 1.379 . S
C426 N434 1.356 . S
C427 C426 1.363 . S
C427 C433 1.363 1_655 S
C428 C429 1.363 . S
C428 C433 1.379 . S
C428 N435 1.356 . S
C429 C428 1.363 . S
C429 C432 1.363 1_455 S
N430 C432 1.356 . S
N430 H442 0.984 . S
N430 H443 0.985 . S
N431 C433 1.356 . S
N431 H436 0.984 . S
N431 H437 0.985 . S
C432 C426 1.379 . S
C432 C429 1.363 1_655 S
C432 N430 1.356 . S
C433 C427 1.363 1_455 S
C433 C428 1.379 . S
C433 N431 1.356 . S
N434 C426 1.356 . S
N434 H440 0.984 . S
N434 H441 0.984 . S
N435 C428 1.356 . S
N435 H438 0.984 . S
N435 H439 0.985 . S
H436 N431 0.984 . S
H437 N431 0.985 . S
H438 N435 0.984 . S
H439 N435 0.985 . S
H440 N434 0.984 . S
H441 N434 0.984 . S
H442 N430 0.984 . S
H443 N430 0.985 . S
C444 C445 1.363 1_565 S
C444 C450 1.379 . S
C444 N452 1.356 . S
C445 C444 1.363 1_545 S
C445 C451 1.363 . S
C446 C447 1.363 1_545 S
C446 C451 1.379 . S
C446 N453 1.356 . S
C447 C446 1.363 1_565 S
C447 C450 1.363 . S
N448 C450 1.356 . S
N448 H460 0.984 . S
N448 H461 0.985 . S
N449 C451 1.356 . S
N449 H454 0.984 . S
N449 H455 0.985 . S
C450 C444 1.379 . S
C450 C447 1.363 . S
C450 N448 1.356 . S
C451 C445 1.363 . S
C451 C446 1.379 . S
C451 N449 1.356 . S
N452 C444 1.356 . S
N452 H458 0.984 . S
N452 H459 0.984 . S
N453 C446 1.356 . S
N453 H456 0.984 . S
N453 H457 0.985 . S
H454 N449 0.984 . S
H455 N449 0.985 . S
H456 N453 0.984 . S
H457 N453 0.985 . S
H458 N452 0.984 . S
H459 N452 0.984 . S
H460 N448 0.984 . S
H461 N448 0.985 . S
C462 C463 1.363 . S
C462 C468 1.379 . S
C462 N470 1.356 . S
C463 C462 1.363 . S
C463 C469 1.363 . S
C464 C465 1.363 . S
C464 C469 1.379 . S
C464 N471 1.356 . S
C465 C464 1.363 . S
C465 C468 1.363 . S
N466 C468 1.356 . S
N466 H478 0.984 . S
N466 H479 0.985 . S
N467 C469 1.356 . S
N467 H472 0.984 . S
N467 H473 0.985 . S
C468 C462 1.379 . S
C468 C465 1.363 . S
C468 N466 1.356 . S
C469 C463 1.363 . S
C469 C464 1.379 . S
C469 N467 1.356 . S
N470 C462 1.356 . S
N470 H476 0.984 . S
N470 H477 0.984 . S
N471 C464 1.356 . S
N471 H474 0.984 . S
N471 H475 0.985 . S
H472 N467 0.984 . S
H473 N467 0.985 . S
H474 N471 0.984 . S
H475 N471 0.985 . S
H476 N470 0.984 . S
H477 N470 0.984 . S
H478 N466 0.984 . S
H479 N466 0.985 . S
C480 C481 1.363 . S
C480 C486 1.379 . S
C480 N488 1.356 . S
C481 C480 1.363 . S
C481 C487 1.363 1_455 S
C482 C483 1.363 . S
C482 C487 1.379 . S
C482 N489 1.356 . S
C483 C482 1.363 . S
C483 C486 1.363 1_655 S
N484 C486 1.356 . S
N484 H496 0.984 . S
N484 H497 0.985 . S
N485 C487 1.356 . S
N485 H490 0.984 . S
N485 H491 0.985 . S
C486 C480 1.379 . S
C486 C483 1.363 1_455 S
C486 N484 1.356 . S
C487 C481 1.363 1_655 S
C487 C482 1.379 . S
C487 N485 1.356 . S
N488 C480 1.356 . S
N488 H494 0.984 . S
N488 H495 0.984 . S
N489 C482 1.356 . S
N489 H492 0.984 . S
N489 H493 0.985 . S
H490 N485 0.984 . S
H491 N485 0.985 . S
H492 N489 0.984 . S
H493 N489 0.985 . S
H494 N488 0.984 . S
H495 N488 0.984 . S
H496 N484 0.984 . S
H497 N484 0.985 . S
C498 C499 1.363 1_545 S
C498 C504 1.379 . S
C498 N506 1.356 . S
C499 C498 1.363 1_565 S
C499 C505 1.363 . S
C500 C501 1.363 1_565 S
C500 C505 1.379 . S
C500 N507 1.356 . S
C501 C500 1.363 1_545 S
C501 C504 1.363 . S
N502 C504 1.356 . S
N502 H514 0.984 . S
N502 H515 0.985 . S
N503 C505 1.356 . S
N503 H508 0.984 . S
N503 H509 0.985 . S
C504 C498 1.379 . S
C504 C501 1.363 . S
C504 N502 1.356 . S
C505 C499 1.363 . S
C505 C500 1.379 . S
C505 N503 1.356 . S
N506 C498 1.356 . S
N506 H512 0.984 . S
N506 H513 0.984 . S
N507 C500 1.356 . S
N507 H510 0.984 . S
N507 H511 0.985 . S
H508 N503 0.984 . S
H509 N503 0.985 . S
H510 N507 0.984 . S
H511 N507 0.985 . S
H512 N506 0.984 . S
H513 N506 0.984 . S
H514 N502 0.984 . S
H515 N502 0.985 . S
C516 C517 1.363 . S
C516 C522 1.379 1_554 S
C516 N524 1.356 . S
C517 C516 1.363 . S
C517 C523 1.363 . S
C518 C519 1.363 . S
C518 C523 1.379 1_556 S
C518 N525 1.356 . S
C519 C518 1.363 . S
C519 C522 1.363 . S
N520 C522 1.356 . S
N520 H532 0.984 . S
N520 H533 0.985 . S
N521 C523 1.356 . S
N521 H526 0.984 . S
N521 H527 0.985 . S
C522 C516 1.379 1_556 S
C522 C519 1.363 . S
C522 N520 1.356 . S
C523 C517 1.363 . S
C523 C518 1.379 1_554 S
C523 N521 1.356 . S
N524 C516 1.356 . S
N524 H530 0.984 . S
N524 H531 0.984 . S
N525 C518 1.356 . S
N525 H528 0.984 . S
N525 H529 0.985 . S
H526 N521 0.984 . S
H527 N521 0.985 . S
H528 N525 0.984 . S
H529 N525 0.985 . S
H530 N524 0.984 . S
H531 N524 0.984 . S
H532 N520 0.984 . S
H533 N520 0.985 . S
C534 C535 1.363 . S
C534 C540 1.379 . S
C534 N542 1.356 . S
C535 C534 1.363 . S
C535 C541 1.363 . S
C536 C537 1.363 . S
C536 C541 1.379 . S
C536 N543 1.356 . S
C537 C536 1.363 . S
C537 C540 1.363 . S
N538 C540 1.356 . S
N538 H550 0.984 . S
N538 H551 0.985 . S
N539 C541 1.356 . S
N539 H544 0.984 . S
N539 H545 0.985 . S
C540 C534 1.379 . S
C540 C537 1.363 . S
C540 N538 1.356 . S
C541 C535 1.363 . S
C541 C536 1.379 . S
C541 N539 1.356 . S
N542 C534 1.356 . S
N542 H548 0.984 . S
N542 H549 0.984 . S
N543 C536 1.356 . S
N543 H546 0.984 . S
N543 H547 0.985 . S
H544 N539 0.984 . S
H545 N539 0.985 . S
H546 N543 0.984 . S
H547 N543 0.985 . S
H548 N542 0.984 . S
H549 N542 0.984 . S
H550 N538 0.984 . S
H551 N538 0.985 . S
C552 C553 1.363 . S
C552 C558 1.379 . S
C552 N560 1.356 . S
C553 C552 1.363 . S
C553 C559 1.363 . S
C554 C555 1.363 . S
C554 C559 1.379 . S
C554 N561 1.356 . S
C555 C554 1.363 . S
C555 C558 1.363 . S
N556 C558 1.356 . S
N556 H568 0.984 . S
N556 H569 0.985 . S
N557 C559 1.356 . S
N557 H562 0.984 . S
N557 H563 0.985 . S
C558 C552 1.379 . S
C558 C555 1.363 . S
C558 N556 1.356 . S
C559 C553 1.363 . S
C559 C554 1.379 . S
C559 N557 1.356 . S
N560 C552 1.356 . S
N560 H566 0.984 . S
N560 H567 0.984 . S
N561 C554 1.356 . S
N561 H564 0.984 . S
N561 H565 0.985 . S
H562 N557 0.984 . S
H563 N557 0.985 . S
H564 N561 0.984 . S
H565 N561 0.985 . S
H566 N560 0.984 . S
H567 N560 0.984 . S
H568 N556 0.984 . S
H569 N556 0.985 . S
C570 C571 1.363 . S
C570 C576 1.379 1_554 S
C570 N578 1.356 . S
C571 C570 1.363 . S
C571 C577 1.363 . S
C572 C573 1.363 . S
C572 C577 1.379 1_556 S
C572 N579 1.356 . S
C573 C572 1.363 . S
C573 C576 1.363 . S
N574 C576 1.356 . S
N574 H586 0.984 . S
N574 H587 0.985 . S
N575 C577 1.356 . S
N575 H580 0.984 . S
N575 H581 0.985 . S
C576 C570 1.379 1_556 S
C576 C573 1.363 . S
C576 N574 1.356 . S
C577 C571 1.363 . S
C577 C572 1.379 1_554 S
C577 N575 1.356 . S
N578 C570 1.356 . S
N578 H584 0.984 . S
N578 H585 0.984 . S
N579 C572 1.356 . S
N579 H582 0.984 . S
N579 H583 0.985 . S
H580 N575 0.984 . S
H581 N575 0.985 . S
H582 N579 0.984 . S
H583 N579 0.985 . S
H584 N578 0.984 . S
H585 N578 0.984 . S
H586 N574 0.984 . S
H587 N574 0.985 . S
C588 C589 1.363 . S
C588 C594 1.379 . S
C588 N596 1.356 . S
C589 C588 1.363 . S
C589 C595 1.363 . S
C590 C591 1.363 . S
C590 C595 1.379 . S
C590 N597 1.356 . S
C591 C590 1.363 . S
C591 C594 1.363 . S
N592 C594 1.356 . S
N592 H604 0.984 . S
N592 H605 0.985 . S
N593 C595 1.356 . S
N593 H598 0.984 . S
N593 H599 0.985 . S
C594 C588 1.379 . S
C594 C591 1.363 . S
C594 N592 1.356 . S
C595 C589 1.363 . S
C595 C590 1.379 . S
C595 N593 1.356 . S
N596 C588 1.356 . S
N596 H602 0.984 . S
N596 H603 0.984 . S
N597 C590 1.356 . S
N597 H600 0.984 . S
N597 H601 0.985 . S
H598 N593 0.984 . S
H599 N593 0.985 . S
H600 N597 0.984 . S
H601 N597 0.985 . S
H602 N596 0.984 . S
H603 N596 0.984 . S
H604 N592 0.984 . S
H605 N592 0.985 . S
C606 C607 1.363 . S
C606 C612 1.379 . S
C606 N614 1.356 . S
C607 C606 1.363 . S
C607 C613 1.363 . S
C608 C609 1.363 . S
C608 C613 1.379 . S
C608 N615 1.356 . S
C609 C608 1.363 . S
C609 C612 1.363 . S
N610 C612 1.356 . S
N610 H622 0.984 . S
N610 H623 0.985 . S
N611 C613 1.356 . S
N611 H616 0.984 . S
N611 H617 0.985 . S
C612 C606 1.379 . S
C612 C609 1.363 . S
C612 N610 1.356 . S
C613 C607 1.363 . S
C613 C608 1.379 . S
C613 N611 1.356 . S
N614 C606 1.356 . S
N614 H620 0.984 . S
N614 H621 0.984 . S
N615 C608 1.356 . S
N615 H618 0.984 . S
N615 H619 0.985 . S
H616 N611 0.984 . S
H617 N611 0.985 . S
H618 N615 0.984 . S
H619 N615 0.985 . S
H620 N614 0.984 . S
H621 N614 0.984 . S
H622 N610 0.984 . S
H623 N610 0.985 . S
C624 C625 1.363 . S
C624 C630 1.379 . S
C624 N632 1.356 . S
C625 C624 1.363 . S
C625 C631 1.363 . S
C626 C627 1.363 . S
C626 C631 1.379 . S
C626 N633 1.356 . S
C627 C626 1.363 . S
C627 C630 1.363 . S
N628 C630 1.356 . S
N628 H640 0.984 . S
N628 H641 0.985 . S
N629 C631 1.356 . S
N629 H634 0.984 . S
N629 H635 0.985 . S
C630 C624 1.379 . S
C630 C627 1.363 . S
C630 N628 1.356 . S
C631 C625 1.363 . S
C631 C626 1.379 . S
C631 N629 1.356 . S
N632 C624 1.356 . S
N632 H638 0.984 . S
N632 H639 0.984 . S
N633 C626 1.356 . S
N633 H636 0.984 . S
N633 H637 0.985 . S
H634 N629 0.984 . S
H635 N629 0.985 . S
H636 N633 0.984 . S
H637 N633 0.985 . S
H638 N632 0.984 . S
H639 N632 0.984 . S
H640 N628 0.984 . S
H641 N628 0.985 . S
C642 C643 1.363 1_455 S
C642 C648 1.379 . S
C642 N650 1.356 . S
C643 C642 1.363 1_655 S
C643 C649 1.363 . S
C644 C645 1.363 1_655 S
C644 C649 1.379 . S
C644 N651 1.356 . S
C645 C644 1.363 1_455 S
C645 C648 1.363 . S
N646 C648 1.356 . S
N646 H658 0.984 . S
N646 H659 0.985 . S
N647 C649 1.356 . S
N647 H652 0.984 . S
N647 H653 0.985 . S
C648 C642 1.379 . S
C648 C645 1.363 . S
C648 N646 1.356 . S
C649 C643 1.363 . S
C649 C644 1.379 . S
C649 N647 1.356 . S
N650 C642 1.356 . S
N650 H656 0.984 . S
N650 H657 0.994 . S
N651 C644 1.356 . S
N651 H654 0.994 . S
N651 H655 0.985 . S
H652 N647 0.984 . S
H653 N647 0.985 . S
H654 N651 0.994 . S
H655 N651 0.985 . S
H656 N650 0.984 . S
H657 N650 0.994 . S
H658 N646 0.984 . S
H659 N646 0.985 . S
C660 C661 1.363 1_545 S
C660 C666 1.379 1_556 S
C660 N668 1.356 . S
C661 C660 1.363 1_565 S
C661 C667 1.362 . S
C662 C663 1.363 1_565 S
C662 C667 1.379 1_554 S
C662 N669 1.356 . S
C663 C662 1.363 1_545 S
C663 C666 1.362 . S
N664 C666 1.356 . S
N664 H676 0.984 1_554 S
N664 H677 0.985 . S
N665 C667 1.356 . S
N665 H670 0.984 . S
N665 H671 0.985 1_556 S
C666 C660 1.379 1_554 S
C666 C663 1.362 . S
C666 N664 1.356 . S
C667 C661 1.362 . S
C667 C662 1.379 1_556 S
C667 N665 1.356 . S
N668 C660 1.356 . S
N668 H674 0.984 . S
N668 H675 0.984 . S
N669 C662 1.356 . S
N669 H672 0.984 . S
N669 H673 0.985 . S
H670 N665 0.984 . S
H671 N665 0.985 1_554 S
H672 N669 0.984 . S
H673 N669 0.985 . S
H674 N668 0.984 . S
H675 N668 0.984 . S
H676 N664 0.984 1_556 S
H677 N664 0.985 . S
C678 C679 1.363 . S
C678 C684 1.379 . S
C678 N686 1.356 . S
C679 C678 1.363 . S
C679 C685 1.363 . S
C680 C681 1.363 . S
C680 C685 1.379 . S
C680 N687 1.356 . S
C681 C680 1.363 . S
C681 C684 1.363 . S
N682 C684 1.356 . S
N682 H694 0.984 . S
N682 H695 0.985 . S
N683 C685 1.356 . S
N683 H688 0.984 . S
N683 H689 0.985 . S
C684 C678 1.379 . S
C684 C681 1.363 . S
C684 N682 1.356 . S
C685 C679 1.363 . S
C685 C680 1.379 . S
C685 N683 1.356 . S
N686 C678 1.356 . S
N686 H692 0.984 . S
N686 H693 0.984 . S
N687 C680 1.356 . S
N687 H690 0.984 . S
N687 H691 0.985 . S
H688 N683 0.984 . S
H689 N683 0.985 . S
H690 N687 0.984 . S
H691 N687 0.985 . S
H692 N686 0.984 . S
H693 N686 0.984 . S
H694 N682 0.984 . S
H695 N682 0.985 . S
C696 C697 1.363 . S
C696 C702 1.379 1_655 S
C696 N704 1.356 . S
C697 C696 1.363 . S
C697 C703 1.363 . S
C698 C699 1.363 . S
C698 C703 1.379 1_455 S
C698 N705 1.356 . S
C699 C698 1.363 . S
C699 C702 1.363 . S
N700 C702 1.356 . S
N700 H712 0.984 . S
N700 H713 0.985 . S
N701 C703 1.356 . S
N701 H706 0.984 . S
N701 H707 0.985 . S
C702 C696 1.379 1_455 S
C702 C699 1.363 . S
C702 N700 1.356 . S
C703 C697 1.363 . S
C703 C698 1.379 1_655 S
C703 N701 1.356 . S
N704 C696 1.356 . S
N704 H710 0.984 . S
N704 H711 0.984 . S
N705 C698 1.356 . S
N705 H708 0.984 . S
N705 H709 0.985 . S
H706 N701 0.984 . S
H707 N701 0.985 . S
H708 N705 0.984 . S
H709 N705 0.985 . S
H710 N704 0.984 . S
H711 N704 0.984 . S
H712 N700 0.984 . S
H713 N700 0.985 . S
C714 C715 1.367 . S
C714 C720 1.375 1_554 S
C714 N722 1.357 . S
C715 C714 1.367 . S
C715 C721 1.363 1_565 S
C716 C717 1.367 . S
C716 C721 1.375 1_556 S
C716 N723 1.357 . S
C717 C716 1.367 . S
C717 C720 1.363 1_545 S
N718 C720 1.356 . S
N718 H730 0.984 . S
N718 H731 0.985 . S
N719 C721 1.356 . S
N719 H724 0.984 . S
N719 H725 0.985 . S
C720 C714 1.375 1_556 S
C720 C717 1.363 1_565 S
C720 N718 1.356 . S
C721 C715 1.363 1_545 S
C721 C716 1.375 1_554 S
C721 N719 1.356 . S
N722 C714 1.357 . S
N722 H728 0.984 1_554 S
N722 H729 0.984 . S
N723 C716 1.357 . S
N723 H726 0.984 . S
N723 H727 0.985 1_556 S
H724 N719 0.984 . S
H725 N719 0.985 . S
H726 N723 0.984 . S
H727 N723 0.985 1_554 S
H728 N722 0.984 1_556 S
H729 N722 0.984 . S
H730 N718 0.984 . S
H731 N718 0.985 . S
C732 C733 1.363 . S
C732 C738 1.379 . S
C732 N740 1.356 . S
C733 C732 1.363 . S
C733 C739 1.363 . S
C734 C735 1.363 . S
C734 C739 1.379 . S
C734 N741 1.356 . S
C735 C734 1.363 . S
C735 C738 1.363 . S
N736 C738 1.356 . S
N736 H748 0.984 . S
N736 H749 0.985 . S
N737 C739 1.356 . S
N737 H742 0.984 . S
N737 H743 0.985 . S
C738 C732 1.379 . S
C738 C735 1.363 . S
C738 N736 1.356 . S
C739 C733 1.363 . S
C739 C734 1.379 . S
C739 N737 1.356 . S
N740 C732 1.356 . S
N740 H746 0.984 . S
N740 H747 0.984 . S
N741 C734 1.356 . S
N741 H744 0.984 . S
N741 H745 0.985 . S
H742 N737 0.984 . S
H743 N737 0.985 . S
H744 N741 0.984 . S
H745 N741 0.985 . S
H746 N740 0.984 . S
H747 N740 0.984 . S
H748 N736 0.984 . S
H749 N736 0.985 . S
C750 C751 1.363 . S
C750 C756 1.379 . S
C750 N758 1.356 . S
C751 C750 1.363 . S
C751 C757 1.363 . S
C752 C753 1.363 . S
C752 C757 1.379 . S
C752 N759 1.356 . S
C753 C752 1.363 . S
C753 C756 1.363 . S
N754 C756 1.356 . S
N754 H766 0.984 . S
N754 H767 0.985 . S
N755 C757 1.356 . S
N755 H760 0.984 . S
N755 H761 0.985 . S
C756 C750 1.379 . S
C756 C753 1.363 . S
C756 N754 1.356 . S
C757 C751 1.363 . S
C757 C752 1.379 . S
C757 N755 1.356 . S
N758 C750 1.356 . S
N758 H764 0.984 . S
N758 H765 0.984 . S
N759 C752 1.356 . S
N759 H762 0.984 . S
N759 H763 0.985 . S
H760 N755 0.984 . S
H761 N755 0.985 . S
H762 N759 0.984 . S
H763 N759 0.985 . S
H764 N758 0.984 . S
H765 N758 0.984 . S
H766 N754 0.984 . S
H767 N754 0.985 . S
C768 C769 1.363 . S
C768 C774 1.379 . S
C768 N776 1.356 . S
C769 C768 1.363 . S
C769 C775 1.363 1_556 S
C770 C771 1.363 . S
C770 C775 1.379 . S
C770 N777 1.356 . S
C771 C770 1.363 . S
C771 C774 1.363 1_554 S
N772 C774 1.356 . S
N772 H784 0.984 . S
N772 H785 0.985 . S
N773 C775 1.356 . S
N773 H778 0.984 . S
N773 H779 0.985 . S
C774 C768 1.379 . S
C774 C771 1.363 1_556 S
C774 N772 1.356 . S
C775 C769 1.363 1_554 S
C775 C770 1.379 . S
C775 N773 1.356 . S
N776 C768 1.356 . S
N776 H782 0.984 . S
N776 H783 0.984 . S
N777 C770 1.356 . S
N777 H780 0.984 . S
N777 H781 0.985 . S
H778 N773 0.984 . S
H779 N773 0.985 . S
H780 N777 0.984 . S
H781 N777 0.985 . S
H782 N776 0.984 . S
H783 N776 0.984 . S
H784 N772 0.984 . S
H785 N772 0.985 . S
C786 C787 1.363 . S
C786 C792 1.379 . S
C786 N794 1.356 . S
C787 C786 1.363 . S
C787 C793 1.363 . S
C788 C789 1.363 . S
C788 C793 1.379 . S
C788 N795 1.356 . S
C789 C788 1.363 . S
C789 C792 1.363 . S
N790 C792 1.356 . S
N790 H802 0.984 . S
N790 H803 0.985 . S
N791 C793 1.356 . S
N791 H796 0.984 . S
N791 H797 0.985 . S
C792 C786 1.379 . S
C792 C789 1.363 . S
C792 N790 1.356 . S
C793 C787 1.363 . S
C793 C788 1.379 . S
C793 N791 1.356 . S
N794 C786 1.356 . S
N794 H800 0.984 . S
N794 H801 0.984 . S
N795 C788 1.356 . S
N795 H798 0.984 . S
N795 H799 0.985 . S
H796 N791 0.984 . S
H797 N791 0.985 . S
H798 N795 0.984 . S
H799 N795 0.985 . S
H800 N794 0.984 . S
H801 N794 0.984 . S
H802 N790 0.984 . S
H803 N790 0.985 . S
C804 C805 1.363 . S
C804 C810 1.379 . S
C804 N812 1.356 . S
C805 C804 1.363 . S
C805 C811 1.363 . S
C806 C807 1.363 . S
C806 C811 1.379 . S
C806 N813 1.356 . S
C807 C806 1.363 . S
C807 C810 1.363 . S
N808 C810 1.356 . S
N808 H820 0.984 . S
N808 H821 0.985 . S
N809 C811 1.356 . S
N809 H814 0.984 . S
N809 H815 0.985 . S
C810 C804 1.379 . S
C810 C807 1.363 . S
C810 N808 1.356 . S
C811 C805 1.363 . S
C811 C806 1.379 . S
C811 N809 1.356 . S
N812 C804 1.356 . S
N812 H818 0.984 . S
N812 H819 0.984 . S
N813 C806 1.356 . S
N813 H816 0.984 . S
N813 H817 0.985 . S
H814 N809 0.984 . S
H815 N809 0.985 . S
H816 N813 0.984 . S
H817 N813 0.985 . S
H818 N812 0.984 . S
H819 N812 0.984 . S
H820 N808 0.984 . S
H821 N808 0.985 . S
C822 C823 1.363 . S
C822 C828 1.379 . S
C822 N830 1.356 . S
C823 C822 1.363 . S
C823 C829 1.363 1_554 S
C824 C825 1.363 . S
C824 C829 1.379 . S
C824 N831 1.356 . S
C825 C824 1.363 . S
C825 C828 1.363 1_556 S
N826 C828 1.356 . S
N826 H838 0.984 . S
N826 H839 0.985 . S
N827 C829 1.356 . S
N827 H832 0.984 . S
N827 H833 0.985 . S
C828 C822 1.379 . S
C828 C825 1.363 1_554 S
C828 N826 1.356 . S
C829 C823 1.363 1_556 S
C829 C824 1.379 . S
C829 N827 1.356 . S
N830 C822 1.356 . S
N830 H836 0.984 . S
N830 H837 0.984 . S
N831 C824 1.356 . S
N831 H834 0.984 . S
N831 H835 0.985 . S
H832 N827 0.984 . S
H833 N827 0.985 . S
H834 N831 0.984 . S
H835 N831 0.985 . S
H836 N830 0.984 . S
H837 N830 0.984 . S
H838 N826 0.984 . S
H839 N826 0.985 . S
C840 C841 1.363 . S
C840 C846 1.379 . S
C840 N848 1.356 . S
C841 C840 1.363 . S
C841 C847 1.363 . S
C842 C843 1.363 . S
C842 C847 1.379 . S
C842 N849 1.356 . S
C843 C842 1.363 . S
C843 C846 1.363 . S
N844 C846 1.356 . S
N844 H856 0.984 . S
N844 H857 0.985 . S
N845 C847 1.356 . S
N845 H850 0.984 . S
N845 H851 0.985 . S
C846 C840 1.379 . S
C846 C843 1.363 . S
C846 N844 1.356 . S
C847 C841 1.363 . S
C847 C842 1.379 . S
C847 N845 1.356 . S
N848 C840 1.356 . S
N848 H854 0.984 . S
N848 H855 0.984 . S
N849 C842 1.356 . S
N849 H852 0.984 . S
N849 H853 0.985 . S
H850 N845 0.984 . S
H851 N845 0.985 . S
H852 N849 0.984 . S
H853 N849 0.985 . S
H854 N848 0.984 . S
H855 N848 0.984 . S
H856 N844 0.984 . S
H857 N844 0.985 . S
C858 C859 1.363 . S
C858 C864 1.379 . S
C858 N866 1.356 . S
C859 C858 1.363 . S
C859 C865 1.363 . S
C860 C861 1.363 . S
C860 C865 1.379 . S
C860 N867 1.356 . S
C861 C860 1.363 . S
C861 C864 1.363 . S
N862 C864 1.356 . S
N862 H874 0.984 . S
N862 H875 0.985 . S
N863 C865 1.356 . S
N863 H868 0.984 . S
N863 H869 0.985 . S
C864 C858 1.379 . S
C864 C861 1.363 . S
C864 N862 1.356 . S
C865 C859 1.363 . S
C865 C860 1.379 . S
C865 N863 1.356 . S
N866 C858 1.356 . S
N866 H872 0.984 . S
N866 H873 0.984 . S
N867 C860 1.356 . S
N867 H870 0.984 . S
N867 H871 0.985 . S
H868 N863 0.984 . S
H869 N863 0.985 . S
H870 N867 0.984 . S
H871 N867 0.985 . S
H872 N866 0.984 . S
H873 N866 0.984 . S
H874 N862 0.984 . S
H875 N862 0.985 . S
C876 C877 1.363 . S
C876 C882 1.379 . S
C876 N884 1.356 . S
C877 C876 1.363 . S
C877 C883 1.363 . S
C878 C879 1.363 . S
C878 C883 1.379 . S
C878 N885 1.356 . S
C879 C878 1.363 . S
C879 C882 1.363 . S
N880 C882 1.356 . S
N880 H892 0.984 . S
N880 H893 0.985 . S
N881 C883 1.356 . S
N881 H886 0.984 . S
N881 H887 0.985 . S
C882 C876 1.379 . S
C882 C879 1.363 . S
C882 N880 1.356 . S
C883 C877 1.363 . S
C883 C878 1.379 . S
C883 N881 1.356 . S
N884 C876 1.356 . S
N884 H890 0.984 . S
N884 H891 0.984 . S
N885 C878 1.356 . S
N885 H888 0.984 . S
N885 H889 0.985 . S
H886 N881 0.984 . S
H887 N881 0.985 . S
H888 N885 0.984 . S
H889 N885 0.985 . S
H890 N884 0.984 . S
H891 N884 0.984 . S
H892 N880 0.984 . S
H893 N880 0.985 . S
C894 C895 1.363 . S
C894 C900 1.379 . S
C894 N902 1.356 . S
C895 C894 1.363 . S
C895 C901 1.363 . S
C896 C897 1.363 . S
C896 C901 1.379 . S
C896 N903 1.356 . S
C897 C896 1.363 . S
C897 C900 1.363 . S
N898 C900 1.356 . S
N898 H910 0.984 . S
N898 H911 0.985 . S
N899 C901 1.356 . S
N899 H904 0.984 . S
N899 H905 0.985 . S
C900 C894 1.379 . S
C900 C897 1.363 . S
C900 N898 1.356 . S
C901 C895 1.363 . S
C901 C896 1.379 . S
C901 N899 1.356 . S
N902 C894 1.356 . S
N902 H908 0.984 . S
N902 H909 0.984 . S
N903 C896 1.356 . S
N903 H906 0.984 . S
N903 H907 0.985 . S
H904 N899 0.984 . S
H905 N899 0.985 . S
H906 N903 0.984 . S
H907 N903 0.985 . S
H908 N902 0.984 . S
H909 N902 0.984 . S
H910 N898 0.984 . S
H911 N898 0.985 . S
C912 C913 1.363 . S
C912 C918 1.379 . S
C912 N920 1.356 . S
C913 C912 1.363 . S
C913 C919 1.363 . S
C914 C915 1.363 . S
C914 C919 1.379 . S
C914 N921 1.356 . S
C915 C914 1.363 . S
C915 C918 1.363 . S
N916 C918 1.356 . S
N916 H928 0.984 . S
N916 H929 0.985 . S
N917 C919 1.356 . S
N917 H922 0.984 . S
N917 H923 0.985 . S
C918 C912 1.379 . S
C918 C915 1.363 . S
C918 N916 1.356 . S
C919 C913 1.363 . S
C919 C914 1.379 . S
C919 N917 1.356 . S
N920 C912 1.356 . S
N920 H926 0.984 . S
N920 H927 0.984 . S
N921 C914 1.356 . S
N921 H924 0.984 . S
N921 H925 0.985 . S
H922 N917 0.984 . S
H923 N917 0.985 . S
H924 N921 0.984 . S
H925 N921 0.985 . S
H926 N920 0.984 . S
H927 N920 0.984 . S
H928 N916 0.984 . S
H929 N916 0.985 . S
C930 C931 1.363 . S
C930 C936 1.379 . S
C930 N938 1.356 . S
C931 C930 1.363 . S
C931 C937 1.363 . S
C932 C933 1.363 . S
C932 C937 1.379 . S
C932 N939 1.356 . S
C933 C932 1.363 . S
C933 C936 1.363 . S
N934 C936 1.356 . S
N934 H946 0.984 . S
N934 H947 0.985 . S
N935 C937 1.356 . S
N935 H940 0.984 . S
N935 H941 0.985 . S
C936 C930 1.379 . S
C936 C933 1.363 . S
C936 N934 1.356 . S
C937 C931 1.363 . S
C937 C932 1.379 . S
C937 N935 1.356 . S
N938 C930 1.356 . S
N938 H944 0.984 . S
N938 H945 0.984 . S
N939 C932 1.356 . S
N939 H942 0.984 . S
N939 H943 0.985 . S
H940 N935 0.984 . S
H941 N935 0.985 . S
H942 N939 0.984 . S
H943 N939 0.985 . S
H944 N938 0.984 . S
H945 N938 0.984 . S
H946 N934 0.984 . S
H947 N934 0.985 . S
C409 C135 1.537 . S
C411 C33 1.537 . S
C427 C67 1.537 . S
C429 C169 1.537 . S
C445 C203 1.537 . S
C447 C101 1.537 . S
C463 C237 1.537 . S
C465 C339 1.537 . S
C481 C373 1.537 . S
C483 C271 1.537 . S
C499 C305 1.537 . S
C501 C407 1.537 . S
C517 C9 1.795 . S
C519 C349 1.796 . S
C535 C383 1.796 . S
C537 C43 1.796 . S
C553 C77 1.796 . S
C555 C213 1.796 . S
C571 C111 1.795 . S
C573 C247 1.795 . S
C589 C145 1.795 . S
C591 C281 1.795 . S
C607 C179 1.795 . S
C609 C315 1.795 . S
C625 C308 2.032 . S
C627 C2 2.032 . S
C643 C36 2.032 . S
C645 C342 2.032 . S
C661 C70 2.032 . S
C663 C376 2.032 . S
C679 C206 2.032 . S
C681 C104 2.032 . S
C697 C240 2.032 . S
C699 C138 2.032 . S
C715 C274 2.032 . S
C717 C172 2.032 . S
C733 C5 1.526 . S
C735 C209 1.526 . S
C751 C39 1.526 . S
C753 C243 1.526 . S
C769 C277 1.526 1_556 S
C771 C73 1.526 1_554 S
C787 C107 1.526 . S
C789 C311 1.526 . S
C805 C345 1.526 . S
C807 C141 1.526 . S
C823 C175 1.526 1_554 S
C825 C379 1.526 1_556 S
C841 C292 1.323 . S
C843 C20 1.323 . S
C859 C326 1.323 . S
C861 C54 1.323 . S
C877 C360 1.323 . S
C879 C88 1.323 . S
C895 C122 1.323 . S
C897 C394 1.323 . S
C913 C224 1.323 . S
C915 C156 1.323 . S
C931 C258 1.323 . S
C933 C190 1.323 . S
