# Generated by pormake.
# Topology wns, (7)-cn, num edge types: 1
# Building blocks:
#     Node 0, Type 0, BuildingBlock: HICVOG_clean_sbu_0, # of connection points: 7
#     Node 1, Type 0, BuildingBlock: HICVOG_clean_sbu_0, # of connection points: 7
#     Node 2, Type 0, BuildingBlock: HICVOG_clean_sbu_0, # of connection points: 7
#     Node 3, Type 0, BuildingBlock: HICVOG_clean_sbu_0, # of connection points: 7
#     Node 4, Type 0, BuildingBlock: HICVOG_clean_sbu_0, # of connection points: 7
#     Node 5, Type 0, BuildingBlock: HICVOG_clean_sbu_0, # of connection points: 7
#     Node 6, Type 0, BuildingBlock: HICVOG_clean_sbu_0, # of connection points: 7
#     Node 7, Type 0, BuildingBlock: HICVOG_clean_sbu_0, # of connection points: 7
#     Node 8, Type 0, BuildingBlock: HICVOG_clean_sbu_0, # of connection points: 7
#     Node 9, Type 0, BuildingBlock: HICVOG_clean_sbu_0, # of connection points: 7
#     Node 10, Type 0, BuildingBlock: HICVOG_clean_sbu_0, # of connection points: 7
#     Node 11, Type 0, BuildingBlock: HICVOG_clean_sbu_0, # of connection points: 7
#     Edge 12, Type (0, 0), BuildingBlock: KIFKEQ_clean_linker_1, # of connection points: 2
#     Edge 13, Type (0, 0), BuildingBlock: KIFKEQ_clean_linker_1, # of connection points: 2
#     Edge 14, Type (0, 0), BuildingBlock: KIFKEQ_clean_linker_1, # of connection points: 2
#     Edge 15, Type (0, 0), BuildingBlock: KIFKEQ_clean_linker_1, # of connection points: 2
#     Edge 16, Type (0, 0), BuildingBlock: KIFKEQ_clean_linker_1, # of connection points: 2
#     Edge 17, Type (0, 0), BuildingBlock: KIFKEQ_clean_linker_1, # of connection points: 2
#     Edge 18, Type (0, 0), BuildingBlock: KIFKEQ_clean_linker_1, # of connection points: 2
#     Edge 19, Type (0, 0), BuildingBlock: KIFKEQ_clean_linker_1, # of connection points: 2
#     Edge 20, Type (0, 0), BuildingBlock: KIFKEQ_clean_linker_1, # of connection points: 2
#     Edge 21, Type (0, 0), BuildingBlock: KIFKEQ_clean_linker_1, # of connection points: 2
#     Edge 22, Type (0, 0), BuildingBlock: KIFKEQ_clean_linker_1, # of connection points: 2
#     Edge 23, Type (0, 0), BuildingBlock: KIFKEQ_clean_linker_1, # of connection points: 2
#     Edge 24, Type (0, 0), BuildingBlock: KIFKEQ_clean_linker_1, # of connection points: 2
#     Edge 25, Type (0, 0), BuildingBlock: KIFKEQ_clean_linker_1, # of connection points: 2
#     Edge 26, Type (0, 0), BuildingBlock: KIFKEQ_clean_linker_1, # of connection points: 2
#     Edge 27, Type (0, 0), BuildingBlock: KIFKEQ_clean_linker_1, # of connection points: 2
#     Edge 28, Type (0, 0), BuildingBlock: KIFKEQ_clean_linker_1, # of connection points: 2
#     Edge 29, Type (0, 0), BuildingBlock: KIFKEQ_clean_linker_1, # of connection points: 2
#     Edge 30, Type (0, 0), BuildingBlock: KIFKEQ_clean_linker_1, # of connection points: 2
#     Edge 31, Type (0, 0), BuildingBlock: KIFKEQ_clean_linker_1, # of connection points: 2
#     Edge 32, Type (0, 0), BuildingBlock: KIFKEQ_clean_linker_1, # of connection points: 2
#     Edge 33, Type (0, 0), BuildingBlock: KIFKEQ_clean_linker_1, # of connection points: 2
#     Edge 34, Type (0, 0), BuildingBlock: KIFKEQ_clean_linker_1, # of connection points: 2
#     Edge 35, Type (0, 0), BuildingBlock: KIFKEQ_clean_linker_1, # of connection points: 2
#     Edge 36, Type (0, 0), BuildingBlock: KIFKEQ_clean_linker_1, # of connection points: 2
#     Edge 37, Type (0, 0), BuildingBlock: KIFKEQ_clean_linker_1, # of connection points: 2
#     Edge 38, Type (0, 0), BuildingBlock: KIFKEQ_clean_linker_1, # of connection points: 2
#     Edge 39, Type (0, 0), BuildingBlock: KIFKEQ_clean_linker_1, # of connection points: 2
#     Edge 40, Type (0, 0), BuildingBlock: KIFKEQ_clean_linker_1, # of connection points: 2
#     Edge 41, Type (0, 0), BuildingBlock: KIFKEQ_clean_linker_1, # of connection points: 2
#     Edge 42, Type (0, 0), BuildingBlock: KIFKEQ_clean_linker_1, # of connection points: 2
#     Edge 43, Type (0, 0), BuildingBlock: KIFKEQ_clean_linker_1, # of connection points: 2
#     Edge 44, Type (0, 0), BuildingBlock: KIFKEQ_clean_linker_1, # of connection points: 2
#     Edge 45, Type (0, 0), BuildingBlock: KIFKEQ_clean_linker_1, # of connection points: 2
#     Edge 46, Type (0, 0), BuildingBlock: KIFKEQ_clean_linker_1, # of connection points: 2
#     Edge 47, Type (0, 0), BuildingBlock: KIFKEQ_clean_linker_1, # of connection points: 2
#     Edge 48, Type (0, 0), BuildingBlock: KIFKEQ_clean_linker_1, # of connection points: 2
#     Edge 49, Type (0, 0), BuildingBlock: KIFKEQ_clean_linker_1, # of connection points: 2
#     Edge 50, Type (0, 0), BuildingBlock: KIFKEQ_clean_linker_1, # of connection points: 2
#     Edge 51, Type (0, 0), BuildingBlock: KIFKEQ_clean_linker_1, # of connection points: 2
#     Edge 52, Type (0, 0), BuildingBlock: KIFKEQ_clean_linker_1, # of connection points: 2
#     Edge 53, Type (0, 0), BuildingBlock: KIFKEQ_clean_linker_1, # of connection points: 2
# Relax obj value: 0.154
# Max RMSD: 0.215
# Mean RMSD: 0.215
data_MOF--net-wns--node1-HICVOG_clean_sbu_0--edge1-KIFKEQ_clean_linker_1
_symmetry_space_group_name_H-M    P1
_symmetry_Int_Tables_number       1
_symmetry_cell_setting            triclinic
loop_
_symmetry_equiv_pos_as_xyz
'x, y, z'
_cell_length_a     43.238327
_cell_length_b     43.261084
_cell_length_c     35.669333
_cell_angle_alpha  89.935715
_cell_angle_beta   90.061777
_cell_angle_gamma 119.99626
loop_
_atom_site_label
_atom_site_type_symbol
_atom_site_fract_x
_atom_site_fract_y
_atom_site_fract_z
_atom_type_partial_charge
Zn0 Zn 0.43426 0.2815 0.16077 0.0
C1 C 0.34407 0.24658 0.09848 0.0
N2 N 0.33704 0.26514 0.12376 0.0
C3 C 0.36351 0.27509 0.1487 0.0
N4 N 0.38658 0.26384 0.13874 0.0
N5 N 0.37387 0.24527 0.10718 0.0
C6 C 0.40968 0.22754 0.00878 0.0
O7 O 0.43841 0.25324 0.02484 0.0
O8 O 0.42949 0.27618 0.21761 0.0
Zn9 Zn 0.38414 0.20934 0.08633 0.0
N10 N 0.46475 0.33178 0.14611 0.0
C11 C 0.4679 0.38284 0.11698 0.0
C12 C 0.44824 0.34758 0.12867 0.0
C13 C 0.501 0.34995 0.1511 0.0
N14 N 0.50368 0.4009 0.12214 0.0
C15 C 0.52129 0.38572 0.13861 0.0
O16 O 0.43104 0.21329 0.10277 0.0
C17 C 0.4578 0.23056 0.12435 0.0
O18 O 0.46028 0.25538 0.14547 0.0
H19 H 0.42004 0.33297 0.12319 0.0
H20 H 0.51363 0.3367 0.16458 0.0
C21 C 0.33621 0.13281 0.08317 0.0
C22 C 0.30757 0.09995 0.09562 0.0
C23 C 0.30094 0.12947 0.1485 0.0
C24 C 0.32932 0.16182 0.13612 0.0
N25 N 0.3462 0.16301 0.10357 0.0
N26 N 0.29064 0.09946 0.12797 0.0
H27 H 0.34989 0.13462 0.05717 0.0
C28 C 0.41966 0.24545 0.23149 0.0
O29 O 0.41296 0.219 0.20867 0.0
O30 O 0.38291 0.20727 0.0291 0.0
H31 H 0.33764 0.18589 0.15219 0.0
H32 H 0.4549 0.39567 0.10337 0.0
H33 H 0.28708 0.12821 0.17419 0.0
Zn34 Zn 0.73463 0.15467 0.1624 0.0
C35 C 0.76857 0.09954 0.09835 0.0
N36 N 0.75099 0.07406 0.12407 0.0
C37 C 0.7417 0.09059 0.14968 0.0
N38 N 0.75227 0.12476 0.13964 0.0
N39 N 0.76986 0.13049 0.1074 0.0
C40 C 0.78623 0.18246 0.0074 0.0
O41 O 0.76077 0.18598 0.02331 0.0
O42 O 0.74285 0.15767 0.21932 0.0
Zn43 Zn 0.80507 0.17634 0.08524 0.0
N44 N 0.68348 0.13382 0.15018 0.0
C45 C 0.63151 0.0845 0.12404 0.0
C46 C 0.66729 0.10094 0.13404 0.0
C47 C 0.66511 0.15171 0.15522 0.0
N48 N 0.61326 0.102 0.12935 0.0
C49 C 0.62877 0.13538 0.14435 0.0
O50 O 0.79993 0.2186 0.10057 0.0
C51 C 0.78269 0.22805 0.12215 0.0
O52 O 0.75889 0.20609 0.14451 0.0
H53 H 0.682 0.08755 0.12819 0.0
H54 H 0.67864 0.17812 0.16744 0.0
C55 C 0.88191 0.20592 0.08079 0.0
C56 C 0.91519 0.21099 0.09306 0.0
C57 C 0.88688 0.17663 0.14741 0.0
C58 C 0.85412 0.17179 0.13519 0.0
N59 N 0.85211 0.18617 0.10202 0.0
N60 N 0.91646 0.19584 0.12609 0.0
H61 H 0.87948 0.21676 0.05431 0.0
C62 C 0.77353 0.18119 0.2313 0.0
O63 O 0.79798 0.20149 0.20678 0.0
O64 O 0.80647 0.17604 0.02794 0.0
H65 H 0.83037 0.15637 0.15187 0.0
H66 H 0.61841 0.05821 0.11153 0.0
H67 H 0.88878 0.16505 0.1736 0.0
Zn68 Zn 0.86086 0.58116 0.16102 0.0
C69 C 0.91611 0.66837 0.09452 0.0
N70 N 0.94191 0.67667 0.12 0.0
C71 C 0.92546 0.65156 0.14636 0.0
N72 N 0.89105 0.62804 0.13705 0.0
N73 N 0.88506 0.63921 0.10448 0.0
C74 C 0.8349 0.60587 0.00409 0.0
O75 O 0.83326 0.57734 0.0191 0.0
O76 O 0.85865 0.58727 0.21771 0.0
Zn77 Zn 0.83892 0.62793 0.08259 0.0
N78 N 0.88036 0.54988 0.14877 0.0
C79 C 0.92859 0.54495 0.12305 0.0
C80 C 0.9145 0.56568 0.13584 0.0
C81 C 0.85949 0.51349 0.14906 0.0
N82 N 0.90771 0.50899 0.1226 0.0
C83 C 0.87342 0.49241 0.13512 0.0
O84 O 0.79694 0.58 0.09699 0.0
C85 C 0.78738 0.55444 0.1202 0.0
O86 O 0.8092 0.55403 0.14387 0.0
H87 H 0.93053 0.59416 0.13414 0.0
H88 H 0.83202 0.50127 0.1583 0.0
C89 C 0.81074 0.67623 0.0794 0.0
C90 C 0.80072 0.70004 0.0947 0.0
C91 C 0.82407 0.69569 0.15358 0.0
C92 C 0.83396 0.67228 0.13825 0.0
N93 N 0.82706 0.66291 0.10157 0.0
N94 N 0.80765 0.70886 0.13162 0.0
H95 H 0.80486 0.66758 0.05054 0.0
C96 C 0.83522 0.5947 0.2293 0.0
O97 O 0.81498 0.59867 0.20451 0.0
O98 O 0.83938 0.63136 0.02543 0.0
H99 H 0.84665 0.66125 0.15554 0.0
H100 H 0.95568 0.55738 0.1126 0.0
H101 H 0.82921 0.70321 0.18281 0.0
Zn102 Zn 0.28563 0.43133 0.34678 0.0
C103 C 0.24944 0.3398 0.40727 0.0
N104 N 0.268 0.33302 0.38175 0.0
C105 C 0.27842 0.36003 0.35741 0.0
N106 N 0.26743 0.38317 0.36794 0.0
N107 N 0.24854 0.36992 0.39923 0.0
C108 C 0.20046 0.39826 0.49449 0.0
O109 O 0.18589 0.41228 0.47315 0.0
O110 O 0.28221 0.4275 0.29002 0.0
Zn111 Zn 0.21378 0.38108 0.42148 0.0
N112 N 0.33509 0.46183 0.36362 0.0
C113 C 0.3851 0.4655 0.39591 0.0
C114 C 0.35131 0.44535 0.38026 0.0
C115 C 0.35168 0.49826 0.36223 0.0
N116 N 0.40125 0.50156 0.39518 0.0
C117 C 0.38564 0.5188 0.37888 0.0
O118 O 0.21749 0.42748 0.4036 0.0
C119 C 0.2339 0.45414 0.38179 0.0
O120 O 0.25893 0.45724 0.36061 0.0
H121 H 0.33788 0.41676 0.38249 0.0
H122 H 0.338 0.51097 0.34984 0.0
C123 C 0.13762 0.32991 0.42901 0.0
C124 C 0.10371 0.30426 0.41527 0.0
C125 C 0.12993 0.30711 0.35591 0.0
C126 C 0.16328 0.33251 0.36964 0.0
N127 N 0.16655 0.34352 0.40581 0.0
N128 N 0.10104 0.29378 0.37885 0.0
H129 H 0.14088 0.33969 0.45742 0.0
C130 C 0.25149 0.41728 0.27593 0.0
O131 O 0.22468 0.40977 0.29857 0.0
O132 O 0.21528 0.38249 0.47886 0.0
H133 H 0.1864 0.34376 0.35148 0.0
H134 H 0.39811 0.45258 0.40931 0.0
H135 H 0.12694 0.29825 0.32711 0.0
Zn136 Zn 0.58555 0.85733 0.34827 0.0
C137 C 0.67474 0.91224 0.41216 0.0
N138 N 0.68234 0.9382 0.38712 0.0
C139 C 0.65649 0.92197 0.36142 0.0
N140 N 0.63315 0.88753 0.37078 0.0
N141 N 0.64528 0.88134 0.40258 0.0
C142 C 0.61347 0.83169 0.50238 0.0
O143 O 0.5852 0.83117 0.48807 0.0
O144 O 0.59033 0.85647 0.29165 0.0
Zn145 Zn 0.63472 0.83531 0.42367 0.0
N146 N 0.55436 0.87635 0.36237 0.0
C147 C 0.5492 0.92312 0.3915 0.0
C148 C 0.57009 0.90954 0.37779 0.0
C149 C 0.51795 0.85595 0.36039 0.0
N150 N 0.51318 0.90266 0.39024 0.0
C151 C 0.49666 0.86931 0.37516 0.0
O152 O 0.58694 0.79328 0.40943 0.0
C153 C 0.56061 0.78358 0.38726 0.0
O154 O 0.55902 0.80539 0.36449 0.0
H155 H 0.59861 0.92513 0.38058 0.0
H156 H 0.50582 0.82919 0.34907 0.0
C157 C 0.68385 0.80842 0.42678 0.0
C158 C 0.70851 0.79938 0.41186 0.0
C159 C 0.70428 0.82276 0.35295 0.0
C160 C 0.68004 0.83174 0.36795 0.0
N161 N 0.67023 0.82435 0.40447 0.0
N162 N 0.7178 0.80678 0.37509 0.0
H163 H 0.6748 0.80214 0.45549 0.0
C164 C 0.5992 0.83483 0.2779 0.0
O165 O 0.60494 0.81441 0.30079 0.0
O166 O 0.63835 0.83538 0.48057 0.0
H167 H 0.6688 0.84416 0.35056 0.0
H168 H 0.56152 0.94944 0.40391 0.0
H169 H 0.71219 0.82831 0.32384 0.0
Zn170 Zn 0.15582 0.72922 0.34776 0.0
C171 C 0.10556 0.76666 0.4145 0.0
N172 N 0.08067 0.75395 0.38764 0.0
C173 C 0.09507 0.74322 0.36093 0.0
N174 N 0.12768 0.7485 0.37144 0.0
N175 N 0.13442 0.76421 0.40491 0.0
C176 C 0.21245 0.81151 0.49833 0.0
O177 O 0.24084 0.82484 0.47675 0.0
O178 O 0.15486 0.73478 0.29126 0.0
Zn179 Zn 0.18091 0.79822 0.42582 0.0
N180 N 0.13522 0.67888 0.36262 0.0
C181 C 0.08709 0.62855 0.39239 0.0
C182 C 0.10312 0.66379 0.38042 0.0
C183 C 0.1526 0.66006 0.35742 0.0
N184 N 0.1041 0.6098 0.38695 0.0
C185 C 0.13662 0.62428 0.37002 0.0
O186 O 0.22178 0.79269 0.40689 0.0
C187 C 0.23114 0.77673 0.38354 0.0
O188 O 0.20875 0.75342 0.36109 0.0
H189 H 0.08986 0.67893 0.38527 0.0
H190 H 0.17829 0.67278 0.34358 0.0
C191 C 0.20717 0.8748 0.43306 0.0
C192 C 0.21592 0.90881 0.4191 0.0
C193 C 0.19251 0.88252 0.35974 0.0
C194 C 0.18403 0.84911 0.3737 0.0
N195 N 0.19157 0.8458 0.40996 0.0
N196 N 0.20831 0.91145 0.38257 0.0
H197 H 0.21348 0.87151 0.46157 0.0
C198 C 0.17496 0.7658 0.27774 0.0
O199 O 0.19452 0.79214 0.30079 0.0
O200 O 0.18173 0.79733 0.48299 0.0
H201 H 0.17187 0.82594 0.35565 0.0
H202 H 0.06139 0.61621 0.40621 0.0
H203 H 0.18681 0.88552 0.33085 0.0
Zn204 Zn 0.6334 0.79905 0.92381 0.0
C205 C 0.66135 0.74173 0.8588 0.0
N206 N 0.68633 0.75142 0.88555 0.0
C207 C 0.67492 0.76474 0.91249 0.0
N208 N 0.64423 0.76374 0.90291 0.0
N209 N 0.63487 0.74825 0.86932 0.0
C210 C 0.60654 0.76943 0.77715 0.0
O211 O 0.61461 0.79444 0.80238 0.0
O212 O 0.63079 0.79743 0.98111 0.0
Zn213 Zn 0.58801 0.7306 0.84503 0.0
N214 N 0.67264 0.84597 0.90912 0.0
C215 C 0.71867 0.88001 0.86505 0.0
C216 C 0.68983 0.84764 0.87663 0.0
C217 C 0.68282 0.87587 0.93019 0.0
N218 N 0.72903 0.90967 0.88616 0.0
C219 C 0.71183 0.90882 0.91842 0.0
O220 O 0.56113 0.75634 0.85879 0.0
C221 C 0.56271 0.78025 0.88072 0.0
O222 O 0.58808 0.79599 0.90415 0.0
H223 H 0.68131 0.82395 0.85986 0.0
H224 H 0.66894 0.87387 0.95606 0.0
C225 C 0.52029 0.66389 0.85821 0.0
C226 C 0.49951 0.62961 0.8742 0.0
C227 C 0.55274 0.63006 0.89169 0.0
C228 C 0.57308 0.66413 0.8768 0.0
N229 N 0.55676 0.68052 0.86011 0.0
N230 N 0.51667 0.61385 0.89038 0.0
H231 H 0.50771 0.67778 0.84604 0.0
C232 C 0.61406 0.81131 0.99662 0.0
O233 O 0.59906 0.82484 0.9752 0.0
O234 O 0.5947 0.73745 0.7883 0.0
H235 H 0.60177 0.67759 0.87924 0.0
H236 H 0.73274 0.88157 0.83942 0.0
H237 H 0.56552 0.61686 0.90498 0.0
Zn238 Zn 0.21599 0.83549 0.92379 0.0
C239 C 0.28163 0.92264 0.86298 0.0
N240 N 0.27213 0.93882 0.8888 0.0
C241 C 0.25356 0.91266 0.91357 0.0
N242 N 0.25189 0.88171 0.90367 0.0
N243 N 0.27023 0.8881 0.87194 0.0
C244 C 0.25203 0.83795 0.77914 0.0
O245 O 0.22569 0.81839 0.8022 0.0
O246 O 0.2162 0.83445 0.98106 0.0
Zn247 Zn 0.28831 0.85877 0.84917 0.0
N248 N 0.16947 0.82779 0.90764 0.0
C249 C 0.13628 0.84049 0.86308 0.0
C250 C 0.16851 0.8441 0.87542 0.0
C251 C 0.13909 0.80732 0.92775 0.0
N252 N 0.1061 0.82042 0.88325 0.0
C253 C 0.10631 0.80335 0.91526 0.0
O254 O 0.26264 0.80632 0.86328 0.0
C255 C 0.23718 0.78381 0.88367 0.0
O256 O 0.21987 0.79326 0.90511 0.0
H257 H 0.19267 0.85998 0.85949 0.0
H258 H 0.1406 0.79492 0.95347 0.0
C259 C 0.35722 0.86141 0.8562 0.0
C260 C 0.39333 0.8771 0.86753 0.0
C261 C 0.39015 0.92651 0.89195 0.0
C262 C 0.35455 0.9107 0.88133 0.0
N263 N 0.33874 0.87884 0.86307 0.0
N264 N 0.40855 0.90944 0.88487 0.0
H265 H 0.344 0.83589 0.84203 0.0
C266 C 0.20263 0.80393 0.99673 0.0
O267 O 0.19019 0.7754 0.97548 0.0
O268 O 0.28288 0.8588 0.79268 0.0
H269 H 0.33971 0.9238 0.88813 0.0
H270 H 0.13524 0.85358 0.83764 0.0
H271 H 0.40301 0.952 0.90618 0.0
Zn272 Zn 0.18164 0.3833 0.92205 0.0
C273 C 0.09484 0.36009 0.85924 0.0
N274 N 0.07864 0.33426 0.88494 0.0
C275 C 0.1045 0.34206 0.91019 0.0
N276 N 0.13538 0.37166 0.90063 0.0
N277 N 0.12919 0.38363 0.86872 0.0
C278 C 0.17996 0.41658 0.77572 0.0
O279 O 0.20047 0.41092 0.79857 0.0
O280 O 0.18205 0.38452 0.97932 0.0
Zn281 Zn 0.15854 0.43138 0.84606 0.0
N282 N 0.19192 0.3463 0.90588 0.0
C283 C 0.1929 0.31081 0.85547 0.0
C284 C 0.18457 0.33581 0.86952 0.0
C285 C 0.20721 0.33252 0.92897 0.0
N286 N 0.20839 0.2973 0.87831 0.0
C287 C 0.21581 0.30723 0.91492 0.0
O288 O 0.21107 0.45912 0.86063 0.0
C289 C 0.23319 0.45665 0.8822 0.0
O290 O 0.22335 0.43008 0.90405 0.0
H291 H 0.1727 0.34718 0.85148 0.0
H292 H 0.21341 0.34189 0.95754 0.0
C293 C 0.15568 0.49746 0.85418 0.0
C294 C 0.13971 0.51757 0.8656 0.0
C295 C 0.08945 0.46429 0.88763 0.0
C296 C 0.10554 0.44479 0.87699 0.0
N297 N 0.13796 0.46133 0.85982 0.0
N298 N 0.10681 0.49997 0.88174 0.0
H299 H 0.18168 0.51017 0.84096 0.0
C300 C 0.21276 0.40071 0.99474 0.0
O301 O 0.2412 0.41532 0.97323 0.0
O302 O 0.15863 0.42586 0.78948 0.0
H303 H 0.09225 0.4167 0.883 0.0
H304 H 0.18734 0.30238 0.82652 0.0
H305 H 0.06351 0.45126 0.90098 0.0
Zn306 Zn 0.73496 0.5814 0.65962 0.0
C307 C 0.76708 0.6694 0.59417 0.0
N308 N 0.74844 0.67666 0.61912 0.0
C309 C 0.73941 0.65105 0.64493 0.0
N310 N 0.75127 0.62829 0.63587 0.0
N311 N 0.76939 0.6404 0.60395 0.0
C312 C 0.78769 0.60714 0.50557 0.0
O313 O 0.76116 0.57872 0.52116 0.0
O314 O 0.74318 0.58721 0.71642 0.0
Zn315 Zn 0.80579 0.63071 0.58347 0.0
N316 N 0.68423 0.54976 0.64702 0.0
C317 C 0.63129 0.54438 0.61995 0.0
C318 C 0.66605 0.56532 0.63289 0.0
C319 C 0.66861 0.51337 0.64826 0.0
N320 N 0.61612 0.50843 0.62048 0.0
C321 C 0.63366 0.49205 0.63412 0.0
O322 O 0.80111 0.58338 0.59854 0.0
C323 C 0.78402 0.55681 0.62034 0.0
O324 O 0.76013 0.55498 0.6425 0.0
H325 H 0.67856 0.59374 0.63031 0.0
H326 H 0.68373 0.5013 0.6584 0.0
C327 C 0.88249 0.67795 0.58218 0.0
C328 C 0.91535 0.70579 0.59574 0.0
C329 C 0.88507 0.71159 0.64844 0.0
C330 C 0.85273 0.684 0.63495 0.0
N331 N 0.85194 0.66791 0.60199 0.0
N332 N 0.91544 0.72191 0.62854 0.0
H333 H 0.88096 0.6649 0.55582 0.0
C334 C 0.77445 0.59594 0.72793 0.0
O335 O 0.79906 0.60151 0.70301 0.0
O336 O 0.80865 0.63318 0.52637 0.0
H337 H 0.82836 0.67564 0.65053 0.0
H338 H 0.61678 0.55663 0.60859 0.0
H339 H 0.88603 0.72482 0.67449 0.0
Zn340 Zn 0.4341 0.15411 0.6635 0.0
C341 C 0.34284 0.09955 0.60185 0.0
N342 N 0.33551 0.07441 0.62784 0.0
C343 C 0.36241 0.09092 0.6523 0.0
N344 N 0.38606 0.12477 0.64144 0.0
N345 N 0.37323 0.13038 0.60974 0.0
C346 C 0.40236 0.20619 0.51309 0.0
O347 O 0.417 0.23481 0.53432 0.0
O348 O 0.42999 0.15651 0.72056 0.0
Zn349 Zn 0.38525 0.17625 0.58647 0.0
N350 N 0.4641 0.13375 0.64884 0.0
C351 C 0.46695 0.08607 0.61875 0.0
C352 C 0.44722 0.10067 0.63314 0.0
C353 C 0.5006 0.15319 0.65011 0.0
N354 N 0.50305 0.10555 0.61938 0.0
C355 C 0.52075 0.13887 0.63447 0.0
O356 O 0.43259 0.21797 0.60336 0.0
C357 C 0.45928 0.22766 0.625 0.0
O358 O 0.46142 0.20574 0.64707 0.0
H359 H 0.41868 0.08602 0.63047 0.0
H360 H 0.51367 0.17999 0.66143 0.0
C361 C 0.3352 0.20279 0.57863 0.0
C362 C 0.3103 0.2121 0.59237 0.0
C363 C 0.31399 0.19018 0.65238 0.0
C364 C 0.33861 0.18117 0.63864 0.0
N365 N 0.34885 0.18767 0.60215 0.0
N366 N 0.30061 0.20549 0.62911 0.0
H367 H 0.34437 0.20829 0.54996 0.0
C368 C 0.42206 0.17946 0.73254 0.0
O369 O 0.41649 0.19882 0.70799 0.0
O370 O 0.38615 0.17565 0.5289 0.0
H371 H 0.34986 0.16943 0.65702 0.0
H372 H 0.45368 0.0598 0.60618 0.0
H373 H 0.30575 0.18529 0.68142 0.0
Zn374 Zn 0.83899 0.20865 0.58614 0.0
C375 C 0.92468 0.27409 0.64975 0.0
N376 N 0.94136 0.26434 0.62485 0.0
C377 C 0.91591 0.24592 0.59938 0.0
N378 N 0.88476 0.24448 0.60791 0.0
N379 N 0.89036 0.26284 0.63961 0.0
C380 C 0.83472 0.24221 0.73086 0.0
O381 O 0.81559 0.21717 0.70637 0.0
O382 O 0.83896 0.20683 0.52879 0.0
Zn383 Zn 0.8598 0.27995 0.66169 0.0
N384 N 0.83034 0.16232 0.60361 0.0
C385 C 0.84134 0.12862 0.64906 0.0
C386 C 0.84554 0.16103 0.63651 0.0
C387 C 0.81038 0.13218 0.58303 0.0
N388 N 0.82187 0.09867 0.62836 0.0
C389 C 0.80591 0.09928 0.59566 0.0
O390 O 0.80809 0.25412 0.6446 0.0
C391 C 0.78616 0.22966 0.62284 0.0
O392 O 0.79597 0.21259 0.60146 0.0
H393 H 0.8611 0.18505 0.65272 0.0
H394 H 0.79889 0.13408 0.55676 0.0
C395 C 0.85887 0.34656 0.64822 0.0
C396 C 0.87265 0.38104 0.6327 0.0
C397 C 0.92633 0.3816 0.61759 0.0
C398 C 0.91232 0.34729 0.6319 0.0
N399 N 0.87904 0.33026 0.64719 0.0
N400 N 0.90614 0.39744 0.61796 0.0
H401 H 0.83198 0.33227 0.65928 0.0
C402 C 0.8325 0.22709 0.50834 0.0
O403 O 0.82902 0.25251 0.52436 0.0
O404 O 0.85737 0.2732 0.7188 0.0
H405 H 0.92766 0.33413 0.62948 0.0
H406 H 0.85357 0.12728 0.67503 0.0
H407 H 0.95274 0.39521 0.60533 0.0
H408 H 0.20962 0.93862 0.92836 0.0
H409 H 0.28277 0.91119 0.98012 0.0
H410 H 0.21864 0.97943 0.97991 0.0
H411 H 0.29258 0.95269 0.03147 0.0
H412 H 0.34743 0.07718 0.05676 0.0
H413 H 0.32578 0.02172 0.02149 0.0
H414 H 0.21734 0.99043 0.05145 0.0
H415 H 0.23898 0.04584 0.08711 0.0
C416 C 0.22603 0.93981 0.95193 0.0
C417 C 0.24513 0.92146 0.95058 0.0
C418 C 0.23155 0.9635 0.98124 0.0
C419 C 0.25687 0.96977 0.0093 0.0
C420 C 0.27319 0.94863 0.00996 0.0
C421 C 0.26707 0.92438 0.98098 0.0
C422 C 0.31898 0.05854 0.05582 0.0
C423 C 0.29489 0.06618 0.07432 0.0
C424 C 0.30661 0.02651 0.0361 0.0
C425 C 0.26986 1.00159 0.03398 0.0
C426 C 0.24579 0.00906 0.05273 0.0
C427 C 0.25821 0.04079 0.07306 0.0
H428 H 0.96983 0.19713 0.08569 0.0
H429 H 0.93679 0.27198 0.05124 0.0
H430 H 0.02503 0.23041 0.04955 0.0
H431 H 0.99212 0.30536 0.01549 0.0
H432 H 0.10388 0.37358 0.97535 0.0
H433 H 0.06119 0.34245 0.02602 0.0
H434 H 0.03672 0.24125 0.97787 0.0
H435 H 0.07867 0.27247 0.9269 0.0
C436 C 0.97442 0.22079 0.07057 0.0
C437 C 0.94864 0.23159 0.07095 0.0
C438 C 1.00605 0.23983 0.04996 0.0
C439 C 0.01307 0.27066 0.02998 0.0
C440 C 0.98769 0.28196 0.03104 0.0
C441 C 0.95573 0.26253 0.05106 0.0
C442 C 0.09091 0.34474 0.97686 0.0
C443 C 0.09491 0.32539 0.94753 0.0
C444 C 0.06594 0.3269 0.00543 0.0
C445 C 0.04514 0.28942 0.0055 0.0
C446 C 0.05234 0.27013 0.97862 0.0
C447 C 0.07673 0.28797 0.94967 0.0
H448 H 0.75179 0.71811 0.11865 0.0
H449 H 0.80911 0.71766 0.01972 0.0
H450 H 0.72205 0.74371 0.08207 0.0
H451 H 0.77924 0.7427 0.98337 0.0
H452 H 0.74453 0.80887 0.9274 0.0
H453 H 0.77692 0.7986 0.97732 0.0
H454 H 0.67686 0.72398 0.02945 0.0
H455 H 0.64455 0.73477 0.97944 0.0
C456 C 0.7581 0.7235 0.08914 0.0
C457 C 0.78256 0.71535 0.07209 0.0
C458 C 0.74099 0.7381 0.06823 0.0
C459 C 0.74847 0.74558 0.0299 0.0
C460 C 0.77325 0.73783 0.013 0.0
C461 C 0.78999 0.72287 0.03374 0.0
C462 C 0.72956 0.79184 0.95069 0.0
C463 C 0.69209 0.77268 0.94963 0.0
C464 C 0.74806 0.78539 0.9789 0.0
C465 C 0.72944 0.75957 0.00664 0.0
C466 C 0.69201 0.7439 0.00836 0.0
C467 C 0.67345 0.75044 0.98 0.0
H468 H 0.09728 0.29157 0.49147 0.0
H469 H 0.03529 0.28135 0.39237 0.0
H470 H 0.04341 0.26734 0.52933 0.0
H471 H 0.98104 0.25638 0.43046 0.0
H472 H 0.91312 0.26968 0.52966 0.0
H473 H 0.95554 0.27811 0.47992 0.0
H474 H 0.98682 0.21172 0.54073 0.0
H475 H 0.94474 0.20382 0.59039 0.0
C476 C 0.07224 0.28434 0.47769 0.0
C477 C 0.07085 0.28898 0.43884 0.0
C478 C 0.04114 0.26981 0.49937 0.0
C479 C 1.00776 0.25958 0.48289 0.0
C480 C 1.00627 0.26399 0.44403 0.0
C481 C 0.03739 0.27823 0.42224 0.0
C482 C 0.92745 0.25512 0.53118 0.0
C483 C 0.92549 0.23586 0.56367 0.0
C484 C 0.95221 0.26037 0.50295 0.0
C485 C 0.97536 0.24646 0.50694 0.0
C486 C 0.97005 0.22355 0.53727 0.0
C487 C 0.94542 0.21839 0.56537 0.0
H488 H 0.74204 0.64234 0.52502 0.0
H489 H 0.81092 0.7399 0.58402 0.0
H490 H 0.7338 0.67648 0.47526 0.0
H491 H 0.80332 0.77425 0.53424 0.0
H492 H 0.72396 0.80664 0.48742 0.0
H493 H 0.74844 0.7767 0.52437 0.0
H494 H 0.75481 0.72302 0.42519 0.0
H495 H 0.72952 0.75264 0.388 0.0
C496 C 0.7573 0.67123 0.5261 0.0
C497 C 0.77733 0.68855 0.55817 0.0
C498 C 0.75218 0.69084 0.49784 0.0
C499 C 0.76703 0.72804 0.50138 0.0
C500 C 0.79076 0.74556 0.53115 0.0
C501 C 0.79575 0.72598 0.55931 0.0
C502 C 0.73023 0.78828 0.47338 0.0
C503 C 0.72414 0.78167 0.43473 0.0
C504 C 0.74493 0.77152 0.49452 0.0
C505 C 0.75394 0.74763 0.4777 0.0
C506 C 0.74817 0.74122 0.43901 0.0
C507 C 0.73374 0.75828 0.41774 0.0
H508 H 0.26152 0.97706 0.39588 0.0
H509 H 0.20982 0.91575 0.49528 0.0
H510 H 0.2903 0.03162 0.43345 0.0
H511 H 0.23896 0.96996 0.53265 0.0
H512 H 0.27186 0.06935 0.59188 0.0
H513 H 0.23869 0.02613 0.54274 0.0
H514 H 0.33718 0.05857 0.48328 0.0
H515 H 0.37019 0.10214 0.53251 0.0
C516 C 0.25624 0.97515 0.42572 0.0
C517 C 0.23361 0.94178 0.44252 0.0
C518 C 0.27284 0.00647 0.44722 0.0
C519 C 0.26676 1.0053 0.48601 0.0
C520 C 0.24384 0.97199 0.50273 0.0
C521 C 0.22754 0.94069 0.48134 0.0
C522 C 0.28613 0.06864 0.56723 0.0
C523 C 0.32353 0.08926 0.56586 0.0
C524 C 0.26724 0.04335 0.53945 0.0
C525 C 0.2854 0.03806 0.50971 0.0
C526 C 0.32235 0.06182 0.50589 0.0
C527 C 0.34129 0.08725 0.53382 0.0
H528 H 0.78033 0.96318 0.92659 0.0
H529 H 0.672 0.93114 0.9583 0.0
H530 H 0.80192 0.0188 0.96174 0.0
H531 H 0.69365 0.9868 0.99319 0.0
H532 H 0.73658 0.09822 0.03275 0.0
H533 H 0.72555 0.05529 0.98256 0.0
H534 H 0.80236 0.03161 0.03239 0.0
H535 H 0.81265 0.07389 0.08278 0.0
C536 C 0.7611 0.96806 0.94092 0.0
C537 C 0.72448 0.94243 0.94008 0.0
C538 C 0.77351 0.99994 0.96096 0.0
C539 C 0.74949 0.00733 0.97993 0.0
C540 C 0.71278 0.98209 0.97841 0.0
C541 C 0.70042 0.94992 0.95892 0.0
C542 C 0.75257 0.08536 0.0317 0.0
C543 C 0.77581 0.08966 0.06131 0.0
C544 C 0.74574 0.06026 1.00342 0.0
C545 C 0.76259 0.0396 1.00398 0.0
C546 C 0.78899 0.04712 0.03115 0.0
C547 C 0.79526 0.07167 0.05977 0.0
H548 H 0.08376 0.7407 0.95432 0.0
H549 H 0.05126 0.81661 0.92242 0.0
H550 H 0.02787 0.70615 0.98866 0.0
H551 H 0.99533 0.78198 0.95697 0.0
H552 H 0.9406 0.73769 0.07812 0.0
H553 H 0.98233 0.76964 0.02729 0.0
H554 H 0.95967 0.66918 0.97854 0.0
H555 H 0.91734 0.63731 0.02925 0.0
C556 C 0.06479 0.75011 0.95472 0.0
C557 C 0.07227 0.78176 0.93608 0.0
C558 C 0.03248 0.72999 0.9739 0.0
C559 C 1.00706 0.74121 0.97527 0.0
C560 C 0.01435 0.77262 0.95632 0.0
C561 C 0.04639 0.79243 0.93661 0.0
C562 C 0.94289 0.72248 0.05525 0.0
C563 C 0.92541 0.6851 0.05725 0.0
C564 C 0.96712 0.74075 0.02635 0.0
C565 C 0.97482 0.7219 0.99937 0.0
C566 C 0.95457 0.68438 0.99924 0.0
C567 C 0.9298 0.66612 0.02783 0.0
H568 H 0.37093 0.27046 0.02892 0.0
H569 H 0.27315 0.2046 0.08903 0.0
H570 H 0.33727 0.27966 0.9793 0.0
H571 H 0.23929 0.21321 0.03946 0.0
H572 H 0.20921 0.2937 0.991 0.0
H573 H 0.23855 0.26892 0.02859 0.0
H574 H 0.29036 0.25899 0.92966 0.0
H575 H 0.26141 0.28453 0.89186 0.0
C576 C 0.34203 0.25606 0.03031 0.0
C577 C 0.32459 0.23662 0.06264 0.0
C578 C 0.32271 0.26175 1.00214 0.0
C579 C 0.28568 0.24807 0.00601 0.0
C580 C 0.26788 0.2249 0.0361 0.0
C581 C 0.28717 0.21932 0.06414 0.0
C582 C 0.22706 0.2866 0.97715 0.0
C583 C 0.23329 0.2917 0.93836 0.0
C584 C 0.24346 0.27175 0.99868 0.0
C585 C 0.26662 0.26161 0.98211 0.0
C586 C 0.27273 0.2665 0.94331 0.0
C587 C 0.25604 0.28108 0.92168 0.0
H588 H 0.9713 0.77389 0.59148 0.0
H589 H 0.93737 0.66666 0.55411 0.0
H590 H 0.02724 0.79589 0.55681 0.0
H591 H 0.99328 0.6887 0.51961 0.0
H592 H 0.10354 0.73084 0.47764 0.0
H593 H 0.0614 0.71858 0.52905 0.0
H594 H 0.04017 0.79956 0.48643 0.0
H595 H 0.08165 0.81114 0.43487 0.0
C596 C 0.97586 0.75497 0.57609 0.0
C597 C 0.94955 0.71858 0.5751 0.0
C598 C 1.00792 0.76761 0.55629 0.0
C599 C 0.0148 0.74403 0.5357 0.0
C600 C 0.98899 0.70749 0.53563 0.0
C601 C 0.95667 0.69492 0.55491 0.0
C602 C 0.09139 0.74738 0.48055 0.0
C603 C 0.09603 0.77216 0.45253 0.0
C604 C 0.06675 0.7399 0.50955 0.0
C605 C 0.04695 0.75761 0.51132 0.0
C606 C 0.05499 0.78546 0.48588 0.0
C607 C 0.07906 0.79242 0.45655 0.0
H608 H 0.29716 0.20516 0.51611 0.0
H609 H 0.28748 0.25783 0.61457 0.0
H610 H 0.27261 0.23431 0.47793 0.0
H611 H 0.26205 0.28649 0.5762 0.0
H612 H 0.27275 0.36642 0.47712 0.0
H613 H 0.28218 0.33299 0.52679 0.0
H614 H 0.21734 0.23506 0.46597 0.0
H615 H 0.20856 0.26871 0.41631 0.0
C616 C 0.29001 0.22306 0.5297 0.0
C617 C 0.29491 0.22947 0.56848 0.0
C618 C 0.27527 0.23937 0.50782 0.0
C619 C 0.265 0.26257 0.52401 0.0
C620 C 0.26969 0.26885 0.5628 0.0
C621 C 0.2842 0.2523 0.58477 0.0
C622 C 0.25877 0.33754 0.47554 0.0
C623 C 0.23972 0.3201 0.44302 0.0
C624 C 0.2646 0.31835 0.50375 0.0
C625 C 0.25145 0.28144 0.49977 0.0
C626 C 0.22867 0.26358 0.46942 0.0
C627 C 0.22298 0.28273 0.44132 0.0
H628 H 0.64333 0.91136 0.47786 0.0
H629 H 0.74457 0.93853 0.42813 0.0
H630 H 0.67436 0.9526 0.52959 0.0
H631 H 0.77571 0.97921 0.48003 0.0
H632 H 0.82036 0.04512 0.58779 0.0
H633 H 0.787 0.98989 0.55171 0.0
H634 H 0.71045 0.02152 0.52006 0.0
H635 H 0.74382 0.07677 0.55575 0.0
C636 C 0.6722 0.92443 0.47926 0.0
C637 C 0.69162 0.92143 0.44936 0.0
C638 C 0.68997 0.94855 0.50846 0.0
C639 C 0.72744 0.96956 0.50846 0.0
C640 C 0.74684 0.96334 0.48085 0.0
C641 C 0.72905 0.93974 0.45133 0.0
C642 C 0.79629 0.04017 0.57327 0.0
C643 C 0.78505 0.0656 0.57417 0.0
C644 C 0.77722 0.00855 0.55271 0.0
C645 C 0.74598 1.00124 0.53336 0.0
C646 C 0.73417 0.02619 0.53513 0.0
C647 C 0.75359 0.0581 0.55509 0.0
H648 H 0.36548 0.33822 0.14434 0.0
H649 H 0.36317 0.26207 0.22381 0.0
H650 H 0.35243 0.36844 0.19445 0.0
H651 H 0.3512 0.29282 0.27438 0.0
H652 H 0.3417 0.36225 0.36174 0.0
H653 H 0.3719 0.3492 0.3116 0.0
H654 H 0.29609 0.34778 0.23177 0.0
H655 H 0.26538 0.35977 0.28237 0.0
C656 C 0.36381 0.32893 0.1729 0.0
C657 C 0.36679 0.29859 0.18041 0.0
C658 C 0.3559 0.346 0.20151 0.0
C659 C 0.35067 0.33307 0.23843 0.0
C660 C 0.35567 0.3039 0.24635 0.0
C661 C 0.3632 0.28656 0.21752 0.0
C662 C 0.33242 0.36061 0.33318 0.0
C663 C 0.30205 0.36359 0.32571 0.0
C664 C 0.34945 0.35267 0.30456 0.0
C665 C 0.33644 0.34736 0.26767 0.0
C666 C 0.30723 0.35233 0.25977 0.0
C667 C 0.28993 0.35989 0.28862 0.0
H668 H 0.75491 0.10455 0.22469 0.0
H669 H 0.67955 0.02839 0.14632 0.0
H670 H 0.72499 0.06233 0.27599 0.0
H671 H 0.64989 0.98589 0.19716 0.0
H672 H 0.6564 0.90838 0.28651 0.0
H673 H 0.66913 0.9507 0.23527 0.0
H674 H 0.67035 0.02712 0.31393 0.0
H675 H 0.65688 0.98437 0.36474 0.0
C676 C 0.73081 0.0796 0.21876 0.0
C677 C 0.71881 0.0703 0.18175 0.0
C678 C 0.7139 0.05507 0.24802 0.0
C679 C 0.68509 0.02051 0.24066 0.0
C680 C 0.67214 0.01203 0.20381 0.0
C681 C 0.68888 0.03656 0.17476 0.0
C682 C 0.6572 0.93329 0.2924 0.0
C683 C 0.6542 0.94246 0.32935 0.0
C684 C 0.66514 0.95792 0.26317 0.0
C685 C 0.67099 0.9925 0.27051 0.0
C686 C 0.66635 1.00094 0.30731 0.0
C687 C 0.65819 0.97627 0.33632 0.0
H688 H 0.91016 0.65441 0.2201 0.0
H689 H 0.98818 0.65209 0.14694 0.0
H690 H 0.95217 0.67142 0.27247 0.0
H691 H 0.03054 0.66979 0.1989 0.0
H692 H 0.09123 0.6887 0.31468 0.0
H693 H 0.04723 0.6578 0.26466 0.0
H694 H 1.00767 0.73094 0.27898 0.0
H695 H 0.05128 0.76169 0.32774 0.0
C696 C 0.93549 0.6556 0.21569 0.0
C697 C 0.94541 0.65078 0.17975 0.0
C698 C 0.95993 0.66611 0.24544 0.0
C699 C 0.99491 0.67233 0.23973 0.0
C700 C 1.00384 0.66496 0.20437 0.0
C701 C 0.9795 0.65472 0.17464 0.0
C702 C 0.07366 0.69854 0.30671 0.0
C703 C 0.07473 0.72754 0.32567 0.0
C704 C 0.04815 0.6806 0.27827 0.0
C705 C 0.02308 0.69116 0.26877 0.0
C706 C 0.0256 0.72123 0.28647 0.0
C707 C 0.05102 0.73913 0.31423 0.0
H708 H 0.75682 0.65331 0.71874 0.0
H709 H 0.67674 0.65062 0.64468 0.0
H710 H 0.73132 0.66996 0.77074 0.0
H711 H 0.65175 0.6683 0.69624 0.0
H712 H 0.61023 0.68877 0.8113 0.0
H713 H 0.62297 0.65753 0.76144 0.0
H714 H 0.7359 0.72939 0.77667 0.0
H715 H 0.72343 0.76018 0.82554 0.0
C716 C 0.73257 0.65426 0.71407 0.0
C717 C 0.7181 0.64951 0.678 0.0
C718 C 0.71838 0.66463 0.7436 0.0
C719 C 0.68974 0.67094 0.73747 0.0
C720 C 0.67356 0.66346 0.702 0.0
C721 C 0.68785 0.65322 0.67252 0.0
C722 C 0.63763 0.69814 0.80368 0.0
C723 C 0.66575 0.7266 0.82309 0.0
C724 C 0.64499 0.68007 0.77527 0.0
C725 C 0.68055 0.6901 0.76616 0.0
C726 C 0.70828 0.71997 0.78397 0.0
C727 C 0.701 0.73792 0.81178 0.0
H728 H 0.36278 0.02903 0.64814 0.0
H729 H 0.36423 0.10482 0.72736 0.0
H730 H 0.35117 0.98664 0.69877 0.0
H731 H 0.35325 0.06274 0.77846 0.0
H732 H 0.34464 0.98417 0.86621 0.0
H733 H 0.37382 0.02709 0.81542 0.0
H734 H 0.29643 0.95203 0.73726 0.0
H735 H 0.26686 0.90975 0.78843 0.0
C736 C 0.36217 0.03721 0.67671 0.0
C737 C 0.36587 0.07084 0.68403 0.0
C738 C 0.3551 0.01276 0.70563 0.0
C739 C 0.35118 0.02119 0.74265 0.0
C740 C 0.35676 0.0556 0.75032 0.0
C741 C 0.36365 0.08006 0.72118 0.0
C742 C 0.33475 0.9764 0.83786 0.0
C743 C 0.30432 0.94303 0.83094 0.0
C744 C 0.3512 1.00113 0.8089 0.0
C745 C 0.33749 0.99308 0.77229 0.0
C746 C 0.30813 0.95888 0.765 0.0
C747 C 0.29147 0.93427 0.79416 0.0
H748 H 0.911 0.26176 0.72494 0.0
H749 H 0.9865 0.33644 0.6456 0.0
H750 H 0.95365 0.29222 0.77578 0.0
H751 H 0.02941 0.36657 0.69597 0.0
H752 H 0.1073 0.35905 0.78428 0.0
H753 H 0.06446 0.34646 0.73362 0.0
H754 H 0.98981 0.34768 0.81308 0.0
H755 H 0.03314 0.36113 0.86333 0.0
C756 C 0.93584 0.28587 0.71869 0.0
C757 C 0.94485 0.29751 0.68154 0.0
C758 C 0.96063 0.30306 0.74769 0.0
C759 C 0.99514 0.33176 0.7399 0.0
C760 C 1.00329 0.34442 0.70293 0.0
C761 C 0.97851 0.32742 0.67416 0.0
C762 C 0.08271 0.35885 0.79044 0.0
C763 C 0.07421 0.36258 0.82744 0.0
C764 C 0.05778 0.35099 0.76156 0.0
C765 C 0.02353 0.34588 0.76932 0.0
C766 C 0.01575 0.35118 0.80615 0.0
C767 C 0.04075 0.35933 0.83483 0.0
H768 H 0.52088 0.26281 0.16415 0.0
H769 H 0.45819 0.17423 0.08984 0.0
H770 H 0.56419 0.24247 0.17137 0.0
H771 H 0.50144 0.15426 0.09693 0.0
H772 H 0.55702 0.10241 0.15334 0.0
H773 H 0.51815 0.12764 0.14864 0.0
H774 H 0.60995 0.23296 0.13627 0.0
H775 H 0.64941 0.20754 0.14075 0.0
C776 C 0.51641 0.23918 0.14912 0.0
C777 C 0.48575 0.22002 0.12662 0.0
C778 C 0.54137 0.22765 0.15317 0.0
C779 C 0.5361 0.1965 0.13512 0.0
C780 C 0.50601 0.178 0.11181 0.0
C781 C 0.48127 0.18961 0.10755 0.0
C782 C 0.56917 0.13103 0.14987 0.0
C783 C 0.6065 0.1528 0.14723 0.0
C784 C 0.54674 0.14548 0.14696 0.0
C785 C 0.56083 0.18223 0.14134 0.0
C786 C 0.59823 0.20449 0.14058 0.0
C787 C 0.62088 0.18992 0.14338 0.0
H788 H 0.83913 0.28463 0.08795 0.0
H789 H 0.7474 0.25797 0.15756 0.0
H790 H 0.85629 0.34714 0.09075 0.0
H791 H 0.76394 0.32087 0.15926 0.0
H792 H 0.83183 0.44271 0.18835 0.0
H793 H 0.80658 0.37787 0.18438 0.0
H794 H 0.84162 0.38917 0.06915 0.0
H795 H 0.86802 0.45351 0.07398 0.0
C796 C 0.82227 0.29202 0.10345 0.0
C797 C 0.79183 0.2661 0.12247 0.0
C798 C 0.832 0.32804 0.10488 0.0
C799 C 0.81138 0.33932 0.12498 0.0
C800 C 0.7807 0.31335 0.1438 0.0
C801 C 0.77109 0.2772 0.14263 0.0
C802 C 0.83344 0.43107 0.16208 0.0
C803 C 0.85206 0.45306 0.13155 0.0
C804 C 0.81901 0.39392 0.15971 0.0
C805 C 0.82264 0.37813 0.12663 0.0
C806 C 0.83924 0.40025 0.09547 0.0
C807 C 0.85408 0.43717 0.09806 0.0
H808 H 0.7561 0.49398 0.16423 0.0
H809 H 0.73163 0.55039 0.07987 0.0
H810 H 0.6923 0.45083 0.17088 0.0
H811 H 0.66835 0.50741 0.08656 0.0
H812 H 0.56085 0.45778 0.14298 0.0
H813 H 0.62508 0.49558 0.13836 0.0
H814 H 0.63714 0.40245 0.13541 0.0
H815 H 0.57211 0.36398 0.1396 0.0
C816 C 0.73725 0.49702 0.14683 0.0
C817 C 0.74912 0.52596 0.12173 0.0
C818 C 0.7007 0.47219 0.1506 0.0
C819 C 0.67524 0.47597 0.12964 0.0
C820 C 0.68724 0.5041 0.10362 0.0
C821 C 0.72363 0.52868 0.09963 0.0
C822 C 0.577 0.4451 0.14156 0.0
C823 C 0.56099 0.40766 0.14144 0.0
C824 C 0.61393 0.4669 0.13874 0.0
C825 C 0.63619 0.45205 0.1358 0.0
C826 C 0.62063 0.41467 0.1376 0.0
C827 C 0.58334 0.39264 0.14023 0.0
H828 H 0.10266 0.55215 0.36437 0.0
H829 H 0.20873 0.64434 0.36846 0.0
H830 H 0.12783 0.51311 0.36625 0.0
H831 H 0.23406 0.60477 0.37042 0.0
H832 H 0.26349 0.51659 0.34084 0.0
H833 H 0.24206 0.55919 0.33544 0.0
H834 H 0.15707 0.49616 0.41329 0.0
H835 H 0.1779 0.45355 0.41825 0.0
C836 C 0.13144 0.56421 0.36548 0.0
C837 C 0.15352 0.60156 0.36641 0.0
C838 C 0.14589 0.54169 0.36677 0.0
C839 C 0.18297 0.55568 0.36917 0.0
C840 C 0.20536 0.59306 0.36849 0.0
C841 C 0.1908 0.61579 0.3672 0.0
C842 C 0.24029 0.51188 0.35692 0.0
C843 C 0.22237 0.48139 0.37987 0.0
C844 C 0.22812 0.53644 0.35393 0.0
C845 C 0.19759 0.53099 0.3736 0.0
C846 C 0.18025 0.50093 0.39714 0.0
C847 C 0.19242 0.47654 0.40023 0.0
H848 H 0.49604 0.75291 0.35026 0.0
H849 H 0.56018 0.72756 0.42311 0.0
H850 H 0.4498 0.68991 0.34906 0.0
H851 H 0.51497 0.66497 0.42087 0.0
H852 H 0.41935 0.55932 0.43921 0.0
H853 H 0.45785 0.62366 0.44234 0.0
H854 H 0.43578 0.63225 0.32574 0.0
H855 H 0.39571 0.56742 0.32331 0.0
C856 C 0.50033 0.73395 0.36598 0.0
C857 C 0.53184 0.74545 0.38695 0.0
C858 C 0.47387 0.69774 0.36511 0.0
C859 C 0.47834 0.67214 0.38506 0.0
C860 C 0.50997 0.68381 0.40586 0.0
C861 C 0.53618 0.71987 0.40696 0.0
C862 C 0.42231 0.57503 0.41437 0.0
C863 C 0.40467 0.55834 0.38098 0.0
C864 C 0.44469 0.61196 0.41603 0.0
C865 C 0.45075 0.63332 0.38407 0.0
C866 C 0.43173 0.61679 0.35099 0.0
C867 C 0.40874 0.57963 0.34953 0.0
H868 H 0.45544 0.86251 0.43473 0.0
H869 H 0.44865 0.82934 0.31961 0.0
H870 H 0.39099 0.83603 0.43713 0.0
H871 H 0.38357 0.80385 0.32127 0.0
H872 H 0.2619 0.74268 0.34668 0.0
H873 H 0.32524 0.76008 0.345 0.0
H874 H 0.35021 0.85193 0.41365 0.0
H875 H 0.2876 0.83414 0.41622 0.0
C876 C 0.43999 0.84929 0.40991 0.0
C877 C 0.45709 0.84819 0.37694 0.0
C878 C 0.40298 0.83436 0.41114 0.0
C879 C 0.38191 0.81852 0.37911 0.0
C880 C 0.39884 0.81576 0.34652 0.0
C881 C 0.43612 0.83033 0.3455 0.0
C882 C 0.28099 0.76649 0.36152 0.0
C883 C 0.26948 0.78676 0.38193 0.0
C884 C 0.31735 0.77657 0.36042 0.0
C885 C 0.34302 0.80721 0.37958 0.0
C886 C 0.33134 0.82761 0.39941 0.0
C887 C 0.29522 0.81747 0.40073 0.0
H888 H 0.46497 0.91053 0.85776 0.0
H889 H 0.37258 0.80499 0.86695 0.0
H890 H 0.50381 0.88507 0.85924 0.0
H891 H 0.41196 0.77937 0.86832 0.0
H892 H 0.50097 0.75013 0.83853 0.0
H893 H 0.45811 0.77119 0.83173 0.0
H894 H 0.51966 0.85654 0.90971 0.0
H895 H 0.56236 0.836 0.91627 0.0
C896 C 0.45284 0.88179 0.85974 0.0
C897 C 0.41555 0.85993 0.86247 0.0
C898 C 0.47521 0.86721 0.86076 0.0
C899 C 0.46106 0.83025 0.86462 0.0
C900 C 0.42368 0.80798 0.86531 0.0
C901 C 0.4011 0.82268 0.86434 0.0
C902 C 0.50527 0.77332 0.85432 0.0
C903 C 0.53532 0.79143 0.87783 0.0
C904 C 0.4806 0.78526 0.85052 0.0
C905 C 0.48567 0.81578 0.86983 0.0
C906 C 0.51527 0.83332 0.89389 0.0
C907 C 0.53968 0.82133 0.89787 0.0
H908 H 0.26896 0.75257 0.84384 0.0
H909 H 0.17976 0.72732 0.91702 0.0
H910 H 0.24778 0.68877 0.83641 0.0
H911 H 0.15913 0.66411 0.90994 0.0
H912 H 0.1068 0.5563 0.85591 0.0
H913 H 0.1324 0.62053 0.85922 0.0
H914 H 0.23765 0.63366 0.87143 0.0
H915 H 0.21188 0.56875 0.8681 0.0
C916 C 0.24503 0.73352 0.85857 0.0
C917 C 0.226 0.74524 0.8809 0.0
C918 C 0.233 0.69696 0.8544 0.0
C919 C 0.20152 0.67129 0.8722 0.0
C920 C 0.1831 0.6831 0.89523 0.0
C921 C 0.19514 0.71948 0.89954 0.0
C922 C 0.13548 0.57276 0.85899 0.0
C923 C 0.15716 0.55714 0.86193 0.0
C924 C 0.15015 0.60968 0.8611 0.0
C925 C 0.187 0.63226 0.86633 0.0
C926 C 0.20913 0.61699 0.86736 0.0
C927 C 0.19435 0.57975 0.86527 0.0
H928 H 0.28939 0.45423 0.9141 0.0
H929 H 0.26463 0.52236 0.84722 0.0
H930 H 0.35227 0.49856 0.91163 0.0
H931 H 0.32808 0.56766 0.84567 0.0
H932 H 0.45089 0.62214 0.8193 0.0
H933 H 0.3859 0.58229 0.82107 0.0
H934 H 0.39408 0.55449 0.93563 0.0
H935 H 0.45843 0.59286 0.93317 0.0
C936 C 0.29727 0.47891 0.89923 0.0
C937 C 0.2717 0.48467 0.8811 0.0
C938 C 0.33354 0.50459 0.89795 0.0
C939 C 0.34555 0.53714 0.87883 0.0
C940 C 0.32001 0.54291 0.86046 0.0
C941 C 0.28354 0.51698 0.86153 0.0
C942 C 0.43859 0.60787 0.84496 0.0
C943 C 0.45982 0.61039 0.87598 0.0
C944 C 0.40132 0.58499 0.84603 0.0
C945 C 0.38457 0.56443 0.87827 0.0
C946 C 0.40589 0.56883 0.90987 0.0
C947 C 0.44288 0.59115 0.9086 0.0
H948 H 0.74921 0.49213 0.65686 0.0
H949 H 0.84015 0.5562 0.58586 0.0
H950 H 0.76559 0.44566 0.6589 0.0
H951 H 0.85713 0.51066 0.58893 0.0
H952 H 0.86671 0.4146 0.57179 0.0
H953 H 0.8413 0.45345 0.56759 0.0
H954 H 0.80853 0.43118 0.68357 0.0
H955 H 0.83291 0.39077 0.68704 0.0
C956 C 0.77271 0.49636 0.64171 0.0
C957 C 0.79325 0.52794 0.62102 0.0
C958 C 0.78223 0.46976 0.64308 0.0
C959 C 0.8126 0.4741 0.62392 0.0
C960 C 0.83308 0.50578 0.60336 0.0
C961 C 0.82345 0.53217 0.60176 0.0
C962 C 0.85353 0.41755 0.59623 0.0
C963 C 0.85191 0.39978 0.62977 0.0
C964 C 0.83926 0.44015 0.59397 0.0
C965 C 0.82354 0.4463 0.62547 0.0
C966 C 0.8203 0.42708 0.65866 0.0
C967 C 0.83423 0.40389 0.66072 0.0
H968 H 0.45874 0.2842 0.59144 0.0
H969 H 0.52473 0.25782 0.66005 0.0
H970 H 0.5043 0.3467 0.59352 0.0
H971 H 0.57116 0.32074 0.66122 0.0
H972 H 0.62575 0.44329 0.68855 0.0
H973 H 0.58578 0.37839 0.68591 0.0
H974 H 0.56121 0.38767 0.57037 0.0
H975 H 0.59965 0.45203 0.57376 0.0
C976 C 0.4832 0.29163 0.60658 0.0
C977 C 0.488 0.2658 0.62541 0.0
C978 C 0.50957 0.32764 0.60762 0.0
C979 C 0.54178 0.33898 0.62722 0.0
C980 C 0.54666 0.31313 0.64608 0.0
C981 C 0.52007 0.27699 0.64523 0.0
C982 C 0.61226 0.43119 0.66249 0.0
C983 C 0.61554 0.45263 0.63145 0.0
C984 C 0.58931 0.39403 0.6609 0.0
C985 C 0.56955 0.3777 0.62812 0.0
C986 C 0.57497 0.39923 0.59646 0.0
C987 C 0.59732 0.43615 0.59824 0.0
H988 H 0.75547 0.26442 0.65778 0.0
H989 H 0.72973 0.17192 0.58997 0.0
H990 H 0.6923 0.24696 0.65972 0.0
H991 H 0.66691 0.15386 0.59302 0.0
H992 H 0.56031 0.1423 0.57451 0.0
H993 H 0.62457 0.16778 0.57056 0.0
H994 H 0.63529 0.20445 0.68506 0.0
H995 H 0.57048 0.17996 0.68825 0.0
C996 C 0.73637 0.24034 0.64333 0.0
C997 C 0.74783 0.21971 0.62353 0.0
C998 C 0.70006 0.23019 0.64465 0.0
C999 C 0.67425 0.19906 0.62636 0.0
C1000 C 0.68587 0.17846 0.60674 0.0
C1001 C 0.72206 0.18872 0.60516 0.0
C1002 C 0.57644 0.15622 0.59871 0.0
C1003 C 0.56033 0.15896 0.63174 0.0
C1004 C 0.61335 0.17058 0.59659 0.0
C1005 C 0.63533 0.18755 0.62774 0.0
C1006 C 0.61936 0.19172 0.66041 0.0
C1007 C 0.5822 0.17771 0.66231 0.0
H1008 H 0.42423 0.23722 0.76528 0.0
H1009 H 0.41433 0.13525 0.79197 0.0
H1010 H 0.42029 0.24809 0.83159 0.0
H1011 H 0.41002 0.14615 0.85886 0.0
H1012 H 0.36427 0.16669 0.96991 0.0
H1013 H 0.36715 0.15391 0.90349 0.0
H1014 H 0.45858 0.25916 0.88918 0.0
H1015 H 0.456 0.27185 0.95543 0.0
C1016 C 0.42115 0.21703 0.78531 0.0
C1017 C 0.41971 0.18538 0.77326 0.0
C1018 C 0.41905 0.22339 0.82339 0.0
C1019 C 0.41493 0.19806 0.85053 0.0
C1020 C 0.41302 0.16612 0.83858 0.0
C1021 C 0.41571 0.15997 0.80034 0.0
C1022 C 0.38485 0.18719 0.95253 0.0
C1023 C 0.40984 0.22038 0.968 0.0
C1024 C 0.38668 0.17972 0.91457 0.0
C1025 C 0.41314 0.20547 0.89108 0.0
C1026 C 0.43775 0.23881 0.90646 0.0
C1027 C 0.43628 0.24607 0.94447 0.0
H1028 H 0.87883 0.2788 0.79031 0.0
H1029 H 0.77691 0.18663 0.76368 0.0
H1030 H 0.86781 0.26366 0.85725 0.0
H1031 H 0.76592 0.17191 0.83003 0.0
H1032 H 0.74192 0.18413 0.95374 0.0
H1033 H 0.75471 0.19919 0.88743 0.0
H1034 H 0.85999 0.2131 0.9022 0.0
H1035 H 0.84711 0.19763 0.96868 0.0
C1036 C 0.8541 0.25545 0.7987 0.0
C1037 C 0.82874 0.23399 0.77162 0.0
C1038 C 0.84788 0.24665 0.83698 0.0
C1039 C 0.81592 0.21662 0.84896 0.0
C1040 C 0.79064 0.19537 0.82181 0.0
C1041 C 0.79707 0.20377 0.78371 0.0
C1042 C 0.76772 0.19015 0.94287 0.0
C1043 C 0.7934 0.18949 0.96656 0.0
C1044 C 0.77504 0.19875 0.90482 0.0
C1045 C 0.80842 0.20747 0.88955 0.0
C1046 C 0.83415 0.20683 0.91319 0.0
C1047 C 0.82662 0.19763 0.95119 0.0
H1048 H 0.81716 0.65039 0.96668 0.0
H1049 H 0.83639 0.56265 0.94919 0.0
H1050 H 0.80203 0.6487 0.9002 0.0
H1051 H 0.82159 0.56122 0.88292 0.0
H1052 H 0.83196 0.59675 0.76001 0.0
H1053 H 0.84721 0.60062 0.82621 0.0
H1054 H 0.75298 0.60593 0.85463 0.0
H1055 H 0.73739 0.60178 0.78785 0.0
C1056 C 0.81848 0.63097 0.94863 0.0
C1057 C 0.82811 0.6067 0.96329 0.0
C1058 C 0.8095 0.62981 0.91062 0.0
C1059 C 0.81052 0.60478 0.88627 0.0
C1060 C 0.82075 0.58098 0.90084 0.0
C1061 C 0.82919 0.58177 0.93888 0.0
C1062 C 0.81442 0.59879 0.78026 0.0
C1063 C 0.78333 0.5988 0.76855 0.0
C1064 C 0.82313 0.60084 0.81829 0.0
C1065 C 0.80129 0.60346 0.84574 0.0
C1066 C 0.77046 0.60411 0.83412 0.0
C1067 C 0.76141 0.60151 0.79593 0.0
H1068 H 0.21677 0.36324 0.54877 0.0
H1069 H 0.17881 0.43778 0.53397 0.0
H1070 H 0.21032 0.36551 0.61672 0.0
H1071 H 0.17351 0.44099 0.60132 0.0
H1072 H 0.1346 0.4149 0.72089 0.0
H1073 H 0.13879 0.40835 0.65347 0.0
H1074 H 0.23496 0.40288 0.67028 0.0
H1075 H 0.23 0.40819 0.73764 0.0
C1076 C 0.20733 0.3803 0.56 0.0
C1077 C 0.1982 0.40021 0.53589 0.0
C1078 C 0.20373 0.38173 0.59898 0.0
C1079 C 0.19112 0.40328 0.61471 0.0
C1080 C 0.18249 0.42346 0.59041 0.0
C1081 C 0.18584 0.42184 0.55163 0.0
C1082 C 0.15659 0.41226 0.71017 0.0
C1083 C 0.18205 0.41228 0.73467 0.0
C1084 C 0.15914 0.40865 0.67144 0.0
C1085 C 0.18739 0.4053 0.65618 0.0
C1086 C 0.21258 0.40491 0.68087 0.0
C1087 C 0.20987 0.40823 0.71958 0.0
H1088 H 0.57302 0.83593 0.55878 0.0
H1089 H 0.65609 0.81041 0.53768 0.0
H1090 H 0.57237 0.82068 0.62488 0.0
H1091 H 0.65504 0.79472 0.60385 0.0
H1092 H 0.60673 0.73025 0.71635 0.0
H1093 H 0.61007 0.7462 0.64974 0.0
H1094 H 0.61522 0.84515 0.68034 0.0
H1095 H 0.61232 0.82963 0.74638 0.0
C1096 C 0.59125 0.82722 0.56826 0.0
C1097 C 0.61468 0.82452 0.54295 0.0
C1098 C 0.5909 0.81852 0.60614 0.0
C1099 C 0.61356 0.80637 0.61954 0.0
C1100 C 0.63706 0.80371 0.59428 0.0
C1101 C 0.63785 0.813 0.55647 0.0
C1102 C 0.60866 0.75541 0.70878 0.0
C1103 C 0.60919 0.77861 0.73669 0.0
C1104 C 0.61075 0.76462 0.6707 0.0
C1105 C 0.61276 0.79688 0.65983 0.0
C1106 C 0.61337 0.81999 0.68779 0.0
C1107 C 0.61189 0.81112 0.72568 0.0
H1108 H 0.29626 0.88153 0.72366 0.0
H1109 H 0.193 0.78803 0.74178 0.0
H1110 H 0.28553 0.87592 0.65617 0.0
H1111 H 0.18273 0.78166 0.67445 0.0
H1112 H 0.16176 0.79799 0.55227 0.0
H1113 H 0.17082 0.80601 0.62004 0.0
H1114 H 0.2824 0.83932 0.60523 0.0
H1115 H 0.27358 0.83245 0.5379 0.0
C1116 C 0.27136 0.85967 0.71323 0.0
C1117 C 0.24559 0.83515 0.73811 0.0
C1118 C 0.26523 0.85631 0.67449 0.0
C1119 C 0.23329 0.82816 0.65966 0.0
C1120 C 0.2074 0.80394 0.68471 0.0
C1121 C 0.21342 0.80747 0.72341 0.0
C1122 C 0.18817 0.80698 0.56358 0.0
C1123 C 0.21694 0.81466 0.53965 0.0
C1124 C 0.19339 0.81148 0.60246 0.0
C1125 C 0.22744 0.82355 0.61827 0.0
C1126 C 0.25599 0.83076 0.59418 0.0
C1127 C 0.25084 0.82651 0.55546 0.0
H1128 H 0.57421 0.83255 0.03628 0.0
H1129 H 0.65 0.79607 0.05074 0.0
H1130 H 0.5717 0.83853 0.10366 0.0
H1131 H 0.64836 0.80315 0.11862 0.0
H1132 H 0.60724 0.78448 0.24006 0.0
H1133 H 0.61149 0.77867 0.17268 0.0
H1134 H 0.60511 0.87421 0.1552 0.0
H1135 H 0.5997 0.87931 0.2227 0.0
C1136 C 0.59054 0.82595 0.05386 0.0
C1137 C 0.61233 0.81383 0.03802 0.0
C1138 C 0.58931 0.82969 0.09264 0.0
C1139 C 0.61004 0.82167 0.11681 0.0
C1140 C 0.63173 0.80927 0.10098 0.0
C1141 C 0.63279 0.80531 0.06203 0.0
C1142 C 0.60678 0.8043 0.22186 0.0
C1143 C 0.60283 0.83221 0.2368 0.0
C1144 C 0.60948 0.80109 0.18313 0.0
C1145 C 0.60854 0.82586 0.15826 0.0
C1146 C 0.60524 0.8542 0.17334 0.0
C1147 C 0.60229 0.85725 0.2121 0.0
H1148 H 0.21437 0.85465 0.05002 0.0
H1149 H 0.18301 0.7435 0.03706 0.0
H1150 H 0.2059 0.84601 0.1178 0.0
H1151 H 0.17575 0.73514 0.1044 0.0
H1152 H 0.13241 0.72074 0.2222 0.0
H1153 H 0.13825 0.73116 0.15468 0.0
H1154 H 0.2303 0.83553 0.17298 0.0
H1155 H 0.22366 0.82554 0.24034 0.0
C1156 C 0.20597 0.82848 0.06164 0.0
C1157 C 0.19927 0.79977 0.03808 0.0
C1158 C 0.20121 0.82351 0.10053 0.0
C1159 C 0.18987 0.78976 0.11675 0.0
C1160 C 0.18369 0.76129 0.09304 0.0
C1161 C 0.18818 0.76619 0.05431 0.0
C1162 C 0.15381 0.74593 0.21177 0.0
C1163 C 0.17766 0.7722 0.23668 0.0
C1164 C 0.15732 0.75189 0.17301 0.0
C1165 C 0.18495 0.78415 0.15816 0.0
C1166 C 0.20843 0.81057 0.18324 0.0
C1167 C 0.20475 0.80473 0.22197 0.0
H1168 H 0.27389 0.44121 0.03412 0.0
H1169 H 0.16201 0.36432 0.04896 0.0
H1170 H 0.28267 0.44423 0.10149 0.0
H1171 H 0.17104 0.36638 0.11682 0.0
H1172 H 0.19276 0.40791 0.23775 0.0
H1173 H 0.18277 0.4032 0.17038 0.0
H1174 H 0.28593 0.41212 0.15356 0.0
H1175 H 0.29639 0.41812 0.2211 0.0
C1176 C 0.25113 0.42472 0.0518 0.0
C1177 C 0.21722 0.40251 0.03609 0.0
C1178 C 0.25626 0.42624 0.09056 0.0
C1179 C 0.22769 0.40536 0.11483 0.0
C1180 C 0.19364 0.38317 0.09911 0.0
C1181 C 0.18843 0.38185 0.06018 0.0
C1182 C 0.21334 0.40885 0.21969 0.0
C1183 C 0.24551 0.41366 0.23482 0.0
C1184 C 0.20747 0.40588 0.18096 0.0
C1185 C 0.2335 0.40732 0.15628 0.0
C1186 C 0.2655 0.41156 0.17155 0.0
C1187 C 0.27149 0.41486 0.21032 0.0
H1188 H 0.84895 0.65223 0.46708 0.0
H1189 H 0.74286 0.56213 0.45172 0.0
H1190 H 0.86162 0.64992 0.40053 0.0
H1191 H 0.75549 0.56005 0.38539 0.0
H1192 H 0.77789 0.59376 0.26186 0.0
H1193 H 0.76719 0.59816 0.32811 0.0
H1194 H 0.86882 0.60762 0.35551 0.0
H1195 H 0.87962 0.603 0.2887 0.0
C1196 C 0.82823 0.63213 0.44948 0.0
C1197 C 0.79482 0.60741 0.46475 0.0
C1198 C 0.83563 0.63063 0.41144 0.0
C1199 C 0.80961 0.60476 0.38768 0.0
C1200 C 0.77604 0.58046 0.40286 0.0
C1201 C 0.76883 0.58162 0.44093 0.0
C1202 C 0.79807 0.59682 0.2819 0.0
C1203 C 0.82958 0.59786 0.26992 0.0
C1204 C 0.79181 0.59917 0.31995 0.0
C1205 C 0.81706 0.60311 0.34712 0.0
C1206 C 0.84892 0.60478 0.33521 0.0
C1207 C 0.855 0.6019 0.29701 0.0
H1208 H 0.36636 0.15516 0.45878 0.0
H1209 H 0.44268 0.26715 0.47345 0.0
H1210 H 0.36852 0.16408 0.39082 0.0
H1211 H 0.44576 0.27583 0.40613 0.0
H1212 H 0.41988 0.2898 0.28666 0.0
H1213 H 0.41365 0.27899 0.35412 0.0
H1214 H 0.40518 0.17616 0.33685 0.0
H1215 H 0.41018 0.18651 0.2695 0.0
C1216 C 0.38378 0.18157 0.44752 0.0
C1217 C 0.40422 0.21042 0.47163 0.0
C1218 C 0.38516 0.18673 0.40853 0.0
C1219 C 0.40716 0.22081 0.39274 0.0
C1220 C 0.42787 0.24941 0.41704 0.0
C1221 C 0.42632 0.24431 0.45582 0.0
C1222 C 0.41666 0.26489 0.29729 0.0
C1223 C 0.41573 0.23914 0.27263 0.0
C1224 C 0.41323 0.25869 0.33606 0.0
C1225 C 0.4091 0.22671 0.35123 0.0
C1226 C 0.40781 0.20086 0.32639 0.0
C1227 C 0.41095 0.20695 0.28765 0.0
H1228 H 0.81819 0.16679 0.46894 0.0
H1229 H 0.83066 0.27161 0.4551 0.0
H1230 H 0.80323 0.15452 0.40228 0.0
H1231 H 0.81608 0.25944 0.38867 0.0
H1232 H 0.82873 0.23909 0.26462 0.0
H1233 H 0.84349 0.24942 0.33101 0.0
H1234 H 0.75294 0.14638 0.35727 0.0
H1235 H 0.7378 0.136 0.29031 0.0
C1236 C 0.81806 0.18733 0.45166 0.0
C1237 C 0.82576 0.22026 0.4674 0.0
C1238 C 0.80917 0.18015 0.41355 0.0
C1239 C 0.80838 0.20596 0.39016 0.0
C1240 C 0.81666 0.23906 0.40582 0.0
C1241 C 0.82498 0.24602 0.44396 0.0
C1242 C 0.81187 0.21853 0.28444 0.0
C1243 C 0.78196 0.18674 0.27207 0.0
C1244 C 0.8203 0.22458 0.32258 0.0
C1245 C 0.79938 0.1988 0.34949 0.0
C1246 C 0.76971 0.1667 0.3372 0.0
C1247 C 0.7609 0.16085 0.2989 0.0
loop_
_geom_bond_atom_site_label_1
_geom_bond_atom_site_label_2
_geom_bond_distance
_geom_bond_site_symmetry_2
_ccdc_geom_bond_type
Zn0 N4 2.020 . S
Zn0 O8 2.019 . S
Zn0 N10 2.119 . S
Zn0 O18 1.975 . S
C1 N2 1.334 . S
C1 N5 1.336 . S
N2 C1 1.334 . S
N2 C3 1.334 . S
C3 N2 1.334 . S
C3 N4 1.336 . S
N4 Zn0 2.020 . S
N4 C3 1.336 . S
N4 N5 1.354 . S
N5 C1 1.336 . S
N5 N4 1.354 . S
N5 Zn9 2.020 . S
C6 O7 1.244 . S
C6 O30 1.257 . S
O7 C6 1.244 . S
O8 Zn0 2.019 . S
O8 C28 1.257 . S
Zn9 N5 2.020 . S
Zn9 O16 1.975 . S
Zn9 N25 2.119 . S
Zn9 O30 2.019 . S
N10 Zn0 2.119 . S
N10 C12 1.334 . S
N10 C13 1.328 . S
C11 C12 1.391 . S
C11 N14 1.329 . S
C11 H32 0.930 . S
C12 N10 1.334 . S
C12 C11 1.391 . S
C12 H19 0.930 . S
C13 N10 1.328 . S
C13 C15 1.392 . S
C13 H20 0.930 . S
N14 C11 1.329 . S
N14 C15 1.331 . S
C15 C13 1.392 . S
C15 N14 1.331 . S
O16 Zn9 1.975 . S
O16 C17 1.252 . S
C17 O16 1.252 . S
C17 O18 1.252 . S
O18 Zn0 1.975 . S
O18 C17 1.252 . S
H19 C12 0.930 . S
H20 C13 0.930 . S
C21 C22 1.392 . S
C21 N25 1.328 . S
C21 H27 0.930 . S
C22 C21 1.392 . S
C22 N26 1.331 . S
C23 C24 1.391 . S
C23 N26 1.329 . S
C23 H33 0.930 . S
C24 C23 1.391 . S
C24 N25 1.334 . S
C24 H31 0.930 . S
N25 Zn9 2.119 . S
N25 C21 1.328 . S
N25 C24 1.334 . S
N26 C22 1.331 . S
N26 C23 1.329 . S
H27 C21 0.930 . S
C28 O8 1.257 . S
C28 O29 1.244 . S
O29 C28 1.244 . S
O30 C6 1.257 . S
O30 Zn9 2.019 . S
H31 C24 0.930 . S
H32 C11 0.930 . S
H33 C23 0.930 . S
Zn34 N38 2.020 . S
Zn34 O42 2.019 . S
Zn34 N44 2.119 . S
Zn34 O52 1.975 . S
C35 N36 1.334 . S
C35 N39 1.336 . S
N36 C35 1.334 . S
N36 C37 1.334 . S
C37 N36 1.334 . S
C37 N38 1.336 . S
N38 Zn34 2.020 . S
N38 C37 1.336 . S
N38 N39 1.354 . S
N39 C35 1.336 . S
N39 N38 1.354 . S
N39 Zn43 2.020 . S
C40 O41 1.244 . S
C40 O64 1.257 . S
O41 C40 1.244 . S
O42 Zn34 2.019 . S
O42 C62 1.257 . S
Zn43 N39 2.020 . S
Zn43 O50 1.975 . S
Zn43 N59 2.119 . S
Zn43 O64 2.019 . S
N44 Zn34 2.119 . S
N44 C46 1.334 . S
N44 C47 1.328 . S
C45 C46 1.391 . S
C45 N48 1.329 . S
C45 H66 0.930 . S
C46 N44 1.334 . S
C46 C45 1.391 . S
C46 H53 0.930 . S
C47 N44 1.328 . S
C47 C49 1.392 . S
C47 H54 0.930 . S
N48 C45 1.329 . S
N48 C49 1.331 . S
C49 C47 1.392 . S
C49 N48 1.331 . S
O50 Zn43 1.975 . S
O50 C51 1.252 . S
C51 O50 1.252 . S
C51 O52 1.252 . S
O52 Zn34 1.975 . S
O52 C51 1.252 . S
H53 C46 0.930 . S
H54 C47 0.930 . S
C55 C56 1.392 . S
C55 N59 1.328 . S
C55 H61 0.930 . S
C56 C55 1.392 . S
C56 N60 1.331 . S
C57 C58 1.391 . S
C57 N60 1.329 . S
C57 H67 0.930 . S
C58 C57 1.391 . S
C58 N59 1.334 . S
C58 H65 0.930 . S
N59 Zn43 2.119 . S
N59 C55 1.328 . S
N59 C58 1.334 . S
N60 C56 1.331 . S
N60 C57 1.329 . S
H61 C55 0.930 . S
C62 O42 1.257 . S
C62 O63 1.244 . S
O63 C62 1.244 . S
O64 C40 1.257 . S
O64 Zn43 2.019 . S
H65 C58 0.930 . S
H66 C45 0.930 . S
H67 C57 0.930 . S
Zn68 N72 2.020 . S
Zn68 O76 2.019 . S
Zn68 N78 2.119 . S
Zn68 O86 1.975 . S
C69 N70 1.334 . S
C69 N73 1.336 . S
N70 C69 1.334 . S
N70 C71 1.334 . S
C71 N70 1.334 . S
C71 N72 1.336 . S
N72 Zn68 2.020 . S
N72 C71 1.336 . S
N72 N73 1.354 . S
N73 C69 1.336 . S
N73 N72 1.354 . S
N73 Zn77 2.020 . S
C74 O75 1.244 . S
C74 O98 1.257 . S
O75 C74 1.244 . S
O76 Zn68 2.019 . S
O76 C96 1.257 . S
Zn77 N73 2.020 . S
Zn77 O84 1.975 . S
Zn77 N93 2.119 . S
Zn77 O98 2.019 . S
N78 Zn68 2.119 . S
N78 C80 1.334 . S
N78 C81 1.328 . S
C79 C80 1.391 . S
C79 N82 1.329 . S
C79 H100 0.930 . S
C80 N78 1.334 . S
C80 C79 1.391 . S
C80 H87 0.930 . S
C81 N78 1.328 . S
C81 C83 1.392 . S
C81 H88 0.930 . S
N82 C79 1.329 . S
N82 C83 1.331 . S
C83 C81 1.392 . S
C83 N82 1.331 . S
O84 Zn77 1.975 . S
O84 C85 1.252 . S
C85 O84 1.252 . S
C85 O86 1.252 . S
O86 Zn68 1.975 . S
O86 C85 1.252 . S
H87 C80 0.930 . S
H88 C81 0.930 . S
C89 C90 1.392 . S
C89 N93 1.328 . S
C89 H95 0.930 . S
C90 C89 1.392 . S
C90 N94 1.331 . S
C91 C92 1.391 . S
C91 N94 1.329 . S
C91 H101 0.930 . S
C92 C91 1.391 . S
C92 N93 1.334 . S
C92 H99 0.930 . S
N93 Zn77 2.119 . S
N93 C89 1.328 . S
N93 C92 1.334 . S
N94 C90 1.331 . S
N94 C91 1.329 . S
H95 C89 0.930 . S
C96 O76 1.257 . S
C96 O97 1.244 . S
O97 C96 1.244 . S
O98 C74 1.257 . S
O98 Zn77 2.019 . S
H99 C92 0.930 . S
H100 C79 0.930 . S
H101 C91 0.930 . S
Zn102 N106 2.020 . S
Zn102 O110 2.019 . S
Zn102 N112 2.119 . S
Zn102 O120 1.975 . S
C103 N104 1.334 . S
C103 N107 1.336 . S
N104 C103 1.334 . S
N104 C105 1.334 . S
C105 N104 1.334 . S
C105 N106 1.336 . S
N106 Zn102 2.020 . S
N106 C105 1.336 . S
N106 N107 1.354 . S
N107 C103 1.336 . S
N107 N106 1.354 . S
N107 Zn111 2.020 . S
C108 O109 1.244 . S
C108 O132 1.257 . S
O109 C108 1.244 . S
O110 Zn102 2.019 . S
O110 C130 1.257 . S
Zn111 N107 2.020 . S
Zn111 O118 1.975 . S
Zn111 N127 2.119 . S
Zn111 O132 2.019 . S
N112 Zn102 2.119 . S
N112 C114 1.334 . S
N112 C115 1.328 . S
C113 C114 1.391 . S
C113 N116 1.329 . S
C113 H134 0.930 . S
C114 N112 1.334 . S
C114 C113 1.391 . S
C114 H121 0.930 . S
C115 N112 1.328 . S
C115 C117 1.392 . S
C115 H122 0.930 . S
N116 C113 1.329 . S
N116 C117 1.331 . S
C117 C115 1.392 . S
C117 N116 1.331 . S
O118 Zn111 1.975 . S
O118 C119 1.252 . S
C119 O118 1.252 . S
C119 O120 1.252 . S
O120 Zn102 1.975 . S
O120 C119 1.252 . S
H121 C114 0.930 . S
H122 C115 0.930 . S
C123 C124 1.392 . S
C123 N127 1.328 . S
C123 H129 0.930 . S
C124 C123 1.392 . S
C124 N128 1.331 . S
C125 C126 1.391 . S
C125 N128 1.329 . S
C125 H135 0.930 . S
C126 C125 1.391 . S
C126 N127 1.334 . S
C126 H133 0.930 . S
N127 Zn111 2.119 . S
N127 C123 1.328 . S
N127 C126 1.334 . S
N128 C124 1.331 . S
N128 C125 1.329 . S
H129 C123 0.930 . S
C130 O110 1.257 . S
C130 O131 1.244 . S
O131 C130 1.244 . S
O132 C108 1.257 . S
O132 Zn111 2.019 . S
H133 C126 0.930 . S
H134 C113 0.930 . S
H135 C125 0.930 . S
Zn136 N140 2.020 . S
Zn136 O144 2.019 . S
Zn136 N146 2.119 . S
Zn136 O154 1.975 . S
C137 N138 1.334 . S
C137 N141 1.336 . S
N138 C137 1.334 . S
N138 C139 1.334 . S
C139 N138 1.334 . S
C139 N140 1.336 . S
N140 Zn136 2.020 . S
N140 C139 1.336 . S
N140 N141 1.354 . S
N141 C137 1.336 . S
N141 N140 1.354 . S
N141 Zn145 2.020 . S
C142 O143 1.244 . S
C142 O166 1.257 . S
O143 C142 1.244 . S
O144 Zn136 2.019 . S
O144 C164 1.257 . S
Zn145 N141 2.020 . S
Zn145 O152 1.975 . S
Zn145 N161 2.119 . S
Zn145 O166 2.019 . S
N146 Zn136 2.119 . S
N146 C148 1.334 . S
N146 C149 1.328 . S
C147 C148 1.391 . S
C147 N150 1.329 . S
C147 H168 0.930 . S
C148 N146 1.334 . S
C148 C147 1.391 . S
C148 H155 0.930 . S
C149 N146 1.328 . S
C149 C151 1.392 . S
C149 H156 0.930 . S
N150 C147 1.329 . S
N150 C151 1.331 . S
C151 C149 1.392 . S
C151 N150 1.331 . S
O152 Zn145 1.975 . S
O152 C153 1.252 . S
C153 O152 1.252 . S
C153 O154 1.252 . S
O154 Zn136 1.975 . S
O154 C153 1.252 . S
H155 C148 0.930 . S
H156 C149 0.930 . S
C157 C158 1.392 . S
C157 N161 1.328 . S
C157 H163 0.930 . S
C158 C157 1.392 . S
C158 N162 1.331 . S
C159 C160 1.391 . S
C159 N162 1.329 . S
C159 H169 0.930 . S
C160 C159 1.391 . S
C160 N161 1.334 . S
C160 H167 0.930 . S
N161 Zn145 2.119 . S
N161 C157 1.328 . S
N161 C160 1.334 . S
N162 C158 1.331 . S
N162 C159 1.329 . S
H163 C157 0.930 . S
C164 O144 1.257 . S
C164 O165 1.244 . S
O165 C164 1.244 . S
O166 C142 1.257 . S
O166 Zn145 2.019 . S
H167 C160 0.930 . S
H168 C147 0.930 . S
H169 C159 0.930 . S
Zn170 N174 2.020 . S
Zn170 O178 2.019 . S
Zn170 N180 2.119 . S
Zn170 O188 1.975 . S
C171 N172 1.334 . S
C171 N175 1.336 . S
N172 C171 1.334 . S
N172 C173 1.334 . S
C173 N172 1.334 . S
C173 N174 1.336 . S
N174 Zn170 2.020 . S
N174 C173 1.336 . S
N174 N175 1.354 . S
N175 C171 1.336 . S
N175 N174 1.354 . S
N175 Zn179 2.020 . S
C176 O177 1.244 . S
C176 O200 1.257 . S
O177 C176 1.244 . S
O178 Zn170 2.019 . S
O178 C198 1.257 . S
Zn179 N175 2.020 . S
Zn179 O186 1.975 . S
Zn179 N195 2.119 . S
Zn179 O200 2.019 . S
N180 Zn170 2.119 . S
N180 C182 1.334 . S
N180 C183 1.328 . S
C181 C182 1.391 . S
C181 N184 1.329 . S
C181 H202 0.930 . S
C182 N180 1.334 . S
C182 C181 1.391 . S
C182 H189 0.930 . S
C183 N180 1.328 . S
C183 C185 1.392 . S
C183 H190 0.930 . S
N184 C181 1.329 . S
N184 C185 1.331 . S
C185 C183 1.392 . S
C185 N184 1.331 . S
O186 Zn179 1.975 . S
O186 C187 1.252 . S
C187 O186 1.252 . S
C187 O188 1.252 . S
O188 Zn170 1.975 . S
O188 C187 1.252 . S
H189 C182 0.930 . S
H190 C183 0.930 . S
C191 C192 1.392 . S
C191 N195 1.328 . S
C191 H197 0.930 . S
C192 C191 1.392 . S
C192 N196 1.331 . S
C193 C194 1.391 . S
C193 N196 1.329 . S
C193 H203 0.930 . S
C194 C193 1.391 . S
C194 N195 1.334 . S
C194 H201 0.930 . S
N195 Zn179 2.119 . S
N195 C191 1.328 . S
N195 C194 1.334 . S
N196 C192 1.331 . S
N196 C193 1.329 . S
H197 C191 0.930 . S
C198 O178 1.257 . S
C198 O199 1.244 . S
O199 C198 1.244 . S
O200 C176 1.257 . S
O200 Zn179 2.019 . S
H201 C194 0.930 . S
H202 C181 0.930 . S
H203 C193 0.930 . S
Zn204 N208 2.020 . S
Zn204 O212 2.019 . S
Zn204 N214 2.119 . S
Zn204 O222 1.975 . S
C205 N206 1.334 . S
C205 N209 1.336 . S
N206 C205 1.334 . S
N206 C207 1.334 . S
C207 N206 1.334 . S
C207 N208 1.336 . S
N208 Zn204 2.020 . S
N208 C207 1.336 . S
N208 N209 1.354 . S
N209 C205 1.336 . S
N209 N208 1.354 . S
N209 Zn213 2.020 . S
C210 O211 1.244 . S
C210 O234 1.257 . S
O211 C210 1.244 . S
O212 Zn204 2.019 . S
O212 C232 1.257 . S
Zn213 N209 2.020 . S
Zn213 O220 1.975 . S
Zn213 N229 2.119 . S
Zn213 O234 2.019 . S
N214 Zn204 2.119 . S
N214 C216 1.334 . S
N214 C217 1.328 . S
C215 C216 1.391 . S
C215 N218 1.329 . S
C215 H236 0.930 . S
C216 N214 1.334 . S
C216 C215 1.391 . S
C216 H223 0.930 . S
C217 N214 1.328 . S
C217 C219 1.392 . S
C217 H224 0.930 . S
N218 C215 1.329 . S
N218 C219 1.331 . S
C219 C217 1.392 . S
C219 N218 1.331 . S
O220 Zn213 1.975 . S
O220 C221 1.252 . S
C221 O220 1.252 . S
C221 O222 1.252 . S
O222 Zn204 1.975 . S
O222 C221 1.252 . S
H223 C216 0.930 . S
H224 C217 0.930 . S
C225 C226 1.392 . S
C225 N229 1.328 . S
C225 H231 0.930 . S
C226 C225 1.392 . S
C226 N230 1.331 . S
C227 C228 1.391 . S
C227 N230 1.329 . S
C227 H237 0.930 . S
C228 C227 1.391 . S
C228 N229 1.334 . S
C228 H235 0.930 . S
N229 Zn213 2.119 . S
N229 C225 1.328 . S
N229 C228 1.334 . S
N230 C226 1.331 . S
N230 C227 1.329 . S
H231 C225 0.930 . S
C232 O212 1.257 . S
C232 O233 1.244 . S
O233 C232 1.244 . S
O234 C210 1.257 . S
O234 Zn213 2.019 . S
H235 C228 0.930 . S
H236 C215 0.930 . S
H237 C227 0.930 . S
Zn238 N242 2.020 . S
Zn238 O246 2.019 . S
Zn238 N248 2.119 . S
Zn238 O256 1.975 . S
C239 N240 1.334 . S
C239 N243 1.336 . S
N240 C239 1.334 . S
N240 C241 1.334 . S
C241 N240 1.334 . S
C241 N242 1.336 . S
N242 Zn238 2.020 . S
N242 C241 1.336 . S
N242 N243 1.354 . S
N243 C239 1.336 . S
N243 N242 1.354 . S
N243 Zn247 2.020 . S
C244 O245 1.244 . S
C244 O268 1.257 . S
O245 C244 1.244 . S
O246 Zn238 2.019 . S
O246 C266 1.257 . S
Zn247 N243 2.020 . S
Zn247 O254 1.975 . S
Zn247 N263 2.119 . S
Zn247 O268 2.019 . S
N248 Zn238 2.119 . S
N248 C250 1.334 . S
N248 C251 1.328 . S
C249 C250 1.391 . S
C249 N252 1.329 . S
C249 H270 0.930 . S
C250 N248 1.334 . S
C250 C249 1.391 . S
C250 H257 0.930 . S
C251 N248 1.328 . S
C251 C253 1.392 . S
C251 H258 0.930 . S
N252 C249 1.329 . S
N252 C253 1.331 . S
C253 C251 1.392 . S
C253 N252 1.331 . S
O254 Zn247 1.975 . S
O254 C255 1.252 . S
C255 O254 1.252 . S
C255 O256 1.252 . S
O256 Zn238 1.975 . S
O256 C255 1.252 . S
H257 C250 0.930 . S
H258 C251 0.930 . S
C259 C260 1.392 . S
C259 N263 1.328 . S
C259 H265 0.930 . S
C260 C259 1.392 . S
C260 N264 1.331 . S
C261 C262 1.391 . S
C261 N264 1.329 . S
C261 H271 0.930 . S
C262 C261 1.391 . S
C262 N263 1.334 . S
C262 H269 0.930 . S
N263 Zn247 2.119 . S
N263 C259 1.328 . S
N263 C262 1.334 . S
N264 C260 1.331 . S
N264 C261 1.329 . S
H265 C259 0.930 . S
C266 O246 1.257 . S
C266 O267 1.244 . S
O267 C266 1.244 . S
O268 C244 1.257 . S
O268 Zn247 2.019 . S
H269 C262 0.930 . S
H270 C249 0.930 . S
H271 C261 0.930 . S
Zn272 N276 2.020 . S
Zn272 O280 2.019 . S
Zn272 N282 2.119 . S
Zn272 O290 1.975 . S
C273 N274 1.334 . S
C273 N277 1.336 . S
N274 C273 1.334 . S
N274 C275 1.334 . S
C275 N274 1.334 . S
C275 N276 1.336 . S
N276 Zn272 2.020 . S
N276 C275 1.336 . S
N276 N277 1.354 . S
N277 C273 1.336 . S
N277 N276 1.354 . S
N277 Zn281 2.020 . S
C278 O279 1.244 . S
C278 O302 1.257 . S
O279 C278 1.244 . S
O280 Zn272 2.019 . S
O280 C300 1.257 . S
Zn281 N277 2.020 . S
Zn281 O288 1.975 . S
Zn281 N297 2.119 . S
Zn281 O302 2.019 . S
N282 Zn272 2.119 . S
N282 C284 1.334 . S
N282 C285 1.328 . S
C283 C284 1.391 . S
C283 N286 1.329 . S
C283 H304 0.930 . S
C284 N282 1.334 . S
C284 C283 1.391 . S
C284 H291 0.930 . S
C285 N282 1.328 . S
C285 C287 1.392 . S
C285 H292 0.930 . S
N286 C283 1.329 . S
N286 C287 1.331 . S
C287 C285 1.392 . S
C287 N286 1.331 . S
O288 Zn281 1.975 . S
O288 C289 1.252 . S
C289 O288 1.252 . S
C289 O290 1.252 . S
O290 Zn272 1.975 . S
O290 C289 1.252 . S
H291 C284 0.930 . S
H292 C285 0.930 . S
C293 C294 1.392 . S
C293 N297 1.328 . S
C293 H299 0.930 . S
C294 C293 1.392 . S
C294 N298 1.331 . S
C295 C296 1.391 . S
C295 N298 1.329 . S
C295 H305 0.930 . S
C296 C295 1.391 . S
C296 N297 1.334 . S
C296 H303 0.930 . S
N297 Zn281 2.119 . S
N297 C293 1.328 . S
N297 C296 1.334 . S
N298 C294 1.331 . S
N298 C295 1.329 . S
H299 C293 0.930 . S
C300 O280 1.257 . S
C300 O301 1.244 . S
O301 C300 1.244 . S
O302 C278 1.257 . S
O302 Zn281 2.019 . S
H303 C296 0.930 . S
H304 C283 0.930 . S
H305 C295 0.930 . S
Zn306 N310 2.020 . S
Zn306 O314 2.019 . S
Zn306 N316 2.119 . S
Zn306 O324 1.975 . S
C307 N308 1.334 . S
C307 N311 1.336 . S
N308 C307 1.334 . S
N308 C309 1.334 . S
C309 N308 1.334 . S
C309 N310 1.336 . S
N310 Zn306 2.020 . S
N310 C309 1.336 . S
N310 N311 1.354 . S
N311 C307 1.336 . S
N311 N310 1.354 . S
N311 Zn315 2.020 . S
C312 O313 1.244 . S
C312 O336 1.257 . S
O313 C312 1.244 . S
O314 Zn306 2.019 . S
O314 C334 1.257 . S
Zn315 N311 2.020 . S
Zn315 O322 1.975 . S
Zn315 N331 2.119 . S
Zn315 O336 2.019 . S
N316 Zn306 2.119 . S
N316 C318 1.334 . S
N316 C319 1.328 . S
C317 C318 1.391 . S
C317 N320 1.329 . S
C317 H338 0.930 . S
C318 N316 1.334 . S
C318 C317 1.391 . S
C318 H325 0.930 . S
C319 N316 1.328 . S
C319 C321 1.392 . S
C319 H326 0.930 . S
N320 C317 1.329 . S
N320 C321 1.331 . S
C321 C319 1.392 . S
C321 N320 1.331 . S
O322 Zn315 1.975 . S
O322 C323 1.252 . S
C323 O322 1.252 . S
C323 O324 1.252 . S
O324 Zn306 1.975 . S
O324 C323 1.252 . S
H325 C318 0.930 . S
H326 C319 0.930 . S
C327 C328 1.392 . S
C327 N331 1.328 . S
C327 H333 0.930 . S
C328 C327 1.392 . S
C328 N332 1.331 . S
C329 C330 1.391 . S
C329 N332 1.329 . S
C329 H339 0.930 . S
C330 C329 1.391 . S
C330 N331 1.334 . S
C330 H337 0.930 . S
N331 Zn315 2.119 . S
N331 C327 1.328 . S
N331 C330 1.334 . S
N332 C328 1.331 . S
N332 C329 1.329 . S
H333 C327 0.930 . S
C334 O314 1.257 . S
C334 O335 1.244 . S
O335 C334 1.244 . S
O336 C312 1.257 . S
O336 Zn315 2.019 . S
H337 C330 0.930 . S
H338 C317 0.930 . S
H339 C329 0.930 . S
Zn340 N344 2.020 . S
Zn340 O348 2.019 . S
Zn340 N350 2.119 . S
Zn340 O358 1.975 . S
C341 N342 1.334 . S
C341 N345 1.336 . S
N342 C341 1.334 . S
N342 C343 1.334 . S
C343 N342 1.334 . S
C343 N344 1.336 . S
N344 Zn340 2.020 . S
N344 C343 1.336 . S
N344 N345 1.354 . S
N345 C341 1.336 . S
N345 N344 1.354 . S
N345 Zn349 2.020 . S
C346 O347 1.244 . S
C346 O370 1.257 . S
O347 C346 1.244 . S
O348 Zn340 2.019 . S
O348 C368 1.257 . S
Zn349 N345 2.020 . S
Zn349 O356 1.975 . S
Zn349 N365 2.119 . S
Zn349 O370 2.019 . S
N350 Zn340 2.119 . S
N350 C352 1.334 . S
N350 C353 1.328 . S
C351 C352 1.391 . S
C351 N354 1.329 . S
C351 H372 0.930 . S
C352 N350 1.334 . S
C352 C351 1.391 . S
C352 H359 0.930 . S
C353 N350 1.328 . S
C353 C355 1.392 . S
C353 H360 0.930 . S
N354 C351 1.329 . S
N354 C355 1.331 . S
C355 C353 1.392 . S
C355 N354 1.331 . S
O356 Zn349 1.975 . S
O356 C357 1.252 . S
C357 O356 1.252 . S
C357 O358 1.252 . S
O358 Zn340 1.975 . S
O358 C357 1.252 . S
H359 C352 0.930 . S
H360 C353 0.930 . S
C361 C362 1.392 . S
C361 N365 1.328 . S
C361 H367 0.930 . S
C362 C361 1.392 . S
C362 N366 1.331 . S
C363 C364 1.391 . S
C363 N366 1.329 . S
C363 H373 0.930 . S
C364 C363 1.391 . S
C364 N365 1.334 . S
C364 H371 0.930 . S
N365 Zn349 2.119 . S
N365 C361 1.328 . S
N365 C364 1.334 . S
N366 C362 1.331 . S
N366 C363 1.329 . S
H367 C361 0.930 . S
C368 O348 1.257 . S
C368 O369 1.244 . S
O369 C368 1.244 . S
O370 C346 1.257 . S
O370 Zn349 2.019 . S
H371 C364 0.930 . S
H372 C351 0.930 . S
H373 C363 0.930 . S
Zn374 N378 2.020 . S
Zn374 O382 2.019 . S
Zn374 N384 2.119 . S
Zn374 O392 1.975 . S
C375 N376 1.334 . S
C375 N379 1.336 . S
N376 C375 1.334 . S
N376 C377 1.334 . S
C377 N376 1.334 . S
C377 N378 1.336 . S
N378 Zn374 2.020 . S
N378 C377 1.336 . S
N378 N379 1.354 . S
N379 C375 1.336 . S
N379 N378 1.354 . S
N379 Zn383 2.020 . S
C380 O381 1.244 . S
C380 O404 1.257 . S
O381 C380 1.244 . S
O382 Zn374 2.019 . S
O382 C402 1.257 . S
Zn383 N379 2.020 . S
Zn383 O390 1.975 . S
Zn383 N399 2.119 . S
Zn383 O404 2.019 . S
N384 Zn374 2.119 . S
N384 C386 1.334 . S
N384 C387 1.328 . S
C385 C386 1.391 . S
C385 N388 1.329 . S
C385 H406 0.930 . S
C386 N384 1.334 . S
C386 C385 1.391 . S
C386 H393 0.930 . S
C387 N384 1.328 . S
C387 C389 1.392 . S
C387 H394 0.930 . S
N388 C385 1.329 . S
N388 C389 1.331 . S
C389 C387 1.392 . S
C389 N388 1.331 . S
O390 Zn383 1.975 . S
O390 C391 1.252 . S
C391 O390 1.252 . S
C391 O392 1.252 . S
O392 Zn374 1.975 . S
O392 C391 1.252 . S
H393 C386 0.930 . S
H394 C387 0.930 . S
C395 C396 1.392 . S
C395 N399 1.328 . S
C395 H401 0.930 . S
C396 C395 1.392 . S
C396 N400 1.331 . S
C397 C398 1.391 . S
C397 N400 1.329 . S
C397 H407 0.930 . S
C398 C397 1.391 . S
C398 N399 1.334 . S
C398 H405 0.930 . S
N399 Zn383 2.119 . S
N399 C395 1.328 . S
N399 C398 1.334 . S
N400 C396 1.331 . S
N400 C397 1.329 . S
H401 C395 0.930 . S
C402 O382 1.257 . S
C402 O403 1.244 . S
O403 C402 1.244 . S
O404 C380 1.257 . S
O404 Zn383 2.019 . S
H405 C398 0.930 . S
H406 C385 0.930 . S
H407 C397 0.930 . S
H408 C416 0.950 . S
H409 C421 0.950 . S
H410 C418 0.950 . S
H411 C420 0.950 . S
H412 C422 0.950 . S
H413 C424 0.950 1_556 S
H414 C426 0.955 . S
H415 C427 0.950 . S
C416 H408 0.950 . S
C416 C417 1.386 . S
C416 C418 1.391 . S
C417 C416 1.386 . S
C417 C421 1.393 . S
C418 H410 0.950 . S
C418 C416 1.391 . S
C418 C419 1.400 . S
C419 C418 1.400 . S
C419 C420 1.398 . S
C419 C425 1.491 1_556 S
C420 H411 0.950 . S
C420 C419 1.398 . S
C420 C421 1.391 . S
C421 H409 0.950 . S
C421 C417 1.393 . S
C421 C420 1.391 . S
C422 H412 0.950 . S
C422 C423 1.386 . S
C422 C424 1.391 . S
C423 C422 1.386 . S
C423 C427 1.393 . S
C424 H413 0.950 1_554 S
C424 C422 1.391 . S
C424 C425 1.400 1_545 S
C425 C419 1.491 1_554 S
C425 C424 1.400 1_565 S
C425 C426 1.404 . S
C426 H414 0.955 . S
C426 C425 1.404 . S
C426 C427 1.380 1_565 S
C427 H415 0.950 . S
C427 C423 1.393 . S
C427 C426 1.380 1_545 S
H428 C436 0.950 . S
H429 C441 0.950 . S
H430 C438 0.950 . S
H431 C440 0.950 . S
H432 C442 0.950 . S
H433 C444 0.950 . S
H434 C446 0.950 1_554 S
H435 C447 0.950 . S
C436 H428 0.950 . S
C436 C437 1.386 . S
C436 C438 1.391 1_655 S
C437 C436 1.386 . S
C437 C441 1.393 . S
C438 H430 0.950 . S
C438 C436 1.391 1_455 S
C438 C439 1.400 . S
C439 C438 1.400 . S
C439 C440 1.398 1_454 S
C439 C445 1.491 1_554 S
C440 H431 0.950 . S
C440 C439 1.398 1_656 S
C440 C441 1.391 1_556 S
C441 H429 0.950 . S
C441 C437 1.393 . S
C441 C440 1.391 1_554 S
C442 H432 0.950 . S
C442 C443 1.386 . S
C442 C444 1.391 . S
C443 C442 1.386 . S
C443 C447 1.393 . S
C444 H433 0.950 . S
C444 C442 1.391 . S
C444 C445 1.400 . S
C445 C439 1.491 1_556 S
C445 C444 1.400 . S
C445 C446 1.398 . S
C446 H434 0.950 1_556 S
C446 C445 1.398 . S
C446 C447 1.391 . S
C447 H435 0.950 . S
C447 C443 1.393 . S
C447 C446 1.391 . S
H448 C456 0.950 . S
H449 C461 0.950 . S
H450 C458 0.950 . S
H451 C460 0.950 . S
H452 C462 0.950 . S
H453 C464 0.950 . S
H454 C466 0.970 . S
H455 C467 0.950 . S
C456 H448 0.950 . S
C456 C457 1.386 . S
C456 C458 1.391 . S
C457 C456 1.386 . S
C457 C461 1.393 . S
C458 H450 0.950 . S
C458 C456 1.391 . S
C458 C459 1.400 . S
C459 C458 1.400 . S
C459 C460 1.398 1_554 S
C459 C465 1.491 1_554 S
C460 H451 0.950 . S
C460 C459 1.398 1_556 S
C460 C461 1.391 1_556 S
C461 H449 0.950 . S
C461 C457 1.393 . S
C461 C460 1.391 1_554 S
C462 H452 0.950 . S
C462 C463 1.386 . S
C462 C464 1.391 . S
C463 C462 1.386 . S
C463 C467 1.393 . S
C464 H453 0.950 . S
C464 C462 1.391 . S
C464 C465 1.400 . S
C465 C459 1.491 1_556 S
C465 C464 1.400 . S
C465 C466 1.398 . S
C466 H454 0.970 . S
C466 C465 1.398 . S
C466 C467 1.391 . S
C467 H455 0.950 . S
C467 C463 1.393 . S
C467 C466 1.391 . S
H468 C476 0.950 . S
H469 C481 0.950 . S
H470 C478 0.950 . S
H471 C480 0.921 1_655 S
H472 C482 0.950 . S
H473 C484 0.950 . S
H474 C486 0.950 . S
H475 C487 0.950 . S
C476 H468 0.950 . S
C476 C477 1.386 . S
C476 C478 1.391 . S
C477 C476 1.386 . S
C477 C481 1.393 . S
C478 H470 0.950 . S
C478 C476 1.391 . S
C478 C479 1.367 1_455 S
C479 C478 1.367 1_655 S
C479 C480 1.404 1_655 S
C479 C485 1.518 . S
C480 H471 0.921 1_455 S
C480 C479 1.404 1_455 S
C480 C481 1.391 . S
C481 H469 0.950 . S
C481 C477 1.393 . S
C481 C480 1.391 . S
C482 H472 0.950 . S
C482 C483 1.386 . S
C482 C484 1.391 . S
C483 C482 1.386 . S
C483 C487 1.393 . S
C484 H473 0.950 . S
C484 C482 1.391 . S
C484 C485 1.400 . S
C485 C479 1.518 . S
C485 C484 1.400 . S
C485 C486 1.398 . S
C486 H474 0.950 . S
C486 C485 1.398 . S
C486 C487 1.391 . S
C487 H475 0.950 . S
C487 C483 1.393 . S
C487 C486 1.391 . S
H488 C496 0.950 . S
H489 C501 0.950 . S
H490 C498 0.950 . S
H491 C500 0.950 . S
H492 C502 0.950 . S
H493 C504 0.950 . S
H494 C506 0.950 . S
H495 C507 0.950 . S
C496 H488 0.950 . S
C496 C497 1.386 . S
C496 C498 1.391 . S
C497 C496 1.386 . S
C497 C501 1.393 . S
C498 H490 0.950 . S
C498 C496 1.391 . S
C498 C499 1.400 . S
C499 C498 1.400 . S
C499 C500 1.398 . S
C499 C505 1.491 . S
C500 H491 0.950 . S
C500 C499 1.398 . S
C500 C501 1.391 . S
C501 H489 0.950 . S
C501 C497 1.393 . S
C501 C500 1.391 . S
C502 H492 0.950 . S
C502 C503 1.386 . S
C502 C504 1.391 . S
C503 C502 1.386 . S
C503 C507 1.393 . S
C504 H493 0.950 . S
C504 C502 1.391 . S
C504 C505 1.400 . S
C505 C499 1.491 . S
C505 C504 1.400 . S
C505 C506 1.398 . S
C506 H494 0.950 . S
C506 C505 1.398 . S
C506 C507 1.391 . S
C507 H495 0.950 . S
C507 C503 1.393 . S
C507 C506 1.391 . S
H508 C516 0.950 . S
H509 C521 0.950 . S
H510 C518 0.950 . S
H511 C520 0.950 . S
H512 C522 0.950 . S
H513 C524 0.950 . S
H514 C526 0.950 . S
H515 C527 0.950 . S
C516 H508 0.950 . S
C516 C517 1.386 . S
C516 C518 1.391 1_565 S
C517 C516 1.386 . S
C517 C521 1.393 . S
C518 H510 0.950 . S
C518 C516 1.391 1_545 S
C518 C519 1.400 . S
C519 C518 1.400 . S
C519 C520 1.398 1_545 S
C519 C525 1.491 . S
C520 H511 0.950 . S
C520 C519 1.398 1_565 S
C520 C521 1.391 . S
C521 H509 0.950 . S
C521 C517 1.393 . S
C521 C520 1.391 . S
C522 H512 0.950 . S
C522 C523 1.386 . S
C522 C524 1.391 . S
C523 C522 1.386 . S
C523 C527 1.393 . S
C524 H513 0.950 . S
C524 C522 1.391 . S
C524 C525 1.400 . S
C525 C519 1.491 . S
C525 C524 1.400 . S
C525 C526 1.398 . S
C526 H514 0.950 . S
C526 C525 1.398 . S
C526 C527 1.391 . S
C527 H515 0.950 . S
C527 C523 1.393 . S
C527 C526 1.391 . S
H528 C536 0.950 . S
H529 C541 0.950 . S
H530 C538 0.950 . S
H531 C540 0.950 . S
H532 C542 0.950 . S
H533 C544 0.950 . S
H534 C546 0.939 1_556 S
H535 C547 0.950 . S
C536 H528 0.950 . S
C536 C537 1.386 . S
C536 C538 1.391 1_565 S
C537 C536 1.386 . S
C537 C541 1.393 . S
C538 H530 0.950 . S
C538 C536 1.391 1_545 S
C538 C539 1.400 . S
C539 C538 1.400 . S
C539 C540 1.398 1_546 S
C539 C545 1.491 1_556 S
C540 H531 0.950 . S
C540 C539 1.398 1_564 S
C540 C541 1.391 1_554 S
C541 H529 0.950 . S
C541 C537 1.393 . S
C541 C540 1.391 1_556 S
C542 H532 0.950 . S
C542 C543 1.386 . S
C542 C544 1.391 . S
C543 C542 1.386 . S
C543 C547 1.393 . S
C544 H533 0.950 . S
C544 C542 1.391 . S
C544 C545 1.400 . S
C545 C539 1.491 1_554 S
C545 C544 1.400 . S
C545 C546 1.398 . S
C546 H534 0.939 1_554 S
C546 C545 1.398 . S
C546 C547 1.391 . S
C547 H535 0.950 . S
C547 C543 1.393 . S
C547 C546 1.391 . S
H548 C556 0.950 . S
H549 C561 0.950 . S
H550 C558 0.950 . S
H551 C560 0.950 . S
H552 C562 0.950 . S
H553 C564 0.950 1_556 S
H554 C566 0.987 . S
H555 C567 0.950 . S
C556 H548 0.950 . S
C556 C557 1.386 . S
C556 C558 1.391 1_556 S
C557 C556 1.386 . S
C557 C561 1.393 . S
C558 H550 0.950 . S
C558 C556 1.391 1_554 S
C558 C559 1.400 1_454 S
C559 C558 1.400 1_656 S
C559 C560 1.398 . S
C559 C565 1.491 1_556 S
C560 H551 0.950 . S
C560 C559 1.398 . S
C560 C561 1.391 1_655 S
C561 H549 0.950 . S
C561 C557 1.393 . S
C561 C560 1.391 1_455 S
C562 H552 0.950 . S
C562 C563 1.386 . S
C562 C564 1.391 . S
C563 C562 1.386 . S
C563 C567 1.393 . S
C564 H553 0.950 1_554 S
C564 C562 1.391 . S
C564 C565 1.400 . S
C565 C559 1.491 1_554 S
C565 C564 1.400 . S
C565 C566 1.398 . S
C566 H554 0.987 . S
C566 C565 1.398 . S
C566 C567 1.391 . S
C567 H555 0.950 . S
C567 C563 1.393 . S
C567 C566 1.391 . S
H568 C576 0.950 . S
H569 C581 0.950 . S
H570 C578 0.950 1_556 S
H571 C580 0.950 . S
H572 C582 0.950 . S
H573 C584 0.950 . S
H574 C586 0.950 . S
H575 C587 0.950 . S
C576 H568 0.950 . S
C576 C577 1.386 . S
C576 C578 1.391 . S
C577 C576 1.386 . S
C577 C581 1.393 . S
C578 H570 0.950 1_554 S
C578 C576 1.391 . S
C578 C579 1.400 . S
C579 C578 1.400 . S
C579 C580 1.398 . S
C579 C585 1.491 1_554 S
C580 H571 0.950 . S
C580 C579 1.398 . S
C580 C581 1.391 . S
C581 H569 0.950 . S
C581 C577 1.393 . S
C581 C580 1.391 . S
C582 H572 0.950 . S
C582 C583 1.386 . S
C582 C584 1.391 1_556 S
C583 C582 1.386 . S
C583 C587 1.393 . S
C584 H573 0.950 . S
C584 C582 1.391 1_554 S
C584 C585 1.400 1_554 S
C585 C579 1.491 1_556 S
C585 C584 1.400 1_556 S
C585 C586 1.398 . S
C586 H574 0.950 . S
C586 C585 1.398 . S
C586 C587 1.391 . S
C587 H575 0.950 . S
C587 C583 1.393 . S
C587 C586 1.391 . S
H588 C596 0.950 . S
H589 C601 0.950 . S
H590 C598 0.950 . S
H591 C600 0.950 . S
H592 C602 0.950 . S
H593 C604 0.950 . S
H594 C606 0.950 . S
H595 C607 0.950 . S
C596 H588 0.950 . S
C596 C597 1.386 . S
C596 C598 1.391 1_655 S
C597 C596 1.386 . S
C597 C601 1.393 . S
C598 H590 0.950 . S
C598 C596 1.391 1_455 S
C598 C599 1.400 . S
C599 C598 1.400 . S
C599 C600 1.398 1_455 S
C599 C605 1.491 . S
C600 H591 0.950 . S
C600 C599 1.398 1_655 S
C600 C601 1.391 . S
C601 H589 0.950 . S
C601 C597 1.393 . S
C601 C600 1.391 . S
C602 H592 0.950 . S
C602 C603 1.386 . S
C602 C604 1.391 . S
C603 C602 1.386 . S
C603 C607 1.393 . S
C604 H593 0.950 . S
C604 C602 1.391 . S
C604 C605 1.400 . S
C605 C599 1.491 . S
C605 C604 1.400 . S
C605 C606 1.398 . S
C606 H594 0.950 . S
C606 C605 1.398 . S
C606 C607 1.391 . S
C607 H595 0.950 . S
C607 C603 1.393 . S
C607 C606 1.391 . S
H608 C616 0.950 . S
H609 C621 0.950 . S
H610 C618 0.950 . S
H611 C620 0.950 . S
H612 C622 0.950 . S
H613 C624 0.950 . S
H614 C626 0.950 . S
H615 C627 0.950 . S
C616 H608 0.950 . S
C616 C617 1.386 . S
C616 C618 1.391 . S
C617 C616 1.386 . S
C617 C621 1.393 . S
C618 H610 0.950 . S
C618 C616 1.391 . S
C618 C619 1.400 . S
C619 C618 1.400 . S
C619 C620 1.398 . S
C619 C625 1.491 . S
C620 H611 0.950 . S
C620 C619 1.398 . S
C620 C621 1.391 . S
C621 H609 0.950 . S
C621 C617 1.393 . S
C621 C620 1.391 . S
C622 H612 0.950 . S
C622 C623 1.386 . S
C622 C624 1.391 . S
C623 C622 1.386 . S
C623 C627 1.393 . S
C624 H613 0.950 . S
C624 C622 1.391 . S
C624 C625 1.400 . S
C625 C619 1.491 . S
C625 C624 1.400 . S
C625 C626 1.398 . S
C626 H614 0.950 . S
C626 C625 1.398 . S
C626 C627 1.391 . S
C627 H615 0.950 . S
C627 C623 1.393 . S
C627 C626 1.391 . S
H628 C636 0.950 . S
H629 C641 0.950 . S
H630 C638 0.950 . S
H631 C640 0.950 . S
H632 C642 0.950 . S
H633 C644 0.959 . S
H634 C646 0.950 . S
H635 C647 0.950 . S
C636 H628 0.950 . S
C636 C637 1.386 . S
C636 C638 1.391 . S
C637 C636 1.386 . S
C637 C641 1.393 . S
C638 H630 0.950 . S
C638 C636 1.391 . S
C638 C639 1.400 . S
C639 C638 1.400 . S
C639 C640 1.398 . S
C639 C645 1.491 . S
C640 H631 0.950 . S
C640 C639 1.398 . S
C640 C641 1.391 . S
C641 H629 0.950 . S
C641 C637 1.393 . S
C641 C640 1.391 . S
C642 H632 0.950 . S
C642 C643 1.386 . S
C642 C644 1.386 1_545 S
C643 C642 1.386 . S
C643 C647 1.393 . S
C644 H633 0.959 . S
C644 C642 1.386 1_565 S
C644 C645 1.397 . S
C645 C639 1.491 . S
C645 C644 1.397 . S
C645 C646 1.398 1_565 S
C646 H634 0.950 . S
C646 C645 1.398 1_545 S
C646 C647 1.391 . S
C647 H635 0.950 . S
C647 C643 1.393 . S
C647 C646 1.391 . S
H648 C656 0.950 . S
H649 C661 0.950 . S
H650 C658 0.950 . S
H651 C660 0.950 . S
H652 C662 0.950 . S
H653 C664 0.950 . S
H654 C666 0.950 . S
H655 C667 0.950 . S
C656 H648 0.950 . S
C656 C657 1.386 . S
C656 C658 1.391 . S
C657 C656 1.386 . S
C657 C661 1.393 . S
C658 H650 0.950 . S
C658 C656 1.391 . S
C658 C659 1.400 . S
C659 C658 1.400 . S
C659 C660 1.398 . S
C659 C665 1.491 . S
C660 H651 0.950 . S
C660 C659 1.398 . S
C660 C661 1.391 . S
C661 H649 0.950 . S
C661 C657 1.393 . S
C661 C660 1.391 . S
C662 H652 0.950 . S
C662 C663 1.386 . S
C662 C664 1.391 . S
C663 C662 1.386 . S
C663 C667 1.393 . S
C664 H653 0.950 . S
C664 C662 1.391 . S
C664 C665 1.400 . S
C665 C659 1.491 . S
C665 C664 1.400 . S
C665 C666 1.398 . S
C666 H654 0.950 . S
C666 C665 1.398 . S
C666 C667 1.391 . S
C667 H655 0.950 . S
C667 C663 1.393 . S
C667 C666 1.391 . S
H668 C676 0.950 . S
H669 C681 0.950 . S
H670 C678 0.950 . S
H671 C680 0.950 1_565 S
H672 C682 0.950 . S
H673 C684 0.950 . S
H674 C686 0.950 1_545 S
H675 C687 0.950 . S
C676 H668 0.950 . S
C676 C677 1.386 . S
C676 C678 1.391 . S
C677 C676 1.386 . S
C677 C681 1.393 . S
C678 H670 0.950 . S
C678 C676 1.391 . S
C678 C679 1.400 . S
C679 C678 1.400 . S
C679 C680 1.398 . S
C679 C685 1.491 1_545 S
C680 H671 0.950 1_545 S
C680 C679 1.398 . S
C680 C681 1.391 . S
C681 H669 0.950 . S
C681 C677 1.393 . S
C681 C680 1.391 . S
C682 H672 0.950 . S
C682 C683 1.386 . S
C682 C684 1.391 . S
C683 C682 1.386 . S
C683 C687 1.393 . S
C684 H673 0.950 . S
C684 C682 1.391 . S
C684 C685 1.400 . S
C685 C679 1.491 1_565 S
C685 C684 1.400 . S
C685 C686 1.398 . S
C686 H674 0.950 1_565 S
C686 C685 1.398 . S
C686 C687 1.391 . S
C687 H675 0.950 . S
C687 C683 1.393 . S
C687 C686 1.391 . S
H688 C696 0.950 . S
H689 C701 0.950 . S
H690 C698 0.950 . S
H691 C700 0.950 . S
H692 C702 0.950 . S
H693 C704 0.950 . S
H694 C706 0.950 . S
H695 C707 0.950 . S
C696 H688 0.950 . S
C696 C697 1.386 . S
C696 C698 1.391 . S
C697 C696 1.386 . S
C697 C701 1.393 . S
C698 H690 0.950 . S
C698 C696 1.391 . S
C698 C699 1.400 . S
C699 C698 1.400 . S
C699 C700 1.398 . S
C699 C705 1.491 1_655 S
C700 H691 0.950 . S
C700 C699 1.398 . S
C700 C701 1.391 . S
C701 H689 0.950 . S
C701 C697 1.393 . S
C701 C700 1.391 . S
C702 H692 0.950 . S
C702 C703 1.386 . S
C702 C704 1.391 . S
C703 C702 1.386 . S
C703 C707 1.393 . S
C704 H693 0.950 . S
C704 C702 1.391 . S
C704 C705 1.400 . S
C705 C699 1.491 1_455 S
C705 C704 1.400 . S
C705 C706 1.398 . S
C706 H694 0.950 . S
C706 C705 1.398 . S
C706 C707 1.391 . S
C707 H695 0.950 . S
C707 C703 1.393 . S
C707 C706 1.391 . S
H708 C716 0.950 . S
H709 C721 0.950 . S
H710 C718 0.950 . S
H711 C720 0.950 . S
H712 C722 0.950 . S
H713 C724 0.950 . S
H714 C726 0.950 . S
H715 C727 0.950 . S
C716 H708 0.950 . S
C716 C717 1.386 . S
C716 C718 1.391 . S
C717 C716 1.386 . S
C717 C721 1.393 . S
C718 H710 0.950 . S
C718 C716 1.391 . S
C718 C719 1.400 . S
C719 C718 1.400 . S
C719 C720 1.398 . S
C719 C725 1.491 . S
C720 H711 0.950 . S
C720 C719 1.398 . S
C720 C721 1.391 . S
C721 H709 0.950 . S
C721 C717 1.393 . S
C721 C720 1.391 . S
C722 H712 0.950 . S
C722 C723 1.386 . S
C722 C724 1.391 . S
C723 C722 1.386 . S
C723 C727 1.393 . S
C724 H713 0.950 . S
C724 C722 1.391 . S
C724 C725 1.400 . S
C725 C719 1.491 . S
C725 C724 1.400 . S
C725 C726 1.398 . S
C726 H714 0.950 . S
C726 C725 1.398 . S
C726 C727 1.391 . S
C727 H715 0.950 . S
C727 C723 1.393 . S
C727 C726 1.391 . S
H728 C736 0.950 . S
H729 C741 0.950 . S
H730 C738 0.950 1_565 S
H731 C740 0.950 . S
H732 C742 0.950 . S
H733 C744 0.950 1_545 S
H734 C746 0.950 . S
H735 C747 0.950 . S
C736 H728 0.950 . S
C736 C737 1.386 . S
C736 C738 1.391 . S
C737 C736 1.386 . S
C737 C741 1.393 . S
C738 H730 0.950 1_545 S
C738 C736 1.391 . S
C738 C739 1.400 . S
C739 C738 1.400 . S
C739 C740 1.398 . S
C739 C745 1.491 1_545 S
C740 H731 0.950 . S
C740 C739 1.398 . S
C740 C741 1.391 . S
C741 H729 0.950 . S
C741 C737 1.393 . S
C741 C740 1.391 . S
C742 H732 0.950 . S
C742 C743 1.386 . S
C742 C744 1.391 . S
C743 C742 1.386 . S
C743 C747 1.393 . S
C744 H733 0.950 1_565 S
C744 C742 1.391 . S
C744 C745 1.400 . S
C745 C739 1.491 1_565 S
C745 C744 1.400 . S
C745 C746 1.398 . S
C746 H734 0.950 . S
C746 C745 1.398 . S
C746 C747 1.391 . S
C747 H735 0.950 . S
C747 C743 1.393 . S
C747 C746 1.391 . S
H748 C756 0.950 . S
H749 C761 0.950 . S
H750 C758 0.950 . S
H751 C760 0.950 1_455 S
H752 C762 0.950 . S
H753 C764 0.950 . S
H754 C766 0.950 1_655 S
H755 C767 0.950 . S
C756 H748 0.950 . S
C756 C757 1.386 . S
C756 C758 1.391 . S
C757 C756 1.386 . S
C757 C761 1.393 . S
C758 H750 0.950 . S
C758 C756 1.391 . S
C758 C759 1.400 . S
C759 C758 1.400 . S
C759 C760 1.398 . S
C759 C765 1.491 1_655 S
C760 H751 0.950 1_655 S
C760 C759 1.398 . S
C760 C761 1.391 . S
C761 H749 0.950 . S
C761 C757 1.393 . S
C761 C760 1.391 . S
C762 H752 0.950 . S
C762 C763 1.386 . S
C762 C764 1.391 . S
C763 C762 1.386 . S
C763 C767 1.393 . S
C764 H753 0.950 . S
C764 C762 1.391 . S
C764 C765 1.400 . S
C765 C759 1.491 1_455 S
C765 C764 1.400 . S
C765 C766 1.398 . S
C766 H754 0.950 1_455 S
C766 C765 1.398 . S
C766 C767 1.391 . S
C767 H755 0.950 . S
C767 C763 1.393 . S
C767 C766 1.391 . S
H768 C776 0.950 . S
H769 C781 0.950 . S
H770 C778 0.950 . S
H771 C780 0.950 . S
H772 C782 0.950 . S
H773 C784 0.950 . S
H774 C786 0.950 . S
H775 C787 0.950 . S
C776 H768 0.950 . S
C776 C777 1.386 . S
C776 C778 1.391 . S
C777 C776 1.386 . S
C777 C781 1.393 . S
C778 H770 0.950 . S
C778 C776 1.391 . S
C778 C779 1.400 . S
C779 C778 1.400 . S
C779 C780 1.398 . S
C779 C785 1.491 . S
C780 H771 0.950 . S
C780 C779 1.398 . S
C780 C781 1.391 . S
C781 H769 0.950 . S
C781 C777 1.393 . S
C781 C780 1.391 . S
C782 H772 0.950 . S
C782 C783 1.386 . S
C782 C784 1.391 . S
C783 C782 1.386 . S
C783 C787 1.393 . S
C784 H773 0.950 . S
C784 C782 1.391 . S
C784 C785 1.400 . S
C785 C779 1.491 . S
C785 C784 1.400 . S
C785 C786 1.398 . S
C786 H774 0.950 . S
C786 C785 1.398 . S
C786 C787 1.391 . S
C787 H775 0.950 . S
C787 C783 1.393 . S
C787 C786 1.391 . S
H788 C796 0.950 . S
H789 C801 0.950 . S
H790 C798 0.950 . S
H791 C800 0.950 . S
H792 C802 0.950 . S
H793 C804 0.950 . S
H794 C806 0.950 . S
H795 C807 0.950 . S
C796 H788 0.950 . S
C796 C797 1.386 . S
C796 C798 1.391 . S
C797 C796 1.386 . S
C797 C801 1.393 . S
C798 H790 0.950 . S
C798 C796 1.391 . S
C798 C799 1.400 . S
C799 C798 1.400 . S
C799 C800 1.398 . S
C799 C805 1.491 . S
C800 H791 0.950 . S
C800 C799 1.398 . S
C800 C801 1.391 . S
C801 H789 0.950 . S
C801 C797 1.393 . S
C801 C800 1.391 . S
C802 H792 0.950 . S
C802 C803 1.386 . S
C802 C804 1.391 . S
C803 C802 1.386 . S
C803 C807 1.393 . S
C804 H793 0.950 . S
C804 C802 1.391 . S
C804 C805 1.400 . S
C805 C799 1.491 . S
C805 C804 1.400 . S
C805 C806 1.398 . S
C806 H794 0.950 . S
C806 C805 1.398 . S
C806 C807 1.391 . S
C807 H795 0.950 . S
C807 C803 1.393 . S
C807 C806 1.391 . S
H808 C816 0.950 . S
H809 C821 0.950 . S
H810 C818 0.950 . S
H811 C820 0.950 . S
H812 C822 0.950 . S
H813 C824 0.950 . S
H814 C826 0.950 . S
H815 C827 0.950 . S
C816 H808 0.950 . S
C816 C817 1.386 . S
C816 C818 1.391 . S
C817 C816 1.386 . S
C817 C821 1.393 . S
C818 H810 0.950 . S
C818 C816 1.391 . S
C818 C819 1.400 . S
C819 C818 1.400 . S
C819 C820 1.398 . S
C819 C825 1.491 . S
C820 H811 0.950 . S
C820 C819 1.398 . S
C820 C821 1.391 . S
C821 H809 0.950 . S
C821 C817 1.393 . S
C821 C820 1.391 . S
C822 H812 0.950 . S
C822 C823 1.386 . S
C822 C824 1.391 . S
C823 C822 1.386 . S
C823 C827 1.393 . S
C824 H813 0.950 . S
C824 C822 1.391 . S
C824 C825 1.400 . S
C825 C819 1.491 . S
C825 C824 1.400 . S
C825 C826 1.398 . S
C826 H814 0.950 . S
C826 C825 1.398 . S
C826 C827 1.391 . S
C827 H815 0.950 . S
C827 C823 1.393 . S
C827 C826 1.391 . S
H828 C836 0.950 . S
H829 C841 0.950 . S
H830 C838 0.950 . S
H831 C840 0.950 . S
H832 C842 0.950 . S
H833 C844 0.950 . S
H834 C846 0.950 . S
H835 C847 0.950 . S
C836 H828 0.950 . S
C836 C837 1.386 . S
C836 C838 1.391 . S
C837 C836 1.386 . S
C837 C841 1.393 . S
C838 H830 0.950 . S
C838 C836 1.391 . S
C838 C839 1.400 . S
C839 C838 1.400 . S
C839 C840 1.398 . S
C839 C845 1.491 . S
C840 H831 0.950 . S
C840 C839 1.398 . S
C840 C841 1.391 . S
C841 H829 0.950 . S
C841 C837 1.393 . S
C841 C840 1.391 . S
C842 H832 0.950 . S
C842 C843 1.386 . S
C842 C844 1.391 . S
C843 C842 1.386 . S
C843 C847 1.393 . S
C844 H833 0.950 . S
C844 C842 1.391 . S
C844 C845 1.400 . S
C845 C839 1.491 . S
C845 C844 1.400 . S
C845 C846 1.398 . S
C846 H834 0.950 . S
C846 C845 1.398 . S
C846 C847 1.391 . S
C847 H835 0.950 . S
C847 C843 1.393 . S
C847 C846 1.391 . S
H848 C856 0.950 . S
H849 C861 0.950 . S
H850 C858 0.950 . S
H851 C860 0.950 . S
H852 C862 0.950 . S
H853 C864 0.950 . S
H854 C866 0.950 . S
H855 C867 0.950 . S
C856 H848 0.950 . S
C856 C857 1.386 . S
C856 C858 1.391 . S
C857 C856 1.386 . S
C857 C861 1.393 . S
C858 H850 0.950 . S
C858 C856 1.391 . S
C858 C859 1.400 . S
C859 C858 1.400 . S
C859 C860 1.398 . S
C859 C865 1.491 . S
C860 H851 0.950 . S
C860 C859 1.398 . S
C860 C861 1.391 . S
C861 H849 0.950 . S
C861 C857 1.393 . S
C861 C860 1.391 . S
C862 H852 0.950 . S
C862 C863 1.386 . S
C862 C864 1.391 . S
C863 C862 1.386 . S
C863 C867 1.393 . S
C864 H853 0.950 . S
C864 C862 1.391 . S
C864 C865 1.400 . S
C865 C859 1.491 . S
C865 C864 1.400 . S
C865 C866 1.398 . S
C866 H854 0.950 . S
C866 C865 1.398 . S
C866 C867 1.391 . S
C867 H855 0.950 . S
C867 C863 1.393 . S
C867 C866 1.391 . S
H868 C876 0.950 . S
H869 C881 0.950 . S
H870 C878 0.950 . S
H871 C880 0.950 . S
H872 C882 0.950 . S
H873 C884 0.950 . S
H874 C886 0.950 . S
H875 C887 0.950 . S
C876 H868 0.950 . S
C876 C877 1.386 . S
C876 C878 1.391 . S
C877 C876 1.386 . S
C877 C881 1.393 . S
C878 H870 0.950 . S
C878 C876 1.391 . S
C878 C879 1.400 . S
C879 C878 1.400 . S
C879 C880 1.398 . S
C879 C885 1.491 . S
C880 H871 0.950 . S
C880 C879 1.398 . S
C880 C881 1.391 . S
C881 H869 0.950 . S
C881 C877 1.393 . S
C881 C880 1.391 . S
C882 H872 0.950 . S
C882 C883 1.386 . S
C882 C884 1.391 . S
C883 C882 1.386 . S
C883 C887 1.393 . S
C884 H873 0.950 . S
C884 C882 1.391 . S
C884 C885 1.400 . S
C885 C879 1.491 . S
C885 C884 1.400 . S
C885 C886 1.398 . S
C886 H874 0.950 . S
C886 C885 1.398 . S
C886 C887 1.391 . S
C887 H875 0.950 . S
C887 C883 1.393 . S
C887 C886 1.391 . S
H888 C896 0.950 . S
H889 C901 0.950 . S
H890 C898 0.950 . S
H891 C900 0.950 . S
H892 C902 0.950 . S
H893 C904 0.950 . S
H894 C906 0.950 . S
H895 C907 0.950 . S
C896 H888 0.950 . S
C896 C897 1.386 . S
C896 C898 1.391 . S
C897 C896 1.386 . S
C897 C901 1.393 . S
C898 H890 0.950 . S
C898 C896 1.391 . S
C898 C899 1.400 . S
C899 C898 1.400 . S
C899 C900 1.398 . S
C899 C905 1.491 . S
C900 H891 0.950 . S
C900 C899 1.398 . S
C900 C901 1.391 . S
C901 H889 0.950 . S
C901 C897 1.393 . S
C901 C900 1.391 . S
C902 H892 0.950 . S
C902 C903 1.386 . S
C902 C904 1.391 . S
C903 C902 1.386 . S
C903 C907 1.393 . S
C904 H893 0.950 . S
C904 C902 1.391 . S
C904 C905 1.400 . S
C905 C899 1.491 . S
C905 C904 1.400 . S
C905 C906 1.398 . S
C906 H894 0.950 . S
C906 C905 1.398 . S
C906 C907 1.391 . S
C907 H895 0.950 . S
C907 C903 1.393 . S
C907 C906 1.391 . S
H908 C916 0.950 . S
H909 C921 0.950 . S
H910 C918 0.950 . S
H911 C920 0.950 . S
H912 C922 0.950 . S
H913 C924 0.950 . S
H914 C926 0.950 . S
H915 C927 0.950 . S
C916 H908 0.950 . S
C916 C917 1.386 . S
C916 C918 1.391 . S
C917 C916 1.386 . S
C917 C921 1.393 . S
C918 H910 0.950 . S
C918 C916 1.391 . S
C918 C919 1.400 . S
C919 C918 1.400 . S
C919 C920 1.398 . S
C919 C925 1.491 . S
C920 H911 0.950 . S
C920 C919 1.398 . S
C920 C921 1.391 . S
C921 H909 0.950 . S
C921 C917 1.393 . S
C921 C920 1.391 . S
C922 H912 0.950 . S
C922 C923 1.386 . S
C922 C924 1.391 . S
C923 C922 1.386 . S
C923 C927 1.393 . S
C924 H913 0.950 . S
C924 C922 1.391 . S
C924 C925 1.400 . S
C925 C919 1.491 . S
C925 C924 1.400 . S
C925 C926 1.398 . S
C926 H914 0.950 . S
C926 C925 1.398 . S
C926 C927 1.391 . S
C927 H915 0.950 . S
C927 C923 1.393 . S
C927 C926 1.391 . S
H928 C936 0.950 . S
H929 C941 0.950 . S
H930 C938 0.950 . S
H931 C940 0.950 . S
H932 C942 0.950 . S
H933 C944 0.950 . S
H934 C946 0.950 . S
H935 C947 0.950 . S
C936 H928 0.950 . S
C936 C937 1.386 . S
C936 C938 1.391 . S
C937 C936 1.386 . S
C937 C941 1.393 . S
C938 H930 0.950 . S
C938 C936 1.391 . S
C938 C939 1.400 . S
C939 C938 1.400 . S
C939 C940 1.398 . S
C939 C945 1.491 . S
C940 H931 0.950 . S
C940 C939 1.398 . S
C940 C941 1.391 . S
C941 H929 0.950 . S
C941 C937 1.393 . S
C941 C940 1.391 . S
C942 H932 0.950 . S
C942 C943 1.386 . S
C942 C944 1.391 . S
C943 C942 1.386 . S
C943 C947 1.393 . S
C944 H933 0.950 . S
C944 C942 1.391 . S
C944 C945 1.400 . S
C945 C939 1.491 . S
C945 C944 1.400 . S
C945 C946 1.398 . S
C946 H934 0.950 . S
C946 C945 1.398 . S
C946 C947 1.391 . S
C947 H935 0.950 . S
C947 C943 1.393 . S
C947 C946 1.391 . S
H948 C956 0.950 . S
H949 C961 0.950 . S
H950 C958 0.950 . S
H951 C960 0.950 . S
H952 C962 0.950 . S
H953 C964 0.950 . S
H954 C966 0.950 . S
H955 C967 0.950 . S
C956 H948 0.950 . S
C956 C957 1.386 . S
C956 C958 1.391 . S
C957 C956 1.386 . S
C957 C961 1.393 . S
C958 H950 0.950 . S
C958 C956 1.391 . S
C958 C959 1.400 . S
C959 C958 1.400 . S
C959 C960 1.398 . S
C959 C965 1.491 . S
C960 H951 0.950 . S
C960 C959 1.398 . S
C960 C961 1.391 . S
C961 H949 0.950 . S
C961 C957 1.393 . S
C961 C960 1.391 . S
C962 H952 0.950 . S
C962 C963 1.386 . S
C962 C964 1.391 . S
C963 C962 1.386 . S
C963 C967 1.393 . S
C964 H953 0.950 . S
C964 C962 1.391 . S
C964 C965 1.400 . S
C965 C959 1.491 . S
C965 C964 1.400 . S
C965 C966 1.398 . S
C966 H954 0.950 . S
C966 C965 1.398 . S
C966 C967 1.391 . S
C967 H955 0.950 . S
C967 C963 1.393 . S
C967 C966 1.391 . S
H968 C976 0.950 . S
H969 C981 0.950 . S
H970 C978 0.950 . S
H971 C980 0.950 . S
H972 C982 0.950 . S
H973 C984 0.950 . S
H974 C986 0.950 . S
H975 C987 0.950 . S
C976 H968 0.950 . S
C976 C977 1.386 . S
C976 C978 1.391 . S
C977 C976 1.386 . S
C977 C981 1.393 . S
C978 H970 0.950 . S
C978 C976 1.391 . S
C978 C979 1.400 . S
C979 C978 1.400 . S
C979 C980 1.398 . S
C979 C985 1.491 . S
C980 H971 0.950 . S
C980 C979 1.398 . S
C980 C981 1.391 . S
C981 H969 0.950 . S
C981 C977 1.393 . S
C981 C980 1.391 . S
C982 H972 0.950 . S
C982 C983 1.386 . S
C982 C984 1.391 . S
C983 C982 1.386 . S
C983 C987 1.393 . S
C984 H973 0.950 . S
C984 C982 1.391 . S
C984 C985 1.400 . S
C985 C979 1.491 . S
C985 C984 1.400 . S
C985 C986 1.398 . S
C986 H974 0.950 . S
C986 C985 1.398 . S
C986 C987 1.391 . S
C987 H975 0.950 . S
C987 C983 1.393 . S
C987 C986 1.391 . S
H988 C996 0.950 . S
H989 C1001 0.950 . S
H990 C998 0.950 . S
H991 C1000 0.950 . S
H992 C1002 0.950 . S
H993 C1004 0.950 . S
H994 C1006 0.950 . S
H995 C1007 0.950 . S
C996 H988 0.950 . S
C996 C997 1.386 . S
C996 C998 1.391 . S
C997 C996 1.386 . S
C997 C1001 1.393 . S
C998 H990 0.950 . S
C998 C996 1.391 . S
C998 C999 1.400 . S
C999 C998 1.400 . S
C999 C1000 1.398 . S
C999 C1005 1.491 . S
C1000 H991 0.950 . S
C1000 C999 1.398 . S
C1000 C1001 1.391 . S
C1001 H989 0.950 . S
C1001 C997 1.393 . S
C1001 C1000 1.391 . S
C1002 H992 0.950 . S
C1002 C1003 1.386 . S
C1002 C1004 1.391 . S
C1003 C1002 1.386 . S
C1003 C1007 1.393 . S
C1004 H993 0.950 . S
C1004 C1002 1.391 . S
C1004 C1005 1.400 . S
C1005 C999 1.491 . S
C1005 C1004 1.400 . S
C1005 C1006 1.398 . S
C1006 H994 0.950 . S
C1006 C1005 1.398 . S
C1006 C1007 1.391 . S
C1007 H995 0.950 . S
C1007 C1003 1.393 . S
C1007 C1006 1.391 . S
H1008 C1016 0.950 . S
H1009 C1021 0.950 . S
H1010 C1018 0.950 . S
H1011 C1020 0.950 . S
H1012 C1022 0.950 . S
H1013 C1024 0.950 . S
H1014 C1026 0.950 . S
H1015 C1027 0.950 . S
C1016 H1008 0.950 . S
C1016 C1017 1.386 . S
C1016 C1018 1.391 . S
C1017 C1016 1.386 . S
C1017 C1021 1.393 . S
C1018 H1010 0.950 . S
C1018 C1016 1.391 . S
C1018 C1019 1.400 . S
C1019 C1018 1.400 . S
C1019 C1020 1.398 . S
C1019 C1025 1.491 . S
C1020 H1011 0.950 . S
C1020 C1019 1.398 . S
C1020 C1021 1.391 . S
C1021 H1009 0.950 . S
C1021 C1017 1.393 . S
C1021 C1020 1.391 . S
C1022 H1012 0.950 . S
C1022 C1023 1.386 . S
C1022 C1024 1.391 . S
C1023 C1022 1.386 . S
C1023 C1027 1.393 . S
C1024 H1013 0.950 . S
C1024 C1022 1.391 . S
C1024 C1025 1.400 . S
C1025 C1019 1.491 . S
C1025 C1024 1.400 . S
C1025 C1026 1.398 . S
C1026 H1014 0.950 . S
C1026 C1025 1.398 . S
C1026 C1027 1.391 . S
C1027 H1015 0.950 . S
C1027 C1023 1.393 . S
C1027 C1026 1.391 . S
H1028 C1036 0.950 . S
H1029 C1041 0.950 . S
H1030 C1038 0.950 . S
H1031 C1040 0.950 . S
H1032 C1042 0.950 . S
H1033 C1044 0.950 . S
H1034 C1046 0.950 . S
H1035 C1047 0.950 . S
C1036 H1028 0.950 . S
C1036 C1037 1.386 . S
C1036 C1038 1.391 . S
C1037 C1036 1.386 . S
C1037 C1041 1.393 . S
C1038 H1030 0.950 . S
C1038 C1036 1.391 . S
C1038 C1039 1.400 . S
C1039 C1038 1.400 . S
C1039 C1040 1.398 . S
C1039 C1045 1.491 . S
C1040 H1031 0.950 . S
C1040 C1039 1.398 . S
C1040 C1041 1.391 . S
C1041 H1029 0.950 . S
C1041 C1037 1.393 . S
C1041 C1040 1.391 . S
C1042 H1032 0.950 . S
C1042 C1043 1.386 . S
C1042 C1044 1.391 . S
C1043 C1042 1.386 . S
C1043 C1047 1.393 . S
C1044 H1033 0.950 . S
C1044 C1042 1.391 . S
C1044 C1045 1.400 . S
C1045 C1039 1.491 . S
C1045 C1044 1.400 . S
C1045 C1046 1.398 . S
C1046 H1034 0.950 . S
C1046 C1045 1.398 . S
C1046 C1047 1.391 . S
C1047 H1035 0.950 . S
C1047 C1043 1.393 . S
C1047 C1046 1.391 . S
H1048 C1056 0.950 . S
H1049 C1061 0.950 . S
H1050 C1058 0.950 . S
H1051 C1060 0.950 . S
H1052 C1062 0.950 . S
H1053 C1064 0.950 . S
H1054 C1066 0.950 . S
H1055 C1067 0.950 . S
C1056 H1048 0.950 . S
C1056 C1057 1.386 . S
C1056 C1058 1.391 . S
C1057 C1056 1.386 . S
C1057 C1061 1.393 . S
C1058 H1050 0.950 . S
C1058 C1056 1.391 . S
C1058 C1059 1.400 . S
C1059 C1058 1.400 . S
C1059 C1060 1.398 . S
C1059 C1065 1.491 . S
C1060 H1051 0.950 . S
C1060 C1059 1.398 . S
C1060 C1061 1.391 . S
C1061 H1049 0.950 . S
C1061 C1057 1.393 . S
C1061 C1060 1.391 . S
C1062 H1052 0.950 . S
C1062 C1063 1.386 . S
C1062 C1064 1.391 . S
C1063 C1062 1.386 . S
C1063 C1067 1.393 . S
C1064 H1053 0.950 . S
C1064 C1062 1.391 . S
C1064 C1065 1.400 . S
C1065 C1059 1.491 . S
C1065 C1064 1.400 . S
C1065 C1066 1.398 . S
C1066 H1054 0.950 . S
C1066 C1065 1.398 . S
C1066 C1067 1.391 . S
C1067 H1055 0.950 . S
C1067 C1063 1.393 . S
C1067 C1066 1.391 . S
H1068 C1076 0.950 . S
H1069 C1081 0.950 . S
H1070 C1078 0.950 . S
H1071 C1080 0.950 . S
H1072 C1082 0.950 . S
H1073 C1084 0.950 . S
H1074 C1086 0.950 . S
H1075 C1087 0.950 . S
C1076 H1068 0.950 . S
C1076 C1077 1.386 . S
C1076 C1078 1.391 . S
C1077 C1076 1.386 . S
C1077 C1081 1.393 . S
C1078 H1070 0.950 . S
C1078 C1076 1.391 . S
C1078 C1079 1.400 . S
C1079 C1078 1.400 . S
C1079 C1080 1.398 . S
C1079 C1085 1.491 . S
C1080 H1071 0.950 . S
C1080 C1079 1.398 . S
C1080 C1081 1.391 . S
C1081 H1069 0.950 . S
C1081 C1077 1.393 . S
C1081 C1080 1.391 . S
C1082 H1072 0.950 . S
C1082 C1083 1.386 . S
C1082 C1084 1.391 . S
C1083 C1082 1.386 . S
C1083 C1087 1.393 . S
C1084 H1073 0.950 . S
C1084 C1082 1.391 . S
C1084 C1085 1.400 . S
C1085 C1079 1.491 . S
C1085 C1084 1.400 . S
C1085 C1086 1.398 . S
C1086 H1074 0.950 . S
C1086 C1085 1.398 . S
C1086 C1087 1.391 . S
C1087 H1075 0.950 . S
C1087 C1083 1.393 . S
C1087 C1086 1.391 . S
H1088 C1096 0.950 . S
H1089 C1101 0.950 . S
H1090 C1098 0.950 . S
H1091 C1100 0.950 . S
H1092 C1102 0.950 . S
H1093 C1104 0.950 . S
H1094 C1106 0.950 . S
H1095 C1107 0.950 . S
C1096 H1088 0.950 . S
C1096 C1097 1.386 . S
C1096 C1098 1.391 . S
C1097 C1096 1.386 . S
C1097 C1101 1.393 . S
C1098 H1090 0.950 . S
C1098 C1096 1.391 . S
C1098 C1099 1.400 . S
C1099 C1098 1.400 . S
C1099 C1100 1.398 . S
C1099 C1105 1.491 . S
C1100 H1091 0.950 . S
C1100 C1099 1.398 . S
C1100 C1101 1.391 . S
C1101 H1089 0.950 . S
C1101 C1097 1.393 . S
C1101 C1100 1.391 . S
C1102 H1092 0.950 . S
C1102 C1103 1.386 . S
C1102 C1104 1.391 . S
C1103 C1102 1.386 . S
C1103 C1107 1.393 . S
C1104 H1093 0.950 . S
C1104 C1102 1.391 . S
C1104 C1105 1.400 . S
C1105 C1099 1.491 . S
C1105 C1104 1.400 . S
C1105 C1106 1.398 . S
C1106 H1094 0.950 . S
C1106 C1105 1.398 . S
C1106 C1107 1.391 . S
C1107 H1095 0.950 . S
C1107 C1103 1.393 . S
C1107 C1106 1.391 . S
H1108 C1116 0.950 . S
H1109 C1121 0.950 . S
H1110 C1118 0.950 . S
H1111 C1120 0.950 . S
H1112 C1122 0.950 . S
H1113 C1124 0.950 . S
H1114 C1126 0.950 . S
H1115 C1127 0.950 . S
C1116 H1108 0.950 . S
C1116 C1117 1.386 . S
C1116 C1118 1.391 . S
C1117 C1116 1.386 . S
C1117 C1121 1.393 . S
C1118 H1110 0.950 . S
C1118 C1116 1.391 . S
C1118 C1119 1.400 . S
C1119 C1118 1.400 . S
C1119 C1120 1.398 . S
C1119 C1125 1.491 . S
C1120 H1111 0.950 . S
C1120 C1119 1.398 . S
C1120 C1121 1.391 . S
C1121 H1109 0.950 . S
C1121 C1117 1.393 . S
C1121 C1120 1.391 . S
C1122 H1112 0.950 . S
C1122 C1123 1.386 . S
C1122 C1124 1.391 . S
C1123 C1122 1.386 . S
C1123 C1127 1.393 . S
C1124 H1113 0.950 . S
C1124 C1122 1.391 . S
C1124 C1125 1.400 . S
C1125 C1119 1.491 . S
C1125 C1124 1.400 . S
C1125 C1126 1.398 . S
C1126 H1114 0.950 . S
C1126 C1125 1.398 . S
C1126 C1127 1.391 . S
C1127 H1115 0.950 . S
C1127 C1123 1.393 . S
C1127 C1126 1.391 . S
H1128 C1136 0.950 . S
H1129 C1141 0.950 . S
H1130 C1138 0.950 . S
H1131 C1140 0.950 . S
H1132 C1142 0.950 . S
H1133 C1144 0.950 . S
H1134 C1146 0.950 . S
H1135 C1147 0.950 . S
C1136 H1128 0.950 . S
C1136 C1137 1.386 . S
C1136 C1138 1.391 . S
C1137 C1136 1.386 . S
C1137 C1141 1.393 . S
C1138 H1130 0.950 . S
C1138 C1136 1.391 . S
C1138 C1139 1.400 . S
C1139 C1138 1.400 . S
C1139 C1140 1.398 . S
C1139 C1145 1.491 . S
C1140 H1131 0.950 . S
C1140 C1139 1.398 . S
C1140 C1141 1.391 . S
C1141 H1129 0.950 . S
C1141 C1137 1.393 . S
C1141 C1140 1.391 . S
C1142 H1132 0.950 . S
C1142 C1143 1.386 . S
C1142 C1144 1.391 . S
C1143 C1142 1.386 . S
C1143 C1147 1.393 . S
C1144 H1133 0.950 . S
C1144 C1142 1.391 . S
C1144 C1145 1.400 . S
C1145 C1139 1.491 . S
C1145 C1144 1.400 . S
C1145 C1146 1.398 . S
C1146 H1134 0.950 . S
C1146 C1145 1.398 . S
C1146 C1147 1.391 . S
C1147 H1135 0.950 . S
C1147 C1143 1.393 . S
C1147 C1146 1.391 . S
H1148 C1156 0.950 . S
H1149 C1161 0.950 . S
H1150 C1158 0.950 . S
H1151 C1160 0.950 . S
H1152 C1162 0.950 . S
H1153 C1164 0.950 . S
H1154 C1166 0.950 . S
H1155 C1167 0.950 . S
C1156 H1148 0.950 . S
C1156 C1157 1.386 . S
C1156 C1158 1.391 . S
C1157 C1156 1.386 . S
C1157 C1161 1.393 . S
C1158 H1150 0.950 . S
C1158 C1156 1.391 . S
C1158 C1159 1.400 . S
C1159 C1158 1.400 . S
C1159 C1160 1.398 . S
C1159 C1165 1.491 . S
C1160 H1151 0.950 . S
C1160 C1159 1.398 . S
C1160 C1161 1.391 . S
C1161 H1149 0.950 . S
C1161 C1157 1.393 . S
C1161 C1160 1.391 . S
C1162 H1152 0.950 . S
C1162 C1163 1.386 . S
C1162 C1164 1.391 . S
C1163 C1162 1.386 . S
C1163 C1167 1.393 . S
C1164 H1153 0.950 . S
C1164 C1162 1.391 . S
C1164 C1165 1.400 . S
C1165 C1159 1.491 . S
C1165 C1164 1.400 . S
C1165 C1166 1.398 . S
C1166 H1154 0.950 . S
C1166 C1165 1.398 . S
C1166 C1167 1.391 . S
C1167 H1155 0.950 . S
C1167 C1163 1.393 . S
C1167 C1166 1.391 . S
H1168 C1176 0.950 . S
H1169 C1181 0.950 . S
H1170 C1178 0.950 . S
H1171 C1180 0.950 . S
H1172 C1182 0.950 . S
H1173 C1184 0.950 . S
H1174 C1186 0.950 . S
H1175 C1187 0.950 . S
C1176 H1168 0.950 . S
C1176 C1177 1.386 . S
C1176 C1178 1.391 . S
C1177 C1176 1.386 . S
C1177 C1181 1.393 . S
C1178 H1170 0.950 . S
C1178 C1176 1.391 . S
C1178 C1179 1.400 . S
C1179 C1178 1.400 . S
C1179 C1180 1.398 . S
C1179 C1185 1.491 . S
C1180 H1171 0.950 . S
C1180 C1179 1.398 . S
C1180 C1181 1.391 . S
C1181 H1169 0.950 . S
C1181 C1177 1.393 . S
C1181 C1180 1.391 . S
C1182 H1172 0.950 . S
C1182 C1183 1.386 . S
C1182 C1184 1.391 . S
C1183 C1182 1.386 . S
C1183 C1187 1.393 . S
C1184 H1173 0.950 . S
C1184 C1182 1.391 . S
C1184 C1185 1.400 . S
C1185 C1179 1.491 . S
C1185 C1184 1.400 . S
C1185 C1186 1.398 . S
C1186 H1174 0.950 . S
C1186 C1185 1.398 . S
C1186 C1187 1.391 . S
C1187 H1175 0.950 . S
C1187 C1183 1.393 . S
C1187 C1186 1.391 . S
H1188 C1196 0.950 . S
H1189 C1201 0.950 . S
H1190 C1198 0.950 . S
H1191 C1200 0.950 . S
H1192 C1202 0.950 . S
H1193 C1204 0.950 . S
H1194 C1206 0.950 . S
H1195 C1207 0.950 . S
C1196 H1188 0.950 . S
C1196 C1197 1.386 . S
C1196 C1198 1.391 . S
C1197 C1196 1.386 . S
C1197 C1201 1.393 . S
C1198 H1190 0.950 . S
C1198 C1196 1.391 . S
C1198 C1199 1.400 . S
C1199 C1198 1.400 . S
C1199 C1200 1.398 . S
C1199 C1205 1.491 . S
C1200 H1191 0.950 . S
C1200 C1199 1.398 . S
C1200 C1201 1.391 . S
C1201 H1189 0.950 . S
C1201 C1197 1.393 . S
C1201 C1200 1.391 . S
C1202 H1192 0.950 . S
C1202 C1203 1.386 . S
C1202 C1204 1.391 . S
C1203 C1202 1.386 . S
C1203 C1207 1.393 . S
C1204 H1193 0.950 . S
C1204 C1202 1.391 . S
C1204 C1205 1.400 . S
C1205 C1199 1.491 . S
C1205 C1204 1.400 . S
C1205 C1206 1.398 . S
C1206 H1194 0.950 . S
C1206 C1205 1.398 . S
C1206 C1207 1.391 . S
C1207 H1195 0.950 . S
C1207 C1203 1.393 . S
C1207 C1206 1.391 . S
H1208 C1216 0.950 . S
H1209 C1221 0.950 . S
H1210 C1218 0.950 . S
H1211 C1220 0.950 . S
H1212 C1222 0.950 . S
H1213 C1224 0.950 . S
H1214 C1226 0.950 . S
H1215 C1227 0.950 . S
C1216 H1208 0.950 . S
C1216 C1217 1.386 . S
C1216 C1218 1.391 . S
C1217 C1216 1.386 . S
C1217 C1221 1.393 . S
C1218 H1210 0.950 . S
C1218 C1216 1.391 . S
C1218 C1219 1.400 . S
C1219 C1218 1.400 . S
C1219 C1220 1.398 . S
C1219 C1225 1.491 . S
C1220 H1211 0.950 . S
C1220 C1219 1.398 . S
C1220 C1221 1.391 . S
C1221 H1209 0.950 . S
C1221 C1217 1.393 . S
C1221 C1220 1.391 . S
C1222 H1212 0.950 . S
C1222 C1223 1.386 . S
C1222 C1224 1.391 . S
C1223 C1222 1.386 . S
C1223 C1227 1.393 . S
C1224 H1213 0.950 . S
C1224 C1222 1.391 . S
C1224 C1225 1.400 . S
C1225 C1219 1.491 . S
C1225 C1224 1.400 . S
C1225 C1226 1.398 . S
C1226 H1214 0.950 . S
C1226 C1225 1.398 . S
C1226 C1227 1.391 . S
C1227 H1215 0.950 . S
C1227 C1223 1.393 . S
C1227 C1226 1.391 . S
H1228 C1236 0.950 . S
H1229 C1241 0.950 . S
H1230 C1238 0.950 . S
H1231 C1240 0.950 . S
H1232 C1242 0.950 . S
H1233 C1244 0.950 . S
H1234 C1246 0.950 . S
H1235 C1247 0.950 . S
C1236 H1228 0.950 . S
C1236 C1237 1.386 . S
C1236 C1238 1.391 . S
C1237 C1236 1.386 . S
C1237 C1241 1.393 . S
C1238 H1230 0.950 . S
C1238 C1236 1.391 . S
C1238 C1239 1.400 . S
C1239 C1238 1.400 . S
C1239 C1240 1.398 . S
C1239 C1245 1.491 . S
C1240 H1231 0.950 . S
C1240 C1239 1.398 . S
C1240 C1241 1.391 . S
C1241 H1229 0.950 . S
C1241 C1237 1.393 . S
C1241 C1240 1.391 . S
C1242 H1232 0.950 . S
C1242 C1243 1.386 . S
C1242 C1244 1.391 . S
C1243 C1242 1.386 . S
C1243 C1247 1.393 . S
C1244 H1233 0.950 . S
C1244 C1242 1.391 . S
C1244 C1245 1.400 . S
C1245 C1239 1.491 . S
C1245 C1244 1.400 . S
C1245 C1246 1.398 . S
C1246 H1234 0.950 . S
C1246 C1245 1.398 . S
C1246 C1247 1.391 . S
C1247 H1235 0.950 . S
C1247 C1243 1.393 . S
C1247 C1246 1.391 . S
C417 C241 1.672 . S
C423 C22 1.757 . S
C437 C56 1.757 . S
C443 C275 1.667 . S
C457 C90 1.754 . S
C463 C207 1.656 . S
C477 C124 1.751 . S
C483 C377 1.683 . S
C497 C307 1.658 . S
C503 C158 1.755 . S
C517 C192 1.756 . S
C523 C341 1.659 . S
C537 C219 1.745 . S
C543 C35 1.672 . S
C557 C253 1.757 . S
C563 C69 1.664 . S
C577 C1 1.681 . S
C583 C287 1.747 . S
C597 C328 1.746 . S
C603 C171 1.668 . S
C617 C362 1.750 . S
C623 C103 1.657 . S
C637 C137 1.676 . S
C643 C389 1.756 . S
C657 C3 1.446 . S
C663 C105 1.462 . S
C677 C37 1.463 . S
C683 C139 1.447 . S
C697 C71 1.473 . S
C703 C173 1.464 . S
C717 C309 1.442 . S
C723 C205 1.443 . S
C737 C343 1.468 . S
C743 C239 1.452 . S
C757 C375 1.451 . S
C763 C273 1.467 . S
C777 C17 1.944 . S
C783 C49 1.675 . S
C797 C51 1.937 . S
C803 C83 1.681 . S
C817 C85 1.945 . S
C823 C15 1.679 . S
C837 C185 1.704 . S
C843 C119 1.945 . S
C857 C153 1.949 . S
C863 C117 1.698 . S
C877 C151 1.688 . S
C883 C187 1.938 . S
C897 C260 1.667 . S
C903 C221 1.940 . S
C917 C255 1.944 . S
C923 C294 1.704 . S
C937 C289 1.948 . S
C943 C226 1.691 . S
C957 C323 1.949 . S
C963 C396 1.701 . S
C977 C357 1.945 . S
C983 C321 1.679 . S
C997 C391 1.937 . S
C1003 C355 1.682 . S
C1017 C368 1.232 . S
C1023 C6 1.234 1_556 S
C1037 C380 1.234 . S
C1043 C40 1.230 1_556 S
C1057 C74 1.227 1_556 S
C1063 C334 1.234 . S
C1077 C108 1.234 . S
C1083 C278 1.233 . S
C1097 C142 1.233 . S
C1103 C210 1.232 . S
C1117 C244 1.233 . S
C1123 C176 1.228 . S
C1137 C232 1.233 1_554 S
C1143 C164 1.233 . S
C1157 C266 1.229 1_554 S
C1163 C198 1.233 . S
C1177 C300 1.234 1_554 S
C1183 C130 1.233 . S
C1197 C312 1.234 . S
C1203 C96 1.233 . S
C1217 C346 1.225 . S
C1223 C28 1.234 . S
C1237 C402 1.234 . S
C1243 C62 1.232 . S
