# Generated by pormake.
# Topology ske, (6)-cn, num edge types: 1
# Building blocks:
#     Node 0, Type 0, BuildingBlock: FUNLAD_clean_sbu_0, # of connection points: 6
#     Node 1, Type 0, BuildingBlock: FUNLAD_clean_sbu_0, # of connection points: 6
#     Node 2, Type 0, BuildingBlock: FUNLAD_clean_sbu_0, # of connection points: 6
#     Node 3, Type 0, BuildingBlock: FUNLAD_clean_sbu_0, # of connection points: 6
#     Node 4, Type 0, BuildingBlock: FUNLAD_clean_sbu_0, # of connection points: 6
#     Node 5, Type 0, BuildingBlock: FUNLAD_clean_sbu_0, # of connection points: 6
#     Node 6, Type 0, BuildingBlock: FUNLAD_clean_sbu_0, # of connection points: 6
#     Node 7, Type 0, BuildingBlock: FUNLAD_clean_sbu_0, # of connection points: 6
#     Edge 8, Type (0, 0), BuildingBlock: OJICUG_clean_linker_0, # of connection points: 2
#     Edge 9, Type (0, 0), BuildingBlock: OJICUG_clean_linker_0, # of connection points: 2
#     Edge 10, Type (0, 0), BuildingBlock: OJICUG_clean_linker_0, # of connection points: 2
#     Edge 11, Type (0, 0), BuildingBlock: OJICUG_clean_linker_0, # of connection points: 2
#     Edge 12, Type (0, 0), BuildingBlock: OJICUG_clean_linker_0, # of connection points: 2
#     Edge 13, Type (0, 0), BuildingBlock: OJICUG_clean_linker_0, # of connection points: 2
#     Edge 14, Type (0, 0), BuildingBlock: OJICUG_clean_linker_0, # of connection points: 2
#     Edge 15, Type (0, 0), BuildingBlock: OJICUG_clean_linker_0, # of connection points: 2
#     Edge 16, Type (0, 0), BuildingBlock: OJICUG_clean_linker_0, # of connection points: 2
#     Edge 17, Type (0, 0), BuildingBlock: OJICUG_clean_linker_0, # of connection points: 2
#     Edge 18, Type (0, 0), BuildingBlock: OJICUG_clean_linker_0, # of connection points: 2
#     Edge 19, Type (0, 0), BuildingBlock: OJICUG_clean_linker_0, # of connection points: 2
#     Edge 20, Type (0, 0), BuildingBlock: OJICUG_clean_linker_0, # of connection points: 2
#     Edge 21, Type (0, 0), BuildingBlock: OJICUG_clean_linker_0, # of connection points: 2
#     Edge 22, Type (0, 0), BuildingBlock: OJICUG_clean_linker_0, # of connection points: 2
#     Edge 23, Type (0, 0), BuildingBlock: OJICUG_clean_linker_0, # of connection points: 2
#     Edge 24, Type (0, 0), BuildingBlock: OJICUG_clean_linker_0, # of connection points: 2
#     Edge 25, Type (0, 0), BuildingBlock: OJICUG_clean_linker_0, # of connection points: 2
#     Edge 26, Type (0, 0), BuildingBlock: OJICUG_clean_linker_0, # of connection points: 2
#     Edge 27, Type (0, 0), BuildingBlock: OJICUG_clean_linker_0, # of connection points: 2
#     Edge 28, Type (0, 0), BuildingBlock: OJICUG_clean_linker_0, # of connection points: 2
#     Edge 29, Type (0, 0), BuildingBlock: OJICUG_clean_linker_0, # of connection points: 2
#     Edge 30, Type (0, 0), BuildingBlock: OJICUG_clean_linker_0, # of connection points: 2
#     Edge 31, Type (0, 0), BuildingBlock: OJICUG_clean_linker_0, # of connection points: 2
# Relax obj value: 0.042
# Max RMSD: 0.116
# Mean RMSD: 0.112
data_MOF--net-ske--node1-FUNLAD_clean_sbu_0--edge1-OJICUG_clean_linker_0
_symmetry_space_group_name_H-M    P1
_symmetry_Int_Tables_number       1
_symmetry_cell_setting            triclinic
loop_
_symmetry_equiv_pos_as_xyz
'x, y, z'
_cell_length_a     43.026523
_cell_length_b     35.198094
_cell_length_c     11.239919
_cell_angle_alpha  89.887915
_cell_angle_beta   90.070635
_cell_angle_gamma 91.317795
loop_
_atom_site_label
_atom_site_type_symbol
_atom_site_fract_x
_atom_site_fract_y
_atom_site_fract_z
_atom_type_partial_charge
C0 C 0.19055 0.26905 0.57646 0.0
N1 N 0.12712 0.17835 0.5309 0.0
C2 C 0.14762 0.16207 0.4554 0.0
C3 C 0.14725 0.12281 0.43883 0.0
C4 C 0.12588 0.09981 0.50171 0.0
C5 C 0.10558 0.11709 0.58202 0.0
C6 C 0.10644 0.15671 0.59468 0.0
Zn7 Zn 0.12718 0.23672 0.53618 0.0
C8 C 0.12282 0.26826 0.7796 0.0
N9 N 0.12907 0.35863 0.5313 0.0
C10 C 0.14936 0.37634 0.4554 0.0
C11 C 0.1084 0.37882 0.59576 0.0
C12 C 0.10725 0.41835 0.58325 0.0
C13 C 0.12724 0.4371 0.50241 0.0
C14 C 0.1487 0.41563 0.43897 0.0
Zn15 Zn 0.12838 0.30025 0.53566 0.0
O16 O 0.1756 0.23788 0.56125 0.0
C17 C 0.13264 0.26871 0.29172 0.0
O18 O 0.1768 0.30028 0.56124 0.0
H19 H 0.09234 0.36419 0.655 0.0
H20 H 0.16406 0.17964 0.40613 0.0
H21 H 0.16574 0.35988 0.40542 0.0
O22 O 0.13139 0.23765 0.34903 0.0
O23 O 0.13274 0.29983 0.34846 0.0
H24 H 0.09025 0.1702 0.65383 0.0
O25 O 0.07985 0.29914 0.5157 0.0
O26 O 0.07859 0.23668 0.51672 0.0
O27 O 0.12389 0.29952 0.72244 0.0
O28 O 0.12283 0.23696 0.72304 0.0
C29 C 0.06446 0.26794 0.5105 0.0
H30 H 0.1636 0.11053 0.37748 0.0
H31 H 0.08871 0.10027 0.63199 0.0
H32 H 0.09031 0.43394 0.63357 0.0
H33 H 0.16481 0.42909 0.37712 0.0
C34 C 0.93079 0.2688 0.512 0.0
N35 N 0.86792 0.3581 0.53214 0.0
C36 C 0.88947 0.38 0.59058 0.0
C37 C 0.88969 0.41962 0.57779 0.0
C38 C 0.86756 0.4368 0.50404 0.0
C39 C 0.84551 0.41335 0.44597 0.0
C40 C 0.84606 0.37408 0.46153 0.0
Zn41 Zn 0.86814 0.29981 0.53786 0.0
C42 C 0.86242 0.26799 0.29381 0.0
N43 N 0.86631 0.17803 0.53402 0.0
C44 C 0.88715 0.15782 0.59801 0.0
C45 C 0.84597 0.16038 0.45817 0.0
C46 C 0.84679 0.12116 0.44117 0.0
C47 C 0.86845 0.09969 0.50398 0.0
C48 C 0.88847 0.11834 0.58493 0.0
Zn49 Zn 0.86686 0.23635 0.53825 0.0
O50 O 0.91667 0.30006 0.51762 0.0
C51 C 0.87266 0.26826 0.78178 0.0
O52 O 0.9154 0.23761 0.51819 0.0
H53 H 0.82946 0.17686 0.40855 0.0
H54 H 0.90669 0.36674 0.64606 0.0
H55 H 0.90325 0.17241 0.6572 0.0
O56 O 0.87276 0.29955 0.72474 0.0
O57 O 0.87145 0.23698 0.72507 0.0
H58 H 0.82926 0.35624 0.41508 0.0
O59 O 0.81842 0.23607 0.56391 0.0
O60 O 0.81975 0.29844 0.56374 0.0
O61 O 0.8624 0.23689 0.35097 0.0
O62 O 0.86362 0.29907 0.35074 0.0
C63 C 0.80475 0.26732 0.57908 0.0
H64 H 0.90692 0.43657 0.62543 0.0
H65 H 0.82835 0.42507 0.38662 0.0
H66 H 0.83066 0.10775 0.37929 0.0
H67 H 0.90555 0.10273 0.6348 0.0
C68 C 0.06465 0.76811 0.41638 0.0
N69 N 0.1293 0.85875 0.39507 0.0
C70 C 0.10858 0.87901 0.33062 0.0
C71 C 0.10739 0.91852 0.34324 0.0
C72 C 0.1274 0.93718 0.4242 0.0
C73 C 0.14892 0.91565 0.48756 0.0
C74 C 0.14962 0.87639 0.471 0.0
Zn75 Zn 0.12858 0.80037 0.39105 0.0
C76 C 0.13287 0.76876 0.63544 0.0
N77 N 0.12722 0.67848 0.39694 0.0
C78 C 0.10654 0.65695 0.33287 0.0
C79 C 0.14769 0.66206 0.47268 0.0
C80 C 0.14729 0.62277 0.48914 0.0
C81 C 0.12592 0.59989 0.42591 0.0
C82 C 0.10565 0.61733 0.34543 0.0
Zn83 Zn 0.12734 0.73685 0.39135 0.0
O84 O 0.08005 0.7993 0.41078 0.0
C85 C 0.12295 0.76847 0.14747 0.0
O86 O 0.07876 0.73684 0.4106 0.0
H87 H 0.16413 0.67955 0.52216 0.0
H88 H 0.09249 0.86444 0.27137 0.0
H89 H 0.09038 0.67055 0.27354 0.0
O90 O 0.12404 0.79973 0.20422 0.0
O91 O 0.12295 0.73717 0.20445 0.0
H92 H 0.16603 0.85987 0.521 0.0
O93 O 0.17576 0.73797 0.36649 0.0
O94 O 0.17699 0.80036 0.36571 0.0
O95 O 0.13161 0.73769 0.57854 0.0
O96 O 0.13298 0.79987 0.57828 0.0
C97 C 0.19071 0.76913 0.3509 0.0
H98 H 0.0904 0.93416 0.29297 0.0
H99 H 0.16505 0.92904 0.54948 0.0
H100 H 0.16362 0.61038 0.55064 0.0
H101 H 0.08877 0.6006 0.2952 0.0
C102 C 0.93098 0.76902 0.41542 0.0
N103 N 0.86603 0.67869 0.39402 0.0
C104 C 0.88763 0.65811 0.3357 0.0
C105 C 0.88816 0.61857 0.34922 0.0
C106 C 0.86631 0.60006 0.42369 0.0
C107 C 0.84404 0.62212 0.48103 0.0
C108 C 0.84428 0.66141 0.46468 0.0
Zn109 Zn 0.86707 0.73699 0.38938 0.0
C110 C 0.86266 0.76845 0.63332 0.0
N111 N 0.86854 0.85878 0.39429 0.0
C112 C 0.88933 0.88038 0.33093 0.0
C113 C 0.84803 0.87507 0.46971 0.0
C114 C 0.84851 0.9143 0.4867 0.0
C115 C 0.87001 0.93725 0.42432 0.0
C116 C 0.89031 0.91997 0.34401 0.0
Zn117 Zn 0.86829 0.80045 0.38884 0.0
O118 O 0.91556 0.73784 0.41038 0.0
C119 C 0.8728 0.76888 0.14544 0.0
O120 O 0.91688 0.80029 0.40859 0.0
H121 H 0.8315 0.85752 0.51864 0.0
H122 H 0.90478 0.67241 0.28022 0.0
H123 H 0.90552 0.86686 0.27183 0.0
O124 O 0.87181 0.73763 0.20265 0.0
O125 O 0.87269 0.80019 0.20197 0.0
H126 H 0.82745 0.67826 0.51105 0.0
O127 O 0.81986 0.79961 0.36352 0.0
O128 O 0.81869 0.73725 0.36275 0.0
O129 O 0.86403 0.79952 0.57603 0.0
O130 O 0.86245 0.73734 0.57653 0.0
C131 C 0.80493 0.76847 0.34784 0.0
H132 H 0.9055 0.60272 0.30189 0.0
H133 H 0.82704 0.60934 0.54071 0.0
H134 H 0.83215 0.92659 0.54801 0.0
H135 H 0.90727 0.93678 0.29442 0.0
C136 C 0.6904 0.76927 0.08179 0.0
N137 N 0.62724 0.67865 0.03441 0.0
C138 C 0.64911 0.66284 -0.03608 0.0
C139 C 0.64967 0.62363 0.94795 0.0
C140 C 0.62761 0.60005 0.00556 0.0
C141 C 0.60547 0.61704 0.07926 0.0
C142 C 0.60568 0.65663 0.09241 0.0
Zn143 Zn 0.62706 0.73689 0.0399 0.0
C144 C 0.62238 0.76839 0.28331 0.0
N145 N 0.62906 0.85849 0.03445 0.0
C146 C 0.65075 0.87576 0.96352 0.0
C147 C 0.60742 0.87904 0.0926 0.0
C148 C 0.60679 0.91856 0.07864 0.0
C149 C 0.62859 0.93704 0.00389 0.0
C150 C 0.65089 0.915 0.94669 0.0
Zn151 Zn 0.62826 0.80027 0.0394 0.0
O152 O 0.67548 0.73812 0.06642 0.0
C153 C 0.63284 0.76878 0.79543 0.0
O154 O 0.67665 0.80044 0.06625 0.0
H155 H 0.59031 0.86473 0.14826 0.0
H156 H 0.66592 0.68077 0.91778 0.0
H157 H 0.66762 0.85892 0.9173 0.0
O158 O 0.63158 0.73771 0.85276 0.0
O159 O 0.6329 0.79988 0.85222 0.0
H160 H 0.58844 0.66978 0.14777 0.0
O161 O 0.57977 0.79915 0.01822 0.0
O162 O 0.57849 0.7367 0.01914 0.0
O163 O 0.62349 0.79965 0.22615 0.0
O164 O 0.62241 0.73709 0.22672 0.0
C165 C 0.56438 0.76797 0.01258 0.0
H166 H 0.66683 0.61205 0.88861 0.0
H167 H 0.58823 0.59998 0.12651 0.0
H168 H 0.58942 0.93441 0.12584 0.0
H169 H 0.66784 0.92776 0.88677 0.0
C170 C 0.43074 0.76901 0.01348 0.0
N171 N 0.36807 0.85851 0.03452 0.0
C172 C 0.38967 0.88042 0.09259 0.0
C173 C 0.38995 0.92002 0.07933 0.0
C174 C 0.36782 0.93715 0.00546 0.0
C175 C 0.34572 0.91367 0.94774 0.0
C176 C 0.34622 0.87444 -0.03618 0.0
Zn177 Zn 0.36811 0.80026 0.04047 0.0
C178 C 0.36218 0.76844 0.79636 0.0
N179 N 0.3659 0.67864 0.03618 0.0
C180 C 0.38758 0.65795 0.09415 0.0
C181 C 0.34412 0.66151 -0.0347 0.0
C182 C 0.34395 0.62229 0.94823 0.0
C183 C 0.3663 0.60013 0.00515 0.0
C184 C 0.38817 0.61846 0.07996 0.0
Zn185 Zn 0.36684 0.73687 0.04079 0.0
O186 O 0.41666 0.8003 0.0197 0.0
C187 C 0.37286 0.76868 0.28434 0.0
O188 O 0.41532 0.73785 0.01957 0.0
H189 H 0.32724 0.67844 0.91921 0.0
H190 H 0.4069 0.86717 0.14812 0.0
H191 H 0.40476 0.67215 0.14976 0.0
O192 O 0.37285 0.79998 0.22733 0.0
O193 O 0.37171 0.73741 0.22758 0.0
H194 H 0.32937 0.85659 0.91767 0.0
O195 O 0.31846 0.73687 0.06772 0.0
O196 O 0.31972 0.7992 0.06701 0.0
O197 O 0.36209 0.73734 0.85357 0.0
O198 O 0.36349 0.79951 0.85329 0.0
C199 C 0.30478 0.76808 0.08296 0.0
H200 H 0.40722 0.937 0.12668 0.0
H201 H 0.32857 0.92535 0.88828 0.0
H202 H 0.32694 0.60967 0.88827 0.0
H203 H 0.40558 0.60252 0.12696 0.0
C204 C 0.56446 0.26831 0.9141 0.0
N205 N 0.6294 0.35859 0.89158 0.0
C206 C 0.60775 0.37927 0.83347 0.0
C207 C 0.60716 0.41876 0.84751 0.0
C208 C 0.62902 0.43711 0.92232 0.0
C209 C 0.65136 0.41496 -0.02063 0.0
C210 C 0.65118 0.37573 0.96245 0.0
Zn211 Zn 0.6284 0.30036 0.88707 0.0
C212 C 0.63296 0.26879 0.13152 0.0
N213 N 0.62702 0.17875 0.89337 0.0
C214 C 0.60545 0.15687 0.83503 0.0
C215 C 0.64883 0.16278 -0.03579 0.0
C216 C 0.64931 0.12355 -0.01989 0.0
C217 C 0.62725 0.10011 0.92206 0.0
C218 C 0.60516 0.11727 0.8481 0.0
Zn219 Zn 0.62705 0.23697 0.88744 0.0
O220 O 0.5799 0.29945 0.90814 0.0
C221 C 0.6224 0.26855 0.64354 0.0
O222 O 0.57852 0.23701 0.9079 0.0
H223 H 0.66566 0.18061 0.01057 0.0
H224 H 0.59057 0.36506 0.77786 0.0
H225 H 0.58826 0.17015 0.77938 0.0
O226 O 0.62356 0.29982 0.70031 0.0
O227 O 0.62238 0.23725 0.70056 0.0
H228 H 0.66805 0.35881 0.00865 0.0
O229 O 0.67543 0.23791 0.86128 0.0
O230 O 0.67681 0.30024 0.8603 0.0
O231 O 0.6316 0.23772 0.07461 0.0
O232 O 0.63312 0.29989 0.07431 0.0
C233 C 0.69044 0.26897 0.84536 0.0
H234 H 0.58977 0.4347 0.8004 0.0
H235 H 0.66836 0.42761 0.03931 0.0
H236 H 0.66643 0.11183 0.03965 0.0
H237 H 0.58791 0.10032 0.80053 0.0
C238 C 0.43082 0.2693 0.91403 0.0
N239 N 0.3661 0.17877 0.89191 0.0
C240 C 0.38775 0.15818 0.83396 0.0
C241 C 0.38836 0.11867 0.84804 0.0
C242 C 0.36653 0.10022 0.92271 0.0
C243 C 0.34421 0.12229 -0.0203 0.0
C244 C 0.34436 0.16153 0.96274 0.0
Zn245 Zn 0.36694 0.23701 0.88691 0.0
C246 C 0.36231 0.26851 0.13089 0.0
N247 N 0.368 0.35864 0.89198 0.0
C248 C 0.38958 0.38067 0.83412 0.0
C249 C 0.34612 0.37444 0.96247 0.0
C250 C 0.34559 0.41365 -0.02138 0.0
C251 C 0.36766 0.43724 0.92117 0.0
C252 C 0.38981 0.42025 0.84744 0.0
Zn253 Zn 0.36815 0.30041 0.88642 0.0
O254 O 0.41543 0.23812 0.90835 0.0
C255 C 0.37287 0.2689 0.64301 0.0
O256 O 0.4167 0.30056 0.90737 0.0
H257 H 0.3293 0.35651 0.0085 0.0
H258 H 0.4049 0.17246 0.77838 0.0
H259 H 0.40683 0.36752 0.77877 0.0
O260 O 0.37176 0.23763 0.70017 0.0
O261 O 0.37284 0.3002 0.6996 0.0
H262 H 0.32749 0.17839 0.0088 0.0
O263 O 0.31975 0.29923 0.8597 0.0
O264 O 0.31855 0.2369 0.85975 0.0
O265 O 0.36359 0.29957 0.07357 0.0
O266 O 0.36223 0.23741 0.0741 0.0
C267 C 0.30483 0.26809 0.84411 0.0
H268 H 0.40574 0.1028 0.801 0.0
H269 H 0.32722 0.10956 0.03955 0.0
H270 H 0.32842 0.42521 0.03798 0.0
H271 H 0.40707 0.43732 0.8003 0.0
C272 C 0.23404 0.23432 0.67194 0.0
C273 C 0.2211 0.26888 0.63649 0.0
H274 H 0.26997 0.20689 0.76887 0.0
C275 C 0.23513 0.30313 0.6752 0.0
H276 H 0.22355 0.20739 0.64524 0.0
C277 C 0.26142 0.30283 0.74805 0.0
C278 C 0.27434 0.26827 0.78358 0.0
H279 H 0.22549 0.33025 0.65116 0.0
H280 H 0.27191 0.32976 0.77479 0.0
C281 C 0.26033 0.23402 0.74479 0.0
C282 C 0.73501 0.30276 0.74561 0.0
C283 C 0.72094 0.26861 0.78528 0.0
H284 H 0.77182 0.32914 0.64567 0.0
C285 C 0.73384 0.23396 0.75104 0.0
H286 H 0.72539 0.32995 0.76869 0.0
C287 C 0.76015 0.23347 0.67856 0.0
C288 C 0.77422 0.26762 0.63893 0.0
H289 H 0.72332 0.2071 0.77851 0.0
H290 H 0.76978 0.20629 0.65552 0.0
C291 C 0.7613 0.30227 0.67312 0.0
C292 C 0.26148 0.80286 0.1788 0.0
C293 C 0.27434 0.76829 0.14355 0.0
H294 H 0.22565 0.83031 0.27555 0.0
C295 C 0.26033 0.73405 0.18272 0.0
H296 H 0.27197 0.82978 0.15177 0.0
C297 C 0.2341 0.73436 0.25567 0.0
C298 C 0.22122 0.76893 0.29083 0.0
H299 H 0.26992 0.70692 0.15886 0.0
H300 H 0.22361 0.70744 0.28264 0.0
C301 C 0.23525 0.80318 0.25175 0.0
C302 C 0.73502 0.80343 0.18006 0.0
C303 C 0.72095 0.76914 0.14183 0.0
H304 H 0.77194 0.83012 0.27876 0.0
C305 C 0.7339 0.73461 0.1774 0.0
H306 H 0.72537 0.83053 0.15589 0.0
C307 C 0.76027 0.73436 0.24982 0.0
C308 C 0.77436 0.76864 0.28801 0.0
H309 H 0.72337 0.70766 0.15107 0.0
H310 H 0.76992 0.70725 0.27397 0.0
C311 C 0.7614 0.80318 0.25247 0.0
C312 C 0.12542 0.99357 0.56011 0.0
C313 C 0.12575 0.97878 0.44393 0.0
H314 H 0.12484 0.04346 0.66944 0.0
C315 C 0.12507 1.00402 0.34711 0.0
H316 H 0.12565 0.97473 0.63641 0.0
C317 C 0.12487 0.04328 0.36606 0.0
C318 C 0.12484 0.05809 0.48221 0.0
H319 H 0.12542 0.99343 0.25671 0.0
H320 H 0.12471 0.06212 0.28974 0.0
C321 C 0.12472 0.03283 0.57906 0.0
C322 C 0.89544 0.49995 0.47496 0.0
C323 C 0.86746 0.47876 0.48585 0.0
H324 H 0.9171 0.55467 0.44761 0.0
C325 C 0.83921 0.49785 0.4758 0.0
H326 H 0.91764 0.48617 0.48084 0.0
C327 C 0.83889 0.53693 0.45438 0.0
C328 C 0.86683 0.55817 0.44336 0.0
H329 H 0.81719 0.48262 0.48511 0.0
H330 H 0.81665 0.55043 0.44545 0.0
C331 C 0.89513 0.53918 0.45401 0.0
C332 C 0.87117 0.99356 0.56072 0.0
C333 C 0.87116 0.97892 0.44435 0.0
H334 H 0.8706 0.04325 0.67074 0.0
C335 C 0.87127 1.0043 0.34783 0.0
H336 H 0.87133 0.97461 0.63677 0.0
C337 C 0.87056 0.04352 0.36731 0.0
C338 C 0.87022 0.05814 0.4837 0.0
H339 H 0.87113 0.99379 0.25731 0.0
H340 H 0.8703 0.06247 0.29127 0.0
C341 C 0.87095 0.03278 0.5802 0.0
C342 C 0.12469 0.53305 0.34815 0.0
C343 C 0.12486 0.55814 0.44516 0.0
H344 H 0.12551 0.47507 0.29043 0.0
C345 C 0.12489 0.54311 0.56122 0.0
H346 H 0.1248 0.54386 0.25783 0.0
C347 C 0.12505 0.50381 0.57991 0.0
C348 C 0.12566 0.47875 0.48293 0.0
H349 H 0.12478 0.56181 0.63766 0.0
H350 H 0.12541 0.49305 0.67025 0.0
C351 C 0.12533 0.49376 0.36685 0.0
C352 C 0.59977 0.53697 -0.02469 0.0
C353 C 0.62773 0.55815 -0.01317 0.0
H354 H 0.57816 0.48231 0.94672 0.0
C355 C 0.65601 0.53915 -0.02334 0.0
H356 H 0.57756 0.5507 -0.01873 0.0
C357 C 0.65635 0.50015 0.95437 0.0
C358 C 0.62844 0.47892 0.94271 0.0
H359 H 0.67801 0.55437 -0.01354 0.0
H360 H 0.67862 0.48673 0.94529 0.0
C361 C 0.60012 0.49782 0.95358 0.0
C362 C 0.33948 0.99812 -0.02351 0.0
C363 C 0.36774 0.97907 -0.01322 0.0
H364 H 0.3169 0.05062 0.94517 0.0
C365 C 0.39572 1.00024 -0.0245 0.0
H366 H 0.31746 0.98291 -0.01388 0.0
C367 C 0.39539 0.03942 0.95391 0.0
C368 C 0.36708 0.05838 0.94295 0.0
H369 H 0.41791 0.98646 -0.01844 0.0
H370 H 0.41736 0.05491 0.94723 0.0
C371 C 0.33915 0.03715 0.95434 0.0
C372 C 0.39554 0.50029 0.95171 0.0
C373 C 0.36756 0.47912 0.94009 0.0
H374 H 0.41716 0.55492 -0.01944 0.0
C375 C 0.3393 0.49813 0.95037 0.0
H376 H 0.41774 0.48655 0.94568 0.0
C377 C 0.33896 0.53711 -0.02713 0.0
C378 C 0.36688 0.55834 -0.01539 0.0
H379 H 0.31728 0.48293 0.94048 0.0
H380 H 0.3167 0.55054 -0.01797 0.0
C381 C 0.3952 0.53943 -0.02636 0.0
C382 C 0.65561 0.03915 0.95065 0.0
C383 C 0.62734 0.05819 0.94046 0.0
H384 H 0.6782 0.98665 -0.01832 0.0
C385 C 0.59936 0.03701 0.9516 0.0
H386 H 0.67762 0.05438 0.94112 0.0
C387 C 0.5997 0.99781 -0.02702 0.0
C388 C 0.62801 0.97887 -0.01615 0.0
H389 H 0.57717 0.05078 0.9456 0.0
H390 H 0.57774 0.98231 -0.02042 0.0
C391 C 0.65594 1.00011 -0.02742 0.0
C392 C 0.12894 0.23413 0.0979 0.0
C393 C 0.1312 0.26862 0.16047 0.0
H394 H 0.12407 0.20694 0.92874 0.0
C395 C 0.13004 0.30298 0.09695 0.0
H396 H 0.12957 0.20715 0.14432 0.0
C397 C 0.12662 0.30285 -0.02657 0.0
C398 C 0.12433 0.26836 0.91085 0.0
H399 H 0.13152 0.33003 0.14263 0.0
H400 H 0.12601 0.32983 0.92703 0.0
C401 C 0.12553 0.234 -0.02561 0.0
C402 C 0.8651 0.23367 0.09957 0.0
C403 C 0.86392 0.26805 0.16255 0.0
H404 H 0.86928 0.20675 0.93018 0.0
C405 C 0.8663 0.30251 0.09947 0.0
H406 H 0.86354 0.20663 0.14563 0.0
C407 C 0.86986 0.30259 -0.02397 0.0
C408 C 0.87108 0.2682 0.91305 0.0
H409 H 0.86567 0.3295 0.14546 0.0
H410 H 0.87141 0.32963 0.92999 0.0
C411 C 0.86866 0.23374 -0.02387 0.0
C412 C 0.12565 0.73415 0.95322 0.0
C413 C 0.12448 0.76854 0.01622 0.0
H414 H 0.1297 0.70725 0.78374 0.0
C415 C 0.12684 0.803 0.95316 0.0
H416 H 0.12414 0.70711 -0.00075 0.0
C417 C 0.13028 0.80308 0.82968 0.0
C418 C 0.13142 0.7687 0.76668 0.0
H419 H 0.12625 0.82999 -0.00086 0.0
H420 H 0.13181 0.83012 0.78362 0.0
C421 C 0.1291 0.73423 0.82975 0.0
C422 C 0.86649 0.80302 0.82716 0.0
C423 C 0.86415 0.76854 0.76458 0.0
H424 H 0.87153 0.8302 -0.00373 0.0
C425 C 0.86533 0.73417 0.8281 0.0
H426 H 0.86585 0.82999 0.78076 0.0
C427 C 0.86885 0.73429 0.95159 0.0
C428 C 0.87124 0.76878 0.01417 0.0
H429 H 0.86379 0.70712 0.78243 0.0
H430 H 0.86948 0.70731 -0.00202 0.0
C431 C 0.87001 0.80314 0.95064 0.0
C432 C 0.6253 0.73411 0.47809 0.0
C433 C 0.624 0.76848 0.4146 0.0
H434 H 0.62961 0.70724 0.6479 0.0
C435 C 0.62642 0.80295 0.47721 0.0
H436 H 0.62376 0.70706 0.43243 0.0
C437 C 0.63005 0.80306 0.60067 0.0
C438 C 0.63131 0.76869 0.66415 0.0
H439 H 0.62575 0.82994 0.43087 0.0
H440 H 0.6316 0.83011 0.64635 0.0
C441 C 0.62893 0.73422 0.60154 0.0
C442 C 0.36623 0.80295 0.602 0.0
C443 C 0.36375 0.76849 0.66507 0.0
H444 H 0.37154 0.83005 0.43258 0.0
C445 C 0.36498 0.73411 0.60211 0.0
H446 H 0.36558 0.82994 0.64796 0.0
C447 C 0.36868 0.73417 0.47871 0.0
C448 C 0.37121 0.76863 0.41563 0.0
H449 H 0.36335 0.70707 0.64816 0.0
H450 H 0.36932 0.70718 0.43278 0.0
C451 C 0.36993 0.80301 0.4786 0.0
C452 C 0.63024 0.30313 0.32578 0.0
C453 C 0.63141 0.26874 0.2628 0.0
H454 H 0.62598 0.33006 0.49514 0.0
C455 C 0.62891 0.23429 0.32587 0.0
H456 H 0.63189 0.33017 0.27973 0.0
C457 C 0.62525 0.23422 0.44927 0.0
C458 C 0.62403 0.26861 0.51226 0.0
H459 H 0.62952 0.2073 0.2799 0.0
H460 H 0.62362 0.20718 0.49529 0.0
C461 C 0.62657 0.30306 0.44919 0.0
C462 C 0.36513 0.23423 0.32566 0.0
C463 C 0.36386 0.26859 0.26218 0.0
H464 H 0.36947 0.20735 0.49544 0.0
C465 C 0.36626 0.30307 0.32479 0.0
H466 H 0.36356 0.20718 0.27998 0.0
C467 C 0.36992 0.30317 0.44823 0.0
C468 C 0.37124 0.26881 0.51171 0.0
H469 H 0.36557 0.33005 0.27842 0.0
H470 H 0.37148 0.33023 0.49387 0.0
C471 C 0.36879 0.23434 0.4491 0.0
C472 C 0.0146 0.30269 0.50038 0.0
C473 C 0.0303 0.26813 0.50234 0.0
H474 H 0.97077 0.33002 0.50151 0.0
C475 C 0.01301 0.2338 0.50127 0.0
H476 H 0.0273 0.32963 0.50078 0.0
C477 C 0.98062 0.23404 0.50166 0.0
C478 C 0.96493 0.2686 0.50317 0.0
H479 H 0.02446 0.20671 0.50236 0.0
H480 H 0.96793 0.2071 0.50303 0.0
C481 C 0.98221 0.30292 0.5008 0.0
C482 C 0.98081 0.73424 0.42636 0.0
C483 C 0.96513 0.76881 0.42417 0.0
H484 H 0.02465 0.7069 0.426 0.0
C485 C 0.98242 0.80313 0.42566 0.0
H486 H 0.96811 0.70731 0.42565 0.0
C487 C 0.01481 0.80288 0.42591 0.0
C488 C 0.0305 0.76831 0.42461 0.0
H489 H 0.97098 0.83023 0.42442 0.0
H490 H 0.02751 0.82982 0.42484 0.0
C491 C 0.01321 0.734 0.42655 0.0
C492 C 0.51457 0.80277 0.00175 0.0
C493 C 0.53023 0.76819 0.0038 0.0
H494 H 0.47076 0.83017 0.00279 0.0
C495 C 0.51292 0.73389 0.00246 0.0
H496 H 0.52729 0.8297 0.00231 0.0
C497 C 0.48052 0.73417 0.0027 0.0
C498 C 0.46487 0.76876 0.00433 0.0
H499 H 0.52434 0.70678 0.00359 0.0
H500 H 0.4678 0.70725 0.00399 0.0
C501 C 0.48218 0.80306 0.00203 0.0
C502 C 0.48063 0.23452 0.92532 0.0
C503 C 0.46495 0.2691 0.92304 0.0
H504 H 0.52444 0.20715 0.92471 0.0
C505 C 0.48226 0.30341 0.92442 0.0
H506 H 0.46791 0.20759 0.92475 0.0
C507 C 0.51466 0.30314 0.92443 0.0
C508 C 0.53032 0.26856 0.92302 0.0
H509 H 0.47083 0.33051 0.92311 0.0
H510 H 0.52737 0.33006 0.92314 0.0
C511 C 0.51301 0.23425 0.9253 0.0
loop_
_geom_bond_atom_site_label_1
_geom_bond_atom_site_label_2
_geom_bond_distance
_geom_bond_site_symmetry_2
_ccdc_geom_bond_type
C0 O16 1.251 . S
C0 O18 1.254 . S
N1 C2 1.333 . S
N1 C6 1.307 . S
N1 Zn7 2.020 . S
C2 N1 1.333 . S
C2 C3 1.379 . S
C2 H20 0.952 . S
C3 C2 1.379 . S
C3 C4 1.390 . S
C3 H30 0.949 . S
C4 C3 1.390 . S
C4 C5 1.357 . S
C5 C4 1.357 . S
C5 C6 1.370 . S
C5 H31 0.950 . S
C6 N1 1.307 . S
C6 C5 1.370 . S
C6 H24 0.948 . S
Zn7 N1 2.020 . S
Zn7 O16 2.039 . S
Zn7 O22 2.034 . S
Zn7 O26 2.025 . S
Zn7 O28 2.024 . S
C8 O27 1.246 . S
C8 O28 1.249 . S
N9 C10 1.307 . S
N9 C11 1.333 . S
N9 Zn15 2.020 . S
C10 N9 1.307 . S
C10 C14 1.370 . S
C10 H21 0.948 . S
C11 N9 1.333 . S
C11 C12 1.379 . S
C11 H19 0.952 . S
C12 C11 1.379 . S
C12 C13 1.390 . S
C12 H32 0.949 . S
C13 C12 1.390 . S
C13 C14 1.357 . S
C14 C10 1.370 . S
C14 C13 1.357 . S
C14 H33 0.950 . S
Zn15 N9 2.020 . S
Zn15 O18 2.025 . S
Zn15 O23 2.024 . S
Zn15 O25 2.039 . S
Zn15 O27 2.034 . S
O16 C0 1.251 . S
O16 Zn7 2.039 . S
C17 O22 1.246 . S
C17 O23 1.249 . S
O18 C0 1.254 . S
O18 Zn15 2.025 . S
H19 C11 0.952 . S
H20 C2 0.952 . S
H21 C10 0.948 . S
O22 Zn7 2.034 . S
O22 C17 1.246 . S
O23 Zn15 2.024 . S
O23 C17 1.249 . S
H24 C6 0.948 . S
O25 Zn15 2.039 . S
O25 C29 1.251 . S
O26 Zn7 2.025 . S
O26 C29 1.254 . S
O27 C8 1.246 . S
O27 Zn15 2.034 . S
O28 Zn7 2.024 . S
O28 C8 1.249 . S
C29 O25 1.251 . S
C29 O26 1.254 . S
H30 C3 0.949 . S
H31 C5 0.950 . S
H32 C12 0.949 . S
H33 C14 0.950 . S
C34 O50 1.251 . S
C34 O52 1.254 . S
N35 C36 1.333 . S
N35 C40 1.307 . S
N35 Zn41 2.020 . S
C36 N35 1.333 . S
C36 C37 1.379 . S
C36 H54 0.952 . S
C37 C36 1.379 . S
C37 C38 1.390 . S
C37 H64 0.949 . S
C38 C37 1.390 . S
C38 C39 1.357 . S
C39 C38 1.357 . S
C39 C40 1.370 . S
C39 H65 0.950 . S
C40 N35 1.307 . S
C40 C39 1.370 . S
C40 H58 0.948 . S
Zn41 N35 2.020 . S
Zn41 O50 2.039 . S
Zn41 O56 2.034 . S
Zn41 O60 2.025 . S
Zn41 O62 2.024 . S
C42 O61 1.246 . S
C42 O62 1.249 . S
N43 C44 1.307 . S
N43 C45 1.333 . S
N43 Zn49 2.020 . S
C44 N43 1.307 . S
C44 C48 1.370 . S
C44 H55 0.948 . S
C45 N43 1.333 . S
C45 C46 1.379 . S
C45 H53 0.952 . S
C46 C45 1.379 . S
C46 C47 1.390 . S
C46 H66 0.949 . S
C47 C46 1.390 . S
C47 C48 1.357 . S
C48 C44 1.370 . S
C48 C47 1.357 . S
C48 H67 0.950 . S
Zn49 N43 2.020 . S
Zn49 O52 2.025 . S
Zn49 O57 2.024 . S
Zn49 O59 2.039 . S
Zn49 O61 2.034 . S
O50 C34 1.251 . S
O50 Zn41 2.039 . S
C51 O56 1.246 . S
C51 O57 1.249 . S
O52 C34 1.254 . S
O52 Zn49 2.025 . S
H53 C45 0.952 . S
H54 C36 0.952 . S
H55 C44 0.948 . S
O56 Zn41 2.034 . S
O56 C51 1.246 . S
O57 Zn49 2.024 . S
O57 C51 1.249 . S
H58 C40 0.948 . S
O59 Zn49 2.039 . S
O59 C63 1.251 . S
O60 Zn41 2.025 . S
O60 C63 1.254 . S
O61 C42 1.246 . S
O61 Zn49 2.034 . S
O62 Zn41 2.024 . S
O62 C42 1.249 . S
C63 O59 1.251 . S
C63 O60 1.254 . S
H64 C37 0.949 . S
H65 C39 0.950 . S
H66 C46 0.949 . S
H67 C48 0.950 . S
C68 O84 1.251 . S
C68 O86 1.254 . S
N69 C70 1.333 . S
N69 C74 1.307 . S
N69 Zn75 2.020 . S
C70 N69 1.333 . S
C70 C71 1.379 . S
C70 H88 0.952 . S
C71 C70 1.379 . S
C71 C72 1.390 . S
C71 H98 0.949 . S
C72 C71 1.390 . S
C72 C73 1.357 . S
C73 C72 1.357 . S
C73 C74 1.370 . S
C73 H99 0.950 . S
C74 N69 1.307 . S
C74 C73 1.370 . S
C74 H92 0.948 . S
Zn75 N69 2.020 . S
Zn75 O84 2.039 . S
Zn75 O90 2.034 . S
Zn75 O94 2.025 . S
Zn75 O96 2.024 . S
C76 O95 1.246 . S
C76 O96 1.249 . S
N77 C78 1.307 . S
N77 C79 1.333 . S
N77 Zn83 2.020 . S
C78 N77 1.307 . S
C78 C82 1.370 . S
C78 H89 0.948 . S
C79 N77 1.333 . S
C79 C80 1.379 . S
C79 H87 0.952 . S
C80 C79 1.379 . S
C80 C81 1.390 . S
C80 H100 0.949 . S
C81 C80 1.390 . S
C81 C82 1.357 . S
C82 C78 1.370 . S
C82 C81 1.357 . S
C82 H101 0.950 . S
Zn83 N77 2.020 . S
Zn83 O86 2.025 . S
Zn83 O91 2.024 . S
Zn83 O93 2.039 . S
Zn83 O95 2.034 . S
O84 C68 1.251 . S
O84 Zn75 2.039 . S
C85 O90 1.246 . S
C85 O91 1.249 . S
O86 C68 1.254 . S
O86 Zn83 2.025 . S
H87 C79 0.952 . S
H88 C70 0.952 . S
H89 C78 0.948 . S
O90 Zn75 2.034 . S
O90 C85 1.246 . S
O91 Zn83 2.024 . S
O91 C85 1.249 . S
H92 C74 0.948 . S
O93 Zn83 2.039 . S
O93 C97 1.251 . S
O94 Zn75 2.025 . S
O94 C97 1.254 . S
O95 C76 1.246 . S
O95 Zn83 2.034 . S
O96 Zn75 2.024 . S
O96 C76 1.249 . S
C97 O93 1.251 . S
C97 O94 1.254 . S
H98 C71 0.949 . S
H99 C73 0.950 . S
H100 C80 0.949 . S
H101 C82 0.950 . S
C102 O118 1.251 . S
C102 O120 1.254 . S
N103 C104 1.333 . S
N103 C108 1.307 . S
N103 Zn109 2.020 . S
C104 N103 1.333 . S
C104 C105 1.379 . S
C104 H122 0.952 . S
C105 C104 1.379 . S
C105 C106 1.390 . S
C105 H132 0.949 . S
C106 C105 1.390 . S
C106 C107 1.357 . S
C107 C106 1.357 . S
C107 C108 1.370 . S
C107 H133 0.950 . S
C108 N103 1.307 . S
C108 C107 1.370 . S
C108 H126 0.948 . S
Zn109 N103 2.020 . S
Zn109 O118 2.039 . S
Zn109 O124 2.034 . S
Zn109 O128 2.025 . S
Zn109 O130 2.024 . S
C110 O129 1.246 . S
C110 O130 1.249 . S
N111 C112 1.307 . S
N111 C113 1.333 . S
N111 Zn117 2.020 . S
C112 N111 1.307 . S
C112 C116 1.370 . S
C112 H123 0.948 . S
C113 N111 1.333 . S
C113 C114 1.379 . S
C113 H121 0.952 . S
C114 C113 1.379 . S
C114 C115 1.390 . S
C114 H134 0.949 . S
C115 C114 1.390 . S
C115 C116 1.357 . S
C116 C112 1.370 . S
C116 C115 1.357 . S
C116 H135 0.950 . S
Zn117 N111 2.020 . S
Zn117 O120 2.025 . S
Zn117 O125 2.024 . S
Zn117 O127 2.039 . S
Zn117 O129 2.034 . S
O118 C102 1.251 . S
O118 Zn109 2.039 . S
C119 O124 1.246 . S
C119 O125 1.249 . S
O120 C102 1.254 . S
O120 Zn117 2.025 . S
H121 C113 0.952 . S
H122 C104 0.952 . S
H123 C112 0.948 . S
O124 Zn109 2.034 . S
O124 C119 1.246 . S
O125 Zn117 2.024 . S
O125 C119 1.249 . S
H126 C108 0.948 . S
O127 Zn117 2.039 . S
O127 C131 1.251 . S
O128 Zn109 2.025 . S
O128 C131 1.254 . S
O129 C110 1.246 . S
O129 Zn117 2.034 . S
O130 Zn109 2.024 . S
O130 C110 1.249 . S
C131 O127 1.251 . S
C131 O128 1.254 . S
H132 C105 0.949 . S
H133 C107 0.950 . S
H134 C114 0.949 . S
H135 C116 0.950 . S
C136 O152 1.251 . S
C136 O154 1.254 . S
N137 C138 1.333 . S
N137 C142 1.307 . S
N137 Zn143 2.020 . S
C138 N137 1.333 . S
C138 C139 1.379 . S
C138 H156 0.952 . S
C139 C138 1.379 . S
C139 C140 1.390 . S
C139 H166 0.949 1_554 S
C140 C139 1.390 . S
C140 C141 1.357 . S
C141 C140 1.357 . S
C141 C142 1.370 . S
C141 H167 0.950 . S
C142 N137 1.307 . S
C142 C141 1.370 . S
C142 H160 0.948 . S
Zn143 N137 2.020 . S
Zn143 O152 2.039 . S
Zn143 O158 2.034 1_554 S
Zn143 O162 2.025 . S
Zn143 O164 2.024 . S
C144 O163 1.246 . S
C144 O164 1.249 . S
N145 C146 1.307 . S
N145 C147 1.333 . S
N145 Zn151 2.020 . S
C146 N145 1.307 . S
C146 C150 1.370 . S
C146 H157 0.948 1_554 S
C147 N145 1.333 . S
C147 C148 1.379 . S
C147 H155 0.952 . S
C148 C147 1.379 . S
C148 C149 1.390 . S
C148 H168 0.949 . S
C149 C148 1.390 . S
C149 C150 1.357 . S
C150 C146 1.370 . S
C150 C149 1.357 . S
C150 H169 0.950 1_554 S
Zn151 N145 2.020 . S
Zn151 O154 2.025 . S
Zn151 O159 2.024 1_554 S
Zn151 O161 2.039 . S
Zn151 O163 2.034 . S
O152 C136 1.251 . S
O152 Zn143 2.039 . S
C153 O158 1.246 . S
C153 O159 1.249 . S
O154 C136 1.254 . S
O154 Zn151 2.025 . S
H155 C147 0.952 . S
H156 C138 0.952 . S
H157 C146 0.948 1_556 S
O158 Zn143 2.034 1_556 S
O158 C153 1.246 . S
O159 Zn151 2.024 1_556 S
O159 C153 1.249 . S
H160 C142 0.948 . S
O161 Zn151 2.039 . S
O161 C165 1.251 . S
O162 Zn143 2.025 . S
O162 C165 1.254 . S
O163 C144 1.246 . S
O163 Zn151 2.034 . S
O164 Zn143 2.024 . S
O164 C144 1.249 . S
C165 O161 1.251 . S
C165 O162 1.254 . S
H166 C139 0.949 1_556 S
H167 C141 0.950 . S
H168 C148 0.949 . S
H169 C150 0.950 1_556 S
C170 O186 1.251 . S
C170 O188 1.254 . S
N171 C172 1.333 . S
N171 C176 1.307 . S
N171 Zn177 2.020 . S
C172 N171 1.333 . S
C172 C173 1.379 . S
C172 H190 0.952 . S
C173 C172 1.379 . S
C173 C174 1.390 . S
C173 H200 0.949 . S
C174 C173 1.390 . S
C174 C175 1.357 . S
C175 C174 1.357 . S
C175 C176 1.370 . S
C175 H201 0.950 1_554 S
C176 N171 1.307 . S
C176 C175 1.370 . S
C176 H194 0.948 1_554 S
Zn177 N171 2.020 . S
Zn177 O186 2.039 . S
Zn177 O192 2.034 . S
Zn177 O196 2.025 . S
Zn177 O198 2.024 1_554 S
C178 O197 1.246 . S
C178 O198 1.249 . S
N179 C180 1.307 . S
N179 C181 1.333 . S
N179 Zn185 2.020 . S
C180 N179 1.307 . S
C180 C184 1.370 . S
C180 H191 0.948 . S
C181 N179 1.333 . S
C181 C182 1.379 . S
C181 H189 0.952 . S
C182 C181 1.379 . S
C182 C183 1.390 . S
C182 H202 0.949 1_554 S
C183 C182 1.390 . S
C183 C184 1.357 . S
C184 C180 1.370 . S
C184 C183 1.357 . S
C184 H203 0.950 . S
Zn185 N179 2.020 . S
Zn185 O188 2.025 . S
Zn185 O193 2.024 . S
Zn185 O195 2.039 . S
Zn185 O197 2.034 1_554 S
O186 C170 1.251 . S
O186 Zn177 2.039 . S
C187 O192 1.246 . S
C187 O193 1.249 . S
O188 C170 1.254 . S
O188 Zn185 2.025 . S
H189 C181 0.952 . S
H190 C172 0.952 . S
H191 C180 0.948 . S
O192 Zn177 2.034 . S
O192 C187 1.246 . S
O193 Zn185 2.024 . S
O193 C187 1.249 . S
H194 C176 0.948 1_556 S
O195 Zn185 2.039 . S
O195 C199 1.251 . S
O196 Zn177 2.025 . S
O196 C199 1.254 . S
O197 C178 1.246 . S
O197 Zn185 2.034 1_556 S
O198 Zn177 2.024 1_556 S
O198 C178 1.249 . S
C199 O195 1.251 . S
C199 O196 1.254 . S
H200 C173 0.949 . S
H201 C175 0.950 1_556 S
H202 C182 0.949 1_556 S
H203 C184 0.950 . S
C204 O220 1.251 . S
C204 O222 1.254 . S
N205 C206 1.333 . S
N205 C210 1.307 . S
N205 Zn211 2.020 . S
C206 N205 1.333 . S
C206 C207 1.379 . S
C206 H224 0.952 . S
C207 C206 1.379 . S
C207 C208 1.390 . S
C207 H234 0.949 . S
C208 C207 1.390 . S
C208 C209 1.357 . S
C209 C208 1.357 . S
C209 C210 1.370 . S
C209 H235 0.950 1_556 S
C210 N205 1.307 . S
C210 C209 1.370 . S
C210 H228 0.948 1_556 S
Zn211 N205 2.020 . S
Zn211 O220 2.039 . S
Zn211 O226 2.034 . S
Zn211 O230 2.025 . S
Zn211 O232 2.024 1_556 S
C212 O231 1.246 . S
C212 O232 1.249 . S
N213 C214 1.307 . S
N213 C215 1.333 . S
N213 Zn219 2.020 . S
C214 N213 1.307 . S
C214 C218 1.370 . S
C214 H225 0.948 . S
C215 N213 1.333 . S
C215 C216 1.379 . S
C215 H223 0.952 . S
C216 C215 1.379 . S
C216 C217 1.390 . S
C216 H236 0.949 1_556 S
C217 C216 1.390 . S
C217 C218 1.357 . S
C218 C214 1.370 . S
C218 C217 1.357 . S
C218 H237 0.950 . S
Zn219 N213 2.020 . S
Zn219 O222 2.025 . S
Zn219 O227 2.024 . S
Zn219 O229 2.039 . S
Zn219 O231 2.034 1_556 S
O220 C204 1.251 . S
O220 Zn211 2.039 . S
C221 O226 1.246 . S
C221 O227 1.249 . S
O222 C204 1.254 . S
O222 Zn219 2.025 . S
H223 C215 0.952 . S
H224 C206 0.952 . S
H225 C214 0.948 . S
O226 Zn211 2.034 . S
O226 C221 1.246 . S
O227 Zn219 2.024 . S
O227 C221 1.249 . S
H228 C210 0.948 1_554 S
O229 Zn219 2.039 . S
O229 C233 1.251 . S
O230 Zn211 2.025 . S
O230 C233 1.254 . S
O231 C212 1.246 . S
O231 Zn219 2.034 1_554 S
O232 Zn211 2.024 1_554 S
O232 C212 1.249 . S
C233 O229 1.251 . S
C233 O230 1.254 . S
H234 C207 0.949 . S
H235 C209 0.950 1_554 S
H236 C216 0.949 1_554 S
H237 C218 0.950 . S
C238 O254 1.251 . S
C238 O256 1.254 . S
N239 C240 1.333 . S
N239 C244 1.307 . S
N239 Zn245 2.020 . S
C240 N239 1.333 . S
C240 C241 1.379 . S
C240 H258 0.952 . S
C241 C240 1.379 . S
C241 C242 1.390 . S
C241 H268 0.949 . S
C242 C241 1.390 . S
C242 C243 1.357 . S
C243 C242 1.357 . S
C243 C244 1.370 . S
C243 H269 0.950 1_556 S
C244 N239 1.307 . S
C244 C243 1.370 . S
C244 H262 0.948 1_556 S
Zn245 N239 2.020 . S
Zn245 O254 2.039 . S
Zn245 O260 2.034 . S
Zn245 O264 2.025 . S
Zn245 O266 2.024 1_556 S
C246 O265 1.246 . S
C246 O266 1.249 . S
N247 C248 1.307 . S
N247 C249 1.333 . S
N247 Zn253 2.020 . S
C248 N247 1.307 . S
C248 C252 1.370 . S
C248 H259 0.948 . S
C249 N247 1.333 . S
C249 C250 1.379 . S
C249 H257 0.952 . S
C250 C249 1.379 . S
C250 C251 1.390 . S
C250 H270 0.949 1_556 S
C251 C250 1.390 . S
C251 C252 1.357 . S
C252 C248 1.370 . S
C252 C251 1.357 . S
C252 H271 0.950 . S
Zn253 N247 2.020 . S
Zn253 O256 2.025 . S
Zn253 O261 2.024 . S
Zn253 O263 2.039 . S
Zn253 O265 2.034 1_556 S
O254 C238 1.251 . S
O254 Zn245 2.039 . S
C255 O260 1.246 . S
C255 O261 1.249 . S
O256 C238 1.254 . S
O256 Zn253 2.025 . S
H257 C249 0.952 . S
H258 C240 0.952 . S
H259 C248 0.948 . S
O260 Zn245 2.034 . S
O260 C255 1.246 . S
O261 Zn253 2.024 . S
O261 C255 1.249 . S
H262 C244 0.948 1_554 S
O263 Zn253 2.039 . S
O263 C267 1.251 . S
O264 Zn245 2.025 . S
O264 C267 1.254 . S
O265 C246 1.246 . S
O265 Zn253 2.034 1_554 S
O266 Zn245 2.024 1_554 S
O266 C246 1.249 . S
C267 O263 1.251 . S
C267 O264 1.254 . S
H268 C241 0.949 . S
H269 C243 0.950 1_554 S
H270 C250 0.949 1_554 S
H271 C252 0.950 . S
C272 C273 1.387 . S
C272 H276 0.950 . S
C272 C281 1.390 . S
C273 C272 1.387 . S
C273 C275 1.387 . S
H274 C281 0.950 . S
C275 C273 1.387 . S
C275 C277 1.390 . S
C275 H279 0.950 . S
H276 C272 0.950 . S
C277 C275 1.390 . S
C277 C278 1.387 . S
C277 H280 0.950 . S
C278 C277 1.387 . S
C278 C281 1.387 . S
H279 C275 0.950 . S
H280 C277 0.950 . S
C281 C272 1.390 . S
C281 H274 0.950 . S
C281 C278 1.387 . S
C282 C283 1.387 . S
C282 H286 0.950 . S
C282 C291 1.390 . S
C283 C282 1.387 . S
C283 C285 1.387 . S
H284 C291 0.950 . S
C285 C283 1.387 . S
C285 C287 1.390 . S
C285 H289 0.950 . S
H286 C282 0.950 . S
C287 C285 1.390 . S
C287 C288 1.387 . S
C287 H290 0.950 . S
C288 C287 1.387 . S
C288 C291 1.387 . S
H289 C285 0.950 . S
H290 C287 0.950 . S
C291 C282 1.390 . S
C291 H284 0.950 . S
C291 C288 1.387 . S
C292 C293 1.387 . S
C292 H296 0.950 . S
C292 C301 1.390 . S
C293 C292 1.387 . S
C293 C295 1.387 . S
H294 C301 0.950 . S
C295 C293 1.387 . S
C295 C297 1.390 . S
C295 H299 0.950 . S
H296 C292 0.950 . S
C297 C295 1.390 . S
C297 C298 1.387 . S
C297 H300 0.950 . S
C298 C297 1.387 . S
C298 C301 1.387 . S
H299 C295 0.950 . S
H300 C297 0.950 . S
C301 C292 1.390 . S
C301 H294 0.950 . S
C301 C298 1.387 . S
C302 C303 1.387 . S
C302 H306 0.950 . S
C302 C311 1.390 . S
C303 C302 1.387 . S
C303 C305 1.387 . S
H304 C311 0.950 . S
C305 C303 1.387 . S
C305 C307 1.390 . S
C305 H309 0.950 . S
H306 C302 0.950 . S
C307 C305 1.390 . S
C307 C308 1.387 . S
C307 H310 0.950 . S
C308 C307 1.387 . S
C308 C311 1.387 . S
H309 C305 0.950 . S
H310 C307 0.950 . S
C311 C302 1.390 . S
C311 H304 0.950 . S
C311 C308 1.387 . S
C312 C313 1.387 . S
C312 H316 0.950 . S
C312 C321 1.390 1_565 S
C313 C312 1.387 . S
C313 C315 1.387 . S
H314 C321 0.950 . S
C315 C313 1.387 . S
C315 C317 1.390 1_565 S
C315 H319 0.950 . S
H316 C312 0.950 . S
C317 C315 1.390 1_545 S
C317 C318 1.387 . S
C317 H320 0.950 . S
C318 C317 1.387 . S
C318 C321 1.387 . S
H319 C315 0.950 . S
H320 C317 0.950 . S
C321 C312 1.390 1_545 S
C321 H314 0.950 . S
C321 C318 1.387 . S
C322 C323 1.387 . S
C322 H326 0.950 . S
C322 C331 1.390 . S
C323 C322 1.387 . S
C323 C325 1.387 . S
H324 C331 0.950 . S
C325 C323 1.387 . S
C325 C327 1.390 . S
C325 H329 0.950 . S
H326 C322 0.950 . S
C327 C325 1.390 . S
C327 C328 1.387 . S
C327 H330 0.950 . S
C328 C327 1.387 . S
C328 C331 1.387 . S
H329 C325 0.950 . S
H330 C327 0.950 . S
C331 C322 1.390 . S
C331 H324 0.950 . S
C331 C328 1.387 . S
C332 C333 1.387 . S
C332 H336 0.950 . S
C332 C341 1.390 1_565 S
C333 C332 1.387 . S
C333 C335 1.387 . S
H334 C341 0.950 . S
C335 C333 1.387 . S
C335 C337 1.390 1_565 S
C335 H339 0.950 . S
H336 C332 0.950 . S
C337 C335 1.390 1_545 S
C337 C338 1.387 . S
C337 H340 0.950 . S
C338 C337 1.387 . S
C338 C341 1.387 . S
H339 C335 0.950 . S
H340 C337 0.950 . S
C341 C332 1.390 1_545 S
C341 H334 0.950 . S
C341 C338 1.387 . S
C342 C343 1.387 . S
C342 H346 0.950 . S
C342 C351 1.390 . S
C343 C342 1.387 . S
C343 C345 1.387 . S
H344 C351 0.950 . S
C345 C343 1.387 . S
C345 C347 1.390 . S
C345 H349 0.950 . S
H346 C342 0.950 . S
C347 C345 1.390 . S
C347 C348 1.387 . S
C347 H350 0.950 . S
C348 C347 1.387 . S
C348 C351 1.387 . S
H349 C345 0.950 . S
H350 C347 0.950 . S
C351 C342 1.390 . S
C351 H344 0.950 . S
C351 C348 1.387 . S
C352 C353 1.387 1_556 S
C352 H356 0.950 . S
C352 C361 1.390 . S
C353 C352 1.387 1_554 S
C353 C355 1.387 . S
H354 C361 0.950 . S
C355 C353 1.387 . S
C355 C357 1.390 . S
C355 H359 0.950 . S
H356 C352 0.950 . S
C357 C355 1.390 . S
C357 C358 1.387 1_554 S
C357 H360 0.950 . S
C358 C357 1.387 1_556 S
C358 C361 1.387 . S
H359 C355 0.950 . S
H360 C357 0.950 . S
C361 C352 1.390 . S
C361 H354 0.950 . S
C361 C358 1.387 . S
C362 C363 1.387 1_556 S
C362 H366 0.950 . S
C362 C371 1.390 1_565 S
C363 C362 1.387 1_554 S
C363 C365 1.387 . S
H364 C371 0.950 . S
C365 C363 1.387 . S
C365 C367 1.390 1_565 S
C365 H369 0.950 . S
H366 C362 0.950 . S
C367 C365 1.390 1_545 S
C367 C368 1.387 1_554 S
C367 H370 0.950 . S
C368 C367 1.387 1_556 S
C368 C371 1.387 . S
H369 C365 0.950 . S
H370 C367 0.950 . S
C371 C362 1.390 1_545 S
C371 H364 0.950 . S
C371 C368 1.387 . S
C372 C373 1.387 1_554 S
C372 H376 0.950 . S
C372 C381 1.390 . S
C373 C372 1.387 1_556 S
C373 C375 1.387 . S
H374 C381 0.950 . S
C375 C373 1.387 . S
C375 C377 1.390 . S
C375 H379 0.950 . S
H376 C372 0.950 . S
C377 C375 1.390 . S
C377 C378 1.387 1_556 S
C377 H380 0.950 . S
C378 C377 1.387 1_554 S
C378 C381 1.387 . S
H379 C375 0.950 . S
H380 C377 0.950 . S
C381 C372 1.390 . S
C381 H374 0.950 . S
C381 C378 1.387 . S
C382 C383 1.387 . S
C382 H386 0.950 . S
C382 C391 1.390 1_546 S
C383 C382 1.387 . S
C383 C385 1.387 . S
H384 C391 0.950 . S
C385 C383 1.387 . S
C385 C387 1.390 1_546 S
C385 H389 0.950 . S
H386 C382 0.950 . S
C387 C385 1.390 1_564 S
C387 C388 1.387 . S
C387 H390 0.950 . S
C388 C387 1.387 . S
C388 C391 1.387 . S
H389 C385 0.950 . S
H390 C387 0.950 . S
C391 C382 1.390 1_564 S
C391 H384 0.950 . S
C391 C388 1.387 . S
C392 C393 1.387 . S
C392 H396 0.950 . S
C392 C401 1.390 1_554 S
C393 C392 1.387 . S
C393 C395 1.387 . S
H394 C401 0.950 . S
C395 C393 1.387 . S
C395 C397 1.390 1_554 S
C395 H399 0.950 . S
H396 C392 0.950 . S
C397 C395 1.390 1_556 S
C397 C398 1.387 . S
C397 H400 0.950 . S
C398 C397 1.387 . S
C398 C401 1.387 . S
H399 C395 0.950 . S
H400 C397 0.950 . S
C401 C392 1.390 1_556 S
C401 H394 0.950 . S
C401 C398 1.387 . S
C402 C403 1.387 . S
C402 H406 0.950 . S
C402 C411 1.390 1_554 S
C403 C402 1.387 . S
C403 C405 1.387 . S
H404 C411 0.950 . S
C405 C403 1.387 . S
C405 C407 1.397 . S
C405 H409 0.950 . S
H406 C402 0.950 . S
C407 C405 1.397 . S
C407 C408 1.384 1_554 S
C407 H410 0.947 1_554 S
C408 C407 1.384 1_556 S
C408 C411 1.387 . S
H409 C405 0.950 . S
H410 C407 0.947 1_556 S
C411 C402 1.390 1_556 S
C411 H404 0.950 . S
C411 C408 1.387 . S
C412 C413 1.387 1_556 S
C412 H416 0.950 1_556 S
C412 C421 1.390 . S
C413 C412 1.387 1_554 S
C413 C415 1.387 . S
H414 C421 0.950 . S
C415 C413 1.387 . S
C415 C417 1.390 1_554 S
C415 H419 0.950 . S
H416 C412 0.950 1_554 S
C417 C415 1.390 1_556 S
C417 C418 1.387 . S
C417 H420 0.950 . S
C418 C417 1.387 . S
C418 C421 1.387 . S
H419 C415 0.950 . S
H420 C417 0.950 . S
C421 C412 1.390 . S
C421 H414 0.950 . S
C421 C418 1.387 . S
C422 C423 1.387 . S
C422 H426 0.950 . S
C422 C431 1.390 1_556 S
C423 C422 1.387 . S
C423 C425 1.387 . S
H424 C431 0.950 . S
C425 C423 1.387 . S
C425 C427 1.390 1_556 S
C425 H429 0.950 . S
H426 C422 0.950 . S
C427 C425 1.390 1_554 S
C427 C428 1.388 . S
C427 H430 0.950 . S
C428 C427 1.388 . S
C428 C431 1.387 . S
H429 C425 0.950 . S
H430 C427 0.950 . S
C431 C422 1.390 1_554 S
C431 H424 0.950 . S
C431 C428 1.387 . S
C432 C433 1.387 . S
C432 H436 0.950 . S
C432 C441 1.390 . S
C433 C432 1.387 . S
C433 C435 1.387 . S
H434 C441 0.950 . S
C435 C433 1.387 . S
C435 C437 1.390 . S
C435 H439 0.950 . S
H436 C432 0.950 . S
C437 C435 1.390 . S
C437 C438 1.387 . S
C437 H440 0.950 . S
C438 C437 1.387 . S
C438 C441 1.387 . S
H439 C435 0.950 . S
H440 C437 0.950 . S
C441 C432 1.390 . S
C441 H434 0.950 . S
C441 C438 1.387 . S
C442 C443 1.387 . S
C442 H446 0.950 . S
C442 C451 1.390 . S
C443 C442 1.387 . S
C443 C445 1.387 . S
H444 C451 0.950 . S
C445 C443 1.387 . S
C445 C447 1.390 . S
C445 H449 0.950 . S
H446 C442 0.950 . S
C447 C445 1.390 . S
C447 C448 1.387 . S
C447 H450 0.950 . S
C448 C447 1.387 . S
C448 C451 1.387 . S
H449 C445 0.950 . S
H450 C447 0.950 . S
C451 C442 1.390 . S
C451 H444 0.950 . S
C451 C448 1.387 . S
C452 C453 1.387 . S
C452 H456 0.950 . S
C452 C461 1.390 . S
C453 C452 1.387 . S
C453 C455 1.387 . S
H454 C461 0.950 . S
C455 C453 1.387 . S
C455 C457 1.390 . S
C455 H459 0.950 . S
H456 C452 0.950 . S
C457 C455 1.390 . S
C457 C458 1.387 . S
C457 H460 0.950 . S
C458 C457 1.387 . S
C458 C461 1.387 . S
H459 C455 0.950 . S
H460 C457 0.950 . S
C461 C452 1.390 . S
C461 H454 0.950 . S
C461 C458 1.387 . S
C462 C463 1.387 . S
C462 H466 0.950 . S
C462 C471 1.390 . S
C463 C462 1.387 . S
C463 C465 1.387 . S
H464 C471 0.950 . S
C465 C463 1.387 . S
C465 C467 1.390 . S
C465 H469 0.950 . S
H466 C462 0.950 . S
C467 C465 1.390 . S
C467 C468 1.387 . S
C467 H470 0.950 . S
C468 C467 1.387 . S
C468 C471 1.387 . S
H469 C465 0.950 . S
H470 C467 0.950 . S
C471 C462 1.390 . S
C471 H464 0.950 . S
C471 C468 1.387 . S
C472 C473 1.387 . S
C472 H476 0.950 . S
C472 C481 1.390 1_455 S
C473 C472 1.387 . S
C473 C475 1.387 . S
H474 C481 0.950 . S
C475 C473 1.387 . S
C475 C477 1.390 1_455 S
C475 H479 0.950 . S
H476 C472 0.950 . S
C477 C475 1.390 1_655 S
C477 C478 1.387 . S
C477 H480 0.950 . S
C478 C477 1.387 . S
C478 C481 1.387 . S
H479 C475 0.950 . S
H480 C477 0.950 . S
C481 C472 1.390 1_655 S
C481 H474 0.950 . S
C481 C478 1.387 . S
C482 C483 1.387 . S
C482 H486 0.950 . S
C482 C491 1.390 1_655 S
C483 C482 1.387 . S
C483 C485 1.387 . S
H484 C491 0.950 . S
C485 C483 1.387 . S
C485 C487 1.390 1_655 S
C485 H489 0.950 . S
H486 C482 0.950 . S
C487 C485 1.390 1_455 S
C487 C488 1.387 . S
C487 H490 0.950 . S
C488 C487 1.387 . S
C488 C491 1.387 . S
H489 C485 0.950 . S
H490 C487 0.950 . S
C491 C482 1.390 1_455 S
C491 H484 0.950 . S
C491 C488 1.387 . S
C492 C493 1.387 1_556 S
C492 H496 0.950 . S
C492 C501 1.390 . S
C493 C492 1.387 1_554 S
C493 C495 1.387 . S
H494 C501 0.950 . S
C495 C493 1.387 . S
C495 C497 1.390 . S
C495 H499 0.950 . S
H496 C492 0.950 . S
C497 C495 1.390 . S
C497 C498 1.387 . S
C497 H500 0.950 . S
C498 C497 1.387 . S
C498 C501 1.387 1_554 S
H499 C495 0.950 . S
H500 C497 0.950 . S
C501 C492 1.390 . S
C501 H494 0.950 . S
C501 C498 1.387 1_556 S
C502 C503 1.387 1_554 S
C502 H506 0.950 . S
C502 C511 1.390 . S
C503 C502 1.387 1_556 S
C503 C505 1.387 . S
H504 C511 0.950 . S
C505 C503 1.387 . S
C505 C507 1.390 . S
C505 H509 0.950 . S
H506 C502 0.950 . S
C507 C505 1.390 . S
C507 C508 1.387 . S
C507 H510 0.950 . S
C508 C507 1.387 . S
C508 C511 1.387 1_556 S
H509 C505 0.950 . S
H510 C507 0.950 . S
C511 C502 1.390 . S
C511 H504 0.950 . S
C511 C508 1.387 1_554 S
C273 C0 1.701 . S
C278 C267 1.701 . S
C283 C233 1.704 . S
C288 C63 1.702 . S
C293 C199 1.702 . S
C298 C97 1.704 . S
C303 C136 1.704 . S
C308 C131 1.704 . S
C313 C72 1.652 . S
C318 C4 1.649 . S
C323 C38 1.587 . S
C328 C106 1.594 . S
C333 C115 1.576 . S
C338 C47 1.568 . S
C343 C81 1.501 . S
C348 C13 1.504 . S
C353 C140 1.649 . S
C358 C208 1.652 . S
C363 C174 1.586 . S
C368 C242 1.592 . S
C373 C251 1.575 . S
C378 C183 1.568 . S
C383 C217 1.503 . S
C388 C149 1.505 . S
C393 C17 1.274 . S
C398 C8 1.274 . S
C403 C42 1.274 . S
C408 C51 1.274 . S
C413 C85 1.274 . S
C418 C76 1.274 . S
C423 C110 1.274 . S
C428 C119 1.274 . S
C433 C144 1.274 . S
C438 C153 1.274 . S
C443 C178 1.274 . S
C448 C187 1.274 . S
C453 C212 1.274 . S
C458 C221 1.274 . S
C463 C246 1.274 . S
C468 C255 1.274 . S
C473 C29 1.582 . S
C478 C34 1.581 . S
C483 C102 1.580 . S
C488 C68 1.580 . S
C493 C165 1.582 . S
C498 C170 1.581 . S
C503 C238 1.580 . S
C508 C204 1.580 . S
