# Generated by pormake.
# Topology vmr, (7)-cn, num edge types: 1
# Building blocks:
#     Node 0, Type 0, BuildingBlock: HICVOG_clean_sbu_0, # of connection points: 7
#     Node 1, Type 0, BuildingBlock: HICVOG_clean_sbu_0, # of connection points: 7
#     Node 2, Type 0, BuildingBlock: HICVOG_clean_sbu_0, # of connection points: 7
#     Node 3, Type 0, BuildingBlock: HICVOG_clean_sbu_0, # of connection points: 7
#     Edge 4, Type (0, 0), BuildingBlock: FUNLAD_clean_linker_1, # of connection points: 2
#     Edge 5, Type (0, 0), BuildingBlock: FUNLAD_clean_linker_1, # of connection points: 2
#     Edge 6, Type (0, 0), BuildingBlock: FUNLAD_clean_linker_1, # of connection points: 2
#     Edge 7, Type (0, 0), BuildingBlock: FUNLAD_clean_linker_1, # of connection points: 2
#     Edge 8, Type (0, 0), BuildingBlock: FUNLAD_clean_linker_1, # of connection points: 2
#     Edge 9, Type (0, 0), BuildingBlock: FUNLAD_clean_linker_1, # of connection points: 2
#     Edge 10, Type (0, 0), BuildingBlock: FUNLAD_clean_linker_1, # of connection points: 2
#     Edge 11, Type (0, 0), BuildingBlock: FUNLAD_clean_linker_1, # of connection points: 2
#     Edge 12, Type (0, 0), BuildingBlock: FUNLAD_clean_linker_1, # of connection points: 2
#     Edge 13, Type (0, 0), BuildingBlock: FUNLAD_clean_linker_1, # of connection points: 2
#     Edge 14, Type (0, 0), BuildingBlock: FUNLAD_clean_linker_1, # of connection points: 2
#     Edge 15, Type (0, 0), BuildingBlock: FUNLAD_clean_linker_1, # of connection points: 2
#     Edge 16, Type (0, 0), BuildingBlock: FUNLAD_clean_linker_1, # of connection points: 2
#     Edge 17, Type (0, 0), BuildingBlock: FUNLAD_clean_linker_1, # of connection points: 2
# Relax obj value: 0.076
# Max RMSD: 0.173
# Mean RMSD: 0.173
data_MOF--net-vmr--node1-HICVOG_clean_sbu_0--edge1-FUNLAD_clean_linker_1
_symmetry_space_group_name_H-M    P1
_symmetry_Int_Tables_number       1
_symmetry_cell_setting            triclinic
loop_
_symmetry_equiv_pos_as_xyz
'x, y, z'
_cell_length_a     26.413007
_cell_length_b     23.172838
_cell_length_c     36.9736
_cell_angle_alpha  89.725713
_cell_angle_beta   122.41785
_cell_angle_gamma 90.68629
loop_
_atom_site_label
_atom_site_type_symbol
_atom_site_fract_x
_atom_site_fract_y
_atom_site_fract_z
_atom_type_partial_charge
Zn0 Zn 0.23547 0.32969 0.15127 0.0
C1 C 0.10613 0.3489 0.17382 0.0
N2 N 0.0804 0.38153 0.13823 0.0
C3 C 0.11493 0.37165 0.12248 0.0
N4 N 0.1599 0.33492 0.14725 0.0
N5 N 0.15317 0.31927 0.17887 0.0
C6 C 0.21242 0.23061 0.3012 0.0
O7 O 0.24953 0.19046 0.30475 0.0
O8 O 0.22429 0.33582 0.09326 0.0
Zn9 Zn 0.18454 0.24945 0.21325 0.0
N10 N 0.28755 0.38967 0.19077 0.0
C11 C 0.33605 0.41966 0.26354 0.0
C12 C 0.29618 0.38332 0.23027 0.0
C13 C 0.31711 0.43177 0.18297 0.0
N14 N 0.36637 0.46074 0.25618 0.0
C15 C 0.35842 0.46802 0.21688 0.0
O16 O 0.26535 0.21979 0.22656 0.0
C17 C 0.29407 0.22114 0.20772 0.0
O18 O 0.28132 0.25633 0.17754 0.0
H19 H 0.27297 0.3493 0.23601 0.0
H20 H 0.31014 0.43567 0.15143 0.0
C21 C 0.12072 0.14355 0.20311 0.0
C22 C 0.07796 0.0998 0.18053 0.0
C23 C 0.05148 0.14546 0.1152 0.0
C24 C 0.09372 0.18916 0.13787 0.0
N25 N 0.12723 0.18762 0.1814 0.0
N26 N 0.04423 0.10206 0.13695 0.0
H27 H 0.14773 0.14317 0.23772 0.0
C28 C 0.18913 0.29837 0.066 0.0
O29 O 0.16012 0.26219 0.07618 0.0
O30 O 0.18404 0.26005 0.2671 0.0
H31 H 0.09951 0.22417 0.12093 0.0
H32 H 0.34348 0.41482 0.29515 0.0
H33 H 0.02431 0.14629 0.08056 0.0
Zn34 Zn 0.83254 0.74734 0.28261 0.0
C35 C 0.91365 0.87193 0.3712 0.0
N36 N 0.94975 0.87376 0.35603 0.0
C37 C 0.92162 0.83907 0.32169 0.0
N38 N 0.87054 0.81647 0.31621 0.0
N39 N 0.86485 0.83788 0.3471 0.0
C40 C 0.85672 0.79642 0.43943 0.0
O41 O 0.89076 0.76921 0.42934 0.0
O42 O 0.81894 0.75126 0.22327 0.0
Zn43 Zn 0.79249 0.83787 0.34995 0.0
N44 N 0.88819 0.68529 0.3126 0.0
C45 C 0.95378 0.63674 0.3782 0.0
C46 C 0.91228 0.68004 0.35541 0.0
C47 C 0.9036 0.64868 0.29149 0.0
N48 N 0.96959 0.60043 0.35723 0.0
C49 C 0.9455 0.60513 0.31428 0.0
O50 O 0.72948 0.776 0.31441 0.0
C51 C 0.71911 0.73527 0.28818 0.0
O52 O 0.75503 0.7234 0.27646 0.0
H53 H 0.89948 0.70952 0.37162 0.0
H54 H 0.88397 0.6539 0.25739 0.0
C55 C 0.70102 0.92425 0.32693 0.0
C56 C 0.67439 0.97876 0.31253 0.0
C57 C 0.75491 1.00764 0.30507 0.0
C58 C 0.78072 0.95357 0.31893 0.0
N59 N 0.75376 0.9129 0.32992 0.0
N60 N 0.70258 0.01891 0.30213 0.0
H61 H 0.68005 0.89116 0.33553 0.0
C62 C 0.7975 0.79304 0.19702 0.0
O63 O 0.78288 0.84086 0.20797 0.0
O64 O 0.81421 0.8277 0.41151 0.0
H65 H 0.82189 0.94434 0.32068 0.0
H66 H 0.97347 0.63216 0.41232 0.0
H67 H 0.77611 0.04038 0.29644 0.0
Zn68 Zn 0.84513 0.77662 0.7874 0.0
C69 C 0.92983 0.65452 0.87392 0.0
N70 N 0.96215 0.65231 0.85572 0.0
C71 C 0.92866 0.68247 0.81938 0.0
N72 N 0.87927 0.70376 0.81636 0.0
N73 N 0.87865 0.68446 0.84989 0.0
C74 C 0.83315 0.70174 0.93495 0.0
O75 O 0.84592 0.75304 0.92642 0.0
O76 O 0.84037 0.779 0.73086 0.0
Zn77 Zn 0.80489 0.67957 0.84969 0.0
N78 N 0.90243 0.836 0.82381 0.0
C79 C 0.961 0.87551 0.89406 0.0
C80 C 0.91873 0.83559 0.86545 0.0
C81 C 0.92608 0.87562 0.8093 0.0
N82 N 0.98515 0.91454 0.87985 0.0
C83 C 0.96865 0.91641 0.83813 0.0
O84 O 0.75539 0.75169 0.82849 0.0
C85 C 0.73973 0.79141 0.80069 0.0
O86 O 0.76598 0.80004 0.78048 0.0
H87 H 0.89929 0.80405 0.87635 0.0
H88 H 0.91297 0.87424 0.77614 0.0
C89 C 0.71842 0.58283 0.81506 0.0
C90 C 0.6749 0.5483 0.78086 0.0
C91 C 0.70369 0.58994 0.73561 0.0
C92 C 0.74568 0.62485 0.76918 0.0
N93 N 0.75235 0.62092 0.8082 0.0
N94 N 0.66912 0.55297 0.74209 0.0
H95 H 0.72341 0.58122 0.84608 0.0
C96 C 0.80606 0.81287 0.70048 0.0
O97 O 0.76923 0.84601 0.7043 0.0
O98 O 0.81785 0.66135 0.90774 0.0
H99 H 0.77155 0.65618 0.76379 0.0
H100 H 0.9748 0.87531 0.9274 0.0
H101 H 0.69777 0.59295 0.70435 0.0
Zn102 Zn 0.18733 0.275 0.7172 0.0
C103 C 0.12439 0.13749 0.63956 0.0
N104 N 0.08611 0.13517 0.6529 0.0
C105 C 0.10848 0.17498 0.68399 0.0
N106 N 0.15793 0.2011 0.68921 0.0
N107 N 0.16885 0.17674 0.66175 0.0
C108 C 0.20123 0.20212 0.57649 0.0
O109 O 0.16832 0.24138 0.57966 0.0
O110 O 0.1932 0.27372 0.77352 0.0
Zn111 Zn 0.24612 0.17727 0.66644 0.0
N112 N 0.1276 0.33203 0.6822 0.0
C113 C 0.05507 0.36998 0.61377 0.0
C114 C 0.09847 0.32905 0.63881 0.0
C115 C 0.11542 0.37455 0.70159 0.0
N116 N 0.04244 0.41214 0.63313 0.0
C117 C 0.07162 0.41565 0.67659 0.0
O118 O 0.30022 0.24719 0.6957 0.0
C119 C 0.30493 0.29196 0.7172 0.0
O120 O 0.26579 0.30426 0.7259 0.0
H121 H 0.1088 0.29508 0.62387 0.0
H122 H 0.13924 0.37589 0.73622 0.0
C123 C 0.33849 0.09166 0.69803 0.0
C124 C 0.37016 0.04274 0.72168 0.0
C125 C 0.30319 0.03247 0.74568 0.0
C126 C 0.27214 0.08112 0.72233 0.0
N127 N 0.29022 0.10972 0.69891 0.0
N128 N 0.3513 0.0145 0.74486 0.0
H129 H 0.35205 0.11529 0.6792 0.0
C130 C 0.24141 0.2635 0.80896 0.0
O131 O 0.29019 0.25081 0.80961 0.0
O132 O 0.23544 0.17061 0.60849 0.0
H133 H 0.23398 0.09595 0.72296 0.0
H134 H 0.03138 0.3681 0.57919 0.0
H135 H 0.28927 1.00922 0.76441 0.0
H136 H 0.36766 0.18528 0.20366 0.0
C137 C 0.34558 0.18255 0.2214 0.0
H138 H 0.34796 0.1442 0.27429 0.0
H139 H 0.51718 0.98367 0.22788 0.0
H140 H 0.42268 0.95451 0.16453 0.0
H141 H 0.32724 0.99563 0.14889 0.0
H142 H 0.32586 0.06689 0.19631 0.0
C143 C 0.36756 0.14622 0.25491 0.0
C144 C 0.42309 0.1126 0.26859 0.0
C145 C 0.42307 0.06926 0.24157 0.0
C146 C 0.47806 0.04423 0.25132 0.0
C147 C 0.4768 1.00328 0.22255 0.0
C148 C 0.42281 0.98618 0.18601 0.0
C149 C 0.36908 1.00942 0.17716 0.0
C150 C 0.36893 0.0505 0.20448 0.0
H151 H 0.59274 0.95951 0.31427 0.0
C152 C 0.61618 0.99272 0.30773 0.0
H153 H 0.61532 0.0794 0.28934 0.0
H154 H 0.43826 0.18859 0.33017 0.0
H155 H 0.53202 0.21341 0.3958 0.0
H156 H 0.62685 0.16853 0.4134 0.0
H157 H 0.62853 0.0985 0.36537 0.0
C158 C 0.59147 0.04533 0.2947 0.0
C159 C 0.53288 0.06152 0.28869 0.0
C160 C 0.53218 0.10134 0.31741 0.0
C161 C 0.47732 0.12683 0.30743 0.0
C162 C 0.47849 0.16763 0.33627 0.0
C163 C 0.53201 0.18229 0.37406 0.0
C164 C 0.58543 0.15706 0.38395 0.0
C165 C 0.58581 0.11711 0.35606 0.0
H166 H 0.37406 0.53511 0.18047 0.0
C167 C 0.39351 0.51368 0.21126 0.0
H168 H 0.46661 0.50732 0.2749 0.0
H169 H 0.58347 0.67754 0.19085 0.0
H170 H 0.55256 0.6062 0.13471 0.0
H171 H 0.49326 0.52043 0.13033 0.0
H172 H 0.46249 0.50671 0.18077 0.0
C173 C 0.44813 0.52973 0.24451 0.0
C174 C 0.48274 0.58155 0.24486 0.0
C175 C 0.50363 0.58662 0.21669 0.0
C176 C 0.54218 0.63356 0.22141 0.0
C177 C 0.55773 0.64063 0.19048 0.0
C178 C 0.53977 0.60033 0.15785 0.0
C179 C 0.50609 0.55223 0.15524 0.0
C180 C 0.48823 0.54515 0.18427 0.0
H181 H 0.67158 0.65183 0.26718 0.0
C182 C 0.66676 0.69658 0.27343 0.0
H183 H 0.60954 0.75909 0.2731 0.0
H184 H 0.44319 0.59098 0.29959 0.0
H185 H 0.47694 0.66048 0.35698 0.0
H186 H 0.55228 0.73513 0.37009 0.0
H187 H 0.59342 0.74144 0.32551 0.0
C188 C 0.6144 0.71415 0.26738 0.0
C189 C 0.5646 0.67211 0.25674 0.0
C190 C 0.54174 0.66844 0.28374 0.0
C191 C 0.49993 0.62397 0.27721 0.0
C192 C 0.47654 0.62254 0.30392 0.0
C193 C 0.49523 0.66242 0.33688 0.0
C194 C 0.53751 0.70452 0.34418 0.0
C195 C 0.56069 0.70768 0.31813 0.0
H196 H 0.43717 0.04522 0.70269 0.0
C197 C 0.42333 0.02217 0.72173 0.0
H198 H 0.44303 0.95378 0.76522 0.0
H199 H 0.59006 0.84768 0.68433 0.0
H200 H 0.4931 0.8375 0.61798 0.0
H201 H 0.40285 0.88097 0.61 0.0
H202 H 0.40893 0.93504 0.66819 0.0
C203 C 0.45499 0.97614 0.74489 0.0
C204 C 0.51005 0.95627 0.74699 0.0
C205 C 0.50581 0.92527 0.71243 0.0
C206 C 0.55788 0.8997 0.71717 0.0
C207 C 0.55208 0.86803 0.68246 0.0
C208 C 0.49667 0.86179 0.64421 0.0
C209 C 0.44586 0.8863 0.6397 0.0
C210 C 0.45003 0.91745 0.67335 0.0
H211 H 0.66821 0.81807 0.81042 0.0
C212 C 0.68865 0.82754 0.79214 0.0
H213 H 0.68468 0.88028 0.74386 0.0
H214 H 0.53475 0.01686 0.81803 0.0
H215 H 0.63233 0.02986 0.88348 0.0
H216 H 0.72279 0.98761 0.891 0.0
H217 H 0.71617 0.93169 0.83328 0.0
C218 C 0.66649 0.87093 0.76357 0.0
C219 C 0.61394 0.90451 0.7566 0.0
C220 C 0.61877 0.93856 0.79015 0.0
C221 C 0.56673 0.96382 0.78551 0.0
C222 C 0.57278 0.99656 0.8199 0.0
C223 C 0.62855 1.00458 0.85757 0.0
C224 C 0.67947 0.98074 0.86183 0.0
C225 C 0.67496 0.94831 0.82857 0.0
H226 H 0.65237 0.48615 0.81646 0.0
C227 C 0.63527 0.50726 0.78579 0.0
H228 H 0.56327 0.51711 0.72214 0.0
H229 H 0.41763 0.29151 0.6728 0.0
H230 H 0.45483 0.29234 0.6257 0.0
H231 H 0.53326 0.3618 0.6366 0.0
H232 H 0.57406 0.43163 0.69423 0.0
C233 C 0.57943 0.49489 0.75233 0.0
C234 C 0.54008 0.44715 0.75176 0.0
C235 C 0.51858 0.40438 0.71915 0.0
C236 C 0.47512 0.36259 0.71399 0.0
C237 C 0.45205 0.32302 0.67935 0.0
C238 C 0.47282 0.32311 0.6518 0.0
C239 C 0.51681 0.36232 0.65785 0.0
C240 C 0.53957 0.40249 0.691 0.0
H241 H 0.34751 0.37846 0.73417 0.0
C242 C 0.35484 0.33359 0.72997 0.0
H243 H 0.41477 0.27308 0.73178 0.0
H244 H 0.56559 0.52569 0.81493 0.0
H245 H 0.53647 0.51875 0.86671 0.0
H246 H 0.47386 0.43743 0.86463 0.0
H247 H 0.4381 0.36377 0.80965 0.0
C248 C 0.4077 0.31813 0.73572 0.0
C249 C 0.45493 0.36148 0.74269 0.0
C250 C 0.47964 0.40166 0.7772 0.0
C251 C 0.52 0.44605 0.78056 0.0
C252 C 0.53834 0.48899 0.81248 0.0
C253 C 0.52144 0.48584 0.84224 0.0
C254 C 0.48589 0.44025 0.84092 0.0
C255 C 0.46515 0.39855 0.80889 0.0
H256 H 0.10072 0.05022 0.23849 0.0
C257 C 0.06837 0.05362 0.20418 0.0
H258 H 0.98589 0.02224 0.1519 0.0
H259 H 0.97838 0.7909 0.24133 0.0
H260 H 0.97399 0.75487 0.17813 0.0
H261 H 0.98515 0.82113 0.1304 0.0
H262 H 1.001 0.9239 0.14555 0.0
C263 C 0.01879 0.01984 0.18611 0.0
C264 C 1.00645 0.98009 0.21258 0.0
C265 C 0.9975 0.92002 0.20335 0.0
C266 C 0.99081 0.88163 0.23082 0.0
C267 C 0.98286 0.8219 0.22123 0.0
C268 C 0.98046 0.80063 0.18515 0.0
C269 C 0.98684 0.83797 0.15829 0.0
C270 C 0.99579 0.89691 0.16732 0.0
H271 H 0.90079 0.83801 0.25554 0.0
C272 C 0.9369 0.84114 0.28867 0.0
H273 H 0.02566 0.86853 0.3317 0.0
H274 H 1.00394 0.094 0.23222 0.0
H275 H 1.00305 0.1304 0.293 0.0
H276 H 0.99784 0.06375 0.34311 0.0
H277 H 0.99378 0.96074 0.33271 0.0
C278 C 0.98964 0.86435 0.29823 0.0
C279 C 0.99323 0.90339 0.26748 0.0
C280 C 0.99851 0.96387 0.27523 0.0
C281 C 1.0035 1.00227 0.24717 0.0
C282 C 1.00384 0.06257 0.25386 0.0
C283 C 1.00232 0.08424 0.28831 0.0
C284 C 0.99923 0.04676 0.31642 0.0
C285 C 0.99718 0.98742 0.31009 0.0
H286 H 0.12996 0.35123 0.24093 0.0
C287 C 0.09404 0.35818 0.20796 0.0
H288 H 1.01087 0.39747 0.16666 0.0
H289 H 1.01304 0.42883 0.3448 0.0
H290 H 1.01427 0.32439 0.35039 0.0
H291 H 0.02875 0.26369 0.30205 0.0
H292 H 0.0419 0.30713 0.24767 0.0
C293 C 0.04553 0.3878 0.19968 0.0
C294 C 0.04532 0.42259 0.23327 0.0
C295 C 0.03731 0.39644 0.26459 0.0
C296 C 0.02894 0.43158 0.29246 0.0
C297 C 0.01995 0.40438 0.32299 0.0
C298 C 0.02046 0.34443 0.32649 0.0
C299 C 0.02861 0.31024 0.29927 0.0
C300 C 0.0363 0.3357 0.26829 0.0
H301 H 0.93946 0.56797 0.25713 0.0
C302 C 0.96368 0.56575 0.29191 0.0
H303 H 0.0347 0.52601 0.34742 0.0
H304 H 0.07133 0.48615 0.18228 0.0
H305 H 0.08515 0.58979 0.18409 0.0
H306 H 0.07568 0.65023 0.23482 0.0
H307 H 0.05194 0.60715 0.28394 0.0
C308 C 1.01019 0.5294 0.31274 0.0
C309 C 0.02863 0.49263 0.28877 0.0
C310 C 0.04415 0.51844 0.26106 0.0
C311 C 0.05122 0.48347 0.23265 0.0
C312 C 0.06536 0.51051 0.2046 0.0
C313 C 0.07378 0.57003 0.20542 0.0
C314 C 0.06847 0.60404 0.234 0.0
C315 C 0.05399 0.57879 0.26162 0.0
H316 H 0.0425 0.97573 0.85127 0.0
C317 C 0.99887 0.95955 0.8259 0.0
H318 H 0.9311 0.96624 0.76021 0.0
H319 H 0.10284 0.20009 0.79589 0.0
H320 H 0.06948 0.23306 0.84203 0.0
H321 H 1.00693 0.17014 0.8571 0.0
H322 H 0.97766 0.07397 0.82646 0.0
C323 C 0.97488 0.98099 0.78616 0.0
C324 C 1.00978 0.02126 0.77556 0.0
C325 C 0.02523 0.07802 0.79292 0.0
C326 C 0.06029 0.11496 0.78352 0.0
C327 C 0.07589 0.17082 0.80178 0.0
C328 C 0.05702 0.19018 0.82825 0.0
C329 C 0.02192 0.15468 0.83682 0.0
C330 C 1.00578 0.09938 0.81926 0.0
H331 H 0.04539 0.18647 0.70426 0.0
C332 C 0.09096 0.17352 0.71562 0.0
H333 H 0.15986 0.11617 0.75484 0.0
H334 H 0.98661 0.91601 0.73591 0.0
H335 H 0.01835 0.88425 0.68887 0.0
H336 H 0.07891 0.9481 0.67252 0.0
H337 H 0.1085 0.04358 0.70342 0.0
C338 C 0.11665 0.13316 0.74649 0.0
C339 C 0.07945 0.09547 0.75656 0.0
C340 C 0.06333 0.03893 0.73877 0.0
C341 C 0.02814 1.00211 0.748 0.0
C342 C 1.01279 0.94603 0.72974 0.0
C343 C 0.03087 0.92709 0.70273 0.0
C344 C 0.06491 0.96301 0.69352 0.0
C345 C 0.08137 0.01805 0.7114 0.0
H346 H 0.0829 0.46255 0.73236 0.0
C347 C 0.05652 0.46066 0.69752 0.0
H348 H 0.98311 0.49647 0.64109 0.0
H349 H 0.95861 0.55521 0.80935 0.0
H350 H 0.94441 0.45228 0.81161 0.0
H351 H 0.95021 0.38664 0.76167 0.0
H352 H 0.96986 0.42396 0.70896 0.0
C353 C 1.0098 0.49663 0.67589 0.0
C354 C 0.99329 0.53675 0.69939 0.0
C355 C 0.97945 0.5144 0.72895 0.0
C356 C 0.97467 0.55233 0.75701 0.0
C357 C 0.96269 0.52859 0.78714 0.0
C358 C 0.95435 0.46943 0.7888 0.0
C359 C 0.95755 0.43252 0.76066 0.0
C360 C 0.96959 0.4545 0.73088 0.0
H361 H 0.89687 0.68155 0.7506 0.0
C362 C 0.93613 0.67657 0.78268 0.0
H363 H 0.0233 0.64356 0.82047 0.0
H364 H 1.00603 0.59437 0.63985 0.0
H365 H 1.00853 0.6984 0.63212 0.0
H366 H 1.00014 0.76417 0.68093 0.0
H367 H 0.9886 0.72623 0.73762 0.0
C368 C 0.98498 0.65046 0.78817 0.0
C369 C 0.98147 0.61277 0.75443 0.0
C370 C 0.98869 0.63549 0.72185 0.0
C371 C 0.99415 0.59739 0.69399 0.0
C372 C 1.00179 0.62125 0.6619 0.0
C373 C 1.00341 0.68086 0.65719 0.0
C374 C 0.99869 0.71792 0.68468 0.0
C375 C 0.9919 0.69569 0.71694 0.0
H376 H 0.99648 0.65387 0.94209 0.0
C377 C 0.9548 0.63324 0.91769 0.0
H378 H 0.90285 0.55745 0.89979 0.0
H379 H 0.11773 0.39376 0.01724 0.0
H380 H 0.08016 0.35667 0.9459 0.0
H381 H 1.0012 0.40771 0.88239 0.0
H382 H 0.95841 0.49524 0.88957 0.0
C383 C 0.94136 0.58054 0.92556 0.0
C384 C 0.98646 0.54782 0.96483 0.0
C385 C 1.01035 0.49584 0.95997 0.0
C386 C 0.05542 0.46553 0.99674 0.0
C387 C 0.08096 0.4161 0.99063 0.0
C388 C 0.06062 0.39506 0.94982 0.0
C389 C 1.01615 0.42388 0.91403 0.0
C390 C 0.99164 0.47398 0.91877 0.0
H391 H 0.06021 0.37557 0.05314 0.0
C392 C 0.09916 0.39535 0.08081 0.0
H393 H 0.15196 0.46983 0.10614 0.0
H394 H 0.95202 0.64637 0.98653 0.0
H395 H 0.99706 0.68749 0.0573 0.0
H396 H 0.07382 0.63471 0.12078 0.0
H397 H 0.10805 0.54195 0.11389 0.0
C398 C 0.11521 0.44944 0.07751 0.0
C399 C 0.07537 0.48569 0.03861 0.0
C400 C 0.05387 0.53934 0.04346 0.0
C401 C 1.00919 0.57007 0.00666 0.0
C402 C 0.9878 0.62257 0.01281 0.0
C403 C 1.01248 0.64624 0.05346 0.0
C404 C 0.05572 0.6165 0.08921 0.0
C405 C 0.07535 0.56318 0.08459 0.0
H406 H 0.90674 0.89408 0.42679 0.0
C407 C 0.9269 0.90612 0.40889 0.0
H408 H 0.98724 0.96148 0.4043 0.0
H409 H 0.96892 0.08588 0.5593 0.0
H410 H 0.86223 0.09375 0.50804 0.0
H411 H 0.81509 0.05021 0.43614 0.0
H412 H 0.87444 0.99834 0.4153 0.0
C413 C 0.96776 0.94936 0.42278 0.0
C414 C 0.99507 0.97641 0.46578 0.0
C415 C 0.9597 1.00762 0.47707 0.0
C416 C 0.98718 0.03359 0.51827 0.0
C417 C 0.95071 0.06468 0.52869 0.0
C418 C 0.88928 0.06993 0.49942 0.0
C419 C 0.86273 0.04534 0.459 0.0
C420 C 0.89735 0.01503 0.44762 0.0
H421 H 0.13456 0.115 0.58555 0.0
C422 C 0.1156 0.10128 0.60393 0.0
H423 H 0.05834 0.0427 0.60945 0.0
H424 H 0.07643 0.91994 0.45426 0.0
H425 H 0.1834 0.91386 0.50498 0.0
H426 H 0.23075 0.95876 0.57646 0.0
H427 H 0.17122 1.01023 0.59743 0.0
C428 C 0.07735 0.05592 0.59085 0.0
C429 C 0.05016 0.02946 0.54769 0.0
C430 C 0.08563 0.99891 0.53621 0.0
C431 C 0.05811 0.97257 0.49513 0.0
C432 C 0.09466 0.94164 0.48469 0.0
C433 C 0.15628 0.93744 0.51365 0.0
C434 C 0.18293 0.96275 0.55386 0.0
C435 C 0.14821 0.99267 0.56534 0.0
H436 H 0.28571 0.25942 0.8792 0.0
C437 C 0.24354 0.26827 0.84945 0.0
H438 H 0.15394 0.29542 0.8211 0.0
H439 H 0.25116 0.21183 0.02228 0.0
H440 H 0.25824 0.11613 0.99944 0.0
H441 H 0.23537 0.09917 0.92628 0.0
H442 H 0.20718 0.17822 0.87614 0.0
C443 C 0.19562 0.28439 0.85053 0.0
C444 C 0.19937 0.29233 0.89181 0.0
C445 C 0.21287 0.24505 0.91997 0.0
C446 C 0.22205 0.25418 0.96108 0.0
C447 C 0.24015 0.20696 0.98977 0.0
C448 C 0.24498 0.15177 0.97721 0.0
C449 C 0.23244 0.14228 0.93613 0.0
C450 C 0.21675 0.1882 0.90777 0.0
H451 H 0.14789 0.26352 1.00075 0.0
C452 C 0.1825 0.29273 0.02404 0.0
H453 H 0.25392 0.3492 0.03744 0.0
H454 H 0.16859 0.39139 0.84392 0.0
H455 H 0.15281 0.48547 0.86431 0.0
H456 H 0.16592 0.50077 0.93486 0.0
H457 H 0.19477 0.422 0.98536 0.0
C458 C 0.21965 0.31925 0.01476 0.0
C459 C 0.21373 0.30991 0.97283 0.0
C460 C 0.19827 0.35676 0.94407 0.0
C461 C 0.19062 0.34788 0.90338 0.0
C462 C 0.17463 0.39542 0.87514 0.0
C463 C 0.16556 0.4498 0.88647 0.0
C464 C 0.17299 0.45843 0.92619 0.0
C465 C 0.18954 0.41276 0.95488 0.0
H466 H 0.77465 0.84232 0.63492 0.0
C467 C 0.80862 0.81697 0.6616 0.0
H468 H 0.88607 0.76654 0.68512 0.0
H469 H 0.82109 0.7006 0.49823 0.0
H470 H 0.81803 0.60758 0.527 0.0
H471 H 0.83182 0.59965 0.5983 0.0
H472 H 0.84754 0.68496 0.64082 0.0
C473 C 0.85228 0.79234 0.65879 0.0
C474 C 0.85364 0.79675 0.619 0.0
C475 C 0.84602 0.74632 0.59493 0.0
C476 C 0.83995 0.75082 0.55432 0.0
C477 C 0.8285 0.69989 0.52993 0.0
C478 C 0.82608 0.64606 0.54593 0.0
C479 C 0.83365 0.64159 0.58599 0.0
C480 C 0.84276 0.691 0.61011 0.0
H481 H 0.90757 0.76594 0.50648 0.0
C482 C 0.86858 0.79037 0.48317 0.0
H483 H 0.7939 0.83811 0.47177 0.0
H484 H 0.88183 0.90005 0.66151 0.0
H485 H 0.8949 0.99234 0.63623 0.0
H486 H 0.88466 1.00047 0.5661 0.0
H487 H 0.86163 0.91627 0.52083 0.0
C488 C 0.83206 0.81229 0.49448 0.0
C489 C 0.84384 0.80575 0.5386 0.0
C490 C 0.85619 0.85559 0.56433 0.0
C491 C 0.86139 0.85107 0.60461 0.0
C492 C 0.87558 0.90129 0.63012 0.0
C493 C 0.88367 0.9545 0.61613 0.0
C494 C 0.87805 0.95905 0.57667 0.0
C495 C 0.86452 0.91038 0.55094 0.0
H496 H 0.8087 0.65265 0.97501 0.0
C497 C 0.82819 0.69294 0.9726 0.0
H498 H 0.8602 0.77589 0.99851 0.0
H499 H 0.70573 0.80505 0.07942 0.0
H500 H 0.65276 0.86656 0.01711 0.0
H501 H 0.67906 0.8681 0.96239 0.0
H502 H 0.75746 0.80698 0.96922 0.0
C503 C 0.8426 0.73488 1.00173 0.0
C504 C 0.82602 0.73165 0.0345 0.0
C505 C 0.78195 0.76966 0.03112 0.0
C506 C 0.76858 0.77071 0.06365 0.0
C507 C 0.72054 0.80526 0.05726 0.0
C508 C 0.68906 0.84021 0.02124 0.0
C509 C 0.70376 0.84096 0.99039 0.0
C510 C 0.74923 0.80588 0.9949 0.0
H511 H 0.80476 0.83132 0.1452 0.0
C512 C 0.79835 0.79107 0.1575 0.0
H513 H 0.786 0.70122 0.15017 0.0
H514 H 0.90565 0.64725 0.0479 0.0
H515 H 0.95837 0.58486 0.10982 0.0
H516 H 0.94109 0.59186 0.16893 0.0
H517 H 0.87251 0.66154 0.16687 0.0
C518 C 0.7931 0.74086 0.13757 0.0
C519 C 0.80213 0.73645 0.10104 0.0
C520 C 0.84455 0.69673 0.10361 0.0
C521 C 0.85551 0.6935 0.0699 0.0
C522 C 0.89687 0.65251 0.07295 0.0
C523 C 0.9272 0.61622 0.10828 0.0
C524 C 0.91756 0.62016 0.14155 0.0
C525 C 0.87729 0.66014 0.13964 0.0
H526 H 0.23386 0.16581 0.53791 0.0
C527 C 0.20181 0.19565 0.53712 0.0
H528 H 0.13542 0.25748 0.50043 0.0
H529 H 0.25828 0.31484 0.39613 0.0
H530 H 0.26982 0.4051 0.43247 0.0
H531 H 0.23789 0.41381 0.48381 0.0
H532 H 0.1947 0.33198 0.49932 0.0
C533 C 0.16659 0.22636 0.50144 0.0
C534 C 0.17512 0.22351 0.46478 0.0
C535 C 0.19825 0.27239 0.45486 0.0
C536 C 0.21512 0.26778 0.42433 0.0
C537 C 0.24205 0.31631 0.41741 0.0
C538 C 0.24961 0.3684 0.43847 0.0
C539 C 0.23177 0.37327 0.46744 0.0
C540 C 0.20689 0.32588 0.47597 0.0
H541 H 0.16453 0.27026 0.32837 0.0
C542 C 0.19863 0.23898 0.33451 0.0
H543 H 0.25761 0.17574 0.37689 0.0
H544 H 0.12242 0.12468 0.47101 0.0
H545 H 0.10649 0.03513 0.43237 0.0
H546 H 0.13603 0.02668 0.37966 0.0
H547 H 0.18061 0.10791 0.36466 0.0
C548 C 0.22511 0.20864 0.37109 0.0
C549 C 0.20663 0.21472 0.40255 0.0
C550 C 0.18072 0.16665 0.41102 0.0
C551 C 0.16457 0.17116 0.44193 0.0
C552 C 0.13726 0.12301 0.44886 0.0
C553 C 0.12747 0.07146 0.4267 0.0
C554 C 0.14398 0.06676 0.39695 0.0
C555 C 0.16981 0.11373 0.38879 0.0
loop_
_geom_bond_atom_site_label_1
_geom_bond_atom_site_label_2
_geom_bond_distance
_geom_bond_site_symmetry_2
_ccdc_geom_bond_type
Zn0 N4 2.020 . S
Zn0 O8 2.019 . S
Zn0 N10 2.119 . S
Zn0 O18 1.975 . S
C1 N2 1.334 . S
C1 N5 1.336 . S
N2 C1 1.334 . S
N2 C3 1.334 . S
C3 N2 1.334 . S
C3 N4 1.336 . S
N4 Zn0 2.020 . S
N4 C3 1.336 . S
N4 N5 1.354 . S
N5 C1 1.336 . S
N5 N4 1.354 . S
N5 Zn9 2.020 . S
C6 O7 1.244 . S
C6 O30 1.257 . S
O7 C6 1.244 . S
O8 Zn0 2.019 . S
O8 C28 1.257 . S
Zn9 N5 2.020 . S
Zn9 O16 1.975 . S
Zn9 N25 2.119 . S
Zn9 O30 2.019 . S
N10 Zn0 2.119 . S
N10 C12 1.334 . S
N10 C13 1.328 . S
C11 C12 1.391 . S
C11 N14 1.329 . S
C11 H32 0.930 . S
C12 N10 1.334 . S
C12 C11 1.391 . S
C12 H19 0.930 . S
C13 N10 1.328 . S
C13 C15 1.392 . S
C13 H20 0.930 . S
N14 C11 1.329 . S
N14 C15 1.331 . S
C15 C13 1.392 . S
C15 N14 1.331 . S
O16 Zn9 1.975 . S
O16 C17 1.252 . S
C17 O16 1.252 . S
C17 O18 1.252 . S
O18 Zn0 1.975 . S
O18 C17 1.252 . S
H19 C12 0.930 . S
H20 C13 0.930 . S
C21 C22 1.392 . S
C21 N25 1.328 . S
C21 H27 0.930 . S
C22 C21 1.392 . S
C22 N26 1.331 . S
C23 C24 1.391 . S
C23 N26 1.329 . S
C23 H33 0.930 . S
C24 C23 1.391 . S
C24 N25 1.334 . S
C24 H31 0.930 . S
N25 Zn9 2.119 . S
N25 C21 1.328 . S
N25 C24 1.334 . S
N26 C22 1.331 . S
N26 C23 1.329 . S
H27 C21 0.930 . S
C28 O8 1.257 . S
C28 O29 1.244 . S
O29 C28 1.244 . S
O30 C6 1.257 . S
O30 Zn9 2.019 . S
H31 C24 0.930 . S
H32 C11 0.930 . S
H33 C23 0.930 . S
Zn34 N38 2.020 . S
Zn34 O42 2.019 . S
Zn34 N44 2.119 . S
Zn34 O52 1.975 . S
C35 N36 1.334 . S
C35 N39 1.336 . S
N36 C35 1.334 . S
N36 C37 1.334 . S
C37 N36 1.334 . S
C37 N38 1.336 . S
N38 Zn34 2.020 . S
N38 C37 1.336 . S
N38 N39 1.354 . S
N39 C35 1.336 . S
N39 N38 1.354 . S
N39 Zn43 2.020 . S
C40 O41 1.244 . S
C40 O64 1.257 . S
O41 C40 1.244 . S
O42 Zn34 2.019 . S
O42 C62 1.257 . S
Zn43 N39 2.020 . S
Zn43 O50 1.975 . S
Zn43 N59 2.119 . S
Zn43 O64 2.019 . S
N44 Zn34 2.119 . S
N44 C46 1.334 . S
N44 C47 1.328 . S
C45 C46 1.391 . S
C45 N48 1.329 . S
C45 H66 0.930 . S
C46 N44 1.334 . S
C46 C45 1.391 . S
C46 H53 0.930 . S
C47 N44 1.328 . S
C47 C49 1.392 . S
C47 H54 0.930 . S
N48 C45 1.329 . S
N48 C49 1.331 . S
C49 C47 1.392 . S
C49 N48 1.331 . S
O50 Zn43 1.975 . S
O50 C51 1.252 . S
C51 O50 1.252 . S
C51 O52 1.252 . S
O52 Zn34 1.975 . S
O52 C51 1.252 . S
H53 C46 0.930 . S
H54 C47 0.930 . S
C55 C56 1.392 . S
C55 N59 1.328 . S
C55 H61 0.930 . S
C56 C55 1.392 . S
C56 N60 1.331 . S
C57 C58 1.391 . S
C57 N60 1.329 . S
C57 H67 0.930 . S
C58 C57 1.391 . S
C58 N59 1.334 . S
C58 H65 0.930 . S
N59 Zn43 2.119 . S
N59 C55 1.328 . S
N59 C58 1.334 . S
N60 C56 1.331 . S
N60 C57 1.329 . S
H61 C55 0.930 . S
C62 O42 1.257 . S
C62 O63 1.244 . S
O63 C62 1.244 . S
O64 C40 1.257 . S
O64 Zn43 2.019 . S
H65 C58 0.930 . S
H66 C45 0.930 . S
H67 C57 0.930 . S
Zn68 N72 2.020 . S
Zn68 O76 2.019 . S
Zn68 N78 2.119 . S
Zn68 O86 1.975 . S
C69 N70 1.334 . S
C69 N73 1.336 . S
N70 C69 1.334 . S
N70 C71 1.334 . S
C71 N70 1.334 . S
C71 N72 1.336 . S
N72 Zn68 2.020 . S
N72 C71 1.336 . S
N72 N73 1.354 . S
N73 C69 1.336 . S
N73 N72 1.354 . S
N73 Zn77 2.020 . S
C74 O75 1.244 . S
C74 O98 1.257 . S
O75 C74 1.244 . S
O76 Zn68 2.019 . S
O76 C96 1.257 . S
Zn77 N73 2.020 . S
Zn77 O84 1.975 . S
Zn77 N93 2.119 . S
Zn77 O98 2.019 . S
N78 Zn68 2.119 . S
N78 C80 1.334 . S
N78 C81 1.328 . S
C79 C80 1.391 . S
C79 N82 1.329 . S
C79 H100 0.930 . S
C80 N78 1.334 . S
C80 C79 1.391 . S
C80 H87 0.930 . S
C81 N78 1.328 . S
C81 C83 1.392 . S
C81 H88 0.930 . S
N82 C79 1.329 . S
N82 C83 1.331 . S
C83 C81 1.392 . S
C83 N82 1.331 . S
O84 Zn77 1.975 . S
O84 C85 1.252 . S
C85 O84 1.252 . S
C85 O86 1.252 . S
O86 Zn68 1.975 . S
O86 C85 1.252 . S
H87 C80 0.930 . S
H88 C81 0.930 . S
C89 C90 1.392 . S
C89 N93 1.328 . S
C89 H95 0.930 . S
C90 C89 1.392 . S
C90 N94 1.331 . S
C91 C92 1.391 . S
C91 N94 1.329 . S
C91 H101 0.930 . S
C92 C91 1.391 . S
C92 N93 1.334 . S
C92 H99 0.930 . S
N93 Zn77 2.119 . S
N93 C89 1.328 . S
N93 C92 1.334 . S
N94 C90 1.331 . S
N94 C91 1.329 . S
H95 C89 0.930 . S
C96 O76 1.257 . S
C96 O97 1.244 . S
O97 C96 1.244 . S
O98 C74 1.257 . S
O98 Zn77 2.019 . S
H99 C92 0.930 . S
H100 C79 0.930 . S
H101 C91 0.930 . S
Zn102 N106 2.020 . S
Zn102 O110 2.019 . S
Zn102 N112 2.119 . S
Zn102 O120 1.975 . S
C103 N104 1.334 . S
C103 N107 1.336 . S
N104 C103 1.334 . S
N104 C105 1.334 . S
C105 N104 1.334 . S
C105 N106 1.336 . S
N106 Zn102 2.020 . S
N106 C105 1.336 . S
N106 N107 1.354 . S
N107 C103 1.336 . S
N107 N106 1.354 . S
N107 Zn111 2.020 . S
C108 O109 1.244 . S
C108 O132 1.257 . S
O109 C108 1.244 . S
O110 Zn102 2.019 . S
O110 C130 1.257 . S
Zn111 N107 2.020 . S
Zn111 O118 1.975 . S
Zn111 N127 2.119 . S
Zn111 O132 2.019 . S
N112 Zn102 2.119 . S
N112 C114 1.334 . S
N112 C115 1.328 . S
C113 C114 1.391 . S
C113 N116 1.329 . S
C113 H134 0.930 . S
C114 N112 1.334 . S
C114 C113 1.391 . S
C114 H121 0.930 . S
C115 N112 1.328 . S
C115 C117 1.392 . S
C115 H122 0.930 . S
N116 C113 1.329 . S
N116 C117 1.331 . S
C117 C115 1.392 . S
C117 N116 1.331 . S
O118 Zn111 1.975 . S
O118 C119 1.252 . S
C119 O118 1.252 . S
C119 O120 1.252 . S
O120 Zn102 1.975 . S
O120 C119 1.252 . S
H121 C114 0.930 . S
H122 C115 0.930 . S
C123 C124 1.392 . S
C123 N127 1.328 . S
C123 H129 0.930 . S
C124 C123 1.392 . S
C124 N128 1.331 . S
C125 C126 1.391 . S
C125 N128 1.329 . S
C125 H135 0.930 . S
C126 C125 1.391 . S
C126 N127 1.334 . S
C126 H133 0.930 . S
N127 Zn111 2.119 . S
N127 C123 1.328 . S
N127 C126 1.334 . S
N128 C124 1.331 . S
N128 C125 1.329 . S
H129 C123 0.930 . S
C130 O110 1.257 . S
C130 O131 1.244 . S
O131 C130 1.244 . S
O132 C108 1.257 . S
O132 Zn111 2.019 . S
H133 C126 0.930 . S
H134 C113 0.930 . S
H135 C125 0.930 . S
H136 C137 0.951 . S
C137 H136 0.951 . S
C137 C143 1.265 . S
H138 C143 0.950 . S
H139 C147 0.949 . S
H140 C148 0.950 . S
H141 C149 0.951 . S
H142 C150 0.951 . S
C143 C137 1.265 . S
C143 H138 0.950 . S
C143 C144 1.478 . S
C144 C143 1.478 . S
C144 C145 1.397 . S
C144 C161 1.394 . S
C145 C144 1.397 . S
C145 C146 1.438 . S
C145 C150 1.429 . S
C146 C145 1.438 . S
C146 C147 1.428 1_545 S
C146 C159 1.394 . S
C147 H139 0.949 . S
C147 C146 1.428 1_565 S
C147 C148 1.345 . S
C148 H140 0.950 . S
C148 C147 1.345 . S
C148 C149 1.424 . S
C149 H141 0.951 . S
C149 C148 1.424 . S
C149 C150 1.347 1_565 S
C150 H142 0.951 . S
C150 C145 1.429 . S
C150 C149 1.347 1_545 S
H151 C152 0.951 . S
C152 H151 0.951 . S
C152 C158 1.265 . S
H153 C158 0.950 1_545 S
H154 C162 0.949 . S
H155 C163 0.950 . S
H156 C164 0.951 . S
H157 C165 0.951 . S
C158 C152 1.265 . S
C158 H153 0.950 1_565 S
C158 C159 1.478 1_565 S
C159 C146 1.394 . S
C159 C158 1.478 1_545 S
C159 C160 1.397 . S
C160 C159 1.397 . S
C160 C161 1.438 . S
C160 C165 1.429 . S
C161 C144 1.394 . S
C161 C160 1.438 . S
C161 C162 1.428 . S
C162 H154 0.949 . S
C162 C161 1.428 . S
C162 C163 1.345 . S
C163 H155 0.950 . S
C163 C162 1.345 . S
C163 C164 1.424 . S
C164 H156 0.951 . S
C164 C163 1.424 . S
C164 C165 1.347 . S
C165 H157 0.951 . S
C165 C160 1.429 . S
C165 C164 1.347 . S
H166 C167 0.951 . S
C167 H166 0.951 . S
C167 C173 1.265 . S
H168 C173 0.950 . S
H169 C177 0.949 . S
H170 C178 0.950 . S
H171 C179 0.951 . S
H172 C180 0.951 . S
C173 C167 1.265 . S
C173 H168 0.950 . S
C173 C174 1.478 . S
C174 C173 1.478 . S
C174 C175 1.397 . S
C174 C191 1.394 . S
C175 C174 1.397 . S
C175 C176 1.438 . S
C175 C180 1.429 . S
C176 C175 1.438 . S
C176 C177 1.428 . S
C176 C189 1.394 . S
C177 H169 0.949 . S
C177 C176 1.428 . S
C177 C178 1.345 . S
C178 H170 0.950 . S
C178 C177 1.345 . S
C178 C179 1.424 . S
C179 H171 0.951 . S
C179 C178 1.424 . S
C179 C180 1.347 . S
C180 H172 0.951 . S
C180 C175 1.429 . S
C180 C179 1.347 . S
H181 C182 0.951 . S
C182 H181 0.951 . S
C182 C188 1.265 . S
H183 C188 0.950 . S
H184 C192 0.949 . S
H185 C193 0.950 . S
H186 C194 0.951 . S
H187 C195 0.951 . S
C188 C182 1.265 . S
C188 H183 0.950 . S
C188 C189 1.478 . S
C189 C176 1.394 . S
C189 C188 1.478 . S
C189 C190 1.397 . S
C190 C189 1.397 . S
C190 C191 1.438 . S
C190 C195 1.429 . S
C191 C174 1.394 . S
C191 C190 1.438 . S
C191 C192 1.428 . S
C192 H184 0.949 . S
C192 C191 1.428 . S
C192 C193 1.345 . S
C193 H185 0.950 . S
C193 C192 1.345 . S
C193 C194 1.424 . S
C194 H186 0.951 . S
C194 C193 1.424 . S
C194 C195 1.347 . S
C195 H187 0.951 . S
C195 C190 1.429 . S
C195 C194 1.347 . S
H196 C197 0.951 . S
C197 H196 0.951 . S
C197 C203 1.265 . S
H198 C203 0.950 1_565 S
H199 C207 0.949 . S
H200 C208 0.950 . S
H201 C209 0.951 . S
H202 C210 0.951 . S
C203 C197 1.265 . S
C203 H198 0.950 1_545 S
C203 C204 1.478 1_545 S
C204 C203 1.478 1_565 S
C204 C205 1.397 . S
C204 C221 1.394 . S
C205 C204 1.397 . S
C205 C206 1.438 . S
C205 C210 1.429 . S
C206 C205 1.438 . S
C206 C207 1.428 . S
C206 C219 1.394 . S
C207 H199 0.949 . S
C207 C206 1.428 . S
C207 C208 1.345 . S
C208 H200 0.950 . S
C208 C207 1.345 . S
C208 C209 1.424 . S
C209 H201 0.951 . S
C209 C208 1.424 . S
C209 C210 1.347 . S
C210 H202 0.951 . S
C210 C205 1.429 . S
C210 C209 1.347 . S
H211 C212 0.951 . S
C212 H211 0.951 . S
C212 C218 1.265 . S
H213 C218 0.950 . S
H214 C222 0.949 1_545 S
H215 C223 0.950 1_545 S
H216 C224 0.951 . S
H217 C225 0.951 . S
C218 C212 1.265 . S
C218 H213 0.950 . S
C218 C219 1.478 . S
C219 C206 1.394 . S
C219 C218 1.478 . S
C219 C220 1.397 . S
C220 C219 1.397 . S
C220 C221 1.438 . S
C220 C225 1.429 . S
C221 C204 1.394 . S
C221 C220 1.438 . S
C221 C222 1.428 . S
C222 H214 0.949 1_565 S
C222 C221 1.428 . S
C222 C223 1.345 . S
C223 H215 0.950 1_565 S
C223 C222 1.345 . S
C223 C224 1.424 . S
C224 H216 0.951 . S
C224 C223 1.424 . S
C224 C225 1.347 . S
C225 H217 0.951 . S
C225 C220 1.429 . S
C225 C224 1.347 . S
H226 C227 0.951 . S
C227 H226 0.951 . S
C227 C233 1.265 . S
H228 C233 0.950 . S
H229 C237 0.949 . S
H230 C238 0.950 . S
H231 C239 0.951 . S
H232 C240 0.951 . S
C233 C227 1.265 . S
C233 H228 0.950 . S
C233 C234 1.478 . S
C234 C233 1.478 . S
C234 C235 1.397 . S
C234 C251 1.394 . S
C235 C234 1.397 . S
C235 C236 1.438 . S
C235 C240 1.429 . S
C236 C235 1.438 . S
C236 C237 1.428 . S
C236 C249 1.394 . S
C237 H229 0.949 . S
C237 C236 1.428 . S
C237 C238 1.345 . S
C238 H230 0.950 . S
C238 C237 1.345 . S
C238 C239 1.424 . S
C239 H231 0.951 . S
C239 C238 1.424 . S
C239 C240 1.347 . S
C240 H232 0.951 . S
C240 C235 1.429 . S
C240 C239 1.347 . S
H241 C242 0.951 . S
C242 H241 0.951 . S
C242 C248 1.265 . S
H243 C248 0.950 . S
H244 C252 0.949 . S
H245 C253 0.950 . S
H246 C254 0.951 . S
H247 C255 0.951 . S
C248 C242 1.265 . S
C248 H243 0.950 . S
C248 C249 1.478 . S
C249 C236 1.394 . S
C249 C248 1.478 . S
C249 C250 1.397 . S
C250 C249 1.397 . S
C250 C251 1.438 . S
C250 C255 1.429 . S
C251 C234 1.394 . S
C251 C250 1.438 . S
C251 C252 1.428 . S
C252 H244 0.949 . S
C252 C251 1.428 . S
C252 C253 1.345 . S
C253 H245 0.950 . S
C253 C252 1.345 . S
C253 C254 1.424 . S
C254 H246 0.951 . S
C254 C253 1.424 . S
C254 C255 1.347 . S
C255 H247 0.951 . S
C255 C250 1.429 . S
C255 C254 1.347 . S
H256 C257 0.951 . S
C257 H256 0.951 . S
C257 C263 1.265 . S
H258 C263 0.950 1_655 S
H259 C267 0.949 . S
H260 C268 0.950 . S
H261 C269 0.951 . S
H262 C270 0.951 . S
C263 C257 1.265 . S
C263 H258 0.950 1_455 S
C263 C264 1.472 1_455 S
C264 C263 1.472 1_655 S
C264 C265 1.396 1_545 S
C264 C281 1.401 . S
C265 C264 1.396 1_565 S
C265 C266 1.438 . S
C265 C270 1.429 1_655 S
C266 C265 1.438 . S
C266 C267 1.428 . S
C266 C279 1.394 . S
C267 H259 0.949 . S
C267 C266 1.428 . S
C267 C268 1.345 . S
C268 H260 0.950 . S
C268 C267 1.345 . S
C268 C269 1.424 1_655 S
C269 H261 0.951 . S
C269 C268 1.424 1_455 S
C269 C270 1.347 . S
C270 H262 0.951 . S
C270 C265 1.429 1_455 S
C270 C269 1.347 . S
H271 C272 0.951 . S
C272 H271 0.951 . S
C272 C278 1.265 . S
H273 C278 0.950 . S
H274 C282 0.949 . S
H275 C283 0.950 . S
H276 C284 0.951 . S
H277 C285 0.951 1_565 S
C278 C272 1.265 . S
C278 H273 0.950 . S
C278 C279 1.478 . S
C279 C266 1.394 . S
C279 C278 1.478 . S
C279 C280 1.397 . S
C280 C279 1.397 . S
C280 C281 1.438 1_565 S
C280 C285 1.429 1_565 S
C281 C264 1.401 . S
C281 C280 1.438 1_545 S
C281 C282 1.428 . S
C282 H274 0.949 . S
C282 C281 1.428 . S
C282 C283 1.345 . S
C283 H275 0.950 . S
C283 C282 1.345 . S
C283 C284 1.424 . S
C284 H276 0.951 . S
C284 C283 1.424 . S
C284 C285 1.347 . S
C285 H277 0.951 1_545 S
C285 C280 1.429 1_545 S
C285 C284 1.347 . S
H286 C287 0.951 . S
C287 H286 0.951 . S
C287 C293 1.265 . S
H288 C293 0.950 . S
H289 C297 0.949 . S
H290 C298 0.950 . S
H291 C299 0.951 . S
H292 C300 0.951 . S
C293 C287 1.265 . S
C293 H288 0.950 . S
C293 C294 1.478 . S
C294 C293 1.478 . S
C294 C295 1.397 . S
C294 C311 1.394 . S
C295 C294 1.397 . S
C295 C296 1.438 1_455 S
C295 C300 1.429 . S
C296 C295 1.438 1_655 S
C296 C297 1.428 . S
C296 C309 1.394 1_655 S
C297 H289 0.949 . S
C297 C296 1.428 . S
C297 C298 1.345 . S
C298 H290 0.950 . S
C298 C297 1.345 . S
C298 C299 1.424 . S
C299 H291 0.951 . S
C299 C298 1.424 . S
C299 C300 1.347 1_655 S
C300 H292 0.951 . S
C300 C295 1.429 . S
C300 C299 1.347 1_455 S
H301 C302 0.951 . S
C302 H301 0.951 . S
C302 C308 1.265 . S
H303 C308 0.950 1_455 S
H304 C312 0.949 . S
H305 C313 0.950 . S
H306 C314 0.951 . S
H307 C315 0.951 . S
C308 C302 1.265 . S
C308 H303 0.950 1_655 S
C308 C309 1.478 1_655 S
C309 C296 1.394 1_455 S
C309 C308 1.478 1_455 S
C309 C310 1.397 . S
C310 C309 1.397 . S
C310 C311 1.438 . S
C310 C315 1.429 . S
C311 C294 1.394 . S
C311 C310 1.438 . S
C311 C312 1.428 . S
C312 H304 0.949 . S
C312 C311 1.428 . S
C312 C313 1.345 . S
C313 H305 0.950 . S
C313 C312 1.345 . S
C313 C314 1.424 . S
C314 H306 0.951 . S
C314 C313 1.424 . S
C314 C315 1.347 . S
C315 H307 0.951 . S
C315 C310 1.429 . S
C315 C314 1.347 . S
H316 C317 0.951 . S
C317 H316 0.951 . S
C317 C323 1.265 . S
H318 C323 0.950 . S
H319 C327 0.949 . S
H320 C328 0.950 . S
H321 C329 0.951 . S
H322 C330 0.951 . S
C323 C317 1.265 . S
C323 H318 0.950 . S
C323 C324 1.478 . S
C324 C323 1.478 . S
C324 C325 1.397 1_565 S
C324 C341 1.394 1_655 S
C325 C324 1.397 1_545 S
C325 C326 1.438 1_655 S
C325 C330 1.429 . S
C326 C325 1.438 1_455 S
C326 C327 1.428 . S
C326 C339 1.394 . S
C327 H319 0.949 . S
C327 C326 1.428 . S
C327 C328 1.345 1_455 S
C328 H320 0.950 . S
C328 C327 1.345 1_655 S
C328 C329 1.424 . S
C329 H321 0.951 . S
C329 C328 1.424 . S
C329 C330 1.347 . S
C330 H322 0.951 . S
C330 C325 1.429 . S
C330 C329 1.347 . S
H331 C332 0.951 . S
C332 H331 0.951 . S
C332 C338 1.265 . S
H333 C338 0.950 . S
H334 C342 0.949 1_655 S
H335 C343 0.950 . S
H336 C344 0.951 . S
H337 C345 0.940 1_545 S
C338 C332 1.265 . S
C338 H333 0.950 . S
C338 C339 1.478 . S
C339 C326 1.394 . S
C339 C338 1.478 . S
C339 C340 1.397 . S
C340 C339 1.397 . S
C340 C341 1.438 1_545 S
C340 C345 1.429 1_545 S
C341 C324 1.394 1_455 S
C341 C340 1.438 1_565 S
C341 C342 1.428 . S
C342 H334 0.949 1_455 S
C342 C341 1.428 . S
C342 C343 1.345 . S
C343 H335 0.950 . S
C343 C342 1.345 . S
C343 C344 1.424 . S
C344 H336 0.951 . S
C344 C343 1.424 . S
C344 C345 1.347 . S
C345 H337 0.940 1_565 S
C345 C340 1.429 1_565 S
C345 C344 1.347 . S
H346 C347 0.951 . S
C347 H346 0.951 . S
C347 C353 1.265 . S
H348 C353 0.950 1_655 S
H349 C357 0.949 . S
H350 C358 0.950 . S
H351 C359 0.951 . S
H352 C360 0.951 . S
C353 C347 1.265 . S
C353 H348 0.950 1_455 S
C353 C354 1.478 1_455 S
C354 C353 1.478 1_655 S
C354 C355 1.397 . S
C354 C371 1.394 . S
C355 C354 1.397 . S
C355 C356 1.438 . S
C355 C360 1.429 . S
C356 C355 1.438 . S
C356 C357 1.428 . S
C356 C369 1.394 . S
C357 H349 0.949 . S
C357 C356 1.428 . S
C357 C358 1.345 . S
C358 H350 0.950 . S
C358 C357 1.345 . S
C358 C359 1.424 . S
C359 H351 0.951 . S
C359 C358 1.424 . S
C359 C360 1.347 . S
C360 H352 0.951 . S
C360 C355 1.429 . S
C360 C359 1.347 . S
H361 C362 0.951 . S
C362 H361 0.951 . S
C362 C368 1.265 . S
H363 C368 0.950 . S
H364 C372 0.949 . S
H365 C373 0.950 . S
H366 C374 0.951 . S
H367 C375 0.951 . S
C368 C362 1.265 . S
C368 H363 0.950 . S
C368 C369 1.478 . S
C369 C356 1.394 . S
C369 C368 1.478 . S
C369 C370 1.397 . S
C370 C369 1.397 . S
C370 C371 1.438 . S
C370 C375 1.429 . S
C371 C354 1.394 . S
C371 C370 1.438 . S
C371 C372 1.428 1_655 S
C372 H364 0.949 . S
C372 C371 1.428 1_455 S
C372 C373 1.345 . S
C373 H365 0.950 . S
C373 C372 1.345 . S
C373 C374 1.424 1_455 S
C374 H366 0.951 . S
C374 C373 1.424 1_655 S
C374 C375 1.347 . S
C375 H367 0.951 . S
C375 C370 1.429 . S
C375 C374 1.347 . S
H376 C377 0.951 . S
C377 H376 0.951 . S
C377 C383 1.265 . S
H378 C383 0.950 . S
H379 C387 0.949 1_554 S
H380 C388 0.950 . S
H381 C389 0.951 . S
H382 C390 0.951 . S
C383 C377 1.265 . S
C383 H378 0.950 . S
C383 C384 1.478 . S
C384 C383 1.478 . S
C384 C385 1.397 . S
C384 C401 1.393 . S
C385 C384 1.397 . S
C385 C386 1.439 1_656 S
C385 C390 1.429 . S
C386 C385 1.439 1_454 S
C386 C387 1.428 1_554 S
C386 C399 1.393 . S
C387 H379 0.949 1_556 S
C387 C386 1.428 1_556 S
C387 C388 1.345 1_455 S
C388 H380 0.950 . S
C388 C387 1.345 1_655 S
C388 C389 1.424 . S
C389 H381 0.951 . S
C389 C388 1.424 . S
C389 C390 1.347 . S
C390 H382 0.951 . S
C390 C385 1.429 . S
C390 C389 1.347 . S
H391 C392 0.951 . S
C392 H391 0.951 . S
C392 C398 1.265 . S
H393 C398 0.950 . S
H394 C402 0.949 1_556 S
H395 C403 0.950 . S
H396 C404 0.951 . S
H397 C405 0.951 . S
C398 C392 1.265 . S
C398 H393 0.950 . S
C398 C399 1.478 . S
C399 C386 1.393 . S
C399 C398 1.478 . S
C399 C400 1.397 . S
C400 C399 1.397 . S
C400 C401 1.439 1_454 S
C400 C405 1.429 . S
C401 C384 1.393 . S
C401 C400 1.439 1_656 S
C401 C402 1.428 1_556 S
C402 H394 0.949 1_554 S
C402 C401 1.428 1_554 S
C402 C403 1.345 1_655 S
C403 H395 0.950 . S
C403 C402 1.345 1_455 S
C403 C404 1.424 . S
C404 H396 0.951 . S
C404 C403 1.424 . S
C404 C405 1.347 . S
C405 H397 0.951 . S
C405 C400 1.429 . S
C405 C404 1.347 . S
H406 C407 0.951 . S
C407 H406 0.951 . S
C407 C413 1.265 . S
H408 C413 0.950 . S
H409 C417 0.949 . S
H410 C418 0.950 . S
H411 C419 0.951 . S
H412 C420 0.951 . S
C413 C407 1.265 . S
C413 H408 0.950 . S
C413 C414 1.478 . S
C414 C413 1.478 . S
C414 C415 1.397 . S
C414 C431 1.394 1_565 S
C415 C414 1.397 . S
C415 C416 1.438 1_655 S
C415 C420 1.429 . S
C416 C415 1.438 1_455 S
C416 C417 1.428 . S
C416 C429 1.394 1_565 S
C417 H409 0.949 . S
C417 C416 1.428 . S
C417 C418 1.345 . S
C418 H410 0.950 . S
C418 C417 1.345 . S
C418 C419 1.424 1_455 S
C419 H411 0.951 . S
C419 C418 1.424 1_655 S
C419 C420 1.347 . S
C420 H412 0.951 . S
C420 C415 1.429 . S
C420 C419 1.347 . S
H421 C422 0.951 . S
C422 H421 0.951 . S
C422 C428 1.265 . S
H423 C428 0.950 . S
H424 C432 0.949 . S
H425 C433 0.950 . S
H426 C434 0.951 . S
H427 C435 0.951 . S
C428 C422 1.265 . S
C428 H423 0.950 . S
C428 C429 1.478 . S
C429 C416 1.394 1_545 S
C429 C428 1.478 . S
C429 C430 1.397 . S
C430 C429 1.397 . S
C430 C431 1.438 1_455 S
C430 C435 1.429 . S
C431 C414 1.394 1_545 S
C431 C430 1.438 1_655 S
C431 C432 1.428 . S
C432 H424 0.949 . S
C432 C431 1.428 . S
C432 C433 1.345 . S
C433 H425 0.950 . S
C433 C432 1.345 . S
C433 C434 1.424 1_655 S
C434 H426 0.951 . S
C434 C433 1.424 1_455 S
C434 C435 1.347 . S
C435 H427 0.951 . S
C435 C430 1.429 . S
C435 C434 1.347 . S
H436 C437 0.951 . S
C437 H436 0.951 . S
C437 C443 1.265 . S
H438 C443 0.950 . S
H439 C447 0.949 1_554 S
H440 C448 0.950 . S
H441 C449 0.951 . S
H442 C450 0.951 . S
C443 C437 1.265 . S
C443 H438 0.950 . S
C443 C444 1.478 . S
C444 C443 1.478 . S
C444 C445 1.397 . S
C444 C461 1.394 . S
C445 C444 1.397 . S
C445 C446 1.438 . S
C445 C450 1.429 . S
C446 C445 1.438 . S
C446 C447 1.428 . S
C446 C459 1.394 . S
C447 H439 0.949 1_556 S
C447 C446 1.428 . S
C447 C448 1.345 . S
C448 H440 0.950 . S
C448 C447 1.345 . S
C448 C449 1.424 . S
C449 H441 0.951 . S
C449 C448 1.424 . S
C449 C450 1.347 . S
C450 H442 0.951 . S
C450 C445 1.429 . S
C450 C449 1.347 . S
H451 C452 0.951 . S
C452 H451 0.951 . S
C452 C458 1.265 . S
H453 C458 0.950 . S
H454 C462 0.949 . S
H455 C463 0.950 . S
H456 C464 0.951 . S
H457 C465 0.951 1_554 S
C458 C452 1.265 . S
C458 H453 0.950 . S
C458 C459 1.478 1_554 S
C459 C446 1.394 . S
C459 C458 1.478 1_556 S
C459 C460 1.397 . S
C460 C459 1.397 . S
C460 C461 1.438 . S
C460 C465 1.429 . S
C461 C444 1.394 . S
C461 C460 1.438 . S
C461 C462 1.428 . S
C462 H454 0.949 . S
C462 C461 1.428 . S
C462 C463 1.345 . S
C463 H455 0.950 . S
C463 C462 1.345 . S
C463 C464 1.424 . S
C464 H456 0.951 . S
C464 C463 1.424 . S
C464 C465 1.347 . S
C465 H457 0.951 1_556 S
C465 C460 1.429 . S
C465 C464 1.347 . S
H466 C467 0.951 . S
C467 H466 0.951 . S
C467 C473 1.265 . S
H468 C473 0.950 . S
H469 C477 0.949 . S
H470 C478 0.950 . S
H471 C479 0.951 . S
H472 C480 0.951 . S
C473 C467 1.265 . S
C473 H468 0.950 . S
C473 C474 1.478 . S
C474 C473 1.478 . S
C474 C475 1.397 . S
C474 C491 1.394 . S
C475 C474 1.397 . S
C475 C476 1.438 . S
C475 C480 1.429 . S
C476 C475 1.438 . S
C476 C477 1.428 . S
C476 C489 1.394 . S
C477 H469 0.949 . S
C477 C476 1.428 . S
C477 C478 1.345 . S
C478 H470 0.950 . S
C478 C477 1.345 . S
C478 C479 1.424 . S
C479 H471 0.951 . S
C479 C478 1.424 . S
C479 C480 1.347 . S
C480 H472 0.951 . S
C480 C475 1.429 . S
C480 C479 1.347 . S
H481 C482 0.951 . S
C482 H481 0.951 . S
C482 C488 1.265 . S
H483 C488 0.950 . S
H484 C492 0.949 . S
H485 C493 0.950 . S
H486 C494 0.951 . S
H487 C495 0.951 . S
C488 C482 1.265 . S
C488 H483 0.950 . S
C488 C489 1.478 . S
C489 C476 1.394 . S
C489 C488 1.478 . S
C489 C490 1.397 . S
C490 C489 1.397 . S
C490 C491 1.438 . S
C490 C495 1.429 . S
C491 C474 1.394 . S
C491 C490 1.438 . S
C491 C492 1.428 . S
C492 H484 0.949 . S
C492 C491 1.428 . S
C492 C493 1.345 . S
C493 H485 0.950 . S
C493 C492 1.345 . S
C493 C494 1.424 . S
C494 H486 0.951 . S
C494 C493 1.424 . S
C494 C495 1.347 . S
C495 H487 0.951 . S
C495 C490 1.429 . S
C495 C494 1.347 . S
H496 C497 0.951 . S
C497 H496 0.951 . S
C497 C503 1.265 . S
H498 C503 0.950 . S
H499 C507 0.949 . S
H500 C508 0.950 . S
H501 C509 0.951 . S
H502 C510 0.951 . S
C503 C497 1.265 . S
C503 H498 0.950 . S
C503 C504 1.478 1_556 S
C504 C503 1.478 1_554 S
C504 C505 1.397 . S
C504 C521 1.394 . S
C505 C504 1.397 . S
C505 C506 1.438 . S
C505 C510 1.429 1_554 S
C506 C505 1.438 . S
C506 C507 1.428 . S
C506 C519 1.394 . S
C507 H499 0.949 . S
C507 C506 1.428 . S
C507 C508 1.345 . S
C508 H500 0.950 . S
C508 C507 1.345 . S
C508 C509 1.424 1_554 S
C509 H501 0.951 . S
C509 C508 1.424 1_556 S
C509 C510 1.347 . S
C510 H502 0.951 . S
C510 C505 1.429 1_556 S
C510 C509 1.347 . S
H511 C512 0.951 . S
C512 H511 0.951 . S
C512 C518 1.265 . S
H513 C518 0.950 . S
H514 C522 0.949 . S
H515 C523 0.950 . S
H516 C524 0.951 . S
H517 C525 0.951 . S
C518 C512 1.265 . S
C518 H513 0.950 . S
C518 C519 1.478 . S
C519 C506 1.394 . S
C519 C518 1.478 . S
C519 C520 1.397 . S
C520 C519 1.397 . S
C520 C521 1.438 . S
C520 C525 1.429 . S
C521 C504 1.394 . S
C521 C520 1.438 . S
C521 C522 1.428 . S
C522 H514 0.949 . S
C522 C521 1.428 . S
C522 C523 1.345 . S
C523 H515 0.950 . S
C523 C522 1.345 . S
C523 C524 1.424 . S
C524 H516 0.951 . S
C524 C523 1.424 . S
C524 C525 1.347 . S
C525 H517 0.951 . S
C525 C520 1.429 . S
C525 C524 1.347 . S
H526 C527 0.951 . S
C527 H526 0.951 . S
C527 C533 1.265 . S
H528 C533 0.950 . S
H529 C537 0.949 . S
H530 C538 0.950 . S
H531 C539 0.951 . S
H532 C540 0.951 . S
C533 C527 1.265 . S
C533 H528 0.950 . S
C533 C534 1.478 . S
C534 C533 1.478 . S
C534 C535 1.397 . S
C534 C551 1.394 . S
C535 C534 1.397 . S
C535 C536 1.438 . S
C535 C540 1.429 . S
C536 C535 1.438 . S
C536 C537 1.428 . S
C536 C549 1.394 . S
C537 H529 0.949 . S
C537 C536 1.428 . S
C537 C538 1.345 . S
C538 H530 0.950 . S
C538 C537 1.345 . S
C538 C539 1.424 . S
C539 H531 0.951 . S
C539 C538 1.424 . S
C539 C540 1.347 . S
C540 H532 0.951 . S
C540 C535 1.429 . S
C540 C539 1.347 . S
H541 C542 0.951 . S
C542 H541 0.951 . S
C542 C548 1.265 . S
H543 C548 0.950 . S
H544 C552 0.949 . S
H545 C553 0.950 . S
H546 C554 0.951 . S
H547 C555 0.951 . S
C548 C542 1.265 . S
C548 H543 0.950 . S
C548 C549 1.478 . S
C549 C536 1.394 . S
C549 C548 1.478 . S
C549 C550 1.397 . S
C550 C549 1.397 . S
C550 C551 1.438 . S
C550 C555 1.429 . S
C551 C534 1.394 . S
C551 C550 1.438 . S
C551 C552 1.428 . S
C552 H544 0.949 . S
C552 C551 1.428 . S
C552 C553 1.345 . S
C553 H545 0.950 . S
C553 C552 1.345 . S
C553 C554 1.424 . S
C554 H546 0.951 . S
C554 C553 1.424 . S
C554 C555 1.347 . S
C555 H547 0.951 . S
C555 C550 1.429 . S
C555 C554 1.347 . S
C137 C17 1.592 . S
C152 C56 1.515 . S
C167 C15 1.492 . S
C182 C51 1.604 . S
C197 C124 1.484 . S
C212 C85 1.596 . S
C227 C90 1.505 . S
C242 C119 1.602 . S
C257 C22 1.506 . S
C272 C37 1.421 . S
C287 C1 1.365 . S
C302 C49 1.490 . S
C317 C83 1.483 . S
C332 C105 1.393 . S
C347 C117 1.487 . S
C362 C71 1.356 . S
C377 C69 1.880 . S
C392 C3 1.880 . S
C407 C35 1.875 . S
C422 C103 1.875 . S
C437 C130 1.275 . S
C452 C28 1.271 . S
C467 C96 1.277 . S
C482 C40 1.268 . S
C497 C74 1.244 . S
C512 C62 1.246 . S
C527 C108 1.241 . S
C542 C6 1.217 . S
