# Generated by pormake.
# Topology unv, (4)-cn, num edge types: 1
# Building blocks:
#     Node 0, Type 0, BuildingBlock: GALJAG_clean_sbu_0, # of connection points: 4
#     Node 1, Type 0, BuildingBlock: GALJAG_clean_sbu_0, # of connection points: 4
#     Node 2, Type 0, BuildingBlock: GALJAG_clean_sbu_0, # of connection points: 4
#     Node 3, Type 0, BuildingBlock: GALJAG_clean_sbu_0, # of connection points: 4
#     Node 4, Type 0, BuildingBlock: GALJAG_clean_sbu_0, # of connection points: 4
#     Node 5, Type 0, BuildingBlock: GALJAG_clean_sbu_0, # of connection points: 4
#     Node 6, Type 0, BuildingBlock: GALJAG_clean_sbu_0, # of connection points: 4
#     Node 7, Type 0, BuildingBlock: GALJAG_clean_sbu_0, # of connection points: 4
#     Node 8, Type 0, BuildingBlock: GALJAG_clean_sbu_0, # of connection points: 4
#     Node 9, Type 0, BuildingBlock: GALJAG_clean_sbu_0, # of connection points: 4
#     Node 10, Type 0, BuildingBlock: GALJAG_clean_sbu_0, # of connection points: 4
#     Node 11, Type 0, BuildingBlock: GALJAG_clean_sbu_0, # of connection points: 4
#     Node 12, Type 0, BuildingBlock: GALJAG_clean_sbu_0, # of connection points: 4
#     Node 13, Type 0, BuildingBlock: GALJAG_clean_sbu_0, # of connection points: 4
#     Node 14, Type 0, BuildingBlock: GALJAG_clean_sbu_0, # of connection points: 4
#     Node 15, Type 0, BuildingBlock: GALJAG_clean_sbu_0, # of connection points: 4
#     Node 16, Type 0, BuildingBlock: GALJAG_clean_sbu_0, # of connection points: 4
#     Node 17, Type 0, BuildingBlock: GALJAG_clean_sbu_0, # of connection points: 4
#     Node 18, Type 0, BuildingBlock: GALJAG_clean_sbu_0, # of connection points: 4
#     Node 19, Type 0, BuildingBlock: GALJAG_clean_sbu_0, # of connection points: 4
#     Node 20, Type 0, BuildingBlock: GALJAG_clean_sbu_0, # of connection points: 4
#     Node 21, Type 0, BuildingBlock: GALJAG_clean_sbu_0, # of connection points: 4
#     Node 22, Type 0, BuildingBlock: GALJAG_clean_sbu_0, # of connection points: 4
#     Node 23, Type 0, BuildingBlock: GALJAG_clean_sbu_0, # of connection points: 4
#     Edge 24, Type (0, 0), BuildingBlock: AJUNOK_clean_linker_0, # of connection points: 2
#     Edge 25, Type (0, 0), BuildingBlock: AJUNOK_clean_linker_0, # of connection points: 2
#     Edge 26, Type (0, 0), BuildingBlock: AJUNOK_clean_linker_0, # of connection points: 2
#     Edge 27, Type (0, 0), BuildingBlock: AJUNOK_clean_linker_0, # of connection points: 2
#     Edge 28, Type (0, 0), BuildingBlock: AJUNOK_clean_linker_0, # of connection points: 2
#     Edge 29, Type (0, 0), BuildingBlock: AJUNOK_clean_linker_0, # of connection points: 2
#     Edge 30, Type (0, 0), BuildingBlock: AJUNOK_clean_linker_0, # of connection points: 2
#     Edge 31, Type (0, 0), BuildingBlock: AJUNOK_clean_linker_0, # of connection points: 2
#     Edge 32, Type (0, 0), BuildingBlock: AJUNOK_clean_linker_0, # of connection points: 2
#     Edge 33, Type (0, 0), BuildingBlock: AJUNOK_clean_linker_0, # of connection points: 2
#     Edge 34, Type (0, 0), BuildingBlock: AJUNOK_clean_linker_0, # of connection points: 2
#     Edge 35, Type (0, 0), BuildingBlock: AJUNOK_clean_linker_0, # of connection points: 2
#     Edge 36, Type (0, 0), BuildingBlock: AJUNOK_clean_linker_0, # of connection points: 2
#     Edge 37, Type (0, 0), BuildingBlock: AJUNOK_clean_linker_0, # of connection points: 2
#     Edge 38, Type (0, 0), BuildingBlock: AJUNOK_clean_linker_0, # of connection points: 2
#     Edge 39, Type (0, 0), BuildingBlock: AJUNOK_clean_linker_0, # of connection points: 2
#     Edge 40, Type (0, 0), BuildingBlock: AJUNOK_clean_linker_0, # of connection points: 2
#     Edge 41, Type (0, 0), BuildingBlock: AJUNOK_clean_linker_0, # of connection points: 2
#     Edge 42, Type (0, 0), BuildingBlock: AJUNOK_clean_linker_0, # of connection points: 2
#     Edge 43, Type (0, 0), BuildingBlock: AJUNOK_clean_linker_0, # of connection points: 2
#     Edge 44, Type (0, 0), BuildingBlock: AJUNOK_clean_linker_0, # of connection points: 2
#     Edge 45, Type (0, 0), BuildingBlock: AJUNOK_clean_linker_0, # of connection points: 2
#     Edge 46, Type (0, 0), BuildingBlock: AJUNOK_clean_linker_0, # of connection points: 2
#     Edge 47, Type (0, 0), BuildingBlock: AJUNOK_clean_linker_0, # of connection points: 2
#     Edge 48, Type (0, 0), BuildingBlock: AJUNOK_clean_linker_0, # of connection points: 2
#     Edge 49, Type (0, 0), BuildingBlock: AJUNOK_clean_linker_0, # of connection points: 2
#     Edge 50, Type (0, 0), BuildingBlock: AJUNOK_clean_linker_0, # of connection points: 2
#     Edge 51, Type (0, 0), BuildingBlock: AJUNOK_clean_linker_0, # of connection points: 2
#     Edge 52, Type (0, 0), BuildingBlock: AJUNOK_clean_linker_0, # of connection points: 2
#     Edge 53, Type (0, 0), BuildingBlock: AJUNOK_clean_linker_0, # of connection points: 2
#     Edge 54, Type (0, 0), BuildingBlock: AJUNOK_clean_linker_0, # of connection points: 2
#     Edge 55, Type (0, 0), BuildingBlock: AJUNOK_clean_linker_0, # of connection points: 2
#     Edge 56, Type (0, 0), BuildingBlock: AJUNOK_clean_linker_0, # of connection points: 2
#     Edge 57, Type (0, 0), BuildingBlock: AJUNOK_clean_linker_0, # of connection points: 2
#     Edge 58, Type (0, 0), BuildingBlock: AJUNOK_clean_linker_0, # of connection points: 2
#     Edge 59, Type (0, 0), BuildingBlock: AJUNOK_clean_linker_0, # of connection points: 2
#     Edge 60, Type (0, 0), BuildingBlock: AJUNOK_clean_linker_0, # of connection points: 2
#     Edge 61, Type (0, 0), BuildingBlock: AJUNOK_clean_linker_0, # of connection points: 2
#     Edge 62, Type (0, 0), BuildingBlock: AJUNOK_clean_linker_0, # of connection points: 2
#     Edge 63, Type (0, 0), BuildingBlock: AJUNOK_clean_linker_0, # of connection points: 2
#     Edge 64, Type (0, 0), BuildingBlock: AJUNOK_clean_linker_0, # of connection points: 2
#     Edge 65, Type (0, 0), BuildingBlock: AJUNOK_clean_linker_0, # of connection points: 2
#     Edge 66, Type (0, 0), BuildingBlock: AJUNOK_clean_linker_0, # of connection points: 2
#     Edge 67, Type (0, 0), BuildingBlock: AJUNOK_clean_linker_0, # of connection points: 2
#     Edge 68, Type (0, 0), BuildingBlock: AJUNOK_clean_linker_0, # of connection points: 2
#     Edge 69, Type (0, 0), BuildingBlock: AJUNOK_clean_linker_0, # of connection points: 2
#     Edge 70, Type (0, 0), BuildingBlock: AJUNOK_clean_linker_0, # of connection points: 2
#     Edge 71, Type (0, 0), BuildingBlock: AJUNOK_clean_linker_0, # of connection points: 2
# Relax obj value: 0.403
# Max RMSD: 0.239
# Mean RMSD: 0.210
data_MOF--net-unv--node1-GALJAG_clean_sbu_0--edge1-AJUNOK_clean_linker_0
_symmetry_space_group_name_H-M    P1
_symmetry_Int_Tables_number       1
_symmetry_cell_setting            triclinic
loop_
_symmetry_equiv_pos_as_xyz
'x, y, z'
_cell_length_a     36.086288
_cell_length_b     36.061081
_cell_length_c     36.11992
_cell_angle_alpha  89.987074
_cell_angle_beta   89.986473
_cell_angle_gamma 89.994433
loop_
_atom_site_label
_atom_site_type_symbol
_atom_site_fract_x
_atom_site_fract_y
_atom_site_fract_z
_atom_type_partial_charge
In0 In 0.00328 0.09477 0.36665 0.0
O1 O 0.03874 0.06571 0.32288 0.0
O2 O 0.98108 0.07267 0.31265 0.0
C3 C 0.05114 0.09823 0.42377 0.0
C4 C 0.98671 0.16547 0.34885 0.0
C5 C 0.96123 0.0405 0.39533 0.0
O6 O 0.06136 0.09119 0.39105 0.0
O7 O 0.01715 0.10568 0.42703 0.0
O8 O 0.95051 0.07393 0.3958 0.0
O9 O 0.99263 0.03526 0.38113 0.0
C10 C 0.01134 0.05849 0.30228 0.0
O11 O 0.96274 0.14287 0.36067 0.0
O12 O 0.01887 0.15211 0.3455 0.0
In13 In 0.93584 0.39314 0.35819 0.0
O14 O 0.97623 0.34561 0.35163 0.0
O15 O 0.9195 0.33477 0.33963 0.0
C16 C 0.98222 0.44644 0.38181 0.0
C17 C 0.92641 0.43005 0.29446 0.0
C18 C 0.89236 0.38708 0.41849 0.0
O19 O 0.99209 0.41281 0.38051 0.0
O20 O 0.94897 0.45238 0.37312 0.0
O21 O 0.8791 0.39421 0.38684 0.0
O22 O 0.92696 0.38229 0.41904 0.0
C23 C 0.95212 0.32216 0.34206 0.0
O24 O 0.90059 0.42765 0.31802 0.0
O25 O 0.95408 0.40974 0.30102 0.0
In26 In 0.99359 0.90092 0.13336 0.0
O27 O 0.95618 0.85085 0.14334 0.0
O28 O 0.01382 0.84464 0.15335 0.0
C29 C 0.94522 0.95327 0.11198 0.0
C30 C 0.00835 0.93776 0.19621 0.0
C31 C 0.03642 0.89844 0.07219 0.0
O32 O 0.9374 0.91919 0.10872 0.0
O33 O 0.97701 0.9601 0.12445 0.0
O34 O 0.04949 0.90342 0.10424 0.0
O35 O 0.00185 0.89353 0.07127 0.0
C36 C 0.98226 0.82963 0.15308 0.0
O37 O 0.03251 0.93345 0.17123 0.0
O38 O 0.97832 0.9206 0.19071 0.0
In39 In 0.96235 0.59801 0.13949 0.0
O40 O 0.9209 0.56024 0.16913 0.0
O41 O 0.96792 0.57954 0.19898 0.0
C42 C 0.92947 0.60034 0.07252 0.0
C43 C 0.96685 0.67001 0.15931 0.0
C44 C 0.01817 0.55097 0.12397 0.0
O45 O 0.91137 0.59511 0.102 0.0
O46 O 0.96378 0.60474 0.07711 0.0
O47 O 0.02256 0.58571 0.1218 0.0
O48 O 0.98615 0.54068 0.13311 0.0
C49 C 0.93995 0.55845 0.19845 0.0
O50 O 0.99508 0.64964 0.15566 0.0
O51 O 0.93642 0.65353 0.15446 0.0
In52 In 0.37537 0.02758 0.09534 0.0
O53 O 0.36601 0.9912 0.14603 0.0
O54 O 0.35924 0.04918 0.15269 0.0
C55 C 0.40286 0.97495 0.05002 0.0
C56 C 0.31055 0.03513 0.05939 0.0
C57 C 0.43059 0.07762 0.0879 0.0
O58 O 0.41156 0.97612 0.08389 0.0
O59 O 0.38108 8e-05 0.03967 0.0
O60 O 0.39704 0.08552 0.0819 0.0
O61 O 0.43594 0.045 0.09923 0.0
C62 C 0.3586 0.01759 0.16766 0.0
O63 O 0.33341 0.06154 0.06208 0.0
O64 O 0.31919 0.00642 0.07746 0.0
In65 In 0.62816 0.45735 0.0865 0.0
O66 O 0.67096 0.42295 0.05455 0.0
O67 O 0.68613 0.47618 0.0751 0.0
C68 C 0.56647 0.41541 0.08356 0.0
C69 C 0.64464 0.46893 0.1579 0.0
C70 C 0.60938 0.50782 0.0353 0.0
O71 O 0.59816 0.40217 0.07653 0.0
O72 O 0.56669 0.44875 0.094 0.0
O73 O 0.60389 0.51378 0.06935 0.0
O74 O 0.62278 0.47656 0.02762 0.0
C75 C 0.69498 0.44854 0.05559 0.0
O76 O 0.63382 0.49433 0.13643 0.0
O77 O 0.64664 0.4371 0.14337 0.0
In78 In 0.36036 0.9735 0.39743 0.0
O79 O 0.35651 0.014 0.34928 0.0
O80 O 0.34504 0.95732 0.3383 0.0
C81 C 0.38038 0.0204 0.45172 0.0
C82 C 0.29513 0.95972 0.4306 0.0
C83 C 0.42029 0.92877 0.39735 0.0
O84 O 0.38291 0.02948 0.41798 0.0
O85 O 0.36903 0.98791 0.45743 0.0
O86 O 0.38759 0.91646 0.39919 0.0
O87 O 0.42251 0.96351 0.39422 0.0
C88 C 0.34824 0.98976 0.32552 0.0
O89 O 0.31968 0.93498 0.42719 0.0
O90 O 0.30204 0.98953 0.4136 0.0
In91 In 0.64668 0.51453 0.38533 0.0
O92 O 0.66842 0.56249 0.41974 0.0
O93 O 0.7078 0.52712 0.39378 0.0
C94 C 0.57602 0.53918 0.38556 0.0
C95 C 0.66171 0.50106 0.31375 0.0
C96 C 0.6438 0.46099 0.43755 0.0
O97 O 0.60331 0.56099 0.38381 0.0
O98 O 0.5846 0.50538 0.38691 0.0
O99 O 0.63353 0.45519 0.40463 0.0
O100 O 0.65585 0.49313 0.4435 0.0
C101 C 0.70213 0.55396 0.41561 0.0
O102 O 0.66583 0.47677 0.33855 0.0
O103 O 0.65178 0.53245 0.3255 0.0
In104 In 0.09461 0.37262 0.00882 0.0
O105 O 0.06337 0.332 0.04607 0.0
O106 O 0.07569 0.31578 0.99081 0.0
C107 C 0.09408 0.43104 0.05557 0.0
C108 C 0.16563 0.35435 0.99374 0.0
C109 C 0.0419 0.39484 0.96113 0.0
O110 O 0.09027 0.398 0.06642 0.0
O111 O 0.10032 0.43429 0.02137 0.0
O112 O 0.07588 0.39977 0.95399 0.0
O113 O 0.03525 0.38052 0.99215 0.0
C114 C 0.05897 0.30835 0.02062 0.0
O115 O 0.14353 0.36626 0.96944 0.0
O116 O 0.15184 0.35169 0.02573 0.0
In117 In 0.08715 0.6207 0.49038 0.0
O118 O 0.05147 0.66288 0.45913 0.0
O119 O 0.07535 0.67828 0.5109 0.0
C120 C 0.06729 0.56748 0.44215 0.0
C121 C 0.16083 0.63231 0.49136 0.0
C122 C 0.04707 0.59282 0.54732 0.0
O123 O 0.05887 0.60118 0.43734 0.0
O124 O 0.08742 0.56136 0.47001 0.0
O125 O 0.07248 0.57456 0.53183 0.0
O126 O 0.04411 0.62555 0.53591 0.0
C127 C 0.05384 0.68681 0.48466 0.0
O128 O 0.1422 0.62624 0.52023 0.0
O129 O 0.14224 0.63261 0.46183 0.0
In130 In 0.89456 0.85538 0.51652 0.0
O131 O 0.83931 0.84649 0.54644 0.0
O132 O 0.84262 0.83206 0.48977 0.0
C133 C 0.9356 0.88151 0.57369 0.0
C134 C 0.93919 0.79817 0.50032 0.0
C135 C 0.90066 0.91309 0.46994 0.0
O136 O 0.93225 0.84753 0.56676 0.0
O137 O 0.91531 0.90203 0.55409 0.0
O138 O 0.91343 0.8813 0.46248 0.0
O139 O 0.8837 0.91526 0.50042 0.0
C140 C 0.82277 0.83415 0.51829 0.0
O141 O 0.936 0.82561 0.47878 0.0
O142 O 0.91827 0.79888 0.52834 0.0
In143 In 0.39278 0.60635 0.49744 0.0
O144 O 0.33776 0.61184 0.46677 0.0
O145 O 0.34031 0.63142 0.5219 0.0
C146 C 0.43423 0.58457 0.43905 0.0
C147 C 0.4402 0.6606 0.51631 0.0
C148 C 0.3965 0.5459 0.54065 0.0
O149 O 0.42379 0.61762 0.4433 0.0
O150 O 0.42127 0.56228 0.46254 0.0
O151 O 0.40601 0.5777 0.55199 0.0
O152 O 0.38372 0.54521 0.50811 0.0
C153 C 0.32074 0.62626 0.49356 0.0
O154 O 0.43369 0.63374 0.53779 0.0
O155 O 0.42118 0.66098 0.48705 0.0
In156 In 0.51897 0.59424 0.84355 0.0
O157 O 0.49112 0.64857 0.82644 0.0
O158 O 0.54891 0.64918 0.83654 0.0
C159 C 0.45331 0.55985 0.85454 0.0
C160 C 0.54886 0.54902 0.79228 0.0
C161 C 0.55576 0.58467 0.90761 0.0
O162 O 0.46791 0.58103 0.87814 0.0
O163 O 0.47043 0.55842 0.82416 0.0
O164 O 0.57112 0.58159 0.87637 0.0
O165 O 0.52209 0.59394 0.90643 0.0
C166 C 0.52041 0.66752 0.82831 0.0
O167 O 0.5488 0.54178 0.82641 0.0
O168 O 0.5347 0.58001 0.7839 0.0
In169 In 0.51546 0.89807 0.86771 0.0
O170 O 0.54627 0.84316 0.8598 0.0
O171 O 0.49101 0.84658 0.84072 0.0
C172 C 0.57305 0.94143 0.88813 0.0
C173 C 0.49357 0.94668 0.81589 0.0
C174 C 0.47344 0.90108 0.92889 0.0
O175 O 0.55228 0.92529 0.91107 0.0
O176 O 0.56717 0.93248 0.85494 0.0
O177 O 0.46117 0.90925 0.89712 0.0
O178 O 0.50649 0.88958 0.92936 0.0
C179 C 0.51946 0.82685 0.84452 0.0
O180 O 0.47312 0.93883 0.84315 0.0
O181 O 0.52332 0.92844 0.81394 0.0
In182 In 0.53766 0.39108 0.62577 0.0
O183 O 0.50229 0.34177 0.64279 0.0
O184 O 0.56043 0.33395 0.64029 0.0
C185 C 0.47389 0.42526 0.60669 0.0
C186 C 0.56146 0.43786 0.67869 0.0
C187 C 0.58344 0.39398 0.56675 0.0
O188 O 0.49206 0.40528 0.58454 0.0
O189 O 0.48697 0.42655 0.63898 0.0
O190 O 0.59397 0.40213 0.59905 0.0
O191 O 0.55029 0.38319 0.56467 0.0
C192 C 0.5291 0.31966 0.64612 0.0
O193 O 0.55945 0.44674 0.64498 0.0
O194 O 0.55302 0.40453 0.68557 0.0
In195 In 0.48498 0.09018 0.64029 0.0
O196 O 0.52541 0.1381 0.6413 0.0
O197 O 0.46898 0.14915 0.65496 0.0
C198 C 0.52594 0.03167 0.6195 0.0
C199 C 0.47749 0.06433 0.70921 0.0
C200 C 0.44064 0.08986 0.58071 0.0
O201 O 0.5378 0.0645 0.61576 0.0
O202 O 0.49399 0.02899 0.63323 0.0
O203 O 0.42841 0.0836 0.61297 0.0
O204 O 0.47455 0.09806 0.57919 0.0
C205 C 0.50139 0.16179 0.65071 0.0
O206 O 0.45014 0.06578 0.68728 0.0
O207 O 0.50683 0.07908 0.69715 0.0
In208 In 0.83713 0.51095 0.58858 0.0
O209 O 0.83564 0.54376 0.53496 0.0
O210 O 0.78559 0.53947 0.5657 0.0
C211 C 0.90804 0.53392 0.59294 0.0
C212 C 0.81344 0.51093 0.65952 0.0
C213 C 0.83534 0.44651 0.55085 0.0
O214 O 0.89909 0.5002 0.59187 0.0
O215 O 0.88106 0.5562 0.59232 0.0
O216 O 0.86144 0.45534 0.57234 0.0
O217 O 0.80837 0.46878 0.55102 0.0
C218 C 0.80145 0.55082 0.53659 0.0
O219 O 0.81557 0.4817 0.64051 0.0
O220 O 0.82137 0.54003 0.64206 0.0
In221 In 0.1398 0.98194 0.60039 0.0
O222 O 0.15493 0.01733 0.6504 0.0
O223 O 0.16158 0.95892 0.65479 0.0
C224 C 0.11893 0.03167 0.54935 0.0
C225 C 0.19837 0.96334 0.55861 0.0
C226 C 0.07459 0.94705 0.61023 0.0
O227 O 0.12265 0.04101 0.58296 0.0
O228 O 0.12421 -0.00215 0.54251 0.0
O229 O 0.10412 0.9297 0.60279 0.0
O230 O 0.07828 0.9817 0.61299 0.0
C231 C 0.16361 0.99006 0.6706 0.0
O232 O 0.17192 0.94096 0.56404 0.0
O233 O 0.19674 0.9929 0.57731 0.0
In234 In 0.85052 0.49602 0.88882 0.0
O235 O 0.83912 0.53023 0.83681 0.0
O236 O 0.82605 0.47315 0.83518 0.0
C237 C 0.87192 0.55287 0.93279 0.0
C238 C 0.79787 0.47181 0.93547 0.0
C239 C 0.91209 0.45411 0.89205 0.0
O240 O 0.83848 0.54443 0.92772 0.0
O241 O 0.89437 0.53463 0.91324 0.0
O242 O 0.8806 0.44241 0.90191 0.0
O243 O 0.91212 0.48658 0.87892 0.0
C244 C 0.82655 0.50358 0.81818 0.0
O245 O 0.82462 0.4513 0.92603 0.0
O246 O 0.79685 0.50301 0.91971 0.0
In247 In 0.14197 0.00827 0.90153 0.0
O248 O 0.17855 0.04809 0.93429 0.0
O249 O 0.19833 0.99327 0.92436 0.0
C250 C 0.08025 0.05032 0.90231 0.0
C251 C 0.16345 0.00223 0.83011 0.0
C252 C 0.11639 0.95623 0.94859 0.0
O253 O 0.11167 0.06272 0.91144 0.0
O254 O 0.08035 0.0171 0.89155 0.0
O255 O 0.11146 0.9534 0.91403 0.0
O256 O 0.13432 0.98438 0.95856 0.0
C257 C 0.20338 0.02408 0.94029 0.0
O258 O 0.15706 0.97425 0.85017 0.0
O259 O 0.15992 0.03286 0.84648 0.0
In260 In 0.58984 0.83404 0.51719 0.0
O261 O 0.64458 0.82527 0.4873 0.0
O262 O 0.64432 0.82239 0.54615 0.0
C263 C 0.54268 0.85416 0.46321 0.0
C264 C 0.55882 0.7675 0.52788 0.0
C265 C 0.58319 0.89631 0.55745 0.0
O266 O 0.57719 0.85953 0.46005 0.0
O267 O 0.53271 0.83923 0.49307 0.0
O268 O 0.57383 0.86488 0.56988 0.0
O269 O 0.59657 0.89588 0.52523 0.0
C270 C 0.66308 0.82105 0.5167 0.0
O271 O 0.55818 0.7923 0.55265 0.0
O272 O 0.57776 0.77548 0.49954 0.0
In273 In 0.5977 0.16022 0.95463 0.0
O274 O 0.55874 0.18084 0.90947 0.0
O275 O 0.5837 0.22093 0.94479 0.0
C276 C 0.60638 0.08972 0.93111 0.0
C277 C 0.66869 0.18143 0.96279 0.0
C278 C 0.54799 0.14954 0.00946 0.0
O279 O 0.60219 0.1164 0.90881 0.0
O280 O 0.60605 0.09882 0.96474 0.0
O281 O 0.58247 0.14972 0.01562 0.0
O282 O 0.5391 0.15561 0.97632 0.0
C283 C 0.56112 0.21451 0.91881 0.0
O284 O 0.64538 0.18356 0.98882 0.0
O285 O 0.65553 0.17042 0.93235 0.0
In286 In 0.39336 0.36283 0.94792 0.0
O287 O 0.4467 0.35369 0.91625 0.0
O288 O 0.41172 0.30696 0.92369 0.0
C289 C 0.38921 0.42895 0.91318 0.0
C290 C 0.32229 0.34285 0.96125 0.0
C291 C 0.43544 0.36802 0.0093 0.0
O292 O 0.39128 0.39867 0.89572 0.0
O293 O 0.38829 0.42553 0.9479 0.0
O294 O 0.41799 0.39525 -0.00406 0.0
O295 O 0.42965 0.33759 0.99315 0.0
C296 C 0.44252 0.31924 0.91223 0.0
O297 O 0.34597 0.34711 0.98646 0.0
O298 O 0.3349 0.34692 0.92894 0.0
In299 In 0.89524 0.14519 0.00389 0.0
O300 O 0.84708 0.15576 0.96456 0.0
O301 O 0.84013 0.17038 0.02114 0.0
C302 C 0.94912 0.11872 0.96011 0.0
C303 C 0.93454 0.20682 0.01694 0.0
C304 C 0.88761 0.08452 0.04672 0.0
O305 O 0.91577 0.1194 0.94919 0.0
O306 O 0.9544 0.1304 0.99249 0.0
O307 O 0.89561 0.11602 0.0598 0.0
O308 O 0.88166 0.08425 0.01233 0.0
C309 C 0.826 0.16891 0.98922 0.0
O310 O 0.92694 0.18408 0.04252 0.0
O311 O 0.91937 0.19995 0.98618 0.0
C312 C 0.07679 0.07991 0.5235 0.0
C313 C 0.10804 0.05716 0.51955 0.0
C314 C 0.06018 0.0962 0.49234 0.0
C315 C 0.07461 0.09047 0.45648 0.0
H316 H 0.06336 0.08261 0.5502 0.0
H317 H 0.03444 0.1112 0.49614 0.0
S318 S 0.16079 0.03921 0.43337 0.0
N319 N 0.156 0.03399 0.47852 0.0
N320 N 0.12553 0.06519 0.42008 0.0
C321 C 0.10823 0.07105 0.45301 0.0
C322 C 0.12472 0.05411 0.48458 0.0
C323 C 0.83771 0.4115 0.45322 0.0
C324 C 0.87092 0.39108 0.45318 0.0
C325 C 0.82312 0.42569 0.48632 0.0
C326 C 0.84142 0.41997 0.52029 0.0
H327 H 0.82478 0.41951 0.42736 0.0
H328 H 0.79962 0.44433 0.48463 0.0
S329 S 0.92329 0.35993 0.53595 0.0
N330 N 0.91712 0.35934 0.49065 0.0
N331 N 0.88985 0.38629 0.55271 0.0
C332 C 0.87168 0.39551 0.52106 0.0
C333 C 0.88646 0.38101 0.48746 0.0
C334 C 0.09601 0.91532 0.04192 0.0
C335 C 0.0589 0.90401 0.03836 0.0
C336 C 0.1156 0.92929 0.01158 0.0
C337 C 0.09902 0.93203 0.97648 0.0
H338 H 0.10933 0.91574 0.06879 0.0
H339 H 0.14326 0.94008 0.01615 0.0
S340 S 0.0046 0.90086 0.95106 0.0
N341 N 0.00777 0.89234 -0.00411 0.0
N342 N 0.04501 0.91849 0.93876 0.0
C343 C 0.06324 0.91761 0.97166 0.0
C344 C 0.04304 0.90363 0.00269 0.0
C345 C 0.9365 0.59224 0.00443 0.0
C346 C 0.91302 0.59674 0.03522 0.0
C347 C 0.92246 0.58127 0.97004 0.0
C348 C 0.88438 0.57478 0.96507 0.0
H349 H 0.96627 0.59481 0.00741 0.0
H350 H 0.9419 0.57555 0.94789 0.0
S351 S 0.81048 0.58985 0.03505 0.0
N352 N 0.8494 0.59903 0.05726 0.0
N353 N 0.82281 0.57904 0.99238 0.0
C354 C 0.86021 0.58289 0.9946 0.0
C355 C 0.8746 0.59364 0.02981 0.0
C356 C 0.45401 0.13078 0.05065 0.0
C357 C 0.46136 0.10187 0.07573 0.0
C358 C 0.48275 0.1482 0.03128 0.0
C359 C 0.51991 0.13783 0.03678 0.0
H360 H 0.42574 0.13824 0.04384 0.0
H361 H 0.47564 0.16852 0.01035 0.0
S362 S 0.55434 0.06809 0.10386 0.0
N363 N 0.50881 0.06677 0.10835 0.0
N364 N 0.56291 0.10009 0.07228 0.0
C365 C 0.52793 0.11152 0.06431 0.0
C366 C 0.49859 0.09335 0.0837 0.0
C367 C 0.49789 0.41654 0.07699 0.0
C368 C 0.53137 0.39679 0.07324 0.0
C369 C 0.46574 0.40519 0.05859 0.0
C370 C 0.46566 0.37332 0.03631 0.0
H371 H 0.49707 0.44253 0.09201 0.0
H372 H 0.44143 0.42277 0.06001 0.0
S373 S 0.54416 0.30825 0.02247 0.0
N374 N 0.56115 0.34118 0.04933 0.0
N375 N 0.50039 0.31945 0.01521 0.0
C376 C 0.49778 0.35117 0.03538 0.0
C377 C 0.53076 0.363 0.05379 0.0
C378 C 0.51908 0.90371 0.42145 0.0
C379 C 0.51486 0.86832 0.43703 0.0
C380 C 0.4887 0.92214 0.40571 0.0
C381 C 0.45331 0.90557 0.40482 0.0
H382 H 0.54509 0.91847 0.42422 0.0
H383 H 0.49248 0.95047 0.39646 0.0
S384 S 0.43042 0.80987 0.43498 0.0
N385 N 0.47461 0.81506 0.44564 0.0
N386 N 0.4176 0.84928 0.41552 0.0
C387 C 0.44992 0.8686 0.41673 0.0
C388 C 0.48073 0.85007 0.43305 0.0
C389 C 0.47485 0.5364 0.41151 0.0
C390 C 0.46585 0.57412 0.41529 0.0
C391 C 0.50986 0.52539 0.39914 0.0
C392 C 0.53731 0.55171 0.39041 0.0
H393 H 0.45559 0.51518 0.42052 0.0
H394 H 0.51613 0.49601 0.39876 0.0
S395 S 0.5254 0.65388 0.38918 0.0
N396 N 0.48526 0.6378 0.40415 0.0
N397 N 0.55143 0.61704 0.38135 0.0
C398 C 0.52755 0.58944 0.3907 0.0
C399 C 0.49164 0.60068 0.40296 0.0
C400 C 0.08565 0.49934 0.06368 0.0
C401 C 0.08413 0.46334 0.07886 0.0
C402 C 0.06713 0.5291 0.08055 0.0
C403 C 0.04625 0.52359 0.11286 0.0
H404 H 0.09901 0.50409 0.03724 0.0
H405 H 0.06654 0.55566 0.06653 0.0
S406 S 0.0396 0.43703 0.16777 0.0
N407 N 0.06505 0.42563 0.1315 0.0
N408 N 0.02968 0.48141 0.16256 0.0
C409 C 0.04756 0.4888 0.13025 0.0
C410 C 0.06675 0.45866 0.11343 0.0
C411 C 0.03648 0.47034 0.41736 0.0
C412 C 0.0071 0.47689 0.3928 0.0
C413 C 0.05743 0.49983 0.43151 0.0
C414 C 0.04996 0.5368 0.42121 0.0
H415 H 0.04218 0.4425 0.42711 0.0
H416 H 0.07855 0.49366 0.45191 0.0
S417 S 0.9799 0.5676 0.35256 0.0
N418 N 0.97427 0.52226 0.35528 0.0
N419 N 0.01395 0.57763 0.38139 0.0
C420 C 0.02241 0.54331 0.39449 0.0
C421 C 0.00084 0.51335 0.38044 0.0
C422 C 0.934 0.9421 0.4172 0.0
C423 C 0.90988 0.94608 0.44747 0.0
C424 C 0.94895 0.97307 0.39946 0.0
C425 C 0.94013 0.00924 0.41103 0.0
H426 H 0.94289 0.91487 0.40817 0.0
H427 H 0.96861 0.96854 0.37722 0.0
S428 S 0.8749 0.03495 0.48596 0.0
N429 N 0.87516 0.98915 0.48619 0.0
N430 N 0.90329 0.04752 0.45234 0.0
C431 C 0.91409 0.01379 0.43952 0.0
C432 C 0.89897 0.98214 0.45789 0.0
C433 C 0.42055 0.51429 0.59709 0.0
C434 C 0.40663 0.51171 0.56083 0.0
C435 C 0.43924 0.48446 0.61343 0.0
C436 C 0.4451 0.45127 0.59382 0.0
H437 H 0.41914 0.54027 0.61208 0.0
H438 H 0.45177 0.48862 0.64037 0.0
S439 S 0.40791 0.42793 0.50107 0.0
N440 N 0.39484 0.47123 0.50814 0.0
N441 N 0.43073 0.41549 0.53869 0.0
C442 C 0.42819 0.44707 0.55908 0.0
C443 C 0.4087 0.47725 0.54261 0.0
C444 C 0.56645 0.55394 0.00709 0.0
C445 C 0.59989 0.53416 0.00583 0.0
C446 C 0.55342 0.57265 0.97564 0.0
C447 C 0.57369 0.57241 0.94227 0.0
H448 H 0.54911 0.55282 0.03155 0.0
H449 H 0.52636 0.58558 0.97695 0.0
S450 S 0.66651 0.53037 0.92782 0.0
N451 N 0.6554 0.51942 0.97079 0.0
N452 N 0.63143 0.55507 0.91188 0.0
C453 C 0.60883 0.55554 0.942 0.0
C454 C 0.62178 0.5362 0.97379 0.0
C455 C 0.39985 0.94328 0.98929 0.0
C456 C 0.41845 0.94854 0.02308 0.0
C457 C 0.41681 0.92488 0.95981 0.0
C458 C 0.45313 0.91122 0.96293 0.0
H459 H 0.37258 0.9551 0.98492 0.0
H460 H 0.40211 0.92337 0.93369 0.0
S461 S 0.51186 0.9135 0.04734 0.0
N462 N 0.47344 0.9352 0.05952 0.0
N463 N 0.50569 0.90054 0.00392 0.0
C464 C 0.4709 0.91352 -0.00239 0.0
C465 C 0.45345 0.93224 0.02778 0.0
C466 C 0.59015 0.39548 0.49808 0.0
C467 C 0.60542 0.4026 0.53326 0.0
C468 C 0.60517 0.41158 0.46613 0.0
C469 C 0.63577 0.43551 0.46841 0.0
H470 H 0.5649 0.37946 0.4954 0.0
H471 H 0.59082 0.40772 0.44007 0.0
S472 S 0.69092 0.45651 0.55246 0.0
N473 N 0.65669 0.43006 0.56745 0.0
N474 N 0.68463 0.46059 0.50737 0.0
C475 C 0.65364 0.43966 0.50273 0.0
C476 C 0.63853 0.42307 0.53523 0.0
C477 C 0.39007 0.05507 0.54963 0.0
C478 C 0.41967 0.08023 0.54697 0.0
C479 C 0.37619 0.03735 0.51813 0.0
C480 C 0.39099 0.04461 0.48282 0.0
H481 H 0.37932 0.04689 0.57643 0.0
H482 H 0.35478 0.01658 0.5217 0.0
S483 S 0.46421 0.11296 0.46028 0.0
N484 N 0.4602 0.11503 0.50579 0.0
N485 N 0.43348 0.082 0.44639 0.0
C486 C 0.41814 0.07221 0.47932 0.0
C487 C 0.43266 0.08997 0.51151 0.0
C488 C 0.98953 0.59867 0.58439 0.0
C489 C 0.01709 0.57564 0.56919 0.0
C490 C 0.95498 0.58441 0.5946 0.0
C491 C 0.94687 0.54657 0.59023 0.0
H492 H 0.99361 0.62842 0.58584 0.0
H493 H 0.93381 0.60357 0.6039 0.0
S494 S 0.01168 0.47357 0.55764 0.0
N495 N 0.0357 0.51242 0.55478 0.0
N496 N 0.97079 0.48546 0.57436 0.0
C497 C 0.97543 0.52262 0.57866 0.0
C498 C 0.01065 0.53721 0.56812 0.0
C499 C 0.97147 0.9352 0.59786 0.0
C500 C 0.96769 0.89657 0.59427 0.0
C501 C 0.00583 0.95124 0.60601 0.0
C502 C 0.03771 0.92921 0.6105 0.0
H503 H 0.94838 0.95339 0.59167 0.0
H504 H 0.00784 0.98121 0.6061 0.0
S505 S 0.04106 0.82647 0.61171 0.0
N506 N -0.00253 0.83644 0.60203 0.0
N507 N 0.06221 0.86675 0.61673 0.0
C508 C 0.03358 0.89049 0.61075 0.0
C509 C -0.00155 0.87411 0.6029 0.0
C510 C 0.01295 0.43875 0.91612 0.0
C511 C 0.01137 0.40561 0.9364 0.0
C512 C 0.98102 0.45307 0.89914 0.0
C513 C 0.94672 0.43448 0.90178 0.0
H514 H 0.03823 0.45495 0.91554 0.0
H515 H 0.98277 0.47997 0.88591 0.0
S516 S 0.93057 0.34272 0.94549 0.0
N517 N 0.97462 0.35186 0.95368 0.0
N518 N 0.91481 0.37837 0.92151 0.0
C519 C 0.94589 0.39954 0.91902 0.0
C520 C 0.97821 0.38522 0.93647 0.0
C521 C 0.04746 0.10455 0.92922 0.0
C522 C 0.04564 0.07105 0.90944 0.0
C523 C 0.01546 0.12097 0.94351 0.0
C524 C 0.98042 0.10488 0.93804 0.0
H525 H 0.07395 0.11711 0.93568 0.0
H526 H 0.01836 0.14567 0.96036 0.0
S527 S 0.95987 0.02004 0.88418 0.0
N528 N 0.00541 0.02423 0.88203 0.0
N529 N 0.94508 0.05579 0.90867 0.0
C530 C 0.97771 0.07313 0.91585 0.0
C531 C 0.01044 0.05601 0.90159 0.0
C532 C 0.53588 0.96366 0.62177 0.0
C533 C 0.54615 -0.00163 0.60723 0.0
C534 C 0.54999 0.93073 0.60702 0.0
C535 C 0.57455 0.93129 0.57686 0.0
H536 H 0.51574 0.96181 0.64396 0.0
H537 H 0.54002 0.90468 0.61815 0.0
S538 S 0.61328 0.01517 0.53143 0.0
N539 N 0.58489 0.03159 0.56334 0.0
N540 N 0.61131 0.96957 0.53515 0.0
C541 C 0.58682 0.96589 0.56351 0.0
C542 C 0.57267 -0.00049 0.57884 0.0
C543 C 0.60176 0.02256 0.9463 0.0
C544 C 0.60723 0.0504 0.91954 0.0
C545 C 0.5948 0.98586 0.93592 0.0
C546 C 0.59332 0.97557 0.89841 0.0
H547 H 0.60026 0.02952 0.97544 0.0
H548 H 0.58774 0.96608 0.95739 0.0
S549 S 0.61468 0.03627 0.81814 0.0
N550 N 0.61701 0.06409 0.85437 0.0
N551 N 0.60469 0.9948 0.83478 0.0
C552 C 0.60313 0.00222 0.87162 0.0
C553 C 0.60976 0.03979 0.8822 0.0
C554 C 0.42187 0.49942 0.84335 0.0
C555 C 0.42566 0.53151 0.86521 0.0
C556 C 0.40661 0.46687 0.85805 0.0
C557 C 0.39453 0.46538 0.89505 0.0
H558 H 0.43377 0.4983 0.81583 0.0
H559 H 0.40712 0.44201 0.84123 0.0
S560 S 0.38924 0.54466 0.96034 0.0
N561 N 0.40937 0.5619 0.92306 0.0
N562 N 0.38051 0.50077 0.95068 0.0
C563 C 0.3938 0.49856 0.91553 0.0
C564 C 0.40938 0.53168 0.90057 0.0
C565 C 0.88927 0.0153 0.04975 0.0
C566 C 0.89236 0.04976 0.068 0.0
C567 C 0.90327 0.98271 0.06574 0.0
C568 C 0.92091 0.98379 0.10031 0.0
H569 H 0.87845 0.01385 0.02182 0.0
H570 H 0.90309 0.95734 0.04968 0.0
S571 S 0.92907 0.06488 0.16279 0.0
N572 N 0.90883 0.08139 0.12524 0.0
N573 N 0.93558 0.02027 0.15485 0.0
C574 C 0.92077 0.01712 0.12037 0.0
C575 C 0.90628 0.05014 0.10435 0.0
C576 C 0.94135 0.21774 0.34465 0.0
C577 C 0.97818 0.2051 0.34218 0.0
C578 C 0.93288 0.25563 0.34251 0.0
C579 C 0.96097 0.2823 0.33823 0.0
H580 H 0.91892 0.19833 0.34933 0.0
H581 H 0.90428 0.26413 0.34592 0.0
S582 S 0.0614 0.26358 0.32644 0.0
N583 N 0.04265 0.22221 0.33206 0.0
N584 N 0.02672 0.29336 0.32852 0.0
C585 C -0.00231 0.26996 0.33394 0.0
C586 C 0.0063 0.23138 0.33577 0.0
C587 C 0.0046 0.72772 0.1651 0.0
C588 C 0.96954 0.71075 0.16388 0.0
C589 C 0.0083 0.76634 0.16337 0.0
C590 C 0.97708 0.78951 0.1602 0.0
H591 H 0.02956 0.71104 0.1659 0.0
H592 H 0.03598 0.77795 0.16298 0.0
S593 S 0.8788 0.75926 0.16079 0.0
N594 N 0.90276 0.72032 0.16305 0.0
N595 N 0.90978 0.79292 0.15961 0.0
C596 C 0.94176 0.77308 0.16119 0.0
C597 C 0.93797 0.7337 0.16311 0.0
C598 C 0.3494 0.97537 0.22167 0.0
C599 C 0.35193 0.01172 0.2077 0.0
C600 C 0.34652 0.96863 0.25975 0.0
C601 C 0.34634 -0.00204 0.2854 0.0
H602 H 0.35052 0.95179 0.20313 0.0
H603 H 0.34575 0.94011 0.26916 0.0
S604 S 0.34914 0.09841 0.26302 0.0
N605 N 0.35155 0.07755 0.22241 0.0
N606 N 0.34643 0.06487 0.29403 0.0
C607 C 0.34733 0.03451 0.27176 0.0
C608 C 0.35004 0.04139 0.23291 0.0
C609 C 0.65016 0.51283 0.21066 0.0
C610 C 0.65323 0.47638 0.19718 0.0
C611 C 0.65502 0.52075 0.24818 0.0
C612 C 0.66311 0.49254 0.27378 0.0
H613 H 0.64296 0.53545 0.19227 0.0
H614 H 0.65107 0.5491 0.25731 0.0
S615 S 0.67789 0.393 0.25213 0.0
N616 N 0.66778 0.41215 0.21185 0.0
N617 N 0.67687 0.42705 0.28266 0.0
C618 C 0.66818 0.45621 0.26047 0.0
C619 C 0.66321 0.44812 0.22209 0.0
C620 C 0.25626 0.34692 0.94112 0.0
C621 C 0.2822 0.3394 0.96919 0.0
C622 C 0.21844 0.35042 0.94916 0.0
C623 C 0.20506 0.3463 0.98553 0.0
H624 H 0.26537 0.35189 0.91297 0.0
H625 H 0.19974 0.35758 0.92681 0.0
S626 S 0.26102 0.32162 0.06818 0.0
N627 N 0.29149 0.32447 0.03421 0.0
N628 N 0.22038 0.33079 0.0493 0.0
C629 C 0.23041 0.33653 0.01347 0.0
C630 C 0.26898 0.33313 0.0053 0.0
C631 C 0.22181 0.62946 0.45919 0.0
C632 C 0.20153 0.63572 0.49182 0.0
C633 C 0.26055 0.62792 0.45975 0.0
C634 C 0.28038 0.633 0.49288 0.0
H635 H 0.20766 0.62419 0.43327 0.0
H636 H 0.27497 0.62161 0.4342 0.0
S637 S 0.24027 0.65473 0.58503 0.0
N638 N 0.20403 0.65017 0.55753 0.0
N639 N 0.27692 0.64773 0.55857 0.0
C640 C 0.26049 0.64143 0.52531 0.0
C641 C 0.22101 0.64263 0.52479 0.0
C642 C 0.72321 0.82594 0.55023 0.0
C643 C 0.70395 0.81904 0.51707 0.0
C644 C 0.76184 0.82942 0.55061 0.0
C645 C 0.78266 0.82581 0.51791 0.0
H646 H 0.70828 0.83024 0.57589 0.0
H647 H 0.77532 0.8361 0.57657 0.0
S648 S 0.74577 0.80316 0.42461 0.0
N649 N 0.70871 0.80556 0.4513 0.0
N650 N 0.78139 0.81168 0.45198 0.0
C651 C 0.76391 0.81679 0.48493 0.0
C652 C 0.72452 0.81353 0.48452 0.0
C653 C 0.55264 0.76632 0.84137 0.0
C654 C 0.52031 0.78703 0.83485 0.0
C655 C 0.55293 0.72777 0.83705 0.0
C656 C 0.52083 0.70844 0.82626 0.0
H657 H 0.57763 0.77976 0.85115 0.0
H658 H 0.57812 0.71292 0.84385 0.0
S659 S 0.43028 0.75021 0.80122 0.0
N660 N 0.45631 0.78579 0.81347 0.0
N661 N 0.45684 0.7132 0.80566 0.0
C662 C 0.48892 0.729 0.8175 0.0
C663 C 0.48866 0.76834 0.82173 0.0
C664 C 0.48749 0.26556 0.65658 0.0
C665 C 0.52363 0.27954 0.65231 0.0
C666 C 0.48076 0.22737 0.65749 0.0
C667 C 0.50988 0.20172 0.654 0.0
H668 H 0.46399 0.2842 0.65804 0.0
H669 H 0.45232 0.21798 0.65965 0.0
S670 S 0.61002 0.22398 0.64626 0.0
N671 N 0.58927 0.26476 0.64763 0.0
N672 N 0.57658 0.19289 0.6492 0.0
C673 C 0.54636 0.21528 0.65158 0.0
C674 C 0.55324 0.25422 0.6508 0.0
C675 C 0.81109 0.47452 0.75749 0.0
C676 C 0.8166 0.5068 0.77864 0.0
C677 C 0.80737 0.47629 0.71896 0.0
C678 C 0.8089 0.51043 0.7002 0.0
H679 H 0.81149 0.44746 0.77052 0.0
H680 H 0.80526 0.45053 0.70367 0.0
S681 S 0.81649 0.6035 0.74352 0.0
N682 N 0.81879 0.57422 0.77858 0.0
N683 N 0.81157 0.57764 0.70614 0.0
C684 C 0.81139 0.54314 0.72132 0.0
C685 C 0.81536 0.5413 0.76056 0.0
C686 C 0.16906 0.96183 0.73348 0.0
C687 C 0.17042 0.99361 0.71087 0.0
C688 C 0.16882 0.96474 0.77217 0.0
C689 C 0.17013 -0.00047 0.78972 0.0
H690 H 0.16626 0.93453 0.72129 0.0
H691 H 0.16595 0.9396 0.78833 0.0
S692 S 0.17986 0.09083 0.74308 0.0
N693 N 0.17733 0.06064 0.70882 0.0
N694 N 0.17719 0.06618 0.78151 0.0
C695 C 0.17423 0.03134 0.76745 0.0
C696 C 0.17429 0.02836 0.72804 0.0
C697 C 0.77172 0.17192 0.94656 0.0
C698 C 0.78678 0.17846 0.98185 0.0
C699 C 0.73364 0.17541 0.94006 0.0
C700 C 0.7091 0.1855 0.96862 0.0
H701 H 0.7892 0.16247 0.92407 0.0
H702 H 0.72323 0.16832 0.91283 0.0
S703 S 0.73521 0.2112 0.06461 0.0
N704 N 0.77476 0.19969 0.0447 0.0
N705 N 0.7031 0.20611 0.03246 0.0
C706 C 0.72409 0.1947 0.00336 0.0
C707 C 0.76295 0.19119 0.00999 0.0
C708 C 0.97815 0.98226 0.23892 0.0
C709 C 0.01106 0.9672 0.22453 0.0
C710 C 0.97873 0.01286 0.26257 0.0
C711 C 0.01231 0.02939 0.27345 0.0
H712 H 0.95144 0.97088 0.23125 0.0
H713 H 0.95251 0.02306 0.27304 0.0
S714 S 0.10638 0.00057 0.24362 0.0
N715 N 0.07827 0.97139 0.22229 0.0
N716 N 0.07949 0.02844 0.26804 0.0
C717 C 0.04555 0.01461 0.25943 0.0
C718 C 0.0449 0.98365 0.23468 0.0
C719 C 0.89832 0.47713 0.25132 0.0
C720 C 0.92955 0.462 0.26903 0.0
C721 C 0.90145 0.50909 0.22912 0.0
C722 C 0.93556 0.52772 0.22526 0.0
H723 H 0.87152 0.46393 0.25424 0.0
H724 H 0.87708 0.51921 0.21482 0.0
S725 S 0.02501 0.5006 0.26836 0.0
N726 N 0.99534 0.46875 0.28227 0.0
N727 N 0.00085 0.52914 0.24209 0.0
C728 C 0.96664 0.51341 0.24391 0.0
C729 C 0.96372 0.48045 0.26538 0.0
C730 C 0.24483 -0.00322 0.98777 0.0
C731 C 0.23157 0.02858 0.96958 0.0
C732 C 0.26887 -0.00047 0.01793 0.0
C733 C 0.28125 0.03419 0.0308 0.0
H734 H 0.23604 0.96939 0.97911 0.0
H735 H 0.27855 0.97408 0.03061 0.0
S736 S 0.2548 0.12601 0.99277 0.0
N737 N 0.23198 0.09593 0.96687 0.0
N738 N 0.27848 0.10112 0.02304 0.0
C739 C 0.26833 0.06631 0.01287 0.0
C740 C 0.24315 0.0635 0.98242 0.0
C741 C 0.73801 0.4873 0.01917 0.0
C742 C 0.72525 0.45158 0.02828 0.0
C743 C 0.76113 0.49314 0.98887 0.0
C744 C 0.77339 0.46347 0.96696 0.0
H745 H 0.72871 0.51144 0.03443 0.0
H746 H 0.76937 0.52132 0.98254 0.0
S747 S 0.75074 0.36419 0.98056 0.0
N748 N 0.72774 0.38576 0.01377 0.0
N749 N 0.77318 0.39676 0.95743 0.0
C750 C 0.76253 0.42734 0.97662 0.0
C751 C 0.73795 0.4214 0.00713 0.0
C752 C 0.25663 0.99237 0.47698 0.0
C753 C 0.26733 0.95864 0.46066 0.0
C754 C 0.23561 0.99315 0.50939 0.0
C755 C 0.2235 0.96028 0.52645 0.0
H756 H 0.26568 0.0186 0.46546 0.0
H757 H 0.22827 0.01996 0.52078 0.0
S758 S 0.24242 0.86462 0.49402 0.0
N759 N 0.26397 0.89137 0.46371 0.0
N760 N 0.22249 0.89294 0.524 0.0
C761 C 0.23297 0.92628 0.50996 0.0
C762 C 0.25537 0.92543 0.47725 0.0
C763 C 0.74335 0.57514 0.50843 0.0
C764 C 0.78012 0.56316 0.50392 0.0
C765 C 0.71906 0.57674 0.47824 0.0
C766 C 0.73053 0.56556 0.44269 0.0
H767 H 0.73252 0.58077 0.53584 0.0
H768 H 0.69025 0.58327 0.48363 0.0
S769 S 0.82571 0.53864 0.41506 0.0
N770 N 0.82841 0.54566 0.46015 0.0
N771 N 0.78232 0.54764 0.40365 0.0
C772 C 0.76814 0.55731 0.43715 0.0
C773 C 0.79309 0.55633 0.46778 0.0
C774 C 0.01426 0.26782 0.98796 0.0
C775 C 0.02918 0.28028 0.02169 0.0
C776 C 0.98275 0.24545 0.98701 0.0
C777 C 0.96513 0.2339 0.01975 0.0
H778 H 0.02634 0.27626 0.96182 0.0
H779 H 0.97259 0.2366 0.9602 0.0
S780 S 0.99349 0.25809 0.11543 0.0
N781 N 0.02397 0.27953 0.08882 0.0
N782 N 0.96517 0.23602 0.08704 0.0
C783 C 0.97995 0.24561 0.0538 0.0
C784 C 0.01186 0.26913 0.05476 0.0
C785 C 0.01138 0.73462 0.45728 0.0
C786 C 0.02687 0.71729 0.48854 0.0
C787 C 0.98309 0.76116 0.46109 0.0
C788 C 0.96856 0.77002 0.49615 0.0
H789 H 0.02113 0.72757 0.4298 0.0
H790 H 0.97204 0.77426 0.43646 0.0
S791 S -0.00092 0.73165 0.58652 0.0
N792 N 0.02568 0.71102 0.55564 0.0
N793 N 0.97188 0.75952 0.5626 0.0
C794 C 0.98375 0.7527 0.52751 0.0
C795 C 0.0131 0.72667 0.52375 0.0
C796 C 0.51974 0.72376 0.49256 0.0
C797 C 0.532 0.73664 0.52718 0.0
C798 C 0.4898 0.69951 0.48972 0.0
C799 C 0.47148 0.68631 0.52138 0.0
H800 H 0.53221 0.73378 0.46716 0.0
H801 H 0.4809 0.6911 0.46234 0.0
S802 S 0.49422 0.70935 0.61871 0.0
N803 N 0.52428 0.73354 0.59401 0.0
N804 N 0.4687 0.68615 0.58859 0.0
C805 C 0.48433 0.69752 0.55632 0.0
C806 C 0.5144 0.72318 0.55923 0.0
C807 C 0.5594 0.53093 0.72646 0.0
C808 C 0.55962 0.52124 0.76413 0.0
C809 C 0.5629 0.50387 0.6989 0.0
C810 C 0.56632 0.46605 0.708 0.0
H811 H 0.55481 0.55941 0.71809 0.0
H812 H 0.56068 0.51253 0.67026 0.0
S813 S 0.57365 0.42668 0.80257 0.0
N814 N 0.56785 0.4716 0.80919 0.0
N815 N 0.57383 0.42074 0.75726 0.0
C816 C 0.56922 0.45626 0.74552 0.0
C817 C 0.56603 0.48387 0.77364 0.0
C818 C 0.51789 -0.0016 0.7786 0.0
C819 C 0.487 0.97863 0.79145 0.0
C820 C 0.51391 0.0283 0.75456 0.0
C821 C 0.47885 0.03899 0.74131 0.0
H822 H 0.5456 0.99042 0.78682 0.0
H823 H 0.53891 0.04171 0.74473 0.0
S824 S 0.38874 -0.00218 0.76888 0.0
N825 N 0.41989 0.9734 0.79194 0.0
N826 N 0.41224 0.02888 0.74474 0.0
C827 C 0.44742 0.02039 0.75506 0.0
C828 C 0.45153 0.99034 0.7806 0.0
C829 C 0.46803 0.25658 0.89712 0.0
C830 C 0.47419 0.29451 0.90372 0.0
C831 C 0.49732 0.23102 0.89833 0.0
C832 C 0.53361 0.24244 0.90698 0.0
H833 H 0.44012 0.24626 0.89319 0.0
H834 H 0.49089 0.20181 0.89548 0.0
S835 S 0.56543 0.33909 0.92101 0.0
N836 N 0.52032 0.34274 0.91433 0.0
N837 N 0.57491 0.29442 0.9178 0.0
C838 C 0.54063 0.28051 0.91067 0.0
C839 C 0.51101 0.30665 0.90869 0.0
loop_
_geom_bond_atom_site_label_1
_geom_bond_atom_site_label_2
_geom_bond_distance
_geom_bond_site_symmetry_2
_ccdc_geom_bond_type
In0 O1 2.294 . S
In0 O2 2.326 1_455 S
In0 O6 2.266 . S
In0 O7 2.325 . S
In0 O8 2.266 1_455 S
In0 O9 2.326 1_455 S
In0 O11 2.294 1_455 S
In0 O12 2.326 . S
O1 In0 2.294 . S
O1 C10 1.240 1_455 S
O2 In0 2.326 1_655 S
O2 C10 1.252 . S
C3 O6 1.252 . S
C3 O7 1.260 . S
C4 O11 1.240 . S
C4 O12 1.252 1_655 S
C5 O8 1.252 . S
C5 O9 1.260 . S
O6 In0 2.266 . S
O6 C3 1.252 . S
O7 In0 2.325 . S
O7 C3 1.260 . S
O8 In0 2.266 1_655 S
O8 C5 1.252 . S
O9 In0 2.326 1_655 S
O9 C5 1.260 . S
C10 O1 1.240 1_655 S
C10 O2 1.252 . S
O11 In0 2.294 1_655 S
O11 C4 1.240 . S
O12 In0 2.326 . S
O12 C4 1.252 1_455 S
In13 O14 2.294 1_655 S
In13 O15 2.326 . S
In13 O19 2.266 1_655 S
In13 O20 2.326 1_655 S
In13 O21 2.266 . S
In13 O22 2.325 . S
In13 O24 2.294 . S
In13 O25 2.326 1_655 S
O14 In13 2.294 1_455 S
O14 C23 1.240 . S
O15 In13 2.326 . S
O15 C23 1.252 1_655 S
C16 O19 1.252 . S
C16 O20 1.260 . S
C17 O24 1.225 1_455 S
C17 O25 1.267 . S
C18 O21 1.252 . S
C18 O22 1.260 . S
O19 In13 2.266 1_455 S
O19 C16 1.252 . S
O20 In13 2.326 1_455 S
O20 C16 1.260 . S
O21 In13 2.266 . S
O21 C18 1.252 . S
O22 In13 2.325 . S
O22 C18 1.260 . S
C23 O14 1.240 . S
C23 O15 1.252 1_455 S
O24 In13 2.294 . S
O24 C17 1.225 1_655 S
O25 In13 2.326 1_455 S
O25 C17 1.267 . S
In26 O27 2.294 1_455 S
In26 O28 2.326 . S
In26 O32 2.266 1_455 S
In26 O33 2.326 1_455 S
In26 O34 2.266 . S
In26 O35 2.325 . S
In26 O37 2.294 . S
In26 O38 2.326 1_455 S
O27 In26 2.294 1_655 S
O27 C36 1.240 . S
O28 In26 2.326 . S
O28 C36 1.252 1_455 S
C29 O32 1.252 . S
C29 O33 1.260 . S
C30 O37 1.255 . S
C30 O38 1.237 1_455 S
C31 O34 1.252 . S
C31 O35 1.260 . S
O32 In26 2.266 1_655 S
O32 C29 1.252 . S
O33 In26 2.326 1_655 S
O33 C29 1.260 . S
O34 In26 2.266 . S
O34 C31 1.252 . S
O35 In26 2.325 . S
O35 C31 1.260 . S
C36 O27 1.240 . S
C36 O28 1.252 1_655 S
O37 In26 2.294 . S
O37 C30 1.255 . S
O38 In26 2.326 1_655 S
O38 C30 1.237 1_655 S
In39 O40 2.294 . S
In39 O41 2.326 1_655 S
In39 O45 2.266 . S
In39 O46 2.325 . S
In39 O47 2.266 1_655 S
In39 O48 2.326 1_655 S
In39 O50 2.294 1_655 S
In39 O51 2.326 . S
O40 In39 2.294 . S
O40 C49 1.240 . S
O41 In39 2.326 1_455 S
O41 C49 1.252 1_455 S
C42 O45 1.252 . S
C42 O46 1.260 . S
C43 O50 1.240 . S
C43 O51 1.252 1_455 S
C44 O47 1.252 . S
C44 O48 1.260 . S
O45 In39 2.266 . S
O45 C42 1.252 . S
O46 In39 2.325 . S
O46 C42 1.260 . S
O47 In39 2.266 1_455 S
O47 C44 1.252 . S
O48 In39 2.326 1_455 S
O48 C44 1.260 . S
C49 O40 1.240 . S
C49 O41 1.252 1_655 S
O50 In39 2.294 1_455 S
O50 C43 1.240 . S
O51 In39 2.326 . S
O51 C43 1.252 1_655 S
In52 O53 2.294 1_545 S
In52 O54 2.326 . S
In52 O58 2.266 1_545 S
In52 O59 2.326 1_545 S
In52 O60 2.266 . S
In52 O61 2.325 . S
In52 O63 2.294 . S
In52 O64 2.326 1_545 S
O53 In52 2.294 1_565 S
O53 C62 1.240 . S
O54 In52 2.326 . S
O54 C62 1.252 1_545 S
C55 O58 1.252 . S
C55 O59 1.260 . S
C56 O63 1.240 1_565 S
C56 O64 1.252 . S
C57 O60 1.252 . S
C57 O61 1.260 . S
O58 In52 2.266 1_565 S
O58 C55 1.252 . S
O59 In52 2.326 1_565 S
O59 C55 1.260 . S
O60 In52 2.266 . S
O60 C57 1.252 . S
O61 In52 2.325 . S
O61 C57 1.260 . S
C62 O53 1.240 . S
C62 O54 1.252 1_565 S
O63 In52 2.294 . S
O63 C56 1.240 1_545 S
O64 In52 2.326 1_565 S
O64 C56 1.252 . S
In65 O66 2.294 . S
In65 O67 2.326 . S
In65 O71 2.266 . S
In65 O72 2.326 . S
In65 O73 2.266 . S
In65 O74 2.326 . S
In65 O76 2.294 . S
In65 O77 2.326 . S
O66 In65 2.294 . S
O66 C75 1.240 . S
O67 In65 2.326 . S
O67 C75 1.252 . S
C68 O71 1.252 . S
C68 O72 1.260 . S
C69 O76 1.240 . S
C69 O77 1.252 . S
C70 O73 1.252 . S
C70 O74 1.260 . S
O71 In65 2.266 . S
O71 C68 1.252 . S
O72 In65 2.326 . S
O72 C68 1.260 . S
O73 In65 2.266 . S
O73 C70 1.252 . S
O74 In65 2.326 . S
O74 C70 1.260 . S
C75 O66 1.240 . S
C75 O67 1.252 . S
O76 In65 2.294 . S
O76 C69 1.240 . S
O77 In65 2.326 . S
O77 C69 1.252 . S
In78 O79 2.294 1_565 S
In78 O80 2.326 . S
In78 O84 2.266 1_565 S
In78 O85 2.326 1_565 S
In78 O86 2.266 . S
In78 O87 2.325 . S
In78 O89 2.294 . S
In78 O90 2.326 1_565 S
O79 In78 2.294 1_545 S
O79 C88 1.240 . S
O80 In78 2.326 . S
O80 C88 1.252 1_565 S
C81 O84 1.252 . S
C81 O85 1.260 . S
C82 O89 1.225 1_545 S
C82 O90 1.268 . S
C83 O86 1.252 . S
C83 O87 1.260 . S
O84 In78 2.266 1_545 S
O84 C81 1.252 . S
O85 In78 2.326 1_545 S
O85 C81 1.260 . S
O86 In78 2.266 . S
O86 C83 1.252 . S
O87 In78 2.325 . S
O87 C83 1.260 . S
C88 O79 1.240 . S
C88 O80 1.252 1_545 S
O89 In78 2.294 . S
O89 C82 1.225 1_565 S
O90 In78 2.326 1_545 S
O90 C82 1.268 . S
In91 O92 2.294 . S
In91 O93 2.326 . S
In91 O97 2.266 . S
In91 O98 2.326 . S
In91 O99 2.266 . S
In91 O100 2.326 . S
In91 O102 2.294 . S
In91 O103 2.326 . S
O92 In91 2.294 . S
O92 C101 1.240 . S
O93 In91 2.326 . S
O93 C101 1.252 . S
C94 O97 1.252 . S
C94 O98 1.260 . S
C95 O102 1.240 . S
C95 O103 1.252 . S
C96 O99 1.252 . S
C96 O100 1.260 . S
O97 In91 2.266 . S
O97 C94 1.252 . S
O98 In91 2.326 . S
O98 C94 1.260 . S
O99 In91 2.266 . S
O99 C96 1.252 . S
O100 In91 2.326 . S
O100 C96 1.260 . S
C101 O92 1.240 . S
C101 O93 1.252 . S
O102 In91 2.294 . S
O102 C95 1.240 . S
O103 In91 2.326 . S
O103 C95 1.252 . S
In104 O105 2.294 . S
In104 O106 2.326 1_554 S
In104 O110 2.266 . S
In104 O111 2.325 . S
In104 O112 2.266 1_554 S
In104 O113 2.326 1_554 S
In104 O115 2.294 1_554 S
In104 O116 2.326 . S
O105 In104 2.294 . S
O105 C114 1.240 1_554 S
O106 In104 2.326 1_556 S
O106 C114 1.252 . S
C107 O110 1.252 . S
C107 O111 1.260 . S
C108 O115 1.240 . S
C108 O116 1.252 1_556 S
C109 O112 1.252 . S
C109 O113 1.260 . S
O110 In104 2.266 . S
O110 C107 1.252 . S
O111 In104 2.325 . S
O111 C107 1.260 . S
O112 In104 2.266 1_556 S
O112 C109 1.252 . S
O113 In104 2.326 1_556 S
O113 C109 1.260 . S
C114 O105 1.240 1_556 S
C114 O106 1.252 . S
O115 In104 2.294 1_556 S
O115 C108 1.240 . S
O116 In104 2.326 . S
O116 C108 1.252 1_554 S
In117 O118 2.294 . S
In117 O119 2.326 . S
In117 O123 2.266 . S
In117 O124 2.326 . S
In117 O125 2.266 . S
In117 O126 2.326 . S
In117 O128 2.294 . S
In117 O129 2.326 . S
O118 In117 2.294 . S
O118 C127 1.240 . S
O119 In117 2.326 . S
O119 C127 1.252 . S
C120 O123 1.252 . S
C120 O124 1.260 . S
C121 O128 1.240 . S
C121 O129 1.252 . S
C122 O125 1.252 . S
C122 O126 1.260 . S
O123 In117 2.266 . S
O123 C120 1.252 . S
O124 In117 2.326 . S
O124 C120 1.260 . S
O125 In117 2.266 . S
O125 C122 1.252 . S
O126 In117 2.326 . S
O126 C122 1.260 . S
C127 O118 1.240 . S
C127 O119 1.252 . S
O128 In117 2.294 . S
O128 C121 1.240 . S
O129 In117 2.326 . S
O129 C121 1.252 . S
In130 O131 2.294 . S
In130 O132 2.326 . S
In130 O136 2.266 . S
In130 O137 2.326 . S
In130 O138 2.266 . S
In130 O139 2.326 . S
In130 O141 2.294 . S
In130 O142 2.326 . S
O131 In130 2.294 . S
O131 C140 1.240 . S
O132 In130 2.326 . S
O132 C140 1.252 . S
C133 O136 1.252 . S
C133 O137 1.260 . S
C134 O141 1.240 . S
C134 O142 1.252 . S
C135 O138 1.252 . S
C135 O139 1.260 . S
O136 In130 2.266 . S
O136 C133 1.252 . S
O137 In130 2.326 . S
O137 C133 1.260 . S
O138 In130 2.266 . S
O138 C135 1.252 . S
O139 In130 2.326 . S
O139 C135 1.260 . S
C140 O131 1.240 . S
C140 O132 1.252 . S
O141 In130 2.294 . S
O141 C134 1.240 . S
O142 In130 2.326 . S
O142 C134 1.252 . S
In143 O144 2.294 . S
In143 O145 2.326 . S
In143 O149 2.266 . S
In143 O150 2.326 . S
In143 O151 2.266 . S
In143 O152 2.326 . S
In143 O154 2.294 . S
In143 O155 2.326 . S
O144 In143 2.294 . S
O144 C153 1.240 . S
O145 In143 2.326 . S
O145 C153 1.252 . S
C146 O149 1.252 . S
C146 O150 1.260 . S
C147 O154 1.240 . S
C147 O155 1.252 . S
C148 O151 1.252 . S
C148 O152 1.260 . S
O149 In143 2.266 . S
O149 C146 1.252 . S
O150 In143 2.326 . S
O150 C146 1.260 . S
O151 In143 2.266 . S
O151 C148 1.252 . S
O152 In143 2.326 . S
O152 C148 1.260 . S
C153 O144 1.240 . S
C153 O145 1.252 . S
O154 In143 2.294 . S
O154 C147 1.240 . S
O155 In143 2.326 . S
O155 C147 1.252 . S
In156 O157 2.294 . S
In156 O158 2.326 . S
In156 O162 2.266 . S
In156 O163 2.326 . S
In156 O164 2.266 . S
In156 O165 2.326 . S
In156 O167 2.294 . S
In156 O168 2.326 . S
O157 In156 2.294 . S
O157 C166 1.240 . S
O158 In156 2.326 . S
O158 C166 1.252 . S
C159 O162 1.252 . S
C159 O163 1.260 . S
C160 O167 1.240 . S
C160 O168 1.252 . S
C161 O164 1.252 . S
C161 O165 1.260 . S
O162 In156 2.266 . S
O162 C159 1.252 . S
O163 In156 2.326 . S
O163 C159 1.260 . S
O164 In156 2.266 . S
O164 C161 1.252 . S
O165 In156 2.326 . S
O165 C161 1.260 . S
C166 O157 1.240 . S
C166 O158 1.252 . S
O167 In156 2.294 . S
O167 C160 1.240 . S
O168 In156 2.326 . S
O168 C160 1.252 . S
In169 O170 2.294 . S
In169 O171 2.326 . S
In169 O175 2.266 . S
In169 O176 2.326 . S
In169 O177 2.266 . S
In169 O178 2.326 . S
In169 O180 2.294 . S
In169 O181 2.326 . S
O170 In169 2.294 . S
O170 C179 1.240 . S
O171 In169 2.326 . S
O171 C179 1.252 . S
C172 O175 1.252 . S
C172 O176 1.260 . S
C173 O180 1.240 . S
C173 O181 1.252 . S
C174 O177 1.252 . S
C174 O178 1.260 . S
O175 In169 2.266 . S
O175 C172 1.252 . S
O176 In169 2.326 . S
O176 C172 1.260 . S
O177 In169 2.266 . S
O177 C174 1.252 . S
O178 In169 2.326 . S
O178 C174 1.260 . S
C179 O170 1.240 . S
C179 O171 1.252 . S
O180 In169 2.294 . S
O180 C173 1.240 . S
O181 In169 2.326 . S
O181 C173 1.252 . S
In182 O183 2.294 . S
In182 O184 2.326 . S
In182 O188 2.266 . S
In182 O189 2.326 . S
In182 O190 2.266 . S
In182 O191 2.326 . S
In182 O193 2.294 . S
In182 O194 2.326 . S
O183 In182 2.294 . S
O183 C192 1.240 . S
O184 In182 2.326 . S
O184 C192 1.252 . S
C185 O188 1.252 . S
C185 O189 1.260 . S
C186 O193 1.240 . S
C186 O194 1.252 . S
C187 O190 1.252 . S
C187 O191 1.260 . S
O188 In182 2.266 . S
O188 C185 1.252 . S
O189 In182 2.326 . S
O189 C185 1.260 . S
O190 In182 2.266 . S
O190 C187 1.252 . S
O191 In182 2.326 . S
O191 C187 1.260 . S
C192 O183 1.240 . S
C192 O184 1.252 . S
O193 In182 2.294 . S
O193 C186 1.240 . S
O194 In182 2.326 . S
O194 C186 1.252 . S
In195 O196 2.294 . S
In195 O197 2.326 . S
In195 O201 2.266 . S
In195 O202 2.326 . S
In195 O203 2.266 . S
In195 O204 2.326 . S
In195 O206 2.294 . S
In195 O207 2.326 . S
O196 In195 2.294 . S
O196 C205 1.240 . S
O197 In195 2.326 . S
O197 C205 1.252 . S
C198 O201 1.252 . S
C198 O202 1.260 . S
C199 O206 1.240 . S
C199 O207 1.252 . S
C200 O203 1.252 . S
C200 O204 1.260 . S
O201 In195 2.266 . S
O201 C198 1.252 . S
O202 In195 2.326 . S
O202 C198 1.260 . S
O203 In195 2.266 . S
O203 C200 1.252 . S
O204 In195 2.326 . S
O204 C200 1.260 . S
C205 O196 1.240 . S
C205 O197 1.252 . S
O206 In195 2.294 . S
O206 C199 1.240 . S
O207 In195 2.326 . S
O207 C199 1.252 . S
In208 O209 2.294 . S
In208 O210 2.326 . S
In208 O214 2.266 . S
In208 O215 2.326 . S
In208 O216 2.266 . S
In208 O217 2.326 . S
In208 O219 2.294 . S
In208 O220 2.326 . S
O209 In208 2.294 . S
O209 C218 1.240 . S
O210 In208 2.326 . S
O210 C218 1.252 . S
C211 O214 1.252 . S
C211 O215 1.260 . S
C212 O219 1.240 . S
C212 O220 1.252 . S
C213 O216 1.252 . S
C213 O217 1.260 . S
O214 In208 2.266 . S
O214 C211 1.252 . S
O215 In208 2.326 . S
O215 C211 1.260 . S
O216 In208 2.266 . S
O216 C213 1.252 . S
O217 In208 2.326 . S
O217 C213 1.260 . S
C218 O209 1.240 . S
C218 O210 1.252 . S
O219 In208 2.294 . S
O219 C212 1.240 . S
O220 In208 2.326 . S
O220 C212 1.252 . S
In221 O222 2.294 1_565 S
In221 O223 2.326 . S
In221 O227 2.266 1_565 S
In221 O228 2.326 1_565 S
In221 O229 2.266 . S
In221 O230 2.325 . S
In221 O232 2.294 . S
In221 O233 2.326 1_565 S
O222 In221 2.294 1_545 S
O222 C231 1.240 . S
O223 In221 2.326 . S
O223 C231 1.252 1_565 S
C224 O227 1.252 . S
C224 O228 1.260 . S
C225 O232 1.240 . S
C225 O233 1.252 1_565 S
C226 O229 1.252 . S
C226 O230 1.260 . S
O227 In221 2.266 1_545 S
O227 C224 1.252 . S
O228 In221 2.326 1_545 S
O228 C224 1.260 . S
O229 In221 2.266 . S
O229 C226 1.252 . S
O230 In221 2.325 . S
O230 C226 1.260 . S
C231 O222 1.240 . S
C231 O223 1.252 1_545 S
O232 In221 2.294 . S
O232 C225 1.240 . S
O233 In221 2.326 1_545 S
O233 C225 1.252 1_545 S
In234 O235 2.294 . S
In234 O236 2.326 . S
In234 O240 2.266 . S
In234 O241 2.326 . S
In234 O242 2.266 . S
In234 O243 2.326 . S
In234 O245 2.294 . S
In234 O246 2.326 . S
O235 In234 2.294 . S
O235 C244 1.240 . S
O236 In234 2.326 . S
O236 C244 1.252 . S
C237 O240 1.252 . S
C237 O241 1.260 . S
C238 O245 1.240 . S
C238 O246 1.252 . S
C239 O242 1.252 . S
C239 O243 1.260 . S
O240 In234 2.266 . S
O240 C237 1.252 . S
O241 In234 2.326 . S
O241 C237 1.260 . S
O242 In234 2.266 . S
O242 C239 1.252 . S
O243 In234 2.326 . S
O243 C239 1.260 . S
C244 O235 1.240 . S
C244 O236 1.252 . S
O245 In234 2.294 . S
O245 C238 1.240 . S
O246 In234 2.326 . S
O246 C238 1.252 . S
In247 O248 2.294 . S
In247 O249 2.326 1_545 S
In247 O253 2.266 . S
In247 O254 2.325 . S
In247 O255 2.266 1_545 S
In247 O256 2.326 1_545 S
In247 O258 2.294 1_545 S
In247 O259 2.326 . S
O248 In247 2.294 . S
O248 C257 1.255 . S
O249 In247 2.326 1_565 S
O249 C257 1.237 1_565 S
C250 O253 1.252 . S
C250 O254 1.260 . S
C251 O258 1.240 . S
C251 O259 1.252 1_565 S
C252 O255 1.252 . S
C252 O256 1.260 . S
O253 In247 2.266 . S
O253 C250 1.252 . S
O254 In247 2.325 . S
O254 C250 1.260 . S
O255 In247 2.266 1_565 S
O255 C252 1.252 . S
O256 In247 2.326 1_565 S
O256 C252 1.260 . S
C257 O248 1.255 . S
C257 O249 1.237 1_545 S
O258 In247 2.294 1_565 S
O258 C251 1.240 . S
O259 In247 2.326 . S
O259 C251 1.252 1_545 S
In260 O261 2.294 . S
In260 O262 2.326 . S
In260 O266 2.266 . S
In260 O267 2.326 . S
In260 O268 2.266 . S
In260 O269 2.326 . S
In260 O271 2.294 . S
In260 O272 2.326 . S
O261 In260 2.294 . S
O261 C270 1.240 . S
O262 In260 2.326 . S
O262 C270 1.252 . S
C263 O266 1.252 . S
C263 O267 1.260 . S
C264 O271 1.240 . S
C264 O272 1.252 . S
C265 O268 1.252 . S
C265 O269 1.260 . S
O266 In260 2.266 . S
O266 C263 1.252 . S
O267 In260 2.326 . S
O267 C263 1.260 . S
O268 In260 2.266 . S
O268 C265 1.252 . S
O269 In260 2.326 . S
O269 C265 1.260 . S
C270 O261 1.240 . S
C270 O262 1.252 . S
O271 In260 2.294 . S
O271 C264 1.240 . S
O272 In260 2.326 . S
O272 C264 1.252 . S
In273 O274 2.294 . S
In273 O275 2.326 1_556 S
In273 O279 2.266 . S
In273 O280 2.325 . S
In273 O281 2.266 1_556 S
In273 O282 2.326 1_556 S
In273 O284 2.294 1_556 S
In273 O285 2.326 . S
O274 In273 2.294 . S
O274 C283 1.240 . S
O275 In273 2.326 1_554 S
O275 C283 1.252 1_554 S
C276 O279 1.252 . S
C276 O280 1.260 . S
C277 O284 1.240 . S
C277 O285 1.252 1_554 S
C278 O281 1.252 . S
C278 O282 1.260 . S
O279 In273 2.266 . S
O279 C276 1.252 . S
O280 In273 2.325 . S
O280 C276 1.260 . S
O281 In273 2.266 1_554 S
O281 C278 1.252 . S
O282 In273 2.326 1_554 S
O282 C278 1.260 . S
C283 O274 1.240 . S
C283 O275 1.252 1_556 S
O284 In273 2.294 1_554 S
O284 C277 1.240 . S
O285 In273 2.326 . S
O285 C277 1.252 1_556 S
In286 O287 2.294 . S
In286 O288 2.326 1_556 S
In286 O292 2.266 . S
In286 O293 2.325 . S
In286 O294 2.266 1_556 S
In286 O295 2.326 1_556 S
In286 O297 2.294 1_556 S
In286 O298 2.326 . S
O287 In286 2.294 . S
O287 C296 1.225 1_556 S
O288 In286 2.326 1_554 S
O288 C296 1.267 . S
C289 O292 1.252 . S
C289 O293 1.260 . S
C290 O297 1.240 . S
C290 O298 1.252 1_554 S
C291 O294 1.252 . S
C291 O295 1.260 . S
O292 In286 2.266 . S
O292 C289 1.252 . S
O293 In286 2.325 . S
O293 C289 1.260 . S
O294 In286 2.266 1_554 S
O294 C291 1.252 . S
O295 In286 2.326 1_554 S
O295 C291 1.260 . S
C296 O287 1.225 1_554 S
C296 O288 1.267 . S
O297 In286 2.294 1_554 S
O297 C290 1.240 . S
O298 In286 2.326 . S
O298 C290 1.252 1_556 S
In299 O300 2.294 1_554 S
In299 O301 2.326 . S
In299 O305 2.266 1_554 S
In299 O306 2.326 1_554 S
In299 O307 2.266 . S
In299 O308 2.325 . S
In299 O310 2.294 . S
In299 O311 2.326 1_554 S
O300 In299 2.294 1_556 S
O300 C309 1.240 . S
O301 In299 2.326 . S
O301 C309 1.252 1_554 S
C302 O305 1.252 . S
C302 O306 1.260 . S
C303 O310 1.255 . S
C303 O311 1.237 1_554 S
C304 O307 1.252 . S
C304 O308 1.260 . S
O305 In299 2.266 1_556 S
O305 C302 1.252 . S
O306 In299 2.326 1_556 S
O306 C302 1.260 . S
O307 In299 2.266 . S
O307 C304 1.252 . S
O308 In299 2.325 . S
O308 C304 1.260 . S
C309 O300 1.240 . S
C309 O301 1.252 1_556 S
O310 In299 2.294 . S
O310 C303 1.255 . S
O311 In299 2.326 1_556 S
O311 C303 1.237 1_556 S
C312 C313 1.369 . S
C312 C314 1.419 . S
C312 H316 0.930 . S
C313 C312 1.369 . S
C313 C322 1.429 . S
C314 C312 1.419 . S
C314 C315 1.363 . S
C314 H317 0.929 . S
C315 C314 1.363 . S
C315 C321 1.428 . S
H316 C312 0.930 . S
H317 C314 0.929 . S
S318 N319 1.613 . S
S318 N320 1.610 . S
N319 S318 1.613 . S
N319 C322 1.350 . S
N320 S318 1.610 . S
N320 C321 1.351 . S
C321 C315 1.428 . S
C321 N320 1.351 . S
C321 C322 1.434 . S
C322 C313 1.429 . S
C322 N319 1.350 . S
C322 C321 1.434 . S
C323 C324 1.369 . S
C323 C325 1.419 . S
C323 H327 0.930 . S
C324 C323 1.369 . S
C324 C333 1.429 . S
C325 C323 1.419 . S
C325 C326 1.363 . S
C325 H328 0.929 . S
C326 C325 1.363 . S
C326 C332 1.428 . S
H327 C323 0.930 . S
H328 C325 0.929 . S
S329 N330 1.613 . S
S329 N331 1.610 . S
N330 S329 1.613 . S
N330 C333 1.350 . S
N331 S329 1.610 . S
N331 C332 1.351 . S
C332 C326 1.428 . S
C332 N331 1.351 . S
C332 C333 1.434 . S
C333 C324 1.429 . S
C333 N330 1.350 . S
C333 C332 1.434 . S
C334 C335 1.369 . S
C334 C336 1.419 . S
C334 H338 0.930 . S
C335 C334 1.369 . S
C335 C344 1.429 . S
C336 C334 1.419 . S
C336 C337 1.363 1_554 S
C336 H339 0.929 . S
C337 C336 1.363 1_556 S
C337 C343 1.428 . S
H338 C334 0.930 . S
H339 C336 0.929 . S
S340 N341 1.613 1_656 S
S340 N342 1.610 1_655 S
N341 S340 1.613 1_454 S
N341 C344 1.350 . S
N342 S340 1.610 1_455 S
N342 C343 1.351 . S
C343 C337 1.428 . S
C343 N342 1.351 . S
C343 C344 1.434 1_556 S
C344 C335 1.429 . S
C344 N341 1.350 . S
C344 C343 1.434 1_554 S
C345 C346 1.369 . S
C345 C347 1.402 1_554 S
C345 H349 0.930 . S
C346 C345 1.369 . S
C346 C355 1.429 . S
C347 C345 1.402 1_556 S
C347 C348 1.370 . S
C347 H350 0.939 . S
C348 C347 1.370 . S
C348 C354 1.428 1_556 S
H349 C345 0.930 . S
H350 C347 0.939 . S
S351 N352 1.613 . S
S351 N353 1.610 . S
N352 S351 1.613 . S
N352 C355 1.350 . S
N353 S351 1.610 . S
N353 C354 1.351 . S
C354 C348 1.428 1_554 S
C354 N353 1.351 . S
C354 C355 1.434 . S
C355 C346 1.429 . S
C355 N352 1.350 . S
C355 C354 1.434 . S
C356 C357 1.369 . S
C356 C358 1.419 . S
C356 H360 0.930 . S
C357 C356 1.369 . S
C357 C366 1.429 . S
C358 C356 1.419 . S
C358 C359 1.363 . S
C358 H361 0.929 . S
C359 C358 1.363 . S
C359 C365 1.428 . S
H360 C356 0.930 . S
H361 C358 0.929 . S
S362 N363 1.613 . S
S362 N364 1.610 . S
N363 S362 1.613 . S
N363 C366 1.350 . S
N364 S362 1.610 . S
N364 C365 1.351 . S
C365 C359 1.428 . S
C365 N364 1.351 . S
C365 C366 1.434 . S
C366 C357 1.429 . S
C366 N363 1.350 . S
C366 C365 1.434 . S
C367 C368 1.369 . S
C367 C369 1.419 . S
C367 H371 0.930 . S
C368 C367 1.369 . S
C368 C377 1.429 . S
C369 C367 1.419 . S
C369 C370 1.363 . S
C369 H372 0.929 . S
C370 C369 1.363 . S
C370 C376 1.428 . S
H371 C367 0.930 . S
H372 C369 0.929 . S
S373 N374 1.613 . S
S373 N375 1.610 . S
N374 S373 1.613 . S
N374 C377 1.350 . S
N375 S373 1.610 . S
N375 C376 1.351 . S
C376 C370 1.428 . S
C376 N375 1.351 . S
C376 C377 1.434 . S
C377 C368 1.429 . S
C377 N374 1.350 . S
C377 C376 1.434 . S
C378 C379 1.369 . S
C378 C380 1.419 . S
C378 H382 0.930 . S
C379 C378 1.369 . S
C379 C388 1.429 . S
C380 C378 1.419 . S
C380 C381 1.363 . S
C380 H383 0.929 . S
C381 C380 1.363 . S
C381 C387 1.428 . S
H382 C378 0.930 . S
H383 C380 0.929 . S
S384 N385 1.613 . S
S384 N386 1.610 . S
N385 S384 1.613 . S
N385 C388 1.350 . S
N386 S384 1.610 . S
N386 C387 1.351 . S
C387 C381 1.428 . S
C387 N386 1.351 . S
C387 C388 1.434 . S
C388 C379 1.429 . S
C388 N385 1.350 . S
C388 C387 1.434 . S
C389 C390 1.369 . S
C389 C391 1.419 . S
C389 H393 0.930 . S
C390 C389 1.369 . S
C390 C399 1.429 . S
C391 C389 1.419 . S
C391 C392 1.363 . S
C391 H394 0.929 . S
C392 C391 1.363 . S
C392 C398 1.428 . S
H393 C389 0.930 . S
H394 C391 0.929 . S
S395 N396 1.613 . S
S395 N397 1.610 . S
N396 S395 1.613 . S
N396 C399 1.350 . S
N397 S395 1.610 . S
N397 C398 1.351 . S
C398 C392 1.428 . S
C398 N397 1.351 . S
C398 C399 1.434 . S
C399 C390 1.429 . S
C399 N396 1.350 . S
C399 C398 1.434 . S
C400 C401 1.369 . S
C400 C402 1.419 . S
C400 H404 0.930 . S
C401 C400 1.369 . S
C401 C410 1.429 . S
C402 C400 1.419 . S
C402 C403 1.363 . S
C402 H405 0.929 . S
C403 C402 1.363 . S
C403 C409 1.428 . S
H404 C400 0.930 . S
H405 C402 0.929 . S
S406 N407 1.613 1_655 S
S406 N408 1.610 . S
N407 S406 1.613 1_455 S
N407 C410 1.350 . S
N408 S406 1.610 . S
N408 C409 1.351 1_655 S
C409 C403 1.428 . S
C409 N408 1.351 1_455 S
C409 C410 1.434 . S
C410 C401 1.429 . S
C410 N407 1.350 . S
C410 C409 1.434 . S
C411 C412 1.369 . S
C411 C413 1.419 . S
C411 H415 0.930 . S
C412 C411 1.369 . S
C412 C421 1.429 . S
C413 C411 1.419 . S
C413 C414 1.363 . S
C413 H416 0.929 . S
C414 C413 1.363 . S
C414 C420 1.428 . S
H415 C411 0.930 . S
H416 C413 0.929 . S
S417 N418 1.613 1_655 S
S417 N419 1.610 1_655 S
N418 S417 1.613 1_455 S
N418 C421 1.350 . S
N419 S417 1.610 1_455 S
N419 C420 1.351 . S
C420 C414 1.428 . S
C420 N419 1.351 . S
C420 C421 1.434 . S
C421 C412 1.429 . S
C421 N418 1.350 . S
C421 C420 1.434 . S
C422 C423 1.369 . S
C422 C424 1.419 . S
C422 H426 0.930 . S
C423 C422 1.369 . S
C423 C432 1.429 . S
C424 C422 1.419 . S
C424 C425 1.363 1_565 S
C424 H427 0.929 . S
C425 C424 1.363 1_545 S
C425 C431 1.428 . S
H426 C422 0.930 . S
H427 C424 0.929 . S
S428 N429 1.613 1_545 S
S428 N430 1.610 . S
N429 S428 1.613 1_565 S
N429 C432 1.350 . S
N430 S428 1.610 . S
N430 C431 1.351 . S
C431 C425 1.428 . S
C431 N430 1.351 . S
C431 C432 1.434 1_545 S
C432 C423 1.429 . S
C432 N429 1.350 . S
C432 C431 1.434 1_565 S
C433 C434 1.369 . S
C433 C435 1.419 . S
C433 H437 0.930 . S
C434 C433 1.369 . S
C434 C443 1.429 . S
C435 C433 1.419 . S
C435 C436 1.363 . S
C435 H438 0.929 . S
C436 C435 1.363 . S
C436 C442 1.428 . S
H437 C433 0.930 . S
H438 C435 0.929 . S
S439 N440 1.613 . S
S439 N441 1.610 . S
N440 S439 1.613 . S
N440 C443 1.350 . S
N441 S439 1.610 . S
N441 C442 1.351 . S
C442 C436 1.428 . S
C442 N441 1.351 . S
C442 C443 1.434 . S
C443 C434 1.429 . S
C443 N440 1.350 . S
C443 C442 1.434 . S
C444 C445 1.369 . S
C444 C446 1.419 1_554 S
C444 H448 0.930 . S
C445 C444 1.369 . S
C445 C454 1.429 1_554 S
C446 C444 1.419 1_556 S
C446 C447 1.363 . S
C446 H449 0.929 . S
C447 C446 1.363 . S
C447 C453 1.428 . S
H448 C444 0.930 . S
H449 C446 0.929 . S
S450 N451 1.613 . S
S450 N452 1.610 . S
N451 S450 1.613 . S
N451 C454 1.350 . S
N452 S450 1.610 . S
N452 C453 1.351 . S
C453 C447 1.428 . S
C453 N452 1.351 . S
C453 C454 1.434 . S
C454 C445 1.429 1_556 S
C454 N451 1.350 . S
C454 C453 1.434 . S
C455 C456 1.369 1_556 S
C455 C457 1.419 . S
C455 H459 0.930 . S
C456 C455 1.369 1_554 S
C456 C465 1.429 . S
C457 C455 1.419 . S
C457 C458 1.363 . S
C457 H460 0.929 . S
C458 C457 1.363 . S
C458 C464 1.428 . S
H459 C455 0.930 . S
H460 C457 0.929 . S
S461 N462 1.613 . S
S461 N463 1.610 1_554 S
N462 S461 1.613 . S
N462 C465 1.350 . S
N463 S461 1.610 1_556 S
N463 C464 1.351 . S
C464 C458 1.428 . S
C464 N463 1.351 . S
C464 C465 1.434 1_556 S
C465 C456 1.429 . S
C465 N462 1.350 . S
C465 C464 1.434 1_554 S
C466 C467 1.369 . S
C466 C468 1.419 . S
C466 H470 0.930 . S
C467 C466 1.369 . S
C467 C476 1.429 . S
C468 C466 1.419 . S
C468 C469 1.363 . S
C468 H471 0.929 . S
C469 C468 1.363 . S
C469 C475 1.428 . S
H470 C466 0.930 . S
H471 C468 0.929 . S
S472 N473 1.613 . S
S472 N474 1.610 . S
N473 S472 1.613 . S
N473 C476 1.350 . S
N474 S472 1.610 . S
N474 C475 1.351 . S
C475 C469 1.428 . S
C475 N474 1.351 . S
C475 C476 1.434 . S
C476 C467 1.429 . S
C476 N473 1.350 . S
C476 C475 1.434 . S
C477 C478 1.369 . S
C477 C479 1.419 . S
C477 H481 0.930 . S
C478 C477 1.369 . S
C478 C487 1.429 . S
C479 C477 1.419 . S
C479 C480 1.363 . S
C479 H482 0.929 . S
C480 C479 1.363 . S
C480 C486 1.428 . S
H481 C477 0.930 . S
H482 C479 0.929 . S
S483 N484 1.613 . S
S483 N485 1.610 . S
N484 S483 1.613 . S
N484 C487 1.350 . S
N485 S483 1.610 . S
N485 C486 1.351 . S
C486 C480 1.428 . S
C486 N485 1.351 . S
C486 C487 1.434 . S
C487 C478 1.429 . S
C487 N484 1.350 . S
C487 C486 1.434 . S
C488 C489 1.369 1_655 S
C488 C490 1.419 . S
C488 H492 0.930 . S
C489 C488 1.369 1_455 S
C489 C498 1.429 . S
C490 C488 1.419 . S
C490 C491 1.363 . S
C490 H493 0.929 . S
C491 C490 1.363 . S
C491 C497 1.428 . S
H492 C488 0.930 . S
H493 C490 0.929 . S
S494 N495 1.613 . S
S494 N496 1.610 1_455 S
N495 S494 1.613 . S
N495 C498 1.350 . S
N496 S494 1.610 1_655 S
N496 C497 1.351 . S
C497 C491 1.428 . S
C497 N496 1.351 . S
C497 C498 1.434 1_655 S
C498 C489 1.429 . S
C498 N495 1.350 . S
C498 C497 1.434 1_455 S
C499 C500 1.369 . S
C499 C501 1.419 1_655 S
C499 H503 0.930 . S
C500 C499 1.369 . S
C500 C509 1.429 1_655 S
C501 C499 1.419 1_455 S
C501 C502 1.363 . S
C501 H504 0.929 . S
C502 C501 1.363 . S
C502 C508 1.428 . S
H503 C499 0.930 . S
H504 C501 0.929 . S
S505 N506 1.613 . S
S505 N507 1.610 . S
N506 S505 1.613 . S
N506 C509 1.350 . S
N507 S505 1.610 . S
N507 C508 1.351 . S
C508 C502 1.428 . S
C508 N507 1.351 . S
C508 C509 1.434 . S
C509 C500 1.429 1_455 S
C509 N506 1.350 . S
C509 C508 1.434 . S
C510 C511 1.369 . S
C510 C512 1.419 1_455 S
C510 H514 0.930 . S
C511 C510 1.369 . S
C511 C520 1.429 1_455 S
C512 C510 1.419 1_655 S
C512 C513 1.363 . S
C512 H515 0.929 . S
C513 C512 1.363 . S
C513 C519 1.428 . S
H514 C510 0.930 . S
H515 C512 0.929 . S
S516 N517 1.613 . S
S516 N518 1.610 . S
N517 S516 1.613 . S
N517 C520 1.350 . S
N518 S516 1.610 . S
N518 C519 1.351 . S
C519 C513 1.428 . S
C519 N518 1.351 . S
C519 C520 1.434 . S
C520 C511 1.429 1_655 S
C520 N517 1.350 . S
C520 C519 1.434 . S
C521 C522 1.369 . S
C521 C523 1.419 . S
C521 H525 0.930 . S
C522 C521 1.369 . S
C522 C531 1.429 . S
C523 C521 1.419 . S
C523 C524 1.363 1_455 S
C523 H526 0.929 . S
C524 C523 1.363 1_655 S
C524 C530 1.428 1_655 S
H525 C521 0.930 . S
H526 C523 0.929 . S
S527 N528 1.613 . S
S527 N529 1.610 1_455 S
N528 S527 1.613 . S
N528 C531 1.350 . S
N529 S527 1.610 1_655 S
N529 C530 1.351 1_655 S
C530 C524 1.428 1_455 S
C530 N529 1.351 1_455 S
C530 C531 1.434 . S
C531 C522 1.429 . S
C531 N528 1.350 . S
C531 C530 1.434 . S
C532 C533 1.369 1_565 S
C532 C534 1.419 . S
C532 H536 0.930 . S
C533 C532 1.369 1_545 S
C533 C542 1.435 . S
C534 C532 1.419 . S
C534 C535 1.363 . S
C534 H537 0.929 . S
C535 C534 1.363 . S
C535 C541 1.428 . S
H536 C532 0.930 . S
H537 C534 0.929 . S
S538 N539 1.613 1_565 S
S538 N540 1.610 . S
N539 S538 1.613 1_545 S
N539 C542 1.361 . S
N540 S538 1.610 . S
N540 C541 1.351 . S
C541 C535 1.428 . S
C541 N540 1.351 . S
C541 C542 1.415 1_565 S
C542 C533 1.435 . S
C542 N539 1.361 . S
C542 C541 1.415 1_545 S
C543 C544 1.369 . S
C543 C545 1.437 . S
C543 H547 0.930 . S
C544 C543 1.369 . S
C544 C553 1.429 . S
C545 C543 1.437 . S
C545 C546 1.355 1_545 S
C545 H548 0.918 1_545 S
C546 C545 1.355 1_565 S
C546 C552 1.428 1_565 S
H547 C543 0.930 . S
H548 C545 0.918 1_565 S
S549 N550 1.613 . S
S549 N551 1.610 1_545 S
N550 S549 1.613 . S
N550 C553 1.350 . S
N551 S549 1.610 1_565 S
N551 C552 1.351 1_565 S
C552 C546 1.428 1_545 S
C552 N551 1.351 1_545 S
C552 C553 1.434 . S
C553 C544 1.429 . S
C553 N550 1.350 . S
C553 C552 1.434 . S
C554 C555 1.369 . S
C554 C556 1.419 . S
C554 H558 0.930 . S
C555 C554 1.369 . S
C555 C564 1.429 . S
C556 C554 1.419 . S
C556 C557 1.363 . S
C556 H559 0.929 . S
C557 C556 1.363 . S
C557 C563 1.428 . S
H558 C554 0.930 . S
H559 C556 0.929 . S
S560 N561 1.613 1_554 S
S560 N562 1.610 1_554 S
N561 S560 1.613 1_556 S
N561 C564 1.350 . S
N562 S560 1.610 1_556 S
N562 C563 1.351 . S
C563 C557 1.428 . S
C563 N562 1.351 . S
C563 C564 1.434 . S
C564 C555 1.429 . S
C564 N561 1.350 . S
C564 C563 1.434 . S
C565 C566 1.369 . S
C565 C567 1.419 . S
C565 H569 0.930 . S
C566 C565 1.369 . S
C566 C575 1.429 . S
C567 C565 1.419 . S
C567 C568 1.363 1_545 S
C567 H570 0.929 1_545 S
C568 C567 1.363 1_565 S
C568 C574 1.428 1_565 S
H569 C565 0.930 . S
H570 C567 0.929 1_565 S
S571 N572 1.613 1_455 S
S571 N573 1.610 1_545 S
N572 S571 1.613 1_655 S
N572 C575 1.350 . S
N573 S571 1.610 1_565 S
N573 C574 1.351 1_465 S
C574 C568 1.428 1_545 S
C574 N573 1.351 1_645 S
C574 C575 1.434 . S
C575 C566 1.429 . S
C575 N572 1.350 . S
C575 C574 1.434 . S
C576 C577 1.369 1_455 S
C576 C578 1.418 . S
C576 H580 0.930 1_455 S
C577 C576 1.369 1_655 S
C577 C586 1.429 . S
C578 C576 1.418 . S
C578 C579 1.363 . S
C578 H581 0.929 . S
C579 C578 1.363 . S
C579 C585 1.428 . S
H580 C576 0.930 1_655 S
H581 C578 0.929 . S
S582 N583 1.612 1_455 S
S582 N584 1.612 . S
N583 S582 1.612 1_655 S
N583 C586 1.350 . S
N584 S582 1.612 . S
N584 C585 1.351 . S
C585 C579 1.428 . S
C585 N584 1.351 . S
C585 C586 1.434 1_455 S
C586 C577 1.429 . S
C586 N583 1.350 . S
C586 C585 1.434 1_655 S
C587 C588 1.369 . S
C587 C589 1.419 . S
C587 H591 0.930 . S
C588 C587 1.369 . S
C588 C597 1.429 1_455 S
C589 C587 1.419 . S
C589 C590 1.363 1_455 S
C589 H592 0.929 . S
C590 C589 1.363 1_655 S
C590 C596 1.428 . S
H591 C587 0.930 . S
H592 C589 0.929 . S
S593 N594 1.613 . S
S593 N595 1.610 . S
N594 S593 1.613 . S
N594 C597 1.350 . S
N595 S593 1.610 . S
N595 C596 1.351 . S
C596 C590 1.428 . S
C596 N595 1.351 . S
C596 C597 1.434 . S
C597 C588 1.429 1_655 S
C597 N594 1.350 . S
C597 C596 1.434 . S
C598 C599 1.369 . S
C598 C600 1.419 . S
C598 H602 0.930 . S
C599 C598 1.369 . S
C599 C608 1.429 1_565 S
C600 C598 1.419 . S
C600 C601 1.363 1_565 S
C600 H603 0.929 . S
C601 C600 1.363 1_545 S
C601 C607 1.428 . S
H602 C598 0.930 . S
H603 C600 0.929 . S
S604 N605 1.613 . S
S604 N606 1.610 . S
N605 S604 1.613 . S
N605 C608 1.350 . S
N606 S604 1.610 . S
N606 C607 1.351 . S
C607 C601 1.428 . S
C607 N606 1.351 . S
C607 C608 1.434 . S
C608 C599 1.429 1_545 S
C608 N605 1.350 . S
C608 C607 1.434 . S
C609 C610 1.369 . S
C609 C611 1.419 . S
C609 H613 0.930 . S
C610 C609 1.369 . S
C610 C619 1.429 . S
C611 C609 1.419 . S
C611 C612 1.363 . S
C611 H614 0.929 . S
C612 C611 1.363 . S
C612 C618 1.428 . S
H613 C609 0.930 . S
H614 C611 0.929 . S
S615 N616 1.613 . S
S615 N617 1.610 . S
N616 S615 1.613 . S
N616 C619 1.350 . S
N617 S615 1.610 . S
N617 C618 1.351 . S
C618 C612 1.428 . S
C618 N617 1.351 . S
C618 C619 1.434 . S
C619 C610 1.429 . S
C619 N616 1.350 . S
C619 C618 1.434 . S
C620 C621 1.369 1_556 S
C620 C622 1.419 . S
C620 H624 0.930 . S
C621 C620 1.369 1_554 S
C621 C630 1.429 . S
C622 C620 1.419 . S
C622 C623 1.363 . S
C622 H625 0.929 . S
C623 C622 1.363 . S
C623 C629 1.428 1_556 S
H624 C620 0.930 . S
H625 C622 0.929 . S
S626 N627 1.613 . S
S626 N628 1.610 . S
N627 S626 1.613 . S
N627 C630 1.350 . S
N628 S626 1.610 . S
N628 C629 1.351 . S
C629 C623 1.428 1_554 S
C629 N628 1.351 . S
C629 C630 1.434 . S
C630 C621 1.429 . S
C630 N627 1.350 . S
C630 C629 1.434 . S
C631 C632 1.369 . S
C631 C633 1.419 . S
C631 H635 0.930 . S
C632 C631 1.369 . S
C632 C641 1.429 . S
C633 C631 1.419 . S
C633 C634 1.363 . S
C633 H636 0.929 . S
C634 C633 1.363 . S
C634 C640 1.428 . S
H635 C631 0.930 . S
H636 C633 0.929 . S
S637 N638 1.613 . S
S637 N639 1.610 . S
N638 S637 1.613 . S
N638 C641 1.350 . S
N639 S637 1.610 . S
N639 C640 1.351 . S
C640 C634 1.428 . S
C640 N639 1.351 . S
C640 C641 1.434 . S
C641 C632 1.429 . S
C641 N638 1.350 . S
C641 C640 1.434 . S
C642 C643 1.369 . S
C642 C644 1.419 . S
C642 H646 0.930 . S
C643 C642 1.369 . S
C643 C652 1.429 . S
C644 C642 1.419 . S
C644 C645 1.363 . S
C644 H647 0.929 . S
C645 C644 1.363 . S
C645 C651 1.428 . S
H646 C642 0.930 . S
H647 C644 0.929 . S
S648 N649 1.613 . S
S648 N650 1.610 . S
N649 S648 1.613 . S
N649 C652 1.350 . S
N650 S648 1.610 . S
N650 C651 1.351 . S
C651 C645 1.428 . S
C651 N650 1.351 . S
C651 C652 1.434 . S
C652 C643 1.429 . S
C652 N649 1.350 . S
C652 C651 1.434 . S
C653 C654 1.369 . S
C653 C655 1.419 . S
C653 H657 0.930 . S
C654 C653 1.369 . S
C654 C663 1.429 . S
C655 C653 1.419 . S
C655 C656 1.363 . S
C655 H658 0.929 . S
C656 C655 1.363 . S
C656 C662 1.428 . S
H657 C653 0.930 . S
H658 C655 0.929 . S
S659 N660 1.613 . S
S659 N661 1.610 . S
N660 S659 1.613 . S
N660 C663 1.350 . S
N661 S659 1.610 . S
N661 C662 1.351 . S
C662 C656 1.428 . S
C662 N661 1.351 . S
C662 C663 1.434 . S
C663 C654 1.429 . S
C663 N660 1.350 . S
C663 C662 1.434 . S
C664 C665 1.369 . S
C664 C666 1.419 . S
C664 H668 0.930 . S
C665 C664 1.369 . S
C665 C674 1.429 . S
C666 C664 1.419 . S
C666 C667 1.363 . S
C666 H669 0.929 . S
C667 C666 1.363 . S
C667 C673 1.428 . S
H668 C664 0.930 . S
H669 C666 0.929 . S
S670 N671 1.613 . S
S670 N672 1.610 . S
N671 S670 1.613 . S
N671 C674 1.350 . S
N672 S670 1.610 . S
N672 C673 1.351 . S
C673 C667 1.428 . S
C673 N672 1.351 . S
C673 C674 1.434 . S
C674 C665 1.429 . S
C674 N671 1.350 . S
C674 C673 1.434 . S
C675 C676 1.369 . S
C675 C677 1.419 . S
C675 H679 0.930 . S
C676 C675 1.369 . S
C676 C685 1.429 . S
C677 C675 1.419 . S
C677 C678 1.363 . S
C677 H680 0.929 . S
C678 C677 1.363 . S
C678 C684 1.428 . S
H679 C675 0.930 . S
H680 C677 0.929 . S
S681 N682 1.613 . S
S681 N683 1.610 . S
N682 S681 1.613 . S
N682 C685 1.350 . S
N683 S681 1.610 . S
N683 C684 1.351 . S
C684 C678 1.428 . S
C684 N683 1.351 . S
C684 C685 1.434 . S
C685 C676 1.429 . S
C685 N682 1.350 . S
C685 C684 1.434 . S
C686 C687 1.369 1_565 S
C686 C688 1.419 . S
C686 H690 0.930 . S
C687 C686 1.369 1_545 S
C687 C696 1.429 . S
C688 C686 1.419 . S
C688 C689 1.363 . S
C688 H691 0.929 . S
C689 C688 1.363 . S
C689 C695 1.428 1_565 S
H690 C686 0.930 . S
H691 C688 0.929 . S
S692 N693 1.613 . S
S692 N694 1.610 . S
N693 S692 1.613 . S
N693 C696 1.350 . S
N694 S692 1.610 . S
N694 C695 1.351 . S
C695 C689 1.428 1_545 S
C695 N694 1.351 . S
C695 C696 1.434 . S
C696 C687 1.429 . S
C696 N693 1.350 . S
C696 C695 1.434 . S
C697 C698 1.369 . S
C697 C699 1.419 . S
C697 H701 0.930 . S
C698 C697 1.369 . S
C698 C707 1.429 1_556 S
C699 C697 1.419 . S
C699 C700 1.363 1_556 S
C699 H702 0.929 . S
C700 C699 1.363 1_554 S
C700 C706 1.428 . S
H701 C697 0.930 . S
H702 C699 0.929 . S
S703 N704 1.613 . S
S703 N705 1.610 . S
N704 S703 1.613 . S
N704 C707 1.350 . S
N705 S703 1.610 . S
N705 C706 1.351 . S
C706 C700 1.428 . S
C706 N705 1.351 . S
C706 C707 1.434 . S
C707 C698 1.429 1_554 S
C707 N704 1.350 . S
C707 C706 1.434 . S
C708 C709 1.364 1_655 S
C708 C710 1.419 1_565 S
C708 H712 0.930 . S
C709 C708 1.364 1_455 S
C709 C718 1.434 . S
C710 C708 1.419 1_545 S
C710 C711 1.363 . S
C710 H713 0.929 . S
C711 C710 1.363 . S
C711 C717 1.428 1_655 S
H712 C708 0.930 . S
H713 C710 0.929 . S
S714 N715 1.613 . S
S714 N716 1.610 1_565 S
N715 S714 1.613 . S
N715 C718 1.350 . S
N716 S714 1.610 1_545 S
N716 C717 1.351 . S
C717 C711 1.428 1_455 S
C717 N716 1.351 . S
C717 C718 1.434 1_545 S
C718 C709 1.434 . S
C718 N715 1.350 . S
C718 C717 1.434 1_565 S
C719 C720 1.355 1_655 S
C719 C721 1.419 . S
C719 H723 0.930 . S
C720 C719 1.355 1_455 S
C720 C729 1.443 . S
C721 C719 1.419 . S
C721 C722 1.363 . S
C721 H724 0.929 . S
C722 C721 1.363 . S
C722 C728 1.428 1_655 S
H723 C719 0.930 . S
H724 C721 0.929 . S
S725 N726 1.613 . S
S725 N727 1.610 . S
N726 S725 1.613 . S
N726 C729 1.350 . S
N727 S725 1.610 . S
N727 C728 1.351 . S
C728 C722 1.428 1_455 S
C728 N727 1.351 . S
C728 C729 1.434 . S
C729 C720 1.443 . S
C729 N726 1.350 . S
C729 C728 1.434 . S
C730 C731 1.367 1_565 S
C730 C732 1.419 1_556 S
C730 H734 0.930 . S
C731 C730 1.367 1_545 S
C731 C740 1.431 . S
C732 C730 1.419 1_554 S
C732 C733 1.363 . S
C732 H735 0.929 . S
C733 C732 1.363 . S
C733 C739 1.428 1_565 S
H734 C730 0.930 . S
H735 C732 0.929 . S
S736 N737 1.613 . S
S736 N738 1.610 1_556 S
N737 S736 1.613 . S
N737 C740 1.350 . S
N738 S736 1.610 1_554 S
N738 C739 1.351 . S
C739 C733 1.428 1_545 S
C739 N738 1.351 . S
C739 C740 1.434 1_554 S
C740 C731 1.431 . S
C740 N737 1.350 . S
C740 C739 1.434 1_556 S
C741 C742 1.369 . S
C741 C743 1.419 1_554 S
C741 H745 0.930 . S
C742 C741 1.369 . S
C742 C751 1.429 . S
C743 C741 1.419 1_556 S
C743 C744 1.363 . S
C743 H746 0.929 . S
C744 C743 1.363 . S
C744 C750 1.428 . S
H745 C741 0.930 . S
H746 C743 0.929 . S
S747 N748 1.613 . S
S747 N749 1.610 1_554 S
N748 S747 1.613 . S
N748 C751 1.350 . S
N749 S747 1.610 1_556 S
N749 C750 1.351 . S
C750 C744 1.428 . S
C750 N749 1.351 . S
C750 C751 1.434 1_556 S
C751 C742 1.429 . S
C751 N748 1.350 . S
C751 C750 1.434 1_554 S
C752 C753 1.361 1_545 S
C752 C754 1.419 . S
C752 H756 0.930 . S
C753 C752 1.361 1_565 S
C753 C762 1.437 . S
C754 C752 1.419 . S
C754 C755 1.363 1_545 S
C754 H757 0.929 . S
C755 C754 1.363 1_565 S
C755 C761 1.428 . S
H756 C752 0.930 . S
H757 C754 0.929 . S
S758 N759 1.613 . S
S758 N760 1.610 . S
N759 S758 1.613 . S
N759 C762 1.350 . S
N760 S758 1.610 . S
N760 C761 1.351 . S
C761 C755 1.428 . S
C761 N760 1.351 . S
C761 C762 1.434 . S
C762 C753 1.437 . S
C762 N759 1.350 . S
C762 C761 1.434 . S
C763 C764 1.369 . S
C763 C765 1.419 . S
C763 H767 0.930 . S
C764 C763 1.369 . S
C764 C773 1.429 . S
C765 C763 1.419 . S
C765 C766 1.363 . S
C765 H768 0.929 . S
C766 C765 1.363 . S
C766 C772 1.428 . S
H767 C763 0.930 . S
H768 C765 0.929 . S
S769 N770 1.613 . S
S769 N771 1.610 . S
N770 S769 1.613 . S
N770 C773 1.350 . S
N771 S769 1.610 . S
N771 C772 1.351 . S
C772 C766 1.428 . S
C772 N771 1.351 . S
C772 C773 1.434 . S
C773 C764 1.429 . S
C773 N770 1.350 . S
C773 C772 1.434 . S
C774 C775 1.369 . S
C774 C776 1.419 1_455 S
C774 H778 0.930 . S
C775 C774 1.369 . S
C775 C784 1.429 1_556 S
C776 C774 1.419 1_655 S
C776 C777 1.349 1_556 S
C776 H779 0.929 . S
C777 C776 1.349 1_554 S
C777 C783 1.443 . S
H778 C774 0.930 . S
H779 C776 0.929 . S
S780 N781 1.613 1_655 S
S780 N782 1.610 . S
N781 S780 1.613 1_455 S
N781 C784 1.350 . S
N782 S780 1.610 . S
N782 C783 1.351 . S
C783 C777 1.443 . S
C783 N782 1.351 . S
C783 C784 1.434 1_655 S
C784 C775 1.429 1_554 S
C784 N781 1.350 . S
C784 C783 1.434 1_455 S
C785 C786 1.369 . S
C785 C787 1.419 1_455 S
C785 H789 0.930 . S
C786 C785 1.369 . S
C786 C795 1.429 . S
C787 C785 1.419 1_655 S
C787 C788 1.363 . S
C787 H790 0.929 . S
C788 C787 1.363 . S
C788 C794 1.428 . S
H789 C785 0.930 . S
H790 C787 0.929 . S
S791 N792 1.613 1_655 S
S791 N793 1.610 . S
N792 S791 1.613 1_455 S
N792 C795 1.350 . S
N793 S791 1.610 . S
N793 C794 1.351 . S
C794 C788 1.428 . S
C794 N793 1.351 . S
C794 C795 1.434 1_655 S
C795 C786 1.429 . S
C795 N792 1.350 . S
C795 C794 1.434 1_455 S
C796 C797 1.369 . S
C796 C798 1.419 . S
C796 H800 0.930 . S
C797 C796 1.369 . S
C797 C806 1.429 . S
C798 C796 1.419 . S
C798 C799 1.363 . S
C798 H801 0.929 . S
C799 C798 1.363 . S
C799 C805 1.428 . S
H800 C796 0.930 . S
H801 C798 0.929 . S
S802 N803 1.613 . S
S802 N804 1.610 . S
N803 S802 1.613 . S
N803 C806 1.350 . S
N804 S802 1.610 . S
N804 C805 1.351 . S
C805 C799 1.428 . S
C805 N804 1.351 . S
C805 C806 1.434 . S
C806 C797 1.429 . S
C806 N803 1.350 . S
C806 C805 1.434 . S
C807 C808 1.369 . S
C807 C809 1.419 . S
C807 H811 0.930 . S
C808 C807 1.369 . S
C808 C817 1.429 . S
C809 C807 1.419 . S
C809 C810 1.363 . S
C809 H812 0.929 . S
C810 C809 1.363 . S
C810 C816 1.428 . S
H811 C807 0.930 . S
H812 C809 0.929 . S
S813 N814 1.613 . S
S813 N815 1.610 . S
N814 S813 1.613 . S
N814 C817 1.350 . S
N815 S813 1.610 . S
N815 C816 1.351 . S
C816 C810 1.428 . S
C816 N815 1.351 . S
C816 C817 1.434 . S
C817 C808 1.429 . S
C817 N814 1.350 . S
C817 C816 1.434 . S
C818 C819 1.369 . S
C818 C820 1.419 1_565 S
C818 H822 0.930 . S
C819 C818 1.369 . S
C819 C828 1.429 . S
C820 C818 1.419 1_545 S
C820 C821 1.363 . S
C820 H823 0.929 . S
C821 C820 1.363 . S
C821 C827 1.428 . S
H822 C818 0.930 . S
H823 C820 0.929 . S
S824 N825 1.613 1_545 S
S824 N826 1.610 . S
N825 S824 1.613 1_565 S
N825 C828 1.350 . S
N826 S824 1.610 . S
N826 C827 1.351 . S
C827 C821 1.428 . S
C827 N826 1.351 . S
C827 C828 1.434 1_545 S
C828 C819 1.429 . S
C828 N825 1.350 . S
C828 C827 1.434 1_565 S
C829 C830 1.369 . S
C829 C831 1.419 . S
C829 H833 0.930 . S
C830 C829 1.369 . S
C830 C839 1.429 1_556 S
C831 C829 1.419 . S
C831 C832 1.363 . S
C831 H834 0.929 . S
C832 C831 1.363 . S
C832 C838 1.428 1_556 S
H833 C829 0.930 . S
H834 C831 0.929 . S
S835 N836 1.613 . S
S835 N837 1.610 . S
N836 S835 1.613 . S
N836 C839 1.350 . S
N837 S835 1.610 . S
N837 C838 1.351 . S
C838 C832 1.428 1_554 S
C838 N837 1.351 . S
C838 C839 1.434 . S
C839 C830 1.429 1_554 S
C839 N836 1.350 . S
C839 C838 1.434 . S
C313 C224 0.789 . S
C315 C3 0.787 . S
C324 C18 0.877 . S
C326 C213 0.857 . S
C335 C31 0.916 . S
C337 C252 0.919 . S
C346 C42 1.011 . S
C348 C237 0.967 . S
C357 C57 0.789 . S
C359 C278 0.790 . S
C368 C68 0.880 . S
C370 C291 0.872 . S
C379 C263 0.860 . S
C381 C83 0.875 . S
C390 C146 0.932 . S
C392 C94 0.965 . S
C401 C107 0.784 . S
C403 C44 0.780 . S
C412 C16 0.867 . S
C414 C120 0.879 . S
C423 C135 1.015 . S
C425 C5 1.008 . S
C434 C148 0.963 . S
C436 C185 0.923 . S
C445 C70 1.050 . S
C447 C161 1.101 . S
C456 C55 0.999 . S
C458 C174 1.013 . S
C467 C187 0.968 . S
C469 C96 0.926 . S
C478 C200 0.874 . S
C480 C81 0.872 . S
C489 C122 1.034 . S
C491 C211 1.102 . S
C500 C133 0.972 . S
C502 C226 1.007 . S
C511 C109 1.002 . S
C513 C239 1.018 . S
C522 C250 0.924 . S
C524 C302 0.920 . S
C533 C198 1.049 . S
C535 C265 1.099 . S
C544 C276 1.010 . S
C546 C172 0.956 . S
C555 C159 0.855 . S
C557 C289 0.870 . S
C566 C304 0.916 . S
C568 C29 0.914 . S
C577 C4 1.911 . S
C579 C23 1.898 . S
C588 C43 1.836 . S
C590 C36 1.852 . S
C599 C62 1.909 . S
C601 C88 1.896 . S
C610 C69 2.098 . S
C612 C95 2.085 . S
C621 C290 1.899 . S
C623 C108 1.910 . S
C632 C121 2.105 . S
C634 C153 2.080 . S
C643 C270 2.027 . S
C645 C140 2.043 . S
C654 C179 2.042 . S
C656 C166 2.024 . S
C665 C192 2.079 . S
C667 C205 2.103 . S
C676 C244 2.045 . S
C678 C212 2.022 . S
C687 C231 1.840 . S
C689 C251 1.850 . S
C698 C309 1.852 . S
C700 C277 1.840 . S
C709 C30 1.558 . S
C711 C10 1.551 . S
C720 C17 1.740 . S
C722 C49 1.736 . S
C731 C257 1.559 . S
C733 C56 1.551 . S
C742 C75 1.672 . S
C744 C238 1.663 . S
C753 C82 1.742 1_565 S
C755 C225 1.735 . S
C764 C218 1.843 . S
C766 C101 1.857 . S
C775 C114 1.557 . S
C777 C303 1.552 . S
C786 C127 1.664 . S
C788 C134 1.670 . S
C797 C264 1.853 . S
C799 C147 1.849 . S
C808 C160 1.845 . S
C810 C186 1.856 . S
C819 C173 1.665 . S
C821 C199 1.669 . S
C830 C296 1.736 1_556 S
C832 C283 1.740 . S
