# Generated by pormake.
# Topology zga, (5)-cn, num edge types: 1
# Building blocks:
#     Node 0, Type 0, BuildingBlock: XOMCOT_clean_sbu_0, # of connection points: 5
#     Node 1, Type 0, BuildingBlock: XOMCOT_clean_sbu_0, # of connection points: 5
#     Node 2, Type 0, BuildingBlock: XOMCOT_clean_sbu_0, # of connection points: 5
#     Node 3, Type 0, BuildingBlock: XOMCOT_clean_sbu_0, # of connection points: 5
#     Node 4, Type 0, BuildingBlock: XOMCOT_clean_sbu_0, # of connection points: 5
#     Node 5, Type 0, BuildingBlock: XOMCOT_clean_sbu_0, # of connection points: 5
#     Node 6, Type 0, BuildingBlock: XOMCOT_clean_sbu_0, # of connection points: 5
#     Node 7, Type 0, BuildingBlock: XOMCOT_clean_sbu_0, # of connection points: 5
#     Node 8, Type 0, BuildingBlock: XOMCOT_clean_sbu_0, # of connection points: 5
#     Node 9, Type 0, BuildingBlock: XOMCOT_clean_sbu_0, # of connection points: 5
#     Node 10, Type 0, BuildingBlock: XOMCOT_clean_sbu_0, # of connection points: 5
#     Node 11, Type 0, BuildingBlock: XOMCOT_clean_sbu_0, # of connection points: 5
#     Node 12, Type 0, BuildingBlock: XOMCOT_clean_sbu_0, # of connection points: 5
#     Node 13, Type 0, BuildingBlock: XOMCOT_clean_sbu_0, # of connection points: 5
#     Node 14, Type 0, BuildingBlock: XOMCOT_clean_sbu_0, # of connection points: 5
#     Node 15, Type 0, BuildingBlock: XOMCOT_clean_sbu_0, # of connection points: 5
#     Edge 16, Type (0, 0), BuildingBlock: OJICUG_clean_linker_0, # of connection points: 2
#     Edge 17, Type (0, 0), BuildingBlock: OJICUG_clean_linker_0, # of connection points: 2
#     Edge 18, Type (0, 0), BuildingBlock: OJICUG_clean_linker_0, # of connection points: 2
#     Edge 19, Type (0, 0), BuildingBlock: OJICUG_clean_linker_0, # of connection points: 2
#     Edge 20, Type (0, 0), BuildingBlock: OJICUG_clean_linker_0, # of connection points: 2
#     Edge 21, Type (0, 0), BuildingBlock: OJICUG_clean_linker_0, # of connection points: 2
#     Edge 22, Type (0, 0), BuildingBlock: OJICUG_clean_linker_0, # of connection points: 2
#     Edge 23, Type (0, 0), BuildingBlock: OJICUG_clean_linker_0, # of connection points: 2
#     Edge 24, Type (0, 0), BuildingBlock: OJICUG_clean_linker_0, # of connection points: 2
#     Edge 25, Type (0, 0), BuildingBlock: OJICUG_clean_linker_0, # of connection points: 2
#     Edge 26, Type (0, 0), BuildingBlock: OJICUG_clean_linker_0, # of connection points: 2
#     Edge 27, Type (0, 0), BuildingBlock: OJICUG_clean_linker_0, # of connection points: 2
#     Edge 28, Type (0, 0), BuildingBlock: OJICUG_clean_linker_0, # of connection points: 2
#     Edge 29, Type (0, 0), BuildingBlock: OJICUG_clean_linker_0, # of connection points: 2
#     Edge 30, Type (0, 0), BuildingBlock: OJICUG_clean_linker_0, # of connection points: 2
#     Edge 31, Type (0, 0), BuildingBlock: OJICUG_clean_linker_0, # of connection points: 2
#     Edge 32, Type (0, 0), BuildingBlock: OJICUG_clean_linker_0, # of connection points: 2
#     Edge 33, Type (0, 0), BuildingBlock: OJICUG_clean_linker_0, # of connection points: 2
#     Edge 34, Type (0, 0), BuildingBlock: OJICUG_clean_linker_0, # of connection points: 2
#     Edge 35, Type (0, 0), BuildingBlock: OJICUG_clean_linker_0, # of connection points: 2
#     Edge 36, Type (0, 0), BuildingBlock: OJICUG_clean_linker_0, # of connection points: 2
#     Edge 37, Type (0, 0), BuildingBlock: OJICUG_clean_linker_0, # of connection points: 2
#     Edge 38, Type (0, 0), BuildingBlock: OJICUG_clean_linker_0, # of connection points: 2
#     Edge 39, Type (0, 0), BuildingBlock: OJICUG_clean_linker_0, # of connection points: 2
#     Edge 40, Type (0, 0), BuildingBlock: OJICUG_clean_linker_0, # of connection points: 2
#     Edge 41, Type (0, 0), BuildingBlock: OJICUG_clean_linker_0, # of connection points: 2
#     Edge 42, Type (0, 0), BuildingBlock: OJICUG_clean_linker_0, # of connection points: 2
#     Edge 43, Type (0, 0), BuildingBlock: OJICUG_clean_linker_0, # of connection points: 2
#     Edge 44, Type (0, 0), BuildingBlock: OJICUG_clean_linker_0, # of connection points: 2
#     Edge 45, Type (0, 0), BuildingBlock: OJICUG_clean_linker_0, # of connection points: 2
#     Edge 46, Type (0, 0), BuildingBlock: OJICUG_clean_linker_0, # of connection points: 2
#     Edge 47, Type (0, 0), BuildingBlock: OJICUG_clean_linker_0, # of connection points: 2
#     Edge 48, Type (0, 0), BuildingBlock: OJICUG_clean_linker_0, # of connection points: 2
#     Edge 49, Type (0, 0), BuildingBlock: OJICUG_clean_linker_0, # of connection points: 2
#     Edge 50, Type (0, 0), BuildingBlock: OJICUG_clean_linker_0, # of connection points: 2
#     Edge 51, Type (0, 0), BuildingBlock: OJICUG_clean_linker_0, # of connection points: 2
#     Edge 52, Type (0, 0), BuildingBlock: OJICUG_clean_linker_0, # of connection points: 2
#     Edge 53, Type (0, 0), BuildingBlock: OJICUG_clean_linker_0, # of connection points: 2
#     Edge 54, Type (0, 0), BuildingBlock: OJICUG_clean_linker_0, # of connection points: 2
#     Edge 55, Type (0, 0), BuildingBlock: OJICUG_clean_linker_0, # of connection points: 2
# Relax obj value: 0.031
# Max RMSD: 0.077
# Mean RMSD: 0.077
data_MOF--net-zga--node1-XOMCOT_clean_sbu_0--edge1-OJICUG_clean_linker_0
_symmetry_space_group_name_H-M    P1
_symmetry_Int_Tables_number       1
_symmetry_cell_setting            triclinic
loop_
_symmetry_equiv_pos_as_xyz
'x, y, z'
_cell_length_a     36.932954
_cell_length_b     79.994243
_cell_length_c     13.597844
_cell_angle_alpha  91.714708
_cell_angle_beta   90.023696
_cell_angle_gamma 89.997589
loop_
_atom_site_label
_atom_site_type_symbol
_atom_site_fract_x
_atom_site_fract_y
_atom_site_fract_z
_atom_type_partial_charge
Co0 Co 0.12479 0.54405 0.12906 0.0
C1 C 0.12899 0.54549 0.91042 0.0
C2 C 0.16243 0.52607 0.96555 0.0
C3 C 0.16309 0.52506 0.86416 0.0
N4 N 0.14171 0.53917 0.99509 0.0
N5 N 0.14193 0.53729 0.82937 0.0
H6 H 0.10832 0.55495 0.90736 0.0
H7 H 0.17467 0.51721 1.01396 0.0
C8 C 0.20501 0.53563 0.16582 0.0
O9 O 0.2159 0.5451 0.09431 0.0
N10 N 0.10768 0.54859 0.26188 0.0
C11 C 0.08484 0.56086 0.29131 0.0
C12 C 0.08327 0.56131 0.39273 0.0
C13 C 0.11943 0.54166 0.34553 0.0
N14 N 0.10521 0.54927 0.4269 0.0
C15 C 0.12355 0.57802 0.06604 0.0
C16 C 0.17537 0.59117 0.19229 0.0
C17 C 0.15724 0.60211 0.1295 0.0
C18 C 0.13119 0.59514 0.06563 0.0
C19 C 0.16734 0.57388 0.18896 0.0
N20 N 0.14203 0.56738 0.12484 0.0
H21 H 0.10108 0.57361 0.02235 0.0
H22 H 0.18039 0.56593 0.24106 0.0
H23 H 0.0713 0.56929 0.24259 0.0
H24 H 0.13918 0.53171 0.34718 0.0
O25 O 0.07597 0.54709 0.07807 0.0
O26 O 0.09846 0.52299 0.12395 0.0
O27 O 0.17136 0.53489 0.18735 0.0
C28 C 0.07136 0.53108 0.08701 0.0
H29 H 0.17725 0.51569 0.81991 0.0
H30 H 0.06757 0.57003 0.43764 0.0
H31 H 0.19522 0.59594 0.24456 0.0
H32 H 0.11524 0.60303 0.01884 0.0
Co33 Co 0.12496 0.73324 0.15137 0.0
C34 C 0.12874 0.73194 0.37009 0.0
C35 C 0.16371 0.75079 0.31511 0.0
C36 C 0.16437 0.75179 0.41653 0.0
N37 N 0.14203 0.73803 0.28544 0.0
N38 N 0.14226 0.73991 0.45119 0.0
H39 H 0.10728 0.72287 0.37313 0.0
H40 H 0.17664 0.75946 0.26689 0.0
C41 C 0.20515 0.74165 0.1121 0.0
O42 O 0.21648 0.73187 0.1817 0.0
N43 N 0.10768 0.72879 0.01856 0.0
C44 C 0.0846 0.71661 0.98914 0.0
C45 C 0.08292 0.7162 0.88773 0.0
C46 C 0.11949 0.73569 0.9349 0.0
N47 N 0.10507 0.72816 0.85353 0.0
C48 C 0.12475 0.69931 0.21504 0.0
C49 C 0.17506 0.68616 0.08444 0.0
C50 C 0.15766 0.67522 0.14868 0.0
C51 C 0.13241 0.68219 0.2148 0.0
C52 C 0.16708 0.70345 0.08853 0.0
N53 N 0.14249 0.70995 0.15466 0.0
H54 H 0.10278 0.70372 0.26047 0.0
H55 H 0.17954 0.71142 0.03548 0.0
H56 H 0.07096 0.70822 0.03784 0.0
H57 H 0.13941 0.74556 0.93324 0.0
O58 O 0.07623 0.72999 0.20262 0.0
O59 O 0.09836 0.75421 0.15748 0.0
O60 O 0.17132 0.74259 0.09283 0.0
C61 C 0.0714 0.746 0.19426 0.0
H62 H 0.17922 0.76091 0.46091 0.0
H63 H 0.06702 0.70755 0.84287 0.0
H64 H 0.19428 0.68137 0.03048 0.0
H65 H 0.11702 0.67431 0.26291 0.0
Co66 Co 0.88835 0.48395 0.89935 0.0
C67 C 0.88413 0.48252 0.11801 0.0
C68 C 0.8508 0.50198 0.06285 0.0
C69 C 0.85012 0.50299 0.16424 0.0
N70 N 0.87145 0.48885 0.03332 0.0
N71 N 0.87122 0.49074 0.19906 0.0
H72 H 0.90475 0.47304 0.1211 0.0
H73 H 0.8386 0.51085 1.01442 0.0
C74 C 0.80813 0.4923 0.86291 0.0
O75 O 0.79742 0.48288 0.93487 0.0
N76 N 0.90546 0.47939 0.76654 0.0
C77 C 0.92818 0.46708 0.73709 0.0
C78 C 0.92974 0.46663 0.63567 0.0
C79 C 0.89375 0.48635 0.6829 0.0
N80 N 0.90789 0.4787 0.60151 0.0
C81 C 0.88955 0.44999 0.96258 0.0
C82 C 0.83772 0.43685 0.83634 0.0
C83 C 0.85579 0.42592 0.89929 0.0
C84 C 0.88185 0.43287 0.96315 0.0
C85 C 0.8458 0.45413 0.83955 0.0
N86 N 0.87111 0.46063 0.90368 0.0
H87 H 0.91205 0.45439 1.00619 0.0
H88 H 0.83279 0.46207 0.78734 0.0
H89 H 0.94166 0.45862 0.78579 0.0
H90 H 0.87409 0.49633 0.6813 0.0
O91 O 0.93717 0.48092 0.95033 0.0
O92 O 0.91467 0.50502 0.90433 0.0
O93 O 0.84175 0.49306 0.84102 0.0
C94 C 0.94177 0.49692 0.94132 0.0
H95 H 0.83601 0.51237 0.20849 0.0
H96 H 0.94535 0.45788 0.59073 0.0
H97 H 0.81787 0.43207 0.78405 0.0
H98 H 0.89775 0.42498 1.01004 0.0
Co99 Co 0.88822 0.29486 0.87986 0.0
C100 C 0.88421 0.2962 0.66114 0.0
C101 C 0.8504 0.27692 0.71622 0.0
C102 C 0.84974 0.2759 0.61481 0.0
N103 N 0.87133 0.28995 0.74581 0.0
N104 N 0.87113 0.28805 0.58007 0.0
H105 H 0.90509 0.30555 0.65806 0.0
H106 H 0.83799 0.26811 0.76457 0.0
C107 C 0.80807 0.28634 0.91707 0.0
O108 O 0.79708 0.29588 0.84592 0.0
N109 N 0.90533 0.29942 1.01271 0.0
C110 C 0.92809 0.31172 0.04221 0.0
C111 C 0.9297 0.31214 0.14362 0.0
C112 C 0.89366 0.29245 0.09632 0.0
N113 N 0.90785 0.30007 0.17773 0.0
C114 C 0.88883 0.32878 0.81631 0.0
C115 C 0.83763 0.3419 0.9444 0.0
C116 C 0.85541 0.35284 0.88095 0.0
C117 C 0.88112 0.34589 0.8161 0.0
C118 C 0.84568 0.32462 0.94074 0.0
N119 N 0.8707 0.31813 0.87579 0.0
H120 H 0.91114 0.3244 0.772 0.0
H121 H 0.83291 0.31665 0.99326 0.0
H122 H 0.94155 0.32017 0.99354 0.0
H123 H 0.874 0.28247 0.09789 0.0
O124 O 0.937 0.29806 0.82895 0.0
O125 O 0.91484 0.27389 0.87461 0.0
O126 O 0.84177 0.28557 0.93816 0.0
C127 C 0.94183 0.28207 0.83781 0.0
H128 H 0.83542 0.26659 0.5705 0.0
H129 H 0.94535 0.32088 0.18857 0.0
H130 H 0.81807 0.34668 0.99743 0.0
H131 H 0.8968 0.35379 0.76872 0.0
Co132 Co 0.12498 0.04429 0.62813 0.0
C133 C 0.12951 0.04571 0.40941 0.0
C134 C 0.16159 0.02583 0.46488 0.0
C135 C 0.1623 0.0248 0.36347 0.0
N136 N 0.14168 0.03921 0.4942 0.0
N137 N 0.14199 0.03731 0.32847 0.0
H138 H 0.10959 0.05548 0.40611 0.0
H139 H 0.17327 0.01686 0.51355 0.0
C140 C 0.20539 0.03582 0.66322 0.0
O141 O 0.21606 0.04476 0.58909 0.0
N142 N 0.10812 0.04902 0.76099 0.0
C143 C 0.08576 0.06146 0.79064 0.0
C144 C 0.08431 0.06191 0.89209 0.0
C145 C 0.11968 0.04197 0.84453 0.0
N146 N 0.10583 0.0497 0.92604 0.0
C147 C 0.12112 0.07802 0.56513 0.0
C148 C 0.17387 0.09216 0.68476 0.0
C149 C 0.15259 0.10279 0.62736 0.0
C150 C 0.12666 0.09526 0.5654 0.0
C151 C 0.16761 0.07467 0.68157 0.0
N152 N 0.14146 0.06772 0.62152 0.0
H153 H 0.09854 0.07325 0.52327 0.0
H154 H 0.18248 0.06694 0.73129 0.0
H155 H 0.07243 0.06998 0.74207 0.0
H156 H 0.139 0.03185 0.84595 0.0
O157 O 0.07603 0.04705 0.57787 0.0
O158 O 0.09884 0.0231 0.62473 0.0
O159 O 0.17186 0.03545 0.6866 0.0
C160 C 0.07156 0.03108 0.58772 0.0
H161 H 0.17591 0.01524 0.31935 0.0
H162 H 0.06898 0.07075 0.93718 0.0
H163 H 0.1938 0.09737 0.7354 0.0
H164 H 0.10946 0.10275 0.51954 0.0
Co165 Co 0.1251 0.23474 0.65388 0.0
C166 C 0.12942 0.23335 0.87261 0.0
C167 C 0.16229 0.25296 0.81724 0.0
C168 C 0.16302 0.25398 0.91865 0.0
N169 N 0.14187 0.23975 0.78786 0.0
N170 N 0.14222 0.24164 0.95358 0.0
H171 H 0.1091 0.22376 0.87586 0.0
H172 H 0.17434 0.26184 0.76863 0.0
C173 C 0.2056 0.24287 0.61847 0.0
O174 O 0.21624 0.23374 0.69185 0.0
N175 N 0.10819 0.23008 0.52097 0.0
C176 C 0.08553 0.21776 0.49132 0.0
C177 C 0.08404 0.21732 0.38988 0.0
C178 C 0.1199 0.23707 0.43744 0.0
N179 N 0.10585 0.22942 0.35593 0.0
C180 C 0.12113 0.20101 0.71712 0.0
C181 C 0.17356 0.18679 0.59685 0.0
C182 C 0.15244 0.1762 0.65486 0.0
C183 C 0.12666 0.18377 0.71708 0.0
C184 C 0.16732 0.20428 0.59983 0.0
N185 N 0.14137 0.21127 0.66029 0.0
H186 H 0.09866 0.20582 0.75921 0.0
H187 H 0.18206 0.21197 0.54967 0.0
H188 H 0.072 0.20931 0.53989 0.0
H189 H 0.13948 0.24708 0.43604 0.0
O190 O 0.07614 0.23209 0.70399 0.0
O191 O 0.09921 0.256 0.65738 0.0
O192 O 0.17204 0.24347 0.59567 0.0
C193 C 0.07185 0.24807 0.69423 0.0
H194 H 0.177 0.26342 0.96282 0.0
H195 H 0.06847 0.20856 0.34479 0.0
H196 H 0.19335 0.18155 0.54595 0.0
H197 H 0.10957 0.17631 0.7634 0.0
Co198 Co 0.88806 0.98388 0.40368 0.0
C199 C 0.88373 0.98251 0.6224 0.0
C200 C 0.85084 1.0021 0.56698 0.0
C201 C 0.85013 1.00313 0.6684 0.0
N202 N 0.87127 0.9889 0.53762 0.0
N203 N 0.87095 0.99079 0.70336 0.0
H204 H 0.90408 0.97293 0.6257 0.0
H205 H 0.83879 1.01099 0.51837 0.0
C206 C 0.80763 0.99228 0.3672 0.0
O207 O 0.79669 0.98319 0.44039 0.0
N208 N 0.90502 0.97921 0.27084 0.0
C209 C 0.92758 0.96684 0.24124 0.0
C210 C 0.92908 0.9664 0.1398 0.0
C211 C 0.8934 0.98622 0.18727 0.0
N212 N 0.90739 0.97855 0.10578 0.0
C213 C 0.89172 0.95015 0.46691 0.0
C214 C 0.83945 0.93596 0.34591 0.0
C215 C 0.86052 0.92536 0.40398 0.0
C216 C 0.8862 0.93291 0.46662 0.0
C217 C 0.84567 0.95347 0.34917 0.0
N218 N 0.87158 0.96043 0.4099 0.0
H219 H 0.91415 0.95494 0.5093 0.0
H220 H 0.83097 0.96118 0.29901 0.0
H221 H 0.94101 0.95835 0.28983 0.0
H222 H 0.87392 0.99628 0.18581 0.0
O223 O 0.93699 0.9811 0.45414 0.0
O224 O 0.91419 1.00506 0.40752 0.0
O225 O 0.84125 0.99275 0.345 0.0
C226 C 0.94145 0.99707 0.44452 0.0
H227 H 0.83616 1.01257 0.71256 0.0
H228 H 0.94458 0.95762 0.09476 0.0
H229 H 0.81972 0.93074 0.29475 0.0
H230 H 0.90324 0.92544 0.51303 0.0
Co231 Co 0.88829 0.79337 0.37937 0.0
C232 C 0.88373 0.79482 0.16068 0.0
C233 C 0.85168 0.77493 0.21605 0.0
C234 C 0.85096 0.7739 0.11464 0.0
N235 N 0.87158 0.78831 0.24542 0.0
N236 N 0.87127 0.78642 0.07969 0.0
H237 H 0.90362 0.8046 0.15747 0.0
H238 H 0.84 0.76595 0.2647 0.0
C239 C 0.80783 0.78507 0.41392 0.0
O240 O 0.79731 0.79399 0.33952 0.0
N241 N 0.90517 0.79808 0.51227 0.0
C242 C 0.92762 0.81049 0.54195 0.0
C243 C 0.92906 0.81095 0.6434 0.0
C244 C 0.89355 0.79106 0.59579 0.0
N245 N 0.90745 0.79877 0.67732 0.0
C246 C 0.89256 0.82711 0.31638 0.0
C247 C 0.83953 0.84133 0.43465 0.0
C248 C 0.86092 0.85192 0.37737 0.0
C249 C 0.88702 0.84435 0.31615 0.0
C250 C 0.8458 0.82383 0.43198 0.0
N251 N 0.87206 0.81684 0.37253 0.0
H252 H 0.91521 0.8223 0.27497 0.0
H253 H 0.83079 0.81615 0.48158 0.0
H254 H 0.94102 0.81899 0.49339 0.0
H255 H 0.87415 0.78097 0.59718 0.0
O256 O 0.93727 0.79599 0.32928 0.0
O257 O 0.9142 0.7721 0.3762 0.0
O258 O 0.84132 0.78466 0.43768 0.0
C259 C 0.94156 0.78001 0.3392 0.0
H260 H 0.83736 0.76434 0.07049 0.0
H261 H 0.94446 0.81976 0.68852 0.0
H262 H 0.81947 0.84657 0.48476 0.0
H263 H 0.90431 0.85181 0.27038 0.0
Co264 Co 0.62455 0.54341 0.62675 0.0
C265 C 0.62892 0.54479 0.40801 0.0
C266 C 0.66131 0.52502 0.4635 0.0
C267 C 0.66204 0.52399 0.3621 0.0
N268 N 0.64119 0.53833 0.49279 0.0
N269 N 0.64153 0.53644 0.32709 0.0
H270 H 0.60885 0.55449 0.40469 0.0
H271 H 0.67315 0.51609 0.51218 0.0
C272 C 0.70501 0.53524 0.66129 0.0
O273 O 0.71545 0.54428 0.58737 0.0
N274 N 0.60776 0.54813 0.75965 0.0
C275 C 0.58525 0.56051 0.78929 0.0
C276 C 0.58379 0.56096 0.89073 0.0
C277 C 0.61941 0.54112 0.84317 0.0
N278 N 0.60546 0.5488 0.92467 0.0
C279 C 0.62053 0.57712 0.56335 0.0
C280 C 0.67325 0.59132 0.68286 0.0
C281 C 0.65205 0.60191 0.62508 0.0
C282 C 0.62611 0.59436 0.56322 0.0
C283 C 0.66696 0.57384 0.68005 0.0
N284 N 0.64087 0.56686 0.61996 0.0
H285 H 0.59795 0.57232 0.52159 0.0
H286 H 0.68177 0.56615 0.73008 0.0
H287 H 0.57179 0.56899 0.74071 0.0
H288 H 0.63886 0.53104 0.84458 0.0
O289 O 0.57557 0.54607 0.57682 0.0
O290 O 0.59862 0.52217 0.6237 0.0
O291 O 0.67153 0.5347 0.68483 0.0
C292 C 0.57124 0.5301 0.58687 0.0
H293 H 0.67581 0.51448 0.31798 0.0
H294 H 0.56833 0.56975 0.93582 0.0
H295 H 0.69316 0.59655 0.7335 0.0
H296 H 0.60895 0.60182 0.51711 0.0
Co297 Co 0.62458 0.73377 0.65173 0.0
C298 C 0.62892 0.73242 0.87052 0.0
C299 C 0.66134 0.75217 0.81509 0.0
C300 C 0.66206 0.75321 0.9165 0.0
N301 N 0.64121 0.73886 0.78575 0.0
N302 N 0.64154 0.74077 0.95146 0.0
H303 H 0.6088 0.72274 0.87383 0.0
H304 H 0.6732 0.7611 0.76644 0.0
C305 C 0.70498 0.74213 0.61686 0.0
O306 O 0.71558 0.7331 0.69067 0.0
N307 N 0.60779 0.72902 0.51881 0.0
C308 C 0.58539 0.7166 0.48911 0.0
C309 C 0.58392 0.71616 0.38767 0.0
C310 C 0.61935 0.73607 0.43532 0.0
N311 N 0.60547 0.72836 0.35378 0.0
C312 C 0.62097 0.70006 0.71522 0.0
C313 C 0.67343 0.68591 0.59475 0.0
C314 C 0.65233 0.6753 0.65262 0.0
C315 C 0.62656 0.68283 0.71501 0.0
C316 C 0.66714 0.7034 0.59794 0.0
N317 N 0.64115 0.71035 0.65841 0.0
H318 H 0.59846 0.70483 0.75728 0.0
H319 H 0.68185 0.71112 0.54785 0.0
H320 H 0.57204 0.70808 0.53764 0.0
H321 H 0.63869 0.74618 0.43397 0.0
O322 O 0.57564 0.73095 0.70167 0.0
O323 O 0.59837 0.75493 0.65494 0.0
O324 O 0.67145 0.74261 0.59356 0.0
C325 C 0.5711 0.74691 0.69171 0.0
H326 H 0.67584 0.76272 0.96066 0.0
H327 H 0.56854 0.70734 0.34253 0.0
H328 H 0.69322 0.6807 0.54376 0.0
H329 H 0.60949 0.67534 0.7612 0.0
Co330 Co 0.38735 0.48343 0.40244 0.0
C331 C 0.38343 0.4821 0.62117 0.0
C332 C 0.34942 0.50131 0.56603 0.0
C333 C 0.34876 0.50232 0.66743 0.0
N334 N 0.37048 0.48832 0.53648 0.0
N335 N 0.37027 0.49022 0.7022 0.0
H336 H 0.4044 0.47279 0.62428 0.0
H337 H 0.33692 0.5101 0.51768 0.0
C338 C 0.3072 0.49189 0.36508 0.0
O339 O 0.29622 0.48227 0.43578 0.0
N340 N 0.40443 0.47888 0.26961 0.0
C341 C 0.42728 0.46662 0.24019 0.0
C342 C 0.42891 0.46619 0.13878 0.0
C343 C 0.3927 0.48583 0.18598 0.0
N344 N 0.40697 0.47823 0.10461 0.0
C345 C 0.38781 0.4495 0.46596 0.0
C346 C 0.33676 0.43642 0.33716 0.0
C347 C 0.35447 0.42547 0.40068 0.0
C348 C 0.38011 0.43239 0.46588 0.0
C349 C 0.34483 0.4537 0.34104 0.0
N350 N 0.36977 0.46017 0.40634 0.0
H351 H 0.41007 0.45388 0.51056 0.0
H352 H 0.33215 0.46168 0.28841 0.0
H353 H 0.44082 0.45819 0.28889 0.0
H354 H 0.37295 0.49577 0.18434 0.0
O355 O 0.43612 0.48018 0.45334 0.0
O356 O 0.41398 0.50438 0.40778 0.0
O357 O 0.3409 0.49273 0.34426 0.0
C358 C 0.44098 0.49617 0.44449 0.0
H359 H 0.33435 0.5116 0.71171 0.0
H360 H 0.44465 0.45749 0.09388 0.0
H361 H 0.31724 0.43167 0.28388 0.0
H362 H 0.39574 0.42448 0.51331 0.0
Co363 Co 0.38832 0.29449 0.37898 0.0
C364 C 0.38428 0.29586 0.16027 0.0
C365 C 0.35049 0.27656 0.21531 0.0
C366 C 0.34983 0.27555 0.11391 0.0
N367 N 0.37142 0.28959 0.24493 0.0
N368 N 0.37121 0.28771 0.07919 0.0
H369 H 0.40514 0.30522 0.15724 0.0
H370 H 0.33809 0.26774 0.26365 0.0
C371 C 0.3082 0.28598 0.41625 0.0
O372 O 0.29724 0.29554 0.34519 0.0
N373 N 0.40544 0.29904 0.51182 0.0
C374 C 0.42818 0.31135 0.5413 0.0
C375 C 0.42978 0.31179 0.64271 0.0
C376 C 0.39376 0.29208 0.59544 0.0
N377 N 0.40794 0.29971 0.67685 0.0
C378 C 0.38869 0.32844 0.31567 0.0
C379 C 0.33735 0.34142 0.44381 0.0
C380 C 0.35501 0.35241 0.38044 0.0
C381 C 0.38082 0.34553 0.3156 0.0
C382 C 0.3456 0.32416 0.44013 0.0
N383 N 0.37067 0.31774 0.3751 0.0
H384 H 0.41102 0.3241 0.27128 0.0
H385 H 0.33294 0.31617 0.49268 0.0
H386 H 0.44164 0.31981 0.49262 0.0
H387 H 0.37409 0.2821 0.59703 0.0
O388 O 0.43707 0.29775 0.328 0.0
O389 O 0.41501 0.27354 0.37357 0.0
O390 O 0.3419 0.28517 0.43725 0.0
C391 C 0.44196 0.28176 0.33677 0.0
H392 H 0.33553 0.26624 0.06959 0.0
H393 H 0.44543 0.32053 0.68765 0.0
H394 H 0.31771 0.34614 0.49682 0.0
H395 H 0.39643 0.35347 0.26831 0.0
Co396 Co 0.62546 0.04408 0.12607 0.0
C397 C 0.62976 0.04544 0.90734 0.0
C398 C 0.66274 0.02588 0.96276 0.0
C399 C 0.66346 0.02485 0.86133 0.0
N400 N 0.64226 0.03907 0.99212 0.0
N401 N 0.64258 0.03717 0.82638 0.0
H402 H 0.60935 0.055 0.90404 0.0
H403 H 0.67482 0.017 1.01134 0.0
C404 C 0.70586 0.03564 0.16271 0.0
O405 O 0.71683 0.04478 0.08974 0.0
N406 N 0.6085 0.04875 0.25891 0.0
C407 C 0.58594 0.06112 0.28851 0.0
C408 C 0.58443 0.06156 0.38994 0.0
C409 C 0.62012 0.04174 0.34248 0.0
N410 N 0.60612 0.04941 0.42396 0.0
C411 C 0.62203 0.07781 0.06289 0.0
C412 C 0.67416 0.09194 0.18454 0.0
C413 C 0.6532 0.10257 0.12636 0.0
C414 C 0.62759 0.09505 0.06339 0.0
C415 C 0.6679 0.07445 0.18108 0.0
N416 N 0.64205 0.06751 0.12003 0.0
H417 H 0.59964 0.07305 0.02026 0.0
H418 H 0.6825 0.06671 0.23134 0.0
H419 H 0.57252 0.06961 0.23991 0.0
H420 H 0.63959 0.03168 0.34395 0.0
O421 O 0.57656 0.04693 0.07558 0.0
O422 O 0.59922 0.02293 0.12205 0.0
O423 O 0.67222 0.03515 0.18474 0.0
C424 C 0.572 0.03096 0.08509 0.0
H425 H 0.67747 0.01542 0.81716 0.0
H426 H 0.56894 0.07034 0.43498 0.0
H427 H 0.69384 0.09715 0.23595 0.0
H428 H 0.61062 0.10255 0.01692 0.0
Co429 Co 0.62536 0.23453 0.15275 0.0
C430 C 0.62983 0.2331 0.37144 0.0
C431 C 0.6621 0.25291 0.31609 0.0
C432 C 0.66282 0.25394 0.41749 0.0
N433 N 0.64206 0.23958 0.28671 0.0
N434 N 0.64238 0.24146 0.45243 0.0
H435 H 0.60983 0.22336 0.37465 0.0
H436 H 0.67387 0.26187 0.26746 0.0
C437 C 0.7058 0.24286 0.11797 0.0
O438 O 0.71643 0.23384 0.19182 0.0
N439 N 0.6085 0.22983 0.01983 0.0
C440 C 0.58596 0.21745 0.99017 0.0
C441 C 0.5845 0.217 0.88872 0.0
C442 C 0.62016 0.23683 0.9363 0.0
N443 N 0.60619 0.22915 0.85479 0.0
C444 C 0.62129 0.20078 0.21569 0.0
C445 C 0.67415 0.18661 0.09663 0.0
C446 C 0.65286 0.176 0.15404 0.0
C447 C 0.62685 0.18354 0.21565 0.0
C448 C 0.66786 0.2041 0.09955 0.0
N449 N 0.64169 0.21107 0.15939 0.0
H450 H 0.5987 0.20558 0.25737 0.0
H451 H 0.68276 0.21181 0.04983 0.0
H452 H 0.57251 0.20898 0.03874 0.0
H453 H 0.63963 0.24689 0.93489 0.0
O454 O 0.57639 0.23186 0.2028 0.0
O455 O 0.59939 0.25577 0.15604 0.0
O456 O 0.67228 0.2433 0.09457 0.0
C457 C 0.57204 0.24783 0.19293 0.0
H458 H 0.67652 0.26347 0.46165 0.0
H459 H 0.56903 0.20821 0.84361 0.0
H460 H 0.69413 0.18139 0.04622 0.0
H461 H 0.60963 0.17606 0.26149 0.0
Co462 Co 0.3881 0.98405 0.90154 0.0
C463 C 0.38355 0.98263 0.12025 0.0
C464 C 0.35173 1.0026 0.06481 0.0
C465 C 0.35104 1.00363 0.16621 0.0
N466 N 0.37147 0.98917 0.03548 0.0
N467 N 0.37119 0.99106 0.2012 0.0
H468 H 0.40334 0.9728 0.12352 0.0
H469 H 0.34016 1.01161 0.01614 0.0
C470 C 0.30777 0.99265 0.8667 0.0
O471 O 0.29709 0.98373 0.94092 0.0
N472 N 0.40489 0.97928 0.76867 0.0
C473 C 0.42714 0.96679 0.73902 0.0
C474 C 0.42859 0.96633 0.63757 0.0
C475 C 0.3934 0.98634 0.68513 0.0
N476 N 0.40718 0.97859 0.60362 0.0
C477 C 0.39168 0.9503 0.9645 0.0
C478 C 0.33866 0.93629 0.84528 0.0
C479 C 0.35985 0.92562 0.90258 0.0
C480 C 0.38594 0.93308 0.96431 0.0
C481 C 0.34514 0.95377 0.84835 0.0
N482 N 0.37141 0.96065 0.90823 0.0
H483 H 0.41435 0.95503 1.00622 0.0
H484 H 0.33032 0.96152 0.79867 0.0
H485 H 0.4404 0.95825 0.78759 0.0
H486 H 0.37416 0.9965 0.68372 0.0
O487 O 0.43704 0.9812 0.95174 0.0
O488 O 0.41443 1.00519 0.90486 0.0
O489 O 0.34128 0.99297 0.84314 0.0
C490 C 0.44164 0.99716 0.94185 0.0
H491 H 0.33755 1.01323 0.21034 0.0
H492 H 0.44385 0.95747 0.59248 0.0
H493 H 0.31862 0.93112 0.79479 0.0
H494 H 0.4031 0.92554 1.01002 0.0
Co495 Co 0.38702 0.79376 0.87345 0.0
C496 C 0.38305 0.79502 0.65465 0.0
C497 C 0.34929 0.77574 0.70998 0.0
C498 C 0.34856 0.77472 0.60856 0.0
N499 N 0.37025 0.78877 0.7394 0.0
N500 N 0.36991 0.78687 0.57368 0.0
H501 H 0.40385 0.8044 0.65137 0.0
H502 H 0.33684 0.76696 0.75849 0.0
C503 C 0.3066 0.78546 0.91042 0.0
O504 O 0.29554 0.79481 0.83851 0.0
N505 N 0.40393 0.79841 1.00636 0.0
C506 C 0.42668 0.81071 0.03597 0.0
C507 C 0.42824 0.81112 0.1374 0.0
C508 C 0.39223 0.79143 0.08989 0.0
N509 N 0.40638 0.79904 0.17138 0.0
C510 C 0.39011 0.82747 0.80973 0.0
C511 C 0.33851 0.84161 0.93296 0.0
C512 C 0.3592 0.85223 0.87406 0.0
C513 C 0.38452 0.8447 0.8103 0.0
C514 C 0.34478 0.82412 0.92938 0.0
N515 N 0.37034 0.81717 0.86754 0.0
H516 H 0.41233 0.8227 0.76658 0.0
H517 H 0.33044 0.81639 0.98018 0.0
H518 H 0.44022 0.81915 0.98739 0.0
H519 H 0.37261 0.78143 0.09133 0.0
O520 O 0.43593 0.79666 0.82326 0.0
O521 O 0.41328 0.77263 0.86946 0.0
O522 O 0.34029 0.78479 0.93172 0.0
C523 C 0.44051 0.78069 0.83279 0.0
H524 H 0.33419 0.76541 0.56432 0.0
H525 H 0.44389 0.81985 0.18244 0.0
H526 H 0.31909 0.84683 0.985 0.0
H527 H 0.40128 0.85219 0.76331 0.0
C528 C 0.24374 0.50278 0.33616 0.0
C529 C 0.28089 0.5029 0.31311 0.0
H530 H 0.19102 0.51285 0.3089 0.0
C531 C 0.29286 0.51409 0.24176 0.0
H532 H 0.23338 0.49443 0.39071 0.0
C533 C 0.26849 0.52478 0.19488 0.0
C534 C 0.23134 0.52466 0.21792 0.0
H535 H 0.32122 0.51471 0.22216 0.0
H536 H 0.27885 0.53312 0.1403 0.0
C537 C 0.21938 0.51347 0.28932 0.0
C538 C 0.00981 0.74559 0.27453 0.0
C539 C 0.03787 0.75459 0.23019 0.0
H540 H 0.9576 0.74648 0.34414 0.0
C541 C 0.0341 0.77202 0.22354 0.0
H542 H 0.01186 0.73217 0.2814 0.0
C543 C 1.00311 0.78022 0.25996 0.0
C544 C 0.975 0.77124 0.30416 0.0
H545 H 0.05519 0.77937 0.19033 0.0
H546 H 1.00113 0.79365 0.25298 0.0
C547 C 0.97875 0.75381 0.31097 0.0
C548 C 0.29269 0.76321 0.03383 0.0
C549 C 0.28043 0.77448 0.9632 0.0
H550 H 0.27912 0.74409 0.13509 0.0
C551 C 0.24316 0.77468 0.94157 0.0
H552 H 0.32114 0.76252 0.0523 0.0
C553 C 0.21897 0.76398 0.98907 0.0
C554 C 0.23124 0.7527 0.0596 0.0
H555 H 0.23256 0.78309 0.88765 0.0
H556 H 0.19052 0.76467 0.97058 0.0
C557 C 0.26851 0.75251 0.08123 0.0
C558 C 0.97891 0.52306 0.96999 0.0
C559 C 0.97521 0.50563 0.97701 0.0
H560 H 0.01185 0.54474 0.99943 0.0
C561 C 1.00326 0.49669 0.02173 0.0
H562 H 0.95781 0.53037 0.93644 0.0
C563 C 0.03422 0.50495 0.05832 0.0
C564 C 0.03792 0.52238 0.0513 0.0
H565 H 1.00129 0.48327 0.02889 0.0
H566 H 0.05532 0.49764 0.09187 0.0
C567 C 0.00987 0.53133 1.00658 0.0
C568 C 0.74459 0.50312 0.83496 0.0
C569 C 0.7816 0.50311 0.81041 0.0
H570 H 0.69176 0.51311 0.80834 0.0
C571 C 0.79322 0.51399 0.73699 0.0
H572 H 0.73449 0.49502 0.89112 0.0
C573 C 0.76864 0.52449 0.68951 0.0
C574 C 0.73162 0.5245 0.71405 0.0
H575 H 0.82147 0.5145 0.71619 0.0
H576 H 0.77872 0.53259 0.63329 0.0
C577 C 0.72001 0.51363 0.78756 0.0
C578 C 0.01026 0.24785 0.77324 0.0
C579 C 0.03838 0.25682 0.7291 0.0
H580 H 0.95809 0.2487 0.84246 0.0
C581 C 0.03461 0.27425 0.72206 0.0
H582 H 0.01225 0.23443 0.78038 0.0
C583 C 1.00351 0.28247 0.75816 0.0
C584 C 0.97541 0.27347 0.80237 0.0
H585 H 0.05577 0.28158 0.68894 0.0
H586 H 1.00144 0.29589 0.75109 0.0
C587 C 0.97921 0.25605 0.80932 0.0
C588 C 0.76927 0.25379 0.08936 0.0
C589 C 0.7322 0.25372 0.06529 0.0
H590 H 0.82194 0.26394 0.06252 0.0
C591 C 0.72033 0.26466 0.99243 0.0
H592 H 0.77956 0.24563 0.14508 0.0
C593 C 0.7447 0.2753 0.94526 0.0
C594 C 0.78177 0.27538 0.96935 0.0
H595 H 0.69203 0.26515 0.97203 0.0
H596 H 0.73439 0.28346 0.88963 0.0
C597 C 0.79365 0.26441 0.04209 0.0
C598 C 0.29312 0.01409 0.73884 0.0
C599 C 0.28139 1.00348 0.81356 0.0
H600 H 0.27893 0.03253 0.63386 0.0
C601 C 0.24444 1.00383 0.83893 0.0
H602 H 0.32132 0.01435 0.71737 0.0
C603 C 0.22006 0.01439 0.7911 0.0
C604 C 0.23178 0.025 0.71639 0.0
H605 H 0.23424 0.99595 0.89608 0.0
H606 H 0.19186 0.01413 0.81257 0.0
C607 C 0.26873 0.02465 0.69102 0.0
C608 C 0.22026 0.26464 0.4929 0.0
C609 C 0.23208 0.25364 0.56552 0.0
H610 H 0.23443 0.28339 0.38993 0.0
C611 C 0.2692 0.25355 0.58898 0.0
H612 H 0.19193 0.26525 0.47298 0.0
C613 C 0.29367 0.26409 0.54133 0.0
C614 C 0.28183 0.2751 0.46882 0.0
H615 H 0.27946 0.24535 0.64448 0.0
H616 H 0.322 0.2635 0.56129 0.0
C617 C 0.24471 0.27518 0.44534 0.0
C618 C 1.00313 0.99677 0.52372 0.0
C619 C 0.97498 1.00576 0.47961 0.0
H620 H 0.0554 0.99763 0.59282 0.0
C621 C 0.97876 0.02318 0.47265 0.0
H622 H 1.0011 0.98335 0.5308 0.0
C623 C 0.00987 0.03138 0.5087 0.0
C624 C 0.03802 0.02238 0.55279 0.0
H625 H 0.9576 0.03052 0.43959 0.0
H626 H 0.01189 0.0448 0.50161 0.0
C627 C 0.03424 1.00497 0.55977 0.0
C628 C 0.72004 1.0139 0.28916 0.0
C629 C 0.73208 0.02476 0.21609 0.0
H630 H 0.73383 0.99522 0.39309 0.0
C631 C 0.7692 0.02462 0.19263 0.0
H632 H 0.6917 1.01346 0.30912 0.0
C633 C 0.79344 0.01402 0.24071 0.0
C634 C 0.7814 1.00316 0.31379 0.0
H635 H 0.77965 0.0327 0.1368 0.0
H636 H 0.82178 0.01446 0.22076 0.0
C637 C 0.74428 1.0033 0.33725 0.0
C638 C 0.76844 0.75315 0.58928 0.0
C639 C 0.73148 0.75291 0.56392 0.0
H640 H 0.82114 0.76331 0.56301 0.0
C641 C 0.71985 0.76358 0.48937 0.0
H642 H 0.77855 0.74522 0.64631 0.0
C643 C 0.74435 0.77409 0.44165 0.0
C644 C 0.78131 0.77432 0.467 0.0
H645 H 0.69165 0.76393 0.46792 0.0
H646 H 0.73425 0.78202 0.38459 0.0
C647 C 0.79293 0.76366 0.54158 0.0
C648 C 0.47806 0.75466 0.80529 0.0
C649 C 0.47415 0.77207 0.79817 0.0
H650 H 0.51143 0.7331 0.777 0.0
C651 C 0.50229 0.78111 0.75446 0.0
H652 H 0.45692 0.74728 0.83808 0.0
C653 C 0.53354 0.77297 0.71895 0.0
C654 C 0.53745 0.75556 0.72612 0.0
H655 H 0.50016 0.79452 0.74728 0.0
H656 H 0.5547 0.78034 0.68619 0.0
C657 C 0.50931 0.74652 0.7698 0.0
C658 C 0.5339 0.50394 0.55959 0.0
C659 C 0.53771 0.52136 0.55236 0.0
H660 H 0.50063 0.48233 0.53097 0.0
C661 C 0.50956 0.53035 0.50839 0.0
H662 H 0.55508 0.49661 0.59261 0.0
C663 C 0.47844 0.52216 0.47261 0.0
C664 C 0.47461 0.50475 0.47972 0.0
H665 H 0.51159 0.54377 0.50112 0.0
H666 H 0.45731 0.52952 0.43956 0.0
C667 C 0.50272 0.49574 0.52379 0.0
C668 C 0.4794 0.25576 0.30812 0.0
C669 C 0.47556 0.27318 0.30122 0.0
H670 H 0.51249 0.23416 0.27909 0.0
C671 C 0.50362 0.2822 0.25696 0.0
H672 H 0.45832 0.2484 0.34128 0.0
C673 C 0.53474 0.27399 0.22079 0.0
C674 C 0.53855 0.25657 0.2278 0.0
H675 H 0.50152 0.29561 0.24993 0.0
H676 H 0.55587 0.28133 0.18765 0.0
C677 C 0.51046 0.24757 0.27196 0.0
C678 C 0.47917 0.02321 0.9698 0.0
C679 C 0.47526 1.0058 0.97675 0.0
H680 H 0.51246 0.04477 0.99882 0.0
C681 C 0.50335 0.99675 0.02079 0.0
H682 H 0.45806 0.03058 0.93678 0.0
C683 C 0.53452 1.0049 0.05685 0.0
C684 C 0.53842 0.02232 0.04995 0.0
H685 H 0.50123 0.98334 0.02785 0.0
H686 H 0.55563 0.99753 0.08988 0.0
C687 C 0.51034 0.03136 1.00586 0.0
C688 C 0.12715 0.53045 0.55631 0.0
C689 C 0.11401 0.54614 0.52858 0.0
H690 H 0.14575 0.51522 0.67272 0.0
C691 C 0.11032 0.55883 0.60184 0.0
H692 H 0.12997 0.52031 0.50242 0.0
C693 C 0.11954 0.55594 0.6998 0.0
C694 C 0.13264 0.54025 0.7277 0.0
H695 H 0.10097 0.57116 0.58342 0.0
H696 H 0.11691 0.56614 0.75336 0.0
C697 C 0.13629 0.52754 0.65441 0.0
C698 C 0.12786 0.74681 0.72429 0.0
C699 C 0.11391 0.73126 0.75183 0.0
H700 H 0.14729 0.76187 0.60805 0.0
C701 C 0.10952 0.71865 0.67835 0.0
H702 H 0.13125 0.7569 0.77829 0.0
C703 C 0.11885 0.72149 0.58044 0.0
C704 C 0.13279 0.73703 0.55279 0.0
H705 H 0.09954 0.70642 0.69653 0.0
H706 H 0.11566 0.71135 0.5267 0.0
C707 C 0.13715 0.74966 0.62623 0.0
C708 C 0.88606 0.49756 0.47211 0.0
C709 C 0.89909 0.48185 0.49984 0.0
H710 H 0.86754 0.51281 0.3557 0.0
C711 C 0.90268 0.46915 0.42658 0.0
H712 H 0.8833 0.5077 0.52599 0.0
C713 C 0.89347 0.47205 0.32863 0.0
C714 C 0.88049 0.48776 0.30073 0.0
H715 H 0.91195 0.4568 0.445 0.0
H716 H 0.89603 0.46185 0.27507 0.0
C717 C 0.87692 0.50048 0.37401 0.0
C718 C 0.90285 0.30958 0.35276 0.0
C719 C 0.89907 0.29691 0.2794 0.0
H720 H 0.89634 0.31687 0.50431 0.0
C721 C 0.88584 0.28124 0.30701 0.0
H722 H 0.91226 0.32191 0.33446 0.0
C723 C 0.87668 0.27832 0.40508 0.0
C724 C 0.88044 0.29101 0.47844 0.0
H725 H 0.88293 0.27111 0.25306 0.0
H726 H 0.86713 0.26601 0.42332 0.0
C727 C 0.89363 0.30668 0.45067 0.0
C728 C 0.12074 0.05622 0.19879 0.0
C729 C 0.13296 0.04038 0.22673 0.0
H730 H 0.10294 0.07164 0.08244 0.0
C731 C 0.13593 0.02764 0.15344 0.0
H732 H 0.11868 0.06646 0.25231 0.0
C733 C 0.12691 0.03065 0.05534 0.0
C734 C 0.11458 0.04647 0.02765 0.0
H735 H 0.14471 0.01521 0.17173 0.0
H736 H 0.12917 0.02047 1.00144 0.0
C737 C 0.11163 0.05921 0.10088 0.0
C738 C 0.12743 0.24836 0.22671 0.0
C739 C 0.11464 0.23261 0.25433 0.0
H740 H 0.14567 0.26369 0.11038 0.0
C741 C 0.11126 0.2199 0.18103 0.0
H742 H 0.13003 0.25851 0.28066 0.0
C743 C 0.12041 0.22285 0.08312 0.0
C744 C 0.13312 0.23861 0.05528 0.0
H745 H 0.1022 0.20753 0.19939 0.0
H746 H 0.11802 0.21264 0.02954 0.0
C747 C 0.1365 0.25133 0.12863 0.0
C748 C 0.90197 0.96905 0.93082 0.0
C749 C 0.89861 0.98175 1.00415 0.0
H750 H 0.89517 0.96179 0.77932 0.0
C751 C 0.88582 0.9975 0.97653 0.0
H752 H 0.91103 0.95667 0.94916 0.0
C753 C 0.87672 1.00048 0.87844 0.0
C754 C 0.88008 0.98776 0.80507 0.0
H755 H 0.88323 1.00765 0.03048 0.0
H756 H 0.86754 1.01284 0.8602 0.0
C757 C 0.89279 0.972 0.83291 0.0
C758 C 0.89258 0.80532 0.95005 0.0
C759 C 0.8803 0.78949 0.97797 0.0
H760 H 0.91044 0.82072 0.8337 0.0
C761 C 0.87729 0.77674 0.90467 0.0
H762 H 0.89469 0.81555 1.00355 0.0
C763 C 0.88631 0.77974 0.8066 0.0
C764 C 0.89869 0.79556 0.77892 0.0
H765 H 0.86846 0.76433 0.92295 0.0
H766 H 0.884 0.76957 0.7527 0.0
C767 C 0.9017 0.80829 0.85214 0.0
C768 C 0.62667 0.52977 0.05392 0.0
C769 C 0.6142 0.54558 0.02627 0.0
H770 H 0.64456 0.51436 0.17031 0.0
C771 C 0.61108 0.5583 0.09954 0.0
H772 H 0.62906 0.51961 0.99998 0.0
C773 C 0.62016 0.55532 0.19747 0.0
C774 C 0.63252 0.5395 0.22536 0.0
H775 H 0.60227 0.57072 0.08112 0.0
H776 H 0.61797 0.56554 0.25103 0.0
C777 C 0.63566 0.52677 0.15203 0.0
C778 C 0.62019 0.72188 0.08099 0.0
C779 C 0.63252 0.7377 0.05317 0.0
H780 H 0.60232 0.70646 0.19723 0.0
C781 C 0.63563 0.75043 0.12654 0.0
H782 H 0.61802 0.71166 0.02741 0.0
C783 C 0.62663 0.74741 0.22461 0.0
C784 C 0.61419 0.7316 0.25219 0.0
H785 H 0.64452 0.76284 0.10829 0.0
H786 H 0.629 0.75757 0.27858 0.0
C787 C 0.6111 0.71888 0.17888 0.0
C788 C 0.4021 0.46872 0.92956 0.0
C789 C 0.3982 0.48138 1.00293 0.0
H790 H 0.39569 0.46144 0.77796 0.0
C791 C 0.38486 0.49704 0.97531 0.0
H792 H 0.4116 0.45641 0.94788 0.0
C793 C 0.37571 0.49995 0.87721 0.0
C794 C 0.37958 0.48727 0.80384 0.0
H795 H 0.38187 0.50716 0.02927 0.0
H796 H 0.36607 0.51224 0.85895 0.0
C797 C 0.39289 0.47162 0.83162 0.0
C798 C 0.39371 0.30634 0.94978 0.0
C799 C 0.38052 0.29066 0.97756 0.0
H800 H 0.41234 0.32156 0.83354 0.0
C801 C 0.37677 0.27797 0.90422 0.0
H802 H 0.39641 0.31653 1.00341 0.0
C803 C 0.38594 0.28089 0.80615 0.0
C804 C 0.39916 0.29656 0.77851 0.0
H805 H 0.36723 0.26567 0.92247 0.0
H806 H 0.38304 0.27075 0.75221 0.0
C807 C 0.40293 0.30924 0.85186 0.0
C808 C 0.62773 0.03046 0.55321 0.0
C809 C 0.6149 0.04621 0.5256 0.0
H810 H 0.64604 0.01513 0.66954 0.0
C811 C 0.61151 0.0589 0.59894 0.0
H812 H 0.63034 0.02031 0.49926 0.0
C813 C 0.62069 0.05595 0.69685 0.0
C814 C 0.63344 0.0402 0.72467 0.0
H815 H 0.60243 0.07128 0.58061 0.0
H816 H 0.61828 0.06616 0.75045 0.0
C817 C 0.63683 0.02749 0.6513 0.0
C818 C 0.62743 0.24815 0.72553 0.0
C819 C 0.61494 0.23235 0.75319 0.0
H820 H 0.64536 0.26355 0.60917 0.0
C821 C 0.61183 0.21962 0.67995 0.0
H822 H 0.62981 0.25832 0.77944 0.0
C823 C 0.62095 0.2226 0.58204 0.0
C824 C 0.63333 0.23841 0.55414 0.0
H825 H 0.60301 0.20721 0.69838 0.0
H826 H 0.61876 0.21237 0.52851 0.0
C827 C 0.63645 0.25115 0.62745 0.0
C828 C 0.40128 0.96909 0.42879 0.0
C829 C 0.39847 0.98183 0.50201 0.0
H830 H 0.39416 0.96186 0.27736 0.0
C831 C 0.38633 0.99769 0.47432 0.0
H832 H 0.40984 0.95664 0.44724 0.0
C833 C 0.37736 1.00072 0.37623 0.0
C834 C 0.38018 0.98797 0.30293 0.0
H835 H 0.38418 1.00787 0.52822 0.0
H836 H 0.36872 1.01317 0.35793 0.0
C837 C 0.39221 0.9721 0.33087 0.0
C838 C 0.40136 0.8085 0.34646 0.0
C839 C 0.39762 0.79585 0.273 0.0
H840 H 0.39488 0.81574 0.49807 0.0
C841 C 0.38445 0.78015 0.30048 0.0
H842 H 0.41072 0.82084 0.32825 0.0
C843 C 0.37534 0.77719 0.39856 0.0
C844 C 0.37909 0.78986 0.47202 0.0
H845 H 0.38157 0.77003 0.24644 0.0
H846 H 0.36585 0.76488 0.41673 0.0
C847 C 0.39219 0.80556 0.44435 0.0
C848 C 0.163 0.63011 0.04786 0.0
C849 C 0.16278 0.62077 0.13433 0.0
H850 H 0.16207 0.65437 0.98415 0.0
C851 C 0.16449 0.62962 0.22525 0.0
H852 H 0.16202 0.62378 0.97637 0.0
C853 C 0.1644 0.64722 0.22963 0.0
C854 C 0.16304 0.65655 0.14325 0.0
H855 H 0.16412 0.62296 0.29341 0.0
H856 H 0.1645 0.65355 0.30115 0.0
C857 C 0.16335 0.64771 0.05222 0.0
C858 C 0.84878 0.3984 0.80369 0.0
C859 C 0.8502 0.40727 0.89457 0.0
H860 H 0.84906 0.37444 0.72806 0.0
C861 C 0.84968 0.39797 0.98115 0.0
H862 H 0.84939 0.40504 0.73547 0.0
C863 C 0.84933 0.38037 0.97697 0.0
C864 C 0.84995 0.3715 0.88603 0.0
H865 H 0.85045 0.40432 0.05257 0.0
H866 H 0.85038 0.37372 0.04513 0.0
C867 C 0.84889 0.3808 0.79951 0.0
C868 C 0.18687 0.13065 0.63888 0.0
C869 C 0.15407 0.12159 0.63679 0.0
H870 H 0.21241 0.15497 0.64435 0.0
C871 C 0.12151 0.13073 0.64001 0.0
H872 H 0.21248 0.12407 0.63602 0.0
C873 C 0.12146 0.14821 0.64397 0.0
C874 C 0.15398 0.15739 0.64585 0.0
H875 H 0.09565 0.12434 0.63987 0.0
H876 H 0.09556 0.15457 0.64501 0.0
C877 C 0.18682 0.14836 0.64254 0.0
C878 C 0.8917 0.89742 0.39272 0.0
C879 C 0.85911 0.90655 0.3947 0.0
H880 H 0.91771 0.87359 0.38895 0.0
C881 C 0.82635 0.89746 0.39161 0.0
H882 H 0.91755 0.90382 0.39366 0.0
C883 C 0.82644 0.87975 0.38818 0.0
C884 C 0.8593 0.87074 0.38613 0.0
H885 H 0.80071 0.90403 0.3935 0.0
H886 H 0.80087 0.87313 0.38557 0.0
C887 C 0.8918 0.87994 0.38901 0.0
C888 C 0.68655 0.64743 0.64051 0.0
C889 C 0.65377 0.6565 0.64317 0.0
H890 H 0.71206 0.62311 0.63457 0.0
C891 C 0.62119 0.64737 0.64049 0.0
H892 H 0.71218 0.65401 0.64293 0.0
C893 C 0.62111 0.6299 0.63653 0.0
C894 C 0.65362 0.62071 0.63407 0.0
H895 H 0.59534 0.65377 0.64107 0.0
H896 H 0.59521 0.62355 0.63593 0.0
C897 C 0.68648 0.62973 0.63682 0.0
C898 C 0.34819 0.39801 0.30407 0.0
C899 C 0.34903 0.40681 0.39521 0.0
H900 H 0.34914 0.37411 0.22783 0.0
C901 C 0.34817 0.39744 0.4815 0.0
H902 H 0.34907 0.4047 0.23606 0.0
C903 C 0.34811 0.37985 0.47686 0.0
C904 C 0.34933 0.37105 0.38575 0.0
H905 H 0.34847 0.40375 0.55311 0.0
H906 H 0.34891 0.37316 0.5449 0.0
C907 C 0.34855 0.38042 0.29943 0.0
C908 C 0.68732 0.14817 0.14278 0.0
C909 C 0.65446 0.15719 0.14498 0.0
H910 H 0.71303 0.12388 0.13713 0.0
C911 C 0.62196 0.14799 0.14198 0.0
H912 H 0.71289 0.15479 0.14547 0.0
C913 C 0.62204 0.13051 0.138 0.0
C914 C 0.65462 0.12138 0.13589 0.0
H915 H 0.59605 0.15435 0.14218 0.0
H916 H 0.59619 0.12411 0.13695 0.0
C917 C 0.6874 0.13046 0.13911 0.0
C918 C 0.32512 0.88013 0.88782 0.0
C919 C 0.35786 0.87103 0.88371 0.0
H920 H 0.29972 0.90448 0.89507 0.0
C921 C 0.39048 0.88014 0.88508 0.0
H922 H 0.29947 0.87357 0.88643 0.0
C923 C 0.39062 0.89761 0.88926 0.0
C924 C 0.35815 0.90682 0.89315 0.0
H925 H 0.4163 0.87371 0.88334 0.0
H926 H 0.41654 0.90395 0.88896 0.0
C927 C 0.32526 0.89784 0.89166 0.0
loop_
_geom_bond_atom_site_label_1
_geom_bond_atom_site_label_2
_geom_bond_distance
_geom_bond_site_symmetry_2
_ccdc_geom_bond_type
Co0 N4 2.148 1_554 S
Co0 N10 2.128 . S
Co0 N20 2.194 . S
Co0 O25 2.351 . S
Co0 O26 2.155 . S
Co0 O27 2.096 . S
C1 N4 1.301 . S
C1 N5 1.328 . S
C1 H6 0.930 . S
C2 C3 1.333 . S
C2 N4 1.317 . S
C2 H7 0.930 . S
C3 C2 1.333 . S
C3 N5 1.350 . S
C3 H29 0.931 . S
N4 Co0 2.148 1_556 S
N4 C1 1.301 . S
N4 C2 1.317 . S
N5 C1 1.328 . S
N5 C3 1.350 . S
H6 C1 0.930 . S
H7 C2 0.930 . S
C8 O9 1.224 . S
C8 O27 1.247 . S
O9 C8 1.224 . S
N10 Co0 2.128 . S
N10 C11 1.355 . S
N10 C13 1.311 . S
C11 N10 1.355 . S
C11 C12 1.363 . S
C11 H23 0.929 . S
C12 C11 1.363 . S
C12 N14 1.375 . S
C12 H30 0.931 . S
C13 N10 1.311 . S
C13 N14 1.347 . S
C13 H24 0.929 . S
N14 C12 1.375 . S
N14 C13 1.347 . S
C15 C18 1.365 . S
C15 N20 1.328 . S
C15 H21 0.929 . S
C16 C17 1.362 . S
C16 C19 1.378 . S
C16 H31 0.929 . S
C17 C16 1.362 . S
C17 C18 1.366 . S
C18 C15 1.365 . S
C18 C17 1.366 . S
C18 H32 0.930 . S
C19 C16 1.378 . S
C19 N20 1.315 . S
C19 H22 0.930 . S
N20 Co0 2.194 . S
N20 C15 1.328 . S
N20 C19 1.315 . S
H21 C15 0.929 . S
H22 C19 0.930 . S
H23 C11 0.929 . S
H24 C13 0.929 . S
O25 Co0 2.351 . S
O25 C28 1.244 . S
O26 Co0 2.155 . S
O26 C28 1.240 . S
O27 Co0 2.096 . S
O27 C8 1.247 . S
C28 O25 1.244 . S
C28 O26 1.240 . S
H29 C3 0.931 . S
H30 C12 0.931 . S
H31 C16 0.929 . S
H32 C18 0.930 . S
Co33 N37 2.148 . S
Co33 N43 2.128 1_554 S
Co33 N53 2.194 . S
Co33 O58 2.351 . S
Co33 O59 2.155 . S
Co33 O60 2.096 . S
C34 N37 1.301 . S
C34 N38 1.328 . S
C34 H39 0.930 . S
C35 C36 1.333 . S
C35 N37 1.317 . S
C35 H40 0.930 . S
C36 C35 1.333 . S
C36 N38 1.350 . S
C36 H62 0.931 . S
N37 Co33 2.148 . S
N37 C34 1.301 . S
N37 C35 1.317 . S
N38 C34 1.328 . S
N38 C36 1.350 . S
H39 C34 0.930 . S
H40 C35 0.930 . S
C41 O42 1.224 . S
C41 O60 1.247 . S
O42 C41 1.224 . S
N43 Co33 2.128 1_556 S
N43 C44 1.355 . S
N43 C46 1.311 . S
C44 N43 1.355 . S
C44 C45 1.363 . S
C44 H56 0.929 . S
C45 C44 1.363 . S
C45 N47 1.375 . S
C45 H63 0.931 . S
C46 N43 1.311 . S
C46 N47 1.347 . S
C46 H57 0.929 . S
N47 C45 1.375 . S
N47 C46 1.347 . S
C48 C51 1.365 . S
C48 N53 1.328 . S
C48 H54 0.929 . S
C49 C50 1.362 . S
C49 C52 1.378 . S
C49 H64 0.929 . S
C50 C49 1.362 . S
C50 C51 1.366 . S
C51 C48 1.365 . S
C51 C50 1.366 . S
C51 H65 0.930 . S
C52 C49 1.378 . S
C52 N53 1.315 . S
C52 H55 0.930 . S
N53 Co33 2.194 . S
N53 C48 1.328 . S
N53 C52 1.315 . S
H54 C48 0.929 . S
H55 C52 0.930 . S
H56 C44 0.929 . S
H57 C46 0.929 . S
O58 Co33 2.351 . S
O58 C61 1.244 . S
O59 Co33 2.155 . S
O59 C61 1.240 . S
O60 Co33 2.096 . S
O60 C41 1.247 . S
C61 O58 1.244 . S
C61 O59 1.240 . S
H62 C36 0.931 . S
H63 C45 0.931 . S
H64 C49 0.929 . S
H65 C51 0.930 . S
Co66 N70 2.148 1_556 S
Co66 N76 2.128 . S
Co66 N86 2.194 . S
Co66 O91 2.351 . S
Co66 O92 2.155 . S
Co66 O93 2.096 . S
C67 N70 1.301 . S
C67 N71 1.328 . S
C67 H72 0.930 . S
C68 C69 1.333 . S
C68 N70 1.317 . S
C68 H73 0.930 . S
C69 C68 1.333 . S
C69 N71 1.350 . S
C69 H95 0.931 . S
N70 Co66 2.148 1_554 S
N70 C67 1.301 . S
N70 C68 1.317 . S
N71 C67 1.328 . S
N71 C69 1.350 . S
H72 C67 0.930 . S
H73 C68 0.930 . S
C74 O75 1.224 . S
C74 O93 1.247 . S
O75 C74 1.224 . S
N76 Co66 2.128 . S
N76 C77 1.355 . S
N76 C79 1.311 . S
C77 N76 1.355 . S
C77 C78 1.363 . S
C77 H89 0.929 . S
C78 C77 1.363 . S
C78 N80 1.375 . S
C78 H96 0.931 . S
C79 N76 1.311 . S
C79 N80 1.347 . S
C79 H90 0.929 . S
N80 C78 1.375 . S
N80 C79 1.347 . S
C81 C84 1.365 . S
C81 N86 1.328 . S
C81 H87 0.929 . S
C82 C83 1.362 . S
C82 C85 1.378 . S
C82 H97 0.929 . S
C83 C82 1.362 . S
C83 C84 1.366 . S
C84 C81 1.365 . S
C84 C83 1.366 . S
C84 H98 0.930 . S
C85 C82 1.378 . S
C85 N86 1.315 . S
C85 H88 0.930 . S
N86 Co66 2.194 . S
N86 C81 1.328 . S
N86 C85 1.315 . S
H87 C81 0.929 . S
H88 C85 0.930 . S
H89 C77 0.929 . S
H90 C79 0.929 . S
O91 Co66 2.351 . S
O91 C94 1.244 . S
O92 Co66 2.155 . S
O92 C94 1.240 . S
O93 Co66 2.096 . S
O93 C74 1.247 . S
C94 O91 1.244 . S
C94 O92 1.240 . S
H95 C69 0.931 . S
H96 C78 0.931 . S
H97 C82 0.929 . S
H98 C84 0.930 . S
Co99 N103 2.148 . S
Co99 N109 2.128 1_556 S
Co99 N119 2.194 . S
Co99 O124 2.351 . S
Co99 O125 2.155 . S
Co99 O126 2.096 . S
C100 N103 1.301 . S
C100 N104 1.328 . S
C100 H105 0.930 . S
C101 C102 1.333 . S
C101 N103 1.317 . S
C101 H106 0.930 . S
C102 C101 1.333 . S
C102 N104 1.350 . S
C102 H128 0.931 . S
N103 Co99 2.148 . S
N103 C100 1.301 . S
N103 C101 1.317 . S
N104 C100 1.328 . S
N104 C102 1.350 . S
H105 C100 0.930 . S
H106 C101 0.930 . S
C107 O108 1.224 . S
C107 O126 1.247 . S
O108 C107 1.224 . S
N109 Co99 2.128 1_554 S
N109 C110 1.355 . S
N109 C112 1.311 . S
C110 N109 1.355 . S
C110 C111 1.363 . S
C110 H122 0.929 . S
C111 C110 1.363 . S
C111 N113 1.375 . S
C111 H129 0.931 . S
C112 N109 1.311 . S
C112 N113 1.347 . S
C112 H123 0.929 . S
N113 C111 1.375 . S
N113 C112 1.347 . S
C114 C117 1.365 . S
C114 N119 1.328 . S
C114 H120 0.929 . S
C115 C116 1.362 . S
C115 C118 1.378 . S
C115 H130 0.929 . S
C116 C115 1.362 . S
C116 C117 1.366 . S
C117 C114 1.365 . S
C117 C116 1.366 . S
C117 H131 0.930 . S
C118 C115 1.378 . S
C118 N119 1.315 . S
C118 H121 0.930 . S
N119 Co99 2.194 . S
N119 C114 1.328 . S
N119 C118 1.315 . S
H120 C114 0.929 . S
H121 C118 0.930 . S
H122 C110 0.929 . S
H123 C112 0.929 . S
O124 Co99 2.351 . S
O124 C127 1.244 . S
O125 Co99 2.155 . S
O125 C127 1.240 . S
O126 Co99 2.096 . S
O126 C107 1.247 . S
C127 O124 1.244 . S
C127 O125 1.240 . S
H128 C102 0.931 . S
H129 C111 0.931 . S
H130 C115 0.929 . S
H131 C117 0.930 . S
Co132 N136 2.148 . S
Co132 N142 2.128 . S
Co132 N152 2.194 . S
Co132 O157 2.351 . S
Co132 O158 2.155 . S
Co132 O159 2.096 . S
C133 N136 1.301 . S
C133 N137 1.328 . S
C133 H138 0.930 . S
C134 C135 1.333 . S
C134 N136 1.317 . S
C134 H139 0.930 . S
C135 C134 1.333 . S
C135 N137 1.350 . S
C135 H161 0.931 . S
N136 Co132 2.148 . S
N136 C133 1.301 . S
N136 C134 1.317 . S
N137 C133 1.328 . S
N137 C135 1.350 . S
H138 C133 0.930 . S
H139 C134 0.930 . S
C140 O141 1.224 . S
C140 O159 1.247 . S
O141 C140 1.224 . S
N142 Co132 2.128 . S
N142 C143 1.355 . S
N142 C145 1.311 . S
C143 N142 1.355 . S
C143 C144 1.363 . S
C143 H155 0.929 . S
C144 C143 1.363 . S
C144 N146 1.375 . S
C144 H162 0.931 . S
C145 N142 1.311 . S
C145 N146 1.347 . S
C145 H156 0.929 . S
N146 C144 1.375 . S
N146 C145 1.347 . S
C147 C150 1.365 . S
C147 N152 1.328 . S
C147 H153 0.929 . S
C148 C149 1.362 . S
C148 C151 1.378 . S
C148 H163 0.929 . S
C149 C148 1.362 . S
C149 C150 1.366 . S
C150 C147 1.365 . S
C150 C149 1.366 . S
C150 H164 0.930 . S
C151 C148 1.378 . S
C151 N152 1.315 . S
C151 H154 0.930 . S
N152 Co132 2.194 . S
N152 C147 1.328 . S
N152 C151 1.315 . S
H153 C147 0.929 . S
H154 C151 0.930 . S
H155 C143 0.929 . S
H156 C145 0.929 . S
O157 Co132 2.351 . S
O157 C160 1.244 . S
O158 Co132 2.155 . S
O158 C160 1.240 . S
O159 Co132 2.096 . S
O159 C140 1.247 . S
C160 O157 1.244 . S
C160 O158 1.240 . S
H161 C135 0.931 . S
H162 C144 0.931 . S
H163 C148 0.929 . S
H164 C150 0.930 . S
Co165 N169 2.148 . S
Co165 N175 2.128 . S
Co165 N185 2.194 . S
Co165 O190 2.351 . S
Co165 O191 2.155 . S
Co165 O192 2.096 . S
C166 N169 1.301 . S
C166 N170 1.328 . S
C166 H171 0.930 . S
C167 C168 1.333 . S
C167 N169 1.317 . S
C167 H172 0.930 . S
C168 C167 1.333 . S
C168 N170 1.350 . S
C168 H194 0.931 . S
N169 Co165 2.148 . S
N169 C166 1.301 . S
N169 C167 1.317 . S
N170 C166 1.328 . S
N170 C168 1.350 . S
H171 C166 0.930 . S
H172 C167 0.930 . S
C173 O174 1.224 . S
C173 O192 1.247 . S
O174 C173 1.224 . S
N175 Co165 2.128 . S
N175 C176 1.355 . S
N175 C178 1.311 . S
C176 N175 1.355 . S
C176 C177 1.363 . S
C176 H188 0.929 . S
C177 C176 1.363 . S
C177 N179 1.375 . S
C177 H195 0.931 . S
C178 N175 1.311 . S
C178 N179 1.347 . S
C178 H189 0.929 . S
N179 C177 1.375 . S
N179 C178 1.347 . S
C180 C183 1.365 . S
C180 N185 1.328 . S
C180 H186 0.929 . S
C181 C182 1.362 . S
C181 C184 1.378 . S
C181 H196 0.929 . S
C182 C181 1.362 . S
C182 C183 1.366 . S
C183 C180 1.365 . S
C183 C182 1.366 . S
C183 H197 0.930 . S
C184 C181 1.378 . S
C184 N185 1.315 . S
C184 H187 0.930 . S
N185 Co165 2.194 . S
N185 C180 1.328 . S
N185 C184 1.315 . S
H186 C180 0.929 . S
H187 C184 0.930 . S
H188 C176 0.929 . S
H189 C178 0.929 . S
O190 Co165 2.351 . S
O190 C193 1.244 . S
O191 Co165 2.155 . S
O191 C193 1.240 . S
O192 Co165 2.096 . S
O192 C173 1.247 . S
C193 O190 1.244 . S
C193 O191 1.240 . S
H194 C168 0.931 . S
H195 C177 0.931 . S
H196 C181 0.929 . S
H197 C183 0.930 . S
Co198 N202 2.148 . S
Co198 N208 2.128 . S
Co198 N218 2.194 . S
Co198 O223 2.351 . S
Co198 O224 2.155 . S
Co198 O225 2.096 . S
C199 N202 1.301 . S
C199 N203 1.328 . S
C199 H204 0.930 . S
C200 C201 1.333 . S
C200 N202 1.317 . S
C200 H205 0.930 . S
C201 C200 1.333 . S
C201 N203 1.350 . S
C201 H227 0.931 . S
N202 Co198 2.148 . S
N202 C199 1.301 . S
N202 C200 1.317 . S
N203 C199 1.328 . S
N203 C201 1.350 . S
H204 C199 0.930 . S
H205 C200 0.930 . S
C206 O207 1.224 . S
C206 O225 1.247 . S
O207 C206 1.224 . S
N208 Co198 2.128 . S
N208 C209 1.355 . S
N208 C211 1.311 . S
C209 N208 1.355 . S
C209 C210 1.363 . S
C209 H221 0.929 . S
C210 C209 1.363 . S
C210 N212 1.375 . S
C210 H228 0.931 . S
C211 N208 1.311 . S
C211 N212 1.347 . S
C211 H222 0.929 . S
N212 C210 1.375 . S
N212 C211 1.347 . S
C213 C216 1.365 . S
C213 N218 1.328 . S
C213 H219 0.929 . S
C214 C215 1.362 . S
C214 C217 1.378 . S
C214 H229 0.929 . S
C215 C214 1.362 . S
C215 C216 1.366 . S
C216 C213 1.365 . S
C216 C215 1.366 . S
C216 H230 0.930 . S
C217 C214 1.378 . S
C217 N218 1.315 . S
C217 H220 0.930 . S
N218 Co198 2.194 . S
N218 C213 1.328 . S
N218 C217 1.315 . S
H219 C213 0.929 . S
H220 C217 0.930 . S
H221 C209 0.929 . S
H222 C211 0.929 . S
O223 Co198 2.351 . S
O223 C226 1.244 . S
O224 Co198 2.155 . S
O224 C226 1.240 . S
O225 Co198 2.096 . S
O225 C206 1.247 . S
C226 O223 1.244 . S
C226 O224 1.240 . S
H227 C201 0.931 . S
H228 C210 0.931 . S
H229 C214 0.929 . S
H230 C216 0.930 . S
Co231 N235 2.148 . S
Co231 N241 2.128 . S
Co231 N251 2.194 . S
Co231 O256 2.351 . S
Co231 O257 2.155 . S
Co231 O258 2.096 . S
C232 N235 1.301 . S
C232 N236 1.328 . S
C232 H237 0.930 . S
C233 C234 1.333 . S
C233 N235 1.317 . S
C233 H238 0.930 . S
C234 C233 1.333 . S
C234 N236 1.350 . S
C234 H260 0.931 . S
N235 Co231 2.148 . S
N235 C232 1.301 . S
N235 C233 1.317 . S
N236 C232 1.328 . S
N236 C234 1.350 . S
H237 C232 0.930 . S
H238 C233 0.930 . S
C239 O240 1.224 . S
C239 O258 1.247 . S
O240 C239 1.224 . S
N241 Co231 2.128 . S
N241 C242 1.355 . S
N241 C244 1.311 . S
C242 N241 1.355 . S
C242 C243 1.363 . S
C242 H254 0.929 . S
C243 C242 1.363 . S
C243 N245 1.375 . S
C243 H261 0.931 . S
C244 N241 1.311 . S
C244 N245 1.347 . S
C244 H255 0.929 . S
N245 C243 1.375 . S
N245 C244 1.347 . S
C246 C249 1.365 . S
C246 N251 1.328 . S
C246 H252 0.929 . S
C247 C248 1.362 . S
C247 C250 1.378 . S
C247 H262 0.929 . S
C248 C247 1.362 . S
C248 C249 1.366 . S
C249 C246 1.365 . S
C249 C248 1.366 . S
C249 H263 0.930 . S
C250 C247 1.378 . S
C250 N251 1.315 . S
C250 H253 0.930 . S
N251 Co231 2.194 . S
N251 C246 1.328 . S
N251 C250 1.315 . S
H252 C246 0.929 . S
H253 C250 0.930 . S
H254 C242 0.929 . S
H255 C244 0.929 . S
O256 Co231 2.351 . S
O256 C259 1.244 . S
O257 Co231 2.155 . S
O257 C259 1.240 . S
O258 Co231 2.096 . S
O258 C239 1.247 . S
C259 O256 1.244 . S
C259 O257 1.240 . S
H260 C234 0.931 . S
H261 C243 0.931 . S
H262 C247 0.929 . S
H263 C249 0.930 . S
Co264 N268 2.148 . S
Co264 N274 2.128 . S
Co264 N284 2.194 . S
Co264 O289 2.351 . S
Co264 O290 2.155 . S
Co264 O291 2.096 . S
C265 N268 1.301 . S
C265 N269 1.328 . S
C265 H270 0.930 . S
C266 C267 1.333 . S
C266 N268 1.317 . S
C266 H271 0.930 . S
C267 C266 1.333 . S
C267 N269 1.350 . S
C267 H293 0.931 . S
N268 Co264 2.148 . S
N268 C265 1.301 . S
N268 C266 1.317 . S
N269 C265 1.328 . S
N269 C267 1.350 . S
H270 C265 0.930 . S
H271 C266 0.930 . S
C272 O273 1.224 . S
C272 O291 1.247 . S
O273 C272 1.224 . S
N274 Co264 2.128 . S
N274 C275 1.355 . S
N274 C277 1.311 . S
C275 N274 1.355 . S
C275 C276 1.363 . S
C275 H287 0.929 . S
C276 C275 1.363 . S
C276 N278 1.375 . S
C276 H294 0.931 . S
C277 N274 1.311 . S
C277 N278 1.347 . S
C277 H288 0.929 . S
N278 C276 1.375 . S
N278 C277 1.347 . S
C279 C282 1.365 . S
C279 N284 1.328 . S
C279 H285 0.929 . S
C280 C281 1.362 . S
C280 C283 1.378 . S
C280 H295 0.929 . S
C281 C280 1.362 . S
C281 C282 1.366 . S
C282 C279 1.365 . S
C282 C281 1.366 . S
C282 H296 0.930 . S
C283 C280 1.378 . S
C283 N284 1.315 . S
C283 H286 0.930 . S
N284 Co264 2.194 . S
N284 C279 1.328 . S
N284 C283 1.315 . S
H285 C279 0.929 . S
H286 C283 0.930 . S
H287 C275 0.929 . S
H288 C277 0.929 . S
O289 Co264 2.351 . S
O289 C292 1.244 . S
O290 Co264 2.155 . S
O290 C292 1.240 . S
O291 Co264 2.096 . S
O291 C272 1.247 . S
C292 O289 1.244 . S
C292 O290 1.240 . S
H293 C267 0.931 . S
H294 C276 0.931 . S
H295 C280 0.929 . S
H296 C282 0.930 . S
Co297 N301 2.148 . S
Co297 N307 2.128 . S
Co297 N317 2.194 . S
Co297 O322 2.351 . S
Co297 O323 2.155 . S
Co297 O324 2.096 . S
C298 N301 1.301 . S
C298 N302 1.328 . S
C298 H303 0.930 . S
C299 C300 1.333 . S
C299 N301 1.317 . S
C299 H304 0.930 . S
C300 C299 1.333 . S
C300 N302 1.350 . S
C300 H326 0.931 . S
N301 Co297 2.148 . S
N301 C298 1.301 . S
N301 C299 1.317 . S
N302 C298 1.328 . S
N302 C300 1.350 . S
H303 C298 0.930 . S
H304 C299 0.930 . S
C305 O306 1.224 . S
C305 O324 1.247 . S
O306 C305 1.224 . S
N307 Co297 2.128 . S
N307 C308 1.355 . S
N307 C310 1.311 . S
C308 N307 1.355 . S
C308 C309 1.363 . S
C308 H320 0.929 . S
C309 C308 1.363 . S
C309 N311 1.375 . S
C309 H327 0.931 . S
C310 N307 1.311 . S
C310 N311 1.347 . S
C310 H321 0.929 . S
N311 C309 1.375 . S
N311 C310 1.347 . S
C312 C315 1.365 . S
C312 N317 1.328 . S
C312 H318 0.929 . S
C313 C314 1.362 . S
C313 C316 1.378 . S
C313 H328 0.929 . S
C314 C313 1.362 . S
C314 C315 1.366 . S
C315 C312 1.365 . S
C315 C314 1.366 . S
C315 H329 0.930 . S
C316 C313 1.378 . S
C316 N317 1.315 . S
C316 H319 0.930 . S
N317 Co297 2.194 . S
N317 C312 1.328 . S
N317 C316 1.315 . S
H318 C312 0.929 . S
H319 C316 0.930 . S
H320 C308 0.929 . S
H321 C310 0.929 . S
O322 Co297 2.351 . S
O322 C325 1.244 . S
O323 Co297 2.155 . S
O323 C325 1.240 . S
O324 Co297 2.096 . S
O324 C305 1.247 . S
C325 O322 1.244 . S
C325 O323 1.240 . S
H326 C300 0.931 . S
H327 C309 0.931 . S
H328 C313 0.929 . S
H329 C315 0.930 . S
Co330 N334 2.148 . S
Co330 N340 2.128 . S
Co330 N350 2.194 . S
Co330 O355 2.351 . S
Co330 O356 2.155 . S
Co330 O357 2.096 . S
C331 N334 1.301 . S
C331 N335 1.328 . S
C331 H336 0.930 . S
C332 C333 1.333 . S
C332 N334 1.317 . S
C332 H337 0.930 . S
C333 C332 1.333 . S
C333 N335 1.350 . S
C333 H359 0.931 . S
N334 Co330 2.148 . S
N334 C331 1.301 . S
N334 C332 1.317 . S
N335 C331 1.328 . S
N335 C333 1.350 . S
H336 C331 0.930 . S
H337 C332 0.930 . S
C338 O339 1.224 . S
C338 O357 1.247 . S
O339 C338 1.224 . S
N340 Co330 2.128 . S
N340 C341 1.355 . S
N340 C343 1.311 . S
C341 N340 1.355 . S
C341 C342 1.363 . S
C341 H353 0.929 . S
C342 C341 1.363 . S
C342 N344 1.375 . S
C342 H360 0.931 . S
C343 N340 1.311 . S
C343 N344 1.347 . S
C343 H354 0.929 . S
N344 C342 1.375 . S
N344 C343 1.347 . S
C345 C348 1.365 . S
C345 N350 1.328 . S
C345 H351 0.929 . S
C346 C347 1.362 . S
C346 C349 1.378 . S
C346 H361 0.929 . S
C347 C346 1.362 . S
C347 C348 1.366 . S
C348 C345 1.365 . S
C348 C347 1.366 . S
C348 H362 0.930 . S
C349 C346 1.378 . S
C349 N350 1.315 . S
C349 H352 0.930 . S
N350 Co330 2.194 . S
N350 C345 1.328 . S
N350 C349 1.315 . S
H351 C345 0.929 . S
H352 C349 0.930 . S
H353 C341 0.929 . S
H354 C343 0.929 . S
O355 Co330 2.351 . S
O355 C358 1.244 . S
O356 Co330 2.155 . S
O356 C358 1.240 . S
O357 Co330 2.096 . S
O357 C338 1.247 . S
C358 O355 1.244 . S
C358 O356 1.240 . S
H359 C333 0.931 . S
H360 C342 0.931 . S
H361 C346 0.929 . S
H362 C348 0.930 . S
Co363 N367 2.148 . S
Co363 N373 2.128 . S
Co363 N383 2.194 . S
Co363 O388 2.351 . S
Co363 O389 2.155 . S
Co363 O390 2.096 . S
C364 N367 1.301 . S
C364 N368 1.328 . S
C364 H369 0.930 . S
C365 C366 1.333 . S
C365 N367 1.317 . S
C365 H370 0.930 . S
C366 C365 1.333 . S
C366 N368 1.350 . S
C366 H392 0.931 . S
N367 Co363 2.148 . S
N367 C364 1.301 . S
N367 C365 1.317 . S
N368 C364 1.328 . S
N368 C366 1.350 . S
H369 C364 0.930 . S
H370 C365 0.930 . S
C371 O372 1.224 . S
C371 O390 1.247 . S
O372 C371 1.224 . S
N373 Co363 2.128 . S
N373 C374 1.355 . S
N373 C376 1.311 . S
C374 N373 1.355 . S
C374 C375 1.363 . S
C374 H386 0.929 . S
C375 C374 1.363 . S
C375 N377 1.375 . S
C375 H393 0.931 . S
C376 N373 1.311 . S
C376 N377 1.347 . S
C376 H387 0.929 . S
N377 C375 1.375 . S
N377 C376 1.347 . S
C378 C381 1.365 . S
C378 N383 1.328 . S
C378 H384 0.929 . S
C379 C380 1.362 . S
C379 C382 1.378 . S
C379 H394 0.929 . S
C380 C379 1.362 . S
C380 C381 1.366 . S
C381 C378 1.365 . S
C381 C380 1.366 . S
C381 H395 0.930 . S
C382 C379 1.378 . S
C382 N383 1.315 . S
C382 H385 0.930 . S
N383 Co363 2.194 . S
N383 C378 1.328 . S
N383 C382 1.315 . S
H384 C378 0.929 . S
H385 C382 0.930 . S
H386 C374 0.929 . S
H387 C376 0.929 . S
O388 Co363 2.351 . S
O388 C391 1.244 . S
O389 Co363 2.155 . S
O389 C391 1.240 . S
O390 Co363 2.096 . S
O390 C371 1.247 . S
C391 O388 1.244 . S
C391 O389 1.240 . S
H392 C366 0.931 . S
H393 C375 0.931 . S
H394 C379 0.929 . S
H395 C381 0.930 . S
Co396 N400 2.148 1_554 S
Co396 N406 2.128 . S
Co396 N416 2.194 . S
Co396 O421 2.351 . S
Co396 O422 2.155 . S
Co396 O423 2.096 . S
C397 N400 1.301 . S
C397 N401 1.328 . S
C397 H402 0.930 . S
C398 C399 1.333 . S
C398 N400 1.317 . S
C398 H403 0.930 . S
C399 C398 1.333 . S
C399 N401 1.350 . S
C399 H425 0.931 . S
N400 Co396 2.148 1_556 S
N400 C397 1.301 . S
N400 C398 1.317 . S
N401 C397 1.328 . S
N401 C399 1.350 . S
H402 C397 0.930 . S
H403 C398 0.930 . S
C404 O405 1.224 . S
C404 O423 1.247 . S
O405 C404 1.224 . S
N406 Co396 2.128 . S
N406 C407 1.355 . S
N406 C409 1.311 . S
C407 N406 1.355 . S
C407 C408 1.363 . S
C407 H419 0.929 . S
C408 C407 1.363 . S
C408 N410 1.375 . S
C408 H426 0.931 . S
C409 N406 1.311 . S
C409 N410 1.347 . S
C409 H420 0.929 . S
N410 C408 1.375 . S
N410 C409 1.347 . S
C411 C414 1.365 . S
C411 N416 1.328 . S
C411 H417 0.929 . S
C412 C413 1.362 . S
C412 C415 1.378 . S
C412 H427 0.929 . S
C413 C412 1.362 . S
C413 C414 1.366 . S
C414 C411 1.365 . S
C414 C413 1.366 . S
C414 H428 0.930 . S
C415 C412 1.378 . S
C415 N416 1.315 . S
C415 H418 0.930 . S
N416 Co396 2.194 . S
N416 C411 1.328 . S
N416 C415 1.315 . S
H417 C411 0.929 . S
H418 C415 0.930 . S
H419 C407 0.929 . S
H420 C409 0.929 . S
O421 Co396 2.351 . S
O421 C424 1.244 . S
O422 Co396 2.155 . S
O422 C424 1.240 . S
O423 Co396 2.096 . S
O423 C404 1.247 . S
C424 O421 1.244 . S
C424 O422 1.240 . S
H425 C399 0.931 . S
H426 C408 0.931 . S
H427 C412 0.929 . S
H428 C414 0.930 . S
Co429 N433 2.148 . S
Co429 N439 2.128 1_554 S
Co429 N449 2.194 . S
Co429 O454 2.351 . S
Co429 O455 2.155 . S
Co429 O456 2.096 . S
C430 N433 1.301 . S
C430 N434 1.328 . S
C430 H435 0.930 . S
C431 C432 1.333 . S
C431 N433 1.317 . S
C431 H436 0.930 . S
C432 C431 1.333 . S
C432 N434 1.350 . S
C432 H458 0.931 . S
N433 Co429 2.148 . S
N433 C430 1.301 . S
N433 C431 1.317 . S
N434 C430 1.328 . S
N434 C432 1.350 . S
H435 C430 0.930 . S
H436 C431 0.930 . S
C437 O438 1.224 . S
C437 O456 1.247 . S
O438 C437 1.224 . S
N439 Co429 2.128 1_556 S
N439 C440 1.355 . S
N439 C442 1.311 . S
C440 N439 1.355 . S
C440 C441 1.363 . S
C440 H452 0.929 . S
C441 C440 1.363 . S
C441 N443 1.375 . S
C441 H459 0.931 . S
C442 N439 1.311 . S
C442 N443 1.347 . S
C442 H453 0.929 . S
N443 C441 1.375 . S
N443 C442 1.347 . S
C444 C447 1.365 . S
C444 N449 1.328 . S
C444 H450 0.929 . S
C445 C446 1.362 . S
C445 C448 1.378 . S
C445 H460 0.929 . S
C446 C445 1.362 . S
C446 C447 1.366 . S
C447 C444 1.365 . S
C447 C446 1.366 . S
C447 H461 0.930 . S
C448 C445 1.378 . S
C448 N449 1.315 . S
C448 H451 0.930 . S
N449 Co429 2.194 . S
N449 C444 1.328 . S
N449 C448 1.315 . S
H450 C444 0.929 . S
H451 C448 0.930 . S
H452 C440 0.929 . S
H453 C442 0.929 . S
O454 Co429 2.351 . S
O454 C457 1.244 . S
O455 Co429 2.155 . S
O455 C457 1.240 . S
O456 Co429 2.096 . S
O456 C437 1.247 . S
C457 O454 1.244 . S
C457 O455 1.240 . S
H458 C432 0.931 . S
H459 C441 0.931 . S
H460 C445 0.929 . S
H461 C447 0.930 . S
Co462 N466 2.148 1_556 S
Co462 N472 2.128 . S
Co462 N482 2.194 . S
Co462 O487 2.351 . S
Co462 O488 2.155 . S
Co462 O489 2.096 . S
C463 N466 1.301 . S
C463 N467 1.328 . S
C463 H468 0.930 . S
C464 C465 1.333 . S
C464 N466 1.317 . S
C464 H469 0.930 . S
C465 C464 1.333 . S
C465 N467 1.350 . S
C465 H491 0.931 . S
N466 Co462 2.148 1_554 S
N466 C463 1.301 . S
N466 C464 1.317 . S
N467 C463 1.328 . S
N467 C465 1.350 . S
H468 C463 0.930 . S
H469 C464 0.930 . S
C470 O471 1.224 . S
C470 O489 1.247 . S
O471 C470 1.224 . S
N472 Co462 2.128 . S
N472 C473 1.355 . S
N472 C475 1.311 . S
C473 N472 1.355 . S
C473 C474 1.363 . S
C473 H485 0.929 . S
C474 C473 1.363 . S
C474 N476 1.375 . S
C474 H492 0.931 . S
C475 N472 1.311 . S
C475 N476 1.347 . S
C475 H486 0.929 . S
N476 C474 1.375 . S
N476 C475 1.347 . S
C477 C480 1.365 . S
C477 N482 1.328 . S
C477 H483 0.929 . S
C478 C479 1.362 . S
C478 C481 1.378 . S
C478 H493 0.929 . S
C479 C478 1.362 . S
C479 C480 1.366 . S
C480 C477 1.365 . S
C480 C479 1.366 . S
C480 H494 0.930 . S
C481 C478 1.378 . S
C481 N482 1.315 . S
C481 H484 0.930 . S
N482 Co462 2.194 . S
N482 C477 1.328 . S
N482 C481 1.315 . S
H483 C477 0.929 . S
H484 C481 0.930 . S
H485 C473 0.929 . S
H486 C475 0.929 . S
O487 Co462 2.351 . S
O487 C490 1.244 . S
O488 Co462 2.155 . S
O488 C490 1.240 . S
O489 Co462 2.096 . S
O489 C470 1.247 . S
C490 O487 1.244 . S
C490 O488 1.240 . S
H491 C465 0.931 . S
H492 C474 0.931 . S
H493 C478 0.929 . S
H494 C480 0.930 . S
Co495 N499 2.148 . S
Co495 N505 2.128 1_556 S
Co495 N515 2.194 . S
Co495 O520 2.351 . S
Co495 O521 2.155 . S
Co495 O522 2.096 . S
C496 N499 1.301 . S
C496 N500 1.328 . S
C496 H501 0.930 . S
C497 C498 1.333 . S
C497 N499 1.317 . S
C497 H502 0.930 . S
C498 C497 1.333 . S
C498 N500 1.350 . S
C498 H524 0.931 . S
N499 Co495 2.148 . S
N499 C496 1.301 . S
N499 C497 1.317 . S
N500 C496 1.328 . S
N500 C498 1.350 . S
H501 C496 0.930 . S
H502 C497 0.930 . S
C503 O504 1.224 . S
C503 O522 1.247 . S
O504 C503 1.224 . S
N505 Co495 2.128 1_554 S
N505 C506 1.355 . S
N505 C508 1.311 . S
C506 N505 1.355 . S
C506 C507 1.363 . S
C506 H518 0.929 . S
C507 C506 1.363 . S
C507 N509 1.375 . S
C507 H525 0.931 . S
C508 N505 1.311 . S
C508 N509 1.347 . S
C508 H519 0.929 . S
N509 C507 1.375 . S
N509 C508 1.347 . S
C510 C513 1.365 . S
C510 N515 1.328 . S
C510 H516 0.929 . S
C511 C512 1.362 . S
C511 C514 1.378 . S
C511 H526 0.929 . S
C512 C511 1.362 . S
C512 C513 1.366 . S
C513 C510 1.365 . S
C513 C512 1.366 . S
C513 H527 0.930 . S
C514 C511 1.378 . S
C514 N515 1.315 . S
C514 H517 0.930 . S
N515 Co495 2.194 . S
N515 C510 1.328 . S
N515 C514 1.315 . S
H516 C510 0.929 . S
H517 C514 0.930 . S
H518 C506 0.929 . S
H519 C508 0.929 . S
O520 Co495 2.351 . S
O520 C523 1.244 . S
O521 Co495 2.155 . S
O521 C523 1.240 . S
O522 Co495 2.096 . S
O522 C503 1.247 . S
C523 O520 1.244 . S
C523 O521 1.240 . S
H524 C498 0.931 . S
H525 C507 0.931 . S
H526 C511 0.929 . S
H527 C513 0.930 . S
C528 C529 1.387 . S
C528 H532 0.950 . S
C528 C537 1.390 . S
C529 C528 1.387 . S
C529 C531 1.387 . S
H530 C537 0.950 . S
C531 C529 1.387 . S
C531 C533 1.390 . S
C531 H535 0.950 . S
H532 C528 0.950 . S
C533 C531 1.390 . S
C533 C534 1.387 . S
C533 H536 0.950 . S
C534 C533 1.387 . S
C534 C537 1.387 . S
H535 C531 0.950 . S
H536 C533 0.950 . S
C537 C528 1.390 . S
C537 H530 0.950 . S
C537 C534 1.387 . S
C538 C539 1.387 . S
C538 H542 0.950 . S
C538 C547 1.390 1_455 S
C539 C538 1.387 . S
C539 C541 1.387 . S
H540 C547 0.950 . S
C541 C539 1.387 . S
C541 C543 1.390 1_455 S
C541 H545 0.950 . S
H542 C538 0.950 . S
C543 C541 1.390 1_655 S
C543 C544 1.387 . S
C543 H546 0.950 . S
C544 C543 1.387 . S
C544 C547 1.387 . S
H545 C541 0.950 . S
H546 C543 0.950 . S
C547 C538 1.390 1_655 S
C547 H540 0.950 . S
C547 C544 1.387 . S
C548 C549 1.387 . S
C548 H552 0.950 . S
C548 C557 1.390 . S
C549 C548 1.387 . S
C549 C551 1.387 1_556 S
H550 C557 0.950 . S
C551 C549 1.387 1_554 S
C551 C553 1.390 . S
C551 H555 0.950 . S
H552 C548 0.950 . S
C553 C551 1.390 . S
C553 C554 1.387 . S
C553 H556 0.950 . S
C554 C553 1.387 . S
C554 C557 1.387 1_554 S
H555 C551 0.950 . S
H556 C553 0.950 . S
C557 C548 1.390 . S
C557 H550 0.950 . S
C557 C554 1.387 1_556 S
C558 C559 1.387 . S
C558 H562 0.950 . S
C558 C567 1.390 1_655 S
C559 C558 1.387 . S
C559 C561 1.387 1_556 S
H560 C567 0.950 . S
C561 C559 1.387 1_554 S
C561 C563 1.390 1_655 S
C561 H565 0.950 . S
H562 C558 0.950 . S
C563 C561 1.390 1_455 S
C563 C564 1.387 . S
C563 H566 0.950 . S
C564 C563 1.387 . S
C564 C567 1.387 1_554 S
H565 C561 0.950 . S
H566 C563 0.950 . S
C567 C558 1.390 1_455 S
C567 H560 0.950 . S
C567 C564 1.387 1_556 S
C568 C569 1.387 . S
C568 H572 0.950 . S
C568 C577 1.390 . S
C569 C568 1.387 . S
C569 C571 1.387 . S
H570 C577 0.950 . S
C571 C569 1.387 . S
C571 C573 1.390 . S
C571 H575 0.950 . S
H572 C568 0.950 . S
C573 C571 1.390 . S
C573 C574 1.387 . S
C573 H576 0.950 . S
C574 C573 1.387 . S
C574 C577 1.387 . S
H575 C571 0.950 . S
H576 C573 0.950 . S
C577 C568 1.390 . S
C577 H570 0.950 . S
C577 C574 1.387 . S
C578 C579 1.387 . S
C578 H582 0.950 . S
C578 C587 1.390 1_455 S
C579 C578 1.387 . S
C579 C581 1.387 . S
H580 C587 0.950 . S
C581 C579 1.387 . S
C581 C583 1.390 1_455 S
C581 H585 0.950 . S
H582 C578 0.950 . S
C583 C581 1.390 1_655 S
C583 C584 1.387 . S
C583 H586 0.950 . S
C584 C583 1.387 . S
C584 C587 1.387 . S
H585 C581 0.950 . S
H586 C583 0.950 . S
C587 C578 1.390 1_655 S
C587 H580 0.950 . S
C587 C584 1.387 . S
C588 C589 1.387 . S
C588 H592 0.950 . S
C588 C597 1.390 . S
C589 C588 1.387 . S
C589 C591 1.387 1_554 S
H590 C597 0.950 . S
C591 C589 1.387 1_556 S
C591 C593 1.390 . S
C591 H595 0.950 . S
H592 C588 0.950 . S
C593 C591 1.390 . S
C593 C594 1.387 . S
C593 H596 0.950 . S
C594 C593 1.387 . S
C594 C597 1.387 1_556 S
H595 C591 0.950 . S
H596 C593 0.950 . S
C597 C588 1.390 . S
C597 H590 0.950 . S
C597 C594 1.387 1_554 S
C598 C599 1.387 . S
C598 H602 0.950 . S
C598 C607 1.390 . S
C599 C598 1.387 . S
C599 C601 1.387 1_565 S
H600 C607 0.950 . S
C601 C599 1.387 1_545 S
C601 C603 1.390 . S
C601 H605 0.950 . S
H602 C598 0.950 . S
C603 C601 1.390 . S
C603 C604 1.387 . S
C603 H606 0.950 . S
C604 C603 1.387 . S
C604 C607 1.387 1_545 S
H605 C601 0.950 . S
H606 C603 0.950 . S
C607 C598 1.390 . S
C607 H600 0.950 . S
C607 C604 1.387 1_565 S
C608 C609 1.387 . S
C608 H612 0.950 . S
C608 C617 1.390 . S
C609 C608 1.387 . S
C609 C611 1.387 . S
H610 C617 0.950 . S
C611 C609 1.387 . S
C611 C613 1.390 . S
C611 H615 0.950 . S
H612 C608 0.950 . S
C613 C611 1.390 . S
C613 C614 1.387 . S
C613 H616 0.950 . S
C614 C613 1.387 . S
C614 C617 1.387 . S
H615 C611 0.950 . S
H616 C613 0.950 . S
C617 C608 1.390 . S
C617 H610 0.950 . S
C617 C614 1.387 . S
C618 C619 1.387 . S
C618 H622 0.950 . S
C618 C627 1.390 1_655 S
C619 C618 1.387 . S
C619 C621 1.387 1_565 S
H620 C627 0.950 . S
C621 C619 1.387 1_545 S
C621 C623 1.390 1_655 S
C621 H625 0.950 . S
H622 C618 0.950 . S
C623 C621 1.390 1_455 S
C623 C624 1.387 . S
C623 H626 0.950 . S
C624 C623 1.387 . S
C624 C627 1.387 1_545 S
H625 C621 0.950 . S
H626 C623 0.950 . S
C627 C618 1.390 1_455 S
C627 H620 0.950 . S
C627 C624 1.387 1_565 S
C628 C629 1.387 1_565 S
C628 H632 0.950 . S
C628 C637 1.390 . S
C629 C628 1.387 1_545 S
C629 C631 1.387 . S
H630 C637 0.950 . S
C631 C629 1.387 . S
C631 C633 1.390 . S
C631 H635 0.950 . S
H632 C628 0.950 . S
C633 C631 1.390 . S
C633 C634 1.387 1_545 S
C633 H636 0.950 . S
C634 C633 1.387 1_565 S
C634 C637 1.387 . S
H635 C631 0.950 . S
H636 C633 0.950 . S
C637 C628 1.390 . S
C637 H630 0.950 . S
C637 C634 1.387 . S
C638 C639 1.387 . S
C638 H642 0.950 . S
C638 C647 1.390 . S
C639 C638 1.387 . S
C639 C641 1.387 . S
H640 C647 0.950 . S
C641 C639 1.387 . S
C641 C643 1.390 . S
C641 H645 0.950 . S
H642 C638 0.950 . S
C643 C641 1.390 . S
C643 C644 1.387 . S
C643 H646 0.950 . S
C644 C643 1.387 . S
C644 C647 1.387 . S
H645 C641 0.950 . S
H646 C643 0.950 . S
C647 C638 1.390 . S
C647 H640 0.950 . S
C647 C644 1.387 . S
C648 C649 1.387 . S
C648 H652 0.950 . S
C648 C657 1.390 . S
C649 C648 1.387 . S
C649 C651 1.387 . S
H650 C657 0.950 . S
C651 C649 1.387 . S
C651 C653 1.390 . S
C651 H655 0.950 . S
H652 C648 0.950 . S
C653 C651 1.390 . S
C653 C654 1.387 . S
C653 H656 0.950 . S
C654 C653 1.387 . S
C654 C657 1.387 . S
H655 C651 0.950 . S
H656 C653 0.950 . S
C657 C648 1.390 . S
C657 H650 0.950 . S
C657 C654 1.387 . S
C658 C659 1.387 . S
C658 H662 0.950 . S
C658 C667 1.390 . S
C659 C658 1.387 . S
C659 C661 1.387 . S
H660 C667 0.950 . S
C661 C659 1.387 . S
C661 C663 1.390 . S
C661 H665 0.950 . S
H662 C658 0.950 . S
C663 C661 1.390 . S
C663 C664 1.387 . S
C663 H666 0.950 . S
C664 C663 1.387 . S
C664 C667 1.387 . S
H665 C661 0.950 . S
H666 C663 0.950 . S
C667 C658 1.390 . S
C667 H660 0.950 . S
C667 C664 1.387 . S
C668 C669 1.387 . S
C668 H672 0.950 . S
C668 C677 1.390 . S
C669 C668 1.387 . S
C669 C671 1.387 . S
H670 C677 0.950 . S
C671 C669 1.387 . S
C671 C673 1.390 . S
C671 H675 0.950 . S
H672 C668 0.950 . S
C673 C671 1.390 . S
C673 C674 1.387 . S
C673 H676 0.950 . S
C674 C673 1.387 . S
C674 C677 1.387 . S
H675 C671 0.950 . S
H676 C673 0.950 . S
C677 C668 1.390 . S
C677 H670 0.950 . S
C677 C674 1.387 . S
C678 C679 1.387 1_545 S
C678 H682 0.950 . S
C678 C687 1.390 . S
C679 C678 1.387 1_565 S
C679 C681 1.387 1_556 S
H680 C687 0.950 . S
C681 C679 1.387 1_554 S
C681 C683 1.390 . S
C681 H685 0.950 . S
H682 C678 0.950 . S
C683 C681 1.390 . S
C683 C684 1.387 1_565 S
C683 H686 0.950 . S
C684 C683 1.387 1_545 S
C684 C687 1.387 1_554 S
H685 C681 0.950 . S
H686 C683 0.950 . S
C687 C678 1.390 . S
C687 H680 0.950 . S
C687 C684 1.387 1_556 S
C688 C689 1.387 . S
C688 H692 0.950 . S
C688 C697 1.390 . S
C689 C688 1.387 . S
C689 C691 1.387 . S
H690 C697 0.950 . S
C691 C689 1.387 . S
C691 C693 1.390 . S
C691 H695 0.950 . S
H692 C688 0.950 . S
C693 C691 1.390 . S
C693 C694 1.387 . S
C693 H696 0.950 . S
C694 C693 1.387 . S
C694 C697 1.387 . S
H695 C691 0.950 . S
H696 C693 0.950 . S
C697 C688 1.390 . S
C697 H690 0.950 . S
C697 C694 1.387 . S
C698 C699 1.387 . S
C698 H702 0.950 . S
C698 C707 1.390 . S
C699 C698 1.387 . S
C699 C701 1.387 . S
H700 C707 0.950 . S
C701 C699 1.387 . S
C701 C703 1.390 . S
C701 H705 0.950 . S
H702 C698 0.950 . S
C703 C701 1.390 . S
C703 C704 1.387 . S
C703 H706 0.950 . S
C704 C703 1.387 . S
C704 C707 1.387 . S
H705 C701 0.950 . S
H706 C703 0.950 . S
C707 C698 1.390 . S
C707 H700 0.950 . S
C707 C704 1.387 . S
C708 C709 1.387 . S
C708 H712 0.950 . S
C708 C717 1.390 . S
C709 C708 1.387 . S
C709 C711 1.387 . S
H710 C717 0.950 . S
C711 C709 1.387 . S
C711 C713 1.390 . S
C711 H715 0.950 . S
H712 C708 0.950 . S
C713 C711 1.390 . S
C713 C714 1.387 . S
C713 H716 0.950 . S
C714 C713 1.387 . S
C714 C717 1.387 . S
H715 C711 0.950 . S
H716 C713 0.950 . S
C717 C708 1.390 . S
C717 H710 0.950 . S
C717 C714 1.387 . S
C718 C719 1.387 . S
C718 H722 0.950 . S
C718 C727 1.390 . S
C719 C718 1.387 . S
C719 C721 1.387 . S
H720 C727 0.950 . S
C721 C719 1.387 . S
C721 C723 1.390 . S
C721 H725 0.950 . S
H722 C718 0.950 . S
C723 C721 1.390 . S
C723 C724 1.387 . S
C723 H726 0.950 . S
C724 C723 1.387 . S
C724 C727 1.387 . S
H725 C721 0.950 . S
H726 C723 0.950 . S
C727 C718 1.390 . S
C727 H720 0.950 . S
C727 C724 1.387 . S
C728 C729 1.387 . S
C728 H732 0.950 . S
C728 C737 1.390 . S
C729 C728 1.387 . S
C729 C731 1.387 . S
H730 C737 0.950 . S
C731 C729 1.387 . S
C731 C733 1.390 . S
C731 H735 0.950 . S
H732 C728 0.950 . S
C733 C731 1.390 . S
C733 C734 1.387 . S
C733 H736 0.950 . S
C734 C733 1.387 . S
C734 C737 1.387 . S
H735 C731 0.950 . S
H736 C733 0.950 . S
C737 C728 1.390 . S
C737 H730 0.950 . S
C737 C734 1.387 . S
C738 C739 1.387 . S
C738 H742 0.950 . S
C738 C747 1.390 . S
C739 C738 1.387 . S
C739 C741 1.387 . S
H740 C747 0.950 . S
C741 C739 1.387 . S
C741 C743 1.390 . S
C741 H745 0.950 . S
H742 C738 0.950 . S
C743 C741 1.390 . S
C743 C744 1.387 . S
C743 H746 0.950 . S
C744 C743 1.387 . S
C744 C747 1.387 . S
H745 C741 0.950 . S
H746 C743 0.950 . S
C747 C738 1.390 . S
C747 H740 0.950 . S
C747 C744 1.387 . S
C748 C749 1.387 . S
C748 H752 0.950 . S
C748 C757 1.390 . S
C749 C748 1.387 . S
C749 C751 1.387 . S
H750 C757 0.950 . S
C751 C749 1.387 . S
C751 C753 1.390 . S
C751 H755 0.950 . S
H752 C748 0.950 . S
C753 C751 1.390 . S
C753 C754 1.387 . S
C753 H756 0.950 . S
C754 C753 1.387 . S
C754 C757 1.387 . S
H755 C751 0.950 . S
H756 C753 0.950 . S
C757 C748 1.390 . S
C757 H750 0.950 . S
C757 C754 1.387 . S
C758 C759 1.387 . S
C758 H762 0.950 . S
C758 C767 1.390 . S
C759 C758 1.387 . S
C759 C761 1.387 . S
H760 C767 0.950 . S
C761 C759 1.387 . S
C761 C763 1.390 . S
C761 H765 0.950 . S
H762 C758 0.950 . S
C763 C761 1.390 . S
C763 C764 1.387 . S
C763 H766 0.950 . S
C764 C763 1.387 . S
C764 C767 1.387 . S
H765 C761 0.950 . S
H766 C763 0.950 . S
C767 C758 1.390 . S
C767 H760 0.950 . S
C767 C764 1.387 . S
C768 C769 1.387 . S
C768 H772 0.950 . S
C768 C777 1.390 . S
C769 C768 1.387 . S
C769 C771 1.387 . S
H770 C777 0.950 . S
C771 C769 1.387 . S
C771 C773 1.390 . S
C771 H775 0.950 . S
H772 C768 0.950 . S
C773 C771 1.390 . S
C773 C774 1.387 . S
C773 H776 0.950 . S
C774 C773 1.387 . S
C774 C777 1.387 . S
H775 C771 0.950 . S
H776 C773 0.950 . S
C777 C768 1.390 . S
C777 H770 0.950 . S
C777 C774 1.387 . S
C778 C779 1.387 . S
C778 H782 0.950 . S
C778 C787 1.390 . S
C779 C778 1.387 . S
C779 C781 1.387 . S
H780 C787 0.950 . S
C781 C779 1.387 . S
C781 C783 1.390 . S
C781 H785 0.950 . S
H782 C778 0.950 . S
C783 C781 1.390 . S
C783 C784 1.387 . S
C783 H786 0.950 . S
C784 C783 1.387 . S
C784 C787 1.387 . S
H785 C781 0.950 . S
H786 C783 0.950 . S
C787 C778 1.390 . S
C787 H780 0.950 . S
C787 C784 1.387 . S
C788 C789 1.387 . S
C788 H792 0.950 . S
C788 C797 1.390 . S
C789 C788 1.387 . S
C789 C791 1.387 . S
H790 C797 0.950 . S
C791 C789 1.387 . S
C791 C793 1.390 . S
C791 H795 0.950 . S
H792 C788 0.950 . S
C793 C791 1.390 . S
C793 C794 1.387 . S
C793 H796 0.950 . S
C794 C793 1.387 . S
C794 C797 1.387 . S
H795 C791 0.950 . S
H796 C793 0.950 . S
C797 C788 1.390 . S
C797 H790 0.950 . S
C797 C794 1.387 . S
C798 C799 1.387 . S
C798 H802 0.950 . S
C798 C807 1.390 . S
C799 C798 1.387 . S
C799 C801 1.387 . S
H800 C807 0.950 . S
C801 C799 1.387 . S
C801 C803 1.390 . S
C801 H805 0.950 . S
H802 C798 0.950 . S
C803 C801 1.390 . S
C803 C804 1.387 . S
C803 H806 0.950 . S
C804 C803 1.387 . S
C804 C807 1.387 . S
H805 C801 0.950 . S
H806 C803 0.950 . S
C807 C798 1.390 . S
C807 H800 0.950 . S
C807 C804 1.387 . S
C808 C809 1.387 . S
C808 H812 0.950 . S
C808 C817 1.390 . S
C809 C808 1.387 . S
C809 C811 1.387 . S
H810 C817 0.950 . S
C811 C809 1.387 . S
C811 C813 1.390 . S
C811 H815 0.950 . S
H812 C808 0.950 . S
C813 C811 1.390 . S
C813 C814 1.387 . S
C813 H816 0.950 . S
C814 C813 1.387 . S
C814 C817 1.387 . S
H815 C811 0.950 . S
H816 C813 0.950 . S
C817 C808 1.390 . S
C817 H810 0.950 . S
C817 C814 1.387 . S
C818 C819 1.387 . S
C818 H822 0.950 . S
C818 C827 1.390 . S
C819 C818 1.387 . S
C819 C821 1.387 . S
H820 C827 0.950 . S
C821 C819 1.387 . S
C821 C823 1.390 . S
C821 H825 0.950 . S
H822 C818 0.950 . S
C823 C821 1.390 . S
C823 C824 1.387 . S
C823 H826 0.950 . S
C824 C823 1.387 . S
C824 C827 1.387 . S
H825 C821 0.950 . S
H826 C823 0.950 . S
C827 C818 1.390 . S
C827 H820 0.950 . S
C827 C824 1.387 . S
C828 C829 1.387 . S
C828 H832 0.950 . S
C828 C837 1.390 . S
C829 C828 1.387 . S
C829 C831 1.387 . S
H830 C837 0.950 . S
C831 C829 1.387 . S
C831 C833 1.390 . S
C831 H835 0.950 . S
H832 C828 0.950 . S
C833 C831 1.390 . S
C833 C834 1.387 . S
C833 H836 0.950 . S
C834 C833 1.387 . S
C834 C837 1.387 . S
H835 C831 0.950 . S
H836 C833 0.950 . S
C837 C828 1.390 . S
C837 H830 0.950 . S
C837 C834 1.387 . S
C838 C839 1.387 . S
C838 H842 0.950 . S
C838 C847 1.390 . S
C839 C838 1.387 . S
C839 C841 1.387 . S
H840 C847 0.950 . S
C841 C839 1.387 . S
C841 C843 1.390 . S
C841 H845 0.950 . S
H842 C838 0.950 . S
C843 C841 1.390 . S
C843 C844 1.387 . S
C843 H846 0.950 . S
C844 C843 1.387 . S
C844 C847 1.387 . S
H845 C841 0.950 . S
H846 C843 0.950 . S
C847 C838 1.390 . S
C847 H840 0.950 . S
C847 C844 1.387 . S
C848 C849 1.387 . S
C848 H852 0.950 . S
C848 C857 1.390 . S
C849 C848 1.387 . S
C849 C851 1.387 . S
H850 C857 0.950 . S
C851 C849 1.387 . S
C851 C853 1.390 . S
C851 H855 0.950 . S
H852 C848 0.950 . S
C853 C851 1.390 . S
C853 C854 1.387 . S
C853 H856 0.950 . S
C854 C853 1.387 . S
C854 C857 1.387 . S
H855 C851 0.950 . S
H856 C853 0.950 . S
C857 C848 1.390 . S
C857 H850 0.950 . S
C857 C854 1.387 . S
C858 C859 1.387 . S
C858 H862 0.950 . S
C858 C867 1.390 . S
C859 C858 1.387 . S
C859 C861 1.387 . S
H860 C867 0.950 . S
C861 C859 1.387 . S
C861 C863 1.390 . S
C861 H865 0.950 1_556 S
H862 C858 0.950 . S
C863 C861 1.390 . S
C863 C864 1.387 . S
C863 H866 0.950 1_556 S
C864 C863 1.387 . S
C864 C867 1.387 . S
H865 C861 0.950 1_554 S
H866 C863 0.950 1_554 S
C867 C858 1.390 . S
C867 H860 0.950 . S
C867 C864 1.387 . S
C868 C869 1.387 . S
C868 H872 0.950 . S
C868 C877 1.390 . S
C869 C868 1.387 . S
C869 C871 1.387 . S
H870 C877 0.950 . S
C871 C869 1.387 . S
C871 C873 1.390 . S
C871 H875 0.950 . S
H872 C868 0.950 . S
C873 C871 1.390 . S
C873 C874 1.387 . S
C873 H876 0.950 . S
C874 C873 1.387 . S
C874 C877 1.387 . S
H875 C871 0.950 . S
H876 C873 0.950 . S
C877 C868 1.390 . S
C877 H870 0.950 . S
C877 C874 1.387 . S
C878 C879 1.387 . S
C878 H882 0.950 . S
C878 C887 1.390 . S
C879 C878 1.387 . S
C879 C881 1.387 . S
H880 C887 0.950 . S
C881 C879 1.387 . S
C881 C883 1.390 . S
C881 H885 0.950 . S
H882 C878 0.950 . S
C883 C881 1.390 . S
C883 C884 1.387 . S
C883 H886 0.950 . S
C884 C883 1.387 . S
C884 C887 1.387 . S
H885 C881 0.950 . S
H886 C883 0.950 . S
C887 C878 1.390 . S
C887 H880 0.950 . S
C887 C884 1.387 . S
C888 C889 1.387 . S
C888 H892 0.950 . S
C888 C897 1.390 . S
C889 C888 1.387 . S
C889 C891 1.387 . S
H890 C897 0.950 . S
C891 C889 1.387 . S
C891 C893 1.390 . S
C891 H895 0.950 . S
H892 C888 0.950 . S
C893 C891 1.390 . S
C893 C894 1.387 . S
C893 H896 0.950 . S
C894 C893 1.387 . S
C894 C897 1.387 . S
H895 C891 0.950 . S
H896 C893 0.950 . S
C897 C888 1.390 . S
C897 H890 0.950 . S
C897 C894 1.387 . S
C898 C899 1.387 . S
C898 H902 0.950 . S
C898 C907 1.390 . S
C899 C898 1.387 . S
C899 C901 1.387 . S
H900 C907 0.950 . S
C901 C899 1.387 . S
C901 C903 1.390 . S
C901 H905 0.950 . S
H902 C898 0.950 . S
C903 C901 1.390 . S
C903 C904 1.387 . S
C903 H906 0.950 . S
C904 C903 1.387 . S
C904 C907 1.387 . S
H905 C901 0.950 . S
H906 C903 0.950 . S
C907 C898 1.390 . S
C907 H900 0.950 . S
C907 C904 1.387 . S
C908 C909 1.387 . S
C908 H912 0.950 . S
C908 C917 1.390 . S
C909 C908 1.387 . S
C909 C911 1.387 . S
H910 C917 0.950 . S
C911 C909 1.387 . S
C911 C913 1.390 . S
C911 H915 0.950 . S
H912 C908 0.950 . S
C913 C911 1.390 . S
C913 C914 1.387 . S
C913 H916 0.950 . S
C914 C913 1.387 . S
C914 C917 1.387 . S
H915 C911 0.950 . S
H916 C913 0.950 . S
C917 C908 1.390 . S
C917 H910 0.950 . S
C917 C914 1.387 . S
C918 C919 1.387 . S
C918 H922 0.950 . S
C918 C927 1.390 . S
C919 C918 1.387 . S
C919 C921 1.387 . S
H920 C927 0.950 . S
C921 C919 1.387 . S
C921 C923 1.390 . S
C921 H925 0.950 . S
H922 C918 0.950 . S
C923 C921 1.390 . S
C923 C924 1.387 . S
C923 H926 0.950 . S
C924 C923 1.387 . S
C924 C927 1.387 . S
H925 C921 0.950 . S
H926 C923 0.950 . S
C927 C918 1.390 . S
C927 H920 0.950 . S
C927 C924 1.387 . S
C529 C338 1.516 . S
C534 C8 1.516 . S
C539 C61 1.517 . S
C544 C259 1.517 . S
C549 C503 1.517 . S
C554 C41 1.517 . S
C559 C94 1.517 . S
C564 C28 1.517 . S
C569 C74 1.516 . S
C574 C272 1.516 . S
C579 C193 1.517 . S
C584 C127 1.517 . S
C589 C437 1.516 . S
C594 C107 1.516 . S
C599 C470 1.515 . S
C604 C140 1.515 . S
C609 C173 1.516 . S
C614 C371 1.516 . S
C619 C226 1.516 . S
C624 C160 1.516 . S
C629 C404 1.515 . S
C634 C206 1.515 . S
C639 C305 1.516 . S
C644 C239 1.516 . S
C649 C523 1.517 . S
C654 C325 1.517 . S
C659 C292 1.516 . S
C664 C358 1.516 . S
C669 C391 1.516 . S
C674 C457 1.516 . S
C679 C490 1.517 . S
C684 C424 1.517 . S
C689 N14 1.411 . S
C694 N5 1.415 . S
C699 N47 1.411 . S
C704 N38 1.415 . S
C709 N80 1.412 . S
C714 N71 1.416 . S
C719 N113 1.410 . S
C724 N104 1.415 . S
C729 N137 1.416 . S
C734 N146 1.412 1_554 S
C739 N179 1.410 . S
C744 N170 1.415 1_554 S
C749 N212 1.411 1_556 S
C754 N203 1.415 . S
C759 N236 1.415 1_556 S
C764 N245 1.411 . S
C769 N278 1.411 1_554 S
C774 N269 1.415 . S
C779 N302 1.416 1_554 S
C784 N311 1.412 . S
C789 N344 1.410 1_556 S
C794 N335 1.415 . S
C799 N368 1.415 1_556 S
C804 N377 1.411 . S
C809 N410 1.411 . S
C814 N401 1.415 . S
C819 N443 1.411 . S
C824 N434 1.415 . S
C829 N476 1.411 . S
C834 N467 1.415 . S
C839 N509 1.411 . S
C844 N500 1.415 . S
C849 C17 1.499 . S
C854 C50 1.499 . S
C859 C83 1.499 . S
C864 C116 1.499 . S
C869 C149 1.499 . S
C874 C182 1.499 . S
C879 C215 1.499 . S
C884 C248 1.499 . S
C889 C314 1.499 . S
C894 C281 1.499 . S
C899 C347 1.499 . S
C904 C380 1.499 . S
C909 C446 1.499 . S
C914 C413 1.499 . S
C919 C512 1.499 . S
C924 C479 1.499 . S
