# Generated by pormake.
# Topology lcy-e, (6)-cn, num edge types: 1
# Building blocks:
#     Node 0, Type 0, BuildingBlock: BETFAJ_clean_sbu_0, # of connection points: 6
#     Node 1, Type 0, BuildingBlock: BETFAJ_clean_sbu_0, # of connection points: 6
#     Node 2, Type 0, BuildingBlock: BETFAJ_clean_sbu_0, # of connection points: 6
#     Node 3, Type 0, BuildingBlock: BETFAJ_clean_sbu_0, # of connection points: 6
#     Node 4, Type 0, BuildingBlock: BETFAJ_clean_sbu_0, # of connection points: 6
#     Node 5, Type 0, BuildingBlock: BETFAJ_clean_sbu_0, # of connection points: 6
#     Node 6, Type 0, BuildingBlock: BETFAJ_clean_sbu_0, # of connection points: 6
#     Node 7, Type 0, BuildingBlock: BETFAJ_clean_sbu_0, # of connection points: 6
#     Node 8, Type 0, BuildingBlock: BETFAJ_clean_sbu_0, # of connection points: 6
#     Node 9, Type 0, BuildingBlock: BETFAJ_clean_sbu_0, # of connection points: 6
#     Node 10, Type 0, BuildingBlock: BETFAJ_clean_sbu_0, # of connection points: 6
#     Node 11, Type 0, BuildingBlock: BETFAJ_clean_sbu_0, # of connection points: 6
#     Edge 12, Type (0, 0), BuildingBlock: AJUNOK_clean_linker_0, # of connection points: 2
#     Edge 13, Type (0, 0), BuildingBlock: AJUNOK_clean_linker_0, # of connection points: 2
#     Edge 14, Type (0, 0), BuildingBlock: AJUNOK_clean_linker_0, # of connection points: 2
#     Edge 15, Type (0, 0), BuildingBlock: AJUNOK_clean_linker_0, # of connection points: 2
#     Edge 16, Type (0, 0), BuildingBlock: AJUNOK_clean_linker_0, # of connection points: 2
#     Edge 17, Type (0, 0), BuildingBlock: AJUNOK_clean_linker_0, # of connection points: 2
#     Edge 18, Type (0, 0), BuildingBlock: AJUNOK_clean_linker_0, # of connection points: 2
#     Edge 19, Type (0, 0), BuildingBlock: AJUNOK_clean_linker_0, # of connection points: 2
#     Edge 20, Type (0, 0), BuildingBlock: AJUNOK_clean_linker_0, # of connection points: 2
#     Edge 21, Type (0, 0), BuildingBlock: AJUNOK_clean_linker_0, # of connection points: 2
#     Edge 22, Type (0, 0), BuildingBlock: AJUNOK_clean_linker_0, # of connection points: 2
#     Edge 23, Type (0, 0), BuildingBlock: AJUNOK_clean_linker_0, # of connection points: 2
#     Edge 24, Type (0, 0), BuildingBlock: AJUNOK_clean_linker_0, # of connection points: 2
#     Edge 25, Type (0, 0), BuildingBlock: AJUNOK_clean_linker_0, # of connection points: 2
#     Edge 26, Type (0, 0), BuildingBlock: AJUNOK_clean_linker_0, # of connection points: 2
#     Edge 27, Type (0, 0), BuildingBlock: AJUNOK_clean_linker_0, # of connection points: 2
#     Edge 28, Type (0, 0), BuildingBlock: AJUNOK_clean_linker_0, # of connection points: 2
#     Edge 29, Type (0, 0), BuildingBlock: AJUNOK_clean_linker_0, # of connection points: 2
#     Edge 30, Type (0, 0), BuildingBlock: AJUNOK_clean_linker_0, # of connection points: 2
#     Edge 31, Type (0, 0), BuildingBlock: AJUNOK_clean_linker_0, # of connection points: 2
#     Edge 32, Type (0, 0), BuildingBlock: AJUNOK_clean_linker_0, # of connection points: 2
#     Edge 33, Type (0, 0), BuildingBlock: AJUNOK_clean_linker_0, # of connection points: 2
#     Edge 34, Type (0, 0), BuildingBlock: AJUNOK_clean_linker_0, # of connection points: 2
#     Edge 35, Type (0, 0), BuildingBlock: AJUNOK_clean_linker_0, # of connection points: 2
#     Edge 36, Type (0, 0), BuildingBlock: AJUNOK_clean_linker_0, # of connection points: 2
#     Edge 37, Type (0, 0), BuildingBlock: AJUNOK_clean_linker_0, # of connection points: 2
#     Edge 38, Type (0, 0), BuildingBlock: AJUNOK_clean_linker_0, # of connection points: 2
#     Edge 39, Type (0, 0), BuildingBlock: AJUNOK_clean_linker_0, # of connection points: 2
#     Edge 40, Type (0, 0), BuildingBlock: AJUNOK_clean_linker_0, # of connection points: 2
#     Edge 41, Type (0, 0), BuildingBlock: AJUNOK_clean_linker_0, # of connection points: 2
#     Edge 42, Type (0, 0), BuildingBlock: AJUNOK_clean_linker_0, # of connection points: 2
#     Edge 43, Type (0, 0), BuildingBlock: AJUNOK_clean_linker_0, # of connection points: 2
#     Edge 44, Type (0, 0), BuildingBlock: AJUNOK_clean_linker_0, # of connection points: 2
#     Edge 45, Type (0, 0), BuildingBlock: AJUNOK_clean_linker_0, # of connection points: 2
#     Edge 46, Type (0, 0), BuildingBlock: AJUNOK_clean_linker_0, # of connection points: 2
#     Edge 47, Type (0, 0), BuildingBlock: AJUNOK_clean_linker_0, # of connection points: 2
# Relax obj value: 0.203
# Max RMSD: 0.321
# Mean RMSD: 0.297
data_MOF--net-lcy-e--node1-BETFAJ_clean_sbu_0--edge1-AJUNOK_clean_linker_0
_symmetry_space_group_name_H-M    P1
_symmetry_Int_Tables_number       1
_symmetry_cell_setting            triclinic
loop_
_symmetry_equiv_pos_as_xyz
'x, y, z'
_cell_length_a     35.649645
_cell_length_b     33.101073
_cell_length_c     35.69053
_cell_angle_alpha  89.626489
_cell_angle_beta   90.969802
_cell_angle_gamma 88.649803
loop_
_atom_site_label
_atom_site_type_symbol
_atom_site_fract_x
_atom_site_fract_y
_atom_site_fract_z
_atom_type_partial_charge
Sm0 Sm 0.14132 0.29141 0.48541 0.0
Sm1 Sm 0.15938 0.23049 0.54741 0.0
C2 C 0.13035 0.35161 0.43668 0.0
C3 C 0.13736 0.35841 0.39638 0.0
C4 C 0.16512 0.33553 0.37789 0.0
C5 C 0.17623 0.34631 0.34175 0.0
C6 C 0.15951 0.37988 0.32314 0.0
C7 C 0.13071 0.40174 0.34117 0.0
C8 C 0.11984 0.39115 0.37746 0.0
C9 C 0.1098 0.21619 0.47398 0.0
C10 C 0.2124 0.22929 0.47601 0.0
C11 C 0.16075 0.17194 0.5982 0.0
C12 C 0.13525 0.14387 0.61708 0.0
C13 C 0.11839 0.11198 0.59757 0.0
C14 C 0.09878 0.08242 0.6169 0.0
C15 C 0.09586 0.08407 0.65605 0.0
C16 C 0.11052 0.11738 0.67513 0.0
C17 C 0.1302 0.14682 0.65588 0.0
C18 C 0.19994 0.30203 0.55056 0.0
C19 C 0.09456 0.29244 0.56532 0.0
O20 O 0.16067 0.34644 0.45738 0.0
O21 O 0.10354 0.32715 0.44599 0.0
O22 O 0.11161 0.23485 0.50454 0.0
O23 O 0.12589 0.23709 0.44828 0.0
O24 O 0.20095 0.26721 0.47045 0.0
O25 O 0.19418 0.20592 0.49906 0.0
O26 O 0.1671 0.16592 0.56257 0.0
O27 O 0.15827 0.21029 0.60701 0.0
O28 O 0.16626 0.29787 0.54214 0.0
O29 O 0.2138 0.26717 0.56136 0.0
O30 O 0.10199 0.2535 0.56555 0.0
O31 O 0.10918 0.31552 0.53872 0.0
H32 H 0.17925 0.31023 0.392 0.0
H33 H 0.19842 0.32888 0.3286 0.0
H34 H 0.11772 0.42817 0.32787 0.0
H35 H 0.09877 0.40955 0.3913 0.0
H36 H 0.1215 0.10892 0.56759 0.0
H37 H 0.08772 0.05711 0.60151 0.0
H38 H 0.10809 0.11975 0.70526 0.0
H39 H 0.14273 0.17108 0.67161 0.0
Sm40 Sm 0.99173 0.86433 0.74715 0.0
Sm41 Sm 0.0518 0.88341 0.80611 0.0
C42 C 0.93192 0.85849 0.70237 0.0
C43 C 0.91971 0.87447 0.66458 0.0
C44 C 0.90553 0.91445 0.66065 0.0
C45 C 0.89183 0.92919 0.62607 0.0
C46 C 0.8918 0.90459 0.59413 0.0
C47 C 0.90665 0.86487 0.59765 0.0
C48 C 0.92034 0.84996 0.63248 0.0
C49 C 0.06319 0.83745 0.72803 0.0
C50 C 0.04364 0.94198 0.73584 0.0
C51 C 0.11063 0.89041 0.85228 0.0
C52 C 0.14667 0.87146 0.86582 0.0
C53 C 0.14823 0.83613 0.88801 0.0
C54 C 0.18263 0.82163 0.90334 0.0
C55 C 0.21612 0.8422 0.89689 0.0
C56 C 0.21448 0.87685 0.87388 0.0
C57 C 0.18027 0.89125 0.85862 0.0
C58 C 0.98065 0.92032 0.81543 0.0
C59 C 1.00471 0.80655 0.82349 0.0
O60 O 0.93517 0.88545 0.72883 0.0
O61 O 0.95824 0.83003 0.70458 0.0
O62 O 0.04946 0.83566 0.76033 0.0
O63 O 0.03901 0.85428 0.70498 0.0
O64 O 1.00852 0.9302 0.73352 0.0
O65 O 0.06835 0.92094 0.75592 0.0
O66 O 0.10953 0.90405 0.81778 0.0
O67 O 0.07875 0.87533 0.86275 0.0
O68 O 0.98858 0.88531 0.80573 0.0
O69 O 1.01174 0.93839 0.82309 0.0
O70 O 0.03934 0.8192 0.82329 0.0
O71 O 0.98 0.81986 0.7974 0.0
H72 H 0.9043 0.93442 0.68453 0.0
H73 H 0.88063 0.95987 0.62443 0.0
H74 H 0.90638 0.8448 0.57381 0.0
H75 H 0.93069 0.81898 0.63443 0.0
H76 H 0.12284 0.82027 0.89432 0.0
H77 H 0.18276 0.79524 0.92143 0.0
H78 H 0.23968 0.89332 0.8682 0.0
H79 H 0.17999 0.91868 0.84186 0.0
Sm80 Sm 0.39386 0.7794 0.04731 0.0
Sm81 Sm 0.4049 0.71818 0.9829 0.0
C82 C 0.39339 0.82181 0.11072 0.0
C83 C 0.40236 0.86184 0.12635 0.0
C84 C 0.42138 0.89066 0.10523 0.0
C85 C 0.43655 0.92475 0.12261 0.0
C86 C 0.43343 0.93045 0.16157 0.0
C87 C 0.41302 0.90222 0.18219 0.0
C88 C 0.39777 0.86836 0.1648 0.0
C89 C 0.35243 0.79762 0.9826 0.0
C90 C 0.46023 0.79694 0.98751 0.0
C91 C 0.40994 0.68525 0.91553 0.0
C92 C 0.38979 0.67159 0.88143 0.0
C93 C 0.39898 0.68875 0.84678 0.0
C94 C 0.38399 0.67384 0.81334 0.0
C95 C 0.35934 0.64137 0.81368 0.0
C96 C 0.34901 0.62504 0.84846 0.0
C97 C 0.36414 0.63997 0.88207 0.0
C98 C 0.44212 0.69786 0.04943 0.0
C99 C 0.34646 0.69292 0.04173 0.0
O100 O 0.42228 0.8014 0.09845 0.0
O101 O 0.36343 0.81788 0.08937 0.0
O102 O 0.35787 0.7628 0.99655 0.0
O103 O 0.36874 0.8243 1.00345 0.0
O104 O 0.44632 0.80659 1.02042 0.0
O105 O 0.44723 0.76666 0.96785 0.0
O106 O 0.41048 0.72422 0.92137 0.0
O107 O 0.40846 0.6638 0.94648 0.0
O108 O 0.43794 0.73275 0.0354 0.0
O109 O 0.43116 0.67113 0.02533 0.0
O110 O 0.35043 0.69558 1.00526 0.0
O111 O 0.36275 0.71949 0.06457 0.0
H112 H 0.42572 0.88601 0.07558 0.0
H113 H 0.45121 0.94629 0.10563 0.0
H114 H 0.41012 0.90541 0.21219 0.0
H115 H 0.38386 0.84619 0.18181 0.0
H116 H 0.4188 0.71303 0.84547 0.0
H117 H 0.39237 0.68713 0.78704 0.0
H118 H 0.33052 0.59958 0.84961 0.0
H119 H 0.35661 0.62604 0.90835 0.0
Sm120 Sm 0.5656 0.13427 0.25766 0.0
Sm121 Sm 0.50949 0.1135 0.32208 0.0
C122 C 0.62415 0.12276 0.21425 0.0
C123 C 0.63286 0.10911 0.17574 0.0
C124 C 0.6514 0.07156 0.17111 0.0
C125 C 0.66033 0.05748 0.13545 0.0
C126 C 0.6511 0.08065 0.10336 0.0
C127 C 0.6326 0.11834 0.10787 0.0
C128 C 0.6234 0.13239 0.1437 0.0
C129 C 0.49829 0.17179 0.2389 0.0
C130 C 0.50406 0.06073 0.24678 0.0
C131 C 0.45734 0.11399 0.37451 0.0
C132 C 0.42083 0.13411 0.38382 0.0
C133 C 0.41901 0.17291 0.39982 0.0
C134 C 0.38465 0.18953 0.41183 0.0
C135 C 0.35143 0.16762 0.40842 0.0
C136 C 0.35309 0.12965 0.39097 0.0
C137 C 0.38732 0.11303 0.37908 0.0
C138 C 0.58381 0.08178 0.329 0.0
C139 C 0.55543 0.19248 0.33151 0.0
O140 O 0.61108 0.09483 0.23645 0.0
O141 O 0.60842 0.15874 0.21916 0.0
O142 O 0.50429 0.15024 0.2681 0.0
O143 O 0.52854 0.17407 0.21932 0.0
O144 O 0.53755 0.0746 0.2387 0.0
O145 O 0.48508 0.07488 0.27536 0.0
O146 O 0.45753 0.08902 0.34621 0.0
O147 O 0.48786 0.13511 0.37682 0.0
O148 O 0.57231 0.11524 0.31702 0.0
O149 O 0.55479 0.0629 0.34124 0.0
O150 O 0.52057 0.18073 0.32887 0.0
O151 O 0.58051 0.17744 0.30764 0.0
H152 H 0.65939 0.0531 0.19527 0.0
H153 H 0.6755 0.02889 0.1331 0.0
H154 H 0.62535 0.13701 0.08365 0.0
H155 H 0.60914 0.16146 0.14626 0.0
H156 H 0.44423 0.19006 0.40396 0.0
H157 H 0.38431 0.21885 0.42512 0.0
H158 H 0.32792 0.11234 0.38716 0.0
H159 H 0.38763 0.08312 0.36693 0.0
Sm160 Sm 0.64317 0.21592 0.56589 0.0
Sm161 Sm 0.66023 0.28578 0.50793 0.0
C162 C 0.65108 0.14822 0.60536 0.0
C163 C 0.65947 0.13653 0.6448 0.0
C164 C 0.68258 0.16027 0.66772 0.0
C165 C 0.6935 0.14691 0.70373 0.0
C166 C 0.68141 0.10965 0.71764 0.0
C167 C 0.65728 0.08665 0.69509 0.0
C168 C 0.64657 0.09988 0.65898 0.0
C169 C 0.60244 0.28381 0.5869 0.0
C170 C 0.71155 0.28141 0.58222 0.0
C171 C 0.66061 0.34775 0.46051 0.0
C172 C 0.63591 0.37916 0.4424 0.0
C173 C 0.6241 0.41405 0.46179 0.0
C174 C 0.60392 0.44524 0.44311 0.0
C175 C 0.59502 0.44208 0.40477 0.0
C176 C 0.60655 0.40704 0.3856 0.0
C177 C 0.6267 0.37601 0.40417 0.0
C178 C 0.69874 0.21133 0.50084 0.0
C179 C 0.59302 0.22944 0.48735 0.0
O180 O 0.67859 0.16516 0.58762 0.0
O181 O 0.61805 0.16497 0.59751 0.0
O182 O 0.62422 0.28154 0.55928 0.0
O183 O 0.60244 0.24949 0.60456 0.0
O184 O 0.69888 0.24448 0.58781 0.0
O185 O 0.69649 0.30576 0.55662 0.0
O186 O 0.66762 0.35097 0.49649 0.0
O187 O 0.657 0.31023 0.4497 0.0
O188 O 0.66529 0.218 0.5086 0.0
O189 O 0.7141 0.24576 0.49375 0.0
O190 O 0.60073 0.26778 0.49149 0.0
O191 O 0.60828 0.20195 0.51093 0.0
H192 H 0.69282 0.18879 0.6575 0.0
H193 H 0.71153 0.16566 0.72063 0.0
H194 H 0.64754 0.05778 0.70498 0.0
H195 H 0.6289 0.08101 0.6418 0.0
H196 H 0.63103 0.41769 0.49121 0.0
H197 H 0.59557 0.47197 0.45852 0.0
H198 H 0.60107 0.40415 0.35581 0.0
H199 H 0.63598 0.34996 0.38828 0.0
Sm200 Sm 1.00435 0.37939 0.73249 0.0
Sm201 Sm 0.06131 0.36129 0.79265 0.0
C202 C 0.96087 0.38923 0.67187 0.0
C203 C 0.92369 0.37345 0.66166 0.0
C204 C 0.90337 0.35096 0.68764 0.0
C205 C 0.86863 0.33484 0.67751 0.0
C206 C 0.85357 0.34095 0.64119 0.0
C207 C 0.87406 0.36358 0.61534 0.0
C208 C 0.90881 0.37955 0.62545 0.0
C209 C 0.98912 0.41866 0.79888 0.0
C210 C 0.98585 0.30611 0.78949 0.0
C211 C 0.09938 0.35004 0.85648 0.0
C212 C 0.11738 0.37344 0.88674 0.0
C213 C 0.09804 0.40487 0.90524 0.0
C214 C 0.11412 0.42326 0.93674 0.0
C215 C 0.14962 0.41032 0.95039 0.0
C216 C 0.16965 0.38043 0.93063 0.0
C217 C 0.15363 0.36212 0.89921 0.0
C218 C 0.07472 0.32447 0.72378 0.0
C219 C 0.08434 0.42869 0.73917 0.0
O220 O 0.98808 0.36221 0.67446 0.0
O221 O 0.96179 0.4153 0.6992 0.0
O222 O 1.02125 0.41534 0.78447 0.0
O223 O 0.96451 0.40012 0.77858 0.0
O224 O 0.97731 0.32209 0.75637 0.0
O225 O 1.01437 0.31909 0.80951 0.0
O226 O 0.06272 0.35193 0.85409 0.0
O227 O 0.11537 0.34953 0.82377 0.0
O228 O 0.04395 0.32713 0.74038 0.0
O229 O 0.10085 0.33867 0.74537 0.0
O230 O 0.08118 0.42245 0.7752 0.0
O231 O 0.05957 0.41283 0.71547 0.0
H232 H 0.91437 0.3459 0.71579 0.0
H233 H 0.85332 0.31817 0.69825 0.0
H234 H 0.8633 0.36867 0.58709 0.0
H235 H 0.92414 0.39654 0.60492 0.0
H236 H 0.07005 0.41437 0.89616 0.0
H237 H 0.09815 0.44631 0.95137 0.0
H238 H 0.19738 0.37044 0.94013 0.0
H239 H 0.16916 0.33817 0.88532 0.0
Sm240 Sm 0.90722 0.77576 0.04927 0.0
Sm241 Sm 0.88386 0.71166 0.99584 0.0
C242 C 0.90787 0.83808 0.09578 0.0
C243 C 0.89322 0.84832 0.1335 0.0
C244 C 0.85443 0.85051 0.14042 0.0
C245 C 0.84115 0.86264 0.17551 0.0
C246 C 0.86629 0.87264 0.20466 0.0
C247 C 0.90506 0.86955 0.19787 0.0
C248 C 0.91831 0.85765 0.16277 0.0
C249 C 0.95048 0.70727 0.05826 0.0
C250 C 0.83188 0.71969 0.06685 0.0
C251 C 0.87899 0.64942 0.94931 0.0
C252 C 0.90145 0.61943 0.92795 0.0
C253 C 0.93099 0.59637 0.94471 0.0
C254 C 0.94848 0.56467 0.92504 0.0
C255 C 0.93668 0.55539 0.88832 0.0
C256 C 0.90813 0.57957 0.87128 0.0
C257 C 0.89078 0.61117 0.89084 0.0
C258 C 0.85033 0.78851 0.9847 0.0
C259 C 0.95339 0.76335 0.97233 0.0
O260 O 0.88331 0.83445 0.0684 0.0
O261 O 0.93536 0.81125 0.09423 0.0
O262 O 0.91499 0.70708 0.05282 0.0
O263 O 0.96293 0.74368 0.06067 0.0
O264 O 0.85243 0.75108 0.07616 0.0
O265 O 0.83983 0.69721 0.03789 0.0
O266 O 0.87922 0.64592 0.98582 0.0
O267 O 0.87831 0.68703 0.93786 0.0
O268 O 0.88385 0.77971 0.99162 0.0
O269 O 0.83157 0.75539 0.98199 0.0
O270 O 0.94314 0.72583 0.97677 0.0
O271 O 0.93903 0.79177 0.99442 0.0
H272 H 0.83419 0.84365 0.11854 0.0
H273 H 0.81115 0.86553 0.17933 0.0
H274 H 0.92525 0.87686 0.21966 0.0
H275 H 0.94831 0.85633 0.15832 0.0
H276 H 0.9398 0.60197 0.97336 0.0
H277 H 0.9701 0.5464 0.93911 0.0
H278 H 0.89863 0.57346 0.84293 0.0
H279 H 0.86809 0.6284 0.8773 0.0
Sm280 Sm 0.54639 0.60628 0.2332 0.0
Sm281 Sm 0.48392 0.63275 0.28145 0.0
C282 C 0.59868 0.60787 0.18088 0.0
C283 C 0.634 0.62869 0.17151 0.0
C284 C 0.63206 0.66574 0.1518 0.0
C285 C 0.6645 0.6837 0.13888 0.0
C286 C 0.69985 0.66511 0.14502 0.0
C287 C 0.70227 0.62902 0.16605 0.0
C288 C 0.6696 0.61083 0.17902 0.0
C289 C 0.54733 0.56242 0.29757 0.0
C290 C 0.55852 0.68155 0.29321 0.0
C291 C 0.4264 0.64 0.32743 0.0
C292 C 0.41542 0.62409 0.36412 0.0
C293 C 0.44191 0.60629 0.38913 0.0
C294 C 0.4306 0.59131 0.42391 0.0
C295 C 0.39263 0.59374 0.43399 0.0
C296 C 0.3663 0.61119 0.40851 0.0
C297 C 0.3776 0.62619 0.37395 0.0
C298 C 0.48034 0.66275 0.20721 0.0
C299 C 0.4705 0.5536 0.23873 0.0
O300 O 0.56834 0.63068 0.18069 0.0
O301 O 0.59889 0.58045 0.20757 0.0
O302 O 0.54021 0.60041 0.2965 0.0
O303 O 0.5559 0.54767 0.26502 0.0
O304 O 0.56815 0.6656 0.26075 0.0
O305 O 0.52832 0.66979 0.31013 0.0
O306 O 0.42779 0.61393 0.30021 0.0
O307 O 0.45429 0.66491 0.32718 0.0
O308 O 0.48895 0.62811 0.21837 0.0
O309 O 0.47119 0.68414 0.23613 0.0
O310 O 0.47317 0.56601 0.2733 0.0
O311 O 0.49438 0.56836 0.21406 0.0
H312 H 0.60527 0.68041 0.14515 0.0
H313 H 0.66184 0.71157 0.12284 0.0
H314 H 0.72922 0.61393 0.1709 0.0
H315 H 0.67214 0.58222 0.19383 0.0
H316 H 0.47127 0.6042 0.38184 0.0
H317 H 0.45159 0.57853 0.44312 0.0
H318 H 0.33681 0.61313 0.41531 0.0
H319 H 0.35675 0.63949 0.35485 0.0
Sm320 Sm 0.23423 0.53025 0.15727 0.0
Sm321 Sm 0.2905 0.46395 0.14121 0.0
C322 C 0.18994 0.59523 0.16282 0.0
C323 C 0.15077 0.6062 0.15087 0.0
C324 C 0.14521 0.63473 0.12184 0.0
C325 C 0.10935 0.64334 0.10706 0.0
C326 C 0.07783 0.62402 0.12113 0.0
C327 C 0.08296 0.59644 0.15108 0.0
C328 C 0.11918 0.58726 0.16559 0.0
C329 C 0.21507 0.45654 0.18838 0.0
C330 C 0.2183 0.46957 0.0884 0.0
C331 C 0.33817 0.40124 0.13866 0.0
C332 C 0.35802 0.36947 0.16149 0.0
C333 C 0.33884 0.34259 0.1848 0.0
C334 C 0.35788 0.30929 0.20167 0.0
C335 C 0.39629 0.30227 0.19533 0.0
C336 C 0.41559 0.33032 0.17353 0.0
C337 C 0.3967 0.36344 0.15684 0.0
C338 C 0.29806 0.53702 0.10087 0.0
C339 C 0.31386 0.52 0.20681 0.0
O340 O 0.21282 0.58886 0.13511 0.0
O341 O 0.19575 0.56976 0.19086 0.0
O342 O 0.24767 0.47072 0.18804 0.0
O343 O 0.1921 0.48085 0.17043 0.0
O344 O 0.21718 0.50814 0.09778 0.0
O345 O 0.2397 0.44383 0.10758 0.0
O346 O 0.30183 0.39841 0.1338 0.0
O347 O 0.34912 0.4386 0.14184 0.0
O348 O 0.29121 0.53193 0.13452 0.0
O349 O 0.3034 0.50165 0.08606 0.0
O350 O 0.31087 0.48162 0.19919 0.0
O351 O 0.28879 0.54647 0.19221 0.0
H352 H 0.16887 0.65 0.11001 0.0
H353 H 0.10621 0.66549 0.08467 0.0
H354 H 0.05907 0.58151 0.16276 0.0
H355 H 0.12245 0.56504 0.18788 0.0
H356 H 0.30895 0.34645 0.18893 0.0
H357 H 0.34225 0.28808 0.21813 0.0
H358 H 0.44526 0.32589 0.16838 0.0
H359 H 0.41215 0.38356 0.13903 0.0
Sm360 Sm 0.74701 0.96364 0.89978 0.0
Sm361 Sm 0.79721 0.03184 0.91714 0.0
C362 C 0.70772 0.89725 0.89038 0.0
C363 C 0.67047 0.88463 0.90407 0.0
C364 C 0.66827 0.85557 0.93284 0.0
C365 C 0.63345 0.84453 0.94692 0.0
C366 C 0.59994 0.86183 0.93213 0.0
C367 C 0.60206 0.89087 0.90337 0.0
C368 C 0.63687 0.90218 0.88953 0.0
C369 C 0.72909 0.03292 0.8589 0.0
C370 C 0.72028 0.02496 0.96554 0.0
C371 C 0.83038 0.10217 0.92616 0.0
C372 C 0.85196 0.13082 0.90384 0.0
C373 C 0.85364 0.12793 0.86463 0.0
C374 C 0.87441 0.15558 0.84399 0.0
C375 C 0.8942 0.18609 0.86241 0.0
C376 C 0.892 0.18907 0.90161 0.0
C377 C 0.87107 0.1617 0.9221 0.0
C378 C 0.81442 0.95966 0.95548 0.0
C379 C 0.82939 0.97293 0.8583 0.0
O380 O 0.73444 0.90023 0.91561 0.0
O381 O 0.70813 0.92651 0.86563 0.0
O382 O 0.76198 0.01891 0.865 0.0
O383 O 0.70494 0.01127 0.87629 0.0
O384 O 0.71672 0.98816 0.95203 0.0
O385 O 0.74647 0.04879 0.95315 0.0
O386 O 0.79492 0.09888 0.91689 0.0
O387 O 0.84683 0.06738 0.93422 0.0
O388 O 0.78234 0.97551 0.95021 0.0
O389 O 0.83935 0.98374 0.94239 0.0
O390 O 0.82418 0.01173 0.86365 0.0
O391 O 0.80524 0.94687 0.87228 0.0
H392 H 0.69355 0.84131 0.9445 0.0
H393 H 0.63267 0.82185 0.96889 0.0
H394 H 0.57674 0.905 0.89168 0.0
H395 H 0.63735 0.92482 0.86751 0.0
H396 H 0.83916 0.10414 0.8501 0.0
H397 H 0.87575 0.15255 0.81384 0.0
H398 H 0.90663 0.21259 0.91645 0.0
H399 H 0.86996 0.16455 0.95229 0.0
Sm400 Sm 0.74875 0.96625 0.40834 0.0
Sm401 Sm 0.81432 0.02968 0.39574 0.0
C402 C 0.68573 0.92684 0.39616 0.0
C403 C 0.6714 0.8864 0.3878 0.0
C404 C 0.69356 0.85735 0.36926 0.0
C405 C 0.67759 0.82187 0.35574 0.0
C406 C 0.63929 0.8147 0.36089 0.0
C407 C 0.61753 0.84339 0.3804 0.0
C408 C 0.63345 0.87887 0.39369 0.0
C409 C 0.80688 0.94797 0.45838 0.0
C410 C 0.81062 0.94894 0.34172 0.0
C411 C 0.87994 0.0653 0.38908 0.0
C412 C 0.91161 0.0864 0.40741 0.0
C413 C 0.93513 0.06736 0.43464 0.0
C414 C 0.96772 0.08619 0.44774 0.0
C415 C 0.97751 0.12432 0.43377 0.0
C416 C 0.95339 0.14361 0.4073 0.0
C417 C 0.92092 0.1249 0.39431 0.0
C418 C 0.74422 0.04874 0.36375 0.0
C419 C 0.75636 0.05173 0.45698 0.0
O420 O 0.70548 0.94312 0.36975 0.0
O421 O 0.69867 0.93427 0.42998 0.0
O422 O 0.8062 0.97596 0.43394 0.0
O423 O 0.77616 0.92777 0.45588 0.0
O424 O 0.78393 0.93368 0.36271 0.0
O425 O 0.82435 0.98508 0.3479 0.0
O426 O 0.87655 0.02651 0.39533 0.0
O427 O 0.84765 0.08467 0.38486 0.0
O428 O 0.76001 0.01444 0.36679 0.0
O429 O 0.7678 0.07609 0.37427 0.0
O430 O 0.79284 0.048 0.45243 0.0
O431 O 0.7327 0.02639 0.44031 0.0
H432 H 0.72288 0.86272 0.36418 0.0
H433 H 0.69503 0.80027 0.34089 0.0
H434 H 0.58781 0.8391 0.3842 0.0
H435 H 0.61573 0.90119 0.40731 0.0
H436 H 0.92898 0.03748 0.44507 0.0
H437 H 0.9859 0.07028 0.46778 0.0
H438 H 0.95994 0.17311 0.3962 0.0
H439 H 0.90359 0.14012 0.37307 0.0
Sm440 Sm 0.31098 0.47895 0.644 0.0
Sm441 Sm 0.25096 0.54156 0.6232 0.0
C442 C 0.35944 0.41737 0.65441 0.0
C443 C 0.39862 0.40722 0.64305 0.0
C444 C 0.4053 0.38861 0.6083 0.0
C445 C 0.44164 0.37694 0.59795 0.0
C446 C 0.47246 0.38339 0.62204 0.0
C447 C 0.46598 0.4027 0.65649 0.0
C448 C 0.42952 0.41448 0.66688 0.0
C449 C 0.32013 0.55274 0.67861 0.0
C450 C 0.3272 0.53722 0.57272 0.0
C451 C 0.21319 0.61055 0.6113 0.0
C452 C 0.19551 0.64419 0.63216 0.0
C453 C 0.17316 0.63757 0.66358 0.0
C454 C 0.1557 0.67027 0.68171 0.0
C455 C 0.16053 0.71015 0.66893 0.0
C456 C 0.18375 0.71653 0.6381 0.0
C457 C 0.20099 0.68393 0.61994 0.0
C458 C 0.23921 0.46587 0.59292 0.0
C459 C 0.22874 0.48417 0.6872 0.0
O460 O 0.33456 0.41957 0.62727 0.0
O461 O 0.35392 0.44534 0.67966 0.0
O462 O 0.28946 0.53494 0.6743 0.0
O463 O 0.3469 0.53216 0.66289 0.0
O464 O 0.33693 0.50312 0.58987 0.0
O465 O 0.29745 0.55845 0.58282 0.0
O466 O 0.24983 0.60785 0.61316 0.0
O467 O 0.1972 0.57532 0.61209 0.0
O468 O 0.27043 0.4829 0.59574 0.0
O469 O 0.21224 0.49125 0.60081 0.0
O470 O 0.22864 0.52275 0.67892 0.0
O471 O 0.25617 0.45959 0.6754 0.0
H472 H 0.38227 0.38206 0.58928 0.0
H473 H 0.44529 0.36109 0.57177 0.0
H474 H 0.48909 0.40791 0.67582 0.0
H475 H 0.42547 0.42855 0.69387 0.0
H476 H 0.16868 0.60718 0.67373 0.0
H477 H 0.13744 0.66421 0.70492 0.0
H478 H 0.18823 0.74682 0.62769 0.0
H479 H 0.21833 0.68975 0.59593 0.0
C480 C 0.20043 0.37669 0.53967 0.0
C481 C 0.21504 0.34252 0.55925 0.0
C482 C 0.20957 0.41619 0.54997 0.0
C483 C 0.23325 0.42342 0.58083 0.0
H484 H 0.18053 0.3731 0.51701 0.0
H485 H 0.19716 0.44135 0.5342 0.0
S486 S 0.2727 0.34478 0.64624 0.0
N487 N 0.25169 0.31875 0.61304 0.0
N488 N 0.26645 0.39274 0.63424 0.0
C489 C 0.24707 0.38955 0.60151 0.0
C490 C 0.23862 0.34917 0.59027 0.0
C491 C 0.89756 0.98568 0.84717 0.0
C492 C 0.86674 0.95961 0.84397 0.0
C493 C 0.93414 0.97316 0.83755 0.0
C494 C 0.9415 0.93416 0.82398 0.0
H495 H 0.89376 0.01583 0.85833 0.0
H496 H 0.95683 0.99404 0.84127 0.0
S497 S 0.87011 0.85562 0.80684 0.0
N498 N 0.84585 0.89399 0.82417 0.0
N499 N 0.91403 0.87022 0.80576 0.0
C500 C 0.91067 0.90823 0.81953 0.0
C501 C 0.87352 0.92097 0.82963 0.0
C502 C 0.33299 0.61898 0.03475 0.0
C503 C 0.33034 0.6547 0.05632 0.0
C504 C 0.32164 0.5813 0.04867 0.0
C505 C 0.3066 0.57767 0.08459 0.0
H506 H 0.3453 0.6197 1.00722 0.0
H507 H 0.32554 0.55474 0.03148 0.0
S508 S 0.2904 0.66255 0.15106 0.0
N509 N 0.30987 0.68409 0.11463 0.0
N510 N 0.28709 0.61432 0.14039 0.0
C511 C 0.30207 0.61362 0.10567 0.0
C512 C 0.31445 0.65174 0.09177 0.0
C513 C 0.63656 0.04017 0.36057 0.0
C514 C 0.62484 0.072 0.33644 0.0
C515 C 0.67499 0.03294 0.36948 0.0
C516 C 0.70352 0.05658 0.35423 0.0
H517 H 0.61589 0.02139 0.37353 0.0
H518 H 0.68215 1.00974 0.38977 0.0
S519 S 0.68858 0.1446 0.29088 0.0
N520 N 0.64596 0.12836 0.29853 0.0
N521 N 0.71722 0.11385 0.31486 0.0
C522 C 0.69228 0.08856 0.33046 0.0
C523 C 0.65334 0.09622 0.32148 0.0
C524 C 0.7509 0.16423 0.48003 0.0
C525 C 0.71453 0.16977 0.49381 0.0
C526 C 0.76462 0.12563 0.46995 0.0
C527 C 0.74238 0.09088 0.47269 0.0
H528 H 0.76862 0.19 0.47608 0.0
H529 H 0.79249 0.12345 0.4584 0.0
S530 S 0.64624 0.08808 0.50989 0.0
N531 N 0.65755 0.13604 0.51245 0.0
N532 N 0.68297 0.06442 0.49201 0.0
C533 C 0.70646 0.09575 0.48744 0.0
C534 C 0.69273 0.13485 0.49848 0.0
C535 C 0.12377 0.46893 0.69521 0.0
C536 C 0.12124 0.44287 0.72611 0.0
C537 C 0.15886 0.48199 0.68315 0.0
C538 C 0.19279 0.46833 0.70062 0.0
H539 H 0.09854 0.47977 0.68069 0.0
H540 H 0.15945 0.50276 0.6596 0.0
S541 S 0.20175 0.39765 0.78095 0.0
N542 N 0.15607 0.40295 0.77336 0.0
N543 N 0.22165 0.42617 0.74916 0.0
C544 C 0.19076 0.44133 0.73065 0.0
C545 C 0.15508 0.42901 0.74379 0.0
C546 C 0.85587 0.89761 0.95194 0.0
C547 C 0.82184 0.91568 0.96326 0.0
C548 C 0.86374 0.85627 0.95784 0.0
C549 C 0.83789 0.83073 0.97503 0.0
H550 H 0.87675 0.91553 0.93825 0.0
H551 H 0.89067 0.84422 0.94898 0.0
S552 S 0.74539 0.86301 1.01173 0.0
N553 N 0.76244 0.90487 0.99393 0.0
N554 N 0.77713 0.82686 1.00427 0.0
C555 C 0.80358 0.84813 0.98629 0.0
C556 C 0.79565 0.89061 0.98066 0.0
C557 C 0.41102 0.51787 0.25242 0.0
C558 C 0.43233 0.54061 0.22723 0.0
C559 C 0.37214 0.51309 0.24693 0.0
C560 C 0.35257 0.53234 0.21696 0.0
H561 H 0.42446 0.50415 0.27697 0.0
H562 H 0.35726 0.49406 0.2662 0.0
S563 S 0.39524 0.59394 0.14222 0.0
N564 N 0.43082 0.58092 0.1702 0.0
N565 N 0.35814 0.57344 0.1609 0.0
C566 C 0.37362 0.55492 0.1916 0.0
C567 C 0.41331 0.55862 0.19642 0.0
C568 C 0.54179 0.22749 0.39253 0.0
C569 C 0.56752 0.20651 0.36954 0.0
C570 C 0.54935 0.23379 0.43101 0.0
C571 C 0.58207 0.2176 0.44854 0.0
H572 H 0.51531 0.23872 0.38076 0.0
H573 H 0.52934 0.25119 0.4472 0.0
S574 S 0.65948 0.16226 0.40122 0.0
N575 N 0.62832 0.17201 0.3675 0.0
N576 N 0.64118 0.1816 0.43942 0.0
C577 C 0.60802 0.19699 0.42587 0.0
C578 C 0.60112 0.19203 0.38658 0.0
C579 C 0.05586 0.28987 0.62325 0.0
C580 C 0.08364 0.30915 0.6024 0.0
C581 C 0.05258 0.29571 0.6622 0.0
C582 C 0.07791 0.3198 0.68227 0.0
H583 H 0.03752 0.26865 0.60959 0.0
H584 H 0.03095 0.27993 0.67696 0.0
S585 S 0.15513 0.37789 0.64106 0.0
N586 N 0.13565 0.35517 0.60485 0.0
N587 N 0.13105 0.3641 0.6779 0.0
C588 C 0.10529 0.33989 0.66166 0.0
C589 C 0.1077 0.33517 0.62184 0.0
C590 C 1.01678 0.78888 0.8914 0.0
C591 C 0.99187 0.78946 0.85992 0.0
C592 C 1.00434 0.78141 0.92794 0.0
C593 C 0.96655 0.77402 0.93453 0.0
H594 H 0.04614 0.79561 0.88819 0.0
H595 H 0.02438 0.78148 0.9511 0.0
S596 S 0.89055 0.76678 0.86277 0.0
N597 N 0.92794 0.77813 0.83846 0.0
N598 N 0.90475 0.76431 0.90699 0.0
C599 C 0.94166 0.77266 0.90353 0.0
C600 C 0.95423 0.78023 0.86632 0.0
C601 C 0.44759 0.70469 0.15653 0.0
C602 C 0.47157 0.67209 0.16682 0.0
C603 C 0.43741 0.71194 0.11873 0.0
C604 C 0.45235 0.68872 0.08937 0.0
H605 H 0.4353 0.72368 0.17789 0.0
H606 H 0.41587 0.73425 0.11275 0.0
S607 S 0.51149 0.59604 0.101 0.0
N608 N 0.50538 0.61242 0.14408 0.0
N609 N 0.48898 0.62904 0.07344 0.0
C610 C 0.47521 0.65527 0.09922 0.0
C611 C 0.48445 0.64662 0.13772 0.0
C612 C 0.21242 0.40048 0.2818 0.0
C613 C 0.17381 0.39397 0.2863 0.0
C614 C 0.22602 0.4185 0.24904 0.0
C615 C 0.20154 0.43061 0.21943 0.0
H616 H 0.23209 0.39334 0.30448 0.0
H617 H 0.25568 0.42464 0.24769 0.0
S618 S 0.09883 0.41436 0.21493 0.0
N619 N 0.112 0.39685 0.25666 0.0
N620 N 0.13734 0.43042 0.19519 0.0
C621 C 0.16325 0.42175 0.22263 0.0
C622 C 0.14943 0.40364 0.25603 0.0
C623 C 0.83657 0.93689 0.56002 0.0
C624 C 0.87293 0.91942 0.55856 0.0
C625 C 0.81659 0.94844 0.52729 0.0
C626 C 0.83225 0.94389 0.49163 0.0
H627 H 0.82271 0.94013 0.58664 0.0
H628 H 0.78799 0.9598 0.52985 0.0
S629 S 0.92725 0.90252 0.47195 0.0
N630 N 0.92448 0.90004 0.51811 0.0
N631 N 0.88676 0.92225 0.45662 0.0
C632 C 0.86903 0.92805 0.48959 0.0
C633 C 0.88937 0.91566 0.52301 0.0
C634 C 0.36518 0.59118 0.71833 0.0
C635 C 0.32797 0.58016 0.71054 0.0
C636 C 0.3747 0.61188 0.75117 0.0
C637 C 0.34746 0.6224 0.77773 0.0
H638 H 0.38747 0.58257 0.69951 0.0
H639 H 0.40395 0.61842 0.75642 0.0
S640 S 0.24529 0.60512 0.76872 0.0
N641 N 0.26312 0.58468 0.73066 0.0
N642 N 0.28117 0.62343 0.79249 0.0
C643 C 0.30989 0.61324 0.76957 0.0
C644 C 0.3001 0.59234 0.73592 0.0
C645 C 0.684 0.09308 0.04305 0.0
C646 C 0.66372 0.06687 0.06578 0.0
C647 C 0.7006 0.07957 1.00992 0.0
C648 C 0.69761 0.03923 0.99788 0.0
H649 H 0.68856 0.1239 0.05176 0.0
H650 H 0.71696 0.10085 0.99427 0.0
S651 S 0.64321 0.95978 0.04501 0.0
N652 N 0.63834 0.99969 0.0722 0.0
N653 N 0.66967 0.97412 1.01002 0.0
C654 C 0.67557 0.01324 1.0193 0.0
C655 C 0.65872 0.02705 0.05322 0.0
C656 C 0.66811 0.07935 0.78063 0.0
C657 C 0.6943 0.09409 0.75519 0.0
C658 C 0.67964 0.06156 0.81489 0.0
C659 C 0.71792 0.05725 0.82504 0.0
H660 H 0.63839 0.08108 0.77377 0.0
H661 H 0.65829 0.04992 0.83301 0.0
S662 S 0.79779 0.09223 0.76891 0.0
N663 N 0.7603 0.10445 0.74308 0.0
N664 N 0.78195 0.07084 0.80727 0.0
C665 C 0.74438 0.07305 0.80039 0.0
C666 C 0.73259 0.09147 0.76556 0.0
C667 C 0.18423 0.48163 0.02661 0.0
C668 C 0.19761 0.4547 0.05481 0.0
C669 C 0.16802 0.46733 0.99309 0.0
C670 C 0.16483 0.42563 0.98656 0.0
H671 H 0.18724 0.5139 0.02993 0.0
H672 H 0.15888 0.48897 0.97173 0.0
S673 S 0.19064 0.34277 0.05322 0.0
N674 N 0.20298 0.3843 0.07506 0.0
N675 N 0.17284 0.35791 1.01239 0.0
C676 C 0.17654 0.39859 1.01513 0.0
C677 C 0.19282 0.41298 0.04914 0.0
C678 C 0.85567 0.94214 0.2887 0.0
C679 C 0.82525 0.92642 0.30849 0.0
C680 C 0.86887 0.92414 0.25586 0.0
C681 C 0.85242 0.8894 0.24095 0.0
H682 H 0.86934 0.96917 0.29823 0.0
H683 H 0.89167 0.93833 0.24148 0.0
S684 S 0.77366 0.83412 0.28273 0.0
N685 N 0.78001 0.87261 0.31118 0.0
N686 N 0.80521 0.83848 0.24965 0.0
C687 C 0.82257 0.87259 0.26076 0.0
C688 C 0.80902 0.89102 0.29443 0.0
C689 C 0.34026 0.59085 0.52551 0.0
C690 C 0.34812 0.55166 0.53965 0.0
C691 C 0.3558 0.6044 0.49212 0.0
C692 C 0.37995 0.57945 0.47124 0.0
H693 H 0.32124 0.61123 0.53991 0.0
H694 H 0.34831 0.63459 0.48224 0.0
S695 S 0.41157 0.47506 0.49667 0.0
N696 N 0.38346 0.48867 0.53092 0.0
N697 N 0.41243 0.51419 0.46776 0.0
C698 C 0.38942 0.54078 0.48565 0.0
C699 C 0.37356 0.52688 0.51991 0.0
C700 C 0.26833 0.23721 0.43392 0.0
C701 C 0.2471 0.21284 0.45781 0.0
C702 C 0.30195 0.22262 0.41801 0.0
C703 C 0.3156 0.18294 0.42508 0.0
H704 H 0.25912 0.26796 0.42763 0.0
H705 H 0.31726 0.24246 0.39985 0.0
S706 S 0.27203 0.10716 0.48674 0.0
N707 N 0.24326 0.14687 0.48816 0.0
N708 N 0.30608 0.12013 0.4587 0.0
C709 C 0.29481 0.15836 0.44894 0.0
C710 C 0.26073 0.17308 0.46514 0.0
C711 C 0.04671 0.03216 0.66856 0.0
C712 C 0.08169 0.04897 0.67734 0.0
C713 C 0.03407 0.99798 0.68794 0.0
C714 C 0.05626 0.97907 0.71633 0.0
H715 H 0.02902 0.04557 0.64662 0.0
H716 H 1.00704 0.98597 0.6802 0.0
S717 S 0.15068 0.01115 0.74899 0.0
N718 N 0.13855 0.04379 0.7156 0.0
N719 N 0.11515 0.98037 0.75214 0.0
C720 C 0.09134 0.99586 0.72525 0.0
C721 C 0.10395 0.03055 0.70572 0.0
C722 C 0.27355 0.85915 0.93486 0.0
C723 C 0.2522 0.82985 0.91628 0.0
C724 C 0.30663 0.84862 0.95489 0.0
C725 C 0.31986 0.80827 0.95738 0.0
H726 H 0.26407 0.89049 0.93483 0.0
H727 H 0.32131 0.87228 0.96947 0.0
S728 S 0.277 0.72056 0.91019 0.0
N729 N 0.24855 0.75909 0.89909 0.0
N730 N 0.3106 0.73925 0.93689 0.0
C731 C 0.29965 0.77882 0.93776 0.0
C732 C 0.26584 0.78957 0.91731 0.0
C733 C 0.44936 0.01753 0.22938 0.0
C734 C 0.48689 0.02824 0.22346 0.0
C735 C 0.4323 0.9867 0.2088 0.0
C736 C 0.45185 0.96491 0.18124 0.0
H737 H 0.43275 0.03302 0.25023 0.0
H738 H 0.40341 0.97987 0.21463 0.0
S739 S 0.55092 0.98029 0.15474 0.0
N740 N 0.54309 0.01429 0.18752 0.0
N741 N 0.51127 0.95599 0.14943 0.0
C742 C 0.48932 0.97544 0.17468 0.0
C743 C 0.50673 1.00705 0.19561 0.0
C744 C 0.78973 0.351 0.612 0.0
C745 C 0.81611 0.32513 0.63017 0.0
C746 C 0.75541 0.33679 0.59852 0.0
C747 C 0.74578 0.29586 0.60228 0.0
H748 H 0.79587 0.38258 0.60768 0.0
H749 H 0.73667 0.35816 0.58409 0.0
S750 S 0.8043 0.21588 0.6497 0.0
N751 N 0.82973 0.25684 0.65291 0.0
N752 N 0.76509 0.22997 0.62745 0.0
C753 C 0.77126 0.26987 0.62183 0.0
C754 C 0.8064 0.28451 0.63575 0.0
C755 C 0.93909 0.45907 0.83076 0.0
C756 C 0.9776 0.45132 0.82516 0.0
C757 C 0.92647 0.49224 0.85168 0.0
C758 C 0.95172 0.51906 0.86837 0.0
H759 H 0.91825 0.43996 0.81803 0.0
H760 H 0.8965 0.49711 0.85456 0.0
S761 S 0.05563 0.51083 0.86477 0.0
N762 N 0.0411 0.47215 0.83982 0.0
N763 N 1.01732 0.53445 0.87948 0.0
C764 C 0.99041 0.51082 0.86442 0.0
C765 C 1.00334 0.47703 0.84274 0.0
C766 C 0.79713 0.70724 0.12686 0.0
C767 C 0.79745 0.70978 0.08747 0.0
C768 C 0.76557 0.69264 0.14566 0.0
C769 C 0.73315 0.68106 0.12564 0.0
H770 H 0.8218 0.71516 0.1431 0.0
H771 H 0.7665 0.69034 0.17595 0.0
S772 S 0.71938 0.68407 0.02242 0.0
N773 N 0.76215 0.70083 0.02938 0.0
N774 N 0.70325 0.6741 0.06447 0.0
C775 C 0.73296 0.68462 0.08641 0.0
C776 C 0.76498 0.69884 0.06741 0.0
C777 C 0.59042 0.5153 0.38514 0.0
C778 C 0.57603 0.47597 0.3837 0.0
C779 C 0.57815 0.54545 0.35939 0.0
C780 C 0.55123 0.53699 0.33151 0.0
H781 H 0.61318 0.52197 0.40445 0.0
H782 H 0.59196 0.57426 0.35937 0.0
S783 S 0.49983 0.44168 0.32036 0.0
N784 N 0.52923 0.43263 0.35584 0.0
N785 N 0.50722 0.48861 0.30694 0.0
C786 C 0.53447 0.49906 0.33191 0.0
C787 C 0.54657 0.46869 0.35817 0.0
C788 C 0.43584 0.2415 0.18106 0.0
C789 C 0.41615 0.2642 0.20779 0.0
C790 C 0.4597 0.20917 0.19166 0.0
C791 C 0.46501 0.19787 0.22948 0.0
H792 H 0.43397 0.24988 0.15167 0.0
H793 H 0.47574 0.19419 0.17004 0.0
S794 S 0.41649 0.24406 0.31024 0.0
N795 N 0.40064 0.27065 0.27365 0.0
N796 N 0.44575 0.20936 0.29359 0.0
C797 C 0.44333 0.2181 0.2564 0.0
C798 C 0.41884 0.25142 0.24554 0.0
C799 C 0.92597 0.26714 0.79399 0.0
C800 C 0.96349 0.27287 0.80544 0.0
C801 C 0.9038 0.23815 0.81167 0.0
C802 C 0.91841 0.21402 0.84139 0.0
H803 H 0.91328 0.28599 0.77209 0.0
H804 H 0.87474 0.23551 0.80288 0.0
S805 S 1.01628 0.21271 0.87819 0.0
N806 N 1.01516 0.24858 0.84583 0.0
N807 N 0.97352 0.19474 0.87872 0.0
C808 C 0.95627 0.21808 0.85175 0.0
C809 C 0.97878 0.24731 0.83388 0.0
C810 C 1.01215 0.65183 0.12838 0.0
C811 C 0.03985 0.63477 0.10528 0.0
C812 C 0.97986 0.67123 0.11285 0.0
C813 C 0.97387 0.6736 0.07379 0.0
H814 H 1.01692 0.65317 0.1584 0.0
H815 H 0.96112 0.68746 0.13137 0.0
S816 S 0.03479 0.62824 1.00157 0.0
N817 N 0.05674 0.61719 0.04162 0.0
N818 N 0.99621 0.65371 1.01274 0.0
C819 C 0.99964 0.6536 0.05071 0.0
C820 C 0.03258 0.63412 0.06638 0.0
C821 C 0.62576 0.76854 0.3067 0.0
C822 C 0.62144 0.7783 0.3448 0.0
C823 C 0.6062 0.73651 0.29028 0.0
C824 C 0.58156 0.71314 0.31136 0.0
H825 H 0.64341 0.78664 0.28916 0.0
H826 H 0.60956 0.73087 0.26065 0.0
S827 S 0.5647 0.72295 0.4135 0.0
N828 N 0.59377 0.75952 0.40388 0.0
N829 N 0.55701 0.69971 0.37342 0.0
C830 C 0.57844 0.72153 0.34991 0.0
C831 C 0.59833 0.75399 0.36651 0.0
C832 C 0.56046 0.3174 0.63233 0.0
C833 C 0.5752 0.31675 0.59599 0.0
C834 C 0.52875 0.34111 0.64093 0.0
C835 C 0.51007 0.36506 0.61346 0.0
H836 H 0.57243 0.29777 0.65405 0.0
H837 H 0.51746 0.33858 0.66881 0.0
S838 S 0.54044 0.37857 0.51514 0.0
N839 N 0.5712 0.34543 0.53321 0.0
N840 N 0.51132 0.3902 0.54921 0.0
C841 C 0.52603 0.36689 0.57753 0.0
C842 C 0.55873 0.34282 0.56886 0.0
C843 C 0.11984 0.77249 0.6615 0.0
C844 C 0.13907 0.74476 0.68543 0.0
C845 C 0.09702 0.80361 0.67572 0.0
C846 C 0.09222 0.80833 0.71452 0.0
H847 H 0.12131 0.76927 0.63137 0.0
H848 H 0.08191 0.82321 0.65595 0.0
S849 S 0.1402 0.7472 0.78942 0.0
N850 N 0.15474 0.72657 0.75005 0.0
N851 N 0.11142 0.78491 0.77683 0.0
C852 C 0.11272 0.78213 0.7389 0.0
C853 C 0.13609 0.75033 0.72437 0.0
C854 C 0.52073 0.83359 0.99758 0.0
C855 C 0.49358 0.81789 0.97289 0.0
C856 C 0.55488 0.84821 0.98427 0.0
C857 C 0.56285 0.84838 0.94572 0.0
H858 H 0.51627 0.8331 0.02753 0.0
H859 H 0.57537 0.85911 1.00431 0.0
S860 S 0.50037 0.81282 0.86923 0.0
N861 N 0.47653 0.80514 0.90778 0.0
N862 N 0.54029 0.83268 0.88304 0.0
C863 C 0.53541 0.83411 0.9207 0.0
C864 C 0.50093 0.81887 0.9342 0.0
C865 C 0.03672 0.15963 0.4176 0.0
C866 C 1.01336 0.1437 0.44521 0.0
C867 C 0.06901 0.18101 0.4272 0.0
C868 C 0.07922 0.18776 0.46487 0.0
H869 H 0.02965 0.1561 0.38818 0.0
H870 H 0.08529 0.19362 0.40479 0.0
S871 S 0.02931 0.14986 0.54805 0.0
N872 N 1.004 0.13422 0.51199 0.0
N873 N 0.06469 0.17432 0.53005 0.0
C874 C 0.0571 0.17045 0.49283 0.0
C875 C 0.02423 0.14846 0.48301 0.0
loop_
_geom_bond_atom_site_label_1
_geom_bond_atom_site_label_2
_geom_bond_distance
_geom_bond_site_symmetry_2
_ccdc_geom_bond_type
Sm0 C2 2.846 . S
Sm0 O20 2.543 . S
Sm0 O21 2.450 . S
Sm0 O22 2.681 . S
Sm0 O23 2.464 . S
Sm0 O24 2.396 . S
Sm0 O28 2.386 . S
Sm0 O31 2.408 . S
Sm1 C11 2.846 . S
Sm1 O22 2.386 . S
Sm1 O25 2.408 . S
Sm1 O26 2.543 . S
Sm1 O27 2.450 . S
Sm1 O28 2.681 . S
Sm1 O29 2.464 . S
Sm1 O30 2.396 . S
C2 Sm0 2.846 . S
C2 C3 1.506 . S
C2 O20 1.261 . S
C2 O21 1.242 . S
C3 C2 1.506 . S
C3 C4 1.358 . S
C3 C8 1.382 . S
C4 C3 1.358 . S
C4 C5 1.385 . S
C4 H32 0.930 . S
C5 C4 1.385 . S
C5 C6 1.395 . S
C5 H33 0.929 . S
C6 C5 1.395 . S
C6 C7 1.335 . S
C7 C6 1.335 . S
C7 C8 1.398 . S
C7 H34 0.930 . S
C8 C3 1.382 . S
C8 C7 1.398 . S
C8 H35 0.929 . S
C9 O22 1.271 . S
C9 O23 1.251 . S
C10 O24 1.252 . S
C10 O25 1.272 . S
C11 Sm1 2.846 . S
C11 C12 1.506 . S
C11 O26 1.261 . S
C11 O27 1.242 . S
C12 C11 1.506 . S
C12 C13 1.358 . S
C12 C17 1.382 . S
C13 C12 1.358 . S
C13 C14 1.385 . S
C13 H36 0.930 . S
C14 C13 1.385 . S
C14 C15 1.395 . S
C14 H37 0.929 . S
C15 C14 1.395 . S
C15 C16 1.335 . S
C16 C15 1.335 . S
C16 C17 1.398 . S
C16 H38 0.930 . S
C17 C12 1.382 . S
C17 C16 1.398 . S
C17 H39 0.929 . S
C18 O28 1.271 . S
C18 O29 1.251 . S
C19 O30 1.252 . S
C19 O31 1.272 . S
O20 Sm0 2.543 . S
O20 C2 1.261 . S
O21 Sm0 2.450 . S
O21 C2 1.242 . S
O22 Sm0 2.681 . S
O22 Sm1 2.386 . S
O22 C9 1.271 . S
O23 Sm0 2.464 . S
O23 C9 1.251 . S
O24 Sm0 2.396 . S
O24 C10 1.252 . S
O25 Sm1 2.408 . S
O25 C10 1.272 . S
O26 Sm1 2.543 . S
O26 C11 1.261 . S
O27 Sm1 2.450 . S
O27 C11 1.242 . S
O28 Sm0 2.386 . S
O28 Sm1 2.681 . S
O28 C18 1.271 . S
O29 Sm1 2.464 . S
O29 C18 1.251 . S
O30 Sm1 2.396 . S
O30 C19 1.252 . S
O31 Sm0 2.408 . S
O31 C19 1.272 . S
H32 C4 0.930 . S
H33 C5 0.929 . S
H34 C7 0.930 . S
H35 C8 0.929 . S
H36 C13 0.930 . S
H37 C14 0.929 . S
H38 C16 0.930 . S
H39 C17 0.929 . S
Sm40 C42 2.846 . S
Sm40 O60 2.543 . S
Sm40 O61 2.450 . S
Sm40 O62 2.681 1_655 S
Sm40 O63 2.464 1_655 S
Sm40 O64 2.396 1_655 S
Sm40 O68 2.386 . S
Sm40 O71 2.408 . S
Sm41 C51 2.846 . S
Sm41 O62 2.386 . S
Sm41 O65 2.408 . S
Sm41 O66 2.543 . S
Sm41 O67 2.450 . S
Sm41 O68 2.681 1_455 S
Sm41 O69 2.464 1_455 S
Sm41 O70 2.378 1_455 S
C42 Sm40 2.846 . S
C42 C43 1.506 . S
C42 O60 1.261 . S
C42 O61 1.242 . S
C43 C42 1.506 . S
C43 C44 1.358 . S
C43 C48 1.382 . S
C44 C43 1.358 . S
C44 C45 1.385 . S
C44 H72 0.930 . S
C45 C44 1.385 . S
C45 C46 1.395 . S
C45 H73 0.929 . S
C46 C45 1.395 . S
C46 C47 1.335 . S
C47 C46 1.335 . S
C47 C48 1.398 . S
C47 H74 0.930 . S
C48 C43 1.382 . S
C48 C47 1.398 . S
C48 H75 0.929 . S
C49 O62 1.271 . S
C49 O63 1.251 . S
C50 O64 1.252 . S
C50 O65 1.272 . S
C51 Sm41 2.846 . S
C51 C52 1.506 . S
C51 O66 1.261 . S
C51 O67 1.242 . S
C52 C51 1.506 . S
C52 C53 1.358 . S
C52 C57 1.382 . S
C53 C52 1.358 . S
C53 C54 1.385 . S
C53 H76 0.930 . S
C54 C53 1.385 . S
C54 C55 1.395 . S
C54 H77 0.929 . S
C55 C54 1.395 . S
C55 C56 1.335 . S
C56 C55 1.335 . S
C56 C57 1.398 . S
C56 H78 0.930 . S
C57 C52 1.382 . S
C57 C56 1.398 . S
C57 H79 0.929 . S
C58 O68 1.271 . S
C58 O69 1.251 . S
C59 O70 1.267 . S
C59 O71 1.272 . S
O60 Sm40 2.543 . S
O60 C42 1.261 . S
O61 Sm40 2.450 . S
O61 C42 1.242 . S
O62 Sm40 2.681 1_455 S
O62 Sm41 2.386 . S
O62 C49 1.271 . S
O63 Sm40 2.464 1_455 S
O63 C49 1.251 . S
O64 Sm40 2.396 1_455 S
O64 C50 1.252 . S
O65 Sm41 2.408 . S
O65 C50 1.272 . S
O66 Sm41 2.543 . S
O66 C51 1.261 . S
O67 Sm41 2.450 . S
O67 C51 1.242 . S
O68 Sm40 2.386 . S
O68 Sm41 2.681 1_655 S
O68 C58 1.271 . S
O69 Sm41 2.464 1_655 S
O69 C58 1.251 . S
O70 Sm41 2.378 1_655 S
O70 C59 1.267 . S
O71 Sm40 2.408 . S
O71 C59 1.272 . S
H72 C44 0.930 . S
H73 C45 0.929 . S
H74 C47 0.930 . S
H75 C48 0.929 . S
H76 C53 0.930 . S
H77 C54 0.929 . S
H78 C56 0.930 . S
H79 C57 0.929 . S
Sm80 C82 2.846 . S
Sm80 O100 2.543 . S
Sm80 O101 2.450 . S
Sm80 O102 2.681 1_554 S
Sm80 O103 2.464 1_554 S
Sm80 O104 2.396 1_554 S
Sm80 O108 2.386 . S
Sm80 O111 2.408 . S
Sm81 C91 2.846 . S
Sm81 O102 2.386 . S
Sm81 O105 2.408 . S
Sm81 O106 2.543 . S
Sm81 O107 2.450 . S
Sm81 O108 2.681 1_556 S
Sm81 O109 2.464 1_556 S
Sm81 O110 2.385 1_556 S
C82 Sm80 2.846 . S
C82 C83 1.506 . S
C82 O100 1.261 . S
C82 O101 1.242 . S
C83 C82 1.506 . S
C83 C84 1.358 . S
C83 C88 1.382 . S
C84 C83 1.358 . S
C84 C85 1.385 . S
C84 H112 0.930 . S
C85 C84 1.385 . S
C85 C86 1.395 . S
C85 H113 0.929 . S
C86 C85 1.395 . S
C86 C87 1.335 . S
C87 C86 1.335 . S
C87 C88 1.398 . S
C87 H114 0.930 . S
C88 C83 1.382 . S
C88 C87 1.398 . S
C88 H115 0.929 . S
C89 O102 1.271 . S
C89 O103 1.251 . S
C90 O104 1.252 . S
C90 O105 1.272 . S
C91 Sm81 2.846 . S
C91 C92 1.506 . S
C91 O106 1.261 . S
C91 O107 1.242 . S
C92 C91 1.506 . S
C92 C93 1.358 . S
C92 C97 1.382 . S
C93 C92 1.358 . S
C93 C94 1.385 . S
C93 H116 0.930 . S
C94 C93 1.385 . S
C94 C95 1.395 . S
C94 H117 0.929 . S
C95 C94 1.395 . S
C95 C96 1.335 . S
C96 C95 1.335 . S
C96 C97 1.398 . S
C96 H118 0.930 . S
C97 C92 1.382 . S
C97 C96 1.398 . S
C97 H119 0.929 . S
C98 O108 1.271 . S
C98 O109 1.251 . S
C99 O110 1.261 . S
C99 O111 1.272 . S
O100 Sm80 2.543 . S
O100 C82 1.261 . S
O101 Sm80 2.450 . S
O101 C82 1.242 . S
O102 Sm80 2.681 1_556 S
O102 Sm81 2.386 . S
O102 C89 1.271 . S
O103 Sm80 2.464 1_556 S
O103 C89 1.251 . S
O104 Sm80 2.396 1_556 S
O104 C90 1.252 . S
O105 Sm81 2.408 . S
O105 C90 1.272 . S
O106 Sm81 2.543 . S
O106 C91 1.261 . S
O107 Sm81 2.450 . S
O107 C91 1.242 . S
O108 Sm80 2.386 . S
O108 Sm81 2.681 1_554 S
O108 C98 1.271 . S
O109 Sm81 2.464 1_554 S
O109 C98 1.251 . S
O110 Sm81 2.385 1_554 S
O110 C99 1.261 . S
O111 Sm80 2.408 . S
O111 C99 1.272 . S
H112 C84 0.930 . S
H113 C85 0.929 . S
H114 C87 0.930 . S
H115 C88 0.929 . S
H116 C93 0.930 . S
H117 C94 0.929 . S
H118 C96 0.930 . S
H119 C97 0.929 . S
Sm120 C122 2.846 . S
Sm120 O140 2.543 . S
Sm120 O141 2.450 . S
Sm120 O142 2.681 . S
Sm120 O143 2.464 . S
Sm120 O144 2.396 . S
Sm120 O148 2.386 . S
Sm120 O151 2.408 . S
Sm121 C131 2.846 . S
Sm121 O142 2.386 . S
Sm121 O145 2.408 . S
Sm121 O146 2.543 . S
Sm121 O147 2.450 . S
Sm121 O148 2.681 . S
Sm121 O149 2.464 . S
Sm121 O150 2.396 . S
C122 Sm120 2.846 . S
C122 C123 1.506 . S
C122 O140 1.261 . S
C122 O141 1.242 . S
C123 C122 1.506 . S
C123 C124 1.358 . S
C123 C128 1.382 . S
C124 C123 1.358 . S
C124 C125 1.385 . S
C124 H152 0.930 . S
C125 C124 1.385 . S
C125 C126 1.395 . S
C125 H153 0.929 . S
C126 C125 1.395 . S
C126 C127 1.335 . S
C127 C126 1.335 . S
C127 C128 1.398 . S
C127 H154 0.930 . S
C128 C123 1.382 . S
C128 C127 1.398 . S
C128 H155 0.929 . S
C129 O142 1.271 . S
C129 O143 1.251 . S
C130 O144 1.252 . S
C130 O145 1.272 . S
C131 Sm121 2.846 . S
C131 C132 1.506 . S
C131 O146 1.261 . S
C131 O147 1.242 . S
C132 C131 1.506 . S
C132 C133 1.358 . S
C132 C137 1.382 . S
C133 C132 1.358 . S
C133 C134 1.385 . S
C133 H156 0.930 . S
C134 C133 1.385 . S
C134 C135 1.395 . S
C134 H157 0.929 . S
C135 C134 1.395 . S
C135 C136 1.335 . S
C136 C135 1.335 . S
C136 C137 1.398 . S
C136 H158 0.930 . S
C137 C132 1.382 . S
C137 C136 1.398 . S
C137 H159 0.929 . S
C138 O148 1.271 . S
C138 O149 1.251 . S
C139 O150 1.252 . S
C139 O151 1.272 . S
O140 Sm120 2.543 . S
O140 C122 1.261 . S
O141 Sm120 2.450 . S
O141 C122 1.242 . S
O142 Sm120 2.681 . S
O142 Sm121 2.386 . S
O142 C129 1.271 . S
O143 Sm120 2.464 . S
O143 C129 1.251 . S
O144 Sm120 2.396 . S
O144 C130 1.252 . S
O145 Sm121 2.408 . S
O145 C130 1.272 . S
O146 Sm121 2.543 . S
O146 C131 1.261 . S
O147 Sm121 2.450 . S
O147 C131 1.242 . S
O148 Sm120 2.386 . S
O148 Sm121 2.681 . S
O148 C138 1.271 . S
O149 Sm121 2.464 . S
O149 C138 1.251 . S
O150 Sm121 2.396 . S
O150 C139 1.252 . S
O151 Sm120 2.408 . S
O151 C139 1.272 . S
H152 C124 0.930 . S
H153 C125 0.929 . S
H154 C127 0.930 . S
H155 C128 0.929 . S
H156 C133 0.930 . S
H157 C134 0.929 . S
H158 C136 0.930 . S
H159 C137 0.929 . S
Sm160 C162 2.846 . S
Sm160 O180 2.543 . S
Sm160 O181 2.450 . S
Sm160 O182 2.681 . S
Sm160 O183 2.464 . S
Sm160 O184 2.396 . S
Sm160 O188 2.386 . S
Sm160 O191 2.408 . S
Sm161 C171 2.846 . S
Sm161 O182 2.386 . S
Sm161 O185 2.408 . S
Sm161 O186 2.543 . S
Sm161 O187 2.450 . S
Sm161 O188 2.681 . S
Sm161 O189 2.464 . S
Sm161 O190 2.396 . S
C162 Sm160 2.846 . S
C162 C163 1.506 . S
C162 O180 1.261 . S
C162 O181 1.242 . S
C163 C162 1.506 . S
C163 C164 1.358 . S
C163 C168 1.382 . S
C164 C163 1.358 . S
C164 C165 1.385 . S
C164 H192 0.930 . S
C165 C164 1.385 . S
C165 C166 1.395 . S
C165 H193 0.929 . S
C166 C165 1.395 . S
C166 C167 1.335 . S
C167 C166 1.335 . S
C167 C168 1.398 . S
C167 H194 0.930 . S
C168 C163 1.382 . S
C168 C167 1.398 . S
C168 H195 0.929 . S
C169 O182 1.271 . S
C169 O183 1.251 . S
C170 O184 1.252 . S
C170 O185 1.272 . S
C171 Sm161 2.846 . S
C171 C172 1.506 . S
C171 O186 1.261 . S
C171 O187 1.242 . S
C172 C171 1.506 . S
C172 C173 1.358 . S
C172 C177 1.382 . S
C173 C172 1.358 . S
C173 C174 1.385 . S
C173 H196 0.930 . S
C174 C173 1.385 . S
C174 C175 1.395 . S
C174 H197 0.929 . S
C175 C174 1.395 . S
C175 C176 1.335 . S
C176 C175 1.335 . S
C176 C177 1.398 . S
C176 H198 0.930 . S
C177 C172 1.382 . S
C177 C176 1.398 . S
C177 H199 0.929 . S
C178 O188 1.271 . S
C178 O189 1.251 . S
C179 O190 1.252 . S
C179 O191 1.272 . S
O180 Sm160 2.543 . S
O180 C162 1.261 . S
O181 Sm160 2.450 . S
O181 C162 1.242 . S
O182 Sm160 2.681 . S
O182 Sm161 2.386 . S
O182 C169 1.271 . S
O183 Sm160 2.464 . S
O183 C169 1.251 . S
O184 Sm160 2.396 . S
O184 C170 1.252 . S
O185 Sm161 2.408 . S
O185 C170 1.272 . S
O186 Sm161 2.543 . S
O186 C171 1.261 . S
O187 Sm161 2.450 . S
O187 C171 1.242 . S
O188 Sm160 2.386 . S
O188 Sm161 2.681 . S
O188 C178 1.271 . S
O189 Sm161 2.464 . S
O189 C178 1.251 . S
O190 Sm161 2.396 . S
O190 C179 1.252 . S
O191 Sm160 2.408 . S
O191 C179 1.272 . S
H192 C164 0.930 . S
H193 C165 0.929 . S
H194 C167 0.930 . S
H195 C168 0.929 . S
H196 C173 0.930 . S
H197 C174 0.929 . S
H198 C176 0.930 . S
H199 C177 0.929 . S
Sm200 C202 2.846 . S
Sm200 O220 2.543 . S
Sm200 O221 2.450 . S
Sm200 O222 2.681 . S
Sm200 O223 2.464 . S
Sm200 O224 2.396 . S
Sm200 O228 2.386 1_655 S
Sm200 O231 2.408 1_655 S
Sm201 C211 2.846 . S
Sm201 O222 2.386 1_455 S
Sm201 O225 2.408 1_455 S
Sm201 O226 2.543 . S
Sm201 O227 2.450 . S
Sm201 O228 2.681 . S
Sm201 O229 2.464 . S
Sm201 O230 2.396 . S
C202 Sm200 2.846 . S
C202 C203 1.506 . S
C202 O220 1.261 . S
C202 O221 1.242 . S
C203 C202 1.506 . S
C203 C204 1.358 . S
C203 C208 1.382 . S
C204 C203 1.358 . S
C204 C205 1.385 . S
C204 H232 0.930 . S
C205 C204 1.385 . S
C205 C206 1.395 . S
C205 H233 0.929 . S
C206 C205 1.395 . S
C206 C207 1.335 . S
C207 C206 1.335 . S
C207 C208 1.398 . S
C207 H234 0.930 . S
C208 C203 1.382 . S
C208 C207 1.398 . S
C208 H235 0.929 . S
C209 O222 1.271 . S
C209 O223 1.251 . S
C210 O224 1.252 . S
C210 O225 1.272 . S
C211 Sm201 2.846 . S
C211 C212 1.506 . S
C211 O226 1.261 . S
C211 O227 1.242 . S
C212 C211 1.506 . S
C212 C213 1.358 . S
C212 C217 1.382 . S
C213 C212 1.358 . S
C213 C214 1.385 . S
C213 H236 0.930 . S
C214 C213 1.385 . S
C214 C215 1.395 . S
C214 H237 0.929 . S
C215 C214 1.395 . S
C215 C216 1.335 . S
C216 C215 1.335 . S
C216 C217 1.398 . S
C216 H238 0.930 . S
C217 C212 1.382 . S
C217 C216 1.398 . S
C217 H239 0.929 . S
C218 O228 1.271 . S
C218 O229 1.251 . S
C219 O230 1.252 . S
C219 O231 1.272 . S
O220 Sm200 2.543 . S
O220 C202 1.261 . S
O221 Sm200 2.450 . S
O221 C202 1.242 . S
O222 Sm200 2.681 . S
O222 Sm201 2.386 1_655 S
O222 C209 1.271 . S
O223 Sm200 2.464 . S
O223 C209 1.251 . S
O224 Sm200 2.396 . S
O224 C210 1.252 . S
O225 Sm201 2.408 1_655 S
O225 C210 1.272 . S
O226 Sm201 2.543 . S
O226 C211 1.261 . S
O227 Sm201 2.450 . S
O227 C211 1.242 . S
O228 Sm200 2.386 1_455 S
O228 Sm201 2.681 . S
O228 C218 1.271 . S
O229 Sm201 2.464 . S
O229 C218 1.251 . S
O230 Sm201 2.396 . S
O230 C219 1.252 . S
O231 Sm200 2.408 1_455 S
O231 C219 1.272 . S
H232 C204 0.930 . S
H233 C205 0.929 . S
H234 C207 0.930 . S
H235 C208 0.929 . S
H236 C213 0.930 . S
H237 C214 0.929 . S
H238 C216 0.930 . S
H239 C217 0.929 . S
Sm240 C242 2.846 . S
Sm240 O260 2.543 . S
Sm240 O261 2.450 . S
Sm240 O262 2.681 . S
Sm240 O263 2.464 . S
Sm240 O264 2.396 . S
Sm240 O268 2.386 1_554 S
Sm240 O271 2.408 1_554 S
Sm241 C251 2.846 . S
Sm241 O262 2.386 1_556 S
Sm241 O265 2.408 1_556 S
Sm241 O266 2.543 . S
Sm241 O267 2.450 . S
Sm241 O268 2.681 . S
Sm241 O269 2.464 . S
Sm241 O270 2.396 . S
C242 Sm240 2.846 . S
C242 C243 1.506 . S
C242 O260 1.261 . S
C242 O261 1.242 . S
C243 C242 1.506 . S
C243 C244 1.358 . S
C243 C248 1.382 . S
C244 C243 1.358 . S
C244 C245 1.385 . S
C244 H272 0.930 . S
C245 C244 1.385 . S
C245 C246 1.395 . S
C245 H273 0.929 . S
C246 C245 1.395 . S
C246 C247 1.335 . S
C247 C246 1.335 . S
C247 C248 1.398 . S
C247 H274 0.930 . S
C248 C243 1.382 . S
C248 C247 1.398 . S
C248 H275 0.929 . S
C249 O262 1.271 . S
C249 O263 1.251 . S
C250 O264 1.252 . S
C250 O265 1.272 . S
C251 Sm241 2.846 . S
C251 C252 1.506 . S
C251 O266 1.261 . S
C251 O267 1.242 . S
C252 C251 1.506 . S
C252 C253 1.358 . S
C252 C257 1.382 . S
C253 C252 1.358 . S
C253 C254 1.385 . S
C253 H276 0.930 . S
C254 C253 1.385 . S
C254 C255 1.395 . S
C254 H277 0.929 . S
C255 C254 1.395 . S
C255 C256 1.335 . S
C256 C255 1.335 . S
C256 C257 1.398 . S
C256 H278 0.930 . S
C257 C252 1.382 . S
C257 C256 1.398 . S
C257 H279 0.929 . S
C258 O268 1.271 . S
C258 O269 1.251 . S
C259 O270 1.252 . S
C259 O271 1.272 . S
O260 Sm240 2.543 . S
O260 C242 1.261 . S
O261 Sm240 2.450 . S
O261 C242 1.242 . S
O262 Sm240 2.681 . S
O262 Sm241 2.386 1_554 S
O262 C249 1.271 . S
O263 Sm240 2.464 . S
O263 C249 1.251 . S
O264 Sm240 2.396 . S
O264 C250 1.252 . S
O265 Sm241 2.408 1_554 S
O265 C250 1.272 . S
O266 Sm241 2.543 . S
O266 C251 1.261 . S
O267 Sm241 2.450 . S
O267 C251 1.242 . S
O268 Sm240 2.386 1_556 S
O268 Sm241 2.681 . S
O268 C258 1.271 . S
O269 Sm241 2.464 . S
O269 C258 1.251 . S
O270 Sm241 2.396 . S
O270 C259 1.252 . S
O271 Sm240 2.408 1_556 S
O271 C259 1.272 . S
H272 C244 0.930 . S
H273 C245 0.929 . S
H274 C247 0.930 . S
H275 C248 0.929 . S
H276 C253 0.930 . S
H277 C254 0.929 . S
H278 C256 0.930 . S
H279 C257 0.929 . S
Sm280 C282 2.846 . S
Sm280 O300 2.543 . S
Sm280 O301 2.450 . S
Sm280 O302 2.681 . S
Sm280 O303 2.464 . S
Sm280 O304 2.396 . S
Sm280 O308 2.386 . S
Sm280 O311 2.408 . S
Sm281 C291 2.846 . S
Sm281 O302 2.386 . S
Sm281 O305 2.408 . S
Sm281 O306 2.543 . S
Sm281 O307 2.450 . S
Sm281 O308 2.681 . S
Sm281 O309 2.464 . S
Sm281 O310 2.396 . S
C282 Sm280 2.846 . S
C282 C283 1.506 . S
C282 O300 1.261 . S
C282 O301 1.242 . S
C283 C282 1.506 . S
C283 C284 1.358 . S
C283 C288 1.382 . S
C284 C283 1.358 . S
C284 C285 1.385 . S
C284 H312 0.930 . S
C285 C284 1.385 . S
C285 C286 1.395 . S
C285 H313 0.929 . S
C286 C285 1.395 . S
C286 C287 1.335 . S
C287 C286 1.335 . S
C287 C288 1.398 . S
C287 H314 0.930 . S
C288 C283 1.382 . S
C288 C287 1.398 . S
C288 H315 0.929 . S
C289 O302 1.271 . S
C289 O303 1.251 . S
C290 O304 1.252 . S
C290 O305 1.272 . S
C291 Sm281 2.846 . S
C291 C292 1.506 . S
C291 O306 1.261 . S
C291 O307 1.242 . S
C292 C291 1.506 . S
C292 C293 1.358 . S
C292 C297 1.382 . S
C293 C292 1.358 . S
C293 C294 1.385 . S
C293 H316 0.930 . S
C294 C293 1.385 . S
C294 C295 1.395 . S
C294 H317 0.929 . S
C295 C294 1.395 . S
C295 C296 1.335 . S
C296 C295 1.335 . S
C296 C297 1.398 . S
C296 H318 0.930 . S
C297 C292 1.382 . S
C297 C296 1.398 . S
C297 H319 0.929 . S
C298 O308 1.271 . S
C298 O309 1.251 . S
C299 O310 1.252 . S
C299 O311 1.272 . S
O300 Sm280 2.543 . S
O300 C282 1.261 . S
O301 Sm280 2.450 . S
O301 C282 1.242 . S
O302 Sm280 2.681 . S
O302 Sm281 2.386 . S
O302 C289 1.271 . S
O303 Sm280 2.464 . S
O303 C289 1.251 . S
O304 Sm280 2.396 . S
O304 C290 1.252 . S
O305 Sm281 2.408 . S
O305 C290 1.272 . S
O306 Sm281 2.543 . S
O306 C291 1.261 . S
O307 Sm281 2.450 . S
O307 C291 1.242 . S
O308 Sm280 2.386 . S
O308 Sm281 2.681 . S
O308 C298 1.271 . S
O309 Sm281 2.464 . S
O309 C298 1.251 . S
O310 Sm281 2.396 . S
O310 C299 1.252 . S
O311 Sm280 2.408 . S
O311 C299 1.272 . S
H312 C284 0.930 . S
H313 C285 0.929 . S
H314 C287 0.930 . S
H315 C288 0.929 . S
H316 C293 0.930 . S
H317 C294 0.929 . S
H318 C296 0.930 . S
H319 C297 0.929 . S
Sm320 C322 2.846 . S
Sm320 O340 2.543 . S
Sm320 O341 2.450 . S
Sm320 O342 2.681 . S
Sm320 O343 2.464 . S
Sm320 O344 2.396 . S
Sm320 O348 2.386 . S
Sm320 O351 2.408 . S
Sm321 C331 2.846 . S
Sm321 O342 2.386 . S
Sm321 O345 2.408 . S
Sm321 O346 2.543 . S
Sm321 O347 2.450 . S
Sm321 O348 2.681 . S
Sm321 O349 2.464 . S
Sm321 O350 2.396 . S
C322 Sm320 2.846 . S
C322 C323 1.506 . S
C322 O340 1.261 . S
C322 O341 1.242 . S
C323 C322 1.506 . S
C323 C324 1.358 . S
C323 C328 1.382 . S
C324 C323 1.358 . S
C324 C325 1.385 . S
C324 H352 0.930 . S
C325 C324 1.385 . S
C325 C326 1.395 . S
C325 H353 0.929 . S
C326 C325 1.395 . S
C326 C327 1.335 . S
C327 C326 1.335 . S
C327 C328 1.398 . S
C327 H354 0.930 . S
C328 C323 1.382 . S
C328 C327 1.398 . S
C328 H355 0.929 . S
C329 O342 1.271 . S
C329 O343 1.251 . S
C330 O344 1.252 . S
C330 O345 1.272 . S
C331 Sm321 2.846 . S
C331 C332 1.506 . S
C331 O346 1.261 . S
C331 O347 1.242 . S
C332 C331 1.506 . S
C332 C333 1.358 . S
C332 C337 1.382 . S
C333 C332 1.358 . S
C333 C334 1.385 . S
C333 H356 0.930 . S
C334 C333 1.385 . S
C334 C335 1.395 . S
C334 H357 0.929 . S
C335 C334 1.395 . S
C335 C336 1.335 . S
C336 C335 1.335 . S
C336 C337 1.398 . S
C336 H358 0.930 . S
C337 C332 1.382 . S
C337 C336 1.398 . S
C337 H359 0.929 . S
C338 O348 1.271 . S
C338 O349 1.251 . S
C339 O350 1.252 . S
C339 O351 1.272 . S
O340 Sm320 2.543 . S
O340 C322 1.261 . S
O341 Sm320 2.450 . S
O341 C322 1.242 . S
O342 Sm320 2.681 . S
O342 Sm321 2.386 . S
O342 C329 1.271 . S
O343 Sm320 2.464 . S
O343 C329 1.251 . S
O344 Sm320 2.396 . S
O344 C330 1.252 . S
O345 Sm321 2.408 . S
O345 C330 1.272 . S
O346 Sm321 2.543 . S
O346 C331 1.261 . S
O347 Sm321 2.450 . S
O347 C331 1.242 . S
O348 Sm320 2.386 . S
O348 Sm321 2.681 . S
O348 C338 1.271 . S
O349 Sm321 2.464 . S
O349 C338 1.251 . S
O350 Sm321 2.396 . S
O350 C339 1.252 . S
O351 Sm320 2.408 . S
O351 C339 1.272 . S
H352 C324 0.930 . S
H353 C325 0.929 . S
H354 C327 0.930 . S
H355 C328 0.929 . S
H356 C333 0.930 . S
H357 C334 0.929 . S
H358 C336 0.930 . S
H359 C337 0.929 . S
Sm360 C362 2.846 . S
Sm360 O380 2.543 . S
Sm360 O381 2.450 . S
Sm360 O382 2.681 1_565 S
Sm360 O383 2.464 1_565 S
Sm360 O384 2.396 1_565 S
Sm360 O388 2.386 . S
Sm360 O391 2.408 . S
Sm361 C371 2.846 . S
Sm361 O382 2.386 . S
Sm361 O385 2.408 . S
Sm361 O386 2.543 . S
Sm361 O387 2.450 . S
Sm361 O388 2.681 1_545 S
Sm361 O389 2.464 1_545 S
Sm361 O390 2.396 1_545 S
C362 Sm360 2.846 . S
C362 C363 1.506 . S
C362 O380 1.261 . S
C362 O381 1.242 . S
C363 C362 1.506 . S
C363 C364 1.358 . S
C363 C368 1.382 . S
C364 C363 1.358 . S
C364 C365 1.385 . S
C364 H392 0.930 . S
C365 C364 1.385 . S
C365 C366 1.395 . S
C365 H393 0.929 . S
C366 C365 1.395 . S
C366 C367 1.335 . S
C367 C366 1.335 . S
C367 C368 1.398 . S
C367 H394 0.930 . S
C368 C363 1.382 . S
C368 C367 1.398 . S
C368 H395 0.929 . S
C369 O382 1.271 . S
C369 O383 1.251 . S
C370 O384 1.252 . S
C370 O385 1.272 . S
C371 Sm361 2.846 . S
C371 C372 1.506 . S
C371 O386 1.261 . S
C371 O387 1.242 . S
C372 C371 1.506 . S
C372 C373 1.358 . S
C372 C377 1.382 . S
C373 C372 1.358 . S
C373 C374 1.385 . S
C373 H396 0.930 . S
C374 C373 1.385 . S
C374 C375 1.395 . S
C374 H397 0.929 . S
C375 C374 1.395 . S
C375 C376 1.335 . S
C376 C375 1.335 . S
C376 C377 1.398 . S
C376 H398 0.930 . S
C377 C372 1.382 . S
C377 C376 1.398 . S
C377 H399 0.929 . S
C378 O388 1.271 . S
C378 O389 1.251 . S
C379 O390 1.252 . S
C379 O391 1.272 . S
O380 Sm360 2.543 . S
O380 C362 1.261 . S
O381 Sm360 2.450 . S
O381 C362 1.242 . S
O382 Sm360 2.681 1_545 S
O382 Sm361 2.386 . S
O382 C369 1.271 . S
O383 Sm360 2.464 1_545 S
O383 C369 1.251 . S
O384 Sm360 2.396 1_545 S
O384 C370 1.252 . S
O385 Sm361 2.408 . S
O385 C370 1.272 . S
O386 Sm361 2.543 . S
O386 C371 1.261 . S
O387 Sm361 2.450 . S
O387 C371 1.242 . S
O388 Sm360 2.386 . S
O388 Sm361 2.681 1_565 S
O388 C378 1.271 . S
O389 Sm361 2.464 1_565 S
O389 C378 1.251 . S
O390 Sm361 2.396 1_565 S
O390 C379 1.252 . S
O391 Sm360 2.408 . S
O391 C379 1.272 . S
H392 C364 0.930 . S
H393 C365 0.929 . S
H394 C367 0.930 . S
H395 C368 0.929 . S
H396 C373 0.930 . S
H397 C374 0.929 . S
H398 C376 0.930 . S
H399 C377 0.929 . S
Sm400 C402 2.846 . S
Sm400 O420 2.543 . S
Sm400 O421 2.450 . S
Sm400 O422 2.681 . S
Sm400 O423 2.464 . S
Sm400 O424 2.396 . S
Sm400 O428 2.386 1_565 S
Sm400 O431 2.408 1_565 S
Sm401 C411 2.846 . S
Sm401 O422 2.386 1_545 S
Sm401 O425 2.408 1_545 S
Sm401 O426 2.543 . S
Sm401 O427 2.450 . S
Sm401 O428 2.681 . S
Sm401 O429 2.464 . S
Sm401 O430 2.396 . S
C402 Sm400 2.846 . S
C402 C403 1.506 . S
C402 O420 1.261 . S
C402 O421 1.242 . S
C403 C402 1.506 . S
C403 C404 1.358 . S
C403 C408 1.382 . S
C404 C403 1.358 . S
C404 C405 1.385 . S
C404 H432 0.930 . S
C405 C404 1.385 . S
C405 C406 1.395 . S
C405 H433 0.929 . S
C406 C405 1.395 . S
C406 C407 1.335 . S
C407 C406 1.335 . S
C407 C408 1.398 . S
C407 H434 0.930 . S
C408 C403 1.382 . S
C408 C407 1.398 . S
C408 H435 0.929 . S
C409 O422 1.271 . S
C409 O423 1.251 . S
C410 O424 1.252 . S
C410 O425 1.272 . S
C411 Sm401 2.846 . S
C411 C412 1.506 . S
C411 O426 1.261 . S
C411 O427 1.242 . S
C412 C411 1.506 . S
C412 C413 1.358 . S
C412 C417 1.382 . S
C413 C412 1.358 . S
C413 C414 1.385 . S
C413 H436 0.930 . S
C414 C413 1.385 . S
C414 C415 1.395 . S
C414 H437 0.929 . S
C415 C414 1.395 . S
C415 C416 1.335 . S
C416 C415 1.335 . S
C416 C417 1.398 . S
C416 H438 0.930 . S
C417 C412 1.382 . S
C417 C416 1.398 . S
C417 H439 0.929 . S
C418 O428 1.271 . S
C418 O429 1.251 . S
C419 O430 1.252 . S
C419 O431 1.272 . S
O420 Sm400 2.543 . S
O420 C402 1.261 . S
O421 Sm400 2.450 . S
O421 C402 1.242 . S
O422 Sm400 2.681 . S
O422 Sm401 2.386 1_565 S
O422 C409 1.271 . S
O423 Sm400 2.464 . S
O423 C409 1.251 . S
O424 Sm400 2.396 . S
O424 C410 1.252 . S
O425 Sm401 2.408 1_565 S
O425 C410 1.272 . S
O426 Sm401 2.543 . S
O426 C411 1.261 . S
O427 Sm401 2.450 . S
O427 C411 1.242 . S
O428 Sm400 2.386 1_545 S
O428 Sm401 2.681 . S
O428 C418 1.271 . S
O429 Sm401 2.464 . S
O429 C418 1.251 . S
O430 Sm401 2.396 . S
O430 C419 1.252 . S
O431 Sm400 2.408 1_545 S
O431 C419 1.272 . S
H432 C404 0.930 . S
H433 C405 0.929 . S
H434 C407 0.930 . S
H435 C408 0.929 . S
H436 C413 0.930 . S
H437 C414 0.929 . S
H438 C416 0.930 . S
H439 C417 0.929 . S
Sm440 C442 2.846 . S
Sm440 O460 2.543 . S
Sm440 O461 2.450 . S
Sm440 O462 2.681 . S
Sm440 O463 2.464 . S
Sm440 O464 2.396 . S
Sm440 O468 2.386 . S
Sm440 O471 2.408 . S
Sm441 C451 2.846 . S
Sm441 O462 2.386 . S
Sm441 O465 2.408 . S
Sm441 O466 2.543 . S
Sm441 O467 2.450 . S
Sm441 O468 2.681 . S
Sm441 O469 2.464 . S
Sm441 O470 2.396 . S
C442 Sm440 2.846 . S
C442 C443 1.506 . S
C442 O460 1.261 . S
C442 O461 1.242 . S
C443 C442 1.506 . S
C443 C444 1.358 . S
C443 C448 1.382 . S
C444 C443 1.358 . S
C444 C445 1.385 . S
C444 H472 0.930 . S
C445 C444 1.385 . S
C445 C446 1.395 . S
C445 H473 0.929 . S
C446 C445 1.395 . S
C446 C447 1.335 . S
C447 C446 1.335 . S
C447 C448 1.398 . S
C447 H474 0.930 . S
C448 C443 1.382 . S
C448 C447 1.398 . S
C448 H475 0.929 . S
C449 O462 1.271 . S
C449 O463 1.251 . S
C450 O464 1.252 . S
C450 O465 1.272 . S
C451 Sm441 2.846 . S
C451 C452 1.506 . S
C451 O466 1.261 . S
C451 O467 1.242 . S
C452 C451 1.506 . S
C452 C453 1.358 . S
C452 C457 1.382 . S
C453 C452 1.358 . S
C453 C454 1.385 . S
C453 H476 0.930 . S
C454 C453 1.385 . S
C454 C455 1.395 . S
C454 H477 0.929 . S
C455 C454 1.395 . S
C455 C456 1.335 . S
C456 C455 1.335 . S
C456 C457 1.398 . S
C456 H478 0.930 . S
C457 C452 1.382 . S
C457 C456 1.398 . S
C457 H479 0.929 . S
C458 O468 1.271 . S
C458 O469 1.251 . S
C459 O470 1.252 . S
C459 O471 1.272 . S
O460 Sm440 2.543 . S
O460 C442 1.261 . S
O461 Sm440 2.450 . S
O461 C442 1.242 . S
O462 Sm440 2.681 . S
O462 Sm441 2.386 . S
O462 C449 1.271 . S
O463 Sm440 2.464 . S
O463 C449 1.251 . S
O464 Sm440 2.396 . S
O464 C450 1.252 . S
O465 Sm441 2.408 . S
O465 C450 1.272 . S
O466 Sm441 2.543 . S
O466 C451 1.261 . S
O467 Sm441 2.450 . S
O467 C451 1.242 . S
O468 Sm440 2.386 . S
O468 Sm441 2.681 . S
O468 C458 1.271 . S
O469 Sm441 2.464 . S
O469 C458 1.251 . S
O470 Sm441 2.396 . S
O470 C459 1.252 . S
O471 Sm440 2.408 . S
O471 C459 1.272 . S
H472 C444 0.930 . S
H473 C445 0.929 . S
H474 C447 0.930 . S
H475 C448 0.929 . S
H476 C453 0.930 . S
H477 C454 0.929 . S
H478 C456 0.930 . S
H479 C457 0.929 . S
C480 C481 1.369 . S
C480 C482 1.419 . S
C480 H484 0.930 . S
C481 C480 1.369 . S
C481 C490 1.429 . S
C482 C480 1.419 . S
C482 C483 1.363 . S
C482 H485 0.929 . S
C483 C482 1.363 . S
C483 C489 1.428 . S
H484 C480 0.930 . S
H485 C482 0.929 . S
S486 N487 1.613 . S
S486 N488 1.610 . S
N487 S486 1.613 . S
N487 C490 1.350 . S
N488 S486 1.610 . S
N488 C489 1.351 . S
C489 C483 1.428 . S
C489 N488 1.351 . S
C489 C490 1.434 . S
C490 C481 1.429 . S
C490 N487 1.350 . S
C490 C489 1.434 . S
C491 C492 1.369 . S
C491 C493 1.419 . S
C491 H495 0.930 1_565 S
C492 C491 1.369 . S
C492 C501 1.429 . S
C493 C491 1.419 . S
C493 C494 1.363 . S
C493 H496 0.909 1_565 S
C494 C493 1.363 . S
C494 C500 1.428 . S
H495 C491 0.930 1_545 S
H496 C493 0.909 1_545 S
S497 N498 1.613 . S
S497 N499 1.610 . S
N498 S497 1.613 . S
N498 C501 1.350 . S
N499 S497 1.610 . S
N499 C500 1.351 . S
C500 C494 1.428 . S
C500 N499 1.351 . S
C500 C501 1.434 . S
C501 C492 1.429 . S
C501 N498 1.350 . S
C501 C500 1.434 . S
C502 C503 1.369 . S
C502 C504 1.419 . S
C502 H506 0.930 1_554 S
C503 C502 1.369 . S
C503 C512 1.429 . S
C504 C502 1.419 . S
C504 C505 1.363 . S
C504 H507 0.929 . S
C505 C504 1.363 . S
C505 C511 1.428 . S
H506 C502 0.930 1_556 S
H507 C504 0.929 . S
S508 N509 1.613 . S
S508 N510 1.610 . S
N509 S508 1.613 . S
N509 C512 1.350 . S
N510 S508 1.610 . S
N510 C511 1.351 . S
C511 C505 1.428 . S
C511 N510 1.351 . S
C511 C512 1.434 . S
C512 C503 1.429 . S
C512 N509 1.350 . S
C512 C511 1.434 . S
C513 C514 1.369 . S
C513 C515 1.419 . S
C513 H517 0.930 . S
C514 C513 1.369 . S
C514 C523 1.429 . S
C515 C513 1.419 . S
C515 C516 1.363 . S
C515 H518 0.929 1_545 S
C516 C515 1.363 . S
C516 C522 1.428 . S
H517 C513 0.930 . S
H518 C515 0.929 1_565 S
S519 N520 1.613 . S
S519 N521 1.610 . S
N520 S519 1.613 . S
N520 C523 1.350 . S
N521 S519 1.610 . S
N521 C522 1.351 . S
C522 C516 1.428 . S
C522 N521 1.351 . S
C522 C523 1.434 . S
C523 C514 1.429 . S
C523 N520 1.350 . S
C523 C522 1.434 . S
C524 C525 1.369 . S
C524 C526 1.419 . S
C524 H528 0.930 . S
C525 C524 1.369 . S
C525 C534 1.429 . S
C526 C524 1.419 . S
C526 C527 1.363 . S
C526 H529 0.929 . S
C527 C526 1.363 . S
C527 C533 1.428 . S
H528 C524 0.930 . S
H529 C526 0.929 . S
S530 N531 1.613 . S
S530 N532 1.610 . S
N531 S530 1.613 . S
N531 C534 1.350 . S
N532 S530 1.610 . S
N532 C533 1.351 . S
C533 C527 1.428 . S
C533 N532 1.351 . S
C533 C534 1.434 . S
C534 C525 1.429 . S
C534 N531 1.350 . S
C534 C533 1.434 . S
C535 C536 1.369 . S
C535 C537 1.419 . S
C535 H539 0.930 . S
C536 C535 1.369 . S
C536 C545 1.429 . S
C537 C535 1.419 . S
C537 C538 1.363 . S
C537 H540 0.929 . S
C538 C537 1.363 . S
C538 C544 1.428 . S
H539 C535 0.930 . S
H540 C537 0.929 . S
S541 N542 1.613 . S
S541 N543 1.610 . S
N542 S541 1.613 . S
N542 C545 1.350 . S
N543 S541 1.610 . S
N543 C544 1.351 . S
C544 C538 1.428 . S
C544 N543 1.351 . S
C544 C545 1.434 . S
C545 C536 1.429 . S
C545 N542 1.350 . S
C545 C544 1.434 . S
C546 C547 1.369 . S
C546 C548 1.419 . S
C546 H550 0.930 . S
C547 C546 1.369 . S
C547 C556 1.429 . S
C548 C546 1.419 . S
C548 C549 1.363 . S
C548 H551 0.929 . S
C549 C548 1.363 . S
C549 C555 1.428 . S
H550 C546 0.930 . S
H551 C548 0.929 . S
S552 N553 1.626 . S
S552 N554 1.618 . S
N553 S552 1.626 . S
N553 C556 1.350 . S
N554 S552 1.618 . S
N554 C555 1.351 . S
C555 C549 1.428 . S
C555 N554 1.351 . S
C555 C556 1.434 . S
C556 C547 1.429 . S
C556 N553 1.350 . S
C556 C555 1.434 . S
C557 C558 1.369 . S
C557 C559 1.419 . S
C557 H561 0.930 . S
C558 C557 1.369 . S
C558 C567 1.429 . S
C559 C557 1.419 . S
C559 C560 1.363 . S
C559 H562 0.929 . S
C560 C559 1.363 . S
C560 C566 1.428 . S
H561 C557 0.930 . S
H562 C559 0.929 . S
S563 N564 1.613 . S
S563 N565 1.610 . S
N564 S563 1.613 . S
N564 C567 1.350 . S
N565 S563 1.610 . S
N565 C566 1.351 . S
C566 C560 1.428 . S
C566 N565 1.351 . S
C566 C567 1.434 . S
C567 C558 1.429 . S
C567 N564 1.350 . S
C567 C566 1.434 . S
C568 C569 1.369 . S
C568 C570 1.419 . S
C568 H572 0.930 . S
C569 C568 1.369 . S
C569 C578 1.429 . S
C570 C568 1.419 . S
C570 C571 1.363 . S
C570 H573 0.929 . S
C571 C570 1.363 . S
C571 C577 1.428 . S
H572 C568 0.930 . S
H573 C570 0.929 . S
S574 N575 1.613 . S
S574 N576 1.610 . S
N575 S574 1.613 . S
N575 C578 1.350 . S
N576 S574 1.610 . S
N576 C577 1.351 . S
C577 C571 1.428 . S
C577 N576 1.351 . S
C577 C578 1.434 . S
C578 C569 1.429 . S
C578 N575 1.350 . S
C578 C577 1.434 . S
C579 C580 1.369 . S
C579 C581 1.419 . S
C579 H583 0.930 . S
C580 C579 1.369 . S
C580 C589 1.429 . S
C581 C579 1.419 . S
C581 C582 1.363 . S
C581 H584 0.929 . S
C582 C581 1.363 . S
C582 C588 1.428 . S
H583 C579 0.930 . S
H584 C581 0.929 . S
S585 N586 1.613 . S
S585 N587 1.610 . S
N586 S585 1.613 . S
N586 C589 1.350 . S
N587 S585 1.610 . S
N587 C588 1.351 . S
C588 C582 1.428 . S
C588 N587 1.351 . S
C588 C589 1.434 . S
C589 C580 1.429 . S
C589 N586 1.350 . S
C589 C588 1.434 . S
C590 C591 1.369 . S
C590 C592 1.419 . S
C590 H594 0.930 1_655 S
C591 C590 1.369 . S
C591 C600 1.429 . S
C592 C590 1.419 . S
C592 C593 1.363 . S
C592 H595 0.929 . S
C593 C592 1.363 . S
C593 C599 1.428 . S
H594 C590 0.930 1_455 S
H595 C592 0.929 . S
S596 N597 1.613 . S
S596 N598 1.610 . S
N597 S596 1.613 . S
N597 C600 1.350 . S
N598 S596 1.610 . S
N598 C599 1.351 . S
C599 C593 1.428 . S
C599 N598 1.351 . S
C599 C600 1.434 . S
C600 C591 1.429 . S
C600 N597 1.350 . S
C600 C599 1.434 . S
C601 C602 1.369 . S
C601 C603 1.419 . S
C601 H605 0.930 . S
C602 C601 1.369 . S
C602 C611 1.429 . S
C603 C601 1.419 . S
C603 C604 1.363 . S
C603 H606 0.929 . S
C604 C603 1.363 . S
C604 C610 1.428 . S
H605 C601 0.930 . S
H606 C603 0.929 . S
S607 N608 1.613 . S
S607 N609 1.610 . S
N608 S607 1.613 . S
N608 C611 1.350 . S
N609 S607 1.610 . S
N609 C610 1.351 . S
C610 C604 1.428 . S
C610 N609 1.351 . S
C610 C611 1.434 . S
C611 C602 1.429 . S
C611 N608 1.350 . S
C611 C610 1.434 . S
C612 C613 1.369 . S
C612 C614 1.419 . S
C612 H616 0.930 . S
C613 C612 1.369 . S
C613 C622 1.429 . S
C614 C612 1.419 . S
C614 C615 1.363 . S
C614 H617 0.929 . S
C615 C614 1.363 . S
C615 C621 1.428 . S
H616 C612 0.930 . S
H617 C614 0.929 . S
S618 N619 1.613 . S
S618 N620 1.610 . S
N619 S618 1.613 . S
N619 C622 1.350 . S
N620 S618 1.610 . S
N620 C621 1.351 . S
C621 C615 1.428 . S
C621 N620 1.351 . S
C621 C622 1.434 . S
C622 C613 1.429 . S
C622 N619 1.350 . S
C622 C621 1.434 . S
C623 C624 1.369 . S
C623 C625 1.419 . S
C623 H627 0.930 . S
C624 C623 1.369 . S
C624 C633 1.429 . S
C625 C623 1.419 . S
C625 C626 1.363 . S
C625 H628 0.929 . S
C626 C625 1.363 . S
C626 C632 1.428 . S
H627 C623 0.930 . S
H628 C625 0.929 . S
S629 N630 1.613 . S
S629 N631 1.610 . S
N630 S629 1.613 . S
N630 C633 1.350 . S
N631 S629 1.610 . S
N631 C632 1.351 . S
C632 C626 1.428 . S
C632 N631 1.351 . S
C632 C633 1.434 . S
C633 C624 1.429 . S
C633 N630 1.350 . S
C633 C632 1.434 . S
C634 C635 1.369 . S
C634 C636 1.419 . S
C634 H638 0.930 . S
C635 C634 1.369 . S
C635 C644 1.429 . S
C636 C634 1.419 . S
C636 C637 1.363 . S
C636 H639 0.929 . S
C637 C636 1.363 . S
C637 C643 1.428 . S
H638 C634 0.930 . S
H639 C636 0.929 . S
S640 N641 1.613 . S
S640 N642 1.610 . S
N641 S640 1.613 . S
N641 C644 1.350 . S
N642 S640 1.610 . S
N642 C643 1.351 . S
C643 C637 1.428 . S
C643 N642 1.351 . S
C643 C644 1.434 . S
C644 C635 1.429 . S
C644 N641 1.350 . S
C644 C643 1.434 . S
C645 C646 1.369 . S
C645 C647 1.419 1_554 S
C645 H649 0.930 . S
C646 C645 1.369 . S
C646 C655 1.429 . S
C647 C645 1.419 1_556 S
C647 C648 1.363 . S
C647 H650 0.929 . S
C648 C647 1.363 . S
C648 C654 1.428 . S
H649 C645 0.930 . S
H650 C647 0.929 . S
S651 N652 1.613 1_565 S
S651 N653 1.610 1_554 S
N652 S651 1.613 1_545 S
N652 C655 1.350 . S
N653 S651 1.610 1_556 S
N653 C654 1.351 1_565 S
C654 C648 1.428 . S
C654 N653 1.351 1_545 S
C654 C655 1.434 1_556 S
C655 C646 1.429 . S
C655 N652 1.350 . S
C655 C654 1.434 1_554 S
C656 C657 1.369 . S
C656 C658 1.419 . S
C656 H660 0.930 . S
C657 C656 1.369 . S
C657 C666 1.429 . S
C658 C656 1.419 . S
C658 C659 1.363 . S
C658 H661 0.929 . S
C659 C658 1.363 . S
C659 C665 1.428 . S
H660 C656 0.930 . S
H661 C658 0.929 . S
S662 N663 1.613 1_565 S
S662 N664 1.618 . S
N663 S662 1.613 1_545 S
N663 C666 1.350 . S
N664 S662 1.618 . S
N664 C665 1.329 1_565 S
C665 C659 1.428 . S
C665 N664 1.329 1_545 S
C665 C666 1.434 . S
C666 C657 1.429 . S
C666 N663 1.350 . S
C666 C665 1.434 . S
C667 C668 1.369 1_556 S
C667 C669 1.419 . S
C667 H671 0.930 . S
C668 C667 1.369 1_554 S
C668 C677 1.429 1_554 S
C669 C667 1.419 . S
C669 C670 1.363 . S
C669 H672 0.929 . S
C670 C669 1.363 . S
C670 C676 1.428 . S
H671 C667 0.930 . S
H672 C669 0.929 . S
S673 N674 1.613 1_556 S
S673 N675 1.610 . S
N674 S673 1.613 1_554 S
N674 C677 1.350 1_554 S
N675 S673 1.610 . S
N675 C676 1.351 . S
C676 C670 1.428 . S
C676 N675 1.351 . S
C676 C677 1.434 . S
C677 C668 1.429 1_556 S
C677 N674 1.350 1_556 S
C677 C676 1.434 . S
C678 C679 1.369 . S
C678 C680 1.419 . S
C678 H682 0.930 . S
C679 C678 1.369 . S
C679 C688 1.429 . S
C680 C678 1.419 . S
C680 C681 1.363 . S
C680 H683 0.929 . S
C681 C680 1.363 . S
C681 C687 1.428 . S
H682 C678 0.930 . S
H683 C680 0.929 . S
S684 N685 1.613 . S
S684 N686 1.610 . S
N685 S684 1.613 . S
N685 C688 1.350 . S
N686 S684 1.610 . S
N686 C687 1.351 . S
C687 C681 1.428 . S
C687 N686 1.351 . S
C687 C688 1.434 . S
C688 C679 1.429 . S
C688 N685 1.350 . S
C688 C687 1.434 . S
C689 C690 1.369 . S
C689 C691 1.419 . S
C689 H693 0.930 . S
C690 C689 1.369 . S
C690 C699 1.429 . S
C691 C689 1.419 . S
C691 C692 1.363 . S
C691 H694 0.929 . S
C692 C691 1.363 . S
C692 C698 1.428 . S
H693 C689 0.930 . S
H694 C691 0.929 . S
S695 N696 1.613 . S
S695 N697 1.610 . S
N696 S695 1.613 . S
N696 C699 1.350 . S
N697 S695 1.610 . S
N697 C698 1.351 . S
C698 C692 1.428 . S
C698 N697 1.351 . S
C698 C699 1.434 . S
C699 C690 1.429 . S
C699 N696 1.350 . S
C699 C698 1.434 . S
C700 C701 1.369 . S
C700 C702 1.419 . S
C700 H704 0.930 . S
C701 C700 1.369 . S
C701 C710 1.429 . S
C702 C700 1.419 . S
C702 C703 1.363 . S
C702 H705 0.929 . S
C703 C702 1.363 . S
C703 C709 1.428 . S
H704 C700 0.930 . S
H705 C702 0.929 . S
S706 N707 1.613 . S
S706 N708 1.610 . S
N707 S706 1.613 . S
N707 C710 1.350 . S
N708 S706 1.610 . S
N708 C709 1.351 . S
C709 C703 1.428 . S
C709 N708 1.351 . S
C709 C710 1.434 . S
C710 C701 1.429 . S
C710 N707 1.350 . S
C710 C709 1.434 . S
C711 C712 1.369 . S
C711 C713 1.419 . S
C711 H715 0.930 1_455 S
C712 C711 1.369 . S
C712 C721 1.429 . S
C713 C711 1.419 . S
C713 C714 1.363 1_545 S
C713 H716 0.929 1_455 S
C714 C713 1.363 1_565 S
C714 C720 1.431 . S
H715 C711 0.930 1_655 S
H716 C713 0.929 1_655 S
S717 N718 1.613 . S
S717 N719 1.610 1_545 S
N718 S717 1.613 . S
N718 C721 1.350 . S
N719 S717 1.610 1_565 S
N719 C720 1.357 . S
C720 C714 1.431 . S
C720 N719 1.357 . S
C720 C721 1.425 1_565 S
C721 C712 1.429 . S
C721 N718 1.350 . S
C721 C720 1.425 1_545 S
C722 C723 1.369 . S
C722 C724 1.419 . S
C722 H726 0.930 1_556 S
C723 C722 1.369 . S
C723 C732 1.429 . S
C724 C722 1.419 . S
C724 C725 1.363 . S
C724 H727 0.929 1_556 S
C725 C724 1.363 . S
C725 C731 1.428 . S
H726 C722 0.930 1_554 S
H727 C724 0.929 1_554 S
S728 N729 1.613 . S
S728 N730 1.610 . S
N729 S728 1.613 . S
N729 C732 1.350 . S
N730 S728 1.610 . S
N730 C731 1.351 . S
C731 C725 1.428 . S
C731 N730 1.351 . S
C731 C732 1.434 . S
C732 C723 1.429 . S
C732 N729 1.350 . S
C732 C731 1.434 . S
C733 C734 1.369 . S
C733 C735 1.419 . S
C733 H737 0.930 . S
C734 C733 1.369 . S
C734 C743 1.429 . S
C735 C733 1.419 . S
C735 C736 1.363 1_545 S
C735 H738 0.929 . S
C736 C735 1.363 1_565 S
C736 C742 1.428 . S
H737 C733 0.930 . S
H738 C735 0.929 . S
S739 N740 1.613 . S
S739 N741 1.610 . S
N740 S739 1.613 . S
N740 C743 1.350 1_565 S
N741 S739 1.610 . S
N741 C742 1.351 . S
C742 C736 1.428 . S
C742 N741 1.351 . S
C742 C743 1.434 1_565 S
C743 C734 1.429 . S
C743 N740 1.350 1_545 S
C743 C742 1.434 1_545 S
C744 C745 1.369 . S
C744 C746 1.419 . S
C744 H748 0.930 . S
C745 C744 1.369 . S
C745 C754 1.429 . S
C746 C744 1.419 . S
C746 C747 1.363 . S
C746 H749 0.929 . S
C747 C746 1.363 . S
C747 C753 1.428 . S
H748 C744 0.930 . S
H749 C746 0.929 . S
S750 N751 1.613 . S
S750 N752 1.610 . S
N751 S750 1.613 . S
N751 C754 1.350 . S
N752 S750 1.610 . S
N752 C753 1.351 . S
C753 C747 1.428 . S
C753 N752 1.351 . S
C753 C754 1.434 . S
C754 C745 1.429 . S
C754 N751 1.350 . S
C754 C753 1.434 . S
C755 C756 1.369 . S
C755 C757 1.419 . S
C755 H759 0.930 . S
C756 C755 1.369 . S
C756 C765 1.429 . S
C757 C755 1.419 . S
C757 C758 1.363 . S
C757 H760 0.929 . S
C758 C757 1.363 . S
C758 C764 1.428 . S
H759 C755 0.930 . S
H760 C757 0.929 . S
S761 N762 1.613 . S
S761 N763 1.610 1_455 S
N762 S761 1.613 . S
N762 C765 1.350 1_455 S
N763 S761 1.610 1_655 S
N763 C764 1.351 . S
C764 C758 1.428 . S
C764 N763 1.351 . S
C764 C765 1.434 . S
C765 C756 1.429 . S
C765 N762 1.350 1_655 S
C765 C764 1.434 . S
C766 C767 1.369 . S
C766 C768 1.419 . S
C766 H770 0.930 . S
C767 C766 1.369 . S
C767 C776 1.429 . S
C768 C766 1.419 . S
C768 C769 1.363 . S
C768 H771 0.929 . S
C769 C768 1.363 . S
C769 C775 1.428 . S
H770 C766 0.930 . S
H771 C768 0.929 . S
S772 N773 1.613 . S
S772 N774 1.610 . S
N773 S772 1.613 . S
N773 C776 1.350 . S
N774 S772 1.610 . S
N774 C775 1.351 . S
C775 C769 1.428 . S
C775 N774 1.351 . S
C775 C776 1.434 . S
C776 C767 1.429 . S
C776 N773 1.350 . S
C776 C775 1.434 . S
C777 C778 1.369 . S
C777 C779 1.419 . S
C777 H781 0.930 . S
C778 C777 1.369 . S
C778 C787 1.429 . S
C779 C777 1.419 . S
C779 C780 1.363 . S
C779 H782 0.929 . S
C780 C779 1.363 . S
C780 C786 1.428 . S
H781 C777 0.930 . S
H782 C779 0.929 . S
S783 N784 1.613 . S
S783 N785 1.610 . S
N784 S783 1.613 . S
N784 C787 1.350 . S
N785 S783 1.610 . S
N785 C786 1.351 . S
C786 C780 1.428 . S
C786 N785 1.351 . S
C786 C787 1.434 . S
C787 C778 1.429 . S
C787 N784 1.350 . S
C787 C786 1.434 . S
C788 C789 1.369 . S
C788 C790 1.419 . S
C788 H792 0.930 . S
C789 C788 1.369 . S
C789 C798 1.429 . S
C790 C788 1.419 . S
C790 C791 1.363 . S
C790 H793 0.929 . S
C791 C790 1.363 . S
C791 C797 1.428 . S
H792 C788 0.930 . S
H793 C790 0.929 . S
S794 N795 1.613 . S
S794 N796 1.610 . S
N795 S794 1.613 . S
N795 C798 1.350 . S
N796 S794 1.610 . S
N796 C797 1.351 . S
C797 C791 1.428 . S
C797 N796 1.351 . S
C797 C798 1.434 . S
C798 C789 1.429 . S
C798 N795 1.350 . S
C798 C797 1.434 . S
C799 C800 1.369 . S
C799 C801 1.419 . S
C799 H803 0.930 . S
C800 C799 1.369 . S
C800 C809 1.429 . S
C801 C799 1.419 . S
C801 C802 1.363 . S
C801 H804 0.929 . S
C802 C801 1.363 . S
C802 C808 1.428 . S
H803 C799 0.930 . S
H804 C801 0.929 . S
S805 N806 1.613 . S
S805 N807 1.610 . S
N806 S805 1.613 . S
N806 C809 1.350 1_455 S
N807 S805 1.610 . S
N807 C808 1.351 1_455 S
C808 C802 1.428 . S
C808 N807 1.351 1_655 S
C808 C809 1.434 . S
C809 C800 1.429 . S
C809 N806 1.350 1_655 S
C809 C808 1.434 . S
C810 C811 1.369 . S
C810 C812 1.419 1_455 S
C810 H814 0.930 . S
C811 C810 1.369 . S
C811 C820 1.429 . S
C812 C810 1.419 1_655 S
C812 C813 1.363 . S
C812 H815 0.929 . S
C813 C812 1.363 . S
C813 C819 1.428 . S
H814 C810 0.930 . S
H815 C812 0.929 . S
S816 N817 1.613 1_655 S
S816 N818 1.610 . S
N817 S816 1.613 1_455 S
N817 C820 1.350 1_556 S
N818 S816 1.610 . S
N818 C819 1.351 1_556 S
C819 C813 1.428 . S
C819 N818 1.351 1_554 S
C819 C820 1.434 1_655 S
C820 C811 1.429 . S
C820 N817 1.350 1_554 S
C820 C819 1.434 1_455 S
C821 C822 1.369 . S
C821 C823 1.419 . S
C821 H825 0.930 . S
C822 C821 1.369 . S
C822 C831 1.429 . S
C823 C821 1.419 . S
C823 C824 1.363 . S
C823 H826 0.929 . S
C824 C823 1.363 . S
C824 C830 1.428 . S
H825 C821 0.930 . S
H826 C823 0.929 . S
S827 N828 1.613 . S
S827 N829 1.610 . S
N828 S827 1.613 . S
N828 C831 1.350 . S
N829 S827 1.610 . S
N829 C830 1.351 . S
C830 C824 1.428 . S
C830 N829 1.351 . S
C830 C831 1.434 . S
C831 C822 1.429 . S
C831 N828 1.350 . S
C831 C830 1.434 . S
C832 C833 1.369 . S
C832 C834 1.419 . S
C832 H836 0.930 . S
C833 C832 1.369 . S
C833 C842 1.429 . S
C834 C832 1.419 . S
C834 C835 1.363 . S
C834 H837 0.929 . S
C835 C834 1.363 . S
C835 C841 1.428 . S
H836 C832 0.930 . S
H837 C834 0.929 . S
S838 N839 1.613 . S
S838 N840 1.610 . S
N839 S838 1.613 . S
N839 C842 1.350 . S
N840 S838 1.610 . S
N840 C841 1.351 . S
C841 C835 1.428 . S
C841 N840 1.351 . S
C841 C842 1.434 . S
C842 C833 1.429 . S
C842 N839 1.350 . S
C842 C841 1.434 . S
C843 C844 1.369 . S
C843 C845 1.419 . S
C843 H847 0.930 1_455 S
C844 C843 1.369 . S
C844 C853 1.429 . S
C845 C843 1.419 . S
C845 C846 1.363 . S
C845 H848 0.929 1_455 S
C846 C845 1.363 . S
C846 C852 1.428 . S
H847 C843 0.930 1_655 S
H848 C845 0.929 1_655 S
S849 N850 1.613 . S
S849 N851 1.610 . S
N850 S849 1.613 . S
N850 C853 1.350 . S
N851 S849 1.610 . S
N851 C852 1.351 . S
C852 C846 1.428 . S
C852 N851 1.351 . S
C852 C853 1.434 . S
C853 C844 1.429 . S
C853 N850 1.350 . S
C853 C852 1.434 . S
C854 C855 1.369 . S
C854 C856 1.419 . S
C854 H858 0.930 1_556 S
C855 C854 1.369 . S
C855 C864 1.429 . S
C856 C854 1.419 . S
C856 C857 1.363 . S
C856 H859 0.929 . S
C857 C856 1.363 . S
C857 C863 1.428 . S
H858 C854 0.930 1_554 S
H859 C856 0.929 . S
S860 N861 1.613 . S
S860 N862 1.610 . S
N861 S860 1.613 . S
N861 C864 1.350 . S
N862 S860 1.610 . S
N862 C863 1.351 . S
C863 C857 1.428 . S
C863 N862 1.351 . S
C863 C864 1.434 . S
C864 C855 1.429 . S
C864 N861 1.350 . S
C864 C863 1.434 . S
C865 C866 1.369 . S
C865 C867 1.406 1_655 S
C865 H869 0.930 . S
C866 C865 1.369 . S
C866 C875 1.429 . S
C867 C865 1.406 1_455 S
C867 C868 1.368 . S
C867 H870 0.938 . S
C868 C867 1.368 . S
C868 C874 1.428 1_455 S
H869 C865 0.930 . S
H870 C867 0.938 . S
S871 N872 1.613 . S
S871 N873 1.610 . S
N872 S871 1.613 . S
N872 C875 1.350 . S
N873 S871 1.610 . S
N873 C874 1.351 . S
C874 C868 1.428 1_655 S
C874 N873 1.351 . S
C874 C875 1.434 . S
C875 C866 1.429 . S
C875 N872 1.350 . S
C875 C874 1.434 . S
C481 C18 1.319 . S
C483 C458 1.315 . S
C492 C379 1.823 . S
C494 C58 1.965 . S
C503 C99 1.438 . S
C505 C338 1.541 . S
C514 C138 2.245 . S
C516 C418 2.231 . S
C525 C178 1.841 . S
C527 C419 1.753 . S
C536 C219 1.515 . S
C538 C459 1.564 . S
C547 C378 2.117 . S
C549 C258 2.118 . S
C558 C299 1.673 . S
C560 C339 1.760 . S
C569 C139 1.741 . S
C571 C179 1.798 . S
C580 C19 1.719 . S
C582 C218 1.854 . S
C591 C59 1.634 . S
C593 C259 1.649 . S
C602 C298 2.051 . S
C604 C98 2.053 . S
C613 C6 1.711 . S
C615 C329 1.568 . S
C624 C46 1.778 . S
C626 C409 1.679 . S
C635 C449 2.155 . S
C637 C95 2.198 . S
C646 C126 1.541 . S
C648 C370 1.507 . S
C657 C166 1.306 . S
C659 C369 1.219 . S
C668 C330 2.238 . S
C670 C215 2.101 . S
C679 C410 1.370 . S
C681 C246 1.379 . S
C690 C450 2.738 . S
C692 C295 2.594 . S
C701 C10 2.834 . S
C703 C135 2.698 . S
C712 C15 2.139 . S
C714 C50 2.258 . S
C723 C55 2.430 . S
C725 C89 2.400 . S
C734 C130 1.683 . S
C736 C86 1.725 . S
C745 C206 1.525 . S
C747 C170 1.489 . S
C756 C209 1.551 . S
C758 C255 1.611 . S
C767 C250 1.539 . S
C769 C286 1.570 . S
C778 C175 1.210 . S
C780 C289 1.150 . S
C789 C335 1.215 . S
C791 C129 1.149 . S
C800 C210 1.856 . S
C802 C375 1.777 . S
C811 C326 1.480 . S
C813 C249 1.385 . S
C822 C406 1.716 . S
C824 C290 1.686 . S
C833 C169 1.362 . S
C835 C446 1.467 . S
C844 C455 1.905 . S
C846 C49 1.847 . S
C855 C90 1.575 . S
C857 C366 1.611 . S
C866 C415 1.977 . S
C868 C9 1.933 . S
