# Generated by pormake.
# Topology whp, (6)-cn, num edge types: 1
# Building blocks:
#     Node 0, Type 0, BuildingBlock: VOLQOD_clean_sbu_1, # of connection points: 6
#     Node 1, Type 0, BuildingBlock: VOLQOD_clean_sbu_1, # of connection points: 6
#     Node 2, Type 0, BuildingBlock: VOLQOD_clean_sbu_1, # of connection points: 6
#     Node 3, Type 0, BuildingBlock: VOLQOD_clean_sbu_1, # of connection points: 6
#     Node 4, Type 0, BuildingBlock: VOLQOD_clean_sbu_1, # of connection points: 6
#     Node 5, Type 0, BuildingBlock: VOLQOD_clean_sbu_1, # of connection points: 6
#     Node 6, Type 0, BuildingBlock: VOLQOD_clean_sbu_1, # of connection points: 6
#     Node 7, Type 0, BuildingBlock: VOLQOD_clean_sbu_1, # of connection points: 6
#     Node 8, Type 0, BuildingBlock: VOLQOD_clean_sbu_1, # of connection points: 6
#     Node 9, Type 0, BuildingBlock: VOLQOD_clean_sbu_1, # of connection points: 6
#     Node 10, Type 0, BuildingBlock: VOLQOD_clean_sbu_1, # of connection points: 6
#     Node 11, Type 0, BuildingBlock: VOLQOD_clean_sbu_1, # of connection points: 6
#     Node 12, Type 0, BuildingBlock: VOLQOD_clean_sbu_1, # of connection points: 6
#     Node 13, Type 0, BuildingBlock: VOLQOD_clean_sbu_1, # of connection points: 6
#     Node 14, Type 0, BuildingBlock: VOLQOD_clean_sbu_1, # of connection points: 6
#     Node 15, Type 0, BuildingBlock: VOLQOD_clean_sbu_1, # of connection points: 6
#     Edge 16, Type (0, 0), BuildingBlock: KIFKEQ_clean_linker_1, # of connection points: 2
#     Edge 17, Type (0, 0), BuildingBlock: KIFKEQ_clean_linker_1, # of connection points: 2
#     Edge 18, Type (0, 0), BuildingBlock: KIFKEQ_clean_linker_1, # of connection points: 2
#     Edge 19, Type (0, 0), BuildingBlock: KIFKEQ_clean_linker_1, # of connection points: 2
#     Edge 20, Type (0, 0), BuildingBlock: KIFKEQ_clean_linker_1, # of connection points: 2
#     Edge 21, Type (0, 0), BuildingBlock: KIFKEQ_clean_linker_1, # of connection points: 2
#     Edge 22, Type (0, 0), BuildingBlock: KIFKEQ_clean_linker_1, # of connection points: 2
#     Edge 23, Type (0, 0), BuildingBlock: KIFKEQ_clean_linker_1, # of connection points: 2
#     Edge 24, Type (0, 0), BuildingBlock: KIFKEQ_clean_linker_1, # of connection points: 2
#     Edge 25, Type (0, 0), BuildingBlock: KIFKEQ_clean_linker_1, # of connection points: 2
#     Edge 26, Type (0, 0), BuildingBlock: KIFKEQ_clean_linker_1, # of connection points: 2
#     Edge 27, Type (0, 0), BuildingBlock: KIFKEQ_clean_linker_1, # of connection points: 2
#     Edge 28, Type (0, 0), BuildingBlock: KIFKEQ_clean_linker_1, # of connection points: 2
#     Edge 29, Type (0, 0), BuildingBlock: KIFKEQ_clean_linker_1, # of connection points: 2
#     Edge 30, Type (0, 0), BuildingBlock: KIFKEQ_clean_linker_1, # of connection points: 2
#     Edge 31, Type (0, 0), BuildingBlock: KIFKEQ_clean_linker_1, # of connection points: 2
#     Edge 32, Type (0, 0), BuildingBlock: KIFKEQ_clean_linker_1, # of connection points: 2
#     Edge 33, Type (0, 0), BuildingBlock: KIFKEQ_clean_linker_1, # of connection points: 2
#     Edge 34, Type (0, 0), BuildingBlock: KIFKEQ_clean_linker_1, # of connection points: 2
#     Edge 35, Type (0, 0), BuildingBlock: KIFKEQ_clean_linker_1, # of connection points: 2
#     Edge 36, Type (0, 0), BuildingBlock: KIFKEQ_clean_linker_1, # of connection points: 2
#     Edge 37, Type (0, 0), BuildingBlock: KIFKEQ_clean_linker_1, # of connection points: 2
#     Edge 38, Type (0, 0), BuildingBlock: KIFKEQ_clean_linker_1, # of connection points: 2
#     Edge 39, Type (0, 0), BuildingBlock: KIFKEQ_clean_linker_1, # of connection points: 2
#     Edge 40, Type (0, 0), BuildingBlock: KIFKEQ_clean_linker_1, # of connection points: 2
#     Edge 41, Type (0, 0), BuildingBlock: KIFKEQ_clean_linker_1, # of connection points: 2
#     Edge 42, Type (0, 0), BuildingBlock: KIFKEQ_clean_linker_1, # of connection points: 2
#     Edge 43, Type (0, 0), BuildingBlock: KIFKEQ_clean_linker_1, # of connection points: 2
#     Edge 44, Type (0, 0), BuildingBlock: KIFKEQ_clean_linker_1, # of connection points: 2
#     Edge 45, Type (0, 0), BuildingBlock: KIFKEQ_clean_linker_1, # of connection points: 2
#     Edge 46, Type (0, 0), BuildingBlock: KIFKEQ_clean_linker_1, # of connection points: 2
#     Edge 47, Type (0, 0), BuildingBlock: KIFKEQ_clean_linker_1, # of connection points: 2
#     Edge 48, Type (0, 0), BuildingBlock: KIFKEQ_clean_linker_1, # of connection points: 2
#     Edge 49, Type (0, 0), BuildingBlock: KIFKEQ_clean_linker_1, # of connection points: 2
#     Edge 50, Type (0, 0), BuildingBlock: KIFKEQ_clean_linker_1, # of connection points: 2
#     Edge 51, Type (0, 0), BuildingBlock: KIFKEQ_clean_linker_1, # of connection points: 2
#     Edge 52, Type (0, 0), BuildingBlock: KIFKEQ_clean_linker_1, # of connection points: 2
#     Edge 53, Type (0, 0), BuildingBlock: KIFKEQ_clean_linker_1, # of connection points: 2
#     Edge 54, Type (0, 0), BuildingBlock: KIFKEQ_clean_linker_1, # of connection points: 2
#     Edge 55, Type (0, 0), BuildingBlock: KIFKEQ_clean_linker_1, # of connection points: 2
#     Edge 56, Type (0, 0), BuildingBlock: KIFKEQ_clean_linker_1, # of connection points: 2
#     Edge 57, Type (0, 0), BuildingBlock: KIFKEQ_clean_linker_1, # of connection points: 2
#     Edge 58, Type (0, 0), BuildingBlock: KIFKEQ_clean_linker_1, # of connection points: 2
#     Edge 59, Type (0, 0), BuildingBlock: KIFKEQ_clean_linker_1, # of connection points: 2
#     Edge 60, Type (0, 0), BuildingBlock: KIFKEQ_clean_linker_1, # of connection points: 2
#     Edge 61, Type (0, 0), BuildingBlock: KIFKEQ_clean_linker_1, # of connection points: 2
#     Edge 62, Type (0, 0), BuildingBlock: KIFKEQ_clean_linker_1, # of connection points: 2
#     Edge 63, Type (0, 0), BuildingBlock: KIFKEQ_clean_linker_1, # of connection points: 2
# Relax obj value: 0.402
# Max RMSD: 0.252
# Mean RMSD: 0.249
data_MOF--net-whp--node1-VOLQOD_clean_sbu_1--edge1-KIFKEQ_clean_linker_1
_symmetry_space_group_name_H-M    P1
_symmetry_Int_Tables_number       1
_symmetry_cell_setting            triclinic
loop_
_symmetry_equiv_pos_as_xyz
'x, y, z'
_cell_length_a     52.752701
_cell_length_b     52.711675
_cell_length_c     29.459683
_cell_angle_alpha  90.008136
_cell_angle_beta   90.218089
_cell_angle_gamma 90.077133
loop_
_atom_site_label
_atom_site_type_symbol
_atom_site_fract_x
_atom_site_fract_y
_atom_site_fract_z
_atom_type_partial_charge
O0 O 0.29924 0.56545 0.3891 0.0
Zn1 Zn 0.28376 0.55707 0.32913 0.0
O2 O 0.28768 0.5217 0.31424 0.0
Zn3 Zn 0.25434 0.50593 0.30435 0.0
Zn4 Zn 0.3053 0.50551 0.3638 0.0
Zn5 Zn 0.30911 0.51897 0.26127 0.0
O6 O 0.25315 0.48977 0.24054 0.0
O7 O 0.28815 0.50615 0.20999 0.0
O8 O 0.24758 0.56725 0.32981 0.0
O9 O 0.22671 0.53288 0.3071 0.0
O10 O 0.24604 0.48196 0.35747 0.0
O11 O 0.28107 0.48522 0.39938 0.0
O12 O 0.33164 0.48173 0.3419 0.0
O13 O 0.30254 0.57915 0.28563 0.0
O14 O 0.33628 0.49276 0.26982 0.0
O15 O 0.32541 0.55245 0.24448 0.0
C16 C 0.31516 0.55383 0.41402 0.0
C17 C 0.26756 0.49364 0.20629 0.0
C18 C 0.25876 0.47677 0.39334 0.0
C19 C 0.22698 0.55607 0.31954 0.0
C20 C 0.34233 0.47904 0.30366 0.0
C21 C 0.31956 0.57497 0.2561 0.0
O22 O 0.32107 0.53084 0.40631 0.0
O23 O 0.91249 0.30007 0.87769 0.0
Zn24 Zn 0.92385 0.28564 0.81846 0.0
O25 O 0.95963 0.29129 0.8077 0.0
Zn26 Zn 0.97735 0.25858 0.79908 0.0
Zn27 Zn 0.97337 0.30936 0.85908 0.0
Zn28 Zn 0.96303 0.31354 0.75566 0.0
O29 O -0.00556 0.25838 0.73578 0.0
O30 O 0.97914 0.29414 0.70601 0.0
O31 O 0.91573 0.249 0.8185 0.0
O32 O 0.95161 0.22937 0.80094 0.0
O33 O 0.00137 0.25176 0.85361 0.0
O34 O -0.00459 0.28673 0.89424 0.0
O35 O -0.00616 0.33932 0.84146 0.0
O36 O 0.90221 0.3034 0.77257 0.0
O37 O 0.98557 0.34348 0.76813 0.0
O38 O 0.92943 0.32727 0.73445 0.0
C39 C 0.92324 0.31491 0.90577 0.0
C40 C -0.00833 0.27363 0.70219 0.0
C41 C 0.00541 0.26503 0.88934 0.0
C42 C 0.92805 0.22877 0.81075 0.0
C43 C -0.00342 0.35102 0.80414 0.0
C44 C 0.90682 0.32054 0.74335 0.0
O45 O 0.94637 0.32116 0.90132 0.0
O46 O 0.17645 0.91084 0.36292 0.0
Zn47 Zn 0.19335 0.92396 0.30692 0.0
O48 O 0.18918 0.96033 0.30084 0.0
Zn49 Zn 0.22236 0.97705 0.29418 0.0
Zn50 Zn 0.17133 0.9731 0.35315 0.0
Zn51 Zn 0.16767 0.96618 0.24878 0.0
O52 O 0.2244 -0.0057 0.2312 0.0
O53 O 0.18837 0.98088 0.19952 0.0
O54 O 0.22971 0.91472 0.31087 0.0
O55 O 0.25055 0.95066 0.29812 0.0
O56 O 0.22912 0.00036 0.34909 0.0
O57 O 0.19427 -0.00563 0.39011 0.0
O58 O 0.14154 -0.00587 0.33641 0.0
O59 O 0.17639 0.90475 0.25647 0.0
O60 O 0.14002 -0.00907 0.26149 0.0
O61 O 0.1508 0.93402 0.22766 0.0
C62 C 0.16271 0.92133 0.39284 0.0
C63 C 0.20955 -0.00763 0.19681 0.0
C64 C 0.21609 0.00416 0.38501 0.0
C65 C 0.25036 0.92691 0.30652 0.0
C66 C 0.13148 -0.00026 0.29852 0.0
C67 C 0.15777 0.91103 0.23133 0.0
O68 O 0.15871 0.9451 0.39246 0.0
O69 O 0.57066 0.17458 0.85143 0.0
Zn70 Zn 0.55833 0.19324 0.79654 0.0
O71 O 0.52196 0.18993 0.7893 0.0
Zn72 Zn 0.50653 0.22371 0.78278 0.0
Zn73 Zn 0.50838 0.17273 0.84188 0.0
Zn74 Zn 0.51564 0.16848 0.73698 0.0
O75 O 0.48848 0.22615 0.72094 0.0
O76 O 0.49824 0.18897 0.68923 0.0
O77 O 0.5687 0.22935 0.80216 0.0
O78 O 0.53375 0.25107 0.78609 0.0
O79 O 0.48371 0.23143 0.83748 0.0
O80 O 0.48889 0.19676 0.87947 0.0
O81 O 0.48517 0.14459 0.82491 0.0
O82 O 0.57734 0.17693 0.74564 0.0
O83 O 0.49213 0.13987 0.75131 0.0
O84 O 0.54792 0.15258 0.71369 0.0
C85 C 0.55978 0.16056 0.88057 0.0
C86 C 0.48771 0.2107 0.68741 0.0
C87 C 0.47979 0.21886 0.87391 0.0
C88 C 0.55728 0.25032 0.79624 0.0
C89 C 0.48121 0.13308 0.78769 0.0
C90 C 0.57098 0.15919 0.71862 0.0
O91 O 0.53584 0.15766 0.88044 0.0
O92 O 0.8052 0.40876 0.15129 0.0
Zn93 Zn 0.78921 0.42296 0.20756 0.0
O94 O 0.79558 0.45905 0.21468 0.0
Zn95 Zn 0.76333 0.47777 0.21653 0.0
Zn96 Zn 0.81567 0.47025 0.16398 0.0
Zn97 Zn 0.81578 0.46435 0.26925 0.0
O98 O 0.76036 0.49623 0.27795 0.0
O99 O 0.79501 0.48296 0.31461 0.0
O100 O 0.75235 0.41531 0.20569 0.0
O101 O 0.73386 0.45297 0.21209 0.0
O102 O 0.75946 0.50058 0.15998 0.0
O103 O 0.79511 0.4918 0.12342 0.0
O104 O 0.84604 0.48981 0.18286 0.0
O105 O 0.80547 0.40312 0.25722 0.0
O106 O 0.84607 0.48633 0.2578 0.0
O107 O 0.82892 0.43116 0.29475 0.0
C108 C 0.82131 0.41822 0.12413 0.0
C109 C 0.77433 0.49539 0.31358 0.0
C110 C 0.77375 0.50283 0.1252 0.0
C111 C 0.73252 0.42894 0.20754 0.0
C112 C 0.85584 0.49459 0.22133 0.0
C113 C 0.82206 0.40837 0.2872 0.0
O114 O 0.82781 0.44137 0.12681 0.0
O115 O 0.0687 0.80324 0.63702 0.0
Zn116 Zn 0.05665 0.78732 0.69464 0.0
O117 O 0.0211 0.79375 0.70601 0.0
Zn118 Zn 0.00232 0.76146 0.71264 0.0
Zn119 Zn 0.0081 0.81336 0.65589 0.0
Zn120 Zn 0.01844 0.81479 0.7597 0.0
O121 O 0.98561 0.76015 0.77636 0.0
O122 O 0.00257 0.79452 0.80847 0.0
O123 O 0.0634 0.75051 0.69054 0.0
O124 O 0.027 0.73154 0.70755 0.0
O125 O 0.97783 0.75676 0.6581 0.0
O126 O 0.98526 0.79207 0.61913 0.0
O127 O 0.989 0.84368 0.67587 0.0
O128 O 0.07881 0.80303 0.7421 0.0
O129 O -0.00426 0.84489 0.75012 0.0
O130 O 0.05257 0.82782 0.78048 0.0
C131 C 0.0584 0.81899 0.61006 0.0
C132 C 0.9893 0.7744 0.81108 0.0
C133 C 0.9744 0.77067 0.62295 0.0
C134 C 0.0504 0.7305 0.69673 0.0
C135 C 0.98578 0.85401 0.71433 0.0
C136 C 0.07491 0.82023 0.77154 0.0
O137 O 0.03538 0.82547 0.61467 0.0
O138 O 0.68084 0.06419 0.1177 0.0
Zn139 Zn 0.69594 0.05556 0.1779 0.0
O140 O 0.68845 0.02175 0.19825 0.0
Zn141 Zn 0.72036 0.00314 0.20817 0.0
Zn142 Zn 0.6688 0.00663 0.15055 0.0
Zn143 Zn 0.66712 0.02275 0.25214 0.0
O144 O 0.71992 0.98739 0.27257 0.0
O145 O 0.68666 0.00716 0.30295 0.0
O146 O 0.7327 0.0623 0.17641 0.0
O147 O 0.75058 0.02769 0.20497 0.0
O148 O 0.72593 0.97807 0.15499 0.0
O149 O 0.6906 0.98396 0.11503 0.0
O150 O 0.6404 0.98662 0.17472 0.0
O151 O 0.6801 0.08045 0.21893 0.0
O152 O 0.63559 0.00079 0.24497 0.0
O153 O 0.65686 0.05891 0.26838 0.0
C154 C 0.66258 0.05399 0.09622 0.0
C155 C 0.70589 -0.00731 0.30677 0.0
C156 C 0.71225 0.97377 0.11979 0.0
C157 C 0.75225 0.05023 0.18931 0.0
C158 C 0.62848 0.98676 0.21206 0.0
C159 C 0.66448 0.07987 0.25161 0.0
O160 O 0.65426 0.03224 0.10741 0.0
O161 O 0.40772 0.67248 0.66151 0.0
Zn162 Zn 0.42058 0.69128 0.71612 0.0
O163 O 0.45701 0.68773 0.72209 0.0
Zn164 Zn 0.47293 0.72134 0.72628 0.0
Zn165 Zn 0.47008 0.66992 0.66995 0.0
Zn166 Zn 0.46354 0.66666 0.77497 0.0
O167 O 0.49077 0.72456 0.78823 0.0
O168 O 0.48058 0.68801 0.82201 0.0
O169 O 0.41021 0.72748 0.7116 0.0
O170 O 0.44618 0.74884 0.72118 0.0
O171 O 0.49553 0.72816 0.67096 0.0
O172 O 0.48898 0.69334 0.62993 0.0
O173 O 0.4939 0.64254 0.68763 0.0
O174 O 0.40201 0.67519 0.76758 0.0
O175 O 0.48779 0.63844 0.76161 0.0
O176 O 0.4313 0.65053 0.79892 0.0
C177 C 0.4183 0.65764 0.63332 0.0
C178 C 0.49121 0.70974 0.8227 0.0
C179 C 0.49857 0.7153 0.63459 0.0
C180 C 0.42231 0.74829 0.71445 0.0
C181 C 0.49861 0.63163 0.72514 0.0
C182 C 0.4083 0.65746 0.79457 0.0
O183 O 0.44215 0.6542 0.63366 0.0
O184 O 0.67826 0.41374 0.63586 0.0
Zn185 Zn 0.69572 0.4239 0.69357 0.0
O186 O 0.6912 0.45946 0.70795 0.0
Zn187 Zn 0.72436 0.47603 0.7154 0.0
Zn188 Zn 0.6725 0.47477 0.65882 0.0
Zn189 Zn 0.67071 0.46235 0.76226 0.0
O190 O 0.7264 0.49324 0.77837 0.0
O191 O 0.69179 0.47749 0.81122 0.0
O192 O 0.7321 0.41485 0.6897 0.0
O193 O 0.75248 0.44961 0.71202 0.0
O194 O 0.73116 0.49944 0.66088 0.0
O195 O 0.69525 0.49606 0.62146 0.0
O196 O 0.64409 0.49587 0.68065 0.0
O197 O 0.67935 0.40192 0.74006 0.0
O198 O 0.64134 0.48615 0.75369 0.0
O199 O 0.65676 0.42839 0.78217 0.0
C200 C 0.66205 0.42539 0.61163 0.0
C201 C 0.71231 0.49021 0.81332 0.0
C202 C 0.71768 0.50455 0.62585 0.0
C203 C 0.75257 0.42648 0.69919 0.0
C204 C 0.63339 0.49809 0.71896 0.0
C205 C 0.66312 0.40595 0.77104 0.0
O206 O 0.65714 0.44868 0.61827 0.0
O207 O 0.06902 0.68642 0.14028 0.0
Zn208 Zn 0.05684 0.69887 0.20068 0.0
O209 O 0.02101 0.69263 0.20976 0.0
Zn210 Zn 0.00219 0.72487 0.21564 0.0
Zn211 Zn 0.0086 0.67361 0.15855 0.0
Zn212 Zn 0.01739 0.67117 0.26281 0.0
O213 O 0.98398 0.72549 0.278 0.0
O214 O 0.0003 0.69103 0.31079 0.0
O215 O 0.06454 0.7354 0.20613 0.0
O216 O 0.02728 0.75451 0.21473 0.0
O217 O 0.97907 0.7305 0.15948 0.0
O218 O 0.98643 0.69506 0.12105 0.0
O219 O 0.98887 0.64318 0.17654 0.0
O220 O 0.07816 0.67998 0.24529 0.0
O221 O -0.00465 0.64097 0.25073 0.0
O222 O 0.0508 0.65753 0.28565 0.0
C223 C 0.05921 0.67051 0.11293 0.0
C224 C 0.98689 0.71106 0.31271 0.0
C225 C 0.97591 0.71662 0.12422 0.0
C226 C 0.05137 0.75537 0.21103 0.0
C227 C 0.98546 0.63233 0.21451 0.0
C228 C 0.07347 0.66349 0.27559 0.0
O229 O 0.03662 0.66262 0.11808 0.0
O230 O 0.79704 0.06979 0.63808 0.0
Zn231 Zn 0.78379 0.05805 0.69806 0.0
O232 O 0.78942 0.02211 0.7072 0.0
Zn233 Zn 0.75686 0.00398 0.71349 0.0
Zn234 Zn 0.80779 0.00907 0.65605 0.0
Zn235 Zn 0.81133 0.01822 0.75969 0.0
O236 O 0.75644 0.98587 0.77604 0.0
O237 O 0.79121 0.00207 0.80838 0.0
O238 O 0.7473 0.06658 0.7023 0.0
O239 O 0.72774 0.02959 0.71219 0.0
O240 O 0.75022 0.98116 0.65735 0.0
O241 O 0.78525 0.98833 0.6178 0.0
O242 O 0.83708 0.98764 0.67402 0.0
O243 O 0.80321 0.07914 0.7425 0.0
O244 O 0.84051 -0.00512 0.7478 0.0
O245 O 0.82646 0.05146 0.78088 0.0
C246 C 0.81316 0.05979 0.61158 0.0
C247 C 0.77101 0.98886 0.81062 0.0
C248 C 0.7635 0.97823 0.62144 0.0
C249 C 0.72716 0.05365 0.70744 0.0
C250 C 0.84818 0.98411 0.71181 0.0
C251 C 0.82048 0.07423 0.77137 0.0
O252 O 0.82042 0.03699 0.61681 0.0
O253 O 0.41199 0.80218 0.14313 0.0
Zn254 Zn 0.42246 0.78782 0.20318 0.0
O255 O 0.45823 0.79289 0.21599 0.0
Zn256 Zn 0.47455 0.75957 0.22336 0.0
Zn257 Zn 0.47285 0.81137 0.16556 0.0
Zn258 Zn 0.46219 0.81382 0.27029 0.0
O259 O 0.49195 0.75765 0.28568 0.0
O260 O 0.47933 0.79356 0.31868 0.0
O261 O 0.41286 0.75138 0.2037 0.0
O262 O 0.4484 0.73113 0.22121 0.0
O263 O 0.49786 0.75268 0.16918 0.0
O264 O 0.49605 0.78904 0.13101 0.0
O265 O 0.49148 0.84234 0.18547 0.0
O266 O 0.40132 0.8062 0.24818 0.0
O267 O 0.48454 0.84414 0.25959 0.0
O268 O 0.42838 0.82728 0.29212 0.0
C269 C 0.42336 0.81658 0.11523 0.0
C270 C 0.49102 0.77244 0.32011 0.0
C271 C 0.50401 0.7664 0.13515 0.0
C272 C 0.4248 0.73093 0.21169 0.0
C273 C 0.4944 0.85312 0.22372 0.0
C274 C 0.40579 0.82183 0.2801 0.0
O275 O 0.44648 0.8226 0.12098 0.0
O276 O 0.17682 0.57776 0.86549 0.0
Zn277 Zn 0.19132 0.56335 0.80798 0.0
O278 O 0.18529 0.52705 0.8029 0.0
Zn279 Zn 0.2178 0.50868 0.80031 0.0
Zn280 Zn 0.16583 0.51608 0.85462 0.0
Zn281 Zn 0.16435 0.52089 0.74963 0.0
O282 O 0.21994 0.48951 0.73939 0.0
O283 O 0.1846 0.50212 0.7041 0.0
O284 O 0.22821 0.57141 0.80627 0.0
O285 O 0.2472 0.53383 0.80311 0.0
O286 O 0.22242 0.4862 0.85708 0.0
O287 O 0.18694 0.49467 0.89441 0.0
O288 O 0.13516 0.49605 0.83791 0.0
O289 O 0.17319 0.5825 0.75925 0.0
O290 O 0.13473 0.49846 0.76292 0.0
O291 O 0.15009 0.5534 0.72366 0.0
C292 C 0.16136 0.5684 0.89398 0.0
C293 C 0.20535 0.4898 0.70452 0.0
C294 C 0.20837 0.48381 0.89213 0.0
C295 C 0.24822 0.55799 0.80519 0.0
C296 C 0.12526 0.49051 0.79983 0.0
C297 C 0.15628 0.57647 0.7303 0.0
O298 O 0.15467 0.54527 0.89197 0.0
O299 O 0.90741 0.17898 0.36979 0.0
Zn300 Zn 0.92008 0.19473 0.31259 0.0
O301 O 0.95615 0.18954 0.30514 0.0
Zn302 Zn 0.97422 0.22213 0.29824 0.0
Zn303 Zn 0.96876 0.17141 0.35711 0.0
Zn304 Zn 0.96067 0.16754 0.25344 0.0
O305 O -0.00862 0.22308 0.23492 0.0
O306 O 0.97591 0.18765 0.20391 0.0
O307 O 0.91214 0.23142 0.31539 0.0
O308 O 0.94862 0.25122 0.30206 0.0
O309 O -0.00182 0.22824 0.35326 0.0
O310 O 0.98952 0.1941 0.39462 0.0
O311 O -0.00923 0.14257 0.34023 0.0
O312 O 0.89945 0.17722 0.26438 0.0
O313 O 0.98474 0.13909 0.26611 0.0
O314 O 0.92784 0.15188 0.23272 0.0
C315 C 0.91752 0.16389 0.39814 0.0
C316 C 0.98844 0.20823 0.20077 0.0
C317 C 0.00064 0.21528 0.38979 0.0
C318 C 0.92492 0.25171 0.31069 0.0
C319 C -0.00482 0.13167 0.30269 0.0
C320 C 0.90497 0.15878 0.23833 0.0
O321 O 0.94089 0.15825 0.39595 0.0
O322 O 0.30783 0.90479 0.85702 0.0
Zn323 Zn 0.28927 0.91876 0.80273 0.0
O324 O 0.29401 0.95511 0.79609 0.0
Zn325 Zn 0.26099 0.97255 0.79385 0.0
Zn326 Zn 0.31391 0.967 0.84685 0.0
Zn327 Zn 0.31383 0.96128 0.7419 0.0
O328 O 0.25733 -0.00883 0.73261 0.0
O329 O 0.29253 0.97932 0.69657 0.0
O330 O 0.2528 0.91015 0.80899 0.0
O331 O 0.23242 0.94656 0.79839 0.0
O332 O 0.2567 -0.00455 0.85026 0.0
O333 O 0.29259 0.98756 0.88727 0.0
O334 O 0.34301 0.98838 0.82823 0.0
O335 O 0.30392 0.89973 0.75026 0.0
O336 O 0.34322 0.98437 0.75344 0.0
O337 O 0.32786 0.92873 0.71636 0.0
C338 C 0.3233 0.91499 0.88478 0.0
C339 C 0.27146 -0.00894 0.69733 0.0
C340 C 0.27099 -0.0019 0.88516 0.0
C341 C 0.2323 0.92272 0.80598 0.0
C342 C 0.35253 -0.00655 0.78979 0.0
C343 C 0.32076 0.90582 0.72144 0.0
O344 O 0.32789 0.93863 0.88354 0.0
O345 O 0.48277 0.27121 0.22104 0.0
Zn346 Zn 0.48782 0.28623 0.28459 0.0
O347 O 0.52381 0.29462 0.2943 0.0
Zn348 Zn 0.53627 0.27856 0.34894 0.0
Zn349 Zn 0.54464 0.28376 0.24412 0.0
Zn350 Zn 0.52784 0.33087 0.29994 0.0
O351 O 0.55508 0.30324 0.38904 0.0
O352 O 0.54261 0.33996 0.35979 0.0
O353 O 0.47368 0.26523 0.33765 0.0
O354 O 0.50734 0.26499 0.38367 0.0
O355 O 0.55858 0.2489 0.33506 0.0
O356 O 0.56503 0.25283 0.26082 0.0
O357 O 0.56932 0.31091 0.22411 0.0
O358 O 0.46709 0.31834 0.2839 0.0
O359 O 0.55295 0.34495 0.25662 0.0
O360 O 0.4955 0.34917 0.29143 0.0
C361 C 0.49806 0.27067 0.18744 0.0
C362 C 0.55441 0.32738 0.38997 0.0
C363 C 0.56857 0.24132 0.29832 0.0
C364 C 0.48422 0.25989 0.37558 0.0
C365 C 0.56924 0.33477 0.23079 0.0
C366 C 0.47278 0.34179 0.28593 0.0
O367 O 0.52154 0.27582 0.19228 0.0
H368 H 0.30659 0.60267 0.4405 0.0
H369 H 0.35354 0.53736 0.46939 0.0
H370 H 0.33098 0.62763 0.49459 0.0
H371 H 0.37766 0.56238 0.52423 0.0
H372 H 0.43408 0.62383 0.56911 0.0
H373 H 0.40786 0.59803 0.51901 0.0
H374 H 0.34045 0.63168 0.57593 0.0
H375 H 0.36662 0.65787 0.62566 0.0
C376 C 0.32191 0.59352 0.45879 0.0
C377 C 0.32825 0.56806 0.45036 0.0
C378 C 0.33579 0.60783 0.48995 0.0
C379 C 0.35632 0.59699 0.51332 0.0
C380 C 0.36216 0.57131 0.50609 0.0
C381 C 0.34823 0.55695 0.47495 0.0
C382 C 0.41367 0.62584 0.57086 0.0
C383 C 0.40244 0.64294 0.60135 0.0
C384 C 0.39866 0.61088 0.54244 0.0
C385 C 0.37213 0.61272 0.54387 0.0
C386 C 0.36088 0.63 0.57393 0.0
C387 C 0.37588 0.64497 0.60242 0.0
H388 H 0.85669 0.43228 0.062 0.0
H389 H 0.81526 0.36701 0.1113 0.0
H390 H 0.88086 0.40502 0.01192 0.0
H391 H 0.83983 0.33964 0.06092 0.0
H392 H 0.87267 0.30843 0.92297 0.0
H393 H 0.84684 0.33214 0.97681 0.0
H394 H 0.91367 0.37154 0.02443 0.0
H395 H 0.9395 0.34818 0.97055 0.0
C396 C 0.85264 0.41213 0.06205 0.0
C397 C 0.83417 0.40179 0.0909 0.0
C398 C 0.86664 0.39651 0.03358 0.0
C399 C 0.86246 0.37023 0.0332 0.0
C400 C 0.8434 0.35988 0.06072 0.0
C401 C 0.82939 0.37554 0.08948 0.0
C402 C 0.88191 0.32193 0.9453 0.0
C403 C 0.90809 0.32669 0.94207 0.0
C404 C 0.86711 0.33541 0.97618 0.0
C405 C 0.87825 0.35389 1.00415 0.0
C406 C 0.90457 0.35772 1.00252 0.0
C407 C 0.91936 0.34424 0.97183 0.0
H408 H 0.04347 0.8554 0.54996 0.0
H409 H 0.10851 0.81092 0.59104 0.0
H410 H 0.06997 0.87911 0.49755 0.0
H411 H 0.13504 0.83495 0.53863 0.0
H412 H 0.1658 0.86983 0.40372 0.0
H413 H 0.14079 0.8434 0.45486 0.0
H414 H 0.10504 0.91045 0.50924 0.0
H415 H 0.12972 0.93688 0.45817 0.0
C416 C 0.06336 0.85054 0.5476 0.0
C417 C 0.07393 0.83143 0.57498 0.0
C418 C 0.07855 0.86423 0.5178 0.0
C419 C 0.10457 0.85906 0.51463 0.0
C420 C 0.115 0.83927 0.54048 0.0
C421 C 0.09981 0.82559 0.5705 0.0
C422 C 0.15277 0.87895 0.42686 0.0
C423 C 0.1496 0.90544 0.42665 0.0
C424 C 0.13851 0.86381 0.45613 0.0
C425 C 0.1208 0.87492 0.48544 0.0
C426 C 0.11824 0.90141 0.48628 0.0
C427 C 0.13253 0.91653 0.45726 0.0
H428 H 0.61147 0.15929 0.88668 0.0
H429 H 0.54354 0.12851 0.94745 0.0
H430 H 0.63728 0.13273 0.93608 0.0
H431 H 0.56945 0.10236 0.99745 0.0
H432 H 0.62181 0.03944 0.04468 0.0
H433 H 0.59755 0.06551 0.99182 0.0
H434 H 0.64867 0.12824 0.01588 0.0
H435 H 0.67323 0.10215 0.06791 0.0
C436 C 0.60203 0.14707 0.91088 0.0
C437 C 0.57542 0.14599 0.91305 0.0
C438 C 0.61685 0.13189 0.93923 0.0
C439 C 0.60538 0.11533 0.97037 0.0
C440 C 0.57881 0.11459 0.97317 0.0
C441 C 0.56398 0.12976 0.9448 0.0
C442 C 0.62805 0.0587 0.0383 0.0
C443 C 0.6494 0.06874 0.06065 0.0
C444 C 0.61403 0.07368 0.00833 0.0
C445 C 0.62106 0.09899 1.00011 0.0
C446 C 0.64288 0.10875 0.02129 0.0
C447 C 0.65691 0.09379 0.05121 0.0
H448 H 0.57748 0.30891 0.4668 0.0
H449 H 0.56548 0.37771 0.38972 0.0
H450 H 0.60375 0.33254 0.52073 0.0
H451 H 0.59227 0.40086 0.44212 0.0
H452 H 0.61913 0.44091 0.56843 0.0
H453 H 0.59245 0.41661 0.51726 0.0
H454 H 0.64443 0.35344 0.5262 0.0
H455 H 0.67078 0.37754 0.57912 0.0
C456 C 0.58043 0.32902 0.4614 0.0
C457 C 0.56927 0.34146 0.42421 0.0
C458 C 0.59563 0.3425 0.49201 0.0
C459 C 0.60008 0.36859 0.4857 0.0
C460 C 0.58885 0.38092 0.44851 0.0
C461 C 0.57352 0.36757 0.41833 0.0
C462 C 0.62502 0.42191 0.55928 0.0
C463 C 0.64713 0.41118 0.57769 0.0
C464 C 0.60972 0.40798 0.52983 0.0
C465 C 0.61632 0.38309 0.5176 0.0
C466 C 0.63862 0.37243 0.53554 0.0
C467 C 0.65383 0.38631 0.56547 0.0
H468 H 0.16683 0.61989 0.90479 0.0
H469 H 0.12851 0.55426 0.96025 0.0
H470 H 0.1428 0.64732 0.95609 0.0
H471 H 0.10484 0.58157 0.01097 0.0
H472 H 0.04409 0.63701 0.04789 0.0
H473 H 0.07068 0.61418 0.99464 0.0
H474 H 0.13634 0.65541 0.04237 0.0
H475 H 0.10969 0.67859 0.096 0.0
C476 C 0.15356 0.6113 0.92819 0.0
C477 C 0.14935 0.58493 0.92808 0.0
C478 C 0.13987 0.62699 0.95745 0.0
C479 C 0.12172 0.61651 0.9867 0.0
C480 C 0.11836 0.59013 0.98795 0.0
C481 C 0.13204 0.5745 0.95905 0.0
C482 C 0.06413 0.64148 0.04684 0.0
C483 C 0.07485 0.65935 0.07667 0.0
C484 C 0.07934 0.62832 0.01646 0.0
C485 C 0.10555 0.63278 0.01514 0.0
C486 C 0.11615 0.65166 0.04293 0.0
C487 C 0.1009 0.66483 0.0736 0.0
H488 H 0.9321 0.12916 0.46158 0.0
H489 H 0.86648 0.16955 0.41086 0.0
H490 H 0.90495 0.10476 0.51183 0.0
H491 H 0.83933 0.1448 0.46107 0.0
H492 H 0.80645 0.11051 0.59554 0.0
H493 H 0.83103 0.13729 0.54434 0.0
H494 H 0.87207 0.07146 0.49773 0.0
H495 H 0.84785 0.0447 0.5489 0.0
C496 C 0.91193 0.13297 0.46134 0.0
C497 C 0.90142 0.15113 0.43193 0.0
C498 C 0.89639 0.11887 0.48988 0.0
C499 C 0.87006 0.12267 0.48967 0.0
C500 C 0.8596 0.14154 0.46178 0.0
C501 C 0.87515 0.15564 0.43304 0.0
C502 C 0.8205 0.1017 0.57396 0.0
C503 C 0.82543 0.07553 0.57664 0.0
C504 C 0.83452 0.11704 0.54468 0.0
C505 C 0.85367 0.10643 0.51781 0.0
C506 C 0.85776 0.08014 0.51892 0.0
C507 C 0.84376 0.06483 0.54801 0.0
H508 H 0.31885 0.86371 0.89886 0.0
H509 H 0.35923 0.93035 0.94546 0.0
H510 H 0.34349 0.83759 0.95152 0.0
H511 H 0.38346 0.90435 0.99789 0.0
H512 H 0.441 0.84905 0.05042 0.0
H513 H 0.4165 0.87103 0.99242 0.0
H514 H 0.34877 0.83201 0.03589 0.0
H515 H 0.37327 0.80968 0.09377 0.0
C516 C 0.33285 0.87279 0.9204 0.0
C517 C 0.33712 0.8991 0.91788 0.0
C518 C 0.34689 0.85785 0.95053 0.0
C519 C 0.36554 0.86894 0.97834 0.0
C520 C 0.36954 0.89524 0.97619 0.0
C521 C 0.35548 0.91015 0.94638 0.0
C522 C 0.42094 0.84492 0.0474 0.0
C523 C 0.40903 0.82784 0.07709 0.0
C524 C 0.40691 0.8576 0.0143 0.0
C525 C 0.38071 0.85344 0.01013 0.0
C526 C 0.36897 0.83549 0.03831 0.0
C527 C 0.383 0.82282 0.07156 0.0
H528 H 0.37519 0.47203 0.23315 0.0
H529 H 0.35173 0.43985 0.36142 0.0
H530 H 0.40578 0.43761 0.224 0.0
H531 H 0.38218 0.40564 0.35203 0.0
H532 H 0.42183 0.33517 0.2977 0.0
H533 H 0.38922 0.36811 0.29805 0.0
H534 H 0.44594 0.42466 0.26747 0.0
H535 H 0.4785 0.39197 0.26711 0.0
C536 C 0.37654 0.45765 0.2593 0.0
C537 C 0.36118 0.45871 0.2981 0.0
C538 C 0.39401 0.43802 0.25404 0.0
C539 C 0.39611 0.419 0.2872 0.0
C540 C 0.38063 0.41993 0.32573 0.0
C541 C 0.36341 0.43966 0.33126 0.0
C542 C 0.42726 0.35459 0.29058 0.0
C543 C 0.4527 0.36106 0.28278 0.0
C544 C 0.40866 0.37338 0.29096 0.0
C545 C 0.41521 0.39882 0.28292 0.0
C546 C 0.44045 0.40514 0.27343 0.0
C547 C 0.45906 0.38645 0.27359 0.0
H548 H 0.02916 0.36712 0.86987 0.0
H549 H 0.00145 0.38577 0.73563 0.0
H550 H 0.05765 0.40317 0.86743 0.0
H551 H 0.02952 0.4226 0.73384 0.0
H552 H 0.09306 0.4794 0.86908 0.0
H553 H 0.05894 0.4483 0.86905 0.0
H554 H 0.07411 0.43135 0.72813 0.0
H555 H 0.10758 0.46318 0.72771 0.0
C556 C 0.02892 0.37912 0.84002 0.0
C557 C 0.01313 0.37354 0.80285 0.0
C558 C 0.04512 0.39995 0.83878 0.0
C559 C 0.04575 0.41585 0.80054 0.0
C560 C 0.02966 0.41053 0.76359 0.0
C561 C 0.01355 0.3895 0.76466 0.0
C562 C 0.08891 0.46922 0.83797 0.0
C563 C 0.10314 0.47348 0.79854 0.0
C564 C 0.06944 0.45134 0.838 0.0
C565 C 0.06407 0.43711 0.79877 0.0
C566 C 0.07762 0.44215 0.75879 0.0
C567 C 0.09689 0.46029 0.75861 0.0
H568 H 0.11382 0.02751 0.22703 0.0
H569 H 0.09964 0.01039 0.36818 0.0
H570 H 0.07914 0.05801 0.22751 0.0
H571 H 0.06437 0.04 0.3682 0.0
H572 H 0.02849 0.11823 0.36892 0.0
H573 H 0.05993 0.08481 0.36661 0.0
H574 H 0.03403 0.06333 0.23252 0.0
H575 H 0.00302 0.09762 0.23414 0.0
C576 C 0.10304 0.03002 0.25793 0.0
C577 C 0.10957 0.01689 0.29772 0.0
C578 C 0.08309 0.04734 0.25814 0.0
C579 C 0.06915 0.05154 0.298 0.0
C580 C 0.07512 0.0376 0.33725 0.0
C581 C 0.09526 0.0206 0.33721 0.0
C582 C 0.02938 0.10631 0.33901 0.0
C583 C 0.01335 0.11056 0.30165 0.0
C584 C 0.0473 0.08702 0.33781 0.0
C585 C 0.04938 0.07134 0.29946 0.0
C586 C 0.03307 0.07532 0.26232 0.0
C587 C 0.01527 0.09485 0.26332 0.0
H588 H 0.36871 0.02035 0.71631 0.0
H589 H 0.38481 0.00638 0.85812 0.0
H590 H 0.40142 0.05301 0.71499 0.0
H591 H 0.4181 0.0383 0.85639 0.0
H592 H 0.44793 0.11915 0.85345 0.0
H593 H 0.41869 0.0836 0.8524 0.0
H594 H 0.4462 0.06171 0.71998 0.0
H595 H 0.47499 0.09795 0.72035 0.0
C596 C 0.37957 0.02395 0.74694 0.0
C597 C 0.37405 0.01111 0.78747 0.0
C598 C 0.39837 0.04256 0.74614 0.0
C599 C 0.41212 0.0484 0.78574 0.0
C600 C 0.4074 0.03463 0.82563 0.0
C601 C 0.38843 0.01627 0.82657 0.0
C602 C 0.4478 0.10674 0.82414 0.0
C603 C 0.46371 0.11134 0.78695 0.0
C604 C 0.43118 0.08624 0.82368 0.0
C605 C 0.43029 0.06975 0.78624 0.0
C606 C 0.4463 0.07426 0.7491 0.0
C607 C 0.4628 0.09495 0.74938 0.0
H608 H 0.97939 0.59951 0.28561 0.0
H609 H 0.95484 0.61391 0.14776 0.0
H610 H 0.95137 0.56268 0.28891 0.0
H611 H 0.9264 0.57789 0.15161 0.0
H612 H 0.89024 0.50254 0.15454 0.0
H613 H 0.92507 0.53281 0.15461 0.0
H614 H 0.90652 0.5544 0.29216 0.0
H615 H 0.8723 0.52328 0.29266 0.0
C616 C 0.96802 0.59482 0.25608 0.0
C617 C 0.96925 0.60961 0.21647 0.0
C618 C 0.95195 0.5738 0.25802 0.0
C619 C 0.93674 0.56734 0.22051 0.0
C620 C 0.93826 0.58201 0.18079 0.0
C621 C 0.95443 0.60282 0.17871 0.0
C622 C 0.89383 0.51355 0.18496 0.0
C623 C 0.87842 0.51088 0.22338 0.0
C624 C 0.91369 0.53093 0.18495 0.0
C625 C 0.91826 0.54629 0.2231 0.0
C626 C 0.90361 0.54271 0.26235 0.0
C627 C 0.88393 0.52501 0.26258 0.0
H628 H 0.95899 0.87072 0.78759 0.0
H629 H 0.97547 0.8877 0.64727 0.0
H630 H 0.92731 0.90442 0.78844 0.0
H631 H 0.9447 0.92197 0.64857 0.0
H632 H 0.86408 0.95163 0.64618 0.0
H633 H 0.89962 0.92265 0.6492 0.0
H634 H 0.91834 0.94926 0.78409 0.0
H635 H 0.88199 0.97787 0.78168 0.0
C636 C 0.95621 0.88204 0.75729 0.0
C637 C 0.9693 0.8764 0.71716 0.0
C638 C 0.93817 0.90139 0.7578 0.0
C639 C 0.93323 0.91558 0.71833 0.0
C640 C 0.94758 0.91092 0.67914 0.0
C641 C 0.96527 0.89138 0.67845 0.0
C642 C 0.8758 0.95142 0.67646 0.0
C643 C 0.87022 0.96701 0.71371 0.0
C644 C 0.89633 0.93493 0.67805 0.0
C645 C 0.91196 0.93383 0.71674 0.0
C646 C 0.90651 0.94955 0.75397 0.0
C647 C 0.88576 0.96596 0.75252 0.0
H648 H 0.52156 0.8711 0.29622 0.0
H649 H 0.50205 0.88743 0.15672 0.0
H650 H 0.55164 0.90647 0.29612 0.0
H651 H 0.53107 0.92327 0.15716 0.0
H652 H 0.61115 0.95314 0.14958 0.0
H653 H 0.5762 0.92394 0.15589 0.0
H654 H 0.55983 0.9523 0.29029 0.0
H655 H 0.59587 0.98157 0.2845 0.0
C656 C 0.52333 0.8826 0.26592 0.0
C657 C 0.50996 0.87627 0.22616 0.0
C658 C 0.5404 0.90292 0.26594 0.0
C659 C 0.54406 0.91735 0.22636 0.0
C660 C 0.52921 0.91206 0.18779 0.0
C661 C 0.51255 0.89158 0.18753 0.0
C662 C 0.60013 0.95341 0.18052 0.0
C663 C 0.60634 0.96977 0.21656 0.0
C664 C 0.57985 0.93673 0.18395 0.0
C665 C 0.56499 0.93603 0.22333 0.0
C666 C 0.57101 0.9524 0.25953 0.0
C667 C 0.59155 0.96918 0.25616 0.0
H668 H 0.533 0.62004 0.6601 0.0
H669 H 0.50654 0.59666 0.79241 0.0
H670 H 0.56419 0.58638 0.66108 0.0
H671 H 0.53736 0.56211 0.79266 0.0
H672 H 0.6164 0.52298 0.79431 0.0
H673 H 0.58244 0.55444 0.79748 0.0
H674 H 0.5664 0.54156 0.65524 0.0
H675 H 0.60086 0.51117 0.65174 0.0
C676 C 0.53366 0.6075 0.68922 0.0
C677 C 0.51728 0.61092 0.72611 0.0
C678 C 0.55145 0.58808 0.68966 0.0
C679 C 0.55304 0.57138 0.72673 0.0
C680 C 0.5367 0.5748 0.76378 0.0
C681 C 0.51901 0.5945 0.76355 0.0
C682 C 0.60542 0.52682 0.76393 0.0
C683 C 0.61144 0.51504 0.72263 0.0
C684 C 0.58593 0.5447 0.76575 0.0
C685 C 0.57201 0.55075 0.72642 0.0
C686 C 0.57725 0.53785 0.68581 0.0
C687 C 0.5969 0.52037 0.68384 0.0
H688 H 0.18113 0.47021 0.96645 0.0
H689 H 0.25762 0.47158 0.91469 0.0
H690 H 0.19713 0.46532 0.04276 0.0
H691 H 0.27384 0.46495 0.99149 0.0
H692 H 0.2902 0.50555 0.12638 0.0
H693 H 0.27773 0.49373 0.05064 0.0
H694 H 0.21733 0.44734 0.10496 0.0
H695 H 0.2293 0.46039 0.18182 0.0
C696 C 0.20144 0.46854 0.97118 0.0
C697 C 0.21813 0.47214 0.93455 0.0
C698 C 0.21067 0.46549 0.01526 0.0
C699 C 0.23688 0.46555 0.02385 0.0
C700 C 0.25352 0.46579 0.98642 0.0
C701 C 0.24425 0.46922 0.94218 0.0
C702 C 0.27435 0.49264 0.1225 0.0
C703 C 0.26053 0.48423 0.1604 0.0
C704 C 0.26737 0.48551 0.07868 0.0
C705 C 0.24648 0.46946 0.07115 0.0
C706 C 0.23329 0.46005 0.10922 0.0
C707 C 0.24014 0.46749 0.15337 0.0
H708 H 0.02612 0.23655 0.67763 0.0
H709 H 0.98004 0.297 0.62273 0.0
H710 H 0.03969 0.22562 0.60076 0.0
H711 H -0.00791 0.2854 0.54705 0.0
H712 H 0.01139 0.26523 0.41052 0.0
H713 H 0.01905 0.28195 0.48667 0.0
H714 H 0.02325 0.20529 0.53866 0.0
H715 H 0.01765 0.189 0.46292 0.0
C716 C 0.01894 0.24751 0.64928 0.0
C717 C 0.00177 0.26744 0.65649 0.0
C718 C 0.02663 0.24125 0.60508 0.0
C719 C 0.01693 0.25445 0.56706 0.0
C720 C 0.00056 0.275 0.57488 0.0
C721 C -0.00671 0.28148 0.61875 0.0
C722 C 0.01504 0.25206 0.43799 0.0
C723 C 0.01316 0.22582 0.43086 0.0
C724 C 0.01901 0.26159 0.48193 0.0
C725 C 0.02069 0.24504 0.51959 0.0
C726 C 0.02191 0.21883 0.51116 0.0
C727 C 0.01844 0.2094 0.46737 0.0
H728 H 0.22239 0.01356 0.90583 0.0
H729 H 0.29831 0.0096 0.96091 0.0
H730 H 0.20609 0.02215 0.98171 0.0
H731 H 0.28212 0.01617 0.03626 0.0
H732 H 0.25031 0.02281 0.17391 0.0
H733 H 0.26338 0.03534 0.09755 0.0
H734 H 0.19886 -0.0048 0.04146 0.0
H735 H 0.18532 0.98421 0.11663 0.0
C736 C 0.23566 0.01502 0.93387 0.0
C737 C 0.26154 0.01013 0.9274 0.0
C738 C 0.22631 0.0196 0.9776 0.0
C739 C 0.2426 0.0189 0.01576 0.0
C740 C 0.2688 0.01681 0.00826 0.0
C741 C 0.27813 0.01273 0.96467 0.0
C742 C 0.23878 0.01709 0.14517 0.0
C743 C 0.21698 0.00221 0.15152 0.0
C744 C 0.24628 0.02418 0.10128 0.0
C745 C 0.23236 0.01616 0.06279 0.0
C746 C 0.20995 0.00229 0.06973 0.0
C747 C 0.20231 -0.0044 0.1133 0.0
H748 H 0.4888 0.21254 0.40823 0.0
H749 H 0.45046 0.28354 0.43027 0.0
H750 H 0.48024 0.2 0.48598 0.0
H751 H 0.44148 0.27106 0.50875 0.0
H752 H 0.48247 0.25832 0.6509 0.0
H753 H 0.47084 0.26845 0.57262 0.0
H754 H 0.45321 0.18952 0.54813 0.0
H755 H 0.46566 0.17939 0.62565 0.0
C756 C 0.47725 0.22483 0.42916 0.0
C757 C 0.46993 0.24876 0.41326 0.0
C758 C 0.47242 0.21776 0.47395 0.0
C759 C 0.46042 0.23468 0.50398 0.0
C760 C 0.45102 0.25773 0.48669 0.0
C761 C 0.45574 0.26471 0.44159 0.0
C762 C 0.4755 0.24329 0.62907 0.0
C763 C 0.4755 0.21802 0.64404 0.0
C764 C 0.46868 0.24908 0.58421 0.0
C765 C 0.46148 0.2297 0.55375 0.0
C766 C 0.45921 0.20481 0.57029 0.0
C767 C 0.46632 0.19901 0.61476 0.0
H768 H 0.80445 0.5165 0.37826 0.0
H769 H 0.7261 0.50123 0.34576 0.0
H770 H 0.79255 0.52895 0.45484 0.0
H771 H 0.71413 0.51241 0.42303 0.0
H772 H 0.6943 0.53341 0.56157 0.0
H773 H 0.70897 0.54039 0.48423 0.0
H774 H 0.7809 0.50621 0.51941 0.0
H775 H 0.76652 0.5004 0.59694 0.0
C776 C 0.78458 0.51615 0.38743 0.0
C777 C 0.7662 0.50764 0.35627 0.0
C778 C 0.77777 0.52311 0.43146 0.0
C779 C 0.75244 0.52124 0.44575 0.0
C780 C 0.73382 0.51438 0.41343 0.0
C781 C 0.74063 0.50785 0.36902 0.0
C782 C 0.71361 0.52831 0.55307 0.0
C783 C 0.72921 0.51617 0.58517 0.0
C784 C 0.72191 0.53199 0.50855 0.0
C785 C 0.74587 0.52323 0.49493 0.0
C786 C 0.76235 0.51335 0.52836 0.0
C787 C 0.75415 0.51004 0.5731 0.0
H788 H 0.95472 0.73695 0.83424 0.0
H789 H 0.00059 0.79706 0.8914 0.0
H790 H 0.94041 0.72571 0.91062 0.0
H791 H 0.98763 0.78529 0.96648 0.0
H792 H 0.96517 0.76628 0.10173 0.0
H793 H 0.95899 0.78243 0.02485 0.0
H794 H 0.95609 0.70546 0.97413 0.0
H795 H 0.96029 0.68965 0.05057 0.0
C796 C 0.9617 0.74777 0.86293 0.0
C797 C 0.979 0.76773 0.85649 0.0
C798 C 0.95355 0.74134 0.90684 0.0
C799 C 0.96281 0.75451 0.94529 0.0
C800 C 0.97945 0.77496 0.93825 0.0
C801 C 0.98725 0.78153 0.89472 0.0
C802 C 0.96213 0.75289 0.07436 0.0
C803 C 0.96399 0.7267 0.08219 0.0
C804 C 0.959 0.7621 0.03001 0.0
C805 C 0.95815 0.7453 0.99263 0.0
C806 C 0.95685 0.71914 1.00148 0.0
C807 C 0.95949 0.71 0.04569 0.0
H808 H 0.68439 0.00685 0.38656 0.0
H809 H 0.74079 0.95608 0.33186 0.0
H810 H 0.69554 -0.00584 0.46247 0.0
H811 H 0.75133 0.94219 0.4089 0.0
H812 H 0.78922 0.96114 0.54783 0.0
H813 H 0.77297 0.95775 0.4714 0.0
H814 H 0.69654 0.96564 0.5221 0.0
H815 H 0.71325 0.97076 0.59898 0.0
C816 C 0.69893 -0.00747 0.39063 0.0
C817 C 0.71193 0.98277 0.35284 0.0
C818 C 0.70513 0.98493 0.43459 0.0
C819 C 0.72437 0.96702 0.44243 0.0
C820 C 0.73666 0.95632 0.40446 0.0
C821 C 0.73063 0.96424 0.36018 0.0
C822 C 0.76886 0.96156 0.54294 0.0
C823 C 0.75259 0.96701 0.57944 0.0
C824 C 0.75945 0.95942 0.49877 0.0
C825 C 0.73341 0.96227 0.48993 0.0
C826 C 0.71682 0.96433 0.52729 0.0
C827 C 0.72633 0.96685 0.57162 0.0
H828 H 0.50006 0.71736 0.10663 0.0
H829 H 0.53243 0.78976 0.07029 0.0
H830 H 0.50471 0.70296 0.02888 0.0
H831 H 0.53816 0.77507 0.99258 0.0
H832 H 0.49628 0.75795 0.85626 0.0
H833 H 0.50858 0.76985 0.9332 0.0
H834 H 0.52641 0.69151 0.96295 0.0
H835 H 0.51295 0.67964 0.88675 0.0
C836 C 0.50934 0.72977 0.08252 0.0
C837 C 0.51553 0.75481 0.09444 0.0
C838 C 0.51197 0.72156 0.03763 0.0
C839 C 0.52121 0.7381 1.00387 0.0
C840 C 0.53021 0.7621 0.01723 0.0
C841 C 0.52726 0.77041 0.06196 0.0
C842 C 0.50332 0.74341 0.87901 0.0
C843 C 0.50324 0.71785 0.86578 0.0
C844 C 0.51054 0.75019 0.92318 0.0
C845 C 0.51821 0.73158 0.95481 0.0
C846 C 0.52001 0.70628 0.94009 0.0
C847 C 0.5124 0.69948 0.89629 0.0
H848 H 0.68915 0.48171 0.89415 0.0
H849 H 0.75206 0.52238 0.83492 0.0
H850 H 0.70257 0.49443 0.96881 0.0
H851 H 0.76503 0.53644 0.9107 0.0
H852 H 0.80102 0.51418 0.04962 0.0
H853 H 0.7847 0.5188 0.97352 0.0
H854 H 0.70849 0.52355 0.02647 0.0
H855 H 0.72495 0.51709 0.10312 0.0
C856 C 0.70566 0.49386 0.89692 0.0
C857 C 0.71976 0.50065 0.85831 0.0
C858 C 0.71321 0.50153 0.94014 0.0
C859 C 0.73498 0.51655 0.94637 0.0
C860 C 0.7484 0.52452 0.9075 0.0
C861 C 0.74096 0.51652 0.86395 0.0
C862 C 0.78078 0.51673 0.0453 0.0
C863 C 0.76421 0.51437 0.08245 0.0
C864 C 0.77137 0.51963 1.0013 0.0
C865 C 0.74512 0.52071 0.99327 0.0
C866 C 0.72878 0.52177 0.03109 0.0
C867 C 0.73821 0.51843 0.07525 0.0
H868 H -0.00432 0.68753 0.39322 0.0
H869 H 0.95294 0.74925 0.33428 0.0
H870 H 0.98237 0.69988 0.46774 0.0
H871 H 0.93811 0.76103 0.41 0.0
H872 H 0.95917 0.79747 0.54887 0.0
H873 H 0.95402 0.7811 0.47307 0.0
H874 H 0.95426 0.70456 0.52606 0.0
H875 H 0.96152 0.72122 0.60229 0.0
C876 C 0.98291 0.70352 0.396 0.0
C877 C 0.97578 0.71767 0.3575 0.0
C878 C 0.97488 0.71044 0.43922 0.0
C879 C 0.95909 0.73159 0.44562 0.0
C880 C 0.95067 0.74493 0.40678 0.0
C881 C 0.95909 0.73816 0.36322 0.0
C882 C 0.95759 0.77711 0.54464 0.0
C883 C 0.96175 0.76063 0.58155 0.0
C884 C 0.95439 0.76764 0.50078 0.0
C885 C 0.95472 0.74137 0.49269 0.0
C886 C 0.95508 0.72493 0.53058 0.0
C887 C 0.95882 0.73445 0.57457 0.0
H888 H 0.76217 0.96318 0.09991 0.0
H889 H 0.68613 0.95612 0.04655 0.0
H890 H 0.77904 0.95668 0.02384 0.0
H891 H 0.70261 0.95174 0.9708 0.0
H892 H 0.73457 0.95295 0.83198 0.0
H893 H 0.72358 0.93735 0.90766 0.0
H894 H 0.78163 0.98559 0.96595 0.0
H895 H 0.79323 -0.00024 0.89151 0.0
C896 C 0.74907 0.95956 0.07226 0.0
C897 C 0.72281 0.96105 0.07911 0.0
C898 C 0.75869 0.95626 0.02835 0.0
C899 C 0.74223 0.95494 0.99047 0.0
C900 C 0.71606 0.95296 0.99853 0.0
C901 C 0.70652 0.95569 0.04234 0.0
C902 C 0.74512 0.95987 0.86107 0.0
C903 C 0.76457 0.97782 0.85554 0.0
C904 C 0.73884 0.95097 0.90457 0.0
C905 C 0.75161 0.96016 0.9435 0.0
C906 C 0.77163 0.97742 0.93732 0.0
C907 C 0.77809 0.98594 0.89418 0.0
H908 H 0.49676 0.72436 0.35335 0.0
H909 H 0.50973 0.80304 0.38665 0.0
H910 H 0.50683 0.71247 0.43114 0.0
H911 H 0.52115 0.79121 0.46394 0.0
H912 H 0.49332 0.76406 0.60563 0.0
H913 H 0.49882 0.77883 0.52812 0.0
H914 H 0.53406 0.70746 0.49286 0.0
H915 H 0.52715 0.69237 0.57001 0.0
C916 C 0.50258 0.73902 0.37698 0.0
C917 C 0.5021 0.76462 0.36413 0.0
C918 C 0.50851 0.73224 0.42172 0.0
C919 C 0.51453 0.75091 0.45441 0.0
C920 C 0.51596 0.77635 0.44028 0.0
C921 C 0.50958 0.78314 0.39583 0.0
C922 C 0.50306 0.75192 0.5817 0.0
C923 C 0.50959 0.72703 0.59366 0.0
C924 C 0.50621 0.76033 0.537 0.0
C925 C 0.51637 0.74413 0.50357 0.0
C926 C 0.52542 0.72019 0.51712 0.0
C927 C 0.5218 0.71164 0.56153 0.0
H928 H 0.25297 0.48198 0.67053 0.0
H929 H 0.17373 0.46868 0.64227 0.0
H930 H 0.26344 0.46917 0.5933 0.0
H931 H 0.18412 0.45487 0.56574 0.0
H932 H 0.21018 0.48283 0.4223 0.0
H933 H 0.19604 0.4775 0.50017 0.0
H934 H 0.26624 0.43936 0.53329 0.0
H935 H 0.28064 0.44567 0.45559 0.0
C936 C 0.23791 0.47549 0.64827 0.0
C937 C 0.21255 0.47674 0.66209 0.0
C938 C 0.24385 0.46802 0.60393 0.0
C939 C 0.22454 0.46132 0.57282 0.0
C940 C 0.1994 0.46049 0.58825 0.0
C941 C 0.19346 0.46829 0.63222 0.0
C942 C 0.22209 0.47234 0.4457 0.0
C943 C 0.24659 0.46494 0.43309 0.0
C944 C 0.21407 0.46933 0.49061 0.0
C945 C 0.23031 0.45857 0.52353 0.0
C946 C 0.25357 0.44841 0.50927 0.0
C947 C 0.26168 0.4517 0.46458 0.0
H948 H 0.02556 0.24318 0.17818 0.0
H949 H 0.97487 0.18737 0.12023 0.0
H950 H 0.04109 0.25324 0.10201 0.0
H951 H 0.98907 0.19805 0.04531 0.0
H952 H 0.01298 0.21471 0.91084 0.0
H953 H 0.01823 0.19814 0.98763 0.0
H954 H 0.02792 0.27464 0.03806 0.0
H955 H 0.0247 0.29068 0.96162 0.0
C956 C 0.01774 0.23311 0.1493 0.0
C957 C -0.00114 0.21462 0.15542 0.0
C958 C 0.02661 0.23882 0.10555 0.0
C959 C 0.01648 0.22645 0.06695 0.0
C960 C -0.00198 0.2076 0.07368 0.0
C961 C 0.98951 0.20168 0.11707 0.0
C962 C 0.01741 0.2278 0.93808 0.0
C963 C 0.0176 0.25405 0.9303 0.0
C964 C 0.01997 0.21839 0.98239 0.0
C965 C 0.02225 0.23511 0.01971 0.0
C966 C 0.02591 0.26103 0.01077 0.0
C967 C 0.02388 0.27032 0.96658 0.0
H968 H 0.19253 0.03262 0.4491 0.0
H969 H 0.26498 0.00033 0.41424 0.0
H970 H 0.20683 0.0386 0.52713 0.0
H971 H 0.27905 0.00521 0.49242 0.0
H972 H 0.30164 0.01366 0.63492 0.0
H973 H 0.2901 0.02729 0.55867 0.0
H974 H 0.21173 0.00903 0.58654 0.0
H975 H 0.22331 -0.00346 0.66358 0.0
C976 C 0.21184 0.02757 0.45787 0.0
C977 C 0.2276 0.01584 0.42573 0.0
C978 C 0.21992 0.03065 0.50276 0.0
C979 C 0.24383 0.02173 0.51663 0.0
C980 C 0.26052 0.01243 0.48323 0.0
C981 C 0.25253 0.00969 0.43813 0.0
C982 C 0.28184 0.01313 0.62499 0.0
C983 C 0.26338 0.00375 0.65493 0.0
C984 C 0.27525 0.0208 0.58115 0.0
C985 C 0.25006 0.01885 0.56586 0.0
C986 C 0.23131 0.01109 0.59702 0.0
C987 C 0.2379 0.00379 0.64126 0.0
H988 H 0.45572 0.19591 0.9443 0.0
H989 H 0.4801 0.26929 0.89598 0.0
H990 H 0.45283 0.21255 0.0211 0.0
H991 H 0.47679 0.28612 0.97301 0.0
H992 H 0.52225 0.28136 0.10869 0.0
H993 H 0.50811 0.27379 0.03181 0.0
H994 H 0.43793 0.24234 0.08187 0.0
H995 H 0.45223 0.25007 0.16019 0.0
C996 C 0.45942 0.21591 0.94979 0.0
C997 C 0.46873 0.23116 0.91435 0.0
C998 C 0.45766 0.22547 0.99386 0.0
C999 C 0.46525 0.25045 1.00328 0.0
C1000 C 0.47131 0.26661 0.9668 0.0
C1001 C 0.47298 0.25705 0.92258 0.0
C1002 C 0.50372 0.27291 0.10365 0.0
C1003 C 0.48852 0.26599 0.14077 0.0
C1004 C 0.49542 0.26896 0.05933 0.0
C1005 C 0.47174 0.25778 0.05062 0.0
C1006 C 0.45623 0.25112 0.08758 0.0
C1007 C 0.46446 0.25543 0.13233 0.0
H1008 H 0.17945 0.54211 0.29007 0.0
H1009 H 0.22047 0.60329 0.3551 0.0
H1010 H 0.1412 0.56826 0.28913 0.0
H1011 H 0.18234 0.62901 0.35482 0.0
H1012 H 0.12331 0.67669 0.27536 0.0
H1013 H 0.15931 0.64984 0.29336 0.0
H1014 H 0.10854 0.59017 0.33621 0.0
H1015 H 0.07221 0.6171 0.31757 0.0
C1016 C 0.18024 0.56095 0.30465 0.0
C1017 C 0.20312 0.57074 0.32195 0.0
C1018 C 0.1583 0.57586 0.30445 0.0
C1019 C 0.15885 0.60076 0.32161 0.0
C1020 C 0.18143 0.61005 0.34071 0.0
C1021 C 0.20329 0.59526 0.34082 0.0
C1022 C 0.11977 0.65803 0.2894 0.0
C1023 C 0.09491 0.64897 0.29476 0.0
C1024 C 0.14043 0.64266 0.29992 0.0
C1025 C 0.13675 0.61782 0.31591 0.0
C1026 C 0.11191 0.60914 0.32343 0.0
C1027 C 0.09115 0.62465 0.3132 0.0
H1028 H 0.80762 0.12413 0.7731 0.0
H1029 H 0.86836 0.07269 0.80805 0.0
H1030 H 0.83508 0.16002 0.78909 0.0
H1031 H 0.89597 0.10894 0.8247 0.0
H1032 H 0.8823 0.22056 0.85001 0.0
H1033 H 0.85722 0.182 0.85003 0.0
H1034 H 0.91671 0.14295 0.778 0.0
H1035 H 0.94234 0.18178 0.77872 0.0
C1036 C 0.82671 0.12048 0.78511 0.0
C1037 C 0.83581 0.09556 0.78919 0.0
C1038 C 0.84246 0.14108 0.79444 0.0
C1039 C 0.86776 0.13732 0.80798 0.0
C1040 C 0.87664 0.1124 0.81388 0.0
C1041 C 0.86074 0.09168 0.80485 0.0
C1042 C 0.89021 0.20376 0.83435 0.0
C1043 C 0.91418 0.20438 0.8136 0.0
C1044 C 0.87577 0.18164 0.83441 0.0
C1045 C 0.88481 0.15953 0.8135 0.0
C1046 C 0.9093 0.15968 0.79462 0.0
C1047 C 0.9239 0.18193 0.79476 0.0
H1048 H 0.25666 0.88055 0.34525 0.0
H1049 H 0.29846 0.94155 0.28198 0.0
H1050 H 0.29522 0.85572 0.35103 0.0
H1051 H 0.33719 0.91618 0.28671 0.0
H1052 H 0.40616 0.86868 0.32062 0.0
H1053 H 0.36922 0.89539 0.3361 0.0
H1054 H 0.31983 0.83417 0.29423 0.0
H1055 H 0.35637 0.80761 0.27967 0.0
C1056 C 0.27411 0.88869 0.33252 0.0
C1057 C 0.27441 0.91287 0.31234 0.0
C1058 C 0.29623 0.87443 0.33593 0.0
C1059 C 0.3192 0.88384 0.31888 0.0
C1060 C 0.31981 0.90849 0.30053 0.0
C1061 C 0.29761 0.92293 0.29743 0.0
C1062 C 0.38737 0.86076 0.31602 0.0
C1063 C 0.38413 0.83611 0.29869 0.0
C1064 C 0.36626 0.87614 0.32436 0.0
C1065 C 0.34163 0.86698 0.316 0.0
C1066 C 0.3385 0.84178 0.30145 0.0
C1067 C 0.35948 0.82655 0.29289 0.0
H1068 H 0.54315 0.2988 0.77318 0.0
H1069 H 0.60448 0.25565 0.83273 0.0
H1070 H 0.56902 0.33721 0.77797 0.0
H1071 H 0.62989 0.29396 0.8385 0.0
H1072 H 0.67737 0.35645 0.76835 0.0
H1073 H 0.651 0.31961 0.7824 0.0
H1074 H 0.59036 0.3683 0.828 0.0
H1075 H 0.61681 0.40552 0.81303 0.0
C1076 C 0.56198 0.29756 0.78779 0.0
C1077 C 0.5719 0.27409 0.80179 0.0
C1078 C 0.57672 0.3196 0.79093 0.0
C1079 C 0.60158 0.31857 0.80834 0.0
C1080 C 0.61098 0.2953 0.82421 0.0
C1081 C 0.59638 0.27333 0.82084 0.0
C1082 C 0.65861 0.35934 0.78225 0.0
C1083 C 0.6491 0.38391 0.78918 0.0
C1084 C 0.64349 0.33818 0.79052 0.0
C1085 C 0.61848 0.34104 0.80593 0.0
C1086 C 0.60945 0.36554 0.81552 0.0
C1087 C 0.62469 0.38682 0.80743 0.0
H1088 H 0.68609 0.45081 0.19215 0.0
H1089 H 0.72254 0.37839 0.21378 0.0
H1090 H 0.64513 0.42943 0.18586 0.0
H1091 H 0.68181 0.35726 0.20921 0.0
H1092 H 0.60902 0.32057 0.17665 0.0
H1093 H 0.64748 0.34487 0.16181 0.0
H1094 H 0.61614 0.40869 0.23465 0.0
H1095 H 0.57755 0.38497 0.24769 0.0
C1096 C 0.68535 0.43037 0.19574 0.0
C1097 C 0.70754 0.41633 0.20373 0.0
C1098 C 0.6619 0.41811 0.19213 0.0
C1099 C 0.66014 0.39159 0.19686 0.0
C1100 C 0.68244 0.37762 0.20433 0.0
C1101 C 0.70583 0.38981 0.2075 0.0
C1102 C 0.61013 0.33999 0.18852 0.0
C1103 C 0.59036 0.35065 0.21397 0.0
C1104 C 0.63225 0.35387 0.18036 0.0
C1105 C 0.63513 0.37857 0.19785 0.0
C1106 C 0.61461 0.3898 0.22042 0.0
C1107 C 0.59245 0.37606 0.22817 0.0
H1108 H 0.03665 0.68368 0.73008 0.0
H1109 H 0.09335 0.7216 0.6491 0.0
H1110 H 0.06158 0.64452 0.72685 0.0
H1111 H 0.11771 0.68266 0.64501 0.0
H1112 H 0.17006 0.62578 0.71977 0.0
H1113 H 0.1425 0.66138 0.70295 0.0
H1114 H 0.08001 0.60989 0.67945 0.0
H1115 H 0.10777 0.57397 0.69693 0.0
C1116 C 0.05414 0.68352 0.71095 0.0
C1117 C 0.06331 0.70584 0.69074 0.0
C1118 C 0.06834 0.66109 0.70882 0.0
C1119 C 0.0918 0.66062 0.68615 0.0
C1120 C 0.10001 0.68254 0.66353 0.0
C1121 C 0.08602 0.70487 0.66595 0.0
C1122 C 0.15061 0.62196 0.70999 0.0
C1123 C 0.14108 0.59708 0.70991 0.0
C1124 C 0.13478 0.64238 0.70019 0.0
C1125 C 0.10899 0.63846 0.6902 0.0
C1126 C 0.09973 0.61348 0.68755 0.0
C1127 C 0.1157 0.59293 0.69702 0.0
H1128 H 0.79763 0.03701 0.22951 0.0
H1129 H 0.76268 0.09395 0.14424 0.0
H1130 H 0.83633 0.06276 0.233 0.0
H1131 H 0.80108 0.11926 0.14757 0.0
H1132 H 0.85506 0.17143 0.23033 0.0
H1133 H 0.81986 0.14339 0.2117 0.0
H1134 H 0.87227 0.0821 0.18698 0.0
H1135 H 0.90771 0.11022 0.20575 0.0
C1136 C 0.79833 0.05473 0.21095 0.0
C1137 C 0.77692 0.06361 0.18731 0.0
C1138 C 0.82049 0.06942 0.21279 0.0
C1139 C 0.82154 0.09317 0.191 0.0
C1140 C 0.80064 0.10127 0.16535 0.0
C1141 C 0.77864 0.08669 0.16349 0.0
C1142 C 0.85916 0.15212 0.22013 0.0
C1143 C 0.88417 0.14306 0.21961 0.0
C1144 C 0.83899 0.13605 0.20935 0.0
C1145 C 0.84334 0.11051 0.19811 0.0
C1146 C 0.86839 0.10164 0.19593 0.0
C1147 C 0.88865 0.11783 0.20624 0.0
H1148 H 0.30359 0.86063 0.68894 0.0
H1149 H 0.37175 0.90415 0.71173 0.0
H1150 H 0.32893 0.82268 0.67651 0.0
H1151 H 0.39712 0.86608 0.70305 0.0
H1152 H 0.43936 0.79315 0.67922 0.0
H1153 H 0.41488 0.83179 0.66623 0.0
H1154 H 0.34917 0.79569 0.72583 0.0
H1155 H 0.37318 0.75697 0.73578 0.0
C1156 C 0.32407 0.8621 0.69032 0.0
C1157 C 0.33575 0.88518 0.70146 0.0
C1158 C 0.33863 0.84031 0.68399 0.0
C1159 C 0.36511 0.84099 0.69038 0.0
C1160 C 0.37686 0.86465 0.69771 0.0
C1161 C 0.36231 0.88659 0.70267 0.0
C1162 C 0.41965 0.79363 0.68939 0.0
C1163 C 0.40814 0.77215 0.7086 0.0
C1164 C 0.40558 0.81575 0.68198 0.0
C1165 C 0.37987 0.81699 0.69456 0.0
C1166 C 0.36861 0.79541 0.71424 0.0
C1167 C 0.38248 0.77322 0.72063 0.0
H1168 H 0.90787 0.367 0.70172 0.0
H1169 H 0.85701 0.30698 0.74298 0.0
H1170 H 0.87146 0.39366 0.68256 0.0
H1171 H 0.8209 0.33358 0.72437 0.0
H1172 H 0.79992 0.44095 0.72871 0.0
H1173 H 0.83843 0.41518 0.72956 0.0
H1174 H 0.79815 0.35442 0.66221 0.0
H1175 H 0.75976 0.37978 0.66195 0.0
C1176 C 0.88897 0.3593 0.70581 0.0
C1177 C 0.8853 0.33493 0.72413 0.0
C1178 C 0.86816 0.37466 0.69524 0.0
C1179 C 0.84337 0.36578 0.70229 0.0
C1180 C 0.83977 0.34091 0.71818 0.0
C1181 C 0.86049 0.32568 0.72905 0.0
C1182 C 0.79939 0.42221 0.71365 0.0
C1183 C 0.77667 0.41228 0.696 0.0
C1184 C 0.82147 0.40753 0.71384 0.0
C1185 C 0.8212 0.3827 0.6963 0.0
C1186 C 0.79881 0.37332 0.67664 0.0
C1187 C 0.77682 0.3879 0.67653 0.0
H1188 H 0.17228 0.86469 0.20046 0.0
H1189 H 0.10639 0.91127 0.22383 0.0
H1190 H 0.14505 0.82796 0.18837 0.0
H1191 H 0.07909 0.87428 0.21475 0.0
H1192 H 0.03516 0.80161 0.17934 0.0
H1193 H 0.06043 0.84053 0.17324 0.0
H1194 H 0.12308 0.8026 0.23971 0.0
H1195 H 0.09844 0.76394 0.24353 0.0
C1196 C 0.15191 0.86709 0.20226 0.0
C1197 C 0.14143 0.89068 0.2134 0.0
C1198 C 0.13628 0.84603 0.19596 0.0
C1199 C 0.10988 0.84794 0.20212 0.0
C1200 C 0.09929 0.87203 0.20974 0.0
C1201 C 0.11494 0.89327 0.21493 0.0
C1202 C 0.0543 0.80182 0.19278 0.0
C1203 C 0.06494 0.7798 0.21163 0.0
C1204 C 0.06881 0.82404 0.18922 0.0
C1205 C 0.09405 0.82461 0.20505 0.0
C1206 C 0.10412 0.80271 0.22551 0.0
C1207 C 0.08987 0.78057 0.22831 0.0
H1208 H 0.68111 0.03682 0.67584 0.0
H1209 H 0.71849 0.10159 0.73587 0.0
H1210 H 0.64228 0.06179 0.66695 0.0
H1211 H 0.67982 0.126 0.72951 0.0
H1212 H 0.61719 0.174 0.6878 0.0
H1213 H 0.65422 0.14707 0.67786 0.0
H1214 H 0.60823 0.08082 0.70513 0.0
H1215 H 0.571 0.10779 0.71183 0.0
C1216 C 0.68084 0.05625 0.68781 0.0
C1217 C 0.70278 0.06733 0.70635 0.0
C1218 C 0.65865 0.0706 0.68267 0.0
C1219 C 0.65793 0.09617 0.69665 0.0
C1220 C 0.67977 0.10675 0.71669 0.0
C1221 C 0.70193 0.09263 0.72099 0.0
C1222 C 0.61493 0.1536 0.69005 0.0
C1223 C 0.59134 0.14297 0.70072 0.0
C1224 C 0.63619 0.13814 0.68512 0.0
C1225 C 0.63448 0.11176 0.69228 0.0
C1226 C 0.61039 0.10098 0.69935 0.0
C1227 C 0.58897 0.11645 0.7031 0.0
H1228 H 0.37699 0.72338 0.17931 0.0
H1229 H 0.44035 0.68363 0.23966 0.0
H1230 H 0.35204 0.68468 0.18094 0.0
H1231 H 0.41495 0.64478 0.24208 0.0
H1232 H 0.36607 0.57467 0.2145 0.0
H1233 H 0.39254 0.61153 0.19661 0.0
H1234 H 0.33296 0.66124 0.24304 0.0
H1235 H 0.3066 0.62479 0.26017 0.0
C1236 C 0.38565 0.70636 0.19289 0.0
C1237 C 0.41057 0.70671 0.21004 0.0
C1238 C 0.3713 0.68417 0.19381 0.0
C1239 C 0.38141 0.66176 0.21209 0.0
C1240 C 0.4067 0.66173 0.22748 0.0
C1241 C 0.42117 0.68402 0.2264 0.0
C1242 C 0.35848 0.5935 0.21998 0.0
C1243 C 0.33427 0.59682 0.23889 0.0
C1244 C 0.37372 0.61457 0.21015 0.0
C1245 C 0.36488 0.63927 0.21859 0.0
C1246 C 0.34026 0.64249 0.23565 0.0
C1247 C 0.32517 0.62155 0.24571 0.0
H1248 H 0.40619 0.60602 0.79938 0.0
H1249 H 0.36359 0.67374 0.82928 0.0
H1250 H 0.36783 0.58058 0.80702 0.0
H1251 H 0.3255 0.64832 0.84 0.0
H1252 H 0.25861 0.60646 0.78071 0.0
H1253 H 0.29827 0.62925 0.78807 0.0
H1254 H 0.33339 0.56258 0.84625 0.0
H1255 H 0.29357 0.53929 0.8366 0.0
C1256 C 0.38881 0.61529 0.80965 0.0
C1257 C 0.38772 0.64182 0.81341 0.0
C1258 C 0.36674 0.60072 0.81392 0.0
C1259 C 0.34331 0.61243 0.82283 0.0
C1260 C 0.34297 0.63872 0.83138 0.0
C1261 C 0.36485 0.6533 0.82601 0.0
C1262 C 0.2748 0.59662 0.79499 0.0
C1263 C 0.27297 0.57109 0.80805 0.0
C1264 C 0.29756 0.60981 0.79982 0.0
C1265 C 0.31907 0.598 0.81869 0.0
C1266 C 0.3173 0.5723 0.83142 0.0
C1267 C 0.29451 0.55892 0.82586 0.0
H1268 H 0.80653 0.35947 0.29505 0.0
H1269 H 0.87023 0.40881 0.3225 0.0
H1270 H 0.83295 0.32272 0.30904 0.0
H1271 H 0.89681 0.37171 0.33758 0.0
H1272 H 0.9393 0.2993 0.28214 0.0
H1273 H 0.91483 0.33858 0.28841 0.0
H1274 H 0.85679 0.29841 0.36265 0.0
H1275 H 0.88063 0.25933 0.35513 0.0
C1276 C 0.82604 0.36247 0.3054 0.0
C1277 C 0.83633 0.38702 0.30731 0.0
C1278 C 0.84122 0.34136 0.3136 0.0
C1279 C 0.8671 0.34426 0.32397 0.0
C1280 C 0.87703 0.36888 0.32898 0.0
C1281 C 0.86172 0.39012 0.32095 0.0
C1282 C 0.92141 0.29898 0.30005 0.0
C1283 C 0.91164 0.27613 0.31721 0.0
C1284 C 0.90749 0.3215 0.30403 0.0
C1285 C 0.88372 0.32155 0.32565 0.0
C1286 C 0.87475 0.29893 0.34496 0.0
C1287 C 0.88844 0.2765 0.34056 0.0
H1288 H 0.12428 0.80539 0.76952 0.0
H1289 H 0.07579 0.86631 0.81484 0.0
H1290 H 0.16134 0.83104 0.78611 0.0
H1291 H 0.11321 0.89198 0.83237 0.0
H1292 H 0.18432 0.93859 0.78315 0.0
H1293 H 0.1453 0.91352 0.78534 0.0
H1294 H 0.18661 0.85089 0.84442 0.0
H1295 H 0.22549 0.87551 0.84119 0.0
C1296 C 0.12153 0.82406 0.78404 0.0
C1297 C 0.09706 0.83387 0.79047 0.0
C1298 C 0.14283 0.83876 0.79378 0.0
C1299 C 0.14022 0.86365 0.81024 0.0
C1300 C 0.11579 0.87299 0.81913 0.0
C1301 C 0.09439 0.85819 0.80953 0.0
C1302 C 0.18497 0.91957 0.79702 0.0
C1303 C 0.20807 0.90889 0.81118 0.0
C1304 C 0.1626 0.90527 0.79861 0.0
C1305 C 0.16294 0.88012 0.81465 0.0
C1306 C 0.18581 0.87002 0.83105 0.0
C1307 C 0.2081 0.88418 0.82918 0.0
H1308 H 0.66411 0.1235 0.20365 0.0
H1309 H 0.63842 0.09117 0.33022 0.0
H1310 H 0.64259 0.1624 0.22048 0.0
H1311 H 0.61782 0.13145 0.34902 0.0
H1312 H 0.55785 0.1955 0.33589 0.0
H1313 H 0.58303 0.15676 0.33059 0.0
H1314 H 0.64191 0.19887 0.26142 0.0
H1315 H 0.61556 0.23668 0.26333 0.0
C1316 C 0.65436 0.12493 0.23585 0.0
C1317 C 0.65305 0.10419 0.26569 0.0
C1318 C 0.6421 0.14753 0.24578 0.0
C1319 C 0.62859 0.15043 0.28646 0.0
C1320 C 0.62778 0.12987 0.31709 0.0
C1321 C 0.63972 0.10685 0.30657 0.0
C1322 C 0.57623 0.19625 0.31964 0.0
C1323 C 0.5847 0.21871 0.29916 0.0
C1324 C 0.59081 0.17416 0.31698 0.0
C1325 C 0.61443 0.17441 0.29484 0.0
C1326 C 0.62346 0.19757 0.2772 0.0
C1327 C 0.60851 0.21933 0.27849 0.0
loop_
_geom_bond_atom_site_label_1
_geom_bond_atom_site_label_2
_geom_bond_distance
_geom_bond_site_symmetry_2
_ccdc_geom_bond_type
O0 Zn1 1.953 . S
O0 C16 1.225 . S
Zn1 O0 1.953 . S
Zn1 O2 1.949 . S
Zn1 O8 1.919 . S
Zn1 O13 1.924 . S
O2 Zn1 1.949 . S
O2 Zn3 1.923 . S
O2 Zn4 1.950 . S
O2 Zn5 1.945 . S
Zn3 O2 1.923 . S
Zn3 O6 1.933 . S
Zn3 O9 1.941 . S
Zn3 O10 1.965 . S
Zn4 O2 1.950 . S
Zn4 O11 1.938 . S
Zn4 O12 1.906 . S
Zn4 O22 1.953 . S
Zn5 O2 1.945 . S
Zn5 O7 1.932 . S
Zn5 O14 1.977 . S
Zn5 O15 1.910 . S
O6 Zn3 1.933 . S
O6 C17 1.226 . S
O7 Zn5 1.932 . S
O7 C17 1.307 . S
O8 Zn1 1.919 . S
O8 C19 1.253 . S
O9 Zn3 1.941 . S
O9 C19 1.283 . S
O10 Zn3 1.965 . S
O10 C18 1.303 . S
O11 Zn4 1.938 . S
O11 C18 1.247 . S
O12 Zn4 1.906 . S
O12 C20 1.304 . S
O13 Zn1 1.924 . S
O13 C21 1.311 . S
O14 Zn5 1.977 . S
O14 C20 1.272 . S
O15 Zn5 1.910 . S
O15 C21 1.231 . S
C16 O0 1.225 . S
C16 O22 1.298 . S
C17 O6 1.226 . S
C17 O7 1.307 . S
C18 O10 1.303 . S
C18 O11 1.247 . S
C19 O8 1.253 . S
C19 O9 1.283 . S
C20 O12 1.304 . S
C20 O14 1.272 . S
C21 O13 1.311 . S
C21 O15 1.231 . S
O22 Zn4 1.953 . S
O22 C16 1.298 . S
O23 Zn24 1.953 . S
O23 C39 1.225 . S
Zn24 O23 1.953 . S
Zn24 O25 1.949 . S
Zn24 O31 1.919 . S
Zn24 O36 1.924 . S
O25 Zn24 1.949 . S
O25 Zn26 1.923 . S
O25 Zn27 1.950 . S
O25 Zn28 1.945 . S
Zn26 O25 1.923 . S
Zn26 O29 1.933 . S
Zn26 O32 1.941 . S
Zn26 O33 1.965 1_655 S
Zn27 O25 1.950 . S
Zn27 O34 1.945 . S
Zn27 O35 1.906 1_655 S
Zn27 O45 1.953 . S
Zn28 O25 1.945 . S
Zn28 O30 1.932 . S
Zn28 O37 1.977 . S
Zn28 O38 1.910 . S
O29 Zn26 1.933 . S
O29 C40 1.226 . S
O30 Zn28 1.932 . S
O30 C40 1.307 . S
O31 Zn24 1.919 . S
O31 C42 1.253 . S
O32 Zn26 1.941 . S
O32 C42 1.283 . S
O33 Zn26 1.965 1_455 S
O33 C41 1.303 . S
O34 Zn27 1.945 . S
O34 C41 1.245 1_655 S
O35 Zn27 1.906 1_455 S
O35 C43 1.304 . S
O36 Zn24 1.924 . S
O36 C44 1.311 . S
O37 Zn28 1.977 . S
O37 C43 1.272 1_655 S
O38 Zn28 1.910 . S
O38 C44 1.231 . S
C39 O23 1.225 . S
C39 O45 1.298 . S
C40 O29 1.226 . S
C40 O30 1.307 . S
C41 O33 1.303 . S
C41 O34 1.245 1_455 S
C42 O31 1.253 . S
C42 O32 1.283 . S
C43 O35 1.304 . S
C43 O37 1.272 1_455 S
C44 O36 1.311 . S
C44 O38 1.231 . S
O45 Zn27 1.953 . S
O45 C39 1.298 . S
O46 Zn47 1.953 . S
O46 C62 1.225 . S
Zn47 O46 1.953 . S
Zn47 O48 1.949 . S
Zn47 O54 1.919 . S
Zn47 O59 1.924 . S
O48 Zn47 1.949 . S
O48 Zn49 1.923 . S
O48 Zn50 1.950 . S
O48 Zn51 1.945 . S
Zn49 O48 1.923 . S
Zn49 O52 1.933 . S
Zn49 O55 1.941 . S
Zn49 O56 1.965 1_565 S
Zn50 O48 1.950 . S
Zn50 O57 1.940 . S
Zn50 O58 1.906 1_565 S
Zn50 O68 1.953 . S
Zn51 O48 1.945 . S
Zn51 O53 1.932 . S
Zn51 O60 2.005 . S
Zn51 O61 1.910 . S
O52 Zn49 1.933 . S
O52 C63 1.226 . S
O53 Zn51 1.932 . S
O53 C63 1.307 . S
O54 Zn47 1.919 . S
O54 C65 1.253 . S
O55 Zn49 1.941 . S
O55 C65 1.283 . S
O56 Zn49 1.965 1_545 S
O56 C64 1.303 . S
O57 Zn50 1.940 . S
O57 C64 1.246 1_565 S
O58 Zn50 1.906 1_545 S
O58 C66 1.304 . S
O59 Zn47 1.924 . S
O59 C67 1.311 . S
O60 Zn51 2.005 . S
O60 C66 1.246 1_565 S
O61 Zn51 1.910 . S
O61 C67 1.231 . S
C62 O46 1.225 . S
C62 O68 1.298 . S
C63 O52 1.226 . S
C63 O53 1.307 . S
C64 O56 1.303 . S
C64 O57 1.246 1_545 S
C65 O54 1.253 . S
C65 O55 1.283 . S
C66 O58 1.304 . S
C66 O60 1.246 1_545 S
C67 O59 1.311 . S
C67 O61 1.231 . S
O68 Zn50 1.953 . S
O68 C62 1.298 . S
O69 Zn70 1.953 . S
O69 C85 1.225 . S
Zn70 O69 1.953 . S
Zn70 O71 1.949 . S
Zn70 O77 1.919 . S
Zn70 O82 1.924 . S
O71 Zn70 1.949 . S
O71 Zn72 1.923 . S
O71 Zn73 1.950 . S
O71 Zn74 1.945 . S
Zn72 O71 1.923 . S
Zn72 O75 1.933 . S
Zn72 O78 1.941 . S
Zn72 O79 1.965 . S
Zn73 O71 1.950 . S
Zn73 O80 1.938 . S
Zn73 O81 1.906 . S
Zn73 O91 1.953 . S
Zn74 O71 1.945 . S
Zn74 O76 1.932 . S
Zn74 O83 1.977 . S
Zn74 O84 1.910 . S
O75 Zn72 1.933 . S
O75 C86 1.226 . S
O76 Zn74 1.932 . S
O76 C86 1.307 . S
O77 Zn70 1.919 . S
O77 C88 1.253 . S
O78 Zn72 1.941 . S
O78 C88 1.283 . S
O79 Zn72 1.965 . S
O79 C87 1.303 . S
O80 Zn73 1.938 . S
O80 C87 1.247 . S
O81 Zn73 1.906 . S
O81 C89 1.304 . S
O82 Zn70 1.924 . S
O82 C90 1.311 . S
O83 Zn74 1.977 . S
O83 C89 1.272 . S
O84 Zn74 1.910 . S
O84 C90 1.231 . S
C85 O69 1.225 . S
C85 O91 1.298 . S
C86 O75 1.226 . S
C86 O76 1.307 . S
C87 O79 1.303 . S
C87 O80 1.247 . S
C88 O77 1.253 . S
C88 O78 1.283 . S
C89 O81 1.304 . S
C89 O83 1.272 . S
C90 O82 1.311 . S
C90 O84 1.231 . S
O91 Zn73 1.953 . S
O91 C85 1.298 . S
O92 Zn93 1.953 . S
O92 C108 1.225 . S
Zn93 O92 1.953 . S
Zn93 O94 1.949 . S
Zn93 O100 1.919 . S
Zn93 O105 1.924 . S
O94 Zn93 1.949 . S
O94 Zn95 1.923 . S
O94 Zn96 1.950 . S
O94 Zn97 1.945 . S
Zn95 O94 1.923 . S
Zn95 O98 1.933 . S
Zn95 O101 1.941 . S
Zn95 O102 1.965 . S
Zn96 O94 1.950 . S
Zn96 O103 1.938 . S
Zn96 O104 1.906 . S
Zn96 O114 1.953 . S
Zn97 O94 1.945 . S
Zn97 O99 1.932 . S
Zn97 O106 1.977 . S
Zn97 O107 1.910 . S
O98 Zn95 1.933 . S
O98 C109 1.226 . S
O99 Zn97 1.932 . S
O99 C109 1.307 . S
O100 Zn93 1.919 . S
O100 C111 1.253 . S
O101 Zn95 1.941 . S
O101 C111 1.283 . S
O102 Zn95 1.965 . S
O102 C110 1.303 . S
O103 Zn96 1.938 . S
O103 C110 1.247 . S
O104 Zn96 1.906 . S
O104 C112 1.304 . S
O105 Zn93 1.924 . S
O105 C113 1.311 . S
O106 Zn97 1.977 . S
O106 C112 1.272 . S
O107 Zn97 1.910 . S
O107 C113 1.231 . S
C108 O92 1.225 . S
C108 O114 1.298 . S
C109 O98 1.226 . S
C109 O99 1.307 . S
C110 O102 1.303 . S
C110 O103 1.247 . S
C111 O100 1.253 . S
C111 O101 1.283 . S
C112 O104 1.304 . S
C112 O106 1.272 . S
C113 O105 1.311 . S
C113 O107 1.231 . S
O114 Zn96 1.953 . S
O114 C108 1.298 . S
O115 Zn116 1.953 . S
O115 C131 1.225 . S
Zn116 O115 1.953 . S
Zn116 O117 1.949 . S
Zn116 O123 1.919 . S
Zn116 O128 1.924 . S
O117 Zn116 1.949 . S
O117 Zn118 1.923 . S
O117 Zn119 1.950 . S
O117 Zn120 1.945 . S
Zn118 O117 1.923 . S
Zn118 O121 1.933 . S
Zn118 O124 1.941 . S
Zn118 O125 1.965 1_455 S
Zn119 O117 1.950 . S
Zn119 O126 1.937 . S
Zn119 O127 1.906 1_455 S
Zn119 O137 1.953 . S
Zn120 O117 1.945 . S
Zn120 O122 1.932 . S
Zn120 O129 1.999 . S
Zn120 O130 1.910 . S
O121 Zn118 1.933 . S
O121 C132 1.226 . S
O122 Zn120 1.932 . S
O122 C132 1.307 . S
O123 Zn116 1.919 . S
O123 C134 1.253 . S
O124 Zn118 1.941 . S
O124 C134 1.283 . S
O125 Zn118 1.965 1_655 S
O125 C133 1.303 . S
O126 Zn119 1.937 . S
O126 C133 1.247 1_455 S
O127 Zn119 1.906 1_655 S
O127 C135 1.304 . S
O128 Zn116 1.924 . S
O128 C136 1.311 . S
O129 Zn120 1.999 . S
O129 C135 1.251 1_455 S
O130 Zn120 1.910 . S
O130 C136 1.231 . S
C131 O115 1.225 . S
C131 O137 1.298 . S
C132 O121 1.226 . S
C132 O122 1.307 . S
C133 O125 1.303 . S
C133 O126 1.247 1_655 S
C134 O123 1.253 . S
C134 O124 1.283 . S
C135 O127 1.304 . S
C135 O129 1.251 1_655 S
C136 O128 1.311 . S
C136 O130 1.231 . S
O137 Zn119 1.953 . S
O137 C131 1.298 . S
O138 Zn139 1.953 . S
O138 C154 1.225 . S
Zn139 O138 1.953 . S
Zn139 O140 1.949 . S
Zn139 O146 1.919 . S
Zn139 O151 1.924 . S
O140 Zn139 1.949 . S
O140 Zn141 1.923 . S
O140 Zn142 1.950 . S
O140 Zn143 1.945 . S
Zn141 O140 1.923 . S
Zn141 O144 1.933 . S
Zn141 O147 1.941 . S
Zn141 O148 1.965 1_545 S
Zn142 O140 1.950 . S
Zn142 O149 1.946 . S
Zn142 O150 1.906 1_545 S
Zn142 O160 1.953 . S
Zn143 O140 1.945 . S
Zn143 O145 1.932 . S
Zn143 O152 1.977 . S
Zn143 O153 1.910 . S
O144 Zn141 1.933 . S
O144 C155 1.226 . S
O145 Zn143 1.932 . S
O145 C155 1.307 . S
O146 Zn139 1.919 . S
O146 C157 1.253 . S
O147 Zn141 1.941 . S
O147 C157 1.283 . S
O148 Zn141 1.965 1_565 S
O148 C156 1.303 . S
O149 Zn142 1.946 . S
O149 C156 1.245 1_545 S
O150 Zn142 1.906 1_565 S
O150 C158 1.304 . S
O151 Zn139 1.924 . S
O151 C159 1.311 . S
O152 Zn143 1.977 . S
O152 C158 1.272 1_545 S
O153 Zn143 1.910 . S
O153 C159 1.231 . S
C154 O138 1.225 . S
C154 O160 1.298 . S
C155 O144 1.226 . S
C155 O145 1.307 . S
C156 O148 1.303 . S
C156 O149 1.245 1_565 S
C157 O146 1.253 . S
C157 O147 1.283 . S
C158 O150 1.304 . S
C158 O152 1.272 1_565 S
C159 O151 1.311 . S
C159 O153 1.231 . S
O160 Zn142 1.953 . S
O160 C154 1.298 . S
O161 Zn162 1.953 . S
O161 C177 1.225 . S
Zn162 O161 1.953 . S
Zn162 O163 1.949 . S
Zn162 O169 1.919 . S
Zn162 O174 1.924 . S
O163 Zn162 1.949 . S
O163 Zn164 1.923 . S
O163 Zn165 1.950 . S
O163 Zn166 1.945 . S
Zn164 O163 1.923 . S
Zn164 O167 1.933 . S
Zn164 O170 1.941 . S
Zn164 O171 1.965 . S
Zn165 O163 1.950 . S
Zn165 O172 1.938 . S
Zn165 O173 1.906 . S
Zn165 O183 1.953 . S
Zn166 O163 1.945 . S
Zn166 O168 1.932 . S
Zn166 O175 1.977 . S
Zn166 O176 1.910 . S
O167 Zn164 1.933 . S
O167 C178 1.226 . S
O168 Zn166 1.932 . S
O168 C178 1.307 . S
O169 Zn162 1.919 . S
O169 C180 1.253 . S
O170 Zn164 1.941 . S
O170 C180 1.283 . S
O171 Zn164 1.965 . S
O171 C179 1.303 . S
O172 Zn165 1.938 . S
O172 C179 1.247 . S
O173 Zn165 1.906 . S
O173 C181 1.304 . S
O174 Zn162 1.924 . S
O174 C182 1.311 . S
O175 Zn166 1.977 . S
O175 C181 1.272 . S
O176 Zn166 1.910 . S
O176 C182 1.231 . S
C177 O161 1.225 . S
C177 O183 1.298 . S
C178 O167 1.226 . S
C178 O168 1.307 . S
C179 O171 1.303 . S
C179 O172 1.247 . S
C180 O169 1.253 . S
C180 O170 1.283 . S
C181 O173 1.304 . S
C181 O175 1.272 . S
C182 O174 1.311 . S
C182 O176 1.231 . S
O183 Zn165 1.953 . S
O183 C177 1.298 . S
O184 Zn185 1.953 . S
O184 C200 1.225 . S
Zn185 O184 1.953 . S
Zn185 O186 1.949 . S
Zn185 O192 1.919 . S
Zn185 O197 1.924 . S
O186 Zn185 1.949 . S
O186 Zn187 1.923 . S
O186 Zn188 1.950 . S
O186 Zn189 1.945 . S
Zn187 O186 1.923 . S
Zn187 O190 1.933 . S
Zn187 O193 1.941 . S
Zn187 O194 1.965 . S
Zn188 O186 1.950 . S
Zn188 O195 1.938 . S
Zn188 O196 1.906 . S
Zn188 O206 1.953 . S
Zn189 O186 1.945 . S
Zn189 O191 1.932 . S
Zn189 O198 1.977 . S
Zn189 O199 1.910 . S
O190 Zn187 1.933 . S
O190 C201 1.226 . S
O191 Zn189 1.932 . S
O191 C201 1.307 . S
O192 Zn185 1.919 . S
O192 C203 1.253 . S
O193 Zn187 1.941 . S
O193 C203 1.283 . S
O194 Zn187 1.965 . S
O194 C202 1.303 . S
O195 Zn188 1.938 . S
O195 C202 1.247 . S
O196 Zn188 1.906 . S
O196 C204 1.304 . S
O197 Zn185 1.924 . S
O197 C205 1.311 . S
O198 Zn189 1.977 . S
O198 C204 1.272 . S
O199 Zn189 1.910 . S
O199 C205 1.231 . S
C200 O184 1.225 . S
C200 O206 1.298 . S
C201 O190 1.226 . S
C201 O191 1.307 . S
C202 O194 1.303 . S
C202 O195 1.247 . S
C203 O192 1.253 . S
C203 O193 1.283 . S
C204 O196 1.304 . S
C204 O198 1.272 . S
C205 O197 1.311 . S
C205 O199 1.231 . S
O206 Zn188 1.953 . S
O206 C200 1.298 . S
O207 Zn208 1.953 . S
O207 C223 1.225 . S
Zn208 O207 1.953 . S
Zn208 O209 1.949 . S
Zn208 O215 1.919 . S
Zn208 O220 1.924 . S
O209 Zn208 1.949 . S
O209 Zn210 1.923 . S
O209 Zn211 1.950 . S
O209 Zn212 1.945 . S
Zn210 O209 1.923 . S
Zn210 O213 1.933 . S
Zn210 O216 1.941 . S
Zn210 O217 1.965 1_455 S
Zn211 O209 1.950 . S
Zn211 O218 1.942 . S
Zn211 O219 1.906 1_455 S
Zn211 O229 1.953 . S
Zn212 O209 1.945 . S
Zn212 O214 1.932 . S
Zn212 O221 1.977 . S
Zn212 O222 1.910 . S
O213 Zn210 1.933 . S
O213 C224 1.226 . S
O214 Zn212 1.932 . S
O214 C224 1.307 . S
O215 Zn208 1.919 . S
O215 C226 1.253 . S
O216 Zn210 1.941 . S
O216 C226 1.283 . S
O217 Zn210 1.965 1_655 S
O217 C225 1.303 . S
O218 Zn211 1.942 . S
O218 C225 1.246 1_455 S
O219 Zn211 1.906 1_655 S
O219 C227 1.304 . S
O220 Zn208 1.924 . S
O220 C228 1.311 . S
O221 Zn212 1.977 . S
O221 C227 1.272 1_455 S
O222 Zn212 1.910 . S
O222 C228 1.231 . S
C223 O207 1.225 . S
C223 O229 1.298 . S
C224 O213 1.226 . S
C224 O214 1.307 . S
C225 O217 1.303 . S
C225 O218 1.246 1_655 S
C226 O215 1.253 . S
C226 O216 1.283 . S
C227 O219 1.304 . S
C227 O221 1.272 1_655 S
C228 O220 1.311 . S
C228 O222 1.231 . S
O229 Zn211 1.953 . S
O229 C223 1.298 . S
O230 Zn231 1.953 . S
O230 C246 1.225 . S
Zn231 O230 1.953 . S
Zn231 O232 1.949 . S
Zn231 O238 1.919 . S
Zn231 O243 1.924 . S
O232 Zn231 1.949 . S
O232 Zn233 1.923 . S
O232 Zn234 1.950 . S
O232 Zn235 1.945 . S
Zn233 O232 1.923 . S
Zn233 O236 1.933 . S
Zn233 O239 1.941 . S
Zn233 O240 1.965 1_545 S
Zn234 O232 1.950 . S
Zn234 O241 1.950 . S
Zn234 O242 1.906 1_545 S
Zn234 O252 1.953 . S
Zn235 O232 1.945 . S
Zn235 O237 1.932 . S
Zn235 O244 1.977 . S
Zn235 O245 1.910 . S
O236 Zn233 1.933 . S
O236 C247 1.226 . S
O237 Zn235 1.932 . S
O237 C247 1.307 . S
O238 Zn231 1.919 . S
O238 C249 1.253 . S
O239 Zn233 1.941 . S
O239 C249 1.283 . S
O240 Zn233 1.965 1_565 S
O240 C248 1.303 . S
O241 Zn234 1.950 . S
O241 C248 1.244 1_545 S
O242 Zn234 1.906 1_565 S
O242 C250 1.304 . S
O243 Zn231 1.924 . S
O243 C251 1.311 . S
O244 Zn235 1.977 . S
O244 C250 1.272 1_545 S
O245 Zn235 1.910 . S
O245 C251 1.231 . S
C246 O230 1.225 . S
C246 O252 1.298 . S
C247 O236 1.226 . S
C247 O237 1.307 . S
C248 O240 1.303 . S
C248 O241 1.244 1_565 S
C249 O238 1.253 . S
C249 O239 1.283 . S
C250 O242 1.304 . S
C250 O244 1.272 1_565 S
C251 O243 1.311 . S
C251 O245 1.231 . S
O252 Zn234 1.953 . S
O252 C246 1.298 . S
O253 Zn254 1.953 . S
O253 C269 1.225 . S
Zn254 O253 1.953 . S
Zn254 O255 1.949 . S
Zn254 O261 1.919 . S
Zn254 O266 1.924 . S
O255 Zn254 1.949 . S
O255 Zn256 1.923 . S
O255 Zn257 1.950 . S
O255 Zn258 1.945 . S
Zn256 O255 1.923 . S
Zn256 O259 1.933 . S
Zn256 O262 1.941 . S
Zn256 O263 1.965 . S
Zn257 O255 1.950 . S
Zn257 O264 1.938 . S
Zn257 O265 1.906 . S
Zn257 O275 1.953 . S
Zn258 O255 1.945 . S
Zn258 O260 1.932 . S
Zn258 O267 1.977 . S
Zn258 O268 1.910 . S
O259 Zn256 1.933 . S
O259 C270 1.226 . S
O260 Zn258 1.932 . S
O260 C270 1.307 . S
O261 Zn254 1.919 . S
O261 C272 1.253 . S
O262 Zn256 1.941 . S
O262 C272 1.283 . S
O263 Zn256 1.965 . S
O263 C271 1.303 . S
O264 Zn257 1.938 . S
O264 C271 1.247 . S
O265 Zn257 1.906 . S
O265 C273 1.304 . S
O266 Zn254 1.924 . S
O266 C274 1.311 . S
O267 Zn258 1.977 . S
O267 C273 1.272 . S
O268 Zn258 1.910 . S
O268 C274 1.231 . S
C269 O253 1.225 . S
C269 O275 1.298 . S
C270 O259 1.226 . S
C270 O260 1.307 . S
C271 O263 1.303 . S
C271 O264 1.247 . S
C272 O261 1.253 . S
C272 O262 1.283 . S
C273 O265 1.304 . S
C273 O267 1.272 . S
C274 O266 1.311 . S
C274 O268 1.231 . S
O275 Zn257 1.953 . S
O275 C269 1.298 . S
O276 Zn277 1.953 . S
O276 C292 1.225 . S
Zn277 O276 1.953 . S
Zn277 O278 1.949 . S
Zn277 O284 1.919 . S
Zn277 O289 1.924 . S
O278 Zn277 1.949 . S
O278 Zn279 1.923 . S
O278 Zn280 1.950 . S
O278 Zn281 1.945 . S
Zn279 O278 1.923 . S
Zn279 O282 1.933 . S
Zn279 O285 1.941 . S
Zn279 O286 1.965 . S
Zn280 O278 1.950 . S
Zn280 O287 1.938 . S
Zn280 O288 1.906 . S
Zn280 O298 1.953 . S
Zn281 O278 1.945 . S
Zn281 O283 1.932 . S
Zn281 O290 1.977 . S
Zn281 O291 1.910 . S
O282 Zn279 1.933 . S
O282 C293 1.226 . S
O283 Zn281 1.932 . S
O283 C293 1.307 . S
O284 Zn277 1.919 . S
O284 C295 1.253 . S
O285 Zn279 1.941 . S
O285 C295 1.283 . S
O286 Zn279 1.965 . S
O286 C294 1.303 . S
O287 Zn280 1.938 . S
O287 C294 1.247 . S
O288 Zn280 1.906 . S
O288 C296 1.304 . S
O289 Zn277 1.924 . S
O289 C297 1.311 . S
O290 Zn281 1.977 . S
O290 C296 1.272 . S
O291 Zn281 1.910 . S
O291 C297 1.231 . S
C292 O276 1.225 . S
C292 O298 1.298 . S
C293 O282 1.226 . S
C293 O283 1.307 . S
C294 O286 1.303 . S
C294 O287 1.247 . S
C295 O284 1.253 . S
C295 O285 1.283 . S
C296 O288 1.304 . S
C296 O290 1.272 . S
C297 O289 1.311 . S
C297 O291 1.231 . S
O298 Zn280 1.953 . S
O298 C292 1.298 . S
O299 Zn300 1.953 . S
O299 C315 1.225 . S
Zn300 O299 1.953 . S
Zn300 O301 1.949 . S
Zn300 O307 1.919 . S
Zn300 O312 1.924 . S
O301 Zn300 1.949 . S
O301 Zn302 1.923 . S
O301 Zn303 1.950 . S
O301 Zn304 1.945 . S
Zn302 O301 1.923 . S
Zn302 O305 1.933 . S
Zn302 O308 1.941 . S
Zn302 O309 1.965 1_655 S
Zn303 O301 1.950 . S
Zn303 O310 1.945 . S
Zn303 O311 1.906 1_655 S
Zn303 O321 1.953 . S
Zn304 O301 1.945 . S
Zn304 O306 1.932 . S
Zn304 O313 1.977 . S
Zn304 O314 1.910 . S
O305 Zn302 1.933 . S
O305 C316 1.226 . S
O306 Zn304 1.932 . S
O306 C316 1.307 . S
O307 Zn300 1.919 . S
O307 C318 1.253 . S
O308 Zn302 1.941 . S
O308 C318 1.283 . S
O309 Zn302 1.965 1_455 S
O309 C317 1.303 . S
O310 Zn303 1.945 . S
O310 C317 1.245 1_655 S
O311 Zn303 1.906 1_455 S
O311 C319 1.304 . S
O312 Zn300 1.924 . S
O312 C320 1.311 . S
O313 Zn304 1.977 . S
O313 C319 1.272 1_655 S
O314 Zn304 1.910 . S
O314 C320 1.231 . S
C315 O299 1.225 . S
C315 O321 1.298 . S
C316 O305 1.226 . S
C316 O306 1.307 . S
C317 O309 1.303 . S
C317 O310 1.245 1_455 S
C318 O307 1.253 . S
C318 O308 1.283 . S
C319 O311 1.304 . S
C319 O313 1.272 1_455 S
C320 O312 1.311 . S
C320 O314 1.231 . S
O321 Zn303 1.953 . S
O321 C315 1.298 . S
O322 Zn323 1.953 . S
O322 C338 1.225 . S
Zn323 O322 1.953 . S
Zn323 O324 1.949 . S
Zn323 O330 1.919 . S
Zn323 O335 1.924 . S
O324 Zn323 1.949 . S
O324 Zn325 1.923 . S
O324 Zn326 1.950 . S
O324 Zn327 1.945 . S
Zn325 O324 1.923 . S
Zn325 O328 1.933 . S
Zn325 O331 1.941 . S
Zn325 O332 1.965 1_565 S
Zn326 O324 1.950 . S
Zn326 O333 1.939 . S
Zn326 O334 1.906 1_565 S
Zn326 O344 1.953 . S
Zn327 O324 1.945 . S
Zn327 O329 1.932 . S
Zn327 O336 2.002 . S
Zn327 O337 1.910 . S
O328 Zn325 1.933 . S
O328 C339 1.226 . S
O329 Zn327 1.932 . S
O329 C339 1.307 . S
O330 Zn323 1.919 . S
O330 C341 1.253 . S
O331 Zn325 1.941 . S
O331 C341 1.283 . S
O332 Zn325 1.965 1_545 S
O332 C340 1.303 . S
O333 Zn326 1.939 . S
O333 C340 1.247 1_565 S
O334 Zn326 1.906 1_545 S
O334 C342 1.304 . S
O335 Zn323 1.924 . S
O335 C343 1.311 . S
O336 Zn327 2.002 . S
O336 C342 1.248 1_565 S
O337 Zn327 1.910 . S
O337 C343 1.231 . S
C338 O322 1.225 . S
C338 O344 1.298 . S
C339 O328 1.226 . S
C339 O329 1.307 . S
C340 O332 1.303 . S
C340 O333 1.247 1_545 S
C341 O330 1.253 . S
C341 O331 1.283 . S
C342 O334 1.304 . S
C342 O336 1.248 1_545 S
C343 O335 1.311 . S
C343 O337 1.231 . S
O344 Zn326 1.953 . S
O344 C338 1.298 . S
O345 Zn346 1.953 . S
O345 C361 1.225 . S
Zn346 O345 1.953 . S
Zn346 O347 1.949 . S
Zn346 O353 1.919 . S
Zn346 O358 1.924 . S
O347 Zn346 1.949 . S
O347 Zn348 1.923 . S
O347 Zn349 1.950 . S
O347 Zn350 1.945 . S
Zn348 O347 1.923 . S
Zn348 O351 1.933 . S
Zn348 O354 1.941 . S
Zn348 O355 1.965 . S
Zn349 O347 1.950 . S
Zn349 O356 1.938 . S
Zn349 O357 1.906 . S
Zn349 O367 1.953 . S
Zn350 O347 1.945 . S
Zn350 O352 1.932 . S
Zn350 O359 1.977 . S
Zn350 O360 1.910 . S
O351 Zn348 1.933 . S
O351 C362 1.226 . S
O352 Zn350 1.932 . S
O352 C362 1.307 . S
O353 Zn346 1.919 . S
O353 C364 1.253 . S
O354 Zn348 1.941 . S
O354 C364 1.283 . S
O355 Zn348 1.965 . S
O355 C363 1.303 . S
O356 Zn349 1.938 . S
O356 C363 1.247 . S
O357 Zn349 1.906 . S
O357 C365 1.304 . S
O358 Zn346 1.924 . S
O358 C366 1.311 . S
O359 Zn350 1.977 . S
O359 C365 1.272 . S
O360 Zn350 1.910 . S
O360 C366 1.231 . S
C361 O345 1.225 . S
C361 O367 1.298 . S
C362 O351 1.226 . S
C362 O352 1.307 . S
C363 O355 1.303 . S
C363 O356 1.247 . S
C364 O353 1.253 . S
C364 O354 1.283 . S
C365 O357 1.304 . S
C365 O359 1.272 . S
C366 O358 1.311 . S
C366 O360 1.231 . S
O367 Zn349 1.953 . S
O367 C361 1.298 . S
H368 C376 0.950 . S
H369 C381 0.950 . S
H370 C378 0.950 . S
H371 C380 0.950 . S
H372 C382 0.950 . S
H373 C384 0.950 . S
H374 C386 0.950 . S
H375 C387 0.950 . S
C376 H368 0.950 . S
C376 C377 1.386 . S
C376 C378 1.391 . S
C377 C376 1.386 . S
C377 C381 1.393 . S
C378 H370 0.950 . S
C378 C376 1.391 . S
C378 C379 1.400 . S
C379 C378 1.400 . S
C379 C380 1.398 . S
C379 C385 1.491 . S
C380 H371 0.950 . S
C380 C379 1.398 . S
C380 C381 1.391 . S
C381 H369 0.950 . S
C381 C377 1.393 . S
C381 C380 1.391 . S
C382 H372 0.950 . S
C382 C383 1.386 . S
C382 C384 1.391 . S
C383 C382 1.386 . S
C383 C387 1.393 . S
C384 H373 0.950 . S
C384 C382 1.391 . S
C384 C385 1.400 . S
C385 C379 1.491 . S
C385 C384 1.400 . S
C385 C386 1.398 . S
C386 H374 0.950 . S
C386 C385 1.398 . S
C386 C387 1.391 . S
C387 H375 0.950 . S
C387 C383 1.393 . S
C387 C386 1.391 . S
H388 C396 0.950 . S
H389 C401 0.950 . S
H390 C398 0.950 1_556 S
H391 C400 0.950 . S
H392 C402 0.950 . S
H393 C404 0.950 1_554 S
H394 C406 0.950 . S
H395 C407 0.950 . S
C396 H388 0.950 . S
C396 C397 1.386 . S
C396 C398 1.391 . S
C397 C396 1.386 . S
C397 C401 1.393 . S
C398 H390 0.950 1_554 S
C398 C396 1.391 . S
C398 C399 1.400 . S
C399 C398 1.400 . S
C399 C400 1.398 . S
C399 C405 1.491 1_554 S
C400 H391 0.950 . S
C400 C399 1.398 . S
C400 C401 1.391 . S
C401 H389 0.950 . S
C401 C397 1.393 . S
C401 C400 1.391 . S
C402 H392 0.950 . S
C402 C403 1.386 . S
C402 C404 1.391 . S
C403 C402 1.386 . S
C403 C407 1.393 . S
C404 H393 0.950 1_556 S
C404 C402 1.391 . S
C404 C405 1.400 . S
C405 C399 1.491 1_556 S
C405 C404 1.400 . S
C405 C406 1.398 . S
C406 H394 0.950 . S
C406 C405 1.398 . S
C406 C407 1.391 . S
C407 H395 0.950 . S
C407 C403 1.393 . S
C407 C406 1.391 . S
H408 C416 0.950 . S
H409 C421 0.950 . S
H410 C418 0.950 . S
H411 C420 0.950 . S
H412 C422 0.950 . S
H413 C424 0.950 . S
H414 C426 0.950 . S
H415 C427 0.950 . S
C416 H408 0.950 . S
C416 C417 1.386 . S
C416 C418 1.391 . S
C417 C416 1.386 . S
C417 C421 1.393 . S
C418 H410 0.950 . S
C418 C416 1.391 . S
C418 C419 1.400 . S
C419 C418 1.400 . S
C419 C420 1.398 . S
C419 C425 1.491 . S
C420 H411 0.950 . S
C420 C419 1.398 . S
C420 C421 1.391 . S
C421 H409 0.950 . S
C421 C417 1.393 . S
C421 C420 1.391 . S
C422 H412 0.950 . S
C422 C423 1.386 . S
C422 C424 1.391 . S
C423 C422 1.386 . S
C423 C427 1.393 . S
C424 H413 0.950 . S
C424 C422 1.391 . S
C424 C425 1.400 . S
C425 C419 1.491 . S
C425 C424 1.400 . S
C425 C426 1.398 . S
C426 H414 0.950 . S
C426 C425 1.398 . S
C426 C427 1.391 . S
C427 H415 0.950 . S
C427 C423 1.393 . S
C427 C426 1.391 . S
H428 C436 0.950 . S
H429 C441 0.950 . S
H430 C438 0.950 1_554 S
H431 C440 0.950 . S
H432 C442 0.950 . S
H433 C444 0.950 1_556 S
H434 C446 0.950 . S
H435 C447 0.950 . S
C436 H428 0.950 . S
C436 C437 1.386 . S
C436 C438 1.391 . S
C437 C436 1.386 . S
C437 C441 1.393 . S
C438 H430 0.950 1_556 S
C438 C436 1.391 . S
C438 C439 1.400 . S
C439 C438 1.400 . S
C439 C440 1.398 . S
C439 C445 1.491 1_556 S
C440 H431 0.950 . S
C440 C439 1.398 . S
C440 C441 1.391 . S
C441 H429 0.950 . S
C441 C437 1.393 . S
C441 C440 1.391 . S
C442 H432 0.950 . S
C442 C443 1.386 . S
C442 C444 1.391 . S
C443 C442 1.386 . S
C443 C447 1.393 . S
C444 H433 0.950 1_554 S
C444 C442 1.391 . S
C444 C445 1.400 . S
C445 C439 1.491 1_554 S
C445 C444 1.400 . S
C445 C446 1.398 . S
C446 H434 0.950 . S
C446 C445 1.398 . S
C446 C447 1.391 . S
C447 H435 0.950 . S
C447 C443 1.393 . S
C447 C446 1.391 . S
H448 C456 0.950 . S
H449 C461 0.950 . S
H450 C458 0.950 . S
H451 C460 0.950 . S
H452 C462 0.950 . S
H453 C464 0.950 . S
H454 C466 0.950 . S
H455 C467 0.950 . S
C456 H448 0.950 . S
C456 C457 1.386 . S
C456 C458 1.391 . S
C457 C456 1.386 . S
C457 C461 1.393 . S
C458 H450 0.950 . S
C458 C456 1.391 . S
C458 C459 1.400 . S
C459 C458 1.400 . S
C459 C460 1.398 . S
C459 C465 1.491 . S
C460 H451 0.950 . S
C460 C459 1.398 . S
C460 C461 1.391 . S
C461 H449 0.950 . S
C461 C457 1.393 . S
C461 C460 1.391 . S
C462 H452 0.950 . S
C462 C463 1.386 . S
C462 C464 1.391 . S
C463 C462 1.386 . S
C463 C467 1.393 . S
C464 H453 0.950 . S
C464 C462 1.391 . S
C464 C465 1.400 . S
C465 C459 1.491 . S
C465 C464 1.400 . S
C465 C466 1.398 . S
C466 H454 0.950 . S
C466 C465 1.398 . S
C466 C467 1.391 . S
C467 H455 0.950 . S
C467 C463 1.393 . S
C467 C466 1.391 . S
H468 C476 0.950 . S
H469 C481 0.950 . S
H470 C478 0.950 . S
H471 C480 0.950 1_554 S
H472 C482 0.950 . S
H473 C484 0.950 . S
H474 C486 0.950 1_556 S
H475 C487 0.950 . S
C476 H468 0.950 . S
C476 C477 1.386 . S
C476 C478 1.391 . S
C477 C476 1.386 . S
C477 C481 1.393 . S
C478 H470 0.950 . S
C478 C476 1.391 . S
C478 C479 1.400 . S
C479 C478 1.400 . S
C479 C480 1.398 . S
C479 C485 1.491 1_556 S
C480 H471 0.950 1_556 S
C480 C479 1.398 . S
C480 C481 1.391 . S
C481 H469 0.950 . S
C481 C477 1.393 . S
C481 C480 1.391 . S
C482 H472 0.950 . S
C482 C483 1.386 . S
C482 C484 1.391 . S
C483 C482 1.386 . S
C483 C487 1.393 . S
C484 H473 0.950 . S
C484 C482 1.391 . S
C484 C485 1.400 . S
C485 C479 1.491 1_554 S
C485 C484 1.400 . S
C485 C486 1.398 . S
C486 H474 0.950 1_554 S
C486 C485 1.398 . S
C486 C487 1.391 . S
C487 H475 0.950 . S
C487 C483 1.393 . S
C487 C486 1.391 . S
H488 C496 0.950 . S
H489 C501 0.950 . S
H490 C498 0.950 . S
H491 C500 0.950 . S
H492 C502 0.950 . S
H493 C504 0.950 . S
H494 C506 0.950 . S
H495 C507 0.950 . S
C496 H488 0.950 . S
C496 C497 1.386 . S
C496 C498 1.391 . S
C497 C496 1.386 . S
C497 C501 1.393 . S
C498 H490 0.950 . S
C498 C496 1.391 . S
C498 C499 1.400 . S
C499 C498 1.400 . S
C499 C500 1.398 . S
C499 C505 1.491 . S
C500 H491 0.950 . S
C500 C499 1.398 . S
C500 C501 1.391 . S
C501 H489 0.950 . S
C501 C497 1.393 . S
C501 C500 1.391 . S
C502 H492 0.950 . S
C502 C503 1.386 . S
C502 C504 1.391 . S
C503 C502 1.386 . S
C503 C507 1.393 . S
C504 H493 0.950 . S
C504 C502 1.391 . S
C504 C505 1.400 . S
C505 C499 1.491 . S
C505 C504 1.400 . S
C505 C506 1.398 . S
C506 H494 0.950 . S
C506 C505 1.398 . S
C506 C507 1.391 . S
C507 H495 0.950 . S
C507 C503 1.393 . S
C507 C506 1.391 . S
H508 C516 0.950 . S
H509 C521 0.950 . S
H510 C518 0.950 . S
H511 C520 0.950 . S
H512 C522 0.950 . S
H513 C524 0.950 . S
H514 C526 0.950 . S
H515 C527 0.950 . S
C516 H508 0.950 . S
C516 C517 1.386 . S
C516 C518 1.391 . S
C517 C516 1.386 . S
C517 C521 1.393 . S
C518 H510 0.950 . S
C518 C516 1.391 . S
C518 C519 1.400 . S
C519 C518 1.400 . S
C519 C520 1.398 . S
C519 C525 1.491 1_556 S
C520 H511 0.950 . S
C520 C519 1.398 . S
C520 C521 1.391 . S
C521 H509 0.950 . S
C521 C517 1.393 . S
C521 C520 1.391 . S
C522 H512 0.950 . S
C522 C523 1.386 . S
C522 C524 1.391 . S
C523 C522 1.386 . S
C523 C527 1.393 . S
C524 H513 0.950 . S
C524 C522 1.391 . S
C524 C525 1.400 . S
C525 C519 1.491 1_554 S
C525 C524 1.400 . S
C525 C526 1.398 . S
C526 H514 0.950 . S
C526 C525 1.398 . S
C526 C527 1.391 . S
C527 H515 0.950 . S
C527 C523 1.393 . S
C527 C526 1.391 . S
H528 C536 0.950 . S
H529 C541 0.950 . S
H530 C538 0.950 . S
H531 C540 0.950 . S
H532 C542 0.950 . S
H533 C544 0.950 . S
H534 C546 0.950 . S
H535 C547 0.950 . S
C536 H528 0.950 . S
C536 C537 1.386 . S
C536 C538 1.391 . S
C537 C536 1.386 . S
C537 C541 1.393 . S
C538 H530 0.950 . S
C538 C536 1.391 . S
C538 C539 1.400 . S
C539 C538 1.400 . S
C539 C540 1.398 . S
C539 C545 1.491 . S
C540 H531 0.950 . S
C540 C539 1.398 . S
C540 C541 1.391 . S
C541 H529 0.950 . S
C541 C537 1.393 . S
C541 C540 1.391 . S
C542 H532 0.950 . S
C542 C543 1.386 . S
C542 C544 1.391 . S
C543 C542 1.386 . S
C543 C547 1.393 . S
C544 H533 0.950 . S
C544 C542 1.391 . S
C544 C545 1.400 . S
C545 C539 1.491 . S
C545 C544 1.400 . S
C545 C546 1.398 . S
C546 H534 0.950 . S
C546 C545 1.398 . S
C546 C547 1.391 . S
C547 H535 0.950 . S
C547 C543 1.393 . S
C547 C546 1.391 . S
H548 C556 0.950 . S
H549 C561 0.950 . S
H550 C558 0.950 . S
H551 C560 0.950 . S
H552 C562 0.950 . S
H553 C564 0.950 . S
H554 C566 0.950 . S
H555 C567 0.950 . S
C556 H548 0.950 . S
C556 C557 1.386 . S
C556 C558 1.391 . S
C557 C556 1.386 . S
C557 C561 1.393 . S
C558 H550 0.950 . S
C558 C556 1.391 . S
C558 C559 1.400 . S
C559 C558 1.400 . S
C559 C560 1.398 . S
C559 C565 1.491 . S
C560 H551 0.950 . S
C560 C559 1.398 . S
C560 C561 1.391 . S
C561 H549 0.950 . S
C561 C557 1.393 . S
C561 C560 1.391 . S
C562 H552 0.950 . S
C562 C563 1.386 . S
C562 C564 1.391 . S
C563 C562 1.386 . S
C563 C567 1.393 . S
C564 H553 0.950 . S
C564 C562 1.391 . S
C564 C565 1.400 . S
C565 C559 1.491 . S
C565 C564 1.400 . S
C565 C566 1.398 . S
C566 H554 0.950 . S
C566 C565 1.398 . S
C566 C567 1.391 . S
C567 H555 0.950 . S
C567 C563 1.393 . S
C567 C566 1.391 . S
H568 C576 0.950 . S
H569 C581 0.950 . S
H570 C578 0.950 . S
H571 C580 0.950 . S
H572 C582 0.950 . S
H573 C584 0.950 . S
H574 C586 0.950 . S
H575 C587 0.950 . S
C576 H568 0.950 . S
C576 C577 1.386 . S
C576 C578 1.391 . S
C577 C576 1.386 . S
C577 C581 1.393 . S
C578 H570 0.950 . S
C578 C576 1.391 . S
C578 C579 1.400 . S
C579 C578 1.400 . S
C579 C580 1.398 . S
C579 C585 1.491 . S
C580 H571 0.950 . S
C580 C579 1.398 . S
C580 C581 1.391 . S
C581 H569 0.950 . S
C581 C577 1.393 . S
C581 C580 1.391 . S
C582 H572 0.950 . S
C582 C583 1.386 . S
C582 C584 1.391 . S
C583 C582 1.386 . S
C583 C587 1.393 . S
C584 H573 0.950 . S
C584 C582 1.391 . S
C584 C585 1.400 . S
C585 C579 1.491 . S
C585 C584 1.400 . S
C585 C586 1.398 . S
C586 H574 0.950 . S
C586 C585 1.398 . S
C586 C587 1.391 . S
C587 H575 0.950 . S
C587 C583 1.393 . S
C587 C586 1.391 . S
H588 C596 0.950 . S
H589 C601 0.950 . S
H590 C598 0.950 . S
H591 C600 0.950 . S
H592 C602 0.950 . S
H593 C604 0.950 . S
H594 C606 0.950 . S
H595 C607 0.950 . S
C596 H588 0.950 . S
C596 C597 1.386 . S
C596 C598 1.391 . S
C597 C596 1.386 . S
C597 C601 1.393 . S
C598 H590 0.950 . S
C598 C596 1.391 . S
C598 C599 1.400 . S
C599 C598 1.400 . S
C599 C600 1.398 . S
C599 C605 1.491 . S
C600 H591 0.950 . S
C600 C599 1.398 . S
C600 C601 1.391 . S
C601 H589 0.950 . S
C601 C597 1.393 . S
C601 C600 1.391 . S
C602 H592 0.950 . S
C602 C603 1.386 . S
C602 C604 1.391 . S
C603 C602 1.386 . S
C603 C607 1.393 . S
C604 H593 0.950 . S
C604 C602 1.391 . S
C604 C605 1.400 . S
C605 C599 1.491 . S
C605 C604 1.400 . S
C605 C606 1.398 . S
C606 H594 0.950 . S
C606 C605 1.398 . S
C606 C607 1.391 . S
C607 H595 0.950 . S
C607 C603 1.393 . S
C607 C606 1.391 . S
H608 C616 0.950 . S
H609 C621 0.950 . S
H610 C618 0.950 . S
H611 C620 0.950 . S
H612 C622 0.950 . S
H613 C624 0.950 . S
H614 C626 0.950 . S
H615 C627 0.950 . S
C616 H608 0.950 . S
C616 C617 1.386 . S
C616 C618 1.391 . S
C617 C616 1.386 . S
C617 C621 1.393 . S
C618 H610 0.950 . S
C618 C616 1.391 . S
C618 C619 1.400 . S
C619 C618 1.400 . S
C619 C620 1.398 . S
C619 C625 1.491 . S
C620 H611 0.950 . S
C620 C619 1.398 . S
C620 C621 1.391 . S
C621 H609 0.950 . S
C621 C617 1.393 . S
C621 C620 1.391 . S
C622 H612 0.950 . S
C622 C623 1.386 . S
C622 C624 1.391 . S
C623 C622 1.386 . S
C623 C627 1.393 . S
C624 H613 0.950 . S
C624 C622 1.391 . S
C624 C625 1.400 . S
C625 C619 1.491 . S
C625 C624 1.400 . S
C625 C626 1.398 . S
C626 H614 0.950 . S
C626 C625 1.398 . S
C626 C627 1.391 . S
C627 H615 0.950 . S
C627 C623 1.393 . S
C627 C626 1.391 . S
H628 C636 0.950 . S
H629 C641 0.950 . S
H630 C638 0.950 . S
H631 C640 0.950 . S
H632 C642 0.950 . S
H633 C644 0.950 . S
H634 C646 0.950 . S
H635 C647 0.950 . S
C636 H628 0.950 . S
C636 C637 1.386 . S
C636 C638 1.391 . S
C637 C636 1.386 . S
C637 C641 1.393 . S
C638 H630 0.950 . S
C638 C636 1.391 . S
C638 C639 1.400 . S
C639 C638 1.400 . S
C639 C640 1.398 . S
C639 C645 1.491 . S
C640 H631 0.950 . S
C640 C639 1.398 . S
C640 C641 1.391 . S
C641 H629 0.950 . S
C641 C637 1.393 . S
C641 C640 1.391 . S
C642 H632 0.950 . S
C642 C643 1.386 . S
C642 C644 1.391 . S
C643 C642 1.386 . S
C643 C647 1.393 . S
C644 H633 0.950 . S
C644 C642 1.391 . S
C644 C645 1.400 . S
C645 C639 1.491 . S
C645 C644 1.400 . S
C645 C646 1.398 . S
C646 H634 0.950 . S
C646 C645 1.398 . S
C646 C647 1.391 . S
C647 H635 0.950 . S
C647 C643 1.393 . S
C647 C646 1.391 . S
H648 C656 0.950 . S
H649 C661 0.950 . S
H650 C658 0.950 . S
H651 C660 0.950 . S
H652 C662 0.950 . S
H653 C664 0.950 . S
H654 C666 0.950 . S
H655 C667 0.950 . S
C656 H648 0.950 . S
C656 C657 1.386 . S
C656 C658 1.391 . S
C657 C656 1.386 . S
C657 C661 1.393 . S
C658 H650 0.950 . S
C658 C656 1.391 . S
C658 C659 1.400 . S
C659 C658 1.400 . S
C659 C660 1.398 . S
C659 C665 1.491 . S
C660 H651 0.950 . S
C660 C659 1.398 . S
C660 C661 1.391 . S
C661 H649 0.950 . S
C661 C657 1.393 . S
C661 C660 1.391 . S
C662 H652 0.950 . S
C662 C663 1.386 . S
C662 C664 1.391 . S
C663 C662 1.386 . S
C663 C667 1.393 . S
C664 H653 0.950 . S
C664 C662 1.391 . S
C664 C665 1.400 . S
C665 C659 1.491 . S
C665 C664 1.400 . S
C665 C666 1.398 . S
C666 H654 0.950 . S
C666 C665 1.398 . S
C666 C667 1.391 . S
C667 H655 0.950 . S
C667 C663 1.393 . S
C667 C666 1.391 . S
H668 C676 0.950 . S
H669 C681 0.950 . S
H670 C678 0.950 . S
H671 C680 0.950 . S
H672 C682 0.950 . S
H673 C684 0.950 . S
H674 C686 0.950 . S
H675 C687 0.950 . S
C676 H668 0.950 . S
C676 C677 1.386 . S
C676 C678 1.391 . S
C677 C676 1.386 . S
C677 C681 1.393 . S
C678 H670 0.950 . S
C678 C676 1.391 . S
C678 C679 1.400 . S
C679 C678 1.400 . S
C679 C680 1.398 . S
C679 C685 1.491 . S
C680 H671 0.950 . S
C680 C679 1.398 . S
C680 C681 1.391 . S
C681 H669 0.950 . S
C681 C677 1.393 . S
C681 C680 1.391 . S
C682 H672 0.950 . S
C682 C683 1.386 . S
C682 C684 1.391 . S
C683 C682 1.386 . S
C683 C687 1.393 . S
C684 H673 0.950 . S
C684 C682 1.391 . S
C684 C685 1.400 . S
C685 C679 1.491 . S
C685 C684 1.400 . S
C685 C686 1.398 . S
C686 H674 0.950 . S
C686 C685 1.398 . S
C686 C687 1.391 . S
C687 H675 0.950 . S
C687 C683 1.393 . S
C687 C686 1.391 . S
H688 C696 0.950 . S
H689 C701 0.950 . S
H690 C698 0.950 . S
H691 C700 0.950 . S
H692 C702 0.950 . S
H693 C704 0.950 . S
H694 C706 0.950 . S
H695 C707 0.950 . S
C696 H688 0.950 . S
C696 C697 1.386 . S
C696 C698 1.391 1_556 S
C697 C696 1.386 . S
C697 C701 1.393 . S
C698 H690 0.950 . S
C698 C696 1.391 1_554 S
C698 C699 1.400 . S
C699 C698 1.400 . S
C699 C700 1.398 . S
C699 C705 1.491 . S
C700 H691 0.950 . S
C700 C699 1.398 . S
C700 C701 1.391 1_554 S
C701 H689 0.950 . S
C701 C697 1.393 . S
C701 C700 1.391 1_556 S
C702 H692 0.950 . S
C702 C703 1.386 . S
C702 C704 1.391 . S
C703 C702 1.386 . S
C703 C707 1.393 . S
C704 H693 0.950 . S
C704 C702 1.391 . S
C704 C705 1.400 . S
C705 C699 1.491 . S
C705 C704 1.400 . S
C705 C706 1.398 . S
C706 H694 0.950 . S
C706 C705 1.398 . S
C706 C707 1.391 . S
C707 H695 0.950 . S
C707 C703 1.393 . S
C707 C706 1.391 . S
H708 C716 0.950 . S
H709 C721 0.950 . S
H710 C718 0.950 . S
H711 C720 0.950 . S
H712 C722 0.950 . S
H713 C724 0.950 . S
H714 C726 0.950 . S
H715 C727 0.950 . S
C716 H708 0.950 . S
C716 C717 1.386 . S
C716 C718 1.391 . S
C717 C716 1.386 . S
C717 C721 1.393 1_455 S
C718 H710 0.950 . S
C718 C716 1.391 . S
C718 C719 1.400 . S
C719 C718 1.400 . S
C719 C720 1.398 1_455 S
C719 C725 1.491 . S
C720 H711 0.950 . S
C720 C719 1.398 1_655 S
C720 C721 1.391 . S
C721 H709 0.950 . S
C721 C717 1.393 1_655 S
C721 C720 1.391 . S
C722 H712 0.950 . S
C722 C723 1.386 1_655 S
C722 C724 1.391 . S
C723 C722 1.386 1_455 S
C723 C727 1.393 . S
C724 H713 0.950 . S
C724 C722 1.391 . S
C724 C725 1.400 1_655 S
C725 C719 1.491 . S
C725 C724 1.400 1_455 S
C725 C726 1.398 . S
C726 H714 0.950 . S
C726 C725 1.398 . S
C726 C727 1.391 . S
C727 H715 0.950 . S
C727 C723 1.393 . S
C727 C726 1.391 . S
H728 C736 0.950 . S
H729 C741 0.950 . S
H730 C738 0.950 1_554 S
H731 C740 0.950 . S
H732 C742 0.950 . S
H733 C744 0.950 . S
H734 C746 0.950 . S
H735 C747 0.950 . S
C736 H728 0.950 . S
C736 C737 1.386 . S
C736 C738 1.391 . S
C737 C736 1.386 . S
C737 C741 1.393 1_545 S
C738 H730 0.950 1_556 S
C738 C736 1.391 . S
C738 C739 1.400 1_556 S
C739 C738 1.400 1_554 S
C739 C740 1.398 1_545 S
C739 C745 1.491 . S
C740 H731 0.950 . S
C740 C739 1.398 1_565 S
C740 C741 1.391 1_554 S
C741 H729 0.950 . S
C741 C737 1.393 1_565 S
C741 C740 1.391 1_556 S
C742 H732 0.950 . S
C742 C743 1.386 1_565 S
C742 C744 1.391 . S
C743 C742 1.386 1_545 S
C743 C747 1.393 . S
C744 H733 0.950 . S
C744 C742 1.391 . S
C744 C745 1.400 1_565 S
C745 C739 1.491 . S
C745 C744 1.400 1_545 S
C745 C746 1.398 . S
C746 H734 0.950 . S
C746 C745 1.398 . S
C746 C747 1.391 . S
C747 H735 0.950 . S
C747 C743 1.393 . S
C747 C746 1.391 . S
H748 C756 0.950 . S
H749 C761 0.950 . S
H750 C758 0.950 . S
H751 C760 0.950 . S
H752 C762 0.950 . S
H753 C764 0.950 . S
H754 C766 0.950 . S
H755 C767 0.950 . S
C756 H748 0.950 . S
C756 C757 1.386 . S
C756 C758 1.391 . S
C757 C756 1.386 . S
C757 C761 1.393 . S
C758 H750 0.950 . S
C758 C756 1.391 . S
C758 C759 1.400 . S
C759 C758 1.400 . S
C759 C760 1.398 . S
C759 C765 1.491 . S
C760 H751 0.950 . S
C760 C759 1.398 . S
C760 C761 1.391 . S
C761 H749 0.950 . S
C761 C757 1.393 . S
C761 C760 1.391 . S
C762 H752 0.950 . S
C762 C763 1.386 . S
C762 C764 1.391 . S
C763 C762 1.386 . S
C763 C767 1.393 . S
C764 H753 0.950 . S
C764 C762 1.391 . S
C764 C765 1.400 . S
C765 C759 1.491 . S
C765 C764 1.400 . S
C765 C766 1.398 . S
C766 H754 0.950 . S
C766 C765 1.398 . S
C766 C767 1.391 . S
C767 H755 0.950 . S
C767 C763 1.393 . S
C767 C766 1.391 . S
H768 C776 0.950 . S
H769 C781 0.950 . S
H770 C778 0.950 . S
H771 C780 0.950 . S
H772 C782 0.950 . S
H773 C784 0.950 . S
H774 C786 0.950 . S
H775 C787 0.950 . S
C776 H768 0.950 . S
C776 C777 1.386 . S
C776 C778 1.391 . S
C777 C776 1.386 . S
C777 C781 1.393 . S
C778 H770 0.950 . S
C778 C776 1.391 . S
C778 C779 1.400 . S
C779 C778 1.400 . S
C779 C780 1.398 . S
C779 C785 1.491 . S
C780 H771 0.950 . S
C780 C779 1.398 . S
C780 C781 1.391 . S
C781 H769 0.950 . S
C781 C777 1.393 . S
C781 C780 1.391 . S
C782 H772 0.950 . S
C782 C783 1.386 . S
C782 C784 1.391 . S
C783 C782 1.386 . S
C783 C787 1.393 . S
C784 H773 0.950 . S
C784 C782 1.391 . S
C784 C785 1.400 . S
C785 C779 1.491 . S
C785 C784 1.400 . S
C785 C786 1.398 . S
C786 H774 0.950 . S
C786 C785 1.398 . S
C786 C787 1.391 . S
C787 H775 0.950 . S
C787 C783 1.393 . S
C787 C786 1.391 . S
H788 C796 0.950 . S
H789 C801 0.950 . S
H790 C798 0.950 . S
H791 C800 0.950 . S
H792 C802 0.950 . S
H793 C804 0.950 1_556 S
H794 C806 0.950 . S
H795 C807 0.950 . S
C796 H788 0.950 . S
C796 C797 1.386 1_455 S
C796 C798 1.391 . S
C797 C796 1.386 1_655 S
C797 C801 1.393 . S
C798 H790 0.950 . S
C798 C796 1.391 . S
C798 C799 1.400 1_455 S
C799 C798 1.400 1_655 S
C799 C800 1.398 . S
C799 C805 1.491 . S
C800 H791 0.950 . S
C800 C799 1.398 . S
C800 C801 1.391 . S
C801 H789 0.950 . S
C801 C797 1.393 . S
C801 C800 1.391 . S
C802 H792 0.950 . S
C802 C803 1.386 . S
C802 C804 1.391 . S
C803 C802 1.386 . S
C803 C807 1.393 1_655 S
C804 H793 0.950 1_554 S
C804 C802 1.391 . S
C804 C805 1.400 1_554 S
C805 C799 1.491 . S
C805 C804 1.400 1_556 S
C805 C806 1.398 1_655 S
C806 H794 0.950 . S
C806 C805 1.398 1_455 S
C806 C807 1.391 1_556 S
C807 H795 0.950 . S
C807 C803 1.393 1_455 S
C807 C806 1.391 1_554 S
H808 C816 0.950 . S
H809 C821 0.950 . S
H810 C818 0.950 . S
H811 C820 0.950 . S
H812 C822 0.950 . S
H813 C824 0.950 . S
H814 C826 0.950 . S
H815 C827 0.950 . S
C816 H808 0.950 . S
C816 C817 1.386 1_545 S
C816 C818 1.391 . S
C817 C816 1.386 1_565 S
C817 C821 1.393 . S
C818 H810 0.950 . S
C818 C816 1.391 . S
C818 C819 1.400 1_545 S
C819 C818 1.400 1_565 S
C819 C820 1.398 . S
C819 C825 1.491 . S
C820 H811 0.950 . S
C820 C819 1.398 . S
C820 C821 1.391 . S
C821 H809 0.950 . S
C821 C817 1.393 . S
C821 C820 1.391 . S
C822 H812 0.950 . S
C822 C823 1.386 . S
C822 C824 1.391 . S
C823 C822 1.386 . S
C823 C827 1.393 1_565 S
C824 H813 0.950 . S
C824 C822 1.391 . S
C824 C825 1.400 . S
C825 C819 1.491 . S
C825 C824 1.400 . S
C825 C826 1.398 1_565 S
C826 H814 0.950 . S
C826 C825 1.398 1_545 S
C826 C827 1.391 . S
C827 H815 0.950 . S
C827 C823 1.393 1_545 S
C827 C826 1.391 . S
H828 C836 0.950 . S
H829 C841 0.950 . S
H830 C838 0.950 1_556 S
H831 C840 0.950 . S
H832 C842 0.950 . S
H833 C844 0.950 . S
H834 C846 0.950 . S
H835 C847 0.950 . S
C836 H828 0.950 . S
C836 C837 1.386 . S
C836 C838 1.391 . S
C837 C836 1.386 . S
C837 C841 1.393 . S
C838 H830 0.950 1_554 S
C838 C836 1.391 . S
C838 C839 1.400 1_554 S
C839 C838 1.400 1_556 S
C839 C840 1.398 . S
C839 C845 1.491 . S
C840 H831 0.950 . S
C840 C839 1.398 . S
C840 C841 1.391 1_556 S
C841 H829 0.950 . S
C841 C837 1.393 . S
C841 C840 1.391 1_554 S
C842 H832 0.950 . S
C842 C843 1.386 . S
C842 C844 1.391 . S
C843 C842 1.386 . S
C843 C847 1.393 . S
C844 H833 0.950 . S
C844 C842 1.391 . S
C844 C845 1.400 . S
C845 C839 1.491 . S
C845 C844 1.400 . S
C845 C846 1.398 . S
C846 H834 0.950 . S
C846 C845 1.398 . S
C846 C847 1.391 . S
C847 H835 0.950 . S
C847 C843 1.393 . S
C847 C846 1.391 . S
H848 C856 0.950 . S
H849 C861 0.950 . S
H850 C858 0.950 . S
H851 C860 0.950 . S
H852 C862 0.950 . S
H853 C864 0.950 . S
H854 C866 0.950 . S
H855 C867 0.950 . S
C856 H848 0.950 . S
C856 C857 1.386 . S
C856 C858 1.391 . S
C857 C856 1.386 . S
C857 C861 1.393 . S
C858 H850 0.950 . S
C858 C856 1.391 . S
C858 C859 1.400 . S
C859 C858 1.400 . S
C859 C860 1.398 . S
C859 C865 1.491 . S
C860 H851 0.950 . S
C860 C859 1.398 . S
C860 C861 1.391 . S
C861 H849 0.950 . S
C861 C857 1.393 . S
C861 C860 1.391 . S
C862 H852 0.950 . S
C862 C863 1.386 . S
C862 C864 1.391 1_554 S
C863 C862 1.386 . S
C863 C867 1.393 . S
C864 H853 0.950 . S
C864 C862 1.391 1_556 S
C864 C865 1.400 . S
C865 C859 1.491 . S
C865 C864 1.400 . S
C865 C866 1.398 . S
C866 H854 0.950 . S
C866 C865 1.398 . S
C866 C867 1.391 1_556 S
C867 H855 0.950 . S
C867 C863 1.393 . S
C867 C866 1.391 1_554 S
H868 C876 0.950 . S
H869 C881 0.950 . S
H870 C878 0.950 . S
H871 C880 0.950 . S
H872 C882 0.950 . S
H873 C884 0.950 . S
H874 C886 0.950 . S
H875 C887 0.950 . S
C876 H868 0.950 . S
C876 C877 1.386 1_455 S
C876 C878 1.391 . S
C877 C876 1.386 1_655 S
C877 C881 1.393 . S
C878 H870 0.950 . S
C878 C876 1.391 . S
C878 C879 1.400 1_455 S
C879 C878 1.400 1_655 S
C879 C880 1.398 . S
C879 C885 1.491 . S
C880 H871 0.950 . S
C880 C879 1.398 . S
C880 C881 1.391 . S
C881 H869 0.950 . S
C881 C877 1.393 . S
C881 C880 1.391 . S
C882 H872 0.950 . S
C882 C883 1.386 . S
C882 C884 1.391 . S
C883 C882 1.386 . S
C883 C887 1.393 1_655 S
C884 H873 0.950 . S
C884 C882 1.391 . S
C884 C885 1.400 . S
C885 C879 1.491 . S
C885 C884 1.400 . S
C885 C886 1.398 1_655 S
C886 H874 0.950 . S
C886 C885 1.398 1_455 S
C886 C887 1.391 . S
C887 H875 0.950 . S
C887 C883 1.393 1_455 S
C887 C886 1.391 . S
H888 C896 0.950 . S
H889 C901 0.950 . S
H890 C898 0.950 1_556 S
H891 C900 0.950 . S
H892 C902 0.950 . S
H893 C904 0.950 . S
H894 C906 0.950 . S
H895 C907 0.950 . S
C896 H888 0.950 . S
C896 C897 1.386 . S
C896 C898 1.391 . S
C897 C896 1.386 . S
C897 C901 1.393 1_565 S
C898 H890 0.950 1_554 S
C898 C896 1.391 . S
C898 C899 1.400 1_554 S
C899 C898 1.400 1_556 S
C899 C900 1.398 1_565 S
C899 C905 1.491 . S
C900 H891 0.950 . S
C900 C899 1.398 1_545 S
C900 C901 1.391 1_556 S
C901 H889 0.950 . S
C901 C897 1.393 1_545 S
C901 C900 1.391 1_554 S
C902 H892 0.950 . S
C902 C903 1.386 1_545 S
C902 C904 1.391 . S
C903 C902 1.386 1_565 S
C903 C907 1.393 . S
C904 H893 0.950 . S
C904 C902 1.391 . S
C904 C905 1.400 1_545 S
C905 C899 1.491 . S
C905 C904 1.400 1_565 S
C905 C906 1.398 . S
C906 H894 0.950 . S
C906 C905 1.398 . S
C906 C907 1.391 . S
C907 H895 0.950 . S
C907 C903 1.393 . S
C907 C906 1.391 . S
H908 C916 0.950 . S
H909 C921 0.950 . S
H910 C918 0.950 . S
H911 C920 0.950 . S
H912 C922 0.950 . S
H913 C924 0.950 . S
H914 C926 0.950 . S
H915 C927 0.950 . S
C916 H908 0.950 . S
C916 C917 1.386 . S
C916 C918 1.391 . S
C917 C916 1.386 . S
C917 C921 1.393 . S
C918 H910 0.950 . S
C918 C916 1.391 . S
C918 C919 1.400 . S
C919 C918 1.400 . S
C919 C920 1.398 . S
C919 C925 1.491 . S
C920 H911 0.950 . S
C920 C919 1.398 . S
C920 C921 1.391 . S
C921 H909 0.950 . S
C921 C917 1.393 . S
C921 C920 1.391 . S
C922 H912 0.950 . S
C922 C923 1.386 . S
C922 C924 1.391 . S
C923 C922 1.386 . S
C923 C927 1.393 . S
C924 H913 0.950 . S
C924 C922 1.391 . S
C924 C925 1.400 . S
C925 C919 1.491 . S
C925 C924 1.400 . S
C925 C926 1.398 . S
C926 H914 0.950 . S
C926 C925 1.398 . S
C926 C927 1.391 . S
C927 H915 0.950 . S
C927 C923 1.393 . S
C927 C926 1.391 . S
H928 C936 0.950 . S
H929 C941 0.950 . S
H930 C938 0.950 . S
H931 C940 0.950 . S
H932 C942 0.950 . S
H933 C944 0.950 . S
H934 C946 0.950 . S
H935 C947 0.950 . S
C936 H928 0.950 . S
C936 C937 1.386 . S
C936 C938 1.391 . S
C937 C936 1.386 . S
C937 C941 1.393 . S
C938 H930 0.950 . S
C938 C936 1.391 . S
C938 C939 1.400 . S
C939 C938 1.400 . S
C939 C940 1.398 . S
C939 C945 1.491 . S
C940 H931 0.950 . S
C940 C939 1.398 . S
C940 C941 1.391 . S
C941 H929 0.950 . S
C941 C937 1.393 . S
C941 C940 1.391 . S
C942 H932 0.950 . S
C942 C943 1.386 . S
C942 C944 1.391 . S
C943 C942 1.386 . S
C943 C947 1.393 . S
C944 H933 0.950 . S
C944 C942 1.391 . S
C944 C945 1.400 . S
C945 C939 1.491 . S
C945 C944 1.400 . S
C945 C946 1.398 . S
C946 H934 0.950 . S
C946 C945 1.398 . S
C946 C947 1.391 . S
C947 H935 0.950 . S
C947 C943 1.393 . S
C947 C946 1.391 . S
H948 C956 0.950 . S
H949 C961 0.950 . S
H950 C958 0.950 . S
H951 C960 0.950 . S
H952 C962 0.950 . S
H953 C964 0.950 . S
H954 C966 0.950 . S
H955 C967 0.950 . S
C956 H948 0.950 . S
C956 C957 1.386 . S
C956 C958 1.391 . S
C957 C956 1.386 . S
C957 C961 1.393 1_455 S
C958 H950 0.950 . S
C958 C956 1.391 . S
C958 C959 1.400 . S
C959 C958 1.400 . S
C959 C960 1.398 1_455 S
C959 C965 1.491 . S
C960 H951 0.950 . S
C960 C959 1.398 1_655 S
C960 C961 1.391 . S
C961 H949 0.950 . S
C961 C957 1.393 1_655 S
C961 C960 1.391 . S
C962 H952 0.950 . S
C962 C963 1.386 1_655 S
C962 C964 1.391 1_556 S
C963 C962 1.386 1_455 S
C963 C967 1.393 . S
C964 H953 0.950 . S
C964 C962 1.391 1_554 S
C964 C965 1.400 1_655 S
C965 C959 1.491 . S
C965 C964 1.400 1_455 S
C965 C966 1.398 . S
C966 H954 0.950 . S
C966 C965 1.398 . S
C966 C967 1.391 1_554 S
C967 H955 0.950 . S
C967 C963 1.393 . S
C967 C966 1.391 1_556 S
H968 C976 0.950 . S
H969 C981 0.950 . S
H970 C978 0.950 . S
H971 C980 0.954 . S
H972 C982 0.950 . S
H973 C984 0.950 . S
H974 C986 0.950 . S
H975 C987 0.950 . S
C976 H968 0.950 . S
C976 C977 1.386 . S
C976 C978 1.391 . S
C977 C976 1.386 . S
C977 C981 1.393 . S
C978 H970 0.950 . S
C978 C976 1.391 . S
C978 C979 1.400 . S
C979 C978 1.400 . S
C979 C980 1.398 . S
C979 C985 1.491 . S
C980 H971 0.954 . S
C980 C979 1.398 . S
C980 C981 1.391 . S
C981 H969 0.950 . S
C981 C977 1.393 . S
C981 C980 1.391 . S
C982 H972 0.950 . S
C982 C983 1.386 . S
C982 C984 1.391 . S
C983 C982 1.386 . S
C983 C987 1.393 . S
C984 H973 0.950 . S
C984 C982 1.391 . S
C984 C985 1.400 . S
C985 C979 1.491 . S
C985 C984 1.400 . S
C985 C986 1.398 . S
C986 H974 0.950 . S
C986 C985 1.398 . S
C986 C987 1.391 . S
C987 H975 0.950 . S
C987 C983 1.393 . S
C987 C986 1.391 . S
H988 C996 0.950 . S
H989 C1001 0.950 . S
H990 C998 0.950 . S
H991 C1000 0.950 . S
H992 C1002 0.950 . S
H993 C1004 0.950 . S
H994 C1006 0.950 . S
H995 C1007 0.950 . S
C996 H988 0.950 . S
C996 C997 1.386 . S
C996 C998 1.391 1_556 S
C997 C996 1.386 . S
C997 C1001 1.393 . S
C998 H990 0.950 . S
C998 C996 1.391 1_554 S
C998 C999 1.400 . S
C999 C998 1.400 . S
C999 C1000 1.398 . S
C999 C1005 1.491 . S
C1000 H991 0.950 . S
C1000 C999 1.398 . S
C1000 C1001 1.391 1_554 S
C1001 H989 0.950 . S
C1001 C997 1.393 . S
C1001 C1000 1.391 1_556 S
C1002 H992 0.950 . S
C1002 C1003 1.386 . S
C1002 C1004 1.391 . S
C1003 C1002 1.386 . S
C1003 C1007 1.393 . S
C1004 H993 0.950 . S
C1004 C1002 1.391 . S
C1004 C1005 1.400 . S
C1005 C999 1.491 . S
C1005 C1004 1.400 . S
C1005 C1006 1.398 . S
C1006 H994 0.950 . S
C1006 C1005 1.398 . S
C1006 C1007 1.391 . S
C1007 H995 0.950 . S
C1007 C1003 1.393 . S
C1007 C1006 1.391 . S
H1008 C1016 0.950 . S
H1009 C1021 0.950 . S
H1010 C1018 0.950 . S
H1011 C1020 0.950 . S
H1012 C1022 0.950 . S
H1013 C1024 0.950 . S
H1014 C1026 0.950 . S
H1015 C1027 0.950 . S
C1016 H1008 0.950 . S
C1016 C1017 1.386 . S
C1016 C1018 1.391 . S
C1017 C1016 1.386 . S
C1017 C1021 1.393 . S
C1018 H1010 0.950 . S
C1018 C1016 1.391 . S
C1018 C1019 1.400 . S
C1019 C1018 1.400 . S
C1019 C1020 1.398 . S
C1019 C1025 1.491 . S
C1020 H1011 0.950 . S
C1020 C1019 1.398 . S
C1020 C1021 1.391 . S
C1021 H1009 0.950 . S
C1021 C1017 1.393 . S
C1021 C1020 1.391 . S
C1022 H1012 0.950 . S
C1022 C1023 1.386 . S
C1022 C1024 1.391 . S
C1023 C1022 1.386 . S
C1023 C1027 1.393 . S
C1024 H1013 0.950 . S
C1024 C1022 1.391 . S
C1024 C1025 1.400 . S
C1025 C1019 1.491 . S
C1025 C1024 1.400 . S
C1025 C1026 1.398 . S
C1026 H1014 0.950 . S
C1026 C1025 1.398 . S
C1026 C1027 1.391 . S
C1027 H1015 0.950 . S
C1027 C1023 1.393 . S
C1027 C1026 1.391 . S
H1028 C1036 0.950 . S
H1029 C1041 0.950 . S
H1030 C1038 0.950 . S
H1031 C1040 0.950 . S
H1032 C1042 0.950 . S
H1033 C1044 0.950 . S
H1034 C1046 0.950 . S
H1035 C1047 0.950 . S
C1036 H1028 0.950 . S
C1036 C1037 1.386 . S
C1036 C1038 1.391 . S
C1037 C1036 1.386 . S
C1037 C1041 1.393 . S
C1038 H1030 0.950 . S
C1038 C1036 1.391 . S
C1038 C1039 1.400 . S
C1039 C1038 1.400 . S
C1039 C1040 1.398 . S
C1039 C1045 1.491 . S
C1040 H1031 0.950 . S
C1040 C1039 1.398 . S
C1040 C1041 1.391 . S
C1041 H1029 0.950 . S
C1041 C1037 1.393 . S
C1041 C1040 1.391 . S
C1042 H1032 0.950 . S
C1042 C1043 1.386 . S
C1042 C1044 1.391 . S
C1043 C1042 1.386 . S
C1043 C1047 1.393 . S
C1044 H1033 0.950 . S
C1044 C1042 1.391 . S
C1044 C1045 1.400 . S
C1045 C1039 1.491 . S
C1045 C1044 1.400 . S
C1045 C1046 1.398 . S
C1046 H1034 0.950 . S
C1046 C1045 1.398 . S
C1046 C1047 1.391 . S
C1047 H1035 0.950 . S
C1047 C1043 1.393 . S
C1047 C1046 1.391 . S
H1048 C1056 0.950 . S
H1049 C1061 0.950 . S
H1050 C1058 0.950 . S
H1051 C1060 0.950 . S
H1052 C1062 0.950 . S
H1053 C1064 0.950 . S
H1054 C1066 0.950 . S
H1055 C1067 0.950 . S
C1056 H1048 0.950 . S
C1056 C1057 1.386 . S
C1056 C1058 1.391 . S
C1057 C1056 1.386 . S
C1057 C1061 1.393 . S
C1058 H1050 0.950 . S
C1058 C1056 1.391 . S
C1058 C1059 1.400 . S
C1059 C1058 1.400 . S
C1059 C1060 1.398 . S
C1059 C1065 1.491 . S
C1060 H1051 0.950 . S
C1060 C1059 1.398 . S
C1060 C1061 1.391 . S
C1061 H1049 0.950 . S
C1061 C1057 1.393 . S
C1061 C1060 1.391 . S
C1062 H1052 0.950 . S
C1062 C1063 1.386 . S
C1062 C1064 1.391 . S
C1063 C1062 1.386 . S
C1063 C1067 1.393 . S
C1064 H1053 0.950 . S
C1064 C1062 1.391 . S
C1064 C1065 1.400 . S
C1065 C1059 1.491 . S
C1065 C1064 1.400 . S
C1065 C1066 1.398 . S
C1066 H1054 0.950 . S
C1066 C1065 1.398 . S
C1066 C1067 1.391 . S
C1067 H1055 0.950 . S
C1067 C1063 1.393 . S
C1067 C1066 1.391 . S
H1068 C1076 0.950 . S
H1069 C1081 0.950 . S
H1070 C1078 0.950 . S
H1071 C1080 0.950 . S
H1072 C1082 0.950 . S
H1073 C1084 0.950 . S
H1074 C1086 0.950 . S
H1075 C1087 0.950 . S
C1076 H1068 0.950 . S
C1076 C1077 1.386 . S
C1076 C1078 1.391 . S
C1077 C1076 1.386 . S
C1077 C1081 1.393 . S
C1078 H1070 0.950 . S
C1078 C1076 1.391 . S
C1078 C1079 1.400 . S
C1079 C1078 1.400 . S
C1079 C1080 1.398 . S
C1079 C1085 1.491 . S
C1080 H1071 0.950 . S
C1080 C1079 1.398 . S
C1080 C1081 1.391 . S
C1081 H1069 0.950 . S
C1081 C1077 1.393 . S
C1081 C1080 1.391 . S
C1082 H1072 0.950 . S
C1082 C1083 1.386 . S
C1082 C1084 1.391 . S
C1083 C1082 1.386 . S
C1083 C1087 1.393 . S
C1084 H1073 0.950 . S
C1084 C1082 1.391 . S
C1084 C1085 1.400 . S
C1085 C1079 1.491 . S
C1085 C1084 1.400 . S
C1085 C1086 1.398 . S
C1086 H1074 0.950 . S
C1086 C1085 1.398 . S
C1086 C1087 1.391 . S
C1087 H1075 0.950 . S
C1087 C1083 1.393 . S
C1087 C1086 1.391 . S
H1088 C1096 0.950 . S
H1089 C1101 0.950 . S
H1090 C1098 0.950 . S
H1091 C1100 0.950 . S
H1092 C1102 0.950 . S
H1093 C1104 0.950 . S
H1094 C1106 0.950 . S
H1095 C1107 0.950 . S
C1096 H1088 0.950 . S
C1096 C1097 1.386 . S
C1096 C1098 1.391 . S
C1097 C1096 1.386 . S
C1097 C1101 1.393 . S
C1098 H1090 0.950 . S
C1098 C1096 1.391 . S
C1098 C1099 1.400 . S
C1099 C1098 1.400 . S
C1099 C1100 1.398 . S
C1099 C1105 1.491 . S
C1100 H1091 0.950 . S
C1100 C1099 1.398 . S
C1100 C1101 1.391 . S
C1101 H1089 0.950 . S
C1101 C1097 1.393 . S
C1101 C1100 1.391 . S
C1102 H1092 0.950 . S
C1102 C1103 1.386 . S
C1102 C1104 1.391 . S
C1103 C1102 1.386 . S
C1103 C1107 1.393 . S
C1104 H1093 0.950 . S
C1104 C1102 1.391 . S
C1104 C1105 1.400 . S
C1105 C1099 1.491 . S
C1105 C1104 1.400 . S
C1105 C1106 1.398 . S
C1106 H1094 0.950 . S
C1106 C1105 1.398 . S
C1106 C1107 1.391 . S
C1107 H1095 0.950 . S
C1107 C1103 1.393 . S
C1107 C1106 1.391 . S
H1108 C1116 0.950 . S
H1109 C1121 0.950 . S
H1110 C1118 0.950 . S
H1111 C1120 0.950 . S
H1112 C1122 0.950 . S
H1113 C1124 0.950 . S
H1114 C1126 0.950 . S
H1115 C1127 0.950 . S
C1116 H1108 0.950 . S
C1116 C1117 1.386 . S
C1116 C1118 1.391 . S
C1117 C1116 1.386 . S
C1117 C1121 1.393 . S
C1118 H1110 0.950 . S
C1118 C1116 1.391 . S
C1118 C1119 1.400 . S
C1119 C1118 1.400 . S
C1119 C1120 1.398 . S
C1119 C1125 1.491 . S
C1120 H1111 0.950 . S
C1120 C1119 1.398 . S
C1120 C1121 1.391 . S
C1121 H1109 0.950 . S
C1121 C1117 1.393 . S
C1121 C1120 1.391 . S
C1122 H1112 0.950 . S
C1122 C1123 1.386 . S
C1122 C1124 1.391 . S
C1123 C1122 1.386 . S
C1123 C1127 1.393 . S
C1124 H1113 0.950 . S
C1124 C1122 1.391 . S
C1124 C1125 1.400 . S
C1125 C1119 1.491 . S
C1125 C1124 1.400 . S
C1125 C1126 1.398 . S
C1126 H1114 0.950 . S
C1126 C1125 1.398 . S
C1126 C1127 1.391 . S
C1127 H1115 0.950 . S
C1127 C1123 1.393 . S
C1127 C1126 1.391 . S
H1128 C1136 0.950 . S
H1129 C1141 0.950 . S
H1130 C1138 0.950 . S
H1131 C1140 0.950 . S
H1132 C1142 0.950 . S
H1133 C1144 0.950 . S
H1134 C1146 0.950 . S
H1135 C1147 0.950 . S
C1136 H1128 0.950 . S
C1136 C1137 1.386 . S
C1136 C1138 1.391 . S
C1137 C1136 1.386 . S
C1137 C1141 1.393 . S
C1138 H1130 0.950 . S
C1138 C1136 1.391 . S
C1138 C1139 1.400 . S
C1139 C1138 1.400 . S
C1139 C1140 1.398 . S
C1139 C1145 1.491 . S
C1140 H1131 0.950 . S
C1140 C1139 1.398 . S
C1140 C1141 1.391 . S
C1141 H1129 0.950 . S
C1141 C1137 1.393 . S
C1141 C1140 1.391 . S
C1142 H1132 0.950 . S
C1142 C1143 1.386 . S
C1142 C1144 1.391 . S
C1143 C1142 1.386 . S
C1143 C1147 1.393 . S
C1144 H1133 0.950 . S
C1144 C1142 1.391 . S
C1144 C1145 1.400 . S
C1145 C1139 1.491 . S
C1145 C1144 1.400 . S
C1145 C1146 1.398 . S
C1146 H1134 0.950 . S
C1146 C1145 1.398 . S
C1146 C1147 1.391 . S
C1147 H1135 0.950 . S
C1147 C1143 1.393 . S
C1147 C1146 1.391 . S
H1148 C1156 0.950 . S
H1149 C1161 0.950 . S
H1150 C1158 0.950 . S
H1151 C1160 0.950 . S
H1152 C1162 0.950 . S
H1153 C1164 0.950 . S
H1154 C1166 0.950 . S
H1155 C1167 0.950 . S
C1156 H1148 0.950 . S
C1156 C1157 1.386 . S
C1156 C1158 1.391 . S
C1157 C1156 1.386 . S
C1157 C1161 1.393 . S
C1158 H1150 0.950 . S
C1158 C1156 1.391 . S
C1158 C1159 1.400 . S
C1159 C1158 1.400 . S
C1159 C1160 1.398 . S
C1159 C1165 1.491 . S
C1160 H1151 0.950 . S
C1160 C1159 1.398 . S
C1160 C1161 1.391 . S
C1161 H1149 0.950 . S
C1161 C1157 1.393 . S
C1161 C1160 1.391 . S
C1162 H1152 0.950 . S
C1162 C1163 1.386 . S
C1162 C1164 1.391 . S
C1163 C1162 1.386 . S
C1163 C1167 1.393 . S
C1164 H1153 0.950 . S
C1164 C1162 1.391 . S
C1164 C1165 1.400 . S
C1165 C1159 1.491 . S
C1165 C1164 1.400 . S
C1165 C1166 1.398 . S
C1166 H1154 0.950 . S
C1166 C1165 1.398 . S
C1166 C1167 1.391 . S
C1167 H1155 0.950 . S
C1167 C1163 1.393 . S
C1167 C1166 1.391 . S
H1168 C1176 0.950 . S
H1169 C1181 0.950 . S
H1170 C1178 0.950 . S
H1171 C1180 0.950 . S
H1172 C1182 0.950 . S
H1173 C1184 0.950 . S
H1174 C1186 0.950 . S
H1175 C1187 0.950 . S
C1176 H1168 0.950 . S
C1176 C1177 1.386 . S
C1176 C1178 1.391 . S
C1177 C1176 1.386 . S
C1177 C1181 1.393 . S
C1178 H1170 0.950 . S
C1178 C1176 1.391 . S
C1178 C1179 1.400 . S
C1179 C1178 1.400 . S
C1179 C1180 1.398 . S
C1179 C1185 1.491 . S
C1180 H1171 0.950 . S
C1180 C1179 1.398 . S
C1180 C1181 1.391 . S
C1181 H1169 0.950 . S
C1181 C1177 1.393 . S
C1181 C1180 1.391 . S
C1182 H1172 0.950 . S
C1182 C1183 1.386 . S
C1182 C1184 1.391 . S
C1183 C1182 1.386 . S
C1183 C1187 1.393 . S
C1184 H1173 0.950 . S
C1184 C1182 1.391 . S
C1184 C1185 1.400 . S
C1185 C1179 1.491 . S
C1185 C1184 1.400 . S
C1185 C1186 1.398 . S
C1186 H1174 0.950 . S
C1186 C1185 1.398 . S
C1186 C1187 1.391 . S
C1187 H1175 0.950 . S
C1187 C1183 1.393 . S
C1187 C1186 1.391 . S
H1188 C1196 0.950 . S
H1189 C1201 0.950 . S
H1190 C1198 0.950 . S
H1191 C1200 0.950 . S
H1192 C1202 0.950 . S
H1193 C1204 0.950 . S
H1194 C1206 0.950 . S
H1195 C1207 0.950 . S
C1196 H1188 0.950 . S
C1196 C1197 1.386 . S
C1196 C1198 1.391 . S
C1197 C1196 1.386 . S
C1197 C1201 1.393 . S
C1198 H1190 0.950 . S
C1198 C1196 1.391 . S
C1198 C1199 1.400 . S
C1199 C1198 1.400 . S
C1199 C1200 1.398 . S
C1199 C1205 1.491 . S
C1200 H1191 0.950 . S
C1200 C1199 1.398 . S
C1200 C1201 1.391 . S
C1201 H1189 0.950 . S
C1201 C1197 1.393 . S
C1201 C1200 1.391 . S
C1202 H1192 0.950 . S
C1202 C1203 1.386 . S
C1202 C1204 1.391 . S
C1203 C1202 1.386 . S
C1203 C1207 1.393 . S
C1204 H1193 0.950 . S
C1204 C1202 1.391 . S
C1204 C1205 1.400 . S
C1205 C1199 1.491 . S
C1205 C1204 1.400 . S
C1205 C1206 1.398 . S
C1206 H1194 0.950 . S
C1206 C1205 1.398 . S
C1206 C1207 1.391 . S
C1207 H1195 0.950 . S
C1207 C1203 1.393 . S
C1207 C1206 1.391 . S
H1208 C1216 0.950 . S
H1209 C1221 0.950 . S
H1210 C1218 0.950 . S
H1211 C1220 0.950 . S
H1212 C1222 0.950 . S
H1213 C1224 0.950 . S
H1214 C1226 0.950 . S
H1215 C1227 0.950 . S
C1216 H1208 0.950 . S
C1216 C1217 1.386 . S
C1216 C1218 1.391 . S
C1217 C1216 1.386 . S
C1217 C1221 1.393 . S
C1218 H1210 0.950 . S
C1218 C1216 1.391 . S
C1218 C1219 1.400 . S
C1219 C1218 1.400 . S
C1219 C1220 1.398 . S
C1219 C1225 1.491 . S
C1220 H1211 0.950 . S
C1220 C1219 1.398 . S
C1220 C1221 1.391 . S
C1221 H1209 0.950 . S
C1221 C1217 1.393 . S
C1221 C1220 1.391 . S
C1222 H1212 0.950 . S
C1222 C1223 1.386 . S
C1222 C1224 1.391 . S
C1223 C1222 1.386 . S
C1223 C1227 1.393 . S
C1224 H1213 0.950 . S
C1224 C1222 1.391 . S
C1224 C1225 1.400 . S
C1225 C1219 1.491 . S
C1225 C1224 1.400 . S
C1225 C1226 1.398 . S
C1226 H1214 0.950 . S
C1226 C1225 1.398 . S
C1226 C1227 1.391 . S
C1227 H1215 0.950 . S
C1227 C1223 1.393 . S
C1227 C1226 1.391 . S
H1228 C1236 0.950 . S
H1229 C1241 0.950 . S
H1230 C1238 0.950 . S
H1231 C1240 0.950 . S
H1232 C1242 0.950 . S
H1233 C1244 0.950 . S
H1234 C1246 0.950 . S
H1235 C1247 0.950 . S
C1236 H1228 0.950 . S
C1236 C1237 1.386 . S
C1236 C1238 1.391 . S
C1237 C1236 1.386 . S
C1237 C1241 1.393 . S
C1238 H1230 0.950 . S
C1238 C1236 1.391 . S
C1238 C1239 1.400 . S
C1239 C1238 1.400 . S
C1239 C1240 1.398 . S
C1239 C1245 1.491 . S
C1240 H1231 0.950 . S
C1240 C1239 1.398 . S
C1240 C1241 1.391 . S
C1241 H1229 0.950 . S
C1241 C1237 1.393 . S
C1241 C1240 1.391 . S
C1242 H1232 0.950 . S
C1242 C1243 1.386 . S
C1242 C1244 1.391 . S
C1243 C1242 1.386 . S
C1243 C1247 1.393 . S
C1244 H1233 0.950 . S
C1244 C1242 1.391 . S
C1244 C1245 1.400 . S
C1245 C1239 1.491 . S
C1245 C1244 1.400 . S
C1245 C1246 1.398 . S
C1246 H1234 0.950 . S
C1246 C1245 1.398 . S
C1246 C1247 1.391 . S
C1247 H1235 0.950 . S
C1247 C1243 1.393 . S
C1247 C1246 1.391 . S
H1248 C1256 0.950 . S
H1249 C1261 0.950 . S
H1250 C1258 0.950 . S
H1251 C1260 0.950 . S
H1252 C1262 0.950 . S
H1253 C1264 0.950 . S
H1254 C1266 0.950 . S
H1255 C1267 0.950 . S
C1256 H1248 0.950 . S
C1256 C1257 1.386 . S
C1256 C1258 1.391 . S
C1257 C1256 1.386 . S
C1257 C1261 1.393 . S
C1258 H1250 0.950 . S
C1258 C1256 1.391 . S
C1258 C1259 1.400 . S
C1259 C1258 1.400 . S
C1259 C1260 1.398 . S
C1259 C1265 1.491 . S
C1260 H1251 0.950 . S
C1260 C1259 1.398 . S
C1260 C1261 1.391 . S
C1261 H1249 0.950 . S
C1261 C1257 1.393 . S
C1261 C1260 1.391 . S
C1262 H1252 0.950 . S
C1262 C1263 1.386 . S
C1262 C1264 1.391 . S
C1263 C1262 1.386 . S
C1263 C1267 1.393 . S
C1264 H1253 0.950 . S
C1264 C1262 1.391 . S
C1264 C1265 1.400 . S
C1265 C1259 1.491 . S
C1265 C1264 1.400 . S
C1265 C1266 1.398 . S
C1266 H1254 0.950 . S
C1266 C1265 1.398 . S
C1266 C1267 1.391 . S
C1267 H1255 0.950 . S
C1267 C1263 1.393 . S
C1267 C1266 1.391 . S
H1268 C1276 0.950 . S
H1269 C1281 0.950 . S
H1270 C1278 0.950 . S
H1271 C1280 0.950 . S
H1272 C1282 0.950 . S
H1273 C1284 0.950 . S
H1274 C1286 0.950 . S
H1275 C1287 0.950 . S
C1276 H1268 0.950 . S
C1276 C1277 1.386 . S
C1276 C1278 1.391 . S
C1277 C1276 1.386 . S
C1277 C1281 1.393 . S
C1278 H1270 0.950 . S
C1278 C1276 1.391 . S
C1278 C1279 1.400 . S
C1279 C1278 1.400 . S
C1279 C1280 1.398 . S
C1279 C1285 1.491 . S
C1280 H1271 0.950 . S
C1280 C1279 1.398 . S
C1280 C1281 1.391 . S
C1281 H1269 0.950 . S
C1281 C1277 1.393 . S
C1281 C1280 1.391 . S
C1282 H1272 0.950 . S
C1282 C1283 1.386 . S
C1282 C1284 1.391 . S
C1283 C1282 1.386 . S
C1283 C1287 1.393 . S
C1284 H1273 0.950 . S
C1284 C1282 1.391 . S
C1284 C1285 1.400 . S
C1285 C1279 1.491 . S
C1285 C1284 1.400 . S
C1285 C1286 1.398 . S
C1286 H1274 0.950 . S
C1286 C1285 1.398 . S
C1286 C1287 1.391 . S
C1287 H1275 0.950 . S
C1287 C1283 1.393 . S
C1287 C1286 1.391 . S
H1288 C1296 0.950 . S
H1289 C1301 0.950 . S
H1290 C1298 0.950 . S
H1291 C1300 0.950 . S
H1292 C1302 0.950 . S
H1293 C1304 0.950 . S
H1294 C1306 0.950 . S
H1295 C1307 0.950 . S
C1296 H1288 0.950 . S
C1296 C1297 1.386 . S
C1296 C1298 1.391 . S
C1297 C1296 1.386 . S
C1297 C1301 1.393 . S
C1298 H1290 0.950 . S
C1298 C1296 1.391 . S
C1298 C1299 1.400 . S
C1299 C1298 1.400 . S
C1299 C1300 1.398 . S
C1299 C1305 1.491 . S
C1300 H1291 0.950 . S
C1300 C1299 1.398 . S
C1300 C1301 1.391 . S
C1301 H1289 0.950 . S
C1301 C1297 1.393 . S
C1301 C1300 1.391 . S
C1302 H1292 0.950 . S
C1302 C1303 1.386 . S
C1302 C1304 1.391 . S
C1303 C1302 1.386 . S
C1303 C1307 1.393 . S
C1304 H1293 0.950 . S
C1304 C1302 1.391 . S
C1304 C1305 1.400 . S
C1305 C1299 1.491 . S
C1305 C1304 1.400 . S
C1305 C1306 1.398 . S
C1306 H1294 0.950 . S
C1306 C1305 1.398 . S
C1306 C1307 1.391 . S
C1307 H1295 0.950 . S
C1307 C1303 1.393 . S
C1307 C1306 1.391 . S
H1308 C1316 0.950 . S
H1309 C1321 0.950 . S
H1310 C1318 0.950 . S
H1311 C1320 0.950 . S
H1312 C1322 0.950 . S
H1313 C1324 0.950 . S
H1314 C1326 0.950 . S
H1315 C1327 0.950 . S
C1316 H1308 0.950 . S
C1316 C1317 1.386 . S
C1316 C1318 1.391 . S
C1317 C1316 1.386 . S
C1317 C1321 1.393 . S
C1318 H1310 0.950 . S
C1318 C1316 1.391 . S
C1318 C1319 1.400 . S
C1319 C1318 1.400 . S
C1319 C1320 1.398 . S
C1319 C1325 1.491 . S
C1320 H1311 0.950 . S
C1320 C1319 1.398 . S
C1320 C1321 1.391 . S
C1321 H1309 0.950 . S
C1321 C1317 1.393 . S
C1321 C1320 1.391 . S
C1322 H1312 0.950 . S
C1322 C1323 1.386 . S
C1322 C1324 1.391 . S
C1323 C1322 1.386 . S
C1323 C1327 1.393 . S
C1324 H1313 0.950 . S
C1324 C1322 1.391 . S
C1324 C1325 1.400 . S
C1325 C1319 1.491 . S
C1325 C1324 1.400 . S
C1325 C1326 1.398 . S
C1326 H1314 0.950 . S
C1326 C1325 1.398 . S
C1326 C1327 1.391 . S
C1327 H1315 0.950 . S
C1327 C1323 1.393 . S
C1327 C1326 1.391 . S
C377 C16 1.067 . S
C383 C177 1.067 . S
C397 C108 1.044 . S
C403 C39 1.044 . S
C417 C131 1.055 . S
C423 C62 1.055 . S
C437 C85 1.057 . S
C443 C154 1.057 . S
C457 C362 1.030 . S
C463 C200 1.032 . S
C477 C292 1.046 . S
C483 C223 1.046 . S
C497 C315 1.068 . S
C503 C246 1.068 . S
C517 C338 1.045 . S
C523 C269 1.045 . S
C537 C20 1.184 . S
C543 C366 1.195 . S
C557 C43 1.186 . S
C563 C296 1.185 . S
C577 C66 1.175 . S
C583 C319 1.182 . S
C597 C342 1.185 . S
C603 C89 1.163 . S
C617 C227 1.191 . S
C623 C112 1.169 . S
C637 C135 1.176 . S
C643 C250 1.185 . S
C657 C273 1.189 . S
C663 C158 1.167 . S
C677 C181 1.164 . S
C683 C204 1.159 . S
C697 C294 1.464 . S
C703 C17 1.450 . S
C717 C40 1.454 1_455 S
C723 C317 1.465 . S
C737 C340 1.452 . S
C743 C63 1.455 1_545 S
C757 C364 1.454 . S
C763 C86 1.474 . S
C777 C109 1.466 . S
C783 C202 1.460 . S
C797 C132 1.437 1_655 S
C803 C225 1.453 . S
C817 C155 1.457 1_565 S
C823 C248 1.452 . S
C837 C271 1.450 . S
C843 C178 1.455 . S
C857 C201 1.452 . S
C863 C110 1.462 . S
C877 C224 1.444 1_655 S
C883 C133 1.463 . S
C897 C156 1.446 . S
C903 C247 1.429 1_565 S
C917 C270 1.455 . S
C923 C179 1.449 . S
C937 C293 1.459 . S
C943 C18 1.454 . S
C957 C316 1.443 1_455 S
C963 C41 1.447 . S
C977 C64 1.452 . S
C983 C339 1.456 1_545 S
C997 C87 1.497 . S
C1003 C361 1.491 . S
C1017 C19 1.538 . S
C1023 C228 1.524 . S
C1037 C251 1.507 . S
C1043 C42 1.537 . S
C1057 C65 1.537 . S
C1063 C274 1.505 . S
C1077 C88 1.556 . S
C1083 C205 1.542 . S
C1097 C111 1.511 . S
C1103 C365 1.531 . S
C1117 C134 1.539 . S
C1123 C297 1.524 . S
C1137 C157 1.543 . S
C1143 C320 1.528 . S
C1157 C343 1.513 . S
C1163 C180 1.542 . S
C1177 C44 1.513 . S
C1183 C203 1.536 . S
C1197 C67 1.515 . S
C1203 C226 1.531 . S
C1217 C249 1.548 . S
C1223 C90 1.520 . S
C1237 C272 1.537 . S
C1243 C21 1.522 . S
C1257 C182 1.508 . S
C1263 C295 1.540 . S
C1277 C113 1.518 . S
C1283 C318 1.532 . S
C1297 C136 1.524 . S
C1303 C341 1.539 . S
C1317 C159 1.520 . S
C1323 C363 1.557 . S
