# Generated by pormake.
# Topology uka, (4)-cn, num edge types: 1
# Building blocks:
#     Node 0, Type 0, BuildingBlock: ICAMEG_clean_sbu_1, # of connection points: 4
#     Node 1, Type 0, BuildingBlock: ICAMEG_clean_sbu_1, # of connection points: 4
#     Node 2, Type 0, BuildingBlock: ICAMEG_clean_sbu_1, # of connection points: 4
#     Node 3, Type 0, BuildingBlock: ICAMEG_clean_sbu_1, # of connection points: 4
#     Node 4, Type 0, BuildingBlock: ICAMEG_clean_sbu_1, # of connection points: 4
#     Node 5, Type 0, BuildingBlock: ICAMEG_clean_sbu_1, # of connection points: 4
#     Node 6, Type 0, BuildingBlock: ICAMEG_clean_sbu_1, # of connection points: 4
#     Node 7, Type 0, BuildingBlock: ICAMEG_clean_sbu_1, # of connection points: 4
#     Node 8, Type 0, BuildingBlock: ICAMEG_clean_sbu_1, # of connection points: 4
#     Node 9, Type 0, BuildingBlock: ICAMEG_clean_sbu_1, # of connection points: 4
#     Node 10, Type 0, BuildingBlock: ICAMEG_clean_sbu_1, # of connection points: 4
#     Node 11, Type 0, BuildingBlock: ICAMEG_clean_sbu_1, # of connection points: 4
#     Node 12, Type 0, BuildingBlock: ICAMEG_clean_sbu_1, # of connection points: 4
#     Node 13, Type 0, BuildingBlock: ICAMEG_clean_sbu_1, # of connection points: 4
#     Node 14, Type 0, BuildingBlock: ICAMEG_clean_sbu_1, # of connection points: 4
#     Node 15, Type 0, BuildingBlock: ICAMEG_clean_sbu_1, # of connection points: 4
#     Node 16, Type 0, BuildingBlock: ICAMEG_clean_sbu_1, # of connection points: 4
#     Node 17, Type 0, BuildingBlock: ICAMEG_clean_sbu_1, # of connection points: 4
#     Node 18, Type 0, BuildingBlock: ICAMEG_clean_sbu_1, # of connection points: 4
#     Node 19, Type 0, BuildingBlock: ICAMEG_clean_sbu_1, # of connection points: 4
#     Node 20, Type 0, BuildingBlock: ICAMEG_clean_sbu_1, # of connection points: 4
#     Node 21, Type 0, BuildingBlock: ICAMEG_clean_sbu_1, # of connection points: 4
#     Node 22, Type 0, BuildingBlock: ICAMEG_clean_sbu_1, # of connection points: 4
#     Node 23, Type 0, BuildingBlock: ICAMEG_clean_sbu_1, # of connection points: 4
#     Node 24, Type 0, BuildingBlock: ICAMEG_clean_sbu_1, # of connection points: 4
#     Node 25, Type 0, BuildingBlock: ICAMEG_clean_sbu_1, # of connection points: 4
#     Node 26, Type 0, BuildingBlock: ICAMEG_clean_sbu_1, # of connection points: 4
#     Node 27, Type 0, BuildingBlock: ICAMEG_clean_sbu_1, # of connection points: 4
#     Node 28, Type 0, BuildingBlock: ICAMEG_clean_sbu_1, # of connection points: 4
#     Node 29, Type 0, BuildingBlock: ICAMEG_clean_sbu_1, # of connection points: 4
#     Node 30, Type 0, BuildingBlock: ICAMEG_clean_sbu_1, # of connection points: 4
#     Node 31, Type 0, BuildingBlock: ICAMEG_clean_sbu_1, # of connection points: 4
#     Edge 32, Type (0, 0), BuildingBlock: CIFDUS_clean_linker_0, # of connection points: 2
#     Edge 33, Type (0, 0), BuildingBlock: CIFDUS_clean_linker_0, # of connection points: 2
#     Edge 34, Type (0, 0), BuildingBlock: CIFDUS_clean_linker_0, # of connection points: 2
#     Edge 35, Type (0, 0), BuildingBlock: CIFDUS_clean_linker_0, # of connection points: 2
#     Edge 36, Type (0, 0), BuildingBlock: CIFDUS_clean_linker_0, # of connection points: 2
#     Edge 37, Type (0, 0), BuildingBlock: CIFDUS_clean_linker_0, # of connection points: 2
#     Edge 38, Type (0, 0), BuildingBlock: CIFDUS_clean_linker_0, # of connection points: 2
#     Edge 39, Type (0, 0), BuildingBlock: CIFDUS_clean_linker_0, # of connection points: 2
#     Edge 40, Type (0, 0), BuildingBlock: CIFDUS_clean_linker_0, # of connection points: 2
#     Edge 41, Type (0, 0), BuildingBlock: CIFDUS_clean_linker_0, # of connection points: 2
#     Edge 42, Type (0, 0), BuildingBlock: CIFDUS_clean_linker_0, # of connection points: 2
#     Edge 43, Type (0, 0), BuildingBlock: CIFDUS_clean_linker_0, # of connection points: 2
#     Edge 44, Type (0, 0), BuildingBlock: CIFDUS_clean_linker_0, # of connection points: 2
#     Edge 45, Type (0, 0), BuildingBlock: CIFDUS_clean_linker_0, # of connection points: 2
#     Edge 46, Type (0, 0), BuildingBlock: CIFDUS_clean_linker_0, # of connection points: 2
#     Edge 47, Type (0, 0), BuildingBlock: CIFDUS_clean_linker_0, # of connection points: 2
#     Edge 48, Type (0, 0), BuildingBlock: CIFDUS_clean_linker_0, # of connection points: 2
#     Edge 49, Type (0, 0), BuildingBlock: CIFDUS_clean_linker_0, # of connection points: 2
#     Edge 50, Type (0, 0), BuildingBlock: CIFDUS_clean_linker_0, # of connection points: 2
#     Edge 51, Type (0, 0), BuildingBlock: CIFDUS_clean_linker_0, # of connection points: 2
#     Edge 52, Type (0, 0), BuildingBlock: CIFDUS_clean_linker_0, # of connection points: 2
#     Edge 53, Type (0, 0), BuildingBlock: CIFDUS_clean_linker_0, # of connection points: 2
#     Edge 54, Type (0, 0), BuildingBlock: CIFDUS_clean_linker_0, # of connection points: 2
#     Edge 55, Type (0, 0), BuildingBlock: CIFDUS_clean_linker_0, # of connection points: 2
#     Edge 56, Type (0, 0), BuildingBlock: CIFDUS_clean_linker_0, # of connection points: 2
#     Edge 57, Type (0, 0), BuildingBlock: CIFDUS_clean_linker_0, # of connection points: 2
#     Edge 58, Type (0, 0), BuildingBlock: CIFDUS_clean_linker_0, # of connection points: 2
#     Edge 59, Type (0, 0), BuildingBlock: CIFDUS_clean_linker_0, # of connection points: 2
#     Edge 60, Type (0, 0), BuildingBlock: CIFDUS_clean_linker_0, # of connection points: 2
#     Edge 61, Type (0, 0), BuildingBlock: CIFDUS_clean_linker_0, # of connection points: 2
#     Edge 62, Type (0, 0), BuildingBlock: CIFDUS_clean_linker_0, # of connection points: 2
#     Edge 63, Type (0, 0), BuildingBlock: CIFDUS_clean_linker_0, # of connection points: 2
#     Edge 64, Type (0, 0), BuildingBlock: CIFDUS_clean_linker_0, # of connection points: 2
#     Edge 65, Type (0, 0), BuildingBlock: CIFDUS_clean_linker_0, # of connection points: 2
#     Edge 66, Type (0, 0), BuildingBlock: CIFDUS_clean_linker_0, # of connection points: 2
#     Edge 67, Type (0, 0), BuildingBlock: CIFDUS_clean_linker_0, # of connection points: 2
#     Edge 68, Type (0, 0), BuildingBlock: CIFDUS_clean_linker_0, # of connection points: 2
#     Edge 69, Type (0, 0), BuildingBlock: CIFDUS_clean_linker_0, # of connection points: 2
#     Edge 70, Type (0, 0), BuildingBlock: CIFDUS_clean_linker_0, # of connection points: 2
#     Edge 71, Type (0, 0), BuildingBlock: CIFDUS_clean_linker_0, # of connection points: 2
#     Edge 72, Type (0, 0), BuildingBlock: CIFDUS_clean_linker_0, # of connection points: 2
#     Edge 73, Type (0, 0), BuildingBlock: CIFDUS_clean_linker_0, # of connection points: 2
#     Edge 74, Type (0, 0), BuildingBlock: CIFDUS_clean_linker_0, # of connection points: 2
#     Edge 75, Type (0, 0), BuildingBlock: CIFDUS_clean_linker_0, # of connection points: 2
#     Edge 76, Type (0, 0), BuildingBlock: CIFDUS_clean_linker_0, # of connection points: 2
#     Edge 77, Type (0, 0), BuildingBlock: CIFDUS_clean_linker_0, # of connection points: 2
#     Edge 78, Type (0, 0), BuildingBlock: CIFDUS_clean_linker_0, # of connection points: 2
#     Edge 79, Type (0, 0), BuildingBlock: CIFDUS_clean_linker_0, # of connection points: 2
#     Edge 80, Type (0, 0), BuildingBlock: CIFDUS_clean_linker_0, # of connection points: 2
#     Edge 81, Type (0, 0), BuildingBlock: CIFDUS_clean_linker_0, # of connection points: 2
#     Edge 82, Type (0, 0), BuildingBlock: CIFDUS_clean_linker_0, # of connection points: 2
#     Edge 83, Type (0, 0), BuildingBlock: CIFDUS_clean_linker_0, # of connection points: 2
#     Edge 84, Type (0, 0), BuildingBlock: CIFDUS_clean_linker_0, # of connection points: 2
#     Edge 85, Type (0, 0), BuildingBlock: CIFDUS_clean_linker_0, # of connection points: 2
#     Edge 86, Type (0, 0), BuildingBlock: CIFDUS_clean_linker_0, # of connection points: 2
#     Edge 87, Type (0, 0), BuildingBlock: CIFDUS_clean_linker_0, # of connection points: 2
#     Edge 88, Type (0, 0), BuildingBlock: CIFDUS_clean_linker_0, # of connection points: 2
#     Edge 89, Type (0, 0), BuildingBlock: CIFDUS_clean_linker_0, # of connection points: 2
#     Edge 90, Type (0, 0), BuildingBlock: CIFDUS_clean_linker_0, # of connection points: 2
#     Edge 91, Type (0, 0), BuildingBlock: CIFDUS_clean_linker_0, # of connection points: 2
#     Edge 92, Type (0, 0), BuildingBlock: CIFDUS_clean_linker_0, # of connection points: 2
#     Edge 93, Type (0, 0), BuildingBlock: CIFDUS_clean_linker_0, # of connection points: 2
#     Edge 94, Type (0, 0), BuildingBlock: CIFDUS_clean_linker_0, # of connection points: 2
#     Edge 95, Type (0, 0), BuildingBlock: CIFDUS_clean_linker_0, # of connection points: 2
# Relax obj value: 0.036
# Max RMSD: 0.067
# Mean RMSD: 0.067
data_MOF--net-uka--node1-ICAMEG_clean_sbu_1--edge1-CIFDUS_clean_linker_0
_symmetry_space_group_name_H-M    P1
_symmetry_Int_Tables_number       1
_symmetry_cell_setting            triclinic
loop_
_symmetry_equiv_pos_as_xyz
'x, y, z'
_cell_length_a     55.758401
_cell_length_b     55.800507
_cell_length_c     41.378839
_cell_angle_alpha  90.000638
_cell_angle_beta   89.989482
_cell_angle_gamma 90.041313
loop_
_atom_site_label
_atom_site_type_symbol
_atom_site_fract_x
_atom_site_fract_y
_atom_site_fract_z
_atom_type_partial_charge
Co0 Co 0.10428 0.28292 0.24894 0.0
Co1 Co 0.14872 0.29342 0.30532 0.0
O2 O 0.13718 0.29142 0.26055 0.0
C3 C 0.11803 0.32271 0.20136 0.0
O4 O 0.1402 0.32461 0.21166 0.0
C5 C 0.18327 0.26099 0.27282 0.0
O6 O 0.16468 0.24864 0.26268 0.0
O7 O 0.13584 0.26091 0.31544 0.0
O8 O 0.10309 0.258 0.28396 0.0
H9 H 0.14269 0.28567 0.42605 0.0
H10 H 0.14439 0.28064 0.20089 0.0
O11 O 0.10355 0.30755 0.21361 0.0
H12 H 0.10652 0.20092 0.19836 0.0
H13 H 0.03562 0.27218 0.17163 0.0
H14 H 0.05976 0.27365 0.2863 0.0
H15 H 0.0909 0.23249 0.23424 0.0
H16 H 0.07815 0.27639 0.18673 0.0
O17 O 0.18012 0.27912 0.29108 0.0
H18 H 0.12781 0.28386 0.37 0.0
H19 H 0.19567 0.30665 0.33487 0.0
H20 H 0.01694 0.26915 0.2722 0.0
H21 H 0.16035 0.24981 0.16438 0.0
H22 H 0.00466 0.26953 0.21441 0.0
H23 H 0.14146 0.20952 0.16296 0.0
O24 O 0.09174 0.30776 0.27887 0.0
H25 H 0.19473 0.35432 0.24062 0.0
H26 H 0.14509 0.34107 0.33763 0.0
H27 H 0.16032 0.38162 0.32581 0.0
H28 H 0.18539 0.38845 0.27705 0.0
H29 H 0.17888 0.31412 0.25311 0.0
H30 H 0.21135 0.30856 0.39055 0.0
H31 H 0.18476 0.2981 0.43662 0.0
O32 O 0.1177 0.30799 0.32038 0.0
C33 C 0.11654 0.25039 0.30678 0.0
C34 C 0.15444 0.29034 0.40619 0.0
C35 C 0.19298 0.30315 0.38626 0.0
N36 N 0.16081 0.29525 0.3492 0.0
C37 C 0.14609 0.2894 0.3744 0.0
C38 C 0.18402 0.30197 0.35478 0.0
C39 C 0.17805 0.29728 0.4121 0.0
C40 C 0.13573 0.26342 0.20012 0.0
N41 N 0.11644 0.25863 0.21944 0.0
C42 C 0.145 0.2459 0.17951 0.0
C43 C 0.13444 0.22327 0.17878 0.0
C44 C 0.11486 0.21844 0.19864 0.0
C45 C 0.10611 0.23639 0.21898 0.0
C46 C 0.04077 0.27227 0.19685 0.0
C47 C 0.05457 0.27293 0.26115 0.0
C48 C 0.06483 0.27461 0.20557 0.0
N49 N 0.07143 0.27526 0.2374 0.0
C50 C 0.03031 0.27055 0.25331 0.0
C51 C 0.02341 0.2706 0.22092 0.0
C52 C 0.09793 0.31415 0.30722 0.0
C53 C 0.18383 0.35158 0.26195 0.0
C54 C 0.1558 0.34392 0.3162 0.0
C55 C 0.16447 0.36691 0.30972 0.0
C56 C 0.17857 0.37072 0.28238 0.0
N57 N 0.16103 0.32523 0.29603 0.0
C58 C 0.17486 0.32883 0.26921 0.0
Co59 Co 0.96893 0.8549 0.50502 0.0
Co60 Co 0.9595 0.90065 0.55964 0.0
O61 O 0.96193 0.88838 0.51524 0.0
C62 C 0.93054 0.86978 0.45666 0.0
O63 O 0.92647 0.89023 0.47126 0.0
C64 C 0.99411 0.93289 0.52723 0.0
O65 O 0.00562 0.91344 0.51839 0.0
O66 O 0.99122 0.88674 0.57125 0.0
O67 O 0.99252 0.853 0.54164 0.0
H68 H 0.96454 0.89625 0.68078 0.0
H69 H 0.97439 0.89354 0.45602 0.0
O70 O 0.94604 0.85512 0.46761 0.0
H71 H 0.05245 0.85224 0.45881 0.0
H72 H 0.97818 0.78339 0.43192 0.0
H73 H 0.97435 0.81127 0.54487 0.0
H74 H 0.01907 0.83857 0.49327 0.0
H75 H 0.97618 0.82657 0.44432 0.0
O76 O 0.97549 0.93115 0.54498 0.0
H77 H 0.96685 0.88042 0.62524 0.0
H78 H 0.94777 0.94852 0.58738 0.0
H79 H 0.97665 0.76795 0.53353 0.0
H80 H 0.00712 0.90764 0.42087 0.0
H81 H 0.97733 0.75378 0.47672 0.0
H82 H 0.04656 0.88701 0.42219 0.0
O83 O 0.94236 0.84436 0.53356 0.0
H84 H 0.90187 0.94904 0.49273 0.0
H85 H 0.91105 0.89886 0.59002 0.0
H86 H 0.8714 0.91573 0.57678 0.0
H87 H 0.86663 0.9411 0.52789 0.0
H88 H 0.94109 0.93148 0.50654 0.0
H89 H 0.94538 0.96515 0.64252 0.0
H90 H 0.95374 0.93893 0.6897 0.0
O91 O 0.94352 0.87031 0.57504 0.0
C92 C 1.00062 0.86662 0.56395 0.0
C93 C 0.96079 0.90785 0.66043 0.0
C94 C 0.95008 0.94652 0.63895 0.0
N95 N 0.95733 0.91348 0.60311 0.0
C96 C 0.96202 0.89896 0.62892 0.0
C97 C 0.95151 0.93702 0.60778 0.0
C98 C 0.95476 0.9318 0.66541 0.0
C99 C 0.99137 0.88429 0.45655 0.0
N100 N 0.99477 0.86522 0.47675 0.0
C101 C 0.0099 0.89244 0.43666 0.0
C102 C 0.03203 0.88089 0.43746 0.0
C103 C 0.03536 0.8614 0.45803 0.0
C104 C 0.01643 0.8538 0.47762 0.0
C105 C 0.97758 0.78938 0.45678 0.0
C106 C 0.97562 0.80527 0.52009 0.0
C107 C 0.97647 0.8138 0.46397 0.0
N108 N 0.97512 0.82145 0.49531 0.0
C109 C 0.97674 0.78071 0.51382 0.0
C110 C 0.97732 0.77277 0.48193 0.0
C111 C 0.93639 0.85081 0.56195 0.0
C112 C 0.90372 0.93802 0.51411 0.0
C113 C 0.90908 0.90963 0.56848 0.0
C114 C 0.8866 0.91926 0.56122 0.0
C115 C 0.88395 0.93353 0.53382 0.0
N116 N 0.92838 0.91406 0.54899 0.0
C117 C 0.92592 0.9281 0.52214 0.0
Co118 Co 0.39521 0.71718 0.76246 0.0
Co119 Co 0.34804 0.70668 0.81389 0.0
O120 O 0.36175 0.70946 0.77065 0.0
C121 C 0.38959 0.67293 0.7214 0.0
O122 O 0.38286 0.66017 0.74649 0.0
C123 C 0.31537 0.73975 0.77955 0.0
O124 O 0.33455 0.75218 0.77185 0.0
O125 O 0.36039 0.73903 0.82582 0.0
O126 O 0.39579 0.74062 0.79943 0.0
H127 H 0.34721 0.71293 0.93508 0.0
H128 H 0.35869 0.72146 0.71065 0.0
O129 O 0.39501 0.69495 0.7246 0.0
H130 H 0.39666 0.80111 0.71789 0.0
H131 H 0.46721 0.72754 0.69078 0.0
H132 H 0.43847 0.72322 0.80337 0.0
H133 H 0.4101 0.76799 0.75299 0.0
H134 H 0.42398 0.72506 0.70261 0.0
O135 O 0.31741 0.72105 0.79704 0.0
H136 H 0.36513 0.71564 0.88071 0.0
H137 H 0.29978 0.69257 0.83831 0.0
H138 H 0.48194 0.72587 0.79258 0.0
H139 H 0.34482 0.75397 0.67487 0.0
H140 H 0.49652 0.72688 0.73583 0.0
H141 H 0.36379 0.79418 0.67846 0.0
O142 O 0.40578 0.69085 0.79182 0.0
H143 H 0.30813 0.64613 0.74181 0.0
H144 H 0.34972 0.65874 0.84561 0.0
H145 H 0.33609 0.61814 0.83079 0.0
H146 H 0.31508 0.61165 0.77858 0.0
H147 H 0.32221 0.6864 0.75747 0.0
H148 H 0.28103 0.68973 0.89218 0.0
H149 H 0.30483 0.69988 0.94106 0.0
O150 O 0.37836 0.69234 0.8315 0.0
C151 C 0.38074 0.74868 0.82011 0.0
C152 C 0.33666 0.7084 0.91398 0.0
C153 C 0.29952 0.69541 0.8899 0.0
N154 N 0.33359 0.70415 0.85641 0.0
C155 C 0.34675 0.70986 0.88315 0.0
C156 C 0.31022 0.6971 0.85945 0.0
C157 C 0.31288 0.7011 0.91731 0.0
C158 C 0.3671 0.73888 0.71225 0.0
N159 N 0.38507 0.7429 0.73405 0.0
C160 C 0.35914 0.75723 0.69196 0.0
C161 C 0.36978 0.77979 0.69401 0.0
C162 C 0.38821 0.7837 0.71615 0.0
C163 C 0.39567 0.76492 0.73606 0.0
C164 C 0.46106 0.72678 0.71557 0.0
C165 C 0.44469 0.72455 0.77868 0.0
C166 C 0.43659 0.72543 0.72244 0.0
N167 N 0.42871 0.72393 0.75367 0.0
C168 C 0.46931 0.72586 0.77272 0.0
C169 C 0.47749 0.72656 0.7409 0.0
C170 C 0.39865 0.68568 0.82028 0.0
C171 C 0.31719 0.64874 0.76467 0.0
C172 C 0.34063 0.65605 0.82282 0.0
C173 C 0.33292 0.63302 0.81459 0.0
C174 C 0.32113 0.6294 0.78529 0.0
N175 N 0.33662 0.67494 0.80251 0.0
C176 C 0.32513 0.67152 0.77372 0.0
Co177 Co 0.53386 0.14349 0.01277 0.0
Co178 Co 0.54424 0.1021 0.07239 0.0
O179 O 0.54201 0.11134 0.027 0.0
C180 C 0.57914 0.13685 0.97437 0.0
O181 O 0.59153 0.1335 1.00098 0.0
C182 C 0.51264 0.06584 0.04216 0.0
O183 O 0.49987 0.08374 0.03088 0.0
O184 O 0.51159 0.11511 0.08149 0.0
O185 O 0.51027 0.14751 0.04917 0.0
H186 H 0.53701 0.1136 0.19248 0.0
H187 H 0.53093 0.10242 0.96755 0.0
O188 O 0.55658 0.14021 0.97559 0.0
H189 H 0.45006 0.1381 0.96786 0.0
H190 H 0.52029 0.20728 0.92891 0.0
H191 H 0.52755 0.19026 0.04547 0.0
H192 H 0.48263 0.15588 1.00031 0.0
H193 H 0.52522 0.16581 0.9483 0.0
O194 O 0.53044 0.06999 0.06066 0.0
H195 H 0.53484 0.12585 0.13532 0.0
H196 H 0.55796 0.05678 0.10568 0.0
H197 H 0.52301 0.23205 0.0271 0.0
H198 H 0.499 0.08416 0.93442 0.0
H199 H 0.51975 0.24076 0.96834 0.0
H200 H 0.45818 0.10196 0.93457 0.0
O201 O 0.55982 0.15714 0.04024 0.0
H202 H 0.6062 0.05635 0.00933 0.0
H203 H 0.59172 0.10722 0.10481 0.0
H204 H 0.63265 0.09273 0.09353 0.0
H205 H 0.64009 0.06706 0.04552 0.0
H206 H 0.56559 0.07136 0.02136 0.0
H207 H 0.56025 0.04369 0.16255 0.0
H208 H 0.5498 0.07223 0.20641 0.0
O209 O 0.5583 0.13394 0.08461 0.0
C210 C 0.5021 0.13486 0.07252 0.0
C211 C 0.54166 0.10101 0.1736 0.0
C212 C 0.55466 0.06177 0.15679 0.0
N213 N 0.54632 0.09208 0.1172 0.0
C214 C 0.5405 0.10787 0.14118 0.0
C215 C 0.55326 0.06925 0.12463 0.0
C216 C 0.54881 0.07779 0.18139 0.0
C217 C 0.51324 0.11034 0.9676 0.0
N218 N 0.50856 0.13007 0.98612 0.0
C219 C 0.49523 0.09989 0.94884 0.0
C220 C 0.47232 0.10986 0.94898 0.0
C221 C 0.46774 0.13011 0.9677 0.0
C222 C 0.48619 0.14003 0.98621 0.0
C223 C 0.52175 0.2037 0.95455 0.0
C224 C 0.5257 0.1939 0.01994 0.0
C225 C 0.52448 0.18025 0.96569 0.0
N226 N 0.52657 0.17563 0.99802 0.0
C227 C 0.52323 0.2176 0.00966 0.0
C228 C 0.52138 0.22248 0.97671 0.0
C229 C 0.56521 0.15272 0.06959 0.0
C230 C 0.60318 0.06746 0.03038 0.0
C231 C 0.59481 0.09609 0.08384 0.0
C232 C 0.61803 0.08791 0.0776 0.0
C233 C 0.62219 0.0735 0.05067 0.0
N234 N 0.57624 0.09001 0.06388 0.0
C235 C 0.5802 0.07595 0.03738 0.0
Co236 Co 0.10257 0.7152 0.23027 0.0
Co237 Co 0.15487 0.70428 0.19086 0.0
O238 O 0.1373 0.71081 0.23075 0.0
C239 C 0.10933 0.68124 0.28549 0.0
O240 O 0.12148 0.66664 0.26674 0.0
C241 C 0.18405 0.74219 0.22265 0.0
O242 O 0.16426 0.75465 0.22616 0.0
O243 O 0.14221 0.73457 0.1718 0.0
O244 O 0.10361 0.73058 0.1864 0.0
H245 H 0.1651 0.69902 0.07042 0.0
H246 H 0.13098 0.73376 0.28545 0.0
O247 O 0.10065 0.70061 0.27426 0.0
H248 H 0.08889 0.80405 0.2408 0.0
H249 H 0.02198 0.73076 0.28111 0.0
H250 H 0.06447 0.70827 0.18113 0.0
H251 H 0.08304 0.76399 0.21692 0.0
H252 H 0.06621 0.72953 0.27969 0.0
O253 O 0.18341 0.72182 0.20876 0.0
H254 H 0.1429 0.70614 0.12106 0.0
H255 H 0.20529 0.69029 0.17592 0.0
H256 H 0.02031 0.7094 0.18147 0.0
H257 H 0.13714 0.77346 0.31032 0.0
H258 H 0.99875 0.72021 0.23189 0.0
H259 H 0.11607 0.80897 0.2879 0.0
O260 O 0.09852 0.6833 0.20985 0.0
H261 H 0.19109 0.6541 0.27901 0.0
H262 H 0.15822 0.65354 0.16837 0.0
H263 H 0.1724 0.61575 0.19264 0.0
H264 H 0.18903 0.61589 0.24833 0.0
H265 H 0.17652 0.69145 0.2539 0.0
H266 H 0.22823 0.68321 0.12586 0.0
H267 H 0.20809 0.68746 0.07262 0.0
O268 O 0.12688 0.68618 0.17186 0.0
C269 C 0.1201 0.7401 0.16926 0.0
C270 C 0.17406 0.69703 0.09347 0.0
C271 C 0.20949 0.68819 0.12458 0.0
N272 N 0.17272 0.69843 0.15142 0.0
C273 C 0.16156 0.70097 0.12223 0.0
C274 C 0.19642 0.69227 0.15285 0.0
C275 C 0.19818 0.69057 0.09472 0.0
C276 C 0.12157 0.74909 0.27576 0.0
N277 N 0.10662 0.74654 0.24984 0.0
C278 C 0.1252 0.77154 0.28986 0.0
C279 C 0.1134 0.79146 0.27724 0.0
C280 C 0.09816 0.78871 0.25081 0.0
C281 C 0.09496 0.76599 0.23734 0.0
C282 C 0.03119 0.72584 0.25906 0.0
C283 C 0.05527 0.71339 0.20305 0.0
C284 C 0.05622 0.72513 0.2581 0.0
N285 N 0.06794 0.71876 0.23038 0.0
C286 C 0.03024 0.7139 0.20311 0.0
C287 C 0.01816 0.71997 0.23142 0.0
C288 C 0.10746 0.67706 0.1828 0.0
C289 C 0.18395 0.65382 0.25469 0.0
C290 C 0.16537 0.65374 0.19265 0.0
C291 C 0.17342 0.63229 0.20624 0.0
C292 C 0.18276 0.63238 0.23748 0.0
N293 N 0.16666 0.6747 0.20965 0.0
C294 C 0.17576 0.67493 0.24031 0.0
Co295 Co 0.5412 0.85138 0.48265 0.0
Co296 Co 0.55851 0.89955 0.43622 0.0
O297 O 0.55252 0.88445 0.47841 0.0
C298 C 0.57628 0.85875 0.53852 0.0
O299 O 0.58142 0.88066 0.52938 0.0
C300 C 0.529 0.93565 0.47094 0.0
O301 O 0.51394 0.91836 0.47815 0.0
O302 O 0.52523 0.89213 0.4221 0.0
O303 O 0.51933 0.85568 0.44415 0.0
H304 H 0.55659 0.90579 0.315 0.0
H305 H 0.53639 0.88742 0.53589 0.0
O306 O 0.56198 0.84576 0.52193 0.0
H307 H 0.4557 0.85306 0.52163 0.0
H308 H 0.52172 0.7752 0.54233 0.0
H309 H 0.5325 0.81264 0.43539 0.0
H310 H 0.48944 0.8391 0.48817 0.0
H311 H 0.52818 0.8188 0.53757 0.0
O312 O 0.5477 0.93113 0.45434 0.0
H313 H 0.54979 0.88632 0.36768 0.0
H314 H 0.57948 0.94643 0.41622 0.0
H315 H 0.52582 0.76906 0.43908 0.0
H316 H 0.50333 0.90163 0.57013 0.0
H317 H 0.52174 0.74994 0.4929 0.0
H318 H 0.46254 0.88451 0.56311 0.0
O319 O 0.56789 0.83997 0.45454 0.0
H320 H 0.62156 0.9311 0.51195 0.0
H321 H 0.60684 0.89172 0.40714 0.0
H322 H 0.64838 0.89994 0.42425 0.0
H323 H 0.65596 0.91982 0.47698 0.0
H324 H 0.58031 0.92227 0.49408 0.0
H325 H 0.58648 0.96666 0.36409 0.0
H326 H 0.57506 0.94629 0.31297 0.0
O327 O 0.56927 0.86847 0.41657 0.0
C328 C 0.51334 0.87268 0.42496 0.0
C329 C 0.56166 0.91485 0.3371 0.0
C330 C 0.5784 0.94902 0.36465 0.0
N331 N 0.56422 0.91517 0.39501 0.0
C332 C 0.55787 0.90388 0.367 0.0
C333 C 0.57432 0.9375 0.39411 0.0
C334 C 0.57201 0.93757 0.33598 0.0
C335 C 0.5189 0.87953 0.53291 0.0
N336 N 0.51505 0.86217 0.51019 0.0
C337 C 0.50014 0.88781 0.55229 0.0
C338 C 0.47725 0.87824 0.54829 0.0
C339 C 0.4734 0.86062 0.52502 0.0
C340 C 0.49259 0.85281 0.50607 0.0
C341 C 0.52389 0.78332 0.51876 0.0
C342 C 0.52972 0.80459 0.45885 0.0
C343 C 0.5275 0.808 0.5159 0.0
N344 N 0.53085 0.81826 0.48622 0.0
C345 C 0.52614 0.77988 0.46079 0.0
C346 C 0.52369 0.76917 0.49101 0.0
C347 C 0.57398 0.8474 0.42664 0.0
C348 C 0.6185 0.92241 0.48893 0.0
C349 C 0.60998 0.90014 0.43028 0.0
C350 C 0.63355 0.90487 0.43975 0.0
C351 C 0.63779 0.91606 0.46932 0.0
N352 N 0.59115 0.90636 0.4497 0.0
C353 C 0.59517 0.91742 0.47864 0.0
Co354 Co 0.39446 0.28548 0.73672 0.0
Co355 Co 0.34513 0.29726 0.68994 0.0
O356 O 0.36038 0.29257 0.73215 0.0
C357 C 0.38686 0.32535 0.78439 0.0
O358 O 0.3728 0.33662 0.764 0.0
C359 C 0.31397 0.26222 0.7235 0.0
O360 O 0.33343 0.24972 0.72942 0.0
O361 O 0.35744 0.26578 0.67427 0.0
O362 O 0.39403 0.26494 0.69687 0.0
H363 H 0.34054 0.29667 0.56863 0.0
H364 H 0.361 0.27668 0.79097 0.0
O365 O 0.39613 0.30525 0.77696 0.0
H366 H 0.39964 0.19877 0.76991 0.0
H367 H 0.47083 0.27125 0.79862 0.0
H368 H 0.43515 0.28388 0.69096 0.0
H369 H 0.4107 0.23449 0.73814 0.0
H370 H 0.42693 0.27401 0.79216 0.0
O371 O 0.31535 0.28151 0.70712 0.0
H372 H 0.36017 0.29153 0.62156 0.0
H373 H 0.29599 0.31185 0.66955 0.0
H374 H 0.47906 0.28089 0.69628 0.0
H375 H 0.34953 0.24149 0.82362 0.0
H376 H 0.49718 0.27559 0.7505 0.0
H377 H 0.36885 0.20216 0.81307 0.0
O378 O 0.40266 0.31412 0.71059 0.0
H379 H 0.30538 0.35297 0.76893 0.0
H380 H 0.34536 0.34682 0.66294 0.0
H381 H 0.33121 0.38621 0.68206 0.0
H382 H 0.31099 0.38945 0.73537 0.0
H383 H 0.32009 0.31399 0.74909 0.0
H384 H 0.27559 0.31705 0.61713 0.0
H385 H 0.29793 0.30953 0.56618 0.0
O386 O 0.37459 0.31317 0.67183 0.0
C387 C 0.37857 0.25716 0.67662 0.0
C388 C 0.33064 0.3001 0.59065 0.0
C389 C 0.29418 0.31149 0.61788 0.0
N390 N 0.32932 0.3016 0.6486 0.0
C391 C 0.34169 0.29729 0.6207 0.0
C392 C 0.30581 0.30848 0.64749 0.0
C393 C 0.30672 0.30728 0.5893 0.0
C394 C 0.36957 0.25965 0.78637 0.0
N395 N 0.38639 0.25759 0.76252 0.0
C396 C 0.36297 0.23978 0.80488 0.0
C397 C 0.37379 0.21771 0.79892 0.0
C398 C 0.39104 0.21578 0.77468 0.0
C399 C 0.39714 0.23604 0.75662 0.0
C400 C 0.46312 0.27383 0.77487 0.0
C401 C 0.44286 0.28074 0.71455 0.0
C402 C 0.43829 0.27539 0.77106 0.0
N403 N 0.42849 0.27918 0.74122 0.0
C404 C 0.46775 0.27921 0.71742 0.0
C405 C 0.4779 0.27608 0.74786 0.0
C406 C 0.39469 0.32039 0.68303 0.0
C407 C 0.3141 0.35178 0.74562 0.0
C408 C 0.33671 0.3481 0.68626 0.0
C409 C 0.32866 0.37044 0.6969 0.0
C410 C 0.31729 0.37225 0.7268 0.0
N411 N 0.3335 0.3281 0.70484 0.0
C412 C 0.32237 0.32973 0.73418 0.0
Co413 Co 0.97004 0.1477 1.00034 0.0
Co414 Co 0.95346 0.1068 0.94156 0.0
O415 O 0.9578 0.11646 0.98679 0.0
C416 C 0.92903 0.13681 0.04726 0.0
O417 O 0.9244 0.11564 0.03501 0.0
C418 C 0.98428 0.06933 0.97035 0.0
O419 O 0.99776 0.08682 0.98134 0.0
O420 O 0.98642 0.11775 0.92983 0.0
O421 O 0.99463 0.14732 0.96506 0.0
H422 H 0.95677 0.11715 0.82099 0.0
H423 H 0.9678 0.10608 0.04595 0.0
O424 O 0.9458 0.14991 0.03606 0.0
H425 H 0.0516 0.13391 0.04887 0.0
H426 H 0.98697 0.212 0.08194 0.0
H427 H 0.98399 0.19224 0.96582 0.0
H428 H 0.02181 0.15447 0.01477 0.0
H429 H 0.97987 0.1705 0.06407 0.0
O430 O 0.96613 0.07409 0.95274 0.0
H431 H 0.9618 0.12962 0.87775 0.0
H432 H 0.9361 0.06203 0.90992 0.0
H433 H 0.99133 0.23404 0.98271 0.0
H434 H 0.99685 0.08521 0.08059 0.0
H435 H 0.99125 0.24422 0.04123 0.0
H436 H 0.03918 0.09902 0.08218 0.0
O437 O 0.94688 0.1642 0.97151 0.0
H438 H 0.89185 0.06239 0.00712 0.0
H439 H 0.90505 0.11501 0.91304 0.0
H440 H 0.86398 0.10208 0.92659 0.0
H441 H 0.85717 0.07551 0.97388 0.0
H442 H 0.93259 0.07601 0.99299 0.0
H443 H 0.93093 0.04877 0.85348 0.0
H444 H 0.94124 0.07645 0.80855 0.0
O445 O 0.94064 0.13925 0.92979 0.0
C446 C 0.99962 0.13482 0.9401 0.0
C447 C 0.95217 0.10494 0.84035 0.0
C448 C 0.93771 0.06655 0.85859 0.0
N449 N 0.94917 0.09661 0.89712 0.0
C450 C 0.95494 0.11192 0.87254 0.0
C451 C 0.94073 0.07414 0.8905 0.0
C452 C 0.94348 0.08209 0.83339 0.0
C453 C 0.98597 0.11256 0.04685 0.0
N454 N 0.99289 0.13178 0.02862 0.0
C455 C 0.00245 0.1005 0.06638 0.0
C456 C 0.02621 0.10822 0.0672 0.0
C457 C 0.03319 0.12777 0.0485 0.0
C458 C 0.01622 0.13934 0.0292 0.0
C459 C 0.98664 0.20777 0.05641 0.0
C460 C 0.98513 0.19642 0.99129 0.0
C461 C 0.9827 0.1843 0.04612 0.0
N462 N 0.98143 0.17897 0.01391 0.0
C463 C 0.98911 0.22013 1.0007 0.0
C464 C 0.98934 0.22583 0.0335 0.0
C465 C 0.93821 0.15953 0.94373 0.0
C466 C 0.89458 0.07395 0.98644 0.0
C467 C 0.90223 0.10364 0.93385 0.0
C468 C 0.87893 0.09628 0.9413 0.0
C469 C 0.87513 0.08135 0.96781 0.0
N470 N 0.92122 0.09633 0.95227 0.0
C471 C 0.91763 0.08165 0.97824 0.0
Co472 Co 0.90006 0.72014 0.74369 0.0
Co473 Co 0.85715 0.70869 0.68593 0.0
O474 O 0.86738 0.71127 0.73128 0.0
C475 C 0.88555 0.68207 0.79335 0.0
O476 O 0.86416 0.67844 0.78107 0.0
C477 C 0.81965 0.73919 0.71641 0.0
O478 O 0.83692 0.75264 0.72811 0.0
O479 O 0.86878 0.7418 0.67672 0.0
O480 O 0.90195 0.74401 0.70745 0.0
H481 H 0.86618 0.71718 0.56562 0.0
H482 H 0.85876 0.72385 0.78936 0.0
O483 O 0.89999 0.69704 0.78069 0.0
H484 H 0.89744 0.80323 0.79109 0.0
H485 H 0.96807 0.73157 0.82196 0.0
H486 H 0.94501 0.72802 0.707 0.0
H487 H 0.9138 0.77074 0.75738 0.0
H488 H 0.92554 0.72859 0.80628 0.0
O489 O 0.82471 0.72137 0.69841 0.0
H490 H 0.87933 0.71959 0.62241 0.0
H491 H 0.81181 0.69313 0.65389 0.0
H492 H 0.98777 0.73133 0.72167 0.0
H493 H 0.842 0.75564 0.82374 0.0
H494 H 0.99954 0.7318 0.77955 0.0
H495 H 0.86129 0.79576 0.82472 0.0
O496 O 0.91307 0.69432 0.7157 0.0
H497 H 0.81268 0.64552 0.74854 0.0
H498 H 0.86371 0.66134 0.65356 0.0
H499 H 0.85018 0.62009 0.66467 0.0
H500 H 0.82442 0.61196 0.71241 0.0
H501 H 0.82684 0.68646 0.73675 0.0
H502 H 0.79786 0.69058 0.59743 0.0
H503 H 0.82516 0.70259 0.55282 0.0
O504 O 0.88915 0.69557 0.67223 0.0
C505 C 0.8883 0.75203 0.68511 0.0
C506 C 0.85413 0.71184 0.58484 0.0
C507 C 0.81578 0.69695 0.60269 0.0
N508 N 0.8464 0.70641 0.64144 0.0
C509 C 0.86149 0.71312 0.61705 0.0
C510 C 0.82376 0.69849 0.63462 0.0
C511 C 0.83111 0.70368 0.57768 0.0
C512 C 0.86751 0.74106 0.78988 0.0
N513 N 0.88739 0.74529 0.77141 0.0
C514 C 0.85782 0.7591 0.80931 0.0
C515 C 0.86861 0.78161 0.8098 0.0
C516 C 0.88887 0.78582 0.79091 0.0
C517 C 0.89801 0.76737 0.77174 0.0
C518 C 0.96315 0.73102 0.79667 0.0
C519 C 0.94995 0.72925 0.73221 0.0
C520 C 0.93909 0.72941 0.78761 0.0
N521 N 0.93279 0.72803 0.75572 0.0
C522 C 0.9742 0.7309 0.74037 0.0
C523 C 0.9808 0.73129 0.77284 0.0
C524 C 0.9082 0.68872 0.68661 0.0
C525 C 0.82389 0.64883 0.72765 0.0
C526 C 0.85268 0.65794 0.67454 0.0
C527 C 0.84498 0.63455 0.68063 0.0
C528 C 0.8305 0.63001 0.70739 0.0
N529 N 0.84613 0.67631 0.69455 0.0
C530 C 0.83191 0.672 0.7208 0.0
Co531 Co 0.0404 0.14699 0.49311 0.0
Co532 Co 0.04998 0.10158 0.43771 0.0
O533 O 0.0489 0.11404 0.48207 0.0
C534 C 0.08121 0.13387 0.53894 0.0
O535 O 0.08283 0.11177 0.5284 0.0
C536 C 0.0173 0.06886 0.47261 0.0
O537 O 0.00584 0.08821 0.48191 0.0
O538 O 0.0175 0.11449 0.42802 0.0
O539 O 0.01439 0.14711 0.45967 0.0
H540 H 0.04043 0.10497 0.31702 0.0
H541 H 0.0396 0.10726 0.54196 0.0
O542 O 0.066 0.14849 0.52713 0.0
H543 H 0.96017 0.1454 0.54886 0.0
H544 H 0.03044 0.21738 0.56798 0.0
H545 H 0.029 0.19029 0.45454 0.0
H546 H 0.99056 0.16062 0.51086 0.0
H547 H 0.03585 0.17468 0.5546 0.0
O548 O 0.03533 0.07075 0.45377 0.0
H549 H 0.03966 0.12113 0.37248 0.0
H550 H 0.06206 0.05388 0.40978 0.0
H551 H 0.0232 0.23317 0.46692 0.0
H552 H 0.00997 0.09172 0.58054 0.0
H553 H 0.02481 0.24701 0.52395 0.0
H554 H 0.96981 0.11074 0.58418 0.0
O555 O 0.0641 0.15926 0.46133 0.0
H556 H 0.11136 0.05581 0.50181 0.0
H557 H 0.0972 0.10434 0.40409 0.0
H558 H 0.13778 0.08885 0.41513 0.0
H559 H 0.14505 0.06433 0.46425 0.0
H560 H 0.07114 0.07192 0.49009 0.0
H561 H 0.06293 0.03692 0.35473 0.0
H562 H 0.05213 0.06256 0.30787 0.0
O563 O 0.06456 0.13224 0.42101 0.0
C564 C 0.00667 0.13341 0.43723 0.0
C565 C 0.04524 0.09363 0.33723 0.0
C566 C 0.05783 0.05543 0.3584 0.0
N567 N 0.05094 0.08851 0.3943 0.0
C568 C 0.04489 0.10271 0.36868 0.0
C569 C 0.05726 0.06512 0.38952 0.0
C570 C 0.05178 0.06983 0.33212 0.0
C571 C 0.02247 0.11602 0.54368 0.0
N572 N 0.01712 0.13516 0.52438 0.0
C573 C 0.00561 0.10696 0.56547 0.0
C574 C 0.98306 0.11759 0.56744 0.0
C575 C 0.97764 0.13701 0.54763 0.0
C576 C 0.99494 0.14554 0.52609 0.0
C577 C 0.02993 0.21157 0.54304 0.0
C578 C 0.02897 0.19611 0.47946 0.0
C579 C 0.03298 0.18741 0.53529 0.0
N580 N 0.03269 0.17998 0.5038 0.0
C581 C 0.02584 0.22042 0.48631 0.0
C582 C 0.02663 0.22817 0.51831 0.0
C583 C 0.07025 0.15255 0.43308 0.0
C584 C 0.10842 0.06647 0.48033 0.0
C585 C 0.10026 0.0939 0.42569 0.0
C586 C 0.12326 0.08507 0.43173 0.0
C587 C 0.12732 0.07128 0.45926 0.0
N588 N 0.08181 0.08913 0.4465 0.0
C589 C 0.08565 0.07558 0.4735 0.0
Co590 Co 0.60774 0.2864 0.24625 0.0
Co591 Co 0.64961 0.29381 0.18663 0.0
O592 O 0.64008 0.2938 0.23188 0.0
C593 C 0.59797 0.32671 0.29128 0.0
O594 O 0.57961 0.33263 0.27307 0.0
C595 C 0.68601 0.26393 0.2193 0.0
O596 O 0.6681 0.25143 0.23113 0.0
O597 O 0.63703 0.26066 0.18091 0.0
O598 O 0.60343 0.26185 0.2111 0.0
H599 H 0.63883 0.28012 0.0674 0.0
H600 H 0.64884 0.28407 0.29171 0.0
O601 O 0.61216 0.31015 0.28215 0.0
H602 H 0.61196 0.20379 0.29512 0.0
H603 H 0.54365 0.27524 0.33063 0.0
H604 H 0.56068 0.28027 0.21386 0.0
H605 H 0.59472 0.23565 0.26103 0.0
H606 H 0.58525 0.2783 0.31099 0.0
O607 O 0.68187 0.28119 0.19991 0.0
H608 H 0.62622 0.28094 0.12448 0.0
H609 H 0.69501 0.30619 0.15248 0.0
H610 H 0.51874 0.27712 0.2325 0.0
H611 H 0.6665 0.25288 0.32652 0.0
H612 H 0.51004 0.27573 0.29136 0.0
H613 H 0.64811 0.21235 0.32826 0.0
O614 O 0.59455 0.31168 0.21688 0.0
H615 H 0.69474 0.35969 0.24296 0.0
H616 H 0.64375 0.33921 0.14958 0.0
H617 H 0.65793 0.38079 0.15641 0.0
H618 H 0.68369 0.39123 0.20332 0.0
H619 H 0.68 0.31838 0.23536 0.0
H620 H 0.70843 0.30553 0.09568 0.0
H621 H 0.68023 0.29247 0.05267 0.0
O622 O 0.61755 0.30628 0.1729 0.0
C623 C 0.6167 0.25216 0.18947 0.0
C624 C 0.65128 0.28587 0.08591 0.0
C625 C 0.69035 0.30009 0.10179 0.0
N626 N 0.65984 0.2936 0.14181 0.0
C627 C 0.64423 0.28641 0.11829 0.0
C628 C 0.68268 0.30035 0.13393 0.0
C629 C 0.67451 0.29278 0.07767 0.0
C630 C 0.6406 0.26655 0.29253 0.0
N631 N 0.6208 0.26166 0.27419 0.0
C632 C 0.65074 0.24893 0.31221 0.0
C633 C 0.64044 0.22618 0.31313 0.0
C634 C 0.62019 0.22135 0.2945 0.0
C635 C 0.61058 0.23941 0.27506 0.0
C636 C 0.54723 0.2762 0.30495 0.0
C637 C 0.55703 0.27896 0.23945 0.0
C638 C 0.57076 0.27783 0.29366 0.0
N639 N 0.57539 0.27976 0.2613 0.0
C640 C 0.53326 0.27728 0.24986 0.0
C641 C 0.52838 0.27635 0.28288 0.0
C642 C 0.59868 0.31421 0.18673 0.0
C643 C 0.68359 0.35535 0.22237 0.0
C644 C 0.65489 0.34364 0.17011 0.0
C645 C 0.6629 0.3672 0.17382 0.0
C646 C 0.67736 0.37304 0.20014 0.0
N647 N 0.66118 0.32636 0.19193 0.0
C648 C 0.67525 0.33197 0.21789 0.0
Co649 Co 0.46658 0.86134 0.99074 0.0
Co650 Co 0.44461 0.90219 0.93608 0.0
O651 O 0.45289 0.89232 0.97989 0.0
C652 C 0.42477 0.86423 0.03574 0.0
O653 O 0.41096 0.8698 0.01115 0.0
C654 C 0.47559 0.94055 0.96187 0.0
O655 O 0.49069 0.92348 0.96972 0.0
O656 O 0.47699 0.89306 0.9197 0.0
O657 O 0.48685 0.86132 0.95048 0.0
H658 H 0.43935 0.89396 0.81534 0.0
H659 H 0.46807 0.90113 0.03817 0.0
O660 O 0.44709 0.86061 0.03143 0.0
H661 H 0.55249 0.87829 0.02066 0.0
H662 H 0.49674 0.79902 0.06832 0.0
H663 H 0.47598 0.81637 0.95483 0.0
H664 H 0.51987 0.85666 0.99289 0.0
H665 H 0.48438 0.83962 0.05191 0.0
O666 O 0.45637 0.93537 0.94668 0.0
H667 H 0.44943 0.88096 0.87065 0.0
H668 H 0.42251 0.94632 0.90864 0.0
H669 H 0.48784 0.77539 0.97026 0.0
H670 H 0.50009 0.9231 0.06674 0.0
H671 H 0.49791 0.76647 0.02765 0.0
H672 H 0.54266 0.91178 0.05792 0.0
O673 O 0.4404 0.84463 0.96692 0.0
H674 H 0.38627 0.94005 0.01334 0.0
H675 H 0.39478 0.89238 0.91364 0.0
H676 H 0.35435 0.90211 0.93396 0.0
H677 H 0.34992 0.92615 0.98413 0.0
H678 H 0.42634 0.92975 0.99233 0.0
H679 H 0.41232 0.96014 0.8537 0.0
H680 H 0.42066 0.93384 0.80659 0.0
O681 O 0.43272 0.8692 0.92511 0.0
C682 C 0.49024 0.875 0.92606 0.0
C683 C 0.43556 0.90556 0.83567 0.0
C684 C 0.42043 0.94272 0.8572 0.0
N685 N 0.43642 0.91279 0.89284 0.0
C686 C 0.44117 0.89826 0.86706 0.0
C687 C 0.42629 0.93482 0.88824 0.0
C688 C 0.4251 0.92794 0.83078 0.0
C689 C 0.48655 0.89596 0.03443 0.0
N690 N 0.49212 0.8777 0.01376 0.0
C691 C 0.5046 0.90852 0.0506 0.0
C692 C 0.52849 0.90219 0.04559 0.0
C693 C 0.53402 0.88343 0.02464 0.0
C694 C 0.51549 0.87132 0.00884 0.0
C695 C 0.49234 0.80269 0.04333 0.0
C696 C 0.48079 0.81268 0.97964 0.0
C697 C 0.48541 0.82566 0.03386 0.0
N698 N 0.47956 0.83035 0.00241 0.0
C699 C 0.48743 0.78944 0.98828 0.0
C700 C 0.4931 0.78444 0.02041 0.0
C701 C 0.43074 0.84905 0.93958 0.0
C702 C 0.38797 0.92963 0.9914 0.0
C703 C 0.39299 0.90281 0.93553 0.0
C704 C 0.37006 0.9083 0.94688 0.0
C705 C 0.36758 0.9218 0.97502 0.0
N706 N 0.41291 0.91061 0.95167 0.0
C707 C 0.41062 0.92383 0.9793 0.0
Co708 Co 0.90143 0.27942 0.75769 0.0
Co709 Co 0.85358 0.29522 0.80438 0.0
O710 O 0.86772 0.288 0.76216 0.0
C711 C 0.89575 0.31669 0.70566 0.0
O712 O 0.88651 0.33198 0.72632 0.0
C713 C 0.81935 0.26147 0.77399 0.0
O714 O 0.83784 0.24755 0.76828 0.0
O715 O 0.8638 0.26335 0.82081 0.0
O716 O 0.90101 0.2614 0.79985 0.0
H717 H 0.85111 0.29828 0.92572 0.0
H718 H 0.86692 0.26765 0.70559 0.0
O719 O 0.90252 0.29603 0.71495 0.0
H720 H 0.90439 0.19075 0.73542 0.0
H721 H 0.97645 0.25954 0.69555 0.0
H722 H 0.94278 0.27935 0.80242 0.0
H723 H 0.91636 0.2282 0.76267 0.0
H724 H 0.93275 0.26389 0.70281 0.0
O725 O 0.82234 0.28127 0.78884 0.0
H726 H 0.8694 0.29036 0.87252 0.0
H727 H 0.80598 0.31385 0.82541 0.0
H728 H 0.98651 0.27486 0.79631 0.0
H729 H 0.85449 0.23064 0.67758 0.0
H730 H 0.00364 0.26592 0.74235 0.0
H731 H 0.87324 0.19182 0.69252 0.0
O732 O 0.91073 0.30951 0.78006 0.0
H733 H 0.81799 0.35164 0.72285 0.0
H734 H 0.85738 0.34529 0.8292 0.0
H735 H 0.84616 0.38511 0.80823 0.0
H736 H 0.82626 0.38845 0.75472 0.0
H737 H 0.82971 0.3122 0.74462 0.0
H738 H 0.78691 0.32187 0.87811 0.0
H739 H 0.80956 0.31416 0.92874 0.0
O740 O 0.8845 0.30949 0.82105 0.0
C741 C 0.88462 0.25402 0.81904 0.0
C742 C 0.84108 0.30179 0.90383 0.0
C743 C 0.80504 0.31499 0.87711 0.0
N744 N 0.83885 0.30181 0.8459 0.0
C745 C 0.85138 0.29739 0.87363 0.0
C746 C 0.81591 0.31037 0.84734 0.0
C747 C 0.81776 0.31067 0.90551 0.0
C748 C 0.87525 0.25084 0.71209 0.0
N749 N 0.89232 0.25008 0.73575 0.0
C750 C 0.86811 0.22994 0.6962 0.0
C751 C 0.87862 0.20817 0.70462 0.0
C752 C 0.89609 0.20755 0.72868 0.0
C753 C 0.90276 0.22881 0.74407 0.0
C754 C 0.96918 0.2637 0.71914 0.0
C755 C 0.95003 0.27464 0.77905 0.0
C756 C 0.94445 0.26618 0.7234 0.0
N757 N 0.93522 0.27193 0.753 0.0
C758 C 0.97483 0.27227 0.77571 0.0
C759 C 0.98443 0.26711 0.74543 0.0
C760 C 0.90409 0.31638 0.80799 0.0
C761 C 0.82658 0.35041 0.74625 0.0
C762 C 0.8488 0.34661 0.80585 0.0
C763 C 0.84244 0.3692 0.79413 0.0
C764 C 0.83126 0.37106 0.76412 0.0
N765 N 0.84409 0.32643 0.78821 0.0
C766 C 0.83318 0.32812 0.75875 0.0
Co767 Co 0.46968 0.14261 0.51606 0.0
Co768 Co 0.4577 0.09962 0.57398 0.0
O769 O 0.45935 0.1105 0.52895 0.0
C770 C 0.42878 0.12974 0.47044 0.0
O771 O 0.42503 0.10908 0.48464 0.0
C772 C 0.48735 0.06269 0.54172 0.0
O773 O 0.50065 0.08029 0.53064 0.0
O774 O 0.49121 0.11041 0.58262 0.0
O775 O 0.49502 0.14265 0.5504 0.0
H776 H 0.46733 0.10673 0.69444 0.0
H777 H 0.46858 0.10155 0.4694 0.0
O778 O 0.44488 0.14411 0.48073 0.0
H779 H 0.55078 0.13362 0.46387 0.0
H780 H 0.49022 0.20815 0.43691 0.0
H781 H 0.48343 0.18647 0.5521 0.0
H782 H 0.52081 0.15215 0.49972 0.0
H783 H 0.47715 0.16765 0.45297 0.0
O784 O 0.46958 0.06723 0.5601 0.0
H785 H 0.46906 0.12083 0.63805 0.0
H786 H 0.44237 0.0539 0.60501 0.0
H787 H 0.49683 0.22713 0.53706 0.0
H788 H 0.49779 0.08276 0.43293 0.0
H789 H 0.50056 0.23805 0.47909 0.0
H790 H 0.53932 0.0987 0.43 0.0
O791 O 0.44621 0.15746 0.5466 0.0
H792 H 0.39231 0.05624 0.51403 0.0
H793 H 0.41111 0.10766 0.60758 0.0
H794 H 0.36932 0.09507 0.59807 0.0
H795 H 0.35969 0.06911 0.55106 0.0
H796 H 0.4338 0.06954 0.52416 0.0
H797 H 0.44042 0.039 0.66105 0.0
H798 H 0.45293 0.0655 0.70625 0.0
O799 O 0.44605 0.13177 0.58855 0.0
C800 C 0.50243 0.12908 0.57314 0.0
C801 C 0.46184 0.095 0.67496 0.0
C802 C 0.44677 0.05698 0.65622 0.0
N803 N 0.45592 0.08821 0.61823 0.0
C804 C 0.46279 0.1029 0.64296 0.0
C805 C 0.448 0.0655 0.62451 0.0
C806 C 0.45377 0.07187 0.68157 0.0
C807 C 0.48637 0.10898 0.46796 0.0
N808 N 0.49273 0.12825 0.48646 0.0
C809 C 0.50296 0.09808 0.44738 0.0
C810 C 0.52627 0.10698 0.44581 0.0
C811 C 0.53271 0.12656 0.46482 0.0
C812 C 0.51565 0.13695 0.48516 0.0
C813 C 0.48879 0.20354 0.46225 0.0
C814 C 0.485 0.19111 0.52682 0.0
C815 C 0.4813 0.18066 0.4715 0.0
N816 N 0.47974 0.17462 0.50346 0.0
C817 C 0.49254 0.21417 0.51846 0.0
C818 C 0.49454 0.22034 0.48594 0.0
C819 C 0.44097 0.15194 0.5757 0.0
C820 C 0.39627 0.06755 0.5346 0.0
C821 C 0.40705 0.09659 0.58686 0.0
C822 C 0.38336 0.0894 0.58171 0.0
C823 C 0.37798 0.0748 0.55536 0.0
N824 N 0.42489 0.08946 0.56634 0.0
C825 C 0.41976 0.07508 0.54053 0.0
Co826 Co 0.61012 0.71389 0.25974 0.0
Co827 Co 0.65196 0.6916 0.31289 0.0
O828 O 0.64124 0.6999 0.26942 0.0
C829 C 0.61134 0.6721 0.21438 0.0
O830 O 0.61716 0.65803 0.23858 0.0
C831 C 0.69052 0.7223 0.28662 0.0
O832 O 0.67354 0.73767 0.27937 0.0
O833 O 0.64363 0.72412 0.3294 0.0
O834 O 0.61125 0.7342 0.29991 0.0
H835 H 0.64637 0.68689 0.43396 0.0
H836 H 0.64914 0.71491 0.2111 0.0
O837 O 0.60827 0.69444 0.21906 0.0
H838 H 0.62714 0.7995 0.22865 0.0
H839 H 0.54645 0.74458 0.18449 0.0
H840 H 0.56606 0.72427 0.29747 0.0
H841 H 0.60572 0.76714 0.25727 0.0
H842 H 0.58721 0.73163 0.19934 0.0
O843 O 0.68516 0.70283 0.30109 0.0
H844 H 0.6323 0.69701 0.37916 0.0
H845 H 0.69629 0.66878 0.33865 0.0
H846 H 0.52497 0.7371 0.28364 0.0
H847 H 0.6709 0.74665 0.18168 0.0
H848 H 0.51489 0.74673 0.22649 0.0
H849 H 0.66 0.7893 0.1905 0.0
O850 O 0.59359 0.68792 0.28435 0.0
H851 H 0.6873 0.63258 0.2345 0.0
H852 H 0.64176 0.64201 0.33588 0.0
H853 H 0.65041 0.60143 0.31534 0.0
H854 H 0.67338 0.59653 0.26432 0.0
H855 H 0.6781 0.67282 0.25578 0.0
H856 H 0.71119 0.65852 0.39306 0.0
H857 H 0.68611 0.6675 0.44118 0.0
O858 O 0.61899 0.68034 0.32533 0.0
C859 C 0.62557 0.73754 0.32366 0.0
C860 C 0.65744 0.68282 0.41319 0.0
C861 C 0.69383 0.66693 0.39023 0.0
N862 N 0.66338 0.68336 0.35574 0.0
C863 C 0.64953 0.68845 0.38208 0.0
C864 C 0.68533 0.67284 0.35949 0.0
C865 C 0.67975 0.67197 0.41722 0.0
C866 C 0.64419 0.73343 0.21489 0.0
N867 N 0.62627 0.7392 0.23604 0.0
C868 C 0.65661 0.75132 0.19823 0.0
C869 C 0.65051 0.77525 0.20323 0.0
C870 C 0.63211 0.78098 0.22467 0.0
C871 C 0.62012 0.76261 0.24095 0.0
C872 C 0.55063 0.74029 0.20937 0.0
C873 C 0.56189 0.72898 0.27276 0.0
C874 C 0.57368 0.73298 0.21795 0.0
N875 N 0.579 0.72723 0.24926 0.0
C876 C 0.53858 0.73614 0.26504 0.0
C877 C 0.53293 0.74161 0.23305 0.0
C878 C 0.5985 0.67853 0.31171 0.0
C879 C 0.67735 0.63448 0.25681 0.0
C880 C 0.65172 0.64002 0.31363 0.0
C881 C 0.65661 0.617 0.30215 0.0
C882 C 0.6695 0.61426 0.27353 0.0
N883 N 0.65954 0.65976 0.29714 0.0
C884 C 0.67217 0.65722 0.26905 0.0
Co885 Co 0.03299 0.86148 0.02069 0.0
Co886 Co 0.05764 0.90564 0.06975 0.0
O887 O 0.04793 0.89291 0.02738 0.0
C888 C 0.07108 0.86548 0.96838 0.0
O889 O 0.07916 0.88592 0.97958 0.0
C890 C 0.02469 0.9424 0.04273 0.0
O891 O 0.01024 0.92491 0.03429 0.0
O892 O 0.02642 0.89624 0.09006 0.0
O893 O 0.01194 0.86658 0.05891 0.0
H894 H 0.06907 0.90319 0.19017 0.0
H895 H 0.0341 0.898 0.96803 0.0
O896 O 0.05357 0.85473 0.98192 0.0
H897 H 0.94874 0.87807 0.98321 0.0
H898 H 0.99886 0.79341 0.95503 0.0
H899 H 0.01889 0.82191 0.06456 0.0
H900 H 0.97982 0.85808 0.01582 0.0
H901 H 0.01604 0.83371 0.96321 0.0
O902 O 0.04401 0.9378 0.05797 0.0
H903 H 0.05703 0.88724 0.137 0.0
H904 H 0.07907 0.95188 0.09162 0.0
H905 H 1.00155 0.78157 0.05748 0.0
H906 H 0.0037 0.9182 0.93468 0.0
H907 H 0.99153 0.76703 0.00238 0.0
H908 H 0.96061 0.90836 0.94222 0.0
O909 O 0.05759 0.84572 0.04833 0.0
H910 H 0.11036 0.9447 0.98635 0.0
H911 H 0.10892 0.89865 0.088 0.0
H912 H 0.14775 0.91001 0.064 0.0
H913 H 0.14865 0.93329 0.01285 0.0
H914 H 0.07193 0.93258 0.01086 0.0
H915 H 0.09118 0.9686 0.14433 0.0
H916 H 0.08627 0.94416 0.19407 0.0
O917 O 0.07162 0.87394 0.0822 0.0
C918 C 0.01082 0.8802 0.08355 0.0
C919 C 0.07133 0.914 0.16867 0.0
C920 C 0.08371 0.95072 0.14294 0.0
N921 N 0.06739 0.91858 0.11123 0.0
C922 C 0.06458 0.90505 0.13849 0.0
C923 C 0.07674 0.94119 0.11318 0.0
C924 C 0.08096 0.93699 0.17084 0.0
C925 C 0.0155 0.89329 0.97118 0.0
N926 N 0.00885 0.87663 0.99368 0.0
C927 C 0.9983 0.90493 0.95233 0.0
C928 C 0.97413 0.89945 0.95662 0.0
C929 C 0.96746 0.88248 0.97963 0.0
C930 C 0.98515 0.87124 0.99808 0.0
C931 C 0.00313 0.79955 0.97916 0.0
C932 C 0.01432 0.81582 0.04053 0.0
C933 C 0.0129 0.82234 0.98394 0.0
N934 N 0.01832 0.83024 0.01436 0.0
C935 C 0.0046 0.79292 0.03666 0.0
C936 C 0.999 0.78477 0.00574 0.0
C937 C 0.07071 0.85238 0.07195 0.0
C938 C 0.11021 0.93457 0.00865 0.0
C939 C 0.10914 0.9085 0.06554 0.0
C940 C 0.13119 0.91502 0.05216 0.0
C941 C 0.13168 0.92813 0.0235 0.0
N942 N 0.08814 0.91482 0.05078 0.0
C943 C 0.08849 0.92775 0.02274 0.0
Co944 Co 0.60614 0.78862 0.76882 0.0
Co945 Co 0.65281 0.80625 0.81736 0.0
O946 O 0.6389 0.80019 0.77466 0.0
C947 C 0.60831 0.83053 0.72326 0.0
O948 O 0.617 0.84414 0.74636 0.0
C949 C 0.69029 0.77743 0.78394 0.0
O950 O 0.67343 0.76217 0.77568 0.0
O951 O 0.64521 0.77288 0.83123 0.0
O952 O 0.60919 0.76704 0.80772 0.0
H953 H 0.65601 0.80439 0.93879 0.0
H954 H 0.64214 0.7856 0.71625 0.0
O955 O 0.60279 0.80881 0.72901 0.0
H956 H 0.61166 0.70325 0.73003 0.0
H957 H 0.53265 0.76777 0.70403 0.0
H958 H 0.56572 0.77964 0.81336 0.0
H959 H 0.59564 0.73639 0.76304 0.0
H960 H 0.57589 0.77521 0.71178 0.0
O961 O 0.68503 0.79586 0.80067 0.0
H962 H 0.63794 0.79742 0.88524 0.0
H963 H 0.69897 0.82772 0.83948 0.0
H964 H 0.52246 0.77202 0.8067 0.0
H965 H 0.6585 0.75311 0.68238 0.0
H966 H 0.50554 0.7674 0.75168 0.0
H967 H 0.64334 0.71155 0.68929 0.0
O968 O 0.59348 0.81521 0.7963 0.0
H969 H 0.68334 0.86935 0.74109 0.0
H970 H 0.64474 0.8545 0.84645 0.0
H971 H 0.65245 0.89607 0.82903 0.0
H972 H 0.67194 0.9037 0.77603 0.0
H973 H 0.67509 0.82808 0.75931 0.0
H974 H 0.71782 0.83488 0.8925 0.0
H975 H 0.69628 0.82325 0.94266 0.0
O976 O 0.62113 0.81678 0.83547 0.0
C977 C 0.62573 0.76106 0.82766 0.0
C978 C 0.66558 0.80956 0.91712 0.0
C979 C 0.70028 0.82664 0.89114 0.0
N980 N 0.66734 0.81213 0.85926 0.0
C981 C 0.65541 0.80567 0.88673 0.0
C982 C 0.68954 0.82245 0.86117 0.0
C983 C 0.68818 0.82012 0.91927 0.0
C984 C 0.63544 0.76757 0.71937 0.0
N985 N 0.61822 0.7628 0.74198 0.0
C986 C 0.64477 0.74924 0.70013 0.0
C987 C 0.63627 0.72593 0.70404 0.0
C988 C 0.61854 0.72125 0.72693 0.0
C989 C 0.60965 0.74003 0.74575 0.0
C990 C 0.53982 0.77015 0.72812 0.0
C991 C 0.55864 0.77663 0.78939 0.0
C992 C 0.56428 0.77435 0.73267 0.0
N993 N 0.57331 0.77797 0.76299 0.0
C994 C 0.5341 0.77249 0.78576 0.0
C995 C 0.52463 0.76968 0.75487 0.0
C996 C 0.60023 0.82131 0.82456 0.0
C997 C 0.67492 0.86626 0.76428 0.0
C998 C 0.65315 0.85768 0.8233 0.0
C999 C 0.65753 0.88125 0.81361 0.0
C1000 C 0.66848 0.88552 0.78387 0.0
N1001 N 0.65957 0.83888 0.80397 0.0
C1002 C 0.67029 0.84292 0.77478 0.0
Co1003 Co 0.47099 0.35336 0.01563 0.0
Co1004 Co 0.45475 0.40273 0.05886 0.0
O1005 O 0.46301 0.3873 0.01778 0.0
C1006 C 0.43599 0.35806 0.96057 0.0
O1007 O 0.42104 0.37024 0.97876 0.0
C1008 C 0.4908 0.43486 0.02947 0.0
O1009 O 0.50431 0.41575 0.02618 0.0
O1010 O 0.48563 0.39206 0.0784 0.0
O1011 O 0.4871 0.35458 0.05905 0.0
H1012 H 0.44711 0.40855 0.17964 0.0
H1013 H 0.48525 0.38592 0.96256 0.0
O1014 O 0.45597 0.3509 0.97189 0.0
H1015 H 0.56057 0.34914 1.00037 0.0
H1016 H 0.49305 0.27646 0.95959 0.0
H1017 H 0.46803 0.31338 0.06241 0.0
H1018 H 0.5219 0.33806 0.0251 0.0
H1019 H 0.48918 0.32033 0.96427 0.0
O1020 O 0.47028 0.43305 0.04285 0.0
H1021 H 0.4565 0.38861 0.12799 0.0
H1022 H 0.43675 0.45131 0.07628 0.0
H1023 H 0.47217 0.26951 0.05904 0.0
H1024 H 0.5235 0.39736 0.93684 0.0
H1025 H 0.48372 0.25073 0.00705 0.0
H1026 H 0.56153 0.37898 0.95584 0.0
O1027 O 0.43983 0.34531 0.03613 0.0
H1028 H 0.40262 0.43809 0.97206 0.0
H1029 H 0.40366 0.40076 0.08008 0.0
H1030 H 0.36503 0.4126 0.05585 0.0
H1031 H 0.36436 0.43147 1.00149 0.0
H1032 H 0.44083 0.42576 0.99704 0.0
H1033 H 0.4273 0.472 0.1274 0.0
H1034 H 0.43239 0.45056 0.17956 0.0
O1035 O 0.43906 0.37264 0.07579 0.0
C1036 C 0.49405 0.37081 0.07874 0.0
C1037 C 0.44474 0.41806 0.15706 0.0
C1038 C 0.43365 0.45368 0.12775 0.0
N1039 N 0.44698 0.41871 0.09914 0.0
C1040 C 0.44996 0.40683 0.12773 0.0
C1041 C 0.43907 0.44189 0.09889 0.0
C1042 C 0.4365 0.44163 0.157 0.0
C1043 C 0.50171 0.37774 0.9708 0.0
N1044 N 0.50135 0.36142 0.99542 0.0
C1045 C 0.52332 0.38433 0.95621 0.0
C1046 C 0.54465 0.37404 0.96691 0.0
C1047 C 0.54413 0.35732 0.99192 0.0
C1048 C 0.52219 0.3512 0.00597 0.0
C1049 C 0.48774 0.28443 0.98233 0.0
C1050 C 0.47382 0.3054 0.03994 0.0
C1051 C 0.48544 0.30926 0.98507 0.0
N1052 N 0.47812 0.3194 0.01346 0.0
C1053 C 0.47603 0.28053 0.03815 0.0
C1054 C 0.48269 0.27001 0.00899 0.0
C1055 C 0.43224 0.35282 0.0633 0.0
C1056 C 0.40268 0.42995 0.9958 0.0
C1057 C 0.40351 0.40888 0.05636 0.0
C1058 C 0.38158 0.4156 0.0428 0.0
C1059 C 0.38122 0.4262 0.01231 0.0
N1060 N 0.42449 0.41267 0.04004 0.0
C1061 C 0.42427 0.42302 0.01012 0.0
Co1062 Co 0.89113 0.21122 0.26839 0.0
Co1063 Co 0.8491 0.19341 0.32402 0.0
O1064 O 0.85925 0.1998 0.27962 0.0
C1065 C 0.88626 0.16873 0.22488 0.0
O1066 O 0.88068 0.15532 0.24986 0.0
C1067 C 0.81171 0.22476 0.29649 0.0
O1068 O 0.82922 0.23899 0.28741 0.0
O1069 O 0.8594 0.22598 0.33808 0.0
O1070 O 0.89225 0.23231 0.30771 0.0
H1071 H 0.85696 0.19273 0.44501 0.0
H1072 H 0.85135 0.21446 0.22115 0.0
O1073 O 0.89061 0.19097 0.22856 0.0
H1074 H 0.88112 0.29717 0.23376 0.0
H1075 H 0.95739 0.23324 0.19133 0.0
H1076 H 0.93574 0.21941 0.30536 0.0
H1077 H 0.90013 0.26381 0.26326 0.0
H1078 H 0.9154 0.22512 0.20673 0.0
O1079 O 0.81637 0.20588 0.31265 0.0
H1080 H 0.87038 0.20019 0.38913 0.0
H1081 H 0.80424 0.17373 0.3528 0.0
H1082 H 0.97785 0.22771 0.29107 0.0
H1083 H 0.8319 0.24722 0.1909 0.0
H1084 H 0.98901 0.23345 0.23362 0.0
H1085 H 0.84672 0.28894 0.19723 0.0
O1086 O 0.90589 0.18453 0.29305 0.0
H1087 H 0.80926 0.1337 0.25057 0.0
H1088 H 0.85704 0.14417 0.34986 0.0
H1089 H 0.84588 0.10345 0.33219 0.0
H1090 H 0.82177 0.09803 0.28224 0.0
H1091 H 0.82098 0.17409 0.26896 0.0
H1092 H 0.78999 0.16616 0.40832 0.0
H1093 H 0.81648 0.1756 0.45489 0.0
O1094 O 0.88166 0.18079 0.3361 0.0
C1095 C 0.87845 0.23768 0.33131 0.0
C1096 C 0.84528 0.18847 0.42492 0.0
C1097 C 0.80768 0.17359 0.40433 0.0
N1098 N 0.83819 0.18724 0.36773 0.0
C1099 C 0.85281 0.19258 0.39322 0.0
C1100 C 0.81582 0.17797 0.37295 0.0
C1101 C 0.82255 0.17888 0.43045 0.0
C1102 C 0.85798 0.23256 0.22388 0.0
N1103 N 0.87674 0.23727 0.24416 0.0
C1104 C 0.84687 0.25103 0.20674 0.0
C1105 C 0.85517 0.27445 0.21035 0.0
C1106 C 0.87444 0.27908 0.23088 0.0
C1107 C 0.88506 0.26015 0.24767 0.0
C1108 C 0.95273 0.23045 0.21645 0.0
C1109 C 0.94032 0.22285 0.2804 0.0
C1110 C 0.929 0.22587 0.22531 0.0
N1111 N 0.92313 0.22179 0.25691 0.0
C1112 C 0.96422 0.22738 0.27245 0.0
C1113 C 0.97045 0.23082 0.24019 0.0
C1114 C 0.90131 0.17664 0.32127 0.0
C1115 C 0.8197 0.13584 0.27243 0.0
C1116 C 0.8466 0.14196 0.32806 0.0
C1117 C 0.84029 0.11886 0.31821 0.0
C1118 C 0.82675 0.11583 0.29019 0.0
N1119 N 0.83955 0.1615 0.31056 0.0
C1120 C 0.82631 0.15867 0.28304 0.0
Co1121 Co 0.03608 0.64449 0.50568 0.0
Co1122 Co 0.04855 0.60362 0.56599 0.0
O1123 O 0.04632 0.61276 0.52027 0.0
C1124 C 0.07715 0.631 0.46029 0.0
O1125 O 0.08241 0.61123 0.47587 0.0
C1126 C 0.0192 0.56536 0.53576 0.0
O1127 O 0.00611 0.58242 0.52289 0.0
O1128 O 0.01518 0.61486 0.57455 0.0
O1129 O 0.01134 0.64618 0.54077 0.0
H1130 H 0.03982 0.61544 0.68585 0.0
H1131 H 0.03662 0.60258 0.461 0.0
O1132 O 0.06019 0.64455 0.46977 0.0
H1133 H 0.9542 0.63416 0.45628 0.0
H1134 H 0.02079 0.70818 0.42228 0.0
H1135 H 0.02462 0.69023 0.53889 0.0
H1136 H 0.98473 0.65374 0.49034 0.0
H1137 H 0.02758 0.6669 0.44123 0.0
O1138 O 0.03642 0.57073 0.55468 0.0
H1139 H 0.03742 0.6272 0.62851 0.0
H1140 H 0.06436 0.55925 0.60003 0.0
H1141 H 0.01746 0.73181 0.52091 0.0
H1142 H 0.00683 0.58264 0.42631 0.0
H1143 H 0.01662 0.74106 0.46214 0.0
H1144 H 0.9652 0.59835 0.42386 0.0
O1145 O 0.06025 0.65994 0.53428 0.0
H1146 H 0.11296 0.55816 0.50703 0.0
H1147 H 0.09559 0.61229 0.59826 0.0
H1148 H 0.13717 0.59915 0.58855 0.0
H1149 H 0.14607 0.57182 0.54272 0.0
H1150 H 0.07169 0.57202 0.51729 0.0
H1151 H 0.06691 0.54667 0.65706 0.0
H1152 H 0.05465 0.57489 0.70044 0.0
O1153 O 0.06085 0.6362 0.57812 0.0
C1154 C 0.00408 0.63342 0.56446 0.0
C1155 C 0.04525 0.60299 0.66718 0.0
C1156 C 0.06042 0.56438 0.65101 0.0
N1157 N 0.05077 0.59396 0.61094 0.0
C1158 C 0.04396 0.60957 0.63466 0.0
C1159 C 0.05886 0.57158 0.61875 0.0
C1160 C 0.05355 0.58023 0.67534 0.0
C1161 C 0.0187 0.60977 0.4598 0.0
N1162 N 0.01251 0.62942 0.47764 0.0
C1163 C 1.00183 0.59829 0.44021 0.0
C1164 C 0.97847 0.60708 0.43891 0.0
C1165 C 0.97228 0.62714 0.45712 0.0
C1166 C 0.98962 0.63811 0.47649 0.0
C1167 C 0.02139 0.70437 0.44792 0.0
C1168 C 0.02341 0.69403 0.51332 0.0
C1169 C 0.0252 0.68102 0.45882 0.0
N1170 N 0.02653 0.67615 0.49117 0.0
C1171 C 0.01952 0.71762 0.50329 0.0
C1172 C 0.01888 0.7228 0.47034 0.0
C1173 C 0.06612 0.65566 0.5635 0.0
C1174 C 0.10931 0.57005 0.5271 0.0
C1175 C 0.09933 0.60059 0.57806 0.0
C1176 C 0.1229 0.59311 0.57279 0.0
C1177 C 0.12788 0.57775 0.5471 0.0
N1178 N 0.0812 0.593 0.55829 0.0
C1179 C 0.08594 0.57789 0.53311 0.0
Co1180 Co 0.60355 0.2199 0.75083 0.0
Co1181 Co 0.64794 0.20716 0.69484 0.0
O1182 O 0.63631 0.21067 0.73948 0.0
C1183 C 0.61627 0.18039 0.79925 0.0
O1184 O 0.63831 0.17777 0.78876 0.0
C1185 C 0.68163 0.24155 0.72503 0.0
O1186 O 0.6627 0.25369 0.7344 0.0
O1187 O 0.63452 0.23896 0.68206 0.0
O1188 O 0.60307 0.24434 0.71536 0.0
H1189 H 0.64189 0.20963 0.57371 0.0
H1190 H 0.64345 0.22192 0.79914 0.0
O1191 O 0.60216 0.19579 0.78679 0.0
H1192 H 0.60776 0.30263 0.79892 0.0
H1193 H 0.53496 0.23464 0.82724 0.0
H1194 H 0.55945 0.22924 0.71291 0.0
H1195 H 0.59142 0.27087 0.76388 0.0
H1196 H 0.57732 0.22815 0.81269 0.0
O1197 O 0.67901 0.22271 0.70797 0.0
H1198 H 0.62697 0.21369 0.62954 0.0
H1199 H 0.69512 0.19355 0.66637 0.0
H1200 H 0.51681 0.23567 0.72641 0.0
H1201 H 0.66013 0.25297 0.83478 0.0
H1202 H 0.50432 0.23782 0.78403 0.0
H1203 H 0.64233 0.29375 0.83481 0.0
O1204 O 0.59052 0.19494 0.72146 0.0
H1205 H 0.69512 0.15002 0.76398 0.0
H1206 H 0.64513 0.15814 0.66632 0.0
H1207 H 0.66113 0.11847 0.68118 0.0
H1208 H 0.68639 0.11423 0.73028 0.0
H1209 H 0.6785 0.1893 0.7485 0.0
H1210 H 0.71086 0.18944 0.61093 0.0
H1211 H 0.68414 0.19742 0.56412 0.0
O1212 O 0.61723 0.1914 0.68106 0.0
C1213 C 0.61601 0.25051 0.69131 0.0
C1214 C 0.6537 0.20604 0.59389 0.0
C1215 C 0.69241 0.19474 0.61479 0.0
N1216 N 0.6601 0.20372 0.65117 0.0
C1217 C 0.64533 0.20826 0.62556 0.0
C1218 C 0.68342 0.19715 0.64613 0.0
C1219 C 0.67741 0.19921 0.58854 0.0
C1220 C 0.63526 0.23938 0.79933 0.0
N1221 N 0.61617 0.24433 0.77975 0.0
C1222 C 0.64494 0.25701 0.81944 0.0
C1223 C 0.63499 0.27991 0.81939 0.0
C1224 C 0.61561 0.28489 0.79926 0.0
C1225 C 0.60644 0.26682 0.77945 0.0
C1226 C 0.54019 0.23362 0.80208 0.0
C1227 C 0.55418 0.23073 0.73798 0.0
C1228 C 0.56415 0.23001 0.79368 0.0
N1229 N 0.57085 0.22843 0.76195 0.0
C1230 C 0.53002 0.23424 0.74548 0.0
C1231 C 0.52301 0.23549 0.77779 0.0
C1232 C 0.59702 0.18668 0.69412 0.0
C1233 C 0.68416 0.15164 0.74251 0.0
C1234 C 0.65592 0.15643 0.68789 0.0
C1235 C 0.66502 0.13393 0.69609 0.0
C1236 C 0.67923 0.13156 0.72362 0.0
N1237 N 0.66082 0.17604 0.70656 0.0
C1238 C 0.67476 0.17386 0.73355 0.0
Co1239 Co 0.03455 0.35895 0.98954 0.0
Co1240 Co 0.04408 0.39981 0.92928 0.0
O1241 O 0.04247 0.39106 0.9749 0.0
C1242 C 0.08029 0.36592 0.0268 0.0
O1243 O 0.09239 0.36888 0.99986 0.0
C1244 C 0.01413 0.43741 0.95998 0.0
O1245 O 1.00088 0.42013 0.97204 0.0
O1246 O 0.01093 0.38757 0.92204 0.0
O1247 O 0.01048 0.35473 0.95362 0.0
H1248 H 0.03344 0.38755 0.80979 0.0
H1249 H 0.03173 0.40023 0.03442 0.0
O1250 O 0.0577 0.36261 0.02616 0.0
H1251 H 0.95135 0.36334 0.03652 0.0
H1252 H 0.02717 0.2947 0.0738 0.0
H1253 H 0.02744 0.31223 0.957 0.0
H1254 H 0.98367 0.34596 0.00321 0.0
H1255 H 0.02774 0.33644 0.05433 0.0
O1256 O 0.03148 0.4324 0.94107 0.0
H1257 H 0.03238 0.37582 0.86721 0.0
H1258 H 0.05829 0.44445 0.89464 0.0
H1259 H 0.02663 0.2702 0.97545 0.0
H1260 H 1.00005 0.41811 0.06833 0.0
H1261 H 0.02823 0.26133 0.0342 0.0
H1262 H 0.95948 0.39969 0.06941 0.0
O1263 O 0.06025 0.34537 0.96181 0.0
H1264 H 0.10872 0.44436 0.98899 0.0
H1265 H 0.0906 0.39329 0.89483 0.0
H1266 H 0.13215 0.40681 0.90412 0.0
H1267 H 0.14142 0.43258 0.95145 0.0
H1268 H 0.06746 0.4303 0.97894 0.0
H1269 H 0.0595 0.457 0.83749 0.0
H1270 H 0.04707 0.42842 0.79461 0.0
O1271 O 0.05702 0.36747 0.91675 0.0
C1272 C 1.00165 0.3677 0.93103 0.0
C1273 C 0.03895 0.40015 0.82824 0.0
C1274 C 0.05354 0.43914 0.8438 0.0
N1275 N 0.04534 0.40939 0.88424 0.0
C1276 C 0.03843 0.39359 0.8608 0.0
C1277 C 0.05275 0.43195 0.87612 0.0
C1278 C 0.04658 0.42309 0.81975 0.0
C1279 C 0.01415 0.39205 0.03489 0.0
N1280 N 0.00946 0.37219 0.01664 0.0
C1281 C 0.99627 0.40228 0.05409 0.0
C1282 C 0.97351 0.39196 0.05465 0.0
C1283 C 0.96893 0.37158 0.03616 0.0
C1284 C 0.98723 0.36189 0.0172 0.0
C1285 C 0.02693 0.2984 0.04812 0.0
C1286 C 0.02685 0.30847 0.98261 0.0
C1287 C 0.02717 0.32199 0.03694 0.0
N1288 N 0.02776 0.32675 0.00454 0.0
C1289 C 0.0266 0.28465 0.99291 0.0
C1290 C 0.02721 0.27966 0.02589 0.0
C1291 C 0.06456 0.34907 0.93201 0.0
C1292 C 0.10489 0.4332 0.96823 0.0
C1293 C 0.09449 0.40447 0.91551 0.0
C1294 C 0.11805 0.4121 0.92062 0.0
C1295 C 0.12324 0.42656 0.94718 0.0
N1296 N 0.07658 0.41113 0.9362 0.0
C1297 C 0.08154 0.42525 0.96234 0.0
Co1298 Co 0.90216 0.78393 0.22816 0.0
Co1299 Co 0.85272 0.79862 0.18489 0.0
O1300 O 0.868 0.79163 0.22633 0.0
C1301 C 0.8972 0.81944 0.28213 0.0
O1302 O 0.88712 0.83489 0.26244 0.0
C1303 C 0.81763 0.7657 0.21696 0.0
O1304 O 0.83528 0.75098 0.22376 0.0
O1305 O 0.86271 0.76646 0.1687 0.0
O1306 O 0.90113 0.76775 0.18471 0.0
H1307 H 0.84787 0.80045 0.06367 0.0
H1308 H 0.87022 0.76926 0.2819 0.0
O1309 O 0.90409 0.79909 0.27182 0.0
H1310 H 0.90729 0.69447 0.24276 0.0
H1311 H 0.97919 0.76212 0.28448 0.0
H1312 H 0.94235 0.78675 0.18141 0.0
H1313 H 0.91756 0.73327 0.2178 0.0
H1314 H 0.93532 0.76695 0.28009 0.0
O1315 O 0.82175 0.785 0.20147 0.0
H1316 H 0.86711 0.7929 0.11635 0.0
H1317 H 0.8048 0.81746 0.1652 0.0
H1318 H 0.98621 0.78206 0.18473 0.0
H1319 H 0.8596 0.73086 0.30778 0.0
H1320 H 0.00496 0.77039 0.23677 0.0
H1321 H 0.87815 0.69311 0.28814 0.0
O1322 O 0.90985 0.81497 0.2071 0.0
H1323 H 0.81905 0.85542 0.26739 0.0
H1324 H 0.85543 0.84859 0.15915 0.0
H1325 H 0.84448 0.88846 0.18016 0.0
H1326 H 0.82609 0.89205 0.23463 0.0
H1327 H 0.83047 0.8159 0.24555 0.0
H1328 H 0.78481 0.82508 0.11305 0.0
H1329 H 0.80642 0.81666 0.06179 0.0
O1330 O 0.88308 0.81316 0.16701 0.0
C1331 C 0.88429 0.7589 0.16751 0.0
C1332 C 0.83829 0.80425 0.08583 0.0
C1333 C 0.80289 0.81805 0.11355 0.0
N1334 N 0.83717 0.80489 0.14382 0.0
C1335 C 0.84912 0.80007 0.11574 0.0
C1336 C 0.81428 0.81364 0.14301 0.0
C1337 C 0.81503 0.81333 0.0848 0.0
C1338 C 0.8785 0.75292 0.2734 0.0
N1339 N 0.89452 0.75352 0.24843 0.0
C1340 C 0.87237 0.73123 0.28808 0.0
C1341 C 0.88275 0.71005 0.27702 0.0
C1342 C 0.89909 0.7108 0.25154 0.0
C1343 C 0.9048 0.73282 0.23745 0.0
C1344 C 0.97122 0.76746 0.26174 0.0
C1345 C 0.9503 0.78113 0.20398 0.0
C1346 C 0.9464 0.7702 0.2591 0.0
N1347 N 0.93626 0.77718 0.23054 0.0
C1348 C 0.97517 0.77861 0.20574 0.0
C1349 C 0.98567 0.77199 0.23494 0.0
C1350 C 0.90246 0.82137 0.17929 0.0
C1351 C 0.82698 0.85408 0.24359 0.0
C1352 C 0.84751 0.85 0.18292 0.0
C1353 C 0.8413 0.87263 0.19465 0.0
C1354 C 0.83097 0.87463 0.22521 0.0
N1355 N 0.84348 0.82992 0.20105 0.0
C1356 C 0.83341 0.83175 0.23105 0.0
Co1357 Co 0.46416 0.65194 0.49 0.0
Co1358 Co 0.45378 0.60412 0.43936 0.0
O1359 O 0.4558 0.61837 0.48268 0.0
C1360 C 0.42606 0.64047 0.54094 0.0
O1361 O 0.42403 0.618 0.53205 0.0
C1362 C 0.48357 0.56964 0.47678 0.0
O1363 O 0.49705 0.58768 0.48604 0.0
O1364 O 0.48703 0.61484 0.42915 0.0
O1365 O 0.48875 0.65065 0.4543 0.0
H1366 H 0.4632 0.60159 0.31854 0.0
H1367 H 0.46814 0.61469 0.54201 0.0
O1368 O 0.44024 0.65473 0.52624 0.0
H1369 H 0.54664 0.6551 0.53916 0.0
H1370 H 0.47434 0.72633 0.55725 0.0
H1371 H 0.47255 0.6934 0.44666 0.0
H1372 H 0.51431 0.66753 0.50225 0.0
H1373 H 0.47108 0.68278 0.54831 0.0
O1374 O 0.46609 0.57317 0.45754 0.0
H1375 H 0.4649 0.62011 0.37257 0.0
H1376 H 0.43866 0.55608 0.41519 0.0
H1377 H 0.47595 0.73711 0.45456 0.0
H1378 H 0.49975 0.60195 0.57957 0.0
H1379 H 0.47585 0.75384 0.51019 0.0
H1380 H 0.53944 0.62214 0.57832 0.0
O1381 O 0.43876 0.66223 0.45921 0.0
H1382 H 0.38936 0.56548 0.50665 0.0
H1383 H 0.40691 0.60829 0.4051 0.0
H1384 H 0.36537 0.59604 0.4171 0.0
H1385 H 0.35638 0.57441 0.46816 0.0
H1386 H 0.4306 0.5783 0.49387 0.0
H1387 H 0.43675 0.53677 0.36166 0.0
H1388 H 0.44904 0.55958 0.31283 0.0
O1389 O 0.4414 0.63464 0.42006 0.0
C1390 C 0.49706 0.63504 0.43456 0.0
C1391 C 0.45781 0.59145 0.33962 0.0
C1392 C 0.44299 0.55507 0.36383 0.0
N1393 N 0.45198 0.58922 0.39703 0.0
C1394 C 0.45875 0.60187 0.37028 0.0
C1395 C 0.4442 0.56608 0.39411 0.0
C1396 C 0.44987 0.56788 0.33644 0.0
C1397 C 0.48507 0.62394 0.54157 0.0
N1398 N 0.48908 0.64217 0.52019 0.0
C1399 C 0.50305 0.61647 0.5628 0.0
C1400 C 0.52534 0.62776 0.56204 0.0
C1401 C 0.52939 0.64623 0.54007 0.0
C1402 C 0.51099 0.65318 0.51919 0.0
C1403 C 0.4741 0.71924 0.5329 0.0
C1404 C 0.4733 0.70052 0.47094 0.0
C1405 C 0.47234 0.69459 0.52767 0.0
N1406 N 0.47157 0.68555 0.49696 0.0
C1407 C 0.47501 0.72528 0.47525 0.0
C1408 C 0.47502 0.73467 0.50647 0.0
C1409 C 0.43451 0.65497 0.43062 0.0
C1410 C 0.39305 0.5749 0.48432 0.0
C1411 C 0.40313 0.5991 0.42753 0.0
C1412 C 0.37958 0.5921 0.43411 0.0
C1413 C 0.37455 0.57994 0.46274 0.0
N1414 N 0.42118 0.59414 0.44885 0.0
C1415 C 0.41639 0.58216 0.47691 0.0
Co1416 Co 0.40188 0.22411 0.25056 0.0
Co1417 Co 0.3572 0.21243 0.19643 0.0
O1418 O 0.36853 0.21673 0.2408 0.0
C1419 C 0.3948 0.18369 0.29871 0.0
O1420 O 0.38972 0.16797 0.27609 0.0
C1421 C 0.32202 0.24567 0.22591 0.0
O1422 O 0.34037 0.25898 0.23448 0.0
O1423 O 0.36973 0.24467 0.18427 0.0
O1424 O 0.40495 0.24447 0.21065 0.0
H1425 H 0.36316 0.21596 0.07534 0.0
H1426 H 0.36303 0.23364 0.29763 0.0
O1427 O 0.39951 0.20533 0.29148 0.0
H1428 H 0.40526 0.31073 0.28499 0.0
H1429 H 0.47238 0.23769 0.32433 0.0
H1430 H 0.44635 0.2256 0.21164 0.0
H1431 H 0.41903 0.27475 0.25584 0.0
H1432 H 0.42936 0.23566 0.3108 0.0
O1433 O 0.32548 0.22663 0.20954 0.0
H1434 H 0.37789 0.22028 0.13122 0.0
H1435 H 0.31067 0.19684 0.16778 0.0
H1436 H 0.48952 0.2278 0.22409 0.0
H1437 H 0.34879 0.26905 0.32766 0.0
H1438 H 0.50274 0.23262 0.28095 0.0
H1439 H 0.36987 0.30799 0.32129 0.0
O1440 O 0.41226 0.19519 0.22604 0.0
H1441 H 0.31451 0.15321 0.26764 0.0
H1442 H 0.3608 0.16373 0.16706 0.0
H1443 H 0.34684 0.12337 0.1825 0.0
H1444 H 0.32346 0.11793 0.23309 0.0
H1445 H 0.32896 0.19322 0.25141 0.0
H1446 H 0.29513 0.19243 0.11227 0.0
H1447 H 0.32149 0.20194 0.06558 0.0
O1448 O 0.38855 0.19781 0.18244 0.0
C1449 C 0.39066 0.25317 0.18949 0.0
C1450 C 0.35153 0.21167 0.09548 0.0
C1451 C 0.31334 0.1985 0.11621 0.0
N1452 N 0.34523 0.20862 0.15272 0.0
C1453 C 0.3598 0.21401 0.12717 0.0
C1454 C 0.32222 0.20108 0.14758 0.0
C1455 C 0.32814 0.20383 0.09002 0.0
C1456 C 0.37233 0.25051 0.29475 0.0
N1457 N 0.39161 0.25224 0.27448 0.0
C1458 C 0.36417 0.2705 0.31182 0.0
C1459 C 0.37599 0.29235 0.3082 0.0
C1460 C 0.39581 0.29391 0.28779 0.0
C1461 C 0.40342 0.27354 0.27108 0.0
C1462 C 0.4668 0.2352 0.29951 0.0
C1463 C 0.45195 0.22863 0.23631 0.0
C1464 C 0.44246 0.23406 0.29168 0.0
N1465 N 0.43532 0.23039 0.26047 0.0
C1466 C 0.47643 0.2297 0.24323 0.0
C1467 C 0.48384 0.23257 0.27513 0.0
C1468 C 0.40714 0.18979 0.1969 0.0
C1469 C 0.32461 0.15536 0.24549 0.0
C1470 C 0.35068 0.1615 0.18915 0.0
C1471 C 0.34279 0.13861 0.19774 0.0
C1472 C 0.32967 0.13557 0.22611 0.0
N1473 N 0.34556 0.18084 0.20822 0.0
C1474 C 0.33278 0.17799 0.23612 0.0
Co1475 Co 0.53666 0.6498 0.97766 0.0
Co1476 Co 0.55083 0.59946 0.93319 0.0
O1477 O 0.54515 0.6159 0.97458 0.0
C1478 C 0.57131 0.64098 0.03354 0.0
O1479 O 0.57521 0.61875 0.02478 0.0
C1480 C 0.51568 0.56857 0.96697 0.0
O1481 O 0.50276 0.58797 0.97132 0.0
O1482 O 0.51932 0.6104 0.91595 0.0
O1483 O 0.51519 0.64679 0.93874 0.0
H1484 H 0.55328 0.59105 0.81223 0.0
H1485 H 0.52868 0.61587 0.0324 0.0
O1486 O 0.55737 0.65443 0.01714 0.0
H1487 H 0.45062 0.65482 0.01383 0.0
H1488 H 0.52204 0.7282 0.0344 0.0
H1489 H 0.53201 0.6882 0.92904 0.0
H1490 H 0.48579 0.66572 0.98087 0.0
H1491 H 0.52555 0.68422 0.03122 0.0
O1492 O 0.53546 0.56984 0.95161 0.0
H1493 H 0.54678 0.61229 0.86373 0.0
H1494 H 0.56646 0.54998 0.91623 0.0
H1495 H 0.52814 0.73214 0.93109 0.0
H1496 H 0.49414 0.60466 0.06617 0.0
H1497 H 0.52435 0.75245 0.98404 0.0
H1498 H 0.45468 0.62412 0.05695 0.0
O1499 O 0.56455 0.65847 0.95018 0.0
H1500 H 0.60644 0.56172 0.01418 0.0
H1501 H 0.60085 0.60115 0.90781 0.0
H1502 H 0.64033 0.58824 0.92814 0.0
H1503 H 0.64331 0.56829 0.98166 0.0
H1504 H 0.56736 0.57523 0.99315 0.0
H1505 H 0.57305 0.52798 0.86532 0.0
H1506 H 0.56652 0.54855 0.81282 0.0
O1507 O 0.56605 0.62881 0.91368 0.0
C1508 C 0.50885 0.63063 0.91855 0.0
C1509 C 0.55622 0.58189 0.83494 0.0
C1510 C 0.56729 0.54649 0.86474 0.0
N1511 N 0.55627 0.58245 0.89295 0.0
C1512 C 0.55259 0.59385 0.86418 0.0
C1513 C 0.56346 0.55903 0.89349 0.0
C1514 C 0.56363 0.55804 0.83529 0.0
C1515 C 0.51175 0.62469 0.02845 0.0
N1516 N 0.5094 0.64161 0.00479 0.0
C1517 C 0.49216 0.61815 0.04757 0.0
C1518 C 0.47002 0.62903 0.04234 0.0
C1519 C 0.46773 0.64624 0.01815 0.0
C1520 C 0.48771 0.6523 0.9995 0.0
C1521 C 0.52393 0.71954 0.01114 0.0
C1522 C 0.52933 0.69684 0.95214 0.0
C1523 C 0.52593 0.69464 0.0092 0.0
N1524 N 0.52901 0.68365 0.97997 0.0
C1525 C 0.52733 0.72174 0.95315 0.0
C1526 C 0.52501 0.73313 0.98291 0.0
C1527 C 0.5717 0.64978 0.92344 0.0
C1528 C 0.60538 0.57039 0.99082 0.0
C1529 C 0.60201 0.59274 0.93128 0.0
C1530 C 0.62441 0.58534 0.94259 0.0
C1531 C 0.62606 0.57411 0.97259 0.0
N1532 N 0.58181 0.58909 0.94936 0.0
C1533 C 0.58328 0.57801 0.97873 0.0
Co1534 Co 0.10026 0.78529 0.7478 0.0
Co1535 Co 0.14613 0.79577 0.69422 0.0
O1536 O 0.13368 0.79234 0.73817 0.0
C1537 C 0.10877 0.8284 0.78977 0.0
O1538 O 0.11686 0.84073 0.76502 0.0
C1539 C 0.17895 0.76138 0.72584 0.0
O1540 O 0.15973 0.74916 0.73395 0.0
O1541 O 0.13269 0.76399 0.68175 0.0
O1542 O 0.09821 0.76252 0.71019 0.0
H1543 H 0.14299 0.79246 0.5729 0.0
H1544 H 0.13851 0.77901 0.7968 0.0
O1545 O 0.10181 0.80686 0.78618 0.0
H1546 H 0.09683 0.70114 0.79157 0.0
H1547 H 0.02902 0.77646 0.82142 0.0
H1548 H 0.05629 0.78092 0.70821 0.0
H1549 H 0.08333 0.73518 0.75815 0.0
H1550 H 0.07218 0.7774 0.80849 0.0
O1551 O 0.17686 0.78036 0.70892 0.0
H1552 H 0.12667 0.78897 0.62808 0.0
H1553 H 0.19401 0.80903 0.66765 0.0
H1554 H 0.01295 0.77973 0.72007 0.0
H1555 H 0.1525 0.7456 0.83096 0.0
H1556 H 0.99912 0.77874 0.7771 0.0
H1557 H 0.13168 0.70627 0.82834 0.0
O1558 O 0.08977 0.81248 0.72016 0.0
H1559 H 0.18966 0.85379 0.76631 0.0
H1560 H 0.14474 0.84441 0.66443 0.0
H1561 H 0.15979 0.88434 0.68004 0.0
H1562 H 0.18247 0.88921 0.73128 0.0
H1563 H 0.17413 0.81422 0.74992 0.0
H1564 H 0.21114 0.8126 0.61289 0.0
H1565 H 0.18554 0.80436 0.56503 0.0
O1566 O 0.1157 0.81127 0.67872 0.0
C1567 C 0.11237 0.75458 0.6883 0.0
C1568 C 0.15432 0.79615 0.59355 0.0
C1569 C 0.19257 0.80742 0.616 0.0
N1570 N 0.15933 0.79887 0.65105 0.0
C1571 C 0.14515 0.79424 0.62485 0.0
C1572 C 0.18279 0.8053 0.64695 0.0
C1573 C 0.17819 0.8028 0.58916 0.0
C1574 C 0.12936 0.76195 0.79553 0.0
N1575 N 0.11039 0.75888 0.77505 0.0
C1576 C 0.13736 0.7431 0.81494 0.0
C1577 C 0.12568 0.72104 0.81344 0.0
C1578 C 0.10616 0.71813 0.79277 0.0
C1579 C 0.09871 0.73738 0.77369 0.0
C1580 C 0.03486 0.77728 0.7965 0.0
C1581 C 0.0504 0.77952 0.73303 0.0
C1582 C 0.05928 0.77775 0.78902 0.0
N1583 N 0.06676 0.77932 0.75762 0.0
C1584 C 0.02584 0.77908 0.7396 0.0
C1585 C 0.01809 0.77842 0.7716 0.0
C1586 C 0.09616 0.81833 0.69169 0.0
C1587 C 0.17987 0.85188 0.74387 0.0
C1588 C 0.15455 0.84639 0.6868 0.0
C1589 C 0.16306 0.86904 0.69548 0.0
C1590 C 0.1758 0.87175 0.72423 0.0
N1591 N 0.15868 0.82697 0.70615 0.0
C1592 C 0.17111 0.8295 0.7344 0.0
Co1593 Co 0.96714 0.35466 0.48511 0.0
Co1594 Co 0.95844 0.39885 0.42827 0.0
O1595 O 0.95885 0.38759 0.47326 0.0
C1596 C 0.92706 0.36885 0.53159 0.0
O1597 O 0.92394 0.38987 0.51806 0.0
C1598 C 0.98659 0.43607 0.46329 0.0
O1599 O 0.99934 0.41879 0.47623 0.0
O1600 O 0.99206 0.38769 0.42157 0.0
O1601 O 0.99252 0.35362 0.45062 0.0
H1602 H 0.97224 0.3927 0.30847 0.0
H1603 H 0.96878 0.39482 0.5329 0.0
O1604 O 0.94246 0.35412 0.52049 0.0
H1605 H 0.04827 0.3566 0.53852 0.0
H1606 H 0.97769 0.28523 0.56152 0.0
H1607 H 0.97727 0.31069 0.4474 0.0
H1608 H 0.01727 0.341 0.50169 0.0
H1609 H 0.9728 0.32784 0.54726 0.0
O1610 O 0.97009 0.43111 0.44307 0.0
H1611 H 0.97204 0.37819 0.36473 0.0
H1612 H 0.94414 0.44482 0.39693 0.0
H1613 H 0.98255 0.26791 0.46065 0.0
H1614 H 0.99902 0.41075 0.5704 0.0
H1615 H 0.98179 0.25488 0.51801 0.0
H1616 H 0.0392 0.39169 0.57336 0.0
O1617 O 0.94265 0.34209 0.45444 0.0
H1618 H 0.89175 0.44181 0.48598 0.0
H1619 H 0.91282 0.392 0.39174 0.0
H1620 H 0.87093 0.40487 0.39939 0.0
H1621 H 0.86016 0.43002 0.44674 0.0
H1622 H 0.93337 0.42828 0.47764 0.0
H1623 H 0.94414 0.46013 0.34104 0.0
H1624 H 0.95822 0.43398 0.29632 0.0
O1625 O 0.94666 0.367 0.41228 0.0
C1626 C 1.00164 0.36778 0.42965 0.0
C1627 C 0.96605 0.40427 0.32773 0.0
C1628 C 0.95032 0.44212 0.34602 0.0
N1629 N 0.95815 0.41062 0.38412 0.0
C1630 C 0.96589 0.39614 0.35965 0.0
C1631 C 0.95045 0.43337 0.37765 0.0
C1632 C 0.95821 0.42743 0.32094 0.0
C1633 C 0.98599 0.38613 0.53428 0.0
N1634 N 0.99107 0.36681 0.51518 0.0
C1635 C 0.00316 0.39537 0.55547 0.0
C1636 C 0.02571 0.38471 0.55707 0.0
C1637 C 0.03082 0.36505 0.53751 0.0
C1638 C 0.01321 0.35634 0.51657 0.0
C1639 C 0.97779 0.29069 0.53642 0.0
C1640 C 0.97771 0.30524 0.47246 0.0
C1641 C 0.97503 0.31479 0.52818 0.0
N1642 N 0.97472 0.32177 0.49649 0.0
C1643 C 0.98055 0.28098 0.4798 0.0
C1644 C 0.98026 0.27368 0.512 0.0
C1645 C 0.93928 0.34746 0.42486 0.0
C1646 C 0.89621 0.43085 0.46525 0.0
C1647 C 0.90826 0.40273 0.4126 0.0
C1648 C 0.88452 0.41007 0.41671 0.0
C1649 C 0.87849 0.42421 0.44325 0.0
N1650 N 0.92554 0.40928 0.43433 0.0
C1651 C 0.91977 0.42319 0.46035 0.0
Co1652 Co 0.39928 0.79161 0.27181 0.0
Co1653 Co 0.34891 0.80622 0.31611 0.0
O1654 O 0.36553 0.80086 0.27474 0.0
C1655 C 0.39167 0.82713 0.21676 0.0
O1656 O 0.36944 0.83139 0.2253 0.0
C1657 C 0.31786 0.77191 0.28144 0.0
O1658 O 0.33737 0.75917 0.27695 0.0
O1659 O 0.35909 0.77433 0.33269 0.0
O1660 O 0.39551 0.76976 0.3101 0.0
H1661 H 0.33973 0.8069 0.43702 0.0
H1662 H 0.3654 0.78525 0.2166 0.0
O1663 O 0.4047 0.81271 0.23299 0.0
H1664 H 0.40258 0.70613 0.2331 0.0
H1665 H 0.47781 0.77477 0.216 0.0
H1666 H 0.43716 0.78524 0.32084 0.0
H1667 H 0.41413 0.74047 0.26714 0.0
H1668 H 0.43396 0.7804 0.21845 0.0
O1669 O 0.31905 0.79158 0.29704 0.0
H1670 H 0.36117 0.80069 0.38559 0.0
H1671 H 0.29966 0.82269 0.33296 0.0
H1672 H 0.4809 0.77932 0.31949 0.0
H1673 H 0.35357 0.75157 0.18174 0.0
H1674 H 0.50159 0.77505 0.26688 0.0
H1675 H 0.37212 0.71158 0.18992 0.0
O1676 O 0.4084 0.81881 0.30016 0.0
H1677 H 0.3128 0.86363 0.23612 0.0
H1678 H 0.3515 0.8558 0.34273 0.0
H1679 H 0.33956 0.89579 0.32321 0.0
H1680 H 0.31998 0.89989 0.26958 0.0
H1681 H 0.32535 0.82402 0.25636 0.0
H1682 H 0.27746 0.829 0.3838 0.0
H1683 H 0.29754 0.82116 0.43633 0.0
O1684 O 0.37851 0.82048 0.33638 0.0
C1685 C 0.37915 0.76352 0.33005 0.0
C1686 C 0.3308 0.81043 0.41429 0.0
C1687 C 0.29584 0.8228 0.38442 0.0
N1688 N 0.33175 0.81141 0.35631 0.0
C1689 C 0.34288 0.80699 0.38509 0.0
C1690 C 0.30849 0.81914 0.35571 0.0
C1691 C 0.30712 0.81841 0.41389 0.0
C1692 C 0.37384 0.76809 0.22012 0.0
N1693 N 0.3906 0.76498 0.24384 0.0
C1694 C 0.36694 0.74899 0.20038 0.0
C1695 C 0.37731 0.72654 0.20502 0.0
C1696 C 0.39438 0.72347 0.22925 0.0
C1697 C 0.40079 0.74298 0.24855 0.0
C1698 C 0.46898 0.77682 0.23913 0.0
C1699 C 0.44591 0.78253 0.29783 0.0
C1700 C 0.44416 0.78002 0.24066 0.0
N1701 N 0.43299 0.78313 0.26977 0.0
C1702 C 0.47072 0.77934 0.29722 0.0
C1703 C 0.48231 0.77679 0.26763 0.0
C1704 C 0.39975 0.82564 0.32708 0.0
C1705 C 0.32131 0.86208 0.25953 0.0
C1706 C 0.34324 0.85745 0.31921 0.0
C1707 C 0.33639 0.88013 0.30836 0.0
C1708 C 0.32537 0.88242 0.2783 0.0
N1709 N 0.33925 0.83759 0.30062 0.0
C1710 C 0.32838 0.83968 0.27118 0.0
Co1711 Co 0.98633 0.64428 0.00957 0.0
Co1712 Co 0.95286 0.60653 0.05829 0.0
O1713 O 0.96638 0.61611 0.01667 0.0
C1714 C 0.94649 0.64941 0.96203 0.0
O1715 O 0.93118 0.64317 0.98462 0.0
C1716 C 0.98189 0.56549 0.03603 0.0
O1717 O 0.99895 0.58114 0.03031 0.0
O1718 O 0.98405 0.61192 0.08119 0.0
O1719 O 0.00444 0.63804 0.05018 0.0
H1720 H 0.93571 0.61434 0.17705 0.0
H1721 H 0.98136 0.60734 0.95847 0.0
O1722 O 0.96879 0.65102 0.96841 0.0
H1723 H 0.06797 0.61165 0.98185 0.0
H1724 H 0.03359 0.70251 0.94165 0.0
H1725 H 0.00515 0.68312 0.05141 0.0
H1726 H 0.03948 0.63814 0.01018 0.0
H1727 H 0.00969 0.66602 0.95159 0.0
O1728 O 0.96222 0.57237 0.04875 0.0
H1729 H 0.9526 0.62679 0.12457 0.0
H1730 H 0.92404 0.56448 0.07989 0.0
H1731 H 0.02911 0.71971 0.0426 0.0
H1732 H 0.00922 0.58065 0.92937 0.0
H1733 H 0.04342 0.72966 0.98736 0.0
H1734 H 0.05286 0.58262 0.94113 0.0
O1735 O 0.96339 0.66486 0.03392 0.0
H1736 H 0.89961 0.57586 0.96939 0.0
H1737 H 0.90239 0.62087 0.07186 0.0
H1738 H 0.86371 0.61566 0.04383 0.0
H1739 H 0.86215 0.59298 0.99221 0.0
H1740 H 0.93794 0.58169 0.99807 0.0
H1741 H 0.90698 0.55124 0.13194 0.0
H1742 H 0.91272 0.57629 0.18096 0.0
O1743 O 0.94334 0.64049 0.06795 0.0
C1744 C 0.00215 0.62535 0.07561 0.0
C1745 C 0.93305 0.60329 0.15585 0.0
C1746 C 0.91696 0.56786 0.13054 0.0
N1747 N 0.93924 0.59642 0.0992 0.0
C1748 C 0.94253 0.61027 0.12606 0.0
C1749 C 0.92672 0.57541 0.10116 0.0
C1750 C 0.92017 0.58193 0.15803 0.0
C1751 C 1.00035 0.60847 0.9635 0.0
N1752 N 0.00879 0.62427 0.98603 0.0
C1753 C 0.01603 0.59325 0.94702 0.0
C1754 C 0.04051 0.59434 0.95367 0.0
C1755 C 0.04899 0.6106 0.97655 0.0
C1756 C 0.03278 0.62549 0.9926 0.0
C1757 C 0.02743 0.69838 0.96582 0.0
C1758 C 0.01143 0.68725 0.02734 0.0
C1759 C 0.01383 0.67778 0.97158 0.0
N1760 N 0.006 0.67245 0.00205 0.0
C1761 C 0.02495 0.70802 0.02248 0.0
C1762 C 0.03296 0.7136 0.99148 0.0
C1763 C 0.94836 0.66125 0.05673 0.0
C1764 C 0.90005 0.58572 0.9919 0.0
C1765 C 0.90187 0.61105 0.04937 0.0
C1766 C 0.8799 0.6081 0.03364 0.0
C1767 C 0.87904 0.59536 0.00469 0.0
N1768 N 0.92239 0.60154 0.03668 0.0
C1769 C 0.92168 0.58899 0.00833 0.0
Co1770 Co 0.10354 0.21314 0.7555 0.0
Co1771 Co 0.14634 0.20526 0.81406 0.0
O1772 O 0.13618 0.20661 0.76908 0.0
C1773 C 0.11318 0.168 0.71814 0.0
O1774 O 0.11712 0.15597 0.74489 0.0
C1775 C 0.1791 0.23968 0.78299 0.0
O1776 O 0.15967 0.25098 0.7736 0.0
O1777 O 0.1315 0.23703 0.8232 0.0
O1778 O 0.0989 0.2371 0.79116 0.0
H1779 H 0.13675 0.21332 0.93432 0.0
H1780 H 0.14411 0.21729 0.70948 0.0
O1781 O 0.10768 0.19012 0.71904 0.0
H1782 H 0.10449 0.29625 0.70797 0.0
H1783 H 0.03818 0.22201 0.67262 0.0
H1784 H 0.05685 0.21833 0.78903 0.0
H1785 H 0.08859 0.26346 0.74172 0.0
H1786 H 0.08007 0.21925 0.69125 0.0
O1787 O 0.17727 0.22115 0.80089 0.0
H1788 H 0.12331 0.21424 0.87756 0.0
H1789 H 0.193 0.19447 0.84591 0.0
H1790 H 0.01466 0.22098 0.77142 0.0
H1791 H 0.1605 0.24947 0.67508 0.0
H1792 H 0.00512 0.22229 0.71279 0.0
H1793 H 0.14072 0.28933 0.67431 0.0
O1794 O 0.09133 0.18716 0.78412 0.0
H1795 H 0.19506 0.14606 0.75029 0.0
H1796 H 0.14474 0.1578 0.84702 0.0
H1797 H 0.16168 0.11785 0.83573 0.0
H1798 H 0.18709 0.1118 0.78709 0.0
H1799 H 0.17762 0.18566 0.76236 0.0
H1800 H 0.20727 0.1935 0.90235 0.0
H1801 H 0.17902 0.20289 0.94702 0.0
O1802 O 0.11555 0.18933 0.82747 0.0
C1803 C 0.11148 0.24588 0.81413 0.0
C1804 C 0.14921 0.20911 0.91509 0.0
C1805 C 0.1888 0.19802 0.89713 0.0
N1806 N 0.1573 0.20421 0.8585 0.0
C1807 C 0.14168 0.20952 0.88291 0.0
C1808 C 0.18063 0.19864 0.86523 0.0
C1809 C 0.17293 0.20328 0.92219 0.0
C1810 C 0.13531 0.23455 0.70913 0.0
N1811 N 0.1155 0.23857 0.72782 0.0
C1812 C 0.14471 0.25271 0.68966 0.0
C1813 C 0.13363 0.27509 0.68927 0.0
C1814 C 0.11333 0.27899 0.7082 0.0
C1815 C 0.10447 0.26041 0.72742 0.0
C1816 C 0.04212 0.22131 0.69822 0.0
C1817 C 0.05284 0.21941 0.76351 0.0
C1818 C 0.06581 0.21982 0.70893 0.0
N1819 N 0.0709 0.21871 0.74122 0.0
C1820 C 0.02892 0.22075 0.75368 0.0
C1821 C 0.02358 0.22151 0.72078 0.0
C1822 C 0.09653 0.18195 0.81334 0.0
C1823 C 0.18408 0.14848 0.77161 0.0
C1824 C 0.15574 0.1553 0.82577 0.0
C1825 C 0.16531 0.13264 0.81953 0.0
C1826 C 0.17958 0.12926 0.79225 0.0
N1827 N 0.16032 0.17408 0.80548 0.0
C1828 C 0.17422 0.17089 0.77863 0.0
Co1829 Co 0.52807 0.36761 0.52484 0.0
Co1830 Co 0.55115 0.4059 0.58224 0.0
O1831 O 0.54298 0.39754 0.5379 0.0
C1832 C 0.56234 0.35286 0.47324 0.0
O1833 O 0.56731 0.33354 0.49005 0.0
C1834 C 0.52041 0.44505 0.55896 0.0
O1835 O 0.50503 0.42818 0.55125 0.0
O1836 O 0.5186 0.3967 0.59797 0.0
O1837 O 0.50738 0.36698 0.56444 0.0
H1838 H 0.55618 0.39355 0.70235 0.0
H1839 H 0.52877 0.4096 0.48078 0.0
O1840 O 0.54803 0.36855 0.48452 0.0
H1841 H 0.44329 0.38922 0.49426 0.0
H1842 H 0.49066 0.31083 0.44462 0.0
H1843 H 0.51558 0.32219 0.55794 0.0
H1844 H 0.47463 0.36503 0.52073 0.0
H1845 H 0.50966 0.34861 0.46201 0.0
O1846 O 0.53985 0.43952 0.57338 0.0
H1847 H 0.54604 0.38252 0.64628 0.0
H1848 H 0.57353 0.44891 0.61242 0.0
H1849 H 0.49652 0.28413 0.5416 0.0
H1850 H 0.49807 0.43408 0.45348 0.0
H1851 H 0.48364 0.27844 0.48465 0.0
H1852 H 0.45497 0.42404 0.4603 0.0
O1853 O 0.55328 0.34905 0.54851 0.0
H1854 H 0.61042 0.44586 0.50815 0.0
H1855 H 0.60071 0.39476 0.60452 0.0
H1856 H 0.64137 0.40499 0.58551 0.0
H1857 H 0.64642 0.43079 0.53706 0.0
H1858 H 0.57009 0.43502 0.52781 0.0
H1859 H 0.58379 0.46078 0.66818 0.0
H1860 H 0.57519 0.43295 0.71359 0.0
O1861 O 0.56248 0.37243 0.59112 0.0
C1862 C 0.50449 0.37971 0.58981 0.0
C1863 C 0.56007 0.40581 0.68277 0.0
C1864 C 0.57553 0.44356 0.66359 0.0
N1865 N 0.55931 0.41499 0.62611 0.0
C1866 C 0.55442 0.39963 0.65096 0.0
C1867 C 0.56962 0.43677 0.63209 0.0
C1868 C 0.57071 0.42793 0.68906 0.0
C1869 C 0.51007 0.40494 0.48363 0.0
N1870 N 0.5035 0.38593 0.50251 0.0
C1871 C 0.49276 0.41893 0.46818 0.0
C1872 C 0.46858 0.41333 0.47207 0.0
C1873 C 0.46202 0.39383 0.49117 0.0
C1874 C 0.47982 0.38027 0.50629 0.0
C1875 C 0.49609 0.31316 0.46953 0.0
C1876 C 0.51011 0.31977 0.53309 0.0
C1877 C 0.5069 0.33449 0.47951 0.0
N1878 N 0.51359 0.33765 0.51102 0.0
C1879 C 0.49935 0.29819 0.52398 0.0
C1880 C 0.49221 0.29496 0.492 0.0
C1881 C 0.56348 0.35254 0.57581 0.0
C1882 C 0.60845 0.43466 0.52935 0.0
C1883 C 0.60276 0.40592 0.58334 0.0
C1884 C 0.62583 0.4117 0.57274 0.0
C1885 C 0.62864 0.42618 0.54556 0.0
N1886 N 0.58304 0.41441 0.56741 0.0
C1887 C 0.58566 0.42853 0.54066 0.0
H1888 H 0.06692 0.15904 0.36807 0.0
H1889 H 0.10285 0.18576 0.45302 0.0
H1890 H 0.12217 0.21707 0.42082 0.0
H1891 H 0.12685 0.23844 0.3692 0.0
H1892 H 0.08763 0.21408 0.28556 0.0
H1893 H 0.07184 0.18029 0.31632 0.0
C1894 C 0.07926 0.1715 0.3794 0.0
C1895 C 0.08357 0.16998 0.41284 0.0
C1896 C 0.08963 0.19002 0.36095 0.0
C1897 C 0.09925 0.18655 0.42731 0.0
C1898 C 0.11028 0.20448 0.40892 0.0
C1899 C 0.11505 0.22561 0.35759 0.0
C1900 C 0.10854 0.22885 0.32499 0.0
C1901 C 0.10531 0.20663 0.3758 0.0
C1902 C 0.09298 0.21213 0.31053 0.0
C1903 C 0.08389 0.19276 0.32816 0.0
H1904 H 0.01164 0.87646 0.62688 0.0
H1905 H 0.03646 0.83701 0.54371 0.0
H1906 H 0.06953 0.82066 0.57511 0.0
H1907 H 0.09001 0.81544 0.62694 0.0
H1908 H 0.06309 0.85129 0.7118 0.0
H1909 H 0.03232 0.87118 0.67915 0.0
C1910 C 0.02441 0.86447 0.61557 0.0
C1911 C 0.02154 0.85807 0.58286 0.0
C1912 C 0.04299 0.85439 0.63418 0.0
C1913 C 0.03814 0.84226 0.56874 0.0
C1914 C 0.0571 0.83287 0.58672 0.0
C1915 C 0.07767 0.82791 0.63821 0.0
C1916 C 0.07898 0.83207 0.67167 0.0
C1917 C 0.05952 0.83853 0.61955 0.0
C1918 C 0.06248 0.84785 0.68605 0.0
C1919 C 0.04487 0.85919 0.6674 0.0
H1920 H 0.4199 0.84613 0.87562 0.0
H1921 H 0.41349 0.80717 0.96534 0.0
H1922 H 0.39559 0.77331 0.93656 0.0
H1923 H 0.38401 0.75379 0.88526 0.0
H1924 H 0.39314 0.79197 0.79564 0.0
H1925 H 0.40771 0.82711 0.82493 0.0
C1926 C 0.41436 0.83037 0.88902 0.0
C1927 C 0.41803 0.82929 0.92266 0.0
C1928 C 0.40471 0.81073 0.87223 0.0
C1929 C 0.41092 0.80853 0.93946 0.0
C1930 C 0.4007 0.78913 0.923 0.0
C1931 C 0.38891 0.76993 0.87228 0.0
C1932 C 0.38758 0.77034 0.83836 0.0
C1933 C 0.39782 0.78988 0.88932 0.0
C1934 C 0.39429 0.79119 0.8217 0.0
C1935 C 0.40254 0.8113 0.83846 0.0
H1936 H 0.41418 0.19079 0.13211 0.0
H1937 H 0.43982 0.15706 0.21927 0.0
H1938 H 0.47011 0.13526 0.18801 0.0
H1939 H 0.49053 0.12732 0.13606 0.0
H1940 H 0.46708 0.16476 0.0505 0.0
H1941 H 0.43459 0.18321 0.08079 0.0
C1942 C 0.42619 0.17844 0.14426 0.0
C1943 C 0.42459 0.17542 0.17796 0.0
C1944 C 0.44401 0.16661 0.12634 0.0
C1945 C 0.44063 0.15969 0.19335 0.0
C1946 C 0.45796 0.14723 0.17548 0.0
C1947 C 0.4782 0.13934 0.12398 0.0
C1948 C 0.48127 0.14446 0.09086 0.0
C1949 C 0.46001 0.15075 0.14197 0.0
C1950 C 0.4652 0.16034 0.0758 0.0
C1951 C 0.44659 0.171 0.09318 0.0
H1952 H 0.13269 0.78685 0.16483 0.0
H1953 H 0.08923 0.73222 0.12033 0.0
H1954 H 0.07145 0.76197 0.08404 0.0
H1955 H 0.06595 0.80387 0.06815 0.0
H1956 H 0.10688 0.85925 0.11588 0.0
H1957 H 0.12796 0.82901 0.14757 0.0
C1958 C 0.11973 0.78153 0.14662 0.0
C1959 C 0.11246 0.75749 0.14468 0.0
C1960 C 0.10892 0.79891 0.12674 0.0
C1961 C 0.09519 0.75069 0.1218 0.0
C1962 C 0.08496 0.76768 0.10124 0.0
C1963 C 0.07968 0.80937 0.08518 0.0
C1964 C 0.08478 0.83388 0.08949 0.0
C1965 C 0.09133 0.79192 0.10395 0.0
C1966 C 0.10251 0.84057 0.11198 0.0
C1967 C 0.11461 0.82326 0.13018 0.0
H1968 H 0.43751 0.85516 0.31404 0.0
H1969 H 0.40008 0.82053 0.39244 0.0
H1970 H 0.43164 0.83251 0.42997 0.0
H1971 H 0.47155 0.8499 0.43955 0.0
H1972 H 0.50751 0.88744 0.36249 0.0
H1973 H 0.47493 0.87735 0.32546 0.0
C1974 C 0.43607 0.85064 0.33947 0.0
C1975 C 0.41649 0.8369 0.35038 0.0
C1976 C 0.4542 0.85783 0.36107 0.0
C1977 C 0.41481 0.83127 0.38342 0.0
C1978 C 0.43299 0.83793 0.40488 0.0
C1979 C 0.4722 0.85599 0.41475 0.0
C1980 C 0.49226 0.86891 0.40368 0.0
C1981 C 0.45304 0.85072 0.39382 0.0
C1982 C 0.49249 0.8772 0.3716 0.0
C1983 C 0.47383 0.87144 0.35037 0.0
H1984 H 0.41657 0.22729 0.68349 0.0
H1985 H 0.35798 0.24341 0.61901 0.0
H1986 H 0.37241 0.21289 0.58113 0.0
H1987 H 0.40235 0.18159 0.56613 0.0
H1988 H 0.45856 0.16422 0.63373 0.0
H1989 H 0.44434 0.19515 0.67065 0.0
C1990 C 0.40671 0.22406 0.66139 0.0
C1991 C 0.38617 0.2377 0.65428 0.0
C1992 C 0.41478 0.20621 0.64016 0.0
C1993 C 0.37379 0.23315 0.62527 0.0
C1994 C 0.38209 0.21573 0.60351 0.0
C1995 C 0.41136 0.18467 0.58898 0.0
C1996 C 0.43144 0.1707 0.5973 0.0
C1997 C 0.40266 0.20219 0.61063 0.0
C1998 C 0.44293 0.17462 0.62702 0.0
C1999 C 0.43487 0.19235 0.64808 0.0
H2000 H 0.09307 0.1794 0.87882 0.0
H2001 H 0.05924 0.15441 0.79126 0.0
H2002 H 0.02746 0.13552 0.82305 0.0
H2003 H 0.00768 0.12866 0.87555 0.0
H2004 H 0.04014 0.1567 0.96234 0.0
H2005 H 0.07407 0.1716 0.93108 0.0
C2006 C 0.07896 0.16955 0.86663 0.0
C2007 C 0.07862 0.16836 0.83264 0.0
C2008 C 0.06035 0.15935 0.88498 0.0
C2009 C 0.05997 0.15569 0.81736 0.0
C2010 C 0.04174 0.1449 0.83554 0.0
C2011 C 0.02233 0.13774 0.88768 0.0
C2012 C 0.0213 0.14153 0.92131 0.0
C2013 C 0.04151 0.14698 0.86935 0.0
C2014 C 0.04036 0.15358 0.93653 0.0
C2015 C 0.0598 0.16215 0.91864 0.0
H2016 H 0.93907 0.84345 0.6266 0.0
H2017 H 0.90267 0.81899 0.54081 0.0
H2018 H 0.88259 0.78758 0.57206 0.0
H2019 H 0.87767 0.76525 0.62309 0.0
H2020 H 0.91773 0.78752 0.70708 0.0
H2021 H 0.93379 0.82157 0.67748 0.0
C2022 C 0.92641 0.83152 0.61488 0.0
C2023 C 0.92222 0.83366 0.58151 0.0
C2024 C 0.91567 0.81294 0.63271 0.0
C2025 C 0.90615 0.81772 0.56651 0.0
C2026 C 0.89471 0.79973 0.58435 0.0
C2027 C 0.88969 0.77769 0.63501 0.0
C2028 C 0.89636 0.77376 0.66741 0.0
C2029 C 0.89967 0.79687 0.61738 0.0
C2030 C 0.91221 0.79 0.68229 0.0
C2031 C 0.92148 0.80954 0.66532 0.0
H2032 H 0.99471 0.12624 0.37418 0.0
H2033 H 0.96816 0.15639 0.46322 0.0
H2034 H 0.93208 0.17024 0.43573 0.0
H2035 H 0.90924 0.17611 0.38581 0.0
H2036 H 0.93729 0.14943 0.29559 0.0
H2037 H 0.9715 0.13179 0.32403 0.0
C2038 C 0.98091 0.13563 0.38759 0.0
C2039 C 0.98416 0.14029 0.42072 0.0
C2040 C 0.96049 0.14423 0.37135 0.0
C2041 C 0.96622 0.15271 0.4377 0.0
C2042 C 0.94553 0.16061 0.422 0.0
C2043 C 0.92263 0.1661 0.37244 0.0
C2044 C 0.92066 0.16393 0.3387 0.0
C2045 C 0.94264 0.15679 0.38875 0.0
C2046 C 0.93842 0.15132 0.32161 0.0
C2047 C 0.95798 0.14127 0.33784 0.0
H2048 H 0.56056 0.16341 0.13289 0.0
H2049 H 0.59979 0.18329 0.04719 0.0
H2050 H 0.62102 0.21449 0.07764 0.0
H2051 H 0.62714 0.23702 0.12826 0.0
H2052 H 0.58398 0.21975 0.21167 0.0
H2053 H 0.56594 0.18635 0.18274 0.0
C2054 C 0.57396 0.17439 0.12097 0.0
C2055 C 0.57879 0.17094 0.08796 0.0
C2056 C 0.58542 0.19273 0.13829 0.0
C2057 C 0.59581 0.18564 0.07263 0.0
C2058 C 0.60794 0.20343 0.09003 0.0
C2059 C 0.61392 0.22588 0.14019 0.0
C2060 C 0.60713 0.23087 0.17229 0.0
C2061 C 0.60273 0.20728 0.12283 0.0
C2062 C 0.58975 0.21631 0.18717 0.0
C2063 C 0.5793 0.19721 0.17056 0.0
H2064 H 0.53041 0.84892 0.93852 0.0
H2065 H 0.49434 0.88699 0.86198 0.0
H2066 H 0.52492 0.87384 0.8235 0.0
H2067 H 0.56149 0.85009 0.81118 0.0
H2068 H 0.59856 0.81486 0.88939 0.0
H2069 H 0.56824 0.82844 0.92744 0.0
C2070 C 0.52928 0.85455 0.91352 0.0
C2071 C 0.50992 0.8688 0.90325 0.0
C2072 C 0.5472 0.84738 0.89167 0.0
C2073 C 0.50898 0.87601 0.87067 0.0
C2074 C 0.52646 0.86843 0.84857 0.0
C2075 C 0.56297 0.84558 0.83659 0.0
C2076 C 0.58234 0.83148 0.84734 0.0
C2077 C 0.54557 0.85389 0.85872 0.0
C2078 C 0.58406 0.82589 0.88041 0.0
C2079 C 0.56661 0.83354 0.90225 0.0
H2080 H 0.89882 0.25534 0.88145 0.0
H2081 H 0.88393 0.20718 0.80269 0.0
H2082 H 0.89816 0.17318 0.83484 0.0
H2083 H 0.91699 0.15765 0.88421 0.0
H2084 H 0.93211 0.20606 0.96315 0.0
H2085 H 0.9154 0.23929 0.93236 0.0
C2086 C 0.89837 0.2373 0.8717 0.0
C2087 C 0.89042 0.23357 0.83994 0.0
C2088 C 0.9067 0.21792 0.8903 0.0
C2089 C 0.8901 0.21031 0.82714 0.0
C2090 C 0.89822 0.19092 0.8455 0.0
C2091 C 0.91645 0.1754 0.89487 0.0
C2092 C 0.92598 0.17922 0.92598 0.0
C2093 C 0.90693 0.19457 0.87694 0.0
C2094 C 0.925 0.20245 0.93928 0.0
C2095 C 0.91547 0.22156 0.92165 0.0
H2096 H 0.59406 0.18041 0.62905 0.0
H2097 H 0.56074 0.15941 0.71883 0.0
H2098 H 0.53019 0.13698 0.68916 0.0
H2099 H 0.51122 0.12588 0.63765 0.0
H2100 H 0.54231 0.15037 0.54819 0.0
H2101 H 0.57563 0.16846 0.57762 0.0
C2102 C 0.5803 0.17068 0.64214 0.0
C2103 C 0.57969 0.17161 0.6761 0.0
C2104 C 0.56234 0.15843 0.62492 0.0
C2105 C 0.56155 0.1591 0.69267 0.0
C2106 C 0.54408 0.14624 0.67573 0.0
C2107 C 0.52544 0.13486 0.62459 0.0
C2108 C 0.52422 0.1368 0.59074 0.0
C2109 C 0.54405 0.14612 0.64183 0.0
C2110 C 0.54274 0.14872 0.57421 0.0
C2111 C 0.56179 0.15912 0.59106 0.0
H2112 H 0.60094 0.77863 0.31143 0.0
H2113 H 0.63784 0.741 0.38764 0.0
H2114 H 0.62543 0.77161 0.42645 0.0
H2115 H 0.60233 0.80838 0.43923 0.0
H2116 H 0.5684 0.84719 0.36151 0.0
H2117 H 0.58159 0.81704 0.32292 0.0
C2118 C 0.60649 0.77719 0.33643 0.0
C2119 C 0.6201 0.75734 0.34654 0.0
C2120 C 0.59978 0.79514 0.35846 0.0
C2121 C 0.62729 0.75599 0.3791 0.0
C2122 C 0.62014 0.77349 0.40138 0.0
C2123 C 0.59806 0.81031 0.41379 0.0
C2124 C 0.58435 0.83004 0.40335 0.0
C2125 C 0.60612 0.79303 0.39142 0.0
C2126 C 0.57908 0.83236 0.37026 0.0
C2127 C 0.5865 0.81502 0.34812 0.0
H2128 H 0.94385 0.84485 0.1963 0.0
H2129 H 0.89713 0.83098 0.11509 0.0
H2130 H 0.92564 0.8501 0.07889 0.0
H2131 H 0.9654 0.86718 0.06926 0.0
H2132 H 0.0122 0.88215 0.14962 0.0
H2133 H 0.98194 0.86664 0.1872 0.0
C2134 C 0.93974 0.8463 0.17076 0.0
C2135 C 0.91845 0.8361 0.1585 0.0
C2136 C 0.95627 0.85747 0.14985 0.0
C2137 C 0.91338 0.83843 0.12533 0.0
C2138 C 0.92973 0.84935 0.10448 0.0
C2139 C 0.96884 0.86735 0.09503 0.0
C2140 C 0.99109 0.87552 0.10662 0.0
C2141 C 0.95145 0.85837 0.11634 0.0
C2142 C 0.99518 0.87601 0.14011 0.0
C2143 C 0.97795 0.86696 0.16157 0.0
H2144 H 0.60166 0.6869 0.9383 0.0
H2145 H 0.56946 0.64973 0.85782 0.0
H2146 H 0.58421 0.68039 0.82082 0.0
H2147 H 0.60318 0.7195 0.81203 0.0
H2148 H 0.63825 0.75537 0.89119 0.0
H2149 H 0.62564 0.72348 0.92798 0.0
C2150 C 0.59824 0.68533 0.91259 0.0
C2151 C 0.58434 0.66611 0.90089 0.0
C2152 C 0.60707 0.70293 0.89127 0.0
C2153 C 0.58021 0.66421 0.86748 0.0
C2154 C 0.58849 0.68186 0.84629 0.0
C2155 C 0.60823 0.72029 0.83723 0.0
C2156 C 0.62113 0.74014 0.84891 0.0
C2157 C 0.60144 0.70158 0.85803 0.0
C2158 C 0.62806 0.74051 0.88157 0.0
C2159 C 0.62083 0.72225 0.90266 0.0
H2160 H 0.57119 0.35517 0.19029 0.0
H2161 H 0.5821 0.29036 0.13541 0.0
H2162 H 0.55024 0.30169 0.09824 0.0
H2163 H 0.51985 0.32974 0.08083 0.0
H2164 H 0.50984 0.39649 0.13172 0.0
H2165 H 0.54056 0.38465 0.17104 0.0
C2166 C 0.56647 0.34365 0.17017 0.0
C2167 C 0.57902 0.32206 0.16538 0.0
C2168 C 0.54836 0.3506 0.14819 0.0
C2169 C 0.57287 0.30722 0.13926 0.0
C2170 C 0.5546 0.31362 0.11807 0.0
C2171 C 0.5244 0.34193 0.10026 0.0
C2172 C 0.5126 0.36411 0.10298 0.0
C2173 C 0.54237 0.3353 0.12215 0.0
C2174 C 0.51872 0.37937 0.1288 0.0
C2175 C 0.53628 0.37259 0.15134 0.0
H2176 H 0.90827 0.27457 0.3165 0.0
H2177 H 0.86518 0.24619 0.39419 0.0
H2178 H 0.8801 0.27757 0.43028 0.0
H2179 H 0.90675 0.31243 0.44021 0.0
H2180 H 0.94728 0.34183 0.36064 0.0
H2181 H 0.93182 0.31087 0.32487 0.0
C2182 C 0.90189 0.27531 0.34119 0.0
C2183 C 0.88571 0.25789 0.35254 0.0
C2184 C 0.91015 0.29364 0.36157 0.0
C2185 C 0.87763 0.25932 0.38471 0.0
C2186 C 0.88622 0.27725 0.40543 0.0
C2187 C 0.91205 0.31209 0.415 0.0
C2188 C 0.92823 0.32941 0.4032 0.0
C2189 C 0.90269 0.29439 0.39421 0.0
C2190 C 0.93476 0.32887 0.37038 0.0
C2191 C 0.92601 0.31108 0.34987 0.0
H2192 H 0.91338 0.68611 0.62134 0.0
H2193 H 0.94344 0.65961 0.71053 0.0
H2194 H 0.97421 0.63789 0.68031 0.0
H2195 H 0.99399 0.62833 0.62866 0.0
H2196 H 0.96597 0.65818 0.54028 0.0
H2197 H 0.93284 0.67625 0.56991 0.0
C2198 C 0.9265 0.6754 0.63419 0.0
C2199 C 0.92605 0.6745 0.66817 0.0
C2200 C 0.94455 0.6635 0.61673 0.0
C2201 C 0.9434 0.66071 0.68439 0.0
C2202 C 0.961 0.64825 0.66712 0.0
C2203 C 0.98051 0.63855 0.61584 0.0
C2204 C 0.98254 0.64184 0.58221 0.0
C2205 C 0.96195 0.64976 0.63329 0.0
C2206 C 0.96494 0.65535 0.56608 0.0
C2207 C 0.94598 0.66577 0.58306 0.0
H2208 H 0.57615 0.34865 0.63905 0.0
H2209 H 0.57856 0.31015 0.54865 0.0
H2210 H 0.59702 0.27588 0.57588 0.0
H2211 H 0.61059 0.25597 0.62625 0.0
H2212 H 0.60485 0.29379 0.71671 0.0
H2213 H 0.5897 0.32919 0.68866 0.0
C2214 C 0.58087 0.33289 0.62512 0.0
C2215 C 0.57599 0.33213 0.59172 0.0
C2216 C 0.59084 0.31303 0.64108 0.0
C2217 C 0.58208 0.31133 0.57433 0.0
C2218 C 0.59264 0.29168 0.58992 0.0
C2219 C 0.6063 0.2721 0.63965 0.0
C2220 C 0.60886 0.27234 0.67349 0.0
C2221 C 0.59687 0.29221 0.62338 0.0
C2222 C 0.60287 0.29316 0.69071 0.0
C2223 C 0.59424 0.31341 0.67466 0.0
H2224 H 0.98749 0.37806 0.86933 0.0
H2225 H 0.96818 0.33569 0.95262 0.0
H2226 H 0.93481 0.31815 0.92291 0.0
H2227 H 0.91258 0.3127 0.87219 0.0
H2228 H 0.93465 0.35127 0.78697 0.0
H2229 H 0.96542 0.37235 0.81832 0.0
C2230 C 0.97589 0.36515 0.8811 0.0
C2231 C 0.98037 0.35839 0.91336 0.0
C2232 C 0.95723 0.35432 0.86337 0.0
C2233 C 0.9652 0.34139 0.92798 0.0
C2234 C 0.94609 0.33126 0.91094 0.0
C2235 C 0.92387 0.32602 0.86064 0.0
C2236 C 0.92119 0.33066 0.82743 0.0
C2237 C 0.94212 0.33733 0.8785 0.0
C2238 C 0.93634 0.3475 0.81256 0.0
C2239 C 0.95394 0.35951 0.83046 0.0
H2240 H 0.90578 0.66414 0.08955 0.0
H2241 H 0.96691 0.7063 0.05992 0.0
H2242 H 0.95203 0.74036 0.09068 0.0
H2243 H 0.92302 0.75755 0.12876 0.0
H2244 H 0.86031 0.71711 0.15578 0.0
H2245 H 0.87423 0.68309 0.12309 0.0
C2246 C 0.91572 0.68085 0.08961 0.0
C2247 C 0.9376 0.6825 0.07269 0.0
C2248 C 0.90678 0.70067 0.10693 0.0
C2249 C 0.95008 0.70442 0.0727 0.0
C2250 C 0.94161 0.72395 0.0904 0.0
C2251 C 0.91229 0.74135 0.12714 0.0
C2252 C 0.89079 0.73966 0.14469 0.0
C2253 C 0.92021 0.72216 0.10798 0.0
C2254 C 0.87687 0.71877 0.14226 0.0
C2255 C 0.88491 0.69932 0.12377 0.0
H2256 H 0.59364 0.6753 0.37675 0.0
H2257 H 0.559 0.65547 0.28748 0.0
H2258 H 0.52549 0.6381 0.31784 0.0
H2259 H 0.5051 0.63057 0.36986 0.0
H2260 H 0.53825 0.65414 0.45837 0.0
H2261 H 0.57339 0.66786 0.42835 0.0
C2262 C 0.57893 0.6669 0.3639 0.0
C2263 C 0.57894 0.66652 0.32988 0.0
C2264 C 0.55939 0.65773 0.38146 0.0
C2265 C 0.55946 0.65598 0.31365 0.0
C2266 C 0.54029 0.64606 0.33101 0.0
C2267 C 0.5201 0.63848 0.38257 0.0
C2268 C 0.51904 0.64135 0.41634 0.0
C2269 C 0.53992 0.6471 0.36493 0.0
C2270 C 0.53853 0.65191 0.43242 0.0
C2271 C 0.55866 0.65972 0.41524 0.0
H2272 H 0.44201 0.34192 0.12486 0.0
H2273 H 0.39418 0.32433 0.0467 0.0
H2274 H 0.37554 0.29281 0.07981 0.0
H2275 H 0.37456 0.2689 0.13038 0.0
H2276 H 0.42718 0.28366 0.20431 0.0
H2277 H 0.44204 0.31757 0.17378 0.0
C2278 C 0.42716 0.33149 0.11537 0.0
C2279 C 0.41904 0.3357 0.0838 0.0
C2280 C 0.41749 0.31274 0.13382 0.0
C2281 C 0.40042 0.32154 0.0712 0.0
C2282 C 0.38989 0.30348 0.09006 0.0
C2283 C 0.38913 0.27966 0.13991 0.0
C2284 C 0.39928 0.27392 0.17015 0.0
C2285 C 0.39852 0.29869 0.12132 0.0
C2286 C 0.41855 0.2878 0.18165 0.0
C2287 C 0.42723 0.30723 0.16405 0.0
H2288 H 0.46688 0.65251 0.93322 0.0
H2289 H 0.50583 0.62135 0.85379 0.0
H2290 H 0.47492 0.63495 0.81604 0.0
H2291 H 0.43784 0.6581 0.80535 0.0
H2292 H 0.39791 0.68664 0.88604 0.0
H2293 H 0.42799 0.6716 0.92341 0.0
C2294 C 0.46856 0.64863 0.90769 0.0
C2295 C 0.48883 0.63632 0.89629 0.0
C2296 C 0.45049 0.65608 0.88627 0.0
C2297 C 0.49047 0.63088 0.8632 0.0
C2298 C 0.47281 0.63874 0.84157 0.0
C2299 C 0.4356 0.66079 0.83113 0.0
C2300 C 0.41566 0.6737 0.84272 0.0
C2301 C 0.45289 0.65171 0.85277 0.0
C2302 C 0.41297 0.67679 0.87629 0.0
C2303 C 0.43026 0.66827 0.89778 0.0
H2304 H 0.11796 0.74629 0.62371 0.0
H2305 H 0.08872 0.71537 0.71068 0.0
H2306 H 0.07339 0.68141 0.68012 0.0
H2307 H 0.06664 0.66131 0.62853 0.0
H2308 H 0.0926 0.69339 0.54034 0.0
H2309 H 0.11087 0.72601 0.57139 0.0
C2310 C 0.10838 0.73203 0.63594 0.0
C2311 C 0.10443 0.73344 0.66949 0.0
C2312 C 0.09895 0.71278 0.61793 0.0
C2313 C 0.0918 0.71491 0.68494 0.0
C2314 C 0.08308 0.6954 0.66744 0.0
C2315 C 0.07649 0.67528 0.61605 0.0
C2316 C 0.07835 0.6748 0.58216 0.0
C2317 C 0.08629 0.69429 0.6339 0.0
C2318 C 0.09089 0.69331 0.56642 0.0
C2319 C 0.10134 0.71197 0.58416 0.0
H2320 H 0.01448 0.37648 0.36705 0.0
H2321 H 0.03763 0.33972 0.4532 0.0
H2322 H 0.07084 0.32176 0.42363 0.0
H2323 H 0.09142 0.31374 0.37226 0.0
H2324 H 0.06546 0.34664 0.28471 0.0
H2325 H 0.0352 0.36864 0.3156 0.0
C2326 C 0.02689 0.36473 0.37943 0.0
C2327 C 0.02344 0.35946 0.41237 0.0
C2328 C 0.04536 0.35351 0.36183 0.0
C2329 C 0.03974 0.34408 0.42792 0.0
C2330 C 0.05875 0.33371 0.41096 0.0
C2331 C 0.07933 0.32596 0.36002 0.0
C2332 C 0.08072 0.32861 0.32628 0.0
C2333 C 0.06144 0.33788 0.37776 0.0
C2334 C 0.06469 0.34423 0.31068 0.0
C2335 C 0.04741 0.35683 0.32833 0.0
H2336 H 0.40324 0.69154 0.4434 0.0
H2337 H 0.44105 0.65646 0.36564 0.0
H2338 H 0.42655 0.68638 0.32759 0.0
H2339 H 0.40522 0.72379 0.31688 0.0
H2340 H 0.36496 0.75783 0.39296 0.0
H2341 H 0.37807 0.72698 0.43109 0.0
C2342 C 0.40808 0.69035 0.41806 0.0
C2343 C 0.42333 0.67184 0.40746 0.0
C2344 C 0.39933 0.70748 0.39603 0.0
C2345 C 0.42926 0.6704 0.37449 0.0
C2346 C 0.42108 0.68759 0.35267 0.0
C2347 C 0.39919 0.72441 0.34171 0.0
C2348 C 0.38449 0.74333 0.35214 0.0
C2349 C 0.40642 0.7064 0.36326 0.0
C2350 C 0.3764 0.74355 0.38432 0.0
C2351 C 0.38396 0.72594 0.40617 0.0
H2352 H 0.04936 0.63442 0.06643 0.0
H2353 H 0.99679 0.62309 0.1413 0.0
H2354 H 0.02587 0.63581 0.18219 0.0
H2355 H 0.06459 0.65487 0.19554 0.0
H2356 H 0.11698 0.66561 0.11992 0.0
H2357 H 0.08969 0.64811 0.08063 0.0
C2358 C 0.04437 0.63437 0.09173 0.0
C2359 C 0.02085 0.62815 0.10074 0.0
C2360 C 0.0611 0.64178 0.115 0.0
C2361 C 0.01477 0.62779 0.1337 0.0
C2362 C 0.03136 0.63523 0.15708 0.0
C2363 C 0.07025 0.65299 0.1706 0.0
C2364 C 0.09273 0.66202 0.16075 0.0
C2365 C 0.05435 0.64297 0.14787 0.0
C2366 C 0.09976 0.65912 0.12831 0.0
C2367 C 0.08411 0.64916 0.10568 0.0
H2368 H 0.12246 0.26137 0.87503 0.0
H2369 H 0.07847 0.27813 0.79223 0.0
H2370 H 0.06183 0.31257 0.82037 0.0
H2371 H 0.05829 0.33708 0.86924 0.0
H2372 H 0.09891 0.3183 0.95418 0.0
H2373 H 0.11829 0.28558 0.92459 0.0
C2374 C 0.10937 0.27266 0.86305 0.0
C2375 C 0.10198 0.26722 0.83132 0.0
C2376 C 0.09917 0.29207 0.87986 0.0
C2377 C 0.08469 0.28188 0.81644 0.0
C2378 C 0.07508 0.30162 0.83258 0.0
C2379 C 0.07161 0.32601 0.88114 0.0
C2380 C 0.07735 0.33023 0.91372 0.0
C2381 C 0.08203 0.30679 0.86435 0.0
C2382 C 0.09425 0.31541 0.92907 0.0
C2383 C 0.10531 0.29671 0.91217 0.0
H2384 H 0.46197 0.35943 0.57322 0.0
H2385 H 0.50152 0.38602 0.65529 0.0
H2386 H 0.47025 0.37125 0.69163 0.0
H2387 H 0.43313 0.34794 0.70014 0.0
H2388 H 0.39285 0.32348 0.61733 0.0
H2389 H 0.42277 0.34064 0.58122 0.0
C2390 C 0.46368 0.36226 0.59898 0.0
C2391 C 0.48425 0.37352 0.61147 0.0
C2392 C 0.44547 0.35408 0.61964 0.0
C2393 C 0.48595 0.37731 0.64499 0.0
C2394 C 0.46808 0.36881 0.66581 0.0
C2395 C 0.43074 0.34666 0.67419 0.0
C2396 C 0.41087 0.33419 0.66153 0.0
C2397 C 0.44798 0.35674 0.65343 0.0
C2398 C 0.40791 0.33294 0.62782 0.0
C2399 C 0.42512 0.34264 0.60709 0.0
H2400 H 0.28025 0.22182 0.21331 0.0
H2401 H 0.30833 0.28376 0.26317 0.0
H2402 H 0.26814 0.29371 0.28233 0.0
H2403 H 0.22502 0.28483 0.28523 0.0
H2404 H 0.19684 0.22305 0.23514 0.0
H2405 H 0.23704 0.21307 0.21596 0.0
C2406 C 0.27761 0.23755 0.22828 0.0
C2407 C 0.29738 0.25204 0.23667 0.0
C2408 C 0.2544 0.24317 0.23934 0.0
C2409 C 0.29351 0.27231 0.25619 0.0
C2410 C 0.2705 0.278 0.26725 0.0
C2411 C 0.22764 0.26912 0.27021 0.0
C2412 C 0.20785 0.25466 0.26182 0.0
C2413 C 0.25082 0.26354 0.25906 0.0
C2414 C 0.21167 0.23447 0.24213 0.0
C2415 C 0.23469 0.22876 0.23108 0.0
H2416 H 0.97361 0.97644 0.53893 0.0
H2417 H 0.03207 0.94293 0.48757 0.0
H2418 H 0.04424 0.9818 0.46596 0.0
H2419 H 0.03822 0.02537 0.46125 0.0
H2420 H 0.97975 0.05875 0.51274 0.0
H2421 H 0.96772 0.01993 0.53448 0.0
C2422 C 0.98908 0.97761 0.52311 0.0
C2423 C 0.00192 0.95671 0.51503 0.0
C2424 C 0.99597 1.00004 0.51061 0.0
C2425 C 0.02187 0.95866 0.49436 0.0
C2426 C 0.02884 0.98091 0.48189 0.0
C2427 C 0.0228 0.02416 0.47715 0.0
C2428 C 0.00987 0.04503 0.48517 0.0
C2429 C 0.01599 0.00172 0.48976 0.0
C2430 C 0.99001 0.04306 0.50598 0.0
C2431 C 0.98312 0.02083 0.51852 0.0
H2432 H 0.27234 0.71759 0.78948 0.0
H2433 H 0.3046 0.77817 0.74119 0.0
H2434 H 0.26548 0.78994 0.72003 0.0
H2435 H 0.22206 0.7832 0.71527 0.0
H2436 H 0.18979 0.72265 0.76359 0.0
H2437 H 0.22894 0.71074 0.78451 0.0
C2438 C 0.27085 0.7334 0.77437 0.0
C2439 C 0.29146 0.747 0.76709 0.0
C2440 C 0.24826 0.74007 0.76215 0.0
C2441 C 0.2891 0.76738 0.74734 0.0
C2442 C 0.26671 0.77413 0.73515 0.0
C2443 C 0.22356 0.76734 0.73028 0.0
C2444 C 0.20293 0.75382 0.73771 0.0
C2445 C 0.24616 0.76062 0.74239 0.0
C2446 C 0.20531 0.73337 0.75733 0.0
C2447 C 0.22772 0.72656 0.76939 0.0
H2448 H 0.47929 0.05065 0.99829 0.0
H2449 H 0.53559 0.02495 0.061 0.0
H2450 H 0.52952 0.98426 0.04111 0.0
H2451 H 0.50857 0.9559 0.00569 0.0
H2452 H 0.45184 0.98122 0.94351 0.0
H2453 H 0.45788 0.02206 0.9633 0.0
C2454 C 0.49014 0.03614 0.00779 0.0
C2455 C 0.50783 0.04094 0.03121 0.0
C2456 C 0.48662 0.01269 0.99616 0.0
C2457 C 0.52179 0.02186 0.04304 0.0
C2458 C 0.5184 0.99854 0.03161 0.0
C2459 C 0.49761 0.97036 0.99628 0.0
C2460 C 0.47988 0.96548 0.97297 0.0
C2461 C 0.50096 0.99376 0.00805 0.0
C2462 C 0.46567 0.98444 0.96139 0.0
C2463 C 0.46907 0.00782 0.97274 0.0
H2464 H 0.22806 0.72138 0.21773 0.0
H2465 H 0.19229 0.78373 0.25629 0.0
H2466 H 0.2304 0.79848 0.27776 0.0
H2467 H 0.27394 0.79353 0.28594 0.0
H2468 H 0.30936 0.73107 0.247 0.0
H2469 H 0.27134 0.71662 0.2254 0.0
C2470 C 0.22853 0.73823 0.23079 0.0
C2471 C 0.20724 0.75141 0.23532 0.0
C2472 C 0.25049 0.74661 0.24308 0.0
C2473 C 0.20833 0.77321 0.25234 0.0
C2474 C 0.23015 0.78165 0.26468 0.0
C2475 C 0.27336 0.77675 0.27273 0.0
C2476 C 0.29457 0.7634 0.26825 0.0
C2477 C 0.25135 0.76849 0.26025 0.0
C2478 C 0.2934 0.74173 0.25096 0.0
C2479 C 0.27163 0.73342 0.23855 0.0
H2480 H 0.49332 0.95175 0.51072 0.0
H2481 H 0.55456 0.97582 0.45564 0.0
H2482 H 0.54725 0.01695 0.47277 0.0
H2483 H 0.52337 0.04634 0.50296 0.0
H2484 H 0.4623 0.0224 0.55844 0.0
H2485 H 0.46971 0.98115 0.5416 0.0
C2486 C 0.50506 0.96598 0.50243 0.0
C2487 C 0.52441 0.9606 0.48181 0.0
C2488 C 0.50083 0.98972 0.51247 0.0
C2489 C 0.53951 0.97934 0.47149 0.0
C2490 C 0.53535 0.00294 0.48127 0.0
C2491 C 0.51171 0.03212 0.51147 0.0
C2492 C 0.49232 0.03756 0.53199 0.0
C2493 C 0.51606 0.00836 0.50171 0.0
C2494 C 0.4774 0.01881 0.54269 0.0
C2495 C 0.48159 0.99516 0.53303 0.0
H2496 H 0.22247 0.21778 0.79163 0.0
H2497 H 0.18917 0.27897 0.74619 0.0
H2498 H 0.22774 0.29114 0.7238 0.0
H2499 H 0.27079 0.28432 0.71646 0.0
H2500 H 0.30435 0.22308 0.76134 0.0
H2501 H 0.26583 0.21105 0.78442 0.0
C2502 C 0.22367 0.23386 0.77699 0.0
C2503 C 0.20289 0.24747 0.77077 0.0
C2504 C 0.24595 0.2407 0.76389 0.0
C2505 C 0.20481 0.26816 0.75152 0.0
C2506 C 0.22689 0.27513 0.7386 0.0
C2507 C 0.26973 0.2683 0.73123 0.0
C2508 C 0.29049 0.2546 0.73701 0.0
C2509 C 0.24754 0.2615 0.7445 0.0
C2510 C 0.28869 0.23393 0.75633 0.0
C2511 C 0.26665 0.22706 0.76963 0.0
H2512 H 0.0184 0.05326 0.01224 0.0
H2513 H 0.96076 0.02877 0.95087 0.0
H2514 H 0.96771 0.98755 0.96833 0.0
H2515 H 0.99017 0.95831 1.00106 0.0
H2516 H 0.04793 0.98299 0.0621 0.0
H2517 H 0.0408 0.02414 0.04481 0.0
C2518 C 0.00741 0.03892 0.00252 0.0
C2519 C 0.98914 0.04418 0.98014 0.0
C2520 C 0.01143 0.01522 0.01275 0.0
C2521 C 0.97501 0.0253 0.96804 0.0
C2522 C 0.97893 0.00169 0.97807 0.0
C2523 C 1.0011 0.9727 0.01074 0.0
C2524 C 0.0195 0.96748 0.03296 0.0
C2525 C 0.99705 0.99642 1.00049 0.0
C2526 C 0.03363 0.9864 0.04499 0.0
C2527 C 0.02959 0.00999 0.03508 0.0
H2528 H 0.80188 0.77443 0.7556 0.0
H2529 H 0.78003 0.71405 0.69734 0.0
H2530 H 0.73836 0.72043 0.71295 0.0
H2531 H 0.70791 0.74283 0.74361 0.0
H2532 H 0.72975 0.80336 0.80159 0.0
H2533 H 0.77137 0.79719 0.7856 0.0
C2534 C 0.78801 0.76271 0.74619 0.0
C2535 C 0.79421 0.74381 0.72527 0.0
C2536 C 0.76396 0.76644 0.75529 0.0
C2537 C 0.7759 0.72879 0.71343 0.0
C2538 C 0.75199 0.73239 0.72238 0.0
C2539 C 0.72177 0.75467 0.7528 0.0
C2540 C 0.7156 0.77348 0.77389 0.0
C2541 C 0.74579 0.7511 0.74341 0.0
C2542 C 0.73386 0.78871 0.78535 0.0
C2543 C 0.75775 0.78521 0.77622 0.0
H2544 H 0.70112 0.23105 0.26366 0.0
H2545 H 0.72708 0.28617 0.19925 0.0
H2546 H 0.76799 0.27935 0.21798 0.0
H2547 H 0.79652 0.25783 0.25262 0.0
H2548 H 0.77071 0.20239 0.31659 0.0
H2549 H 0.72971 0.20936 0.29813 0.0
C2550 C 0.71572 0.24151 0.25358 0.0
C2551 C 0.71096 0.25905 0.22998 0.0
C2552 C 0.73928 0.23755 0.26451 0.0
C2553 C 0.73016 0.2725 0.21737 0.0
C2554 C 0.7536 0.26866 0.22812 0.0
C2555 C 0.78192 0.24736 0.2627 0.0
C2556 C 0.78673 0.22969 0.28609 0.0
C2557 C 0.75838 0.25129 0.25174 0.0
C2558 C 0.76757 0.21614 0.2986 0.0
C2559 C 0.74409 0.22008 0.28802 0.0
H2560 H 0.724 0.21835 0.71473 0.0
H2561 H 0.69402 0.28132 0.75991 0.0
H2562 H 0.73381 0.29301 0.77892 0.0
H2563 H 0.77711 0.28525 0.7832 0.0
H2564 H 0.80696 0.22201 0.73854 0.0
H2565 H 0.76726 0.2106 0.71899 0.0
C2566 C 0.72614 0.2347 0.72861 0.0
C2567 C 0.70597 0.24897 0.73572 0.0
C2568 C 0.74908 0.24126 0.73972 0.0
C2569 C 0.70917 0.27001 0.75395 0.0
C2570 C 0.73195 0.27671 0.7649 0.0
C2571 C 0.77496 0.26895 0.76921 0.0
C2572 C 0.79508 0.2545 0.76246 0.0
C2573 C 0.75203 0.26244 0.75802 0.0
C2574 C 0.79186 0.23346 0.74425 0.0
C2575 C 0.76913 0.22691 0.73298 0.0
H2576 H 0.8014 0.72777 0.25316 0.0
H2577 H 0.77751 0.79211 0.20488 0.0
H2578 H 0.73656 0.78451 0.22234 0.0
H2579 H 0.70725 0.75981 0.25114 0.0
H2580 H 0.73049 0.69538 0.29956 0.0
H2581 H 0.77175 0.70287 0.28229 0.0
C2582 C 0.78723 0.7401 0.24641 0.0
C2583 C 0.79268 0.76047 0.22764 0.0
C2584 C 0.76351 0.73568 0.25663 0.0
C2585 C 0.774 0.77627 0.21925 0.0
C2586 C 0.75048 0.77197 0.22925 0.0
C2587 C 0.72132 0.74742 0.25807 0.0
C2588 C 0.7157 0.7271 0.27675 0.0
C2589 C 0.74501 0.75177 0.24797 0.0
C2590 C 0.73424 0.7112 0.28526 0.0
C2591 C 0.75788 0.71546 0.27536 0.0
H2592 H 0.46766 0.47793 0.03244 0.0
H2593 H 0.53238 0.44454 0.99701 0.0
H2594 H 0.54565 0.48275 0.97456 0.0
H2595 H 0.5389 0.52561 0.96462 0.0
H2596 H 0.4743 0.55912 1.00018 0.0
H2597 H 0.46105 0.52092 0.02283 0.0
C2598 C 0.48471 0.47899 0.01988 0.0
C2599 C 0.49899 0.45831 0.01652 0.0
C2600 C 0.49226 0.50106 0.00693 0.0
C2601 C 0.52101 0.46011 1.00009 0.0
C2602 C 0.52863 0.48198 0.98717 0.0
C2603 C 0.52189 0.52459 0.97728 0.0
C2604 C 0.5076 0.54527 0.98054 0.0
C2605 C 0.51439 0.50256 0.99037 0.0
C2606 C 0.48567 0.54354 0.99717 0.0
C2607 C 0.47806 0.52168 0.01019 0.0
H2608 H 0.01658 0.45348 0.51009 0.0
H2609 H 0.96478 0.47587 0.43867 0.0
H2610 H 0.96981 0.51748 0.45519 0.0
H2611 H 0.9889 0.54776 0.48973 0.0
H2612 H 0.04085 0.52561 0.56105 0.0
H2613 H 0.03566 0.48387 0.54483 0.0
C2614 C 0.00646 0.46746 0.49804 0.0
C2615 C 0.99039 0.46144 0.47307 0.0
C2616 C 0.00935 0.49149 0.50774 0.0
C2617 C 0.97732 0.47987 0.45791 0.0
C2618 C 0.98014 0.50374 0.46738 0.0
C2619 C 0.99899 0.53381 0.50189 0.0
C2620 C 0.01517 0.53991 0.52668 0.0
C2621 C 0.99606 0.50979 0.49229 0.0
C2622 C 0.02822 0.52152 0.54193 0.0
C2623 C 0.02531 0.49759 0.53263 0.0
H2624 H 0.98 0.45497 1.00121 0.0
H2625 H 0.04022 0.47673 0.94243 0.0
H2626 H 0.03588 0.51785 0.96134 0.0
H2627 H 0.01543 0.5477 0.99488 0.0
H2628 H 0.95457 0.52661 0.05273 0.0
H2629 H 0.95883 0.48524 0.03398 0.0
C2630 C 0.99209 0.46871 0.99238 0.0
C2631 C 0.01039 0.46264 0.97035 0.0
C2632 C 0.98952 0.49248 0.00336 0.0
C2633 C 0.02592 0.48078 0.95929 0.0
C2634 C 0.02352 0.50435 0.97018 0.0
C2635 C 0.00316 0.53405 0.00357 0.0
C2636 C 0.98482 0.54025 0.0254 0.0
C2637 C 0.00549 0.51039 0.99234 0.0
C2638 C 0.9689 0.52234 0.03601 0.0
C2639 C 0.9713 0.49867 0.02526 0.0
H2640 H 0.48557 0.46083 0.51845 0.0
H2641 H 0.54613 0.48539 0.57436 0.0
H2642 H 0.54021 0.52613 0.55398 0.0
H2643 H 0.51805 0.55473 0.51951 0.0
H2644 H 0.45808 0.52924 0.46301 0.0
H2645 H 0.46373 0.48901 0.48428 0.0
C2646 C 0.49742 0.47508 0.52641 0.0
C2647 C 0.5162 0.47003 0.54805 0.0
C2648 C 0.49413 0.49835 0.51428 0.0
C2649 C 0.53148 0.48876 0.55779 0.0
C2650 C 0.52814 0.51207 0.54608 0.0
C2651 C 0.50626 0.54037 0.5118 0.0
C2652 C 0.48771 0.54512 0.48958 0.0
C2653 C 0.50959 0.51707 0.52415 0.0
C2654 C 0.47256 0.52622 0.47997 0.0
C2655 C 0.47572 0.50314 0.49219 0.0
H2656 H 0.05989 0.36546 0.08594 0.0
H2657 H 0.12859 0.35999 0.03853 0.0
H2658 H 0.14739 0.34906 0.09003 0.0
H2659 H 0.14309 0.33623 0.14736 0.0
H2660 H 0.07332 0.3396 0.19226 0.0
H2661 H 0.05622 0.35628 0.14303 0.0
C2662 C 0.07905 0.36215 0.08681 0.0
C2663 C 0.09274 0.36322 0.05829 0.0
C2664 C 0.08953 0.35532 0.11615 0.0
C2665 C 0.1176 0.35921 0.06008 0.0
C2666 C 0.12833 0.35283 0.08952 0.0
C2667 C 0.1243 0.34118 0.14648 0.0
C2668 C 0.10945 0.33665 0.17332 0.0
C2669 C 0.11434 0.35014 0.11756 0.0
C2670 C 0.08506 0.34283 0.17183 0.0
C2671 C 0.07524 0.35231 0.14367 0.0
H2672 H 0.89152 0.86269 0.31335 0.0
H2673 H 0.91237 0.78898 0.32889 0.0
H2674 H 0.92253 0.79788 0.38454 0.0
H2675 H 0.928 0.82656 0.4279 0.0
H2676 H 0.9082 0.90057 0.4142 0.0
H2677 H 0.89471 0.89146 0.35909 0.0
C2678 C 0.8981 0.84858 0.32901 0.0
C2679 C 0.90145 0.82527 0.31664 0.0
C2680 C 0.90411 0.85381 0.36138 0.0
C2681 C 0.90988 0.80716 0.33742 0.0
C2682 C 0.91567 0.81218 0.36941 0.0
C2683 C 0.9206 0.84075 0.413 0.0
C2684 C 0.91936 0.86426 0.42504 0.0
C2685 C 0.91326 0.83547 0.38145 0.0
C2686 C 0.90937 0.8823 0.40552 0.0
C2687 C 0.90179 0.87712 0.37394 0.0
H2688 H 0.39382 0.69649 0.66477 0.0
H2689 H 0.39104 0.62509 0.70462 0.0
H2690 H 0.3996 0.60827 0.65102 0.0
H2691 H 0.4116 0.61437 0.59369 0.0
H2692 H 0.41545 0.68643 0.556 0.0
H2693 H 0.40259 0.70241 0.60789 0.0
C2694 C 0.39494 0.6772 0.66185 0.0
C2695 C 0.39212 0.66209 0.68882 0.0
C2696 C 0.40013 0.66777 0.63127 0.0
C2697 C 0.39324 0.63714 0.68432 0.0
C2698 C 0.39821 0.62753 0.65368 0.0
C2699 C 0.40914 0.63351 0.59672 0.0
C2700 C 0.41458 0.64919 0.57101 0.0
C2701 C 0.40219 0.64272 0.62706 0.0
C2702 C 0.41152 0.67398 0.5754 0.0
C2703 C 0.40422 0.68316 0.6051 0.0
H2704 H 0.6414 0.16577 0.85269 0.0
H2705 H 0.57093 0.16554 0.80958 0.0
H2706 H 0.55384 0.14921 0.85905 0.0
H2707 H 0.55795 0.13914 0.91579 0.0
H2708 H 0.62746 0.14145 0.9615 0.0
H2709 H 0.64594 0.15236 0.90975 0.0
C2710 C 0.62242 0.16162 0.85402 0.0
C2711 C 0.60742 0.16691 0.82759 0.0
C2712 C 0.6125 0.15283 0.88308 0.0
C2713 C 0.5828 0.16174 0.82968 0.0
C2714 C 0.573 0.15244 0.85797 0.0
C2715 C 0.5772 0.14179 0.91452 0.0
C2716 C 0.59123 0.13979 0.94264 0.0
C2717 C 0.58753 0.1486 0.88506 0.0
C2718 C 0.61619 0.14295 0.94028 0.0
C2719 C 0.62676 0.14931 0.9107 0.0
H2720 H 0.07704 0.67384 0.43053 0.0
H2721 H 0.10291 0.60146 0.41961 0.0
H2722 H 0.11665 0.61085 0.36466 0.0
H2723 H 0.11818 0.63912 0.31812 0.0
H2724 H 0.09083 0.71098 0.33083 0.0
H2725 H 0.08067 0.70213 0.38651 0.0
C2726 C 0.08582 0.66007 0.41628 0.0
C2727 C 0.08869 0.63691 0.42903 0.0
C2728 C 0.09319 0.66545 0.3848 0.0
C2729 C 0.10047 0.61945 0.41037 0.0
C2730 C 0.10818 0.62478 0.37887 0.0
C2731 C 0.11018 0.65285 0.33319 0.0
C2732 C 0.10502 0.67558 0.32002 0.0
C2733 C 0.10415 0.64762 0.36555 0.0
C2734 C 0.09475 0.69323 0.34 0.0
C2735 C 0.08896 0.68825 0.37199 0.0
H2736 H 0.5953 0.80527 0.67009 0.0
H2737 H 0.61411 0.87672 0.70102 0.0
H2738 H 0.60748 0.89161 0.64599 0.0
H2739 H 0.5946 0.88447 0.58943 0.0
H2740 H 0.5754 0.8127 0.56002 0.0
H2741 H 0.58411 0.79788 0.61408 0.0
C2742 C 0.59798 0.82414 0.66496 0.0
C2743 C 0.60499 0.83988 0.68988 0.0
C2744 C 0.59411 0.83254 0.63341 0.0
C2745 C 0.6086 0.8642 0.68244 0.0
C2746 C 0.60482 0.87273 0.65093 0.0
C2747 C 0.59263 0.86554 0.59474 0.0
C2748 C 0.58428 0.84976 0.57057 0.0
C2749 C 0.59738 0.85708 0.62624 0.0
C2750 C 0.58168 0.82531 0.57805 0.0
C2751 C 0.58662 0.81678 0.60904 0.0
H2752 H 0.42501 0.31459 0.82119 0.0
H2753 H 0.36211 0.35945 0.81942 0.0
H2754 H 0.37162 0.37404 0.87405 0.0
H2755 H 0.39759 0.37273 0.92322 0.0
H2756 H 0.46061 0.32763 0.92182 0.0
H2757 H 0.4511 0.31445 0.86773 0.0
C2758 C 0.41326 0.32753 0.83267 0.0
C2759 C 0.39274 0.3357 0.81641 0.0
C2760 C 0.41884 0.33576 0.86369 0.0
C2761 C 0.37804 0.35285 0.83147 0.0
C2762 C 0.38343 0.36111 0.86273 0.0
C2763 C 0.40921 0.36006 0.91101 0.0
C2764 C 0.42974 0.35115 0.92693 0.0
C2765 C 0.40373 0.3525 0.87926 0.0
C2766 C 0.44469 0.33486 0.91052 0.0
C2767 C 0.43929 0.32722 0.87941 0.0
H2768 H 0.89301 0.19269 0.16894 0.0
H2769 H 0.88683 0.12107 0.2074 0.0
H2770 H 0.89684 0.10443 0.15422 0.0
H2771 H 0.91131 0.11061 0.09795 0.0
H2772 H 0.91925 0.1828 0.06206 0.0
H2773 H 0.90443 0.1988 0.11301 0.0
C2774 C 0.89367 0.1734 0.16579 0.0
C2775 C 0.88949 0.15817 0.19228 0.0
C2776 C 0.89983 0.16406 0.13551 0.0
C2777 C 0.8901 0.13323 0.18747 0.0
C2778 C 0.89589 0.12371 0.15708 0.0
C2779 C 0.90928 0.12978 0.10117 0.0
C2780 C 0.9164 0.14552 0.07635 0.0
C2781 C 0.90133 0.13897 0.13106 0.0
C2782 C 0.91398 0.17035 0.08088 0.0
C2783 C 0.90557 0.17953 0.11003 0.0
H2784 H 0.90104 0.64544 0.93663 0.0
H2785 H 0.97384 0.66497 0.91197 0.0
H2786 H 0.96147 0.67458 0.85735 0.0
H2787 H 0.93032 0.67914 0.81716 0.0
H2788 H 0.85702 0.66105 0.84 0.0
H2789 H 0.86939 0.64859 0.89443 0.0
C2790 C 0.91417 0.65176 0.91927 0.0
C2791 C 0.93832 0.65464 0.92865 0.0
C2792 C 0.90693 0.65735 0.88748 0.0
C2793 C 0.95512 0.66266 0.90569 0.0
C2794 C 0.9481 0.66815 0.8743 0.0
C2795 C 0.91696 0.67238 0.83391 0.0
C2796 C 0.89274 0.67126 0.8246 0.0
C2797 C 0.92409 0.66578 0.86506 0.0
C2798 C 0.87581 0.66206 0.84652 0.0
C2799 C 0.88286 0.65512 0.87772 0.0
H2800 H 0.11736 0.18933 0.66013 0.0
H2801 H 0.10831 0.11993 0.70438 0.0
H2802 H 0.10111 0.10206 0.65104 0.0
H2803 H 0.09192 0.10758 0.59271 0.0
H2804 H 0.09876 0.17801 0.55067 0.0
H2805 H 0.11255 0.19404 0.6022 0.0
C2806 C 0.11409 0.17021 0.65816 0.0
C2807 C 0.11295 0.15604 0.68621 0.0
C2808 C 0.10947 0.1603 0.62774 0.0
C2809 C 0.10916 0.13125 0.68315 0.0
C2810 C 0.10492 0.12107 0.65267 0.0
C2811 C 0.09711 0.12626 0.59474 0.0
C2812 C 0.09433 0.14165 0.56804 0.0
C2813 C 0.10427 0.13558 0.62489 0.0
C2814 C 0.10073 0.16589 0.57096 0.0
C2815 C 0.1085 0.17508 0.60043 0.0
H2816 H 0.59877 0.32923 0.44304 0.0
H2817 H 0.5419 0.38012 0.42602 0.0
H2818 H 0.54966 0.37867 0.36811 0.0
H2819 H 0.5696 0.35958 0.32177 0.0
H2820 H 0.62717 0.30944 0.33894 0.0
H2821 H 0.62239 0.31436 0.39698 0.0
C2822 C 0.58831 0.34024 0.42668 0.0
C2823 C 0.56961 0.35449 0.43887 0.0
C2824 C 0.59291 0.33943 0.39328 0.0
C2825 C 0.5564 0.36891 0.41737 0.0
C2826 C 0.56075 0.36804 0.38415 0.0
C2827 C 0.58143 0.35009 0.33817 0.0
C2828 C 0.59844 0.3339 0.32583 0.0
C2829 C 0.57854 0.35289 0.37174 0.0
C2830 C 0.61377 0.32193 0.34757 0.0
C2831 C 0.61098 0.32461 0.38091 0.0
H2832 H 0.44897 0.85324 0.09059 0.0
H2833 H 0.37764 0.86745 0.05497 0.0
H2834 H 0.36109 0.85907 0.10865 0.0
H2835 H 0.36681 0.84524 0.16506 0.0
H2836 H 0.43846 0.83005 0.19896 0.0
H2837 H 0.45487 0.84142 0.14665 0.0
C2838 C 0.42979 0.85465 0.09446 0.0
C2839 C 0.41458 0.8608 0.0686 0.0
C2840 C 0.42042 0.84958 0.12517 0.0
C2841 C 0.38978 0.86266 0.07433 0.0
C2842 C 0.3803 0.85784 0.10505 0.0
C2843 C 0.38603 0.84475 0.16111 0.0
C2844 C 0.40134 0.83671 0.18595 0.0
C2845 C 0.39543 0.85096 0.13059 0.0
C2846 C 0.42621 0.83602 0.1803 0.0
C2847 C 0.43565 0.8425 0.15034 0.0
H2848 H 0.92296 0.32514 0.5587 0.0
H2849 H 0.90603 0.39952 0.5754 0.0
H2850 H 0.8933 0.38993 0.63067 0.0
H2851 H 0.89043 0.36058 0.67583 0.0
H2852 H 0.90846 0.28651 0.65727 0.0
H2853 H 0.9174 0.29593 0.60142 0.0
C2854 C 0.91628 0.33929 0.57427 0.0
C2855 C 0.91569 0.36304 0.56301 0.0
C2856 C 0.90944 0.33374 0.60595 0.0
C2857 C 0.90665 0.38105 0.58342 0.0
C2858 C 0.89954 0.3756 0.61513 0.0
C2859 C 0.89611 0.34651 0.65947 0.0
C2860 C 0.8991 0.32295 0.67107 0.0
C2861 C 0.9014 0.35204 0.62694 0.0
C2862 C 0.90633 0.30489 0.64937 0.0
C2863 C 0.9114 0.31021 0.61725 0.0
H2864 H 0.39365 0.13846 0.32585 0.0
H2865 H 0.40109 0.21353 0.34973 0.0
H2866 H 0.41038 0.2034 0.40519 0.0
H2867 H 0.41999 0.17358 0.44607 0.0
H2868 H 0.41192 0.09843 0.4246 0.0
H2869 H 0.39891 0.10823 0.36953 0.0
C2870 C 0.39699 0.15257 0.3433 0.0
C2871 C 0.39715 0.1767 0.33322 0.0
C2872 C 0.40229 0.14666 0.37571 0.0
C2873 C 0.40128 0.19476 0.35638 0.0
C2874 C 0.40657 0.18903 0.3883 0.0
C2875 C 0.41505 0.15934 0.42948 0.0
C2876 C 0.4171 0.13536 0.43926 0.0
C2877 C 0.4077 0.16509 0.39804 0.0
C2878 C 0.41041 0.11709 0.41765 0.0
C2879 C 0.40315 0.12268 0.38607 0.0
H2880 H 0.58973 0.61553 0.08458 0.0
H2881 H 0.57422 0.68752 0.05248 0.0
H2882 H 0.58628 0.7033 0.10484 0.0
H2883 H 0.59916 0.69682 0.16037 0.0
H2884 H 0.61381 0.62514 0.19421 0.0
H2885 H 0.60433 0.60918 0.14054 0.0
C2886 C 0.58928 0.63469 0.08894 0.0
C2887 C 0.58098 0.65028 0.06455 0.0
C2888 C 0.59594 0.64373 0.11949 0.0
C2889 C 0.58037 0.67506 0.07076 0.0
C2890 C 0.58727 0.68414 0.10075 0.0
C2891 C 0.60041 0.67768 0.15613 0.0
C2892 C 0.60705 0.66221 0.18149 0.0
C2893 C 0.59472 0.66864 0.12542 0.0
C2894 C 0.60866 0.63749 0.17525 0.0
C2895 C 0.60322 0.62834 0.14453 0.0
H2896 H 0.09632 0.80575 0.84484 0.0
H2897 H 0.11552 0.87555 0.80803 0.0
H2898 H 0.10764 0.89317 0.86136 0.0
H2899 H 0.09224 0.88886 0.91754 0.0
H2900 H 0.07123 0.81875 0.9515 0.0
H2901 H 0.08292 0.80115 0.90007 0.0
C2902 C 0.09888 0.82485 0.84829 0.0
C2903 C 0.10623 0.83935 0.82227 0.0
C2904 C 0.09391 0.83481 0.87857 0.0
C2905 C 0.10976 0.86398 0.82757 0.0
C2906 C 0.1052 0.87406 0.85804 0.0
C2907 C 0.0906 0.86971 0.91374 0.0
C2908 C 0.08083 0.85513 0.93825 0.0
C2909 C 0.09685 0.85968 0.88361 0.0
C2910 C 0.07856 0.83037 0.93296 0.0
C2911 C 0.08523 0.82027 0.90356 0.0
loop_
_geom_bond_atom_site_label_1
_geom_bond_atom_site_label_2
_geom_bond_distance
_geom_bond_site_symmetry_2
_ccdc_geom_bond_type
Co0 O2 2.143 . S
Co0 O8 2.074 . S
Co0 O11 2.093 . S
Co0 O24 2.097 . S
Co0 N41 2.151 . S
Co0 N49 2.214 . S
Co1 O2 2.160 . S
Co1 O7 2.058 . S
Co1 O17 2.057 . S
Co1 O32 2.037 . S
Co1 N36 2.145 . S
Co1 N57 2.257 . S
O2 Co0 2.143 . S
O2 Co1 2.160 . S
C3 O4 1.278 . S
C3 O11 1.224 . S
O4 C3 1.278 . S
C5 O6 1.245 . S
C5 O17 1.232 . S
O6 C5 1.245 . S
O7 Co1 2.058 . S
O7 C33 1.269 . S
O8 Co0 2.074 . S
O8 C33 1.257 . S
H9 C34 0.930 . S
H10 C40 0.930 . S
O11 Co0 2.093 . S
O11 C3 1.224 . S
H12 C44 0.929 . S
H13 C46 0.930 . S
H14 C47 0.930 . S
H15 C45 0.929 . S
H16 C48 0.928 . S
O17 Co1 2.057 . S
O17 C5 1.232 . S
H18 C37 0.929 . S
H19 C38 0.929 . S
H20 C50 0.931 . S
H21 C42 0.929 . S
H22 C51 0.930 1_655 S
H23 C43 0.931 . S
O24 Co0 2.097 . S
O24 C52 1.214 . S
H25 C53 0.929 . S
H26 C54 0.929 . S
H27 C55 0.930 . S
H28 C56 0.929 . S
H29 C58 0.930 . S
H30 C35 0.930 . S
H31 C39 0.930 . S
O32 Co1 2.037 . S
O32 C52 1.234 . S
C33 O7 1.269 . S
C33 O8 1.257 . S
C34 H9 0.930 . S
C34 C37 1.388 . S
C34 C39 1.418 . S
C35 H30 0.930 . S
C35 C38 1.404 . S
C35 C39 1.353 . S
N36 Co1 2.145 . S
N36 C37 1.397 . S
N36 C38 1.334 . S
C37 H18 0.929 . S
C37 C34 1.388 . S
C37 N36 1.397 . S
C38 H19 0.929 . S
C38 C35 1.404 . S
C38 N36 1.334 . S
C39 H31 0.930 . S
C39 C34 1.418 . S
C39 C35 1.353 . S
C40 H10 0.930 . S
C40 N41 1.330 . S
C40 C42 1.446 . S
N41 Co0 2.151 . S
N41 C40 1.330 . S
N41 C45 1.418 . S
C42 H21 0.929 . S
C42 C40 1.446 . S
C42 C43 1.332 . S
C43 H23 0.931 . S
C43 C42 1.332 . S
C43 C44 1.267 . S
C44 H12 0.929 . S
C44 C43 1.267 . S
C44 C45 1.251 . S
C45 H15 0.929 . S
C45 N41 1.418 . S
C45 C44 1.251 . S
C46 H13 0.930 . S
C46 C48 1.406 . S
C46 C51 1.261 . S
C47 H14 0.930 . S
C47 N49 1.325 . S
C47 C50 1.357 . S
C48 H16 0.928 . S
C48 C46 1.406 . S
C48 N49 1.261 . S
N49 Co0 2.214 . S
N49 C47 1.325 . S
N49 C48 1.261 . S
C50 H20 0.931 . S
C50 C47 1.357 . S
C50 C51 1.312 . S
C51 H22 0.930 1_455 S
C51 C46 1.261 . S
C51 C50 1.312 . S
C52 O24 1.214 . S
C52 O32 1.234 . S
C53 H25 0.929 . S
C53 C56 1.391 . S
C53 C58 1.391 . S
C54 H26 0.929 . S
C54 C55 1.390 . S
C54 N57 1.391 . S
C55 H27 0.930 . S
C55 C54 1.390 . S
C55 C56 1.392 . S
C56 H28 0.929 . S
C56 C53 1.391 . S
C56 C55 1.392 . S
N57 Co1 2.257 . S
N57 C54 1.391 . S
N57 C58 1.388 . S
C58 H29 0.930 . S
C58 C53 1.391 . S
C58 N57 1.388 . S
Co59 O61 2.143 . S
Co59 O67 2.074 . S
Co59 O70 2.093 . S
Co59 O83 2.097 . S
Co59 N100 2.151 . S
Co59 N108 2.214 . S
Co60 O61 2.160 . S
Co60 O66 2.058 . S
Co60 O76 2.057 . S
Co60 O91 2.037 . S
Co60 N95 2.145 . S
Co60 N116 2.257 . S
O61 Co59 2.143 . S
O61 Co60 2.160 . S
C62 O63 1.278 . S
C62 O70 1.224 . S
O63 C62 1.278 . S
C64 O65 1.245 . S
C64 O76 1.232 . S
O65 C64 1.245 . S
O66 Co60 2.058 . S
O66 C92 1.269 . S
O67 Co59 2.074 . S
O67 C92 1.257 . S
H68 C93 0.930 . S
H69 C99 0.930 . S
O70 Co59 2.093 . S
O70 C62 1.224 . S
H71 C103 0.929 . S
H72 C105 0.930 . S
H73 C106 0.930 . S
H74 C104 0.929 . S
H75 C107 0.928 . S
O76 Co60 2.057 . S
O76 C64 1.232 . S
H77 C96 0.929 . S
H78 C97 0.929 . S
H79 C109 0.931 . S
H80 C101 0.929 . S
H81 C110 0.930 . S
H82 C102 0.931 . S
O83 Co59 2.097 . S
O83 C111 1.214 . S
H84 C112 0.929 . S
H85 C113 0.929 . S
H86 C114 0.930 . S
H87 C115 0.929 . S
H88 C117 0.930 . S
H89 C94 0.930 . S
H90 C98 0.930 . S
O91 Co60 2.037 . S
O91 C111 1.234 . S
C92 O66 1.269 . S
C92 O67 1.257 . S
C93 H68 0.930 . S
C93 C96 1.388 . S
C93 C98 1.418 . S
C94 H89 0.930 . S
C94 C97 1.404 . S
C94 C98 1.353 . S
N95 Co60 2.145 . S
N95 C96 1.397 . S
N95 C97 1.334 . S
C96 H77 0.929 . S
C96 C93 1.388 . S
C96 N95 1.397 . S
C97 H78 0.929 . S
C97 C94 1.404 . S
C97 N95 1.334 . S
C98 H90 0.930 . S
C98 C93 1.418 . S
C98 C94 1.353 . S
C99 H69 0.930 . S
C99 N100 1.330 . S
C99 C101 1.446 1_655 S
N100 Co59 2.151 . S
N100 C99 1.330 . S
N100 C104 1.418 1_655 S
C101 H80 0.929 . S
C101 C99 1.446 1_455 S
C101 C102 1.332 . S
C102 H82 0.931 . S
C102 C101 1.332 . S
C102 C103 1.267 . S
C103 H71 0.929 . S
C103 C102 1.267 . S
C103 C104 1.251 . S
C104 H74 0.929 . S
C104 N100 1.418 1_455 S
C104 C103 1.251 . S
C105 H72 0.930 . S
C105 C107 1.406 . S
C105 C110 1.261 . S
C106 H73 0.930 . S
C106 N108 1.325 . S
C106 C109 1.357 . S
C107 H75 0.928 . S
C107 C105 1.406 . S
C107 N108 1.261 . S
N108 Co59 2.214 . S
N108 C106 1.325 . S
N108 C107 1.261 . S
C109 H79 0.931 . S
C109 C106 1.357 . S
C109 C110 1.312 . S
C110 H81 0.930 . S
C110 C105 1.261 . S
C110 C109 1.312 . S
C111 O83 1.214 . S
C111 O91 1.234 . S
C112 H84 0.929 . S
C112 C115 1.391 . S
C112 C117 1.391 . S
C113 H85 0.929 . S
C113 C114 1.390 . S
C113 N116 1.391 . S
C114 H86 0.930 . S
C114 C113 1.390 . S
C114 C115 1.392 . S
C115 H87 0.929 . S
C115 C112 1.391 . S
C115 C114 1.392 . S
N116 Co60 2.257 . S
N116 C113 1.391 . S
N116 C117 1.388 . S
C117 H88 0.930 . S
C117 C112 1.391 . S
C117 N116 1.388 . S
Co118 O120 2.143 . S
Co118 O126 2.074 . S
Co118 O129 2.093 . S
Co118 O142 2.097 . S
Co118 N159 2.151 . S
Co118 N167 2.214 . S
Co119 O120 2.160 . S
Co119 O125 2.058 . S
Co119 O135 2.057 . S
Co119 O150 2.037 . S
Co119 N154 2.145 . S
Co119 N175 2.257 . S
O120 Co118 2.143 . S
O120 Co119 2.160 . S
C121 O122 1.278 . S
C121 O129 1.224 . S
O122 C121 1.278 . S
C123 O124 1.245 . S
C123 O135 1.232 . S
O124 C123 1.245 . S
O125 Co119 2.058 . S
O125 C151 1.269 . S
O126 Co118 2.074 . S
O126 C151 1.257 . S
H127 C152 0.930 . S
H128 C158 0.930 . S
O129 Co118 2.093 . S
O129 C121 1.224 . S
H130 C162 0.929 . S
H131 C164 0.930 . S
H132 C165 0.930 . S
H133 C163 0.929 . S
H134 C166 0.928 . S
O135 Co119 2.057 . S
O135 C123 1.232 . S
H136 C155 0.929 . S
H137 C156 0.929 . S
H138 C168 0.931 . S
H139 C160 0.929 . S
H140 C169 0.930 . S
H141 C161 0.931 . S
O142 Co118 2.097 . S
O142 C170 1.214 . S
H143 C171 0.929 . S
H144 C172 0.929 . S
H145 C173 0.930 . S
H146 C174 0.929 . S
H147 C176 0.930 . S
H148 C153 0.930 . S
H149 C157 0.930 . S
O150 Co119 2.037 . S
O150 C170 1.234 . S
C151 O125 1.269 . S
C151 O126 1.257 . S
C152 H127 0.930 . S
C152 C155 1.388 . S
C152 C157 1.418 . S
C153 H148 0.930 . S
C153 C156 1.404 . S
C153 C157 1.353 . S
N154 Co119 2.145 . S
N154 C155 1.397 . S
N154 C156 1.334 . S
C155 H136 0.929 . S
C155 C152 1.388 . S
C155 N154 1.397 . S
C156 H137 0.929 . S
C156 C153 1.404 . S
C156 N154 1.334 . S
C157 H149 0.930 . S
C157 C152 1.418 . S
C157 C153 1.353 . S
C158 H128 0.930 . S
C158 N159 1.330 . S
C158 C160 1.446 . S
N159 Co118 2.151 . S
N159 C158 1.330 . S
N159 C163 1.418 . S
C160 H139 0.929 . S
C160 C158 1.446 . S
C160 C161 1.332 . S
C161 H141 0.931 . S
C161 C160 1.332 . S
C161 C162 1.267 . S
C162 H130 0.929 . S
C162 C161 1.267 . S
C162 C163 1.251 . S
C163 H133 0.929 . S
C163 N159 1.418 . S
C163 C162 1.251 . S
C164 H131 0.930 . S
C164 C166 1.406 . S
C164 C169 1.261 . S
C165 H132 0.930 . S
C165 N167 1.325 . S
C165 C168 1.357 . S
C166 H134 0.928 . S
C166 C164 1.406 . S
C166 N167 1.261 . S
N167 Co118 2.214 . S
N167 C165 1.325 . S
N167 C166 1.261 . S
C168 H138 0.931 . S
C168 C165 1.357 . S
C168 C169 1.312 . S
C169 H140 0.930 . S
C169 C164 1.261 . S
C169 C168 1.312 . S
C170 O142 1.214 . S
C170 O150 1.234 . S
C171 H143 0.929 . S
C171 C174 1.391 . S
C171 C176 1.391 . S
C172 H144 0.929 . S
C172 C173 1.390 . S
C172 N175 1.391 . S
C173 H145 0.930 . S
C173 C172 1.390 . S
C173 C174 1.392 . S
C174 H146 0.929 . S
C174 C171 1.391 . S
C174 C173 1.392 . S
N175 Co119 2.257 . S
N175 C172 1.391 . S
N175 C176 1.388 . S
C176 H147 0.930 . S
C176 C171 1.391 . S
C176 N175 1.388 . S
Co177 O179 2.143 . S
Co177 O185 2.074 . S
Co177 O188 2.093 1_554 S
Co177 O201 2.097 . S
Co177 N218 2.151 1_554 S
Co177 N226 2.214 . S
Co178 O179 2.160 . S
Co178 O184 2.058 . S
Co178 O194 2.057 . S
Co178 O209 2.037 . S
Co178 N213 2.145 . S
Co178 N234 2.257 . S
O179 Co177 2.143 . S
O179 Co178 2.160 . S
C180 O181 1.278 . S
C180 O188 1.224 . S
O181 C180 1.278 . S
C182 O183 1.245 . S
C182 O194 1.232 . S
O183 C182 1.245 . S
O184 Co178 2.058 . S
O184 C210 1.269 . S
O185 Co177 2.074 . S
O185 C210 1.257 . S
H186 C211 0.930 . S
H187 C217 0.930 . S
O188 Co177 2.093 1_556 S
O188 C180 1.224 . S
H189 C221 0.929 . S
H190 C223 0.930 . S
H191 C224 0.930 . S
H192 C222 0.929 1_554 S
H193 C225 0.928 . S
O194 Co178 2.057 . S
O194 C182 1.232 . S
H195 C214 0.929 . S
H196 C215 0.929 . S
H197 C227 0.931 . S
H198 C219 0.929 . S
H199 C228 0.930 . S
H200 C220 0.931 . S
O201 Co177 2.097 . S
O201 C229 1.214 . S
H202 C230 0.904 1_556 S
H203 C231 0.929 . S
H204 C232 0.930 . S
H205 C233 0.929 . S
H206 C235 0.930 . S
H207 C212 0.930 . S
H208 C216 0.930 . S
O209 Co178 2.037 . S
O209 C229 1.234 . S
C210 O184 1.269 . S
C210 O185 1.257 . S
C211 H186 0.930 . S
C211 C214 1.388 . S
C211 C216 1.418 . S
C212 H207 0.930 . S
C212 C215 1.404 . S
C212 C216 1.353 . S
N213 Co178 2.145 . S
N213 C214 1.397 . S
N213 C215 1.334 . S
C214 H195 0.929 . S
C214 C211 1.388 . S
C214 N213 1.397 . S
C215 H196 0.929 . S
C215 C212 1.404 . S
C215 N213 1.334 . S
C216 H208 0.930 . S
C216 C211 1.418 . S
C216 C212 1.353 . S
C217 H187 0.930 . S
C217 N218 1.330 . S
C217 C219 1.446 . S
N218 Co177 2.151 1_556 S
N218 C217 1.330 . S
N218 C222 1.418 . S
C219 H198 0.929 . S
C219 C217 1.446 . S
C219 C220 1.332 . S
C220 H200 0.931 . S
C220 C219 1.332 . S
C220 C221 1.267 . S
C221 H189 0.929 . S
C221 C220 1.267 . S
C221 C222 1.251 . S
C222 H192 0.929 1_556 S
C222 N218 1.418 . S
C222 C221 1.251 . S
C223 H190 0.930 . S
C223 C225 1.406 . S
C223 C228 1.261 1_556 S
C224 H191 0.930 . S
C224 N226 1.325 . S
C224 C227 1.357 . S
C225 H193 0.928 . S
C225 C223 1.406 . S
C225 N226 1.261 1_556 S
N226 Co177 2.214 . S
N226 C224 1.325 . S
N226 C225 1.261 1_554 S
C227 H197 0.931 . S
C227 C224 1.357 . S
C227 C228 1.312 . S
C228 H199 0.930 . S
C228 C223 1.261 1_554 S
C228 C227 1.312 . S
C229 O201 1.214 . S
C229 O209 1.234 . S
C230 H202 0.904 1_554 S
C230 C233 1.391 . S
C230 C235 1.391 . S
C231 H203 0.929 . S
C231 C232 1.390 . S
C231 N234 1.391 . S
C232 H204 0.930 . S
C232 C231 1.390 . S
C232 C233 1.392 . S
C233 H205 0.929 . S
C233 C230 1.391 . S
C233 C232 1.392 . S
N234 Co178 2.257 . S
N234 C231 1.391 . S
N234 C235 1.388 . S
C235 H206 0.930 . S
C235 C230 1.391 . S
C235 N234 1.388 . S
Co236 O238 2.143 . S
Co236 O244 2.074 . S
Co236 O247 2.093 . S
Co236 O260 2.097 . S
Co236 N277 2.151 . S
Co236 N285 2.214 . S
Co237 O238 2.160 . S
Co237 O243 2.058 . S
Co237 O253 2.057 . S
Co237 O268 2.037 . S
Co237 N272 2.145 . S
Co237 N293 2.257 . S
O238 Co236 2.143 . S
O238 Co237 2.160 . S
C239 O240 1.278 . S
C239 O247 1.224 . S
O240 C239 1.278 . S
C241 O242 1.245 . S
C241 O253 1.232 . S
O242 C241 1.245 . S
O243 Co237 2.058 . S
O243 C269 1.269 . S
O244 Co236 2.074 . S
O244 C269 1.257 . S
H245 C270 0.930 . S
H246 C276 0.930 . S
O247 Co236 2.093 . S
O247 C239 1.224 . S
H248 C280 0.929 . S
H249 C282 0.930 . S
H250 C283 0.930 . S
H251 C281 0.929 . S
H252 C284 0.928 . S
O253 Co237 2.057 . S
O253 C241 1.232 . S
H254 C273 0.929 . S
H255 C274 0.929 . S
H256 C286 0.931 . S
H257 C278 0.929 . S
H258 C287 0.930 1_655 S
H259 C279 0.931 . S
O260 Co236 2.097 . S
O260 C288 1.214 . S
H261 C289 0.929 . S
H262 C290 0.929 . S
H263 C291 0.930 . S
H264 C292 0.929 . S
H265 C294 0.930 . S
H266 C271 0.930 . S
H267 C275 0.930 . S
O268 Co237 2.037 . S
O268 C288 1.234 . S
C269 O243 1.269 . S
C269 O244 1.257 . S
C270 H245 0.930 . S
C270 C273 1.388 . S
C270 C275 1.418 . S
C271 H266 0.930 . S
C271 C274 1.404 . S
C271 C275 1.353 . S
N272 Co237 2.145 . S
N272 C273 1.397 . S
N272 C274 1.334 . S
C273 H254 0.929 . S
C273 C270 1.388 . S
C273 N272 1.397 . S
C274 H255 0.929 . S
C274 C271 1.404 . S
C274 N272 1.334 . S
C275 H267 0.930 . S
C275 C270 1.418 . S
C275 C271 1.353 . S
C276 H246 0.930 . S
C276 N277 1.330 . S
C276 C278 1.446 . S
N277 Co236 2.151 . S
N277 C276 1.330 . S
N277 C281 1.418 . S
C278 H257 0.929 . S
C278 C276 1.446 . S
C278 C279 1.332 . S
C279 H259 0.931 . S
C279 C278 1.332 . S
C279 C280 1.267 . S
C280 H248 0.929 . S
C280 C279 1.267 . S
C280 C281 1.251 . S
C281 H251 0.929 . S
C281 N277 1.418 . S
C281 C280 1.251 . S
C282 H249 0.930 . S
C282 C284 1.406 . S
C282 C287 1.261 . S
C283 H250 0.930 . S
C283 N285 1.325 . S
C283 C286 1.357 . S
C284 H252 0.928 . S
C284 C282 1.406 . S
C284 N285 1.261 . S
N285 Co236 2.214 . S
N285 C283 1.325 . S
N285 C284 1.261 . S
C286 H256 0.931 . S
C286 C283 1.357 . S
C286 C287 1.312 . S
C287 H258 0.930 1_455 S
C287 C282 1.261 . S
C287 C286 1.312 . S
C288 O260 1.214 . S
C288 O268 1.234 . S
C289 H261 0.929 . S
C289 C292 1.391 . S
C289 C294 1.391 . S
C290 H262 0.929 . S
C290 C291 1.390 . S
C290 N293 1.391 . S
C291 H263 0.930 . S
C291 C290 1.390 . S
C291 C292 1.392 . S
C292 H264 0.929 . S
C292 C289 1.391 . S
C292 C291 1.392 . S
N293 Co237 2.257 . S
N293 C290 1.391 . S
N293 C294 1.388 . S
C294 H265 0.930 . S
C294 C289 1.391 . S
C294 N293 1.388 . S
Co295 O297 2.143 . S
Co295 O303 2.074 . S
Co295 O306 2.093 . S
Co295 O319 2.097 . S
Co295 N336 2.151 . S
Co295 N344 2.214 . S
Co296 O297 2.160 . S
Co296 O302 2.058 . S
Co296 O312 2.057 . S
Co296 O327 2.037 . S
Co296 N331 2.145 . S
Co296 N352 2.257 . S
O297 Co295 2.143 . S
O297 Co296 2.160 . S
C298 O299 1.278 . S
C298 O306 1.224 . S
O299 C298 1.278 . S
C300 O301 1.245 . S
C300 O312 1.232 . S
O301 C300 1.245 . S
O302 Co296 2.058 . S
O302 C328 1.269 . S
O303 Co295 2.074 . S
O303 C328 1.257 . S
H304 C329 0.930 . S
H305 C335 0.930 . S
O306 Co295 2.093 . S
O306 C298 1.224 . S
H307 C339 0.929 . S
H308 C341 0.930 . S
H309 C342 0.930 . S
H310 C340 0.929 . S
H311 C343 0.928 . S
O312 Co296 2.057 . S
O312 C300 1.232 . S
H313 C332 0.929 . S
H314 C333 0.929 . S
H315 C345 0.931 . S
H316 C337 0.929 . S
H317 C346 0.930 . S
H318 C338 0.931 . S
O319 Co295 2.097 . S
O319 C347 1.214 . S
H320 C348 0.929 . S
H321 C349 0.929 . S
H322 C350 0.930 . S
H323 C351 0.929 . S
H324 C353 0.930 . S
H325 C330 0.930 . S
H326 C334 0.930 . S
O327 Co296 2.037 . S
O327 C347 1.234 . S
C328 O302 1.269 . S
C328 O303 1.257 . S
C329 H304 0.930 . S
C329 C332 1.388 . S
C329 C334 1.418 . S
C330 H325 0.930 . S
C330 C333 1.404 . S
C330 C334 1.353 . S
N331 Co296 2.145 . S
N331 C332 1.397 . S
N331 C333 1.334 . S
C332 H313 0.929 . S
C332 C329 1.388 . S
C332 N331 1.397 . S
C333 H314 0.929 . S
C333 C330 1.404 . S
C333 N331 1.334 . S
C334 H326 0.930 . S
C334 C329 1.418 . S
C334 C330 1.353 . S
C335 H305 0.930 . S
C335 N336 1.330 . S
C335 C337 1.446 . S
N336 Co295 2.151 . S
N336 C335 1.330 . S
N336 C340 1.418 . S
C337 H316 0.929 . S
C337 C335 1.446 . S
C337 C338 1.332 . S
C338 H318 0.931 . S
C338 C337 1.332 . S
C338 C339 1.267 . S
C339 H307 0.929 . S
C339 C338 1.267 . S
C339 C340 1.251 . S
C340 H310 0.929 . S
C340 N336 1.418 . S
C340 C339 1.251 . S
C341 H308 0.930 . S
C341 C343 1.406 . S
C341 C346 1.261 . S
C342 H309 0.930 . S
C342 N344 1.325 . S
C342 C345 1.357 . S
C343 H311 0.928 . S
C343 C341 1.406 . S
C343 N344 1.261 . S
N344 Co295 2.214 . S
N344 C342 1.325 . S
N344 C343 1.261 . S
C345 H315 0.931 . S
C345 C342 1.357 . S
C345 C346 1.312 . S
C346 H317 0.930 . S
C346 C341 1.261 . S
C346 C345 1.312 . S
C347 O319 1.214 . S
C347 O327 1.234 . S
C348 H320 0.929 . S
C348 C351 1.391 . S
C348 C353 1.391 . S
C349 H321 0.929 . S
C349 C350 1.390 . S
C349 N352 1.391 . S
C350 H322 0.930 . S
C350 C349 1.390 . S
C350 C351 1.392 . S
C351 H323 0.929 . S
C351 C348 1.391 . S
C351 C350 1.392 . S
N352 Co296 2.257 . S
N352 C349 1.391 . S
N352 C353 1.388 . S
C353 H324 0.930 . S
C353 C348 1.391 . S
C353 N352 1.388 . S
Co354 O356 2.143 . S
Co354 O362 2.074 . S
Co354 O365 2.093 . S
Co354 O378 2.097 . S
Co354 N395 2.151 . S
Co354 N403 2.214 . S
Co355 O356 2.160 . S
Co355 O361 2.058 . S
Co355 O371 2.057 . S
Co355 O386 2.037 . S
Co355 N390 2.145 . S
Co355 N411 2.257 . S
O356 Co354 2.143 . S
O356 Co355 2.160 . S
C357 O358 1.278 . S
C357 O365 1.224 . S
O358 C357 1.278 . S
C359 O360 1.245 . S
C359 O371 1.232 . S
O360 C359 1.245 . S
O361 Co355 2.058 . S
O361 C387 1.269 . S
O362 Co354 2.074 . S
O362 C387 1.257 . S
H363 C388 0.930 . S
H364 C394 0.930 . S
O365 Co354 2.093 . S
O365 C357 1.224 . S
H366 C398 0.929 . S
H367 C400 0.930 . S
H368 C401 0.930 . S
H369 C399 0.929 . S
H370 C402 0.928 . S
O371 Co355 2.057 . S
O371 C359 1.232 . S
H372 C391 0.929 . S
H373 C392 0.929 . S
H374 C404 0.931 . S
H375 C396 0.929 . S
H376 C405 0.930 . S
H377 C397 0.931 . S
O378 Co354 2.097 . S
O378 C406 1.214 . S
H379 C407 0.929 . S
H380 C408 0.929 . S
H381 C409 0.930 . S
H382 C410 0.929 . S
H383 C412 0.930 . S
H384 C389 0.930 . S
H385 C393 0.930 . S
O386 Co355 2.037 . S
O386 C406 1.234 . S
C387 O361 1.269 . S
C387 O362 1.257 . S
C388 H363 0.930 . S
C388 C391 1.388 . S
C388 C393 1.418 . S
C389 H384 0.930 . S
C389 C392 1.404 . S
C389 C393 1.353 . S
N390 Co355 2.145 . S
N390 C391 1.397 . S
N390 C392 1.334 . S
C391 H372 0.929 . S
C391 C388 1.388 . S
C391 N390 1.397 . S
C392 H373 0.929 . S
C392 C389 1.404 . S
C392 N390 1.334 . S
C393 H385 0.930 . S
C393 C388 1.418 . S
C393 C389 1.353 . S
C394 H364 0.930 . S
C394 N395 1.330 . S
C394 C396 1.446 . S
N395 Co354 2.151 . S
N395 C394 1.330 . S
N395 C399 1.418 . S
C396 H375 0.929 . S
C396 C394 1.446 . S
C396 C397 1.332 . S
C397 H377 0.931 . S
C397 C396 1.332 . S
C397 C398 1.267 . S
C398 H366 0.929 . S
C398 C397 1.267 . S
C398 C399 1.251 . S
C399 H369 0.929 . S
C399 N395 1.418 . S
C399 C398 1.251 . S
C400 H367 0.930 . S
C400 C402 1.406 . S
C400 C405 1.261 . S
C401 H368 0.930 . S
C401 N403 1.325 . S
C401 C404 1.357 . S
C402 H370 0.928 . S
C402 C400 1.406 . S
C402 N403 1.261 . S
N403 Co354 2.214 . S
N403 C401 1.325 . S
N403 C402 1.261 . S
C404 H374 0.931 . S
C404 C401 1.357 . S
C404 C405 1.312 . S
C405 H376 0.930 . S
C405 C400 1.261 . S
C405 C404 1.312 . S
C406 O378 1.214 . S
C406 O386 1.234 . S
C407 H379 0.929 . S
C407 C410 1.391 . S
C407 C412 1.391 . S
C408 H380 0.929 . S
C408 C409 1.390 . S
C408 N411 1.391 . S
C409 H381 0.930 . S
C409 C408 1.390 . S
C409 C410 1.392 . S
C410 H382 0.929 . S
C410 C407 1.391 . S
C410 C409 1.392 . S
N411 Co355 2.257 . S
N411 C408 1.391 . S
N411 C412 1.388 . S
C412 H383 0.930 . S
C412 C407 1.391 . S
C412 N411 1.388 . S
Co413 O415 2.143 . S
Co413 O421 2.074 . S
Co413 O424 2.093 1_556 S
Co413 O437 2.097 . S
Co413 N454 2.151 1_556 S
Co413 N462 2.214 . S
Co414 O415 2.160 . S
Co414 O420 2.058 . S
Co414 O430 2.057 . S
Co414 O445 2.037 . S
Co414 N449 2.145 . S
Co414 N470 2.257 . S
O415 Co413 2.143 . S
O415 Co414 2.160 . S
C416 O417 1.278 . S
C416 O424 1.224 . S
O417 C416 1.278 . S
C418 O419 1.245 . S
C418 O430 1.232 . S
O419 C418 1.245 . S
O420 Co414 2.058 . S
O420 C446 1.269 . S
O421 Co413 2.074 . S
O421 C446 1.257 . S
H422 C447 0.930 . S
H423 C453 0.930 . S
O424 Co413 2.093 1_554 S
O424 C416 1.224 . S
H425 C457 0.929 . S
H426 C459 0.930 . S
H427 C460 0.930 . S
H428 C458 0.929 1_556 S
H429 C461 0.928 . S
O430 Co414 2.057 . S
O430 C418 1.232 . S
H431 C450 0.929 . S
H432 C451 0.929 . S
H433 C463 0.931 . S
H434 C455 0.929 . S
H435 C464 0.930 . S
H436 C456 0.931 . S
O437 Co413 2.097 . S
O437 C465 1.214 . S
H438 C466 0.904 1_554 S
H439 C467 0.929 . S
H440 C468 0.930 . S
H441 C469 0.929 . S
H442 C471 0.930 . S
H443 C448 0.930 . S
H444 C452 0.930 . S
O445 Co414 2.037 . S
O445 C465 1.234 . S
C446 O420 1.269 . S
C446 O421 1.257 . S
C447 H422 0.930 . S
C447 C450 1.388 . S
C447 C452 1.418 . S
C448 H443 0.930 . S
C448 C451 1.404 . S
C448 C452 1.353 . S
N449 Co414 2.145 . S
N449 C450 1.397 . S
N449 C451 1.334 . S
C450 H431 0.929 . S
C450 C447 1.388 . S
C450 N449 1.397 . S
C451 H432 0.929 . S
C451 C448 1.404 . S
C451 N449 1.334 . S
C452 H444 0.930 . S
C452 C447 1.418 . S
C452 C448 1.353 . S
C453 H423 0.930 . S
C453 N454 1.330 . S
C453 C455 1.446 1_655 S
N454 Co413 2.151 1_554 S
N454 C453 1.330 . S
N454 C458 1.418 1_655 S
C455 H434 0.929 . S
C455 C453 1.446 1_455 S
C455 C456 1.332 . S
C456 H436 0.931 . S
C456 C455 1.332 . S
C456 C457 1.267 . S
C457 H425 0.929 . S
C457 C456 1.267 . S
C457 C458 1.251 . S
C458 H428 0.929 1_554 S
C458 N454 1.418 1_455 S
C458 C457 1.251 . S
C459 H426 0.930 . S
C459 C461 1.406 . S
C459 C464 1.261 1_554 S
C460 H427 0.930 . S
C460 N462 1.325 . S
C460 C463 1.357 . S
C461 H429 0.928 . S
C461 C459 1.406 . S
C461 N462 1.261 1_554 S
N462 Co413 2.214 . S
N462 C460 1.325 . S
N462 C461 1.261 1_556 S
C463 H433 0.931 . S
C463 C460 1.357 . S
C463 C464 1.312 . S
C464 H435 0.930 . S
C464 C459 1.261 1_556 S
C464 C463 1.312 . S
C465 O437 1.214 . S
C465 O445 1.234 . S
C466 H438 0.904 1_556 S
C466 C469 1.391 . S
C466 C471 1.391 . S
C467 H439 0.929 . S
C467 C468 1.390 . S
C467 N470 1.391 . S
C468 H440 0.930 . S
C468 C467 1.390 . S
C468 C469 1.392 . S
C469 H441 0.929 . S
C469 C466 1.391 . S
C469 C468 1.392 . S
N470 Co414 2.257 . S
N470 C467 1.391 . S
N470 C471 1.388 . S
C471 H442 0.930 . S
C471 C466 1.391 . S
C471 N470 1.388 . S
Co472 O474 2.143 . S
Co472 O480 2.074 . S
Co472 O483 2.093 . S
Co472 O496 2.097 . S
Co472 N513 2.151 . S
Co472 N521 2.214 . S
Co473 O474 2.160 . S
Co473 O479 2.058 . S
Co473 O489 2.057 . S
Co473 O504 2.037 . S
Co473 N508 2.145 . S
Co473 N529 2.257 . S
O474 Co472 2.143 . S
O474 Co473 2.160 . S
C475 O476 1.278 . S
C475 O483 1.224 . S
O476 C475 1.278 . S
C477 O478 1.245 . S
C477 O489 1.232 . S
O478 C477 1.245 . S
O479 Co473 2.058 . S
O479 C505 1.269 . S
O480 Co472 2.074 . S
O480 C505 1.257 . S
H481 C506 0.930 . S
H482 C512 0.930 . S
O483 Co472 2.093 . S
O483 C475 1.224 . S
H484 C516 0.929 . S
H485 C518 0.930 . S
H486 C519 0.930 . S
H487 C517 0.929 . S
H488 C520 0.928 . S
O489 Co473 2.057 . S
O489 C477 1.232 . S
H490 C509 0.929 . S
H491 C510 0.929 . S
H492 C522 0.931 . S
H493 C514 0.929 . S
H494 C523 0.930 1_455 S
H495 C515 0.931 . S
O496 Co472 2.097 . S
O496 C524 1.214 . S
H497 C525 0.929 . S
H498 C526 0.929 . S
H499 C527 0.930 . S
H500 C528 0.929 . S
H501 C530 0.930 . S
H502 C507 0.930 . S
H503 C511 0.930 . S
O504 Co473 2.037 . S
O504 C524 1.234 . S
C505 O479 1.269 . S
C505 O480 1.257 . S
C506 H481 0.930 . S
C506 C509 1.388 . S
C506 C511 1.418 . S
C507 H502 0.930 . S
C507 C510 1.404 . S
C507 C511 1.353 . S
N508 Co473 2.145 . S
N508 C509 1.397 . S
N508 C510 1.334 . S
C509 H490 0.929 . S
C509 C506 1.388 . S
C509 N508 1.397 . S
C510 H491 0.929 . S
C510 C507 1.404 . S
C510 N508 1.334 . S
C511 H503 0.930 . S
C511 C506 1.418 . S
C511 C507 1.353 . S
C512 H482 0.930 . S
C512 N513 1.330 . S
C512 C514 1.446 . S
N513 Co472 2.151 . S
N513 C512 1.330 . S
N513 C517 1.418 . S
C514 H493 0.929 . S
C514 C512 1.446 . S
C514 C515 1.332 . S
C515 H495 0.931 . S
C515 C514 1.332 . S
C515 C516 1.267 . S
C516 H484 0.929 . S
C516 C515 1.267 . S
C516 C517 1.251 . S
C517 H487 0.929 . S
C517 N513 1.418 . S
C517 C516 1.251 . S
C518 H485 0.930 . S
C518 C520 1.406 . S
C518 C523 1.261 . S
C519 H486 0.930 . S
C519 N521 1.325 . S
C519 C522 1.357 . S
C520 H488 0.928 . S
C520 C518 1.406 . S
C520 N521 1.261 . S
N521 Co472 2.214 . S
N521 C519 1.325 . S
N521 C520 1.261 . S
C522 H492 0.931 . S
C522 C519 1.357 . S
C522 C523 1.312 . S
C523 H494 0.930 1_655 S
C523 C518 1.261 . S
C523 C522 1.312 . S
C524 O496 1.214 . S
C524 O504 1.234 . S
C525 H497 0.929 . S
C525 C528 1.391 . S
C525 C530 1.391 . S
C526 H498 0.929 . S
C526 C527 1.390 . S
C526 N529 1.391 . S
C527 H499 0.930 . S
C527 C526 1.390 . S
C527 C528 1.392 . S
C528 H500 0.929 . S
C528 C525 1.391 . S
C528 C527 1.392 . S
N529 Co473 2.257 . S
N529 C526 1.391 . S
N529 C530 1.388 . S
C530 H501 0.930 . S
C530 C525 1.391 . S
C530 N529 1.388 . S
Co531 O533 2.143 . S
Co531 O539 2.074 . S
Co531 O542 2.093 . S
Co531 O555 2.097 . S
Co531 N572 2.151 . S
Co531 N580 2.214 . S
Co532 O533 2.160 . S
Co532 O538 2.058 . S
Co532 O548 2.057 . S
Co532 O563 2.037 . S
Co532 N567 2.145 . S
Co532 N588 2.257 . S
O533 Co531 2.143 . S
O533 Co532 2.160 . S
C534 O535 1.278 . S
C534 O542 1.224 . S
O535 C534 1.278 . S
C536 O537 1.245 . S
C536 O548 1.232 . S
O537 C536 1.245 . S
O538 Co532 2.058 . S
O538 C564 1.269 . S
O539 Co531 2.074 . S
O539 C564 1.257 . S
H540 C565 0.930 . S
H541 C571 0.930 . S
O542 Co531 2.093 . S
O542 C534 1.224 . S
H543 C575 0.929 . S
H544 C577 0.930 . S
H545 C578 0.930 . S
H546 C576 0.929 . S
H547 C579 0.928 . S
O548 Co532 2.057 . S
O548 C536 1.232 . S
H549 C568 0.929 . S
H550 C569 0.929 . S
H551 C581 0.931 . S
H552 C573 0.929 . S
H553 C582 0.930 . S
H554 C574 0.931 . S
O555 Co531 2.097 . S
O555 C583 1.214 . S
H556 C584 0.929 . S
H557 C585 0.929 . S
H558 C586 0.930 . S
H559 C587 0.929 . S
H560 C589 0.930 . S
H561 C566 0.930 . S
H562 C570 0.930 . S
O563 Co532 2.037 . S
O563 C583 1.234 . S
C564 O538 1.269 . S
C564 O539 1.257 . S
C565 H540 0.930 . S
C565 C568 1.388 . S
C565 C570 1.418 . S
C566 H561 0.930 . S
C566 C569 1.404 . S
C566 C570 1.353 . S
N567 Co532 2.145 . S
N567 C568 1.397 . S
N567 C569 1.334 . S
C568 H549 0.929 . S
C568 C565 1.388 . S
C568 N567 1.397 . S
C569 H550 0.929 . S
C569 C566 1.404 . S
C569 N567 1.334 . S
C570 H562 0.930 . S
C570 C565 1.418 . S
C570 C566 1.353 . S
C571 H541 0.930 . S
C571 N572 1.330 . S
C571 C573 1.446 1_455 S
N572 Co531 2.151 . S
N572 C571 1.330 . S
N572 C576 1.418 1_455 S
C573 H552 0.929 . S
C573 C571 1.446 1_655 S
C573 C574 1.332 . S
C574 H554 0.931 . S
C574 C573 1.332 . S
C574 C575 1.267 . S
C575 H543 0.929 . S
C575 C574 1.267 . S
C575 C576 1.251 . S
C576 H546 0.929 . S
C576 N572 1.418 1_655 S
C576 C575 1.251 . S
C577 H544 0.930 . S
C577 C579 1.406 . S
C577 C582 1.261 . S
C578 H545 0.930 . S
C578 N580 1.325 . S
C578 C581 1.357 . S
C579 H547 0.928 . S
C579 C577 1.406 . S
C579 N580 1.261 . S
N580 Co531 2.214 . S
N580 C578 1.325 . S
N580 C579 1.261 . S
C581 H551 0.931 . S
C581 C578 1.357 . S
C581 C582 1.312 . S
C582 H553 0.930 . S
C582 C577 1.261 . S
C582 C581 1.312 . S
C583 O555 1.214 . S
C583 O563 1.234 . S
C584 H556 0.929 . S
C584 C587 1.391 . S
C584 C589 1.391 . S
C585 H557 0.929 . S
C585 C586 1.390 . S
C585 N588 1.391 . S
C586 H558 0.930 . S
C586 C585 1.390 . S
C586 C587 1.392 . S
C587 H559 0.929 . S
C587 C584 1.391 . S
C587 C586 1.392 . S
N588 Co532 2.257 . S
N588 C585 1.391 . S
N588 C589 1.388 . S
C589 H560 0.930 . S
C589 C584 1.391 . S
C589 N588 1.388 . S
Co590 O592 2.143 . S
Co590 O598 2.074 . S
Co590 O601 2.093 . S
Co590 O614 2.097 . S
Co590 N631 2.151 . S
Co590 N639 2.214 . S
Co591 O592 2.160 . S
Co591 O597 2.058 . S
Co591 O607 2.057 . S
Co591 O622 2.037 . S
Co591 N626 2.145 . S
Co591 N647 2.257 . S
O592 Co590 2.143 . S
O592 Co591 2.160 . S
C593 O594 1.278 . S
C593 O601 1.224 . S
O594 C593 1.278 . S
C595 O596 1.245 . S
C595 O607 1.232 . S
O596 C595 1.245 . S
O597 Co591 2.058 . S
O597 C623 1.269 . S
O598 Co590 2.074 . S
O598 C623 1.257 . S
H599 C624 0.930 . S
H600 C630 0.930 . S
O601 Co590 2.093 . S
O601 C593 1.224 . S
H602 C634 0.929 . S
H603 C636 0.930 . S
H604 C637 0.930 . S
H605 C635 0.929 . S
H606 C638 0.928 . S
O607 Co591 2.057 . S
O607 C595 1.232 . S
H608 C627 0.929 . S
H609 C628 0.929 . S
H610 C640 0.931 . S
H611 C632 0.929 . S
H612 C641 0.930 . S
H613 C633 0.931 . S
O614 Co590 2.097 . S
O614 C642 1.214 . S
H615 C643 0.929 . S
H616 C644 0.929 . S
H617 C645 0.930 . S
H618 C646 0.929 . S
H619 C648 0.930 . S
H620 C625 0.930 . S
H621 C629 0.930 . S
O622 Co591 2.037 . S
O622 C642 1.234 . S
C623 O597 1.269 . S
C623 O598 1.257 . S
C624 H599 0.930 . S
C624 C627 1.388 . S
C624 C629 1.418 . S
C625 H620 0.930 . S
C625 C628 1.404 . S
C625 C629 1.353 . S
N626 Co591 2.145 . S
N626 C627 1.397 . S
N626 C628 1.334 . S
C627 H608 0.929 . S
C627 C624 1.388 . S
C627 N626 1.397 . S
C628 H609 0.929 . S
C628 C625 1.404 . S
C628 N626 1.334 . S
C629 H621 0.930 . S
C629 C624 1.418 . S
C629 C625 1.353 . S
C630 H600 0.930 . S
C630 N631 1.330 . S
C630 C632 1.446 . S
N631 Co590 2.151 . S
N631 C630 1.330 . S
N631 C635 1.418 . S
C632 H611 0.929 . S
C632 C630 1.446 . S
C632 C633 1.332 . S
C633 H613 0.931 . S
C633 C632 1.332 . S
C633 C634 1.267 . S
C634 H602 0.929 . S
C634 C633 1.267 . S
C634 C635 1.251 . S
C635 H605 0.929 . S
C635 N631 1.418 . S
C635 C634 1.251 . S
C636 H603 0.930 . S
C636 C638 1.406 . S
C636 C641 1.261 . S
C637 H604 0.930 . S
C637 N639 1.325 . S
C637 C640 1.357 . S
C638 H606 0.928 . S
C638 C636 1.406 . S
C638 N639 1.261 . S
N639 Co590 2.214 . S
N639 C637 1.325 . S
N639 C638 1.261 . S
C640 H610 0.931 . S
C640 C637 1.357 . S
C640 C641 1.312 . S
C641 H612 0.930 . S
C641 C636 1.261 . S
C641 C640 1.312 . S
C642 O614 1.214 . S
C642 O622 1.234 . S
C643 H615 0.929 . S
C643 C646 1.391 . S
C643 C648 1.391 . S
C644 H616 0.929 . S
C644 C645 1.390 . S
C644 N647 1.391 . S
C645 H617 0.930 . S
C645 C644 1.390 . S
C645 C646 1.392 . S
C646 H618 0.929 . S
C646 C643 1.391 . S
C646 C645 1.392 . S
N647 Co591 2.257 . S
N647 C644 1.391 . S
N647 C648 1.388 . S
C648 H619 0.930 . S
C648 C643 1.391 . S
C648 N647 1.388 . S
Co649 O651 2.143 . S
Co649 O657 2.074 . S
Co649 O660 2.093 1_556 S
Co649 O673 2.097 . S
Co649 N690 2.151 1_556 S
Co649 N698 2.214 . S
Co650 O651 2.160 . S
Co650 O656 2.058 . S
Co650 O666 2.057 . S
Co650 O681 2.037 . S
Co650 N685 2.145 . S
Co650 N706 2.257 . S
O651 Co649 2.143 . S
O651 Co650 2.160 . S
C652 O653 1.278 . S
C652 O660 1.224 . S
O653 C652 1.278 . S
C654 O655 1.245 . S
C654 O666 1.232 . S
O655 C654 1.245 . S
O656 Co650 2.058 . S
O656 C682 1.269 . S
O657 Co649 2.074 . S
O657 C682 1.257 . S
H658 C683 0.930 . S
H659 C689 0.930 . S
O660 Co649 2.093 1_554 S
O660 C652 1.224 . S
H661 C693 0.929 . S
H662 C695 0.930 . S
H663 C696 0.930 . S
H664 C694 0.929 1_556 S
H665 C697 0.928 . S
O666 Co650 2.057 . S
O666 C654 1.232 . S
H667 C686 0.929 . S
H668 C687 0.929 . S
H669 C699 0.931 . S
H670 C691 0.929 . S
H671 C700 0.930 . S
H672 C692 0.931 . S
O673 Co649 2.097 . S
O673 C701 1.214 . S
H674 C702 0.904 1_554 S
H675 C703 0.929 . S
H676 C704 0.930 . S
H677 C705 0.929 . S
H678 C707 0.930 . S
H679 C684 0.930 . S
H680 C688 0.930 . S
O681 Co650 2.037 . S
O681 C701 1.234 . S
C682 O656 1.269 . S
C682 O657 1.257 . S
C683 H658 0.930 . S
C683 C686 1.388 . S
C683 C688 1.418 . S
C684 H679 0.930 . S
C684 C687 1.404 . S
C684 C688 1.353 . S
N685 Co650 2.145 . S
N685 C686 1.397 . S
N685 C687 1.334 . S
C686 H667 0.929 . S
C686 C683 1.388 . S
C686 N685 1.397 . S
C687 H668 0.929 . S
C687 C684 1.404 . S
C687 N685 1.334 . S
C688 H680 0.930 . S
C688 C683 1.418 . S
C688 C684 1.353 . S
C689 H659 0.930 . S
C689 N690 1.330 . S
C689 C691 1.446 . S
N690 Co649 2.151 1_554 S
N690 C689 1.330 . S
N690 C694 1.418 . S
C691 H670 0.929 . S
C691 C689 1.446 . S
C691 C692 1.332 . S
C692 H672 0.931 . S
C692 C691 1.332 . S
C692 C693 1.267 . S
C693 H661 0.929 . S
C693 C692 1.267 . S
C693 C694 1.251 . S
C694 H664 0.929 1_554 S
C694 N690 1.418 . S
C694 C693 1.251 . S
C695 H662 0.930 . S
C695 C697 1.406 . S
C695 C700 1.261 1_554 S
C696 H663 0.930 . S
C696 N698 1.325 . S
C696 C699 1.357 . S
C697 H665 0.928 . S
C697 C695 1.406 . S
C697 N698 1.261 1_554 S
N698 Co649 2.214 . S
N698 C696 1.325 . S
N698 C697 1.261 1_556 S
C699 H669 0.931 . S
C699 C696 1.357 . S
C699 C700 1.312 . S
C700 H671 0.930 . S
C700 C695 1.261 1_556 S
C700 C699 1.312 . S
C701 O673 1.214 . S
C701 O681 1.234 . S
C702 H674 0.904 1_556 S
C702 C705 1.391 . S
C702 C707 1.391 . S
C703 H675 0.929 . S
C703 C704 1.390 . S
C703 N706 1.391 . S
C704 H676 0.930 . S
C704 C703 1.390 . S
C704 C705 1.392 . S
C705 H677 0.929 . S
C705 C702 1.391 . S
C705 C704 1.392 . S
N706 Co650 2.257 . S
N706 C703 1.391 . S
N706 C707 1.388 . S
C707 H678 0.930 . S
C707 C702 1.391 . S
C707 N706 1.388 . S
Co708 O710 2.143 . S
Co708 O716 2.074 . S
Co708 O719 2.093 . S
Co708 O732 2.097 . S
Co708 N749 2.151 . S
Co708 N757 2.214 . S
Co709 O710 2.160 . S
Co709 O715 2.058 . S
Co709 O725 2.057 . S
Co709 O740 2.037 . S
Co709 N744 2.145 . S
Co709 N765 2.257 . S
O710 Co708 2.143 . S
O710 Co709 2.160 . S
C711 O712 1.278 . S
C711 O719 1.224 . S
O712 C711 1.278 . S
C713 O714 1.245 . S
C713 O725 1.232 . S
O714 C713 1.245 . S
O715 Co709 2.058 . S
O715 C741 1.269 . S
O716 Co708 2.074 . S
O716 C741 1.257 . S
H717 C742 0.930 . S
H718 C748 0.930 . S
O719 Co708 2.093 . S
O719 C711 1.224 . S
H720 C752 0.929 . S
H721 C754 0.930 . S
H722 C755 0.930 . S
H723 C753 0.929 . S
H724 C756 0.928 . S
O725 Co709 2.057 . S
O725 C713 1.232 . S
H726 C745 0.929 . S
H727 C746 0.929 . S
H728 C758 0.931 . S
H729 C750 0.929 . S
H730 C759 0.930 1_455 S
H731 C751 0.931 . S
O732 Co708 2.097 . S
O732 C760 1.214 . S
H733 C761 0.929 . S
H734 C762 0.929 . S
H735 C763 0.930 . S
H736 C764 0.929 . S
H737 C766 0.930 . S
H738 C743 0.930 . S
H739 C747 0.930 . S
O740 Co709 2.037 . S
O740 C760 1.234 . S
C741 O715 1.269 . S
C741 O716 1.257 . S
C742 H717 0.930 . S
C742 C745 1.388 . S
C742 C747 1.418 . S
C743 H738 0.930 . S
C743 C746 1.404 . S
C743 C747 1.353 . S
N744 Co709 2.145 . S
N744 C745 1.397 . S
N744 C746 1.334 . S
C745 H726 0.929 . S
C745 C742 1.388 . S
C745 N744 1.397 . S
C746 H727 0.929 . S
C746 C743 1.404 . S
C746 N744 1.334 . S
C747 H739 0.930 . S
C747 C742 1.418 . S
C747 C743 1.353 . S
C748 H718 0.930 . S
C748 N749 1.330 . S
C748 C750 1.446 . S
N749 Co708 2.151 . S
N749 C748 1.330 . S
N749 C753 1.418 . S
C750 H729 0.929 . S
C750 C748 1.446 . S
C750 C751 1.332 . S
C751 H731 0.931 . S
C751 C750 1.332 . S
C751 C752 1.267 . S
C752 H720 0.929 . S
C752 C751 1.267 . S
C752 C753 1.251 . S
C753 H723 0.929 . S
C753 N749 1.418 . S
C753 C752 1.251 . S
C754 H721 0.930 . S
C754 C756 1.406 . S
C754 C759 1.261 . S
C755 H722 0.930 . S
C755 N757 1.325 . S
C755 C758 1.357 . S
C756 H724 0.928 . S
C756 C754 1.406 . S
C756 N757 1.261 . S
N757 Co708 2.214 . S
N757 C755 1.325 . S
N757 C756 1.261 . S
C758 H728 0.931 . S
C758 C755 1.357 . S
C758 C759 1.312 . S
C759 H730 0.930 1_655 S
C759 C754 1.261 . S
C759 C758 1.312 . S
C760 O732 1.214 . S
C760 O740 1.234 . S
C761 H733 0.929 . S
C761 C764 1.391 . S
C761 C766 1.391 . S
C762 H734 0.929 . S
C762 C763 1.390 . S
C762 N765 1.391 . S
C763 H735 0.930 . S
C763 C762 1.390 . S
C763 C764 1.392 . S
C764 H736 0.929 . S
C764 C761 1.391 . S
C764 C763 1.392 . S
N765 Co709 2.257 . S
N765 C762 1.391 . S
N765 C766 1.388 . S
C766 H737 0.930 . S
C766 C761 1.391 . S
C766 N765 1.388 . S
Co767 O769 2.143 . S
Co767 O775 2.074 . S
Co767 O778 2.093 . S
Co767 O791 2.097 . S
Co767 N808 2.151 . S
Co767 N816 2.214 . S
Co768 O769 2.160 . S
Co768 O774 2.058 . S
Co768 O784 2.057 . S
Co768 O799 2.037 . S
Co768 N803 2.145 . S
Co768 N824 2.257 . S
O769 Co767 2.143 . S
O769 Co768 2.160 . S
C770 O771 1.278 . S
C770 O778 1.224 . S
O771 C770 1.278 . S
C772 O773 1.245 . S
C772 O784 1.232 . S
O773 C772 1.245 . S
O774 Co768 2.058 . S
O774 C800 1.269 . S
O775 Co767 2.074 . S
O775 C800 1.257 . S
H776 C801 0.930 . S
H777 C807 0.930 . S
O778 Co767 2.093 . S
O778 C770 1.224 . S
H779 C811 0.929 . S
H780 C813 0.930 . S
H781 C814 0.930 . S
H782 C812 0.929 . S
H783 C815 0.928 . S
O784 Co768 2.057 . S
O784 C772 1.232 . S
H785 C804 0.929 . S
H786 C805 0.929 . S
H787 C817 0.931 . S
H788 C809 0.929 . S
H789 C818 0.930 . S
H790 C810 0.931 . S
O791 Co767 2.097 . S
O791 C819 1.214 . S
H792 C820 0.929 . S
H793 C821 0.929 . S
H794 C822 0.930 . S
H795 C823 0.929 . S
H796 C825 0.930 . S
H797 C802 0.930 . S
H798 C806 0.930 . S
O799 Co768 2.037 . S
O799 C819 1.234 . S
C800 O774 1.269 . S
C800 O775 1.257 . S
C801 H776 0.930 . S
C801 C804 1.388 . S
C801 C806 1.418 . S
C802 H797 0.930 . S
C802 C805 1.404 . S
C802 C806 1.353 . S
N803 Co768 2.145 . S
N803 C804 1.397 . S
N803 C805 1.334 . S
C804 H785 0.929 . S
C804 C801 1.388 . S
C804 N803 1.397 . S
C805 H786 0.929 . S
C805 C802 1.404 . S
C805 N803 1.334 . S
C806 H798 0.930 . S
C806 C801 1.418 . S
C806 C802 1.353 . S
C807 H777 0.930 . S
C807 N808 1.330 . S
C807 C809 1.446 . S
N808 Co767 2.151 . S
N808 C807 1.330 . S
N808 C812 1.418 . S
C809 H788 0.929 . S
C809 C807 1.446 . S
C809 C810 1.332 . S
C810 H790 0.931 . S
C810 C809 1.332 . S
C810 C811 1.267 . S
C811 H779 0.929 . S
C811 C810 1.267 . S
C811 C812 1.251 . S
C812 H782 0.929 . S
C812 N808 1.418 . S
C812 C811 1.251 . S
C813 H780 0.930 . S
C813 C815 1.406 . S
C813 C818 1.261 . S
C814 H781 0.930 . S
C814 N816 1.325 . S
C814 C817 1.357 . S
C815 H783 0.928 . S
C815 C813 1.406 . S
C815 N816 1.261 . S
N816 Co767 2.214 . S
N816 C814 1.325 . S
N816 C815 1.261 . S
C817 H787 0.931 . S
C817 C814 1.357 . S
C817 C818 1.312 . S
C818 H789 0.930 . S
C818 C813 1.261 . S
C818 C817 1.312 . S
C819 O791 1.214 . S
C819 O799 1.234 . S
C820 H792 0.929 . S
C820 C823 1.391 . S
C820 C825 1.391 . S
C821 H793 0.929 . S
C821 C822 1.390 . S
C821 N824 1.391 . S
C822 H794 0.930 . S
C822 C821 1.390 . S
C822 C823 1.392 . S
C823 H795 0.929 . S
C823 C820 1.391 . S
C823 C822 1.392 . S
N824 Co768 2.257 . S
N824 C821 1.391 . S
N824 C825 1.388 . S
C825 H796 0.930 . S
C825 C820 1.391 . S
C825 N824 1.388 . S
Co826 O828 2.143 . S
Co826 O834 2.074 . S
Co826 O837 2.093 . S
Co826 O850 2.097 . S
Co826 N867 2.151 . S
Co826 N875 2.214 . S
Co827 O828 2.160 . S
Co827 O833 2.058 . S
Co827 O843 2.057 . S
Co827 O858 2.037 . S
Co827 N862 2.145 . S
Co827 N883 2.257 . S
O828 Co826 2.143 . S
O828 Co827 2.160 . S
C829 O830 1.278 . S
C829 O837 1.224 . S
O830 C829 1.278 . S
C831 O832 1.245 . S
C831 O843 1.232 . S
O832 C831 1.245 . S
O833 Co827 2.058 . S
O833 C859 1.269 . S
O834 Co826 2.074 . S
O834 C859 1.257 . S
H835 C860 0.930 . S
H836 C866 0.930 . S
O837 Co826 2.093 . S
O837 C829 1.224 . S
H838 C870 0.929 . S
H839 C872 0.930 . S
H840 C873 0.930 . S
H841 C871 0.929 . S
H842 C874 0.928 . S
O843 Co827 2.057 . S
O843 C831 1.232 . S
H844 C863 0.929 . S
H845 C864 0.929 . S
H846 C876 0.931 . S
H847 C868 0.929 . S
H848 C877 0.930 . S
H849 C869 0.931 . S
O850 Co826 2.097 . S
O850 C878 1.214 . S
H851 C879 0.929 . S
H852 C880 0.929 . S
H853 C881 0.930 . S
H854 C882 0.929 . S
H855 C884 0.930 . S
H856 C861 0.930 . S
H857 C865 0.930 . S
O858 Co827 2.037 . S
O858 C878 1.234 . S
C859 O833 1.269 . S
C859 O834 1.257 . S
C860 H835 0.930 . S
C860 C863 1.388 . S
C860 C865 1.418 . S
C861 H856 0.930 . S
C861 C864 1.404 . S
C861 C865 1.353 . S
N862 Co827 2.145 . S
N862 C863 1.397 . S
N862 C864 1.334 . S
C863 H844 0.929 . S
C863 C860 1.388 . S
C863 N862 1.397 . S
C864 H845 0.929 . S
C864 C861 1.404 . S
C864 N862 1.334 . S
C865 H857 0.930 . S
C865 C860 1.418 . S
C865 C861 1.353 . S
C866 H836 0.930 . S
C866 N867 1.330 . S
C866 C868 1.446 . S
N867 Co826 2.151 . S
N867 C866 1.330 . S
N867 C871 1.418 . S
C868 H847 0.929 . S
C868 C866 1.446 . S
C868 C869 1.332 . S
C869 H849 0.931 . S
C869 C868 1.332 . S
C869 C870 1.267 . S
C870 H838 0.929 . S
C870 C869 1.267 . S
C870 C871 1.251 . S
C871 H841 0.929 . S
C871 N867 1.418 . S
C871 C870 1.251 . S
C872 H839 0.930 . S
C872 C874 1.406 . S
C872 C877 1.261 . S
C873 H840 0.930 . S
C873 N875 1.325 . S
C873 C876 1.357 . S
C874 H842 0.928 . S
C874 C872 1.406 . S
C874 N875 1.261 . S
N875 Co826 2.214 . S
N875 C873 1.325 . S
N875 C874 1.261 . S
C876 H846 0.931 . S
C876 C873 1.357 . S
C876 C877 1.312 . S
C877 H848 0.930 . S
C877 C872 1.261 . S
C877 C876 1.312 . S
C878 O850 1.214 . S
C878 O858 1.234 . S
C879 H851 0.929 . S
C879 C882 1.391 . S
C879 C884 1.391 . S
C880 H852 0.929 . S
C880 C881 1.390 . S
C880 N883 1.391 . S
C881 H853 0.930 . S
C881 C880 1.390 . S
C881 C882 1.392 . S
C882 H854 0.929 . S
C882 C879 1.391 . S
C882 C881 1.392 . S
N883 Co827 2.257 . S
N883 C880 1.391 . S
N883 C884 1.388 . S
C884 H855 0.930 . S
C884 C879 1.391 . S
C884 N883 1.388 . S
Co885 O887 2.143 . S
Co885 O893 2.074 . S
Co885 O896 2.093 1_554 S
Co885 O909 2.097 . S
Co885 N926 2.151 1_554 S
Co885 N934 2.214 . S
Co886 O887 2.160 . S
Co886 O892 2.058 . S
Co886 O902 2.057 . S
Co886 O917 2.037 . S
Co886 N921 2.145 . S
Co886 N942 2.257 . S
O887 Co885 2.143 . S
O887 Co886 2.160 . S
C888 O889 1.278 . S
C888 O896 1.224 . S
O889 C888 1.278 . S
C890 O891 1.245 . S
C890 O902 1.232 . S
O891 C890 1.245 . S
O892 Co886 2.058 . S
O892 C918 1.269 . S
O893 Co885 2.074 . S
O893 C918 1.257 . S
H894 C919 0.930 . S
H895 C925 0.930 . S
O896 Co885 2.093 1_556 S
O896 C888 1.224 . S
H897 C929 0.929 . S
H898 C931 0.930 . S
H899 C932 0.930 . S
H900 C930 0.929 1_554 S
H901 C933 0.928 . S
O902 Co886 2.057 . S
O902 C890 1.232 . S
H903 C922 0.929 . S
H904 C923 0.929 . S
H905 C935 0.931 . S
H906 C927 0.929 . S
H907 C936 0.930 . S
H908 C928 0.931 . S
O909 Co885 2.097 . S
O909 C937 1.214 . S
H910 C938 0.904 1_556 S
H911 C939 0.929 . S
H912 C940 0.930 . S
H913 C941 0.929 . S
H914 C943 0.930 . S
H915 C920 0.930 . S
H916 C924 0.930 . S
O917 Co886 2.037 . S
O917 C937 1.234 . S
C918 O892 1.269 . S
C918 O893 1.257 . S
C919 H894 0.930 . S
C919 C922 1.388 . S
C919 C924 1.418 . S
C920 H915 0.930 . S
C920 C923 1.404 . S
C920 C924 1.353 . S
N921 Co886 2.145 . S
N921 C922 1.397 . S
N921 C923 1.334 . S
C922 H903 0.929 . S
C922 C919 1.388 . S
C922 N921 1.397 . S
C923 H904 0.929 . S
C923 C920 1.404 . S
C923 N921 1.334 . S
C924 H916 0.930 . S
C924 C919 1.418 . S
C924 C920 1.353 . S
C925 H895 0.930 . S
C925 N926 1.330 . S
C925 C927 1.446 1_455 S
N926 Co885 2.151 1_556 S
N926 C925 1.330 . S
N926 C930 1.418 1_455 S
C927 H906 0.929 . S
C927 C925 1.446 1_655 S
C927 C928 1.332 . S
C928 H908 0.931 . S
C928 C927 1.332 . S
C928 C929 1.267 . S
C929 H897 0.929 . S
C929 C928 1.267 . S
C929 C930 1.251 . S
C930 H900 0.929 1_556 S
C930 N926 1.418 1_655 S
C930 C929 1.251 . S
C931 H898 0.930 . S
C931 C933 1.406 . S
C931 C936 1.261 1_556 S
C932 H899 0.930 . S
C932 N934 1.325 . S
C932 C935 1.357 . S
C933 H901 0.928 . S
C933 C931 1.406 . S
C933 N934 1.261 1_556 S
N934 Co885 2.214 . S
N934 C932 1.325 . S
N934 C933 1.261 1_554 S
C935 H905 0.931 . S
C935 C932 1.357 . S
C935 C936 1.312 . S
C936 H907 0.930 . S
C936 C931 1.261 1_554 S
C936 C935 1.312 . S
C937 O909 1.214 . S
C937 O917 1.234 . S
C938 H910 0.904 1_554 S
C938 C941 1.391 . S
C938 C943 1.391 . S
C939 H911 0.929 . S
C939 C940 1.390 . S
C939 N942 1.391 . S
C940 H912 0.930 . S
C940 C939 1.390 . S
C940 C941 1.392 . S
C941 H913 0.929 . S
C941 C938 1.391 . S
C941 C940 1.392 . S
N942 Co886 2.257 . S
N942 C939 1.391 . S
N942 C943 1.388 . S
C943 H914 0.930 . S
C943 C938 1.391 . S
C943 N942 1.388 . S
Co944 O946 2.143 . S
Co944 O952 2.074 . S
Co944 O955 2.093 . S
Co944 O968 2.097 . S
Co944 N985 2.151 . S
Co944 N993 2.214 . S
Co945 O946 2.160 . S
Co945 O951 2.058 . S
Co945 O961 2.057 . S
Co945 O976 2.037 . S
Co945 N980 2.145 . S
Co945 N1001 2.257 . S
O946 Co944 2.143 . S
O946 Co945 2.160 . S
C947 O948 1.278 . S
C947 O955 1.224 . S
O948 C947 1.278 . S
C949 O950 1.245 . S
C949 O961 1.232 . S
O950 C949 1.245 . S
O951 Co945 2.058 . S
O951 C977 1.269 . S
O952 Co944 2.074 . S
O952 C977 1.257 . S
H953 C978 0.930 . S
H954 C984 0.930 . S
O955 Co944 2.093 . S
O955 C947 1.224 . S
H956 C988 0.929 . S
H957 C990 0.930 . S
H958 C991 0.930 . S
H959 C989 0.929 . S
H960 C992 0.928 . S
O961 Co945 2.057 . S
O961 C949 1.232 . S
H962 C981 0.929 . S
H963 C982 0.929 . S
H964 C994 0.931 . S
H965 C986 0.929 . S
H966 C995 0.930 . S
H967 C987 0.931 . S
O968 Co944 2.097 . S
O968 C996 1.214 . S
H969 C997 0.929 . S
H970 C998 0.929 . S
H971 C999 0.930 . S
H972 C1000 0.929 . S
H973 C1002 0.930 . S
H974 C979 0.930 . S
H975 C983 0.930 . S
O976 Co945 2.037 . S
O976 C996 1.234 . S
C977 O951 1.269 . S
C977 O952 1.257 . S
C978 H953 0.930 . S
C978 C981 1.388 . S
C978 C983 1.418 . S
C979 H974 0.930 . S
C979 C982 1.404 . S
C979 C983 1.353 . S
N980 Co945 2.145 . S
N980 C981 1.397 . S
N980 C982 1.334 . S
C981 H962 0.929 . S
C981 C978 1.388 . S
C981 N980 1.397 . S
C982 H963 0.929 . S
C982 C979 1.404 . S
C982 N980 1.334 . S
C983 H975 0.930 . S
C983 C978 1.418 . S
C983 C979 1.353 . S
C984 H954 0.930 . S
C984 N985 1.330 . S
C984 C986 1.446 . S
N985 Co944 2.151 . S
N985 C984 1.330 . S
N985 C989 1.418 . S
C986 H965 0.929 . S
C986 C984 1.446 . S
C986 C987 1.332 . S
C987 H967 0.931 . S
C987 C986 1.332 . S
C987 C988 1.267 . S
C988 H956 0.929 . S
C988 C987 1.267 . S
C988 C989 1.251 . S
C989 H959 0.929 . S
C989 N985 1.418 . S
C989 C988 1.251 . S
C990 H957 0.930 . S
C990 C992 1.406 . S
C990 C995 1.261 . S
C991 H958 0.930 . S
C991 N993 1.325 . S
C991 C994 1.357 . S
C992 H960 0.928 . S
C992 C990 1.406 . S
C992 N993 1.261 . S
N993 Co944 2.214 . S
N993 C991 1.325 . S
N993 C992 1.261 . S
C994 H964 0.931 . S
C994 C991 1.357 . S
C994 C995 1.312 . S
C995 H966 0.930 . S
C995 C990 1.261 . S
C995 C994 1.312 . S
C996 O968 1.214 . S
C996 O976 1.234 . S
C997 H969 0.929 . S
C997 C1000 1.391 . S
C997 C1002 1.391 . S
C998 H970 0.929 . S
C998 C999 1.390 . S
C998 N1001 1.391 . S
C999 H971 0.930 . S
C999 C998 1.390 . S
C999 C1000 1.392 . S
C1000 H972 0.929 . S
C1000 C997 1.391 . S
C1000 C999 1.392 . S
N1001 Co945 2.257 . S
N1001 C998 1.391 . S
N1001 C1002 1.388 . S
C1002 H973 0.930 . S
C1002 C997 1.391 . S
C1002 N1001 1.388 . S
Co1003 O1005 2.143 . S
Co1003 O1011 2.074 . S
Co1003 O1014 2.093 1_554 S
Co1003 O1027 2.097 . S
Co1003 N1044 2.151 1_554 S
Co1003 N1052 2.214 . S
Co1004 O1005 2.160 . S
Co1004 O1010 2.058 . S
Co1004 O1020 2.057 . S
Co1004 O1035 2.037 . S
Co1004 N1039 2.145 . S
Co1004 N1060 2.257 . S
O1005 Co1003 2.143 . S
O1005 Co1004 2.160 . S
C1006 O1007 1.278 . S
C1006 O1014 1.224 . S
O1007 C1006 1.278 . S
C1008 O1009 1.245 . S
C1008 O1020 1.232 . S
O1009 C1008 1.245 . S
O1010 Co1004 2.058 . S
O1010 C1036 1.269 . S
O1011 Co1003 2.074 . S
O1011 C1036 1.257 . S
H1012 C1037 0.930 . S
H1013 C1043 0.930 . S
O1014 Co1003 2.093 1_556 S
O1014 C1006 1.224 . S
H1015 C1047 0.929 . S
H1016 C1049 0.930 . S
H1017 C1050 0.930 . S
H1018 C1048 0.929 1_554 S
H1019 C1051 0.928 . S
O1020 Co1004 2.057 . S
O1020 C1008 1.232 . S
H1021 C1040 0.929 . S
H1022 C1041 0.929 . S
H1023 C1053 0.931 . S
H1024 C1045 0.929 . S
H1025 C1054 0.930 . S
H1026 C1046 0.931 . S
O1027 Co1003 2.097 . S
O1027 C1055 1.214 . S
H1028 C1056 0.904 1_556 S
H1029 C1057 0.929 . S
H1030 C1058 0.930 . S
H1031 C1059 0.929 . S
H1032 C1061 0.930 . S
H1033 C1038 0.930 . S
H1034 C1042 0.930 . S
O1035 Co1004 2.037 . S
O1035 C1055 1.234 . S
C1036 O1010 1.269 . S
C1036 O1011 1.257 . S
C1037 H1012 0.930 . S
C1037 C1040 1.388 . S
C1037 C1042 1.418 . S
C1038 H1033 0.930 . S
C1038 C1041 1.404 . S
C1038 C1042 1.353 . S
N1039 Co1004 2.145 . S
N1039 C1040 1.397 . S
N1039 C1041 1.334 . S
C1040 H1021 0.929 . S
C1040 C1037 1.388 . S
C1040 N1039 1.397 . S
C1041 H1022 0.929 . S
C1041 C1038 1.404 . S
C1041 N1039 1.334 . S
C1042 H1034 0.930 . S
C1042 C1037 1.418 . S
C1042 C1038 1.353 . S
C1043 H1013 0.930 . S
C1043 N1044 1.330 . S
C1043 C1045 1.446 . S
N1044 Co1003 2.151 1_556 S
N1044 C1043 1.330 . S
N1044 C1048 1.418 . S
C1045 H1024 0.929 . S
C1045 C1043 1.446 . S
C1045 C1046 1.332 . S
C1046 H1026 0.931 . S
C1046 C1045 1.332 . S
C1046 C1047 1.267 . S
C1047 H1015 0.929 . S
C1047 C1046 1.267 . S
C1047 C1048 1.251 . S
C1048 H1018 0.929 1_556 S
C1048 N1044 1.418 . S
C1048 C1047 1.251 . S
C1049 H1016 0.930 . S
C1049 C1051 1.406 . S
C1049 C1054 1.261 1_556 S
C1050 H1017 0.930 . S
C1050 N1052 1.325 . S
C1050 C1053 1.357 . S
C1051 H1019 0.928 . S
C1051 C1049 1.406 . S
C1051 N1052 1.261 1_556 S
N1052 Co1003 2.214 . S
N1052 C1050 1.325 . S
N1052 C1051 1.261 1_554 S
C1053 H1023 0.931 . S
C1053 C1050 1.357 . S
C1053 C1054 1.312 . S
C1054 H1025 0.930 . S
C1054 C1049 1.261 1_554 S
C1054 C1053 1.312 . S
C1055 O1027 1.214 . S
C1055 O1035 1.234 . S
C1056 H1028 0.904 1_554 S
C1056 C1059 1.391 . S
C1056 C1061 1.391 . S
C1057 H1029 0.929 . S
C1057 C1058 1.390 . S
C1057 N1060 1.391 . S
C1058 H1030 0.930 . S
C1058 C1057 1.390 . S
C1058 C1059 1.392 . S
C1059 H1031 0.929 . S
C1059 C1056 1.391 . S
C1059 C1058 1.392 . S
N1060 Co1004 2.257 . S
N1060 C1057 1.391 . S
N1060 C1061 1.388 . S
C1061 H1032 0.930 . S
C1061 C1056 1.391 . S
C1061 N1060 1.388 . S
Co1062 O1064 2.143 . S
Co1062 O1070 2.074 . S
Co1062 O1073 2.093 . S
Co1062 O1086 2.097 . S
Co1062 N1103 2.151 . S
Co1062 N1111 2.214 . S
Co1063 O1064 2.160 . S
Co1063 O1069 2.058 . S
Co1063 O1079 2.057 . S
Co1063 O1094 2.037 . S
Co1063 N1098 2.145 . S
Co1063 N1119 2.257 . S
O1064 Co1062 2.143 . S
O1064 Co1063 2.160 . S
C1065 O1066 1.278 . S
C1065 O1073 1.224 . S
O1066 C1065 1.278 . S
C1067 O1068 1.245 . S
C1067 O1079 1.232 . S
O1068 C1067 1.245 . S
O1069 Co1063 2.058 . S
O1069 C1095 1.269 . S
O1070 Co1062 2.074 . S
O1070 C1095 1.257 . S
H1071 C1096 0.930 . S
H1072 C1102 0.930 . S
O1073 Co1062 2.093 . S
O1073 C1065 1.224 . S
H1074 C1106 0.929 . S
H1075 C1108 0.930 . S
H1076 C1109 0.930 . S
H1077 C1107 0.929 . S
H1078 C1110 0.928 . S
O1079 Co1063 2.057 . S
O1079 C1067 1.232 . S
H1080 C1099 0.929 . S
H1081 C1100 0.929 . S
H1082 C1112 0.931 . S
H1083 C1104 0.929 . S
H1084 C1113 0.930 1_455 S
H1085 C1105 0.931 . S
O1086 Co1062 2.097 . S
O1086 C1114 1.214 . S
H1087 C1115 0.929 . S
H1088 C1116 0.929 . S
H1089 C1117 0.930 . S
H1090 C1118 0.929 . S
H1091 C1120 0.930 . S
H1092 C1097 0.930 . S
H1093 C1101 0.930 . S
O1094 Co1063 2.037 . S
O1094 C1114 1.234 . S
C1095 O1069 1.269 . S
C1095 O1070 1.257 . S
C1096 H1071 0.930 . S
C1096 C1099 1.388 . S
C1096 C1101 1.418 . S
C1097 H1092 0.930 . S
C1097 C1100 1.404 . S
C1097 C1101 1.353 . S
N1098 Co1063 2.145 . S
N1098 C1099 1.397 . S
N1098 C1100 1.334 . S
C1099 H1080 0.929 . S
C1099 C1096 1.388 . S
C1099 N1098 1.397 . S
C1100 H1081 0.929 . S
C1100 C1097 1.404 . S
C1100 N1098 1.334 . S
C1101 H1093 0.930 . S
C1101 C1096 1.418 . S
C1101 C1097 1.353 . S
C1102 H1072 0.930 . S
C1102 N1103 1.330 . S
C1102 C1104 1.446 . S
N1103 Co1062 2.151 . S
N1103 C1102 1.330 . S
N1103 C1107 1.418 . S
C1104 H1083 0.929 . S
C1104 C1102 1.446 . S
C1104 C1105 1.332 . S
C1105 H1085 0.931 . S
C1105 C1104 1.332 . S
C1105 C1106 1.267 . S
C1106 H1074 0.929 . S
C1106 C1105 1.267 . S
C1106 C1107 1.251 . S
C1107 H1077 0.929 . S
C1107 N1103 1.418 . S
C1107 C1106 1.251 . S
C1108 H1075 0.930 . S
C1108 C1110 1.406 . S
C1108 C1113 1.261 . S
C1109 H1076 0.930 . S
C1109 N1111 1.325 . S
C1109 C1112 1.357 . S
C1110 H1078 0.928 . S
C1110 C1108 1.406 . S
C1110 N1111 1.261 . S
N1111 Co1062 2.214 . S
N1111 C1109 1.325 . S
N1111 C1110 1.261 . S
C1112 H1082 0.931 . S
C1112 C1109 1.357 . S
C1112 C1113 1.312 . S
C1113 H1084 0.930 1_655 S
C1113 C1108 1.261 . S
C1113 C1112 1.312 . S
C1114 O1086 1.214 . S
C1114 O1094 1.234 . S
C1115 H1087 0.929 . S
C1115 C1118 1.391 . S
C1115 C1120 1.391 . S
C1116 H1088 0.929 . S
C1116 C1117 1.390 . S
C1116 N1119 1.391 . S
C1117 H1089 0.930 . S
C1117 C1116 1.390 . S
C1117 C1118 1.392 . S
C1118 H1090 0.929 . S
C1118 C1115 1.391 . S
C1118 C1117 1.392 . S
N1119 Co1063 2.257 . S
N1119 C1116 1.391 . S
N1119 C1120 1.388 . S
C1120 H1091 0.930 . S
C1120 C1115 1.391 . S
C1120 N1119 1.388 . S
Co1121 O1123 2.143 . S
Co1121 O1129 2.074 . S
Co1121 O1132 2.093 . S
Co1121 O1145 2.097 . S
Co1121 N1162 2.151 . S
Co1121 N1170 2.214 . S
Co1122 O1123 2.160 . S
Co1122 O1128 2.058 . S
Co1122 O1138 2.057 . S
Co1122 O1153 2.037 . S
Co1122 N1157 2.145 . S
Co1122 N1178 2.257 . S
O1123 Co1121 2.143 . S
O1123 Co1122 2.160 . S
C1124 O1125 1.278 . S
C1124 O1132 1.224 . S
O1125 C1124 1.278 . S
C1126 O1127 1.245 . S
C1126 O1138 1.232 . S
O1127 C1126 1.245 . S
O1128 Co1122 2.058 . S
O1128 C1154 1.269 . S
O1129 Co1121 2.074 . S
O1129 C1154 1.257 . S
H1130 C1155 0.930 . S
H1131 C1161 0.930 . S
O1132 Co1121 2.093 . S
O1132 C1124 1.224 . S
H1133 C1165 0.929 . S
H1134 C1167 0.930 . S
H1135 C1168 0.930 . S
H1136 C1166 0.929 . S
H1137 C1169 0.928 . S
O1138 Co1122 2.057 . S
O1138 C1126 1.232 . S
H1139 C1158 0.929 . S
H1140 C1159 0.929 . S
H1141 C1171 0.931 . S
H1142 C1163 0.929 . S
H1143 C1172 0.930 . S
H1144 C1164 0.931 . S
O1145 Co1121 2.097 . S
O1145 C1173 1.214 . S
H1146 C1174 0.929 . S
H1147 C1175 0.929 . S
H1148 C1176 0.930 . S
H1149 C1177 0.929 . S
H1150 C1179 0.930 . S
H1151 C1156 0.930 . S
H1152 C1160 0.930 . S
O1153 Co1122 2.037 . S
O1153 C1173 1.234 . S
C1154 O1128 1.269 . S
C1154 O1129 1.257 . S
C1155 H1130 0.930 . S
C1155 C1158 1.388 . S
C1155 C1160 1.418 . S
C1156 H1151 0.930 . S
C1156 C1159 1.404 . S
C1156 C1160 1.353 . S
N1157 Co1122 2.145 . S
N1157 C1158 1.397 . S
N1157 C1159 1.334 . S
C1158 H1139 0.929 . S
C1158 C1155 1.388 . S
C1158 N1157 1.397 . S
C1159 H1140 0.929 . S
C1159 C1156 1.404 . S
C1159 N1157 1.334 . S
C1160 H1152 0.930 . S
C1160 C1155 1.418 . S
C1160 C1156 1.353 . S
C1161 H1131 0.930 . S
C1161 N1162 1.330 . S
C1161 C1163 1.446 1_455 S
N1162 Co1121 2.151 . S
N1162 C1161 1.330 . S
N1162 C1166 1.418 1_455 S
C1163 H1142 0.929 . S
C1163 C1161 1.446 1_655 S
C1163 C1164 1.332 . S
C1164 H1144 0.931 . S
C1164 C1163 1.332 . S
C1164 C1165 1.267 . S
C1165 H1133 0.929 . S
C1165 C1164 1.267 . S
C1165 C1166 1.251 . S
C1166 H1136 0.929 . S
C1166 N1162 1.418 1_655 S
C1166 C1165 1.251 . S
C1167 H1134 0.930 . S
C1167 C1169 1.406 . S
C1167 C1172 1.261 . S
C1168 H1135 0.930 . S
C1168 N1170 1.325 . S
C1168 C1171 1.357 . S
C1169 H1137 0.928 . S
C1169 C1167 1.406 . S
C1169 N1170 1.261 . S
N1170 Co1121 2.214 . S
N1170 C1168 1.325 . S
N1170 C1169 1.261 . S
C1171 H1141 0.931 . S
C1171 C1168 1.357 . S
C1171 C1172 1.312 . S
C1172 H1143 0.930 . S
C1172 C1167 1.261 . S
C1172 C1171 1.312 . S
C1173 O1145 1.214 . S
C1173 O1153 1.234 . S
C1174 H1146 0.929 . S
C1174 C1177 1.391 . S
C1174 C1179 1.391 . S
C1175 H1147 0.929 . S
C1175 C1176 1.390 . S
C1175 N1178 1.391 . S
C1176 H1148 0.930 . S
C1176 C1175 1.390 . S
C1176 C1177 1.392 . S
C1177 H1149 0.929 . S
C1177 C1174 1.391 . S
C1177 C1176 1.392 . S
N1178 Co1122 2.257 . S
N1178 C1175 1.391 . S
N1178 C1179 1.388 . S
C1179 H1150 0.930 . S
C1179 C1174 1.391 . S
C1179 N1178 1.388 . S
Co1180 O1182 2.143 . S
Co1180 O1188 2.074 . S
Co1180 O1191 2.093 . S
Co1180 O1204 2.097 . S
Co1180 N1221 2.151 . S
Co1180 N1229 2.214 . S
Co1181 O1182 2.160 . S
Co1181 O1187 2.058 . S
Co1181 O1197 2.057 . S
Co1181 O1212 2.037 . S
Co1181 N1216 2.145 . S
Co1181 N1237 2.257 . S
O1182 Co1180 2.143 . S
O1182 Co1181 2.160 . S
C1183 O1184 1.278 . S
C1183 O1191 1.224 . S
O1184 C1183 1.278 . S
C1185 O1186 1.245 . S
C1185 O1197 1.232 . S
O1186 C1185 1.245 . S
O1187 Co1181 2.058 . S
O1187 C1213 1.269 . S
O1188 Co1180 2.074 . S
O1188 C1213 1.257 . S
H1189 C1214 0.930 . S
H1190 C1220 0.930 . S
O1191 Co1180 2.093 . S
O1191 C1183 1.224 . S
H1192 C1224 0.929 . S
H1193 C1226 0.930 . S
H1194 C1227 0.930 . S
H1195 C1225 0.929 . S
H1196 C1228 0.928 . S
O1197 Co1181 2.057 . S
O1197 C1185 1.232 . S
H1198 C1217 0.929 . S
H1199 C1218 0.929 . S
H1200 C1230 0.931 . S
H1201 C1222 0.929 . S
H1202 C1231 0.930 . S
H1203 C1223 0.931 . S
O1204 Co1180 2.097 . S
O1204 C1232 1.214 . S
H1205 C1233 0.929 . S
H1206 C1234 0.929 . S
H1207 C1235 0.930 . S
H1208 C1236 0.929 . S
H1209 C1238 0.930 . S
H1210 C1215 0.930 . S
H1211 C1219 0.930 . S
O1212 Co1181 2.037 . S
O1212 C1232 1.234 . S
C1213 O1187 1.269 . S
C1213 O1188 1.257 . S
C1214 H1189 0.930 . S
C1214 C1217 1.388 . S
C1214 C1219 1.418 . S
C1215 H1210 0.930 . S
C1215 C1218 1.404 . S
C1215 C1219 1.353 . S
N1216 Co1181 2.145 . S
N1216 C1217 1.397 . S
N1216 C1218 1.334 . S
C1217 H1198 0.929 . S
C1217 C1214 1.388 . S
C1217 N1216 1.397 . S
C1218 H1199 0.929 . S
C1218 C1215 1.404 . S
C1218 N1216 1.334 . S
C1219 H1211 0.930 . S
C1219 C1214 1.418 . S
C1219 C1215 1.353 . S
C1220 H1190 0.930 . S
C1220 N1221 1.330 . S
C1220 C1222 1.446 . S
N1221 Co1180 2.151 . S
N1221 C1220 1.330 . S
N1221 C1225 1.418 . S
C1222 H1201 0.929 . S
C1222 C1220 1.446 . S
C1222 C1223 1.332 . S
C1223 H1203 0.931 . S
C1223 C1222 1.332 . S
C1223 C1224 1.267 . S
C1224 H1192 0.929 . S
C1224 C1223 1.267 . S
C1224 C1225 1.251 . S
C1225 H1195 0.929 . S
C1225 N1221 1.418 . S
C1225 C1224 1.251 . S
C1226 H1193 0.930 . S
C1226 C1228 1.406 . S
C1226 C1231 1.261 . S
C1227 H1194 0.930 . S
C1227 N1229 1.325 . S
C1227 C1230 1.357 . S
C1228 H1196 0.928 . S
C1228 C1226 1.406 . S
C1228 N1229 1.261 . S
N1229 Co1180 2.214 . S
N1229 C1227 1.325 . S
N1229 C1228 1.261 . S
C1230 H1200 0.931 . S
C1230 C1227 1.357 . S
C1230 C1231 1.312 . S
C1231 H1202 0.930 . S
C1231 C1226 1.261 . S
C1231 C1230 1.312 . S
C1232 O1204 1.214 . S
C1232 O1212 1.234 . S
C1233 H1205 0.929 . S
C1233 C1236 1.391 . S
C1233 C1238 1.391 . S
C1234 H1206 0.929 . S
C1234 C1235 1.390 . S
C1234 N1237 1.391 . S
C1235 H1207 0.930 . S
C1235 C1234 1.390 . S
C1235 C1236 1.392 . S
C1236 H1208 0.929 . S
C1236 C1233 1.391 . S
C1236 C1235 1.392 . S
N1237 Co1181 2.257 . S
N1237 C1234 1.391 . S
N1237 C1238 1.388 . S
C1238 H1209 0.930 . S
C1238 C1233 1.391 . S
C1238 N1237 1.388 . S
Co1239 O1241 2.143 . S
Co1239 O1247 2.074 . S
Co1239 O1250 2.093 1_556 S
Co1239 O1263 2.097 . S
Co1239 N1280 2.151 1_556 S
Co1239 N1288 2.214 . S
Co1240 O1241 2.160 . S
Co1240 O1246 2.058 . S
Co1240 O1256 2.057 . S
Co1240 O1271 2.037 . S
Co1240 N1275 2.145 . S
Co1240 N1296 2.257 . S
O1241 Co1239 2.143 . S
O1241 Co1240 2.160 . S
C1242 O1243 1.278 . S
C1242 O1250 1.224 . S
O1243 C1242 1.278 . S
C1244 O1245 1.245 . S
C1244 O1256 1.232 . S
O1245 C1244 1.245 . S
O1246 Co1240 2.058 . S
O1246 C1272 1.269 . S
O1247 Co1239 2.074 . S
O1247 C1272 1.257 . S
H1248 C1273 0.930 . S
H1249 C1279 0.930 . S
O1250 Co1239 2.093 1_554 S
O1250 C1242 1.224 . S
H1251 C1283 0.929 . S
H1252 C1285 0.930 . S
H1253 C1286 0.930 . S
H1254 C1284 0.929 1_556 S
H1255 C1287 0.928 . S
O1256 Co1240 2.057 . S
O1256 C1244 1.232 . S
H1257 C1276 0.929 . S
H1258 C1277 0.929 . S
H1259 C1289 0.931 . S
H1260 C1281 0.929 . S
H1261 C1290 0.930 . S
H1262 C1282 0.931 . S
O1263 Co1239 2.097 . S
O1263 C1291 1.214 . S
H1264 C1292 0.904 1_554 S
H1265 C1293 0.929 . S
H1266 C1294 0.930 . S
H1267 C1295 0.929 . S
H1268 C1297 0.930 . S
H1269 C1274 0.930 . S
H1270 C1278 0.930 . S
O1271 Co1240 2.037 . S
O1271 C1291 1.234 . S
C1272 O1246 1.269 . S
C1272 O1247 1.257 . S
C1273 H1248 0.930 . S
C1273 C1276 1.388 . S
C1273 C1278 1.418 . S
C1274 H1269 0.930 . S
C1274 C1277 1.404 . S
C1274 C1278 1.353 . S
N1275 Co1240 2.145 . S
N1275 C1276 1.397 . S
N1275 C1277 1.334 . S
C1276 H1257 0.929 . S
C1276 C1273 1.388 . S
C1276 N1275 1.397 . S
C1277 H1258 0.929 . S
C1277 C1274 1.404 . S
C1277 N1275 1.334 . S
C1278 H1270 0.930 . S
C1278 C1273 1.418 . S
C1278 C1274 1.353 . S
C1279 H1249 0.930 . S
C1279 N1280 1.330 . S
C1279 C1281 1.446 1_455 S
N1280 Co1239 2.151 1_554 S
N1280 C1279 1.330 . S
N1280 C1284 1.418 1_455 S
C1281 H1260 0.929 . S
C1281 C1279 1.446 1_655 S
C1281 C1282 1.332 . S
C1282 H1262 0.931 . S
C1282 C1281 1.332 . S
C1282 C1283 1.267 . S
C1283 H1251 0.929 . S
C1283 C1282 1.267 . S
C1283 C1284 1.251 . S
C1284 H1254 0.929 1_554 S
C1284 N1280 1.418 1_655 S
C1284 C1283 1.251 . S
C1285 H1252 0.930 . S
C1285 C1287 1.406 . S
C1285 C1290 1.261 1_554 S
C1286 H1253 0.930 . S
C1286 N1288 1.325 . S
C1286 C1289 1.357 . S
C1287 H1255 0.928 . S
C1287 C1285 1.406 . S
C1287 N1288 1.261 1_554 S
N1288 Co1239 2.214 . S
N1288 C1286 1.325 . S
N1288 C1287 1.261 1_556 S
C1289 H1259 0.931 . S
C1289 C1286 1.357 . S
C1289 C1290 1.312 . S
C1290 H1261 0.930 . S
C1290 C1285 1.261 1_556 S
C1290 C1289 1.312 . S
C1291 O1263 1.214 . S
C1291 O1271 1.234 . S
C1292 H1264 0.904 1_556 S
C1292 C1295 1.391 . S
C1292 C1297 1.391 . S
C1293 H1265 0.929 . S
C1293 C1294 1.390 . S
C1293 N1296 1.391 . S
C1294 H1266 0.930 . S
C1294 C1293 1.390 . S
C1294 C1295 1.392 . S
C1295 H1267 0.929 . S
C1295 C1292 1.391 . S
C1295 C1294 1.392 . S
N1296 Co1240 2.257 . S
N1296 C1293 1.391 . S
N1296 C1297 1.388 . S
C1297 H1268 0.930 . S
C1297 C1292 1.391 . S
C1297 N1296 1.388 . S
Co1298 O1300 2.143 . S
Co1298 O1306 2.074 . S
Co1298 O1309 2.093 . S
Co1298 O1322 2.097 . S
Co1298 N1339 2.151 . S
Co1298 N1347 2.214 . S
Co1299 O1300 2.160 . S
Co1299 O1305 2.058 . S
Co1299 O1315 2.057 . S
Co1299 O1330 2.037 . S
Co1299 N1334 2.145 . S
Co1299 N1355 2.257 . S
O1300 Co1298 2.143 . S
O1300 Co1299 2.160 . S
C1301 O1302 1.278 . S
C1301 O1309 1.224 . S
O1302 C1301 1.278 . S
C1303 O1304 1.245 . S
C1303 O1315 1.232 . S
O1304 C1303 1.245 . S
O1305 Co1299 2.058 . S
O1305 C1331 1.269 . S
O1306 Co1298 2.074 . S
O1306 C1331 1.257 . S
H1307 C1332 0.930 . S
H1308 C1338 0.930 . S
O1309 Co1298 2.093 . S
O1309 C1301 1.224 . S
H1310 C1342 0.929 . S
H1311 C1344 0.930 . S
H1312 C1345 0.930 . S
H1313 C1343 0.929 . S
H1314 C1346 0.928 . S
O1315 Co1299 2.057 . S
O1315 C1303 1.232 . S
H1316 C1335 0.929 . S
H1317 C1336 0.929 . S
H1318 C1348 0.931 . S
H1319 C1340 0.929 . S
H1320 C1349 0.930 1_455 S
H1321 C1341 0.931 . S
O1322 Co1298 2.097 . S
O1322 C1350 1.214 . S
H1323 C1351 0.929 . S
H1324 C1352 0.929 . S
H1325 C1353 0.930 . S
H1326 C1354 0.929 . S
H1327 C1356 0.930 . S
H1328 C1333 0.930 . S
H1329 C1337 0.930 . S
O1330 Co1299 2.037 . S
O1330 C1350 1.234 . S
C1331 O1305 1.269 . S
C1331 O1306 1.257 . S
C1332 H1307 0.930 . S
C1332 C1335 1.388 . S
C1332 C1337 1.418 . S
C1333 H1328 0.930 . S
C1333 C1336 1.404 . S
C1333 C1337 1.353 . S
N1334 Co1299 2.145 . S
N1334 C1335 1.397 . S
N1334 C1336 1.334 . S
C1335 H1316 0.929 . S
C1335 C1332 1.388 . S
C1335 N1334 1.397 . S
C1336 H1317 0.929 . S
C1336 C1333 1.404 . S
C1336 N1334 1.334 . S
C1337 H1329 0.930 . S
C1337 C1332 1.418 . S
C1337 C1333 1.353 . S
C1338 H1308 0.930 . S
C1338 N1339 1.330 . S
C1338 C1340 1.446 . S
N1339 Co1298 2.151 . S
N1339 C1338 1.330 . S
N1339 C1343 1.418 . S
C1340 H1319 0.929 . S
C1340 C1338 1.446 . S
C1340 C1341 1.332 . S
C1341 H1321 0.931 . S
C1341 C1340 1.332 . S
C1341 C1342 1.267 . S
C1342 H1310 0.929 . S
C1342 C1341 1.267 . S
C1342 C1343 1.251 . S
C1343 H1313 0.929 . S
C1343 N1339 1.418 . S
C1343 C1342 1.251 . S
C1344 H1311 0.930 . S
C1344 C1346 1.406 . S
C1344 C1349 1.261 . S
C1345 H1312 0.930 . S
C1345 N1347 1.325 . S
C1345 C1348 1.357 . S
C1346 H1314 0.928 . S
C1346 C1344 1.406 . S
C1346 N1347 1.261 . S
N1347 Co1298 2.214 . S
N1347 C1345 1.325 . S
N1347 C1346 1.261 . S
C1348 H1318 0.931 . S
C1348 C1345 1.357 . S
C1348 C1349 1.312 . S
C1349 H1320 0.930 1_655 S
C1349 C1344 1.261 . S
C1349 C1348 1.312 . S
C1350 O1322 1.214 . S
C1350 O1330 1.234 . S
C1351 H1323 0.929 . S
C1351 C1354 1.391 . S
C1351 C1356 1.391 . S
C1352 H1324 0.929 . S
C1352 C1353 1.390 . S
C1352 N1355 1.391 . S
C1353 H1325 0.930 . S
C1353 C1352 1.390 . S
C1353 C1354 1.392 . S
C1354 H1326 0.929 . S
C1354 C1351 1.391 . S
C1354 C1353 1.392 . S
N1355 Co1299 2.257 . S
N1355 C1352 1.391 . S
N1355 C1356 1.388 . S
C1356 H1327 0.930 . S
C1356 C1351 1.391 . S
C1356 N1355 1.388 . S
Co1357 O1359 2.143 . S
Co1357 O1365 2.074 . S
Co1357 O1368 2.093 . S
Co1357 O1381 2.097 . S
Co1357 N1398 2.151 . S
Co1357 N1406 2.214 . S
Co1358 O1359 2.160 . S
Co1358 O1364 2.058 . S
Co1358 O1374 2.057 . S
Co1358 O1389 2.037 . S
Co1358 N1393 2.145 . S
Co1358 N1414 2.257 . S
O1359 Co1357 2.143 . S
O1359 Co1358 2.160 . S
C1360 O1361 1.278 . S
C1360 O1368 1.224 . S
O1361 C1360 1.278 . S
C1362 O1363 1.245 . S
C1362 O1374 1.232 . S
O1363 C1362 1.245 . S
O1364 Co1358 2.058 . S
O1364 C1390 1.269 . S
O1365 Co1357 2.074 . S
O1365 C1390 1.257 . S
H1366 C1391 0.930 . S
H1367 C1397 0.930 . S
O1368 Co1357 2.093 . S
O1368 C1360 1.224 . S
H1369 C1401 0.929 . S
H1370 C1403 0.930 . S
H1371 C1404 0.930 . S
H1372 C1402 0.929 . S
H1373 C1405 0.928 . S
O1374 Co1358 2.057 . S
O1374 C1362 1.232 . S
H1375 C1394 0.929 . S
H1376 C1395 0.929 . S
H1377 C1407 0.931 . S
H1378 C1399 0.929 . S
H1379 C1408 0.930 . S
H1380 C1400 0.931 . S
O1381 Co1357 2.097 . S
O1381 C1409 1.214 . S
H1382 C1410 0.929 . S
H1383 C1411 0.929 . S
H1384 C1412 0.930 . S
H1385 C1413 0.929 . S
H1386 C1415 0.930 . S
H1387 C1392 0.930 . S
H1388 C1396 0.930 . S
O1389 Co1358 2.037 . S
O1389 C1409 1.234 . S
C1390 O1364 1.269 . S
C1390 O1365 1.257 . S
C1391 H1366 0.930 . S
C1391 C1394 1.388 . S
C1391 C1396 1.418 . S
C1392 H1387 0.930 . S
C1392 C1395 1.404 . S
C1392 C1396 1.353 . S
N1393 Co1358 2.145 . S
N1393 C1394 1.397 . S
N1393 C1395 1.334 . S
C1394 H1375 0.929 . S
C1394 C1391 1.388 . S
C1394 N1393 1.397 . S
C1395 H1376 0.929 . S
C1395 C1392 1.404 . S
C1395 N1393 1.334 . S
C1396 H1388 0.930 . S
C1396 C1391 1.418 . S
C1396 C1392 1.353 . S
C1397 H1367 0.930 . S
C1397 N1398 1.330 . S
C1397 C1399 1.446 . S
N1398 Co1357 2.151 . S
N1398 C1397 1.330 . S
N1398 C1402 1.418 . S
C1399 H1378 0.929 . S
C1399 C1397 1.446 . S
C1399 C1400 1.332 . S
C1400 H1380 0.931 . S
C1400 C1399 1.332 . S
C1400 C1401 1.267 . S
C1401 H1369 0.929 . S
C1401 C1400 1.267 . S
C1401 C1402 1.251 . S
C1402 H1372 0.929 . S
C1402 N1398 1.418 . S
C1402 C1401 1.251 . S
C1403 H1370 0.930 . S
C1403 C1405 1.406 . S
C1403 C1408 1.261 . S
C1404 H1371 0.930 . S
C1404 N1406 1.325 . S
C1404 C1407 1.357 . S
C1405 H1373 0.928 . S
C1405 C1403 1.406 . S
C1405 N1406 1.261 . S
N1406 Co1357 2.214 . S
N1406 C1404 1.325 . S
N1406 C1405 1.261 . S
C1407 H1377 0.931 . S
C1407 C1404 1.357 . S
C1407 C1408 1.312 . S
C1408 H1379 0.930 . S
C1408 C1403 1.261 . S
C1408 C1407 1.312 . S
C1409 O1381 1.214 . S
C1409 O1389 1.234 . S
C1410 H1382 0.929 . S
C1410 C1413 1.391 . S
C1410 C1415 1.391 . S
C1411 H1383 0.929 . S
C1411 C1412 1.390 . S
C1411 N1414 1.391 . S
C1412 H1384 0.930 . S
C1412 C1411 1.390 . S
C1412 C1413 1.392 . S
C1413 H1385 0.929 . S
C1413 C1410 1.391 . S
C1413 C1412 1.392 . S
N1414 Co1358 2.257 . S
N1414 C1411 1.391 . S
N1414 C1415 1.388 . S
C1415 H1386 0.930 . S
C1415 C1410 1.391 . S
C1415 N1414 1.388 . S
Co1416 O1418 2.143 . S
Co1416 O1424 2.074 . S
Co1416 O1427 2.093 . S
Co1416 O1440 2.097 . S
Co1416 N1457 2.151 . S
Co1416 N1465 2.214 . S
Co1417 O1418 2.160 . S
Co1417 O1423 2.058 . S
Co1417 O1433 2.057 . S
Co1417 O1448 2.037 . S
Co1417 N1452 2.145 . S
Co1417 N1473 2.257 . S
O1418 Co1416 2.143 . S
O1418 Co1417 2.160 . S
C1419 O1420 1.278 . S
C1419 O1427 1.224 . S
O1420 C1419 1.278 . S
C1421 O1422 1.245 . S
C1421 O1433 1.232 . S
O1422 C1421 1.245 . S
O1423 Co1417 2.058 . S
O1423 C1449 1.269 . S
O1424 Co1416 2.074 . S
O1424 C1449 1.257 . S
H1425 C1450 0.930 . S
H1426 C1456 0.930 . S
O1427 Co1416 2.093 . S
O1427 C1419 1.224 . S
H1428 C1460 0.929 . S
H1429 C1462 0.930 . S
H1430 C1463 0.930 . S
H1431 C1461 0.929 . S
H1432 C1464 0.928 . S
O1433 Co1417 2.057 . S
O1433 C1421 1.232 . S
H1434 C1453 0.929 . S
H1435 C1454 0.929 . S
H1436 C1466 0.931 . S
H1437 C1458 0.929 . S
H1438 C1467 0.930 . S
H1439 C1459 0.931 . S
O1440 Co1416 2.097 . S
O1440 C1468 1.214 . S
H1441 C1469 0.929 . S
H1442 C1470 0.929 . S
H1443 C1471 0.930 . S
H1444 C1472 0.929 . S
H1445 C1474 0.930 . S
H1446 C1451 0.930 . S
H1447 C1455 0.930 . S
O1448 Co1417 2.037 . S
O1448 C1468 1.234 . S
C1449 O1423 1.269 . S
C1449 O1424 1.257 . S
C1450 H1425 0.930 . S
C1450 C1453 1.388 . S
C1450 C1455 1.418 . S
C1451 H1446 0.930 . S
C1451 C1454 1.404 . S
C1451 C1455 1.353 . S
N1452 Co1417 2.145 . S
N1452 C1453 1.397 . S
N1452 C1454 1.334 . S
C1453 H1434 0.929 . S
C1453 C1450 1.388 . S
C1453 N1452 1.397 . S
C1454 H1435 0.929 . S
C1454 C1451 1.404 . S
C1454 N1452 1.334 . S
C1455 H1447 0.930 . S
C1455 C1450 1.418 . S
C1455 C1451 1.353 . S
C1456 H1426 0.930 . S
C1456 N1457 1.330 . S
C1456 C1458 1.446 . S
N1457 Co1416 2.151 . S
N1457 C1456 1.330 . S
N1457 C1461 1.418 . S
C1458 H1437 0.929 . S
C1458 C1456 1.446 . S
C1458 C1459 1.332 . S
C1459 H1439 0.931 . S
C1459 C1458 1.332 . S
C1459 C1460 1.267 . S
C1460 H1428 0.929 . S
C1460 C1459 1.267 . S
C1460 C1461 1.251 . S
C1461 H1431 0.929 . S
C1461 N1457 1.418 . S
C1461 C1460 1.251 . S
C1462 H1429 0.930 . S
C1462 C1464 1.406 . S
C1462 C1467 1.261 . S
C1463 H1430 0.930 . S
C1463 N1465 1.325 . S
C1463 C1466 1.357 . S
C1464 H1432 0.928 . S
C1464 C1462 1.406 . S
C1464 N1465 1.261 . S
N1465 Co1416 2.214 . S
N1465 C1463 1.325 . S
N1465 C1464 1.261 . S
C1466 H1436 0.931 . S
C1466 C1463 1.357 . S
C1466 C1467 1.312 . S
C1467 H1438 0.930 . S
C1467 C1462 1.261 . S
C1467 C1466 1.312 . S
C1468 O1440 1.214 . S
C1468 O1448 1.234 . S
C1469 H1441 0.929 . S
C1469 C1472 1.391 . S
C1469 C1474 1.391 . S
C1470 H1442 0.929 . S
C1470 C1471 1.390 . S
C1470 N1473 1.391 . S
C1471 H1443 0.930 . S
C1471 C1470 1.390 . S
C1471 C1472 1.392 . S
C1472 H1444 0.929 . S
C1472 C1469 1.391 . S
C1472 C1471 1.392 . S
N1473 Co1417 2.257 . S
N1473 C1470 1.391 . S
N1473 C1474 1.388 . S
C1474 H1445 0.930 . S
C1474 C1469 1.391 . S
C1474 N1473 1.388 . S
Co1475 O1477 2.143 . S
Co1475 O1483 2.074 . S
Co1475 O1486 2.093 1_556 S
Co1475 O1499 2.097 . S
Co1475 N1516 2.151 1_556 S
Co1475 N1524 2.214 . S
Co1476 O1477 2.160 . S
Co1476 O1482 2.058 . S
Co1476 O1492 2.057 . S
Co1476 O1507 2.037 . S
Co1476 N1511 2.145 . S
Co1476 N1532 2.257 . S
O1477 Co1475 2.143 . S
O1477 Co1476 2.160 . S
C1478 O1479 1.278 . S
C1478 O1486 1.224 . S
O1479 C1478 1.278 . S
C1480 O1481 1.245 . S
C1480 O1492 1.232 . S
O1481 C1480 1.245 . S
O1482 Co1476 2.058 . S
O1482 C1508 1.269 . S
O1483 Co1475 2.074 . S
O1483 C1508 1.257 . S
H1484 C1509 0.930 . S
H1485 C1515 0.930 . S
O1486 Co1475 2.093 1_554 S
O1486 C1478 1.224 . S
H1487 C1519 0.929 . S
H1488 C1521 0.930 . S
H1489 C1522 0.930 . S
H1490 C1520 0.929 1_556 S
H1491 C1523 0.928 . S
O1492 Co1476 2.057 . S
O1492 C1480 1.232 . S
H1493 C1512 0.929 . S
H1494 C1513 0.929 . S
H1495 C1525 0.931 . S
H1496 C1517 0.929 . S
H1497 C1526 0.930 . S
H1498 C1518 0.931 . S
O1499 Co1475 2.097 . S
O1499 C1527 1.214 . S
H1500 C1528 0.904 1_554 S
H1501 C1529 0.929 . S
H1502 C1530 0.930 . S
H1503 C1531 0.929 . S
H1504 C1533 0.930 . S
H1505 C1510 0.930 . S
H1506 C1514 0.930 . S
O1507 Co1476 2.037 . S
O1507 C1527 1.234 . S
C1508 O1482 1.269 . S
C1508 O1483 1.257 . S
C1509 H1484 0.930 . S
C1509 C1512 1.388 . S
C1509 C1514 1.418 . S
C1510 H1505 0.930 . S
C1510 C1513 1.404 . S
C1510 C1514 1.353 . S
N1511 Co1476 2.145 . S
N1511 C1512 1.397 . S
N1511 C1513 1.334 . S
C1512 H1493 0.929 . S
C1512 C1509 1.388 . S
C1512 N1511 1.397 . S
C1513 H1494 0.929 . S
C1513 C1510 1.404 . S
C1513 N1511 1.334 . S
C1514 H1506 0.930 . S
C1514 C1509 1.418 . S
C1514 C1510 1.353 . S
C1515 H1485 0.930 . S
C1515 N1516 1.330 . S
C1515 C1517 1.446 . S
N1516 Co1475 2.151 1_554 S
N1516 C1515 1.330 . S
N1516 C1520 1.418 . S
C1517 H1496 0.929 . S
C1517 C1515 1.446 . S
C1517 C1518 1.332 . S
C1518 H1498 0.931 . S
C1518 C1517 1.332 . S
C1518 C1519 1.267 . S
C1519 H1487 0.929 . S
C1519 C1518 1.267 . S
C1519 C1520 1.251 . S
C1520 H1490 0.929 1_554 S
C1520 N1516 1.418 . S
C1520 C1519 1.251 . S
C1521 H1488 0.930 . S
C1521 C1523 1.406 . S
C1521 C1526 1.261 1_554 S
C1522 H1489 0.930 . S
C1522 N1524 1.325 . S
C1522 C1525 1.357 . S
C1523 H1491 0.928 . S
C1523 C1521 1.406 . S
C1523 N1524 1.261 1_554 S
N1524 Co1475 2.214 . S
N1524 C1522 1.325 . S
N1524 C1523 1.261 1_556 S
C1525 H1495 0.931 . S
C1525 C1522 1.357 . S
C1525 C1526 1.312 . S
C1526 H1497 0.930 . S
C1526 C1521 1.261 1_556 S
C1526 C1525 1.312 . S
C1527 O1499 1.214 . S
C1527 O1507 1.234 . S
C1528 H1500 0.904 1_556 S
C1528 C1531 1.391 . S
C1528 C1533 1.391 . S
C1529 H1501 0.929 . S
C1529 C1530 1.390 . S
C1529 N1532 1.391 . S
C1530 H1502 0.930 . S
C1530 C1529 1.390 . S
C1530 C1531 1.392 . S
C1531 H1503 0.929 . S
C1531 C1528 1.391 . S
C1531 C1530 1.392 . S
N1532 Co1476 2.257 . S
N1532 C1529 1.391 . S
N1532 C1533 1.388 . S
C1533 H1504 0.930 . S
C1533 C1528 1.391 . S
C1533 N1532 1.388 . S
Co1534 O1536 2.143 . S
Co1534 O1542 2.074 . S
Co1534 O1545 2.093 . S
Co1534 O1558 2.097 . S
Co1534 N1575 2.151 . S
Co1534 N1583 2.214 . S
Co1535 O1536 2.160 . S
Co1535 O1541 2.058 . S
Co1535 O1551 2.057 . S
Co1535 O1566 2.037 . S
Co1535 N1570 2.145 . S
Co1535 N1591 2.257 . S
O1536 Co1534 2.143 . S
O1536 Co1535 2.160 . S
C1537 O1538 1.278 . S
C1537 O1545 1.224 . S
O1538 C1537 1.278 . S
C1539 O1540 1.245 . S
C1539 O1551 1.232 . S
O1540 C1539 1.245 . S
O1541 Co1535 2.058 . S
O1541 C1567 1.269 . S
O1542 Co1534 2.074 . S
O1542 C1567 1.257 . S
H1543 C1568 0.930 . S
H1544 C1574 0.930 . S
O1545 Co1534 2.093 . S
O1545 C1537 1.224 . S
H1546 C1578 0.929 . S
H1547 C1580 0.930 . S
H1548 C1581 0.930 . S
H1549 C1579 0.929 . S
H1550 C1582 0.928 . S
O1551 Co1535 2.057 . S
O1551 C1539 1.232 . S
H1552 C1571 0.929 . S
H1553 C1572 0.929 . S
H1554 C1584 0.931 . S
H1555 C1576 0.929 . S
H1556 C1585 0.930 1_655 S
H1557 C1577 0.931 . S
O1558 Co1534 2.097 . S
O1558 C1586 1.214 . S
H1559 C1587 0.929 . S
H1560 C1588 0.929 . S
H1561 C1589 0.930 . S
H1562 C1590 0.929 . S
H1563 C1592 0.930 . S
H1564 C1569 0.930 . S
H1565 C1573 0.930 . S
O1566 Co1535 2.037 . S
O1566 C1586 1.234 . S
C1567 O1541 1.269 . S
C1567 O1542 1.257 . S
C1568 H1543 0.930 . S
C1568 C1571 1.388 . S
C1568 C1573 1.418 . S
C1569 H1564 0.930 . S
C1569 C1572 1.404 . S
C1569 C1573 1.353 . S
N1570 Co1535 2.145 . S
N1570 C1571 1.397 . S
N1570 C1572 1.334 . S
C1571 H1552 0.929 . S
C1571 C1568 1.388 . S
C1571 N1570 1.397 . S
C1572 H1553 0.929 . S
C1572 C1569 1.404 . S
C1572 N1570 1.334 . S
C1573 H1565 0.930 . S
C1573 C1568 1.418 . S
C1573 C1569 1.353 . S
C1574 H1544 0.930 . S
C1574 N1575 1.330 . S
C1574 C1576 1.446 . S
N1575 Co1534 2.151 . S
N1575 C1574 1.330 . S
N1575 C1579 1.418 . S
C1576 H1555 0.929 . S
C1576 C1574 1.446 . S
C1576 C1577 1.332 . S
C1577 H1557 0.931 . S
C1577 C1576 1.332 . S
C1577 C1578 1.267 . S
C1578 H1546 0.929 . S
C1578 C1577 1.267 . S
C1578 C1579 1.251 . S
C1579 H1549 0.929 . S
C1579 N1575 1.418 . S
C1579 C1578 1.251 . S
C1580 H1547 0.930 . S
C1580 C1582 1.406 . S
C1580 C1585 1.261 . S
C1581 H1548 0.930 . S
C1581 N1583 1.325 . S
C1581 C1584 1.357 . S
C1582 H1550 0.928 . S
C1582 C1580 1.406 . S
C1582 N1583 1.261 . S
N1583 Co1534 2.214 . S
N1583 C1581 1.325 . S
N1583 C1582 1.261 . S
C1584 H1554 0.931 . S
C1584 C1581 1.357 . S
C1584 C1585 1.312 . S
C1585 H1556 0.930 1_455 S
C1585 C1580 1.261 . S
C1585 C1584 1.312 . S
C1586 O1558 1.214 . S
C1586 O1566 1.234 . S
C1587 H1559 0.929 . S
C1587 C1590 1.391 . S
C1587 C1592 1.391 . S
C1588 H1560 0.929 . S
C1588 C1589 1.390 . S
C1588 N1591 1.391 . S
C1589 H1561 0.930 . S
C1589 C1588 1.390 . S
C1589 C1590 1.392 . S
C1590 H1562 0.929 . S
C1590 C1587 1.391 . S
C1590 C1589 1.392 . S
N1591 Co1535 2.257 . S
N1591 C1588 1.391 . S
N1591 C1592 1.388 . S
C1592 H1563 0.930 . S
C1592 C1587 1.391 . S
C1592 N1591 1.388 . S
Co1593 O1595 2.143 . S
Co1593 O1601 2.074 . S
Co1593 O1604 2.093 . S
Co1593 O1617 2.097 . S
Co1593 N1634 2.151 . S
Co1593 N1642 2.214 . S
Co1594 O1595 2.160 . S
Co1594 O1600 2.058 . S
Co1594 O1610 2.057 . S
Co1594 O1625 2.037 . S
Co1594 N1629 2.145 . S
Co1594 N1650 2.257 . S
O1595 Co1593 2.143 . S
O1595 Co1594 2.160 . S
C1596 O1597 1.278 . S
C1596 O1604 1.224 . S
O1597 C1596 1.278 . S
C1598 O1599 1.245 . S
C1598 O1610 1.232 . S
O1599 C1598 1.245 . S
O1600 Co1594 2.058 . S
O1600 C1626 1.269 . S
O1601 Co1593 2.074 . S
O1601 C1626 1.257 . S
H1602 C1627 0.930 . S
H1603 C1633 0.930 . S
O1604 Co1593 2.093 . S
O1604 C1596 1.224 . S
H1605 C1637 0.929 . S
H1606 C1639 0.930 . S
H1607 C1640 0.930 . S
H1608 C1638 0.929 . S
H1609 C1641 0.928 . S
O1610 Co1594 2.057 . S
O1610 C1598 1.232 . S
H1611 C1630 0.929 . S
H1612 C1631 0.929 . S
H1613 C1643 0.931 . S
H1614 C1635 0.929 . S
H1615 C1644 0.930 . S
H1616 C1636 0.931 . S
O1617 Co1593 2.097 . S
O1617 C1645 1.214 . S
H1618 C1646 0.929 . S
H1619 C1647 0.929 . S
H1620 C1648 0.930 . S
H1621 C1649 0.929 . S
H1622 C1651 0.930 . S
H1623 C1628 0.930 . S
H1624 C1632 0.930 . S
O1625 Co1594 2.037 . S
O1625 C1645 1.234 . S
C1626 O1600 1.269 . S
C1626 O1601 1.257 . S
C1627 H1602 0.930 . S
C1627 C1630 1.388 . S
C1627 C1632 1.418 . S
C1628 H1623 0.930 . S
C1628 C1631 1.404 . S
C1628 C1632 1.353 . S
N1629 Co1594 2.145 . S
N1629 C1630 1.397 . S
N1629 C1631 1.334 . S
C1630 H1611 0.929 . S
C1630 C1627 1.388 . S
C1630 N1629 1.397 . S
C1631 H1612 0.929 . S
C1631 C1628 1.404 . S
C1631 N1629 1.334 . S
C1632 H1624 0.930 . S
C1632 C1627 1.418 . S
C1632 C1628 1.353 . S
C1633 H1603 0.930 . S
C1633 N1634 1.330 . S
C1633 C1635 1.446 1_655 S
N1634 Co1593 2.151 . S
N1634 C1633 1.330 . S
N1634 C1638 1.418 1_655 S
C1635 H1614 0.929 . S
C1635 C1633 1.446 1_455 S
C1635 C1636 1.332 . S
C1636 H1616 0.931 . S
C1636 C1635 1.332 . S
C1636 C1637 1.267 . S
C1637 H1605 0.929 . S
C1637 C1636 1.267 . S
C1637 C1638 1.251 . S
C1638 H1608 0.929 . S
C1638 N1634 1.418 1_455 S
C1638 C1637 1.251 . S
C1639 H1606 0.930 . S
C1639 C1641 1.406 . S
C1639 C1644 1.261 . S
C1640 H1607 0.930 . S
C1640 N1642 1.325 . S
C1640 C1643 1.357 . S
C1641 H1609 0.928 . S
C1641 C1639 1.406 . S
C1641 N1642 1.261 . S
N1642 Co1593 2.214 . S
N1642 C1640 1.325 . S
N1642 C1641 1.261 . S
C1643 H1613 0.931 . S
C1643 C1640 1.357 . S
C1643 C1644 1.312 . S
C1644 H1615 0.930 . S
C1644 C1639 1.261 . S
C1644 C1643 1.312 . S
C1645 O1617 1.214 . S
C1645 O1625 1.234 . S
C1646 H1618 0.929 . S
C1646 C1649 1.391 . S
C1646 C1651 1.391 . S
C1647 H1619 0.929 . S
C1647 C1648 1.390 . S
C1647 N1650 1.391 . S
C1648 H1620 0.930 . S
C1648 C1647 1.390 . S
C1648 C1649 1.392 . S
C1649 H1621 0.929 . S
C1649 C1646 1.391 . S
C1649 C1648 1.392 . S
N1650 Co1594 2.257 . S
N1650 C1647 1.391 . S
N1650 C1651 1.388 . S
C1651 H1622 0.930 . S
C1651 C1646 1.391 . S
C1651 N1650 1.388 . S
Co1652 O1654 2.143 . S
Co1652 O1660 2.074 . S
Co1652 O1663 2.093 . S
Co1652 O1676 2.097 . S
Co1652 N1693 2.151 . S
Co1652 N1701 2.214 . S
Co1653 O1654 2.160 . S
Co1653 O1659 2.058 . S
Co1653 O1669 2.057 . S
Co1653 O1684 2.037 . S
Co1653 N1688 2.145 . S
Co1653 N1709 2.257 . S
O1654 Co1652 2.143 . S
O1654 Co1653 2.160 . S
C1655 O1656 1.278 . S
C1655 O1663 1.224 . S
O1656 C1655 1.278 . S
C1657 O1658 1.245 . S
C1657 O1669 1.232 . S
O1658 C1657 1.245 . S
O1659 Co1653 2.058 . S
O1659 C1685 1.269 . S
O1660 Co1652 2.074 . S
O1660 C1685 1.257 . S
H1661 C1686 0.930 . S
H1662 C1692 0.930 . S
O1663 Co1652 2.093 . S
O1663 C1655 1.224 . S
H1664 C1696 0.929 . S
H1665 C1698 0.930 . S
H1666 C1699 0.930 . S
H1667 C1697 0.929 . S
H1668 C1700 0.928 . S
O1669 Co1653 2.057 . S
O1669 C1657 1.232 . S
H1670 C1689 0.929 . S
H1671 C1690 0.929 . S
H1672 C1702 0.931 . S
H1673 C1694 0.929 . S
H1674 C1703 0.930 . S
H1675 C1695 0.931 . S
O1676 Co1652 2.097 . S
O1676 C1704 1.214 . S
H1677 C1705 0.929 . S
H1678 C1706 0.929 . S
H1679 C1707 0.930 . S
H1680 C1708 0.929 . S
H1681 C1710 0.930 . S
H1682 C1687 0.930 . S
H1683 C1691 0.930 . S
O1684 Co1653 2.037 . S
O1684 C1704 1.234 . S
C1685 O1659 1.269 . S
C1685 O1660 1.257 . S
C1686 H1661 0.930 . S
C1686 C1689 1.388 . S
C1686 C1691 1.418 . S
C1687 H1682 0.930 . S
C1687 C1690 1.404 . S
C1687 C1691 1.353 . S
N1688 Co1653 2.145 . S
N1688 C1689 1.397 . S
N1688 C1690 1.334 . S
C1689 H1670 0.929 . S
C1689 C1686 1.388 . S
C1689 N1688 1.397 . S
C1690 H1671 0.929 . S
C1690 C1687 1.404 . S
C1690 N1688 1.334 . S
C1691 H1683 0.930 . S
C1691 C1686 1.418 . S
C1691 C1687 1.353 . S
C1692 H1662 0.930 . S
C1692 N1693 1.330 . S
C1692 C1694 1.446 . S
N1693 Co1652 2.151 . S
N1693 C1692 1.330 . S
N1693 C1697 1.418 . S
C1694 H1673 0.929 . S
C1694 C1692 1.446 . S
C1694 C1695 1.332 . S
C1695 H1675 0.931 . S
C1695 C1694 1.332 . S
C1695 C1696 1.267 . S
C1696 H1664 0.929 . S
C1696 C1695 1.267 . S
C1696 C1697 1.251 . S
C1697 H1667 0.929 . S
C1697 N1693 1.418 . S
C1697 C1696 1.251 . S
C1698 H1665 0.930 . S
C1698 C1700 1.406 . S
C1698 C1703 1.261 . S
C1699 H1666 0.930 . S
C1699 N1701 1.325 . S
C1699 C1702 1.357 . S
C1700 H1668 0.928 . S
C1700 C1698 1.406 . S
C1700 N1701 1.261 . S
N1701 Co1652 2.214 . S
N1701 C1699 1.325 . S
N1701 C1700 1.261 . S
C1702 H1672 0.931 . S
C1702 C1699 1.357 . S
C1702 C1703 1.312 . S
C1703 H1674 0.930 . S
C1703 C1698 1.261 . S
C1703 C1702 1.312 . S
C1704 O1676 1.214 . S
C1704 O1684 1.234 . S
C1705 H1677 0.929 . S
C1705 C1708 1.391 . S
C1705 C1710 1.391 . S
C1706 H1678 0.929 . S
C1706 C1707 1.390 . S
C1706 N1709 1.391 . S
C1707 H1679 0.930 . S
C1707 C1706 1.390 . S
C1707 C1708 1.392 . S
C1708 H1680 0.929 . S
C1708 C1705 1.391 . S
C1708 C1707 1.392 . S
N1709 Co1653 2.257 . S
N1709 C1706 1.391 . S
N1709 C1710 1.388 . S
C1710 H1681 0.930 . S
C1710 C1705 1.391 . S
C1710 N1709 1.388 . S
Co1711 O1713 2.143 . S
Co1711 O1719 2.074 . S
Co1711 O1722 2.093 1_554 S
Co1711 O1735 2.097 . S
Co1711 N1752 2.151 1_554 S
Co1711 N1760 2.214 . S
Co1712 O1713 2.160 . S
Co1712 O1718 2.058 . S
Co1712 O1728 2.057 . S
Co1712 O1743 2.037 . S
Co1712 N1747 2.145 . S
Co1712 N1768 2.257 . S
O1713 Co1711 2.143 . S
O1713 Co1712 2.160 . S
C1714 O1715 1.278 . S
C1714 O1722 1.224 . S
O1715 C1714 1.278 . S
C1716 O1717 1.245 . S
C1716 O1728 1.232 . S
O1717 C1716 1.245 . S
O1718 Co1712 2.058 . S
O1718 C1744 1.269 . S
O1719 Co1711 2.074 . S
O1719 C1744 1.257 . S
H1720 C1745 0.930 . S
H1721 C1751 0.930 . S
O1722 Co1711 2.093 1_556 S
O1722 C1714 1.224 . S
H1723 C1755 0.929 . S
H1724 C1757 0.930 . S
H1725 C1758 0.930 . S
H1726 C1756 0.929 1_554 S
H1727 C1759 0.928 . S
O1728 Co1712 2.057 . S
O1728 C1716 1.232 . S
H1729 C1748 0.929 . S
H1730 C1749 0.929 . S
H1731 C1761 0.931 . S
H1732 C1753 0.929 . S
H1733 C1762 0.930 . S
H1734 C1754 0.931 . S
O1735 Co1711 2.097 . S
O1735 C1763 1.214 . S
H1736 C1764 0.904 1_556 S
H1737 C1765 0.929 . S
H1738 C1766 0.930 . S
H1739 C1767 0.929 . S
H1740 C1769 0.930 . S
H1741 C1746 0.930 . S
H1742 C1750 0.930 . S
O1743 Co1712 2.037 . S
O1743 C1763 1.234 . S
C1744 O1718 1.269 . S
C1744 O1719 1.257 . S
C1745 H1720 0.930 . S
C1745 C1748 1.388 . S
C1745 C1750 1.418 . S
C1746 H1741 0.930 . S
C1746 C1749 1.404 . S
C1746 C1750 1.353 . S
N1747 Co1712 2.145 . S
N1747 C1748 1.397 . S
N1747 C1749 1.334 . S
C1748 H1729 0.929 . S
C1748 C1745 1.388 . S
C1748 N1747 1.397 . S
C1749 H1730 0.929 . S
C1749 C1746 1.404 . S
C1749 N1747 1.334 . S
C1750 H1742 0.930 . S
C1750 C1745 1.418 . S
C1750 C1746 1.353 . S
C1751 H1721 0.930 . S
C1751 N1752 1.330 . S
C1751 C1753 1.446 1_655 S
N1752 Co1711 2.151 1_556 S
N1752 C1751 1.330 . S
N1752 C1756 1.418 1_655 S
C1753 H1732 0.929 . S
C1753 C1751 1.446 1_455 S
C1753 C1754 1.332 . S
C1754 H1734 0.931 . S
C1754 C1753 1.332 . S
C1754 C1755 1.267 . S
C1755 H1723 0.929 . S
C1755 C1754 1.267 . S
C1755 C1756 1.251 . S
C1756 H1726 0.929 1_556 S
C1756 N1752 1.418 1_455 S
C1756 C1755 1.251 . S
C1757 H1724 0.930 . S
C1757 C1759 1.406 . S
C1757 C1762 1.261 1_556 S
C1758 H1725 0.930 . S
C1758 N1760 1.325 . S
C1758 C1761 1.357 . S
C1759 H1727 0.928 . S
C1759 C1757 1.406 . S
C1759 N1760 1.261 1_556 S
N1760 Co1711 2.214 . S
N1760 C1758 1.325 . S
N1760 C1759 1.261 1_554 S
C1761 H1731 0.931 . S
C1761 C1758 1.357 . S
C1761 C1762 1.312 . S
C1762 H1733 0.930 . S
C1762 C1757 1.261 1_554 S
C1762 C1761 1.312 . S
C1763 O1735 1.214 . S
C1763 O1743 1.234 . S
C1764 H1736 0.904 1_554 S
C1764 C1767 1.391 . S
C1764 C1769 1.391 . S
C1765 H1737 0.929 . S
C1765 C1766 1.390 . S
C1765 N1768 1.391 . S
C1766 H1738 0.930 . S
C1766 C1765 1.390 . S
C1766 C1767 1.392 . S
C1767 H1739 0.929 . S
C1767 C1764 1.391 . S
C1767 C1766 1.392 . S
N1768 Co1712 2.257 . S
N1768 C1765 1.391 . S
N1768 C1769 1.388 . S
C1769 H1740 0.930 . S
C1769 C1764 1.391 . S
C1769 N1768 1.388 . S
Co1770 O1772 2.143 . S
Co1770 O1778 2.074 . S
Co1770 O1781 2.093 . S
Co1770 O1794 2.097 . S
Co1770 N1811 2.151 . S
Co1770 N1819 2.214 . S
Co1771 O1772 2.160 . S
Co1771 O1777 2.058 . S
Co1771 O1787 2.057 . S
Co1771 O1802 2.037 . S
Co1771 N1806 2.145 . S
Co1771 N1827 2.257 . S
O1772 Co1770 2.143 . S
O1772 Co1771 2.160 . S
C1773 O1774 1.278 . S
C1773 O1781 1.224 . S
O1774 C1773 1.278 . S
C1775 O1776 1.245 . S
C1775 O1787 1.232 . S
O1776 C1775 1.245 . S
O1777 Co1771 2.058 . S
O1777 C1803 1.269 . S
O1778 Co1770 2.074 . S
O1778 C1803 1.257 . S
H1779 C1804 0.930 . S
H1780 C1810 0.930 . S
O1781 Co1770 2.093 . S
O1781 C1773 1.224 . S
H1782 C1814 0.929 . S
H1783 C1816 0.930 . S
H1784 C1817 0.930 . S
H1785 C1815 0.929 . S
H1786 C1818 0.928 . S
O1787 Co1771 2.057 . S
O1787 C1775 1.232 . S
H1788 C1807 0.929 . S
H1789 C1808 0.929 . S
H1790 C1820 0.931 . S
H1791 C1812 0.929 . S
H1792 C1821 0.930 1_655 S
H1793 C1813 0.931 . S
O1794 Co1770 2.097 . S
O1794 C1822 1.214 . S
H1795 C1823 0.929 . S
H1796 C1824 0.929 . S
H1797 C1825 0.930 . S
H1798 C1826 0.929 . S
H1799 C1828 0.930 . S
H1800 C1805 0.930 . S
H1801 C1809 0.930 . S
O1802 Co1771 2.037 . S
O1802 C1822 1.234 . S
C1803 O1777 1.269 . S
C1803 O1778 1.257 . S
C1804 H1779 0.930 . S
C1804 C1807 1.388 . S
C1804 C1809 1.418 . S
C1805 H1800 0.930 . S
C1805 C1808 1.404 . S
C1805 C1809 1.353 . S
N1806 Co1771 2.145 . S
N1806 C1807 1.397 . S
N1806 C1808 1.334 . S
C1807 H1788 0.929 . S
C1807 C1804 1.388 . S
C1807 N1806 1.397 . S
C1808 H1789 0.929 . S
C1808 C1805 1.404 . S
C1808 N1806 1.334 . S
C1809 H1801 0.930 . S
C1809 C1804 1.418 . S
C1809 C1805 1.353 . S
C1810 H1780 0.930 . S
C1810 N1811 1.330 . S
C1810 C1812 1.446 . S
N1811 Co1770 2.151 . S
N1811 C1810 1.330 . S
N1811 C1815 1.418 . S
C1812 H1791 0.929 . S
C1812 C1810 1.446 . S
C1812 C1813 1.332 . S
C1813 H1793 0.931 . S
C1813 C1812 1.332 . S
C1813 C1814 1.267 . S
C1814 H1782 0.929 . S
C1814 C1813 1.267 . S
C1814 C1815 1.251 . S
C1815 H1785 0.929 . S
C1815 N1811 1.418 . S
C1815 C1814 1.251 . S
C1816 H1783 0.930 . S
C1816 C1818 1.406 . S
C1816 C1821 1.261 . S
C1817 H1784 0.930 . S
C1817 N1819 1.325 . S
C1817 C1820 1.357 . S
C1818 H1786 0.928 . S
C1818 C1816 1.406 . S
C1818 N1819 1.261 . S
N1819 Co1770 2.214 . S
N1819 C1817 1.325 . S
N1819 C1818 1.261 . S
C1820 H1790 0.931 . S
C1820 C1817 1.357 . S
C1820 C1821 1.312 . S
C1821 H1792 0.930 1_455 S
C1821 C1816 1.261 . S
C1821 C1820 1.312 . S
C1822 O1794 1.214 . S
C1822 O1802 1.234 . S
C1823 H1795 0.929 . S
C1823 C1826 1.391 . S
C1823 C1828 1.391 . S
C1824 H1796 0.929 . S
C1824 C1825 1.390 . S
C1824 N1827 1.391 . S
C1825 H1797 0.930 . S
C1825 C1824 1.390 . S
C1825 C1826 1.392 . S
C1826 H1798 0.929 . S
C1826 C1823 1.391 . S
C1826 C1825 1.392 . S
N1827 Co1771 2.257 . S
N1827 C1824 1.391 . S
N1827 C1828 1.388 . S
C1828 H1799 0.930 . S
C1828 C1823 1.391 . S
C1828 N1827 1.388 . S
Co1829 O1831 2.143 . S
Co1829 O1837 2.074 . S
Co1829 O1840 2.093 . S
Co1829 O1853 2.097 . S
Co1829 N1870 2.151 . S
Co1829 N1878 2.214 . S
Co1830 O1831 2.160 . S
Co1830 O1836 2.058 . S
Co1830 O1846 2.057 . S
Co1830 O1861 2.037 . S
Co1830 N1865 2.145 . S
Co1830 N1886 2.257 . S
O1831 Co1829 2.143 . S
O1831 Co1830 2.160 . S
C1832 O1833 1.278 . S
C1832 O1840 1.224 . S
O1833 C1832 1.278 . S
C1834 O1835 1.245 . S
C1834 O1846 1.232 . S
O1835 C1834 1.245 . S
O1836 Co1830 2.058 . S
O1836 C1862 1.269 . S
O1837 Co1829 2.074 . S
O1837 C1862 1.257 . S
H1838 C1863 0.930 . S
H1839 C1869 0.930 . S
O1840 Co1829 2.093 . S
O1840 C1832 1.224 . S
H1841 C1873 0.929 . S
H1842 C1875 0.930 . S
H1843 C1876 0.930 . S
H1844 C1874 0.929 . S
H1845 C1877 0.928 . S
O1846 Co1830 2.057 . S
O1846 C1834 1.232 . S
H1847 C1866 0.929 . S
H1848 C1867 0.929 . S
H1849 C1879 0.931 . S
H1850 C1871 0.929 . S
H1851 C1880 0.930 . S
H1852 C1872 0.931 . S
O1853 Co1829 2.097 . S
O1853 C1881 1.214 . S
H1854 C1882 0.929 . S
H1855 C1883 0.929 . S
H1856 C1884 0.930 . S
H1857 C1885 0.929 . S
H1858 C1887 0.930 . S
H1859 C1864 0.930 . S
H1860 C1868 0.930 . S
O1861 Co1830 2.037 . S
O1861 C1881 1.234 . S
C1862 O1836 1.269 . S
C1862 O1837 1.257 . S
C1863 H1838 0.930 . S
C1863 C1866 1.388 . S
C1863 C1868 1.418 . S
C1864 H1859 0.930 . S
C1864 C1867 1.404 . S
C1864 C1868 1.353 . S
N1865 Co1830 2.145 . S
N1865 C1866 1.397 . S
N1865 C1867 1.334 . S
C1866 H1847 0.929 . S
C1866 C1863 1.388 . S
C1866 N1865 1.397 . S
C1867 H1848 0.929 . S
C1867 C1864 1.404 . S
C1867 N1865 1.334 . S
C1868 H1860 0.930 . S
C1868 C1863 1.418 . S
C1868 C1864 1.353 . S
C1869 H1839 0.930 . S
C1869 N1870 1.330 . S
C1869 C1871 1.446 . S
N1870 Co1829 2.151 . S
N1870 C1869 1.330 . S
N1870 C1874 1.418 . S
C1871 H1850 0.929 . S
C1871 C1869 1.446 . S
C1871 C1872 1.332 . S
C1872 H1852 0.931 . S
C1872 C1871 1.332 . S
C1872 C1873 1.267 . S
C1873 H1841 0.929 . S
C1873 C1872 1.267 . S
C1873 C1874 1.251 . S
C1874 H1844 0.929 . S
C1874 N1870 1.418 . S
C1874 C1873 1.251 . S
C1875 H1842 0.930 . S
C1875 C1877 1.406 . S
C1875 C1880 1.261 . S
C1876 H1843 0.930 . S
C1876 N1878 1.325 . S
C1876 C1879 1.357 . S
C1877 H1845 0.928 . S
C1877 C1875 1.406 . S
C1877 N1878 1.261 . S
N1878 Co1829 2.214 . S
N1878 C1876 1.325 . S
N1878 C1877 1.261 . S
C1879 H1849 0.931 . S
C1879 C1876 1.357 . S
C1879 C1880 1.312 . S
C1880 H1851 0.930 . S
C1880 C1875 1.261 . S
C1880 C1879 1.312 . S
C1881 O1853 1.214 . S
C1881 O1861 1.234 . S
C1882 H1854 0.929 . S
C1882 C1885 1.391 . S
C1882 C1887 1.391 . S
C1883 H1855 0.929 . S
C1883 C1884 1.390 . S
C1883 N1886 1.391 . S
C1884 H1856 0.930 . S
C1884 C1883 1.390 . S
C1884 C1885 1.392 . S
C1885 H1857 0.929 . S
C1885 C1882 1.391 . S
C1885 C1884 1.392 . S
N1886 Co1830 2.257 . S
N1886 C1883 1.391 . S
N1886 C1887 1.388 . S
C1887 H1858 0.930 . S
C1887 C1882 1.391 . S
C1887 N1886 1.388 . S
H1888 C1894 0.930 . S
H1889 C1897 0.930 . S
H1890 C1898 0.930 . S
H1891 C1899 0.930 . S
H1892 C1902 0.930 . S
H1893 C1903 0.930 . S
C1894 H1888 0.930 . S
C1894 C1895 1.355 . S
C1894 C1896 1.415 . S
C1895 C1894 1.355 . S
C1895 C1897 1.419 . S
C1896 C1894 1.415 . S
C1896 C1901 1.425 . S
C1896 C1903 1.409 . S
C1897 H1889 0.930 . S
C1897 C1895 1.419 . S
C1897 C1898 1.362 . S
C1898 H1890 0.930 . S
C1898 C1897 1.362 . S
C1898 C1901 1.409 . S
C1899 H1891 0.930 . S
C1899 C1900 1.355 . S
C1899 C1901 1.415 . S
C1900 C1899 1.355 . S
C1900 C1902 1.419 . S
C1901 C1896 1.425 . S
C1901 C1898 1.409 . S
C1901 C1899 1.415 . S
C1902 H1892 0.930 . S
C1902 C1900 1.419 . S
C1902 C1903 1.362 . S
C1903 H1893 0.930 . S
C1903 C1896 1.409 . S
C1903 C1902 1.362 . S
H1904 C1910 0.930 . S
H1905 C1913 0.930 . S
H1906 C1914 0.930 . S
H1907 C1915 0.930 . S
H1908 C1918 0.930 . S
H1909 C1919 0.930 . S
C1910 H1904 0.930 . S
C1910 C1911 1.355 . S
C1910 C1912 1.415 . S
C1911 C1910 1.355 . S
C1911 C1913 1.419 . S
C1912 C1910 1.415 . S
C1912 C1917 1.425 . S
C1912 C1919 1.409 . S
C1913 H1905 0.930 . S
C1913 C1911 1.419 . S
C1913 C1914 1.362 . S
C1914 H1906 0.930 . S
C1914 C1913 1.362 . S
C1914 C1917 1.409 . S
C1915 H1907 0.930 . S
C1915 C1916 1.355 . S
C1915 C1917 1.415 . S
C1916 C1915 1.355 . S
C1916 C1918 1.419 . S
C1917 C1912 1.425 . S
C1917 C1914 1.409 . S
C1917 C1915 1.415 . S
C1918 H1908 0.930 . S
C1918 C1916 1.419 . S
C1918 C1919 1.362 . S
C1919 H1909 0.930 . S
C1919 C1912 1.409 . S
C1919 C1918 1.362 . S
H1920 C1926 0.930 . S
H1921 C1929 0.930 . S
H1922 C1930 0.930 . S
H1923 C1931 0.930 . S
H1924 C1934 0.930 . S
H1925 C1935 0.930 . S
C1926 H1920 0.930 . S
C1926 C1927 1.355 . S
C1926 C1928 1.415 . S
C1927 C1926 1.355 . S
C1927 C1929 1.419 . S
C1928 C1926 1.415 . S
C1928 C1933 1.425 . S
C1928 C1935 1.409 . S
C1929 H1921 0.930 . S
C1929 C1927 1.419 . S
C1929 C1930 1.362 . S
C1930 H1922 0.930 . S
C1930 C1929 1.362 . S
C1930 C1933 1.409 . S
C1931 H1923 0.930 . S
C1931 C1932 1.355 . S
C1931 C1933 1.415 . S
C1932 C1931 1.355 . S
C1932 C1934 1.419 . S
C1933 C1928 1.425 . S
C1933 C1930 1.409 . S
C1933 C1931 1.415 . S
C1934 H1924 0.930 . S
C1934 C1932 1.419 . S
C1934 C1935 1.362 . S
C1935 H1925 0.930 . S
C1935 C1928 1.409 . S
C1935 C1934 1.362 . S
H1936 C1942 0.930 . S
H1937 C1945 0.930 . S
H1938 C1946 0.930 . S
H1939 C1947 0.930 . S
H1940 C1950 0.930 . S
H1941 C1951 0.930 . S
C1942 H1936 0.930 . S
C1942 C1943 1.355 . S
C1942 C1944 1.415 . S
C1943 C1942 1.355 . S
C1943 C1945 1.419 . S
C1944 C1942 1.415 . S
C1944 C1949 1.425 . S
C1944 C1951 1.409 . S
C1945 H1937 0.930 . S
C1945 C1943 1.419 . S
C1945 C1946 1.362 . S
C1946 H1938 0.930 . S
C1946 C1945 1.362 . S
C1946 C1949 1.409 . S
C1947 H1939 0.930 . S
C1947 C1948 1.355 . S
C1947 C1949 1.415 . S
C1948 C1947 1.355 . S
C1948 C1950 1.419 . S
C1949 C1944 1.425 . S
C1949 C1946 1.409 . S
C1949 C1947 1.415 . S
C1950 H1940 0.930 . S
C1950 C1948 1.419 . S
C1950 C1951 1.362 . S
C1951 H1941 0.930 . S
C1951 C1944 1.409 . S
C1951 C1950 1.362 . S
H1952 C1958 0.930 . S
H1953 C1961 0.930 . S
H1954 C1962 0.930 . S
H1955 C1963 0.930 . S
H1956 C1966 0.930 . S
H1957 C1967 0.930 . S
C1958 H1952 0.930 . S
C1958 C1959 1.355 . S
C1958 C1960 1.415 . S
C1959 C1958 1.355 . S
C1959 C1961 1.419 . S
C1960 C1958 1.415 . S
C1960 C1965 1.425 . S
C1960 C1967 1.409 . S
C1961 H1953 0.930 . S
C1961 C1959 1.419 . S
C1961 C1962 1.362 . S
C1962 H1954 0.930 . S
C1962 C1961 1.362 . S
C1962 C1965 1.409 . S
C1963 H1955 0.930 . S
C1963 C1964 1.355 . S
C1963 C1965 1.415 . S
C1964 C1963 1.355 . S
C1964 C1966 1.419 . S
C1965 C1960 1.425 . S
C1965 C1962 1.409 . S
C1965 C1963 1.415 . S
C1966 H1956 0.930 . S
C1966 C1964 1.419 . S
C1966 C1967 1.362 . S
C1967 H1957 0.930 . S
C1967 C1960 1.409 . S
C1967 C1966 1.362 . S
H1968 C1974 0.930 . S
H1969 C1977 0.930 . S
H1970 C1978 0.930 . S
H1971 C1979 0.930 . S
H1972 C1982 0.930 . S
H1973 C1983 0.930 . S
C1974 H1968 0.930 . S
C1974 C1975 1.355 . S
C1974 C1976 1.415 . S
C1975 C1974 1.355 . S
C1975 C1977 1.419 . S
C1976 C1974 1.415 . S
C1976 C1981 1.425 . S
C1976 C1983 1.409 . S
C1977 H1969 0.930 . S
C1977 C1975 1.419 . S
C1977 C1978 1.362 . S
C1978 H1970 0.930 . S
C1978 C1977 1.362 . S
C1978 C1981 1.409 . S
C1979 H1971 0.930 . S
C1979 C1980 1.355 . S
C1979 C1981 1.415 . S
C1980 C1979 1.355 . S
C1980 C1982 1.419 . S
C1981 C1976 1.425 . S
C1981 C1978 1.409 . S
C1981 C1979 1.415 . S
C1982 H1972 0.930 . S
C1982 C1980 1.419 . S
C1982 C1983 1.362 . S
C1983 H1973 0.930 . S
C1983 C1976 1.409 . S
C1983 C1982 1.362 . S
H1984 C1990 0.930 . S
H1985 C1993 0.930 . S
H1986 C1994 0.930 . S
H1987 C1995 0.930 . S
H1988 C1998 0.930 . S
H1989 C1999 0.930 . S
C1990 H1984 0.930 . S
C1990 C1991 1.355 . S
C1990 C1992 1.415 . S
C1991 C1990 1.355 . S
C1991 C1993 1.419 . S
C1992 C1990 1.415 . S
C1992 C1997 1.425 . S
C1992 C1999 1.409 . S
C1993 H1985 0.930 . S
C1993 C1991 1.419 . S
C1993 C1994 1.362 . S
C1994 H1986 0.930 . S
C1994 C1993 1.362 . S
C1994 C1997 1.409 . S
C1995 H1987 0.930 . S
C1995 C1996 1.355 . S
C1995 C1997 1.415 . S
C1996 C1995 1.355 . S
C1996 C1998 1.419 . S
C1997 C1992 1.425 . S
C1997 C1994 1.409 . S
C1997 C1995 1.415 . S
C1998 H1988 0.930 . S
C1998 C1996 1.419 . S
C1998 C1999 1.362 . S
C1999 H1989 0.930 . S
C1999 C1992 1.409 . S
C1999 C1998 1.362 . S
H2000 C2006 0.930 . S
H2001 C2009 0.930 . S
H2002 C2010 0.930 . S
H2003 C2011 0.954 . S
H2004 C2014 0.930 . S
H2005 C2015 0.930 . S
C2006 H2000 0.930 . S
C2006 C2007 1.355 . S
C2006 C2008 1.415 . S
C2007 C2006 1.355 . S
C2007 C2009 1.419 . S
C2008 C2006 1.415 . S
C2008 C2013 1.425 . S
C2008 C2015 1.409 . S
C2009 H2001 0.930 . S
C2009 C2007 1.419 . S
C2009 C2010 1.362 . S
C2010 H2002 0.930 . S
C2010 C2009 1.362 . S
C2010 C2013 1.409 . S
C2011 H2003 0.954 . S
C2011 C2012 1.355 . S
C2011 C2013 1.415 . S
C2012 C2011 1.355 . S
C2012 C2014 1.419 . S
C2013 C2008 1.425 . S
C2013 C2010 1.409 . S
C2013 C2011 1.415 . S
C2014 H2004 0.930 . S
C2014 C2012 1.419 . S
C2014 C2015 1.362 . S
C2015 H2005 0.930 . S
C2015 C2008 1.409 . S
C2015 C2014 1.362 . S
H2016 C2022 0.930 . S
H2017 C2025 0.930 . S
H2018 C2026 0.930 . S
H2019 C2027 0.930 . S
H2020 C2030 0.930 . S
H2021 C2031 0.930 . S
C2022 H2016 0.930 . S
C2022 C2023 1.355 . S
C2022 C2024 1.415 . S
C2023 C2022 1.355 . S
C2023 C2025 1.419 . S
C2024 C2022 1.415 . S
C2024 C2029 1.425 . S
C2024 C2031 1.409 . S
C2025 H2017 0.930 . S
C2025 C2023 1.419 . S
C2025 C2026 1.362 . S
C2026 H2018 0.930 . S
C2026 C2025 1.362 . S
C2026 C2029 1.409 . S
C2027 H2019 0.930 . S
C2027 C2028 1.355 . S
C2027 C2029 1.415 . S
C2028 C2027 1.355 . S
C2028 C2030 1.419 . S
C2029 C2024 1.425 . S
C2029 C2026 1.409 . S
C2029 C2027 1.415 . S
C2030 H2020 0.930 . S
C2030 C2028 1.419 . S
C2030 C2031 1.362 . S
C2031 H2021 0.930 . S
C2031 C2024 1.409 . S
C2031 C2030 1.362 . S
H2032 C2038 0.965 . S
H2033 C2041 0.930 . S
H2034 C2042 0.930 . S
H2035 C2043 0.930 . S
H2036 C2046 0.930 . S
H2037 C2047 0.930 . S
C2038 H2032 0.965 . S
C2038 C2039 1.355 . S
C2038 C2040 1.415 . S
C2039 C2038 1.355 . S
C2039 C2041 1.419 . S
C2040 C2038 1.415 . S
C2040 C2045 1.425 . S
C2040 C2047 1.409 . S
C2041 H2033 0.930 . S
C2041 C2039 1.419 . S
C2041 C2042 1.362 . S
C2042 H2034 0.930 . S
C2042 C2041 1.362 . S
C2042 C2045 1.409 . S
C2043 H2035 0.930 . S
C2043 C2044 1.355 . S
C2043 C2045 1.415 . S
C2044 C2043 1.355 . S
C2044 C2046 1.419 . S
C2045 C2040 1.425 . S
C2045 C2042 1.409 . S
C2045 C2043 1.415 . S
C2046 H2036 0.930 . S
C2046 C2044 1.419 . S
C2046 C2047 1.362 . S
C2047 H2037 0.930 . S
C2047 C2040 1.409 . S
C2047 C2046 1.362 . S
H2048 C2054 0.930 . S
H2049 C2057 0.930 . S
H2050 C2058 0.930 . S
H2051 C2059 0.930 . S
H2052 C2062 0.930 . S
H2053 C2063 0.930 . S
C2054 H2048 0.930 . S
C2054 C2055 1.355 . S
C2054 C2056 1.415 . S
C2055 C2054 1.355 . S
C2055 C2057 1.419 . S
C2056 C2054 1.415 . S
C2056 C2061 1.425 . S
C2056 C2063 1.409 . S
C2057 H2049 0.930 . S
C2057 C2055 1.419 . S
C2057 C2058 1.362 . S
C2058 H2050 0.930 . S
C2058 C2057 1.362 . S
C2058 C2061 1.409 . S
C2059 H2051 0.930 . S
C2059 C2060 1.355 . S
C2059 C2061 1.415 . S
C2060 C2059 1.355 . S
C2060 C2062 1.419 . S
C2061 C2056 1.425 . S
C2061 C2058 1.409 . S
C2061 C2059 1.415 . S
C2062 H2052 0.930 . S
C2062 C2060 1.419 . S
C2062 C2063 1.362 . S
C2063 H2053 0.930 . S
C2063 C2056 1.409 . S
C2063 C2062 1.362 . S
H2064 C2070 0.930 . S
H2065 C2073 0.930 . S
H2066 C2074 0.930 . S
H2067 C2075 0.930 . S
H2068 C2078 0.930 . S
H2069 C2079 0.930 . S
C2070 H2064 0.930 . S
C2070 C2071 1.355 . S
C2070 C2072 1.415 . S
C2071 C2070 1.355 . S
C2071 C2073 1.419 . S
C2072 C2070 1.415 . S
C2072 C2077 1.425 . S
C2072 C2079 1.409 . S
C2073 H2065 0.930 . S
C2073 C2071 1.419 . S
C2073 C2074 1.362 . S
C2074 H2066 0.930 . S
C2074 C2073 1.362 . S
C2074 C2077 1.409 . S
C2075 H2067 0.930 . S
C2075 C2076 1.355 . S
C2075 C2077 1.415 . S
C2076 C2075 1.355 . S
C2076 C2078 1.419 . S
C2077 C2072 1.425 . S
C2077 C2074 1.409 . S
C2077 C2075 1.415 . S
C2078 H2068 0.930 . S
C2078 C2076 1.419 . S
C2078 C2079 1.362 . S
C2079 H2069 0.930 . S
C2079 C2072 1.409 . S
C2079 C2078 1.362 . S
H2080 C2086 0.930 . S
H2081 C2089 0.930 . S
H2082 C2090 0.930 . S
H2083 C2091 0.930 . S
H2084 C2094 0.930 . S
H2085 C2095 0.930 . S
C2086 H2080 0.930 . S
C2086 C2087 1.355 . S
C2086 C2088 1.415 . S
C2087 C2086 1.355 . S
C2087 C2089 1.419 . S
C2088 C2086 1.415 . S
C2088 C2093 1.425 . S
C2088 C2095 1.409 . S
C2089 H2081 0.930 . S
C2089 C2087 1.419 . S
C2089 C2090 1.362 . S
C2090 H2082 0.930 . S
C2090 C2089 1.362 . S
C2090 C2093 1.409 . S
C2091 H2083 0.930 . S
C2091 C2092 1.355 . S
C2091 C2093 1.415 . S
C2092 C2091 1.355 . S
C2092 C2094 1.419 . S
C2093 C2088 1.425 . S
C2093 C2090 1.409 . S
C2093 C2091 1.415 . S
C2094 H2084 0.930 . S
C2094 C2092 1.419 . S
C2094 C2095 1.362 . S
C2095 H2085 0.930 . S
C2095 C2088 1.409 . S
C2095 C2094 1.362 . S
H2096 C2102 0.930 . S
H2097 C2105 0.930 . S
H2098 C2106 0.930 . S
H2099 C2107 0.930 . S
H2100 C2110 0.930 . S
H2101 C2111 0.930 . S
C2102 H2096 0.930 . S
C2102 C2103 1.355 . S
C2102 C2104 1.415 . S
C2103 C2102 1.355 . S
C2103 C2105 1.419 . S
C2104 C2102 1.415 . S
C2104 C2109 1.425 . S
C2104 C2111 1.409 . S
C2105 H2097 0.930 . S
C2105 C2103 1.419 . S
C2105 C2106 1.362 . S
C2106 H2098 0.930 . S
C2106 C2105 1.362 . S
C2106 C2109 1.409 . S
C2107 H2099 0.930 . S
C2107 C2108 1.355 . S
C2107 C2109 1.415 . S
C2108 C2107 1.355 . S
C2108 C2110 1.419 . S
C2109 C2104 1.425 . S
C2109 C2106 1.409 . S
C2109 C2107 1.415 . S
C2110 H2100 0.930 . S
C2110 C2108 1.419 . S
C2110 C2111 1.362 . S
C2111 H2101 0.930 . S
C2111 C2104 1.409 . S
C2111 C2110 1.362 . S
H2112 C2118 0.930 . S
H2113 C2121 0.930 . S
H2114 C2122 0.930 . S
H2115 C2123 0.930 . S
H2116 C2126 0.930 . S
H2117 C2127 0.930 . S
C2118 H2112 0.930 . S
C2118 C2119 1.355 . S
C2118 C2120 1.415 . S
C2119 C2118 1.355 . S
C2119 C2121 1.419 . S
C2120 C2118 1.415 . S
C2120 C2125 1.425 . S
C2120 C2127 1.409 . S
C2121 H2113 0.930 . S
C2121 C2119 1.419 . S
C2121 C2122 1.362 . S
C2122 H2114 0.930 . S
C2122 C2121 1.362 . S
C2122 C2125 1.409 . S
C2123 H2115 0.930 . S
C2123 C2124 1.355 . S
C2123 C2125 1.415 . S
C2124 C2123 1.355 . S
C2124 C2126 1.419 . S
C2125 C2120 1.425 . S
C2125 C2122 1.409 . S
C2125 C2123 1.415 . S
C2126 H2116 0.930 . S
C2126 C2124 1.419 . S
C2126 C2127 1.362 . S
C2127 H2117 0.930 . S
C2127 C2120 1.409 . S
C2127 C2126 1.362 . S
H2128 C2134 0.930 . S
H2129 C2137 0.930 . S
H2130 C2138 0.930 . S
H2131 C2139 0.930 . S
H2132 C2142 0.930 1_455 S
H2133 C2143 0.930 . S
C2134 H2128 0.930 . S
C2134 C2135 1.355 . S
C2134 C2136 1.415 . S
C2135 C2134 1.355 . S
C2135 C2137 1.419 . S
C2136 C2134 1.415 . S
C2136 C2141 1.425 . S
C2136 C2143 1.409 . S
C2137 H2129 0.930 . S
C2137 C2135 1.419 . S
C2137 C2138 1.362 . S
C2138 H2130 0.930 . S
C2138 C2137 1.362 . S
C2138 C2141 1.409 . S
C2139 H2131 0.930 . S
C2139 C2140 1.355 . S
C2139 C2141 1.415 . S
C2140 C2139 1.355 . S
C2140 C2142 1.419 . S
C2141 C2136 1.425 . S
C2141 C2138 1.409 . S
C2141 C2139 1.415 . S
C2142 H2132 0.930 1_655 S
C2142 C2140 1.419 . S
C2142 C2143 1.362 . S
C2143 H2133 0.930 . S
C2143 C2136 1.409 . S
C2143 C2142 1.362 . S
H2144 C2150 0.930 . S
H2145 C2153 0.930 . S
H2146 C2154 0.930 . S
H2147 C2155 0.930 . S
H2148 C2158 0.930 . S
H2149 C2159 0.930 . S
C2150 H2144 0.930 . S
C2150 C2151 1.355 . S
C2150 C2152 1.415 . S
C2151 C2150 1.355 . S
C2151 C2153 1.419 . S
C2152 C2150 1.415 . S
C2152 C2157 1.425 . S
C2152 C2159 1.409 . S
C2153 H2145 0.930 . S
C2153 C2151 1.419 . S
C2153 C2154 1.362 . S
C2154 H2146 0.930 . S
C2154 C2153 1.362 . S
C2154 C2157 1.409 . S
C2155 H2147 0.930 . S
C2155 C2156 1.355 . S
C2155 C2157 1.415 . S
C2156 C2155 1.355 . S
C2156 C2158 1.419 . S
C2157 C2152 1.425 . S
C2157 C2154 1.409 . S
C2157 C2155 1.415 . S
C2158 H2148 0.930 . S
C2158 C2156 1.419 . S
C2158 C2159 1.362 . S
C2159 H2149 0.930 . S
C2159 C2152 1.409 . S
C2159 C2158 1.362 . S
H2160 C2166 0.930 . S
H2161 C2169 0.930 . S
H2162 C2170 0.930 . S
H2163 C2171 0.930 . S
H2164 C2174 0.930 . S
H2165 C2175 0.930 . S
C2166 H2160 0.930 . S
C2166 C2167 1.355 . S
C2166 C2168 1.415 . S
C2167 C2166 1.355 . S
C2167 C2169 1.419 . S
C2168 C2166 1.415 . S
C2168 C2173 1.425 . S
C2168 C2175 1.409 . S
C2169 H2161 0.930 . S
C2169 C2167 1.419 . S
C2169 C2170 1.362 . S
C2170 H2162 0.930 . S
C2170 C2169 1.362 . S
C2170 C2173 1.409 . S
C2171 H2163 0.930 . S
C2171 C2172 1.355 . S
C2171 C2173 1.415 . S
C2172 C2171 1.355 . S
C2172 C2174 1.419 . S
C2173 C2168 1.425 . S
C2173 C2170 1.409 . S
C2173 C2171 1.415 . S
C2174 H2164 0.930 . S
C2174 C2172 1.419 . S
C2174 C2175 1.362 . S
C2175 H2165 0.930 . S
C2175 C2168 1.409 . S
C2175 C2174 1.362 . S
H2176 C2182 0.930 . S
H2177 C2185 0.930 . S
H2178 C2186 0.930 . S
H2179 C2187 0.930 . S
H2180 C2190 0.930 . S
H2181 C2191 0.930 . S
C2182 H2176 0.930 . S
C2182 C2183 1.355 . S
C2182 C2184 1.415 . S
C2183 C2182 1.355 . S
C2183 C2185 1.419 . S
C2184 C2182 1.415 . S
C2184 C2189 1.425 . S
C2184 C2191 1.409 . S
C2185 H2177 0.930 . S
C2185 C2183 1.419 . S
C2185 C2186 1.362 . S
C2186 H2178 0.930 . S
C2186 C2185 1.362 . S
C2186 C2189 1.409 . S
C2187 H2179 0.930 . S
C2187 C2188 1.355 . S
C2187 C2189 1.415 . S
C2188 C2187 1.355 . S
C2188 C2190 1.419 . S
C2189 C2184 1.425 . S
C2189 C2186 1.409 . S
C2189 C2187 1.415 . S
C2190 H2180 0.930 . S
C2190 C2188 1.419 . S
C2190 C2191 1.362 . S
C2191 H2181 0.930 . S
C2191 C2184 1.409 . S
C2191 C2190 1.362 . S
H2192 C2198 0.930 . S
H2193 C2201 0.930 . S
H2194 C2202 0.930 . S
H2195 C2203 0.930 . S
H2196 C2206 0.912 1_455 S
H2197 C2207 0.930 . S
C2198 H2192 0.930 . S
C2198 C2199 1.355 . S
C2198 C2200 1.415 . S
C2199 C2198 1.355 . S
C2199 C2201 1.419 . S
C2200 C2198 1.415 . S
C2200 C2205 1.425 . S
C2200 C2207 1.409 . S
C2201 H2193 0.930 . S
C2201 C2199 1.419 . S
C2201 C2202 1.362 . S
C2202 H2194 0.930 . S
C2202 C2201 1.362 . S
C2202 C2205 1.409 . S
C2203 H2195 0.930 . S
C2203 C2204 1.355 . S
C2203 C2205 1.415 . S
C2204 C2203 1.355 . S
C2204 C2206 1.419 . S
C2205 C2200 1.425 . S
C2205 C2202 1.409 . S
C2205 C2203 1.415 . S
C2206 H2196 0.912 1_655 S
C2206 C2204 1.419 . S
C2206 C2207 1.362 . S
C2207 H2197 0.930 . S
C2207 C2200 1.409 . S
C2207 C2206 1.362 . S
H2208 C2214 0.930 . S
H2209 C2217 0.930 . S
H2210 C2218 0.930 . S
H2211 C2219 0.930 . S
H2212 C2222 0.930 . S
H2213 C2223 0.930 . S
C2214 H2208 0.930 . S
C2214 C2215 1.355 . S
C2214 C2216 1.415 . S
C2215 C2214 1.355 . S
C2215 C2217 1.419 . S
C2216 C2214 1.415 . S
C2216 C2221 1.425 . S
C2216 C2223 1.409 . S
C2217 H2209 0.930 . S
C2217 C2215 1.419 . S
C2217 C2218 1.362 . S
C2218 H2210 0.930 . S
C2218 C2217 1.362 . S
C2218 C2221 1.409 . S
C2219 H2211 0.930 . S
C2219 C2220 1.355 . S
C2219 C2221 1.415 . S
C2220 C2219 1.355 . S
C2220 C2222 1.419 . S
C2221 C2216 1.425 . S
C2221 C2218 1.409 . S
C2221 C2219 1.415 . S
C2222 H2212 0.930 . S
C2222 C2220 1.419 . S
C2222 C2223 1.362 . S
C2223 H2213 0.930 . S
C2223 C2216 1.409 . S
C2223 C2222 1.362 . S
H2224 C2230 0.930 . S
H2225 C2233 0.930 . S
H2226 C2234 0.930 . S
H2227 C2235 0.930 . S
H2228 C2238 0.930 . S
H2229 C2239 0.930 . S
C2230 H2224 0.930 . S
C2230 C2231 1.355 . S
C2230 C2232 1.415 . S
C2231 C2230 1.355 . S
C2231 C2233 1.419 . S
C2232 C2230 1.415 . S
C2232 C2237 1.425 . S
C2232 C2239 1.409 . S
C2233 H2225 0.930 . S
C2233 C2231 1.419 . S
C2233 C2234 1.362 . S
C2234 H2226 0.930 . S
C2234 C2233 1.362 . S
C2234 C2237 1.409 . S
C2235 H2227 0.930 . S
C2235 C2236 1.355 . S
C2235 C2237 1.415 . S
C2236 C2235 1.355 . S
C2236 C2238 1.419 . S
C2237 C2232 1.425 . S
C2237 C2234 1.409 . S
C2237 C2235 1.415 . S
C2238 H2228 0.930 . S
C2238 C2236 1.419 . S
C2238 C2239 1.362 . S
C2239 H2229 0.930 . S
C2239 C2232 1.409 . S
C2239 C2238 1.362 . S
H2240 C2246 0.930 . S
H2241 C2249 0.930 . S
H2242 C2250 0.930 . S
H2243 C2251 0.930 . S
H2244 C2254 0.930 . S
H2245 C2255 0.930 . S
C2246 H2240 0.930 . S
C2246 C2247 1.355 . S
C2246 C2248 1.415 . S
C2247 C2246 1.355 . S
C2247 C2249 1.419 . S
C2248 C2246 1.415 . S
C2248 C2253 1.425 . S
C2248 C2255 1.409 . S
C2249 H2241 0.930 . S
C2249 C2247 1.419 . S
C2249 C2250 1.362 . S
C2250 H2242 0.930 . S
C2250 C2249 1.362 . S
C2250 C2253 1.409 . S
C2251 H2243 0.930 . S
C2251 C2252 1.355 . S
C2251 C2253 1.415 . S
C2252 C2251 1.355 . S
C2252 C2254 1.419 . S
C2253 C2248 1.425 . S
C2253 C2250 1.409 . S
C2253 C2251 1.415 . S
C2254 H2244 0.930 . S
C2254 C2252 1.419 . S
C2254 C2255 1.362 . S
C2255 H2245 0.930 . S
C2255 C2248 1.409 . S
C2255 C2254 1.362 . S
H2256 C2262 0.930 . S
H2257 C2265 0.930 . S
H2258 C2266 0.930 . S
H2259 C2267 0.930 . S
H2260 C2270 0.930 . S
H2261 C2271 0.930 . S
C2262 H2256 0.930 . S
C2262 C2263 1.355 . S
C2262 C2264 1.415 . S
C2263 C2262 1.355 . S
C2263 C2265 1.419 . S
C2264 C2262 1.415 . S
C2264 C2269 1.425 . S
C2264 C2271 1.409 . S
C2265 H2257 0.930 . S
C2265 C2263 1.419 . S
C2265 C2266 1.362 . S
C2266 H2258 0.930 . S
C2266 C2265 1.362 . S
C2266 C2269 1.409 . S
C2267 H2259 0.930 . S
C2267 C2268 1.355 . S
C2267 C2269 1.415 . S
C2268 C2267 1.355 . S
C2268 C2270 1.419 . S
C2269 C2264 1.425 . S
C2269 C2266 1.409 . S
C2269 C2267 1.415 . S
C2270 H2260 0.930 . S
C2270 C2268 1.419 . S
C2270 C2271 1.362 . S
C2271 H2261 0.930 . S
C2271 C2264 1.409 . S
C2271 C2270 1.362 . S
H2272 C2278 0.930 . S
H2273 C2281 0.930 . S
H2274 C2282 0.930 . S
H2275 C2283 0.930 . S
H2276 C2286 0.930 . S
H2277 C2287 0.930 . S
C2278 H2272 0.930 . S
C2278 C2279 1.355 . S
C2278 C2280 1.415 . S
C2279 C2278 1.355 . S
C2279 C2281 1.419 . S
C2280 C2278 1.415 . S
C2280 C2285 1.425 . S
C2280 C2287 1.409 . S
C2281 H2273 0.930 . S
C2281 C2279 1.419 . S
C2281 C2282 1.362 . S
C2282 H2274 0.930 . S
C2282 C2281 1.362 . S
C2282 C2285 1.409 . S
C2283 H2275 0.930 . S
C2283 C2284 1.355 . S
C2283 C2285 1.415 . S
C2284 C2283 1.355 . S
C2284 C2286 1.419 . S
C2285 C2280 1.425 . S
C2285 C2282 1.409 . S
C2285 C2283 1.415 . S
C2286 H2276 0.930 . S
C2286 C2284 1.419 . S
C2286 C2287 1.362 . S
C2287 H2277 0.930 . S
C2287 C2280 1.409 . S
C2287 C2286 1.362 . S
H2288 C2294 0.930 . S
H2289 C2297 0.930 . S
H2290 C2298 0.930 . S
H2291 C2299 0.930 . S
H2292 C2302 0.930 . S
H2293 C2303 0.930 . S
C2294 H2288 0.930 . S
C2294 C2295 1.355 . S
C2294 C2296 1.415 . S
C2295 C2294 1.355 . S
C2295 C2297 1.419 . S
C2296 C2294 1.415 . S
C2296 C2301 1.425 . S
C2296 C2303 1.409 . S
C2297 H2289 0.930 . S
C2297 C2295 1.419 . S
C2297 C2298 1.362 . S
C2298 H2290 0.930 . S
C2298 C2297 1.362 . S
C2298 C2301 1.409 . S
C2299 H2291 0.930 . S
C2299 C2300 1.355 . S
C2299 C2301 1.415 . S
C2300 C2299 1.355 . S
C2300 C2302 1.419 . S
C2301 C2296 1.425 . S
C2301 C2298 1.409 . S
C2301 C2299 1.415 . S
C2302 H2292 0.930 . S
C2302 C2300 1.419 . S
C2302 C2303 1.362 . S
C2303 H2293 0.930 . S
C2303 C2296 1.409 . S
C2303 C2302 1.362 . S
H2304 C2310 0.930 . S
H2305 C2313 0.930 . S
H2306 C2314 0.930 . S
H2307 C2315 0.930 . S
H2308 C2318 0.930 . S
H2309 C2319 0.930 . S
C2310 H2304 0.930 . S
C2310 C2311 1.355 . S
C2310 C2312 1.415 . S
C2311 C2310 1.355 . S
C2311 C2313 1.419 . S
C2312 C2310 1.415 . S
C2312 C2317 1.425 . S
C2312 C2319 1.409 . S
C2313 H2305 0.930 . S
C2313 C2311 1.419 . S
C2313 C2314 1.362 . S
C2314 H2306 0.930 . S
C2314 C2313 1.362 . S
C2314 C2317 1.409 . S
C2315 H2307 0.930 . S
C2315 C2316 1.355 . S
C2315 C2317 1.415 . S
C2316 C2315 1.355 . S
C2316 C2318 1.419 . S
C2317 C2312 1.425 . S
C2317 C2314 1.409 . S
C2317 C2315 1.415 . S
C2318 H2308 0.930 . S
C2318 C2316 1.419 . S
C2318 C2319 1.362 . S
C2319 H2309 0.930 . S
C2319 C2312 1.409 . S
C2319 C2318 1.362 . S
H2320 C2326 0.930 . S
H2321 C2329 0.964 . S
H2322 C2330 0.930 . S
H2323 C2331 0.930 . S
H2324 C2334 0.930 . S
H2325 C2335 0.930 . S
C2326 H2320 0.930 . S
C2326 C2327 1.355 . S
C2326 C2328 1.415 . S
C2327 C2326 1.355 . S
C2327 C2329 1.419 . S
C2328 C2326 1.415 . S
C2328 C2333 1.425 . S
C2328 C2335 1.409 . S
C2329 H2321 0.964 . S
C2329 C2327 1.419 . S
C2329 C2330 1.362 . S
C2330 H2322 0.930 . S
C2330 C2329 1.362 . S
C2330 C2333 1.409 . S
C2331 H2323 0.930 . S
C2331 C2332 1.355 . S
C2331 C2333 1.415 . S
C2332 C2331 1.355 . S
C2332 C2334 1.419 . S
C2333 C2328 1.425 . S
C2333 C2330 1.409 . S
C2333 C2331 1.415 . S
C2334 H2324 0.930 . S
C2334 C2332 1.419 . S
C2334 C2335 1.362 . S
C2335 H2325 0.930 . S
C2335 C2328 1.409 . S
C2335 C2334 1.362 . S
H2336 C2342 0.930 . S
H2337 C2345 0.930 . S
H2338 C2346 0.930 . S
H2339 C2347 0.930 . S
H2340 C2350 0.930 . S
H2341 C2351 0.930 . S
C2342 H2336 0.930 . S
C2342 C2343 1.355 . S
C2342 C2344 1.415 . S
C2343 C2342 1.355 . S
C2343 C2345 1.419 . S
C2344 C2342 1.415 . S
C2344 C2349 1.425 . S
C2344 C2351 1.409 . S
C2345 H2337 0.930 . S
C2345 C2343 1.419 . S
C2345 C2346 1.362 . S
C2346 H2338 0.930 . S
C2346 C2345 1.362 . S
C2346 C2349 1.409 . S
C2347 H2339 0.930 . S
C2347 C2348 1.355 . S
C2347 C2349 1.415 . S
C2348 C2347 1.355 . S
C2348 C2350 1.419 . S
C2349 C2344 1.425 . S
C2349 C2346 1.409 . S
C2349 C2347 1.415 . S
C2350 H2340 0.930 . S
C2350 C2348 1.419 . S
C2350 C2351 1.362 . S
C2351 H2341 0.930 . S
C2351 C2344 1.409 . S
C2351 C2350 1.362 . S
H2352 C2358 0.930 . S
H2353 C2361 0.930 1_655 S
H2354 C2362 0.930 . S
H2355 C2363 0.930 . S
H2356 C2366 0.930 . S
H2357 C2367 0.930 . S
C2358 H2352 0.930 . S
C2358 C2359 1.355 . S
C2358 C2360 1.415 . S
C2359 C2358 1.355 . S
C2359 C2361 1.419 . S
C2360 C2358 1.415 . S
C2360 C2365 1.425 . S
C2360 C2367 1.409 . S
C2361 H2353 0.930 1_455 S
C2361 C2359 1.419 . S
C2361 C2362 1.362 . S
C2362 H2354 0.930 . S
C2362 C2361 1.362 . S
C2362 C2365 1.409 . S
C2363 H2355 0.930 . S
C2363 C2364 1.355 . S
C2363 C2365 1.415 . S
C2364 C2363 1.355 . S
C2364 C2366 1.419 . S
C2365 C2360 1.425 . S
C2365 C2362 1.409 . S
C2365 C2363 1.415 . S
C2366 H2356 0.930 . S
C2366 C2364 1.419 . S
C2366 C2367 1.362 . S
C2367 H2357 0.930 . S
C2367 C2360 1.409 . S
C2367 C2366 1.362 . S
H2368 C2374 0.930 . S
H2369 C2377 0.930 . S
H2370 C2378 0.930 . S
H2371 C2379 0.930 . S
H2372 C2382 0.930 . S
H2373 C2383 0.930 . S
C2374 H2368 0.930 . S
C2374 C2375 1.355 . S
C2374 C2376 1.415 . S
C2375 C2374 1.355 . S
C2375 C2377 1.419 . S
C2376 C2374 1.415 . S
C2376 C2381 1.425 . S
C2376 C2383 1.409 . S
C2377 H2369 0.930 . S
C2377 C2375 1.419 . S
C2377 C2378 1.362 . S
C2378 H2370 0.930 . S
C2378 C2377 1.362 . S
C2378 C2381 1.409 . S
C2379 H2371 0.930 . S
C2379 C2380 1.355 . S
C2379 C2381 1.415 . S
C2380 C2379 1.355 . S
C2380 C2382 1.419 . S
C2381 C2376 1.425 . S
C2381 C2378 1.409 . S
C2381 C2379 1.415 . S
C2382 H2372 0.930 . S
C2382 C2380 1.419 . S
C2382 C2383 1.362 . S
C2383 H2373 0.930 . S
C2383 C2376 1.409 . S
C2383 C2382 1.362 . S
H2384 C2390 0.930 . S
H2385 C2393 0.930 . S
H2386 C2394 0.930 . S
H2387 C2395 0.930 . S
H2388 C2398 0.930 . S
H2389 C2399 0.930 . S
C2390 H2384 0.930 . S
C2390 C2391 1.355 . S
C2390 C2392 1.415 . S
C2391 C2390 1.355 . S
C2391 C2393 1.419 . S
C2392 C2390 1.415 . S
C2392 C2397 1.425 . S
C2392 C2399 1.409 . S
C2393 H2385 0.930 . S
C2393 C2391 1.419 . S
C2393 C2394 1.362 . S
C2394 H2386 0.930 . S
C2394 C2393 1.362 . S
C2394 C2397 1.409 . S
C2395 H2387 0.930 . S
C2395 C2396 1.355 . S
C2395 C2397 1.415 . S
C2396 C2395 1.355 . S
C2396 C2398 1.419 . S
C2397 C2392 1.425 . S
C2397 C2394 1.409 . S
C2397 C2395 1.415 . S
C2398 H2388 0.930 . S
C2398 C2396 1.419 . S
C2398 C2399 1.362 . S
C2399 H2389 0.930 . S
C2399 C2392 1.409 . S
C2399 C2398 1.362 . S
H2400 C2406 0.930 . S
H2401 C2409 0.930 . S
H2402 C2410 0.930 . S
H2403 C2411 0.930 . S
H2404 C2414 0.930 . S
H2405 C2415 0.930 . S
C2406 H2400 0.930 . S
C2406 C2407 1.355 . S
C2406 C2408 1.415 . S
C2407 C2406 1.355 . S
C2407 C2409 1.419 . S
C2408 C2406 1.415 . S
C2408 C2413 1.425 . S
C2408 C2415 1.409 . S
C2409 H2401 0.930 . S
C2409 C2407 1.419 . S
C2409 C2410 1.362 . S
C2410 H2402 0.930 . S
C2410 C2409 1.362 . S
C2410 C2413 1.409 . S
C2411 H2403 0.930 . S
C2411 C2412 1.355 . S
C2411 C2413 1.415 . S
C2412 C2411 1.355 . S
C2412 C2414 1.419 . S
C2413 C2408 1.425 . S
C2413 C2410 1.409 . S
C2413 C2411 1.415 . S
C2414 H2404 0.930 . S
C2414 C2412 1.419 . S
C2414 C2415 1.362 . S
C2415 H2405 0.930 . S
C2415 C2408 1.409 . S
C2415 C2414 1.362 . S
H2416 C2422 0.930 . S
H2417 C2425 0.930 . S
H2418 C2426 0.930 . S
H2419 C2427 0.930 . S
H2420 C2430 0.930 . S
H2421 C2431 0.930 . S
C2422 H2416 0.930 . S
C2422 C2423 1.355 . S
C2422 C2424 1.415 1_565 S
C2423 C2422 1.355 . S
C2423 C2425 1.419 1_655 S
C2424 C2422 1.415 1_545 S
C2424 C2429 1.425 1_645 S
C2424 C2431 1.409 . S
C2425 H2417 0.930 . S
C2425 C2423 1.419 1_455 S
C2425 C2426 1.362 . S
C2426 H2418 0.930 . S
C2426 C2425 1.362 . S
C2426 C2429 1.409 . S
C2427 H2419 0.930 . S
C2427 C2428 1.355 . S
C2427 C2429 1.415 1_545 S
C2428 C2427 1.355 . S
C2428 C2430 1.419 1_455 S
C2429 C2424 1.425 1_465 S
C2429 C2426 1.409 . S
C2429 C2427 1.415 1_565 S
C2430 H2420 0.930 . S
C2430 C2428 1.419 1_655 S
C2430 C2431 1.362 . S
C2431 H2421 0.930 . S
C2431 C2424 1.409 . S
C2431 C2430 1.362 . S
H2432 C2438 0.930 . S
H2433 C2441 0.930 . S
H2434 C2442 0.930 . S
H2435 C2443 0.930 . S
H2436 C2446 0.930 . S
H2437 C2447 0.930 . S
C2438 H2432 0.930 . S
C2438 C2439 1.355 . S
C2438 C2440 1.415 . S
C2439 C2438 1.355 . S
C2439 C2441 1.419 . S
C2440 C2438 1.415 . S
C2440 C2445 1.425 . S
C2440 C2447 1.409 . S
C2441 H2433 0.930 . S
C2441 C2439 1.419 . S
C2441 C2442 1.362 . S
C2442 H2434 0.930 . S
C2442 C2441 1.362 . S
C2442 C2445 1.409 . S
C2443 H2435 0.930 . S
C2443 C2444 1.355 . S
C2443 C2445 1.415 . S
C2444 C2443 1.355 . S
C2444 C2446 1.419 . S
C2445 C2440 1.425 . S
C2445 C2442 1.409 . S
C2445 C2443 1.415 . S
C2446 H2436 0.930 . S
C2446 C2444 1.419 . S
C2446 C2447 1.362 . S
C2447 H2437 0.930 . S
C2447 C2440 1.409 . S
C2447 C2446 1.362 . S
H2448 C2454 0.942 . S
H2449 C2457 0.930 . S
H2450 C2458 0.930 . S
H2451 C2459 0.942 . S
H2452 C2462 0.930 . S
H2453 C2463 0.930 . S
C2454 H2448 0.942 . S
C2454 C2455 1.338 1_556 S
C2454 C2456 1.412 1_545 S
C2455 C2454 1.338 1_554 S
C2455 C2457 1.419 . S
C2456 C2454 1.412 1_565 S
C2456 C2461 1.425 1_566 S
C2456 C2463 1.417 . S
C2457 H2449 0.930 . S
C2457 C2455 1.419 . S
C2457 C2458 1.362 . S
C2458 H2450 0.930 . S
C2458 C2457 1.362 . S
C2458 C2461 1.417 . S
C2459 H2451 0.942 . S
C2459 C2460 1.338 1_554 S
C2459 C2461 1.412 1_565 S
C2460 C2459 1.338 1_556 S
C2460 C2462 1.419 . S
C2461 C2456 1.425 1_544 S
C2461 C2458 1.417 . S
C2461 C2459 1.412 1_545 S
C2462 H2452 0.930 . S
C2462 C2460 1.419 . S
C2462 C2463 1.362 . S
C2463 H2453 0.930 . S
C2463 C2456 1.417 . S
C2463 C2462 1.362 . S
H2464 C2470 0.930 . S
H2465 C2473 0.930 . S
H2466 C2474 0.930 . S
H2467 C2475 0.930 . S
H2468 C2478 0.930 . S
H2469 C2479 0.930 . S
C2470 H2464 0.930 . S
C2470 C2471 1.355 . S
C2470 C2472 1.415 . S
C2471 C2470 1.355 . S
C2471 C2473 1.419 . S
C2472 C2470 1.415 . S
C2472 C2477 1.425 . S
C2472 C2479 1.409 . S
C2473 H2465 0.930 . S
C2473 C2471 1.419 . S
C2473 C2474 1.362 . S
C2474 H2466 0.930 . S
C2474 C2473 1.362 . S
C2474 C2477 1.409 . S
C2475 H2467 0.930 . S
C2475 C2476 1.355 . S
C2475 C2477 1.415 . S
C2476 C2475 1.355 . S
C2476 C2478 1.419 . S
C2477 C2472 1.425 . S
C2477 C2474 1.409 . S
C2477 C2475 1.415 . S
C2478 H2468 0.930 . S
C2478 C2476 1.419 . S
C2478 C2479 1.362 . S
C2479 H2469 0.930 . S
C2479 C2472 1.409 . S
C2479 C2478 1.362 . S
H2480 C2486 0.930 . S
H2481 C2489 0.930 . S
H2482 C2490 0.930 . S
H2483 C2491 0.930 . S
H2484 C2494 0.930 . S
H2485 C2495 0.930 . S
C2486 H2480 0.930 . S
C2486 C2487 1.355 . S
C2486 C2488 1.415 . S
C2487 C2486 1.355 . S
C2487 C2489 1.419 . S
C2488 C2486 1.415 . S
C2488 C2493 1.425 1_565 S
C2488 C2495 1.409 . S
C2489 H2481 0.930 . S
C2489 C2487 1.419 . S
C2489 C2490 1.362 1_565 S
C2490 H2482 0.930 . S
C2490 C2489 1.362 1_545 S
C2490 C2493 1.409 . S
C2491 H2483 0.930 . S
C2491 C2492 1.355 . S
C2491 C2493 1.415 . S
C2492 C2491 1.355 . S
C2492 C2494 1.419 . S
C2493 C2488 1.425 1_545 S
C2493 C2490 1.409 . S
C2493 C2491 1.415 . S
C2494 H2484 0.930 . S
C2494 C2492 1.419 . S
C2494 C2495 1.362 1_545 S
C2495 H2485 0.930 . S
C2495 C2488 1.409 . S
C2495 C2494 1.362 1_565 S
H2496 C2502 0.930 . S
H2497 C2505 0.930 . S
H2498 C2506 0.930 . S
H2499 C2507 0.930 . S
H2500 C2510 0.930 . S
H2501 C2511 0.930 . S
C2502 H2496 0.930 . S
C2502 C2503 1.355 . S
C2502 C2504 1.415 . S
C2503 C2502 1.355 . S
C2503 C2505 1.419 . S
C2504 C2502 1.415 . S
C2504 C2509 1.425 . S
C2504 C2511 1.409 . S
C2505 H2497 0.930 . S
C2505 C2503 1.419 . S
C2505 C2506 1.362 . S
C2506 H2498 0.930 . S
C2506 C2505 1.362 . S
C2506 C2509 1.409 . S
C2507 H2499 0.930 . S
C2507 C2508 1.355 . S
C2507 C2509 1.415 . S
C2508 C2507 1.355 . S
C2508 C2510 1.419 . S
C2509 C2504 1.425 . S
C2509 C2506 1.409 . S
C2509 C2507 1.415 . S
C2510 H2500 0.930 . S
C2510 C2508 1.419 . S
C2510 C2511 1.362 . S
C2511 H2501 0.930 . S
C2511 C2504 1.409 . S
C2511 C2510 1.362 . S
H2512 C2518 0.930 . S
H2513 C2521 0.930 . S
H2514 C2522 0.930 . S
H2515 C2523 0.930 . S
H2516 C2526 0.930 . S
H2517 C2527 0.930 . S
C2518 H2512 0.930 . S
C2518 C2519 1.355 1_554 S
C2518 C2520 1.415 . S
C2519 C2518 1.355 1_556 S
C2519 C2521 1.419 . S
C2520 C2518 1.415 . S
C2520 C2525 1.425 1_644 S
C2520 C2527 1.409 1_545 S
C2521 H2513 0.930 . S
C2521 C2519 1.419 . S
C2521 C2522 1.362 1_655 S
C2522 H2514 0.930 . S
C2522 C2521 1.362 1_455 S
C2522 C2525 1.409 1_545 S
C2523 H2515 0.930 . S
C2523 C2524 1.355 1_556 S
C2523 C2525 1.415 . S
C2524 C2523 1.355 1_554 S
C2524 C2526 1.419 . S
C2525 C2520 1.425 1_466 S
C2525 C2522 1.409 1_565 S
C2525 C2523 1.415 . S
C2526 H2516 0.930 . S
C2526 C2524 1.419 . S
C2526 C2527 1.362 1_455 S
C2527 H2517 0.930 . S
C2527 C2520 1.409 1_565 S
C2527 C2526 1.362 1_655 S
H2528 C2534 0.930 . S
H2529 C2537 0.930 . S
H2530 C2538 0.930 . S
H2531 C2539 0.930 . S
H2532 C2542 0.930 . S
H2533 C2543 0.930 . S
C2534 H2528 0.930 . S
C2534 C2535 1.355 . S
C2534 C2536 1.415 . S
C2535 C2534 1.355 . S
C2535 C2537 1.419 . S
C2536 C2534 1.415 . S
C2536 C2541 1.425 . S
C2536 C2543 1.409 . S
C2537 H2529 0.930 . S
C2537 C2535 1.419 . S
C2537 C2538 1.362 . S
C2538 H2530 0.930 . S
C2538 C2537 1.362 . S
C2538 C2541 1.409 . S
C2539 H2531 0.930 . S
C2539 C2540 1.355 . S
C2539 C2541 1.415 . S
C2540 C2539 1.355 . S
C2540 C2542 1.419 . S
C2541 C2536 1.425 . S
C2541 C2538 1.409 . S
C2541 C2539 1.415 . S
C2542 H2532 0.930 . S
C2542 C2540 1.419 . S
C2542 C2543 1.362 . S
C2543 H2533 0.930 . S
C2543 C2536 1.409 . S
C2543 C2542 1.362 . S
H2544 C2550 0.930 . S
H2545 C2553 0.930 . S
H2546 C2554 0.930 . S
H2547 C2555 0.930 . S
H2548 C2558 0.930 . S
H2549 C2559 0.930 . S
C2550 H2544 0.930 . S
C2550 C2551 1.355 . S
C2550 C2552 1.415 . S
C2551 C2550 1.355 . S
C2551 C2553 1.419 . S
C2552 C2550 1.415 . S
C2552 C2557 1.425 . S
C2552 C2559 1.409 . S
C2553 H2545 0.930 . S
C2553 C2551 1.419 . S
C2553 C2554 1.362 . S
C2554 H2546 0.930 . S
C2554 C2553 1.362 . S
C2554 C2557 1.409 . S
C2555 H2547 0.930 . S
C2555 C2556 1.355 . S
C2555 C2557 1.415 . S
C2556 C2555 1.355 . S
C2556 C2558 1.419 . S
C2557 C2552 1.425 . S
C2557 C2554 1.409 . S
C2557 C2555 1.415 . S
C2558 H2548 0.930 . S
C2558 C2556 1.419 . S
C2558 C2559 1.362 . S
C2559 H2549 0.930 . S
C2559 C2552 1.409 . S
C2559 C2558 1.362 . S
H2560 C2566 0.930 . S
H2561 C2569 0.930 . S
H2562 C2570 0.930 . S
H2563 C2571 0.930 . S
H2564 C2574 0.930 . S
H2565 C2575 0.930 . S
C2566 H2560 0.930 . S
C2566 C2567 1.355 . S
C2566 C2568 1.415 . S
C2567 C2566 1.355 . S
C2567 C2569 1.419 . S
C2568 C2566 1.415 . S
C2568 C2573 1.425 . S
C2568 C2575 1.409 . S
C2569 H2561 0.930 . S
C2569 C2567 1.419 . S
C2569 C2570 1.362 . S
C2570 H2562 0.930 . S
C2570 C2569 1.362 . S
C2570 C2573 1.409 . S
C2571 H2563 0.930 . S
C2571 C2572 1.355 . S
C2571 C2573 1.415 . S
C2572 C2571 1.355 . S
C2572 C2574 1.419 . S
C2573 C2568 1.425 . S
C2573 C2570 1.409 . S
C2573 C2571 1.415 . S
C2574 H2564 0.930 . S
C2574 C2572 1.419 . S
C2574 C2575 1.362 . S
C2575 H2565 0.930 . S
C2575 C2568 1.409 . S
C2575 C2574 1.362 . S
H2576 C2582 0.930 . S
H2577 C2585 0.930 . S
H2578 C2586 0.930 . S
H2579 C2587 0.930 . S
H2580 C2590 0.930 . S
H2581 C2591 0.930 . S
C2582 H2576 0.930 . S
C2582 C2583 1.355 . S
C2582 C2584 1.415 . S
C2583 C2582 1.355 . S
C2583 C2585 1.419 . S
C2584 C2582 1.415 . S
C2584 C2589 1.425 . S
C2584 C2591 1.409 . S
C2585 H2577 0.930 . S
C2585 C2583 1.419 . S
C2585 C2586 1.362 . S
C2586 H2578 0.930 . S
C2586 C2585 1.362 . S
C2586 C2589 1.409 . S
C2587 H2579 0.930 . S
C2587 C2588 1.355 . S
C2587 C2589 1.415 . S
C2588 C2587 1.355 . S
C2588 C2590 1.419 . S
C2589 C2584 1.425 . S
C2589 C2586 1.409 . S
C2589 C2587 1.415 . S
C2590 H2580 0.930 . S
C2590 C2588 1.419 . S
C2590 C2591 1.362 . S
C2591 H2581 0.930 . S
C2591 C2584 1.409 . S
C2591 C2590 1.362 . S
H2592 C2598 0.930 . S
H2593 C2601 0.930 . S
H2594 C2602 0.930 . S
H2595 C2603 0.930 . S
H2596 C2606 0.930 . S
H2597 C2607 0.930 . S
C2598 H2592 0.930 . S
C2598 C2599 1.355 . S
C2598 C2600 1.415 . S
C2599 C2598 1.355 . S
C2599 C2601 1.419 . S
C2600 C2598 1.415 . S
C2600 C2605 1.425 1_554 S
C2600 C2607 1.409 . S
C2601 H2593 0.930 . S
C2601 C2599 1.419 . S
C2601 C2602 1.362 1_554 S
C2602 H2594 0.930 . S
C2602 C2601 1.362 1_556 S
C2602 C2605 1.409 . S
C2603 H2595 0.930 . S
C2603 C2604 1.355 . S
C2603 C2605 1.415 . S
C2604 C2603 1.355 . S
C2604 C2606 1.419 . S
C2605 C2600 1.425 1_556 S
C2605 C2602 1.409 . S
C2605 C2603 1.415 . S
C2606 H2596 0.930 . S
C2606 C2604 1.419 . S
C2606 C2607 1.362 1_556 S
C2607 H2597 0.930 . S
C2607 C2600 1.409 . S
C2607 C2606 1.362 1_554 S
H2608 C2614 0.930 1_455 S
H2609 C2617 0.930 . S
H2610 C2618 0.930 . S
H2611 C2619 0.930 1_655 S
H2612 C2622 0.930 . S
H2613 C2623 0.930 . S
C2614 H2608 0.930 1_655 S
C2614 C2615 1.355 . S
C2614 C2616 1.415 1_655 S
C2615 C2614 1.355 . S
C2615 C2617 1.419 . S
C2616 C2614 1.415 1_455 S
C2616 C2621 1.425 1_455 S
C2616 C2623 1.409 . S
C2617 H2609 0.930 . S
C2617 C2615 1.419 . S
C2617 C2618 1.362 . S
C2618 H2610 0.930 . S
C2618 C2617 1.362 . S
C2618 C2621 1.409 . S
C2619 H2611 0.930 1_455 S
C2619 C2620 1.355 . S
C2619 C2621 1.415 1_455 S
C2620 C2619 1.355 . S
C2620 C2622 1.419 . S
C2621 C2616 1.425 1_655 S
C2621 C2618 1.409 . S
C2621 C2619 1.415 1_655 S
C2622 H2612 0.930 . S
C2622 C2620 1.419 . S
C2622 C2623 1.362 . S
C2623 H2613 0.930 . S
C2623 C2616 1.409 . S
C2623 C2622 1.362 . S
H2624 C2630 0.930 1_655 S
H2625 C2633 0.930 . S
H2626 C2634 0.930 . S
H2627 C2635 0.930 1_455 S
H2628 C2638 0.930 . S
H2629 C2639 0.930 . S
C2630 H2624 0.930 1_455 S
C2630 C2631 1.355 . S
C2630 C2632 1.415 1_456 S
C2631 C2630 1.355 . S
C2631 C2633 1.419 . S
C2632 C2630 1.415 1_654 S
C2632 C2637 1.425 1_654 S
C2632 C2639 1.409 . S
C2633 H2625 0.930 . S
C2633 C2631 1.419 . S
C2633 C2634 1.362 . S
C2634 H2626 0.930 . S
C2634 C2633 1.362 . S
C2634 C2637 1.409 . S
C2635 H2627 0.930 1_655 S
C2635 C2636 1.355 . S
C2635 C2637 1.415 1_654 S
C2636 C2635 1.355 . S
C2636 C2638 1.419 . S
C2637 C2632 1.425 1_456 S
C2637 C2634 1.409 . S
C2637 C2635 1.415 1_456 S
C2638 H2628 0.930 . S
C2638 C2636 1.419 . S
C2638 C2639 1.362 . S
C2639 H2629 0.930 . S
C2639 C2632 1.409 . S
C2639 C2638 1.362 . S
H2640 C2646 0.930 . S
H2641 C2649 0.930 . S
H2642 C2650 0.930 . S
H2643 C2651 0.930 . S
H2644 C2654 0.930 . S
H2645 C2655 0.930 . S
C2646 H2640 0.930 . S
C2646 C2647 1.355 . S
C2646 C2648 1.415 . S
C2647 C2646 1.355 . S
C2647 C2649 1.419 . S
C2648 C2646 1.415 . S
C2648 C2653 1.425 . S
C2648 C2655 1.409 . S
C2649 H2641 0.930 . S
C2649 C2647 1.419 . S
C2649 C2650 1.362 . S
C2650 H2642 0.930 . S
C2650 C2649 1.362 . S
C2650 C2653 1.409 . S
C2651 H2643 0.930 . S
C2651 C2652 1.355 . S
C2651 C2653 1.415 . S
C2652 C2651 1.355 . S
C2652 C2654 1.419 . S
C2653 C2648 1.425 . S
C2653 C2650 1.409 . S
C2653 C2651 1.415 . S
C2654 H2644 0.930 . S
C2654 C2652 1.419 . S
C2654 C2655 1.362 . S
C2655 H2645 0.930 . S
C2655 C2648 1.409 . S
C2655 C2654 1.362 . S
H2656 C2662 0.930 . S
H2657 C2665 0.930 . S
H2658 C2666 0.930 . S
H2659 C2667 0.930 . S
H2660 C2670 0.930 . S
H2661 C2671 0.930 . S
C2662 H2656 0.930 . S
C2662 C2663 1.355 . S
C2662 C2664 1.415 . S
C2663 C2662 1.355 . S
C2663 C2665 1.419 . S
C2664 C2662 1.415 . S
C2664 C2669 1.425 . S
C2664 C2671 1.409 . S
C2665 H2657 0.930 . S
C2665 C2663 1.419 . S
C2665 C2666 1.362 . S
C2666 H2658 0.930 . S
C2666 C2665 1.362 . S
C2666 C2669 1.409 . S
C2667 H2659 0.930 . S
C2667 C2668 1.355 . S
C2667 C2669 1.415 . S
C2668 C2667 1.355 . S
C2668 C2670 1.419 . S
C2669 C2664 1.425 . S
C2669 C2666 1.409 . S
C2669 C2667 1.415 . S
C2670 H2660 0.930 . S
C2670 C2668 1.419 . S
C2670 C2671 1.362 . S
C2671 H2661 0.930 . S
C2671 C2664 1.409 . S
C2671 C2670 1.362 . S
H2672 C2678 0.930 . S
H2673 C2681 0.930 . S
H2674 C2682 0.930 . S
H2675 C2683 0.930 . S
H2676 C2686 0.930 . S
H2677 C2687 0.930 . S
C2678 H2672 0.930 . S
C2678 C2679 1.355 . S
C2678 C2680 1.415 . S
C2679 C2678 1.355 . S
C2679 C2681 1.419 . S
C2680 C2678 1.415 . S
C2680 C2685 1.425 . S
C2680 C2687 1.409 . S
C2681 H2673 0.930 . S
C2681 C2679 1.419 . S
C2681 C2682 1.362 . S
C2682 H2674 0.930 . S
C2682 C2681 1.362 . S
C2682 C2685 1.409 . S
C2683 H2675 0.930 . S
C2683 C2684 1.355 . S
C2683 C2685 1.415 . S
C2684 C2683 1.355 . S
C2684 C2686 1.419 . S
C2685 C2680 1.425 . S
C2685 C2682 1.409 . S
C2685 C2683 1.415 . S
C2686 H2676 0.930 . S
C2686 C2684 1.419 . S
C2686 C2687 1.362 . S
C2687 H2677 0.930 . S
C2687 C2680 1.409 . S
C2687 C2686 1.362 . S
H2688 C2694 0.930 . S
H2689 C2697 0.930 . S
H2690 C2698 0.930 . S
H2691 C2699 0.930 . S
H2692 C2702 0.930 . S
H2693 C2703 0.930 . S
C2694 H2688 0.930 . S
C2694 C2695 1.355 . S
C2694 C2696 1.415 . S
C2695 C2694 1.355 . S
C2695 C2697 1.419 . S
C2696 C2694 1.415 . S
C2696 C2701 1.425 . S
C2696 C2703 1.409 . S
C2697 H2689 0.930 . S
C2697 C2695 1.419 . S
C2697 C2698 1.362 . S
C2698 H2690 0.930 . S
C2698 C2697 1.362 . S
C2698 C2701 1.409 . S
C2699 H2691 0.930 . S
C2699 C2700 1.355 . S
C2699 C2701 1.415 . S
C2700 C2699 1.355 . S
C2700 C2702 1.419 . S
C2701 C2696 1.425 . S
C2701 C2698 1.409 . S
C2701 C2699 1.415 . S
C2702 H2692 0.930 . S
C2702 C2700 1.419 . S
C2702 C2703 1.362 . S
C2703 H2693 0.930 . S
C2703 C2696 1.409 . S
C2703 C2702 1.362 . S
H2704 C2710 0.930 . S
H2705 C2713 0.930 . S
H2706 C2714 0.930 . S
H2707 C2715 0.930 . S
H2708 C2718 0.930 . S
H2709 C2719 0.930 . S
C2710 H2704 0.930 . S
C2710 C2711 1.355 . S
C2710 C2712 1.415 . S
C2711 C2710 1.355 . S
C2711 C2713 1.419 . S
C2712 C2710 1.415 . S
C2712 C2717 1.425 . S
C2712 C2719 1.409 . S
C2713 H2705 0.930 . S
C2713 C2711 1.419 . S
C2713 C2714 1.362 . S
C2714 H2706 0.930 . S
C2714 C2713 1.362 . S
C2714 C2717 1.409 . S
C2715 H2707 0.930 . S
C2715 C2716 1.355 . S
C2715 C2717 1.415 . S
C2716 C2715 1.355 . S
C2716 C2718 1.419 . S
C2717 C2712 1.425 . S
C2717 C2714 1.409 . S
C2717 C2715 1.415 . S
C2718 H2708 0.930 . S
C2718 C2716 1.419 . S
C2718 C2719 1.362 . S
C2719 H2709 0.930 . S
C2719 C2712 1.409 . S
C2719 C2718 1.362 . S
H2720 C2726 0.930 . S
H2721 C2729 0.930 . S
H2722 C2730 0.930 . S
H2723 C2731 0.930 . S
H2724 C2734 0.930 . S
H2725 C2735 0.930 . S
C2726 H2720 0.930 . S
C2726 C2727 1.355 . S
C2726 C2728 1.415 . S
C2727 C2726 1.355 . S
C2727 C2729 1.419 . S
C2728 C2726 1.415 . S
C2728 C2733 1.425 . S
C2728 C2735 1.409 . S
C2729 H2721 0.930 . S
C2729 C2727 1.419 . S
C2729 C2730 1.362 . S
C2730 H2722 0.930 . S
C2730 C2729 1.362 . S
C2730 C2733 1.409 . S
C2731 H2723 0.930 . S
C2731 C2732 1.355 . S
C2731 C2733 1.415 . S
C2732 C2731 1.355 . S
C2732 C2734 1.419 . S
C2733 C2728 1.425 . S
C2733 C2730 1.409 . S
C2733 C2731 1.415 . S
C2734 H2724 0.930 . S
C2734 C2732 1.419 . S
C2734 C2735 1.362 . S
C2735 H2725 0.930 . S
C2735 C2728 1.409 . S
C2735 C2734 1.362 . S
H2736 C2742 0.930 . S
H2737 C2745 0.930 . S
H2738 C2746 0.930 . S
H2739 C2747 0.930 . S
H2740 C2750 0.930 . S
H2741 C2751 0.930 . S
C2742 H2736 0.930 . S
C2742 C2743 1.355 . S
C2742 C2744 1.415 . S
C2743 C2742 1.355 . S
C2743 C2745 1.419 . S
C2744 C2742 1.415 . S
C2744 C2749 1.425 . S
C2744 C2751 1.409 . S
C2745 H2737 0.930 . S
C2745 C2743 1.419 . S
C2745 C2746 1.362 . S
C2746 H2738 0.930 . S
C2746 C2745 1.362 . S
C2746 C2749 1.409 . S
C2747 H2739 0.930 . S
C2747 C2748 1.355 . S
C2747 C2749 1.415 . S
C2748 C2747 1.355 . S
C2748 C2750 1.419 . S
C2749 C2744 1.425 . S
C2749 C2746 1.409 . S
C2749 C2747 1.415 . S
C2750 H2740 0.930 . S
C2750 C2748 1.419 . S
C2750 C2751 1.362 . S
C2751 H2741 0.930 . S
C2751 C2744 1.409 . S
C2751 C2750 1.362 . S
H2752 C2758 0.930 . S
H2753 C2761 0.930 . S
H2754 C2762 0.930 . S
H2755 C2763 0.930 . S
H2756 C2766 0.930 . S
H2757 C2767 0.930 . S
C2758 H2752 0.930 . S
C2758 C2759 1.355 . S
C2758 C2760 1.415 . S
C2759 C2758 1.355 . S
C2759 C2761 1.419 . S
C2760 C2758 1.415 . S
C2760 C2765 1.425 . S
C2760 C2767 1.409 . S
C2761 H2753 0.930 . S
C2761 C2759 1.419 . S
C2761 C2762 1.362 . S
C2762 H2754 0.930 . S
C2762 C2761 1.362 . S
C2762 C2765 1.409 . S
C2763 H2755 0.930 . S
C2763 C2764 1.355 . S
C2763 C2765 1.415 . S
C2764 C2763 1.355 . S
C2764 C2766 1.419 . S
C2765 C2760 1.425 . S
C2765 C2762 1.409 . S
C2765 C2763 1.415 . S
C2766 H2756 0.930 . S
C2766 C2764 1.419 . S
C2766 C2767 1.362 . S
C2767 H2757 0.930 . S
C2767 C2760 1.409 . S
C2767 C2766 1.362 . S
H2768 C2774 0.930 . S
H2769 C2777 0.930 . S
H2770 C2778 0.930 . S
H2771 C2779 0.930 . S
H2772 C2782 0.930 . S
H2773 C2783 0.930 . S
C2774 H2768 0.930 . S
C2774 C2775 1.355 . S
C2774 C2776 1.415 . S
C2775 C2774 1.355 . S
C2775 C2777 1.419 . S
C2776 C2774 1.415 . S
C2776 C2781 1.425 . S
C2776 C2783 1.409 . S
C2777 H2769 0.930 . S
C2777 C2775 1.419 . S
C2777 C2778 1.362 . S
C2778 H2770 0.930 . S
C2778 C2777 1.362 . S
C2778 C2781 1.409 . S
C2779 H2771 0.930 . S
C2779 C2780 1.355 . S
C2779 C2781 1.415 . S
C2780 C2779 1.355 . S
C2780 C2782 1.419 . S
C2781 C2776 1.425 . S
C2781 C2778 1.409 . S
C2781 C2779 1.415 . S
C2782 H2772 0.930 . S
C2782 C2780 1.419 . S
C2782 C2783 1.362 . S
C2783 H2773 0.930 . S
C2783 C2776 1.409 . S
C2783 C2782 1.362 . S
H2784 C2790 0.930 . S
H2785 C2793 0.930 . S
H2786 C2794 0.930 . S
H2787 C2795 0.930 . S
H2788 C2798 0.930 . S
H2789 C2799 0.930 . S
C2790 H2784 0.930 . S
C2790 C2791 1.355 . S
C2790 C2792 1.415 . S
C2791 C2790 1.355 . S
C2791 C2793 1.419 . S
C2792 C2790 1.415 . S
C2792 C2797 1.425 . S
C2792 C2799 1.409 . S
C2793 H2785 0.930 . S
C2793 C2791 1.419 . S
C2793 C2794 1.362 . S
C2794 H2786 0.930 . S
C2794 C2793 1.362 . S
C2794 C2797 1.409 . S
C2795 H2787 0.930 . S
C2795 C2796 1.355 . S
C2795 C2797 1.415 . S
C2796 C2795 1.355 . S
C2796 C2798 1.419 . S
C2797 C2792 1.425 . S
C2797 C2794 1.409 . S
C2797 C2795 1.415 . S
C2798 H2788 0.930 . S
C2798 C2796 1.419 . S
C2798 C2799 1.362 . S
C2799 H2789 0.930 . S
C2799 C2792 1.409 . S
C2799 C2798 1.362 . S
H2800 C2806 0.930 . S
H2801 C2809 0.930 . S
H2802 C2810 0.930 . S
H2803 C2811 0.930 . S
H2804 C2814 0.930 . S
H2805 C2815 0.930 . S
C2806 H2800 0.930 . S
C2806 C2807 1.355 . S
C2806 C2808 1.415 . S
C2807 C2806 1.355 . S
C2807 C2809 1.419 . S
C2808 C2806 1.415 . S
C2808 C2813 1.425 . S
C2808 C2815 1.409 . S
C2809 H2801 0.930 . S
C2809 C2807 1.419 . S
C2809 C2810 1.362 . S
C2810 H2802 0.930 . S
C2810 C2809 1.362 . S
C2810 C2813 1.409 . S
C2811 H2803 0.930 . S
C2811 C2812 1.355 . S
C2811 C2813 1.415 . S
C2812 C2811 1.355 . S
C2812 C2814 1.419 . S
C2813 C2808 1.425 . S
C2813 C2810 1.409 . S
C2813 C2811 1.415 . S
C2814 H2804 0.930 . S
C2814 C2812 1.419 . S
C2814 C2815 1.362 . S
C2815 H2805 0.930 . S
C2815 C2808 1.409 . S
C2815 C2814 1.362 . S
H2816 C2822 0.930 . S
H2817 C2825 0.930 . S
H2818 C2826 0.930 . S
H2819 C2827 0.930 . S
H2820 C2830 0.930 . S
H2821 C2831 0.930 . S
C2822 H2816 0.930 . S
C2822 C2823 1.355 . S
C2822 C2824 1.415 . S
C2823 C2822 1.355 . S
C2823 C2825 1.419 . S
C2824 C2822 1.415 . S
C2824 C2829 1.425 . S
C2824 C2831 1.409 . S
C2825 H2817 0.930 . S
C2825 C2823 1.419 . S
C2825 C2826 1.362 . S
C2826 H2818 0.930 . S
C2826 C2825 1.362 . S
C2826 C2829 1.409 . S
C2827 H2819 0.930 . S
C2827 C2828 1.355 . S
C2827 C2829 1.415 . S
C2828 C2827 1.355 . S
C2828 C2830 1.419 . S
C2829 C2824 1.425 . S
C2829 C2826 1.409 . S
C2829 C2827 1.415 . S
C2830 H2820 0.930 . S
C2830 C2828 1.419 . S
C2830 C2831 1.362 . S
C2831 H2821 0.930 . S
C2831 C2824 1.409 . S
C2831 C2830 1.362 . S
H2832 C2838 0.930 . S
H2833 C2841 0.930 . S
H2834 C2842 0.930 . S
H2835 C2843 0.930 . S
H2836 C2846 0.930 . S
H2837 C2847 0.930 . S
C2838 H2832 0.930 . S
C2838 C2839 1.355 . S
C2838 C2840 1.415 . S
C2839 C2838 1.355 . S
C2839 C2841 1.419 . S
C2840 C2838 1.415 . S
C2840 C2845 1.425 . S
C2840 C2847 1.409 . S
C2841 H2833 0.930 . S
C2841 C2839 1.419 . S
C2841 C2842 1.362 . S
C2842 H2834 0.930 . S
C2842 C2841 1.362 . S
C2842 C2845 1.409 . S
C2843 H2835 0.930 . S
C2843 C2844 1.355 . S
C2843 C2845 1.415 . S
C2844 C2843 1.355 . S
C2844 C2846 1.419 . S
C2845 C2840 1.425 . S
C2845 C2842 1.409 . S
C2845 C2843 1.415 . S
C2846 H2836 0.930 . S
C2846 C2844 1.419 . S
C2846 C2847 1.362 . S
C2847 H2837 0.930 . S
C2847 C2840 1.409 . S
C2847 C2846 1.362 . S
H2848 C2854 0.930 . S
H2849 C2857 0.930 . S
H2850 C2858 0.930 . S
H2851 C2859 0.930 . S
H2852 C2862 0.930 . S
H2853 C2863 0.930 . S
C2854 H2848 0.930 . S
C2854 C2855 1.355 . S
C2854 C2856 1.415 . S
C2855 C2854 1.355 . S
C2855 C2857 1.419 . S
C2856 C2854 1.415 . S
C2856 C2861 1.425 . S
C2856 C2863 1.409 . S
C2857 H2849 0.930 . S
C2857 C2855 1.419 . S
C2857 C2858 1.362 . S
C2858 H2850 0.930 . S
C2858 C2857 1.362 . S
C2858 C2861 1.409 . S
C2859 H2851 0.930 . S
C2859 C2860 1.355 . S
C2859 C2861 1.415 . S
C2860 C2859 1.355 . S
C2860 C2862 1.419 . S
C2861 C2856 1.425 . S
C2861 C2858 1.409 . S
C2861 C2859 1.415 . S
C2862 H2852 0.930 . S
C2862 C2860 1.419 . S
C2862 C2863 1.362 . S
C2863 H2853 0.930 . S
C2863 C2856 1.409 . S
C2863 C2862 1.362 . S
H2864 C2870 0.930 . S
H2865 C2873 0.930 . S
H2866 C2874 0.930 . S
H2867 C2875 0.930 . S
H2868 C2878 0.930 . S
H2869 C2879 0.930 . S
C2870 H2864 0.930 . S
C2870 C2871 1.355 . S
C2870 C2872 1.415 . S
C2871 C2870 1.355 . S
C2871 C2873 1.419 . S
C2872 C2870 1.415 . S
C2872 C2877 1.425 . S
C2872 C2879 1.409 . S
C2873 H2865 0.930 . S
C2873 C2871 1.419 . S
C2873 C2874 1.362 . S
C2874 H2866 0.930 . S
C2874 C2873 1.362 . S
C2874 C2877 1.409 . S
C2875 H2867 0.930 . S
C2875 C2876 1.355 . S
C2875 C2877 1.415 . S
C2876 C2875 1.355 . S
C2876 C2878 1.419 . S
C2877 C2872 1.425 . S
C2877 C2874 1.409 . S
C2877 C2875 1.415 . S
C2878 H2868 0.930 . S
C2878 C2876 1.419 . S
C2878 C2879 1.362 . S
C2879 H2869 0.930 . S
C2879 C2872 1.409 . S
C2879 C2878 1.362 . S
H2880 C2886 0.930 . S
H2881 C2889 0.930 . S
H2882 C2890 0.930 . S
H2883 C2891 0.930 . S
H2884 C2894 0.930 . S
H2885 C2895 0.930 . S
C2886 H2880 0.930 . S
C2886 C2887 1.355 . S
C2886 C2888 1.415 . S
C2887 C2886 1.355 . S
C2887 C2889 1.419 . S
C2888 C2886 1.415 . S
C2888 C2893 1.425 . S
C2888 C2895 1.409 . S
C2889 H2881 0.930 . S
C2889 C2887 1.419 . S
C2889 C2890 1.362 . S
C2890 H2882 0.930 . S
C2890 C2889 1.362 . S
C2890 C2893 1.409 . S
C2891 H2883 0.930 . S
C2891 C2892 1.355 . S
C2891 C2893 1.415 . S
C2892 C2891 1.355 . S
C2892 C2894 1.419 . S
C2893 C2888 1.425 . S
C2893 C2890 1.409 . S
C2893 C2891 1.415 . S
C2894 H2884 0.930 . S
C2894 C2892 1.419 . S
C2894 C2895 1.362 . S
C2895 H2885 0.930 . S
C2895 C2888 1.409 . S
C2895 C2894 1.362 . S
H2896 C2902 0.930 . S
H2897 C2905 0.930 . S
H2898 C2906 0.930 . S
H2899 C2907 0.930 . S
H2900 C2910 0.930 . S
H2901 C2911 0.930 . S
C2902 H2896 0.930 . S
C2902 C2903 1.355 . S
C2902 C2904 1.415 . S
C2903 C2902 1.355 . S
C2903 C2905 1.419 . S
C2904 C2902 1.415 . S
C2904 C2909 1.425 . S
C2904 C2911 1.409 . S
C2905 H2897 0.930 . S
C2905 C2903 1.419 . S
C2905 C2906 1.362 . S
C2906 H2898 0.930 . S
C2906 C2905 1.362 . S
C2906 C2909 1.409 . S
C2907 H2899 0.930 . S
C2907 C2908 1.355 . S
C2907 C2909 1.415 . S
C2908 C2907 1.355 . S
C2908 C2910 1.419 . S
C2909 C2904 1.425 . S
C2909 C2906 1.409 . S
C2909 C2907 1.415 . S
C2910 H2900 0.930 . S
C2910 C2908 1.419 . S
C2910 C2911 1.362 . S
C2911 H2901 0.930 . S
C2911 C2904 1.409 . S
C2911 C2910 1.362 . S
C1895 C583 1.488 . S
C1900 C33 1.487 . S
C1911 C92 1.485 1_455 S
C1916 C1586 1.455 . S
C1927 C701 1.447 . S
C1932 C151 1.487 . S
C1943 C1468 1.456 . S
C1948 C210 1.485 . S
C1959 C269 1.491 . S
C1964 C937 1.488 . S
C1975 C1704 1.489 . S
C1980 C328 1.491 . S
C1991 C387 1.487 . S
C1996 C819 1.487 . S
C2007 C1822 1.454 . S
C2012 C446 1.485 1_455 S
C2023 C111 1.445 . S
C2028 C505 1.488 . S
C2039 C564 1.487 1_655 S
C2044 C1114 1.447 . S
C2055 C229 1.444 . S
C2060 C623 1.488 . S
C2071 C682 1.492 . S
C2076 C996 1.484 . S
C2087 C741 1.485 . S
C2092 C465 1.466 . S
C2103 C1232 1.446 . S
C2108 C800 1.487 . S
C2119 C859 1.488 . S
C2124 C347 1.444 . S
C2135 C1350 1.488 . S
C2140 C918 1.487 1_655 S
C2151 C1527 1.469 . S
C2156 C977 1.493 . S
C2167 C642 1.463 . S
C2172 C1036 1.493 . S
C2183 C1095 1.492 . S
C2188 C1645 1.453 . S
C2199 C524 1.488 . S
C2204 C1154 1.487 1_655 S
C2215 C1881 1.450 . S
C2220 C1213 1.486 . S
C2231 C1272 1.485 1_655 S
C2236 C760 1.459 . S
C2247 C1763 1.444 . S
C2252 C1331 1.489 . S
C2263 C878 1.470 . S
C2268 C1390 1.485 . S
C2279 C1055 1.463 . S
C2284 C1449 1.485 . S
C2295 C1508 1.490 . S
C2300 C170 1.490 . S
C2311 C1567 1.487 . S
C2316 C1173 1.446 . S
C2327 C1626 1.487 1_455 S
C2332 C52 1.487 . S
C2343 C1409 1.488 . S
C2348 C1685 1.487 . S
C2359 C1744 1.492 1_455 S
C2364 C288 1.482 . S
C2375 C1803 1.486 . S
C2380 C1291 1.485 . S
C2391 C1862 1.492 . S
C2396 C406 1.485 . S
C2407 C1421 1.432 . S
C2412 C5 1.432 . S
C2423 C64 1.429 . S
C2428 C536 1.429 . S
C2439 C123 1.429 . S
C2444 C1539 1.429 . S
C2455 C182 1.435 . S
C2460 C654 1.435 . S
C2471 C241 1.433 . S
C2476 C1657 1.433 . S
C2487 C300 1.493 . S
C2492 C772 1.493 . S
C2503 C1775 1.430 . S
C2508 C359 1.430 . S
C2519 C418 1.445 . S
C2524 C890 1.445 . S
C2535 C477 1.494 . S
C2540 C949 1.494 . S
C2551 C595 1.487 . S
C2556 C1067 1.487 . S
C2567 C1185 1.433 . S
C2572 C713 1.433 . S
C2583 C1303 1.472 . S
C2588 C831 1.472 . S
C2599 C1008 1.430 . S
C2604 C1480 1.430 . S
C2615 C1598 1.491 . S
C2620 C1126 1.491 . S
C2631 C1244 1.492 . S
C2636 C1716 1.492 . S
C2647 C1834 1.460 . S
C2652 C1362 1.460 . S
C2663 C1242 1.564 . S
C2668 C3 1.555 . S
C2679 C1301 1.578 . S
C2684 C62 1.583 . S
C2695 C121 1.576 . S
C2700 C1360 1.558 . S
C2711 C1183 1.557 . S
C2716 C180 1.574 . S
C2727 C1124 1.582 . S
C2732 C239 1.580 . S
C2743 C947 1.570 . S
C2748 C298 1.555 . S
C2759 C357 1.582 . S
C2764 C1006 1.580 . S
C2775 C1065 1.577 . S
C2780 C416 1.558 . S
C2791 C1714 1.580 . S
C2796 C475 1.582 . S
C2807 C1773 1.557 . S
C2812 C534 1.561 . S
C2823 C1832 1.584 . S
C2828 C593 1.576 . S
C2839 C652 1.575 . S
C2844 C1655 1.557 . S
C2855 C1596 1.584 . S
C2860 C711 1.568 . S
C2871 C1419 1.577 . S
C2876 C770 1.584 . S
C2887 C1478 1.579 . S
C2892 C829 1.583 . S
C2903 C1537 1.556 . S
C2908 C888 1.562 . S
