# Generated by pormake.
# Topology uov, (4)-cn, num edge types: 1
# Building blocks:
#     Node 0, Type 0, BuildingBlock: QUQFOY_clean_sbu_3, # of connection points: 4
#     Node 1, Type 0, BuildingBlock: QUQFOY_clean_sbu_3, # of connection points: 4
#     Node 2, Type 0, BuildingBlock: QUQFOY_clean_sbu_3, # of connection points: 4
#     Node 3, Type 0, BuildingBlock: QUQFOY_clean_sbu_3, # of connection points: 4
#     Node 4, Type 0, BuildingBlock: QUQFOY_clean_sbu_3, # of connection points: 4
#     Node 5, Type 0, BuildingBlock: QUQFOY_clean_sbu_3, # of connection points: 4
#     Node 6, Type 0, BuildingBlock: QUQFOY_clean_sbu_3, # of connection points: 4
#     Node 7, Type 0, BuildingBlock: QUQFOY_clean_sbu_3, # of connection points: 4
#     Edge 8, Type (0, 0), BuildingBlock: FUNLAD_clean_linker_1, # of connection points: 2
#     Edge 9, Type (0, 0), BuildingBlock: FUNLAD_clean_linker_1, # of connection points: 2
#     Edge 10, Type (0, 0), BuildingBlock: FUNLAD_clean_linker_1, # of connection points: 2
#     Edge 11, Type (0, 0), BuildingBlock: FUNLAD_clean_linker_1, # of connection points: 2
#     Edge 12, Type (0, 0), BuildingBlock: FUNLAD_clean_linker_1, # of connection points: 2
#     Edge 13, Type (0, 0), BuildingBlock: FUNLAD_clean_linker_1, # of connection points: 2
#     Edge 14, Type (0, 0), BuildingBlock: FUNLAD_clean_linker_1, # of connection points: 2
#     Edge 15, Type (0, 0), BuildingBlock: FUNLAD_clean_linker_1, # of connection points: 2
#     Edge 16, Type (0, 0), BuildingBlock: FUNLAD_clean_linker_1, # of connection points: 2
#     Edge 17, Type (0, 0), BuildingBlock: FUNLAD_clean_linker_1, # of connection points: 2
#     Edge 18, Type (0, 0), BuildingBlock: FUNLAD_clean_linker_1, # of connection points: 2
#     Edge 19, Type (0, 0), BuildingBlock: FUNLAD_clean_linker_1, # of connection points: 2
#     Edge 20, Type (0, 0), BuildingBlock: FUNLAD_clean_linker_1, # of connection points: 2
#     Edge 21, Type (0, 0), BuildingBlock: FUNLAD_clean_linker_1, # of connection points: 2
#     Edge 22, Type (0, 0), BuildingBlock: FUNLAD_clean_linker_1, # of connection points: 2
#     Edge 23, Type (0, 0), BuildingBlock: FUNLAD_clean_linker_1, # of connection points: 2
# Relax obj value: 0.139
# Max RMSD: 0.153
# Mean RMSD: 0.146
data_MOF--net-uov--node1-QUQFOY_clean_sbu_3--edge1-FUNLAD_clean_linker_1
_symmetry_space_group_name_H-M    P1
_symmetry_Int_Tables_number       1
_symmetry_cell_setting            triclinic
loop_
_symmetry_equiv_pos_as_xyz
'x, y, z'
_cell_length_a     33.327508
_cell_length_b     33.014649
_cell_length_c     44.796433
_cell_angle_alpha  89.761223
_cell_angle_beta   90.165603
_cell_angle_gamma 88.247866
loop_
_atom_site_label
_atom_site_type_symbol
_atom_site_fract_x
_atom_site_fract_y
_atom_site_fract_z
_atom_type_partial_charge
C0 C 0.91906 0.17603 0.60545 0.0
O1 O 0.93027 0.14988 0.62479 0.0
Cd2 Cd -0.00204 0.1455 0.64315 0.0
O3 O 0.94241 0.20374 0.59712 0.0
Cd4 Cd 0.00955 0.22971 0.60903 0.0
C5 C 0.04938 0.14656 0.57605 0.0
O6 O 0.01424 0.21077 0.66148 0.0
O7 O 0.07017 0.22359 0.63978 0.0
O8 O -0.02047 0.2976 0.61234 0.0
C9 C 0.05181 0.21473 0.66356 0.0
O10 O 0.03979 0.12743 0.59962 0.0
C11 C 0.00424 0.3139 0.59479 0.0
O12 O 0.03986 0.18395 0.57258 0.0
O13 O 0.03153 0.29103 0.58361 0.0
C14 C 0.18147 0.90894 0.32031 0.0
O15 O 0.1508 0.92639 0.33184 0.0
Cd16 Cd 0.14802 0.96622 0.37618 0.0
O17 O 0.21625 0.91262 0.33169 0.0
Cd18 Cd 0.24552 0.94783 0.37547 0.0
C19 C 0.19049 0.89571 0.42503 0.0
O20 O 0.20334 0.00944 0.37645 0.0
O21 O 0.23886 -0.00309 0.41582 0.0
O22 O 0.3043 0.97501 0.3509 0.0
C23 C 0.21346 0.01998 0.40251 0.0
O24 O 0.16059 0.91751 0.41603 0.0
C25 C 0.32952 0.95332 0.36569 0.0
O26 O 0.22498 0.89852 0.41316 0.0
O27 O 0.31567 0.92814 0.38418 0.0
C28 C 0.02326 0.76472 0.58218 0.0
O29 O 0.01404 0.79118 0.60168 0.0
Cd30 Cd 0.94858 0.79666 0.62333 0.0
O31 O -0.00058 0.73659 0.57579 0.0
Cd32 Cd 0.93494 0.7092 0.59317 0.0
C33 C 0.89214 0.79016 0.55829 0.0
O34 O 0.93524 0.73245 0.64436 0.0
O35 O 0.87766 0.71537 0.62742 0.0
O36 O 0.96795 0.64289 0.59811 0.0
C37 C 0.89826 0.72791 0.64917 0.0
O38 O 0.904 0.81086 0.58044 0.0
C39 C 0.94176 0.62411 0.5834 0.0
O40 O 0.90084 0.75245 0.55622 0.0
O41 O 0.9124 0.64497 0.57274 0.0
C42 C 0.76943 0.07574 0.32749 0.0
O43 O 0.79872 0.0572 0.34026 0.0
Cd44 Cd 0.79807 0.02995 0.38968 0.0
O45 O 0.73517 0.07873 0.33996 0.0
Cd46 Cd 0.70265 0.05599 0.38693 0.0
C47 C 0.763 0.115 0.42743 0.0
O48 O 0.73924 -0.00798 0.39629 0.0
O49 O 0.70258 0.01534 0.43239 0.0
O50 O 0.64443 0.02897 0.36196 0.0
C51 C 0.72648 -0.01211 0.42278 0.0
O52 O 0.79115 0.08998 0.42039 0.0
C53 C 0.61924 0.05385 0.37353 0.0
O54 O 0.72717 0.11106 0.4181 0.0
O55 O 0.63289 0.08069 0.39071 0.0
C56 C 0.91176 0.17108 0.13749 0.0
O57 O 0.93378 0.14574 0.12333 0.0
Cd58 Cd 0.96639 0.157 0.07669 0.0
O59 O 0.90664 0.20751 0.1283 0.0
Cd60 Cd 0.93055 0.25009 0.08626 0.0
C61 C 0.88353 0.19197 0.03584 0.0
O62 O -0.00292 0.22019 0.07986 0.0
O63 O 0.97553 0.25807 0.04365 0.0
O64 O 0.95153 0.30537 0.11761 0.0
C65 C 0.00362 0.23589 0.05455 0.0
O66 O 0.91174 0.16589 0.04097 0.0
C67 C 0.92862 0.33212 0.10547 0.0
O68 O 0.88068 0.22493 0.05057 0.0
O69 O 0.90455 0.32035 0.08548 0.0
C70 C 0.21058 0.92714 0.89481 0.0
O71 O 0.17803 0.93667 0.88136 0.0
Cd72 Cd 0.16516 0.00058 0.85702 0.0
O73 O 0.23972 0.95116 0.89482 0.0
Cd74 Cd 0.25333 0.01914 0.87374 0.0
C75 C 0.18227 0.06127 0.91726 0.0
O76 O 0.22 0.01659 0.82504 0.0
O77 O 0.23356 0.07599 0.84154 0.0
O78 O 0.32091 -0.00384 0.86095 0.0
C79 C 0.22119 0.0544 0.82029 0.0
O80 O 0.15725 0.04897 0.898 0.0
C81 C 0.33804 0.02483 0.87427 0.0
O82 O 0.21945 0.05206 0.91526 0.0
O83 O 0.31577 0.05082 0.88753 0.0
C84 C 0.03419 0.78167 0.1453 0.0
O85 O 0.00856 0.8048 0.13222 0.0
Cd86 Cd -0.02086 0.79344 0.08439 0.0
O87 O 0.04412 0.747 0.13469 0.0
Cd88 Cd 0.02492 0.70395 0.09169 0.0
C89 C 0.06759 0.77152 0.04579 0.0
O90 O 0.95593 0.72678 0.08379 0.0
O91 O -0.01669 0.69327 0.04764 0.0
O92 O 0.00854 0.64634 0.1224 0.0
C93 C 0.95254 0.71176 0.05794 0.0
O94 O 0.03682 0.79403 0.05133 0.0
C95 C 0.03322 0.62165 0.11006 0.0
O96 O 0.07305 0.73699 0.05838 0.0
O97 O 0.05637 0.63582 0.09036 0.0
C98 C 0.79242 0.00543 0.87449 0.0
O99 O 0.82039 -0.01465 0.86158 0.0
Cd100 Cd 0.81393 0.91811 0.84188 0.0
O101 O 0.75748 -0.00881 0.877 0.0
Cd102 Cd 0.72141 0.92971 0.86275 0.0
C103 C 0.7836 0.87303 0.90702 0.0
O104 O 0.75246 0.91697 0.81441 0.0
O105 O 0.71473 0.87012 0.83136 0.0
O106 O 0.66243 0.97285 0.85232 0.0
C107 C 0.73691 0.88275 0.81065 0.0
O108 O 0.81024 0.87626 0.88686 0.0
C109 C 0.63929 0.95241 0.86864 0.0
O110 O 0.74952 0.89114 0.90463 0.0
O111 O 0.65443 0.92172 0.88214 0.0
H112 H 0.91817 0.56473 0.57092 0.0
C113 C 0.94396 0.5797 0.5802 0.0
H114 H 0.00131 0.57234 0.59987 0.0
H115 H 0.97817 0.39925 0.65344 0.0
H116 H -0.01829 0.44036 0.69795 0.0
H117 H -0.01838 0.51493 0.69445 0.0
H118 H -0.02162 0.54878 0.64642 0.0
C119 C 0.9759 0.55751 0.5899 0.0
C120 C 0.97529 0.5125 0.59148 0.0
C121 C 0.97662 0.4932 0.61984 0.0
C122 C 0.97577 0.45027 0.62189 0.0
C123 C 0.97798 0.43179 0.65051 0.0
C124 C -0.01987 0.45503 0.6763 0.0
C125 C -0.01985 0.49699 0.67433 0.0
C126 C -0.0216 0.51602 0.64653 0.0
H127 H 0.02711 0.37079 0.57627 0.0
C128 C 0.00247 0.35774 0.58849 0.0
H129 H 0.94789 0.369 0.61116 0.0
H130 H 0.97703 0.53938 0.53352 0.0
H131 H 0.97049 0.49848 0.48904 0.0
H132 H 0.96323 0.42449 0.49281 0.0
H133 H 0.96334 0.3909 0.54105 0.0
C134 C 0.97211 0.38179 0.59832 0.0
C135 C 0.97307 0.42668 0.59562 0.0
C136 C 0.97118 0.44597 0.56726 0.0
C137 C 0.97331 0.48888 0.56515 0.0
C138 C 0.97378 0.50714 0.5365 0.0
C139 C 0.97032 0.48397 0.51075 0.0
C140 C 0.96639 0.4423 0.51287 0.0
C141 C 0.96677 0.42336 0.54072 0.0
H142 H 0.55584 0.07423 0.37758 0.0
C143 C 0.57573 0.05039 0.36891 0.0
H144 H 0.57981 -0.00689 0.34811 0.0
H145 H 0.39584 0.0067 0.40724 0.0
H146 H 0.42933 0.01088 0.45512 0.0
H147 H 0.50318 0.01229 0.45826 0.0
H148 H 0.54371 0.01096 0.41354 0.0
C149 C 0.56019 0.01699 0.35701 0.0
C150 C 0.51608 0.0113 0.35557 0.0
C151 C 0.49314 0.00923 0.38217 0.0
C152 C 0.45085 0.0052 0.38049 0.0
C153 C 0.42826 0.00706 0.40724 0.0
C154 C 0.44708 0.00986 0.43491 0.0
C155 C 0.48861 0.01089 0.43667 0.0
C156 C 0.51152 0.01053 0.41072 0.0
H157 H 0.39294 0.93701 0.37479 0.0
C158 C 0.37304 0.95876 0.36339 0.0
H159 H 0.36886 0.0138 0.33914 0.0
H160 H 0.55108 0.0143 0.3004 0.0
H161 H 0.51788 0.00616 0.25263 0.0
H162 H 0.44521 -0.00556 0.24994 0.0
H163 H 0.4052 -0.00885 0.295 0.0
C164 C 0.38834 -0.00819 0.35067 0.0
C165 C 0.43204 -0.00034 0.35238 0.0
C166 C 0.45502 0.00114 0.32585 0.0
C167 C 0.49705 0.00722 0.32744 0.0
C168 C 0.51917 0.0092 0.30054 0.0
C169 C 0.50048 0.00465 0.27295 0.0
C170 C 0.45955 -0.00191 0.27144 0.0
C171 C 0.43694 -0.00369 0.29749 0.0
H172 H 0.91094 0.39693 0.10207 0.0
C173 C 0.9329 0.37556 0.11163 0.0
H174 H -0.01148 0.36823 0.13415 0.0
H175 H -0.01029 0.55141 0.07037 0.0
H176 H -0.01329 0.51568 0.02347 0.0
H177 H -0.01847 0.44134 0.02237 0.0
H178 H 0.97782 0.40266 0.0682 0.0
C179 C 0.96624 0.38933 0.12465 0.0
C180 C 0.97509 0.43325 0.12523 0.0
C181 C -0.01957 0.45493 0.09814 0.0
C182 C -0.01321 0.4973 0.09881 0.0
C183 C -0.01231 0.51884 0.07137 0.0
C184 C -0.01443 0.49874 0.04417 0.0
C185 C -0.0176 0.45695 0.04355 0.0
C186 C -0.02012 0.43515 0.07011 0.0
H187 H 0.05451 0.55799 0.10549 0.0
C188 C 0.03146 0.57768 0.11534 0.0
H189 H 0.97535 0.58095 0.13724 0.0
H190 H 0.96753 0.40053 0.18109 0.0
H191 H 0.97518 0.43548 0.22822 0.0
H192 H -0.00902 0.50798 0.2294 0.0
H193 H -0.00106 0.54607 0.18346 0.0
C194 C -0.0013 0.5615 0.12751 0.0
C195 C -0.00848 0.51723 0.12659 0.0
C196 C -0.01244 0.49527 0.15363 0.0
C197 C -0.02093 0.4533 0.15295 0.0
C198 C 0.97447 0.43232 0.18031 0.0
C199 C -0.02128 0.45202 0.20752 0.0
C200 C -0.01243 0.49285 0.20819 0.0
C201 C -0.00802 0.51438 0.18164 0.0
H202 H 0.39468 0.05493 0.88424 0.0
C203 C 0.38188 0.02811 0.87447 0.0
H204 H 0.39347 0.97224 0.85298 0.0
H205 H 0.56438 0.00399 0.8037 0.0
H206 H 0.52502 0.00511 0.75812 0.0
H207 H 0.45102 0.00594 0.75986 0.0
H208 H 0.41598 0.00519 0.80722 0.0
C209 C 0.40607 -0.00133 0.86343 0.0
C210 C 0.45033 0.00234 0.86289 0.0
C211 C 0.47026 0.00379 0.835 0.0
C212 C 0.51285 0.0041 0.834 0.0
C213 C 0.53206 0.00419 0.80583 0.0
C214 C 0.50982 0.00484 0.77945 0.0
C215 C 0.46817 0.00526 0.78042 0.0
C216 C 0.44845 0.00472 0.80778 0.0
H217 H 0.57773 0.94109 0.88294 0.0
C218 C 0.59633 0.9626 0.87138 0.0
H219 H 0.59759 0.01804 0.84772 0.0
H220 H 0.42197 -0.00268 0.92043 0.0
H221 H 0.4611 0.00221 0.9658 0.0
H222 H 0.53442 0.01022 0.96378 0.0
H223 H 0.56903 0.01222 0.91619 0.0
C224 C 0.57951 -0.00335 0.85983 0.0
C225 C 0.53527 0.00342 0.86092 0.0
C226 C 0.51522 0.0052 0.88879 0.0
C227 C 0.47275 0.00318 0.88985 0.0
C228 C 0.4539 0.00107 0.91812 0.0
C229 C 0.47608 0.0035 0.94442 0.0
C230 C 0.51736 0.00781 0.94329 0.0
C231 C 0.53688 0.00861 0.91587 0.0
H232 H 0.16428 0.06581 0.40771 0.0
C233 C 0.18866 0.04967 0.4193 0.0
H234 H 0.21671 0.03753 0.46095 0.0
H235 H 0.13912 0.19143 0.52515 0.0
H236 H 0.20403 0.21823 0.51311 0.0
H237 H 0.25072 0.18114 0.47961 0.0
H238 H 0.23276 0.1168 0.45803 0.0
C239 C 0.19254 0.05344 0.449 0.0
C240 C 0.16292 0.07728 0.46695 0.0
C241 C 0.17354 0.11506 0.47897 0.0
C242 C 0.14639 0.13663 0.49799 0.0
C243 C 0.15827 0.17391 0.51026 0.0
C244 C 0.19552 0.18965 0.50359 0.0
C245 C 0.22183 0.16875 0.48475 0.0
C246 C 0.21116 0.13185 0.47255 0.0
H247 H 0.08378 0.09414 0.55797 0.0
C248 C 0.07287 0.12481 0.55297 0.0
H249 H 0.07176 0.17266 0.5215 0.0
H250 H 0.134 0.00437 0.44881 0.0
H251 H 0.06803 0.97881 0.45894 0.0
H252 H 0.01898 0.01855 0.48887 0.0
H253 H 0.03602 0.08374 0.50935 0.0
C254 C 0.0817 0.14172 0.52653 0.0
C255 C 0.10858 0.12033 0.50484 0.0
C256 C 0.09731 0.08322 0.4918 0.0
C257 C 0.1249 0.0612 0.47339 0.0
C258 C 0.11379 0.02307 0.46211 0.0
C259 C 0.076 0.00795 0.46781 0.0
C260 C 0.04847 0.03024 0.48477 0.0
C261 C 0.05878 0.06748 0.49661 0.0
H262 H 0.21219 0.85762 0.46298 0.0
C263 C 0.18561 0.86941 0.45138 0.0
H264 H 0.12252 0.87592 0.45126 0.0
H265 H 0.1338 0.73383 0.55407 0.0
H266 H 0.1675 0.6902 0.51765 0.0
H267 H 0.1889 0.7176 0.46908 0.0
H268 H 0.17769 0.78877 0.4569 0.0
C269 C 0.14896 0.86317 0.46254 0.0
C270 C 0.14253 0.84662 0.49291 0.0
C271 C 0.14874 0.80483 0.4992 0.0
C272 C 0.13479 0.78863 0.5266 0.0
C273 C 0.14247 0.74712 0.53302 0.0
C274 C 0.16197 0.72193 0.51243 0.0
C275 C 0.17412 0.73739 0.48512 0.0
C276 C 0.16758 0.77833 0.47842 0.0
H277 H 0.05756 0.75769 0.5408 0.0
C278 C 0.05849 0.77048 0.56311 0.0
H279 H 0.08841 0.8083 0.59287 0.0
H280 H 0.13445 0.92932 0.49029 0.0
H281 H 0.1028 0.97312 0.52729 0.0
H282 H 0.0747 0.94462 0.57339 0.0
H283 H 0.07879 0.87261 0.58315 0.0
C284 C 0.08766 0.79584 0.57049 0.0
C285 C 0.11288 0.81384 0.54675 0.0
C286 C 0.11034 0.85634 0.54174 0.0
C287 C 0.12554 0.87271 0.51483 0.0
C288 C 0.12259 0.91521 0.51012 0.0
C289 C 0.10461 0.94073 0.53118 0.0
C290 C 0.0889 0.92469 0.55717 0.0
C291 C 0.0915 0.88307 0.56247 0.0
H292 H 0.73086 0.95601 0.46588 0.0
C293 C 0.7438 0.95759 0.44366 0.0
H294 H 0.79177 0.93831 0.41595 0.0
H295 H 0.9062 0.90396 0.52688 0.0
H296 H 0.9352 0.96392 0.50559 0.0
H297 H 0.90174 0.0008 0.46401 0.0
H298 H 0.83927 0.97767 0.44325 0.0
C299 C 0.77701 0.9353 0.43741 0.0
C300 C 0.79787 0.91153 0.46143 0.0
C301 C 0.83447 0.92539 0.47324 0.0
C302 C 0.85332 0.90457 0.4976 0.0
C303 C 0.89011 0.91892 0.50874 0.0
C304 C 0.90722 0.95328 0.49666 0.0
C305 C 0.88843 0.974 0.47321 0.0
C306 C 0.85255 0.96034 0.4615 0.0
H307 H 0.86368 0.79316 0.51373 0.0
C308 C 0.86912 0.81027 0.53396 0.0
H309 H 0.86136 0.86642 0.55586 0.0
H310 H 0.72988 0.87502 0.44232 0.0
H311 H 0.69816 0.8178 0.46565 0.0
H312 H 0.72773 0.78512 0.51055 0.0
H313 H 0.78948 0.80886 0.53199 0.0
C314 C 0.85539 0.84887 0.53595 0.0
C315 C 0.83533 0.87013 0.51031 0.0
C316 C 0.79828 0.85672 0.49882 0.0
C317 C 0.78011 0.87684 0.47385 0.0
C318 C 0.74417 0.86173 0.4619 0.0
C319 C 0.72575 0.8288 0.47498 0.0
C320 C 0.74248 0.81031 0.50018 0.0
C321 C 0.77822 0.82403 0.51211 0.0
H322 H 0.8022 0.15849 0.44804 0.0
C323 C 0.77251 0.1458 0.44955 0.0
H324 H 0.72598 0.13053 0.47892 0.0
H325 H 0.88905 0.10941 0.55651 0.0
H326 H 0.87997 0.0404 0.54093 0.0
H327 H 0.82259 0.02272 0.50918 0.0
H328 H 0.77479 0.07463 0.492 0.0
C329 C 0.75355 0.14681 0.47592 0.0
C330 C 0.77772 0.15599 0.5028 0.0
C331 C 0.80317 0.12487 0.51492 0.0
C332 C 0.83466 0.13477 0.53477 0.0
C333 C 0.86282 0.10365 0.5432 0.0
C334 C 0.85832 0.06374 0.53405 0.0
C335 C 0.82618 0.0538 0.51604 0.0
C336 C 0.79901 0.08391 0.50634 0.0
H337 H 0.85925 0.15013 0.5998 0.0
C338 C 0.88018 0.17128 0.59036 0.0
H339 H 0.89385 0.20829 0.55345 0.0
H340 H 0.73071 0.22109 0.48616 0.0
H341 H 0.7364 0.29035 0.50388 0.0
H342 H 0.78811 0.30738 0.54094 0.0
H343 H 0.83469 0.25558 0.5603 0.0
C344 C 0.87307 0.1872 0.56314 0.0
C345 C 0.83833 0.1755 0.54445 0.0
C346 C 0.81069 0.20599 0.53406 0.0
C347 C 0.78059 0.19622 0.51295 0.0
C348 C 0.75412 0.22725 0.50217 0.0
C349 C 0.75699 0.26694 0.51223 0.0
C350 C 0.78612 0.27653 0.53311 0.0
C351 C 0.81273 0.24654 0.54398 0.0
H352 H 0.83401 0.04984 0.89214 0.0
C353 C 0.80239 0.04308 0.89005 0.0
H354 H 0.74327 0.05902 0.90307 0.0
H355 H 0.80578 0.1183 0.02863 0.0
H356 H 0.75687 0.06838 0.04208 0.0
H357 H 0.72131 0.03065 0.0032 0.0
H358 H 0.73429 0.04254 0.9508 0.0
C359 C 0.77483 0.06603 0.90465 0.0
C360 C 0.7878 0.09585 0.92735 0.0
C361 C 0.77866 0.08925 0.95789 0.0
C362 C 0.79927 0.11079 0.98036 0.0
C363 C 0.79099 0.10263 0.01073 0.0
C364 C 0.76297 0.07412 0.01874 0.0
C365 C 0.74294 0.0529 -0.00315 0.0
C366 C 0.7507 0.06008 0.96677 0.0
H367 H 0.82694 0.20292 0.01021 0.0
C368 C 0.85352 0.18326 0.01256 0.0
H369 H 0.88557 0.13157 -0.00346 0.0
H370 H 0.80307 0.12393 0.87121 0.0
H371 H 0.84977 0.17634 0.85797 0.0
H372 H 0.88731 0.21189 0.89701 0.0
H373 H 0.87798 0.19567 0.94955 0.0
C374 C 0.85873 0.15095 -0.00535 0.0
C375 C 0.82874 0.13872 0.9722 0.0
C376 C 0.8344 0.14865 0.94179 0.0
C377 C 0.81346 0.12756 0.9193 0.0
C378 C 0.81923 0.13832 0.88905 0.0
C379 C 0.84568 0.16847 0.88122 0.0
C380 C 0.86679 0.18853 0.90321 0.0
C381 C 0.86133 0.17885 0.93321 0.0
H382 H 0.18995 0.09398 0.95968 0.0
C383 C 0.16831 0.08615 0.94259 0.0
H384 H 0.10773 0.09046 0.92869 0.0
H385 H 0.03163 0.12036 0.05435 0.0
H386 H 0.01413 0.05079 0.04567 0.0
H387 H 0.04341 0.01229 0.00354 0.0
H388 H 0.09008 0.04343 0.96966 0.0
C389 C 0.12993 0.09901 0.94514 0.0
C390 C 0.11555 0.12149 0.97185 0.0
C391 C 0.08906 0.10253 -0.00816 0.0
C392 C 0.07276 0.12449 0.01639 0.0
C393 C 0.04536 0.10512 0.03549 0.0
C394 C 0.035 0.0651 0.03078 0.0
C395 C 0.05144 0.04344 0.00705 0.0
C396 C 0.07814 0.06175 -0.01227 0.0
H397 H 0.03434 0.22887 0.01151 0.0
C398 C 0.03526 0.21958 0.03483 0.0
H399 H 0.06127 0.1794 0.06665 0.0
H400 H 0.16491 0.16739 0.9373 0.0
H401 H 0.18532 0.23579 0.94759 0.0
H402 H 0.16064 0.27216 -0.00776 0.0
H403 H 0.11475 0.24042 0.0266 0.0
C404 C 0.06108 0.18986 0.04362 0.0
C405 C 0.08322 0.16534 0.02093 0.0
C406 C 0.11155 0.18352 0.00196 0.0
C407 C 0.1271 0.16189 0.97696 0.0
C408 C 0.15329 0.18177 0.95725 0.0
C409 C 0.16509 0.22117 0.9628 0.0
C410 C 0.15109 0.24169 -0.01212 0.0
C411 C 0.1246 0.22325 0.0073 0.0
H412 H 0.0902 0.81778 0.01583 0.0
C413 C 0.09673 0.78742 0.02448 0.0
H414 H 0.1366 0.73628 0.02191 0.0
H415 H 0.17391 0.8059 0.89065 0.0
H416 H 0.14997 0.73875 0.87934 0.0
H417 H 0.12849 0.69313 0.91966 0.0
H418 H 0.1311 0.71425 0.9716 0.0
C419 C 0.12976 0.76722 0.01481 0.0
C420 C 0.15526 0.78726 -0.00782 0.0
C421 C 0.1546 0.77404 0.96221 0.0
C422 C 0.16657 0.80052 0.93899 0.0
C423 C 0.16466 0.78706 0.90908 0.0
C424 C 0.15113 0.74862 0.90233 0.0
C425 C 0.13905 0.72292 0.92504 0.0
C426 C 0.14057 0.73539 0.9547 0.0
H427 H 0.24159 0.88229 0.92442 0.0
C428 C 0.21312 0.89042 0.91375 0.0
H429 H 0.15133 0.87886 0.91093 0.0
H430 H 0.17201 0.81541 0.04765 0.0
H431 H 0.19732 0.88178 0.0598 0.0
H432 H 0.21293 0.93049 0.01987 0.0
H433 H 0.2044 0.91314 0.96799 0.0
C434 C 0.17987 0.87103 0.92161 0.0
C435 C 0.17901 0.84011 0.94585 0.0
C436 C 0.18388 0.85156 0.97619 0.0
C437 C 0.1731 0.8244 -0.00069 0.0
C438 C 0.17871 0.83574 0.02943 0.0
C439 C 0.1933 0.87353 0.03664 0.0
C440 C 0.2022 0.90088 0.01416 0.0
C441 C 0.19739 0.89032 0.98429 0.0
H442 H 0.76985 0.84794 0.95153 0.0
C443 C 0.79274 0.84953 0.93435 0.0
H444 H 0.8528 0.83482 0.92269 0.0
H445 H 0.91735 0.82507 0.05404 0.0
H446 H 0.93432 0.894 0.04192 0.0
H447 H 0.90788 0.92738 -0.00374 0.0
H448 H 0.86448 0.89176 0.96235 0.0
C449 C 0.8291 0.83217 0.93913 0.0
C450 C 0.84007 0.81371 0.96834 0.0
C451 C 0.86464 0.83526 -0.01179 0.0
C452 C 0.8795 0.81617 0.01464 0.0
C453 C 0.90496 0.83805 0.03371 0.0
C454 C 0.91494 0.87774 0.02704 0.0
C455 C 0.90008 0.89651 0.00132 0.0
C456 C 0.87526 0.87568 0.98204 0.0
H457 H 0.92263 0.7152 0.01429 0.0
C458 C 0.92028 0.72502 0.03739 0.0
H459 H 0.8907 0.76459 0.0676 0.0
H460 H 0.79123 0.7651 0.93589 0.0
H461 H 0.77149 0.69719 0.94927 0.0
H462 H 0.79561 0.66488 -0.00397 0.0
H463 H 0.83998 0.70024 0.0296 0.0
C464 C 0.89229 0.7532 0.0449 0.0
C465 C 0.86986 0.77549 0.02095 0.0
C466 C 0.84289 0.75503 0.00219 0.0
C467 C 0.82825 0.77404 0.97563 0.0
C468 C 0.8027 0.75232 0.9566 0.0
C469 C 0.7912 0.71331 0.964 0.0
C470 C 0.80484 0.69508 -0.0097 0.0
C471 C 0.83042 0.71556 0.00927 0.0
H472 H 0.05687 0.19825 0.71115 0.0
C473 C 0.0735 0.20036 0.69039 0.0
H474 H 0.12804 0.18697 0.66813 0.0
H475 H 0.24042 0.16681 0.78022 0.0
H476 H 0.26828 0.22494 0.75548 0.0
H477 H 0.23366 0.25733 0.71246 0.0
H478 H 0.17122 0.23144 0.69368 0.0
C479 C 0.11137 0.18533 0.6889 0.0
C480 C 0.13169 0.16589 0.71516 0.0
C481 C 0.16778 0.18191 0.72622 0.0
C482 C 0.18723 0.16382 0.75148 0.0
C483 C 0.22389 0.17977 0.76149 0.0
C484 C 0.24032 0.2131 0.74745 0.0
C485 C 0.22086 0.2313 0.7232 0.0
C486 C 0.18504 0.21605 0.71262 0.0
H487 H 0.19702 0.05323 0.77442 0.0
C488 C 0.20284 0.07271 0.79334 0.0
H489 H 0.19643 0.13143 0.81151 0.0
H490 H 0.06792 0.12162 0.69606 0.0
H491 H 0.03726 0.06678 0.72279 0.0
H492 H 0.06488 0.04256 0.77103 0.0
H493 H 0.12423 0.07196 0.79208 0.0
C494 C 0.19062 0.1119 0.79261 0.0
C495 C 0.17004 0.13034 0.76608 0.0
C496 C 0.13331 0.11499 0.75548 0.0
C497 C 0.11529 0.13141 0.72911 0.0
C498 C 0.08122 0.11245 0.71715 0.0
C499 C 0.06353 0.08057 0.73211 0.0
C500 C 0.07922 0.06677 0.75915 0.0
C501 C 0.11364 0.08367 0.77082 0.0
H502 H 0.04352 0.8264 0.18058 0.0
C503 C 0.05413 0.79717 0.17208 0.0
H504 H 0.09772 0.74945 0.17709 0.0
H505 H 0.16999 0.91573 0.23951 0.0
H506 H 0.18367 0.93501 0.18837 0.0
H507 H 0.16381 0.8916 0.14646 0.0
H508 H 0.12958 0.82881 0.15556 0.0
C509 C 0.08634 0.77874 0.18484 0.0
C510 C 0.10714 0.79898 0.2098 0.0
C511 C 0.1288 0.83452 0.20421 0.0
C512 C 0.14139 0.85882 0.22842 0.0
C513 C 0.1607 0.89549 0.22208 0.0
C514 C 0.16862 0.90702 0.19278 0.0
C515 C 0.15736 0.88263 0.16918 0.0
C516 C 0.13758 0.84682 0.17469 0.0
H517 H 0.20302 0.86928 0.28348 0.0
C518 C 0.1765 0.88284 0.29395 0.0
H519 H 0.11313 0.88669 0.29459 0.0
H520 H 0.07203 0.72935 0.22781 0.0
H521 H 0.06213 0.70733 0.27906 0.0
H522 H 0.08531 0.74854 0.32122 0.0
H523 H 0.11839 0.81206 0.31244 0.0
C524 C 0.13982 0.87473 0.2834 0.0
C525 C 0.13335 0.84666 0.25815 0.0
C526 C 0.11486 0.80925 0.26368 0.0
C527 C 0.10178 0.78533 0.23944 0.0
C528 C 0.08254 0.74859 0.24552 0.0
C529 C 0.07676 0.7356 0.27478 0.0
C530 C 0.08978 0.75882 0.29852 0.0
C531 C 0.1086 0.79526 0.29318 0.0
H532 H 0.89854 0.76009 0.69205 0.0
C533 C 0.87919 0.74641 0.67557 0.0
H534 H 0.81954 0.73896 0.66107 0.0
H535 H 0.81242 0.80879 0.80204 0.0
H536 H 0.84302 0.74412 0.81644 0.0
H537 H 0.86248 0.6934 0.77842 0.0
H538 H 0.85212 0.70754 0.72571 0.0
C539 C 0.83917 0.75086 0.67813 0.0
C540 C 0.82134 0.77804 0.70126 0.0
C541 C 0.8258 0.76848 0.73199 0.0
C542 C 0.81277 0.79692 0.75392 0.0
C543 C 0.82007 0.78768 0.78442 0.0
C544 C 0.83791 0.75073 0.79302 0.0
C545 C 0.84901 0.72225 0.77162 0.0
C546 C 0.84312 0.73085 0.74143 0.0
H547 H 0.73401 0.82687 0.78417 0.0
C548 C 0.74884 0.85563 0.78607 0.0
H549 H 0.79432 0.8925 0.76914 0.0
H550 H 0.80733 0.80547 0.64413 0.0
H551 H 0.774 0.86884 0.62977 0.0
H552 H 0.74863 0.91679 0.6679 0.0
H553 H 0.75681 0.90173 0.72066 0.0
C554 C 0.77939 0.86376 0.76779 0.0
C555 C 0.79345 0.83398 0.74503 0.0
C556 C 0.78788 0.84296 0.71433 0.0
C557 C 0.80193 0.81502 0.69239 0.0
C558 C 0.79679 0.82525 0.66182 0.0
C559 C 0.77774 0.86161 0.65323 0.0
C560 C 0.7635 0.88862 0.67469 0.0
C561 C 0.76844 0.8796 0.7049 0.0
H562 H 0.74998 0.11081 0.28747 0.0
C563 C 0.77557 0.09595 0.29849 0.0
H564 H 0.83834 0.08507 0.29797 0.0
H565 H 0.81422 0.12975 0.15566 0.0
H566 H 0.77475 0.06927 0.15235 0.0
H567 H 0.75638 0.03167 0.19777 0.0
H568 H 0.77676 0.0546 0.24671 0.0
C569 C 0.81229 0.09812 0.28639 0.0
C570 C 0.8199 0.12208 0.25897 0.0
C571 C 0.80821 0.10769 0.23057 0.0
C572 C 0.82007 0.12845 0.20433 0.0
C573 C 0.80715 0.11425 0.17622 0.0
C574 C 0.78429 0.07976 0.17403 0.0
C575 C 0.77385 0.05866 0.19961 0.0
C576 C 0.78565 0.07226 0.22761 0.0
H577 H 0.8989 0.12631 0.17231 0.0
C578 C 0.89153 0.15693 0.16458 0.0
H579 H 0.85639 0.21027 0.17254 0.0
H580 H 0.84291 0.16034 0.31006 0.0
H581 H 0.8816 0.22132 0.31317 0.0
H582 H 0.9038 0.25612 0.26753 0.0
H583 H 0.8873 0.23027 0.2185 0.0
C584 C 0.86387 0.17934 0.17939 0.0
C585 C 0.84477 0.16257 0.20654 0.0
C586 C 0.85424 0.17841 0.23493 0.0
C587 C 0.84181 0.1581 0.2612 0.0
C588 C 0.85202 0.1743 0.28935 0.0
C589 C 0.87411 0.20934 0.29146 0.0
C590 C 0.88658 0.22895 0.26577 0.0
C591 C 0.87693 0.21377 0.23776 0.0
loop_
_geom_bond_atom_site_label_1
_geom_bond_atom_site_label_2
_geom_bond_distance
_geom_bond_site_symmetry_2
_ccdc_geom_bond_type
C0 O1 1.306 . S
C0 O3 1.160 . S
O1 C0 1.306 . S
O1 Cd2 2.228 . S
Cd2 O1 2.228 . S
Cd2 O6 2.273 . S
Cd2 O10 2.277 . S
O3 C0 1.160 . S
O3 Cd4 2.203 . S
Cd4 O3 2.203 . S
Cd4 O6 2.411 . S
Cd4 O7 2.333 . S
Cd4 O8 2.352 . S
Cd4 O12 2.277 . S
Cd4 O13 2.356 . S
C5 O10 1.209 . S
C5 O12 1.226 . S
O6 Cd2 2.273 . S
O6 Cd4 2.411 . S
O6 C9 1.320 . S
O7 Cd4 2.333 . S
O7 C9 1.214 . S
O8 Cd4 2.352 . S
O8 C11 1.258 . S
C9 O6 1.320 . S
C9 O7 1.214 . S
O10 Cd2 2.277 . S
O10 C5 1.209 . S
C11 O8 1.258 . S
C11 O13 1.282 . S
O12 Cd4 2.277 . S
O12 C5 1.226 . S
O13 Cd4 2.356 . S
O13 C11 1.282 . S
C14 O15 1.306 . S
C14 O17 1.160 . S
O15 C14 1.306 . S
O15 Cd16 2.228 . S
Cd16 O15 2.228 . S
Cd16 O20 2.273 . S
Cd16 O24 2.277 . S
O17 C14 1.160 . S
O17 Cd18 2.203 . S
Cd18 O17 2.203 . S
Cd18 O20 2.411 . S
Cd18 O21 2.333 . S
Cd18 O22 2.352 . S
Cd18 O26 2.277 . S
Cd18 O27 2.356 . S
C19 O24 1.209 . S
C19 O26 1.226 . S
O20 Cd16 2.273 . S
O20 Cd18 2.411 . S
O20 C23 1.320 . S
O21 Cd18 2.333 . S
O21 C23 1.214 . S
O22 Cd18 2.352 . S
O22 C25 1.258 . S
C23 O20 1.320 . S
C23 O21 1.214 . S
O24 Cd16 2.277 . S
O24 C19 1.209 . S
C25 O22 1.258 . S
C25 O27 1.282 . S
O26 Cd18 2.277 . S
O26 C19 1.226 . S
O27 Cd18 2.356 . S
O27 C25 1.282 . S
C28 O29 1.306 . S
C28 O31 1.160 . S
O29 C28 1.306 . S
O29 Cd30 2.228 . S
Cd30 O29 2.228 . S
Cd30 O34 2.273 . S
Cd30 O38 2.277 . S
O31 C28 1.160 . S
O31 Cd32 2.203 . S
Cd32 O31 2.203 . S
Cd32 O34 2.411 . S
Cd32 O35 2.333 . S
Cd32 O36 2.352 . S
Cd32 O40 2.277 . S
Cd32 O41 2.356 . S
C33 O38 1.209 . S
C33 O40 1.226 . S
O34 Cd30 2.273 . S
O34 Cd32 2.411 . S
O34 C37 1.320 . S
O35 Cd32 2.333 . S
O35 C37 1.214 . S
O36 Cd32 2.352 . S
O36 C39 1.258 . S
C37 O34 1.320 . S
C37 O35 1.214 . S
O38 Cd30 2.277 . S
O38 C33 1.209 . S
C39 O36 1.258 . S
C39 O41 1.282 . S
O40 Cd32 2.277 . S
O40 C33 1.226 . S
O41 Cd32 2.356 . S
O41 C39 1.282 . S
C42 O43 1.306 . S
C42 O45 1.160 . S
O43 C42 1.306 . S
O43 Cd44 2.228 . S
Cd44 O43 2.228 . S
Cd44 O48 2.273 . S
Cd44 O52 2.277 . S
O45 C42 1.160 . S
O45 Cd46 2.203 . S
Cd46 O45 2.203 . S
Cd46 O48 2.411 . S
Cd46 O49 2.333 . S
Cd46 O50 2.352 . S
Cd46 O54 2.277 . S
Cd46 O55 2.356 . S
C47 O52 1.209 . S
C47 O54 1.226 . S
O48 Cd44 2.273 . S
O48 Cd46 2.411 . S
O48 C51 1.320 . S
O49 Cd46 2.333 . S
O49 C51 1.214 . S
O50 Cd46 2.352 . S
O50 C53 1.258 . S
C51 O48 1.320 . S
C51 O49 1.214 . S
O52 Cd44 2.277 . S
O52 C47 1.209 . S
C53 O50 1.258 . S
C53 O55 1.282 . S
O54 Cd46 2.277 . S
O54 C47 1.226 . S
O55 Cd46 2.356 . S
O55 C53 1.282 . S
C56 O57 1.306 . S
C56 O59 1.160 . S
O57 C56 1.306 . S
O57 Cd58 2.228 . S
Cd58 O57 2.228 . S
Cd58 O62 2.273 . S
Cd58 O66 2.277 . S
O59 C56 1.160 . S
O59 Cd60 2.203 . S
Cd60 O59 2.203 . S
Cd60 O62 2.411 . S
Cd60 O63 2.333 . S
Cd60 O64 2.352 . S
Cd60 O68 2.277 . S
Cd60 O69 2.356 . S
C61 O66 1.209 . S
C61 O68 1.226 . S
O62 Cd58 2.273 . S
O62 Cd60 2.411 . S
O62 C65 1.320 . S
O63 Cd60 2.333 . S
O63 C65 1.214 . S
O64 Cd60 2.352 . S
O64 C67 1.258 . S
C65 O62 1.320 . S
C65 O63 1.214 . S
O66 Cd58 2.277 . S
O66 C61 1.209 . S
C67 O64 1.258 . S
C67 O69 1.282 . S
O68 Cd60 2.277 . S
O68 C61 1.226 . S
O69 Cd60 2.356 . S
O69 C67 1.282 . S
C70 O71 1.306 . S
C70 O73 1.160 . S
O71 C70 1.306 . S
O71 Cd72 2.228 . S
Cd72 O71 2.228 . S
Cd72 O76 2.273 . S
Cd72 O80 2.277 . S
O73 C70 1.160 . S
O73 Cd74 2.203 . S
Cd74 O73 2.203 . S
Cd74 O76 2.411 . S
Cd74 O77 2.333 . S
Cd74 O78 2.352 . S
Cd74 O82 2.277 . S
Cd74 O83 2.356 . S
C75 O80 1.209 . S
C75 O82 1.226 . S
O76 Cd72 2.273 . S
O76 Cd74 2.411 . S
O76 C79 1.320 . S
O77 Cd74 2.333 . S
O77 C79 1.214 . S
O78 Cd74 2.352 . S
O78 C81 1.258 . S
C79 O76 1.320 . S
C79 O77 1.214 . S
O80 Cd72 2.277 . S
O80 C75 1.209 . S
C81 O78 1.258 . S
C81 O83 1.282 . S
O82 Cd74 2.277 . S
O82 C75 1.226 . S
O83 Cd74 2.356 . S
O83 C81 1.282 . S
C84 O85 1.306 . S
C84 O87 1.160 . S
O85 C84 1.306 . S
O85 Cd86 2.228 . S
Cd86 O85 2.228 . S
Cd86 O90 2.273 . S
Cd86 O94 2.277 . S
O87 C84 1.160 . S
O87 Cd88 2.203 . S
Cd88 O87 2.203 . S
Cd88 O90 2.411 . S
Cd88 O91 2.333 . S
Cd88 O92 2.352 . S
Cd88 O96 2.277 . S
Cd88 O97 2.356 . S
C89 O94 1.209 . S
C89 O96 1.226 . S
O90 Cd86 2.273 . S
O90 Cd88 2.411 . S
O90 C93 1.320 . S
O91 Cd88 2.333 . S
O91 C93 1.214 . S
O92 Cd88 2.352 . S
O92 C95 1.258 . S
C93 O90 1.320 . S
C93 O91 1.214 . S
O94 Cd86 2.277 . S
O94 C89 1.209 . S
C95 O92 1.258 . S
C95 O97 1.282 . S
O96 Cd88 2.277 . S
O96 C89 1.226 . S
O97 Cd88 2.356 . S
O97 C95 1.282 . S
C98 O99 1.306 . S
C98 O101 1.160 . S
O99 C98 1.306 . S
O99 Cd100 2.228 . S
Cd100 O99 2.228 . S
Cd100 O104 2.273 . S
Cd100 O108 2.277 . S
O101 C98 1.160 . S
O101 Cd102 2.203 . S
Cd102 O101 2.203 . S
Cd102 O104 2.411 . S
Cd102 O105 2.333 . S
Cd102 O106 2.352 . S
Cd102 O110 2.277 . S
Cd102 O111 2.356 . S
C103 O108 1.209 . S
C103 O110 1.226 . S
O104 Cd100 2.273 . S
O104 Cd102 2.411 . S
O104 C107 1.320 . S
O105 Cd102 2.333 . S
O105 C107 1.214 . S
O106 Cd102 2.352 . S
O106 C109 1.258 . S
C107 O104 1.320 . S
C107 O105 1.214 . S
O108 Cd100 2.277 . S
O108 C103 1.209 . S
C109 O106 1.258 . S
C109 O111 1.282 . S
O110 Cd102 2.277 . S
O110 C103 1.226 . S
O111 Cd102 2.356 . S
O111 C109 1.282 . S
H112 C113 0.951 . S
C113 H112 0.951 . S
C113 C119 1.265 . S
H114 C119 0.950 . S
H115 C123 0.949 . S
H116 C124 0.950 . S
H117 C125 0.951 . S
H118 C126 0.951 . S
C119 C113 1.265 . S
C119 H114 0.950 . S
C119 C120 1.478 . S
C120 C119 1.478 . S
C120 C121 1.397 1_655 S
C120 C137 1.394 . S
C121 C120 1.397 1_455 S
C121 C122 1.438 . S
C121 C126 1.429 . S
C122 C121 1.438 . S
C122 C123 1.428 . S
C122 C135 1.394 . S
C123 H115 0.949 . S
C123 C122 1.428 . S
C123 C124 1.345 . S
C124 H116 0.950 . S
C124 C123 1.345 . S
C124 C125 1.424 . S
C125 H117 0.951 . S
C125 C124 1.424 . S
C125 C126 1.347 . S
C126 H118 0.951 . S
C126 C121 1.429 . S
C126 C125 1.347 . S
H127 C128 0.951 . S
C128 H127 0.951 . S
C128 C134 1.265 . S
H129 C134 0.950 . S
H130 C138 0.949 . S
H131 C139 0.950 . S
H132 C140 0.951 . S
H133 C141 0.951 . S
C134 C128 1.265 . S
C134 H129 0.950 . S
C134 C135 1.478 . S
C135 C122 1.394 . S
C135 C134 1.478 . S
C135 C136 1.397 1_455 S
C136 C135 1.397 1_655 S
C136 C137 1.438 . S
C136 C141 1.429 . S
C137 C120 1.394 . S
C137 C136 1.438 . S
C137 C138 1.428 . S
C138 H130 0.949 . S
C138 C137 1.428 . S
C138 C139 1.345 . S
C139 H131 0.950 . S
C139 C138 1.345 . S
C139 C140 1.424 . S
C140 H132 0.951 . S
C140 C139 1.424 . S
C140 C141 1.347 . S
C141 H133 0.951 . S
C141 C136 1.429 . S
C141 C140 1.347 . S
H142 C143 0.951 . S
C143 H142 0.951 . S
C143 C149 1.265 . S
H144 C149 0.950 . S
H145 C153 0.949 . S
H146 C154 0.950 . S
H147 C155 0.951 . S
H148 C156 0.951 . S
C149 C143 1.265 . S
C149 H144 0.950 . S
C149 C150 1.478 . S
C150 C149 1.478 . S
C150 C151 1.397 1_545 S
C150 C167 1.394 . S
C151 C150 1.397 1_565 S
C151 C152 1.438 . S
C151 C156 1.429 . S
C152 C151 1.438 . S
C152 C153 1.428 . S
C152 C165 1.394 . S
C153 H145 0.949 . S
C153 C152 1.428 . S
C153 C154 1.345 . S
C154 H146 0.950 . S
C154 C153 1.345 . S
C154 C155 1.424 . S
C155 H147 0.951 . S
C155 C154 1.424 . S
C155 C156 1.347 . S
C156 H148 0.951 . S
C156 C151 1.429 . S
C156 C155 1.347 . S
H157 C158 0.951 . S
C158 H157 0.951 . S
C158 C164 1.265 . S
H159 C164 0.950 . S
H160 C168 0.949 . S
H161 C169 0.950 . S
H162 C170 0.951 . S
H163 C171 0.951 . S
C164 C158 1.265 . S
C164 H159 0.950 . S
C164 C165 1.478 . S
C165 C152 1.394 . S
C165 C164 1.478 . S
C165 C166 1.397 1_565 S
C166 C165 1.397 1_545 S
C166 C167 1.438 . S
C166 C171 1.429 . S
C167 C150 1.394 . S
C167 C166 1.438 . S
C167 C168 1.428 . S
C168 H160 0.949 . S
C168 C167 1.428 . S
C168 C169 1.345 . S
C169 H161 0.950 . S
C169 C168 1.345 . S
C169 C170 1.424 . S
C170 H162 0.951 . S
C170 C169 1.424 . S
C170 C171 1.347 . S
C171 H163 0.951 . S
C171 C166 1.429 . S
C171 C170 1.347 . S
H172 C173 0.951 . S
C173 H172 0.951 . S
C173 C179 1.265 . S
H174 C179 0.950 . S
H175 C183 0.949 . S
H176 C184 0.950 1_556 S
H177 C185 0.951 1_556 S
H178 C186 0.951 1_655 S
C179 C173 1.265 . S
C179 H174 0.950 . S
C179 C180 1.478 . S
C180 C179 1.478 . S
C180 C181 1.397 1_655 S
C180 C197 1.394 . S
C181 C180 1.397 1_455 S
C181 C182 1.438 . S
C181 C186 1.429 . S
C182 C181 1.438 . S
C182 C183 1.428 . S
C182 C195 1.394 . S
C183 H175 0.949 . S
C183 C182 1.428 . S
C183 C184 1.345 . S
C184 H176 0.950 1_554 S
C184 C183 1.345 . S
C184 C185 1.424 . S
C185 H177 0.951 1_554 S
C185 C184 1.424 . S
C185 C186 1.347 . S
C186 H178 0.951 1_455 S
C186 C181 1.429 . S
C186 C185 1.347 . S
H187 C188 0.951 . S
C188 H187 0.951 . S
C188 C194 1.265 . S
H189 C194 0.950 . S
H190 C198 0.949 . S
H191 C199 0.950 . S
H192 C200 0.951 . S
H193 C201 0.951 1_455 S
C194 C188 1.265 . S
C194 H189 0.950 . S
C194 C195 1.478 . S
C195 C182 1.394 . S
C195 C194 1.478 . S
C195 C196 1.397 1_455 S
C196 C195 1.397 1_655 S
C196 C197 1.438 . S
C196 C201 1.429 . S
C197 C180 1.394 . S
C197 C196 1.438 . S
C197 C198 1.428 . S
C198 H190 0.949 . S
C198 C197 1.428 . S
C198 C199 1.345 . S
C199 H191 0.950 . S
C199 C198 1.345 . S
C199 C200 1.424 . S
C200 H192 0.951 . S
C200 C199 1.424 . S
C200 C201 1.347 . S
C201 H193 0.951 1_655 S
C201 C196 1.429 . S
C201 C200 1.347 . S
H202 C203 0.951 . S
C203 H202 0.951 . S
C203 C209 1.265 . S
H204 C209 0.950 . S
H205 C213 0.949 . S
H206 C214 0.950 . S
H207 C215 0.951 . S
H208 C216 0.951 . S
C209 C203 1.265 . S
C209 H204 0.950 . S
C209 C210 1.478 . S
C210 C209 1.478 . S
C210 C211 1.397 1_545 S
C210 C227 1.394 . S
C211 C210 1.397 1_565 S
C211 C212 1.438 . S
C211 C216 1.429 . S
C212 C211 1.438 . S
C212 C213 1.428 . S
C212 C225 1.394 . S
C213 H205 0.949 . S
C213 C212 1.428 . S
C213 C214 1.345 . S
C214 H206 0.950 . S
C214 C213 1.345 . S
C214 C215 1.424 . S
C215 H207 0.951 . S
C215 C214 1.424 . S
C215 C216 1.347 . S
C216 H208 0.951 . S
C216 C211 1.429 . S
C216 C215 1.347 . S
H217 C218 0.951 . S
C218 H217 0.951 . S
C218 C224 1.265 . S
H219 C224 0.950 . S
H220 C228 0.949 . S
H221 C229 0.950 . S
H222 C230 0.951 . S
H223 C231 0.951 . S
C224 C218 1.265 . S
C224 H219 0.950 . S
C224 C225 1.478 . S
C225 C212 1.394 . S
C225 C224 1.478 . S
C225 C226 1.397 1_565 S
C226 C225 1.397 1_545 S
C226 C227 1.438 . S
C226 C231 1.429 . S
C227 C210 1.394 . S
C227 C226 1.438 . S
C227 C228 1.428 . S
C228 H220 0.949 . S
C228 C227 1.428 . S
C228 C229 1.345 . S
C229 H221 0.950 . S
C229 C228 1.345 . S
C229 C230 1.424 . S
C230 H222 0.951 . S
C230 C229 1.424 . S
C230 C231 1.347 . S
C231 H223 0.951 . S
C231 C226 1.429 . S
C231 C230 1.347 . S
H232 C233 0.951 . S
C233 H232 0.951 . S
C233 C239 1.265 . S
H234 C239 0.950 1_565 S
H235 C243 0.949 . S
H236 C244 0.950 . S
H237 C245 0.951 . S
H238 C246 0.951 . S
C239 C233 1.265 . S
C239 H234 0.950 1_545 S
C239 C240 1.478 . S
C240 C239 1.478 . S
C240 C241 1.397 . S
C240 C257 1.394 . S
C241 C240 1.397 . S
C241 C242 1.438 . S
C241 C246 1.429 . S
C242 C241 1.438 . S
C242 C243 1.428 . S
C242 C255 1.394 . S
C243 H235 0.949 . S
C243 C242 1.428 . S
C243 C244 1.345 . S
C244 H236 0.950 . S
C244 C243 1.345 . S
C244 C245 1.424 . S
C245 H237 0.951 . S
C245 C244 1.424 . S
C245 C246 1.347 . S
C246 H238 0.951 . S
C246 C241 1.429 . S
C246 C245 1.347 . S
H247 C248 0.951 . S
C248 H247 0.951 . S
C248 C254 1.265 . S
H249 C254 0.950 . S
H250 C258 0.949 . S
H251 C259 0.950 . S
H252 C260 0.951 . S
H253 C261 0.951 . S
C254 C248 1.265 . S
C254 H249 0.950 . S
C254 C255 1.478 . S
C255 C242 1.394 . S
C255 C254 1.478 . S
C255 C256 1.397 . S
C256 C255 1.397 . S
C256 C257 1.438 . S
C256 C261 1.429 . S
C257 C240 1.394 . S
C257 C256 1.438 . S
C257 C258 1.428 . S
C258 H250 0.949 . S
C258 C257 1.428 . S
C258 C259 1.345 . S
C259 H251 0.950 . S
C259 C258 1.345 . S
C259 C260 1.424 . S
C260 H252 0.951 . S
C260 C259 1.424 . S
C260 C261 1.347 . S
C261 H253 0.951 . S
C261 C256 1.429 . S
C261 C260 1.347 . S
H262 C263 0.951 . S
C263 H262 0.951 . S
C263 C269 1.265 . S
H264 C269 0.950 . S
H265 C273 0.949 . S
H266 C274 0.950 . S
H267 C275 0.951 . S
H268 C276 0.951 . S
C269 C263 1.265 . S
C269 H264 0.950 . S
C269 C270 1.478 . S
C270 C269 1.478 . S
C270 C271 1.397 . S
C270 C287 1.394 . S
C271 C270 1.397 . S
C271 C272 1.438 . S
C271 C276 1.429 . S
C272 C271 1.438 . S
C272 C273 1.428 . S
C272 C285 1.394 . S
C273 H265 0.949 . S
C273 C272 1.428 . S
C273 C274 1.345 . S
C274 H266 0.950 . S
C274 C273 1.345 . S
C274 C275 1.424 . S
C275 H267 0.951 . S
C275 C274 1.424 . S
C275 C276 1.347 . S
C276 H268 0.951 . S
C276 C271 1.429 . S
C276 C275 1.347 . S
H277 C278 0.951 . S
C278 H277 0.951 . S
C278 C284 1.265 . S
H279 C284 0.950 . S
H280 C288 0.949 . S
H281 C289 0.950 . S
H282 C290 0.951 . S
H283 C291 0.951 . S
C284 C278 1.265 . S
C284 H279 0.950 . S
C284 C285 1.478 . S
C285 C272 1.394 . S
C285 C284 1.478 . S
C285 C286 1.397 . S
C286 C285 1.397 . S
C286 C287 1.438 . S
C286 C291 1.429 . S
C287 C270 1.394 . S
C287 C286 1.438 . S
C287 C288 1.428 . S
C288 H280 0.949 . S
C288 C287 1.428 . S
C288 C289 1.345 . S
C289 H281 0.950 . S
C289 C288 1.345 . S
C289 C290 1.424 . S
C290 H282 0.951 . S
C290 C289 1.424 . S
C290 C291 1.347 . S
C291 H283 0.951 . S
C291 C286 1.429 . S
C291 C290 1.347 . S
H292 C293 0.948 1_565 S
C293 H292 0.948 1_545 S
C293 C299 1.260 1_545 S
H294 C299 0.950 . S
H295 C303 0.949 . S
H296 C304 0.950 . S
H297 C305 0.951 1_545 S
H298 C306 0.951 1_545 S
C299 C293 1.260 1_565 S
C299 H294 0.950 . S
C299 C300 1.478 . S
C300 C299 1.478 . S
C300 C301 1.397 . S
C300 C317 1.394 . S
C301 C300 1.397 . S
C301 C302 1.438 . S
C301 C306 1.429 . S
C302 C301 1.438 . S
C302 C303 1.428 . S
C302 C315 1.394 . S
C303 H295 0.949 . S
C303 C302 1.428 . S
C303 C304 1.345 . S
C304 H296 0.950 . S
C304 C303 1.345 . S
C304 C305 1.424 . S
C305 H297 0.951 1_565 S
C305 C304 1.424 . S
C305 C306 1.347 . S
C306 H298 0.951 1_565 S
C306 C301 1.429 . S
C306 C305 1.347 . S
H307 C308 0.951 . S
C308 H307 0.951 . S
C308 C314 1.265 . S
H309 C314 0.950 . S
H310 C318 0.949 . S
H311 C319 0.950 . S
H312 C320 0.951 . S
H313 C321 0.951 . S
C314 C308 1.265 . S
C314 H309 0.950 . S
C314 C315 1.478 . S
C315 C302 1.394 . S
C315 C314 1.478 . S
C315 C316 1.397 . S
C316 C315 1.397 . S
C316 C317 1.438 . S
C316 C321 1.429 . S
C317 C300 1.394 . S
C317 C316 1.438 . S
C317 C318 1.428 . S
C318 H310 0.949 . S
C318 C317 1.428 . S
C318 C319 1.345 . S
C319 H311 0.950 . S
C319 C318 1.345 . S
C319 C320 1.424 . S
C320 H312 0.951 . S
C320 C319 1.424 . S
C320 C321 1.347 . S
C321 H313 0.951 . S
C321 C316 1.429 . S
C321 C320 1.347 . S
H322 C323 0.951 . S
C323 H322 0.951 . S
C323 C329 1.265 . S
H324 C329 0.950 . S
H325 C333 0.949 . S
H326 C334 0.950 . S
H327 C335 0.951 . S
H328 C336 0.951 . S
C329 C323 1.265 . S
C329 H324 0.950 . S
C329 C330 1.478 . S
C330 C329 1.478 . S
C330 C331 1.397 . S
C330 C347 1.394 . S
C331 C330 1.397 . S
C331 C332 1.438 . S
C331 C336 1.429 . S
C332 C331 1.438 . S
C332 C333 1.428 . S
C332 C345 1.394 . S
C333 H325 0.949 . S
C333 C332 1.428 . S
C333 C334 1.345 . S
C334 H326 0.950 . S
C334 C333 1.345 . S
C334 C335 1.424 . S
C335 H327 0.951 . S
C335 C334 1.424 . S
C335 C336 1.347 . S
C336 H328 0.951 . S
C336 C331 1.429 . S
C336 C335 1.347 . S
H337 C338 0.951 . S
C338 H337 0.951 . S
C338 C344 1.265 . S
H339 C344 0.950 . S
H340 C348 0.949 . S
H341 C349 0.950 . S
H342 C350 0.951 . S
H343 C351 0.951 . S
C344 C338 1.265 . S
C344 H339 0.950 . S
C344 C345 1.478 . S
C345 C332 1.394 . S
C345 C344 1.478 . S
C345 C346 1.397 . S
C346 C345 1.397 . S
C346 C347 1.438 . S
C346 C351 1.429 . S
C347 C330 1.394 . S
C347 C346 1.438 . S
C347 C348 1.428 . S
C348 H340 0.949 . S
C348 C347 1.428 . S
C348 C349 1.345 . S
C349 H341 0.950 . S
C349 C348 1.345 . S
C349 C350 1.424 . S
C350 H342 0.951 . S
C350 C349 1.424 . S
C350 C351 1.347 . S
C351 H343 0.951 . S
C351 C346 1.429 . S
C351 C350 1.347 . S
H352 C353 0.951 . S
C353 H352 0.951 . S
C353 C359 1.265 . S
H354 C359 0.950 . S
H355 C363 0.949 . S
H356 C364 0.950 . S
H357 C365 0.951 . S
H358 C366 0.951 . S
C359 C353 1.265 . S
C359 H354 0.950 . S
C359 C360 1.478 . S
C360 C359 1.478 . S
C360 C361 1.397 1_556 S
C360 C377 1.394 . S
C361 C360 1.397 1_554 S
C361 C362 1.438 . S
C361 C366 1.429 . S
C362 C361 1.438 . S
C362 C363 1.428 . S
C362 C375 1.394 . S
C363 H355 0.949 . S
C363 C362 1.428 . S
C363 C364 1.345 . S
C364 H356 0.950 . S
C364 C363 1.345 . S
C364 C365 1.424 . S
C365 H357 0.951 . S
C365 C364 1.424 . S
C365 C366 1.347 . S
C366 H358 0.951 . S
C366 C361 1.429 . S
C366 C365 1.347 . S
H367 C368 0.951 . S
C368 H367 0.951 . S
C368 C374 1.265 . S
H369 C374 0.950 . S
H370 C378 0.949 . S
H371 C379 0.950 . S
H372 C380 0.951 . S
H373 C381 0.951 . S
C374 C368 1.265 . S
C374 H369 0.950 . S
C374 C375 1.478 . S
C375 C362 1.394 . S
C375 C374 1.478 . S
C375 C376 1.397 1_554 S
C376 C375 1.397 1_556 S
C376 C377 1.438 . S
C376 C381 1.429 . S
C377 C360 1.394 . S
C377 C376 1.438 . S
C377 C378 1.428 . S
C378 H370 0.949 . S
C378 C377 1.428 . S
C378 C379 1.345 . S
C379 H371 0.950 . S
C379 C378 1.345 . S
C379 C380 1.424 . S
C380 H372 0.951 . S
C380 C379 1.424 . S
C380 C381 1.347 . S
C381 H373 0.951 . S
C381 C376 1.429 . S
C381 C380 1.347 . S
H382 C383 0.951 . S
C383 H382 0.951 . S
C383 C389 1.265 . S
H384 C389 0.950 . S
H385 C393 0.949 . S
H386 C394 0.950 . S
H387 C395 0.951 . S
H388 C396 0.951 . S
C389 C383 1.265 . S
C389 H384 0.950 . S
C389 C390 1.478 . S
C390 C389 1.478 . S
C390 C391 1.397 . S
C390 C407 1.394 . S
C391 C390 1.397 . S
C391 C392 1.438 1_556 S
C391 C396 1.429 . S
C392 C391 1.438 1_554 S
C392 C393 1.428 . S
C392 C405 1.394 . S
C393 H385 0.949 . S
C393 C392 1.428 . S
C393 C394 1.345 . S
C394 H386 0.950 . S
C394 C393 1.345 . S
C394 C395 1.424 1_554 S
C395 H387 0.951 . S
C395 C394 1.424 1_556 S
C395 C396 1.347 . S
C396 H388 0.951 . S
C396 C391 1.429 . S
C396 C395 1.347 . S
H397 C398 0.951 . S
C398 H397 0.951 . S
C398 C404 1.265 1_655 S
H399 C404 0.950 . S
H400 C408 0.949 . S
H401 C409 0.950 . S
H402 C410 0.951 . S
H403 C411 0.951 . S
C404 C398 1.265 1_455 S
C404 H399 0.950 . S
C404 C405 1.478 . S
C405 C392 1.394 . S
C405 C404 1.478 . S
C405 C406 1.397 . S
C406 C405 1.397 . S
C406 C407 1.438 1_554 S
C406 C411 1.429 . S
C407 C390 1.394 . S
C407 C406 1.438 1_556 S
C407 C408 1.428 . S
C408 H400 0.949 . S
C408 C407 1.428 . S
C408 C409 1.345 . S
C409 H401 0.950 . S
C409 C408 1.345 . S
C409 C410 1.424 1_556 S
C410 H402 0.951 . S
C410 C409 1.424 1_554 S
C410 C411 1.347 . S
C411 H403 0.951 . S
C411 C406 1.429 . S
C411 C410 1.347 . S
H412 C413 0.951 . S
C413 H412 0.951 . S
C413 C419 1.265 . S
H414 C419 0.950 . S
H415 C423 0.949 . S
H416 C424 0.950 . S
H417 C425 0.951 . S
H418 C426 0.951 . S
C419 C413 1.265 . S
C419 H414 0.950 . S
C419 C420 1.478 . S
C420 C419 1.478 . S
C420 C421 1.397 1_554 S
C420 C437 1.394 . S
C421 C420 1.397 1_556 S
C421 C422 1.438 . S
C421 C426 1.429 . S
C422 C421 1.438 . S
C422 C423 1.428 . S
C422 C435 1.394 . S
C423 H415 0.949 . S
C423 C422 1.428 . S
C423 C424 1.345 . S
C424 H416 0.950 . S
C424 C423 1.345 . S
C424 C425 1.424 . S
C425 H417 0.951 . S
C425 C424 1.424 . S
C425 C426 1.347 . S
C426 H418 0.951 . S
C426 C421 1.429 . S
C426 C425 1.347 . S
H427 C428 0.951 . S
C428 H427 0.951 . S
C428 C434 1.265 . S
H429 C434 0.950 . S
H430 C438 0.949 . S
H431 C439 0.950 . S
H432 C440 0.951 . S
H433 C441 0.951 . S
C434 C428 1.265 . S
C434 H429 0.950 . S
C434 C435 1.478 . S
C435 C422 1.394 . S
C435 C434 1.478 . S
C435 C436 1.397 1_556 S
C436 C435 1.397 1_554 S
C436 C437 1.438 . S
C436 C441 1.429 . S
C437 C420 1.394 . S
C437 C436 1.438 . S
C437 C438 1.428 . S
C438 H430 0.949 . S
C438 C437 1.428 . S
C438 C439 1.345 . S
C439 H431 0.950 . S
C439 C438 1.345 . S
C439 C440 1.424 . S
C440 H432 0.951 . S
C440 C439 1.424 . S
C440 C441 1.347 . S
C441 H433 0.951 . S
C441 C436 1.429 . S
C441 C440 1.347 . S
H442 C443 0.951 . S
C443 H442 0.951 . S
C443 C449 1.265 . S
H444 C449 0.950 . S
H445 C453 0.949 1_455 S
H446 C454 0.943 1_455 S
H447 C455 0.951 . S
H448 C456 0.951 . S
C449 C443 1.265 . S
C449 H444 0.950 . S
C449 C450 1.478 . S
C450 C449 1.478 . S
C450 C451 1.397 . S
C450 C467 1.394 1_556 S
C451 C450 1.397 . S
C451 C452 1.438 . S
C451 C456 1.429 . S
C452 C451 1.438 . S
C452 C453 1.428 . S
C452 C465 1.394 1_556 S
C453 H445 0.949 1_655 S
C453 C452 1.428 . S
C453 C454 1.346 . S
C454 H446 0.943 1_655 S
C454 C453 1.346 . S
C454 C455 1.429 . S
C455 H447 0.951 . S
C455 C454 1.429 . S
C455 C456 1.347 . S
C456 H448 0.951 . S
C456 C451 1.429 . S
C456 C455 1.347 . S
H457 C458 0.952 . S
C458 H457 0.952 . S
C458 C464 1.265 1_455 S
H459 C464 0.950 . S
H460 C468 0.949 . S
H461 C469 0.950 . S
H462 C470 0.951 . S
H463 C471 0.951 . S
C464 C458 1.265 1_655 S
C464 H459 0.950 . S
C464 C465 1.478 . S
C465 C452 1.394 1_554 S
C465 C464 1.478 . S
C465 C466 1.397 . S
C466 C465 1.397 . S
C466 C467 1.438 . S
C466 C471 1.429 . S
C467 C450 1.394 1_554 S
C467 C466 1.438 . S
C467 C468 1.428 . S
C468 H460 0.949 . S
C468 C467 1.428 . S
C468 C469 1.345 . S
C469 H461 0.950 . S
C469 C468 1.345 . S
C469 C470 1.424 . S
C470 H462 0.951 . S
C470 C469 1.424 . S
C470 C471 1.347 . S
C471 H463 0.951 . S
C471 C466 1.429 . S
C471 C470 1.347 . S
H472 C473 0.951 . S
C473 H472 0.951 . S
C473 C479 1.265 . S
H474 C479 0.950 . S
H475 C483 0.949 . S
H476 C484 0.950 . S
H477 C485 0.951 . S
H478 C486 0.951 . S
C479 C473 1.265 . S
C479 H474 0.950 . S
C479 C480 1.478 . S
C480 C479 1.478 . S
C480 C481 1.397 . S
C480 C497 1.394 . S
C481 C480 1.397 . S
C481 C482 1.438 . S
C481 C486 1.429 . S
C482 C481 1.438 . S
C482 C483 1.428 . S
C482 C495 1.394 . S
C483 H475 0.949 . S
C483 C482 1.428 . S
C483 C484 1.345 . S
C484 H476 0.950 . S
C484 C483 1.345 . S
C484 C485 1.424 . S
C485 H477 0.951 . S
C485 C484 1.424 . S
C485 C486 1.347 . S
C486 H478 0.951 . S
C486 C481 1.429 . S
C486 C485 1.347 . S
H487 C488 0.951 . S
C488 H487 0.951 . S
C488 C494 1.265 . S
H489 C494 0.950 . S
H490 C498 0.949 . S
H491 C499 0.950 . S
H492 C500 0.951 . S
H493 C501 0.951 . S
C494 C488 1.265 . S
C494 H489 0.950 . S
C494 C495 1.478 . S
C495 C482 1.394 . S
C495 C494 1.478 . S
C495 C496 1.397 . S
C496 C495 1.397 . S
C496 C497 1.438 . S
C496 C501 1.429 . S
C497 C480 1.394 . S
C497 C496 1.438 . S
C497 C498 1.428 . S
C498 H490 0.949 . S
C498 C497 1.428 . S
C498 C499 1.345 . S
C499 H491 0.950 . S
C499 C498 1.345 . S
C499 C500 1.424 . S
C500 H492 0.951 . S
C500 C499 1.424 . S
C500 C501 1.347 . S
C501 H493 0.951 . S
C501 C496 1.429 . S
C501 C500 1.347 . S
H502 C503 0.951 . S
C503 H502 0.951 . S
C503 C509 1.265 . S
H504 C509 0.950 . S
H505 C513 0.949 . S
H506 C514 0.950 . S
H507 C515 0.951 . S
H508 C516 0.951 . S
C509 C503 1.265 . S
C509 H504 0.950 . S
C509 C510 1.478 . S
C510 C509 1.478 . S
C510 C511 1.397 . S
C510 C527 1.394 . S
C511 C510 1.397 . S
C511 C512 1.438 . S
C511 C516 1.429 . S
C512 C511 1.438 . S
C512 C513 1.428 . S
C512 C525 1.394 . S
C513 H505 0.949 . S
C513 C512 1.428 . S
C513 C514 1.345 . S
C514 H506 0.950 . S
C514 C513 1.345 . S
C514 C515 1.424 . S
C515 H507 0.951 . S
C515 C514 1.424 . S
C515 C516 1.347 . S
C516 H508 0.951 . S
C516 C511 1.429 . S
C516 C515 1.347 . S
H517 C518 0.951 . S
C518 H517 0.951 . S
C518 C524 1.265 . S
H519 C524 0.950 . S
H520 C528 0.949 . S
H521 C529 0.950 . S
H522 C530 0.951 . S
H523 C531 0.951 . S
C524 C518 1.265 . S
C524 H519 0.950 . S
C524 C525 1.478 . S
C525 C512 1.394 . S
C525 C524 1.478 . S
C525 C526 1.397 . S
C526 C525 1.397 . S
C526 C527 1.438 . S
C526 C531 1.429 . S
C527 C510 1.394 . S
C527 C526 1.438 . S
C527 C528 1.428 . S
C528 H520 0.949 . S
C528 C527 1.428 . S
C528 C529 1.345 . S
C529 H521 0.950 . S
C529 C528 1.345 . S
C529 C530 1.424 . S
C530 H522 0.951 . S
C530 C529 1.424 . S
C530 C531 1.347 . S
C531 H523 0.951 . S
C531 C526 1.429 . S
C531 C530 1.347 . S
H532 C533 0.951 . S
C533 H532 0.951 . S
C533 C539 1.265 . S
H534 C539 0.950 . S
H535 C543 0.949 . S
H536 C544 0.950 . S
H537 C545 0.951 . S
H538 C546 0.951 . S
C539 C533 1.265 . S
C539 H534 0.950 . S
C539 C540 1.478 . S
C540 C539 1.478 . S
C540 C541 1.397 . S
C540 C557 1.394 . S
C541 C540 1.397 . S
C541 C542 1.438 . S
C541 C546 1.429 . S
C542 C541 1.438 . S
C542 C543 1.428 . S
C542 C555 1.394 . S
C543 H535 0.949 . S
C543 C542 1.428 . S
C543 C544 1.345 . S
C544 H536 0.950 . S
C544 C543 1.345 . S
C544 C545 1.424 . S
C545 H537 0.951 . S
C545 C544 1.424 . S
C545 C546 1.347 . S
C546 H538 0.951 . S
C546 C541 1.429 . S
C546 C545 1.347 . S
H547 C548 0.951 . S
C548 H547 0.951 . S
C548 C554 1.265 . S
H549 C554 0.950 . S
H550 C558 0.949 . S
H551 C559 0.950 . S
H552 C560 0.951 . S
H553 C561 0.951 . S
C554 C548 1.265 . S
C554 H549 0.950 . S
C554 C555 1.478 . S
C555 C542 1.394 . S
C555 C554 1.478 . S
C555 C556 1.397 . S
C556 C555 1.397 . S
C556 C557 1.438 . S
C556 C561 1.429 . S
C557 C540 1.394 . S
C557 C556 1.438 . S
C557 C558 1.428 . S
C558 H550 0.949 . S
C558 C557 1.428 . S
C558 C559 1.345 . S
C559 H551 0.950 . S
C559 C558 1.345 . S
C559 C560 1.424 . S
C560 H552 0.951 . S
C560 C559 1.424 . S
C560 C561 1.347 . S
C561 H553 0.951 . S
C561 C556 1.429 . S
C561 C560 1.347 . S
H562 C563 0.951 . S
C563 H562 0.951 . S
C563 C569 1.265 . S
H564 C569 0.950 . S
H565 C573 0.949 . S
H566 C574 0.950 . S
H567 C575 0.951 . S
H568 C576 0.951 . S
C569 C563 1.265 . S
C569 H564 0.950 . S
C569 C570 1.478 . S
C570 C569 1.478 . S
C570 C571 1.397 . S
C570 C587 1.394 . S
C571 C570 1.397 . S
C571 C572 1.438 . S
C571 C576 1.429 . S
C572 C571 1.438 . S
C572 C573 1.428 . S
C572 C585 1.394 . S
C573 H565 0.949 . S
C573 C572 1.428 . S
C573 C574 1.345 . S
C574 H566 0.950 . S
C574 C573 1.345 . S
C574 C575 1.424 . S
C575 H567 0.951 . S
C575 C574 1.424 . S
C575 C576 1.347 . S
C576 H568 0.951 . S
C576 C571 1.429 . S
C576 C575 1.347 . S
H577 C578 0.951 . S
C578 H577 0.951 . S
C578 C584 1.265 . S
H579 C584 0.950 . S
H580 C588 0.949 . S
H581 C589 0.950 . S
H582 C590 0.951 . S
H583 C591 0.951 . S
C584 C578 1.265 . S
C584 H579 0.950 . S
C584 C585 1.478 . S
C585 C572 1.394 . S
C585 C584 1.478 . S
C585 C586 1.397 . S
C586 C585 1.397 . S
C586 C587 1.438 . S
C586 C591 1.429 . S
C587 C570 1.394 . S
C587 C586 1.438 . S
C587 C588 1.428 . S
C588 H580 0.949 . S
C588 C587 1.428 . S
C588 C589 1.345 . S
C589 H581 0.950 . S
C589 C588 1.345 . S
C589 C590 1.424 . S
C590 H582 0.951 . S
C590 C589 1.424 . S
C590 C591 1.347 . S
C591 H583 0.951 . S
C591 C586 1.429 . S
C591 C590 1.347 . S
C113 C39 1.449 . S
C128 C11 1.449 . S
C143 C53 1.531 . S
C158 C25 1.535 . S
C173 C67 1.535 . S
C188 C95 1.532 . S
C203 C81 1.449 . S
C218 C109 1.444 . S
C233 C23 1.100 1_545 S
C248 C5 1.053 . S
C263 C19 1.053 . S
C278 C28 1.141 1_455 S
C293 C51 1.054 . S
C308 C33 1.015 . S
C323 C47 1.072 . S
C338 C0 1.144 1_655 S
C353 C98 1.110 1_545 S
C368 C61 1.158 . S
C383 C75 1.081 . S
C398 C65 1.050 . S
C413 C89 1.043 . S
C428 C70 1.147 1_565 S
C443 C103 1.026 . S
C458 C93 1.042 . S
C473 C9 1.691 . S
C488 C79 1.688 . S
C503 C84 1.630 . S
C518 C14 1.644 . S
C533 C37 1.686 . S
C548 C107 1.678 . S
C563 C42 1.689 . S
C578 C56 1.667 . S
