# Generated by pormake.
# Topology ecn, (8)-cn, num edge types: 1
# Building blocks:
#     Node 0, Type 0, BuildingBlock: EBIMEJ_clean_sbu_0, # of connection points: 8
#     Node 1, Type 0, BuildingBlock: EBIMEJ_clean_sbu_0, # of connection points: 8
#     Node 2, Type 0, BuildingBlock: EBIMEJ_clean_sbu_0, # of connection points: 8
#     Node 3, Type 0, BuildingBlock: EBIMEJ_clean_sbu_0, # of connection points: 8
#     Node 4, Type 0, BuildingBlock: EBIMEJ_clean_sbu_0, # of connection points: 8
#     Node 5, Type 0, BuildingBlock: EBIMEJ_clean_sbu_0, # of connection points: 8
#     Node 6, Type 0, BuildingBlock: EBIMEJ_clean_sbu_0, # of connection points: 8
#     Node 7, Type 0, BuildingBlock: EBIMEJ_clean_sbu_0, # of connection points: 8
#     Node 8, Type 0, BuildingBlock: EBIMEJ_clean_sbu_0, # of connection points: 8
#     Edge 9, Type (0, 0), BuildingBlock: EYOCIG_clean_linker_4, # of connection points: 2
#     Edge 10, Type (0, 0), BuildingBlock: EYOCIG_clean_linker_4, # of connection points: 2
#     Edge 11, Type (0, 0), BuildingBlock: EYOCIG_clean_linker_4, # of connection points: 2
#     Edge 12, Type (0, 0), BuildingBlock: EYOCIG_clean_linker_4, # of connection points: 2
#     Edge 13, Type (0, 0), BuildingBlock: EYOCIG_clean_linker_4, # of connection points: 2
#     Edge 14, Type (0, 0), BuildingBlock: EYOCIG_clean_linker_4, # of connection points: 2
#     Edge 15, Type (0, 0), BuildingBlock: EYOCIG_clean_linker_4, # of connection points: 2
#     Edge 16, Type (0, 0), BuildingBlock: EYOCIG_clean_linker_4, # of connection points: 2
#     Edge 17, Type (0, 0), BuildingBlock: EYOCIG_clean_linker_4, # of connection points: 2
#     Edge 18, Type (0, 0), BuildingBlock: EYOCIG_clean_linker_4, # of connection points: 2
#     Edge 19, Type (0, 0), BuildingBlock: EYOCIG_clean_linker_4, # of connection points: 2
#     Edge 20, Type (0, 0), BuildingBlock: EYOCIG_clean_linker_4, # of connection points: 2
#     Edge 21, Type (0, 0), BuildingBlock: EYOCIG_clean_linker_4, # of connection points: 2
#     Edge 22, Type (0, 0), BuildingBlock: EYOCIG_clean_linker_4, # of connection points: 2
#     Edge 23, Type (0, 0), BuildingBlock: EYOCIG_clean_linker_4, # of connection points: 2
#     Edge 24, Type (0, 0), BuildingBlock: EYOCIG_clean_linker_4, # of connection points: 2
#     Edge 25, Type (0, 0), BuildingBlock: EYOCIG_clean_linker_4, # of connection points: 2
#     Edge 26, Type (0, 0), BuildingBlock: EYOCIG_clean_linker_4, # of connection points: 2
#     Edge 27, Type (0, 0), BuildingBlock: EYOCIG_clean_linker_4, # of connection points: 2
#     Edge 28, Type (0, 0), BuildingBlock: EYOCIG_clean_linker_4, # of connection points: 2
#     Edge 29, Type (0, 0), BuildingBlock: EYOCIG_clean_linker_4, # of connection points: 2
#     Edge 30, Type (0, 0), BuildingBlock: EYOCIG_clean_linker_4, # of connection points: 2
#     Edge 31, Type (0, 0), BuildingBlock: EYOCIG_clean_linker_4, # of connection points: 2
#     Edge 32, Type (0, 0), BuildingBlock: EYOCIG_clean_linker_4, # of connection points: 2
#     Edge 33, Type (0, 0), BuildingBlock: EYOCIG_clean_linker_4, # of connection points: 2
#     Edge 34, Type (0, 0), BuildingBlock: EYOCIG_clean_linker_4, # of connection points: 2
#     Edge 35, Type (0, 0), BuildingBlock: EYOCIG_clean_linker_4, # of connection points: 2
#     Edge 36, Type (0, 0), BuildingBlock: EYOCIG_clean_linker_4, # of connection points: 2
#     Edge 37, Type (0, 0), BuildingBlock: EYOCIG_clean_linker_4, # of connection points: 2
#     Edge 38, Type (0, 0), BuildingBlock: EYOCIG_clean_linker_4, # of connection points: 2
#     Edge 39, Type (0, 0), BuildingBlock: EYOCIG_clean_linker_4, # of connection points: 2
#     Edge 40, Type (0, 0), BuildingBlock: EYOCIG_clean_linker_4, # of connection points: 2
#     Edge 41, Type (0, 0), BuildingBlock: EYOCIG_clean_linker_4, # of connection points: 2
#     Edge 42, Type (0, 0), BuildingBlock: EYOCIG_clean_linker_4, # of connection points: 2
#     Edge 43, Type (0, 0), BuildingBlock: EYOCIG_clean_linker_4, # of connection points: 2
#     Edge 44, Type (0, 0), BuildingBlock: EYOCIG_clean_linker_4, # of connection points: 2
# Relax obj value: 0.176
# Max RMSD: 0.237
# Mean RMSD: 0.237
data_MOF--net-ecn--node1-EBIMEJ_clean_sbu_0--edge1-EYOCIG_clean_linker_4
_symmetry_space_group_name_H-M    P1
_symmetry_Int_Tables_number       1
_symmetry_cell_setting            triclinic
loop_
_symmetry_equiv_pos_as_xyz
'x, y, z'
_cell_length_a     44.39348
_cell_length_b     44.381458
_cell_length_c     12.638928
_cell_angle_alpha  89.983033
_cell_angle_beta   89.986129
_cell_angle_gamma 119.99616
loop_
_atom_site_label
_atom_site_type_symbol
_atom_site_fract_x
_atom_site_fract_y
_atom_site_fract_z
_atom_type_partial_charge
Co0 Co 0.20286 0.31288 0.91329 0.0
Co1 Co 0.16056 0.23567 0.02329 0.0
Co2 Co 0.12105 0.27309 0.97469 0.0
H3 H 0.16237 0.28881 0.96735 0.0
O4 O 0.16964 0.28394 0.02461 0.0
H5 H 0.12039 0.21979 0.03075 0.0
O6 O 0.11195 0.22478 0.97694 0.0
Co7 Co 0.08172 0.19249 0.08738 0.0
O8 O 0.10078 0.15975 0.11079 0.0
O9 O 0.15078 0.1872 0.02124 0.0
O10 O 0.05029 0.21368 0.09541 0.0
O11 O 0.06895 0.25659 0.97251 0.0
O12 O 0.23928 0.34203 0.80162 0.0
O13 O 0.25108 0.35178 0.96236 0.0
O14 O 0.10139 0.21148 0.22802 0.0
O15 O 0.1573 0.23625 0.18237 0.0
C16 C 0.15798 0.34742 0.89509 0.0
C17 C 0.23673 0.27456 0.02081 0.0
C18 C 1.02823 0.13615 0.08185 0.0
C19 C 0.14887 0.26905 0.75865 0.0
C20 C 0.1276 0.16097 0.07055 0.0
C21 C 0.04628 0.23581 0.04138 0.0
C22 C 0.26163 0.36044 0.86903 0.0
C23 C 0.1333 0.22728 0.25112 0.0
O24 O 0.1851 0.34587 0.8695 0.0
O25 O 0.13303 0.32341 0.95047 0.0
O26 O 0.20859 0.24859 0.04992 0.0
O27 O 0.2386 0.29999 0.96889 0.0
O28 O 0.04243 0.15168 0.16595 0.0
O29 O 0.04423 0.15232 0.00013 0.0
O30 O 0.18017 0.28268 0.78868 0.0
O31 O 0.12427 0.26725 0.81668 0.0
Co32 Co 0.73948 0.90076 0.91296 0.0
Co33 Co 0.81655 0.93554 0.02292 0.0
Co34 Co 0.77927 0.85861 0.9742 0.0
H35 H 0.7635 0.88423 0.96684 0.0
O36 O 0.76834 0.89631 0.02424 0.0
H37 H 0.83255 0.91134 0.03004 0.0
O38 O 0.82754 0.89789 0.97627 0.0
Co39 Co 0.85999 0.90007 0.08624 0.0
O40 O 0.89291 0.95195 0.10751 0.0
O41 O 0.86491 0.97433 0.02026 0.0
O42 O 0.83901 0.84749 0.09441 0.0
O43 O 0.79589 0.82303 0.97234 0.0
O44 O 0.70986 0.90809 0.80311 0.0
O45 O 0.70084 0.91022 0.96434 0.0
O46 O 0.84082 0.90041 0.22692 0.0
O47 O 0.81608 0.93162 0.18191 0.0
C48 C 0.70513 0.82134 0.89349 0.0
C49 C 0.77793 0.97305 0.01992 0.0
C50 C 0.91636 0.903 0.08164 0.0
C51 C 0.78312 0.89024 0.75792 0.0
C52 C 0.89141 0.97746 0.06788 0.0
C53 C 0.81685 0.82127 0.04081 0.0
C54 C 0.69175 0.91207 0.87155 0.0
C55 C 0.82502 0.91649 0.25035 0.0
O56 O 0.70675 0.85007 0.86803 0.0
O57 O 0.72897 0.82029 0.94945 0.0
O58 O 0.80358 0.97056 0.05038 0.0
O59 O 0.75273 0.94972 0.96682 0.0
O60 O 0.90072 0.90169 0.16551 0.0
O61 O 0.90032 0.90283 -0.00035 0.0
O62 O 0.76934 0.90782 0.78767 0.0
O63 O 0.78519 0.86767 0.8163 0.0
Co64 Co 0.15205 0.84953 0.91452 0.0
Co65 Co 0.11674 0.89179 0.02204 0.0
Co66 Co 0.19372 0.93151 0.97436 0.0
H67 H 0.16825 0.89015 0.9675 0.0
O68 O 0.15602 0.8829 0.0246 0.0
H69 H 0.14096 0.93199 0.02989 0.0
O70 O 0.15443 0.94051 0.97614 0.0
Co71 Co 0.1523 0.97054 0.08727 0.0
O72 O 0.10039 0.95148 0.10812 0.0
O73 O 0.07802 0.90143 0.01908 0.0
O74 O 0.20487 1.00213 0.09517 0.0
O75 O 0.2292 0.98368 0.97199 0.0
O76 O 0.14441 0.81323 0.8022 0.0
O77 O 0.14344 0.80148 0.96272 0.0
O78 O 0.15317 0.95064 0.22624 0.0
O79 O 0.12035 0.89488 0.18114 0.0
C80 C 0.23135 0.89484 0.89533 0.0
C81 C 0.08006 0.8155 0.02359 0.0
C82 C 0.14922 0.02399 0.08737 0.0
C83 C 0.16266 0.90319 0.75761 0.0
C84 C 0.0749 0.92465 0.06769 0.0
C85 C 0.23103 1.00628 0.041 0.0
C86 C 0.14112 0.79098 0.86916 0.0
C87 C 0.13648 0.91874 0.24947 0.0
O88 O 0.20277 0.86763 0.86993 0.0
O89 O 0.23218 0.91971 0.95082 0.0
O90 O 0.08161 0.84371 0.04835 0.0
O91 O 0.10407 0.8136 0.97447 0.0
O92 O 0.15068 1.00915 0.16994 0.0
O93 O 0.14929 1.0086 0.00415 0.0
O94 O 0.14513 0.87188 0.78792 0.0
O95 O 0.18487 0.92805 0.81614 0.0
Co96 Co 0.86963 0.64607 0.24668 0.0
Co97 Co 0.82703 0.56881 0.35639 0.0
Co98 Co 0.78762 0.60629 0.30757 0.0
H99 H 0.829 0.622 0.30023 0.0
O100 O 0.83618 0.61708 0.35758 0.0
H101 H 0.78686 0.55292 0.36345 0.0
O102 O 0.77847 0.55795 0.30958 0.0
Co103 Co 0.74816 0.52562 0.4199 0.0
O104 O 0.76731 0.49301 0.44456 0.0
O105 O 0.81722 0.52035 0.35461 0.0
O106 O 0.71652 0.54653 0.42695 0.0
O107 O 0.73548 0.5898 0.30516 0.0
O108 O 0.90668 0.67566 0.13697 0.0
O109 O 0.9177 0.68473 0.29821 0.0
O110 O 0.76771 0.54502 0.56029 0.0
O111 O 0.82364 0.56951 0.51528 0.0
C112 C 0.82469 0.68059 0.22816 0.0
C113 C 0.90313 0.60723 0.35329 0.0
C114 C 0.69453 0.4694 0.41511 0.0
C115 C 0.81553 0.60286 0.09104 0.0
C116 C 0.79413 0.49422 0.40447 0.0
C117 C 0.71261 0.56877 0.3732 0.0
C118 C 0.92872 0.6938 0.20545 0.0
C119 C 0.79959 0.5608 0.58365 0.0
O120 O 0.8518 0.67901 0.20273 0.0
O121 O 0.79969 0.65662 0.2835 0.0
O122 O 0.87495 0.58164 0.3838 0.0
O123 O 0.90515 0.63253 0.30027 0.0
O124 O 0.70891 0.48493 0.49901 0.0
O125 O 0.71045 0.48546 0.33316 0.0
O126 O 0.84688 0.6166 0.12076 0.0
O127 O 0.79086 0.60059 0.14963 0.0
Co128 Co 0.40588 0.2339 0.24706 0.0
Co129 Co 0.48323 0.2689 0.35518 0.0
Co130 Co 0.44599 0.19201 0.30681 0.0
H131 H 0.43012 0.21752 0.30021 0.0
O132 O 0.43506 0.22965 0.35749 0.0
H133 H 0.49919 0.24464 0.36313 0.0
O134 O 0.49427 0.23124 0.30925 0.0
Co135 Co 0.52641 0.23324 0.42023 0.0
O136 O 0.5592 0.28519 0.4415 0.0
O137 O 0.53157 0.30758 0.35212 0.0
O138 O 0.50533 0.18059 0.42715 0.0
O139 O 0.46264 0.15649 0.30369 0.0
O140 O 0.3767 0.24109 0.13546 0.0
O141 O 0.36696 0.2432 0.29622 0.0
O142 O 0.50715 0.23396 0.56059 0.0
O143 O 0.48275 0.26537 0.51425 0.0
C144 C 0.37159 0.15453 0.22841 0.0
C145 C 0.44427 0.30616 0.35341 0.0
C146 C 0.58249 0.23539 0.41754 0.0
C147 C 0.44955 0.22403 0.09108 0.0
C148 C 0.55787 0.31071 0.40101 0.0
C149 C 0.48337 0.15453 0.37253 0.0
C150 C 0.35829 0.24504 0.20288 0.0
C151 C 0.49147 0.25023 0.58329 0.0
O152 O 0.37294 0.18316 0.20355 0.0
O153 O 0.39575 0.15362 0.28289 0.0
O154 O 0.47033 0.30403 0.38151 0.0
O155 O 0.41866 0.2825 0.30252 0.0
O156 O 0.56674 0.23439 0.50088 0.0
O157 O 0.56671 0.23532 0.33506 0.0
O158 O 0.43589 0.24161 0.12183 0.0
O159 O 0.45164 0.2013 0.14874 0.0
Co160 Co 0.81874 0.18301 0.24713 0.0
Co161 Co 0.7835 0.22504 0.35609 0.0
Co162 Co 0.86043 0.265 0.30759 0.0
H163 H 0.83501 0.2236 0.3005 0.0
O164 O 0.82289 0.21633 0.35781 0.0
H165 H 0.80756 0.26529 0.3631 0.0
O166 O 0.82098 0.27377 0.30924 0.0
Co167 Co 0.81875 0.30392 0.4198 0.0
O168 O 0.76678 0.28457 0.44174 0.0
O169 O 0.74456 0.23435 0.35372 0.0
O170 O 0.87134 0.3359 0.42662 0.0
O171 O 0.89585 0.3172 0.30487 0.0
O172 O 0.81124 0.14669 0.13484 0.0
O173 O 0.8096 0.13475 0.29537 0.0
O174 O 0.81954 0.2844 0.55941 0.0
O175 O 0.7875 0.22848 0.515 0.0
C176 C 0.89811 0.22839 0.22874 0.0
C177 C 0.7468 0.14883 0.35653 0.0
C178 C 0.81584 0.3574 0.42063 0.0
C179 C 0.82952 0.23689 0.09077 0.0
C180 C 0.74129 0.25749 0.40228 0.0
C181 C 0.89757 0.33998 0.37298 0.0
C182 C 0.80753 0.12431 0.20186 0.0
C183 C 0.80328 0.25254 0.58303 0.0
O184 O 0.86953 0.20118 0.20324 0.0
O185 O 0.89895 0.25329 0.28406 0.0
O186 O 0.74863 0.17698 0.38362 0.0
O187 O 0.77052 0.14702 0.30536 0.0
O188 O 0.81721 0.34244 0.503 0.0
O189 O 0.8159 0.34212 0.33714 0.0
O190 O 0.81199 0.20553 0.12065 0.0
O191 O 0.85168 0.26167 0.14952 0.0
Co192 Co 0.53633 0.97975 0.5804 0.0
Co193 Co 0.49387 0.90229 0.68922 0.0
Co194 Co 0.45431 0.93964 0.64035 0.0
H195 H 0.49569 0.95547 0.63355 0.0
O196 O 0.50286 0.95053 0.69088 0.0
H197 H 0.45367 0.88638 0.697 0.0
O198 O 0.44521 0.89132 0.64312 0.0
Co199 Co 0.415 0.85917 0.754 0.0
O200 O 0.43378 0.82604 0.77401 0.0
O201 O 0.48419 0.85388 0.6867 0.0
O202 O 0.38362 0.88042 0.76141 0.0
O203 O 0.40217 0.92309 0.63777 0.0
O204 O 0.57311 1.00924 0.46979 0.0
O205 O 0.58453 1.01842 0.63079 0.0
O206 O 0.43485 0.87801 0.8946 0.0
O207 O 0.4907 0.90277 0.84836 0.0
C208 C 0.49113 1.01384 0.55969 0.0
C209 C 0.57011 0.94159 0.6897 0.0
C210 C 0.36116 0.80305 0.75519 0.0
C211 C 0.48254 0.93572 0.42491 0.0
C212 C 0.46074 0.82743 0.73441 0.0
C213 C 0.37954 0.90243 0.70697 0.0
C214 C 0.59534 0.02739 0.53781 0.0
C215 C 0.46678 0.89375 0.9174 0.0
O216 O 0.51833 1.01237 0.53462 0.0
O217 O 0.46623 0.98991 0.6154 0.0
O218 O 0.5419 0.91517 0.71582 0.0
O219 O 0.57207 0.96733 0.63943 0.0
O220 O 0.37624 0.81934 0.83746 0.0
O221 O 0.37648 0.81832 0.67162 0.0
O222 O 0.51384 0.94966 0.45529 0.0
O223 O 0.45774 0.93366 0.48254 0.0
Co224 Co 0.07284 0.56747 0.58012 0.0
Co225 Co 0.15018 0.60247 0.68887 0.0
Co226 Co 0.11283 0.52554 0.64064 0.0
H227 H 0.09704 0.5511 0.63357 0.0
O228 O 0.10197 0.56327 0.69076 0.0
H229 H 0.16605 0.57819 0.69726 0.0
O230 O 0.16116 0.56471 0.64359 0.0
Co231 Co 0.19326 0.56693 0.75497 0.0
O232 O 0.22564 0.61879 0.77944 0.0
O233 O 0.19863 0.64111 0.68663 0.0
O234 O 0.1722 0.51429 0.76195 0.0
O235 O 0.12945 0.48998 0.63861 0.0
O236 O 0.04379 0.57494 0.46887 0.0
O237 O 0.03318 0.57557 0.62969 0.0
O238 O 0.17367 0.5674 0.89484 0.0
O239 O 0.14945 0.59893 0.84798 0.0
C240 C 0.03853 0.48818 0.56031 0.0
C241 C 0.11127 0.6398 0.68607 0.0
C242 C 0.2498 0.57012 0.75128 0.0
C243 C 0.11672 0.55761 0.42491 0.0
C244 C 0.22458 0.64431 0.73783 0.0
C245 C 0.15022 0.48814 0.70768 0.0
C246 C 1.02483 0.57797 0.5364 0.0
C247 C 0.15801 0.58371 0.91721 0.0
O248 O 0.04 0.51685 0.53535 0.0
O249 O 0.06253 0.48719 0.61559 0.0
O250 O 0.1373 0.63765 0.71445 0.0
O251 O 0.08564 0.61614 0.63513 0.0
O252 O 0.23395 0.56862 0.83487 0.0
O253 O 0.23385 0.56995 0.66907 0.0
O254 O 0.10302 0.57519 0.4554 0.0
O255 O 0.11877 0.53488 0.48266 0.0
Co256 Co 0.48503 0.51601 0.58021 0.0
Co257 Co 0.44995 0.55844 0.68837 0.0
Co258 Co 0.5269 0.59802 0.63992 0.0
H259 H 0.50136 0.55665 0.63326 0.0
O260 O 0.48917 0.54943 0.69045 0.0
H261 H 0.47428 0.59861 0.69649 0.0
O262 O 0.48771 0.60714 0.64267 0.0
Co263 Co 0.48571 0.63717 0.75389 0.0
O264 O 0.43386 0.61804 0.77683 0.0
O265 O 0.41132 0.5683 0.68601 0.0
O266 O 0.53833 0.66885 0.76048 0.0
O267 O 0.56247 0.65022 0.63715 0.0
O268 O 0.47776 0.47965 0.46847 0.0
O269 O 0.47594 0.46784 0.62919 0.0
O270 O 0.48555 0.61711 0.89362 0.0
O271 O 0.4535 0.56135 0.84744 0.0
C272 C 0.56431 0.56109 0.56044 0.0
C273 C 0.41284 0.48217 0.68731 0.0
C274 C 0.4826 0.69057 0.74981 0.0
C275 C 0.495 0.56961 0.42416 0.0
C276 C 0.40828 0.59139 0.73588 0.0
C277 C 0.56441 0.67295 0.70591 0.0
C278 C 0.47398 0.45732 0.53581 0.0
C279 C 0.46903 0.58516 0.91634 0.0
O280 O 0.53568 0.53382 0.53572 0.0
O281 O 0.56526 0.58611 0.61537 0.0
O282 O 0.41474 0.51037 0.71426 0.0
O283 O 0.43664 0.48022 0.63721 0.0
O284 O 0.48404 0.67624 0.83354 0.0
O285 O 0.48278 0.67474 0.66773 0.0
O286 O 0.47749 0.53834 0.45479 0.0
O287 O 0.5176 0.59445 0.48193 0.0
C288 C 0.28969 0.27073 0.09245 0.0
C289 C 0.26757 0.2754 0.05519 0.0
C290 C 0.31304 0.2625 0.14034 0.0
C291 C 0.33321 0.25463 0.17528 0.0
C292 C 0.79029 0.06166 0.13887 0.0
C293 C 0.79808 0.08969 0.17383 0.0
C294 C 0.78201 0.03003 0.09109 0.0
C295 C 0.77723 1.00319 0.05386 0.0
C296 C 1.02345 0.7627 0.09776 0.0
C297 C 0.05021 0.78474 0.05981 0.0
C298 C 0.99174 0.73932 0.1454 0.0
C299 C 0.96356 0.71903 0.17947 0.0
C300 C 0.8175 0.76339 0.10192 0.0
C301 C 0.81505 0.78807 0.06782 0.0
C302 C 0.82014 0.7348 0.14809 0.0
C303 C 0.82156 0.70992 0.18547 0.0
C304 C 0.28891 0.06463 0.10231 0.0
C305 C 0.26422 0.03759 0.06804 0.0
C306 C 0.31748 0.09578 0.1486 0.0
C307 C 0.34234 0.12206 0.18591 0.0
C308 C 0.98802 0.23559 0.10248 0.0
C309 C 1.01503 0.23783 0.06835 0.0
C310 C 0.9569 0.23311 0.14874 0.0
C311 C 0.93063 0.2317 0.18622 0.0
C312 C 0.95574 0.60281 0.42507 0.0
C313 C 0.93386 0.60779 0.38747 0.0
C314 C 0.97896 0.59452 0.47365 0.0
C315 C 0.99933 0.587 0.50904 0.0
C316 C 0.45673 0.39469 0.47307 0.0
C317 C 0.46452 0.42269 0.50811 0.0
C318 C 0.4484 0.36308 0.42513 0.0
C319 C 0.44356 0.33622 0.3879 0.0
C320 C 0.65839 0.0726 0.47721 0.0
C321 C 0.63018 0.05243 0.51125 0.0
C322 C 0.69014 0.09592 0.42973 0.0
C323 C 0.7169 0.11797 0.39192 0.0
C324 C 0.48382 0.09649 0.43277 0.0
C325 C 0.48147 0.12125 0.39893 0.0
C326 C 0.4864 0.06787 0.47895 0.0
C327 C 0.48789 0.04306 0.51667 0.0
C328 C 0.98429 0.42956 0.47983 0.0
C329 C 1.00921 0.45575 0.51751 0.0
C330 C 0.95556 0.39845 0.43366 0.0
C331 C 0.93079 0.37135 0.39989 0.0
C332 C 0.62298 0.56568 0.47989 0.0
C333 C 0.59674 0.56429 0.51755 0.0
C334 C 0.65414 0.56823 0.43365 0.0
C335 C 0.68126 0.57065 0.39979 0.0
C336 C 0.62296 0.93793 0.7637 0.0
C337 C 0.60087 0.94253 0.72573 0.0
C338 C 0.64637 0.9297 0.81142 0.0
C339 C 0.66661 0.92176 0.8455 0.0
C340 C 0.11572 0.69687 0.75764 0.0
C341 C 0.11066 0.66994 0.72035 0.0
C342 C 0.12418 0.72849 0.80576 0.0
C343 C 0.13186 0.75644 0.84106 0.0
C344 C 0.32436 0.40583 0.80682 0.0
C345 C 0.29629 0.38559 0.84148 0.0
C346 C 0.35601 0.42925 0.7593 0.0
C347 C 0.38283 0.45137 0.72216 0.0
C348 C 0.15336 0.40162 0.81521 0.0
C349 C 0.15479 0.37673 0.85255 0.0
C350 C 0.15076 0.43022 0.76893 0.0
C351 C 0.14837 0.45491 0.73467 0.0
C352 C 0.65102 0.76267 0.81258 0.0
C353 C 0.67586 0.78891 0.85039 0.0
C354 C 0.6224 0.73148 0.76625 0.0
C355 C 0.59767 0.70436 0.73234 0.0
C356 C 0.32126 0.90218 0.76826 0.0
C357 C 0.34827 0.90445 0.73391 0.0
C358 C 0.29014 0.89964 0.81481 0.0
C359 C 0.26387 0.89819 0.85253 0.0
C360 C 0.14284 0.07941 0.08942 0.0
C361 C 0.14576 0.05406 0.08867 0.0
C362 C 0.13753 0.10785 0.08709 0.0
C363 C 0.13226 0.13171 0.08087 0.0
C364 C 0.97285 0.07437 0.08178 0.0
C365 C 0.99819 0.10263 0.08039 0.0
C366 C 0.94447 0.0406 0.08152 0.0
C367 C 0.92068 1.01141 0.07669 0.0
C368 C 0.97809 0.90934 0.08217 0.0
C369 C 0.94986 0.90645 0.08065 0.0
C370 C 1.01183 0.91468 0.08183 0.0
C371 C 0.04099 0.92003 0.07679 0.0
C372 C 0.80978 0.41298 0.4238 0.0
C373 C 0.81255 0.38755 0.42247 0.0
C374 C 0.80439 0.44135 0.42187 0.0
C375 C 0.79891 0.46506 0.41537 0.0
C376 C 0.63895 0.40777 0.41575 0.0
C377 C 0.66438 0.43596 0.41407 0.0
C378 C 0.61066 0.37395 0.41558 0.0
C379 C 0.58704 0.34468 0.41051 0.0
C380 C 0.64404 0.24115 0.41925 0.0
C381 C 0.61589 0.23852 0.41752 0.0
C382 C 0.67789 0.24667 0.41843 0.0
C383 C 0.7072 0.25243 0.41251 0.0
C384 C 0.47062 0.77425 0.74927 0.0
C385 C 0.46533 0.79811 0.74385 0.0
C386 C 0.476 0.74585 0.75022 0.0
C387 C 0.47901 0.72056 0.74899 0.0
C388 C 0.27731 0.70755 0.75479 0.0
C389 C 0.25367 0.67831 0.74856 0.0
C390 C 0.30561 0.74137 0.75743 0.0
C391 C 0.33102 0.76959 0.75704 0.0
C392 C 0.34531 0.5817 0.75155 0.0
C393 C 0.37441 0.58687 0.74577 0.0
C394 C 0.3116 0.57651 0.75236 0.0
C395 C 0.28334 0.57359 0.75077 0.0
C396 C 0.14241 0.2487 0.56108 0.0
C397 C 0.14238 0.25698 0.6517 0.0
C398 C 0.14384 0.24164 0.45324 0.0
C399 C 0.14208 0.23637 0.35957 0.0
C400 C 0.81045 0.91237 0.45239 0.0
C401 C 0.81583 0.91599 0.35878 0.0
C402 C 0.80336 0.90389 0.56021 0.0
C403 C 0.79514 0.89571 0.65093 0.0
C404 C 0.1497 0.90919 0.55865 0.0
C405 C 0.15755 0.90941 0.64988 0.0
C406 C 0.14124 0.90781 0.45079 0.0
C407 C 0.13724 0.90976 0.3575 0.0
C408 C 0.81017 0.57578 0.78533 0.0
C409 C 0.80832 0.57019 0.69188 0.0
C410 C 0.80891 0.58294 0.89309 0.0
C411 C 0.80899 0.59102 0.98394 0.0
C412 C 0.46938 0.23792 0.89294 0.0
C413 C 0.46132 0.22966 0.98375 0.0
C414 C 0.47652 0.24638 0.78507 0.0
C415 C 0.48208 0.2499 0.69151 0.0
C416 C 0.80819 0.24198 0.78446 0.0
C417 C 0.8042 0.24382 0.69115 0.0
C418 C 0.81663 0.24331 0.89223 0.0
C419 C 0.82444 0.24333 0.98333 0.0
C420 C 0.47631 0.91523 0.22744 0.0
C421 C 0.47625 0.92357 0.31799 0.0
C422 C 0.47761 0.9081 0.11956 0.0
C423 C 0.4757 0.90283 0.02584 0.0
C424 C 0.13641 0.5715 0.22682 0.0
C425 C 0.12847 0.56318 0.31762 0.0
C426 C 0.1433 0.58 0.11895 0.0
C427 C 0.14871 0.58353 0.02536 0.0
C428 C 0.48129 0.57544 0.22588 0.0
C429 C 0.48948 0.57573 0.31676 0.0
C430 C 0.47288 0.57403 0.118 0.0
C431 C 0.46931 0.57605 0.02449 0.0
loop_
_geom_bond_atom_site_label_1
_geom_bond_atom_site_label_2
_geom_bond_distance
_geom_bond_site_symmetry_2
_ccdc_geom_bond_type
Co0 H3 2.400 1_556 S
Co0 O4 2.009 1_556 S
Co0 O12 2.115 . S
Co0 O13 2.315 1_556 S
Co0 O24 2.053 . S
Co0 O27 2.094 . S
Co0 O30 2.122 . S
Co1 O4 2.126 . S
Co1 H5 2.388 1_554 S
Co1 O6 2.053 1_554 S
Co1 O9 2.047 . S
Co1 O15 2.113 . S
Co1 O26 2.063 . S
Co2 H3 2.388 1_556 S
Co2 O4 2.053 1_556 S
Co2 O6 2.126 . S
Co2 O11 2.063 . S
Co2 O25 2.047 . S
Co2 O31 2.113 . S
H3 Co0 2.400 1_554 S
H3 Co2 2.388 1_554 S
H3 O4 0.760 . S
O4 Co0 2.009 1_554 S
O4 Co1 2.126 . S
O4 Co2 2.053 1_554 S
O4 H3 0.760 . S
H5 Co1 2.388 1_556 S
H5 O6 0.760 . S
H5 Co7 2.400 1_556 S
O6 Co1 2.053 1_556 S
O6 Co2 2.126 . S
O6 H5 0.760 . S
O6 Co7 2.009 1_556 S
Co7 H5 2.400 1_554 S
Co7 O6 2.009 1_554 S
Co7 O8 2.053 . S
Co7 O10 2.094 . S
Co7 O14 2.122 . S
Co7 O28 2.115 . S
Co7 O29 2.315 1_554 S
O8 Co7 2.053 . S
O8 C20 1.259 . S
O9 Co1 2.047 . S
O9 C20 1.257 . S
O10 Co7 2.094 . S
O10 C21 1.253 . S
O11 Co2 2.063 . S
O11 C21 1.268 1_556 S
O12 Co0 2.115 . S
O12 C22 1.281 . S
O13 Co0 2.315 1_554 S
O13 C22 1.252 1_554 S
O14 Co7 2.122 . S
O14 C23 1.272 . S
O15 Co1 2.113 . S
O15 C23 1.245 . S
C16 O24 1.259 . S
C16 O25 1.257 . S
C17 O26 1.268 1_556 S
C17 O27 1.253 . S
C18 O28 1.281 1_655 S
C18 O29 1.252 1_654 S
C19 O30 1.272 . S
C19 O31 1.245 . S
C20 O8 1.259 . S
C20 O9 1.257 . S
C21 O10 1.253 . S
C21 O11 1.268 1_554 S
C22 O12 1.281 . S
C22 O13 1.252 1_556 S
C23 O14 1.272 . S
C23 O15 1.245 . S
O24 Co0 2.053 . S
O24 C16 1.259 . S
O25 Co2 2.047 . S
O25 C16 1.257 . S
O26 Co1 2.063 . S
O26 C17 1.268 1_554 S
O27 Co0 2.094 . S
O27 C17 1.253 . S
O28 Co7 2.115 . S
O28 C18 1.281 1_455 S
O29 Co7 2.315 1_556 S
O29 C18 1.252 1_456 S
O30 Co0 2.122 . S
O30 C19 1.272 . S
O31 Co2 2.113 . S
O31 C19 1.245 . S
Co32 H35 2.400 1_556 S
Co32 O36 2.009 1_556 S
Co32 O44 2.115 . S
Co32 O45 2.315 1_556 S
Co32 O56 2.053 . S
Co32 O59 2.094 . S
Co32 O62 2.122 . S
Co33 O36 2.126 . S
Co33 H37 2.388 1_554 S
Co33 O38 2.053 1_554 S
Co33 O41 2.047 . S
Co33 O47 2.113 . S
Co33 O58 2.063 . S
Co34 H35 2.388 1_556 S
Co34 O36 2.053 1_556 S
Co34 O38 2.126 . S
Co34 O43 2.063 . S
Co34 O57 2.047 . S
Co34 O63 2.113 . S
H35 Co32 2.400 1_554 S
H35 Co34 2.388 1_554 S
H35 O36 0.760 . S
O36 Co32 2.009 1_554 S
O36 Co33 2.126 . S
O36 Co34 2.053 1_554 S
O36 H35 0.760 . S
H37 Co33 2.388 1_556 S
H37 O38 0.760 . S
H37 Co39 2.400 1_556 S
O38 Co33 2.053 1_556 S
O38 Co34 2.126 . S
O38 H37 0.760 . S
O38 Co39 2.009 1_556 S
Co39 H37 2.400 1_554 S
Co39 O38 2.009 1_554 S
Co39 O40 2.053 . S
Co39 O42 2.094 . S
Co39 O46 2.122 . S
Co39 O60 2.115 . S
Co39 O61 2.315 1_554 S
O40 Co39 2.053 . S
O40 C52 1.259 . S
O41 Co33 2.047 . S
O41 C52 1.257 . S
O42 Co39 2.094 . S
O42 C53 1.253 . S
O43 Co34 2.063 . S
O43 C53 1.268 1_556 S
O44 Co32 2.115 . S
O44 C54 1.281 . S
O45 Co32 2.315 1_554 S
O45 C54 1.252 1_554 S
O46 Co39 2.122 . S
O46 C55 1.272 . S
O47 Co33 2.113 . S
O47 C55 1.245 . S
C48 O56 1.259 . S
C48 O57 1.257 . S
C49 O58 1.268 1_556 S
C49 O59 1.253 . S
C50 O60 1.281 . S
C50 O61 1.252 1_554 S
C51 O62 1.272 . S
C51 O63 1.245 . S
C52 O40 1.259 . S
C52 O41 1.257 . S
C53 O42 1.253 . S
C53 O43 1.268 1_554 S
C54 O44 1.281 . S
C54 O45 1.252 1_556 S
C55 O46 1.272 . S
C55 O47 1.245 . S
O56 Co32 2.053 . S
O56 C48 1.259 . S
O57 Co34 2.047 . S
O57 C48 1.257 . S
O58 Co33 2.063 . S
O58 C49 1.268 1_554 S
O59 Co32 2.094 . S
O59 C49 1.253 . S
O60 Co39 2.115 . S
O60 C50 1.281 . S
O61 Co39 2.315 1_556 S
O61 C50 1.252 1_556 S
O62 Co32 2.122 . S
O62 C51 1.272 . S
O63 Co34 2.113 . S
O63 C51 1.245 . S
Co64 H67 2.400 1_556 S
Co64 O68 2.009 1_556 S
Co64 O76 2.115 . S
Co64 O77 2.315 1_556 S
Co64 O88 2.053 . S
Co64 O91 2.094 . S
Co64 O94 2.122 . S
Co65 O68 2.126 . S
Co65 H69 2.388 1_554 S
Co65 O70 2.053 1_554 S
Co65 O73 2.047 . S
Co65 O79 2.113 . S
Co65 O90 2.063 . S
Co66 H67 2.388 1_556 S
Co66 O68 2.053 1_556 S
Co66 O70 2.126 . S
Co66 O75 2.063 . S
Co66 O89 2.047 . S
Co66 O95 2.113 . S
H67 Co64 2.400 1_554 S
H67 Co66 2.388 1_554 S
H67 O68 0.760 . S
O68 Co64 2.009 1_554 S
O68 Co65 2.126 . S
O68 Co66 2.053 1_554 S
O68 H67 0.760 . S
H69 Co65 2.388 1_556 S
H69 O70 0.760 . S
H69 Co71 2.400 1_556 S
O70 Co65 2.053 1_556 S
O70 Co66 2.126 . S
O70 H69 0.760 . S
O70 Co71 2.009 1_556 S
Co71 H69 2.400 1_554 S
Co71 O70 2.009 1_554 S
Co71 O72 2.053 . S
Co71 O74 2.094 . S
Co71 O78 2.122 . S
Co71 O92 2.115 . S
Co71 O93 2.315 1_554 S
O72 Co71 2.053 . S
O72 C84 1.259 . S
O73 Co65 2.047 . S
O73 C84 1.257 . S
O74 Co71 2.094 . S
O74 C85 1.253 . S
O75 Co66 2.063 . S
O75 C85 1.268 1_556 S
O76 Co64 2.115 . S
O76 C86 1.281 . S
O77 Co64 2.315 1_554 S
O77 C86 1.252 1_554 S
O78 Co71 2.122 . S
O78 C87 1.272 . S
O79 Co65 2.113 . S
O79 C87 1.245 . S
C80 O88 1.259 . S
C80 O89 1.257 . S
C81 O90 1.268 1_556 S
C81 O91 1.253 . S
C82 O92 1.281 1_545 S
C82 O93 1.252 1_544 S
C83 O94 1.272 . S
C83 O95 1.245 . S
C84 O72 1.259 . S
C84 O73 1.257 . S
C85 O74 1.253 . S
C85 O75 1.268 1_554 S
C86 O76 1.281 . S
C86 O77 1.252 1_556 S
C87 O78 1.272 . S
C87 O79 1.245 . S
O88 Co64 2.053 . S
O88 C80 1.259 . S
O89 Co66 2.047 . S
O89 C80 1.257 . S
O90 Co65 2.063 . S
O90 C81 1.268 1_554 S
O91 Co64 2.094 . S
O91 C81 1.253 . S
O92 Co71 2.115 . S
O92 C82 1.281 1_565 S
O93 Co71 2.315 1_556 S
O93 C82 1.252 1_566 S
O94 Co64 2.122 . S
O94 C83 1.272 . S
O95 Co66 2.113 . S
O95 C83 1.245 . S
Co96 H99 2.400 . S
Co96 O100 2.009 . S
Co96 O108 2.115 . S
Co96 O109 2.315 . S
Co96 O120 2.053 . S
Co96 O123 2.094 . S
Co96 O126 2.122 . S
Co97 O100 2.126 . S
Co97 H101 2.388 . S
Co97 O102 2.053 . S
Co97 O105 2.047 . S
Co97 O111 2.113 . S
Co97 O122 2.063 . S
Co98 H99 2.388 . S
Co98 O100 2.053 . S
Co98 O102 2.126 . S
Co98 O107 2.063 . S
Co98 O121 2.047 . S
Co98 O127 2.113 . S
H99 Co96 2.400 . S
H99 Co98 2.388 . S
H99 O100 0.760 . S
O100 Co96 2.009 . S
O100 Co97 2.126 . S
O100 Co98 2.053 . S
O100 H99 0.760 . S
H101 Co97 2.388 . S
H101 O102 0.760 . S
H101 Co103 2.400 . S
O102 Co97 2.053 . S
O102 Co98 2.126 . S
O102 H101 0.760 . S
O102 Co103 2.009 . S
Co103 H101 2.400 . S
Co103 O102 2.009 . S
Co103 O104 2.053 . S
Co103 O106 2.094 . S
Co103 O110 2.122 . S
Co103 O124 2.115 . S
Co103 O125 2.315 . S
O104 Co103 2.053 . S
O104 C116 1.259 . S
O105 Co97 2.047 . S
O105 C116 1.257 . S
O106 Co103 2.094 . S
O106 C117 1.253 . S
O107 Co98 2.063 . S
O107 C117 1.268 . S
O108 Co96 2.115 . S
O108 C118 1.281 . S
O109 Co96 2.315 . S
O109 C118 1.252 . S
O110 Co103 2.122 . S
O110 C119 1.272 . S
O111 Co97 2.113 . S
O111 C119 1.245 . S
C112 O120 1.259 . S
C112 O121 1.257 . S
C113 O122 1.268 . S
C113 O123 1.253 . S
C114 O124 1.281 . S
C114 O125 1.252 . S
C115 O126 1.272 . S
C115 O127 1.245 . S
C116 O104 1.259 . S
C116 O105 1.257 . S
C117 O106 1.253 . S
C117 O107 1.268 . S
C118 O108 1.281 . S
C118 O109 1.252 . S
C119 O110 1.272 . S
C119 O111 1.245 . S
O120 Co96 2.053 . S
O120 C112 1.259 . S
O121 Co98 2.047 . S
O121 C112 1.257 . S
O122 Co97 2.063 . S
O122 C113 1.268 . S
O123 Co96 2.094 . S
O123 C113 1.253 . S
O124 Co103 2.115 . S
O124 C114 1.281 . S
O125 Co103 2.315 . S
O125 C114 1.252 . S
O126 Co96 2.122 . S
O126 C115 1.272 . S
O127 Co98 2.113 . S
O127 C115 1.245 . S
Co128 H131 2.400 . S
Co128 O132 2.009 . S
Co128 O140 2.115 . S
Co128 O141 2.315 . S
Co128 O152 2.053 . S
Co128 O155 2.094 . S
Co128 O158 2.122 . S
Co129 O132 2.126 . S
Co129 H133 2.388 . S
Co129 O134 2.053 . S
Co129 O137 2.047 . S
Co129 O143 2.113 . S
Co129 O154 2.063 . S
Co130 H131 2.388 . S
Co130 O132 2.053 . S
Co130 O134 2.126 . S
Co130 O139 2.063 . S
Co130 O153 2.047 . S
Co130 O159 2.113 . S
H131 Co128 2.400 . S
H131 Co130 2.388 . S
H131 O132 0.760 . S
O132 Co128 2.009 . S
O132 Co129 2.126 . S
O132 Co130 2.053 . S
O132 H131 0.760 . S
H133 Co129 2.388 . S
H133 O134 0.760 . S
H133 Co135 2.400 . S
O134 Co129 2.053 . S
O134 Co130 2.126 . S
O134 H133 0.760 . S
O134 Co135 2.009 . S
Co135 H133 2.400 . S
Co135 O134 2.009 . S
Co135 O136 2.053 . S
Co135 O138 2.094 . S
Co135 O142 2.122 . S
Co135 O156 2.115 . S
Co135 O157 2.315 . S
O136 Co135 2.053 . S
O136 C148 1.259 . S
O137 Co129 2.047 . S
O137 C148 1.257 . S
O138 Co135 2.094 . S
O138 C149 1.253 . S
O139 Co130 2.063 . S
O139 C149 1.268 . S
O140 Co128 2.115 . S
O140 C150 1.281 . S
O141 Co128 2.315 . S
O141 C150 1.252 . S
O142 Co135 2.122 . S
O142 C151 1.272 . S
O143 Co129 2.113 . S
O143 C151 1.245 . S
C144 O152 1.259 . S
C144 O153 1.257 . S
C145 O154 1.268 . S
C145 O155 1.253 . S
C146 O156 1.281 . S
C146 O157 1.252 . S
C147 O158 1.272 . S
C147 O159 1.245 . S
C148 O136 1.259 . S
C148 O137 1.257 . S
C149 O138 1.253 . S
C149 O139 1.268 . S
C150 O140 1.281 . S
C150 O141 1.252 . S
C151 O142 1.272 . S
C151 O143 1.245 . S
O152 Co128 2.053 . S
O152 C144 1.259 . S
O153 Co130 2.047 . S
O153 C144 1.257 . S
O154 Co129 2.063 . S
O154 C145 1.268 . S
O155 Co128 2.094 . S
O155 C145 1.253 . S
O156 Co135 2.115 . S
O156 C146 1.281 . S
O157 Co135 2.315 . S
O157 C146 1.252 . S
O158 Co128 2.122 . S
O158 C147 1.272 . S
O159 Co130 2.113 . S
O159 C147 1.245 . S
Co160 H163 2.400 . S
Co160 O164 2.009 . S
Co160 O172 2.115 . S
Co160 O173 2.315 . S
Co160 O184 2.053 . S
Co160 O187 2.094 . S
Co160 O190 2.122 . S
Co161 O164 2.126 . S
Co161 H165 2.388 . S
Co161 O166 2.053 . S
Co161 O169 2.047 . S
Co161 O175 2.113 . S
Co161 O186 2.063 . S
Co162 H163 2.388 . S
Co162 O164 2.053 . S
Co162 O166 2.126 . S
Co162 O171 2.063 . S
Co162 O185 2.047 . S
Co162 O191 2.113 . S
H163 Co160 2.400 . S
H163 Co162 2.388 . S
H163 O164 0.760 . S
O164 Co160 2.009 . S
O164 Co161 2.126 . S
O164 Co162 2.053 . S
O164 H163 0.760 . S
H165 Co161 2.388 . S
H165 O166 0.760 . S
H165 Co167 2.400 . S
O166 Co161 2.053 . S
O166 Co162 2.126 . S
O166 H165 0.760 . S
O166 Co167 2.009 . S
Co167 H165 2.400 . S
Co167 O166 2.009 . S
Co167 O168 2.053 . S
Co167 O170 2.094 . S
Co167 O174 2.122 . S
Co167 O188 2.115 . S
Co167 O189 2.315 . S
O168 Co167 2.053 . S
O168 C180 1.259 . S
O169 Co161 2.047 . S
O169 C180 1.257 . S
O170 Co167 2.094 . S
O170 C181 1.253 . S
O171 Co162 2.063 . S
O171 C181 1.268 . S
O172 Co160 2.115 . S
O172 C182 1.281 . S
O173 Co160 2.315 . S
O173 C182 1.252 . S
O174 Co167 2.122 . S
O174 C183 1.272 . S
O175 Co161 2.113 . S
O175 C183 1.245 . S
C176 O184 1.259 . S
C176 O185 1.257 . S
C177 O186 1.268 . S
C177 O187 1.253 . S
C178 O188 1.281 . S
C178 O189 1.252 . S
C179 O190 1.272 . S
C179 O191 1.245 . S
C180 O168 1.259 . S
C180 O169 1.257 . S
C181 O170 1.253 . S
C181 O171 1.268 . S
C182 O172 1.281 . S
C182 O173 1.252 . S
C183 O174 1.272 . S
C183 O175 1.245 . S
O184 Co160 2.053 . S
O184 C176 1.259 . S
O185 Co162 2.047 . S
O185 C176 1.257 . S
O186 Co161 2.063 . S
O186 C177 1.268 . S
O187 Co160 2.094 . S
O187 C177 1.253 . S
O188 Co167 2.115 . S
O188 C178 1.281 . S
O189 Co167 2.315 . S
O189 C178 1.252 . S
O190 Co160 2.122 . S
O190 C179 1.272 . S
O191 Co162 2.113 . S
O191 C179 1.245 . S
Co192 H195 2.400 . S
Co192 O196 2.009 . S
Co192 O204 2.115 . S
Co192 O205 2.315 . S
Co192 O216 2.053 . S
Co192 O219 2.094 . S
Co192 O222 2.122 . S
Co193 O196 2.126 . S
Co193 H197 2.388 . S
Co193 O198 2.053 . S
Co193 O201 2.047 . S
Co193 O207 2.113 . S
Co193 O218 2.063 . S
Co194 H195 2.388 . S
Co194 O196 2.053 . S
Co194 O198 2.126 . S
Co194 O203 2.063 . S
Co194 O217 2.047 . S
Co194 O223 2.113 . S
H195 Co192 2.400 . S
H195 Co194 2.388 . S
H195 O196 0.760 . S
O196 Co192 2.009 . S
O196 Co193 2.126 . S
O196 Co194 2.053 . S
O196 H195 0.760 . S
H197 Co193 2.388 . S
H197 O198 0.760 . S
H197 Co199 2.400 . S
O198 Co193 2.053 . S
O198 Co194 2.126 . S
O198 H197 0.760 . S
O198 Co199 2.009 . S
Co199 H197 2.400 . S
Co199 O198 2.009 . S
Co199 O200 2.053 . S
Co199 O202 2.094 . S
Co199 O206 2.122 . S
Co199 O220 2.115 . S
Co199 O221 2.315 . S
O200 Co199 2.053 . S
O200 C212 1.259 . S
O201 Co193 2.047 . S
O201 C212 1.257 . S
O202 Co199 2.094 . S
O202 C213 1.253 . S
O203 Co194 2.063 . S
O203 C213 1.268 . S
O204 Co192 2.115 . S
O204 C214 1.281 1_565 S
O205 Co192 2.315 . S
O205 C214 1.252 1_565 S
O206 Co199 2.122 . S
O206 C215 1.272 . S
O207 Co193 2.113 . S
O207 C215 1.245 . S
C208 O216 1.259 . S
C208 O217 1.257 . S
C209 O218 1.268 . S
C209 O219 1.253 . S
C210 O220 1.281 . S
C210 O221 1.252 . S
C211 O222 1.272 . S
C211 O223 1.245 . S
C212 O200 1.259 . S
C212 O201 1.257 . S
C213 O202 1.253 . S
C213 O203 1.268 . S
C214 O204 1.281 1_545 S
C214 O205 1.252 1_545 S
C215 O206 1.272 . S
C215 O207 1.245 . S
O216 Co192 2.053 . S
O216 C208 1.259 . S
O217 Co194 2.047 . S
O217 C208 1.257 . S
O218 Co193 2.063 . S
O218 C209 1.268 . S
O219 Co192 2.094 . S
O219 C209 1.253 . S
O220 Co199 2.115 . S
O220 C210 1.281 . S
O221 Co199 2.315 . S
O221 C210 1.252 . S
O222 Co192 2.122 . S
O222 C211 1.272 . S
O223 Co194 2.113 . S
O223 C211 1.245 . S
Co224 H227 2.400 . S
Co224 O228 2.009 . S
Co224 O236 2.115 . S
Co224 O237 2.315 . S
Co224 O248 2.053 . S
Co224 O251 2.094 . S
Co224 O254 2.122 . S
Co225 O228 2.126 . S
Co225 H229 2.388 . S
Co225 O230 2.053 . S
Co225 O233 2.047 . S
Co225 O239 2.113 . S
Co225 O250 2.063 . S
Co226 H227 2.388 . S
Co226 O228 2.053 . S
Co226 O230 2.126 . S
Co226 O235 2.063 . S
Co226 O249 2.047 . S
Co226 O255 2.113 . S
H227 Co224 2.400 . S
H227 Co226 2.388 . S
H227 O228 0.760 . S
O228 Co224 2.009 . S
O228 Co225 2.126 . S
O228 Co226 2.053 . S
O228 H227 0.760 . S
H229 Co225 2.388 . S
H229 O230 0.760 . S
H229 Co231 2.400 . S
O230 Co225 2.053 . S
O230 Co226 2.126 . S
O230 H229 0.760 . S
O230 Co231 2.009 . S
Co231 H229 2.400 . S
Co231 O230 2.009 . S
Co231 O232 2.053 . S
Co231 O234 2.094 . S
Co231 O238 2.122 . S
Co231 O252 2.115 . S
Co231 O253 2.315 . S
O232 Co231 2.053 . S
O232 C244 1.259 . S
O233 Co225 2.047 . S
O233 C244 1.257 . S
O234 Co231 2.094 . S
O234 C245 1.253 . S
O235 Co226 2.063 . S
O235 C245 1.268 . S
O236 Co224 2.115 . S
O236 C246 1.281 1_455 S
O237 Co224 2.315 . S
O237 C246 1.252 1_455 S
O238 Co231 2.122 . S
O238 C247 1.272 . S
O239 Co225 2.113 . S
O239 C247 1.245 . S
C240 O248 1.259 . S
C240 O249 1.257 . S
C241 O250 1.268 . S
C241 O251 1.253 . S
C242 O252 1.281 . S
C242 O253 1.252 . S
C243 O254 1.272 . S
C243 O255 1.245 . S
C244 O232 1.259 . S
C244 O233 1.257 . S
C245 O234 1.253 . S
C245 O235 1.268 . S
C246 O236 1.281 1_655 S
C246 O237 1.252 1_655 S
C247 O238 1.272 . S
C247 O239 1.245 . S
O248 Co224 2.053 . S
O248 C240 1.259 . S
O249 Co226 2.047 . S
O249 C240 1.257 . S
O250 Co225 2.063 . S
O250 C241 1.268 . S
O251 Co224 2.094 . S
O251 C241 1.253 . S
O252 Co231 2.115 . S
O252 C242 1.281 . S
O253 Co231 2.315 . S
O253 C242 1.252 . S
O254 Co224 2.122 . S
O254 C243 1.272 . S
O255 Co226 2.113 . S
O255 C243 1.245 . S
Co256 H259 2.400 . S
Co256 O260 2.009 . S
Co256 O268 2.115 . S
Co256 O269 2.315 . S
Co256 O280 2.053 . S
Co256 O283 2.094 . S
Co256 O286 2.122 . S
Co257 O260 2.126 . S
Co257 H261 2.388 . S
Co257 O262 2.053 . S
Co257 O265 2.047 . S
Co257 O271 2.113 . S
Co257 O282 2.063 . S
Co258 H259 2.388 . S
Co258 O260 2.053 . S
Co258 O262 2.126 . S
Co258 O267 2.063 . S
Co258 O281 2.047 . S
Co258 O287 2.113 . S
H259 Co256 2.400 . S
H259 Co258 2.388 . S
H259 O260 0.760 . S
O260 Co256 2.009 . S
O260 Co257 2.126 . S
O260 Co258 2.053 . S
O260 H259 0.760 . S
H261 Co257 2.388 . S
H261 O262 0.760 . S
H261 Co263 2.400 . S
O262 Co257 2.053 . S
O262 Co258 2.126 . S
O262 H261 0.760 . S
O262 Co263 2.009 . S
Co263 H261 2.400 . S
Co263 O262 2.009 . S
Co263 O264 2.053 . S
Co263 O266 2.094 . S
Co263 O270 2.122 . S
Co263 O284 2.115 . S
Co263 O285 2.315 . S
O264 Co263 2.053 . S
O264 C276 1.259 . S
O265 Co257 2.047 . S
O265 C276 1.257 . S
O266 Co263 2.094 . S
O266 C277 1.253 . S
O267 Co258 2.063 . S
O267 C277 1.268 . S
O268 Co256 2.115 . S
O268 C278 1.281 . S
O269 Co256 2.315 . S
O269 C278 1.252 . S
O270 Co263 2.122 . S
O270 C279 1.272 . S
O271 Co257 2.113 . S
O271 C279 1.245 . S
C272 O280 1.259 . S
C272 O281 1.257 . S
C273 O282 1.268 . S
C273 O283 1.253 . S
C274 O284 1.281 . S
C274 O285 1.252 . S
C275 O286 1.272 . S
C275 O287 1.245 . S
C276 O264 1.259 . S
C276 O265 1.257 . S
C277 O266 1.253 . S
C277 O267 1.268 . S
C278 O268 1.281 . S
C278 O269 1.252 . S
C279 O270 1.272 . S
C279 O271 1.245 . S
O280 Co256 2.053 . S
O280 C272 1.259 . S
O281 Co258 2.047 . S
O281 C272 1.257 . S
O282 Co257 2.063 . S
O282 C273 1.268 . S
O283 Co256 2.094 . S
O283 C273 1.253 . S
O284 Co263 2.115 . S
O284 C274 1.281 . S
O285 Co263 2.315 . S
O285 C274 1.252 . S
O286 Co256 2.122 . S
O286 C275 1.272 . S
O287 Co258 2.113 . S
O287 C275 1.245 . S
C288 C289 1.170 . S
C288 C290 1.380 . S
C289 C288 1.170 . S
C290 C288 1.380 . S
C290 C291 1.170 . S
C291 C290 1.170 . S
C292 C293 1.170 . S
C292 C294 1.380 . S
C293 C292 1.170 . S
C294 C292 1.380 . S
C294 C295 1.170 1_545 S
C295 C294 1.170 1_565 S
C296 C297 1.170 1_655 S
C296 C298 1.380 . S
C297 C296 1.170 1_455 S
C298 C296 1.380 . S
C298 C299 1.170 . S
C299 C298 1.170 . S
C300 C301 1.170 . S
C300 C302 1.380 . S
C301 C300 1.170 . S
C302 C300 1.380 . S
C302 C303 1.170 . S
C303 C302 1.170 . S
C304 C305 1.170 . S
C304 C306 1.380 . S
C305 C304 1.170 . S
C306 C304 1.380 . S
C306 C307 1.170 . S
C307 C306 1.170 . S
C308 C309 1.170 . S
C308 C310 1.380 . S
C309 C308 1.170 . S
C310 C308 1.380 . S
C310 C311 1.170 . S
C311 C310 1.170 . S
C312 C313 1.170 . S
C312 C314 1.380 . S
C313 C312 1.170 . S
C314 C312 1.380 . S
C314 C315 1.170 . S
C315 C314 1.170 . S
C316 C317 1.170 . S
C316 C318 1.380 . S
C317 C316 1.170 . S
C318 C316 1.380 . S
C318 C319 1.170 . S
C319 C318 1.170 . S
C320 C321 1.170 . S
C320 C322 1.380 . S
C321 C320 1.170 . S
C322 C320 1.380 . S
C322 C323 1.170 . S
C323 C322 1.170 . S
C324 C325 1.170 . S
C324 C326 1.380 . S
C325 C324 1.170 . S
C326 C324 1.380 . S
C326 C327 1.170 . S
C327 C326 1.170 . S
C328 C329 1.170 . S
C328 C330 1.380 . S
C329 C328 1.170 . S
C330 C328 1.380 . S
C330 C331 1.170 . S
C331 C330 1.170 . S
C332 C333 1.170 . S
C332 C334 1.380 . S
C333 C332 1.170 . S
C334 C332 1.380 . S
C334 C335 1.170 . S
C335 C334 1.170 . S
C336 C337 1.170 . S
C336 C338 1.380 . S
C337 C336 1.170 . S
C338 C336 1.380 . S
C338 C339 1.170 . S
C339 C338 1.170 . S
C340 C341 1.170 . S
C340 C342 1.380 . S
C341 C340 1.170 . S
C342 C340 1.380 . S
C342 C343 1.170 . S
C343 C342 1.170 . S
C344 C345 1.170 . S
C344 C346 1.380 . S
C345 C344 1.170 . S
C346 C344 1.380 . S
C346 C347 1.170 . S
C347 C346 1.170 . S
C348 C349 1.170 . S
C348 C350 1.380 . S
C349 C348 1.170 . S
C350 C348 1.380 . S
C350 C351 1.170 . S
C351 C350 1.170 . S
C352 C353 1.170 . S
C352 C354 1.380 . S
C353 C352 1.170 . S
C354 C352 1.380 . S
C354 C355 1.170 . S
C355 C354 1.170 . S
C356 C357 1.170 . S
C356 C358 1.380 . S
C357 C356 1.170 . S
C358 C356 1.380 . S
C358 C359 1.170 . S
C359 C358 1.170 . S
C360 C361 1.170 . S
C360 C362 1.380 . S
C361 C360 1.170 . S
C362 C360 1.380 . S
C362 C363 1.170 . S
C363 C362 1.170 . S
C364 C365 1.170 . S
C364 C366 1.380 . S
C365 C364 1.170 . S
C366 C364 1.380 . S
C366 C367 1.170 1_545 S
C367 C366 1.170 1_565 S
C368 C369 1.170 . S
C368 C370 1.380 . S
C369 C368 1.170 . S
C370 C368 1.380 . S
C370 C371 1.170 1_655 S
C371 C370 1.170 1_455 S
C372 C373 1.170 . S
C372 C374 1.380 . S
C373 C372 1.170 . S
C374 C372 1.380 . S
C374 C375 1.170 . S
C375 C374 1.170 . S
C376 C377 1.170 . S
C376 C378 1.380 . S
C377 C376 1.170 . S
C378 C376 1.380 . S
C378 C379 1.170 . S
C379 C378 1.170 . S
C380 C381 1.170 . S
C380 C382 1.380 . S
C381 C380 1.170 . S
C382 C380 1.380 . S
C382 C383 1.170 . S
C383 C382 1.170 . S
C384 C385 1.170 . S
C384 C386 1.380 . S
C385 C384 1.170 . S
C386 C384 1.380 . S
C386 C387 1.170 . S
C387 C386 1.170 . S
C388 C389 1.170 . S
C388 C390 1.380 . S
C389 C388 1.170 . S
C390 C388 1.380 . S
C390 C391 1.170 . S
C391 C390 1.170 . S
C392 C393 1.170 . S
C392 C394 1.380 . S
C393 C392 1.170 . S
C394 C392 1.380 . S
C394 C395 1.170 . S
C395 C394 1.170 . S
C396 C397 1.170 . S
C396 C398 1.380 . S
C397 C396 1.170 . S
C398 C396 1.380 . S
C398 C399 1.170 . S
C399 C398 1.170 . S
C400 C401 1.170 . S
C400 C402 1.380 . S
C401 C400 1.170 . S
C402 C400 1.380 . S
C402 C403 1.170 . S
C403 C402 1.170 . S
C404 C405 1.170 . S
C404 C406 1.380 . S
C405 C404 1.170 . S
C406 C404 1.380 . S
C406 C407 1.170 . S
C407 C406 1.170 . S
C408 C409 1.170 . S
C408 C410 1.380 . S
C409 C408 1.170 . S
C410 C408 1.380 . S
C410 C411 1.170 . S
C411 C410 1.170 . S
C412 C413 1.170 . S
C412 C414 1.380 . S
C413 C412 1.170 . S
C414 C412 1.380 . S
C414 C415 1.170 . S
C415 C414 1.170 . S
C416 C417 1.170 . S
C416 C418 1.380 . S
C417 C416 1.170 . S
C418 C416 1.380 . S
C418 C419 1.170 . S
C419 C418 1.170 . S
C420 C421 1.170 . S
C420 C422 1.380 . S
C421 C420 1.170 . S
C422 C420 1.380 . S
C422 C423 1.170 . S
C423 C422 1.170 . S
C424 C425 1.170 . S
C424 C426 1.380 . S
C425 C424 1.170 . S
C426 C424 1.380 . S
C426 C427 1.170 . S
C427 C426 1.170 . S
C428 C429 1.170 . S
C428 C430 1.380 . S
C429 C428 1.170 . S
C430 C428 1.380 . S
C430 C431 1.170 . S
C431 C430 1.170 . S
C289 C17 1.655 1_554 S
C291 C150 1.601 . S
C293 C182 1.596 . S
C295 C49 1.658 1_554 S
C297 C81 1.628 1_554 S
C299 C118 1.633 . S
C301 C53 2.207 . S
C303 C112 2.269 . S
C305 C85 2.202 1_545 S
C307 C144 2.273 . S
C309 C21 2.208 1_655 S
C311 C176 2.275 . S
C313 C113 1.651 . S
C315 C246 1.601 . S
C317 C278 1.598 . S
C319 C145 1.658 . S
C321 C214 1.626 . S
C323 C177 1.634 . S
C325 C149 2.222 . S
C327 C208 2.273 1_545 S
C329 C240 2.267 1_655 S
C331 C181 2.220 . S
C333 C272 2.268 . S
C335 C117 2.216 . S
C337 C209 1.632 . S
C339 C54 1.629 . S
C341 C241 1.656 . S
C343 C86 1.597 . S
C345 C22 1.601 . S
C347 C273 1.656 . S
C349 C16 2.272 . S
C351 C245 2.203 . S
C353 C48 2.268 . S
C355 C277 2.220 . S
C357 C213 2.210 . S
C359 C80 2.275 . S
C361 C82 1.448 . S
C363 C20 1.488 . S
C365 C18 1.453 . S
C367 C52 1.467 . S
C369 C50 1.451 . S
C371 C84 1.467 . S
C373 C178 1.454 . S
C375 C116 1.491 . S
C377 C114 1.469 . S
C379 C148 1.469 . S
C381 C146 1.478 . S
C383 C180 1.479 . S
C385 C212 1.470 . S
C387 C274 1.445 . S
C389 C244 1.494 . S
C391 C210 1.469 . S
C393 C276 1.477 . S
C395 C242 1.442 . S
C397 C19 1.277 . S
C399 C23 1.274 . S
C401 C55 1.266 . S
C403 C51 1.283 . S
C405 C83 1.267 . S
C407 C87 1.265 . S
C409 C119 1.261 . S
C411 C115 1.286 1_556 S
C413 C147 1.255 1_556 S
C415 C151 1.284 . S
C417 C183 1.255 . S
C419 C179 1.284 1_556 S
C421 C211 1.267 . S
C423 C215 1.282 1_554 S
C425 C243 1.255 . S
C427 C247 1.285 1_554 S
C429 C275 1.255 . S
C431 C279 1.282 1_554 S
