# Generated by pormake.
# Topology wme, (6)-cn, num edge types: 1
# Building blocks:
#     Node 0, Type 0, BuildingBlock: NUHQIS_clean_sbu_0, # of connection points: 6
#     Node 1, Type 0, BuildingBlock: NUHQIS_clean_sbu_0, # of connection points: 6
#     Node 2, Type 0, BuildingBlock: NUHQIS_clean_sbu_0, # of connection points: 6
#     Node 3, Type 0, BuildingBlock: NUHQIS_clean_sbu_0, # of connection points: 6
#     Node 4, Type 0, BuildingBlock: NUHQIS_clean_sbu_0, # of connection points: 6
#     Node 5, Type 0, BuildingBlock: NUHQIS_clean_sbu_0, # of connection points: 6
#     Node 6, Type 0, BuildingBlock: NUHQIS_clean_sbu_0, # of connection points: 6
#     Node 7, Type 0, BuildingBlock: NUHQIS_clean_sbu_0, # of connection points: 6
#     Node 8, Type 0, BuildingBlock: NUHQIS_clean_sbu_0, # of connection points: 6
#     Node 9, Type 0, BuildingBlock: NUHQIS_clean_sbu_0, # of connection points: 6
#     Node 10, Type 0, BuildingBlock: NUHQIS_clean_sbu_0, # of connection points: 6
#     Node 11, Type 0, BuildingBlock: NUHQIS_clean_sbu_0, # of connection points: 6
#     Edge 12, Type (0, 0), None
#     Edge 13, Type (0, 0), None
#     Edge 14, Type (0, 0), None
#     Edge 15, Type (0, 0), None
#     Edge 16, Type (0, 0), None
#     Edge 17, Type (0, 0), None
#     Edge 18, Type (0, 0), None
#     Edge 19, Type (0, 0), None
#     Edge 20, Type (0, 0), None
#     Edge 21, Type (0, 0), None
#     Edge 22, Type (0, 0), None
#     Edge 23, Type (0, 0), None
#     Edge 24, Type (0, 0), None
#     Edge 25, Type (0, 0), None
#     Edge 26, Type (0, 0), None
#     Edge 27, Type (0, 0), None
#     Edge 28, Type (0, 0), None
#     Edge 29, Type (0, 0), None
#     Edge 30, Type (0, 0), None
#     Edge 31, Type (0, 0), None
#     Edge 32, Type (0, 0), None
#     Edge 33, Type (0, 0), None
#     Edge 34, Type (0, 0), None
#     Edge 35, Type (0, 0), None
#     Edge 36, Type (0, 0), None
#     Edge 37, Type (0, 0), None
#     Edge 38, Type (0, 0), None
#     Edge 39, Type (0, 0), None
#     Edge 40, Type (0, 0), None
#     Edge 41, Type (0, 0), None
#     Edge 42, Type (0, 0), None
#     Edge 43, Type (0, 0), None
#     Edge 44, Type (0, 0), None
#     Edge 45, Type (0, 0), None
#     Edge 46, Type (0, 0), None
#     Edge 47, Type (0, 0), None
# Relax obj value: 0.114
# Max RMSD: 0.260
# Mean RMSD: 0.260
data_MOF--net-wme--node1-NUHQIS_clean_sbu_0--edge1-none
_symmetry_space_group_name_H-M    P1
_symmetry_Int_Tables_number       1
_symmetry_cell_setting            triclinic
loop_
_symmetry_equiv_pos_as_xyz
'x, y, z'
_cell_length_a     22.383737
_cell_length_b     22.390384
_cell_length_c     23.389318
_cell_angle_alpha  89.998948
_cell_angle_beta   89.999799
_cell_angle_gamma 120.00905
loop_
_atom_site_label
_atom_site_type_symbol
_atom_site_fract_x
_atom_site_fract_y
_atom_site_fract_z
_atom_type_partial_charge
Tb0 Tb 0.29544 0.43907 0.0399 0.0
Eu1 Eu 0.35677 0.36102 0.09773 0.0
C2 C 0.3607 0.36533 -0.04449 0.0
C3 C 0.19242 0.29365 0.07394 0.0
C4 C 0.24816 0.56662 0.00526 0.0
C5 C 0.17531 0.6185 0.01424 0.0
C6 C 0.19134 0.57218 -0.01256 0.0
C7 C 0.28938 0.60882 0.05017 0.0
C8 C 0.27469 0.65658 0.07579 0.0
C9 C 0.21712 0.66154 0.05847 0.0
C10 C 0.25627 0.5088 -0.01581 0.0
O11 O 0.26591 0.43737 0.12967 0.0
O12 O 0.34811 0.41878 0.17244 0.0
O13 O 0.45133 0.46598 0.08054 0.0
O14 O 0.3881 0.52042 0.0788 0.0
C15 C 0.29897 0.43464 0.17563 0.0
O16 O 0.37308 0.29678 0.15906 0.0
O17 O 0.40323 0.30052 0.07043 0.0
O18 O 0.34238 0.38039 0.00438 0.0
O19 O 0.34335 0.37913 0.00589 0.0
O20 O 0.21081 0.33631 0.03111 0.0
O21 O 0.23937 0.2964 0.10949 0.0
C22 C 0.44776 0.52299 0.07696 0.0
O23 O 0.31901 0.51839 -0.01996 0.0
O24 O 0.21415 0.45038 0.00879 0.0
C25 C 0.35153 0.19237 0.11447 0.0
C26 C 0.27392 1.0504 0.08893 0.0
C27 C 0.34412 0.0897 0.07379 0.0
C28 C 0.38244 0.15955 0.08674 0.0
C29 C 0.28157 0.15344 0.13071 0.0
C30 C 0.24324 0.08241 0.11891 0.0
C31 C 0.39098 0.26809 0.11905 0.0
H32 H 0.13212 0.62291 -0.00126 0.0
H33 H 0.15937 0.54021 0.95283 0.0
H34 H 0.3327 0.60464 0.06574 0.0
H35 H 0.30885 0.69029 0.10883 0.0
H36 H 0.37 1.06649 0.05178 0.0
H37 H 0.43593 0.18855 0.07336 0.0
H38 H 0.2562 0.17809 0.15134 0.0
H39 H 0.18953 1.05324 0.13153 0.0
Tb40 Tb 0.92375 0.26144 0.53985 0.0
Eu41 Eu 1.0631 0.32274 0.59776 0.0
C42 C 1.06285 0.32684 0.45553 0.0
C43 C 0.96616 0.15845 0.57389 0.0
C44 C 0.74895 0.21424 0.50514 0.0
C45 C 0.62422 0.14132 0.51434 0.0
C46 C 0.68655 0.15731 0.48748 0.0
C47 C 0.748 0.25561 0.54993 0.0
C48 C 0.68557 0.24095 0.5756 0.0
C49 C 0.62303 0.18328 0.55844 0.0
C50 C 0.81488 0.22232 0.48407 0.0
O51 O 0.89583 0.23188 0.6296 0.0
O52 O 0.9966 0.31406 0.67242 0.0
O53 O 1.0527 0.41728 0.58055 0.0
O54 O 0.935 0.35405 0.57876 0.0
C55 C 0.93158 0.26493 0.67558 0.0
O56 O 0.14364 0.33917 0.65916 0.0
O57 O 0.1701 0.36909 0.57049 0.0
O58 O 1.02942 0.30843 0.50438 0.0
O59 O 1.03166 0.30941 0.5059 0.0
O60 O 0.94193 0.17687 0.53104 0.0
O61 O 1.01031 0.20536 0.60948 0.0
C62 C 0.9921 0.4137 0.57695 0.0
O63 O 0.86807 0.28503 0.47994 0.0
O64 O 0.83116 0.18019 0.50868 0.0
C65 C 0.22654 0.31753 0.61476 0.0
C66 C 0.29092 0.23995 0.58924 0.0
C67 C 0.32213 0.31029 0.57458 0.0
C68 C 0.29057 0.34859 0.5875 0.0
C69 C 0.19521 0.24744 0.63059 0.0
C70 C 0.22791 0.20911 0.61879 0.0
C71 C 0.19027 0.35698 0.61918 0.0
H72 H 0.5766 0.09804 0.49896 0.0
H73 H 0.68653 0.12522 0.45298 0.0
H74 H 0.79551 0.29901 0.56538 0.0
H75 H 0.68604 0.2752 0.60855 0.0
H76 H 0.37147 0.33627 0.55292 0.0
H77 H 0.31529 0.40219 0.57446 0.0
H78 H 0.14497 0.22198 0.65087 0.0
H79 H 0.20313 0.15528 0.63105 0.0
Tb80 Tb 0.72977 0.89006 0.0399 0.0
Eu81 Eu 0.80777 1.02939 0.09781 0.0
C82 C 0.80341 1.0291 -0.04443 0.0
C83 C 0.8752 0.93251 0.07405 0.0
C84 C 0.60222 0.71527 0.00518 0.0
C85 C 0.55033 0.59055 0.01416 0.0
C86 C 0.59664 0.6529 -0.01266 0.0
C87 C 0.56005 0.71427 0.05012 0.0
C88 C 0.51229 0.65182 0.07576 0.0
C89 C 0.50731 0.58931 0.05842 0.0
C90 C 0.66004 0.78121 -0.01589 0.0
O91 O 0.73139 0.86214 0.12964 0.0
O92 O 0.74996 0.96287 0.17247 0.0
O93 O 0.70278 1.01892 0.0806 0.0
O94 O 0.64837 0.90125 0.07882 0.0
C95 C 0.73409 0.89787 0.17563 0.0
O96 O 0.87189 0.10994 0.15918 0.0
O97 O 0.86831 0.13635 0.07053 0.0
O98 O 0.78844 0.99569 0.00443 0.0
O99 O 0.7897 0.99793 0.00595 0.0
O100 O 0.83256 0.90823 0.03119 0.0
O101 O 0.87242 0.97668 0.10959 0.0
C102 C 0.64578 0.95832 0.077 0.0
O103 O 0.65045 0.83435 -0.01999 0.0
O104 O 0.71849 0.79753 0.00868 0.0
C105 C 0.97638 0.19285 0.11471 0.0
C106 C 0.11837 0.25724 0.08912 0.0
C107 C 1.07914 0.28826 0.07422 0.0
C108 C 1.00926 0.2567 0.08718 0.0
C109 C 1.01526 0.16171 0.13075 0.0
C110 C 1.0863 0.19442 0.11892 0.0
C111 C 0.90064 0.15654 0.11919 0.0
H112 H 0.54589 0.54295 -0.00135 0.0
H113 H 0.6286 0.65292 0.95271 0.0
H114 H 0.56424 0.76175 0.06571 0.0
H115 H 0.4786 0.65225 0.10884 0.0
H116 H 0.1024 0.33745 0.05236 0.0
H117 H 0.9803 0.28128 0.07396 0.0
H118 H 0.99056 0.1116 0.15122 0.0
H119 H 0.11543 0.16979 0.13136 0.0
Tb120 Tb 0.90702 0.69574 0.53992 0.0
Eu121 Eu 0.84569 0.77378 0.59775 0.0
C122 C 0.84172 0.76946 0.45553 0.0
C123 C 1.01003 0.84116 0.57393 0.0
C124 C 0.9543 0.56819 0.50526 0.0
C125 C 1.02718 0.51634 0.51425 0.0
C126 C 1.01116 0.56267 0.48746 0.0
C127 C 0.91305 0.52594 0.55013 0.0
C128 C 0.92773 0.47817 0.57575 0.0
C129 C 0.98532 0.47325 0.55844 0.0
C130 C 0.94619 0.62601 0.4842 0.0
O131 O 0.93656 0.69745 0.62968 0.0
O132 O 0.85435 0.71603 0.67246 0.0
O133 O 0.75113 0.66882 0.58055 0.0
O134 O 0.81436 0.61438 0.57883 0.0
C135 C 0.9035 0.70017 0.67565 0.0
O136 O 0.82934 0.83799 0.65908 0.0
O137 O 0.79925 0.8343 0.57044 0.0
O138 O 0.86006 0.75439 0.5044 0.0
O139 O 0.85909 0.75566 0.50591 0.0
O140 O 0.99162 0.7985 0.5311 0.0
O141 O 0.96309 0.8384 0.60949 0.0
C142 C 0.7547 0.61182 0.57699 0.0
O143 O 0.88345 0.61642 0.48006 0.0
O144 O 0.98831 0.68443 0.50881 0.0
C145 C 0.85091 0.94242 0.61453 0.0
C146 C 0.92852 0.08439 0.589 0.0
C147 C 0.85829 1.04512 0.57396 0.0
C148 C 0.81997 0.97526 0.5869 0.0
C149 C 0.92091 0.98131 0.63068 0.0
C150 C 0.95925 1.05234 0.61888 0.0
C151 C 0.81146 0.8667 0.61907 0.0
H152 H 1.07039 0.51195 0.49877 0.0
H153 H 1.04316 0.59468 0.45288 0.0
H154 H 0.86971 0.53009 0.56569 0.0
H155 H 0.89355 0.44443 0.60877 0.0
H156 H 0.83239 0.06836 0.55203 0.0
H157 H 0.76646 0.94629 0.57359 0.0
H158 H 0.9463 0.95664 0.65123 0.0
H159 H 1.01298 0.0815 0.63142 0.0
Tb160 Tb 0.27871 0.87334 0.03986 0.0
Eu161 Eu 0.13936 0.81205 0.09777 0.0
C162 C 0.13961 0.8079 -0.04446 0.0
C163 C 0.23629 0.97633 0.07384 0.0
C164 C 0.45351 0.92052 0.00514 0.0
C165 C 0.57825 0.99343 0.01429 0.0
C166 C 0.51591 0.97743 -0.01256 0.0
C167 C 0.45447 0.8792 0.04996 0.0
C168 C 0.5169 0.89386 0.07563 0.0
C169 C 0.57944 0.95151 0.05842 0.0
C170 C 0.38758 0.91244 -0.01592 0.0
O171 O 0.30663 0.90292 0.1296 0.0
O172 O 0.20586 0.82074 0.17243 0.0
O173 O 0.14976 0.71751 0.08058 0.0
O174 O 0.26747 0.78074 0.07878 0.0
C175 C 0.27088 0.86987 0.17559 0.0
O176 O 1.05882 0.7956 0.15917 0.0
O177 O 1.03237 0.76572 0.0705 0.0
O178 O 0.17304 0.82633 0.00439 0.0
O179 O 0.1708 0.82535 0.00591 0.0
O180 O 0.26053 0.9579 0.03101 0.0
O181 O 0.19215 0.92943 0.10945 0.0
C182 C 0.21035 0.72109 0.077 0.0
O183 O 0.33439 0.84973 -0.02005 0.0
O184 O 0.37131 0.95457 0.00868 0.0
C185 C 0.97593 0.81726 0.11479 0.0
C186 C 0.91156 0.89485 0.08927 0.0
C187 C 0.88033 0.82452 0.07462 0.0
C188 C 0.91188 0.78621 0.08755 0.0
C189 C 1.00727 0.88737 0.13061 0.0
C190 C 0.97458 0.9257 0.11881 0.0
C191 C 1.01219 0.77781 0.1192 0.0
H192 H 0.62587 1.0367 -0.00111 0.0
H193 H 0.51593 1.00948 0.95291 0.0
H194 H 0.40696 0.83581 0.06544 0.0
H195 H 0.51644 0.85964 0.1086 0.0
H196 H 0.83099 0.79854 0.05298 0.0
H197 H 0.88715 0.7326 0.07451 0.0
H198 H 1.05751 0.91282 0.15087 0.0
H199 H 0.99936 0.97953 0.13106 0.0
Tb200 Tb 0.47272 0.24476 0.53988 0.0
Eu201 Eu 0.3947 0.10542 0.5978 0.0
C202 C 0.39909 0.10571 0.45557 0.0
C203 C 0.32728 0.2023 0.57401 0.0
C204 C 0.60029 0.41954 0.50518 0.0
C205 C 0.65222 0.54427 0.5141 0.0
C206 C 0.60593 0.48191 0.48727 0.0
C207 C 0.64238 0.42053 0.55019 0.0
C208 C 0.69012 0.48298 0.57583 0.0
C209 C 0.69515 0.5455 0.55842 0.0
C210 C 0.54247 0.3536 0.48409 0.0
O211 O 0.47109 0.27267 0.62963 0.0
O212 O 0.4525 0.17193 0.67246 0.0
O213 O 0.49968 0.11588 0.58061 0.0
O214 O 0.55412 0.23355 0.57881 0.0
C215 C 0.46838 0.23694 0.67562 0.0
O216 O 0.33055 1.02488 0.65917 0.0
O217 O 0.33418 0.99845 0.57053 0.0
O218 O 0.41405 0.13912 0.50443 0.0
O219 O 0.41278 0.13688 0.50594 0.0
O220 O 0.36994 0.2266 0.53117 0.0
O221 O 0.33004 0.15812 0.60956 0.0
C222 C 0.5567 0.17648 0.57701 0.0
O223 O 0.55206 0.30047 0.48001 0.0
O224 O 0.48401 0.33728 0.50866 0.0
C225 C 0.22607 0.94196 0.61468 0.0
C226 C 1.08409 0.87758 0.58908 0.0
C227 C 0.12335 0.84662 0.57408 0.0
C228 C 0.19322 0.87817 0.58705 0.0
C229 C 0.18718 0.97305 0.63081 0.0
C230 C 0.11614 0.94034 0.61898 0.0
C231 C 0.30181 0.97826 0.61918 0.0
H232 H 0.65672 0.59187 0.49854 0.0
H233 H 0.57405 0.4819 0.45259 0.0
H234 H 0.63813 0.37304 0.56582 0.0
H235 H 0.72375 0.48255 0.60896 0.0
H236 H 1.10011 0.79748 0.55215 0.0
H237 H 0.2222 0.85364 0.57376 0.0
H238 H 0.21186 1.0231 0.65135 0.0
H239 H 1.08698 0.96491 0.6315 0.0
Tb240 Tb 0.72976 0.87329 0.36808 0.0
Eu241 Eu 0.80778 0.81196 0.31018 0.0
C242 C 0.80342 0.80792 0.45241 0.0
C243 C 0.87517 0.97628 0.33387 0.0
C244 C 0.60219 0.92052 0.40279 0.0
C245 C 0.5502 0.99326 0.39394 0.0
C246 C 0.59649 0.97719 0.42076 0.0
C247 C 0.56016 0.87948 0.35773 0.0
C248 C 0.51242 0.8942 0.3321 0.0
C249 C 0.50732 0.95163 0.34956 0.0
C250 C 0.66002 0.9124 0.42387 0.0
O251 O 0.73135 0.9028 0.27833 0.0
O252 O 0.74998 0.82066 0.23551 0.0
O253 O 0.70281 0.71744 0.32741 0.0
O254 O 0.64837 0.78067 0.32917 0.0
C255 C 0.73407 0.86976 0.23235 0.0
O256 O 0.87185 0.79546 0.2488 0.0
O257 O 0.8684 0.76563 0.33749 0.0
O258 O 0.78845 0.82635 0.40355 0.0
O259 O 0.78971 0.82538 0.40204 0.0
O260 O 0.83254 0.95795 0.37673 0.0
O261 O 0.87242 0.92931 0.29836 0.0
C262 C 0.64579 0.72101 0.33101 0.0
O263 O 0.65042 0.84967 0.42796 0.0
O264 O 0.71847 0.95453 0.39931 0.0
C265 C 0.9764 0.81712 0.29321 0.0
C266 C 0.1184 0.8947 0.31875 0.0
C267 C 1.07923 0.82438 0.33345 0.0
C268 C 1.00935 0.78607 0.32051 0.0
C269 C 1.01522 0.8872 0.27734 0.0
C270 C 1.08626 0.92553 0.28915 0.0
C271 C 0.90066 0.77768 0.2888 0.0
H272 H 0.54565 1.03632 0.40955 0.0
H273 H 0.62832 1.00901 0.45548 0.0
H274 H 0.56445 0.83628 0.34205 0.0
H275 H 0.47883 0.86018 0.29893 0.0
H276 H 0.10256 0.79841 0.35514 0.0
H277 H 0.98043 0.73248 0.33359 0.0
H278 H 0.99046 0.91265 0.25703 0.0
H279 H 0.11535 0.97934 0.27686 0.0
Tb280 Tb 0.92374 0.69585 0.86811 0.0
Eu281 Eu 1.06312 0.77394 0.81022 0.0
C282 C 1.06282 0.76956 0.95245 0.0
C283 C 0.96612 0.84124 0.83402 0.0
C284 C 0.74893 0.56823 0.90283 0.0
C285 C 0.62419 0.51634 0.89376 0.0
C286 C 0.68653 0.56266 0.9206 0.0
C287 C 0.74798 0.52603 0.85794 0.0
C288 C 0.68554 0.47826 0.83228 0.0
C289 C 0.62299 0.4733 0.84955 0.0
C290 C 0.81487 0.62608 0.92389 0.0
O291 O 0.89582 0.69747 0.77836 0.0
O292 O 0.99663 0.71614 0.73555 0.0
O293 O 1.05273 0.66901 0.82745 0.0
O294 O 0.93503 0.61452 0.8292 0.0
C295 C 0.93159 0.70019 0.73239 0.0
O296 O 0.1437 0.83794 0.74881 0.0
O297 O 0.17008 0.83471 0.83753 0.0
O298 O 1.0294 0.75454 0.90359 0.0
O299 O 1.03164 0.75581 0.90208 0.0
O300 O 0.94185 0.79859 0.87686 0.0
O301 O 1.01032 0.83851 0.79846 0.0
C302 C 0.99214 0.61198 0.83103 0.0
O303 O 0.86806 0.61655 0.928 0.0
O304 O 0.83114 0.68449 0.89931 0.0
C305 C 0.22655 0.94258 0.79308 0.0
C306 C 0.29096 0.08454 0.81852 0.0
C307 C 0.32241 1.04554 0.83282 0.0
C308 C 0.29083 0.97567 0.81994 0.0
C309 C 0.19501 0.98124 0.77755 0.0
C310 C 0.22771 1.05228 0.78931 0.0
C311 C 0.19029 0.86685 0.78879 0.0
H312 H 0.57656 0.51192 0.90922 0.0
H313 H 0.68651 0.59463 -0.04481 0.0
H314 H 0.79549 0.53021 0.8424 0.0
H315 H 0.686 0.44456 0.79925 0.0
H316 H 0.37193 0.069 0.85419 0.0
H317 H 0.31571 0.94686 0.83275 0.0
H318 H 0.14461 0.95637 0.75757 0.0
H319 H 0.20276 0.08125 0.77733 0.0
Tb320 Tb 0.29544 0.88995 0.36805 0.0
Eu321 Eu 0.35678 1.02936 0.31022 0.0
C322 C 0.36069 1.02895 0.45245 0.0
C323 C 0.19244 0.93236 0.33397 0.0
C324 C 0.24817 0.71512 0.40271 0.0
C325 C 0.17532 0.59039 0.39375 0.0
C326 C 0.19135 0.65274 0.42055 0.0
C327 C 0.28939 0.71413 0.35781 0.0
C328 C 0.27471 0.65167 0.3322 0.0
C329 C 0.21714 0.58915 0.34953 0.0
C330 C 0.25629 0.78105 0.42378 0.0
O331 O 0.26594 0.86213 0.27829 0.0
O332 O 0.3481 0.96295 0.23551 0.0
O333 O 0.45134 1.01897 0.32745 0.0
O334 O 0.38812 0.90128 0.32915 0.0
C335 C 0.299 0.89793 0.23232 0.0
O336 O 0.37328 0.10995 0.24888 0.0
O337 O 0.40306 0.13629 0.33758 0.0
O338 O 0.34238 0.99556 0.40357 0.0
O339 O 0.34334 0.99779 0.40206 0.0
O340 O 0.21079 0.90805 0.37679 0.0
O341 O 0.23939 0.97658 0.29844 0.0
C342 C 0.44777 0.95839 0.33099 0.0
O343 O 0.31903 0.83421 0.4279 0.0
O344 O 0.21417 0.79735 0.39918 0.0
C345 C 0.35156 0.19278 0.29329 0.0
C346 C 0.27398 0.25717 0.31875 0.0
C347 C 0.34434 0.28839 0.33339 0.0
C348 C 0.38265 0.25682 0.32049 0.0
C349 C 0.28144 0.16144 0.27749 0.0
C350 C 0.2431 0.19414 0.28925 0.0
C351 C 0.39103 0.15652 0.28889 0.0
H352 H 0.13213 0.54279 0.40926 0.0
H353 H 0.15938 0.65275 0.45515 0.0
H354 H 0.33271 0.76162 0.34223 0.0
H355 H 0.30886 0.65211 0.29916 0.0
H356 H 0.37034 0.33774 0.355 0.0
H357 H 0.43627 0.28155 0.33353 0.0
H358 H 0.25596 0.11119 0.25725 0.0
H359 H 0.18926 0.16936 0.27701 0.0
Tb360 Tb 0.47268 0.2615 0.86807 0.0
Eu361 Eu 0.39467 0.32285 0.81016 0.0
C362 C 0.399 0.32686 0.95239 0.0
C363 C 0.32727 0.15853 0.83382 0.0
C364 C 0.60025 0.21429 0.90279 0.0
C365 C 0.65221 0.14151 0.89389 0.0
C366 C 0.6059 0.15756 0.92071 0.0
C367 C 0.64235 0.25539 0.85779 0.0
C368 C 0.69011 0.24069 0.83216 0.0
C369 C 0.69515 0.18321 0.84957 0.0
C370 C 0.54242 0.2224 0.92387 0.0
O371 O 0.47111 0.23201 0.77832 0.0
O372 O 0.45247 0.31414 0.73549 0.0
O373 O 0.49965 0.41736 0.82739 0.0
O374 O 0.55408 0.35412 0.82915 0.0
C375 C 0.46839 0.26505 0.73234 0.0
O376 O 0.33063 0.33938 0.74877 0.0
O377 O 0.33404 0.36917 0.83747 0.0
O378 O 0.41398 0.30844 0.90353 0.0
O379 O 0.41271 0.30941 0.90202 0.0
O380 O 0.36991 0.17682 0.87667 0.0
O381 O 0.33003 0.20551 0.79832 0.0
C382 C 0.55666 0.41377 0.83097 0.0
O383 O 0.55201 0.28513 0.92795 0.0
O384 O 0.48397 0.18027 0.8993 0.0
C385 C 0.22606 0.3177 0.79315 0.0
C386 C 1.08407 0.24011 0.81869 0.0
C387 C 0.12321 0.31045 0.83333 0.0
C388 C 0.19309 0.34876 0.8204 0.0
C389 C 0.18726 0.2476 0.77733 0.0
C390 C 0.11621 0.20927 0.78914 0.0
C391 C 0.3018 0.35715 0.78877 0.0
H392 H 0.6567 0.09841 0.90946 0.0
H393 H 0.57401 0.12569 -0.04461 0.0
H394 H 0.63811 0.29863 0.84215 0.0
H395 H 0.72374 0.27476 0.79904 0.0
H396 H 1.09987 0.33643 0.85498 0.0
H397 H 0.222 0.40237 0.83344 0.0
H398 H 0.21203 0.22215 0.75707 0.0
H399 H 1.08714 0.15544 0.77689 0.0
Tb400 Tb 0.27872 0.43892 0.3681 0.0
Eu401 Eu 0.13934 0.36087 0.3102 0.0
C402 C 0.13963 0.36518 0.45243 0.0
C403 C 0.23632 0.29354 0.33396 0.0
C404 C 0.45352 0.56652 0.40284 0.0
C405 C 0.57826 0.61837 0.39371 0.0
C406 C 0.51592 0.57203 0.42055 0.0
C407 C 0.45447 0.60879 0.35801 0.0
C408 C 0.51691 0.65657 0.33235 0.0
C409 C 0.57945 0.66148 0.34957 0.0
C410 C 0.38758 0.50866 0.42389 0.0
O411 O 0.30665 0.43733 0.27834 0.0
O412 O 0.20584 0.41868 0.23554 0.0
O413 O 0.14975 0.46581 0.32743 0.0
O414 O 0.26747 0.52028 0.32921 0.0
C415 C 0.27088 0.43462 0.23237 0.0
O416 O 1.05877 0.29684 0.2488 0.0
O417 O 1.03237 0.30016 0.3375 0.0
O418 O 0.17306 0.38022 0.40357 0.0
O419 O 0.17082 0.37895 0.40206 0.0
O420 O 0.26062 0.33618 0.3768 0.0
O421 O 0.19212 0.29629 0.29841 0.0
C422 C 0.21036 0.52283 0.33101 0.0
O423 O 0.3344 0.51819 0.42802 0.0
O424 O 0.37131 0.45026 0.39929 0.0
C425 C 0.9759 0.19224 0.29313 0.0
C426 C 0.91151 1.05028 0.3186 0.0
C427 C 0.88016 0.08933 0.33307 0.0
C428 C 0.91173 0.1592 0.32016 0.0
C429 C 1.00736 0.15354 0.27748 0.0
C430 C 0.97466 0.0825 0.28925 0.0
C431 C 1.01216 0.26796 0.28879 0.0
H432 H 0.62588 0.62274 0.40912 0.0
H433 H 0.51593 0.53999 0.45509 0.0
H434 H 0.40697 0.60466 0.34252 0.0
H435 H 0.51645 0.69033 0.29937 0.0
H436 H 0.83072 1.06591 0.35456 0.0
H437 H 0.88691 0.18803 0.33307 0.0
H438 H 1.05769 0.17837 0.25737 0.0
H439 H 0.99954 1.0535 0.27715 0.0
Tb440 Tb 0.90704 0.24486 0.86805 0.0
Eu441 Eu 0.84568 0.10545 0.81023 0.0
C442 C 0.84181 0.10587 0.95245 0.0
C443 C 1.01003 0.20245 0.83394 0.0
C444 C 0.95434 0.4197 0.90272 0.0
C445 C 1.02719 0.54443 0.89376 0.0
C446 C 1.01116 0.48207 0.92055 0.0
C447 C 0.91312 0.42069 0.85782 0.0
C448 C 0.9278 0.48314 0.83221 0.0
C449 C 0.98536 0.54566 0.84955 0.0
C450 C 0.94623 0.35376 0.92378 0.0
O451 O 0.93653 0.27269 0.77828 0.0
O452 O 0.85435 0.17187 0.73552 0.0
O453 O 0.75113 0.11586 0.82745 0.0
O454 O 0.81436 0.23355 0.82918 0.0
C455 C 0.90346 0.23689 0.73232 0.0
O456 O 0.82924 1.02487 0.7489 0.0
O457 O 0.79933 0.99852 0.83758 0.0
O458 O 0.86012 0.13925 0.90358 0.0
O459 O 0.85915 0.13702 0.90207 0.0
O460 O 0.9917 0.22676 0.87677 0.0
O461 O 0.96307 0.15823 0.79842 0.0
C462 C 0.7547 0.17644 0.83101 0.0
O463 O 0.88348 0.30061 0.92792 0.0
O464 O 0.98834 0.33745 0.89917 0.0
C465 C 0.85089 0.94203 0.79338 0.0
C466 C 0.92848 0.87764 0.81887 0.0
C467 C 0.85817 0.84654 0.83369 0.0
C468 C 0.81986 0.8781 0.82077 0.0
C469 C 0.92096 0.97327 0.77743 0.0
C470 C 0.95929 0.94056 0.78921 0.0
C471 C 0.81143 0.9783 0.78892 0.0
H472 H 1.07038 0.59203 0.90927 0.0
H473 H 1.04314 0.48206 -0.04485 0.0
H474 H 0.8698 0.3732 0.84224 0.0
H475 H 0.89364 0.4827 0.79917 0.0
H476 H 0.83221 0.79728 0.85543 0.0
H477 H 0.76629 0.85346 0.83392 0.0
H478 H 0.9464 1.02344 0.75706 0.0
H479 H 1.01309 0.96526 0.77684 0.0
loop_
_geom_bond_atom_site_label_1
_geom_bond_atom_site_label_2
_geom_bond_distance
_geom_bond_site_symmetry_2
_ccdc_geom_bond_type
Tb0 C10 2.825 . S
Tb0 O11 2.347 . S
Tb0 O14 2.366 . S
Tb0 O19 2.418 1_554 S
Tb0 O20 2.384 . S
Tb0 O23 2.479 1_554 S
Tb0 O24 2.471 . S
Eu1 O12 2.418 . S
Eu1 O13 2.384 . S
Eu1 O16 2.479 . S
Eu1 O17 2.471 . S
Eu1 O18 2.347 . S
Eu1 O21 2.366 . S
Eu1 C31 2.825 . S
C2 O18 1.259 1_556 S
C2 O19 1.265 . S
C3 O20 1.255 . S
C3 O21 1.265 . S
C4 C6 1.380 1_554 S
C4 C7 1.374 . S
C4 C10 1.507 . S
C5 C6 1.384 . S
C5 C9 1.387 1_556 S
C5 H32 0.930 . S
C6 C4 1.380 1_556 S
C6 C5 1.384 . S
C6 H33 0.931 . S
C7 C4 1.374 . S
C7 C8 1.390 . S
C7 H34 0.930 . S
C8 C7 1.390 . S
C8 C9 1.391 . S
C8 H35 0.930 . S
C9 C5 1.387 1_554 S
C9 C8 1.391 . S
C10 Tb0 2.825 . S
C10 C4 1.507 . S
C10 O23 1.238 1_554 S
C10 O24 1.247 . S
O11 Tb0 2.347 . S
O11 C15 1.259 . S
O12 Eu1 2.418 . S
O12 C15 1.265 . S
O13 Eu1 2.384 . S
O13 C22 1.255 . S
O14 Tb0 2.366 . S
O14 C22 1.265 . S
C15 O11 1.259 . S
C15 O12 1.265 . S
O16 Eu1 2.479 . S
O16 C31 1.238 . S
O17 Eu1 2.471 . S
O17 C31 1.247 . S
O18 Eu1 2.347 . S
O18 C2 1.259 1_554 S
O19 Tb0 2.418 1_556 S
O19 C2 1.265 . S
O20 Tb0 2.384 . S
O20 C3 1.255 . S
O21 Eu1 2.366 . S
O21 C3 1.265 . S
C22 O13 1.255 . S
C22 O14 1.265 . S
O23 Tb0 2.479 1_556 S
O23 C10 1.238 1_556 S
O24 Tb0 2.471 . S
O24 C10 1.247 . S
C25 C28 1.380 . S
C25 C29 1.374 . S
C25 C31 1.507 . S
C26 C27 1.387 1_565 S
C26 C30 1.391 1_565 S
C27 C26 1.387 1_545 S
C27 C28 1.384 . S
C27 H36 0.928 1_545 S
C28 C25 1.380 . S
C28 C27 1.384 . S
C28 H37 0.931 . S
C29 C25 1.374 . S
C29 C30 1.390 . S
C29 H38 0.930 . S
C30 C26 1.391 1_545 S
C30 C29 1.390 . S
C30 H39 0.930 1_545 S
C31 Eu1 2.825 . S
C31 O16 1.238 . S
C31 O17 1.247 . S
C31 C25 1.507 . S
H32 C5 0.930 . S
H33 C6 0.931 . S
H34 C7 0.930 . S
H35 C8 0.930 . S
H36 C27 0.928 1_565 S
H37 C28 0.931 . S
H38 C29 0.930 . S
H39 C30 0.930 1_565 S
Tb40 C50 2.825 . S
Tb40 O51 2.347 . S
Tb40 O54 2.366 . S
Tb40 O59 2.418 . S
Tb40 O60 2.384 . S
Tb40 O63 2.479 . S
Tb40 O64 2.471 . S
Eu41 O52 2.418 . S
Eu41 O53 2.384 . S
Eu41 O56 2.479 1_655 S
Eu41 O57 2.471 1_655 S
Eu41 O58 2.347 . S
Eu41 O61 2.366 . S
Eu41 C71 2.825 1_655 S
C42 O58 1.259 . S
C42 O59 1.265 . S
C43 O60 1.255 . S
C43 O61 1.265 . S
C44 C46 1.380 . S
C44 C47 1.374 . S
C44 C50 1.507 . S
C45 C46 1.384 . S
C45 C49 1.387 . S
C45 H72 0.930 . S
C46 C44 1.380 . S
C46 C45 1.384 . S
C46 H73 0.931 . S
C47 C44 1.374 . S
C47 C48 1.390 . S
C47 H74 0.930 . S
C48 C47 1.390 . S
C48 C49 1.391 . S
C48 H75 0.930 . S
C49 C45 1.387 . S
C49 C48 1.391 . S
C50 Tb40 2.825 . S
C50 C44 1.507 . S
C50 O63 1.238 . S
C50 O64 1.247 . S
O51 Tb40 2.347 . S
O51 C55 1.259 . S
O52 Eu41 2.418 . S
O52 C55 1.265 . S
O53 Eu41 2.384 . S
O53 C62 1.255 . S
O54 Tb40 2.366 . S
O54 C62 1.265 . S
C55 O51 1.259 . S
C55 O52 1.265 . S
O56 Eu41 2.479 1_455 S
O56 C71 1.238 . S
O57 Eu41 2.471 1_455 S
O57 C71 1.247 . S
O58 Eu41 2.347 . S
O58 C42 1.259 . S
O59 Tb40 2.418 . S
O59 C42 1.265 . S
O60 Tb40 2.384 . S
O60 C43 1.255 . S
O61 Eu41 2.366 . S
O61 C43 1.265 . S
C62 O53 1.255 . S
C62 O54 1.265 . S
O63 Tb40 2.479 . S
O63 C50 1.238 . S
O64 Tb40 2.471 . S
O64 C50 1.247 . S
C65 C68 1.380 . S
C65 C69 1.374 . S
C65 C71 1.507 . S
C66 C67 1.387 . S
C66 C70 1.391 . S
C67 C66 1.387 . S
C67 C68 1.384 . S
C67 H76 0.930 . S
C68 C65 1.380 . S
C68 C67 1.384 . S
C68 H77 0.931 . S
C69 C65 1.374 . S
C69 C70 1.390 . S
C69 H78 0.930 . S
C70 C66 1.391 . S
C70 C69 1.390 . S
C70 H79 0.930 . S
C71 Eu41 2.825 1_455 S
C71 O56 1.238 . S
C71 O57 1.247 . S
C71 C65 1.507 . S
H72 C45 0.930 . S
H73 C46 0.931 . S
H74 C47 0.930 . S
H75 C48 0.930 . S
H76 C67 0.930 . S
H77 C68 0.931 . S
H78 C69 0.930 . S
H79 C70 0.930 . S
Tb80 C90 2.825 . S
Tb80 O91 2.347 . S
Tb80 O94 2.366 . S
Tb80 O99 2.418 1_554 S
Tb80 O100 2.384 . S
Tb80 O103 2.479 1_554 S
Tb80 O104 2.471 . S
Eu81 O92 2.418 . S
Eu81 O93 2.384 . S
Eu81 O96 2.479 1_565 S
Eu81 O97 2.471 1_565 S
Eu81 O98 2.347 . S
Eu81 O101 2.366 . S
Eu81 C111 2.825 1_565 S
C82 O98 1.259 1_556 S
C82 O99 1.265 . S
C83 O100 1.255 . S
C83 O101 1.265 . S
C84 C86 1.380 1_554 S
C84 C87 1.374 . S
C84 C90 1.507 . S
C85 C86 1.384 . S
C85 C89 1.387 1_556 S
C85 H112 0.930 . S
C86 C84 1.380 1_556 S
C86 C85 1.384 . S
C86 H113 0.931 . S
C87 C84 1.374 . S
C87 C88 1.390 . S
C87 H114 0.930 . S
C88 C87 1.390 . S
C88 C89 1.391 . S
C88 H115 0.930 . S
C89 C85 1.387 1_554 S
C89 C88 1.391 . S
C90 Tb80 2.825 . S
C90 C84 1.507 . S
C90 O103 1.238 1_554 S
C90 O104 1.247 . S
O91 Tb80 2.347 . S
O91 C95 1.259 . S
O92 Eu81 2.418 . S
O92 C95 1.265 . S
O93 Eu81 2.384 . S
O93 C102 1.255 . S
O94 Tb80 2.366 . S
O94 C102 1.265 . S
C95 O91 1.259 . S
C95 O92 1.265 . S
O96 Eu81 2.479 1_545 S
O96 C111 1.238 . S
O97 Eu81 2.471 1_545 S
O97 C111 1.247 . S
O98 Eu81 2.347 . S
O98 C82 1.259 1_554 S
O99 Tb80 2.418 1_556 S
O99 C82 1.265 . S
O100 Tb80 2.384 . S
O100 C83 1.255 . S
O101 Eu81 2.366 . S
O101 C83 1.265 . S
C102 O93 1.255 . S
C102 O94 1.265 . S
O103 Tb80 2.479 1_556 S
O103 C90 1.238 1_556 S
O104 Tb80 2.471 . S
O104 C90 1.247 . S
C105 C108 1.380 . S
C105 C109 1.374 . S
C105 C111 1.507 . S
C106 C107 1.387 1_455 S
C106 C110 1.391 1_455 S
C107 C106 1.387 1_655 S
C107 C108 1.384 . S
C107 H116 0.929 1_655 S
C108 C105 1.380 . S
C108 C107 1.384 . S
C108 H117 0.931 . S
C109 C105 1.374 . S
C109 C110 1.390 . S
C109 H118 0.930 . S
C110 C106 1.391 1_655 S
C110 C109 1.390 . S
C110 H119 0.930 1_655 S
C111 Eu81 2.825 1_545 S
C111 O96 1.238 . S
C111 O97 1.247 . S
C111 C105 1.507 . S
H112 C85 0.930 . S
H113 C86 0.931 . S
H114 C87 0.930 . S
H115 C88 0.930 . S
H116 C107 0.929 1_455 S
H117 C108 0.931 . S
H118 C109 0.930 . S
H119 C110 0.930 1_455 S
Tb120 C130 2.825 . S
Tb120 O131 2.347 . S
Tb120 O134 2.366 . S
Tb120 O139 2.418 . S
Tb120 O140 2.384 . S
Tb120 O143 2.479 . S
Tb120 O144 2.471 . S
Eu121 O132 2.418 . S
Eu121 O133 2.384 . S
Eu121 O136 2.479 . S
Eu121 O137 2.471 . S
Eu121 O138 2.347 . S
Eu121 O141 2.366 . S
Eu121 C151 2.825 . S
C122 O138 1.259 . S
C122 O139 1.265 . S
C123 O140 1.255 . S
C123 O141 1.265 . S
C124 C126 1.380 . S
C124 C127 1.374 . S
C124 C130 1.507 . S
C125 C126 1.384 . S
C125 C129 1.387 . S
C125 H152 0.930 . S
C126 C124 1.380 . S
C126 C125 1.384 . S
C126 H153 0.931 . S
C127 C124 1.374 . S
C127 C128 1.390 . S
C127 H154 0.930 . S
C128 C127 1.390 . S
C128 C129 1.391 . S
C128 H155 0.930 . S
C129 C125 1.387 . S
C129 C128 1.391 . S
C130 Tb120 2.825 . S
C130 C124 1.507 . S
C130 O143 1.238 . S
C130 O144 1.247 . S
O131 Tb120 2.347 . S
O131 C135 1.259 . S
O132 Eu121 2.418 . S
O132 C135 1.265 . S
O133 Eu121 2.384 . S
O133 C142 1.255 . S
O134 Tb120 2.366 . S
O134 C142 1.265 . S
C135 O131 1.259 . S
C135 O132 1.265 . S
O136 Eu121 2.479 . S
O136 C151 1.238 . S
O137 Eu121 2.471 . S
O137 C151 1.247 . S
O138 Eu121 2.347 . S
O138 C122 1.259 . S
O139 Tb120 2.418 . S
O139 C122 1.265 . S
O140 Tb120 2.384 . S
O140 C123 1.255 . S
O141 Eu121 2.366 . S
O141 C123 1.265 . S
C142 O133 1.255 . S
C142 O134 1.265 . S
O143 Tb120 2.479 . S
O143 C130 1.238 . S
O144 Tb120 2.471 . S
O144 C130 1.247 . S
C145 C148 1.380 . S
C145 C149 1.374 . S
C145 C151 1.507 . S
C146 C147 1.387 1_545 S
C146 C150 1.391 1_545 S
C147 C146 1.387 1_565 S
C147 C148 1.384 . S
C147 H156 0.928 1_565 S
C148 C145 1.380 . S
C148 C147 1.384 . S
C148 H157 0.931 . S
C149 C145 1.374 . S
C149 C150 1.390 . S
C149 H158 0.930 . S
C150 C146 1.391 1_565 S
C150 C149 1.390 . S
C150 H159 0.930 1_565 S
C151 Eu121 2.825 . S
C151 O136 1.238 . S
C151 O137 1.247 . S
C151 C145 1.507 . S
H152 C125 0.930 . S
H153 C126 0.931 . S
H154 C127 0.930 . S
H155 C128 0.930 . S
H156 C147 0.928 1_545 S
H157 C148 0.931 . S
H158 C149 0.930 . S
H159 C150 0.930 1_545 S
Tb160 C170 2.825 . S
Tb160 O171 2.347 . S
Tb160 O174 2.366 . S
Tb160 O179 2.418 1_554 S
Tb160 O180 2.384 . S
Tb160 O183 2.479 1_554 S
Tb160 O184 2.471 . S
Eu161 O172 2.418 . S
Eu161 O173 2.384 . S
Eu161 O176 2.479 1_455 S
Eu161 O177 2.471 1_455 S
Eu161 O178 2.347 . S
Eu161 O181 2.366 . S
Eu161 C191 2.825 1_455 S
C162 O178 1.259 1_556 S
C162 O179 1.265 . S
C163 O180 1.255 . S
C163 O181 1.265 . S
C164 C166 1.380 1_554 S
C164 C167 1.374 . S
C164 C170 1.507 . S
C165 C166 1.384 . S
C165 C169 1.387 1_556 S
C165 H192 0.930 . S
C166 C164 1.380 1_556 S
C166 C165 1.384 . S
C166 H193 0.931 . S
C167 C164 1.374 . S
C167 C168 1.390 . S
C167 H194 0.930 . S
C168 C167 1.390 . S
C168 C169 1.391 . S
C168 H195 0.930 . S
C169 C165 1.387 1_554 S
C169 C168 1.391 . S
C170 Tb160 2.825 . S
C170 C164 1.507 . S
C170 O183 1.238 1_554 S
C170 O184 1.247 . S
O171 Tb160 2.347 . S
O171 C175 1.259 . S
O172 Eu161 2.418 . S
O172 C175 1.265 . S
O173 Eu161 2.384 . S
O173 C182 1.255 . S
O174 Tb160 2.366 . S
O174 C182 1.265 . S
C175 O171 1.259 . S
C175 O172 1.265 . S
O176 Eu161 2.479 1_655 S
O176 C191 1.238 . S
O177 Eu161 2.471 1_655 S
O177 C191 1.247 . S
O178 Eu161 2.347 . S
O178 C162 1.259 1_554 S
O179 Tb160 2.418 1_556 S
O179 C162 1.265 . S
O180 Tb160 2.384 . S
O180 C163 1.255 . S
O181 Eu161 2.366 . S
O181 C163 1.265 . S
C182 O173 1.255 . S
C182 O174 1.265 . S
O183 Tb160 2.479 1_556 S
O183 C170 1.238 1_556 S
O184 Tb160 2.471 . S
O184 C170 1.247 . S
C185 C188 1.380 . S
C185 C189 1.374 . S
C185 C191 1.507 . S
C186 C187 1.387 . S
C186 C190 1.391 . S
C187 C186 1.387 . S
C187 C188 1.384 . S
C187 H196 0.930 . S
C188 C185 1.380 . S
C188 C187 1.384 . S
C188 H197 0.931 . S
C189 C185 1.374 . S
C189 C190 1.390 . S
C189 H198 0.930 . S
C190 C186 1.391 . S
C190 C189 1.390 . S
C190 H199 0.930 . S
C191 Eu161 2.825 1_655 S
C191 O176 1.238 . S
C191 O177 1.247 . S
C191 C185 1.507 . S
H192 C165 0.930 . S
H193 C166 0.931 . S
H194 C167 0.930 . S
H195 C168 0.930 . S
H196 C187 0.930 . S
H197 C188 0.931 . S
H198 C189 0.930 . S
H199 C190 0.930 . S
Tb200 C210 2.825 . S
Tb200 O211 2.347 . S
Tb200 O214 2.366 . S
Tb200 O219 2.418 . S
Tb200 O220 2.384 . S
Tb200 O223 2.479 . S
Tb200 O224 2.471 . S
Eu201 O212 2.418 . S
Eu201 O213 2.384 . S
Eu201 O216 2.479 1_545 S
Eu201 O217 2.471 1_545 S
Eu201 O218 2.347 . S
Eu201 O221 2.366 . S
Eu201 C231 2.825 1_545 S
C202 O218 1.259 . S
C202 O219 1.265 . S
C203 O220 1.255 . S
C203 O221 1.265 . S
C204 C206 1.380 . S
C204 C207 1.374 . S
C204 C210 1.507 . S
C205 C206 1.384 . S
C205 C209 1.387 . S
C205 H232 0.930 . S
C206 C204 1.380 . S
C206 C205 1.384 . S
C206 H233 0.931 . S
C207 C204 1.374 . S
C207 C208 1.390 . S
C207 H234 0.930 . S
C208 C207 1.390 . S
C208 C209 1.391 . S
C208 H235 0.930 . S
C209 C205 1.387 . S
C209 C208 1.391 . S
C210 Tb200 2.825 . S
C210 C204 1.507 . S
C210 O223 1.238 . S
C210 O224 1.247 . S
O211 Tb200 2.347 . S
O211 C215 1.259 . S
O212 Eu201 2.418 . S
O212 C215 1.265 . S
O213 Eu201 2.384 . S
O213 C222 1.255 . S
O214 Tb200 2.366 . S
O214 C222 1.265 . S
C215 O211 1.259 . S
C215 O212 1.265 . S
O216 Eu201 2.479 1_565 S
O216 C231 1.238 . S
O217 Eu201 2.471 1_565 S
O217 C231 1.247 . S
O218 Eu201 2.347 . S
O218 C202 1.259 . S
O219 Tb200 2.418 . S
O219 C202 1.265 . S
O220 Tb200 2.384 . S
O220 C203 1.255 . S
O221 Eu201 2.366 . S
O221 C203 1.265 . S
C222 O213 1.255 . S
C222 O214 1.265 . S
O223 Tb200 2.479 . S
O223 C210 1.238 . S
O224 Tb200 2.471 . S
O224 C210 1.247 . S
C225 C228 1.380 . S
C225 C229 1.374 . S
C225 C231 1.507 . S
C226 C227 1.387 1_655 S
C226 C230 1.391 1_655 S
C227 C226 1.387 1_455 S
C227 C228 1.384 . S
C227 H236 0.929 1_455 S
C228 C225 1.380 . S
C228 C227 1.384 . S
C228 H237 0.931 . S
C229 C225 1.374 . S
C229 C230 1.390 . S
C229 H238 0.930 . S
C230 C226 1.391 1_455 S
C230 C229 1.390 . S
C230 H239 0.930 1_455 S
C231 Eu201 2.825 1_565 S
C231 O216 1.238 . S
C231 O217 1.247 . S
C231 C225 1.507 . S
H232 C205 0.930 . S
H233 C206 0.931 . S
H234 C207 0.930 . S
H235 C208 0.930 . S
H236 C227 0.929 1_655 S
H237 C228 0.931 . S
H238 C229 0.930 . S
H239 C230 0.930 1_655 S
Tb240 C250 2.825 . S
Tb240 O251 2.347 . S
Tb240 O254 2.366 . S
Tb240 O259 2.418 . S
Tb240 O260 2.384 . S
Tb240 O263 2.479 . S
Tb240 O264 2.471 . S
Eu241 O252 2.418 . S
Eu241 O253 2.384 . S
Eu241 O256 2.479 . S
Eu241 O257 2.471 . S
Eu241 O258 2.347 . S
Eu241 O261 2.366 . S
Eu241 C271 2.825 . S
C242 O258 1.259 . S
C242 O259 1.265 . S
C243 O260 1.255 . S
C243 O261 1.265 . S
C244 C246 1.380 . S
C244 C247 1.374 . S
C244 C250 1.507 . S
C245 C246 1.384 . S
C245 C249 1.387 . S
C245 H272 0.930 . S
C246 C244 1.380 . S
C246 C245 1.384 . S
C246 H273 0.931 . S
C247 C244 1.374 . S
C247 C248 1.390 . S
C247 H274 0.930 . S
C248 C247 1.390 . S
C248 C249 1.391 . S
C248 H275 0.930 . S
C249 C245 1.387 . S
C249 C248 1.391 . S
C250 Tb240 2.825 . S
C250 C244 1.507 . S
C250 O263 1.238 . S
C250 O264 1.247 . S
O251 Tb240 2.347 . S
O251 C255 1.259 . S
O252 Eu241 2.418 . S
O252 C255 1.265 . S
O253 Eu241 2.384 . S
O253 C262 1.255 . S
O254 Tb240 2.366 . S
O254 C262 1.265 . S
C255 O251 1.259 . S
C255 O252 1.265 . S
O256 Eu241 2.479 . S
O256 C271 1.238 . S
O257 Eu241 2.471 . S
O257 C271 1.247 . S
O258 Eu241 2.347 . S
O258 C242 1.259 . S
O259 Tb240 2.418 . S
O259 C242 1.265 . S
O260 Tb240 2.384 . S
O260 C243 1.255 . S
O261 Eu241 2.366 . S
O261 C243 1.265 . S
C262 O253 1.255 . S
C262 O254 1.265 . S
O263 Tb240 2.479 . S
O263 C250 1.238 . S
O264 Tb240 2.471 . S
O264 C250 1.247 . S
C265 C268 1.380 . S
C265 C269 1.374 . S
C265 C271 1.507 . S
C266 C267 1.387 1_455 S
C266 C270 1.391 1_455 S
C267 C266 1.387 1_655 S
C267 C268 1.384 . S
C267 H276 0.928 1_655 S
C268 C265 1.380 . S
C268 C267 1.384 . S
C268 H277 0.931 . S
C269 C265 1.374 . S
C269 C270 1.390 . S
C269 H278 0.930 . S
C270 C266 1.391 1_655 S
C270 C269 1.390 . S
C270 H279 0.930 1_655 S
C271 Eu241 2.825 . S
C271 O256 1.238 . S
C271 O257 1.247 . S
C271 C265 1.507 . S
H272 C245 0.930 . S
H273 C246 0.931 . S
H274 C247 0.930 . S
H275 C248 0.930 . S
H276 C267 0.928 1_455 S
H277 C268 0.931 . S
H278 C269 0.930 . S
H279 C270 0.930 1_455 S
Tb280 C290 2.825 . S
Tb280 O291 2.347 . S
Tb280 O294 2.366 . S
Tb280 O299 2.418 1_556 S
Tb280 O300 2.384 . S
Tb280 O303 2.479 1_556 S
Tb280 O304 2.471 . S
Eu281 O292 2.418 . S
Eu281 O293 2.384 . S
Eu281 O296 2.479 1_655 S
Eu281 O297 2.471 1_655 S
Eu281 O298 2.347 . S
Eu281 O301 2.366 . S
Eu281 C311 2.825 1_655 S
C282 O298 1.259 1_554 S
C282 O299 1.265 . S
C283 O300 1.255 . S
C283 O301 1.265 . S
C284 C286 1.380 1_556 S
C284 C287 1.374 . S
C284 C290 1.507 . S
C285 C286 1.384 . S
C285 C289 1.387 1_554 S
C285 H312 0.930 . S
C286 C284 1.380 1_554 S
C286 C285 1.384 . S
C286 H313 0.931 . S
C287 C284 1.374 . S
C287 C288 1.390 . S
C287 H314 0.930 . S
C288 C287 1.390 . S
C288 C289 1.391 . S
C288 H315 0.930 . S
C289 C285 1.387 1_556 S
C289 C288 1.391 . S
C290 Tb280 2.825 . S
C290 C284 1.507 . S
C290 O303 1.238 1_556 S
C290 O304 1.247 . S
O291 Tb280 2.347 . S
O291 C295 1.259 . S
O292 Eu281 2.418 . S
O292 C295 1.265 . S
O293 Eu281 2.384 . S
O293 C302 1.255 . S
O294 Tb280 2.366 . S
O294 C302 1.265 . S
C295 O291 1.259 . S
C295 O292 1.265 . S
O296 Eu281 2.479 1_455 S
O296 C311 1.238 . S
O297 Eu281 2.471 1_455 S
O297 C311 1.247 . S
O298 Eu281 2.347 . S
O298 C282 1.259 1_556 S
O299 Tb280 2.418 1_554 S
O299 C282 1.265 . S
O300 Tb280 2.384 . S
O300 C283 1.255 . S
O301 Eu281 2.366 . S
O301 C283 1.265 . S
C302 O293 1.255 . S
C302 O294 1.265 . S
O303 Tb280 2.479 1_554 S
O303 C290 1.238 1_554 S
O304 Tb280 2.471 . S
O304 C290 1.247 . S
C305 C308 1.380 . S
C305 C309 1.374 . S
C305 C311 1.507 . S
C306 C307 1.387 1_545 S
C306 C310 1.391 1_545 S
C307 C306 1.387 1_565 S
C307 C308 1.384 . S
C307 H316 0.929 1_565 S
C308 C305 1.380 . S
C308 C307 1.384 . S
C308 H317 0.931 . S
C309 C305 1.374 . S
C309 C310 1.390 . S
C309 H318 0.930 . S
C310 C306 1.391 1_565 S
C310 C309 1.390 . S
C310 H319 0.930 1_565 S
C311 Eu281 2.825 1_455 S
C311 O296 1.238 . S
C311 O297 1.247 . S
C311 C305 1.507 . S
H312 C285 0.930 . S
H313 C286 0.931 . S
H314 C287 0.930 . S
H315 C288 0.930 . S
H316 C307 0.929 1_545 S
H317 C308 0.931 . S
H318 C309 0.930 . S
H319 C310 0.930 1_545 S
Tb320 C330 2.825 . S
Tb320 O331 2.347 . S
Tb320 O334 2.366 . S
Tb320 O339 2.418 . S
Tb320 O340 2.384 . S
Tb320 O343 2.479 . S
Tb320 O344 2.471 . S
Eu321 O332 2.418 . S
Eu321 O333 2.384 . S
Eu321 O336 2.479 1_565 S
Eu321 O337 2.471 1_565 S
Eu321 O338 2.347 . S
Eu321 O341 2.366 . S
Eu321 C351 2.825 1_565 S
C322 O338 1.259 . S
C322 O339 1.265 . S
C323 O340 1.255 . S
C323 O341 1.265 . S
C324 C326 1.380 . S
C324 C327 1.374 . S
C324 C330 1.507 . S
C325 C326 1.384 . S
C325 C329 1.387 . S
C325 H352 0.930 . S
C326 C324 1.380 . S
C326 C325 1.384 . S
C326 H353 0.931 . S
C327 C324 1.374 . S
C327 C328 1.390 . S
C327 H354 0.930 . S
C328 C327 1.390 . S
C328 C329 1.391 . S
C328 H355 0.930 . S
C329 C325 1.387 . S
C329 C328 1.391 . S
C330 Tb320 2.825 . S
C330 C324 1.507 . S
C330 O343 1.238 . S
C330 O344 1.247 . S
O331 Tb320 2.347 . S
O331 C335 1.259 . S
O332 Eu321 2.418 . S
O332 C335 1.265 . S
O333 Eu321 2.384 . S
O333 C342 1.255 . S
O334 Tb320 2.366 . S
O334 C342 1.265 . S
C335 O331 1.259 . S
C335 O332 1.265 . S
O336 Eu321 2.479 1_545 S
O336 C351 1.238 . S
O337 Eu321 2.471 1_545 S
O337 C351 1.247 . S
O338 Eu321 2.347 . S
O338 C322 1.259 . S
O339 Tb320 2.418 . S
O339 C322 1.265 . S
O340 Tb320 2.384 . S
O340 C323 1.255 . S
O341 Eu321 2.366 . S
O341 C323 1.265 . S
C342 O333 1.255 . S
C342 O334 1.265 . S
O343 Tb320 2.479 . S
O343 C330 1.238 . S
O344 Tb320 2.471 . S
O344 C330 1.247 . S
C345 C348 1.380 . S
C345 C349 1.374 . S
C345 C351 1.507 . S
C346 C347 1.387 . S
C346 C350 1.391 . S
C347 C346 1.387 . S
C347 C348 1.384 . S
C347 H356 0.930 . S
C348 C345 1.380 . S
C348 C347 1.384 . S
C348 H357 0.931 . S
C349 C345 1.374 . S
C349 C350 1.390 . S
C349 H358 0.930 . S
C350 C346 1.391 . S
C350 C349 1.390 . S
C350 H359 0.930 . S
C351 Eu321 2.825 1_545 S
C351 O336 1.238 . S
C351 O337 1.247 . S
C351 C345 1.507 . S
H352 C325 0.930 . S
H353 C326 0.931 . S
H354 C327 0.930 . S
H355 C328 0.930 . S
H356 C347 0.930 . S
H357 C348 0.931 . S
H358 C349 0.930 . S
H359 C350 0.930 . S
Tb360 C370 2.825 . S
Tb360 O371 2.347 . S
Tb360 O374 2.366 . S
Tb360 O379 2.418 1_556 S
Tb360 O380 2.384 . S
Tb360 O383 2.479 1_556 S
Tb360 O384 2.471 . S
Eu361 O372 2.418 . S
Eu361 O373 2.384 . S
Eu361 O376 2.479 . S
Eu361 O377 2.471 . S
Eu361 O378 2.347 . S
Eu361 O381 2.366 . S
Eu361 C391 2.825 . S
C362 O378 1.259 1_554 S
C362 O379 1.265 . S
C363 O380 1.255 . S
C363 O381 1.265 . S
C364 C366 1.380 1_556 S
C364 C367 1.374 . S
C364 C370 1.507 . S
C365 C366 1.384 . S
C365 C369 1.387 1_554 S
C365 H392 0.930 . S
C366 C364 1.380 1_554 S
C366 C365 1.384 . S
C366 H393 0.931 . S
C367 C364 1.374 . S
C367 C368 1.390 . S
C367 H394 0.930 . S
C368 C367 1.390 . S
C368 C369 1.391 . S
C368 H395 0.930 . S
C369 C365 1.387 1_556 S
C369 C368 1.391 . S
C370 Tb360 2.825 . S
C370 C364 1.507 . S
C370 O383 1.238 1_556 S
C370 O384 1.247 . S
O371 Tb360 2.347 . S
O371 C375 1.259 . S
O372 Eu361 2.418 . S
O372 C375 1.265 . S
O373 Eu361 2.384 . S
O373 C382 1.255 . S
O374 Tb360 2.366 . S
O374 C382 1.265 . S
C375 O371 1.259 . S
C375 O372 1.265 . S
O376 Eu361 2.479 . S
O376 C391 1.238 . S
O377 Eu361 2.471 . S
O377 C391 1.247 . S
O378 Eu361 2.347 . S
O378 C362 1.259 1_556 S
O379 Tb360 2.418 1_554 S
O379 C362 1.265 . S
O380 Tb360 2.384 . S
O380 C363 1.255 . S
O381 Eu361 2.366 . S
O381 C363 1.265 . S
C382 O373 1.255 . S
C382 O374 1.265 . S
O383 Tb360 2.479 1_554 S
O383 C370 1.238 1_554 S
O384 Tb360 2.471 . S
O384 C370 1.247 . S
C385 C388 1.380 . S
C385 C389 1.374 . S
C385 C391 1.507 . S
C386 C387 1.387 1_655 S
C386 C390 1.391 1_655 S
C387 C386 1.387 1_455 S
C387 C388 1.384 . S
C387 H396 0.928 1_455 S
C388 C385 1.380 . S
C388 C387 1.384 . S
C388 H397 0.931 . S
C389 C385 1.374 . S
C389 C390 1.390 . S
C389 H398 0.930 . S
C390 C386 1.391 1_455 S
C390 C389 1.390 . S
C390 H399 0.930 1_455 S
C391 Eu361 2.825 . S
C391 O376 1.238 . S
C391 O377 1.247 . S
C391 C385 1.507 . S
H392 C365 0.930 . S
H393 C366 0.931 . S
H394 C367 0.930 . S
H395 C368 0.930 . S
H396 C387 0.928 1_655 S
H397 C388 0.931 . S
H398 C389 0.930 . S
H399 C390 0.930 1_655 S
Tb400 C410 2.825 . S
Tb400 O411 2.347 . S
Tb400 O414 2.366 . S
Tb400 O419 2.418 . S
Tb400 O420 2.384 . S
Tb400 O423 2.479 . S
Tb400 O424 2.471 . S
Eu401 O412 2.418 . S
Eu401 O413 2.384 . S
Eu401 O416 2.479 1_455 S
Eu401 O417 2.471 1_455 S
Eu401 O418 2.347 . S
Eu401 O421 2.366 . S
Eu401 C431 2.825 1_455 S
C402 O418 1.259 . S
C402 O419 1.265 . S
C403 O420 1.255 . S
C403 O421 1.265 . S
C404 C406 1.380 . S
C404 C407 1.374 . S
C404 C410 1.507 . S
C405 C406 1.384 . S
C405 C409 1.387 . S
C405 H432 0.930 . S
C406 C404 1.380 . S
C406 C405 1.384 . S
C406 H433 0.931 . S
C407 C404 1.374 . S
C407 C408 1.390 . S
C407 H434 0.930 . S
C408 C407 1.390 . S
C408 C409 1.391 . S
C408 H435 0.930 . S
C409 C405 1.387 . S
C409 C408 1.391 . S
C410 Tb400 2.825 . S
C410 C404 1.507 . S
C410 O423 1.238 . S
C410 O424 1.247 . S
O411 Tb400 2.347 . S
O411 C415 1.259 . S
O412 Eu401 2.418 . S
O412 C415 1.265 . S
O413 Eu401 2.384 . S
O413 C422 1.255 . S
O414 Tb400 2.366 . S
O414 C422 1.265 . S
C415 O411 1.259 . S
C415 O412 1.265 . S
O416 Eu401 2.479 1_655 S
O416 C431 1.238 . S
O417 Eu401 2.471 1_655 S
O417 C431 1.247 . S
O418 Eu401 2.347 . S
O418 C402 1.259 . S
O419 Tb400 2.418 . S
O419 C402 1.265 . S
O420 Tb400 2.384 . S
O420 C403 1.255 . S
O421 Eu401 2.366 . S
O421 C403 1.265 . S
C422 O413 1.255 . S
C422 O414 1.265 . S
O423 Tb400 2.479 . S
O423 C410 1.238 . S
O424 Tb400 2.471 . S
O424 C410 1.247 . S
C425 C428 1.380 . S
C425 C429 1.374 . S
C425 C431 1.507 . S
C426 C427 1.387 1_565 S
C426 C430 1.391 1_565 S
C427 C426 1.387 1_545 S
C427 C428 1.384 . S
C427 H436 0.929 1_545 S
C428 C425 1.380 . S
C428 C427 1.384 . S
C428 H437 0.931 . S
C429 C425 1.374 . S
C429 C430 1.390 . S
C429 H438 0.930 . S
C430 C426 1.391 1_545 S
C430 C429 1.390 . S
C430 H439 0.930 1_545 S
C431 Eu401 2.825 1_655 S
C431 O416 1.238 . S
C431 O417 1.247 . S
C431 C425 1.507 . S
H432 C405 0.930 . S
H433 C406 0.931 . S
H434 C407 0.930 . S
H435 C408 0.930 . S
H436 C427 0.929 1_565 S
H437 C428 0.931 . S
H438 C429 0.930 . S
H439 C430 0.930 1_565 S
Tb440 C450 2.825 . S
Tb440 O451 2.347 . S
Tb440 O454 2.366 . S
Tb440 O459 2.418 1_556 S
Tb440 O460 2.384 . S
Tb440 O463 2.479 1_556 S
Tb440 O464 2.471 . S
Eu441 O452 2.418 . S
Eu441 O453 2.384 . S
Eu441 O456 2.479 1_545 S
Eu441 O457 2.471 1_545 S
Eu441 O458 2.347 . S
Eu441 O461 2.366 . S
Eu441 C471 2.825 1_545 S
C442 O458 1.259 1_554 S
C442 O459 1.265 . S
C443 O460 1.255 . S
C443 O461 1.265 . S
C444 C446 1.380 1_556 S
C444 C447 1.374 . S
C444 C450 1.507 . S
C445 C446 1.384 . S
C445 C449 1.387 1_554 S
C445 H472 0.930 . S
C446 C444 1.380 1_554 S
C446 C445 1.384 . S
C446 H473 0.931 . S
C447 C444 1.374 . S
C447 C448 1.390 . S
C447 H474 0.930 . S
C448 C447 1.390 . S
C448 C449 1.391 . S
C448 H475 0.930 . S
C449 C445 1.387 1_556 S
C449 C448 1.391 . S
C450 Tb440 2.825 . S
C450 C444 1.507 . S
C450 O463 1.238 1_556 S
C450 O464 1.247 . S
O451 Tb440 2.347 . S
O451 C455 1.259 . S
O452 Eu441 2.418 . S
O452 C455 1.265 . S
O453 Eu441 2.384 . S
O453 C462 1.255 . S
O454 Tb440 2.366 . S
O454 C462 1.265 . S
C455 O451 1.259 . S
C455 O452 1.265 . S
O456 Eu441 2.479 1_565 S
O456 C471 1.238 . S
O457 Eu441 2.471 1_565 S
O457 C471 1.247 . S
O458 Eu441 2.347 . S
O458 C442 1.259 1_556 S
O459 Tb440 2.418 1_554 S
O459 C442 1.265 . S
O460 Tb440 2.384 . S
O460 C443 1.255 . S
O461 Eu441 2.366 . S
O461 C443 1.265 . S
C462 O453 1.255 . S
C462 O454 1.265 . S
O463 Tb440 2.479 1_554 S
O463 C450 1.238 1_554 S
O464 Tb440 2.471 . S
O464 C450 1.247 . S
C465 C468 1.380 . S
C465 C469 1.374 . S
C465 C471 1.507 . S
C466 C467 1.387 . S
C466 C470 1.391 . S
C467 C466 1.387 . S
C467 C468 1.384 . S
C467 H476 0.930 . S
C468 C465 1.380 . S
C468 C467 1.384 . S
C468 H477 0.931 . S
C469 C465 1.374 . S
C469 C470 1.390 . S
C469 H478 0.930 . S
C470 C466 1.391 . S
C470 C469 1.390 . S
C470 H479 0.930 . S
C471 Eu441 2.825 1_565 S
C471 O456 1.238 . S
C471 O457 1.247 . S
C471 C465 1.507 . S
H472 C445 0.930 . S
H473 C446 0.931 . S
H474 C447 0.930 . S
H475 C448 0.930 . S
H476 C467 0.930 . S
H477 C468 0.931 . S
H478 C469 0.930 . S
H479 C470 0.930 . S
C163 C26 2.148 . S
C203 C66 2.147 . S
C106 C3 2.147 . S
C146 C43 2.148 . S
C186 C83 2.147 . S
C123 C226 2.147 . S
C323 C266 2.148 . S
C306 C363 2.147 . S
C403 C346 2.147 . S
C386 C443 2.148 . S
C426 C243 2.147 . S
C283 C466 2.147 . S
C182 C9 2.840 . S
C49 C222 2.841 . S
C89 C22 2.842 . S
C129 C62 2.840 . S
C102 C169 2.841 . S
C142 C209 2.842 . S
C342 C249 2.840 . S
C289 C382 2.842 . S
C329 C422 2.841 . S
C462 C369 2.840 . S
C409 C262 2.842 . S
C302 C449 2.841 . S
C415 C15 1.707 . S
C55 C455 1.707 . S
C95 C255 1.707 . S
C135 C295 1.707 . S
C175 C335 1.707 . S
C375 C215 1.707 . S
C362 C2 4.532 1_554 S
C402 C42 4.532 1_455 S
C82 C442 4.532 1_566 S
C122 C242 4.532 . S
C282 C162 4.532 1_654 S
C322 C202 4.532 1_565 S
