# Generated by pormake.
# Topology uka, (4)-cn, num edge types: 1
# Building blocks:
#     Node 0, Type 0, BuildingBlock: TATPOV_clean_sbu_0, # of connection points: 4
#     Node 1, Type 0, BuildingBlock: TATPOV_clean_sbu_0, # of connection points: 4
#     Node 2, Type 0, BuildingBlock: TATPOV_clean_sbu_0, # of connection points: 4
#     Node 3, Type 0, BuildingBlock: TATPOV_clean_sbu_0, # of connection points: 4
#     Node 4, Type 0, BuildingBlock: TATPOV_clean_sbu_0, # of connection points: 4
#     Node 5, Type 0, BuildingBlock: TATPOV_clean_sbu_0, # of connection points: 4
#     Node 6, Type 0, BuildingBlock: TATPOV_clean_sbu_0, # of connection points: 4
#     Node 7, Type 0, BuildingBlock: TATPOV_clean_sbu_0, # of connection points: 4
#     Node 8, Type 0, BuildingBlock: TATPOV_clean_sbu_0, # of connection points: 4
#     Node 9, Type 0, BuildingBlock: TATPOV_clean_sbu_0, # of connection points: 4
#     Node 10, Type 0, BuildingBlock: TATPOV_clean_sbu_0, # of connection points: 4
#     Node 11, Type 0, BuildingBlock: TATPOV_clean_sbu_0, # of connection points: 4
#     Node 12, Type 0, BuildingBlock: TATPOV_clean_sbu_0, # of connection points: 4
#     Node 13, Type 0, BuildingBlock: TATPOV_clean_sbu_0, # of connection points: 4
#     Node 14, Type 0, BuildingBlock: TATPOV_clean_sbu_0, # of connection points: 4
#     Node 15, Type 0, BuildingBlock: TATPOV_clean_sbu_0, # of connection points: 4
#     Node 16, Type 0, BuildingBlock: TATPOV_clean_sbu_0, # of connection points: 4
#     Node 17, Type 0, BuildingBlock: TATPOV_clean_sbu_0, # of connection points: 4
#     Node 18, Type 0, BuildingBlock: TATPOV_clean_sbu_0, # of connection points: 4
#     Node 19, Type 0, BuildingBlock: TATPOV_clean_sbu_0, # of connection points: 4
#     Node 20, Type 0, BuildingBlock: TATPOV_clean_sbu_0, # of connection points: 4
#     Node 21, Type 0, BuildingBlock: TATPOV_clean_sbu_0, # of connection points: 4
#     Node 22, Type 0, BuildingBlock: TATPOV_clean_sbu_0, # of connection points: 4
#     Node 23, Type 0, BuildingBlock: TATPOV_clean_sbu_0, # of connection points: 4
#     Node 24, Type 0, BuildingBlock: TATPOV_clean_sbu_0, # of connection points: 4
#     Node 25, Type 0, BuildingBlock: TATPOV_clean_sbu_0, # of connection points: 4
#     Node 26, Type 0, BuildingBlock: TATPOV_clean_sbu_0, # of connection points: 4
#     Node 27, Type 0, BuildingBlock: TATPOV_clean_sbu_0, # of connection points: 4
#     Node 28, Type 0, BuildingBlock: TATPOV_clean_sbu_0, # of connection points: 4
#     Node 29, Type 0, BuildingBlock: TATPOV_clean_sbu_0, # of connection points: 4
#     Node 30, Type 0, BuildingBlock: TATPOV_clean_sbu_0, # of connection points: 4
#     Node 31, Type 0, BuildingBlock: TATPOV_clean_sbu_0, # of connection points: 4
#     Edge 32, Type (0, 0), BuildingBlock: UVAHIK_clean_linker_0, # of connection points: 2
#     Edge 33, Type (0, 0), BuildingBlock: UVAHIK_clean_linker_0, # of connection points: 2
#     Edge 34, Type (0, 0), BuildingBlock: UVAHIK_clean_linker_0, # of connection points: 2
#     Edge 35, Type (0, 0), BuildingBlock: UVAHIK_clean_linker_0, # of connection points: 2
#     Edge 36, Type (0, 0), BuildingBlock: UVAHIK_clean_linker_0, # of connection points: 2
#     Edge 37, Type (0, 0), BuildingBlock: UVAHIK_clean_linker_0, # of connection points: 2
#     Edge 38, Type (0, 0), BuildingBlock: UVAHIK_clean_linker_0, # of connection points: 2
#     Edge 39, Type (0, 0), BuildingBlock: UVAHIK_clean_linker_0, # of connection points: 2
#     Edge 40, Type (0, 0), BuildingBlock: UVAHIK_clean_linker_0, # of connection points: 2
#     Edge 41, Type (0, 0), BuildingBlock: UVAHIK_clean_linker_0, # of connection points: 2
#     Edge 42, Type (0, 0), BuildingBlock: UVAHIK_clean_linker_0, # of connection points: 2
#     Edge 43, Type (0, 0), BuildingBlock: UVAHIK_clean_linker_0, # of connection points: 2
#     Edge 44, Type (0, 0), BuildingBlock: UVAHIK_clean_linker_0, # of connection points: 2
#     Edge 45, Type (0, 0), BuildingBlock: UVAHIK_clean_linker_0, # of connection points: 2
#     Edge 46, Type (0, 0), BuildingBlock: UVAHIK_clean_linker_0, # of connection points: 2
#     Edge 47, Type (0, 0), BuildingBlock: UVAHIK_clean_linker_0, # of connection points: 2
#     Edge 48, Type (0, 0), BuildingBlock: UVAHIK_clean_linker_0, # of connection points: 2
#     Edge 49, Type (0, 0), BuildingBlock: UVAHIK_clean_linker_0, # of connection points: 2
#     Edge 50, Type (0, 0), BuildingBlock: UVAHIK_clean_linker_0, # of connection points: 2
#     Edge 51, Type (0, 0), BuildingBlock: UVAHIK_clean_linker_0, # of connection points: 2
#     Edge 52, Type (0, 0), BuildingBlock: UVAHIK_clean_linker_0, # of connection points: 2
#     Edge 53, Type (0, 0), BuildingBlock: UVAHIK_clean_linker_0, # of connection points: 2
#     Edge 54, Type (0, 0), BuildingBlock: UVAHIK_clean_linker_0, # of connection points: 2
#     Edge 55, Type (0, 0), BuildingBlock: UVAHIK_clean_linker_0, # of connection points: 2
#     Edge 56, Type (0, 0), BuildingBlock: UVAHIK_clean_linker_0, # of connection points: 2
#     Edge 57, Type (0, 0), BuildingBlock: UVAHIK_clean_linker_0, # of connection points: 2
#     Edge 58, Type (0, 0), BuildingBlock: UVAHIK_clean_linker_0, # of connection points: 2
#     Edge 59, Type (0, 0), BuildingBlock: UVAHIK_clean_linker_0, # of connection points: 2
#     Edge 60, Type (0, 0), BuildingBlock: UVAHIK_clean_linker_0, # of connection points: 2
#     Edge 61, Type (0, 0), BuildingBlock: UVAHIK_clean_linker_0, # of connection points: 2
#     Edge 62, Type (0, 0), BuildingBlock: UVAHIK_clean_linker_0, # of connection points: 2
#     Edge 63, Type (0, 0), BuildingBlock: UVAHIK_clean_linker_0, # of connection points: 2
#     Edge 64, Type (0, 0), BuildingBlock: UVAHIK_clean_linker_0, # of connection points: 2
#     Edge 65, Type (0, 0), BuildingBlock: UVAHIK_clean_linker_0, # of connection points: 2
#     Edge 66, Type (0, 0), BuildingBlock: UVAHIK_clean_linker_0, # of connection points: 2
#     Edge 67, Type (0, 0), BuildingBlock: UVAHIK_clean_linker_0, # of connection points: 2
#     Edge 68, Type (0, 0), BuildingBlock: UVAHIK_clean_linker_0, # of connection points: 2
#     Edge 69, Type (0, 0), BuildingBlock: UVAHIK_clean_linker_0, # of connection points: 2
#     Edge 70, Type (0, 0), BuildingBlock: UVAHIK_clean_linker_0, # of connection points: 2
#     Edge 71, Type (0, 0), BuildingBlock: UVAHIK_clean_linker_0, # of connection points: 2
#     Edge 72, Type (0, 0), BuildingBlock: UVAHIK_clean_linker_0, # of connection points: 2
#     Edge 73, Type (0, 0), BuildingBlock: UVAHIK_clean_linker_0, # of connection points: 2
#     Edge 74, Type (0, 0), BuildingBlock: UVAHIK_clean_linker_0, # of connection points: 2
#     Edge 75, Type (0, 0), BuildingBlock: UVAHIK_clean_linker_0, # of connection points: 2
#     Edge 76, Type (0, 0), BuildingBlock: UVAHIK_clean_linker_0, # of connection points: 2
#     Edge 77, Type (0, 0), BuildingBlock: UVAHIK_clean_linker_0, # of connection points: 2
#     Edge 78, Type (0, 0), BuildingBlock: UVAHIK_clean_linker_0, # of connection points: 2
#     Edge 79, Type (0, 0), BuildingBlock: UVAHIK_clean_linker_0, # of connection points: 2
#     Edge 80, Type (0, 0), BuildingBlock: UVAHIK_clean_linker_0, # of connection points: 2
#     Edge 81, Type (0, 0), BuildingBlock: UVAHIK_clean_linker_0, # of connection points: 2
#     Edge 82, Type (0, 0), BuildingBlock: UVAHIK_clean_linker_0, # of connection points: 2
#     Edge 83, Type (0, 0), BuildingBlock: UVAHIK_clean_linker_0, # of connection points: 2
#     Edge 84, Type (0, 0), BuildingBlock: UVAHIK_clean_linker_0, # of connection points: 2
#     Edge 85, Type (0, 0), BuildingBlock: UVAHIK_clean_linker_0, # of connection points: 2
#     Edge 86, Type (0, 0), BuildingBlock: UVAHIK_clean_linker_0, # of connection points: 2
#     Edge 87, Type (0, 0), BuildingBlock: UVAHIK_clean_linker_0, # of connection points: 2
#     Edge 88, Type (0, 0), BuildingBlock: UVAHIK_clean_linker_0, # of connection points: 2
#     Edge 89, Type (0, 0), BuildingBlock: UVAHIK_clean_linker_0, # of connection points: 2
#     Edge 90, Type (0, 0), BuildingBlock: UVAHIK_clean_linker_0, # of connection points: 2
#     Edge 91, Type (0, 0), BuildingBlock: UVAHIK_clean_linker_0, # of connection points: 2
#     Edge 92, Type (0, 0), BuildingBlock: UVAHIK_clean_linker_0, # of connection points: 2
#     Edge 93, Type (0, 0), BuildingBlock: UVAHIK_clean_linker_0, # of connection points: 2
#     Edge 94, Type (0, 0), BuildingBlock: UVAHIK_clean_linker_0, # of connection points: 2
#     Edge 95, Type (0, 0), BuildingBlock: UVAHIK_clean_linker_0, # of connection points: 2
# Relax obj value: 0.186
# Max RMSD: 0.208
# Mean RMSD: 0.208
data_MOF--net-uka--node1-TATPOV_clean_sbu_0--edge1-UVAHIK_clean_linker_0
_symmetry_space_group_name_H-M    P1
_symmetry_Int_Tables_number       1
_symmetry_cell_setting            triclinic
loop_
_symmetry_equiv_pos_as_xyz
'x, y, z'
_cell_length_a     76.717747
_cell_length_b     76.511294
_cell_length_c     55.902665
_cell_angle_alpha  90.045282
_cell_angle_beta   90.074478
_cell_angle_gamma 90.035437
loop_
_atom_site_label
_atom_site_type_symbol
_atom_site_fract_x
_atom_site_fract_y
_atom_site_fract_z
_atom_type_partial_charge
Zn0 Zn 0.07963 0.25381 0.2268 0.0
Zn1 Zn 0.11342 0.26087 0.2274 0.0
O2 O 0.11108 0.23431 0.23393 0.0
O3 O 0.08313 0.22812 0.23163 0.0
O4 O 0.13949 0.26341 0.22512 0.0
O5 O 0.07713 0.2631 0.19381 0.0
O6 O 0.10473 0.27092 0.19496 0.0
C7 C 0.0987 0.22322 0.23475 0.0
C8 C 0.09056 0.27837 0.26416 0.0
O9 O 0.10588 0.2759 0.25604 0.0
O10 O 0.07764 0.27058 0.25479 0.0
C11 C 0.14911 0.25628 0.24085 0.0
O12 O 0.14174 0.24856 0.25924 0.0
C13 C 0.09008 0.27049 0.18416 0.0
Zn14 Zn 0.9485 0.84751 0.52294 0.0
Zn15 Zn 0.95384 0.88047 0.51042 0.0
O16 O 0.97841 0.87155 0.52028 0.0
O17 O 0.97408 0.84362 0.52757 0.0
O18 O 0.95865 0.90527 0.50036 0.0
O19 O 0.93752 0.84244 0.49123 0.0
O20 O 0.94331 0.86936 0.47989 0.0
C21 C 0.98433 0.85653 0.52595 0.0
C22 C 0.92976 0.87182 0.55225 0.0
O23 O 0.93614 0.88314 0.53805 0.0
O24 O 0.93356 0.85581 0.55011 0.0
C25 C 0.96705 0.91538 0.51426 0.0
O26 O 0.9722 0.90946 0.53516 0.0
C27 C 0.93714 0.85422 0.47537 0.0
Zn28 Zn 0.41331 0.74389 0.72769 0.0
Zn29 Zn 0.37906 0.7385 0.73284 0.0
O30 O 0.38297 0.76486 0.73851 0.0
O31 O 0.41084 0.76989 0.73257 0.0
O32 O 0.35286 0.73669 0.73299 0.0
O33 O 0.41312 0.73345 0.69484 0.0
O34 O 0.38527 0.72779 0.70001 0.0
C35 C 0.39578 0.77545 0.73774 0.0
C36 C 0.40346 0.72049 0.76716 0.0
O37 O 0.3878 0.72351 0.76079 0.0
O38 O 0.41605 0.72754 0.75607 0.0
C39 C 0.34357 0.74512 0.74787 0.0
O40 O 0.35129 0.75431 0.76468 0.0
C41 C 0.39905 0.72676 0.68736 0.0
Zn42 Zn 0.53718 0.14094 0.01519 0.0
Zn43 Zn 0.5377 0.10616 0.01467 0.0
O44 O 0.51219 0.11276 0.02224 0.0
O45 O 0.51135 0.14148 0.02144 0.0
O46 O 0.53602 0.08001 0.01135 0.0
O47 O 0.54629 0.14237 0.98189 0.0
O48 O 0.54796 0.11367 0.98191 0.0
C49 C 0.50368 0.12698 0.02423 0.0
C50 C 0.55955 0.12504 0.0515 0.0
O51 O 0.55411 0.11052 0.04316 0.0
O52 O 0.55437 0.13933 0.04251 0.0
C53 C 0.52756 0.07106 0.02658 0.0
O54 O 0.52092 0.07897 0.04534 0.0
C55 C 0.55044 0.12829 0.97149 0.0
Zn56 Zn 0.08475 0.709 0.23042 0.0
Zn57 Zn 0.11805 0.7125 0.24041 0.0
O58 O 0.10956 0.73783 0.23404 0.0
O59 O 0.08183 0.73468 0.22502 0.0
O60 O 0.14318 0.71611 0.24993 0.0
O61 O 0.07947 0.69882 0.26211 0.0
O62 O 0.10763 0.69912 0.2696 0.0
C63 C 0.09496 0.74446 0.22794 0.0
C64 C 0.10715 0.69037 0.1978 0.0
O65 O 0.11938 0.69767 0.20959 0.0
O66 O 0.09138 0.69278 0.20359 0.0
C67 C 0.15279 0.72659 0.2382 0.0
O68 O 0.14623 0.73466 0.2195 0.0
C69 C 0.0921 0.69507 0.27568 0.0
Zn70 Zn 0.54474 0.84658 0.46978 0.0
Zn71 Zn 0.53393 0.87925 0.4747 0.0
O72 O 0.51105 0.86597 0.46759 0.0
O73 O 0.51977 0.83854 0.46657 0.0
O74 O 0.52608 0.90396 0.48081 0.0
O75 O 0.55639 0.84645 0.50139 0.0
O76 O 0.54646 0.87315 0.50676 0.0
C77 C 0.50765 0.84974 0.46545 0.0
C78 C 0.55881 0.86972 0.43416 0.0
O79 O 0.54968 0.88125 0.44481 0.0
O80 O 0.55882 0.85404 0.44137 0.0
C81 C 0.51491 0.91176 0.46785 0.0
O82 O 0.50818 0.90357 0.44935 0.0
C83 C 0.55497 0.85992 0.51433 0.0
Zn84 Zn 0.39591 0.2794 0.73721 0.0
Zn85 Zn 0.36206 0.27332 0.73486 0.0
O86 O 0.37355 0.24953 0.72657 0.0
O87 O 0.40172 0.25479 0.7278 0.0
O88 O 0.33661 0.26746 0.7374 0.0
O89 O 0.395 0.28607 0.77176 0.0
O90 O 0.36649 0.28526 0.76752 0.0
C91 C 0.38924 0.2443 0.72416 0.0
C92 C 0.37692 0.3001 0.70149 0.0
O93 O 0.36385 0.29083 0.70748 0.0
O94 O 0.3915 0.29803 0.71185 0.0
C95 C 0.32871 0.25685 0.72364 0.0
O96 O 0.33727 0.24948 0.70597 0.0
C97 C 0.37992 0.28886 0.78 0.0
Zn98 Zn 0.97766 0.14942 0.00973 0.0
Zn99 Zn 0.97358 0.11539 0.00242 0.0
O100 O -0.0002 0.12041 -0.00283 0.0
O101 O 0.00325 0.1487 0.00232 0.0
O102 O 0.97275 0.08914 0.00098 0.0
O103 O 0.96988 0.14743 0.04368 0.0
O104 O 0.96206 0.12044 0.03521 0.0
C105 C 0.0096 0.13387 -0.00255 0.0
C106 C 0.95361 0.13983 0.97081 0.0
O107 O 0.95852 0.12421 0.97481 0.0
O108 O 0.9593 0.15236 0.98349 0.0
C109 C 0.98162 0.08053 0.98583 0.0
O110 O 0.99065 0.08901 0.96959 0.0
C111 C 0.9624 0.13336 0.04958 0.0
Zn112 Zn 0.89414 0.74964 0.72368 0.0
Zn113 Zn 0.86113 0.74138 0.72641 0.0
O114 O 0.86184 0.76764 0.71623 0.0
O115 O 0.8897 0.77419 0.71396 0.0
O116 O 0.83537 0.73739 0.73128 0.0
O117 O 0.8984 0.74436 0.75794 0.0
O118 O 0.87152 0.73438 0.75944 0.0
C119 C 0.87392 0.77872 0.71215 0.0
C120 C 0.88396 0.721 0.69235 0.0
O121 O 0.86865 0.72394 0.70021 0.0
O122 O 0.89669 0.73016 0.69962 0.0
C123 C 0.82422 0.74441 0.71745 0.0
O124 O 0.82969 0.75341 0.69892 0.0
C125 C 0.88632 0.73682 0.76932 0.0
Zn126 Zn 0.03702 0.15911 0.45265 0.0
Zn127 Zn 0.02976 0.12487 0.4551 0.0
O128 O 0.00598 0.13608 0.44743 0.0
O129 O 0.01148 0.16436 0.44745 0.0
O130 O 0.02384 0.09953 0.46017 0.0
O131 O 0.0469 0.15941 0.48563 0.0
O132 O 0.04143 0.13122 0.48741 0.0
C133 C 0.0008 0.15183 0.44536 0.0
C134 C 0.05471 0.13772 0.41698 0.0
O135 O 0.04628 0.12509 0.42626 0.0
O136 O 0.05303 0.1531 0.42509 0.0
C137 C 0.01461 0.0906 0.44574 0.0
O138 O 0.00887 0.09793 0.42601 0.0
C139 C 0.04748 0.14512 0.49693 0.0
Zn140 Zn 0.56656 0.25802 0.2129 0.0
Zn141 Zn 0.60012 0.26372 0.22202 0.0
O142 O 0.59729 0.23684 0.22068 0.0
O143 O 0.5693 0.23202 0.21566 0.0
O144 O 0.62548 0.26601 0.23045 0.0
O145 O 0.55993 0.27244 0.24147 0.0
O146 O 0.5877 0.27683 0.24933 0.0
C147 C 0.5846 0.2262 0.21842 0.0
C148 C 0.58472 0.27671 0.17519 0.0
O149 O 0.5977 0.27596 0.18941 0.0
O150 O 0.57034 0.26972 0.18094 0.0
C151 C 0.63646 0.25692 0.21886 0.0
O152 O 0.63095 0.24715 0.20104 0.0
C153 C 0.57169 0.27923 0.25439 0.0
Zn154 Zn 0.4336 0.83507 0.96852 0.0
Zn155 Zn 0.44478 0.8678 0.97399 0.0
O156 O 0.46745 0.85383 0.96923 0.0
O157 O 0.45855 0.82649 0.96753 0.0
O158 O 0.45363 0.89212 0.98038 0.0
O159 O 0.4206 0.8357 -0.00074 0.0
O160 O 0.43033 0.86248 0.00462 0.0
C161 C 0.4708 0.83759 0.96738 0.0
C162 C 0.42218 0.85846 0.93099 0.0
O163 O 0.43091 0.86988 0.94253 0.0
O164 O 0.42129 0.84287 0.9385 0.0
C165 C 0.46494 0.89922 0.96692 0.0
O166 O 0.47053 0.89067 0.94804 0.0
C167 C 0.42141 0.84943 0.01183 0.0
Zn168 Zn 0.90198 0.25728 0.75529 0.0
Zn169 Zn 0.86761 0.25874 0.75251 0.0
O170 O 0.87298 0.23592 0.77125 0.0
O171 O 0.9016 0.23402 0.7716 0.0
O172 O 0.84163 0.25743 0.74731 0.0
O173 O 0.90516 0.25857 0.72005 0.0
O174 O 0.8767 0.26158 0.71773 0.0
C175 C 0.88687 0.2278 0.77708 0.0
C176 C 0.88618 0.28737 0.77941 0.0
O177 O 0.87172 0.28079 0.77272 0.0
O178 O 0.9004 0.27983 0.77421 0.0
C179 C 0.83116 0.25182 0.76316 0.0
O180 O 0.8373 0.24737 0.78424 0.0
C181 C 0.89161 0.26109 0.70764 0.0
Zn182 Zn 0.48535 0.16198 0.50047 0.0
Zn183 Zn 0.47737 0.12832 0.50375 0.0
O184 O 0.50429 0.12964 0.50184 0.0
O185 O 0.51094 0.1573 0.49638 0.0
O186 O 0.47357 0.10228 0.5036 0.0
O187 O 0.46986 0.16452 0.47192 0.0
O188 O 0.46299 0.13667 0.47459 0.0
C189 C 0.51566 0.14155 0.49848 0.0
C190 C 0.46706 0.15255 0.5443 0.0
O191 O 0.467 0.13718 0.53546 0.0
O192 O 0.47446 0.16494 0.53319 0.0
C193 C 0.48206 0.09268 0.51805 0.0
O194 O 0.49224 0.10014 0.534 0.0
C195 C 0.46127 0.15149 0.46443 0.0
Zn196 Zn 0.5846 0.73792 0.27714 0.0
Zn197 Zn 0.61878 0.73441 0.27136 0.0
O198 O 0.61458 0.76107 0.27388 0.0
O199 O 0.58606 0.76398 0.27269 0.0
O200 O 0.6445 0.73303 0.26481 0.0
O201 O 0.57999 0.72243 0.24871 0.0
O202 O 0.60826 0.72173 0.24231 0.0
C203 C 0.60109 0.77077 0.27312 0.0
C204 C 0.60205 0.72011 0.31628 0.0
O205 O 0.61533 0.7209 0.30269 0.0
O206 O 0.58783 0.72724 0.31009 0.0
C207 C 0.65534 0.74212 0.27672 0.0
O208 O 0.64962 0.75207 0.29419 0.0
C209 C 0.59282 0.71752 0.23618 0.0
Zn210 Zn 0.02082 0.828 0.00874 0.0
Zn211 Zn 0.02252 0.86245 0.01209 0.0
O212 O -0.00372 0.85649 0.01434 0.0
O213 O -0.00538 0.82823 0.00739 0.0
O214 O 0.02207 0.88872 0.0115 0.0
O215 O 0.03471 0.82779 0.97876 0.0
O216 O 0.03575 0.85649 0.98072 0.0
C217 C 0.98721 0.8427 0.0114 0.0
C218 C 0.0394 0.84066 0.05084 0.0
O219 O 0.03617 0.85581 0.04246 0.0
O220 O 0.03391 0.82713 0.04011 0.0
C221 C 0.01238 0.89726 0.02575 0.0
O222 O 0.00338 0.88875 0.04199 0.0
C223 C 0.03977 0.84223 0.97025 0.0
Zn224 Zn 0.57352 0.74771 0.75595 0.0
Zn225 Zn 0.60644 0.75593 0.76554 0.0
O226 O 0.60574 0.72911 0.76108 0.0
O227 O 0.57894 0.7223 0.75087 0.0
O228 O 0.63228 0.76025 0.76782 0.0
O229 O 0.57247 0.76465 0.72861 0.0
O230 O 0.59949 0.77188 0.73736 0.0
C231 C 0.59443 0.71765 0.75532 0.0
C232 C 0.57956 0.76271 0.80368 0.0
O233 O 0.59549 0.76386 0.79735 0.0
O234 O 0.56835 0.75631 0.78944 0.0
C235 C 0.6423 0.75031 0.77978 0.0
O236 O 0.63544 0.73784 0.7929 0.0
C237 C 0.58579 0.77398 0.72475 0.0
Zn238 Zn 0.47787 0.35058 -0.01135 0.0
Zn239 Zn 0.47576 0.38356 0.00233 0.0
O240 O 0.50181 0.37695 0.00606 0.0
O241 O 0.50374 0.34973 -0.00633 0.0
O242 O 0.47576 0.4096 0.00698 0.0
O243 O 0.46835 0.35521 0.95603 0.0
O244 O 0.46269 0.38148 0.97001 0.0
C245 C 0.5109 0.36333 0.00199 0.0
C246 C 0.45614 0.35751 0.0313 0.0
O247 O 0.4613 0.37326 0.0293 0.0
O248 O 0.46093 0.34602 0.01628 0.0
C249 C 0.48584 0.41773 0.0212 0.0
O250 O 0.49639 0.40881 0.03512 0.0
C251 C 0.46135 0.37004 0.95354 0.0
Zn252 Zn 0.88506 0.24603 0.25012 0.0
Zn253 Zn 0.85255 0.23959 0.26137 0.0
O254 O 0.85477 0.26662 0.2624 0.0
O255 O 0.88239 0.27178 0.25488 0.0
O256 O 0.82678 0.23616 0.26544 0.0
O257 O 0.88243 0.23605 0.21737 0.0
O258 O 0.85708 0.22614 0.22974 0.0
C259 C 0.86733 0.27738 0.2599 0.0
C260 C 0.88036 0.2242 0.2926 0.0
O261 O 0.86422 0.22756 0.28993 0.0
O262 O 0.89145 0.2299 0.2777 0.0
C263 C 0.81767 0.24543 0.27956 0.0
O264 O 0.82547 0.25688 0.29347 0.0
C265 C 0.86904 0.22676 0.21398 0.0
Zn266 Zn 0.01747 0.64263 0.529 0.0
Zn267 Zn 0.0158 0.6082 0.53319 0.0
O268 O 0.99064 0.61626 0.54127 0.0
O269 O 0.99253 0.64491 0.53905 0.0
O270 O 0.01408 0.58196 0.53192 0.0
O271 O 0.02299 0.64166 0.49425 0.0
O272 O 0.02532 0.6132 0.49915 0.0
C273 C 0.9836 0.63131 0.54301 0.0
C274 C 0.04115 0.62798 0.56447 0.0
O275 O 0.03346 0.6136 0.55986 0.0
O276 O 0.03712 0.64178 0.55322 0.0
C277 C 0.00359 0.57253 0.54385 0.0
O278 O -0.00677 0.5799 0.55958 0.0
C279 C 0.02679 0.62675 0.48608 0.0
Zn280 Zn 0.59185 0.17447 0.68923 0.0
Zn281 Zn 0.62361 0.18646 0.69695 0.0
O282 O 0.61009 0.20913 0.68921 0.0
O283 O 0.58363 0.19904 0.68271 0.0
O284 O 0.64763 0.19501 0.70566 0.0
O285 O 0.5896 0.16424 0.7217 0.0
O286 O 0.61638 0.17339 0.72807 0.0
C287 C 0.59416 0.21178 0.6838 0.0
C288 C 0.61701 0.16079 0.65611 0.0
O289 O 0.62742 0.17114 0.66688 0.0
O290 O 0.60131 0.15951 0.66282 0.0
C291 C 0.65696 0.20435 0.69192 0.0
O292 O 0.65092 0.20867 0.67073 0.0
C293 C 0.60273 0.16543 0.73527 0.0
Zn294 Zn 0.00175 0.34489 0.93684 0.0
Zn295 Zn 0.00916 0.37803 0.94059 0.0
O296 O 0.98235 0.37675 0.93431 0.0
O297 O 0.97614 0.34877 0.93655 0.0
O298 O 0.01269 0.40376 0.94608 0.0
O299 O 0.01354 0.33919 0.96765 0.0
O300 O 0.01893 0.36728 0.97188 0.0
C301 C 0.97116 0.36441 0.93408 0.0
C302 C 0.02402 0.35782 0.89897 0.0
O303 O 0.02408 0.37192 0.91111 0.0
O304 O 0.015 0.34485 0.9057 0.0
C305 C 0.00581 0.415 0.93228 0.0
O306 O -0.00285 0.40963 0.91336 0.0
C307 C 0.01985 0.35166 0.97972 0.0
Zn308 Zn 0.90646 0.75458 0.21491 0.0
Zn309 Zn 0.87242 0.75778 0.21568 0.0
O310 O 0.87706 0.73112 0.21344 0.0
O311 O 0.90538 0.72853 0.218 0.0
O312 O 0.84643 0.75895 0.21988 0.0
O313 O 0.90977 0.76977 0.24365 0.0
O314 O 0.8812 0.77143 0.24531 0.0
C315 C 0.89059 0.72151 0.21518 0.0
C316 C 0.89177 0.7714 0.1727 0.0
O317 O 0.87735 0.77031 0.18389 0.0
O318 O 0.90559 0.7653 0.18191 0.0
C319 C 0.836 0.74961 0.20764 0.0
O320 O 0.84229 0.73929 0.19096 0.0
C321 C 0.89614 0.77537 0.25376 0.0
Zn322 Zn 0.46191 0.64535 0.43725 0.0
Zn323 Zn 0.46468 0.6128 0.44816 0.0
O324 O 0.49027 0.62179 0.44705 0.0
O325 O 0.48692 0.65025 0.44462 0.0
O326 O 0.46774 0.58779 0.45857 0.0
O327 O 0.4437 0.64966 0.46205 0.0
O328 O 0.4492 0.62313 0.47507 0.0
C329 C 0.4968 0.63712 0.44679 0.0
C330 C 0.45069 0.62306 0.39929 0.0
O331 O 0.45245 0.61118 0.41508 0.0
O332 O 0.455 0.63866 0.40396 0.0
C333 C 0.47927 0.57812 0.44903 0.0
O334 O 0.48879 0.58443 0.43152 0.0
C335 C 0.44133 0.63772 0.47733 0.0
Zn336 Zn 0.40048 0.21485 0.21528 0.0
Zn337 Zn 0.36567 0.21406 0.20964 0.0
O338 O 0.37297 0.23907 0.19984 0.0
O339 O 0.40137 0.24008 0.20551 0.0
O340 O 0.33945 0.21528 0.20911 0.0
O341 O 0.39847 0.20917 0.24994 0.0
O342 O 0.37017 0.20609 0.24453 0.0
C343 C 0.38732 0.24745 0.19933 0.0
C344 C 0.38761 0.18982 0.17967 0.0
O345 O 0.37257 0.19592 0.18442 0.0
O346 O 0.40104 0.19541 0.19047 0.0
C347 C 0.33084 0.22432 0.19413 0.0
O348 O 0.33918 0.23256 0.17699 0.0
C349 C 0.38357 0.20531 0.25797 0.0
Zn350 Zn 0.53637 0.66618 0.95799 0.0
Zn351 Zn 0.53093 0.63245 0.96607 0.0
O352 O 0.50709 0.64124 0.95355 0.0
O353 O 0.51144 0.66935 0.94782 0.0
O354 O 0.52638 0.60734 0.97475 0.0
O355 O 0.54344 0.67065 -0.00829 0.0
O356 O 0.53966 0.64258 -0.00164 0.0
C357 C 0.50143 0.6562 0.9472 0.0
C358 C 0.558 0.64328 0.92928 0.0
O359 O 0.54967 0.63107 0.93972 0.0
O360 O 0.55475 0.65911 0.93421 0.0
C361 C 0.51594 0.59766 0.96305 0.0
O362 O 0.508 0.60403 0.94414 0.0
C363 C 0.54404 0.65773 0.00577 0.0
Zn364 Zn 0.09114 0.7695 0.7119 0.0
Zn365 Zn 0.12476 0.77463 0.71106 0.0
O366 O 0.12092 0.74782 0.70868 0.0
O367 O 0.09326 0.74366 0.71717 0.0
O368 O 0.15095 0.77614 0.71303 0.0
O369 O 0.08834 0.78569 0.73976 0.0
O370 O 0.11691 0.78734 0.74188 0.0
C371 C 0.10819 0.73751 0.71266 0.0
C372 C 0.10323 0.78732 0.66939 0.0
O373 O 0.11773 0.78794 0.68052 0.0
O374 O 0.09038 0.77918 0.67825 0.0
C375 C 0.16046 0.76707 0.69917 0.0
O376 O 0.15299 0.75758 0.68244 0.0
C377 C 0.10192 0.79127 0.75011 0.0
Zn378 Zn 0.95563 0.33166 0.43598 0.0
Zn379 Zn 0.96025 0.36293 0.45474 0.0
O380 O 0.98494 0.35515 0.44381 0.0
O381 O 0.98136 0.32764 0.43347 0.0
O382 O 0.96463 0.38656 0.46953 0.0
O383 O 0.94258 0.32368 0.46511 0.0
O384 O 0.94907 0.34879 0.48216 0.0
C385 C 0.99128 0.34064 0.43673 0.0
C386 C 0.93837 0.35894 0.40975 0.0
O387 O 0.94316 0.36841 0.42729 0.0
O388 O 0.94286 0.34305 0.40856 0.0
C389 C 0.97454 0.39734 0.45887 0.0
O390 O 0.98162 0.3928 0.4384 0.0
C391 C 0.94218 0.33363 0.4832 0.0
Zn392 Zn 0.40085 0.75111 0.26057 0.0
Zn393 Zn 0.36848 0.75871 0.27176 0.0
O394 O 0.36987 0.7317 0.269 0.0
O395 O 0.39567 0.72581 0.25399 0.0
O396 O 0.34266 0.76222 0.27627 0.0
O397 O 0.40113 0.76838 0.23388 0.0
O398 O 0.37365 0.77395 0.2419 0.0
C399 C 0.38087 0.72069 0.26099 0.0
C400 C 0.39651 0.76662 0.30803 0.0
O401 O 0.38053 0.76809 0.30206 0.0
O402 O 0.40721 0.75931 0.29394 0.0
C403 C 0.33406 0.75281 0.29082 0.0
O404 O 0.34246 0.74171 0.30455 0.0
C405 C 0.38726 0.77668 0.22937 0.0
Zn406 Zn 0.98805 0.66528 0.00964 0.0
Zn407 Zn 0.98466 0.63105 0.00246 0.0
O408 O 0.01062 0.63476 0.0115 0.0
O409 O 0.01377 0.66323 0.01534 0.0
O410 O 0.984 0.60543 -0.0055 0.0
O411 O 0.97948 0.67064 0.97681 0.0
O412 O 0.97517 0.64245 0.97144 0.0
C413 C 0.02023 0.64803 0.01556 0.0
C414 C 0.96362 0.64773 0.04193 0.0
O415 O 0.96791 0.6339 0.03071 0.0
O416 O 0.97042 0.66229 0.03639 0.0
C417 C 0.99128 0.59428 0.00806 0.0
O418 O -0.00135 0.5996 0.02801 0.0
C419 C 0.97416 0.65815 0.9639 0.0
Zn420 Zn 0.08202 0.19633 0.77744 0.0
Zn421 Zn 0.11665 0.19931 0.77312 0.0
O422 O 0.10857 0.22487 0.77607 0.0
O423 O 0.08008 0.22265 0.7794 0.0
O424 O 0.14242 0.20195 0.76786 0.0
O425 O 0.0802 0.18439 0.7458 0.0
O426 O 0.10873 0.18619 0.74258 0.0
C427 C 0.09368 0.23201 0.77836 0.0
C428 C 0.10136 0.17898 0.81497 0.0
O429 O 0.11466 0.18536 0.80452 0.0
O430 O 0.0862 0.18159 0.80674 0.0
C431 C 0.15141 0.21193 0.78124 0.0
O432 O 0.14375 0.21999 0.79913 0.0
C433 C 0.09403 0.18129 0.73424 0.0
Zn434 Zn 0.48403 0.33332 0.50734 0.0
Zn435 Zn 0.49712 0.36523 0.51499 0.0
O436 O 0.47075 0.3665 0.52283 0.0
O437 O 0.45942 0.34127 0.51213 0.0
O438 O 0.50428 0.39057 0.51647 0.0
O439 O 0.49373 0.33259 0.47412 0.0
O440 O 0.50461 0.35879 0.4807 0.0
C441 C 0.45753 0.35658 0.52022 0.0
C442 C 0.50936 0.33614 0.54694 0.0
O443 O 0.51104 0.35206 0.54061 0.0
O444 O 0.49872 0.32618 0.53611 0.0
C445 C 0.49713 0.40149 0.53052 0.0
O446 O 0.48594 0.39584 0.54651 0.0
C447 C 0.50236 0.34567 0.467 0.0
C448 C 0.06068 0.12336 0.37759 0.0
C449 C 0.06573 0.13502 0.39574 0.0
C450 C 0.06901 0.1238 0.35532 0.0
C451 C 0.10594 0.14326 0.32135 0.0
H452 H 0.06972 0.1585 0.27784 0.0
C453 C 0.11414 0.20196 0.26093 0.0
C454 C 0.10193 0.20517 0.24278 0.0
C455 C 0.11382 0.18616 0.27343 0.0
C456 C 0.0802 0.15381 0.28911 0.0
H457 H 0.08447 0.15486 0.40594 0.0
H458 H 0.09915 0.15544 0.36742 0.0
H459 H 0.06194 0.14214 0.31305 0.0
H460 H 0.08152 0.1937 0.22108 0.0
H461 H 0.08172 0.16566 0.24173 0.0
H462 H 0.12418 0.15556 0.29783 0.0
C463 C 0.08877 0.14604 0.37013 0.0
C464 C 0.07564 0.14437 0.30948 0.0
C465 C 0.08025 0.14585 0.39213 0.0
C466 C 0.09087 0.1916 0.23535 0.0
C467 C 0.09089 0.1756 0.24736 0.0
C468 C 0.11057 0.15246 0.30068 0.0
C469 C 0.08272 0.13564 0.35115 0.0
C470 C 0.08833 0.13995 0.32651 0.0
C471 C 0.10152 0.1731 0.26763 0.0
C472 C 0.09762 0.15886 0.28509 0.0
H473 H 0.0495 0.11489 0.37998 0.0
H474 H 0.0641 0.11566 0.34094 0.0
H475 H 0.11601 0.13978 0.33409 0.0
H476 H 0.12281 0.21224 0.267 0.0
H477 H 0.1222 0.18492 0.28891 0.0
C478 C 0.01359 0.86782 0.53938 0.0
C479 C 0.00298 0.85393 0.53165 0.0
C480 C 0.03051 0.86457 0.54784 0.0
C481 C 0.06457 0.82976 0.552 0.0
H482 H 0.07145 0.84742 0.61633 0.0
C483 C 0.09017 0.78932 0.62894 0.0
C484 C 0.10058 0.79685 0.64682 0.0
C485 C 0.08454 0.79925 0.60954 0.0
C486 C 0.07008 0.84272 0.59814 0.0
H487 H 0.00215 0.82599 0.52512 0.0
H488 H 0.03132 0.82036 0.53974 0.0
H489 H 0.04911 0.86038 0.59092 0.0
H490 H 0.11399 0.82037 0.65808 0.0
H491 H 0.10357 0.83809 0.62427 0.0
H492 H 0.08458 0.81113 0.56004 0.0
C493 C 0.02679 0.83376 0.53929 0.0
C494 C 0.05725 0.85016 0.58354 0.0
C495 C 0.00994 0.83697 0.53114 0.0
C496 C 0.10609 0.81427 0.64434 0.0
C497 C 0.10008 0.82439 0.62513 0.0
C498 C 0.07729 0.82226 0.56664 0.0
C499 C 0.03715 0.84742 0.54834 0.0
C500 C 0.05373 0.84311 0.56079 0.0
C501 C 0.08888 0.81705 0.60788 0.0
C502 C 0.07954 0.82809 0.59026 0.0
H503 H 0.00856 0.88104 0.53994 0.0
H504 H 0.03821 0.87537 0.55461 0.0
H505 H 0.06244 0.82431 0.53434 0.0
H506 H 0.08574 0.77592 0.63052 0.0
H507 H 0.07575 0.79329 0.59673 0.0
C508 C 0.42334 0.87296 0.89096 0.0
C509 C 0.41439 0.86252 0.90755 0.0
C510 C 0.41837 0.87287 0.86684 0.0
C511 C 0.38512 0.85641 0.8236 0.0
H512 H 0.42512 0.8367 0.79116 0.0
C513 C 0.37993 0.79784 0.76185 0.0
C514 C 0.3937 0.7936 0.74639 0.0
C515 C 0.38022 0.81345 0.77482 0.0
C516 C 0.41379 0.84263 0.79932 0.0
H517 H 0.3922 0.84543 0.91273 0.0
H518 H 0.38335 0.84551 0.87095 0.0
H519 H 0.42931 0.85295 0.82775 0.0
H520 H 0.41738 0.80333 0.73 0.0
H521 H 0.4175 0.83093 0.75178 0.0
H522 H 0.3695 0.84539 0.79565 0.0
C523 C 0.39422 0.85368 0.8763 0.0
C524 C 0.41625 0.85201 0.82047 0.0
C525 C 0.39936 0.85351 0.90022 0.0
C526 C 0.40675 0.80611 0.74215 0.0
C527 C 0.40686 0.82189 0.75478 0.0
C528 C 0.38266 0.84722 0.80221 0.0
C529 C 0.4042 0.8626 0.85915 0.0
C530 C 0.40187 0.85811 0.83353 0.0
C531 C 0.39415 0.82532 0.77231 0.0
C532 C 0.39689 0.8393 0.79057 0.0
H533 H 0.435 0.87998 0.8962 0.0
H534 H 0.42626 0.87989 0.85397 0.0
H535 H 0.37382 0.86119 0.83318 0.0
H536 H 0.36965 0.7885 0.76546 0.0
H537 H 0.37022 0.81544 0.78818 0.0
C538 C 0.39039 0.18286 0.13663 0.0
C539 C 0.39 0.17709 0.16037 0.0
C540 C 0.39705 0.17205 0.11867 0.0
C541 C 0.41086 0.14698 0.08161 0.0
H542 H 0.45255 0.12347 0.10395 0.0
C543 C 0.47883 0.11257 0.04554 0.0
C544 C 0.48537 0.12682 0.03246 0.0
C545 C 0.46287 0.11391 0.05748 0.0
C546 C 0.44075 0.12958 0.09738 0.0
H547 H 0.39489 0.15534 0.18408 0.0
H548 H 0.40556 0.13595 0.15259 0.0
H549 H 0.43187 0.13464 0.13274 0.0
H550 H 0.47962 0.15296 0.01975 0.0
H551 H 0.45173 0.15519 0.04029 0.0
H552 H 0.42082 0.14309 0.04614 0.0
C553 C 0.40135 0.14898 0.14774 0.0
C554 C 0.42876 0.13599 0.11394 0.0
C555 C 0.39505 0.15996 0.16576 0.0
C556 C 0.47498 0.14181 0.02985 0.0
C557 C 0.45893 0.14304 0.04147 0.0
C558 C 0.42304 0.14079 0.06502 0.0
C559 C 0.40328 0.15519 0.12415 0.0
C560 C 0.41394 0.14534 0.10636 0.0
C561 C 0.45306 0.12939 0.05618 0.0
C562 C 0.43837 0.13254 0.07283 0.0
H563 H 0.38677 0.19617 0.13225 0.0
H564 H 0.39847 0.17748 0.10091 0.0
H565 H 0.3994 0.1537 0.07502 0.0
H566 H 0.48653 0.10082 0.04784 0.0
H567 H 0.45858 0.10316 0.06863 0.0
C568 C 0.07701 0.77054 0.2177 0.0
C569 C 0.09355 0.76314 0.22136 0.0
C570 C 0.07528 0.78657 0.20613 0.0
C571 C 0.09825 0.80937 0.15896 0.0
H572 H 0.05603 0.8372 0.16017 0.0
C573 C 0.05879 0.82253 0.07629 0.0
C574 C 0.05005 0.83842 0.07267 0.0
C575 C 0.06823 0.8196 0.09716 0.0
C576 C 0.06814 0.82993 0.15977 0.0
H577 H 0.12135 0.7677 0.21828 0.0
H578 H 0.11834 0.79589 0.19812 0.0
H579 H 0.06531 0.82173 0.19618 0.0
H580 H 0.04465 0.86392 0.08787 0.0
H581 H 0.06093 0.85852 0.12512 0.0
H582 H 0.10061 0.81688 0.12227 0.0
C583 C 0.10668 0.78909 0.20382 0.0
C584 C 0.07338 0.82092 0.18033 0.0
C585 C 0.10841 0.77297 0.21547 0.0
C586 C 0.05128 0.85155 0.09023 0.0
C587 C 0.06056 0.84847 0.11148 0.0
C588 C 0.09307 0.81843 0.13851 0.0
C589 C 0.09006 0.79563 0.19792 0.0
C590 C 0.08786 0.80962 0.17967 0.0
C591 C 0.06906 0.8324 0.11514 0.0
C592 C 0.07737 0.82786 0.13828 0.0
H593 H 0.06529 0.7634 0.22235 0.0
H594 H 0.06226 0.79104 0.20185 0.0
H595 H 0.10949 0.80086 0.15766 0.0
H596 H 0.05821 0.8122 0.06305 0.0
H597 H 0.07432 0.80695 0.0996 0.0
C598 C 0.42046 0.77082 0.33763 0.0
C599 C 0.40312 0.77402 0.33081 0.0
C600 C 0.42749 0.77869 0.35791 0.0
C601 C 0.43815 0.7905 0.40671 0.0
H602 H 0.43091 0.84024 0.41512 0.0
C603 C 0.48373 0.82788 0.46839 0.0
C604 C 0.48996 0.84375 0.45925 0.0
C605 C 0.46865 0.82026 0.459 0.0
C606 C 0.43312 0.82635 0.41303 0.0
H607 H 0.37939 0.78769 0.34046 0.0
H608 H 0.39175 0.80146 0.37633 0.0
H609 H 0.41333 0.82419 0.38607 0.0
H610 H 0.48489 0.86472 0.43425 0.0
H611 H 0.45919 0.85103 0.41677 0.0
H612 H 0.45881 0.79265 0.43188 0.0
C613 C 0.3999 0.79291 0.36568 0.0
C614 C 0.42283 0.81709 0.39659 0.0
C615 C 0.3928 0.78496 0.34524 0.0
C616 C 0.48026 0.85248 0.44166 0.0
C617 C 0.46544 0.84461 0.43173 0.0
C618 C 0.44855 0.79973 0.42281 0.0
C619 C 0.41739 0.78996 0.37212 0.0
C620 C 0.42571 0.79918 0.39262 0.0
C621 C 0.45984 0.82803 0.43961 0.0
C622 C 0.4466 0.81791 0.42568 0.0
H623 H 0.42883 0.76248 0.327 0.0
H624 H 0.4411 0.77637 0.36197 0.0
H625 H 0.44044 0.77662 0.40451 0.0
H626 H 0.4909 0.82102 0.4822 0.0
H627 H 0.46444 0.80783 0.46622 0.0
C628 C 0.38038 0.21759 0.70108 0.0
C629 C 0.3931 0.22683 0.71407 0.0
C630 C 0.38514 0.2033 0.68685 0.0
C631 C 0.40282 0.18898 0.6426 0.0
H632 H 0.44161 0.1575 0.65392 0.0
C633 C 0.45356 0.17408 0.57209 0.0
C634 C 0.4573 0.15657 0.56648 0.0
C635 C 0.44329 0.17824 0.59178 0.0
C636 C 0.43055 0.16596 0.6506 0.0
H637 H 0.42035 0.22716 0.72446 0.0
H638 H 0.42861 0.20243 0.69973 0.0
H639 H 0.42693 0.17145 0.68791 0.0
H640 H 0.45355 0.12968 0.57767 0.0
H641 H 0.43585 0.13716 0.61295 0.0
H642 H 0.40713 0.18436 0.60531 0.0
C643 C 0.41499 0.20613 0.70038 0.0
C644 C 0.42221 0.17401 0.66999 0.0
C645 C 0.41027 0.22044 0.71443 0.0
C646 C 0.45087 0.14329 0.58152 0.0
C647 C 0.44077 0.14753 0.60163 0.0
C648 C 0.41123 0.18109 0.62332 0.0
C649 C 0.40265 0.19792 0.68555 0.0
C650 C 0.40869 0.18613 0.66611 0.0
C651 C 0.43667 0.16505 0.6066 0.0
C652 C 0.42557 0.17005 0.6271 0.0
H653 H 0.36701 0.22211 0.70053 0.0
H654 H 0.3753 0.19708 0.67584 0.0
H655 H 0.3926 0.19835 0.6389 0.0
H656 H 0.45824 0.18466 0.56094 0.0
H657 H 0.44051 0.19187 0.59547 0.0
C658 C 0.09242 0.15435 0.84093 0.0
C659 C 0.10309 0.169 0.83732 0.0
C660 C 0.09109 0.1468 0.86352 0.0
C661 C 0.0883 0.16214 0.92291 0.0
H662 H 0.08017 0.11331 0.93762 0.0
C663 C 0.04002 0.14545 -0.00408 0.0
C664 C 0.02778 0.13275 -0.01098 0.0
C665 C 0.05601 0.14675 0.98412 0.0
C666 C 0.08236 0.12701 0.93388 0.0
H667 H 0.12158 0.18666 0.85386 0.0
H668 H 0.11868 0.17381 0.89396 0.0
H669 H 0.09712 0.1212 0.90228 0.0
H670 H 0.02318 0.11057 0.96578 0.0
H671 H 0.05047 0.11334 0.94432 0.0
H672 H 0.07218 0.16823 0.95265 0.0
C673 C 0.11167 0.16798 0.87913 0.0
C674 C 0.09224 0.13149 0.91378 0.0
C675 C 0.11334 0.1753 0.85628 0.0
C676 C 0.03238 0.12049 0.97147 0.0
C677 C 0.04818 0.12205 0.95924 0.0
C678 C 0.07817 0.1577 0.9427 0.0
C679 C 0.10008 0.15402 0.88306 0.0
C680 C 0.0946 0.14911 0.90753 0.0
C681 C 0.05988 0.13571 0.96467 0.0
C682 C 0.07431 0.14008 0.94778 0.0
H683 H 0.08443 0.14928 0.82651 0.0
H684 H 0.08189 0.13621 0.86605 0.0
H685 H 0.08976 0.17583 0.91839 0.0
H686 H 0.0369 0.15489 0.00972 0.0
H687 H 0.0649 0.15705 -0.01059 0.0
C688 C 0.89948 0.87712 0.56559 0.0
C689 C 0.91734 0.8767 0.57095 0.0
C690 C 0.88717 0.87542 0.58388 0.0
C691 C 0.88216 0.87018 0.65011 0.0
H692 H 0.85807 0.82766 0.6319 0.0
C693 C 0.88255 0.80972 0.70643 0.0
C694 C 0.86995 0.79656 0.7037 0.0
C695 C 0.88086 0.82558 0.69445 0.0
C696 C 0.86412 0.8398 0.63741 0.0
H697 H 0.93649 0.87562 0.59927 0.0
H698 H 0.91517 0.87286 0.63125 0.0
H699 H 0.86924 0.84686 0.60119 0.0
H700 H 0.84484 0.79026 0.68813 0.0
H701 H 0.84191 0.81811 0.66683 0.0
H702 H 0.87808 0.86235 0.68643 0.0
C703 C 0.91048 0.87472 0.61315 0.0
C704 C 0.87059 0.85088 0.61969 0.0
C705 C 0.92274 0.87628 0.59486 0.0
C706 C 0.85481 0.80015 0.69042 0.0
C707 C 0.85317 0.81606 0.67818 0.0
C708 C 0.87559 0.85913 0.66787 0.0
C709 C 0.89261 0.87322 0.60774 0.0
C710 C 0.8807 0.86555 0.62586 0.0
C711 C 0.86656 0.82865 0.67927 0.0
C712 C 0.8676 0.84319 0.66167 0.0
H713 H 0.89511 0.87716 0.54715 0.0
H714 H 0.8735 0.87441 0.57919 0.0
H715 H 0.88959 0.88159 0.6554 0.0
H716 H 0.89426 0.80741 0.71681 0.0
H717 H 0.89154 0.8348 0.69561 0.0
C718 C 0.97442 0.17082 0.44658 0.0
C719 C 0.9827 0.15567 0.43823 0.0
C720 C 0.95846 0.17607 0.43691 0.0
C721 C 0.92391 0.16319 0.39198 0.0
H722 H 0.92172 0.21336 0.38265 0.0
C723 C 0.90029 0.20173 0.30927 0.0
C724 C 0.88652 0.21353 0.31282 0.0
C725 C 0.90748 0.19272 0.32856 0.0
C726 C 0.92195 0.19936 0.38554 0.0
H727 H 0.98057 0.13366 0.41408 0.0
H728 H 0.9534 0.14327 0.39604 0.0
H729 H 0.94319 0.20128 0.40987 0.0
H730 H 0.86915 0.22492 0.33907 0.0
H731 H 0.8825 0.20966 0.37331 0.0
H732 H 0.90368 0.16154 0.36544 0.0
C733 C 0.95866 0.15088 0.41068 0.0
C734 C 0.93422 0.19234 0.40127 0.0
C735 C 0.97436 0.14536 0.42092 0.0
C736 C 0.87971 0.2158 0.33593 0.0
C737 C 0.88728 0.20712 0.35541 0.0
C738 C 0.91192 0.17024 0.37576 0.0
C739 C 0.95073 0.16663 0.41801 0.0
C740 C 0.93574 0.17409 0.40428 0.0
C741 C 0.90132 0.19565 0.3518 0.0
C742 C 0.91114 0.18834 0.37211 0.0
H743 H 0.98053 0.17887 0.46017 0.0
H744 H 0.95254 0.1879 0.44373 0.0
H745 H 0.92427 0.14914 0.39418 0.0
H746 H 0.9057 0.19972 0.29159 0.0
H747 H 0.91844 0.18407 0.32548 0.0
C748 C 0.57089 0.11276 0.09024 0.0
C749 C 0.57124 0.12574 0.07247 0.0
C750 C 0.57944 0.1155 0.11214 0.0
C751 C 0.60837 0.14765 0.1442 0.0
H752 H 0.57419 0.1428 0.19466 0.0
C753 C 0.6049 0.20062 0.21397 0.0
C754 C 0.58784 0.20723 0.21552 0.0
C755 C 0.60783 0.18364 0.20551 0.0
C756 C 0.58398 0.14422 0.18086 0.0
H757 H 0.58217 0.15084 0.0626 0.0
H758 H 0.59674 0.1557 0.10026 0.0
H759 H 0.57147 0.12523 0.15871 0.0
H760 H 0.56047 0.2005 0.21228 0.0
H761 H 0.56545 0.17157 0.19683 0.0
H762 H 0.61959 0.16819 0.16477 0.0
C763 C 0.59008 0.14336 0.0977 0.0
C764 C 0.58258 0.13389 0.16031 0.0
C765 C 0.58149 0.1407 0.07609 0.0
C766 C 0.5738 0.19594 0.21094 0.0
C767 C 0.57671 0.17911 0.20228 0.0
C768 C 0.60953 0.15827 0.16446 0.0
C769 C 0.5886 0.13116 0.11641 0.0
C770 C 0.59397 0.13651 0.14096 0.0
C771 C 0.59377 0.17304 0.19818 0.0
C772 C 0.59651 0.15765 0.18217 0.0
H773 H 0.56313 0.10106 0.08784 0.0
H774 H 0.57817 0.10577 0.12608 0.0
H775 H 0.61777 0.14949 0.12999 0.0
H776 H 0.61602 0.2089 0.21779 0.0
H777 H 0.62115 0.17926 0.20329 0.0
C778 C 0.49905 0.8412 0.94601 0.0
C779 C 0.48863 0.83164 0.96192 0.0
C780 C 0.51408 0.83371 0.93626 0.0
C781 C 0.53046 0.78918 0.92349 0.0
H782 H 0.56585 0.81534 0.8894 0.0
C783 C 0.58456 0.77868 0.84269 0.0
C784 C 0.57361 0.76904 0.82737 0.0
C785 C 0.57814 0.78535 0.86437 0.0
C786 C 0.55632 0.80774 0.89918 0.0
H787 H 0.48667 0.80772 0.98234 0.0
H788 H 0.51352 0.79511 0.96679 0.0
H789 H 0.5487 0.82977 0.92033 0.0
H790 H 0.54748 0.7585 0.82315 0.0
H791 H 0.5364 0.77018 0.86019 0.0
H792 H 0.53815 0.76717 0.90254 0.0
C793 C 0.50969 0.80796 0.96064 0.0
C794 C 0.54626 0.81608 0.9167 0.0
C795 C 0.49438 0.81523 0.96979 0.0
C796 C 0.55633 0.76587 0.83443 0.0
C797 C 0.54998 0.77244 0.85591 0.0
C798 C 0.54068 0.78083 0.90635 0.0
C799 C 0.51921 0.81665 0.94267 0.0
C800 C 0.53261 0.80713 0.92828 0.0
C801 C 0.56072 0.78234 0.87114 0.0
C802 C 0.55308 0.79021 0.89309 0.0
H803 H 0.49485 0.85388 0.93959 0.0
H804 H 0.52085 0.84088 0.92241 0.0
H805 H 0.52011 0.78169 0.9317 0.0
H806 H 0.59794 0.78135 0.83775 0.0
H807 H 0.58675 0.7929 0.87575 0.0
C808 C 0.8999 0.20014 0.79227 0.0
C809 C 0.88623 0.21235 0.79282 0.0
C810 C 0.90173 0.18786 0.81054 0.0
C811 C 0.89681 0.18754 0.87339 0.0
H812 H 0.91041 0.13881 0.87026 0.0
C813 C 0.92748 0.15536 0.95546 0.0
C814 C 0.9412 0.14365 0.95142 0.0
C815 C 0.91657 0.1604 0.93672 0.0
C816 C 0.90681 0.15245 0.87147 0.0
H817 H 0.86304 0.22051 0.81187 0.0
H818 H 0.86659 0.1993 0.84436 0.0
H819 H 0.89827 0.15309 0.83485 0.0
H820 H 0.9541 0.12756 0.92503 0.0
H821 H 0.9359 0.13725 0.89178 0.0
H822 H 0.90664 0.18773 0.90894 0.0
C823 C 0.87571 0.19913 0.82958 0.0
C824 C 0.89966 0.16053 0.85123 0.0
C825 C 0.87366 0.2112 0.81098 0.0
C826 C 0.94353 0.13659 0.92851 0.0
C827 C 0.93296 0.14208 0.90952 0.0
C828 C 0.90431 0.17964 0.89337 0.0
C829 C 0.89012 0.1878 0.82992 0.0
C830 C 0.89485 0.17822 0.85196 0.0
C831 C 0.91953 0.15438 0.91325 0.0
C832 C 0.90973 0.16205 0.89264 0.0
H833 H 0.90974 0.20073 0.7784 0.0
H834 H 0.91302 0.17935 0.81048 0.0
H835 H 0.89354 0.2013 0.87427 0.0
H836 H 0.9253 0.16075 0.97314 0.0
H837 H 0.90604 0.16937 0.94065 0.0
C838 C 0.61388 0.13604 0.62791 0.0
C839 C 0.62197 0.15193 0.63374 0.0
C840 C 0.61297 0.1305 0.6042 0.0
C841 C 0.6058 0.15402 0.55 0.0
H842 H 0.59179 0.10798 0.52831 0.0
C843 C 0.54683 0.14913 0.49064 0.0
C844 C 0.53446 0.13746 0.5 0.0
C845 C 0.56444 0.14747 0.49659 0.0
C846 C 0.59572 0.12095 0.53393 0.0
H847 H 0.63761 0.17325 0.62008 0.0
H848 H 0.63595 0.16361 0.57836 0.0
H849 H 0.61361 0.11081 0.55993 0.0
H850 H 0.53099 0.1139 0.52093 0.0
H851 H 0.56142 0.11146 0.53231 0.0
H852 H 0.58695 0.16426 0.52594 0.0
C853 C 0.63018 0.15549 0.5921 0.0
C854 C 0.60832 0.12256 0.55194 0.0
C855 C 0.63122 0.16097 0.61599 0.0
C856 C 0.54023 0.12316 0.51355 0.0
C857 C 0.55779 0.12169 0.51992 0.0
C858 C 0.59318 0.15242 0.53217 0.0
C859 C 0.61994 0.1409 0.58581 0.0
C860 C 0.61258 0.1391 0.56131 0.0
C861 C 0.56999 0.13437 0.51253 0.0
C862 C 0.58711 0.13584 0.52506 0.0
H863 H 0.60679 0.12875 0.64138 0.0
H864 H 0.60499 0.11919 0.60017 0.0
H865 H 0.60866 0.16699 0.55672 0.0
H866 H 0.54278 0.1601 0.47971 0.0
H867 H 0.57352 0.15715 0.48994 0.0
C868 C 0.6154 0.79697 0.29101 0.0
C869 C 0.6026 0.78988 0.27593 0.0
C870 C 0.61407 0.81427 0.29886 0.0
C871 C 0.57819 0.84492 0.31029 0.0
H872 H 0.61496 0.86913 0.34445 0.0
C873 C 0.56038 0.8824 0.3931 0.0
C874 C 0.56854 0.87378 0.41222 0.0
C875 C 0.56742 0.88122 0.37003 0.0
C876 C 0.60454 0.86278 0.33463 0.0
H877 H 0.5798 0.79579 0.25455 0.0
H878 H 0.57804 0.82626 0.26702 0.0
H879 H 0.62243 0.84904 0.31208 0.0
H880 H 0.59134 0.85918 0.42316 0.0
H881 H 0.60376 0.85737 0.38331 0.0
H882 H 0.56039 0.85789 0.33354 0.0
C883 C 0.5886 0.81832 0.27389 0.0
C884 C 0.60881 0.85113 0.31623 0.0
C885 C 0.58966 0.8009 0.26658 0.0
C886 C 0.5848 0.86586 0.4086 0.0
C887 C 0.59197 0.86495 0.38575 0.0
C888 C 0.57394 0.8567 0.3284 0.0
C889 C 0.60009 0.82492 0.29136 0.0
C890 C 0.59573 0.84115 0.30494 0.0
C891 C 0.58281 0.87163 0.36599 0.0
C892 C 0.58711 0.86487 0.34182 0.0
H893 H 0.62552 0.78874 0.29847 0.0
H894 H 0.62318 0.81869 0.31237 0.0
H895 H 0.56764 0.83755 0.30227 0.0
H896 H 0.54778 0.88853 0.39551 0.0
H897 H 0.56014 0.88657 0.35513 0.0
C898 C 0.90666 0.77511 0.1337 0.0
C899 C 0.89281 0.77961 0.14885 0.0
C900 C 0.90894 0.7836 0.11197 0.0
C901 C 0.90251 0.82555 0.084 0.0
H902 H 0.9244 0.80038 0.03198 0.0
C903 C 0.96211 0.85138 0.03676 0.0
C904 C 0.96838 0.84275 0.0164 0.0
C905 C 0.9457 0.84722 0.04596 0.0
C906 C 0.91792 0.80789 0.04574 0.0
H907 H 0.87007 0.79616 0.15279 0.0
H908 H 0.87431 0.81145 0.1145 0.0
H909 H 0.90779 0.78455 0.06138 0.0
H910 H 0.96169 0.82507 0.98761 0.0
H911 H 0.93249 0.81883 0.00244 0.0
H912 H 0.91287 0.84892 0.06857 0.0
C913 C 0.8833 0.80119 0.11959 0.0
C914 C 0.90851 0.79865 0.06287 0.0
C915 C 0.88086 0.79244 0.1414 0.0
C916 C 0.95719 0.83166 0.00361 0.0
C917 C 0.94053 0.82796 0.01233 0.0
C918 C 0.91171 0.8349 0.06656 0.0
C919 C 0.89749 0.79693 0.10477 0.0
C920 C 0.90182 0.80721 0.08307 0.0
C921 C 0.93508 0.83462 0.03461 0.0
C922 C 0.92061 0.82603 0.04814 0.0
H923 H 0.91602 0.7652 0.13885 0.0
H924 H 0.92021 0.78021 0.10127 0.0
H925 H 0.8973 0.83255 0.09924 0.0
H926 H 0.97054 0.86 0.04694 0.0
H927 H 0.94219 0.8527 0.06313 0.0
C928 C 0.57009 0.62418 0.89654 0.0
C929 C 0.57094 0.63949 0.91041 0.0
C930 C 0.58032 0.62255 0.87586 0.0
C931 C 0.58892 0.6322 0.82443 0.0
H932 H 0.62803 0.66363 0.81673 0.0
C933 C 0.58462 0.68685 0.76058 0.0
C934 C 0.59838 0.69885 0.75858 0.0
C935 C 0.58729 0.67064 0.77132 0.0
C936 C 0.61739 0.6544 0.81793 0.0
H937 H 0.58437 0.66419 0.91505 0.0
H938 H 0.60169 0.66164 0.8794 0.0
H939 H 0.6231 0.64993 0.8548 0.0
H940 H 0.62634 0.70203 0.76205 0.0
H941 H 0.63128 0.67327 0.77933 0.0
H942 H 0.58342 0.63628 0.78743 0.0
C943 C 0.59341 0.65071 0.8841 0.0
C944 C 0.61442 0.64668 0.84016 0.0
C945 C 0.58323 0.65234 0.90452 0.0
C946 C 0.61536 0.69324 0.76403 0.0
C947 C 0.61813 0.67676 0.77423 0.0
C948 C 0.59228 0.63939 0.8019 0.0
C949 C 0.59162 0.63615 0.86888 0.0
C950 C 0.59908 0.6371 0.84429 0.0
C951 C 0.60391 0.66584 0.77995 0.0
C952 C 0.60537 0.65217 0.79907 0.0
H953 H 0.56079 0.61399 0.9008 0.0
H954 H 0.57875 0.61105 0.86476 0.0
H955 H 0.57726 0.6244 0.82661 0.0
H956 H 0.57139 0.6906 0.75615 0.0
H957 H 0.57584 0.66285 0.77495 0.0
C958 C 0.57328 0.28298 0.13446 0.0
C959 C 0.58592 0.28608 0.15213 0.0
C960 C 0.57307 0.29276 0.1135 0.0
C961 C 0.57811 0.3105 0.06647 0.0
H962 H 0.57731 0.36066 0.07597 0.0
C963 C 0.54077 0.35065 1e-05 0.0
C964 C 0.52888 0.36197 0.0111 0.0
C965 C 0.5556 0.34498 0.01226 0.0
C966 C 0.57754 0.34669 0.07291 0.0
H967 H 0.60871 0.3015 0.16129 0.0
H968 H 0.60821 0.31889 0.12436 0.0
H969 H 0.58822 0.34172 0.10769 0.0
H970 H 0.52403 0.37773 0.04256 0.0
H971 H 0.54916 0.36717 0.06449 0.0
H972 H 0.56589 0.31498 0.03296 0.0
C973 C 0.59848 0.3088 0.12691 0.0
C974 C 0.58404 0.33584 0.09101 0.0
C975 C 0.5988 0.29882 0.14796 0.0
C976 C 0.53301 0.36898 0.03359 0.0
C977 C 0.54756 0.36291 0.04615 0.0
C978 C 0.57141 0.32125 0.04857 0.0
C979 C 0.58546 0.30598 0.10958 0.0
C980 C 0.58346 0.31757 0.08846 0.0
C981 C 0.55846 0.34998 0.03621 0.0
C982 C 0.57013 0.33945 0.05204 0.0
H983 H 0.56322 0.27322 0.13704 0.0
H984 H 0.56264 0.29043 0.10079 0.0
H985 H 0.57789 0.29648 0.06374 0.0
H986 H 0.53798 0.34526 0.98248 0.0
H987 H 0.56406 0.33561 0.00357 0.0
C988 C 0.87867 0.30788 0.26072 0.0
C989 C 0.86511 0.29612 0.26573 0.0
C990 C 0.87895 0.32439 0.27121 0.0
C991 C 0.86532 0.34207 0.32835 0.0
H992 H 0.89792 0.37792 0.30843 0.0
C993 C 0.90995 0.37176 0.39726 0.0
C994 C 0.92665 0.36573 0.3912 0.0
C995 C 0.89702 0.37308 0.37963 0.0
C996 C 0.88843 0.36833 0.31424 0.0
H997 H 0.84002 0.29327 0.28311 0.0
H998 H 0.84039 0.32231 0.30134 0.0
H999 H 0.88217 0.36103 0.27829 0.0
H1000 H 0.94361 0.35815 0.36215 0.0
H1001 H 0.92138 0.36093 0.33134 0.0
H1002 H 0.87242 0.34856 0.3642 0.0
C1003 C 0.85105 0.31859 0.28973 0.0
C1004 C 0.8795 0.35854 0.297 0.0
C1005 C 0.8508 0.30196 0.27921 0.0
C1006 C 0.93081 0.36289 0.36713 0.0
C1007 C 0.91807 0.3646 0.3495 0.0
C1008 C 0.87405 0.35202 0.34555 0.0
C1009 C 0.86564 0.3296 0.28698 0.0
C1010 C 0.86901 0.3443 0.30389 0.0
C1011 C 0.90081 0.36872 0.35573 0.0
C1012 C 0.88672 0.36425 0.33861 0.0
H1013 H 0.88976 0.30389 0.25005 0.0
H1014 H 0.89047 0.33234 0.26862 0.0
H1015 H 0.85731 0.33133 0.3345 0.0
H1016 H 0.90647 0.37386 0.41582 0.0
H1017 H 0.88381 0.37623 0.3849 0.0
C1018 C 0.90447 0.69931 0.67513 0.0
C1019 C 0.88754 0.70625 0.67596 0.0
C1020 C 0.90848 0.6856 0.65976 0.0
C1021 C 0.89782 0.66785 0.60233 0.0
H1022 H 0.93128 0.6329 0.62273 0.0
C1023 C 0.95726 0.62034 0.56515 0.0
C1024 C 0.96545 0.63336 0.55144 0.0
C1025 C 0.94158 0.62394 0.57701 0.0
C1026 C 0.92159 0.64215 0.61659 0.0
H1027 H 0.8614 0.70405 0.66151 0.0
H1028 H 0.86866 0.68014 0.63368 0.0
H1029 H 0.91475 0.64903 0.65246 0.0
H1030 H 0.96275 0.65962 0.53735 0.0
H1031 H 0.93579 0.66592 0.55802 0.0
H1032 H 0.90537 0.66162 0.56644 0.0
C1033 C 0.8787 0.68532 0.64535 0.0
C1034 C 0.91222 0.65153 0.6337 0.0
C1035 C 0.87457 0.69896 0.6612 0.0
C1036 C 0.95689 0.64939 0.54806 0.0
C1037 C 0.94125 0.65293 0.55973 0.0
C1038 C 0.90719 0.65842 0.58515 0.0
C1039 C 0.89573 0.67852 0.64456 0.0
C1040 C 0.90106 0.66518 0.62678 0.0
C1041 C 0.93377 0.64055 0.57519 0.0
C1042 C 0.91996 0.64624 0.59217 0.0
H1043 H 0.91475 0.7045 0.68639 0.0
H1044 H 0.92179 0.68091 0.65925 0.0
H1045 H 0.88924 0.67824 0.59648 0.0
H1046 H 0.9635 0.60781 0.56795 0.0
H1047 H 0.93604 0.61404 0.58857 0.0
C1048 C 0.5131 0.31466 0.57991 0.0
C1049 C 0.5197 0.3289 0.56693 0.0
C1050 C 0.52305 0.30678 0.59775 0.0
C1051 C 0.56731 0.29657 0.61314 0.0
H1052 H 0.54643 0.28093 0.67254 0.0
C1053 C 0.59949 0.24299 0.67146 0.0
C1054 C 0.58785 0.22947 0.67743 0.0
C1055 C 0.5932 0.25898 0.66275 0.0
C1056 C 0.5525 0.28524 0.65608 0.0
H1057 H 0.54177 0.34632 0.56275 0.0
H1058 H 0.55954 0.33204 0.59376 0.0
H1059 H 0.53134 0.30248 0.64794 0.0
H1060 H 0.56051 0.22248 0.68015 0.0
H1061 H 0.54965 0.25004 0.66499 0.0
H1062 H 0.58792 0.27847 0.62044 0.0
C1063 C 0.54652 0.32722 0.59018 0.0
C1064 C 0.54389 0.29762 0.64207 0.0
C1065 C 0.53636 0.33538 0.57255 0.0
C1066 C 0.56985 0.23257 0.67562 0.0
C1067 C 0.5636 0.24849 0.66712 0.0
C1068 C 0.57589 0.28405 0.62709 0.0
C1069 C 0.53995 0.31277 0.60283 0.0
C1070 C 0.55087 0.30288 0.62002 0.0
C1071 C 0.57517 0.26179 0.66013 0.0
C1072 C 0.5682 0.27771 0.64822 0.0
H1073 H 0.50027 0.30943 0.57607 0.0
H1074 H 0.51773 0.29553 0.60698 0.0
H1075 H 0.57293 0.30035 0.59614 0.0
H1076 H 0.61344 0.24101 0.67267 0.0
H1077 H 0.60244 0.26901 0.65765 0.0
C1078 C 0.94054 0.35417 0.93048 0.0
C1079 C 0.95282 0.36756 0.92717 0.0
C1080 C 0.92498 0.35414 0.91762 0.0
C1081 C 0.91272 0.36877 0.85791 0.0
H1082 H 0.87714 0.33385 0.86963 0.0
C1083 C 0.87222 0.31001 0.80605 0.0
C1084 C 0.88681 0.30375 0.79348 0.0
C1085 C 0.87377 0.32456 0.82122 0.0
C1086 C 0.88661 0.34399 0.86592 0.0
H1087 H 0.95726 0.39282 0.91079 0.0
H1088 H 0.92976 0.39305 0.88869 0.0
H1089 H 0.89 0.34951 0.90314 0.0
H1090 H 0.91411 0.3085 0.78573 0.0
H1091 H 0.91687 0.33337 0.812 0.0
H1092 H 0.90951 0.36303 0.82076 0.0
C1093 C 0.93244 0.3822 0.90055 0.0
C1094 C 0.89419 0.35284 0.88522 0.0
C1095 C 0.94815 0.38217 0.91339 0.0
C1096 C 0.90264 0.31286 0.79532 0.0
C1097 C 0.90415 0.32735 0.8102 0.0
C1098 C 0.90488 0.36021 0.83865 0.0
C1099 C 0.92126 0.36756 0.90117 0.0
C1100 C 0.90844 0.36416 0.88157 0.0
C1101 C 0.88988 0.3332 0.82377 0.0
C1102 C 0.89286 0.34665 0.84259 0.0
H1103 H 0.94361 0.34289 0.94139 0.0
H1104 H 0.91688 0.3426 0.91886 0.0
H1105 H 0.92343 0.37754 0.85409 0.0
H1106 H 0.85982 0.30328 0.8049 0.0
H1107 H 0.86252 0.32876 0.83139 0.0
C1108 C 0.94578 0.63162 0.07273 0.0
C1109 C 0.95023 0.64724 0.06093 0.0
C1110 C 0.93347 0.63173 0.09128 0.0
C1111 C 0.89828 0.65893 0.11733 0.0
H1112 H 0.91536 0.64357 0.17906 0.0
C1113 C 0.8752 0.69581 0.19698 0.0
C1114 C 0.88981 0.70272 0.20889 0.0
C1115 C 0.87671 0.68041 0.18359 0.0
C1116 C 0.91022 0.64776 0.16195 0.0
H1117 H 0.94482 0.67503 0.0587 0.0
H1118 H 0.92352 0.6752 0.0906 0.0
H1119 H 0.92983 0.63365 0.14264 0.0
H1120 H 0.91645 0.69736 0.21959 0.0
H1121 H 0.91929 0.67118 0.19593 0.0
H1122 H 0.87994 0.67449 0.1362 0.0
C1123 C 0.9294 0.66284 0.08563 0.0
C1124 C 0.91843 0.64192 0.14107 0.0
C1125 C 0.9418 0.66279 0.06751 0.0
C1126 C 0.90506 0.69261 0.21012 0.0
C1127 C 0.90662 0.67737 0.19661 0.0
C1128 C 0.8902 0.66489 0.13811 0.0
C1129 C 0.92516 0.64739 0.09787 0.0
C1130 C 0.91325 0.64844 0.11869 0.0
C1131 C 0.8929 0.67182 0.18169 0.0
C1132 C 0.89688 0.66039 0.16076 0.0
H1133 H 0.95209 0.61944 0.06801 0.0
H1134 H 0.93051 0.61967 0.10055 0.0
H1135 H 0.89376 0.66383 0.10022 0.0
H1136 H 0.86312 0.7031 0.19608 0.0
H1137 H 0.86565 0.67617 0.17301 0.0
C1138 C 0.59221 0.71492 0.35798 0.0
C1139 C 0.60243 0.70972 0.33845 0.0
C1140 C 0.58961 0.70365 0.37722 0.0
C1141 C 0.58811 0.6779 0.41845 0.0
H1142 H 0.56343 0.63832 0.39142 0.0
C1143 C 0.52722 0.62693 0.43782 0.0
C1144 C 0.51586 0.63991 0.44635 0.0
C1145 C 0.54452 0.63113 0.43212 0.0
C1146 C 0.5707 0.64887 0.39964 0.0
H1147 H 0.61882 0.68916 0.32421 0.0
H1148 H 0.61367 0.66902 0.35767 0.0
H1149 H 0.58345 0.65485 0.36664 0.0
H1150 H 0.51415 0.66683 0.45821 0.0
H1151 H 0.54386 0.6742 0.44812 0.0
H1152 H 0.57461 0.67253 0.45109 0.0
C1153 C 0.60799 0.68197 0.35823 0.0
C1154 C 0.58221 0.65839 0.38533 0.0
C1155 C 0.61094 0.69348 0.33916 0.0
C1156 C 0.52253 0.6566 0.45134 0.0
C1157 C 0.53972 0.66077 0.44578 0.0
C1158 C 0.57678 0.66824 0.43287 0.0
C1159 C 0.59686 0.68679 0.37707 0.0
C1160 C 0.5901 0.67365 0.39417 0.0
C1161 C 0.55071 0.64834 0.43501 0.0
C1162 C 0.567 0.65438 0.42311 0.0
H1163 H 0.58555 0.72741 0.35785 0.0
H1164 H 0.58079 0.70765 0.39132 0.0
H1165 H 0.59425 0.68949 0.42577 0.0
H1166 H 0.52245 0.6139 0.43394 0.0
H1167 H 0.55272 0.62118 0.42419 0.0
C1168 C 0.44603 0.36059 0.07367 0.0
C1169 C 0.44475 0.35232 0.05129 0.0
C1170 C 0.43647 0.35431 0.09318 0.0
C1171 C 0.39897 0.32812 0.11151 0.0
H1172 H 0.42927 0.30837 0.1599 0.0
C1173 C 0.37901 0.26892 0.16791 0.0
C1174 C 0.38819 0.26509 0.18895 0.0
C1175 C 0.38292 0.28401 0.15488 0.0
C1176 C 0.42039 0.31419 0.14715 0.0
H1177 H 0.43177 0.3318 0.03128 0.0
H1178 H 0.41473 0.32119 0.06518 0.0
H1179 H 0.44137 0.32749 0.12966 0.0
H1180 H 0.40719 0.27471 0.21438 0.0
H1181 H 0.41311 0.30168 0.19274 0.0
H1182 H 0.37794 0.31489 0.12881 0.0
C1183 C 0.42323 0.33236 0.0677 0.0
C1184 C 0.42744 0.32512 0.12969 0.0
C1185 C 0.43308 0.33833 0.0484 0.0
C1186 C 0.40011 0.27733 0.19799 0.0
C1187 C 0.40362 0.29268 0.18539 0.0
C1188 C 0.3918 0.31752 0.12934 0.0
C1189 C 0.42515 0.34003 0.09035 0.0
C1190 C 0.41691 0.33165 0.11127 0.0
C1191 C 0.39579 0.29579 0.16299 0.0
C1192 C 0.40254 0.30981 0.14688 0.0
H1193 H 0.45497 0.37138 0.07635 0.0
H1194 H 0.4382 0.36033 0.11057 0.0
H1195 H 0.3906 0.33313 0.09747 0.0
H1196 H 0.36982 0.25959 0.16053 0.0
H1197 H 0.37666 0.2857 0.13769 0.0
C1198 C 0.47679 0.67498 0.93364 0.0
C1199 C 0.48381 0.65819 0.93678 0.0
C1200 C 0.46185 0.67746 0.91984 0.0
C1201 C 0.42831 0.68016 0.89189 0.0
H1202 H 0.43513 0.65773 0.83043 0.0
C1203 C 0.39495 0.70518 0.80529 0.0
C1204 C 0.40735 0.70869 0.78741 0.0
C1205 C 0.39945 0.695 0.82522 0.0
C1206 C 0.43286 0.66393 0.84757 0.0
H1207 H 0.47981 0.63062 0.92959 0.0
H1208 H 0.45362 0.63496 0.90527 0.0
H1209 H 0.45121 0.64733 0.86513 0.0
H1210 H 0.43384 0.7036 0.77581 0.0
H1211 H 0.44158 0.68592 0.81019 0.0
H1212 H 0.41096 0.69765 0.87375 0.0
C1213 C 0.45982 0.64623 0.91337 0.0
C1214 C 0.44195 0.65786 0.86755 0.0
C1215 C 0.47477 0.64374 0.92738 0.0
C1216 C 0.42402 0.70125 0.78934 0.0
C1217 C 0.42841 0.69094 0.80895 0.0
C1218 C 0.4192 0.68623 0.87187 0.0
C1219 C 0.45358 0.66319 0.90873 0.0
C1220 C 0.44045 0.66647 0.88968 0.0
C1221 C 0.41629 0.6879 0.82729 0.0
C1222 C 0.42209 0.67873 0.84928 0.0
H1223 H 0.48334 0.68638 0.94085 0.0
H1224 H 0.45756 0.69072 0.9165 0.0
H1225 H 0.42666 0.68689 0.9088 0.0
H1226 H 0.38199 0.71074 0.80425 0.0
H1227 H 0.38987 0.69287 0.83913 0.0
C1228 C 0.11961 0.71273 0.68853 0.0
C1229 C 0.10983 0.71861 0.7081 0.0
C1230 C 0.11721 0.69581 0.67967 0.0
C1231 C 0.08124 0.66371 0.67854 0.0
H1232 H 0.11096 0.64266 0.63049 0.0
C1233 C 0.05201 0.62052 0.60546 0.0
C1234 C 0.05435 0.62916 0.58355 0.0
C1235 C 0.06269 0.62462 0.62503 0.0
C1236 C 0.10262 0.64815 0.64419 0.0
H1237 H 0.09173 0.71091 0.73581 0.0
H1238 H 0.08845 0.68099 0.72154 0.0
H1239 H 0.12359 0.66251 0.66004 0.0
H1240 H 0.07052 0.64748 0.56409 0.0
H1241 H 0.08938 0.65428 0.59792 0.0
H1242 H 0.06024 0.64971 0.66223 0.0
C1243 C 0.09722 0.68962 0.71204 0.0
C1244 C 0.10978 0.65969 0.66098 0.0
C1245 C 0.09922 0.70672 0.72043 0.0
C1246 C 0.06841 0.64073 0.58087 0.0
C1247 C 0.07929 0.6445 0.60018 0.0
C1248 C 0.07419 0.65193 0.6621 0.0
C1249 C 0.10525 0.6843 0.69059 0.0
C1250 C 0.09899 0.66844 0.67749 0.0
C1251 C 0.0761 0.63705 0.6227 0.0
C1252 C 0.08462 0.64479 0.64399 0.0
H1253 H 0.12786 0.72168 0.67866 0.0
H1254 H 0.12364 0.69241 0.66309 0.0
H1255 H 0.07233 0.67017 0.69063 0.0
H1256 H 0.04121 0.61158 0.60794 0.0
H1257 H 0.05995 0.61876 0.64226 0.0
C1258 C 0.01722 0.32257 0.42656 0.0
C1259 C 0.00975 0.33918 0.42946 0.0
C1260 C 0.03302 0.3206 0.41456 0.0
C1261 C 0.06743 0.31862 0.38887 0.0
H1262 H 0.06198 0.34236 0.32811 0.0
C1263 C 0.1002 0.29373 0.3018 0.0
C1264 C 0.08741 0.29046 0.28431 0.0
C1265 C 0.09625 0.30403 0.32185 0.0
C1266 C 0.06392 0.33583 0.34509 0.0
H1267 H 0.01381 0.36696 0.42423 0.0
H1268 H 0.04152 0.36352 0.40306 0.0
H1269 H 0.04558 0.35239 0.36265 0.0
H1270 H 0.06089 0.29614 0.27336 0.0
H1271 H 0.05413 0.31412 0.30786 0.0
H1272 H 0.08465 0.30111 0.37055 0.0
C1273 C 0.03503 0.35199 0.4099 0.0
C1274 C 0.05464 0.34167 0.36501 0.0
C1275 C 0.01921 0.35397 0.42212 0.0
C1276 C 0.07097 0.29831 0.28663 0.0
C1277 C 0.06716 0.30879 0.30629 0.0
C1278 C 0.07673 0.31276 0.3689 0.0
C1279 C 0.04169 0.33522 0.40505 0.0
C1280 C 0.05551 0.33251 0.38677 0.0
C1281 C 0.07962 0.31154 0.32434 0.0
C1282 C 0.07426 0.32072 0.34652 0.0
H1283 H 0.01034 0.31093 0.43227 0.0
H1284 H 0.03762 0.30748 0.41104 0.0
H1285 H 0.06863 0.31147 0.40552 0.0
H1286 H 0.11298 0.28781 0.30043 0.0
H1287 H 0.10606 0.30591 0.33557 0.0
C1288 C 0.42733 0.60945 0.37398 0.0
C1289 C 0.44256 0.61954 0.3759 0.0
C1290 C 0.41703 0.61045 0.35324 0.0
C1291 C 0.39196 0.63063 0.32133 0.0
H1292 H 0.41193 0.64883 0.26293 0.0
C1293 C 0.37084 0.6955 0.28531 0.0
C1294 C 0.3779 0.70178 0.26388 0.0
C1295 C 0.37303 0.67801 0.29175 0.0
C1296 C 0.40566 0.64351 0.27863 0.0
H1297 H 0.46006 0.63691 0.35708 0.0
H1298 H 0.44248 0.63873 0.32141 0.0
H1299 H 0.42848 0.62872 0.28691 0.0
H1300 H 0.39036 0.6944 0.23069 0.0
H1301 H 0.39281 0.66355 0.24081 0.0
H1302 H 0.36901 0.64515 0.31292 0.0
C1303 C 0.4382 0.62997 0.33542 0.0
C1304 C 0.41541 0.63203 0.29267 0.0
C1305 C 0.4483 0.62908 0.35605 0.0
C1306 C 0.38508 0.68987 0.24756 0.0
C1307 C 0.38669 0.67221 0.25359 0.0
C1308 C 0.38195 0.64168 0.30688 0.0
C1309 C 0.42196 0.62142 0.33416 0.0
C1310 C 0.40934 0.62682 0.31526 0.0
C1311 C 0.38196 0.66628 0.27657 0.0
C1312 C 0.38929 0.64961 0.28648 0.0
H1313 H 0.42264 0.602 0.38914 0.0
H1314 H 0.40474 0.6035 0.35275 0.0
H1315 H 0.38661 0.62659 0.33836 0.0
H1316 H 0.36524 0.70445 0.29822 0.0
H1317 H 0.36912 0.6743 0.30961 0.0
C1318 C 0.05099 0.65835 0.01688 0.0
C1319 C 0.03844 0.64589 0.02336 0.0
C1320 C 0.06708 0.6589 0.02857 0.0
C1321 C 0.09266 0.63801 0.07884 0.0
H1322 H 0.10089 0.68657 0.09515 0.0
C1323 C 0.10087 0.66469 0.17225 0.0
C1324 C 0.11076 0.67982 0.17638 0.0
C1325 C 0.10063 0.65693 0.1497 0.0
C1326 C 0.09925 0.67293 0.09044 0.0
H1327 H 0.03322 0.6234 0.04563 0.0
H1328 H 0.06069 0.62494 0.06715 0.0
H1329 H 0.08368 0.67957 0.06038 0.0
H1330 H 0.12925 0.69797 0.16098 0.0
H1331 H 0.1284 0.68467 0.12099 0.0
H1332 H 0.10685 0.63169 0.11079 0.0
C1333 C 0.05862 0.63398 0.05255 0.0
C1334 C 0.0893 0.66883 0.07031 0.0
C1335 C 0.04273 0.63311 0.0403 0.0
C1336 C 0.1216 0.68624 0.15818 0.0
C1337 C 0.12107 0.67867 0.13536 0.0
C1338 C 0.10238 0.64216 0.09929 0.0
C1339 C 0.07067 0.64745 0.04766 0.0
C1340 C 0.08507 0.65133 0.0649 0.0
C1341 C 0.10998 0.6644 0.13069 0.0
C1342 C 0.10501 0.65969 0.10588 0.0
H1343 H 0.04803 0.6682 0.00357 0.0
H1344 H 0.07624 0.66903 0.0236 0.0
H1345 H 0.09021 0.62438 0.07488 0.0
H1346 H 0.09244 0.65952 0.18609 0.0
H1347 H 0.09182 0.64608 0.14665 0.0
C1348 C 0.07585 0.25925 0.77775 0.0
C1349 C 0.09212 0.25119 0.78099 0.0
C1350 C 0.07366 0.27694 0.78288 0.0
C1351 C 0.08997 0.30909 0.82442 0.0
H1352 H 0.05499 0.33769 0.79321 0.0
C1353 C 0.05271 0.36029 0.87802 0.0
C1354 C 0.03499 0.35572 0.87761 0.0
C1355 C 0.06394 0.35409 0.86015 0.0
C1356 C 0.06502 0.33005 0.80197 0.0
H1357 H 0.11911 0.25557 0.7909 0.0
H1358 H 0.11516 0.2866 0.80036 0.0
H1359 H 0.06791 0.3131 0.77174 0.0
H1360 H 0.0147 0.34274 0.85737 0.0
H1361 H 0.034 0.33231 0.8261 0.0
H1362 H 0.08613 0.32517 0.85526 0.0
C1363 C 0.10414 0.27916 0.79374 0.0
C1364 C 0.07238 0.31595 0.78972 0.0
C1365 C 0.1064 0.26142 0.7883 0.0
C1366 C 0.02834 0.34639 0.85804 0.0
C1367 C 0.03942 0.34052 0.84003 0.0
C1368 C 0.08261 0.3232 0.83668 0.0
C1369 C 0.08764 0.287 0.79158 0.0
C1370 C 0.08413 0.3047 0.80135 0.0
C1371 C 0.05746 0.34359 0.84145 0.0
C1372 C 0.06928 0.33313 0.82607 0.0
H1373 H 0.06462 0.25176 0.77195 0.0
H1374 H 0.06071 0.28247 0.78135 0.0
H1375 H 0.09897 0.30067 0.83392 0.0
H1376 H 0.05811 0.3674 0.89307 0.0
H1377 H 0.07778 0.35668 0.86165 0.0
C1378 C 0.4252 0.35358 0.52196 0.0
C1379 C 0.44052 0.36146 0.53048 0.0
C1380 C 0.41003 0.35383 0.53575 0.0
C1381 C 0.39282 0.36747 0.59621 0.0
H1382 H 0.37851 0.31888 0.59766 0.0
C1383 C 0.38769 0.32656 0.6802 0.0
C1384 C 0.37555 0.31288 0.6818 0.0
C1385 C 0.38808 0.33734 0.66012 0.0
C1386 C 0.38188 0.33263 0.59728 0.0
H1387 H 0.45153 0.3775 0.55864 0.0
H1388 H 0.42558 0.3772 0.58324 0.0
H1389 H 0.39302 0.33015 0.56268 0.0
H1390 H 0.35351 0.30045 0.66442 0.0
H1391 H 0.35453 0.31907 0.62878 0.0
H1392 H 0.38308 0.36917 0.63208 0.0
C1393 C 0.42488 0.37113 0.56577 0.0
C1394 C 0.39023 0.3392 0.57706 0.0
C1395 C 0.4399 0.37126 0.55168 0.0
C1396 C 0.36306 0.31085 0.66359 0.0
C1397 C 0.36363 0.3215 0.64324 0.0
C1398 C 0.38467 0.36078 0.61662 0.0
C1399 C 0.41009 0.36147 0.55867 0.0
C1400 C 0.39671 0.35644 0.57675 0.0
C1401 C 0.37647 0.33452 0.64105 0.0
C1402 C 0.37997 0.34305 0.61776 0.0
H1403 H 0.42527 0.3462 0.50541 0.0
H1404 H 0.3987 0.34683 0.52924 0.0
H1405 H 0.39712 0.38095 0.59637 0.0
H1406 H 0.39735 0.32856 0.6941 0.0
H1407 H 0.39827 0.3471 0.65884 0.0
C1408 C 0.30228 0.23751 0.18174 0.0
C1409 C 0.31185 0.22681 0.19741 0.0
C1410 C 0.28461 0.2408 0.18588 0.0
C1411 C 0.24624 0.22438 0.21933 0.0
H1412 H 0.22894 0.27158 0.21072 0.0
C1413 C 0.17848 0.24507 0.25295 0.0
C1414 C 0.16816 0.25486 0.23708 0.0
C1415 C 0.19613 0.24225 0.24822 0.0
C1416 C 0.23354 0.25831 0.21301 0.0
H1417 H 0.31025 0.21095 0.2295 0.0
H1418 H 0.27957 0.21682 0.23682 0.0
H1419 H 0.2593 0.26493 0.20144 0.0
H1420 H 0.16847 0.26991 0.20419 0.0
H1421 H 0.1993 0.26498 0.19595 0.0
H1422 H 0.22054 0.21779 0.23106 0.0
C1423 C 0.28563 0.22251 0.22116 0.0
C1424 C 0.25092 0.25447 0.20763 0.0
C1425 C 0.30327 0.2192 0.21701 0.0
C1426 C 0.17604 0.26229 0.21678 0.0
C1427 C 0.19373 0.25952 0.2121 0.0
C1428 C 0.2289 0.22823 0.22478 0.0
C1429 C 0.27611 0.23347 0.20577 0.0
C1430 C 0.2575 0.23747 0.2108 0.0
C1431 C 0.20389 0.24921 0.22755 0.0
C1432 C 0.22237 0.24524 0.22178 0.0
H1433 H 0.30848 0.24355 0.16643 0.0
H1434 H 0.27759 0.24909 0.17347 0.0
H1435 H 0.25078 0.21108 0.2216 0.0
H1436 H 0.17285 0.23921 0.26879 0.0
H1437 H 0.20369 0.2345 0.26068 0.0
C1438 C 0.98111 0.9444 0.52193 0.0
C1439 C 0.97131 0.93346 0.50683 0.0
C1440 C 0.98536 0.96139 0.51485 0.0
C1441 C 0.98974 0.98943 0.4614 0.0
H1442 H 0.98821 0.027 0.50795 0.0
C1443 C -0.00048 0.06231 0.43615 0.0
C1444 C 0.00983 0.07237 0.45177 0.0
C1445 C -0.00542 0.04529 0.44233 0.0
C1446 C 0.98886 0.01662 0.49479 0.0
H1447 H 0.9582 0.93184 0.47249 0.0
H1448 H 0.96546 0.96156 0.46027 0.0
H1449 H 0.97979 -0.00245 0.51981 0.0
H1450 H 0.02324 0.07232 0.48599 0.0
H1451 H 0.01473 0.04269 0.49663 0.0
H1452 H -0.00119 0.00857 0.43638 0.0
C1453 C 0.97005 0.95692 0.47745 0.0
C1454 C 0.98405 -0.00026 0.50159 0.0
C1455 C 0.9658 0.93991 0.48452 0.0
C1456 C 0.01524 0.06498 0.47356 0.0
C1457 C 0.01027 0.04802 0.47975 0.0
C1458 C -0.00547 0.00635 0.45458 0.0
C1459 C 0.97989 0.96785 0.49253 0.0
C1460 C 0.98454 0.98591 0.48503 0.0
C1461 C -0.0002 0.03801 0.46429 0.0
C1462 C -0.00574 0.02011 0.47125 0.0
H1463 H 0.98562 0.93983 0.53919 0.0
H1464 H -0.00683 0.96937 0.52676 0.0
H1465 H 0.99048 0.97904 0.44828 0.0
H1466 H -0.00489 0.06761 0.41924 0.0
H1467 H 0.9864 0.03796 0.43012 0.0
C1468 C 0.31626 0.73701 0.72581 0.0
C1469 C 0.32442 0.74602 0.74468 0.0
C1470 C 0.29842 0.739 0.72156 0.0
C1471 C 0.26227 0.76976 0.73212 0.0
H1472 H 0.23335 0.73059 0.71296 0.0
C1473 C 0.18734 0.77487 0.72244 0.0
C1474 C 0.17949 0.76587 0.70331 0.0
C1475 C 0.20507 0.7727 0.72742 0.0
C1476 C 0.24129 0.74171 0.71801 0.0
H1477 H 0.32009 0.7638 0.77434 0.0
H1478 H 0.28891 0.76712 0.76706 0.0
H1479 H 0.26395 0.72575 0.72267 0.0
H1480 H 0.18426 0.74789 0.67402 0.0
H1481 H 0.21521 0.74428 0.68253 0.0
H1482 H 0.23962 0.78572 0.72739 0.0
C1483 C 0.29639 0.75872 0.75532 0.0
C1484 C 0.25883 0.73892 0.72363 0.0
C1485 C 0.31423 0.75671 0.7596 0.0
C1486 C 0.18987 0.75497 0.68894 0.0
C1487 C 0.20759 0.75279 0.69393 0.0
C1488 C 0.24473 0.77254 0.7265 0.0
C1489 C 0.28831 0.75006 0.73607 0.0
C1490 C 0.26954 0.75292 0.7307 0.0
C1491 C 0.21536 0.76147 0.7134 0.0
C1492 C 0.23404 0.75856 0.71932 0.0
H1493 H 0.32372 0.72869 0.71395 0.0
H1494 H 0.29265 0.73227 0.70645 0.0
H1495 H 0.27023 0.78088 0.73713 0.0
H1496 H 0.17972 0.78334 0.73391 0.0
H1497 H 0.21061 0.77946 0.74268 0.0
C1498 C 0.51261 0.04303 0.03729 0.0
C1499 C 0.52368 0.0524 0.02194 0.0
C1500 C 0.50766 0.0259 0.03179 0.0
C1501 C 0.50306 -0.00389 0.9803 0.0
H1502 H 0.49726 0.96076 0.02932 0.0
C1503 C 0.48467 0.92456 0.95817 0.0
C1504 C 0.47218 0.91662 0.97298 0.0
C1505 C 0.49177 0.94082 0.9642 0.0
C1506 C 0.49868 0.97054 0.01546 0.0
H1507 H 0.53879 0.05089 -0.01079 0.0
H1508 H 0.53036 0.02093 0.97982 0.0
H1509 H 0.5088 0.98943 0.04011 0.0
H1510 H 0.45728 0.91959 0.00571 0.0
H1511 H 0.46956 0.94798 0.01609 0.0
H1512 H 0.49284 0.97726 0.95569 0.0
C1513 C 0.52523 0.02694 -0.00412 0.0
C1514 C 0.5053 0.98696 0.02164 0.0
C1515 C 0.53016 0.04407 0.00136 0.0
C1516 C 0.4669 0.92532 -0.00609 0.0
C1517 C 0.47403 0.94155 -4e-05 0.0
C1518 C 0.49647 0.97968 0.97412 0.0
C1519 C 0.51371 0.01774 0.01084 0.0
C1520 C 0.50746 -1e-05 0.00416 0.0
C1521 C 0.48657 0.94947 0.98521 0.0
C1522 C 0.49409 0.96675 -0.00834 0.0
H1523 H 0.50735 0.04906 0.05326 0.0
H1524 H 0.49863 0.01927 0.04358 0.0
H1525 H 0.50428 0.00592 0.96646 0.0
H1526 H 0.48906 0.91819 0.94195 0.0
H1527 H 0.50153 0.9465 0.95257 0.0
C1528 C 0.17825 0.72111 0.26542 0.0
C1529 C 0.17099 0.72999 0.24577 0.0
C1530 C 0.19542 0.72443 0.27258 0.0
C1531 C 0.23079 0.75714 0.2679 0.0
H1532 H 0.2608 0.718 0.28342 0.0
C1533 C 0.30578 0.76283 0.27296 0.0
C1534 C 0.31475 0.75262 0.28986 0.0
C1535 C 0.28776 0.76112 0.2701 0.0
C1536 C 0.25254 0.72912 0.27955 0.0
H1537 H 0.17608 0.74935 0.21832 0.0
H1538 H 0.20602 0.75501 0.2307 0.0
H1539 H 0.23034 0.71276 0.27337 0.0
H1540 H 0.31166 0.73322 0.31782 0.0
H1541 H 0.28019 0.73043 0.31306 0.0
H1542 H 0.25305 0.77349 0.27385 0.0
C1543 C 0.19839 0.74564 0.24074 0.0
C1544 C 0.23507 0.7261 0.27374 0.0
C1545 C 0.18125 0.74229 0.23353 0.0
C1546 C 0.30518 0.74121 0.30453 0.0
C1547 C 0.28714 0.73951 0.30168 0.0
C1548 C 0.24826 0.76017 0.27376 0.0
C1549 C 0.20568 0.73673 0.26032 0.0
C1550 C 0.22404 0.74006 0.26761 0.0
C1551 C 0.27827 0.74918 0.28409 0.0
C1552 C 0.2594 0.74617 0.27943 0.0
H1553 H 0.17069 0.7116 0.2753 0.0
H1554 H 0.20059 0.71747 0.28789 0.0
H1555 H 0.22256 0.76821 0.26364 0.0
H1556 H 0.31274 0.77174 0.26135 0.0
H1557 H 0.28139 0.76866 0.25623 0.0
C1558 C 0.49723 0.93868 0.45949 0.0
C1559 C 0.50955 0.92987 0.47368 0.0
C1560 C 0.49231 0.95582 0.46499 0.0
C1561 C 0.49236 0.98834 0.51418 0.0
H1562 H 0.48881 0.02206 0.46267 0.0
C1563 C 0.49253 0.06292 0.52993 0.0
C1564 C 0.48205 0.07343 0.51517 0.0
C1565 C 0.4939 0.04496 0.52575 0.0
C1566 C 0.48946 0.01276 0.47724 0.0
H1567 H 0.52628 0.93216 0.50487 0.0
H1568 H 0.51785 0.96204 0.51425 0.0
H1569 H 0.49507 0.99158 0.45345 0.0
H1570 H 0.46421 0.07319 0.48501 0.0
H1571 H 0.46647 0.04181 0.47789 0.0
H1572 H 0.48702 0.00961 0.53799 0.0
C1573 C 0.51181 0.95565 0.49906 0.0
C1574 C 0.49307 -0.00472 0.47195 0.0
C1575 C 0.51674 0.93854 0.49357 0.0
C1576 C 0.47247 0.06548 0.49665 0.0
C1577 C 0.47385 0.04752 0.49246 0.0
C1578 C 0.48876 0.00583 0.51947 0.0
C1579 C 0.49957 0.96452 0.48482 0.0
C1580 C 0.49475 0.9829 0.49037 0.0
C1581 C 0.48481 0.03709 0.50672 0.0
C1582 C 0.48745 0.01829 0.50108 0.0
H1583 H 0.49139 0.93236 0.4441 0.0
H1584 H 0.48271 0.96222 0.4538 0.0
H1585 H 0.49328 0.97908 0.52876 0.0
H1586 H 0.5001 0.06861 0.54434 0.0
H1587 H 0.50258 0.03735 0.53693 0.0
C1588 C 0.17808 0.20706 0.75624 0.0
C1589 C 0.17 0.21523 0.77585 0.0
C1590 C 0.19541 0.2108 0.7505 0.0
C1591 C 0.23605 0.22929 0.77561 0.0
H1592 H 0.24825 0.2366 0.70905 0.0
C1593 C 0.30149 0.25974 0.74791 0.0
C1594 C 0.31033 0.25218 0.72847 0.0
C1595 C 0.28443 0.25481 0.75329 0.0
C1596 C 0.2451 0.2344 0.72768 0.0
H1597 H 0.17388 0.2336 0.80496 0.0
H1598 H 0.20403 0.24023 0.79483 0.0
H1599 H 0.21848 0.22843 0.71954 0.0
H1600 H 0.30804 0.23368 0.69921 0.0
H1601 H 0.27819 0.22502 0.70868 0.0
H1602 H 0.26261 0.23537 0.78377 0.0
C1603 C 0.19704 0.23077 0.78405 0.0
C1604 C 0.22805 0.2297 0.7337 0.0
C1605 C 0.17971 0.22703 0.78979 0.0
C1606 C 0.30159 0.23977 0.71428 0.0
C1607 C 0.28447 0.23485 0.71965 0.0
C1608 C 0.25307 0.23399 0.76959 0.0
C1609 C 0.20505 0.22279 0.76424 0.0
C1610 C 0.2233 0.2272 0.75775 0.0
C1611 C 0.27577 0.24221 0.73936 0.0
C1612 C 0.25777 0.23672 0.74558 0.0
H1613 H 0.17098 0.19785 0.74517 0.0
H1614 H 0.20127 0.20425 0.73533 0.0
H1615 H 0.2329 0.22717 0.79426 0.0
H1616 H 0.3078 0.2694 0.75916 0.0
H1617 H 0.27798 0.26095 0.76833 0.0
C1618 C -0.00534 0.05192 0.9733 0.0
C1619 C 0.98326 0.06132 -0.01183 0.0
C1620 C -0.00262 0.03405 0.97694 0.0
C1621 C -0.00568 0.00044 0.02396 0.0
H1622 H -0.00078 0.96803 0.97105 0.0
C1623 C -0.00164 0.92563 0.03719 0.0
C1624 C 0.01006 0.91633 0.02264 0.0
C1625 C -0.00474 0.94339 0.03318 0.0
C1626 C -0.00192 0.97696 0.98601 0.0
H1627 H 0.9653 0.05919 0.01799 0.0
H1628 H 0.96989 0.02801 0.02411 0.0
H1629 H -0.00722 -0.00131 0.96303 0.0
H1630 H 0.02802 0.91852 -0.00718 0.0
H1631 H 0.02274 0.94953 0.98602 0.0
H1632 H -0.00036 0.97873 0.04694 0.0
C1633 C 0.97697 0.03451 0.00992 0.0
C1634 C -0.00563 -0.00548 0.98141 0.0
C1635 C 0.97424 0.05236 0.00629 0.0
C1636 C 0.01887 0.92527 0.00432 0.0
C1637 C 0.01576 0.94302 0.00029 0.0
C1638 C -0.00197 0.98289 0.02856 0.0
C1639 C 0.98876 0.0252 -0.00448 0.0
C1640 C 0.99244 0.00646 0.00033 0.0
C1641 C 0.00378 0.95224 0.01452 0.0
C1642 C -3e-05 0.97094 0.00964 0.0
H1643 H 0.00184 0.05843 0.95921 0.0
H1644 H 0.00666 0.0273 0.96565 0.0
H1645 H -0.00678 0.00936 0.03893 0.0
H1646 H 0.99132 0.91913 0.05143 0.0
H1647 H 0.98583 0.95007 0.04432 0.0
C1648 C 0.79935 0.73381 0.74273 0.0
C1649 C 0.80542 0.74383 0.72338 0.0
C1650 C 0.78175 0.73421 0.74923 0.0
C1651 C 0.7379 0.74678 0.72677 0.0
H1652 H 0.72604 0.74767 0.79419 0.0
C1653 C 0.66851 0.76253 0.75897 0.0
C1654 C 0.66141 0.75118 0.77617 0.0
C1655 C 0.68625 0.76194 0.75348 0.0
C1656 C 0.72915 0.7473 0.7753 0.0
H1657 H 0.79769 0.76197 0.69551 0.0
H1658 H 0.76716 0.76291 0.70706 0.0
H1659 H 0.75654 0.74543 0.78217 0.0
H1660 H 0.66757 0.73084 0.80184 0.0
H1661 H 0.69862 0.72992 0.79234 0.0
H1662 H 0.71053 0.74889 0.71994 0.0
C1663 C 0.77589 0.75449 0.717 0.0
C1664 C 0.74662 0.74595 0.76839 0.0
C1665 C 0.79345 0.75402 0.71043 0.0
C1666 C 0.67261 0.73975 0.78848 0.0
C1667 C 0.69041 0.73924 0.78309 0.0
C1668 C 0.72048 0.74826 0.73368 0.0
C1669 C 0.76983 0.7447 0.7366 0.0
C1670 C 0.75122 0.74571 0.74402 0.0
C1671 C 0.69734 0.75008 0.76518 0.0
C1672 C 0.71591 0.74859 0.75802 0.0
H1673 H 0.80822 0.72577 0.75302 0.0
H1674 H 0.7775 0.72627 0.76415 0.0
H1675 H 0.74091 0.7463 0.70786 0.0
H1676 H 0.66028 0.77154 0.74919 0.0
H1677 H 0.69128 0.77065 0.73987 0.0
C1678 C 0.66653 0.24458 0.21536 0.0
C1679 C 0.65493 0.25625 0.22645 0.0
C1680 C 0.68372 0.24316 0.22334 0.0
C1681 C 0.718 0.26648 0.25641 0.0
H1682 H 0.73831 0.22027 0.26242 0.0
C1683 C 0.78814 0.25657 0.29124 0.0
C1684 C 0.79842 0.24487 0.27796 0.0
C1685 C 0.77011 0.25732 0.28767 0.0
C1686 C 0.73287 0.23327 0.2607 0.0
H1687 H 0.65237 0.27581 0.25436 0.0
H1688 H 0.68247 0.27334 0.26823 0.0
H1689 H 0.70795 0.22329 0.25016 0.0
H1690 H 0.79774 0.22432 0.25119 0.0
H1691 H 0.76645 0.22575 0.24481 0.0
H1692 H 0.74301 0.27649 0.26644 0.0
C1693 C 0.67823 0.26534 0.25333 0.0
C1694 C 0.71549 0.235 0.25366 0.0
C1695 C 0.66099 0.2667 0.24542 0.0
C1696 C 0.79022 0.23348 0.26173 0.0
C1697 C 0.77223 0.23424 0.25816 0.0
C1698 C 0.73542 0.26476 0.26337 0.0
C1699 C 0.68973 0.25342 0.24251 0.0
C1700 C 0.70793 0.25162 0.25114 0.0
C1701 C 0.76199 0.24637 0.27077 0.0
C1702 C 0.74312 0.24814 0.26531 0.0
H1703 H 0.6623 0.23636 0.20068 0.0
H1704 H 0.69235 0.23407 0.21439 0.0
H1705 H 0.71259 0.27947 0.25442 0.0
H1706 H 0.79405 0.26548 0.30395 0.0
H1707 H 0.76255 0.26662 0.29793 0.0
C1708 C 0.68047 0.20631 0.72298 0.0
C1709 C 0.67444 0.21026 0.69984 0.0
C1710 C 0.69698 0.21172 0.73049 0.0
C1711 C 0.73242 0.24306 0.71678 0.0
H1712 H 0.76056 0.21084 0.75387 0.0
C1713 C 0.80603 0.25352 0.73452 0.0
C1714 C 0.81253 0.24903 0.75723 0.0
C1715 C 0.78876 0.2498 0.72833 0.0
C1716 C 0.75279 0.22009 0.7438 0.0
H1717 H 0.68107 0.22308 0.66648 0.0
H1718 H 0.71002 0.23232 0.67947 0.0
H1719 H 0.73141 0.20225 0.74125 0.0
H1720 H 0.80581 0.23756 0.79148 0.0
H1721 H 0.77566 0.23118 0.7807 0.0
H1722 H 0.75396 0.26082 0.71914 0.0
C1723 C 0.70186 0.22524 0.69194 0.0
C1724 C 0.73606 0.21517 0.73655 0.0
C1725 C 0.6853 0.21984 0.68443 0.0
C1726 C 0.80125 0.24113 0.77381 0.0
C1727 C 0.78399 0.23737 0.76758 0.0
C1728 C 0.74919 0.24798 0.724 0.0
C1729 C 0.70792 0.22118 0.71504 0.0
C1730 C 0.72567 0.22657 0.72292 0.0
C1731 C 0.77761 0.24147 0.74468 0.0
C1732 C 0.75958 0.23653 0.73756 0.0
H1733 H 0.67241 0.19903 0.73537 0.0
H1734 H 0.70112 0.20861 0.74852 0.0
H1735 H 0.72468 0.25227 0.70661 0.0
H1736 H 0.81436 0.25962 0.72131 0.0
H1737 H 0.7843 0.25299 0.71046 0.0
C1738 C 0.81061 0.76008 0.23183 0.0
C1739 C 0.81715 0.74957 0.21326 0.0
C1740 C 0.79299 0.75942 0.23801 0.0
C1741 C 0.75438 0.73084 0.23411 0.0
H1742 H 0.72936 0.77308 0.25109 0.0
C1743 C 0.68005 0.73192 0.25096 0.0
C1744 C 0.674 0.74225 0.27004 0.0
C1745 C 0.69751 0.73265 0.24395 0.0
C1746 C 0.73622 0.76115 0.24666 0.0
H1747 H 0.81021 0.73036 0.18631 0.0
H1748 H 0.77939 0.72936 0.19695 0.0
H1749 H 0.75965 0.77501 0.23825 0.0
H1750 H 0.68164 0.76122 0.29696 0.0
H1751 H 0.71213 0.76235 0.28483 0.0
H1752 H 0.73094 0.71699 0.24255 0.0
C1753 C 0.78797 0.73793 0.20695 0.0
C1754 C 0.75357 0.76225 0.23927 0.0
C1755 C 0.80561 0.73859 0.20075 0.0
C1756 C 0.68585 0.75313 0.28215 0.0
C1757 C 0.70331 0.75387 0.2751 0.0
C1758 C 0.73702 0.72974 0.24148 0.0
C1759 C 0.78149 0.74824 0.22578 0.0
C1760 C 0.76288 0.74711 0.23299 0.0
C1761 C 0.70931 0.74373 0.25581 0.0
C1762 C 0.72776 0.74487 0.24792 0.0
H1763 H 0.81915 0.76866 0.24188 0.0
H1764 H 0.78848 0.76738 0.25278 0.0
H1765 H 0.76126 0.7189 0.22976 0.0
H1766 H 0.67125 0.72342 0.24122 0.0
H1767 H 0.70168 0.7248 0.22887 0.0
C1768 C 0.49941 0.44621 0.03357 0.0
C1769 C 0.48706 0.43702 0.01986 0.0
C1770 C 0.50171 0.46419 0.03037 0.0
C1771 C 0.48134 0.50366 0.00344 0.0
H1772 H 0.52907 0.52002 -0.00098 0.0
C1773 C 0.49971 0.56934 0.95963 0.0
C1774 C 0.51245 0.57957 0.97109 0.0
C1775 C 0.49621 0.55236 0.9675 0.0
C1776 C 0.51567 0.51571 0.0005 0.0
H1777 H 0.46697 0.43966 -0.00729 0.0
H1778 H 0.47114 0.47084 0.98695 0.0
H1779 H 0.52331 0.48981 0.01031 0.0
H1780 H 0.53153 0.57998 -0.00022 0.0
H1781 H 0.52543 0.55034 0.01345 0.0
H1782 H 0.47375 0.5295 -0.00691 0.0
C1783 C 0.47894 0.46425 0.00036 0.0
C1784 C 0.51235 0.49841 0.00704 0.0
C1785 C 0.47662 0.44631 0.00357 0.0
C1786 C 0.52166 0.57243 -0.00947 0.0
C1787 C 0.51822 0.55543 -0.00169 0.0
C1788 C 0.48466 0.52094 -0.00319 0.0
C1789 C 0.49171 0.47336 0.01342 0.0
C1790 C 0.49515 0.49212 0.00834 0.0
C1791 C 0.50543 0.54522 0.98692 0.0
C1792 C 0.50187 0.5271 -0.00498 0.0
H1793 H 0.5076 0.43945 0.04635 0.0
H1794 H 0.51148 0.47088 0.04098 0.0
H1795 H 0.46793 0.49932 0.00465 0.0
H1796 H 0.49238 0.57444 0.94461 0.0
H1797 H 0.48644 0.54473 0.95816 0.0
C1798 C 0.96908 0.4206 0.48967 0.0
C1799 C 0.978 0.41483 0.46918 0.0
C1800 C 0.97215 0.43729 0.49901 0.0
C1801 C 0.98963 0.48054 0.48164 0.0
H1802 H 0.99144 0.48879 0.55007 0.0
C1803 C 0.01228 0.54626 0.52002 0.0
C1804 C 0.00196 0.55368 0.53814 0.0
C1805 C 0.00976 0.52894 0.51297 0.0
C1806 C 0.99083 0.48669 0.53093 0.0
H1807 H -0.00256 0.42193 0.44276 0.0
H1808 H 0.00302 0.45082 0.45925 0.0
H1809 H 0.98622 0.45924 0.535 0.0
H1810 H 0.98133 0.54849 0.56368 0.0
H1811 H 0.97695 0.51813 0.55129 0.0
H1812 H -0.00566 0.50792 0.47753 0.0
C1813 C -0.00663 0.44263 0.46784 0.0
C1814 C 0.98781 0.46978 0.52228 0.0
C1815 C 0.99023 0.42601 0.45845 0.0
C1816 C 0.98948 0.54317 0.54964 0.0
C1817 C 0.98701 0.52578 0.54262 0.0
C1818 C -0.00727 0.49738 0.49027 0.0
C1819 C 0.98427 0.44855 0.48811 0.0
C1820 C 0.98726 0.4665 0.49751 0.0
C1821 C -0.00309 0.5186 0.52388 0.0
C1822 C -0.00655 0.50064 0.51499 0.0
H1823 H 0.95954 0.41231 0.49835 0.0
H1824 H 0.96478 0.44149 0.51449 0.0
H1825 H 0.9889 0.47859 0.46248 0.0
H1826 H 0.02209 0.55392 0.51087 0.0
H1827 H 0.0178 0.52369 0.49877 0.0
C1828 C -0.00262 0.44613 0.92454 0.0
C1829 C 0.0061 0.43376 0.93876 0.0
C1830 C -0.00353 0.46362 0.93167 0.0
C1831 C -0.00114 0.49114 0.98565 0.0
H1832 H 0.00328 0.52916 0.94024 0.0
C1833 C 0.00144 0.56356 0.01487 0.0
C1834 C 0.9924 0.57572 0.00071 0.0
C1835 C 0.00321 0.54622 0.00735 0.0
C1836 C 0.00182 0.51868 0.9531 0.0
H1837 H 0.02118 0.43019 0.97127 0.0
H1838 H 0.01972 0.46071 0.98356 0.0
H1839 H 0.00683 0.49907 0.92664 0.0
H1840 H 0.97784 0.57913 0.96773 0.0
H1841 H 0.98075 0.54885 0.95479 0.0
H1842 H -0.00624 0.51072 0.01208 0.0
C1843 C 0.01336 0.45683 0.96708 0.0
C1844 C 0.00388 0.50144 0.9453 0.0
C1845 C 0.01429 0.43936 0.95994 0.0
C1846 C 0.98494 0.57011 0.97904 0.0
C1847 C 0.98671 0.55278 0.97153 0.0
C1848 C -0.00322 0.50837 -0.00657 0.0
C1849 C 0.00424 0.46912 0.9532 0.0
C1850 C 0.00241 0.48748 0.96149 0.0
C1851 C -0.00402 0.54066 0.98551 0.0
C1852 C -0.00179 0.52234 0.97724 0.0
H1853 H 0.99092 0.44226 0.90814 0.0
H1854 H 0.98923 0.47273 0.92067 0.0
H1855 H -0.00265 0.48066 -0.00151 0.0
H1856 H 0.00739 0.56746 0.03163 0.0
H1857 H 0.01058 0.53727 0.01843 0.0
C1858 C 0.48846 0.43258 0.53805 0.0
C1859 C 0.49909 0.42047 0.52604 0.0
C1860 C 0.48839 0.45018 0.5313 0.0
C1861 C 0.49738 0.47757 0.47864 0.0
H1862 H 0.49091 0.51589 0.52316 0.0
C1863 C 0.49528 0.54959 0.44782 0.0
C1864 C 0.48243 0.56024 0.45819 0.0
C1865 C 0.49852 0.53285 0.45679 0.0
C1866 C 0.49258 0.5053 0.5105 0.0
H1867 H 0.51882 0.41757 0.49855 0.0
H1868 H 0.51892 0.44829 0.4871 0.0
H1869 H 0.4953 0.48632 0.5384 0.0
H1870 H 0.46287 0.56164 0.48614 0.0
H1871 H 0.46842 0.53239 0.50162 0.0
H1872 H 0.49448 0.49648 0.45076 0.0
C1873 C 0.51033 0.44411 0.50135 0.0
C1874 C 0.49512 0.48837 0.51923 0.0
C1875 C 0.51036 0.42652 0.50804 0.0
C1876 C 0.47287 0.55378 0.47773 0.0
C1877 C 0.47615 0.53706 0.48673 0.0
C1878 C 0.49488 0.49448 0.46993 0.0
C1879 C 0.499 0.45606 0.51245 0.0
C1880 C 0.49742 0.47427 0.5034 0.0
C1881 C 0.48901 0.5264 0.47637 0.0
C1882 C 0.4923 0.50853 0.48574 0.0
H1883 H 0.47961 0.42837 0.55199 0.0
H1884 H 0.47942 0.45898 0.54014 0.0
H1885 H 0.49877 0.46698 0.46591 0.0
H1886 H 0.50293 0.55418 0.43281 0.0
H1887 H 0.50865 0.52504 0.44856 0.0
C1888 C 0.02327 0.33264 0.01532 0.0
C1889 C 0.02827 0.34772 0.00282 0.0
C1890 C 0.03166 0.32798 0.03642 0.0
C1891 C 0.07255 0.32897 0.06707 0.0
H1892 H 0.04432 0.3144 0.121 0.0
C1893 C 0.09765 0.29428 0.15489 0.0
C1894 C 0.08726 0.2799 0.16144 0.0
C1895 C 0.0926 0.30508 0.13582 0.0
C1896 C 0.0524 0.31848 0.10613 0.0
H1897 H 0.04594 0.36985 0.00259 0.0
H1898 H 0.06108 0.36133 0.03969 0.0
H1899 H 0.0308 0.33013 0.08797 0.0
H1900 H 0.06442 0.26465 0.15193 0.0
H1901 H 0.05583 0.28324 0.11882 0.0
H1902 H 0.09402 0.31646 0.08494 0.0
C1903 C 0.05047 0.35331 0.03305 0.0
C1904 C 0.04468 0.32753 0.08733 0.0
C1905 C 0.04178 0.35821 0.01201 0.0
C1906 C 0.07254 0.2758 0.14759 0.0
C1907 C 0.06755 0.28649 0.1287 0.0
C1908 C 0.08032 0.31981 0.086 0.0
C1909 C 0.04542 0.33815 0.04539 0.0
C1910 C 0.05452 0.33226 0.06724 0.0
C1911 C 0.07713 0.30159 0.1232 0.0
C1912 C 0.0701 0.31387 0.10519 0.0
H1913 H 0.01288 0.32433 0.0087 0.0
H1914 H 0.02765 0.31612 0.04548 0.0
H1915 H 0.08036 0.33245 0.05167 0.0
H1916 H 0.10906 0.29775 0.16529 0.0
H1917 H 0.10026 0.3166 0.13175 0.0
C1918 C 0.91436 0.79063 0.28436 0.0
C1919 C 0.89778 0.78679 0.27501 0.0
C1920 C 0.91616 0.80143 0.30429 0.0
C1921 C 0.89243 0.81665 0.35708 0.0
H1922 H 0.93282 0.84683 0.36359 0.0
C1923 C 0.922 0.83359 0.44775 0.0
C1924 C 0.92962 0.85005 0.45166 0.0
C1925 C 0.91548 0.82907 0.42533 0.0
C1926 C 0.92128 0.83875 0.36196 0.0
H1927 H 0.87007 0.79153 0.2791 0.0
H1928 H 0.87324 0.81053 0.31403 0.0
H1929 H 0.92631 0.83346 0.32503 0.0
H1930 H 0.93594 0.8749 0.43515 0.0
H1931 H 0.92447 0.86695 0.3957 0.0
H1932 H 0.8875 0.8218 0.39406 0.0
C1933 C 0.88483 0.80502 0.30596 0.0
C1934 C 0.91768 0.8309 0.33994 0.0
C1935 C 0.88302 0.79415 0.28596 0.0
C1936 C 0.93021 0.86209 0.43268 0.0
C1937 C 0.92368 0.85752 0.41011 0.0
C1938 C 0.89599 0.82455 0.37906 0.0
C1939 C 0.90144 0.80873 0.31537 0.0
C1940 C 0.90357 0.81928 0.33748 0.0
C1941 C 0.91638 0.84089 0.40618 0.0
C1942 C 0.91081 0.83518 0.38197 0.0
H1943 H 0.92603 0.78518 0.27642 0.0
H1944 H 0.92912 0.80369 0.31136 0.0
H1945 H 0.88147 0.80776 0.35583 0.0
H1946 H 0.92128 0.82398 0.46194 0.0
H1947 H 0.91026 0.81604 0.42285 0.0
C1948 C 0.38449 0.70679 0.65763 0.0
C1949 C 0.39923 0.71633 0.66505 0.0
C1950 C 0.38553 0.69539 0.63806 0.0
C1951 C 0.39072 0.68012 0.58724 0.0
H1952 H 0.43302 0.65252 0.58298 0.0
C1953 C 0.42038 0.65681 0.49921 0.0
C1954 C 0.43053 0.64153 0.49859 0.0
C1955 C 0.41243 0.66218 0.52037 0.0
C1956 C 0.42094 0.65979 0.58406 0.0
H1957 H 0.42637 0.72193 0.65707 0.0
H1958 H 0.42808 0.70226 0.6231 0.0
H1959 H 0.42745 0.66983 0.61863 0.0
H1960 H 0.43912 0.61912 0.5192 0.0
H1961 H 0.42516 0.62855 0.55634 0.0
H1962 H 0.38447 0.6704 0.5523 0.0
C1963 C 0.41583 0.70331 0.63263 0.0
C1964 C 0.41787 0.66991 0.60437 0.0
C1965 C 0.41479 0.71471 0.652 0.0
C1966 C 0.4315 0.63103 0.51916 0.0
C1967 C 0.42357 0.63646 0.54044 0.0
C1968 C 0.39382 0.67 0.56682 0.0
C1969 C 0.40135 0.69327 0.62575 0.0
C1970 C 0.40306 0.68064 0.6058 0.0
C1971 C 0.41447 0.65242 0.54145 0.0
C1972 C 0.40925 0.66018 0.5647 0.0
H1973 H 0.37231 0.70774 0.66731 0.0
H1974 H 0.37415 0.68785 0.63303 0.0
H1975 H 0.37916 0.68822 0.58793 0.0
H1976 H 0.41921 0.6651 0.48359 0.0
H1977 H 0.40566 0.6746 0.52052 0.0
C1978 C 0.61541 0.15993 0.77614 0.0
C1979 C 0.6018 0.15779 0.75955 0.0
C1980 C 0.61372 0.15352 0.79949 0.0
C1981 C 0.58622 0.12443 0.83762 0.0
H1982 H 0.59786 0.15753 0.88765 0.0
C1983 C 0.56565 0.11421 0.93657 0.0
C1984 C 0.55875 0.12918 0.94765 0.0
C1985 C 0.57409 0.11552 0.91443 0.0
C1986 C 0.59456 0.14812 0.87389 0.0
H1987 H 0.57602 0.14665 0.75423 0.0
H1988 H 0.57299 0.13591 0.79467 0.0
H1989 H 0.60714 0.16323 0.84681 0.0
H1990 H 0.5551 0.15721 0.944 0.0
H1991 H 0.56936 0.15938 0.90553 0.0
H1992 H 0.57264 0.10992 0.86449 0.0
C1993 C 0.58509 0.14225 0.78974 0.0
C1994 C 0.60009 0.15127 0.85051 0.0
C1995 C 0.58676 0.14861 0.76654 0.0
C1996 C 0.56034 0.1454 0.93608 0.0
C1997 C 0.56871 0.14669 0.91407 0.0
C1998 C 0.58059 0.12134 0.861 0.0
C1999 C 0.59842 0.14482 0.80662 0.0
C2000 C 0.59546 0.13978 0.83195 0.0
C2001 C 0.57579 0.13182 0.90303 0.0
C2002 C 0.58417 0.13348 0.87921 0.0
H2003 H 0.6272 0.16685 0.77127 0.0
H2004 H 0.62429 0.15558 0.81204 0.0
H2005 H 0.58273 0.11514 0.8238 0.0
H2006 H 0.5647 0.10153 0.94507 0.0
H2007 H 0.57945 0.10382 0.90637 0.0
C2008 C 0.02627 0.63557 0.44353 0.0
C2009 C 0.03387 0.62558 0.46176 0.0
C2010 C 0.03448 0.63714 0.42144 0.0
C2011 C 0.07665 0.64197 0.39719 0.0
H2012 H 0.05226 0.64003 0.33647 0.0
C2013 C 0.1016 0.67559 0.30964 0.0
C2014 C 0.08847 0.68494 0.29762 0.0
C2015 C 0.0973 0.66443 0.32866 0.0
C2016 C 0.05931 0.64057 0.35327 0.0
H2017 H 0.05565 0.60899 0.47132 0.0
H2018 H 0.07052 0.61233 0.43257 0.0
H2019 H 0.03969 0.62578 0.37145 0.0
H2020 H 0.06074 0.69065 0.29692 0.0
H2021 H 0.05342 0.67166 0.32996 0.0
H2022 H 0.09561 0.65795 0.37942 0.0
C2023 C 0.05801 0.61856 0.43533 0.0
C2024 C 0.05217 0.63231 0.37317 0.0
C2025 C 0.0495 0.61659 0.45732 0.0
C2026 C 0.07116 0.68346 0.30554 0.0
C2027 C 0.06692 0.67242 0.32437 0.0
C2028 C 0.08374 0.65042 0.37725 0.0
C2029 C 0.05067 0.6291 0.4174 0.0
C2030 C 0.0604 0.63357 0.3955 0.0
C2031 C 0.07983 0.66247 0.3358 0.0
C2032 C 0.07468 0.65049 0.3554 0.0
H2033 H 0.01427 0.64267 0.44666 0.0
H2034 H 0.02867 0.64549 0.40798 0.0
H2035 H 0.08316 0.64321 0.41432 0.0
H2036 H 0.11504 0.67645 0.30389 0.0
H2037 H 0.10753 0.65701 0.33733 0.0
C2038 C 0.57017 0.78938 0.69173 0.0
C2039 C 0.58501 0.78783 0.70633 0.0
C2040 C 0.56897 0.80271 0.67485 0.0
C2041 C 0.5958 0.83195 0.63845 0.0
H2042 H 0.55035 0.85066 0.62214 0.0
C2043 C 0.57582 0.8473 0.54357 0.0
C2044 C 0.56271 0.85956 0.53851 0.0
C2045 C 0.5814 0.84457 0.56694 0.0
C2046 C 0.56326 0.846 0.62672 0.0
H2047 H 0.61019 0.79922 0.71476 0.0
H2048 H 0.60804 0.82264 0.68516 0.0
H2049 H 0.55402 0.83417 0.65893 0.0
H2050 H 0.54613 0.8796 0.55371 0.0
H2051 H 0.55591 0.87477 0.59498 0.0
H2052 H 0.60496 0.84354 0.606 0.0
C2053 C 0.59739 0.81341 0.68675 0.0
C2054 C 0.56529 0.83628 0.64765 0.0
C2055 C 0.59863 0.79998 0.70367 0.0
C2056 C 0.55618 0.86999 0.55714 0.0
C2057 C 0.56173 0.86717 0.58073 0.0
C2058 C 0.5938 0.84181 0.61761 0.0
C2059 C 0.58251 0.81492 0.67217 0.0
C2060 C 0.58136 0.82838 0.65309 0.0
C2061 C 0.574 0.85401 0.58594 0.0
C2062 C 0.57729 0.84814 0.61087 0.0
H2063 H 0.55945 0.78022 0.69323 0.0
H2064 H 0.55752 0.80318 0.66352 0.0
H2065 H 0.60839 0.82614 0.64214 0.0
H2066 H 0.58127 0.83921 0.52953 0.0
H2067 H 0.59069 0.83418 0.5702 0.0
C2068 C 0.38946 0.29522 0.82151 0.0
C2069 C 0.37838 0.29895 0.80223 0.0
C2070 C 0.39145 0.30725 0.84007 0.0
C2071 C 0.3979 0.35167 0.84559 0.0
H2072 H 0.39828 0.3435 0.91403 0.0
C2073 C 0.43199 0.37812 0.93847 0.0
C2074 C 0.44906 0.37247 0.93366 0.0
C2075 C 0.4187 0.37513 0.92181 0.0
C2076 C 0.39785 0.34624 0.89502 0.0
H2077 H 0.36004 0.31762 0.78755 0.0
H2078 H 0.36418 0.33914 0.8197 0.0
H2079 H 0.38125 0.32427 0.88789 0.0
H2080 H 0.46607 0.361 0.90711 0.0
H2081 H 0.44302 0.35658 0.87752 0.0
H2082 H 0.41612 0.37236 0.85246 0.0
C2083 C 0.37086 0.32669 0.82072 0.0
C2084 C 0.38817 0.33523 0.88014 0.0
C2085 C 0.36846 0.31438 0.80248 0.0
C2086 C 0.45302 0.36556 0.91108 0.0
C2087 C 0.43985 0.36306 0.89419 0.0
C2088 C 0.40792 0.36242 0.86042 0.0
C2089 C 0.38276 0.32338 0.83924 0.0
C2090 C 0.38864 0.3375 0.85527 0.0
C2091 C 0.42247 0.36699 0.89992 0.0
C2092 C 0.40845 0.35936 0.88515 0.0
H2093 H 0.39733 0.28347 0.82151 0.0
H2094 H 0.40085 0.30455 0.85407 0.0
H2095 H 0.39861 0.35348 0.82639 0.0
H2096 H 0.42862 0.38326 0.95592 0.0
H2097 H 0.40535 0.37813 0.9266 0.0
C2098 C 0.86746 0.19655 0.19786 0.0
C2099 C 0.86921 0.21456 0.1937 0.0
C2100 C 0.87383 0.18452 0.18113 0.0
C2101 C 0.90947 0.18469 0.13818 0.0
H2102 H 0.89607 0.1368 0.1248 0.0
C2103 C 0.95802 0.14173 0.09189 0.0
C2104 C 0.95163 0.13353 0.07126 0.0
C2105 C 0.94655 0.14741 0.10956 0.0
C2106 C 0.89994 0.15016 0.12843 0.0
H2107 H 0.87671 0.23422 0.16791 0.0
H2108 H 0.88682 0.21331 0.1381 0.0
H2109 H 0.87596 0.15608 0.14655 0.0
H2110 H 0.92861 0.12327 0.05375 0.0
H2111 H 0.90838 0.13382 0.08426 0.0
H2112 H 0.93311 0.17923 0.11987 0.0
C2113 C 0.88129 0.20838 0.15459 0.0
C2114 C 0.88846 0.16116 0.14087 0.0
C2115 C 0.87533 0.22036 0.17149 0.0
C2116 C 0.93381 0.12947 0.06966 0.0
C2117 C 0.92224 0.13554 0.08713 0.0
C2118 C 0.92083 0.17381 0.12587 0.0
C2119 C 0.88178 0.19042 0.15997 0.0
C2120 C 0.8931 0.17861 0.14572 0.0
C2121 C 0.92844 0.14552 0.1065 0.0
C2122 C 0.91631 0.15638 0.12092 0.0
H2123 H 0.86291 0.19182 0.21501 0.0
H2124 H 0.87396 0.17079 0.18579 0.0
H2125 H 0.91372 0.19789 0.14209 0.0
H2126 H 0.97174 0.1449 0.0935 0.0
H2127 H 0.95178 0.15455 0.1247 0.0
C2128 C 0.95254 0.65153 0.93139 0.0
C2129 C 0.96571 0.66228 0.94089 0.0
C2130 C 0.94286 0.65703 0.9115 0.0
C2131 C 0.94366 0.68815 0.86122 0.0
H2132 H 0.89332 0.6899 0.86777 0.0
C2133 C 0.90469 0.73575 0.80579 0.0
C2134 C 0.89065 0.72894 0.79264 0.0
C2135 C 0.91203 0.72619 0.8244 0.0
C2136 C 0.90734 0.68929 0.8656 0.0
H2137 H 0.9797 0.68669 0.93642 0.0
H2138 H 0.96314 0.69609 0.90171 0.0
H2139 H 0.91083 0.6741 0.89751 0.0
H2140 H 0.87229 0.70748 0.78989 0.0
H2141 H 0.88524 0.69062 0.82276 0.0
H2142 H 0.94036 0.70365 0.8298 0.0
C2143 C 0.96017 0.6835 0.90956 0.0
C2144 C 0.91733 0.6802 0.88249 0.0
C2145 C 0.96961 0.67815 0.92951 0.0
C2146 C 0.88308 0.71305 0.79982 0.0
C2147 C 0.89053 0.70338 0.81851 0.0
C2148 C 0.93373 0.6972 0.84446 0.0
C2149 C 0.94648 0.67318 0.90061 0.0
C2150 C 0.93563 0.68002 0.8808 0.0
C2151 C 0.90556 0.70955 0.83019 0.0
C2152 C 0.91554 0.69835 0.84688 0.0
H2153 H 0.9492 0.63928 0.93995 0.0
H2154 H 0.93242 0.64882 0.90484 0.0
H2155 H 0.9577 0.68795 0.85924 0.0
H2156 H 0.91064 0.74807 0.80083 0.0
H2157 H 0.92331 0.73147 0.83358 0.0
C2158 C 0.10762 0.16934 0.69671 0.0
C2159 C 0.09278 0.17234 0.71084 0.0
C2160 C 0.10598 0.16184 0.67396 0.0
C2161 C 0.07432 0.13889 0.63393 0.0
H2162 H 0.09864 0.16368 0.5836 0.0
C2163 C 0.06164 0.16036 0.53128 0.0
C2164 C 0.05548 0.14476 0.52102 0.0
C2165 C 0.0692 0.16035 0.55392 0.0
C2166 C 0.09178 0.15658 0.59745 0.0
H2167 H 0.06466 0.16922 0.71251 0.0
H2168 H 0.0618 0.15665 0.673 0.0
H2169 H 0.10622 0.1693 0.62514 0.0
H2170 H 0.05268 0.11683 0.52642 0.0
H2171 H 0.06603 0.11681 0.56621 0.0
H2172 H 0.05901 0.12714 0.60626 0.0
C2173 C 0.07475 0.15973 0.67947 0.0
C2174 C 0.0963 0.15962 0.62128 0.0
C2175 C 0.07639 0.16716 0.7021 0.0
C2176 C 0.05722 0.12907 0.53389 0.0
C2177 C 0.06485 0.12907 0.55666 0.0
C2178 C 0.06971 0.13594 0.61009 0.0
C2179 C 0.08947 0.1572 0.66496 0.0
C2180 C 0.08715 0.15132 0.63983 0.0
C2181 C 0.0709 0.14474 0.56692 0.0
C2182 C 0.07794 0.14528 0.59165 0.0
H2183 H 0.12045 0.17308 0.703 0.0
H2184 H 0.11759 0.15992 0.66328 0.0
H2185 H 0.06727 0.132 0.64781 0.0
H2186 H 0.06048 0.17271 0.52194 0.0
H2187 H 0.07332 0.17272 0.56148 0.0
C2188 C 0.5023 0.33534 0.42485 0.0
C2189 C 0.51022 0.34525 0.44299 0.0
C2190 C 0.51036 0.33345 0.4027 0.0
C2191 C 0.55243 0.32924 0.37662 0.0
H2192 H 0.52713 0.33242 0.31669 0.0
C2193 C 0.57899 0.29972 0.28819 0.0
C2194 C 0.56656 0.29024 0.27497 0.0
C2195 C 0.57378 0.31036 0.30728 0.0
C2196 C 0.53439 0.33145 0.33327 0.0
H2197 H 0.53255 0.3613 0.45215 0.0
H2198 H 0.54705 0.35744 0.41331 0.0
H2199 H 0.5145 0.34478 0.35298 0.0
H2200 H 0.53896 0.28441 0.27155 0.0
H2201 H 0.53003 0.30248 0.30488 0.0
H2202 H 0.57177 0.31483 0.35734 0.0
C2203 C 0.53446 0.35142 0.41629 0.0
C2204 C 0.52721 0.33864 0.35395 0.0
C2205 C 0.52616 0.35366 0.43837 0.0
C2206 C 0.54889 0.2916 0.28124 0.0
C2207 C 0.54373 0.30214 0.30025 0.0
C2208 C 0.55955 0.32185 0.35595 0.0
C2209 C 0.52666 0.34116 0.39839 0.0
C2210 C 0.53589 0.33706 0.37593 0.0
C2211 C 0.55606 0.31172 0.31345 0.0
C2212 C 0.55026 0.32228 0.33425 0.0
H2213 H 0.48998 0.32879 0.42794 0.0
H2214 H 0.50418 0.32532 0.38926 0.0
H2215 H 0.5593 0.32777 0.39345 0.0
H2216 H 0.5927 0.299 0.28373 0.0
H2217 H 0.58359 0.31762 0.31708 0.0
C2218 C 0.41624 0.86238 0.05264 0.0
C2219 C 0.41247 0.84964 0.03526 0.0
C2220 C 0.40934 0.86092 0.07576 0.0
C2221 C 0.37793 0.83475 0.11274 0.0
H2222 H 0.41445 0.83758 0.1605 0.0
C2223 C 0.3724 0.79965 0.20428 0.0
C2224 C 0.38734 0.78984 0.20997 0.0
C2225 C 0.3729 0.81208 0.18587 0.0
C2226 C 0.40405 0.83682 0.14743 0.0
H2227 H 0.39744 0.82618 0.02794 0.0
H2228 H 0.38585 0.82344 0.06788 0.0
H2229 H 0.41895 0.8508 0.12152 0.0
H2230 H 0.41454 0.78556 0.20093 0.0
H2231 H 0.41528 0.80673 0.16892 0.0
H2232 H 0.36369 0.81939 0.13803 0.0
C2233 C 0.39392 0.83468 0.0639 0.0
C2234 C 0.40652 0.84463 0.12514 0.0
C2235 C 0.4008 0.83613 0.04097 0.0
C2236 C 0.40277 0.79286 0.1971 0.0
C2237 C 0.40327 0.80521 0.17886 0.0
C2238 C 0.37552 0.82678 0.13498 0.0
C2239 C 0.39849 0.84674 0.08182 0.0
C2240 C 0.39386 0.84289 0.1071 0.0
C2241 C 0.38837 0.81496 0.17295 0.0
C2242 C 0.38895 0.82695 0.15208 0.0
H2243 H 0.42509 0.87303 0.04871 0.0
H2244 H 0.41296 0.87054 0.08909 0.0
H2245 H 0.36773 0.83356 0.09943 0.0
H2246 H 0.36034 0.79769 0.21395 0.0
H2247 H 0.3612 0.81939 0.18172 0.0
C2248 C 0.92531 0.31113 0.5059 0.0
C2249 C 0.93398 0.32734 0.50553 0.0
C2250 C 0.91834 0.30461 0.52713 0.0
C2251 C 0.92493 0.30714 0.59162 0.0
H2252 H 0.88128 0.28157 0.59481 0.0
C2253 C 0.90988 0.26315 0.67095 0.0
C2254 C 0.89363 0.26553 0.68206 0.0
C2255 C 0.9131 0.27018 0.64842 0.0
C2256 C 0.89344 0.28876 0.59418 0.0
H2257 H 0.94159 0.34968 0.52706 0.0
H2258 H 0.92942 0.33823 0.56425 0.0
H2259 H 0.88952 0.29644 0.55769 0.0
H2260 H 0.8676 0.27609 0.6775 0.0
H2261 H 0.87329 0.28842 0.63785 0.0
H2262 H 0.92894 0.29949 0.62795 0.0
C2263 C 0.92816 0.33054 0.54806 0.0
C2264 C 0.8982 0.29717 0.57295 0.0
C2265 C 0.93508 0.33711 0.52676 0.0
C2266 C 0.88026 0.27405 0.66941 0.0
C2267 C 0.88351 0.28112 0.64674 0.0
C2268 C 0.92024 0.29867 0.61272 0.0
C2269 C 0.91993 0.31411 0.54851 0.0
C2270 C 0.91408 0.30631 0.57141 0.0
C2271 C 0.90016 0.27977 0.63645 0.0
C2272 C 0.90457 0.2892 0.61413 0.0
H2273 H 0.92414 0.30329 0.48984 0.0
H2274 H 0.91224 0.29184 0.52695 0.0
H2275 H 0.93733 0.31391 0.59094 0.0
H2276 H 0.92039 0.25644 0.68007 0.0
H2277 H 0.92592 0.26856 0.64064 0.0
C2278 C 0.37372 0.18366 0.28855 0.0
C2279 C 0.38224 0.19937 0.28286 0.0
C2280 C 0.37569 0.17632 0.31136 0.0
C2281 C 0.39018 0.18563 0.37296 0.0
H2282 H 0.41578 0.14199 0.36937 0.0
C2283 C 0.44596 0.17094 0.43558 0.0
C2284 C 0.44839 0.15411 0.44503 0.0
C2285 C 0.43313 0.17407 0.41852 0.0
C2286 C 0.40826 0.15392 0.37087 0.0
H2287 H 0.39835 0.22036 0.2965 0.0
H2288 H 0.40125 0.20797 0.33642 0.0
H2289 H 0.39968 0.15243 0.33441 0.0
H2290 H 0.43937 0.12724 0.4436 0.0
H2291 H 0.41694 0.13275 0.41314 0.0
H2292 H 0.39951 0.18767 0.4089 0.0
C2293 C 0.39322 0.2012 0.32342 0.0
C2294 C 0.39901 0.15987 0.35088 0.0
C2295 C 0.39164 0.20826 0.30059 0.0
C2296 C 0.43783 0.14035 0.43663 0.0
C2297 C 0.42499 0.1435 0.41929 0.0
C2298 C 0.3993 0.17965 0.39292 0.0
C2299 C 0.38576 0.1849 0.3288 0.0
C2300 C 0.39068 0.17622 0.35143 0.0
C2301 C 0.42239 0.16046 0.41033 0.0
C2302 C 0.40922 0.16423 0.39162 0.0
H2303 H 0.36656 0.17654 0.27498 0.0
H2304 H 0.3699 0.1637 0.31511 0.0
H2305 H 0.38369 0.19819 0.37386 0.0
H2306 H 0.45386 0.18186 0.44151 0.0
H2307 H 0.43178 0.18719 0.41149 0.0
C2308 C 0.55132 0.64656 0.04695 0.0
C2309 C 0.55041 0.66043 0.03049 0.0
C2310 C 0.55781 0.64939 0.07007 0.0
C2311 C 0.58481 0.68044 0.10479 0.0
H2312 H 0.55864 0.66413 0.15968 0.0
C2313 C 0.57261 0.70316 0.20705 0.0
C2314 C 0.58972 0.70707 0.2143 0.0
C2315 C 0.56953 0.69401 0.18588 0.0
C2316 C 0.56612 0.66873 0.14452 0.0
H2317 H 0.5555 0.68812 0.02548 0.0
H2318 H 0.56657 0.69299 0.06551 0.0
H2319 H 0.55003 0.65486 0.11953 0.0
H2320 H 0.61706 0.70382 0.20547 0.0
H2321 H 0.61166 0.68771 0.16849 0.0
H2322 H 0.6003 0.69506 0.12946 0.0
C2323 C 0.56256 0.6799 0.06055 0.0
C2324 C 0.5613 0.66327 0.12157 0.0
C2325 C 0.55605 0.67712 0.03763 0.0
C2326 C 0.60372 0.70116 0.20027 0.0
C2327 C 0.60063 0.69195 0.17908 0.0
C2328 C 0.58961 0.6859 0.12767 0.0
C2329 C 0.56361 0.66609 0.077 0.0
C2330 C 0.57027 0.66953 0.10144 0.0
C2331 C 0.58348 0.6885 0.17147 0.0
C2332 C 0.58 0.68052 0.14773 0.0
H2333 H 0.54709 0.63355 0.04198 0.0
H2334 H 0.55848 0.63851 0.08242 0.0
H2335 H 0.59214 0.68525 0.08961 0.0
H2336 H 0.56152 0.70748 0.21745 0.0
H2337 H 0.55616 0.69183 0.18037 0.0
C2338 C 0.0835 0.80824 0.77852 0.0
C2339 C 0.10009 0.80232 0.77168 0.0
C2340 C 0.08131 0.81793 0.79938 0.0
C2341 C 0.07983 0.84319 0.84048 0.0
H2342 H 0.10037 0.82153 0.89644 0.0
C2343 C 0.05476 0.85759 0.9361 0.0
C2344 C 0.05081 0.84214 0.94859 0.0
C2345 C 0.06491 0.85698 0.91527 0.0
C2346 C 0.09467 0.82787 0.88097 0.0
H2347 H 0.12755 0.80251 0.78099 0.0
H2348 H 0.12366 0.81944 0.81782 0.0
H2349 H 0.11043 0.81312 0.85679 0.0
H2350 H 0.05491 0.81405 0.94945 0.0
H2351 H 0.07225 0.81301 0.91342 0.0
H2352 H 0.06311 0.8569 0.86466 0.0
C2353 C 0.11236 0.81648 0.80692 0.0
C2354 C 0.10057 0.82318 0.85825 0.0
C2355 C 0.11458 0.80681 0.78585 0.0
C2356 C 0.05759 0.82621 0.94023 0.0
C2357 C 0.06776 0.82562 0.91969 0.0
C2358 C 0.07389 0.84783 0.86322 0.0
C2359 C 0.09564 0.82196 0.81403 0.0
C2360 C 0.0926 0.83015 0.83773 0.0
C2361 C 0.07144 0.84094 0.90683 0.0
C2362 C 0.08066 0.83956 0.88362 0.0
H2363 H 0.07205 0.80513 0.76797 0.0
H2364 H 0.06821 0.82161 0.80453 0.0
H2365 H 0.07369 0.84905 0.82498 0.0
H2366 H 0.04979 0.87007 0.94217 0.0
H2367 H 0.06753 0.86898 0.90568 0.0
loop_
_geom_bond_atom_site_label_1
_geom_bond_atom_site_label_2
_geom_bond_distance
_geom_bond_site_symmetry_2
_ccdc_geom_bond_type
Zn0 O3 2.031 . S
Zn0 O5 2.049 . S
Zn0 O10 2.067 . S
Zn1 O2 1.962 . S
Zn1 O4 1.986 . S
Zn1 O6 1.996 . S
Zn1 O9 1.943 . S
O2 Zn1 1.962 . S
O2 C7 1.254 . S
O3 Zn0 2.031 . S
O3 C7 1.269 . S
O4 Zn1 1.986 . S
O4 C11 1.262 . S
O5 Zn0 2.049 . S
O5 C13 1.260 . S
O6 Zn1 1.996 . S
O6 C13 1.257 . S
C7 O2 1.254 . S
C7 O3 1.269 . S
C8 O9 1.249 . S
C8 O10 1.270 . S
O9 Zn1 1.943 . S
O9 C8 1.249 . S
O10 Zn0 2.067 . S
O10 C8 1.270 . S
C11 O4 1.262 . S
C11 O12 1.232 . S
O12 C11 1.232 . S
C13 O5 1.260 . S
C13 O6 1.257 . S
Zn14 O17 2.001 1_655 S
Zn14 O19 2.049 . S
Zn14 O24 2.067 . S
Zn15 O16 1.962 1_655 S
Zn15 O18 1.986 . S
Zn15 O20 1.996 . S
Zn15 O23 1.943 . S
O16 Zn15 1.962 1_455 S
O16 C21 1.254 . S
O17 Zn14 2.001 1_455 S
O17 C21 1.312 . S
O18 Zn15 1.986 . S
O18 C25 1.262 . S
O19 Zn14 2.049 . S
O19 C27 1.260 . S
O20 Zn15 1.996 . S
O20 C27 1.257 . S
C21 O16 1.254 . S
C21 O17 1.312 . S
C22 O23 1.249 . S
C22 O24 1.270 . S
O23 Zn15 1.943 . S
O23 C22 1.249 . S
O24 Zn14 2.067 . S
O24 C22 1.270 . S
C25 O18 1.262 . S
C25 O26 1.232 . S
O26 C25 1.232 . S
C27 O19 1.260 . S
C27 O20 1.257 . S
Zn28 O31 2.031 . S
Zn28 O33 2.049 . S
Zn28 O38 2.067 . S
Zn29 O30 1.962 . S
Zn29 O32 1.986 . S
Zn29 O34 1.996 . S
Zn29 O37 1.943 . S
O30 Zn29 1.962 . S
O30 C35 1.254 . S
O31 Zn28 2.031 . S
O31 C35 1.269 . S
O32 Zn29 1.986 . S
O32 C39 1.262 . S
O33 Zn28 2.049 . S
O33 C41 1.260 . S
O34 Zn29 1.996 . S
O34 C41 1.257 . S
C35 O30 1.254 . S
C35 O31 1.269 . S
C36 O37 1.249 . S
C36 O38 1.270 . S
O37 Zn29 1.943 . S
O37 C36 1.249 . S
O38 Zn28 2.067 . S
O38 C36 1.270 . S
C39 O32 1.262 . S
C39 O40 1.232 . S
O40 C39 1.232 . S
C41 O33 1.260 . S
C41 O34 1.257 . S
Zn42 O45 2.031 . S
Zn42 O47 2.049 1_554 S
Zn42 O52 2.067 . S
Zn43 O44 1.962 . S
Zn43 O46 1.986 . S
Zn43 O48 1.996 1_554 S
Zn43 O51 1.943 . S
O44 Zn43 1.962 . S
O44 C49 1.254 . S
O45 Zn42 2.031 . S
O45 C49 1.269 . S
O46 Zn43 1.986 . S
O46 C53 1.262 . S
O47 Zn42 2.049 1_556 S
O47 C55 1.260 . S
O48 Zn43 1.996 1_556 S
O48 C55 1.257 . S
C49 O44 1.254 . S
C49 O45 1.269 . S
C50 O51 1.249 . S
C50 O52 1.270 . S
O51 Zn43 1.943 . S
O51 C50 1.249 . S
O52 Zn42 2.067 . S
O52 C50 1.270 . S
C53 O46 1.262 . S
C53 O54 1.232 . S
O54 C53 1.232 . S
C55 O47 1.260 . S
C55 O48 1.257 . S
Zn56 O59 2.031 . S
Zn56 O61 2.049 . S
Zn56 O66 2.067 . S
Zn57 O58 1.962 . S
Zn57 O60 1.986 . S
Zn57 O62 1.996 . S
Zn57 O65 1.943 . S
O58 Zn57 1.962 . S
O58 C63 1.254 . S
O59 Zn56 2.031 . S
O59 C63 1.269 . S
O60 Zn57 1.986 . S
O60 C67 1.262 . S
O61 Zn56 2.049 . S
O61 C69 1.260 . S
O62 Zn57 1.996 . S
O62 C69 1.257 . S
C63 O58 1.254 . S
C63 O59 1.269 . S
C64 O65 1.249 . S
C64 O66 1.270 . S
O65 Zn57 1.943 . S
O65 C64 1.249 . S
O66 Zn56 2.067 . S
O66 C64 1.270 . S
C67 O60 1.262 . S
C67 O68 1.232 . S
O68 C67 1.232 . S
C69 O61 1.260 . S
C69 O62 1.257 . S
Zn70 O73 2.031 . S
Zn70 O75 2.049 . S
Zn70 O80 2.067 . S
Zn71 O72 1.962 . S
Zn71 O74 1.986 . S
Zn71 O76 1.996 . S
Zn71 O79 1.943 . S
O72 Zn71 1.962 . S
O72 C77 1.254 . S
O73 Zn70 2.031 . S
O73 C77 1.269 . S
O74 Zn71 1.986 . S
O74 C81 1.262 . S
O75 Zn70 2.049 . S
O75 C83 1.260 . S
O76 Zn71 1.996 . S
O76 C83 1.257 . S
C77 O72 1.254 . S
C77 O73 1.269 . S
C78 O79 1.249 . S
C78 O80 1.270 . S
O79 Zn71 1.943 . S
O79 C78 1.249 . S
O80 Zn70 2.067 . S
O80 C78 1.270 . S
C81 O74 1.262 . S
C81 O82 1.232 . S
O82 C81 1.232 . S
C83 O75 1.260 . S
C83 O76 1.257 . S
Zn84 O87 2.031 . S
Zn84 O89 2.049 . S
Zn84 O94 2.067 . S
Zn85 O86 1.962 . S
Zn85 O88 1.986 . S
Zn85 O90 1.996 . S
Zn85 O93 1.943 . S
O86 Zn85 1.962 . S
O86 C91 1.254 . S
O87 Zn84 2.031 . S
O87 C91 1.269 . S
O88 Zn85 1.986 . S
O88 C95 1.262 . S
O89 Zn84 2.049 . S
O89 C97 1.260 . S
O90 Zn85 1.996 . S
O90 C97 1.257 . S
C91 O86 1.254 . S
C91 O87 1.269 . S
C92 O93 1.249 . S
C92 O94 1.270 . S
O93 Zn85 1.943 . S
O93 C92 1.249 . S
O94 Zn84 2.067 . S
O94 C92 1.270 . S
C95 O88 1.262 . S
C95 O96 1.232 . S
O96 C95 1.232 . S
C97 O89 1.260 . S
C97 O90 1.257 . S
Zn98 O101 2.001 1_655 S
Zn98 O103 2.049 1_556 S
Zn98 O108 2.067 . S
Zn99 O100 1.962 1_655 S
Zn99 O102 1.986 . S
Zn99 O104 1.996 1_556 S
Zn99 O107 1.943 . S
O100 Zn99 1.962 1_455 S
O100 C105 1.254 . S
O101 Zn98 2.001 1_455 S
O101 C105 1.312 . S
O102 Zn99 1.986 . S
O102 C109 1.262 . S
O103 Zn98 2.049 1_554 S
O103 C111 1.260 . S
O104 Zn99 1.996 1_554 S
O104 C111 1.257 . S
C105 O100 1.254 . S
C105 O101 1.312 . S
C106 O107 1.249 . S
C106 O108 1.270 . S
O107 Zn99 1.943 . S
O107 C106 1.249 . S
O108 Zn98 2.067 . S
O108 C106 1.270 . S
C109 O102 1.262 . S
C109 O110 1.232 . S
O110 C109 1.232 . S
C111 O103 1.260 . S
C111 O104 1.257 . S
Zn112 O115 2.031 . S
Zn112 O117 2.049 . S
Zn112 O122 2.067 . S
Zn113 O114 1.962 . S
Zn113 O116 1.986 . S
Zn113 O118 1.996 . S
Zn113 O121 1.943 . S
O114 Zn113 1.962 . S
O114 C119 1.254 . S
O115 Zn112 2.031 . S
O115 C119 1.269 . S
O116 Zn113 1.986 . S
O116 C123 1.262 . S
O117 Zn112 2.049 . S
O117 C125 1.260 . S
O118 Zn113 1.996 . S
O118 C125 1.257 . S
C119 O114 1.254 . S
C119 O115 1.269 . S
C120 O121 1.249 . S
C120 O122 1.270 . S
O121 Zn113 1.943 . S
O121 C120 1.249 . S
O122 Zn112 2.067 . S
O122 C120 1.270 . S
C123 O116 1.262 . S
C123 O124 1.232 . S
O124 C123 1.232 . S
C125 O117 1.260 . S
C125 O118 1.257 . S
Zn126 O129 2.001 1_455 S
Zn126 O131 2.049 . S
Zn126 O136 2.067 . S
Zn127 O128 1.962 1_455 S
Zn127 O130 1.986 . S
Zn127 O132 1.996 . S
Zn127 O135 1.943 . S
O128 Zn127 1.962 1_655 S
O128 C133 1.254 . S
O129 Zn126 2.001 1_655 S
O129 C133 1.312 . S
O130 Zn127 1.986 . S
O130 C137 1.262 . S
O131 Zn126 2.049 . S
O131 C139 1.260 . S
O132 Zn127 1.996 . S
O132 C139 1.257 . S
C133 O128 1.254 . S
C133 O129 1.312 . S
C134 O135 1.249 . S
C134 O136 1.270 . S
O135 Zn127 1.943 . S
O135 C134 1.249 . S
O136 Zn126 2.067 . S
O136 C134 1.270 . S
C137 O130 1.262 . S
C137 O138 1.232 . S
O138 C137 1.232 . S
C139 O131 1.260 . S
C139 O132 1.257 . S
Zn140 O143 2.031 . S
Zn140 O145 2.049 . S
Zn140 O150 2.067 . S
Zn141 O142 1.962 . S
Zn141 O144 1.986 . S
Zn141 O146 1.996 . S
Zn141 O149 1.943 . S
O142 Zn141 1.962 . S
O142 C147 1.254 . S
O143 Zn140 2.031 . S
O143 C147 1.269 . S
O144 Zn141 1.986 . S
O144 C151 1.262 . S
O145 Zn140 2.049 . S
O145 C153 1.260 . S
O146 Zn141 1.996 . S
O146 C153 1.257 . S
C147 O142 1.254 . S
C147 O143 1.269 . S
C148 O149 1.249 . S
C148 O150 1.270 . S
O149 Zn141 1.943 . S
O149 C148 1.249 . S
O150 Zn140 2.067 . S
O150 C148 1.270 . S
C151 O144 1.262 . S
C151 O152 1.232 . S
O152 C151 1.232 . S
C153 O145 1.260 . S
C153 O146 1.257 . S
Zn154 O157 2.031 . S
Zn154 O159 2.049 1_556 S
Zn154 O164 2.067 . S
Zn155 O156 1.962 . S
Zn155 O158 1.986 . S
Zn155 O160 1.996 1_556 S
Zn155 O163 1.943 . S
O156 Zn155 1.962 . S
O156 C161 1.254 . S
O157 Zn154 2.031 . S
O157 C161 1.269 . S
O158 Zn155 1.986 . S
O158 C165 1.262 . S
O159 Zn154 2.049 1_554 S
O159 C167 1.260 . S
O160 Zn155 1.996 1_554 S
O160 C167 1.257 . S
C161 O156 1.254 . S
C161 O157 1.269 . S
C162 O163 1.249 . S
C162 O164 1.270 . S
O163 Zn155 1.943 . S
O163 C162 1.249 . S
O164 Zn154 2.067 . S
O164 C162 1.270 . S
C165 O158 1.262 . S
C165 O166 1.232 . S
O166 C165 1.232 . S
C167 O159 1.260 . S
C167 O160 1.257 . S
Zn168 O171 2.031 . S
Zn168 O173 2.049 . S
Zn168 O178 2.067 . S
Zn169 O170 1.962 . S
Zn169 O172 1.986 . S
Zn169 O174 1.996 . S
Zn169 O177 1.943 . S
O170 Zn169 1.962 . S
O170 C175 1.254 . S
O171 Zn168 2.031 . S
O171 C175 1.269 . S
O172 Zn169 1.986 . S
O172 C179 1.262 . S
O173 Zn168 2.049 . S
O173 C181 1.260 . S
O174 Zn169 1.996 . S
O174 C181 1.257 . S
C175 O170 1.254 . S
C175 O171 1.269 . S
C176 O177 1.249 . S
C176 O178 1.270 . S
O177 Zn169 1.943 . S
O177 C176 1.249 . S
O178 Zn168 2.067 . S
O178 C176 1.270 . S
C179 O172 1.262 . S
C179 O180 1.232 . S
O180 C179 1.232 . S
C181 O173 1.260 . S
C181 O174 1.257 . S
Zn182 O185 2.031 . S
Zn182 O187 2.049 . S
Zn182 O192 2.067 . S
Zn183 O184 1.962 . S
Zn183 O186 1.986 . S
Zn183 O188 1.996 . S
Zn183 O191 1.943 . S
O184 Zn183 1.962 . S
O184 C189 1.254 . S
O185 Zn182 2.031 . S
O185 C189 1.269 . S
O186 Zn183 1.986 . S
O186 C193 1.262 . S
O187 Zn182 2.049 . S
O187 C195 1.260 . S
O188 Zn183 1.996 . S
O188 C195 1.257 . S
C189 O184 1.254 . S
C189 O185 1.269 . S
C190 O191 1.249 . S
C190 O192 1.270 . S
O191 Zn183 1.943 . S
O191 C190 1.249 . S
O192 Zn182 2.067 . S
O192 C190 1.270 . S
C193 O186 1.262 . S
C193 O194 1.232 . S
O194 C193 1.232 . S
C195 O187 1.260 . S
C195 O188 1.257 . S
Zn196 O199 2.031 . S
Zn196 O201 2.049 . S
Zn196 O206 2.067 . S
Zn197 O198 1.962 . S
Zn197 O200 1.986 . S
Zn197 O202 1.996 . S
Zn197 O205 1.943 . S
O198 Zn197 1.962 . S
O198 C203 1.254 . S
O199 Zn196 2.031 . S
O199 C203 1.269 . S
O200 Zn197 1.986 . S
O200 C207 1.262 . S
O201 Zn196 2.049 . S
O201 C209 1.260 . S
O202 Zn197 1.996 . S
O202 C209 1.257 . S
C203 O198 1.254 . S
C203 O199 1.269 . S
C204 O205 1.249 . S
C204 O206 1.270 . S
O205 Zn197 1.943 . S
O205 C204 1.249 . S
O206 Zn196 2.067 . S
O206 C204 1.270 . S
C207 O200 1.262 . S
C207 O208 1.232 . S
O208 C207 1.232 . S
C209 O201 1.260 . S
C209 O202 1.257 . S
Zn210 O213 2.001 1_455 S
Zn210 O215 2.049 1_554 S
Zn210 O220 2.067 . S
Zn211 O212 1.962 1_455 S
Zn211 O214 1.986 . S
Zn211 O216 1.996 1_554 S
Zn211 O219 1.943 . S
O212 Zn211 1.962 1_655 S
O212 C217 1.254 . S
O213 Zn210 2.001 1_655 S
O213 C217 1.312 . S
O214 Zn211 1.986 . S
O214 C221 1.262 . S
O215 Zn210 2.049 1_556 S
O215 C223 1.260 . S
O216 Zn211 1.996 1_556 S
O216 C223 1.257 . S
C217 O212 1.254 . S
C217 O213 1.312 . S
C218 O219 1.249 . S
C218 O220 1.270 . S
O219 Zn211 1.943 . S
O219 C218 1.249 . S
O220 Zn210 2.067 . S
O220 C218 1.270 . S
C221 O214 1.262 . S
C221 O222 1.232 . S
O222 C221 1.232 . S
C223 O215 1.260 . S
C223 O216 1.257 . S
Zn224 O227 2.031 . S
Zn224 O229 2.049 . S
Zn224 O234 2.067 . S
Zn225 O226 1.962 . S
Zn225 O228 1.986 . S
Zn225 O230 1.996 . S
Zn225 O233 1.943 . S
O226 Zn225 1.962 . S
O226 C231 1.254 . S
O227 Zn224 2.031 . S
O227 C231 1.269 . S
O228 Zn225 1.986 . S
O228 C235 1.262 . S
O229 Zn224 2.049 . S
O229 C237 1.260 . S
O230 Zn225 1.996 . S
O230 C237 1.257 . S
C231 O226 1.254 . S
C231 O227 1.269 . S
C232 O233 1.249 . S
C232 O234 1.270 . S
O233 Zn225 1.943 . S
O233 C232 1.249 . S
O234 Zn224 2.067 . S
O234 C232 1.270 . S
C235 O228 1.262 . S
C235 O236 1.232 . S
O236 C235 1.232 . S
C237 O229 1.260 . S
C237 O230 1.257 . S
Zn238 O241 2.031 . S
Zn238 O243 2.049 1_554 S
Zn238 O248 2.067 . S
Zn239 O240 1.962 . S
Zn239 O242 1.986 . S
Zn239 O244 1.996 1_554 S
Zn239 O247 1.943 . S
O240 Zn239 1.962 . S
O240 C245 1.254 . S
O241 Zn238 2.031 . S
O241 C245 1.269 . S
O242 Zn239 1.986 . S
O242 C249 1.262 . S
O243 Zn238 2.049 1_556 S
O243 C251 1.260 . S
O244 Zn239 1.996 1_556 S
O244 C251 1.257 . S
C245 O240 1.254 . S
C245 O241 1.269 . S
C246 O247 1.249 . S
C246 O248 1.270 . S
O247 Zn239 1.943 . S
O247 C246 1.249 . S
O248 Zn238 2.067 . S
O248 C246 1.270 . S
C249 O242 1.262 . S
C249 O250 1.232 . S
O250 C249 1.232 . S
C251 O243 1.260 . S
C251 O244 1.257 . S
Zn252 O255 2.031 . S
Zn252 O257 2.049 . S
Zn252 O262 2.067 . S
Zn253 O254 1.962 . S
Zn253 O256 1.986 . S
Zn253 O258 1.996 . S
Zn253 O261 1.943 . S
O254 Zn253 1.962 . S
O254 C259 1.254 . S
O255 Zn252 2.031 . S
O255 C259 1.269 . S
O256 Zn253 1.986 . S
O256 C263 1.262 . S
O257 Zn252 2.049 . S
O257 C265 1.260 . S
O258 Zn253 1.996 . S
O258 C265 1.257 . S
C259 O254 1.254 . S
C259 O255 1.269 . S
C260 O261 1.249 . S
C260 O262 1.270 . S
O261 Zn253 1.943 . S
O261 C260 1.249 . S
O262 Zn252 2.067 . S
O262 C260 1.270 . S
C263 O256 1.262 . S
C263 O264 1.232 . S
O264 C263 1.232 . S
C265 O257 1.260 . S
C265 O258 1.257 . S
Zn266 O269 2.001 1_455 S
Zn266 O271 2.049 . S
Zn266 O276 2.067 . S
Zn267 O268 1.962 1_455 S
Zn267 O270 1.986 . S
Zn267 O272 1.996 . S
Zn267 O275 1.943 . S
O268 Zn267 1.962 1_655 S
O268 C273 1.254 . S
O269 Zn266 2.001 1_655 S
O269 C273 1.312 . S
O270 Zn267 1.986 . S
O270 C277 1.262 . S
O271 Zn266 2.049 . S
O271 C279 1.260 . S
O272 Zn267 1.996 . S
O272 C279 1.257 . S
C273 O268 1.254 . S
C273 O269 1.312 . S
C274 O275 1.249 . S
C274 O276 1.270 . S
O275 Zn267 1.943 . S
O275 C274 1.249 . S
O276 Zn266 2.067 . S
O276 C274 1.270 . S
C277 O270 1.262 . S
C277 O278 1.232 . S
O278 C277 1.232 . S
C279 O271 1.260 . S
C279 O272 1.257 . S
Zn280 O283 2.031 . S
Zn280 O285 2.049 . S
Zn280 O290 2.067 . S
Zn281 O282 1.962 . S
Zn281 O284 1.986 . S
Zn281 O286 1.996 . S
Zn281 O289 1.943 . S
O282 Zn281 1.962 . S
O282 C287 1.254 . S
O283 Zn280 2.031 . S
O283 C287 1.269 . S
O284 Zn281 1.986 . S
O284 C291 1.262 . S
O285 Zn280 2.049 . S
O285 C293 1.260 . S
O286 Zn281 1.996 . S
O286 C293 1.257 . S
C287 O282 1.254 . S
C287 O283 1.269 . S
C288 O289 1.249 . S
C288 O290 1.270 . S
O289 Zn281 1.943 . S
O289 C288 1.249 . S
O290 Zn280 2.067 . S
O290 C288 1.270 . S
C291 O284 1.262 . S
C291 O292 1.232 . S
O292 C291 1.232 . S
C293 O285 1.260 . S
C293 O286 1.257 . S
Zn294 O297 2.001 1_455 S
Zn294 O299 2.049 1_556 S
Zn294 O304 2.067 . S
Zn295 O296 1.962 1_455 S
Zn295 O298 1.986 . S
Zn295 O300 1.996 1_556 S
Zn295 O303 1.943 . S
O296 Zn295 1.962 1_655 S
O296 C301 1.254 . S
O297 Zn294 2.001 1_655 S
O297 C301 1.312 . S
O298 Zn295 1.986 . S
O298 C305 1.262 . S
O299 Zn294 2.049 1_554 S
O299 C307 1.260 . S
O300 Zn295 1.996 1_554 S
O300 C307 1.257 . S
C301 O296 1.254 . S
C301 O297 1.312 . S
C302 O303 1.249 . S
C302 O304 1.270 . S
O303 Zn295 1.943 . S
O303 C302 1.249 . S
O304 Zn294 2.067 . S
O304 C302 1.270 . S
C305 O298 1.262 . S
C305 O306 1.232 . S
O306 C305 1.232 . S
C307 O299 1.260 . S
C307 O300 1.257 . S
Zn308 O311 2.031 . S
Zn308 O313 2.049 . S
Zn308 O318 2.067 . S
Zn309 O310 1.962 . S
Zn309 O312 1.986 . S
Zn309 O314 1.996 . S
Zn309 O317 1.943 . S
O310 Zn309 1.962 . S
O310 C315 1.254 . S
O311 Zn308 2.031 . S
O311 C315 1.269 . S
O312 Zn309 1.986 . S
O312 C319 1.262 . S
O313 Zn308 2.049 . S
O313 C321 1.260 . S
O314 Zn309 1.996 . S
O314 C321 1.257 . S
C315 O310 1.254 . S
C315 O311 1.269 . S
C316 O317 1.249 . S
C316 O318 1.270 . S
O317 Zn309 1.943 . S
O317 C316 1.249 . S
O318 Zn308 2.067 . S
O318 C316 1.270 . S
C319 O312 1.262 . S
C319 O320 1.232 . S
O320 C319 1.232 . S
C321 O313 1.260 . S
C321 O314 1.257 . S
Zn322 O325 2.031 . S
Zn322 O327 2.049 . S
Zn322 O332 2.067 . S
Zn323 O324 1.962 . S
Zn323 O326 1.986 . S
Zn323 O328 1.996 . S
Zn323 O331 1.943 . S
O324 Zn323 1.962 . S
O324 C329 1.254 . S
O325 Zn322 2.031 . S
O325 C329 1.269 . S
O326 Zn323 1.986 . S
O326 C333 1.262 . S
O327 Zn322 2.049 . S
O327 C335 1.260 . S
O328 Zn323 1.996 . S
O328 C335 1.257 . S
C329 O324 1.254 . S
C329 O325 1.269 . S
C330 O331 1.249 . S
C330 O332 1.270 . S
O331 Zn323 1.943 . S
O331 C330 1.249 . S
O332 Zn322 2.067 . S
O332 C330 1.270 . S
C333 O326 1.262 . S
C333 O334 1.232 . S
O334 C333 1.232 . S
C335 O327 1.260 . S
C335 O328 1.257 . S
Zn336 O339 2.031 . S
Zn336 O341 2.049 . S
Zn336 O346 2.067 . S
Zn337 O338 1.962 . S
Zn337 O340 1.986 . S
Zn337 O342 1.996 . S
Zn337 O345 1.943 . S
O338 Zn337 1.962 . S
O338 C343 1.254 . S
O339 Zn336 2.031 . S
O339 C343 1.269 . S
O340 Zn337 1.986 . S
O340 C347 1.262 . S
O341 Zn336 2.049 . S
O341 C349 1.260 . S
O342 Zn337 1.996 . S
O342 C349 1.257 . S
C343 O338 1.254 . S
C343 O339 1.269 . S
C344 O345 1.249 . S
C344 O346 1.270 . S
O345 Zn337 1.943 . S
O345 C344 1.249 . S
O346 Zn336 2.067 . S
O346 C344 1.270 . S
C347 O340 1.262 . S
C347 O348 1.232 . S
O348 C347 1.232 . S
C349 O341 1.260 . S
C349 O342 1.257 . S
Zn350 O353 2.031 . S
Zn350 O355 2.049 1_556 S
Zn350 O360 2.067 . S
Zn351 O352 1.962 . S
Zn351 O354 1.986 . S
Zn351 O356 1.996 1_556 S
Zn351 O359 1.943 . S
O352 Zn351 1.962 . S
O352 C357 1.254 . S
O353 Zn350 2.031 . S
O353 C357 1.269 . S
O354 Zn351 1.986 . S
O354 C361 1.262 . S
O355 Zn350 2.049 1_554 S
O355 C363 1.260 . S
O356 Zn351 1.996 1_554 S
O356 C363 1.257 . S
C357 O352 1.254 . S
C357 O353 1.269 . S
C358 O359 1.249 . S
C358 O360 1.270 . S
O359 Zn351 1.943 . S
O359 C358 1.249 . S
O360 Zn350 2.067 . S
O360 C358 1.270 . S
C361 O354 1.262 . S
C361 O362 1.232 . S
O362 C361 1.232 . S
C363 O355 1.260 . S
C363 O356 1.257 . S
Zn364 O367 2.031 . S
Zn364 O369 2.049 . S
Zn364 O374 2.067 . S
Zn365 O366 1.962 . S
Zn365 O368 1.986 . S
Zn365 O370 1.996 . S
Zn365 O373 1.943 . S
O366 Zn365 1.962 . S
O366 C371 1.254 . S
O367 Zn364 2.031 . S
O367 C371 1.269 . S
O368 Zn365 1.986 . S
O368 C375 1.262 . S
O369 Zn364 2.049 . S
O369 C377 1.260 . S
O370 Zn365 1.996 . S
O370 C377 1.257 . S
C371 O366 1.254 . S
C371 O367 1.269 . S
C372 O373 1.249 . S
C372 O374 1.270 . S
O373 Zn365 1.943 . S
O373 C372 1.249 . S
O374 Zn364 2.067 . S
O374 C372 1.270 . S
C375 O368 1.262 . S
C375 O376 1.232 . S
O376 C375 1.232 . S
C377 O369 1.260 . S
C377 O370 1.257 . S
Zn378 O381 2.001 1_655 S
Zn378 O383 2.049 . S
Zn378 O388 2.067 . S
Zn379 O380 1.962 1_655 S
Zn379 O382 1.986 . S
Zn379 O384 1.996 . S
Zn379 O387 1.943 . S
O380 Zn379 1.962 1_455 S
O380 C385 1.254 . S
O381 Zn378 2.001 1_455 S
O381 C385 1.312 . S
O382 Zn379 1.986 . S
O382 C389 1.262 . S
O383 Zn378 2.049 . S
O383 C391 1.260 . S
O384 Zn379 1.996 . S
O384 C391 1.257 . S
C385 O380 1.254 . S
C385 O381 1.312 . S
C386 O387 1.249 . S
C386 O388 1.270 . S
O387 Zn379 1.943 . S
O387 C386 1.249 . S
O388 Zn378 2.067 . S
O388 C386 1.270 . S
C389 O382 1.262 . S
C389 O390 1.232 . S
O390 C389 1.232 . S
C391 O383 1.260 . S
C391 O384 1.257 . S
Zn392 O395 2.031 . S
Zn392 O397 2.049 . S
Zn392 O402 2.067 . S
Zn393 O394 1.962 . S
Zn393 O396 1.986 . S
Zn393 O398 1.996 . S
Zn393 O401 1.943 . S
O394 Zn393 1.962 . S
O394 C399 1.254 . S
O395 Zn392 2.031 . S
O395 C399 1.269 . S
O396 Zn393 1.986 . S
O396 C403 1.262 . S
O397 Zn392 2.049 . S
O397 C405 1.260 . S
O398 Zn393 1.996 . S
O398 C405 1.257 . S
C399 O394 1.254 . S
C399 O395 1.269 . S
C400 O401 1.249 . S
C400 O402 1.270 . S
O401 Zn393 1.943 . S
O401 C400 1.249 . S
O402 Zn392 2.067 . S
O402 C400 1.270 . S
C403 O396 1.262 . S
C403 O404 1.232 . S
O404 C403 1.232 . S
C405 O397 1.260 . S
C405 O398 1.257 . S
Zn406 O409 2.001 1_655 S
Zn406 O411 2.049 1_554 S
Zn406 O416 2.067 . S
Zn407 O408 1.962 1_655 S
Zn407 O410 1.986 . S
Zn407 O412 1.996 1_554 S
Zn407 O415 1.943 . S
O408 Zn407 1.962 1_455 S
O408 C413 1.254 . S
O409 Zn406 2.001 1_455 S
O409 C413 1.312 . S
O410 Zn407 1.986 . S
O410 C417 1.262 . S
O411 Zn406 2.049 1_556 S
O411 C419 1.260 . S
O412 Zn407 1.996 1_556 S
O412 C419 1.257 . S
C413 O408 1.254 . S
C413 O409 1.312 . S
C414 O415 1.249 . S
C414 O416 1.270 . S
O415 Zn407 1.943 . S
O415 C414 1.249 . S
O416 Zn406 2.067 . S
O416 C414 1.270 . S
C417 O410 1.262 . S
C417 O418 1.232 . S
O418 C417 1.232 . S
C419 O411 1.260 . S
C419 O412 1.257 . S
Zn420 O423 2.031 . S
Zn420 O425 2.049 . S
Zn420 O430 2.067 . S
Zn421 O422 1.962 . S
Zn421 O424 1.986 . S
Zn421 O426 1.996 . S
Zn421 O429 1.943 . S
O422 Zn421 1.962 . S
O422 C427 1.254 . S
O423 Zn420 2.031 . S
O423 C427 1.269 . S
O424 Zn421 1.986 . S
O424 C431 1.262 . S
O425 Zn420 2.049 . S
O425 C433 1.260 . S
O426 Zn421 1.996 . S
O426 C433 1.257 . S
C427 O422 1.254 . S
C427 O423 1.269 . S
C428 O429 1.249 . S
C428 O430 1.270 . S
O429 Zn421 1.943 . S
O429 C428 1.249 . S
O430 Zn420 2.067 . S
O430 C428 1.270 . S
C431 O424 1.262 . S
C431 O432 1.232 . S
O432 C431 1.232 . S
C433 O425 1.260 . S
C433 O426 1.257 . S
Zn434 O437 2.031 . S
Zn434 O439 2.049 . S
Zn434 O444 2.067 . S
Zn435 O436 1.962 . S
Zn435 O438 1.986 . S
Zn435 O440 1.996 . S
Zn435 O443 1.943 . S
O436 Zn435 1.962 . S
O436 C441 1.254 . S
O437 Zn434 2.031 . S
O437 C441 1.269 . S
O438 Zn435 1.986 . S
O438 C445 1.262 . S
O439 Zn434 2.049 . S
O439 C447 1.260 . S
O440 Zn435 1.996 . S
O440 C447 1.257 . S
C441 O436 1.254 . S
C441 O437 1.269 . S
C442 O443 1.249 . S
C442 O444 1.270 . S
O443 Zn435 1.943 . S
O443 C442 1.249 . S
O444 Zn434 2.067 . S
O444 C442 1.270 . S
C445 O438 1.262 . S
C445 O446 1.232 . S
O446 C445 1.232 . S
C447 O439 1.260 . S
C447 O440 1.257 . S
C448 C449 1.349 . S
C448 C450 1.327 . S
C448 H473 0.950 . S
C449 C448 1.349 . S
C449 C465 1.349 . S
C450 C448 1.327 . S
C450 C469 1.429 . S
C450 H474 0.950 . S
C451 C468 1.574 . S
C451 C470 1.368 . S
C451 H475 0.949 . S
H452 C456 0.949 . S
C453 C454 1.349 . S
C453 C455 1.327 . S
C453 H476 0.950 . S
C454 C453 1.349 . S
C454 C466 1.349 . S
C455 C453 1.327 . S
C455 C471 1.429 . S
C455 H477 0.950 . S
C456 H452 0.949 . S
C456 C464 1.574 . S
C456 C472 1.368 . S
H457 C465 0.950 . S
H458 C463 0.950 . S
H459 C464 0.949 . S
H460 C466 0.950 . S
H461 C467 0.950 . S
H462 C468 0.949 . S
C463 H458 0.950 . S
C463 C465 1.327 . S
C463 C469 1.429 . S
C464 C456 1.574 . S
C464 H459 0.949 . S
C464 C470 1.368 . S
C465 C449 1.349 . S
C465 H457 0.950 . S
C465 C463 1.327 . S
C466 C454 1.349 . S
C466 H460 0.950 . S
C466 C467 1.327 . S
C467 H461 0.950 . S
C467 C466 1.327 . S
C467 C471 1.429 . S
C468 C451 1.574 . S
C468 H462 0.949 . S
C468 C472 1.368 . S
C469 C450 1.429 . S
C469 C463 1.429 . S
C469 C470 1.523 . S
C470 C451 1.368 . S
C470 C464 1.368 . S
C470 C469 1.523 . S
C471 C455 1.429 . S
C471 C467 1.429 . S
C471 C472 1.523 . S
C472 C456 1.368 . S
C472 C468 1.368 . S
C472 C471 1.523 . S
H473 C448 0.950 . S
H474 C450 0.950 . S
H475 C451 0.949 . S
H476 C453 0.950 . S
H477 C455 0.950 . S
C478 C479 1.349 . S
C478 C480 1.327 . S
C478 H503 0.950 . S
C479 C478 1.349 . S
C479 C495 1.349 . S
C480 C478 1.327 . S
C480 C499 1.429 . S
C480 H504 0.950 . S
C481 C498 1.574 . S
C481 C500 1.368 . S
C481 H505 0.949 . S
H482 C486 0.949 . S
C483 C484 1.349 . S
C483 C485 1.327 . S
C483 H506 0.950 . S
C484 C483 1.349 . S
C484 C496 1.349 . S
C485 C483 1.327 . S
C485 C501 1.429 . S
C485 H507 0.950 . S
C486 H482 0.949 . S
C486 C494 1.574 . S
C486 C502 1.368 . S
H487 C495 0.950 . S
H488 C493 0.950 . S
H489 C494 0.949 . S
H490 C496 0.950 . S
H491 C497 0.950 . S
H492 C498 0.949 . S
C493 H488 0.950 . S
C493 C495 1.327 . S
C493 C499 1.429 . S
C494 C486 1.574 . S
C494 H489 0.949 . S
C494 C500 1.368 . S
C495 C479 1.349 . S
C495 H487 0.950 . S
C495 C493 1.327 . S
C496 C484 1.349 . S
C496 H490 0.950 . S
C496 C497 1.327 . S
C497 H491 0.950 . S
C497 C496 1.327 . S
C497 C501 1.429 . S
C498 C481 1.574 . S
C498 H492 0.949 . S
C498 C502 1.368 . S
C499 C480 1.429 . S
C499 C493 1.429 . S
C499 C500 1.523 . S
C500 C481 1.368 . S
C500 C494 1.368 . S
C500 C499 1.523 . S
C501 C485 1.429 . S
C501 C497 1.429 . S
C501 C502 1.523 . S
C502 C486 1.368 . S
C502 C498 1.368 . S
C502 C501 1.523 . S
H503 C478 0.950 . S
H504 C480 0.950 . S
H505 C481 0.949 . S
H506 C483 0.950 . S
H507 C485 0.950 . S
C508 C509 1.349 . S
C508 C510 1.327 . S
C508 H533 0.950 . S
C509 C508 1.349 . S
C509 C525 1.349 . S
C510 C508 1.327 . S
C510 C529 1.429 . S
C510 H534 0.950 . S
C511 C528 1.574 . S
C511 C530 1.368 . S
C511 H535 0.949 . S
H512 C516 0.949 . S
C513 C514 1.349 . S
C513 C515 1.327 . S
C513 H536 0.950 . S
C514 C513 1.349 . S
C514 C526 1.349 . S
C515 C513 1.327 . S
C515 C531 1.429 . S
C515 H537 0.950 . S
C516 H512 0.949 . S
C516 C524 1.574 . S
C516 C532 1.368 . S
H517 C525 0.950 . S
H518 C523 0.950 . S
H519 C524 0.949 . S
H520 C526 0.950 . S
H521 C527 0.950 . S
H522 C528 0.949 . S
C523 H518 0.950 . S
C523 C525 1.327 . S
C523 C529 1.429 . S
C524 C516 1.574 . S
C524 H519 0.949 . S
C524 C530 1.368 . S
C525 C509 1.349 . S
C525 H517 0.950 . S
C525 C523 1.327 . S
C526 C514 1.349 . S
C526 H520 0.950 . S
C526 C527 1.327 . S
C527 H521 0.950 . S
C527 C526 1.327 . S
C527 C531 1.429 . S
C528 C511 1.574 . S
C528 H522 0.949 . S
C528 C532 1.368 . S
C529 C510 1.429 . S
C529 C523 1.429 . S
C529 C530 1.523 . S
C530 C511 1.368 . S
C530 C524 1.368 . S
C530 C529 1.523 . S
C531 C515 1.429 . S
C531 C527 1.429 . S
C531 C532 1.523 . S
C532 C516 1.368 . S
C532 C528 1.368 . S
C532 C531 1.523 . S
H533 C508 0.950 . S
H534 C510 0.950 . S
H535 C511 0.949 . S
H536 C513 0.950 . S
H537 C515 0.950 . S
C538 C539 1.349 . S
C538 C540 1.327 . S
C538 H563 0.950 . S
C539 C538 1.349 . S
C539 C555 1.349 . S
C540 C538 1.327 . S
C540 C559 1.429 . S
C540 H564 0.950 . S
C541 C558 1.574 . S
C541 C560 1.368 . S
C541 H565 0.949 . S
H542 C546 0.949 . S
C543 C544 1.349 . S
C543 C545 1.327 . S
C543 H566 0.950 . S
C544 C543 1.349 . S
C544 C556 1.349 . S
C545 C543 1.327 . S
C545 C561 1.429 . S
C545 H567 0.950 . S
C546 H542 0.949 . S
C546 C554 1.574 . S
C546 C562 1.368 . S
H547 C555 0.950 . S
H548 C553 0.950 . S
H549 C554 0.949 . S
H550 C556 0.950 . S
H551 C557 0.950 . S
H552 C558 0.949 . S
C553 H548 0.950 . S
C553 C555 1.327 . S
C553 C559 1.429 . S
C554 C546 1.574 . S
C554 H549 0.949 . S
C554 C560 1.368 . S
C555 C539 1.349 . S
C555 H547 0.950 . S
C555 C553 1.327 . S
C556 C544 1.349 . S
C556 H550 0.950 . S
C556 C557 1.327 . S
C557 H551 0.950 . S
C557 C556 1.327 . S
C557 C561 1.429 . S
C558 C541 1.574 . S
C558 H552 0.949 . S
C558 C562 1.368 . S
C559 C540 1.429 . S
C559 C553 1.429 . S
C559 C560 1.523 . S
C560 C541 1.368 . S
C560 C554 1.368 . S
C560 C559 1.523 . S
C561 C545 1.429 . S
C561 C557 1.429 . S
C561 C562 1.523 . S
C562 C546 1.368 . S
C562 C558 1.368 . S
C562 C561 1.523 . S
H563 C538 0.950 . S
H564 C540 0.950 . S
H565 C541 0.949 . S
H566 C543 0.950 . S
H567 C545 0.950 . S
C568 C569 1.349 . S
C568 C570 1.327 . S
C568 H593 0.950 . S
C569 C568 1.349 . S
C569 C585 1.349 . S
C570 C568 1.327 . S
C570 C589 1.429 . S
C570 H594 0.950 . S
C571 C588 1.574 . S
C571 C590 1.368 . S
C571 H595 0.949 . S
H572 C576 0.949 . S
C573 C574 1.349 . S
C573 C575 1.327 . S
C573 H596 0.950 . S
C574 C573 1.349 . S
C574 C586 1.349 . S
C575 C573 1.327 . S
C575 C591 1.429 . S
C575 H597 0.950 . S
C576 H572 0.949 . S
C576 C584 1.574 . S
C576 C592 1.368 . S
H577 C585 0.950 . S
H578 C583 0.950 . S
H579 C584 0.949 . S
H580 C586 0.950 . S
H581 C587 0.950 . S
H582 C588 0.949 . S
C583 H578 0.950 . S
C583 C585 1.327 . S
C583 C589 1.429 . S
C584 C576 1.574 . S
C584 H579 0.949 . S
C584 C590 1.368 . S
C585 C569 1.349 . S
C585 H577 0.950 . S
C585 C583 1.327 . S
C586 C574 1.349 . S
C586 H580 0.950 . S
C586 C587 1.327 . S
C587 H581 0.950 . S
C587 C586 1.327 . S
C587 C591 1.429 . S
C588 C571 1.574 . S
C588 H582 0.949 . S
C588 C592 1.368 . S
C589 C570 1.429 . S
C589 C583 1.429 . S
C589 C590 1.523 . S
C590 C571 1.368 . S
C590 C584 1.368 . S
C590 C589 1.523 . S
C591 C575 1.429 . S
C591 C587 1.429 . S
C591 C592 1.523 . S
C592 C576 1.368 . S
C592 C588 1.368 . S
C592 C591 1.523 . S
H593 C568 0.950 . S
H594 C570 0.950 . S
H595 C571 0.949 . S
H596 C573 0.950 . S
H597 C575 0.950 . S
C598 C599 1.349 . S
C598 C600 1.327 . S
C598 H623 0.950 . S
C599 C598 1.349 . S
C599 C615 1.349 . S
C600 C598 1.327 . S
C600 C619 1.429 . S
C600 H624 0.950 . S
C601 C618 1.574 . S
C601 C620 1.368 . S
C601 H625 0.949 . S
H602 C606 0.949 . S
C603 C604 1.349 . S
C603 C605 1.327 . S
C603 H626 0.950 . S
C604 C603 1.349 . S
C604 C616 1.349 . S
C605 C603 1.327 . S
C605 C621 1.429 . S
C605 H627 0.950 . S
C606 H602 0.949 . S
C606 C614 1.574 . S
C606 C622 1.368 . S
H607 C615 0.950 . S
H608 C613 0.950 . S
H609 C614 0.949 . S
H610 C616 0.950 . S
H611 C617 0.950 . S
H612 C618 0.949 . S
C613 H608 0.950 . S
C613 C615 1.327 . S
C613 C619 1.429 . S
C614 C606 1.574 . S
C614 H609 0.949 . S
C614 C620 1.368 . S
C615 C599 1.349 . S
C615 H607 0.950 . S
C615 C613 1.327 . S
C616 C604 1.349 . S
C616 H610 0.950 . S
C616 C617 1.327 . S
C617 H611 0.950 . S
C617 C616 1.327 . S
C617 C621 1.429 . S
C618 C601 1.574 . S
C618 H612 0.949 . S
C618 C622 1.368 . S
C619 C600 1.429 . S
C619 C613 1.429 . S
C619 C620 1.523 . S
C620 C601 1.368 . S
C620 C614 1.368 . S
C620 C619 1.523 . S
C621 C605 1.429 . S
C621 C617 1.429 . S
C621 C622 1.523 . S
C622 C606 1.368 . S
C622 C618 1.368 . S
C622 C621 1.523 . S
H623 C598 0.950 . S
H624 C600 0.950 . S
H625 C601 0.949 . S
H626 C603 0.950 . S
H627 C605 0.950 . S
C628 C629 1.349 . S
C628 C630 1.327 . S
C628 H653 0.950 . S
C629 C628 1.349 . S
C629 C645 1.349 . S
C630 C628 1.327 . S
C630 C649 1.429 . S
C630 H654 0.950 . S
C631 C648 1.574 . S
C631 C650 1.368 . S
C631 H655 0.949 . S
H632 C636 0.949 . S
C633 C634 1.349 . S
C633 C635 1.327 . S
C633 H656 0.950 . S
C634 C633 1.349 . S
C634 C646 1.349 . S
C635 C633 1.327 . S
C635 C651 1.429 . S
C635 H657 0.950 . S
C636 H632 0.949 . S
C636 C644 1.574 . S
C636 C652 1.368 . S
H637 C645 0.950 . S
H638 C643 0.950 . S
H639 C644 0.949 . S
H640 C646 0.950 . S
H641 C647 0.950 . S
H642 C648 0.949 . S
C643 H638 0.950 . S
C643 C645 1.327 . S
C643 C649 1.429 . S
C644 C636 1.574 . S
C644 H639 0.949 . S
C644 C650 1.368 . S
C645 C629 1.349 . S
C645 H637 0.950 . S
C645 C643 1.327 . S
C646 C634 1.349 . S
C646 H640 0.950 . S
C646 C647 1.327 . S
C647 H641 0.950 . S
C647 C646 1.327 . S
C647 C651 1.429 . S
C648 C631 1.574 . S
C648 H642 0.949 . S
C648 C652 1.368 . S
C649 C630 1.429 . S
C649 C643 1.429 . S
C649 C650 1.523 . S
C650 C631 1.368 . S
C650 C644 1.368 . S
C650 C649 1.523 . S
C651 C635 1.429 . S
C651 C647 1.429 . S
C651 C652 1.523 . S
C652 C636 1.368 . S
C652 C648 1.368 . S
C652 C651 1.523 . S
H653 C628 0.950 . S
H654 C630 0.950 . S
H655 C631 0.949 . S
H656 C633 0.950 . S
H657 C635 0.950 . S
C658 C659 1.349 . S
C658 C660 1.327 . S
C658 H683 0.950 . S
C659 C658 1.349 . S
C659 C675 1.349 . S
C660 C658 1.327 . S
C660 C679 1.429 . S
C660 H684 0.950 . S
C661 C678 1.574 . S
C661 C680 1.368 . S
C661 H685 0.949 . S
H662 C666 0.949 . S
C663 C664 1.349 . S
C663 C665 1.327 . S
C663 H686 0.950 . S
C664 C663 1.349 . S
C664 C676 1.349 . S
C665 C663 1.327 . S
C665 C681 1.429 . S
C665 H687 0.950 . S
C666 H662 0.949 . S
C666 C674 1.574 . S
C666 C682 1.368 . S
H667 C675 0.950 . S
H668 C673 0.950 . S
H669 C674 0.949 . S
H670 C676 0.950 . S
H671 C677 0.950 . S
H672 C678 0.949 . S
C673 H668 0.950 . S
C673 C675 1.327 . S
C673 C679 1.429 . S
C674 C666 1.574 . S
C674 H669 0.949 . S
C674 C680 1.368 . S
C675 C659 1.349 . S
C675 H667 0.950 . S
C675 C673 1.327 . S
C676 C664 1.349 . S
C676 H670 0.950 . S
C676 C677 1.327 . S
C677 H671 0.950 . S
C677 C676 1.327 . S
C677 C681 1.429 . S
C678 C661 1.574 . S
C678 H672 0.949 . S
C678 C682 1.368 . S
C679 C660 1.429 . S
C679 C673 1.429 . S
C679 C680 1.523 . S
C680 C661 1.368 . S
C680 C674 1.368 . S
C680 C679 1.523 . S
C681 C665 1.429 . S
C681 C677 1.429 . S
C681 C682 1.523 . S
C682 C666 1.368 . S
C682 C678 1.368 . S
C682 C681 1.523 . S
H683 C658 0.950 . S
H684 C660 0.950 . S
H685 C661 0.949 . S
H686 C663 0.950 . S
H687 C665 0.950 . S
C688 C689 1.349 . S
C688 C690 1.327 . S
C688 H713 0.950 . S
C689 C688 1.349 . S
C689 C705 1.349 . S
C690 C688 1.327 . S
C690 C709 1.429 . S
C690 H714 0.950 . S
C691 C708 1.574 . S
C691 C710 1.368 . S
C691 H715 0.949 . S
H692 C696 0.949 . S
C693 C694 1.349 . S
C693 C695 1.327 . S
C693 H716 0.950 . S
C694 C693 1.349 . S
C694 C706 1.349 . S
C695 C693 1.327 . S
C695 C711 1.429 . S
C695 H717 0.950 . S
C696 H692 0.949 . S
C696 C704 1.574 . S
C696 C712 1.368 . S
H697 C705 0.950 . S
H698 C703 0.950 . S
H699 C704 0.949 . S
H700 C706 0.950 . S
H701 C707 0.950 . S
H702 C708 0.949 . S
C703 H698 0.950 . S
C703 C705 1.327 . S
C703 C709 1.429 . S
C704 C696 1.574 . S
C704 H699 0.949 . S
C704 C710 1.368 . S
C705 C689 1.349 . S
C705 H697 0.950 . S
C705 C703 1.327 . S
C706 C694 1.349 . S
C706 H700 0.950 . S
C706 C707 1.327 . S
C707 H701 0.950 . S
C707 C706 1.327 . S
C707 C711 1.429 . S
C708 C691 1.574 . S
C708 H702 0.949 . S
C708 C712 1.368 . S
C709 C690 1.429 . S
C709 C703 1.429 . S
C709 C710 1.523 . S
C710 C691 1.368 . S
C710 C704 1.368 . S
C710 C709 1.523 . S
C711 C695 1.429 . S
C711 C707 1.429 . S
C711 C712 1.523 . S
C712 C696 1.368 . S
C712 C708 1.368 . S
C712 C711 1.523 . S
H713 C688 0.950 . S
H714 C690 0.950 . S
H715 C691 0.949 . S
H716 C693 0.950 . S
H717 C695 0.950 . S
C718 C719 1.349 . S
C718 C720 1.327 . S
C718 H743 0.950 . S
C719 C718 1.349 . S
C719 C735 1.349 . S
C720 C718 1.327 . S
C720 C739 1.429 . S
C720 H744 0.950 . S
C721 C738 1.574 . S
C721 C740 1.368 . S
C721 H745 0.949 . S
H722 C726 0.949 . S
C723 C724 1.349 . S
C723 C725 1.327 . S
C723 H746 0.950 . S
C724 C723 1.349 . S
C724 C736 1.349 . S
C725 C723 1.327 . S
C725 C741 1.429 . S
C725 H747 0.950 . S
C726 H722 0.949 . S
C726 C734 1.574 . S
C726 C742 1.368 . S
H727 C735 0.950 . S
H728 C733 0.950 . S
H729 C734 0.949 . S
H730 C736 0.950 . S
H731 C737 0.950 . S
H732 C738 0.949 . S
C733 H728 0.950 . S
C733 C735 1.327 . S
C733 C739 1.429 . S
C734 C726 1.574 . S
C734 H729 0.949 . S
C734 C740 1.368 . S
C735 C719 1.349 . S
C735 H727 0.950 . S
C735 C733 1.327 . S
C736 C724 1.349 . S
C736 H730 0.950 . S
C736 C737 1.327 . S
C737 H731 0.950 . S
C737 C736 1.327 . S
C737 C741 1.429 . S
C738 C721 1.574 . S
C738 H732 0.949 . S
C738 C742 1.368 . S
C739 C720 1.429 . S
C739 C733 1.429 . S
C739 C740 1.523 . S
C740 C721 1.368 . S
C740 C734 1.368 . S
C740 C739 1.523 . S
C741 C725 1.429 . S
C741 C737 1.429 . S
C741 C742 1.523 . S
C742 C726 1.368 . S
C742 C738 1.368 . S
C742 C741 1.523 . S
H743 C718 0.950 . S
H744 C720 0.950 . S
H745 C721 0.949 . S
H746 C723 0.950 . S
H747 C725 0.950 . S
C748 C749 1.349 . S
C748 C750 1.327 . S
C748 H773 0.950 . S
C749 C748 1.349 . S
C749 C765 1.349 . S
C750 C748 1.327 . S
C750 C769 1.429 . S
C750 H774 0.950 . S
C751 C768 1.574 . S
C751 C770 1.368 . S
C751 H775 0.949 . S
H752 C756 0.949 . S
C753 C754 1.349 . S
C753 C755 1.327 . S
C753 H776 0.950 . S
C754 C753 1.349 . S
C754 C766 1.349 . S
C755 C753 1.327 . S
C755 C771 1.429 . S
C755 H777 0.950 . S
C756 H752 0.949 . S
C756 C764 1.574 . S
C756 C772 1.368 . S
H757 C765 0.950 . S
H758 C763 0.950 . S
H759 C764 0.949 . S
H760 C766 0.950 . S
H761 C767 0.950 . S
H762 C768 0.949 . S
C763 H758 0.950 . S
C763 C765 1.327 . S
C763 C769 1.429 . S
C764 C756 1.574 . S
C764 H759 0.949 . S
C764 C770 1.368 . S
C765 C749 1.349 . S
C765 H757 0.950 . S
C765 C763 1.327 . S
C766 C754 1.349 . S
C766 H760 0.950 . S
C766 C767 1.327 . S
C767 H761 0.950 . S
C767 C766 1.327 . S
C767 C771 1.429 . S
C768 C751 1.574 . S
C768 H762 0.949 . S
C768 C772 1.368 . S
C769 C750 1.429 . S
C769 C763 1.429 . S
C769 C770 1.523 . S
C770 C751 1.368 . S
C770 C764 1.368 . S
C770 C769 1.523 . S
C771 C755 1.429 . S
C771 C767 1.429 . S
C771 C772 1.523 . S
C772 C756 1.368 . S
C772 C768 1.368 . S
C772 C771 1.523 . S
H773 C748 0.950 . S
H774 C750 0.950 . S
H775 C751 0.949 . S
H776 C753 0.950 . S
H777 C755 0.950 . S
C778 C779 1.349 . S
C778 C780 1.327 . S
C778 H803 0.950 . S
C779 C778 1.349 . S
C779 C795 1.349 . S
C780 C778 1.327 . S
C780 C799 1.429 . S
C780 H804 0.950 . S
C781 C798 1.574 . S
C781 C800 1.368 . S
C781 H805 0.949 . S
H782 C786 0.949 . S
C783 C784 1.349 . S
C783 C785 1.327 . S
C783 H806 0.950 . S
C784 C783 1.349 . S
C784 C796 1.349 . S
C785 C783 1.327 . S
C785 C801 1.429 . S
C785 H807 0.950 . S
C786 H782 0.949 . S
C786 C794 1.574 . S
C786 C802 1.368 . S
H787 C795 0.950 . S
H788 C793 0.950 . S
H789 C794 0.949 . S
H790 C796 0.950 . S
H791 C797 0.950 . S
H792 C798 0.949 . S
C793 H788 0.950 . S
C793 C795 1.327 . S
C793 C799 1.429 . S
C794 C786 1.574 . S
C794 H789 0.949 . S
C794 C800 1.368 . S
C795 C779 1.349 . S
C795 H787 0.950 . S
C795 C793 1.327 . S
C796 C784 1.349 . S
C796 H790 0.950 . S
C796 C797 1.327 . S
C797 H791 0.950 . S
C797 C796 1.327 . S
C797 C801 1.429 . S
C798 C781 1.574 . S
C798 H792 0.949 . S
C798 C802 1.368 . S
C799 C780 1.429 . S
C799 C793 1.429 . S
C799 C800 1.523 . S
C800 C781 1.368 . S
C800 C794 1.368 . S
C800 C799 1.523 . S
C801 C785 1.429 . S
C801 C797 1.429 . S
C801 C802 1.523 . S
C802 C786 1.368 . S
C802 C798 1.368 . S
C802 C801 1.523 . S
H803 C778 0.950 . S
H804 C780 0.950 . S
H805 C781 0.949 . S
H806 C783 0.950 . S
H807 C785 0.950 . S
C808 C809 1.349 . S
C808 C810 1.327 . S
C808 H833 0.950 . S
C809 C808 1.349 . S
C809 C825 1.349 . S
C810 C808 1.327 . S
C810 C829 1.429 . S
C810 H834 0.950 . S
C811 C828 1.574 . S
C811 C830 1.368 . S
C811 H835 0.949 . S
H812 C816 0.949 . S
C813 C814 1.349 . S
C813 C815 1.327 . S
C813 H836 0.950 . S
C814 C813 1.349 . S
C814 C826 1.349 . S
C815 C813 1.327 . S
C815 C831 1.429 . S
C815 H837 0.950 . S
C816 H812 0.949 . S
C816 C824 1.574 . S
C816 C832 1.368 . S
H817 C825 0.950 . S
H818 C823 0.950 . S
H819 C824 0.949 . S
H820 C826 0.950 . S
H821 C827 0.950 . S
H822 C828 0.949 . S
C823 H818 0.950 . S
C823 C825 1.327 . S
C823 C829 1.429 . S
C824 C816 1.574 . S
C824 H819 0.949 . S
C824 C830 1.368 . S
C825 C809 1.349 . S
C825 H817 0.950 . S
C825 C823 1.327 . S
C826 C814 1.349 . S
C826 H820 0.950 . S
C826 C827 1.327 . S
C827 H821 0.950 . S
C827 C826 1.327 . S
C827 C831 1.429 . S
C828 C811 1.574 . S
C828 H822 0.949 . S
C828 C832 1.368 . S
C829 C810 1.429 . S
C829 C823 1.429 . S
C829 C830 1.523 . S
C830 C811 1.368 . S
C830 C824 1.368 . S
C830 C829 1.523 . S
C831 C815 1.429 . S
C831 C827 1.429 . S
C831 C832 1.523 . S
C832 C816 1.368 . S
C832 C828 1.368 . S
C832 C831 1.523 . S
H833 C808 0.950 . S
H834 C810 0.950 . S
H835 C811 0.949 . S
H836 C813 0.950 . S
H837 C815 0.950 . S
C838 C839 1.349 . S
C838 C840 1.327 . S
C838 H863 0.950 . S
C839 C838 1.349 . S
C839 C855 1.349 . S
C840 C838 1.327 . S
C840 C859 1.429 . S
C840 H864 0.950 . S
C841 C858 1.574 . S
C841 C860 1.368 . S
C841 H865 0.949 . S
H842 C846 0.949 . S
C843 C844 1.349 . S
C843 C845 1.327 . S
C843 H866 0.950 . S
C844 C843 1.349 . S
C844 C856 1.349 . S
C845 C843 1.327 . S
C845 C861 1.429 . S
C845 H867 0.950 . S
C846 H842 0.949 . S
C846 C854 1.574 . S
C846 C862 1.368 . S
H847 C855 0.950 . S
H848 C853 0.950 . S
H849 C854 0.949 . S
H850 C856 0.950 . S
H851 C857 0.950 . S
H852 C858 0.949 . S
C853 H848 0.950 . S
C853 C855 1.327 . S
C853 C859 1.429 . S
C854 C846 1.574 . S
C854 H849 0.949 . S
C854 C860 1.368 . S
C855 C839 1.349 . S
C855 H847 0.950 . S
C855 C853 1.327 . S
C856 C844 1.349 . S
C856 H850 0.950 . S
C856 C857 1.327 . S
C857 H851 0.950 . S
C857 C856 1.327 . S
C857 C861 1.429 . S
C858 C841 1.574 . S
C858 H852 0.949 . S
C858 C862 1.368 . S
C859 C840 1.429 . S
C859 C853 1.429 . S
C859 C860 1.523 . S
C860 C841 1.368 . S
C860 C854 1.368 . S
C860 C859 1.523 . S
C861 C845 1.429 . S
C861 C857 1.429 . S
C861 C862 1.523 . S
C862 C846 1.368 . S
C862 C858 1.368 . S
C862 C861 1.523 . S
H863 C838 0.950 . S
H864 C840 0.950 . S
H865 C841 0.949 . S
H866 C843 0.950 . S
H867 C845 0.950 . S
C868 C869 1.349 . S
C868 C870 1.327 . S
C868 H893 0.950 . S
C869 C868 1.349 . S
C869 C885 1.349 . S
C870 C868 1.327 . S
C870 C889 1.429 . S
C870 H894 0.950 . S
C871 C888 1.574 . S
C871 C890 1.368 . S
C871 H895 0.949 . S
H872 C876 0.949 . S
C873 C874 1.349 . S
C873 C875 1.327 . S
C873 H896 0.950 . S
C874 C873 1.349 . S
C874 C886 1.349 . S
C875 C873 1.327 . S
C875 C891 1.429 . S
C875 H897 0.950 . S
C876 H872 0.949 . S
C876 C884 1.574 . S
C876 C892 1.368 . S
H877 C885 0.950 . S
H878 C883 0.950 . S
H879 C884 0.949 . S
H880 C886 0.950 . S
H881 C887 0.950 . S
H882 C888 0.949 . S
C883 H878 0.950 . S
C883 C885 1.327 . S
C883 C889 1.429 . S
C884 C876 1.574 . S
C884 H879 0.949 . S
C884 C890 1.368 . S
C885 C869 1.349 . S
C885 H877 0.950 . S
C885 C883 1.327 . S
C886 C874 1.349 . S
C886 H880 0.950 . S
C886 C887 1.327 . S
C887 H881 0.950 . S
C887 C886 1.327 . S
C887 C891 1.429 . S
C888 C871 1.574 . S
C888 H882 0.949 . S
C888 C892 1.368 . S
C889 C870 1.429 . S
C889 C883 1.429 . S
C889 C890 1.523 . S
C890 C871 1.368 . S
C890 C884 1.368 . S
C890 C889 1.523 . S
C891 C875 1.429 . S
C891 C887 1.429 . S
C891 C892 1.523 . S
C892 C876 1.368 . S
C892 C888 1.368 . S
C892 C891 1.523 . S
H893 C868 0.950 . S
H894 C870 0.950 . S
H895 C871 0.949 . S
H896 C873 0.950 . S
H897 C875 0.950 . S
C898 C899 1.349 . S
C898 C900 1.327 . S
C898 H923 0.950 . S
C899 C898 1.349 . S
C899 C915 1.349 . S
C900 C898 1.327 . S
C900 C919 1.429 . S
C900 H924 0.950 . S
C901 C918 1.574 . S
C901 C920 1.368 . S
C901 H925 0.949 . S
H902 C906 0.949 . S
C903 C904 1.349 . S
C903 C905 1.327 . S
C903 H926 0.950 . S
C904 C903 1.349 . S
C904 C916 1.349 . S
C905 C903 1.327 . S
C905 C921 1.429 . S
C905 H927 0.950 . S
C906 H902 0.949 . S
C906 C914 1.574 . S
C906 C922 1.368 . S
H907 C915 0.950 . S
H908 C913 0.950 . S
H909 C914 0.949 . S
H910 C916 0.950 . S
H911 C917 0.950 . S
H912 C918 0.949 . S
C913 H908 0.950 . S
C913 C915 1.327 . S
C913 C919 1.429 . S
C914 C906 1.574 . S
C914 H909 0.949 . S
C914 C920 1.368 . S
C915 C899 1.349 . S
C915 H907 0.950 . S
C915 C913 1.327 . S
C916 C904 1.349 . S
C916 H910 0.950 . S
C916 C917 1.327 . S
C917 H911 0.950 . S
C917 C916 1.327 . S
C917 C921 1.429 . S
C918 C901 1.574 . S
C918 H912 0.949 . S
C918 C922 1.368 . S
C919 C900 1.429 . S
C919 C913 1.429 . S
C919 C920 1.523 . S
C920 C901 1.368 . S
C920 C914 1.368 . S
C920 C919 1.523 . S
C921 C905 1.429 . S
C921 C917 1.429 . S
C921 C922 1.523 . S
C922 C906 1.368 . S
C922 C918 1.368 . S
C922 C921 1.523 . S
H923 C898 0.950 . S
H924 C900 0.950 . S
H925 C901 0.949 . S
H926 C903 0.950 . S
H927 C905 0.950 . S
C928 C929 1.349 . S
C928 C930 1.327 . S
C928 H953 0.950 . S
C929 C928 1.349 . S
C929 C945 1.349 . S
C930 C928 1.327 . S
C930 C949 1.429 . S
C930 H954 0.950 . S
C931 C948 1.574 . S
C931 C950 1.368 . S
C931 H955 0.949 . S
H932 C936 0.949 . S
C933 C934 1.349 . S
C933 C935 1.327 . S
C933 H956 0.950 . S
C934 C933 1.349 . S
C934 C946 1.349 . S
C935 C933 1.327 . S
C935 C951 1.429 . S
C935 H957 0.950 . S
C936 H932 0.949 . S
C936 C944 1.574 . S
C936 C952 1.368 . S
H937 C945 0.950 . S
H938 C943 0.950 . S
H939 C944 0.949 . S
H940 C946 0.950 . S
H941 C947 0.950 . S
H942 C948 0.949 . S
C943 H938 0.950 . S
C943 C945 1.327 . S
C943 C949 1.429 . S
C944 C936 1.574 . S
C944 H939 0.949 . S
C944 C950 1.368 . S
C945 C929 1.349 . S
C945 H937 0.950 . S
C945 C943 1.327 . S
C946 C934 1.349 . S
C946 H940 0.950 . S
C946 C947 1.327 . S
C947 H941 0.950 . S
C947 C946 1.327 . S
C947 C951 1.429 . S
C948 C931 1.574 . S
C948 H942 0.949 . S
C948 C952 1.368 . S
C949 C930 1.429 . S
C949 C943 1.429 . S
C949 C950 1.523 . S
C950 C931 1.368 . S
C950 C944 1.368 . S
C950 C949 1.523 . S
C951 C935 1.429 . S
C951 C947 1.429 . S
C951 C952 1.523 . S
C952 C936 1.368 . S
C952 C948 1.368 . S
C952 C951 1.523 . S
H953 C928 0.950 . S
H954 C930 0.950 . S
H955 C931 0.949 . S
H956 C933 0.950 . S
H957 C935 0.950 . S
C958 C959 1.349 . S
C958 C960 1.327 . S
C958 H983 0.950 . S
C959 C958 1.349 . S
C959 C975 1.349 . S
C960 C958 1.327 . S
C960 C979 1.429 . S
C960 H984 0.950 . S
C961 C978 1.574 . S
C961 C980 1.368 . S
C961 H985 0.949 . S
H962 C966 0.949 . S
C963 C964 1.349 . S
C963 C965 1.327 . S
C963 H986 0.950 . S
C964 C963 1.349 . S
C964 C976 1.349 . S
C965 C963 1.327 . S
C965 C981 1.429 . S
C965 H987 0.950 . S
C966 H962 0.949 . S
C966 C974 1.574 . S
C966 C982 1.368 . S
H967 C975 0.950 . S
H968 C973 0.950 . S
H969 C974 0.949 . S
H970 C976 0.950 . S
H971 C977 0.950 . S
H972 C978 0.949 . S
C973 H968 0.950 . S
C973 C975 1.327 . S
C973 C979 1.429 . S
C974 C966 1.574 . S
C974 H969 0.949 . S
C974 C980 1.368 . S
C975 C959 1.349 . S
C975 H967 0.950 . S
C975 C973 1.327 . S
C976 C964 1.349 . S
C976 H970 0.950 . S
C976 C977 1.327 . S
C977 H971 0.950 . S
C977 C976 1.327 . S
C977 C981 1.429 . S
C978 C961 1.574 . S
C978 H972 0.949 . S
C978 C982 1.368 . S
C979 C960 1.429 . S
C979 C973 1.429 . S
C979 C980 1.523 . S
C980 C961 1.368 . S
C980 C974 1.368 . S
C980 C979 1.523 . S
C981 C965 1.429 . S
C981 C977 1.429 . S
C981 C982 1.523 . S
C982 C966 1.368 . S
C982 C978 1.368 . S
C982 C981 1.523 . S
H983 C958 0.950 . S
H984 C960 0.950 . S
H985 C961 0.949 . S
H986 C963 0.950 . S
H987 C965 0.950 . S
C988 C989 1.349 . S
C988 C990 1.327 . S
C988 H1013 0.950 . S
C989 C988 1.349 . S
C989 C1005 1.349 . S
C990 C988 1.327 . S
C990 C1009 1.429 . S
C990 H1014 0.950 . S
C991 C1008 1.574 . S
C991 C1010 1.368 . S
C991 H1015 0.949 . S
H992 C996 0.949 . S
C993 C994 1.349 . S
C993 C995 1.327 . S
C993 H1016 0.950 . S
C994 C993 1.349 . S
C994 C1006 1.349 . S
C995 C993 1.327 . S
C995 C1011 1.429 . S
C995 H1017 0.950 . S
C996 H992 0.949 . S
C996 C1004 1.574 . S
C996 C1012 1.368 . S
H997 C1005 0.950 . S
H998 C1003 0.950 . S
H999 C1004 0.949 . S
H1000 C1006 0.950 . S
H1001 C1007 0.950 . S
H1002 C1008 0.949 . S
C1003 H998 0.950 . S
C1003 C1005 1.327 . S
C1003 C1009 1.429 . S
C1004 C996 1.574 . S
C1004 H999 0.949 . S
C1004 C1010 1.368 . S
C1005 C989 1.349 . S
C1005 H997 0.950 . S
C1005 C1003 1.327 . S
C1006 C994 1.349 . S
C1006 H1000 0.950 . S
C1006 C1007 1.327 . S
C1007 H1001 0.950 . S
C1007 C1006 1.327 . S
C1007 C1011 1.429 . S
C1008 C991 1.574 . S
C1008 H1002 0.949 . S
C1008 C1012 1.368 . S
C1009 C990 1.429 . S
C1009 C1003 1.429 . S
C1009 C1010 1.523 . S
C1010 C991 1.368 . S
C1010 C1004 1.368 . S
C1010 C1009 1.523 . S
C1011 C995 1.429 . S
C1011 C1007 1.429 . S
C1011 C1012 1.523 . S
C1012 C996 1.368 . S
C1012 C1008 1.368 . S
C1012 C1011 1.523 . S
H1013 C988 0.950 . S
H1014 C990 0.950 . S
H1015 C991 0.949 . S
H1016 C993 0.950 . S
H1017 C995 0.950 . S
C1018 C1019 1.349 . S
C1018 C1020 1.327 . S
C1018 H1043 0.950 . S
C1019 C1018 1.349 . S
C1019 C1035 1.349 . S
C1020 C1018 1.327 . S
C1020 C1039 1.429 . S
C1020 H1044 0.950 . S
C1021 C1038 1.574 . S
C1021 C1040 1.368 . S
C1021 H1045 0.949 . S
H1022 C1026 0.949 . S
C1023 C1024 1.349 . S
C1023 C1025 1.327 . S
C1023 H1046 0.950 . S
C1024 C1023 1.349 . S
C1024 C1036 1.349 . S
C1025 C1023 1.327 . S
C1025 C1041 1.429 . S
C1025 H1047 0.950 . S
C1026 H1022 0.949 . S
C1026 C1034 1.574 . S
C1026 C1042 1.368 . S
H1027 C1035 0.950 . S
H1028 C1033 0.950 . S
H1029 C1034 0.949 . S
H1030 C1036 0.950 . S
H1031 C1037 0.950 . S
H1032 C1038 0.949 . S
C1033 H1028 0.950 . S
C1033 C1035 1.327 . S
C1033 C1039 1.429 . S
C1034 C1026 1.574 . S
C1034 H1029 0.949 . S
C1034 C1040 1.368 . S
C1035 C1019 1.349 . S
C1035 H1027 0.950 . S
C1035 C1033 1.327 . S
C1036 C1024 1.349 . S
C1036 H1030 0.950 . S
C1036 C1037 1.327 . S
C1037 H1031 0.950 . S
C1037 C1036 1.327 . S
C1037 C1041 1.429 . S
C1038 C1021 1.574 . S
C1038 H1032 0.949 . S
C1038 C1042 1.368 . S
C1039 C1020 1.429 . S
C1039 C1033 1.429 . S
C1039 C1040 1.523 . S
C1040 C1021 1.368 . S
C1040 C1034 1.368 . S
C1040 C1039 1.523 . S
C1041 C1025 1.429 . S
C1041 C1037 1.429 . S
C1041 C1042 1.523 . S
C1042 C1026 1.368 . S
C1042 C1038 1.368 . S
C1042 C1041 1.523 . S
H1043 C1018 0.950 . S
H1044 C1020 0.950 . S
H1045 C1021 0.949 . S
H1046 C1023 0.950 . S
H1047 C1025 0.950 . S
C1048 C1049 1.349 . S
C1048 C1050 1.327 . S
C1048 H1073 0.950 . S
C1049 C1048 1.349 . S
C1049 C1065 1.349 . S
C1050 C1048 1.327 . S
C1050 C1069 1.429 . S
C1050 H1074 0.950 . S
C1051 C1068 1.574 . S
C1051 C1070 1.368 . S
C1051 H1075 0.949 . S
H1052 C1056 0.949 . S
C1053 C1054 1.349 . S
C1053 C1055 1.327 . S
C1053 H1076 0.950 . S
C1054 C1053 1.349 . S
C1054 C1066 1.349 . S
C1055 C1053 1.327 . S
C1055 C1071 1.429 . S
C1055 H1077 0.950 . S
C1056 H1052 0.949 . S
C1056 C1064 1.574 . S
C1056 C1072 1.368 . S
H1057 C1065 0.950 . S
H1058 C1063 0.950 . S
H1059 C1064 0.949 . S
H1060 C1066 0.950 . S
H1061 C1067 0.950 . S
H1062 C1068 0.949 . S
C1063 H1058 0.950 . S
C1063 C1065 1.327 . S
C1063 C1069 1.429 . S
C1064 C1056 1.574 . S
C1064 H1059 0.949 . S
C1064 C1070 1.368 . S
C1065 C1049 1.349 . S
C1065 H1057 0.950 . S
C1065 C1063 1.327 . S
C1066 C1054 1.349 . S
C1066 H1060 0.950 . S
C1066 C1067 1.327 . S
C1067 H1061 0.950 . S
C1067 C1066 1.327 . S
C1067 C1071 1.429 . S
C1068 C1051 1.574 . S
C1068 H1062 0.949 . S
C1068 C1072 1.368 . S
C1069 C1050 1.429 . S
C1069 C1063 1.429 . S
C1069 C1070 1.523 . S
C1070 C1051 1.368 . S
C1070 C1064 1.368 . S
C1070 C1069 1.523 . S
C1071 C1055 1.429 . S
C1071 C1067 1.429 . S
C1071 C1072 1.523 . S
C1072 C1056 1.368 . S
C1072 C1068 1.368 . S
C1072 C1071 1.523 . S
H1073 C1048 0.950 . S
H1074 C1050 0.950 . S
H1075 C1051 0.949 . S
H1076 C1053 0.950 . S
H1077 C1055 0.950 . S
C1078 C1079 1.349 . S
C1078 C1080 1.327 . S
C1078 H1103 0.950 . S
C1079 C1078 1.349 . S
C1079 C1095 1.349 . S
C1080 C1078 1.327 . S
C1080 C1099 1.429 . S
C1080 H1104 0.950 . S
C1081 C1098 1.574 . S
C1081 C1100 1.368 . S
C1081 H1105 0.949 . S
H1082 C1086 0.949 . S
C1083 C1084 1.349 . S
C1083 C1085 1.327 . S
C1083 H1106 0.950 . S
C1084 C1083 1.349 . S
C1084 C1096 1.349 . S
C1085 C1083 1.327 . S
C1085 C1101 1.429 . S
C1085 H1107 0.950 . S
C1086 H1082 0.949 . S
C1086 C1094 1.574 . S
C1086 C1102 1.368 . S
H1087 C1095 0.950 . S
H1088 C1093 0.950 . S
H1089 C1094 0.949 . S
H1090 C1096 0.950 . S
H1091 C1097 0.950 . S
H1092 C1098 0.949 . S
C1093 H1088 0.950 . S
C1093 C1095 1.327 . S
C1093 C1099 1.429 . S
C1094 C1086 1.574 . S
C1094 H1089 0.949 . S
C1094 C1100 1.368 . S
C1095 C1079 1.349 . S
C1095 H1087 0.950 . S
C1095 C1093 1.327 . S
C1096 C1084 1.349 . S
C1096 H1090 0.950 . S
C1096 C1097 1.327 . S
C1097 H1091 0.950 . S
C1097 C1096 1.327 . S
C1097 C1101 1.429 . S
C1098 C1081 1.574 . S
C1098 H1092 0.949 . S
C1098 C1102 1.368 . S
C1099 C1080 1.429 . S
C1099 C1093 1.429 . S
C1099 C1100 1.523 . S
C1100 C1081 1.368 . S
C1100 C1094 1.368 . S
C1100 C1099 1.523 . S
C1101 C1085 1.429 . S
C1101 C1097 1.429 . S
C1101 C1102 1.523 . S
C1102 C1086 1.368 . S
C1102 C1098 1.368 . S
C1102 C1101 1.523 . S
H1103 C1078 0.950 . S
H1104 C1080 0.950 . S
H1105 C1081 0.949 . S
H1106 C1083 0.950 . S
H1107 C1085 0.950 . S
C1108 C1109 1.349 . S
C1108 C1110 1.327 . S
C1108 H1133 0.950 . S
C1109 C1108 1.349 . S
C1109 C1125 1.349 . S
C1110 C1108 1.327 . S
C1110 C1129 1.429 . S
C1110 H1134 0.950 . S
C1111 C1128 1.574 . S
C1111 C1130 1.368 . S
C1111 H1135 0.949 . S
H1112 C1116 0.949 . S
C1113 C1114 1.349 . S
C1113 C1115 1.327 . S
C1113 H1136 0.950 . S
C1114 C1113 1.349 . S
C1114 C1126 1.349 . S
C1115 C1113 1.327 . S
C1115 C1131 1.429 . S
C1115 H1137 0.950 . S
C1116 H1112 0.949 . S
C1116 C1124 1.574 . S
C1116 C1132 1.368 . S
H1117 C1125 0.950 . S
H1118 C1123 0.950 . S
H1119 C1124 0.949 . S
H1120 C1126 0.950 . S
H1121 C1127 0.950 . S
H1122 C1128 0.949 . S
C1123 H1118 0.950 . S
C1123 C1125 1.327 . S
C1123 C1129 1.429 . S
C1124 C1116 1.574 . S
C1124 H1119 0.949 . S
C1124 C1130 1.368 . S
C1125 C1109 1.349 . S
C1125 H1117 0.950 . S
C1125 C1123 1.327 . S
C1126 C1114 1.349 . S
C1126 H1120 0.950 . S
C1126 C1127 1.327 . S
C1127 H1121 0.950 . S
C1127 C1126 1.327 . S
C1127 C1131 1.429 . S
C1128 C1111 1.574 . S
C1128 H1122 0.949 . S
C1128 C1132 1.368 . S
C1129 C1110 1.429 . S
C1129 C1123 1.429 . S
C1129 C1130 1.523 . S
C1130 C1111 1.368 . S
C1130 C1124 1.368 . S
C1130 C1129 1.523 . S
C1131 C1115 1.429 . S
C1131 C1127 1.429 . S
C1131 C1132 1.523 . S
C1132 C1116 1.368 . S
C1132 C1128 1.368 . S
C1132 C1131 1.523 . S
H1133 C1108 0.950 . S
H1134 C1110 0.950 . S
H1135 C1111 0.949 . S
H1136 C1113 0.950 . S
H1137 C1115 0.950 . S
C1138 C1139 1.349 . S
C1138 C1140 1.327 . S
C1138 H1163 0.950 . S
C1139 C1138 1.349 . S
C1139 C1155 1.349 . S
C1140 C1138 1.327 . S
C1140 C1159 1.429 . S
C1140 H1164 0.950 . S
C1141 C1158 1.574 . S
C1141 C1160 1.368 . S
C1141 H1165 0.949 . S
H1142 C1146 0.949 . S
C1143 C1144 1.349 . S
C1143 C1145 1.327 . S
C1143 H1166 0.950 . S
C1144 C1143 1.349 . S
C1144 C1156 1.349 . S
C1145 C1143 1.327 . S
C1145 C1161 1.429 . S
C1145 H1167 0.950 . S
C1146 H1142 0.949 . S
C1146 C1154 1.574 . S
C1146 C1162 1.368 . S
H1147 C1155 0.950 . S
H1148 C1153 0.950 . S
H1149 C1154 0.949 . S
H1150 C1156 0.950 . S
H1151 C1157 0.950 . S
H1152 C1158 0.949 . S
C1153 H1148 0.950 . S
C1153 C1155 1.327 . S
C1153 C1159 1.429 . S
C1154 C1146 1.574 . S
C1154 H1149 0.949 . S
C1154 C1160 1.368 . S
C1155 C1139 1.349 . S
C1155 H1147 0.950 . S
C1155 C1153 1.327 . S
C1156 C1144 1.349 . S
C1156 H1150 0.950 . S
C1156 C1157 1.327 . S
C1157 H1151 0.950 . S
C1157 C1156 1.327 . S
C1157 C1161 1.429 . S
C1158 C1141 1.574 . S
C1158 H1152 0.949 . S
C1158 C1162 1.368 . S
C1159 C1140 1.429 . S
C1159 C1153 1.429 . S
C1159 C1160 1.523 . S
C1160 C1141 1.368 . S
C1160 C1154 1.368 . S
C1160 C1159 1.523 . S
C1161 C1145 1.429 . S
C1161 C1157 1.429 . S
C1161 C1162 1.523 . S
C1162 C1146 1.368 . S
C1162 C1158 1.368 . S
C1162 C1161 1.523 . S
H1163 C1138 0.950 . S
H1164 C1140 0.950 . S
H1165 C1141 0.949 . S
H1166 C1143 0.950 . S
H1167 C1145 0.950 . S
C1168 C1169 1.349 . S
C1168 C1170 1.327 . S
C1168 H1193 0.950 . S
C1169 C1168 1.349 . S
C1169 C1185 1.349 . S
C1170 C1168 1.327 . S
C1170 C1189 1.429 . S
C1170 H1194 0.950 . S
C1171 C1188 1.574 . S
C1171 C1190 1.368 . S
C1171 H1195 0.949 . S
H1172 C1176 0.949 . S
C1173 C1174 1.349 . S
C1173 C1175 1.327 . S
C1173 H1196 0.950 . S
C1174 C1173 1.349 . S
C1174 C1186 1.349 . S
C1175 C1173 1.327 . S
C1175 C1191 1.429 . S
C1175 H1197 0.950 . S
C1176 H1172 0.949 . S
C1176 C1184 1.574 . S
C1176 C1192 1.368 . S
H1177 C1185 0.950 . S
H1178 C1183 0.950 . S
H1179 C1184 0.949 . S
H1180 C1186 0.950 . S
H1181 C1187 0.950 . S
H1182 C1188 0.949 . S
C1183 H1178 0.950 . S
C1183 C1185 1.327 . S
C1183 C1189 1.429 . S
C1184 C1176 1.574 . S
C1184 H1179 0.949 . S
C1184 C1190 1.368 . S
C1185 C1169 1.349 . S
C1185 H1177 0.950 . S
C1185 C1183 1.327 . S
C1186 C1174 1.349 . S
C1186 H1180 0.950 . S
C1186 C1187 1.327 . S
C1187 H1181 0.950 . S
C1187 C1186 1.327 . S
C1187 C1191 1.429 . S
C1188 C1171 1.574 . S
C1188 H1182 0.949 . S
C1188 C1192 1.368 . S
C1189 C1170 1.429 . S
C1189 C1183 1.429 . S
C1189 C1190 1.523 . S
C1190 C1171 1.368 . S
C1190 C1184 1.368 . S
C1190 C1189 1.523 . S
C1191 C1175 1.429 . S
C1191 C1187 1.429 . S
C1191 C1192 1.523 . S
C1192 C1176 1.368 . S
C1192 C1188 1.368 . S
C1192 C1191 1.523 . S
H1193 C1168 0.950 . S
H1194 C1170 0.950 . S
H1195 C1171 0.949 . S
H1196 C1173 0.950 . S
H1197 C1175 0.950 . S
C1198 C1199 1.349 . S
C1198 C1200 1.327 . S
C1198 H1223 0.950 . S
C1199 C1198 1.349 . S
C1199 C1215 1.349 . S
C1200 C1198 1.327 . S
C1200 C1219 1.429 . S
C1200 H1224 0.950 . S
C1201 C1218 1.574 . S
C1201 C1220 1.368 . S
C1201 H1225 0.949 . S
H1202 C1206 0.949 . S
C1203 C1204 1.349 . S
C1203 C1205 1.327 . S
C1203 H1226 0.950 . S
C1204 C1203 1.349 . S
C1204 C1216 1.349 . S
C1205 C1203 1.327 . S
C1205 C1221 1.429 . S
C1205 H1227 0.950 . S
C1206 H1202 0.949 . S
C1206 C1214 1.574 . S
C1206 C1222 1.368 . S
H1207 C1215 0.950 . S
H1208 C1213 0.950 . S
H1209 C1214 0.949 . S
H1210 C1216 0.950 . S
H1211 C1217 0.950 . S
H1212 C1218 0.949 . S
C1213 H1208 0.950 . S
C1213 C1215 1.327 . S
C1213 C1219 1.429 . S
C1214 C1206 1.574 . S
C1214 H1209 0.949 . S
C1214 C1220 1.368 . S
C1215 C1199 1.349 . S
C1215 H1207 0.950 . S
C1215 C1213 1.327 . S
C1216 C1204 1.349 . S
C1216 H1210 0.950 . S
C1216 C1217 1.327 . S
C1217 H1211 0.950 . S
C1217 C1216 1.327 . S
C1217 C1221 1.429 . S
C1218 C1201 1.574 . S
C1218 H1212 0.949 . S
C1218 C1222 1.368 . S
C1219 C1200 1.429 . S
C1219 C1213 1.429 . S
C1219 C1220 1.523 . S
C1220 C1201 1.368 . S
C1220 C1214 1.368 . S
C1220 C1219 1.523 . S
C1221 C1205 1.429 . S
C1221 C1217 1.429 . S
C1221 C1222 1.523 . S
C1222 C1206 1.368 . S
C1222 C1218 1.368 . S
C1222 C1221 1.523 . S
H1223 C1198 0.950 . S
H1224 C1200 0.950 . S
H1225 C1201 0.949 . S
H1226 C1203 0.950 . S
H1227 C1205 0.950 . S
C1228 C1229 1.349 . S
C1228 C1230 1.327 . S
C1228 H1253 0.950 . S
C1229 C1228 1.349 . S
C1229 C1245 1.349 . S
C1230 C1228 1.327 . S
C1230 C1249 1.429 . S
C1230 H1254 0.950 . S
C1231 C1248 1.574 . S
C1231 C1250 1.368 . S
C1231 H1255 0.949 . S
H1232 C1236 0.949 . S
C1233 C1234 1.349 . S
C1233 C1235 1.327 . S
C1233 H1256 0.950 . S
C1234 C1233 1.349 . S
C1234 C1246 1.349 . S
C1235 C1233 1.327 . S
C1235 C1251 1.429 . S
C1235 H1257 0.950 . S
C1236 H1232 0.949 . S
C1236 C1244 1.574 . S
C1236 C1252 1.368 . S
H1237 C1245 0.950 . S
H1238 C1243 0.950 . S
H1239 C1244 0.949 . S
H1240 C1246 0.950 . S
H1241 C1247 0.950 . S
H1242 C1248 0.949 . S
C1243 H1238 0.950 . S
C1243 C1245 1.327 . S
C1243 C1249 1.429 . S
C1244 C1236 1.574 . S
C1244 H1239 0.949 . S
C1244 C1250 1.368 . S
C1245 C1229 1.349 . S
C1245 H1237 0.950 . S
C1245 C1243 1.327 . S
C1246 C1234 1.349 . S
C1246 H1240 0.950 . S
C1246 C1247 1.327 . S
C1247 H1241 0.950 . S
C1247 C1246 1.327 . S
C1247 C1251 1.429 . S
C1248 C1231 1.574 . S
C1248 H1242 0.949 . S
C1248 C1252 1.368 . S
C1249 C1230 1.429 . S
C1249 C1243 1.429 . S
C1249 C1250 1.523 . S
C1250 C1231 1.368 . S
C1250 C1244 1.368 . S
C1250 C1249 1.523 . S
C1251 C1235 1.429 . S
C1251 C1247 1.429 . S
C1251 C1252 1.523 . S
C1252 C1236 1.368 . S
C1252 C1248 1.368 . S
C1252 C1251 1.523 . S
H1253 C1228 0.950 . S
H1254 C1230 0.950 . S
H1255 C1231 0.949 . S
H1256 C1233 0.950 . S
H1257 C1235 0.950 . S
C1258 C1259 1.349 . S
C1258 C1260 1.327 . S
C1258 H1283 0.950 . S
C1259 C1258 1.349 . S
C1259 C1275 1.349 . S
C1260 C1258 1.327 . S
C1260 C1279 1.429 . S
C1260 H1284 0.950 . S
C1261 C1278 1.574 . S
C1261 C1280 1.368 . S
C1261 H1285 0.949 . S
H1262 C1266 0.949 . S
C1263 C1264 1.349 . S
C1263 C1265 1.327 . S
C1263 H1286 0.950 . S
C1264 C1263 1.349 . S
C1264 C1276 1.349 . S
C1265 C1263 1.327 . S
C1265 C1281 1.429 . S
C1265 H1287 0.950 . S
C1266 H1262 0.949 . S
C1266 C1274 1.574 . S
C1266 C1282 1.368 . S
H1267 C1275 0.950 . S
H1268 C1273 0.950 . S
H1269 C1274 0.949 . S
H1270 C1276 0.950 . S
H1271 C1277 0.950 . S
H1272 C1278 0.949 . S
C1273 H1268 0.950 . S
C1273 C1275 1.327 . S
C1273 C1279 1.429 . S
C1274 C1266 1.574 . S
C1274 H1269 0.949 . S
C1274 C1280 1.368 . S
C1275 C1259 1.349 . S
C1275 H1267 0.950 . S
C1275 C1273 1.327 . S
C1276 C1264 1.349 . S
C1276 H1270 0.950 . S
C1276 C1277 1.327 . S
C1277 H1271 0.950 . S
C1277 C1276 1.327 . S
C1277 C1281 1.429 . S
C1278 C1261 1.574 . S
C1278 H1272 0.949 . S
C1278 C1282 1.368 . S
C1279 C1260 1.429 . S
C1279 C1273 1.429 . S
C1279 C1280 1.523 . S
C1280 C1261 1.368 . S
C1280 C1274 1.368 . S
C1280 C1279 1.523 . S
C1281 C1265 1.429 . S
C1281 C1277 1.429 . S
C1281 C1282 1.523 . S
C1282 C1266 1.368 . S
C1282 C1278 1.368 . S
C1282 C1281 1.523 . S
H1283 C1258 0.950 . S
H1284 C1260 0.950 . S
H1285 C1261 0.949 . S
H1286 C1263 0.950 . S
H1287 C1265 0.950 . S
C1288 C1289 1.349 . S
C1288 C1290 1.327 . S
C1288 H1313 0.950 . S
C1289 C1288 1.349 . S
C1289 C1305 1.349 . S
C1290 C1288 1.327 . S
C1290 C1309 1.429 . S
C1290 H1314 0.950 . S
C1291 C1308 1.574 . S
C1291 C1310 1.368 . S
C1291 H1315 0.949 . S
H1292 C1296 0.949 . S
C1293 C1294 1.349 . S
C1293 C1295 1.327 . S
C1293 H1316 0.950 . S
C1294 C1293 1.349 . S
C1294 C1306 1.349 . S
C1295 C1293 1.327 . S
C1295 C1311 1.429 . S
C1295 H1317 0.950 . S
C1296 H1292 0.949 . S
C1296 C1304 1.574 . S
C1296 C1312 1.368 . S
H1297 C1305 0.950 . S
H1298 C1303 0.950 . S
H1299 C1304 0.949 . S
H1300 C1306 0.950 . S
H1301 C1307 0.950 . S
H1302 C1308 0.949 . S
C1303 H1298 0.950 . S
C1303 C1305 1.327 . S
C1303 C1309 1.429 . S
C1304 C1296 1.574 . S
C1304 H1299 0.949 . S
C1304 C1310 1.368 . S
C1305 C1289 1.349 . S
C1305 H1297 0.950 . S
C1305 C1303 1.327 . S
C1306 C1294 1.349 . S
C1306 H1300 0.950 . S
C1306 C1307 1.327 . S
C1307 H1301 0.950 . S
C1307 C1306 1.327 . S
C1307 C1311 1.429 . S
C1308 C1291 1.574 . S
C1308 H1302 0.949 . S
C1308 C1312 1.368 . S
C1309 C1290 1.429 . S
C1309 C1303 1.429 . S
C1309 C1310 1.523 . S
C1310 C1291 1.368 . S
C1310 C1304 1.368 . S
C1310 C1309 1.523 . S
C1311 C1295 1.429 . S
C1311 C1307 1.429 . S
C1311 C1312 1.523 . S
C1312 C1296 1.368 . S
C1312 C1308 1.368 . S
C1312 C1311 1.523 . S
H1313 C1288 0.950 . S
H1314 C1290 0.950 . S
H1315 C1291 0.949 . S
H1316 C1293 0.950 . S
H1317 C1295 0.950 . S
C1318 C1319 1.349 . S
C1318 C1320 1.327 . S
C1318 H1343 0.950 . S
C1319 C1318 1.349 . S
C1319 C1335 1.349 . S
C1320 C1318 1.327 . S
C1320 C1339 1.429 . S
C1320 H1344 0.950 . S
C1321 C1338 1.574 . S
C1321 C1340 1.368 . S
C1321 H1345 0.949 . S
H1322 C1326 0.949 . S
C1323 C1324 1.349 . S
C1323 C1325 1.327 . S
C1323 H1346 0.950 . S
C1324 C1323 1.349 . S
C1324 C1336 1.349 . S
C1325 C1323 1.327 . S
C1325 C1341 1.429 . S
C1325 H1347 0.950 . S
C1326 H1322 0.949 . S
C1326 C1334 1.574 . S
C1326 C1342 1.368 . S
H1327 C1335 0.950 . S
H1328 C1333 0.950 . S
H1329 C1334 0.949 . S
H1330 C1336 0.950 . S
H1331 C1337 0.950 . S
H1332 C1338 0.949 . S
C1333 H1328 0.950 . S
C1333 C1335 1.327 . S
C1333 C1339 1.429 . S
C1334 C1326 1.574 . S
C1334 H1329 0.949 . S
C1334 C1340 1.368 . S
C1335 C1319 1.349 . S
C1335 H1327 0.950 . S
C1335 C1333 1.327 . S
C1336 C1324 1.349 . S
C1336 H1330 0.950 . S
C1336 C1337 1.327 . S
C1337 H1331 0.950 . S
C1337 C1336 1.327 . S
C1337 C1341 1.429 . S
C1338 C1321 1.574 . S
C1338 H1332 0.949 . S
C1338 C1342 1.368 . S
C1339 C1320 1.429 . S
C1339 C1333 1.429 . S
C1339 C1340 1.523 . S
C1340 C1321 1.368 . S
C1340 C1334 1.368 . S
C1340 C1339 1.523 . S
C1341 C1325 1.429 . S
C1341 C1337 1.429 . S
C1341 C1342 1.523 . S
C1342 C1326 1.368 . S
C1342 C1338 1.368 . S
C1342 C1341 1.523 . S
H1343 C1318 0.950 . S
H1344 C1320 0.950 . S
H1345 C1321 0.949 . S
H1346 C1323 0.950 . S
H1347 C1325 0.950 . S
C1348 C1349 1.349 . S
C1348 C1350 1.327 . S
C1348 H1373 0.950 . S
C1349 C1348 1.349 . S
C1349 C1365 1.349 . S
C1350 C1348 1.327 . S
C1350 C1369 1.429 . S
C1350 H1374 0.950 . S
C1351 C1368 1.574 . S
C1351 C1370 1.368 . S
C1351 H1375 0.949 . S
H1352 C1356 0.949 . S
C1353 C1354 1.349 . S
C1353 C1355 1.327 . S
C1353 H1376 0.950 . S
C1354 C1353 1.349 . S
C1354 C1366 1.349 . S
C1355 C1353 1.327 . S
C1355 C1371 1.429 . S
C1355 H1377 0.950 . S
C1356 H1352 0.949 . S
C1356 C1364 1.574 . S
C1356 C1372 1.368 . S
H1357 C1365 0.950 . S
H1358 C1363 0.950 . S
H1359 C1364 0.949 . S
H1360 C1366 0.950 . S
H1361 C1367 0.950 . S
H1362 C1368 0.949 . S
C1363 H1358 0.950 . S
C1363 C1365 1.327 . S
C1363 C1369 1.429 . S
C1364 C1356 1.574 . S
C1364 H1359 0.949 . S
C1364 C1370 1.368 . S
C1365 C1349 1.349 . S
C1365 H1357 0.950 . S
C1365 C1363 1.327 . S
C1366 C1354 1.349 . S
C1366 H1360 0.950 . S
C1366 C1367 1.327 . S
C1367 H1361 0.950 . S
C1367 C1366 1.327 . S
C1367 C1371 1.429 . S
C1368 C1351 1.574 . S
C1368 H1362 0.949 . S
C1368 C1372 1.368 . S
C1369 C1350 1.429 . S
C1369 C1363 1.429 . S
C1369 C1370 1.523 . S
C1370 C1351 1.368 . S
C1370 C1364 1.368 . S
C1370 C1369 1.523 . S
C1371 C1355 1.429 . S
C1371 C1367 1.429 . S
C1371 C1372 1.523 . S
C1372 C1356 1.368 . S
C1372 C1368 1.368 . S
C1372 C1371 1.523 . S
H1373 C1348 0.950 . S
H1374 C1350 0.950 . S
H1375 C1351 0.949 . S
H1376 C1353 0.950 . S
H1377 C1355 0.950 . S
C1378 C1379 1.349 . S
C1378 C1380 1.327 . S
C1378 H1403 0.950 . S
C1379 C1378 1.349 . S
C1379 C1395 1.349 . S
C1380 C1378 1.327 . S
C1380 C1399 1.429 . S
C1380 H1404 0.950 . S
C1381 C1398 1.574 . S
C1381 C1400 1.368 . S
C1381 H1405 0.949 . S
H1382 C1386 0.949 . S
C1383 C1384 1.349 . S
C1383 C1385 1.327 . S
C1383 H1406 0.950 . S
C1384 C1383 1.349 . S
C1384 C1396 1.349 . S
C1385 C1383 1.327 . S
C1385 C1401 1.429 . S
C1385 H1407 0.950 . S
C1386 H1382 0.949 . S
C1386 C1394 1.574 . S
C1386 C1402 1.368 . S
H1387 C1395 0.950 . S
H1388 C1393 0.950 . S
H1389 C1394 0.949 . S
H1390 C1396 0.950 . S
H1391 C1397 0.950 . S
H1392 C1398 0.949 . S
C1393 H1388 0.950 . S
C1393 C1395 1.327 . S
C1393 C1399 1.429 . S
C1394 C1386 1.574 . S
C1394 H1389 0.949 . S
C1394 C1400 1.368 . S
C1395 C1379 1.349 . S
C1395 H1387 0.950 . S
C1395 C1393 1.327 . S
C1396 C1384 1.349 . S
C1396 H1390 0.950 . S
C1396 C1397 1.327 . S
C1397 H1391 0.950 . S
C1397 C1396 1.327 . S
C1397 C1401 1.429 . S
C1398 C1381 1.574 . S
C1398 H1392 0.949 . S
C1398 C1402 1.368 . S
C1399 C1380 1.429 . S
C1399 C1393 1.429 . S
C1399 C1400 1.523 . S
C1400 C1381 1.368 . S
C1400 C1394 1.368 . S
C1400 C1399 1.523 . S
C1401 C1385 1.429 . S
C1401 C1397 1.429 . S
C1401 C1402 1.523 . S
C1402 C1386 1.368 . S
C1402 C1398 1.368 . S
C1402 C1401 1.523 . S
H1403 C1378 0.950 . S
H1404 C1380 0.950 . S
H1405 C1381 0.949 . S
H1406 C1383 0.950 . S
H1407 C1385 0.950 . S
C1408 C1409 1.349 . S
C1408 C1410 1.327 . S
C1408 H1433 0.950 . S
C1409 C1408 1.349 . S
C1409 C1425 1.349 . S
C1410 C1408 1.327 . S
C1410 C1429 1.429 . S
C1410 H1434 0.950 . S
C1411 C1428 1.574 . S
C1411 C1430 1.368 . S
C1411 H1435 0.949 . S
H1412 C1416 0.949 . S
C1413 C1414 1.349 . S
C1413 C1415 1.327 . S
C1413 H1436 0.950 . S
C1414 C1413 1.349 . S
C1414 C1426 1.349 . S
C1415 C1413 1.327 . S
C1415 C1431 1.429 . S
C1415 H1437 0.950 . S
C1416 H1412 0.949 . S
C1416 C1424 1.574 . S
C1416 C1432 1.368 . S
H1417 C1425 0.950 . S
H1418 C1423 0.950 . S
H1419 C1424 0.949 . S
H1420 C1426 0.950 . S
H1421 C1427 0.950 . S
H1422 C1428 0.949 . S
C1423 H1418 0.950 . S
C1423 C1425 1.327 . S
C1423 C1429 1.429 . S
C1424 C1416 1.574 . S
C1424 H1419 0.949 . S
C1424 C1430 1.368 . S
C1425 C1409 1.349 . S
C1425 H1417 0.950 . S
C1425 C1423 1.327 . S
C1426 C1414 1.349 . S
C1426 H1420 0.950 . S
C1426 C1427 1.327 . S
C1427 H1421 0.950 . S
C1427 C1426 1.327 . S
C1427 C1431 1.429 . S
C1428 C1411 1.574 . S
C1428 H1422 0.949 . S
C1428 C1432 1.368 . S
C1429 C1410 1.429 . S
C1429 C1423 1.429 . S
C1429 C1430 1.523 . S
C1430 C1411 1.368 . S
C1430 C1424 1.368 . S
C1430 C1429 1.523 . S
C1431 C1415 1.429 . S
C1431 C1427 1.429 . S
C1431 C1432 1.523 . S
C1432 C1416 1.368 . S
C1432 C1428 1.368 . S
C1432 C1431 1.523 . S
H1433 C1408 0.950 . S
H1434 C1410 0.950 . S
H1435 C1411 0.949 . S
H1436 C1413 0.950 . S
H1437 C1415 0.950 . S
C1438 C1439 1.388 . S
C1438 C1440 1.318 1_655 S
C1438 H1463 0.924 1_655 S
C1439 C1438 1.388 . S
C1439 C1455 1.349 . S
C1440 C1438 1.318 1_455 S
C1440 C1459 1.429 1_455 S
C1440 H1464 0.950 . S
C1441 C1458 1.574 1_565 S
C1441 C1460 1.368 . S
C1441 H1465 0.949 . S
H1442 C1446 0.949 . S
C1443 C1444 1.388 . S
C1443 C1445 1.318 1_455 S
C1443 H1466 0.924 1_455 S
C1444 C1443 1.388 . S
C1444 C1456 1.349 . S
C1445 C1443 1.318 1_655 S
C1445 C1461 1.429 1_655 S
C1445 H1467 0.950 . S
C1446 H1442 0.949 . S
C1446 C1454 1.574 1_545 S
C1446 C1462 1.368 . S
H1447 C1455 0.950 . S
H1448 C1453 0.950 . S
H1449 C1454 0.949 . S
H1450 C1456 0.950 . S
H1451 C1457 0.950 . S
H1452 C1458 0.949 . S
C1453 H1448 0.950 . S
C1453 C1455 1.327 . S
C1453 C1459 1.429 . S
C1454 C1446 1.574 1_565 S
C1454 H1449 0.949 . S
C1454 C1460 1.368 1_455 S
C1455 C1439 1.349 . S
C1455 H1447 0.950 . S
C1455 C1453 1.327 . S
C1456 C1444 1.349 . S
C1456 H1450 0.950 . S
C1456 C1457 1.327 . S
C1457 H1451 0.950 . S
C1457 C1456 1.327 . S
C1457 C1461 1.429 . S
C1458 C1441 1.574 1_545 S
C1458 H1452 0.949 . S
C1458 C1462 1.368 1_655 S
C1459 C1440 1.429 1_655 S
C1459 C1453 1.429 . S
C1459 C1460 1.523 . S
C1460 C1441 1.368 . S
C1460 C1454 1.368 1_655 S
C1460 C1459 1.523 . S
C1461 C1445 1.429 1_455 S
C1461 C1457 1.429 . S
C1461 C1462 1.523 . S
C1462 C1446 1.368 . S
C1462 C1458 1.368 1_455 S
C1462 C1461 1.523 . S
H1463 C1438 0.924 1_455 S
H1464 C1440 0.950 . S
H1465 C1441 0.949 . S
H1466 C1443 0.924 1_655 S
H1467 C1445 0.950 . S
C1468 C1469 1.349 . S
C1468 C1470 1.327 . S
C1468 H1493 0.950 . S
C1469 C1468 1.349 . S
C1469 C1485 1.349 . S
C1470 C1468 1.327 . S
C1470 C1489 1.429 . S
C1470 H1494 0.950 . S
C1471 C1488 1.574 . S
C1471 C1490 1.368 . S
C1471 H1495 0.949 . S
H1472 C1476 0.949 . S
C1473 C1474 1.349 . S
C1473 C1475 1.327 . S
C1473 H1496 0.950 . S
C1474 C1473 1.349 . S
C1474 C1486 1.349 . S
C1475 C1473 1.327 . S
C1475 C1491 1.429 . S
C1475 H1497 0.950 . S
C1476 H1472 0.949 . S
C1476 C1484 1.574 . S
C1476 C1492 1.368 . S
H1477 C1485 0.950 . S
H1478 C1483 0.950 . S
H1479 C1484 0.949 . S
H1480 C1486 0.950 . S
H1481 C1487 0.950 . S
H1482 C1488 0.949 . S
C1483 H1478 0.950 . S
C1483 C1485 1.327 . S
C1483 C1489 1.429 . S
C1484 C1476 1.574 . S
C1484 H1479 0.949 . S
C1484 C1490 1.368 . S
C1485 C1469 1.349 . S
C1485 H1477 0.950 . S
C1485 C1483 1.327 . S
C1486 C1474 1.349 . S
C1486 H1480 0.950 . S
C1486 C1487 1.327 . S
C1487 H1481 0.950 . S
C1487 C1486 1.327 . S
C1487 C1491 1.429 . S
C1488 C1471 1.574 . S
C1488 H1482 0.949 . S
C1488 C1492 1.368 . S
C1489 C1470 1.429 . S
C1489 C1483 1.429 . S
C1489 C1490 1.523 . S
C1490 C1471 1.368 . S
C1490 C1484 1.368 . S
C1490 C1489 1.523 . S
C1491 C1475 1.429 . S
C1491 C1487 1.429 . S
C1491 C1492 1.523 . S
C1492 C1476 1.368 . S
C1492 C1488 1.368 . S
C1492 C1491 1.523 . S
H1493 C1468 0.950 . S
H1494 C1470 0.950 . S
H1495 C1471 0.949 . S
H1496 C1473 0.950 . S
H1497 C1475 0.950 . S
C1498 C1499 1.349 . S
C1498 C1500 1.327 . S
C1498 H1523 0.950 . S
C1499 C1498 1.349 . S
C1499 C1515 1.349 1_554 S
C1500 C1498 1.327 . S
C1500 C1519 1.429 . S
C1500 H1524 0.950 . S
C1501 C1518 1.574 1_545 S
C1501 C1520 1.368 1_556 S
C1501 H1525 0.949 . S
H1502 C1506 0.949 . S
C1503 C1504 1.349 . S
C1503 C1505 1.327 . S
C1503 H1526 0.950 . S
C1504 C1503 1.349 . S
C1504 C1516 1.349 1_556 S
C1505 C1503 1.327 . S
C1505 C1521 1.429 . S
C1505 H1527 0.950 . S
C1506 H1502 0.949 . S
C1506 C1514 1.574 1_565 S
C1506 C1522 1.368 1_554 S
H1507 C1515 0.950 . S
H1508 C1513 0.950 . S
H1509 C1514 0.949 . S
H1510 C1516 0.950 . S
H1511 C1517 0.950 . S
H1512 C1518 0.949 . S
C1513 H1508 0.950 . S
C1513 C1515 1.327 . S
C1513 C1519 1.429 1_556 S
C1514 C1506 1.574 1_545 S
C1514 H1509 0.949 . S
C1514 C1520 1.368 . S
C1515 C1499 1.349 1_556 S
C1515 H1507 0.950 . S
C1515 C1513 1.327 . S
C1516 C1504 1.349 1_554 S
C1516 H1510 0.950 . S
C1516 C1517 1.327 . S
C1517 H1511 0.950 . S
C1517 C1516 1.327 . S
C1517 C1521 1.429 1_554 S
C1518 C1501 1.574 1_565 S
C1518 H1512 0.949 . S
C1518 C1522 1.368 . S
C1519 C1500 1.429 . S
C1519 C1513 1.429 1_554 S
C1519 C1520 1.523 . S
C1520 C1501 1.368 1_554 S
C1520 C1514 1.368 . S
C1520 C1519 1.523 . S
C1521 C1505 1.429 . S
C1521 C1517 1.429 1_556 S
C1521 C1522 1.523 . S
C1522 C1506 1.368 1_556 S
C1522 C1518 1.368 . S
C1522 C1521 1.523 . S
H1523 C1498 0.950 . S
H1524 C1500 0.950 . S
H1525 C1501 0.949 . S
H1526 C1503 0.950 . S
H1527 C1505 0.950 . S
C1528 C1529 1.349 . S
C1528 C1530 1.327 . S
C1528 H1553 0.950 . S
C1529 C1528 1.349 . S
C1529 C1545 1.349 . S
C1530 C1528 1.327 . S
C1530 C1549 1.429 . S
C1530 H1554 0.950 . S
C1531 C1548 1.574 . S
C1531 C1550 1.368 . S
C1531 H1555 0.949 . S
H1532 C1536 0.949 . S
C1533 C1534 1.349 . S
C1533 C1535 1.327 . S
C1533 H1556 0.950 . S
C1534 C1533 1.349 . S
C1534 C1546 1.349 . S
C1535 C1533 1.327 . S
C1535 C1551 1.429 . S
C1535 H1557 0.950 . S
C1536 H1532 0.949 . S
C1536 C1544 1.574 . S
C1536 C1552 1.368 . S
H1537 C1545 0.950 . S
H1538 C1543 0.950 . S
H1539 C1544 0.949 . S
H1540 C1546 0.950 . S
H1541 C1547 0.950 . S
H1542 C1548 0.949 . S
C1543 H1538 0.950 . S
C1543 C1545 1.327 . S
C1543 C1549 1.429 . S
C1544 C1536 1.574 . S
C1544 H1539 0.949 . S
C1544 C1550 1.368 . S
C1545 C1529 1.349 . S
C1545 H1537 0.950 . S
C1545 C1543 1.327 . S
C1546 C1534 1.349 . S
C1546 H1540 0.950 . S
C1546 C1547 1.327 . S
C1547 H1541 0.950 . S
C1547 C1546 1.327 . S
C1547 C1551 1.429 . S
C1548 C1531 1.574 . S
C1548 H1542 0.949 . S
C1548 C1552 1.368 . S
C1549 C1530 1.429 . S
C1549 C1543 1.429 . S
C1549 C1550 1.523 . S
C1550 C1531 1.368 . S
C1550 C1544 1.368 . S
C1550 C1549 1.523 . S
C1551 C1535 1.429 . S
C1551 C1547 1.429 . S
C1551 C1552 1.523 . S
C1552 C1536 1.368 . S
C1552 C1548 1.368 . S
C1552 C1551 1.523 . S
H1553 C1528 0.950 . S
H1554 C1530 0.950 . S
H1555 C1531 0.949 . S
H1556 C1533 0.950 . S
H1557 C1535 0.950 . S
C1558 C1559 1.349 . S
C1558 C1560 1.327 . S
C1558 H1583 0.950 . S
C1559 C1558 1.349 . S
C1559 C1575 1.349 . S
C1560 C1558 1.327 . S
C1560 C1579 1.429 . S
C1560 H1584 0.950 . S
C1561 C1578 1.574 1_565 S
C1561 C1580 1.368 . S
C1561 H1585 0.949 . S
H1562 C1566 0.949 . S
C1563 C1564 1.349 . S
C1563 C1565 1.327 . S
C1563 H1586 0.950 . S
C1564 C1563 1.349 . S
C1564 C1576 1.349 . S
C1565 C1563 1.327 . S
C1565 C1581 1.429 . S
C1565 H1587 0.950 . S
C1566 H1562 0.949 . S
C1566 C1574 1.574 1_545 S
C1566 C1582 1.368 . S
H1567 C1575 0.950 . S
H1568 C1573 0.950 . S
H1569 C1574 0.949 . S
H1570 C1576 0.950 . S
H1571 C1577 0.950 . S
H1572 C1578 0.949 . S
C1573 H1568 0.950 . S
C1573 C1575 1.327 . S
C1573 C1579 1.429 . S
C1574 C1566 1.574 1_565 S
C1574 H1569 0.949 . S
C1574 C1580 1.368 . S
C1575 C1559 1.349 . S
C1575 H1567 0.950 . S
C1575 C1573 1.327 . S
C1576 C1564 1.349 . S
C1576 H1570 0.950 . S
C1576 C1577 1.327 . S
C1577 H1571 0.950 . S
C1577 C1576 1.327 . S
C1577 C1581 1.429 . S
C1578 C1561 1.574 1_545 S
C1578 H1572 0.949 . S
C1578 C1582 1.368 . S
C1579 C1560 1.429 . S
C1579 C1573 1.429 . S
C1579 C1580 1.523 . S
C1580 C1561 1.368 . S
C1580 C1574 1.368 . S
C1580 C1579 1.523 . S
C1581 C1565 1.429 . S
C1581 C1577 1.429 . S
C1581 C1582 1.523 . S
C1582 C1566 1.368 . S
C1582 C1578 1.368 . S
C1582 C1581 1.523 . S
H1583 C1558 0.950 . S
H1584 C1560 0.950 . S
H1585 C1561 0.949 . S
H1586 C1563 0.950 . S
H1587 C1565 0.950 . S
C1588 C1589 1.349 . S
C1588 C1590 1.327 . S
C1588 H1613 0.950 . S
C1589 C1588 1.349 . S
C1589 C1605 1.349 . S
C1590 C1588 1.327 . S
C1590 C1609 1.429 . S
C1590 H1614 0.950 . S
C1591 C1608 1.574 . S
C1591 C1610 1.368 . S
C1591 H1615 0.949 . S
H1592 C1596 0.949 . S
C1593 C1594 1.349 . S
C1593 C1595 1.327 . S
C1593 H1616 0.950 . S
C1594 C1593 1.349 . S
C1594 C1606 1.349 . S
C1595 C1593 1.327 . S
C1595 C1611 1.429 . S
C1595 H1617 0.950 . S
C1596 H1592 0.949 . S
C1596 C1604 1.574 . S
C1596 C1612 1.368 . S
H1597 C1605 0.950 . S
H1598 C1603 0.950 . S
H1599 C1604 0.949 . S
H1600 C1606 0.950 . S
H1601 C1607 0.950 . S
H1602 C1608 0.949 . S
C1603 H1598 0.950 . S
C1603 C1605 1.327 . S
C1603 C1609 1.429 . S
C1604 C1596 1.574 . S
C1604 H1599 0.949 . S
C1604 C1610 1.368 . S
C1605 C1589 1.349 . S
C1605 H1597 0.950 . S
C1605 C1603 1.327 . S
C1606 C1594 1.349 . S
C1606 H1600 0.950 . S
C1606 C1607 1.327 . S
C1607 H1601 0.950 . S
C1607 C1606 1.327 . S
C1607 C1611 1.429 . S
C1608 C1591 1.574 . S
C1608 H1602 0.949 . S
C1608 C1612 1.368 . S
C1609 C1590 1.429 . S
C1609 C1603 1.429 . S
C1609 C1610 1.523 . S
C1610 C1591 1.368 . S
C1610 C1604 1.368 . S
C1610 C1609 1.523 . S
C1611 C1595 1.429 . S
C1611 C1607 1.429 . S
C1611 C1612 1.523 . S
C1612 C1596 1.368 . S
C1612 C1608 1.368 . S
C1612 C1611 1.523 . S
H1613 C1588 0.950 . S
H1614 C1590 0.950 . S
H1615 C1591 0.949 . S
H1616 C1593 0.950 . S
H1617 C1595 0.950 . S
C1618 C1619 1.387 . S
C1618 C1620 1.318 1_655 S
C1618 H1643 0.924 1_655 S
C1619 C1618 1.387 . S
C1619 C1635 1.349 1_556 S
C1620 C1618 1.318 1_455 S
C1620 C1639 1.429 1_455 S
C1620 H1644 0.950 . S
C1621 C1638 1.574 1_545 S
C1621 C1640 1.368 1_554 S
C1621 H1645 0.949 . S
H1622 C1626 0.949 . S
C1623 C1624 1.387 . S
C1623 C1625 1.318 1_455 S
C1623 H1646 0.924 1_455 S
C1624 C1623 1.387 . S
C1624 C1636 1.349 1_554 S
C1625 C1623 1.318 1_655 S
C1625 C1641 1.429 1_655 S
C1625 H1647 0.950 . S
C1626 H1622 0.949 . S
C1626 C1634 1.574 1_565 S
C1626 C1642 1.368 1_556 S
H1627 C1635 0.950 . S
H1628 C1633 0.950 . S
H1629 C1634 0.949 . S
H1630 C1636 0.950 . S
H1631 C1637 0.950 . S
H1632 C1638 0.949 . S
C1633 H1628 0.950 . S
C1633 C1635 1.327 . S
C1633 C1639 1.429 1_554 S
C1634 C1626 1.574 1_545 S
C1634 H1629 0.949 . S
C1634 C1640 1.368 1_455 S
C1635 C1619 1.349 1_554 S
C1635 H1627 0.950 . S
C1635 C1633 1.327 . S
C1636 C1624 1.349 1_556 S
C1636 H1630 0.950 . S
C1636 C1637 1.327 . S
C1637 H1631 0.950 . S
C1637 C1636 1.327 . S
C1637 C1641 1.429 1_556 S
C1638 C1621 1.574 1_565 S
C1638 H1632 0.949 . S
C1638 C1642 1.368 1_655 S
C1639 C1620 1.429 1_655 S
C1639 C1633 1.429 1_556 S
C1639 C1640 1.523 . S
C1640 C1621 1.368 1_556 S
C1640 C1634 1.368 1_655 S
C1640 C1639 1.523 . S
C1641 C1625 1.429 1_455 S
C1641 C1637 1.429 1_554 S
C1641 C1642 1.523 . S
C1642 C1626 1.368 1_554 S
C1642 C1638 1.368 1_455 S
C1642 C1641 1.523 . S
H1643 C1618 0.924 1_455 S
H1644 C1620 0.950 . S
H1645 C1621 0.949 . S
H1646 C1623 0.924 1_655 S
H1647 C1625 0.950 . S
C1648 C1649 1.349 . S
C1648 C1650 1.327 . S
C1648 H1673 0.950 . S
C1649 C1648 1.349 . S
C1649 C1665 1.349 . S
C1650 C1648 1.327 . S
C1650 C1669 1.429 . S
C1650 H1674 0.950 . S
C1651 C1668 1.574 . S
C1651 C1670 1.368 . S
C1651 H1675 0.949 . S
H1652 C1656 0.949 . S
C1653 C1654 1.349 . S
C1653 C1655 1.327 . S
C1653 H1676 0.950 . S
C1654 C1653 1.349 . S
C1654 C1666 1.349 . S
C1655 C1653 1.327 . S
C1655 C1671 1.429 . S
C1655 H1677 0.950 . S
C1656 H1652 0.949 . S
C1656 C1664 1.574 . S
C1656 C1672 1.368 . S
H1657 C1665 0.950 . S
H1658 C1663 0.950 . S
H1659 C1664 0.949 . S
H1660 C1666 0.950 . S
H1661 C1667 0.950 . S
H1662 C1668 0.949 . S
C1663 H1658 0.950 . S
C1663 C1665 1.327 . S
C1663 C1669 1.429 . S
C1664 C1656 1.574 . S
C1664 H1659 0.949 . S
C1664 C1670 1.368 . S
C1665 C1649 1.349 . S
C1665 H1657 0.950 . S
C1665 C1663 1.327 . S
C1666 C1654 1.349 . S
C1666 H1660 0.950 . S
C1666 C1667 1.327 . S
C1667 H1661 0.950 . S
C1667 C1666 1.327 . S
C1667 C1671 1.429 . S
C1668 C1651 1.574 . S
C1668 H1662 0.949 . S
C1668 C1672 1.368 . S
C1669 C1650 1.429 . S
C1669 C1663 1.429 . S
C1669 C1670 1.523 . S
C1670 C1651 1.368 . S
C1670 C1664 1.368 . S
C1670 C1669 1.523 . S
C1671 C1655 1.429 . S
C1671 C1667 1.429 . S
C1671 C1672 1.523 . S
C1672 C1656 1.368 . S
C1672 C1668 1.368 . S
C1672 C1671 1.523 . S
H1673 C1648 0.950 . S
H1674 C1650 0.950 . S
H1675 C1651 0.949 . S
H1676 C1653 0.950 . S
H1677 C1655 0.950 . S
C1678 C1679 1.349 . S
C1678 C1680 1.327 . S
C1678 H1703 0.950 . S
C1679 C1678 1.349 . S
C1679 C1695 1.349 . S
C1680 C1678 1.327 . S
C1680 C1699 1.429 . S
C1680 H1704 0.950 . S
C1681 C1698 1.574 . S
C1681 C1700 1.368 . S
C1681 H1705 0.949 . S
H1682 C1686 0.949 . S
C1683 C1684 1.349 . S
C1683 C1685 1.327 . S
C1683 H1706 0.950 . S
C1684 C1683 1.349 . S
C1684 C1696 1.349 . S
C1685 C1683 1.327 . S
C1685 C1701 1.429 . S
C1685 H1707 0.950 . S
C1686 H1682 0.949 . S
C1686 C1694 1.574 . S
C1686 C1702 1.368 . S
H1687 C1695 0.950 . S
H1688 C1693 0.950 . S
H1689 C1694 0.949 . S
H1690 C1696 0.950 . S
H1691 C1697 0.950 . S
H1692 C1698 0.949 . S
C1693 H1688 0.950 . S
C1693 C1695 1.327 . S
C1693 C1699 1.429 . S
C1694 C1686 1.574 . S
C1694 H1689 0.949 . S
C1694 C1700 1.368 . S
C1695 C1679 1.349 . S
C1695 H1687 0.950 . S
C1695 C1693 1.327 . S
C1696 C1684 1.349 . S
C1696 H1690 0.950 . S
C1696 C1697 1.327 . S
C1697 H1691 0.950 . S
C1697 C1696 1.327 . S
C1697 C1701 1.429 . S
C1698 C1681 1.574 . S
C1698 H1692 0.949 . S
C1698 C1702 1.368 . S
C1699 C1680 1.429 . S
C1699 C1693 1.429 . S
C1699 C1700 1.523 . S
C1700 C1681 1.368 . S
C1700 C1694 1.368 . S
C1700 C1699 1.523 . S
C1701 C1685 1.429 . S
C1701 C1697 1.429 . S
C1701 C1702 1.523 . S
C1702 C1686 1.368 . S
C1702 C1698 1.368 . S
C1702 C1701 1.523 . S
H1703 C1678 0.950 . S
H1704 C1680 0.950 . S
H1705 C1681 0.949 . S
H1706 C1683 0.950 . S
H1707 C1685 0.950 . S
C1708 C1709 1.349 . S
C1708 C1710 1.327 . S
C1708 H1733 0.950 . S
C1709 C1708 1.349 . S
C1709 C1725 1.349 . S
C1710 C1708 1.327 . S
C1710 C1729 1.429 . S
C1710 H1734 0.950 . S
C1711 C1728 1.574 . S
C1711 C1730 1.368 . S
C1711 H1735 0.949 . S
H1712 C1716 0.949 . S
C1713 C1714 1.349 . S
C1713 C1715 1.327 . S
C1713 H1736 0.950 . S
C1714 C1713 1.349 . S
C1714 C1726 1.349 . S
C1715 C1713 1.327 . S
C1715 C1731 1.429 . S
C1715 H1737 0.950 . S
C1716 H1712 0.949 . S
C1716 C1724 1.574 . S
C1716 C1732 1.368 . S
H1717 C1725 0.950 . S
H1718 C1723 0.950 . S
H1719 C1724 0.949 . S
H1720 C1726 0.950 . S
H1721 C1727 0.950 . S
H1722 C1728 0.949 . S
C1723 H1718 0.950 . S
C1723 C1725 1.327 . S
C1723 C1729 1.429 . S
C1724 C1716 1.574 . S
C1724 H1719 0.949 . S
C1724 C1730 1.368 . S
C1725 C1709 1.349 . S
C1725 H1717 0.950 . S
C1725 C1723 1.327 . S
C1726 C1714 1.349 . S
C1726 H1720 0.950 . S
C1726 C1727 1.327 . S
C1727 H1721 0.950 . S
C1727 C1726 1.327 . S
C1727 C1731 1.429 . S
C1728 C1711 1.574 . S
C1728 H1722 0.949 . S
C1728 C1732 1.368 . S
C1729 C1710 1.429 . S
C1729 C1723 1.429 . S
C1729 C1730 1.523 . S
C1730 C1711 1.368 . S
C1730 C1724 1.368 . S
C1730 C1729 1.523 . S
C1731 C1715 1.429 . S
C1731 C1727 1.429 . S
C1731 C1732 1.523 . S
C1732 C1716 1.368 . S
C1732 C1728 1.368 . S
C1732 C1731 1.523 . S
H1733 C1708 0.950 . S
H1734 C1710 0.950 . S
H1735 C1711 0.949 . S
H1736 C1713 0.950 . S
H1737 C1715 0.950 . S
C1738 C1739 1.349 . S
C1738 C1740 1.327 . S
C1738 H1763 0.950 . S
C1739 C1738 1.349 . S
C1739 C1755 1.349 . S
C1740 C1738 1.327 . S
C1740 C1759 1.429 . S
C1740 H1764 0.950 . S
C1741 C1758 1.574 . S
C1741 C1760 1.368 . S
C1741 H1765 0.949 . S
H1742 C1746 0.949 . S
C1743 C1744 1.349 . S
C1743 C1745 1.327 . S
C1743 H1766 0.950 . S
C1744 C1743 1.349 . S
C1744 C1756 1.349 . S
C1745 C1743 1.327 . S
C1745 C1761 1.429 . S
C1745 H1767 0.950 . S
C1746 H1742 0.949 . S
C1746 C1754 1.574 . S
C1746 C1762 1.368 . S
H1747 C1755 0.950 . S
H1748 C1753 0.950 . S
H1749 C1754 0.949 . S
H1750 C1756 0.950 . S
H1751 C1757 0.950 . S
H1752 C1758 0.949 . S
C1753 H1748 0.950 . S
C1753 C1755 1.327 . S
C1753 C1759 1.429 . S
C1754 C1746 1.574 . S
C1754 H1749 0.949 . S
C1754 C1760 1.368 . S
C1755 C1739 1.349 . S
C1755 H1747 0.950 . S
C1755 C1753 1.327 . S
C1756 C1744 1.349 . S
C1756 H1750 0.950 . S
C1756 C1757 1.327 . S
C1757 H1751 0.950 . S
C1757 C1756 1.327 . S
C1757 C1761 1.429 . S
C1758 C1741 1.574 . S
C1758 H1752 0.949 . S
C1758 C1762 1.368 . S
C1759 C1740 1.429 . S
C1759 C1753 1.429 . S
C1759 C1760 1.523 . S
C1760 C1741 1.368 . S
C1760 C1754 1.368 . S
C1760 C1759 1.523 . S
C1761 C1745 1.429 . S
C1761 C1757 1.429 . S
C1761 C1762 1.523 . S
C1762 C1746 1.368 . S
C1762 C1758 1.368 . S
C1762 C1761 1.523 . S
H1763 C1738 0.950 . S
H1764 C1740 0.950 . S
H1765 C1741 0.949 . S
H1766 C1743 0.950 . S
H1767 C1745 0.950 . S
C1768 C1769 1.349 . S
C1768 C1770 1.327 . S
C1768 H1793 0.950 . S
C1769 C1768 1.349 . S
C1769 C1785 1.350 1_554 S
C1770 C1768 1.327 . S
C1770 C1789 1.429 . S
C1770 H1794 0.950 . S
C1771 C1788 1.574 . S
C1771 C1790 1.368 1_556 S
C1771 H1795 0.949 . S
H1772 C1776 0.949 . S
C1773 C1774 1.349 . S
C1773 C1775 1.327 . S
C1773 H1796 0.950 . S
C1774 C1773 1.349 . S
C1774 C1786 1.350 1_556 S
C1775 C1773 1.327 . S
C1775 C1791 1.429 . S
C1775 H1797 0.950 . S
C1776 H1772 0.949 . S
C1776 C1784 1.574 . S
C1776 C1792 1.368 1_554 S
H1777 C1785 0.949 . S
H1778 C1783 0.950 . S
H1779 C1784 0.949 . S
H1780 C1786 0.949 . S
H1781 C1787 0.950 . S
H1782 C1788 0.949 . S
C1783 H1778 0.950 . S
C1783 C1785 1.327 . S
C1783 C1789 1.429 1_556 S
C1784 C1776 1.574 . S
C1784 H1779 0.949 . S
C1784 C1790 1.368 . S
C1785 C1769 1.350 1_556 S
C1785 H1777 0.949 . S
C1785 C1783 1.327 . S
C1786 C1774 1.350 1_554 S
C1786 H1780 0.949 . S
C1786 C1787 1.327 . S
C1787 H1781 0.950 . S
C1787 C1786 1.327 . S
C1787 C1791 1.429 1_554 S
C1788 C1771 1.574 . S
C1788 H1782 0.949 . S
C1788 C1792 1.368 . S
C1789 C1770 1.429 . S
C1789 C1783 1.429 1_554 S
C1789 C1790 1.523 . S
C1790 C1771 1.368 1_554 S
C1790 C1784 1.368 . S
C1790 C1789 1.523 . S
C1791 C1775 1.429 . S
C1791 C1787 1.429 1_556 S
C1791 C1792 1.523 . S
C1792 C1776 1.368 1_556 S
C1792 C1788 1.368 . S
C1792 C1791 1.523 . S
H1793 C1768 0.950 . S
H1794 C1770 0.950 . S
H1795 C1771 0.949 . S
H1796 C1773 0.950 . S
H1797 C1775 0.950 . S
C1798 C1799 1.349 . S
C1798 C1800 1.321 1_655 S
C1798 H1823 0.950 1_655 S
C1799 C1798 1.349 . S
C1799 C1815 1.349 . S
C1800 C1798 1.321 1_455 S
C1800 C1819 1.415 1_455 S
C1800 H1824 0.972 . S
C1801 C1818 1.574 . S
C1801 C1820 1.368 . S
C1801 H1825 0.949 . S
H1802 C1806 0.949 . S
C1803 C1804 1.349 . S
C1803 C1805 1.321 1_455 S
C1803 H1826 0.950 1_455 S
C1804 C1803 1.349 . S
C1804 C1816 1.349 . S
C1805 C1803 1.321 1_655 S
C1805 C1821 1.415 1_655 S
C1805 H1827 0.972 . S
C1806 H1802 0.949 . S
C1806 C1814 1.574 . S
C1806 C1822 1.368 . S
H1807 C1815 0.950 . S
H1808 C1813 0.950 . S
H1809 C1814 0.949 . S
H1810 C1816 0.950 . S
H1811 C1817 0.950 . S
H1812 C1818 0.949 . S
C1813 H1808 0.950 . S
C1813 C1815 1.327 . S
C1813 C1819 1.429 . S
C1814 C1806 1.574 . S
C1814 H1809 0.949 . S
C1814 C1820 1.368 1_455 S
C1815 C1799 1.349 . S
C1815 H1807 0.950 . S
C1815 C1813 1.327 . S
C1816 C1804 1.349 . S
C1816 H1810 0.950 . S
C1816 C1817 1.327 . S
C1817 H1811 0.950 . S
C1817 C1816 1.327 . S
C1817 C1821 1.429 . S
C1818 C1801 1.574 . S
C1818 H1812 0.949 . S
C1818 C1822 1.368 1_655 S
C1819 C1800 1.415 1_655 S
C1819 C1813 1.429 . S
C1819 C1820 1.523 . S
C1820 C1801 1.368 . S
C1820 C1814 1.368 1_655 S
C1820 C1819 1.523 . S
C1821 C1805 1.415 1_455 S
C1821 C1817 1.429 . S
C1821 C1822 1.523 . S
C1822 C1806 1.368 . S
C1822 C1818 1.368 1_455 S
C1822 C1821 1.523 . S
H1823 C1798 0.950 1_455 S
H1824 C1800 0.972 . S
H1825 C1801 0.949 . S
H1826 C1803 0.950 1_655 S
H1827 C1805 0.972 . S
C1828 C1829 1.349 . S
C1828 C1830 1.327 1_455 S
C1828 H1853 0.950 1_455 S
C1829 C1828 1.349 . S
C1829 C1845 1.349 1_556 S
C1830 C1828 1.327 1_655 S
C1830 C1849 1.429 1_655 S
C1830 H1854 0.950 . S
C1831 C1848 1.574 . S
C1831 C1850 1.368 1_554 S
C1831 H1855 0.949 . S
H1832 C1836 0.949 . S
C1833 C1834 1.349 . S
C1833 C1835 1.327 1_655 S
C1833 H1856 0.950 1_655 S
C1834 C1833 1.349 . S
C1834 C1846 1.349 1_554 S
C1835 C1833 1.327 1_455 S
C1835 C1851 1.429 1_455 S
C1835 H1857 0.950 . S
C1836 H1832 0.949 . S
C1836 C1844 1.574 . S
C1836 C1852 1.368 1_556 S
H1837 C1845 0.950 . S
H1838 C1843 0.950 . S
H1839 C1844 0.949 . S
H1840 C1846 0.950 . S
H1841 C1847 0.950 . S
H1842 C1848 0.949 . S
C1843 H1838 0.950 . S
C1843 C1845 1.327 . S
C1843 C1849 1.429 1_554 S
C1844 C1836 1.574 . S
C1844 H1839 0.949 . S
C1844 C1850 1.368 1_655 S
C1845 C1829 1.349 1_554 S
C1845 H1837 0.950 . S
C1845 C1843 1.327 . S
C1846 C1834 1.349 1_556 S
C1846 H1840 0.950 . S
C1846 C1847 1.327 . S
C1847 H1841 0.950 . S
C1847 C1846 1.327 . S
C1847 C1851 1.429 1_556 S
C1848 C1831 1.574 . S
C1848 H1842 0.949 . S
C1848 C1852 1.368 1_455 S
C1849 C1830 1.429 1_455 S
C1849 C1843 1.429 1_556 S
C1849 C1850 1.523 . S
C1850 C1831 1.368 1_556 S
C1850 C1844 1.368 1_455 S
C1850 C1849 1.523 . S
C1851 C1835 1.429 1_655 S
C1851 C1847 1.429 1_554 S
C1851 C1852 1.523 . S
C1852 C1836 1.368 1_554 S
C1852 C1848 1.368 1_655 S
C1852 C1851 1.523 . S
H1853 C1828 0.950 1_655 S
H1854 C1830 0.950 . S
H1855 C1831 0.949 . S
H1856 C1833 0.950 1_455 S
H1857 C1835 0.950 . S
C1858 C1859 1.349 . S
C1858 C1860 1.327 . S
C1858 H1883 0.950 . S
C1859 C1858 1.349 . S
C1859 C1875 1.349 . S
C1860 C1858 1.327 . S
C1860 C1879 1.429 . S
C1860 H1884 0.950 . S
C1861 C1878 1.574 . S
C1861 C1880 1.368 . S
C1861 H1885 0.949 . S
H1862 C1866 0.949 . S
C1863 C1864 1.349 . S
C1863 C1865 1.327 . S
C1863 H1886 0.950 . S
C1864 C1863 1.349 . S
C1864 C1876 1.349 . S
C1865 C1863 1.327 . S
C1865 C1881 1.429 . S
C1865 H1887 0.950 . S
C1866 H1862 0.949 . S
C1866 C1874 1.574 . S
C1866 C1882 1.368 . S
H1867 C1875 0.950 . S
H1868 C1873 0.950 . S
H1869 C1874 0.949 . S
H1870 C1876 0.950 . S
H1871 C1877 0.950 . S
H1872 C1878 0.949 . S
C1873 H1868 0.950 . S
C1873 C1875 1.327 . S
C1873 C1879 1.429 . S
C1874 C1866 1.574 . S
C1874 H1869 0.949 . S
C1874 C1880 1.368 . S
C1875 C1859 1.349 . S
C1875 H1867 0.950 . S
C1875 C1873 1.327 . S
C1876 C1864 1.349 . S
C1876 H1870 0.950 . S
C1876 C1877 1.327 . S
C1877 H1871 0.950 . S
C1877 C1876 1.327 . S
C1877 C1881 1.429 . S
C1878 C1861 1.574 . S
C1878 H1872 0.949 . S
C1878 C1882 1.368 . S
C1879 C1860 1.429 . S
C1879 C1873 1.429 . S
C1879 C1880 1.523 . S
C1880 C1861 1.368 . S
C1880 C1874 1.368 . S
C1880 C1879 1.523 . S
C1881 C1865 1.429 . S
C1881 C1877 1.429 . S
C1881 C1882 1.523 . S
C1882 C1866 1.368 . S
C1882 C1878 1.368 . S
C1882 C1881 1.523 . S
H1883 C1858 0.950 . S
H1884 C1860 0.950 . S
H1885 C1861 0.949 . S
H1886 C1863 0.950 . S
H1887 C1865 0.950 . S
C1888 C1889 1.349 . S
C1888 C1890 1.327 . S
C1888 H1913 0.950 . S
C1889 C1888 1.349 . S
C1889 C1905 1.349 . S
C1890 C1888 1.327 . S
C1890 C1909 1.429 . S
C1890 H1914 0.950 . S
C1891 C1908 1.574 . S
C1891 C1910 1.368 . S
C1891 H1915 0.949 . S
H1892 C1896 0.949 . S
C1893 C1894 1.349 . S
C1893 C1895 1.327 . S
C1893 H1916 0.950 . S
C1894 C1893 1.349 . S
C1894 C1906 1.349 . S
C1895 C1893 1.327 . S
C1895 C1911 1.429 . S
C1895 H1917 0.950 . S
C1896 H1892 0.949 . S
C1896 C1904 1.574 . S
C1896 C1912 1.368 . S
H1897 C1905 0.950 . S
H1898 C1903 0.950 . S
H1899 C1904 0.949 . S
H1900 C1906 0.950 . S
H1901 C1907 0.950 . S
H1902 C1908 0.949 . S
C1903 H1898 0.950 . S
C1903 C1905 1.327 . S
C1903 C1909 1.429 . S
C1904 C1896 1.574 . S
C1904 H1899 0.949 . S
C1904 C1910 1.368 . S
C1905 C1889 1.349 . S
C1905 H1897 0.950 . S
C1905 C1903 1.327 . S
C1906 C1894 1.349 . S
C1906 H1900 0.950 . S
C1906 C1907 1.327 . S
C1907 H1901 0.950 . S
C1907 C1906 1.327 . S
C1907 C1911 1.429 . S
C1908 C1891 1.574 . S
C1908 H1902 0.949 . S
C1908 C1912 1.368 . S
C1909 C1890 1.429 . S
C1909 C1903 1.429 . S
C1909 C1910 1.523 . S
C1910 C1891 1.368 . S
C1910 C1904 1.368 . S
C1910 C1909 1.523 . S
C1911 C1895 1.429 . S
C1911 C1907 1.429 . S
C1911 C1912 1.523 . S
C1912 C1896 1.368 . S
C1912 C1908 1.368 . S
C1912 C1911 1.523 . S
H1913 C1888 0.950 . S
H1914 C1890 0.950 . S
H1915 C1891 0.949 . S
H1916 C1893 0.950 . S
H1917 C1895 0.950 . S
C1918 C1919 1.349 . S
C1918 C1920 1.327 . S
C1918 H1943 0.950 . S
C1919 C1918 1.349 . S
C1919 C1935 1.349 . S
C1920 C1918 1.327 . S
C1920 C1939 1.429 . S
C1920 H1944 0.950 . S
C1921 C1938 1.574 . S
C1921 C1940 1.368 . S
C1921 H1945 0.949 . S
H1922 C1926 0.949 . S
C1923 C1924 1.349 . S
C1923 C1925 1.327 . S
C1923 H1946 0.950 . S
C1924 C1923 1.349 . S
C1924 C1936 1.349 . S
C1925 C1923 1.327 . S
C1925 C1941 1.429 . S
C1925 H1947 0.950 . S
C1926 H1922 0.949 . S
C1926 C1934 1.574 . S
C1926 C1942 1.368 . S
H1927 C1935 0.950 . S
H1928 C1933 0.950 . S
H1929 C1934 0.949 . S
H1930 C1936 0.950 . S
H1931 C1937 0.950 . S
H1932 C1938 0.949 . S
C1933 H1928 0.950 . S
C1933 C1935 1.327 . S
C1933 C1939 1.429 . S
C1934 C1926 1.574 . S
C1934 H1929 0.949 . S
C1934 C1940 1.368 . S
C1935 C1919 1.349 . S
C1935 H1927 0.950 . S
C1935 C1933 1.327 . S
C1936 C1924 1.349 . S
C1936 H1930 0.950 . S
C1936 C1937 1.327 . S
C1937 H1931 0.950 . S
C1937 C1936 1.327 . S
C1937 C1941 1.429 . S
C1938 C1921 1.574 . S
C1938 H1932 0.949 . S
C1938 C1942 1.368 . S
C1939 C1920 1.429 . S
C1939 C1933 1.429 . S
C1939 C1940 1.523 . S
C1940 C1921 1.368 . S
C1940 C1934 1.368 . S
C1940 C1939 1.523 . S
C1941 C1925 1.429 . S
C1941 C1937 1.429 . S
C1941 C1942 1.523 . S
C1942 C1926 1.368 . S
C1942 C1938 1.368 . S
C1942 C1941 1.523 . S
H1943 C1918 0.950 . S
H1944 C1920 0.950 . S
H1945 C1921 0.949 . S
H1946 C1923 0.950 . S
H1947 C1925 0.950 . S
C1948 C1949 1.349 . S
C1948 C1950 1.327 . S
C1948 H1973 0.950 . S
C1949 C1948 1.349 . S
C1949 C1965 1.349 . S
C1950 C1948 1.327 . S
C1950 C1969 1.429 . S
C1950 H1974 0.950 . S
C1951 C1968 1.574 . S
C1951 C1970 1.368 . S
C1951 H1975 0.949 . S
H1952 C1956 0.949 . S
C1953 C1954 1.349 . S
C1953 C1955 1.327 . S
C1953 H1976 0.950 . S
C1954 C1953 1.349 . S
C1954 C1966 1.349 . S
C1955 C1953 1.327 . S
C1955 C1971 1.429 . S
C1955 H1977 0.950 . S
C1956 H1952 0.949 . S
C1956 C1964 1.574 . S
C1956 C1972 1.368 . S
H1957 C1965 0.950 . S
H1958 C1963 0.950 . S
H1959 C1964 0.949 . S
H1960 C1966 0.950 . S
H1961 C1967 0.950 . S
H1962 C1968 0.949 . S
C1963 H1958 0.950 . S
C1963 C1965 1.327 . S
C1963 C1969 1.429 . S
C1964 C1956 1.574 . S
C1964 H1959 0.949 . S
C1964 C1970 1.368 . S
C1965 C1949 1.349 . S
C1965 H1957 0.950 . S
C1965 C1963 1.327 . S
C1966 C1954 1.349 . S
C1966 H1960 0.950 . S
C1966 C1967 1.327 . S
C1967 H1961 0.950 . S
C1967 C1966 1.327 . S
C1967 C1971 1.429 . S
C1968 C1951 1.574 . S
C1968 H1962 0.949 . S
C1968 C1972 1.368 . S
C1969 C1950 1.429 . S
C1969 C1963 1.429 . S
C1969 C1970 1.523 . S
C1970 C1951 1.368 . S
C1970 C1964 1.368 . S
C1970 C1969 1.523 . S
C1971 C1955 1.429 . S
C1971 C1967 1.429 . S
C1971 C1972 1.523 . S
C1972 C1956 1.368 . S
C1972 C1968 1.368 . S
C1972 C1971 1.523 . S
H1973 C1948 0.950 . S
H1974 C1950 0.950 . S
H1975 C1951 0.949 . S
H1976 C1953 0.950 . S
H1977 C1955 0.950 . S
C1978 C1979 1.349 . S
C1978 C1980 1.327 . S
C1978 H2003 0.950 . S
C1979 C1978 1.349 . S
C1979 C1995 1.349 . S
C1980 C1978 1.327 . S
C1980 C1999 1.429 . S
C1980 H2004 0.950 . S
C1981 C1998 1.574 . S
C1981 C2000 1.368 . S
C1981 H2005 0.949 . S
H1982 C1986 0.949 . S
C1983 C1984 1.349 . S
C1983 C1985 1.327 . S
C1983 H2006 0.950 . S
C1984 C1983 1.349 . S
C1984 C1996 1.349 . S
C1985 C1983 1.327 . S
C1985 C2001 1.429 . S
C1985 H2007 0.950 . S
C1986 H1982 0.949 . S
C1986 C1994 1.574 . S
C1986 C2002 1.368 . S
H1987 C1995 0.950 . S
H1988 C1993 0.950 . S
H1989 C1994 0.949 . S
H1990 C1996 0.950 . S
H1991 C1997 0.950 . S
H1992 C1998 0.949 . S
C1993 H1988 0.950 . S
C1993 C1995 1.327 . S
C1993 C1999 1.429 . S
C1994 C1986 1.574 . S
C1994 H1989 0.949 . S
C1994 C2000 1.368 . S
C1995 C1979 1.349 . S
C1995 H1987 0.950 . S
C1995 C1993 1.327 . S
C1996 C1984 1.349 . S
C1996 H1990 0.950 . S
C1996 C1997 1.327 . S
C1997 H1991 0.950 . S
C1997 C1996 1.327 . S
C1997 C2001 1.429 . S
C1998 C1981 1.574 . S
C1998 H1992 0.949 . S
C1998 C2002 1.368 . S
C1999 C1980 1.429 . S
C1999 C1993 1.429 . S
C1999 C2000 1.523 . S
C2000 C1981 1.368 . S
C2000 C1994 1.368 . S
C2000 C1999 1.523 . S
C2001 C1985 1.429 . S
C2001 C1997 1.429 . S
C2001 C2002 1.523 . S
C2002 C1986 1.368 . S
C2002 C1998 1.368 . S
C2002 C2001 1.523 . S
H2003 C1978 0.950 . S
H2004 C1980 0.950 . S
H2005 C1981 0.949 . S
H2006 C1983 0.950 . S
H2007 C1985 0.950 . S
C2008 C2009 1.349 . S
C2008 C2010 1.327 . S
C2008 H2033 0.950 . S
C2009 C2008 1.349 . S
C2009 C2025 1.349 . S
C2010 C2008 1.327 . S
C2010 C2029 1.429 . S
C2010 H2034 0.950 . S
C2011 C2028 1.574 . S
C2011 C2030 1.368 . S
C2011 H2035 0.949 . S
H2012 C2016 0.949 . S
C2013 C2014 1.349 . S
C2013 C2015 1.327 . S
C2013 H2036 0.950 . S
C2014 C2013 1.349 . S
C2014 C2026 1.349 . S
C2015 C2013 1.327 . S
C2015 C2031 1.429 . S
C2015 H2037 0.950 . S
C2016 H2012 0.949 . S
C2016 C2024 1.574 . S
C2016 C2032 1.368 . S
H2017 C2025 0.950 . S
H2018 C2023 0.950 . S
H2019 C2024 0.949 . S
H2020 C2026 0.950 . S
H2021 C2027 0.950 . S
H2022 C2028 0.949 . S
C2023 H2018 0.950 . S
C2023 C2025 1.327 . S
C2023 C2029 1.429 . S
C2024 C2016 1.574 . S
C2024 H2019 0.949 . S
C2024 C2030 1.368 . S
C2025 C2009 1.349 . S
C2025 H2017 0.950 . S
C2025 C2023 1.327 . S
C2026 C2014 1.349 . S
C2026 H2020 0.950 . S
C2026 C2027 1.327 . S
C2027 H2021 0.950 . S
C2027 C2026 1.327 . S
C2027 C2031 1.429 . S
C2028 C2011 1.574 . S
C2028 H2022 0.949 . S
C2028 C2032 1.368 . S
C2029 C2010 1.429 . S
C2029 C2023 1.429 . S
C2029 C2030 1.523 . S
C2030 C2011 1.368 . S
C2030 C2024 1.368 . S
C2030 C2029 1.523 . S
C2031 C2015 1.429 . S
C2031 C2027 1.429 . S
C2031 C2032 1.523 . S
C2032 C2016 1.368 . S
C2032 C2028 1.368 . S
C2032 C2031 1.523 . S
H2033 C2008 0.950 . S
H2034 C2010 0.950 . S
H2035 C2011 0.949 . S
H2036 C2013 0.950 . S
H2037 C2015 0.950 . S
C2038 C2039 1.349 . S
C2038 C2040 1.327 . S
C2038 H2063 0.950 . S
C2039 C2038 1.349 . S
C2039 C2055 1.349 . S
C2040 C2038 1.327 . S
C2040 C2059 1.429 . S
C2040 H2064 0.950 . S
C2041 C2058 1.574 . S
C2041 C2060 1.368 . S
C2041 H2065 0.949 . S
H2042 C2046 0.949 . S
C2043 C2044 1.349 . S
C2043 C2045 1.327 . S
C2043 H2066 0.950 . S
C2044 C2043 1.349 . S
C2044 C2056 1.349 . S
C2045 C2043 1.327 . S
C2045 C2061 1.429 . S
C2045 H2067 0.950 . S
C2046 H2042 0.949 . S
C2046 C2054 1.574 . S
C2046 C2062 1.368 . S
H2047 C2055 0.950 . S
H2048 C2053 0.950 . S
H2049 C2054 0.949 . S
H2050 C2056 0.950 . S
H2051 C2057 0.950 . S
H2052 C2058 0.949 . S
C2053 H2048 0.950 . S
C2053 C2055 1.327 . S
C2053 C2059 1.429 . S
C2054 C2046 1.574 . S
C2054 H2049 0.949 . S
C2054 C2060 1.368 . S
C2055 C2039 1.349 . S
C2055 H2047 0.950 . S
C2055 C2053 1.327 . S
C2056 C2044 1.349 . S
C2056 H2050 0.950 . S
C2056 C2057 1.327 . S
C2057 H2051 0.950 . S
C2057 C2056 1.327 . S
C2057 C2061 1.429 . S
C2058 C2041 1.574 . S
C2058 H2052 0.949 . S
C2058 C2062 1.368 . S
C2059 C2040 1.429 . S
C2059 C2053 1.429 . S
C2059 C2060 1.523 . S
C2060 C2041 1.368 . S
C2060 C2054 1.368 . S
C2060 C2059 1.523 . S
C2061 C2045 1.429 . S
C2061 C2057 1.429 . S
C2061 C2062 1.523 . S
C2062 C2046 1.368 . S
C2062 C2058 1.368 . S
C2062 C2061 1.523 . S
H2063 C2038 0.950 . S
H2064 C2040 0.950 . S
H2065 C2041 0.949 . S
H2066 C2043 0.950 . S
H2067 C2045 0.950 . S
C2068 C2069 1.349 . S
C2068 C2070 1.327 . S
C2068 H2093 0.950 . S
C2069 C2068 1.349 . S
C2069 C2085 1.349 . S
C2070 C2068 1.327 . S
C2070 C2089 1.429 . S
C2070 H2094 0.950 . S
C2071 C2088 1.574 . S
C2071 C2090 1.368 . S
C2071 H2095 0.949 . S
H2072 C2076 0.949 . S
C2073 C2074 1.349 . S
C2073 C2075 1.327 . S
C2073 H2096 0.950 . S
C2074 C2073 1.349 . S
C2074 C2086 1.349 . S
C2075 C2073 1.327 . S
C2075 C2091 1.429 . S
C2075 H2097 0.950 . S
C2076 H2072 0.949 . S
C2076 C2084 1.574 . S
C2076 C2092 1.368 . S
H2077 C2085 0.950 . S
H2078 C2083 0.950 . S
H2079 C2084 0.949 . S
H2080 C2086 0.950 . S
H2081 C2087 0.950 . S
H2082 C2088 0.949 . S
C2083 H2078 0.950 . S
C2083 C2085 1.327 . S
C2083 C2089 1.429 . S
C2084 C2076 1.574 . S
C2084 H2079 0.949 . S
C2084 C2090 1.368 . S
C2085 C2069 1.349 . S
C2085 H2077 0.950 . S
C2085 C2083 1.327 . S
C2086 C2074 1.349 . S
C2086 H2080 0.950 . S
C2086 C2087 1.327 . S
C2087 H2081 0.950 . S
C2087 C2086 1.327 . S
C2087 C2091 1.429 . S
C2088 C2071 1.574 . S
C2088 H2082 0.949 . S
C2088 C2092 1.368 . S
C2089 C2070 1.429 . S
C2089 C2083 1.429 . S
C2089 C2090 1.523 . S
C2090 C2071 1.368 . S
C2090 C2084 1.368 . S
C2090 C2089 1.523 . S
C2091 C2075 1.429 . S
C2091 C2087 1.429 . S
C2091 C2092 1.523 . S
C2092 C2076 1.368 . S
C2092 C2088 1.368 . S
C2092 C2091 1.523 . S
H2093 C2068 0.950 . S
H2094 C2070 0.950 . S
H2095 C2071 0.949 . S
H2096 C2073 0.950 . S
H2097 C2075 0.950 . S
C2098 C2099 1.349 . S
C2098 C2100 1.327 . S
C2098 H2123 0.950 . S
C2099 C2098 1.349 . S
C2099 C2115 1.349 . S
C2100 C2098 1.327 . S
C2100 C2119 1.429 . S
C2100 H2124 0.950 . S
C2101 C2118 1.574 . S
C2101 C2120 1.368 . S
C2101 H2125 0.949 . S
H2102 C2106 0.949 . S
C2103 C2104 1.349 . S
C2103 C2105 1.327 . S
C2103 H2126 0.950 . S
C2104 C2103 1.349 . S
C2104 C2116 1.349 . S
C2105 C2103 1.327 . S
C2105 C2121 1.429 . S
C2105 H2127 0.950 . S
C2106 H2102 0.949 . S
C2106 C2114 1.574 . S
C2106 C2122 1.368 . S
H2107 C2115 0.950 . S
H2108 C2113 0.950 . S
H2109 C2114 0.949 . S
H2110 C2116 0.950 . S
H2111 C2117 0.950 . S
H2112 C2118 0.949 . S
C2113 H2108 0.950 . S
C2113 C2115 1.327 . S
C2113 C2119 1.429 . S
C2114 C2106 1.574 . S
C2114 H2109 0.949 . S
C2114 C2120 1.368 . S
C2115 C2099 1.349 . S
C2115 H2107 0.950 . S
C2115 C2113 1.327 . S
C2116 C2104 1.349 . S
C2116 H2110 0.950 . S
C2116 C2117 1.327 . S
C2117 H2111 0.950 . S
C2117 C2116 1.327 . S
C2117 C2121 1.429 . S
C2118 C2101 1.574 . S
C2118 H2112 0.949 . S
C2118 C2122 1.368 . S
C2119 C2100 1.429 . S
C2119 C2113 1.429 . S
C2119 C2120 1.523 . S
C2120 C2101 1.368 . S
C2120 C2114 1.368 . S
C2120 C2119 1.523 . S
C2121 C2105 1.429 . S
C2121 C2117 1.429 . S
C2121 C2122 1.523 . S
C2122 C2106 1.368 . S
C2122 C2118 1.368 . S
C2122 C2121 1.523 . S
H2123 C2098 0.950 . S
H2124 C2100 0.950 . S
H2125 C2101 0.949 . S
H2126 C2103 0.950 . S
H2127 C2105 0.950 . S
C2128 C2129 1.349 . S
C2128 C2130 1.327 . S
C2128 H2153 0.950 . S
C2129 C2128 1.349 . S
C2129 C2145 1.349 . S
C2130 C2128 1.327 . S
C2130 C2149 1.429 . S
C2130 H2154 0.950 . S
C2131 C2148 1.574 . S
C2131 C2150 1.368 . S
C2131 H2155 0.949 . S
H2132 C2136 0.949 . S
C2133 C2134 1.349 . S
C2133 C2135 1.327 . S
C2133 H2156 0.950 . S
C2134 C2133 1.349 . S
C2134 C2146 1.349 . S
C2135 C2133 1.327 . S
C2135 C2151 1.429 . S
C2135 H2157 0.950 . S
C2136 H2132 0.949 . S
C2136 C2144 1.574 . S
C2136 C2152 1.368 . S
H2137 C2145 0.950 . S
H2138 C2143 0.950 . S
H2139 C2144 0.949 . S
H2140 C2146 0.950 . S
H2141 C2147 0.950 . S
H2142 C2148 0.949 . S
C2143 H2138 0.950 . S
C2143 C2145 1.327 . S
C2143 C2149 1.429 . S
C2144 C2136 1.574 . S
C2144 H2139 0.949 . S
C2144 C2150 1.368 . S
C2145 C2129 1.349 . S
C2145 H2137 0.950 . S
C2145 C2143 1.327 . S
C2146 C2134 1.349 . S
C2146 H2140 0.950 . S
C2146 C2147 1.327 . S
C2147 H2141 0.950 . S
C2147 C2146 1.327 . S
C2147 C2151 1.429 . S
C2148 C2131 1.574 . S
C2148 H2142 0.949 . S
C2148 C2152 1.368 . S
C2149 C2130 1.429 . S
C2149 C2143 1.429 . S
C2149 C2150 1.523 . S
C2150 C2131 1.368 . S
C2150 C2144 1.368 . S
C2150 C2149 1.523 . S
C2151 C2135 1.429 . S
C2151 C2147 1.429 . S
C2151 C2152 1.523 . S
C2152 C2136 1.368 . S
C2152 C2148 1.368 . S
C2152 C2151 1.523 . S
H2153 C2128 0.950 . S
H2154 C2130 0.950 . S
H2155 C2131 0.949 . S
H2156 C2133 0.950 . S
H2157 C2135 0.950 . S
C2158 C2159 1.349 . S
C2158 C2160 1.327 . S
C2158 H2183 0.950 . S
C2159 C2158 1.349 . S
C2159 C2175 1.349 . S
C2160 C2158 1.327 . S
C2160 C2179 1.429 . S
C2160 H2184 0.950 . S
C2161 C2178 1.574 . S
C2161 C2180 1.368 . S
C2161 H2185 0.949 . S
H2162 C2166 0.949 . S
C2163 C2164 1.349 . S
C2163 C2165 1.327 . S
C2163 H2186 0.950 . S
C2164 C2163 1.349 . S
C2164 C2176 1.349 . S
C2165 C2163 1.327 . S
C2165 C2181 1.429 . S
C2165 H2187 0.950 . S
C2166 H2162 0.949 . S
C2166 C2174 1.574 . S
C2166 C2182 1.368 . S
H2167 C2175 0.950 . S
H2168 C2173 0.950 . S
H2169 C2174 0.949 . S
H2170 C2176 0.950 . S
H2171 C2177 0.950 . S
H2172 C2178 0.949 . S
C2173 H2168 0.950 . S
C2173 C2175 1.327 . S
C2173 C2179 1.429 . S
C2174 C2166 1.574 . S
C2174 H2169 0.949 . S
C2174 C2180 1.368 . S
C2175 C2159 1.349 . S
C2175 H2167 0.950 . S
C2175 C2173 1.327 . S
C2176 C2164 1.349 . S
C2176 H2170 0.950 . S
C2176 C2177 1.327 . S
C2177 H2171 0.950 . S
C2177 C2176 1.327 . S
C2177 C2181 1.429 . S
C2178 C2161 1.574 . S
C2178 H2172 0.949 . S
C2178 C2182 1.368 . S
C2179 C2160 1.429 . S
C2179 C2173 1.429 . S
C2179 C2180 1.523 . S
C2180 C2161 1.368 . S
C2180 C2174 1.368 . S
C2180 C2179 1.523 . S
C2181 C2165 1.429 . S
C2181 C2177 1.429 . S
C2181 C2182 1.523 . S
C2182 C2166 1.368 . S
C2182 C2178 1.368 . S
C2182 C2181 1.523 . S
H2183 C2158 0.950 . S
H2184 C2160 0.950 . S
H2185 C2161 0.949 . S
H2186 C2163 0.950 . S
H2187 C2165 0.950 . S
C2188 C2189 1.349 . S
C2188 C2190 1.327 . S
C2188 H2213 0.950 . S
C2189 C2188 1.349 . S
C2189 C2205 1.349 . S
C2190 C2188 1.327 . S
C2190 C2209 1.429 . S
C2190 H2214 0.950 . S
C2191 C2208 1.574 . S
C2191 C2210 1.368 . S
C2191 H2215 0.949 . S
H2192 C2196 0.949 . S
C2193 C2194 1.349 . S
C2193 C2195 1.327 . S
C2193 H2216 0.950 . S
C2194 C2193 1.349 . S
C2194 C2206 1.349 . S
C2195 C2193 1.327 . S
C2195 C2211 1.429 . S
C2195 H2217 0.950 . S
C2196 H2192 0.949 . S
C2196 C2204 1.574 . S
C2196 C2212 1.368 . S
H2197 C2205 0.950 . S
H2198 C2203 0.950 . S
H2199 C2204 0.949 . S
H2200 C2206 0.950 . S
H2201 C2207 0.950 . S
H2202 C2208 0.949 . S
C2203 H2198 0.950 . S
C2203 C2205 1.327 . S
C2203 C2209 1.429 . S
C2204 C2196 1.574 . S
C2204 H2199 0.949 . S
C2204 C2210 1.368 . S
C2205 C2189 1.349 . S
C2205 H2197 0.950 . S
C2205 C2203 1.327 . S
C2206 C2194 1.349 . S
C2206 H2200 0.950 . S
C2206 C2207 1.327 . S
C2207 H2201 0.950 . S
C2207 C2206 1.327 . S
C2207 C2211 1.429 . S
C2208 C2191 1.574 . S
C2208 H2202 0.949 . S
C2208 C2212 1.368 . S
C2209 C2190 1.429 . S
C2209 C2203 1.429 . S
C2209 C2210 1.523 . S
C2210 C2191 1.368 . S
C2210 C2204 1.368 . S
C2210 C2209 1.523 . S
C2211 C2195 1.429 . S
C2211 C2207 1.429 . S
C2211 C2212 1.523 . S
C2212 C2196 1.368 . S
C2212 C2208 1.368 . S
C2212 C2211 1.523 . S
H2213 C2188 0.950 . S
H2214 C2190 0.950 . S
H2215 C2191 0.949 . S
H2216 C2193 0.950 . S
H2217 C2195 0.950 . S
C2218 C2219 1.349 . S
C2218 C2220 1.327 . S
C2218 H2243 0.950 . S
C2219 C2218 1.349 . S
C2219 C2235 1.349 . S
C2220 C2218 1.327 . S
C2220 C2239 1.429 . S
C2220 H2244 0.950 . S
C2221 C2238 1.574 . S
C2221 C2240 1.368 . S
C2221 H2245 0.949 . S
H2222 C2226 0.949 . S
C2223 C2224 1.349 . S
C2223 C2225 1.327 . S
C2223 H2246 0.950 . S
C2224 C2223 1.349 . S
C2224 C2236 1.349 . S
C2225 C2223 1.327 . S
C2225 C2241 1.429 . S
C2225 H2247 0.950 . S
C2226 H2222 0.949 . S
C2226 C2234 1.574 . S
C2226 C2242 1.368 . S
H2227 C2235 0.950 . S
H2228 C2233 0.950 . S
H2229 C2234 0.949 . S
H2230 C2236 0.950 . S
H2231 C2237 0.950 . S
H2232 C2238 0.949 . S
C2233 H2228 0.950 . S
C2233 C2235 1.327 . S
C2233 C2239 1.429 . S
C2234 C2226 1.574 . S
C2234 H2229 0.949 . S
C2234 C2240 1.368 . S
C2235 C2219 1.349 . S
C2235 H2227 0.950 . S
C2235 C2233 1.327 . S
C2236 C2224 1.349 . S
C2236 H2230 0.950 . S
C2236 C2237 1.327 . S
C2237 H2231 0.950 . S
C2237 C2236 1.327 . S
C2237 C2241 1.429 . S
C2238 C2221 1.574 . S
C2238 H2232 0.949 . S
C2238 C2242 1.368 . S
C2239 C2220 1.429 . S
C2239 C2233 1.429 . S
C2239 C2240 1.523 . S
C2240 C2221 1.368 . S
C2240 C2234 1.368 . S
C2240 C2239 1.523 . S
C2241 C2225 1.429 . S
C2241 C2237 1.429 . S
C2241 C2242 1.523 . S
C2242 C2226 1.368 . S
C2242 C2238 1.368 . S
C2242 C2241 1.523 . S
H2243 C2218 0.950 . S
H2244 C2220 0.950 . S
H2245 C2221 0.949 . S
H2246 C2223 0.950 . S
H2247 C2225 0.950 . S
C2248 C2249 1.349 . S
C2248 C2250 1.327 . S
C2248 H2273 0.950 . S
C2249 C2248 1.349 . S
C2249 C2265 1.349 . S
C2250 C2248 1.327 . S
C2250 C2269 1.429 . S
C2250 H2274 0.950 . S
C2251 C2268 1.574 . S
C2251 C2270 1.368 . S
C2251 H2275 0.949 . S
H2252 C2256 0.949 . S
C2253 C2254 1.349 . S
C2253 C2255 1.327 . S
C2253 H2276 0.950 . S
C2254 C2253 1.349 . S
C2254 C2266 1.349 . S
C2255 C2253 1.327 . S
C2255 C2271 1.429 . S
C2255 H2277 0.950 . S
C2256 H2252 0.949 . S
C2256 C2264 1.574 . S
C2256 C2272 1.368 . S
H2257 C2265 0.950 . S
H2258 C2263 0.950 . S
H2259 C2264 0.949 . S
H2260 C2266 0.950 . S
H2261 C2267 0.950 . S
H2262 C2268 0.949 . S
C2263 H2258 0.950 . S
C2263 C2265 1.327 . S
C2263 C2269 1.429 . S
C2264 C2256 1.574 . S
C2264 H2259 0.949 . S
C2264 C2270 1.368 . S
C2265 C2249 1.349 . S
C2265 H2257 0.950 . S
C2265 C2263 1.327 . S
C2266 C2254 1.349 . S
C2266 H2260 0.950 . S
C2266 C2267 1.327 . S
C2267 H2261 0.950 . S
C2267 C2266 1.327 . S
C2267 C2271 1.429 . S
C2268 C2251 1.574 . S
C2268 H2262 0.949 . S
C2268 C2272 1.368 . S
C2269 C2250 1.429 . S
C2269 C2263 1.429 . S
C2269 C2270 1.523 . S
C2270 C2251 1.368 . S
C2270 C2264 1.368 . S
C2270 C2269 1.523 . S
C2271 C2255 1.429 . S
C2271 C2267 1.429 . S
C2271 C2272 1.523 . S
C2272 C2256 1.368 . S
C2272 C2268 1.368 . S
C2272 C2271 1.523 . S
H2273 C2248 0.950 . S
H2274 C2250 0.950 . S
H2275 C2251 0.949 . S
H2276 C2253 0.950 . S
H2277 C2255 0.950 . S
C2278 C2279 1.349 . S
C2278 C2280 1.327 . S
C2278 H2303 0.950 . S
C2279 C2278 1.349 . S
C2279 C2295 1.349 . S
C2280 C2278 1.327 . S
C2280 C2299 1.429 . S
C2280 H2304 0.950 . S
C2281 C2298 1.574 . S
C2281 C2300 1.368 . S
C2281 H2305 0.949 . S
H2282 C2286 0.949 . S
C2283 C2284 1.349 . S
C2283 C2285 1.327 . S
C2283 H2306 0.950 . S
C2284 C2283 1.349 . S
C2284 C2296 1.349 . S
C2285 C2283 1.327 . S
C2285 C2301 1.429 . S
C2285 H2307 0.950 . S
C2286 H2282 0.949 . S
C2286 C2294 1.574 . S
C2286 C2302 1.368 . S
H2287 C2295 0.950 . S
H2288 C2293 0.950 . S
H2289 C2294 0.949 . S
H2290 C2296 0.950 . S
H2291 C2297 0.950 . S
H2292 C2298 0.949 . S
C2293 H2288 0.950 . S
C2293 C2295 1.327 . S
C2293 C2299 1.429 . S
C2294 C2286 1.574 . S
C2294 H2289 0.949 . S
C2294 C2300 1.368 . S
C2295 C2279 1.349 . S
C2295 H2287 0.950 . S
C2295 C2293 1.327 . S
C2296 C2284 1.349 . S
C2296 H2290 0.950 . S
C2296 C2297 1.327 . S
C2297 H2291 0.950 . S
C2297 C2296 1.327 . S
C2297 C2301 1.429 . S
C2298 C2281 1.574 . S
C2298 H2292 0.949 . S
C2298 C2302 1.368 . S
C2299 C2280 1.429 . S
C2299 C2293 1.429 . S
C2299 C2300 1.523 . S
C2300 C2281 1.368 . S
C2300 C2294 1.368 . S
C2300 C2299 1.523 . S
C2301 C2285 1.429 . S
C2301 C2297 1.429 . S
C2301 C2302 1.523 . S
C2302 C2286 1.368 . S
C2302 C2298 1.368 . S
C2302 C2301 1.523 . S
H2303 C2278 0.950 . S
H2304 C2280 0.950 . S
H2305 C2281 0.949 . S
H2306 C2283 0.950 . S
H2307 C2285 0.950 . S
C2308 C2309 1.349 . S
C2308 C2310 1.327 . S
C2308 H2333 0.950 . S
C2309 C2308 1.349 . S
C2309 C2325 1.349 . S
C2310 C2308 1.327 . S
C2310 C2329 1.429 . S
C2310 H2334 0.950 . S
C2311 C2328 1.574 . S
C2311 C2330 1.368 . S
C2311 H2335 0.949 . S
H2312 C2316 0.949 . S
C2313 C2314 1.349 . S
C2313 C2315 1.327 . S
C2313 H2336 0.950 . S
C2314 C2313 1.349 . S
C2314 C2326 1.349 . S
C2315 C2313 1.327 . S
C2315 C2331 1.429 . S
C2315 H2337 0.950 . S
C2316 H2312 0.949 . S
C2316 C2324 1.574 . S
C2316 C2332 1.368 . S
H2317 C2325 0.950 . S
H2318 C2323 0.950 . S
H2319 C2324 0.949 . S
H2320 C2326 0.950 . S
H2321 C2327 0.950 . S
H2322 C2328 0.949 . S
C2323 H2318 0.950 . S
C2323 C2325 1.327 . S
C2323 C2329 1.429 . S
C2324 C2316 1.574 . S
C2324 H2319 0.949 . S
C2324 C2330 1.368 . S
C2325 C2309 1.349 . S
C2325 H2317 0.950 . S
C2325 C2323 1.327 . S
C2326 C2314 1.349 . S
C2326 H2320 0.950 . S
C2326 C2327 1.327 . S
C2327 H2321 0.950 . S
C2327 C2326 1.327 . S
C2327 C2331 1.429 . S
C2328 C2311 1.574 . S
C2328 H2322 0.949 . S
C2328 C2332 1.368 . S
C2329 C2310 1.429 . S
C2329 C2323 1.429 . S
C2329 C2330 1.523 . S
C2330 C2311 1.368 . S
C2330 C2324 1.368 . S
C2330 C2329 1.523 . S
C2331 C2315 1.429 . S
C2331 C2327 1.429 . S
C2331 C2332 1.523 . S
C2332 C2316 1.368 . S
C2332 C2328 1.368 . S
C2332 C2331 1.523 . S
H2333 C2308 0.950 . S
H2334 C2310 0.950 . S
H2335 C2311 0.949 . S
H2336 C2313 0.950 . S
H2337 C2315 0.950 . S
C2338 C2339 1.349 . S
C2338 C2340 1.327 . S
C2338 H2363 0.950 . S
C2339 C2338 1.349 . S
C2339 C2355 1.349 . S
C2340 C2338 1.327 . S
C2340 C2359 1.429 . S
C2340 H2364 0.950 . S
C2341 C2358 1.574 . S
C2341 C2360 1.368 . S
C2341 H2365 0.949 . S
H2342 C2346 0.949 . S
C2343 C2344 1.349 . S
C2343 C2345 1.327 . S
C2343 H2366 0.950 . S
C2344 C2343 1.349 . S
C2344 C2356 1.349 . S
C2345 C2343 1.327 . S
C2345 C2361 1.429 . S
C2345 H2367 0.950 . S
C2346 H2342 0.949 . S
C2346 C2354 1.574 . S
C2346 C2362 1.368 . S
H2347 C2355 0.950 . S
H2348 C2353 0.950 . S
H2349 C2354 0.949 . S
H2350 C2356 0.950 . S
H2351 C2357 0.950 . S
H2352 C2358 0.949 . S
C2353 H2348 0.950 . S
C2353 C2355 1.327 . S
C2353 C2359 1.429 . S
C2354 C2346 1.574 . S
C2354 H2349 0.949 . S
C2354 C2360 1.368 . S
C2355 C2339 1.349 . S
C2355 H2347 0.950 . S
C2355 C2353 1.327 . S
C2356 C2344 1.349 . S
C2356 H2350 0.950 . S
C2356 C2357 1.327 . S
C2357 H2351 0.950 . S
C2357 C2356 1.327 . S
C2357 C2361 1.429 . S
C2358 C2341 1.574 . S
C2358 H2352 0.949 . S
C2358 C2362 1.368 . S
C2359 C2340 1.429 . S
C2359 C2353 1.429 . S
C2359 C2360 1.523 . S
C2360 C2341 1.368 . S
C2360 C2354 1.368 . S
C2360 C2359 1.523 . S
C2361 C2345 1.429 . S
C2361 C2357 1.429 . S
C2361 C2362 1.523 . S
C2362 C2346 1.368 . S
C2362 C2358 1.368 . S
C2362 C2361 1.523 . S
H2363 C2338 0.950 . S
H2364 C2340 0.950 . S
H2365 C2341 0.949 . S
H2366 C2343 0.950 . S
H2367 C2345 0.950 . S
C449 C134 0.744 . S
C454 C7 0.744 . S
C479 C21 0.744 . S
C484 C372 0.744 . S
C509 C162 0.744 . S
C514 C35 0.744 . S
C539 C344 0.744 . S
C544 C49 0.744 . S
C569 C63 0.744 . S
C574 C218 0.744 . S
C599 C400 0.744 . S
C604 C77 0.744 . S
C629 C91 0.744 . S
C634 C190 0.744 . S
C659 C428 0.744 . S
C664 C105 0.744 . S
C689 C22 0.744 . S
C694 C119 0.744 . S
C719 C133 0.744 . S
C724 C260 0.744 . S
C749 C50 0.744 . S
C754 C147 0.744 . S
C779 C161 0.744 . S
C784 C232 0.744 . S
C809 C175 0.744 . S
C814 C106 0.744 . S
C839 C288 0.744 . S
C844 C189 0.744 . S
C869 C203 0.744 . S
C874 C78 0.744 . S
C899 C316 0.744 . S
C904 C217 0.744 . S
C929 C358 0.744 . S
C934 C231 0.744 . S
C959 C148 0.744 . S
C964 C245 0.744 . S
C989 C259 0.744 . S
C994 C386 0.744 . S
C1019 C120 0.744 . S
C1024 C273 0.744 . S
C1049 C442 0.744 . S
C1054 C287 0.744 . S
C1079 C301 0.744 . S
C1084 C176 0.744 . S
C1109 C414 0.744 . S
C1114 C315 0.744 . S
C1139 C204 0.744 . S
C1144 C329 0.744 . S
C1169 C246 0.744 . S
C1174 C343 0.744 . S
C1199 C357 0.744 . S
C1204 C36 0.744 . S
C1229 C371 0.744 . S
C1234 C274 0.744 . S
C1259 C385 0.744 . S
C1264 C8 0.744 . S
C1289 C330 0.744 . S
C1294 C399 0.744 . S
C1319 C413 0.744 . S
C1324 C64 0.744 . S
C1349 C427 0.744 . S
C1354 C302 0.744 . S
C1379 C441 0.744 . S
C1384 C92 0.744 . S
C1409 C347 1.181 . S
C1414 C11 1.181 . S
C1439 C25 1.181 . S
C1444 C137 1.181 . S
C1469 C39 1.181 . S
C1474 C375 1.181 . S
C1499 C53 1.181 . S
C1504 C165 1.181 . S
C1529 C67 1.181 . S
C1534 C403 1.181 . S
C1559 C81 1.181 . S
C1564 C193 1.181 . S
C1589 C431 1.181 . S
C1594 C95 1.181 . S
C1619 C109 1.181 . S
C1624 C221 1.181 . S
C1649 C123 1.181 . S
C1654 C235 1.181 . S
C1679 C151 1.181 . S
C1684 C263 1.181 . S
C1709 C291 1.181 . S
C1714 C179 1.181 . S
C1739 C319 1.181 . S
C1744 C207 1.181 . S
C1769 C249 1.181 . S
C1774 C361 1.181 . S
C1799 C389 1.181 . S
C1804 C277 1.181 . S
C1829 C305 1.181 . S
C1834 C417 1.181 . S
C1859 C445 1.181 . S
C1864 C333 1.181 . S
C1889 C307 1.503 . S
C1894 C13 1.503 . S
C1919 C321 1.503 . S
C1924 C27 1.503 . S
C1949 C41 1.503 . S
C1954 C335 1.503 . S
C1979 C293 1.503 . S
C1984 C55 1.503 . S
C2009 C279 1.503 . S
C2014 C69 1.503 . S
C2039 C237 1.503 . S
C2044 C83 1.503 . S
C2069 C97 1.503 . S
C2074 C251 1.503 . S
C2099 C265 1.503 . S
C2104 C111 1.503 . S
C2129 C419 1.503 . S
C2134 C125 1.503 . S
C2159 C433 1.503 . S
C2164 C139 1.503 . S
C2189 C447 1.503 . S
C2194 C153 1.503 . S
C2219 C167 1.503 . S
C2224 C405 1.503 . S
C2249 C391 1.503 . S
C2254 C181 1.503 . S
C2279 C349 1.503 . S
C2284 C195 1.503 . S
C2309 C363 1.503 . S
C2314 C209 1.503 . S
C2339 C377 1.503 . S
C2344 C223 1.503 . S
