# Generated by pormake.
# Topology umz, (4)-cn, num edge types: 1
# Building blocks:
#     Node 0, Type 0, BuildingBlock: QUQFOY_clean_sbu_1, # of connection points: 4
#     Node 1, Type 0, BuildingBlock: QUQFOY_clean_sbu_1, # of connection points: 4
#     Node 2, Type 0, BuildingBlock: QUQFOY_clean_sbu_1, # of connection points: 4
#     Node 3, Type 0, BuildingBlock: QUQFOY_clean_sbu_1, # of connection points: 4
#     Node 4, Type 0, BuildingBlock: QUQFOY_clean_sbu_1, # of connection points: 4
#     Node 5, Type 0, BuildingBlock: QUQFOY_clean_sbu_1, # of connection points: 4
#     Node 6, Type 0, BuildingBlock: QUQFOY_clean_sbu_1, # of connection points: 4
#     Node 7, Type 0, BuildingBlock: QUQFOY_clean_sbu_1, # of connection points: 4
#     Node 8, Type 0, BuildingBlock: QUQFOY_clean_sbu_1, # of connection points: 4
#     Node 9, Type 0, BuildingBlock: QUQFOY_clean_sbu_1, # of connection points: 4
#     Node 10, Type 0, BuildingBlock: QUQFOY_clean_sbu_1, # of connection points: 4
#     Node 11, Type 0, BuildingBlock: QUQFOY_clean_sbu_1, # of connection points: 4
#     Node 12, Type 0, BuildingBlock: QUQFOY_clean_sbu_1, # of connection points: 4
#     Node 13, Type 0, BuildingBlock: QUQFOY_clean_sbu_1, # of connection points: 4
#     Node 14, Type 0, BuildingBlock: QUQFOY_clean_sbu_1, # of connection points: 4
#     Node 15, Type 0, BuildingBlock: QUQFOY_clean_sbu_1, # of connection points: 4
#     Edge 16, Type (0, 0), BuildingBlock: XIVTED_clean_linker_0, # of connection points: 2
#     Edge 17, Type (0, 0), BuildingBlock: XIVTED_clean_linker_0, # of connection points: 2
#     Edge 18, Type (0, 0), BuildingBlock: XIVTED_clean_linker_0, # of connection points: 2
#     Edge 19, Type (0, 0), BuildingBlock: XIVTED_clean_linker_0, # of connection points: 2
#     Edge 20, Type (0, 0), BuildingBlock: XIVTED_clean_linker_0, # of connection points: 2
#     Edge 21, Type (0, 0), BuildingBlock: XIVTED_clean_linker_0, # of connection points: 2
#     Edge 22, Type (0, 0), BuildingBlock: XIVTED_clean_linker_0, # of connection points: 2
#     Edge 23, Type (0, 0), BuildingBlock: XIVTED_clean_linker_0, # of connection points: 2
#     Edge 24, Type (0, 0), BuildingBlock: XIVTED_clean_linker_0, # of connection points: 2
#     Edge 25, Type (0, 0), BuildingBlock: XIVTED_clean_linker_0, # of connection points: 2
#     Edge 26, Type (0, 0), BuildingBlock: XIVTED_clean_linker_0, # of connection points: 2
#     Edge 27, Type (0, 0), BuildingBlock: XIVTED_clean_linker_0, # of connection points: 2
#     Edge 28, Type (0, 0), BuildingBlock: XIVTED_clean_linker_0, # of connection points: 2
#     Edge 29, Type (0, 0), BuildingBlock: XIVTED_clean_linker_0, # of connection points: 2
#     Edge 30, Type (0, 0), BuildingBlock: XIVTED_clean_linker_0, # of connection points: 2
#     Edge 31, Type (0, 0), BuildingBlock: XIVTED_clean_linker_0, # of connection points: 2
#     Edge 32, Type (0, 0), BuildingBlock: XIVTED_clean_linker_0, # of connection points: 2
#     Edge 33, Type (0, 0), BuildingBlock: XIVTED_clean_linker_0, # of connection points: 2
#     Edge 34, Type (0, 0), BuildingBlock: XIVTED_clean_linker_0, # of connection points: 2
#     Edge 35, Type (0, 0), BuildingBlock: XIVTED_clean_linker_0, # of connection points: 2
#     Edge 36, Type (0, 0), BuildingBlock: XIVTED_clean_linker_0, # of connection points: 2
#     Edge 37, Type (0, 0), BuildingBlock: XIVTED_clean_linker_0, # of connection points: 2
#     Edge 38, Type (0, 0), BuildingBlock: XIVTED_clean_linker_0, # of connection points: 2
#     Edge 39, Type (0, 0), BuildingBlock: XIVTED_clean_linker_0, # of connection points: 2
#     Edge 40, Type (0, 0), BuildingBlock: XIVTED_clean_linker_0, # of connection points: 2
#     Edge 41, Type (0, 0), BuildingBlock: XIVTED_clean_linker_0, # of connection points: 2
#     Edge 42, Type (0, 0), BuildingBlock: XIVTED_clean_linker_0, # of connection points: 2
#     Edge 43, Type (0, 0), BuildingBlock: XIVTED_clean_linker_0, # of connection points: 2
#     Edge 44, Type (0, 0), BuildingBlock: XIVTED_clean_linker_0, # of connection points: 2
#     Edge 45, Type (0, 0), BuildingBlock: XIVTED_clean_linker_0, # of connection points: 2
#     Edge 46, Type (0, 0), BuildingBlock: XIVTED_clean_linker_0, # of connection points: 2
#     Edge 47, Type (0, 0), BuildingBlock: XIVTED_clean_linker_0, # of connection points: 2
# Relax obj value: 0.237
# Max RMSD: 0.190
# Mean RMSD: 0.190
data_MOF--net-umz--node1-QUQFOY_clean_sbu_1--edge1-XIVTED_clean_linker_0
_symmetry_space_group_name_H-M    P1
_symmetry_Int_Tables_number       1
_symmetry_cell_setting            triclinic
loop_
_symmetry_equiv_pos_as_xyz
'x, y, z'
_cell_length_a     64.691284
_cell_length_b     64.714364
_cell_length_c     22.193538
_cell_angle_alpha  89.96178
_cell_angle_beta   90.005053
_cell_angle_gamma 89.993207
loop_
_atom_site_label
_atom_site_type_symbol
_atom_site_fract_x
_atom_site_fract_y
_atom_site_fract_z
_atom_type_partial_charge
O0 O 0.03849 0.63092 0.96633 0.0
Cd1 Cd 0.03132 0.64419 0.04774 0.0
Cd2 Cd 1.00368 0.61383 0.04494 0.0
O3 O 0.01064 0.6118 0.95437 0.0
O4 O 0.04659 0.67087 0.04442 0.0
O5 O 0.01251 0.66916 0.04831 0.0
C6 C 0.02903 0.68026 0.04338 0.0
C7 C 0.97069 0.61288 0.08705 0.0
C8 C 0.02766 0.6188 0.93427 0.0
C9 C 0.03922 0.60938 0.13037 0.0
O10 O 0.02519 0.60031 0.1004 0.0
O11 O 0.0428 0.6285 0.12185 0.0
O12 O 0.9782 0.59722 0.05863 0.0
O13 O 0.98126 0.62984 0.08727 0.0
O14 O 0.88006 0.04043 0.46867 0.0
Cd15 Cd 0.86657 0.03298 0.54954 0.0
Cd16 Cd 0.89613 1.00466 0.54524 0.0
O17 O 0.89817 0.01201 0.45489 0.0
O18 O 0.83991 0.04831 0.54647 0.0
O19 O 0.8416 0.01422 0.54887 0.0
C20 C 0.83052 0.03077 0.54432 0.0
C21 C 0.89682 0.97143 0.58583 0.0
C22 C 0.89175 0.02941 0.43583 0.0
C23 C 0.90146 0.03967 0.6322 0.0
O24 O 0.91015 0.02561 0.6014 0.0
O25 O 0.88241 0.04374 0.6242 0.0
O26 O 0.91248 0.97892 0.55732 0.0
O27 O 0.87998 0.98218 0.58699 0.0
O28 O 0.47391 0.87928 0.97099 0.0
Cd29 Cd 0.48246 0.86625 0.05164 0.0
Cd30 Cd 0.50937 0.89671 0.04639 0.0
O31 O 0.50156 0.89847 0.95632 0.0
O32 O 0.46917 0.83852 0.04991 0.0
O33 O 0.50307 0.84283 0.05049 0.0
C34 C 0.48739 0.83051 0.04719 0.0
C35 C 0.5427 0.89811 0.08598 0.0
C36 C 0.48434 0.89141 0.93782 0.0
C37 C 0.47458 0.90074 0.13457 0.0
O38 O 0.48817 0.91 0.10333 0.0
O39 O 0.47127 0.88155 0.12664 0.0
O40 O 0.53475 0.91364 0.05791 0.0
O41 O 0.53235 0.88103 0.08722 0.0
O42 O 0.63092 0.46871 0.47727 0.0
Cd43 Cd 0.64491 0.47619 0.55744 0.0
Cd44 Cd 0.6155 0.50462 0.55451 0.0
O45 O 0.61294 0.49725 0.46435 0.0
O46 O 0.67162 0.46099 0.55361 0.0
O47 O 0.66977 0.49508 0.55574 0.0
C48 C 0.68092 0.47858 0.55117 0.0
C49 C 0.61494 0.53792 0.5945 0.0
C50 C 0.61909 0.4798 0.44503 0.0
C51 C 0.6105 0.46964 0.64186 0.0
O52 O 0.60169 0.48373 0.61142 0.0
O53 O 0.62949 0.4655 0.63295 0.0
O54 O 0.59917 0.53035 0.56673 0.0
O55 O 0.63179 0.52719 0.59536 0.0
O56 O 0.03752 0.88003 0.00987 0.0
Cd57 Cd 0.03001 0.86683 0.92866 0.0
Cd58 Cd 1.00215 0.89688 0.93308 0.0
O59 O 0.00944 0.89867 0.0235 0.0
O60 O 0.04516 0.84007 0.93126 0.0
O61 O 0.01107 0.84198 0.92852 0.0
C62 C 0.02755 0.83079 0.9329 0.0
C63 C 0.96897 0.89804 0.89222 0.0
C64 C 0.02668 0.89189 0.04269 0.0
C65 C 0.03734 0.9018 0.84649 0.0
O66 O 0.02337 0.91067 0.87722 0.0
O67 O 0.0411 0.88268 0.85438 0.0
O68 O 0.97662 0.91356 0.92093 0.0
O69 O 0.97951 0.88108 0.89099 0.0
O70 O 0.63082 0.04313 0.50016 0.0
Cd71 Cd 0.64467 0.03551 0.41993 0.0
Cd72 Cd 0.61562 0.00693 0.42412 0.0
O73 O 0.61316 0.01445 0.51421 0.0
O74 O 0.67143 0.05065 0.42309 0.0
O75 O 0.66947 0.01655 0.42178 0.0
C76 C 0.68067 0.03303 0.42593 0.0
C77 C 0.61568 0.97364 0.38413 0.0
C78 C 0.61919 0.03202 0.53295 0.0
C79 C 0.61004 0.04163 0.33618 0.0
O80 O 0.60144 0.02754 0.36717 0.0
O81 O 0.62902 0.04593 0.3445 0.0
O82 O 0.59979 0.98088 0.41208 0.0
O83 O 0.63232 0.98469 0.38326 0.0
O84 O 0.47386 0.63186 0.01201 0.0
Cd85 Cd 0.48238 0.6448 0.93122 0.0
Cd86 Cd 0.50928 0.61429 0.93662 0.0
O87 O 0.50151 0.61267 0.02673 0.0
O88 O 0.46911 0.67254 0.93276 0.0
O89 O 0.50301 0.66819 0.93213 0.0
C90 C 0.48734 0.68053 0.93539 0.0
C91 C 0.54263 0.61255 0.89719 0.0
C92 C 0.48431 0.61977 0.04525 0.0
C93 C 0.47442 0.61023 0.84861 0.0
O94 O 0.48802 0.60098 0.87988 0.0
O95 O 0.47114 0.62943 0.85638 0.0
O96 O 0.53455 0.59714 0.9255 0.0
O97 O 0.5324 0.6297 0.89555 0.0
O98 O 0.88058 0.47117 0.51176 0.0
Cd99 Cd 0.8671 0.4783 0.43057 0.0
Cd100 Cd 0.89716 0.50624 0.43325 0.0
O101 O 0.89939 0.49923 0.52377 0.0
O102 O 0.84045 0.46298 0.43438 0.0
O103 O 0.8421 0.49706 0.43041 0.0
C104 C 0.83104 0.48053 0.43564 0.0
C105 C 0.89785 0.53927 0.39135 0.0
C106 C 0.89261 0.4821 0.5438 0.0
C107 C 0.90183 0.4708 0.34757 0.0
O108 O 0.91079 0.4849 0.37755 0.0
O109 O 0.88275 0.46701 0.35622 0.0
O110 O 0.91359 0.53184 0.4196 0.0
O111 O 0.88096 0.5286 0.39118 0.0
O112 O 0.97304 0.38056 0.01086 0.0
Cd113 Cd 0.98069 0.36744 0.92963 0.0
Cd114 Cd 0.00852 0.39735 0.93459 0.0
O115 O 1.00116 0.39909 0.02497 0.0
O116 O 0.9656 0.34066 0.93179 0.0
O117 O 0.99969 0.34264 0.92954 0.0
C118 C 0.98323 0.33141 0.9336 0.0
C119 C 0.0417 0.39812 0.89376 0.0
C120 C 0.98388 0.39234 0.04392 0.0
C121 C 0.9735 0.40249 0.84766 0.0
O122 O 0.98743 0.41132 0.87864 0.0
O123 O 0.96972 0.38337 0.85535 0.0
O124 O 0.03423 0.41374 0.92249 0.0
O125 O 0.03097 0.38128 0.89257 0.0
O126 O 0.1303 0.97037 0.51034 0.0
Cd127 Cd 0.14366 0.97759 0.42907 0.0
Cd128 Cd 0.11358 0.00562 0.43237 0.0
O129 O 0.11152 0.99843 0.5228 0.0
O130 O 0.17014 0.96196 0.43206 0.0
O131 O 0.1689 0.99605 0.42884 0.0
C132 C 0.17977 0.97937 0.43342 0.0
C133 C 0.11258 0.03879 0.39139 0.0
C134 C 0.11831 0.98128 0.5426 0.0
C135 C 0.10878 0.97032 0.34628 0.0
O136 O 0.09986 0.98439 0.37647 0.0
O137 O 0.12786 0.96648 0.35477 0.0
O138 O 0.09696 0.03117 0.41978 0.0
O139 O 0.12953 0.02821 0.39046 0.0
O140 O 0.5381 0.13243 -0.00067 0.0
Cd141 Cd 0.52954 0.14585 0.91921 0.0
Cd142 Cd 0.50261 0.1149 0.92406 0.0
O143 O 0.51058 0.11305 0.01394 0.0
O144 O 0.54469 0.1726 0.92081 0.0
O145 O 0.5106 0.17074 0.92231 0.0
C146 C 0.52714 0.18189 0.92483 0.0
C147 C 0.46917 0.11283 0.88542 0.0
C148 C 0.52778 0.12017 0.03236 0.0
C149 C 0.53722 0.11146 0.83524 0.0
O150 O 0.52386 0.10194 0.86666 0.0
O151 O 0.5403 0.13067 0.84345 0.0
O152 O 0.47754 0.09747 0.91322 0.0
O153 O 0.47918 0.13011 0.88379 0.0
O154 O 0.37965 0.54326 0.51323 0.0
Cd155 Cd 0.36614 0.53575 0.43239 0.0
Cd156 Cd 0.39573 0.50757 0.43603 0.0
O157 O 0.398 0.51496 0.52624 0.0
O158 O 0.33929 0.55073 0.43519 0.0
O159 O 0.34142 0.51666 0.43283 0.0
C160 C 0.33012 0.53307 0.43704 0.0
C161 C 0.39631 0.47428 0.39595 0.0
C162 C 0.39153 0.53228 0.54563 0.0
C163 C 0.40083 0.5426 0.349 0.0
O164 O 0.40963 0.5285 0.37946 0.0
O165 O 0.38181 0.54664 0.35756 0.0
O166 O 0.41204 0.48181 0.42401 0.0
O167 O 0.37948 0.48505 0.39485 0.0
O168 O 0.97182 0.13155 0.96781 0.0
Cd169 Cd 0.9794 0.14485 0.04886 0.0
Cd170 Cd 0.0069 0.11428 0.04538 0.0
O171 O 0.99955 0.11231 0.95506 0.0
O172 O 0.96422 0.17158 0.04587 0.0
O173 O 0.9983 0.16975 0.04867 0.0
C174 C 0.9818 0.1809 0.04423 0.0
C175 C 0.0401 0.11266 0.08603 0.0
C176 C 0.98247 0.11936 0.93548 0.0
C177 C 0.97162 0.11016 0.13196 0.0
O178 O 0.98549 0.10098 0.1016 0.0
O179 O 0.96812 0.1293 0.12343 0.0
O180 O 0.03215 0.09719 0.05776 0.0
O181 O 0.02984 0.1298 0.08698 0.0
O182 O 0.37978 0.96782 0.46997 0.0
Cd183 Cd 0.36619 0.97549 0.55055 0.0
Cd184 Cd 0.39576 1.00365 0.54685 0.0
O185 O 0.39813 0.9961 0.45677 0.0
O186 O 0.33923 0.96073 0.54742 0.0
O187 O 0.34164 0.99479 0.54961 0.0
C188 C 0.33022 0.97848 0.54524 0.0
C189 C 0.39643 0.03705 0.58617 0.0
C190 C 0.39169 0.97875 0.43754 0.0
C191 C 0.40075 0.96872 0.6344 0.0
O192 O 0.40956 0.9828 0.6039 0.0
O193 O 0.38174 0.96465 0.62567 0.0
O194 O 0.41216 0.02937 0.55844 0.0
O195 O 0.37957 0.02635 0.58744 0.0
O196 O 0.53736 0.38016 0.97848 0.0
Cd197 Cd 0.52894 0.36655 0.05844 0.0
Cd198 Cd 0.50197 0.39748 0.05424 0.0
O199 O 0.50973 0.39941 0.9642 0.0
O200 O 0.54427 0.3399 0.05623 0.0
O201 O 0.51017 0.34154 0.05518 0.0
C202 C 0.52677 0.3305 0.05229 0.0
C203 C 0.46862 0.39941 0.09362 0.0
C204 C 0.52695 0.3924 0.94561 0.0
C205 C 0.53672 0.40083 0.14264 0.0
O206 O 0.52334 0.4104 0.11139 0.0
O207 O 0.53976 0.38162 0.1343 0.0
O208 O 0.47688 0.41484 0.06581 0.0
O209 O 0.47868 0.38216 0.09482 0.0
O210 O 0.13021 0.53933 0.46755 0.0
Cd211 Cd 0.14334 0.532 0.54904 0.0
Cd212 Cd 0.11373 0.50379 0.54426 0.0
O213 O 0.11195 0.51102 0.45379 0.0
O214 O 0.16993 0.54745 0.54693 0.0
O215 O 0.16841 0.51335 0.54974 0.0
C216 C 0.17943 0.52995 0.54555 0.0
C217 C 0.11336 0.47066 0.58541 0.0
C218 C 0.11854 0.52833 0.4346 0.0
C219 C 0.10814 0.53886 0.63068 0.0
O220 O 0.09949 0.52477 0.59989 0.0
O221 O 0.12721 0.54288 0.623 0.0
O222 O 0.09766 0.47791 0.55655 0.0
O223 O 0.13007 0.4816 0.58659 0.0
H224 H 0.06141 0.707 0.03461 0.0
H225 H 0.99318 0.80626 0.95021 0.0
H226 H 0.9948 0.70489 0.02485 0.0
H227 H 0.05982 0.80398 0.9435 0.0
H228 H 0.99278 0.76963 0.97936 0.0
H229 H 0.06046 0.74325 0.006 0.0
C230 C 0.04652 0.7142 0.0269 0.0
C231 C 0.02815 0.70282 0.03207 0.0
C232 C 0.00745 0.77717 0.97116 0.0
C233 C 0.02695 0.74456 -0.00156 0.0
C234 C 0.00769 0.79804 0.95424 0.0
C235 C 0.02657 0.80824 0.94442 0.0
C236 C 0.02622 0.7665 0.97853 0.0
C237 C 0.0449 0.79683 0.95063 0.0
C238 C 0.046 0.73495 0.01021 0.0
C239 C 0.00934 0.71308 0.02149 0.0
N240 N 0.04425 0.77668 0.96749 0.0
N241 N 0.00922 0.73337 0.00496 0.0
H242 H 0.70761 0.06524 0.43502 0.0
H243 H 0.80586 0.99657 0.52627 0.0
H244 H 0.70493 0.99872 0.44699 0.0
H245 H 0.80396 0.06321 0.53226 0.0
H246 H 0.7694 0.99637 0.49527 0.0
H247 H 0.74368 0.06413 0.46569 0.0
C248 C 0.71465 0.05034 0.44363 0.0
C249 C 0.70316 0.03204 0.43848 0.0
C250 C 0.77698 0.011 0.50373 0.0
C251 C 0.74467 0.03066 0.47448 0.0
C252 C 0.79775 0.01112 0.5217 0.0
C253 C 0.80802 0.02993 0.53186 0.0
C254 C 0.76648 0.02982 0.49561 0.0
C255 C 0.79676 0.04832 0.52492 0.0
C256 C 0.73529 0.04973 0.46151 0.0
C257 C 0.71321 0.01321 0.4503 0.0
N258 N 0.7767 0.04779 0.50702 0.0
N259 N 0.73339 0.013 0.46795 0.0
H260 H 0.52313 0.80888 0.02343 0.0
H261 H 0.5231 0.70214 0.95911 0.0
H262 H 0.45721 0.80116 0.0426 0.0
H263 H 0.45718 0.70992 0.93979 0.0
H264 H 0.52594 0.73834 0.98913 0.0
H265 H 0.52595 0.77268 -0.00667 0.0
C266 C 0.5093 0.79946 0.02232 0.0
C267 C 0.48992 0.80809 0.03569 0.0
C268 C 0.51089 0.73234 0.97731 0.0
C269 C 0.49294 0.76646 0.00144 0.0
C270 C 0.50927 0.71157 0.96016 0.0
C271 C 0.48988 0.70295 0.94679 0.0
C272 C 0.49293 0.74459 0.98095 0.0
C273 C 0.47247 0.71584 0.94964 0.0
C274 C 0.5109 0.77869 0.00513 0.0
C275 C 0.47249 0.79523 0.03276 0.0
N276 N 0.47441 0.73588 0.96666 0.0
N277 N 0.47442 0.77518 0.01571 0.0
H278 H 0.70777 0.44629 0.54203 0.0
H279 H 0.80633 0.51478 0.45248 0.0
H280 H 0.70529 0.51284 0.53064 0.0
H281 H 0.80447 0.44812 0.44801 0.0
H282 H 0.76979 0.51505 0.48265 0.0
H283 H 0.7439 0.44733 0.51204 0.0
C284 C 0.71487 0.46118 0.53367 0.0
C285 C 0.70342 0.47951 0.53881 0.0
C286 C 0.7774 0.5004 0.47471 0.0
C287 C 0.74501 0.4808 0.50361 0.0
C288 C 0.79821 0.50023 0.45721 0.0
C289 C 0.80851 0.48139 0.44773 0.0
C290 C 0.76688 0.48159 0.483 0.0
C291 C 0.79724 0.46302 0.45485 0.0
C292 C 0.73554 0.46175 0.51619 0.0
C293 C 0.71354 0.49833 0.52734 0.0
N294 N 0.77714 0.4636 0.47226 0.0
N295 N 0.73376 0.49849 0.51007 0.0
H296 H 0.01763 0.30693 0.95105 0.0
H297 H 0.94947 0.20772 0.03604 0.0
H298 H 0.95099 0.30455 0.94383 0.0
H299 H 0.01605 0.20545 0.02491 0.0
H300 H 0.95043 0.24395 0.00732 0.0
H301 H 0.01807 0.27029 0.98016 0.0
C302 C 1.00313 0.29868 0.95495 0.0
C303 C 0.98424 0.30886 0.94502 0.0
C304 C 0.96488 0.23562 0.01125 0.0
C305 C 0.98463 0.26712 0.9791 0.0
C306 C 0.96435 0.21488 0.028 0.0
C307 C 0.98271 0.20346 0.03281 0.0
C308 C 0.98391 0.24518 -0.00094 0.0
C309 C 1.00152 0.21367 0.02183 0.0
C310 C 1.00339 0.27781 0.97185 0.0
C311 C 0.96593 0.29742 0.95106 0.0
N312 N 1.00164 0.23396 0.00525 0.0
N313 N 0.9666 0.27727 0.96792 0.0
H314 H 0.30623 0.01321 0.52775 0.0
H315 H 0.20608 0.94663 0.44146 0.0
H316 H 0.30296 0.94662 0.53376 0.0
H317 H 0.20486 0.0132 0.45269 0.0
H318 H 0.24234 0.947 0.47018 0.0
H319 H 0.26965 0.0142 0.49812 0.0
C320 C 0.2978 0.99883 0.52344 0.0
C321 C 0.30771 0.9798 0.53324 0.0
C322 C 0.23423 0.96158 0.46626 0.0
C323 C 0.26603 0.98082 0.49859 0.0
C324 C 0.21349 0.96138 0.44951 0.0
C325 C 0.20235 0.97992 0.44474 0.0
C326 C 0.24409 0.98045 0.4785 0.0
C327 C 0.21286 0.99854 0.45574 0.0
C328 C 0.27696 0.99941 0.50626 0.0
C329 C 0.29604 0.96166 0.52667 0.0
N330 N 0.23315 0.99834 0.47234 0.0
N331 N 0.27593 0.96263 0.50957 0.0
H332 H 0.55881 0.20941 0.91683 0.0
H333 H 0.55868 0.30321 0.05924 0.0
H334 H 0.494 0.2056 0.96144 0.0
H335 H 0.49371 0.30659 0.0162 0.0
H336 H 0.55901 0.26731 0.02746 0.0
H337 H 0.55897 0.24533 0.9484 0.0
C338 C 0.54458 0.21614 0.93343 0.0
C339 C 0.52643 0.20437 0.93718 0.0
C340 C 0.54471 0.2759 0.02386 0.0
C341 C 0.52669 0.24552 0.97621 0.0
C342 C 0.54445 0.29639 0.04293 0.0
C343 C 0.5262 0.30803 0.03971 0.0
C344 C 0.52665 0.26691 0.00043 0.0
C345 C 0.50815 0.2982 0.01915 0.0
C346 C 0.54475 0.23665 0.95238 0.0
C347 C 0.50837 0.21409 0.95809 0.0
N348 N 0.50884 0.27819 -3e-05 0.0
N349 N 0.50897 0.23411 0.97715 0.0
H350 H 0.30299 0.56514 0.44529 0.0
H351 H 0.20439 0.49587 0.52894 0.0
H352 H 0.30589 0.4986 0.45603 0.0
H353 H 0.20589 0.56252 0.53531 0.0
H354 H 0.24109 0.49587 0.50047 0.0
H355 H 0.26671 0.5638 0.47357 0.0
C356 C 0.29596 0.55019 0.45315 0.0
C357 C 0.30756 0.53195 0.44834 0.0
C358 C 0.23337 0.51046 0.50845 0.0
C359 C 0.2658 0.53031 0.48157 0.0
C360 C 0.21246 0.51047 0.52498 0.0
C361 C 0.20201 0.52923 0.53449 0.0
C362 C 0.24383 0.52934 0.50116 0.0
C363 C 0.21323 0.54767 0.5284 0.0
C364 C 0.2752 0.54944 0.46965 0.0
C365 C 0.29752 0.51305 0.45912 0.0
N366 N 0.23342 0.54725 0.51191 0.0
N367 N 0.27721 0.51271 0.47543 0.0
H368 H 0.06271 0.63167 0.87677 0.0
H369 H 0.06788 0.53244 0.66321 0.0
H370 H 0.01404 0.58616 0.86576 0.0
H371 H 0.11928 0.57376 0.69318 0.0
H372 H 0.04657 0.55385 0.72884 0.0
H373 H 0.08163 0.6132 0.79865 0.0
C374 C 0.05581 0.61797 0.85722 0.0
C375 C 0.03684 0.61032 0.87845 0.0
C376 C 0.0625 0.55825 0.72106 0.0
C377 C 0.05865 0.58892 0.78942 0.0
C378 C 0.07473 0.54599 0.68372 0.0
C379 C 0.09547 0.55125 0.67284 0.0
C380 C 0.07099 0.57597 0.74767 0.0
C381 C 0.10343 0.56903 0.70056 0.0
C382 C 0.06672 0.60736 0.81284 0.0
C383 C 0.02864 0.59258 0.85102 0.0
N384 N 0.09117 0.58075 0.73669 0.0
N385 N 0.03972 0.58235 0.80836 0.0
H386 H 0.93742 0.12277 0.19542 0.0
H387 H 0.92296 0.01445 0.36396 0.0
H388 H 0.97656 0.06974 0.16475 0.0
H389 H 0.88084 0.06584 0.38239 0.0
H390 H 0.94147 0.03356 0.28569 0.0
H391 H 0.91583 0.10171 0.26184 0.0
C392 C 0.94153 0.10675 0.20283 0.0
C393 C 0.95888 0.09806 0.17463 0.0
C394 C 0.92802 0.04054 0.30639 0.0
C395 C 0.93414 0.0738 0.25015 0.0
C396 C 0.91735 0.02956 0.35079 0.0
C397 C 0.90045 0.03863 0.38032 0.0
C398 C 0.9218 0.06075 0.29168 0.0
C399 C 0.89391 0.0583 0.36135 0.0
C400 C 0.92912 0.09468 0.24044 0.0
C401 C 0.96336 0.07714 0.1856 0.0
N402 N 0.90474 0.06878 0.3188 0.0
N403 N 0.95111 0.06576 0.22257 0.0
H404 H 0.49827 0.92271 0.86456 0.0
H405 H 0.38905 0.93436 0.69876 0.0
H406 H 0.44775 0.87974 0.88658 0.0
H407 H 0.44104 0.97478 0.66692 0.0
H408 H 0.41073 0.91344 0.76537 0.0
H409 H 0.47841 0.94062 0.78674 0.0
C410 C 0.48318 0.91679 0.8523 0.0
C411 C 0.4746 0.89982 0.88267 0.0
C412 C 0.41739 0.92688 0.74369 0.0
C413 C 0.45161 0.92049 0.7945 0.0
C414 C 0.40497 0.9389 0.70596 0.0
C415 C 0.41318 0.9564 0.67735 0.0
C416 C 0.43816 0.93243 0.75304 0.0
C417 C 0.434 0.96145 0.68807 0.0
C418 C 0.47177 0.92713 0.80814 0.0
C419 C 0.45494 0.89288 0.86483 0.0
N420 N 0.44573 0.94956 0.7251 0.0
N421 N 0.44403 0.90338 0.82247 0.0
H422 H 0.57027 0.38726 0.20734 0.0
H423 H 0.58797 0.49538 0.37391 0.0
H424 H 0.53275 0.44137 0.17531 0.0
H425 H 0.62878 0.44293 0.39224 0.0
H426 H 0.56867 0.47661 0.29663 0.0
H427 H 0.59233 0.40774 0.27384 0.0
C428 C 0.56659 0.4034 0.21451 0.0
C429 C 0.54958 0.41257 0.18582 0.0
C430 C 0.582 0.46931 0.3171 0.0
C431 C 0.57489 0.43617 0.26143 0.0
C432 C 0.59312 0.48009 0.36094 0.0
C433 C 0.6099 0.47066 0.39012 0.0
C434 C 0.58765 0.44893 0.30261 0.0
C435 C 0.61583 0.45078 0.37143 0.0
C436 C 0.57928 0.41513 0.25217 0.0
C437 C 0.54568 0.43362 0.19651 0.0
N438 N 0.60458 0.4405 0.32942 0.0
N439 N 0.5582 0.44468 0.23351 0.0
H440 H 0.12076 0.93583 0.28314 0.0
H441 H 0.01221 0.92329 0.11463 0.0
H442 H 0.06842 0.97592 0.31363 0.0
H443 H 0.06286 0.88026 0.09637 0.0
H444 H 0.03161 0.94142 0.19299 0.0
H445 H 0.09931 0.91458 0.21697 0.0
C446 C 0.10481 0.94022 0.27575 0.0
C447 C 0.09643 0.95774 0.30381 0.0
C448 C 0.03836 0.92786 0.17231 0.0
C449 C 0.07172 0.93338 0.22857 0.0
C450 C 0.02722 0.9174 0.12786 0.0
C451 C 0.036 0.90036 0.09833 0.0
C452 C 0.05845 0.92128 0.18707 0.0
C453 C 0.05554 0.89346 0.1174 0.0
C454 C 0.09251 0.928 0.23827 0.0
C455 C 0.07558 0.96258 0.29288 0.0
N456 N 0.06619 0.90408 0.15998 0.0
N457 N 0.06398 0.95051 0.25603 0.0
H458 H 0.57071 0.12493 0.77009 0.0
H459 H 0.5882 0.01653 0.60471 0.0
H460 H 0.53318 0.07089 0.80295 0.0
H461 H 0.62891 0.06899 0.58502 0.0
H462 H 0.569 0.03543 0.68194 0.0
H463 H 0.59268 0.10435 0.70358 0.0
C464 C 0.56701 0.10878 0.76309 0.0
C465 C 0.55003 0.09966 0.79203 0.0
C466 C 0.58229 0.0427 0.66118 0.0
C467 C 0.57523 0.07594 0.71642 0.0
C468 C 0.59336 0.03185 0.61738 0.0
C469 C 0.61007 0.04125 0.58783 0.0
C470 C 0.58793 0.06312 0.67527 0.0
C471 C 0.61601 0.06117 0.60613 0.0
C472 C 0.57965 0.09699 0.72544 0.0
C473 C 0.54608 0.07861 0.78156 0.0
N474 N 0.60481 0.07152 0.64811 0.0
N475 N 0.55856 0.06749 0.74456 0.0
H476 H 0.38912 0.57695 0.2846 0.0
H477 H 0.49832 0.58859 0.11883 0.0
H478 H 0.44117 0.53664 0.31687 0.0
H479 H 0.44774 0.63149 0.09652 0.0
H480 H 0.47851 0.57076 0.19691 0.0
H481 H 0.4108 0.59788 0.21804 0.0
C482 C 0.40506 0.57244 0.27752 0.0
C483 C 0.41329 0.55495 0.30621 0.0
C484 C 0.47185 0.58422 0.17539 0.0
C485 C 0.43826 0.57894 0.23056 0.0
C486 C 0.48323 0.59451 0.13109 0.0
C487 C 0.47461 0.61143 0.10055 0.0
C488 C 0.45169 0.59086 0.18901 0.0
C489 C 0.45496 0.61838 0.11839 0.0
C490 C 0.41748 0.58447 0.23981 0.0
C491 C 0.43412 0.54995 0.29564 0.0
N492 N 0.44408 0.60793 0.16089 0.0
N493 N 0.44585 0.56184 0.25862 0.0
H494 H 0.97951 0.44278 0.81495 0.0
H495 H 0.8802 0.44687 0.60115 0.0
H496 H 0.93877 0.39093 0.78489 0.0
H497 H 0.92517 0.49603 0.61222 0.0
H498 H 0.89892 0.42812 0.67918 0.0
H499 H 0.95788 0.46383 0.74912 0.0
C500 C 0.96604 0.43577 0.79438 0.0
C501 C 0.96101 0.41499 0.8053 0.0
C502 C 0.90459 0.4431 0.66502 0.0
C503 C 0.93604 0.43917 0.73024 0.0
C504 C 0.89383 0.45391 0.62069 0.0
C505 C 0.90125 0.47298 0.59951 0.0
C506 C 0.92295 0.45136 0.68846 0.0
C507 C 0.91891 0.48136 0.62693 0.0
C508 C 0.95366 0.44786 0.75692 0.0
C509 C 0.94333 0.40683 0.77747 0.0
N510 N 0.9293 0.47038 0.66954 0.0
N511 N 0.93148 0.41895 0.74125 0.0
H512 H 0.9984 0.42355 0.11646 0.0
H513 H 0.88977 0.43632 0.28447 0.0
H514 H 0.94756 0.38083 0.09698 0.0
H515 H 0.9422 0.47628 0.31497 0.0
H516 H 0.91119 0.41502 0.21827 0.0
H517 H 0.979 0.44164 0.19487 0.0
C518 C 0.98335 0.41772 0.12943 0.0
C519 C 0.97452 0.40078 0.09955 0.0
C520 C 0.91801 0.42843 0.23959 0.0
C521 C 0.95206 0.42165 0.18835 0.0
C522 C 0.90574 0.44067 0.27708 0.0
C523 C 0.91415 0.45817 0.30514 0.0
C524 C 0.93881 0.43377 0.22989 0.0
C525 C 0.93501 0.46297 0.29422 0.0
C526 C 0.9722 0.42815 0.17391 0.0
C527 C 0.95492 0.39395 0.11829 0.0
N528 N 0.94659 0.45087 0.25738 0.0
N529 N 0.94426 0.40455 0.16092 0.0
H530 H 0.0315 0.94212 0.81389 0.0
H531 H 0.13058 0.94583 0.59919 0.0
H532 H 0.07204 0.89012 0.78372 0.0
H533 H 0.086 0.99532 0.61177 0.0
H534 H 0.11187 0.92709 0.67728 0.0
H535 H 0.05319 0.9631 0.7481 0.0
C536 C 0.04494 0.93506 0.7933 0.0
C537 C 0.04989 0.91425 0.80418 0.0
C538 C 0.10629 0.94214 0.66344 0.0
C539 C 0.07494 0.93835 0.72913 0.0
C540 C 0.11704 0.95295 0.61908 0.0
C541 C 0.10972 0.97211 0.59831 0.0
C542 C 0.08804 0.95051 0.6873 0.0
C543 C 0.09217 0.98057 0.62615 0.0
C544 C 0.05735 0.94711 0.75586 0.0
C545 C 0.06754 0.90603 0.77634 0.0
N546 N 0.0818 0.9696 0.66877 0.0
N547 N 0.07943 0.91811 0.7401 0.0
H548 H 0.56991 0.0347 0.3035 0.0
H549 H 0.56372 0.13283 0.08551 0.0
H550 H 0.62099 0.0763 0.27203 0.0
H551 H 0.51474 0.0879 0.10332 0.0
H552 H 0.58328 0.11461 0.16293 0.0
H553 H 0.54844 0.05566 0.23714 0.0
C554 C 0.57667 0.04821 0.28247 0.0
C555 C 0.59736 0.05369 0.29323 0.0
C556 C 0.56817 0.10884 0.15036 0.0
C557 C 0.57268 0.07792 0.21746 0.0
C558 C 0.5569 0.11931 0.10637 0.0
C559 C 0.53762 0.11176 0.08734 0.0
C560 C 0.56015 0.09065 0.17558 0.0
C561 C 0.52956 0.09425 0.11635 0.0
C562 C 0.56434 0.06022 0.24471 0.0
C563 C 0.60518 0.07141 0.26479 0.0
N564 N 0.54097 0.08416 0.15859 0.0
N565 N 0.59282 0.0829 0.22821 0.0
H566 H 0.38041 0.5684 0.60051 0.0
H567 H 0.47927 0.56976 0.81639 0.0
H568 H 0.42338 0.51758 0.61551 0.0
H569 H 0.44026 0.62283 0.7848 0.0
H570 H 0.45714 0.54931 0.75051 0.0
H571 H 0.39965 0.58688 0.67797 0.0
C572 C 0.3937 0.56095 0.62079 0.0
C573 C 0.40042 0.54147 0.6009 0.0
C574 C 0.45341 0.56542 0.75796 0.0
C575 C 0.4227 0.56276 0.68918 0.0
C576 C 0.46608 0.57716 0.79544 0.0
C577 C 0.46168 0.59811 0.806 0.0
C578 C 0.43611 0.57463 0.73085 0.0
C579 C 0.44433 0.60679 0.77769 0.0
C580 C 0.40476 0.5716 0.66479 0.0
C581 C 0.41767 0.53258 0.6292 0.0
N582 N 0.43218 0.595 0.74143 0.0
N583 N 0.42835 0.5434 0.67147 0.0
H584 H 0.94165 0.03312 0.66499 0.0
H585 H 0.94707 0.13209 0.8795 0.0
H586 H 0.89031 0.07451 0.6951 0.0
H587 H 0.99592 0.08685 0.8662 0.0
H588 H 0.92792 0.11365 0.80178 0.0
H589 H 0.96298 0.05444 0.73077 0.0
C590 C 0.93481 0.04667 0.68558 0.0
C591 C 0.91409 0.05198 0.67465 0.0
C592 C 0.94291 0.10786 0.81538 0.0
C593 C 0.9386 0.0766 0.7497 0.0
C594 C 0.95396 0.11846 0.85954 0.0
C595 C 0.97306 0.11088 0.87999 0.0
C596 C 0.95099 0.08951 0.79141 0.0
C597 C 0.98123 0.09322 0.85207 0.0
C598 C 0.94706 0.05887 0.72301 0.0
C599 C 0.90615 0.06975 0.7025 0.0
N600 N 0.97003 0.083 0.80965 0.0
N601 N 0.91843 0.08142 0.73873 0.0
H602 H 0.38067 0.94253 0.38307 0.0
H603 H 0.47946 0.94119 0.16697 0.0
H604 H 0.42352 0.99342 0.36758 0.0
H605 H 0.44045 0.88812 0.19848 0.0
H606 H 0.45736 0.96161 0.23297 0.0
H607 H 0.39992 0.92401 0.30573 0.0
C608 C 0.39394 0.94998 0.36272 0.0
C609 C 0.40061 0.9695 0.38241 0.0
C610 C 0.45362 0.94551 0.22548 0.0
C611 C 0.42292 0.94817 0.29427 0.0
C612 C 0.46628 0.93378 0.18793 0.0
C613 C 0.46186 0.91284 0.1773 0.0
C614 C 0.43633 0.9363 0.2526 0.0
C615 C 0.44453 0.90415 0.20563 0.0
C616 C 0.40501 0.93931 0.31878 0.0
C617 C 0.41784 0.97839 0.35404 0.0
N618 N 0.43239 0.91593 0.24196 0.0
N619 N 0.42854 0.96755 0.31183 0.0
H620 H 0.51312 0.42396 0.8731 0.0
H621 H 0.62216 0.43521 0.70602 0.0
H622 H 0.56345 0.38069 0.89397 0.0
H623 H 0.5703 0.47589 0.67494 0.0
H624 H 0.60048 0.41439 0.77288 0.0
H625 H 0.53298 0.4419 0.79531 0.0
C626 C 0.52817 0.41799 0.8606 0.0
C627 C 0.5367 0.40091 0.89062 0.0
C628 C 0.59385 0.42786 0.75131 0.0
C629 C 0.55967 0.42161 0.80249 0.0
C630 C 0.60627 0.43983 0.71344 0.0
C631 C 0.59808 0.45737 0.68496 0.0
C632 C 0.57312 0.43351 0.76095 0.0
C633 C 0.57731 0.46252 0.69597 0.0
C634 C 0.53957 0.42834 0.81647 0.0
C635 C 0.5563 0.39391 0.8725 0.0
N636 N 0.56558 0.45068 0.73313 0.0
N637 N 0.56721 0.40441 0.83016 0.0
H638 H 0.08745 0.51344 0.36221 0.0
H639 H 0.07363 0.62176 0.19334 0.0
H640 H 0.12979 0.56463 0.38091 0.0
H641 H 0.03418 0.56895 0.16292 0.0
H642 H 0.09518 0.60058 0.25954 0.0
H643 H 0.06917 0.53257 0.28351 0.0
C644 C 0.09316 0.5285 0.34901 0.0
C645 C 0.11004 0.53752 0.37876 0.0
C646 C 0.08183 0.59362 0.23823 0.0
C647 C 0.08895 0.55966 0.28963 0.0
C648 C 0.06944 0.60576 0.20074 0.0
C649 C 0.05201 0.59718 0.17272 0.0
C650 C 0.0767 0.57277 0.24799 0.0
C651 C 0.04744 0.57627 0.18365 0.0
C652 C 0.08262 0.5395 0.30436 0.0
C653 C 0.11672 0.55713 0.35971 0.0
N654 N 0.05966 0.56482 0.22052 0.0
N655 N 0.10601 0.56763 0.31693 0.0
H656 H 0.87804 0.54785 0.28557 0.0
H657 H 0.9621 0.63251 0.19304 0.0
H658 H 0.9246 0.57152 0.40624 0.0
H659 H 0.93858 0.58596 0.07219 0.0
H660 H 0.93789 0.62043 0.27058 0.0
H661 H 0.88988 0.57221 0.20811 0.0
C662 C 0.89023 0.55869 0.29656 0.0
C663 C 0.90053 0.55754 0.35212 0.0
C664 C 0.93765 0.61331 0.22643 0.0
C665 C 0.91404 0.58534 0.26404 0.0
C666 C 0.95132 0.62028 0.18203 0.0
C667 C 0.95247 0.61004 0.12639 0.0
C668 C 0.92485 0.59627 0.21457 0.0
C669 C 0.9383 0.59412 0.11475 0.0
C670 C 0.89706 0.57245 0.2522 0.0
C671 C 0.91638 0.5718 0.36374 0.0
N672 N 0.92521 0.58756 0.15871 0.0
N673 N 0.92281 0.58497 0.31983 0.0
H674 H 0.92332 0.93914 0.56868 0.0
H675 H 0.93699 0.92493 0.90932 0.0
H676 H 0.87758 0.96256 0.69228 0.0
H677 H 0.95998 0.87904 0.78555 0.0
H678 H 0.91265 0.93669 0.83228 0.0
H679 H 0.9347 0.91457 0.64562 0.0
C680 C 0.91527 0.93868 0.61146 0.0
C681 C 0.8996 0.95299 0.62434 0.0
C682 C 0.92259 0.92365 0.82246 0.0
C683 C 0.91298 0.92543 0.71325 0.0
C684 C 0.93648 0.91693 0.86647 0.0
C685 C 0.95061 0.9011 0.85358 0.0
C686 C 0.92331 0.91492 0.76457 0.0
C687 C 0.94933 0.8913 0.79731 0.0
C688 C 0.92177 0.92466 0.65542 0.0
C689 C 0.88972 0.95178 0.68053 0.0
N690 N 0.93633 0.89874 0.75423 0.0
N691 N 0.89695 0.93864 0.72357 0.0
H692 H 0.55245 0.87865 0.19144 0.0
H693 H 0.63528 0.96514 0.27806 0.0
H694 H 0.57429 0.9255 0.06872 0.0
H695 H 0.58989 0.94075 0.40132 0.0
H696 H 0.62365 0.94028 0.2018 0.0
H697 H 0.577 0.8912 0.26735 0.0
C698 C 0.56294 0.89105 0.17964 0.0
C699 C 0.5612 0.90123 0.12401 0.0
C700 C 0.6167 0.93999 0.24621 0.0
C701 C 0.58921 0.91555 0.21033 0.0
C702 C 0.62343 0.95404 0.28988 0.0
C703 C 0.61335 0.95512 0.3458 0.0
C704 C 0.60008 0.92677 0.25908 0.0
C705 C 0.59792 0.94053 0.35851 0.0
C706 C 0.57681 0.89829 0.22312 0.0
C707 C 0.57502 0.91737 0.11132 0.0
N708 N 0.59158 0.92708 0.31523 0.0
N709 N 0.5883 0.92419 0.15442 0.0
H710 H 0.58883 0.57043 0.57616 0.0
H711 H 0.57405 0.58511 0.91565 0.0
H712 H 0.63406 0.54677 0.70107 0.0
H713 H 0.55249 0.63147 0.791 0.0
H714 H 0.59858 0.57298 0.83964 0.0
H715 H 0.57754 0.59526 0.65241 0.0
C716 C 0.59679 0.5709 0.61908 0.0
C717 C 0.61228 0.55646 0.63254 0.0
C718 C 0.58892 0.5862 0.82944 0.0
C719 C 0.599 0.5843 0.72065 0.0
C720 C 0.57492 0.59313 0.87285 0.0
C721 C 0.56112 0.6092 0.85938 0.0
C722 C 0.58864 0.59498 0.77155 0.0
C723 C 0.56286 0.61903 0.8032 0.0
C724 C 0.59035 0.58506 0.66263 0.0
C725 C 0.62206 0.55767 0.68889 0.0
N726 N 0.57595 0.61139 0.76067 0.0
N727 N 0.61486 0.57095 0.73155 0.0
H728 H 0.08706 0.43816 0.56902 0.0
H729 H 0.07386 0.42483 0.9102 0.0
H730 H 0.13276 0.46214 0.69188 0.0
H731 H 0.05051 0.37882 0.78742 0.0
H732 H 0.09816 0.43633 0.83273 0.0
H733 H 0.07587 0.41373 0.64655 0.0
C734 C 0.09514 0.43785 0.61177 0.0
C735 C 0.11073 0.45229 0.62428 0.0
C736 C 0.08815 0.42332 0.82322 0.0
C737 C 0.09757 0.42488 0.71384 0.0
C738 C 0.07429 0.41675 0.86749 0.0
C739 C 0.06005 0.40098 0.85499 0.0
C740 C 0.08731 0.41449 0.76547 0.0
C741 C 0.06123 0.39104 0.79888 0.0
C742 C 0.08875 0.42391 0.65607 0.0
C743 C 0.12067 0.45126 0.68042 0.0
N744 N 0.07421 0.39834 0.75554 0.0
N745 N 0.11354 0.43819 0.72378 0.0
H746 H 0.07175 0.08543 0.06858 0.0
H747 H 0.08597 0.07097 0.40877 0.0
H748 H 0.04944 0.13158 0.19257 0.0
H749 H 0.13166 0.04771 0.28473 0.0
H750 H 0.07448 0.09557 0.33203 0.0
H751 H 0.09613 0.07346 0.14528 0.0
C752 C 0.07242 0.09343 0.1114 0.0
C753 C 0.05847 0.10941 0.12445 0.0
C754 C 0.08742 0.0855 0.3221 0.0
C755 C 0.08581 0.09536 0.21306 0.0
C756 C 0.09398 0.07147 0.36593 0.0
C757 C 0.10967 0.05721 0.35288 0.0
C758 C 0.09617 0.0848 0.26422 0.0
C759 C 0.11951 0.05847 0.29662 0.0
C760 C 0.08633 0.0866 0.1552 0.0
C761 C 0.05995 0.11922 0.18068 0.0
N762 N 0.11221 0.07162 0.2537 0.0
N763 N 0.07296 0.11166 0.22358 0.0
H764 H 0.42249 0.06951 0.56659 0.0
H765 H 0.43795 0.08529 0.90516 0.0
H766 H 0.37747 0.04624 0.69274 0.0
H767 H 0.45892 0.13148 0.77915 0.0
H768 H 0.41328 0.07286 0.82994 0.0
H769 H 0.43384 0.09463 0.64195 0.0
C770 C 0.41458 0.07012 0.60959 0.0
C771 C 0.39913 0.05571 0.62367 0.0
C772 C 0.42284 0.0861 0.81927 0.0
C773 C 0.4125 0.08389 0.71076 0.0
C774 C 0.43692 0.0932 0.86223 0.0
C775 C 0.45058 0.10932 0.84814 0.0
C776 C 0.42292 0.09475 0.76121 0.0
C777 C 0.44864 0.11901 0.79181 0.0
C778 C 0.42107 0.08445 0.65263 0.0
C779 C 0.38943 0.0571 0.68009 0.0
N780 N 0.43549 0.1112 0.74972 0.0
N781 N 0.39667 0.07055 0.72226 0.0
H782 H 0.43733 0.42697 0.07504 0.0
H783 H 0.4224 0.44175 0.41439 0.0
H784 H 0.45864 0.38052 0.19974 0.0
H785 H 0.37723 0.46543 0.2893 0.0
H786 H 0.43368 0.41689 0.33823 0.0
H787 H 0.4128 0.43919 0.15095 0.0
C788 C 0.4364 0.41896 0.11783 0.0
C789 C 0.45012 0.40283 0.13135 0.0
C790 C 0.42089 0.4271 0.32795 0.0
C791 C 0.42262 0.41714 0.21907 0.0
C792 C 0.41445 0.44129 0.37145 0.0
C793 C 0.39898 0.45574 0.35791 0.0
C794 C 0.41226 0.42785 0.26991 0.0
C795 C 0.38922 0.45453 0.30154 0.0
C796 C 0.4224 0.42593 0.16118 0.0
C797 C 0.44832 0.393 0.18751 0.0
N798 N 0.39641 0.44123 0.25894 0.0
N799 N 0.43524 0.40069 0.23 0.0
loop_
_geom_bond_atom_site_label_1
_geom_bond_atom_site_label_2
_geom_bond_distance
_geom_bond_site_symmetry_2
_ccdc_geom_bond_type
O0 Cd1 2.223 . S
O0 C8 1.315 . S
Cd1 O0 2.223 . S
Cd1 O4 2.297 . S
Cd1 O5 2.439 . S
Cd1 O11 2.240 . S
Cd2 O3 2.240 . S
Cd2 O10 2.223 . S
Cd2 O12 2.297 1_455 S
Cd2 O13 2.439 1_455 S
O3 Cd2 2.240 . S
O3 C8 1.279 . S
O4 Cd1 2.297 . S
O4 C6 1.247 . S
O5 Cd1 2.439 . S
O5 C6 1.208 . S
C6 O4 1.247 . S
C6 O5 1.208 . S
C7 O12 1.247 . S
C7 O13 1.208 . S
C8 O0 1.315 . S
C8 O3 1.279 . S
C9 O10 1.315 . S
C9 O11 1.279 . S
O10 Cd2 2.223 . S
O10 C9 1.315 . S
O11 Cd1 2.240 . S
O11 C9 1.279 . S
O12 Cd2 2.297 1_655 S
O12 C7 1.247 . S
O13 Cd2 2.439 1_655 S
O13 C7 1.208 . S
O14 Cd15 2.223 . S
O14 C22 1.315 . S
Cd15 O14 2.223 . S
Cd15 O18 2.297 . S
Cd15 O19 2.439 . S
Cd15 O25 2.240 . S
Cd16 O17 2.240 . S
Cd16 O24 2.223 . S
Cd16 O26 2.297 1_545 S
Cd16 O27 2.439 1_545 S
O17 Cd16 2.240 . S
O17 C22 1.279 . S
O18 Cd15 2.297 . S
O18 C20 1.247 . S
O19 Cd15 2.439 . S
O19 C20 1.208 . S
C20 O18 1.247 . S
C20 O19 1.208 . S
C21 O26 1.247 . S
C21 O27 1.208 . S
C22 O14 1.315 . S
C22 O17 1.279 . S
C23 O24 1.315 . S
C23 O25 1.279 . S
O24 Cd16 2.223 . S
O24 C23 1.315 . S
O25 Cd15 2.240 . S
O25 C23 1.279 . S
O26 Cd16 2.297 1_565 S
O26 C21 1.247 . S
O27 Cd16 2.439 1_565 S
O27 C21 1.208 . S
O28 Cd29 2.223 . S
O28 C36 1.315 . S
Cd29 O28 2.223 . S
Cd29 O32 2.297 . S
Cd29 O33 2.439 . S
Cd29 O39 2.240 . S
Cd30 O31 2.240 . S
Cd30 O38 2.223 . S
Cd30 O40 2.297 . S
Cd30 O41 2.439 . S
O31 Cd30 2.240 . S
O31 C36 1.279 . S
O32 Cd29 2.297 . S
O32 C34 1.247 . S
O33 Cd29 2.439 . S
O33 C34 1.208 . S
C34 O32 1.247 . S
C34 O33 1.208 . S
C35 O40 1.247 . S
C35 O41 1.208 . S
C36 O28 1.315 . S
C36 O31 1.279 . S
C37 O38 1.315 . S
C37 O39 1.279 . S
O38 Cd30 2.223 . S
O38 C37 1.315 . S
O39 Cd29 2.240 . S
O39 C37 1.279 . S
O40 Cd30 2.297 . S
O40 C35 1.247 . S
O41 Cd30 2.439 . S
O41 C35 1.208 . S
O42 Cd43 2.223 . S
O42 C50 1.315 . S
Cd43 O42 2.223 . S
Cd43 O46 2.297 . S
Cd43 O47 2.439 . S
Cd43 O53 2.240 . S
Cd44 O45 2.240 . S
Cd44 O52 2.223 . S
Cd44 O54 2.297 . S
Cd44 O55 2.439 . S
O45 Cd44 2.240 . S
O45 C50 1.279 . S
O46 Cd43 2.297 . S
O46 C48 1.247 . S
O47 Cd43 2.439 . S
O47 C48 1.208 . S
C48 O46 1.247 . S
C48 O47 1.208 . S
C49 O54 1.247 . S
C49 O55 1.208 . S
C50 O42 1.315 . S
C50 O45 1.279 . S
C51 O52 1.315 . S
C51 O53 1.279 . S
O52 Cd44 2.223 . S
O52 C51 1.315 . S
O53 Cd43 2.240 . S
O53 C51 1.279 . S
O54 Cd44 2.297 . S
O54 C49 1.247 . S
O55 Cd44 2.439 . S
O55 C49 1.208 . S
O56 Cd57 2.223 . S
O56 C64 1.315 . S
Cd57 O56 2.223 . S
Cd57 O60 2.297 . S
Cd57 O61 2.439 . S
Cd57 O67 2.240 . S
Cd58 O59 2.240 . S
Cd58 O66 2.223 . S
Cd58 O68 2.297 1_455 S
Cd58 O69 2.439 1_455 S
O59 Cd58 2.240 . S
O59 C64 1.279 . S
O60 Cd57 2.297 . S
O60 C62 1.247 . S
O61 Cd57 2.439 . S
O61 C62 1.208 . S
C62 O60 1.247 . S
C62 O61 1.208 . S
C63 O68 1.247 . S
C63 O69 1.208 . S
C64 O56 1.315 . S
C64 O59 1.279 . S
C65 O66 1.315 . S
C65 O67 1.279 . S
O66 Cd58 2.223 . S
O66 C65 1.315 . S
O67 Cd57 2.240 . S
O67 C65 1.279 . S
O68 Cd58 2.297 1_655 S
O68 C63 1.247 . S
O69 Cd58 2.439 1_655 S
O69 C63 1.208 . S
O70 Cd71 2.223 . S
O70 C78 1.315 . S
Cd71 O70 2.223 . S
Cd71 O74 2.297 . S
Cd71 O75 2.439 . S
Cd71 O81 2.240 . S
Cd72 O73 2.240 . S
Cd72 O80 2.223 . S
Cd72 O82 2.297 1_545 S
Cd72 O83 2.439 1_545 S
O73 Cd72 2.240 . S
O73 C78 1.279 . S
O74 Cd71 2.297 . S
O74 C76 1.247 . S
O75 Cd71 2.439 . S
O75 C76 1.208 . S
C76 O74 1.247 . S
C76 O75 1.208 . S
C77 O82 1.247 . S
C77 O83 1.208 . S
C78 O70 1.315 . S
C78 O73 1.279 . S
C79 O80 1.315 . S
C79 O81 1.279 . S
O80 Cd72 2.223 . S
O80 C79 1.315 . S
O81 Cd71 2.240 . S
O81 C79 1.279 . S
O82 Cd72 2.297 1_565 S
O82 C77 1.247 . S
O83 Cd72 2.439 1_565 S
O83 C77 1.208 . S
O84 Cd85 2.223 . S
O84 C92 1.315 . S
Cd85 O84 2.223 . S
Cd85 O88 2.297 . S
Cd85 O89 2.439 . S
Cd85 O95 2.240 . S
Cd86 O87 2.240 . S
Cd86 O94 2.223 . S
Cd86 O96 2.297 . S
Cd86 O97 2.439 . S
O87 Cd86 2.240 . S
O87 C92 1.279 . S
O88 Cd85 2.297 . S
O88 C90 1.247 . S
O89 Cd85 2.439 . S
O89 C90 1.208 . S
C90 O88 1.247 . S
C90 O89 1.208 . S
C91 O96 1.247 . S
C91 O97 1.208 . S
C92 O84 1.315 . S
C92 O87 1.279 . S
C93 O94 1.315 . S
C93 O95 1.279 . S
O94 Cd86 2.223 . S
O94 C93 1.315 . S
O95 Cd85 2.240 . S
O95 C93 1.279 . S
O96 Cd86 2.297 . S
O96 C91 1.247 . S
O97 Cd86 2.439 . S
O97 C91 1.208 . S
O98 Cd99 2.223 . S
O98 C106 1.315 . S
Cd99 O98 2.223 . S
Cd99 O102 2.297 . S
Cd99 O103 2.439 . S
Cd99 O109 2.240 . S
Cd100 O101 2.240 . S
Cd100 O108 2.223 . S
Cd100 O110 2.297 . S
Cd100 O111 2.439 . S
O101 Cd100 2.240 . S
O101 C106 1.279 . S
O102 Cd99 2.297 . S
O102 C104 1.247 . S
O103 Cd99 2.439 . S
O103 C104 1.208 . S
C104 O102 1.247 . S
C104 O103 1.208 . S
C105 O110 1.247 . S
C105 O111 1.208 . S
C106 O98 1.315 . S
C106 O101 1.279 . S
C107 O108 1.315 . S
C107 O109 1.279 . S
O108 Cd100 2.223 . S
O108 C107 1.315 . S
O109 Cd99 2.240 . S
O109 C107 1.279 . S
O110 Cd100 2.297 . S
O110 C105 1.247 . S
O111 Cd100 2.439 . S
O111 C105 1.208 . S
O112 Cd113 2.223 . S
O112 C120 1.315 . S
Cd113 O112 2.223 . S
Cd113 O116 2.297 . S
Cd113 O117 2.439 . S
Cd113 O123 2.240 . S
Cd114 O115 2.240 . S
Cd114 O122 2.223 . S
Cd114 O124 2.297 1_655 S
Cd114 O125 2.439 1_655 S
O115 Cd114 2.240 . S
O115 C120 1.279 . S
O116 Cd113 2.297 . S
O116 C118 1.247 . S
O117 Cd113 2.439 . S
O117 C118 1.208 . S
C118 O116 1.247 . S
C118 O117 1.208 . S
C119 O124 1.247 . S
C119 O125 1.208 . S
C120 O112 1.315 . S
C120 O115 1.279 . S
C121 O122 1.315 . S
C121 O123 1.279 . S
O122 Cd114 2.223 . S
O122 C121 1.315 . S
O123 Cd113 2.240 . S
O123 C121 1.279 . S
O124 Cd114 2.297 1_455 S
O124 C119 1.247 . S
O125 Cd114 2.439 1_455 S
O125 C119 1.208 . S
O126 Cd127 2.223 . S
O126 C134 1.315 . S
Cd127 O126 2.223 . S
Cd127 O130 2.297 . S
Cd127 O131 2.439 . S
Cd127 O137 2.240 . S
Cd128 O129 2.240 . S
Cd128 O136 2.223 . S
Cd128 O138 2.297 1_565 S
Cd128 O139 2.439 1_565 S
O129 Cd128 2.240 . S
O129 C134 1.279 . S
O130 Cd127 2.297 . S
O130 C132 1.247 . S
O131 Cd127 2.439 . S
O131 C132 1.208 . S
C132 O130 1.247 . S
C132 O131 1.208 . S
C133 O138 1.247 . S
C133 O139 1.208 . S
C134 O126 1.315 . S
C134 O129 1.279 . S
C135 O136 1.315 . S
C135 O137 1.279 . S
O136 Cd128 2.223 . S
O136 C135 1.315 . S
O137 Cd127 2.240 . S
O137 C135 1.279 . S
O138 Cd128 2.297 1_545 S
O138 C133 1.247 . S
O139 Cd128 2.439 1_545 S
O139 C133 1.208 . S
O140 Cd141 2.223 . S
O140 C148 1.315 . S
Cd141 O140 2.223 . S
Cd141 O144 2.297 . S
Cd141 O145 2.439 . S
Cd141 O151 2.240 . S
Cd142 O143 2.240 . S
Cd142 O150 2.223 . S
Cd142 O152 2.297 . S
Cd142 O153 2.439 . S
O143 Cd142 2.240 . S
O143 C148 1.279 . S
O144 Cd141 2.297 . S
O144 C146 1.247 . S
O145 Cd141 2.439 . S
O145 C146 1.208 . S
C146 O144 1.247 . S
C146 O145 1.208 . S
C147 O152 1.247 . S
C147 O153 1.208 . S
C148 O140 1.315 . S
C148 O143 1.279 . S
C149 O150 1.315 . S
C149 O151 1.279 . S
O150 Cd142 2.223 . S
O150 C149 1.315 . S
O151 Cd141 2.240 . S
O151 C149 1.279 . S
O152 Cd142 2.297 . S
O152 C147 1.247 . S
O153 Cd142 2.439 . S
O153 C147 1.208 . S
O154 Cd155 2.223 . S
O154 C162 1.315 . S
Cd155 O154 2.223 . S
Cd155 O158 2.297 . S
Cd155 O159 2.439 . S
Cd155 O165 2.240 . S
Cd156 O157 2.240 . S
Cd156 O164 2.223 . S
Cd156 O166 2.297 . S
Cd156 O167 2.439 . S
O157 Cd156 2.240 . S
O157 C162 1.279 . S
O158 Cd155 2.297 . S
O158 C160 1.247 . S
O159 Cd155 2.439 . S
O159 C160 1.208 . S
C160 O158 1.247 . S
C160 O159 1.208 . S
C161 O166 1.247 . S
C161 O167 1.208 . S
C162 O154 1.315 . S
C162 O157 1.279 . S
C163 O164 1.315 . S
C163 O165 1.279 . S
O164 Cd156 2.223 . S
O164 C163 1.315 . S
O165 Cd155 2.240 . S
O165 C163 1.279 . S
O166 Cd156 2.297 . S
O166 C161 1.247 . S
O167 Cd156 2.439 . S
O167 C161 1.208 . S
O168 Cd169 2.223 . S
O168 C176 1.315 . S
Cd169 O168 2.223 . S
Cd169 O172 2.297 . S
Cd169 O173 2.439 . S
Cd169 O179 2.240 . S
Cd170 O171 2.240 . S
Cd170 O178 2.223 . S
Cd170 O180 2.297 1_655 S
Cd170 O181 2.439 1_655 S
O171 Cd170 2.240 . S
O171 C176 1.279 . S
O172 Cd169 2.297 . S
O172 C174 1.247 . S
O173 Cd169 2.439 . S
O173 C174 1.208 . S
C174 O172 1.247 . S
C174 O173 1.208 . S
C175 O180 1.247 . S
C175 O181 1.208 . S
C176 O168 1.315 . S
C176 O171 1.279 . S
C177 O178 1.315 . S
C177 O179 1.279 . S
O178 Cd170 2.223 . S
O178 C177 1.315 . S
O179 Cd169 2.240 . S
O179 C177 1.279 . S
O180 Cd170 2.297 1_455 S
O180 C175 1.247 . S
O181 Cd170 2.439 1_455 S
O181 C175 1.208 . S
O182 Cd183 2.223 . S
O182 C190 1.315 . S
Cd183 O182 2.223 . S
Cd183 O186 2.297 . S
Cd183 O187 2.439 . S
Cd183 O193 2.240 . S
Cd184 O185 2.240 . S
Cd184 O192 2.223 . S
Cd184 O194 2.297 1_565 S
Cd184 O195 2.439 1_565 S
O185 Cd184 2.240 . S
O185 C190 1.279 . S
O186 Cd183 2.297 . S
O186 C188 1.247 . S
O187 Cd183 2.439 . S
O187 C188 1.208 . S
C188 O186 1.247 . S
C188 O187 1.208 . S
C189 O194 1.247 . S
C189 O195 1.208 . S
C190 O182 1.315 . S
C190 O185 1.279 . S
C191 O192 1.315 . S
C191 O193 1.279 . S
O192 Cd184 2.223 . S
O192 C191 1.315 . S
O193 Cd183 2.240 . S
O193 C191 1.279 . S
O194 Cd184 2.297 1_545 S
O194 C189 1.247 . S
O195 Cd184 2.439 1_545 S
O195 C189 1.208 . S
O196 Cd197 2.223 . S
O196 C204 1.315 . S
Cd197 O196 2.223 . S
Cd197 O200 2.297 . S
Cd197 O201 2.439 . S
Cd197 O207 2.240 . S
Cd198 O199 2.240 . S
Cd198 O206 2.223 . S
Cd198 O208 2.297 . S
Cd198 O209 2.439 . S
O199 Cd198 2.240 . S
O199 C204 1.279 . S
O200 Cd197 2.297 . S
O200 C202 1.247 . S
O201 Cd197 2.439 . S
O201 C202 1.208 . S
C202 O200 1.247 . S
C202 O201 1.208 . S
C203 O208 1.247 . S
C203 O209 1.208 . S
C204 O196 1.315 . S
C204 O199 1.279 . S
C205 O206 1.315 . S
C205 O207 1.279 . S
O206 Cd198 2.223 . S
O206 C205 1.315 . S
O207 Cd197 2.240 . S
O207 C205 1.279 . S
O208 Cd198 2.297 . S
O208 C203 1.247 . S
O209 Cd198 2.439 . S
O209 C203 1.208 . S
O210 Cd211 2.223 . S
O210 C218 1.315 . S
Cd211 O210 2.223 . S
Cd211 O214 2.297 . S
Cd211 O215 2.439 . S
Cd211 O221 2.240 . S
Cd212 O213 2.240 . S
Cd212 O220 2.223 . S
Cd212 O222 2.297 . S
Cd212 O223 2.439 . S
O213 Cd212 2.240 . S
O213 C218 1.279 . S
O214 Cd211 2.297 . S
O214 C216 1.247 . S
O215 Cd211 2.439 . S
O215 C216 1.208 . S
C216 O214 1.247 . S
C216 O215 1.208 . S
C217 O222 1.247 . S
C217 O223 1.208 . S
C218 O210 1.315 . S
C218 O213 1.279 . S
C219 O220 1.315 . S
C219 O221 1.279 . S
O220 Cd212 2.223 . S
O220 C219 1.315 . S
O221 Cd211 2.240 . S
O221 C219 1.279 . S
O222 Cd212 2.297 . S
O222 C217 1.247 . S
O223 Cd212 2.439 . S
O223 C217 1.208 . S
H224 C230 0.930 . S
H225 C234 0.930 1_655 S
H226 C239 0.929 1_656 S
H227 C237 0.929 1_554 S
H228 C232 0.929 1_655 S
H229 C238 0.929 . S
C230 H224 0.930 . S
C230 C231 1.367 . S
C230 C238 1.378 . S
C231 C230 1.367 . S
C231 C239 1.433 . S
C232 H228 0.929 1_455 S
C232 C234 1.378 . S
C232 C236 1.350 . S
C233 C236 1.463 1_554 S
C233 C238 1.350 . S
C233 N241 1.427 1_554 S
C234 H225 0.930 1_455 S
C234 C232 1.378 . S
C234 C235 1.367 . S
C235 C234 1.367 . S
C235 C237 1.433 . S
C236 C232 1.350 . S
C236 C233 1.463 1_556 S
C236 N240 1.427 1_556 S
C237 H227 0.929 1_556 S
C237 C235 1.433 . S
C237 N240 1.384 1_556 S
C238 H229 0.929 . S
C238 C230 1.378 . S
C238 C233 1.350 . S
C239 H226 0.929 1_454 S
C239 C231 1.433 . S
C239 N241 1.384 1_554 S
N240 C236 1.427 1_554 S
N240 C237 1.384 1_554 S
N241 C233 1.427 1_556 S
N241 C239 1.384 1_556 S
H242 C248 0.930 . S
H243 C252 0.930 1_565 S
H244 C257 0.929 1_565 S
H245 C255 0.929 . S
H246 C250 0.929 1_565 S
H247 C256 0.929 . S
C248 H242 0.930 . S
C248 C249 1.367 . S
C248 C256 1.378 . S
C249 C248 1.367 . S
C249 C257 1.433 . S
C250 H246 0.929 1_545 S
C250 C252 1.378 . S
C250 C254 1.350 . S
C251 C254 1.463 . S
C251 C256 1.350 . S
C251 N259 1.427 . S
C252 H243 0.930 1_545 S
C252 C250 1.378 . S
C252 C253 1.367 . S
C253 C252 1.367 . S
C253 C255 1.433 . S
C254 C250 1.350 . S
C254 C251 1.463 . S
C254 N258 1.427 . S
C255 H245 0.929 . S
C255 C253 1.433 . S
C255 N258 1.384 . S
C256 H247 0.929 . S
C256 C248 1.378 . S
C256 C251 1.350 . S
C257 H244 0.929 1_545 S
C257 C249 1.433 . S
C257 N259 1.384 . S
N258 C254 1.427 . S
N258 C255 1.384 . S
N259 C251 1.427 . S
N259 C257 1.384 . S
H260 C266 0.930 . S
H261 C270 0.930 . S
H262 C275 0.929 . S
H263 C273 0.929 . S
H264 C268 0.929 . S
H265 C274 0.929 . S
C266 H260 0.930 . S
C266 C267 1.367 1_556 S
C266 C274 1.378 . S
C267 C266 1.367 1_554 S
C267 C275 1.433 . S
C268 H264 0.929 . S
C268 C270 1.378 . S
C268 C272 1.350 1_554 S
C269 C272 1.463 1_554 S
C269 C274 1.350 1_554 S
C269 N277 1.427 . S
C270 H261 0.930 . S
C270 C268 1.378 . S
C270 C271 1.367 1_554 S
C271 C270 1.367 1_556 S
C271 C273 1.433 . S
C272 C268 1.350 1_556 S
C272 C269 1.463 1_556 S
C272 N276 1.427 . S
C273 H263 0.929 . S
C273 C271 1.433 . S
C273 N276 1.384 . S
C274 H265 0.929 . S
C274 C266 1.378 . S
C274 C269 1.350 1_556 S
C275 H262 0.929 . S
C275 C267 1.433 . S
C275 N277 1.384 . S
N276 C272 1.427 . S
N276 C273 1.384 . S
N277 C269 1.427 . S
N277 C275 1.384 . S
H278 C284 0.930 . S
H279 C288 0.930 . S
H280 C293 0.929 . S
H281 C291 0.929 . S
H282 C286 0.929 . S
H283 C292 0.929 . S
C284 H278 0.930 . S
C284 C285 1.367 . S
C284 C292 1.378 . S
C285 C284 1.367 . S
C285 C293 1.433 . S
C286 H282 0.929 . S
C286 C288 1.378 . S
C286 C290 1.350 . S
C287 C290 1.463 . S
C287 C292 1.350 . S
C287 N295 1.427 . S
C288 H279 0.930 . S
C288 C286 1.378 . S
C288 C289 1.367 . S
C289 C288 1.367 . S
C289 C291 1.433 . S
C290 C286 1.350 . S
C290 C287 1.463 . S
C290 N294 1.427 . S
C291 H281 0.929 . S
C291 C289 1.433 . S
C291 N294 1.384 . S
C292 H283 0.929 . S
C292 C284 1.378 . S
C292 C287 1.350 . S
C293 H280 0.929 . S
C293 C285 1.433 . S
C293 N295 1.384 . S
N294 C290 1.427 . S
N294 C291 1.384 . S
N295 C287 1.427 . S
N295 C293 1.384 . S
H296 C302 0.930 1_455 S
H297 C306 0.930 . S
H298 C311 0.929 . S
H299 C309 0.929 1_455 S
H300 C304 0.929 . S
H301 C310 0.929 1_455 S
C302 H296 0.930 1_655 S
C302 C303 1.367 . S
C302 C310 1.378 . S
C303 C302 1.367 . S
C303 C311 1.433 . S
C304 H300 0.929 . S
C304 C306 1.378 . S
C304 C308 1.350 . S
C305 C308 1.463 1_556 S
C305 C310 1.350 . S
C305 N313 1.427 1_556 S
C306 H297 0.930 . S
C306 C304 1.378 . S
C306 C307 1.367 . S
C307 C306 1.367 . S
C307 C309 1.433 . S
C308 C304 1.350 . S
C308 C305 1.463 1_554 S
C308 N312 1.427 1_554 S
C309 H299 0.929 1_655 S
C309 C307 1.433 . S
C309 N312 1.384 1_554 S
C310 H301 0.929 1_655 S
C310 C302 1.378 . S
C310 C305 1.350 . S
C311 H298 0.929 . S
C311 C303 1.433 . S
C311 N313 1.384 1_556 S
N312 C308 1.427 1_556 S
N312 C309 1.384 1_556 S
N313 C305 1.427 1_554 S
N313 C311 1.384 1_554 S
H314 C320 0.930 1_545 S
H315 C324 0.930 . S
H316 C329 0.929 . S
H317 C327 0.929 1_545 S
H318 C322 0.929 . S
H319 C328 0.929 1_545 S
C320 H314 0.930 1_565 S
C320 C321 1.367 . S
C320 C328 1.378 . S
C321 C320 1.367 . S
C321 C329 1.433 . S
C322 H318 0.929 . S
C322 C324 1.378 . S
C322 C326 1.350 . S
C323 C326 1.463 . S
C323 C328 1.350 . S
C323 N331 1.427 . S
C324 H315 0.930 . S
C324 C322 1.378 . S
C324 C325 1.367 . S
C325 C324 1.367 . S
C325 C327 1.433 . S
C326 C322 1.350 . S
C326 C323 1.463 . S
C326 N330 1.427 . S
C327 H317 0.929 1_565 S
C327 C325 1.433 . S
C327 N330 1.384 . S
C328 H319 0.929 1_565 S
C328 C320 1.378 . S
C328 C323 1.350 . S
C329 H316 0.929 . S
C329 C321 1.433 . S
C329 N331 1.384 . S
N330 C326 1.427 . S
N330 C327 1.384 . S
N331 C323 1.427 . S
N331 C329 1.384 . S
H332 C338 0.930 . S
H333 C342 0.930 . S
H334 C347 0.929 1_554 S
H335 C345 0.929 1_556 S
H336 C340 0.929 . S
H337 C346 0.929 . S
C338 H332 0.930 . S
C338 C339 1.367 . S
C338 C346 1.378 . S
C339 C338 1.367 . S
C339 C347 1.433 . S
C340 H336 0.929 . S
C340 C342 1.378 . S
C340 C344 1.350 . S
C341 C344 1.463 1_556 S
C341 C346 1.350 . S
C341 N349 1.427 1_556 S
C342 H333 0.930 . S
C342 C340 1.378 . S
C342 C343 1.367 . S
C343 C342 1.367 . S
C343 C345 1.433 . S
C344 C340 1.350 . S
C344 C341 1.463 1_554 S
C344 N348 1.427 1_554 S
C345 H335 0.929 1_554 S
C345 C343 1.433 . S
C345 N348 1.384 1_554 S
C346 H337 0.929 . S
C346 C338 1.378 . S
C346 C341 1.350 . S
C347 H334 0.929 1_556 S
C347 C339 1.433 . S
C347 N349 1.384 1_556 S
N348 C344 1.427 1_556 S
N348 C345 1.384 1_556 S
N349 C341 1.427 1_554 S
N349 C347 1.384 1_554 S
H350 C356 0.930 . S
H351 C360 0.930 . S
H352 C365 0.929 . S
H353 C363 0.929 . S
H354 C358 0.929 . S
H355 C364 0.929 . S
C356 H350 0.930 . S
C356 C357 1.367 . S
C356 C364 1.378 . S
C357 C356 1.367 . S
C357 C365 1.433 . S
C358 H354 0.929 . S
C358 C360 1.378 . S
C358 C362 1.350 . S
C359 C362 1.463 . S
C359 C364 1.350 . S
C359 N367 1.427 . S
C360 H351 0.930 . S
C360 C358 1.378 . S
C360 C361 1.367 . S
C361 C360 1.367 . S
C361 C363 1.433 . S
C362 C358 1.350 . S
C362 C359 1.463 . S
C362 N366 1.427 . S
C363 H353 0.929 . S
C363 C361 1.433 . S
C363 N366 1.384 . S
C364 H355 0.929 . S
C364 C356 1.378 . S
C364 C359 1.350 . S
C365 H352 0.929 . S
C365 C357 1.433 . S
C365 N367 1.384 . S
N366 C362 1.427 . S
N366 C363 1.384 . S
N367 C359 1.427 . S
N367 C365 1.384 . S
H368 C374 0.930 . S
H369 C378 0.930 . S
H370 C383 0.929 . S
H371 C381 0.929 . S
H372 C376 0.929 . S
H373 C382 0.929 . S
C374 H368 0.930 . S
C374 C375 1.367 1_554 S
C374 C382 1.378 1_554 S
C375 C374 1.367 1_556 S
C375 C383 1.433 . S
C376 H372 0.929 . S
C376 C378 1.378 . S
C376 C380 1.350 . S
C377 C380 1.463 . S
C377 C382 1.350 . S
C377 N385 1.427 . S
C378 H369 0.930 . S
C378 C376 1.378 . S
C378 C379 1.367 . S
C379 C378 1.367 . S
C379 C381 1.433 . S
C380 C376 1.350 . S
C380 C377 1.463 . S
C380 N384 1.427 . S
C381 H371 0.929 . S
C381 C379 1.433 . S
C381 N384 1.384 . S
C382 H373 0.929 . S
C382 C374 1.378 1_556 S
C382 C377 1.350 . S
C383 H370 0.929 . S
C383 C375 1.433 . S
C383 N385 1.384 . S
N384 C380 1.427 . S
N384 C381 1.384 . S
N385 C377 1.427 . S
N385 C383 1.384 . S
H386 C392 0.930 . S
H387 C396 0.930 . S
H388 C401 0.929 . S
H389 C399 0.929 . S
H390 C394 0.929 . S
H391 C400 0.929 . S
C392 H386 0.930 . S
C392 C393 1.367 . S
C392 C400 1.378 . S
C393 C392 1.367 . S
C393 C401 1.433 . S
C394 H390 0.929 . S
C394 C396 1.378 . S
C394 C398 1.350 . S
C395 C398 1.463 . S
C395 C400 1.350 . S
C395 N403 1.427 . S
C396 H387 0.930 . S
C396 C394 1.378 . S
C396 C397 1.367 . S
C397 C396 1.367 . S
C397 C399 1.433 . S
C398 C394 1.350 . S
C398 C395 1.463 . S
C398 N402 1.427 . S
C399 H389 0.929 . S
C399 C397 1.433 . S
C399 N402 1.384 . S
C400 H391 0.929 . S
C400 C392 1.378 . S
C400 C395 1.350 . S
C401 H388 0.929 . S
C401 C393 1.433 . S
C401 N403 1.384 . S
N402 C398 1.427 . S
N402 C399 1.384 . S
N403 C395 1.427 . S
N403 C401 1.384 . S
H404 C410 0.930 1_554 S
H405 C414 0.930 . S
H406 C419 0.929 . S
H407 C417 0.929 . S
H408 C412 0.929 . S
H409 C418 0.929 . S
C410 H404 0.930 1_556 S
C410 C411 1.367 . S
C410 C418 1.378 . S
C411 C410 1.367 . S
C411 C419 1.433 . S
C412 H408 0.929 . S
C412 C414 1.378 . S
C412 C416 1.350 . S
C413 C416 1.463 . S
C413 C418 1.350 . S
C413 N421 1.427 . S
C414 H405 0.930 . S
C414 C412 1.378 . S
C414 C415 1.367 . S
C415 C414 1.367 . S
C415 C417 1.433 . S
C416 C412 1.350 . S
C416 C413 1.463 . S
C416 N420 1.427 . S
C417 H407 0.929 . S
C417 C415 1.433 . S
C417 N420 1.384 . S
C418 H409 0.929 . S
C418 C410 1.378 . S
C418 C413 1.350 . S
C419 H406 0.929 . S
C419 C411 1.433 . S
C419 N421 1.384 . S
N420 C416 1.427 . S
N420 C417 1.384 . S
N421 C413 1.427 . S
N421 C419 1.384 . S
H422 C428 0.930 . S
H423 C432 0.930 . S
H424 C437 0.929 . S
H425 C435 0.929 . S
H426 C430 0.929 . S
H427 C436 0.929 . S
C428 H422 0.930 . S
C428 C429 1.367 . S
C428 C436 1.378 . S
C429 C428 1.367 . S
C429 C437 1.433 . S
C430 H426 0.929 . S
C430 C432 1.378 . S
C430 C434 1.350 . S
C431 C434 1.463 . S
C431 C436 1.350 . S
C431 N439 1.427 . S
C432 H423 0.930 . S
C432 C430 1.378 . S
C432 C433 1.367 . S
C433 C432 1.367 . S
C433 C435 1.433 . S
C434 C430 1.350 . S
C434 C431 1.463 . S
C434 N438 1.427 . S
C435 H425 0.929 . S
C435 C433 1.433 . S
C435 N438 1.384 . S
C436 H427 0.929 . S
C436 C428 1.378 . S
C436 C431 1.350 . S
C437 H424 0.929 . S
C437 C429 1.433 . S
C437 N439 1.384 . S
N438 C434 1.427 . S
N438 C435 1.384 . S
N439 C431 1.427 . S
N439 C437 1.384 . S
H440 C446 0.930 . S
H441 C450 0.930 . S
H442 C455 0.929 . S
H443 C453 0.929 . S
H444 C448 0.929 . S
H445 C454 0.929 . S
C446 H440 0.930 . S
C446 C447 1.367 . S
C446 C454 1.378 . S
C447 C446 1.367 . S
C447 C455 1.433 . S
C448 H444 0.929 . S
C448 C450 1.378 1_554 S
C448 C452 1.350 . S
C449 C452 1.463 . S
C449 C454 1.350 . S
C449 N457 1.427 . S
C450 H441 0.930 . S
C450 C448 1.378 1_556 S
C450 C451 1.367 1_556 S
C451 C450 1.367 1_554 S
C451 C453 1.433 . S
C452 C448 1.350 . S
C452 C449 1.463 . S
C452 N456 1.427 . S
C453 H443 0.929 . S
C453 C451 1.433 . S
C453 N456 1.384 . S
C454 H445 0.929 . S
C454 C446 1.378 . S
C454 C449 1.350 . S
C455 H442 0.929 . S
C455 C447 1.433 . S
C455 N457 1.384 . S
N456 C452 1.427 . S
N456 C453 1.384 . S
N457 C449 1.427 . S
N457 C455 1.384 . S
H458 C464 0.930 . S
H459 C468 0.930 . S
H460 C473 0.929 . S
H461 C471 0.929 . S
H462 C466 0.929 . S
H463 C472 0.929 . S
C464 H458 0.930 . S
C464 C465 1.367 . S
C464 C472 1.378 . S
C465 C464 1.367 . S
C465 C473 1.433 . S
C466 H462 0.929 . S
C466 C468 1.378 . S
C466 C470 1.350 . S
C467 C470 1.463 . S
C467 C472 1.350 . S
C467 N475 1.427 . S
C468 H459 0.930 . S
C468 C466 1.378 . S
C468 C469 1.367 . S
C469 C468 1.367 . S
C469 C471 1.433 . S
C470 C466 1.350 . S
C470 C467 1.463 . S
C470 N474 1.427 . S
C471 H461 0.929 . S
C471 C469 1.433 . S
C471 N474 1.384 . S
C472 H463 0.929 . S
C472 C464 1.378 . S
C472 C467 1.350 . S
C473 H460 0.929 . S
C473 C465 1.433 . S
C473 N475 1.384 . S
N474 C470 1.427 . S
N474 C471 1.384 . S
N475 C467 1.427 . S
N475 C473 1.384 . S
H476 C482 0.930 . S
H477 C486 0.930 . S
H478 C491 0.929 . S
H479 C489 0.929 . S
H480 C484 0.929 . S
H481 C490 0.929 . S
C482 H476 0.930 . S
C482 C483 1.367 . S
C482 C490 1.378 . S
C483 C482 1.367 . S
C483 C491 1.433 . S
C484 H480 0.929 . S
C484 C486 1.378 . S
C484 C488 1.350 . S
C485 C488 1.463 . S
C485 C490 1.350 . S
C485 N493 1.427 . S
C486 H477 0.930 . S
C486 C484 1.378 . S
C486 C487 1.367 . S
C487 C486 1.367 . S
C487 C489 1.433 1_554 S
C488 C484 1.350 . S
C488 C485 1.463 . S
C488 N492 1.427 . S
C489 H479 0.929 . S
C489 C487 1.433 1_556 S
C489 N492 1.384 1_556 S
C490 H481 0.929 . S
C490 C482 1.378 . S
C490 C485 1.350 . S
C491 H478 0.929 . S
C491 C483 1.433 . S
C491 N493 1.384 . S
N492 C488 1.427 . S
N492 C489 1.384 1_554 S
N493 C485 1.427 . S
N493 C491 1.384 . S
H494 C500 0.930 . S
H495 C504 0.930 . S
H496 C509 0.929 . S
H497 C507 0.929 . S
H498 C502 0.929 . S
H499 C508 0.929 . S
C500 H494 0.930 . S
C500 C501 1.367 . S
C500 C508 1.378 . S
C501 C500 1.367 . S
C501 C509 1.433 . S
C502 H498 0.929 . S
C502 C504 1.378 . S
C502 C506 1.350 . S
C503 C506 1.463 . S
C503 C508 1.350 . S
C503 N511 1.427 . S
C504 H495 0.930 . S
C504 C502 1.378 . S
C504 C505 1.367 . S
C505 C504 1.367 . S
C505 C507 1.433 . S
C506 C502 1.350 . S
C506 C503 1.463 . S
C506 N510 1.427 . S
C507 H497 0.929 . S
C507 C505 1.433 . S
C507 N510 1.384 . S
C508 H499 0.929 . S
C508 C500 1.378 . S
C508 C503 1.350 . S
C509 H496 0.929 . S
C509 C501 1.433 . S
C509 N511 1.384 . S
N510 C506 1.427 . S
N510 C507 1.384 . S
N511 C503 1.427 . S
N511 C509 1.384 . S
H512 C518 0.930 . S
H513 C522 0.930 . S
H514 C527 0.929 1_556 S
H515 C525 0.929 . S
H516 C520 0.929 . S
H517 C526 0.929 . S
C518 H512 0.930 . S
C518 C519 1.367 . S
C518 C526 1.378 . S
C519 C518 1.367 . S
C519 C527 1.433 . S
C520 H516 0.929 . S
C520 C522 1.378 . S
C520 C524 1.350 . S
C521 C524 1.463 . S
C521 C526 1.350 . S
C521 N529 1.427 . S
C522 H513 0.930 . S
C522 C520 1.378 . S
C522 C523 1.367 . S
C523 C522 1.367 . S
C523 C525 1.433 . S
C524 C520 1.350 . S
C524 C521 1.463 . S
C524 N528 1.427 . S
C525 H515 0.929 . S
C525 C523 1.433 . S
C525 N528 1.384 . S
C526 H517 0.929 . S
C526 C518 1.378 . S
C526 C521 1.350 . S
C527 H514 0.929 1_554 S
C527 C519 1.433 . S
C527 N529 1.384 . S
N528 C524 1.427 . S
N528 C525 1.384 . S
N529 C521 1.427 . S
N529 C527 1.384 . S
H530 C536 0.930 . S
H531 C540 0.930 . S
H532 C545 0.929 . S
H533 C543 0.929 . S
H534 C538 0.929 . S
H535 C544 0.929 . S
C536 H530 0.930 . S
C536 C537 1.367 . S
C536 C544 1.378 . S
C537 C536 1.367 . S
C537 C545 1.433 . S
C538 H534 0.929 . S
C538 C540 1.378 . S
C538 C542 1.350 . S
C539 C542 1.463 . S
C539 C544 1.350 . S
C539 N547 1.427 . S
C540 H531 0.930 . S
C540 C538 1.378 . S
C540 C541 1.367 . S
C541 C540 1.367 . S
C541 C543 1.433 . S
C542 C538 1.350 . S
C542 C539 1.463 . S
C542 N546 1.427 . S
C543 H533 0.929 . S
C543 C541 1.433 . S
C543 N546 1.384 . S
C544 H535 0.929 . S
C544 C536 1.378 . S
C544 C539 1.350 . S
C545 H532 0.929 . S
C545 C537 1.433 . S
C545 N547 1.384 . S
N546 C542 1.427 . S
N546 C543 1.384 . S
N547 C539 1.427 . S
N547 C545 1.384 . S
H548 C554 0.930 . S
H549 C558 0.930 . S
H550 C563 0.929 . S
H551 C561 0.929 1_556 S
H552 C556 0.929 . S
H553 C562 0.929 . S
C554 H548 0.930 . S
C554 C555 1.367 . S
C554 C562 1.378 . S
C555 C554 1.367 . S
C555 C563 1.433 . S
C556 H552 0.929 . S
C556 C558 1.378 . S
C556 C560 1.350 . S
C557 C560 1.463 . S
C557 C562 1.350 . S
C557 N565 1.427 . S
C558 H549 0.930 . S
C558 C556 1.378 . S
C558 C559 1.367 . S
C559 C558 1.367 . S
C559 C561 1.433 . S
C560 C556 1.350 . S
C560 C557 1.463 . S
C560 N564 1.427 . S
C561 H551 0.929 1_554 S
C561 C559 1.433 . S
C561 N564 1.384 . S
C562 H553 0.929 . S
C562 C554 1.378 . S
C562 C557 1.350 . S
C563 H550 0.929 . S
C563 C555 1.433 . S
C563 N565 1.384 . S
N564 C560 1.427 . S
N564 C561 1.384 . S
N565 C557 1.427 . S
N565 C563 1.384 . S
H566 C572 0.930 . S
H567 C576 0.930 . S
H568 C581 0.929 . S
H569 C579 0.929 . S
H570 C574 0.929 . S
H571 C580 0.929 . S
C572 H566 0.930 . S
C572 C573 1.367 . S
C572 C580 1.378 . S
C573 C572 1.367 . S
C573 C581 1.433 . S
C574 H570 0.929 . S
C574 C576 1.378 . S
C574 C578 1.350 . S
C575 C578 1.463 . S
C575 C580 1.350 . S
C575 N583 1.427 . S
C576 H567 0.930 . S
C576 C574 1.378 . S
C576 C577 1.367 . S
C577 C576 1.367 . S
C577 C579 1.433 . S
C578 C574 1.350 . S
C578 C575 1.463 . S
C578 N582 1.427 . S
C579 H569 0.929 . S
C579 C577 1.433 . S
C579 N582 1.384 . S
C580 H571 0.929 . S
C580 C572 1.378 . S
C580 C575 1.350 . S
C581 H568 0.929 . S
C581 C573 1.433 . S
C581 N583 1.384 . S
N582 C578 1.427 . S
N582 C579 1.384 . S
N583 C575 1.427 . S
N583 C581 1.384 . S
H584 C590 0.930 . S
H585 C594 0.930 . S
H586 C599 0.929 . S
H587 C597 0.929 1_554 S
H588 C592 0.929 . S
H589 C598 0.929 . S
C590 H584 0.930 . S
C590 C591 1.367 . S
C590 C598 1.378 . S
C591 C590 1.367 . S
C591 C599 1.433 . S
C592 H588 0.929 . S
C592 C594 1.378 . S
C592 C596 1.350 . S
C593 C596 1.463 . S
C593 C598 1.350 . S
C593 N601 1.427 . S
C594 H585 0.930 . S
C594 C592 1.378 . S
C594 C595 1.367 . S
C595 C594 1.367 . S
C595 C597 1.433 . S
C596 C592 1.350 . S
C596 C593 1.463 . S
C596 N600 1.427 . S
C597 H587 0.929 1_556 S
C597 C595 1.433 . S
C597 N600 1.384 . S
C598 H589 0.929 . S
C598 C590 1.378 . S
C598 C593 1.350 . S
C599 H586 0.929 . S
C599 C591 1.433 . S
C599 N601 1.384 . S
N600 C596 1.427 . S
N600 C597 1.384 . S
N601 C593 1.427 . S
N601 C599 1.384 . S
H602 C608 0.930 . S
H603 C612 0.930 . S
H604 C617 0.929 . S
H605 C615 0.929 . S
H606 C610 0.929 . S
H607 C616 0.929 . S
C608 H602 0.930 . S
C608 C609 1.367 . S
C608 C616 1.378 . S
C609 C608 1.367 . S
C609 C617 1.433 . S
C610 H606 0.929 . S
C610 C612 1.378 . S
C610 C614 1.350 . S
C611 C614 1.463 . S
C611 C616 1.350 . S
C611 N619 1.427 . S
C612 H603 0.930 . S
C612 C610 1.378 . S
C612 C613 1.367 . S
C613 C612 1.367 . S
C613 C615 1.433 . S
C614 C610 1.350 . S
C614 C611 1.463 . S
C614 N618 1.427 . S
C615 H605 0.929 . S
C615 C613 1.433 . S
C615 N618 1.384 . S
C616 H607 0.929 . S
C616 C608 1.378 . S
C616 C611 1.350 . S
C617 H604 0.929 . S
C617 C609 1.433 . S
C617 N619 1.384 . S
N618 C614 1.427 . S
N618 C615 1.384 . S
N619 C611 1.427 . S
N619 C617 1.384 . S
H620 C626 0.930 . S
H621 C630 0.930 . S
H622 C635 0.929 . S
H623 C633 0.929 . S
H624 C628 0.929 . S
H625 C634 0.929 . S
C626 H620 0.930 . S
C626 C627 1.367 . S
C626 C634 1.378 . S
C627 C626 1.367 . S
C627 C635 1.433 1_556 S
C628 H624 0.929 . S
C628 C630 1.378 . S
C628 C632 1.350 . S
C629 C632 1.463 . S
C629 C634 1.350 . S
C629 N637 1.427 . S
C630 H621 0.930 . S
C630 C628 1.378 . S
C630 C631 1.367 . S
C631 C630 1.367 . S
C631 C633 1.433 . S
C632 C628 1.350 . S
C632 C629 1.463 . S
C632 N636 1.427 . S
C633 H623 0.929 . S
C633 C631 1.433 . S
C633 N636 1.384 . S
C634 H625 0.929 . S
C634 C626 1.378 . S
C634 C629 1.350 . S
C635 H622 0.929 . S
C635 C627 1.433 1_554 S
C635 N637 1.384 1_554 S
N636 C632 1.427 . S
N636 C633 1.384 . S
N637 C629 1.427 . S
N637 C635 1.384 1_556 S
H638 C644 0.930 . S
H639 C648 0.930 . S
H640 C653 0.929 . S
H641 C651 0.929 . S
H642 C646 0.929 . S
H643 C652 0.929 . S
C644 H638 0.930 . S
C644 C645 1.367 . S
C644 C652 1.378 . S
C645 C644 1.367 . S
C645 C653 1.433 . S
C646 H642 0.929 . S
C646 C648 1.378 . S
C646 C650 1.350 . S
C647 C650 1.463 . S
C647 C652 1.350 . S
C647 N655 1.427 . S
C648 H639 0.930 . S
C648 C646 1.378 . S
C648 C649 1.367 . S
C649 C648 1.367 . S
C649 C651 1.433 . S
C650 C646 1.350 . S
C650 C647 1.463 . S
C650 N654 1.427 . S
C651 H641 0.929 . S
C651 C649 1.433 . S
C651 N654 1.384 . S
C652 H643 0.929 . S
C652 C644 1.378 . S
C652 C647 1.350 . S
C653 H640 0.929 . S
C653 C645 1.433 . S
C653 N655 1.384 . S
N654 C650 1.427 . S
N654 C651 1.384 . S
N655 C647 1.427 . S
N655 C653 1.384 . S
H656 C662 0.930 . S
H657 C666 0.930 . S
H658 C671 0.929 . S
H659 C669 0.929 . S
H660 C664 0.929 . S
H661 C670 0.929 . S
C662 H656 0.930 . S
C662 C663 1.367 . S
C662 C670 1.378 . S
C663 C662 1.367 . S
C663 C671 1.433 . S
C664 H660 0.929 . S
C664 C666 1.378 . S
C664 C668 1.350 . S
C665 C668 1.463 . S
C665 C670 1.350 . S
C665 N673 1.427 . S
C666 H657 0.930 . S
C666 C664 1.378 . S
C666 C667 1.367 . S
C667 C666 1.367 . S
C667 C669 1.433 . S
C668 C664 1.350 . S
C668 C665 1.463 . S
C668 N672 1.427 . S
C669 H659 0.929 . S
C669 C667 1.433 . S
C669 N672 1.384 . S
C670 H661 0.929 . S
C670 C662 1.378 . S
C670 C665 1.350 . S
C671 H658 0.929 . S
C671 C663 1.433 . S
C671 N673 1.384 . S
N672 C668 1.427 . S
N672 C669 1.384 . S
N673 C665 1.427 . S
N673 C671 1.384 . S
H674 C680 0.930 . S
H675 C684 0.930 . S
H676 C689 0.929 . S
H677 C687 0.929 . S
H678 C682 0.929 . S
H679 C688 0.929 . S
C680 H674 0.930 . S
C680 C681 1.367 . S
C680 C688 1.378 . S
C681 C680 1.367 . S
C681 C689 1.433 . S
C682 H678 0.929 . S
C682 C684 1.378 . S
C682 C686 1.350 . S
C683 C686 1.463 . S
C683 C688 1.350 . S
C683 N691 1.427 . S
C684 H675 0.930 . S
C684 C682 1.378 . S
C684 C685 1.367 . S
C685 C684 1.367 . S
C685 C687 1.433 . S
C686 C682 1.350 . S
C686 C683 1.463 . S
C686 N690 1.427 . S
C687 H677 0.929 . S
C687 C685 1.433 . S
C687 N690 1.384 . S
C688 H679 0.929 . S
C688 C680 1.378 . S
C688 C683 1.350 . S
C689 H676 0.929 . S
C689 C681 1.433 . S
C689 N691 1.384 . S
N690 C686 1.427 . S
N690 C687 1.384 . S
N691 C683 1.427 . S
N691 C689 1.384 . S
H692 C698 0.930 . S
H693 C702 0.930 . S
H694 C707 0.929 . S
H695 C705 0.929 . S
H696 C700 0.929 . S
H697 C706 0.929 . S
C698 H692 0.930 . S
C698 C699 1.367 . S
C698 C706 1.378 . S
C699 C698 1.367 . S
C699 C707 1.433 . S
C700 H696 0.929 . S
C700 C702 1.378 . S
C700 C704 1.350 . S
C701 C704 1.463 . S
C701 C706 1.350 . S
C701 N709 1.427 . S
C702 H693 0.930 . S
C702 C700 1.378 . S
C702 C703 1.367 . S
C703 C702 1.367 . S
C703 C705 1.433 . S
C704 C700 1.350 . S
C704 C701 1.463 . S
C704 N708 1.427 . S
C705 H695 0.929 . S
C705 C703 1.433 . S
C705 N708 1.384 . S
C706 H697 0.929 . S
C706 C698 1.378 . S
C706 C701 1.350 . S
C707 H694 0.929 . S
C707 C699 1.433 . S
C707 N709 1.384 . S
N708 C704 1.427 . S
N708 C705 1.384 . S
N709 C701 1.427 . S
N709 C707 1.384 . S
H710 C716 0.930 . S
H711 C720 0.930 . S
H712 C725 0.929 . S
H713 C723 0.929 . S
H714 C718 0.929 . S
H715 C724 0.929 . S
C716 H710 0.930 . S
C716 C717 1.367 . S
C716 C724 1.378 . S
C717 C716 1.367 . S
C717 C725 1.433 . S
C718 H714 0.929 . S
C718 C720 1.378 . S
C718 C722 1.350 . S
C719 C722 1.463 . S
C719 C724 1.350 . S
C719 N727 1.427 . S
C720 H711 0.930 . S
C720 C718 1.378 . S
C720 C721 1.367 . S
C721 C720 1.367 . S
C721 C723 1.433 . S
C722 C718 1.350 . S
C722 C719 1.463 . S
C722 N726 1.427 . S
C723 H713 0.929 . S
C723 C721 1.433 . S
C723 N726 1.384 . S
C724 H715 0.929 . S
C724 C716 1.378 . S
C724 C719 1.350 . S
C725 H712 0.929 . S
C725 C717 1.433 . S
C725 N727 1.384 . S
N726 C722 1.427 . S
N726 C723 1.384 . S
N727 C719 1.427 . S
N727 C725 1.384 . S
H728 C734 0.930 . S
H729 C738 0.930 . S
H730 C743 0.929 . S
H731 C741 0.929 . S
H732 C736 0.929 . S
H733 C742 0.929 . S
C734 H728 0.930 . S
C734 C735 1.367 . S
C734 C742 1.378 . S
C735 C734 1.367 . S
C735 C743 1.433 . S
C736 H732 0.929 . S
C736 C738 1.378 . S
C736 C740 1.350 . S
C737 C740 1.463 . S
C737 C742 1.350 . S
C737 N745 1.427 . S
C738 H729 0.930 . S
C738 C736 1.378 . S
C738 C739 1.367 . S
C739 C738 1.367 . S
C739 C741 1.433 . S
C740 C736 1.350 . S
C740 C737 1.463 . S
C740 N744 1.427 . S
C741 H731 0.929 . S
C741 C739 1.433 . S
C741 N744 1.384 . S
C742 H733 0.929 . S
C742 C734 1.378 . S
C742 C737 1.350 . S
C743 H730 0.929 . S
C743 C735 1.433 . S
C743 N745 1.384 . S
N744 C740 1.427 . S
N744 C741 1.384 . S
N745 C737 1.427 . S
N745 C743 1.384 . S
H746 C752 0.930 . S
H747 C756 0.930 . S
H748 C761 0.929 . S
H749 C759 0.929 . S
H750 C754 0.929 . S
H751 C760 0.929 . S
C752 H746 0.930 . S
C752 C753 1.367 . S
C752 C760 1.378 . S
C753 C752 1.367 . S
C753 C761 1.433 . S
C754 H750 0.929 . S
C754 C756 1.378 . S
C754 C758 1.350 . S
C755 C758 1.463 . S
C755 C760 1.350 . S
C755 N763 1.427 . S
C756 H747 0.930 . S
C756 C754 1.378 . S
C756 C757 1.367 . S
C757 C756 1.367 . S
C757 C759 1.433 . S
C758 C754 1.350 . S
C758 C755 1.463 . S
C758 N762 1.427 . S
C759 H749 0.929 . S
C759 C757 1.433 . S
C759 N762 1.384 . S
C760 H751 0.929 . S
C760 C752 1.378 . S
C760 C755 1.350 . S
C761 H748 0.929 . S
C761 C753 1.433 . S
C761 N763 1.384 . S
N762 C758 1.427 . S
N762 C759 1.384 . S
N763 C755 1.427 . S
N763 C761 1.384 . S
H764 C770 0.930 . S
H765 C774 0.930 . S
H766 C779 0.929 . S
H767 C777 0.929 . S
H768 C772 0.929 . S
H769 C778 0.929 . S
C770 H764 0.930 . S
C770 C771 1.367 . S
C770 C778 1.378 . S
C771 C770 1.367 . S
C771 C779 1.433 . S
C772 H768 0.929 . S
C772 C774 1.378 . S
C772 C776 1.350 . S
C773 C776 1.463 . S
C773 C778 1.350 . S
C773 N781 1.427 . S
C774 H765 0.930 . S
C774 C772 1.378 . S
C774 C775 1.367 . S
C775 C774 1.367 . S
C775 C777 1.433 . S
C776 C772 1.350 . S
C776 C773 1.463 . S
C776 N780 1.427 . S
C777 H767 0.929 . S
C777 C775 1.433 . S
C777 N780 1.384 . S
C778 H769 0.929 . S
C778 C770 1.378 . S
C778 C773 1.350 . S
C779 H766 0.929 . S
C779 C771 1.433 . S
C779 N781 1.384 . S
N780 C776 1.427 . S
N780 C777 1.384 . S
N781 C773 1.427 . S
N781 C779 1.384 . S
H782 C788 0.930 . S
H783 C792 0.930 . S
H784 C797 0.929 . S
H785 C795 0.929 . S
H786 C790 0.929 . S
H787 C796 0.929 . S
C788 H782 0.930 . S
C788 C789 1.367 . S
C788 C796 1.378 . S
C789 C788 1.367 . S
C789 C797 1.433 . S
C790 H786 0.929 . S
C790 C792 1.378 . S
C790 C794 1.350 . S
C791 C794 1.463 . S
C791 C796 1.350 . S
C791 N799 1.427 . S
C792 H783 0.930 . S
C792 C790 1.378 . S
C792 C793 1.367 . S
C793 C792 1.367 . S
C793 C795 1.433 . S
C794 C790 1.350 . S
C794 C791 1.463 . S
C794 N798 1.427 . S
C795 H785 0.929 . S
C795 C793 1.433 . S
C795 N798 1.384 . S
C796 H787 0.929 . S
C796 C788 1.378 . S
C796 C791 1.350 . S
C797 H784 0.929 . S
C797 C789 1.433 . S
C797 N799 1.384 . S
N798 C794 1.427 . S
N798 C795 1.384 . S
N799 C791 1.427 . S
N799 C797 1.384 . S
C231 C6 0.997 . S
C235 C62 1.011 . S
C249 C76 1.002 . S
C253 C20 1.016 . S
C267 C34 1.011 . S
C271 C90 1.009 . S
C285 C48 1.000 . S
C289 C104 1.016 . S
C303 C118 1.013 . S
C307 C174 0.996 . S
C321 C188 1.015 . S
C325 C132 1.002 . S
C339 C146 1.009 . S
C343 C202 0.998 . S
C357 C160 0.998 . S
C361 C216 1.016 . S
C375 C8 1.712 1_556 S
C379 C219 1.676 . S
C393 C177 1.684 . S
C397 C22 1.712 . S
C411 C36 1.712 1_556 S
C415 C191 1.683 . S
C429 C205 1.683 . S
C433 C50 1.711 . S
C447 C135 1.682 . S
C451 C64 1.713 1_554 S
C465 C149 1.684 . S
C469 C78 1.712 . S
C483 C163 1.677 . S
C487 C92 1.711 1_554 S
C501 C121 1.674 . S
C505 C106 1.711 . S
C519 C120 1.712 1_554 S
C523 C107 1.683 . S
C537 C65 1.680 . S
C541 C134 1.713 . S
C555 C79 1.674 . S
C559 C148 1.711 1_554 S
C573 C162 1.712 . S
C577 C93 1.676 . S
C591 C23 1.675 . S
C595 C176 1.711 1_556 S
C609 C190 1.713 . S
C613 C37 1.679 . S
C627 C204 1.711 1_556 S
C631 C51 1.681 . S
C645 C218 1.712 . S
C649 C9 1.682 . S
C663 C105 1.281 . S
C667 C7 1.266 . S
C681 C21 1.260 . S
C685 C63 1.269 . S
C699 C35 1.279 . S
C703 C77 1.270 . S
C717 C49 1.262 . S
C721 C91 1.266 . S
C735 C217 1.261 . S
C739 C119 1.267 . S
C753 C175 1.258 . S
C757 C133 1.274 . S
C771 C189 1.275 . S
C775 C147 1.258 . S
C789 C203 1.258 . S
C793 C161 1.274 . S
