# Generated by pormake.
# Topology vbn, (6)-cn, num edge types: 1
# Building blocks:
#     Node 0, Type 0, BuildingBlock: MIDCAF_clean_sbu_0, # of connection points: 6
#     Node 1, Type 0, BuildingBlock: MIDCAF_clean_sbu_0, # of connection points: 6
#     Node 2, Type 0, BuildingBlock: MIDCAF_clean_sbu_0, # of connection points: 6
#     Node 3, Type 0, BuildingBlock: MIDCAF_clean_sbu_0, # of connection points: 6
#     Node 4, Type 0, BuildingBlock: MIDCAF_clean_sbu_0, # of connection points: 6
#     Node 5, Type 0, BuildingBlock: MIDCAF_clean_sbu_0, # of connection points: 6
#     Node 6, Type 0, BuildingBlock: MIDCAF_clean_sbu_0, # of connection points: 6
#     Node 7, Type 0, BuildingBlock: MIDCAF_clean_sbu_0, # of connection points: 6
#     Edge 8, Type (0, 0), BuildingBlock: XUDNAN_clean_linker_2, # of connection points: 2
#     Edge 9, Type (0, 0), BuildingBlock: XUDNAN_clean_linker_2, # of connection points: 2
#     Edge 10, Type (0, 0), BuildingBlock: XUDNAN_clean_linker_2, # of connection points: 2
#     Edge 11, Type (0, 0), BuildingBlock: XUDNAN_clean_linker_2, # of connection points: 2
#     Edge 12, Type (0, 0), BuildingBlock: XUDNAN_clean_linker_2, # of connection points: 2
#     Edge 13, Type (0, 0), BuildingBlock: XUDNAN_clean_linker_2, # of connection points: 2
#     Edge 14, Type (0, 0), BuildingBlock: XUDNAN_clean_linker_2, # of connection points: 2
#     Edge 15, Type (0, 0), BuildingBlock: XUDNAN_clean_linker_2, # of connection points: 2
#     Edge 16, Type (0, 0), BuildingBlock: XUDNAN_clean_linker_2, # of connection points: 2
#     Edge 17, Type (0, 0), BuildingBlock: XUDNAN_clean_linker_2, # of connection points: 2
#     Edge 18, Type (0, 0), BuildingBlock: XUDNAN_clean_linker_2, # of connection points: 2
#     Edge 19, Type (0, 0), BuildingBlock: XUDNAN_clean_linker_2, # of connection points: 2
#     Edge 20, Type (0, 0), BuildingBlock: XUDNAN_clean_linker_2, # of connection points: 2
#     Edge 21, Type (0, 0), BuildingBlock: XUDNAN_clean_linker_2, # of connection points: 2
#     Edge 22, Type (0, 0), BuildingBlock: XUDNAN_clean_linker_2, # of connection points: 2
#     Edge 23, Type (0, 0), BuildingBlock: XUDNAN_clean_linker_2, # of connection points: 2
#     Edge 24, Type (0, 0), BuildingBlock: XUDNAN_clean_linker_2, # of connection points: 2
#     Edge 25, Type (0, 0), BuildingBlock: XUDNAN_clean_linker_2, # of connection points: 2
#     Edge 26, Type (0, 0), BuildingBlock: XUDNAN_clean_linker_2, # of connection points: 2
#     Edge 27, Type (0, 0), BuildingBlock: XUDNAN_clean_linker_2, # of connection points: 2
#     Edge 28, Type (0, 0), BuildingBlock: XUDNAN_clean_linker_2, # of connection points: 2
#     Edge 29, Type (0, 0), BuildingBlock: XUDNAN_clean_linker_2, # of connection points: 2
#     Edge 30, Type (0, 0), BuildingBlock: XUDNAN_clean_linker_2, # of connection points: 2
#     Edge 31, Type (0, 0), BuildingBlock: XUDNAN_clean_linker_2, # of connection points: 2
# Relax obj value: 0.265
# Max RMSD: 0.222
# Mean RMSD: 0.222
data_MOF--net-vbn--node1-MIDCAF_clean_sbu_0--edge1-XUDNAN_clean_linker_2
_symmetry_space_group_name_H-M    P1
_symmetry_Int_Tables_number       1
_symmetry_cell_setting            triclinic
loop_
_symmetry_equiv_pos_as_xyz
'x, y, z'
_cell_length_a     25.408703
_cell_length_b     26.514081
_cell_length_c     45.608467
_cell_angle_alpha  89.984742
_cell_angle_beta   89.867089
_cell_angle_gamma 90.142561
loop_
_atom_site_label
_atom_site_type_symbol
_atom_site_fract_x
_atom_site_fract_y
_atom_site_fract_z
_atom_type_partial_charge
Zn0 Zn 0.35379 0.36433 0.42345 0.0
Zn1 Zn 0.4389 0.24015 0.36848 0.0
Zn2 Zn 0.38577 0.29587 0.398 0.0
C3 C 0.33657 0.19698 0.3786 0.0
C4 C 0.42784 0.31794 0.3321 0.0
O5 O 0.44043 0.32607 0.4312 0.0
O6 O 0.38626 0.36129 0.46288 0.0
C7 C 0.27451 0.29962 0.42799 0.0
O8 O 0.3331 0.23066 0.39877 0.0
O9 O 0.37611 0.1968 0.3617 0.0
O10 O 0.46274 0.28499 0.3362 0.0
O11 O 0.39145 0.32413 0.3515 0.0
O12 O 0.27827 0.34486 0.41972 0.0
O13 O 0.31322 0.26987 0.42219 0.0
O14 O 0.36246 0.36033 0.36961 0.0
O15 O 0.37811 0.42311 0.39953 0.0
C16 C 0.36429 0.4082 0.37452 0.0
O17 O 0.46373 0.28049 0.42086 0.0
O18 O 0.49186 0.21488 0.39605 0.0
C19 C 0.43269 0.35126 0.45506 0.0
C20 C 0.49645 0.24373 0.41786 0.0
Zn21 Zn 0.04816 0.26919 0.88774 0.0
Zn22 Zn 0.1028 0.15184 0.95073 0.0
Zn23 Zn 0.09665 0.19734 0.90817 0.0
C24 C 0.17919 0.11506 0.91336 0.0
C25 C 0.18495 0.2201 0.95077 0.0
O26 O 0.05326 0.22955 0.94433 0.0
O27 O 0.00442 0.28717 0.92345 0.0
C28 C 0.02597 0.18288 0.85285 0.0
O29 O 0.1752 0.1615 0.90536 0.0
O30 O 0.14619 0.09765 0.9315 0.0
O31 O 0.14841 0.20924 0.96887 0.0
O32 O 0.17745 0.21039 0.92334 0.0
O33 O 0.01503 0.22915 0.85563 0.0
O34 O 0.0569 0.16171 0.87125 0.0
O35 O 0.16676 0.23503 0.8921 0.0
O36 O 0.11879 0.30103 0.87963 0.0
C37 C 0.16338 0.27992 0.88173 0.0
O38 O 0.05361 0.12812 0.901 0.0
O39 O 0.02464 0.13791 0.94615 0.0
C40 C 0.01727 0.26263 0.94606 0.0
C41 C 0.0204 0.11691 0.92127 0.0
Zn42 Zn 0.93577 0.25114 0.6231 0.0
Zn43 Zn 0.86582 0.127 0.57226 0.0
Zn44 Zn 0.88382 0.19874 0.59474 0.0
C45 C 0.8212 0.10246 0.62038 0.0
C46 C 0.80242 0.19959 0.54769 0.0
O47 O 0.95939 0.22132 0.57059 0.0
O48 O 0.98301 0.28775 0.59607 0.0
C49 C 0.93595 0.16744 0.65498 0.0
O50 O 0.85238 0.1395 0.62662 0.0
O51 O 0.8147 0.08983 0.59409 0.0
O52 O 0.83502 0.16674 0.53894 0.0
O53 O 0.80978 0.21977 0.57296 0.0
O54 O 0.96926 0.20173 0.65019 0.0
O55 O 0.89525 0.16379 0.63834 0.0
O56 O 0.83022 0.26328 0.59607 0.0
O57 O 0.87073 0.28643 0.6365 0.0
C58 C 0.83188 0.29055 0.61938 0.0
O59 O 0.94335 0.17342 0.56125 0.0
O60 O 0.93403 0.09214 0.56936 0.0
C61 C 0.98974 0.26009 0.57391 0.0
C62 C 0.95894 0.12752 0.55737 0.0
Zn63 Zn 0.54351 0.24134 0.12729 0.0
Zn64 Zn 0.63377 0.30896 0.05568 0.0
Zn65 Zn 0.60382 0.28241 0.09801 0.0
C66 C 0.6637 0.38444 0.09475 0.0
C67 C 0.70227 0.24401 0.06392 0.0
O68 O 0.54999 0.25035 0.06628 0.0
O69 O 0.48556 0.23994 0.0976 0.0
C70 C 0.55161 0.33633 0.1518 0.0
O71 O 0.62343 0.36363 0.10736 0.0
O72 O 0.68276 0.36298 0.07234 0.0
O73 O 0.67077 0.24581 0.04238 0.0
O74 O 0.686 0.25945 0.08914 0.0
O75 O 0.53934 0.2918 0.15887 0.0
O76 O 0.57529 0.34472 0.12718 0.0
O77 O 0.65773 0.2285 0.11741 0.0
O78 O 0.59009 0.18221 0.1313 0.0
C79 C 0.63906 0.18684 0.12722 0.0
O80 O 0.56738 0.35635 0.09326 0.0
O81 O 0.56237 0.33837 0.04618 0.0
C82 C 0.50148 0.24158 0.07135 0.0
C83 C 0.5484 0.36595 0.06762 0.0
Zn84 Zn 0.75734 0.61557 0.5739 0.0
Zn85 Zn 0.5552 0.75661 0.61021 0.0
Zn86 Zn 0.61393 0.69978 0.59131 0.0
C87 C 0.62287 0.82248 0.5934 0.0
C88 C 0.57813 0.7039 0.65757 0.0
O89 O 0.63992 0.63997 0.56189 0.0
O90 O 0.70284 0.58923 0.54428 0.0
C91 C 0.72446 0.72401 0.57271 0.0
O92 O 0.64732 0.77975 0.59321 0.0
O93 O 0.57333 0.82263 0.59417 0.0
O94 O 0.56781 0.74952 0.65251 0.0
O95 O 0.5953 0.67615 0.6366 0.0
O96 O 0.72877 0.68422 0.58803 0.0
O97 O 0.68034 0.74682 0.5749 0.0
O98 O 0.63124 0.64067 0.62429 0.0
O99 O 0.71021 0.64481 0.60662 0.0
C100 C 0.67711 0.62112 0.62242 0.0
O101 O 0.54068 0.69246 0.56488 0.0
O102 O 0.48845 0.72735 0.59719 0.0
C103 C 0.65506 0.60475 0.54455 0.0
C104 C 0.49396 0.70293 0.57372 0.0
Zn105 Zn 0.82844 0.93577 0.06944 0.0
Zn106 Zn 0.948 0.74027 0.1291 0.0
Zn107 Zn 0.90511 0.80828 0.09778 0.0
C108 C 0.84593 0.7072 0.11009 0.0
C109 C 0.94333 0.81769 0.16687 0.0
O110 O 0.94915 0.83291 0.05821 0.0
O111 O 0.88821 0.88561 0.06831 0.0
C112 C 0.79186 0.81873 0.0627 0.0
O113 O 0.84656 0.74827 0.09513 0.0
O114 O 0.88383 0.69617 0.12682 0.0
O115 O 0.96543 0.77519 0.1667 0.0
O116 O 0.91838 0.8332 0.14403 0.0
O117 O 0.79245 0.8669 0.06064 0.0
O118 O 0.82797 0.79347 0.07638 0.0
O119 O 0.88994 0.86898 0.12982 0.0
O120 O 0.89273 0.92621 0.09635 0.0
C121 C 0.88182 0.91494 0.12263 0.0
O122 O 0.9789 0.79427 0.07312 0.0
O123 O 0.00581 0.73064 0.10038 0.0
C124 C 0.92083 0.86966 0.04968 0.0
C125 C 0.01247 0.75921 0.07847 0.0
Zn126 Zn 0.20136 0.83204 0.40209 0.0
Zn127 Zn 0.05501 0.74319 0.37402 0.0
Zn128 Zn 0.10686 0.79562 0.40189 0.0
C129 C 0.15345 0.70444 0.36836 0.0
C130 C 0.03206 0.83863 0.35351 0.0
O131 O 0.10268 0.87503 0.40476 0.0
O132 O 0.16959 0.87842 0.43456 0.0
C133 C 0.225 0.75663 0.43167 0.0
O134 O 0.15883 0.73496 0.38976 0.0
O135 O 0.1117 0.70567 0.35343 0.0
O136 O 0.01336 0.79456 0.35297 0.0
O137 O 0.07355 0.84789 0.36887 0.0
O138 O 0.25418 0.78467 0.41628 0.0
O139 O 0.17445 0.75831 0.42801 0.0
O140 O 0.12445 0.86644 0.37255 0.0
O141 O 0.20873 0.86001 0.36162 0.0
C142 C 0.16553 0.88255 0.35807 0.0
O143 O 0.04016 0.77834 0.42994 0.0
O144 O 0.01634 0.70986 0.40674 0.0
C145 C 0.12535 0.89548 0.42672 0.0
C146 C 0.01094 0.7392 0.42836 0.0
Zn147 Zn 0.35696 0.63717 0.93622 0.0
Zn148 Zn 0.45269 0.7533 0.87645 0.0
Zn149 Zn 0.40001 0.69074 0.90676 0.0
C150 C 0.36213 0.80296 0.89441 0.0
C151 C 0.42889 0.67008 0.84086 0.0
O152 O 0.44663 0.66853 0.9449 0.0
O153 O 0.37988 0.66574 0.97526 0.0
C154 C 0.28371 0.69824 0.92864 0.0
O155 O 0.35618 0.76171 0.90885 0.0
O156 O 0.40011 0.80824 0.87681 0.0
O157 O 0.4558 0.71011 0.84166 0.0
O158 O 0.40204 0.65578 0.86321 0.0
O159 O 0.28483 0.6529 0.92038 0.0
O160 O 0.3268 0.72365 0.92622 0.0
O161 O 0.37869 0.61977 0.88301 0.0
O162 O 0.39223 0.57415 0.9222 0.0
C163 C 0.38395 0.576 0.89497 0.0
O164 O 0.47933 0.6974 0.9259 0.0
O165 O 0.51682 0.75952 0.90127 0.0
C166 C 0.42887 0.6643 0.97129 0.0
C167 C 0.51871 0.727 0.92147 0.0
H168 H 0.24511 0.92821 0.32763 0.0
H169 H 0.09128 0.95729 0.36411 0.0
H170 H 0.11505 0.04704 0.3713 0.0
H171 H 0.3176 0.9918 0.3711 0.0
H172 H 0.36336 0.01986 0.34557 0.0
H173 H 0.33017 0.96245 0.3361 0.0
H174 H 0.29207 0.00261 0.289 0.0
H175 H 0.32725 0.05994 0.29743 0.0
H176 H 0.25724 0.06162 0.29128 0.0
H177 H 0.16663 0.1269 0.38679 0.0
H178 H 0.23272 0.1938 0.39763 0.0
H179 H 0.34897 0.11097 0.34759 0.0
C180 C 0.21536 0.95393 0.33567 0.0
C181 C 0.1676 0.93542 0.3473 0.0
C182 C 0.12932 0.97039 0.35694 0.0
C183 C 0.1424 0.02154 0.36077 0.0
C184 C 0.19276 0.03746 0.35272 0.0
C185 C 0.22745 0.00514 0.33873 0.0
C186 C 0.28031 0.02995 0.33382 0.0
C187 C 0.32543 -0.00082 0.34749 0.0
C188 C 0.28977 0.03908 0.30093 0.0
C189 C 0.27177 0.0791 0.34983 0.0
C190 C 0.22092 0.08362 0.36021 0.0
C191 C 0.2061 0.1243 0.37796 0.0
C192 C 0.24397 0.16167 0.38452 0.0
C193 C 0.29596 0.15763 0.37365 0.0
C194 C 0.30944 0.1157 0.35607 0.0
H195 H 0.17294 0.36547 0.9106 0.0
H196 H 0.25559 0.2709 0.8485 0.0
H197 H 0.32301 0.33894 0.84175 0.0
H198 H 0.18597 0.47786 0.87235 0.0
H199 H 0.19299 0.51606 0.90481 0.0
H200 H 0.15617 0.45809 0.90639 0.0
H201 H 0.21556 0.42482 0.94848 0.0
H202 H 0.25131 0.48346 0.94778 0.0
H203 H 0.28599 0.42466 0.94368 0.0
H204 H 0.38102 0.42326 0.84292 0.0
H205 H 0.42161 0.5073 0.85358 0.0
H206 H 0.2906 0.54287 0.91057 0.0
C207 C 0.20565 0.35868 0.89582 0.0
C208 C 0.20944 0.3134 0.88008 0.0
C209 C 0.25263 0.30551 0.86099 0.0
C210 C 0.2906 0.34408 0.85689 0.0
C211 C 0.28414 0.38967 0.87204 0.0
C212 C 0.24259 0.39634 0.89129 0.0
C213 C 0.24181 0.44805 0.90464 0.0
C214 C 0.19124 0.47667 0.89654 0.0
C215 C 0.24913 0.44506 0.93811 0.0
C216 C 0.28916 0.47055 0.88985 0.0
C217 C 0.31409 0.43682 0.87132 0.0
C218 C 0.36118 0.44986 0.85712 0.0
C219 C 0.38371 0.49768 0.86297 0.0
C220 C 0.35826 0.53149 0.88233 0.0
C221 C 0.30999 0.51801 0.89509 0.0
H222 H 0.6726 0.53942 0.58612 0.0
H223 H 0.70288 0.5824 0.67589 0.0
H224 H 0.73071 0.49465 0.68676 0.0
H225 H 0.63424 0.40719 0.5972 0.0
H226 H 0.67019 0.38672 0.5652 0.0
H227 H 0.64278 0.4493 0.56641 0.0
H228 H 0.73323 0.4872 0.55488 0.0
H229 H 0.76157 0.42523 0.55368 0.0
H230 H 0.78842 0.47219 0.57807 0.0
H231 H 0.76472 0.40572 0.68589 0.0
H232 H 0.81073 0.32725 0.67347 0.0
H233 H 0.76703 0.34498 0.58214 0.0
C234 C 0.6849 0.5306 0.60798 0.0
C235 C 0.68577 0.56769 0.63008 0.0
C236 C 0.70117 0.55416 0.65876 0.0
C237 C 0.71703 0.50448 0.66505 0.0
C238 C 0.71755 0.46916 0.64227 0.0
C239 C 0.70228 0.48187 0.61424 0.0
C240 C 0.71332 0.43963 0.59271 0.0
C241 C 0.66194 0.41941 0.57965 0.0
C242 C 0.75143 0.45713 0.56843 0.0
C243 C 0.73866 0.40124 0.61273 0.0
C244 C 0.73942 0.41864 0.64139 0.0
C245 C 0.76383 0.39166 0.66361 0.0
C246 C 0.78997 0.34703 0.65624 0.0
C247 C 0.79264 0.32996 0.62673 0.0
C248 C 0.76491 0.35652 0.60488 0.0
H249 H 0.7366 0.1689 0.15313 0.0
H250 H 0.61083 0.09973 0.10289 0.0
H251 H 0.65273 0.01696 0.10786 0.0
H252 H 0.84112 0.10205 0.12313 0.0
H253 H 0.87685 0.09339 0.1569 0.0
H254 H 0.83305 0.14601 0.153 0.0
H255 H 0.7844 0.11695 0.20018 0.0
H256 H 0.82703 0.06287 0.20332 0.0
H257 H 0.75674 0.0544 0.20188 0.0
H258 H 0.70542 0.9424 0.11768 0.0
H259 H 0.78142 0.88502 0.11684 0.0
H260 H 0.87928 0.00153 0.15499 0.0
C261 C 0.71822 0.13615 0.1433 0.0
C262 C 0.67007 0.14023 0.12814 0.0
C263 C 0.64715 0.09693 0.1152 0.0
C264 C 0.67022 0.04967 0.1182 0.0
C265 C 0.7162 0.04607 0.13439 0.0
C266 C 0.74095 0.08806 0.1461 0.0
C267 C 0.79326 0.07347 0.15961 0.0
C268 C 0.83875 0.10561 0.14737 0.0
C269 C 0.79019 0.07717 0.19323 0.0
C270 C 0.79661 0.01863 0.15013 0.0
C271 C 0.74968 0.00284 0.1379 0.0
C272 C 0.74247 0.95417 0.12717 0.0
C273 C 0.7857 0.92185 0.12679 0.0
C274 C 0.83576 0.93959 0.13536 0.0
C275 C 0.84098 0.98744 0.14855 0.0
H276 H 0.83613 0.01573 0.65168 0.0
H277 H 0.72374 0.13292 0.63215 0.0
H278 H 0.65562 0.06904 0.62368 0.0
H279 H 0.8154 0.93448 0.60673 0.0
H280 H 0.81139 0.87545 0.6263 0.0
H281 H 0.84636 0.92764 0.6421 0.0
H282 H 0.78902 0.92609 0.68887 0.0
H283 H 0.75605 0.8711 0.67445 0.0
H284 H 0.71838 0.92526 0.68565 0.0
H285 H 0.61646 0.99651 0.59755 0.0
H286 H 0.587 0.91476 0.57798 0.0
H287 H 0.71816 0.8406 0.62077 0.0
C288 C 0.79591 0.02798 0.64857 0.0
C289 C 0.78535 0.07886 0.64145 0.0
C290 C 0.73254 0.09397 0.63746 0.0
C291 C 0.69372 0.05774 0.63193 0.0
C292 C 0.70751 0.00707 0.63399 0.0
C293 C 0.75576 0.99198 0.64484 0.0
C294 C 0.76044 0.93476 0.64388 0.0
C295 C 0.81142 0.91714 0.62882 0.0
C296 C 0.7557 0.913 0.67505 0.0
C297 C 0.71207 0.92146 0.62602 0.0
C298 C 0.68174 0.96382 0.62107 0.0
C299 C 0.63814 0.96258 0.6027 0.0
C300 C 0.62234 0.91609 0.59121 0.0
C301 C 0.64986 0.87123 0.59815 0.0
C302 C 0.69637 0.87423 0.61504 0.0
H303 H 0.84419 0.62705 0.07379 0.0
H304 H 0.75565 0.70112 0.14239 0.0
H305 H 0.69512 0.62747 0.14523 0.0
H306 H 0.73 0.56203 0.03853 0.0
H307 H 0.76912 0.50707 0.03054 0.0
H308 H 0.79953 0.56852 0.03151 0.0
H309 H 0.86643 0.53567 0.06987 0.0
H310 H 0.83567 0.47454 0.06953 0.0
H311 H 0.84251 0.50836 0.10359 0.0
H312 H 0.65009 0.54014 0.14356 0.0
H313 H 0.62258 0.45123 0.13548 0.0
H314 H 0.74375 0.43629 0.06885 0.0
C315 C 0.81081 0.62836 0.08859 0.0
C316 C 0.80337 0.6699 0.10732 0.0
C317 C 0.76076 0.66994 0.12732 0.0
C318 C 0.72654 0.6282 0.12917 0.0
C319 C 0.73574 0.58691 0.11086 0.0
C320 C 0.7765 0.58719 0.09065 0.0
C321 C 0.78051 0.53736 0.07476 0.0
C322 C 0.76909 0.54415 0.04189 0.0
C323 C 0.83447 0.51255 0.07975 0.0
C324 C 0.73699 0.50822 0.08982 0.0
C325 C 0.71101 0.53726 0.11037 0.0
C326 C 0.67002 0.51729 0.12733 0.0
C327 C 0.65493 0.46665 0.1228 0.0
C328 C 0.68117 0.43657 0.10169 0.0
C329 C 0.72282 0.458 0.08524 0.0
H330 H 0.3839 0.50214 0.35075 0.0
H331 H 0.26258 0.39 0.36644 0.0
H332 H 0.19531 0.45599 0.36542 0.0
H333 H 0.34481 0.59756 0.38846 0.0
H334 H 0.35187 0.64933 0.36309 0.0
H335 H 0.39094 0.59347 0.35841 0.0
H336 H 0.35619 0.58084 0.30563 0.0
H337 H 0.3189 0.63831 0.30945 0.0
H338 H 0.2863 0.5806 0.29912 0.0
H339 H 0.14862 0.53246 0.37847 0.0
H340 H 0.11212 0.61745 0.38476 0.0
H341 H 0.25738 0.68338 0.35214 0.0
C342 C 0.34282 0.49136 0.35188 0.0
C343 C 0.32817 0.44126 0.35874 0.0
C344 C 0.27436 0.4281 0.36078 0.0
C345 C 0.23588 0.46541 0.36058 0.0
C346 C 0.25177 0.51504 0.35625 0.0
C347 C 0.30318 0.52797 0.34975 0.0
C348 C 0.30834 0.58472 0.34557 0.0
C349 C 0.35154 0.60756 0.36508 0.0
C350 C 0.31802 0.59686 0.31302 0.0
C351 C 0.25375 0.60169 0.3549 0.0
C352 C 0.22205 0.56038 0.36075 0.0
C353 C 0.17184 0.56513 0.37244 0.0
C354 C 0.15178 0.61344 0.37626 0.0
C355 C 0.1816 0.65637 0.36827 0.0
C356 C 0.23378 0.65086 0.35805 0.0
H357 H 0.20734 0.05843 0.86586 0.0
H358 H 0.2537 0.10155 0.95366 0.0
H359 H 0.30631 0.02404 0.95805 0.0
H360 H 0.18798 0.93725 0.87604 0.0
H361 H 0.21768 0.9116 0.84336 0.0
H362 H 0.19308 0.97513 0.84329 0.0
H363 H 0.2838 0.01052 0.82759 0.0
H364 H 0.30818 0.94679 0.82588 0.0
H365 H 0.34172 0.99314 0.84794 0.0
H366 H 0.33041 0.93372 0.95831 0.0
H367 H 0.35642 0.84574 0.94778 0.0
H368 H 0.30545 0.86352 0.85775 0.0
C369 C 0.2316 0.05304 0.8851 0.0
C370 C 0.22722 0.08575 0.90936 0.0
C371 C 0.25761 0.07703 0.93475 0.0
C372 C 0.28694 0.03285 0.93758 0.0
C373 C 0.28677 0.9989 0.91434 0.0
C374 C 0.26263 0.00963 0.8879 0.0
C375 C 0.26757 0.96552 0.86686 0.0
C376 C 0.21333 0.94627 0.85682 0.0
C377 C 0.3024 0.97984 0.84051 0.0
C378 C 0.29469 0.92742 0.88644 0.0
C379 C 0.30465 0.94734 0.91385 0.0
C380 C 0.32463 0.91812 0.93663 0.0
C381 C 0.33821 0.86802 0.93068 0.0
C382 C 0.33261 0.84833 0.9021 0.0
C383 C 0.30976 0.87799 0.87983 0.0
H384 H 0.44421 0.39205 0.51015 0.0
H385 H 0.51322 0.38858 0.42294 0.0
H386 H 0.56865 0.46137 0.43529 0.0
H387 H 0.44312 0.52686 0.52027 0.0
H388 H 0.46301 0.52417 0.55816 0.0
H389 H 0.42648 0.47264 0.54233 0.0
H390 H 0.49839 0.41205 0.55881 0.0
H391 H 0.53927 0.46171 0.57326 0.0
H392 H 0.56445 0.41949 0.54548 0.0
H393 H 0.61299 0.53574 0.45515 0.0
H394 H 0.66124 0.59669 0.48601 0.0
H395 H 0.56821 0.55164 0.56141 0.0
C396 C 0.47186 0.40608 0.49396 0.0
C397 C 0.47476 0.38447 0.46571 0.0
C398 C 0.51107 0.40387 0.44493 0.0
C399 C 0.542 0.44586 0.4515 0.0
C400 C 0.53665 0.4676 0.47905 0.0
C401 C 0.50376 0.44773 0.50028 0.0
C402 C 0.50931 0.47603 0.52897 0.0
C403 C 0.45737 0.50143 0.53793 0.0
C404 C 0.5291 0.44033 0.5531 0.0
C405 C 0.55049 0.5149 0.52034 0.0
C406 C 0.56449 0.50991 0.49118 0.0
C407 C 0.60258 0.5402 0.47802 0.0
C408 C 0.6294 0.57485 0.49554 0.0
C409 C 0.61756 0.57892 0.52565 0.0
C410 C 0.57664 0.54986 0.53814 0.0
H411 H 0.0063 0.88156 0.01229 0.0
H412 H 0.83957 0.91246 0.02052 0.0
H413 H 0.84288 0.96605 0.9771 0.0
H414 H 0.04631 -0.00076 0.99397 0.0
H415 H 0.09575 0.97946 0.96801 0.0
H416 H 0.0751 0.93768 0.99672 0.0
H417 H 0.05164 0.8711 0.95425 0.0
H418 H 0.07202 0.91715 0.92751 0.0
H419 H 0.00699 0.88984 0.92593 0.0
H420 H 0.86802 0.03354 0.94322 0.0
H421 H 0.91423 0.10564 0.92048 0.0
H422 H 0.06155 0.02555 0.92683 0.0
C423 C 0.97018 0.89763 0.00407 0.0
C424 C 0.92285 0.89291 0.02011 0.0
C425 C 0.87662 0.916 0.00914 0.0
C426 C 0.87784 0.94616 0.98406 0.0
C427 C 0.92539 0.95207 0.96941 0.0
C428 C 0.97062 0.92764 0.97855 0.0
C429 C 0.01773 0.94559 0.96093 0.0
C430 C 0.06125 0.96667 0.98107 0.0
C431 C 0.03838 0.90345 0.94096 0.0
C432 C 0.99279 0.98683 0.9427 0.0
C433 C 0.9391 0.9893 0.94742 0.0
C434 C 0.90944 0.03051 0.93795 0.0
C435 C 0.93577 0.07119 0.92476 0.0
C436 C 0.9908 0.06971 0.92073 0.0
C437 C 0.01896 0.02589 0.92813 0.0
H438 H 0.04701 0.06999 0.56021 0.0
H439 H 0.9436 0.14932 0.5007 0.0
H440 H 0.98188 0.10298 0.45889 0.0
H441 H 0.16384 0.06095 0.50717 0.0
H442 H 0.17995 -0.00051 0.52132 0.0
H443 H 0.15091 0.04614 0.5451 0.0
H444 H 0.07742 0.98133 0.55801 0.0
H445 H 0.10508 0.93586 0.53317 0.0
H446 H 0.03762 0.95537 0.52899 0.0
H447 H 0.01083 0.03222 0.42784 0.0
H448 H 0.04748 0.95599 0.40531 0.0
H449 H 0.14532 0.93151 0.48166 0.0
C450 C 0.03473 0.07936 0.53815 0.0
C451 C 0.99366 0.11386 0.53326 0.0
C452 C 0.97631 0.12398 0.50447 0.0
C453 C 0.99739 0.09753 0.48074 0.0
C454 C 0.03633 0.062 0.48632 0.0
C455 C 0.05628 0.05405 0.51413 0.0
C456 C 0.09577 0.01142 0.51429 0.0
C457 C 0.15089 0.03068 0.52245 0.0
C458 C 0.07787 0.96849 0.53482 0.0
C459 C 0.09332 0.99549 0.4825 0.0
C460 C 0.05799 0.02459 0.46694 0.0
C461 C 0.04138 0.0113 0.43897 0.0
C462 C 0.06287 0.96815 0.42618 0.0
C463 C 0.10253 0.94035 0.44069 0.0
C464 C 0.11752 0.954 0.46935 0.0
H465 H 0.49324 0.58838 0.95987 0.0
H466 H 0.42678 0.6747 0.03133 0.0
H467 H 0.45576 0.60879 0.06648 0.0
H468 H 0.44092 0.48052 0.98164 0.0
H469 H 0.49355 0.43994 0.96969 0.0
H470 H 0.483 0.49921 0.95166 0.0
H471 H 0.57868 0.52811 0.96247 0.0
H472 H 0.59078 0.46768 0.97918 0.0
H473 H 0.60352 0.5248 -0.00058 0.0
H474 H 0.48454 0.52615 0.09253 0.0
H475 H 0.50916 0.43819 0.10577 0.0
H476 H 0.54064 0.40713 0.01393 0.0
C477 C 0.48797 0.59525 0.9831 0.0
C478 C 0.46004 0.63741 0.99316 0.0
C479 C 0.45 0.64323 0.02351 0.0
C480 C 0.46591 0.60585 0.04349 0.0
C481 C 0.49069 0.5629 0.03244 0.0
C482 C 0.5017 0.55788 0.00284 0.0
C483 C 0.51977 0.50563 0.99512 0.0
C484 C 0.48205 0.47987 0.97326 0.0
C485 C 0.57657 0.50662 0.98337 0.0
C486 C 0.51663 0.48148 0.02485 0.0
C487 C 0.50108 0.51481 0.04642 0.0
C488 C 0.49669 0.49982 0.07572 0.0
C489 C 0.51009 0.44982 0.08301 0.0
C490 C 0.52595 0.41564 0.06084 0.0
C491 C 0.52791 0.43183 0.03147 0.0
H492 H 0.59375 0.38469 0.19859 0.0
H493 H 0.45214 0.36817 0.14751 0.0
H494 H 0.39836 0.38454 0.19133 0.0
H495 H 0.56884 0.3233 0.25276 0.0
H496 H 0.59146 0.36156 0.28295 0.0
H497 H 0.61816 0.37156 0.24715 0.0
H498 H 0.59079 0.46537 0.24846 0.0
H499 H 0.56487 0.45614 0.28496 0.0
H500 H 0.52364 0.48196 0.25664 0.0
H501 H 0.36267 0.36962 0.2417 0.0
H502 H 0.34984 0.33662 0.2921 0.0
H503 H 0.51375 0.36558 0.31101 0.0
C504 C 0.55165 0.38929 0.19629 0.0
C505 C 0.52712 0.37601 0.16972 0.0
C506 C 0.4717 0.37973 0.16752 0.0
C507 C 0.44071 0.38847 0.19251 0.0
C508 C 0.46584 0.39598 0.21931 0.0
C509 C 0.52029 0.39932 0.22108 0.0
C510 C 0.53782 0.40053 0.25284 0.0
C511 C 0.58154 0.36186 0.25925 0.0
C512 C 0.55533 0.45417 0.26122 0.0
C513 C 0.48659 0.38741 0.26811 0.0
C514 C 0.44478 0.38797 0.24875 0.0
C515 C 0.39473 0.37113 0.25726 0.0
C516 C 0.38768 0.35229 0.2859 0.0
C517 C 0.43082 0.3491 0.30528 0.0
C518 C 0.48016 0.36846 0.29655 0.0
H519 H 0.94129 0.20955 0.82085 0.0
H520 H 0.06418 0.09693 0.82622 0.0
H521 H 0.03954 0.06578 0.77684 0.0
H522 H 0.84438 0.13785 0.7745 0.0
H523 H 0.82858 0.19442 0.75444 0.0
H524 H 0.84694 0.19834 0.79253 0.0
H525 H 0.921 0.26189 0.77912 0.0
H526 H 0.90302 0.25807 0.74121 0.0
H527 H 0.96957 0.24435 0.75215 0.0
H528 H 0.01715 0.06324 0.72274 0.0
H529 H 0.9961 0.08669 0.67139 0.0
H530 H 0.88509 0.19755 0.70269 0.0
C531 C 0.96177 0.17702 0.81216 0.0
C532 C 0.00459 0.15562 0.82726 0.0
C533 C 0.03088 0.11356 0.81506 0.0
C534 C 0.01712 0.09571 0.78702 0.0
C535 C 0.9765 0.11983 0.77191 0.0
C536 C 0.94867 0.15913 0.78441 0.0
C537 C 0.91267 0.1843 0.76259 0.0
C538 C 0.85469 0.17832 0.77156 0.0
C539 C 0.92748 0.2404 0.75854 0.0
C540 C 0.92522 0.15401 0.73549 0.0
C541 C 0.9621 0.11684 0.74111 0.0
C542 C 0.98668 0.09063 0.7183 0.0
C543 C 0.97448 0.10394 0.68924 0.0
C544 C 0.93749 0.14235 0.68351 0.0
C545 C 0.91138 0.16621 0.7068 0.0
H546 H 0.38824 0.70477 0.79195 0.0
H547 H 0.47642 0.58047 0.82782 0.0
H548 H 0.51681 0.56506 0.77918 0.0
H549 H 0.38307 0.66818 0.7107 0.0
H550 H 0.39715 0.73289 0.70132 0.0
H551 H 0.35868 0.71857 0.73351 0.0
H552 H 0.42408 0.77199 0.76412 0.0
H553 H 0.46456 0.784 0.73267 0.0
H554 H 0.49269 0.75479 0.76465 0.0
H555 H 0.56384 0.57801 0.72974 0.0
H556 H 0.60756 0.61543 0.68584 0.0
H557 H 0.49804 0.74048 0.68913 0.0
C558 C 0.41279 0.67182 0.78881 0.0
C559 C 0.42838 0.64298 0.81303 0.0
C560 C 0.46285 0.60181 0.80905 0.0
C561 C 0.48653 0.5934 0.78157 0.0
C562 C 0.47542 0.62696 0.75879 0.0
C563 C 0.43867 0.66517 0.76223 0.0
C564 C 0.44297 0.70419 0.73829 0.0
C565 C 0.39247 0.706 0.71985 0.0
C566 C 0.45691 0.75676 0.75069 0.0
C567 C 0.4882 0.68275 0.72114 0.0
C568 C 0.50602 0.63772 0.73255 0.0
C569 C 0.54961 0.61299 0.7205 0.0
C570 C 0.57461 0.63467 0.69588 0.0
C571 C 0.55688 0.68133 0.68457 0.0
C572 C 0.51331 0.70524 0.69756 0.0
H573 H 0.02804 0.86095 0.19284 0.0
H574 H 0.85994 0.84054 0.20135 0.0
H575 H 0.86301 0.87632 0.25135 0.0
H576 H 0.06936 0.82309 0.25365 0.0
H577 H 0.11801 0.87035 0.26262 0.0
H578 H 0.09961 0.86085 0.22526 0.0
H579 H 0.07548 0.95541 0.22106 0.0
H580 H 0.09333 0.96483 0.25896 0.0
H581 H 0.02888 0.98256 0.2463 0.0
H582 H 0.8874 0.88674 0.30262 0.0
H583 H 0.93033 0.86566 0.3492 0.0
H584 H 0.08299 0.88544 0.30904 0.0
C585 C 0.99183 0.86639 0.20497 0.0
C586 C 0.94383 0.84833 0.19367 0.0
C587 C 0.89691 0.85482 0.20979 0.0
C588 C 0.89833 0.87555 0.23806 0.0
C589 C 0.94675 0.8913 0.24935 0.0
C590 C 0.99257 0.88843 0.23292 0.0
C591 C 0.0403 0.90094 0.25148 0.0
C592 C 0.08427 0.86136 0.24808 0.0
C593 C 0.06071 0.95407 0.244 0.0
C594 C 0.01554 0.90064 0.28176 0.0
C595 C 0.96104 0.899 0.27985 0.0
C596 C 0.92973 0.89 0.30446 0.0
C597 C 0.95445 0.87821 0.33096 0.0
C598 C 0.00986 0.87491 0.3326 0.0
C599 C 0.04069 0.88988 0.30842 0.0
H600 H 0.55143 0.3062 0.45754 0.0
H601 H 0.53357 0.15095 0.42868 0.0
H602 H 0.60327 0.12492 0.46212 0.0
H603 H 0.68977 0.30701 0.46365 0.0
H604 H 0.69359 0.34323 0.49705 0.0
H605 H 0.63813 0.35081 0.47295 0.0
H606 H 0.57572 0.33091 0.5158 0.0
H607 H 0.6302 0.32067 0.54036 0.0
H608 H 0.58177 0.27198 0.53525 0.0
H609 H 0.67632 0.11433 0.49447 0.0
H610 H 0.75498 0.11914 0.52472 0.0
H611 H 0.73289 0.28068 0.53554 0.0
C612 C 0.56161 0.26676 0.45874 0.0
C613 C 0.5367 0.23072 0.4403 0.0
C614 C 0.55199 0.17947 0.44226 0.0
C615 C 0.59148 0.16409 0.46139 0.0
C616 C 0.61578 0.20021 0.47879 0.0
C617 C 0.60184 0.25046 0.47792 0.0
C618 C 0.63698 0.28093 0.49858 0.0
C619 C 0.66637 0.32298 0.48205 0.0
C620 C 0.60419 0.30245 0.52399 0.0
C621 C 0.67467 0.2402 0.50951 0.0
C622 C 0.66009 0.19393 0.4981 0.0
C623 C 0.68816 0.15023 0.50365 0.0
C624 C 0.73322 0.15359 0.52078 0.0
C625 C 0.7509 0.20041 0.53222 0.0
C626 C 0.72041 0.2444 0.52714 0.0
H627 H 0.93586 0.19952 0.953 0.0
H628 H 0.01616 0.3245 0.99456 0.0
H629 H 0.94973 0.3236 0.03479 0.0
H630 H 0.80988 0.24191 0.96474 0.0
H631 H 0.78102 0.18064 0.97105 0.0
H632 H 0.83918 0.18638 0.94882 0.0
H633 H 0.88787 0.123 0.98231 0.0
H634 H 0.82963 0.11677 0.00469 0.0
H635 H 0.89132 0.13463 0.02118 0.0
H636 H 0.87044 0.31179 0.06842 0.0
H637 H 0.78116 0.29891 0.08865 0.0
H638 H 0.75079 0.18475 0.02281 0.0
C639 C 0.94001 0.22585 0.97102 0.0
C640 C 0.98118 0.26152 0.97124 0.0
C641 C 0.98503 0.29651 0.99447 0.0
C642 C 0.94769 0.296 0.01736 0.0
C643 C 0.90713 0.2602 0.0165 0.0
C644 C 0.90309 0.22596 0.99375 0.0
C645 C 0.85322 0.19485 0.99602 0.0
C646 C 0.8188 0.20139 0.96854 0.0
C647 C 0.86629 0.139 0.00137 0.0
C648 C 0.82821 0.21841 0.02287 0.0
C649 C 0.8607 0.25483 0.03498 0.0
C650 C 0.84509 0.28294 0.05932 0.0
C651 C 0.79439 0.27499 0.07086 0.0
C652 C 0.75931 0.24024 0.05756 0.0
C653 C 0.77713 0.2108 0.03374 0.0
H654 H 0.02482 0.20832 0.52411 0.0
H655 H 0.05755 0.33916 0.57816 0.0
H656 H 0.13604 0.35717 0.54874 0.0
H657 H 0.16543 0.17262 0.51454 0.0
H658 H 0.15524 0.15087 0.47751 0.0
H659 H 0.10252 0.14767 0.50392 0.0
H660 H 0.0433 0.19903 0.46816 0.0
H661 H 0.09707 0.20232 0.44246 0.0
H662 H 0.06628 0.25946 0.45527 0.0
H663 H 0.21124 0.361 0.51567 0.0
H664 H 0.27468 0.35801 0.4753 0.0
H665 H 0.19631 0.22571 0.43984 0.0
C666 C 0.04877 0.24014 0.52995 0.0
C667 C 0.03502 0.27139 0.55399 0.0
C668 C 0.067 0.314 0.56021 0.0
C669 C 0.11207 0.32454 0.54368 0.0
C670 C 0.12525 0.29217 0.52086 0.0
C671 C 0.09458 0.25108 0.51362 0.0
C672 C 0.11805 0.22338 0.48735 0.0
C673 C 0.13645 0.17048 0.49634 0.0
C674 C 0.07883 0.22093 0.46179 0.0
C675 C 0.16503 0.25699 0.48019 0.0
C676 C 0.16881 0.29543 0.50057 0.0
C677 C 0.20857 0.33128 0.49948 0.0
C678 C 0.2445 0.3291 0.4764 0.0
C679 C 0.24041 0.29194 0.45412 0.0
C680 C 0.20079 0.25442 0.45644 0.0
H681 H 0.39632 0.25629 0.07597 0.0
H682 H 0.51855 0.2218 0.01257 0.0
H683 H 0.45118 0.21929 0.97316 0.0
H684 H 0.29687 0.17841 0.04802 0.0
H685 H 0.2447 0.2226 0.05547 0.0
H686 H 0.30317 0.22311 0.0776 0.0
H687 H 0.3171 0.31786 0.06556 0.0
H688 H 0.25886 0.31756 0.04308 0.0
H689 H 0.32092 0.33776 0.02783 0.0
H690 H 0.36797 0.21793 0.94127 0.0
H691 H 0.27823 0.21354 0.9206 0.0
H692 H 0.21287 0.25055 0.00586 0.0
C693 C 0.40913 0.24795 0.05383 0.0
C694 C 0.46257 0.23865 0.04734 0.0
C695 C 0.4777 0.22882 0.018 0.0
C696 C 0.43976 0.22755 0.99552 0.0
C697 C 0.38725 0.23714 0.0028 0.0
C698 C 0.37221 0.24731 0.0313 0.0
C699 C 0.31362 0.2559 0.03381 0.0
C700 C 0.28811 0.21771 0.05496 0.0
C701 C 0.30195 0.31051 0.04312 0.0
C702 C 0.29722 0.24672 0.00247 0.0
C703 C 0.3402 0.23688 0.9847 0.0
C704 C 0.33422 0.22599 0.95499 0.0
C705 C 0.28303 0.22385 0.94342 0.0
C706 C 0.23847 0.23182 0.96165 0.0
C707 C 0.24606 0.24451 0.99135 0.0
H708 H 0.4835 0.68144 0.51437 0.0
H709 H 0.394 0.70242 0.59458 0.0
H710 H 0.31181 0.70227 0.56656 0.0
H711 H 0.41559 0.76185 0.47184 0.0
H712 H 0.41545 0.72506 0.43858 0.0
H713 H 0.46643 0.71583 0.46522 0.0
H714 H 0.44327 0.62063 0.46804 0.0
H715 H 0.39193 0.62964 0.44127 0.0
H716 H 0.37675 0.60162 0.4763 0.0
H717 H 0.24059 0.71433 0.52988 0.0
H718 H 0.18768 0.74017 0.487 0.0
H719 H 0.32115 0.71142 0.4302 0.0
C720 C 0.44647 0.68394 0.52606 0.0
C721 C 0.44548 0.69178 0.55668 0.0
C722 C 0.39608 0.69625 0.57112 0.0
C723 C 0.34886 0.69596 0.55541 0.0
C724 C 0.35108 0.69018 0.52515 0.0
C725 C 0.3985 0.68357 0.51059 0.0
C726 C 0.39006 0.68337 0.47769 0.0
C727 C 0.42385 0.72397 0.46246 0.0
C728 C 0.40118 0.63069 0.46507 0.0
C729 C 0.33169 0.69544 0.47612 0.0
C730 C 0.30949 0.69729 0.50376 0.0
C731 C 0.25712 0.71161 0.50805 0.0
C732 C 0.22713 0.7259 0.48355 0.0
C733 C 0.25002 0.72691 0.45528 0.0
C734 C 0.3024 0.70994 0.45153 0.0
H735 H 0.03863 0.80055 0.02389 0.0
H736 H 0.09299 0.69613 0.09074 0.0
H737 H 0.16846 0.6742 0.06022 0.0
H738 H 0.07694 0.72607 0.96126 0.0
H739 H 0.09675 0.78044 0.94019 0.0
H740 H 0.04718 0.78624 0.96839 0.0
H741 H 0.10779 0.85734 0.9939 0.0
H742 H 0.15275 0.84904 0.96353 0.0
H743 H 0.17542 0.84236 0.00077 0.0
H744 H 0.2308 0.65529 0.02202 0.0
H745 H 0.28527 0.64585 0.97827 0.0
H746 H 0.20171 0.76809 0.93567 0.0
C747 C 0.06692 0.77383 0.03222 0.0
C748 C 0.05942 0.75016 0.05979 0.0
C749 C 0.09719 0.71475 0.06972 0.0
C750 C 0.14054 0.70197 0.05257 0.0
C751 C 0.14636 0.72523 0.02551 0.0
C752 C 0.11136 0.76079 0.01534 0.0
C753 C 0.12774 0.779 0.98498 0.0
C754 C 0.08461 0.76733 0.96235 0.0
C755 C 0.14178 0.83531 0.98575 0.0
C756 C 0.1765 0.74717 0.97961 0.0
C757 C 0.18584 0.7164 0.0035 0.0
C758 C 0.22522 0.68038 0.00357 0.0
C759 C 0.25641 0.67574 0.97866 0.0
C760 C 0.24955 0.7079 0.95417 0.0
C761 C 0.20892 0.74426 0.95451 0.0
H762 H 0.97902 0.79665 0.47638 0.0
H763 H 0.9408 0.66195 0.42626 0.0
H764 H 0.85982 0.65126 0.45478 0.0
H765 H 0.93489 0.7496 0.54622 0.0
H766 H 0.90712 0.80861 0.5583 0.0
H767 H 0.96126 0.80848 0.53276 0.0
H768 H 0.90632 0.86208 0.49666 0.0
H769 H 0.85159 0.86174 0.52192 0.0
H770 H 0.84283 0.83948 0.48493 0.0
H771 H 0.77802 0.66092 0.48326 0.0
H772 H 0.71169 0.67394 0.52164 0.0
H773 H 0.80829 0.78897 0.56176 0.0
C774 C 0.95383 0.76467 0.47166 0.0
C775 C 0.96624 0.73052 0.44876 0.0
C776 C 0.93224 0.68903 0.44338 0.0
C777 C 0.88574 0.68275 0.45931 0.0
C778 C 0.87378 0.71781 0.48093 0.0
C779 C 0.90728 0.75708 0.48788 0.0
C780 C 0.8855 0.78723 0.51359 0.0
C781 C 0.92453 0.7885 0.53925 0.0
C782 C 0.87072 0.84082 0.50369 0.0
C783 C 0.83635 0.75674 0.52089 0.0
C784 C 0.82922 0.71882 0.50051 0.0
C785 C 0.78438 0.68882 0.50022 0.0
C786 C 0.74729 0.69562 0.52246 0.0
C787 C 0.75669 0.72923 0.54584 0.0
C788 C 0.80091 0.76178 0.54454 0.0
H789 H 0.7261 0.8617 0.02303 0.0
H790 H 0.76792 0.71634 0.05968 0.0
H791 H 0.70335 0.67507 0.02694 0.0
H792 H 0.58991 0.84126 0.01294 0.0
H793 H 0.5882 0.87477 0.97856 0.0
H794 H 0.63614 0.89153 0.00586 0.0
H795 H 0.71103 0.87782 0.96791 0.0
H796 H 0.66326 0.86071 0.94054 0.0
H797 H 0.71611 0.8181 0.94926 0.0
H798 H 0.63164 0.65101 0.98922 0.0
H799 H 0.56297 0.64704 0.95064 0.0
H800 H 0.57446 0.80867 0.93874 0.0
C801 C 0.72159 0.82118 0.02473 0.0
C802 C 0.75146 0.79239 0.04478 0.0
C803 C 0.74475 0.73936 0.04525 0.0
C804 C 0.7084 0.71561 0.02647 0.0
C805 C 0.67996 0.74549 0.00692 0.0
C806 C 0.68674 0.79713 0.00588 0.0
C807 C 0.65344 0.82128 0.98243 0.0
C808 C 0.61462 0.85943 0.99576 0.0
C809 C 0.68804 0.84591 0.95864 0.0
C810 C 0.62546 0.77537 0.97078 0.0
C811 C 0.6411 0.73181 0.98499 0.0
C812 C 0.61923 0.68498 0.97807 0.0
C813 C 0.57996 0.68306 0.95642 0.0
C814 C 0.56308 0.72758 0.94217 0.0
C815 C 0.58692 0.77397 0.94914 0.0
loop_
_geom_bond_atom_site_label_1
_geom_bond_atom_site_label_2
_geom_bond_distance
_geom_bond_site_symmetry_2
_ccdc_geom_bond_type
Zn0 O6 1.920 . S
Zn0 O12 1.898 . S
Zn0 O15 1.905 . S
Zn1 O9 1.905 . S
Zn1 O10 1.898 . S
Zn1 O18 1.920 . S
Zn2 O5 2.080 . S
Zn2 O8 2.114 . S
Zn2 O11 2.120 . S
Zn2 O13 2.120 . S
Zn2 O14 2.114 . S
Zn2 O17 2.080 . S
C3 O8 1.166 . S
C3 O9 1.182 . S
C4 O10 1.167 . S
C4 O11 1.299 . S
O5 Zn2 2.080 . S
O5 C19 1.305 . S
O6 Zn0 1.920 . S
O6 C19 1.234 . S
C7 O12 1.167 . S
C7 O13 1.299 . S
O8 Zn2 2.114 . S
O8 C3 1.166 . S
O9 Zn1 1.905 . S
O9 C3 1.182 . S
O10 Zn1 1.898 . S
O10 C4 1.167 . S
O11 Zn2 2.120 . S
O11 C4 1.299 . S
O12 Zn0 1.898 . S
O12 C7 1.167 . S
O13 Zn2 2.120 . S
O13 C7 1.299 . S
O14 Zn2 2.114 . S
O14 C16 1.166 . S
O15 Zn0 1.905 . S
O15 C16 1.182 . S
C16 O14 1.166 . S
C16 O15 1.182 . S
O17 Zn2 2.080 . S
O17 C20 1.305 . S
O18 Zn1 1.920 . S
O18 C20 1.234 . S
C19 O5 1.305 . S
C19 O6 1.234 . S
C20 O17 1.305 . S
C20 O18 1.234 . S
Zn21 O27 1.920 . S
Zn21 O33 1.898 . S
Zn21 O36 1.905 . S
Zn22 O30 1.905 . S
Zn22 O31 1.898 . S
Zn22 O39 1.920 . S
Zn23 O26 2.080 . S
Zn23 O29 2.114 . S
Zn23 O32 2.120 . S
Zn23 O34 2.120 . S
Zn23 O35 2.114 . S
Zn23 O38 2.080 . S
C24 O29 1.166 . S
C24 O30 1.182 . S
C25 O31 1.167 . S
C25 O32 1.299 . S
O26 Zn23 2.080 . S
O26 C40 1.305 . S
O27 Zn21 1.920 . S
O27 C40 1.234 . S
C28 O33 1.167 . S
C28 O34 1.299 . S
O29 Zn23 2.114 . S
O29 C24 1.166 . S
O30 Zn22 1.905 . S
O30 C24 1.182 . S
O31 Zn22 1.898 . S
O31 C25 1.167 . S
O32 Zn23 2.120 . S
O32 C25 1.299 . S
O33 Zn21 1.898 . S
O33 C28 1.167 . S
O34 Zn23 2.120 . S
O34 C28 1.299 . S
O35 Zn23 2.114 . S
O35 C37 1.166 . S
O36 Zn21 1.905 . S
O36 C37 1.182 . S
C37 O35 1.166 . S
C37 O36 1.182 . S
O38 Zn23 2.080 . S
O38 C41 1.305 . S
O39 Zn22 1.920 . S
O39 C41 1.234 . S
C40 O26 1.305 . S
C40 O27 1.234 . S
C41 O38 1.305 . S
C41 O39 1.234 . S
Zn42 O48 1.920 . S
Zn42 O54 1.898 . S
Zn42 O57 1.905 . S
Zn43 O51 1.905 . S
Zn43 O52 1.898 . S
Zn43 O60 1.920 . S
Zn44 O47 2.080 . S
Zn44 O50 2.114 . S
Zn44 O53 2.120 . S
Zn44 O55 2.120 . S
Zn44 O56 2.114 . S
Zn44 O59 2.080 . S
C45 O50 1.166 . S
C45 O51 1.182 . S
C46 O52 1.167 . S
C46 O53 1.299 . S
O47 Zn44 2.080 . S
O47 C61 1.305 . S
O48 Zn42 1.920 . S
O48 C61 1.234 . S
C49 O54 1.167 . S
C49 O55 1.299 . S
O50 Zn44 2.114 . S
O50 C45 1.166 . S
O51 Zn43 1.905 . S
O51 C45 1.182 . S
O52 Zn43 1.898 . S
O52 C46 1.167 . S
O53 Zn44 2.120 . S
O53 C46 1.299 . S
O54 Zn42 1.898 . S
O54 C49 1.167 . S
O55 Zn44 2.120 . S
O55 C49 1.299 . S
O56 Zn44 2.114 . S
O56 C58 1.166 . S
O57 Zn42 1.905 . S
O57 C58 1.182 . S
C58 O56 1.166 . S
C58 O57 1.182 . S
O59 Zn44 2.080 . S
O59 C62 1.305 . S
O60 Zn43 1.920 . S
O60 C62 1.234 . S
C61 O47 1.305 . S
C61 O48 1.234 . S
C62 O59 1.305 . S
C62 O60 1.234 . S
Zn63 O69 1.920 . S
Zn63 O75 1.898 . S
Zn63 O78 1.905 . S
Zn64 O72 1.905 . S
Zn64 O73 1.898 . S
Zn64 O81 1.920 . S
Zn65 O68 2.080 . S
Zn65 O71 2.114 . S
Zn65 O74 2.120 . S
Zn65 O76 2.120 . S
Zn65 O77 2.114 . S
Zn65 O80 2.080 . S
C66 O71 1.166 . S
C66 O72 1.182 . S
C67 O73 1.167 . S
C67 O74 1.299 . S
O68 Zn65 2.080 . S
O68 C82 1.305 . S
O69 Zn63 1.920 . S
O69 C82 1.234 . S
C70 O75 1.167 . S
C70 O76 1.299 . S
O71 Zn65 2.114 . S
O71 C66 1.166 . S
O72 Zn64 1.905 . S
O72 C66 1.182 . S
O73 Zn64 1.898 . S
O73 C67 1.167 . S
O74 Zn65 2.120 . S
O74 C67 1.299 . S
O75 Zn63 1.898 . S
O75 C70 1.167 . S
O76 Zn65 2.120 . S
O76 C70 1.299 . S
O77 Zn65 2.114 . S
O77 C79 1.166 . S
O78 Zn63 1.905 . S
O78 C79 1.182 . S
C79 O77 1.166 . S
C79 O78 1.182 . S
O80 Zn65 2.080 . S
O80 C83 1.305 . S
O81 Zn64 1.920 . S
O81 C83 1.234 . S
C82 O68 1.305 . S
C82 O69 1.234 . S
C83 O80 1.305 . S
C83 O81 1.234 . S
Zn84 O90 1.920 . S
Zn84 O96 1.898 . S
Zn84 O99 1.905 . S
Zn85 O93 1.905 . S
Zn85 O94 1.898 . S
Zn85 O102 1.920 . S
Zn86 O89 2.080 . S
Zn86 O92 2.114 . S
Zn86 O95 2.120 . S
Zn86 O97 2.120 . S
Zn86 O98 2.114 . S
Zn86 O101 2.080 . S
C87 O92 1.166 . S
C87 O93 1.182 . S
C88 O94 1.167 . S
C88 O95 1.299 . S
O89 Zn86 2.080 . S
O89 C103 1.305 . S
O90 Zn84 1.920 . S
O90 C103 1.234 . S
C91 O96 1.167 . S
C91 O97 1.299 . S
O92 Zn86 2.114 . S
O92 C87 1.166 . S
O93 Zn85 1.905 . S
O93 C87 1.182 . S
O94 Zn85 1.898 . S
O94 C88 1.167 . S
O95 Zn86 2.120 . S
O95 C88 1.299 . S
O96 Zn84 1.898 . S
O96 C91 1.167 . S
O97 Zn86 2.120 . S
O97 C91 1.299 . S
O98 Zn86 2.114 . S
O98 C100 1.166 . S
O99 Zn84 1.905 . S
O99 C100 1.182 . S
C100 O98 1.166 . S
C100 O99 1.182 . S
O101 Zn86 2.080 . S
O101 C104 1.305 . S
O102 Zn85 1.920 . S
O102 C104 1.234 . S
C103 O89 1.305 . S
C103 O90 1.234 . S
C104 O101 1.305 . S
C104 O102 1.234 . S
Zn105 O111 1.920 . S
Zn105 O117 1.898 . S
Zn105 O120 1.905 . S
Zn106 O114 1.905 . S
Zn106 O115 1.898 . S
Zn106 O123 1.920 . S
Zn107 O110 2.080 . S
Zn107 O113 2.114 . S
Zn107 O116 2.120 . S
Zn107 O118 2.120 . S
Zn107 O119 2.114 . S
Zn107 O122 2.080 . S
C108 O113 1.166 . S
C108 O114 1.182 . S
C109 O115 1.167 . S
C109 O116 1.299 . S
O110 Zn107 2.080 . S
O110 C124 1.305 . S
O111 Zn105 1.920 . S
O111 C124 1.234 . S
C112 O117 1.167 . S
C112 O118 1.299 . S
O113 Zn107 2.114 . S
O113 C108 1.166 . S
O114 Zn106 1.905 . S
O114 C108 1.182 . S
O115 Zn106 1.898 . S
O115 C109 1.167 . S
O116 Zn107 2.120 . S
O116 C109 1.299 . S
O117 Zn105 1.898 . S
O117 C112 1.167 . S
O118 Zn107 2.120 . S
O118 C112 1.299 . S
O119 Zn107 2.114 . S
O119 C121 1.166 . S
O120 Zn105 1.905 . S
O120 C121 1.182 . S
C121 O119 1.166 . S
C121 O120 1.182 . S
O122 Zn107 2.080 . S
O122 C125 1.305 . S
O123 Zn106 1.920 . S
O123 C125 1.234 . S
C124 O110 1.305 . S
C124 O111 1.234 . S
C125 O122 1.305 . S
C125 O123 1.234 . S
Zn126 O132 1.920 . S
Zn126 O138 1.898 . S
Zn126 O141 1.905 . S
Zn127 O135 1.905 . S
Zn127 O136 1.898 . S
Zn127 O144 1.920 . S
Zn128 O131 2.080 . S
Zn128 O134 2.114 . S
Zn128 O137 2.120 . S
Zn128 O139 2.120 . S
Zn128 O140 2.114 . S
Zn128 O143 2.080 . S
C129 O134 1.166 . S
C129 O135 1.182 . S
C130 O136 1.167 . S
C130 O137 1.299 . S
O131 Zn128 2.080 . S
O131 C145 1.305 . S
O132 Zn126 1.920 . S
O132 C145 1.234 . S
C133 O138 1.167 . S
C133 O139 1.299 . S
O134 Zn128 2.114 . S
O134 C129 1.166 . S
O135 Zn127 1.905 . S
O135 C129 1.182 . S
O136 Zn127 1.898 . S
O136 C130 1.167 . S
O137 Zn128 2.120 . S
O137 C130 1.299 . S
O138 Zn126 1.898 . S
O138 C133 1.167 . S
O139 Zn128 2.120 . S
O139 C133 1.299 . S
O140 Zn128 2.114 . S
O140 C142 1.166 . S
O141 Zn126 1.905 . S
O141 C142 1.182 . S
C142 O140 1.166 . S
C142 O141 1.182 . S
O143 Zn128 2.080 . S
O143 C146 1.305 . S
O144 Zn127 1.920 . S
O144 C146 1.234 . S
C145 O131 1.305 . S
C145 O132 1.234 . S
C146 O143 1.305 . S
C146 O144 1.234 . S
Zn147 O153 1.920 . S
Zn147 O159 1.898 . S
Zn147 O162 1.905 . S
Zn148 O156 1.905 . S
Zn148 O157 1.898 . S
Zn148 O165 1.920 . S
Zn149 O152 2.080 . S
Zn149 O155 2.114 . S
Zn149 O158 2.120 . S
Zn149 O160 2.120 . S
Zn149 O161 2.114 . S
Zn149 O164 2.080 . S
C150 O155 1.166 . S
C150 O156 1.182 . S
C151 O157 1.167 . S
C151 O158 1.299 . S
O152 Zn149 2.080 . S
O152 C166 1.305 . S
O153 Zn147 1.920 . S
O153 C166 1.234 . S
C154 O159 1.167 . S
C154 O160 1.299 . S
O155 Zn149 2.114 . S
O155 C150 1.166 . S
O156 Zn148 1.905 . S
O156 C150 1.182 . S
O157 Zn148 1.898 . S
O157 C151 1.167 . S
O158 Zn149 2.120 . S
O158 C151 1.299 . S
O159 Zn147 1.898 . S
O159 C154 1.167 . S
O160 Zn149 2.120 . S
O160 C154 1.299 . S
O161 Zn149 2.114 . S
O161 C163 1.166 . S
O162 Zn147 1.905 . S
O162 C163 1.182 . S
C163 O161 1.166 . S
C163 O162 1.182 . S
O164 Zn149 2.080 . S
O164 C167 1.305 . S
O165 Zn148 1.920 . S
O165 C167 1.234 . S
C166 O152 1.305 . S
C166 O153 1.234 . S
C167 O164 1.305 . S
C167 O165 1.234 . S
H168 C180 0.930 . S
H169 C182 0.930 . S
H170 C183 0.930 . S
H171 C187 0.959 . S
H172 C187 0.959 . S
H173 C187 0.961 . S
H174 C188 0.960 . S
H175 C188 0.961 . S
H176 C188 0.959 . S
H177 C191 0.929 . S
H178 C192 0.931 . S
H179 C194 0.930 . S
C180 H168 0.930 . S
C180 C181 1.399 . S
C180 C185 1.399 1_565 S
C181 C180 1.399 . S
C181 C182 1.376 . S
C182 H169 0.930 . S
C182 C181 1.376 . S
C182 C183 1.388 1_565 S
C183 H170 0.930 . S
C183 C182 1.388 1_545 S
C183 C184 1.390 . S
C184 C183 1.390 . S
C184 C185 1.394 . S
C184 C190 1.465 . S
C185 C180 1.399 1_545 S
C185 C184 1.394 . S
C185 C186 1.516 . S
C186 C185 1.516 . S
C186 C187 1.502 . S
C186 C188 1.561 . S
C186 C189 1.526 . S
C187 H171 0.959 . S
C187 H172 0.959 . S
C187 H173 0.961 . S
C187 C186 1.502 . S
C188 H174 0.960 . S
C188 H175 0.961 . S
C188 H176 0.959 . S
C188 C186 1.561 . S
C189 C186 1.526 . S
C189 C190 1.396 . S
C189 C194 1.390 . S
C190 C184 1.465 . S
C190 C189 1.396 . S
C190 C191 1.399 . S
C191 H177 0.929 . S
C191 C190 1.399 . S
C191 C192 1.385 . S
C192 H178 0.931 . S
C192 C191 1.385 . S
C192 C193 1.389 . S
C193 C192 1.389 . S
C193 C194 1.387 . S
C194 H179 0.930 . S
C194 C189 1.390 . S
C194 C193 1.387 . S
H195 C207 0.930 . S
H196 C209 0.930 . S
H197 C210 0.930 . S
H198 C214 0.959 . S
H199 C214 0.959 . S
H200 C214 0.961 . S
H201 C215 0.960 . S
H202 C215 0.961 . S
H203 C215 0.959 . S
H204 C218 0.929 . S
H205 C219 0.931 . S
H206 C221 0.930 . S
C207 H195 0.930 . S
C207 C208 1.399 . S
C207 C212 1.399 . S
C208 C207 1.399 . S
C208 C209 1.376 . S
C209 H196 0.930 . S
C209 C208 1.376 . S
C209 C210 1.388 . S
C210 H197 0.930 . S
C210 C209 1.388 . S
C210 C211 1.390 . S
C211 C210 1.390 . S
C211 C212 1.394 . S
C211 C217 1.465 . S
C212 C207 1.399 . S
C212 C211 1.394 . S
C212 C213 1.516 . S
C213 C212 1.516 . S
C213 C214 1.502 . S
C213 C215 1.561 . S
C213 C216 1.526 . S
C214 H198 0.959 . S
C214 H199 0.959 . S
C214 H200 0.961 . S
C214 C213 1.502 . S
C215 H201 0.960 . S
C215 H202 0.961 . S
C215 H203 0.959 . S
C215 C213 1.561 . S
C216 C213 1.526 . S
C216 C217 1.396 . S
C216 C221 1.390 . S
C217 C211 1.465 . S
C217 C216 1.396 . S
C217 C218 1.399 . S
C218 H204 0.929 . S
C218 C217 1.399 . S
C218 C219 1.385 . S
C219 H205 0.931 . S
C219 C218 1.385 . S
C219 C220 1.389 . S
C220 C219 1.389 . S
C220 C221 1.387 . S
C221 H206 0.930 . S
C221 C216 1.390 . S
C221 C220 1.387 . S
H222 C234 0.930 . S
H223 C236 0.930 . S
H224 C237 0.930 . S
H225 C241 0.959 . S
H226 C241 0.959 . S
H227 C241 0.961 . S
H228 C242 0.960 . S
H229 C242 0.961 . S
H230 C242 0.959 . S
H231 C245 0.929 . S
H232 C246 0.931 . S
H233 C248 0.930 . S
C234 H222 0.930 . S
C234 C235 1.399 . S
C234 C239 1.399 . S
C235 C234 1.399 . S
C235 C236 1.376 . S
C236 H223 0.930 . S
C236 C235 1.376 . S
C236 C237 1.388 . S
C237 H224 0.930 . S
C237 C236 1.388 . S
C237 C238 1.390 . S
C238 C237 1.390 . S
C238 C239 1.394 . S
C238 C244 1.465 . S
C239 C234 1.399 . S
C239 C238 1.394 . S
C239 C240 1.516 . S
C240 C239 1.516 . S
C240 C241 1.502 . S
C240 C242 1.561 . S
C240 C243 1.526 . S
C241 H225 0.959 . S
C241 H226 0.959 . S
C241 H227 0.961 . S
C241 C240 1.502 . S
C242 H228 0.960 . S
C242 H229 0.961 . S
C242 H230 0.959 . S
C242 C240 1.561 . S
C243 C240 1.526 . S
C243 C244 1.396 . S
C243 C248 1.390 . S
C244 C238 1.465 . S
C244 C243 1.396 . S
C244 C245 1.399 . S
C245 H231 0.929 . S
C245 C244 1.399 . S
C245 C246 1.385 . S
C246 H232 0.931 . S
C246 C245 1.385 . S
C246 C247 1.389 . S
C247 C246 1.389 . S
C247 C248 1.387 . S
C248 H233 0.930 . S
C248 C243 1.390 . S
C248 C247 1.387 . S
H249 C261 0.930 . S
H250 C263 0.930 . S
H251 C264 0.930 . S
H252 C268 0.959 . S
H253 C268 0.959 . S
H254 C268 0.961 . S
H255 C269 0.960 . S
H256 C269 0.961 . S
H257 C269 0.959 . S
H258 C272 0.929 1_545 S
H259 C273 0.931 . S
H260 C275 0.930 . S
C261 H249 0.930 . S
C261 C262 1.399 . S
C261 C266 1.399 . S
C262 C261 1.399 . S
C262 C263 1.376 . S
C263 H250 0.930 . S
C263 C262 1.376 . S
C263 C264 1.388 . S
C264 H251 0.930 . S
C264 C263 1.388 . S
C264 C265 1.390 . S
C265 C264 1.390 . S
C265 C266 1.394 . S
C265 C271 1.465 . S
C266 C261 1.399 . S
C266 C265 1.394 . S
C266 C267 1.516 . S
C267 C266 1.516 . S
C267 C268 1.502 . S
C267 C269 1.561 . S
C267 C270 1.526 . S
C268 H252 0.959 . S
C268 H253 0.959 . S
C268 H254 0.961 . S
C268 C267 1.502 . S
C269 H255 0.960 . S
C269 H256 0.961 . S
C269 H257 0.959 . S
C269 C267 1.561 . S
C270 C267 1.526 . S
C270 C271 1.396 . S
C270 C275 1.390 1_545 S
C271 C265 1.465 . S
C271 C270 1.396 . S
C271 C272 1.393 1_545 S
C272 H258 0.929 1_565 S
C272 C271 1.393 1_565 S
C272 C273 1.392 . S
C273 H259 0.931 . S
C273 C272 1.392 . S
C273 C274 1.389 . S
C274 C273 1.389 . S
C274 C275 1.387 . S
C275 H260 0.930 . S
C275 C270 1.390 1_565 S
C275 C274 1.387 . S
H276 C288 0.930 . S
H277 C290 0.930 . S
H278 C291 0.930 . S
H279 C295 0.959 . S
H280 C295 0.959 . S
H281 C295 0.961 . S
H282 C296 0.960 . S
H283 C296 0.961 . S
H284 C296 0.959 . S
H285 C299 0.929 . S
H286 C300 0.931 . S
H287 C302 0.930 . S
C288 H276 0.930 . S
C288 C289 1.399 . S
C288 C293 1.399 1_545 S
C289 C288 1.399 . S
C289 C290 1.376 . S
C290 H277 0.930 . S
C290 C289 1.376 . S
C290 C291 1.388 1_545 S
C291 H278 0.930 . S
C291 C290 1.388 1_565 S
C291 C292 1.390 . S
C292 C291 1.390 . S
C292 C293 1.394 . S
C292 C298 1.465 . S
C293 C288 1.399 1_565 S
C293 C292 1.394 . S
C293 C294 1.516 . S
C294 C293 1.516 . S
C294 C295 1.502 . S
C294 C296 1.561 . S
C294 C297 1.526 . S
C295 H279 0.959 . S
C295 H280 0.959 . S
C295 H281 0.961 . S
C295 C294 1.502 . S
C296 H282 0.960 . S
C296 H283 0.961 . S
C296 H284 0.959 . S
C296 C294 1.561 . S
C297 C294 1.526 . S
C297 C298 1.396 . S
C297 C302 1.390 . S
C298 C292 1.465 . S
C298 C297 1.396 . S
C298 C299 1.399 . S
C299 H285 0.929 . S
C299 C298 1.399 . S
C299 C300 1.385 . S
C300 H286 0.931 . S
C300 C299 1.385 . S
C300 C301 1.389 . S
C301 C300 1.389 . S
C301 C302 1.387 . S
C302 H287 0.930 . S
C302 C297 1.390 . S
C302 C301 1.387 . S
H303 C315 0.930 . S
H304 C317 0.930 . S
H305 C318 0.930 . S
H306 C322 0.959 . S
H307 C322 0.959 . S
H308 C322 0.961 . S
H309 C323 0.960 . S
H310 C323 0.961 . S
H311 C323 0.959 . S
H312 C326 0.929 . S
H313 C327 0.931 . S
H314 C329 0.930 . S
C315 H303 0.930 . S
C315 C316 1.399 . S
C315 C320 1.399 . S
C316 C315 1.399 . S
C316 C317 1.376 . S
C317 H304 0.930 . S
C317 C316 1.376 . S
C317 C318 1.388 . S
C318 H305 0.930 . S
C318 C317 1.388 . S
C318 C319 1.390 . S
C319 C318 1.390 . S
C319 C320 1.394 . S
C319 C325 1.465 . S
C320 C315 1.399 . S
C320 C319 1.394 . S
C320 C321 1.516 . S
C321 C320 1.516 . S
C321 C322 1.502 . S
C321 C323 1.561 . S
C321 C324 1.526 . S
C322 H306 0.959 . S
C322 H307 0.959 . S
C322 H308 0.961 . S
C322 C321 1.502 . S
C323 H309 0.960 . S
C323 H310 0.961 . S
C323 H311 0.959 . S
C323 C321 1.561 . S
C324 C321 1.526 . S
C324 C325 1.396 . S
C324 C329 1.390 . S
C325 C319 1.465 . S
C325 C324 1.396 . S
C325 C326 1.399 . S
C326 H312 0.929 . S
C326 C325 1.399 . S
C326 C327 1.385 . S
C327 H313 0.931 . S
C327 C326 1.385 . S
C327 C328 1.389 . S
C328 C327 1.389 . S
C328 C329 1.387 . S
C329 H314 0.930 . S
C329 C324 1.390 . S
C329 C328 1.387 . S
H330 C342 0.930 . S
H331 C344 0.930 . S
H332 C345 0.930 . S
H333 C349 0.959 . S
H334 C349 0.959 . S
H335 C349 0.961 . S
H336 C350 0.960 . S
H337 C350 0.961 . S
H338 C350 0.959 . S
H339 C353 0.929 . S
H340 C354 0.931 . S
H341 C356 0.930 . S
C342 H330 0.930 . S
C342 C343 1.399 . S
C342 C347 1.399 . S
C343 C342 1.399 . S
C343 C344 1.376 . S
C344 H331 0.930 . S
C344 C343 1.376 . S
C344 C345 1.388 . S
C345 H332 0.930 . S
C345 C344 1.388 . S
C345 C346 1.390 . S
C346 C345 1.390 . S
C346 C347 1.394 . S
C346 C352 1.465 . S
C347 C342 1.399 . S
C347 C346 1.394 . S
C347 C348 1.516 . S
C348 C347 1.516 . S
C348 C349 1.502 . S
C348 C350 1.561 . S
C348 C351 1.526 . S
C349 H333 0.959 . S
C349 H334 0.959 . S
C349 H335 0.961 . S
C349 C348 1.502 . S
C350 H336 0.960 . S
C350 H337 0.961 . S
C350 H338 0.959 . S
C350 C348 1.561 . S
C351 C348 1.526 . S
C351 C352 1.396 . S
C351 C356 1.390 . S
C352 C346 1.465 . S
C352 C351 1.396 . S
C352 C353 1.399 . S
C353 H339 0.929 . S
C353 C352 1.399 . S
C353 C354 1.385 . S
C354 H340 0.931 . S
C354 C353 1.385 . S
C354 C355 1.389 . S
C355 C354 1.389 . S
C355 C356 1.387 . S
C356 H341 0.930 . S
C356 C351 1.390 . S
C356 C355 1.387 . S
H357 C369 0.930 . S
H358 C371 0.930 . S
H359 C372 0.930 . S
H360 C376 0.959 . S
H361 C376 0.959 . S
H362 C376 0.961 . S
H363 C377 0.960 . S
H364 C377 0.961 . S
H365 C377 0.959 . S
H366 C380 0.929 . S
H367 C381 0.931 . S
H368 C383 0.930 . S
C369 H357 0.930 . S
C369 C370 1.399 . S
C369 C374 1.399 1_545 S
C370 C369 1.399 . S
C370 C371 1.376 . S
C371 H358 0.930 . S
C371 C370 1.376 . S
C371 C372 1.388 1_545 S
C372 H359 0.930 . S
C372 C371 1.388 1_565 S
C372 C373 1.390 . S
C373 C372 1.390 . S
C373 C374 1.394 . S
C373 C379 1.465 . S
C374 C369 1.399 1_565 S
C374 C373 1.394 . S
C374 C375 1.516 . S
C375 C374 1.516 . S
C375 C376 1.502 . S
C375 C377 1.561 . S
C375 C378 1.526 . S
C376 H360 0.959 . S
C376 H361 0.959 . S
C376 H362 0.961 . S
C376 C375 1.502 . S
C377 H363 0.960 . S
C377 H364 0.961 . S
C377 H365 0.959 . S
C377 C375 1.561 . S
C378 C375 1.526 . S
C378 C379 1.396 . S
C378 C383 1.390 . S
C379 C373 1.465 . S
C379 C378 1.396 . S
C379 C380 1.399 . S
C380 H366 0.929 . S
C380 C379 1.399 . S
C380 C381 1.385 . S
C381 H367 0.931 . S
C381 C380 1.385 . S
C381 C382 1.389 . S
C382 C381 1.389 . S
C382 C383 1.387 . S
C383 H368 0.930 . S
C383 C378 1.390 . S
C383 C382 1.387 . S
H384 C396 0.930 . S
H385 C398 0.930 . S
H386 C399 0.930 . S
H387 C403 0.959 . S
H388 C403 0.959 . S
H389 C403 0.961 . S
H390 C404 0.960 . S
H391 C404 0.961 . S
H392 C404 0.959 . S
H393 C407 0.929 . S
H394 C408 0.931 . S
H395 C410 0.930 . S
C396 H384 0.930 . S
C396 C397 1.399 . S
C396 C401 1.399 . S
C397 C396 1.399 . S
C397 C398 1.376 . S
C398 H385 0.930 . S
C398 C397 1.376 . S
C398 C399 1.388 . S
C399 H386 0.930 . S
C399 C398 1.388 . S
C399 C400 1.390 . S
C400 C399 1.390 . S
C400 C401 1.394 . S
C400 C406 1.465 . S
C401 C396 1.399 . S
C401 C400 1.394 . S
C401 C402 1.516 . S
C402 C401 1.516 . S
C402 C403 1.502 . S
C402 C404 1.561 . S
C402 C405 1.526 . S
C403 H387 0.959 . S
C403 H388 0.959 . S
C403 H389 0.961 . S
C403 C402 1.502 . S
C404 H390 0.960 . S
C404 H391 0.961 . S
C404 H392 0.959 . S
C404 C402 1.561 . S
C405 C402 1.526 . S
C405 C406 1.396 . S
C405 C410 1.390 . S
C406 C400 1.465 . S
C406 C405 1.396 . S
C406 C407 1.399 . S
C407 H393 0.929 . S
C407 C406 1.399 . S
C407 C408 1.385 . S
C408 H394 0.931 . S
C408 C407 1.385 . S
C408 C409 1.389 . S
C409 C408 1.389 . S
C409 C410 1.387 . S
C410 H395 0.930 . S
C410 C405 1.390 . S
C410 C409 1.387 . S
H411 C423 0.930 1_455 S
H412 C425 0.930 . S
H413 C426 0.930 1_545 S
H414 C430 0.959 . S
H415 C430 0.959 1_556 S
H416 C430 0.961 . S
H417 C431 0.960 . S
H418 C431 0.961 . S
H419 C431 0.959 . S
H420 C434 0.929 . S
H421 C435 0.924 1_655 S
H422 C437 0.930 . S
C423 H411 0.930 1_655 S
C423 C424 1.399 . S
C423 C428 1.400 . S
C424 C423 1.399 . S
C424 C425 1.376 . S
C425 H412 0.930 . S
C425 C424 1.376 . S
C425 C426 1.388 . S
C426 H413 0.930 1_565 S
C426 C425 1.388 . S
C426 C427 1.390 . S
C427 C426 1.390 . S
C427 C428 1.397 . S
C427 C433 1.465 1_564 S
C428 C423 1.400 . S
C428 C427 1.397 . S
C428 C429 1.513 1_654 S
C429 C428 1.513 1_456 S
C429 C430 1.502 1_556 S
C429 C431 1.561 . S
C429 C432 1.526 1_565 S
C430 H414 0.959 . S
C430 H415 0.959 1_554 S
C430 H416 0.961 . S
C430 C429 1.502 1_554 S
C431 H417 0.960 . S
C431 H418 0.961 . S
C431 H419 0.959 . S
C431 C429 1.561 . S
C432 C429 1.526 1_545 S
C432 C433 1.396 1_455 S
C432 C437 1.390 . S
C433 C427 1.465 1_546 S
C433 C432 1.396 1_655 S
C433 C434 1.399 . S
C434 H420 0.929 . S
C434 C433 1.399 . S
C434 C435 1.372 1_655 S
C435 H421 0.924 1_455 S
C435 C434 1.372 1_455 S
C435 C436 1.409 . S
C436 C435 1.409 . S
C436 C437 1.387 . S
C437 H422 0.930 . S
C437 C432 1.390 . S
C437 C436 1.387 . S
H438 C450 0.930 1_455 S
H439 C452 0.930 . S
H440 C453 0.930 . S
H441 C457 0.959 . S
H442 C457 0.959 1_565 S
H443 C457 0.961 . S
H444 C458 0.960 . S
H445 C458 0.961 . S
H446 C458 0.959 . S
H447 C461 0.929 . S
H448 C462 0.929 1_655 S
H449 C464 0.930 . S
C450 H438 0.930 1_655 S
C450 C451 1.399 . S
C450 C455 1.399 1_655 S
C451 C450 1.399 . S
C451 C452 1.376 . S
C452 H439 0.930 . S
C452 C451 1.376 . S
C452 C453 1.388 . S
C453 H440 0.930 . S
C453 C452 1.388 . S
C453 C454 1.390 . S
C454 C453 1.390 . S
C454 C455 1.392 1_655 S
C454 C460 1.465 1_545 S
C455 C450 1.399 1_455 S
C455 C454 1.392 1_455 S
C455 C456 1.518 1_545 S
C456 C455 1.518 1_565 S
C456 C457 1.502 1_565 S
C456 C458 1.561 . S
C456 C459 1.526 . S
C457 H441 0.959 . S
C457 H442 0.959 1_545 S
C457 H443 0.961 . S
C457 C456 1.502 1_545 S
C458 H444 0.960 . S
C458 H445 0.961 . S
C458 H446 0.959 . S
C458 C456 1.561 . S
C459 C456 1.526 . S
C459 C460 1.396 1_455 S
C459 C464 1.390 . S
C460 C454 1.465 1_565 S
C460 C459 1.396 1_655 S
C460 C461 1.399 . S
C461 H447 0.929 . S
C461 C460 1.399 . S
C461 C462 1.383 1_655 S
C462 H448 0.929 1_455 S
C462 C461 1.383 1_455 S
C462 C463 1.393 . S
C463 C462 1.393 . S
C463 C464 1.387 . S
C464 H449 0.930 . S
C464 C459 1.390 . S
C464 C463 1.387 . S
H465 C477 0.930 . S
H466 C479 0.930 . S
H467 C480 0.930 . S
H468 C484 0.959 . S
H469 C484 0.959 . S
H470 C484 0.961 . S
H471 C485 0.960 . S
H472 C485 0.961 . S
H473 C485 0.959 . S
H474 C488 0.929 . S
H475 C489 0.931 . S
H476 C491 0.930 . S
C477 H465 0.930 . S
C477 C478 1.399 . S
C477 C482 1.399 . S
C478 C477 1.399 . S
C478 C479 1.376 . S
C479 H466 0.930 . S
C479 C478 1.376 . S
C479 C480 1.388 1_556 S
C480 H467 0.930 . S
C480 C479 1.388 1_554 S
C480 C481 1.393 . S
C481 C480 1.393 . S
C481 C482 1.372 1_554 S
C481 C487 1.481 . S
C482 C477 1.399 . S
C482 C481 1.372 1_556 S
C482 C483 1.516 . S
C483 C482 1.516 . S
C483 C484 1.502 . S
C483 C485 1.561 . S
C483 C486 1.526 1_556 S
C484 H468 0.959 . S
C484 H469 0.959 . S
C484 H470 0.961 . S
C484 C483 1.502 . S
C485 H471 0.960 . S
C485 H472 0.961 . S
C485 H473 0.959 . S
C485 C483 1.561 . S
C486 C483 1.526 1_554 S
C486 C487 1.396 . S
C486 C491 1.390 . S
C487 C481 1.481 . S
C487 C486 1.396 . S
C487 C488 1.399 . S
C488 H474 0.929 . S
C488 C487 1.399 . S
C488 C489 1.385 . S
C489 H475 0.931 . S
C489 C488 1.385 . S
C489 C490 1.389 . S
C490 C489 1.389 . S
C490 C491 1.387 . S
C491 H476 0.930 . S
C491 C486 1.390 . S
C491 C490 1.387 . S
H492 C504 0.930 . S
H493 C506 0.930 . S
H494 C507 0.930 . S
H495 C511 0.959 . S
H496 C511 0.959 . S
H497 C511 0.961 . S
H498 C512 0.960 . S
H499 C512 0.961 . S
H500 C512 0.959 . S
H501 C515 0.929 . S
H502 C516 0.931 . S
H503 C518 0.930 . S
C504 H492 0.930 . S
C504 C505 1.399 . S
C504 C509 1.399 . S
C505 C504 1.399 . S
C505 C506 1.376 . S
C506 H493 0.930 . S
C506 C505 1.376 . S
C506 C507 1.388 . S
C507 H494 0.930 . S
C507 C506 1.388 . S
C507 C508 1.390 . S
C508 C507 1.390 . S
C508 C509 1.394 . S
C508 C514 1.465 . S
C509 C504 1.399 . S
C509 C508 1.394 . S
C509 C510 1.516 . S
C510 C509 1.516 . S
C510 C511 1.502 . S
C510 C512 1.561 . S
C510 C513 1.526 . S
C511 H495 0.959 . S
C511 H496 0.959 . S
C511 H497 0.961 . S
C511 C510 1.502 . S
C512 H498 0.960 . S
C512 H499 0.961 . S
C512 H500 0.959 . S
C512 C510 1.561 . S
C513 C510 1.526 . S
C513 C514 1.396 . S
C513 C518 1.390 . S
C514 C508 1.465 . S
C514 C513 1.396 . S
C514 C515 1.399 . S
C515 H501 0.929 . S
C515 C514 1.399 . S
C515 C516 1.385 . S
C516 H502 0.931 . S
C516 C515 1.385 . S
C516 C517 1.389 . S
C517 C516 1.389 . S
C517 C518 1.387 . S
C518 H503 0.930 . S
C518 C513 1.390 . S
C518 C517 1.387 . S
H519 C531 0.930 . S
H520 C533 0.930 . S
H521 C534 0.930 . S
H522 C538 0.959 . S
H523 C538 0.959 . S
H524 C538 0.961 . S
H525 C539 0.960 . S
H526 C539 0.961 . S
H527 C539 0.959 . S
H528 C542 0.929 . S
H529 C543 0.931 . S
H530 C545 0.930 . S
C531 H519 0.930 . S
C531 C532 1.399 . S
C531 C536 1.399 . S
C532 C531 1.399 . S
C532 C533 1.376 . S
C533 H520 0.930 . S
C533 C532 1.376 . S
C533 C534 1.388 . S
C534 H521 0.930 . S
C534 C533 1.388 . S
C534 C535 1.390 . S
C535 C534 1.390 . S
C535 C536 1.394 . S
C535 C541 1.465 . S
C536 C531 1.399 . S
C536 C535 1.394 . S
C536 C537 1.516 1_455 S
C537 C536 1.516 1_655 S
C537 C538 1.502 . S
C537 C539 1.561 1_655 S
C537 C540 1.526 . S
C538 H522 0.959 . S
C538 H523 0.959 . S
C538 H524 0.961 . S
C538 C537 1.502 . S
C539 H525 0.960 . S
C539 H526 0.961 . S
C539 H527 0.959 . S
C539 C537 1.561 1_455 S
C540 C537 1.526 . S
C540 C541 1.396 1_655 S
C540 C545 1.390 . S
C541 C535 1.465 . S
C541 C540 1.396 1_455 S
C541 C542 1.399 . S
C542 H528 0.929 . S
C542 C541 1.399 . S
C542 C543 1.385 1_455 S
C543 H529 0.931 . S
C543 C542 1.385 1_655 S
C543 C544 1.389 . S
C544 C543 1.389 . S
C544 C545 1.387 . S
C545 H530 0.930 . S
C545 C540 1.390 . S
C545 C544 1.387 . S
H546 C558 0.930 . S
H547 C560 0.930 . S
H548 C561 0.930 . S
H549 C565 0.959 . S
H550 C565 0.959 . S
H551 C565 0.961 . S
H552 C566 0.960 . S
H553 C566 0.961 . S
H554 C566 0.959 . S
H555 C569 0.929 . S
H556 C570 0.931 . S
H557 C572 0.930 . S
C558 H546 0.930 . S
C558 C559 1.399 . S
C558 C563 1.399 . S
C559 C558 1.399 . S
C559 C560 1.376 . S
C560 H547 0.930 . S
C560 C559 1.376 . S
C560 C561 1.388 . S
C561 H548 0.930 . S
C561 C560 1.388 . S
C561 C562 1.390 . S
C562 C561 1.390 . S
C562 C563 1.394 . S
C562 C568 1.465 . S
C563 C558 1.399 . S
C563 C562 1.394 . S
C563 C564 1.516 . S
C564 C563 1.516 . S
C564 C565 1.502 . S
C564 C566 1.561 . S
C564 C567 1.526 . S
C565 H549 0.959 . S
C565 H550 0.959 . S
C565 H551 0.961 . S
C565 C564 1.502 . S
C566 H552 0.960 . S
C566 H553 0.961 . S
C566 H554 0.959 . S
C566 C564 1.561 . S
C567 C564 1.526 . S
C567 C568 1.396 . S
C567 C572 1.390 . S
C568 C562 1.465 . S
C568 C567 1.396 . S
C568 C569 1.399 . S
C569 H555 0.929 . S
C569 C568 1.399 . S
C569 C570 1.385 . S
C570 H556 0.931 . S
C570 C569 1.385 . S
C570 C571 1.389 . S
C571 C570 1.389 . S
C571 C572 1.387 . S
C572 H557 0.930 . S
C572 C567 1.390 . S
C572 C571 1.387 . S
H573 C585 0.930 . S
H574 C587 0.930 . S
H575 C588 0.930 . S
H576 C592 0.959 . S
H577 C592 0.959 . S
H578 C592 0.961 . S
H579 C593 0.960 . S
H580 C593 0.961 1_455 S
H581 C593 0.959 . S
H582 C596 0.929 . S
H583 C597 0.931 . S
H584 C599 0.930 . S
C585 H573 0.930 . S
C585 C586 1.399 . S
C585 C590 1.399 . S
C586 C585 1.399 . S
C586 C587 1.376 . S
C587 H574 0.930 . S
C587 C586 1.376 . S
C587 C588 1.388 . S
C588 H575 0.930 . S
C588 C587 1.388 . S
C588 C589 1.390 . S
C589 C588 1.390 . S
C589 C590 1.394 . S
C589 C595 1.465 . S
C590 C585 1.399 . S
C590 C589 1.394 . S
C590 C591 1.516 1_655 S
C591 C590 1.516 1_455 S
C591 C592 1.502 . S
C591 C593 1.561 1_455 S
C591 C594 1.526 . S
C592 H576 0.959 . S
C592 H577 0.959 . S
C592 H578 0.961 . S
C592 C591 1.502 . S
C593 H579 0.960 . S
C593 H580 0.961 1_655 S
C593 H581 0.959 . S
C593 C591 1.561 1_655 S
C594 C591 1.526 . S
C594 C595 1.396 1_455 S
C594 C599 1.390 . S
C595 C589 1.465 . S
C595 C594 1.396 1_655 S
C595 C596 1.399 . S
C596 H582 0.929 . S
C596 C595 1.399 . S
C596 C597 1.385 1_655 S
C597 H583 0.931 . S
C597 C596 1.385 1_455 S
C597 C598 1.389 . S
C598 C597 1.389 . S
C598 C599 1.387 . S
C599 H584 0.930 . S
C599 C594 1.390 . S
C599 C598 1.387 . S
H600 C612 0.930 . S
H601 C614 0.930 . S
H602 C615 0.930 . S
H603 C619 0.959 . S
H604 C619 0.959 . S
H605 C619 0.961 . S
H606 C620 0.960 . S
H607 C620 0.961 . S
H608 C620 0.959 . S
H609 C623 0.929 . S
H610 C624 0.931 . S
H611 C626 0.930 . S
C612 H600 0.930 . S
C612 C613 1.399 . S
C612 C617 1.399 . S
C613 C612 1.399 . S
C613 C614 1.376 . S
C614 H601 0.930 . S
C614 C613 1.376 . S
C614 C615 1.388 . S
C615 H602 0.930 . S
C615 C614 1.388 . S
C615 C616 1.390 . S
C616 C615 1.390 . S
C616 C617 1.394 . S
C616 C622 1.465 . S
C617 C612 1.399 . S
C617 C616 1.394 . S
C617 C618 1.516 . S
C618 C617 1.516 . S
C618 C619 1.502 . S
C618 C620 1.561 . S
C618 C621 1.526 . S
C619 H603 0.959 . S
C619 H604 0.959 . S
C619 H605 0.961 . S
C619 C618 1.502 . S
C620 H606 0.960 . S
C620 H607 0.961 . S
C620 H608 0.959 . S
C620 C618 1.561 . S
C621 C618 1.526 . S
C621 C622 1.396 . S
C621 C626 1.390 . S
C622 C616 1.465 . S
C622 C621 1.396 . S
C622 C623 1.399 . S
C623 H609 0.929 . S
C623 C622 1.399 . S
C623 C624 1.385 . S
C624 H610 0.931 . S
C624 C623 1.385 . S
C624 C625 1.389 . S
C625 C624 1.389 . S
C625 C626 1.387 . S
C626 H611 0.930 . S
C626 C621 1.390 . S
C626 C625 1.387 . S
H627 C639 0.930 . S
H628 C641 0.930 1_455 S
H629 C642 0.930 . S
H630 C646 0.959 . S
H631 C646 0.959 . S
H632 C646 0.961 . S
H633 C647 0.960 1_556 S
H634 C647 0.961 . S
H635 C647 0.959 . S
H636 C650 0.929 . S
H637 C651 0.931 . S
H638 C653 0.930 . S
C639 H627 0.930 . S
C639 C640 1.399 . S
C639 C644 1.399 . S
C640 C639 1.399 . S
C640 C641 1.376 . S
C641 H628 0.930 1_655 S
C641 C640 1.376 . S
C641 C642 1.388 . S
C642 H629 0.930 . S
C642 C641 1.388 . S
C642 C643 1.390 . S
C643 C642 1.390 . S
C643 C644 1.394 . S
C643 C649 1.465 1_556 S
C644 C639 1.399 . S
C644 C643 1.394 . S
C644 C645 1.516 . S
C645 C644 1.516 . S
C645 C646 1.502 . S
C645 C647 1.561 1_556 S
C645 C648 1.526 1_556 S
C646 H630 0.959 . S
C646 H631 0.959 . S
C646 H632 0.961 . S
C646 C645 1.502 . S
C647 H633 0.960 1_554 S
C647 H634 0.961 . S
C647 H635 0.959 . S
C647 C645 1.561 1_554 S
C648 C645 1.526 1_554 S
C648 C649 1.396 . S
C648 C653 1.390 . S
C649 C643 1.465 1_554 S
C649 C648 1.396 . S
C649 C650 1.399 . S
C650 H636 0.929 . S
C650 C649 1.399 . S
C650 C651 1.385 . S
C651 H637 0.931 . S
C651 C650 1.385 . S
C651 C652 1.389 . S
C652 C651 1.389 . S
C652 C653 1.387 . S
C653 H638 0.930 . S
C653 C648 1.390 . S
C653 C652 1.387 . S
H654 C666 0.930 . S
H655 C668 0.930 . S
H656 C669 0.930 . S
H657 C673 0.959 . S
H658 C673 0.959 . S
H659 C673 0.961 . S
H660 C674 0.960 . S
H661 C674 0.961 . S
H662 C674 0.959 . S
H663 C677 0.929 . S
H664 C678 0.931 . S
H665 C680 0.930 . S
C666 H654 0.930 . S
C666 C667 1.399 . S
C666 C671 1.399 . S
C667 C666 1.399 . S
C667 C668 1.376 . S
C668 H655 0.930 . S
C668 C667 1.376 . S
C668 C669 1.388 . S
C669 H656 0.930 . S
C669 C668 1.388 . S
C669 C670 1.390 . S
C670 C669 1.390 . S
C670 C671 1.394 . S
C670 C676 1.465 . S
C671 C666 1.399 . S
C671 C670 1.394 . S
C671 C672 1.516 . S
C672 C671 1.516 . S
C672 C673 1.502 . S
C672 C674 1.561 . S
C672 C675 1.526 . S
C673 H657 0.959 . S
C673 H658 0.959 . S
C673 H659 0.961 . S
C673 C672 1.502 . S
C674 H660 0.960 . S
C674 H661 0.961 . S
C674 H662 0.959 . S
C674 C672 1.561 . S
C675 C672 1.526 . S
C675 C676 1.396 . S
C675 C680 1.390 . S
C676 C670 1.465 . S
C676 C675 1.396 . S
C676 C677 1.399 . S
C677 H663 0.929 . S
C677 C676 1.399 . S
C677 C678 1.385 . S
C678 H664 0.931 . S
C678 C677 1.385 . S
C678 C679 1.389 . S
C679 C678 1.389 . S
C679 C680 1.387 . S
C680 H665 0.930 . S
C680 C675 1.390 . S
C680 C679 1.387 . S
H681 C693 0.930 . S
H682 C695 0.930 . S
H683 C696 0.930 1_556 S
H684 C700 0.959 . S
H685 C700 0.959 . S
H686 C700 0.961 . S
H687 C701 0.960 . S
H688 C701 0.961 . S
H689 C701 0.959 . S
H690 C704 0.929 . S
H691 C705 0.931 . S
H692 C707 0.930 1_554 S
C693 H681 0.930 . S
C693 C694 1.399 . S
C693 C698 1.399 . S
C694 C693 1.399 . S
C694 C695 1.376 . S
C695 H682 0.930 . S
C695 C694 1.376 . S
C695 C696 1.388 . S
C696 H683 0.930 1_554 S
C696 C695 1.388 . S
C696 C697 1.390 . S
C697 C696 1.390 . S
C697 C698 1.394 . S
C697 C703 1.465 1_554 S
C698 C693 1.399 . S
C698 C697 1.394 . S
C698 C699 1.516 . S
C699 C698 1.516 . S
C699 C700 1.502 . S
C699 C701 1.561 . S
C699 C702 1.526 . S
C700 H684 0.959 . S
C700 H685 0.959 . S
C700 H686 0.961 . S
C700 C699 1.502 . S
C701 H687 0.960 . S
C701 H688 0.961 . S
C701 H689 0.959 . S
C701 C699 1.561 . S
C702 C699 1.526 . S
C702 C703 1.396 1_554 S
C702 C707 1.390 1_554 S
C703 C697 1.465 1_556 S
C703 C702 1.396 1_556 S
C703 C704 1.399 . S
C704 H690 0.929 . S
C704 C703 1.399 . S
C704 C705 1.385 . S
C705 H691 0.931 . S
C705 C704 1.385 . S
C705 C706 1.389 . S
C706 C705 1.389 . S
C706 C707 1.387 . S
C707 H692 0.930 1_556 S
C707 C702 1.390 1_556 S
C707 C706 1.387 . S
H708 C720 0.930 . S
H709 C722 0.930 . S
H710 C723 0.930 . S
H711 C727 0.959 . S
H712 C727 0.959 . S
H713 C727 0.961 . S
H714 C728 0.960 . S
H715 C728 0.961 . S
H716 C728 0.959 . S
H717 C731 0.929 . S
H718 C732 0.931 . S
H719 C734 0.930 . S
C720 H708 0.930 . S
C720 C721 1.399 . S
C720 C725 1.399 . S
C721 C720 1.399 . S
C721 C722 1.376 . S
C722 H709 0.930 . S
C722 C721 1.376 . S
C722 C723 1.388 . S
C723 H710 0.930 . S
C723 C722 1.388 . S
C723 C724 1.390 . S
C724 C723 1.390 . S
C724 C725 1.394 . S
C724 C730 1.465 . S
C725 C720 1.399 . S
C725 C724 1.394 . S
C725 C726 1.516 . S
C726 C725 1.516 . S
C726 C727 1.502 . S
C726 C728 1.561 . S
C726 C729 1.526 . S
C727 H711 0.959 . S
C727 H712 0.959 . S
C727 H713 0.961 . S
C727 C726 1.502 . S
C728 H714 0.960 . S
C728 H715 0.961 . S
C728 H716 0.959 . S
C728 C726 1.561 . S
C729 C726 1.526 . S
C729 C730 1.396 . S
C729 C734 1.390 . S
C730 C724 1.465 . S
C730 C729 1.396 . S
C730 C731 1.399 . S
C731 H717 0.929 . S
C731 C730 1.399 . S
C731 C732 1.385 . S
C732 H718 0.931 . S
C732 C731 1.385 . S
C732 C733 1.389 . S
C733 C732 1.389 . S
C733 C734 1.387 . S
C734 H719 0.930 . S
C734 C729 1.390 . S
C734 C733 1.387 . S
H735 C747 0.930 . S
H736 C749 0.930 . S
H737 C750 0.930 . S
H738 C754 0.959 . S
H739 C754 0.959 . S
H740 C754 0.961 . S
H741 C755 0.960 1_554 S
H742 C755 0.961 . S
H743 C755 0.959 1_554 S
H744 C758 0.929 . S
H745 C759 0.931 . S
H746 C761 0.930 . S
C747 H735 0.930 . S
C747 C748 1.399 . S
C747 C752 1.399 . S
C748 C747 1.399 . S
C748 C749 1.376 . S
C749 H736 0.930 . S
C749 C748 1.376 . S
C749 C750 1.388 . S
C750 H737 0.930 . S
C750 C749 1.388 . S
C750 C751 1.390 . S
C751 C750 1.390 . S
C751 C752 1.394 . S
C751 C757 1.465 . S
C752 C747 1.399 . S
C752 C751 1.394 . S
C752 C753 1.516 1_554 S
C753 C752 1.516 1_556 S
C753 C754 1.502 . S
C753 C755 1.561 . S
C753 C756 1.526 . S
C754 H738 0.959 . S
C754 H739 0.959 . S
C754 H740 0.961 . S
C754 C753 1.502 . S
C755 H741 0.960 1_556 S
C755 H742 0.961 . S
C755 H743 0.959 1_556 S
C755 C753 1.561 . S
C756 C753 1.526 . S
C756 C757 1.396 1_556 S
C756 C761 1.390 . S
C757 C751 1.465 . S
C757 C756 1.396 1_554 S
C757 C758 1.399 . S
C758 H744 0.929 . S
C758 C757 1.399 . S
C758 C759 1.385 1_554 S
C759 H745 0.931 . S
C759 C758 1.385 1_556 S
C759 C760 1.389 . S
C760 C759 1.389 . S
C760 C761 1.387 . S
C761 H746 0.930 . S
C761 C756 1.390 . S
C761 C760 1.387 . S
H762 C774 0.930 . S
H763 C776 0.930 . S
H764 C777 0.930 . S
H765 C781 0.959 . S
H766 C781 0.959 . S
H767 C781 0.961 . S
H768 C782 0.960 . S
H769 C782 0.961 . S
H770 C782 0.959 . S
H771 C785 0.929 . S
H772 C786 0.931 . S
H773 C788 0.930 . S
C774 H762 0.930 . S
C774 C775 1.399 . S
C774 C779 1.399 . S
C775 C774 1.399 . S
C775 C776 1.376 . S
C776 H763 0.930 . S
C776 C775 1.376 . S
C776 C777 1.388 . S
C777 H764 0.930 . S
C777 C776 1.388 . S
C777 C778 1.390 . S
C778 C777 1.390 . S
C778 C779 1.394 . S
C778 C784 1.465 . S
C779 C774 1.399 . S
C779 C778 1.394 . S
C779 C780 1.516 . S
C780 C779 1.516 . S
C780 C781 1.502 . S
C780 C782 1.561 . S
C780 C783 1.526 . S
C781 H765 0.959 . S
C781 H766 0.959 . S
C781 H767 0.961 . S
C781 C780 1.502 . S
C782 H768 0.960 . S
C782 H769 0.961 . S
C782 H770 0.959 . S
C782 C780 1.561 . S
C783 C780 1.526 . S
C783 C784 1.396 . S
C783 C788 1.390 . S
C784 C778 1.465 . S
C784 C783 1.396 . S
C784 C785 1.399 . S
C785 H771 0.929 . S
C785 C784 1.399 . S
C785 C786 1.385 . S
C786 H772 0.931 . S
C786 C785 1.385 . S
C786 C787 1.389 . S
C787 C786 1.389 . S
C787 C788 1.387 . S
C788 H773 0.930 . S
C788 C783 1.390 . S
C788 C787 1.387 . S
H789 C801 0.930 . S
H790 C803 0.930 . S
H791 C804 0.930 . S
H792 C808 0.959 . S
H793 C808 0.959 . S
H794 C808 0.961 . S
H795 C809 0.960 . S
H796 C809 0.961 . S
H797 C809 0.959 . S
H798 C812 0.929 . S
H799 C813 0.931 . S
H800 C815 0.930 . S
C801 H789 0.930 . S
C801 C802 1.399 . S
C801 C806 1.399 1_554 S
C802 C801 1.399 . S
C802 C803 1.376 . S
C803 H790 0.930 . S
C803 C802 1.376 . S
C803 C804 1.388 . S
C804 H791 0.930 . S
C804 C803 1.388 . S
C804 C805 1.389 . S
C805 C804 1.389 . S
C805 C806 1.394 1_554 S
C805 C811 1.466 1_554 S
C806 C801 1.399 1_556 S
C806 C805 1.394 1_556 S
C806 C807 1.516 . S
C807 C806 1.516 . S
C807 C808 1.502 . S
C807 C809 1.561 . S
C807 C810 1.526 . S
C808 H792 0.959 . S
C808 H793 0.959 . S
C808 H794 0.961 . S
C808 C807 1.502 . S
C809 H795 0.960 . S
C809 H796 0.961 . S
C809 H797 0.959 . S
C809 C807 1.561 . S
C810 C807 1.526 . S
C810 C811 1.396 . S
C810 C815 1.390 . S
C811 C805 1.466 1_556 S
C811 C810 1.396 . S
C811 C812 1.399 . S
C812 H798 0.929 . S
C812 C811 1.399 . S
C812 C813 1.385 . S
C813 H799 0.931 . S
C813 C812 1.385 . S
C813 C814 1.389 . S
C814 C813 1.389 . S
C814 C815 1.387 . S
C815 H800 0.930 . S
C815 C810 1.390 . S
C815 C814 1.387 . S
C181 C142 1.105 . S
C193 C3 1.422 . S
C208 C37 1.406 . S
C220 C163 1.225 . S
C235 C100 1.213 . S
C247 C58 1.329 . S
C262 C79 1.348 . S
C274 C121 1.074 . S
C289 C45 1.085 . S
C301 C87 1.371 . S
C316 C108 1.357 . S
C328 C66 1.237 . S
C343 C16 1.100 . S
C355 C129 1.359 . S
C370 C24 1.066 . S
C382 C150 1.390 . S
C397 C19 0.731 . S
C409 C103 0.613 . S
C424 C124 0.514 . S
C436 C41 0.771 . S
C451 C62 0.516 . S
C463 C145 0.760 . S
C478 C166 0.686 . S
C490 C83 0.667 . S
C505 C70 1.178 . S
C517 C4 1.194 . S
C532 C28 1.307 . S
C544 C49 1.293 . S
C559 C151 1.283 . S
C571 C88 1.313 . S
C586 C109 1.224 . S
C598 C130 1.176 . S
C613 C20 1.669 . S
C625 C46 1.564 . S
C640 C40 1.687 1_655 S
C652 C67 1.572 . S
C667 C61 1.663 1_455 S
C679 C7 1.566 . S
C694 C82 1.706 . S
C706 C25 1.593 . S
C721 C104 1.654 . S
C733 C133 1.584 . S
C748 C125 1.653 1_455 S
C760 C154 1.580 . S
C775 C146 1.651 1_655 S
C787 C91 1.570 . S
C802 C112 1.660 . S
C814 C167 1.711 . S
