# Generated by pormake.
# Topology kfi, (4)-cn, num edge types: 1
# Building blocks:
#     Node 0, Type 0, BuildingBlock: QUQFOY_clean_sbu_3, # of connection points: 4
#     Node 1, Type 0, BuildingBlock: QUQFOY_clean_sbu_3, # of connection points: 4
#     Node 2, Type 0, BuildingBlock: QUQFOY_clean_sbu_3, # of connection points: 4
#     Node 3, Type 0, BuildingBlock: QUQFOY_clean_sbu_3, # of connection points: 4
#     Node 4, Type 0, BuildingBlock: QUQFOY_clean_sbu_3, # of connection points: 4
#     Node 5, Type 0, BuildingBlock: QUQFOY_clean_sbu_3, # of connection points: 4
#     Node 6, Type 0, BuildingBlock: QUQFOY_clean_sbu_3, # of connection points: 4
#     Node 7, Type 0, BuildingBlock: QUQFOY_clean_sbu_3, # of connection points: 4
#     Node 8, Type 0, BuildingBlock: QUQFOY_clean_sbu_3, # of connection points: 4
#     Node 9, Type 0, BuildingBlock: QUQFOY_clean_sbu_3, # of connection points: 4
#     Node 10, Type 0, BuildingBlock: QUQFOY_clean_sbu_3, # of connection points: 4
#     Node 11, Type 0, BuildingBlock: QUQFOY_clean_sbu_3, # of connection points: 4
#     Node 12, Type 0, BuildingBlock: QUQFOY_clean_sbu_3, # of connection points: 4
#     Node 13, Type 0, BuildingBlock: QUQFOY_clean_sbu_3, # of connection points: 4
#     Node 14, Type 0, BuildingBlock: QUQFOY_clean_sbu_3, # of connection points: 4
#     Node 15, Type 0, BuildingBlock: QUQFOY_clean_sbu_3, # of connection points: 4
#     Node 16, Type 0, BuildingBlock: QUQFOY_clean_sbu_3, # of connection points: 4
#     Node 17, Type 0, BuildingBlock: QUQFOY_clean_sbu_3, # of connection points: 4
#     Node 18, Type 0, BuildingBlock: QUQFOY_clean_sbu_3, # of connection points: 4
#     Node 19, Type 0, BuildingBlock: QUQFOY_clean_sbu_3, # of connection points: 4
#     Node 20, Type 0, BuildingBlock: QUQFOY_clean_sbu_3, # of connection points: 4
#     Node 21, Type 0, BuildingBlock: QUQFOY_clean_sbu_3, # of connection points: 4
#     Node 22, Type 0, BuildingBlock: QUQFOY_clean_sbu_3, # of connection points: 4
#     Node 23, Type 0, BuildingBlock: QUQFOY_clean_sbu_3, # of connection points: 4
#     Node 24, Type 0, BuildingBlock: QUQFOY_clean_sbu_3, # of connection points: 4
#     Node 25, Type 0, BuildingBlock: QUQFOY_clean_sbu_3, # of connection points: 4
#     Node 26, Type 0, BuildingBlock: QUQFOY_clean_sbu_3, # of connection points: 4
#     Node 27, Type 0, BuildingBlock: QUQFOY_clean_sbu_3, # of connection points: 4
#     Node 28, Type 0, BuildingBlock: QUQFOY_clean_sbu_3, # of connection points: 4
#     Node 29, Type 0, BuildingBlock: QUQFOY_clean_sbu_3, # of connection points: 4
#     Node 30, Type 0, BuildingBlock: QUQFOY_clean_sbu_3, # of connection points: 4
#     Node 31, Type 0, BuildingBlock: QUQFOY_clean_sbu_3, # of connection points: 4
#     Node 32, Type 0, BuildingBlock: QUQFOY_clean_sbu_3, # of connection points: 4
#     Node 33, Type 0, BuildingBlock: QUQFOY_clean_sbu_3, # of connection points: 4
#     Node 34, Type 0, BuildingBlock: QUQFOY_clean_sbu_3, # of connection points: 4
#     Node 35, Type 0, BuildingBlock: QUQFOY_clean_sbu_3, # of connection points: 4
#     Node 36, Type 0, BuildingBlock: QUQFOY_clean_sbu_3, # of connection points: 4
#     Node 37, Type 0, BuildingBlock: QUQFOY_clean_sbu_3, # of connection points: 4
#     Node 38, Type 0, BuildingBlock: QUQFOY_clean_sbu_3, # of connection points: 4
#     Node 39, Type 0, BuildingBlock: QUQFOY_clean_sbu_3, # of connection points: 4
#     Node 40, Type 0, BuildingBlock: QUQFOY_clean_sbu_3, # of connection points: 4
#     Node 41, Type 0, BuildingBlock: QUQFOY_clean_sbu_3, # of connection points: 4
#     Node 42, Type 0, BuildingBlock: QUQFOY_clean_sbu_3, # of connection points: 4
#     Node 43, Type 0, BuildingBlock: QUQFOY_clean_sbu_3, # of connection points: 4
#     Node 44, Type 0, BuildingBlock: QUQFOY_clean_sbu_3, # of connection points: 4
#     Node 45, Type 0, BuildingBlock: QUQFOY_clean_sbu_3, # of connection points: 4
#     Node 46, Type 0, BuildingBlock: QUQFOY_clean_sbu_3, # of connection points: 4
#     Node 47, Type 0, BuildingBlock: QUQFOY_clean_sbu_3, # of connection points: 4
#     Node 48, Type 0, BuildingBlock: QUQFOY_clean_sbu_3, # of connection points: 4
#     Node 49, Type 0, BuildingBlock: QUQFOY_clean_sbu_3, # of connection points: 4
#     Node 50, Type 0, BuildingBlock: QUQFOY_clean_sbu_3, # of connection points: 4
#     Node 51, Type 0, BuildingBlock: QUQFOY_clean_sbu_3, # of connection points: 4
#     Node 52, Type 0, BuildingBlock: QUQFOY_clean_sbu_3, # of connection points: 4
#     Node 53, Type 0, BuildingBlock: QUQFOY_clean_sbu_3, # of connection points: 4
#     Node 54, Type 0, BuildingBlock: QUQFOY_clean_sbu_3, # of connection points: 4
#     Node 55, Type 0, BuildingBlock: QUQFOY_clean_sbu_3, # of connection points: 4
#     Node 56, Type 0, BuildingBlock: QUQFOY_clean_sbu_3, # of connection points: 4
#     Node 57, Type 0, BuildingBlock: QUQFOY_clean_sbu_3, # of connection points: 4
#     Node 58, Type 0, BuildingBlock: QUQFOY_clean_sbu_3, # of connection points: 4
#     Node 59, Type 0, BuildingBlock: QUQFOY_clean_sbu_3, # of connection points: 4
#     Node 60, Type 0, BuildingBlock: QUQFOY_clean_sbu_3, # of connection points: 4
#     Node 61, Type 0, BuildingBlock: QUQFOY_clean_sbu_3, # of connection points: 4
#     Node 62, Type 0, BuildingBlock: QUQFOY_clean_sbu_3, # of connection points: 4
#     Node 63, Type 0, BuildingBlock: QUQFOY_clean_sbu_3, # of connection points: 4
#     Node 64, Type 0, BuildingBlock: QUQFOY_clean_sbu_3, # of connection points: 4
#     Node 65, Type 0, BuildingBlock: QUQFOY_clean_sbu_3, # of connection points: 4
#     Node 66, Type 0, BuildingBlock: QUQFOY_clean_sbu_3, # of connection points: 4
#     Node 67, Type 0, BuildingBlock: QUQFOY_clean_sbu_3, # of connection points: 4
#     Node 68, Type 0, BuildingBlock: QUQFOY_clean_sbu_3, # of connection points: 4
#     Node 69, Type 0, BuildingBlock: QUQFOY_clean_sbu_3, # of connection points: 4
#     Node 70, Type 0, BuildingBlock: QUQFOY_clean_sbu_3, # of connection points: 4
#     Node 71, Type 0, BuildingBlock: QUQFOY_clean_sbu_3, # of connection points: 4
#     Node 72, Type 0, BuildingBlock: QUQFOY_clean_sbu_3, # of connection points: 4
#     Node 73, Type 0, BuildingBlock: QUQFOY_clean_sbu_3, # of connection points: 4
#     Node 74, Type 0, BuildingBlock: QUQFOY_clean_sbu_3, # of connection points: 4
#     Node 75, Type 0, BuildingBlock: QUQFOY_clean_sbu_3, # of connection points: 4
#     Node 76, Type 0, BuildingBlock: QUQFOY_clean_sbu_3, # of connection points: 4
#     Node 77, Type 0, BuildingBlock: QUQFOY_clean_sbu_3, # of connection points: 4
#     Node 78, Type 0, BuildingBlock: QUQFOY_clean_sbu_3, # of connection points: 4
#     Node 79, Type 0, BuildingBlock: QUQFOY_clean_sbu_3, # of connection points: 4
#     Node 80, Type 0, BuildingBlock: QUQFOY_clean_sbu_3, # of connection points: 4
#     Node 81, Type 0, BuildingBlock: QUQFOY_clean_sbu_3, # of connection points: 4
#     Node 82, Type 0, BuildingBlock: QUQFOY_clean_sbu_3, # of connection points: 4
#     Node 83, Type 0, BuildingBlock: QUQFOY_clean_sbu_3, # of connection points: 4
#     Node 84, Type 0, BuildingBlock: QUQFOY_clean_sbu_3, # of connection points: 4
#     Node 85, Type 0, BuildingBlock: QUQFOY_clean_sbu_3, # of connection points: 4
#     Node 86, Type 0, BuildingBlock: QUQFOY_clean_sbu_3, # of connection points: 4
#     Node 87, Type 0, BuildingBlock: QUQFOY_clean_sbu_3, # of connection points: 4
#     Node 88, Type 0, BuildingBlock: QUQFOY_clean_sbu_3, # of connection points: 4
#     Node 89, Type 0, BuildingBlock: QUQFOY_clean_sbu_3, # of connection points: 4
#     Node 90, Type 0, BuildingBlock: QUQFOY_clean_sbu_3, # of connection points: 4
#     Node 91, Type 0, BuildingBlock: QUQFOY_clean_sbu_3, # of connection points: 4
#     Node 92, Type 0, BuildingBlock: QUQFOY_clean_sbu_3, # of connection points: 4
#     Node 93, Type 0, BuildingBlock: QUQFOY_clean_sbu_3, # of connection points: 4
#     Node 94, Type 0, BuildingBlock: QUQFOY_clean_sbu_3, # of connection points: 4
#     Node 95, Type 0, BuildingBlock: QUQFOY_clean_sbu_3, # of connection points: 4
#     Edge 96, Type (0, 0), BuildingBlock: AJUNOK_clean_linker_0, # of connection points: 2
#     Edge 97, Type (0, 0), BuildingBlock: AJUNOK_clean_linker_0, # of connection points: 2
#     Edge 98, Type (0, 0), BuildingBlock: AJUNOK_clean_linker_0, # of connection points: 2
#     Edge 99, Type (0, 0), BuildingBlock: AJUNOK_clean_linker_0, # of connection points: 2
#     Edge 100, Type (0, 0), BuildingBlock: AJUNOK_clean_linker_0, # of connection points: 2
#     Edge 101, Type (0, 0), BuildingBlock: AJUNOK_clean_linker_0, # of connection points: 2
#     Edge 102, Type (0, 0), BuildingBlock: AJUNOK_clean_linker_0, # of connection points: 2
#     Edge 103, Type (0, 0), BuildingBlock: AJUNOK_clean_linker_0, # of connection points: 2
#     Edge 104, Type (0, 0), BuildingBlock: AJUNOK_clean_linker_0, # of connection points: 2
#     Edge 105, Type (0, 0), BuildingBlock: AJUNOK_clean_linker_0, # of connection points: 2
#     Edge 106, Type (0, 0), BuildingBlock: AJUNOK_clean_linker_0, # of connection points: 2
#     Edge 107, Type (0, 0), BuildingBlock: AJUNOK_clean_linker_0, # of connection points: 2
#     Edge 108, Type (0, 0), BuildingBlock: AJUNOK_clean_linker_0, # of connection points: 2
#     Edge 109, Type (0, 0), BuildingBlock: AJUNOK_clean_linker_0, # of connection points: 2
#     Edge 110, Type (0, 0), BuildingBlock: AJUNOK_clean_linker_0, # of connection points: 2
#     Edge 111, Type (0, 0), BuildingBlock: AJUNOK_clean_linker_0, # of connection points: 2
#     Edge 112, Type (0, 0), BuildingBlock: AJUNOK_clean_linker_0, # of connection points: 2
#     Edge 113, Type (0, 0), BuildingBlock: AJUNOK_clean_linker_0, # of connection points: 2
#     Edge 114, Type (0, 0), BuildingBlock: AJUNOK_clean_linker_0, # of connection points: 2
#     Edge 115, Type (0, 0), BuildingBlock: AJUNOK_clean_linker_0, # of connection points: 2
#     Edge 116, Type (0, 0), BuildingBlock: AJUNOK_clean_linker_0, # of connection points: 2
#     Edge 117, Type (0, 0), BuildingBlock: AJUNOK_clean_linker_0, # of connection points: 2
#     Edge 118, Type (0, 0), BuildingBlock: AJUNOK_clean_linker_0, # of connection points: 2
#     Edge 119, Type (0, 0), BuildingBlock: AJUNOK_clean_linker_0, # of connection points: 2
#     Edge 120, Type (0, 0), BuildingBlock: AJUNOK_clean_linker_0, # of connection points: 2
#     Edge 121, Type (0, 0), BuildingBlock: AJUNOK_clean_linker_0, # of connection points: 2
#     Edge 122, Type (0, 0), BuildingBlock: AJUNOK_clean_linker_0, # of connection points: 2
#     Edge 123, Type (0, 0), BuildingBlock: AJUNOK_clean_linker_0, # of connection points: 2
#     Edge 124, Type (0, 0), BuildingBlock: AJUNOK_clean_linker_0, # of connection points: 2
#     Edge 125, Type (0, 0), BuildingBlock: AJUNOK_clean_linker_0, # of connection points: 2
#     Edge 126, Type (0, 0), BuildingBlock: AJUNOK_clean_linker_0, # of connection points: 2
#     Edge 127, Type (0, 0), BuildingBlock: AJUNOK_clean_linker_0, # of connection points: 2
#     Edge 128, Type (0, 0), BuildingBlock: AJUNOK_clean_linker_0, # of connection points: 2
#     Edge 129, Type (0, 0), BuildingBlock: AJUNOK_clean_linker_0, # of connection points: 2
#     Edge 130, Type (0, 0), BuildingBlock: AJUNOK_clean_linker_0, # of connection points: 2
#     Edge 131, Type (0, 0), BuildingBlock: AJUNOK_clean_linker_0, # of connection points: 2
#     Edge 132, Type (0, 0), BuildingBlock: AJUNOK_clean_linker_0, # of connection points: 2
#     Edge 133, Type (0, 0), BuildingBlock: AJUNOK_clean_linker_0, # of connection points: 2
#     Edge 134, Type (0, 0), BuildingBlock: AJUNOK_clean_linker_0, # of connection points: 2
#     Edge 135, Type (0, 0), BuildingBlock: AJUNOK_clean_linker_0, # of connection points: 2
#     Edge 136, Type (0, 0), BuildingBlock: AJUNOK_clean_linker_0, # of connection points: 2
#     Edge 137, Type (0, 0), BuildingBlock: AJUNOK_clean_linker_0, # of connection points: 2
#     Edge 138, Type (0, 0), BuildingBlock: AJUNOK_clean_linker_0, # of connection points: 2
#     Edge 139, Type (0, 0), BuildingBlock: AJUNOK_clean_linker_0, # of connection points: 2
#     Edge 140, Type (0, 0), BuildingBlock: AJUNOK_clean_linker_0, # of connection points: 2
#     Edge 141, Type (0, 0), BuildingBlock: AJUNOK_clean_linker_0, # of connection points: 2
#     Edge 142, Type (0, 0), BuildingBlock: AJUNOK_clean_linker_0, # of connection points: 2
#     Edge 143, Type (0, 0), BuildingBlock: AJUNOK_clean_linker_0, # of connection points: 2
#     Edge 144, Type (0, 0), BuildingBlock: AJUNOK_clean_linker_0, # of connection points: 2
#     Edge 145, Type (0, 0), BuildingBlock: AJUNOK_clean_linker_0, # of connection points: 2
#     Edge 146, Type (0, 0), BuildingBlock: AJUNOK_clean_linker_0, # of connection points: 2
#     Edge 147, Type (0, 0), BuildingBlock: AJUNOK_clean_linker_0, # of connection points: 2
#     Edge 148, Type (0, 0), BuildingBlock: AJUNOK_clean_linker_0, # of connection points: 2
#     Edge 149, Type (0, 0), BuildingBlock: AJUNOK_clean_linker_0, # of connection points: 2
#     Edge 150, Type (0, 0), BuildingBlock: AJUNOK_clean_linker_0, # of connection points: 2
#     Edge 151, Type (0, 0), BuildingBlock: AJUNOK_clean_linker_0, # of connection points: 2
#     Edge 152, Type (0, 0), BuildingBlock: AJUNOK_clean_linker_0, # of connection points: 2
#     Edge 153, Type (0, 0), BuildingBlock: AJUNOK_clean_linker_0, # of connection points: 2
#     Edge 154, Type (0, 0), BuildingBlock: AJUNOK_clean_linker_0, # of connection points: 2
#     Edge 155, Type (0, 0), BuildingBlock: AJUNOK_clean_linker_0, # of connection points: 2
#     Edge 156, Type (0, 0), BuildingBlock: AJUNOK_clean_linker_0, # of connection points: 2
#     Edge 157, Type (0, 0), BuildingBlock: AJUNOK_clean_linker_0, # of connection points: 2
#     Edge 158, Type (0, 0), BuildingBlock: AJUNOK_clean_linker_0, # of connection points: 2
#     Edge 159, Type (0, 0), BuildingBlock: AJUNOK_clean_linker_0, # of connection points: 2
#     Edge 160, Type (0, 0), BuildingBlock: AJUNOK_clean_linker_0, # of connection points: 2
#     Edge 161, Type (0, 0), BuildingBlock: AJUNOK_clean_linker_0, # of connection points: 2
#     Edge 162, Type (0, 0), BuildingBlock: AJUNOK_clean_linker_0, # of connection points: 2
#     Edge 163, Type (0, 0), BuildingBlock: AJUNOK_clean_linker_0, # of connection points: 2
#     Edge 164, Type (0, 0), BuildingBlock: AJUNOK_clean_linker_0, # of connection points: 2
#     Edge 165, Type (0, 0), BuildingBlock: AJUNOK_clean_linker_0, # of connection points: 2
#     Edge 166, Type (0, 0), BuildingBlock: AJUNOK_clean_linker_0, # of connection points: 2
#     Edge 167, Type (0, 0), BuildingBlock: AJUNOK_clean_linker_0, # of connection points: 2
#     Edge 168, Type (0, 0), BuildingBlock: AJUNOK_clean_linker_0, # of connection points: 2
#     Edge 169, Type (0, 0), BuildingBlock: AJUNOK_clean_linker_0, # of connection points: 2
#     Edge 170, Type (0, 0), BuildingBlock: AJUNOK_clean_linker_0, # of connection points: 2
#     Edge 171, Type (0, 0), BuildingBlock: AJUNOK_clean_linker_0, # of connection points: 2
#     Edge 172, Type (0, 0), BuildingBlock: AJUNOK_clean_linker_0, # of connection points: 2
#     Edge 173, Type (0, 0), BuildingBlock: AJUNOK_clean_linker_0, # of connection points: 2
#     Edge 174, Type (0, 0), BuildingBlock: AJUNOK_clean_linker_0, # of connection points: 2
#     Edge 175, Type (0, 0), BuildingBlock: AJUNOK_clean_linker_0, # of connection points: 2
#     Edge 176, Type (0, 0), BuildingBlock: AJUNOK_clean_linker_0, # of connection points: 2
#     Edge 177, Type (0, 0), BuildingBlock: AJUNOK_clean_linker_0, # of connection points: 2
#     Edge 178, Type (0, 0), BuildingBlock: AJUNOK_clean_linker_0, # of connection points: 2
#     Edge 179, Type (0, 0), BuildingBlock: AJUNOK_clean_linker_0, # of connection points: 2
#     Edge 180, Type (0, 0), BuildingBlock: AJUNOK_clean_linker_0, # of connection points: 2
#     Edge 181, Type (0, 0), BuildingBlock: AJUNOK_clean_linker_0, # of connection points: 2
#     Edge 182, Type (0, 0), BuildingBlock: AJUNOK_clean_linker_0, # of connection points: 2
#     Edge 183, Type (0, 0), BuildingBlock: AJUNOK_clean_linker_0, # of connection points: 2
#     Edge 184, Type (0, 0), BuildingBlock: AJUNOK_clean_linker_0, # of connection points: 2
#     Edge 185, Type (0, 0), BuildingBlock: AJUNOK_clean_linker_0, # of connection points: 2
#     Edge 186, Type (0, 0), BuildingBlock: AJUNOK_clean_linker_0, # of connection points: 2
#     Edge 187, Type (0, 0), BuildingBlock: AJUNOK_clean_linker_0, # of connection points: 2
#     Edge 188, Type (0, 0), BuildingBlock: AJUNOK_clean_linker_0, # of connection points: 2
#     Edge 189, Type (0, 0), BuildingBlock: AJUNOK_clean_linker_0, # of connection points: 2
#     Edge 190, Type (0, 0), BuildingBlock: AJUNOK_clean_linker_0, # of connection points: 2
#     Edge 191, Type (0, 0), BuildingBlock: AJUNOK_clean_linker_0, # of connection points: 2
#     Edge 192, Type (0, 0), BuildingBlock: AJUNOK_clean_linker_0, # of connection points: 2
#     Edge 193, Type (0, 0), BuildingBlock: AJUNOK_clean_linker_0, # of connection points: 2
#     Edge 194, Type (0, 0), BuildingBlock: AJUNOK_clean_linker_0, # of connection points: 2
#     Edge 195, Type (0, 0), BuildingBlock: AJUNOK_clean_linker_0, # of connection points: 2
#     Edge 196, Type (0, 0), BuildingBlock: AJUNOK_clean_linker_0, # of connection points: 2
#     Edge 197, Type (0, 0), BuildingBlock: AJUNOK_clean_linker_0, # of connection points: 2
#     Edge 198, Type (0, 0), BuildingBlock: AJUNOK_clean_linker_0, # of connection points: 2
#     Edge 199, Type (0, 0), BuildingBlock: AJUNOK_clean_linker_0, # of connection points: 2
#     Edge 200, Type (0, 0), BuildingBlock: AJUNOK_clean_linker_0, # of connection points: 2
#     Edge 201, Type (0, 0), BuildingBlock: AJUNOK_clean_linker_0, # of connection points: 2
#     Edge 202, Type (0, 0), BuildingBlock: AJUNOK_clean_linker_0, # of connection points: 2
#     Edge 203, Type (0, 0), BuildingBlock: AJUNOK_clean_linker_0, # of connection points: 2
#     Edge 204, Type (0, 0), BuildingBlock: AJUNOK_clean_linker_0, # of connection points: 2
#     Edge 205, Type (0, 0), BuildingBlock: AJUNOK_clean_linker_0, # of connection points: 2
#     Edge 206, Type (0, 0), BuildingBlock: AJUNOK_clean_linker_0, # of connection points: 2
#     Edge 207, Type (0, 0), BuildingBlock: AJUNOK_clean_linker_0, # of connection points: 2
#     Edge 208, Type (0, 0), BuildingBlock: AJUNOK_clean_linker_0, # of connection points: 2
#     Edge 209, Type (0, 0), BuildingBlock: AJUNOK_clean_linker_0, # of connection points: 2
#     Edge 210, Type (0, 0), BuildingBlock: AJUNOK_clean_linker_0, # of connection points: 2
#     Edge 211, Type (0, 0), BuildingBlock: AJUNOK_clean_linker_0, # of connection points: 2
#     Edge 212, Type (0, 0), BuildingBlock: AJUNOK_clean_linker_0, # of connection points: 2
#     Edge 213, Type (0, 0), BuildingBlock: AJUNOK_clean_linker_0, # of connection points: 2
#     Edge 214, Type (0, 0), BuildingBlock: AJUNOK_clean_linker_0, # of connection points: 2
#     Edge 215, Type (0, 0), BuildingBlock: AJUNOK_clean_linker_0, # of connection points: 2
#     Edge 216, Type (0, 0), BuildingBlock: AJUNOK_clean_linker_0, # of connection points: 2
#     Edge 217, Type (0, 0), BuildingBlock: AJUNOK_clean_linker_0, # of connection points: 2
#     Edge 218, Type (0, 0), BuildingBlock: AJUNOK_clean_linker_0, # of connection points: 2
#     Edge 219, Type (0, 0), BuildingBlock: AJUNOK_clean_linker_0, # of connection points: 2
#     Edge 220, Type (0, 0), BuildingBlock: AJUNOK_clean_linker_0, # of connection points: 2
#     Edge 221, Type (0, 0), BuildingBlock: AJUNOK_clean_linker_0, # of connection points: 2
#     Edge 222, Type (0, 0), BuildingBlock: AJUNOK_clean_linker_0, # of connection points: 2
#     Edge 223, Type (0, 0), BuildingBlock: AJUNOK_clean_linker_0, # of connection points: 2
#     Edge 224, Type (0, 0), BuildingBlock: AJUNOK_clean_linker_0, # of connection points: 2
#     Edge 225, Type (0, 0), BuildingBlock: AJUNOK_clean_linker_0, # of connection points: 2
#     Edge 226, Type (0, 0), BuildingBlock: AJUNOK_clean_linker_0, # of connection points: 2
#     Edge 227, Type (0, 0), BuildingBlock: AJUNOK_clean_linker_0, # of connection points: 2
#     Edge 228, Type (0, 0), BuildingBlock: AJUNOK_clean_linker_0, # of connection points: 2
#     Edge 229, Type (0, 0), BuildingBlock: AJUNOK_clean_linker_0, # of connection points: 2
#     Edge 230, Type (0, 0), BuildingBlock: AJUNOK_clean_linker_0, # of connection points: 2
#     Edge 231, Type (0, 0), BuildingBlock: AJUNOK_clean_linker_0, # of connection points: 2
#     Edge 232, Type (0, 0), BuildingBlock: AJUNOK_clean_linker_0, # of connection points: 2
#     Edge 233, Type (0, 0), BuildingBlock: AJUNOK_clean_linker_0, # of connection points: 2
#     Edge 234, Type (0, 0), BuildingBlock: AJUNOK_clean_linker_0, # of connection points: 2
#     Edge 235, Type (0, 0), BuildingBlock: AJUNOK_clean_linker_0, # of connection points: 2
#     Edge 236, Type (0, 0), BuildingBlock: AJUNOK_clean_linker_0, # of connection points: 2
#     Edge 237, Type (0, 0), BuildingBlock: AJUNOK_clean_linker_0, # of connection points: 2
#     Edge 238, Type (0, 0), BuildingBlock: AJUNOK_clean_linker_0, # of connection points: 2
#     Edge 239, Type (0, 0), BuildingBlock: AJUNOK_clean_linker_0, # of connection points: 2
#     Edge 240, Type (0, 0), BuildingBlock: AJUNOK_clean_linker_0, # of connection points: 2
#     Edge 241, Type (0, 0), BuildingBlock: AJUNOK_clean_linker_0, # of connection points: 2
#     Edge 242, Type (0, 0), BuildingBlock: AJUNOK_clean_linker_0, # of connection points: 2
#     Edge 243, Type (0, 0), BuildingBlock: AJUNOK_clean_linker_0, # of connection points: 2
#     Edge 244, Type (0, 0), BuildingBlock: AJUNOK_clean_linker_0, # of connection points: 2
#     Edge 245, Type (0, 0), BuildingBlock: AJUNOK_clean_linker_0, # of connection points: 2
#     Edge 246, Type (0, 0), BuildingBlock: AJUNOK_clean_linker_0, # of connection points: 2
#     Edge 247, Type (0, 0), BuildingBlock: AJUNOK_clean_linker_0, # of connection points: 2
#     Edge 248, Type (0, 0), BuildingBlock: AJUNOK_clean_linker_0, # of connection points: 2
#     Edge 249, Type (0, 0), BuildingBlock: AJUNOK_clean_linker_0, # of connection points: 2
#     Edge 250, Type (0, 0), BuildingBlock: AJUNOK_clean_linker_0, # of connection points: 2
#     Edge 251, Type (0, 0), BuildingBlock: AJUNOK_clean_linker_0, # of connection points: 2
#     Edge 252, Type (0, 0), BuildingBlock: AJUNOK_clean_linker_0, # of connection points: 2
#     Edge 253, Type (0, 0), BuildingBlock: AJUNOK_clean_linker_0, # of connection points: 2
#     Edge 254, Type (0, 0), BuildingBlock: AJUNOK_clean_linker_0, # of connection points: 2
#     Edge 255, Type (0, 0), BuildingBlock: AJUNOK_clean_linker_0, # of connection points: 2
#     Edge 256, Type (0, 0), BuildingBlock: AJUNOK_clean_linker_0, # of connection points: 2
#     Edge 257, Type (0, 0), BuildingBlock: AJUNOK_clean_linker_0, # of connection points: 2
#     Edge 258, Type (0, 0), BuildingBlock: AJUNOK_clean_linker_0, # of connection points: 2
#     Edge 259, Type (0, 0), BuildingBlock: AJUNOK_clean_linker_0, # of connection points: 2
#     Edge 260, Type (0, 0), BuildingBlock: AJUNOK_clean_linker_0, # of connection points: 2
#     Edge 261, Type (0, 0), BuildingBlock: AJUNOK_clean_linker_0, # of connection points: 2
#     Edge 262, Type (0, 0), BuildingBlock: AJUNOK_clean_linker_0, # of connection points: 2
#     Edge 263, Type (0, 0), BuildingBlock: AJUNOK_clean_linker_0, # of connection points: 2
#     Edge 264, Type (0, 0), BuildingBlock: AJUNOK_clean_linker_0, # of connection points: 2
#     Edge 265, Type (0, 0), BuildingBlock: AJUNOK_clean_linker_0, # of connection points: 2
#     Edge 266, Type (0, 0), BuildingBlock: AJUNOK_clean_linker_0, # of connection points: 2
#     Edge 267, Type (0, 0), BuildingBlock: AJUNOK_clean_linker_0, # of connection points: 2
#     Edge 268, Type (0, 0), BuildingBlock: AJUNOK_clean_linker_0, # of connection points: 2
#     Edge 269, Type (0, 0), BuildingBlock: AJUNOK_clean_linker_0, # of connection points: 2
#     Edge 270, Type (0, 0), BuildingBlock: AJUNOK_clean_linker_0, # of connection points: 2
#     Edge 271, Type (0, 0), BuildingBlock: AJUNOK_clean_linker_0, # of connection points: 2
#     Edge 272, Type (0, 0), BuildingBlock: AJUNOK_clean_linker_0, # of connection points: 2
#     Edge 273, Type (0, 0), BuildingBlock: AJUNOK_clean_linker_0, # of connection points: 2
#     Edge 274, Type (0, 0), BuildingBlock: AJUNOK_clean_linker_0, # of connection points: 2
#     Edge 275, Type (0, 0), BuildingBlock: AJUNOK_clean_linker_0, # of connection points: 2
#     Edge 276, Type (0, 0), BuildingBlock: AJUNOK_clean_linker_0, # of connection points: 2
#     Edge 277, Type (0, 0), BuildingBlock: AJUNOK_clean_linker_0, # of connection points: 2
#     Edge 278, Type (0, 0), BuildingBlock: AJUNOK_clean_linker_0, # of connection points: 2
#     Edge 279, Type (0, 0), BuildingBlock: AJUNOK_clean_linker_0, # of connection points: 2
#     Edge 280, Type (0, 0), BuildingBlock: AJUNOK_clean_linker_0, # of connection points: 2
#     Edge 281, Type (0, 0), BuildingBlock: AJUNOK_clean_linker_0, # of connection points: 2
#     Edge 282, Type (0, 0), BuildingBlock: AJUNOK_clean_linker_0, # of connection points: 2
#     Edge 283, Type (0, 0), BuildingBlock: AJUNOK_clean_linker_0, # of connection points: 2
#     Edge 284, Type (0, 0), BuildingBlock: AJUNOK_clean_linker_0, # of connection points: 2
#     Edge 285, Type (0, 0), BuildingBlock: AJUNOK_clean_linker_0, # of connection points: 2
#     Edge 286, Type (0, 0), BuildingBlock: AJUNOK_clean_linker_0, # of connection points: 2
#     Edge 287, Type (0, 0), BuildingBlock: AJUNOK_clean_linker_0, # of connection points: 2
# Relax obj value: 0.153
# Max RMSD: 0.095
# Mean RMSD: 0.095
data_MOF--net-kfi--node1-QUQFOY_clean_sbu_3--edge1-AJUNOK_clean_linker_0
_symmetry_space_group_name_H-M    P1
_symmetry_Int_Tables_number       1
_symmetry_cell_setting            triclinic
loop_
_symmetry_equiv_pos_as_xyz
'x, y, z'
_cell_length_a     67.408573
_cell_length_b     67.416731
_cell_length_c     67.397562
_cell_angle_alpha  90.051048
_cell_angle_beta   90.022249
_cell_angle_gamma 89.945962
loop_
_atom_site_label
_atom_site_type_symbol
_atom_site_fract_x
_atom_site_fract_y
_atom_site_fract_z
_atom_type_partial_charge
C0 C 0.10741 0.16502 0.28995 0.0
O1 O 0.11247 0.17788 0.27718 0.0
Cd2 Cd 0.10275 0.21172 0.27706 0.0
O3 O 0.09461 0.16915 0.30326 0.0
Cd4 Cd 0.07258 0.19785 0.31126 0.0
C5 C 0.1129 0.22293 0.32622 0.0
O6 O 0.0677 0.21138 0.27816 0.0
O7 O 0.05998 0.23094 0.30202 0.0
O8 O 0.0446 0.17547 0.31344 0.0
C9 C 0.06074 0.22799 0.28348 0.0
O10 O 0.11681 0.22492 0.30783 0.0
C11 C 0.03814 0.18206 0.32987 0.0
O12 O 0.09796 0.21289 0.33193 0.0
O13 O 0.04849 0.19538 0.33828 0.0
C14 C 0.82566 0.10919 0.28898 0.0
O15 O 0.81254 0.11378 0.27627 0.0
Cd16 Cd 0.77946 0.10209 0.27564 0.0
O17 O 0.82217 0.09612 0.3022 0.0
Cd18 Cd 0.79415 0.07317 0.30966 0.0
C19 C 0.76645 0.11185 0.32428 0.0
O20 O 0.78262 0.06709 0.27624 0.0
O21 O 0.76196 0.05916 0.29904 0.0
O22 O 0.81693 0.04554 0.31221 0.0
C23 C 0.7663 0.05908 0.28075 0.0
O24 O 0.7645 0.11564 0.30586 0.0
C25 C 0.80987 0.03891 0.32835 0.0
O26 O 0.77732 0.09756 0.33012 0.0
O27 O 0.79646 0.04927 0.33662 0.0
C28 C 0.87942 0.82417 0.29681 0.0
O29 O 0.87528 0.81314 0.28211 0.0
Cd30 Cd 0.88656 0.77967 0.27959 0.0
O31 O 0.8916 0.81849 0.31009 0.0
Cd32 Cd 0.91463 0.79058 0.31636 0.0
C33 C 0.87454 0.76313 0.32685 0.0
O34 O 0.92166 0.78097 0.28245 0.0
O35 O 0.92991 0.7596 0.30458 0.0
O36 O 0.94059 0.81478 0.32101 0.0
C37 C 0.92971 0.76447 0.28643 0.0
O38 O 0.87146 0.76307 0.30819 0.0
C39 C 0.94722 0.80745 0.33703 0.0
O40 O 0.88911 0.7726 0.33425 0.0
O41 O 0.93785 0.79271 0.34412 0.0
C42 C 0.16407 0.87973 0.29738 0.0
O43 O 0.17491 0.87363 0.28324 0.0
Cd44 Cd 0.2094 0.88171 0.28097 0.0
O45 O 0.17046 0.89261 0.30964 0.0
Cd46 Cd 0.19967 0.9144 0.31417 0.0
C47 C 0.2231 0.87369 0.33003 0.0
O48 O 0.21249 0.91683 0.28034 0.0
O49 O 0.23271 0.92482 0.30375 0.0
O50 O 0.17775 0.94279 0.31486 0.0
C51 C 0.22948 0.92326 0.2853 0.0
O52 O 0.22353 0.86857 0.31181 0.0
C53 C 0.18443 0.95006 0.33091 0.0
O54 O 0.2145 0.88961 0.33546 0.0
O55 O 0.1979 0.9402 0.3397 0.0
C56 C 0.1177 0.82341 0.70347 0.0
O57 O 0.1237 0.80882 0.71374 0.0
Cd58 Cd 0.1107 0.77609 0.7134 0.0
O59 O 0.103 0.82167 0.69169 0.0
Cd60 Cd 0.07894 0.79478 0.68394 0.0
C61 C 0.1137 0.76494 0.66368 0.0
O62 O 0.07599 0.78115 0.71714 0.0
O63 O 0.06364 0.76302 0.6941 0.0
O64 O 0.05143 0.81821 0.68393 0.0
C65 C 0.06629 0.7658 0.7125 0.0
O66 O 0.11937 0.76121 0.68133 0.0
C67 C 0.04465 0.81289 0.66717 0.0
O68 O 0.10014 0.77766 0.66045 0.0
O69 O 0.05451 0.79982 0.65783 0.0
C70 C 0.16796 0.10586 0.69021 0.0
O71 O 0.17891 0.11059 0.70479 0.0
Cd72 Cd 0.21215 0.09877 0.70811 0.0
O73 O 0.17346 0.0927 0.67781 0.0
Cd74 Cd 0.20096 0.06891 0.6728 0.0
C75 C 0.22886 0.10807 0.66031 0.0
O76 O 0.21027 0.06349 0.70715 0.0
O77 O 0.23166 0.05398 0.68551 0.0
O78 O 0.17638 0.04312 0.66893 0.0
C79 C 0.22662 0.05494 0.7036 0.0
O80 O 0.22896 0.11222 0.67877 0.0
C81 C 0.18394 0.03555 0.65343 0.0
O82 O 0.21913 0.09328 0.65374 0.0
O83 O 0.19892 0.04438 0.64616 0.0
C84 C 0.88326 0.15957 0.6816 0.0
O85 O 0.90023 0.15688 0.68902 0.0
Cd86 Cd 0.91109 0.19031 0.67755 0.0
O87 O 0.8809 0.17501 0.67135 0.0
Cd88 Cd 0.91415 0.19426 0.67076 0.0
C89 C 0.88442 0.21816 0.65113 0.0
O90 O 0.92139 0.20545 0.70622 0.0
O91 O 0.92301 0.22794 0.68381 0.0
O92 O 0.93896 0.16691 0.67149 0.0
C93 C 0.92491 0.22336 0.70198 0.0
O94 O 0.88191 0.2125 0.66885 0.0
C95 C 0.94864 0.17354 0.65677 0.0
O96 O 0.9003 0.21277 0.64274 0.0
O97 O 0.94162 0.18879 0.64825 0.0
C98 C 0.82445 0.88629 0.68788 0.0
O99 O 0.81358 0.88136 0.70243 0.0
Cd100 Cd 0.77988 0.89145 0.70558 0.0
O101 O 0.81833 0.8986 0.67491 0.0
Cd102 Cd 0.78933 0.92078 0.66982 0.0
C103 C 0.76262 0.88055 0.65826 0.0
O104 O 0.78061 0.92665 0.70425 0.0
O105 O 0.75817 0.93465 0.68311 0.0
O106 O 0.8129 0.94736 0.66562 0.0
C107 C 0.76383 0.93443 0.70104 0.0
O108 O 0.76309 0.87685 0.6768 0.0
C109 C 0.80475 0.95485 0.65041 0.0
O110 O 0.7717 0.89549 0.65116 0.0
O111 O 0.7899 0.94562 0.64333 0.0
C112 C 0.29004 0.10818 0.1699 0.0
O113 O 0.27792 0.11206 0.18379 0.0
Cd114 Cd 0.27885 0.09901 0.21635 0.0
O115 O 0.30374 0.09534 0.17229 0.0
Cd116 Cd 0.31363 0.07171 0.19897 0.0
C117 C 0.32762 0.10981 0.22795 0.0
O118 O 0.28083 0.06433 0.211 0.0
O119 O 0.3042 0.05519 0.23048 0.0
O120 O 0.31699 0.04567 0.17451 0.0
C121 C 0.28579 0.05544 0.22673 0.0
O122 O 0.30918 0.11295 0.23071 0.0
C123 C 0.33357 0.03938 0.18087 0.0
O124 O 0.33351 0.09617 0.2163 0.0
O125 O 0.34158 0.04922 0.19481 0.0
C126 C 0.87938 0.29058 0.16374 0.0
O127 O 0.87553 0.27793 0.17713 0.0
Cd128 Cd 0.88839 0.2779 0.20992 0.0
O129 O 0.8922 0.30416 0.16673 0.0
Cd130 Cd 0.91563 0.31301 0.19398 0.0
C131 C 0.87725 0.32623 0.2229 0.0
O132 O 0.9233 0.28 0.20593 0.0
O133 O 0.93119 0.30367 0.22573 0.0
O134 O 0.94252 0.31679 0.1705 0.0
C135 C 0.93178 0.2853 0.22182 0.0
O136 O 0.8742 0.30772 0.22518 0.0
C137 C 0.94843 0.33335 0.17728 0.0
O138 O 0.8909 0.33244 0.21145 0.0
O139 O 0.93791 0.34118 0.19081 0.0
C140 C 0.66992 0.89077 0.16022 0.0
O141 O 0.68258 0.90446 0.16189 0.0
Cd142 Cd 0.67057 0.91303 0.19522 0.0
O143 O 0.6574 0.88919 0.1741 0.0
Cd144 Cd 0.66237 0.91719 0.20018 0.0
C145 C 0.64243 0.88428 0.21934 0.0
O146 O 0.69871 0.91935 0.21246 0.0
O147 O 0.67588 0.91954 0.23463 0.0
O148 O 0.66459 0.94475 0.1763 0.0
C149 C 0.69426 0.92047 0.23067 0.0
O150 O 0.65958 0.88178 0.2121 0.0
C151 C 0.65124 0.95517 0.18453 0.0
O152 O 0.63472 0.9013 0.21735 0.0
O153 O 0.64283 0.94772 0.19965 0.0
C154 C 0.10464 0.70251 0.17462 0.0
O155 O 0.10823 0.71502 0.18825 0.0
Cd156 Cd 0.09595 0.71377 0.22107 0.0
O157 O 0.09196 0.68872 0.17729 0.0
Cd158 Cd 0.06789 0.67865 0.20368 0.0
C159 C 0.10739 0.66431 0.23027 0.0
O160 O 0.06128 0.71099 0.21733 0.0
O161 O 0.05326 0.68698 0.23645 0.0
O162 O 0.04199 0.67653 0.17886 0.0
C163 C 0.05373 0.70554 0.23359 0.0
O164 O 0.11037 0.68274 0.23326 0.0
C165 C 0.0352 0.65993 0.18459 0.0
O166 O 0.0932 0.65838 0.2193 0.0
O167 O 0.04438 0.65145 0.19871 0.0
C168 C 0.29244 0.88882 0.82118 0.0
O169 O 0.2796 0.88604 0.80769 0.0
Cd170 Cd 0.28103 0.89852 0.77496 0.0
O171 O 0.30739 0.90004 0.81818 0.0
Cd172 Cd 0.31872 0.92278 0.79104 0.0
C173 C 0.32862 0.88327 0.76231 0.0
O174 O 0.28622 0.93282 0.77998 0.0
O175 O 0.30944 0.93956 0.75947 0.0
O176 O 0.32414 0.94762 0.81635 0.0
C177 C 0.29124 0.94101 0.76392 0.0
O178 O 0.30988 0.88204 0.7602 0.0
C179 C 0.34026 0.9542 0.80922 0.0
O180 O 0.33625 0.89646 0.7735 0.0
O181 O 0.34734 0.94489 0.79443 0.0
C182 C 0.10346 0.2876 0.81694 0.0
O183 O 0.10674 0.27426 0.80403 0.0
Cd184 Cd 0.09503 0.27418 0.77099 0.0
O185 O 0.0914 0.30176 0.81338 0.0
Cd186 Cd 0.06795 0.3115 0.78624 0.0
C187 C 0.10824 0.32291 0.7595 0.0
O188 O 0.06065 0.27876 0.77422 0.0
O189 O 0.05338 0.30188 0.75375 0.0
O190 O 0.04218 0.31468 0.81094 0.0
C191 C 0.05347 0.28348 0.75756 0.0
O192 O 0.11028 0.30421 0.75758 0.0
C193 C 0.03501 0.3308 0.80434 0.0
O194 O 0.09419 0.33019 0.76988 0.0
O195 O 0.04418 0.33881 0.78995 0.0
C196 C 0.69731 0.103 0.82668 0.0
O197 O 0.70976 0.10692 0.81312 0.0
Cd198 Cd 0.70982 0.09462 0.78025 0.0
O199 O 0.68344 0.09042 0.82385 0.0
Cd200 Cd 0.67419 0.06663 0.79677 0.0
C201 C 0.66092 0.10492 0.7675 0.0
O202 O 0.70737 0.06009 0.7851 0.0
O203 O 0.68454 0.05024 0.76541 0.0
O204 O 0.67113 0.04059 0.82131 0.0
C205 C 0.70292 0.05129 0.76917 0.0
O206 O 0.67946 0.10809 0.76554 0.0
C207 C 0.65509 0.03345 0.81449 0.0
O208 O 0.65457 0.09118 0.77879 0.0
O209 O 0.64699 0.04292 0.80035 0.0
C210 C 0.87303 0.70173 0.82078 0.0
O211 O 0.8673 0.71328 0.80704 0.0
Cd212 Cd 0.87962 0.71406 0.77396 0.0
O213 O 0.88723 0.68959 0.81791 0.0
Cd214 Cd 0.91045 0.68222 0.79039 0.0
C215 C 0.87395 0.665 0.76095 0.0
O216 O 0.91464 0.71552 0.77732 0.0
O217 O 0.92536 0.69215 0.75853 0.0
O218 O 0.93775 0.68109 0.81378 0.0
C219 C 0.92342 0.71061 0.76147 0.0
O220 O 0.8692 0.68308 0.75819 0.0
C221 C 0.94418 0.66429 0.80819 0.0
O222 O 0.88774 0.6604 0.77302 0.0
O223 O 0.93425 0.65542 0.79485 0.0
C224 C 0.15553 0.3194 0.09728 0.0
O225 O 0.15549 0.30767 0.08268 0.0
Cd226 Cd 0.18919 0.31753 0.07302 0.0
O227 O 0.17048 0.33059 0.09895 0.0
Cd228 Cd 0.19388 0.3248 0.0688 0.0
C229 C 0.21728 0.34359 0.09973 0.0
O230 O 0.20343 0.28797 0.06544 0.0
O231 O 0.2271 0.30907 0.06311 0.0
O232 O 0.16834 0.32355 0.04257 0.0
C233 C 0.22167 0.29105 0.06244 0.0
O234 O 0.20905 0.32706 0.10316 0.0
C235 C 0.17648 0.33666 0.03183 0.0
O236 O 0.21419 0.35124 0.08288 0.0
O237 O 0.19202 0.34477 0.03875 0.0
C238 C 0.15697 0.67137 0.89257 0.0
O239 O 0.15717 0.68292 0.90729 0.0
Cd240 Cd 0.19152 0.67403 0.91577 0.0
O241 O 0.17226 0.66078 0.89011 0.0
Cd242 Cd 0.19549 0.66763 0.92019 0.0
C243 C 0.21909 0.64573 0.89134 0.0
O244 O 0.2058 0.70428 0.92076 0.0
O245 O 0.22885 0.68295 0.92585 0.0
O246 O 0.17024 0.67144 0.94661 0.0
C247 C 0.22384 0.70107 0.92478 0.0
O248 O 0.21131 0.66206 0.88628 0.0
C249 C 0.17771 0.65823 0.95774 0.0
O250 O 0.2154 0.63971 0.90871 0.0
O251 O 0.19271 0.64904 0.95102 0.0
C252 C 0.29147 0.16284 0.88321 0.0
O253 O 0.27955 0.17655 0.87822 0.0
Cd254 Cd 0.27828 0.20907 0.89128 0.0
O255 O 0.30384 0.16536 0.89732 0.0
Cd256 Cd 0.31055 0.1926 0.92159 0.0
C257 C 0.3274 0.22195 0.88494 0.0
O258 O 0.27675 0.20364 0.92595 0.0
O259 O 0.29852 0.22421 0.93641 0.0
O260 O 0.31243 0.16884 0.94854 0.0
C261 C 0.28035 0.21964 0.93498 0.0
O262 O 0.30923 0.22466 0.88047 0.0
C263 C 0.32808 0.17601 0.95619 0.0
O264 O 0.33222 0.21011 0.89883 0.0
O265 O 0.33644 0.18995 0.9467 0.0
C266 C 0.82352 0.29046 0.88599 0.0
O267 O 0.8107 0.27717 0.88229 0.0
Cd268 Cd 0.77744 0.27686 0.89353 0.0
O269 O 0.81965 0.30456 0.89804 0.0
Cd270 Cd 0.79168 0.31375 0.92069 0.0
C271 C 0.76474 0.32499 0.88022 0.0
O272 O 0.78045 0.28062 0.92823 0.0
O273 O 0.75976 0.30343 0.93595 0.0
O274 O 0.81567 0.31843 0.94698 0.0
C275 C 0.76401 0.28512 0.93602 0.0
O276 O 0.76309 0.30631 0.87783 0.0
C277 C 0.80844 0.33463 0.95333 0.0
O278 O 0.77495 0.33209 0.89446 0.0
O279 O 0.79406 0.34189 0.94353 0.0
C280 C 0.69985 0.82036 0.87994 0.0
O281 O 0.71164 0.80612 0.87625 0.0
Cd282 Cd 0.71184 0.77443 0.89174 0.0
O283 O 0.6868 0.81879 0.89353 0.0
Cd284 Cd 0.67761 0.79309 0.91832 0.0
C285 C 0.66362 0.76042 0.88297 0.0
O286 O 0.71066 0.78154 0.92627 0.0
O287 O 0.68707 0.76274 0.93641 0.0
O288 O 0.67401 0.818 0.944 0.0
C289 C 0.70547 0.76654 0.93625 0.0
O290 O 0.68202 0.7573 0.87999 0.0
C291 C 0.6572 0.81197 0.94995 0.0
O292 O 0.65796 0.7736 0.89528 0.0
O293 O 0.64921 0.7981 0.94001 0.0
C294 C 0.82182 0.70031 0.10648 0.0
O295 O 0.80897 0.71334 0.11098 0.0
Cd296 Cd 0.77529 0.71347 0.1009 0.0
O297 O 0.81778 0.68659 0.09408 0.0
Cd298 Cd 0.78964 0.67764 0.07173 0.0
C299 C 0.76415 0.66444 0.11246 0.0
O300 O 0.77673 0.71064 0.06607 0.0
O301 O 0.75694 0.6872 0.0579 0.0
O302 O 0.81326 0.67482 0.04486 0.0
C303 C 0.76015 0.70569 0.05885 0.0
O304 O 0.76222 0.68298 0.11561 0.0
C305 C 0.80685 0.65839 0.03826 0.0
O306 O 0.77407 0.65802 0.0977 0.0
O307 O 0.79291 0.65027 0.048 0.0
C308 C 0.30109 0.82985 0.10307 0.0
O309 O 0.28579 0.81997 0.1078 0.0
Cd310 Cd 0.28116 0.78631 0.09849 0.0
O311 O 0.31371 0.82302 0.09076 0.0
Cd312 Cd 0.31697 0.79434 0.06773 0.0
C313 C 0.32893 0.76878 0.10845 0.0
O314 O 0.28237 0.7862 0.0635 0.0
O315 O 0.30262 0.76306 0.05527 0.0
O316 O 0.31988 0.81788 0.04101 0.0
C317 C 0.28481 0.76903 0.05634 0.0
O318 O 0.31047 0.76989 0.11239 0.0
C319 C 0.33445 0.80951 0.03253 0.0
O320 O 0.33603 0.77685 0.09291 0.0
O321 O 0.34193 0.79456 0.0413 0.0
C322 C 0.69631 0.16757 0.10076 0.0
O323 O 0.70919 0.18077 0.10452 0.0
Cd324 Cd 0.70887 0.21393 0.09307 0.0
O325 O 0.68202 0.17101 0.08882 0.0
Cd326 Cd 0.67221 0.19864 0.06605 0.0
C327 C 0.66055 0.2263 0.10592 0.0
O328 O 0.70516 0.21018 0.05841 0.0
O329 O 0.68213 0.2304 0.05015 0.0
O330 O 0.66781 0.17405 0.04033 0.0
C331 C 0.70049 0.22639 0.05026 0.0
O332 O 0.67919 0.2282 0.10848 0.0
C333 C 0.65169 0.18112 0.03359 0.0
O334 O 0.6537 0.21559 0.09193 0.0
O335 O 0.64427 0.19566 0.04304 0.0
C336 C 0.89437 0.83805 0.67758 0.0
O337 O 0.90811 0.83601 0.69012 0.0
Cd338 Cd 0.91871 0.80476 0.67534 0.0
O339 O 0.89381 0.82559 0.66354 0.0
Cd340 Cd 0.92286 0.80025 0.6674 0.0
C341 C 0.89117 0.7793 0.64711 0.0
O342 O 0.92555 0.78805 0.70354 0.0
O343 O 0.92592 0.76567 0.68096 0.0
O344 O 0.95056 0.82391 0.67081 0.0
C345 C 0.92701 0.76987 0.69928 0.0
O346 O 0.88827 0.78639 0.66427 0.0
C347 C 0.96116 0.81579 0.65754 0.0
O348 O 0.90798 0.78249 0.63938 0.0
O349 O 0.95343 0.80137 0.6482 0.0
C350 C 0.17423 0.88699 0.70397 0.0
O351 O 0.18781 0.88477 0.71683 0.0
Cd352 Cd 0.21996 0.89876 0.71548 0.0
O353 O 0.17664 0.89869 0.68928 0.0
Cd354 Cd 0.20254 0.92272 0.67809 0.0
C355 C 0.2317 0.88369 0.66773 0.0
O356 O 0.21426 0.93298 0.71026 0.0
O357 O 0.23407 0.93984 0.68644 0.0
O358 O 0.1771 0.94746 0.67269 0.0
C359 C 0.23013 0.94126 0.70477 0.0
O360 O 0.23448 0.88248 0.68639 0.0
C361 C 0.18372 0.95335 0.65607 0.0
O362 O 0.22009 0.89671 0.66047 0.0
O363 O 0.19828 0.94374 0.64892 0.0
C364 C 0.09903 0.15571 0.67929 0.0
O365 O 0.08604 0.158 0.69257 0.0
Cd366 Cd 0.07283 0.18731 0.67608 0.0
O367 O 0.0983 0.16732 0.66455 0.0
Cd368 Cd 0.06786 0.19106 0.66732 0.0
C369 C 0.09856 0.21346 0.64687 0.0
O370 O 0.06229 0.20473 0.70264 0.0
O371 O 0.06088 0.22584 0.67892 0.0
O372 O 0.04153 0.16597 0.67027 0.0
C373 C 0.05911 0.22242 0.69735 0.0
O374 O 0.10203 0.20722 0.66426 0.0
C375 C 0.03187 0.17227 0.65539 0.0
O376 O 0.08197 0.20893 0.63938 0.0
O377 O 0.0395 0.18653 0.64578 0.0
C378 C 0.81666 0.10758 0.69567 0.0
O379 O 0.80394 0.11214 0.70879 0.0
Cd380 Cd 0.77218 0.09742 0.71277 0.0
O381 O 0.81358 0.09348 0.68343 0.0
Cd382 Cd 0.78674 0.06922 0.67638 0.0
C383 C 0.75706 0.10803 0.66503 0.0
O384 O 0.77733 0.06267 0.71025 0.0
O385 O 0.75661 0.05225 0.6885 0.0
O386 O 0.81131 0.04365 0.67048 0.0
C387 C 0.76142 0.05341 0.70664 0.0
O388 O 0.75543 0.1109 0.68365 0.0
C389 C 0.80355 0.03734 0.6545 0.0
O390 O 0.76806 0.09424 0.65824 0.0
O391 O 0.78857 0.0468 0.64805 0.0
C392 C 0.88619 0.16878 0.28987 0.0
O393 O 0.88261 0.18169 0.27663 0.0
Cd394 Cd 0.89456 0.21458 0.27611 0.0
O395 O 0.89844 0.17236 0.30386 0.0
Cd396 Cd 0.92179 0.19981 0.31284 0.0
C397 C 0.88208 0.22752 0.32458 0.0
O398 O 0.92906 0.21026 0.27958 0.0
O399 O 0.93707 0.23152 0.30174 0.0
O400 O 0.94749 0.17509 0.31653 0.0
C401 C 0.93711 0.22668 0.28356 0.0
O402 O 0.87969 0.22913 0.30589 0.0
C403 C 0.95504 0.18242 0.33215 0.0
O404 O 0.89613 0.21704 0.33169 0.0
O405 O 0.94595 0.19707 0.33983 0.0
C406 C 0.82702 0.89079 0.30843 0.0
O407 O 0.82389 0.90459 0.2962 0.0
Cd408 Cd 0.7929 0.91372 0.31254 0.0
O409 O 0.81514 0.88941 0.32289 0.0
Cd410 Cd 0.78868 0.91753 0.3209 0.0
C411 C 0.77054 0.88488 0.34207 0.0
O412 O 0.77445 0.92078 0.28543 0.0
O413 O 0.75332 0.91923 0.3091 0.0
O414 O 0.8123 0.94528 0.31812 0.0
C415 C 0.75645 0.92104 0.29062 0.0
O416 O 0.77655 0.88238 0.32444 0.0
C417 C 0.80466 0.95531 0.33212 0.0
O418 O 0.77333 0.90181 0.34968 0.0
O419 O 0.78999 0.94757 0.34103 0.0
C420 C 0.09475 0.83202 0.31266 0.0
O421 O 0.08033 0.82956 0.30099 0.0
Cd422 Cd 0.07025 0.79942 0.3181 0.0
O423 O 0.09597 0.8203 0.32729 0.0
Cd424 Cd 0.06665 0.79483 0.32705 0.0
C425 C 0.10046 0.77389 0.34357 0.0
O426 O 0.05851 0.7825 0.29172 0.0
O427 O 0.06198 0.76014 0.314 0.0
O428 O 0.03895 0.81855 0.32824 0.0
C429 C 0.05784 0.76432 0.29612 0.0
O430 O 0.10158 0.78073 0.32611 0.0
C431 C 0.03021 0.81007 0.3426 0.0
O432 O 0.08457 0.77724 0.35299 0.0
O433 O 0.03904 0.79532 0.35031 0.0
C434 C 0.16586 0.10344 0.29203 0.0
O435 O 0.17923 0.1073 0.27936 0.0
Cd436 Cd 0.21226 0.09553 0.27955 0.0
O437 O 0.169 0.09093 0.3059 0.0
Cd438 Cd 0.19666 0.0677 0.31492 0.0
C439 C 0.22448 0.10678 0.3283 0.0
O440 O 0.20876 0.0608 0.28195 0.0
O441 O 0.22899 0.05315 0.3052 0.0
O442 O 0.17324 0.0407 0.31749 0.0
C443 C 0.2251 0.053 0.28682 0.0
O444 O 0.22651 0.1098 0.30974 0.0
C445 C 0.18037 0.03354 0.33338 0.0
O446 O 0.21355 0.09278 0.33471 0.0
O447 O 0.19397 0.04353 0.34178 0.0
C448 C 0.70249 0.88233 0.82081 0.0
O449 O 0.7158 0.8796 0.80775 0.0
Cd450 Cd 0.71623 0.89355 0.77549 0.0
O451 O 0.68856 0.89484 0.81793 0.0
Cd452 Cd 0.67886 0.91957 0.79214 0.0
C453 C 0.66791 0.88067 0.76281 0.0
O454 O 0.71165 0.92784 0.78073 0.0
O455 O 0.68837 0.93664 0.76101 0.0
O456 O 0.67456 0.94435 0.8178 0.0
C457 C 0.70679 0.93642 0.76479 0.0
O458 O 0.6866 0.87873 0.76067 0.0
C459 C 0.65813 0.95096 0.81136 0.0
O460 O 0.66074 0.89409 0.77405 0.0
O461 O 0.65058 0.94187 0.79666 0.0
C462 C 0.09365 0.66963 0.83406 0.0
O463 O 0.0789 0.68114 0.83443 0.0
Cd464 Cd 0.06943 0.67248 0.80032 0.0
O465 O 0.09547 0.65891 0.81878 0.0
Cd466 Cd 0.06554 0.66599 0.79543 0.0
C467 C 0.09502 0.64594 0.77163 0.0
O468 O 0.064 0.70312 0.78722 0.0
O469 O 0.06235 0.68312 0.76254 0.0
O470 O 0.03813 0.66755 0.81985 0.0
C471 C 0.0621 0.70091 0.7687 0.0
O472 O 0.09927 0.6621 0.78024 0.0
C473 C 0.0274 0.65507 0.81071 0.0
O474 O 0.07785 0.63906 0.77462 0.0
O475 O 0.03487 0.64715 0.79534 0.0
C476 C 0.29157 0.10266 0.82295 0.0
O477 O 0.27798 0.10584 0.81028 0.0
Cd478 Cd 0.27619 0.09346 0.77743 0.0
O479 O 0.3057 0.09062 0.8192 0.0
Cd480 Cd 0.31491 0.06744 0.79177 0.0
C481 C 0.32362 0.10719 0.76264 0.0
O482 O 0.28166 0.05925 0.78175 0.0
O483 O 0.30392 0.0504 0.76096 0.0
O484 O 0.32133 0.04219 0.81643 0.0
C485 C 0.28568 0.05085 0.76549 0.0
O486 O 0.30484 0.10901 0.76146 0.0
C487 C 0.33753 0.03619 0.8089 0.0
O488 O 0.33146 0.09368 0.77329 0.0
O489 O 0.34396 0.0458 0.79403 0.0
C490 C 0.8833 0.28925 0.82566 0.0
O491 O 0.87911 0.27585 0.8131 0.0
Cd492 Cd 0.88945 0.27451 0.77954 0.0
O493 O 0.89559 0.303 0.82142 0.0
Cd494 Cd 0.91797 0.31107 0.79293 0.0
C495 C 0.87754 0.32296 0.7663 0.0
O496 O 0.92417 0.27779 0.78095 0.0
O497 O 0.9314 0.30083 0.76037 0.0
O498 O 0.9456 0.31455 0.81559 0.0
C499 C 0.93105 0.28243 0.76414 0.0
O500 O 0.87471 0.30431 0.76501 0.0
C501 C 0.95206 0.33067 0.80831 0.0
O502 O 0.89196 0.32995 0.77634 0.0
O503 O 0.94165 0.33853 0.79471 0.0
C504 C 0.69772 0.10799 0.16083 0.0
O505 O 0.71048 0.11259 0.17389 0.0
Cd506 Cd 0.71125 0.10144 0.20714 0.0
O507 O 0.68412 0.09538 0.16454 0.0
Cd508 Cd 0.6764 0.07295 0.19307 0.0
C509 C 0.66299 0.11209 0.22087 0.0
O510 O 0.70989 0.06649 0.20417 0.0
O511 O 0.68734 0.05904 0.22525 0.0
O512 O 0.6728 0.0449 0.17088 0.0
C513 C 0.70556 0.05871 0.22065 0.0
O514 O 0.6815 0.11557 0.22249 0.0
C515 C 0.65669 0.03875 0.17841 0.0
O516 O 0.65672 0.09788 0.21013 0.0
O517 O 0.6489 0.04956 0.19175 0.0
C518 C 0.88323 0.69972 0.16515 0.0
O519 O 0.87934 0.7127 0.17825 0.0
Cd520 Cd 0.89091 0.71329 0.21138 0.0
O521 O 0.89571 0.68588 0.16858 0.0
Cd522 Cd 0.91892 0.67698 0.19619 0.0
C523 C 0.87927 0.66462 0.22391 0.0
O524 O 0.9255 0.71014 0.20781 0.0
O525 O 0.93406 0.68731 0.2281 0.0
O526 O 0.94564 0.67378 0.17246 0.0
C527 C 0.93349 0.70567 0.22415 0.0
O528 O 0.8765 0.68324 0.22571 0.0
C529 C 0.95256 0.65773 0.17949 0.0
O530 O 0.89341 0.65785 0.21333 0.0
O531 O 0.94269 0.64969 0.19338 0.0
C532 C 0.31557 0.89402 0.15732 0.0
O533 O 0.30476 0.90911 0.15964 0.0
Cd534 Cd 0.31811 0.91535 0.19276 0.0
O535 O 0.32824 0.89056 0.17073 0.0
Cd536 Cd 0.32555 0.91868 0.19717 0.0
C537 C 0.34465 0.88542 0.21686 0.0
O538 O 0.28914 0.92188 0.20855 0.0
O539 O 0.31117 0.92232 0.23145 0.0
O540 O 0.32462 0.94659 0.1735 0.0
C541 C 0.29294 0.92343 0.22683 0.0
O542 O 0.32763 0.88321 0.20921 0.0
C543 C 0.33848 0.95621 0.18184 0.0
O544 O 0.35264 0.90227 0.21491 0.0
O545 O 0.34657 0.94812 0.1968 0.0
C546 C 0.09554 0.31993 0.15918 0.0
O547 O 0.08082 0.30838 0.15965 0.0
Cd548 Cd 0.07238 0.31857 0.19362 0.0
O549 O 0.0978 0.33121 0.17399 0.0
Cd550 Cd 0.06841 0.32619 0.19849 0.0
C551 C 0.10102 0.34424 0.22025 0.0
O552 O 0.06505 0.2893 0.20834 0.0
O553 O 0.0628 0.31073 0.23178 0.0
O554 O 0.04177 0.32592 0.17338 0.0
C555 C 0.06218 0.29263 0.22658 0.0
O556 O 0.10343 0.32745 0.21218 0.0
C557 C 0.03152 0.33931 0.18177 0.0
O558 O 0.08427 0.35242 0.21796 0.0
O559 O 0.03877 0.34694 0.19741 0.0
C560 C 0.81856 0.70156 0.88653 0.0
O561 O 0.80527 0.71476 0.88453 0.0
Cd562 Cd 0.77358 0.71505 0.89934 0.0
O563 O 0.81627 0.68728 0.89876 0.0
Cd564 Cd 0.79084 0.67735 0.92397 0.0
C565 C 0.7605 0.66703 0.88575 0.0
O566 O 0.78065 0.71013 0.93317 0.0
O567 O 0.75993 0.68762 0.94134 0.0
O568 O 0.81646 0.6723 0.94862 0.0
C569 C 0.76466 0.7058 0.94187 0.0
O570 O 0.75823 0.68575 0.88436 0.0
C571 C 0.80918 0.65641 0.95562 0.0
O572 O 0.77222 0.65963 0.89861 0.0
O573 O 0.79439 0.64918 0.94643 0.0
C574 C 0.81919 0.29068 0.10319 0.0
O575 O 0.80616 0.27748 0.1064 0.0
Cd576 Cd 0.77327 0.27784 0.09404 0.0
O577 O 0.81578 0.30485 0.09111 0.0
Cd578 Cd 0.78874 0.31481 0.06772 0.0
C579 C 0.76124 0.32609 0.10774 0.0
O580 O 0.77723 0.282 0.05947 0.0
O581 O 0.75704 0.30521 0.05156 0.0
O582 O 0.81376 0.3191 0.04241 0.0
C583 C 0.76105 0.28685 0.05131 0.0
O584 O 0.75922 0.30741 0.10981 0.0
C585 C 0.80696 0.33534 0.03571 0.0
O586 O 0.77181 0.33321 0.09379 0.0
O587 O 0.79232 0.34284 0.04493 0.0
C588 C 0.67047 0.83118 0.09787 0.0
O589 O 0.68281 0.83066 0.08379 0.0
Cd590 Cd 0.67181 0.79737 0.07396 0.0
O591 O 0.65852 0.81679 0.09907 0.0
Cd592 Cd 0.66372 0.7925 0.06948 0.0
C593 C 0.6457 0.77045 0.10198 0.0
O594 O 0.70043 0.78189 0.06572 0.0
O595 O 0.67844 0.75906 0.06306 0.0
O596 O 0.66446 0.81766 0.04302 0.0
C597 C 0.69664 0.76382 0.06239 0.0
O598 O 0.6625 0.77841 0.1046 0.0
C599 C 0.65077 0.8097 0.03284 0.0
O600 O 0.63761 0.77299 0.08522 0.0
O601 O 0.6427 0.79433 0.04012 0.0
C602 C 0.16599 0.70162 0.11522 0.0
O603 O 0.18073 0.71204 0.12062 0.0
Cd604 Cd 0.21287 0.7127 0.10618 0.0
O605 O 0.16719 0.69017 0.10021 0.0
Cd606 Cd 0.19338 0.68287 0.07519 0.0
C607 C 0.22497 0.66323 0.10885 0.0
O608 O 0.20627 0.71627 0.07175 0.0
O609 O 0.2243 0.69349 0.05873 0.0
O610 O 0.16967 0.68262 0.04796 0.0
C611 C 0.22122 0.71184 0.06132 0.0
O612 O 0.22866 0.68095 0.11429 0.0
C613 C 0.1751 0.6659 0.0412 0.0
O614 O 0.21178 0.65975 0.0958 0.0
O615 O 0.18806 0.65655 0.05118 0.0
C616 C 0.28739 0.16875 0.11025 0.0
O617 O 0.27508 0.18216 0.1151 0.0
Cd618 Cd 0.27532 0.21523 0.10348 0.0
O619 O 0.30037 0.17189 0.09685 0.0
Cd620 Cd 0.30864 0.19902 0.07313 0.0
C621 C 0.32508 0.2255 0.11198 0.0
O622 O 0.27547 0.21158 0.0686 0.0
O623 O 0.29828 0.23137 0.05883 0.0
O624 O 0.3099 0.17455 0.04683 0.0
C625 C 0.27989 0.22777 0.06032 0.0
O626 O 0.30684 0.22806 0.11625 0.0
C627 C 0.32606 0.18062 0.03933 0.0
O628 O 0.33022 0.21485 0.09725 0.0
O629 O 0.33473 0.19475 0.04831 0.0
C630 C 0.16381 0.28819 0.87734 0.0
O631 O 0.17794 0.27658 0.87279 0.0
Cd632 Cd 0.21003 0.27558 0.88732 0.0
O633 O 0.16566 0.30061 0.8915 0.0
Cd634 Cd 0.19211 0.30822 0.91615 0.0
C635 C 0.22379 0.32423 0.88093 0.0
O636 O 0.20369 0.2747 0.92197 0.0
O637 O 0.22297 0.29749 0.93291 0.0
O638 O 0.16808 0.31122 0.94282 0.0
C639 C 0.21907 0.27914 0.93173 0.0
O640 O 0.22686 0.30603 0.87681 0.0
C641 C 0.17434 0.32792 0.94888 0.0
O642 O 0.21088 0.32912 0.89379 0.0
O643 O 0.18802 0.33597 0.93877 0.0
C644 C 0.69934 0.1638 0.88584 0.0
O645 O 0.71304 0.17624 0.8824 0.0
Cd646 Cd 0.71372 0.20971 0.89323 0.0
O647 O 0.68488 0.16822 0.89722 0.0
Cd648 Cd 0.67551 0.19655 0.91923 0.0
C649 C 0.66638 0.22323 0.87809 0.0
O650 O 0.70848 0.20768 0.92783 0.0
O651 O 0.68541 0.22844 0.93464 0.0
O652 O 0.66981 0.17271 0.94532 0.0
C653 C 0.70371 0.22423 0.93529 0.0
O654 O 0.68516 0.22448 0.87633 0.0
C655 C 0.65355 0.18015 0.95126 0.0
O656 O 0.65857 0.21333 0.89216 0.0
O657 O 0.64669 0.19456 0.94122 0.0
C658 C 0.28758 0.82849 0.88042 0.0
O659 O 0.27474 0.81569 0.87534 0.0
Cd660 Cd 0.27392 0.7819 0.88513 0.0
O661 O 0.30094 0.82433 0.89316 0.0
Cd662 Cd 0.30865 0.79562 0.91521 0.0
C663 C 0.32279 0.76983 0.87498 0.0
O664 O 0.27544 0.78249 0.92015 0.0
O665 O 0.29911 0.76272 0.92786 0.0
O666 O 0.31212 0.81752 0.94356 0.0
C667 C 0.2806 0.76581 0.92704 0.0
O668 O 0.30438 0.76788 0.87115 0.0
C669 C 0.32859 0.8104 0.94935 0.0
O670 O 0.32862 0.78014 0.8897 0.0
O671 O 0.33632 0.79701 0.93857 0.0
C672 C 0.59635 0.65529 0.81239 0.0
O673 O 0.58193 0.65789 0.80076 0.0
Cd674 Cd 0.57299 0.68902 0.81691 0.0
O675 O 0.59811 0.66748 0.82658 0.0
Cd676 Cd 0.56933 0.6935 0.82537 0.0
C677 C 0.60268 0.71356 0.84369 0.0
O678 O 0.56328 0.70621 0.78979 0.0
O679 O 0.56548 0.72835 0.81249 0.0
O680 O 0.54122 0.67022 0.82515 0.0
C681 C 0.56242 0.72437 0.79435 0.0
O682 O 0.60458 0.70666 0.82631 0.0
C683 C 0.53221 0.67857 0.83944 0.0
O684 O 0.58624 0.71065 0.85223 0.0
O685 O 0.54096 0.69308 0.84764 0.0
C686 C 0.32868 0.60075 0.80586 0.0
O687 O 0.32745 0.58593 0.79453 0.0
Cd688 Cd 0.29667 0.57479 0.80998 0.0
O689 O 0.31597 0.60198 0.81959 0.0
Cd690 Cd 0.29343 0.5708 0.81684 0.0
C691 C 0.27048 0.59849 0.8404 0.0
O692 O 0.28052 0.56704 0.78137 0.0
O693 O 0.25858 0.56531 0.80424 0.0
O694 O 0.31851 0.54408 0.81323 0.0
C695 C 0.26257 0.56435 0.78586 0.0
O696 O 0.27615 0.60356 0.82321 0.0
C697 C 0.31199 0.53429 0.82794 0.0
O698 O 0.27598 0.58162 0.84637 0.0
O699 O 0.29766 0.5419 0.83746 0.0
C700 C 0.39518 0.32563 0.81918 0.0
O701 O 0.41041 0.32542 0.8083 0.0
Cd702 Cd 0.41907 0.29165 0.81892 0.0
O703 O 0.39279 0.31086 0.83045 0.0
Cd704 Cd 0.42264 0.28675 0.82627 0.0
C705 C 0.39022 0.26496 0.84424 0.0
O706 O 0.42721 0.27771 0.78945 0.0
O707 O 0.42743 0.25349 0.81002 0.0
O708 O 0.449 0.31214 0.82687 0.0
C709 C 0.42913 0.25928 0.79218 0.0
O710 O 0.38801 0.27271 0.82727 0.0
C711 C 0.45945 0.30331 0.83979 0.0
O712 O 0.40683 0.2675 0.85261 0.0
O713 O 0.45238 0.28737 0.84689 0.0
C714 C 0.66847 0.38441 0.78962 0.0
O715 O 0.68162 0.38083 0.77663 0.0
Cd716 Cd 0.71462 0.39255 0.77683 0.0
O717 O 0.67183 0.3966 0.80374 0.0
Cd718 Cd 0.69946 0.41959 0.81331 0.0
C719 C 0.72654 0.37948 0.82524 0.0
O720 O 0.71083 0.42717 0.78034 0.0
O721 O 0.73157 0.43449 0.80323 0.0
O722 O 0.6757 0.4462 0.81734 0.0
C723 C 0.72725 0.43492 0.78494 0.0
O724 O 0.72859 0.37711 0.80659 0.0
C725 C 0.68312 0.45297 0.83327 0.0
O726 O 0.71604 0.39361 0.83215 0.0
O727 O 0.69724 0.44306 0.8409 0.0
C728 C 0.60588 0.32496 0.19866 0.0
O729 O 0.61038 0.31154 0.21107 0.0
Cd730 Cd 0.5985 0.27852 0.21091 0.0
O731 O 0.59308 0.32177 0.18508 0.0
Cd732 Cd 0.56994 0.29403 0.17656 0.0
C733 C 0.60854 0.26593 0.16219 0.0
O734 O 0.56357 0.28254 0.20994 0.0
O735 O 0.55473 0.26219 0.18721 0.0
O736 O 0.54337 0.31801 0.17313 0.0
C737 C 0.55506 0.26645 0.20552 0.0
O738 O 0.6122 0.26378 0.18061 0.0
C739 C 0.53656 0.31098 0.15703 0.0
O740 O 0.59439 0.277 0.15636 0.0
O741 O 0.54628 0.29683 0.14924 0.0
C742 C 0.66709 0.60293 0.19956 0.0
O743 O 0.67991 0.60602 0.21301 0.0
Cd744 Cd 0.7129 0.59391 0.21315 0.0
O745 O 0.6708 0.59122 0.18514 0.0
Cd746 Cd 0.69821 0.56805 0.1756 0.0
C747 C 0.72582 0.60811 0.16531 0.0
O748 O 0.70951 0.55939 0.20845 0.0
O749 O 0.73016 0.55251 0.18532 0.0
O750 O 0.67351 0.54251 0.17101 0.0
C751 C 0.72591 0.55169 0.20361 0.0
O752 O 0.72753 0.60988 0.18406 0.0
C753 C 0.68051 0.53584 0.15485 0.0
O754 O 0.71528 0.59435 0.15776 0.0
O755 O 0.69506 0.54525 0.14745 0.0
C756 C 0.38296 0.66272 0.1877 0.0
O757 O 0.37867 0.67262 0.20314 0.0
Cd758 Cd 0.39058 0.7055 0.20851 0.0
O759 O 0.39596 0.66891 0.17548 0.0
Cd760 Cd 0.42027 0.69621 0.17235 0.0
C761 C 0.38123 0.72495 0.16153 0.0
O762 O 0.42564 0.70373 0.2071 0.0
O763 O 0.43506 0.72632 0.18675 0.0
O764 O 0.44565 0.67127 0.16828 0.0
C765 C 0.43391 0.72038 0.20456 0.0
O766 O 0.37753 0.72392 0.18005 0.0
C767 C 0.4539 0.67926 0.15336 0.0
O768 O 0.39587 0.71557 0.1541 0.0
O769 O 0.44558 0.69469 0.14638 0.0
C770 C 0.32429 0.37733 0.19951 0.0
O771 O 0.30964 0.37248 0.21029 0.0
Cd772 Cd 0.27754 0.38694 0.21013 0.0
O773 O 0.32293 0.39147 0.18703 0.0
Cd774 Cd 0.29663 0.41596 0.17845 0.0
C775 C 0.26496 0.38128 0.16112 0.0
O776 O 0.28446 0.42146 0.21175 0.0
O777 O 0.26585 0.43338 0.18896 0.0
O778 O 0.32079 0.44255 0.17559 0.0
C779 C 0.26931 0.43157 0.20734 0.0
O780 O 0.26132 0.3769 0.17914 0.0
C781 C 0.3147 0.4485 0.15878 0.0
O782 O 0.27817 0.39403 0.15686 0.0
O783 O 0.30109 0.43834 0.15066 0.0
C784 C 0.80947 0.59757 0.65582 0.0
O785 O 0.79649 0.58423 0.65782 0.0
Cd786 Cd 0.81166 0.57254 0.6884 0.0
O787 O 0.82379 0.59745 0.66799 0.0
Cd788 Cd 0.82089 0.56835 0.69335 0.0
C789 C 0.8375 0.60195 0.71459 0.0
O790 O 0.78475 0.56268 0.70557 0.0
O791 O 0.80759 0.56389 0.7277 0.0
O792 O 0.82149 0.54057 0.66967 0.0
C793 C 0.78936 0.56145 0.72371 0.0
O794 O 0.82025 0.60334 0.70728 0.0
C795 C 0.83584 0.53166 0.67803 0.0
O796 O 0.84677 0.5859 0.71155 0.0
O797 O 0.84355 0.54023 0.69293 0.0
C798 C 0.38649 0.79252 0.66253 0.0
O799 O 0.3822 0.77969 0.67561 0.0
Cd800 Cd 0.39271 0.77935 0.70901 0.0
O801 O 0.39864 0.80656 0.66623 0.0
Cd802 Cd 0.42112 0.81539 0.69457 0.0
C803 C 0.38097 0.82804 0.72144 0.0
O804 O 0.42738 0.78205 0.70581 0.0
O805 O 0.43565 0.80455 0.72661 0.0
O806 O 0.44835 0.81868 0.67144 0.0
C807 C 0.43525 0.78626 0.72228 0.0
O808 O 0.37796 0.80945 0.72304 0.0
C809 C 0.45542 0.83438 0.67906 0.0
O810 O 0.39546 0.8347 0.71131 0.0
O811 O 0.44539 0.84232 0.69292 0.0
C812 C 0.20032 0.37916 0.66461 0.0
O813 O 0.21339 0.37495 0.67751 0.0
Cd814 Cd 0.21445 0.3861 0.71075 0.0
O815 O 0.18694 0.39209 0.6682 0.0
Cd816 Cd 0.17899 0.41575 0.69569 0.0
C817 C 0.16503 0.37599 0.72216 0.0
O818 O 0.21209 0.42072 0.70815 0.0
O819 O 0.18911 0.42926 0.72832 0.0
O820 O 0.17731 0.44296 0.67233 0.0
C821 C 0.20753 0.42799 0.72482 0.0
O822 O 0.18355 0.37265 0.72409 0.0
C823 C 0.16116 0.45011 0.67888 0.0
O824 O 0.15876 0.39058 0.71191 0.0
O825 O 0.15253 0.44038 0.69252 0.0
C826 C 0.60404 0.19241 0.665 0.0
O827 O 0.60864 0.20526 0.67798 0.0
Cd828 Cd 0.59741 0.20639 0.71116 0.0
O829 O 0.59127 0.17896 0.66873 0.0
Cd830 Cd 0.56845 0.17114 0.69704 0.0
C831 C 0.60745 0.15783 0.72515 0.0
O832 O 0.56264 0.20488 0.70741 0.0
O833 O 0.55383 0.18314 0.72875 0.0
O834 O 0.54184 0.1679 0.67316 0.0
C835 C 0.55445 0.20127 0.72385 0.0
O836 O 0.61097 0.17636 0.72644 0.0
C837 C 0.53425 0.15245 0.68076 0.0
O838 O 0.5932 0.15138 0.71455 0.0
O839 O 0.54362 0.1447 0.69517 0.0
C840 C 0.79097 0.38507 0.32349 0.0
O841 O 0.77774 0.38131 0.31061 0.0
Cd842 Cd 0.77688 0.39323 0.27755 0.0
O843 O 0.80475 0.39752 0.31985 0.0
Cd844 Cd 0.81325 0.42067 0.29213 0.0
C845 C 0.82494 0.38115 0.26395 0.0
O846 O 0.78 0.42803 0.28079 0.0
O847 O 0.80294 0.43608 0.26038 0.0
O848 O 0.818 0.44714 0.31595 0.0
C849 C 0.7846 0.43601 0.26446 0.0
O850 O 0.80631 0.37832 0.26234 0.0
C851 C 0.8342 0.45338 0.30865 0.0
O852 O 0.83175 0.39512 0.27469 0.0
O853 O 0.84144 0.44335 0.29442 0.0
C854 C 0.60747 0.78639 0.32195 0.0
O855 O 0.61122 0.77449 0.30783 0.0
Cd856 Cd 0.59532 0.77315 0.27648 0.0
O857 O 0.59324 0.79881 0.3206 0.0
Cd858 Cd 0.5671 0.80635 0.29549 0.0
C859 C 0.60162 0.82208 0.263 0.0
O860 O 0.56103 0.77292 0.2841 0.0
O861 O 0.54961 0.7955 0.26493 0.0
O862 O 0.54194 0.80877 0.32112 0.0
C863 C 0.55111 0.77717 0.26878 0.0
O864 O 0.60533 0.80381 0.2599 0.0
C865 C 0.53465 0.82502 0.31498 0.0
O866 O 0.58904 0.82727 0.27611 0.0
O867 O 0.54355 0.83331 0.3006 0.0
C868 C 0.20445 0.60702 0.31818 0.0
O869 O 0.21654 0.6111 0.30434 0.0
Cd870 Cd 0.21467 0.59903 0.27142 0.0
O871 O 0.1908 0.59417 0.31564 0.0
Cd872 Cd 0.18075 0.57 0.28939 0.0
C873 C 0.16471 0.6091 0.26325 0.0
O874 O 0.21292 0.56426 0.27498 0.0
O875 O 0.18866 0.55538 0.25649 0.0
O876 O 0.18019 0.54402 0.31414 0.0
C877 C 0.20727 0.55641 0.25892 0.0
O878 O 0.18299 0.61265 0.25996 0.0
C879 C 0.16353 0.53688 0.30903 0.0
O880 O 0.15941 0.59469 0.27422 0.0
O881 O 0.1543 0.5459 0.29528 0.0
C882 C 0.38706 0.19812 0.32532 0.0
O883 O 0.3837 0.21109 0.3121 0.0
Cd884 Cd 0.39605 0.21073 0.27924 0.0
O885 O 0.39924 0.18396 0.32216 0.0
Cd886 Cd 0.42294 0.17452 0.29514 0.0
C887 C 0.38363 0.16229 0.26711 0.0
O888 O 0.43073 0.20732 0.28312 0.0
O889 O 0.43857 0.18385 0.26319 0.0
O890 O 0.44898 0.17085 0.31957 0.0
C891 C 0.43879 0.20226 0.26696 0.0
O892 O 0.381 0.1809 0.26502 0.0
C893 C 0.45573 0.15464 0.31273 0.0
O894 O 0.39751 0.15558 0.27803 0.0
O895 O 0.44604 0.14677 0.29861 0.0
C896 C 0.66331 0.78731 0.60719 0.0
O897 O 0.67697 0.77502 0.61135 0.0
Cd898 Cd 0.70974 0.77489 0.59864 0.0
O899 O 0.66588 0.80053 0.5939 0.0
Cd900 Cd 0.69252 0.80909 0.56958 0.0
C901 C 0.72137 0.82423 0.60749 0.0
O902 O 0.70526 0.77604 0.56393 0.0
O903 O 0.72419 0.7993 0.5536 0.0
O904 O 0.66809 0.81106 0.54327 0.0
C905 C 0.72108 0.78084 0.55509 0.0
O906 O 0.72392 0.80586 0.61122 0.0
C907 C 0.67427 0.82738 0.53621 0.0
O908 O 0.70988 0.82979 0.59356 0.0
O909 O 0.68809 0.83596 0.54572 0.0
C910 C 0.66741 0.19857 0.38318 0.0
O911 O 0.68042 0.21171 0.37965 0.0
Cd912 Cd 0.71326 0.21237 0.39211 0.0
O913 O 0.67076 0.18475 0.39567 0.0
Cd914 Cd 0.69793 0.17579 0.41932 0.0
C915 C 0.72648 0.16408 0.38009 0.0
O916 O 0.70916 0.20893 0.42674 0.0
O917 O 0.72941 0.18608 0.43545 0.0
O918 O 0.67331 0.17128 0.44504 0.0
C919 C 0.72536 0.20443 0.43504 0.0
O920 O 0.72823 0.18271 0.3774 0.0
C921 C 0.68032 0.15505 0.45156 0.0
O922 O 0.71557 0.15725 0.39391 0.0
O923 O 0.69486 0.14771 0.44206 0.0
C924 C 0.78967 0.66019 0.38543 0.0
O925 O 0.77603 0.67277 0.38218 0.0
Cd926 Cd 0.77473 0.70579 0.39412 0.0
O927 O 0.80394 0.66414 0.39724 0.0
Cd928 Cd 0.81242 0.69207 0.42025 0.0
C929 C 0.82207 0.72034 0.3803 0.0
O930 O 0.77919 0.70253 0.42871 0.0
O931 O 0.8018 0.72363 0.43585 0.0
O932 O 0.81822 0.66879 0.44695 0.0
C933 C 0.78361 0.71899 0.43653 0.0
O934 O 0.80331 0.7216 0.37831 0.0
C935 C 0.83425 0.67671 0.45289 0.0
O936 O 0.8297 0.70987 0.39406 0.0
O937 O 0.84107 0.69077 0.44238 0.0
C938 C 0.32227 0.78791 0.38626 0.0
O939 O 0.30899 0.77485 0.38346 0.0
Cd940 Cd 0.27697 0.77348 0.39769 0.0
O941 O 0.31976 0.80173 0.39899 0.0
Cd942 Cd 0.29369 0.81083 0.42381 0.0
C943 C 0.26297 0.82154 0.38587 0.0
O944 O 0.28314 0.77782 0.43183 0.0
O945 O 0.26284 0.80038 0.441 0.0
O946 O 0.31836 0.81619 0.44932 0.0
C947 C 0.26709 0.78209 0.44049 0.0
O948 O 0.26095 0.80287 0.3836 0.0
C949 C 0.31109 0.83245 0.45549 0.0
O950 O 0.27474 0.82855 0.39888 0.0
O951 O 0.2966 0.8395 0.44569 0.0
C952 C 0.2011 0.32049 0.38367 0.0
O953 O 0.2141 0.30735 0.38003 0.0
Cd954 Cd 0.21479 0.27474 0.3931 0.0
O955 O 0.18751 0.31734 0.39644 0.0
Cd956 Cd 0.17894 0.29039 0.4203 0.0
C957 C 0.16653 0.26131 0.38175 0.0
O958 O 0.21217 0.27934 0.42782 0.0
O959 O 0.1894 0.25897 0.43645 0.0
O960 O 0.17492 0.31509 0.44602 0.0
C961 C 0.20769 0.26329 0.43638 0.0
O962 O 0.18512 0.25937 0.37888 0.0
C963 C 0.1586 0.30838 0.45256 0.0
O964 O 0.15994 0.27255 0.39544 0.0
O965 O 0.15101 0.29395 0.4431 0.0
C966 C 0.32666 0.19904 0.60243 0.0
O967 O 0.3132 0.21166 0.60623 0.0
Cd968 Cd 0.28011 0.2108 0.59446 0.0
O969 O 0.32359 0.18493 0.59018 0.0
Cd970 Cd 0.29639 0.17512 0.56692 0.0
C971 C 0.26891 0.16203 0.60636 0.0
O972 O 0.28374 0.20782 0.55971 0.0
O973 O 0.26421 0.18423 0.5514 0.0
O974 O 0.32065 0.17153 0.54072 0.0
C975 C 0.26759 0.20271 0.55166 0.0
O976 O 0.26642 0.18056 0.60924 0.0
C977 C 0.31421 0.155 0.5344 0.0
O978 O 0.27994 0.15576 0.59235 0.0
O979 O 0.30014 0.14713 0.54415 0.0
C980 C 0.78905 0.32002 0.60519 0.0
O981 O 0.77654 0.30658 0.60931 0.0
Cd982 Cd 0.77622 0.27401 0.59615 0.0
O983 O 0.80225 0.31719 0.59193 0.0
Cd984 Cd 0.81063 0.29027 0.56784 0.0
C985 C 0.82496 0.26153 0.60605 0.0
O986 O 0.77733 0.27874 0.56132 0.0
O987 O 0.80013 0.25856 0.55225 0.0
O988 O 0.81411 0.31484 0.54182 0.0
C989 C 0.7818 0.26271 0.55269 0.0
O990 O 0.80654 0.2589 0.60934 0.0
C991 C 0.83036 0.30812 0.53506 0.0
O992 O 0.83073 0.27303 0.59224 0.0
O993 O 0.83807 0.29368 0.54439 0.0
C994 C 0.17821 0.65966 0.59532 0.0
O995 O 0.19004 0.66129 0.58092 0.0
Cd996 Cd 0.17559 0.69292 0.57099 0.0
O997 O 0.16473 0.67265 0.59676 0.0
Cd998 Cd 0.16751 0.69738 0.56712 0.0
C999 C 0.14952 0.71943 0.59951 0.0
O1000 O 0.20365 0.70852 0.56145 0.0
O1001 O 0.18181 0.7316 0.56212 0.0
O1002 O 0.16797 0.67215 0.54067 0.0
C1003 C 0.19988 0.72679 0.55978 0.0
O1004 O 0.16664 0.71199 0.60179 0.0
C1005 C 0.15407 0.67999 0.53069 0.0
O1006 O 0.14097 0.71612 0.58312 0.0
O1007 O 0.14605 0.69539 0.53804 0.0
C1008 C 0.38567 0.31838 0.20155 0.0
O1009 O 0.38238 0.30492 0.21427 0.0
Cd1010 Cd 0.39551 0.27241 0.21368 0.0
O1011 O 0.39805 0.31562 0.18747 0.0
Cd1012 Cd 0.42218 0.28927 0.17745 0.0
C1013 C 0.38313 0.26097 0.16496 0.0
O1014 O 0.42996 0.27783 0.21031 0.0
O1015 O 0.43902 0.2579 0.18732 0.0
O1016 O 0.44701 0.31486 0.17364 0.0
C1017 C 0.43871 0.26192 0.20569 0.0
O1018 O 0.38061 0.2586 0.18355 0.0
C1019 C 0.45403 0.3083 0.15743 0.0
O1020 O 0.39692 0.27205 0.15836 0.0
O1021 O 0.44515 0.29356 0.14974 0.0
C1022 C 0.6651 0.38556 0.19885 0.0
O1023 O 0.67825 0.3818 0.2118 0.0
Cd1024 Cd 0.71139 0.39326 0.21161 0.0
O1025 O 0.66857 0.3976 0.18467 0.0
Cd1026 Cd 0.69627 0.42047 0.17518 0.0
C1027 C 0.72333 0.38033 0.16317 0.0
O1028 O 0.7078 0.42794 0.20826 0.0
O1029 O 0.72824 0.43583 0.18532 0.0
O1030 O 0.67213 0.4467 0.17081 0.0
C1031 C 0.72412 0.43589 0.20366 0.0
O1032 O 0.72535 0.37784 0.18181 0.0
C1033 C 0.67934 0.45327 0.1547 0.0
O1034 O 0.71288 0.39452 0.15635 0.0
O1035 O 0.69366 0.4435 0.14728 0.0
C1036 C 0.60708 0.66323 0.19807 0.0
O1037 O 0.6114 0.67717 0.20998 0.0
Cd1038 Cd 0.59738 0.70936 0.21085 0.0
O1039 O 0.59361 0.66545 0.18495 0.0
Cd1040 Cd 0.56946 0.69252 0.17694 0.0
C1041 C 0.60567 0.72388 0.16266 0.0
O1042 O 0.56279 0.7028 0.21071 0.0
O1043 O 0.55264 0.72324 0.18868 0.0
O1044 O 0.54302 0.66851 0.17209 0.0
C1045 C 0.55327 0.71846 0.20684 0.0
O1046 O 0.60913 0.72651 0.18105 0.0
C1047 C 0.53668 0.67606 0.15603 0.0
O1048 O 0.59272 0.71135 0.15704 0.0
O1049 O 0.54668 0.69033 0.14895 0.0
C1050 C 0.33103 0.59622 0.17339 0.0
O1051 O 0.32946 0.58194 0.18536 0.0
Cd1052 Cd 0.29806 0.57157 0.17074 0.0
O1053 O 0.31805 0.59747 0.15988 0.0
Cd1054 Cd 0.29378 0.56749 0.16264 0.0
C1055 C 0.27145 0.59966 0.14445 0.0
O1056 O 0.2824 0.56218 0.19874 0.0
O1057 O 0.25968 0.56112 0.17654 0.0
O1058 O 0.31956 0.54163 0.1639 0.0
C1059 C 0.26432 0.55946 0.19472 0.0
O1060 O 0.27875 0.60206 0.1616 0.0
C1061 C 0.31205 0.53119 0.15015 0.0
O1062 O 0.27497 0.58328 0.13595 0.0
O1063 O 0.29671 0.53814 0.14168 0.0
C1064 C 0.38054 0.66771 0.7935 0.0
O1065 O 0.37676 0.67872 0.7787 0.0
Cd1066 Cd 0.38914 0.71179 0.77589 0.0
O1067 O 0.39305 0.673 0.80663 0.0
Cd1068 Cd 0.41718 0.69984 0.81257 0.0
C1069 C 0.37812 0.72867 0.82325 0.0
O1070 O 0.42422 0.70975 0.77882 0.0
O1071 O 0.43304 0.73054 0.80133 0.0
O1072 O 0.44271 0.67512 0.8168 0.0
C1073 C 0.43255 0.72605 0.78308 0.0
O1074 O 0.37479 0.72888 0.80462 0.0
C1075 C 0.44931 0.68202 0.83304 0.0
O1076 O 0.39233 0.71854 0.83047 0.0
O1077 O 0.44008 0.69675 0.8404 0.0
C1078 C 0.33309 0.38527 0.81496 0.0
O1079 O 0.3328 0.39935 0.80265 0.0
Cd1080 Cd 0.29911 0.40903 0.81272 0.0
O1081 O 0.31828 0.38382 0.82635 0.0
Cd1082 Cd 0.29487 0.41377 0.82008 0.0
C1083 C 0.27161 0.38349 0.84029 0.0
O1084 O 0.28364 0.41619 0.78367 0.0
O1085 O 0.26145 0.42111 0.80599 0.0
O1086 O 0.32 0.44013 0.81662 0.0
C1087 C 0.26587 0.42075 0.78769 0.0
O1088 O 0.27956 0.37932 0.82378 0.0
C1089 C 0.31302 0.45057 0.83065 0.0
O1090 O 0.27487 0.40063 0.84718 0.0
O1091 O 0.29848 0.44334 0.84017 0.0
C1092 C 0.60935 0.32328 0.78821 0.0
O1093 O 0.61333 0.31048 0.77496 0.0
Cd1094 Cd 0.60171 0.27723 0.77444 0.0
O1095 O 0.59704 0.31935 0.80201 0.0
Cd1096 Cd 0.57474 0.2912 0.81055 0.0
C1097 C 0.61463 0.26363 0.82213 0.0
O1098 O 0.56674 0.27966 0.77741 0.0
O1099 O 0.55983 0.25925 0.80084 0.0
O1100 O 0.54766 0.31423 0.81542 0.0
C1101 C 0.55894 0.26338 0.78252 0.0
O1102 O 0.61722 0.26185 0.80349 0.0
C1103 C 0.54226 0.30716 0.83201 0.0
O1104 O 0.6006 0.27426 0.82898 0.0
O1105 O 0.55296 0.29344 0.83927 0.0
C1106 C 0.66426 0.60544 0.79781 0.0
O1107 O 0.67466 0.61091 0.78311 0.0
Cd1108 Cd 0.70912 0.6032 0.7807 0.0
O1109 O 0.67108 0.59321 0.8105 0.0
Cd1110 Cd 0.70054 0.57156 0.81521 0.0
C1111 C 0.72289 0.61338 0.82953 0.0
O1112 O 0.71188 0.56811 0.78104 0.0
O1113 O 0.73326 0.56086 0.8036 0.0
O1114 O 0.67815 0.54365 0.81713 0.0
C1115 C 0.72908 0.56177 0.78529 0.0
O1116 O 0.72283 0.61776 0.81113 0.0
C1117 C 0.68558 0.53622 0.83275 0.0
O1118 O 0.71528 0.59724 0.83569 0.0
O1119 O 0.69972 0.54577 0.84082 0.0
C1120 C 0.20004 0.38126 0.32376 0.0
O1121 O 0.21171 0.37677 0.30967 0.0
Cd1122 Cd 0.2125 0.39069 0.27748 0.0
O1123 O 0.18749 0.39532 0.32188 0.0
Cd1124 Cd 0.17971 0.4202 0.29548 0.0
C1125 C 0.16325 0.3842 0.26493 0.0
O1126 O 0.2131 0.42521 0.28365 0.0
O1127 O 0.19063 0.4362 0.26411 0.0
O1128 O 0.17809 0.44672 0.31978 0.0
C1129 C 0.20896 0.4345 0.26792 0.0
O1130 O 0.18146 0.3801 0.26195 0.0
C1131 C 0.16198 0.45408 0.31336 0.0
O1132 O 0.15827 0.39758 0.27732 0.0
O1133 O 0.15329 0.44461 0.29958 0.0
C1134 C 0.60718 0.19872 0.32272 0.0
O1135 O 0.61076 0.21186 0.30972 0.0
Cd1136 Cd 0.59776 0.21281 0.27709 0.0
O1137 O 0.5945 0.18507 0.31942 0.0
Cd1138 Cd 0.57051 0.17661 0.2924 0.0
C1139 C 0.60898 0.16463 0.26293 0.0
O1140 O 0.56312 0.20998 0.2818 0.0
O1141 O 0.5541 0.18753 0.26123 0.0
O1142 O 0.54512 0.1723 0.31741 0.0
C1143 C 0.55444 0.20578 0.26573 0.0
O1144 O 0.61187 0.18324 0.26134 0.0
C1145 C 0.53829 0.15619 0.31045 0.0
O1146 O 0.59532 0.15786 0.27408 0.0
O1147 O 0.54744 0.14881 0.29571 0.0
C1148 C 0.79156 0.60262 0.32312 0.0
O1149 O 0.77829 0.60632 0.31028 0.0
Cd1150 Cd 0.77861 0.59537 0.27692 0.0
O1151 O 0.80603 0.59108 0.31909 0.0
Cd1152 Cd 0.81557 0.5689 0.2908 0.0
C1153 C 0.82652 0.60932 0.26399 0.0
O1154 O 0.78247 0.56064 0.27979 0.0
O1155 O 0.80527 0.55382 0.25875 0.0
O1156 O 0.82 0.54305 0.31519 0.0
C1157 C 0.78706 0.55292 0.26333 0.0
O1158 O 0.80779 0.61141 0.26249 0.0
C1159 C 0.83587 0.53604 0.30787 0.0
O1160 O 0.83392 0.59521 0.27416 0.0
O1161 O 0.84325 0.54541 0.29329 0.0
C1162 C 0.37992 0.78822 0.32311 0.0
O1163 O 0.37521 0.77637 0.30923 0.0
Cd1164 Cd 0.38945 0.77467 0.27704 0.0
O1165 O 0.39413 0.80049 0.32096 0.0
Cd1166 Cd 0.41909 0.80771 0.29476 0.0
C1167 C 0.38379 0.82353 0.2628 0.0
O1168 O 0.42397 0.77398 0.28346 0.0
O1169 O 0.43645 0.79614 0.26448 0.0
O1170 O 0.44439 0.80955 0.32025 0.0
C1171 C 0.43403 0.77788 0.26814 0.0
O1172 O 0.37953 0.8053 0.26031 0.0
C1173 C 0.45203 0.82563 0.31415 0.0
O1174 O 0.39692 0.82871 0.27539 0.0
O1175 O 0.44337 0.83411 0.29971 0.0
C1176 C 0.18838 0.60816 0.66271 0.0
O1177 O 0.20117 0.61448 0.67499 0.0
Cd1178 Cd 0.20378 0.6036 0.70853 0.0
O1179 O 0.17687 0.59383 0.66707 0.0
Cd1180 Cd 0.17312 0.56995 0.69493 0.0
C1181 C 0.15453 0.60658 0.72296 0.0
O1182 O 0.20698 0.56866 0.70739 0.0
O1183 O 0.18451 0.55811 0.72735 0.0
O1184 O 0.17408 0.54202 0.67226 0.0
C1185 C 0.20278 0.56083 0.72394 0.0
O1186 O 0.17238 0.61264 0.72451 0.0
C1187 C 0.15846 0.53379 0.67881 0.0
O1188 O 0.15029 0.59184 0.71194 0.0
O1189 O 0.14899 0.54308 0.69222 0.0
C1190 C 0.38407 0.19913 0.66462 0.0
O1191 O 0.37948 0.21195 0.67764 0.0
Cd1192 Cd 0.38886 0.21115 0.71149 0.0
O1193 O 0.3959 0.18493 0.66872 0.0
Cd1194 Cd 0.41726 0.17523 0.69749 0.0
C1195 C 0.3761 0.16241 0.7223 0.0
O1196 O 0.42372 0.208 0.71066 0.0
O1197 O 0.43018 0.18421 0.7307 0.0
O1198 O 0.44484 0.17207 0.67476 0.0
C1199 C 0.43042 0.2027 0.72735 0.0
O1200 O 0.37326 0.181 0.72435 0.0
C1201 C 0.4511 0.15563 0.68146 0.0
O1202 O 0.3908 0.15583 0.71242 0.0
O1203 O 0.44076 0.14757 0.69499 0.0
C1204 C 0.7899 0.38045 0.66556 0.0
O1205 O 0.77663 0.37756 0.67861 0.0
Cd1206 Cd 0.77677 0.39049 0.71134 0.0
O1207 O 0.80415 0.39245 0.66883 0.0
Cd1208 Cd 0.81393 0.41603 0.69565 0.0
C1209 C 0.82474 0.37693 0.72448 0.0
O1210 O 0.78133 0.42498 0.70742 0.0
O1211 O 0.80503 0.43224 0.72732 0.0
O1212 O 0.81746 0.44163 0.67089 0.0
C1213 C 0.78664 0.43301 0.72353 0.0
O1214 O 0.80601 0.37515 0.72633 0.0
C1215 C 0.83379 0.44833 0.67742 0.0
O1216 O 0.83215 0.39033 0.71342 0.0
O1217 O 0.84185 0.43872 0.69151 0.0
C1218 C 0.60581 0.78765 0.6698 0.0
O1219 O 0.61029 0.77473 0.68275 0.0
Cd1220 Cd 0.60077 0.77575 0.71652 0.0
O1221 O 0.5937 0.80163 0.67388 0.0
Cd1222 Cd 0.57181 0.81143 0.70223 0.0
C1223 C 0.61324 0.82494 0.72616 0.0
O1224 O 0.56591 0.77875 0.7156 0.0
O1225 O 0.55891 0.80248 0.73554 0.0
O1226 O 0.54491 0.81398 0.67859 0.0
C1227 C 0.55925 0.78396 0.73234 0.0
O1228 O 0.61624 0.8064 0.72837 0.0
C1229 C 0.53825 0.83044 0.68489 0.0
O1230 O 0.59823 0.83132 0.71662 0.0
O1231 O 0.5478 0.83862 0.69896 0.0
C1232 C 0.32521 0.197 0.3836 0.0
O1233 O 0.31173 0.20953 0.37961 0.0
Cd1234 Cd 0.27895 0.20927 0.39221 0.0
O1235 O 0.3222 0.18314 0.39612 0.0
Cd1236 Cd 0.29499 0.17391 0.41961 0.0
C1237 C 0.26581 0.16078 0.38136 0.0
O1238 O 0.28382 0.20715 0.42694 0.0
O1239 O 0.26364 0.18442 0.43601 0.0
O1240 O 0.31998 0.17023 0.44509 0.0
C1241 C 0.26792 0.20271 0.43577 0.0
O1242 O 0.26382 0.17932 0.37826 0.0
C1243 C 0.31333 0.15406 0.45203 0.0
O1244 O 0.27715 0.1544 0.39506 0.0
O1245 O 0.29874 0.14635 0.44292 0.0
C1246 C 0.32517 0.79129 0.60466 0.0
O1247 O 0.31267 0.778 0.60926 0.0
Cd1248 Cd 0.27868 0.77874 0.60047 0.0
O1249 O 0.32045 0.80542 0.59301 0.0
Cd1250 Cd 0.29151 0.81425 0.57162 0.0
C1251 C 0.26811 0.82758 0.61329 0.0
O1252 O 0.27895 0.78123 0.56547 0.0
O1253 O 0.25824 0.80451 0.5591 0.0
O1254 O 0.31506 0.81701 0.54481 0.0
C1255 C 0.2621 0.7861 0.55883 0.0
O1256 O 0.26636 0.80902 0.61644 0.0
C1257 C 0.30837 0.83319 0.5379 0.0
O1258 O 0.2772 0.83402 0.59805 0.0
O1259 O 0.29412 0.84119 0.54731 0.0
C1260 C 0.19644 0.3174 0.60617 0.0
O1261 O 0.20775 0.30317 0.61115 0.0
Cd1262 Cd 0.20779 0.2707 0.59772 0.0
O1263 O 0.18387 0.31537 0.59217 0.0
Cd1264 Cd 0.17555 0.28852 0.56806 0.0
C1265 C 0.15865 0.25844 0.60427 0.0
O1266 O 0.20905 0.27678 0.56307 0.0
O1267 O 0.18675 0.25745 0.55139 0.0
O1268 O 0.17327 0.31354 0.54235 0.0
C1269 C 0.20504 0.26129 0.55332 0.0
O1270 O 0.17676 0.25528 0.60866 0.0
C1271 C 0.15714 0.30719 0.53499 0.0
O1272 O 0.15404 0.27081 0.59079 0.0
O1273 O 0.14893 0.29276 0.54386 0.0
C1274 C 0.66161 0.19489 0.60264 0.0
O1275 O 0.67378 0.20886 0.606 0.0
Cd1276 Cd 0.70705 0.20957 0.59491 0.0
O1277 O 0.66605 0.18088 0.59071 0.0
Cd1278 Cd 0.69406 0.17295 0.56769 0.0
C1279 C 0.71973 0.16149 0.60856 0.0
O1280 O 0.70498 0.20624 0.56008 0.0
O1281 O 0.72644 0.18364 0.55385 0.0
O1282 O 0.67028 0.1687 0.54119 0.0
C1283 C 0.72172 0.20182 0.5529 0.0
O1284 O 0.72114 0.18019 0.61095 0.0
C1285 C 0.67794 0.15295 0.53422 0.0
O1286 O 0.71011 0.15428 0.59398 0.0
O1287 O 0.69233 0.14557 0.54392 0.0
C1288 C 0.80148 0.66775 0.60744 0.0
O1289 O 0.78818 0.67984 0.61307 0.0
Cd1290 Cd 0.78462 0.71278 0.60077 0.0
O1291 O 0.81352 0.67222 0.59357 0.0
Cd1292 Cd 0.81813 0.69988 0.56956 0.0
C1293 C 0.8325 0.73058 0.60631 0.0
O1294 O 0.78345 0.70866 0.56581 0.0
O1295 O 0.80385 0.72976 0.55365 0.0
O1296 O 0.82127 0.67491 0.54389 0.0
C1297 C 0.78598 0.7246 0.55628 0.0
O1298 O 0.81426 0.73104 0.61126 0.0
C1299 C 0.83644 0.68243 0.53567 0.0
O1300 O 0.83833 0.71956 0.5921 0.0
O1301 O 0.84385 0.69762 0.54401 0.0
C1302 C 0.66916 0.78744 0.38155 0.0
O1303 O 0.68327 0.77558 0.37764 0.0
Cd1304 Cd 0.71497 0.77459 0.39281 0.0
O1305 O 0.67076 0.80013 0.39551 0.0
Cd1306 Cd 0.69623 0.80851 0.4211 0.0
C1307 C 0.72808 0.82356 0.38549 0.0
O1308 O 0.70754 0.77514 0.4271 0.0
O1309 O 0.72656 0.79755 0.43904 0.0
O1310 O 0.6703 0.81103 0.44591 0.0
C1311 C 0.72282 0.77924 0.43714 0.0
O1312 O 0.731 0.80523 0.38193 0.0
C1313 C 0.67646 0.82717 0.45343 0.0
O1314 O 0.7154 0.82901 0.39841 0.0
O1315 O 0.69106 0.8354 0.44484 0.0
C1316 C 0.20164 0.6679 0.37766 0.0
O1317 O 0.2127 0.68254 0.37349 0.0
Cd1318 Cd 0.21179 0.71446 0.38832 0.0
O1319 O 0.1885 0.66921 0.3912 0.0
Cd1320 Cd 0.17882 0.69525 0.41562 0.0
C1321 C 0.16311 0.72723 0.3804 0.0
O1322 O 0.21183 0.7073 0.42287 0.0
O1323 O 0.18837 0.72576 0.43377 0.0
O1324 O 0.17577 0.67059 0.44162 0.0
C1325 C 0.20681 0.72224 0.43302 0.0
O1326 O 0.18134 0.73073 0.37691 0.0
C1327 C 0.15901 0.67661 0.44774 0.0
O1328 O 0.15811 0.71409 0.39298 0.0
O1329 O 0.15077 0.69029 0.43775 0.0
C1330 C 0.79152 0.32453 0.38333 0.0
O1331 O 0.77838 0.31159 0.37952 0.0
Cd1332 Cd 0.7785 0.27844 0.39102 0.0
O1333 O 0.80543 0.32086 0.39565 0.0
Cd1334 Cd 0.81429 0.29312 0.41872 0.0
C1335 C 0.8271 0.26633 0.37876 0.0
O1336 O 0.78117 0.28136 0.42584 0.0
O1337 O 0.80429 0.26094 0.43345 0.0
O1338 O 0.81724 0.31724 0.44512 0.0
C1339 C 0.78593 0.265 0.43364 0.0
O1340 O 0.80848 0.2645 0.37606 0.0
C1341 C 0.83321 0.31033 0.4523 0.0
O1342 O 0.83385 0.27662 0.39311 0.0
O1343 O 0.84131 0.29617 0.44281 0.0
C1344 C 0.14594 0.23645 0.33577 0.0
C1345 C 0.12619 0.23225 0.34099 0.0
C1346 C 0.1589 0.24551 0.3492 0.0
C1347 C 0.15255 0.25104 0.3683 0.0
H1348 H 0.15152 0.23263 0.32118 0.0
H1349 H 0.17393 0.24852 0.34439 0.0
S1350 S 0.10232 0.24319 0.3894 0.0
N1351 N 0.10092 0.23405 0.36671 0.0
N1352 N 0.12526 0.25139 0.39191 0.0
C1353 C 0.13285 0.24688 0.37378 0.0
C1354 C 0.11969 0.23738 0.36016 0.0
C1355 C 0.74177 0.15683 0.34721 0.0
C1356 C 0.73676 0.15034 0.3664 0.0
C1357 C 0.7512 0.1442 0.33371 0.0
C1358 C 0.75631 0.12467 0.33894 0.0
H1359 H 0.73815 0.17174 0.34245 0.0
H1360 H 0.75469 0.14991 0.3191 0.0
S1361 S 0.74673 0.10046 0.38745 0.0
N1362 N 0.73766 0.12308 0.39001 0.0
N1363 N 0.7557 0.09938 0.36468 0.0
C1364 C 0.75156 0.11799 0.35814 0.0
C1365 C 0.74167 0.1308 0.37183 0.0
C1366 C 0.85472 0.73583 0.37192 0.0
C1367 C 0.83515 0.73115 0.36637 0.0
C1368 C 0.8673 0.74628 0.3591 0.0
C1369 C 0.86091 0.75216 0.34012 0.0
H1370 H 0.86032 0.73161 0.38638 0.0
H1371 H 0.88221 0.7496 0.36408 0.0
S1372 S 0.8111 0.74328 0.31828 0.0
N1373 N 0.81 0.73308 0.34051 0.0
N1374 N 0.83368 0.75253 0.31639 0.0
C1375 C 0.84142 0.74743 0.33431 0.0
C1376 C 0.82853 0.73701 0.34744 0.0
C1377 C 0.23602 0.84066 0.34045 0.0
C1378 C 0.23269 0.86076 0.34494 0.0
C1379 C 0.24543 0.82806 0.35397 0.0
C1380 C 0.25218 0.83512 0.37243 0.0
H1381 H 0.23128 0.83452 0.32636 0.0
H1382 H 0.24778 0.81274 0.3497 0.0
S1383 S 0.24679 0.88649 0.39158 0.0
N1384 N 0.23653 0.88712 0.36935 0.0
N1385 N 0.25447 0.86344 0.39472 0.0
C1386 C 0.24881 0.85516 0.37722 0.0
C1387 C 0.23899 0.86797 0.36351 0.0
C1388 C 0.14865 0.73178 0.63444 0.0
C1389 C 0.14011 0.73137 0.61539 0.0
C1390 C 0.14007 0.74276 0.64986 0.0
C1391 C 0.12269 0.75394 0.64685 0.0
H1392 H 0.16201 0.72341 0.63758 0.0
H1393 H 0.1472 0.74245 0.66427 0.0
S1394 S 0.09463 0.75814 0.59955 0.0
N1395 N 0.11338 0.74329 0.59426 0.0
N1396 N 0.09729 0.76401 0.62318 0.0
C1397 C 0.11409 0.75383 0.62778 0.0
C1398 C 0.12277 0.74252 0.61209 0.0
C1399 C 0.25319 0.1539 0.63883 0.0
C1400 C 0.25906 0.14774 0.61977 0.0
C1401 C 0.24376 0.14085 0.6519 0.0
C1402 C 0.23954 0.12118 0.64634 0.0
H1403 H 0.25599 0.16892 0.6438 0.0
H1404 H 0.23946 0.14637 0.66637 0.0
S1405 S 0.25193 0.0976 0.5981 0.0
N1406 N 0.26017 0.12056 0.59601 0.0
N1407 N 0.2422 0.09606 0.62052 0.0
C1408 C 0.24536 0.11477 0.62733 0.0
C1409 C 0.2552 0.12803 0.61408 0.0
C1410 C 0.85963 0.24948 0.61155 0.0
C1411 C 0.8399 0.25091 0.61823 0.0
C1412 C 0.87395 0.23904 0.62239 0.0
C1413 C 0.86918 0.22981 0.64046 0.0
H1414 H 0.86405 0.2562 0.59764 0.0
H1415 H 0.88887 0.23816 0.61649 0.0
S1416 S 0.81982 0.2296 0.66491 0.0
N1417 N 0.81644 0.24251 0.64439 0.0
N1418 N 0.8434 0.22301 0.66479 0.0
C1419 C 0.8496 0.23139 0.64754 0.0
C1420 C 0.83495 0.24188 0.63641 0.0
C1421 C 0.74815 0.84726 0.65122 0.0
C1422 C 0.75188 0.86679 0.64492 0.0
C1423 C 0.73837 0.83368 0.63896 0.0
C1424 C 0.73165 0.83911 0.61997 0.0
H1425 H 0.75304 0.84227 0.6657 0.0
H1426 H 0.73595 0.81881 0.64454 0.0
S1427 S 0.73735 0.88857 0.59646 0.0
N1428 N 0.74794 0.89098 0.61843 0.0
N1429 N 0.72931 0.86546 0.59541 0.0
C1430 C 0.73508 0.85866 0.61349 0.0
C1431 C 0.74528 0.87247 0.62593 0.0
C1432 C 0.33686 0.14206 0.2435 0.0
C1433 C 0.34226 0.12266 0.23801 0.0
C1434 C 0.35042 0.15476 0.25271 0.0
C1435 C 0.36982 0.14846 0.25715 0.0
H1436 H 0.32209 0.1476 0.24041 0.0
H1437 H 0.34556 0.16959 0.2566 0.0
S1438 S 0.39132 0.09897 0.24616 0.0
N1439 N 0.36835 0.09769 0.23773 0.0
N1440 N 0.39379 0.12152 0.25542 0.0
C1441 C 0.3754 0.12904 0.25194 0.0
C1442 C 0.36165 0.11618 0.24224 0.0
C1443 C 0.84514 0.33497 0.23906 0.0
C1444 C 0.8644 0.3406 0.2334 0.0
C1445 C 0.83248 0.34826 0.24877 0.0
C1446 C 0.8387 0.3676 0.25352 0.0
H1447 H 0.83966 0.32022 0.23576 0.0
H1448 H 0.81776 0.34322 0.25277 0.0
S1449 S 0.88786 0.38962 0.24222 0.0
N1450 N 0.88917 0.36684 0.2333 0.0
N1451 N 0.86544 0.39176 0.25187 0.0
C1452 C 0.858 0.3734 0.24811 0.0
C1453 C 0.87081 0.35994 0.23794 0.0
C1454 C 0.6157 0.87243 0.24206 0.0
C1455 C 0.63204 0.86809 0.22985 0.0
C1456 C 0.60598 0.85746 0.25266 0.0
C1457 C 0.6121 0.83752 0.25135 0.0
H1458 H 0.6105 0.88755 0.24368 0.0
H1459 H 0.59355 0.86163 0.26197 0.0
S1460 S 0.65371 0.81826 0.22068 0.0
N1461 N 0.65365 0.84238 0.21657 0.0
N1462 N 0.63539 0.81423 0.23639 0.0
C1463 C 0.62827 0.83295 0.23892 0.0
C1464 C 0.63824 0.84823 0.22822 0.0
C1465 C 0.14096 0.65574 0.24304 0.0
C1466 C 0.1214 0.6498 0.23888 0.0
C1467 C 0.15483 0.64237 0.2507 0.0
C1468 C 0.14963 0.62262 0.25485 0.0
H1469 H 0.14572 0.67079 0.24008 0.0
H1470 H 0.16972 0.64768 0.25361 0.0
S1471 S 0.10025 0.59965 0.24692 0.0
N1472 N 0.09745 0.62283 0.2395 0.0
N1473 N 0.12353 0.59772 0.25431 0.0
C1474 C 0.13007 0.61648 0.25096 0.0
C1475 C 0.11597 0.63006 0.24283 0.0
C1476 C 0.36155 0.87396 0.74777 0.0
C1477 C 0.34165 0.86905 0.75173 0.0
C1478 C 0.3741 0.86076 0.73767 0.0
C1479 C 0.36732 0.84201 0.73152 0.0
H1480 H 0.36746 0.88819 0.75234 0.0
H1481 H 0.38931 0.86517 0.73497 0.0
S1482 S 0.31648 0.82195 0.73816 0.0
N1483 N 0.31572 0.84413 0.74852 0.0
N1484 N 0.33935 0.8193 0.72983 0.0
C1485 C 0.34747 0.8369 0.7354 0.0
C1486 C 0.33463 0.85042 0.74541 0.0
C1487 C 0.13145 0.36878 0.7364 0.0
C1488 C 0.15072 0.3623 0.73161 0.0
C1489 C 0.11781 0.35603 0.74558 0.0
C1490 C 0.12283 0.33624 0.74995 0.0
H1491 H 0.12694 0.38388 0.73327 0.0
H1492 H 0.10318 0.36167 0.74909 0.0
S1493 S 0.1713 0.31188 0.74007 0.0
N1494 N 0.17405 0.33472 0.73176 0.0
N1495 N 0.14847 0.3108 0.7488 0.0
C1496 C 0.14201 0.32955 0.74508 0.0
C1497 C 0.15594 0.34256 0.73598 0.0
C1498 C 0.6399 0.14975 0.74095 0.0
C1499 C 0.62056 0.14381 0.73585 0.0
C1500 C 0.65278 0.137 0.75104 0.0
C1501 C 0.64678 0.11788 0.75678 0.0
H1502 H 0.64527 0.16435 0.73693 0.0
H1503 H 0.66753 0.14232 0.75457 0.0
S1504 S 0.59759 0.0951 0.74719 0.0
N1505 N 0.59598 0.11744 0.73728 0.0
N1506 N 0.62016 0.09352 0.75659 0.0
C1507 C 0.62743 0.11172 0.75191 0.0
C1508 C 0.61436 0.12465 0.74134 0.0
C1509 C 0.87242 0.63006 0.74858 0.0
C1510 C 0.86397 0.64915 0.74942 0.0
C1511 C 0.86381 0.61496 0.7372 0.0
C1512 C 0.84631 0.61827 0.72634 0.0
H1513 H 0.88597 0.62674 0.75655 0.0
H1514 H 0.87094 0.60056 0.737 0.0
S1515 S 0.81796 0.66548 0.72381 0.0
N1516 N 0.83687 0.67044 0.73856 0.0
N1517 N 0.82066 0.64205 0.71726 0.0
C1518 C 0.83756 0.63723 0.72718 0.0
C1519 C 0.84639 0.65266 0.73868 0.0
C1520 C 0.22989 0.34619 0.13447 0.0
C1521 C 0.22978 0.35341 0.11489 0.0
C1522 C 0.24136 0.35523 0.14924 0.0
C1523 C 0.25335 0.37177 0.14501 0.0
H1524 H 0.22089 0.33352 0.13853 0.0
H1525 H 0.2408 0.34914 0.1641 0.0
S1526 S 0.25861 0.39627 0.0959 0.0
N1527 N 0.24284 0.37798 0.09195 0.0
N1528 N 0.26448 0.39496 0.11964 0.0
C1529 C 0.25353 0.37905 0.12541 0.0
C1530 C 0.24173 0.3699 0.11039 0.0
C1531 C 0.2399 0.61597 0.88422 0.0
C1532 C 0.23212 0.63424 0.87784 0.0
C1533 C 0.25237 0.60472 0.87204 0.0
C1534 C 0.25765 0.61124 0.85293 0.0
H1535 H 0.23634 0.61021 0.89879 0.0
H1536 H 0.25786 0.59072 0.87772 0.0
S1537 S 0.24144 0.65816 0.82909 0.0
N1538 N 0.2307 0.65847 0.8511 0.0
N1539 N 0.2542 0.63726 0.82817 0.0
C1540 C 0.25007 0.62953 0.84632 0.0
C1541 C 0.23729 0.64103 0.85877 0.0
C1542 C 0.37777 0.24332 0.87162 0.0
C1543 C 0.374 0.25382 0.85399 0.0
C1544 C 0.36267 0.23295 0.88138 0.0
C1545 C 0.34312 0.23279 0.87401 0.0
H1546 H 0.39253 0.24308 0.87799 0.0
H1547 H 0.36636 0.22519 0.89495 0.0
S1548 S 0.32548 0.25781 0.82816 0.0
N1549 N 0.3493 0.26328 0.8294 0.0
N1550 N 0.3209 0.24388 0.84774 0.0
C1551 C 0.33915 0.24317 0.85631 0.0
C1552 C 0.35458 0.25364 0.84631 0.0
C1553 C 0.74079 0.37117 0.85853 0.0
C1554 C 0.73624 0.36536 0.839 0.0
C1555 C 0.75015 0.35809 0.87173 0.0
C1556 C 0.75495 0.33859 0.86601 0.0
H1557 H 0.73733 0.38603 0.86362 0.0
H1558 H 0.75345 0.36325 0.8866 0.0
S1559 S 0.74588 0.31594 0.81658 0.0
N1560 N 0.73713 0.33872 0.81462 0.0
N1561 N 0.75446 0.31412 0.83944 0.0
C1562 C 0.75032 0.33254 0.84656 0.0
C1563 C 0.74106 0.34593 0.83305 0.0
C1564 C 0.61418 0.73689 0.87 0.0
C1565 C 0.61865 0.72505 0.85341 0.0
C1566 C 0.62878 0.74835 0.87928 0.0
C1567 C 0.64853 0.74829 0.8725 0.0
H1568 H 0.59921 0.7375 0.8758 0.0
H1569 H 0.62451 0.7572 0.892 0.0
S1570 S 0.66807 0.71945 0.82974 0.0
N1571 N 0.64427 0.71376 0.83061 0.0
N1572 N 0.67181 0.73517 0.84815 0.0
C1573 C 0.65327 0.73638 0.85598 0.0
C1574 C 0.63831 0.72481 0.84641 0.0
C1575 C 0.74951 0.6311 0.11966 0.0
C1576 C 0.75473 0.6502 0.12625 0.0
C1577 C 0.74009 0.61759 0.13235 0.0
C1578 C 0.73588 0.62256 0.15219 0.0
H1579 H 0.75242 0.62664 0.10449 0.0
H1580 H 0.73621 0.6031 0.12658 0.0
S1581 S 0.74706 0.67056 0.17688 0.0
N1582 N 0.75529 0.67331 0.154 0.0
N1583 N 0.73781 0.64793 0.17786 0.0
C1584 C 0.74127 0.64155 0.15903 0.0
C1585 C 0.75062 0.65536 0.14605 0.0
C1586 C 0.36053 0.75057 0.11568 0.0
C1587 C 0.34225 0.75813 0.12232 0.0
C1588 C 0.37308 0.73997 0.12846 0.0
C1589 C 0.36794 0.73671 0.14845 0.0
H1590 H 0.36508 0.75256 0.10039 0.0
H1591 H 0.38689 0.73426 0.12255 0.0
S1592 S 0.32207 0.75449 0.17347 0.0
N1593 N 0.31992 0.76231 0.15038 0.0
N1594 N 0.34342 0.74254 0.17439 0.0
C1595 C 0.34983 0.74457 0.15537 0.0
C1596 C 0.33701 0.75521 0.14232 0.0
C1597 C 0.65338 0.24116 0.13904 0.0
C1598 C 0.64683 0.23634 0.11981 0.0
C1599 C 0.6408 0.25053 0.15265 0.0
C1600 C 0.62128 0.25577 0.14748 0.0
H1601 H 0.66831 0.23749 0.14374 0.0
H1602 H 0.64655 0.2539 0.16728 0.0
S1603 S 0.59691 0.24658 0.09893 0.0
N1604 N 0.61949 0.23747 0.09626 0.0
N1605 N 0.59591 0.25539 0.12178 0.0
C1606 C 0.61453 0.25115 0.12826 0.0
C1607 C 0.62728 0.24133 0.11446 0.0
C1608 C 0.88047 0.75731 0.61916 0.0
C1609 C 0.8758 0.76737 0.63685 0.0
C1610 C 0.86643 0.74542 0.60949 0.0
C1611 C 0.84708 0.74318 0.61703 0.0
H1612 H 0.89517 0.75846 0.61277 0.0
H1613 H 0.87082 0.738 0.59592 0.0
S1614 S 0.82724 0.76656 0.66289 0.0
N1615 N 0.85037 0.77442 0.66151 0.0
N1616 N 0.82399 0.75216 0.64336 0.0
C1617 C 0.84216 0.75328 0.63468 0.0
C1618 C 0.8565 0.76533 0.64457 0.0
C1619 C 0.24436 0.87413 0.63418 0.0
C1620 C 0.24162 0.86939 0.65433 0.0
C1621 C 0.25326 0.86066 0.62108 0.0
C1622 C 0.2594 0.8418 0.62755 0.0
H1623 H 0.23965 0.8884 0.62847 0.0
H1624 H 0.25499 0.86492 0.60568 0.0
S1625 S 0.25591 0.82218 0.67887 0.0
N1626 N 0.24612 0.84459 0.68019 0.0
N1627 N 0.26259 0.81921 0.6555 0.0
C1628 C 0.25686 0.83689 0.64766 0.0
C1629 C 0.24807 0.85071 0.66107 0.0
C1630 C 0.13307 0.22619 0.64267 0.0
C1631 C 0.11338 0.22528 0.63582 0.0
C1632 C 0.14753 0.23696 0.63239 0.0
C1633 C 0.14286 0.24743 0.61493 0.0
H1634 H 0.13745 0.21835 0.65599 0.0
H1635 H 0.16249 0.23708 0.63825 0.0
S1636 S 0.09326 0.2502 0.59101 0.0
N1637 N 0.08983 0.23601 0.61065 0.0
N1638 N 0.11695 0.25635 0.59136 0.0
C1639 C 0.12314 0.24683 0.60803 0.0
C1640 C 0.10844 0.23572 0.61844 0.0
C1641 C 0.74277 0.11552 0.63158 0.0
C1642 C 0.74694 0.12165 0.6511 0.0
C1643 C 0.73379 0.12842 0.61796 0.0
C1644 C 0.72898 0.14804 0.62325 0.0
H1645 H 0.74642 0.10062 0.62678 0.0
H1646 H 0.73086 0.12304 0.60309 0.0
S1647 S 0.73687 0.17142 0.67255 0.0
N1648 N 0.7455 0.14865 0.67507 0.0
N1649 N 0.72882 0.17289 0.64948 0.0
C1650 C 0.73306 0.15435 0.64274 0.0
C1651 C 0.74196 0.14115 0.65667 0.0
C1652 C 0.87347 0.24199 0.35778 0.0
C1653 C 0.86795 0.23757 0.33812 0.0
C1654 C 0.86029 0.25151 0.37079 0.0
C1655 C 0.84097 0.25662 0.36473 0.0
H1656 H 0.88816 0.23822 0.36313 0.0
H1657 H 0.86518 0.25463 0.38578 0.0
S1658 S 0.81916 0.24831 0.3148 0.0
N1659 N 0.84181 0.23913 0.31324 0.0
N1660 N 0.81705 0.25678 0.33768 0.0
C1661 C 0.83525 0.25225 0.34513 0.0
C1662 C 0.84873 0.24281 0.33183 0.0
C1663 C 0.74954 0.87339 0.37035 0.0
C1664 C 0.76036 0.86887 0.35309 0.0
C1665 C 0.7392 0.85866 0.3807 0.0
C1666 C 0.73943 0.83876 0.37434 0.0
H1667 H 0.74879 0.8885 0.37579 0.0
H1668 H 0.73098 0.86296 0.39383 0.0
S1669 S 0.76617 0.81905 0.33029 0.0
N1670 N 0.77109 0.84302 0.33028 0.0
N1671 N 0.7518 0.8153 0.34974 0.0
C1672 C 0.75047 0.83399 0.35722 0.0
C1673 C 0.76088 0.84904 0.3466 0.0
C1674 C 0.12817 0.73944 0.37831 0.0
C1675 C 0.14748 0.73903 0.37037 0.0
C1676 C 0.11316 0.75086 0.36962 0.0
C1677 C 0.11677 0.76218 0.35248 0.0
H1678 H 0.1246 0.73105 0.39154 0.0
H1679 H 0.09858 0.75069 0.37635 0.0
S1680 S 0.16467 0.76607 0.32558 0.0
N1681 N 0.16935 0.75089 0.34422 0.0
N1682 N 0.14106 0.77224 0.32777 0.0
C1683 C 0.13595 0.76182 0.34425 0.0
C1684 C 0.15132 0.7503 0.35322 0.0
C1685 C 0.23977 0.13944 0.33636 0.0
C1686 C 0.23476 0.12011 0.34239 0.0
C1687 C 0.2496 0.15248 0.34917 0.0
C1688 C 0.25515 0.14661 0.36841 0.0
H1689 H 0.23593 0.14465 0.32165 0.0
H1690 H 0.25312 0.1672 0.3438 0.0
S1691 S 0.24556 0.09756 0.39143 0.0
N1692 N 0.23596 0.09573 0.36895 0.0
N1693 N 0.25479 0.12019 0.39297 0.0
C1694 C 0.2503 0.1273 0.37465 0.0
C1695 C 0.23999 0.11409 0.36167 0.0
C1696 C 0.63437 0.87157 0.74961 0.0
C1697 C 0.65441 0.86656 0.75273 0.0
C1698 C 0.62121 0.85819 0.74064 0.0
C1699 C 0.62752 0.83916 0.73481 0.0
H1700 H 0.62878 0.88596 0.75412 0.0
H1701 H 0.60589 0.86264 0.73864 0.0
S1702 S 0.67852 0.81883 0.73924 0.0
N1703 N 0.67998 0.8413 0.74884 0.0
N1704 N 0.65522 0.81616 0.73223 0.0
C1705 C 0.64753 0.83401 0.73768 0.0
C1706 C 0.66098 0.8477 0.74655 0.0
C1707 C 0.14344 0.63346 0.74599 0.0
C1708 C 0.13875 0.61656 0.73464 0.0
C1709 C 0.12917 0.64286 0.75777 0.0
C1710 C 0.10961 0.63572 0.75878 0.0
H1711 H 0.15832 0.63952 0.74591 0.0
H1712 H 0.13363 0.65574 0.76628 0.0
S1713 S 0.08935 0.59228 0.73162 0.0
N1714 N 0.11287 0.59329 0.7249 0.0
N1715 N 0.08607 0.61097 0.7471 0.0
C1716 C 0.10458 0.61896 0.74739 0.0
C1717 C 0.11912 0.6094 0.7353 0.0
C1718 C 0.35624 0.11609 0.7473 0.0
C1719 C 0.33652 0.12128 0.75181 0.0
C1720 C 0.36882 0.12931 0.73736 0.0
C1721 C 0.36226 0.14835 0.73188 0.0
H1722 H 0.36202 0.10168 0.75143 0.0
H1723 H 0.38392 0.12472 0.73434 0.0
S1724 S 0.31187 0.16913 0.7399 0.0
N1725 N 0.31093 0.14671 0.74967 0.0
N1726 N 0.33463 0.17158 0.73123 0.0
C1727 C 0.34254 0.15369 0.73616 0.0
C1728 C 0.32966 0.14015 0.74604 0.0
C1729 C 0.87016 0.35563 0.75021 0.0
C1730 C 0.86379 0.3366 0.75593 0.0
C1731 C 0.85752 0.36853 0.73986 0.0
C1732 C 0.83794 0.36302 0.7352 0.0
H1733 H 0.88512 0.3605 0.75348 0.0
H1734 H 0.86309 0.38301 0.73568 0.0
S1735 S 0.81392 0.31494 0.74717 0.0
N1736 N 0.83654 0.31295 0.75632 0.0
N1737 N 0.81278 0.33721 0.73711 0.0
C1738 C 0.83134 0.3441 0.74101 0.0
C1739 C 0.84426 0.33089 0.7513 0.0
C1740 C 0.65435 0.14445 0.23659 0.0
C1741 C 0.64873 0.12504 0.23142 0.0
C1742 C 0.64129 0.15714 0.24657 0.0
C1743 C 0.62219 0.15083 0.25209 0.0
H1744 H 0.66893 0.15001 0.23275 0.0
H1745 H 0.64636 0.17195 0.25021 0.0
S1746 S 0.60022 0.10134 0.24217 0.0
N1747 N 0.6227 0.10008 0.23251 0.0
N1748 N 0.59822 0.12388 0.25158 0.0
C1749 C 0.61637 0.13142 0.24711 0.0
C1750 C 0.62959 0.11856 0.23666 0.0
C1751 C 0.87186 0.63139 0.2388 0.0
C1752 C 0.86562 0.65075 0.2341 0.0
C1753 C 0.85922 0.61814 0.24868 0.0
C1754 C 0.83976 0.62364 0.25389 0.0
H1755 H 0.88669 0.62648 0.23503 0.0
H1756 H 0.86468 0.6034 0.25203 0.0
S1757 S 0.81613 0.67258 0.24475 0.0
N1758 N 0.83863 0.67473 0.23537 0.0
N1759 N 0.8149 0.64984 0.25369 0.0
C1760 C 0.83331 0.64292 0.24917 0.0
C1761 C 0.84623 0.65648 0.23936 0.0
C1762 C 0.3711 0.87348 0.23994 0.0
C1763 C 0.35451 0.86926 0.22802 0.0
C1764 C 0.38037 0.85864 0.25116 0.0
C1765 C 0.37354 0.83891 0.25079 0.0
H1766 H 0.3769 0.88844 0.24084 0.0
H1767 H 0.39306 0.86274 0.26013 0.0
S1768 S 0.33082 0.81998 0.22147 0.0
N1769 N 0.33176 0.84386 0.21621 0.0
N1770 N 0.34918 0.81594 0.23717 0.0
C1771 C 0.35704 0.83444 0.23874 0.0
C1772 C 0.34753 0.8496 0.2274 0.0
C1773 C 0.12808 0.38076 0.25349 0.0
C1774 C 0.14766 0.37348 0.25367 0.0
C1775 C 0.11313 0.37122 0.24265 0.0
C1776 C 0.1171 0.35391 0.23168 0.0
H1777 H 0.12423 0.3941 0.26161 0.0
H1778 H 0.09833 0.37749 0.24292 0.0
S1779 S 0.16581 0.32842 0.22753 0.0
N1780 N 0.17013 0.34764 0.24208 0.0
N1781 N 0.14205 0.32971 0.2218 0.0
C1782 C 0.13657 0.34633 0.23186 0.0
C1783 C 0.15183 0.35611 0.2428 0.0
C1784 C 0.74872 0.63331 0.87545 0.0
C1785 C 0.75008 0.65378 0.87159 0.0
C1786 C 0.73961 0.62037 0.86194 0.0
C1787 C 0.73181 0.62738 0.8439 0.0
H1788 H 0.75477 0.62716 0.88902 0.0
H1789 H 0.73904 0.60472 0.8655 0.0
S1790 S 0.73086 0.67972 0.82687 0.0
N1791 N 0.74224 0.6805 0.84853 0.0
N1792 N 0.72534 0.65617 0.82316 0.0
C1793 C 0.73284 0.64782 0.83993 0.0
C1794 C 0.74189 0.66103 0.85377 0.0
C1795 C 0.74687 0.3592 0.11652 0.0
C1796 C 0.75153 0.33963 0.12205 0.0
C1797 C 0.73759 0.37223 0.12984 0.0
C1798 C 0.73299 0.36629 0.14931 0.0
H1799 H 0.7502 0.36446 0.1017 0.0
H1800 H 0.73421 0.38715 0.1249 0.0
S1801 S 0.74238 0.31665 0.17126 0.0
N1802 N 0.75093 0.31495 0.14838 0.0
N1803 N 0.73375 0.33946 0.17344 0.0
C1804 C 0.73771 0.34679 0.15507 0.0
C1805 C 0.74688 0.33345 0.14144 0.0
C1806 C 0.61943 0.74687 0.11313 0.0
C1807 C 0.63596 0.7587 0.11776 0.0
C1808 C 0.60992 0.73557 0.1277 0.0
C1809 C 0.61642 0.73575 0.14756 0.0
H1810 H 0.6138 0.74623 0.09809 0.0
H1811 H 0.59722 0.72675 0.12331 0.0
S1812 S 0.65905 0.76447 0.16748 0.0
N1813 N 0.65847 0.77002 0.14364 0.0
N1814 N 0.64055 0.74886 0.17106 0.0
C1815 C 0.63295 0.74757 0.15242 0.0
C1816 C 0.64273 0.759 0.13752 0.0
C1817 C 0.25899 0.63453 0.14337 0.0
C1818 C 0.25941 0.61542 0.13497 0.0
C1819 C 0.24781 0.64981 0.13484 0.0
C1820 C 0.23641 0.64659 0.11764 0.0
H1821 H 0.26748 0.63781 0.15662 0.0
H1822 H 0.24808 0.66425 0.14189 0.0
S1823 S 0.23228 0.59912 0.08987 0.0
N1824 N 0.24738 0.59404 0.10847 0.0
N1825 N 0.22626 0.62271 0.09246 0.0
C1826 C 0.23659 0.62749 0.10912 0.0
C1827 C 0.24813 0.61194 0.11775 0.0
C1828 C 0.33568 0.23874 0.14482 0.0
C1829 C 0.34037 0.23444 0.12495 0.0
C1830 C 0.34974 0.24698 0.15765 0.0
C1831 C 0.36898 0.25158 0.15105 0.0
H1832 H 0.32104 0.23554 0.15063 0.0
H1833 H 0.34533 0.25006 0.1728 0.0
S1834 S 0.38882 0.24327 0.10036 0.0
N1835 N 0.3657 0.23525 0.09925 0.0
N1836 N 0.3921 0.25112 0.12334 0.0
C1837 C 0.37391 0.24743 0.13119 0.0
C1838 C 0.35963 0.23873 0.11816 0.0
C1839 C 0.25874 0.34903 0.84443 0.0
C1840 C 0.25919 0.36886 0.85093 0.0
C1841 C 0.24725 0.33478 0.8542 0.0
C1842 C 0.23559 0.33978 0.87079 0.0
H1843 H 0.26745 0.34438 0.83175 0.0
H1844 H 0.24751 0.31971 0.84861 0.0
S1845 S 0.23135 0.38982 0.89362 0.0
N1846 N 0.24685 0.39287 0.87492 0.0
N1847 N 0.22518 0.36614 0.89326 0.0
C1848 C 0.23578 0.35963 0.87738 0.0
C1849 C 0.24761 0.37413 0.86748 0.0
C1850 C 0.63406 0.23891 0.86882 0.0
C1851 C 0.65347 0.23338 0.86352 0.0
C1852 C 0.62166 0.24881 0.85539 0.0
C1853 C 0.62809 0.25325 0.83603 0.0
H1854 H 0.62845 0.2358 0.88355 0.0
H1855 H 0.60686 0.25285 0.86018 0.0
S1856 S 0.67751 0.24164 0.81466 0.0
N1857 N 0.67851 0.23293 0.83751 0.0
N1858 N 0.65515 0.25132 0.81222 0.0
C1859 C 0.64741 0.24764 0.83047 0.0
C1860 C 0.66012 0.23779 0.84423 0.0
C1861 C 0.33207 0.75432 0.84269 0.0
C1862 C 0.3375 0.75991 0.86205 0.0
C1863 C 0.34544 0.74457 0.83018 0.0
C1864 C 0.3647 0.73974 0.83662 0.0
H1865 H 0.31735 0.75755 0.83708 0.0
H1866 H 0.34047 0.74047 0.81545 0.0
S1867 S 0.38642 0.75133 0.88591 0.0
N1868 N 0.3636 0.76019 0.88702 0.0
N1869 N 0.38872 0.74164 0.86353 0.0
C1870 C 0.37041 0.74534 0.85591 0.0
C1871 C 0.35683 0.7555 0.8686 0.0
C1872 C 0.06241 0.24099 0.24881 0.0
C1873 C 0.05858 0.24446 0.26905 0.0
C1874 C 0.06289 0.25659 0.23511 0.0
C1875 C 0.05964 0.27632 0.24109 0.0
H1876 H 0.06564 0.22616 0.24353 0.0
H1877 H 0.06645 0.25316 0.21982 0.0
S1878 S 0.04685 0.29321 0.29196 0.0
N1879 N 0.04985 0.269 0.2941 0.0
N1880 N 0.05087 0.29833 0.26836 0.0
C1881 C 0.05489 0.27994 0.2611 0.0
C1882 C 0.0543 0.26401 0.27507 0.0
C1883 C 0.73097 0.05429 0.27053 0.0
C1884 C 0.75117 0.05511 0.26537 0.0
C1885 C 0.71619 0.0542 0.2559 0.0
C1886 C 0.72112 0.0549 0.23563 0.0
H1887 H 0.72645 0.05482 0.28594 0.0
H1888 H 0.70082 0.05465 0.26058 0.0
S1889 S 0.77189 0.05323 0.21439 0.0
N1890 N 0.77537 0.05375 0.23863 0.0
N1891 N 0.74761 0.05355 0.21116 0.0
C1892 C 0.74127 0.05404 0.2303 0.0
C1893 C 0.7563 0.05414 0.24517 0.0
C1894 C 0.93094 0.74071 0.23563 0.0
C1895 C 0.93618 0.72093 0.23974 0.0
C1896 C 0.92994 0.75493 0.2507 0.0
C1897 C 0.93416 0.74996 0.27052 0.0
H1898 H 0.92668 0.74513 0.22077 0.0
H1899 H 0.92497 0.76972 0.24685 0.0
S1900 S 0.95194 0.70107 0.28863 0.0
N1901 N 0.94808 0.69768 0.26467 0.0
N1902 N 0.94623 0.72447 0.29308 0.0
C1903 C 0.9409 0.73062 0.27463 0.0
C1904 C 0.94191 0.71609 0.25923 0.0
C1905 C 0.24182 0.92194 0.25032 0.0
C1906 C 0.24572 0.92523 0.27056 0.0
C1907 C 0.25712 0.92194 0.23625 0.0
C1908 C 0.27698 0.92511 0.24186 0.0
H1909 H 0.22686 0.91893 0.24528 0.0
H1910 H 0.25336 0.91892 0.22092 0.0
S1911 S 0.29504 0.93603 0.29274 0.0
N1912 N 0.27088 0.93301 0.29533 0.0
N1913 N 0.29961 0.93283 0.26889 0.0
C1914 C 0.28105 0.92908 0.26194 0.0
C1915 C 0.26544 0.9292 0.27628 0.0
C1916 C 0.05915 0.71456 0.73436 0.0
C1917 C 0.06102 0.71795 0.75489 0.0
C1918 C 0.05992 0.73025 0.72076 0.0
C1919 C 0.06275 0.7499 0.72717 0.0
H1920 H 0.05758 0.69962 0.72866 0.0
H1921 H 0.05905 0.72681 0.70509 0.0
S1922 S 0.0663 0.76704 0.77939 0.0
N1923 N 0.06416 0.74271 0.78104 0.0
N1924 N 0.06575 0.77213 0.75545 0.0
C1925 C 0.06371 0.75362 0.74768 0.0
C1926 C 0.06281 0.73767 0.76155 0.0
C1927 C 0.27534 0.04594 0.73017 0.0
C1928 C 0.27008 0.04802 0.75027 0.0
C1929 C 0.261 0.0471 0.71515 0.0
C1930 C 0.24088 0.05041 0.71969 0.0
H1931 H 0.29075 0.04443 0.72588 0.0
H1932 H 0.26591 0.04638 0.69987 0.0
S1933 S 0.21895 0.05315 0.77012 0.0
N1934 N 0.24302 0.05079 0.774 0.0
N1935 N 0.2161 0.05304 0.74579 0.0
C1936 C 0.23523 0.05093 0.73976 0.0
C1937 C 0.24982 0.0497 0.75505 0.0
C1938 C 0.92899 0.24731 0.75264 0.0
C1939 C 0.93269 0.26736 0.74819 0.0
C1940 C 0.92733 0.23307 0.73762 0.0
C1941 C 0.92925 0.23829 0.71752 0.0
H1942 H 0.92662 0.24263 0.76783 0.0
H1943 H 0.92378 0.21798 0.74183 0.0
S1944 S 0.94168 0.28824 0.69803 0.0
N1945 N 0.94026 0.29133 0.72229 0.0
N1946 N 0.93703 0.26454 0.69402 0.0
C1947 C 0.93412 0.25804 0.71288 0.0
C1948 C 0.9359 0.27257 0.72822 0.0
C1949 C 0.71565 0.94149 0.72912 0.0
C1950 C 0.72169 0.93987 0.74904 0.0
C1951 C 0.72951 0.94086 0.71364 0.0
C1952 C 0.7499 0.93858 0.71752 0.0
H1953 H 0.70004 0.94219 0.72534 0.0
H1954 H 0.72407 0.94116 0.69852 0.0
S1955 S 0.77362 0.93751 0.76723 0.0
N1956 N 0.74961 0.9387 0.77189 0.0
N1957 N 0.77564 0.9375 0.74282 0.0
C1958 C 0.75624 0.93858 0.73741 0.0
C1959 C 0.74214 0.93924 0.75316 0.0
C1960 C 0.23578 0.05199 0.25153 0.0
C1961 C 0.24062 0.04955 0.27168 0.0
C1962 C 0.2505 0.0526 0.23697 0.0
C1963 C 0.27068 0.05077 0.24194 0.0
H1964 H 0.22055 0.0544 0.24699 0.0
H1965 H 0.24602 0.05544 0.2218 0.0
S1966 S 0.291 0.04066 0.29213 0.0
N1967 N 0.26683 0.0427 0.29558 0.0
N1968 N 0.2946 0.04384 0.26811 0.0
C1969 C 0.27565 0.04664 0.2618 0.0
C1970 C 0.26059 0.04603 0.2767 0.0
C1971 C 0.93843 0.27617 0.25718 0.0
C1972 C 0.93718 0.27052 0.2371 0.0
C1973 C 0.93985 0.26191 0.27224 0.0
C1974 C 0.9401 0.24153 0.26771 0.0
H1975 H 0.93715 0.29162 0.26141 0.0
H1976 H 0.93957 0.26688 0.28752 0.0
S1977 S 0.94135 0.2193 0.21733 0.0
N1978 N 0.9393 0.24338 0.21339 0.0
N1979 N 0.94203 0.2166 0.24166 0.0
C1980 C 0.94066 0.23582 0.24764 0.0
C1981 C 0.93918 0.25031 0.23234 0.0
C1982 C 0.74475 0.92275 0.25548 0.0
C1983 C 0.74018 0.92214 0.27584 0.0
C1984 C 0.7298 0.92256 0.24104 0.0
C1985 C 0.70964 0.92179 0.24636 0.0
H1986 H 0.76005 0.92305 0.25056 0.0
H1987 H 0.73415 0.92276 0.22557 0.0
S1988 S 0.68965 0.92091 0.29771 0.0
N1989 N 0.71395 0.92142 0.30063 0.0
N1990 N 0.68584 0.92111 0.27351 0.0
C1991 C 0.70481 0.92165 0.26669 0.0
C1992 C 0.72007 0.92182 0.28141 0.0
C1993 C 0.05183 0.74036 0.24569 0.0
C1994 C 0.05151 0.71996 0.25003 0.0
C1995 C 0.05303 0.75456 0.26077 0.0
C1996 C 0.05411 0.74896 0.28084 0.0
H1997 H 0.05182 0.74544 0.23044 0.0
H1998 H 0.05387 0.77004 0.25655 0.0
S1999 S 0.05154 0.69754 0.30033 0.0
N2000 N 0.0506 0.6949 0.27599 0.0
N2001 N 0.05301 0.72165 0.3044 0.0
C2002 C 0.0527 0.72866 0.2855 0.0
C2003 C 0.05133 0.71415 0.27009 0.0
C2004 C 0.26583 0.94535 0.71408 0.0
C2005 C 0.24567 0.94608 0.71948 0.0
C2006 C 0.28079 0.94527 0.72855 0.0
C2007 C 0.27605 0.94593 0.74888 0.0
H2008 H 0.27008 0.94347 0.69869 0.0
H2009 H 0.29601 0.94334 0.7238 0.0
S2010 S 0.22582 0.9525 0.77042 0.0
N2011 N 0.22199 0.9508 0.74628 0.0
N2012 N 0.25006 0.95068 0.77345 0.0
C2013 C 0.2561 0.94866 0.75431 0.0
C2014 C 0.24091 0.94873 0.73961 0.0
C2015 C 0.05482 0.23342 0.73239 0.0
C2016 C 0.05501 0.23821 0.71209 0.0
C2017 C 0.05315 0.24814 0.74691 0.0
C2018 C 0.05158 0.2683 0.74176 0.0
H2019 H 0.05663 0.2182 0.73722 0.0
H2020 H 0.05383 0.24368 0.76233 0.0
S2021 S 0.04887 0.28855 0.69062 0.0
N2022 N 0.05164 0.26441 0.68749 0.0
N2023 N 0.04846 0.29216 0.71485 0.0
C2024 C 0.05051 0.27324 0.7215 0.0
C2025 C 0.05227 0.25819 0.70665 0.0
C2026 C 0.7379 0.05358 0.75751 0.0
C2027 C 0.71814 0.04809 0.75364 0.0
C2028 C 0.75205 0.05413 0.74238 0.0
C2029 C 0.74705 0.04921 0.72272 0.0
H2030 H 0.74235 0.05839 0.7722 0.0
H2031 H 0.76681 0.05934 0.74602 0.0
S2032 S 0.69825 0.03045 0.70539 0.0
N2033 N 0.69492 0.03513 0.72921 0.0
N2034 N 0.7216 0.03614 0.70067 0.0
C2035 C 0.72777 0.04216 0.71891 0.0
C2036 C 0.71329 0.0416 0.73439 0.0
C2037 C 0.92479 0.74565 0.74988 0.0
C2038 C 0.92685 0.72534 0.74557 0.0
C2039 C 0.92558 0.75994 0.73487 0.0
C2040 C 0.92832 0.75451 0.7149 0.0
H2041 H 0.92204 0.75058 0.76493 0.0
H2042 H 0.92339 0.77534 0.73894 0.0
S2043 S 0.93627 0.70343 0.69587 0.0
N2044 N 0.93317 0.70059 0.72 0.0
N2045 N 0.93449 0.7275 0.69174 0.0
C2046 C 0.93124 0.73432 0.71044 0.0
C2047 C 0.93058 0.71974 0.72578 0.0
C2048 C 0.25647 0.27885 0.0582 0.0
C2049 C 0.23606 0.27466 0.05956 0.0
C2050 C 0.27058 0.26359 0.05737 0.0
C2051 C 0.2648 0.24356 0.05797 0.0
H2052 H 0.2617 0.29404 0.05838 0.0
H2053 H 0.28614 0.26756 0.0571 0.0
S2054 S 0.21313 0.2246 0.0589 0.0
N2055 N 0.21072 0.24896 0.05955 0.0
N2056 N 0.23722 0.22032 0.05806 0.0
C2057 C 0.24441 0.23916 0.05824 0.0
C2058 C 0.23004 0.25469 0.05903 0.0
C2059 C 0.23246 0.73706 0.92317 0.0
C2060 C 0.23831 0.71743 0.92717 0.0
C2061 C 0.24609 0.7527 0.92396 0.0
C2062 C 0.26613 0.74936 0.92881 0.0
H2063 H 0.21732 0.74036 0.9189 0.0
H2064 H 0.24093 0.76744 0.92018 0.0
S2065 S 0.2886 0.70096 0.94254 0.0
N2066 N 0.26521 0.69569 0.93758 0.0
N2067 N 0.29082 0.7251 0.93914 0.0
C2068 C 0.272 0.72993 0.93372 0.0
C2069 C 0.25811 0.71397 0.93286 0.0
C2070 C 0.25411 0.26919 0.93895 0.0
C2071 C 0.23408 0.26386 0.93649 0.0
C2072 C 0.26904 0.25471 0.93976 0.0
C2073 C 0.26442 0.23442 0.93816 0.0
H2074 H 0.25845 0.28466 0.93914 0.0
H2075 H 0.28435 0.25953 0.94054 0.0
S2076 S 0.21393 0.21266 0.93551 0.0
N2077 N 0.21019 0.23686 0.93535 0.0
N2078 N 0.2382 0.20968 0.93691 0.0
C2079 C 0.24432 0.22888 0.9374 0.0
C2080 C 0.22916 0.2436 0.93655 0.0
C2081 C 0.73908 0.23492 0.93583 0.0
C2082 C 0.719 0.23954 0.93916 0.0
C2083 C 0.75366 0.24965 0.93602 0.0
C2084 C 0.74879 0.26965 0.93954 0.0
H2085 H 0.74355 0.21992 0.93216 0.0
H2086 H 0.76875 0.24538 0.93249 0.0
S2087 S 0.6989 0.28908 0.95251 0.0
N2088 N 0.69535 0.26516 0.94861 0.0
N2089 N 0.72282 0.29293 0.94896 0.0
C2090 C 0.72902 0.27428 0.94444 0.0
C2091 C 0.71411 0.25921 0.94425 0.0
C2092 C 0.7149 0.73152 0.944 0.0
C2093 C 0.72031 0.75161 0.94235 0.0
C2094 C 0.72936 0.71665 0.94552 0.0
C2095 C 0.74968 0.72141 0.94548 0.0
H2096 H 0.69949 0.72711 0.94279 0.0
H2097 H 0.72459 0.70131 0.94536 0.0
S2098 S 0.77124 0.77204 0.94607 0.0
N2099 N 0.7471 0.77567 0.94408 0.0
N2100 N 0.77427 0.74776 0.94707 0.0
C2101 C 0.75513 0.74154 0.94589 0.0
C2102 C 0.74043 0.75664 0.94427 0.0
C2103 C 0.74783 0.74057 0.06084 0.0
C2104 C 0.74388 0.72042 0.05703 0.0
C2105 C 0.73251 0.75456 0.06189 0.0
C2106 C 0.71259 0.749 0.05922 0.0
H2107 H 0.76285 0.74555 0.06366 0.0
H2108 H 0.73633 0.76976 0.06543 0.0
S2109 S 0.69441 0.69853 0.04669 0.0
N2110 N 0.71866 0.6959 0.04891 0.0
N2111 N 0.68984 0.72221 0.05097 0.0
C2112 C 0.70847 0.72909 0.05444 0.0
C2113 C 0.72412 0.71481 0.05329 0.0
C2114 C 0.25615 0.72082 0.05274 0.0
C2115 C 0.23659 0.72682 0.05685 0.0
C2116 C 0.27157 0.7347 0.05155 0.0
C2117 C 0.26796 0.75508 0.05437 0.0
H2118 H 0.25981 0.70523 0.05137 0.0
H2119 H 0.28653 0.72928 0.04927 0.0
S2120 S 0.21875 0.77866 0.06209 0.0
N2121 N 0.21403 0.75465 0.06129 0.0
N2122 N 0.24294 0.78074 0.05897 0.0
C2123 C 0.24823 0.76137 0.05702 0.0
C2124 C 0.23256 0.74724 0.05829 0.0
C2125 C 0.73588 0.23686 0.04958 0.0
C2126 C 0.7158 0.24172 0.04659 0.0
C2127 C 0.75054 0.2515 0.04984 0.0
C2128 C 0.74576 0.27163 0.04713 0.0
H2129 H 0.74028 0.22172 0.05267 0.0
H2130 H 0.76562 0.24702 0.05312 0.0
S2131 S 0.69589 0.29181 0.03526 0.0
N2132 N 0.69222 0.26778 0.03826 0.0
N2133 N 0.71987 0.29538 0.03876 0.0
C2134 C 0.72599 0.27654 0.04249 0.0
C2135 C 0.71099 0.26157 0.04222 0.0
C2136 C 0.5583 0.74891 0.74398 0.0
C2137 C 0.55735 0.76925 0.74857 0.0
C2138 C 0.55926 0.73454 0.75892 0.0
C2139 C 0.55941 0.7399 0.77909 0.0
H2140 H 0.55888 0.744 0.72868 0.0
H2141 H 0.56051 0.71913 0.75453 0.0
S2142 S 0.5552 0.79104 0.79915 0.0
N2143 N 0.55508 0.79397 0.77483 0.0
N2144 N 0.557 0.76692 0.80294 0.0
C2145 C 0.55754 0.76013 0.78396 0.0
C2146 C 0.55645 0.77481 0.76869 0.0
C2147 C 0.23788 0.56314 0.73539 0.0
C2148 C 0.21785 0.55944 0.73989 0.0
C2149 C 0.25225 0.56412 0.75033 0.0
C2150 C 0.24719 0.56156 0.77042 0.0
H2151 H 0.24248 0.56576 0.72022 0.0
H2152 H 0.26738 0.56745 0.74608 0.0
S2153 S 0.19712 0.54991 0.79005 0.0
N2154 N 0.19389 0.55191 0.76586 0.0
N2155 N 0.22096 0.55393 0.79396 0.0
C2156 C 0.22736 0.55712 0.77511 0.0
C2157 C 0.21269 0.55598 0.75985 0.0
C2158 C 0.43248 0.21094 0.7635 0.0
C2159 C 0.4329 0.21727 0.74361 0.0
C2160 C 0.43191 0.22464 0.77914 0.0
C2161 C 0.43182 0.24519 0.7755 0.0
H2162 H 0.43179 0.19528 0.76704 0.0
H2163 H 0.43092 0.21903 0.79416 0.0
S2164 S 0.43539 0.26941 0.72615 0.0
N2165 N 0.43507 0.24543 0.72119 0.0
N2166 N 0.43407 0.27118 0.75054 0.0
C2167 C 0.43335 0.25171 0.75572 0.0
C2168 C 0.43388 0.23775 0.7398 0.0
C2169 C 0.73713 0.43623 0.74942 0.0
C2170 C 0.74241 0.43855 0.76948 0.0
C2171 C 0.75152 0.43575 0.73452 0.0
C2172 C 0.7718 0.43759 0.73906 0.0
H2173 H 0.72181 0.43379 0.7452 0.0
H2174 H 0.74672 0.43296 0.71944 0.0
S2175 S 0.79316 0.44757 0.78887 0.0
N2176 N 0.76909 0.44538 0.79284 0.0
N2177 N 0.79624 0.44451 0.76476 0.0
C2178 C 0.77718 0.44163 0.75884 0.0
C2179 C 0.76246 0.44211 0.77408 0.0
C2180 C 0.54937 0.21644 0.2305 0.0
C2181 C 0.55057 0.22137 0.25076 0.0
C2182 C 0.54957 0.2312 0.21585 0.0
C2183 C 0.55097 0.2514 0.22096 0.0
H2184 H 0.5494 0.20106 0.22583 0.0
H2185 H 0.54971 0.22666 0.20043 0.0
S2186 S 0.55054 0.27219 0.27197 0.0
N2187 N 0.55033 0.24793 0.27521 0.0
N2188 N 0.55069 0.27563 0.24773 0.0
C2189 C 0.55049 0.25655 0.24118 0.0
C2190 C 0.55029 0.24155 0.25607 0.0
C2191 C 0.7764 0.54819 0.22805 0.0
C2192 C 0.77159 0.54853 0.24837 0.0
C2193 C 0.76151 0.54785 0.21351 0.0
C2194 C 0.74131 0.54785 0.2188 0.0
H2195 H 0.7917 0.54932 0.22329 0.0
H2196 H 0.76589 0.54875 0.19808 0.0
S2197 S 0.72107 0.54466 0.2699 0.0
N2198 N 0.74533 0.54589 0.27298 0.0
N2199 N 0.71739 0.54527 0.24569 0.0
C2200 C 0.73639 0.54646 0.23902 0.0
C2201 C 0.75152 0.5468 0.2538 0.0
C2202 C 0.44147 0.75425 0.2177 0.0
C2203 C 0.43734 0.73412 0.22139 0.0
C2204 C 0.44158 0.7682 0.23312 0.0
C2205 C 0.43753 0.76255 0.25279 0.0
H2206 H 0.44374 0.75949 0.20269 0.0
H2207 H 0.44388 0.78366 0.22939 0.0
S2208 S 0.42932 0.71119 0.2708 0.0
N2209 N 0.43168 0.70886 0.24653 0.0
N2210 N 0.43186 0.73509 0.27548 0.0
C2211 C 0.43489 0.74226 0.25689 0.0
C2212 C 0.4348 0.72805 0.24119 0.0
C2213 C 0.2589 0.43274 0.2427 0.0
C2214 C 0.25426 0.4362 0.22266 0.0
C2215 C 0.24429 0.43349 0.25738 0.0
C2216 C 0.22441 0.4377 0.25264 0.0
H2217 H 0.2738 0.42856 0.24706 0.0
H2218 H 0.24853 0.42984 0.27245 0.0
S2219 S 0.20506 0.45105 0.20282 0.0
N2220 N 0.22883 0.44639 0.19912 0.0
N2221 N 0.20127 0.44779 0.2268 0.0
C2222 C 0.21982 0.44275 0.2329 0.0
C2223 C 0.23477 0.442 0.21788 0.0
C2224 C 0.73946 0.56212 0.74967 0.0
C2225 C 0.74449 0.55934 0.76976 0.0
C2226 C 0.75399 0.56199 0.73481 0.0
C2227 C 0.77416 0.55921 0.73943 0.0
H2228 H 0.72423 0.56494 0.74539 0.0
H2229 H 0.7494 0.56478 0.71966 0.0
S2230 S 0.79498 0.54918 0.78943 0.0
N2231 N 0.77097 0.55209 0.79326 0.0
N2232 N 0.79825 0.55204 0.76533 0.0
C2233 C 0.77932 0.55553 0.75932 0.0
C2234 C 0.7645 0.55553 0.77447 0.0
C2235 C 0.43315 0.75096 0.73289 0.0
C2236 C 0.43817 0.77069 0.73748 0.0
C2237 C 0.43246 0.73638 0.7476 0.0
C2238 C 0.4368 0.74092 0.7675 0.0
H2239 H 0.42883 0.74684 0.71796 0.0
H2240 H 0.42764 0.72163 0.74341 0.0
S2241 S 0.45408 0.78958 0.78671 0.0
N2242 N 0.44997 0.79348 0.76288 0.0
N2243 N 0.44873 0.76601 0.79061 0.0
C2244 C 0.44333 0.76023 0.77205 0.0
C2245 C 0.44401 0.77513 0.75702 0.0
C2246 C 0.25631 0.4219 0.75195 0.0
C2247 C 0.25104 0.42461 0.77195 0.0
C2248 C 0.24231 0.42398 0.73678 0.0
C2249 C 0.22244 0.42888 0.74096 0.0
H2250 H 0.27128 0.4176 0.74795 0.0
H2251 H 0.24703 0.4211 0.72168 0.0
S2252 S 0.20148 0.43973 0.79074 0.0
N2253 N 0.22492 0.43404 0.79505 0.0
N2254 N 0.19857 0.43799 0.76648 0.0
C2255 C 0.21717 0.43263 0.76081 0.0
C2256 C 0.23146 0.43045 0.77631 0.0
C2257 C 0.55245 0.22802 0.77321 0.0
C2258 C 0.55401 0.24806 0.76756 0.0
C2259 C 0.55127 0.2129 0.75896 0.0
C2260 C 0.5516 0.21731 0.73857 0.0
H2261 H 0.5532 0.22385 0.78871 0.0
H2262 H 0.5512 0.19765 0.76399 0.0
S2263 S 0.55161 0.26756 0.71612 0.0
N2264 N 0.55298 0.27161 0.74024 0.0
N2265 N 0.55075 0.24323 0.7135 0.0
C2266 C 0.55149 0.23734 0.73277 0.0
C2267 C 0.5527 0.25272 0.74726 0.0
C2268 C 0.74921 0.4364 0.25382 0.0
C2269 C 0.76927 0.43968 0.24912 0.0
C2270 C 0.73459 0.43637 0.23911 0.0
C2271 C 0.73939 0.43962 0.21906 0.0
H2272 H 0.7448 0.43294 0.26888 0.0
H2273 H 0.71951 0.4329 0.24345 0.0
S2274 S 0.78922 0.45221 0.19935 0.0
N2275 N 0.79285 0.44871 0.22332 0.0
N2276 N 0.76528 0.44864 0.1956 0.0
C2277 C 0.75914 0.44444 0.21433 0.0
C2278 C 0.77409 0.44448 0.22938 0.0
C2279 C 0.5455 0.76737 0.23339 0.0
C2280 C 0.54733 0.76191 0.25346 0.0
C2281 C 0.54609 0.75306 0.21829 0.0
C2282 C 0.5485 0.73281 0.22276 0.0
H2283 H 0.54483 0.78287 0.22921 0.0
H2284 H 0.54581 0.75804 0.20301 0.0
S2285 S 0.54981 0.71057 0.2731 0.0
N2286 N 0.54862 0.7347 0.27709 0.0
N2287 N 0.54968 0.70783 0.24876 0.0
C2288 C 0.54854 0.72706 0.24281 0.0
C2289 C 0.54797 0.74161 0.25816 0.0
C2290 C 0.25559 0.55665 0.23052 0.0
C2291 C 0.24948 0.55609 0.21057 0.0
C2292 C 0.24184 0.55571 0.24601 0.0
C2293 C 0.22138 0.55409 0.24223 0.0
H2294 H 0.2711 0.5585 0.2343 0.0
H2295 H 0.24729 0.55691 0.26108 0.0
S2296 S 0.1978 0.54974 0.19261 0.0
N2297 N 0.22171 0.55212 0.18784 0.0
N2298 N 0.19578 0.55025 0.21702 0.0
C2299 C 0.21511 0.55234 0.22237 0.0
C2300 C 0.22917 0.5534 0.20653 0.0
C2301 C 0.44035 0.23746 0.25601 0.0
C2302 C 0.44279 0.21726 0.25141 0.0
C2303 C 0.44036 0.25191 0.24116 0.0
C2304 C 0.4428 0.24678 0.22107 0.0
H2305 H 0.43747 0.24215 0.27111 0.0
H2306 H 0.43748 0.26714 0.24544 0.0
S2307 S 0.45321 0.19634 0.2015 0.0
N2308 N 0.45032 0.1931 0.22561 0.0
N2309 N 0.45032 0.22035 0.19761 0.0
C2310 C 0.44693 0.22684 0.2164 0.0
C2311 C 0.44692 0.21205 0.2316 0.0
C2312 C 0.75007 0.73297 0.5591 0.0
C2313 C 0.76919 0.73838 0.55276 0.0
C2314 C 0.73437 0.74653 0.55875 0.0
C2315 C 0.73713 0.7661 0.55208 0.0
H2316 H 0.7473 0.71835 0.56515 0.0
H2317 H 0.72017 0.7418 0.56458 0.0
S2318 S 0.7835 0.78682 0.53088 0.0
N2319 N 0.78946 0.76397 0.53738 0.0
N2320 N 0.75988 0.78953 0.53676 0.0
C2321 C 0.75581 0.77133 0.54439 0.0
C2322 C 0.77186 0.75746 0.54472 0.0
C2323 C 0.75054 0.25447 0.43472 0.0
C2324 C 0.77065 0.24972 0.43765 0.0
C2325 C 0.73588 0.23982 0.43511 0.0
C2326 C 0.7407 0.2198 0.43846 0.0
H2327 H 0.74609 0.26951 0.43123 0.0
H2328 H 0.72075 0.24419 0.43189 0.0
S2329 S 0.79075 0.2 0.45022 0.0
N2330 N 0.79436 0.22392 0.44643 0.0
N2331 N 0.76673 0.19632 0.44717 0.0
C2332 C 0.76054 0.21503 0.44294 0.0
C2333 C 0.77553 0.23001 0.44253 0.0
C2334 C 0.74813 0.72928 0.43638 0.0
C2335 C 0.76802 0.73394 0.44062 0.0
C2336 C 0.73341 0.74389 0.43654 0.0
C2337 C 0.73794 0.76376 0.44101 0.0
H2338 H 0.74396 0.71442 0.43191 0.0
H2339 H 0.71852 0.73967 0.43221 0.0
S2340 S 0.78705 0.783 0.45685 0.0
N2341 N 0.79101 0.75929 0.45212 0.0
N2342 N 0.76325 0.78683 0.45247 0.0
C2343 C 0.75743 0.76833 0.44696 0.0
C2344 C 0.77249 0.7534 0.44675 0.0
C2345 C 0.24204 0.73226 0.43721 0.0
C2346 C 0.22182 0.73703 0.43915 0.0
C2347 C 0.25669 0.74675 0.43922 0.0
C2348 C 0.25174 0.76663 0.44317 0.0
H2349 H 0.2466 0.71738 0.43316 0.0
H2350 H 0.27196 0.74246 0.43656 0.0
S2351 S 0.20121 0.78613 0.45325 0.0
N2352 N 0.19774 0.76245 0.44803 0.0
N2353 N 0.22537 0.78981 0.45176 0.0
C2354 C 0.23172 0.77128 0.44694 0.0
C2355 C 0.21673 0.75644 0.44493 0.0
C2356 C 0.23269 0.21319 0.44119 0.0
C2357 C 0.25293 0.21816 0.44012 0.0
C2358 C 0.21802 0.22795 0.44134 0.0
C2359 C 0.2231 0.24818 0.44043 0.0
H2360 H 0.22806 0.19781 0.44074 0.0
H2361 H 0.20261 0.22342 0.441 0.0
S2362 S 0.27405 0.26896 0.44156 0.0
N2363 N 0.27734 0.2447 0.44115 0.0
N2364 N 0.2498 0.2724 0.44144 0.0
C2365 C 0.2433 0.25332 0.44113 0.0
C2366 C 0.25821 0.23832 0.44097 0.0
C2367 C 0.2407 0.25188 0.55203 0.0
C2368 C 0.22075 0.24649 0.54914 0.0
C2369 C 0.25584 0.23772 0.55158 0.0
C2370 C 0.2517 0.21754 0.54828 0.0
H2371 H 0.24463 0.26707 0.55549 0.0
H2372 H 0.27083 0.24259 0.55474 0.0
S2373 S 0.20228 0.1961 0.53687 0.0
N2374 N 0.19788 0.21991 0.54058 0.0
N2375 N 0.22643 0.1932 0.53977 0.0
C2376 C 0.23201 0.21213 0.54388 0.0
C2377 C 0.21651 0.22662 0.5443 0.0
C2378 C 0.77163 0.22728 0.54817 0.0
C2379 C 0.76645 0.2475 0.54885 0.0
C2380 C 0.75701 0.21248 0.54827 0.0
C2381 C 0.73672 0.21739 0.54902 0.0
H2382 H 0.78705 0.22278 0.54867 0.0
H2383 H 0.76172 0.19712 0.54881 0.0
S2384 S 0.71544 0.26817 0.54714 0.0
N2385 N 0.73968 0.27165 0.54751 0.0
N2386 N 0.71224 0.2439 0.54763 0.0
C2387 C 0.73138 0.23755 0.54805 0.0
C2388 C 0.74624 0.25258 0.54798 0.0
C2389 C 0.22624 0.7765 0.55742 0.0
C2390 C 0.24635 0.77104 0.55613 0.0
C2391 C 0.21122 0.76211 0.55787 0.0
C2392 C 0.21575 0.74174 0.55695 0.0
H2393 H 0.22207 0.79194 0.55896 0.0
H2394 H 0.19601 0.76701 0.55962 0.0
S2395 S 0.26596 0.71987 0.55064 0.0
N2396 N 0.26987 0.744 0.55193 0.0
N2397 N 0.24173 0.71699 0.55266 0.0
C2398 C 0.23573 0.73616 0.55446 0.0
C2399 C 0.251 0.7508 0.55408 0.0
C2400 C 0.00671 0.16322 0.32574 0.0
C2401 C 0.01777 0.17724 0.33653 0.0
C2402 C 0.98598 0.16317 0.32647 0.0
C2403 C 0.9756 0.17722 0.33793 0.0
H2404 H 0.01395 0.15342 0.31525 0.0
H2405 H 0.97811 0.15336 0.31646 0.0
S2406 S -0.00215 0.21261 0.37377 0.0
N2407 N 0.01704 0.20215 0.3627 0.0
N2408 N 0.97799 0.20212 0.364 0.0
C2409 C 0.98653 0.18912 0.35115 0.0
C2410 C 0.00771 0.18914 0.35045 0.0
C2411 C 0.79844 0.98817 0.34789 0.0
C2412 C 0.81049 0.97614 0.33581 0.0
C2413 C 0.79997 0.00886 0.34727 0.0
C2414 C 0.81356 0.01818 0.33448 0.0
H2415 H 0.78663 0.98173 0.35667 0.0
H2416 H 0.78918 0.01751 0.35546 0.0
S2417 S 0.8524 0.9932 0.3045 0.0
N2418 N 0.83938 0.97488 0.31418 0.0
N2419 N 0.84221 0.01381 0.31296 0.0
C2420 C 0.8275 0.00628 0.32449 0.0
C2421 C 0.82595 0.9852 0.32514 0.0
C2422 C 0.97746 0.79963 0.35672 0.0
C2423 C 0.96712 0.81295 0.34442 0.0
C2424 C -0.00183 0.80028 0.35807 0.0
C2425 C 0.00916 0.81426 0.34715 0.0
H2426 H 0.9698 0.7874 0.36376 0.0
H2427 H 0.0056 0.78854 0.36614 0.0
S2428 S 0.98856 0.85637 0.31834 0.0
N2429 N 0.96894 0.84347 0.32526 0.0
N2430 N 0.00791 0.84467 0.32777 0.0
C2431 C -0.00121 0.82949 0.33738 0.0
C2432 C 0.9777 0.82884 0.33602 0.0
C2433 C 0.16333 0.00151 0.32687 0.0
C2434 C 0.17647 0.01259 0.33873 0.0
C2435 C 0.16461 0.98083 0.32599 0.0
C2436 C 0.179 0.97047 0.33701 0.0
H2437 H 0.15323 0.00889 0.31677 0.0
H2438 H 0.15535 0.97312 0.31535 0.0
S2439 S 0.2127 0.99211 0.3748 0.0
N2440 N 0.20117 0.01141 0.36506 0.0
N2441 N 0.20353 0.97244 0.36345 0.0
C2442 C 0.19016 0.98111 0.35109 0.0
C2443 C 0.18887 0.00224 0.35197 0.0
C2444 C 0.01504 0.80751 0.64575 0.0
C2445 C 0.02451 0.81869 0.66063 0.0
C2446 C 0.99443 0.80823 0.64336 0.0
C2447 C 0.9826 0.8202 0.65572 0.0
H2448 H 0.02331 0.79685 0.637 0.0
H2449 H 0.98768 0.79811 0.63286 0.0
S2450 S 0.00085 0.85652 0.6929 0.0
N2451 N 0.02105 0.84516 0.68494 0.0
N2452 N 0.98227 0.84662 0.68038 0.0
C2453 C 0.99216 0.83342 0.66875 0.0
C2454 C 0.01317 0.83263 0.67124 0.0
C2455 C 0.16396 0.00497 0.65824 0.0
C2456 C 0.17838 0.01523 0.64719 0.0
C2457 C 0.16382 0.98424 0.65883 0.0
C2458 C 0.17808 0.97314 0.64839 0.0
H2459 H 0.1541 0.01289 0.66818 0.0
H2460 H 0.15389 0.97706 0.66922 0.0
S2461 S 0.21384 0.99287 0.61153 0.0
N2462 N 0.20342 0.01278 0.62131 0.0
N2463 N 0.20314 0.97372 0.62238 0.0
C2464 C 0.19007 0.98312 0.63453 0.0
C2465 C 0.19024 0.00428 0.63396 0.0
C2466 C 0.97959 0.17618 0.63701 0.0
C2467 C 0.969 0.16675 0.6523 0.0
C2468 C 0.00031 0.17591 0.6367 0.0
C2469 C 0.01112 0.16621 0.65168 0.0
H2470 H 0.97197 0.18537 0.62625 0.0
H2471 H 0.00781 0.1849 0.62571 0.0
S2472 S 0.99027 0.13405 0.69115 0.0
N2473 N 0.97067 0.14351 0.67989 0.0
N2474 N 0.00973 0.14301 0.67931 0.0
C2475 C 0.0007 0.1542 0.66517 0.0
C2476 C 0.97954 0.15445 0.66548 0.0
C2477 C 0.7946 0.0072 0.63516 0.0
C2478 C 0.80868 0.01751 0.64663 0.0
C2479 C 0.7949 0.98645 0.63409 0.0
C2480 C 0.80931 0.97545 0.64444 0.0
H2481 H 0.78203 0.01492 0.62878 0.0
H2482 H 0.78254 0.97906 0.62696 0.0
S2483 S 0.85337 -0.00413 0.67033 0.0
N2484 N 0.84029 0.01557 0.66394 0.0
N2485 N 0.84092 0.97655 0.66185 0.0
C2486 C 0.8253 0.98576 0.65303 0.0
C2487 C 0.82496 0.00686 0.65415 0.0
C2488 C 0.35435 0.98867 0.18946 0.0
C2489 C 0.34253 0.97714 0.17669 0.0
C2490 C 0.35341 0.0094 0.189 0.0
C2491 C 0.34053 0.01921 0.17582 0.0
H2492 H 0.36303 0.98175 0.20108 0.0
H2493 H 0.36127 0.01758 0.20038 0.0
S2494 S 0.31163 -0.00407 0.13518 0.0
N2495 N 0.32144 0.97708 0.14736 0.0
N2496 N 0.31957 0.0161 0.1466 0.0
C2497 C 0.33103 0.00795 0.16105 0.0
C2498 C 0.33204 0.98683 0.16148 0.0
C2499 C 0.98105 0.32897 0.16064 0.0
C2500 C 0.96876 0.34043 0.17304 0.0
C2501 C 0.00171 0.33028 0.16197 0.0
C2502 C 0.01076 0.34308 0.17574 0.0
H2503 H 0.97479 0.31757 0.15119 0.0
H2504 H 0.01051 0.31987 0.15343 0.0
S2505 S 0.98523 0.38073 0.20678 0.0
N2506 N 0.96709 0.36836 0.19592 0.0
N2507 N 0.006 0.37077 0.19844 0.0
C2508 C -0.0013 0.3567 0.18597 0.0
C2509 C 0.97762 0.35542 0.18457 0.0
C2510 C 0.63663 0.9885 0.19123 0.0
C2511 C 0.64786 0.97608 0.17876 0.0
C2512 C 0.63767 0.00916 0.18948 0.0
C2513 C 0.65006 0.01808 0.17526 0.0
H2514 H 0.62822 0.98235 0.20345 0.0
H2515 H 0.63015 0.01808 0.20054 0.0
S2516 S 0.67782 0.99209 0.13545 0.0
N2517 N 0.66825 0.9741 0.149 0.0
N2518 N 0.67029 0.01298 0.14581 0.0
C2519 C 0.6592 0.00583 0.16105 0.0
C2520 C 0.65811 0.98478 0.1628 0.0
C2521 C 0.00422 0.64079 0.19069 0.0
C2522 C 0.01533 0.65319 0.17813 0.0
C2523 C 0.98349 0.6401 0.18931 0.0
C2524 C 0.97329 0.6518 0.17533 0.0
H2525 H 0.01127 0.63322 0.20299 0.0
H2526 H 0.97543 0.63205 0.20063 0.0
S2527 S -0.00387 0.68107 0.13477 0.0
N2528 N 0.01511 0.67323 0.14814 0.0
N2529 N 0.97613 0.67189 0.1455 0.0
C2530 C 0.98447 0.66159 0.1607 0.0
C2531 C 0.00555 0.66232 0.16213 0.0
C2532 C 0.33684 0.98481 0.82945 0.0
C2533 C 0.34715 0.97436 0.81459 0.0
C2534 C 0.33605 0.00554 0.82929 0.0
C2535 C 0.34557 0.01646 0.81429 0.0
H2536 H 0.32749 0.97699 0.83991 0.0
H2537 H 0.32615 0.01282 0.83966 0.0
S2538 S 0.38059 -0.00365 0.77686 0.0
N2539 N 0.37162 0.97656 0.78814 0.0
N2540 N 0.37015 0.01561 0.78785 0.0
C2541 C 0.35886 0.00636 0.80173 0.0
C2542 C 0.35966 0.9852 0.80189 0.0
C2543 C 0.00483 0.32627 0.82503 0.0
C2544 C 0.01483 0.33717 0.81032 0.0
C2545 C 0.98411 0.32625 0.82605 0.0
C2546 C 0.97268 0.33713 0.81238 0.0
H2547 H 0.01289 0.31618 0.8346 0.0
H2548 H 0.97707 0.31613 0.83634 0.0
S2549 S 0.99193 0.37316 0.77553 0.0
N2550 N 0.01199 0.36291 0.78518 0.0
N2551 N 0.97295 0.36289 0.78709 0.0
C2552 C 0.98256 0.35054 0.79982 0.0
C2553 C 0.00372 0.35056 0.79878 0.0
C2554 C 0.66097 0.00203 0.83287 0.0
C2555 C 0.64923 0.01285 0.81941 0.0
C2556 C 0.66179 0.98131 0.83203 0.0
C2557 C 0.65088 0.97074 0.8177 0.0
H2558 H 0.67118 0.0096 0.84271 0.0
H2559 H 0.67258 0.9738 0.84127 0.0
S2560 S 0.6126 0.99172 0.78415 0.0
N2561 N 0.62251 0.01123 0.79516 0.0
N2562 N 0.62405 0.97222 0.79357 0.0
C2563 C 0.63656 0.98114 0.80663 0.0
C2564 C 0.63572 0.00229 0.80749 0.0
C2565 C 0.97372 0.643 0.80217 0.0
C2566 C 0.96417 0.65734 0.81395 0.0
C2567 C 0.99433 0.64074 0.80278 0.0
C2568 C 0.00607 0.6527 0.81524 0.0
H2569 H 0.96552 0.63471 0.7911 0.0
H2570 H 0.00117 0.63076 0.79219 0.0
S2571 S 0.98753 0.68798 0.85328 0.0
N2572 N 0.9674 0.68039 0.84157 0.0
N2573 N 0.00622 0.67608 0.8428 0.0
C2574 C -0.00358 0.66498 0.8291 0.0
C2575 C 0.9754 0.66734 0.82842 0.0
C2576 C 0.18249 0.35145 -0.00145 0.0
C2577 C 0.17062 0.33953 0.01087 0.0
C2578 C 0.18183 0.3494 0.97791 0.0
C2579 C 0.16935 0.33529 0.96893 0.0
H2580 H 0.19364 0.36115 0.00486 0.0
H2581 H 0.19257 0.35755 0.96917 0.0
S2582 S 0.13091 0.30521 0.99425 0.0
N2583 N 0.14266 0.31673 0.0124 0.0
N2584 N 0.14155 0.31277 0.97354 0.0
C2585 C 0.15535 0.32551 0.98088 0.0
C2586 C 0.15596 0.32766 0.00193 0.0
C2587 C 0.18217 0.64289 0.99103 0.0
C2588 C 0.17164 0.65605 0.97872 0.0
C2589 C 0.18135 0.64464 0.01169 0.0
C2590 C 0.17007 0.65969 0.02075 0.0
H2591 H 0.19239 0.6322 0.98472 0.0
H2592 H 0.19106 0.63528 0.02044 0.0
S2593 S 0.13529 0.69398 -0.00467 0.0
N2594 N 0.14617 0.68165 0.97717 0.0
N2595 N 0.14475 0.68502 0.01607 0.0
C2596 C 0.15736 0.67108 0.00873 0.0
C2597 C 0.15812 0.66924 0.98766 0.0
C2598 C 0.32012 0.16055 0.00891 0.0
C2599 C 0.33209 0.17422 0.01919 0.0
C2600 C 0.32074 0.15926 0.98821 0.0
C2601 C 0.33331 0.17163 0.97708 0.0
H2602 H 0.30888 0.1521 0.01667 0.0
H2603 H 0.3099 0.14992 0.98088 0.0
S2604 S 0.37214 0.20497 -0.00264 0.0
N2605 N 0.36028 0.19667 0.0171 0.0
N2606 N 0.36143 0.19425 0.97811 0.0
C2607 C 0.34752 0.18298 0.98735 0.0
C2608 C 0.34689 0.18429 0.00848 0.0
C2609 C 0.79922 0.35329 0.98384 0.0
C2610 C 0.81327 0.34179 0.97351 0.0
C2611 C 0.79886 0.35349 0.00462 0.0
C2612 C 0.81255 0.3422 0.01564 0.0
H2613 H 0.78709 0.36034 0.97599 0.0
H2614 H 0.78646 0.36068 0.01191 0.0
S2615 S 0.85646 0.3158 -0.00442 0.0
N2616 N 0.84429 0.32346 0.97574 0.0
N2617 N 0.84361 0.32384 0.01483 0.0
C2618 C 0.8286 0.33357 0.0055 0.0
C2619 C 0.82897 0.33336 0.98436 0.0
C2620 C 0.63492 0.80361 2e-05 0.0
C2621 C 0.64706 0.81562 0.01203 0.0
C2622 C 0.63628 0.80439 0.97932 0.0
C2623 C 0.64992 0.81712 0.97 0.0
H2624 H 0.62565 0.79225 0.00656 0.0
H2625 H 0.62811 0.79349 0.97079 0.0
S2626 S 0.67999 0.85609 0.99458 0.0
N2627 N 0.66931 0.84404 0.01302 0.0
N2628 N 0.67197 0.84538 0.97405 0.0
C2629 C 0.65975 0.83131 0.98171 0.0
C2630 C 0.65831 0.83057 0.00281 0.0
C2631 C 0.82714 0.66213 0.00767 0.0
C2632 C 0.81263 0.65147 0.0182 0.0
C2633 C 0.82796 0.6614 0.98695 0.0
C2634 C 0.8142 0.65007 0.97607 0.0
H2635 H 0.83666 0.67262 0.01527 0.0
H2636 H 0.838 0.67144 0.97945 0.0
S2637 S 0.77813 0.6142 -0.00301 0.0
N2638 N 0.78785 0.62528 0.01657 0.0
N2639 N 0.78934 0.62395 0.97753 0.0
C2640 C 0.80199 0.63679 0.98656 0.0
C2641 C 0.80119 0.63751 0.00772 0.0
C2642 C 0.34921 0.79991 1e-05 0.0
C2643 C 0.33927 0.81415 0.01162 0.0
C2644 C 0.34766 0.80011 0.97928 0.0
C2645 C 0.33608 0.81451 0.96956 0.0
H2646 H 0.35658 0.78743 0.00694 0.0
H2647 H 0.35392 0.78778 0.97108 0.0
S2648 S 0.31261 0.85851 0.99282 0.0
N2649 N 0.32163 0.84567 0.01164 0.0
N2650 N 0.31856 0.84589 0.97267 0.0
C2651 C 0.32859 0.8304 0.98079 0.0
C2652 C 0.33025 0.83026 0.00188 0.0
C2653 C 0.65564 0.1605 0.98235 0.0
C2654 C 0.6459 0.17526 0.97126 0.0
C2655 C 0.65516 0.16074 0.00309 0.0
C2656 C 0.64493 0.17573 0.0134 0.0
H2657 H 0.66541 0.14997 0.97512 0.0
H2658 H 0.6646 0.15039 0.01098 0.0
S2659 S 0.61129 0.2132 0.99114 0.0
N2660 N 0.62141 0.20182 0.97194 0.0
N2661 N 0.62051 0.20225 0.01102 0.0
C2662 C 0.63232 0.1883 0.00248 0.0
C2663 C 0.63281 0.18807 0.98131 0.0
C2664 C 0.47935 0.68893 0.85331 0.0
C2665 C 0.46908 0.6761 0.84045 0.0
C2666 C 0.50004 0.6881 0.85483 0.0
C2667 C 0.51107 0.67442 0.84353 0.0
H2668 H 0.47168 0.70096 0.86072 0.0
H2669 H 0.50744 0.69951 0.8634 0.0
S2670 S 0.49057 0.63343 0.81306 0.0
N2671 N 0.47094 0.64622 0.82024 0.0
N2672 N 0.50988 0.64468 0.82308 0.0
C2673 C 0.50073 0.65959 0.83313 0.0
C2674 C 0.47966 0.66043 0.83159 0.0
C2675 C 0.30918 0.50335 0.84768 0.0
C2676 C 0.31817 0.51364 0.83192 0.0
C2677 C 0.30947 0.48265 0.8484 0.0
C2678 C 0.31879 0.47153 0.83341 0.0
H2679 H 0.30045 0.51119 0.85867 0.0
H2680 H 0.30093 0.47537 0.85989 0.0
S2681 S 0.34926 0.49158 0.7922 0.0
N2682 N 0.34021 0.5114 0.80341 0.0
N2683 N 0.34083 0.47237 0.8048 0.0
C2684 C 0.33019 0.48169 0.81918 0.0
C2685 C 0.32985 0.50284 0.81842 0.0
C2686 C 0.51332 0.29733 0.85259 0.0
C2687 C 0.52222 0.31127 0.83988 0.0
C2688 C 0.49267 0.29623 0.85433 0.0
C2689 C 0.48029 0.30908 0.8435 0.0
H2690 H 0.52214 0.2859 0.85965 0.0
H2691 H 0.48643 0.28406 0.86276 0.0
S2692 S 0.49663 0.35227 0.81358 0.0
N2693 N 0.51742 0.34115 0.82026 0.0
N2694 N 0.47855 0.3392 0.82364 0.0
C2695 C 0.48912 0.32498 0.83328 0.0
C2696 C 0.51016 0.32605 0.83145 0.0
C2697 C 0.69348 0.48397 0.85047 0.0
C2698 C 0.67901 0.47361 0.83953 0.0
C2699 C 0.69425 0.50474 0.85012 0.0
C2700 C 0.68055 0.51576 0.83886 0.0
H2701 H 0.7055 0.47607 0.85765 0.0
H2702 H 0.70677 0.51199 0.85711 0.0
S2703 S 0.63614 0.49585 0.81316 0.0
N2704 N 0.648 0.476 0.82124 0.0
N2705 N 0.64941 0.51504 0.82061 0.0
C2706 C 0.66434 0.50569 0.83043 0.0
C2707 C 0.66356 0.48456 0.83078 0.0
C2708 C 0.4843 0.32884 0.16191 0.0
C2709 C 0.47401 0.31451 0.15075 0.0
C2710 C 0.50503 0.3295 0.16182 0.0
C2711 C 0.51614 0.31587 0.15056 0.0
H2712 H 0.47648 0.33822 0.17237 0.0
H2713 H 0.51232 0.33937 0.17222 0.0
S2714 S 0.49604 0.28048 0.11347 0.0
N2715 N 0.47622 0.29015 0.12416 0.0
N2716 N 0.51527 0.29142 0.12397 0.0
C2717 C 0.50597 0.30392 0.13678 0.0
C2718 C 0.4848 0.30324 0.13687 0.0
C2719 C 0.66004 0.48448 0.15841 0.0
C2720 C 0.67438 0.47356 0.14787 0.0
C2721 C 0.66033 0.50522 0.15843 0.0
C2722 C 0.67498 0.51572 0.14793 0.0
H2723 H 0.64982 0.47707 0.16834 0.0
H2724 H 0.65031 0.51292 0.16838 0.0
S2725 S 0.71119 0.49412 0.11252 0.0
N2726 N 0.70009 0.47474 0.12254 0.0
N2727 N 0.70065 0.51381 0.12261 0.0
C2728 C 0.6871 0.50506 0.13468 0.0
C2729 C 0.6868 0.48388 0.13465 0.0
C2730 C 0.5048 0.65786 0.15936 0.0
C2731 C 0.51639 0.67164 0.14885 0.0
C2732 C 0.48408 0.65871 0.1587 0.0
C2733 C 0.47427 0.67341 0.14757 0.0
H2734 H 0.51165 0.64764 0.16971 0.0
H2735 H 0.47584 0.64907 0.16856 0.0
S2736 S 0.49784 0.70826 0.11215 0.0
N2737 N 0.51662 0.69684 0.12299 0.0
N2738 N 0.47759 0.69851 0.12187 0.0
C2739 C 0.48564 0.68501 0.1345 0.0
C2740 C 0.50678 0.6841 0.13511 0.0
C2741 C 0.33172 0.48089 0.1633 0.0
C2742 C 0.31988 0.46849 0.1514 0.0
C2743 C 0.33098 0.50151 0.16118 0.0
C2744 C 0.31832 0.51038 0.14715 0.0
H2745 H 0.34015 0.47484 0.17557 0.0
H2746 H 0.33889 0.51049 0.17192 0.0
S2747 S 0.28962 0.48422 0.10815 0.0
N2748 N 0.29913 0.46631 0.12189 0.0
N2749 N 0.29765 0.50515 0.11802 0.0
C2750 C 0.30889 0.49808 0.13319 0.0
C2751 C 0.30971 0.47705 0.13529 0.0
C2752 C 0.82868 0.50056 0.65942 0.0
C2753 C 0.84077 0.51086 0.67296 0.0
C2754 C 0.82841 0.47982 0.65904 0.0
C2755 C 0.84017 0.46869 0.67223 0.0
H2756 H 0.81803 0.50844 0.65032 0.0
H2757 H 0.8175 0.47259 0.64971 0.0
S2758 S 0.87899 0.48863 0.70579 0.0
N2759 N 0.86825 0.50849 0.69629 0.0
N2760 N 0.86768 0.46943 0.69562 0.0
C2761 C 0.8545 0.47878 0.68356 0.0
C2762 C 0.85478 0.49995 0.68394 0.0
C2763 C 0.50731 0.84946 0.69188 0.0
C2764 C 0.51837 0.83749 0.67883 0.0
C2765 C 0.48662 0.85066 0.69027 0.0
C2766 C 0.47638 0.83989 0.67558 0.0
H2767 H 0.51436 0.85633 0.70459 0.0
H2768 H 0.47856 0.85835 0.70186 0.0
S2769 S 0.4992 0.81193 0.63401 0.0
N2770 N 0.51814 0.81877 0.64796 0.0
N2771 N 0.47924 0.82104 0.64492 0.0
C2772 C 0.48756 0.83048 0.66069 0.0
C2773 C 0.50861 0.82923 0.66234 0.0
C2774 C 0.1419 0.50179 0.68698 0.0
C2775 C 0.15392 0.51286 0.674 0.0
C2776 C 0.14251 0.48101 0.68696 0.0
C2777 C 0.15516 0.47066 0.67396 0.0
H2778 H 0.13337 0.50912 0.69846 0.0
H2779 H 0.13444 0.4732 0.69844 0.0
S2780 S 0.18474 0.49263 0.63311 0.0
N2781 N 0.17522 0.5119 0.64489 0.0
N2782 N 0.17636 0.47285 0.64483 0.0
C2783 C 0.165 0.48148 0.6591 0.0
C2784 C 0.16439 0.50262 0.65913 0.0
C2785 C 0.48234 0.15903 0.66217 0.0
C2786 C 0.47135 0.14864 0.67652 0.0
C2787 C 0.50307 0.15814 0.66191 0.0
C2788 C 0.51352 0.14688 0.67605 0.0
H2789 H 0.47507 0.16936 0.65223 0.0
H2790 H 0.5109 0.16786 0.6518 0.0
S2791 S 0.49141 0.11209 0.71247 0.0
N2792 N 0.47217 0.12307 0.70199 0.0
N2793 N 0.51122 0.12144 0.70154 0.0
C2794 C 0.50262 0.13404 0.68836 0.0
C2795 C 0.48145 0.13493 0.6886 0.0
C2796 C 0.83138 0.48463 0.32804 0.0
C2797 C 0.84144 0.47355 0.31349 0.0
C2798 C 0.83185 0.50536 0.32787 0.0
C2799 C 0.84236 0.51571 0.31312 0.0
H2800 H 0.82145 0.47738 0.33839 0.0
H2801 H 0.82225 0.51323 0.3381 0.0
S2802 S 0.87658 0.49349 0.27614 0.0
N2803 N 0.86632 0.47429 0.28732 0.0
N2804 N 0.86714 0.51335 0.28696 0.0
C2805 C 0.85512 0.5048 0.30069 0.0
C2806 C 0.85467 0.48363 0.30088 0.0
C2807 C 0.5035 0.81874 0.33367 0.0
C2808 C 0.51441 0.83115 0.32095 0.0
C2809 C 0.48276 0.81887 0.33342 0.0
C2810 C 0.47227 0.83141 0.32044 0.0
H2811 H 0.5109 0.80739 0.34232 0.0
H2812 H 0.47505 0.80762 0.34191 0.0
S2813 S 0.4939 0.87166 0.28983 0.0
N2814 N 0.51327 0.85999 0.29926 0.0
N2815 N 0.4742 0.86021 0.29878 0.0
C2816 C 0.48295 0.84621 0.31034 0.0
C2817 C 0.50412 0.84608 0.31061 0.0
C2818 C 0.14373 0.4851 0.30509 0.0
C2819 C 0.15646 0.47481 0.31807 0.0
C2820 C 0.14422 0.50583 0.3039 0.0
C2821 C 0.15745 0.51688 0.31568 0.0
H2822 H 0.13487 0.47712 0.29431 0.0
H2823 H 0.13571 0.51296 0.29228 0.0
S2824 S 0.18852 0.49738 0.3567 0.0
N2825 N 0.17868 0.47745 0.3464 0.0
N2826 N 0.17962 0.51645 0.34416 0.0
C2827 C 0.16777 0.50698 0.33086 0.0
C2828 C 0.16726 0.48588 0.33208 0.0
C2829 C 0.50781 0.1599 0.33089 0.0
C2830 C 0.51832 0.14919 0.31636 0.0
C2831 C 0.48708 0.15943 0.33154 0.0
C2832 C 0.47618 0.14826 0.31767 0.0
H2833 H 0.51543 0.17029 0.3405 0.0
H2834 H 0.4796 0.16952 0.34159 0.0
S2835 S 0.49698 0.11226 0.28154 0.0
N2836 N 0.5166 0.12308 0.29145 0.0
N2837 N 0.47755 0.12221 0.29267 0.0
C2838 C 0.48661 0.1349 0.30546 0.0
C2839 C 0.50778 0.13537 0.30479 0.0
C2840 C 0.65666 0.82107 0.48395 0.0
C2841 C 0.67005 0.83324 0.47357 0.0
C2842 C 0.65611 0.82112 0.50469 0.0
C2843 C 0.66893 0.83335 0.51574 0.0
H2844 H 0.64802 0.80997 0.47618 0.0
H2845 H 0.64706 0.81006 0.51203 0.0
S2846 S 0.7014 0.87284 0.49544 0.0
N2847 N 0.69243 0.86148 0.47567 0.0
N2848 N 0.69138 0.86159 0.51474 0.0
C2849 C 0.67981 0.84791 0.5055 0.0
C2850 C 0.68038 0.84785 0.48433 0.0
C2851 C 0.65982 0.15801 0.48207 0.0
C2852 C 0.67468 0.14782 0.47152 0.0
C2853 C 0.65918 0.15742 0.5028 0.0
C2854 C 0.67339 0.14665 0.51366 0.0
H2855 H 0.64988 0.16811 0.47448 0.0
H2856 H 0.64877 0.1671 0.51032 0.0
S2857 S 0.71077 0.11204 0.49272 0.0
N2858 N 0.70049 0.12259 0.47315 0.0
N2859 N 0.69929 0.12151 0.5122 0.0
C2860 C 0.68607 0.13378 0.50318 0.0
C2861 C 0.68672 0.13437 0.48201 0.0
C2862 C 0.83159 0.661 0.50599 0.0
C2863 C 0.84231 0.67624 0.51541 0.0
C2864 C 0.83119 0.65943 0.4853 0.0
C2865 C 0.84148 0.67306 0.47333 0.0
H2866 H 0.8219 0.65141 0.51448 0.0
H2867 H 0.82116 0.64874 0.47872 0.0
S2868 S 0.87701 0.71123 0.49096 0.0
N2869 N 0.86739 0.70188 0.51145 0.0
N2870 N 0.86665 0.69892 0.47248 0.0
C2871 C 0.8548 0.68618 0.48264 0.0
C2872 C 0.85519 0.68779 0.50376 0.0
C2873 C 0.30136 0.85109 0.48582 0.0
C2874 C 0.31566 0.8397 0.47569 0.0
C2875 C 0.30055 0.85111 0.50659 0.0
C2876 C 0.31404 0.83979 0.51778 0.0
H2877 H 0.28938 0.85818 0.47778 0.0
H2878 H 0.288 0.85823 0.51369 0.0
S2879 S 0.35844 0.81364 0.49844 0.0
N2880 N 0.34666 0.82142 0.47842 0.0
N2881 N 0.34516 0.82149 0.51748 0.0
C2882 C 0.33032 0.83124 0.50792 0.0
C2883 C 0.33114 0.83122 0.48679 0.0
C2884 C 0.13921 0.30048 0.48292 0.0
C2885 C 0.15163 0.31374 0.47267 0.0
C2886 C 0.13889 0.30015 0.50369 0.0
C2887 C 0.15098 0.31307 0.51477 0.0
H2888 H 0.13142 0.28885 0.47503 0.0
H2889 H 0.13084 0.28829 0.51093 0.0
S2890 S 0.18015 0.35521 0.49489 0.0
N2891 N 0.17183 0.34354 0.47501 0.0
N2892 N 0.17125 0.3429 0.51409 0.0
C2893 C 0.16066 0.32854 0.5047 0.0
C2894 C 0.16097 0.32888 0.48356 0.0
C2895 C 0.30589 0.13597 0.50388 0.0
C2896 C 0.31945 0.14797 0.51428 0.0
C2897 C 0.30567 0.13572 0.4831 0.0
C2898 C 0.31901 0.14747 0.47217 0.0
H2899 H 0.29398 0.12851 0.51166 0.0
H2900 H 0.2936 0.12808 0.47574 0.0
S2901 S 0.36182 0.17539 0.4925 0.0
N2902 N 0.34978 0.16736 0.51226 0.0
N2903 N 0.3494 0.16687 0.47317 0.0
C2904 C 0.33469 0.15666 0.4824 0.0
C2905 C 0.3349 0.15693 0.50354 0.0
C2906 C 0.85045 0.30125 0.48367 0.0
C2907 C 0.83904 0.31506 0.47294 0.0
C2908 C 0.84962 0.30063 0.50443 0.0
C2909 C 0.83737 0.3138 0.51505 0.0
H2910 H 0.85835 0.28951 0.47604 0.0
H2911 H 0.85696 0.28846 0.51193 0.0
S2912 S 0.81033 0.35695 0.49419 0.0
N2913 N 0.81943 0.34532 0.47463 0.0
N2914 N 0.81785 0.34414 0.51367 0.0
C2915 C 0.82858 0.32961 0.50467 0.0
C2916 C 0.82944 0.33026 0.48355 0.0
C2917 C 0.13765 0.68573 0.49809 0.0
C2918 C 0.14999 0.67384 0.51001 0.0
C2919 C 0.13863 0.68466 0.47738 0.0
C2920 C 0.15206 0.67174 0.46796 0.0
H2921 H 0.12854 0.69723 0.50467 0.0
H2922 H 0.13033 0.69547 0.46887 0.0
S2923 S 0.18249 0.63298 0.49245 0.0
N2924 N 0.17218 0.64533 0.51093 0.0
N2925 N 0.17412 0.64345 0.47195 0.0
C2926 C 0.16208 0.65768 0.47966 0.0
C2927 C 0.16103 0.65871 0.50077 0.0
C2928 C 0.14224 0.12468 0.27341 0.0
C2929 C 0.14739 0.11529 0.29131 0.0
C2930 C 0.12801 0.13971 0.27289 0.0
C2931 C 0.11829 0.14596 0.29025 0.0
H2932 H 0.15008 0.12118 0.25981 0.0
H2933 H 0.12542 0.14723 0.25892 0.0
S2934 S 0.12399 0.12395 0.34038 0.0
N2935 N 0.13986 0.11154 0.32641 0.0
N2936 N 0.11292 0.13991 0.32543 0.0
C2937 C 0.12185 0.13542 0.30792 0.0
C2938 C 0.13646 0.12003 0.30845 0.0
C2939 C 0.86496 0.14475 0.27179 0.0
C2940 C 0.8744 0.1503 0.28956 0.0
C2941 C 0.85022 0.13026 0.27157 0.0
C2942 C 0.84432 0.12066 0.2891 0.0
H2943 H 0.86824 0.15239 0.25804 0.0
H2944 H 0.84268 0.12729 0.25768 0.0
S2945 S 0.86648 0.12751 0.33903 0.0
N2946 N 0.8785 0.14338 0.32477 0.0
N2947 N 0.85065 0.11594 0.32433 0.0
C2948 C 0.85485 0.12469 0.30667 0.0
C2949 C 0.86995 0.13958 0.30691 0.0
C2950 C 0.8628 0.84885 0.31866 0.0
C2951 C 0.8685 0.84292 0.29949 0.0
C2952 C 0.84991 0.86489 0.32148 0.0
C2953 C 0.84268 0.87583 0.30527 0.0
H2954 H 0.86749 0.84042 0.33152 0.0
H2955 H 0.84518 0.86842 0.33644 0.0
S2956 S 0.85495 0.86755 0.25223 0.0
N2957 N 0.86713 0.84996 0.26416 0.0
N2958 N 0.84332 0.88052 0.26947 0.0
C2959 C 0.84924 0.87079 0.28611 0.0
C2960 C 0.86203 0.85419 0.28321 0.0
C2961 C 0.1222 0.85397 0.32418 0.0
C2962 C 0.11054 0.84659 0.30853 0.0
C2963 C 0.13887 0.86577 0.32044 0.0
C2964 C 0.14474 0.87014 0.30091 0.0
H2965 H 0.11869 0.8502 0.3394 0.0
H2966 H 0.1478 0.87062 0.3329 0.0
S2967 S 0.11858 0.85551 0.2548 0.0
N2968 N 0.10528 0.84561 0.27281 0.0
N2969 N 0.13703 0.86727 0.26582 0.0
C2970 C 0.13284 0.86347 0.28517 0.0
C2971 C 0.1156 0.85184 0.28898 0.0
C2972 C 0.14612 0.86903 0.68758 0.0
C2973 C 0.15665 0.8739 0.70498 0.0
C2974 C 0.13236 0.85342 0.68742 0.0
C2975 C 0.12882 0.84218 0.70462 0.0
H2976 H 0.14942 0.87645 0.67372 0.0
H2977 H 0.12546 0.84933 0.67349 0.0
S2978 S 0.14919 0.85171 0.75483 0.0
N2979 N 0.16004 0.86833 0.74051 0.0
N2980 N 0.13445 0.83889 0.74006 0.0
C2981 C 0.1379 0.84803 0.72242 0.0
C2982 C 0.15174 0.86394 0.72265 0.0
C2983 C 0.13855 0.12404 0.70336 0.0
C2984 C 0.14922 0.1167 0.68701 0.0
C2985 C 0.12171 0.1359 0.70069 0.0
C2986 C 0.11527 0.14124 0.68157 0.0
H2987 H 0.1434 0.12081 0.71834 0.0
H2988 H 0.11418 0.14159 0.7137 0.0
S2989 S 0.13758 0.12523 0.63388 0.0
N2990 N 0.15166 0.11485 0.65104 0.0
N2991 N 0.12028 0.13762 0.64603 0.0
C2992 C 0.12551 0.13361 0.66509 0.0
C2993 C 0.14242 0.12119 0.66781 0.0
C2994 C 0.86921 0.12563 0.68705 0.0
C2995 C 0.86647 0.14627 0.68562 0.0
C2996 C 0.85299 0.11296 0.69024 0.0
C2997 C 0.83379 0.12069 0.69281 0.0
H2998 H 0.88385 0.11925 0.68523 0.0
H2999 H 0.85547 0.09709 0.69087 0.0
S3000 S 0.81897 0.17364 0.69082 0.0
N3001 N 0.84316 0.1738 0.68706 0.0
N3002 N 0.81292 0.1501 0.69374 0.0
C3003 C 0.83098 0.14129 0.69177 0.0
C3004 C 0.84729 0.15407 0.68801 0.0
C3005 C 0.86699 0.85882 0.66382 0.0
C3006 C 0.87844 0.85285 0.68021 0.0
C3007 C 0.85009 0.87067 0.66632 0.0
C3008 C 0.84383 0.87651 0.68533 0.0
H3009 H 0.8708 0.85386 0.64901 0.0
H3010 H 0.84132 0.87442 0.65337 0.0
S3011 S 0.86937 0.86609 0.73291 0.0
N3012 N 0.88309 0.85487 0.71598 0.0
N3013 N 0.85099 0.87667 0.72066 0.0
C3014 C 0.85554 0.87131 0.70175 0.0
C3015 C 0.87297 0.85962 0.69919 0.0
C3016 C 0.27057 0.14519 0.13293 0.0
C3017 C 0.28753 0.15018 0.12189 0.0
C3018 C 0.27123 0.1305 0.14747 0.0
C3019 C 0.28888 0.12017 0.15158 0.0
H3020 H 0.25686 0.15339 0.13105 0.0
H3021 H 0.25799 0.12792 0.15621 0.0
S3022 S 0.33666 0.12545 0.12477 0.0
N3023 N 0.32189 0.14201 0.11436 0.0
N3024 N 0.32315 0.11424 0.14183 0.0
C3025 C 0.3055 0.12372 0.13947 0.0
C3026 C 0.30482 0.13878 0.12457 0.0
C3027 C 0.85684 0.27289 0.14054 0.0
C3028 C 0.86735 0.29024 0.14535 0.0
C3029 C 0.84227 0.2729 0.12583 0.0
C3030 C 0.83753 0.29029 0.1153 0.0
H3031 H 0.85921 0.25933 0.14883 0.0
H3032 H 0.834 0.25934 0.12338 0.0
S3033 S 0.86278 0.33897 0.12017 0.0
N3034 N 0.87369 0.32474 0.13686 0.0
N3035 N 0.84615 0.32479 0.1091 0.0
C3036 C 0.84907 0.30735 0.11876 0.0
C3037 C 0.86403 0.30732 0.13382 0.0
C3038 C 0.6561 0.86102 0.14323 0.0
C3039 C 0.66992 0.87665 0.14339 0.0
C3040 C 0.65624 0.84669 0.12825 0.0
C3041 C 0.6702 0.84735 0.11275 0.0
H3042 H 0.64521 0.8596 0.15495 0.0
H3043 H 0.64544 0.83483 0.12904 0.0
S3044 S 0.70905 0.88571 0.10573 0.0
N3045 N 0.69757 0.89235 0.12632 0.0
N3046 N 0.69783 0.86533 0.09807 0.0
C3047 C 0.68385 0.86313 0.11243 0.0
C3048 C 0.68372 0.87779 0.12776 0.0
C3049 C 0.14426 0.7194 0.13902 0.0
C3050 C 0.14775 0.70249 0.12734 0.0
C3051 C 0.12925 0.7197 0.15325 0.0
C3052 C 0.11715 0.70303 0.15655 0.0
H3053 H 0.15371 0.73233 0.13771 0.0
H3054 H 0.12778 0.73286 0.16238 0.0
S3055 S 0.11851 0.65591 0.128 0.0
N3056 N 0.13658 0.66936 0.11842 0.0
N3057 N 0.1083 0.66981 0.14542 0.0
C3058 C 0.11945 0.68652 0.14392 0.0
C3059 C 0.13478 0.68627 0.12926 0.0
C3060 C 0.30781 0.87064 0.84968 0.0
C3061 C 0.2907 0.87724 0.83969 0.0
C3062 C 0.30659 0.8559 0.86433 0.0
C3063 C 0.28823 0.84735 0.86936 0.0
H3064 H 0.32234 0.87581 0.84517 0.0
H3065 H 0.32023 0.85013 0.8706 0.0
S3066 S 0.23877 0.8629 0.85094 0.0
N3067 N 0.25463 0.87666 0.83837 0.0
N3068 N 0.25239 0.84895 0.86577 0.0
C3069 C 0.27091 0.8553 0.86094 0.0
C3070 C 0.27213 0.87026 0.84612 0.0
C3071 C 0.14128 0.27036 0.85435 0.0
C3072 C 0.14564 0.28769 0.86507 0.0
C3073 C 0.12652 0.27017 0.83983 0.0
C3074 C 0.11558 0.28736 0.83529 0.0
H3075 H 0.14988 0.25696 0.85661 0.0
H3076 H 0.12438 0.25661 0.83146 0.0
S3077 S 0.11943 0.33593 0.86101 0.0
N3078 N 0.13644 0.32195 0.87177 0.0
N3079 N 0.10865 0.32168 0.84423 0.0
C3080 C 0.11869 0.30441 0.84698 0.0
C3081 C 0.13375 0.30456 0.86193 0.0
C3082 C 0.68121 0.13616 0.86893 0.0
C3083 C 0.69928 0.145 0.87455 0.0
C3084 C 0.68069 0.12121 0.85442 0.0
C3085 C 0.69822 0.11472 0.84515 0.0
H3086 H 0.66729 0.14178 0.87467 0.0
H3087 H 0.66641 0.11579 0.84943 0.0
S3088 S 0.74954 0.12982 0.85799 0.0
N3089 N 0.73527 0.14374 0.87224 0.0
N3090 N 0.73426 0.11577 0.84499 0.0
C3091 C 0.71645 0.12204 0.8521 0.0
C3092 C 0.71699 0.13716 0.86682 0.0
C3093 C 0.8517 0.71921 0.84517 0.0
C3094 C 0.86227 0.70205 0.83986 0.0
C3095 C 0.83874 0.71924 0.86129 0.0
C3096 C 0.83562 0.70203 0.87269 0.0
H3097 H 0.85289 0.73259 0.83636 0.0
H3098 H 0.8304 0.73267 0.86421 0.0
S3099 S 0.86166 0.65388 0.86645 0.0
N3100 N 0.87044 0.66795 0.84845 0.0
N3101 N 0.84578 0.6679 0.87879 0.0
C3102 C 0.84721 0.68516 0.86849 0.0
C3103 C 0.8606 0.68519 0.85204 0.0
C3104 C 0.14077 0.33267 0.12848 0.0
C3105 C 0.13938 0.31975 0.11214 0.0
C3106 C 0.12635 0.33279 0.14336 0.0
C3107 C 0.10989 0.32001 0.14256 0.0
H3108 H 0.15327 0.34265 0.12998 0.0
H3109 H 0.12831 0.34286 0.15574 0.0
S3110 S 0.09877 0.28381 0.10251 0.0
N3111 N 0.11986 0.2942 0.09569 0.0
N3112 N 0.09268 0.29443 0.12374 0.0
C3113 C 0.10805 0.30725 0.12611 0.0
C3114 C 0.1228 0.30713 0.1109 0.0
C3115 C 0.14109 0.65803 0.8619 0.0
C3116 C 0.14002 0.67049 0.87861 0.0
C3117 C 0.12578 0.6575 0.84789 0.0
C3118 C 0.10876 0.66943 0.85001 0.0
H3119 H 0.154 0.64878 0.85939 0.0
H3120 H 0.12752 0.64791 0.83511 0.0
S3121 S 0.09814 0.70384 0.89173 0.0
N3122 N 0.12015 0.69446 0.89696 0.0
N3123 N 0.09136 0.69348 0.8706 0.0
C3124 C 0.10724 0.68159 0.86692 0.0
C3125 C 0.12287 0.68213 0.88122 0.0
C3126 C 0.27384 0.13904 0.86148 0.0
C3127 C 0.29139 0.14444 0.87134 0.0
C3128 C 0.27386 0.12439 0.84685 0.0
C3129 C 0.29146 0.11461 0.84138 0.0
H3130 H 0.26008 0.14683 0.86443 0.0
H3131 H 0.26009 0.12145 0.83911 0.0
S3132 S 0.34092 0.12143 0.86464 0.0
N3133 N 0.32644 0.13744 0.87625 0.0
N3134 N 0.32656 0.10981 0.84853 0.0
C3135 C 0.30884 0.11867 0.85226 0.0
C3136 C 0.30878 0.13364 0.86731 0.0
C3137 C 0.86279 0.272 0.85088 0.0
C3138 C 0.87198 0.28958 0.84447 0.0
C3139 C 0.84821 0.2723 0.86556 0.0
C3140 C 0.84219 0.29019 0.87446 0.0
H3141 H 0.86609 0.25798 0.84373 0.0
H3142 H 0.84083 0.25849 0.86916 0.0
S3143 S 0.86387 0.33991 0.86528 0.0
N3144 N 0.87585 0.32506 0.84988 0.0
N3145 N 0.84829 0.32562 0.87763 0.0
C3146 C 0.85255 0.30763 0.86959 0.0
C3147 C 0.86751 0.30732 0.85454 0.0
C3148 C 0.71878 0.85673 0.84184 0.0
C3149 C 0.70238 0.8692 0.83845 0.0
C3150 C 0.71807 0.84164 0.85597 0.0
C3151 C 0.70097 0.83838 0.86745 0.0
H3152 H 0.7321 0.85806 0.83296 0.0
H3153 H 0.73088 0.83203 0.85743 0.0
S3154 S 0.65482 0.86844 0.86625 0.0
N3155 N 0.66912 0.87851 0.84912 0.0
N3156 N 0.66785 0.85006 0.87587 0.0
C3157 C 0.68493 0.85159 0.86527 0.0
C3158 C 0.68562 0.86702 0.85074 0.0
C3159 C 0.84692 0.71789 0.12688 0.0
C3160 C 0.84079 0.7003 0.11751 0.0
C3161 C 0.86192 0.71774 0.14115 0.0
C3162 C 0.87139 0.7 0.14667 0.0
H3163 H 0.83934 0.73177 0.12397 0.0
H3164 H 0.86532 0.73152 0.14871 0.0
S3165 S 0.86306 0.6504 0.12429 0.0
N3166 N 0.84705 0.66503 0.11288 0.0
N3167 N 0.87536 0.66476 0.13988 0.0
C3168 C 0.86677 0.6826 0.1361 0.0
C3169 C 0.85141 0.68275 0.12146 0.0
C3170 C 0.32434 0.85179 0.12142 0.0
C3171 C 0.30524 0.84838 0.11381 0.0
C3172 C 0.3278 0.8672 0.13494 0.0
C3173 C 0.31237 0.87996 0.14086 0.0
H3174 H 0.33641 0.84177 0.11788 0.0
H3175 H 0.34249 0.86874 0.14127 0.0
S3176 S 0.26023 0.87852 0.12321 0.0
N3177 N 0.2711 0.85972 0.11185 0.0
N3178 N 0.27767 0.88914 0.13675 0.0
C3179 C 0.29352 0.8775 0.13224 0.0
C3180 C 0.28992 0.86155 0.11885 0.0
C3181 C 0.67947 0.13959 0.11833 0.0
C3182 C 0.6971 0.14889 0.11214 0.0
C3183 C 0.67982 0.1249 0.13309 0.0
C3184 C 0.69779 0.11915 0.14202 0.0
H3185 H 0.66524 0.1447 0.11287 0.0
H3186 H 0.66585 0.11916 0.13856 0.0
S3187 S 0.74823 0.13564 0.1276 0.0
N3188 N 0.73315 0.14884 0.11352 0.0
N3189 N 0.73378 0.12132 0.1412 0.0
C3190 C 0.71559 0.12688 0.13446 0.0
C3191 C 0.71525 0.14175 0.11951 0.0
C3192 C 0.62354 0.63324 0.82437 0.0
C3193 C 0.61157 0.63998 0.80867 0.0
C3194 C 0.63987 0.62086 0.82083 0.0
C3195 C 0.64505 0.61523 0.80142 0.0
H3196 H 0.62062 0.63802 0.83944 0.0
H3197 H 0.64914 0.61663 0.83327 0.0
S3198 S 0.61764 0.62751 0.75536 0.0
N3199 N 0.60512 0.63882 0.77314 0.0
N3200 N 0.63622 0.61606 0.76649 0.0
C3201 C 0.63273 0.62114 0.7857 0.0
C3202 C 0.61585 0.63337 0.78933 0.0
C3203 C 0.34997 0.62812 0.81859 0.0
C3204 C 0.34344 0.61649 0.80256 0.0
C3205 C 0.3628 0.64415 0.81559 0.0
C3206 C 0.36906 0.6494 0.7964 0.0
H3207 H 0.34496 0.62494 0.83352 0.0
H3208 H 0.36716 0.65299 0.82829 0.0
S3209 S 0.35679 0.62327 0.74959 0.0
N3210 N 0.34489 0.61074 0.76693 0.0
N3211 N 0.36851 0.64134 0.76127 0.0
C3212 C 0.36298 0.63767 0.7803 0.0
C3213 C 0.3503 0.62107 0.7834 0.0
C3214 C 0.36351 0.34078 0.83066 0.0
C3215 C 0.38031 0.34175 0.81833 0.0
C3216 C 0.34852 0.35505 0.82956 0.0
C3217 C 0.34966 0.3709 0.81606 0.0
H3218 H 0.36173 0.32873 0.84114 0.0
H3219 H 0.33581 0.35345 0.83926 0.0
S3220 S 0.3909 0.38073 0.78092 0.0
N3221 N 0.39752 0.36021 0.79252 0.0
N3222 N 0.36925 0.3871 0.79044 0.0
C3223 C 0.36653 0.37231 0.80385 0.0
C3224 C 0.38187 0.35773 0.805 0.0
C3225 C 0.63065 0.34785 0.77094 0.0
C3226 C 0.62077 0.34201 0.78834 0.0
C3227 C 0.64496 0.36279 0.77128 0.0
C3228 C 0.65005 0.3725 0.78904 0.0
H3229 H 0.62805 0.34014 0.75706 0.0
H3230 H 0.65285 0.36599 0.75764 0.0
S3231 S 0.62631 0.36496 0.83812 0.0
N3232 N 0.61525 0.3488 0.82339 0.0
N3233 N 0.64234 0.37696 0.82403 0.0
C3234 C 0.63903 0.36812 0.80621 0.0
C3235 C 0.62434 0.35284 0.80586 0.0
C3236 C 0.63727 0.3681 0.18156 0.0
C3237 C 0.64654 0.37394 0.19935 0.0
C3238 C 0.62275 0.35317 0.18151 0.0
C3239 C 0.61714 0.3437 0.19923 0.0
H3240 H 0.64227 0.374 0.16748 0.0
H3241 H 0.61699 0.34805 0.1674 0.0
S3242 S 0.63362 0.35693 0.25005 0.0
N3243 N 0.6466 0.37157 0.23535 0.0
N3244 N 0.61944 0.34355 0.23523 0.0
C3245 C 0.62487 0.35084 0.21723 0.0
C3246 C 0.63955 0.36598 0.21729 0.0
C3247 C 0.62465 0.63502 0.18148 0.0
C3248 C 0.61895 0.64486 0.19898 0.0
C3249 C 0.63934 0.62023 0.18187 0.0
C3250 C 0.64868 0.61487 0.19979 0.0
H3251 H 0.61875 0.63968 0.16728 0.0
H3252 H 0.64431 0.61396 0.16793 0.0
S3253 S 0.63568 0.63317 0.25008 0.0
N3254 N 0.62136 0.64604 0.23494 0.0
N3255 N 0.64877 0.61824 0.23573 0.0
C3256 C 0.64168 0.62331 0.21754 0.0
C3257 C 0.62685 0.63833 0.21712 0.0
C3258 C 0.36539 0.63231 0.19898 0.0
C3259 C 0.37175 0.6445 0.18334 0.0
C3260 C 0.35301 0.61603 0.19543 0.0
C3261 C 0.34614 0.61174 0.1762 0.0
H3262 H 0.36975 0.63555 0.21411 0.0
H3263 H 0.34808 0.60731 0.20799 0.0
S3264 S 0.35919 0.63865 0.13006 0.0
N3265 N 0.37111 0.65066 0.14779 0.0
N3266 N 0.3473 0.62038 0.14121 0.0
C3267 C 0.35281 0.6235 0.16036 0.0
C3268 C 0.36578 0.6398 0.16391 0.0
C3269 C 0.3688 0.34667 0.18439 0.0
C3270 C 0.37322 0.33643 0.20205 0.0
C3271 C 0.35372 0.36104 0.18386 0.0
C3272 C 0.34262 0.36549 0.20095 0.0
H3273 H 0.37611 0.3427 0.17064 0.0
H3274 H 0.3499 0.36771 0.16975 0.0
S3275 S 0.35135 0.34607 0.25167 0.0
N3276 N 0.36751 0.33416 0.23764 0.0
N3277 N 0.33912 0.36094 0.23655 0.0
C3278 C 0.34811 0.35665 0.219 0.0
C3279 C 0.36345 0.34217 0.21957 0.0
C3280 C 0.82211 0.64117 0.62281 0.0
C3281 C 0.8033 0.64854 0.61766 0.0
C3282 C 0.82403 0.62421 0.63467 0.0
C3283 C 0.80722 0.61376 0.64128 0.0
H3284 H 0.83539 0.64908 0.61844 0.0
H3285 H 0.83877 0.61947 0.63904 0.0
S3286 S 0.75472 0.62606 0.63013 0.0
N3287 N 0.76763 0.64361 0.61898 0.0
N3288 N 0.77121 0.61136 0.64074 0.0
C3289 C 0.78837 0.62041 0.63529 0.0
C3290 C 0.78642 0.63792 0.62363 0.0
C3291 C 0.35309 0.8094 0.62097 0.0
C3292 C 0.34447 0.79135 0.61497 0.0
C3293 C 0.3683 0.80972 0.63521 0.0
C3294 C 0.37525 0.79201 0.64377 0.0
H3295 H 0.347 0.82338 0.6159 0.0
H3296 H 0.37342 0.82393 0.64071 0.0
S3297 S 0.36095 0.74089 0.62934 0.0
N3298 N 0.34647 0.75537 0.6159 0.0
N3299 N 0.375 0.75597 0.64258 0.0
C3300 C 0.36827 0.77389 0.63621 0.0
C3301 C 0.35286 0.77356 0.62181 0.0
C3302 C 0.21561 0.34065 0.62721 0.0
C3303 C 0.1977 0.33604 0.61761 0.0
C3304 C 0.21662 0.35585 0.64122 0.0
C3305 C 0.19972 0.36698 0.64634 0.0
H3306 H 0.22882 0.33187 0.62454 0.0
H3307 H 0.23058 0.35815 0.64887 0.0
S3308 S 0.14986 0.36263 0.62336 0.0
N3309 N 0.1632 0.34523 0.61238 0.0
N3310 N 0.16501 0.37386 0.63901 0.0
C3311 C 0.18209 0.36368 0.63562 0.0
C3312 C 0.18109 0.34816 0.62119 0.0
C3313 C 0.63682 0.21156 0.62417 0.0
C3314 C 0.64333 0.19411 0.61475 0.0
C3315 C 0.62291 0.21092 0.63948 0.0
C3316 C 0.61485 0.19283 0.64594 0.0
H3317 H 0.64336 0.22577 0.62049 0.0
H3318 H 0.61921 0.22466 0.64698 0.0
S3319 S 0.62456 0.14324 0.62416 0.0
N3320 N 0.63887 0.15843 0.61136 0.0
N3321 N 0.61251 0.15729 0.64023 0.0
C3322 C 0.61976 0.17547 0.63546 0.0
C3323 C 0.63406 0.1761 0.6198 0.0
C3324 C 0.77359 0.34882 0.36222 0.0
C3325 C 0.79129 0.34315 0.3717 0.0
C3326 C 0.77345 0.36354 0.34767 0.0
C3327 C 0.79101 0.37323 0.34197 0.0
H3328 H 0.75982 0.34114 0.36532 0.0
H3329 H 0.75959 0.36663 0.34014 0.0
S3330 S 0.84081 0.36598 0.36434 0.0
N3331 N 0.82647 0.34997 0.37606 0.0
N3332 N 0.82622 0.37778 0.34858 0.0
C3333 C 0.80852 0.36899 0.35254 0.0
C3334 C 0.80866 0.3539 0.36745 0.0
C3335 C 0.6481 0.77005 0.3568 0.0
C3336 C 0.65126 0.78681 0.36882 0.0
C3337 C 0.6332 0.76978 0.34244 0.0
C3338 C 0.62076 0.78626 0.33944 0.0
H3339 H 0.65763 0.75715 0.35801 0.0
H3340 H 0.63188 0.75669 0.33319 0.0
S3341 S 0.62145 0.83313 0.36838 0.0
N3342 N 0.63966 0.81978 0.37792 0.0
N3343 N 0.61149 0.81928 0.35078 0.0
C3344 C 0.62288 0.80269 0.35217 0.0
C3345 C 0.63816 0.80297 0.36689 0.0
C3346 C 0.1866 0.63815 0.36134 0.0
C3347 C 0.20344 0.6497 0.36561 0.0
C3348 C 0.18734 0.62316 0.3469 0.0
C3349 C 0.20495 0.61926 0.33637 0.0
H3350 H 0.17248 0.64154 0.36823 0.0
H3351 H 0.17373 0.61552 0.34308 0.0
S3352 S 0.25409 0.64235 0.34536 0.0
N3353 N 0.23889 0.65409 0.36056 0.0
N3354 N 0.2403 0.62591 0.33356 0.0
C3355 C 0.22228 0.62946 0.34189 0.0
C3356 C 0.22151 0.6447 0.35649 0.0
C3357 C 0.35393 0.18035 0.36692 0.0
C3358 C 0.34392 0.19789 0.37226 0.0
C3359 C 0.36916 0.18064 0.35272 0.0
C3360 C 0.37482 0.19849 0.34349 0.0
H3361 H 0.34908 0.16617 0.37271 0.0
H3362 H 0.37553 0.16667 0.34797 0.0
S3363 S 0.35629 0.24887 0.35574 0.0
N3364 N 0.34296 0.23385 0.36972 0.0
N3365 N 0.37154 0.23442 0.34314 0.0
C3366 C 0.36622 0.21628 0.35017 0.0
C3367 C 0.35076 0.21598 0.36453 0.0
C3368 C 0.64033 0.76957 0.62979 0.0
C3369 C 0.64517 0.78705 0.61952 0.0
C3370 C 0.62633 0.76965 0.64503 0.0
C3371 C 0.61659 0.78723 0.65067 0.0
H3372 H 0.6482 0.75587 0.62676 0.0
H3373 H 0.62393 0.756 0.65315 0.0
S3374 S 0.62162 0.83635 0.62637 0.0
N3375 N 0.63737 0.82191 0.61434 0.0
N3376 N 0.61092 0.82209 0.64315 0.0
C3377 C 0.61989 0.80444 0.63933 0.0
C3378 C 0.63423 0.80434 0.62369 0.0
C3379 C 0.62917 0.21632 0.34648 0.0
C3380 C 0.61924 0.19879 0.34108 0.0
C3381 C 0.64375 0.21629 0.36118 0.0
C3382 C 0.64906 0.19874 0.37111 0.0
H3383 H 0.62632 0.23007 0.33867 0.0
H3384 H 0.65157 0.23002 0.3641 0.0
S3385 S 0.62558 0.14939 0.3645 0.0
N3386 N 0.61414 0.16381 0.34833 0.0
N3387 N 0.6417 0.16375 0.37609 0.0
C3388 C 0.63812 0.18141 0.36707 0.0
C3389 C 0.62317 0.18145 0.35201 0.0
C3390 C 0.80846 0.61975 0.3514 0.0
C3391 C 0.79084 0.61341 0.34218 0.0
C3392 C 0.808 0.63382 0.36678 0.0
C3393 C 0.78989 0.64191 0.37334 0.0
H3394 H 0.82273 0.61493 0.34578 0.0
H3395 H 0.82193 0.63944 0.37249 0.0
S3396 S 0.73956 0.62664 0.35715 0.0
N3397 N 0.75478 0.61368 0.34299 0.0
N3398 N 0.7539 0.64002 0.37183 0.0
C3399 C 0.77216 0.63414 0.36559 0.0
C3400 C 0.77264 0.61991 0.35 0.0
C3401 C 0.3573 0.77071 0.34621 0.0
C3402 C 0.36804 0.78792 0.34153 0.0
C3403 C 0.34353 0.77057 0.36165 0.0
C3404 C 0.33979 0.78768 0.37301 0.0
H3405 H 0.35902 0.75734 0.33744 0.0
H3406 H 0.33516 0.75708 0.3641 0.0
S3407 S 0.36573 0.836 0.36827 0.0
N3408 N 0.3755 0.82204 0.35065 0.0
N3409 N 0.34936 0.82185 0.37974 0.0
C3410 C 0.35143 0.80464 0.36944 0.0
C3411 C 0.36562 0.80475 0.35367 0.0
C3412 C 0.21802 0.35818 0.34607 0.0
C3413 C 0.20064 0.36891 0.34186 0.0
C3414 C 0.21829 0.34347 0.3606 0.0
C3415 C 0.20116 0.33878 0.37153 0.0
H3416 H 0.2314 0.36058 0.33749 0.0
H3417 H 0.23188 0.33512 0.36264 0.0
S3418 S 0.15245 0.36431 0.36802 0.0
N3419 N 0.16636 0.37534 0.35115 0.0
N3420 N 0.1668 0.34749 0.37859 0.0
C3421 C 0.18405 0.35044 0.36859 0.0
C3422 C 0.1838 0.36555 0.35371 0.0
C3423 C 0.36833 0.18197 0.63574 0.0
C3424 C 0.37361 0.19972 0.64539 0.0
C3425 C 0.35423 0.18195 0.62041 0.0
C3426 C 0.34503 0.19968 0.61433 0.0
H3427 H 0.37394 0.16787 0.64105 0.0
H3428 H 0.34941 0.16784 0.61441 0.0
S3429 S 0.35738 0.25045 0.63157 0.0
N3430 N 0.37127 0.23572 0.64535 0.0
N3431 N 0.34481 0.23567 0.61661 0.0
C3432 C 0.35179 0.21766 0.62242 0.0
C3433 C 0.36608 0.21768 0.63795 0.0
C3434 C 0.7719 0.35782 0.64265 0.0
C3435 C 0.78938 0.36822 0.6473 0.0
C3436 C 0.77169 0.34318 0.62802 0.0
C3437 C 0.78894 0.3383 0.61734 0.0
H3438 H 0.7584 0.36035 0.651 0.0
H3439 H 0.75805 0.335 0.62568 0.0
S3440 S 0.83791 0.36302 0.62177 0.0
N3441 N 0.82391 0.37414 0.63853 0.0
N3442 N 0.82348 0.34649 0.61087 0.0
C3443 C 0.80614 0.34966 0.62064 0.0
C3444 C 0.80637 0.36465 0.63566 0.0
C3445 C 0.16688 0.62463 0.63764 0.0
C3446 C 0.18591 0.61875 0.64381 0.0
C3447 C 0.16443 0.63748 0.62149 0.0
C3448 C 0.18088 0.64436 0.61068 0.0
H3449 H 0.1539 0.62013 0.64598 0.0
H3450 H 0.14959 0.64239 0.61769 0.0
S3451 S 0.23366 0.63171 0.61994 0.0
N3452 N 0.22133 0.6198 0.63743 0.0
N3453 N 0.21673 0.64335 0.60657 0.0
C3454 C 0.19989 0.63765 0.61606 0.0
C3455 C 0.2024 0.62501 0.63279 0.0
loop_
_geom_bond_atom_site_label_1
_geom_bond_atom_site_label_2
_geom_bond_distance
_geom_bond_site_symmetry_2
_ccdc_geom_bond_type
C0 O1 1.306 . S
C0 O3 1.160 . S
O1 C0 1.306 . S
O1 Cd2 2.228 . S
Cd2 O1 2.228 . S
Cd2 O6 2.273 . S
Cd2 O10 2.277 . S
O3 C0 1.160 . S
O3 Cd4 2.203 . S
Cd4 O3 2.203 . S
Cd4 O6 2.411 . S
Cd4 O7 2.333 . S
Cd4 O8 2.352 . S
Cd4 O12 2.277 . S
Cd4 O13 2.356 . S
C5 O10 1.209 . S
C5 O12 1.226 . S
O6 Cd2 2.273 . S
O6 Cd4 2.411 . S
O6 C9 1.320 . S
O7 Cd4 2.333 . S
O7 C9 1.214 . S
O8 Cd4 2.352 . S
O8 C11 1.258 . S
C9 O6 1.320 . S
C9 O7 1.214 . S
O10 Cd2 2.277 . S
O10 C5 1.209 . S
C11 O8 1.258 . S
C11 O13 1.282 . S
O12 Cd4 2.277 . S
O12 C5 1.226 . S
O13 Cd4 2.356 . S
O13 C11 1.282 . S
C14 O15 1.306 . S
C14 O17 1.160 . S
O15 C14 1.306 . S
O15 Cd16 2.228 . S
Cd16 O15 2.228 . S
Cd16 O20 2.273 . S
Cd16 O24 2.277 . S
O17 C14 1.160 . S
O17 Cd18 2.203 . S
Cd18 O17 2.203 . S
Cd18 O20 2.411 . S
Cd18 O21 2.333 . S
Cd18 O22 2.352 . S
Cd18 O26 2.277 . S
Cd18 O27 2.356 . S
C19 O24 1.209 . S
C19 O26 1.226 . S
O20 Cd16 2.273 . S
O20 Cd18 2.411 . S
O20 C23 1.320 . S
O21 Cd18 2.333 . S
O21 C23 1.214 . S
O22 Cd18 2.352 . S
O22 C25 1.258 . S
C23 O20 1.320 . S
C23 O21 1.214 . S
O24 Cd16 2.277 . S
O24 C19 1.209 . S
C25 O22 1.258 . S
C25 O27 1.282 . S
O26 Cd18 2.277 . S
O26 C19 1.226 . S
O27 Cd18 2.356 . S
O27 C25 1.282 . S
C28 O29 1.306 . S
C28 O31 1.160 . S
O29 C28 1.306 . S
O29 Cd30 2.228 . S
Cd30 O29 2.228 . S
Cd30 O34 2.273 . S
Cd30 O38 2.277 . S
O31 C28 1.160 . S
O31 Cd32 2.203 . S
Cd32 O31 2.203 . S
Cd32 O34 2.411 . S
Cd32 O35 2.333 . S
Cd32 O36 2.352 . S
Cd32 O40 2.277 . S
Cd32 O41 2.356 . S
C33 O38 1.209 . S
C33 O40 1.226 . S
O34 Cd30 2.273 . S
O34 Cd32 2.411 . S
O34 C37 1.320 . S
O35 Cd32 2.333 . S
O35 C37 1.214 . S
O36 Cd32 2.352 . S
O36 C39 1.258 . S
C37 O34 1.320 . S
C37 O35 1.214 . S
O38 Cd30 2.277 . S
O38 C33 1.209 . S
C39 O36 1.258 . S
C39 O41 1.282 . S
O40 Cd32 2.277 . S
O40 C33 1.226 . S
O41 Cd32 2.356 . S
O41 C39 1.282 . S
C42 O43 1.306 . S
C42 O45 1.160 . S
O43 C42 1.306 . S
O43 Cd44 2.228 . S
Cd44 O43 2.228 . S
Cd44 O48 2.273 . S
Cd44 O52 2.277 . S
O45 C42 1.160 . S
O45 Cd46 2.203 . S
Cd46 O45 2.203 . S
Cd46 O48 2.411 . S
Cd46 O49 2.333 . S
Cd46 O50 2.352 . S
Cd46 O54 2.277 . S
Cd46 O55 2.356 . S
C47 O52 1.209 . S
C47 O54 1.226 . S
O48 Cd44 2.273 . S
O48 Cd46 2.411 . S
O48 C51 1.320 . S
O49 Cd46 2.333 . S
O49 C51 1.214 . S
O50 Cd46 2.352 . S
O50 C53 1.258 . S
C51 O48 1.320 . S
C51 O49 1.214 . S
O52 Cd44 2.277 . S
O52 C47 1.209 . S
C53 O50 1.258 . S
C53 O55 1.282 . S
O54 Cd46 2.277 . S
O54 C47 1.226 . S
O55 Cd46 2.356 . S
O55 C53 1.282 . S
C56 O57 1.306 . S
C56 O59 1.160 . S
O57 C56 1.306 . S
O57 Cd58 2.228 . S
Cd58 O57 2.228 . S
Cd58 O62 2.273 . S
Cd58 O66 2.277 . S
O59 C56 1.160 . S
O59 Cd60 2.203 . S
Cd60 O59 2.203 . S
Cd60 O62 2.411 . S
Cd60 O63 2.333 . S
Cd60 O64 2.352 . S
Cd60 O68 2.277 . S
Cd60 O69 2.356 . S
C61 O66 1.209 . S
C61 O68 1.226 . S
O62 Cd58 2.273 . S
O62 Cd60 2.411 . S
O62 C65 1.320 . S
O63 Cd60 2.333 . S
O63 C65 1.214 . S
O64 Cd60 2.352 . S
O64 C67 1.258 . S
C65 O62 1.320 . S
C65 O63 1.214 . S
O66 Cd58 2.277 . S
O66 C61 1.209 . S
C67 O64 1.258 . S
C67 O69 1.282 . S
O68 Cd60 2.277 . S
O68 C61 1.226 . S
O69 Cd60 2.356 . S
O69 C67 1.282 . S
C70 O71 1.306 . S
C70 O73 1.160 . S
O71 C70 1.306 . S
O71 Cd72 2.228 . S
Cd72 O71 2.228 . S
Cd72 O76 2.273 . S
Cd72 O80 2.277 . S
O73 C70 1.160 . S
O73 Cd74 2.203 . S
Cd74 O73 2.203 . S
Cd74 O76 2.411 . S
Cd74 O77 2.333 . S
Cd74 O78 2.352 . S
Cd74 O82 2.277 . S
Cd74 O83 2.356 . S
C75 O80 1.209 . S
C75 O82 1.226 . S
O76 Cd72 2.273 . S
O76 Cd74 2.411 . S
O76 C79 1.320 . S
O77 Cd74 2.333 . S
O77 C79 1.214 . S
O78 Cd74 2.352 . S
O78 C81 1.258 . S
C79 O76 1.320 . S
C79 O77 1.214 . S
O80 Cd72 2.277 . S
O80 C75 1.209 . S
C81 O78 1.258 . S
C81 O83 1.282 . S
O82 Cd74 2.277 . S
O82 C75 1.226 . S
O83 Cd74 2.356 . S
O83 C81 1.282 . S
C84 O85 1.306 . S
C84 O87 1.160 . S
O85 C84 1.306 . S
O85 Cd86 2.228 . S
Cd86 O85 2.228 . S
Cd86 O90 2.273 . S
Cd86 O94 2.277 . S
O87 C84 1.160 . S
O87 Cd88 2.203 . S
Cd88 O87 2.203 . S
Cd88 O90 2.411 . S
Cd88 O91 2.333 . S
Cd88 O92 2.352 . S
Cd88 O96 2.277 . S
Cd88 O97 2.356 . S
C89 O94 1.209 . S
C89 O96 1.226 . S
O90 Cd86 2.273 . S
O90 Cd88 2.411 . S
O90 C93 1.320 . S
O91 Cd88 2.333 . S
O91 C93 1.214 . S
O92 Cd88 2.352 . S
O92 C95 1.258 . S
C93 O90 1.320 . S
C93 O91 1.214 . S
O94 Cd86 2.277 . S
O94 C89 1.209 . S
C95 O92 1.258 . S
C95 O97 1.282 . S
O96 Cd88 2.277 . S
O96 C89 1.226 . S
O97 Cd88 2.356 . S
O97 C95 1.282 . S
C98 O99 1.306 . S
C98 O101 1.160 . S
O99 C98 1.306 . S
O99 Cd100 2.228 . S
Cd100 O99 2.228 . S
Cd100 O104 2.273 . S
Cd100 O108 2.277 . S
O101 C98 1.160 . S
O101 Cd102 2.203 . S
Cd102 O101 2.203 . S
Cd102 O104 2.411 . S
Cd102 O105 2.333 . S
Cd102 O106 2.352 . S
Cd102 O110 2.277 . S
Cd102 O111 2.356 . S
C103 O108 1.209 . S
C103 O110 1.226 . S
O104 Cd100 2.273 . S
O104 Cd102 2.411 . S
O104 C107 1.320 . S
O105 Cd102 2.333 . S
O105 C107 1.214 . S
O106 Cd102 2.352 . S
O106 C109 1.258 . S
C107 O104 1.320 . S
C107 O105 1.214 . S
O108 Cd100 2.277 . S
O108 C103 1.209 . S
C109 O106 1.258 . S
C109 O111 1.282 . S
O110 Cd102 2.277 . S
O110 C103 1.226 . S
O111 Cd102 2.356 . S
O111 C109 1.282 . S
C112 O113 1.306 . S
C112 O115 1.160 . S
O113 C112 1.306 . S
O113 Cd114 2.228 . S
Cd114 O113 2.228 . S
Cd114 O118 2.273 . S
Cd114 O122 2.277 . S
O115 C112 1.160 . S
O115 Cd116 2.203 . S
Cd116 O115 2.203 . S
Cd116 O118 2.411 . S
Cd116 O119 2.333 . S
Cd116 O120 2.352 . S
Cd116 O124 2.277 . S
Cd116 O125 2.356 . S
C117 O122 1.209 . S
C117 O124 1.226 . S
O118 Cd114 2.273 . S
O118 Cd116 2.411 . S
O118 C121 1.320 . S
O119 Cd116 2.333 . S
O119 C121 1.214 . S
O120 Cd116 2.352 . S
O120 C123 1.258 . S
C121 O118 1.320 . S
C121 O119 1.214 . S
O122 Cd114 2.277 . S
O122 C117 1.209 . S
C123 O120 1.258 . S
C123 O125 1.282 . S
O124 Cd116 2.277 . S
O124 C117 1.226 . S
O125 Cd116 2.356 . S
O125 C123 1.282 . S
C126 O127 1.306 . S
C126 O129 1.160 . S
O127 C126 1.306 . S
O127 Cd128 2.228 . S
Cd128 O127 2.228 . S
Cd128 O132 2.273 . S
Cd128 O136 2.277 . S
O129 C126 1.160 . S
O129 Cd130 2.203 . S
Cd130 O129 2.203 . S
Cd130 O132 2.411 . S
Cd130 O133 2.333 . S
Cd130 O134 2.352 . S
Cd130 O138 2.277 . S
Cd130 O139 2.356 . S
C131 O136 1.209 . S
C131 O138 1.226 . S
O132 Cd128 2.273 . S
O132 Cd130 2.411 . S
O132 C135 1.320 . S
O133 Cd130 2.333 . S
O133 C135 1.214 . S
O134 Cd130 2.352 . S
O134 C137 1.258 . S
C135 O132 1.320 . S
C135 O133 1.214 . S
O136 Cd128 2.277 . S
O136 C131 1.209 . S
C137 O134 1.258 . S
C137 O139 1.282 . S
O138 Cd130 2.277 . S
O138 C131 1.226 . S
O139 Cd130 2.356 . S
O139 C137 1.282 . S
C140 O141 1.306 . S
C140 O143 1.160 . S
O141 C140 1.306 . S
O141 Cd142 2.228 . S
Cd142 O141 2.228 . S
Cd142 O146 2.273 . S
Cd142 O150 2.277 . S
O143 C140 1.160 . S
O143 Cd144 2.203 . S
Cd144 O143 2.203 . S
Cd144 O146 2.411 . S
Cd144 O147 2.333 . S
Cd144 O148 2.352 . S
Cd144 O152 2.277 . S
Cd144 O153 2.356 . S
C145 O150 1.209 . S
C145 O152 1.226 . S
O146 Cd142 2.273 . S
O146 Cd144 2.411 . S
O146 C149 1.320 . S
O147 Cd144 2.333 . S
O147 C149 1.214 . S
O148 Cd144 2.352 . S
O148 C151 1.258 . S
C149 O146 1.320 . S
C149 O147 1.214 . S
O150 Cd142 2.277 . S
O150 C145 1.209 . S
C151 O148 1.258 . S
C151 O153 1.282 . S
O152 Cd144 2.277 . S
O152 C145 1.226 . S
O153 Cd144 2.356 . S
O153 C151 1.282 . S
C154 O155 1.306 . S
C154 O157 1.160 . S
O155 C154 1.306 . S
O155 Cd156 2.228 . S
Cd156 O155 2.228 . S
Cd156 O160 2.273 . S
Cd156 O164 2.277 . S
O157 C154 1.160 . S
O157 Cd158 2.203 . S
Cd158 O157 2.203 . S
Cd158 O160 2.411 . S
Cd158 O161 2.333 . S
Cd158 O162 2.352 . S
Cd158 O166 2.277 . S
Cd158 O167 2.356 . S
C159 O164 1.209 . S
C159 O166 1.226 . S
O160 Cd156 2.273 . S
O160 Cd158 2.411 . S
O160 C163 1.320 . S
O161 Cd158 2.333 . S
O161 C163 1.214 . S
O162 Cd158 2.352 . S
O162 C165 1.258 . S
C163 O160 1.320 . S
C163 O161 1.214 . S
O164 Cd156 2.277 . S
O164 C159 1.209 . S
C165 O162 1.258 . S
C165 O167 1.282 . S
O166 Cd158 2.277 . S
O166 C159 1.226 . S
O167 Cd158 2.356 . S
O167 C165 1.282 . S
C168 O169 1.306 . S
C168 O171 1.160 . S
O169 C168 1.306 . S
O169 Cd170 2.228 . S
Cd170 O169 2.228 . S
Cd170 O174 2.273 . S
Cd170 O178 2.277 . S
O171 C168 1.160 . S
O171 Cd172 2.203 . S
Cd172 O171 2.203 . S
Cd172 O174 2.411 . S
Cd172 O175 2.333 . S
Cd172 O176 2.352 . S
Cd172 O180 2.277 . S
Cd172 O181 2.356 . S
C173 O178 1.209 . S
C173 O180 1.226 . S
O174 Cd170 2.273 . S
O174 Cd172 2.411 . S
O174 C177 1.320 . S
O175 Cd172 2.333 . S
O175 C177 1.214 . S
O176 Cd172 2.352 . S
O176 C179 1.258 . S
C177 O174 1.320 . S
C177 O175 1.214 . S
O178 Cd170 2.277 . S
O178 C173 1.209 . S
C179 O176 1.258 . S
C179 O181 1.282 . S
O180 Cd172 2.277 . S
O180 C173 1.226 . S
O181 Cd172 2.356 . S
O181 C179 1.282 . S
C182 O183 1.306 . S
C182 O185 1.160 . S
O183 C182 1.306 . S
O183 Cd184 2.228 . S
Cd184 O183 2.228 . S
Cd184 O188 2.273 . S
Cd184 O192 2.277 . S
O185 C182 1.160 . S
O185 Cd186 2.203 . S
Cd186 O185 2.203 . S
Cd186 O188 2.411 . S
Cd186 O189 2.333 . S
Cd186 O190 2.352 . S
Cd186 O194 2.277 . S
Cd186 O195 2.356 . S
C187 O192 1.209 . S
C187 O194 1.226 . S
O188 Cd184 2.273 . S
O188 Cd186 2.411 . S
O188 C191 1.320 . S
O189 Cd186 2.333 . S
O189 C191 1.214 . S
O190 Cd186 2.352 . S
O190 C193 1.258 . S
C191 O188 1.320 . S
C191 O189 1.214 . S
O192 Cd184 2.277 . S
O192 C187 1.209 . S
C193 O190 1.258 . S
C193 O195 1.282 . S
O194 Cd186 2.277 . S
O194 C187 1.226 . S
O195 Cd186 2.356 . S
O195 C193 1.282 . S
C196 O197 1.306 . S
C196 O199 1.160 . S
O197 C196 1.306 . S
O197 Cd198 2.228 . S
Cd198 O197 2.228 . S
Cd198 O202 2.273 . S
Cd198 O206 2.277 . S
O199 C196 1.160 . S
O199 Cd200 2.203 . S
Cd200 O199 2.203 . S
Cd200 O202 2.411 . S
Cd200 O203 2.333 . S
Cd200 O204 2.352 . S
Cd200 O208 2.277 . S
Cd200 O209 2.356 . S
C201 O206 1.209 . S
C201 O208 1.226 . S
O202 Cd198 2.273 . S
O202 Cd200 2.411 . S
O202 C205 1.320 . S
O203 Cd200 2.333 . S
O203 C205 1.214 . S
O204 Cd200 2.352 . S
O204 C207 1.258 . S
C205 O202 1.320 . S
C205 O203 1.214 . S
O206 Cd198 2.277 . S
O206 C201 1.209 . S
C207 O204 1.258 . S
C207 O209 1.282 . S
O208 Cd200 2.277 . S
O208 C201 1.226 . S
O209 Cd200 2.356 . S
O209 C207 1.282 . S
C210 O211 1.306 . S
C210 O213 1.160 . S
O211 C210 1.306 . S
O211 Cd212 2.228 . S
Cd212 O211 2.228 . S
Cd212 O216 2.273 . S
Cd212 O220 2.277 . S
O213 C210 1.160 . S
O213 Cd214 2.203 . S
Cd214 O213 2.203 . S
Cd214 O216 2.411 . S
Cd214 O217 2.333 . S
Cd214 O218 2.352 . S
Cd214 O222 2.277 . S
Cd214 O223 2.356 . S
C215 O220 1.209 . S
C215 O222 1.226 . S
O216 Cd212 2.273 . S
O216 Cd214 2.411 . S
O216 C219 1.320 . S
O217 Cd214 2.333 . S
O217 C219 1.214 . S
O218 Cd214 2.352 . S
O218 C221 1.258 . S
C219 O216 1.320 . S
C219 O217 1.214 . S
O220 Cd212 2.277 . S
O220 C215 1.209 . S
C221 O218 1.258 . S
C221 O223 1.282 . S
O222 Cd214 2.277 . S
O222 C215 1.226 . S
O223 Cd214 2.356 . S
O223 C221 1.282 . S
C224 O225 1.306 . S
C224 O227 1.160 . S
O225 C224 1.306 . S
O225 Cd226 2.228 . S
Cd226 O225 2.228 . S
Cd226 O230 2.273 . S
Cd226 O234 2.277 . S
O227 C224 1.160 . S
O227 Cd228 2.203 . S
Cd228 O227 2.203 . S
Cd228 O230 2.411 . S
Cd228 O231 2.333 . S
Cd228 O232 2.352 . S
Cd228 O236 2.277 . S
Cd228 O237 2.356 . S
C229 O234 1.209 . S
C229 O236 1.226 . S
O230 Cd226 2.273 . S
O230 Cd228 2.411 . S
O230 C233 1.320 . S
O231 Cd228 2.333 . S
O231 C233 1.214 . S
O232 Cd228 2.352 . S
O232 C235 1.258 . S
C233 O230 1.320 . S
C233 O231 1.214 . S
O234 Cd226 2.277 . S
O234 C229 1.209 . S
C235 O232 1.258 . S
C235 O237 1.282 . S
O236 Cd228 2.277 . S
O236 C229 1.226 . S
O237 Cd228 2.356 . S
O237 C235 1.282 . S
C238 O239 1.306 . S
C238 O241 1.160 . S
O239 C238 1.306 . S
O239 Cd240 2.228 . S
Cd240 O239 2.228 . S
Cd240 O244 2.273 . S
Cd240 O248 2.277 . S
O241 C238 1.160 . S
O241 Cd242 2.203 . S
Cd242 O241 2.203 . S
Cd242 O244 2.411 . S
Cd242 O245 2.333 . S
Cd242 O246 2.352 . S
Cd242 O250 2.277 . S
Cd242 O251 2.356 . S
C243 O248 1.209 . S
C243 O250 1.226 . S
O244 Cd240 2.273 . S
O244 Cd242 2.411 . S
O244 C247 1.320 . S
O245 Cd242 2.333 . S
O245 C247 1.214 . S
O246 Cd242 2.352 . S
O246 C249 1.258 . S
C247 O244 1.320 . S
C247 O245 1.214 . S
O248 Cd240 2.277 . S
O248 C243 1.209 . S
C249 O246 1.258 . S
C249 O251 1.282 . S
O250 Cd242 2.277 . S
O250 C243 1.226 . S
O251 Cd242 2.356 . S
O251 C249 1.282 . S
C252 O253 1.306 . S
C252 O255 1.160 . S
O253 C252 1.306 . S
O253 Cd254 2.228 . S
Cd254 O253 2.228 . S
Cd254 O258 2.273 . S
Cd254 O262 2.277 . S
O255 C252 1.160 . S
O255 Cd256 2.203 . S
Cd256 O255 2.203 . S
Cd256 O258 2.411 . S
Cd256 O259 2.333 . S
Cd256 O260 2.352 . S
Cd256 O264 2.277 . S
Cd256 O265 2.356 . S
C257 O262 1.209 . S
C257 O264 1.226 . S
O258 Cd254 2.273 . S
O258 Cd256 2.411 . S
O258 C261 1.320 . S
O259 Cd256 2.333 . S
O259 C261 1.214 . S
O260 Cd256 2.352 . S
O260 C263 1.258 . S
C261 O258 1.320 . S
C261 O259 1.214 . S
O262 Cd254 2.277 . S
O262 C257 1.209 . S
C263 O260 1.258 . S
C263 O265 1.282 . S
O264 Cd256 2.277 . S
O264 C257 1.226 . S
O265 Cd256 2.356 . S
O265 C263 1.282 . S
C266 O267 1.306 . S
C266 O269 1.160 . S
O267 C266 1.306 . S
O267 Cd268 2.228 . S
Cd268 O267 2.228 . S
Cd268 O272 2.273 . S
Cd268 O276 2.277 . S
O269 C266 1.160 . S
O269 Cd270 2.203 . S
Cd270 O269 2.203 . S
Cd270 O272 2.411 . S
Cd270 O273 2.333 . S
Cd270 O274 2.352 . S
Cd270 O278 2.277 . S
Cd270 O279 2.356 . S
C271 O276 1.209 . S
C271 O278 1.226 . S
O272 Cd268 2.273 . S
O272 Cd270 2.411 . S
O272 C275 1.320 . S
O273 Cd270 2.333 . S
O273 C275 1.214 . S
O274 Cd270 2.352 . S
O274 C277 1.258 . S
C275 O272 1.320 . S
C275 O273 1.214 . S
O276 Cd268 2.277 . S
O276 C271 1.209 . S
C277 O274 1.258 . S
C277 O279 1.282 . S
O278 Cd270 2.277 . S
O278 C271 1.226 . S
O279 Cd270 2.356 . S
O279 C277 1.282 . S
C280 O281 1.306 . S
C280 O283 1.160 . S
O281 C280 1.306 . S
O281 Cd282 2.228 . S
Cd282 O281 2.228 . S
Cd282 O286 2.273 . S
Cd282 O290 2.277 . S
O283 C280 1.160 . S
O283 Cd284 2.203 . S
Cd284 O283 2.203 . S
Cd284 O286 2.411 . S
Cd284 O287 2.333 . S
Cd284 O288 2.352 . S
Cd284 O292 2.277 . S
Cd284 O293 2.356 . S
C285 O290 1.209 . S
C285 O292 1.226 . S
O286 Cd282 2.273 . S
O286 Cd284 2.411 . S
O286 C289 1.320 . S
O287 Cd284 2.333 . S
O287 C289 1.214 . S
O288 Cd284 2.352 . S
O288 C291 1.258 . S
C289 O286 1.320 . S
C289 O287 1.214 . S
O290 Cd282 2.277 . S
O290 C285 1.209 . S
C291 O288 1.258 . S
C291 O293 1.282 . S
O292 Cd284 2.277 . S
O292 C285 1.226 . S
O293 Cd284 2.356 . S
O293 C291 1.282 . S
C294 O295 1.306 . S
C294 O297 1.160 . S
O295 C294 1.306 . S
O295 Cd296 2.228 . S
Cd296 O295 2.228 . S
Cd296 O300 2.273 . S
Cd296 O304 2.277 . S
O297 C294 1.160 . S
O297 Cd298 2.203 . S
Cd298 O297 2.203 . S
Cd298 O300 2.411 . S
Cd298 O301 2.333 . S
Cd298 O302 2.352 . S
Cd298 O306 2.277 . S
Cd298 O307 2.356 . S
C299 O304 1.209 . S
C299 O306 1.226 . S
O300 Cd296 2.273 . S
O300 Cd298 2.411 . S
O300 C303 1.320 . S
O301 Cd298 2.333 . S
O301 C303 1.214 . S
O302 Cd298 2.352 . S
O302 C305 1.258 . S
C303 O300 1.320 . S
C303 O301 1.214 . S
O304 Cd296 2.277 . S
O304 C299 1.209 . S
C305 O302 1.258 . S
C305 O307 1.282 . S
O306 Cd298 2.277 . S
O306 C299 1.226 . S
O307 Cd298 2.356 . S
O307 C305 1.282 . S
C308 O309 1.306 . S
C308 O311 1.160 . S
O309 C308 1.306 . S
O309 Cd310 2.228 . S
Cd310 O309 2.228 . S
Cd310 O314 2.273 . S
Cd310 O318 2.277 . S
O311 C308 1.160 . S
O311 Cd312 2.203 . S
Cd312 O311 2.203 . S
Cd312 O314 2.411 . S
Cd312 O315 2.333 . S
Cd312 O316 2.352 . S
Cd312 O320 2.277 . S
Cd312 O321 2.356 . S
C313 O318 1.209 . S
C313 O320 1.226 . S
O314 Cd310 2.273 . S
O314 Cd312 2.411 . S
O314 C317 1.320 . S
O315 Cd312 2.333 . S
O315 C317 1.214 . S
O316 Cd312 2.352 . S
O316 C319 1.258 . S
C317 O314 1.320 . S
C317 O315 1.214 . S
O318 Cd310 2.277 . S
O318 C313 1.209 . S
C319 O316 1.258 . S
C319 O321 1.282 . S
O320 Cd312 2.277 . S
O320 C313 1.226 . S
O321 Cd312 2.356 . S
O321 C319 1.282 . S
C322 O323 1.306 . S
C322 O325 1.160 . S
O323 C322 1.306 . S
O323 Cd324 2.228 . S
Cd324 O323 2.228 . S
Cd324 O328 2.273 . S
Cd324 O332 2.277 . S
O325 C322 1.160 . S
O325 Cd326 2.203 . S
Cd326 O325 2.203 . S
Cd326 O328 2.411 . S
Cd326 O329 2.333 . S
Cd326 O330 2.352 . S
Cd326 O334 2.277 . S
Cd326 O335 2.356 . S
C327 O332 1.209 . S
C327 O334 1.226 . S
O328 Cd324 2.273 . S
O328 Cd326 2.411 . S
O328 C331 1.320 . S
O329 Cd326 2.333 . S
O329 C331 1.214 . S
O330 Cd326 2.352 . S
O330 C333 1.258 . S
C331 O328 1.320 . S
C331 O329 1.214 . S
O332 Cd324 2.277 . S
O332 C327 1.209 . S
C333 O330 1.258 . S
C333 O335 1.282 . S
O334 Cd326 2.277 . S
O334 C327 1.226 . S
O335 Cd326 2.356 . S
O335 C333 1.282 . S
C336 O337 1.306 . S
C336 O339 1.160 . S
O337 C336 1.306 . S
O337 Cd338 2.228 . S
Cd338 O337 2.228 . S
Cd338 O342 2.273 . S
Cd338 O346 2.277 . S
O339 C336 1.160 . S
O339 Cd340 2.203 . S
Cd340 O339 2.203 . S
Cd340 O342 2.411 . S
Cd340 O343 2.333 . S
Cd340 O344 2.352 . S
Cd340 O348 2.277 . S
Cd340 O349 2.356 . S
C341 O346 1.209 . S
C341 O348 1.226 . S
O342 Cd338 2.273 . S
O342 Cd340 2.411 . S
O342 C345 1.320 . S
O343 Cd340 2.333 . S
O343 C345 1.214 . S
O344 Cd340 2.352 . S
O344 C347 1.258 . S
C345 O342 1.320 . S
C345 O343 1.214 . S
O346 Cd338 2.277 . S
O346 C341 1.209 . S
C347 O344 1.258 . S
C347 O349 1.282 . S
O348 Cd340 2.277 . S
O348 C341 1.226 . S
O349 Cd340 2.356 . S
O349 C347 1.282 . S
C350 O351 1.306 . S
C350 O353 1.160 . S
O351 C350 1.306 . S
O351 Cd352 2.228 . S
Cd352 O351 2.228 . S
Cd352 O356 2.273 . S
Cd352 O360 2.277 . S
O353 C350 1.160 . S
O353 Cd354 2.203 . S
Cd354 O353 2.203 . S
Cd354 O356 2.411 . S
Cd354 O357 2.333 . S
Cd354 O358 2.352 . S
Cd354 O362 2.277 . S
Cd354 O363 2.356 . S
C355 O360 1.209 . S
C355 O362 1.226 . S
O356 Cd352 2.273 . S
O356 Cd354 2.411 . S
O356 C359 1.320 . S
O357 Cd354 2.333 . S
O357 C359 1.214 . S
O358 Cd354 2.352 . S
O358 C361 1.258 . S
C359 O356 1.320 . S
C359 O357 1.214 . S
O360 Cd352 2.277 . S
O360 C355 1.209 . S
C361 O358 1.258 . S
C361 O363 1.282 . S
O362 Cd354 2.277 . S
O362 C355 1.226 . S
O363 Cd354 2.356 . S
O363 C361 1.282 . S
C364 O365 1.306 . S
C364 O367 1.160 . S
O365 C364 1.306 . S
O365 Cd366 2.228 . S
Cd366 O365 2.228 . S
Cd366 O370 2.273 . S
Cd366 O374 2.277 . S
O367 C364 1.160 . S
O367 Cd368 2.203 . S
Cd368 O367 2.203 . S
Cd368 O370 2.411 . S
Cd368 O371 2.333 . S
Cd368 O372 2.352 . S
Cd368 O376 2.277 . S
Cd368 O377 2.356 . S
C369 O374 1.209 . S
C369 O376 1.226 . S
O370 Cd366 2.273 . S
O370 Cd368 2.411 . S
O370 C373 1.320 . S
O371 Cd368 2.333 . S
O371 C373 1.214 . S
O372 Cd368 2.352 . S
O372 C375 1.258 . S
C373 O370 1.320 . S
C373 O371 1.214 . S
O374 Cd366 2.277 . S
O374 C369 1.209 . S
C375 O372 1.258 . S
C375 O377 1.282 . S
O376 Cd368 2.277 . S
O376 C369 1.226 . S
O377 Cd368 2.356 . S
O377 C375 1.282 . S
C378 O379 1.306 . S
C378 O381 1.160 . S
O379 C378 1.306 . S
O379 Cd380 2.228 . S
Cd380 O379 2.228 . S
Cd380 O384 2.273 . S
Cd380 O388 2.277 . S
O381 C378 1.160 . S
O381 Cd382 2.203 . S
Cd382 O381 2.203 . S
Cd382 O384 2.411 . S
Cd382 O385 2.333 . S
Cd382 O386 2.352 . S
Cd382 O390 2.277 . S
Cd382 O391 2.356 . S
C383 O388 1.209 . S
C383 O390 1.226 . S
O384 Cd380 2.273 . S
O384 Cd382 2.411 . S
O384 C387 1.320 . S
O385 Cd382 2.333 . S
O385 C387 1.214 . S
O386 Cd382 2.352 . S
O386 C389 1.258 . S
C387 O384 1.320 . S
C387 O385 1.214 . S
O388 Cd380 2.277 . S
O388 C383 1.209 . S
C389 O386 1.258 . S
C389 O391 1.282 . S
O390 Cd382 2.277 . S
O390 C383 1.226 . S
O391 Cd382 2.356 . S
O391 C389 1.282 . S
C392 O393 1.306 . S
C392 O395 1.160 . S
O393 C392 1.306 . S
O393 Cd394 2.228 . S
Cd394 O393 2.228 . S
Cd394 O398 2.273 . S
Cd394 O402 2.277 . S
O395 C392 1.160 . S
O395 Cd396 2.203 . S
Cd396 O395 2.203 . S
Cd396 O398 2.411 . S
Cd396 O399 2.333 . S
Cd396 O400 2.352 . S
Cd396 O404 2.277 . S
Cd396 O405 2.356 . S
C397 O402 1.209 . S
C397 O404 1.226 . S
O398 Cd394 2.273 . S
O398 Cd396 2.411 . S
O398 C401 1.320 . S
O399 Cd396 2.333 . S
O399 C401 1.214 . S
O400 Cd396 2.352 . S
O400 C403 1.258 . S
C401 O398 1.320 . S
C401 O399 1.214 . S
O402 Cd394 2.277 . S
O402 C397 1.209 . S
C403 O400 1.258 . S
C403 O405 1.282 . S
O404 Cd396 2.277 . S
O404 C397 1.226 . S
O405 Cd396 2.356 . S
O405 C403 1.282 . S
C406 O407 1.306 . S
C406 O409 1.160 . S
O407 C406 1.306 . S
O407 Cd408 2.228 . S
Cd408 O407 2.228 . S
Cd408 O412 2.273 . S
Cd408 O416 2.277 . S
O409 C406 1.160 . S
O409 Cd410 2.203 . S
Cd410 O409 2.203 . S
Cd410 O412 2.411 . S
Cd410 O413 2.333 . S
Cd410 O414 2.352 . S
Cd410 O418 2.277 . S
Cd410 O419 2.356 . S
C411 O416 1.209 . S
C411 O418 1.226 . S
O412 Cd408 2.273 . S
O412 Cd410 2.411 . S
O412 C415 1.320 . S
O413 Cd410 2.333 . S
O413 C415 1.214 . S
O414 Cd410 2.352 . S
O414 C417 1.258 . S
C415 O412 1.320 . S
C415 O413 1.214 . S
O416 Cd408 2.277 . S
O416 C411 1.209 . S
C417 O414 1.258 . S
C417 O419 1.282 . S
O418 Cd410 2.277 . S
O418 C411 1.226 . S
O419 Cd410 2.356 . S
O419 C417 1.282 . S
C420 O421 1.306 . S
C420 O423 1.160 . S
O421 C420 1.306 . S
O421 Cd422 2.228 . S
Cd422 O421 2.228 . S
Cd422 O426 2.273 . S
Cd422 O430 2.277 . S
O423 C420 1.160 . S
O423 Cd424 2.203 . S
Cd424 O423 2.203 . S
Cd424 O426 2.411 . S
Cd424 O427 2.333 . S
Cd424 O428 2.352 . S
Cd424 O432 2.277 . S
Cd424 O433 2.356 . S
C425 O430 1.209 . S
C425 O432 1.226 . S
O426 Cd422 2.273 . S
O426 Cd424 2.411 . S
O426 C429 1.320 . S
O427 Cd424 2.333 . S
O427 C429 1.214 . S
O428 Cd424 2.352 . S
O428 C431 1.258 . S
C429 O426 1.320 . S
C429 O427 1.214 . S
O430 Cd422 2.277 . S
O430 C425 1.209 . S
C431 O428 1.258 . S
C431 O433 1.282 . S
O432 Cd424 2.277 . S
O432 C425 1.226 . S
O433 Cd424 2.356 . S
O433 C431 1.282 . S
C434 O435 1.306 . S
C434 O437 1.160 . S
O435 C434 1.306 . S
O435 Cd436 2.228 . S
Cd436 O435 2.228 . S
Cd436 O440 2.273 . S
Cd436 O444 2.277 . S
O437 C434 1.160 . S
O437 Cd438 2.203 . S
Cd438 O437 2.203 . S
Cd438 O440 2.411 . S
Cd438 O441 2.333 . S
Cd438 O442 2.352 . S
Cd438 O446 2.277 . S
Cd438 O447 2.356 . S
C439 O444 1.209 . S
C439 O446 1.226 . S
O440 Cd436 2.273 . S
O440 Cd438 2.411 . S
O440 C443 1.320 . S
O441 Cd438 2.333 . S
O441 C443 1.214 . S
O442 Cd438 2.352 . S
O442 C445 1.258 . S
C443 O440 1.320 . S
C443 O441 1.214 . S
O444 Cd436 2.277 . S
O444 C439 1.209 . S
C445 O442 1.258 . S
C445 O447 1.282 . S
O446 Cd438 2.277 . S
O446 C439 1.226 . S
O447 Cd438 2.356 . S
O447 C445 1.282 . S
C448 O449 1.306 . S
C448 O451 1.160 . S
O449 C448 1.306 . S
O449 Cd450 2.228 . S
Cd450 O449 2.228 . S
Cd450 O454 2.273 . S
Cd450 O458 2.277 . S
O451 C448 1.160 . S
O451 Cd452 2.203 . S
Cd452 O451 2.203 . S
Cd452 O454 2.411 . S
Cd452 O455 2.333 . S
Cd452 O456 2.352 . S
Cd452 O460 2.277 . S
Cd452 O461 2.356 . S
C453 O458 1.209 . S
C453 O460 1.226 . S
O454 Cd450 2.273 . S
O454 Cd452 2.411 . S
O454 C457 1.320 . S
O455 Cd452 2.333 . S
O455 C457 1.214 . S
O456 Cd452 2.352 . S
O456 C459 1.258 . S
C457 O454 1.320 . S
C457 O455 1.214 . S
O458 Cd450 2.277 . S
O458 C453 1.209 . S
C459 O456 1.258 . S
C459 O461 1.282 . S
O460 Cd452 2.277 . S
O460 C453 1.226 . S
O461 Cd452 2.356 . S
O461 C459 1.282 . S
C462 O463 1.306 . S
C462 O465 1.160 . S
O463 C462 1.306 . S
O463 Cd464 2.228 . S
Cd464 O463 2.228 . S
Cd464 O468 2.273 . S
Cd464 O472 2.277 . S
O465 C462 1.160 . S
O465 Cd466 2.203 . S
Cd466 O465 2.203 . S
Cd466 O468 2.411 . S
Cd466 O469 2.333 . S
Cd466 O470 2.352 . S
Cd466 O474 2.277 . S
Cd466 O475 2.356 . S
C467 O472 1.209 . S
C467 O474 1.226 . S
O468 Cd464 2.273 . S
O468 Cd466 2.411 . S
O468 C471 1.320 . S
O469 Cd466 2.333 . S
O469 C471 1.214 . S
O470 Cd466 2.352 . S
O470 C473 1.258 . S
C471 O468 1.320 . S
C471 O469 1.214 . S
O472 Cd464 2.277 . S
O472 C467 1.209 . S
C473 O470 1.258 . S
C473 O475 1.282 . S
O474 Cd466 2.277 . S
O474 C467 1.226 . S
O475 Cd466 2.356 . S
O475 C473 1.282 . S
C476 O477 1.306 . S
C476 O479 1.160 . S
O477 C476 1.306 . S
O477 Cd478 2.228 . S
Cd478 O477 2.228 . S
Cd478 O482 2.273 . S
Cd478 O486 2.277 . S
O479 C476 1.160 . S
O479 Cd480 2.203 . S
Cd480 O479 2.203 . S
Cd480 O482 2.411 . S
Cd480 O483 2.333 . S
Cd480 O484 2.352 . S
Cd480 O488 2.277 . S
Cd480 O489 2.356 . S
C481 O486 1.209 . S
C481 O488 1.226 . S
O482 Cd478 2.273 . S
O482 Cd480 2.411 . S
O482 C485 1.320 . S
O483 Cd480 2.333 . S
O483 C485 1.214 . S
O484 Cd480 2.352 . S
O484 C487 1.258 . S
C485 O482 1.320 . S
C485 O483 1.214 . S
O486 Cd478 2.277 . S
O486 C481 1.209 . S
C487 O484 1.258 . S
C487 O489 1.282 . S
O488 Cd480 2.277 . S
O488 C481 1.226 . S
O489 Cd480 2.356 . S
O489 C487 1.282 . S
C490 O491 1.306 . S
C490 O493 1.160 . S
O491 C490 1.306 . S
O491 Cd492 2.228 . S
Cd492 O491 2.228 . S
Cd492 O496 2.273 . S
Cd492 O500 2.277 . S
O493 C490 1.160 . S
O493 Cd494 2.203 . S
Cd494 O493 2.203 . S
Cd494 O496 2.411 . S
Cd494 O497 2.333 . S
Cd494 O498 2.352 . S
Cd494 O502 2.277 . S
Cd494 O503 2.356 . S
C495 O500 1.209 . S
C495 O502 1.226 . S
O496 Cd492 2.273 . S
O496 Cd494 2.411 . S
O496 C499 1.320 . S
O497 Cd494 2.333 . S
O497 C499 1.214 . S
O498 Cd494 2.352 . S
O498 C501 1.258 . S
C499 O496 1.320 . S
C499 O497 1.214 . S
O500 Cd492 2.277 . S
O500 C495 1.209 . S
C501 O498 1.258 . S
C501 O503 1.282 . S
O502 Cd494 2.277 . S
O502 C495 1.226 . S
O503 Cd494 2.356 . S
O503 C501 1.282 . S
C504 O505 1.306 . S
C504 O507 1.160 . S
O505 C504 1.306 . S
O505 Cd506 2.228 . S
Cd506 O505 2.228 . S
Cd506 O510 2.273 . S
Cd506 O514 2.277 . S
O507 C504 1.160 . S
O507 Cd508 2.203 . S
Cd508 O507 2.203 . S
Cd508 O510 2.411 . S
Cd508 O511 2.333 . S
Cd508 O512 2.352 . S
Cd508 O516 2.277 . S
Cd508 O517 2.356 . S
C509 O514 1.209 . S
C509 O516 1.226 . S
O510 Cd506 2.273 . S
O510 Cd508 2.411 . S
O510 C513 1.320 . S
O511 Cd508 2.333 . S
O511 C513 1.214 . S
O512 Cd508 2.352 . S
O512 C515 1.258 . S
C513 O510 1.320 . S
C513 O511 1.214 . S
O514 Cd506 2.277 . S
O514 C509 1.209 . S
C515 O512 1.258 . S
C515 O517 1.282 . S
O516 Cd508 2.277 . S
O516 C509 1.226 . S
O517 Cd508 2.356 . S
O517 C515 1.282 . S
C518 O519 1.306 . S
C518 O521 1.160 . S
O519 C518 1.306 . S
O519 Cd520 2.228 . S
Cd520 O519 2.228 . S
Cd520 O524 2.273 . S
Cd520 O528 2.277 . S
O521 C518 1.160 . S
O521 Cd522 2.203 . S
Cd522 O521 2.203 . S
Cd522 O524 2.411 . S
Cd522 O525 2.333 . S
Cd522 O526 2.352 . S
Cd522 O530 2.277 . S
Cd522 O531 2.356 . S
C523 O528 1.209 . S
C523 O530 1.226 . S
O524 Cd520 2.273 . S
O524 Cd522 2.411 . S
O524 C527 1.320 . S
O525 Cd522 2.333 . S
O525 C527 1.214 . S
O526 Cd522 2.352 . S
O526 C529 1.258 . S
C527 O524 1.320 . S
C527 O525 1.214 . S
O528 Cd520 2.277 . S
O528 C523 1.209 . S
C529 O526 1.258 . S
C529 O531 1.282 . S
O530 Cd522 2.277 . S
O530 C523 1.226 . S
O531 Cd522 2.356 . S
O531 C529 1.282 . S
C532 O533 1.306 . S
C532 O535 1.160 . S
O533 C532 1.306 . S
O533 Cd534 2.228 . S
Cd534 O533 2.228 . S
Cd534 O538 2.273 . S
Cd534 O542 2.277 . S
O535 C532 1.160 . S
O535 Cd536 2.203 . S
Cd536 O535 2.203 . S
Cd536 O538 2.411 . S
Cd536 O539 2.333 . S
Cd536 O540 2.352 . S
Cd536 O544 2.277 . S
Cd536 O545 2.356 . S
C537 O542 1.209 . S
C537 O544 1.226 . S
O538 Cd534 2.273 . S
O538 Cd536 2.411 . S
O538 C541 1.320 . S
O539 Cd536 2.333 . S
O539 C541 1.214 . S
O540 Cd536 2.352 . S
O540 C543 1.258 . S
C541 O538 1.320 . S
C541 O539 1.214 . S
O542 Cd534 2.277 . S
O542 C537 1.209 . S
C543 O540 1.258 . S
C543 O545 1.282 . S
O544 Cd536 2.277 . S
O544 C537 1.226 . S
O545 Cd536 2.356 . S
O545 C543 1.282 . S
C546 O547 1.306 . S
C546 O549 1.160 . S
O547 C546 1.306 . S
O547 Cd548 2.228 . S
Cd548 O547 2.228 . S
Cd548 O552 2.273 . S
Cd548 O556 2.277 . S
O549 C546 1.160 . S
O549 Cd550 2.203 . S
Cd550 O549 2.203 . S
Cd550 O552 2.411 . S
Cd550 O553 2.333 . S
Cd550 O554 2.352 . S
Cd550 O558 2.277 . S
Cd550 O559 2.356 . S
C551 O556 1.209 . S
C551 O558 1.226 . S
O552 Cd548 2.273 . S
O552 Cd550 2.411 . S
O552 C555 1.320 . S
O553 Cd550 2.333 . S
O553 C555 1.214 . S
O554 Cd550 2.352 . S
O554 C557 1.258 . S
C555 O552 1.320 . S
C555 O553 1.214 . S
O556 Cd548 2.277 . S
O556 C551 1.209 . S
C557 O554 1.258 . S
C557 O559 1.282 . S
O558 Cd550 2.277 . S
O558 C551 1.226 . S
O559 Cd550 2.356 . S
O559 C557 1.282 . S
C560 O561 1.306 . S
C560 O563 1.160 . S
O561 C560 1.306 . S
O561 Cd562 2.228 . S
Cd562 O561 2.228 . S
Cd562 O566 2.273 . S
Cd562 O570 2.277 . S
O563 C560 1.160 . S
O563 Cd564 2.203 . S
Cd564 O563 2.203 . S
Cd564 O566 2.411 . S
Cd564 O567 2.333 . S
Cd564 O568 2.352 . S
Cd564 O572 2.277 . S
Cd564 O573 2.356 . S
C565 O570 1.209 . S
C565 O572 1.226 . S
O566 Cd562 2.273 . S
O566 Cd564 2.411 . S
O566 C569 1.320 . S
O567 Cd564 2.333 . S
O567 C569 1.214 . S
O568 Cd564 2.352 . S
O568 C571 1.258 . S
C569 O566 1.320 . S
C569 O567 1.214 . S
O570 Cd562 2.277 . S
O570 C565 1.209 . S
C571 O568 1.258 . S
C571 O573 1.282 . S
O572 Cd564 2.277 . S
O572 C565 1.226 . S
O573 Cd564 2.356 . S
O573 C571 1.282 . S
C574 O575 1.306 . S
C574 O577 1.160 . S
O575 C574 1.306 . S
O575 Cd576 2.228 . S
Cd576 O575 2.228 . S
Cd576 O580 2.273 . S
Cd576 O584 2.277 . S
O577 C574 1.160 . S
O577 Cd578 2.203 . S
Cd578 O577 2.203 . S
Cd578 O580 2.411 . S
Cd578 O581 2.333 . S
Cd578 O582 2.352 . S
Cd578 O586 2.277 . S
Cd578 O587 2.356 . S
C579 O584 1.209 . S
C579 O586 1.226 . S
O580 Cd576 2.273 . S
O580 Cd578 2.411 . S
O580 C583 1.320 . S
O581 Cd578 2.333 . S
O581 C583 1.214 . S
O582 Cd578 2.352 . S
O582 C585 1.258 . S
C583 O580 1.320 . S
C583 O581 1.214 . S
O584 Cd576 2.277 . S
O584 C579 1.209 . S
C585 O582 1.258 . S
C585 O587 1.282 . S
O586 Cd578 2.277 . S
O586 C579 1.226 . S
O587 Cd578 2.356 . S
O587 C585 1.282 . S
C588 O589 1.306 . S
C588 O591 1.160 . S
O589 C588 1.306 . S
O589 Cd590 2.228 . S
Cd590 O589 2.228 . S
Cd590 O594 2.273 . S
Cd590 O598 2.277 . S
O591 C588 1.160 . S
O591 Cd592 2.203 . S
Cd592 O591 2.203 . S
Cd592 O594 2.411 . S
Cd592 O595 2.333 . S
Cd592 O596 2.352 . S
Cd592 O600 2.277 . S
Cd592 O601 2.356 . S
C593 O598 1.209 . S
C593 O600 1.226 . S
O594 Cd590 2.273 . S
O594 Cd592 2.411 . S
O594 C597 1.320 . S
O595 Cd592 2.333 . S
O595 C597 1.214 . S
O596 Cd592 2.352 . S
O596 C599 1.258 . S
C597 O594 1.320 . S
C597 O595 1.214 . S
O598 Cd590 2.277 . S
O598 C593 1.209 . S
C599 O596 1.258 . S
C599 O601 1.282 . S
O600 Cd592 2.277 . S
O600 C593 1.226 . S
O601 Cd592 2.356 . S
O601 C599 1.282 . S
C602 O603 1.306 . S
C602 O605 1.160 . S
O603 C602 1.306 . S
O603 Cd604 2.228 . S
Cd604 O603 2.228 . S
Cd604 O608 2.273 . S
Cd604 O612 2.277 . S
O605 C602 1.160 . S
O605 Cd606 2.203 . S
Cd606 O605 2.203 . S
Cd606 O608 2.411 . S
Cd606 O609 2.333 . S
Cd606 O610 2.352 . S
Cd606 O614 2.277 . S
Cd606 O615 2.356 . S
C607 O612 1.209 . S
C607 O614 1.226 . S
O608 Cd604 2.273 . S
O608 Cd606 2.411 . S
O608 C611 1.320 . S
O609 Cd606 2.333 . S
O609 C611 1.214 . S
O610 Cd606 2.352 . S
O610 C613 1.258 . S
C611 O608 1.320 . S
C611 O609 1.214 . S
O612 Cd604 2.277 . S
O612 C607 1.209 . S
C613 O610 1.258 . S
C613 O615 1.282 . S
O614 Cd606 2.277 . S
O614 C607 1.226 . S
O615 Cd606 2.356 . S
O615 C613 1.282 . S
C616 O617 1.306 . S
C616 O619 1.160 . S
O617 C616 1.306 . S
O617 Cd618 2.228 . S
Cd618 O617 2.228 . S
Cd618 O622 2.273 . S
Cd618 O626 2.277 . S
O619 C616 1.160 . S
O619 Cd620 2.203 . S
Cd620 O619 2.203 . S
Cd620 O622 2.411 . S
Cd620 O623 2.333 . S
Cd620 O624 2.352 . S
Cd620 O628 2.277 . S
Cd620 O629 2.356 . S
C621 O626 1.209 . S
C621 O628 1.226 . S
O622 Cd618 2.273 . S
O622 Cd620 2.411 . S
O622 C625 1.320 . S
O623 Cd620 2.333 . S
O623 C625 1.214 . S
O624 Cd620 2.352 . S
O624 C627 1.258 . S
C625 O622 1.320 . S
C625 O623 1.214 . S
O626 Cd618 2.277 . S
O626 C621 1.209 . S
C627 O624 1.258 . S
C627 O629 1.282 . S
O628 Cd620 2.277 . S
O628 C621 1.226 . S
O629 Cd620 2.356 . S
O629 C627 1.282 . S
C630 O631 1.306 . S
C630 O633 1.160 . S
O631 C630 1.306 . S
O631 Cd632 2.228 . S
Cd632 O631 2.228 . S
Cd632 O636 2.273 . S
Cd632 O640 2.277 . S
O633 C630 1.160 . S
O633 Cd634 2.203 . S
Cd634 O633 2.203 . S
Cd634 O636 2.411 . S
Cd634 O637 2.333 . S
Cd634 O638 2.352 . S
Cd634 O642 2.277 . S
Cd634 O643 2.356 . S
C635 O640 1.209 . S
C635 O642 1.226 . S
O636 Cd632 2.273 . S
O636 Cd634 2.411 . S
O636 C639 1.320 . S
O637 Cd634 2.333 . S
O637 C639 1.214 . S
O638 Cd634 2.352 . S
O638 C641 1.258 . S
C639 O636 1.320 . S
C639 O637 1.214 . S
O640 Cd632 2.277 . S
O640 C635 1.209 . S
C641 O638 1.258 . S
C641 O643 1.282 . S
O642 Cd634 2.277 . S
O642 C635 1.226 . S
O643 Cd634 2.356 . S
O643 C641 1.282 . S
C644 O645 1.306 . S
C644 O647 1.160 . S
O645 C644 1.306 . S
O645 Cd646 2.228 . S
Cd646 O645 2.228 . S
Cd646 O650 2.273 . S
Cd646 O654 2.277 . S
O647 C644 1.160 . S
O647 Cd648 2.203 . S
Cd648 O647 2.203 . S
Cd648 O650 2.411 . S
Cd648 O651 2.333 . S
Cd648 O652 2.352 . S
Cd648 O656 2.277 . S
Cd648 O657 2.356 . S
C649 O654 1.209 . S
C649 O656 1.226 . S
O650 Cd646 2.273 . S
O650 Cd648 2.411 . S
O650 C653 1.320 . S
O651 Cd648 2.333 . S
O651 C653 1.214 . S
O652 Cd648 2.352 . S
O652 C655 1.258 . S
C653 O650 1.320 . S
C653 O651 1.214 . S
O654 Cd646 2.277 . S
O654 C649 1.209 . S
C655 O652 1.258 . S
C655 O657 1.282 . S
O656 Cd648 2.277 . S
O656 C649 1.226 . S
O657 Cd648 2.356 . S
O657 C655 1.282 . S
C658 O659 1.306 . S
C658 O661 1.160 . S
O659 C658 1.306 . S
O659 Cd660 2.228 . S
Cd660 O659 2.228 . S
Cd660 O664 2.273 . S
Cd660 O668 2.277 . S
O661 C658 1.160 . S
O661 Cd662 2.203 . S
Cd662 O661 2.203 . S
Cd662 O664 2.411 . S
Cd662 O665 2.333 . S
Cd662 O666 2.352 . S
Cd662 O670 2.277 . S
Cd662 O671 2.356 . S
C663 O668 1.209 . S
C663 O670 1.226 . S
O664 Cd660 2.273 . S
O664 Cd662 2.411 . S
O664 C667 1.320 . S
O665 Cd662 2.333 . S
O665 C667 1.214 . S
O666 Cd662 2.352 . S
O666 C669 1.258 . S
C667 O664 1.320 . S
C667 O665 1.214 . S
O668 Cd660 2.277 . S
O668 C663 1.209 . S
C669 O666 1.258 . S
C669 O671 1.282 . S
O670 Cd662 2.277 . S
O670 C663 1.226 . S
O671 Cd662 2.356 . S
O671 C669 1.282 . S
C672 O673 1.306 . S
C672 O675 1.160 . S
O673 C672 1.306 . S
O673 Cd674 2.228 . S
Cd674 O673 2.228 . S
Cd674 O678 2.273 . S
Cd674 O682 2.277 . S
O675 C672 1.160 . S
O675 Cd676 2.203 . S
Cd676 O675 2.203 . S
Cd676 O678 2.411 . S
Cd676 O679 2.333 . S
Cd676 O680 2.352 . S
Cd676 O684 2.277 . S
Cd676 O685 2.356 . S
C677 O682 1.209 . S
C677 O684 1.226 . S
O678 Cd674 2.273 . S
O678 Cd676 2.411 . S
O678 C681 1.320 . S
O679 Cd676 2.333 . S
O679 C681 1.214 . S
O680 Cd676 2.352 . S
O680 C683 1.258 . S
C681 O678 1.320 . S
C681 O679 1.214 . S
O682 Cd674 2.277 . S
O682 C677 1.209 . S
C683 O680 1.258 . S
C683 O685 1.282 . S
O684 Cd676 2.277 . S
O684 C677 1.226 . S
O685 Cd676 2.356 . S
O685 C683 1.282 . S
C686 O687 1.306 . S
C686 O689 1.160 . S
O687 C686 1.306 . S
O687 Cd688 2.228 . S
Cd688 O687 2.228 . S
Cd688 O692 2.273 . S
Cd688 O696 2.277 . S
O689 C686 1.160 . S
O689 Cd690 2.203 . S
Cd690 O689 2.203 . S
Cd690 O692 2.411 . S
Cd690 O693 2.333 . S
Cd690 O694 2.352 . S
Cd690 O698 2.277 . S
Cd690 O699 2.356 . S
C691 O696 1.209 . S
C691 O698 1.226 . S
O692 Cd688 2.273 . S
O692 Cd690 2.411 . S
O692 C695 1.320 . S
O693 Cd690 2.333 . S
O693 C695 1.214 . S
O694 Cd690 2.352 . S
O694 C697 1.258 . S
C695 O692 1.320 . S
C695 O693 1.214 . S
O696 Cd688 2.277 . S
O696 C691 1.209 . S
C697 O694 1.258 . S
C697 O699 1.282 . S
O698 Cd690 2.277 . S
O698 C691 1.226 . S
O699 Cd690 2.356 . S
O699 C697 1.282 . S
C700 O701 1.306 . S
C700 O703 1.160 . S
O701 C700 1.306 . S
O701 Cd702 2.228 . S
Cd702 O701 2.228 . S
Cd702 O706 2.273 . S
Cd702 O710 2.277 . S
O703 C700 1.160 . S
O703 Cd704 2.203 . S
Cd704 O703 2.203 . S
Cd704 O706 2.411 . S
Cd704 O707 2.333 . S
Cd704 O708 2.352 . S
Cd704 O712 2.277 . S
Cd704 O713 2.356 . S
C705 O710 1.209 . S
C705 O712 1.226 . S
O706 Cd702 2.273 . S
O706 Cd704 2.411 . S
O706 C709 1.320 . S
O707 Cd704 2.333 . S
O707 C709 1.214 . S
O708 Cd704 2.352 . S
O708 C711 1.258 . S
C709 O706 1.320 . S
C709 O707 1.214 . S
O710 Cd702 2.277 . S
O710 C705 1.209 . S
C711 O708 1.258 . S
C711 O713 1.282 . S
O712 Cd704 2.277 . S
O712 C705 1.226 . S
O713 Cd704 2.356 . S
O713 C711 1.282 . S
C714 O715 1.306 . S
C714 O717 1.160 . S
O715 C714 1.306 . S
O715 Cd716 2.228 . S
Cd716 O715 2.228 . S
Cd716 O720 2.273 . S
Cd716 O724 2.277 . S
O717 C714 1.160 . S
O717 Cd718 2.203 . S
Cd718 O717 2.203 . S
Cd718 O720 2.411 . S
Cd718 O721 2.333 . S
Cd718 O722 2.352 . S
Cd718 O726 2.277 . S
Cd718 O727 2.356 . S
C719 O724 1.209 . S
C719 O726 1.226 . S
O720 Cd716 2.273 . S
O720 Cd718 2.411 . S
O720 C723 1.320 . S
O721 Cd718 2.333 . S
O721 C723 1.214 . S
O722 Cd718 2.352 . S
O722 C725 1.258 . S
C723 O720 1.320 . S
C723 O721 1.214 . S
O724 Cd716 2.277 . S
O724 C719 1.209 . S
C725 O722 1.258 . S
C725 O727 1.282 . S
O726 Cd718 2.277 . S
O726 C719 1.226 . S
O727 Cd718 2.356 . S
O727 C725 1.282 . S
C728 O729 1.306 . S
C728 O731 1.160 . S
O729 C728 1.306 . S
O729 Cd730 2.228 . S
Cd730 O729 2.228 . S
Cd730 O734 2.273 . S
Cd730 O738 2.277 . S
O731 C728 1.160 . S
O731 Cd732 2.203 . S
Cd732 O731 2.203 . S
Cd732 O734 2.411 . S
Cd732 O735 2.333 . S
Cd732 O736 2.352 . S
Cd732 O740 2.277 . S
Cd732 O741 2.356 . S
C733 O738 1.209 . S
C733 O740 1.226 . S
O734 Cd730 2.273 . S
O734 Cd732 2.411 . S
O734 C737 1.320 . S
O735 Cd732 2.333 . S
O735 C737 1.214 . S
O736 Cd732 2.352 . S
O736 C739 1.258 . S
C737 O734 1.320 . S
C737 O735 1.214 . S
O738 Cd730 2.277 . S
O738 C733 1.209 . S
C739 O736 1.258 . S
C739 O741 1.282 . S
O740 Cd732 2.277 . S
O740 C733 1.226 . S
O741 Cd732 2.356 . S
O741 C739 1.282 . S
C742 O743 1.306 . S
C742 O745 1.160 . S
O743 C742 1.306 . S
O743 Cd744 2.228 . S
Cd744 O743 2.228 . S
Cd744 O748 2.273 . S
Cd744 O752 2.277 . S
O745 C742 1.160 . S
O745 Cd746 2.203 . S
Cd746 O745 2.203 . S
Cd746 O748 2.411 . S
Cd746 O749 2.333 . S
Cd746 O750 2.352 . S
Cd746 O754 2.277 . S
Cd746 O755 2.356 . S
C747 O752 1.209 . S
C747 O754 1.226 . S
O748 Cd744 2.273 . S
O748 Cd746 2.411 . S
O748 C751 1.320 . S
O749 Cd746 2.333 . S
O749 C751 1.214 . S
O750 Cd746 2.352 . S
O750 C753 1.258 . S
C751 O748 1.320 . S
C751 O749 1.214 . S
O752 Cd744 2.277 . S
O752 C747 1.209 . S
C753 O750 1.258 . S
C753 O755 1.282 . S
O754 Cd746 2.277 . S
O754 C747 1.226 . S
O755 Cd746 2.356 . S
O755 C753 1.282 . S
C756 O757 1.306 . S
C756 O759 1.160 . S
O757 C756 1.306 . S
O757 Cd758 2.228 . S
Cd758 O757 2.228 . S
Cd758 O762 2.273 . S
Cd758 O766 2.277 . S
O759 C756 1.160 . S
O759 Cd760 2.203 . S
Cd760 O759 2.203 . S
Cd760 O762 2.411 . S
Cd760 O763 2.333 . S
Cd760 O764 2.352 . S
Cd760 O768 2.277 . S
Cd760 O769 2.356 . S
C761 O766 1.209 . S
C761 O768 1.226 . S
O762 Cd758 2.273 . S
O762 Cd760 2.411 . S
O762 C765 1.320 . S
O763 Cd760 2.333 . S
O763 C765 1.214 . S
O764 Cd760 2.352 . S
O764 C767 1.258 . S
C765 O762 1.320 . S
C765 O763 1.214 . S
O766 Cd758 2.277 . S
O766 C761 1.209 . S
C767 O764 1.258 . S
C767 O769 1.282 . S
O768 Cd760 2.277 . S
O768 C761 1.226 . S
O769 Cd760 2.356 . S
O769 C767 1.282 . S
C770 O771 1.306 . S
C770 O773 1.160 . S
O771 C770 1.306 . S
O771 Cd772 2.228 . S
Cd772 O771 2.228 . S
Cd772 O776 2.273 . S
Cd772 O780 2.277 . S
O773 C770 1.160 . S
O773 Cd774 2.203 . S
Cd774 O773 2.203 . S
Cd774 O776 2.411 . S
Cd774 O777 2.333 . S
Cd774 O778 2.352 . S
Cd774 O782 2.277 . S
Cd774 O783 2.356 . S
C775 O780 1.209 . S
C775 O782 1.226 . S
O776 Cd772 2.273 . S
O776 Cd774 2.411 . S
O776 C779 1.320 . S
O777 Cd774 2.333 . S
O777 C779 1.214 . S
O778 Cd774 2.352 . S
O778 C781 1.258 . S
C779 O776 1.320 . S
C779 O777 1.214 . S
O780 Cd772 2.277 . S
O780 C775 1.209 . S
C781 O778 1.258 . S
C781 O783 1.282 . S
O782 Cd774 2.277 . S
O782 C775 1.226 . S
O783 Cd774 2.356 . S
O783 C781 1.282 . S
C784 O785 1.306 . S
C784 O787 1.160 . S
O785 C784 1.306 . S
O785 Cd786 2.228 . S
Cd786 O785 2.228 . S
Cd786 O790 2.273 . S
Cd786 O794 2.277 . S
O787 C784 1.160 . S
O787 Cd788 2.203 . S
Cd788 O787 2.203 . S
Cd788 O790 2.411 . S
Cd788 O791 2.333 . S
Cd788 O792 2.352 . S
Cd788 O796 2.277 . S
Cd788 O797 2.356 . S
C789 O794 1.209 . S
C789 O796 1.226 . S
O790 Cd786 2.273 . S
O790 Cd788 2.411 . S
O790 C793 1.320 . S
O791 Cd788 2.333 . S
O791 C793 1.214 . S
O792 Cd788 2.352 . S
O792 C795 1.258 . S
C793 O790 1.320 . S
C793 O791 1.214 . S
O794 Cd786 2.277 . S
O794 C789 1.209 . S
C795 O792 1.258 . S
C795 O797 1.282 . S
O796 Cd788 2.277 . S
O796 C789 1.226 . S
O797 Cd788 2.356 . S
O797 C795 1.282 . S
C798 O799 1.306 . S
C798 O801 1.160 . S
O799 C798 1.306 . S
O799 Cd800 2.228 . S
Cd800 O799 2.228 . S
Cd800 O804 2.273 . S
Cd800 O808 2.277 . S
O801 C798 1.160 . S
O801 Cd802 2.203 . S
Cd802 O801 2.203 . S
Cd802 O804 2.411 . S
Cd802 O805 2.333 . S
Cd802 O806 2.352 . S
Cd802 O810 2.277 . S
Cd802 O811 2.356 . S
C803 O808 1.209 . S
C803 O810 1.226 . S
O804 Cd800 2.273 . S
O804 Cd802 2.411 . S
O804 C807 1.320 . S
O805 Cd802 2.333 . S
O805 C807 1.214 . S
O806 Cd802 2.352 . S
O806 C809 1.258 . S
C807 O804 1.320 . S
C807 O805 1.214 . S
O808 Cd800 2.277 . S
O808 C803 1.209 . S
C809 O806 1.258 . S
C809 O811 1.282 . S
O810 Cd802 2.277 . S
O810 C803 1.226 . S
O811 Cd802 2.356 . S
O811 C809 1.282 . S
C812 O813 1.306 . S
C812 O815 1.160 . S
O813 C812 1.306 . S
O813 Cd814 2.228 . S
Cd814 O813 2.228 . S
Cd814 O818 2.273 . S
Cd814 O822 2.277 . S
O815 C812 1.160 . S
O815 Cd816 2.203 . S
Cd816 O815 2.203 . S
Cd816 O818 2.411 . S
Cd816 O819 2.333 . S
Cd816 O820 2.352 . S
Cd816 O824 2.277 . S
Cd816 O825 2.356 . S
C817 O822 1.209 . S
C817 O824 1.226 . S
O818 Cd814 2.273 . S
O818 Cd816 2.411 . S
O818 C821 1.320 . S
O819 Cd816 2.333 . S
O819 C821 1.214 . S
O820 Cd816 2.352 . S
O820 C823 1.258 . S
C821 O818 1.320 . S
C821 O819 1.214 . S
O822 Cd814 2.277 . S
O822 C817 1.209 . S
C823 O820 1.258 . S
C823 O825 1.282 . S
O824 Cd816 2.277 . S
O824 C817 1.226 . S
O825 Cd816 2.356 . S
O825 C823 1.282 . S
C826 O827 1.306 . S
C826 O829 1.160 . S
O827 C826 1.306 . S
O827 Cd828 2.228 . S
Cd828 O827 2.228 . S
Cd828 O832 2.273 . S
Cd828 O836 2.277 . S
O829 C826 1.160 . S
O829 Cd830 2.203 . S
Cd830 O829 2.203 . S
Cd830 O832 2.411 . S
Cd830 O833 2.333 . S
Cd830 O834 2.352 . S
Cd830 O838 2.277 . S
Cd830 O839 2.356 . S
C831 O836 1.209 . S
C831 O838 1.226 . S
O832 Cd828 2.273 . S
O832 Cd830 2.411 . S
O832 C835 1.320 . S
O833 Cd830 2.333 . S
O833 C835 1.214 . S
O834 Cd830 2.352 . S
O834 C837 1.258 . S
C835 O832 1.320 . S
C835 O833 1.214 . S
O836 Cd828 2.277 . S
O836 C831 1.209 . S
C837 O834 1.258 . S
C837 O839 1.282 . S
O838 Cd830 2.277 . S
O838 C831 1.226 . S
O839 Cd830 2.356 . S
O839 C837 1.282 . S
C840 O841 1.306 . S
C840 O843 1.160 . S
O841 C840 1.306 . S
O841 Cd842 2.228 . S
Cd842 O841 2.228 . S
Cd842 O846 2.273 . S
Cd842 O850 2.277 . S
O843 C840 1.160 . S
O843 Cd844 2.203 . S
Cd844 O843 2.203 . S
Cd844 O846 2.411 . S
Cd844 O847 2.333 . S
Cd844 O848 2.352 . S
Cd844 O852 2.277 . S
Cd844 O853 2.356 . S
C845 O850 1.209 . S
C845 O852 1.226 . S
O846 Cd842 2.273 . S
O846 Cd844 2.411 . S
O846 C849 1.320 . S
O847 Cd844 2.333 . S
O847 C849 1.214 . S
O848 Cd844 2.352 . S
O848 C851 1.258 . S
C849 O846 1.320 . S
C849 O847 1.214 . S
O850 Cd842 2.277 . S
O850 C845 1.209 . S
C851 O848 1.258 . S
C851 O853 1.282 . S
O852 Cd844 2.277 . S
O852 C845 1.226 . S
O853 Cd844 2.356 . S
O853 C851 1.282 . S
C854 O855 1.306 . S
C854 O857 1.160 . S
O855 C854 1.306 . S
O855 Cd856 2.228 . S
Cd856 O855 2.228 . S
Cd856 O860 2.273 . S
Cd856 O864 2.277 . S
O857 C854 1.160 . S
O857 Cd858 2.203 . S
Cd858 O857 2.203 . S
Cd858 O860 2.411 . S
Cd858 O861 2.333 . S
Cd858 O862 2.352 . S
Cd858 O866 2.277 . S
Cd858 O867 2.356 . S
C859 O864 1.209 . S
C859 O866 1.226 . S
O860 Cd856 2.273 . S
O860 Cd858 2.411 . S
O860 C863 1.320 . S
O861 Cd858 2.333 . S
O861 C863 1.214 . S
O862 Cd858 2.352 . S
O862 C865 1.258 . S
C863 O860 1.320 . S
C863 O861 1.214 . S
O864 Cd856 2.277 . S
O864 C859 1.209 . S
C865 O862 1.258 . S
C865 O867 1.282 . S
O866 Cd858 2.277 . S
O866 C859 1.226 . S
O867 Cd858 2.356 . S
O867 C865 1.282 . S
C868 O869 1.306 . S
C868 O871 1.160 . S
O869 C868 1.306 . S
O869 Cd870 2.228 . S
Cd870 O869 2.228 . S
Cd870 O874 2.273 . S
Cd870 O878 2.277 . S
O871 C868 1.160 . S
O871 Cd872 2.203 . S
Cd872 O871 2.203 . S
Cd872 O874 2.411 . S
Cd872 O875 2.333 . S
Cd872 O876 2.352 . S
Cd872 O880 2.277 . S
Cd872 O881 2.356 . S
C873 O878 1.209 . S
C873 O880 1.226 . S
O874 Cd870 2.273 . S
O874 Cd872 2.411 . S
O874 C877 1.320 . S
O875 Cd872 2.333 . S
O875 C877 1.214 . S
O876 Cd872 2.352 . S
O876 C879 1.258 . S
C877 O874 1.320 . S
C877 O875 1.214 . S
O878 Cd870 2.277 . S
O878 C873 1.209 . S
C879 O876 1.258 . S
C879 O881 1.282 . S
O880 Cd872 2.277 . S
O880 C873 1.226 . S
O881 Cd872 2.356 . S
O881 C879 1.282 . S
C882 O883 1.306 . S
C882 O885 1.160 . S
O883 C882 1.306 . S
O883 Cd884 2.228 . S
Cd884 O883 2.228 . S
Cd884 O888 2.273 . S
Cd884 O892 2.277 . S
O885 C882 1.160 . S
O885 Cd886 2.203 . S
Cd886 O885 2.203 . S
Cd886 O888 2.411 . S
Cd886 O889 2.333 . S
Cd886 O890 2.352 . S
Cd886 O894 2.277 . S
Cd886 O895 2.356 . S
C887 O892 1.209 . S
C887 O894 1.226 . S
O888 Cd884 2.273 . S
O888 Cd886 2.411 . S
O888 C891 1.320 . S
O889 Cd886 2.333 . S
O889 C891 1.214 . S
O890 Cd886 2.352 . S
O890 C893 1.258 . S
C891 O888 1.320 . S
C891 O889 1.214 . S
O892 Cd884 2.277 . S
O892 C887 1.209 . S
C893 O890 1.258 . S
C893 O895 1.282 . S
O894 Cd886 2.277 . S
O894 C887 1.226 . S
O895 Cd886 2.356 . S
O895 C893 1.282 . S
C896 O897 1.306 . S
C896 O899 1.160 . S
O897 C896 1.306 . S
O897 Cd898 2.228 . S
Cd898 O897 2.228 . S
Cd898 O902 2.273 . S
Cd898 O906 2.277 . S
O899 C896 1.160 . S
O899 Cd900 2.203 . S
Cd900 O899 2.203 . S
Cd900 O902 2.411 . S
Cd900 O903 2.333 . S
Cd900 O904 2.352 . S
Cd900 O908 2.277 . S
Cd900 O909 2.356 . S
C901 O906 1.209 . S
C901 O908 1.226 . S
O902 Cd898 2.273 . S
O902 Cd900 2.411 . S
O902 C905 1.320 . S
O903 Cd900 2.333 . S
O903 C905 1.214 . S
O904 Cd900 2.352 . S
O904 C907 1.258 . S
C905 O902 1.320 . S
C905 O903 1.214 . S
O906 Cd898 2.277 . S
O906 C901 1.209 . S
C907 O904 1.258 . S
C907 O909 1.282 . S
O908 Cd900 2.277 . S
O908 C901 1.226 . S
O909 Cd900 2.356 . S
O909 C907 1.282 . S
C910 O911 1.306 . S
C910 O913 1.160 . S
O911 C910 1.306 . S
O911 Cd912 2.228 . S
Cd912 O911 2.228 . S
Cd912 O916 2.273 . S
Cd912 O920 2.277 . S
O913 C910 1.160 . S
O913 Cd914 2.203 . S
Cd914 O913 2.203 . S
Cd914 O916 2.411 . S
Cd914 O917 2.333 . S
Cd914 O918 2.352 . S
Cd914 O922 2.277 . S
Cd914 O923 2.356 . S
C915 O920 1.209 . S
C915 O922 1.226 . S
O916 Cd912 2.273 . S
O916 Cd914 2.411 . S
O916 C919 1.320 . S
O917 Cd914 2.333 . S
O917 C919 1.214 . S
O918 Cd914 2.352 . S
O918 C921 1.258 . S
C919 O916 1.320 . S
C919 O917 1.214 . S
O920 Cd912 2.277 . S
O920 C915 1.209 . S
C921 O918 1.258 . S
C921 O923 1.282 . S
O922 Cd914 2.277 . S
O922 C915 1.226 . S
O923 Cd914 2.356 . S
O923 C921 1.282 . S
C924 O925 1.306 . S
C924 O927 1.160 . S
O925 C924 1.306 . S
O925 Cd926 2.228 . S
Cd926 O925 2.228 . S
Cd926 O930 2.273 . S
Cd926 O934 2.277 . S
O927 C924 1.160 . S
O927 Cd928 2.203 . S
Cd928 O927 2.203 . S
Cd928 O930 2.411 . S
Cd928 O931 2.333 . S
Cd928 O932 2.352 . S
Cd928 O936 2.277 . S
Cd928 O937 2.356 . S
C929 O934 1.209 . S
C929 O936 1.226 . S
O930 Cd926 2.273 . S
O930 Cd928 2.411 . S
O930 C933 1.320 . S
O931 Cd928 2.333 . S
O931 C933 1.214 . S
O932 Cd928 2.352 . S
O932 C935 1.258 . S
C933 O930 1.320 . S
C933 O931 1.214 . S
O934 Cd926 2.277 . S
O934 C929 1.209 . S
C935 O932 1.258 . S
C935 O937 1.282 . S
O936 Cd928 2.277 . S
O936 C929 1.226 . S
O937 Cd928 2.356 . S
O937 C935 1.282 . S
C938 O939 1.306 . S
C938 O941 1.160 . S
O939 C938 1.306 . S
O939 Cd940 2.228 . S
Cd940 O939 2.228 . S
Cd940 O944 2.273 . S
Cd940 O948 2.277 . S
O941 C938 1.160 . S
O941 Cd942 2.203 . S
Cd942 O941 2.203 . S
Cd942 O944 2.411 . S
Cd942 O945 2.333 . S
Cd942 O946 2.352 . S
Cd942 O950 2.277 . S
Cd942 O951 2.356 . S
C943 O948 1.209 . S
C943 O950 1.226 . S
O944 Cd940 2.273 . S
O944 Cd942 2.411 . S
O944 C947 1.320 . S
O945 Cd942 2.333 . S
O945 C947 1.214 . S
O946 Cd942 2.352 . S
O946 C949 1.258 . S
C947 O944 1.320 . S
C947 O945 1.214 . S
O948 Cd940 2.277 . S
O948 C943 1.209 . S
C949 O946 1.258 . S
C949 O951 1.282 . S
O950 Cd942 2.277 . S
O950 C943 1.226 . S
O951 Cd942 2.356 . S
O951 C949 1.282 . S
C952 O953 1.306 . S
C952 O955 1.160 . S
O953 C952 1.306 . S
O953 Cd954 2.228 . S
Cd954 O953 2.228 . S
Cd954 O958 2.273 . S
Cd954 O962 2.277 . S
O955 C952 1.160 . S
O955 Cd956 2.203 . S
Cd956 O955 2.203 . S
Cd956 O958 2.411 . S
Cd956 O959 2.333 . S
Cd956 O960 2.352 . S
Cd956 O964 2.277 . S
Cd956 O965 2.356 . S
C957 O962 1.209 . S
C957 O964 1.226 . S
O958 Cd954 2.273 . S
O958 Cd956 2.411 . S
O958 C961 1.320 . S
O959 Cd956 2.333 . S
O959 C961 1.214 . S
O960 Cd956 2.352 . S
O960 C963 1.258 . S
C961 O958 1.320 . S
C961 O959 1.214 . S
O962 Cd954 2.277 . S
O962 C957 1.209 . S
C963 O960 1.258 . S
C963 O965 1.282 . S
O964 Cd956 2.277 . S
O964 C957 1.226 . S
O965 Cd956 2.356 . S
O965 C963 1.282 . S
C966 O967 1.306 . S
C966 O969 1.160 . S
O967 C966 1.306 . S
O967 Cd968 2.228 . S
Cd968 O967 2.228 . S
Cd968 O972 2.273 . S
Cd968 O976 2.277 . S
O969 C966 1.160 . S
O969 Cd970 2.203 . S
Cd970 O969 2.203 . S
Cd970 O972 2.411 . S
Cd970 O973 2.333 . S
Cd970 O974 2.352 . S
Cd970 O978 2.277 . S
Cd970 O979 2.356 . S
C971 O976 1.209 . S
C971 O978 1.226 . S
O972 Cd968 2.273 . S
O972 Cd970 2.411 . S
O972 C975 1.320 . S
O973 Cd970 2.333 . S
O973 C975 1.214 . S
O974 Cd970 2.352 . S
O974 C977 1.258 . S
C975 O972 1.320 . S
C975 O973 1.214 . S
O976 Cd968 2.277 . S
O976 C971 1.209 . S
C977 O974 1.258 . S
C977 O979 1.282 . S
O978 Cd970 2.277 . S
O978 C971 1.226 . S
O979 Cd970 2.356 . S
O979 C977 1.282 . S
C980 O981 1.306 . S
C980 O983 1.160 . S
O981 C980 1.306 . S
O981 Cd982 2.228 . S
Cd982 O981 2.228 . S
Cd982 O986 2.273 . S
Cd982 O990 2.277 . S
O983 C980 1.160 . S
O983 Cd984 2.203 . S
Cd984 O983 2.203 . S
Cd984 O986 2.411 . S
Cd984 O987 2.333 . S
Cd984 O988 2.352 . S
Cd984 O992 2.277 . S
Cd984 O993 2.356 . S
C985 O990 1.209 . S
C985 O992 1.226 . S
O986 Cd982 2.273 . S
O986 Cd984 2.411 . S
O986 C989 1.320 . S
O987 Cd984 2.333 . S
O987 C989 1.214 . S
O988 Cd984 2.352 . S
O988 C991 1.258 . S
C989 O986 1.320 . S
C989 O987 1.214 . S
O990 Cd982 2.277 . S
O990 C985 1.209 . S
C991 O988 1.258 . S
C991 O993 1.282 . S
O992 Cd984 2.277 . S
O992 C985 1.226 . S
O993 Cd984 2.356 . S
O993 C991 1.282 . S
C994 O995 1.306 . S
C994 O997 1.160 . S
O995 C994 1.306 . S
O995 Cd996 2.228 . S
Cd996 O995 2.228 . S
Cd996 O1000 2.273 . S
Cd996 O1004 2.277 . S
O997 C994 1.160 . S
O997 Cd998 2.203 . S
Cd998 O997 2.203 . S
Cd998 O1000 2.411 . S
Cd998 O1001 2.333 . S
Cd998 O1002 2.352 . S
Cd998 O1006 2.277 . S
Cd998 O1007 2.356 . S
C999 O1004 1.209 . S
C999 O1006 1.226 . S
O1000 Cd996 2.273 . S
O1000 Cd998 2.411 . S
O1000 C1003 1.320 . S
O1001 Cd998 2.333 . S
O1001 C1003 1.214 . S
O1002 Cd998 2.352 . S
O1002 C1005 1.258 . S
C1003 O1000 1.320 . S
C1003 O1001 1.214 . S
O1004 Cd996 2.277 . S
O1004 C999 1.209 . S
C1005 O1002 1.258 . S
C1005 O1007 1.282 . S
O1006 Cd998 2.277 . S
O1006 C999 1.226 . S
O1007 Cd998 2.356 . S
O1007 C1005 1.282 . S
C1008 O1009 1.306 . S
C1008 O1011 1.160 . S
O1009 C1008 1.306 . S
O1009 Cd1010 2.228 . S
Cd1010 O1009 2.228 . S
Cd1010 O1014 2.273 . S
Cd1010 O1018 2.277 . S
O1011 C1008 1.160 . S
O1011 Cd1012 2.203 . S
Cd1012 O1011 2.203 . S
Cd1012 O1014 2.411 . S
Cd1012 O1015 2.333 . S
Cd1012 O1016 2.352 . S
Cd1012 O1020 2.277 . S
Cd1012 O1021 2.356 . S
C1013 O1018 1.209 . S
C1013 O1020 1.226 . S
O1014 Cd1010 2.273 . S
O1014 Cd1012 2.411 . S
O1014 C1017 1.320 . S
O1015 Cd1012 2.333 . S
O1015 C1017 1.214 . S
O1016 Cd1012 2.352 . S
O1016 C1019 1.258 . S
C1017 O1014 1.320 . S
C1017 O1015 1.214 . S
O1018 Cd1010 2.277 . S
O1018 C1013 1.209 . S
C1019 O1016 1.258 . S
C1019 O1021 1.282 . S
O1020 Cd1012 2.277 . S
O1020 C1013 1.226 . S
O1021 Cd1012 2.356 . S
O1021 C1019 1.282 . S
C1022 O1023 1.306 . S
C1022 O1025 1.160 . S
O1023 C1022 1.306 . S
O1023 Cd1024 2.228 . S
Cd1024 O1023 2.228 . S
Cd1024 O1028 2.273 . S
Cd1024 O1032 2.277 . S
O1025 C1022 1.160 . S
O1025 Cd1026 2.203 . S
Cd1026 O1025 2.203 . S
Cd1026 O1028 2.411 . S
Cd1026 O1029 2.333 . S
Cd1026 O1030 2.352 . S
Cd1026 O1034 2.277 . S
Cd1026 O1035 2.356 . S
C1027 O1032 1.209 . S
C1027 O1034 1.226 . S
O1028 Cd1024 2.273 . S
O1028 Cd1026 2.411 . S
O1028 C1031 1.320 . S
O1029 Cd1026 2.333 . S
O1029 C1031 1.214 . S
O1030 Cd1026 2.352 . S
O1030 C1033 1.258 . S
C1031 O1028 1.320 . S
C1031 O1029 1.214 . S
O1032 Cd1024 2.277 . S
O1032 C1027 1.209 . S
C1033 O1030 1.258 . S
C1033 O1035 1.282 . S
O1034 Cd1026 2.277 . S
O1034 C1027 1.226 . S
O1035 Cd1026 2.356 . S
O1035 C1033 1.282 . S
C1036 O1037 1.306 . S
C1036 O1039 1.160 . S
O1037 C1036 1.306 . S
O1037 Cd1038 2.228 . S
Cd1038 O1037 2.228 . S
Cd1038 O1042 2.273 . S
Cd1038 O1046 2.277 . S
O1039 C1036 1.160 . S
O1039 Cd1040 2.203 . S
Cd1040 O1039 2.203 . S
Cd1040 O1042 2.411 . S
Cd1040 O1043 2.333 . S
Cd1040 O1044 2.352 . S
Cd1040 O1048 2.277 . S
Cd1040 O1049 2.356 . S
C1041 O1046 1.209 . S
C1041 O1048 1.226 . S
O1042 Cd1038 2.273 . S
O1042 Cd1040 2.411 . S
O1042 C1045 1.320 . S
O1043 Cd1040 2.333 . S
O1043 C1045 1.214 . S
O1044 Cd1040 2.352 . S
O1044 C1047 1.258 . S
C1045 O1042 1.320 . S
C1045 O1043 1.214 . S
O1046 Cd1038 2.277 . S
O1046 C1041 1.209 . S
C1047 O1044 1.258 . S
C1047 O1049 1.282 . S
O1048 Cd1040 2.277 . S
O1048 C1041 1.226 . S
O1049 Cd1040 2.356 . S
O1049 C1047 1.282 . S
C1050 O1051 1.306 . S
C1050 O1053 1.160 . S
O1051 C1050 1.306 . S
O1051 Cd1052 2.228 . S
Cd1052 O1051 2.228 . S
Cd1052 O1056 2.273 . S
Cd1052 O1060 2.277 . S
O1053 C1050 1.160 . S
O1053 Cd1054 2.203 . S
Cd1054 O1053 2.203 . S
Cd1054 O1056 2.411 . S
Cd1054 O1057 2.333 . S
Cd1054 O1058 2.352 . S
Cd1054 O1062 2.277 . S
Cd1054 O1063 2.356 . S
C1055 O1060 1.209 . S
C1055 O1062 1.226 . S
O1056 Cd1052 2.273 . S
O1056 Cd1054 2.411 . S
O1056 C1059 1.320 . S
O1057 Cd1054 2.333 . S
O1057 C1059 1.214 . S
O1058 Cd1054 2.352 . S
O1058 C1061 1.258 . S
C1059 O1056 1.320 . S
C1059 O1057 1.214 . S
O1060 Cd1052 2.277 . S
O1060 C1055 1.209 . S
C1061 O1058 1.258 . S
C1061 O1063 1.282 . S
O1062 Cd1054 2.277 . S
O1062 C1055 1.226 . S
O1063 Cd1054 2.356 . S
O1063 C1061 1.282 . S
C1064 O1065 1.306 . S
C1064 O1067 1.160 . S
O1065 C1064 1.306 . S
O1065 Cd1066 2.228 . S
Cd1066 O1065 2.228 . S
Cd1066 O1070 2.273 . S
Cd1066 O1074 2.277 . S
O1067 C1064 1.160 . S
O1067 Cd1068 2.203 . S
Cd1068 O1067 2.203 . S
Cd1068 O1070 2.411 . S
Cd1068 O1071 2.333 . S
Cd1068 O1072 2.352 . S
Cd1068 O1076 2.277 . S
Cd1068 O1077 2.356 . S
C1069 O1074 1.209 . S
C1069 O1076 1.226 . S
O1070 Cd1066 2.273 . S
O1070 Cd1068 2.411 . S
O1070 C1073 1.320 . S
O1071 Cd1068 2.333 . S
O1071 C1073 1.214 . S
O1072 Cd1068 2.352 . S
O1072 C1075 1.258 . S
C1073 O1070 1.320 . S
C1073 O1071 1.214 . S
O1074 Cd1066 2.277 . S
O1074 C1069 1.209 . S
C1075 O1072 1.258 . S
C1075 O1077 1.282 . S
O1076 Cd1068 2.277 . S
O1076 C1069 1.226 . S
O1077 Cd1068 2.356 . S
O1077 C1075 1.282 . S
C1078 O1079 1.306 . S
C1078 O1081 1.160 . S
O1079 C1078 1.306 . S
O1079 Cd1080 2.228 . S
Cd1080 O1079 2.228 . S
Cd1080 O1084 2.273 . S
Cd1080 O1088 2.277 . S
O1081 C1078 1.160 . S
O1081 Cd1082 2.203 . S
Cd1082 O1081 2.203 . S
Cd1082 O1084 2.411 . S
Cd1082 O1085 2.333 . S
Cd1082 O1086 2.352 . S
Cd1082 O1090 2.277 . S
Cd1082 O1091 2.356 . S
C1083 O1088 1.209 . S
C1083 O1090 1.226 . S
O1084 Cd1080 2.273 . S
O1084 Cd1082 2.411 . S
O1084 C1087 1.320 . S
O1085 Cd1082 2.333 . S
O1085 C1087 1.214 . S
O1086 Cd1082 2.352 . S
O1086 C1089 1.258 . S
C1087 O1084 1.320 . S
C1087 O1085 1.214 . S
O1088 Cd1080 2.277 . S
O1088 C1083 1.209 . S
C1089 O1086 1.258 . S
C1089 O1091 1.282 . S
O1090 Cd1082 2.277 . S
O1090 C1083 1.226 . S
O1091 Cd1082 2.356 . S
O1091 C1089 1.282 . S
C1092 O1093 1.306 . S
C1092 O1095 1.160 . S
O1093 C1092 1.306 . S
O1093 Cd1094 2.228 . S
Cd1094 O1093 2.228 . S
Cd1094 O1098 2.273 . S
Cd1094 O1102 2.277 . S
O1095 C1092 1.160 . S
O1095 Cd1096 2.203 . S
Cd1096 O1095 2.203 . S
Cd1096 O1098 2.411 . S
Cd1096 O1099 2.333 . S
Cd1096 O1100 2.352 . S
Cd1096 O1104 2.277 . S
Cd1096 O1105 2.356 . S
C1097 O1102 1.209 . S
C1097 O1104 1.226 . S
O1098 Cd1094 2.273 . S
O1098 Cd1096 2.411 . S
O1098 C1101 1.320 . S
O1099 Cd1096 2.333 . S
O1099 C1101 1.214 . S
O1100 Cd1096 2.352 . S
O1100 C1103 1.258 . S
C1101 O1098 1.320 . S
C1101 O1099 1.214 . S
O1102 Cd1094 2.277 . S
O1102 C1097 1.209 . S
C1103 O1100 1.258 . S
C1103 O1105 1.282 . S
O1104 Cd1096 2.277 . S
O1104 C1097 1.226 . S
O1105 Cd1096 2.356 . S
O1105 C1103 1.282 . S
C1106 O1107 1.306 . S
C1106 O1109 1.160 . S
O1107 C1106 1.306 . S
O1107 Cd1108 2.228 . S
Cd1108 O1107 2.228 . S
Cd1108 O1112 2.273 . S
Cd1108 O1116 2.277 . S
O1109 C1106 1.160 . S
O1109 Cd1110 2.203 . S
Cd1110 O1109 2.203 . S
Cd1110 O1112 2.411 . S
Cd1110 O1113 2.333 . S
Cd1110 O1114 2.352 . S
Cd1110 O1118 2.277 . S
Cd1110 O1119 2.356 . S
C1111 O1116 1.209 . S
C1111 O1118 1.226 . S
O1112 Cd1108 2.273 . S
O1112 Cd1110 2.411 . S
O1112 C1115 1.320 . S
O1113 Cd1110 2.333 . S
O1113 C1115 1.214 . S
O1114 Cd1110 2.352 . S
O1114 C1117 1.258 . S
C1115 O1112 1.320 . S
C1115 O1113 1.214 . S
O1116 Cd1108 2.277 . S
O1116 C1111 1.209 . S
C1117 O1114 1.258 . S
C1117 O1119 1.282 . S
O1118 Cd1110 2.277 . S
O1118 C1111 1.226 . S
O1119 Cd1110 2.356 . S
O1119 C1117 1.282 . S
C1120 O1121 1.306 . S
C1120 O1123 1.160 . S
O1121 C1120 1.306 . S
O1121 Cd1122 2.228 . S
Cd1122 O1121 2.228 . S
Cd1122 O1126 2.273 . S
Cd1122 O1130 2.277 . S
O1123 C1120 1.160 . S
O1123 Cd1124 2.203 . S
Cd1124 O1123 2.203 . S
Cd1124 O1126 2.411 . S
Cd1124 O1127 2.333 . S
Cd1124 O1128 2.352 . S
Cd1124 O1132 2.277 . S
Cd1124 O1133 2.356 . S
C1125 O1130 1.209 . S
C1125 O1132 1.226 . S
O1126 Cd1122 2.273 . S
O1126 Cd1124 2.411 . S
O1126 C1129 1.320 . S
O1127 Cd1124 2.333 . S
O1127 C1129 1.214 . S
O1128 Cd1124 2.352 . S
O1128 C1131 1.258 . S
C1129 O1126 1.320 . S
C1129 O1127 1.214 . S
O1130 Cd1122 2.277 . S
O1130 C1125 1.209 . S
C1131 O1128 1.258 . S
C1131 O1133 1.282 . S
O1132 Cd1124 2.277 . S
O1132 C1125 1.226 . S
O1133 Cd1124 2.356 . S
O1133 C1131 1.282 . S
C1134 O1135 1.306 . S
C1134 O1137 1.160 . S
O1135 C1134 1.306 . S
O1135 Cd1136 2.228 . S
Cd1136 O1135 2.228 . S
Cd1136 O1140 2.273 . S
Cd1136 O1144 2.277 . S
O1137 C1134 1.160 . S
O1137 Cd1138 2.203 . S
Cd1138 O1137 2.203 . S
Cd1138 O1140 2.411 . S
Cd1138 O1141 2.333 . S
Cd1138 O1142 2.352 . S
Cd1138 O1146 2.277 . S
Cd1138 O1147 2.356 . S
C1139 O1144 1.209 . S
C1139 O1146 1.226 . S
O1140 Cd1136 2.273 . S
O1140 Cd1138 2.411 . S
O1140 C1143 1.320 . S
O1141 Cd1138 2.333 . S
O1141 C1143 1.214 . S
O1142 Cd1138 2.352 . S
O1142 C1145 1.258 . S
C1143 O1140 1.320 . S
C1143 O1141 1.214 . S
O1144 Cd1136 2.277 . S
O1144 C1139 1.209 . S
C1145 O1142 1.258 . S
C1145 O1147 1.282 . S
O1146 Cd1138 2.277 . S
O1146 C1139 1.226 . S
O1147 Cd1138 2.356 . S
O1147 C1145 1.282 . S
C1148 O1149 1.306 . S
C1148 O1151 1.160 . S
O1149 C1148 1.306 . S
O1149 Cd1150 2.228 . S
Cd1150 O1149 2.228 . S
Cd1150 O1154 2.273 . S
Cd1150 O1158 2.277 . S
O1151 C1148 1.160 . S
O1151 Cd1152 2.203 . S
Cd1152 O1151 2.203 . S
Cd1152 O1154 2.411 . S
Cd1152 O1155 2.333 . S
Cd1152 O1156 2.352 . S
Cd1152 O1160 2.277 . S
Cd1152 O1161 2.356 . S
C1153 O1158 1.209 . S
C1153 O1160 1.226 . S
O1154 Cd1150 2.273 . S
O1154 Cd1152 2.411 . S
O1154 C1157 1.320 . S
O1155 Cd1152 2.333 . S
O1155 C1157 1.214 . S
O1156 Cd1152 2.352 . S
O1156 C1159 1.258 . S
C1157 O1154 1.320 . S
C1157 O1155 1.214 . S
O1158 Cd1150 2.277 . S
O1158 C1153 1.209 . S
C1159 O1156 1.258 . S
C1159 O1161 1.282 . S
O1160 Cd1152 2.277 . S
O1160 C1153 1.226 . S
O1161 Cd1152 2.356 . S
O1161 C1159 1.282 . S
C1162 O1163 1.306 . S
C1162 O1165 1.160 . S
O1163 C1162 1.306 . S
O1163 Cd1164 2.228 . S
Cd1164 O1163 2.228 . S
Cd1164 O1168 2.273 . S
Cd1164 O1172 2.277 . S
O1165 C1162 1.160 . S
O1165 Cd1166 2.203 . S
Cd1166 O1165 2.203 . S
Cd1166 O1168 2.411 . S
Cd1166 O1169 2.333 . S
Cd1166 O1170 2.352 . S
Cd1166 O1174 2.277 . S
Cd1166 O1175 2.356 . S
C1167 O1172 1.209 . S
C1167 O1174 1.226 . S
O1168 Cd1164 2.273 . S
O1168 Cd1166 2.411 . S
O1168 C1171 1.320 . S
O1169 Cd1166 2.333 . S
O1169 C1171 1.214 . S
O1170 Cd1166 2.352 . S
O1170 C1173 1.258 . S
C1171 O1168 1.320 . S
C1171 O1169 1.214 . S
O1172 Cd1164 2.277 . S
O1172 C1167 1.209 . S
C1173 O1170 1.258 . S
C1173 O1175 1.282 . S
O1174 Cd1166 2.277 . S
O1174 C1167 1.226 . S
O1175 Cd1166 2.356 . S
O1175 C1173 1.282 . S
C1176 O1177 1.306 . S
C1176 O1179 1.160 . S
O1177 C1176 1.306 . S
O1177 Cd1178 2.228 . S
Cd1178 O1177 2.228 . S
Cd1178 O1182 2.273 . S
Cd1178 O1186 2.277 . S
O1179 C1176 1.160 . S
O1179 Cd1180 2.203 . S
Cd1180 O1179 2.203 . S
Cd1180 O1182 2.411 . S
Cd1180 O1183 2.333 . S
Cd1180 O1184 2.352 . S
Cd1180 O1188 2.277 . S
Cd1180 O1189 2.356 . S
C1181 O1186 1.209 . S
C1181 O1188 1.226 . S
O1182 Cd1178 2.273 . S
O1182 Cd1180 2.411 . S
O1182 C1185 1.320 . S
O1183 Cd1180 2.333 . S
O1183 C1185 1.214 . S
O1184 Cd1180 2.352 . S
O1184 C1187 1.258 . S
C1185 O1182 1.320 . S
C1185 O1183 1.214 . S
O1186 Cd1178 2.277 . S
O1186 C1181 1.209 . S
C1187 O1184 1.258 . S
C1187 O1189 1.282 . S
O1188 Cd1180 2.277 . S
O1188 C1181 1.226 . S
O1189 Cd1180 2.356 . S
O1189 C1187 1.282 . S
C1190 O1191 1.306 . S
C1190 O1193 1.160 . S
O1191 C1190 1.306 . S
O1191 Cd1192 2.228 . S
Cd1192 O1191 2.228 . S
Cd1192 O1196 2.273 . S
Cd1192 O1200 2.277 . S
O1193 C1190 1.160 . S
O1193 Cd1194 2.203 . S
Cd1194 O1193 2.203 . S
Cd1194 O1196 2.411 . S
Cd1194 O1197 2.333 . S
Cd1194 O1198 2.352 . S
Cd1194 O1202 2.277 . S
Cd1194 O1203 2.356 . S
C1195 O1200 1.209 . S
C1195 O1202 1.226 . S
O1196 Cd1192 2.273 . S
O1196 Cd1194 2.411 . S
O1196 C1199 1.320 . S
O1197 Cd1194 2.333 . S
O1197 C1199 1.214 . S
O1198 Cd1194 2.352 . S
O1198 C1201 1.258 . S
C1199 O1196 1.320 . S
C1199 O1197 1.214 . S
O1200 Cd1192 2.277 . S
O1200 C1195 1.209 . S
C1201 O1198 1.258 . S
C1201 O1203 1.282 . S
O1202 Cd1194 2.277 . S
O1202 C1195 1.226 . S
O1203 Cd1194 2.356 . S
O1203 C1201 1.282 . S
C1204 O1205 1.306 . S
C1204 O1207 1.160 . S
O1205 C1204 1.306 . S
O1205 Cd1206 2.228 . S
Cd1206 O1205 2.228 . S
Cd1206 O1210 2.273 . S
Cd1206 O1214 2.277 . S
O1207 C1204 1.160 . S
O1207 Cd1208 2.203 . S
Cd1208 O1207 2.203 . S
Cd1208 O1210 2.411 . S
Cd1208 O1211 2.333 . S
Cd1208 O1212 2.352 . S
Cd1208 O1216 2.277 . S
Cd1208 O1217 2.356 . S
C1209 O1214 1.209 . S
C1209 O1216 1.226 . S
O1210 Cd1206 2.273 . S
O1210 Cd1208 2.411 . S
O1210 C1213 1.320 . S
O1211 Cd1208 2.333 . S
O1211 C1213 1.214 . S
O1212 Cd1208 2.352 . S
O1212 C1215 1.258 . S
C1213 O1210 1.320 . S
C1213 O1211 1.214 . S
O1214 Cd1206 2.277 . S
O1214 C1209 1.209 . S
C1215 O1212 1.258 . S
C1215 O1217 1.282 . S
O1216 Cd1208 2.277 . S
O1216 C1209 1.226 . S
O1217 Cd1208 2.356 . S
O1217 C1215 1.282 . S
C1218 O1219 1.306 . S
C1218 O1221 1.160 . S
O1219 C1218 1.306 . S
O1219 Cd1220 2.228 . S
Cd1220 O1219 2.228 . S
Cd1220 O1224 2.273 . S
Cd1220 O1228 2.277 . S
O1221 C1218 1.160 . S
O1221 Cd1222 2.203 . S
Cd1222 O1221 2.203 . S
Cd1222 O1224 2.411 . S
Cd1222 O1225 2.333 . S
Cd1222 O1226 2.352 . S
Cd1222 O1230 2.277 . S
Cd1222 O1231 2.356 . S
C1223 O1228 1.209 . S
C1223 O1230 1.226 . S
O1224 Cd1220 2.273 . S
O1224 Cd1222 2.411 . S
O1224 C1227 1.320 . S
O1225 Cd1222 2.333 . S
O1225 C1227 1.214 . S
O1226 Cd1222 2.352 . S
O1226 C1229 1.258 . S
C1227 O1224 1.320 . S
C1227 O1225 1.214 . S
O1228 Cd1220 2.277 . S
O1228 C1223 1.209 . S
C1229 O1226 1.258 . S
C1229 O1231 1.282 . S
O1230 Cd1222 2.277 . S
O1230 C1223 1.226 . S
O1231 Cd1222 2.356 . S
O1231 C1229 1.282 . S
C1232 O1233 1.306 . S
C1232 O1235 1.160 . S
O1233 C1232 1.306 . S
O1233 Cd1234 2.228 . S
Cd1234 O1233 2.228 . S
Cd1234 O1238 2.273 . S
Cd1234 O1242 2.277 . S
O1235 C1232 1.160 . S
O1235 Cd1236 2.203 . S
Cd1236 O1235 2.203 . S
Cd1236 O1238 2.411 . S
Cd1236 O1239 2.333 . S
Cd1236 O1240 2.352 . S
Cd1236 O1244 2.277 . S
Cd1236 O1245 2.356 . S
C1237 O1242 1.209 . S
C1237 O1244 1.226 . S
O1238 Cd1234 2.273 . S
O1238 Cd1236 2.411 . S
O1238 C1241 1.320 . S
O1239 Cd1236 2.333 . S
O1239 C1241 1.214 . S
O1240 Cd1236 2.352 . S
O1240 C1243 1.258 . S
C1241 O1238 1.320 . S
C1241 O1239 1.214 . S
O1242 Cd1234 2.277 . S
O1242 C1237 1.209 . S
C1243 O1240 1.258 . S
C1243 O1245 1.282 . S
O1244 Cd1236 2.277 . S
O1244 C1237 1.226 . S
O1245 Cd1236 2.356 . S
O1245 C1243 1.282 . S
C1246 O1247 1.306 . S
C1246 O1249 1.160 . S
O1247 C1246 1.306 . S
O1247 Cd1248 2.228 . S
Cd1248 O1247 2.228 . S
Cd1248 O1252 2.273 . S
Cd1248 O1256 2.277 . S
O1249 C1246 1.160 . S
O1249 Cd1250 2.203 . S
Cd1250 O1249 2.203 . S
Cd1250 O1252 2.411 . S
Cd1250 O1253 2.333 . S
Cd1250 O1254 2.352 . S
Cd1250 O1258 2.277 . S
Cd1250 O1259 2.356 . S
C1251 O1256 1.209 . S
C1251 O1258 1.226 . S
O1252 Cd1248 2.273 . S
O1252 Cd1250 2.411 . S
O1252 C1255 1.320 . S
O1253 Cd1250 2.333 . S
O1253 C1255 1.214 . S
O1254 Cd1250 2.352 . S
O1254 C1257 1.258 . S
C1255 O1252 1.320 . S
C1255 O1253 1.214 . S
O1256 Cd1248 2.277 . S
O1256 C1251 1.209 . S
C1257 O1254 1.258 . S
C1257 O1259 1.282 . S
O1258 Cd1250 2.277 . S
O1258 C1251 1.226 . S
O1259 Cd1250 2.356 . S
O1259 C1257 1.282 . S
C1260 O1261 1.306 . S
C1260 O1263 1.160 . S
O1261 C1260 1.306 . S
O1261 Cd1262 2.228 . S
Cd1262 O1261 2.228 . S
Cd1262 O1266 2.273 . S
Cd1262 O1270 2.277 . S
O1263 C1260 1.160 . S
O1263 Cd1264 2.203 . S
Cd1264 O1263 2.203 . S
Cd1264 O1266 2.411 . S
Cd1264 O1267 2.333 . S
Cd1264 O1268 2.352 . S
Cd1264 O1272 2.277 . S
Cd1264 O1273 2.356 . S
C1265 O1270 1.209 . S
C1265 O1272 1.226 . S
O1266 Cd1262 2.273 . S
O1266 Cd1264 2.411 . S
O1266 C1269 1.320 . S
O1267 Cd1264 2.333 . S
O1267 C1269 1.214 . S
O1268 Cd1264 2.352 . S
O1268 C1271 1.258 . S
C1269 O1266 1.320 . S
C1269 O1267 1.214 . S
O1270 Cd1262 2.277 . S
O1270 C1265 1.209 . S
C1271 O1268 1.258 . S
C1271 O1273 1.282 . S
O1272 Cd1264 2.277 . S
O1272 C1265 1.226 . S
O1273 Cd1264 2.356 . S
O1273 C1271 1.282 . S
C1274 O1275 1.306 . S
C1274 O1277 1.160 . S
O1275 C1274 1.306 . S
O1275 Cd1276 2.228 . S
Cd1276 O1275 2.228 . S
Cd1276 O1280 2.273 . S
Cd1276 O1284 2.277 . S
O1277 C1274 1.160 . S
O1277 Cd1278 2.203 . S
Cd1278 O1277 2.203 . S
Cd1278 O1280 2.411 . S
Cd1278 O1281 2.333 . S
Cd1278 O1282 2.352 . S
Cd1278 O1286 2.277 . S
Cd1278 O1287 2.356 . S
C1279 O1284 1.209 . S
C1279 O1286 1.226 . S
O1280 Cd1276 2.273 . S
O1280 Cd1278 2.411 . S
O1280 C1283 1.320 . S
O1281 Cd1278 2.333 . S
O1281 C1283 1.214 . S
O1282 Cd1278 2.352 . S
O1282 C1285 1.258 . S
C1283 O1280 1.320 . S
C1283 O1281 1.214 . S
O1284 Cd1276 2.277 . S
O1284 C1279 1.209 . S
C1285 O1282 1.258 . S
C1285 O1287 1.282 . S
O1286 Cd1278 2.277 . S
O1286 C1279 1.226 . S
O1287 Cd1278 2.356 . S
O1287 C1285 1.282 . S
C1288 O1289 1.306 . S
C1288 O1291 1.160 . S
O1289 C1288 1.306 . S
O1289 Cd1290 2.228 . S
Cd1290 O1289 2.228 . S
Cd1290 O1294 2.273 . S
Cd1290 O1298 2.277 . S
O1291 C1288 1.160 . S
O1291 Cd1292 2.203 . S
Cd1292 O1291 2.203 . S
Cd1292 O1294 2.411 . S
Cd1292 O1295 2.333 . S
Cd1292 O1296 2.352 . S
Cd1292 O1300 2.277 . S
Cd1292 O1301 2.356 . S
C1293 O1298 1.209 . S
C1293 O1300 1.226 . S
O1294 Cd1290 2.273 . S
O1294 Cd1292 2.411 . S
O1294 C1297 1.320 . S
O1295 Cd1292 2.333 . S
O1295 C1297 1.214 . S
O1296 Cd1292 2.352 . S
O1296 C1299 1.258 . S
C1297 O1294 1.320 . S
C1297 O1295 1.214 . S
O1298 Cd1290 2.277 . S
O1298 C1293 1.209 . S
C1299 O1296 1.258 . S
C1299 O1301 1.282 . S
O1300 Cd1292 2.277 . S
O1300 C1293 1.226 . S
O1301 Cd1292 2.356 . S
O1301 C1299 1.282 . S
C1302 O1303 1.306 . S
C1302 O1305 1.160 . S
O1303 C1302 1.306 . S
O1303 Cd1304 2.228 . S
Cd1304 O1303 2.228 . S
Cd1304 O1308 2.273 . S
Cd1304 O1312 2.277 . S
O1305 C1302 1.160 . S
O1305 Cd1306 2.203 . S
Cd1306 O1305 2.203 . S
Cd1306 O1308 2.411 . S
Cd1306 O1309 2.333 . S
Cd1306 O1310 2.352 . S
Cd1306 O1314 2.277 . S
Cd1306 O1315 2.356 . S
C1307 O1312 1.209 . S
C1307 O1314 1.226 . S
O1308 Cd1304 2.273 . S
O1308 Cd1306 2.411 . S
O1308 C1311 1.320 . S
O1309 Cd1306 2.333 . S
O1309 C1311 1.214 . S
O1310 Cd1306 2.352 . S
O1310 C1313 1.258 . S
C1311 O1308 1.320 . S
C1311 O1309 1.214 . S
O1312 Cd1304 2.277 . S
O1312 C1307 1.209 . S
C1313 O1310 1.258 . S
C1313 O1315 1.282 . S
O1314 Cd1306 2.277 . S
O1314 C1307 1.226 . S
O1315 Cd1306 2.356 . S
O1315 C1313 1.282 . S
C1316 O1317 1.306 . S
C1316 O1319 1.160 . S
O1317 C1316 1.306 . S
O1317 Cd1318 2.228 . S
Cd1318 O1317 2.228 . S
Cd1318 O1322 2.273 . S
Cd1318 O1326 2.277 . S
O1319 C1316 1.160 . S
O1319 Cd1320 2.203 . S
Cd1320 O1319 2.203 . S
Cd1320 O1322 2.411 . S
Cd1320 O1323 2.333 . S
Cd1320 O1324 2.352 . S
Cd1320 O1328 2.277 . S
Cd1320 O1329 2.356 . S
C1321 O1326 1.209 . S
C1321 O1328 1.226 . S
O1322 Cd1318 2.273 . S
O1322 Cd1320 2.411 . S
O1322 C1325 1.320 . S
O1323 Cd1320 2.333 . S
O1323 C1325 1.214 . S
O1324 Cd1320 2.352 . S
O1324 C1327 1.258 . S
C1325 O1322 1.320 . S
C1325 O1323 1.214 . S
O1326 Cd1318 2.277 . S
O1326 C1321 1.209 . S
C1327 O1324 1.258 . S
C1327 O1329 1.282 . S
O1328 Cd1320 2.277 . S
O1328 C1321 1.226 . S
O1329 Cd1320 2.356 . S
O1329 C1327 1.282 . S
C1330 O1331 1.306 . S
C1330 O1333 1.160 . S
O1331 C1330 1.306 . S
O1331 Cd1332 2.228 . S
Cd1332 O1331 2.228 . S
Cd1332 O1336 2.273 . S
Cd1332 O1340 2.277 . S
O1333 C1330 1.160 . S
O1333 Cd1334 2.203 . S
Cd1334 O1333 2.203 . S
Cd1334 O1336 2.411 . S
Cd1334 O1337 2.333 . S
Cd1334 O1338 2.352 . S
Cd1334 O1342 2.277 . S
Cd1334 O1343 2.356 . S
C1335 O1340 1.209 . S
C1335 O1342 1.226 . S
O1336 Cd1332 2.273 . S
O1336 Cd1334 2.411 . S
O1336 C1339 1.320 . S
O1337 Cd1334 2.333 . S
O1337 C1339 1.214 . S
O1338 Cd1334 2.352 . S
O1338 C1341 1.258 . S
C1339 O1336 1.320 . S
C1339 O1337 1.214 . S
O1340 Cd1332 2.277 . S
O1340 C1335 1.209 . S
C1341 O1338 1.258 . S
C1341 O1343 1.282 . S
O1342 Cd1334 2.277 . S
O1342 C1335 1.226 . S
O1343 Cd1334 2.356 . S
O1343 C1341 1.282 . S
C1344 C1345 1.369 . S
C1344 C1346 1.419 . S
C1344 H1348 0.930 . S
C1345 C1344 1.369 . S
C1345 C1354 1.429 . S
C1346 C1344 1.419 . S
C1346 C1347 1.363 . S
C1346 H1349 0.929 . S
C1347 C1346 1.363 . S
C1347 C1353 1.428 . S
H1348 C1344 0.930 . S
H1349 C1346 0.929 . S
S1350 N1351 1.613 . S
S1350 N1352 1.610 . S
N1351 S1350 1.613 . S
N1351 C1354 1.350 . S
N1352 S1350 1.610 . S
N1352 C1353 1.351 . S
C1353 C1347 1.428 . S
C1353 N1352 1.351 . S
C1353 C1354 1.434 . S
C1354 C1345 1.429 . S
C1354 N1351 1.350 . S
C1354 C1353 1.434 . S
C1355 C1356 1.369 . S
C1355 C1357 1.419 . S
C1355 H1359 0.930 . S
C1356 C1355 1.369 . S
C1356 C1365 1.429 . S
C1357 C1355 1.419 . S
C1357 C1358 1.363 . S
C1357 H1360 0.929 . S
C1358 C1357 1.363 . S
C1358 C1364 1.428 . S
H1359 C1355 0.930 . S
H1360 C1357 0.929 . S
S1361 N1362 1.613 . S
S1361 N1363 1.610 . S
N1362 S1361 1.613 . S
N1362 C1365 1.350 . S
N1363 S1361 1.610 . S
N1363 C1364 1.351 . S
C1364 C1358 1.428 . S
C1364 N1363 1.351 . S
C1364 C1365 1.434 . S
C1365 C1356 1.429 . S
C1365 N1362 1.350 . S
C1365 C1364 1.434 . S
C1366 C1367 1.369 . S
C1366 C1368 1.419 . S
C1366 H1370 0.930 . S
C1367 C1366 1.369 . S
C1367 C1376 1.429 . S
C1368 C1366 1.419 . S
C1368 C1369 1.363 . S
C1368 H1371 0.929 . S
C1369 C1368 1.363 . S
C1369 C1375 1.428 . S
H1370 C1366 0.930 . S
H1371 C1368 0.929 . S
S1372 N1373 1.613 . S
S1372 N1374 1.610 . S
N1373 S1372 1.613 . S
N1373 C1376 1.350 . S
N1374 S1372 1.610 . S
N1374 C1375 1.351 . S
C1375 C1369 1.428 . S
C1375 N1374 1.351 . S
C1375 C1376 1.434 . S
C1376 C1367 1.429 . S
C1376 N1373 1.350 . S
C1376 C1375 1.434 . S
C1377 C1378 1.369 . S
C1377 C1379 1.419 . S
C1377 H1381 0.930 . S
C1378 C1377 1.369 . S
C1378 C1387 1.429 . S
C1379 C1377 1.419 . S
C1379 C1380 1.363 . S
C1379 H1382 0.929 . S
C1380 C1379 1.363 . S
C1380 C1386 1.428 . S
H1381 C1377 0.930 . S
H1382 C1379 0.929 . S
S1383 N1384 1.613 . S
S1383 N1385 1.610 . S
N1384 S1383 1.613 . S
N1384 C1387 1.350 . S
N1385 S1383 1.610 . S
N1385 C1386 1.351 . S
C1386 C1380 1.428 . S
C1386 N1385 1.351 . S
C1386 C1387 1.434 . S
C1387 C1378 1.429 . S
C1387 N1384 1.350 . S
C1387 C1386 1.434 . S
C1388 C1389 1.369 . S
C1388 C1390 1.419 . S
C1388 H1392 0.930 . S
C1389 C1388 1.369 . S
C1389 C1398 1.429 . S
C1390 C1388 1.419 . S
C1390 C1391 1.363 . S
C1390 H1393 0.929 . S
C1391 C1390 1.363 . S
C1391 C1397 1.428 . S
H1392 C1388 0.930 . S
H1393 C1390 0.929 . S
S1394 N1395 1.613 . S
S1394 N1396 1.610 . S
N1395 S1394 1.613 . S
N1395 C1398 1.350 . S
N1396 S1394 1.610 . S
N1396 C1397 1.351 . S
C1397 C1391 1.428 . S
C1397 N1396 1.351 . S
C1397 C1398 1.434 . S
C1398 C1389 1.429 . S
C1398 N1395 1.350 . S
C1398 C1397 1.434 . S
C1399 C1400 1.369 . S
C1399 C1401 1.419 . S
C1399 H1403 0.930 . S
C1400 C1399 1.369 . S
C1400 C1409 1.429 . S
C1401 C1399 1.419 . S
C1401 C1402 1.363 . S
C1401 H1404 0.929 . S
C1402 C1401 1.363 . S
C1402 C1408 1.428 . S
H1403 C1399 0.930 . S
H1404 C1401 0.929 . S
S1405 N1406 1.613 . S
S1405 N1407 1.610 . S
N1406 S1405 1.613 . S
N1406 C1409 1.350 . S
N1407 S1405 1.610 . S
N1407 C1408 1.351 . S
C1408 C1402 1.428 . S
C1408 N1407 1.351 . S
C1408 C1409 1.434 . S
C1409 C1400 1.429 . S
C1409 N1406 1.350 . S
C1409 C1408 1.434 . S
C1410 C1411 1.369 . S
C1410 C1412 1.419 . S
C1410 H1414 0.930 . S
C1411 C1410 1.369 . S
C1411 C1420 1.429 . S
C1412 C1410 1.419 . S
C1412 C1413 1.363 . S
C1412 H1415 0.929 . S
C1413 C1412 1.363 . S
C1413 C1419 1.428 . S
H1414 C1410 0.930 . S
H1415 C1412 0.929 . S
S1416 N1417 1.613 . S
S1416 N1418 1.610 . S
N1417 S1416 1.613 . S
N1417 C1420 1.350 . S
N1418 S1416 1.610 . S
N1418 C1419 1.351 . S
C1419 C1413 1.428 . S
C1419 N1418 1.351 . S
C1419 C1420 1.434 . S
C1420 C1411 1.429 . S
C1420 N1417 1.350 . S
C1420 C1419 1.434 . S
C1421 C1422 1.369 . S
C1421 C1423 1.419 . S
C1421 H1425 0.930 . S
C1422 C1421 1.369 . S
C1422 C1431 1.429 . S
C1423 C1421 1.419 . S
C1423 C1424 1.363 . S
C1423 H1426 0.929 . S
C1424 C1423 1.363 . S
C1424 C1430 1.428 . S
H1425 C1421 0.930 . S
H1426 C1423 0.929 . S
S1427 N1428 1.613 . S
S1427 N1429 1.610 . S
N1428 S1427 1.613 . S
N1428 C1431 1.350 . S
N1429 S1427 1.610 . S
N1429 C1430 1.351 . S
C1430 C1424 1.428 . S
C1430 N1429 1.351 . S
C1430 C1431 1.434 . S
C1431 C1422 1.429 . S
C1431 N1428 1.350 . S
C1431 C1430 1.434 . S
C1432 C1433 1.369 . S
C1432 C1434 1.419 . S
C1432 H1436 0.930 . S
C1433 C1432 1.369 . S
C1433 C1442 1.429 . S
C1434 C1432 1.419 . S
C1434 C1435 1.363 . S
C1434 H1437 0.929 . S
C1435 C1434 1.363 . S
C1435 C1441 1.428 . S
H1436 C1432 0.930 . S
H1437 C1434 0.929 . S
S1438 N1439 1.613 . S
S1438 N1440 1.610 . S
N1439 S1438 1.613 . S
N1439 C1442 1.350 . S
N1440 S1438 1.610 . S
N1440 C1441 1.351 . S
C1441 C1435 1.428 . S
C1441 N1440 1.351 . S
C1441 C1442 1.434 . S
C1442 C1433 1.429 . S
C1442 N1439 1.350 . S
C1442 C1441 1.434 . S
C1443 C1444 1.369 . S
C1443 C1445 1.419 . S
C1443 H1447 0.930 . S
C1444 C1443 1.369 . S
C1444 C1453 1.429 . S
C1445 C1443 1.419 . S
C1445 C1446 1.363 . S
C1445 H1448 0.929 . S
C1446 C1445 1.363 . S
C1446 C1452 1.428 . S
H1447 C1443 0.930 . S
H1448 C1445 0.929 . S
S1449 N1450 1.613 . S
S1449 N1451 1.610 . S
N1450 S1449 1.613 . S
N1450 C1453 1.350 . S
N1451 S1449 1.610 . S
N1451 C1452 1.351 . S
C1452 C1446 1.428 . S
C1452 N1451 1.351 . S
C1452 C1453 1.434 . S
C1453 C1444 1.429 . S
C1453 N1450 1.350 . S
C1453 C1452 1.434 . S
C1454 C1455 1.369 . S
C1454 C1456 1.419 . S
C1454 H1458 0.930 . S
C1455 C1454 1.369 . S
C1455 C1464 1.429 . S
C1456 C1454 1.419 . S
C1456 C1457 1.363 . S
C1456 H1459 0.929 . S
C1457 C1456 1.363 . S
C1457 C1463 1.428 . S
H1458 C1454 0.930 . S
H1459 C1456 0.929 . S
S1460 N1461 1.613 . S
S1460 N1462 1.610 . S
N1461 S1460 1.613 . S
N1461 C1464 1.350 . S
N1462 S1460 1.610 . S
N1462 C1463 1.351 . S
C1463 C1457 1.428 . S
C1463 N1462 1.351 . S
C1463 C1464 1.434 . S
C1464 C1455 1.429 . S
C1464 N1461 1.350 . S
C1464 C1463 1.434 . S
C1465 C1466 1.369 . S
C1465 C1467 1.419 . S
C1465 H1469 0.930 . S
C1466 C1465 1.369 . S
C1466 C1475 1.429 . S
C1467 C1465 1.419 . S
C1467 C1468 1.363 . S
C1467 H1470 0.929 . S
C1468 C1467 1.363 . S
C1468 C1474 1.428 . S
H1469 C1465 0.930 . S
H1470 C1467 0.929 . S
S1471 N1472 1.613 . S
S1471 N1473 1.610 . S
N1472 S1471 1.613 . S
N1472 C1475 1.350 . S
N1473 S1471 1.610 . S
N1473 C1474 1.351 . S
C1474 C1468 1.428 . S
C1474 N1473 1.351 . S
C1474 C1475 1.434 . S
C1475 C1466 1.429 . S
C1475 N1472 1.350 . S
C1475 C1474 1.434 . S
C1476 C1477 1.369 . S
C1476 C1478 1.419 . S
C1476 H1480 0.930 . S
C1477 C1476 1.369 . S
C1477 C1486 1.429 . S
C1478 C1476 1.419 . S
C1478 C1479 1.363 . S
C1478 H1481 0.929 . S
C1479 C1478 1.363 . S
C1479 C1485 1.428 . S
H1480 C1476 0.930 . S
H1481 C1478 0.929 . S
S1482 N1483 1.613 . S
S1482 N1484 1.610 . S
N1483 S1482 1.613 . S
N1483 C1486 1.350 . S
N1484 S1482 1.610 . S
N1484 C1485 1.351 . S
C1485 C1479 1.428 . S
C1485 N1484 1.351 . S
C1485 C1486 1.434 . S
C1486 C1477 1.429 . S
C1486 N1483 1.350 . S
C1486 C1485 1.434 . S
C1487 C1488 1.369 . S
C1487 C1489 1.419 . S
C1487 H1491 0.930 . S
C1488 C1487 1.369 . S
C1488 C1497 1.429 . S
C1489 C1487 1.419 . S
C1489 C1490 1.363 . S
C1489 H1492 0.929 . S
C1490 C1489 1.363 . S
C1490 C1496 1.428 . S
H1491 C1487 0.930 . S
H1492 C1489 0.929 . S
S1493 N1494 1.613 . S
S1493 N1495 1.610 . S
N1494 S1493 1.613 . S
N1494 C1497 1.350 . S
N1495 S1493 1.610 . S
N1495 C1496 1.351 . S
C1496 C1490 1.428 . S
C1496 N1495 1.351 . S
C1496 C1497 1.434 . S
C1497 C1488 1.429 . S
C1497 N1494 1.350 . S
C1497 C1496 1.434 . S
C1498 C1499 1.369 . S
C1498 C1500 1.419 . S
C1498 H1502 0.930 . S
C1499 C1498 1.369 . S
C1499 C1508 1.429 . S
C1500 C1498 1.419 . S
C1500 C1501 1.363 . S
C1500 H1503 0.929 . S
C1501 C1500 1.363 . S
C1501 C1507 1.428 . S
H1502 C1498 0.930 . S
H1503 C1500 0.929 . S
S1504 N1505 1.613 . S
S1504 N1506 1.610 . S
N1505 S1504 1.613 . S
N1505 C1508 1.350 . S
N1506 S1504 1.610 . S
N1506 C1507 1.351 . S
C1507 C1501 1.428 . S
C1507 N1506 1.351 . S
C1507 C1508 1.434 . S
C1508 C1499 1.429 . S
C1508 N1505 1.350 . S
C1508 C1507 1.434 . S
C1509 C1510 1.369 . S
C1509 C1511 1.419 . S
C1509 H1513 0.930 . S
C1510 C1509 1.369 . S
C1510 C1519 1.429 . S
C1511 C1509 1.419 . S
C1511 C1512 1.363 . S
C1511 H1514 0.929 . S
C1512 C1511 1.363 . S
C1512 C1518 1.428 . S
H1513 C1509 0.930 . S
H1514 C1511 0.929 . S
S1515 N1516 1.613 . S
S1515 N1517 1.610 . S
N1516 S1515 1.613 . S
N1516 C1519 1.350 . S
N1517 S1515 1.610 . S
N1517 C1518 1.351 . S
C1518 C1512 1.428 . S
C1518 N1517 1.351 . S
C1518 C1519 1.434 . S
C1519 C1510 1.429 . S
C1519 N1516 1.350 . S
C1519 C1518 1.434 . S
C1520 C1521 1.369 . S
C1520 C1522 1.419 . S
C1520 H1524 0.930 . S
C1521 C1520 1.369 . S
C1521 C1530 1.429 . S
C1522 C1520 1.419 . S
C1522 C1523 1.363 . S
C1522 H1525 0.929 . S
C1523 C1522 1.363 . S
C1523 C1529 1.428 . S
H1524 C1520 0.930 . S
H1525 C1522 0.929 . S
S1526 N1527 1.613 . S
S1526 N1528 1.610 . S
N1527 S1526 1.613 . S
N1527 C1530 1.350 . S
N1528 S1526 1.610 . S
N1528 C1529 1.351 . S
C1529 C1523 1.428 . S
C1529 N1528 1.351 . S
C1529 C1530 1.434 . S
C1530 C1521 1.429 . S
C1530 N1527 1.350 . S
C1530 C1529 1.434 . S
C1531 C1532 1.369 . S
C1531 C1533 1.419 . S
C1531 H1535 0.930 . S
C1532 C1531 1.369 . S
C1532 C1541 1.429 . S
C1533 C1531 1.419 . S
C1533 C1534 1.363 . S
C1533 H1536 0.929 . S
C1534 C1533 1.363 . S
C1534 C1540 1.428 . S
H1535 C1531 0.930 . S
H1536 C1533 0.929 . S
S1537 N1538 1.613 . S
S1537 N1539 1.610 . S
N1538 S1537 1.613 . S
N1538 C1541 1.350 . S
N1539 S1537 1.610 . S
N1539 C1540 1.351 . S
C1540 C1534 1.428 . S
C1540 N1539 1.351 . S
C1540 C1541 1.434 . S
C1541 C1532 1.429 . S
C1541 N1538 1.350 . S
C1541 C1540 1.434 . S
C1542 C1543 1.369 . S
C1542 C1544 1.419 . S
C1542 H1546 0.930 . S
C1543 C1542 1.369 . S
C1543 C1552 1.429 . S
C1544 C1542 1.419 . S
C1544 C1545 1.363 . S
C1544 H1547 0.929 . S
C1545 C1544 1.363 . S
C1545 C1551 1.428 . S
H1546 C1542 0.930 . S
H1547 C1544 0.929 . S
S1548 N1549 1.613 . S
S1548 N1550 1.610 . S
N1549 S1548 1.613 . S
N1549 C1552 1.350 . S
N1550 S1548 1.610 . S
N1550 C1551 1.351 . S
C1551 C1545 1.428 . S
C1551 N1550 1.351 . S
C1551 C1552 1.434 . S
C1552 C1543 1.429 . S
C1552 N1549 1.350 . S
C1552 C1551 1.434 . S
C1553 C1554 1.369 . S
C1553 C1555 1.419 . S
C1553 H1557 0.930 . S
C1554 C1553 1.369 . S
C1554 C1563 1.429 . S
C1555 C1553 1.419 . S
C1555 C1556 1.363 . S
C1555 H1558 0.929 . S
C1556 C1555 1.363 . S
C1556 C1562 1.428 . S
H1557 C1553 0.930 . S
H1558 C1555 0.929 . S
S1559 N1560 1.613 . S
S1559 N1561 1.610 . S
N1560 S1559 1.613 . S
N1560 C1563 1.350 . S
N1561 S1559 1.610 . S
N1561 C1562 1.351 . S
C1562 C1556 1.428 . S
C1562 N1561 1.351 . S
C1562 C1563 1.434 . S
C1563 C1554 1.429 . S
C1563 N1560 1.350 . S
C1563 C1562 1.434 . S
C1564 C1565 1.369 . S
C1564 C1566 1.419 . S
C1564 H1568 0.930 . S
C1565 C1564 1.369 . S
C1565 C1574 1.429 . S
C1566 C1564 1.419 . S
C1566 C1567 1.363 . S
C1566 H1569 0.929 . S
C1567 C1566 1.363 . S
C1567 C1573 1.428 . S
H1568 C1564 0.930 . S
H1569 C1566 0.929 . S
S1570 N1571 1.613 . S
S1570 N1572 1.610 . S
N1571 S1570 1.613 . S
N1571 C1574 1.350 . S
N1572 S1570 1.610 . S
N1572 C1573 1.351 . S
C1573 C1567 1.428 . S
C1573 N1572 1.351 . S
C1573 C1574 1.434 . S
C1574 C1565 1.429 . S
C1574 N1571 1.350 . S
C1574 C1573 1.434 . S
C1575 C1576 1.369 . S
C1575 C1577 1.419 . S
C1575 H1579 0.930 . S
C1576 C1575 1.369 . S
C1576 C1585 1.429 . S
C1577 C1575 1.419 . S
C1577 C1578 1.363 . S
C1577 H1580 0.929 . S
C1578 C1577 1.363 . S
C1578 C1584 1.428 . S
H1579 C1575 0.930 . S
H1580 C1577 0.929 . S
S1581 N1582 1.613 . S
S1581 N1583 1.610 . S
N1582 S1581 1.613 . S
N1582 C1585 1.350 . S
N1583 S1581 1.610 . S
N1583 C1584 1.351 . S
C1584 C1578 1.428 . S
C1584 N1583 1.351 . S
C1584 C1585 1.434 . S
C1585 C1576 1.429 . S
C1585 N1582 1.350 . S
C1585 C1584 1.434 . S
C1586 C1587 1.369 . S
C1586 C1588 1.419 . S
C1586 H1590 0.930 . S
C1587 C1586 1.369 . S
C1587 C1596 1.429 . S
C1588 C1586 1.419 . S
C1588 C1589 1.363 . S
C1588 H1591 0.929 . S
C1589 C1588 1.363 . S
C1589 C1595 1.428 . S
H1590 C1586 0.930 . S
H1591 C1588 0.929 . S
S1592 N1593 1.613 . S
S1592 N1594 1.610 . S
N1593 S1592 1.613 . S
N1593 C1596 1.350 . S
N1594 S1592 1.610 . S
N1594 C1595 1.351 . S
C1595 C1589 1.428 . S
C1595 N1594 1.351 . S
C1595 C1596 1.434 . S
C1596 C1587 1.429 . S
C1596 N1593 1.350 . S
C1596 C1595 1.434 . S
C1597 C1598 1.369 . S
C1597 C1599 1.419 . S
C1597 H1601 0.930 . S
C1598 C1597 1.369 . S
C1598 C1607 1.429 . S
C1599 C1597 1.419 . S
C1599 C1600 1.363 . S
C1599 H1602 0.929 . S
C1600 C1599 1.363 . S
C1600 C1606 1.428 . S
H1601 C1597 0.930 . S
H1602 C1599 0.929 . S
S1603 N1604 1.613 . S
S1603 N1605 1.610 . S
N1604 S1603 1.613 . S
N1604 C1607 1.350 . S
N1605 S1603 1.610 . S
N1605 C1606 1.351 . S
C1606 C1600 1.428 . S
C1606 N1605 1.351 . S
C1606 C1607 1.434 . S
C1607 C1598 1.429 . S
C1607 N1604 1.350 . S
C1607 C1606 1.434 . S
C1608 C1609 1.369 . S
C1608 C1610 1.419 . S
C1608 H1612 0.930 . S
C1609 C1608 1.369 . S
C1609 C1618 1.429 . S
C1610 C1608 1.419 . S
C1610 C1611 1.363 . S
C1610 H1613 0.929 . S
C1611 C1610 1.363 . S
C1611 C1617 1.428 . S
H1612 C1608 0.930 . S
H1613 C1610 0.929 . S
S1614 N1615 1.613 . S
S1614 N1616 1.610 . S
N1615 S1614 1.613 . S
N1615 C1618 1.350 . S
N1616 S1614 1.610 . S
N1616 C1617 1.351 . S
C1617 C1611 1.428 . S
C1617 N1616 1.351 . S
C1617 C1618 1.434 . S
C1618 C1609 1.429 . S
C1618 N1615 1.350 . S
C1618 C1617 1.434 . S
C1619 C1620 1.369 . S
C1619 C1621 1.419 . S
C1619 H1623 0.930 . S
C1620 C1619 1.369 . S
C1620 C1629 1.429 . S
C1621 C1619 1.419 . S
C1621 C1622 1.363 . S
C1621 H1624 0.929 . S
C1622 C1621 1.363 . S
C1622 C1628 1.428 . S
H1623 C1619 0.930 . S
H1624 C1621 0.929 . S
S1625 N1626 1.613 . S
S1625 N1627 1.610 . S
N1626 S1625 1.613 . S
N1626 C1629 1.350 . S
N1627 S1625 1.610 . S
N1627 C1628 1.351 . S
C1628 C1622 1.428 . S
C1628 N1627 1.351 . S
C1628 C1629 1.434 . S
C1629 C1620 1.429 . S
C1629 N1626 1.350 . S
C1629 C1628 1.434 . S
C1630 C1631 1.369 . S
C1630 C1632 1.419 . S
C1630 H1634 0.930 . S
C1631 C1630 1.369 . S
C1631 C1640 1.429 . S
C1632 C1630 1.419 . S
C1632 C1633 1.363 . S
C1632 H1635 0.929 . S
C1633 C1632 1.363 . S
C1633 C1639 1.428 . S
H1634 C1630 0.930 . S
H1635 C1632 0.929 . S
S1636 N1637 1.613 . S
S1636 N1638 1.610 . S
N1637 S1636 1.613 . S
N1637 C1640 1.350 . S
N1638 S1636 1.610 . S
N1638 C1639 1.351 . S
C1639 C1633 1.428 . S
C1639 N1638 1.351 . S
C1639 C1640 1.434 . S
C1640 C1631 1.429 . S
C1640 N1637 1.350 . S
C1640 C1639 1.434 . S
C1641 C1642 1.369 . S
C1641 C1643 1.419 . S
C1641 H1645 0.930 . S
C1642 C1641 1.369 . S
C1642 C1651 1.429 . S
C1643 C1641 1.419 . S
C1643 C1644 1.363 . S
C1643 H1646 0.929 . S
C1644 C1643 1.363 . S
C1644 C1650 1.428 . S
H1645 C1641 0.930 . S
H1646 C1643 0.929 . S
S1647 N1648 1.613 . S
S1647 N1649 1.610 . S
N1648 S1647 1.613 . S
N1648 C1651 1.350 . S
N1649 S1647 1.610 . S
N1649 C1650 1.351 . S
C1650 C1644 1.428 . S
C1650 N1649 1.351 . S
C1650 C1651 1.434 . S
C1651 C1642 1.429 . S
C1651 N1648 1.350 . S
C1651 C1650 1.434 . S
C1652 C1653 1.369 . S
C1652 C1654 1.419 . S
C1652 H1656 0.930 . S
C1653 C1652 1.369 . S
C1653 C1662 1.429 . S
C1654 C1652 1.419 . S
C1654 C1655 1.363 . S
C1654 H1657 0.929 . S
C1655 C1654 1.363 . S
C1655 C1661 1.428 . S
H1656 C1652 0.930 . S
H1657 C1654 0.929 . S
S1658 N1659 1.613 . S
S1658 N1660 1.610 . S
N1659 S1658 1.613 . S
N1659 C1662 1.350 . S
N1660 S1658 1.610 . S
N1660 C1661 1.351 . S
C1661 C1655 1.428 . S
C1661 N1660 1.351 . S
C1661 C1662 1.434 . S
C1662 C1653 1.429 . S
C1662 N1659 1.350 . S
C1662 C1661 1.434 . S
C1663 C1664 1.369 . S
C1663 C1665 1.419 . S
C1663 H1667 0.930 . S
C1664 C1663 1.369 . S
C1664 C1673 1.429 . S
C1665 C1663 1.419 . S
C1665 C1666 1.363 . S
C1665 H1668 0.929 . S
C1666 C1665 1.363 . S
C1666 C1672 1.428 . S
H1667 C1663 0.930 . S
H1668 C1665 0.929 . S
S1669 N1670 1.613 . S
S1669 N1671 1.610 . S
N1670 S1669 1.613 . S
N1670 C1673 1.350 . S
N1671 S1669 1.610 . S
N1671 C1672 1.351 . S
C1672 C1666 1.428 . S
C1672 N1671 1.351 . S
C1672 C1673 1.434 . S
C1673 C1664 1.429 . S
C1673 N1670 1.350 . S
C1673 C1672 1.434 . S
C1674 C1675 1.369 . S
C1674 C1676 1.419 . S
C1674 H1678 0.930 . S
C1675 C1674 1.369 . S
C1675 C1684 1.429 . S
C1676 C1674 1.419 . S
C1676 C1677 1.363 . S
C1676 H1679 0.929 . S
C1677 C1676 1.363 . S
C1677 C1683 1.428 . S
H1678 C1674 0.930 . S
H1679 C1676 0.929 . S
S1680 N1681 1.613 . S
S1680 N1682 1.610 . S
N1681 S1680 1.613 . S
N1681 C1684 1.350 . S
N1682 S1680 1.610 . S
N1682 C1683 1.351 . S
C1683 C1677 1.428 . S
C1683 N1682 1.351 . S
C1683 C1684 1.434 . S
C1684 C1675 1.429 . S
C1684 N1681 1.350 . S
C1684 C1683 1.434 . S
C1685 C1686 1.369 . S
C1685 C1687 1.419 . S
C1685 H1689 0.930 . S
C1686 C1685 1.369 . S
C1686 C1695 1.429 . S
C1687 C1685 1.419 . S
C1687 C1688 1.363 . S
C1687 H1690 0.929 . S
C1688 C1687 1.363 . S
C1688 C1694 1.428 . S
H1689 C1685 0.930 . S
H1690 C1687 0.929 . S
S1691 N1692 1.613 . S
S1691 N1693 1.610 . S
N1692 S1691 1.613 . S
N1692 C1695 1.350 . S
N1693 S1691 1.610 . S
N1693 C1694 1.351 . S
C1694 C1688 1.428 . S
C1694 N1693 1.351 . S
C1694 C1695 1.434 . S
C1695 C1686 1.429 . S
C1695 N1692 1.350 . S
C1695 C1694 1.434 . S
C1696 C1697 1.369 . S
C1696 C1698 1.419 . S
C1696 H1700 0.930 . S
C1697 C1696 1.369 . S
C1697 C1706 1.429 . S
C1698 C1696 1.419 . S
C1698 C1699 1.363 . S
C1698 H1701 0.929 . S
C1699 C1698 1.363 . S
C1699 C1705 1.428 . S
H1700 C1696 0.930 . S
H1701 C1698 0.929 . S
S1702 N1703 1.613 . S
S1702 N1704 1.610 . S
N1703 S1702 1.613 . S
N1703 C1706 1.350 . S
N1704 S1702 1.610 . S
N1704 C1705 1.351 . S
C1705 C1699 1.428 . S
C1705 N1704 1.351 . S
C1705 C1706 1.434 . S
C1706 C1697 1.429 . S
C1706 N1703 1.350 . S
C1706 C1705 1.434 . S
C1707 C1708 1.369 . S
C1707 C1709 1.419 . S
C1707 H1711 0.930 . S
C1708 C1707 1.369 . S
C1708 C1717 1.429 . S
C1709 C1707 1.419 . S
C1709 C1710 1.363 . S
C1709 H1712 0.929 . S
C1710 C1709 1.363 . S
C1710 C1716 1.428 . S
H1711 C1707 0.930 . S
H1712 C1709 0.929 . S
S1713 N1714 1.613 . S
S1713 N1715 1.610 . S
N1714 S1713 1.613 . S
N1714 C1717 1.350 . S
N1715 S1713 1.610 . S
N1715 C1716 1.351 . S
C1716 C1710 1.428 . S
C1716 N1715 1.351 . S
C1716 C1717 1.434 . S
C1717 C1708 1.429 . S
C1717 N1714 1.350 . S
C1717 C1716 1.434 . S
C1718 C1719 1.369 . S
C1718 C1720 1.419 . S
C1718 H1722 0.930 . S
C1719 C1718 1.369 . S
C1719 C1728 1.429 . S
C1720 C1718 1.419 . S
C1720 C1721 1.363 . S
C1720 H1723 0.929 . S
C1721 C1720 1.363 . S
C1721 C1727 1.428 . S
H1722 C1718 0.930 . S
H1723 C1720 0.929 . S
S1724 N1725 1.613 . S
S1724 N1726 1.610 . S
N1725 S1724 1.613 . S
N1725 C1728 1.350 . S
N1726 S1724 1.610 . S
N1726 C1727 1.351 . S
C1727 C1721 1.428 . S
C1727 N1726 1.351 . S
C1727 C1728 1.434 . S
C1728 C1719 1.429 . S
C1728 N1725 1.350 . S
C1728 C1727 1.434 . S
C1729 C1730 1.369 . S
C1729 C1731 1.419 . S
C1729 H1733 0.930 . S
C1730 C1729 1.369 . S
C1730 C1739 1.429 . S
C1731 C1729 1.419 . S
C1731 C1732 1.363 . S
C1731 H1734 0.929 . S
C1732 C1731 1.363 . S
C1732 C1738 1.428 . S
H1733 C1729 0.930 . S
H1734 C1731 0.929 . S
S1735 N1736 1.613 . S
S1735 N1737 1.610 . S
N1736 S1735 1.613 . S
N1736 C1739 1.350 . S
N1737 S1735 1.610 . S
N1737 C1738 1.351 . S
C1738 C1732 1.428 . S
C1738 N1737 1.351 . S
C1738 C1739 1.434 . S
C1739 C1730 1.429 . S
C1739 N1736 1.350 . S
C1739 C1738 1.434 . S
C1740 C1741 1.369 . S
C1740 C1742 1.419 . S
C1740 H1744 0.930 . S
C1741 C1740 1.369 . S
C1741 C1750 1.429 . S
C1742 C1740 1.419 . S
C1742 C1743 1.363 . S
C1742 H1745 0.929 . S
C1743 C1742 1.363 . S
C1743 C1749 1.428 . S
H1744 C1740 0.930 . S
H1745 C1742 0.929 . S
S1746 N1747 1.613 . S
S1746 N1748 1.610 . S
N1747 S1746 1.613 . S
N1747 C1750 1.350 . S
N1748 S1746 1.610 . S
N1748 C1749 1.351 . S
C1749 C1743 1.428 . S
C1749 N1748 1.351 . S
C1749 C1750 1.434 . S
C1750 C1741 1.429 . S
C1750 N1747 1.350 . S
C1750 C1749 1.434 . S
C1751 C1752 1.369 . S
C1751 C1753 1.419 . S
C1751 H1755 0.930 . S
C1752 C1751 1.369 . S
C1752 C1761 1.429 . S
C1753 C1751 1.419 . S
C1753 C1754 1.363 . S
C1753 H1756 0.929 . S
C1754 C1753 1.363 . S
C1754 C1760 1.428 . S
H1755 C1751 0.930 . S
H1756 C1753 0.929 . S
S1757 N1758 1.613 . S
S1757 N1759 1.610 . S
N1758 S1757 1.613 . S
N1758 C1761 1.350 . S
N1759 S1757 1.610 . S
N1759 C1760 1.351 . S
C1760 C1754 1.428 . S
C1760 N1759 1.351 . S
C1760 C1761 1.434 . S
C1761 C1752 1.429 . S
C1761 N1758 1.350 . S
C1761 C1760 1.434 . S
C1762 C1763 1.369 . S
C1762 C1764 1.419 . S
C1762 H1766 0.930 . S
C1763 C1762 1.369 . S
C1763 C1772 1.429 . S
C1764 C1762 1.419 . S
C1764 C1765 1.363 . S
C1764 H1767 0.929 . S
C1765 C1764 1.363 . S
C1765 C1771 1.428 . S
H1766 C1762 0.930 . S
H1767 C1764 0.929 . S
S1768 N1769 1.613 . S
S1768 N1770 1.610 . S
N1769 S1768 1.613 . S
N1769 C1772 1.350 . S
N1770 S1768 1.610 . S
N1770 C1771 1.351 . S
C1771 C1765 1.428 . S
C1771 N1770 1.351 . S
C1771 C1772 1.434 . S
C1772 C1763 1.429 . S
C1772 N1769 1.350 . S
C1772 C1771 1.434 . S
C1773 C1774 1.369 . S
C1773 C1775 1.419 . S
C1773 H1777 0.930 . S
C1774 C1773 1.369 . S
C1774 C1783 1.429 . S
C1775 C1773 1.419 . S
C1775 C1776 1.363 . S
C1775 H1778 0.929 . S
C1776 C1775 1.363 . S
C1776 C1782 1.428 . S
H1777 C1773 0.930 . S
H1778 C1775 0.929 . S
S1779 N1780 1.613 . S
S1779 N1781 1.610 . S
N1780 S1779 1.613 . S
N1780 C1783 1.350 . S
N1781 S1779 1.610 . S
N1781 C1782 1.351 . S
C1782 C1776 1.428 . S
C1782 N1781 1.351 . S
C1782 C1783 1.434 . S
C1783 C1774 1.429 . S
C1783 N1780 1.350 . S
C1783 C1782 1.434 . S
C1784 C1785 1.369 . S
C1784 C1786 1.419 . S
C1784 H1788 0.930 . S
C1785 C1784 1.369 . S
C1785 C1794 1.429 . S
C1786 C1784 1.419 . S
C1786 C1787 1.363 . S
C1786 H1789 0.929 . S
C1787 C1786 1.363 . S
C1787 C1793 1.428 . S
H1788 C1784 0.930 . S
H1789 C1786 0.929 . S
S1790 N1791 1.613 . S
S1790 N1792 1.610 . S
N1791 S1790 1.613 . S
N1791 C1794 1.350 . S
N1792 S1790 1.610 . S
N1792 C1793 1.351 . S
C1793 C1787 1.428 . S
C1793 N1792 1.351 . S
C1793 C1794 1.434 . S
C1794 C1785 1.429 . S
C1794 N1791 1.350 . S
C1794 C1793 1.434 . S
C1795 C1796 1.369 . S
C1795 C1797 1.419 . S
C1795 H1799 0.930 . S
C1796 C1795 1.369 . S
C1796 C1805 1.429 . S
C1797 C1795 1.419 . S
C1797 C1798 1.363 . S
C1797 H1800 0.929 . S
C1798 C1797 1.363 . S
C1798 C1804 1.428 . S
H1799 C1795 0.930 . S
H1800 C1797 0.929 . S
S1801 N1802 1.613 . S
S1801 N1803 1.610 . S
N1802 S1801 1.613 . S
N1802 C1805 1.350 . S
N1803 S1801 1.610 . S
N1803 C1804 1.351 . S
C1804 C1798 1.428 . S
C1804 N1803 1.351 . S
C1804 C1805 1.434 . S
C1805 C1796 1.429 . S
C1805 N1802 1.350 . S
C1805 C1804 1.434 . S
C1806 C1807 1.369 . S
C1806 C1808 1.419 . S
C1806 H1810 0.930 . S
C1807 C1806 1.369 . S
C1807 C1816 1.429 . S
C1808 C1806 1.419 . S
C1808 C1809 1.363 . S
C1808 H1811 0.929 . S
C1809 C1808 1.363 . S
C1809 C1815 1.428 . S
H1810 C1806 0.930 . S
H1811 C1808 0.929 . S
S1812 N1813 1.613 . S
S1812 N1814 1.610 . S
N1813 S1812 1.613 . S
N1813 C1816 1.350 . S
N1814 S1812 1.610 . S
N1814 C1815 1.351 . S
C1815 C1809 1.428 . S
C1815 N1814 1.351 . S
C1815 C1816 1.434 . S
C1816 C1807 1.429 . S
C1816 N1813 1.350 . S
C1816 C1815 1.434 . S
C1817 C1818 1.369 . S
C1817 C1819 1.419 . S
C1817 H1821 0.930 . S
C1818 C1817 1.369 . S
C1818 C1827 1.429 . S
C1819 C1817 1.419 . S
C1819 C1820 1.363 . S
C1819 H1822 0.929 . S
C1820 C1819 1.363 . S
C1820 C1826 1.428 . S
H1821 C1817 0.930 . S
H1822 C1819 0.929 . S
S1823 N1824 1.613 . S
S1823 N1825 1.610 . S
N1824 S1823 1.613 . S
N1824 C1827 1.350 . S
N1825 S1823 1.610 . S
N1825 C1826 1.351 . S
C1826 C1820 1.428 . S
C1826 N1825 1.351 . S
C1826 C1827 1.434 . S
C1827 C1818 1.429 . S
C1827 N1824 1.350 . S
C1827 C1826 1.434 . S
C1828 C1829 1.369 . S
C1828 C1830 1.419 . S
C1828 H1832 0.930 . S
C1829 C1828 1.369 . S
C1829 C1838 1.429 . S
C1830 C1828 1.419 . S
C1830 C1831 1.363 . S
C1830 H1833 0.929 . S
C1831 C1830 1.363 . S
C1831 C1837 1.428 . S
H1832 C1828 0.930 . S
H1833 C1830 0.929 . S
S1834 N1835 1.613 . S
S1834 N1836 1.610 . S
N1835 S1834 1.613 . S
N1835 C1838 1.350 . S
N1836 S1834 1.610 . S
N1836 C1837 1.351 . S
C1837 C1831 1.428 . S
C1837 N1836 1.351 . S
C1837 C1838 1.434 . S
C1838 C1829 1.429 . S
C1838 N1835 1.350 . S
C1838 C1837 1.434 . S
C1839 C1840 1.369 . S
C1839 C1841 1.419 . S
C1839 H1843 0.930 . S
C1840 C1839 1.369 . S
C1840 C1849 1.429 . S
C1841 C1839 1.419 . S
C1841 C1842 1.363 . S
C1841 H1844 0.929 . S
C1842 C1841 1.363 . S
C1842 C1848 1.428 . S
H1843 C1839 0.930 . S
H1844 C1841 0.929 . S
S1845 N1846 1.613 . S
S1845 N1847 1.610 . S
N1846 S1845 1.613 . S
N1846 C1849 1.350 . S
N1847 S1845 1.610 . S
N1847 C1848 1.351 . S
C1848 C1842 1.428 . S
C1848 N1847 1.351 . S
C1848 C1849 1.434 . S
C1849 C1840 1.429 . S
C1849 N1846 1.350 . S
C1849 C1848 1.434 . S
C1850 C1851 1.369 . S
C1850 C1852 1.419 . S
C1850 H1854 0.930 . S
C1851 C1850 1.369 . S
C1851 C1860 1.429 . S
C1852 C1850 1.419 . S
C1852 C1853 1.363 . S
C1852 H1855 0.929 . S
C1853 C1852 1.363 . S
C1853 C1859 1.428 . S
H1854 C1850 0.930 . S
H1855 C1852 0.929 . S
S1856 N1857 1.613 . S
S1856 N1858 1.610 . S
N1857 S1856 1.613 . S
N1857 C1860 1.350 . S
N1858 S1856 1.610 . S
N1858 C1859 1.351 . S
C1859 C1853 1.428 . S
C1859 N1858 1.351 . S
C1859 C1860 1.434 . S
C1860 C1851 1.429 . S
C1860 N1857 1.350 . S
C1860 C1859 1.434 . S
C1861 C1862 1.369 . S
C1861 C1863 1.419 . S
C1861 H1865 0.930 . S
C1862 C1861 1.369 . S
C1862 C1871 1.429 . S
C1863 C1861 1.419 . S
C1863 C1864 1.363 . S
C1863 H1866 0.929 . S
C1864 C1863 1.363 . S
C1864 C1870 1.428 . S
H1865 C1861 0.930 . S
H1866 C1863 0.929 . S
S1867 N1868 1.613 . S
S1867 N1869 1.610 . S
N1868 S1867 1.613 . S
N1868 C1871 1.350 . S
N1869 S1867 1.610 . S
N1869 C1870 1.351 . S
C1870 C1864 1.428 . S
C1870 N1869 1.351 . S
C1870 C1871 1.434 . S
C1871 C1862 1.429 . S
C1871 N1868 1.350 . S
C1871 C1870 1.434 . S
C1872 C1873 1.369 . S
C1872 C1874 1.419 . S
C1872 H1876 0.930 . S
C1873 C1872 1.369 . S
C1873 C1882 1.429 . S
C1874 C1872 1.419 . S
C1874 C1875 1.363 . S
C1874 H1877 0.929 . S
C1875 C1874 1.363 . S
C1875 C1881 1.428 . S
H1876 C1872 0.930 . S
H1877 C1874 0.929 . S
S1878 N1879 1.613 . S
S1878 N1880 1.610 . S
N1879 S1878 1.613 . S
N1879 C1882 1.350 . S
N1880 S1878 1.610 . S
N1880 C1881 1.351 . S
C1881 C1875 1.428 . S
C1881 N1880 1.351 . S
C1881 C1882 1.434 . S
C1882 C1873 1.429 . S
C1882 N1879 1.350 . S
C1882 C1881 1.434 . S
C1883 C1884 1.369 . S
C1883 C1885 1.419 . S
C1883 H1887 0.930 . S
C1884 C1883 1.369 . S
C1884 C1893 1.429 . S
C1885 C1883 1.419 . S
C1885 C1886 1.363 . S
C1885 H1888 0.929 . S
C1886 C1885 1.363 . S
C1886 C1892 1.428 . S
H1887 C1883 0.930 . S
H1888 C1885 0.929 . S
S1889 N1890 1.613 . S
S1889 N1891 1.610 . S
N1890 S1889 1.613 . S
N1890 C1893 1.350 . S
N1891 S1889 1.610 . S
N1891 C1892 1.351 . S
C1892 C1886 1.428 . S
C1892 N1891 1.351 . S
C1892 C1893 1.434 . S
C1893 C1884 1.429 . S
C1893 N1890 1.350 . S
C1893 C1892 1.434 . S
C1894 C1895 1.369 . S
C1894 C1896 1.419 . S
C1894 H1898 0.930 . S
C1895 C1894 1.369 . S
C1895 C1904 1.429 . S
C1896 C1894 1.419 . S
C1896 C1897 1.363 . S
C1896 H1899 0.929 . S
C1897 C1896 1.363 . S
C1897 C1903 1.428 . S
H1898 C1894 0.930 . S
H1899 C1896 0.929 . S
S1900 N1901 1.613 . S
S1900 N1902 1.610 . S
N1901 S1900 1.613 . S
N1901 C1904 1.350 . S
N1902 S1900 1.610 . S
N1902 C1903 1.351 . S
C1903 C1897 1.428 . S
C1903 N1902 1.351 . S
C1903 C1904 1.434 . S
C1904 C1895 1.429 . S
C1904 N1901 1.350 . S
C1904 C1903 1.434 . S
C1905 C1906 1.369 . S
C1905 C1907 1.419 . S
C1905 H1909 0.930 . S
C1906 C1905 1.369 . S
C1906 C1915 1.429 . S
C1907 C1905 1.419 . S
C1907 C1908 1.363 . S
C1907 H1910 0.929 . S
C1908 C1907 1.363 . S
C1908 C1914 1.428 . S
H1909 C1905 0.930 . S
H1910 C1907 0.929 . S
S1911 N1912 1.613 . S
S1911 N1913 1.610 . S
N1912 S1911 1.613 . S
N1912 C1915 1.350 . S
N1913 S1911 1.610 . S
N1913 C1914 1.351 . S
C1914 C1908 1.428 . S
C1914 N1913 1.351 . S
C1914 C1915 1.434 . S
C1915 C1906 1.429 . S
C1915 N1912 1.350 . S
C1915 C1914 1.434 . S
C1916 C1917 1.369 . S
C1916 C1918 1.419 . S
C1916 H1920 0.930 . S
C1917 C1916 1.369 . S
C1917 C1926 1.429 . S
C1918 C1916 1.419 . S
C1918 C1919 1.363 . S
C1918 H1921 0.929 . S
C1919 C1918 1.363 . S
C1919 C1925 1.428 . S
H1920 C1916 0.930 . S
H1921 C1918 0.929 . S
S1922 N1923 1.613 . S
S1922 N1924 1.610 . S
N1923 S1922 1.613 . S
N1923 C1926 1.350 . S
N1924 S1922 1.610 . S
N1924 C1925 1.351 . S
C1925 C1919 1.428 . S
C1925 N1924 1.351 . S
C1925 C1926 1.434 . S
C1926 C1917 1.429 . S
C1926 N1923 1.350 . S
C1926 C1925 1.434 . S
C1927 C1928 1.369 . S
C1927 C1929 1.419 . S
C1927 H1931 0.930 . S
C1928 C1927 1.369 . S
C1928 C1937 1.429 . S
C1929 C1927 1.419 . S
C1929 C1930 1.363 . S
C1929 H1932 0.929 . S
C1930 C1929 1.363 . S
C1930 C1936 1.428 . S
H1931 C1927 0.930 . S
H1932 C1929 0.929 . S
S1933 N1934 1.613 . S
S1933 N1935 1.610 . S
N1934 S1933 1.613 . S
N1934 C1937 1.350 . S
N1935 S1933 1.610 . S
N1935 C1936 1.351 . S
C1936 C1930 1.428 . S
C1936 N1935 1.351 . S
C1936 C1937 1.434 . S
C1937 C1928 1.429 . S
C1937 N1934 1.350 . S
C1937 C1936 1.434 . S
C1938 C1939 1.369 . S
C1938 C1940 1.419 . S
C1938 H1942 0.930 . S
C1939 C1938 1.369 . S
C1939 C1948 1.429 . S
C1940 C1938 1.419 . S
C1940 C1941 1.363 . S
C1940 H1943 0.929 . S
C1941 C1940 1.363 . S
C1941 C1947 1.428 . S
H1942 C1938 0.930 . S
H1943 C1940 0.929 . S
S1944 N1945 1.613 . S
S1944 N1946 1.610 . S
N1945 S1944 1.613 . S
N1945 C1948 1.350 . S
N1946 S1944 1.610 . S
N1946 C1947 1.351 . S
C1947 C1941 1.428 . S
C1947 N1946 1.351 . S
C1947 C1948 1.434 . S
C1948 C1939 1.429 . S
C1948 N1945 1.350 . S
C1948 C1947 1.434 . S
C1949 C1950 1.369 . S
C1949 C1951 1.419 . S
C1949 H1953 0.930 . S
C1950 C1949 1.369 . S
C1950 C1959 1.429 . S
C1951 C1949 1.419 . S
C1951 C1952 1.363 . S
C1951 H1954 0.929 . S
C1952 C1951 1.363 . S
C1952 C1958 1.428 . S
H1953 C1949 0.930 . S
H1954 C1951 0.929 . S
S1955 N1956 1.613 . S
S1955 N1957 1.610 . S
N1956 S1955 1.613 . S
N1956 C1959 1.350 . S
N1957 S1955 1.610 . S
N1957 C1958 1.351 . S
C1958 C1952 1.428 . S
C1958 N1957 1.351 . S
C1958 C1959 1.434 . S
C1959 C1950 1.429 . S
C1959 N1956 1.350 . S
C1959 C1958 1.434 . S
C1960 C1961 1.369 . S
C1960 C1962 1.419 . S
C1960 H1964 0.930 . S
C1961 C1960 1.369 . S
C1961 C1970 1.429 . S
C1962 C1960 1.419 . S
C1962 C1963 1.363 . S
C1962 H1965 0.929 . S
C1963 C1962 1.363 . S
C1963 C1969 1.428 . S
H1964 C1960 0.930 . S
H1965 C1962 0.929 . S
S1966 N1967 1.613 . S
S1966 N1968 1.610 . S
N1967 S1966 1.613 . S
N1967 C1970 1.350 . S
N1968 S1966 1.610 . S
N1968 C1969 1.351 . S
C1969 C1963 1.428 . S
C1969 N1968 1.351 . S
C1969 C1970 1.434 . S
C1970 C1961 1.429 . S
C1970 N1967 1.350 . S
C1970 C1969 1.434 . S
C1971 C1972 1.369 . S
C1971 C1973 1.419 . S
C1971 H1975 0.930 . S
C1972 C1971 1.369 . S
C1972 C1981 1.429 . S
C1973 C1971 1.419 . S
C1973 C1974 1.363 . S
C1973 H1976 0.929 . S
C1974 C1973 1.363 . S
C1974 C1980 1.428 . S
H1975 C1971 0.930 . S
H1976 C1973 0.929 . S
S1977 N1978 1.613 . S
S1977 N1979 1.610 . S
N1978 S1977 1.613 . S
N1978 C1981 1.350 . S
N1979 S1977 1.610 . S
N1979 C1980 1.351 . S
C1980 C1974 1.428 . S
C1980 N1979 1.351 . S
C1980 C1981 1.434 . S
C1981 C1972 1.429 . S
C1981 N1978 1.350 . S
C1981 C1980 1.434 . S
C1982 C1983 1.369 . S
C1982 C1984 1.419 . S
C1982 H1986 0.930 . S
C1983 C1982 1.369 . S
C1983 C1992 1.429 . S
C1984 C1982 1.419 . S
C1984 C1985 1.363 . S
C1984 H1987 0.929 . S
C1985 C1984 1.363 . S
C1985 C1991 1.428 . S
H1986 C1982 0.930 . S
H1987 C1984 0.929 . S
S1988 N1989 1.613 . S
S1988 N1990 1.610 . S
N1989 S1988 1.613 . S
N1989 C1992 1.350 . S
N1990 S1988 1.610 . S
N1990 C1991 1.351 . S
C1991 C1985 1.428 . S
C1991 N1990 1.351 . S
C1991 C1992 1.434 . S
C1992 C1983 1.429 . S
C1992 N1989 1.350 . S
C1992 C1991 1.434 . S
C1993 C1994 1.369 . S
C1993 C1995 1.419 . S
C1993 H1997 0.930 . S
C1994 C1993 1.369 . S
C1994 C2003 1.429 . S
C1995 C1993 1.419 . S
C1995 C1996 1.363 . S
C1995 H1998 0.929 . S
C1996 C1995 1.363 . S
C1996 C2002 1.428 . S
H1997 C1993 0.930 . S
H1998 C1995 0.929 . S
S1999 N2000 1.613 . S
S1999 N2001 1.610 . S
N2000 S1999 1.613 . S
N2000 C2003 1.350 . S
N2001 S1999 1.610 . S
N2001 C2002 1.351 . S
C2002 C1996 1.428 . S
C2002 N2001 1.351 . S
C2002 C2003 1.434 . S
C2003 C1994 1.429 . S
C2003 N2000 1.350 . S
C2003 C2002 1.434 . S
C2004 C2005 1.369 . S
C2004 C2006 1.419 . S
C2004 H2008 0.930 . S
C2005 C2004 1.369 . S
C2005 C2014 1.429 . S
C2006 C2004 1.419 . S
C2006 C2007 1.363 . S
C2006 H2009 0.929 . S
C2007 C2006 1.363 . S
C2007 C2013 1.428 . S
H2008 C2004 0.930 . S
H2009 C2006 0.929 . S
S2010 N2011 1.613 . S
S2010 N2012 1.610 . S
N2011 S2010 1.613 . S
N2011 C2014 1.350 . S
N2012 S2010 1.610 . S
N2012 C2013 1.351 . S
C2013 C2007 1.428 . S
C2013 N2012 1.351 . S
C2013 C2014 1.434 . S
C2014 C2005 1.429 . S
C2014 N2011 1.350 . S
C2014 C2013 1.434 . S
C2015 C2016 1.369 . S
C2015 C2017 1.419 . S
C2015 H2019 0.930 . S
C2016 C2015 1.369 . S
C2016 C2025 1.429 . S
C2017 C2015 1.419 . S
C2017 C2018 1.363 . S
C2017 H2020 0.929 . S
C2018 C2017 1.363 . S
C2018 C2024 1.428 . S
H2019 C2015 0.930 . S
H2020 C2017 0.929 . S
S2021 N2022 1.613 . S
S2021 N2023 1.610 . S
N2022 S2021 1.613 . S
N2022 C2025 1.350 . S
N2023 S2021 1.610 . S
N2023 C2024 1.351 . S
C2024 C2018 1.428 . S
C2024 N2023 1.351 . S
C2024 C2025 1.434 . S
C2025 C2016 1.429 . S
C2025 N2022 1.350 . S
C2025 C2024 1.434 . S
C2026 C2027 1.369 . S
C2026 C2028 1.419 . S
C2026 H2030 0.930 . S
C2027 C2026 1.369 . S
C2027 C2036 1.429 . S
C2028 C2026 1.419 . S
C2028 C2029 1.363 . S
C2028 H2031 0.929 . S
C2029 C2028 1.363 . S
C2029 C2035 1.428 . S
H2030 C2026 0.930 . S
H2031 C2028 0.929 . S
S2032 N2033 1.613 . S
S2032 N2034 1.610 . S
N2033 S2032 1.613 . S
N2033 C2036 1.350 . S
N2034 S2032 1.610 . S
N2034 C2035 1.351 . S
C2035 C2029 1.428 . S
C2035 N2034 1.351 . S
C2035 C2036 1.434 . S
C2036 C2027 1.429 . S
C2036 N2033 1.350 . S
C2036 C2035 1.434 . S
C2037 C2038 1.369 . S
C2037 C2039 1.419 . S
C2037 H2041 0.930 . S
C2038 C2037 1.369 . S
C2038 C2047 1.429 . S
C2039 C2037 1.419 . S
C2039 C2040 1.363 . S
C2039 H2042 0.929 . S
C2040 C2039 1.363 . S
C2040 C2046 1.428 . S
H2041 C2037 0.930 . S
H2042 C2039 0.929 . S
S2043 N2044 1.613 . S
S2043 N2045 1.610 . S
N2044 S2043 1.613 . S
N2044 C2047 1.350 . S
N2045 S2043 1.610 . S
N2045 C2046 1.351 . S
C2046 C2040 1.428 . S
C2046 N2045 1.351 . S
C2046 C2047 1.434 . S
C2047 C2038 1.429 . S
C2047 N2044 1.350 . S
C2047 C2046 1.434 . S
C2048 C2049 1.369 . S
C2048 C2050 1.419 . S
C2048 H2052 0.930 . S
C2049 C2048 1.369 . S
C2049 C2058 1.429 . S
C2050 C2048 1.419 . S
C2050 C2051 1.363 . S
C2050 H2053 0.929 . S
C2051 C2050 1.363 . S
C2051 C2057 1.428 . S
H2052 C2048 0.930 . S
H2053 C2050 0.929 . S
S2054 N2055 1.613 . S
S2054 N2056 1.610 . S
N2055 S2054 1.613 . S
N2055 C2058 1.350 . S
N2056 S2054 1.610 . S
N2056 C2057 1.351 . S
C2057 C2051 1.428 . S
C2057 N2056 1.351 . S
C2057 C2058 1.434 . S
C2058 C2049 1.429 . S
C2058 N2055 1.350 . S
C2058 C2057 1.434 . S
C2059 C2060 1.369 . S
C2059 C2061 1.419 . S
C2059 H2063 0.930 . S
C2060 C2059 1.369 . S
C2060 C2069 1.429 . S
C2061 C2059 1.419 . S
C2061 C2062 1.363 . S
C2061 H2064 0.929 . S
C2062 C2061 1.363 . S
C2062 C2068 1.428 . S
H2063 C2059 0.930 . S
H2064 C2061 0.929 . S
S2065 N2066 1.613 . S
S2065 N2067 1.610 . S
N2066 S2065 1.613 . S
N2066 C2069 1.350 . S
N2067 S2065 1.610 . S
N2067 C2068 1.351 . S
C2068 C2062 1.428 . S
C2068 N2067 1.351 . S
C2068 C2069 1.434 . S
C2069 C2060 1.429 . S
C2069 N2066 1.350 . S
C2069 C2068 1.434 . S
C2070 C2071 1.369 . S
C2070 C2072 1.419 . S
C2070 H2074 0.930 . S
C2071 C2070 1.369 . S
C2071 C2080 1.429 . S
C2072 C2070 1.419 . S
C2072 C2073 1.363 . S
C2072 H2075 0.929 . S
C2073 C2072 1.363 . S
C2073 C2079 1.428 . S
H2074 C2070 0.930 . S
H2075 C2072 0.929 . S
S2076 N2077 1.613 . S
S2076 N2078 1.610 . S
N2077 S2076 1.613 . S
N2077 C2080 1.350 . S
N2078 S2076 1.610 . S
N2078 C2079 1.351 . S
C2079 C2073 1.428 . S
C2079 N2078 1.351 . S
C2079 C2080 1.434 . S
C2080 C2071 1.429 . S
C2080 N2077 1.350 . S
C2080 C2079 1.434 . S
C2081 C2082 1.369 . S
C2081 C2083 1.419 . S
C2081 H2085 0.930 . S
C2082 C2081 1.369 . S
C2082 C2091 1.429 . S
C2083 C2081 1.419 . S
C2083 C2084 1.363 . S
C2083 H2086 0.929 . S
C2084 C2083 1.363 . S
C2084 C2090 1.428 . S
H2085 C2081 0.930 . S
H2086 C2083 0.929 . S
S2087 N2088 1.613 . S
S2087 N2089 1.610 . S
N2088 S2087 1.613 . S
N2088 C2091 1.350 . S
N2089 S2087 1.610 . S
N2089 C2090 1.351 . S
C2090 C2084 1.428 . S
C2090 N2089 1.351 . S
C2090 C2091 1.434 . S
C2091 C2082 1.429 . S
C2091 N2088 1.350 . S
C2091 C2090 1.434 . S
C2092 C2093 1.369 . S
C2092 C2094 1.419 . S
C2092 H2096 0.930 . S
C2093 C2092 1.369 . S
C2093 C2102 1.429 . S
C2094 C2092 1.419 . S
C2094 C2095 1.363 . S
C2094 H2097 0.929 . S
C2095 C2094 1.363 . S
C2095 C2101 1.428 . S
H2096 C2092 0.930 . S
H2097 C2094 0.929 . S
S2098 N2099 1.613 . S
S2098 N2100 1.610 . S
N2099 S2098 1.613 . S
N2099 C2102 1.350 . S
N2100 S2098 1.610 . S
N2100 C2101 1.351 . S
C2101 C2095 1.428 . S
C2101 N2100 1.351 . S
C2101 C2102 1.434 . S
C2102 C2093 1.429 . S
C2102 N2099 1.350 . S
C2102 C2101 1.434 . S
C2103 C2104 1.369 . S
C2103 C2105 1.419 . S
C2103 H2107 0.930 . S
C2104 C2103 1.369 . S
C2104 C2113 1.429 . S
C2105 C2103 1.419 . S
C2105 C2106 1.363 . S
C2105 H2108 0.929 . S
C2106 C2105 1.363 . S
C2106 C2112 1.428 . S
H2107 C2103 0.930 . S
H2108 C2105 0.929 . S
S2109 N2110 1.613 . S
S2109 N2111 1.610 . S
N2110 S2109 1.613 . S
N2110 C2113 1.350 . S
N2111 S2109 1.610 . S
N2111 C2112 1.351 . S
C2112 C2106 1.428 . S
C2112 N2111 1.351 . S
C2112 C2113 1.434 . S
C2113 C2104 1.429 . S
C2113 N2110 1.350 . S
C2113 C2112 1.434 . S
C2114 C2115 1.369 . S
C2114 C2116 1.419 . S
C2114 H2118 0.930 . S
C2115 C2114 1.369 . S
C2115 C2124 1.429 . S
C2116 C2114 1.419 . S
C2116 C2117 1.363 . S
C2116 H2119 0.929 . S
C2117 C2116 1.363 . S
C2117 C2123 1.428 . S
H2118 C2114 0.930 . S
H2119 C2116 0.929 . S
S2120 N2121 1.613 . S
S2120 N2122 1.610 . S
N2121 S2120 1.613 . S
N2121 C2124 1.350 . S
N2122 S2120 1.610 . S
N2122 C2123 1.351 . S
C2123 C2117 1.428 . S
C2123 N2122 1.351 . S
C2123 C2124 1.434 . S
C2124 C2115 1.429 . S
C2124 N2121 1.350 . S
C2124 C2123 1.434 . S
C2125 C2126 1.369 . S
C2125 C2127 1.419 . S
C2125 H2129 0.930 . S
C2126 C2125 1.369 . S
C2126 C2135 1.429 . S
C2127 C2125 1.419 . S
C2127 C2128 1.363 . S
C2127 H2130 0.929 . S
C2128 C2127 1.363 . S
C2128 C2134 1.428 . S
H2129 C2125 0.930 . S
H2130 C2127 0.929 . S
S2131 N2132 1.613 . S
S2131 N2133 1.610 . S
N2132 S2131 1.613 . S
N2132 C2135 1.350 . S
N2133 S2131 1.610 . S
N2133 C2134 1.351 . S
C2134 C2128 1.428 . S
C2134 N2133 1.351 . S
C2134 C2135 1.434 . S
C2135 C2126 1.429 . S
C2135 N2132 1.350 . S
C2135 C2134 1.434 . S
C2136 C2137 1.369 . S
C2136 C2138 1.419 . S
C2136 H2140 0.930 . S
C2137 C2136 1.369 . S
C2137 C2146 1.429 . S
C2138 C2136 1.419 . S
C2138 C2139 1.363 . S
C2138 H2141 0.929 . S
C2139 C2138 1.363 . S
C2139 C2145 1.428 . S
H2140 C2136 0.930 . S
H2141 C2138 0.929 . S
S2142 N2143 1.613 . S
S2142 N2144 1.610 . S
N2143 S2142 1.613 . S
N2143 C2146 1.350 . S
N2144 S2142 1.610 . S
N2144 C2145 1.351 . S
C2145 C2139 1.428 . S
C2145 N2144 1.351 . S
C2145 C2146 1.434 . S
C2146 C2137 1.429 . S
C2146 N2143 1.350 . S
C2146 C2145 1.434 . S
C2147 C2148 1.369 . S
C2147 C2149 1.419 . S
C2147 H2151 0.930 . S
C2148 C2147 1.369 . S
C2148 C2157 1.429 . S
C2149 C2147 1.419 . S
C2149 C2150 1.363 . S
C2149 H2152 0.929 . S
C2150 C2149 1.363 . S
C2150 C2156 1.428 . S
H2151 C2147 0.930 . S
H2152 C2149 0.929 . S
S2153 N2154 1.613 . S
S2153 N2155 1.610 . S
N2154 S2153 1.613 . S
N2154 C2157 1.350 . S
N2155 S2153 1.610 . S
N2155 C2156 1.351 . S
C2156 C2150 1.428 . S
C2156 N2155 1.351 . S
C2156 C2157 1.434 . S
C2157 C2148 1.429 . S
C2157 N2154 1.350 . S
C2157 C2156 1.434 . S
C2158 C2159 1.369 . S
C2158 C2160 1.419 . S
C2158 H2162 0.930 . S
C2159 C2158 1.369 . S
C2159 C2168 1.429 . S
C2160 C2158 1.419 . S
C2160 C2161 1.363 . S
C2160 H2163 0.929 . S
C2161 C2160 1.363 . S
C2161 C2167 1.428 . S
H2162 C2158 0.930 . S
H2163 C2160 0.929 . S
S2164 N2165 1.613 . S
S2164 N2166 1.610 . S
N2165 S2164 1.613 . S
N2165 C2168 1.350 . S
N2166 S2164 1.610 . S
N2166 C2167 1.351 . S
C2167 C2161 1.428 . S
C2167 N2166 1.351 . S
C2167 C2168 1.434 . S
C2168 C2159 1.429 . S
C2168 N2165 1.350 . S
C2168 C2167 1.434 . S
C2169 C2170 1.369 . S
C2169 C2171 1.419 . S
C2169 H2173 0.930 . S
C2170 C2169 1.369 . S
C2170 C2179 1.429 . S
C2171 C2169 1.419 . S
C2171 C2172 1.363 . S
C2171 H2174 0.929 . S
C2172 C2171 1.363 . S
C2172 C2178 1.428 . S
H2173 C2169 0.930 . S
H2174 C2171 0.929 . S
S2175 N2176 1.613 . S
S2175 N2177 1.610 . S
N2176 S2175 1.613 . S
N2176 C2179 1.350 . S
N2177 S2175 1.610 . S
N2177 C2178 1.351 . S
C2178 C2172 1.428 . S
C2178 N2177 1.351 . S
C2178 C2179 1.434 . S
C2179 C2170 1.429 . S
C2179 N2176 1.350 . S
C2179 C2178 1.434 . S
C2180 C2181 1.369 . S
C2180 C2182 1.419 . S
C2180 H2184 0.930 . S
C2181 C2180 1.369 . S
C2181 C2190 1.429 . S
C2182 C2180 1.419 . S
C2182 C2183 1.363 . S
C2182 H2185 0.929 . S
C2183 C2182 1.363 . S
C2183 C2189 1.428 . S
H2184 C2180 0.930 . S
H2185 C2182 0.929 . S
S2186 N2187 1.613 . S
S2186 N2188 1.610 . S
N2187 S2186 1.613 . S
N2187 C2190 1.350 . S
N2188 S2186 1.610 . S
N2188 C2189 1.351 . S
C2189 C2183 1.428 . S
C2189 N2188 1.351 . S
C2189 C2190 1.434 . S
C2190 C2181 1.429 . S
C2190 N2187 1.350 . S
C2190 C2189 1.434 . S
C2191 C2192 1.369 . S
C2191 C2193 1.419 . S
C2191 H2195 0.930 . S
C2192 C2191 1.369 . S
C2192 C2201 1.429 . S
C2193 C2191 1.419 . S
C2193 C2194 1.363 . S
C2193 H2196 0.929 . S
C2194 C2193 1.363 . S
C2194 C2200 1.428 . S
H2195 C2191 0.930 . S
H2196 C2193 0.929 . S
S2197 N2198 1.613 . S
S2197 N2199 1.610 . S
N2198 S2197 1.613 . S
N2198 C2201 1.350 . S
N2199 S2197 1.610 . S
N2199 C2200 1.351 . S
C2200 C2194 1.428 . S
C2200 N2199 1.351 . S
C2200 C2201 1.434 . S
C2201 C2192 1.429 . S
C2201 N2198 1.350 . S
C2201 C2200 1.434 . S
C2202 C2203 1.369 . S
C2202 C2204 1.419 . S
C2202 H2206 0.930 . S
C2203 C2202 1.369 . S
C2203 C2212 1.429 . S
C2204 C2202 1.419 . S
C2204 C2205 1.363 . S
C2204 H2207 0.929 . S
C2205 C2204 1.363 . S
C2205 C2211 1.428 . S
H2206 C2202 0.930 . S
H2207 C2204 0.929 . S
S2208 N2209 1.613 . S
S2208 N2210 1.610 . S
N2209 S2208 1.613 . S
N2209 C2212 1.350 . S
N2210 S2208 1.610 . S
N2210 C2211 1.351 . S
C2211 C2205 1.428 . S
C2211 N2210 1.351 . S
C2211 C2212 1.434 . S
C2212 C2203 1.429 . S
C2212 N2209 1.350 . S
C2212 C2211 1.434 . S
C2213 C2214 1.369 . S
C2213 C2215 1.419 . S
C2213 H2217 0.930 . S
C2214 C2213 1.369 . S
C2214 C2223 1.429 . S
C2215 C2213 1.419 . S
C2215 C2216 1.363 . S
C2215 H2218 0.929 . S
C2216 C2215 1.363 . S
C2216 C2222 1.428 . S
H2217 C2213 0.930 . S
H2218 C2215 0.929 . S
S2219 N2220 1.613 . S
S2219 N2221 1.610 . S
N2220 S2219 1.613 . S
N2220 C2223 1.350 . S
N2221 S2219 1.610 . S
N2221 C2222 1.351 . S
C2222 C2216 1.428 . S
C2222 N2221 1.351 . S
C2222 C2223 1.434 . S
C2223 C2214 1.429 . S
C2223 N2220 1.350 . S
C2223 C2222 1.434 . S
C2224 C2225 1.369 . S
C2224 C2226 1.419 . S
C2224 H2228 0.930 . S
C2225 C2224 1.369 . S
C2225 C2234 1.429 . S
C2226 C2224 1.419 . S
C2226 C2227 1.363 . S
C2226 H2229 0.929 . S
C2227 C2226 1.363 . S
C2227 C2233 1.428 . S
H2228 C2224 0.930 . S
H2229 C2226 0.929 . S
S2230 N2231 1.613 . S
S2230 N2232 1.610 . S
N2231 S2230 1.613 . S
N2231 C2234 1.350 . S
N2232 S2230 1.610 . S
N2232 C2233 1.351 . S
C2233 C2227 1.428 . S
C2233 N2232 1.351 . S
C2233 C2234 1.434 . S
C2234 C2225 1.429 . S
C2234 N2231 1.350 . S
C2234 C2233 1.434 . S
C2235 C2236 1.369 . S
C2235 C2237 1.419 . S
C2235 H2239 0.930 . S
C2236 C2235 1.369 . S
C2236 C2245 1.429 . S
C2237 C2235 1.419 . S
C2237 C2238 1.363 . S
C2237 H2240 0.929 . S
C2238 C2237 1.363 . S
C2238 C2244 1.428 . S
H2239 C2235 0.930 . S
H2240 C2237 0.929 . S
S2241 N2242 1.613 . S
S2241 N2243 1.610 . S
N2242 S2241 1.613 . S
N2242 C2245 1.350 . S
N2243 S2241 1.610 . S
N2243 C2244 1.351 . S
C2244 C2238 1.428 . S
C2244 N2243 1.351 . S
C2244 C2245 1.434 . S
C2245 C2236 1.429 . S
C2245 N2242 1.350 . S
C2245 C2244 1.434 . S
C2246 C2247 1.369 . S
C2246 C2248 1.419 . S
C2246 H2250 0.930 . S
C2247 C2246 1.369 . S
C2247 C2256 1.429 . S
C2248 C2246 1.419 . S
C2248 C2249 1.363 . S
C2248 H2251 0.929 . S
C2249 C2248 1.363 . S
C2249 C2255 1.428 . S
H2250 C2246 0.930 . S
H2251 C2248 0.929 . S
S2252 N2253 1.613 . S
S2252 N2254 1.610 . S
N2253 S2252 1.613 . S
N2253 C2256 1.350 . S
N2254 S2252 1.610 . S
N2254 C2255 1.351 . S
C2255 C2249 1.428 . S
C2255 N2254 1.351 . S
C2255 C2256 1.434 . S
C2256 C2247 1.429 . S
C2256 N2253 1.350 . S
C2256 C2255 1.434 . S
C2257 C2258 1.369 . S
C2257 C2259 1.419 . S
C2257 H2261 0.930 . S
C2258 C2257 1.369 . S
C2258 C2267 1.429 . S
C2259 C2257 1.419 . S
C2259 C2260 1.363 . S
C2259 H2262 0.929 . S
C2260 C2259 1.363 . S
C2260 C2266 1.428 . S
H2261 C2257 0.930 . S
H2262 C2259 0.929 . S
S2263 N2264 1.613 . S
S2263 N2265 1.610 . S
N2264 S2263 1.613 . S
N2264 C2267 1.350 . S
N2265 S2263 1.610 . S
N2265 C2266 1.351 . S
C2266 C2260 1.428 . S
C2266 N2265 1.351 . S
C2266 C2267 1.434 . S
C2267 C2258 1.429 . S
C2267 N2264 1.350 . S
C2267 C2266 1.434 . S
C2268 C2269 1.369 . S
C2268 C2270 1.419 . S
C2268 H2272 0.930 . S
C2269 C2268 1.369 . S
C2269 C2278 1.429 . S
C2270 C2268 1.419 . S
C2270 C2271 1.363 . S
C2270 H2273 0.929 . S
C2271 C2270 1.363 . S
C2271 C2277 1.428 . S
H2272 C2268 0.930 . S
H2273 C2270 0.929 . S
S2274 N2275 1.613 . S
S2274 N2276 1.610 . S
N2275 S2274 1.613 . S
N2275 C2278 1.350 . S
N2276 S2274 1.610 . S
N2276 C2277 1.351 . S
C2277 C2271 1.428 . S
C2277 N2276 1.351 . S
C2277 C2278 1.434 . S
C2278 C2269 1.429 . S
C2278 N2275 1.350 . S
C2278 C2277 1.434 . S
C2279 C2280 1.369 . S
C2279 C2281 1.419 . S
C2279 H2283 0.930 . S
C2280 C2279 1.369 . S
C2280 C2289 1.429 . S
C2281 C2279 1.419 . S
C2281 C2282 1.363 . S
C2281 H2284 0.929 . S
C2282 C2281 1.363 . S
C2282 C2288 1.428 . S
H2283 C2279 0.930 . S
H2284 C2281 0.929 . S
S2285 N2286 1.613 . S
S2285 N2287 1.610 . S
N2286 S2285 1.613 . S
N2286 C2289 1.350 . S
N2287 S2285 1.610 . S
N2287 C2288 1.351 . S
C2288 C2282 1.428 . S
C2288 N2287 1.351 . S
C2288 C2289 1.434 . S
C2289 C2280 1.429 . S
C2289 N2286 1.350 . S
C2289 C2288 1.434 . S
C2290 C2291 1.369 . S
C2290 C2292 1.419 . S
C2290 H2294 0.930 . S
C2291 C2290 1.369 . S
C2291 C2300 1.429 . S
C2292 C2290 1.419 . S
C2292 C2293 1.363 . S
C2292 H2295 0.929 . S
C2293 C2292 1.363 . S
C2293 C2299 1.428 . S
H2294 C2290 0.930 . S
H2295 C2292 0.929 . S
S2296 N2297 1.613 . S
S2296 N2298 1.610 . S
N2297 S2296 1.613 . S
N2297 C2300 1.350 . S
N2298 S2296 1.610 . S
N2298 C2299 1.351 . S
C2299 C2293 1.428 . S
C2299 N2298 1.351 . S
C2299 C2300 1.434 . S
C2300 C2291 1.429 . S
C2300 N2297 1.350 . S
C2300 C2299 1.434 . S
C2301 C2302 1.369 . S
C2301 C2303 1.419 . S
C2301 H2305 0.930 . S
C2302 C2301 1.369 . S
C2302 C2311 1.429 . S
C2303 C2301 1.419 . S
C2303 C2304 1.363 . S
C2303 H2306 0.929 . S
C2304 C2303 1.363 . S
C2304 C2310 1.428 . S
H2305 C2301 0.930 . S
H2306 C2303 0.929 . S
S2307 N2308 1.613 . S
S2307 N2309 1.610 . S
N2308 S2307 1.613 . S
N2308 C2311 1.350 . S
N2309 S2307 1.610 . S
N2309 C2310 1.351 . S
C2310 C2304 1.428 . S
C2310 N2309 1.351 . S
C2310 C2311 1.434 . S
C2311 C2302 1.429 . S
C2311 N2308 1.350 . S
C2311 C2310 1.434 . S
C2312 C2313 1.369 . S
C2312 C2314 1.419 . S
C2312 H2316 0.930 . S
C2313 C2312 1.369 . S
C2313 C2322 1.429 . S
C2314 C2312 1.419 . S
C2314 C2315 1.363 . S
C2314 H2317 0.929 . S
C2315 C2314 1.363 . S
C2315 C2321 1.428 . S
H2316 C2312 0.930 . S
H2317 C2314 0.929 . S
S2318 N2319 1.613 . S
S2318 N2320 1.610 . S
N2319 S2318 1.613 . S
N2319 C2322 1.350 . S
N2320 S2318 1.610 . S
N2320 C2321 1.351 . S
C2321 C2315 1.428 . S
C2321 N2320 1.351 . S
C2321 C2322 1.434 . S
C2322 C2313 1.429 . S
C2322 N2319 1.350 . S
C2322 C2321 1.434 . S
C2323 C2324 1.369 . S
C2323 C2325 1.419 . S
C2323 H2327 0.930 . S
C2324 C2323 1.369 . S
C2324 C2333 1.429 . S
C2325 C2323 1.419 . S
C2325 C2326 1.363 . S
C2325 H2328 0.929 . S
C2326 C2325 1.363 . S
C2326 C2332 1.428 . S
H2327 C2323 0.930 . S
H2328 C2325 0.929 . S
S2329 N2330 1.613 . S
S2329 N2331 1.610 . S
N2330 S2329 1.613 . S
N2330 C2333 1.350 . S
N2331 S2329 1.610 . S
N2331 C2332 1.351 . S
C2332 C2326 1.428 . S
C2332 N2331 1.351 . S
C2332 C2333 1.434 . S
C2333 C2324 1.429 . S
C2333 N2330 1.350 . S
C2333 C2332 1.434 . S
C2334 C2335 1.369 . S
C2334 C2336 1.419 . S
C2334 H2338 0.930 . S
C2335 C2334 1.369 . S
C2335 C2344 1.429 . S
C2336 C2334 1.419 . S
C2336 C2337 1.363 . S
C2336 H2339 0.929 . S
C2337 C2336 1.363 . S
C2337 C2343 1.428 . S
H2338 C2334 0.930 . S
H2339 C2336 0.929 . S
S2340 N2341 1.613 . S
S2340 N2342 1.610 . S
N2341 S2340 1.613 . S
N2341 C2344 1.350 . S
N2342 S2340 1.610 . S
N2342 C2343 1.351 . S
C2343 C2337 1.428 . S
C2343 N2342 1.351 . S
C2343 C2344 1.434 . S
C2344 C2335 1.429 . S
C2344 N2341 1.350 . S
C2344 C2343 1.434 . S
C2345 C2346 1.369 . S
C2345 C2347 1.419 . S
C2345 H2349 0.930 . S
C2346 C2345 1.369 . S
C2346 C2355 1.429 . S
C2347 C2345 1.419 . S
C2347 C2348 1.363 . S
C2347 H2350 0.929 . S
C2348 C2347 1.363 . S
C2348 C2354 1.428 . S
H2349 C2345 0.930 . S
H2350 C2347 0.929 . S
S2351 N2352 1.613 . S
S2351 N2353 1.610 . S
N2352 S2351 1.613 . S
N2352 C2355 1.350 . S
N2353 S2351 1.610 . S
N2353 C2354 1.351 . S
C2354 C2348 1.428 . S
C2354 N2353 1.351 . S
C2354 C2355 1.434 . S
C2355 C2346 1.429 . S
C2355 N2352 1.350 . S
C2355 C2354 1.434 . S
C2356 C2357 1.369 . S
C2356 C2358 1.419 . S
C2356 H2360 0.930 . S
C2357 C2356 1.369 . S
C2357 C2366 1.429 . S
C2358 C2356 1.419 . S
C2358 C2359 1.363 . S
C2358 H2361 0.929 . S
C2359 C2358 1.363 . S
C2359 C2365 1.428 . S
H2360 C2356 0.930 . S
H2361 C2358 0.929 . S
S2362 N2363 1.613 . S
S2362 N2364 1.610 . S
N2363 S2362 1.613 . S
N2363 C2366 1.350 . S
N2364 S2362 1.610 . S
N2364 C2365 1.351 . S
C2365 C2359 1.428 . S
C2365 N2364 1.351 . S
C2365 C2366 1.434 . S
C2366 C2357 1.429 . S
C2366 N2363 1.350 . S
C2366 C2365 1.434 . S
C2367 C2368 1.369 . S
C2367 C2369 1.419 . S
C2367 H2371 0.930 . S
C2368 C2367 1.369 . S
C2368 C2377 1.429 . S
C2369 C2367 1.419 . S
C2369 C2370 1.363 . S
C2369 H2372 0.929 . S
C2370 C2369 1.363 . S
C2370 C2376 1.428 . S
H2371 C2367 0.930 . S
H2372 C2369 0.929 . S
S2373 N2374 1.613 . S
S2373 N2375 1.610 . S
N2374 S2373 1.613 . S
N2374 C2377 1.350 . S
N2375 S2373 1.610 . S
N2375 C2376 1.351 . S
C2376 C2370 1.428 . S
C2376 N2375 1.351 . S
C2376 C2377 1.434 . S
C2377 C2368 1.429 . S
C2377 N2374 1.350 . S
C2377 C2376 1.434 . S
C2378 C2379 1.369 . S
C2378 C2380 1.419 . S
C2378 H2382 0.930 . S
C2379 C2378 1.369 . S
C2379 C2388 1.429 . S
C2380 C2378 1.419 . S
C2380 C2381 1.363 . S
C2380 H2383 0.929 . S
C2381 C2380 1.363 . S
C2381 C2387 1.428 . S
H2382 C2378 0.930 . S
H2383 C2380 0.929 . S
S2384 N2385 1.613 . S
S2384 N2386 1.610 . S
N2385 S2384 1.613 . S
N2385 C2388 1.350 . S
N2386 S2384 1.610 . S
N2386 C2387 1.351 . S
C2387 C2381 1.428 . S
C2387 N2386 1.351 . S
C2387 C2388 1.434 . S
C2388 C2379 1.429 . S
C2388 N2385 1.350 . S
C2388 C2387 1.434 . S
C2389 C2390 1.369 . S
C2389 C2391 1.419 . S
C2389 H2393 0.930 . S
C2390 C2389 1.369 . S
C2390 C2399 1.429 . S
C2391 C2389 1.419 . S
C2391 C2392 1.363 . S
C2391 H2394 0.929 . S
C2392 C2391 1.363 . S
C2392 C2398 1.428 . S
H2393 C2389 0.930 . S
H2394 C2391 0.929 . S
S2395 N2396 1.613 . S
S2395 N2397 1.610 . S
N2396 S2395 1.613 . S
N2396 C2399 1.350 . S
N2397 S2395 1.610 . S
N2397 C2398 1.351 . S
C2398 C2392 1.428 . S
C2398 N2397 1.351 . S
C2398 C2399 1.434 . S
C2399 C2390 1.429 . S
C2399 N2396 1.350 . S
C2399 C2398 1.434 . S
C2400 C2401 1.369 . S
C2400 C2402 1.419 1_455 S
C2400 H2404 0.930 . S
C2401 C2400 1.369 . S
C2401 C2410 1.429 . S
C2402 C2400 1.419 1_655 S
C2402 C2403 1.363 . S
C2402 H2405 0.929 . S
C2403 C2402 1.363 . S
C2403 C2409 1.428 . S
H2404 C2400 0.930 . S
H2405 C2402 0.929 . S
S2406 N2407 1.618 1_655 S
S2406 N2408 1.606 . S
N2407 S2406 1.618 1_455 S
N2407 C2410 1.350 . S
N2408 S2406 1.606 . S
N2408 C2409 1.351 . S
C2409 C2403 1.428 . S
C2409 N2408 1.351 . S
C2409 C2410 1.434 1_655 S
C2410 C2401 1.429 . S
C2410 N2407 1.350 . S
C2410 C2409 1.434 1_455 S
C2411 C2412 1.369 . S
C2411 C2413 1.419 1_565 S
C2411 H2415 0.930 . S
C2412 C2411 1.369 . S
C2412 C2421 1.429 . S
C2413 C2411 1.419 1_545 S
C2413 C2414 1.363 . S
C2413 H2416 0.929 . S
C2414 C2413 1.363 . S
C2414 C2420 1.428 . S
H2415 C2411 0.930 . S
H2416 C2413 0.929 . S
S2417 N2418 1.618 1_545 S
S2417 N2419 1.606 . S
N2418 S2417 1.618 1_565 S
N2418 C2421 1.350 . S
N2419 S2417 1.606 . S
N2419 C2420 1.351 . S
C2420 C2414 1.428 . S
C2420 N2419 1.351 . S
C2420 C2421 1.434 1_545 S
C2421 C2412 1.429 . S
C2421 N2418 1.350 . S
C2421 C2420 1.434 1_565 S
C2422 C2423 1.369 . S
C2422 C2424 1.419 1_655 S
C2422 H2426 0.930 . S
C2423 C2422 1.369 . S
C2423 C2432 1.429 . S
C2424 C2422 1.419 1_455 S
C2424 C2425 1.363 . S
C2424 H2427 0.929 . S
C2425 C2424 1.363 . S
C2425 C2431 1.428 . S
H2426 C2422 0.930 . S
H2427 C2424 0.929 . S
S2428 N2429 1.618 1_455 S
S2428 N2430 1.606 . S
N2429 S2428 1.618 1_655 S
N2429 C2432 1.350 . S
N2430 S2428 1.606 . S
N2430 C2431 1.351 . S
C2431 C2425 1.428 . S
C2431 N2430 1.351 . S
C2431 C2432 1.434 1_455 S
C2432 C2423 1.429 . S
C2432 N2429 1.350 . S
C2432 C2431 1.434 1_655 S
C2433 C2434 1.369 . S
C2433 C2435 1.419 1_545 S
C2433 H2437 0.930 . S
C2434 C2433 1.369 . S
C2434 C2443 1.429 . S
C2435 C2433 1.419 1_565 S
C2435 C2436 1.363 . S
C2435 H2438 0.929 . S
C2436 C2435 1.363 . S
C2436 C2442 1.428 . S
H2437 C2433 0.930 . S
H2438 C2435 0.929 . S
S2439 N2440 1.618 1_565 S
S2439 N2441 1.606 . S
N2440 S2439 1.618 1_545 S
N2440 C2443 1.350 . S
N2441 S2439 1.606 . S
N2441 C2442 1.351 . S
C2442 C2436 1.428 . S
C2442 N2441 1.351 . S
C2442 C2443 1.434 1_565 S
C2443 C2434 1.429 . S
C2443 N2440 1.350 . S
C2443 C2442 1.434 1_545 S
C2444 C2445 1.369 . S
C2444 C2446 1.419 1_455 S
C2444 H2448 0.930 . S
C2445 C2444 1.369 . S
C2445 C2454 1.429 . S
C2446 C2444 1.419 1_655 S
C2446 C2447 1.363 . S
C2446 H2449 0.929 . S
C2447 C2446 1.363 . S
C2447 C2453 1.428 . S
H2448 C2444 0.930 . S
H2449 C2446 0.929 . S
S2450 N2451 1.618 1_655 S
S2450 N2452 1.606 . S
N2451 S2450 1.618 1_455 S
N2451 C2454 1.350 . S
N2452 S2450 1.606 . S
N2452 C2453 1.351 . S
C2453 C2447 1.428 . S
C2453 N2452 1.351 . S
C2453 C2454 1.434 1_655 S
C2454 C2445 1.429 . S
C2454 N2451 1.350 . S
C2454 C2453 1.434 1_455 S
C2455 C2456 1.369 . S
C2455 C2457 1.419 1_545 S
C2455 H2459 0.930 . S
C2456 C2455 1.369 . S
C2456 C2465 1.429 . S
C2457 C2455 1.419 1_565 S
C2457 C2458 1.363 . S
C2457 H2460 0.929 . S
C2458 C2457 1.363 . S
C2458 C2464 1.428 . S
H2459 C2455 0.930 . S
H2460 C2457 0.929 . S
S2461 N2462 1.618 1_565 S
S2461 N2463 1.606 . S
N2462 S2461 1.618 1_545 S
N2462 C2465 1.350 . S
N2463 S2461 1.606 . S
N2463 C2464 1.351 . S
C2464 C2458 1.428 . S
C2464 N2463 1.351 . S
C2464 C2465 1.434 1_565 S
C2465 C2456 1.429 . S
C2465 N2462 1.350 . S
C2465 C2464 1.434 1_545 S
C2466 C2467 1.369 . S
C2466 C2468 1.419 1_655 S
C2466 H2470 0.930 . S
C2467 C2466 1.369 . S
C2467 C2476 1.429 . S
C2468 C2466 1.419 1_455 S
C2468 C2469 1.363 . S
C2468 H2471 0.929 . S
C2469 C2468 1.363 . S
C2469 C2475 1.428 . S
H2470 C2466 0.930 . S
H2471 C2468 0.929 . S
S2472 N2473 1.618 1_455 S
S2472 N2474 1.606 . S
N2473 S2472 1.618 1_655 S
N2473 C2476 1.350 . S
N2474 S2472 1.606 . S
N2474 C2475 1.351 . S
C2475 C2469 1.428 . S
C2475 N2474 1.351 . S
C2475 C2476 1.434 1_455 S
C2476 C2467 1.429 . S
C2476 N2473 1.350 . S
C2476 C2475 1.434 1_655 S
C2477 C2478 1.369 . S
C2477 C2479 1.419 1_545 S
C2477 H2481 0.930 . S
C2478 C2477 1.369 . S
C2478 C2487 1.429 . S
C2479 C2477 1.419 1_565 S
C2479 C2480 1.363 . S
C2479 H2482 0.929 . S
C2480 C2479 1.363 . S
C2480 C2486 1.428 . S
H2481 C2477 0.930 . S
H2482 C2479 0.929 . S
S2483 N2484 1.618 1_565 S
S2483 N2485 1.606 . S
N2484 S2483 1.618 1_545 S
N2484 C2487 1.350 . S
N2485 S2483 1.606 . S
N2485 C2486 1.351 . S
C2486 C2480 1.428 . S
C2486 N2485 1.351 . S
C2486 C2487 1.434 1_565 S
C2487 C2478 1.429 . S
C2487 N2484 1.350 . S
C2487 C2486 1.434 1_545 S
C2488 C2489 1.369 . S
C2488 C2490 1.419 1_565 S
C2488 H2492 0.930 . S
C2489 C2488 1.369 . S
C2489 C2498 1.429 . S
C2490 C2488 1.419 1_545 S
C2490 C2491 1.363 . S
C2490 H2493 0.929 . S
C2491 C2490 1.363 . S
C2491 C2497 1.428 . S
H2492 C2488 0.930 . S
H2493 C2490 0.929 . S
S2494 N2495 1.618 1_545 S
S2494 N2496 1.606 . S
N2495 S2494 1.618 1_565 S
N2495 C2498 1.350 . S
N2496 S2494 1.606 . S
N2496 C2497 1.351 . S
C2497 C2491 1.428 . S
C2497 N2496 1.351 . S
C2497 C2498 1.434 1_545 S
C2498 C2489 1.429 . S
C2498 N2495 1.350 . S
C2498 C2497 1.434 1_565 S
C2499 C2500 1.369 . S
C2499 C2501 1.419 1_655 S
C2499 H2503 0.930 . S
C2500 C2499 1.369 . S
C2500 C2509 1.429 . S
C2501 C2499 1.419 1_455 S
C2501 C2502 1.363 . S
C2501 H2504 0.929 . S
C2502 C2501 1.363 . S
C2502 C2508 1.428 . S
H2503 C2499 0.930 . S
H2504 C2501 0.929 . S
S2505 N2506 1.618 1_455 S
S2505 N2507 1.606 . S
N2506 S2505 1.618 1_655 S
N2506 C2509 1.350 . S
N2507 S2505 1.606 . S
N2507 C2508 1.351 . S
C2508 C2502 1.428 . S
C2508 N2507 1.351 . S
C2508 C2509 1.434 1_455 S
C2509 C2500 1.429 . S
C2509 N2506 1.350 . S
C2509 C2508 1.434 1_655 S
C2510 C2511 1.369 . S
C2510 C2512 1.419 1_565 S
C2510 H2514 0.930 . S
C2511 C2510 1.369 . S
C2511 C2520 1.429 . S
C2512 C2510 1.419 1_545 S
C2512 C2513 1.363 . S
C2512 H2515 0.929 . S
C2513 C2512 1.363 . S
C2513 C2519 1.428 . S
H2514 C2510 0.930 . S
H2515 C2512 0.929 . S
S2516 N2517 1.618 1_545 S
S2516 N2518 1.606 . S
N2517 S2516 1.618 1_565 S
N2517 C2520 1.350 . S
N2518 S2516 1.606 . S
N2518 C2519 1.351 . S
C2519 C2513 1.428 . S
C2519 N2518 1.351 . S
C2519 C2520 1.434 1_545 S
C2520 C2511 1.429 . S
C2520 N2517 1.350 . S
C2520 C2519 1.434 1_565 S
C2521 C2522 1.369 . S
C2521 C2523 1.419 1_455 S
C2521 H2525 0.930 . S
C2522 C2521 1.369 . S
C2522 C2531 1.429 . S
C2523 C2521 1.419 1_655 S
C2523 C2524 1.363 . S
C2523 H2526 0.929 . S
C2524 C2523 1.363 . S
C2524 C2530 1.428 . S
H2525 C2521 0.930 . S
H2526 C2523 0.929 . S
S2527 N2528 1.618 1_655 S
S2527 N2529 1.606 . S
N2528 S2527 1.618 1_455 S
N2528 C2531 1.350 . S
N2529 S2527 1.606 . S
N2529 C2530 1.351 . S
C2530 C2524 1.428 . S
C2530 N2529 1.351 . S
C2530 C2531 1.434 1_655 S
C2531 C2522 1.429 . S
C2531 N2528 1.350 . S
C2531 C2530 1.434 1_455 S
C2532 C2533 1.369 . S
C2532 C2534 1.419 1_565 S
C2532 H2536 0.930 . S
C2533 C2532 1.369 . S
C2533 C2542 1.429 . S
C2534 C2532 1.419 1_545 S
C2534 C2535 1.363 . S
C2534 H2537 0.929 . S
C2535 C2534 1.363 . S
C2535 C2541 1.428 . S
H2536 C2532 0.930 . S
H2537 C2534 0.929 . S
S2538 N2539 1.618 1_545 S
S2538 N2540 1.606 . S
N2539 S2538 1.618 1_565 S
N2539 C2542 1.350 . S
N2540 S2538 1.606 . S
N2540 C2541 1.351 . S
C2541 C2535 1.428 . S
C2541 N2540 1.351 . S
C2541 C2542 1.434 1_545 S
C2542 C2533 1.429 . S
C2542 N2539 1.350 . S
C2542 C2541 1.434 1_565 S
C2543 C2544 1.369 . S
C2543 C2545 1.419 1_455 S
C2543 H2547 0.930 . S
C2544 C2543 1.369 . S
C2544 C2553 1.429 . S
C2545 C2543 1.419 1_655 S
C2545 C2546 1.363 . S
C2545 H2548 0.929 . S
C2546 C2545 1.363 . S
C2546 C2552 1.428 . S
H2547 C2543 0.930 . S
H2548 C2545 0.929 . S
S2549 N2550 1.618 1_655 S
S2549 N2551 1.606 . S
N2550 S2549 1.618 1_455 S
N2550 C2553 1.350 . S
N2551 S2549 1.606 . S
N2551 C2552 1.351 . S
C2552 C2546 1.428 . S
C2552 N2551 1.351 . S
C2552 C2553 1.434 1_655 S
C2553 C2544 1.429 . S
C2553 N2550 1.350 . S
C2553 C2552 1.434 1_455 S
C2554 C2555 1.369 . S
C2554 C2556 1.419 1_545 S
C2554 H2558 0.930 . S
C2555 C2554 1.369 . S
C2555 C2564 1.429 . S
C2556 C2554 1.419 1_565 S
C2556 C2557 1.363 . S
C2556 H2559 0.929 . S
C2557 C2556 1.363 . S
C2557 C2563 1.428 . S
H2558 C2554 0.930 . S
H2559 C2556 0.929 . S
S2560 N2561 1.618 1_565 S
S2560 N2562 1.606 . S
N2561 S2560 1.618 1_545 S
N2561 C2564 1.350 . S
N2562 S2560 1.606 . S
N2562 C2563 1.351 . S
C2563 C2557 1.428 . S
C2563 N2562 1.351 . S
C2563 C2564 1.434 1_565 S
C2564 C2555 1.429 . S
C2564 N2561 1.350 . S
C2564 C2563 1.434 1_545 S
C2565 C2566 1.369 . S
C2565 C2567 1.419 1_655 S
C2565 H2569 0.930 . S
C2566 C2565 1.369 . S
C2566 C2575 1.429 . S
C2567 C2565 1.419 1_455 S
C2567 C2568 1.363 . S
C2567 H2570 0.929 . S
C2568 C2567 1.363 . S
C2568 C2574 1.428 . S
H2569 C2565 0.930 . S
H2570 C2567 0.929 . S
S2571 N2572 1.618 1_455 S
S2571 N2573 1.606 . S
N2572 S2571 1.618 1_655 S
N2572 C2575 1.350 . S
N2573 S2571 1.606 . S
N2573 C2574 1.351 . S
C2574 C2568 1.428 . S
C2574 N2573 1.351 . S
C2574 C2575 1.434 1_455 S
C2575 C2566 1.429 . S
C2575 N2572 1.350 . S
C2575 C2574 1.434 1_655 S
C2576 C2577 1.369 . S
C2576 C2578 1.419 1_554 S
C2576 H2580 0.930 . S
C2577 C2576 1.369 . S
C2577 C2586 1.429 . S
C2578 C2576 1.419 1_556 S
C2578 C2579 1.363 . S
C2578 H2581 0.929 . S
C2579 C2578 1.363 . S
C2579 C2585 1.428 . S
H2580 C2576 0.930 . S
H2581 C2578 0.929 . S
S2582 N2583 1.618 1_556 S
S2582 N2584 1.606 . S
N2583 S2582 1.618 1_554 S
N2583 C2586 1.350 . S
N2584 S2582 1.606 . S
N2584 C2585 1.351 . S
C2585 C2579 1.428 . S
C2585 N2584 1.351 . S
C2585 C2586 1.434 1_556 S
C2586 C2577 1.429 . S
C2586 N2583 1.350 . S
C2586 C2585 1.434 1_554 S
C2587 C2588 1.369 . S
C2587 C2589 1.419 1_556 S
C2587 H2591 0.930 . S
C2588 C2587 1.369 . S
C2588 C2597 1.429 . S
C2589 C2587 1.419 1_554 S
C2589 C2590 1.363 . S
C2589 H2592 0.929 . S
C2590 C2589 1.363 . S
C2590 C2596 1.428 . S
H2591 C2587 0.930 . S
H2592 C2589 0.929 . S
S2593 N2594 1.618 1_554 S
S2593 N2595 1.606 . S
N2594 S2593 1.618 1_556 S
N2594 C2597 1.350 . S
N2595 S2593 1.606 . S
N2595 C2596 1.351 . S
C2596 C2590 1.428 . S
C2596 N2595 1.351 . S
C2596 C2597 1.434 1_554 S
C2597 C2588 1.429 . S
C2597 N2594 1.350 . S
C2597 C2596 1.434 1_556 S
C2598 C2599 1.369 . S
C2598 C2600 1.419 1_554 S
C2598 H2602 0.930 . S
C2599 C2598 1.369 . S
C2599 C2608 1.429 . S
C2600 C2598 1.419 1_556 S
C2600 C2601 1.363 . S
C2600 H2603 0.929 . S
C2601 C2600 1.363 . S
C2601 C2607 1.428 . S
H2602 C2598 0.930 . S
H2603 C2600 0.929 . S
S2604 N2605 1.618 1_556 S
S2604 N2606 1.606 . S
N2605 S2604 1.618 1_554 S
N2605 C2608 1.350 . S
N2606 S2604 1.606 . S
N2606 C2607 1.351 . S
C2607 C2601 1.428 . S
C2607 N2606 1.351 . S
C2607 C2608 1.434 1_556 S
C2608 C2599 1.429 . S
C2608 N2605 1.350 . S
C2608 C2607 1.434 1_554 S
C2609 C2610 1.369 . S
C2609 C2611 1.419 1_556 S
C2609 H2613 0.930 . S
C2610 C2609 1.369 . S
C2610 C2619 1.429 . S
C2611 C2609 1.419 1_554 S
C2611 C2612 1.363 . S
C2611 H2614 0.929 . S
C2612 C2611 1.363 . S
C2612 C2618 1.428 . S
H2613 C2609 0.930 . S
H2614 C2611 0.929 . S
S2615 N2616 1.618 1_554 S
S2615 N2617 1.606 . S
N2616 S2615 1.618 1_556 S
N2616 C2619 1.350 . S
N2617 S2615 1.606 . S
N2617 C2618 1.351 . S
C2618 C2612 1.428 . S
C2618 N2617 1.351 . S
C2618 C2619 1.434 1_554 S
C2619 C2610 1.429 . S
C2619 N2616 1.350 . S
C2619 C2618 1.434 1_556 S
C2620 C2621 1.369 . S
C2620 C2622 1.419 1_554 S
C2620 H2624 0.930 . S
C2621 C2620 1.369 . S
C2621 C2630 1.429 . S
C2622 C2620 1.419 1_556 S
C2622 C2623 1.363 . S
C2622 H2625 0.929 . S
C2623 C2622 1.363 . S
C2623 C2629 1.428 . S
H2624 C2620 0.930 . S
H2625 C2622 0.929 . S
S2626 N2627 1.618 1_556 S
S2626 N2628 1.606 . S
N2627 S2626 1.618 1_554 S
N2627 C2630 1.350 . S
N2628 S2626 1.606 . S
N2628 C2629 1.351 . S
C2629 C2623 1.428 . S
C2629 N2628 1.351 . S
C2629 C2630 1.434 1_556 S
C2630 C2621 1.429 . S
C2630 N2627 1.350 . S
C2630 C2629 1.434 1_554 S
C2631 C2632 1.369 . S
C2631 C2633 1.419 1_554 S
C2631 H2635 0.930 . S
C2632 C2631 1.369 . S
C2632 C2641 1.429 . S
C2633 C2631 1.419 1_556 S
C2633 C2634 1.363 . S
C2633 H2636 0.929 . S
C2634 C2633 1.363 . S
C2634 C2640 1.428 . S
H2635 C2631 0.930 . S
H2636 C2633 0.929 . S
S2637 N2638 1.618 1_556 S
S2637 N2639 1.606 . S
N2638 S2637 1.618 1_554 S
N2638 C2641 1.350 . S
N2639 S2637 1.606 . S
N2639 C2640 1.351 . S
C2640 C2634 1.428 . S
C2640 N2639 1.351 . S
C2640 C2641 1.434 1_556 S
C2641 C2632 1.429 . S
C2641 N2638 1.350 . S
C2641 C2640 1.434 1_554 S
C2642 C2643 1.369 . S
C2642 C2644 1.419 1_554 S
C2642 H2646 0.930 . S
C2643 C2642 1.369 . S
C2643 C2652 1.429 . S
C2644 C2642 1.419 1_556 S
C2644 C2645 1.363 . S
C2644 H2647 0.929 . S
C2645 C2644 1.363 . S
C2645 C2651 1.428 . S
H2646 C2642 0.930 . S
H2647 C2644 0.929 . S
S2648 N2649 1.618 1_556 S
S2648 N2650 1.606 . S
N2649 S2648 1.618 1_554 S
N2649 C2652 1.350 . S
N2650 S2648 1.606 . S
N2650 C2651 1.351 . S
C2651 C2645 1.428 . S
C2651 N2650 1.351 . S
C2651 C2652 1.434 1_556 S
C2652 C2643 1.429 . S
C2652 N2649 1.350 . S
C2652 C2651 1.434 1_554 S
C2653 C2654 1.369 . S
C2653 C2655 1.419 1_556 S
C2653 H2657 0.930 . S
C2654 C2653 1.369 . S
C2654 C2663 1.429 . S
C2655 C2653 1.419 1_554 S
C2655 C2656 1.363 . S
C2655 H2658 0.929 . S
C2656 C2655 1.363 . S
C2656 C2662 1.428 . S
H2657 C2653 0.930 . S
H2658 C2655 0.929 . S
S2659 N2660 1.618 1_554 S
S2659 N2661 1.606 . S
N2660 S2659 1.618 1_556 S
N2660 C2663 1.350 . S
N2661 S2659 1.606 . S
N2661 C2662 1.351 . S
C2662 C2656 1.428 . S
C2662 N2661 1.351 . S
C2662 C2663 1.434 1_554 S
C2663 C2654 1.429 . S
C2663 N2660 1.350 . S
C2663 C2662 1.434 1_556 S
C2664 C2665 1.369 . S
C2664 C2666 1.419 . S
C2664 H2668 0.930 . S
C2665 C2664 1.369 . S
C2665 C2674 1.429 . S
C2666 C2664 1.419 . S
C2666 C2667 1.363 . S
C2666 H2669 0.929 . S
C2667 C2666 1.363 . S
C2667 C2673 1.428 . S
H2668 C2664 0.930 . S
H2669 C2666 0.929 . S
S2670 N2671 1.613 . S
S2670 N2672 1.610 . S
N2671 S2670 1.613 . S
N2671 C2674 1.350 . S
N2672 S2670 1.610 . S
N2672 C2673 1.351 . S
C2673 C2667 1.428 . S
C2673 N2672 1.351 . S
C2673 C2674 1.434 . S
C2674 C2665 1.429 . S
C2674 N2671 1.350 . S
C2674 C2673 1.434 . S
C2675 C2676 1.369 . S
C2675 C2677 1.419 . S
C2675 H2679 0.930 . S
C2676 C2675 1.369 . S
C2676 C2685 1.429 . S
C2677 C2675 1.419 . S
C2677 C2678 1.363 . S
C2677 H2680 0.929 . S
C2678 C2677 1.363 . S
C2678 C2684 1.428 . S
H2679 C2675 0.930 . S
H2680 C2677 0.929 . S
S2681 N2682 1.613 . S
S2681 N2683 1.610 . S
N2682 S2681 1.613 . S
N2682 C2685 1.350 . S
N2683 S2681 1.610 . S
N2683 C2684 1.351 . S
C2684 C2678 1.428 . S
C2684 N2683 1.351 . S
C2684 C2685 1.434 . S
C2685 C2676 1.429 . S
C2685 N2682 1.350 . S
C2685 C2684 1.434 . S
C2686 C2687 1.369 . S
C2686 C2688 1.419 . S
C2686 H2690 0.930 . S
C2687 C2686 1.369 . S
C2687 C2696 1.429 . S
C2688 C2686 1.419 . S
C2688 C2689 1.363 . S
C2688 H2691 0.929 . S
C2689 C2688 1.363 . S
C2689 C2695 1.428 . S
H2690 C2686 0.930 . S
H2691 C2688 0.929 . S
S2692 N2693 1.613 . S
S2692 N2694 1.610 . S
N2693 S2692 1.613 . S
N2693 C2696 1.350 . S
N2694 S2692 1.610 . S
N2694 C2695 1.351 . S
C2695 C2689 1.428 . S
C2695 N2694 1.351 . S
C2695 C2696 1.434 . S
C2696 C2687 1.429 . S
C2696 N2693 1.350 . S
C2696 C2695 1.434 . S
C2697 C2698 1.369 . S
C2697 C2699 1.419 . S
C2697 H2701 0.930 . S
C2698 C2697 1.369 . S
C2698 C2707 1.429 . S
C2699 C2697 1.419 . S
C2699 C2700 1.363 . S
C2699 H2702 0.929 . S
C2700 C2699 1.363 . S
C2700 C2706 1.428 . S
H2701 C2697 0.930 . S
H2702 C2699 0.929 . S
S2703 N2704 1.613 . S
S2703 N2705 1.610 . S
N2704 S2703 1.613 . S
N2704 C2707 1.350 . S
N2705 S2703 1.610 . S
N2705 C2706 1.351 . S
C2706 C2700 1.428 . S
C2706 N2705 1.351 . S
C2706 C2707 1.434 . S
C2707 C2698 1.429 . S
C2707 N2704 1.350 . S
C2707 C2706 1.434 . S
C2708 C2709 1.369 . S
C2708 C2710 1.419 . S
C2708 H2712 0.930 . S
C2709 C2708 1.369 . S
C2709 C2718 1.429 . S
C2710 C2708 1.419 . S
C2710 C2711 1.363 . S
C2710 H2713 0.929 . S
C2711 C2710 1.363 . S
C2711 C2717 1.428 . S
H2712 C2708 0.930 . S
H2713 C2710 0.929 . S
S2714 N2715 1.613 . S
S2714 N2716 1.610 . S
N2715 S2714 1.613 . S
N2715 C2718 1.350 . S
N2716 S2714 1.610 . S
N2716 C2717 1.351 . S
C2717 C2711 1.428 . S
C2717 N2716 1.351 . S
C2717 C2718 1.434 . S
C2718 C2709 1.429 . S
C2718 N2715 1.350 . S
C2718 C2717 1.434 . S
C2719 C2720 1.369 . S
C2719 C2721 1.419 . S
C2719 H2723 0.930 . S
C2720 C2719 1.369 . S
C2720 C2729 1.429 . S
C2721 C2719 1.419 . S
C2721 C2722 1.363 . S
C2721 H2724 0.929 . S
C2722 C2721 1.363 . S
C2722 C2728 1.428 . S
H2723 C2719 0.930 . S
H2724 C2721 0.929 . S
S2725 N2726 1.613 . S
S2725 N2727 1.610 . S
N2726 S2725 1.613 . S
N2726 C2729 1.350 . S
N2727 S2725 1.610 . S
N2727 C2728 1.351 . S
C2728 C2722 1.428 . S
C2728 N2727 1.351 . S
C2728 C2729 1.434 . S
C2729 C2720 1.429 . S
C2729 N2726 1.350 . S
C2729 C2728 1.434 . S
C2730 C2731 1.369 . S
C2730 C2732 1.419 . S
C2730 H2734 0.930 . S
C2731 C2730 1.369 . S
C2731 C2740 1.429 . S
C2732 C2730 1.419 . S
C2732 C2733 1.363 . S
C2732 H2735 0.929 . S
C2733 C2732 1.363 . S
C2733 C2739 1.428 . S
H2734 C2730 0.930 . S
H2735 C2732 0.929 . S
S2736 N2737 1.613 . S
S2736 N2738 1.610 . S
N2737 S2736 1.613 . S
N2737 C2740 1.350 . S
N2738 S2736 1.610 . S
N2738 C2739 1.351 . S
C2739 C2733 1.428 . S
C2739 N2738 1.351 . S
C2739 C2740 1.434 . S
C2740 C2731 1.429 . S
C2740 N2737 1.350 . S
C2740 C2739 1.434 . S
C2741 C2742 1.369 . S
C2741 C2743 1.419 . S
C2741 H2745 0.930 . S
C2742 C2741 1.369 . S
C2742 C2751 1.429 . S
C2743 C2741 1.419 . S
C2743 C2744 1.363 . S
C2743 H2746 0.929 . S
C2744 C2743 1.363 . S
C2744 C2750 1.428 . S
H2745 C2741 0.930 . S
H2746 C2743 0.929 . S
S2747 N2748 1.613 . S
S2747 N2749 1.610 . S
N2748 S2747 1.613 . S
N2748 C2751 1.350 . S
N2749 S2747 1.610 . S
N2749 C2750 1.351 . S
C2750 C2744 1.428 . S
C2750 N2749 1.351 . S
C2750 C2751 1.434 . S
C2751 C2742 1.429 . S
C2751 N2748 1.350 . S
C2751 C2750 1.434 . S
C2752 C2753 1.369 . S
C2752 C2754 1.419 . S
C2752 H2756 0.930 . S
C2753 C2752 1.369 . S
C2753 C2762 1.429 . S
C2754 C2752 1.419 . S
C2754 C2755 1.363 . S
C2754 H2757 0.929 . S
C2755 C2754 1.363 . S
C2755 C2761 1.428 . S
H2756 C2752 0.930 . S
H2757 C2754 0.929 . S
S2758 N2759 1.613 . S
S2758 N2760 1.610 . S
N2759 S2758 1.613 . S
N2759 C2762 1.350 . S
N2760 S2758 1.610 . S
N2760 C2761 1.351 . S
C2761 C2755 1.428 . S
C2761 N2760 1.351 . S
C2761 C2762 1.434 . S
C2762 C2753 1.429 . S
C2762 N2759 1.350 . S
C2762 C2761 1.434 . S
C2763 C2764 1.369 . S
C2763 C2765 1.419 . S
C2763 H2767 0.930 . S
C2764 C2763 1.369 . S
C2764 C2773 1.429 . S
C2765 C2763 1.419 . S
C2765 C2766 1.363 . S
C2765 H2768 0.929 . S
C2766 C2765 1.363 . S
C2766 C2772 1.428 . S
H2767 C2763 0.930 . S
H2768 C2765 0.929 . S
S2769 N2770 1.613 . S
S2769 N2771 1.610 . S
N2770 S2769 1.613 . S
N2770 C2773 1.350 . S
N2771 S2769 1.610 . S
N2771 C2772 1.351 . S
C2772 C2766 1.428 . S
C2772 N2771 1.351 . S
C2772 C2773 1.434 . S
C2773 C2764 1.429 . S
C2773 N2770 1.350 . S
C2773 C2772 1.434 . S
C2774 C2775 1.369 . S
C2774 C2776 1.419 . S
C2774 H2778 0.930 . S
C2775 C2774 1.369 . S
C2775 C2784 1.429 . S
C2776 C2774 1.419 . S
C2776 C2777 1.363 . S
C2776 H2779 0.929 . S
C2777 C2776 1.363 . S
C2777 C2783 1.428 . S
H2778 C2774 0.930 . S
H2779 C2776 0.929 . S
S2780 N2781 1.613 . S
S2780 N2782 1.610 . S
N2781 S2780 1.613 . S
N2781 C2784 1.350 . S
N2782 S2780 1.610 . S
N2782 C2783 1.351 . S
C2783 C2777 1.428 . S
C2783 N2782 1.351 . S
C2783 C2784 1.434 . S
C2784 C2775 1.429 . S
C2784 N2781 1.350 . S
C2784 C2783 1.434 . S
C2785 C2786 1.369 . S
C2785 C2787 1.419 . S
C2785 H2789 0.930 . S
C2786 C2785 1.369 . S
C2786 C2795 1.429 . S
C2787 C2785 1.419 . S
C2787 C2788 1.363 . S
C2787 H2790 0.929 . S
C2788 C2787 1.363 . S
C2788 C2794 1.428 . S
H2789 C2785 0.930 . S
H2790 C2787 0.929 . S
S2791 N2792 1.613 . S
S2791 N2793 1.610 . S
N2792 S2791 1.613 . S
N2792 C2795 1.350 . S
N2793 S2791 1.610 . S
N2793 C2794 1.351 . S
C2794 C2788 1.428 . S
C2794 N2793 1.351 . S
C2794 C2795 1.434 . S
C2795 C2786 1.429 . S
C2795 N2792 1.350 . S
C2795 C2794 1.434 . S
C2796 C2797 1.369 . S
C2796 C2798 1.419 . S
C2796 H2800 0.930 . S
C2797 C2796 1.369 . S
C2797 C2806 1.429 . S
C2798 C2796 1.419 . S
C2798 C2799 1.363 . S
C2798 H2801 0.929 . S
C2799 C2798 1.363 . S
C2799 C2805 1.428 . S
H2800 C2796 0.930 . S
H2801 C2798 0.929 . S
S2802 N2803 1.613 . S
S2802 N2804 1.610 . S
N2803 S2802 1.613 . S
N2803 C2806 1.350 . S
N2804 S2802 1.610 . S
N2804 C2805 1.351 . S
C2805 C2799 1.428 . S
C2805 N2804 1.351 . S
C2805 C2806 1.434 . S
C2806 C2797 1.429 . S
C2806 N2803 1.350 . S
C2806 C2805 1.434 . S
C2807 C2808 1.369 . S
C2807 C2809 1.419 . S
C2807 H2811 0.930 . S
C2808 C2807 1.369 . S
C2808 C2817 1.429 . S
C2809 C2807 1.419 . S
C2809 C2810 1.363 . S
C2809 H2812 0.929 . S
C2810 C2809 1.363 . S
C2810 C2816 1.428 . S
H2811 C2807 0.930 . S
H2812 C2809 0.929 . S
S2813 N2814 1.613 . S
S2813 N2815 1.610 . S
N2814 S2813 1.613 . S
N2814 C2817 1.350 . S
N2815 S2813 1.610 . S
N2815 C2816 1.351 . S
C2816 C2810 1.428 . S
C2816 N2815 1.351 . S
C2816 C2817 1.434 . S
C2817 C2808 1.429 . S
C2817 N2814 1.350 . S
C2817 C2816 1.434 . S
C2818 C2819 1.369 . S
C2818 C2820 1.419 . S
C2818 H2822 0.930 . S
C2819 C2818 1.369 . S
C2819 C2828 1.429 . S
C2820 C2818 1.419 . S
C2820 C2821 1.363 . S
C2820 H2823 0.929 . S
C2821 C2820 1.363 . S
C2821 C2827 1.428 . S
H2822 C2818 0.930 . S
H2823 C2820 0.929 . S
S2824 N2825 1.613 . S
S2824 N2826 1.610 . S
N2825 S2824 1.613 . S
N2825 C2828 1.350 . S
N2826 S2824 1.610 . S
N2826 C2827 1.351 . S
C2827 C2821 1.428 . S
C2827 N2826 1.351 . S
C2827 C2828 1.434 . S
C2828 C2819 1.429 . S
C2828 N2825 1.350 . S
C2828 C2827 1.434 . S
C2829 C2830 1.369 . S
C2829 C2831 1.419 . S
C2829 H2833 0.930 . S
C2830 C2829 1.369 . S
C2830 C2839 1.429 . S
C2831 C2829 1.419 . S
C2831 C2832 1.363 . S
C2831 H2834 0.929 . S
C2832 C2831 1.363 . S
C2832 C2838 1.428 . S
H2833 C2829 0.930 . S
H2834 C2831 0.929 . S
S2835 N2836 1.613 . S
S2835 N2837 1.610 . S
N2836 S2835 1.613 . S
N2836 C2839 1.350 . S
N2837 S2835 1.610 . S
N2837 C2838 1.351 . S
C2838 C2832 1.428 . S
C2838 N2837 1.351 . S
C2838 C2839 1.434 . S
C2839 C2830 1.429 . S
C2839 N2836 1.350 . S
C2839 C2838 1.434 . S
C2840 C2841 1.369 . S
C2840 C2842 1.419 . S
C2840 H2844 0.930 . S
C2841 C2840 1.369 . S
C2841 C2850 1.429 . S
C2842 C2840 1.419 . S
C2842 C2843 1.363 . S
C2842 H2845 0.929 . S
C2843 C2842 1.363 . S
C2843 C2849 1.428 . S
H2844 C2840 0.930 . S
H2845 C2842 0.929 . S
S2846 N2847 1.613 . S
S2846 N2848 1.610 . S
N2847 S2846 1.613 . S
N2847 C2850 1.350 . S
N2848 S2846 1.610 . S
N2848 C2849 1.351 . S
C2849 C2843 1.428 . S
C2849 N2848 1.351 . S
C2849 C2850 1.434 . S
C2850 C2841 1.429 . S
C2850 N2847 1.350 . S
C2850 C2849 1.434 . S
C2851 C2852 1.369 . S
C2851 C2853 1.419 . S
C2851 H2855 0.930 . S
C2852 C2851 1.369 . S
C2852 C2861 1.429 . S
C2853 C2851 1.419 . S
C2853 C2854 1.363 . S
C2853 H2856 0.929 . S
C2854 C2853 1.363 . S
C2854 C2860 1.428 . S
H2855 C2851 0.930 . S
H2856 C2853 0.929 . S
S2857 N2858 1.613 . S
S2857 N2859 1.610 . S
N2858 S2857 1.613 . S
N2858 C2861 1.350 . S
N2859 S2857 1.610 . S
N2859 C2860 1.351 . S
C2860 C2854 1.428 . S
C2860 N2859 1.351 . S
C2860 C2861 1.434 . S
C2861 C2852 1.429 . S
C2861 N2858 1.350 . S
C2861 C2860 1.434 . S
C2862 C2863 1.369 . S
C2862 C2864 1.419 . S
C2862 H2866 0.930 . S
C2863 C2862 1.369 . S
C2863 C2872 1.429 . S
C2864 C2862 1.419 . S
C2864 C2865 1.363 . S
C2864 H2867 0.929 . S
C2865 C2864 1.363 . S
C2865 C2871 1.428 . S
H2866 C2862 0.930 . S
H2867 C2864 0.929 . S
S2868 N2869 1.613 . S
S2868 N2870 1.610 . S
N2869 S2868 1.613 . S
N2869 C2872 1.350 . S
N2870 S2868 1.610 . S
N2870 C2871 1.351 . S
C2871 C2865 1.428 . S
C2871 N2870 1.351 . S
C2871 C2872 1.434 . S
C2872 C2863 1.429 . S
C2872 N2869 1.350 . S
C2872 C2871 1.434 . S
C2873 C2874 1.369 . S
C2873 C2875 1.419 . S
C2873 H2877 0.930 . S
C2874 C2873 1.369 . S
C2874 C2883 1.429 . S
C2875 C2873 1.419 . S
C2875 C2876 1.363 . S
C2875 H2878 0.929 . S
C2876 C2875 1.363 . S
C2876 C2882 1.428 . S
H2877 C2873 0.930 . S
H2878 C2875 0.929 . S
S2879 N2880 1.613 . S
S2879 N2881 1.610 . S
N2880 S2879 1.613 . S
N2880 C2883 1.350 . S
N2881 S2879 1.610 . S
N2881 C2882 1.351 . S
C2882 C2876 1.428 . S
C2882 N2881 1.351 . S
C2882 C2883 1.434 . S
C2883 C2874 1.429 . S
C2883 N2880 1.350 . S
C2883 C2882 1.434 . S
C2884 C2885 1.369 . S
C2884 C2886 1.419 . S
C2884 H2888 0.930 . S
C2885 C2884 1.369 . S
C2885 C2894 1.429 . S
C2886 C2884 1.419 . S
C2886 C2887 1.363 . S
C2886 H2889 0.929 . S
C2887 C2886 1.363 . S
C2887 C2893 1.428 . S
H2888 C2884 0.930 . S
H2889 C2886 0.929 . S
S2890 N2891 1.613 . S
S2890 N2892 1.610 . S
N2891 S2890 1.613 . S
N2891 C2894 1.350 . S
N2892 S2890 1.610 . S
N2892 C2893 1.351 . S
C2893 C2887 1.428 . S
C2893 N2892 1.351 . S
C2893 C2894 1.434 . S
C2894 C2885 1.429 . S
C2894 N2891 1.350 . S
C2894 C2893 1.434 . S
C2895 C2896 1.369 . S
C2895 C2897 1.419 . S
C2895 H2899 0.930 . S
C2896 C2895 1.369 . S
C2896 C2905 1.429 . S
C2897 C2895 1.419 . S
C2897 C2898 1.363 . S
C2897 H2900 0.929 . S
C2898 C2897 1.363 . S
C2898 C2904 1.428 . S
H2899 C2895 0.930 . S
H2900 C2897 0.929 . S
S2901 N2902 1.613 . S
S2901 N2903 1.610 . S
N2902 S2901 1.613 . S
N2902 C2905 1.350 . S
N2903 S2901 1.610 . S
N2903 C2904 1.351 . S
C2904 C2898 1.428 . S
C2904 N2903 1.351 . S
C2904 C2905 1.434 . S
C2905 C2896 1.429 . S
C2905 N2902 1.350 . S
C2905 C2904 1.434 . S
C2906 C2907 1.369 . S
C2906 C2908 1.419 . S
C2906 H2910 0.930 . S
C2907 C2906 1.369 . S
C2907 C2916 1.429 . S
C2908 C2906 1.419 . S
C2908 C2909 1.363 . S
C2908 H2911 0.929 . S
C2909 C2908 1.363 . S
C2909 C2915 1.428 . S
H2910 C2906 0.930 . S
H2911 C2908 0.929 . S
S2912 N2913 1.613 . S
S2912 N2914 1.610 . S
N2913 S2912 1.613 . S
N2913 C2916 1.350 . S
N2914 S2912 1.610 . S
N2914 C2915 1.351 . S
C2915 C2909 1.428 . S
C2915 N2914 1.351 . S
C2915 C2916 1.434 . S
C2916 C2907 1.429 . S
C2916 N2913 1.350 . S
C2916 C2915 1.434 . S
C2917 C2918 1.369 . S
C2917 C2919 1.419 . S
C2917 H2921 0.930 . S
C2918 C2917 1.369 . S
C2918 C2927 1.429 . S
C2919 C2917 1.419 . S
C2919 C2920 1.363 . S
C2919 H2922 0.929 . S
C2920 C2919 1.363 . S
C2920 C2926 1.428 . S
H2921 C2917 0.930 . S
H2922 C2919 0.929 . S
S2923 N2924 1.613 . S
S2923 N2925 1.610 . S
N2924 S2923 1.613 . S
N2924 C2927 1.350 . S
N2925 S2923 1.610 . S
N2925 C2926 1.351 . S
C2926 C2920 1.428 . S
C2926 N2925 1.351 . S
C2926 C2927 1.434 . S
C2927 C2918 1.429 . S
C2927 N2924 1.350 . S
C2927 C2926 1.434 . S
C2928 C2929 1.369 . S
C2928 C2930 1.419 . S
C2928 H2932 0.930 . S
C2929 C2928 1.369 . S
C2929 C2938 1.429 . S
C2930 C2928 1.419 . S
C2930 C2931 1.363 . S
C2930 H2933 0.929 . S
C2931 C2930 1.363 . S
C2931 C2937 1.428 . S
H2932 C2928 0.930 . S
H2933 C2930 0.929 . S
S2934 N2935 1.613 . S
S2934 N2936 1.610 . S
N2935 S2934 1.613 . S
N2935 C2938 1.350 . S
N2936 S2934 1.610 . S
N2936 C2937 1.351 . S
C2937 C2931 1.428 . S
C2937 N2936 1.351 . S
C2937 C2938 1.434 . S
C2938 C2929 1.429 . S
C2938 N2935 1.350 . S
C2938 C2937 1.434 . S
C2939 C2940 1.369 . S
C2939 C2941 1.419 . S
C2939 H2943 0.930 . S
C2940 C2939 1.369 . S
C2940 C2949 1.429 . S
C2941 C2939 1.419 . S
C2941 C2942 1.363 . S
C2941 H2944 0.929 . S
C2942 C2941 1.363 . S
C2942 C2948 1.428 . S
H2943 C2939 0.930 . S
H2944 C2941 0.929 . S
S2945 N2946 1.613 . S
S2945 N2947 1.610 . S
N2946 S2945 1.613 . S
N2946 C2949 1.350 . S
N2947 S2945 1.610 . S
N2947 C2948 1.351 . S
C2948 C2942 1.428 . S
C2948 N2947 1.351 . S
C2948 C2949 1.434 . S
C2949 C2940 1.429 . S
C2949 N2946 1.350 . S
C2949 C2948 1.434 . S
C2950 C2951 1.369 . S
C2950 C2952 1.419 . S
C2950 H2954 0.930 . S
C2951 C2950 1.369 . S
C2951 C2960 1.429 . S
C2952 C2950 1.419 . S
C2952 C2953 1.363 . S
C2952 H2955 0.929 . S
C2953 C2952 1.363 . S
C2953 C2959 1.428 . S
H2954 C2950 0.930 . S
H2955 C2952 0.929 . S
S2956 N2957 1.613 . S
S2956 N2958 1.610 . S
N2957 S2956 1.613 . S
N2957 C2960 1.350 . S
N2958 S2956 1.610 . S
N2958 C2959 1.351 . S
C2959 C2953 1.428 . S
C2959 N2958 1.351 . S
C2959 C2960 1.434 . S
C2960 C2951 1.429 . S
C2960 N2957 1.350 . S
C2960 C2959 1.434 . S
C2961 C2962 1.369 . S
C2961 C2963 1.419 . S
C2961 H2965 0.930 . S
C2962 C2961 1.369 . S
C2962 C2971 1.429 . S
C2963 C2961 1.419 . S
C2963 C2964 1.363 . S
C2963 H2966 0.929 . S
C2964 C2963 1.363 . S
C2964 C2970 1.428 . S
H2965 C2961 0.930 . S
H2966 C2963 0.929 . S
S2967 N2968 1.613 . S
S2967 N2969 1.610 . S
N2968 S2967 1.613 . S
N2968 C2971 1.350 . S
N2969 S2967 1.610 . S
N2969 C2970 1.351 . S
C2970 C2964 1.428 . S
C2970 N2969 1.351 . S
C2970 C2971 1.434 . S
C2971 C2962 1.429 . S
C2971 N2968 1.350 . S
C2971 C2970 1.434 . S
C2972 C2973 1.369 . S
C2972 C2974 1.419 . S
C2972 H2976 0.930 . S
C2973 C2972 1.369 . S
C2973 C2982 1.429 . S
C2974 C2972 1.419 . S
C2974 C2975 1.363 . S
C2974 H2977 0.929 . S
C2975 C2974 1.363 . S
C2975 C2981 1.428 . S
H2976 C2972 0.930 . S
H2977 C2974 0.929 . S
S2978 N2979 1.613 . S
S2978 N2980 1.610 . S
N2979 S2978 1.613 . S
N2979 C2982 1.350 . S
N2980 S2978 1.610 . S
N2980 C2981 1.351 . S
C2981 C2975 1.428 . S
C2981 N2980 1.351 . S
C2981 C2982 1.434 . S
C2982 C2973 1.429 . S
C2982 N2979 1.350 . S
C2982 C2981 1.434 . S
C2983 C2984 1.369 . S
C2983 C2985 1.419 . S
C2983 H2987 0.930 . S
C2984 C2983 1.369 . S
C2984 C2993 1.429 . S
C2985 C2983 1.419 . S
C2985 C2986 1.363 . S
C2985 H2988 0.929 . S
C2986 C2985 1.363 . S
C2986 C2992 1.428 . S
H2987 C2983 0.930 . S
H2988 C2985 0.929 . S
S2989 N2990 1.613 . S
S2989 N2991 1.610 . S
N2990 S2989 1.613 . S
N2990 C2993 1.350 . S
N2991 S2989 1.610 . S
N2991 C2992 1.351 . S
C2992 C2986 1.428 . S
C2992 N2991 1.351 . S
C2992 C2993 1.434 . S
C2993 C2984 1.429 . S
C2993 N2990 1.350 . S
C2993 C2992 1.434 . S
C2994 C2995 1.369 . S
C2994 C2996 1.419 . S
C2994 H2998 0.930 . S
C2995 C2994 1.369 . S
C2995 C3004 1.429 . S
C2996 C2994 1.419 . S
C2996 C2997 1.363 . S
C2996 H2999 0.929 . S
C2997 C2996 1.363 . S
C2997 C3003 1.428 . S
H2998 C2994 0.930 . S
H2999 C2996 0.929 . S
S3000 N3001 1.613 . S
S3000 N3002 1.610 . S
N3001 S3000 1.613 . S
N3001 C3004 1.350 . S
N3002 S3000 1.610 . S
N3002 C3003 1.351 . S
C3003 C2997 1.428 . S
C3003 N3002 1.351 . S
C3003 C3004 1.434 . S
C3004 C2995 1.429 . S
C3004 N3001 1.350 . S
C3004 C3003 1.434 . S
C3005 C3006 1.369 . S
C3005 C3007 1.419 . S
C3005 H3009 0.930 . S
C3006 C3005 1.369 . S
C3006 C3015 1.429 . S
C3007 C3005 1.419 . S
C3007 C3008 1.363 . S
C3007 H3010 0.929 . S
C3008 C3007 1.363 . S
C3008 C3014 1.428 . S
H3009 C3005 0.930 . S
H3010 C3007 0.929 . S
S3011 N3012 1.613 . S
S3011 N3013 1.610 . S
N3012 S3011 1.613 . S
N3012 C3015 1.350 . S
N3013 S3011 1.610 . S
N3013 C3014 1.351 . S
C3014 C3008 1.428 . S
C3014 N3013 1.351 . S
C3014 C3015 1.434 . S
C3015 C3006 1.429 . S
C3015 N3012 1.350 . S
C3015 C3014 1.434 . S
C3016 C3017 1.369 . S
C3016 C3018 1.419 . S
C3016 H3020 0.930 . S
C3017 C3016 1.369 . S
C3017 C3026 1.429 . S
C3018 C3016 1.419 . S
C3018 C3019 1.363 . S
C3018 H3021 0.929 . S
C3019 C3018 1.363 . S
C3019 C3025 1.428 . S
H3020 C3016 0.930 . S
H3021 C3018 0.929 . S
S3022 N3023 1.613 . S
S3022 N3024 1.610 . S
N3023 S3022 1.613 . S
N3023 C3026 1.350 . S
N3024 S3022 1.610 . S
N3024 C3025 1.351 . S
C3025 C3019 1.428 . S
C3025 N3024 1.351 . S
C3025 C3026 1.434 . S
C3026 C3017 1.429 . S
C3026 N3023 1.350 . S
C3026 C3025 1.434 . S
C3027 C3028 1.369 . S
C3027 C3029 1.419 . S
C3027 H3031 0.930 . S
C3028 C3027 1.369 . S
C3028 C3037 1.429 . S
C3029 C3027 1.419 . S
C3029 C3030 1.363 . S
C3029 H3032 0.929 . S
C3030 C3029 1.363 . S
C3030 C3036 1.428 . S
H3031 C3027 0.930 . S
H3032 C3029 0.929 . S
S3033 N3034 1.613 . S
S3033 N3035 1.610 . S
N3034 S3033 1.613 . S
N3034 C3037 1.350 . S
N3035 S3033 1.610 . S
N3035 C3036 1.351 . S
C3036 C3030 1.428 . S
C3036 N3035 1.351 . S
C3036 C3037 1.434 . S
C3037 C3028 1.429 . S
C3037 N3034 1.350 . S
C3037 C3036 1.434 . S
C3038 C3039 1.369 . S
C3038 C3040 1.419 . S
C3038 H3042 0.930 . S
C3039 C3038 1.369 . S
C3039 C3048 1.429 . S
C3040 C3038 1.419 . S
C3040 C3041 1.363 . S
C3040 H3043 0.929 . S
C3041 C3040 1.363 . S
C3041 C3047 1.428 . S
H3042 C3038 0.930 . S
H3043 C3040 0.929 . S
S3044 N3045 1.613 . S
S3044 N3046 1.610 . S
N3045 S3044 1.613 . S
N3045 C3048 1.350 . S
N3046 S3044 1.610 . S
N3046 C3047 1.351 . S
C3047 C3041 1.428 . S
C3047 N3046 1.351 . S
C3047 C3048 1.434 . S
C3048 C3039 1.429 . S
C3048 N3045 1.350 . S
C3048 C3047 1.434 . S
C3049 C3050 1.369 . S
C3049 C3051 1.419 . S
C3049 H3053 0.930 . S
C3050 C3049 1.369 . S
C3050 C3059 1.429 . S
C3051 C3049 1.419 . S
C3051 C3052 1.363 . S
C3051 H3054 0.929 . S
C3052 C3051 1.363 . S
C3052 C3058 1.428 . S
H3053 C3049 0.930 . S
H3054 C3051 0.929 . S
S3055 N3056 1.613 . S
S3055 N3057 1.610 . S
N3056 S3055 1.613 . S
N3056 C3059 1.350 . S
N3057 S3055 1.610 . S
N3057 C3058 1.351 . S
C3058 C3052 1.428 . S
C3058 N3057 1.351 . S
C3058 C3059 1.434 . S
C3059 C3050 1.429 . S
C3059 N3056 1.350 . S
C3059 C3058 1.434 . S
C3060 C3061 1.369 . S
C3060 C3062 1.419 . S
C3060 H3064 0.930 . S
C3061 C3060 1.369 . S
C3061 C3070 1.429 . S
C3062 C3060 1.419 . S
C3062 C3063 1.363 . S
C3062 H3065 0.929 . S
C3063 C3062 1.363 . S
C3063 C3069 1.428 . S
H3064 C3060 0.930 . S
H3065 C3062 0.929 . S
S3066 N3067 1.613 . S
S3066 N3068 1.610 . S
N3067 S3066 1.613 . S
N3067 C3070 1.350 . S
N3068 S3066 1.610 . S
N3068 C3069 1.351 . S
C3069 C3063 1.428 . S
C3069 N3068 1.351 . S
C3069 C3070 1.434 . S
C3070 C3061 1.429 . S
C3070 N3067 1.350 . S
C3070 C3069 1.434 . S
C3071 C3072 1.369 . S
C3071 C3073 1.419 . S
C3071 H3075 0.930 . S
C3072 C3071 1.369 . S
C3072 C3081 1.429 . S
C3073 C3071 1.419 . S
C3073 C3074 1.363 . S
C3073 H3076 0.929 . S
C3074 C3073 1.363 . S
C3074 C3080 1.428 . S
H3075 C3071 0.930 . S
H3076 C3073 0.929 . S
S3077 N3078 1.613 . S
S3077 N3079 1.610 . S
N3078 S3077 1.613 . S
N3078 C3081 1.350 . S
N3079 S3077 1.610 . S
N3079 C3080 1.351 . S
C3080 C3074 1.428 . S
C3080 N3079 1.351 . S
C3080 C3081 1.434 . S
C3081 C3072 1.429 . S
C3081 N3078 1.350 . S
C3081 C3080 1.434 . S
C3082 C3083 1.369 . S
C3082 C3084 1.419 . S
C3082 H3086 0.930 . S
C3083 C3082 1.369 . S
C3083 C3092 1.429 . S
C3084 C3082 1.419 . S
C3084 C3085 1.363 . S
C3084 H3087 0.929 . S
C3085 C3084 1.363 . S
C3085 C3091 1.428 . S
H3086 C3082 0.930 . S
H3087 C3084 0.929 . S
S3088 N3089 1.613 . S
S3088 N3090 1.610 . S
N3089 S3088 1.613 . S
N3089 C3092 1.350 . S
N3090 S3088 1.610 . S
N3090 C3091 1.351 . S
C3091 C3085 1.428 . S
C3091 N3090 1.351 . S
C3091 C3092 1.434 . S
C3092 C3083 1.429 . S
C3092 N3089 1.350 . S
C3092 C3091 1.434 . S
C3093 C3094 1.369 . S
C3093 C3095 1.419 . S
C3093 H3097 0.930 . S
C3094 C3093 1.369 . S
C3094 C3103 1.429 . S
C3095 C3093 1.419 . S
C3095 C3096 1.363 . S
C3095 H3098 0.929 . S
C3096 C3095 1.363 . S
C3096 C3102 1.428 . S
H3097 C3093 0.930 . S
H3098 C3095 0.929 . S
S3099 N3100 1.613 . S
S3099 N3101 1.610 . S
N3100 S3099 1.613 . S
N3100 C3103 1.350 . S
N3101 S3099 1.610 . S
N3101 C3102 1.351 . S
C3102 C3096 1.428 . S
C3102 N3101 1.351 . S
C3102 C3103 1.434 . S
C3103 C3094 1.429 . S
C3103 N3100 1.350 . S
C3103 C3102 1.434 . S
C3104 C3105 1.369 . S
C3104 C3106 1.419 . S
C3104 H3108 0.930 . S
C3105 C3104 1.369 . S
C3105 C3114 1.429 . S
C3106 C3104 1.419 . S
C3106 C3107 1.363 . S
C3106 H3109 0.929 . S
C3107 C3106 1.363 . S
C3107 C3113 1.428 . S
H3108 C3104 0.930 . S
H3109 C3106 0.929 . S
S3110 N3111 1.613 . S
S3110 N3112 1.610 . S
N3111 S3110 1.613 . S
N3111 C3114 1.350 . S
N3112 S3110 1.610 . S
N3112 C3113 1.351 . S
C3113 C3107 1.428 . S
C3113 N3112 1.351 . S
C3113 C3114 1.434 . S
C3114 C3105 1.429 . S
C3114 N3111 1.350 . S
C3114 C3113 1.434 . S
C3115 C3116 1.369 . S
C3115 C3117 1.419 . S
C3115 H3119 0.930 . S
C3116 C3115 1.369 . S
C3116 C3125 1.429 . S
C3117 C3115 1.419 . S
C3117 C3118 1.363 . S
C3117 H3120 0.929 . S
C3118 C3117 1.363 . S
C3118 C3124 1.428 . S
H3119 C3115 0.930 . S
H3120 C3117 0.929 . S
S3121 N3122 1.613 . S
S3121 N3123 1.610 . S
N3122 S3121 1.613 . S
N3122 C3125 1.350 . S
N3123 S3121 1.610 . S
N3123 C3124 1.351 . S
C3124 C3118 1.428 . S
C3124 N3123 1.351 . S
C3124 C3125 1.434 . S
C3125 C3116 1.429 . S
C3125 N3122 1.350 . S
C3125 C3124 1.434 . S
C3126 C3127 1.369 . S
C3126 C3128 1.419 . S
C3126 H3130 0.930 . S
C3127 C3126 1.369 . S
C3127 C3136 1.429 . S
C3128 C3126 1.419 . S
C3128 C3129 1.363 . S
C3128 H3131 0.929 . S
C3129 C3128 1.363 . S
C3129 C3135 1.428 . S
H3130 C3126 0.930 . S
H3131 C3128 0.929 . S
S3132 N3133 1.613 . S
S3132 N3134 1.610 . S
N3133 S3132 1.613 . S
N3133 C3136 1.350 . S
N3134 S3132 1.610 . S
N3134 C3135 1.351 . S
C3135 C3129 1.428 . S
C3135 N3134 1.351 . S
C3135 C3136 1.434 . S
C3136 C3127 1.429 . S
C3136 N3133 1.350 . S
C3136 C3135 1.434 . S
C3137 C3138 1.369 . S
C3137 C3139 1.419 . S
C3137 H3141 0.930 . S
C3138 C3137 1.369 . S
C3138 C3147 1.429 . S
C3139 C3137 1.419 . S
C3139 C3140 1.363 . S
C3139 H3142 0.929 . S
C3140 C3139 1.363 . S
C3140 C3146 1.428 . S
H3141 C3137 0.930 . S
H3142 C3139 0.929 . S
S3143 N3144 1.613 . S
S3143 N3145 1.610 . S
N3144 S3143 1.613 . S
N3144 C3147 1.350 . S
N3145 S3143 1.610 . S
N3145 C3146 1.351 . S
C3146 C3140 1.428 . S
C3146 N3145 1.351 . S
C3146 C3147 1.434 . S
C3147 C3138 1.429 . S
C3147 N3144 1.350 . S
C3147 C3146 1.434 . S
C3148 C3149 1.369 . S
C3148 C3150 1.419 . S
C3148 H3152 0.930 . S
C3149 C3148 1.369 . S
C3149 C3158 1.429 . S
C3150 C3148 1.419 . S
C3150 C3151 1.363 . S
C3150 H3153 0.929 . S
C3151 C3150 1.363 . S
C3151 C3157 1.428 . S
H3152 C3148 0.930 . S
H3153 C3150 0.929 . S
S3154 N3155 1.613 . S
S3154 N3156 1.610 . S
N3155 S3154 1.613 . S
N3155 C3158 1.350 . S
N3156 S3154 1.610 . S
N3156 C3157 1.351 . S
C3157 C3151 1.428 . S
C3157 N3156 1.351 . S
C3157 C3158 1.434 . S
C3158 C3149 1.429 . S
C3158 N3155 1.350 . S
C3158 C3157 1.434 . S
C3159 C3160 1.369 . S
C3159 C3161 1.419 . S
C3159 H3163 0.930 . S
C3160 C3159 1.369 . S
C3160 C3169 1.429 . S
C3161 C3159 1.419 . S
C3161 C3162 1.363 . S
C3161 H3164 0.929 . S
C3162 C3161 1.363 . S
C3162 C3168 1.428 . S
H3163 C3159 0.930 . S
H3164 C3161 0.929 . S
S3165 N3166 1.613 . S
S3165 N3167 1.610 . S
N3166 S3165 1.613 . S
N3166 C3169 1.350 . S
N3167 S3165 1.610 . S
N3167 C3168 1.351 . S
C3168 C3162 1.428 . S
C3168 N3167 1.351 . S
C3168 C3169 1.434 . S
C3169 C3160 1.429 . S
C3169 N3166 1.350 . S
C3169 C3168 1.434 . S
C3170 C3171 1.369 . S
C3170 C3172 1.419 . S
C3170 H3174 0.930 . S
C3171 C3170 1.369 . S
C3171 C3180 1.429 . S
C3172 C3170 1.419 . S
C3172 C3173 1.363 . S
C3172 H3175 0.929 . S
C3173 C3172 1.363 . S
C3173 C3179 1.428 . S
H3174 C3170 0.930 . S
H3175 C3172 0.929 . S
S3176 N3177 1.613 . S
S3176 N3178 1.610 . S
N3177 S3176 1.613 . S
N3177 C3180 1.350 . S
N3178 S3176 1.610 . S
N3178 C3179 1.351 . S
C3179 C3173 1.428 . S
C3179 N3178 1.351 . S
C3179 C3180 1.434 . S
C3180 C3171 1.429 . S
C3180 N3177 1.350 . S
C3180 C3179 1.434 . S
C3181 C3182 1.369 . S
C3181 C3183 1.419 . S
C3181 H3185 0.930 . S
C3182 C3181 1.369 . S
C3182 C3191 1.429 . S
C3183 C3181 1.419 . S
C3183 C3184 1.363 . S
C3183 H3186 0.929 . S
C3184 C3183 1.363 . S
C3184 C3190 1.428 . S
H3185 C3181 0.930 . S
H3186 C3183 0.929 . S
S3187 N3188 1.613 . S
S3187 N3189 1.610 . S
N3188 S3187 1.613 . S
N3188 C3191 1.350 . S
N3189 S3187 1.610 . S
N3189 C3190 1.351 . S
C3190 C3184 1.428 . S
C3190 N3189 1.351 . S
C3190 C3191 1.434 . S
C3191 C3182 1.429 . S
C3191 N3188 1.350 . S
C3191 C3190 1.434 . S
C3192 C3193 1.369 . S
C3192 C3194 1.419 . S
C3192 H3196 0.930 . S
C3193 C3192 1.369 . S
C3193 C3202 1.429 . S
C3194 C3192 1.419 . S
C3194 C3195 1.363 . S
C3194 H3197 0.929 . S
C3195 C3194 1.363 . S
C3195 C3201 1.428 . S
H3196 C3192 0.930 . S
H3197 C3194 0.929 . S
S3198 N3199 1.613 . S
S3198 N3200 1.610 . S
N3199 S3198 1.613 . S
N3199 C3202 1.350 . S
N3200 S3198 1.610 . S
N3200 C3201 1.351 . S
C3201 C3195 1.428 . S
C3201 N3200 1.351 . S
C3201 C3202 1.434 . S
C3202 C3193 1.429 . S
C3202 N3199 1.350 . S
C3202 C3201 1.434 . S
C3203 C3204 1.369 . S
C3203 C3205 1.419 . S
C3203 H3207 0.930 . S
C3204 C3203 1.369 . S
C3204 C3213 1.429 . S
C3205 C3203 1.419 . S
C3205 C3206 1.363 . S
C3205 H3208 0.929 . S
C3206 C3205 1.363 . S
C3206 C3212 1.428 . S
H3207 C3203 0.930 . S
H3208 C3205 0.929 . S
S3209 N3210 1.613 . S
S3209 N3211 1.610 . S
N3210 S3209 1.613 . S
N3210 C3213 1.350 . S
N3211 S3209 1.610 . S
N3211 C3212 1.351 . S
C3212 C3206 1.428 . S
C3212 N3211 1.351 . S
C3212 C3213 1.434 . S
C3213 C3204 1.429 . S
C3213 N3210 1.350 . S
C3213 C3212 1.434 . S
C3214 C3215 1.369 . S
C3214 C3216 1.419 . S
C3214 H3218 0.930 . S
C3215 C3214 1.369 . S
C3215 C3224 1.429 . S
C3216 C3214 1.419 . S
C3216 C3217 1.363 . S
C3216 H3219 0.929 . S
C3217 C3216 1.363 . S
C3217 C3223 1.428 . S
H3218 C3214 0.930 . S
H3219 C3216 0.929 . S
S3220 N3221 1.613 . S
S3220 N3222 1.610 . S
N3221 S3220 1.613 . S
N3221 C3224 1.350 . S
N3222 S3220 1.610 . S
N3222 C3223 1.351 . S
C3223 C3217 1.428 . S
C3223 N3222 1.351 . S
C3223 C3224 1.434 . S
C3224 C3215 1.429 . S
C3224 N3221 1.350 . S
C3224 C3223 1.434 . S
C3225 C3226 1.369 . S
C3225 C3227 1.419 . S
C3225 H3229 0.930 . S
C3226 C3225 1.369 . S
C3226 C3235 1.429 . S
C3227 C3225 1.419 . S
C3227 C3228 1.363 . S
C3227 H3230 0.929 . S
C3228 C3227 1.363 . S
C3228 C3234 1.428 . S
H3229 C3225 0.930 . S
H3230 C3227 0.929 . S
S3231 N3232 1.613 . S
S3231 N3233 1.610 . S
N3232 S3231 1.613 . S
N3232 C3235 1.350 . S
N3233 S3231 1.610 . S
N3233 C3234 1.351 . S
C3234 C3228 1.428 . S
C3234 N3233 1.351 . S
C3234 C3235 1.434 . S
C3235 C3226 1.429 . S
C3235 N3232 1.350 . S
C3235 C3234 1.434 . S
C3236 C3237 1.369 . S
C3236 C3238 1.419 . S
C3236 H3240 0.930 . S
C3237 C3236 1.369 . S
C3237 C3246 1.429 . S
C3238 C3236 1.419 . S
C3238 C3239 1.363 . S
C3238 H3241 0.929 . S
C3239 C3238 1.363 . S
C3239 C3245 1.428 . S
H3240 C3236 0.930 . S
H3241 C3238 0.929 . S
S3242 N3243 1.613 . S
S3242 N3244 1.610 . S
N3243 S3242 1.613 . S
N3243 C3246 1.350 . S
N3244 S3242 1.610 . S
N3244 C3245 1.351 . S
C3245 C3239 1.428 . S
C3245 N3244 1.351 . S
C3245 C3246 1.434 . S
C3246 C3237 1.429 . S
C3246 N3243 1.350 . S
C3246 C3245 1.434 . S
C3247 C3248 1.369 . S
C3247 C3249 1.419 . S
C3247 H3251 0.930 . S
C3248 C3247 1.369 . S
C3248 C3257 1.429 . S
C3249 C3247 1.419 . S
C3249 C3250 1.363 . S
C3249 H3252 0.929 . S
C3250 C3249 1.363 . S
C3250 C3256 1.428 . S
H3251 C3247 0.930 . S
H3252 C3249 0.929 . S
S3253 N3254 1.613 . S
S3253 N3255 1.610 . S
N3254 S3253 1.613 . S
N3254 C3257 1.350 . S
N3255 S3253 1.610 . S
N3255 C3256 1.351 . S
C3256 C3250 1.428 . S
C3256 N3255 1.351 . S
C3256 C3257 1.434 . S
C3257 C3248 1.429 . S
C3257 N3254 1.350 . S
C3257 C3256 1.434 . S
C3258 C3259 1.369 . S
C3258 C3260 1.419 . S
C3258 H3262 0.930 . S
C3259 C3258 1.369 . S
C3259 C3268 1.429 . S
C3260 C3258 1.419 . S
C3260 C3261 1.363 . S
C3260 H3263 0.929 . S
C3261 C3260 1.363 . S
C3261 C3267 1.428 . S
H3262 C3258 0.930 . S
H3263 C3260 0.929 . S
S3264 N3265 1.613 . S
S3264 N3266 1.610 . S
N3265 S3264 1.613 . S
N3265 C3268 1.350 . S
N3266 S3264 1.610 . S
N3266 C3267 1.351 . S
C3267 C3261 1.428 . S
C3267 N3266 1.351 . S
C3267 C3268 1.434 . S
C3268 C3259 1.429 . S
C3268 N3265 1.350 . S
C3268 C3267 1.434 . S
C3269 C3270 1.369 . S
C3269 C3271 1.419 . S
C3269 H3273 0.930 . S
C3270 C3269 1.369 . S
C3270 C3279 1.429 . S
C3271 C3269 1.419 . S
C3271 C3272 1.363 . S
C3271 H3274 0.929 . S
C3272 C3271 1.363 . S
C3272 C3278 1.428 . S
H3273 C3269 0.930 . S
H3274 C3271 0.929 . S
S3275 N3276 1.613 . S
S3275 N3277 1.610 . S
N3276 S3275 1.613 . S
N3276 C3279 1.350 . S
N3277 S3275 1.610 . S
N3277 C3278 1.351 . S
C3278 C3272 1.428 . S
C3278 N3277 1.351 . S
C3278 C3279 1.434 . S
C3279 C3270 1.429 . S
C3279 N3276 1.350 . S
C3279 C3278 1.434 . S
C3280 C3281 1.369 . S
C3280 C3282 1.419 . S
C3280 H3284 0.930 . S
C3281 C3280 1.369 . S
C3281 C3290 1.429 . S
C3282 C3280 1.419 . S
C3282 C3283 1.363 . S
C3282 H3285 0.929 . S
C3283 C3282 1.363 . S
C3283 C3289 1.428 . S
H3284 C3280 0.930 . S
H3285 C3282 0.929 . S
S3286 N3287 1.613 . S
S3286 N3288 1.610 . S
N3287 S3286 1.613 . S
N3287 C3290 1.350 . S
N3288 S3286 1.610 . S
N3288 C3289 1.351 . S
C3289 C3283 1.428 . S
C3289 N3288 1.351 . S
C3289 C3290 1.434 . S
C3290 C3281 1.429 . S
C3290 N3287 1.350 . S
C3290 C3289 1.434 . S
C3291 C3292 1.369 . S
C3291 C3293 1.419 . S
C3291 H3295 0.930 . S
C3292 C3291 1.369 . S
C3292 C3301 1.429 . S
C3293 C3291 1.419 . S
C3293 C3294 1.363 . S
C3293 H3296 0.929 . S
C3294 C3293 1.363 . S
C3294 C3300 1.428 . S
H3295 C3291 0.930 . S
H3296 C3293 0.929 . S
S3297 N3298 1.613 . S
S3297 N3299 1.610 . S
N3298 S3297 1.613 . S
N3298 C3301 1.350 . S
N3299 S3297 1.610 . S
N3299 C3300 1.351 . S
C3300 C3294 1.428 . S
C3300 N3299 1.351 . S
C3300 C3301 1.434 . S
C3301 C3292 1.429 . S
C3301 N3298 1.350 . S
C3301 C3300 1.434 . S
C3302 C3303 1.369 . S
C3302 C3304 1.419 . S
C3302 H3306 0.930 . S
C3303 C3302 1.369 . S
C3303 C3312 1.429 . S
C3304 C3302 1.419 . S
C3304 C3305 1.363 . S
C3304 H3307 0.929 . S
C3305 C3304 1.363 . S
C3305 C3311 1.428 . S
H3306 C3302 0.930 . S
H3307 C3304 0.929 . S
S3308 N3309 1.613 . S
S3308 N3310 1.610 . S
N3309 S3308 1.613 . S
N3309 C3312 1.350 . S
N3310 S3308 1.610 . S
N3310 C3311 1.351 . S
C3311 C3305 1.428 . S
C3311 N3310 1.351 . S
C3311 C3312 1.434 . S
C3312 C3303 1.429 . S
C3312 N3309 1.350 . S
C3312 C3311 1.434 . S
C3313 C3314 1.369 . S
C3313 C3315 1.419 . S
C3313 H3317 0.930 . S
C3314 C3313 1.369 . S
C3314 C3323 1.429 . S
C3315 C3313 1.419 . S
C3315 C3316 1.363 . S
C3315 H3318 0.929 . S
C3316 C3315 1.363 . S
C3316 C3322 1.428 . S
H3317 C3313 0.930 . S
H3318 C3315 0.929 . S
S3319 N3320 1.613 . S
S3319 N3321 1.610 . S
N3320 S3319 1.613 . S
N3320 C3323 1.350 . S
N3321 S3319 1.610 . S
N3321 C3322 1.351 . S
C3322 C3316 1.428 . S
C3322 N3321 1.351 . S
C3322 C3323 1.434 . S
C3323 C3314 1.429 . S
C3323 N3320 1.350 . S
C3323 C3322 1.434 . S
C3324 C3325 1.369 . S
C3324 C3326 1.419 . S
C3324 H3328 0.930 . S
C3325 C3324 1.369 . S
C3325 C3334 1.429 . S
C3326 C3324 1.419 . S
C3326 C3327 1.363 . S
C3326 H3329 0.929 . S
C3327 C3326 1.363 . S
C3327 C3333 1.428 . S
H3328 C3324 0.930 . S
H3329 C3326 0.929 . S
S3330 N3331 1.613 . S
S3330 N3332 1.610 . S
N3331 S3330 1.613 . S
N3331 C3334 1.350 . S
N3332 S3330 1.610 . S
N3332 C3333 1.351 . S
C3333 C3327 1.428 . S
C3333 N3332 1.351 . S
C3333 C3334 1.434 . S
C3334 C3325 1.429 . S
C3334 N3331 1.350 . S
C3334 C3333 1.434 . S
C3335 C3336 1.369 . S
C3335 C3337 1.419 . S
C3335 H3339 0.930 . S
C3336 C3335 1.369 . S
C3336 C3345 1.429 . S
C3337 C3335 1.419 . S
C3337 C3338 1.363 . S
C3337 H3340 0.929 . S
C3338 C3337 1.363 . S
C3338 C3344 1.428 . S
H3339 C3335 0.930 . S
H3340 C3337 0.929 . S
S3341 N3342 1.613 . S
S3341 N3343 1.610 . S
N3342 S3341 1.613 . S
N3342 C3345 1.350 . S
N3343 S3341 1.610 . S
N3343 C3344 1.351 . S
C3344 C3338 1.428 . S
C3344 N3343 1.351 . S
C3344 C3345 1.434 . S
C3345 C3336 1.429 . S
C3345 N3342 1.350 . S
C3345 C3344 1.434 . S
C3346 C3347 1.369 . S
C3346 C3348 1.419 . S
C3346 H3350 0.930 . S
C3347 C3346 1.369 . S
C3347 C3356 1.429 . S
C3348 C3346 1.419 . S
C3348 C3349 1.363 . S
C3348 H3351 0.929 . S
C3349 C3348 1.363 . S
C3349 C3355 1.428 . S
H3350 C3346 0.930 . S
H3351 C3348 0.929 . S
S3352 N3353 1.613 . S
S3352 N3354 1.610 . S
N3353 S3352 1.613 . S
N3353 C3356 1.350 . S
N3354 S3352 1.610 . S
N3354 C3355 1.351 . S
C3355 C3349 1.428 . S
C3355 N3354 1.351 . S
C3355 C3356 1.434 . S
C3356 C3347 1.429 . S
C3356 N3353 1.350 . S
C3356 C3355 1.434 . S
C3357 C3358 1.369 . S
C3357 C3359 1.419 . S
C3357 H3361 0.930 . S
C3358 C3357 1.369 . S
C3358 C3367 1.429 . S
C3359 C3357 1.419 . S
C3359 C3360 1.363 . S
C3359 H3362 0.929 . S
C3360 C3359 1.363 . S
C3360 C3366 1.428 . S
H3361 C3357 0.930 . S
H3362 C3359 0.929 . S
S3363 N3364 1.613 . S
S3363 N3365 1.610 . S
N3364 S3363 1.613 . S
N3364 C3367 1.350 . S
N3365 S3363 1.610 . S
N3365 C3366 1.351 . S
C3366 C3360 1.428 . S
C3366 N3365 1.351 . S
C3366 C3367 1.434 . S
C3367 C3358 1.429 . S
C3367 N3364 1.350 . S
C3367 C3366 1.434 . S
C3368 C3369 1.369 . S
C3368 C3370 1.419 . S
C3368 H3372 0.930 . S
C3369 C3368 1.369 . S
C3369 C3378 1.429 . S
C3370 C3368 1.419 . S
C3370 C3371 1.363 . S
C3370 H3373 0.929 . S
C3371 C3370 1.363 . S
C3371 C3377 1.428 . S
H3372 C3368 0.930 . S
H3373 C3370 0.929 . S
S3374 N3375 1.613 . S
S3374 N3376 1.610 . S
N3375 S3374 1.613 . S
N3375 C3378 1.350 . S
N3376 S3374 1.610 . S
N3376 C3377 1.351 . S
C3377 C3371 1.428 . S
C3377 N3376 1.351 . S
C3377 C3378 1.434 . S
C3378 C3369 1.429 . S
C3378 N3375 1.350 . S
C3378 C3377 1.434 . S
C3379 C3380 1.369 . S
C3379 C3381 1.419 . S
C3379 H3383 0.930 . S
C3380 C3379 1.369 . S
C3380 C3389 1.429 . S
C3381 C3379 1.419 . S
C3381 C3382 1.363 . S
C3381 H3384 0.929 . S
C3382 C3381 1.363 . S
C3382 C3388 1.428 . S
H3383 C3379 0.930 . S
H3384 C3381 0.929 . S
S3385 N3386 1.613 . S
S3385 N3387 1.610 . S
N3386 S3385 1.613 . S
N3386 C3389 1.350 . S
N3387 S3385 1.610 . S
N3387 C3388 1.351 . S
C3388 C3382 1.428 . S
C3388 N3387 1.351 . S
C3388 C3389 1.434 . S
C3389 C3380 1.429 . S
C3389 N3386 1.350 . S
C3389 C3388 1.434 . S
C3390 C3391 1.369 . S
C3390 C3392 1.419 . S
C3390 H3394 0.930 . S
C3391 C3390 1.369 . S
C3391 C3400 1.429 . S
C3392 C3390 1.419 . S
C3392 C3393 1.363 . S
C3392 H3395 0.929 . S
C3393 C3392 1.363 . S
C3393 C3399 1.428 . S
H3394 C3390 0.930 . S
H3395 C3392 0.929 . S
S3396 N3397 1.613 . S
S3396 N3398 1.610 . S
N3397 S3396 1.613 . S
N3397 C3400 1.350 . S
N3398 S3396 1.610 . S
N3398 C3399 1.351 . S
C3399 C3393 1.428 . S
C3399 N3398 1.351 . S
C3399 C3400 1.434 . S
C3400 C3391 1.429 . S
C3400 N3397 1.350 . S
C3400 C3399 1.434 . S
C3401 C3402 1.369 . S
C3401 C3403 1.419 . S
C3401 H3405 0.930 . S
C3402 C3401 1.369 . S
C3402 C3411 1.429 . S
C3403 C3401 1.419 . S
C3403 C3404 1.363 . S
C3403 H3406 0.929 . S
C3404 C3403 1.363 . S
C3404 C3410 1.428 . S
H3405 C3401 0.930 . S
H3406 C3403 0.929 . S
S3407 N3408 1.613 . S
S3407 N3409 1.610 . S
N3408 S3407 1.613 . S
N3408 C3411 1.350 . S
N3409 S3407 1.610 . S
N3409 C3410 1.351 . S
C3410 C3404 1.428 . S
C3410 N3409 1.351 . S
C3410 C3411 1.434 . S
C3411 C3402 1.429 . S
C3411 N3408 1.350 . S
C3411 C3410 1.434 . S
C3412 C3413 1.369 . S
C3412 C3414 1.419 . S
C3412 H3416 0.930 . S
C3413 C3412 1.369 . S
C3413 C3422 1.429 . S
C3414 C3412 1.419 . S
C3414 C3415 1.363 . S
C3414 H3417 0.929 . S
C3415 C3414 1.363 . S
C3415 C3421 1.428 . S
H3416 C3412 0.930 . S
H3417 C3414 0.929 . S
S3418 N3419 1.613 . S
S3418 N3420 1.610 . S
N3419 S3418 1.613 . S
N3419 C3422 1.350 . S
N3420 S3418 1.610 . S
N3420 C3421 1.351 . S
C3421 C3415 1.428 . S
C3421 N3420 1.351 . S
C3421 C3422 1.434 . S
C3422 C3413 1.429 . S
C3422 N3419 1.350 . S
C3422 C3421 1.434 . S
C3423 C3424 1.369 . S
C3423 C3425 1.419 . S
C3423 H3427 0.930 . S
C3424 C3423 1.369 . S
C3424 C3433 1.429 . S
C3425 C3423 1.419 . S
C3425 C3426 1.363 . S
C3425 H3428 0.929 . S
C3426 C3425 1.363 . S
C3426 C3432 1.428 . S
H3427 C3423 0.930 . S
H3428 C3425 0.929 . S
S3429 N3430 1.613 . S
S3429 N3431 1.610 . S
N3430 S3429 1.613 . S
N3430 C3433 1.350 . S
N3431 S3429 1.610 . S
N3431 C3432 1.351 . S
C3432 C3426 1.428 . S
C3432 N3431 1.351 . S
C3432 C3433 1.434 . S
C3433 C3424 1.429 . S
C3433 N3430 1.350 . S
C3433 C3432 1.434 . S
C3434 C3435 1.369 . S
C3434 C3436 1.419 . S
C3434 H3438 0.930 . S
C3435 C3434 1.369 . S
C3435 C3444 1.429 . S
C3436 C3434 1.419 . S
C3436 C3437 1.363 . S
C3436 H3439 0.929 . S
C3437 C3436 1.363 . S
C3437 C3443 1.428 . S
H3438 C3434 0.930 . S
H3439 C3436 0.929 . S
S3440 N3441 1.613 . S
S3440 N3442 1.610 . S
N3441 S3440 1.613 . S
N3441 C3444 1.350 . S
N3442 S3440 1.610 . S
N3442 C3443 1.351 . S
C3443 C3437 1.428 . S
C3443 N3442 1.351 . S
C3443 C3444 1.434 . S
C3444 C3435 1.429 . S
C3444 N3441 1.350 . S
C3444 C3443 1.434 . S
C3445 C3446 1.369 . S
C3445 C3447 1.419 . S
C3445 H3449 0.930 . S
C3446 C3445 1.369 . S
C3446 C3455 1.429 . S
C3447 C3445 1.419 . S
C3447 C3448 1.363 . S
C3447 H3450 0.929 . S
C3448 C3447 1.363 . S
C3448 C3454 1.428 . S
H3449 C3445 0.930 . S
H3450 C3447 0.929 . S
S3451 N3452 1.613 . S
S3451 N3453 1.610 . S
N3452 S3451 1.613 . S
N3452 C3455 1.350 . S
N3453 S3451 1.610 . S
N3453 C3454 1.351 . S
C3454 C3448 1.428 . S
C3454 N3453 1.351 . S
C3454 C3455 1.434 . S
C3455 C3446 1.429 . S
C3455 N3452 1.350 . S
C3455 C3454 1.434 . S
C1345 C5 1.625 . S
C1347 C957 1.628 . S
C1356 C915 1.626 . S
C1358 C19 1.627 . S
C1367 C929 1.628 . S
C1369 C33 1.625 . S
C1378 C47 1.628 . S
C1380 C943 1.625 . S
C1389 C999 1.625 . S
C1391 C61 1.628 . S
C1400 C971 1.627 . S
C1402 C75 1.626 . S
C1411 C985 1.626 . S
C1413 C89 1.626 . S
C1422 C103 1.624 . S
C1424 C901 1.628 . S
C1433 C117 1.626 . S
C1435 C887 1.627 . S
C1444 C131 1.624 . S
C1446 C845 1.628 . S
C1455 C145 1.628 . S
C1457 C859 1.625 . S
C1466 C159 1.627 . S
C1468 C873 1.626 . S
C1477 C173 1.627 . S
C1479 C803 1.625 . S
C1488 C817 1.628 . S
C1490 C187 1.625 . S
C1499 C831 1.628 . S
C1501 C201 1.626 . S
C1510 C215 1.624 . S
C1512 C789 1.627 . S
C1521 C229 1.624 . S
C1523 C775 1.628 . S
C1532 C243 1.627 . S
C1534 C691 1.625 . S
C1543 C705 1.628 . S
C1545 C257 1.625 . S
C1554 C719 1.628 . S
C1556 C271 1.625 . S
C1565 C677 1.628 . S
C1567 C285 1.625 . S
C1576 C299 1.624 . S
C1578 C747 1.627 . S
C1587 C313 1.627 . S
C1589 C761 1.625 . S
C1598 C327 1.626 . S
C1600 C733 1.627 . S
C1609 C341 1.625 . S
C1611 C1293 1.626 . S
C1620 C355 1.625 . S
C1622 C1251 1.626 . S
C1631 C369 1.626 . S
C1633 C1265 1.627 . S
C1642 C383 1.624 . S
C1644 C1279 1.627 . S
C1653 C397 1.624 . S
C1655 C1335 1.627 . S
C1664 C411 1.627 . S
C1666 C1307 1.625 . S
C1675 C1321 1.625 . S
C1677 C425 1.628 . S
C1686 C439 1.628 . S
C1688 C1237 1.626 . S
C1697 C453 1.624 . S
C1699 C1223 1.627 . S
C1708 C1181 1.628 . S
C1710 C467 1.626 . S
C1719 C481 1.625 . S
C1721 C1195 1.626 . S
C1730 C495 1.624 . S
C1732 C1209 1.628 . S
C1741 C509 1.628 . S
C1743 C1139 1.625 . S
C1752 C523 1.624 . S
C1754 C1153 1.627 . S
C1763 C537 1.627 . S
C1765 C1167 1.625 . S
C1774 C1125 1.624 . S
C1776 C551 1.627 . S
C1785 C565 1.626 . S
C1787 C1111 1.625 . S
C1796 C579 1.626 . S
C1798 C1027 1.625 . S
C1807 C593 1.624 . S
C1809 C1041 1.627 . S
C1818 C1055 1.626 . S
C1820 C607 1.627 . S
C1829 C621 1.626 . S
C1831 C1013 1.627 . S
C1840 C1083 1.625 . S
C1842 C635 1.628 . S
C1851 C649 1.625 . S
C1853 C1097 1.626 . S
C1862 C663 1.627 . S
C1864 C1069 1.627 . S
C1873 C9 1.512 . S
C1875 C555 1.512 . S
C1884 C23 1.514 . S
C1886 C513 1.514 . S
C1895 C527 1.512 . S
C1897 C37 1.512 . S
C1906 C51 1.512 . S
C1908 C541 1.512 . S
C1917 C471 1.514 . S
C1919 C65 1.514 . S
C1928 C485 1.514 . S
C1930 C79 1.514 . S
C1939 C499 1.511 . S
C1941 C93 1.512 . S
C1950 C457 1.514 . S
C1952 C107 1.514 . S
C1961 C443 1.513 . S
C1963 C121 1.513 . S
C1972 C135 1.514 . S
C1974 C401 1.514 . S
C1983 C415 1.513 . S
C1985 C149 1.513 . S
C1994 C163 1.512 . S
C1996 C429 1.512 . S
C2005 C359 1.514 . S
C2007 C177 1.514 . S
C2016 C373 1.512 . S
C2018 C191 1.512 . S
C2027 C205 1.512 . S
C2029 C387 1.512 . S
C2038 C219 1.512 . S
C2040 C345 1.513 . S
C2049 C233 1.514 . S
C2051 C625 1.514 . S
C2060 C247 1.512 . S
C2062 C667 1.512 . S
C2071 C639 1.514 . S
C2073 C261 1.514 . S
C2082 C653 1.514 . S
C2084 C275 1.513 . S
C2093 C289 1.513 . S
C2095 C569 1.513 . S
C2104 C303 1.513 . S
C2106 C597 1.513 . S
C2115 C611 1.514 . S
C2117 C317 1.514 . S
C2126 C331 1.513 . S
C2128 C583 1.513 . S
C2137 C1227 1.512 . S
C2139 C681 1.512 . S
C2148 C1185 1.513 . S
C2150 C695 1.513 . S
C2159 C1199 1.514 . S
C2161 C709 1.514 . S
C2170 C723 1.511 . S
C2172 C1213 1.512 . S
C2181 C1143 1.512 . S
C2183 C737 1.513 . S
C2192 C1157 1.513 . S
C2194 C751 1.513 . S
C2203 C765 1.514 . S
C2205 C1171 1.514 . S
C2214 C779 1.512 . S
C2216 C1129 1.512 . S
C2225 C1115 1.512 . S
C2227 C793 1.512 . S
C2236 C807 1.512 . S
C2238 C1073 1.512 . S
C2247 C1087 1.512 . S
C2249 C821 1.512 . S
C2258 C1101 1.512 . S
C2260 C835 1.512 . S
C2269 C849 1.511 . S
C2271 C1031 1.512 . S
C2280 C863 1.514 . S
C2282 C1045 1.514 . S
C2291 C1059 1.512 . S
C2293 C877 1.512 . S
C2302 C891 1.513 . S
C2304 C1017 1.513 . S
C2313 C1297 1.514 . S
C2315 C905 1.514 . S
C2324 C1339 1.512 . S
C2326 C919 1.512 . S
C2335 C933 1.511 . S
C2337 C1311 1.512 . S
C2346 C1325 1.512 . S
C2348 C947 1.512 . S
C2357 C1241 1.514 . S
C2359 C961 1.514 . S
C2368 C1269 1.513 . S
C2370 C975 1.513 . S
C2379 C989 1.514 . S
C2381 C1283 1.514 . S
C2390 C1255 1.514 . S
C2392 C1003 1.514 . S
C2401 C11 1.333 . S
C2403 C403 1.333 . S
C2412 C417 1.336 . S
C2414 C25 1.335 . S
C2423 C39 1.337 . S
C2425 C431 1.336 . S
C2434 C445 1.330 . S
C2436 C53 1.331 . S
C2445 C67 1.334 . S
C2447 C347 1.334 . S
C2456 C81 1.335 . S
C2458 C361 1.335 . S
C2467 C95 1.330 . S
C2469 C375 1.331 . S
C2478 C389 1.337 . S
C2480 C109 1.336 . S
C2489 C543 1.335 . S
C2491 C123 1.334 . S
C2500 C137 1.332 . S
C2502 C557 1.332 . S
C2511 C151 1.337 . S
C2513 C515 1.336 . S
C2522 C165 1.336 . S
C2524 C529 1.336 . S
C2533 C179 1.330 . S
C2535 C487 1.331 . S
C2544 C193 1.337 . S
C2546 C501 1.336 . S
C2555 C207 1.335 . S
C2557 C459 1.335 . S
C2566 C221 1.337 . S
C2568 C473 1.336 . S
C2577 C235 1.335 . S
C2579 C641 1.335 . S
C2588 C249 1.335 . S
C2590 C613 1.335 . S
C2599 C627 1.330 . S
C2601 C263 1.331 . S
C2610 C277 1.337 . S
C2612 C585 1.336 . S
C2621 C599 1.337 . S
C2623 C291 1.336 . S
C2632 C305 1.332 . S
C2634 C571 1.332 . S
C2643 C319 1.337 . S
C2645 C669 1.336 . S
C2654 C655 1.330 . S
C2656 C333 1.331 . S
C2665 C1075 1.337 . S
C2667 C683 1.336 . S
C2676 C697 1.331 . S
C2678 C1089 1.331 . S
C2687 C1103 1.336 . S
C2689 C711 1.335 . S
C2698 C725 1.337 . S
C2700 C1117 1.336 . S
C2709 C1019 1.330 . S
C2711 C739 1.331 . S
C2720 C1033 1.333 . S
C2722 C753 1.333 . S
C2731 C1047 1.333 . S
C2733 C767 1.334 . S
C2742 C781 1.330 . S
C2744 C1061 1.331 . S
C2753 C795 1.333 . S
C2755 C1215 1.333 . S
C2764 C1229 1.335 . S
C2766 C809 1.334 . S
C2775 C1187 1.337 . S
C2777 C823 1.336 . S
C2786 C1201 1.331 . S
C2788 C837 1.332 . S
C2797 C851 1.330 . S
C2799 C1159 1.331 . S
C2808 C865 1.335 . S
C2810 C1173 1.334 . S
C2819 C1131 1.336 . S
C2821 C879 1.335 . S
C2830 C1145 1.331 . S
C2832 C893 1.332 . S
C2841 C1313 1.330 . S
C2843 C907 1.331 . S
C2852 C921 1.330 . S
C2854 C1285 1.331 . S
C2863 C1299 1.330 . S
C2865 C935 1.331 . S
C2874 C949 1.334 . S
C2876 C1257 1.334 . S
C2885 C963 1.337 . S
C2887 C1271 1.336 . S
C2896 C977 1.337 . S
C2898 C1243 1.336 . S
C2907 C1341 1.337 . S
C2909 C991 1.336 . S
C2918 C1005 1.331 . S
C2920 C1327 1.332 . S
C2929 C434 1.319 . S
C2931 C0 1.320 . S
C2940 C392 1.327 . S
C2942 C14 1.326 . S
C2951 C28 1.327 . S
C2953 C406 1.326 . S
C2962 C420 1.325 . S
C2964 C42 1.325 . S
C2973 C350 1.326 . S
C2975 C56 1.325 . S
C2984 C70 1.320 . S
C2986 C364 1.320 . S
C2995 C84 1.320 . S
C2997 C378 1.321 . S
C3006 C336 1.325 . S
C3008 C98 1.325 . S
C3017 C616 1.326 . S
C3019 C112 1.325 . S
C3028 C126 1.319 . S
C3030 C574 1.320 . S
C3039 C140 1.327 . S
C3041 C588 1.326 . S
C3050 C602 1.322 . S
C3052 C154 1.322 . S
C3061 C168 1.326 . S
C3063 C658 1.325 . S
C3072 C630 1.320 . S
C3074 C182 1.320 . S
C3083 C644 1.326 . S
C3085 C196 1.325 . S
C3094 C210 1.319 . S
C3096 C560 1.320 . S
C3105 C224 1.327 . S
C3107 C546 1.326 . S
C3116 C238 1.327 . S
C3118 C462 1.326 . S
C3127 C252 1.319 . S
C3129 C476 1.320 . S
C3138 C490 1.321 . S
C3140 C266 1.321 . S
C3149 C448 1.320 . S
C3151 C280 1.321 . S
C3160 C294 1.321 . S
C3162 C518 1.322 . S
C3171 C308 1.326 . S
C3173 C532 1.326 . S
C3182 C322 1.326 . S
C3184 C504 1.325 . S
C3193 C672 1.327 . S
C3195 C1106 1.326 . S
C3204 C686 1.327 . S
C3206 C1064 1.326 . S
C3215 C700 1.327 . S
C3217 C1078 1.326 . S
C3226 C1092 1.319 . S
C3228 C714 1.320 . S
C3237 C1022 1.326 . S
C3239 C728 1.326 . S
C3248 C1036 1.320 . S
C3250 C742 1.321 . S
C3259 C756 1.319 . S
C3261 C1050 1.320 . S
C3270 C1008 1.326 . S
C3272 C770 1.325 . S
C3281 C1288 1.326 . S
C3283 C784 1.325 . S
C3292 C1246 1.327 . S
C3294 C798 1.326 . S
C3303 C1260 1.321 . S
C3305 C812 1.321 . S
C3314 C1274 1.319 . S
C3316 C826 1.320 . S
C3325 C1330 1.319 . S
C3327 C840 1.320 . S
C3336 C1302 1.322 . S
C3338 C854 1.322 . S
C3347 C1316 1.325 . S
C3349 C868 1.325 . S
C3358 C1232 1.324 . S
C3360 C882 1.324 . S
C3369 C896 1.319 . S
C3371 C1218 1.320 . S
C3380 C1134 1.322 . S
C3382 C910 1.322 . S
C3391 C1148 1.322 . S
C3393 C924 1.323 . S
C3402 C1162 1.322 . S
C3404 C938 1.322 . S
C3413 C1120 1.319 . S
C3415 C952 1.320 . S
C3424 C1190 1.326 . S
C3426 C966 1.325 . S
C3435 C1204 1.319 . S
C3437 C980 1.320 . S
C3446 C1176 1.327 . S
C3448 C994 1.326 . S
