# Generated by pormake.
# Topology sml, (6)-cn, num edge types: 1
# Building blocks:
#     Node 0, Type 0, BuildingBlock: FUNLAD_clean_sbu_0, # of connection points: 6
#     Node 1, Type 0, BuildingBlock: FUNLAD_clean_sbu_0, # of connection points: 6
#     Node 2, Type 0, BuildingBlock: FUNLAD_clean_sbu_0, # of connection points: 6
#     Node 3, Type 0, BuildingBlock: FUNLAD_clean_sbu_0, # of connection points: 6
#     Node 4, Type 0, BuildingBlock: FUNLAD_clean_sbu_0, # of connection points: 6
#     Node 5, Type 0, BuildingBlock: FUNLAD_clean_sbu_0, # of connection points: 6
#     Edge 6, Type (0, 0), BuildingBlock: TEMPAE_clean_linker_10, # of connection points: 2
#     Edge 7, Type (0, 0), BuildingBlock: TEMPAE_clean_linker_10, # of connection points: 2
#     Edge 8, Type (0, 0), BuildingBlock: TEMPAE_clean_linker_10, # of connection points: 2
#     Edge 9, Type (0, 0), BuildingBlock: TEMPAE_clean_linker_10, # of connection points: 2
#     Edge 10, Type (0, 0), BuildingBlock: TEMPAE_clean_linker_10, # of connection points: 2
#     Edge 11, Type (0, 0), BuildingBlock: TEMPAE_clean_linker_10, # of connection points: 2
#     Edge 12, Type (0, 0), BuildingBlock: TEMPAE_clean_linker_10, # of connection points: 2
#     Edge 13, Type (0, 0), BuildingBlock: TEMPAE_clean_linker_10, # of connection points: 2
#     Edge 14, Type (0, 0), BuildingBlock: TEMPAE_clean_linker_10, # of connection points: 2
#     Edge 15, Type (0, 0), BuildingBlock: TEMPAE_clean_linker_10, # of connection points: 2
#     Edge 16, Type (0, 0), BuildingBlock: TEMPAE_clean_linker_10, # of connection points: 2
#     Edge 17, Type (0, 0), BuildingBlock: TEMPAE_clean_linker_10, # of connection points: 2
#     Edge 18, Type (0, 0), BuildingBlock: TEMPAE_clean_linker_10, # of connection points: 2
#     Edge 19, Type (0, 0), BuildingBlock: TEMPAE_clean_linker_10, # of connection points: 2
#     Edge 20, Type (0, 0), BuildingBlock: TEMPAE_clean_linker_10, # of connection points: 2
#     Edge 21, Type (0, 0), BuildingBlock: TEMPAE_clean_linker_10, # of connection points: 2
#     Edge 22, Type (0, 0), BuildingBlock: TEMPAE_clean_linker_10, # of connection points: 2
#     Edge 23, Type (0, 0), BuildingBlock: TEMPAE_clean_linker_10, # of connection points: 2
# Relax obj value: 0.384
# Max RMSD: 0.211
# Mean RMSD: 0.211
data_MOF--net-sml--node1-FUNLAD_clean_sbu_0--edge1-TEMPAE_clean_linker_10
_symmetry_space_group_name_H-M    P1
_symmetry_Int_Tables_number       1
_symmetry_cell_setting            triclinic
loop_
_symmetry_equiv_pos_as_xyz
'x, y, z'
_cell_length_a     48.074349
_cell_length_b     48.131036
_cell_length_c     14.814337
_cell_angle_alpha  89.824413
_cell_angle_beta   90.090383
_cell_angle_gamma 119.9945
loop_
_atom_site_label
_atom_site_type_symbol
_atom_site_fract_x
_atom_site_fract_y
_atom_site_fract_z
_atom_type_partial_charge
C0 C 0.14548 0.39482 0.87282 0.0
N1 N 0.17156 0.33888 0.02481 0.0
C2 C 0.15093 0.31438 -0.02943 0.0
C3 C 0.15745 0.29012 0.94656 0.0
C4 C 0.18531 0.29096 -0.02068 0.0
C5 C 0.20524 0.31564 0.03885 0.0
C6 C 0.19797 0.3395 0.06046 0.0
Zn7 Zn 0.16663 0.37851 0.04191 0.0
C8 C 0.22765 0.43842 -0.00661 0.0
N9 N 0.1589 0.46316 0.06738 0.0
C10 C 0.13137 0.46377 0.04991 0.0
C11 C 0.18547 0.48955 0.09972 0.0
C12 C 0.18525 0.51801 0.11431 0.0
C13 C 0.1572 0.51923 0.09772 0.0
C14 C 0.12988 0.4917 0.06571 0.0
Zn15 Zn 0.16189 0.42234 0.05041 0.0
O16 O 0.15356 0.37613 0.90976 0.0
C17 C 0.1009 0.36275 0.09865 0.0
O18 O 0.14659 0.41788 0.91713 0.0
H19 H 0.2069 0.48855 0.11547 0.0
H20 H 0.13007 0.31431 0.94284 0.0
H21 H 0.11047 0.44254 0.02452 0.0
O22 O 0.11718 0.34941 0.07808 0.0
O23 O 0.11387 0.39312 0.09406 0.0
H24 H 0.21428 0.35936 0.10253 0.0
O25 O 0.17646 0.42576 0.18275 0.0
O26 O 0.17864 0.38126 0.17686 0.0
O27 O 0.20988 0.4505 0.00742 0.0
O28 O 0.21607 0.40842 0.00412 0.0
C29 C 0.18057 0.40457 0.22138 0.0
H30 H 0.14134 0.27137 0.901 0.0
H31 H 0.2272 0.3175 0.06467 0.0
H32 H 0.2066 0.5387 0.14042 0.0
H33 H 0.1078 0.49188 0.05262 0.0
C34 C 0.8204 0.23897 0.51713 0.0
N35 N 0.79753 0.15487 0.38081 0.0
C36 C 0.78083 0.14133 0.45801 0.0
C37 C 0.77435 0.11097 0.48508 0.0
C38 C 0.78509 0.09396 0.43261 0.0
C39 C 0.80258 0.10851 0.35343 0.0
C40 C 0.80863 0.13922 0.32871 0.0
Zn41 Zn 0.8031 0.19894 0.34788 0.0
C42 C 0.74199 0.19925 0.38998 0.0
N43 N 0.81108 0.29061 0.30549 0.0
C44 C 0.83617 0.31945 0.33129 0.0
C45 C 0.78694 0.28892 0.25333 0.0
C46 C 0.78782 0.31673 0.22285 0.0
C47 C 0.81351 0.34676 0.24727 0.0
C48 C 0.83771 0.34807 0.3034 0.0
Zn49 Zn 0.80829 0.24769 0.33743 0.0
O50 O 0.81454 0.21283 0.48064 0.0
C51 C 0.86941 0.24798 0.29571 0.0
O52 O 0.82168 0.26157 0.46988 0.0
H53 H 0.76698 0.26587 0.23424 0.0
H54 H 0.77187 0.15384 0.49839 0.0
H55 H 0.85513 0.32028 0.37262 0.0
O56 O 0.85285 0.2184 0.31691 0.0
O57 O 0.85659 0.26558 0.29785 0.0
H58 H 0.8218 0.15035 0.26749 0.0
O59 O 0.79394 0.23266 0.20719 0.0
O60 O 0.79113 0.18572 0.21358 0.0
O61 O 0.76018 0.22912 0.377 0.0
O62 O 0.75327 0.18058 0.37903 0.0
C63 C 0.78815 0.20673 0.16955 0.0
H64 H 0.76012 0.10054 0.54536 0.0
H65 H 0.81136 0.09627 0.31099 0.0
H66 H 0.76843 0.31476 0.18092 0.0
H67 H 0.85785 0.3709 0.32376 0.0
C68 C 0.55965 0.71583 0.5087 0.0
N69 N 0.61701 0.7997 0.6516 0.0
C70 C 0.6135 0.8141 0.57662 0.0
C71 C 0.63614 0.84562 0.55524 0.0
C72 C 0.66299 0.86271 0.61084 0.0
C73 C 0.66694 0.84709 0.68595 0.0
C74 C 0.64333 0.81535 0.70563 0.0
Zn75 Zn 0.5792 0.75458 0.67913 0.0
C76 C 0.51742 0.75259 0.63178 0.0
N77 N 0.49663 0.66133 0.71321 0.0
C78 C 0.49647 0.63325 0.69952 0.0
C79 C 0.47055 0.66146 0.74853 0.0
C80 C 0.44291 0.6328 0.7704 0.0
C81 C 0.44221 0.60367 0.75768 0.0
C82 C 0.46934 0.60389 0.72223 0.0
Zn83 Zn 0.53639 0.70533 0.68708 0.0
O84 O 0.57874 0.74237 0.54571 0.0
C85 C 0.59786 0.70706 0.73447 0.0
O86 O 0.53884 0.69261 0.55529 0.0
H87 H 0.47122 0.6839 0.76101 0.0
H88 H 0.59263 0.80138 0.53389 0.0
H89 H 0.51746 0.63362 0.67187 0.0
O90 O 0.61042 0.73643 0.7115 0.0
O91 O 0.5675 0.68896 0.73206 0.0
H92 H 0.64566 0.80351 0.76495 0.0
O93 O 0.53391 0.71898 0.81688 0.0
O94 O 0.57827 0.76589 0.8137 0.0
O95 O 0.50641 0.72271 0.64177 0.0
O96 O 0.54699 0.77178 0.64704 0.0
C97 C 0.55383 0.74475 0.85597 0.0
H98 H 0.63246 0.85673 0.49615 0.0
H99 H 0.68738 0.85963 0.73048 0.0
H100 H 0.42242 0.63338 0.79861 0.0
H101 H 0.46947 0.58169 0.71204 0.0
C102 C 0.72359 0.55604 0.15205 0.0
N103 N 0.80719 0.61278 0.00699 0.0
C104 C 0.81127 0.63603 0.06655 0.0
C105 C 0.84211 0.65905 0.09467 0.0
C106 C 0.86899 0.65827 0.06058 0.0
C107 C 0.86401 0.63521 -0.00508 0.0
C108 C 0.83286 0.61247 -0.0303 0.0
Zn109 Zn 0.76254 0.57409 -0.0166 0.0
C110 C 0.76181 0.51298 0.02889 0.0
N111 N 0.66995 0.49096 0.94974 0.0
C112 C 0.64158 0.4878 -0.0217 0.0
C113 C 0.6707 0.4677 0.89955 0.0
C114 C 0.64236 0.44052 0.87377 0.0
C115 C 0.6128 0.43679 0.90098 0.0
C116 C 0.61245 0.46049 0.95519 0.0
Zn117 Zn 0.71354 0.53106 -0.02587 0.0
O118 O 0.75056 0.5744 0.11576 0.0
C119 C 0.71364 0.59157 0.92959 0.0
O120 O 0.70129 0.53352 0.10699 0.0
H121 H 0.69341 0.47036 0.87826 0.0
H122 H 0.79056 0.63589 0.09547 0.0
H123 H 0.64153 0.50659 0.01806 0.0
O124 O 0.74323 0.60433 0.95042 0.0
O125 O 0.69572 0.56123 0.93282 0.0
H126 H 0.82919 0.59373 0.92295 0.0
O127 O 0.72619 0.52987 0.84152 0.0
O128 O 0.77326 0.57376 0.84875 0.0
O129 O 0.73199 0.50166 0.01557 0.0
O130 O 0.7809 0.54284 0.01732 0.0
C131 C 0.75163 0.55094 0.80346 0.0
H132 H 0.84471 0.67625 0.1457 0.0
H133 H 0.88399 0.63411 0.96506 0.0
H134 H 0.64352 0.42244 0.83317 0.0
H135 H 0.58997 0.45822 -0.0224 0.0
C136 C 0.24071 0.8122 0.17866 0.0
N137 N 0.15767 0.79012 0.31945 0.0
C138 C 0.14405 0.77475 0.24083 0.0
C139 C 0.11355 0.76852 0.21623 0.0
C140 C 0.09651 0.77808 0.27285 0.0
C141 C 0.1111 0.79416 0.35352 0.0
C142 C 0.14198 0.80007 0.37554 0.0
Zn143 Zn 0.20179 0.79544 0.34887 0.0
C144 C 0.20202 0.73438 0.31098 0.0
N145 N 0.29406 0.80455 0.38749 0.0
C146 C 0.32235 0.82843 0.35375 0.0
C147 C 0.29332 0.78175 0.44366 0.0
C148 C 0.3216 0.78271 0.46954 0.0
C149 C 0.3511 0.80708 0.43646 0.0
C150 C 0.35139 0.82999 0.37695 0.0
Zn151 Zn 0.25065 0.80099 0.35893 0.0
O152 O 0.21561 0.80889 0.21643 0.0
C153 C 0.25099 0.86217 0.39594 0.0
O154 O 0.26217 0.81069 0.22445 0.0
H155 H 0.27067 0.76267 0.46886 0.0
H156 H 0.1566 0.76664 0.19741 0.0
H157 H 0.3224 0.84628 0.30913 0.0
O158 O 0.22076 0.84434 0.38611 0.0
O159 O 0.2693 0.85036 0.38602 0.0
H160 H 0.1532 0.81217 0.43787 0.0
O161 O 0.2378 0.79011 0.49221 0.0
O162 O 0.18849 0.78152 0.48172 0.0
O163 O 0.23146 0.75186 0.33103 0.0
O164 O 0.18377 0.74642 0.31183 0.0
C165 C 0.21079 0.78166 0.52787 0.0
H166 H 0.10303 0.75537 0.15455 0.0
H167 H 0.09877 0.80195 0.39909 0.0
H168 H 0.32037 0.76426 0.51422 0.0
H169 H 0.37377 0.84908 0.34994 0.0
C170 C 0.40114 0.13642 0.83311 0.0
N171 N 0.34564 0.16425 0.68208 0.0
C172 C 0.32158 0.14531 0.74022 0.0
C173 C 0.29911 0.15407 0.7672 0.0
C174 C 0.30139 0.18251 0.73368 0.0
C175 C 0.32527 0.20039 0.66948 0.0
C176 C 0.34732 0.19097 0.64519 0.0
Zn177 Zn 0.38404 0.15742 0.66075 0.0
C178 C 0.44537 0.21713 0.70495 0.0
N179 N 0.46635 0.14575 0.63433 0.0
C180 C 0.47047 0.12179 0.66907 0.0
C181 C 0.48887 0.16859 0.57926 0.0
C182 C 0.51625 0.16751 0.55504 0.0
C183 C 0.52104 0.14301 0.58875 0.0
C184 C 0.49806 0.12014 0.64762 0.0
Zn185 Zn 0.42635 0.14985 0.65747 0.0
O186 O 0.38192 0.14329 0.79354 0.0
C187 C 0.36545 0.09014 0.61425 0.0
O188 O 0.42511 0.13844 0.79144 0.0
H189 H 0.48556 0.18773 0.55322 0.0
H190 H 0.32068 0.12422 0.76913 0.0
H191 H 0.45233 0.10389 0.71282 0.0
O192 O 0.35374 0.10863 0.62222 0.0
O193 O 0.39526 0.10092 0.62779 0.0
H194 H 0.36673 0.20594 0.59982 0.0
O195 O 0.42586 0.16002 0.52229 0.0
O196 O 0.38616 0.17018 0.52735 0.0
O197 O 0.4566 0.19873 0.689 0.0
O198 O 0.41531 0.20615 0.69825 0.0
C199 C 0.40686 0.16711 0.48288 0.0
H200 H 0.28122 0.13961 0.81717 0.0
H201 H 0.32757 0.22211 0.64033 0.0
H202 H 0.53373 0.18589 0.51075 0.0
H203 H 0.50111 0.10097 0.67517 0.0
C204 C 0.29427 0.22783 0.78733 0.0
C205 C 0.28079 0.19492 0.76988 0.0
C206 C 0.27569 0.24033 0.82193 0.0
C207 C 0.24276 0.21944 0.84069 0.0
C208 C 0.22895 0.18615 0.82414 0.0
C209 C 0.24812 0.17427 0.78881 0.0
C210 C 0.29143 0.276 0.83867 0.0
C211 C 0.19395 0.16315 0.84365 0.0
C212 C 0.20865 0.25514 0.00464 0.0
C213 C 0.19536 0.26824 0.94561 0.0
C214 C 0.22243 0.23741 -0.02821 0.0
C215 C 0.22315 0.23289 0.87758 0.0
C216 C 0.20823 0.24457 0.8181 0.0
C217 C 0.19446 0.26204 0.85285 0.0
C218 C 0.23776 0.22506 0.03756 0.0
C219 C 0.20862 0.24042 0.71721 0.0
H220 H 0.31963 0.24391 0.77516 0.0
H221 H 0.23747 0.14885 0.77514 0.0
H222 H 0.27886 0.28618 0.79977 0.0
H223 H 0.28954 0.28052 0.91117 0.0
H224 H 0.31721 0.28902 0.81929 0.0
H225 H 0.18695 0.13791 0.82821 0.0
H226 H 0.18873 0.16473 0.91579 0.0
H227 H 0.17871 0.16981 0.80315 0.0
H228 H 0.20904 0.25951 0.0765 0.0
H229 H 0.18453 0.27236 0.80671 0.0
H230 H 0.26425 0.23894 0.0296 0.0
H231 H 0.22993 0.19956 0.02343 0.0
H232 H 0.23181 0.22715 0.10874 0.0
H233 H 0.23351 0.25536 0.69166 0.0
H234 H 0.19289 0.2476 0.6812 0.0
H235 H 0.20077 0.21512 0.70035 0.0
C236 C 0.04674 0.31322 0.09331 0.0
C237 C 0.06741 0.34344 0.13034 0.0
C238 C 0.01432 0.29568 0.11976 0.0
C239 C 1.00277 0.3082 0.18724 0.0
C240 C 0.02405 0.33812 0.22748 0.0
C241 C 0.05591 0.35567 0.19713 0.0
C242 C 0.99218 0.2644 0.07315 0.0
C243 C 0.01309 0.35184 0.30183 0.0
C244 C 0.91496 0.28539 0.19794 0.0
C245 C 0.90311 0.26198 0.26597 0.0
C246 C 0.94701 0.29964 0.16935 0.0
C247 C 0.96807 0.29112 0.21214 0.0
C248 C 0.95619 0.26741 0.28095 0.0
C249 C 0.92362 0.25267 0.30595 0.0
C250 C 0.95839 0.32406 0.0939 0.0
C251 C 0.97809 0.25842 0.33012 0.0
H252 H 0.05563 0.30386 0.04127 0.0
H253 H 0.072 0.37893 0.22646 0.0
H254 H 0.98011 0.24485 0.12348 0.0
H255 H 0.9731 0.26648 0.03676 0.0
H256 H 1.0051 0.25751 0.02401 0.0
H257 H 0.03334 0.37375 0.33198 0.0
H258 H 0.99533 0.35802 0.2748 0.0
H259 H 1.00102 0.33375 0.35603 0.0
H260 H 0.89898 0.29233 0.16628 0.0
H261 H 0.91446 0.23467 0.35892 0.0
H262 H 0.97043 0.31764 0.04077 0.0
H263 H 0.9763 0.348 0.1202 0.0
H264 H 0.93838 0.32595 0.06258 0.0
H265 H 0.98994 0.25018 0.28149 0.0
H266 H 0.96503 0.2392 0.38098 0.0
H267 H 0.99737 0.27982 0.36487 0.0
C268 C 0.7646 0.03612 0.39389 0.0
C269 C 0.776 0.06056 0.45876 0.0
C270 C 0.75063 1.00375 0.41974 0.0
C271 C 0.74776 0.99563 0.51262 0.0
C272 C 0.76132 0.02031 0.57791 0.0
C273 C 0.77543 0.05244 0.55016 0.0
C274 C 0.73688 0.97816 0.34789 0.0
C275 C 0.75881 0.01277 0.67759 0.0
C276 C 0.67327 0.91777 0.5778 0.0
C277 C 0.68551 0.89709 0.5917 0.0
C278 C 0.69342 0.94992 0.55352 0.0
C279 C 0.72671 0.96171 0.54178 0.0
C280 C 0.73937 0.94109 0.55719 0.0
C281 C 0.71859 0.90897 0.58272 0.0
C282 C 0.67895 0.97117 0.53939 0.0
C283 C 0.77465 0.95273 0.54451 0.0
H284 H 0.76484 0.04208 0.32319 0.0
H285 H 0.78488 0.07122 0.60062 0.0
H286 H 0.74363 0.95959 0.36089 0.0
H287 H 0.71027 0.96611 0.3494 0.0
H288 H 0.74519 0.98826 0.27923 0.0
H289 H 0.77414 0.03443 0.71869 0.0
H290 H 0.73351 1.00271 0.69962 0.0
H291 H 0.76578 0.99443 0.69175 0.0
H292 H 0.64772 0.90866 0.58571 0.0
H293 H 0.728 0.8929 0.59293 0.0
H294 H 0.68271 0.97985 0.46855 0.0
H295 H 0.69104 0.99256 0.58358 0.0
H296 H 0.65278 0.95851 0.55397 0.0
H297 H 0.78137 0.95963 0.47292 0.0
H298 H 0.78095 0.93417 0.56314 0.0
H299 H 0.78929 0.97444 0.58589 0.0
C300 C 0.60677 0.67072 0.83462 0.0
C301 C 0.61802 0.69379 0.76572 0.0
C302 C 0.62475 0.6567 0.86349 0.0
C303 C 0.65417 0.66513 0.82015 0.0
C304 C 0.66582 0.6887 0.75099 0.0
C305 C 0.64781 0.7032 0.72562 0.0
C306 C 0.61191 0.6324 0.93927 0.0
C307 C 0.69659 0.69762 0.70139 0.0
C308 C 0.71022 0.64172 0.93647 0.0
C309 C 0.70004 0.61148 0.8988 0.0
C310 C 0.69579 0.65976 0.91089 0.0
C311 C 0.67151 0.64769 0.84378 0.0
C312 C 0.66226 0.61775 0.80283 0.0
C313 C 0.67617 0.59974 0.83218 0.0
C314 C 0.70559 0.69108 0.95809 0.0
C315 C 0.63728 0.60447 0.72895 0.0
H316 H 0.58387 0.66372 0.86635 0.0
H317 H 0.6564 0.72095 0.672 0.0
H318 H 0.60532 0.60834 0.91284 0.0
H319 H 0.63066 0.63862 -0.00846 0.0
H320 H 0.59037 0.6309 -0.02831 0.0
H321 H 0.70301 0.71729 0.65185 0.0
H322 H 0.7167 0.70518 0.74982 0.0
H323 H 0.69401 0.67635 0.66495 0.0
H324 H 0.72859 0.6507 -0.01166 0.0
H325 H 0.66852 0.57646 0.80236 0.0
H326 H 0.68478 0.68916 -0.0041 0.0
H327 H 0.71287 0.7107 0.90806 0.0
H328 H 0.72573 0.69776 0.00609 0.0
H329 H 0.61357 0.59879 0.75654 0.0
H330 H 0.63497 0.58235 0.69852 0.0
H331 H 0.64349 0.62264 0.67485 0.0
C332 C 0.05493 0.77081 0.15882 0.0
C333 C 0.06301 0.7692 0.249 0.0
C334 C 0.02278 0.75671 0.13145 0.0
C335 C 0.99806 0.74093 0.19607 0.0
C336 C 1.00607 0.74166 0.28844 0.0
C337 C 0.0385 0.7557 0.31384 0.0
C338 C 0.01535 0.75651 0.03229 0.0
C339 C 0.9804 0.72556 0.3596 0.0
C340 C 0.91221 0.7119 0.11889 0.0
C341 C 0.9018 0.67978 0.09705 0.0
C342 C 0.94325 0.73205 0.15325 0.0
C343 C 0.96441 0.71986 0.16516 0.0
C344 C 0.95388 0.68742 0.14429 0.0
C345 C 0.92273 0.66779 0.11132 0.0
C346 C 0.95355 0.76643 0.17575 0.0
C347 C 0.97569 0.67343 0.15575 0.0
H348 H 0.07381 0.78188 0.10867 0.0
H349 H 0.0445 0.7543 0.38364 0.0
H350 H 1.00568 0.73189 0.00529 0.0
H351 H 0.99672 0.76337 0.02204 0.0
H352 H 0.03699 0.77306 -0.0075 0.0
H353 H 0.99024 0.73281 0.42887 0.0
H354 H 0.96097 0.73134 0.34953 0.0
H355 H 0.96946 0.69915 0.35402 0.0
H356 H 0.89629 0.72144 0.10785 0.0
H357 H 0.91468 0.64282 0.09722 0.0
H358 H 0.97353 0.78282 0.13076 0.0
H359 H 0.96268 0.77189 0.24605 0.0
H360 H 0.93361 0.77164 0.16826 0.0
H361 H 0.99747 0.6869 0.11338 0.0
H362 H 0.96375 0.64769 0.13672 0.0
H363 H 0.98373 0.6758 0.22695 0.0
C364 C 0.3482 0.03223 0.62653 0.0
C365 C 0.34511 0.05669 0.58497 0.0
C366 C 0.33056 1.00049 0.59579 0.0
C367 C 0.31036 0.99337 0.51935 0.0
C368 C 0.30721 0.01811 0.47713 0.0
C369 C 0.32423 0.04946 0.51158 0.0
C370 C 0.33397 0.97469 0.64418 0.0
C371 C 0.28694 0.01177 0.39351 0.0
C372 C 0.29595 0.91881 0.39312 0.0
C373 C 0.26494 0.89619 0.42166 0.0
C374 C 0.31039 0.95089 0.4211 0.0
C375 C 0.29384 0.96029 0.48159 0.0
C376 C 0.26232 0.9376 0.50973 0.0
C377 C 0.24803 0.90587 0.47824 0.0
C378 C 0.34365 0.97456 0.38738 0.0
C379 C 0.24422 0.94649 0.5759 0.0
H380 H 0.3644 0.03797 0.68337 0.0
H381 H 0.32234 0.0686 0.47866 0.0
H382 H 0.30994 0.95434 0.66201 0.0
H383 H 0.34567 0.96521 0.59908 0.0
H384 H 0.3485 0.9837 0.70682 0.0
H385 H 0.28618 0.03339 0.37059 0.0
H386 H 0.2968 1.00382 0.33803 0.0
H387 H 0.26203 0.99215 0.40619 0.0
H388 H 0.30894 0.91139 0.34874 0.0
H389 H 0.22413 0.88831 0.5009 0.0
H390 H 0.36098 0.98237 0.44417 0.0
H391 H 0.34413 0.99628 0.35994 0.0
H392 H 0.35192 0.96418 0.33402 0.0
H393 H 0.25735 0.95361 0.64107 0.0
H394 H 0.21949 0.92638 0.58852 0.0
H395 H 0.24273 0.96741 0.55056 0.0
C396 C 0.13566 0.36443 0.73204 0.0
C397 C 0.13915 0.39169 0.77617 0.0
C398 C 0.1388 0.36435 0.63885 0.0
C399 C 0.1448 0.39193 0.5897 0.0
C400 C 0.14451 0.41798 0.63255 0.0
C401 C 0.14176 0.41761 0.72634 0.0
C402 C 0.13852 0.33599 0.59431 0.0
C403 C 0.14975 0.44722 0.58043 0.0
C404 C 0.19634 0.4111 0.38224 0.0
C405 C 0.17275 0.39968 0.31587 0.0
C406 C 0.18742 0.40852 0.47298 0.0
C407 C 0.15439 0.39464 0.49518 0.0
C408 C 0.13062 0.38281 0.42755 0.0
C409 C 0.14022 0.38543 0.33817 0.0
C410 C 0.21315 0.4208 0.54483 0.0
C411 C 0.0953 0.36828 0.44905 0.0
H412 H 0.1328 0.344 0.7708 0.0
H413 H 0.14399 0.43849 0.76069 0.0
H414 H 0.12247 0.32805 0.53456 0.0
H415 H 0.16306 0.34316 0.57026 0.0
H416 H 0.13055 0.31532 0.64119 0.0
H417 H 0.14438 0.46319 0.62179 0.0
H418 H 0.17515 0.46107 0.55806 0.0
H419 H 0.13449 0.44007 0.51905 0.0
H420 H 0.22144 0.42234 0.36318 0.0
H421 H 0.1223 0.377 0.28511 0.0
H422 H 0.2085 0.40121 0.59294 0.0
H423 H 0.21261 0.44015 0.58391 0.0
H424 H 0.23757 0.43032 0.51593 0.0
H425 H 0.08806 0.35034 0.5042 0.0
H426 H 0.07986 0.35647 0.3894 0.0
H427 H 0.09057 0.3874 0.47258 0.0
C428 C 0.79057 0.18544 0.01958 0.0
C429 C 0.78208 0.20398 0.07272 0.0
C430 C 0.79342 0.18993 0.92611 0.0
C431 C 0.78777 0.21351 0.88693 0.0
C432 C 0.77626 0.23001 0.93943 0.0
C433 C 0.77318 0.22472 0.03209 0.0
C434 C 0.80476 0.17127 0.87042 0.0
C435 C 0.76978 0.25513 0.89919 0.0
C436 C 0.83563 0.25344 0.67724 0.0
C437 C 0.81243 0.23689 0.61166 0.0
C438 C 0.82761 0.24652 0.76852 0.0
C439 C 0.79595 0.22253 0.7922 0.0
C440 C 0.77227 0.20682 0.72552 0.0
C441 C 0.78088 0.21436 0.6356 0.0
C442 C 0.85311 0.26399 0.8393 0.0
C443 C 0.73836 0.18114 0.7486 0.0
H444 H 0.79723 0.16927 0.05132 0.0
H445 H 0.76595 0.23858 0.0735 0.0
H446 H 0.78951 0.16117 0.80957 0.0
H447 H 0.82968 0.18759 0.84699 0.0
H448 H 0.80444 0.15135 0.90942 0.0
H449 H 0.75795 0.26341 0.94801 0.0
H450 H 0.7928 0.27618 0.87763 0.0
H451 H 0.75437 0.24572 0.8384 0.0
H452 H 0.85998 0.27066 0.65717 0.0
H453 H 0.76316 0.20171 0.58333 0.0
H454 H 0.85789 0.24669 0.87613 0.0
H455 H 0.8446 0.27513 0.88953 0.0
H456 H 0.87602 0.28299 0.80962 0.0
H457 H 0.72237 0.17313 0.68851 0.0
H458 H 0.72793 0.18997 0.80008 0.0
H459 H 0.73865 0.16005 0.77798 0.0
C460 C 0.54196 0.73813 0.39044 0.0
C461 C 0.55348 0.71754 0.41418 0.0
C462 C 0.5393 0.7446 0.30052 0.0
C463 C 0.54843 0.72997 0.23368 0.0
C464 C 0.55884 0.70801 0.25727 0.0
C465 C 0.5613 0.70199 0.34854 0.0
C466 C 0.52806 0.76804 0.2775 0.0
C467 C 0.56831 0.69182 0.18634 0.0
C468 C 0.52148 0.72463 -0.00568 0.0
C469 C 0.55031 0.74706 0.95292 0.0
C470 C 0.52004 0.71976 0.08717 0.0
C471 C 0.54794 0.73828 0.13891 0.0
C472 C 0.57606 0.76333 0.09892 0.0
C473 C 0.57695 0.76745 0.00545 0.0
C474 C 0.48957 0.6931 0.12849 0.0
C475 C 0.60589 0.78407 0.15371 0.0
H476 H 0.53596 0.74998 0.44277 0.0
H477 H 0.57028 0.68623 0.3685 0.0
H478 H 0.54816 0.78998 0.24704 0.0
H479 H 0.50845 0.75757 0.2269 0.0
H480 H 0.51935 0.77511 0.33782 0.0
H481 H 0.57442 0.67432 0.21608 0.0
H482 H 0.54844 0.6791 0.13728 0.0
H483 H 0.58942 0.71013 0.14816 0.0
H484 H 0.50063 0.70928 0.9535 0.0
H485 H 0.59913 0.78498 -0.02673 0.0
H486 H 0.48288 0.70163 0.1897 0.0
H487 H 0.49359 0.67324 0.14961 0.0
H488 H 0.46909 0.68339 0.08044 0.0
H489 H 0.59984 0.79343 0.21442 0.0
H490 H 0.62434 0.80466 0.11401 0.0
H491 H 0.61644 0.76943 0.17736 0.0
C492 C 0.76255 0.54617 0.64298 0.0
C493 C 0.74885 0.55603 0.70896 0.0
C494 C 0.75577 0.54801 0.5521 0.0
C495 C 0.73469 0.55959 0.52933 0.0
C496 C 0.72146 0.57018 0.59649 0.0
C497 C 0.72885 0.5683 0.68606 0.0
C498 C 0.77061 0.53712 0.48073 0.0
C499 C 0.69873 0.58239 0.57436 0.0
C500 C 0.74308 0.58769 0.29089 0.0
C501 C 0.72037 0.55937 0.24841 0.0
C502 C 0.74682 0.58874 0.38402 0.0
C503 C 0.72687 0.56095 0.43475 0.0
C504 C 0.70145 0.53355 0.39342 0.0
C505 C 0.69849 0.53303 0.29961 0.0
C506 C 0.77388 0.61849 0.42683 0.0
C507 C 0.67918 0.50397 0.44721 0.0
H508 H 0.77776 0.53646 0.66249 0.0
H509 H 0.71825 0.57559 0.73883 0.0
H510 H 0.75145 0.51666 0.44265 0.0
H511 H 0.78423 0.55681 0.43167 0.0
H512 H 0.7871 0.52956 0.50998 0.0
H513 H 0.69405 0.59352 0.63369 0.0
H514 H 0.7084 0.60031 0.51895 0.0
H515 H 0.6755 0.56214 0.55091 0.0
H516 H 0.75948 0.60836 0.25086 0.0
H517 H 0.68071 0.51128 0.26635 0.0
H518 H 0.79273 0.6133 0.45056 0.0
H519 H 0.76516 0.62574 0.48656 0.0
H520 H 0.78502 0.63901 0.3789 0.0
H521 H 0.69247 0.49192 0.4704 0.0
H522 H 0.65818 0.48659 0.40677 0.0
H523 H 0.67038 0.51055 0.50814 0.0
C524 C 0.18708 0.7815 0.67598 0.0
C525 C 0.20727 0.77485 0.6241 0.0
C526 C 0.19019 0.78327 0.76981 0.0
C527 C 0.21397 0.77823 0.81046 0.0
C528 C 0.23195 0.7682 0.75886 0.0
C529 C 0.2282 0.76643 0.66568 0.0
C530 C 0.17012 0.79322 0.82434 0.0
C531 C 0.25721 0.76226 0.80078 0.0
C532 C 0.25328 0.82718 0.01805 0.0
C533 C 0.23758 0.80405 0.08443 0.0
C534 C 0.24604 0.81884 0.92728 0.0
C535 C 0.22258 0.78688 0.90494 0.0
C536 C 0.20746 0.76336 -0.02751 0.0
C537 C 0.21526 0.77234 0.06201 0.0
C538 C 0.26281 0.84423 0.85557 0.0
C539 C 0.18237 0.72915 0.95069 0.0
H540 H 0.17073 0.78773 0.64322 0.0
H541 H 0.24326 0.76055 0.62492 0.0
H542 H 0.16034 0.77794 0.88536 0.0
H543 H 0.18541 0.81833 0.84741 0.0
H544 H 0.14984 0.79176 0.78445 0.0
H545 H 0.2661 0.75077 0.75272 0.0
H546 H 0.2779 0.78544 0.82268 0.0
H547 H 0.24764 0.7468 0.86151 0.0
H548 H 0.2703 0.85167 0.03718 0.0
H549 H 0.2032 0.75476 0.1151 0.0
H550 H 0.24493 0.8478 0.81757 0.0
H551 H 0.27485 0.83631 0.80653 0.0
H552 H 0.28104 0.86761 0.88452 0.0
H553 H 0.19154 0.71903 0.89927 0.0
H554 H 0.16083 0.72864 0.92171 0.0
H555 H 0.17492 0.71338 0.01129 0.0
C556 C 0.38999 0.12672 0.36662 0.0
C557 C 0.40079 0.15873 0.38903 0.0
C558 C 0.38566 0.1171 0.27712 0.0
C559 C 0.39293 0.14041 0.20966 0.0
C560 C 0.40255 0.17262 0.23223 0.0
C561 C 0.40619 0.18146 0.32303 0.0
C562 C 0.37479 0.0825 0.25507 0.0
C563 C 0.4102 0.19784 0.16061 0.0
C564 C 0.42323 0.13502 -0.01772 0.0
C565 C 0.39691 0.12944 0.92917 0.0
C566 C 0.42151 0.13642 0.07586 0.0
C567 C 0.39275 0.13185 0.11528 0.0
C568 C 0.36508 0.12268 0.06259 0.0
C569 C 0.3675 0.12156 0.96933 0.0
C570 C 0.45125 0.14566 0.13148 0.0
C571 C 0.33387 0.11692 0.10358 0.0
H572 H 0.38549 0.1093 0.41947 0.0
H573 H 0.41428 0.20607 0.34224 0.0
H574 H 0.35568 0.07325 0.2029 0.0
H575 H 0.39529 0.08078 0.22727 0.0
H576 H 0.36558 0.06674 0.31557 0.0
H577 H 0.41576 0.22129 0.18993 0.0
H578 H 0.43119 0.20135 0.12043 0.0
H579 H 0.38965 0.18985 0.11349 0.0
H580 H 0.44583 0.14073 0.95075 0.0
H581 H 0.34692 0.11646 0.92768 0.0
H582 H 0.44537 0.12955 0.19074 0.0
H583 H 0.46091 0.17043 0.15733 0.0
H584 H 0.47035 0.14478 0.09161 0.0
H585 H 0.32809 0.10208 0.16561 0.0
H586 H 0.31349 0.10488 0.05556 0.0
H587 H 0.33623 0.14025 0.12306 0.0
C588 C 0.17931 0.57789 0.07612 0.0
C589 C 0.15678 0.54911 0.11726 0.0
C590 C 0.18263 0.60728 0.10339 0.0
C591 C 0.16349 0.60789 0.1751 0.0
C592 C 0.13967 0.57868 0.21405 0.0
C593 C 0.13641 0.54952 0.18401 0.0
C594 C 0.20784 0.6378 0.05872 0.0
C595 C 0.11908 0.57835 0.2913 0.0
C596 C 0.20468 0.68408 0.31387 0.0
C597 C 0.18984 0.70092 0.28231 0.0
C598 C 0.19529 0.65321 0.28216 0.0
C599 C 0.17101 0.63917 0.21548 0.0
C600 C 0.15553 0.65587 0.18442 0.0
C601 C 0.16488 0.68647 0.2191 0.0
C602 C 0.21203 0.636 0.31833 0.0
C603 C 0.13012 0.64207 0.11187 0.0
H604 H 0.19497 0.57743 0.02424 0.0
H605 H 0.11918 0.5272 0.2162 0.0
H606 H 0.19763 0.65324 0.04023 0.0
H607 H 0.22784 0.65152 0.10665 0.0
H608 H 0.21782 0.63296 -0.00298 0.0
H609 H 0.09948 0.55371 0.30762 0.0
H610 H 0.13425 0.58861 0.35225 0.0
H611 H 0.10833 0.5935 0.27526 0.0
H612 H 0.22387 0.69517 0.36312 0.0
H613 H 0.15362 0.69965 0.1939 0.0
H614 H 0.22608 0.63306 0.26365 0.0
H615 H 0.19408 0.61165 0.34229 0.0
H616 H 0.22859 0.64917 0.37489 0.0
H617 H 0.14115 0.64068 0.04754 0.0
H618 H 0.11858 0.65683 0.10048 0.0
H619 H 0.1113 0.61731 0.1298 0.0
C620 C 0.68723 0.15375 0.43075 0.0
C621 C 0.7085 0.18681 0.42105 0.0
C622 C 0.65552 0.14207 0.46077 0.0
C623 C 0.645 0.16399 0.48221 0.0
C624 C 0.66655 0.19737 0.47387 0.0
C625 C 0.69791 0.20833 0.44314 0.0
C626 C 0.63317 0.10633 0.46831 0.0
C627 C 0.6564 0.2216 0.49655 0.0
C628 C 0.55829 0.14402 0.4704 0.0
C629 C 0.55033 0.14223 0.56202 0.0
C630 C 0.58833 0.14887 0.4433 0.0
C631 C 0.61113 0.15245 0.50955 0.0
C632 C 0.60251 0.14875 0.60212 0.0
C633 C 0.57203 0.14349 0.62731 0.0
C634 C 0.59634 0.15222 0.34391 0.0
C635 C 0.6262 0.15256 0.67479 0.0
H636 H 0.69525 0.13696 0.41427 0.0
H637 H 0.71421 0.23392 0.43667 0.0
H638 H 0.62314 0.09998 0.53755 0.0
H639 H 0.61263 0.09881 0.42139 0.0
H640 H 0.64537 0.0925 0.45235 0.0
H641 H 0.67644 0.24671 0.48987 0.0
H642 H 0.63662 0.21833 0.45112 0.0
H643 H 0.64713 0.21783 0.5667 0.0
H644 H 0.54134 0.14277 0.41991 0.0
H645 H 0.56592 0.14228 0.69818 0.0
H646 H 0.60732 0.13749 0.3256 0.0
H647 H 0.61417 0.17758 0.32833 0.0
H648 H 0.57481 0.1449 0.30096 0.0
H649 H 0.63798 0.13842 0.65831 0.0
H650 H 0.6146 0.14492 0.74208 0.0
H651 H 0.64533 0.17811 0.67887 0.0
C652 C 0.27754 0.44675 0.91504 0.0
C653 C 0.26113 0.45933 0.96262 0.0
C654 C 0.30834 0.46709 0.87929 0.0
C655 C 0.32318 0.50064 0.89295 0.0
C656 C 0.30713 0.51325 0.94391 0.0
C657 C 0.27624 0.4925 -0.02266 0.0
C658 C 0.3245 0.45282 0.8243 0.0
C659 C 0.32227 0.54881 0.96145 0.0
C660 C 0.41268 0.55804 0.86434 0.0
C661 C 0.41315 0.57356 0.78386 0.0
C662 C 0.38369 0.53293 0.8987 0.0
C663 C 0.35473 0.52307 0.85064 0.0
C664 C 0.35558 0.53748 0.76634 0.0
C665 C 0.38478 0.56286 0.73449 0.0
C666 C 0.38378 0.51852 -0.01075 0.0
C667 C 0.32538 0.52738 0.71227 0.0
H668 H 0.26588 0.42114 0.90312 0.0
H669 H 0.2638 0.50234 0.01476 0.0
H670 H 0.32702 0.46123 0.75337 0.0
H671 H 0.34903 0.46102 0.85037 0.0
H672 H 0.31075 0.42618 0.82484 0.0
H673 H 0.30751 0.55448 0.00722 0.0
H674 H 0.34643 0.55817 -0.00811 0.0
H675 H 0.32548 0.56174 0.89676 0.0
H676 H 0.4347 0.56672 0.90276 0.0
H677 H 0.38531 0.57512 0.67243 0.0
H678 H 0.36979 0.49195 -0.0138 0.0
H679 H 0.37207 0.52622 0.04004 0.0
H680 H 0.4085 0.52604 0.01277 0.0
H681 H 0.31132 0.50088 0.70616 0.0
H682 H 0.33066 0.53806 0.64347 0.0
H683 H 0.31004 0.53509 0.74759 0.0
C684 C 0.81648 0.39948 0.27496 0.0
C685 C 0.81426 0.37622 0.21421 0.0
C686 C 0.81203 0.4248 0.24553 0.0
C687 C 0.80566 0.427 0.15309 0.0
C688 C 0.80561 0.40474 0.09074 0.0
C689 C 0.80967 0.37948 0.12218 0.0
C690 C 0.812 0.44787 0.31424 0.0
C691 C 0.7994 0.40646 -0.0085 0.0
C692 C 0.75158 0.46047 0.09102 0.0
C693 C 0.77362 0.49148 0.06071 0.0
C694 C 0.76186 0.43964 0.12275 0.0
C695 C 0.79504 0.44982 0.12326 0.0
C696 C 0.81751 0.48109 0.09286 0.0
C697 C 0.80654 0.50168 0.06243 0.0
C698 C 0.73709 0.4066 0.15535 0.0
C699 C 0.85303 0.49261 0.09138 0.0
H700 H 0.81989 0.39687 0.34618 0.0
H701 H 0.8083 0.36164 0.07506 0.0
H702 H 0.82695 0.47299 0.29063 0.0
H703 H 0.78715 0.44334 0.32295 0.0
H704 H 0.82106 0.44533 0.38101 0.0
H705 H 0.80419 0.39 0.95061 0.0
H706 H 0.77395 0.39987 -0.01853 0.0
H707 H 0.81456 0.43127 0.96572 0.0
H708 H 0.72611 0.45245 0.09068 0.0
H709 H 0.82371 0.52561 0.03911 0.0
H710 H 0.74264 0.40279 0.22547 0.0
H711 H 0.73773 0.38806 0.11252 0.0
H712 H 0.71234 0.40285 0.15378 0.0
H713 H 0.86133 0.49071 0.15983 0.0
H714 H 0.86745 0.51785 0.06785 0.0
H715 H 0.85779 0.47712 0.04611 0.0
C716 C 0.40222 0.80789 0.39826 0.0
C717 C 0.38101 0.80757 0.46355 0.0
C718 C 0.42763 0.80289 0.42285 0.0
C719 C 0.43194 0.79777 0.51483 0.0
C720 C 0.41187 0.79965 0.58142 0.0
C721 C 0.38654 0.80437 0.55488 0.0
C722 C 0.44849 0.80095 0.34991 0.0
C723 C 0.41588 0.79472 0.68028 0.0
C724 C 0.46445 0.74276 0.57445 0.0
C725 C 0.49609 0.76458 0.60026 0.0
C726 C 0.44369 0.75338 0.54451 0.0
C727 C 0.45472 0.78669 0.54073 0.0
C728 C 0.48675 0.80893 0.56552 0.0
C729 C 0.50713 0.7976 0.59476 0.0
C730 C 0.40975 0.72887 0.51813 0.0
C731 C 0.49927 0.8446 0.56269 0.0
H732 H 0.39784 0.81023 0.32758 0.0
H733 H 0.37032 0.8045 0.60546 0.0
H734 H 0.47424 0.81541 0.36833 0.0
H735 H 0.44282 0.77571 0.34263 0.0
H736 H 0.44472 0.8094 0.28359 0.0
H737 H 0.40079 0.80058 0.72409 0.0
H738 H 0.40901 0.76931 0.69221 0.0
H739 H 0.44135 0.80976 0.70086 0.0
H740 H 0.45577 0.71721 0.57772 0.0
H741 H 0.53161 0.81461 0.61417 0.0
H742 H 0.40464 0.73364 0.44851 0.0
H743 H 0.39246 0.73071 0.56377 0.0
H744 H 0.40536 0.70393 0.52133 0.0
H745 H 0.49565 0.85185 0.49451 0.0
H746 H 0.5252 0.85875 0.57999 0.0
H747 H 0.48561 0.8508 0.61096 0.0
C748 C 0.5779 0.3996 0.78083 0.0
C749 C 0.58285 0.40788 0.87239 0.0
C750 C 0.55248 0.36988 0.753 0.0
C751 C 0.53184 0.34774 0.81858 0.0
C752 C 0.53566 0.35673 0.91078 0.0
C753 C 0.5611 0.3869 0.9366 0.0
C754 C 0.54895 0.36147 0.65394 0.0
C755 C 0.5143 0.33371 -0.01725 0.0
C756 C 0.45635 0.27282 0.73864 0.0
C757 C 0.46711 0.2506 0.73402 0.0
C758 C 0.47702 0.30455 0.76671 0.0
C759 C 0.50899 0.31407 0.79168 0.0
C760 C 0.5198 0.2916 0.78819 0.0
C761 C 0.49882 0.26026 0.75891 0.0
C762 C 0.46481 0.32798 0.7685 0.0
C763 C 0.55365 0.3007 0.81498 0.0
H764 H 0.59466 0.41603 0.73119 0.0
H765 H 0.56509 0.3933 0.00745 0.0
H766 H 0.55594 0.34303 0.642 0.0
H767 H 0.52357 0.35113 0.63241 0.0
H768 H 0.56422 0.38265 0.61088 0.0
H769 H 0.51789 0.34558 0.04937 0.0
H770 H 0.48867 0.32284 0.9634 0.0
H771 H 0.51964 0.31388 -0.01011 0.0
H772 H 0.43187 0.26552 0.71947 0.0
H773 H 0.50727 0.24319 0.75623 0.0
H774 H 0.47909 0.34812 0.72135 0.0
H775 H 0.46786 0.3384 0.83695 0.0
H776 H 0.43907 0.31659 0.74923 0.0
H777 H 0.57109 0.31988 0.76965 0.0
H778 H 0.55787 0.28004 0.81179 0.0
H779 H 0.55867 0.31036 0.8847 0.0
loop_
_geom_bond_atom_site_label_1
_geom_bond_atom_site_label_2
_geom_bond_distance
_geom_bond_site_symmetry_2
_ccdc_geom_bond_type
C0 O16 1.251 . S
C0 O18 1.254 . S
N1 C2 1.333 1_554 S
N1 C6 1.307 . S
N1 Zn7 2.020 . S
C2 N1 1.333 1_556 S
C2 C3 1.379 . S
C2 H20 0.952 . S
C3 C2 1.379 . S
C3 C4 1.390 1_556 S
C3 H30 0.949 . S
C4 C3 1.390 1_554 S
C4 C5 1.357 . S
C5 C4 1.357 . S
C5 C6 1.370 . S
C5 H31 0.950 . S
C6 N1 1.307 . S
C6 C5 1.370 . S
C6 H24 0.948 . S
Zn7 N1 2.020 . S
Zn7 O16 2.039 1_554 S
Zn7 O22 2.034 . S
Zn7 O26 2.025 . S
Zn7 O28 2.024 . S
C8 O27 1.246 . S
C8 O28 1.249 . S
N9 C10 1.307 . S
N9 C11 1.333 . S
N9 Zn15 2.020 . S
C10 N9 1.307 . S
C10 C14 1.370 . S
C10 H21 0.948 . S
C11 N9 1.333 . S
C11 C12 1.379 . S
C11 H19 0.952 . S
C12 C11 1.379 . S
C12 C13 1.390 . S
C12 H32 0.949 . S
C13 C12 1.390 . S
C13 C14 1.357 . S
C14 C10 1.370 . S
C14 C13 1.357 . S
C14 H33 0.950 . S
Zn15 N9 2.020 . S
Zn15 O18 2.025 1_554 S
Zn15 O23 2.024 . S
Zn15 O25 2.039 . S
Zn15 O27 2.034 . S
O16 C0 1.251 . S
O16 Zn7 2.039 1_556 S
C17 O22 1.246 . S
C17 O23 1.249 . S
O18 C0 1.254 . S
O18 Zn15 2.025 1_556 S
H19 C11 0.952 . S
H20 C2 0.952 . S
H21 C10 0.948 . S
O22 Zn7 2.034 . S
O22 C17 1.246 . S
O23 Zn15 2.024 . S
O23 C17 1.249 . S
H24 C6 0.948 . S
O25 Zn15 2.039 . S
O25 C29 1.251 . S
O26 Zn7 2.025 . S
O26 C29 1.254 . S
O27 C8 1.246 . S
O27 Zn15 2.034 . S
O28 Zn7 2.024 . S
O28 C8 1.249 . S
C29 O25 1.251 . S
C29 O26 1.254 . S
H30 C3 0.949 . S
H31 C5 0.950 . S
H32 C12 0.949 . S
H33 C14 0.950 . S
C34 O50 1.251 . S
C34 O52 1.254 . S
N35 C36 1.333 . S
N35 C40 1.307 . S
N35 Zn41 2.020 . S
C36 N35 1.333 . S
C36 C37 1.379 . S
C36 H54 0.952 . S
C37 C36 1.379 . S
C37 C38 1.390 . S
C37 H64 0.949 . S
C38 C37 1.390 . S
C38 C39 1.357 . S
C39 C38 1.357 . S
C39 C40 1.370 . S
C39 H65 0.950 . S
C40 N35 1.307 . S
C40 C39 1.370 . S
C40 H58 0.948 . S
Zn41 N35 2.020 . S
Zn41 O50 2.039 . S
Zn41 O56 2.034 . S
Zn41 O60 2.025 . S
Zn41 O62 2.024 . S
C42 O61 1.246 . S
C42 O62 1.249 . S
N43 C44 1.307 . S
N43 C45 1.333 . S
N43 Zn49 2.020 . S
C44 N43 1.307 . S
C44 C48 1.370 . S
C44 H55 0.948 . S
C45 N43 1.333 . S
C45 C46 1.379 . S
C45 H53 0.952 . S
C46 C45 1.379 . S
C46 C47 1.390 . S
C46 H66 0.949 . S
C47 C46 1.390 . S
C47 C48 1.357 . S
C48 C44 1.370 . S
C48 C47 1.357 . S
C48 H67 0.950 . S
Zn49 N43 2.020 . S
Zn49 O52 2.025 . S
Zn49 O57 2.024 . S
Zn49 O59 2.039 . S
Zn49 O61 2.034 . S
O50 C34 1.251 . S
O50 Zn41 2.039 . S
C51 O56 1.246 . S
C51 O57 1.249 . S
O52 C34 1.254 . S
O52 Zn49 2.025 . S
H53 C45 0.952 . S
H54 C36 0.952 . S
H55 C44 0.948 . S
O56 Zn41 2.034 . S
O56 C51 1.246 . S
O57 Zn49 2.024 . S
O57 C51 1.249 . S
H58 C40 0.948 . S
O59 Zn49 2.039 . S
O59 C63 1.251 . S
O60 Zn41 2.025 . S
O60 C63 1.254 . S
O61 C42 1.246 . S
O61 Zn49 2.034 . S
O62 Zn41 2.024 . S
O62 C42 1.249 . S
C63 O59 1.251 . S
C63 O60 1.254 . S
H64 C37 0.949 . S
H65 C39 0.950 . S
H66 C46 0.949 . S
H67 C48 0.950 . S
C68 O84 1.251 . S
C68 O86 1.254 . S
N69 C70 1.333 . S
N69 C74 1.307 . S
N69 Zn75 2.020 . S
C70 N69 1.333 . S
C70 C71 1.379 . S
C70 H88 0.952 . S
C71 C70 1.379 . S
C71 C72 1.390 . S
C71 H98 0.949 . S
C72 C71 1.390 . S
C72 C73 1.357 . S
C73 C72 1.357 . S
C73 C74 1.370 . S
C73 H99 0.950 . S
C74 N69 1.307 . S
C74 C73 1.370 . S
C74 H92 0.948 . S
Zn75 N69 2.020 . S
Zn75 O84 2.039 . S
Zn75 O90 2.034 . S
Zn75 O94 2.025 . S
Zn75 O96 2.024 . S
C76 O95 1.246 . S
C76 O96 1.249 . S
N77 C78 1.307 . S
N77 C79 1.333 . S
N77 Zn83 2.020 . S
C78 N77 1.307 . S
C78 C82 1.370 . S
C78 H89 0.948 . S
C79 N77 1.333 . S
C79 C80 1.379 . S
C79 H87 0.952 . S
C80 C79 1.379 . S
C80 C81 1.390 . S
C80 H100 0.949 . S
C81 C80 1.390 . S
C81 C82 1.357 . S
C82 C78 1.370 . S
C82 C81 1.357 . S
C82 H101 0.950 . S
Zn83 N77 2.020 . S
Zn83 O86 2.025 . S
Zn83 O91 2.024 . S
Zn83 O93 2.039 . S
Zn83 O95 2.034 . S
O84 C68 1.251 . S
O84 Zn75 2.039 . S
C85 O90 1.246 . S
C85 O91 1.249 . S
O86 C68 1.254 . S
O86 Zn83 2.025 . S
H87 C79 0.952 . S
H88 C70 0.952 . S
H89 C78 0.948 . S
O90 Zn75 2.034 . S
O90 C85 1.246 . S
O91 Zn83 2.024 . S
O91 C85 1.249 . S
H92 C74 0.948 . S
O93 Zn83 2.039 . S
O93 C97 1.251 . S
O94 Zn75 2.025 . S
O94 C97 1.254 . S
O95 C76 1.246 . S
O95 Zn83 2.034 . S
O96 Zn75 2.024 . S
O96 C76 1.249 . S
C97 O93 1.251 . S
C97 O94 1.254 . S
H98 C71 0.949 . S
H99 C73 0.950 . S
H100 C80 0.949 . S
H101 C82 0.950 . S
C102 O118 1.251 . S
C102 O120 1.254 . S
N103 C104 1.333 . S
N103 C108 1.307 1_554 S
N103 Zn109 2.020 . S
C104 N103 1.333 . S
C104 C105 1.379 . S
C104 H122 0.952 . S
C105 C104 1.379 . S
C105 C106 1.390 . S
C105 H132 0.949 . S
C106 C105 1.390 . S
C106 C107 1.357 1_554 S
C107 C106 1.357 1_556 S
C107 C108 1.370 . S
C107 H133 0.950 . S
C108 N103 1.307 1_556 S
C108 C107 1.370 . S
C108 H126 0.948 . S
Zn109 N103 2.020 . S
Zn109 O118 2.039 . S
Zn109 O124 2.034 1_554 S
Zn109 O128 2.025 1_554 S
Zn109 O130 2.024 . S
C110 O129 1.246 . S
C110 O130 1.249 . S
N111 C112 1.307 1_556 S
N111 C113 1.333 . S
N111 Zn117 2.020 . S
C112 N111 1.307 1_554 S
C112 C116 1.370 . S
C112 H123 0.948 . S
C113 N111 1.333 . S
C113 C114 1.379 . S
C113 H121 0.952 . S
C114 C113 1.379 . S
C114 C115 1.390 . S
C114 H134 0.949 . S
C115 C114 1.390 . S
C115 C116 1.357 1_556 S
C116 C112 1.370 . S
C116 C115 1.357 1_554 S
C116 H135 0.950 . S
Zn117 N111 2.020 . S
Zn117 O120 2.025 1_556 S
Zn117 O125 2.024 . S
Zn117 O127 2.039 . S
Zn117 O129 2.034 1_556 S
O118 C102 1.251 . S
O118 Zn109 2.039 . S
C119 O124 1.246 . S
C119 O125 1.249 . S
O120 C102 1.254 . S
O120 Zn117 2.025 1_554 S
H121 C113 0.952 . S
H122 C104 0.952 . S
H123 C112 0.948 . S
O124 Zn109 2.034 1_556 S
O124 C119 1.246 . S
O125 Zn117 2.024 . S
O125 C119 1.249 . S
H126 C108 0.948 . S
O127 Zn117 2.039 . S
O127 C131 1.251 . S
O128 Zn109 2.025 1_556 S
O128 C131 1.254 . S
O129 C110 1.246 . S
O129 Zn117 2.034 1_554 S
O130 Zn109 2.024 . S
O130 C110 1.249 . S
C131 O127 1.251 . S
C131 O128 1.254 . S
H132 C105 0.949 . S
H133 C107 0.950 . S
H134 C114 0.949 . S
H135 C116 0.950 . S
C136 O152 1.251 . S
C136 O154 1.254 . S
N137 C138 1.333 . S
N137 C142 1.307 . S
N137 Zn143 2.020 . S
C138 N137 1.333 . S
C138 C139 1.379 . S
C138 H156 0.952 . S
C139 C138 1.379 . S
C139 C140 1.390 . S
C139 H166 0.949 . S
C140 C139 1.390 . S
C140 C141 1.357 . S
C141 C140 1.357 . S
C141 C142 1.370 . S
C141 H167 0.950 . S
C142 N137 1.307 . S
C142 C141 1.370 . S
C142 H160 0.948 . S
Zn143 N137 2.020 . S
Zn143 O152 2.039 . S
Zn143 O158 2.034 . S
Zn143 O162 2.025 . S
Zn143 O164 2.024 . S
C144 O163 1.246 . S
C144 O164 1.249 . S
N145 C146 1.307 . S
N145 C147 1.333 . S
N145 Zn151 2.020 . S
C146 N145 1.307 . S
C146 C150 1.370 . S
C146 H157 0.948 . S
C147 N145 1.333 . S
C147 C148 1.379 . S
C147 H155 0.952 . S
C148 C147 1.379 . S
C148 C149 1.390 . S
C148 H168 0.949 . S
C149 C148 1.390 . S
C149 C150 1.357 . S
C150 C146 1.370 . S
C150 C149 1.357 . S
C150 H169 0.950 . S
Zn151 N145 2.020 . S
Zn151 O154 2.025 . S
Zn151 O159 2.024 . S
Zn151 O161 2.039 . S
Zn151 O163 2.034 . S
O152 C136 1.251 . S
O152 Zn143 2.039 . S
C153 O158 1.246 . S
C153 O159 1.249 . S
O154 C136 1.254 . S
O154 Zn151 2.025 . S
H155 C147 0.952 . S
H156 C138 0.952 . S
H157 C146 0.948 . S
O158 Zn143 2.034 . S
O158 C153 1.246 . S
O159 Zn151 2.024 . S
O159 C153 1.249 . S
H160 C142 0.948 . S
O161 Zn151 2.039 . S
O161 C165 1.251 . S
O162 Zn143 2.025 . S
O162 C165 1.254 . S
O163 C144 1.246 . S
O163 Zn151 2.034 . S
O164 Zn143 2.024 . S
O164 C144 1.249 . S
C165 O161 1.251 . S
C165 O162 1.254 . S
H166 C139 0.949 . S
H167 C141 0.950 . S
H168 C148 0.949 . S
H169 C150 0.950 . S
C170 O186 1.251 . S
C170 O188 1.254 . S
N171 C172 1.333 . S
N171 C176 1.307 . S
N171 Zn177 2.020 . S
C172 N171 1.333 . S
C172 C173 1.379 . S
C172 H190 0.952 . S
C173 C172 1.379 . S
C173 C174 1.390 . S
C173 H200 0.949 . S
C174 C173 1.390 . S
C174 C175 1.357 . S
C175 C174 1.357 . S
C175 C176 1.370 . S
C175 H201 0.950 . S
C176 N171 1.307 . S
C176 C175 1.370 . S
C176 H194 0.948 . S
Zn177 N171 2.020 . S
Zn177 O186 2.039 . S
Zn177 O192 2.034 . S
Zn177 O196 2.025 . S
Zn177 O198 2.024 . S
C178 O197 1.246 . S
C178 O198 1.249 . S
N179 C180 1.307 . S
N179 C181 1.333 . S
N179 Zn185 2.020 . S
C180 N179 1.307 . S
C180 C184 1.370 . S
C180 H191 0.948 . S
C181 N179 1.333 . S
C181 C182 1.379 . S
C181 H189 0.952 . S
C182 C181 1.379 . S
C182 C183 1.390 . S
C182 H202 0.949 . S
C183 C182 1.390 . S
C183 C184 1.357 . S
C184 C180 1.370 . S
C184 C183 1.357 . S
C184 H203 0.950 . S
Zn185 N179 2.020 . S
Zn185 O188 2.025 . S
Zn185 O193 2.024 . S
Zn185 O195 2.039 . S
Zn185 O197 2.034 . S
O186 C170 1.251 . S
O186 Zn177 2.039 . S
C187 O192 1.246 . S
C187 O193 1.249 . S
O188 C170 1.254 . S
O188 Zn185 2.025 . S
H189 C181 0.952 . S
H190 C172 0.952 . S
H191 C180 0.948 . S
O192 Zn177 2.034 . S
O192 C187 1.246 . S
O193 Zn185 2.024 . S
O193 C187 1.249 . S
H194 C176 0.948 . S
O195 Zn185 2.039 . S
O195 C199 1.251 . S
O196 Zn177 2.025 . S
O196 C199 1.254 . S
O197 C178 1.246 . S
O197 Zn185 2.034 . S
O198 Zn177 2.024 . S
O198 C178 1.249 . S
C199 O195 1.251 . S
C199 O196 1.254 . S
H200 C173 0.949 . S
H201 C175 0.950 . S
H202 C182 0.949 . S
H203 C184 0.950 . S
C204 C205 1.391 . S
C204 C206 1.394 . S
C204 H220 0.931 . S
C205 C204 1.391 . S
C205 C209 1.376 . S
C206 C204 1.394 . S
C206 C207 1.369 . S
C206 C210 1.531 . S
C207 C206 1.369 . S
C207 C208 1.410 . S
C207 C215 1.503 . S
C208 C207 1.410 . S
C208 C209 1.392 . S
C208 C211 1.511 . S
C209 C205 1.376 . S
C209 C208 1.392 . S
C209 H221 0.929 . S
C210 C206 1.531 . S
C210 H222 0.960 . S
C210 H223 0.962 . S
C210 H224 0.960 . S
C211 C208 1.511 . S
C211 H225 0.961 . S
C211 H226 0.961 . S
C211 H227 0.961 . S
C212 C213 1.370 1_554 S
C212 C214 1.363 1_554 S
C212 H228 0.931 . S
C213 C212 1.370 1_556 S
C213 C217 1.408 . S
C214 C212 1.363 1_556 S
C214 C215 1.370 . S
C214 C218 1.524 1_556 S
C215 C207 1.503 . S
C215 C214 1.370 . S
C215 C216 1.403 . S
C216 C215 1.403 . S
C216 C217 1.404 . S
C216 C219 1.539 . S
C217 C213 1.408 . S
C217 C216 1.404 . S
C217 H229 0.930 . S
C218 C214 1.524 1_554 S
C218 H230 0.956 1_554 S
C218 H231 0.961 . S
C218 H232 0.961 . S
C219 C216 1.539 . S
C219 H233 0.958 . S
C219 H234 0.961 . S
C219 H235 0.960 . S
H220 C204 0.931 . S
H221 C209 0.929 . S
H222 C210 0.960 . S
H223 C210 0.962 . S
H224 C210 0.960 . S
H225 C211 0.961 . S
H226 C211 0.961 . S
H227 C211 0.961 . S
H228 C212 0.931 . S
H229 C217 0.930 . S
H230 C218 0.956 1_556 S
H231 C218 0.961 . S
H232 C218 0.961 . S
H233 C219 0.958 . S
H234 C219 0.961 . S
H235 C219 0.960 . S
C236 C237 1.391 . S
C236 C238 1.394 . S
C236 H252 0.931 . S
C237 C236 1.391 . S
C237 C241 1.376 . S
C238 C236 1.394 . S
C238 C239 1.369 1_455 S
C238 C242 1.531 1_455 S
C239 C238 1.369 1_655 S
C239 C240 1.410 1_655 S
C239 C247 1.503 . S
C240 C239 1.410 1_455 S
C240 C241 1.392 . S
C240 C243 1.511 1_455 S
C241 C237 1.376 . S
C241 C240 1.392 . S
C241 H253 0.929 . S
C242 C238 1.531 1_655 S
C242 H254 0.960 . S
C242 H255 0.962 . S
C242 H256 0.960 . S
C243 C240 1.511 1_655 S
C243 H257 0.961 1_655 S
C243 H258 0.961 . S
C243 H259 0.959 1_655 S
C244 C245 1.370 . S
C244 C246 1.363 . S
C244 H260 0.931 . S
C245 C244 1.370 . S
C245 C249 1.408 . S
C246 C244 1.363 . S
C246 C247 1.370 . S
C246 C250 1.524 . S
C247 C239 1.503 . S
C247 C246 1.370 . S
C247 C248 1.403 . S
C248 C247 1.403 . S
C248 C249 1.404 . S
C248 C251 1.539 . S
C249 C245 1.408 . S
C249 C248 1.404 . S
C249 H261 0.930 . S
C250 C246 1.524 . S
C250 H262 0.956 . S
C250 H263 0.961 . S
C250 H264 0.961 . S
C251 C248 1.539 . S
C251 H265 0.958 . S
C251 H266 0.961 . S
C251 H267 0.960 . S
H252 C236 0.931 . S
H253 C241 0.929 . S
H254 C242 0.960 . S
H255 C242 0.962 . S
H256 C242 0.960 . S
H257 C243 0.961 1_455 S
H258 C243 0.961 . S
H259 C243 0.959 1_455 S
H260 C244 0.931 . S
H261 C249 0.930 . S
H262 C250 0.956 . S
H263 C250 0.961 . S
H264 C250 0.961 . S
H265 C251 0.958 . S
H266 C251 0.961 . S
H267 C251 0.960 . S
C268 C269 1.391 . S
C268 C270 1.394 1_545 S
C268 H284 0.931 . S
C269 C268 1.391 . S
C269 C273 1.376 . S
C270 C268 1.394 1_565 S
C270 C271 1.369 . S
C270 C274 1.531 . S
C271 C270 1.369 . S
C271 C272 1.410 1_565 S
C271 C279 1.503 . S
C272 C271 1.410 1_545 S
C272 C273 1.392 . S
C272 C275 1.511 . S
C273 C269 1.376 . S
C273 C272 1.392 . S
C273 H285 0.929 . S
C274 C270 1.531 . S
C274 H286 0.960 . S
C274 H287 0.962 . S
C274 H288 0.960 . S
C275 C272 1.511 . S
C275 H289 0.961 . S
C275 H290 0.961 1_545 S
C275 H291 0.961 1_545 S
C276 C277 1.370 . S
C276 C278 1.363 . S
C276 H292 0.931 . S
C277 C276 1.370 . S
C277 C281 1.408 . S
C278 C276 1.363 . S
C278 C279 1.370 . S
C278 C282 1.524 . S
C279 C271 1.503 . S
C279 C278 1.370 . S
C279 C280 1.403 . S
C280 C279 1.403 . S
C280 C281 1.404 . S
C280 C283 1.539 . S
C281 C277 1.408 . S
C281 C280 1.404 . S
C281 H293 0.930 . S
C282 C278 1.524 . S
C282 H294 0.956 . S
C282 H295 0.961 . S
C282 H296 0.961 . S
C283 C280 1.539 . S
C283 H297 0.958 . S
C283 H298 0.961 . S
C283 H299 0.960 . S
H284 C268 0.931 . S
H285 C273 0.929 . S
H286 C274 0.960 . S
H287 C274 0.962 . S
H288 C274 0.960 . S
H289 C275 0.961 . S
H290 C275 0.961 1_565 S
H291 C275 0.961 1_565 S
H292 C276 0.931 . S
H293 C281 0.930 . S
H294 C282 0.956 . S
H295 C282 0.961 . S
H296 C282 0.961 . S
H297 C283 0.958 . S
H298 C283 0.961 . S
H299 C283 0.960 . S
C300 C301 1.391 . S
C300 C302 1.394 . S
C300 H316 0.931 . S
C301 C300 1.391 . S
C301 C305 1.376 . S
C302 C300 1.394 . S
C302 C303 1.369 . S
C302 C306 1.531 . S
C303 C302 1.369 . S
C303 C304 1.410 . S
C303 C311 1.503 . S
C304 C303 1.410 . S
C304 C305 1.392 . S
C304 C307 1.511 . S
C305 C301 1.376 . S
C305 C304 1.392 . S
C305 H317 0.929 . S
C306 C302 1.531 . S
C306 H318 0.960 . S
C306 H319 0.962 . S
C306 H320 0.960 . S
C307 C304 1.511 . S
C307 H321 0.961 . S
C307 H322 0.961 . S
C307 H323 0.961 . S
C308 C309 1.370 . S
C308 C310 1.363 . S
C308 H324 0.931 1_556 S
C309 C308 1.370 . S
C309 C313 1.408 . S
C310 C308 1.363 . S
C310 C311 1.370 . S
C310 C314 1.524 1_556 S
C311 C303 1.503 . S
C311 C310 1.370 . S
C311 C312 1.403 . S
C312 C311 1.403 . S
C312 C313 1.404 . S
C312 C315 1.539 . S
C313 C309 1.408 . S
C313 C312 1.404 . S
C313 H325 0.930 . S
C314 C310 1.524 1_554 S
C314 H326 0.956 . S
C314 H327 0.961 1_554 S
C314 H328 0.961 . S
C315 C312 1.539 . S
C315 H329 0.958 . S
C315 H330 0.961 . S
C315 H331 0.960 . S
H316 C300 0.931 . S
H317 C305 0.929 . S
H318 C306 0.960 . S
H319 C306 0.962 . S
H320 C306 0.960 . S
H321 C307 0.961 . S
H322 C307 0.961 . S
H323 C307 0.961 . S
H324 C308 0.931 1_554 S
H325 C313 0.930 . S
H326 C314 0.956 . S
H327 C314 0.961 1_556 S
H328 C314 0.961 . S
H329 C315 0.958 . S
H330 C315 0.961 . S
H331 C315 0.960 . S
C332 C333 1.391 . S
C332 C334 1.394 . S
C332 H348 0.931 . S
C333 C332 1.391 . S
C333 C337 1.376 . S
C334 C332 1.394 . S
C334 C335 1.369 1_455 S
C334 C338 1.531 . S
C335 C334 1.369 1_655 S
C335 C336 1.410 . S
C335 C343 1.503 . S
C336 C335 1.410 . S
C336 C337 1.392 1_655 S
C336 C339 1.511 . S
C337 C333 1.376 . S
C337 C336 1.392 1_455 S
C337 H349 0.929 . S
C338 C334 1.531 . S
C338 H350 0.960 1_455 S
C338 H351 0.962 . S
C338 H352 0.960 . S
C339 C336 1.511 . S
C339 H353 0.961 . S
C339 H354 0.961 . S
C339 H355 0.961 . S
C340 C341 1.370 . S
C340 C342 1.363 . S
C340 H356 0.931 . S
C341 C340 1.370 . S
C341 C345 1.408 . S
C342 C340 1.363 . S
C342 C343 1.370 . S
C342 C346 1.524 . S
C343 C335 1.503 . S
C343 C342 1.370 . S
C343 C344 1.403 . S
C344 C343 1.403 . S
C344 C345 1.404 . S
C344 C347 1.539 . S
C345 C341 1.408 . S
C345 C344 1.404 . S
C345 H357 0.930 . S
C346 C342 1.524 . S
C346 H358 0.956 . S
C346 H359 0.961 . S
C346 H360 0.961 . S
C347 C344 1.539 . S
C347 H361 0.958 . S
C347 H362 0.961 . S
C347 H363 0.960 . S
H348 C332 0.931 . S
H349 C337 0.929 . S
H350 C338 0.960 1_655 S
H351 C338 0.962 . S
H352 C338 0.960 . S
H353 C339 0.961 . S
H354 C339 0.961 . S
H355 C339 0.961 . S
H356 C340 0.931 . S
H357 C345 0.930 . S
H358 C346 0.956 . S
H359 C346 0.961 . S
H360 C346 0.961 . S
H361 C347 0.958 . S
H362 C347 0.961 . S
H363 C347 0.960 . S
C364 C365 1.391 . S
C364 C366 1.394 1_545 S
C364 H380 0.931 . S
C365 C364 1.391 . S
C365 C369 1.376 . S
C366 C364 1.394 1_565 S
C366 C367 1.369 . S
C366 C370 1.531 . S
C367 C366 1.369 . S
C367 C368 1.410 1_565 S
C367 C375 1.503 . S
C368 C367 1.410 1_545 S
C368 C369 1.392 . S
C368 C371 1.511 1_545 S
C369 C365 1.376 . S
C369 C368 1.392 . S
C369 H381 0.929 . S
C370 C366 1.531 . S
C370 H382 0.960 . S
C370 H383 0.962 . S
C370 H384 0.960 . S
C371 C368 1.511 1_565 S
C371 H385 0.961 1_565 S
C371 H386 0.961 . S
C371 H387 0.961 . S
C372 C373 1.370 . S
C372 C374 1.363 . S
C372 H388 0.931 . S
C373 C372 1.370 . S
C373 C377 1.408 . S
C374 C372 1.363 . S
C374 C375 1.370 . S
C374 C378 1.524 . S
C375 C367 1.503 . S
C375 C374 1.370 . S
C375 C376 1.403 . S
C376 C375 1.403 . S
C376 C377 1.404 . S
C376 C379 1.539 . S
C377 C373 1.408 . S
C377 C376 1.404 . S
C377 H389 0.930 . S
C378 C374 1.524 . S
C378 H390 0.956 . S
C378 H391 0.961 . S
C378 H392 0.961 . S
C379 C376 1.539 . S
C379 H393 0.958 . S
C379 H394 0.961 . S
C379 H395 0.960 . S
H380 C364 0.931 . S
H381 C369 0.929 . S
H382 C370 0.960 . S
H383 C370 0.962 . S
H384 C370 0.960 . S
H385 C371 0.961 1_545 S
H386 C371 0.961 . S
H387 C371 0.961 . S
H388 C372 0.931 . S
H389 C377 0.930 . S
H390 C378 0.956 . S
H391 C378 0.961 . S
H392 C378 0.961 . S
H393 C379 0.958 . S
H394 C379 0.961 . S
H395 C379 0.960 . S
C396 C397 1.391 . S
C396 C398 1.394 . S
C396 H412 0.931 . S
C397 C396 1.391 . S
C397 C401 1.376 . S
C398 C396 1.394 . S
C398 C399 1.369 . S
C398 C402 1.531 . S
C399 C398 1.369 . S
C399 C400 1.410 . S
C399 C407 1.503 . S
C400 C399 1.410 . S
C400 C401 1.392 . S
C400 C403 1.511 . S
C401 C397 1.376 . S
C401 C400 1.392 . S
C401 H413 0.929 . S
C402 C398 1.531 . S
C402 H414 0.960 . S
C402 H415 0.962 . S
C402 H416 0.960 . S
C403 C400 1.511 . S
C403 H417 0.961 . S
C403 H418 0.961 . S
C403 H419 0.961 . S
C404 C405 1.370 . S
C404 C406 1.363 . S
C404 H420 0.931 . S
C405 C404 1.370 . S
C405 C409 1.408 . S
C406 C404 1.363 . S
C406 C407 1.370 . S
C406 C410 1.524 . S
C407 C399 1.503 . S
C407 C406 1.370 . S
C407 C408 1.403 . S
C408 C407 1.403 . S
C408 C409 1.404 . S
C408 C411 1.539 . S
C409 C405 1.408 . S
C409 C408 1.404 . S
C409 H421 0.930 . S
C410 C406 1.524 . S
C410 H422 0.956 . S
C410 H423 0.961 . S
C410 H424 0.961 . S
C411 C408 1.539 . S
C411 H425 0.958 . S
C411 H426 0.961 . S
C411 H427 0.960 . S
H412 C396 0.931 . S
H413 C401 0.929 . S
H414 C402 0.960 . S
H415 C402 0.962 . S
H416 C402 0.960 . S
H417 C403 0.961 . S
H418 C403 0.961 . S
H419 C403 0.961 . S
H420 C404 0.931 . S
H421 C409 0.930 . S
H422 C410 0.956 . S
H423 C410 0.961 . S
H424 C410 0.961 . S
H425 C411 0.958 . S
H426 C411 0.961 . S
H427 C411 0.960 . S
C428 C429 1.391 . S
C428 C430 1.394 1_554 S
C428 H444 0.931 . S
C429 C428 1.391 . S
C429 C433 1.376 . S
C430 C428 1.394 1_556 S
C430 C431 1.369 . S
C430 C434 1.531 . S
C431 C430 1.369 . S
C431 C432 1.410 . S
C431 C439 1.503 . S
C432 C431 1.410 . S
C432 C433 1.392 1_556 S
C432 C435 1.511 . S
C433 C429 1.376 . S
C433 C432 1.392 1_554 S
C433 H445 0.929 . S
C434 C430 1.531 . S
C434 H446 0.960 . S
C434 H447 0.962 . S
C434 H448 0.960 . S
C435 C432 1.511 . S
C435 H449 0.961 . S
C435 H450 0.961 . S
C435 H451 0.961 . S
C436 C437 1.370 . S
C436 C438 1.363 . S
C436 H452 0.931 . S
C437 C436 1.370 . S
C437 C441 1.408 . S
C438 C436 1.363 . S
C438 C439 1.370 . S
C438 C442 1.524 . S
C439 C431 1.503 . S
C439 C438 1.370 . S
C439 C440 1.403 . S
C440 C439 1.403 . S
C440 C441 1.404 . S
C440 C443 1.539 . S
C441 C437 1.408 . S
C441 C440 1.404 . S
C441 H453 0.930 . S
C442 C438 1.524 . S
C442 H454 0.956 . S
C442 H455 0.961 . S
C442 H456 0.961 . S
C443 C440 1.539 . S
C443 H457 0.958 . S
C443 H458 0.961 . S
C443 H459 0.960 . S
H444 C428 0.931 . S
H445 C433 0.929 . S
H446 C434 0.960 . S
H447 C434 0.962 . S
H448 C434 0.960 . S
H449 C435 0.961 . S
H450 C435 0.961 . S
H451 C435 0.961 . S
H452 C436 0.931 . S
H453 C441 0.930 . S
H454 C442 0.956 . S
H455 C442 0.961 . S
H456 C442 0.961 . S
H457 C443 0.958 . S
H458 C443 0.961 . S
H459 C443 0.960 . S
C460 C461 1.391 . S
C460 C462 1.394 . S
C460 H476 0.931 . S
C461 C460 1.391 . S
C461 C465 1.376 . S
C462 C460 1.394 . S
C462 C463 1.369 . S
C462 C466 1.531 . S
C463 C462 1.369 . S
C463 C464 1.410 . S
C463 C471 1.503 . S
C464 C463 1.410 . S
C464 C465 1.392 . S
C464 C467 1.511 . S
C465 C461 1.376 . S
C465 C464 1.392 . S
C465 H477 0.929 . S
C466 C462 1.531 . S
C466 H478 0.960 . S
C466 H479 0.962 . S
C466 H480 0.960 . S
C467 C464 1.511 . S
C467 H481 0.961 . S
C467 H482 0.961 . S
C467 H483 0.961 . S
C468 C469 1.374 . S
C468 C470 1.363 . S
C468 H484 0.931 . S
C469 C468 1.374 . S
C469 C473 1.412 . S
C470 C468 1.363 . S
C470 C471 1.370 . S
C470 C474 1.524 . S
C471 C463 1.503 . S
C471 C470 1.370 . S
C471 C472 1.403 . S
C472 C471 1.403 . S
C472 C473 1.404 . S
C472 C475 1.539 . S
C473 C469 1.412 . S
C473 C472 1.404 . S
C473 H485 0.930 . S
C474 C470 1.524 . S
C474 H486 0.956 . S
C474 H487 0.961 . S
C474 H488 0.961 . S
C475 C472 1.539 . S
C475 H489 0.958 . S
C475 H490 0.961 . S
C475 H491 0.960 . S
H476 C460 0.931 . S
H477 C465 0.929 . S
H478 C466 0.960 . S
H479 C466 0.962 . S
H480 C466 0.960 . S
H481 C467 0.961 . S
H482 C467 0.961 . S
H483 C467 0.961 . S
H484 C468 0.931 . S
H485 C473 0.930 . S
H486 C474 0.956 . S
H487 C474 0.961 . S
H488 C474 0.961 . S
H489 C475 0.958 . S
H490 C475 0.961 . S
H491 C475 0.960 . S
C492 C493 1.391 . S
C492 C494 1.394 . S
C492 H508 0.931 . S
C493 C492 1.391 . S
C493 C497 1.376 . S
C494 C492 1.394 . S
C494 C495 1.369 . S
C494 C498 1.531 . S
C495 C494 1.369 . S
C495 C496 1.410 . S
C495 C503 1.503 . S
C496 C495 1.410 . S
C496 C497 1.392 . S
C496 C499 1.511 . S
C497 C493 1.376 . S
C497 C496 1.392 . S
C497 H509 0.929 . S
C498 C494 1.531 . S
C498 H510 0.960 . S
C498 H511 0.962 . S
C498 H512 0.960 . S
C499 C496 1.511 . S
C499 H513 0.961 . S
C499 H514 0.961 . S
C499 H515 0.961 . S
C500 C501 1.370 . S
C500 C502 1.363 . S
C500 H516 0.931 . S
C501 C500 1.370 . S
C501 C505 1.408 . S
C502 C500 1.363 . S
C502 C503 1.370 . S
C502 C506 1.524 . S
C503 C495 1.503 . S
C503 C502 1.370 . S
C503 C504 1.403 . S
C504 C503 1.403 . S
C504 C505 1.404 . S
C504 C507 1.539 . S
C505 C501 1.408 . S
C505 C504 1.404 . S
C505 H517 0.930 . S
C506 C502 1.524 . S
C506 H518 0.956 . S
C506 H519 0.961 . S
C506 H520 0.961 . S
C507 C504 1.539 . S
C507 H521 0.958 . S
C507 H522 0.961 . S
C507 H523 0.960 . S
H508 C492 0.931 . S
H509 C497 0.929 . S
H510 C498 0.960 . S
H511 C498 0.962 . S
H512 C498 0.960 . S
H513 C499 0.961 . S
H514 C499 0.961 . S
H515 C499 0.961 . S
H516 C500 0.931 . S
H517 C505 0.930 . S
H518 C506 0.956 . S
H519 C506 0.961 . S
H520 C506 0.961 . S
H521 C507 0.958 . S
H522 C507 0.961 . S
H523 C507 0.960 . S
C524 C525 1.391 . S
C524 C526 1.394 . S
C524 H540 0.931 . S
C525 C524 1.391 . S
C525 C529 1.376 . S
C526 C524 1.394 . S
C526 C527 1.369 . S
C526 C530 1.531 . S
C527 C526 1.369 . S
C527 C528 1.410 . S
C527 C535 1.503 . S
C528 C527 1.410 . S
C528 C529 1.392 . S
C528 C531 1.511 . S
C529 C525 1.376 . S
C529 C528 1.392 . S
C529 H541 0.929 . S
C530 C526 1.531 . S
C530 H542 0.960 . S
C530 H543 0.962 . S
C530 H544 0.960 . S
C531 C528 1.511 . S
C531 H545 0.961 . S
C531 H546 0.961 . S
C531 H547 0.961 . S
C532 C533 1.370 . S
C532 C534 1.363 . S
C532 H548 0.931 . S
C533 C532 1.370 . S
C533 C537 1.408 . S
C534 C532 1.363 . S
C534 C535 1.370 1_554 S
C534 C538 1.524 1_554 S
C535 C527 1.503 . S
C535 C534 1.370 1_556 S
C535 C536 1.403 1_556 S
C536 C535 1.403 1_554 S
C536 C537 1.404 . S
C536 C539 1.539 . S
C537 C533 1.408 . S
C537 C536 1.404 . S
C537 H549 0.930 . S
C538 C534 1.524 1_556 S
C538 H550 0.956 . S
C538 H551 0.961 . S
C538 H552 0.961 . S
C539 C536 1.539 . S
C539 H553 0.958 1_554 S
C539 H554 0.961 . S
C539 H555 0.960 1_554 S
H540 C524 0.931 . S
H541 C529 0.929 . S
H542 C530 0.960 . S
H543 C530 0.962 . S
H544 C530 0.960 . S
H545 C531 0.961 . S
H546 C531 0.961 . S
H547 C531 0.961 . S
H548 C532 0.931 . S
H549 C537 0.930 . S
H550 C538 0.956 . S
H551 C538 0.961 . S
H552 C538 0.961 . S
H553 C539 0.958 1_556 S
H554 C539 0.961 . S
H555 C539 0.960 1_556 S
C556 C557 1.391 . S
C556 C558 1.394 . S
C556 H572 0.931 . S
C557 C556 1.391 . S
C557 C561 1.376 . S
C558 C556 1.394 . S
C558 C559 1.369 . S
C558 C562 1.531 . S
C559 C558 1.369 . S
C559 C560 1.410 . S
C559 C567 1.503 . S
C560 C559 1.410 . S
C560 C561 1.392 . S
C560 C563 1.511 . S
C561 C557 1.376 . S
C561 C560 1.392 . S
C561 H573 0.929 . S
C562 C558 1.531 . S
C562 H574 0.960 . S
C562 H575 0.962 . S
C562 H576 0.960 . S
C563 C560 1.511 . S
C563 H577 0.961 . S
C563 H578 0.961 . S
C563 H579 0.961 . S
C564 C565 1.370 . S
C564 C566 1.363 1_556 S
C564 H580 0.931 . S
C565 C564 1.370 . S
C565 C569 1.408 . S
C566 C564 1.363 1_554 S
C566 C567 1.370 . S
C566 C570 1.524 . S
C567 C559 1.503 . S
C567 C566 1.370 . S
C567 C568 1.403 . S
C568 C567 1.403 . S
C568 C569 1.404 1_554 S
C568 C571 1.539 . S
C569 C565 1.408 . S
C569 C568 1.404 1_556 S
C569 H581 0.930 . S
C570 C566 1.524 . S
C570 H582 0.956 . S
C570 H583 0.961 . S
C570 H584 0.961 . S
C571 C568 1.539 . S
C571 H585 0.958 . S
C571 H586 0.961 . S
C571 H587 0.960 . S
H572 C556 0.931 . S
H573 C561 0.929 . S
H574 C562 0.960 . S
H575 C562 0.962 . S
H576 C562 0.960 . S
H577 C563 0.961 . S
H578 C563 0.961 . S
H579 C563 0.961 . S
H580 C564 0.931 . S
H581 C569 0.930 . S
H582 C570 0.956 . S
H583 C570 0.961 . S
H584 C570 0.961 . S
H585 C571 0.958 . S
H586 C571 0.961 . S
H587 C571 0.960 . S
C588 C589 1.391 . S
C588 C590 1.394 . S
C588 H604 0.931 . S
C589 C588 1.391 . S
C589 C593 1.376 . S
C590 C588 1.394 . S
C590 C591 1.369 . S
C590 C594 1.531 . S
C591 C590 1.369 . S
C591 C592 1.410 . S
C591 C599 1.503 . S
C592 C591 1.410 . S
C592 C593 1.392 . S
C592 C595 1.511 . S
C593 C589 1.376 . S
C593 C592 1.392 . S
C593 H605 0.929 . S
C594 C590 1.531 . S
C594 H606 0.960 . S
C594 H607 0.962 . S
C594 H608 0.960 . S
C595 C592 1.511 . S
C595 H609 0.961 . S
C595 H610 0.961 . S
C595 H611 0.961 . S
C596 C597 1.370 . S
C596 C598 1.363 . S
C596 H612 0.931 . S
C597 C596 1.370 . S
C597 C601 1.408 . S
C598 C596 1.363 . S
C598 C599 1.370 . S
C598 C602 1.524 . S
C599 C591 1.503 . S
C599 C598 1.370 . S
C599 C600 1.403 . S
C600 C599 1.403 . S
C600 C601 1.404 . S
C600 C603 1.539 . S
C601 C597 1.408 . S
C601 C600 1.404 . S
C601 H613 0.930 . S
C602 C598 1.524 . S
C602 H614 0.956 . S
C602 H615 0.961 . S
C602 H616 0.961 . S
C603 C600 1.539 . S
C603 H617 0.958 . S
C603 H618 0.961 . S
C603 H619 0.960 . S
H604 C588 0.931 . S
H605 C593 0.929 . S
H606 C594 0.960 . S
H607 C594 0.962 . S
H608 C594 0.960 . S
H609 C595 0.961 . S
H610 C595 0.961 . S
H611 C595 0.961 . S
H612 C596 0.931 . S
H613 C601 0.930 . S
H614 C602 0.956 . S
H615 C602 0.961 . S
H616 C602 0.961 . S
H617 C603 0.958 . S
H618 C603 0.961 . S
H619 C603 0.960 . S
C620 C621 1.391 . S
C620 C622 1.394 . S
C620 H636 0.931 . S
C621 C620 1.391 . S
C621 C625 1.376 . S
C622 C620 1.394 . S
C622 C623 1.369 . S
C622 C626 1.531 . S
C623 C622 1.369 . S
C623 C624 1.410 . S
C623 C631 1.503 . S
C624 C623 1.410 . S
C624 C625 1.392 . S
C624 C627 1.511 . S
C625 C621 1.376 . S
C625 C624 1.392 . S
C625 H637 0.929 . S
C626 C622 1.531 . S
C626 H638 0.960 . S
C626 H639 0.962 . S
C626 H640 0.960 . S
C627 C624 1.511 . S
C627 H641 0.961 . S
C627 H642 0.961 . S
C627 H643 0.961 . S
C628 C629 1.370 . S
C628 C630 1.363 . S
C628 H644 0.931 . S
C629 C628 1.370 . S
C629 C633 1.408 . S
C630 C628 1.363 . S
C630 C631 1.370 . S
C630 C634 1.524 . S
C631 C623 1.503 . S
C631 C630 1.370 . S
C631 C632 1.403 . S
C632 C631 1.403 . S
C632 C633 1.404 . S
C632 C635 1.539 . S
C633 C629 1.408 . S
C633 C632 1.404 . S
C633 H645 0.930 . S
C634 C630 1.524 . S
C634 H646 0.956 . S
C634 H647 0.961 . S
C634 H648 0.961 . S
C635 C632 1.539 . S
C635 H649 0.958 . S
C635 H650 0.961 . S
C635 H651 0.960 . S
H636 C620 0.931 . S
H637 C625 0.929 . S
H638 C626 0.960 . S
H639 C626 0.962 . S
H640 C626 0.960 . S
H641 C627 0.961 . S
H642 C627 0.961 . S
H643 C627 0.961 . S
H644 C628 0.931 . S
H645 C633 0.930 . S
H646 C634 0.956 . S
H647 C634 0.961 . S
H648 C634 0.961 . S
H649 C635 0.958 . S
H650 C635 0.961 . S
H651 C635 0.960 . S
C652 C653 1.391 1_556 S
C652 C654 1.394 . S
C652 H668 0.931 . S
C653 C652 1.391 1_554 S
C653 C657 1.376 . S
C654 C652 1.394 . S
C654 C655 1.369 . S
C654 C658 1.531 . S
C655 C654 1.369 . S
C655 C656 1.410 1_556 S
C655 C663 1.503 . S
C656 C655 1.410 1_554 S
C656 C657 1.392 . S
C656 C659 1.511 . S
C657 C653 1.376 . S
C657 C656 1.392 . S
C657 H669 0.929 . S
C658 C654 1.531 . S
C658 H670 0.960 . S
C658 H671 0.962 . S
C658 H672 0.960 . S
C659 C656 1.511 . S
C659 H673 0.961 . S
C659 H674 0.961 . S
C659 H675 0.961 . S
C660 C661 1.370 . S
C660 C662 1.363 . S
C660 H676 0.931 . S
C661 C660 1.370 . S
C661 C665 1.408 . S
C662 C660 1.363 . S
C662 C663 1.370 . S
C662 C666 1.524 1_556 S
C663 C655 1.503 . S
C663 C662 1.370 . S
C663 C664 1.403 . S
C664 C663 1.403 . S
C664 C665 1.404 . S
C664 C667 1.539 . S
C665 C661 1.408 . S
C665 C664 1.404 . S
C665 H677 0.930 . S
C666 C662 1.524 1_554 S
C666 H678 0.956 . S
C666 H679 0.961 . S
C666 H680 0.961 . S
C667 C664 1.539 . S
C667 H681 0.958 . S
C667 H682 0.961 . S
C667 H683 0.960 . S
H668 C652 0.931 . S
H669 C657 0.929 . S
H670 C658 0.960 . S
H671 C658 0.962 . S
H672 C658 0.960 . S
H673 C659 0.961 . S
H674 C659 0.961 . S
H675 C659 0.961 . S
H676 C660 0.931 . S
H677 C665 0.930 . S
H678 C666 0.956 . S
H679 C666 0.961 . S
H680 C666 0.961 . S
H681 C667 0.958 . S
H682 C667 0.961 . S
H683 C667 0.960 . S
C684 C685 1.391 . S
C684 C686 1.394 . S
C684 H700 0.931 . S
C685 C684 1.391 . S
C685 C689 1.376 . S
C686 C684 1.394 . S
C686 C687 1.369 . S
C686 C690 1.531 . S
C687 C686 1.369 . S
C687 C688 1.410 . S
C687 C695 1.503 . S
C688 C687 1.410 . S
C688 C689 1.392 . S
C688 C691 1.511 1_554 S
C689 C685 1.376 . S
C689 C688 1.392 . S
C689 H701 0.929 . S
C690 C686 1.531 . S
C690 H702 0.960 . S
C690 H703 0.962 . S
C690 H704 0.960 . S
C691 C688 1.511 1_556 S
C691 H705 0.961 . S
C691 H706 0.961 . S
C691 H707 0.961 . S
C692 C693 1.370 . S
C692 C694 1.363 . S
C692 H708 0.931 . S
C693 C692 1.370 . S
C693 C697 1.408 . S
C694 C692 1.363 . S
C694 C695 1.370 . S
C694 C698 1.524 . S
C695 C687 1.503 . S
C695 C694 1.370 . S
C695 C696 1.403 . S
C696 C695 1.403 . S
C696 C697 1.404 . S
C696 C699 1.539 . S
C697 C693 1.408 . S
C697 C696 1.404 . S
C697 H709 0.930 . S
C698 C694 1.524 . S
C698 H710 0.956 . S
C698 H711 0.961 . S
C698 H712 0.961 . S
C699 C696 1.539 . S
C699 H713 0.958 . S
C699 H714 0.961 . S
C699 H715 0.960 . S
H700 C684 0.931 . S
H701 C689 0.929 . S
H702 C690 0.960 . S
H703 C690 0.962 . S
H704 C690 0.960 . S
H705 C691 0.961 . S
H706 C691 0.961 . S
H707 C691 0.961 . S
H708 C692 0.931 . S
H709 C697 0.930 . S
H710 C698 0.956 . S
H711 C698 0.961 . S
H712 C698 0.961 . S
H713 C699 0.958 . S
H714 C699 0.961 . S
H715 C699 0.960 . S
C716 C717 1.391 . S
C716 C718 1.394 . S
C716 H732 0.931 . S
C717 C716 1.391 . S
C717 C721 1.376 . S
C718 C716 1.394 . S
C718 C719 1.369 . S
C718 C722 1.531 . S
C719 C718 1.369 . S
C719 C720 1.410 . S
C719 C727 1.503 . S
C720 C719 1.410 . S
C720 C721 1.392 . S
C720 C723 1.511 . S
C721 C717 1.376 . S
C721 C720 1.392 . S
C721 H733 0.929 . S
C722 C718 1.531 . S
C722 H734 0.960 . S
C722 H735 0.962 . S
C722 H736 0.960 . S
C723 C720 1.511 . S
C723 H737 0.961 . S
C723 H738 0.961 . S
C723 H739 0.961 . S
C724 C725 1.370 . S
C724 C726 1.363 . S
C724 H740 0.931 . S
C725 C724 1.370 . S
C725 C729 1.408 . S
C726 C724 1.363 . S
C726 C727 1.370 . S
C726 C730 1.524 . S
C727 C719 1.503 . S
C727 C726 1.370 . S
C727 C728 1.403 . S
C728 C727 1.403 . S
C728 C729 1.404 . S
C728 C731 1.539 . S
C729 C725 1.408 . S
C729 C728 1.404 . S
C729 H741 0.930 . S
C730 C726 1.524 . S
C730 H742 0.956 . S
C730 H743 0.961 . S
C730 H744 0.961 . S
C731 C728 1.539 . S
C731 H745 0.958 . S
C731 H746 0.961 . S
C731 H747 0.960 . S
H732 C716 0.931 . S
H733 C721 0.929 . S
H734 C722 0.960 . S
H735 C722 0.962 . S
H736 C722 0.960 . S
H737 C723 0.961 . S
H738 C723 0.961 . S
H739 C723 0.961 . S
H740 C724 0.931 . S
H741 C729 0.930 . S
H742 C730 0.956 . S
H743 C730 0.961 . S
H744 C730 0.961 . S
H745 C731 0.958 . S
H746 C731 0.961 . S
H747 C731 0.960 . S
C748 C749 1.391 . S
C748 C750 1.394 . S
C748 H764 0.931 . S
C749 C748 1.391 . S
C749 C753 1.376 . S
C750 C748 1.394 . S
C750 C751 1.369 . S
C750 C754 1.531 . S
C751 C750 1.369 . S
C751 C752 1.410 . S
C751 C759 1.503 . S
C752 C751 1.410 . S
C752 C753 1.392 . S
C752 C755 1.511 . S
C753 C749 1.376 . S
C753 C752 1.392 . S
C753 H765 0.929 1_556 S
C754 C750 1.531 . S
C754 H766 0.960 . S
C754 H767 0.962 . S
C754 H768 0.960 . S
C755 C752 1.511 . S
C755 H769 0.961 1_556 S
C755 H770 0.961 . S
C755 H771 0.961 1_556 S
C756 C757 1.370 . S
C756 C758 1.363 . S
C756 H772 0.931 . S
C757 C756 1.370 . S
C757 C761 1.408 . S
C758 C756 1.363 . S
C758 C759 1.370 . S
C758 C762 1.524 . S
C759 C751 1.503 . S
C759 C758 1.370 . S
C759 C760 1.403 . S
C760 C759 1.403 . S
C760 C761 1.404 . S
C760 C763 1.539 . S
C761 C757 1.408 . S
C761 C760 1.404 . S
C761 H773 0.930 . S
C762 C758 1.524 . S
C762 H774 0.956 . S
C762 H775 0.961 . S
C762 H776 0.961 . S
C763 C760 1.539 . S
C763 H777 0.958 . S
C763 H778 0.961 . S
C763 H779 0.960 . S
H764 C748 0.931 . S
H765 C753 0.929 1_554 S
H766 C754 0.960 . S
H767 C754 0.962 . S
H768 C754 0.960 . S
H769 C755 0.961 1_554 S
H770 C755 0.961 . S
H771 C755 0.961 1_554 S
H772 C756 0.931 . S
H773 C761 0.930 . S
H774 C762 0.956 . S
H775 C762 0.961 . S
H776 C762 0.961 . S
H777 C763 0.958 . S
H778 C763 0.961 . S
H779 C763 0.960 . S
C205 C174 1.449 . S
C213 C4 1.438 1_556 S
C237 C17 1.655 . S
C245 C51 1.654 . S
C269 C38 1.454 . S
C277 C72 1.442 . S
C301 C85 1.641 . S
C309 C119 1.652 . S
C333 C140 1.411 . S
C341 C106 1.429 . S
C365 C187 1.655 . S
C373 C153 1.657 . S
C397 C0 0.935 . S
C405 C29 0.921 . S
C429 C63 0.945 . S
C437 C34 0.918 . S
C461 C68 0.914 . S
C469 C97 0.922 1_554 S
C493 C131 0.907 . S
C501 C102 0.934 . S
C525 C165 0.945 . S
C533 C136 0.918 . S
C557 C199 0.924 . S
C565 C170 0.925 . S
C589 C13 1.716 . S
C597 C144 1.755 . S
C621 C42 1.751 . S
C629 C183 1.703 . S
C653 C8 1.756 . S
C661 C81 1.696 . S
C685 C47 1.725 . S
C693 C110 1.756 . S
C717 C149 1.726 . S
C725 C76 1.755 . S
C749 C115 1.680 . S
C757 C178 1.759 . S
