# Generated by pormake.
# Topology ukg, (4)-cn, num edge types: 1
# Building blocks:
#     Node 0, Type 0, BuildingBlock: KOZSID_clean_sbu_0, # of connection points: 4
#     Node 1, Type 0, BuildingBlock: KOZSID_clean_sbu_0, # of connection points: 4
#     Node 2, Type 0, BuildingBlock: KOZSID_clean_sbu_0, # of connection points: 4
#     Node 3, Type 0, BuildingBlock: KOZSID_clean_sbu_0, # of connection points: 4
#     Node 4, Type 0, BuildingBlock: KOZSID_clean_sbu_0, # of connection points: 4
#     Node 5, Type 0, BuildingBlock: KOZSID_clean_sbu_0, # of connection points: 4
#     Node 6, Type 0, BuildingBlock: KOZSID_clean_sbu_0, # of connection points: 4
#     Node 7, Type 0, BuildingBlock: KOZSID_clean_sbu_0, # of connection points: 4
#     Edge 8, Type (0, 0), None
#     Edge 9, Type (0, 0), None
#     Edge 10, Type (0, 0), None
#     Edge 11, Type (0, 0), None
#     Edge 12, Type (0, 0), None
#     Edge 13, Type (0, 0), None
#     Edge 14, Type (0, 0), None
#     Edge 15, Type (0, 0), None
#     Edge 16, Type (0, 0), None
#     Edge 17, Type (0, 0), None
#     Edge 18, Type (0, 0), None
#     Edge 19, Type (0, 0), None
#     Edge 20, Type (0, 0), None
#     Edge 21, Type (0, 0), None
#     Edge 22, Type (0, 0), None
#     Edge 23, Type (0, 0), None
# Relax obj value: 0.118
# Max RMSD: 0.264
# Mean RMSD: 0.247
data_MOF--net-ukg--node1-KOZSID_clean_sbu_0--edge1-none
_symmetry_space_group_name_H-M    P1
_symmetry_Int_Tables_number       1
_symmetry_cell_setting            triclinic
loop_
_symmetry_equiv_pos_as_xyz
'x, y, z'
_cell_length_a     18.932774
_cell_length_b     18.999149
_cell_length_c     25.982389
_cell_angle_alpha  90.395503
_cell_angle_beta   89.693038
_cell_angle_gamma 89.358736
loop_
_atom_site_label
_atom_site_type_symbol
_atom_site_fract_x
_atom_site_fract_y
_atom_site_fract_z
_atom_type_partial_charge
C0 C 0.89925 0.61137 0.18214 0.0
C1 C 0.83841 0.64355 0.1638 0.0
C2 C 0.8577 0.70841 0.14613 0.0
C3 C 0.92903 0.71244 0.15475 0.0
N4 N 0.95658 0.65386 0.17594 0.0
Co5 Co 0.05704 0.64291 0.19966 0.0
N6 N 0.08852 0.73247 0.16657 0.0
C7 C 0.04478 0.78159 0.14666 0.0
C8 C 0.07961 0.83761 0.12583 0.0
C9 C 0.14982 0.82385 0.13365 0.0
C10 C 0.15428 0.76047 0.15993 0.0
N11 N 0.15758 0.63085 0.22302 0.0
C12 C 0.21815 0.66548 0.21026 0.0
C13 C 0.27558 0.637 0.23659 0.0
C14 C 0.251 0.5842 0.26649 0.0
C15 C 0.18015 0.5826 0.2573 0.0
N16 N 1.02687 0.55342 0.23333 0.0
C17 C 0.06664 0.51288 0.26439 0.0
C18 C 0.03512 0.45138 0.27861 0.0
C19 C 0.97038 0.45341 0.25601 0.0
C20 C 0.96585 0.5168 0.22982 0.0
N21 N 0.07812 0.59035 0.13545 0.0
C22 C 0.06435 0.50202 0.04824 0.0
C23 C 0.10226 0.47998 0.09215 0.0
C24 C 0.1069 0.52413 0.13567 0.0
C25 C 0.05052 0.57463 0.04551 0.0
C26 C 0.05584 0.61708 0.08946 0.0
N27 N 0.03179 0.69777 0.26245 0.0
C28 C 0.93108 0.75522 0.3026 0.0
C29 C 0.96987 0.81655 0.30989 0.0
C30 C 0.04347 0.81202 0.30221 0.0
C31 C 0.07336 0.75195 0.27831 0.0
C32 C 0.964 0.69551 0.28099 0.0
H33 H 0.12854 0.75191 0.26848 0.0
H34 H 0.93195 0.65059 0.27418 0.0
H35 H 0.13114 0.50357 0.1699 0.0
H36 H 0.03805 0.67061 0.08632 0.0
C37 C 0.9721 0.76967 0.14334 0.0
C38 C 0.89831 0.54531 0.21177 0.0
C39 C 0.22226 0.73074 0.17917 0.0
C40 C 0.13572 0.53058 0.27518 0.0
H41 H 0.78522 0.62331 0.16497 0.0
H42 H 0.82349 0.74845 0.12994 0.0
H43 H 0.05677 0.88256 0.10638 0.0
H44 H 0.19295 0.85741 0.12233 0.0
H45 H 0.33013 0.65191 0.23504 0.0
H46 H 0.28165 0.54969 0.29097 0.0
H47 H 0.05678 0.40985 0.3023 0.0
H48 H 0.92948 0.41451 0.26047 0.0
H49 H 0.12749 0.42897 0.09414 0.0
H50 H 0.03346 0.59922 1.01032 0.0
H51 H 0.87477 0.75472 0.31016 0.0
H52 H 0.07658 0.85685 0.31025 0.0
C53 C 0.46569 0.49365 0.57586 0.0
C54 C 0.52625 0.53376 0.57137 0.0
C55 C 0.52697 0.57858 0.61319 0.0
C56 C 0.46693 0.56372 0.64088 0.0
N57 N 0.42899 0.51209 0.61906 0.0
Co58 Co 0.33832 0.47586 0.64602 0.0
N59 N 0.35479 0.51426 0.71615 0.0
C60 C 0.40212 0.56376 0.72834 0.0
C61 C 0.40187 0.5796 0.7801 0.0
C62 C 0.35083 0.53764 0.80152 0.0
C63 C 0.32273 0.49837 0.76157 0.0
N64 N 0.24634 0.44149 0.67141 0.0
C65 C 0.22222 0.43401 0.7201 0.0
C66 C 0.15199 0.41418 0.71995 0.0
C67 C 0.13186 0.40816 0.66967 0.0
C68 C 0.19062 0.42526 0.64177 0.0
N69 N 0.32166 0.43591 0.57644 0.0
C70 C 0.2587 0.41702 0.55725 0.0
C71 C 0.26316 0.39025 0.50816 0.0
C72 C 0.33332 0.39299 0.49541 0.0
C73 C 0.36777 0.42178 0.53756 0.0
N74 N 0.38596 0.38812 0.66812 0.0
C75 C 0.43954 0.28403 0.73355 0.0
C76 C 0.37414 0.27532 0.70932 0.0
C77 C 0.34916 0.32721 0.67534 0.0
C78 C 0.4812 0.34055 0.7191 0.0
C79 C 0.45321 0.39237 0.68723 0.0
N80 N 0.29205 0.56584 0.6267 0.0
C81 C 0.28961 0.67231 0.57573 0.0
C82 C 0.25017 0.70764 0.61409 0.0
C83 C 0.22743 0.66866 0.65643 0.0
C84 C 0.24831 0.59842 0.66183 0.0
C85 C 0.30988 0.60122 0.58272 0.0
H86 H 0.23236 0.57209 0.69645 0.0
H87 H 0.34316 0.5762 0.55392 0.0
H88 H 0.29749 0.32077 0.65874 0.0
H89 H 0.48422 0.43886 0.68298 0.0
C90 C 0.45136 0.58652 0.69141 0.0
C91 C 0.44242 0.44174 0.53709 0.0
C92 C 0.26207 0.45082 0.76696 0.0
C93 C 0.19883 0.41584 0.58876 0.0
H94 H 0.56574 0.53084 0.54112 0.0
H95 H 0.56798 0.61535 0.62325 0.0
H96 H 0.43596 0.61584 0.80017 0.0
H97 H 0.33559 0.53642 0.8417 0.0
H98 H 0.1186 0.4062 0.75285 0.0
H99 H 0.08127 0.39133 0.65521 0.0
H100 H 0.22086 0.36935 0.48496 0.0
H101 H 0.35624 0.37679 0.4589 0.0
H102 H 0.34039 0.23186 0.7195 0.0
H103 H 0.53189 0.34901 0.73718 0.0
H104 H 0.30807 0.70034 0.54219 0.0
H105 H 0.19608 0.69339 0.68669 0.0
C106 C 0.60576 0.89081 0.18401 0.0
C107 C 0.66674 0.85944 0.16436 0.0
C108 C 0.64794 0.79462 0.14586 0.0
C109 C 0.57675 0.78979 0.15528 0.0
N110 N 0.54882 0.84782 0.17779 0.0
Co111 Co 0.44839 0.8577 0.20252 0.0
N112 N 0.41765 0.76829 0.1682 0.0
C113 C 0.46181 0.71936 0.14769 0.0
C114 C 0.42741 0.66372 0.12565 0.0
C115 C 0.35703 0.67762 0.1332 0.0
C116 C 0.35201 0.74066 0.16055 0.0
N117 N 0.34769 0.86884 0.22642 0.0
C118 C 0.28724 0.83506 0.21227 0.0
C119 C 0.22923 0.86344 0.23868 0.0
C120 C 0.25339 0.9151 0.27021 0.0
C121 C 0.32457 0.91631 0.26171 0.0
N122 N 0.47797 0.94668 0.2378 0.0
C123 C 0.43806 0.98592 0.27036 0.0
C124 C 0.46927 0.04715 0.2859 0.0
C125 C 0.53395 0.04625 0.26263 0.0
C126 C 0.53879 0.98373 0.2347 0.0
N127 N 0.42713 0.91102 0.13946 0.0
C128 C 0.44197 0.99846 0.05244 0.0
C129 C 0.40746 1.02247 0.09789 0.0
C130 C 0.40203 0.97863 0.1411 0.0
C131 C 0.44957 0.92489 0.04868 0.0
C132 C 0.44512 0.88304 0.09253 0.0
N133 N 0.47383 0.80232 0.26418 0.0
C134 C 0.5745 0.7457 0.30359 0.0
C135 C 0.53592 0.68432 0.31085 0.0
C136 C 0.46236 0.68839 0.30335 0.0
C137 C 0.43241 0.74798 0.2797 0.0
C138 C 0.54151 0.80503 0.28241 0.0
H139 H 0.37733 0.74762 0.26991 0.0
H140 H 0.57342 0.85008 0.2758 0.0
H141 H 0.37987 1.00032 0.1761 0.0
H142 H 0.45948 0.8286 0.08815 0.0
C143 C 0.53427 0.73214 0.14368 0.0
C144 C 0.60637 0.95636 0.2149 0.0
C145 C 0.28361 0.77055 0.17966 0.0
C146 C 0.36885 0.9678 0.28086 0.0
H147 H 0.71975 0.88012 0.16525 0.0
H148 H 0.68241 0.75508 0.12865 0.0
H149 H 0.45062 0.61927 0.10521 0.0
H150 H 0.31411 0.6445 0.1208 0.0
H151 H 0.17457 0.84935 0.23594 0.0
H152 H 0.22223 0.94939 0.29511 0.0
H153 H 0.44737 0.08789 0.31077 0.0
H154 H 0.57454 0.08536 0.26764 0.0
H155 H 0.38403 0.07412 0.10123 0.0
H156 H 0.45964 0.89822 1.01268 0.0
H157 H 0.63076 0.74657 0.31092 0.0
H158 H 0.42935 0.64352 0.31134 0.0
C159 C 0.03642 1.01402 0.57355 0.0
C160 C 0.97258 0.97925 0.56915 0.0
C161 C 0.96678 0.93666 0.61152 0.0
C162 C 1.02723 0.94741 0.63943 0.0
N163 N 0.07029 0.99439 0.6172 0.0
Co164 Co 0.16316 1.02373 0.64429 0.0
N165 N 0.14128 0.99008 0.71466 0.0
C166 C 0.08971 0.94523 0.72717 0.0
C167 C 0.08737 0.93183 0.77914 0.0
C168 C 0.14114 0.97052 0.80033 0.0
C169 C 0.17334 1.0054 0.76 0.0
N170 N 0.25713 0.05094 0.66998 0.0
C171 C 0.27952 0.0601 0.71878 0.0
C172 C 0.35085 0.07524 0.71964 0.0
C173 C 0.37363 0.07615 0.66949 0.0
C174 C 0.31507 0.06113 0.6409 0.0
N175 N 0.18531 0.05867 0.57437 0.0
C176 C 0.25033 0.07113 0.55554 0.0
C177 C 0.24957 0.09582 0.50605 0.0
C178 C 0.17971 0.09851 0.49269 0.0
C179 C 0.14163 0.07476 0.53488 0.0
N180 N 0.12318 0.11661 0.66476 0.0
C181 C 0.07878 0.22797 0.7292 0.0
C182 C 0.14587 0.22825 0.7061 0.0
C183 C 0.1659 0.17357 0.67209 0.0
C184 C 0.03156 0.17596 0.71412 0.0
C185 C 0.05507 0.1202 0.68298 0.0
N186 N 0.20219 0.92936 0.62671 0.0
C187 C 0.20203 0.82184 0.57579 0.0
C188 C 0.23884 0.78575 0.61453 0.0
C189 C 0.26079 0.8244 0.65744 0.0
C190 C 0.24254 0.89542 0.66262 0.0
C191 C 0.18414 0.89378 0.58265 0.0
H192 H 0.2585 0.92174 0.69738 0.0
H193 H 0.15324 0.91971 0.55339 0.0
H194 H 0.21848 0.17431 0.65592 0.0
H195 H 1.01949 0.07703 0.67858 0.0
C196 C 0.03946 0.92537 0.69027 0.0
C197 C 0.06531 0.06161 0.53418 0.0
C198 C 0.23606 0.05013 0.76492 0.0
C199 C 0.30931 0.06874 0.58764 0.0
H200 H 0.93428 0.98415 0.53855 0.0
H201 H 0.92238 0.90408 0.62173 0.0
H202 H 0.04971 0.89968 0.79949 0.0
H203 H 0.15511 0.97281 0.84063 0.0
H204 H 0.38261 0.08402 0.75327 0.0
H205 H 0.42579 0.08868 0.65539 0.0
H206 H 0.29421 0.11197 0.48295 0.0
H207 H 0.1593 0.11504 0.45582 0.0
H208 H 0.18439 0.26714 0.71714 0.0
H209 H 0.97959 0.17345 0.73166 0.0
H210 H 0.1843 0.79405 0.54179 0.0
H211 H 0.29021 0.79911 0.68798 0.0
C212 C 0.04916 0.37418 1.00993 0.0
C213 C 0.04775 0.33598 0.05545 0.0
C214 C 0.05461 0.26638 0.04231 0.0
C215 C 0.05612 0.26531 0.98964 0.0
N216 N 0.05058 0.32975 0.96872 0.0
Co217 Co 1.02302 0.34672 0.89617 0.0
N218 N 0.06134 0.2539 0.87405 0.0
C219 C 0.07162 0.19827 0.90504 0.0
C220 C 0.09437 0.13914 0.87913 0.0
C221 C 0.09768 0.15878 0.82861 0.0
C222 C 0.07712 0.22906 0.8264 0.0
N223 N 0.99511 0.36278 0.8237 0.0
C224 C 1.01444 0.32735 0.78013 0.0
C225 C 0.97659 0.35185 0.7382 0.0
C226 C 0.93192 0.40398 0.75643 0.0
C227 C 0.94475 0.4083 0.80836 0.0
N228 N 0.98195 0.43795 0.91958 0.0
C229 C 0.92932 0.47202 0.89524 0.0
C230 C 0.89979 0.52501 0.92454 0.0
C231 C 0.93646 0.52416 0.96999 0.0
C232 C 0.98894 0.47255 0.96523 0.0
N233 N 0.11458 0.39195 0.88043 0.0
C234 C 0.22538 0.43915 0.81739 0.0
C235 C 0.16991 0.48455 0.83166 0.0
C236 C 0.11433 0.45948 0.86198 0.0
C237 C 0.22962 0.37354 0.84161 0.0
C238 C 0.17524 0.35238 0.87506 0.0
N239 N 0.93043 0.30246 0.90895 0.0
C240 C 0.81928 0.29518 0.95524 0.0
C241 C 0.7906 0.25246 0.91638 0.0
C242 C 0.83466 0.23429 0.87466 0.0
C243 C 0.90371 0.25861 0.87211 0.0
C244 C 0.88916 0.3194 0.95088 0.0
H245 H 0.93451 0.24351 0.83888 0.0
H246 H 0.90898 0.35314 0.98089 0.0
H247 H 0.06819 0.49278 0.86509 0.0
H248 H 0.17925 0.30074 0.89187 0.0
C249 C 0.06503 0.20562 0.95841 0.0
C250 C 0.03876 0.45117 1.00648 0.0
C251 C 0.06439 0.26725 0.7782 0.0
C252 C 0.91371 0.45585 0.84369 0.0
H253 H 0.03821 0.3553 0.09411 0.0
H254 H 0.05594 0.22184 0.06805 0.0
H255 H 0.10737 0.0881 0.89495 0.0
H256 H 0.11142 0.12468 0.79677 0.0
H257 H 0.97979 0.33287 0.69889 0.0
H258 H 0.89456 0.43485 0.73441 0.0
H259 H 0.85632 0.55962 0.91442 0.0
H260 H 0.92345 0.55608 1.0034 0.0
H261 H 0.16418 0.53534 0.81333 0.0
H262 H 0.27112 0.33635 0.83133 0.0
H263 H 0.78817 0.31008 0.98873 0.0
H264 H 0.81571 0.2029 0.84279 0.0
C265 C 0.55858 0.55418 0.28718 0.0
C266 C 0.51601 0.55799 0.2438 0.0
C267 C 0.50307 0.49051 0.22871 0.0
C268 C 0.53965 0.44929 0.26265 0.0
N269 N 0.5762 0.48623 0.29785 0.0
Co270 Co 0.64336 0.44604 0.34954 0.0
N271 N 0.63826 0.34927 0.31828 0.0
C272 C 0.59104 0.32817 0.28288 0.0
C273 C 0.59849 0.25891 0.2685 0.0
C274 C 0.65389 0.23395 0.29656 0.0
C275 C 0.67738 0.28977 0.32654 0.0
N276 N 0.71152 0.40458 0.4004 0.0
C277 C 0.74455 0.34018 0.40182 0.0
C278 C 0.78697 0.33451 0.44505 0.0
C279 C 0.7784 0.39589 0.47245 0.0
C280 C 0.7321 0.43606 0.44434 0.0
N281 N 0.64694 0.54218 0.38151 0.0
C282 C 0.67329 0.55649 0.42848 0.0
C283 C 0.66261 0.625 0.44378 0.0
C284 C 0.6262 0.65593 0.40443 0.0
C285 C 0.617 0.60453 0.36686 0.0
N286 N 0.56422 0.42579 0.3972 0.0
C287 C 0.48292 0.43307 0.48791 0.0
C288 C 0.52999 0.37675 0.47923 0.0
C289 C 0.56945 0.37345 0.43313 0.0
C290 C 0.47169 0.48077 0.44818 0.0
C291 C 0.5117 0.47552 0.40308 0.0
N292 N 0.72328 0.47086 0.30389 0.0
C293 C 0.83312 0.53305 0.29528 0.0
C294 C 0.83362 0.52386 0.24178 0.0
C295 C 0.77758 0.4864 0.21984 0.0
C296 C 0.72281 0.46045 0.25156 0.0
C297 C 0.77862 0.50607 0.3252 0.0
H298 H 0.68023 0.43232 0.23369 0.0
H299 H 0.78144 0.51475 0.36596 0.0
H300 H 0.60707 0.33094 0.42817 0.0
H301 H 0.50321 0.51571 0.37504 0.0
C302 C 0.54686 0.3766 0.25899 0.0
C303 C 0.57308 0.61514 0.32072 0.0
C304 C 0.73345 0.28169 0.36495 0.0
C305 C 0.71091 0.50521 0.45575 0.0
H306 H 0.49515 0.60445 0.22526 0.0
H307 H 0.47202 0.4736 0.19611 0.0
H308 H 0.56843 0.23042 0.23997 0.0
H309 H 0.6744 0.18051 0.29547 0.0
H310 H 0.81945 0.29 0.4562 0.0
H311 H 0.80354 0.40981 0.50837 0.0
H312 H 0.6788 0.64946 0.47951 0.0
H313 H 0.60658 0.70961 0.4044 0.0
H314 H 0.53771 0.3369 0.50833 0.0
H315 H 0.43357 0.52339 0.45264 0.0
H316 H 0.87601 0.55944 0.31452 0.0
H317 H 0.77667 0.47628 0.17879 0.0
C318 C 0.45937 0.12482 1.01246 0.0
C319 C 0.45737 0.16406 0.05772 0.0
C320 C 0.43591 0.23033 0.04499 0.0
C321 C 0.43056 0.22922 0.9925 0.0
N322 N 0.44922 0.16687 0.9709 0.0
Co323 Co 0.47366 0.15005 0.89654 0.0
N324 N 0.44762 0.24934 0.87776 0.0
C325 C 0.42413 0.30049 0.91017 0.0
C326 C 0.4082 0.36273 0.88644 0.0
C327 C 0.42108 0.35033 0.83554 0.0
C328 C 0.44445 0.2809 0.83114 0.0
N329 N 0.49682 0.1328 0.82212 0.0
C330 C 0.49003 0.17578 0.78077 0.0
C331 C 0.51404 0.14336 0.73597 0.0
C332 C 0.53355 0.07631 0.74903 0.0
C333 C 0.52095 0.07198 0.80098 0.0
N334 N 0.50301 0.05211 0.91631 0.0
C335 C 0.53085 1.00236 0.88454 0.0
C336 C 0.56094 0.94703 0.91018 0.0
C337 C 0.54879 0.96119 0.96112 0.0
C338 C 0.50774 1.02221 0.96363 0.0
N339 N 0.37512 0.11769 0.88132 0.0
C340 C 0.26737 0.07096 0.81534 0.0
C341 C 0.30803 1.02278 0.84307 0.0
C342 C 0.3607 0.04709 0.87641 0.0
C343 C 0.27369 0.14225 0.82776 0.0
C344 C 0.32547 0.16406 0.86254 0.0
N345 N 0.57325 0.1815 0.90912 0.0
C346 C 0.69885 0.16241 0.89512 0.0
C347 C 0.71571 0.22682 0.91787 0.0
C348 C 0.65955 0.2669 0.93858 0.0
C349 C 0.58941 0.24321 0.93418 0.0
C350 C 0.62875 0.14199 0.89029 0.0
H351 H 0.54928 0.2766 0.95025 0.0
H352 H 0.62142 0.0944 0.86982 0.0
H353 H 0.39195 1.00727 0.89477 0.0
H354 H 0.32723 0.21939 0.87041 0.0
C355 C 0.41692 0.28806 0.96252 0.0
C356 C 0.46903 0.04779 1.00999 0.0
C357 C 0.45735 0.24571 0.78173 0.0
C358 C 0.5348 1.01314 0.83141 0.0
H359 H 0.4716 0.1474 0.09604 0.0
H360 H 0.42883 0.27499 0.07067 0.0
H361 H 0.38789 0.41082 0.90386 0.0
H362 H 0.41184 0.38766 0.80509 0.0
H363 H 0.51517 0.16535 0.69767 0.0
H364 H 0.55385 0.03544 0.72358 0.0
H365 H 0.59043 0.90299 0.89395 0.0
H366 H 0.56799 0.92963 0.99268 0.0
H367 H 0.30415 0.96687 0.83524 0.0
H368 H 0.24281 0.18163 0.80764 0.0
H369 H 0.73958 0.12758 0.87982 0.0
H370 H 0.66907 0.31739 0.95667 0.0
C371 C 0.94743 0.94613 0.28593 0.0
C372 C 0.98987 0.94102 0.24218 0.0
C373 C 1.00284 1.00804 0.22659 0.0
C374 C 0.96648 0.05029 0.26069 0.0
N375 N 0.93005 1.01442 0.29646 0.0
Co376 Co 0.86379 0.0563 0.34899 0.0
N377 N 0.86903 0.15223 0.31733 0.0
C378 C 0.91606 0.17223 0.28129 0.0
C379 C 0.90879 0.24116 0.26678 0.0
C380 C 0.85372 0.26706 0.29544 0.0
C381 C 0.83023 0.2121 0.32589 0.0
N382 N 0.79633 0.09934 0.40059 0.0
C383 C 0.76345 0.16385 0.40214 0.0
C384 C 0.72135 0.17075 0.44583 0.0
C385 C 0.72994 0.11006 0.47337 0.0
C386 C 0.77593 0.06903 0.44487 0.0
N387 N 0.86021 0.96102 0.3814 0.0
C388 C 0.8343 0.94803 0.42879 0.0
C389 C 0.84476 0.87985 0.44417 0.0
C390 C 0.88057 0.84772 0.40442 0.0
C391 C 0.88968 0.89815 0.36659 0.0
N392 N 0.94366 0.0774 0.39542 0.0
C393 C 1.02637 0.0714 0.48481 0.0
C394 C 0.97871 0.12726 0.47724 0.0
C395 C 0.93878 0.13008 0.43168 0.0
C396 C 0.03729 1.02343 0.44464 0.0
C397 C 0.99653 0.028 0.40023 0.0
N398 N 0.78319 0.03084 0.30456 0.0
C399 C 0.67315 0.96869 0.29735 0.0
C400 C 0.67148 0.97813 0.24399 0.0
C401 C 0.72715 1.01546 0.22139 0.0
C402 C 0.78266 0.0412 0.25233 0.0
C403 C 0.72824 0.99569 0.32655 0.0
H404 H 0.82497 0.06916 0.23395 0.0
H405 H 0.72617 0.98716 0.36728 0.0
H406 H 0.90089 0.17239 0.42755 0.0
H407 H 1.00464 0.98737 0.37201 0.0
C408 C 0.9597 0.12294 0.25694 0.0
C409 C 0.93299 0.88611 0.3199 0.0
C410 C 0.77442 0.22133 0.36489 0.0
C411 C 0.79702 1.00013 0.4563 0.0
H412 H 1.01075 0.89399 0.22382 0.0
H413 H 0.03392 1.02395 0.19366 0.0
H414 H 0.9387 0.26879 0.23776 0.0
H415 H 0.8334 0.32055 0.29442 0.0
H416 H 0.68904 0.21563 0.45718 0.0
H417 H 0.705 0.09713 0.50962 0.0
H418 H 0.82873 0.85635 0.48016 0.0
H419 H 0.89979 0.7939 0.40423 0.0
H420 H 0.97074 0.16699 0.50685 0.0
H421 H 0.07528 0.9807 0.44843 0.0
H422 H 0.63074 0.94202 0.31705 0.0
H423 H 0.72727 1.02556 0.18043 0.0
loop_
_geom_bond_atom_site_label_1
_geom_bond_atom_site_label_2
_geom_bond_distance
_geom_bond_site_symmetry_2
_ccdc_geom_bond_type
C0 C1 1.443 . S
C0 N4 1.376 . S
C0 C38 1.389 . S
C1 C0 1.443 . S
C1 C2 1.340 . S
C1 H41 0.951 . S
C2 C1 1.340 . S
C2 C3 1.439 . S
C2 H42 0.950 . S
C3 C2 1.439 . S
C3 N4 1.374 . S
C3 C37 1.395 . S
N4 C0 1.376 . S
N4 C3 1.374 . S
N4 Co5 2.008 1_655 S
Co5 N4 2.008 1_455 S
Co5 N6 1.995 . S
Co5 N11 2.008 . S
Co5 N16 1.995 1_455 S
Co5 N21 2.282 . S
Co5 N27 2.282 1_455 S
N6 Co5 1.995 . S
N6 C7 1.376 1_455 S
N6 C10 1.383 . S
C7 N6 1.376 1_655 S
C7 C8 1.446 1_655 S
C7 C37 1.391 . S
C8 C7 1.446 1_455 S
C8 C9 1.339 . S
C8 H43 0.949 1_554 S
C9 C8 1.339 . S
C9 C10 1.439 . S
C9 H44 0.950 . S
C10 N6 1.383 . S
C10 C9 1.439 . S
C10 C39 1.392 . S
N11 Co5 2.008 . S
N11 C12 1.376 . S
N11 C15 1.374 . S
C12 N11 1.376 . S
C12 C13 1.443 . S
C12 C39 1.389 . S
C13 C12 1.443 . S
C13 C14 1.340 . S
C13 H45 0.951 . S
C14 C13 1.340 . S
C14 C15 1.439 . S
C14 H46 0.950 . S
C15 N11 1.374 . S
C15 C14 1.439 . S
C15 C40 1.395 . S
N16 Co5 1.995 1_655 S
N16 C17 1.376 1_655 S
N16 C20 1.383 . S
C17 N16 1.376 1_455 S
C17 C18 1.446 1_455 S
C17 C40 1.391 . S
C18 C17 1.446 1_655 S
C18 C19 1.339 . S
C18 H47 0.949 . S
C19 C18 1.339 . S
C19 C20 1.439 . S
C19 H48 0.950 . S
C20 N16 1.383 . S
C20 C19 1.439 . S
C20 C38 1.392 . S
N21 Co5 2.282 . S
N21 C24 1.332 . S
N21 C26 1.332 . S
C22 C23 1.386 . S
C22 C25 1.388 1_554 S
C23 C22 1.386 . S
C23 C24 1.382 . S
C23 H49 0.950 . S
C24 N21 1.332 . S
C24 C23 1.382 . S
C24 H35 0.952 . S
C25 C22 1.388 1_556 S
C25 C26 1.382 1_556 S
C25 H50 0.950 . S
C26 N21 1.332 . S
C26 C25 1.382 1_554 S
C26 H36 0.948 1_455 S
N27 Co5 2.282 1_655 S
N27 C31 1.332 . S
N27 C32 1.332 . S
C28 C29 1.388 . S
C28 C32 1.382 . S
C28 H51 0.950 . S
C29 C28 1.388 . S
C29 C30 1.386 . S
C30 C29 1.386 . S
C30 C31 1.382 . S
C30 H52 0.950 . S
C31 N27 1.332 . S
C31 C30 1.382 . S
C31 H33 0.952 . S
C32 N27 1.332 . S
C32 C28 1.382 . S
C32 H34 0.948 1_655 S
H33 C31 0.952 . S
H34 C32 0.948 1_455 S
H35 C24 0.952 . S
H36 C26 0.948 1_655 S
C37 C3 1.395 . S
C37 C7 1.391 . S
C38 C0 1.389 . S
C38 C20 1.392 . S
C39 C10 1.392 . S
C39 C12 1.389 . S
C40 C15 1.395 . S
C40 C17 1.391 . S
H41 C1 0.951 . S
H42 C2 0.950 . S
H43 C8 0.949 1_556 S
H44 C9 0.950 . S
H45 C13 0.951 . S
H46 C14 0.950 . S
H47 C18 0.949 . S
H48 C19 0.950 . S
H49 C23 0.950 . S
H50 C25 0.950 . S
H51 C28 0.950 . S
H52 C30 0.950 . S
C53 C54 1.443 . S
C53 N57 1.376 . S
C53 C91 1.389 . S
C54 C53 1.443 . S
C54 C55 1.340 . S
C54 H94 0.951 . S
C55 C54 1.340 . S
C55 C56 1.439 . S
C55 H95 0.950 . S
C56 C55 1.439 . S
C56 N57 1.374 . S
C56 C90 1.395 . S
N57 C53 1.376 . S
N57 C56 1.374 . S
N57 Co58 2.008 . S
Co58 N57 2.008 . S
Co58 N59 1.995 . S
Co58 N64 2.008 . S
Co58 N69 1.995 . S
Co58 N74 2.282 . S
Co58 N80 2.282 . S
N59 Co58 1.995 . S
N59 C60 1.376 . S
N59 C63 1.383 . S
C60 N59 1.376 . S
C60 C61 1.446 . S
C60 C90 1.391 . S
C61 C60 1.446 . S
C61 C62 1.339 . S
C61 H96 0.949 . S
C62 C61 1.339 . S
C62 C63 1.439 . S
C62 H97 0.950 . S
C63 N59 1.383 . S
C63 C62 1.439 . S
C63 C92 1.392 . S
N64 Co58 2.008 . S
N64 C65 1.376 . S
N64 C68 1.374 . S
C65 N64 1.376 . S
C65 C66 1.443 . S
C65 C92 1.389 . S
C66 C65 1.443 . S
C66 C67 1.340 . S
C66 H98 0.951 . S
C67 C66 1.340 . S
C67 C68 1.439 . S
C67 H99 0.950 . S
C68 N64 1.374 . S
C68 C67 1.439 . S
C68 C93 1.395 . S
N69 Co58 1.995 . S
N69 C70 1.376 . S
N69 C73 1.383 . S
C70 N69 1.376 . S
C70 C71 1.446 . S
C70 C93 1.391 . S
C71 C70 1.446 . S
C71 C72 1.339 . S
C71 H100 0.949 . S
C72 C71 1.339 . S
C72 C73 1.439 . S
C72 H101 0.950 . S
C73 N69 1.383 . S
C73 C72 1.439 . S
C73 C91 1.392 . S
N74 Co58 2.282 . S
N74 C77 1.332 . S
N74 C79 1.332 . S
C75 C76 1.386 . S
C75 C78 1.388 . S
C76 C75 1.386 . S
C76 C77 1.382 . S
C76 H102 0.950 . S
C77 N74 1.332 . S
C77 C76 1.382 . S
C77 H88 0.952 . S
C78 C75 1.388 . S
C78 C79 1.382 . S
C78 H103 0.950 . S
C79 N74 1.332 . S
C79 C78 1.382 . S
C79 H89 0.948 . S
N80 Co58 2.282 . S
N80 C84 1.332 . S
N80 C85 1.332 . S
C81 C82 1.388 . S
C81 C85 1.382 . S
C81 H104 0.950 . S
C82 C81 1.388 . S
C82 C83 1.386 . S
C83 C82 1.386 . S
C83 C84 1.382 . S
C83 H105 0.950 . S
C84 N80 1.332 . S
C84 C83 1.382 . S
C84 H86 0.952 . S
C85 N80 1.332 . S
C85 C81 1.382 . S
C85 H87 0.948 . S
H86 C84 0.952 . S
H87 C85 0.948 . S
H88 C77 0.952 . S
H89 C79 0.948 . S
C90 C56 1.395 . S
C90 C60 1.391 . S
C91 C53 1.389 . S
C91 C73 1.392 . S
C92 C63 1.392 . S
C92 C65 1.389 . S
C93 C68 1.395 . S
C93 C70 1.391 . S
H94 C54 0.951 . S
H95 C55 0.950 . S
H96 C61 0.949 . S
H97 C62 0.950 . S
H98 C66 0.951 . S
H99 C67 0.950 . S
H100 C71 0.949 . S
H101 C72 0.950 . S
H102 C76 0.950 . S
H103 C78 0.950 . S
H104 C81 0.950 . S
H105 C83 0.950 . S
C106 C107 1.443 . S
C106 N110 1.376 . S
C106 C144 1.389 . S
C107 C106 1.443 . S
C107 C108 1.340 . S
C107 H147 0.951 . S
C108 C107 1.340 . S
C108 C109 1.439 . S
C108 H148 0.950 . S
C109 C108 1.439 . S
C109 N110 1.374 . S
C109 C143 1.395 . S
N110 C106 1.376 . S
N110 C109 1.374 . S
N110 Co111 2.008 . S
Co111 N110 2.008 . S
Co111 N112 1.995 . S
Co111 N117 2.008 . S
Co111 N122 1.995 . S
Co111 N127 2.282 . S
Co111 N133 2.282 . S
N112 Co111 1.995 . S
N112 C113 1.376 . S
N112 C116 1.383 . S
C113 N112 1.376 . S
C113 C114 1.446 . S
C113 C143 1.391 . S
C114 C113 1.446 . S
C114 C115 1.339 . S
C114 H149 0.949 1_554 S
C115 C114 1.339 . S
C115 C116 1.439 . S
C115 H150 0.950 . S
C116 N112 1.383 . S
C116 C115 1.439 . S
C116 C145 1.392 . S
N117 Co111 2.008 . S
N117 C118 1.376 . S
N117 C121 1.374 . S
C118 N117 1.376 . S
C118 C119 1.443 . S
C118 C145 1.389 . S
C119 C118 1.443 . S
C119 C120 1.340 . S
C119 H151 0.951 . S
C120 C119 1.340 . S
C120 C121 1.439 . S
C120 H152 0.950 . S
C121 N117 1.374 . S
C121 C120 1.439 . S
C121 C146 1.395 . S
N122 Co111 1.995 . S
N122 C123 1.376 . S
N122 C126 1.383 . S
C123 N122 1.376 . S
C123 C124 1.446 . S
C123 C146 1.391 . S
C124 C123 1.446 . S
C124 C125 1.339 . S
C124 H153 0.949 . S
C125 C124 1.339 . S
C125 C126 1.439 . S
C125 H154 0.950 . S
C126 N122 1.383 . S
C126 C125 1.439 . S
C126 C144 1.392 . S
N127 Co111 2.282 . S
N127 C130 1.332 . S
N127 C132 1.332 . S
C128 C129 1.386 . S
C128 C131 1.388 1_554 S
C129 C128 1.386 . S
C129 C130 1.382 . S
C129 H155 0.950 1_565 S
C130 N127 1.332 . S
C130 C129 1.382 . S
C130 H141 0.952 . S
C131 C128 1.388 1_556 S
C131 C132 1.382 1_556 S
C131 H156 0.950 . S
C132 N127 1.332 . S
C132 C131 1.382 1_554 S
C132 H142 0.948 . S
N133 Co111 2.282 . S
N133 C137 1.332 . S
N133 C138 1.332 . S
C134 C135 1.388 . S
C134 C138 1.382 . S
C134 H157 0.950 . S
C135 C134 1.388 . S
C135 C136 1.386 . S
C136 C135 1.386 . S
C136 C137 1.382 . S
C136 H158 0.950 . S
C137 N133 1.332 . S
C137 C136 1.382 . S
C137 H139 0.952 . S
C138 N133 1.332 . S
C138 C134 1.382 . S
C138 H140 0.948 . S
H139 C137 0.952 . S
H140 C138 0.948 . S
H141 C130 0.952 . S
H142 C132 0.948 . S
C143 C109 1.395 . S
C143 C113 1.391 . S
C144 C106 1.389 . S
C144 C126 1.392 . S
C145 C116 1.392 . S
C145 C118 1.389 . S
C146 C121 1.395 . S
C146 C123 1.391 . S
H147 C107 0.951 . S
H148 C108 0.950 . S
H149 C114 0.949 1_556 S
H150 C115 0.950 . S
H151 C119 0.951 . S
H152 C120 0.950 . S
H153 C124 0.949 . S
H154 C125 0.950 . S
H155 C129 0.950 1_545 S
H156 C131 0.950 . S
H157 C134 0.950 . S
H158 C136 0.950 . S
C159 C160 1.443 1_455 S
C159 N163 1.376 . S
C159 C197 1.389 . S
C160 C159 1.443 1_655 S
C160 C161 1.340 . S
C160 H200 0.951 . S
C161 C160 1.340 . S
C161 C162 1.439 1_655 S
C161 H201 0.950 . S
C162 C161 1.439 1_455 S
C162 N163 1.374 . S
C162 C196 1.395 . S
N163 C159 1.376 . S
N163 C162 1.374 . S
N163 Co164 2.008 . S
Co164 N163 2.008 . S
Co164 N165 1.995 . S
Co164 N170 2.008 1_565 S
Co164 N175 1.995 1_565 S
Co164 N180 2.282 1_565 S
Co164 N186 2.282 . S
N165 Co164 1.995 . S
N165 C166 1.376 . S
N165 C169 1.383 . S
C166 N165 1.376 . S
C166 C167 1.446 . S
C166 C196 1.391 . S
C167 C166 1.446 . S
C167 C168 1.339 . S
C167 H202 0.949 . S
C168 C167 1.339 . S
C168 C169 1.439 . S
C168 H203 0.950 . S
C169 N165 1.383 . S
C169 C168 1.439 . S
C169 C198 1.392 1_565 S
N170 Co164 2.008 1_545 S
N170 C171 1.376 . S
N170 C174 1.374 . S
C171 N170 1.376 . S
C171 C172 1.443 . S
C171 C198 1.389 . S
C172 C171 1.443 . S
C172 C173 1.340 . S
C172 H204 0.951 . S
C173 C172 1.340 . S
C173 C174 1.439 . S
C173 H205 0.950 . S
C174 N170 1.374 . S
C174 C173 1.439 . S
C174 C199 1.395 . S
N175 Co164 1.995 1_545 S
N175 C176 1.376 . S
N175 C179 1.383 . S
C176 N175 1.376 . S
C176 C177 1.446 . S
C176 C199 1.391 . S
C177 C176 1.446 . S
C177 C178 1.339 . S
C177 H206 0.949 . S
C178 C177 1.339 . S
C178 C179 1.439 . S
C178 H207 0.950 . S
C179 N175 1.383 . S
C179 C178 1.439 . S
C179 C197 1.392 1_545 S
N180 Co164 2.282 1_545 S
N180 C183 1.332 . S
N180 C185 1.332 . S
C181 C182 1.386 . S
C181 C184 1.388 . S
C182 C181 1.386 . S
C182 C183 1.382 . S
C182 H208 0.950 . S
C183 N180 1.332 . S
C183 C182 1.382 . S
C183 H194 0.952 . S
C184 C181 1.388 . S
C184 C185 1.382 . S
C184 H209 0.950 . S
C185 N180 1.332 . S
C185 C184 1.382 . S
C185 H195 0.948 . S
N186 Co164 2.282 . S
N186 C190 1.332 . S
N186 C191 1.332 . S
C187 C188 1.388 . S
C187 C191 1.382 . S
C187 H210 0.950 . S
C188 C187 1.388 . S
C188 C189 1.386 . S
C189 C188 1.386 . S
C189 C190 1.382 . S
C189 H211 0.950 . S
C190 N186 1.332 . S
C190 C189 1.382 . S
C190 H192 0.952 . S
C191 N186 1.332 . S
C191 C187 1.382 . S
C191 H193 0.948 . S
H192 C190 0.952 . S
H193 C191 0.948 . S
H194 C183 0.952 . S
H195 C185 0.948 . S
C196 C162 1.395 . S
C196 C166 1.391 . S
C197 C159 1.389 . S
C197 C179 1.392 1_565 S
C198 C169 1.392 1_545 S
C198 C171 1.389 . S
C199 C174 1.395 . S
C199 C176 1.391 . S
H200 C160 0.951 . S
H201 C161 0.950 . S
H202 C167 0.949 . S
H203 C168 0.950 . S
H204 C172 0.951 . S
H205 C173 0.950 . S
H206 C177 0.949 . S
H207 C178 0.950 . S
H208 C182 0.950 . S
H209 C184 0.950 . S
H210 C187 0.950 . S
H211 C189 0.950 . S
C212 C213 1.445 1_556 S
C212 N216 1.378 . S
C212 C250 1.386 1_455 S
C213 C212 1.445 1_554 S
C213 C214 1.340 . S
C213 H253 0.951 . S
C214 C213 1.340 . S
C214 C215 1.439 1_554 S
C214 H254 0.950 . S
C215 C214 1.439 1_556 S
C215 N216 1.374 . S
C215 C249 1.395 . S
N216 C212 1.378 . S
N216 C215 1.374 . S
N216 Co217 2.008 1_455 S
Co217 N216 2.008 1_655 S
Co217 N218 1.995 1_655 S
Co217 N223 2.008 . S
Co217 N228 1.995 . S
Co217 N233 2.282 1_655 S
Co217 N239 2.282 . S
N218 Co217 1.995 1_455 S
N218 C219 1.376 . S
N218 C222 1.383 . S
C219 N218 1.376 . S
C219 C220 1.446 . S
C219 C249 1.391 . S
C220 C219 1.446 . S
C220 C221 1.339 . S
C220 H255 0.949 . S
C221 C220 1.339 . S
C221 C222 1.439 . S
C221 H256 0.950 . S
C222 N218 1.383 . S
C222 C221 1.439 . S
C222 C251 1.392 . S
N223 Co217 2.008 . S
N223 C224 1.379 . S
N223 C227 1.374 . S
C224 N223 1.379 . S
C224 C225 1.445 . S
C224 C251 1.384 1_655 S
C225 C224 1.445 . S
C225 C226 1.340 . S
C225 H257 0.951 . S
C226 C225 1.340 . S
C226 C227 1.439 . S
C226 H258 0.950 . S
C227 N223 1.374 . S
C227 C226 1.439 . S
C227 C252 1.395 . S
N228 Co217 1.995 . S
N228 C229 1.376 . S
N228 C232 1.383 . S
C229 N228 1.376 . S
C229 C230 1.446 . S
C229 C252 1.391 . S
C230 C229 1.446 . S
C230 C231 1.339 . S
C230 H259 0.949 . S
C231 C230 1.339 . S
C231 C232 1.439 . S
C231 H260 0.950 . S
C232 N228 1.383 . S
C232 C231 1.439 . S
C232 C250 1.392 . S
N233 Co217 2.282 1_455 S
N233 C236 1.332 . S
N233 C238 1.332 . S
C234 C235 1.386 . S
C234 C237 1.388 . S
C235 C234 1.386 . S
C235 C236 1.382 . S
C235 H261 0.950 . S
C236 N233 1.332 . S
C236 C235 1.382 . S
C236 H247 0.952 . S
C237 C234 1.388 . S
C237 C238 1.382 . S
C237 H262 0.950 . S
C238 N233 1.332 . S
C238 C237 1.382 . S
C238 H248 0.948 . S
N239 Co217 2.282 . S
N239 C243 1.332 . S
N239 C244 1.332 . S
C240 C241 1.388 . S
C240 C244 1.382 . S
C240 H263 0.950 . S
C241 C240 1.388 . S
C241 C242 1.386 . S
C242 C241 1.386 . S
C242 C243 1.382 . S
C242 H264 0.950 . S
C243 N239 1.332 . S
C243 C242 1.382 . S
C243 H245 0.952 . S
C244 N239 1.332 . S
C244 C240 1.382 . S
C244 H246 0.948 . S
H245 C243 0.952 . S
H246 C244 0.948 . S
H247 C236 0.952 . S
H248 C238 0.948 . S
C249 C215 1.395 . S
C249 C219 1.391 . S
C250 C212 1.386 1_655 S
C250 C232 1.392 . S
C251 C222 1.392 . S
C251 C224 1.384 1_455 S
C252 C227 1.395 . S
C252 C229 1.391 . S
H253 C213 0.951 . S
H254 C214 0.950 . S
H255 C220 0.949 . S
H256 C221 0.950 . S
H257 C225 0.951 . S
H258 C226 0.950 . S
H259 C230 0.949 . S
H260 C231 0.950 . S
H261 C235 0.950 . S
H262 C237 0.950 . S
H263 C240 0.950 . S
H264 C242 0.950 . S
C265 C266 1.443 . S
C265 N269 1.376 . S
C265 C303 1.389 . S
C266 C265 1.443 . S
C266 C267 1.340 . S
C266 H306 0.951 . S
C267 C266 1.340 . S
C267 C268 1.439 . S
C267 H307 0.950 . S
C268 C267 1.439 . S
C268 N269 1.374 . S
C268 C302 1.395 . S
N269 C265 1.376 . S
N269 C268 1.374 . S
N269 Co270 2.008 . S
Co270 N269 2.008 . S
Co270 N271 1.995 . S
Co270 N276 2.008 . S
Co270 N281 1.995 . S
Co270 N286 2.282 . S
Co270 N292 2.282 . S
N271 Co270 1.995 . S
N271 C272 1.376 . S
N271 C275 1.383 . S
C272 N271 1.376 . S
C272 C273 1.446 . S
C272 C302 1.391 . S
C273 C272 1.446 . S
C273 C274 1.339 . S
C273 H308 0.949 . S
C274 C273 1.339 . S
C274 C275 1.439 . S
C274 H309 0.950 . S
C275 N271 1.383 . S
C275 C274 1.439 . S
C275 C304 1.392 . S
N276 Co270 2.008 . S
N276 C277 1.376 . S
N276 C280 1.374 . S
C277 N276 1.376 . S
C277 C278 1.443 . S
C277 C304 1.389 . S
C278 C277 1.443 . S
C278 C279 1.340 . S
C278 H310 0.951 . S
C279 C278 1.340 . S
C279 C280 1.439 . S
C279 H311 0.950 . S
C280 N276 1.374 . S
C280 C279 1.439 . S
C280 C305 1.395 . S
N281 Co270 1.995 . S
N281 C282 1.376 . S
N281 C285 1.383 . S
C282 N281 1.376 . S
C282 C283 1.446 . S
C282 C305 1.391 . S
C283 C282 1.446 . S
C283 C284 1.339 . S
C283 H312 0.949 . S
C284 C283 1.339 . S
C284 C285 1.439 . S
C284 H313 0.950 . S
C285 N281 1.383 . S
C285 C284 1.439 . S
C285 C303 1.392 . S
N286 Co270 2.282 . S
N286 C289 1.332 . S
N286 C291 1.332 . S
C287 C288 1.386 . S
C287 C290 1.388 . S
C288 C287 1.386 . S
C288 C289 1.382 . S
C288 H314 0.950 . S
C289 N286 1.332 . S
C289 C288 1.382 . S
C289 H300 0.952 . S
C290 C287 1.388 . S
C290 C291 1.382 . S
C290 H315 0.950 . S
C291 N286 1.332 . S
C291 C290 1.382 . S
C291 H301 0.948 . S
N292 Co270 2.282 . S
N292 C296 1.332 . S
N292 C297 1.332 . S
C293 C294 1.388 . S
C293 C297 1.382 . S
C293 H316 0.950 . S
C294 C293 1.388 . S
C294 C295 1.386 . S
C295 C294 1.386 . S
C295 C296 1.382 . S
C295 H317 0.950 . S
C296 N292 1.332 . S
C296 C295 1.382 . S
C296 H298 0.952 . S
C297 N292 1.332 . S
C297 C293 1.382 . S
C297 H299 0.948 . S
H298 C296 0.952 . S
H299 C297 0.948 . S
H300 C289 0.952 . S
H301 C291 0.948 . S
C302 C268 1.395 . S
C302 C272 1.391 . S
C303 C265 1.389 . S
C303 C285 1.392 . S
C304 C275 1.392 . S
C304 C277 1.389 . S
C305 C280 1.395 . S
C305 C282 1.391 . S
H306 C266 0.951 . S
H307 C267 0.950 . S
H308 C273 0.949 . S
H309 C274 0.950 . S
H310 C278 0.951 . S
H311 C279 0.950 . S
H312 C283 0.949 . S
H313 C284 0.950 . S
H314 C288 0.950 . S
H315 C290 0.950 . S
H316 C293 0.950 . S
H317 C295 0.950 . S
C318 C319 1.443 1_556 S
C318 N322 1.376 . S
C318 C356 1.389 . S
C319 C318 1.443 1_554 S
C319 C320 1.340 . S
C319 H359 0.951 . S
C320 C319 1.340 . S
C320 C321 1.439 1_554 S
C320 H360 0.950 . S
C321 C320 1.439 1_556 S
C321 N322 1.374 . S
C321 C355 1.395 . S
N322 C318 1.376 . S
N322 C321 1.374 . S
N322 Co323 2.008 . S
Co323 N322 2.008 . S
Co323 N324 1.995 . S
Co323 N329 2.008 . S
Co323 N334 1.995 . S
Co323 N339 2.282 . S
Co323 N345 2.282 . S
N324 Co323 1.995 . S
N324 C325 1.376 . S
N324 C328 1.383 . S
C325 N324 1.376 . S
C325 C326 1.446 . S
C325 C355 1.391 . S
C326 C325 1.446 . S
C326 C327 1.339 . S
C326 H361 0.949 . S
C327 C326 1.339 . S
C327 C328 1.439 . S
C327 H362 0.950 . S
C328 N324 1.383 . S
C328 C327 1.439 . S
C328 C357 1.392 . S
N329 Co323 2.008 . S
N329 C330 1.376 . S
N329 C333 1.374 . S
C330 N329 1.376 . S
C330 C331 1.443 . S
C330 C357 1.389 . S
C331 C330 1.443 . S
C331 C332 1.340 . S
C331 H363 0.951 . S
C332 C331 1.340 . S
C332 C333 1.439 . S
C332 H364 0.950 . S
C333 N329 1.374 . S
C333 C332 1.439 . S
C333 C358 1.395 . S
N334 Co323 1.995 . S
N334 C335 1.376 . S
N334 C338 1.383 . S
C335 N334 1.376 . S
C335 C336 1.446 1_545 S
C335 C358 1.391 . S
C336 C335 1.446 1_565 S
C336 C337 1.339 . S
C336 H365 0.949 . S
C337 C336 1.339 . S
C337 C338 1.439 1_565 S
C337 H366 0.950 . S
C338 N334 1.383 . S
C338 C337 1.439 1_545 S
C338 C356 1.392 . S
N339 Co323 2.282 . S
N339 C342 1.332 . S
N339 C344 1.332 . S
C340 C341 1.386 . S
C340 C343 1.388 . S
C341 C340 1.386 . S
C341 C342 1.382 . S
C341 H367 0.950 . S
C342 N339 1.332 . S
C342 C341 1.382 . S
C342 H353 0.952 . S
C343 C340 1.388 . S
C343 C344 1.382 . S
C343 H368 0.950 . S
C344 N339 1.332 . S
C344 C343 1.382 . S
C344 H354 0.948 . S
N345 Co323 2.282 . S
N345 C349 1.332 . S
N345 C350 1.332 . S
C346 C347 1.388 . S
C346 C350 1.382 . S
C346 H369 0.950 . S
C347 C346 1.388 . S
C347 C348 1.386 . S
C348 C347 1.386 . S
C348 C349 1.382 . S
C348 H370 0.950 . S
C349 N345 1.332 . S
C349 C348 1.382 . S
C349 H351 0.952 . S
C350 N345 1.332 . S
C350 C346 1.382 . S
C350 H352 0.948 . S
H351 C349 0.952 . S
H352 C350 0.948 . S
H353 C342 0.952 . S
H354 C344 0.948 . S
C355 C321 1.395 . S
C355 C325 1.391 . S
C356 C318 1.389 . S
C356 C338 1.392 . S
C357 C328 1.392 . S
C357 C330 1.389 . S
C358 C333 1.395 . S
C358 C335 1.391 . S
H359 C319 0.951 . S
H360 C320 0.950 . S
H361 C326 0.949 . S
H362 C327 0.950 . S
H363 C331 0.951 . S
H364 C332 0.950 . S
H365 C336 0.949 . S
H366 C337 0.950 . S
H367 C341 0.950 . S
H368 C343 0.950 . S
H369 C346 0.950 . S
H370 C348 0.950 . S
C371 C372 1.443 . S
C371 N375 1.376 . S
C371 C409 1.389 . S
C372 C371 1.443 . S
C372 C373 1.340 . S
C372 H412 0.951 . S
C373 C372 1.340 . S
C373 C374 1.439 1_565 S
C373 H413 0.950 . S
C374 C373 1.439 1_545 S
C374 N375 1.374 1_545 S
C374 C408 1.395 . S
N375 C371 1.376 . S
N375 C374 1.374 1_565 S
N375 Co376 2.008 1_565 S
Co376 N375 2.008 1_545 S
Co376 N377 1.995 . S
Co376 N382 2.008 . S
Co376 N387 1.995 1_545 S
Co376 N392 2.282 . S
Co376 N398 2.282 1_545 S
N377 Co376 1.995 . S
N377 C378 1.376 . S
N377 C381 1.383 . S
C378 N377 1.376 . S
C378 C379 1.446 . S
C378 C408 1.391 . S
C379 C378 1.446 . S
C379 C380 1.339 . S
C379 H414 0.949 . S
C380 C379 1.339 . S
C380 C381 1.439 . S
C380 H415 0.950 . S
C381 N377 1.383 . S
C381 C380 1.439 . S
C381 C410 1.392 . S
N382 Co376 2.008 . S
N382 C383 1.376 . S
N382 C386 1.374 1_545 S
C383 N382 1.376 . S
C383 C384 1.443 . S
C383 C410 1.389 . S
C384 C383 1.443 . S
C384 C385 1.340 . S
C384 H416 0.951 . S
C385 C384 1.340 . S
C385 C386 1.439 1_545 S
C385 H417 0.950 . S
C386 N382 1.374 1_565 S
C386 C385 1.439 1_565 S
C386 C411 1.395 . S
N387 Co376 1.995 1_565 S
N387 C388 1.376 . S
N387 C391 1.383 . S
C388 N387 1.376 . S
C388 C389 1.446 . S
C388 C411 1.391 . S
C389 C388 1.446 . S
C389 C390 1.339 . S
C389 H418 0.949 . S
C390 C389 1.339 . S
C390 C391 1.439 . S
C390 H419 0.950 . S
C391 N387 1.383 . S
C391 C390 1.439 . S
C391 C409 1.392 . S
N392 Co376 2.282 . S
N392 C395 1.332 1_545 S
N392 C397 1.332 . S
C393 C394 1.386 . S
C393 C396 1.388 . S
C394 C393 1.386 . S
C394 C395 1.382 1_545 S
C394 H420 0.950 1_545 S
C395 N392 1.332 1_565 S
C395 C394 1.382 1_565 S
C395 H406 0.952 . S
C396 C393 1.388 . S
C396 C397 1.382 . S
C396 H421 0.950 . S
C397 N392 1.332 . S
C397 C396 1.382 . S
C397 H407 0.948 . S
N398 Co376 2.282 1_565 S
N398 C402 1.332 1_565 S
N398 C403 1.332 . S
C399 C400 1.388 . S
C399 C403 1.382 . S
C399 H422 0.950 . S
C400 C399 1.388 . S
C400 C401 1.386 . S
C401 C400 1.386 . S
C401 C402 1.382 1_565 S
C401 H423 0.950 1_565 S
C402 N398 1.332 1_545 S
C402 C401 1.382 1_545 S
C402 H404 0.952 . S
C403 N398 1.332 . S
C403 C399 1.382 . S
C403 H405 0.948 . S
H404 C402 0.952 . S
H405 C403 0.948 . S
H406 C395 0.952 . S
H407 C397 0.948 . S
C408 C374 1.395 . S
C408 C378 1.391 . S
C409 C371 1.389 . S
C409 C391 1.392 . S
C410 C381 1.392 . S
C410 C383 1.389 . S
C411 C386 1.395 . S
C411 C388 1.391 . S
H412 C372 0.951 . S
H413 C373 0.950 . S
H414 C379 0.949 . S
H415 C380 0.950 . S
H416 C384 0.951 . S
H417 C385 0.950 . S
H418 C389 0.949 . S
H419 C390 0.950 . S
H420 C394 0.950 1_565 S
H421 C396 0.950 . S
H422 C399 0.950 . S
H423 C401 0.950 1_545 S
C250 C22 2.922 1_656 S
C91 C287 2.535 . S
C128 C356 2.425 1_564 S
C393 C197 2.884 1_645 S
C39 C145 3.544 . S
C82 C188 2.824 . S
C347 C241 2.790 . S
C304 C410 3.587 . S
C294 C38 2.294 . S
C75 C357 3.241 . S
C144 C400 2.434 . S
C251 C181 2.804 . S
C234 C92 3.053 . S
C303 C135 2.406 . S
C340 C198 3.086 . S
C29 C409 2.270 . S
