# Generated by pormake.
# Topology qtz-a, (4)-cn, num edge types: 1
# Building blocks:
#     Node 0, Type 0, BuildingBlock: QUQFOY_clean_sbu_3, # of connection points: 4
#     Node 1, Type 0, BuildingBlock: QUQFOY_clean_sbu_3, # of connection points: 4
#     Node 2, Type 0, BuildingBlock: QUQFOY_clean_sbu_3, # of connection points: 4
#     Node 3, Type 0, BuildingBlock: QUQFOY_clean_sbu_3, # of connection points: 4
#     Node 4, Type 0, BuildingBlock: QUQFOY_clean_sbu_3, # of connection points: 4
#     Node 5, Type 0, BuildingBlock: QUQFOY_clean_sbu_3, # of connection points: 4
#     Node 6, Type 0, BuildingBlock: QUQFOY_clean_sbu_3, # of connection points: 4
#     Node 7, Type 0, BuildingBlock: QUQFOY_clean_sbu_3, # of connection points: 4
#     Node 8, Type 0, BuildingBlock: QUQFOY_clean_sbu_3, # of connection points: 4
#     Node 9, Type 0, BuildingBlock: QUQFOY_clean_sbu_3, # of connection points: 4
#     Node 10, Type 0, BuildingBlock: QUQFOY_clean_sbu_3, # of connection points: 4
#     Node 11, Type 0, BuildingBlock: QUQFOY_clean_sbu_3, # of connection points: 4
#     Edge 12, Type (0, 0), BuildingBlock: OJICUG_clean_linker_0, # of connection points: 2
#     Edge 13, Type (0, 0), BuildingBlock: OJICUG_clean_linker_0, # of connection points: 2
#     Edge 14, Type (0, 0), BuildingBlock: OJICUG_clean_linker_0, # of connection points: 2
#     Edge 15, Type (0, 0), BuildingBlock: OJICUG_clean_linker_0, # of connection points: 2
#     Edge 16, Type (0, 0), BuildingBlock: OJICUG_clean_linker_0, # of connection points: 2
#     Edge 17, Type (0, 0), BuildingBlock: OJICUG_clean_linker_0, # of connection points: 2
#     Edge 18, Type (0, 0), BuildingBlock: OJICUG_clean_linker_0, # of connection points: 2
#     Edge 19, Type (0, 0), BuildingBlock: OJICUG_clean_linker_0, # of connection points: 2
#     Edge 20, Type (0, 0), BuildingBlock: OJICUG_clean_linker_0, # of connection points: 2
#     Edge 21, Type (0, 0), BuildingBlock: OJICUG_clean_linker_0, # of connection points: 2
#     Edge 22, Type (0, 0), BuildingBlock: OJICUG_clean_linker_0, # of connection points: 2
#     Edge 23, Type (0, 0), BuildingBlock: OJICUG_clean_linker_0, # of connection points: 2
#     Edge 24, Type (0, 0), BuildingBlock: OJICUG_clean_linker_0, # of connection points: 2
#     Edge 25, Type (0, 0), BuildingBlock: OJICUG_clean_linker_0, # of connection points: 2
#     Edge 26, Type (0, 0), BuildingBlock: OJICUG_clean_linker_0, # of connection points: 2
#     Edge 27, Type (0, 0), BuildingBlock: OJICUG_clean_linker_0, # of connection points: 2
#     Edge 28, Type (0, 0), BuildingBlock: OJICUG_clean_linker_0, # of connection points: 2
#     Edge 29, Type (0, 0), BuildingBlock: OJICUG_clean_linker_0, # of connection points: 2
#     Edge 30, Type (0, 0), BuildingBlock: OJICUG_clean_linker_0, # of connection points: 2
#     Edge 31, Type (0, 0), BuildingBlock: OJICUG_clean_linker_0, # of connection points: 2
#     Edge 32, Type (0, 0), BuildingBlock: OJICUG_clean_linker_0, # of connection points: 2
#     Edge 33, Type (0, 0), BuildingBlock: OJICUG_clean_linker_0, # of connection points: 2
#     Edge 34, Type (0, 0), BuildingBlock: OJICUG_clean_linker_0, # of connection points: 2
#     Edge 35, Type (0, 0), BuildingBlock: OJICUG_clean_linker_0, # of connection points: 2
# Relax obj value: 0.765
# Max RMSD: 0.702
# Mean RMSD: 0.702
data_MOF--net-qtz-a--node1-QUQFOY_clean_sbu_3--edge1-OJICUG_clean_linker_0
_symmetry_space_group_name_H-M    P1
_symmetry_Int_Tables_number       1
_symmetry_cell_setting            triclinic
loop_
_symmetry_equiv_pos_as_xyz
'x, y, z'
_cell_length_a     26.410502
_cell_length_b     27.744327
_cell_length_c     52.228851
_cell_angle_alpha  90.506718
_cell_angle_beta   88.977584
_cell_angle_gamma 120.93568
loop_
_atom_site_label
_atom_site_type_symbol
_atom_site_fract_x
_atom_site_fract_y
_atom_site_fract_z
_atom_type_partial_charge
C0 C 0.69316 0.07721 -0.00973 0.0
O1 O 0.73954 0.08852 -0.02244 0.0
Cd2 Cd 0.77262 0.15045 -0.05953 0.0
O3 O 0.66956 0.10672 -0.01269 0.0
Cd4 Cd 0.6793 0.18708 -0.03507 0.0
C5 C 0.63213 0.08479 -0.08389 0.0
O6 O 0.77966 0.23876 -0.0519 0.0
O7 O 0.71405 0.25527 -0.06718 0.0
O8 O 0.70317 0.24478 0.00286 0.0
C9 C 0.76669 0.2653 -0.06781 0.0
O10 O 0.6848 0.09456 -0.08481 0.0
C11 C 0.65908 0.25147 0.00212 0.0
O12 O 0.61682 0.1109 -0.06795 0.0
O13 O 0.62069 0.22415 -0.015 0.0
C14 C 0.49303 0.59398 0.31382 0.0
O15 O 0.53332 0.6456 0.31209 0.0
Cd16 Cd 0.53056 0.71264 0.27962 0.0
O17 O 0.44717 0.57611 0.30056 0.0
Cd18 Cd 0.46746 0.66286 0.28626 0.0
C19 C 0.56159 0.6512 0.24159 0.0
O20 O 0.44629 0.7147 0.25712 0.0
O21 O 0.3761 0.63034 0.2682 0.0
O22 O 0.48485 0.71519 0.32834 0.0
C23 C 0.39202 0.67547 0.25605 0.0
O24 O 0.58915 0.7041 0.24438 0.0
C25 C 0.43168 0.67977 0.33555 0.0
O26 O 0.51544 0.62265 0.25551 0.0
O27 O 0.40089 0.63911 0.32059 0.0
C28 C 0.91428 0.44543 0.63968 0.0
O29 O 0.92188 0.48791 0.65249 0.0
Cd30 Cd 0.89107 0.55657 0.63766 0.0
O31 O 0.88463 0.43282 0.61934 0.0
Cd32 Cd 0.84968 0.49543 0.6269 0.0
C33 C 0.9838 0.59222 0.5984 0.0
O34 O 0.80843 0.54551 0.60862 0.0
O35 O 0.77046 0.45655 0.59934 0.0
O36 O 0.8239 0.48679 0.67404 0.0
C37 C 0.76983 0.50173 0.59674 0.0
O38 O 0.9819 0.62491 0.61495 0.0
C39 C 0.78794 0.43381 0.67157 0.0
O40 O 0.94235 0.54097 0.59875 0.0
O41 O 0.78258 0.41307 0.64932 0.0
C42 C 0.50343 0.86444 -0.01778 0.0
O43 O 0.45252 0.85898 -0.01541 0.0
Cd44 Cd 0.36377 0.79636 -0.0447 0.0
O45 O 0.50991 0.83382 -0.03397 0.0
Cd46 Cd 0.4098 0.7791 -0.04499 0.0
C47 C 0.41458 0.89379 -0.07682 0.0
O48 O 0.35014 0.72095 -0.07775 0.0
O49 O 0.43376 0.72452 -0.07247 0.0
O50 O 0.33777 0.7327 -0.00745 0.0
C51 C 0.38596 0.70502 -0.08463 0.0
O52 O 0.36007 0.86871 -0.07122 0.0
C53 C 0.37073 0.71674 0.00233 0.0
O54 O 0.44425 0.87308 -0.06828 0.0
O55 O 0.41939 0.7318 -0.00911 0.0
C56 C 0.51794 0.41263 0.31154 0.0
O57 O 0.47537 0.36236 0.31486 0.0
Cd58 Cd 0.45928 0.28078 0.28573 0.0
O59 O 0.55654 0.4221 0.29441 0.0
Cd60 Cd 0.52224 0.32755 0.2865 0.0
C61 C 0.41323 0.32969 0.24975 0.0
O62 O 0.53084 0.2661 0.25768 0.0
O63 O 0.60891 0.34809 0.26469 0.0
O64 O 0.50474 0.28121 0.33009 0.0
C65 C 0.58566 0.301 0.25336 0.0
O66 O 0.38645 0.27816 0.25585 0.0
C67 C 0.55672 0.31902 0.33688 0.0
O68 O 0.4644 0.36096 0.25906 0.0
O69 O 0.58843 0.35712 0.32081 0.0
C70 C 0.05888 0.35249 0.65749 0.0
O71 O 0.05028 0.30888 0.64567 0.0
Cd72 Cd 0.11148 0.34833 0.60638 0.0
O73 O 0.11148 0.39369 0.65701 0.0
Cd74 Cd 0.13511 0.47923 0.63482 0.0
C75 C 0.02986 0.40768 0.5856 0.0
O76 O 0.18873 0.44557 0.61164 0.0
O77 O 0.23782 0.53386 0.61822 0.0
O78 O 0.16495 0.57588 0.64723 0.0
C79 C 0.23553 0.49197 0.6072 0.0
O80 O 0.04402 0.37 0.58457 0.0
C81 C 0.16513 0.56804 0.67119 0.0
O82 O 0.05421 0.44916 0.60142 0.0
O83 O 0.14727 0.51805 0.67841 0.0
C84 C 0.89313 0.45914 0.4424 0.0
O85 O 0.86327 0.40737 0.44853 0.0
Cd86 Cd 0.76781 0.36277 0.47575 0.0
O87 O 0.87093 0.48912 0.44738 0.0
Cd88 Cd 0.78232 0.41865 0.46739 0.0
C89 C 0.85178 0.37757 0.51253 0.0
O90 O 0.71985 0.40673 0.50207 0.0
O91 O 0.76534 0.48971 0.48442 0.0
O92 O 0.71175 0.33794 0.43769 0.0
C93 C 0.73009 0.45694 0.5016 0.0
O94 O 0.80407 0.33086 0.51009 0.0
C95 C 0.70255 0.37129 0.42466 0.0
O96 O 0.8593 0.41821 0.49852 0.0
O97 O 0.73243 0.42301 0.43046 0.0
C98 C 0.50017 0.89557 0.74525 0.0
O99 O 0.51705 0.86014 0.74495 0.0
Cd100 Cd 0.45069 0.80954 0.78063 0.0
O101 O 0.45536 0.88493 0.75889 0.0
Cd102 Cd 0.39385 0.79441 0.78263 0.0
C103 C 0.47407 0.89037 0.82543 0.0
O104 O 0.42323 0.72458 0.79934 0.0
O105 O 0.34725 0.72691 0.81492 0.0
O106 O 0.36205 0.75286 0.74075 0.0
C107 C 0.37917 0.70478 0.81497 0.0
O108 O 0.50531 0.87333 0.81478 0.0
C109 C 0.30801 0.73786 0.74403 0.0
O110 O 0.4214 0.87011 0.81743 0.0
O111 O 0.29356 0.75182 0.76508 0.0
C112 C 0.53983 0.43823 0.10154 0.0
O113 O 0.59396 0.4766 0.09889 0.0
Cd114 Cd 0.67534 0.48609 0.12851 0.0
O115 O 0.52596 0.4008 0.1184 0.0
Cd116 Cd 0.62259 0.42805 0.12804 0.0
C117 C 0.63493 0.5397 0.16567 0.0
O118 O 0.68235 0.41363 0.15608 0.0
O119 O 0.59237 0.34445 0.1501 0.0
O120 O 0.68075 0.43927 0.08733 0.0
C121 C 0.64211 0.36266 0.16042 0.0
O122 O 0.68806 0.56114 0.15814 0.0
C123 C 0.63937 0.39252 0.07849 0.0
O124 O 0.59797 0.49118 0.1569 0.0
O125 O 0.59209 0.36683 0.09169 0.0
C126 C 0.13936 0.56523 0.45276 0.0
O127 O 0.16975 0.618 0.45688 0.0
Cd128 Cd 0.25934 0.66234 0.48753 0.0
O129 O 0.15754 0.5349 0.46192 0.0
Cd130 Cd 0.24522 0.60988 0.47938 0.0
C131 C 0.17043 0.65 0.52276 0.0
O132 O 0.30538 0.61755 0.51346 0.0
O133 O 0.26299 0.53747 0.49357 0.0
O134 O 0.32571 0.68886 0.4511 0.0
C135 C 0.29501 0.56744 0.51185 0.0
O136 O 0.22107 0.69407 0.52296 0.0
C137 C 0.31201 0.65618 0.43188 0.0
O138 O 0.1626 0.61138 0.50715 0.0
O139 O 0.26902 0.60642 0.43489 0.0
C140 C 0.61707 0.11863 0.76475 0.0
O141 O 0.58323 0.13782 0.76993 0.0
Cd142 Cd 0.60044 0.20784 0.80693 0.0
O143 O 0.6647 0.13836 0.77688 0.0
Cd144 Cd 0.65453 0.2074 0.79889 0.0
C145 C 0.53266 0.10824 0.83645 0.0
O146 O 0.6931 0.26477 0.83451 0.0
O147 O 0.74847 0.2359 0.81696 0.0
O148 O 0.64348 0.27954 0.77367 0.0
C149 C 0.7413 0.26448 0.83418 0.0
O150 O 0.52099 0.147 0.83845 0.0
C151 C 0.67684 0.27992 0.75566 0.0
O152 O 0.57566 0.11702 0.82184 0.0
O153 O 0.69535 0.24609 0.75749 0.0
C154 C 0.36609 0.47984 0.10517 0.0
O155 O 0.30995 0.45018 0.10576 0.0
Cd156 Cd 0.25127 0.45871 0.14281 0.0
O157 O 0.39196 0.51779 0.12183 0.0
Cd158 Cd 0.31181 0.52035 0.13809 0.0
C159 C 0.31297 0.42227 0.17926 0.0
O160 O 0.25621 0.54151 0.16717 0.0
O161 O 0.35026 0.6028 0.1606 0.0
O162 O 0.27094 0.52804 0.0963 0.0
C163 C 0.30111 0.59067 0.1709 0.0
O164 O 0.25808 0.39794 0.17511 0.0
C165 C 0.31862 0.57478 0.09138 0.0
O166 O 0.34618 0.46861 0.16761 0.0
O167 O 0.35965 0.59262 0.10766 0.0
C168 C 0.79308 0.33181 -0.10284 0.0
C169 C 0.80028 0.29 -0.09153 0.0
H170 H 0.76648 0.35547 0.8634 0.0
C171 C 0.81243 0.25585 -0.10727 0.0
H172 H 0.78486 0.35941 -0.09097 0.0
C173 C 0.80248 0.25395 0.86645 0.0
C174 C 0.78058 0.28628 0.85623 0.0
H175 H 0.8189 0.22377 -0.09899 0.0
H176 H 0.80288 0.22116 0.85518 0.0
C177 C 0.78184 0.32914 0.87108 0.0
C178 C 0.26826 0.60524 0.21312 0.0
C179 C 0.30121 0.6287 0.1906 0.0
H180 H 0.27259 0.60547 0.25383 0.0
C181 C 0.35023 0.68381 0.19123 0.0
H182 H 0.22894 0.56377 0.21304 0.0
C183 C 0.3761 0.70725 0.21462 0.0
C184 C 0.35184 0.67543 0.23695 0.0
H185 H 0.37475 0.70394 0.17381 0.0
H186 H 0.41978 0.74453 0.21454 0.0
C187 C 0.29365 0.62914 0.23653 0.0
C188 C 0.75444 0.53501 0.5317 0.0
C189 C 0.71483 0.47932 0.52418 0.0
H190 H 0.80272 0.58761 0.56312 0.0
C191 C 0.67495 0.44127 0.54239 0.0
H192 H 0.78455 0.56585 0.51792 0.0
C193 C 0.68495 0.45415 0.56833 0.0
C194 C 0.73517 0.50462 0.57582 0.0
H195 H 0.64252 0.39863 0.53696 0.0
H196 H 0.66029 0.42087 0.58216 0.0
C197 C 0.76468 0.54774 0.55773 0.0
C198 C 0.32373 0.65086 -0.12139 0.0
C199 C 0.37839 0.67585 -0.10923 0.0
H200 H 0.28036 0.63582 0.84284 0.0
C201 C 0.42872 0.68622 0.8765 0.0
H202 H 0.28392 0.64076 -0.11071 0.0
C203 C 0.42677 0.68389 0.84977 0.0
C204 C 0.37452 0.67129 0.83751 0.0
H205 H 0.47131 0.70414 -0.11449 0.0
H206 H 0.46799 0.70117 0.83906 0.0
C207 C 0.32167 0.64752 0.85197 0.0
C208 C 0.58341 0.25816 0.21152 0.0
C209 C 0.61698 0.2948 0.23121 0.0
H210 H 0.56728 0.25172 0.17144 0.0
C211 C 0.67416 0.33971 0.22538 0.0
H212 H 0.54041 0.22156 0.21552 0.0
C213 C 0.68912 0.3578 0.20009 0.0
C214 C 0.64721 0.32974 0.18102 0.0
H215 H 0.70249 0.36696 0.24039 0.0
H216 H 0.72837 0.3983 0.19638 0.0
C217 C 0.59874 0.27576 0.18621 0.0
C218 C 0.33708 0.57561 0.55484 0.0
C219 C 0.30447 0.54127 0.53431 0.0
H220 H 0.34141 0.58505 0.59549 0.0
C221 C 0.26595 0.48348 0.53872 0.0
H222 H 0.36843 0.61996 0.55192 0.0
C223 C 0.2501 0.46346 0.5638 0.0
C224 C 0.2731 0.50124 0.58437 0.0
H225 H 0.24127 0.45554 0.52317 0.0
H226 H 0.21365 0.4209 0.56675 0.0
C227 C 0.32155 0.55552 0.57986 0.0
C228 C 0.61031 0.00371 -0.12049 0.0
C229 C 0.58919 0.042 -0.10182 0.0
H230 H 0.5926 0.93591 0.84671 0.0
C231 C 0.52069 0.03378 -0.10484 0.0
H232 H 0.6543 0.01139 -0.11757 0.0
C233 C 0.46003 0.95979 0.85982 0.0
C234 C 0.49985 0.93273 0.84627 0.0
H235 H 0.51025 0.05962 -0.09241 0.0
H236 H 0.41561 0.94413 0.85251 0.0
C237 C 0.57026 0.95475 0.8562 0.0
C238 C 0.65345 0.62638 0.19084 0.0
C239 C 0.61644 0.56899 0.18484 0.0
H240 H 0.66544 0.69736 0.21294 0.0
C241 C 0.56169 0.53926 0.19787 0.0
H242 H 0.69599 0.65087 0.18131 0.0
C243 C 0.54467 0.56566 0.21642 0.0
C244 C 0.58119 0.62312 0.22224 0.0
H245 H 0.53216 0.49511 0.19392 0.0
H246 H 0.50247 0.54105 0.22616 0.0
C247 C 0.63589 0.65312 0.20907 0.0
C248 C 0.13427 0.67115 0.56427 0.0
C249 C 0.12231 0.64095 0.54111 0.0
H250 H 0.10004 0.67944 0.60078 0.0
C251 C 0.06381 0.59839 0.53638 0.0
H252 H 0.17884 0.70426 0.56854 0.0
C253 C 0.01906 0.58457 0.55471 0.0
C254 C 0.0314 0.61221 0.57843 0.0
H255 H 0.05267 0.5748 0.51865 0.0
H256 H 0.97455 0.55143 0.55049 0.0
C257 C 0.08921 0.65691 0.58277 0.0
C258 C 0.41481 0.98107 -0.10521 0.0
C259 C 0.44348 0.94074 -0.09569 0.0
H260 H 0.41908 0.05534 0.86922 0.0
C261 C 0.50752 0.95043 -0.10909 0.0
H262 H 0.37398 0.9722 -0.09592 0.0
C263 C 0.55 0.02957 0.85664 0.0
C264 C 0.50687 0.05838 0.85366 0.0
H265 H 0.52322 0.92321 -0.10228 0.0
H266 H 0.58999 0.04712 0.8446 0.0
C267 C 0.44354 0.03433 0.87197 0.0
C268 C 0.39688 0.4304 0.20548 0.0
C269 C 0.33806 0.39806 0.19735 0.0
H270 H 0.46593 0.43501 0.22852 0.0
C271 C 0.30384 0.34271 0.20683 0.0
H272 H 0.42456 0.47305 0.19866 0.0
C273 C 0.32793 0.32044 0.22368 0.0
C274 C 0.38678 0.35305 0.23192 0.0
H275 H 0.25841 0.31629 0.20106 0.0
H276 H 0.30025 0.2776 0.23034 0.0
C277 C 0.42064 0.4085 0.22263 0.0
C278 C 0.93294 0.34779 0.56397 0.0
C279 C 0.98299 0.40122 0.56807 0.0
H280 H 0.85201 0.29845 0.54375 0.0
C281 C 0.98982 0.44667 0.55369 0.0
H282 H 0.92678 0.31176 0.57462 0.0
C283 C 0.94777 0.43877 0.5354 0.0
C284 C 0.89711 0.38548 0.53154 0.0
H285 H 0.02885 0.48776 0.55596 0.0
H286 H 0.9551 0.47432 0.52407 0.0
C287 C 0.89019 0.34012 0.54619 0.0
C288 C 0.55033 0.9524 0.00837 0.0
C289 C 0.5557 0.91173 -0.00557 0.0
H290 H 0.5929 0.0385 0.01971 0.0
C291 C 0.61251 0.9223 -0.01192 0.0
H292 H 0.50735 0.94494 0.01426 0.0
C293 C 0.66177 0.97603 -0.00873 0.0
C294 C 0.65448 0.0198 0.00059 0.0
H295 H 0.61834 0.8911 -0.02196 0.0
H296 H 0.70364 0.98472 -0.01689 0.0
C297 C 0.59965 0.00603 0.01169 0.0
C298 C 0.56708 0.51385 0.32218 0.0
C299 C 0.51684 0.45975 0.32375 0.0
H300 H 0.59885 0.60153 0.31888 0.0
C301 C 0.46248 0.45325 0.33135 0.0
H302 H 0.60983 0.51973 0.31703 0.0
C303 C 0.45613 0.5 0.33222 0.0
C304 C 0.5043 0.55314 0.32584 0.0
H305 H 0.42331 0.41191 0.33324 0.0
H306 H 0.41225 0.49364 0.33464 0.0
C307 C 0.56089 0.5607 0.32346 0.0
C308 C 0.01757 0.41055 0.6723 0.0
C309 C 0.01183 0.36617 0.65711 0.0
H310 H 0.99167 0.47109 0.67855 0.0
C311 C 0.96622 0.34144 0.63919 0.0
H312 H 0.05049 0.42839 0.68706 0.0
C313 C 0.93189 0.36538 0.63445 0.0
C314 C 0.94258 0.41404 0.64762 0.0
H315 H 0.95999 0.30647 0.62746 0.0
H316 H 0.89931 0.34764 0.61952 0.0
C317 C 0.98359 0.43463 0.66751 0.0
C318 C 0.98413 0.45387 0.43651 0.0
C319 C 0.95671 0.48585 0.43593 0.0
H320 H 0.06435 0.45428 0.44201 0.0
C321 C 0.99227 0.54477 0.43483 0.0
H322 H 0.9581 0.40839 0.43707 0.0
C323 C 0.05334 0.57115 0.43775 0.0
C324 C 0.07972 0.53899 0.44177 0.0
H325 H 0.97258 0.57066 0.43406 0.0
H326 H 0.07892 0.61656 0.43907 0.0
C327 C 0.04514 0.48023 0.43945 0.0
C328 C 0.59816 0.98198 0.74226 0.0
C329 C 0.53804 0.9537 0.73632 0.0
H330 H 0.67143 0.05839 0.75611 0.0
C331 C 0.51116 0.98521 0.73163 0.0
H332 H 0.62005 0.95873 0.74583 0.0
C333 C 0.5401 0.04211 0.73794 0.0
C334 C 0.59642 0.068 0.7487 0.0
H335 H 0.46494 0.9643 0.72665 0.0
H336 H 0.5158 0.06378 0.73714 0.0
C337 C 0.62729 0.03905 0.74853 0.0
C338 C 0.5045 0.49595 0.08171 0.0
C339 C 0.49324 0.44278 0.08904 0.0
H340 H 0.46896 0.54978 0.08047 0.0
C341 C 0.4346 0.3978 0.09089 0.0
H342 H 0.5493 0.53104 0.0795 0.0
C343 C 0.38849 0.40844 0.09094 0.0
C344 C 0.40158 0.46407 0.08955 0.0
H345 H 0.42488 0.35595 0.09574 0.0
H346 H 0.34458 0.37485 0.09634 0.0
C347 C 0.45849 0.50667 0.0821 0.0
C348 C 0.59632 0.32334 0.0427 0.0
C349 C 0.64659 0.36411 0.0558 0.0
H350 H 0.56074 0.25604 0.01534 0.0
C351 C 0.70143 0.36986 0.04987 0.0
H352 H 0.55333 0.31776 0.047 0.0
C353 C 0.7053 0.33341 0.03228 0.0
C354 C 0.65461 0.29119 0.0199 0.0
H355 H 0.7407 0.4003 0.05988 0.0
H356 H 0.74797 0.33776 0.02866 0.0
C357 C 0.60039 0.28769 0.02472 0.0
C358 C 0.406 0.70784 0.40506 0.0
C359 C 0.34413 0.67276 0.40698 0.0
H360 H 0.48347 0.73784 0.38071 0.0
C361 C 0.31244 0.64644 0.38486 0.0
H362 H 0.4315 0.72839 0.42193 0.0
C363 C 0.3416 0.65188 0.3617 0.0
C364 C 0.40363 0.68338 0.35985 0.0
H365 H 0.26479 0.61966 0.38566 0.0
H366 H 0.31514 0.62937 0.34531 0.0
C367 C 0.43571 0.71307 0.38156 0.0
C368 C 0.7037 0.30002 0.70987 0.0
C369 C 0.69675 0.3191 0.73382 0.0
H370 H 0.73731 0.32105 0.67173 0.0
C371 C 0.71748 0.37666 0.73721 0.0
H372 H 0.68855 0.25597 0.70684 0.0
C373 C 0.74721 0.41485 0.71707 0.0
C374 C 0.75532 0.39555 0.69324 0.0
H375 H 0.71345 0.39239 0.75572 0.0
H376 H 0.76439 0.45921 0.7202 0.0
C377 C 0.73199 0.33756 0.6898 0.0
C378 C 0.2828 0.60769 0.05432 0.0
C379 C 0.3288 0.60854 0.06792 0.0
H380 H 0.25977 0.64276 0.02303 0.0
C381 C 0.38739 0.64591 0.06006 0.0
H382 H 0.23725 0.5797 0.06012 0.0
C383 C 0.40008 0.68139 0.03922 0.0
C384 C 0.35468 0.68125 0.02561 0.0
H385 H 0.42398 0.64775 0.07004 0.0
H386 H 0.44594 0.70915 0.03375 0.0
C387 C 0.29571 0.64423 0.03339 0.0
C388 C 0.64093 0.38969 0.39559 0.0
C389 C 0.65782 0.35224 0.40425 0.0
H390 H 0.5936 0.40691 0.36798 0.0
C391 C 0.63243 0.29863 0.39292 0.0
H392 H 0.6586 0.4309 0.40412 0.0
C393 C 0.59409 0.2846 0.37209 0.0
C394 C 0.58042 0.32384 0.36269 0.0
H395 H 0.64428 0.26875 0.39932 0.0
H396 H 0.57838 0.24486 0.36236 0.0
C397 C 0.60289 0.37569 0.37511 0.0
C398 C 0.24158 0.66753 0.6811 0.0
C399 C 0.19345 0.61582 0.68937 0.0
H400 H 0.31627 0.74667 0.69212 0.0
C401 C 0.1786 0.60819 0.71562 0.0
H402 H 0.25447 0.67451 0.66104 0.0
C403 C 0.21295 0.65045 0.73334 0.0
C404 C 0.26383 0.70021 0.72519 0.0
H405 H 0.14188 0.56871 0.72254 0.0
H406 H 0.20226 0.64243 0.75356 0.0
C407 C 0.27704 0.70885 0.69887 0.0
loop_
_geom_bond_atom_site_label_1
_geom_bond_atom_site_label_2
_geom_bond_distance
_geom_bond_site_symmetry_2
_ccdc_geom_bond_type
C0 O1 1.306 . S
C0 O3 1.160 . S
O1 C0 1.306 . S
O1 Cd2 2.228 . S
Cd2 O1 2.228 . S
Cd2 O6 2.273 . S
Cd2 O10 2.277 . S
O3 C0 1.160 . S
O3 Cd4 2.203 . S
Cd4 O3 2.203 . S
Cd4 O6 2.411 . S
Cd4 O7 2.333 . S
Cd4 O8 2.352 . S
Cd4 O12 2.277 . S
Cd4 O13 2.356 . S
C5 O10 1.209 . S
C5 O12 1.226 . S
O6 Cd2 2.273 . S
O6 Cd4 2.411 . S
O6 C9 1.320 . S
O7 Cd4 2.333 . S
O7 C9 1.214 . S
O8 Cd4 2.352 . S
O8 C11 1.258 . S
C9 O6 1.320 . S
C9 O7 1.214 . S
O10 Cd2 2.277 . S
O10 C5 1.209 . S
C11 O8 1.258 . S
C11 O13 1.282 . S
O12 Cd4 2.277 . S
O12 C5 1.226 . S
O13 Cd4 2.356 . S
O13 C11 1.282 . S
C14 O15 1.306 . S
C14 O17 1.160 . S
O15 C14 1.306 . S
O15 Cd16 2.228 . S
Cd16 O15 2.228 . S
Cd16 O20 2.273 . S
Cd16 O24 2.277 . S
O17 C14 1.160 . S
O17 Cd18 2.203 . S
Cd18 O17 2.203 . S
Cd18 O20 2.411 . S
Cd18 O21 2.333 . S
Cd18 O22 2.352 . S
Cd18 O26 2.277 . S
Cd18 O27 2.356 . S
C19 O24 1.209 . S
C19 O26 1.226 . S
O20 Cd16 2.273 . S
O20 Cd18 2.411 . S
O20 C23 1.320 . S
O21 Cd18 2.333 . S
O21 C23 1.214 . S
O22 Cd18 2.352 . S
O22 C25 1.258 . S
C23 O20 1.320 . S
C23 O21 1.214 . S
O24 Cd16 2.277 . S
O24 C19 1.209 . S
C25 O22 1.258 . S
C25 O27 1.282 . S
O26 Cd18 2.277 . S
O26 C19 1.226 . S
O27 Cd18 2.356 . S
O27 C25 1.282 . S
C28 O29 1.306 . S
C28 O31 1.160 . S
O29 C28 1.306 . S
O29 Cd30 2.228 . S
Cd30 O29 2.228 . S
Cd30 O34 2.273 . S
Cd30 O38 2.277 . S
O31 C28 1.160 . S
O31 Cd32 2.203 . S
Cd32 O31 2.203 . S
Cd32 O34 2.411 . S
Cd32 O35 2.333 . S
Cd32 O36 2.352 . S
Cd32 O40 2.277 . S
Cd32 O41 2.356 . S
C33 O38 1.209 . S
C33 O40 1.226 . S
O34 Cd30 2.273 . S
O34 Cd32 2.411 . S
O34 C37 1.320 . S
O35 Cd32 2.333 . S
O35 C37 1.214 . S
O36 Cd32 2.352 . S
O36 C39 1.258 . S
C37 O34 1.320 . S
C37 O35 1.214 . S
O38 Cd30 2.277 . S
O38 C33 1.209 . S
C39 O36 1.258 . S
C39 O41 1.282 . S
O40 Cd32 2.277 . S
O40 C33 1.226 . S
O41 Cd32 2.356 . S
O41 C39 1.282 . S
C42 O43 1.306 . S
C42 O45 1.160 . S
O43 C42 1.306 . S
O43 Cd44 2.228 . S
Cd44 O43 2.228 . S
Cd44 O48 2.273 . S
Cd44 O52 2.277 . S
O45 C42 1.160 . S
O45 Cd46 2.203 . S
Cd46 O45 2.203 . S
Cd46 O48 2.411 . S
Cd46 O49 2.333 . S
Cd46 O50 2.352 . S
Cd46 O54 2.277 . S
Cd46 O55 2.356 . S
C47 O52 1.209 . S
C47 O54 1.226 . S
O48 Cd44 2.273 . S
O48 Cd46 2.411 . S
O48 C51 1.320 . S
O49 Cd46 2.333 . S
O49 C51 1.214 . S
O50 Cd46 2.352 . S
O50 C53 1.258 . S
C51 O48 1.320 . S
C51 O49 1.214 . S
O52 Cd44 2.277 . S
O52 C47 1.209 . S
C53 O50 1.258 . S
C53 O55 1.282 . S
O54 Cd46 2.277 . S
O54 C47 1.226 . S
O55 Cd46 2.356 . S
O55 C53 1.282 . S
C56 O57 1.306 . S
C56 O59 1.160 . S
O57 C56 1.306 . S
O57 Cd58 2.228 . S
Cd58 O57 2.228 . S
Cd58 O62 2.273 . S
Cd58 O66 2.277 . S
O59 C56 1.160 . S
O59 Cd60 2.203 . S
Cd60 O59 2.203 . S
Cd60 O62 2.411 . S
Cd60 O63 2.333 . S
Cd60 O64 2.352 . S
Cd60 O68 2.277 . S
Cd60 O69 2.356 . S
C61 O66 1.209 . S
C61 O68 1.226 . S
O62 Cd58 2.273 . S
O62 Cd60 2.411 . S
O62 C65 1.320 . S
O63 Cd60 2.333 . S
O63 C65 1.214 . S
O64 Cd60 2.352 . S
O64 C67 1.258 . S
C65 O62 1.320 . S
C65 O63 1.214 . S
O66 Cd58 2.277 . S
O66 C61 1.209 . S
C67 O64 1.258 . S
C67 O69 1.282 . S
O68 Cd60 2.277 . S
O68 C61 1.226 . S
O69 Cd60 2.356 . S
O69 C67 1.282 . S
C70 O71 1.306 . S
C70 O73 1.160 . S
O71 C70 1.306 . S
O71 Cd72 2.228 . S
Cd72 O71 2.228 . S
Cd72 O76 2.273 . S
Cd72 O80 2.277 . S
O73 C70 1.160 . S
O73 Cd74 2.203 . S
Cd74 O73 2.203 . S
Cd74 O76 2.411 . S
Cd74 O77 2.333 . S
Cd74 O78 2.352 . S
Cd74 O82 2.277 . S
Cd74 O83 2.356 . S
C75 O80 1.209 . S
C75 O82 1.226 . S
O76 Cd72 2.273 . S
O76 Cd74 2.411 . S
O76 C79 1.320 . S
O77 Cd74 2.333 . S
O77 C79 1.214 . S
O78 Cd74 2.352 . S
O78 C81 1.258 . S
C79 O76 1.320 . S
C79 O77 1.214 . S
O80 Cd72 2.277 . S
O80 C75 1.209 . S
C81 O78 1.258 . S
C81 O83 1.282 . S
O82 Cd74 2.277 . S
O82 C75 1.226 . S
O83 Cd74 2.356 . S
O83 C81 1.282 . S
C84 O85 1.306 . S
C84 O87 1.160 . S
O85 C84 1.306 . S
O85 Cd86 2.228 . S
Cd86 O85 2.228 . S
Cd86 O90 2.273 . S
Cd86 O94 2.277 . S
O87 C84 1.160 . S
O87 Cd88 2.203 . S
Cd88 O87 2.203 . S
Cd88 O90 2.411 . S
Cd88 O91 2.333 . S
Cd88 O92 2.352 . S
Cd88 O96 2.277 . S
Cd88 O97 2.356 . S
C89 O94 1.209 . S
C89 O96 1.226 . S
O90 Cd86 2.273 . S
O90 Cd88 2.411 . S
O90 C93 1.320 . S
O91 Cd88 2.333 . S
O91 C93 1.214 . S
O92 Cd88 2.352 . S
O92 C95 1.258 . S
C93 O90 1.320 . S
C93 O91 1.214 . S
O94 Cd86 2.277 . S
O94 C89 1.209 . S
C95 O92 1.258 . S
C95 O97 1.282 . S
O96 Cd88 2.277 . S
O96 C89 1.226 . S
O97 Cd88 2.356 . S
O97 C95 1.282 . S
C98 O99 1.306 . S
C98 O101 1.160 . S
O99 C98 1.306 . S
O99 Cd100 2.228 . S
Cd100 O99 2.228 . S
Cd100 O104 2.273 . S
Cd100 O108 2.277 . S
O101 C98 1.160 . S
O101 Cd102 2.203 . S
Cd102 O101 2.203 . S
Cd102 O104 2.411 . S
Cd102 O105 2.333 . S
Cd102 O106 2.352 . S
Cd102 O110 2.277 . S
Cd102 O111 2.356 . S
C103 O108 1.209 . S
C103 O110 1.226 . S
O104 Cd100 2.273 . S
O104 Cd102 2.411 . S
O104 C107 1.320 . S
O105 Cd102 2.333 . S
O105 C107 1.214 . S
O106 Cd102 2.352 . S
O106 C109 1.258 . S
C107 O104 1.320 . S
C107 O105 1.214 . S
O108 Cd100 2.277 . S
O108 C103 1.209 . S
C109 O106 1.258 . S
C109 O111 1.282 . S
O110 Cd102 2.277 . S
O110 C103 1.226 . S
O111 Cd102 2.356 . S
O111 C109 1.282 . S
C112 O113 1.306 . S
C112 O115 1.160 . S
O113 C112 1.306 . S
O113 Cd114 2.228 . S
Cd114 O113 2.228 . S
Cd114 O118 2.273 . S
Cd114 O122 2.277 . S
O115 C112 1.160 . S
O115 Cd116 2.203 . S
Cd116 O115 2.203 . S
Cd116 O118 2.411 . S
Cd116 O119 2.333 . S
Cd116 O120 2.352 . S
Cd116 O124 2.277 . S
Cd116 O125 2.356 . S
C117 O122 1.209 . S
C117 O124 1.226 . S
O118 Cd114 2.273 . S
O118 Cd116 2.411 . S
O118 C121 1.320 . S
O119 Cd116 2.333 . S
O119 C121 1.214 . S
O120 Cd116 2.352 . S
O120 C123 1.258 . S
C121 O118 1.320 . S
C121 O119 1.214 . S
O122 Cd114 2.277 . S
O122 C117 1.209 . S
C123 O120 1.258 . S
C123 O125 1.282 . S
O124 Cd116 2.277 . S
O124 C117 1.226 . S
O125 Cd116 2.356 . S
O125 C123 1.282 . S
C126 O127 1.306 . S
C126 O129 1.160 . S
O127 C126 1.306 . S
O127 Cd128 2.228 . S
Cd128 O127 2.228 . S
Cd128 O132 2.273 . S
Cd128 O136 2.277 . S
O129 C126 1.160 . S
O129 Cd130 2.203 . S
Cd130 O129 2.203 . S
Cd130 O132 2.411 . S
Cd130 O133 2.333 . S
Cd130 O134 2.352 . S
Cd130 O138 2.277 . S
Cd130 O139 2.356 . S
C131 O136 1.209 . S
C131 O138 1.226 . S
O132 Cd128 2.273 . S
O132 Cd130 2.411 . S
O132 C135 1.320 . S
O133 Cd130 2.333 . S
O133 C135 1.214 . S
O134 Cd130 2.352 . S
O134 C137 1.258 . S
C135 O132 1.320 . S
C135 O133 1.214 . S
O136 Cd128 2.277 . S
O136 C131 1.209 . S
C137 O134 1.258 . S
C137 O139 1.282 . S
O138 Cd130 2.277 . S
O138 C131 1.226 . S
O139 Cd130 2.356 . S
O139 C137 1.282 . S
C140 O141 1.306 . S
C140 O143 1.160 . S
O141 C140 1.306 . S
O141 Cd142 2.228 . S
Cd142 O141 2.228 . S
Cd142 O146 2.273 . S
Cd142 O150 2.277 . S
O143 C140 1.160 . S
O143 Cd144 2.203 . S
Cd144 O143 2.203 . S
Cd144 O146 2.411 . S
Cd144 O147 2.333 . S
Cd144 O148 2.352 . S
Cd144 O152 2.277 . S
Cd144 O153 2.356 . S
C145 O150 1.209 . S
C145 O152 1.226 . S
O146 Cd142 2.273 . S
O146 Cd144 2.411 . S
O146 C149 1.320 . S
O147 Cd144 2.333 . S
O147 C149 1.214 . S
O148 Cd144 2.352 . S
O148 C151 1.258 . S
C149 O146 1.320 . S
C149 O147 1.214 . S
O150 Cd142 2.277 . S
O150 C145 1.209 . S
C151 O148 1.258 . S
C151 O153 1.282 . S
O152 Cd144 2.277 . S
O152 C145 1.226 . S
O153 Cd144 2.356 . S
O153 C151 1.282 . S
C154 O155 1.306 . S
C154 O157 1.160 . S
O155 C154 1.306 . S
O155 Cd156 2.228 . S
Cd156 O155 2.228 . S
Cd156 O160 2.273 . S
Cd156 O164 2.277 . S
O157 C154 1.160 . S
O157 Cd158 2.203 . S
Cd158 O157 2.203 . S
Cd158 O160 2.411 . S
Cd158 O161 2.333 . S
Cd158 O162 2.352 . S
Cd158 O166 2.277 . S
Cd158 O167 2.356 . S
C159 O164 1.209 . S
C159 O166 1.226 . S
O160 Cd156 2.273 . S
O160 Cd158 2.411 . S
O160 C163 1.320 . S
O161 Cd158 2.333 . S
O161 C163 1.214 . S
O162 Cd158 2.352 . S
O162 C165 1.258 . S
C163 O160 1.320 . S
C163 O161 1.214 . S
O164 Cd156 2.277 . S
O164 C159 1.209 . S
C165 O162 1.258 . S
C165 O167 1.282 . S
O166 Cd158 2.277 . S
O166 C159 1.226 . S
O167 Cd158 2.356 . S
O167 C165 1.282 . S
C168 C169 1.387 . S
C168 H172 0.950 . S
C168 C177 1.390 1_554 S
C169 C168 1.387 . S
C169 C171 1.387 . S
H170 C177 0.950 . S
C171 C169 1.387 . S
C171 C173 1.390 1_554 S
C171 H175 0.950 . S
H172 C168 0.950 . S
C173 C171 1.390 1_556 S
C173 C174 1.387 . S
C173 H176 0.950 . S
C174 C173 1.387 . S
C174 C177 1.387 . S
H175 C171 0.950 . S
H176 C173 0.950 . S
C177 C168 1.390 1_556 S
C177 H170 0.950 . S
C177 C174 1.387 . S
C178 C179 1.387 . S
C178 H182 0.950 . S
C178 C187 1.390 . S
C179 C178 1.387 . S
C179 C181 1.387 . S
H180 C187 0.950 . S
C181 C179 1.387 . S
C181 C183 1.390 . S
C181 H185 0.950 . S
H182 C178 0.950 . S
C183 C181 1.390 . S
C183 C184 1.387 . S
C183 H186 0.950 . S
C184 C183 1.387 . S
C184 C187 1.387 . S
H185 C181 0.950 . S
H186 C183 0.950 . S
C187 C178 1.390 . S
C187 H180 0.950 . S
C187 C184 1.387 . S
C188 C189 1.387 . S
C188 H192 0.950 . S
C188 C197 1.390 . S
C189 C188 1.387 . S
C189 C191 1.387 . S
H190 C197 0.950 . S
C191 C189 1.387 . S
C191 C193 1.390 . S
C191 H195 0.950 . S
H192 C188 0.950 . S
C193 C191 1.390 . S
C193 C194 1.387 . S
C193 H196 0.950 . S
C194 C193 1.387 . S
C194 C197 1.387 . S
H195 C191 0.950 . S
H196 C193 0.950 . S
C197 C188 1.390 . S
C197 H190 0.950 . S
C197 C194 1.387 . S
C198 C199 1.387 . S
C198 H202 0.950 . S
C198 C207 1.390 1_554 S
C199 C198 1.387 . S
C199 C201 1.387 . S
H200 C207 0.950 . S
C201 C199 1.387 . S
C201 C203 1.390 1_554 S
C201 H205 0.950 . S
H202 C198 0.950 . S
C203 C201 1.390 1_556 S
C203 C204 1.387 . S
C203 H206 0.950 . S
C204 C203 1.387 . S
C204 C207 1.387 . S
H205 C201 0.950 . S
H206 C203 0.950 . S
C207 C198 1.390 1_556 S
C207 H200 0.950 . S
C207 C204 1.387 . S
C208 C209 1.387 . S
C208 H212 0.950 . S
C208 C217 1.390 . S
C209 C208 1.387 . S
C209 C211 1.387 . S
H210 C217 0.950 . S
C211 C209 1.387 . S
C211 C213 1.390 . S
C211 H215 0.950 . S
H212 C208 0.950 . S
C213 C211 1.390 . S
C213 C214 1.387 . S
C213 H216 0.950 . S
C214 C213 1.387 . S
C214 C217 1.387 . S
H215 C211 0.950 . S
H216 C213 0.950 . S
C217 C208 1.390 . S
C217 H210 0.950 . S
C217 C214 1.387 . S
C218 C219 1.387 . S
C218 H222 0.950 . S
C218 C227 1.390 . S
C219 C218 1.387 . S
C219 C221 1.387 . S
H220 C227 0.950 . S
C221 C219 1.387 . S
C221 C223 1.390 . S
C221 H225 0.950 . S
H222 C218 0.950 . S
C223 C221 1.390 . S
C223 C224 1.387 . S
C223 H226 0.950 . S
C224 C223 1.387 . S
C224 C227 1.387 . S
H225 C221 0.950 . S
H226 C223 0.950 . S
C227 C218 1.390 . S
C227 H220 0.950 . S
C227 C224 1.387 . S
C228 C229 1.387 . S
C228 H232 0.950 . S
C228 C237 1.390 1_544 S
C229 C228 1.387 . S
C229 C231 1.387 . S
H230 C237 0.950 . S
C231 C229 1.387 . S
C231 C233 1.390 1_544 S
C231 H235 0.950 . S
H232 C228 0.950 . S
C233 C231 1.390 1_566 S
C233 C234 1.387 . S
C233 H236 0.950 . S
C234 C233 1.387 . S
C234 C237 1.387 . S
H235 C231 0.950 . S
H236 C233 0.950 . S
C237 C228 1.390 1_566 S
C237 H230 0.950 . S
C237 C234 1.387 . S
C238 C239 1.387 . S
C238 H242 0.950 . S
C238 C247 1.390 . S
C239 C238 1.387 . S
C239 C241 1.387 . S
H240 C247 0.950 . S
C241 C239 1.387 . S
C241 C243 1.390 . S
C241 H245 0.950 . S
H242 C238 0.950 . S
C243 C241 1.390 . S
C243 C244 1.387 . S
C243 H246 0.950 . S
C244 C243 1.387 . S
C244 C247 1.387 . S
H245 C241 0.950 . S
H246 C243 0.950 . S
C247 C238 1.390 . S
C247 H240 0.950 . S
C247 C244 1.387 . S
C248 C249 1.387 . S
C248 H252 0.950 . S
C248 C257 1.390 . S
C249 C248 1.387 . S
C249 C251 1.387 1_455 S
H250 C257 0.950 . S
C251 C249 1.387 1_655 S
C251 C253 1.390 . S
C251 H255 0.950 . S
H252 C248 0.950 . S
C253 C251 1.390 . S
C253 C254 1.387 . S
C253 H256 0.950 . S
C254 C253 1.387 . S
C254 C257 1.387 1_655 S
H255 C251 0.950 . S
H256 C253 0.950 . S
C257 C248 1.390 . S
C257 H250 0.950 . S
C257 C254 1.387 1_455 S
C258 C259 1.387 . S
C258 H262 0.950 . S
C258 C267 1.390 1_564 S
C259 C258 1.387 . S
C259 C261 1.387 . S
H260 C267 0.950 . S
C261 C259 1.387 . S
C261 C263 1.390 1_564 S
C261 H265 0.950 . S
H262 C258 0.950 . S
C263 C261 1.390 1_546 S
C263 C264 1.387 . S
C263 H266 0.950 . S
C264 C263 1.387 . S
C264 C267 1.387 . S
H265 C261 0.950 . S
H266 C263 0.950 . S
C267 C258 1.390 1_546 S
C267 H260 0.950 . S
C267 C264 1.387 . S
C268 C269 1.387 . S
C268 H272 0.950 . S
C268 C277 1.390 . S
C269 C268 1.387 . S
C269 C271 1.387 . S
H270 C277 0.950 . S
C271 C269 1.387 . S
C271 C273 1.390 . S
C271 H275 0.950 . S
H272 C268 0.950 . S
C273 C271 1.390 . S
C273 C274 1.387 . S
C273 H276 0.950 . S
C274 C273 1.387 . S
C274 C277 1.387 . S
H275 C271 0.950 . S
H276 C273 0.950 . S
C277 C268 1.390 . S
C277 H270 0.950 . S
C277 C274 1.387 . S
C278 C279 1.387 . S
C278 H282 0.950 . S
C278 C287 1.390 1_455 S
C279 C278 1.387 . S
C279 C281 1.387 . S
H280 C287 0.950 . S
C281 C279 1.387 . S
C281 C283 1.390 1_455 S
C281 H285 0.950 . S
H282 C278 0.950 . S
C283 C281 1.390 1_655 S
C283 C284 1.387 . S
C283 H286 0.950 . S
C284 C283 1.387 . S
C284 C287 1.387 . S
H285 C281 0.950 . S
H286 C283 0.950 . S
C287 C278 1.390 1_655 S
C287 H280 0.950 . S
C287 C284 1.387 . S
C288 C289 1.387 . S
C288 H292 0.950 . S
C288 C297 1.390 1_565 S
C289 C288 1.387 . S
C289 C291 1.387 . S
H290 C297 0.950 . S
C291 C289 1.387 . S
C291 C293 1.390 1_565 S
C291 H295 0.950 . S
H292 C288 0.950 . S
C293 C291 1.390 1_545 S
C293 C294 1.387 . S
C293 H296 0.950 . S
C294 C293 1.387 . S
C294 C297 1.387 . S
H295 C291 0.950 . S
H296 C293 0.950 . S
C297 C288 1.390 1_545 S
C297 H290 0.950 . S
C297 C294 1.387 . S
C298 C299 1.387 . S
C298 H302 0.950 . S
C298 C307 1.390 . S
C299 C298 1.387 . S
C299 C301 1.387 . S
H300 C307 0.950 . S
C301 C299 1.387 . S
C301 C303 1.390 . S
C301 H305 0.950 . S
H302 C298 0.950 . S
C303 C301 1.390 . S
C303 C304 1.387 . S
C303 H306 0.950 . S
C304 C303 1.387 . S
C304 C307 1.387 . S
H305 C301 0.950 . S
H306 C303 0.950 . S
C307 C298 1.390 . S
C307 H300 0.950 . S
C307 C304 1.387 . S
C308 C309 1.387 . S
C308 H312 0.950 . S
C308 C317 1.390 1_455 S
C309 C308 1.387 . S
C309 C311 1.387 . S
H310 C317 0.950 . S
C311 C309 1.387 . S
C311 C313 1.390 1_455 S
C311 H315 0.950 . S
H312 C308 0.950 . S
C313 C311 1.390 1_655 S
C313 C314 1.387 . S
C313 H316 0.950 . S
C314 C313 1.387 . S
C314 C317 1.387 . S
H315 C311 0.950 . S
H316 C313 0.950 . S
C317 C308 1.390 1_655 S
C317 H310 0.950 . S
C317 C314 1.387 . S
C318 C319 1.387 . S
C318 H322 0.950 . S
C318 C327 1.390 1_655 S
C319 C318 1.387 . S
C319 C321 1.387 . S
H320 C327 0.950 . S
C321 C319 1.387 . S
C321 C323 1.390 1_655 S
C321 H325 0.950 . S
H322 C318 0.950 . S
C323 C321 1.390 1_455 S
C323 C324 1.387 . S
C323 H326 0.950 . S
C324 C323 1.387 . S
C324 C327 1.387 . S
H325 C321 0.950 . S
H326 C323 0.950 . S
C327 C318 1.390 1_455 S
C327 H320 0.950 . S
C327 C324 1.387 . S
C328 C329 1.387 . S
C328 H332 0.950 . S
C328 C337 1.390 1_565 S
C329 C328 1.387 . S
C329 C331 1.387 . S
H330 C337 0.950 . S
C331 C329 1.387 . S
C331 C333 1.390 1_565 S
C331 H335 0.950 . S
H332 C328 0.950 . S
C333 C331 1.390 1_545 S
C333 C334 1.387 . S
C333 H336 0.950 . S
C334 C333 1.387 . S
C334 C337 1.387 . S
H335 C331 0.950 . S
H336 C333 0.950 . S
C337 C328 1.390 1_545 S
C337 H330 0.950 . S
C337 C334 1.387 . S
C338 C339 1.387 . S
C338 H342 0.950 . S
C338 C347 1.390 . S
C339 C338 1.387 . S
C339 C341 1.387 . S
H340 C347 0.950 . S
C341 C339 1.387 . S
C341 C343 1.390 . S
C341 H345 0.950 . S
H342 C338 0.950 . S
C343 C341 1.390 . S
C343 C344 1.387 . S
C343 H346 0.950 . S
C344 C343 1.387 . S
C344 C347 1.387 . S
H345 C341 0.950 . S
H346 C343 0.950 . S
C347 C338 1.390 . S
C347 H340 0.950 . S
C347 C344 1.387 . S
C348 C349 1.387 . S
C348 H352 0.950 . S
C348 C357 1.390 . S
C349 C348 1.387 . S
C349 C351 1.387 . S
H350 C357 0.950 . S
C351 C349 1.387 . S
C351 C353 1.390 . S
C351 H355 0.950 . S
H352 C348 0.950 . S
C353 C351 1.390 . S
C353 C354 1.387 . S
C353 H356 0.950 . S
C354 C353 1.387 . S
C354 C357 1.387 . S
H355 C351 0.950 . S
H356 C353 0.950 . S
C357 C348 1.390 . S
C357 H350 0.950 . S
C357 C354 1.387 . S
C358 C359 1.387 . S
C358 H362 0.950 . S
C358 C367 1.390 . S
C359 C358 1.387 . S
C359 C361 1.387 . S
H360 C367 0.950 . S
C361 C359 1.387 . S
C361 C363 1.390 . S
C361 H365 0.950 . S
H362 C358 0.950 . S
C363 C361 1.390 . S
C363 C364 1.387 . S
C363 H366 0.950 . S
C364 C363 1.387 . S
C364 C367 1.387 . S
H365 C361 0.950 . S
H366 C363 0.950 . S
C367 C358 1.390 . S
C367 H360 0.950 . S
C367 C364 1.387 . S
C368 C369 1.387 . S
C368 H372 0.950 . S
C368 C377 1.390 . S
C369 C368 1.387 . S
C369 C371 1.387 . S
H370 C377 0.950 . S
C371 C369 1.387 . S
C371 C373 1.390 . S
C371 H375 0.950 . S
H372 C368 0.950 . S
C373 C371 1.390 . S
C373 C374 1.387 . S
C373 H376 0.950 . S
C374 C373 1.387 . S
C374 C377 1.387 . S
H375 C371 0.950 . S
H376 C373 0.950 . S
C377 C368 1.390 . S
C377 H370 0.950 . S
C377 C374 1.387 . S
C378 C379 1.387 . S
C378 H382 0.950 . S
C378 C387 1.390 . S
C379 C378 1.387 . S
C379 C381 1.387 . S
H380 C387 0.950 . S
C381 C379 1.387 . S
C381 C383 1.390 . S
C381 H385 0.950 . S
H382 C378 0.950 . S
C383 C381 1.390 . S
C383 C384 1.387 . S
C383 H386 0.950 . S
C384 C383 1.387 . S
C384 C387 1.387 . S
H385 C381 0.950 . S
H386 C383 0.950 . S
C387 C378 1.390 . S
C387 H380 0.950 . S
C387 C384 1.387 . S
C388 C389 1.387 . S
C388 H392 0.950 . S
C388 C397 1.390 . S
C389 C388 1.387 . S
C389 C391 1.387 . S
H390 C397 0.950 . S
C391 C389 1.387 . S
C391 C393 1.390 . S
C391 H395 0.950 . S
H392 C388 0.950 . S
C393 C391 1.390 . S
C393 C394 1.387 . S
C393 H396 0.950 . S
C394 C393 1.387 . S
C394 C397 1.387 . S
H395 C391 0.950 . S
H396 C393 0.950 . S
C397 C388 1.390 . S
C397 H390 0.950 . S
C397 C394 1.387 . S
C398 C399 1.387 . S
C398 H402 0.950 . S
C398 C407 1.390 . S
C399 C398 1.387 . S
C399 C401 1.387 . S
H400 C407 0.950 . S
C401 C399 1.387 . S
C401 C403 1.390 . S
C401 H405 0.950 . S
H402 C398 0.950 . S
C403 C401 1.390 . S
C403 C404 1.387 . S
C403 H406 0.950 . S
C404 C403 1.387 . S
C404 C407 1.387 . S
H405 C401 0.950 . S
H406 C403 0.950 . S
C407 C398 1.390 . S
C407 H400 0.950 . S
C407 C404 1.387 . S
C169 C9 2.525 . S
C174 C149 2.525 . S
C179 C163 2.527 . S
C184 C23 2.525 . S
C189 C93 2.527 . S
C194 C37 2.528 . S
C199 C51 2.525 . S
C204 C107 2.525 . S
C209 C65 2.526 . S
C214 C121 2.525 . S
C219 C135 2.527 . S
C224 C79 2.526 . S
C229 C5 1.117 . S
C234 C103 1.117 . S
C239 C117 1.116 . S
C244 C19 1.119 . S
C249 C131 1.119 . S
C254 C33 1.117 . S
C259 C47 1.117 . S
C264 C145 1.117 . S
C269 C159 1.120 . S
C274 C61 1.118 . S
C279 C75 1.118 . S
C284 C89 1.117 . S
C289 C42 2.758 . S
C294 C0 2.758 . S
C299 C56 2.758 . S
C304 C14 2.758 . S
C309 C70 2.758 . S
C314 C28 2.758 . S
C319 C84 2.756 . S
C324 C126 2.756 . S
C329 C98 2.756 . S
C334 C140 2.756 . S
C339 C112 2.756 . S
C344 C154 2.756 . S
C349 C123 1.390 . S
C354 C11 1.390 . S
C359 C137 1.391 . S
C364 C25 1.391 . S
C369 C151 1.389 . S
C374 C39 1.389 . S
C379 C165 1.390 . S
C384 C53 1.390 . S
C389 C95 1.389 . S
C394 C67 1.389 . S
C399 C81 1.390 . S
C404 C109 1.390 . S
