# Generated by pormake.
# Topology vma, (5)-cn, num edge types: 1
# Building blocks:
#     Node 0, Type 0, BuildingBlock: BEQFEK_clean_sbu_0, # of connection points: 5
#     Node 1, Type 0, BuildingBlock: BEQFEK_clean_sbu_0, # of connection points: 5
#     Node 2, Type 0, BuildingBlock: BEQFEK_clean_sbu_0, # of connection points: 5
#     Node 3, Type 0, BuildingBlock: BEQFEK_clean_sbu_0, # of connection points: 5
#     Node 4, Type 0, BuildingBlock: BEQFEK_clean_sbu_0, # of connection points: 5
#     Node 5, Type 0, BuildingBlock: BEQFEK_clean_sbu_0, # of connection points: 5
#     Node 6, Type 0, BuildingBlock: BEQFEK_clean_sbu_0, # of connection points: 5
#     Node 7, Type 0, BuildingBlock: BEQFEK_clean_sbu_0, # of connection points: 5
#     Edge 8, Type (0, 0), BuildingBlock: XUDNAN_clean_linker_2, # of connection points: 2
#     Edge 9, Type (0, 0), BuildingBlock: XUDNAN_clean_linker_2, # of connection points: 2
#     Edge 10, Type (0, 0), BuildingBlock: XUDNAN_clean_linker_2, # of connection points: 2
#     Edge 11, Type (0, 0), BuildingBlock: XUDNAN_clean_linker_2, # of connection points: 2
#     Edge 12, Type (0, 0), BuildingBlock: XUDNAN_clean_linker_2, # of connection points: 2
#     Edge 13, Type (0, 0), BuildingBlock: XUDNAN_clean_linker_2, # of connection points: 2
#     Edge 14, Type (0, 0), BuildingBlock: XUDNAN_clean_linker_2, # of connection points: 2
#     Edge 15, Type (0, 0), BuildingBlock: XUDNAN_clean_linker_2, # of connection points: 2
#     Edge 16, Type (0, 0), BuildingBlock: XUDNAN_clean_linker_2, # of connection points: 2
#     Edge 17, Type (0, 0), BuildingBlock: XUDNAN_clean_linker_2, # of connection points: 2
#     Edge 18, Type (0, 0), BuildingBlock: XUDNAN_clean_linker_2, # of connection points: 2
#     Edge 19, Type (0, 0), BuildingBlock: XUDNAN_clean_linker_2, # of connection points: 2
#     Edge 20, Type (0, 0), BuildingBlock: XUDNAN_clean_linker_2, # of connection points: 2
#     Edge 21, Type (0, 0), BuildingBlock: XUDNAN_clean_linker_2, # of connection points: 2
#     Edge 22, Type (0, 0), BuildingBlock: XUDNAN_clean_linker_2, # of connection points: 2
#     Edge 23, Type (0, 0), BuildingBlock: XUDNAN_clean_linker_2, # of connection points: 2
#     Edge 24, Type (0, 0), BuildingBlock: XUDNAN_clean_linker_2, # of connection points: 2
#     Edge 25, Type (0, 0), BuildingBlock: XUDNAN_clean_linker_2, # of connection points: 2
#     Edge 26, Type (0, 0), BuildingBlock: XUDNAN_clean_linker_2, # of connection points: 2
#     Edge 27, Type (0, 0), BuildingBlock: XUDNAN_clean_linker_2, # of connection points: 2
# Relax obj value: 0.014
# Max RMSD: 0.085
# Mean RMSD: 0.085
data_MOF--net-vma--node1-BEQFEK_clean_sbu_0--edge1-XUDNAN_clean_linker_2
_symmetry_space_group_name_H-M    P1
_symmetry_Int_Tables_number       1
_symmetry_cell_setting            triclinic
loop_
_symmetry_equiv_pos_as_xyz
'x, y, z'
_cell_length_a     37.358964
_cell_length_b     29.525861
_cell_length_c     42.426261
_cell_angle_alpha  90.002311
_cell_angle_beta   97.621426
_cell_angle_gamma 90.022857
loop_
_atom_site_label
_atom_site_type_symbol
_atom_site_fract_x
_atom_site_fract_y
_atom_site_fract_z
_atom_type_partial_charge
Co0 Co 0.37504 0.10091 0.37239 0.0
Co1 Co 0.32653 0.16953 0.32946 0.0
C2 C 0.40592 0.15988 0.32568 0.0
O3 O 0.40974 0.12832 0.3463 0.0
O4 O 0.37567 0.17936 0.31783 0.0
C5 C 0.43329 0.06638 0.41877 0.0
O6 O 0.4521 0.10122 0.41088 0.0
C7 C 0.30289 0.25894 0.3059 0.0
C8 C 0.25249 0.24314 0.27446 0.0
C9 C 0.27557 0.27866 0.28464 0.0
N10 N 0.2962 0.21436 0.30759 0.0
N11 N 0.26598 0.20511 0.28887 0.0
C12 C 0.3344 0.28111 0.32539 0.0
H13 H 0.34509 0.25909 0.34568 0.0
H14 H 0.32641 0.31432 0.33452 0.0
H15 H 0.35631 0.2863 0.31048 0.0
C16 C 0.34181 0.14915 0.42244 0.0
N17 N 0.34794 0.14489 0.39201 0.0
N18 N 0.3263 0.17248 0.3741 0.0
C19 C 0.30524 0.19464 0.39252 0.0
C20 C 0.31436 0.18054 0.42384 0.0
C21 C 0.36135 0.12264 0.44948 0.0
H22 H 0.39083 0.12549 0.44894 0.0
H23 H 0.35522 0.13513 0.47283 0.0
H24 H 0.35374 0.08638 0.44673 0.0
O25 O 0.34162 0.06129 0.34467 0.0
O26 O 0.30822 0.10974 0.31338 0.0
H27 H 0.25978 0.20916 0.35755 0.0
H28 H 0.25456 0.22815 0.39715 0.0
C29 C 0.27401 0.22404 0.37974 0.0
H30 H 0.28425 0.25792 0.37405 0.0
H31 H 0.25495 0.17273 0.28548 0.0
O32 O 0.40112 0.06083 0.40527 0.0
C33 C 0.31657 0.06936 0.32195 0.0
Co34 Co 0.63179 0.11863 0.14199 0.0
Co35 Co 0.68011 0.18492 0.18821 0.0
C36 C 0.60238 0.16999 0.19434 0.0
O37 O 0.59877 0.14105 0.17192 0.0
O38 O 0.63211 0.19032 0.20248 0.0
C39 C 0.57001 0.10281 0.09793 0.0
O40 O 0.5612 0.14104 0.11076 0.0
C41 C 0.70405 0.27319 0.21559 0.0
C42 C 0.75893 0.25768 0.2393 0.0
C43 C 0.73425 0.29271 0.23325 0.0
N44 N 0.71096 0.22908 0.2111 0.0
N45 N 0.74375 0.22002 0.22547 0.0
C46 C 0.66858 0.2953 0.20418 0.0
H47 H 0.64683 0.26999 0.19921 0.0
H48 H 0.67053 0.31357 0.18164 0.0
H49 H 0.66129 0.3199 0.22206 0.0
C50 C 0.66186 0.17658 0.09405 0.0
N51 N 0.65744 0.16644 0.12434 0.0
N52 N 0.67798 0.19354 0.14369 0.0
C53 C 0.69629 0.2214 0.12637 0.0
C54 C 0.68644 0.21198 0.09437 0.0
C55 C 0.64297 0.15254 0.06553 0.0
H56 H 0.6135 0.15842 0.06417 0.0
H57 H 0.65201 0.16466 0.04314 0.0
H58 H 0.64781 0.11557 0.06808 0.0
O59 O 0.6666 0.07634 0.16638 0.0
O60 O 0.69912 0.12363 0.19967 0.0
H61 H 0.7434 0.26282 0.12218 0.0
H62 H 0.71397 0.28348 0.14928 0.0
C63 C 0.72593 0.25261 0.14016 0.0
H64 H 0.74295 0.23569 0.16009 0.0
H65 H 0.75582 0.18813 0.22575 0.0
O66 O 0.60078 0.08554 0.10734 0.0
C67 C 0.69168 0.08367 0.18934 0.0
Co68 Co 0.62783 0.88664 0.64252 0.0
Co69 Co 0.67891 0.82311 0.68804 0.0
C70 C 0.60072 0.83446 0.69513 0.0
O71 O 0.59601 0.86258 0.67231 0.0
O72 O 0.63113 0.81569 0.70335 0.0
C73 C 0.5663 0.89874 0.59769 0.0
O74 O 0.55871 0.85967 0.61008 0.0
C75 C 0.70567 0.73536 0.71292 0.0
C76 C 0.75887 0.75278 0.73934 0.0
C77 C 0.73585 0.71659 0.73101 0.0
N78 N 0.71101 0.78016 0.71038 0.0
N79 N 0.74279 0.79042 0.72632 0.0
C80 C 0.6716 0.71193 0.69908 0.0
H81 H 0.64904 0.73626 0.69436 0.0
H82 H 0.67558 0.69634 0.67602 0.0
H83 H 0.66433 0.68498 0.71533 0.0
C84 C 0.663 0.83666 0.5946 0.0
N85 N 0.65521 0.84113 0.62457 0.0
N86 N 0.67698 0.81491 0.64349 0.0
C87 C 0.69963 0.79338 0.62618 0.0
C88 C 0.6915 0.8064 0.59457 0.0
C89 C 0.64583 0.86434 0.56711 0.0
H90 H 0.6163 0.85829 0.56377 0.0
H91 H 0.6564 0.85545 0.54468 0.0
H92 H 0.65053 0.90084 0.57236 0.0
O93 O 0.66116 0.93038 0.66669 0.0
O94 O 0.69741 0.88504 0.69867 0.0
H95 H 0.75132 0.76118 0.6228 0.0
H96 H 0.72444 0.73549 0.65015 0.0
C97 C 0.73265 0.76817 0.64045 0.0
H98 H 0.74721 0.78819 0.66024 0.0
H99 H 0.75353 0.82309 0.72826 0.0
O100 O 0.59594 0.91817 0.60804 0.0
C101 C 0.68774 0.92442 0.68848 0.0
Co102 Co 0.37338 0.8999 0.87494 0.0
Co103 Co 0.32008 0.84535 0.82484 0.0
C104 C 0.4008 0.85082 0.82232 0.0
O105 O 0.407 0.87646 0.84653 0.0
O106 O 0.36916 0.83674 0.81221 0.0
C107 C 0.43302 0.92939 0.92344 0.0
O108 O 0.45344 0.899 0.91192 0.0
C109 C 0.29677 0.75829 0.79705 0.0
C110 C 0.24729 0.7749 0.76472 0.0
C111 C 0.27021 0.73913 0.77471 0.0
N112 N 0.28988 0.80274 0.7996 0.0
N113 N 0.26023 0.81251 0.78025 0.0
C114 C 0.32763 0.7354 0.81695 0.0
H115 H 0.33764 0.75644 0.83792 0.0
H116 H 0.31926 0.70176 0.82507 0.0
H117 H 0.35024 0.73101 0.80271 0.0
C118 C 0.3377 0.84455 0.91928 0.0
N119 N 0.34442 0.85389 0.88959 0.0
N120 N 0.32051 0.83289 0.86906 0.0
C121 C 0.29755 0.80982 0.88519 0.0
C122 C 0.30769 0.8165 0.91758 0.0
C123 C 0.35773 0.86544 0.94859 0.0
H124 H 0.38719 0.86255 0.94784 0.0
H125 H 0.35095 0.84872 0.97046 0.0
H126 H 0.35082 0.90195 0.9493 0.0
O127 O 0.34051 0.94475 0.8523 0.0
O128 O 0.30258 0.90915 0.81557 0.0
H129 H 0.244 0.7825 0.88692 0.0
H130 H 0.27061 0.75383 0.86062 0.0
C131 C 0.26371 0.78743 0.86982 0.0
H132 H 0.25119 0.80808 0.84946 0.0
H133 H 0.24907 0.84488 0.77739 0.0
O134 O 0.40017 0.93359 0.91133 0.0
C135 C 0.31412 0.94535 0.82999 0.0
Co136 Co 0.87974 0.62104 0.37298 0.0
Co137 Co 0.82633 0.68446 0.32932 0.0
C138 C 0.90348 0.671 0.31803 0.0
O139 O 0.91127 0.64572 0.34231 0.0
O140 O 0.87194 0.68721 0.31103 0.0
C141 C 0.93957 0.56742 0.40026 0.0
O142 O 0.94659 0.56741 0.37073 0.0
C143 C 0.80209 0.77283 0.30329 0.0
C144 C 0.74655 0.75827 0.2807 0.0
C145 C 0.77175 0.79283 0.28632 0.0
N146 N 0.79485 0.72885 0.30779 0.0
N147 N 0.76164 0.72033 0.29416 0.0
C148 C 0.83806 0.79427 0.31378 0.0
H149 H 0.85952 0.76841 0.31823 0.0
H150 H 0.83708 0.81274 0.3364 0.0
H151 H 0.84499 0.81869 0.29564 0.0
C152 C 0.85285 0.67823 0.4228 0.0
N153 N 0.85486 0.66791 0.39209 0.0
N154 N 0.83253 0.69424 0.37377 0.0
C155 C 0.81539 0.72179 0.39219 0.0
C156 C 0.82794 0.71293 0.42381 0.0
C157 C 0.87378 0.65448 0.45045 0.0
H158 H 0.90292 0.65496 0.44779 0.0
H159 H 0.86977 0.67057 0.47336 0.0
H160 H 0.8651 0.61853 0.45055 0.0
O161 O 0.84419 0.57785 0.34936 0.0
O162 O 0.80619 0.62381 0.3198 0.0
H163 H 0.76817 0.76133 0.39918 0.0
H164 H 0.79472 0.78326 0.37022 0.0
C165 C 0.78431 0.75187 0.38004 0.0
H166 H 0.76641 0.73442 0.36091 0.0
H167 H 0.74932 0.68859 0.29398 0.0
O168 O 0.91142 0.58761 0.40681 0.0
C169 C 0.8163 0.58416 0.32889 0.0
Co170 Co 0.13342 0.60384 0.13761 0.0
Co171 Co 0.17977 0.66749 0.18642 0.0
C172 C 0.09955 0.6532 0.18665 0.0
O173 O 0.09613 0.62887 0.16167 0.0
O174 O 0.1301 0.66862 0.1989 0.0
C175 C 0.07768 0.57017 0.08871 0.0
O176 O 0.05691 0.60118 0.09909 0.0
C177 C 0.20027 0.75656 0.21416 0.0
C178 C 0.25473 0.74271 0.23947 0.0
C179 C 0.22969 0.77706 0.2322 0.0
N180 N 0.20801 0.71252 0.21056 0.0
N181 N 0.24048 0.70442 0.22594 0.0
C182 C 0.16482 0.77768 0.20148 0.0
H183 H 0.14328 0.75177 0.1977 0.0
H184 H 0.16693 0.79373 0.17817 0.0
H185 H 0.15725 0.80402 0.21805 0.0
C186 C 0.16445 0.66385 0.09189 0.0
N187 N 0.16015 0.6514 0.12174 0.0
N188 N 0.18005 0.67772 0.14212 0.0
C189 C 0.19835 0.70704 0.12582 0.0
C190 C 0.18876 0.69962 0.09348 0.0
C191 C 0.14451 0.64282 0.06259 0.0
H192 H 0.11516 0.64307 0.06434 0.0
H193 H 0.14927 0.66116 0.04072 0.0
H194 H 0.1531 0.60702 0.06097 0.0
O195 O 0.16596 0.56251 0.16577 0.0
O196 O 0.20144 0.60816 0.19784 0.0
H197 H 0.24588 0.74823 0.12357 0.0
H198 H 0.21474 0.76948 0.1489 0.0
C199 C 0.2273 0.73837 0.14073 0.0
H200 H 0.24321 0.72179 0.16143 0.0
H201 H 0.25313 0.67285 0.22683 0.0
O202 O 0.11022 0.56627 0.10172 0.0
C203 C 0.19206 0.56869 0.18796 0.0
Co204 Co 0.136 0.39699 0.63754 0.0
Co205 Co 0.18321 0.34037 0.69065 0.0
C206 C 0.10233 0.34844 0.68776 0.0
O207 O 0.09909 0.37153 0.66216 0.0
O208 O 0.13304 0.33538 0.70136 0.0
C209 C 0.08022 0.44375 0.5941 0.0
O210 O 0.06127 0.44497 0.61805 0.0
C211 C 0.20793 0.25698 0.72536 0.0
C212 C 0.25752 0.28097 0.75476 0.0
C213 C 0.23573 0.24323 0.74831 0.0
N214 N 0.21321 0.3008 0.71843 0.0
N215 N 0.24307 0.31476 0.73594 0.0
C216 C 0.17543 0.23013 0.71212 0.0
H217 H 0.15803 0.24989 0.69384 0.0
H218 H 0.18395 0.19832 0.70139 0.0
H219 H 0.15986 0.22071 0.73168 0.0
C220 C 0.17201 0.33491 0.59649 0.0
N221 N 0.16595 0.34967 0.62539 0.0
N222 N 0.18578 0.32588 0.64743 0.0
C223 C 0.20557 0.29577 0.6332 0.0
C224 C 0.19735 0.30033 0.60046 0.0
C225 C 0.15278 0.35257 0.56576 0.0
H226 H 0.12332 0.35372 0.567 0.0
H227 H 0.1577 0.33118 0.54529 0.0
H228 H 0.16213 0.38759 0.562 0.0
O229 O 0.16545 0.44413 0.66345 0.0
O230 O 0.2007 0.40303 0.69897 0.0
H231 H 0.25313 0.25359 0.63451 0.0
H232 H 0.22075 0.23594 0.65993 0.0
C233 C 0.23392 0.26572 0.65047 0.0
H234 H 0.24917 0.2843 0.67063 0.0
H235 H 0.2532 0.34767 0.73552 0.0
O236 O 0.11157 0.42614 0.59804 0.0
C237 C 0.19069 0.44115 0.68679 0.0
Co238 Co 0.88062 0.38548 0.86865 0.0
Co239 Co 0.82627 0.32263 0.82612 0.0
C240 C 0.9038 0.32971 0.81576 0.0
O241 O 0.91119 0.35766 0.83852 0.0
O242 O 0.87227 0.3133 0.80923 0.0
C243 C 0.94487 0.40079 0.91049 0.0
O244 O 0.95345 0.36256 0.89754 0.0
C245 C 0.80048 0.2354 0.8019 0.0
C246 C 0.74909 0.25193 0.77218 0.0
C247 C 0.77253 0.21626 0.78109 0.0
N248 N 0.79387 0.2798 0.80457 0.0
N249 N 0.76308 0.28958 0.78688 0.0
C250 C 0.83269 0.2128 0.82005 0.0
H251 H 0.84395 0.23392 0.84063 0.0
H252 H 0.8253 0.179 0.82863 0.0
H253 H 0.85401 0.20885 0.80438 0.0
C254 C 0.84702 0.33835 0.91913 0.0
N255 N 0.85301 0.34218 0.8886 0.0
N256 N 0.82992 0.31617 0.8708 0.0
C257 C 0.8083 0.2953 0.88934 0.0
C258 C 0.81843 0.30859 0.92068 0.0
C259 C 0.86638 0.36568 0.94585 0.0
H260 H 0.89584 0.35984 0.9471 0.0
H261 H 0.85787 0.3564 0.96907 0.0
H262 H 0.86122 0.40223 0.94114 0.0
O263 O 0.84718 0.42984 0.84412 0.0
O264 O 0.80944 0.38407 0.81407 0.0
H265 H 0.76003 0.28832 0.85623 0.0
H266 H 0.75669 0.26443 0.8949 0.0
C267 C 0.77488 0.26967 0.87658 0.0
H268 H 0.78267 0.23615 0.86789 0.0
H269 H 0.75206 0.32205 0.78428 0.0
O270 O 0.91394 0.41801 0.90171 0.0
C271 C 0.82008 0.4237 0.82278 0.0
H272 H 0.22892 0.33337 0.55053 0.0
H273 H 0.19999 0.2087 0.5948 0.0
H274 H 0.22592 0.16439 0.55376 0.0
H275 H 0.20999 0.29487 0.46878 0.0
H276 H 0.2477 0.32466 0.45609 0.0
H277 H 0.22618 0.34644 0.48852 0.0
H278 H 0.28776 0.34639 0.52475 0.0
H279 H 0.30945 0.32458 0.49246 0.0
H280 H 0.31362 0.29474 0.52983 0.0
H281 H 0.25476 0.13396 0.50814 0.0
H282 H 0.2863 0.119 0.46156 0.0
H283 H 0.29782 0.26339 0.44731 0.0
C284 C 0.22782 0.29674 0.5513 0.0
C285 C 0.21241 0.27421 0.57558 0.0
C286 C 0.21183 0.22635 0.57633 0.0
C287 C 0.22634 0.20102 0.55311 0.0
C288 C 0.24139 0.2242 0.52944 0.0
C289 C 0.24233 0.27096 0.52837 0.0
C290 C 0.26081 0.28745 0.50077 0.0
C291 C 0.2346 0.31498 0.47714 0.0
C292 C 0.29494 0.3149 0.51267 0.0
C293 C 0.27023 0.24264 0.48655 0.0
C294 C 0.25862 0.20661 0.5034 0.0
C295 C 0.26415 0.16187 0.49487 0.0
C296 C 0.28223 0.1537 0.46854 0.0
C297 C 0.29483 0.19006 0.45125 0.0
C298 C 0.28847 0.23506 0.46024 0.0
H299 H 0.72056 0.17195 0.04809 0.0
H300 H 0.68609 0.30172 0.08105 0.0
H301 H 0.71544 0.34057 0.03959 0.0
H302 H 0.80667 0.20733 0.03199 0.0
H303 H 0.80688 0.17338 0.9967 0.0
H304 H 0.78119 0.15532 0.02747 0.0
H305 H 0.72318 0.15147 0.98664 0.0
H306 H 0.74879 0.16905 0.95564 0.0
H307 H 0.70936 0.20056 0.96283 0.0
H308 H 0.75083 0.3654 0.99662 0.0
H309 H 0.78823 0.37468 0.95313 0.0
H310 H 0.79997 0.22898 0.94759 0.0
C311 C 0.71855 0.20844 0.04599 0.0
C312 C 0.7008 0.23403 0.06737 0.0
C313 C 0.69943 0.28174 0.06464 0.0
C314 C 0.71602 0.304 0.04125 0.0
C315 C 0.73381 0.27795 0.02077 0.0
C316 C 0.73498 0.23122 0.0227 0.0
C317 C 0.75686 0.21146 0.99833 0.0
C318 C 0.78985 0.18534 0.01461 0.0
C319 C 0.73313 0.18136 0.97444 0.0
C320 C 0.76811 0.2544 0.98269 0.0
C321 C 0.75447 0.29235 0.99602 0.0
C322 C 0.7616 0.33596 0.98596 0.0
C323 C 0.78305 0.34093 0.96147 0.0
C324 C 0.7972 0.30257 0.94744 0.0
C325 C 0.78953 0.25879 0.95813 0.0
H326 H 0.7115 0.72707 0.56824 0.0
H327 H 0.72489 0.87273 0.56494 0.0
H328 H 0.76487 0.86397 0.52335 0.0
H329 H 0.80378 0.69826 0.55633 0.0
H330 H 0.79044 0.64968 0.53182 0.0
H331 H 0.76361 0.66711 0.56199 0.0
H332 H 0.70703 0.67265 0.51962 0.0
H333 H 0.73361 0.65489 0.48942 0.0
H334 H 0.70869 0.70726 0.48483 0.0
H335 H 0.80088 0.83999 0.48078 0.0
H336 H 0.82983 0.80206 0.4387 0.0
H337 H 0.79489 0.67163 0.47009 0.0
C338 C 0.72297 0.75696 0.55867 0.0
C339 C 0.71487 0.8006 0.56931 0.0
C340 C 0.73037 0.83909 0.55658 0.0
C341 C 0.7533 0.83441 0.5332 0.0
C342 C 0.7607 0.79095 0.52305 0.0
C343 C 0.74605 0.75284 0.53532 0.0
C344 C 0.75767 0.71016 0.51957 0.0
C345 C 0.78022 0.6795 0.54388 0.0
C346 C 0.72479 0.68476 0.50234 0.0
C347 C 0.78066 0.73031 0.4962 0.0
C348 C 0.78219 0.77698 0.4988 0.0
C349 C 0.80026 0.80346 0.47876 0.0
C350 C 0.81665 0.78173 0.45505 0.0
C351 C 0.81495 0.73413 0.45169 0.0
C352 C 0.79721 0.70803 0.47279 0.0
H353 H 0.28784 0.7338 0.93905 0.0
H354 H 0.27895 0.87827 0.95423 0.0
H355 H 0.24466 0.86386 0.9992 0.0
H356 H 0.19857 0.70296 0.95941 0.0
H357 H 0.21443 0.65143 0.97935 0.0
H358 H 0.2364 0.67298 0.94709 0.0
H359 H 0.29778 0.67305 0.98359 0.0
H360 H 0.27603 0.65149 0.01591 0.0
H361 H 0.30191 0.70314 0.02088 0.0
H362 H 0.21399 0.83422 0.04362 0.0
H363 H 0.18908 0.79079 0.08556 0.0
H364 H 0.21834 0.66521 0.04263 0.0
C365 C 0.27826 0.7622 0.95175 0.0
C366 C 0.28599 0.8071 0.9435 0.0
C367 C 0.27342 0.84366 0.96055 0.0
C368 C 0.25383 0.8358 0.98595 0.0
C369 C 0.24702 0.79115 0.9939 0.0
C370 C 0.25879 0.7549 0.97737 0.0
C371 C 0.2491 0.71028 0.9918 0.0
C372 C 0.22307 0.68279 0.96799 0.0
C373 C 0.28324 0.68289 1.00376 0.0
C374 C 0.23048 0.72718 0.0192 0.0
C375 C 0.22937 0.77395 0.01979 0.0
C376 C 0.21448 0.79758 0.04332 0.0
C377 C 0.20054 0.77273 0.06705 0.0
C378 C 0.20169 0.72486 0.06709 0.0
C379 C 0.21665 0.70182 0.04276 0.0
H380 H 0.5601 0.10704 0.21825 0.0
H381 H 0.5783 0.25162 0.21285 0.0
H382 H 0.52955 0.26548 0.24606 0.0
H383 H 0.4634 0.10905 0.21824 0.0
H384 H 0.46382 0.06413 0.24706 0.0
H385 H 0.49811 0.06628 0.221 0.0
H386 H 0.54767 0.0653 0.26993 0.0
H387 H 0.51353 0.06355 0.29615 0.0
H388 H 0.54712 0.10775 0.30041 0.0
H389 H 0.47682 0.263 0.27803 0.0
H390 H 0.42818 0.24421 0.3104 0.0
H391 H 0.4502 0.10124 0.3002 0.0
C392 C 0.55335 0.14159 0.22372 0.0
C393 C 0.57224 0.1784 0.21263 0.0
C394 C 0.56369 0.22313 0.22096 0.0
C395 C 0.53613 0.23125 0.23976 0.0
C396 C 0.51816 0.19415 0.25063 0.0
C397 C 0.52676 0.15019 0.24326 0.0
C398 C 0.50505 0.1162 0.25956 0.0
C399 C 0.48118 0.08722 0.235 0.0
C400 C 0.52983 0.08646 0.2829 0.0
C401 C 0.48259 0.14786 0.27699 0.0
C402 C 0.49011 0.19271 0.27117 0.0
C403 C 0.47112 0.22803 0.28318 0.0
C404 C 0.44366 0.21714 0.30151 0.0
C405 C 0.43622 0.17144 0.30826 0.0
C406 C 0.45614 0.1365 0.29605 0.0
H407 H 0.55879 0.89808 0.7181 0.0
H408 H 0.57693 0.75328 0.71555 0.0
H409 H 0.5268 0.74095 0.74767 0.0
H410 H 0.5425 0.90031 0.79983 0.0
H411 H 0.50933 0.94484 0.79355 0.0
H412 H 0.54493 0.9416 0.76887 0.0
H413 H 0.49742 0.9397 0.71847 0.0
H414 H 0.46167 0.94302 0.74297 0.0
H415 H 0.46247 0.89719 0.715 0.0
H416 H 0.4719 0.74523 0.77737 0.0
H417 H 0.42194 0.7659 0.80785 0.0
H418 H 0.44563 0.90808 0.7963 0.0
C419 C 0.55192 0.86377 0.72412 0.0
C420 C 0.57103 0.82647 0.71403 0.0
C421 C 0.5622 0.78213 0.72295 0.0
C422 C 0.53383 0.7749 0.74108 0.0
C423 C 0.51541 0.81253 0.7507 0.0
C424 C 0.52458 0.85613 0.74299 0.0
C425 C 0.5022 0.89096 0.75777 0.0
C426 C 0.52617 0.9212 0.78141 0.0
C427 C 0.4796 0.91938 0.73201 0.0
C428 C 0.47858 0.86022 0.77471 0.0
C429 C 0.48614 0.81506 0.76994 0.0
C430 C 0.46619 0.78045 0.7817 0.0
C431 C 0.43794 0.7924 0.79888 0.0
C432 C 0.43069 0.83841 0.80474 0.0
C433 C 0.45133 0.87264 0.79264 0.0
H434 H 0.09222 0.64586 0.24963 0.0
H435 H 0.03436 0.68192 0.15769 0.0
H436 H 0.97951 0.69752 0.18283 0.0
H437 H 0.01922 0.58496 0.275 0.0
H438 H 0.02902 0.60127 0.31619 0.0
H439 H 0.06487 0.59835 0.2918 0.0
H440 H 0.08199 0.68167 0.30586 0.0
H441 H 0.04608 0.68486 0.33026 0.0
H442 H 0.04809 0.72523 0.29867 0.0
H443 H 0.93133 0.70807 0.21741 0.0
H444 H 0.88978 0.70372 0.2576 0.0
H445 H 0.97694 0.65379 0.32689 0.0
C446 C 0.06808 0.65779 0.23501 0.0
C447 C 0.06738 0.6635 0.20189 0.0
C448 C 0.03525 0.67775 0.18315 0.0
C449 C 0.00415 0.68687 0.19724 0.0
C450 C 0.00557 0.68069 0.22997 0.0
C451 C 0.03648 0.66579 0.24858 0.0
C452 C 0.02962 0.65754 0.28258 0.0
C453 C 0.03606 0.60756 0.29193 0.0
C454 C 0.05283 0.68923 0.30571 0.0
C455 C 0.98995 0.66981 0.28008 0.0
C456 C 0.97693 0.684 0.24966 0.0
C457 C 0.94116 0.69697 0.2413 0.0
C458 C 0.91779 0.69446 0.26441 0.0
C459 C 0.93001 0.67825 0.29546 0.0
C460 C 0.96676 0.6663 0.30342 0.0
H461 H 0.09416 0.35171 0.75074 0.0
H462 H 0.03697 0.32174 0.65737 0.0
H463 H 0.98163 0.30503 0.68151 0.0
H464 H 0.04803 0.26969 0.79688 0.0
H465 H 0.04634 0.30829 0.82957 0.0
H466 H 0.08271 0.31202 0.80568 0.0
H467 H 0.06738 0.39645 0.79393 0.0
H468 H 0.03113 0.393 0.81784 0.0
H469 H 0.02214 0.41182 0.77714 0.0
H470 H 0.9326 0.29332 0.71537 0.0
H471 H 0.89034 0.29782 0.75508 0.0
H472 H 0.97763 0.34261 0.82616 0.0
C473 C 0.0701 0.34079 0.73555 0.0
C474 C 0.06976 0.33721 0.70231 0.0
C475 C 0.03766 0.3243 0.68292 0.0
C476 C 0.00626 0.3145 0.69644 0.0
C477 C 0.00734 0.31858 0.7293 0.0
C478 C 0.03824 0.33212 0.74857 0.0
C479 C 0.03106 0.33864 0.78265 0.0
C480 C 0.05336 0.30516 0.80501 0.0
C481 C 0.03835 0.38791 0.79351 0.0
C482 C 0.99115 0.3274 0.7794 0.0
C483 C 0.97832 0.31475 0.74859 0.0
C484 C 0.94232 0.30314 0.73957 0.0
C485 C 0.91855 0.30565 0.7624 0.0
C486 C 0.93063 0.32067 0.79376 0.0
C487 C 0.9676 0.33098 0.80241 0.0
H488 H 0.2702 0.80953 0.2855 0.0
H489 H 0.20473 0.85365 0.19878 0.0
H490 H 0.21652 0.93313 0.21416 0.0
H491 H 0.2469 0.90041 0.337 0.0
H492 H 0.29212 0.90477 0.35771 0.0
H493 H 0.27574 0.85125 0.34122 0.0
H494 H 0.33017 0.8465 0.30928 0.0
H495 H 0.34666 0.89999 0.32561 0.0
H496 H 0.3384 0.89236 0.28311 0.0
H497 H 0.23744 0.00814 0.23808 0.0
H498 H 0.26771 0.07258 0.26767 0.0
H499 H 0.32197 0.97915 0.33735 0.0
C500 C 0.25795 0.8359 0.26992 0.0
C501 C 0.23537 0.82517 0.24151 0.0
C502 C 0.22056 0.86071 0.22143 0.0
C503 C 0.22752 0.90613 0.22978 0.0
C504 C 0.24969 0.91545 0.25807 0.0
C505 C 0.26485 0.88133 0.27776 0.0
C506 C 0.28938 0.90028 0.30592 0.0
C507 C 0.27517 0.88848 0.33732 0.0
C508 C 0.32846 0.88381 0.30596 0.0
C509 C 0.28595 0.95041 0.29883 0.0
C510 C 0.26271 0.95852 0.27128 0.0
C511 C 0.25563 1.00223 0.25974 0.0
C512 C 0.27295 0.0386 0.27673 0.0
C513 C 0.29729 0.03098 0.30482 0.0
C514 C 0.30359 0.98621 0.31596 0.0
H515 H 0.68331 0.99272 0.17557 0.0
H516 H 0.74361 0.08683 0.24125 0.0
H517 H 0.77209 0.0227 0.27203 0.0
H518 H 0.66499 0.9125 0.23276 0.0
H519 H 0.67039 0.86357 0.20843 0.0
H520 H 0.6563 0.91672 0.19004 0.0
H521 H 0.70996 0.9142 0.15713 0.0
H522 H 0.72408 0.86081 0.17525 0.0
H523 H 0.75526 0.90765 0.1773 0.0
H524 H 0.78966 0.94913 0.29853 0.0
H525 H 0.79865 0.87057 0.31689 0.0
H526 H 0.72984 0.82333 0.23282 0.0
C527 C 0.70287 0.99991 0.19616 0.0
C528 C 0.71114 0.04494 0.20594 0.0
C529 C 0.73678 0.05273 0.23317 0.0
C530 C 0.75313 0.0165 0.25089 0.0
C531 C 0.74384 0.97264 0.24096 0.0
C532 C 0.71963 0.96411 0.21407 0.0
C533 C 0.71375 0.91368 0.20909 0.0
C534 C 0.674 0.90089 0.21016 0.0
C535 C 0.72653 0.89818 0.17784 0.0
C536 C 0.73796 0.89532 0.23771 0.0
C537 C 0.75504 0.92993 0.25574 0.0
C538 C 0.77727 0.92162 0.28415 0.0
C539 C 0.7826 0.87665 0.29421 0.0
C540 C 0.76625 0.84044 0.27567 0.0
C541 C 0.74328 0.85018 0.24724 0.0
H542 H 0.66044 0.00839 0.69793 0.0
H543 H 0.75919 0.92947 0.71201 0.0
H544 H 0.79221 0.9959 0.73674 0.0
H545 H 0.69965 0.11558 0.68078 0.0
H546 H 0.67037 0.14813 0.70263 0.0
H547 H 0.655 0.09506 0.68475 0.0
H548 H 0.64122 0.06589 0.7395 0.0
H549 H 0.6566 0.11883 0.75756 0.0
H550 H 0.67647 0.06635 0.77293 0.0
H551 H 0.81472 0.07199 0.75718 0.0
H552 H 0.82451 0.14959 0.77654 0.0
H553 H 0.70951 0.17643 0.75509 0.0
C554 C 0.68908 0.0053 0.70597 0.0
C555 C 0.70747 0.96414 0.7028 0.0
C556 C 0.74474 0.96088 0.71419 0.0
C557 C 0.76368 0.99837 0.72816 0.0
C558 C 0.74473 0.03848 0.73104 0.0
C559 C 0.70819 0.04202 0.72063 0.0
C560 C 0.69388 0.08828 0.72794 0.0
C561 C 0.67885 0.11323 0.69719 0.0
C562 C 0.66536 0.0846 0.75085 0.0
C563 C 0.72817 0.11032 0.74386 0.0
C564 C 0.75722 0.08121 0.74507 0.0
C565 C 0.792 0.09471 0.75722 0.0
C566 C 0.79718 0.139 0.7688 0.0
C567 C 0.76758 0.16904 0.76905 0.0
C568 C 0.73271 0.15426 0.75599 0.0
H569 H 0.23793 0.15696 0.7236 0.0
H570 H 0.24629 0.23236 0.81196 0.0
H571 H 0.26039 0.16181 0.84218 0.0
H572 H 0.19999 0.05028 0.75393 0.0
H573 H 0.22617 0.01461 0.73118 0.0
H574 H 0.21172 0.06979 0.71636 0.0
H575 H 0.27806 0.09098 0.71165 0.0
H576 H 0.29272 0.03607 0.72659 0.0
H577 H 0.31169 0.08648 0.74616 0.0
H578 H 0.27962 0.08684 0.86253 0.0
H579 H 0.30407 0.01019 0.8726 0.0
H580 H 0.28386 0.98019 0.77165 0.0
C581 C 0.24154 0.15815 0.74933 0.0
C582 C 0.24035 0.19981 0.76562 0.0
C583 C 0.24678 0.20063 0.79919 0.0
C584 C 0.25465 0.16075 0.81652 0.0
C585 C 0.25618 0.12029 0.79988 0.0
C586 C 0.2498 0.11844 0.76707 0.0
C587 C 0.25654 0.07096 0.75524 0.0
C588 C 0.22151 0.05018 0.73817 0.0
C589 C 0.28654 0.07116 0.73364 0.0
C590 C 0.26867 0.04691 0.7865 0.0
C591 C 0.26778 0.07615 0.81186 0.0
C592 C 0.27996 0.06339 0.84296 0.0
C593 C 0.29398 0.01983 0.8484 0.0
C594 C 0.29571 0.98924 0.82293 0.0
C595 C 0.28223 1.00265 0.79159 0.0
H596 H 0.82646 0.49303 0.34237 0.0
H597 H 0.76202 0.58638 0.27905 0.0
H598 H 0.73313 0.5221 0.24894 0.0
H599 H 0.84241 0.41301 0.28408 0.0
H600 H 0.83838 0.36382 0.30853 0.0
H601 H 0.85294 0.41697 0.32671 0.0
H602 H 0.8011 0.41364 0.36161 0.0
H603 H 0.78654 0.36025 0.34372 0.0
H604 H 0.7552 0.40677 0.34291 0.0
H605 H 0.71617 0.44916 0.22209 0.0
H606 H 0.70711 0.37104 0.20334 0.0
H607 H 0.77803 0.32305 0.28595 0.0
C608 C 0.80592 0.49994 0.32246 0.0
C609 C 0.79665 0.5449 0.31313 0.0
C610 C 0.76966 0.55238 0.28681 0.0
C611 C 0.75307 0.51606 0.26944 0.0
C612 C 0.76334 0.47233 0.27883 0.0
C613 C 0.78869 0.46396 0.30497 0.0
C614 C 0.795 0.41349 0.30955 0.0
C615 C 0.83453 0.40112 0.30706 0.0
C616 C 0.78378 0.39761 0.34134 0.0
C617 C 0.76973 0.39507 0.28155 0.0
C618 C 0.7519 0.42969 0.26414 0.0
C619 C 0.72897 0.42157 0.23611 0.0
C620 C 0.72354 0.37673 0.22586 0.0
C621 C 0.74025 0.34034 0.24395 0.0
C622 C 0.7641 0.34995 0.27195 0.0
H623 H 0.16516 0.48401 0.19644 0.0
H624 H 0.26262 0.56506 0.21446 0.0
H625 H 0.29511 0.49973 0.24119 0.0
H626 H 0.17742 0.42727 0.27206 0.0
H627 H 0.15911 0.37419 0.2563 0.0
H628 H 0.14404 0.42657 0.23723 0.0
H629 H 0.16171 0.39713 0.18383 0.0
H630 H 0.17671 0.3446 0.20271 0.0
H631 H 0.20712 0.37747 0.18222 0.0
H632 H 0.31741 0.42446 0.26368 0.0
H633 H 0.32712 0.3471 0.28369 0.0
H634 H 0.21327 0.31755 0.25631 0.0
C635 C 0.19343 0.48779 0.20575 0.0
C636 C 0.21157 0.5293 0.20314 0.0
C637 C 0.24833 0.5334 0.21618 0.0
C638 C 0.26698 0.49653 0.23133 0.0
C639 C 0.24827 0.45612 0.2337 0.0
C640 C 0.21223 0.45167 0.22157 0.0
C641 C 0.19802 0.40519 0.22848 0.0
C642 C 0.16787 0.40853 0.24979 0.0
C643 C 0.18514 0.37959 0.19746 0.0
C644 C 0.23181 0.38406 0.24609 0.0
C645 C 0.26054 0.41382 0.24862 0.0
C646 C 0.2949 0.40118 0.26259 0.0
C647 C 0.3 0.35699 0.27448 0.0
C648 C 0.2707 0.32616 0.27306 0.0
C649 C 0.23624 0.34024 0.25842 0.0
H650 H 0.16219 0.52649 0.69141 0.0
H651 H 0.26095 0.44877 0.71289 0.0
H652 H 0.29247 0.51682 0.73635 0.0
H653 H 0.20296 0.6331 0.67278 0.0
H654 H 0.17217 0.66717 0.69199 0.0
H655 H 0.15779 0.6131 0.67513 0.0
H656 H 0.14043 0.58751 0.72952 0.0
H657 H 0.1548 0.64145 0.74655 0.0
H658 H 0.17376 0.58988 0.76434 0.0
H659 H 0.31381 0.59374 0.75536 0.0
H660 H 0.32253 0.67204 0.77346 0.0
H661 H 0.20832 0.69865 0.74574 0.0
C662 C 0.19054 0.52403 0.70076 0.0
C663 C 0.20929 0.48253 0.70006 0.0
C664 C 0.24615 0.48029 0.71314 0.0
C665 C 0.26429 0.51876 0.72641 0.0
C666 C 0.24505 0.55909 0.72693 0.0
C667 C 0.2089 0.56194 0.71482 0.0
C668 C 0.19415 0.60885 0.72001 0.0
C669 C 0.181 0.63191 0.68807 0.0
C670 C 0.164 0.60678 0.74138 0.0
C671 C 0.2277 0.63185 0.73682 0.0
C672 C 0.25679 0.60267 0.74016 0.0
C673 C 0.29099 0.61659 0.75368 0.0
C674 C 0.29553 0.66134 0.76454 0.0
C675 C 0.26582 0.69158 0.76278 0.0
C676 C 0.23157 0.67642 0.74819 0.0
H677 H 0.77737 0.68514 0.78451 0.0
H678 H 0.71387 0.63927 0.69719 0.0
H679 H 0.72509 0.56034 0.71351 0.0
H680 H 0.84588 0.60024 0.78365 0.0
H681 H 0.85335 0.59365 0.82626 0.0
H682 H 0.83785 0.64706 0.80907 0.0
H683 H 0.7829 0.64449 0.84043 0.0
H684 H 0.79817 0.59096 0.85763 0.0
H685 H 0.75327 0.59602 0.83635 0.0
H686 H 0.74298 0.48653 0.73879 0.0
H687 H 0.77114 0.42189 0.76904 0.0
H688 H 0.82742 0.51441 0.83839 0.0
C689 C 0.76559 0.65849 0.76892 0.0
C690 C 0.7432 0.66869 0.74023 0.0
C691 C 0.72918 0.63278 0.72013 0.0
C692 C 0.73587 0.58759 0.729 0.0
C693 C 0.75731 0.57879 0.75772 0.0
C694 C 0.77244 0.61312 0.7772 0.0
C695 C 0.79632 0.59421 0.80588 0.0
C696 C 0.83568 0.60971 0.80622 0.0
C697 C 0.78178 0.6072 0.83691 0.0
C698 C 0.79228 0.54387 0.79934 0.0
C699 C 0.7693 0.53587 0.77161 0.0
C700 C 0.76111 0.49229 0.76051 0.0
C701 C 0.77722 0.45577 0.77797 0.0
C702 C 0.80162 0.46299 0.80611 0.0
C703 C 0.80899 0.50775 0.81698 0.0
H704 H 0.49897 0.07171 0.45683 0.0
H705 H 0.40129 0.99062 0.43923 0.0
H706 H 0.42492 0.93945 0.48292 0.0
H707 H 0.56079 0.97842 0.47624 0.0
H708 H 0.58871 0.00903 0.50703 0.0
H709 H 0.56447 0.03918 0.47396 0.0
H710 H 0.53424 0.08933 0.51303 0.0
H711 H 0.5583 0.05924 0.54622 0.0
H712 H 0.50973 0.06285 0.54194 0.0
H713 H 0.45837 0.89744 0.52845 0.0
H714 H 0.49998 0.86661 0.57316 0.0
H715 H 0.57618 0.97475 0.56201 0.0
C716 C 0.48262 0.04308 0.46205 0.0
C717 C 0.44828 0.03517 0.44451 0.0
C718 C 0.42768 0.99741 0.45226 0.0
C719 C 0.44085 0.96811 0.47706 0.0
C720 C 0.47465 0.97699 0.49396 0.0
C721 C 0.49533 0.01346 0.48684 0.0
C722 C 0.53065 0.01542 0.50903 0.0
C723 C 0.56307 0.01019 0.49045 0.0
C724 C 0.53337 0.05932 0.52872 0.0
C725 C 0.5265 0.97437 0.52971 0.0
C726 C 0.49399 0.95274 0.52052 0.0
C727 C 0.48393 0.91403 0.53588 0.0
C728 C 0.50779 0.8968 0.56128 0.0
C729 C 0.54134 0.91826 0.57116 0.0
C730 C 0.55069 0.95766 0.55512 0.0
H731 H 0.58166 0.02989 0.0596 0.0
H732 H 0.50007 0.12687 0.0793 0.0
H733 H 0.45659 0.09224 0.0376 0.0
H734 H 0.55686 0.02819 0.97464 0.0
H735 H 0.56513 0.96845 0.97065 0.0
H736 H 0.59004 1.00005 1.00266 0.0
H737 H 0.56894 0.94416 0.04352 0.0
H738 H 0.54395 0.91239 0.01163 0.0
H739 H 0.52133 0.93407 0.04345 0.0
H740 H 0.42178 0.04792 0.99421 0.0
H741 H 0.39783 0.99726 0.95038 0.0
H742 H 0.50157 0.9289 0.95731 0.0
C743 C 0.5546 0.04368 0.05521 0.0
C744 C 0.5443 0.08109 0.07283 0.0
C745 C 0.50869 0.09832 0.06617 0.0
C746 C 0.48371 0.07883 0.04254 0.0
C747 C 0.49467 0.04214 0.0256 0.0
C748 C 0.52924 0.02471 0.03148 0.0
C749 C 0.534 0.98548 0.00928 0.0
C750 C 0.56324 0.9962 0.98805 0.0
C751 C 0.54255 0.94142 0.0281 0.0
C752 C 0.49674 0.98375 0.99006 0.0
C753 C 0.47452 0.01669 1.00005 0.0
C754 C 0.43889 0.02199 0.98613 0.0
C755 C 0.42555 0.99298 0.96121 0.0
C756 C 0.44778 0.95908 0.95027 0.0
C757 C 0.48387 0.95447 0.96504 0.0
H758 H 0.01476 0.48627 0.57697 0.0
H759 H 0.11076 0.43988 0.53901 0.0
H760 H 0.08487 0.46574 0.48566 0.0
H761 H 0.95076 0.45492 0.50976 0.0
H762 H 0.92262 0.50409 0.51197 0.0
H763 H 0.94862 0.4822 0.54748 0.0
H764 H 0.97869 0.5607 0.55857 0.0
H765 H 0.95269 0.58286 0.52313 0.0
H766 H 1.00125 0.5872 0.52836 0.0
H767 H 0.04845 0.49504 0.43626 0.0
H768 H 0.00473 0.52878 0.3942 0.0
H769 H 0.93247 0.55783 0.46384 0.0
C770 C 0.03039 0.48164 0.55747 0.0
C771 C 0.06482 0.46085 0.56227 0.0
C772 C 0.08436 0.45558 0.53605 0.0
C773 C 0.06986 0.47015 0.50558 0.0
C774 C 0.03583 0.49017 0.50164 0.0
C775 C 0.01638 0.49623 0.52684 0.0
C776 C 0.98047 0.51909 0.51603 0.0
C777 C 0.94875 0.48822 0.52164 0.0
C778 C 0.97816 0.5652 0.5325 0.0
C779 C 0.98278 0.52475 0.48083 0.0
C780 C 0.01491 0.50768 0.47307 0.0
C781 C 0.02322 0.50864 0.44204 0.0
C782 C 0.99814 0.52782 0.41829 0.0
C783 C 0.96513 0.54599 0.42565 0.0
C784 C 0.95744 0.54426 0.45741 0.0
H785 H 0.01004 0.57059 0.05378 0.0
H786 H 0.11411 0.50293 0.06212 0.0
H787 H 0.09154 0.45345 0.01706 0.0
H788 H 0.95572 0.47161 0.03422 0.0
H789 H 0.92296 0.50051 0.00626 0.0
H790 H 0.94729 0.53117 0.03904 0.0
H791 H 0.96926 0.58871 0.99966 0.0
H792 H 0.94502 0.5582 0.96675 0.0
H793 H 0.99274 0.56851 0.96793 0.0
H794 H 0.05782 0.41053 0.97191 0.0
H795 H 0.01502 0.37692 0.92908 0.0
H796 H 0.93272 0.47256 0.94927 0.0
C797 C 0.02811 0.5454 0.04613 0.0
C798 C 0.06386 0.54064 0.06157 0.0
C799 C 0.08661 0.50725 0.05075 0.0
C800 C 0.07406 0.47897 0.02513 0.0
C801 C 0.03872 0.48451 0.01049 0.0
C802 C 0.01604 0.51688 0.02051 0.0
C803 C 0.97918 0.51555 1.00063 0.0
C804 C 0.94954 0.50401 0.02127 0.0
C805 C 0.97109 0.56041 0.98268 0.0
C806 C 0.9847 0.47723 0.978 0.0
C807 C 0.01926 0.45986 0.98415 0.0
C808 C 0.03071 0.4239 0.96678 0.0
C809 C 0.00615 0.40501 0.94251 0.0
C810 C 0.97053 0.42215 0.93574 0.0
C811 C 0.95982 0.4589 0.95372 0.0
loop_
_geom_bond_atom_site_label_1
_geom_bond_atom_site_label_2
_geom_bond_distance
_geom_bond_site_symmetry_2
_ccdc_geom_bond_type
Co0 O3 1.970 . S
Co0 N17 1.989 . S
Co0 O25 1.967 . S
Co0 O32 1.920 . S
Co1 O4 1.966 . S
Co1 N10 2.022 . S
Co1 N18 1.993 . S
Co1 O26 1.941 . S
C2 O3 1.258 . S
C2 O4 1.263 . S
O3 Co0 1.970 . S
O3 C2 1.258 . S
O4 Co1 1.966 . S
O4 C2 1.263 . S
C5 O6 1.235 . S
C5 O32 1.289 . S
O6 C5 1.235 . S
C7 C9 1.400 . S
C7 N10 1.351 . S
C7 C12 1.501 . S
C8 C9 1.387 . S
C8 N11 1.341 . S
C9 C7 1.400 . S
C9 C8 1.387 . S
N10 Co1 2.022 . S
N10 C7 1.351 . S
N10 N11 1.365 . S
N11 C8 1.341 . S
N11 N10 1.365 . S
N11 H31 0.862 . S
C12 C7 1.501 . S
C12 H13 0.961 . S
C12 H14 0.961 . S
C12 H15 0.960 . S
H13 C12 0.961 . S
H14 C12 0.961 . S
H15 C12 0.960 . S
C16 N17 1.342 . S
C16 C20 1.401 . S
C16 C21 1.499 . S
N17 Co0 1.989 . S
N17 C16 1.342 . S
N17 N18 1.388 . S
N18 Co1 1.993 . S
N18 N17 1.388 . S
N18 C19 1.346 . S
C19 N18 1.346 . S
C19 C20 1.396 . S
C19 C29 1.510 . S
C20 C16 1.401 . S
C20 C19 1.396 . S
C21 C16 1.499 . S
C21 H22 0.959 . S
C21 H23 0.960 . S
C21 H24 0.961 . S
H22 C21 0.959 . S
H23 C21 0.960 . S
H24 C21 0.961 . S
O25 Co0 1.967 . S
O25 C33 1.258 . S
O26 Co1 1.941 . S
O26 C33 1.266 . S
H27 C29 0.959 . S
H28 C29 0.961 . S
C29 C19 1.510 . S
C29 H27 0.959 . S
C29 H28 0.961 . S
C29 H30 0.960 . S
H30 C29 0.960 . S
H31 N11 0.862 . S
O32 Co0 1.920 . S
O32 C5 1.289 . S
C33 O25 1.258 . S
C33 O26 1.266 . S
Co34 O37 1.970 . S
Co34 N51 1.989 . S
Co34 O59 1.967 . S
Co34 O66 1.920 . S
Co35 O38 1.966 . S
Co35 N44 2.022 . S
Co35 N52 1.993 . S
Co35 O60 1.941 . S
C36 O37 1.258 . S
C36 O38 1.263 . S
O37 Co34 1.970 . S
O37 C36 1.258 . S
O38 Co35 1.966 . S
O38 C36 1.263 . S
C39 O40 1.235 . S
C39 O66 1.289 . S
O40 C39 1.235 . S
C41 C43 1.400 . S
C41 N44 1.351 . S
C41 C46 1.501 . S
C42 C43 1.387 . S
C42 N45 1.341 . S
C43 C41 1.400 . S
C43 C42 1.387 . S
N44 Co35 2.022 . S
N44 C41 1.351 . S
N44 N45 1.365 . S
N45 C42 1.341 . S
N45 N44 1.365 . S
N45 H65 0.862 . S
C46 C41 1.501 . S
C46 H47 0.961 . S
C46 H48 0.961 . S
C46 H49 0.960 . S
H47 C46 0.961 . S
H48 C46 0.961 . S
H49 C46 0.960 . S
C50 N51 1.342 . S
C50 C54 1.401 . S
C50 C55 1.499 . S
N51 Co34 1.989 . S
N51 C50 1.342 . S
N51 N52 1.388 . S
N52 Co35 1.993 . S
N52 N51 1.388 . S
N52 C53 1.346 . S
C53 N52 1.346 . S
C53 C54 1.396 . S
C53 C63 1.510 . S
C54 C50 1.401 . S
C54 C53 1.396 . S
C55 C50 1.499 . S
C55 H56 0.959 . S
C55 H57 0.960 . S
C55 H58 0.961 . S
H56 C55 0.959 . S
H57 C55 0.960 . S
H58 C55 0.961 . S
O59 Co34 1.967 . S
O59 C67 1.258 . S
O60 Co35 1.941 . S
O60 C67 1.266 . S
H61 C63 0.959 . S
H62 C63 0.961 . S
C63 C53 1.510 . S
C63 H61 0.959 . S
C63 H62 0.961 . S
C63 H64 0.960 . S
H64 C63 0.960 . S
H65 N45 0.862 . S
O66 Co34 1.920 . S
O66 C39 1.289 . S
C67 O59 1.258 . S
C67 O60 1.266 . S
Co68 O71 1.970 . S
Co68 N85 1.989 . S
Co68 O93 1.967 . S
Co68 O100 1.920 . S
Co69 O72 1.966 . S
Co69 N78 2.022 . S
Co69 N86 1.993 . S
Co69 O94 1.941 . S
C70 O71 1.258 . S
C70 O72 1.263 . S
O71 Co68 1.970 . S
O71 C70 1.258 . S
O72 Co69 1.966 . S
O72 C70 1.263 . S
C73 O74 1.235 . S
C73 O100 1.289 . S
O74 C73 1.235 . S
C75 C77 1.400 . S
C75 N78 1.351 . S
C75 C80 1.501 . S
C76 C77 1.387 . S
C76 N79 1.341 . S
C77 C75 1.400 . S
C77 C76 1.387 . S
N78 Co69 2.022 . S
N78 C75 1.351 . S
N78 N79 1.365 . S
N79 C76 1.341 . S
N79 N78 1.365 . S
N79 H99 0.862 . S
C80 C75 1.501 . S
C80 H81 0.961 . S
C80 H82 0.961 . S
C80 H83 0.960 . S
H81 C80 0.961 . S
H82 C80 0.961 . S
H83 C80 0.960 . S
C84 N85 1.342 . S
C84 C88 1.401 . S
C84 C89 1.499 . S
N85 Co68 1.989 . S
N85 C84 1.342 . S
N85 N86 1.388 . S
N86 Co69 1.993 . S
N86 N85 1.388 . S
N86 C87 1.346 . S
C87 N86 1.346 . S
C87 C88 1.396 . S
C87 C97 1.510 . S
C88 C84 1.401 . S
C88 C87 1.396 . S
C89 C84 1.499 . S
C89 H90 0.959 . S
C89 H91 0.960 . S
C89 H92 0.961 . S
H90 C89 0.959 . S
H91 C89 0.960 . S
H92 C89 0.961 . S
O93 Co68 1.967 . S
O93 C101 1.258 . S
O94 Co69 1.941 . S
O94 C101 1.266 . S
H95 C97 0.959 . S
H96 C97 0.961 . S
C97 C87 1.510 . S
C97 H95 0.959 . S
C97 H96 0.961 . S
C97 H98 0.960 . S
H98 C97 0.960 . S
H99 N79 0.862 . S
O100 Co68 1.920 . S
O100 C73 1.289 . S
C101 O93 1.258 . S
C101 O94 1.266 . S
Co102 O105 1.970 . S
Co102 N119 1.989 . S
Co102 O127 1.967 . S
Co102 O134 1.920 . S
Co103 O106 1.966 . S
Co103 N112 2.022 . S
Co103 N120 1.993 . S
Co103 O128 1.941 . S
C104 O105 1.258 . S
C104 O106 1.263 . S
O105 Co102 1.970 . S
O105 C104 1.258 . S
O106 Co103 1.966 . S
O106 C104 1.263 . S
C107 O108 1.235 . S
C107 O134 1.289 . S
O108 C107 1.235 . S
C109 C111 1.400 . S
C109 N112 1.351 . S
C109 C114 1.501 . S
C110 C111 1.387 . S
C110 N113 1.341 . S
C111 C109 1.400 . S
C111 C110 1.387 . S
N112 Co103 2.022 . S
N112 C109 1.351 . S
N112 N113 1.365 . S
N113 C110 1.341 . S
N113 N112 1.365 . S
N113 H133 0.862 . S
C114 C109 1.501 . S
C114 H115 0.961 . S
C114 H116 0.961 . S
C114 H117 0.960 . S
H115 C114 0.961 . S
H116 C114 0.961 . S
H117 C114 0.960 . S
C118 N119 1.342 . S
C118 C122 1.401 . S
C118 C123 1.499 . S
N119 Co102 1.989 . S
N119 C118 1.342 . S
N119 N120 1.388 . S
N120 Co103 1.993 . S
N120 N119 1.388 . S
N120 C121 1.346 . S
C121 N120 1.346 . S
C121 C122 1.396 . S
C121 C131 1.510 . S
C122 C118 1.401 . S
C122 C121 1.396 . S
C123 C118 1.499 . S
C123 H124 0.959 . S
C123 H125 0.960 . S
C123 H126 0.961 . S
H124 C123 0.959 . S
H125 C123 0.960 . S
H126 C123 0.961 . S
O127 Co102 1.967 . S
O127 C135 1.258 . S
O128 Co103 1.941 . S
O128 C135 1.266 . S
H129 C131 0.959 . S
H130 C131 0.961 . S
C131 C121 1.510 . S
C131 H129 0.959 . S
C131 H130 0.961 . S
C131 H132 0.960 . S
H132 C131 0.960 . S
H133 N113 0.862 . S
O134 Co102 1.920 . S
O134 C107 1.289 . S
C135 O127 1.258 . S
C135 O128 1.266 . S
Co136 O139 1.970 . S
Co136 N153 1.989 . S
Co136 O161 1.967 . S
Co136 O168 1.920 . S
Co137 O140 1.966 . S
Co137 N146 2.022 . S
Co137 N154 1.993 . S
Co137 O162 1.941 . S
C138 O139 1.258 . S
C138 O140 1.263 . S
O139 Co136 1.970 . S
O139 C138 1.258 . S
O140 Co137 1.966 . S
O140 C138 1.263 . S
C141 O142 1.235 . S
C141 O168 1.289 . S
O142 C141 1.235 . S
C143 C145 1.400 . S
C143 N146 1.351 . S
C143 C148 1.501 . S
C144 C145 1.387 . S
C144 N147 1.341 . S
C145 C143 1.400 . S
C145 C144 1.387 . S
N146 Co137 2.022 . S
N146 C143 1.351 . S
N146 N147 1.365 . S
N147 C144 1.341 . S
N147 N146 1.365 . S
N147 H167 0.862 . S
C148 C143 1.501 . S
C148 H149 0.961 . S
C148 H150 0.961 . S
C148 H151 0.960 . S
H149 C148 0.961 . S
H150 C148 0.961 . S
H151 C148 0.960 . S
C152 N153 1.342 . S
C152 C156 1.401 . S
C152 C157 1.499 . S
N153 Co136 1.989 . S
N153 C152 1.342 . S
N153 N154 1.388 . S
N154 Co137 1.993 . S
N154 N153 1.388 . S
N154 C155 1.346 . S
C155 N154 1.346 . S
C155 C156 1.396 . S
C155 C165 1.510 . S
C156 C152 1.401 . S
C156 C155 1.396 . S
C157 C152 1.499 . S
C157 H158 0.959 . S
C157 H159 0.960 . S
C157 H160 0.961 . S
H158 C157 0.959 . S
H159 C157 0.960 . S
H160 C157 0.961 . S
O161 Co136 1.967 . S
O161 C169 1.258 . S
O162 Co137 1.941 . S
O162 C169 1.266 . S
H163 C165 0.959 . S
H164 C165 0.961 . S
C165 C155 1.510 . S
C165 H163 0.959 . S
C165 H164 0.961 . S
C165 H166 0.960 . S
H166 C165 0.960 . S
H167 N147 0.862 . S
O168 Co136 1.920 . S
O168 C141 1.289 . S
C169 O161 1.258 . S
C169 O162 1.266 . S
Co170 O173 1.970 . S
Co170 N187 1.989 . S
Co170 O195 1.967 . S
Co170 O202 1.920 . S
Co171 O174 1.966 . S
Co171 N180 2.022 . S
Co171 N188 1.993 . S
Co171 O196 1.941 . S
C172 O173 1.258 . S
C172 O174 1.263 . S
O173 Co170 1.970 . S
O173 C172 1.258 . S
O174 Co171 1.966 . S
O174 C172 1.263 . S
C175 O176 1.235 . S
C175 O202 1.289 . S
O176 C175 1.235 . S
C177 C179 1.400 . S
C177 N180 1.351 . S
C177 C182 1.501 . S
C178 C179 1.387 . S
C178 N181 1.341 . S
C179 C177 1.400 . S
C179 C178 1.387 . S
N180 Co171 2.022 . S
N180 C177 1.351 . S
N180 N181 1.365 . S
N181 C178 1.341 . S
N181 N180 1.365 . S
N181 H201 0.862 . S
C182 C177 1.501 . S
C182 H183 0.961 . S
C182 H184 0.961 . S
C182 H185 0.960 . S
H183 C182 0.961 . S
H184 C182 0.961 . S
H185 C182 0.960 . S
C186 N187 1.342 . S
C186 C190 1.401 . S
C186 C191 1.499 . S
N187 Co170 1.989 . S
N187 C186 1.342 . S
N187 N188 1.388 . S
N188 Co171 1.993 . S
N188 N187 1.388 . S
N188 C189 1.346 . S
C189 N188 1.346 . S
C189 C190 1.396 . S
C189 C199 1.510 . S
C190 C186 1.401 . S
C190 C189 1.396 . S
C191 C186 1.499 . S
C191 H192 0.959 . S
C191 H193 0.960 . S
C191 H194 0.961 . S
H192 C191 0.959 . S
H193 C191 0.960 . S
H194 C191 0.961 . S
O195 Co170 1.967 . S
O195 C203 1.258 . S
O196 Co171 1.941 . S
O196 C203 1.266 . S
H197 C199 0.959 . S
H198 C199 0.961 . S
C199 C189 1.510 . S
C199 H197 0.959 . S
C199 H198 0.961 . S
C199 H200 0.960 . S
H200 C199 0.960 . S
H201 N181 0.862 . S
O202 Co170 1.920 . S
O202 C175 1.289 . S
C203 O195 1.258 . S
C203 O196 1.266 . S
Co204 O207 1.970 . S
Co204 N221 1.989 . S
Co204 O229 1.967 . S
Co204 O236 1.920 . S
Co205 O208 1.966 . S
Co205 N214 2.022 . S
Co205 N222 1.993 . S
Co205 O230 1.941 . S
C206 O207 1.258 . S
C206 O208 1.263 . S
O207 Co204 1.970 . S
O207 C206 1.258 . S
O208 Co205 1.966 . S
O208 C206 1.263 . S
C209 O210 1.235 . S
C209 O236 1.289 . S
O210 C209 1.235 . S
C211 C213 1.400 . S
C211 N214 1.351 . S
C211 C216 1.501 . S
C212 C213 1.387 . S
C212 N215 1.341 . S
C213 C211 1.400 . S
C213 C212 1.387 . S
N214 Co205 2.022 . S
N214 C211 1.351 . S
N214 N215 1.365 . S
N215 C212 1.341 . S
N215 N214 1.365 . S
N215 H235 0.862 . S
C216 C211 1.501 . S
C216 H217 0.961 . S
C216 H218 0.961 . S
C216 H219 0.960 . S
H217 C216 0.961 . S
H218 C216 0.961 . S
H219 C216 0.960 . S
C220 N221 1.342 . S
C220 C224 1.401 . S
C220 C225 1.499 . S
N221 Co204 1.989 . S
N221 C220 1.342 . S
N221 N222 1.388 . S
N222 Co205 1.993 . S
N222 N221 1.388 . S
N222 C223 1.346 . S
C223 N222 1.346 . S
C223 C224 1.396 . S
C223 C233 1.510 . S
C224 C220 1.401 . S
C224 C223 1.396 . S
C225 C220 1.499 . S
C225 H226 0.959 . S
C225 H227 0.960 . S
C225 H228 0.961 . S
H226 C225 0.959 . S
H227 C225 0.960 . S
H228 C225 0.961 . S
O229 Co204 1.967 . S
O229 C237 1.258 . S
O230 Co205 1.941 . S
O230 C237 1.266 . S
H231 C233 0.959 . S
H232 C233 0.961 . S
C233 C223 1.510 . S
C233 H231 0.959 . S
C233 H232 0.961 . S
C233 H234 0.960 . S
H234 C233 0.960 . S
H235 N215 0.862 . S
O236 Co204 1.920 . S
O236 C209 1.289 . S
C237 O229 1.258 . S
C237 O230 1.266 . S
Co238 O241 1.970 . S
Co238 N255 1.989 . S
Co238 O263 1.967 . S
Co238 O270 1.920 . S
Co239 O242 1.966 . S
Co239 N248 2.022 . S
Co239 N256 1.993 . S
Co239 O264 1.941 . S
C240 O241 1.258 . S
C240 O242 1.263 . S
O241 Co238 1.970 . S
O241 C240 1.258 . S
O242 Co239 1.966 . S
O242 C240 1.263 . S
C243 O244 1.235 . S
C243 O270 1.289 . S
O244 C243 1.235 . S
C245 C247 1.400 . S
C245 N248 1.351 . S
C245 C250 1.501 . S
C246 C247 1.387 . S
C246 N249 1.341 . S
C247 C245 1.400 . S
C247 C246 1.387 . S
N248 Co239 2.022 . S
N248 C245 1.351 . S
N248 N249 1.365 . S
N249 C246 1.341 . S
N249 N248 1.365 . S
N249 H269 0.862 . S
C250 C245 1.501 . S
C250 H251 0.961 . S
C250 H252 0.961 . S
C250 H253 0.960 . S
H251 C250 0.961 . S
H252 C250 0.961 . S
H253 C250 0.960 . S
C254 N255 1.342 . S
C254 C258 1.401 . S
C254 C259 1.499 . S
N255 Co238 1.989 . S
N255 C254 1.342 . S
N255 N256 1.388 . S
N256 Co239 1.993 . S
N256 N255 1.388 . S
N256 C257 1.346 . S
C257 N256 1.346 . S
C257 C258 1.396 . S
C257 C267 1.510 . S
C258 C254 1.401 . S
C258 C257 1.396 . S
C259 C254 1.499 . S
C259 H260 0.959 . S
C259 H261 0.960 . S
C259 H262 0.961 . S
H260 C259 0.959 . S
H261 C259 0.960 . S
H262 C259 0.961 . S
O263 Co238 1.967 . S
O263 C271 1.258 . S
O264 Co239 1.941 . S
O264 C271 1.266 . S
H265 C267 0.959 . S
H266 C267 0.961 . S
C267 C257 1.510 . S
C267 H265 0.959 . S
C267 H266 0.961 . S
C267 H268 0.960 . S
H268 C267 0.960 . S
H269 N249 0.862 . S
O270 Co238 1.920 . S
O270 C243 1.289 . S
C271 O263 1.258 . S
C271 O264 1.266 . S
H272 C284 0.930 . S
H273 C286 0.930 . S
H274 C287 0.930 . S
H275 C291 0.959 . S
H276 C291 0.959 . S
H277 C291 0.961 . S
H278 C292 0.960 . S
H279 C292 0.961 . S
H280 C292 0.959 . S
H281 C295 0.929 . S
H282 C296 0.931 . S
H283 C298 0.930 . S
C284 H272 0.930 . S
C284 C285 1.399 . S
C284 C289 1.399 . S
C285 C284 1.399 . S
C285 C286 1.376 . S
C286 H273 0.930 . S
C286 C285 1.376 . S
C286 C287 1.388 . S
C287 H274 0.930 . S
C287 C286 1.388 . S
C287 C288 1.390 . S
C288 C287 1.390 . S
C288 C289 1.394 . S
C288 C294 1.465 . S
C289 C284 1.399 . S
C289 C288 1.394 . S
C289 C290 1.516 . S
C290 C289 1.516 . S
C290 C291 1.502 . S
C290 C292 1.561 . S
C290 C293 1.526 . S
C291 H275 0.959 . S
C291 H276 0.959 . S
C291 H277 0.961 . S
C291 C290 1.502 . S
C292 H278 0.960 . S
C292 H279 0.961 . S
C292 H280 0.959 . S
C292 C290 1.561 . S
C293 C290 1.526 . S
C293 C294 1.396 . S
C293 C298 1.390 . S
C294 C288 1.465 . S
C294 C293 1.396 . S
C294 C295 1.399 . S
C295 H281 0.929 . S
C295 C294 1.399 . S
C295 C296 1.385 . S
C296 H282 0.931 . S
C296 C295 1.385 . S
C296 C297 1.389 . S
C297 C296 1.389 . S
C297 C298 1.387 . S
C298 H283 0.930 . S
C298 C293 1.390 . S
C298 C297 1.387 . S
H299 C311 0.930 . S
H300 C313 0.930 . S
H301 C314 0.930 . S
H302 C318 0.959 1_554 S
H303 C318 0.959 . S
H304 C318 0.961 1_554 S
H305 C319 0.960 . S
H306 C319 0.961 . S
H307 C319 0.959 . S
H308 C322 0.929 . S
H309 C323 0.931 . S
H310 C325 0.930 . S
C311 H299 0.930 . S
C311 C312 1.399 . S
C311 C316 1.399 . S
C312 C311 1.399 . S
C312 C313 1.376 . S
C313 H300 0.930 . S
C313 C312 1.376 . S
C313 C314 1.388 . S
C314 H301 0.930 . S
C314 C313 1.388 . S
C314 C315 1.390 . S
C315 C314 1.390 . S
C315 C316 1.394 . S
C315 C321 1.465 1_554 S
C316 C311 1.399 . S
C316 C315 1.394 . S
C316 C317 1.516 1_554 S
C317 C316 1.516 1_556 S
C317 C318 1.502 . S
C317 C319 1.561 . S
C317 C320 1.526 . S
C318 H302 0.959 1_556 S
C318 H303 0.959 . S
C318 H304 0.961 1_556 S
C318 C317 1.502 . S
C319 H305 0.960 . S
C319 H306 0.961 . S
C319 H307 0.959 . S
C319 C317 1.561 . S
C320 C317 1.526 . S
C320 C321 1.396 . S
C320 C325 1.390 . S
C321 C315 1.465 1_556 S
C321 C320 1.396 . S
C321 C322 1.399 . S
C322 H308 0.929 . S
C322 C321 1.399 . S
C322 C323 1.385 . S
C323 H309 0.931 . S
C323 C322 1.385 . S
C323 C324 1.389 . S
C324 C323 1.389 . S
C324 C325 1.387 . S
C325 H310 0.930 . S
C325 C320 1.390 . S
C325 C324 1.387 . S
H326 C338 0.930 . S
H327 C340 0.930 . S
H328 C341 0.930 . S
H329 C345 0.959 . S
H330 C345 0.959 . S
H331 C345 0.961 . S
H332 C346 0.960 . S
H333 C346 0.961 . S
H334 C346 0.959 . S
H335 C349 0.929 . S
H336 C350 0.931 . S
H337 C352 0.930 . S
C338 H326 0.930 . S
C338 C339 1.399 . S
C338 C343 1.399 . S
C339 C338 1.399 . S
C339 C340 1.376 . S
C340 H327 0.930 . S
C340 C339 1.376 . S
C340 C341 1.388 . S
C341 H328 0.930 . S
C341 C340 1.388 . S
C341 C342 1.390 . S
C342 C341 1.390 . S
C342 C343 1.394 . S
C342 C348 1.465 . S
C343 C338 1.399 . S
C343 C342 1.394 . S
C343 C344 1.516 . S
C344 C343 1.516 . S
C344 C345 1.502 . S
C344 C346 1.561 . S
C344 C347 1.526 . S
C345 H329 0.959 . S
C345 H330 0.959 . S
C345 H331 0.961 . S
C345 C344 1.502 . S
C346 H332 0.960 . S
C346 H333 0.961 . S
C346 H334 0.959 . S
C346 C344 1.561 . S
C347 C344 1.526 . S
C347 C348 1.396 . S
C347 C352 1.390 . S
C348 C342 1.465 . S
C348 C347 1.396 . S
C348 C349 1.399 . S
C349 H335 0.929 . S
C349 C348 1.399 . S
C349 C350 1.385 . S
C350 H336 0.931 . S
C350 C349 1.385 . S
C350 C351 1.389 . S
C351 C350 1.389 . S
C351 C352 1.387 . S
C352 H337 0.930 . S
C352 C347 1.390 . S
C352 C351 1.387 . S
H353 C365 0.930 . S
H354 C367 0.930 . S
H355 C368 0.930 1_554 S
H356 C372 0.959 . S
H357 C372 0.959 . S
H358 C372 0.961 . S
H359 C373 0.960 . S
H360 C373 0.958 1_554 S
H361 C373 0.959 1_554 S
H362 C376 0.929 . S
H363 C377 0.931 . S
H364 C379 0.930 . S
C365 H353 0.930 . S
C365 C366 1.399 . S
C365 C370 1.399 . S
C366 C365 1.399 . S
C366 C367 1.376 . S
C367 H354 0.930 . S
C367 C366 1.376 . S
C367 C368 1.388 . S
C368 H355 0.930 1_556 S
C368 C367 1.388 . S
C368 C369 1.390 . S
C369 C368 1.390 . S
C369 C370 1.394 . S
C369 C375 1.465 1_556 S
C370 C365 1.399 . S
C370 C369 1.394 . S
C370 C371 1.516 . S
C371 C370 1.516 . S
C371 C372 1.502 . S
C371 C373 1.561 . S
C371 C374 1.526 1_556 S
C372 H356 0.959 . S
C372 H357 0.959 . S
C372 H358 0.961 . S
C372 C371 1.502 . S
C373 H359 0.960 . S
C373 H360 0.958 1_556 S
C373 H361 0.959 1_556 S
C373 C371 1.561 . S
C374 C371 1.526 1_554 S
C374 C375 1.396 . S
C374 C379 1.390 . S
C375 C369 1.465 1_554 S
C375 C374 1.396 . S
C375 C376 1.399 . S
C376 H362 0.929 . S
C376 C375 1.399 . S
C376 C377 1.385 . S
C377 H363 0.931 . S
C377 C376 1.385 . S
C377 C378 1.389 . S
C378 C377 1.389 . S
C378 C379 1.387 . S
C379 H364 0.930 . S
C379 C374 1.390 . S
C379 C378 1.387 . S
H380 C392 0.930 . S
H381 C394 0.930 . S
H382 C395 0.930 . S
H383 C399 0.959 . S
H384 C399 0.959 . S
H385 C399 0.961 . S
H386 C400 0.960 . S
H387 C400 0.961 . S
H388 C400 0.959 . S
H389 C403 0.929 . S
H390 C404 0.931 . S
H391 C406 0.930 . S
C392 H380 0.930 . S
C392 C393 1.399 . S
C392 C397 1.399 . S
C393 C392 1.399 . S
C393 C394 1.376 . S
C394 H381 0.930 . S
C394 C393 1.376 . S
C394 C395 1.388 . S
C395 H382 0.930 . S
C395 C394 1.388 . S
C395 C396 1.390 . S
C396 C395 1.390 . S
C396 C397 1.394 . S
C396 C402 1.465 . S
C397 C392 1.399 . S
C397 C396 1.394 . S
C397 C398 1.516 . S
C398 C397 1.516 . S
C398 C399 1.502 . S
C398 C400 1.561 . S
C398 C401 1.526 . S
C399 H383 0.959 . S
C399 H384 0.959 . S
C399 H385 0.961 . S
C399 C398 1.502 . S
C400 H386 0.960 . S
C400 H387 0.961 . S
C400 H388 0.959 . S
C400 C398 1.561 . S
C401 C398 1.526 . S
C401 C402 1.396 . S
C401 C406 1.390 . S
C402 C396 1.465 . S
C402 C401 1.396 . S
C402 C403 1.399 . S
C403 H389 0.929 . S
C403 C402 1.399 . S
C403 C404 1.385 . S
C404 H390 0.931 . S
C404 C403 1.385 . S
C404 C405 1.389 . S
C405 C404 1.389 . S
C405 C406 1.387 . S
C406 H391 0.930 . S
C406 C401 1.390 . S
C406 C405 1.387 . S
H407 C419 0.930 . S
H408 C421 0.930 . S
H409 C422 0.930 . S
H410 C426 0.959 . S
H411 C426 0.959 . S
H412 C426 0.961 . S
H413 C427 0.960 . S
H414 C427 0.961 . S
H415 C427 0.959 . S
H416 C430 0.929 . S
H417 C431 0.931 . S
H418 C433 0.930 . S
C419 H407 0.930 . S
C419 C420 1.399 . S
C419 C424 1.399 . S
C420 C419 1.399 . S
C420 C421 1.376 . S
C421 H408 0.930 . S
C421 C420 1.376 . S
C421 C422 1.388 . S
C422 H409 0.930 . S
C422 C421 1.388 . S
C422 C423 1.390 . S
C423 C422 1.390 . S
C423 C424 1.394 . S
C423 C429 1.465 . S
C424 C419 1.399 . S
C424 C423 1.394 . S
C424 C425 1.516 . S
C425 C424 1.516 . S
C425 C426 1.502 . S
C425 C427 1.561 . S
C425 C428 1.526 . S
C426 H410 0.959 . S
C426 H411 0.959 . S
C426 H412 0.961 . S
C426 C425 1.502 . S
C427 H413 0.960 . S
C427 H414 0.961 . S
C427 H415 0.959 . S
C427 C425 1.561 . S
C428 C425 1.526 . S
C428 C429 1.396 . S
C428 C433 1.390 . S
C429 C423 1.465 . S
C429 C428 1.396 . S
C429 C430 1.399 . S
C430 H416 0.929 . S
C430 C429 1.399 . S
C430 C431 1.385 . S
C431 H417 0.931 . S
C431 C430 1.385 . S
C431 C432 1.389 . S
C432 C431 1.389 . S
C432 C433 1.387 . S
C433 H418 0.930 . S
C433 C428 1.390 . S
C433 C432 1.387 . S
H434 C446 0.930 . S
H435 C448 0.930 . S
H436 C449 0.930 1_655 S
H437 C453 0.959 . S
H438 C453 0.959 . S
H439 C453 0.961 . S
H440 C454 0.977 . S
H441 C454 0.952 1_655 S
H442 C454 0.945 1_655 S
H443 C457 0.929 . S
H444 C458 0.931 . S
H445 C460 0.930 . S
C446 H434 0.930 . S
C446 C447 1.399 . S
C446 C451 1.399 . S
C447 C446 1.399 . S
C447 C448 1.376 . S
C448 H435 0.930 . S
C448 C447 1.376 . S
C448 C449 1.388 . S
C449 H436 0.930 1_455 S
C449 C448 1.388 . S
C449 C450 1.390 . S
C450 C449 1.390 . S
C450 C451 1.394 . S
C450 C456 1.465 1_455 S
C451 C446 1.399 . S
C451 C450 1.394 . S
C451 C452 1.516 . S
C452 C451 1.516 . S
C452 C453 1.502 . S
C452 C454 1.567 . S
C452 C455 1.526 1_455 S
C453 H437 0.959 . S
C453 H438 0.959 . S
C453 H439 0.961 . S
C453 C452 1.502 . S
C454 H440 0.977 . S
C454 H441 0.952 1_455 S
C454 H442 0.945 1_455 S
C454 C452 1.567 . S
C455 C452 1.526 1_655 S
C455 C456 1.396 . S
C455 C460 1.390 . S
C456 C450 1.465 1_655 S
C456 C455 1.396 . S
C456 C457 1.399 . S
C457 H443 0.929 . S
C457 C456 1.399 . S
C457 C458 1.385 . S
C458 H444 0.931 . S
C458 C457 1.385 . S
C458 C459 1.389 . S
C459 C458 1.389 . S
C459 C460 1.387 . S
C460 H445 0.930 . S
C460 C455 1.390 . S
C460 C459 1.387 . S
H461 C473 0.930 . S
H462 C475 0.930 . S
H463 C476 0.930 . S
H464 C480 0.959 . S
H465 C480 0.959 . S
H466 C480 0.961 . S
H467 C481 0.960 . S
H468 C481 0.961 . S
H469 C481 0.959 . S
H470 C484 0.929 . S
H471 C485 0.931 . S
H472 C487 0.930 . S
C473 H461 0.930 . S
C473 C474 1.399 . S
C473 C478 1.399 . S
C474 C473 1.399 . S
C474 C475 1.376 . S
C475 H462 0.930 . S
C475 C474 1.376 . S
C475 C476 1.388 . S
C476 H463 0.930 . S
C476 C475 1.388 . S
C476 C477 1.390 . S
C477 C476 1.390 . S
C477 C478 1.394 . S
C477 C483 1.465 1_455 S
C478 C473 1.399 . S
C478 C477 1.394 . S
C478 C479 1.516 1_455 S
C479 C478 1.516 1_655 S
C479 C480 1.502 . S
C479 C481 1.561 1_655 S
C479 C482 1.526 . S
C480 H464 0.959 . S
C480 H465 0.959 . S
C480 H466 0.961 . S
C480 C479 1.502 . S
C481 H467 0.960 . S
C481 H468 0.961 . S
C481 H469 0.959 . S
C481 C479 1.561 1_455 S
C482 C479 1.526 . S
C482 C483 1.396 . S
C482 C487 1.390 . S
C483 C477 1.465 1_655 S
C483 C482 1.396 . S
C483 C484 1.399 . S
C484 H470 0.929 . S
C484 C483 1.399 . S
C484 C485 1.385 . S
C485 H471 0.931 . S
C485 C484 1.385 . S
C485 C486 1.389 . S
C486 C485 1.389 . S
C486 C487 1.387 . S
C487 H472 0.930 . S
C487 C482 1.390 . S
C487 C486 1.387 . S
H488 C500 0.930 . S
H489 C502 0.930 . S
H490 C503 0.930 . S
H491 C507 0.959 . S
H492 C507 0.959 . S
H493 C507 0.961 . S
H494 C508 0.960 . S
H495 C508 0.961 . S
H496 C508 0.959 . S
H497 C511 0.929 . S
H498 C512 0.931 . S
H499 C514 0.930 1_565 S
C500 H488 0.930 . S
C500 C501 1.399 . S
C500 C505 1.399 . S
C501 C500 1.399 . S
C501 C502 1.376 . S
C502 H489 0.930 . S
C502 C501 1.376 . S
C502 C503 1.388 . S
C503 H490 0.930 . S
C503 C502 1.388 . S
C503 C504 1.390 . S
C504 C503 1.390 . S
C504 C505 1.394 . S
C504 C510 1.465 . S
C505 C500 1.399 . S
C505 C504 1.394 . S
C505 C506 1.516 . S
C506 C505 1.516 . S
C506 C507 1.502 . S
C506 C508 1.561 . S
C506 C509 1.526 . S
C507 H491 0.959 . S
C507 H492 0.959 . S
C507 H493 0.961 . S
C507 C506 1.502 . S
C508 H494 0.960 . S
C508 H495 0.961 . S
C508 H496 0.959 . S
C508 C506 1.561 . S
C509 C506 1.526 . S
C509 C510 1.396 . S
C509 C514 1.390 1_565 S
C510 C504 1.465 . S
C510 C509 1.396 . S
C510 C511 1.399 1_565 S
C511 H497 0.929 . S
C511 C510 1.399 1_545 S
C511 C512 1.385 . S
C512 H498 0.931 . S
C512 C511 1.385 . S
C512 C513 1.389 . S
C513 C512 1.389 . S
C513 C514 1.387 . S
C514 H499 0.930 1_545 S
C514 C509 1.390 1_545 S
C514 C513 1.387 . S
H515 C527 0.930 1_565 S
H516 C529 0.930 . S
H517 C530 0.930 . S
H518 C534 0.959 . S
H519 C534 0.959 . S
H520 C534 0.961 . S
H521 C535 0.960 . S
H522 C535 0.961 . S
H523 C535 0.959 . S
H524 C538 0.929 . S
H525 C539 0.931 . S
H526 C541 0.930 . S
C527 H515 0.930 1_545 S
C527 C528 1.399 . S
C527 C532 1.399 1_545 S
C528 C527 1.399 . S
C528 C529 1.376 . S
C529 H516 0.930 . S
C529 C528 1.376 . S
C529 C530 1.388 . S
C530 H517 0.930 . S
C530 C529 1.388 . S
C530 C531 1.390 1_545 S
C531 C530 1.390 1_565 S
C531 C532 1.394 . S
C531 C537 1.465 . S
C532 C527 1.399 1_565 S
C532 C531 1.394 . S
C532 C533 1.516 . S
C533 C532 1.516 . S
C533 C534 1.502 . S
C533 C535 1.561 . S
C533 C536 1.526 . S
C534 H518 0.959 . S
C534 H519 0.959 . S
C534 H520 0.961 . S
C534 C533 1.502 . S
C535 H521 0.960 . S
C535 H522 0.961 . S
C535 H523 0.959 . S
C535 C533 1.561 . S
C536 C533 1.526 . S
C536 C537 1.396 . S
C536 C541 1.390 . S
C537 C531 1.465 . S
C537 C536 1.396 . S
C537 C538 1.399 . S
C538 H524 0.929 . S
C538 C537 1.399 . S
C538 C539 1.385 . S
C539 H525 0.931 . S
C539 C538 1.385 . S
C539 C540 1.389 . S
C540 C539 1.389 . S
C540 C541 1.387 . S
C541 H526 0.930 . S
C541 C536 1.390 . S
C541 C540 1.387 . S
H542 C554 0.930 . S
H543 C556 0.930 . S
H544 C557 0.930 . S
H545 C561 0.959 . S
H546 C561 0.959 . S
H547 C561 0.961 . S
H548 C562 0.960 1_565 S
H549 C562 0.961 . S
H550 C562 0.959 . S
H551 C565 0.929 . S
H552 C566 0.931 . S
H553 C568 0.930 . S
C554 H542 0.930 . S
C554 C555 1.399 . S
C554 C559 1.399 1_565 S
C555 C554 1.399 . S
C555 C556 1.376 . S
C556 H543 0.930 . S
C556 C555 1.376 . S
C556 C557 1.388 1_565 S
C557 H544 0.930 . S
C557 C556 1.388 1_545 S
C557 C558 1.390 . S
C558 C557 1.390 . S
C558 C559 1.394 . S
C558 C564 1.465 . S
C559 C554 1.399 1_545 S
C559 C558 1.394 . S
C559 C560 1.516 . S
C560 C559 1.516 . S
C560 C561 1.502 . S
C560 C562 1.561 . S
C560 C563 1.526 . S
C561 H545 0.959 . S
C561 H546 0.959 . S
C561 H547 0.961 . S
C561 C560 1.502 . S
C562 H548 0.960 1_545 S
C562 H549 0.961 . S
C562 H550 0.959 . S
C562 C560 1.561 . S
C563 C560 1.526 . S
C563 C564 1.396 . S
C563 C568 1.390 . S
C564 C558 1.465 . S
C564 C563 1.396 . S
C564 C565 1.399 . S
C565 H551 0.929 . S
C565 C564 1.399 . S
C565 C566 1.385 . S
C566 H552 0.931 . S
C566 C565 1.385 . S
C566 C567 1.389 . S
C567 C566 1.389 . S
C567 C568 1.387 . S
C568 H553 0.930 . S
C568 C563 1.390 . S
C568 C567 1.387 . S
H569 C581 0.930 . S
H570 C583 0.930 . S
H571 C584 0.930 . S
H572 C588 0.959 1_565 S
H573 C588 0.959 1_565 S
H574 C588 0.961 . S
H575 C589 0.960 . S
H576 C589 0.961 1_565 S
H577 C589 0.959 . S
H578 C592 0.929 . S
H579 C593 0.931 . S
H580 C595 0.930 . S
C581 H569 0.930 . S
C581 C582 1.399 . S
C581 C586 1.399 . S
C582 C581 1.399 . S
C582 C583 1.376 . S
C583 H570 0.930 . S
C583 C582 1.376 . S
C583 C584 1.388 . S
C584 H571 0.930 . S
C584 C583 1.388 . S
C584 C585 1.390 . S
C585 C584 1.390 . S
C585 C586 1.394 . S
C585 C591 1.465 . S
C586 C581 1.399 . S
C586 C585 1.394 . S
C586 C587 1.516 . S
C587 C586 1.516 . S
C587 C588 1.502 . S
C587 C589 1.561 . S
C587 C590 1.526 . S
C588 H572 0.959 1_545 S
C588 H573 0.959 1_545 S
C588 H574 0.961 . S
C588 C587 1.502 . S
C589 H575 0.960 . S
C589 H576 0.961 1_545 S
C589 H577 0.959 . S
C589 C587 1.561 . S
C590 C587 1.526 . S
C590 C591 1.396 . S
C590 C595 1.390 1_545 S
C591 C585 1.465 . S
C591 C590 1.396 . S
C591 C592 1.399 . S
C592 H578 0.929 . S
C592 C591 1.399 . S
C592 C593 1.385 1_545 S
C593 H579 0.931 . S
C593 C592 1.385 1_565 S
C593 C594 1.389 . S
C594 C593 1.389 . S
C594 C595 1.387 . S
C595 H580 0.930 . S
C595 C590 1.390 1_565 S
C595 C594 1.387 . S
H596 C608 0.930 . S
H597 C610 0.930 . S
H598 C611 0.930 . S
H599 C615 0.959 . S
H600 C615 0.959 . S
H601 C615 0.961 . S
H602 C616 0.960 . S
H603 C616 0.961 . S
H604 C616 0.959 . S
H605 C619 0.929 . S
H606 C620 0.931 . S
H607 C622 0.930 . S
C608 H596 0.930 . S
C608 C609 1.399 . S
C608 C613 1.399 . S
C609 C608 1.399 . S
C609 C610 1.376 . S
C610 H597 0.930 . S
C610 C609 1.376 . S
C610 C611 1.388 . S
C611 H598 0.930 . S
C611 C610 1.388 . S
C611 C612 1.390 . S
C612 C611 1.390 . S
C612 C613 1.394 . S
C612 C618 1.465 . S
C613 C608 1.399 . S
C613 C612 1.394 . S
C613 C614 1.516 . S
C614 C613 1.516 . S
C614 C615 1.502 . S
C614 C616 1.561 . S
C614 C617 1.526 . S
C615 H599 0.959 . S
C615 H600 0.959 . S
C615 H601 0.961 . S
C615 C614 1.502 . S
C616 H602 0.960 . S
C616 H603 0.961 . S
C616 H604 0.959 . S
C616 C614 1.561 . S
C617 C614 1.526 . S
C617 C618 1.396 . S
C617 C622 1.390 . S
C618 C612 1.465 . S
C618 C617 1.396 . S
C618 C619 1.399 . S
C619 H605 0.929 . S
C619 C618 1.399 . S
C619 C620 1.385 . S
C620 H606 0.931 . S
C620 C619 1.385 . S
C620 C621 1.389 . S
C621 C620 1.389 . S
C621 C622 1.387 . S
C622 H607 0.930 . S
C622 C617 1.390 . S
C622 C621 1.387 . S
H623 C635 0.930 . S
H624 C637 0.930 . S
H625 C638 0.930 . S
H626 C642 0.959 . S
H627 C642 0.959 . S
H628 C642 0.961 . S
H629 C643 0.960 . S
H630 C643 0.961 . S
H631 C643 0.959 . S
H632 C646 0.929 . S
H633 C647 0.931 . S
H634 C649 0.930 . S
C635 H623 0.930 . S
C635 C636 1.399 . S
C635 C640 1.399 . S
C636 C635 1.399 . S
C636 C637 1.376 . S
C637 H624 0.930 . S
C637 C636 1.376 . S
C637 C638 1.388 . S
C638 H625 0.930 . S
C638 C637 1.388 . S
C638 C639 1.390 . S
C639 C638 1.390 . S
C639 C640 1.394 . S
C639 C645 1.465 . S
C640 C635 1.399 . S
C640 C639 1.394 . S
C640 C641 1.516 . S
C641 C640 1.516 . S
C641 C642 1.502 . S
C641 C643 1.561 . S
C641 C644 1.526 . S
C642 H626 0.959 . S
C642 H627 0.959 . S
C642 H628 0.961 . S
C642 C641 1.502 . S
C643 H629 0.960 . S
C643 H630 0.961 . S
C643 H631 0.959 . S
C643 C641 1.561 . S
C644 C641 1.526 . S
C644 C645 1.396 . S
C644 C649 1.390 . S
C645 C639 1.465 . S
C645 C644 1.396 . S
C645 C646 1.399 . S
C646 H632 0.929 . S
C646 C645 1.399 . S
C646 C647 1.385 . S
C647 H633 0.931 . S
C647 C646 1.385 . S
C647 C648 1.389 . S
C648 C647 1.389 . S
C648 C649 1.387 . S
C649 H634 0.930 . S
C649 C644 1.390 . S
C649 C648 1.387 . S
H650 C662 0.930 . S
H651 C664 0.930 . S
H652 C665 0.930 . S
H653 C669 0.959 . S
H654 C669 0.959 . S
H655 C669 0.961 . S
H656 C670 0.960 . S
H657 C670 0.961 . S
H658 C670 0.959 . S
H659 C673 0.929 . S
H660 C674 0.931 . S
H661 C676 0.930 . S
C662 H650 0.930 . S
C662 C663 1.399 . S
C662 C667 1.399 . S
C663 C662 1.399 . S
C663 C664 1.376 . S
C664 H651 0.930 . S
C664 C663 1.376 . S
C664 C665 1.388 . S
C665 H652 0.930 . S
C665 C664 1.388 . S
C665 C666 1.390 . S
C666 C665 1.390 . S
C666 C667 1.394 . S
C666 C672 1.465 . S
C667 C662 1.399 . S
C667 C666 1.394 . S
C667 C668 1.516 . S
C668 C667 1.516 . S
C668 C669 1.502 . S
C668 C670 1.561 . S
C668 C671 1.526 . S
C669 H653 0.959 . S
C669 H654 0.959 . S
C669 H655 0.961 . S
C669 C668 1.502 . S
C670 H656 0.960 . S
C670 H657 0.961 . S
C670 H658 0.959 . S
C670 C668 1.561 . S
C671 C668 1.526 . S
C671 C672 1.396 . S
C671 C676 1.390 . S
C672 C666 1.465 . S
C672 C671 1.396 . S
C672 C673 1.399 . S
C673 H659 0.929 . S
C673 C672 1.399 . S
C673 C674 1.385 . S
C674 H660 0.931 . S
C674 C673 1.385 . S
C674 C675 1.389 . S
C675 C674 1.389 . S
C675 C676 1.387 . S
C676 H661 0.930 . S
C676 C671 1.390 . S
C676 C675 1.387 . S
H677 C689 0.930 . S
H678 C691 0.930 . S
H679 C692 0.930 . S
H680 C696 0.959 . S
H681 C696 0.959 . S
H682 C696 0.961 . S
H683 C697 0.960 . S
H684 C697 0.961 . S
H685 C697 0.959 . S
H686 C700 0.929 . S
H687 C701 0.931 . S
H688 C703 0.930 . S
C689 H677 0.930 . S
C689 C690 1.399 . S
C689 C694 1.399 . S
C690 C689 1.399 . S
C690 C691 1.376 . S
C691 H678 0.930 . S
C691 C690 1.376 . S
C691 C692 1.388 . S
C692 H679 0.930 . S
C692 C691 1.388 . S
C692 C693 1.390 . S
C693 C692 1.390 . S
C693 C694 1.394 . S
C693 C699 1.465 . S
C694 C689 1.399 . S
C694 C693 1.394 . S
C694 C695 1.516 . S
C695 C694 1.516 . S
C695 C696 1.502 . S
C695 C697 1.561 . S
C695 C698 1.526 . S
C696 H680 0.959 . S
C696 H681 0.959 . S
C696 H682 0.961 . S
C696 C695 1.502 . S
C697 H683 0.960 . S
C697 H684 0.961 . S
C697 H685 0.959 . S
C697 C695 1.561 . S
C698 C695 1.526 . S
C698 C699 1.396 . S
C698 C703 1.390 . S
C699 C693 1.465 . S
C699 C698 1.396 . S
C699 C700 1.399 . S
C700 H686 0.929 . S
C700 C699 1.399 . S
C700 C701 1.385 . S
C701 H687 0.931 . S
C701 C700 1.385 . S
C701 C702 1.389 . S
C702 C701 1.389 . S
C702 C703 1.387 . S
C703 H688 0.930 . S
C703 C698 1.390 . S
C703 C702 1.387 . S
H704 C716 0.930 . S
H705 C718 0.930 1_565 S
H706 C719 0.930 . S
H707 C723 0.959 . S
H708 C723 0.959 . S
H709 C723 0.961 . S
H710 C724 0.960 . S
H711 C724 0.961 . S
H712 C724 0.959 . S
H713 C727 0.929 . S
H714 C728 0.931 . S
H715 C730 0.930 1_545 S
C716 H704 0.930 . S
C716 C717 1.399 . S
C716 C721 1.399 . S
C717 C716 1.399 . S
C717 C718 1.376 . S
C718 H705 0.930 1_545 S
C718 C717 1.376 . S
C718 C719 1.388 1_545 S
C719 H706 0.930 . S
C719 C718 1.388 1_565 S
C719 C720 1.390 . S
C720 C719 1.390 . S
C720 C721 1.394 1_565 S
C720 C726 1.465 . S
C721 C716 1.399 . S
C721 C720 1.394 1_545 S
C721 C722 1.516 . S
C722 C721 1.516 . S
C722 C723 1.502 . S
C722 C724 1.561 . S
C722 C725 1.515 1_545 S
C723 H707 0.959 . S
C723 H708 0.959 . S
C723 H709 0.961 . S
C723 C722 1.502 . S
C724 H710 0.960 . S
C724 H711 0.961 . S
C724 H712 0.959 . S
C724 C722 1.561 . S
C725 C722 1.515 1_565 S
C725 C726 1.404 . S
C725 C730 1.393 . S
C726 C720 1.465 . S
C726 C725 1.404 . S
C726 C727 1.399 . S
C727 H713 0.929 . S
C727 C726 1.399 . S
C727 C728 1.385 . S
C728 H714 0.931 . S
C728 C727 1.385 . S
C728 C729 1.389 . S
C729 C728 1.389 . S
C729 C730 1.387 . S
C730 H715 0.930 1_565 S
C730 C725 1.393 . S
C730 C729 1.387 . S
H731 C743 0.930 1_565 S
H732 C745 0.930 . S
H733 C746 0.930 1_556 S
H734 C750 0.959 . S
H735 C750 0.959 . S
H736 C750 0.961 . S
H737 C751 0.960 . S
H738 C751 0.961 . S
H739 C751 0.959 . S
H740 C754 0.929 . S
H741 C755 0.924 1_545 S
H742 C757 0.930 . S
C743 H731 0.930 1_545 S
C743 C744 1.399 . S
C743 C748 1.399 . S
C744 C743 1.399 . S
C744 C745 1.376 . S
C745 H732 0.930 . S
C745 C744 1.376 . S
C745 C746 1.388 . S
C746 H733 0.930 1_554 S
C746 C745 1.388 . S
C746 C747 1.390 . S
C747 C746 1.390 . S
C747 C748 1.394 . S
C747 C753 1.465 1_554 S
C748 C743 1.399 . S
C748 C747 1.394 . S
C748 C749 1.516 1_545 S
C749 C748 1.516 1_565 S
C749 C750 1.502 . S
C749 C751 1.561 . S
C749 C752 1.526 1_554 S
C750 H734 0.959 . S
C750 H735 0.959 . S
C750 H736 0.961 . S
C750 C749 1.502 . S
C751 H737 0.960 . S
C751 H738 0.961 . S
C751 H739 0.959 . S
C751 C749 1.561 . S
C752 C749 1.526 1_556 S
C752 C753 1.396 1_565 S
C752 C757 1.390 . S
C753 C747 1.465 1_556 S
C753 C752 1.396 1_545 S
C753 C754 1.399 . S
C754 H740 0.929 . S
C754 C753 1.399 . S
C754 C755 1.385 1_545 S
C755 H741 0.924 1_565 S
C755 C754 1.385 1_565 S
C755 C756 1.389 . S
C756 C755 1.389 . S
C756 C757 1.387 . S
C757 H742 0.930 . S
C757 C752 1.390 . S
C757 C756 1.387 . S
H758 C770 0.930 . S
H759 C772 0.930 . S
H760 C773 0.930 . S
H761 C777 0.959 . S
H762 C777 0.959 . S
H763 C777 0.961 . S
H764 C778 0.960 . S
H765 C778 0.961 . S
H766 C778 0.959 . S
H767 C781 0.929 . S
H768 C782 0.931 . S
H769 C784 0.930 . S
C770 H758 0.930 . S
C770 C771 1.399 . S
C770 C775 1.399 . S
C771 C770 1.399 . S
C771 C772 1.376 . S
C772 H759 0.930 . S
C772 C771 1.376 . S
C772 C773 1.388 . S
C773 H760 0.930 . S
C773 C772 1.388 . S
C773 C774 1.390 . S
C774 C773 1.390 . S
C774 C775 1.394 . S
C774 C780 1.465 . S
C775 C770 1.399 . S
C775 C774 1.394 . S
C775 C776 1.516 1_455 S
C776 C775 1.516 1_655 S
C776 C777 1.502 . S
C776 C778 1.561 . S
C776 C779 1.526 . S
C777 H761 0.959 . S
C777 H762 0.959 . S
C777 H763 0.961 . S
C777 C776 1.502 . S
C778 H764 0.960 . S
C778 H765 0.961 . S
C778 H766 0.959 . S
C778 C776 1.561 . S
C779 C776 1.526 . S
C779 C780 1.396 1_655 S
C779 C784 1.390 . S
C780 C774 1.465 . S
C780 C779 1.396 1_455 S
C780 C781 1.399 . S
C781 H767 0.929 . S
C781 C780 1.399 . S
C781 C782 1.385 1_455 S
C782 H768 0.931 . S
C782 C781 1.385 1_655 S
C782 C783 1.389 . S
C783 C782 1.389 . S
C783 C784 1.387 . S
C784 H769 0.930 . S
C784 C779 1.390 . S
C784 C783 1.387 . S
H785 C797 0.930 . S
H786 C799 0.930 . S
H787 C800 0.930 . S
H788 C804 0.959 1_554 S
H789 C804 0.959 . S
H790 C804 0.961 1_554 S
H791 C805 0.957 1_455 S
H792 C805 0.967 . S
H793 C805 0.952 1_455 S
H794 C808 0.929 1_455 S
H795 C809 0.931 . S
H796 C811 0.930 . S
C797 H785 0.930 . S
C797 C798 1.399 . S
C797 C802 1.399 . S
C798 C797 1.399 . S
C798 C799 1.376 . S
C799 H786 0.930 . S
C799 C798 1.376 . S
C799 C800 1.388 . S
C800 H787 0.930 . S
C800 C799 1.388 . S
C800 C801 1.390 . S
C801 C800 1.390 . S
C801 C802 1.394 . S
C801 C807 1.465 1_454 S
C802 C797 1.399 . S
C802 C801 1.394 . S
C802 C803 1.516 1_454 S
C803 C802 1.516 1_656 S
C803 C804 1.502 . S
C803 C805 1.566 . S
C803 C806 1.526 . S
C804 H788 0.959 1_556 S
C804 H789 0.959 . S
C804 H790 0.961 1_556 S
C804 C803 1.502 . S
C805 H791 0.957 1_655 S
C805 H792 0.967 . S
C805 H793 0.952 1_655 S
C805 C803 1.566 . S
C806 C803 1.526 . S
C806 C807 1.396 . S
C806 C811 1.390 . S
C807 C801 1.465 1_656 S
C807 C806 1.396 . S
C807 C808 1.399 . S
C808 H794 0.929 1_655 S
C808 C807 1.399 . S
C808 C809 1.385 . S
C809 H795 0.931 . S
C809 C808 1.385 . S
C809 C810 1.389 . S
C810 C809 1.389 . S
C810 C811 1.387 . S
C811 H796 0.930 . S
C811 C806 1.390 . S
C811 C810 1.387 . S
C285 C224 1.248 . S
C297 C20 1.235 . S
C312 C54 1.250 . S
C324 C258 1.234 . S
C339 C88 1.236 . S
C351 C156 1.250 . S
C366 C122 1.236 . S
C378 C190 1.249 . S
C393 C36 1.633 . S
C405 C2 1.632 . S
C420 C70 1.633 . S
C432 C104 1.633 . S
C447 C172 1.620 . S
C459 C138 1.616 . S
C474 C206 1.615 . S
C486 C240 1.616 . S
C501 C179 1.523 . S
C513 C33 1.558 . S
C528 C67 1.559 . S
C540 C145 1.542 . S
C555 C101 1.559 . S
C567 C247 1.533 . S
C582 C213 1.493 . S
C594 C135 1.557 . S
C609 C169 1.558 . S
C621 C43 1.533 . S
C636 C203 1.556 . S
C648 C9 1.507 . S
C663 C237 1.560 . S
C675 C111 1.540 . S
C690 C77 1.536 . S
C702 C271 1.557 . S
C717 C5 1.572 . S
C729 C73 1.518 . S
C744 C39 1.517 . S
C756 C107 1.569 . S
C771 C209 1.554 . S
C783 C141 1.544 . S
C798 C175 1.569 . S
C810 C243 1.518 . S
