# Generated by pormake.
# Topology etd, (3)-cn, num edge types: 1
# Building blocks:
#     Node 0, Type 0, BuildingBlock: WUSLED_clean_sbu_0, # of connection points: 3
#     Node 1, Type 0, BuildingBlock: WUSLED_clean_sbu_0, # of connection points: 3
#     Node 2, Type 0, BuildingBlock: WUSLED_clean_sbu_0, # of connection points: 3
#     Node 3, Type 0, BuildingBlock: WUSLED_clean_sbu_0, # of connection points: 3
#     Node 4, Type 0, BuildingBlock: WUSLED_clean_sbu_0, # of connection points: 3
#     Node 5, Type 0, BuildingBlock: WUSLED_clean_sbu_0, # of connection points: 3
#     Node 6, Type 0, BuildingBlock: WUSLED_clean_sbu_0, # of connection points: 3
#     Node 7, Type 0, BuildingBlock: WUSLED_clean_sbu_0, # of connection points: 3
#     Node 8, Type 0, BuildingBlock: WUSLED_clean_sbu_0, # of connection points: 3
#     Node 9, Type 0, BuildingBlock: WUSLED_clean_sbu_0, # of connection points: 3
#     Node 10, Type 0, BuildingBlock: WUSLED_clean_sbu_0, # of connection points: 3
#     Node 11, Type 0, BuildingBlock: WUSLED_clean_sbu_0, # of connection points: 3
#     Edge 12, Type (0, 0), BuildingBlock: TEMPAE_clean_linker_10, # of connection points: 2
#     Edge 13, Type (0, 0), BuildingBlock: TEMPAE_clean_linker_10, # of connection points: 2
#     Edge 14, Type (0, 0), BuildingBlock: TEMPAE_clean_linker_10, # of connection points: 2
#     Edge 15, Type (0, 0), BuildingBlock: TEMPAE_clean_linker_10, # of connection points: 2
#     Edge 16, Type (0, 0), BuildingBlock: TEMPAE_clean_linker_10, # of connection points: 2
#     Edge 17, Type (0, 0), BuildingBlock: TEMPAE_clean_linker_10, # of connection points: 2
#     Edge 18, Type (0, 0), BuildingBlock: TEMPAE_clean_linker_10, # of connection points: 2
#     Edge 19, Type (0, 0), BuildingBlock: TEMPAE_clean_linker_10, # of connection points: 2
#     Edge 20, Type (0, 0), BuildingBlock: TEMPAE_clean_linker_10, # of connection points: 2
#     Edge 21, Type (0, 0), BuildingBlock: TEMPAE_clean_linker_10, # of connection points: 2
#     Edge 22, Type (0, 0), BuildingBlock: TEMPAE_clean_linker_10, # of connection points: 2
#     Edge 23, Type (0, 0), BuildingBlock: TEMPAE_clean_linker_10, # of connection points: 2
#     Edge 24, Type (0, 0), BuildingBlock: TEMPAE_clean_linker_10, # of connection points: 2
#     Edge 25, Type (0, 0), BuildingBlock: TEMPAE_clean_linker_10, # of connection points: 2
#     Edge 26, Type (0, 0), BuildingBlock: TEMPAE_clean_linker_10, # of connection points: 2
#     Edge 27, Type (0, 0), BuildingBlock: TEMPAE_clean_linker_10, # of connection points: 2
#     Edge 28, Type (0, 0), BuildingBlock: TEMPAE_clean_linker_10, # of connection points: 2
#     Edge 29, Type (0, 0), BuildingBlock: TEMPAE_clean_linker_10, # of connection points: 2
# Relax obj value: 0.000
# Max RMSD: 0.002
# Mean RMSD: 0.002
data_MOF--net-etd--node1-WUSLED_clean_sbu_0--edge1-TEMPAE_clean_linker_10
_symmetry_space_group_name_H-M    P1
_symmetry_Int_Tables_number       1
_symmetry_cell_setting            triclinic
loop_
_symmetry_equiv_pos_as_xyz
'x, y, z'
_cell_length_a     90.599986
_cell_length_b     90.635672
_cell_length_c     65.382169
_cell_angle_alpha  90.024287
_cell_angle_beta   89.973892
_cell_angle_gamma 120.02703
loop_
_atom_site_label
_atom_site_type_symbol
_atom_site_fract_x
_atom_site_fract_y
_atom_site_fract_z
_atom_type_partial_charge
C0 C 0.51 0.17454 0.10192 0.0
C1 C 0.50935 0.18185 0.12061 0.0
C2 C 0.51132 0.20637 0.10268 0.0
C3 C 0.50991 0.19758 0.12098 0.0
C4 C 0.51217 0.19908 0.08404 0.0
C5 C 0.51147 0.1833 0.08368 0.0
U6 U 0.51951 0.14122 0.12449 0.0
O7 O 0.50387 0.1133 0.12568 0.0
O8 O 0.52833 0.12527 0.10934 0.0
C9 C 0.51427 0.11102 0.11378 0.0
C10 C 0.50925 0.1579 0.10109 0.0
C11 C 0.50641 0.09864 0.09689 0.0
C12 C 0.483 0.08205 0.07336 0.0
C13 C 0.49058 0.09468 0.08843 0.0
C14 C 0.50713 0.07749 0.07462 0.0
C15 C 0.49115 0.07323 0.06636 0.0
C16 C 0.51464 0.09002 0.08973 0.0
C17 C 0.54332 0.15107 0.17605 0.0
C18 C 0.56169 0.14086 0.18935 0.0
C19 C 0.54972 0.15305 0.2124 0.0
C20 C 0.54145 0.15568 0.19595 0.0
C21 C 0.56012 0.14581 0.20928 0.0
C22 C 0.55332 0.1434 0.1729 0.0
C23 C 0.53539 0.15515 0.15888 0.0
O24 O 0.52395 0.15854 0.09861 0.0
O25 O 0.4994 0.14653 0.11471 0.0
O26 O 0.51871 0.14591 0.15748 0.0
O27 O 0.54314 0.15811 0.14109 0.0
H28 H 0.5084 0.17541 0.13492 0.0
H29 H 0.50943 0.20295 0.13559 0.0
H30 H 0.51309 0.20544 0.06968 0.0
H31 H 0.51202 0.1779 0.0691 0.0
H32 H 0.47078 0.07921 0.06715 0.0
H33 H 0.48398 0.10119 0.09362 0.0
H34 H 0.51367 0.07083 0.06977 0.0
H35 H 0.52681 0.0928 0.0961 0.0
H36 H 0.56946 0.13509 0.18648 0.0
H37 H 0.54839 0.15719 0.22749 0.0
H38 H 0.53384 0.16166 0.19872 0.0
H39 H 0.55488 0.13962 0.15769 0.0
C40 C 0.36138 0.49721 0.26712 0.0
C41 C 0.35421 0.49883 0.28544 0.0
C42 C 0.33088 0.49863 0.26653 0.0
C43 C 0.33908 0.49946 0.28515 0.0
C44 C 0.33828 0.49723 0.24821 0.0
C45 C 0.35335 0.4965 0.24853 0.0
U46 U 0.40336 0.50675 0.29191 0.0
O47 O 0.41531 0.49087 0.29497 0.0
O48 O 0.42855 0.51509 0.27827 0.0
C49 C 0.42855 0.50113 0.28373 0.0
C50 C 0.37718 0.4963 0.26714 0.0
C51 C 0.43344 0.4929 0.26779 0.0
C52 C 0.4285 0.47793 0.23539 0.0
C53 C 0.42345 0.48569 0.25026 0.0
C54 C 0.45349 0.4845 0.25553 0.0
C55 C 0.44358 0.47721 0.23788 0.0
C56 C 0.44845 0.49225 0.27031 0.0
C57 C 0.41572 0.53114 0.34303 0.0
C58 C 0.44405 0.54577 0.35818 0.0
C59 C 0.4196 0.54135 0.37808 0.0
C60 C 0.40894 0.53305 0.36145 0.0
C61 C 0.43731 0.54795 0.37661 0.0
C62 C 0.43334 0.53739 0.34154 0.0
C63 C 0.40423 0.52312 0.32549 0.0
O64 O 0.39138 0.51093 0.26488 0.0
O65 O 0.37824 0.4866 0.28135 0.0
O66 O 0.39675 0.50642 0.32443 0.0
O67 O 0.40982 0.53064 0.3077 0.0
H68 H 0.36025 0.49948 0.29997 0.0
H69 H 0.33368 0.50033 0.29957 0.0
H70 H 0.33252 0.49685 0.23357 0.0
H71 H 0.35876 0.49539 0.23423 0.0
H72 H 0.4205 0.47232 0.22208 0.0
H73 H 0.41178 0.48604 0.2481 0.0
H74 H 0.46531 0.48446 0.25781 0.0
H75 H 0.45635 0.49779 0.28373 0.0
H76 H 0.4576 0.55056 0.35662 0.0
H77 H 0.41401 0.54299 0.39193 0.0
H78 H 0.39539 0.52835 0.36287 0.0
H79 H 0.43881 0.53595 0.32747 0.0
C80 C 0.88501 0.34785 0.43577 0.0
C81 C 0.87709 0.34033 0.45441 0.0
C82 C 0.85297 0.31752 0.43618 0.0
C83 C 0.86126 0.32527 0.45461 0.0
C84 C 0.86084 0.32525 0.41757 0.0
C85 C 0.87672 0.34023 0.41739 0.0
U86 U 0.91806 0.39092 0.45797 0.0
O87 O 0.94592 0.40254 0.46122 0.0
O88 O 0.93526 0.41523 0.44278 0.0
C89 C 0.94908 0.41509 0.44863 0.0
C90 C 0.90189 0.3635 0.43519 0.0
C91 C 0.9623 0.41903 0.43288 0.0
C92 C 0.97187 0.42341 0.39742 0.0
C93 C 0.95873 0.41818 0.41185 0.0
C94 C 0.99222 0.42991 0.42477 0.0
C95 C 0.98883 0.42957 0.40372 0.0
C96 C 0.97912 0.42476 0.43916 0.0
C97 C 0.90595 0.40646 0.50701 0.0
C98 C 0.92171 0.42264 0.53701 0.0
C99 C 0.89624 0.4229 0.52646 0.0
C100 C 0.89431 0.41217 0.51007 0.0
C101 C 0.90983 0.42809 0.54033 0.0
C102 C 0.9198 0.41193 0.52052 0.0
C103 C 0.90271 0.39411 0.49038 0.0
O104 O 0.90178 0.37769 0.43139 0.0
O105 O 0.91258 0.36514 0.4498 0.0
O106 O 0.91153 0.38617 0.49063 0.0
O107 O 0.90093 0.39877 0.47194 0.0
H108 H 0.88315 0.34607 0.46882 0.0
H109 H 0.85544 0.31975 0.46918 0.0
H110 H 0.85486 0.31953 0.40313 0.0
H111 H 0.8826 0.34583 0.40285 0.0
H112 H 0.96879 0.4231 0.38137 0.0
H113 H 0.94588 0.41382 0.40654 0.0
H114 H 1.00505 0.43428 0.43018 0.0
H115 H 0.98219 0.42552 0.45528 0.0
H116 H 0.93224 0.42626 0.54747 0.0
H117 H 0.88703 0.42709 0.52829 0.0
H118 H 0.88352 0.40813 0.4999 0.0
H119 H 0.929 0.40773 0.5186 0.0
C120 C 0.56152 0.87435 0.60093 0.0
C121 C 0.55484 0.86345 0.61786 0.0
C122 C 0.56039 0.84261 0.60117 0.0
C123 C 0.5543 0.84773 0.61799 0.0
C124 C 0.56704 0.85363 0.58424 0.0
C125 C 0.56759 0.86934 0.58414 0.0
U126 U 0.55104 0.90645 0.62469 0.0
O127 O 0.56628 0.93436 0.62697 0.0
O128 O 0.54197 0.92247 0.61034 0.0
C129 C 0.55583 0.93673 0.61529 0.0
C130 C 0.5621 0.89088 0.60052 0.0
C131 C 0.5637 0.94949 0.59882 0.0
C132 C 0.58594 0.96482 0.57349 0.0
C133 C 0.57839 0.95208 0.58844 0.0
C134 C 0.56402 0.97227 0.57883 0.0
C135 C 0.57886 0.97511 0.56855 0.0
C136 C 0.55655 0.95962 0.59381 0.0
C137 C 0.52653 0.89444 0.67585 0.0
C138 C 0.51118 0.90751 0.69068 0.0
C139 C 0.51597 0.88782 0.71073 0.0
C140 C 0.52465 0.8858 0.69428 0.0
C141 C 0.50891 0.89851 0.70908 0.0
C142 C 0.51993 0.90549 0.67421 0.0
C143 C 0.53487 0.8912 0.65847 0.0
O144 O 0.54731 0.89005 0.59808 0.0
O145 O 0.57158 0.90183 0.61469 0.0
O146 O 0.55153 0.90085 0.65742 0.0
O147 O 0.5273 0.8888 0.64063 0.0
H148 H 0.55001 0.86708 0.63093 0.0
H149 H 0.54892 0.83949 0.63117 0.0
H150 H 0.57204 0.85021 0.57115 0.0
H151 H 0.5728 0.8776 0.57095 0.0
H152 H 0.59725 0.96655 0.5657 0.0
H153 H 0.58409 0.94435 0.59198 0.0
H154 H 0.55835 0.98008 0.5756 0.0
H155 H 0.54526 0.95787 0.60168 0.0
H156 H 0.50581 0.91574 0.68882 0.0
H157 H 0.51475 0.88095 0.72477 0.0
H158 H 0.52974 0.87729 0.69588 0.0
H159 H 0.52129 0.91232 0.6601 0.0
C160 C 0.7125 0.55073 0.76846 0.0
C161 C 0.71366 0.53829 0.78001 0.0
C162 C 0.74326 0.54987 0.76944 0.0
C163 C 0.72888 0.53782 0.78042 0.0
C164 C 0.74204 0.56239 0.75804 0.0
C165 C 0.72679 0.56279 0.75754 0.0
U166 U 0.66936 0.54002 0.79092 0.0
O167 O 0.65667 0.55526 0.79286 0.0
O168 O 0.64454 0.53112 0.77585 0.0
C169 C 0.6441 0.54496 0.78076 0.0
C170 C 0.69653 0.55131 0.76764 0.0
C171 C 0.63935 0.55292 0.7642 0.0
C172 C 0.64515 0.57708 0.74245 0.0
C173 C 0.65054 0.56953 0.75717 0.0
C174 C 0.61751 0.55141 0.74122 0.0
C175 C 0.62849 0.56817 0.73445 0.0
C176 C 0.62287 0.54392 0.75595 0.0
C177 C 0.65578 0.51521 0.84179 0.0
C178 C 0.62711 0.50032 0.85599 0.0
C179 C 0.65114 0.50481 0.87678 0.0
C180 C 0.66216 0.51324 0.86047 0.0
C181 C 0.63346 0.49813 0.87471 0.0
C182 C 0.63818 0.50884 0.83967 0.0
C183 C 0.66771 0.52356 0.82471 0.0
O184 O 0.68255 0.5366 0.76469 0.0
O185 O 0.69481 0.56067 0.78176 0.0
O186 O 0.67484 0.54023 0.82379 0.0
O187 O 0.66285 0.51612 0.80676 0.0
H188 H 0.7028 0.52894 0.78869 0.0
H189 H 0.72945 0.52815 0.78954 0.0
H190 H 0.7528 0.57175 0.74925 0.0
H191 H 0.72615 0.57249 0.74855 0.0
H192 H 0.65391 0.59004 0.73773 0.0
H193 H 0.66334 0.57679 0.76326 0.0
H194 H 0.60472 0.54403 0.73513 0.0
H195 H 0.61403 0.5311 0.76111 0.0
H196 H 0.61358 0.49547 0.85397 0.0
H197 H 0.65644 0.50315 0.89085 0.0
H198 H 0.67569 0.51804 0.86238 0.0
H199 H 0.63302 0.51032 0.82538 0.0
C200 C 0.18492 0.69947 0.9351 0.0
C201 C 0.19877 0.70078 0.94626 0.0
C202 C 0.21649 0.7303 0.93532 0.0
C203 C 0.21443 0.71603 0.9463 0.0
C204 C 0.20251 0.72894 0.92432 0.0
C205 C 0.18689 0.71365 0.92419 0.0
U206 U 0.15328 0.65652 0.95847 0.0
O207 O 0.12537 0.64366 0.96136 0.0
O208 O 0.13715 0.63152 0.94395 0.0
C209 C 0.12291 0.63094 0.94944 0.0
C210 C 0.16839 0.68346 0.93474 0.0
C211 C 0.10994 0.62612 0.93327 0.0
C212 C 0.09574 0.63335 0.90681 0.0
C213 C 0.10851 0.6384 0.9217 0.0
C214 C 0.0859 0.60375 0.91471 0.0
C215 C 0.08427 0.61595 0.90314 0.0
C216 C 0.09859 0.60881 0.92961 0.0
C217 C 0.16623 0.64373 1.00868 0.0
C218 C 0.15131 0.6156 0.02427 0.0
C219 C 0.17485 0.63897 0.04206 0.0
C220 C 0.17686 0.64987 0.02585 0.0
C221 C 0.16217 0.62165 0.0414 0.0
C222 C 0.15333 0.62655 1.00802 0.0
C223 C 0.16915 0.65544 0.99158 0.0
O224 O 0.16913 0.66951 0.93164 0.0
O225 O 0.15763 0.68179 0.94928 0.0
O226 O 0.15938 0.66232 0.99114 0.0
O227 O 0.17126 0.65041 0.97351 0.0
H228 H 0.19747 0.69 0.95493 0.0
H229 H 0.22487 0.71672 0.95513 0.0
H230 H 0.20372 0.73962 0.91555 0.0
H231 H 0.17635 0.71289 0.9155 0.0
H232 H 0.09494 0.64306 0.89802 0.0
H233 H 0.11721 0.65186 0.92422 0.0
H234 H 0.07717 0.59027 0.91249 0.0
H235 H 0.09946 0.59914 0.93842 0.0
H236 H 0.1415 0.60232 0.0232 0.0
H237 H 0.18324 0.64415 0.05515 0.0
H238 H 0.18682 0.66311 0.02667 0.0
H239 H 0.14498 0.6216 0.99487 0.0
C240 C 0.88672 0.55059 0.76956 0.0
C241 C 0.87469 0.54162 0.75421 0.0
C242 C 0.85478 0.54908 0.76972 0.0
C243 C 0.85887 0.54086 0.75429 0.0
C244 C 0.86692 0.55802 0.78509 0.0
C245 C 0.88273 0.55875 0.78499 0.0
U246 U 0.91899 0.54079 0.74497 0.0
O247 O 0.9468 0.55688 0.74132 0.0
O248 O 0.93619 0.53298 0.75866 0.0
C249 C 0.95002 0.54696 0.75288 0.0
C250 C 0.90348 0.55166 0.76953 0.0
C251 C 0.96327 0.55562 0.76861 0.0
C252 C 0.97224 0.56702 0.80293 0.0
C253 C 0.9594 0.55922 0.78813 0.0
C254 C 0.99293 0.56795 0.77873 0.0
C255 C 0.98917 0.57144 0.79842 0.0
C256 C 0.98011 0.56012 0.76401 0.0
C257 C 0.90636 0.51547 0.69448 0.0
C258 C 0.92162 0.50281 0.67842 0.0
C259 C 0.89861 0.50343 0.66034 0.0
C260 C 0.89617 0.51166 0.67698 0.0
C261 C 0.91131 0.49883 0.66086 0.0
C262 C 0.9192 0.51111 0.69508 0.0
C263 C 0.90308 0.5237 0.71194 0.0
O264 O 0.9032 0.53715 0.77218 0.0
O265 O 0.91392 0.56104 0.75489 0.0
O266 O 0.9122 0.54041 0.71255 0.0
O267 O 0.90154 0.51651 0.72988 0.0
H268 H 0.87756 0.53521 0.74218 0.0
H269 H 0.84977 0.53371 0.74237 0.0
H270 H 0.86433 0.56469 0.79703 0.0
H271 H 0.89189 0.56579 0.79692 0.0
H272 H 0.96893 0.56968 0.81786 0.0
H273 H 0.94646 0.5559 0.79193 0.0
H274 H 1.00575 0.57093 0.7748 0.0
H275 H 0.98334 0.55741 0.74905 0.0
H276 H 0.93161 0.49958 0.67924 0.0
H277 H 0.89028 0.50034 0.64722 0.0
H278 H 0.88617 0.51489 0.67627 0.0
H279 H 0.92725 0.51403 0.70846 0.0
C280 C 0.35901 0.87403 0.93421 0.0
C281 C 0.35588 0.86207 0.91875 0.0
C282 C 0.32864 0.84204 0.93447 0.0
C283 C 0.34083 0.84622 0.91887 0.0
C284 C 0.33192 0.85411 0.94994 0.0
C285 C 0.34696 0.86994 0.9498 0.0
U286 U 0.40114 0.90647 0.90974 0.0
O287 O 0.41269 0.93427 0.90614 0.0
O288 O 0.42607 0.9238 0.92355 0.0
C289 C 0.42577 0.93757 0.91786 0.0
C290 C 0.37466 0.89083 0.93415 0.0
C291 C 0.43018 0.95079 0.93364 0.0
C292 C 0.43081 0.95952 0.969 0.0
C293 C 0.42569 0.94662 0.95427 0.0
C294 C 0.44458 0.98086 0.94258 0.0
C295 C 0.44041 0.97681 0.96334 0.0
C296 C 0.43953 0.96798 0.92793 0.0
C297 C 0.4143 0.89407 0.85946 0.0
C298 C 0.4422 0.91002 0.84345 0.0
C299 C 0.41923 0.88599 0.82582 0.0
C300 C 0.40836 0.88343 0.84228 0.0
C301 C 0.43631 0.89926 0.82621 0.0
C302 C 0.43127 0.90747 0.85993 0.0
C303 C 0.40264 0.89067 0.87678 0.0
O304 O 0.38894 0.89065 0.9369 0.0
O305 O 0.37569 0.9012 0.91946 0.0
O306 O 0.39495 0.89971 0.87728 0.0
O307 O 0.4082 0.88916 0.89478 0.0
H308 H 0.36508 0.86501 0.90659 0.0
H309 H 0.33883 0.83717 0.90686 0.0
H310 H 0.32273 0.85145 0.96202 0.0
H311 H 0.34914 0.87905 0.96181 0.0
H312 H 0.42723 0.95598 0.98481 0.0
H313 H 0.41837 0.93342 0.95902 0.0
H314 H 0.45213 0.99401 0.93772 0.0
H315 H 0.44316 0.97146 0.9121 0.0
H316 H 0.45524 0.92045 0.84416 0.0
H317 H 0.41433 0.87731 0.81296 0.0
H318 H 0.39531 0.87299 0.84168 0.0
H319 H 0.43606 0.91586 0.87306 0.0
C320 C 0.50981 0.34861 0.10116 0.0
C321 C 0.5115 0.34154 0.0828 0.0
C322 C 0.51099 0.31803 0.10155 0.0
C323 C 0.512 0.32635 0.08299 0.0
C324 C 0.50949 0.32529 0.11991 0.0
C325 C 0.50887 0.34041 0.11969 0.0
U326 U 0.5201 0.39084 0.07655 0.0
O327 O 0.50476 0.40337 0.0737 0.0
O328 O 0.52907 0.41612 0.09027 0.0
C329 C 0.51525 0.41647 0.085 0.0
C330 C 0.50919 0.36457 0.10125 0.0
C331 C 0.50734 0.42155 0.10114 0.0
C332 C 0.48913 0.4152 0.13104 0.0
C333 C 0.49662 0.40998 0.11602 0.0
C334 C 0.5031 0.44358 0.11648 0.0
C335 C 0.49232 0.43209 0.13146 0.0
C336 C 0.51052 0.43835 0.10149 0.0
C337 C 0.54469 0.40274 0.02554 0.0
C338 C 0.55724 0.43056 1.00926 0.0
C339 C 0.55798 0.40724 0.99213 0.0
C340 C 0.54932 0.39652 1.00857 0.0
C341 C 0.56223 0.42445 0.99234 0.0
C342 C 0.54854 0.41979 0.02575 0.0
C343 C 0.53634 0.39132 0.04302 0.0
O344 O 0.52395 0.3786 0.10355 0.0
O345 O 0.49961 0.36586 0.08706 0.0
O346 O 0.51968 0.38429 0.04401 0.0
O347 O 0.54388 0.39679 0.06081 0.0
H348 H 0.51243 0.34777 0.06833 0.0
H349 H 0.51338 0.32121 0.06862 0.0
H350 H 0.50853 0.31912 0.13444 0.0
H351 H 0.5076 0.34569 0.13402 0.0
H352 H 0.48103 0.40608 0.14246 0.0
H353 H 0.49406 0.39695 0.11601 0.0
H354 H 0.50565 0.45659 0.11615 0.0
H355 H 0.51871 0.44744 0.09008 0.0
H356 H 0.56041 0.44377 1.01 0.0
H357 H 0.56135 0.40203 0.97921 0.0
H358 H 0.54638 0.38337 1.00812 0.0
H359 H 0.54504 0.4248 0.03876 0.0
C360 C 0.18707 0.4975 0.26695 0.0
C361 C 0.19604 0.50012 0.24854 0.0
C362 C 0.21882 0.49857 0.26657 0.0
C363 C 0.21173 0.5006 0.24834 0.0
C364 C 0.20981 0.49614 0.28499 0.0
C365 C 0.1941 0.49559 0.28515 0.0
U366 U 0.15429 0.5073 0.24353 0.0
O367 O 0.12636 0.49175 0.24167 0.0
O368 O 0.13814 0.51611 0.25818 0.0
C369 C 0.12393 0.50206 0.25356 0.0
C370 C 0.17047 0.4968 0.26747 0.0
C371 C 0.11126 0.49417 0.27025 0.0
C372 C 0.09114 0.46948 0.29017 0.0
C373 C 0.10408 0.47686 0.27543 0.0
C374 C 0.09261 0.49664 0.29513 0.0
C375 C 0.0851 0.47924 0.30005 0.0
C376 C 0.10547 0.50398 0.28036 0.0
C377 C 0.16519 0.53131 0.19214 0.0
C378 C 0.15095 0.54555 0.17748 0.0
C379 C 0.17117 0.54174 0.15717 0.0
C380 C 0.17383 0.5335 0.17362 0.0
C381 C 0.1598 0.548 0.15893 0.0
C382 C 0.15358 0.53722 0.19393 0.0
C383 C 0.16894 0.5233 0.20945 0.0
O384 O 0.17116 0.51154 0.26982 0.0
O385 O 0.15935 0.48709 0.25357 0.0
O386 O 0.15955 0.50664 0.21073 0.0
O387 O 0.17145 0.531 0.22721 0.0
H388 H 0.19085 0.5017 0.23432 0.0
H389 H 0.21819 0.50231 0.23385 0.0
H390 H 0.21498 0.49483 0.29936 0.0
H391 H 0.18743 0.49368 0.29953 0.0
H392 H 0.08557 0.45602 0.29341 0.0
H393 H 0.10821 0.46891 0.26787 0.0
H394 H 0.08852 0.50464 0.30266 0.0
H395 H 0.11075 0.51734 0.27663 0.0
H396 H 0.14199 0.55007 0.17926 0.0
H397 H 0.17837 0.54361 0.14324 0.0
H398 H 0.18287 0.52905 0.17197 0.0
H399 H 0.14671 0.53557 0.2081 0.0
C400 C 0.71078 0.17361 0.4351 0.0
C401 C 0.71802 0.18205 0.41662 0.0
C402 C 0.74119 0.20556 0.43521 0.0
C403 C 0.73313 0.19783 0.41667 0.0
C404 C 0.73375 0.19715 0.45368 0.0
C405 C 0.71871 0.18131 0.4536 0.0
U406 U 0.66816 0.14137 0.41148 0.0
O407 O 0.65618 0.11355 0.4077 0.0
O408 O 0.64335 0.12429 0.42573 0.0
C409 C 0.6433 0.11042 0.41972 0.0
C410 C 0.69499 0.15685 0.43532 0.0
C411 C 0.63891 0.09713 0.43536 0.0
C412 C 0.64022 0.08824 0.47012 0.0
C413 C 0.64521 0.10115 0.45543 0.0
C414 C 0.62293 0.06717 0.44472 0.0
C415 C 0.62895 0.07108 0.46495 0.0
C416 C 0.62785 0.08006 0.43011 0.0
C417 C 0.65484 0.15459 0.36186 0.0
C418 C 0.62838 0.13694 0.34346 0.0
C419 C 0.64815 0.16544 0.33142 0.0
C420 C 0.65913 0.16764 0.34759 0.0
C421 C 0.63258 0.1501 0.32919 0.0
C422 C 0.63942 0.13918 0.35971 0.0
C423 C 0.66657 0.15753 0.37893 0.0
O424 O 0.68085 0.15718 0.43856 0.0
O425 O 0.69354 0.14623 0.42071 0.0
O426 O 0.67395 0.1482 0.37899 0.0
O427 O 0.66123 0.159 0.39709 0.0
H428 H 0.71201 0.17644 0.40214 0.0
H429 H 0.73843 0.20408 0.40221 0.0
H430 H 0.73971 0.20269 0.46819 0.0
H431 H 0.7133 0.17502 0.46802 0.0
H432 H 0.64524 0.09167 0.48549 0.0
H433 H 0.65385 0.11425 0.45977 0.0
H434 H 0.61407 0.05415 0.44026 0.0
H435 H 0.62283 0.0767 0.41472 0.0
H436 H 0.61644 0.12503 0.34228 0.0
H437 H 0.65192 0.17572 0.32055 0.0
H438 H 0.67102 0.1796 0.34899 0.0
H439 H 0.63589 0.12897 0.37065 0.0
C440 C 0.56266 0.7007 0.60047 0.0
C441 C 0.54872 0.70119 0.59182 0.0
C442 C 0.5615 0.73131 0.60051 0.0
C443 C 0.54811 0.71633 0.59194 0.0
C444 C 0.57548 0.73075 0.60904 0.0
C445 C 0.57602 0.71559 0.60904 0.0
U446 U 0.55195 0.65793 0.57684 0.0
O447 O 0.5679 0.64606 0.57299 0.0
O448 O 0.54435 0.63317 0.59108 0.0
C449 C 0.55825 0.63324 0.58512 0.0
C450 C 0.56359 0.68491 0.60049 0.0
C451 C 0.56724 0.62885 0.6007 0.0
C452 C 0.57404 0.62635 0.63611 0.0
C453 C 0.56632 0.63175 0.62166 0.0
C454 C 0.58411 0.61555 0.60884 0.0
C455 C 0.58286 0.61798 0.6299 0.0
C456 C 0.57635 0.62088 0.59444 0.0
C457 C 0.52521 0.64428 0.52735 0.0
C458 C 0.51242 0.61616 0.51179 0.0
C459 C 0.51151 0.63918 0.49415 0.0
C460 C 0.52037 0.65019 0.51029 0.0
C461 C 0.50727 0.62198 0.49475 0.0
C462 C 0.52133 0.62722 0.52797 0.0
C463 C 0.53401 0.65611 0.54437 0.0
O464 O 0.54919 0.6707 0.60397 0.0
O465 O 0.57256 0.68352 0.58559 0.0
O466 O 0.55073 0.66358 0.54432 0.0
O467 O 0.5273 0.65089 0.56261 0.0
H468 H 0.53833 0.68988 0.58493 0.0
H469 H 0.53727 0.71638 0.58504 0.0
H470 H 0.58592 0.74201 0.61593 0.0
H471 H 0.5869 0.71548 0.61576 0.0
H472 H 0.57268 0.62831 0.65218 0.0
H473 H 0.55938 0.6379 0.62689 0.0
H474 H 0.59106 0.60946 0.60345 0.0
H475 H 0.57728 0.61858 0.57836 0.0
H476 H 0.50926 0.60297 0.51282 0.0
H477 H 0.50804 0.64419 0.48113 0.0
H478 H 0.52334 0.66334 0.50951 0.0
H479 H 0.52501 0.62245 0.54104 0.0
C480 C 0.58713 0.14918 0.22428 0.0
C481 C 0.56986 0.1442 0.22664 0.0
C482 C 0.59687 0.14902 0.24091 0.0
C483 C 0.58915 0.14368 0.26039 0.0
C484 C 0.57158 0.13811 0.26273 0.0
C485 C 0.56217 0.13848 0.24585 0.0
C486 C 0.61558 0.15515 0.23779 0.0
C487 C 0.56283 0.13217 0.28318 0.0
C488 C 0.61257 0.13285 0.30079 0.0
C489 C 0.62083 0.14805 0.31208 0.0
C490 C 0.60204 0.13113 0.28408 0.0
C491 C 0.5997 0.14493 0.27853 0.0
C492 C 0.60776 0.16018 0.29009 0.0
C493 C 0.61818 0.16154 0.3067 0.0
C494 C 0.59365 0.11466 0.27215 0.0
C495 C 0.60555 0.17518 0.28477 0.0
H496 H 0.59322 0.1538 0.20955 0.0
H497 H 0.54878 0.1344 0.24772 0.0
H498 H 0.62333 0.16692 0.24684 0.0
H499 H 0.61866 0.14545 0.24336 0.0
H500 H 0.61941 0.15793 0.22148 0.0
H501 H 0.54889 0.1272 0.28217 0.0
H502 H 0.56497 0.12202 0.28946 0.0
H503 H 0.56837 0.14291 0.29422 0.0
H504 H 0.61466 0.12242 0.30472 0.0
H505 H 0.62426 0.17322 0.31555 0.0
H506 H 0.59839 0.11708 0.25616 0.0
H507 H 0.57967 0.10943 0.27153 0.0
H508 H 0.59618 0.1049 0.27892 0.0
H509 H 0.61027 0.17961 0.26903 0.0
H510 H 0.61249 0.18604 0.29547 0.0
H511 H 0.59183 0.17129 0.28505 0.0
C512 C 0.5014 0.59823 0.47017 0.0
C513 C 0.49727 0.61021 0.47776 0.0
C514 C 0.49223 0.58737 0.45384 0.0
C515 C 0.47861 0.58852 0.44488 0.0
C516 C 0.47429 0.60047 0.4526 0.0
C517 C 0.48362 0.61111 0.46893 0.0
C518 C 0.49722 0.57479 0.44605 0.0
C519 C 0.45981 0.60206 0.44355 0.0
C520 C 0.46383 0.57303 0.39059 0.0
C521 C 0.44866 0.55762 0.39403 0.0
C522 C 0.47397 0.58297 0.40698 0.0
C523 C 0.46886 0.57736 0.42732 0.0
C524 C 0.45386 0.56154 0.43087 0.0
C525 C 0.44394 0.55189 0.4142 0.0
C526 C 0.48984 0.59978 0.40253 0.0
C527 C 0.44804 0.55503 0.45231 0.0
H528 H 0.51202 0.59755 0.47675 0.0
H529 H 0.48012 0.62009 0.47492 0.0
H530 H 0.48611 0.56167 0.44674 0.0
H531 H 0.50116 0.57752 0.42978 0.0
H532 H 0.50785 0.57521 0.45497 0.0
H533 H 0.45807 0.61199 0.45131 0.0
H534 H 0.46222 0.6053 0.42707 0.0
H535 H 0.44774 0.5897 0.4447 0.0
H536 H 0.46748 0.57764 0.37507 0.0
H537 H 0.43237 0.53987 0.41697 0.0
H538 H 0.50098 0.60045 0.41046 0.0
H539 H 0.48825 0.61037 0.40847 0.0
H540 H 0.49266 0.6018 0.3859 0.0
H541 H 0.45847 0.55483 0.46095 0.0
H542 H 0.4367 0.54202 0.45245 0.0
H543 H 0.44479 0.56374 0.46053 0.0
C544 C 0.91228 0.49419 0.62312 0.0
C545 C 0.91337 0.48952 0.6433 0.0
C546 C 0.91287 0.48475 0.60641 0.0
C547 C 0.9146 0.47028 0.6099 0.0
C548 C 0.91628 0.46581 0.63018 0.0
C549 C 0.91564 0.47548 0.64663 0.0
C550 C 0.91112 0.49 0.58503 0.0
C551 C 0.91816 0.45048 0.63454 0.0
C552 C 0.89659 0.4356 0.5693 0.0
C553 C 0.91125 0.43877 0.55842 0.0
C554 C 0.89755 0.44567 0.58613 0.0
C555 C 0.91359 0.45923 0.5924 0.0
C556 C 0.9285 0.46239 0.5817 0.0
C557 C 0.92715 0.45215 0.56483 0.0
C558 C 0.88134 0.44184 0.59711 0.0
C559 C 0.94583 0.47672 0.58794 0.0
H560 H 0.91082 0.50518 0.6204 0.0
H561 H 0.91634 0.47169 0.66215 0.0
H562 H 0.92186 0.49156 0.57534 0.0
H563 H 0.89919 0.47987 0.57798 0.0
H564 H 0.91084 0.50211 0.58484 0.0
H565 H 0.92054 0.44943 0.651 0.0
H566 H 0.90637 0.43871 0.62989 0.0
H567 H 0.92881 0.45113 0.62547 0.0
H568 H 0.88429 0.4251 0.56476 0.0
H569 H 0.93854 0.45481 0.55643 0.0
H570 H 0.87957 0.45309 0.59639 0.0
H571 H 0.88223 0.43922 0.6135 0.0
H572 H 0.8699 0.43072 0.59046 0.0
H573 H 0.94621 0.48909 0.5865 0.0
H574 H 0.95624 0.47716 0.57848 0.0
H575 H 0.94831 0.47527 0.60423 0.0
C576 C 0.50045 0.91555 0.73178 0.0
C577 C 0.4988 0.89981 0.72629 0.0
C578 C 0.49092 0.91679 0.74801 0.0
C579 C 0.47945 0.90195 0.759 0.0
C580 C 0.47773 0.88605 0.75351 0.0
C581 C 0.48737 0.88517 0.73724 0.0
C582 C 0.49312 0.93397 0.7534 0.0
C583 C 0.4656 0.8699 0.76477 0.0
C584 C 0.46452 0.90455 0.81262 0.0
C585 C 0.44794 0.90144 0.8089 0.0
C586 C 0.47512 0.90529 0.79647 0.0
C587 C 0.46903 0.90288 0.77609 0.0
C588 C 0.45253 0.9003 0.77219 0.0
C589 C 0.44221 0.89961 0.78861 0.0
C590 C 0.49262 0.90804 0.80129 0.0
C591 C 0.44559 0.89778 0.75069 0.0
H592 H 0.50937 0.92695 0.72356 0.0
H593 H 0.48577 0.87291 0.7329 0.0
H594 H 0.48073 0.9336 0.75208 0.0
H595 H 0.49736 0.93717 0.76952 0.0
H596 H 0.50255 0.94429 0.74338 0.0
H597 H 0.46594 0.85859 0.75882 0.0
H598 H 0.46882 0.87129 0.78129 0.0
H599 H 0.45238 0.86752 0.7634 0.0
H600 H 0.469 0.90582 0.82824 0.0
H601 H 0.42953 0.89749 0.78558 0.0
H602 H 0.50242 0.91869 0.792 0.0
H603 H 0.49318 0.89645 0.79722 0.0
H604 H 0.49593 0.91092 0.81772 0.0
H605 H 0.45455 0.90844 0.74076 0.0
H606 H 0.43293 0.89693 0.75012 0.0
H607 H 0.44431 0.88589 0.74418 0.0
C608 C 0.56805 0.44786 0.96727 0.0
C609 C 0.57218 0.43597 0.97516 0.0
C610 C 0.57729 0.4586 0.95089 0.0
C611 C 0.59102 0.45745 0.94221 0.0
C612 C 0.5953 0.44556 0.9502 0.0
C613 C 0.58587 0.43502 0.96655 0.0
C614 C 0.57233 0.47111 0.94279 0.0
C615 C 0.60989 0.44397 0.94147 0.0
C616 C 0.60667 0.47303 0.88817 0.0
C617 C 0.62176 0.48845 0.89188 0.0
C618 C 0.59624 0.46307 0.90438 0.0
C619 C 0.601 0.46866 0.9248 0.0
C620 C 0.61591 0.48448 0.9286 0.0
C621 C 0.62611 0.49417 0.91212 0.0
C622 C 0.58047 0.44626 0.89967 0.0
C623 C 0.62138 0.49097 0.95013 0.0
H624 H 0.55739 0.44858 0.97369 0.0
H625 H 0.58936 0.4261 0.97277 0.0
H626 H 0.58335 0.48426 0.94372 0.0
H627 H 0.56873 0.46843 0.92643 0.0
H628 H 0.56148 0.47057 0.95136 0.0
H629 H 0.61152 0.43402 0.94934 0.0
H630 H 0.6077 0.44079 0.92496 0.0
H631 H 0.62195 0.45633 0.94282 0.0
H632 H 0.6033 0.46843 0.87261 0.0
H633 H 0.63761 0.50619 0.91509 0.0
H634 H 0.5692 0.44552 0.90736 0.0
H635 H 0.58201 0.43566 0.90569 0.0
H636 H 0.57788 0.4443 0.88299 0.0
H637 H 0.61079 0.49112 0.95847 0.0
H638 H 0.63269 0.504 0.95044 0.0
H639 H 0.62453 0.48227 0.95853 0.0
C640 C 0.17529 0.61125 0.06731 0.0
C641 C 0.16061 0.61 0.05841 0.0
C642 C 0.17418 0.60066 0.0836 0.0
C643 C 0.15798 0.58842 0.09122 0.0
C644 C 0.14308 0.58695 0.08223 0.0
C645 C 0.14457 0.59775 0.06593 0.0
C646 C 0.19039 0.60261 0.09268 0.0
C647 C 0.12557 0.57407 0.08993 0.0
C648 C 0.15685 0.55201 0.12143 0.0
C649 C 0.15777 0.55758 0.14167 0.0
C650 C 0.15633 0.56164 0.10489 0.0
C651 C 0.15676 0.57724 0.10864 0.0
C652 C 0.15713 0.58265 0.12906 0.0
C653 C 0.15761 0.57276 0.14532 0.0
C654 C 0.15581 0.55535 0.08337 0.0
C655 C 0.15765 0.59922 0.13372 0.0
H656 H 0.18773 0.62045 0.06138 0.0
H657 H 0.13316 0.5968 0.05929 0.0
H658 H 0.19108 0.60569 0.1092 0.0
H659 H 0.19042 0.59042 0.09138 0.0
H660 H 0.20199 0.61277 0.08503 0.0
H661 H 0.11524 0.57432 0.08107 0.0
H662 H 0.12381 0.56106 0.08905 0.0
H663 H 0.12428 0.5766 0.10624 0.0
H664 H 0.15669 0.54017 0.11849 0.0
H665 H 0.15849 0.57724 0.16088 0.0
H666 H 0.16773 0.5643 0.07522 0.0
H667 H 0.14507 0.55495 0.07477 0.0
H668 H 0.15442 0.54245 0.08307 0.0
H669 H 0.16975 0.61004 0.12794 0.0
H670 H 0.1567 0.60104 0.15038 0.0
H671 H 0.14707 0.59969 0.12578 0.0
C672 C 0.52344 0.23663 0.09082 0.0
C673 C 0.51173 0.22302 0.10298 0.0
C674 C 0.52376 0.2523 0.09066 0.0
C675 C 0.512 0.25439 0.10283 0.0
C676 C 0.5002 0.24072 0.11521 0.0
C677 C 0.50026 0.22524 0.1152 0.0
C678 C 0.53666 0.2666 0.07743 0.0
C679 C 0.48735 0.24238 0.12828 0.0
C680 C 0.52137 0.29919 0.11615 0.0
C681 C 0.5114 0.3018 0.10177 0.0
C682 C 0.52178 0.2839 0.11659 0.0
C683 C 0.51187 0.2708 0.10241 0.0
C684 C 0.50178 0.27335 0.08787 0.0
C685 C 0.50171 0.28883 0.08767 0.0
C686 C 0.53285 0.28176 0.13219 0.0
C687 C 0.49093 0.25967 0.07261 0.0
H688 H 0.53248 0.23507 0.08153 0.0
H689 H 0.49105 0.21472 0.12446 0.0
H690 H 0.53002 0.27026 0.066 0.0
H691 H 0.54462 0.27801 0.08696 0.0
H692 H 0.54517 0.26305 0.06919 0.0
H693 H 0.47914 0.23062 0.13717 0.0
H694 H 0.49401 0.25317 0.1391 0.0
H695 H 0.47909 0.24521 0.11847 0.0
H696 H 0.52904 0.30924 0.12692 0.0
H697 H 0.49383 0.29067 0.07668 0.0
H698 H 0.54217 0.27916 0.12436 0.0
H699 H 0.52488 0.27065 0.14214 0.0
H700 H 0.53993 0.29322 0.142 0.0
H701 H 0.49905 0.2564 0.06313 0.0
H702 H 0.48379 0.26363 0.06231 0.0
H703 H 0.48166 0.2479 0.08078 0.0
C704 C 0.24894 0.51039 0.25393 0.0
C705 C 0.23545 0.49886 0.2664 0.0
C706 C 0.26463 0.51072 0.25362 0.0
C707 C 0.26697 0.49932 0.26617 0.0
C708 C 0.25345 0.4877 0.27885 0.0
C709 C 0.23787 0.48757 0.27876 0.0
C710 C 0.2787 0.52328 0.23985 0.0
C711 C 0.25542 0.47535 0.29248 0.0
C712 C 0.30145 0.48865 0.25262 0.0
C713 C 0.3146 0.49905 0.26622 0.0
C714 C 0.286 0.48878 0.25228 0.0
C715 C 0.28351 0.49944 0.26597 0.0
C716 C 0.29671 0.51 0.27969 0.0
C717 C 0.31209 0.50972 0.2796 0.0
C718 C 0.27228 0.47736 0.23736 0.0
C719 C 0.29455 0.52153 0.29456 0.0
H720 H 0.24732 0.51933 0.24454 0.0
H721 H 0.22748 0.47842 0.28821 0.0
H722 H 0.29009 0.53182 0.2491 0.0
H723 H 0.28255 0.51639 0.22902 0.0
H724 H 0.27483 0.53122 0.23092 0.0
H725 H 0.24379 0.46732 0.30168 0.0
H726 H 0.25827 0.46689 0.28308 0.0
H727 H 0.26633 0.48242 0.30305 0.0
H728 H 0.30311 0.48016 0.24243 0.0
H729 H 0.32222 0.518 0.28995 0.0
H730 H 0.26865 0.48506 0.22761 0.0
H731 H 0.26069 0.4681 0.24582 0.0
H732 H 0.27639 0.47019 0.22732 0.0
H733 H 0.2918 0.53051 0.28613 0.0
H734 H 0.30605 0.52902 0.30418 0.0
H735 H 0.28351 0.51384 0.30475 0.0
C736 C 0.83372 0.28787 0.44924 0.0
C737 C 0.83629 0.30132 0.43635 0.0
C738 C 0.81821 0.27235 0.44922 0.0
C739 C 0.80484 0.27026 0.43612 0.0
C740 C 0.80729 0.28387 0.42324 0.0
C741 C 0.823 0.29919 0.42343 0.0
C742 C 0.81619 0.25811 0.46304 0.0
C743 C 0.7933 0.28223 0.40922 0.0
C744 C 0.77061 0.22521 0.4217 0.0
C745 C 0.7574 0.22223 0.43527 0.0
C746 C 0.78609 0.24076 0.42181 0.0
C747 C 0.78839 0.25375 0.43571 0.0
C748 C 0.77504 0.25088 0.44931 0.0
C749 C 0.75975 0.23514 0.44899 0.0
C750 C 0.80006 0.24323 0.4072 0.0
C751 C 0.7769 0.26445 0.46419 0.0
H752 H 0.84401 0.28936 0.45908 0.0
H753 H 0.82483 0.3096 0.4136 0.0
H754 H 0.80519 0.25426 0.47346 0.0
H755 H 0.81347 0.24678 0.45374 0.0
H756 H 0.82775 0.2618 0.4724 0.0
H757 H 0.7971 0.29411 0.40048 0.0
H758 H 0.78984 0.27167 0.39821 0.0
H759 H 0.7817 0.27902 0.41824 0.0
H760 H 0.76896 0.21523 0.41123 0.0
H761 H 0.74951 0.233 0.45935 0.0
H762 H 0.81164 0.24587 0.4159 0.0
H763 H 0.80357 0.25443 0.39726 0.0
H764 H 0.79625 0.23191 0.39734 0.0
H765 H 0.78776 0.26777 0.47465 0.0
H766 H 0.76523 0.26033 0.47351 0.0
H767 H 0.77977 0.27622 0.45578 0.0
C768 C 0.54598 0.7475 0.60589 0.0
C769 C 0.56097 0.74747 0.60053 0.0
C770 C 0.54539 0.76271 0.60621 0.0
C771 C 0.5601 0.77828 0.6009 0.0
C772 C 0.57524 0.77832 0.59535 0.0
C773 C 0.5755 0.76294 0.59529 0.0
C774 C 0.52904 0.76214 0.61235 0.0
C775 C 0.59116 0.7946 0.5894 0.0
C776 C 0.55521 0.81573 0.58361 0.0
C777 C 0.55991 0.82591 0.60127 0.0
C778 C 0.55506 0.80015 0.58333 0.0
C779 C 0.55972 0.79456 0.60114 0.0
C780 C 0.5643 0.80467 0.61908 0.0
C781 C 0.56435 0.82021 0.61892 0.0
C782 C 0.55003 0.78972 0.56392 0.0
C783 C 0.56937 0.79918 0.63837 0.0
H784 H 0.53476 0.73563 0.61018 0.0
H785 H 0.58706 0.763 0.59088 0.0
H786 H 0.53131 0.77031 0.62597 0.0
H787 H 0.52464 0.76727 0.59985 0.0
H788 H 0.51871 0.749 0.61598 0.0
H789 H 0.60187 0.79247 0.58542 0.0
H790 H 0.58849 0.80048 0.57608 0.0
H791 H 0.59524 0.80389 0.60217 0.0
H792 H 0.55151 0.81989 0.56999 0.0
H793 H 0.56819 0.82806 0.63256 0.0
H794 H 0.53901 0.77684 0.56691 0.0
H795 H 0.5607 0.78801 0.55859 0.0
H796 H 0.54656 0.79575 0.55146 0.0
H797 H 0.55903 0.7864 0.64316 0.0
H798 H 0.57214 0.80825 0.65119 0.0
H799 H 0.58087 0.79812 0.63546 0.0
C800 C 0.75928 0.53389 0.76779 0.0
C801 C 0.75946 0.5494 0.76979 0.0
C802 C 0.7745 0.53331 0.76778 0.0
C803 C 0.79032 0.5486 0.76992 0.0
C804 C 0.79058 0.56428 0.7721 0.0
C805 C 0.77518 0.56449 0.77196 0.0
C806 C 0.77367 0.51635 0.76528 0.0
C807 C 0.80715 0.58086 0.7746 0.0
C808 C 0.82915 0.54646 0.78807 0.0
C809 C 0.83803 0.54852 0.76971 0.0
C810 C 0.81357 0.54632 0.78834 0.0
C811 C 0.80662 0.54825 0.76981 0.0
C812 C 0.81541 0.55014 0.7512 0.0
C813 C 0.83099 0.55027 0.75138 0.0
C814 C 0.80458 0.54422 0.8085 0.0
C815 C 0.80845 0.55224 0.73111 0.0
H816 H 0.74721 0.52219 0.76587 0.0
H817 H 0.77542 0.5765 0.77378 0.0
H818 H 0.78083 0.51656 0.7514 0.0
H819 H 0.77981 0.51394 0.77853 0.0
H820 H 0.76037 0.50561 0.76394 0.0
H821 H 0.80518 0.59195 0.77624 0.0
H822 H 0.81404 0.58021 0.7883 0.0
H823 H 0.8155 0.58303 0.76118 0.0
H824 H 0.83433 0.54483 0.80227 0.0
H825 H 0.83784 0.55209 0.73715 0.0
H826 H 0.79159 0.53291 0.80791 0.0
H827 H 0.80313 0.55549 0.81144 0.0
H828 H 0.81158 0.5427 0.82153 0.0
H829 H 0.79541 0.54134 0.7286 0.0
H830 H 0.81657 0.55308 0.71792 0.0
H831 H 0.80748 0.56396 0.7315 0.0
C832 C 0.23372 0.76223 0.93764 0.0
C833 C 0.23314 0.74655 0.93533 0.0
C834 C 0.24931 0.77767 0.93757 0.0
C835 C 0.26474 0.77748 0.93503 0.0
C836 C 0.26426 0.7617 0.93269 0.0
C837 C 0.24848 0.74644 0.93293 0.0
C838 C 0.24926 0.79419 0.94028 0.0
C839 C 0.2804 0.76095 0.92979 0.0
C840 C 0.30352 0.81825 0.91627 0.0
C841 C 0.31248 0.82526 0.93453 0.0
C842 C 0.28808 0.80265 0.91618 0.0
C843 C 0.28137 0.79381 0.9348 0.0
C844 C 0.29042 0.80072 0.95325 0.0
C845 C 0.30584 0.81632 0.95289 0.0
C846 C 0.27883 0.79573 0.89618 0.0
C847 C 0.28374 0.79167 0.97341 0.0
H848 H 0.22194 0.76241 0.93977 0.0
H849 H 0.24813 0.7344 0.9309 0.0
H850 H 0.2569 0.80106 0.95393 0.0
H851 H 0.25531 0.80257 0.92686 0.0
H852 H 0.23619 0.79216 0.94213 0.0
H853 H 0.27786 0.74767 0.92826 0.0
H854 H 0.28721 0.76819 0.9159 0.0
H855 H 0.28908 0.76704 0.94297 0.0
H856 H 0.3084 0.82515 0.90205 0.0
H857 H 0.31279 0.82148 0.96702 0.0
H858 H 0.26612 0.79472 0.89683 0.0
H859 H 0.2767 0.78272 0.89352 0.0
H860 H 0.28597 0.8039 0.88296 0.0
H861 H 0.27103 0.79016 0.9766 0.0
H862 H 0.29237 0.79864 0.98637 0.0
H863 H 0.28209 0.7787 0.97266 0.0
C864 C 0.49256 0.05805 0.03489 0.0
C865 C 0.48292 0.05937 0.05085 0.0
C866 C 0.48516 0.04465 0.02066 0.0
C867 C 0.46768 0.0322 0.02241 0.0
C868 C 0.45782 0.03356 0.03832 0.0
C869 C 0.46554 0.04714 0.05232 0.0
C870 C 0.49611 0.04375 1.00384 0.0
C871 C 0.43916 1.02052 0.04077 0.0
C872 C 0.44598 1.00558 0.9751 0.0
C873 C 0.44651 0.99061 0.97898 0.0
C874 C 0.45253 1.01907 0.98924 0.0
C875 C 0.45984 1.01763 1.00773 0.0
C876 C 0.46013 1.00244 1.01192 0.0
C877 C 0.45345 0.98913 0.99753 0.0
C878 C 0.45185 0.03499 0.98425 0.0
C879 C 0.46786 1.0004 0.03142 0.0
H880 H 0.50593 0.06757 0.03348 0.0
H881 H 0.45804 0.04794 0.06474 0.0
H882 H 0.49638 0.03168 1.00507 0.0
H883 H 0.49059 0.04375 0.9887 0.0
H884 H 0.50942 0.05458 1.00439 0.0
H885 H 0.43315 1.02365 0.05359 0.0
H886 H 0.43217 1.01961 0.02646 0.0
H887 H 0.43767 1.00778 0.04361 0.0
H888 H 0.44043 1.00674 0.96094 0.0
H889 H 0.4541 0.97771 1.00056 0.0
H890 H 0.46498 0.04606 0.98331 0.0
H891 H 0.44516 0.03772 0.99661 0.0
H892 H 0.44524 0.03389 0.96954 0.0
H893 H 0.48161 1.0101 0.032 0.0
H894 H 0.46651 0.98756 0.03275 0.0
H895 H 0.46171 1.00256 0.04488 0.0
C896 C 0.49418 0.45381 0.15678 0.0
C897 C 0.4845 0.43783 0.1474 0.0
C898 C 0.48695 0.45966 0.17142 0.0
C899 C 0.46959 0.4493 0.1769 0.0
C900 C 0.45976 0.4331 0.16763 0.0
C901 C 0.46734 0.42755 0.15302 0.0
C902 C 0.49791 0.47696 0.18103 0.0
C903 C 0.44121 0.42169 0.17302 0.0
C904 C 0.45622 0.45905 0.22802 0.0
C905 C 0.4492 0.46914 0.22212 0.0
C906 C 0.46254 0.4522 0.21346 0.0
C907 C 0.46182 0.45547 0.19242 0.0
C908 C 0.45435 0.46526 0.1863 0.0
C909 C 0.44814 0.47198 0.20121 0.0
C910 C 0.47031 0.44176 0.22064 0.0
C911 C 0.45333 0.46904 0.16403 0.0
H912 H 0.50751 0.46173 0.15277 0.0
H913 H 0.45972 0.41527 0.14571 0.0
H914 H 0.49232 0.48519 0.17807 0.0
H915 H 0.49832 0.47564 0.19786 0.0
H916 H 0.51118 0.48346 0.17508 0.0
H917 H 0.43537 0.40939 0.1646 0.0
H918 H 0.43986 0.41899 0.18967 0.0
H919 H 0.43395 0.42824 0.16944 0.0
H920 H 0.45682 0.45653 0.24411 0.0
H921 H 0.4429 0.47988 0.1965 0.0
H922 H 0.48399 0.44823 0.21634 0.0
H923 H 0.46397 0.42913 0.21303 0.0
H924 H 0.46928 0.4398 0.23747 0.0
H925 H 0.46638 0.47682 0.15771 0.0
H926 H 0.44632 0.47604 0.1617 0.0
H927 H 0.44691 0.45702 0.15512 0.0
C928 C 0.05808 0.47583 0.31532 0.0
C929 C 0.0708 0.47129 0.31511 0.0
C930 C 0.04464 0.46867 0.32952 0.0
C931 C 0.04378 0.45655 0.34386 0.0
C932 C 0.05644 0.45174 0.34361 0.0
C933 C 0.0698 0.45917 0.32928 0.0
C934 C 1.0314 0.47414 0.32924 0.0
C935 C 0.05598 0.43888 0.35864 0.0
C936 C 1.01862 0.45094 0.39271 0.0
C937 C 1.00303 0.43615 0.3885 0.0
C938 C 1.03203 0.45755 0.37845 0.0
C939 C 1.02983 0.44926 0.35941 0.0
C940 C 1.01419 0.43427 0.35508 0.0
C941 C 1.00099 0.4279 0.36966 0.0
C942 C 0.04847 0.47358 0.38367 0.0
C943 C 1.01135 0.42504 0.33497 0.0
H944 H 0.05852 0.48492 0.30422 0.0
H945 H 0.07963 0.4557 0.32942 0.0
H946 H 1.01854 0.4629 0.32695 0.0
H947 H 1.03127 0.47988 0.34419 0.0
H948 H 1.0338 0.48357 0.31699 0.0
H949 H 0.06646 0.43609 0.35603 0.0
H950 H 0.05701 0.44371 0.37447 0.0
H951 H 0.04363 0.4268 0.3575 0.0
H952 H 1.02026 0.4576 0.40704 0.0
H953 H 0.98909 0.41636 0.36634 0.0
H954 H 0.05076 0.48381 0.37264 0.0
H955 H 0.05936 0.47126 0.38237 0.0
H956 H 0.04835 0.4782 0.39938 0.0
H957 H 1.01261 0.43362 0.32216 0.0
H958 H 0.99857 0.4134 0.33408 0.0
H959 H 1.02121 0.42135 0.33274 0.0
C960 C 0.61831 0.05966 0.50024 0.0
C961 C 0.62308 0.05731 0.48061 0.0
C962 C 0.61179 0.04643 0.51474 0.0
C963 C 0.61 0.03043 0.50954 0.0
C964 C 0.61516 0.0281 0.48993 0.0
C965 C 0.62161 0.04154 0.47572 0.0
C966 C 0.60641 0.04944 0.53546 0.0
C967 C 0.61357 1.0113 0.48382 0.0
C968 C 0.60471 0.99982 0.55264 0.0
C969 C 0.58697 0.98891 0.55297 0.0
C970 C 0.6124 1.01332 0.53854 0.0
C971 C 0.60213 1.01596 0.52435 0.0
C972 C 0.58425 1.00485 0.52442 0.0
C973 C 0.5769 0.9915 0.53871 0.0
C974 C 0.6315 0.02491 0.53901 0.0
C975 C 0.57285 1.00712 0.50946 0.0
H976 H 0.61921 0.07171 0.50409 0.0
H977 H 0.6255 0.03968 0.46071 0.0
H978 H 0.5925 0.04084 0.53751 0.0
H979 H 0.61292 0.04639 0.54773 0.0
H980 H 0.60933 0.0628 0.53746 0.0
H981 H 0.61873 1.01174 0.46827 0.0
H982 H 0.62044 1.00764 0.49492 0.0
H983 H 0.59997 1.00114 0.48412 0.0
H984 H 0.61256 0.99804 0.56374 0.0
H985 H 0.56322 0.983 0.53866 0.0
H986 H 0.6346 0.03814 0.54244 0.0
H987 H 0.63702 0.02509 0.5238 0.0
H988 H 0.63773 1.02091 0.55065 0.0
H989 H 0.57414 1.01986 0.51154 0.0
H990 H 0.55921 0.99727 0.51134 0.0
H991 H 0.57678 1.00651 0.49356 0.0
C992 C 0.6331 0.58663 0.70354 0.0
C993 C 0.62242 0.57633 0.71936 0.0
C994 C 0.62734 0.59409 0.68906 0.0
C995 C 0.61047 0.59116 0.69034 0.0
C996 C 0.5997 0.58095 0.70638 0.0
C997 C 0.6058 0.57372 0.72069 0.0
C998 C 0.63922 0.60489 0.6722 0.0
C999 C 0.58164 0.57752 0.70834 0.0
C1000 C 0.59855 0.62082 0.66284 0.0
C1001 C 0.59032 0.61136 0.64526 0.0
C1002 C 0.60533 0.61451 0.67753 0.0
C1003 C 0.60387 0.59834 0.6746 0.0
C1004 C 0.59571 0.5888 0.65684 0.0
C1005 C 0.58901 0.59538 0.64245 0.0
C1006 C 0.61396 0.62509 0.69625 0.0
C1007 C 0.59383 0.57149 0.65315 0.0
H1008 H 0.64589 0.5886 0.70223 0.0
H1009 H 0.59755 0.56607 0.73305 0.0
H1010 H 0.63391 0.59897 0.65714 0.0
H1011 H 0.64041 0.61768 0.67218 0.0
H1012 H 0.65215 0.60648 0.67377 0.0
H1013 H 0.57498 0.56953 0.72187 0.0
H1014 H 0.58163 0.58972 0.7096 0.0
H1015 H 0.57427 0.57093 0.69442 0.0
H1016 H 0.59982 0.63326 0.66505 0.0
H1017 H 0.58243 0.58783 0.62913 0.0
H1018 H 0.62722 0.62753 0.69729 0.0
H1019 H 0.60717 0.61801 0.71023 0.0
H1020 H 0.61429 0.63751 0.69612 0.0
H1021 H 0.60652 0.57244 0.65339 0.0
H1022 H 0.58759 0.5659 0.63828 0.0
H1023 H 0.58613 0.56262 0.66557 0.0
C1024 C 0.9998 0.57313 0.83436 0.0
C1025 C 1.00285 0.57928 0.81421 0.0
C1026 C 1.0129 0.57969 0.84906 0.0
C1027 C 1.02947 0.59274 0.8435 0.0
C1028 C 1.03253 0.5993 0.82333 0.0
C1029 C 1.01921 0.5925 0.80895 0.0
C1030 C 1.0091 0.57233 0.87039 0.0
C1031 C 0.04997 0.61327 0.81681 0.0
C1032 C 0.06087 0.61853 0.88578 0.0
C1033 C 0.07056 0.61042 0.88744 0.0
C1034 C 0.0475 0.61298 0.87152 0.0
C1035 C 0.04376 0.59902 0.85854 0.0
C1036 C 0.05364 0.59092 0.85998 0.0
C1037 C 0.06688 0.5967 0.87439 0.0
C1038 C 0.03724 0.62192 0.87051 0.0
C1039 C 0.05017 0.57608 0.84633 0.0
H1040 H 0.98728 0.5628 0.83852 0.0
H1041 H 1.02162 0.59752 0.79351 0.0
H1042 H 1.01667 0.56603 0.87355 0.0
H1043 H 1.0129 0.58265 0.88184 0.0
H1044 H 0.99538 0.56285 0.87257 0.0
H1045 H 0.05009 0.61746 0.80081 0.0
H1046 H 0.0544 0.62445 0.82707 0.0
H1047 H 0.05927 0.60875 0.8181 0.0
H1048 H 0.0635 0.62902 0.89595 0.0
H1049 H 0.07446 0.59051 0.87536 0.0
H1050 H 1.02368 0.61278 0.87408 0.0
H1051 H 0.03767 0.62675 0.85481 0.0
H1052 H 0.04197 0.63279 0.88137 0.0
H1053 H 0.03695 0.56548 0.84874 0.0
H1054 H 0.0591 0.57126 0.84925 0.0
H1055 H 0.05128 0.57992 0.83004 0.0
loop_
_geom_bond_atom_site_label_1
_geom_bond_atom_site_label_2
_geom_bond_distance
_geom_bond_site_symmetry_2
_ccdc_geom_bond_type
C0 C1 1.264 . S
C0 C5 1.479 . S
C0 C10 1.465 . S
C1 C0 1.264 . S
C1 C3 1.339 . S
C1 H28 0.931 . S
C2 C3 1.395 . S
C2 C4 1.320 . S
C3 C1 1.339 . S
C3 C2 1.395 . S
C3 H29 0.929 . S
C4 C2 1.320 . S
C4 C5 1.405 . S
C4 H30 0.930 . S
C5 C0 1.479 . S
C5 C4 1.405 . S
C5 H31 0.931 . S
U6 O7 2.454 . S
U6 O8 2.458 . S
U6 C9 2.984 . S
U6 C10 2.847 . S
U6 C23 2.882 . S
U6 O24 2.441 . S
U6 O25 2.420 . S
U6 O26 2.455 . S
U6 O27 2.449 . S
O7 U6 2.454 . S
O7 C9 1.353 . S
O8 U6 2.458 . S
O8 C9 1.286 . S
C9 U6 2.984 . S
C9 O7 1.353 . S
C9 O8 1.286 . S
C9 C11 1.363 . S
C10 C0 1.465 . S
C10 U6 2.847 . S
C10 O24 1.249 . S
C10 O25 1.202 . S
C11 C9 1.363 . S
C11 C13 1.408 . S
C11 C16 1.342 . S
C12 C13 1.310 . S
C12 C15 1.461 . S
C12 H32 0.932 . S
C13 C11 1.408 . S
C13 C12 1.310 . S
C13 H33 0.930 . S
C14 C15 1.474 . S
C14 C16 1.285 . S
C14 H34 0.929 . S
C15 C12 1.461 . S
C15 C14 1.474 . S
C16 C11 1.342 . S
C16 C14 1.285 . S
C16 H35 0.930 . S
C17 C20 1.424 . S
C17 C22 1.245 . S
C17 C23 1.428 . S
C18 C21 1.260 . S
C18 C22 1.477 . S
C18 H36 0.932 . S
C19 C20 1.384 . S
C19 C21 1.479 . S
C19 H37 0.929 . S
C20 C17 1.424 . S
C20 C19 1.384 . S
C20 H38 0.928 . S
C21 C18 1.260 . S
C21 C19 1.479 . S
C22 C17 1.245 . S
C22 C18 1.477 . S
C22 H39 0.932 . S
C23 U6 2.882 . S
C23 C17 1.428 . S
C23 O26 1.301 . S
C23 O27 1.282 . S
O24 U6 2.441 . S
O24 C10 1.249 . S
O25 U6 2.420 . S
O25 C10 1.202 . S
O26 U6 2.455 . S
O26 C23 1.301 . S
O27 U6 2.449 . S
O27 C23 1.282 . S
H28 C1 0.931 . S
H29 C3 0.929 . S
H30 C4 0.930 . S
H31 C5 0.931 . S
H32 C12 0.932 . S
H33 C13 0.930 . S
H34 C14 0.929 . S
H35 C16 0.930 . S
H36 C18 0.932 . S
H37 C19 0.929 . S
H38 C20 0.928 . S
H39 C22 0.932 . S
C40 C41 1.264 . S
C40 C45 1.479 . S
C40 C50 1.465 . S
C41 C40 1.264 . S
C41 C43 1.339 . S
C41 H68 0.931 . S
C42 C43 1.395 . S
C42 C44 1.320 . S
C43 C41 1.339 . S
C43 C42 1.395 . S
C43 H69 0.929 . S
C44 C42 1.320 . S
C44 C45 1.405 . S
C44 H70 0.930 . S
C45 C40 1.479 . S
C45 C44 1.405 . S
C45 H71 0.931 . S
U46 O47 2.454 . S
U46 O48 2.458 . S
U46 C49 2.984 . S
U46 C50 2.847 . S
U46 C63 2.882 . S
U46 O64 2.441 . S
U46 O65 2.420 . S
U46 O66 2.455 . S
U46 O67 2.449 . S
O47 U46 2.454 . S
O47 C49 1.353 . S
O48 U46 2.458 . S
O48 C49 1.286 . S
C49 U46 2.984 . S
C49 O47 1.353 . S
C49 O48 1.286 . S
C49 C51 1.363 . S
C50 C40 1.465 . S
C50 U46 2.847 . S
C50 O64 1.249 . S
C50 O65 1.202 . S
C51 C49 1.363 . S
C51 C53 1.408 . S
C51 C56 1.342 . S
C52 C53 1.310 . S
C52 C55 1.461 . S
C52 H72 0.932 . S
C53 C51 1.408 . S
C53 C52 1.310 . S
C53 H73 0.930 . S
C54 C55 1.474 . S
C54 C56 1.285 . S
C54 H74 0.929 . S
C55 C52 1.461 . S
C55 C54 1.474 . S
C56 C51 1.342 . S
C56 C54 1.285 . S
C56 H75 0.930 . S
C57 C60 1.424 . S
C57 C62 1.245 . S
C57 C63 1.428 . S
C58 C61 1.260 . S
C58 C62 1.477 . S
C58 H76 0.932 . S
C59 C60 1.384 . S
C59 C61 1.479 . S
C59 H77 0.929 . S
C60 C57 1.424 . S
C60 C59 1.384 . S
C60 H78 0.928 . S
C61 C58 1.260 . S
C61 C59 1.479 . S
C62 C57 1.245 . S
C62 C58 1.477 . S
C62 H79 0.932 . S
C63 U46 2.882 . S
C63 C57 1.428 . S
C63 O66 1.301 . S
C63 O67 1.282 . S
O64 U46 2.441 . S
O64 C50 1.249 . S
O65 U46 2.420 . S
O65 C50 1.202 . S
O66 U46 2.455 . S
O66 C63 1.301 . S
O67 U46 2.449 . S
O67 C63 1.282 . S
H68 C41 0.931 . S
H69 C43 0.929 . S
H70 C44 0.930 . S
H71 C45 0.931 . S
H72 C52 0.932 . S
H73 C53 0.930 . S
H74 C54 0.929 . S
H75 C56 0.930 . S
H76 C58 0.932 . S
H77 C59 0.929 . S
H78 C60 0.928 . S
H79 C62 0.932 . S
C80 C81 1.264 . S
C80 C85 1.479 . S
C80 C90 1.465 . S
C81 C80 1.264 . S
C81 C83 1.339 . S
C81 H108 0.931 . S
C82 C83 1.395 . S
C82 C84 1.320 . S
C83 C81 1.339 . S
C83 C82 1.395 . S
C83 H109 0.929 . S
C84 C82 1.320 . S
C84 C85 1.405 . S
C84 H110 0.930 . S
C85 C80 1.479 . S
C85 C84 1.405 . S
C85 H111 0.931 . S
U86 O87 2.454 . S
U86 O88 2.458 . S
U86 C89 2.984 . S
U86 C90 2.847 . S
U86 C103 2.882 . S
U86 O104 2.441 . S
U86 O105 2.420 . S
U86 O106 2.455 . S
U86 O107 2.449 . S
O87 U86 2.454 . S
O87 C89 1.353 . S
O88 U86 2.458 . S
O88 C89 1.286 . S
C89 U86 2.984 . S
C89 O87 1.353 . S
C89 O88 1.286 . S
C89 C91 1.363 . S
C90 C80 1.465 . S
C90 U86 2.847 . S
C90 O104 1.249 . S
C90 O105 1.202 . S
C91 C89 1.363 . S
C91 C93 1.408 . S
C91 C96 1.342 . S
C92 C93 1.310 . S
C92 C95 1.461 . S
C92 H112 0.932 . S
C93 C91 1.408 . S
C93 C92 1.310 . S
C93 H113 0.930 . S
C94 C95 1.474 . S
C94 C96 1.285 . S
C94 H114 0.929 . S
C95 C92 1.461 . S
C95 C94 1.474 . S
C96 C91 1.342 . S
C96 C94 1.285 . S
C96 H115 0.930 . S
C97 C100 1.424 . S
C97 C102 1.245 . S
C97 C103 1.428 . S
C98 C101 1.260 . S
C98 C102 1.477 . S
C98 H116 0.932 . S
C99 C100 1.384 . S
C99 C101 1.479 . S
C99 H117 0.929 . S
C100 C97 1.424 . S
C100 C99 1.384 . S
C100 H118 0.928 . S
C101 C98 1.260 . S
C101 C99 1.479 . S
C102 C97 1.245 . S
C102 C98 1.477 . S
C102 H119 0.932 . S
C103 U86 2.882 . S
C103 C97 1.428 . S
C103 O106 1.301 . S
C103 O107 1.282 . S
O104 U86 2.441 . S
O104 C90 1.249 . S
O105 U86 2.420 . S
O105 C90 1.202 . S
O106 U86 2.455 . S
O106 C103 1.301 . S
O107 U86 2.449 . S
O107 C103 1.282 . S
H108 C81 0.931 . S
H109 C83 0.929 . S
H110 C84 0.930 . S
H111 C85 0.931 . S
H112 C92 0.932 . S
H113 C93 0.930 . S
H114 C94 0.929 . S
H115 C96 0.930 . S
H116 C98 0.932 . S
H117 C99 0.929 . S
H118 C100 0.928 . S
H119 C102 0.932 . S
C120 C121 1.264 . S
C120 C125 1.479 . S
C120 C130 1.465 . S
C121 C120 1.264 . S
C121 C123 1.339 . S
C121 H148 0.931 . S
C122 C123 1.395 . S
C122 C124 1.320 . S
C123 C121 1.339 . S
C123 C122 1.395 . S
C123 H149 0.929 . S
C124 C122 1.320 . S
C124 C125 1.405 . S
C124 H150 0.930 . S
C125 C120 1.479 . S
C125 C124 1.405 . S
C125 H151 0.931 . S
U126 O127 2.454 . S
U126 O128 2.458 . S
U126 C129 2.984 . S
U126 C130 2.847 . S
U126 C143 2.882 . S
U126 O144 2.441 . S
U126 O145 2.420 . S
U126 O146 2.455 . S
U126 O147 2.449 . S
O127 U126 2.454 . S
O127 C129 1.353 . S
O128 U126 2.458 . S
O128 C129 1.286 . S
C129 U126 2.984 . S
C129 O127 1.353 . S
C129 O128 1.286 . S
C129 C131 1.363 . S
C130 C120 1.465 . S
C130 U126 2.847 . S
C130 O144 1.249 . S
C130 O145 1.202 . S
C131 C129 1.363 . S
C131 C133 1.408 . S
C131 C136 1.342 . S
C132 C133 1.310 . S
C132 C135 1.461 . S
C132 H152 0.932 . S
C133 C131 1.408 . S
C133 C132 1.310 . S
C133 H153 0.930 . S
C134 C135 1.474 . S
C134 C136 1.285 . S
C134 H154 0.929 . S
C135 C132 1.461 . S
C135 C134 1.474 . S
C136 C131 1.342 . S
C136 C134 1.285 . S
C136 H155 0.930 . S
C137 C140 1.424 . S
C137 C142 1.245 . S
C137 C143 1.428 . S
C138 C141 1.260 . S
C138 C142 1.477 . S
C138 H156 0.932 . S
C139 C140 1.384 . S
C139 C141 1.479 . S
C139 H157 0.929 . S
C140 C137 1.424 . S
C140 C139 1.384 . S
C140 H158 0.928 . S
C141 C138 1.260 . S
C141 C139 1.479 . S
C142 C137 1.245 . S
C142 C138 1.477 . S
C142 H159 0.932 . S
C143 U126 2.882 . S
C143 C137 1.428 . S
C143 O146 1.301 . S
C143 O147 1.282 . S
O144 U126 2.441 . S
O144 C130 1.249 . S
O145 U126 2.420 . S
O145 C130 1.202 . S
O146 U126 2.455 . S
O146 C143 1.301 . S
O147 U126 2.449 . S
O147 C143 1.282 . S
H148 C121 0.931 . S
H149 C123 0.929 . S
H150 C124 0.930 . S
H151 C125 0.931 . S
H152 C132 0.932 . S
H153 C133 0.930 . S
H154 C134 0.929 . S
H155 C136 0.930 . S
H156 C138 0.932 . S
H157 C139 0.929 . S
H158 C140 0.928 . S
H159 C142 0.932 . S
C160 C161 1.264 . S
C160 C165 1.479 . S
C160 C170 1.465 . S
C161 C160 1.264 . S
C161 C163 1.339 . S
C161 H188 0.931 . S
C162 C163 1.395 . S
C162 C164 1.320 . S
C163 C161 1.339 . S
C163 C162 1.395 . S
C163 H189 0.929 . S
C164 C162 1.320 . S
C164 C165 1.405 . S
C164 H190 0.930 . S
C165 C160 1.479 . S
C165 C164 1.405 . S
C165 H191 0.931 . S
U166 O167 2.454 . S
U166 O168 2.458 . S
U166 C169 2.984 . S
U166 C170 2.847 . S
U166 C183 2.882 . S
U166 O184 2.441 . S
U166 O185 2.420 . S
U166 O186 2.455 . S
U166 O187 2.449 . S
O167 U166 2.454 . S
O167 C169 1.353 . S
O168 U166 2.458 . S
O168 C169 1.286 . S
C169 U166 2.984 . S
C169 O167 1.353 . S
C169 O168 1.286 . S
C169 C171 1.363 . S
C170 C160 1.465 . S
C170 U166 2.847 . S
C170 O184 1.249 . S
C170 O185 1.202 . S
C171 C169 1.363 . S
C171 C173 1.408 . S
C171 C176 1.342 . S
C172 C173 1.310 . S
C172 C175 1.461 . S
C172 H192 0.932 . S
C173 C171 1.408 . S
C173 C172 1.310 . S
C173 H193 0.930 . S
C174 C175 1.474 . S
C174 C176 1.285 . S
C174 H194 0.929 . S
C175 C172 1.461 . S
C175 C174 1.474 . S
C176 C171 1.342 . S
C176 C174 1.285 . S
C176 H195 0.930 . S
C177 C180 1.424 . S
C177 C182 1.245 . S
C177 C183 1.428 . S
C178 C181 1.260 . S
C178 C182 1.477 . S
C178 H196 0.932 . S
C179 C180 1.384 . S
C179 C181 1.479 . S
C179 H197 0.929 . S
C180 C177 1.424 . S
C180 C179 1.384 . S
C180 H198 0.928 . S
C181 C178 1.260 . S
C181 C179 1.479 . S
C182 C177 1.245 . S
C182 C178 1.477 . S
C182 H199 0.932 . S
C183 U166 2.882 . S
C183 C177 1.428 . S
C183 O186 1.301 . S
C183 O187 1.282 . S
O184 U166 2.441 . S
O184 C170 1.249 . S
O185 U166 2.420 . S
O185 C170 1.202 . S
O186 U166 2.455 . S
O186 C183 1.301 . S
O187 U166 2.449 . S
O187 C183 1.282 . S
H188 C161 0.931 . S
H189 C163 0.929 . S
H190 C164 0.930 . S
H191 C165 0.931 . S
H192 C172 0.932 . S
H193 C173 0.930 . S
H194 C174 0.929 . S
H195 C176 0.930 . S
H196 C178 0.932 . S
H197 C179 0.929 . S
H198 C180 0.928 . S
H199 C182 0.932 . S
C200 C201 1.264 . S
C200 C205 1.479 . S
C200 C210 1.465 . S
C201 C200 1.264 . S
C201 C203 1.339 . S
C201 H228 0.931 . S
C202 C203 1.395 . S
C202 C204 1.320 . S
C203 C201 1.339 . S
C203 C202 1.395 . S
C203 H229 0.929 . S
C204 C202 1.320 . S
C204 C205 1.405 . S
C204 H230 0.930 . S
C205 C200 1.479 . S
C205 C204 1.405 . S
C205 H231 0.931 . S
U206 O207 2.454 . S
U206 O208 2.458 . S
U206 C209 2.984 . S
U206 C210 2.847 . S
U206 C223 2.882 . S
U206 O224 2.441 . S
U206 O225 2.420 . S
U206 O226 2.455 . S
U206 O227 2.449 . S
O207 U206 2.454 . S
O207 C209 1.353 . S
O208 U206 2.458 . S
O208 C209 1.286 . S
C209 U206 2.984 . S
C209 O207 1.353 . S
C209 O208 1.286 . S
C209 C211 1.363 . S
C210 C200 1.465 . S
C210 U206 2.847 . S
C210 O224 1.249 . S
C210 O225 1.202 . S
C211 C209 1.363 . S
C211 C213 1.408 . S
C211 C216 1.342 . S
C212 C213 1.310 . S
C212 C215 1.461 . S
C212 H232 0.932 . S
C213 C211 1.408 . S
C213 C212 1.310 . S
C213 H233 0.930 . S
C214 C215 1.474 . S
C214 C216 1.285 . S
C214 H234 0.929 . S
C215 C212 1.461 . S
C215 C214 1.474 . S
C216 C211 1.342 . S
C216 C214 1.285 . S
C216 H235 0.930 . S
C217 C220 1.424 . S
C217 C222 1.245 . S
C217 C223 1.428 1_554 S
C218 C221 1.260 . S
C218 C222 1.477 . S
C218 H236 0.932 . S
C219 C220 1.384 . S
C219 C221 1.479 . S
C219 H237 0.929 . S
C220 C217 1.424 . S
C220 C219 1.384 . S
C220 H238 0.928 . S
C221 C218 1.260 . S
C221 C219 1.479 . S
C222 C217 1.245 . S
C222 C218 1.477 . S
C222 H239 0.932 1_554 S
C223 U206 2.882 . S
C223 C217 1.428 1_556 S
C223 O226 1.301 . S
C223 O227 1.282 . S
O224 U206 2.441 . S
O224 C210 1.249 . S
O225 U206 2.420 . S
O225 C210 1.202 . S
O226 U206 2.455 . S
O226 C223 1.301 . S
O227 U206 2.449 . S
O227 C223 1.282 . S
H228 C201 0.931 . S
H229 C203 0.929 . S
H230 C204 0.930 . S
H231 C205 0.931 . S
H232 C212 0.932 . S
H233 C213 0.930 . S
H234 C214 0.929 . S
H235 C216 0.930 . S
H236 C218 0.932 . S
H237 C219 0.929 . S
H238 C220 0.928 . S
H239 C222 0.932 1_556 S
C240 C241 1.264 . S
C240 C245 1.479 . S
C240 C250 1.465 . S
C241 C240 1.264 . S
C241 C243 1.339 . S
C241 H268 0.931 . S
C242 C243 1.395 . S
C242 C244 1.320 . S
C243 C241 1.339 . S
C243 C242 1.395 . S
C243 H269 0.929 . S
C244 C242 1.320 . S
C244 C245 1.405 . S
C244 H270 0.930 . S
C245 C240 1.479 . S
C245 C244 1.405 . S
C245 H271 0.931 . S
U246 O247 2.454 . S
U246 O248 2.458 . S
U246 C249 2.984 . S
U246 C250 2.847 . S
U246 C263 2.882 . S
U246 O264 2.441 . S
U246 O265 2.420 . S
U246 O266 2.455 . S
U246 O267 2.449 . S
O247 U246 2.454 . S
O247 C249 1.353 . S
O248 U246 2.458 . S
O248 C249 1.286 . S
C249 U246 2.984 . S
C249 O247 1.353 . S
C249 O248 1.286 . S
C249 C251 1.363 . S
C250 C240 1.465 . S
C250 U246 2.847 . S
C250 O264 1.249 . S
C250 O265 1.202 . S
C251 C249 1.363 . S
C251 C253 1.408 . S
C251 C256 1.342 . S
C252 C253 1.310 . S
C252 C255 1.461 . S
C252 H272 0.932 . S
C253 C251 1.408 . S
C253 C252 1.310 . S
C253 H273 0.930 . S
C254 C255 1.474 . S
C254 C256 1.285 . S
C254 H274 0.929 . S
C255 C252 1.461 . S
C255 C254 1.474 . S
C256 C251 1.342 . S
C256 C254 1.285 . S
C256 H275 0.930 . S
C257 C260 1.424 . S
C257 C262 1.245 . S
C257 C263 1.428 . S
C258 C261 1.260 . S
C258 C262 1.477 . S
C258 H276 0.932 . S
C259 C260 1.384 . S
C259 C261 1.479 . S
C259 H277 0.929 . S
C260 C257 1.424 . S
C260 C259 1.384 . S
C260 H278 0.928 . S
C261 C258 1.260 . S
C261 C259 1.479 . S
C262 C257 1.245 . S
C262 C258 1.477 . S
C262 H279 0.932 . S
C263 U246 2.882 . S
C263 C257 1.428 . S
C263 O266 1.301 . S
C263 O267 1.282 . S
O264 U246 2.441 . S
O264 C250 1.249 . S
O265 U246 2.420 . S
O265 C250 1.202 . S
O266 U246 2.455 . S
O266 C263 1.301 . S
O267 U246 2.449 . S
O267 C263 1.282 . S
H268 C241 0.931 . S
H269 C243 0.929 . S
H270 C244 0.930 . S
H271 C245 0.931 . S
H272 C252 0.932 . S
H273 C253 0.930 . S
H274 C254 0.929 . S
H275 C256 0.930 . S
H276 C258 0.932 . S
H277 C259 0.929 . S
H278 C260 0.928 . S
H279 C262 0.932 . S
C280 C281 1.264 . S
C280 C285 1.479 . S
C280 C290 1.465 . S
C281 C280 1.264 . S
C281 C283 1.339 . S
C281 H308 0.931 . S
C282 C283 1.395 . S
C282 C284 1.320 . S
C283 C281 1.339 . S
C283 C282 1.395 . S
C283 H309 0.929 . S
C284 C282 1.320 . S
C284 C285 1.405 . S
C284 H310 0.930 . S
C285 C280 1.479 . S
C285 C284 1.405 . S
C285 H311 0.931 . S
U286 O287 2.454 . S
U286 O288 2.458 . S
U286 C289 2.984 . S
U286 C290 2.847 . S
U286 C303 2.882 . S
U286 O304 2.441 . S
U286 O305 2.420 . S
U286 O306 2.455 . S
U286 O307 2.449 . S
O287 U286 2.454 . S
O287 C289 1.353 . S
O288 U286 2.458 . S
O288 C289 1.286 . S
C289 U286 2.984 . S
C289 O287 1.353 . S
C289 O288 1.286 . S
C289 C291 1.363 . S
C290 C280 1.465 . S
C290 U286 2.847 . S
C290 O304 1.249 . S
C290 O305 1.202 . S
C291 C289 1.363 . S
C291 C293 1.408 . S
C291 C296 1.342 . S
C292 C293 1.310 . S
C292 C295 1.461 . S
C292 H312 0.932 . S
C293 C291 1.408 . S
C293 C292 1.310 . S
C293 H313 0.930 . S
C294 C295 1.474 . S
C294 C296 1.285 . S
C294 H314 0.929 . S
C295 C292 1.461 . S
C295 C294 1.474 . S
C296 C291 1.342 . S
C296 C294 1.285 . S
C296 H315 0.930 . S
C297 C300 1.424 . S
C297 C302 1.245 . S
C297 C303 1.428 . S
C298 C301 1.260 . S
C298 C302 1.477 . S
C298 H316 0.932 . S
C299 C300 1.384 . S
C299 C301 1.479 . S
C299 H317 0.929 . S
C300 C297 1.424 . S
C300 C299 1.384 . S
C300 H318 0.928 . S
C301 C298 1.260 . S
C301 C299 1.479 . S
C302 C297 1.245 . S
C302 C298 1.477 . S
C302 H319 0.932 . S
C303 U286 2.882 . S
C303 C297 1.428 . S
C303 O306 1.301 . S
C303 O307 1.282 . S
O304 U286 2.441 . S
O304 C290 1.249 . S
O305 U286 2.420 . S
O305 C290 1.202 . S
O306 U286 2.455 . S
O306 C303 1.301 . S
O307 U286 2.449 . S
O307 C303 1.282 . S
H308 C281 0.931 . S
H309 C283 0.929 . S
H310 C284 0.930 . S
H311 C285 0.931 . S
H312 C292 0.932 . S
H313 C293 0.930 . S
H314 C294 0.929 . S
H315 C296 0.930 . S
H316 C298 0.932 . S
H317 C299 0.929 . S
H318 C300 0.928 . S
H319 C302 0.932 . S
C320 C321 1.264 . S
C320 C325 1.479 . S
C320 C330 1.465 . S
C321 C320 1.264 . S
C321 C323 1.339 . S
C321 H348 0.931 . S
C322 C323 1.395 . S
C322 C324 1.320 . S
C323 C321 1.339 . S
C323 C322 1.395 . S
C323 H349 0.929 . S
C324 C322 1.320 . S
C324 C325 1.405 . S
C324 H350 0.930 . S
C325 C320 1.479 . S
C325 C324 1.405 . S
C325 H351 0.931 . S
U326 O327 2.454 . S
U326 O328 2.458 . S
U326 C329 2.984 . S
U326 C330 2.847 . S
U326 C343 2.882 . S
U326 O344 2.441 . S
U326 O345 2.420 . S
U326 O346 2.455 . S
U326 O347 2.449 . S
O327 U326 2.454 . S
O327 C329 1.353 . S
O328 U326 2.458 . S
O328 C329 1.286 . S
C329 U326 2.984 . S
C329 O327 1.353 . S
C329 O328 1.286 . S
C329 C331 1.363 . S
C330 C320 1.465 . S
C330 U326 2.847 . S
C330 O344 1.249 . S
C330 O345 1.202 . S
C331 C329 1.363 . S
C331 C333 1.408 . S
C331 C336 1.342 . S
C332 C333 1.310 . S
C332 C335 1.461 . S
C332 H352 0.932 . S
C333 C331 1.408 . S
C333 C332 1.310 . S
C333 H353 0.930 . S
C334 C335 1.474 . S
C334 C336 1.285 . S
C334 H354 0.929 . S
C335 C332 1.461 . S
C335 C334 1.474 . S
C336 C331 1.342 . S
C336 C334 1.285 . S
C336 H355 0.930 . S
C337 C340 1.424 . S
C337 C342 1.245 . S
C337 C343 1.428 1_556 S
C338 C341 1.260 . S
C338 C342 1.477 . S
C338 H356 0.932 . S
C339 C340 1.384 . S
C339 C341 1.479 . S
C339 H357 0.929 . S
C340 C337 1.424 . S
C340 C339 1.384 . S
C340 H358 0.928 . S
C341 C338 1.260 . S
C341 C339 1.479 . S
C342 C337 1.245 . S
C342 C338 1.477 . S
C342 H359 0.932 1_556 S
C343 U326 2.882 . S
C343 C337 1.428 1_554 S
C343 O346 1.301 . S
C343 O347 1.282 . S
O344 U326 2.441 . S
O344 C330 1.249 . S
O345 U326 2.420 . S
O345 C330 1.202 . S
O346 U326 2.455 . S
O346 C343 1.301 . S
O347 U326 2.449 . S
O347 C343 1.282 . S
H348 C321 0.931 . S
H349 C323 0.929 . S
H350 C324 0.930 . S
H351 C325 0.931 . S
H352 C332 0.932 . S
H353 C333 0.930 . S
H354 C334 0.929 . S
H355 C336 0.930 . S
H356 C338 0.932 . S
H357 C339 0.929 . S
H358 C340 0.928 . S
H359 C342 0.932 1_554 S
C360 C361 1.264 . S
C360 C365 1.479 . S
C360 C370 1.465 . S
C361 C360 1.264 . S
C361 C363 1.339 . S
C361 H388 0.931 . S
C362 C363 1.395 . S
C362 C364 1.320 . S
C363 C361 1.339 . S
C363 C362 1.395 . S
C363 H389 0.929 . S
C364 C362 1.320 . S
C364 C365 1.405 . S
C364 H390 0.930 . S
C365 C360 1.479 . S
C365 C364 1.405 . S
C365 H391 0.931 . S
U366 O367 2.454 . S
U366 O368 2.458 . S
U366 C369 2.984 . S
U366 C370 2.847 . S
U366 C383 2.882 . S
U366 O384 2.441 . S
U366 O385 2.420 . S
U366 O386 2.455 . S
U366 O387 2.449 . S
O367 U366 2.454 . S
O367 C369 1.353 . S
O368 U366 2.458 . S
O368 C369 1.286 . S
C369 U366 2.984 . S
C369 O367 1.353 . S
C369 O368 1.286 . S
C369 C371 1.363 . S
C370 C360 1.465 . S
C370 U366 2.847 . S
C370 O384 1.249 . S
C370 O385 1.202 . S
C371 C369 1.363 . S
C371 C373 1.408 . S
C371 C376 1.342 . S
C372 C373 1.310 . S
C372 C375 1.461 . S
C372 H392 0.932 . S
C373 C371 1.408 . S
C373 C372 1.310 . S
C373 H393 0.930 . S
C374 C375 1.474 . S
C374 C376 1.285 . S
C374 H394 0.929 . S
C375 C372 1.461 . S
C375 C374 1.474 . S
C376 C371 1.342 . S
C376 C374 1.285 . S
C376 H395 0.930 . S
C377 C380 1.424 . S
C377 C382 1.245 . S
C377 C383 1.428 . S
C378 C381 1.260 . S
C378 C382 1.477 . S
C378 H396 0.932 . S
C379 C380 1.384 . S
C379 C381 1.479 . S
C379 H397 0.929 . S
C380 C377 1.424 . S
C380 C379 1.384 . S
C380 H398 0.928 . S
C381 C378 1.260 . S
C381 C379 1.479 . S
C382 C377 1.245 . S
C382 C378 1.477 . S
C382 H399 0.932 . S
C383 U366 2.882 . S
C383 C377 1.428 . S
C383 O386 1.301 . S
C383 O387 1.282 . S
O384 U366 2.441 . S
O384 C370 1.249 . S
O385 U366 2.420 . S
O385 C370 1.202 . S
O386 U366 2.455 . S
O386 C383 1.301 . S
O387 U366 2.449 . S
O387 C383 1.282 . S
H388 C361 0.931 . S
H389 C363 0.929 . S
H390 C364 0.930 . S
H391 C365 0.931 . S
H392 C372 0.932 . S
H393 C373 0.930 . S
H394 C374 0.929 . S
H395 C376 0.930 . S
H396 C378 0.932 . S
H397 C379 0.929 . S
H398 C380 0.928 . S
H399 C382 0.932 . S
C400 C401 1.264 . S
C400 C405 1.479 . S
C400 C410 1.465 . S
C401 C400 1.264 . S
C401 C403 1.339 . S
C401 H428 0.931 . S
C402 C403 1.395 . S
C402 C404 1.320 . S
C403 C401 1.339 . S
C403 C402 1.395 . S
C403 H429 0.929 . S
C404 C402 1.320 . S
C404 C405 1.405 . S
C404 H430 0.930 . S
C405 C400 1.479 . S
C405 C404 1.405 . S
C405 H431 0.931 . S
U406 O407 2.454 . S
U406 O408 2.458 . S
U406 C409 2.984 . S
U406 C410 2.847 . S
U406 C423 2.882 . S
U406 O424 2.441 . S
U406 O425 2.420 . S
U406 O426 2.455 . S
U406 O427 2.449 . S
O407 U406 2.454 . S
O407 C409 1.353 . S
O408 U406 2.458 . S
O408 C409 1.286 . S
C409 U406 2.984 . S
C409 O407 1.353 . S
C409 O408 1.286 . S
C409 C411 1.363 . S
C410 C400 1.465 . S
C410 U406 2.847 . S
C410 O424 1.249 . S
C410 O425 1.202 . S
C411 C409 1.363 . S
C411 C413 1.408 . S
C411 C416 1.342 . S
C412 C413 1.310 . S
C412 C415 1.461 . S
C412 H432 0.932 . S
C413 C411 1.408 . S
C413 C412 1.310 . S
C413 H433 0.930 . S
C414 C415 1.474 . S
C414 C416 1.285 . S
C414 H434 0.929 . S
C415 C412 1.461 . S
C415 C414 1.474 . S
C416 C411 1.342 . S
C416 C414 1.285 . S
C416 H435 0.930 . S
C417 C420 1.424 . S
C417 C422 1.245 . S
C417 C423 1.428 . S
C418 C421 1.260 . S
C418 C422 1.477 . S
C418 H436 0.932 . S
C419 C420 1.384 . S
C419 C421 1.479 . S
C419 H437 0.929 . S
C420 C417 1.424 . S
C420 C419 1.384 . S
C420 H438 0.928 . S
C421 C418 1.260 . S
C421 C419 1.479 . S
C422 C417 1.245 . S
C422 C418 1.477 . S
C422 H439 0.932 . S
C423 U406 2.882 . S
C423 C417 1.428 . S
C423 O426 1.301 . S
C423 O427 1.282 . S
O424 U406 2.441 . S
O424 C410 1.249 . S
O425 U406 2.420 . S
O425 C410 1.202 . S
O426 U406 2.455 . S
O426 C423 1.301 . S
O427 U406 2.449 . S
O427 C423 1.282 . S
H428 C401 0.931 . S
H429 C403 0.929 . S
H430 C404 0.930 . S
H431 C405 0.931 . S
H432 C412 0.932 . S
H433 C413 0.930 . S
H434 C414 0.929 . S
H435 C416 0.930 . S
H436 C418 0.932 . S
H437 C419 0.929 . S
H438 C420 0.928 . S
H439 C422 0.932 . S
C440 C441 1.264 . S
C440 C445 1.479 . S
C440 C450 1.465 . S
C441 C440 1.264 . S
C441 C443 1.339 . S
C441 H468 0.931 . S
C442 C443 1.395 . S
C442 C444 1.320 . S
C443 C441 1.339 . S
C443 C442 1.395 . S
C443 H469 0.929 . S
C444 C442 1.320 . S
C444 C445 1.405 . S
C444 H470 0.930 . S
C445 C440 1.479 . S
C445 C444 1.405 . S
C445 H471 0.931 . S
U446 O447 2.454 . S
U446 O448 2.458 . S
U446 C449 2.984 . S
U446 C450 2.847 . S
U446 C463 2.882 . S
U446 O464 2.441 . S
U446 O465 2.420 . S
U446 O466 2.455 . S
U446 O467 2.449 . S
O447 U446 2.454 . S
O447 C449 1.353 . S
O448 U446 2.458 . S
O448 C449 1.286 . S
C449 U446 2.984 . S
C449 O447 1.353 . S
C449 O448 1.286 . S
C449 C451 1.363 . S
C450 C440 1.465 . S
C450 U446 2.847 . S
C450 O464 1.249 . S
C450 O465 1.202 . S
C451 C449 1.363 . S
C451 C453 1.408 . S
C451 C456 1.342 . S
C452 C453 1.310 . S
C452 C455 1.461 . S
C452 H472 0.932 . S
C453 C451 1.408 . S
C453 C452 1.310 . S
C453 H473 0.930 . S
C454 C455 1.474 . S
C454 C456 1.285 . S
C454 H474 0.929 . S
C455 C452 1.461 . S
C455 C454 1.474 . S
C456 C451 1.342 . S
C456 C454 1.285 . S
C456 H475 0.930 . S
C457 C460 1.424 . S
C457 C462 1.245 . S
C457 C463 1.428 . S
C458 C461 1.260 . S
C458 C462 1.477 . S
C458 H476 0.932 . S
C459 C460 1.384 . S
C459 C461 1.479 . S
C459 H477 0.929 . S
C460 C457 1.424 . S
C460 C459 1.384 . S
C460 H478 0.928 . S
C461 C458 1.260 . S
C461 C459 1.479 . S
C462 C457 1.245 . S
C462 C458 1.477 . S
C462 H479 0.932 . S
C463 U446 2.882 . S
C463 C457 1.428 . S
C463 O466 1.301 . S
C463 O467 1.282 . S
O464 U446 2.441 . S
O464 C450 1.249 . S
O465 U446 2.420 . S
O465 C450 1.202 . S
O466 U446 2.455 . S
O466 C463 1.301 . S
O467 U446 2.449 . S
O467 C463 1.282 . S
H468 C441 0.931 . S
H469 C443 0.929 . S
H470 C444 0.930 . S
H471 C445 0.931 . S
H472 C452 0.932 . S
H473 C453 0.930 . S
H474 C454 0.929 . S
H475 C456 0.930 . S
H476 C458 0.932 . S
H477 C459 0.929 . S
H478 C460 0.928 . S
H479 C462 0.932 . S
C480 C481 1.391 . S
C480 C482 1.394 . S
C480 H496 0.931 . S
C481 C480 1.391 . S
C481 C485 1.376 . S
C482 C480 1.394 . S
C482 C483 1.369 . S
C482 C486 1.531 . S
C483 C482 1.369 . S
C483 C484 1.410 . S
C483 C491 1.503 . S
C484 C483 1.410 . S
C484 C485 1.392 . S
C484 C487 1.511 . S
C485 C481 1.376 . S
C485 C484 1.392 . S
C485 H497 0.929 . S
C486 C482 1.531 . S
C486 H498 0.960 . S
C486 H499 0.962 . S
C486 H500 0.960 . S
C487 C484 1.511 . S
C487 H501 0.961 . S
C487 H502 0.961 . S
C487 H503 0.961 . S
C488 C489 1.370 . S
C488 C490 1.363 . S
C488 H504 0.931 . S
C489 C488 1.370 . S
C489 C493 1.408 . S
C490 C488 1.363 . S
C490 C491 1.370 . S
C490 C494 1.524 . S
C491 C483 1.503 . S
C491 C490 1.370 . S
C491 C492 1.403 . S
C492 C491 1.403 . S
C492 C493 1.404 . S
C492 C495 1.539 . S
C493 C489 1.408 . S
C493 C492 1.404 . S
C493 H505 0.930 . S
C494 C490 1.524 . S
C494 H506 0.956 . S
C494 H507 0.961 . S
C494 H508 0.961 . S
C495 C492 1.539 . S
C495 H509 0.958 . S
C495 H510 0.961 . S
C495 H511 0.960 . S
H496 C480 0.931 . S
H497 C485 0.929 . S
H498 C486 0.960 . S
H499 C486 0.962 . S
H500 C486 0.960 . S
H501 C487 0.961 . S
H502 C487 0.961 . S
H503 C487 0.961 . S
H504 C488 0.931 . S
H505 C493 0.930 . S
H506 C494 0.956 . S
H507 C494 0.961 . S
H508 C494 0.961 . S
H509 C495 0.958 . S
H510 C495 0.961 . S
H511 C495 0.960 . S
C512 C513 1.391 . S
C512 C514 1.394 . S
C512 H528 0.931 . S
C513 C512 1.391 . S
C513 C517 1.376 . S
C514 C512 1.394 . S
C514 C515 1.369 . S
C514 C518 1.531 . S
C515 C514 1.369 . S
C515 C516 1.410 . S
C515 C523 1.503 . S
C516 C515 1.410 . S
C516 C517 1.392 . S
C516 C519 1.511 . S
C517 C513 1.376 . S
C517 C516 1.392 . S
C517 H529 0.929 . S
C518 C514 1.531 . S
C518 H530 0.960 . S
C518 H531 0.962 . S
C518 H532 0.960 . S
C519 C516 1.511 . S
C519 H533 0.961 . S
C519 H534 0.961 . S
C519 H535 0.961 . S
C520 C521 1.370 . S
C520 C522 1.363 . S
C520 H536 0.931 . S
C521 C520 1.370 . S
C521 C525 1.408 . S
C522 C520 1.363 . S
C522 C523 1.370 . S
C522 C526 1.524 . S
C523 C515 1.503 . S
C523 C522 1.370 . S
C523 C524 1.403 . S
C524 C523 1.403 . S
C524 C525 1.404 . S
C524 C527 1.539 . S
C525 C521 1.408 . S
C525 C524 1.404 . S
C525 H537 0.930 . S
C526 C522 1.524 . S
C526 H538 0.956 . S
C526 H539 0.961 . S
C526 H540 0.961 . S
C527 C524 1.539 . S
C527 H541 0.958 . S
C527 H542 0.961 . S
C527 H543 0.960 . S
H528 C512 0.931 . S
H529 C517 0.929 . S
H530 C518 0.960 . S
H531 C518 0.962 . S
H532 C518 0.960 . S
H533 C519 0.961 . S
H534 C519 0.961 . S
H535 C519 0.961 . S
H536 C520 0.931 . S
H537 C525 0.930 . S
H538 C526 0.956 . S
H539 C526 0.961 . S
H540 C526 0.961 . S
H541 C527 0.958 . S
H542 C527 0.961 . S
H543 C527 0.960 . S
C544 C545 1.391 . S
C544 C546 1.394 . S
C544 H560 0.931 . S
C545 C544 1.391 . S
C545 C549 1.376 . S
C546 C544 1.394 . S
C546 C547 1.369 . S
C546 C550 1.531 . S
C547 C546 1.369 . S
C547 C548 1.410 . S
C547 C555 1.503 . S
C548 C547 1.410 . S
C548 C549 1.392 . S
C548 C551 1.511 . S
C549 C545 1.376 . S
C549 C548 1.392 . S
C549 H561 0.929 . S
C550 C546 1.531 . S
C550 H562 0.960 . S
C550 H563 0.962 . S
C550 H564 0.960 . S
C551 C548 1.511 . S
C551 H565 0.961 . S
C551 H566 0.961 . S
C551 H567 0.961 . S
C552 C553 1.370 . S
C552 C554 1.363 . S
C552 H568 0.931 . S
C553 C552 1.370 . S
C553 C557 1.408 . S
C554 C552 1.363 . S
C554 C555 1.370 . S
C554 C558 1.524 . S
C555 C547 1.503 . S
C555 C554 1.370 . S
C555 C556 1.403 . S
C556 C555 1.403 . S
C556 C557 1.404 . S
C556 C559 1.539 . S
C557 C553 1.408 . S
C557 C556 1.404 . S
C557 H569 0.930 . S
C558 C554 1.524 . S
C558 H570 0.956 . S
C558 H571 0.961 . S
C558 H572 0.961 . S
C559 C556 1.539 . S
C559 H573 0.958 . S
C559 H574 0.961 . S
C559 H575 0.960 . S
H560 C544 0.931 . S
H561 C549 0.929 . S
H562 C550 0.960 . S
H563 C550 0.962 . S
H564 C550 0.960 . S
H565 C551 0.961 . S
H566 C551 0.961 . S
H567 C551 0.961 . S
H568 C552 0.931 . S
H569 C557 0.930 . S
H570 C558 0.956 . S
H571 C558 0.961 . S
H572 C558 0.961 . S
H573 C559 0.958 . S
H574 C559 0.961 . S
H575 C559 0.960 . S
C576 C577 1.391 . S
C576 C578 1.394 . S
C576 H592 0.931 . S
C577 C576 1.391 . S
C577 C581 1.376 . S
C578 C576 1.394 . S
C578 C579 1.369 . S
C578 C582 1.531 . S
C579 C578 1.369 . S
C579 C580 1.410 . S
C579 C587 1.503 . S
C580 C579 1.410 . S
C580 C581 1.392 . S
C580 C583 1.511 . S
C581 C577 1.376 . S
C581 C580 1.392 . S
C581 H593 0.929 . S
C582 C578 1.531 . S
C582 H594 0.960 . S
C582 H595 0.962 . S
C582 H596 0.960 . S
C583 C580 1.511 . S
C583 H597 0.961 . S
C583 H598 0.961 . S
C583 H599 0.961 . S
C584 C585 1.370 . S
C584 C586 1.363 . S
C584 H600 0.931 . S
C585 C584 1.370 . S
C585 C589 1.408 . S
C586 C584 1.363 . S
C586 C587 1.370 . S
C586 C590 1.524 . S
C587 C579 1.503 . S
C587 C586 1.370 . S
C587 C588 1.403 . S
C588 C587 1.403 . S
C588 C589 1.404 . S
C588 C591 1.539 . S
C589 C585 1.408 . S
C589 C588 1.404 . S
C589 H601 0.930 . S
C590 C586 1.524 . S
C590 H602 0.956 . S
C590 H603 0.961 . S
C590 H604 0.961 . S
C591 C588 1.539 . S
C591 H605 0.958 . S
C591 H606 0.961 . S
C591 H607 0.960 . S
H592 C576 0.931 . S
H593 C581 0.929 . S
H594 C582 0.960 . S
H595 C582 0.962 . S
H596 C582 0.960 . S
H597 C583 0.961 . S
H598 C583 0.961 . S
H599 C583 0.961 . S
H600 C584 0.931 . S
H601 C589 0.930 . S
H602 C590 0.956 . S
H603 C590 0.961 . S
H604 C590 0.961 . S
H605 C591 0.958 . S
H606 C591 0.961 . S
H607 C591 0.960 . S
C608 C609 1.391 . S
C608 C610 1.394 . S
C608 H624 0.931 . S
C609 C608 1.391 . S
C609 C613 1.376 . S
C610 C608 1.394 . S
C610 C611 1.369 . S
C610 C614 1.531 . S
C611 C610 1.369 . S
C611 C612 1.410 . S
C611 C619 1.503 . S
C612 C611 1.410 . S
C612 C613 1.392 . S
C612 C615 1.511 . S
C613 C609 1.376 . S
C613 C612 1.392 . S
C613 H625 0.929 . S
C614 C610 1.531 . S
C614 H626 0.960 . S
C614 H627 0.962 . S
C614 H628 0.960 . S
C615 C612 1.511 . S
C615 H629 0.961 . S
C615 H630 0.961 . S
C615 H631 0.961 . S
C616 C617 1.370 . S
C616 C618 1.363 . S
C616 H632 0.931 . S
C617 C616 1.370 . S
C617 C621 1.408 . S
C618 C616 1.363 . S
C618 C619 1.370 . S
C618 C622 1.524 . S
C619 C611 1.503 . S
C619 C618 1.370 . S
C619 C620 1.403 . S
C620 C619 1.403 . S
C620 C621 1.404 . S
C620 C623 1.539 . S
C621 C617 1.408 . S
C621 C620 1.404 . S
C621 H633 0.930 . S
C622 C618 1.524 . S
C622 H634 0.956 . S
C622 H635 0.961 . S
C622 H636 0.961 . S
C623 C620 1.539 . S
C623 H637 0.958 . S
C623 H638 0.961 . S
C623 H639 0.960 . S
H624 C608 0.931 . S
H625 C613 0.929 . S
H626 C614 0.960 . S
H627 C614 0.962 . S
H628 C614 0.960 . S
H629 C615 0.961 . S
H630 C615 0.961 . S
H631 C615 0.961 . S
H632 C616 0.931 . S
H633 C621 0.930 . S
H634 C622 0.956 . S
H635 C622 0.961 . S
H636 C622 0.961 . S
H637 C623 0.958 . S
H638 C623 0.961 . S
H639 C623 0.960 . S
C640 C641 1.391 . S
C640 C642 1.394 . S
C640 H656 0.931 . S
C641 C640 1.391 . S
C641 C645 1.376 . S
C642 C640 1.394 . S
C642 C643 1.369 . S
C642 C646 1.531 . S
C643 C642 1.369 . S
C643 C644 1.410 . S
C643 C651 1.503 . S
C644 C643 1.410 . S
C644 C645 1.392 . S
C644 C647 1.511 . S
C645 C641 1.376 . S
C645 C644 1.392 . S
C645 H657 0.929 . S
C646 C642 1.531 . S
C646 H658 0.960 . S
C646 H659 0.962 . S
C646 H660 0.960 . S
C647 C644 1.511 . S
C647 H661 0.961 . S
C647 H662 0.961 . S
C647 H663 0.961 . S
C648 C649 1.370 . S
C648 C650 1.363 . S
C648 H664 0.931 . S
C649 C648 1.370 . S
C649 C653 1.408 . S
C650 C648 1.363 . S
C650 C651 1.370 . S
C650 C654 1.524 . S
C651 C643 1.503 . S
C651 C650 1.370 . S
C651 C652 1.403 . S
C652 C651 1.403 . S
C652 C653 1.404 . S
C652 C655 1.539 . S
C653 C649 1.408 . S
C653 C652 1.404 . S
C653 H665 0.930 . S
C654 C650 1.524 . S
C654 H666 0.956 . S
C654 H667 0.961 . S
C654 H668 0.961 . S
C655 C652 1.539 . S
C655 H669 0.958 . S
C655 H670 0.961 . S
C655 H671 0.960 . S
H656 C640 0.931 . S
H657 C645 0.929 . S
H658 C646 0.960 . S
H659 C646 0.962 . S
H660 C646 0.960 . S
H661 C647 0.961 . S
H662 C647 0.961 . S
H663 C647 0.961 . S
H664 C648 0.931 . S
H665 C653 0.930 . S
H666 C654 0.956 . S
H667 C654 0.961 . S
H668 C654 0.961 . S
H669 C655 0.958 . S
H670 C655 0.961 . S
H671 C655 0.960 . S
C672 C673 1.391 . S
C672 C674 1.394 . S
C672 H688 0.931 . S
C673 C672 1.391 . S
C673 C677 1.376 . S
C674 C672 1.394 . S
C674 C675 1.369 . S
C674 C678 1.531 . S
C675 C674 1.369 . S
C675 C676 1.410 . S
C675 C683 1.503 . S
C676 C675 1.410 . S
C676 C677 1.392 . S
C676 C679 1.511 . S
C677 C673 1.376 . S
C677 C676 1.392 . S
C677 H689 0.929 . S
C678 C674 1.531 . S
C678 H690 0.960 . S
C678 H691 0.962 . S
C678 H692 0.960 . S
C679 C676 1.511 . S
C679 H693 0.961 . S
C679 H694 0.961 . S
C679 H695 0.961 . S
C680 C681 1.370 . S
C680 C682 1.363 . S
C680 H696 0.931 . S
C681 C680 1.370 . S
C681 C685 1.408 . S
C682 C680 1.363 . S
C682 C683 1.370 . S
C682 C686 1.524 . S
C683 C675 1.503 . S
C683 C682 1.370 . S
C683 C684 1.403 . S
C684 C683 1.403 . S
C684 C685 1.404 . S
C684 C687 1.539 . S
C685 C681 1.408 . S
C685 C684 1.404 . S
C685 H697 0.930 . S
C686 C682 1.524 . S
C686 H698 0.956 . S
C686 H699 0.961 . S
C686 H700 0.961 . S
C687 C684 1.539 . S
C687 H701 0.958 . S
C687 H702 0.961 . S
C687 H703 0.960 . S
H688 C672 0.931 . S
H689 C677 0.929 . S
H690 C678 0.960 . S
H691 C678 0.962 . S
H692 C678 0.960 . S
H693 C679 0.961 . S
H694 C679 0.961 . S
H695 C679 0.961 . S
H696 C680 0.931 . S
H697 C685 0.930 . S
H698 C686 0.956 . S
H699 C686 0.961 . S
H700 C686 0.961 . S
H701 C687 0.958 . S
H702 C687 0.961 . S
H703 C687 0.960 . S
C704 C705 1.391 . S
C704 C706 1.394 . S
C704 H720 0.931 . S
C705 C704 1.391 . S
C705 C709 1.376 . S
C706 C704 1.394 . S
C706 C707 1.369 . S
C706 C710 1.531 . S
C707 C706 1.369 . S
C707 C708 1.410 . S
C707 C715 1.503 . S
C708 C707 1.410 . S
C708 C709 1.392 . S
C708 C711 1.511 . S
C709 C705 1.376 . S
C709 C708 1.392 . S
C709 H721 0.929 . S
C710 C706 1.531 . S
C710 H722 0.960 . S
C710 H723 0.962 . S
C710 H724 0.960 . S
C711 C708 1.511 . S
C711 H725 0.961 . S
C711 H726 0.961 . S
C711 H727 0.961 . S
C712 C713 1.370 . S
C712 C714 1.363 . S
C712 H728 0.931 . S
C713 C712 1.370 . S
C713 C717 1.408 . S
C714 C712 1.363 . S
C714 C715 1.370 . S
C714 C718 1.524 . S
C715 C707 1.503 . S
C715 C714 1.370 . S
C715 C716 1.403 . S
C716 C715 1.403 . S
C716 C717 1.404 . S
C716 C719 1.539 . S
C717 C713 1.408 . S
C717 C716 1.404 . S
C717 H729 0.930 . S
C718 C714 1.524 . S
C718 H730 0.956 . S
C718 H731 0.961 . S
C718 H732 0.961 . S
C719 C716 1.539 . S
C719 H733 0.958 . S
C719 H734 0.961 . S
C719 H735 0.960 . S
H720 C704 0.931 . S
H721 C709 0.929 . S
H722 C710 0.960 . S
H723 C710 0.962 . S
H724 C710 0.960 . S
H725 C711 0.961 . S
H726 C711 0.961 . S
H727 C711 0.961 . S
H728 C712 0.931 . S
H729 C717 0.930 . S
H730 C718 0.956 . S
H731 C718 0.961 . S
H732 C718 0.961 . S
H733 C719 0.958 . S
H734 C719 0.961 . S
H735 C719 0.960 . S
C736 C737 1.391 . S
C736 C738 1.394 . S
C736 H752 0.931 . S
C737 C736 1.391 . S
C737 C741 1.376 . S
C738 C736 1.394 . S
C738 C739 1.369 . S
C738 C742 1.531 . S
C739 C738 1.369 . S
C739 C740 1.410 . S
C739 C747 1.503 . S
C740 C739 1.410 . S
C740 C741 1.392 . S
C740 C743 1.511 . S
C741 C737 1.376 . S
C741 C740 1.392 . S
C741 H753 0.929 . S
C742 C738 1.531 . S
C742 H754 0.960 . S
C742 H755 0.962 . S
C742 H756 0.960 . S
C743 C740 1.511 . S
C743 H757 0.961 . S
C743 H758 0.961 . S
C743 H759 0.961 . S
C744 C745 1.370 . S
C744 C746 1.363 . S
C744 H760 0.931 . S
C745 C744 1.370 . S
C745 C749 1.408 . S
C746 C744 1.363 . S
C746 C747 1.370 . S
C746 C750 1.524 . S
C747 C739 1.503 . S
C747 C746 1.370 . S
C747 C748 1.403 . S
C748 C747 1.403 . S
C748 C749 1.404 . S
C748 C751 1.539 . S
C749 C745 1.408 . S
C749 C748 1.404 . S
C749 H761 0.930 . S
C750 C746 1.524 . S
C750 H762 0.956 . S
C750 H763 0.961 . S
C750 H764 0.961 . S
C751 C748 1.539 . S
C751 H765 0.958 . S
C751 H766 0.961 . S
C751 H767 0.960 . S
H752 C736 0.931 . S
H753 C741 0.929 . S
H754 C742 0.960 . S
H755 C742 0.962 . S
H756 C742 0.960 . S
H757 C743 0.961 . S
H758 C743 0.961 . S
H759 C743 0.961 . S
H760 C744 0.931 . S
H761 C749 0.930 . S
H762 C750 0.956 . S
H763 C750 0.961 . S
H764 C750 0.961 . S
H765 C751 0.958 . S
H766 C751 0.961 . S
H767 C751 0.960 . S
C768 C769 1.391 . S
C768 C770 1.394 . S
C768 H784 0.931 . S
C769 C768 1.391 . S
C769 C773 1.376 . S
C770 C768 1.394 . S
C770 C771 1.369 . S
C770 C774 1.531 . S
C771 C770 1.369 . S
C771 C772 1.410 . S
C771 C779 1.503 . S
C772 C771 1.410 . S
C772 C773 1.392 . S
C772 C775 1.511 . S
C773 C769 1.376 . S
C773 C772 1.392 . S
C773 H785 0.929 . S
C774 C770 1.531 . S
C774 H786 0.960 . S
C774 H787 0.962 . S
C774 H788 0.960 . S
C775 C772 1.511 . S
C775 H789 0.961 . S
C775 H790 0.961 . S
C775 H791 0.961 . S
C776 C777 1.370 . S
C776 C778 1.363 . S
C776 H792 0.931 . S
C777 C776 1.370 . S
C777 C781 1.408 . S
C778 C776 1.363 . S
C778 C779 1.370 . S
C778 C782 1.524 . S
C779 C771 1.503 . S
C779 C778 1.370 . S
C779 C780 1.403 . S
C780 C779 1.403 . S
C780 C781 1.404 . S
C780 C783 1.539 . S
C781 C777 1.408 . S
C781 C780 1.404 . S
C781 H793 0.930 . S
C782 C778 1.524 . S
C782 H794 0.956 . S
C782 H795 0.961 . S
C782 H796 0.961 . S
C783 C780 1.539 . S
C783 H797 0.958 . S
C783 H798 0.961 . S
C783 H799 0.960 . S
H784 C768 0.931 . S
H785 C773 0.929 . S
H786 C774 0.960 . S
H787 C774 0.962 . S
H788 C774 0.960 . S
H789 C775 0.961 . S
H790 C775 0.961 . S
H791 C775 0.961 . S
H792 C776 0.931 . S
H793 C781 0.930 . S
H794 C782 0.956 . S
H795 C782 0.961 . S
H796 C782 0.961 . S
H797 C783 0.958 . S
H798 C783 0.961 . S
H799 C783 0.960 . S
C800 C801 1.391 . S
C800 C802 1.394 . S
C800 H816 0.931 . S
C801 C800 1.391 . S
C801 C805 1.376 . S
C802 C800 1.394 . S
C802 C803 1.369 . S
C802 C806 1.531 . S
C803 C802 1.369 . S
C803 C804 1.410 . S
C803 C811 1.503 . S
C804 C803 1.410 . S
C804 C805 1.392 . S
C804 C807 1.511 . S
C805 C801 1.376 . S
C805 C804 1.392 . S
C805 H817 0.929 . S
C806 C802 1.531 . S
C806 H818 0.960 . S
C806 H819 0.962 . S
C806 H820 0.960 . S
C807 C804 1.511 . S
C807 H821 0.961 . S
C807 H822 0.961 . S
C807 H823 0.961 . S
C808 C809 1.370 . S
C808 C810 1.363 . S
C808 H824 0.931 . S
C809 C808 1.370 . S
C809 C813 1.408 . S
C810 C808 1.363 . S
C810 C811 1.370 . S
C810 C814 1.524 . S
C811 C803 1.503 . S
C811 C810 1.370 . S
C811 C812 1.403 . S
C812 C811 1.403 . S
C812 C813 1.404 . S
C812 C815 1.539 . S
C813 C809 1.408 . S
C813 C812 1.404 . S
C813 H825 0.930 . S
C814 C810 1.524 . S
C814 H826 0.956 . S
C814 H827 0.961 . S
C814 H828 0.961 . S
C815 C812 1.539 . S
C815 H829 0.958 . S
C815 H830 0.961 . S
C815 H831 0.960 . S
H816 C800 0.931 . S
H817 C805 0.929 . S
H818 C806 0.960 . S
H819 C806 0.962 . S
H820 C806 0.960 . S
H821 C807 0.961 . S
H822 C807 0.961 . S
H823 C807 0.961 . S
H824 C808 0.931 . S
H825 C813 0.930 . S
H826 C814 0.956 . S
H827 C814 0.961 . S
H828 C814 0.961 . S
H829 C815 0.958 . S
H830 C815 0.961 . S
H831 C815 0.960 . S
C832 C833 1.391 . S
C832 C834 1.394 . S
C832 H848 0.931 . S
C833 C832 1.391 . S
C833 C837 1.376 . S
C834 C832 1.394 . S
C834 C835 1.369 . S
C834 C838 1.531 . S
C835 C834 1.369 . S
C835 C836 1.410 . S
C835 C843 1.503 . S
C836 C835 1.410 . S
C836 C837 1.392 . S
C836 C839 1.511 . S
C837 C833 1.376 . S
C837 C836 1.392 . S
C837 H849 0.929 . S
C838 C834 1.531 . S
C838 H850 0.960 . S
C838 H851 0.962 . S
C838 H852 0.960 . S
C839 C836 1.511 . S
C839 H853 0.961 . S
C839 H854 0.961 . S
C839 H855 0.961 . S
C840 C841 1.370 . S
C840 C842 1.363 . S
C840 H856 0.931 . S
C841 C840 1.370 . S
C841 C845 1.408 . S
C842 C840 1.363 . S
C842 C843 1.370 . S
C842 C846 1.524 . S
C843 C835 1.503 . S
C843 C842 1.370 . S
C843 C844 1.403 . S
C844 C843 1.403 . S
C844 C845 1.404 . S
C844 C847 1.539 . S
C845 C841 1.408 . S
C845 C844 1.404 . S
C845 H857 0.930 . S
C846 C842 1.524 . S
C846 H858 0.956 . S
C846 H859 0.961 . S
C846 H860 0.961 . S
C847 C844 1.539 . S
C847 H861 0.958 . S
C847 H862 0.961 . S
C847 H863 0.960 . S
H848 C832 0.931 . S
H849 C837 0.929 . S
H850 C838 0.960 . S
H851 C838 0.962 . S
H852 C838 0.960 . S
H853 C839 0.961 . S
H854 C839 0.961 . S
H855 C839 0.961 . S
H856 C840 0.931 . S
H857 C845 0.930 . S
H858 C846 0.956 . S
H859 C846 0.961 . S
H860 C846 0.961 . S
H861 C847 0.958 . S
H862 C847 0.961 . S
H863 C847 0.960 . S
C864 C865 1.391 . S
C864 C866 1.394 . S
C864 H880 0.931 . S
C865 C864 1.391 . S
C865 C869 1.376 . S
C866 C864 1.394 . S
C866 C867 1.369 . S
C866 C870 1.531 . S
C867 C866 1.369 . S
C867 C868 1.410 . S
C867 C875 1.503 1_544 S
C868 C867 1.410 . S
C868 C869 1.392 . S
C868 C871 1.511 1_545 S
C869 C865 1.376 . S
C869 C868 1.392 . S
C869 H881 0.929 . S
C870 C866 1.531 . S
C870 H882 0.960 1_545 S
C870 H883 0.962 1_554 S
C870 H884 0.960 . S
C871 C868 1.511 1_565 S
C871 H885 0.961 1_565 S
C871 H886 0.961 . S
C871 H887 0.961 . S
C872 C873 1.370 . S
C872 C874 1.363 . S
C872 H888 0.931 . S
C873 C872 1.370 . S
C873 C877 1.408 . S
C874 C872 1.363 . S
C874 C875 1.370 . S
C874 C878 1.524 1_565 S
C875 C867 1.503 1_566 S
C875 C874 1.370 . S
C875 C876 1.403 . S
C876 C875 1.403 . S
C876 C877 1.404 . S
C876 C879 1.539 1_556 S
C877 C873 1.408 . S
C877 C876 1.404 . S
C877 H889 0.930 . S
C878 C874 1.524 1_545 S
C878 H890 0.956 . S
C878 H891 0.961 . S
C878 H892 0.961 . S
C879 C876 1.539 1_554 S
C879 H893 0.958 . S
C879 H894 0.961 . S
C879 H895 0.960 . S
H880 C864 0.931 . S
H881 C869 0.929 . S
H882 C870 0.960 1_565 S
H883 C870 0.962 1_556 S
H884 C870 0.960 . S
H885 C871 0.961 1_545 S
H886 C871 0.961 . S
H887 C871 0.961 . S
H888 C872 0.931 . S
H889 C877 0.930 . S
H890 C878 0.956 . S
H891 C878 0.961 . S
H892 C878 0.961 . S
H893 C879 0.958 . S
H894 C879 0.961 . S
H895 C879 0.960 . S
C896 C897 1.391 . S
C896 C898 1.394 . S
C896 H912 0.931 . S
C897 C896 1.391 . S
C897 C901 1.376 . S
C898 C896 1.394 . S
C898 C899 1.369 . S
C898 C902 1.531 . S
C899 C898 1.369 . S
C899 C900 1.410 . S
C899 C907 1.503 . S
C900 C899 1.410 . S
C900 C901 1.392 . S
C900 C903 1.511 . S
C901 C897 1.376 . S
C901 C900 1.392 . S
C901 H913 0.929 . S
C902 C898 1.531 . S
C902 H914 0.960 . S
C902 H915 0.962 . S
C902 H916 0.960 . S
C903 C900 1.511 . S
C903 H917 0.961 . S
C903 H918 0.961 . S
C903 H919 0.961 . S
C904 C905 1.370 . S
C904 C906 1.363 . S
C904 H920 0.931 . S
C905 C904 1.370 . S
C905 C909 1.408 . S
C906 C904 1.363 . S
C906 C907 1.370 . S
C906 C910 1.524 . S
C907 C899 1.503 . S
C907 C906 1.370 . S
C907 C908 1.403 . S
C908 C907 1.403 . S
C908 C909 1.404 . S
C908 C911 1.539 . S
C909 C905 1.408 . S
C909 C908 1.404 . S
C909 H921 0.930 . S
C910 C906 1.524 . S
C910 H922 0.956 . S
C910 H923 0.961 . S
C910 H924 0.961 . S
C911 C908 1.539 . S
C911 H925 0.958 . S
C911 H926 0.961 . S
C911 H927 0.960 . S
H912 C896 0.931 . S
H913 C901 0.929 . S
H914 C902 0.960 . S
H915 C902 0.962 . S
H916 C902 0.960 . S
H917 C903 0.961 . S
H918 C903 0.961 . S
H919 C903 0.961 . S
H920 C904 0.931 . S
H921 C909 0.930 . S
H922 C910 0.956 . S
H923 C910 0.961 . S
H924 C910 0.961 . S
H925 C911 0.958 . S
H926 C911 0.961 . S
H927 C911 0.960 . S
C928 C929 1.391 . S
C928 C930 1.394 . S
C928 H944 0.931 . S
C929 C928 1.391 . S
C929 C933 1.376 . S
C930 C928 1.394 . S
C930 C931 1.369 . S
C930 C934 1.531 1_455 S
C931 C930 1.369 . S
C931 C932 1.410 . S
C931 C939 1.503 1_455 S
C932 C931 1.410 . S
C932 C933 1.392 . S
C932 C935 1.511 . S
C933 C929 1.376 . S
C933 C932 1.392 . S
C933 H945 0.929 . S
C934 C930 1.531 1_655 S
C934 H946 0.960 . S
C934 H947 0.962 . S
C934 H948 0.960 . S
C935 C932 1.511 . S
C935 H949 0.961 . S
C935 H950 0.961 . S
C935 H951 0.961 . S
C936 C937 1.370 . S
C936 C938 1.363 . S
C936 H952 0.931 . S
C937 C936 1.370 . S
C937 C941 1.408 . S
C938 C936 1.363 . S
C938 C939 1.370 . S
C938 C942 1.524 1_655 S
C939 C931 1.503 1_655 S
C939 C938 1.370 . S
C939 C940 1.403 . S
C940 C939 1.403 . S
C940 C941 1.404 . S
C940 C943 1.539 . S
C941 C937 1.408 . S
C941 C940 1.404 . S
C941 H953 0.930 . S
C942 C938 1.524 1_455 S
C942 H954 0.956 . S
C942 H955 0.961 . S
C942 H956 0.961 . S
C943 C940 1.539 . S
C943 H957 0.958 . S
C943 H958 0.961 . S
C943 H959 0.960 . S
H944 C928 0.931 . S
H945 C933 0.929 . S
H946 C934 0.960 . S
H947 C934 0.962 . S
H948 C934 0.960 . S
H949 C935 0.961 . S
H950 C935 0.961 . S
H951 C935 0.961 . S
H952 C936 0.931 . S
H953 C941 0.930 . S
H954 C942 0.956 . S
H955 C942 0.961 . S
H956 C942 0.961 . S
H957 C943 0.958 . S
H958 C943 0.961 . S
H959 C943 0.960 . S
C960 C961 1.391 . S
C960 C962 1.394 . S
C960 H976 0.931 . S
C961 C960 1.391 . S
C961 C965 1.376 . S
C962 C960 1.394 . S
C962 C963 1.369 . S
C962 C966 1.531 . S
C963 C962 1.369 . S
C963 C964 1.410 . S
C963 C971 1.503 1_545 S
C964 C963 1.410 . S
C964 C965 1.392 . S
C964 C967 1.511 1_545 S
C965 C961 1.376 . S
C965 C964 1.392 . S
C965 H977 0.929 . S
C966 C962 1.531 . S
C966 H978 0.960 . S
C966 H979 0.962 . S
C966 H980 0.960 . S
C967 C964 1.511 1_565 S
C967 H981 0.961 . S
C967 H982 0.961 . S
C967 H983 0.961 . S
C968 C969 1.370 . S
C968 C970 1.363 . S
C968 H984 0.931 . S
C969 C968 1.370 . S
C969 C973 1.408 . S
C970 C968 1.363 . S
C970 C971 1.370 . S
C970 C974 1.524 . S
C971 C963 1.503 1_565 S
C971 C970 1.370 . S
C971 C972 1.403 . S
C972 C971 1.403 . S
C972 C973 1.404 . S
C972 C975 1.539 . S
C973 C969 1.408 . S
C973 C972 1.404 . S
C973 H985 0.930 . S
C974 C970 1.524 . S
C974 H986 0.956 1_565 S
C974 H987 0.961 . S
C974 H988 0.961 . S
C975 C972 1.539 . S
C975 H989 0.958 1_565 S
C975 H990 0.961 . S
C975 H991 0.960 . S
H976 C960 0.931 . S
H977 C965 0.929 . S
H978 C966 0.960 . S
H979 C966 0.962 . S
H980 C966 0.960 . S
H981 C967 0.961 . S
H982 C967 0.961 . S
H983 C967 0.961 . S
H984 C968 0.931 . S
H985 C973 0.930 . S
H986 C974 0.956 1_545 S
H987 C974 0.961 . S
H988 C974 0.961 . S
H989 C975 0.958 1_545 S
H990 C975 0.961 . S
H991 C975 0.960 . S
C992 C993 1.391 . S
C992 C994 1.394 . S
C992 H1008 0.931 . S
C993 C992 1.391 . S
C993 C997 1.376 . S
C994 C992 1.394 . S
C994 C995 1.369 . S
C994 C998 1.531 . S
C995 C994 1.369 . S
C995 C996 1.410 . S
C995 C1003 1.503 . S
C996 C995 1.410 . S
C996 C997 1.392 . S
C996 C999 1.511 . S
C997 C993 1.376 . S
C997 C996 1.392 . S
C997 H1009 0.929 . S
C998 C994 1.531 . S
C998 H1010 0.960 . S
C998 H1011 0.962 . S
C998 H1012 0.960 . S
C999 C996 1.511 . S
C999 H1013 0.961 . S
C999 H1014 0.961 . S
C999 H1015 0.961 . S
C1000 C1001 1.370 . S
C1000 C1002 1.363 . S
C1000 H1016 0.931 . S
C1001 C1000 1.370 . S
C1001 C1005 1.408 . S
C1002 C1000 1.363 . S
C1002 C1003 1.370 . S
C1002 C1006 1.524 . S
C1003 C995 1.503 . S
C1003 C1002 1.370 . S
C1003 C1004 1.403 . S
C1004 C1003 1.403 . S
C1004 C1005 1.404 . S
C1004 C1007 1.539 . S
C1005 C1001 1.408 . S
C1005 C1004 1.404 . S
C1005 H1017 0.930 . S
C1006 C1002 1.524 . S
C1006 H1018 0.956 . S
C1006 H1019 0.961 . S
C1006 H1020 0.961 . S
C1007 C1004 1.539 . S
C1007 H1021 0.958 . S
C1007 H1022 0.961 . S
C1007 H1023 0.960 . S
H1008 C992 0.931 . S
H1009 C997 0.929 . S
H1010 C998 0.960 . S
H1011 C998 0.962 . S
H1012 C998 0.960 . S
H1013 C999 0.961 . S
H1014 C999 0.961 . S
H1015 C999 0.961 . S
H1016 C1000 0.931 . S
H1017 C1005 0.930 . S
H1018 C1006 0.956 . S
H1019 C1006 0.961 . S
H1020 C1006 0.961 . S
H1021 C1007 0.958 . S
H1022 C1007 0.961 . S
H1023 C1007 0.960 . S
C1024 C1025 1.391 . S
C1024 C1026 1.394 . S
C1024 H1040 0.931 . S
C1025 C1024 1.391 . S
C1025 C1029 1.376 . S
C1026 C1024 1.394 . S
C1026 C1027 1.369 . S
C1026 C1030 1.531 . S
C1027 C1026 1.369 . S
C1027 C1028 1.410 . S
C1027 C1035 1.503 1_655 S
C1028 C1027 1.410 . S
C1028 C1029 1.392 . S
C1028 C1031 1.511 1_655 S
C1029 C1025 1.376 . S
C1029 C1028 1.392 . S
C1029 H1041 0.929 . S
C1030 C1026 1.531 . S
C1030 H1042 0.960 . S
C1030 H1043 0.962 . S
C1030 H1044 0.960 . S
C1031 C1028 1.511 1_455 S
C1031 H1045 0.961 . S
C1031 H1046 0.961 . S
C1031 H1047 0.961 . S
C1032 C1033 1.370 . S
C1032 C1034 1.363 . S
C1032 H1048 0.931 . S
C1033 C1032 1.370 . S
C1033 C1037 1.408 . S
C1034 C1032 1.363 . S
C1034 C1035 1.370 . S
C1034 C1038 1.524 . S
C1035 C1027 1.503 1_455 S
C1035 C1034 1.370 . S
C1035 C1036 1.403 . S
C1036 C1035 1.403 . S
C1036 C1037 1.404 . S
C1036 C1039 1.539 . S
C1037 C1033 1.408 . S
C1037 C1036 1.404 . S
C1037 H1049 0.930 . S
C1038 C1034 1.524 . S
C1038 H1050 0.956 1_455 S
C1038 H1051 0.961 . S
C1038 H1052 0.961 . S
C1039 C1036 1.539 . S
C1039 H1053 0.958 1_455 S
C1039 H1054 0.961 . S
C1039 H1055 0.979 . S
H1040 C1024 0.931 . S
H1041 C1029 0.929 . S
H1042 C1030 0.960 . S
H1043 C1030 0.962 . S
H1044 C1030 0.960 . S
H1045 C1031 0.961 . S
H1046 C1031 0.961 . S
H1047 C1031 0.961 . S
H1048 C1032 0.931 . S
H1049 C1037 0.930 . S
H1050 C1038 0.956 1_655 S
H1051 C1038 0.961 . S
H1052 C1038 0.961 . S
H1053 C1039 0.958 1_655 S
H1054 C1039 0.961 . S
H1055 C1039 0.979 . S
C481 C21 1.554 . S
C489 C421 1.559 . S
C513 C461 1.556 . S
C521 C61 1.555 . S
C545 C261 1.549 . S
C553 C101 1.557 . S
C577 C141 1.558 . S
C585 C301 1.556 . S
C609 C341 1.556 . S
C617 C181 1.555 . S
C641 C221 1.549 . S
C649 C381 1.559 . S
C673 C2 1.517 . S
C681 C322 1.530 . S
C705 C362 1.531 . S
C713 C42 1.536 . S
C737 C82 1.540 . S
C745 C402 1.535 . S
C769 C442 1.518 . S
C777 C122 1.530 . S
C801 C162 1.522 . S
C809 C242 1.533 . S
C833 C202 1.534 . S
C841 C282 1.531 . S
C865 C15 1.545 . S
C873 C295 1.540 . S
C897 C335 1.545 . S
C905 C55 1.540 . S
C929 C375 1.544 . S
C937 C95 1.542 . S
C961 C415 1.537 . S
C969 C135 1.542 . S
C993 C175 1.534 . S
C1001 C455 1.542 . S
C1025 C255 1.536 . S
C1033 C215 1.542 . S
