# Generated by pormake.
# Topology zfu, (5)-cn, num edge types: 1
# Building blocks:
#     Node 0, Type 0, BuildingBlock: XOMCOT_clean_sbu_1, # of connection points: 5
#     Node 1, Type 0, BuildingBlock: XOMCOT_clean_sbu_1, # of connection points: 5
#     Node 2, Type 0, BuildingBlock: XOMCOT_clean_sbu_1, # of connection points: 5
#     Node 3, Type 0, BuildingBlock: XOMCOT_clean_sbu_1, # of connection points: 5
#     Node 4, Type 0, BuildingBlock: XOMCOT_clean_sbu_1, # of connection points: 5
#     Node 5, Type 0, BuildingBlock: XOMCOT_clean_sbu_1, # of connection points: 5
#     Node 6, Type 0, BuildingBlock: XOMCOT_clean_sbu_1, # of connection points: 5
#     Node 7, Type 0, BuildingBlock: XOMCOT_clean_sbu_1, # of connection points: 5
#     Edge 8, Type (0, 0), BuildingBlock: UVAHIK_clean_linker_0, # of connection points: 2
#     Edge 9, Type (0, 0), BuildingBlock: UVAHIK_clean_linker_0, # of connection points: 2
#     Edge 10, Type (0, 0), BuildingBlock: UVAHIK_clean_linker_0, # of connection points: 2
#     Edge 11, Type (0, 0), BuildingBlock: UVAHIK_clean_linker_0, # of connection points: 2
#     Edge 12, Type (0, 0), BuildingBlock: UVAHIK_clean_linker_0, # of connection points: 2
#     Edge 13, Type (0, 0), BuildingBlock: UVAHIK_clean_linker_0, # of connection points: 2
#     Edge 14, Type (0, 0), BuildingBlock: UVAHIK_clean_linker_0, # of connection points: 2
#     Edge 15, Type (0, 0), BuildingBlock: UVAHIK_clean_linker_0, # of connection points: 2
#     Edge 16, Type (0, 0), BuildingBlock: UVAHIK_clean_linker_0, # of connection points: 2
#     Edge 17, Type (0, 0), BuildingBlock: UVAHIK_clean_linker_0, # of connection points: 2
#     Edge 18, Type (0, 0), BuildingBlock: UVAHIK_clean_linker_0, # of connection points: 2
#     Edge 19, Type (0, 0), BuildingBlock: UVAHIK_clean_linker_0, # of connection points: 2
#     Edge 20, Type (0, 0), BuildingBlock: UVAHIK_clean_linker_0, # of connection points: 2
#     Edge 21, Type (0, 0), BuildingBlock: UVAHIK_clean_linker_0, # of connection points: 2
#     Edge 22, Type (0, 0), BuildingBlock: UVAHIK_clean_linker_0, # of connection points: 2
#     Edge 23, Type (0, 0), BuildingBlock: UVAHIK_clean_linker_0, # of connection points: 2
#     Edge 24, Type (0, 0), BuildingBlock: UVAHIK_clean_linker_0, # of connection points: 2
#     Edge 25, Type (0, 0), BuildingBlock: UVAHIK_clean_linker_0, # of connection points: 2
#     Edge 26, Type (0, 0), BuildingBlock: UVAHIK_clean_linker_0, # of connection points: 2
#     Edge 27, Type (0, 0), BuildingBlock: UVAHIK_clean_linker_0, # of connection points: 2
# Relax obj value: 0.122
# Max RMSD: 0.159
# Mean RMSD: 0.159
data_MOF--net-zfu--node1-XOMCOT_clean_sbu_1--edge1-UVAHIK_clean_linker_0
_symmetry_space_group_name_H-M    P1
_symmetry_Int_Tables_number       1
_symmetry_cell_setting            triclinic
loop_
_symmetry_equiv_pos_as_xyz
'x, y, z'
_cell_length_a     50.119521
_cell_length_b     50.131952
_cell_length_c     33.747264
_cell_angle_alpha  90.167981
_cell_angle_beta   90.02955
_cell_angle_gamma 90.061154
loop_
_atom_site_label
_atom_site_type_symbol
_atom_site_fract_x
_atom_site_fract_y
_atom_site_fract_z
_atom_type_partial_charge
C0 C 0.43804 0.69583 0.98135 0.0
C1 C 0.4517 0.67229 0.98653 0.0
N2 N 0.47802 0.67727 0.98275 0.0
N3 N 0.45561 0.71559 0.97426 0.0
C4 C 0.47982 0.70369 0.97525 0.0
H5 H 0.41664 0.69844 0.9826 0.0
Co6 Co 0.44641 0.75096 0.96405 0.0
C7 C 0.49895 0.77704 0.95799 0.0
O8 O 0.49252 0.78544 0.9224 0.0
N9 N 0.43693 0.78688 0.95383 0.0
C10 C 0.43353 0.83081 0.96148 0.0
C11 C 0.44471 0.80788 0.97609 0.0
C12 C 0.42064 0.79765 0.92604 0.0
N13 N 0.41818 0.82449 0.92997 0.0
O14 O 0.4548 0.74475 0.90948 0.0
H15 H 0.45759 0.80661 0.00174 0.0
H16 H 0.41027 0.78599 0.90393 0.0
O17 O 0.48258 0.76245 0.97719 0.0
C18 C 0.43351 0.73539 0.89396 0.0
O19 O 0.41162 0.73518 0.91534 0.0
N20 N 0.43556 0.75474 0.01648 0.0
C21 C 0.41104 0.74432 0.08872 0.0
C22 C 0.43898 0.74382 0.08543 0.0
C23 C 0.45095 0.74897 0.04873 0.0
C24 C 0.40863 0.75723 0.01991 0.0
C25 C 0.39596 0.75231 0.05584 0.0
H26 H 0.4722 0.74606 0.04554 0.0
H27 H 0.3967 0.76105 0.99382 0.0
H28 H 0.49841 0.71405 0.96986 0.0
H29 H 0.44293 0.65307 0.9931 0.0
H30 H 0.4367 0.8506 0.97341 0.0
H31 H 0.45129 0.73748 0.11004 0.0
H32 H 0.37439 0.75322 0.05726 0.0
C33 C 0.8268 0.93974 0.23447 0.0
C34 C 0.85055 0.95317 0.23927 0.0
N35 N 0.84611 0.9794 0.23356 0.0
N36 N 0.80742 0.95736 0.22568 0.0
C37 C 0.81978 0.98138 0.22526 0.0
H38 H 0.82375 0.91849 0.23754 0.0
Co39 Co 0.7717 0.94835 0.21636 0.0
C40 C 0.74851 1.00245 0.20666 0.0
O41 O 0.7423 0.99745 0.16956 0.0
N42 N 0.73555 0.9392 0.20681 0.0
C43 C 0.69138 0.93743 0.21235 0.0
C44 C 0.71435 0.94881 0.22685 0.0
C45 C 0.72484 0.92168 0.18055 0.0
N46 N 0.69786 0.92019 0.18312 0.0
O47 O 0.77772 0.9541 0.16102 0.0
H48 H 0.7155 0.96313 0.25084 0.0
H49 H 0.73663 0.90985 0.16038 0.0
O50 O 0.76085 0.9849 0.2269 0.0
C51 C 0.78636 0.93137 0.14968 0.0
O52 O 0.78671 0.91168 0.17532 0.0
N53 N 0.76793 0.93979 0.2697 0.0
C54 C 0.78069 0.91751 0.34267 0.0
C55 C 0.78294 0.94516 0.33668 0.0
C56 C 0.7764 0.95597 0.29978 0.0
C57 C 0.76337 0.91338 0.27609 0.0
C58 C 0.76927 0.90188 0.31256 0.0
H59 H 0.78095 0.97669 0.29421 0.0
H60 H 0.75737 0.90066 0.25172 0.0
H61 H 0.80977 0.99994 0.21865 0.0
H62 H 0.86951 0.94434 0.24718 0.0
H63 H 0.67146 0.9418 0.22276 0.0
H64 H 0.79189 0.95796 0.35892 0.0
H65 H 0.76667 0.88058 0.31613 0.0
C66 C 0.58836 0.32973 0.48443 0.0
C67 C 0.575 0.35328 0.49066 0.0
N68 N 0.54854 0.34865 0.48749 0.0
N69 N 0.57055 0.31019 0.47729 0.0
C70 C 0.54646 0.32228 0.47913 0.0
H71 H 0.60976 0.32695 0.485 0.0
Co72 Co 0.57979 0.27482 0.46683 0.0
C73 C 0.52662 0.24961 0.4615 0.0
O74 O 0.53134 0.24299 0.42447 0.0
N75 N 0.58938 0.23902 0.45621 0.0
C76 C 0.59486 0.19527 0.46373 0.0
C77 C 0.58312 0.21784 0.47904 0.0
C78 C 0.6049 0.2287 0.42707 0.0
N79 N 0.60858 0.20212 0.43101 0.0
O80 O 0.57098 0.28066 0.41238 0.0
H81 H 0.57114 0.21882 0.50566 0.0
H82 H 0.61411 0.24044 0.40404 0.0
O83 O 0.54401 0.26295 0.48085 0.0
C84 C 0.59245 0.2901 0.39768 0.0
O85 O 0.61388 0.29122 0.42007 0.0
N86 N 0.59117 0.27133 0.51906 0.0
C87 C 0.61633 0.28339 0.59037 0.0
C88 C 0.58837 0.28389 0.58753 0.0
C89 C 0.57609 0.2779 0.55131 0.0
C90 C 0.61812 0.26869 0.52219 0.0
C91 C 0.6311 0.27443 0.55768 0.0
H92 H 0.55487 0.28106 0.5483 0.0
H93 H 0.62983 0.26426 0.49608 0.0
H94 H 0.52779 0.31186 0.47484 0.0
H95 H 0.58424 0.3724 0.49652 0.0
H96 H 0.59342 0.17534 0.47582 0.0
H97 H 0.57627 0.291 0.61195 0.0
H98 H 0.65268 0.27349 0.55879 0.0
C99 C 0.19711 0.08418 0.73251 0.0
C100 C 0.17424 0.06927 0.73645 0.0
N101 N 0.18035 0.0434 0.73022 0.0
N102 N 0.21763 0.06787 0.72385 0.0
C103 C 0.20683 0.04313 0.72257 0.0
H104 H 0.19879 0.10557 0.73605 0.0
Co105 Co 0.25265 0.07924 0.71573 0.0
C106 C 0.2823 0.02883 0.70854 0.0
O107 O 0.29225 0.03711 0.67472 0.0
N108 N 0.28821 0.09096 0.7076 0.0
C109 C 0.33142 0.09863 0.7181 0.0
C110 C 0.30895 0.08604 0.73209 0.0
C111 C 0.29872 0.10658 0.6788 0.0
N112 N 0.32498 0.11158 0.68453 0.0
O113 O 0.24811 0.07218 0.66032 0.0
H114 H 0.30775 0.07417 0.75874 0.0
H115 H 0.28734 0.11477 0.65453 0.0
O116 O 0.26574 0.04351 0.72725 0.0
C117 C 0.23789 0.09383 0.64749 0.0
O118 O 0.23568 0.11416 0.67194 0.0
N119 N 0.25469 0.08898 0.76888 0.0
C120 C 0.24056 0.11175 0.84106 0.0
C121 C 0.24165 0.08389 0.83681 0.0
C122 C 0.24868 0.07278 0.8001 0.0
C123 C 0.25574 0.11594 0.77351 0.0
C124 C 0.24895 0.12774 0.80944 0.0
H125 H 0.24695 0.05147 0.79585 0.0
H126 H 0.25978 0.12848 0.74819 0.0
H127 H 0.21809 0.0253 0.71575 0.0
H128 H 0.15471 0.07689 0.74413 0.0
H129 H 0.35103 0.09814 0.7315 0.0
H130 H 0.2351 0.07091 0.86051 0.0
H131 H 0.24865 0.1493 0.81168 0.0
C132 C 0.94086 0.82843 0.80506 0.0
C133 C 0.95653 0.85048 0.79911 0.0
N134 N 0.98077 0.84234 0.78681 0.0
N135 N 0.95502 0.80632 0.79675 0.0
C136 C 0.97941 0.81536 0.78581 0.0
H137 H 0.92023 0.82847 0.81439 0.0
Co138 Co 0.9391 0.77285 0.79919 0.0
C139 C 0.97896 0.7332 0.77212 0.0
O140 O 0.95938 0.72 0.75533 0.0
N141 N 0.92134 0.73871 0.80257 0.0
C142 C 0.89534 0.70343 0.78991 0.0
C143 C 0.90565 0.72668 0.77502 0.0
C144 C 0.91982 0.72203 0.83424 0.0
N145 N 0.90406 0.70061 0.82726 0.0
O146 O 0.94404 0.77372 0.85547 0.0
H147 H 0.90185 0.73386 0.74547 0.0
H148 H 0.9298 0.72552 0.86219 0.0
O149 O 0.97416 0.75519 0.79027 0.0
C150 C 0.92161 0.78051 0.87033 0.0
O151 O 0.90063 0.78141 0.84702 0.0
N152 N 0.93169 0.77574 0.74535 0.0
C153 C 0.91432 0.79651 0.67346 0.0
C154 C 0.94019 0.78603 0.67704 0.0
C155 C 0.94876 0.7761 0.71378 0.0
C156 C 0.90643 0.78541 0.74183 0.0
C157 C 0.89722 0.79545 0.70614 0.0
H158 H 0.96942 0.77055 0.71728 0.0
H159 H 0.89365 0.7862 0.7676 0.0
H160 H 0.99554 0.80256 0.77618 0.0
H161 H 0.9505 0.87099 0.80364 0.0
H162 H 0.88171 0.69004 0.77484 0.0
H163 H 0.9541 0.78706 0.65254 0.0
H164 H 0.8771 0.80327 0.70455 0.0
C165 C 0.69766 0.43538 0.0337 0.0
C166 C 0.67435 0.44914 0.02741 0.0
N167 N 0.6795 0.47553 0.02992 0.0
N168 N 0.71758 0.45286 0.04031 0.0
C169 C 0.70594 0.47717 0.03801 0.0
H170 H 0.70001 0.41394 0.03336 0.0
Co171 Co 0.7529 0.4428 0.04985 0.0
C172 C 0.78111 0.49382 0.05924 0.0
O173 O 0.79066 0.48547 0.09328 0.0
N174 N 0.7888 0.43232 0.05935 0.0
C175 C 0.83236 0.42613 0.04992 0.0
C176 C 0.80962 0.43785 0.0353 0.0
C177 C 0.7996 0.41728 0.08863 0.0
N178 N 0.82605 0.41316 0.0835 0.0
O179 O 0.74691 0.44915 0.10513 0.0
H180 H 0.80831 0.44954 0.00847 0.0
H181 H 0.78834 0.40884 0.11282 0.0
O182 O 0.76504 0.47901 0.03973 0.0
C183 C 0.73803 0.42667 0.11702 0.0
O184 O 0.73824 0.40643 0.09215 0.0
N185 N 0.7563 0.43371 -0.00338 0.0
C186 C 0.74389 0.41142 0.9234 0.0
C187 C 0.74416 0.43925 0.9284 0.0
C188 C 0.75035 0.45011 0.96561 0.0
C189 C 0.75824 0.40687 0.99132 0.0
C190 C 0.75233 0.39531 0.95485 0.0
H191 H 0.74795 0.4713 0.97032 0.0
H192 H 0.76226 0.39414 0.01644 0.0
H193 H 0.71675 0.49569 0.04158 0.0
H194 H 0.65506 0.4402 0.02184 0.0
H195 H 0.85207 0.42718 0.03689 0.0
H196 H 0.73754 0.45232 0.90487 0.0
H197 H 0.75267 0.37378 0.95203 0.0
C198 C 0.09046 0.19741 0.28479 0.0
C199 C 0.07674 0.17394 0.27916 0.0
N200 N 0.05033 0.17902 0.28126 0.0
N201 N 0.07292 0.21735 0.29054 0.0
C202 C 0.04864 0.20557 0.28843 0.0
H203 H 0.1119 0.19986 0.28456 0.0
Co204 Co 0.08255 0.25297 0.29903 0.0
C205 C 0.02944 0.27824 0.30691 0.0
O206 O 0.035 0.28554 0.34341 0.0
N207 N 0.09235 0.28915 0.30758 0.0
C208 C 0.09696 0.33276 0.29715 0.0
C209 C 0.08541 0.30956 0.28367 0.0
C210 C 0.10808 0.30063 0.33562 0.0
N211 N 0.11127 0.32716 0.32985 0.0
O212 O 0.07593 0.24782 0.35442 0.0
H213 H 0.07297 0.30764 0.25762 0.0
H214 H 0.11767 0.28981 0.35929 0.0
O215 O 0.04636 0.26455 0.28728 0.0
C216 C 0.09851 0.23947 0.36682 0.0
O217 O 0.11877 0.23945 0.34209 0.0
N218 N 0.09205 0.25559 0.24585 0.0
C219 C 0.11489 0.2422 0.17341 0.0
C220 C 0.08707 0.24159 0.17824 0.0
C221 C 0.07596 0.24825 0.21502 0.0
C222 C 0.11884 0.25834 0.24067 0.0
C223 C 0.13067 0.25194 0.20457 0.0
H224 H 0.05489 0.245 0.21969 0.0
H225 H 0.13138 0.2634 0.26568 0.0
H226 H 0.0301 0.21637 0.29144 0.0
H227 H 0.08573 0.15461 0.27428 0.0
H228 H 0.09488 0.35229 0.28392 0.0
H229 H 0.07424 0.2339 0.15503 0.0
H230 H 0.15218 0.25299 0.20189 0.0
C231 C 0.33064 0.59253 0.5333 0.0
C232 C 0.35418 0.57879 0.52851 0.0
N233 N 0.34897 0.55247 0.53135 0.0
N234 N 0.31066 0.575 0.53918 0.0
C235 C 0.32242 0.55075 0.5379 0.0
H236 H 0.32818 0.61396 0.53265 0.0
Co237 Co 0.27523 0.58425 0.5486 0.0
C238 C 0.25058 0.53052 0.55206 0.0
O239 O 0.24448 0.5343 0.58951 0.0
N240 N 0.23927 0.59371 0.55805 0.0
C241 C 0.19564 0.59801 0.54796 0.0
C242 C 0.21872 0.58643 0.5345 0.0
C243 C 0.22804 0.60984 0.58575 0.0
N244 N 0.20145 0.61288 0.58015 0.0
O245 O 0.28056 0.57491 0.60295 0.0
H246 H 0.22047 0.57385 0.50854 0.0
H247 H 0.23913 0.61985 0.60889 0.0
O248 O 0.26348 0.54848 0.53335 0.0
C249 C 0.28962 0.59592 0.61969 0.0
O250 O 0.28996 0.61822 0.59935 0.0
N251 N 0.27241 0.59602 0.49648 0.0
C252 C 0.28406 0.62129 0.42524 0.0
C253 C 0.28458 0.59334 0.42787 0.0
C254 C 0.27885 0.58101 0.46404 0.0
C255 C 0.26997 0.62299 0.49368 0.0
C256 C 0.27554 0.63604 0.45825 0.0
H257 H 0.28191 0.55977 0.46678 0.0
H258 H 0.26566 0.63463 0.51993 0.0
H259 H 0.31185 0.53219 0.54245 0.0
H260 H 0.37357 0.5875 0.52288 0.0
H261 H 0.17605 0.59562 0.53494 0.0
H262 H 0.2914 0.58127 0.40321 0.0
H263 H 0.27464 0.65761 0.45735 0.0
C264 C 0.666 0.52302 0.03888 0.0
C265 C 0.66059 0.49711 0.02463 0.0
C266 C 0.64725 0.54357 0.03445 0.0
C267 C 0.57508 0.55435 0.02025 0.0
H268 H 0.59515 0.62503 0.98466 0.0
C269 C 0.49537 0.6313 0.97631 0.0
C270 C 0.49951 0.65822 0.98626 0.0
C271 C 0.51576 0.61255 0.98098 0.0
C272 C 0.58921 0.60552 0.99516 0.0
H273 H 0.63127 0.47321 0.993 0.0
H274 H 0.59876 0.50866 0.98608 0.0
H275 H 0.62947 0.59092 0.99354 0.0
H276 H 0.52849 0.68655 0.00875 0.0
H277 H 0.56405 0.65377 0.01755 0.0
H278 H 0.53501 0.56876 0.02247 0.0
C279 C 0.61734 0.51298 0.00119 0.0
C280 C 0.60892 0.58596 0.00018 0.0
C281 C 0.63608 0.49256 0.00531 0.0
C282 C 0.52474 0.66602 0.00047 0.0
C283 C 0.54513 0.64718 0.00545 0.0
C284 C 0.55547 0.57389 0.01555 0.0
C285 C 0.62256 0.53869 0.01594 0.0
C286 C 0.60202 0.56004 0.01232 0.0
C287 C 0.54085 0.62011 -0.00391 0.0
C288 C 0.56215 0.59968 0.00244 0.0
H289 H 0.68447 0.52739 0.05417 0.0
H290 H 0.65182 0.56314 0.04635 0.0
H291 H 0.56914 0.53475 0.03039 0.0
H292 H 0.47637 0.62471 0.96456 0.0
H293 H 0.51183 0.59208 0.97245 0.0
C294 C 0.03332 0.1351 0.25813 0.0
C295 C 0.02871 0.16003 0.27623 0.0
C296 C 1.01275 0.11646 0.25392 0.0
C297 C 0.93967 0.109 0.24987 0.0
H298 H 0.95512 0.03522 0.27513 0.0
C299 C 0.85797 0.02627 0.24965 0.0
C300 C 0.86548 1.00066 0.23673 0.0
C301 C 0.87714 0.04641 0.25464 0.0
C302 C 0.95048 0.05564 0.26736 0.0
H303 H 0.99822 0.18464 0.30374 0.0
H304 H 0.96227 0.15218 0.29572 0.0
H305 H 0.98964 0.06893 0.28342 0.0
H306 H 0.89885 0.97654 0.21731 0.0
H307 H 0.93208 1.01156 0.22513 0.0
H308 H 0.9006 0.09562 0.23315 0.0
C309 C 0.98198 0.14722 0.28479 0.0
C310 C 0.97031 0.07501 0.27228 0.0
C311 C 1.00266 0.16587 0.28934 0.0
C312 C 0.89247 0.99587 0.22802 0.0
C313 C 0.91156 0.016 0.23267 0.0
C314 C 0.91982 0.08954 0.24463 0.0
C315 C 0.98685 0.12219 0.26734 0.0
C316 C 0.96525 0.10189 0.26333 0.0
C317 C 0.90427 0.04148 0.24656 0.0
C318 C 0.92503 0.06253 0.25301 0.0
H319 H 0.0528 0.1299 0.24677 0.0
H320 H 0.0171 0.09757 0.23967 0.0
H321 H 0.93518 0.12951 0.24241 0.0
H322 H 0.83739 0.03053 0.257 0.0
H323 H 0.87075 0.06565 0.26578 0.0
C324 C 0.50154 0.3631 0.47696 0.0
C325 C 0.52727 0.36796 0.49224 0.0
C326 C 0.48127 0.38219 0.48096 0.0
C327 C 0.47142 0.45437 0.49603 0.0
H328 H 0.39992 0.43508 0.5291 0.0
C329 C 0.39468 0.53469 0.53887 0.0
C330 C 0.3679 0.53089 0.5279 0.0
C331 C 0.41331 0.51416 0.53442 0.0
C332 C 0.41967 0.4408 0.51931 0.0
H333 H 0.5512 0.39665 0.52507 0.0
H334 H 0.51623 0.42979 0.53127 0.0
H335 H 0.43369 0.40036 0.52079 0.0
H336 H 0.33968 0.50241 0.50372 0.0
H337 H 0.37225 0.46662 0.49532 0.0
H338 H 0.45759 0.49464 0.49397 0.0
C339 C 0.51184 0.41136 0.51573 0.0
C340 C 0.43904 0.42087 0.51462 0.0
C341 C 0.53198 0.39228 0.51203 0.0
C342 C 0.3601 0.50589 0.51282 0.0
C343 C 0.37881 0.48536 0.50806 0.0
C344 C 0.45208 0.47422 0.50042 0.0
C345 C 0.48629 0.40666 0.50004 0.0
C346 C 0.46523 0.42749 0.50337 0.0
C347 C 0.40574 0.48929 0.51853 0.0
C348 C 0.426 0.46779 0.51258 0.0
H349 H 0.4971 0.34481 0.46123 0.0
H350 H 0.46183 0.37805 0.46832 0.0
H351 H 0.49128 0.46008 0.4866 0.0
H352 H 0.40124 0.55352 0.55129 0.0
H353 H 0.43366 0.5178 0.54375 0.0
C354 C 0.02943 0.85176 0.78281 0.0
C355 C 1.00281 0.85954 0.77642 0.0
C356 C 0.05044 0.86982 0.77626 0.0
C357 C 0.06227 0.94253 0.77245 0.0
H358 H 0.1295 0.92476 0.72218 0.0
C359 C 0.13489 0.02457 0.72483 0.0
C360 C 0.16223 0.02099 0.73235 0.0
C361 C 0.11692 1.00348 0.72925 0.0
C362 C 0.11093 0.92995 0.73666 0.0
H363 H 0.97763 0.8916 0.75526 0.0
H364 H 0.01388 0.92277 0.74381 0.0
H365 H 0.09557 0.89003 0.7315 0.0
H366 H 0.19217 0.99204 0.74951 0.0
H367 H 0.16065 0.95508 0.75736 0.0
H368 H 0.07732 0.98225 0.77777 0.0
C369 C 0.01863 0.90311 0.755 0.0
C370 C 0.09151 0.91006 0.74199 0.0
C371 C 0.9978 0.8852 0.76155 0.0
C372 C 0.17127 0.99546 0.74324 0.0
C373 C 0.1532 0.97427 0.74774 0.0
C374 C 0.08157 0.96228 0.76718 0.0
C375 C 0.04516 0.89594 0.76317 0.0
C376 C 0.06675 0.91627 0.75936 0.0
C377 C 0.12572 0.97817 0.74145 0.0
C378 C 0.10598 0.95642 0.74863 0.0
H379 H 0.03392 0.83213 0.79428 0.0
H380 H 0.07066 0.86367 0.78284 0.0
H381 H 0.04373 0.94789 0.78689 0.0
H382 H 0.1273 0.04375 0.71549 0.0
H383 H 0.09602 1.00707 0.72315 0.0
C384 C 0.31344 0.6564 0.39592 0.0
C385 C 0.29542 0.63518 0.3903 0.0
C386 C 0.32545 0.66883 0.36358 0.0
C387 C 0.3181 0.68113 0.25721 0.0
H388 H 0.39442 0.69398 0.26046 0.0
C389 C 0.37615 0.71541 0.11945 0.0
C390 C 0.39739 0.73347 0.12424 0.0
C391 C 0.36355 0.70423 0.15229 0.0
C392 C 0.37304 0.69096 0.25927 0.0
H393 H 0.27576 0.6105 0.3463 0.0
H394 H 0.29669 0.6325 0.28941 0.0
H395 H 0.37246 0.67274 0.3166 0.0
H396 H 0.42211 0.75396 0.16729 0.0
H397 H 0.39965 0.73486 0.22506 0.0
H398 H 0.31847 0.69967 0.20026 0.0
C399 C 0.30139 0.63947 0.31901 0.0
C400 C 0.36048 0.67867 0.29139 0.0
C401 C 0.28953 0.6268 0.3515 0.0
C402 C 0.40581 0.74008 0.16274 0.0
C403 C 0.39301 0.72903 0.19576 0.0
C404 C 0.3306 0.69365 0.22524 0.0
C405 C 0.31965 0.66047 0.32479 0.0
C406 C 0.33291 0.67352 0.29062 0.0
C407 C 0.37172 0.71091 0.19091 0.0
C408 C 0.35827 0.69858 0.22572 0.0
H409 H 0.31875 0.66303 0.42547 0.0
H410 H 0.33927 0.68508 0.36894 0.0
H411 H 0.29676 0.67777 0.25605 0.0
H412 H 0.36962 0.70938 0.09016 0.0
H413 H 0.34773 0.68989 0.14727 0.0
C414 C 0.79291 0.9165 0.41516 0.0
C415 C 0.79348 0.90458 0.37743 0.0
C416 C 0.80685 0.90508 0.4468 0.0
C417 C 0.86267 0.85885 0.46808 0.0
H418 H 0.83149 0.85678 0.57307 0.0
C419 C 0.90687 0.79839 0.59979 0.0
C420 C 0.90525 0.81046 0.63729 0.0
C421 C 0.89491 0.81053 0.56689 0.0
C422 C 0.84062 0.85747 0.544 0.0
H423 H 0.80949 0.87138 0.34343 0.0
H424 H 0.83288 0.85116 0.39863 0.0
H425 H 0.80646 0.87648 0.51871 0.0
H426 H 0.89189 0.8455 0.66939 0.0
H427 H 0.87137 0.8667 0.61225 0.0
H428 H 0.89677 0.83958 0.49353 0.0
C429 C 0.82194 0.86947 0.40376 0.0
C430 C 0.82626 0.86879 0.51286 0.0
C431 C 0.80809 0.88086 0.37223 0.0
C432 C 0.89291 0.8355 0.64092 0.0
C433 C 0.88108 0.84759 0.60825 0.0
C434 C 0.87703 0.84744 0.49928 0.0
C435 C 0.82172 0.88155 0.44134 0.0
C436 C 0.83711 0.86965 0.47453 0.0
C437 C 0.88127 0.83493 0.5711 0.0
C438 C 0.86618 0.84674 0.53761 0.0
H439 H 0.78183 0.93473 0.4202 0.0
H440 H 0.80644 0.91502 0.47533 0.0
H441 H 0.87177 0.85953 0.43901 0.0
H442 H 0.91628 0.77909 0.59629 0.0
H443 H 0.89536 0.8003 0.53859 0.0
C444 C 0.73777 0.40742 0.84945 0.0
C445 C 0.73153 0.39891 0.88798 0.0
C446 C 0.72557 0.39533 0.81659 0.0
C447 C 0.66585 0.35712 0.78765 0.0
H448 H 0.70868 0.33288 0.69904 0.0
C449 C 0.62175 0.29039 0.66389 0.0
C450 C 0.63021 0.2954 0.62496 0.0
C451 C 0.63439 0.30291 0.69596 0.0
C452 C 0.69634 0.33982 0.72328 0.0
H453 H 0.70703 0.37182 0.92239 0.0
H454 H 0.68591 0.35086 0.86532 0.0
H455 H 0.72997 0.35636 0.75403 0.0
H456 H 0.65801 0.31807 0.58906 0.0
H457 H 0.67969 0.34006 0.64458 0.0
H458 H 0.63216 0.34096 0.75692 0.0
C459 C 0.70026 0.36668 0.86037 0.0
C460 C 0.70858 0.35328 0.75477 0.0
C461 C 0.7126 0.37849 0.89302 0.0
C462 C 0.65145 0.31325 0.61877 0.0
C463 C 0.6639 0.32589 0.65068 0.0
C464 C 0.65356 0.34387 0.75605 0.0
C465 C 0.70661 0.37491 0.82181 0.0
C466 C 0.69349 0.3619 0.78739 0.0
C467 C 0.65555 0.32094 0.68971 0.0
C468 C 0.66866 0.33492 0.72353 0.0
H469 H 0.75222 0.42317 0.84478 0.0
H470 H 0.73069 0.40217 0.78714 0.0
H471 H 0.65366 0.36382 0.81224 0.0
H472 H 0.60547 0.27669 0.66953 0.0
H473 H 0.62766 0.29834 0.72566 0.0
C474 C 0.20828 0.14419 0.87005 0.0
C475 C 0.22767 0.12437 0.87593 0.0
C476 C 0.19585 0.15649 0.90219 0.0
C477 C 0.18257 0.14908 0.00965 0.0
H478 H 0.16714 0.22476 0.00273 0.0
C479 C 0.14911 0.21181 0.14407 0.0
C480 C 0.12773 0.22956 0.13847 0.0
C481 C 0.16081 0.19882 0.11189 0.0
C482 C 0.17107 0.20357 0.00491 0.0
H483 H 0.24895 0.10151 0.92011 0.0
H484 H 0.22764 0.12351 0.97678 0.0
H485 H 0.1893 0.20233 0.94773 0.0
H486 H 0.10181 0.24755 0.0947 0.0
H487 H 0.12255 0.22491 0.03801 0.0
H488 H 0.16476 0.1506 0.0673 0.0
C489 C 0.22178 0.12929 0.94714 0.0
C490 C 0.18375 0.19066 0.97339 0.0
C491 C 0.23409 0.11676 0.91478 0.0
C492 C 0.11829 0.23404 0.09985 0.0
C493 C 0.13023 0.2212 0.06749 0.0
C494 C 0.1701 0.16207 0.04132 0.0
C495 C 0.20259 0.14944 0.9412 0.0
C496 C 0.18959 0.16321 0.97526 0.0
C497 C 0.15152 0.20333 0.07326 0.0
C498 C 0.16419 0.18944 0.03926 0.0
H499 H 0.20241 0.15 0.8404 0.0
H500 H 0.18069 0.17134 0.89636 0.0
H501 H 0.18633 0.12787 0.01191 0.0
H502 H 0.15653 0.20755 0.17353 0.0
H503 H 0.17731 0.18536 0.11724 0.0
C504 C 0.33341 0.5881 0.65086 0.0
C505 C 0.30643 0.59503 0.65531 0.0
C506 C 0.35247 0.5973 0.67802 0.0
C507 C 0.36446 0.62687 0.77588 0.0
H508 H 0.4133 0.67505 0.72259 0.0
C509 C 0.43959 0.69126 0.86291 0.0
C510 C 0.43372 0.71847 0.85838 0.0
C511 C 0.42978 0.6725 0.83574 0.0
C512 C 0.40007 0.66139 0.73778 0.0
H513 H 0.27793 0.61561 0.69241 0.0
H514 H 0.311 0.63034 0.74134 0.0
H515 H 0.38394 0.64597 0.68345 0.0
H516 H 0.4143 0.74763 0.8212 0.0
H517 H 0.39846 0.71501 0.77229 0.0
H518 H 0.38026 0.64262 0.83021 0.0
C519 C 0.31745 0.61795 0.71679 0.0
C520 C 0.38338 0.64469 0.71548 0.0
C521 C 0.29849 0.60931 0.68909 0.0
C522 C 0.41982 0.72686 0.82457 0.0
C523 C 0.41054 0.70816 0.79687 0.0
C524 C 0.38161 0.6431 0.79818 0.0
C525 C 0.34475 0.61315 0.71044 0.0
C526 C 0.36499 0.6277 0.73432 0.0
C527 C 0.41433 0.68072 0.80326 0.0
C528 C 0.39915 0.66094 0.77935 0.0
H529 H 0.3401 0.57782 0.62438 0.0
H530 H 0.37339 0.59335 0.67247 0.0
H531 H 0.35037 0.61408 0.79108 0.0
H532 H 0.44955 0.68426 0.88942 0.0
H533 H 0.43296 0.65147 0.84132 0.0
C534 C 0.82368 0.93722 0.10207 0.0
C535 C 0.79855 0.92629 0.11086 0.0
C536 C 0.8408 0.92415 0.0754 0.0
C537 C 0.85513 0.85578 0.04988 0.0
H538 H 0.89507 0.88071 0.95897 0.0
C539 C 0.89641 0.78512 0.93249 0.0
C540 C 0.91882 0.79223 0.91006 0.0
C541 C 0.88696 0.80195 0.96228 0.0
C542 C 0.88457 0.87358 0.9849 0.0
H543 H 0.77066 0.89474 0.09665 0.0
H544 H 0.8001 0.87236 0.04966 0.0
H545 H 0.86654 0.91187 0.99571 0.0
H546 H 0.94995 0.82169 0.90244 0.0
H547 H 0.93375 0.85115 0.95543 0.0
H548 H 0.87285 0.81765 0.03959 0.0
C549 C 0.80677 0.89075 0.06343 0.0
C550 C 0.86808 0.89141 0.00564 0.0
C551 C 0.78977 0.90377 0.08982 0.0
C552 C 0.93297 0.81548 0.92003 0.0
C553 C 0.92336 0.83257 0.94979 0.0
C554 C 0.87178 0.83813 0.0296 0.0
C555 C 0.83294 0.89996 0.05764 0.0
C556 C 0.85254 0.88239 0.0375 0.0
C557 C 0.89958 0.8265 0.97014 0.0
C558 C 0.88605 0.84651 -0.00398 0.0
H559 H 0.83114 0.95413 0.11881 0.0
H560 H 0.86089 0.93163 0.07138 0.0
H561 H 0.84386 0.84848 0.07501 0.0
H562 H 0.88488 0.76754 0.92475 0.0
H563 H 0.86847 0.79663 0.97686 0.0
C564 C 0.70126 0.43685 0.16446 0.0
C565 C 0.72459 0.42259 0.15522 0.0
C566 C 0.68257 0.42611 0.19107 0.0
C567 C 0.65818 0.36082 0.21467 0.0
H568 H 0.62732 0.38792 0.31197 0.0
C569 C 0.61378 0.29277 0.33233 0.0
C570 C 0.5941 0.30221 0.35826 0.0
C571 C 0.62369 0.30906 0.30229 0.0
C572 C 0.63519 0.38031 0.28429 0.0
H573 H 0.74786 0.38745 0.16869 0.0
H574 H 0.71565 0.36904 0.21533 0.0
H575 H 0.65836 0.41584 0.27414 0.0
H576 H 0.56832 0.33547 0.3723 0.0
H577 H 0.58521 0.36403 0.31891 0.0
H578 H 0.63548 0.32534 0.22442 0.0
C579 C 0.7116 0.38825 0.20197 0.0
C580 C 0.65311 0.39627 0.26289 0.0
C581 C 0.73016 0.39894 0.1757 0.0
C582 C 0.58299 0.32752 0.35187 0.0
C583 C 0.59306 0.34402 0.32185 0.0
C584 C 0.64011 0.34508 0.23564 0.0
C585 C 0.68706 0.40101 0.20832 0.0
C586 C 0.66544 0.38623 0.22866 0.0
C587 C 0.61434 0.33536 0.29779 0.0
C588 C 0.62911 0.35418 0.27152 0.0
H589 H 0.69625 0.45479 0.14826 0.0
H590 H 0.66376 0.43629 0.19557 0.0
H591 H 0.66706 0.35285 0.18787 0.0
H592 H 0.62312 0.27359 0.33744 0.0
H593 H 0.64026 0.30172 0.28484 0.0
C594 C 0.08982 0.20242 0.41414 0.0
C595 C 0.1027 0.22661 0.40542 0.0
C596 C 0.10141 0.18438 0.44091 0.0
C597 C 0.16826 0.1647 0.46713 0.0
H598 H 0.14006 0.12806 0.55894 0.0
C599 C 0.23556 0.11829 0.58464 0.0
C600 C 0.22649 0.09695 0.6077 0.0
C601 C 0.21948 0.129 0.55491 0.0
C602 C 0.14807 0.13761 0.53278 0.0
H603 H 0.13625 0.252 0.41996 0.0
H604 H 0.15609 0.22097 0.467 0.0
H605 H 0.11137 0.15857 0.52152 0.0
H606 H 0.19409 0.06914 0.61691 0.0
H607 H 0.16599 0.08736 0.5639 0.0
H608 H 0.20481 0.14403 0.4778 0.0
C609 C 0.13731 0.21571 0.45308 0.0
C610 C 0.13165 0.15524 0.51163 0.0
C611 C 0.12576 0.23362 0.42662 0.0
C612 C 0.20182 0.08514 0.59867 0.0
C613 C 0.18554 0.09597 0.56892 0.0
C614 C 0.18449 0.14691 0.48781 0.0
C615 C 0.12605 0.19037 0.45887 0.0
C616 C 0.14192 0.16957 0.47939 0.0
C617 C 0.19375 0.11875 0.54778 0.0
C618 C 0.17495 0.13376 0.52171 0.0
H619 H 0.07242 0.19629 0.39734 0.0
H620 H 0.09235 0.16496 0.44493 0.0
H621 H 0.17649 0.17505 0.44176 0.0
H622 H 0.2542 0.12818 0.59186 0.0
H623 H 0.22647 0.1467 0.53982 0.0
C624 C 0.39668 0.86867 0.92044 0.0
C625 C 0.4022 0.84274 0.90649 0.0
C626 C 0.38186 0.88662 0.89776 0.0
C627 C 0.35844 0.89974 0.79481 0.0
H628 H 0.31408 0.9517 0.84864 0.0
C629 C 0.27977 0.99277 0.76004 0.0
C630 C 0.2929 1.00432 0.72753 0.0
C631 C 0.29092 0.97095 0.7799 0.0
C632 C 0.32599 0.93715 0.83284 0.0
H633 H 0.39583 0.81567 0.85704 0.0
H634 H 0.36918 0.84666 0.81816 0.0
H635 H 0.33634 0.91738 0.88668 0.0
H636 H 0.32794 1.00167 0.6901 0.0
H637 H 0.34779 0.96438 0.72531 0.0
H638 H 0.34731 0.91904 0.74078 0.0
C639 C 0.37689 0.85326 0.84651 0.0
C640 C 0.33922 0.91762 0.85489 0.0
C641 C 0.39199 0.83528 0.86915 0.0
C642 C 0.31716 0.99315 0.71484 0.0
C643 C 0.32851 0.97158 0.73503 0.0
C644 C 0.34493 0.91913 0.77265 0.0
C645 C 0.37166 0.87926 0.86047 0.0
C646 C 0.35604 0.89887 0.83635 0.0
C647 C 0.31574 0.9603 0.76819 0.0
C648 C 0.32879 0.93841 0.79138 0.0
H649 H 0.40369 0.87534 0.94908 0.0
H650 H 0.37878 0.90652 0.90942 0.0
H651 H 0.3713 0.88585 0.77933 0.0
H652 H 0.26093 1.00075 0.77039 0.0
H653 H 0.28009 0.96255 0.80465 0.0
C654 C 0.53184 0.7771 0.01434 0.0
C655 C 0.52293 0.78796 0.97833 0.0
C656 C 0.55289 0.78898 0.03533 0.0
C657 C 0.60765 0.83986 0.02658 0.0
H658 H 0.60188 0.84104 0.14104 0.0
C659 C 0.68842 0.89 0.12577 0.0
C660 C 0.67973 0.90364 0.16001 0.0
C661 C 0.67073 0.87424 0.1035 0.0
C662 C 0.60376 0.84118 0.10909 0.0
H663 H 0.52959 0.81963 0.93585 0.0
H664 H 0.56558 0.84073 0.97273 0.0
H665 H 0.56879 0.81719 0.10221 0.0
H666 H 0.64501 0.91067 0.19724 0.0
H667 H 0.61443 0.88446 0.15797 0.0
H668 H 0.64188 0.86504 0.03347 0.0
C669 C 0.55686 0.82266 0.98453 0.0
C670 C 0.58492 0.82703 0.0867 0.0
C671 C 0.53604 0.81059 0.96334 0.0
C672 C 0.65276 0.9009 0.17111 0.0
C673 C 0.63509 0.88538 0.14869 0.0
C674 C 0.62636 0.85426 0.04898 0.0
C675 C 0.56541 0.81227 0.02113 0.0
C676 C 0.58642 0.82629 0.04505 0.0
C677 C 0.64375 0.87175 0.11457 0.0
C678 C 0.62456 0.85536 0.09059 0.0
H679 H 0.52233 0.75955 0.0266 0.0
H680 H 0.55919 0.77995 0.06288 0.0
H681 H 0.60984 0.83949 0.99467 0.0
H682 H 0.70884 0.89153 0.11575 0.0
H683 H 0.67833 0.86384 0.07772 0.0
C684 C 0.73947 0.02895 0.26843 0.0
C685 C 0.7378 0.02656 0.22697 0.0
C686 C 0.72738 0.05027 0.28826 0.0
C687 C 0.67447 0.10163 0.27585 0.0
H688 H 0.70482 0.12934 0.37336 0.0
C689 C 0.6272 0.18925 0.36556 0.0
C690 C 0.62461 0.18472 0.40649 0.0
C691 C 0.64217 0.17181 0.34178 0.0
C692 C 0.69604 0.12175 0.34623 0.0
H693 H 0.72267 0.04539 0.17378 0.0
H694 H 0.70217 0.08306 0.20825 0.0
H695 H 0.72947 0.09641 0.33483 0.0
H696 H 0.63634 0.15873 0.45462 0.0
H697 H 0.66254 0.12852 0.41337 0.0
H698 H 0.6411 0.1273 0.2874 0.0
C699 C 0.71234 0.06805 0.2256 0.0
C700 C 0.71012 0.10275 0.32414 0.0
C701 C 0.72431 0.04653 0.20574 0.0
C702 C 0.63769 0.16263 0.42316 0.0
C703 C 0.65292 0.14546 0.39956 0.0
C704 C 0.66051 0.12089 0.29777 0.0
C705 C 0.71342 0.07006 0.26724 0.0
C706 C 0.69935 0.09201 0.28898 0.0
C707 C 0.65525 0.14973 0.35855 0.0
C708 C 0.67093 0.13083 0.33358 0.0
H709 H 0.74946 0.01389 0.2859 0.0
H710 H 0.72832 0.0507 0.3203 0.0
H711 H 0.66527 0.09367 0.2493 0.0
H712 H 0.61724 0.206 0.35181 0.0
H713 H 0.64369 0.1757 0.31031 0.0
C714 C 0.48287 0.22486 0.46134 0.0
C715 C 0.50276 0.23884 0.48226 0.0
C716 C 0.46142 0.21304 0.48139 0.0
C717 C 0.42624 0.21216 0.57927 0.0
H718 H 0.40202 0.14258 0.54383 0.0
C719 C 0.36398 0.14155 0.67793 0.0
C720 C 0.34256 0.12768 0.66048 0.0
C721 C 0.38155 0.15657 0.65476 0.0
C722 C 0.40832 0.16215 0.55383 0.0
H723 H 0.51537 0.25153 0.54085 0.0
H724 H 0.47855 0.23059 0.57571 0.0
H725 H 0.4362 0.16613 0.5062 0.0
H726 H 0.32283 0.11883 0.60486 0.0
H727 H 0.35373 0.14497 0.56417 0.0
H728 H 0.39888 0.20769 0.6276 0.0
C729 C 0.47907 0.22915 0.54371 0.0
C730 C 0.42791 0.17574 0.53218 0.0
C731 C 0.50037 0.24111 0.52366 0.0
C732 C 0.33902 0.1294 0.61922 0.0
C733 C 0.35684 0.14419 0.59591 0.0
C734 C 0.40685 0.19845 0.60108 0.0
C735 C 0.45937 0.21472 0.52295 0.0
C736 C 0.43737 0.20086 0.54478 0.0
C737 C 0.37836 0.15793 0.61343 0.0
C738 C 0.39782 0.17317 0.58886 0.0
H739 H 0.48398 0.22279 0.42943 0.0
H740 H 0.44647 0.20253 0.46422 0.0
H741 H 0.4325 0.23166 0.58954 0.0
H742 H 0.36711 0.14089 0.70965 0.0
H743 H 0.39802 0.1667 0.66919 0.0
C744 C 0.89204 0.6539 0.84107 0.0
C745 C 0.8956 0.68018 0.8545 0.0
C746 C 0.88072 0.63458 0.86567 0.0
C747 C 0.86061 0.62025 0.97041 0.0
H748 H 0.81503 0.56842 0.91828 0.0
C749 C 0.77948 0.52977 0.00765 0.0
C750 C 0.79223 0.51813 0.04039 0.0
C751 C 0.79132 0.55105 0.9874 0.0
C752 C 0.82732 0.58292 0.93362 0.0
H753 H 0.89067 0.70679 0.9045 0.0
H754 H 0.8701 0.6733 0.9474 0.0
H755 H 0.83725 0.60221 0.87931 0.0
H756 H 0.82729 0.52009 0.07794 0.0
H757 H 0.84835 0.55646 0.04202 0.0
H758 H 0.84962 0.60156 0.02499 0.0
C759 C 0.87661 0.66731 0.91812 0.0
C760 C 0.8406 0.60212 0.911 0.0
C761 C 0.8884 0.68658 0.8936 0.0
C762 C 0.81679 0.52873 0.05302 0.0
C763 C 0.82886 0.54975 0.03241 0.0
C764 C 0.84702 0.6012 0.99315 0.0
C765 C 0.87211 0.64112 0.90422 0.0
C766 C 0.85769 0.62093 0.92892 0.0
C767 C 0.8165 0.561 -0.0011 0.0
C768 C 0.83027 0.58211 0.97507 0.0
H769 H 0.89772 0.64841 0.81119 0.0
H770 H 0.87846 0.61453 0.85414 0.0
H771 H 0.87369 0.6342 0.98542 0.0
H772 H 0.76043 0.52221 -0.00267 0.0
H773 H 0.78076 0.55953 0.96246 0.0
C774 C 0.98573 0.30308 0.30775 0.0
C775 C 1.00525 0.28876 0.28667 0.0
C776 C 0.96403 0.31467 0.28796 0.0
C777 C 0.92772 0.31428 0.19076 0.0
H778 H 0.90383 0.38423 0.22476 0.0
C779 C 0.86549 0.38395 0.09082 0.0
C780 C 0.84386 0.39761 0.10794 0.0
C781 C 0.88316 0.3693 0.11432 0.0
C782 C 0.91005 0.36456 0.21517 0.0
H783 H 0.01696 0.27528 0.22808 0.0
H784 H 0.9798 0.29579 0.19371 0.0
H785 H 0.93823 0.36111 0.26257 0.0
H786 H 0.82392 0.4066 0.16329 0.0
H787 H 0.85508 0.38117 0.20459 0.0
H788 H 0.90012 0.31824 0.14259 0.0
C789 C 0.98074 0.29766 0.22565 0.0
C790 C 0.92976 0.35121 0.23693 0.0
C791 C 1.00226 0.28593 0.24543 0.0
C792 C 0.84028 0.39616 0.14921 0.0
C793 C 0.85823 0.38178 0.17286 0.0
C794 C 0.90825 0.32776 0.16881 0.0
C795 C 0.96137 0.3124 0.24651 0.0
C796 C 0.93912 0.32597 0.22481 0.0
C797 C 0.87989 0.36816 0.15565 0.0
C798 C 0.89938 0.35318 0.18049 0.0
H799 H 0.98733 0.3056 0.33954 0.0
H800 H 0.94936 0.32544 0.30524 0.0
H801 H 0.93385 0.29466 0.18089 0.0
H802 H 0.86866 0.38443 0.05911 0.0
H803 H 0.89974 0.35924 0.10014 0.0
C804 C 0.22632 0.48645 0.55041 0.0
C805 C 0.23945 0.50718 0.53018 0.0
C806 C 0.21392 0.46563 0.52947 0.0
C807 C 0.18356 0.45113 0.43237 0.0
H808 H 0.18871 0.37696 0.46359 0.0
C809 C 0.13904 0.36788 0.33452 0.0
C810 C 0.12711 0.34573 0.35284 0.0
C811 C 0.15359 0.38651 0.35665 0.0
C812 C 0.18672 0.39759 0.45471 0.0
H813 H 0.25022 0.52178 0.47188 0.0
H814 H 0.22859 0.48566 0.43556 0.0
H815 H 0.21263 0.41112 0.50136 0.0
H816 H 0.12137 0.32574 0.40897 0.0
H817 H 0.14629 0.35858 0.44797 0.0
H818 H 0.15725 0.43801 0.38644 0.0
C819 C 0.22776 0.48557 0.46764 0.0
C820 C 0.20054 0.41718 0.47635 0.0
C821 C 0.24036 0.50621 0.48853 0.0
C822 C 0.13048 0.34247 0.39391 0.0
C823 C 0.14485 0.36132 0.41623 0.0
C824 C 0.16956 0.43165 0.41103 0.0
C825 C 0.21408 0.46519 0.48778 0.0
C826 C 0.19929 0.44418 0.46524 0.0
C827 C 0.15644 0.38378 0.39795 0.0
C828 C 0.17107 0.40453 0.4216 0.0
H829 H 0.22521 0.48653 0.58246 0.0
H830 H 0.20345 0.45034 0.54592 0.0
H831 H 0.18169 0.47178 0.42346 0.0
H832 H 0.13732 0.37072 0.30284 0.0
H833 H 0.16276 0.40303 0.34116 0.0
C834 C 0.18663 0.63393 0.64334 0.0
C835 C 0.18284 0.62896 0.60264 0.0
C836 C 0.16718 0.64765 0.66542 0.0
C837 C 0.09494 0.66072 0.66297 0.0
H838 H 0.10862 0.71372 0.74449 0.0
C839 C 1.01009 0.69544 0.76188 0.0
C840 C 1.00637 0.72308 0.76561 0.0
C841 C 0.03404 0.6851 0.74754 0.0
C842 C 0.10453 0.699 0.72172 0.0
H843 H 0.15654 0.63636 0.55284 0.0
H844 H 0.12292 0.65998 0.59099 0.0
H845 H 0.14608 0.69438 0.7071 0.0
H846 H 0.02548 0.76161 0.75958 0.0
H847 H 0.0677 0.74343 0.73386 0.0
H848 H 0.05366 0.66527 0.67684 0.0
C849 C 0.14051 0.65275 0.60619 0.0
C850 C 0.12597 0.68779 0.70055 0.0
C851 C 0.15981 0.63911 0.58428 0.0
C852 C 0.02788 0.7402 0.75724 0.0
C853 C 0.05199 0.72977 0.74244 0.0
C854 C 0.07371 0.6717 0.68415 0.0
C855 C 0.14358 0.65666 0.6472 0.0
C856 C 0.12135 0.66861 0.67072 0.0
C857 C 0.05489 0.70212 0.73599 0.0
C858 C 0.07814 0.69091 0.7139 0.0
H859 H 0.20411 0.62636 0.65841 0.0
H860 H 0.17014 0.65027 0.69699 0.0
H861 H 0.09061 0.64579 0.64061 0.0
H862 H 0.99398 0.68173 0.76852 0.0
H863 H 0.03581 0.66369 0.74397 0.0
loop_
_geom_bond_atom_site_label_1
_geom_bond_atom_site_label_2
_geom_bond_distance
_geom_bond_site_symmetry_2
_ccdc_geom_bond_type
C0 C1 1.351 . S
C0 N3 1.368 . S
C0 H5 0.931 . S
C1 C0 1.351 . S
C1 N2 1.372 . S
C1 H29 0.930 . S
N2 C1 1.372 . S
N2 C4 1.340 . S
N3 C0 1.368 . S
N3 C4 1.322 . S
N3 Co6 2.135 . S
C4 N2 1.340 . S
C4 N3 1.322 . S
C4 H28 0.929 1_556 S
H5 C0 0.931 . S
Co6 N3 2.135 . S
Co6 N9 2.121 . S
Co6 O14 2.055 . S
Co6 O17 2.039 . S
Co6 N20 2.140 1_556 S
C7 O8 1.227 . S
C7 O17 1.265 1_554 S
O8 C7 1.227 . S
N9 Co6 2.121 . S
N9 C11 1.375 1_556 S
N9 C12 1.313 . S
C10 C11 1.338 . S
C10 N13 1.377 1_554 S
C10 H30 0.930 . S
C11 N9 1.375 1_554 S
C11 C10 1.338 . S
C11 H15 0.931 . S
C12 N9 1.313 . S
C12 N13 1.344 . S
C12 H16 0.930 . S
N13 C10 1.377 1_556 S
N13 C12 1.344 . S
O14 Co6 2.055 . S
O14 C18 1.253 . S
H15 C11 0.931 . S
H16 C12 0.930 . S
O17 Co6 2.039 . S
O17 C7 1.265 1_556 S
C18 O14 1.253 . S
C18 O19 1.227 . S
O19 C18 1.227 . S
N20 Co6 2.140 1_554 S
N20 C23 1.346 . S
N20 C24 1.345 . S
C21 C22 1.387 . S
C21 C25 1.391 . S
C22 C21 1.387 . S
C22 C23 1.369 . S
C22 H31 0.929 . S
C23 N20 1.346 . S
C23 C22 1.369 . S
C23 H26 0.928 . S
C24 N20 1.345 . S
C24 C25 1.371 . S
C24 H27 0.931 . S
C25 C21 1.391 . S
C25 C24 1.371 . S
C25 H32 0.930 . S
H26 C23 0.928 . S
H27 C24 0.931 . S
H28 C4 0.929 1_554 S
H29 C1 0.930 . S
H30 C10 0.930 . S
H31 C22 0.929 . S
H32 C25 0.930 . S
C33 C34 1.351 . S
C33 N36 1.368 . S
C33 H38 0.931 . S
C34 C33 1.351 . S
C34 N35 1.373 . S
C34 H62 0.930 . S
N35 C34 1.373 . S
N35 C37 1.340 . S
N36 C33 1.368 . S
N36 C37 1.321 . S
N36 Co39 2.135 . S
C37 N35 1.340 . S
C37 N36 1.321 . S
C37 H61 0.930 . S
H38 C33 0.931 . S
Co39 N36 2.135 . S
Co39 N42 2.121 . S
Co39 O47 2.055 . S
Co39 O50 2.039 . S
Co39 N53 2.140 . S
C40 O41 1.227 . S
C40 O50 1.265 . S
O41 C40 1.227 . S
N42 Co39 2.121 . S
N42 C44 1.375 . S
N42 C45 1.313 . S
C43 C44 1.338 . S
C43 N46 1.377 . S
C43 H63 0.930 . S
C44 N42 1.375 . S
C44 C43 1.338 . S
C44 H48 0.931 . S
C45 N42 1.313 . S
C45 N46 1.344 . S
C45 H49 0.930 . S
N46 C43 1.377 . S
N46 C45 1.344 . S
O47 Co39 2.055 . S
O47 C51 1.253 . S
H48 C44 0.931 . S
H49 C45 0.930 . S
O50 Co39 2.039 . S
O50 C40 1.265 . S
C51 O47 1.253 . S
C51 O52 1.227 . S
O52 C51 1.227 . S
N53 Co39 2.140 . S
N53 C56 1.346 . S
N53 C57 1.345 . S
C54 C55 1.387 . S
C54 C58 1.391 . S
C55 C54 1.387 . S
C55 C56 1.369 . S
C55 H64 0.929 . S
C56 N53 1.346 . S
C56 C55 1.369 . S
C56 H59 0.928 . S
C57 N53 1.345 . S
C57 C58 1.371 . S
C57 H60 0.931 . S
C58 C54 1.391 . S
C58 C57 1.371 . S
C58 H65 0.930 . S
H59 C56 0.928 . S
H60 C57 0.931 . S
H61 C37 0.930 . S
H62 C34 0.930 . S
H63 C43 0.930 . S
H64 C55 0.929 . S
H65 C58 0.930 . S
C66 C67 1.351 . S
C66 N69 1.368 . S
C66 H71 0.931 . S
C67 C66 1.351 . S
C67 N68 1.373 . S
C67 H95 0.930 . S
N68 C67 1.373 . S
N68 C70 1.340 . S
N69 C66 1.368 . S
N69 C70 1.321 . S
N69 Co72 2.135 . S
C70 N68 1.340 . S
C70 N69 1.321 . S
C70 H94 0.930 . S
H71 C66 0.931 . S
Co72 N69 2.135 . S
Co72 N75 2.121 . S
Co72 O80 2.055 . S
Co72 O83 2.039 . S
Co72 N86 2.140 . S
C73 O74 1.227 . S
C73 O83 1.265 . S
O74 C73 1.227 . S
N75 Co72 2.121 . S
N75 C77 1.375 . S
N75 C78 1.313 . S
C76 C77 1.338 . S
C76 N79 1.377 . S
C76 H96 0.930 . S
C77 N75 1.375 . S
C77 C76 1.338 . S
C77 H81 0.931 . S
C78 N75 1.313 . S
C78 N79 1.344 . S
C78 H82 0.930 . S
N79 C76 1.377 . S
N79 C78 1.344 . S
O80 Co72 2.055 . S
O80 C84 1.253 . S
H81 C77 0.931 . S
H82 C78 0.930 . S
O83 Co72 2.039 . S
O83 C73 1.265 . S
C84 O80 1.253 . S
C84 O85 1.227 . S
O85 C84 1.227 . S
N86 Co72 2.140 . S
N86 C89 1.346 . S
N86 C90 1.345 . S
C87 C88 1.387 . S
C87 C91 1.391 . S
C88 C87 1.387 . S
C88 C89 1.369 . S
C88 H97 0.929 . S
C89 N86 1.346 . S
C89 C88 1.369 . S
C89 H92 0.928 . S
C90 N86 1.345 . S
C90 C91 1.371 . S
C90 H93 0.931 . S
C91 C87 1.391 . S
C91 C90 1.371 . S
C91 H98 0.930 . S
H92 C89 0.928 . S
H93 C90 0.931 . S
H94 C70 0.930 . S
H95 C67 0.930 . S
H96 C76 0.930 . S
H97 C88 0.929 . S
H98 C91 0.930 . S
C99 C100 1.351 . S
C99 N102 1.368 . S
C99 H104 0.931 . S
C100 C99 1.351 . S
C100 N101 1.373 . S
C100 H128 0.930 . S
N101 C100 1.373 . S
N101 C103 1.340 . S
N102 C99 1.368 . S
N102 C103 1.321 . S
N102 Co105 2.135 . S
C103 N101 1.340 . S
C103 N102 1.321 . S
C103 H127 0.930 . S
H104 C99 0.931 . S
Co105 N102 2.135 . S
Co105 N108 2.121 . S
Co105 O113 2.055 . S
Co105 O116 2.039 . S
Co105 N119 2.140 . S
C106 O107 1.227 . S
C106 O116 1.265 . S
O107 C106 1.227 . S
N108 Co105 2.121 . S
N108 C110 1.375 . S
N108 C111 1.313 . S
C109 C110 1.338 . S
C109 N112 1.377 . S
C109 H129 0.930 . S
C110 N108 1.375 . S
C110 C109 1.338 . S
C110 H114 0.931 . S
C111 N108 1.313 . S
C111 N112 1.344 . S
C111 H115 0.930 . S
N112 C109 1.377 . S
N112 C111 1.344 . S
O113 Co105 2.055 . S
O113 C117 1.253 . S
H114 C110 0.931 . S
H115 C111 0.930 . S
O116 Co105 2.039 . S
O116 C106 1.265 . S
C117 O113 1.253 . S
C117 O118 1.227 . S
O118 C117 1.227 . S
N119 Co105 2.140 . S
N119 C122 1.346 . S
N119 C123 1.345 . S
C120 C121 1.387 . S
C120 C124 1.391 . S
C121 C120 1.387 . S
C121 C122 1.369 . S
C121 H130 0.929 . S
C122 N119 1.346 . S
C122 C121 1.369 . S
C122 H125 0.928 . S
C123 N119 1.345 . S
C123 C124 1.371 . S
C123 H126 0.931 . S
C124 C120 1.391 . S
C124 C123 1.371 . S
C124 H131 0.930 . S
H125 C122 0.928 . S
H126 C123 0.931 . S
H127 C103 0.930 . S
H128 C100 0.930 . S
H129 C109 0.930 . S
H130 C121 0.929 . S
H131 C124 0.930 . S
C132 C133 1.351 . S
C132 N135 1.368 . S
C132 H137 0.931 . S
C133 C132 1.351 . S
C133 N134 1.373 . S
C133 H161 0.930 . S
N134 C133 1.373 . S
N134 C136 1.340 . S
N135 C132 1.368 . S
N135 C136 1.321 . S
N135 Co138 2.135 . S
C136 N134 1.340 . S
C136 N135 1.321 . S
C136 H160 0.930 . S
H137 C132 0.931 . S
Co138 N135 2.135 . S
Co138 N141 2.121 . S
Co138 O146 2.055 . S
Co138 O149 2.039 . S
Co138 N152 2.140 . S
C139 O140 1.227 . S
C139 O149 1.265 . S
O140 C139 1.227 . S
N141 Co138 2.121 . S
N141 C143 1.375 . S
N141 C144 1.313 . S
C142 C143 1.338 . S
C142 N145 1.377 . S
C142 H162 0.930 . S
C143 N141 1.375 . S
C143 C142 1.338 . S
C143 H147 0.931 . S
C144 N141 1.313 . S
C144 N145 1.344 . S
C144 H148 0.930 . S
N145 C142 1.377 . S
N145 C144 1.344 . S
O146 Co138 2.055 . S
O146 C150 1.253 . S
H147 C143 0.931 . S
H148 C144 0.930 . S
O149 Co138 2.039 . S
O149 C139 1.265 . S
C150 O146 1.253 . S
C150 O151 1.227 . S
O151 C150 1.227 . S
N152 Co138 2.140 . S
N152 C155 1.346 . S
N152 C156 1.345 . S
C153 C154 1.387 . S
C153 C157 1.391 . S
C154 C153 1.387 . S
C154 C155 1.369 . S
C154 H163 0.929 . S
C155 N152 1.346 . S
C155 C154 1.369 . S
C155 H158 0.928 . S
C156 N152 1.345 . S
C156 C157 1.371 . S
C156 H159 0.931 . S
C157 C153 1.391 . S
C157 C156 1.371 . S
C157 H164 0.930 . S
H158 C155 0.928 . S
H159 C156 0.931 . S
H160 C136 0.930 . S
H161 C133 0.930 . S
H162 C142 0.930 . S
H163 C154 0.929 . S
H164 C157 0.930 . S
C165 C166 1.351 . S
C165 N168 1.368 . S
C165 H170 0.931 . S
C166 C165 1.351 . S
C166 N167 1.373 . S
C166 H194 0.930 . S
N167 C166 1.373 . S
N167 C169 1.340 . S
N168 C165 1.368 . S
N168 C169 1.321 . S
N168 Co171 2.135 . S
C169 N167 1.340 . S
C169 N168 1.321 . S
C169 H193 0.930 . S
H170 C165 0.931 . S
Co171 N168 2.135 . S
Co171 N174 2.121 . S
Co171 O179 2.055 . S
Co171 O182 2.039 . S
Co171 N185 2.140 1_554 S
C172 O173 1.227 1_554 S
C172 O182 1.265 . S
O173 C172 1.227 1_556 S
N174 Co171 2.121 . S
N174 C176 1.375 . S
N174 C177 1.313 . S
C175 C176 1.338 . S
C175 N178 1.377 . S
C175 H195 0.930 . S
C176 N174 1.375 . S
C176 C175 1.338 . S
C176 H180 0.931 1_554 S
C177 N174 1.313 . S
C177 N178 1.344 . S
C177 H181 0.930 . S
N178 C175 1.377 . S
N178 C177 1.344 . S
O179 Co171 2.055 . S
O179 C183 1.253 . S
H180 C176 0.931 1_556 S
H181 C177 0.930 . S
O182 Co171 2.039 . S
O182 C172 1.265 . S
C183 O179 1.253 . S
C183 O184 1.227 . S
O184 C183 1.227 . S
N185 Co171 2.140 1_556 S
N185 C188 1.346 . S
N185 C189 1.345 . S
C186 C187 1.387 . S
C186 C190 1.391 . S
C187 C186 1.387 . S
C187 C188 1.369 . S
C187 H196 0.929 . S
C188 N185 1.346 . S
C188 C187 1.369 . S
C188 H191 0.928 . S
C189 N185 1.345 . S
C189 C190 1.371 . S
C189 H192 0.931 1_556 S
C190 C186 1.391 . S
C190 C189 1.371 . S
C190 H197 0.930 . S
H191 C188 0.928 . S
H192 C189 0.931 1_554 S
H193 C169 0.930 . S
H194 C166 0.930 . S
H195 C175 0.930 . S
H196 C187 0.929 . S
H197 C190 0.930 . S
C198 C199 1.351 . S
C198 N201 1.368 . S
C198 H203 0.931 . S
C199 C198 1.351 . S
C199 N200 1.373 . S
C199 H227 0.930 . S
N200 C199 1.373 . S
N200 C202 1.340 . S
N201 C198 1.368 . S
N201 C202 1.321 . S
N201 Co204 2.135 . S
C202 N200 1.340 . S
C202 N201 1.321 . S
C202 H226 0.930 . S
H203 C198 0.931 . S
Co204 N201 2.135 . S
Co204 N207 2.121 . S
Co204 O212 2.055 . S
Co204 O215 2.039 . S
Co204 N218 2.140 . S
C205 O206 1.227 . S
C205 O215 1.265 . S
O206 C205 1.227 . S
N207 Co204 2.121 . S
N207 C209 1.375 . S
N207 C210 1.313 . S
C208 C209 1.338 . S
C208 N211 1.377 . S
C208 H228 0.930 . S
C209 N207 1.375 . S
C209 C208 1.338 . S
C209 H213 0.931 . S
C210 N207 1.313 . S
C210 N211 1.344 . S
C210 H214 0.930 . S
N211 C208 1.377 . S
N211 C210 1.344 . S
O212 Co204 2.055 . S
O212 C216 1.253 . S
H213 C209 0.931 . S
H214 C210 0.930 . S
O215 Co204 2.039 . S
O215 C205 1.265 . S
C216 O212 1.253 . S
C216 O217 1.227 . S
O217 C216 1.227 . S
N218 Co204 2.140 . S
N218 C221 1.346 . S
N218 C222 1.345 . S
C219 C220 1.387 . S
C219 C223 1.391 . S
C220 C219 1.387 . S
C220 C221 1.369 . S
C220 H229 0.929 . S
C221 N218 1.346 . S
C221 C220 1.369 . S
C221 H224 0.928 . S
C222 N218 1.345 . S
C222 C223 1.371 . S
C222 H225 0.931 . S
C223 C219 1.391 . S
C223 C222 1.371 . S
C223 H230 0.930 . S
H224 C221 0.928 . S
H225 C222 0.931 . S
H226 C202 0.930 . S
H227 C199 0.930 . S
H228 C208 0.930 . S
H229 C220 0.929 . S
H230 C223 0.930 . S
C231 C232 1.351 . S
C231 N234 1.368 . S
C231 H236 0.931 . S
C232 C231 1.351 . S
C232 N233 1.373 . S
C232 H260 0.930 . S
N233 C232 1.373 . S
N233 C235 1.340 . S
N234 C231 1.368 . S
N234 C235 1.321 . S
N234 Co237 2.135 . S
C235 N233 1.340 . S
C235 N234 1.321 . S
C235 H259 0.930 . S
H236 C231 0.931 . S
Co237 N234 2.135 . S
Co237 N240 2.121 . S
Co237 O245 2.055 . S
Co237 O248 2.039 . S
Co237 N251 2.140 . S
C238 O239 1.227 . S
C238 O248 1.265 . S
O239 C238 1.227 . S
N240 Co237 2.121 . S
N240 C242 1.375 . S
N240 C243 1.313 . S
C241 C242 1.338 . S
C241 N244 1.377 . S
C241 H261 0.930 . S
C242 N240 1.375 . S
C242 C241 1.338 . S
C242 H246 0.931 . S
C243 N240 1.313 . S
C243 N244 1.344 . S
C243 H247 0.930 . S
N244 C241 1.377 . S
N244 C243 1.344 . S
O245 Co237 2.055 . S
O245 C249 1.253 . S
H246 C242 0.931 . S
H247 C243 0.930 . S
O248 Co237 2.039 . S
O248 C238 1.265 . S
C249 O245 1.253 . S
C249 O250 1.227 . S
O250 C249 1.227 . S
N251 Co237 2.140 . S
N251 C254 1.346 . S
N251 C255 1.345 . S
C252 C253 1.387 . S
C252 C256 1.391 . S
C253 C252 1.387 . S
C253 C254 1.369 . S
C253 H262 0.929 . S
C254 N251 1.346 . S
C254 C253 1.369 . S
C254 H257 0.928 . S
C255 N251 1.345 . S
C255 C256 1.371 . S
C255 H258 0.931 . S
C256 C252 1.391 . S
C256 C255 1.371 . S
C256 H263 0.930 . S
H257 C254 0.928 . S
H258 C255 0.931 . S
H259 C235 0.930 . S
H260 C232 0.930 . S
H261 C241 0.930 . S
H262 C253 0.929 . S
H263 C256 0.930 . S
C264 C265 1.349 . S
C264 C266 1.327 . S
C264 H289 0.950 . S
C265 C264 1.349 . S
C265 C281 1.349 1_554 S
C266 C264 1.327 . S
C266 C285 1.429 . S
C266 H290 0.950 . S
C267 C284 1.574 . S
C267 C286 1.368 1_556 S
C267 H291 0.949 . S
H268 C272 0.949 . S
C269 C270 1.349 1_556 S
C269 C271 1.327 . S
C269 H292 0.950 . S
C270 C269 1.349 1_554 S
C270 C282 1.349 . S
C271 C269 1.327 . S
C271 C287 1.429 1_556 S
C271 H293 0.950 . S
C272 H268 0.949 . S
C272 C280 1.574 . S
C272 C288 1.368 . S
H273 C281 0.950 . S
H274 C279 0.950 . S
H275 C280 0.949 . S
H276 C282 0.950 . S
H277 C283 0.950 . S
H278 C284 0.949 . S
C279 H274 0.950 . S
C279 C281 1.327 . S
C279 C285 1.429 1_556 S
C280 C272 1.574 . S
C280 H275 0.949 . S
C280 C286 1.368 . S
C281 C265 1.349 1_556 S
C281 H273 0.950 . S
C281 C279 1.327 . S
C282 C270 1.349 . S
C282 H276 0.950 . S
C282 C283 1.327 . S
C283 H277 0.950 . S
C283 C282 1.327 . S
C283 C287 1.429 . S
C284 C267 1.574 . S
C284 H278 0.949 . S
C284 C288 1.368 1_556 S
C285 C266 1.429 . S
C285 C279 1.429 1_554 S
C285 C286 1.523 . S
C286 C267 1.368 1_554 S
C286 C280 1.368 . S
C286 C285 1.523 . S
C287 C271 1.429 1_554 S
C287 C283 1.429 . S
C287 C288 1.523 . S
C288 C272 1.368 . S
C288 C284 1.368 1_554 S
C288 C287 1.523 . S
H289 C264 0.950 . S
H290 C266 0.950 . S
H291 C267 0.949 . S
H292 C269 0.950 . S
H293 C271 0.950 . S
C294 C295 1.349 . S
C294 C296 1.327 . S
C294 H319 0.950 1_655 S
C295 C294 1.349 . S
C295 C311 1.349 . S
C296 C294 1.327 . S
C296 C315 1.429 . S
C296 H320 0.950 . S
C297 C314 1.574 . S
C297 C316 1.368 . S
C297 H321 0.949 . S
H298 C302 0.949 . S
C299 C300 1.349 . S
C299 C301 1.327 . S
C299 H322 0.950 . S
C300 C299 1.349 . S
C300 C312 1.349 . S
C301 C299 1.327 . S
C301 C317 1.429 . S
C301 H323 0.950 . S
C302 H298 0.949 . S
C302 C310 1.574 . S
C302 C318 1.368 . S
H303 C311 0.950 . S
H304 C309 0.950 . S
H305 C310 0.949 . S
H306 C312 0.950 1_565 S
H307 C313 0.950 . S
H308 C314 0.949 . S
C309 H304 0.950 . S
C309 C311 1.327 . S
C309 C315 1.429 . S
C310 C302 1.574 . S
C310 H305 0.949 . S
C310 C316 1.368 . S
C311 C295 1.349 . S
C311 H303 0.950 . S
C311 C309 1.327 . S
C312 C300 1.349 . S
C312 H306 0.950 1_545 S
C312 C313 1.327 . S
C313 H307 0.950 . S
C313 C312 1.327 . S
C313 C317 1.429 . S
C314 C297 1.574 . S
C314 H308 0.949 . S
C314 C318 1.368 . S
C315 C296 1.429 . S
C315 C309 1.429 . S
C315 C316 1.523 . S
C316 C297 1.368 . S
C316 C310 1.368 . S
C316 C315 1.523 . S
C317 C301 1.429 . S
C317 C313 1.429 . S
C317 C318 1.523 . S
C318 C302 1.368 . S
C318 C314 1.368 . S
C318 C317 1.523 . S
H319 C294 0.950 1_455 S
H320 C296 0.950 . S
H321 C297 0.949 . S
H322 C299 0.950 . S
H323 C301 0.950 . S
C324 C325 1.349 . S
C324 C326 1.327 . S
C324 H349 0.950 . S
C325 C324 1.349 . S
C325 C341 1.349 . S
C326 C324 1.327 . S
C326 C345 1.429 . S
C326 H350 0.950 . S
C327 C344 1.574 . S
C327 C346 1.368 . S
C327 H351 0.949 . S
H328 C332 0.949 . S
C329 C330 1.349 . S
C329 C331 1.327 . S
C329 H352 0.950 . S
C330 C329 1.349 . S
C330 C342 1.349 . S
C331 C329 1.327 . S
C331 C347 1.429 . S
C331 H353 0.950 . S
C332 H328 0.949 . S
C332 C340 1.574 . S
C332 C348 1.368 . S
H333 C341 0.950 . S
H334 C339 0.950 . S
H335 C340 0.949 . S
H336 C342 0.950 . S
H337 C343 0.950 . S
H338 C344 0.949 . S
C339 H334 0.950 . S
C339 C341 1.327 . S
C339 C345 1.429 . S
C340 C332 1.574 . S
C340 H335 0.949 . S
C340 C346 1.368 . S
C341 C325 1.349 . S
C341 H333 0.950 . S
C341 C339 1.327 . S
C342 C330 1.349 . S
C342 H336 0.950 . S
C342 C343 1.327 . S
C343 H337 0.950 . S
C343 C342 1.327 . S
C343 C347 1.429 . S
C344 C327 1.574 . S
C344 H338 0.949 . S
C344 C348 1.368 . S
C345 C326 1.429 . S
C345 C339 1.429 . S
C345 C346 1.523 . S
C346 C327 1.368 . S
C346 C340 1.368 . S
C346 C345 1.523 . S
C347 C331 1.429 . S
C347 C343 1.429 . S
C347 C348 1.523 . S
C348 C332 1.368 . S
C348 C344 1.368 . S
C348 C347 1.523 . S
H349 C324 0.950 . S
H350 C326 0.950 . S
H351 C327 0.949 . S
H352 C329 0.950 . S
H353 C331 0.950 . S
C354 C355 1.349 . S
C354 C356 1.327 . S
C354 H379 0.950 . S
C355 C354 1.349 . S
C355 C371 1.349 . S
C356 C354 1.327 . S
C356 C375 1.429 . S
C356 H380 0.950 . S
C357 C374 1.574 . S
C357 C376 1.368 . S
C357 H381 0.949 . S
H358 C362 0.949 . S
C359 C360 1.349 . S
C359 C361 1.327 . S
C359 H382 0.950 1_565 S
C360 C359 1.349 . S
C360 C372 1.349 . S
C361 C359 1.327 . S
C361 C377 1.429 . S
C361 H383 0.950 . S
C362 H358 0.949 . S
C362 C370 1.574 . S
C362 C378 1.368 . S
H363 C371 0.950 1_655 S
H364 C369 0.950 . S
H365 C370 0.949 . S
H366 C372 0.950 . S
H367 C373 0.950 . S
H368 C374 0.949 . S
C369 H364 0.950 . S
C369 C371 1.327 . S
C369 C375 1.429 . S
C370 C362 1.574 . S
C370 H365 0.949 . S
C370 C376 1.368 . S
C371 C355 1.349 . S
C371 H363 0.950 1_455 S
C371 C369 1.327 . S
C372 C360 1.349 . S
C372 H366 0.950 . S
C372 C373 1.327 . S
C373 H367 0.950 . S
C373 C372 1.327 . S
C373 C377 1.429 . S
C374 C357 1.574 . S
C374 H368 0.949 . S
C374 C378 1.368 . S
C375 C356 1.429 . S
C375 C369 1.429 . S
C375 C376 1.523 . S
C376 C357 1.368 . S
C376 C370 1.368 . S
C376 C375 1.523 . S
C377 C361 1.429 . S
C377 C373 1.429 . S
C377 C378 1.523 . S
C378 C362 1.368 . S
C378 C374 1.368 . S
C378 C377 1.523 . S
H379 C354 0.950 . S
H380 C356 0.950 . S
H381 C357 0.949 . S
H382 C359 0.950 1_545 S
H383 C361 0.950 . S
C384 C385 1.349 . S
C384 C386 1.327 . S
C384 H409 0.950 . S
C385 C384 1.349 . S
C385 C401 1.349 . S
C386 C384 1.327 . S
C386 C405 1.429 . S
C386 H410 0.950 . S
C387 C404 1.574 . S
C387 C406 1.368 . S
C387 H411 0.949 . S
H388 C392 0.949 . S
C389 C390 1.349 . S
C389 C391 1.327 . S
C389 H412 0.950 . S
C390 C389 1.349 . S
C390 C402 1.349 . S
C391 C389 1.327 . S
C391 C407 1.429 . S
C391 H413 0.950 . S
C392 H388 0.949 . S
C392 C400 1.574 . S
C392 C408 1.368 . S
H393 C401 0.950 . S
H394 C399 0.950 . S
H395 C400 0.949 . S
H396 C402 0.950 . S
H397 C403 0.950 . S
H398 C404 0.949 . S
C399 H394 0.950 . S
C399 C401 1.327 . S
C399 C405 1.429 . S
C400 C392 1.574 . S
C400 H395 0.949 . S
C400 C406 1.368 . S
C401 C385 1.349 . S
C401 H393 0.950 . S
C401 C399 1.327 . S
C402 C390 1.349 . S
C402 H396 0.950 . S
C402 C403 1.327 . S
C403 H397 0.950 . S
C403 C402 1.327 . S
C403 C407 1.429 . S
C404 C387 1.574 . S
C404 H398 0.949 . S
C404 C408 1.368 . S
C405 C386 1.429 . S
C405 C399 1.429 . S
C405 C406 1.523 . S
C406 C387 1.368 . S
C406 C400 1.368 . S
C406 C405 1.523 . S
C407 C391 1.429 . S
C407 C403 1.429 . S
C407 C408 1.523 . S
C408 C392 1.368 . S
C408 C404 1.368 . S
C408 C407 1.523 . S
H409 C384 0.950 . S
H410 C386 0.950 . S
H411 C387 0.949 . S
H412 C389 0.950 . S
H413 C391 0.950 . S
C414 C415 1.349 . S
C414 C416 1.327 . S
C414 H439 0.950 . S
C415 C414 1.349 . S
C415 C431 1.349 . S
C416 C414 1.327 . S
C416 C435 1.429 . S
C416 H440 0.950 . S
C417 C434 1.574 . S
C417 C436 1.368 . S
C417 H441 0.949 . S
H418 C422 0.949 . S
C419 C420 1.349 . S
C419 C421 1.327 . S
C419 H442 0.950 . S
C420 C419 1.349 . S
C420 C432 1.349 . S
C421 C419 1.327 . S
C421 C437 1.429 . S
C421 H443 0.950 . S
C422 H418 0.949 . S
C422 C430 1.574 . S
C422 C438 1.368 . S
H423 C431 0.950 . S
H424 C429 0.950 . S
H425 C430 0.949 . S
H426 C432 0.950 . S
H427 C433 0.950 . S
H428 C434 0.949 . S
C429 H424 0.950 . S
C429 C431 1.327 . S
C429 C435 1.429 . S
C430 C422 1.574 . S
C430 H425 0.949 . S
C430 C436 1.368 . S
C431 C415 1.349 . S
C431 H423 0.950 . S
C431 C429 1.327 . S
C432 C420 1.349 . S
C432 H426 0.950 . S
C432 C433 1.327 . S
C433 H427 0.950 . S
C433 C432 1.327 . S
C433 C437 1.429 . S
C434 C417 1.574 . S
C434 H428 0.949 . S
C434 C438 1.368 . S
C435 C416 1.429 . S
C435 C429 1.429 . S
C435 C436 1.523 . S
C436 C417 1.368 . S
C436 C430 1.368 . S
C436 C435 1.523 . S
C437 C421 1.429 . S
C437 C433 1.429 . S
C437 C438 1.523 . S
C438 C422 1.368 . S
C438 C434 1.368 . S
C438 C437 1.523 . S
H439 C414 0.950 . S
H440 C416 0.950 . S
H441 C417 0.949 . S
H442 C419 0.950 . S
H443 C421 0.950 . S
C444 C445 1.349 . S
C444 C446 1.327 . S
C444 H469 0.950 . S
C445 C444 1.349 . S
C445 C461 1.349 . S
C446 C444 1.327 . S
C446 C465 1.429 . S
C446 H470 0.950 . S
C447 C464 1.574 . S
C447 C466 1.368 . S
C447 H471 0.949 . S
H448 C452 0.949 . S
C449 C450 1.349 . S
C449 C451 1.327 . S
C449 H472 0.950 . S
C450 C449 1.349 . S
C450 C462 1.349 . S
C451 C449 1.327 . S
C451 C467 1.429 . S
C451 H473 0.950 . S
C452 H448 0.949 . S
C452 C460 1.574 . S
C452 C468 1.368 . S
H453 C461 0.950 . S
H454 C459 0.950 . S
H455 C460 0.949 . S
H456 C462 0.950 . S
H457 C463 0.950 . S
H458 C464 0.949 . S
C459 H454 0.950 . S
C459 C461 1.327 . S
C459 C465 1.429 . S
C460 C452 1.574 . S
C460 H455 0.949 . S
C460 C466 1.368 . S
C461 C445 1.349 . S
C461 H453 0.950 . S
C461 C459 1.327 . S
C462 C450 1.349 . S
C462 H456 0.950 . S
C462 C463 1.327 . S
C463 H457 0.950 . S
C463 C462 1.327 . S
C463 C467 1.429 . S
C464 C447 1.574 . S
C464 H458 0.949 . S
C464 C468 1.368 . S
C465 C446 1.429 . S
C465 C459 1.429 . S
C465 C466 1.523 . S
C466 C447 1.368 . S
C466 C460 1.368 . S
C466 C465 1.523 . S
C467 C451 1.429 . S
C467 C463 1.429 . S
C467 C468 1.523 . S
C468 C452 1.368 . S
C468 C464 1.368 . S
C468 C467 1.523 . S
H469 C444 0.950 . S
H470 C446 0.950 . S
H471 C447 0.949 . S
H472 C449 0.950 . S
H473 C451 0.950 . S
C474 C475 1.349 . S
C474 C476 1.327 . S
C474 H499 0.950 . S
C475 C474 1.349 . S
C475 C491 1.349 . S
C476 C474 1.327 . S
C476 C495 1.429 . S
C476 H500 0.950 . S
C477 C494 1.574 . S
C477 C496 1.368 1_554 S
C477 H501 0.949 . S
H478 C482 0.949 . S
C479 C480 1.349 . S
C479 C481 1.327 . S
C479 H502 0.950 . S
C480 C479 1.349 . S
C480 C492 1.349 . S
C481 C479 1.327 . S
C481 C497 1.429 . S
C481 H503 0.950 . S
C482 H478 0.949 . S
C482 C490 1.574 1_554 S
C482 C498 1.368 . S
H483 C491 0.950 . S
H484 C489 0.950 . S
H485 C490 0.949 . S
H486 C492 0.950 . S
H487 C493 0.950 . S
H488 C494 0.949 . S
C489 H484 0.950 . S
C489 C491 1.327 . S
C489 C495 1.429 . S
C490 C482 1.574 1_556 S
C490 H485 0.949 . S
C490 C496 1.368 . S
C491 C475 1.349 . S
C491 H483 0.950 . S
C491 C489 1.327 . S
C492 C480 1.349 . S
C492 H486 0.950 . S
C492 C493 1.327 . S
C493 H487 0.950 . S
C493 C492 1.327 . S
C493 C497 1.429 . S
C494 C477 1.574 . S
C494 H488 0.949 . S
C494 C498 1.368 . S
C495 C476 1.429 . S
C495 C489 1.429 . S
C495 C496 1.523 . S
C496 C477 1.368 1_556 S
C496 C490 1.368 . S
C496 C495 1.523 . S
C497 C481 1.429 . S
C497 C493 1.429 . S
C497 C498 1.523 . S
C498 C482 1.368 . S
C498 C494 1.368 . S
C498 C497 1.523 . S
H499 C474 0.950 . S
H500 C476 0.950 . S
H501 C477 0.949 . S
H502 C479 0.950 . S
H503 C481 0.950 . S
C504 C505 1.349 . S
C504 C506 1.327 . S
C504 H529 0.950 . S
C505 C504 1.349 . S
C505 C521 1.349 . S
C506 C504 1.327 . S
C506 C525 1.429 . S
C506 H530 0.950 . S
C507 C524 1.574 . S
C507 C526 1.368 . S
C507 H531 0.949 . S
H508 C512 0.949 . S
C509 C510 1.349 . S
C509 C511 1.327 . S
C509 H532 0.950 . S
C510 C509 1.349 . S
C510 C522 1.349 . S
C511 C509 1.327 . S
C511 C527 1.429 . S
C511 H533 0.950 . S
C512 H508 0.949 . S
C512 C520 1.574 . S
C512 C528 1.368 . S
H513 C521 0.950 . S
H514 C519 0.950 . S
H515 C520 0.949 . S
H516 C522 0.950 . S
H517 C523 0.950 . S
H518 C524 0.949 . S
C519 H514 0.950 . S
C519 C521 1.327 . S
C519 C525 1.429 . S
C520 C512 1.574 . S
C520 H515 0.949 . S
C520 C526 1.368 . S
C521 C505 1.349 . S
C521 H513 0.950 . S
C521 C519 1.327 . S
C522 C510 1.349 . S
C522 H516 0.950 . S
C522 C523 1.327 . S
C523 H517 0.950 . S
C523 C522 1.327 . S
C523 C527 1.429 . S
C524 C507 1.574 . S
C524 H518 0.949 . S
C524 C528 1.368 . S
C525 C506 1.429 . S
C525 C519 1.429 . S
C525 C526 1.523 . S
C526 C507 1.368 . S
C526 C520 1.368 . S
C526 C525 1.523 . S
C527 C511 1.429 . S
C527 C523 1.429 . S
C527 C528 1.523 . S
C528 C512 1.368 . S
C528 C524 1.368 . S
C528 C527 1.523 . S
H529 C504 0.950 . S
H530 C506 0.950 . S
H531 C507 0.949 . S
H532 C509 0.950 . S
H533 C511 0.950 . S
C534 C535 1.349 . S
C534 C536 1.327 . S
C534 H559 0.950 . S
C535 C534 1.349 . S
C535 C551 1.349 . S
C536 C534 1.327 . S
C536 C555 1.429 . S
C536 H560 0.950 . S
C537 C554 1.574 . S
C537 C556 1.368 . S
C537 H561 0.949 . S
H538 C542 0.949 . S
C539 C540 1.349 . S
C539 C541 1.327 . S
C539 H562 0.950 . S
C540 C539 1.349 . S
C540 C552 1.349 . S
C541 C539 1.327 . S
C541 C557 1.429 . S
C541 H563 0.950 . S
C542 H538 0.949 . S
C542 C550 1.574 1_556 S
C542 C558 1.368 . S
H543 C551 0.950 . S
H544 C549 0.950 . S
H545 C550 0.949 . S
H546 C552 0.950 . S
H547 C553 0.950 . S
H548 C554 0.949 1_556 S
C549 H544 0.950 . S
C549 C551 1.327 . S
C549 C555 1.429 . S
C550 C542 1.574 1_554 S
C550 H545 0.949 . S
C550 C556 1.368 . S
C551 C535 1.349 . S
C551 H543 0.950 . S
C551 C549 1.327 . S
C552 C540 1.349 . S
C552 H546 0.950 . S
C552 C553 1.327 . S
C553 H547 0.950 . S
C553 C552 1.327 . S
C553 C557 1.429 . S
C554 C537 1.574 . S
C554 H548 0.949 1_554 S
C554 C558 1.368 1_554 S
C555 C536 1.429 . S
C555 C549 1.429 . S
C555 C556 1.523 . S
C556 C537 1.368 . S
C556 C550 1.368 . S
C556 C555 1.523 . S
C557 C541 1.429 . S
C557 C553 1.429 . S
C557 C558 1.523 . S
C558 C542 1.368 . S
C558 C554 1.368 1_556 S
C558 C557 1.523 . S
H559 C534 0.950 . S
H560 C536 0.950 . S
H561 C537 0.949 . S
H562 C539 0.950 . S
H563 C541 0.950 . S
C564 C565 1.349 . S
C564 C566 1.327 . S
C564 H589 0.950 . S
C565 C564 1.349 . S
C565 C581 1.349 . S
C566 C564 1.327 . S
C566 C585 1.429 . S
C566 H590 0.950 . S
C567 C584 1.574 . S
C567 C586 1.368 . S
C567 H591 0.949 . S
H568 C572 0.949 . S
C569 C570 1.349 . S
C569 C571 1.327 . S
C569 H592 0.950 . S
C570 C569 1.349 . S
C570 C582 1.349 . S
C571 C569 1.327 . S
C571 C587 1.429 . S
C571 H593 0.950 . S
C572 H568 0.949 . S
C572 C580 1.574 . S
C572 C588 1.368 . S
H573 C581 0.950 . S
H574 C579 0.950 . S
H575 C580 0.949 . S
H576 C582 0.950 . S
H577 C583 0.950 . S
H578 C584 0.949 . S
C579 H574 0.950 . S
C579 C581 1.327 . S
C579 C585 1.429 . S
C580 C572 1.574 . S
C580 H575 0.949 . S
C580 C586 1.368 . S
C581 C565 1.349 . S
C581 H573 0.950 . S
C581 C579 1.327 . S
C582 C570 1.349 . S
C582 H576 0.950 . S
C582 C583 1.327 . S
C583 H577 0.950 . S
C583 C582 1.327 . S
C583 C587 1.429 . S
C584 C567 1.574 . S
C584 H578 0.949 . S
C584 C588 1.368 . S
C585 C566 1.429 . S
C585 C579 1.429 . S
C585 C586 1.523 . S
C586 C567 1.368 . S
C586 C580 1.368 . S
C586 C585 1.523 . S
C587 C571 1.429 . S
C587 C583 1.429 . S
C587 C588 1.523 . S
C588 C572 1.368 . S
C588 C584 1.368 . S
C588 C587 1.523 . S
H589 C564 0.950 . S
H590 C566 0.950 . S
H591 C567 0.949 . S
H592 C569 0.950 . S
H593 C571 0.950 . S
C594 C595 1.349 . S
C594 C596 1.327 . S
C594 H619 0.950 . S
C595 C594 1.349 . S
C595 C611 1.349 . S
C596 C594 1.327 . S
C596 C615 1.429 . S
C596 H620 0.950 . S
C597 C614 1.574 . S
C597 C616 1.368 . S
C597 H621 0.949 . S
H598 C602 0.949 . S
C599 C600 1.349 . S
C599 C601 1.327 . S
C599 H622 0.950 . S
C600 C599 1.349 . S
C600 C612 1.349 . S
C601 C599 1.327 . S
C601 C617 1.429 . S
C601 H623 0.950 . S
C602 H598 0.949 . S
C602 C610 1.574 . S
C602 C618 1.368 . S
H603 C611 0.950 . S
H604 C609 0.950 . S
H605 C610 0.949 . S
H606 C612 0.950 . S
H607 C613 0.950 . S
H608 C614 0.949 . S
C609 H604 0.950 . S
C609 C611 1.327 . S
C609 C615 1.429 . S
C610 C602 1.574 . S
C610 H605 0.949 . S
C610 C616 1.368 . S
C611 C595 1.349 . S
C611 H603 0.950 . S
C611 C609 1.327 . S
C612 C600 1.349 . S
C612 H606 0.950 . S
C612 C613 1.327 . S
C613 H607 0.950 . S
C613 C612 1.327 . S
C613 C617 1.429 . S
C614 C597 1.574 . S
C614 H608 0.949 . S
C614 C618 1.368 . S
C615 C596 1.429 . S
C615 C609 1.429 . S
C615 C616 1.523 . S
C616 C597 1.368 . S
C616 C610 1.368 . S
C616 C615 1.523 . S
C617 C601 1.429 . S
C617 C613 1.429 . S
C617 C618 1.523 . S
C618 C602 1.368 . S
C618 C614 1.368 . S
C618 C617 1.523 . S
H619 C594 0.950 . S
H620 C596 0.950 . S
H621 C597 0.949 . S
H622 C599 0.950 . S
H623 C601 0.950 . S
C624 C625 1.349 . S
C624 C626 1.327 . S
C624 H649 0.950 . S
C625 C624 1.349 . S
C625 C641 1.349 . S
C626 C624 1.327 . S
C626 C645 1.429 . S
C626 H650 0.950 . S
C627 C644 1.574 . S
C627 C646 1.368 . S
C627 H651 0.949 . S
H628 C632 0.949 . S
C629 C630 1.349 . S
C629 C631 1.327 . S
C629 H652 0.950 . S
C630 C629 1.349 . S
C630 C642 1.344 1_565 S
C631 C629 1.327 . S
C631 C647 1.429 . S
C631 H653 0.950 . S
C632 H628 0.949 . S
C632 C640 1.574 . S
C632 C648 1.368 . S
H633 C641 0.950 . S
H634 C639 0.950 . S
H635 C640 0.949 . S
H636 C642 0.988 . S
H637 C643 0.950 . S
H638 C644 0.949 . S
C639 H634 0.950 . S
C639 C641 1.327 . S
C639 C645 1.429 . S
C640 C632 1.574 . S
C640 H635 0.949 . S
C640 C646 1.368 . S
C641 C625 1.349 . S
C641 H633 0.950 . S
C641 C639 1.327 . S
C642 C630 1.344 1_545 S
C642 H636 0.988 . S
C642 C643 1.296 1_545 S
C643 H637 0.950 . S
C643 C642 1.296 1_565 S
C643 C647 1.429 . S
C644 C627 1.574 . S
C644 H638 0.949 . S
C644 C648 1.368 . S
C645 C626 1.429 . S
C645 C639 1.429 . S
C645 C646 1.523 . S
C646 C627 1.368 . S
C646 C640 1.368 . S
C646 C645 1.523 . S
C647 C631 1.429 . S
C647 C643 1.429 . S
C647 C648 1.523 . S
C648 C632 1.368 . S
C648 C644 1.368 . S
C648 C647 1.523 . S
H649 C624 0.950 . S
H650 C626 0.950 . S
H651 C627 0.949 . S
H652 C629 0.950 . S
H653 C631 0.950 . S
C654 C655 1.349 . S
C654 C656 1.327 . S
C654 H679 0.950 . S
C655 C654 1.349 . S
C655 C671 1.349 . S
C656 C654 1.327 . S
C656 C675 1.429 . S
C656 H680 0.950 . S
C657 C674 1.574 . S
C657 C676 1.368 . S
C657 H681 0.949 . S
H658 C662 0.949 . S
C659 C660 1.349 . S
C659 C661 1.327 . S
C659 H682 0.950 . S
C660 C659 1.349 . S
C660 C672 1.349 . S
C661 C659 1.327 . S
C661 C677 1.429 . S
C661 H683 0.950 . S
C662 H658 0.949 . S
C662 C670 1.574 . S
C662 C678 1.368 . S
H663 C671 0.950 1_556 S
H664 C669 0.950 . S
H665 C670 0.949 . S
H666 C672 0.950 . S
H667 C673 0.950 . S
H668 C674 0.949 . S
C669 H664 0.950 . S
C669 C671 1.327 . S
C669 C675 1.429 . S
C670 C662 1.574 . S
C670 H665 0.949 . S
C670 C676 1.368 . S
C671 C655 1.349 . S
C671 H663 0.950 1_554 S
C671 C669 1.327 . S
C672 C660 1.349 . S
C672 H666 0.950 . S
C672 C673 1.327 . S
C673 H667 0.950 . S
C673 C672 1.327 . S
C673 C677 1.429 . S
C674 C657 1.574 . S
C674 H668 0.949 . S
C674 C678 1.368 . S
C675 C656 1.429 . S
C675 C669 1.429 . S
C675 C676 1.523 . S
C676 C657 1.368 . S
C676 C670 1.368 . S
C676 C675 1.523 . S
C677 C661 1.429 . S
C677 C673 1.429 . S
C677 C678 1.523 . S
C678 C662 1.368 . S
C678 C674 1.368 . S
C678 C677 1.523 . S
H679 C654 0.950 . S
H680 C656 0.950 . S
H681 C657 0.949 . S
H682 C659 0.950 . S
H683 C661 0.950 . S
C684 C685 1.349 . S
C684 C686 1.327 . S
C684 H709 0.950 . S
C685 C684 1.349 . S
C685 C701 1.349 . S
C686 C684 1.327 . S
C686 C705 1.429 . S
C686 H710 0.950 . S
C687 C704 1.574 . S
C687 C706 1.368 . S
C687 H711 0.949 . S
H688 C692 0.949 . S
C689 C690 1.349 . S
C689 C691 1.327 . S
C689 H712 0.950 . S
C690 C689 1.349 . S
C690 C702 1.349 . S
C691 C689 1.327 . S
C691 C707 1.429 . S
C691 H713 0.950 . S
C692 H688 0.949 . S
C692 C700 1.574 . S
C692 C708 1.368 . S
H693 C701 0.950 1_565 S
H694 C699 0.950 . S
H695 C700 0.949 . S
H696 C702 0.950 . S
H697 C703 0.950 . S
H698 C704 0.949 . S
C699 H694 0.950 . S
C699 C701 1.327 . S
C699 C705 1.429 . S
C700 C692 1.574 . S
C700 H695 0.949 . S
C700 C706 1.368 . S
C701 C685 1.349 . S
C701 H693 0.950 1_545 S
C701 C699 1.327 . S
C702 C690 1.349 . S
C702 H696 0.950 . S
C702 C703 1.327 . S
C703 H697 0.950 . S
C703 C702 1.327 . S
C703 C707 1.429 . S
C704 C687 1.574 . S
C704 H698 0.949 . S
C704 C708 1.368 . S
C705 C686 1.429 . S
C705 C699 1.429 . S
C705 C706 1.523 . S
C706 C687 1.368 . S
C706 C700 1.368 . S
C706 C705 1.523 . S
C707 C691 1.429 . S
C707 C703 1.429 . S
C707 C708 1.523 . S
C708 C692 1.368 . S
C708 C704 1.368 . S
C708 C707 1.523 . S
H709 C684 0.950 . S
H710 C686 0.950 . S
H711 C687 0.949 . S
H712 C689 0.950 . S
H713 C691 0.950 . S
C714 C715 1.349 . S
C714 C716 1.327 . S
C714 H739 0.950 . S
C715 C714 1.349 . S
C715 C731 1.349 . S
C716 C714 1.327 . S
C716 C735 1.429 . S
C716 H740 0.950 . S
C717 C734 1.574 . S
C717 C736 1.368 . S
C717 H741 0.949 . S
H718 C722 0.949 . S
C719 C720 1.349 . S
C719 C721 1.327 . S
C719 H742 0.950 . S
C720 C719 1.349 . S
C720 C732 1.349 . S
C721 C719 1.327 . S
C721 C737 1.429 . S
C721 H743 0.950 . S
C722 H718 0.949 . S
C722 C730 1.574 . S
C722 C738 1.368 . S
H723 C731 0.950 . S
H724 C729 0.950 . S
H725 C730 0.949 . S
H726 C732 0.950 . S
H727 C733 0.950 . S
H728 C734 0.949 . S
C729 H724 0.950 . S
C729 C731 1.327 . S
C729 C735 1.429 . S
C730 C722 1.574 . S
C730 H725 0.949 . S
C730 C736 1.368 . S
C731 C715 1.349 . S
C731 H723 0.950 . S
C731 C729 1.327 . S
C732 C720 1.349 . S
C732 H726 0.950 . S
C732 C733 1.327 . S
C733 H727 0.950 . S
C733 C732 1.327 . S
C733 C737 1.429 . S
C734 C717 1.574 . S
C734 H728 0.949 . S
C734 C738 1.368 . S
C735 C716 1.429 . S
C735 C729 1.429 . S
C735 C736 1.523 . S
C736 C717 1.368 . S
C736 C730 1.368 . S
C736 C735 1.523 . S
C737 C721 1.429 . S
C737 C733 1.429 . S
C737 C738 1.523 . S
C738 C722 1.368 . S
C738 C734 1.368 . S
C738 C737 1.523 . S
H739 C714 0.950 . S
H740 C716 0.950 . S
H741 C717 0.949 . S
H742 C719 0.950 . S
H743 C721 0.950 . S
C744 C745 1.349 . S
C744 C746 1.327 . S
C744 H769 0.950 . S
C745 C744 1.349 . S
C745 C761 1.349 . S
C746 C744 1.327 . S
C746 C765 1.429 . S
C746 H770 0.950 . S
C747 C764 1.574 . S
C747 C766 1.368 . S
C747 H771 0.949 . S
H748 C752 0.949 . S
C749 C750 1.344 1_554 S
C749 C751 1.320 1_554 S
C749 H772 0.962 . S
C750 C749 1.344 1_556 S
C750 C762 1.349 . S
C751 C749 1.320 1_556 S
C751 C767 1.429 . S
C751 H773 0.950 . S
C752 H748 0.949 . S
C752 C760 1.574 . S
C752 C768 1.368 . S
H753 C761 0.950 . S
H754 C759 0.950 . S
H755 C760 0.949 . S
H756 C762 0.950 . S
H757 C763 0.950 . S
H758 C764 0.949 . S
C759 H754 0.950 . S
C759 C761 1.327 . S
C759 C765 1.429 . S
C760 C752 1.574 . S
C760 H755 0.949 . S
C760 C766 1.368 . S
C761 C745 1.349 . S
C761 H753 0.950 . S
C761 C759 1.327 . S
C762 C750 1.349 . S
C762 H756 0.950 . S
C762 C763 1.327 . S
C763 H757 0.950 . S
C763 C762 1.327 . S
C763 C767 1.429 . S
C764 C747 1.574 . S
C764 H758 0.949 . S
C764 C768 1.368 . S
C765 C746 1.429 . S
C765 C759 1.429 . S
C765 C766 1.523 . S
C766 C747 1.368 . S
C766 C760 1.368 . S
C766 C765 1.523 . S
C767 C751 1.429 . S
C767 C763 1.429 . S
C767 C768 1.523 . S
C768 C752 1.368 . S
C768 C764 1.368 . S
C768 C767 1.523 . S
H769 C744 0.950 . S
H770 C746 0.950 . S
H771 C747 0.949 . S
H772 C749 0.962 . S
H773 C751 0.950 . S
C774 C775 1.349 . S
C774 C776 1.327 . S
C774 H799 0.950 1_655 S
C775 C774 1.349 . S
C775 C791 1.349 . S
C776 C774 1.327 . S
C776 C795 1.429 . S
C776 H800 0.950 . S
C777 C794 1.574 . S
C777 C796 1.368 . S
C777 H801 0.949 . S
H778 C782 0.949 . S
C779 C780 1.349 . S
C779 C781 1.327 . S
C779 H802 0.950 . S
C780 C779 1.349 . S
C780 C792 1.349 . S
C781 C779 1.327 . S
C781 C797 1.429 . S
C781 H803 0.950 . S
C782 H778 0.949 . S
C782 C790 1.574 . S
C782 C798 1.368 . S
H783 C791 0.950 . S
H784 C789 0.950 . S
H785 C790 0.949 . S
H786 C792 0.950 . S
H787 C793 0.950 . S
H788 C794 0.949 . S
C789 H784 0.950 . S
C789 C791 1.327 . S
C789 C795 1.429 . S
C790 C782 1.574 . S
C790 H785 0.949 . S
C790 C796 1.368 . S
C791 C775 1.349 . S
C791 H783 0.950 . S
C791 C789 1.327 . S
C792 C780 1.349 . S
C792 H786 0.950 . S
C792 C793 1.327 . S
C793 H787 0.950 . S
C793 C792 1.327 . S
C793 C797 1.429 . S
C794 C777 1.574 . S
C794 H788 0.949 . S
C794 C798 1.368 . S
C795 C776 1.429 . S
C795 C789 1.429 . S
C795 C796 1.523 . S
C796 C777 1.368 . S
C796 C790 1.368 . S
C796 C795 1.523 . S
C797 C781 1.429 . S
C797 C793 1.429 . S
C797 C798 1.523 . S
C798 C782 1.368 . S
C798 C794 1.368 . S
C798 C797 1.523 . S
H799 C774 0.950 1_455 S
H800 C776 0.950 . S
H801 C777 0.949 . S
H802 C779 0.950 . S
H803 C781 0.950 . S
C804 C805 1.349 . S
C804 C806 1.327 . S
C804 H829 0.950 . S
C805 C804 1.349 . S
C805 C821 1.349 . S
C806 C804 1.327 . S
C806 C825 1.429 . S
C806 H830 0.950 . S
C807 C824 1.574 . S
C807 C826 1.368 . S
C807 H831 0.949 . S
H808 C812 0.949 . S
C809 C810 1.349 . S
C809 C811 1.327 . S
C809 H832 0.950 . S
C810 C809 1.349 . S
C810 C822 1.349 . S
C811 C809 1.327 . S
C811 C827 1.429 . S
C811 H833 0.950 . S
C812 H808 0.949 . S
C812 C820 1.574 . S
C812 C828 1.368 . S
H813 C821 0.950 . S
H814 C819 0.950 . S
H815 C820 0.949 . S
H816 C822 0.950 . S
H817 C823 0.950 . S
H818 C824 0.949 . S
C819 H814 0.950 . S
C819 C821 1.327 . S
C819 C825 1.429 . S
C820 C812 1.574 . S
C820 H815 0.949 . S
C820 C826 1.368 . S
C821 C805 1.349 . S
C821 H813 0.950 . S
C821 C819 1.327 . S
C822 C810 1.349 . S
C822 H816 0.950 . S
C822 C823 1.327 . S
C823 H817 0.950 . S
C823 C822 1.327 . S
C823 C827 1.429 . S
C824 C807 1.574 . S
C824 H818 0.949 . S
C824 C828 1.368 . S
C825 C806 1.429 . S
C825 C819 1.429 . S
C825 C826 1.523 . S
C826 C807 1.368 . S
C826 C820 1.368 . S
C826 C825 1.523 . S
C827 C811 1.429 . S
C827 C823 1.429 . S
C827 C828 1.523 . S
C828 C812 1.368 . S
C828 C824 1.368 . S
C828 C827 1.523 . S
H829 C804 0.950 . S
H830 C806 0.950 . S
H831 C807 0.949 . S
H832 C809 0.950 . S
H833 C811 0.950 . S
C834 C835 1.349 . S
C834 C836 1.327 . S
C834 H859 0.950 . S
C835 C834 1.349 . S
C835 C851 1.349 . S
C836 C834 1.327 . S
C836 C855 1.429 . S
C836 H860 0.950 . S
C837 C854 1.574 . S
C837 C856 1.368 . S
C837 H861 0.949 . S
H838 C842 0.949 . S
C839 C840 1.349 . S
C839 C841 1.327 . S
C839 H862 0.950 1_455 S
C840 C839 1.349 . S
C840 C852 1.349 . S
C841 C839 1.327 . S
C841 C857 1.429 . S
C841 H863 0.950 . S
C842 H838 0.949 . S
C842 C850 1.574 . S
C842 C858 1.368 . S
H843 C851 0.950 . S
H844 C849 0.950 . S
H845 C850 0.949 . S
H846 C852 0.950 . S
H847 C853 0.950 . S
H848 C854 0.949 . S
C849 H844 0.950 . S
C849 C851 1.327 . S
C849 C855 1.429 . S
C850 C842 1.574 . S
C850 H845 0.949 . S
C850 C856 1.368 . S
C851 C835 1.349 . S
C851 H843 0.950 . S
C851 C849 1.327 . S
C852 C840 1.349 . S
C852 H846 0.950 . S
C852 C853 1.327 . S
C853 H847 0.950 . S
C853 C852 1.327 . S
C853 C857 1.429 . S
C854 C837 1.574 . S
C854 H848 0.949 . S
C854 C858 1.368 . S
C855 C836 1.429 . S
C855 C849 1.429 . S
C855 C856 1.523 . S
C856 C837 1.368 . S
C856 C850 1.368 . S
C856 C855 1.523 . S
C857 C841 1.429 . S
C857 C853 1.429 . S
C857 C858 1.523 . S
C858 C842 1.368 . S
C858 C854 1.368 . S
C858 C857 1.523 . S
H859 C834 0.950 . S
H860 C836 0.950 . S
H861 C837 0.949 . S
H862 C839 0.950 1_655 S
H863 C841 0.950 . S
C265 N167 1.238 . S
C270 N2 1.238 1_554 S
C295 N200 1.238 1_655 S
C300 N35 1.238 1_545 S
C325 N68 1.238 . S
C330 N233 1.238 . S
C355 N134 1.238 1_455 S
C360 N101 1.238 1_565 S
C385 C252 0.767 . S
C390 C21 0.767 . S
C415 C54 0.767 . S
C420 C153 0.767 . S
C445 C186 0.767 . S
C450 C87 0.767 . S
C475 C120 0.767 . S
C480 C219 0.767 . S
C505 C249 1.492 . S
C510 C18 1.492 . S
C535 C51 1.492 . S
C540 C150 1.492 . S
C565 C183 1.492 . S
C570 C84 1.492 . S
C595 C216 1.492 . S
C600 C117 1.492 . S
C625 N13 1.681 . S
C630 C106 1.682 1_565 S
C655 C7 1.682 . S
C660 N46 1.682 . S
C685 C40 1.682 1_545 S
C690 N79 1.681 . S
C715 C73 1.682 . S
C720 N112 1.682 . S
C745 N145 1.682 . S
C750 C172 1.682 1_556 S
C775 C205 1.682 1_655 S
C780 N178 1.681 . S
C805 C238 1.682 . S
C810 N211 1.682 . S
C835 N244 1.681 . S
C840 C139 1.682 1_455 S
