# Generated by pormake.
# Topology sra, (4)-cn, num edge types: 1
# Building blocks:
#     Node 0, Type 0, BuildingBlock: QUQFOY_clean_sbu_3, # of connection points: 4
#     Node 1, Type 0, BuildingBlock: QUQFOY_clean_sbu_3, # of connection points: 4
#     Node 2, Type 0, BuildingBlock: QUQFOY_clean_sbu_3, # of connection points: 4
#     Node 3, Type 0, BuildingBlock: QUQFOY_clean_sbu_3, # of connection points: 4
#     Node 4, Type 0, BuildingBlock: QUQFOY_clean_sbu_3, # of connection points: 4
#     Node 5, Type 0, BuildingBlock: QUQFOY_clean_sbu_3, # of connection points: 4
#     Node 6, Type 0, BuildingBlock: QUQFOY_clean_sbu_3, # of connection points: 4
#     Node 7, Type 0, BuildingBlock: QUQFOY_clean_sbu_3, # of connection points: 4
#     Edge 8, Type (0, 0), BuildingBlock: MIFKUJ_clean_linker_0, # of connection points: 2
#     Edge 9, Type (0, 0), BuildingBlock: MIFKUJ_clean_linker_0, # of connection points: 2
#     Edge 10, Type (0, 0), BuildingBlock: MIFKUJ_clean_linker_0, # of connection points: 2
#     Edge 11, Type (0, 0), BuildingBlock: MIFKUJ_clean_linker_0, # of connection points: 2
#     Edge 12, Type (0, 0), BuildingBlock: MIFKUJ_clean_linker_0, # of connection points: 2
#     Edge 13, Type (0, 0), BuildingBlock: MIFKUJ_clean_linker_0, # of connection points: 2
#     Edge 14, Type (0, 0), BuildingBlock: MIFKUJ_clean_linker_0, # of connection points: 2
#     Edge 15, Type (0, 0), BuildingBlock: MIFKUJ_clean_linker_0, # of connection points: 2
#     Edge 16, Type (0, 0), BuildingBlock: MIFKUJ_clean_linker_0, # of connection points: 2
#     Edge 17, Type (0, 0), BuildingBlock: MIFKUJ_clean_linker_0, # of connection points: 2
#     Edge 18, Type (0, 0), BuildingBlock: MIFKUJ_clean_linker_0, # of connection points: 2
#     Edge 19, Type (0, 0), BuildingBlock: MIFKUJ_clean_linker_0, # of connection points: 2
#     Edge 20, Type (0, 0), BuildingBlock: MIFKUJ_clean_linker_0, # of connection points: 2
#     Edge 21, Type (0, 0), BuildingBlock: MIFKUJ_clean_linker_0, # of connection points: 2
#     Edge 22, Type (0, 0), BuildingBlock: MIFKUJ_clean_linker_0, # of connection points: 2
#     Edge 23, Type (0, 0), BuildingBlock: MIFKUJ_clean_linker_0, # of connection points: 2
# Relax obj value: 0.028
# Max RMSD: 0.060
# Mean RMSD: 0.060
data_MOF--net-sra--node1-QUQFOY_clean_sbu_3--edge1-MIFKUJ_clean_linker_0
_symmetry_space_group_name_H-M    P1
_symmetry_Int_Tables_number       1
_symmetry_cell_setting            triclinic
loop_
_symmetry_equiv_pos_as_xyz
'x, y, z'
_cell_length_a     36.325504
_cell_length_b     69.552552
_cell_length_c     42.787274
_cell_angle_alpha  90.088789
_cell_angle_beta   90.15892
_cell_angle_gamma 89.353194
loop_
_atom_site_label
_atom_site_type_symbol
_atom_site_fract_x
_atom_site_fract_y
_atom_site_fract_z
_atom_type_partial_charge
C0 C 0.06147 0.10922 0.20728 0.0
O1 O 0.03764 0.11247 0.22835 0.0
Cd2 Cd 0.97319 0.11353 0.21626 0.0
O3 O 0.05161 0.10485 0.17963 0.0
Cd4 Cd -0.00352 0.09831 0.14805 0.0
C5 C 0.97626 0.1454 0.15402 0.0
O6 O 0.96021 0.08431 0.18943 0.0
O7 O 0.9306 0.09122 0.14712 0.0
O8 O 0.03132 0.0704 0.13116 0.0
C9 C 0.93028 0.08388 0.17422 0.0
O10 O 0.96725 0.14147 0.18205 0.0
C11 C 0.02347 0.07207 0.10238 0.0
O12 O 0.98957 0.13245 0.13608 0.0
O13 O 0.00373 0.08648 0.09446 0.0
C14 C 0.94062 0.38814 0.21713 0.0
O15 O 0.96473 0.38291 0.23699 0.0
Cd16 Cd 0.02753 0.37798 0.22127 0.0
O17 O 0.94974 0.39168 0.18906 0.0
Cd18 Cd 0.00332 0.39345 0.15456 0.0
C19 C 0.01425 0.34562 0.16082 0.0
O20 O 0.04566 0.40603 0.193 0.0
O21 O 0.07035 0.39503 0.1506 0.0
O22 O 0.97661 0.42369 0.13848 0.0
C23 C 0.07421 0.40381 0.17639 0.0
O24 O 0.0264 0.34923 0.18816 0.0
C25 C 0.97818 0.42048 0.10934 0.0
O26 O 0.00174 0.35907 0.14348 0.0
O27 O -0.00864 0.4043 0.1008 0.0
C28 C 0.06307 0.88301 0.78729 0.0
O29 O 0.04028 0.87992 0.76532 0.0
Cd30 Cd 0.97584 0.87626 0.77503 0.0
O31 O 0.05205 0.88572 0.81519 0.0
Cd32 Cd -0.00425 0.88914 0.84667 0.0
C33 C 0.98056 0.84203 0.83426 0.0
O34 O 0.95975 0.90364 0.80562 0.0
O35 O 0.9292 0.89612 0.8468 0.0
O36 O 0.0263 0.91707 0.86691 0.0
C37 C 0.9292 0.90351 0.81972 0.0
O38 O 0.97297 0.84691 0.80625 0.0
C39 C 0.02028 0.91357 0.89551 0.0
O40 O -0.00905 0.85445 0.85425 0.0
O41 O 0.00312 0.89821 0.90177 0.0
C42 C 0.95961 0.59972 0.77356 0.0
O43 O 0.98478 0.60559 0.7555 0.0
Cd44 Cd 0.04693 0.60913 0.77325 0.0
O45 O 0.96644 0.59547 0.80194 0.0
Cd46 Cd 0.01643 0.59388 0.84065 0.0
C47 C 0.02783 0.64191 0.83204 0.0
O48 O 0.05959 0.5811 0.8039 0.0
O49 O 0.08298 0.58843 0.84862 0.0
O50 O 0.98769 0.56467 0.858 0.0
C51 C 0.08757 0.58136 0.82154 0.0
O52 O 0.04128 0.63801 0.80527 0.0
C53 C 0.98672 0.56919 0.88671 0.0
O54 O 0.01571 0.62865 0.84963 0.0
O55 O -0.00071 0.58556 0.8942 0.0
C56 C 0.5724 0.6049 0.7119 0.0
O57 O 0.54955 0.61051 0.73249 0.0
Cd58 Cd 0.4847 0.61239 0.72177 0.0
O59 O 0.56155 0.59986 0.68484 0.0
Cd60 Cd 0.50608 0.59595 0.65299 0.0
C61 C 0.48768 0.64355 0.65885 0.0
O62 O 0.46904 0.58348 0.69502 0.0
O63 O 0.44015 0.58951 0.65194 0.0
O64 O 0.53545 0.56641 0.63669 0.0
C65 C 0.4392 0.58313 0.67967 0.0
O66 O 0.47918 0.63985 0.68705 0.0
C67 C 0.53089 0.56894 0.6076 0.0
O68 O 0.50027 0.6304 0.64089 0.0
O69 O 0.5154 0.58459 0.59915 0.0
C70 C 0.4475 0.88792 0.71549 0.0
O71 O 0.47167 0.88225 0.735 0.0
Cd72 Cd 0.53347 0.87518 0.71901 0.0
O73 O 0.45605 0.89097 0.68709 0.0
Cd74 Cd 0.50872 0.89105 0.65102 0.0
C75 C 0.51551 0.84284 0.65939 0.0
O76 O 0.55201 0.90248 0.68927 0.0
O77 O 0.57577 0.89384 0.64521 0.0
O78 O 0.48467 0.92148 0.63233 0.0
C79 C 0.58034 0.90093 0.67226 0.0
O80 O 0.52675 0.84628 0.68705 0.0
C81 C 0.48377 0.91675 0.60369 0.0
O82 O 0.50628 0.8565 0.64108 0.0
O83 O 0.49423 0.89976 0.59686 0.0
C84 C 0.55637 0.37944 0.28901 0.0
O85 O 0.53297 0.37528 0.26806 0.0
Cd86 Cd 0.47005 0.37018 0.28227 0.0
O87 O 0.54623 0.38267 0.31698 0.0
Cd88 Cd 0.49059 0.38582 0.34906 0.0
C89 C 0.48154 0.33812 0.34357 0.0
O90 O 0.44974 0.39855 0.30927 0.0
O91 O 0.42327 0.38749 0.35061 0.0
O92 O 0.51416 0.41647 0.36531 0.0
C93 C 0.42052 0.39651 0.32494 0.0
O94 O 0.47104 0.3415 0.31563 0.0
C95 C 0.51286 0.41323 0.39443 0.0
O96 O 0.49217 0.35172 0.36124 0.0
O97 O 0.50124 0.39686 0.40288 0.0
C98 C 0.4473 0.10662 0.27816 0.0
O99 O 0.47181 0.11141 0.25863 0.0
Cd100 Cd 0.53592 0.11216 0.27319 0.0
O101 O 0.45628 0.10079 0.30533 0.0
Cd102 Cd 0.5096 0.09348 0.33859 0.0
C103 C 0.52825 0.14092 0.33903 0.0
O104 O 0.55003 0.08205 0.29745 0.0
O105 O 0.57526 0.08648 0.34265 0.0
O106 O 0.47932 0.06375 0.35148 0.0
C107 C 0.57854 0.08091 0.31455 0.0
O108 O 0.53904 0.13851 0.31096 0.0
C109 C 0.48121 0.06595 0.38089 0.0
O110 O 0.51456 0.12708 0.35444 0.0
O111 O 0.49584 0.08132 0.39084 0.0
H112 H 0.98046 0.33119 0.10841 0.0
H113 H 0.97395 0.2973 0.09388 0.0
H114 H 0.03824 0.28058 0.17449 0.0
H115 H 0.04518 0.31421 0.18897 0.0
H116 H 0.05577 0.25858 0.12489 0.0
H117 H 0.9451 0.28137 0.17725 0.0
H118 H 0.88955 0.30159 0.18448 0.0
H119 H 0.8486 0.28362 0.09496 0.0
H120 H 0.90418 0.26345 0.08706 0.0
H121 H 0.9442 0.17561 0.18444 0.0
H122 H 0.94903 0.20956 0.172 0.0
H123 H 0.00825 0.19542 0.08761 0.0
H124 H 0.00417 0.16115 0.10027 0.0
H125 H 0.92876 0.23309 0.12627 0.0
H126 H 0.07538 0.22953 0.07925 0.0
H127 H 0.12973 0.20787 0.07972 0.0
H128 H 0.09868 0.1866 0.16993 0.0
H129 H 0.04432 0.20824 0.17006 0.0
C130 C -0.00636 0.3203 0.12279 0.0
C131 C 0.01304 0.3254 0.15003 0.0
C132 C 0.98983 0.30096 0.11446 0.0
C133 C 0.00538 0.28643 0.13324 0.0
C134 C 0.02611 0.29155 0.15961 0.0
C135 C 0.02983 0.31081 0.16797 0.0
C136 C -0.00199 0.26585 0.1272 0.0
C137 C 0.02798 0.25302 0.12465 0.0
C138 C 0.96178 0.25858 0.12707 0.0
C139 C 0.92897 0.27113 0.13138 0.0
C140 C 0.92445 0.28192 0.15895 0.0
C141 C 0.89292 0.29332 0.1632 0.0
C142 C 0.86561 0.29392 0.14016 0.0
C143 C 0.86982 0.28317 0.11275 0.0
C144 C 0.90132 0.27176 0.10837 0.0
C145 C 0.95786 0.17963 0.16299 0.0
C146 C 0.97427 0.16566 0.14359 0.0
C147 C 0.9604 0.19908 0.15581 0.0
C148 C 0.9794 0.20503 0.12909 0.0
C149 C -0.00614 0.19112 0.10856 0.0
C150 C -0.00862 0.17155 0.11578 0.0
C151 C 0.98651 0.2258 0.12478 0.0
C152 C 0.95651 0.23867 0.12534 0.0
C153 C 0.02272 0.23308 0.12391 0.0
C154 C 0.05562 0.2203 0.12444 0.0
C155 C 0.08024 0.22025 0.09919 0.0
C156 C 0.111 0.20798 0.09935 0.0
C157 C 0.11753 0.1958 0.12476 0.0
C158 C 0.09347 0.19597 0.15019 0.0
C159 C 0.06267 0.20822 0.15014 0.0
H160 H 0.14124 0.18624 0.12473 0.0
H161 H 0.84106 0.30258 0.14361 0.0
H162 H 0.96725 0.81178 0.79559 0.0
H163 H 0.96926 0.7778 0.80805 0.0
H164 H -0.0079 0.79114 0.90466 0.0
H165 H -0.00874 0.82555 0.89208 0.0
H166 H 0.03645 0.7636 0.88587 0.0
H167 H 0.90779 0.77207 0.88258 0.0
H168 H 0.84745 0.78355 0.8633 0.0
H169 H 0.86136 0.75042 0.77933 0.0
H170 H 0.92204 0.73896 0.79785 0.0
H171 H 0.01151 0.65678 0.8901 0.0
H172 H -0.00091 0.6907 0.90325 0.0
H173 H 0.01969 0.70664 0.80765 0.0
H174 H 0.03292 0.67322 0.79443 0.0
H175 H 0.94493 0.71825 0.84253 0.0
H176 H 0.08179 0.71815 0.84444 0.0
H177 H 0.14095 0.70653 0.86614 0.0
H178 H 0.10659 0.72345 0.95822 0.0
H179 H 0.04698 0.73493 0.93703 0.0
C180 C 0.97231 0.8076 0.81961 0.0
C181 C 0.97907 0.82143 0.84284 0.0
C182 C 0.97317 0.78809 0.82677 0.0
C183 C 0.9801 0.78187 0.85744 0.0
C184 C 0.98644 0.79561 0.88088 0.0
C185 C 0.9859 0.81525 0.87365 0.0
C186 C 0.98313 0.76096 0.86395 0.0
C187 C 0.01591 0.75372 0.87716 0.0
C188 C 0.95628 0.74796 0.8529 0.0
C189 C 0.91959 0.75468 0.84163 0.0
C190 C 0.8981 0.7673 0.85993 0.0
C191 C 0.8638 0.7738 0.84913 0.0
C192 C 0.85059 0.76772 0.8201 0.0
C193 C 0.87162 0.7551 0.80183 0.0
C194 C 0.90594 0.74856 0.8125 0.0
C195 C 0.0138 0.66757 0.87201 0.0
C196 C 0.02321 0.6623 0.84123 0.0
C197 C 0.00669 0.68686 0.87956 0.0
C198 C 0.00841 0.70101 0.85632 0.0
C199 C 0.01824 0.69584 0.82582 0.0
C200 C 0.02594 0.67673 0.81838 0.0
C201 C -0.00126 0.72124 0.86288 0.0
C202 C 0.9647 0.72825 0.85216 0.0
C203 C 0.02404 0.73396 0.87666 0.0
C204 C 0.05982 0.72712 0.88925 0.0
C205 C 0.08671 0.71919 0.86935 0.0
C206 C 0.12035 0.71268 0.88154 0.0
C207 C 0.12747 0.71418 0.91356 0.0
C208 C 0.101 0.72225 0.93344 0.0
C209 C 0.0673 0.72876 0.92135 0.0
H210 H 0.15353 0.70914 0.92296 0.0
H211 H 0.82404 0.77278 0.81178 0.0
H212 H 0.50585 0.65849 0.60128 0.0
H213 H 0.50502 0.69251 0.58598 0.0
H214 H 0.46313 0.70795 0.67704 0.0
H215 H 0.46284 0.6744 0.69201 0.0
H216 H 0.43023 0.72888 0.63508 0.0
H217 H 0.55724 0.70935 0.65731 0.0
H218 H 0.61376 0.69014 0.64834 0.0
H219 H 0.61843 0.71057 0.55378 0.0
H220 H 0.56166 0.72974 0.56215 0.0
H221 H 0.51184 0.8113 0.69658 0.0
H222 H 0.50192 0.77805 0.68084 0.0
H223 H 0.49985 0.79502 0.58401 0.0
H224 H 0.509 0.82872 0.5996 0.0
H225 H 0.54976 0.75895 0.61007 0.0
H226 H 0.42698 0.78525 0.59733 0.0
H227 H 0.37278 0.80463 0.61297 0.0
H228 H 0.36291 0.77141 0.69695 0.0
H229 H 0.41741 0.75204 0.68209 0.0
C230 C 0.49603 0.66915 0.61783 0.0
C231 C 0.48469 0.66371 0.64795 0.0
C232 C 0.49569 0.68858 0.6091 0.0
C233 C 0.48434 0.70281 0.63047 0.0
C234 C 0.47185 0.69726 0.66006 0.0
C235 C 0.47193 0.67799 0.66867 0.0
C236 C 0.48715 0.72363 0.62348 0.0
C237 C 0.45628 0.73543 0.62924 0.0
C238 C 0.52094 0.73222 0.6152 0.0
C239 C 0.555 0.72074 0.61021 0.0
C240 C 0.5702 0.70962 0.63455 0.0
C241 C 0.60228 0.69877 0.62959 0.0
C242 C 0.6196 0.69907 0.60047 0.0
C243 C 0.60493 0.7103 0.57629 0.0
C244 C 0.57281 0.72116 0.58112 0.0
C245 C 0.50949 0.80803 0.67189 0.0
C246 C 0.51121 0.82265 0.64932 0.0
C247 C 0.50372 0.78904 0.66298 0.0
C248 C 0.50004 0.78422 0.63135 0.0
C249 C 0.50256 0.79859 0.60855 0.0
C250 C 0.50771 0.81776 0.6175 0.0
C251 C 0.49325 0.76399 0.62294 0.0
C252 C 0.52337 0.75235 0.6145 0.0
C253 C 0.45901 0.7555 0.62949 0.0
C254 C 0.4264 0.76725 0.63863 0.0
C255 C 0.41348 0.78221 0.61928 0.0
C256 C 0.38265 0.79316 0.62798 0.0
C257 C 0.36441 0.78924 0.65592 0.0
C258 C 0.37704 0.77441 0.67529 0.0
C259 C 0.40787 0.76343 0.66672 0.0
H260 H 0.34039 0.79761 0.66253 0.0
H261 H 0.64444 0.69066 0.59667 0.0
H262 H 0.45514 0.30623 0.31432 0.0
H263 H 0.46257 0.27283 0.33023 0.0
H264 H 0.51915 0.29076 0.41394 0.0
H265 H 0.51211 0.32443 0.398 0.0
H266 H 0.55676 0.26294 0.38424 0.0
H267 H 0.43515 0.27101 0.4205 0.0
H268 H 0.37002 0.28132 0.41927 0.0
H269 H 0.34996 0.24353 0.34178 0.0
H270 H 0.4151 0.23319 0.34221 0.0
H271 H 0.49554 0.15371 0.39308 0.0
H272 H 0.49001 0.18706 0.41117 0.0
H273 H 0.55592 0.2056 0.33333 0.0
H274 H 0.56198 0.17253 0.31543 0.0
H275 H 0.45643 0.21517 0.38044 0.0
H276 H 0.60164 0.24516 0.34913 0.0
H277 H 0.66657 0.23475 0.35311 0.0
H278 H 0.63931 0.19637 0.42783 0.0
H279 H 0.5743 0.20674 0.42466 0.0
C280 C 0.4688 0.30315 0.33631 0.0
C281 C 0.48315 0.31801 0.35482 0.0
C282 C 0.4728 0.28402 0.34549 0.0
C283 C 0.49107 0.27932 0.37344 0.0
C284 C 0.50481 0.2941 0.39236 0.0
C285 C 0.50068 0.31332 0.38323 0.0
C286 C 0.49818 0.25885 0.38119 0.0
C287 C 0.53484 0.25248 0.38386 0.0
C288 C 0.46946 0.24529 0.38169 0.0
C289 C 0.43011 0.25136 0.38136 0.0
C290 C 0.41692 0.26497 0.40307 0.0
C291 C 0.37998 0.27082 0.40253 0.0
C292 C 0.35587 0.2631 0.38045 0.0
C293 C 0.36866 0.24949 0.35889 0.0
C294 C 0.40558 0.2436 0.35932 0.0
C295 C 0.50952 0.16485 0.38022 0.0
C296 C 0.52897 0.16048 0.35266 0.0
C297 C 0.50625 0.18389 0.39056 0.0
C298 C 0.52274 0.1988 0.37374 0.0
C299 C 0.54349 0.19432 0.34703 0.0
C300 C 0.54668 0.17538 0.33666 0.0
C301 C 0.51514 0.21923 0.38159 0.0
C302 C 0.47835 0.22561 0.38177 0.0
C303 C 0.54373 0.23279 0.38421 0.0
C304 C 0.58298 0.2267 0.38657 0.0
C305 C 0.6095 0.23461 0.36658 0.0
C306 C 0.64634 0.22868 0.36865 0.0
C307 C 0.65705 0.21489 0.39068 0.0
C308 C 0.63096 0.20702 0.41073 0.0
C309 C 0.5941 0.2129 0.40877 0.0
H310 H 0.68557 0.21031 0.39222 0.0
H311 H 0.32728 0.26765 0.38007 0.0
H312 H 0.38882 0.10371 0.31739 0.0
H313 H 0.32369 0.10538 0.3042 0.0
H314 H 0.35083 0.11385 0.20711 0.0
H315 H 0.41654 0.11269 0.22028 0.0
H316 H 0.29525 0.13721 0.22468 0.0
H317 H 0.32308 0.07 0.23327 0.0
H318 H 0.34794 0.04064 0.25816 0.0
H319 H 0.27402 0.04848 0.33539 0.0
H320 H 0.24905 0.07805 0.31116 0.0
H321 H 0.11844 0.11115 0.16614 0.0
H322 H 0.18415 0.11231 0.17811 0.0
H323 H 0.16001 0.11095 0.27671 0.0
H324 H 0.09401 0.10992 0.26501 0.0
H325 H 0.21396 0.08397 0.25711 0.0
H326 H 0.1859 0.15127 0.24746 0.0
H327 H 0.16112 0.18037 0.22173 0.0
H328 H 0.23528 0.17174 0.1449 0.0
H329 H 0.2601 0.14237 0.16992 0.0
C330 C 0.38106 0.10591 0.29318 0.0
C331 C 0.40787 0.10789 0.2698 0.0
C332 C 0.34377 0.10681 0.28569 0.0
C333 C 0.33245 0.10938 0.25461 0.0
C334 C 0.35905 0.11177 0.23123 0.0
C335 C 0.39653 0.11105 0.23877 0.0
C336 C 0.29278 0.10941 0.24672 0.0
C337 C 0.27755 0.12544 0.23133 0.0
C338 C 0.26964 0.0942 0.25598 0.0
C339 C 0.28441 0.07634 0.27052 0.0
C340 C 0.3123 0.06554 0.25567 0.0
C341 C 0.32639 0.04885 0.26964 0.0
C342 C 0.31263 0.04272 0.29838 0.0
C343 C 0.28468 0.05325 0.31315 0.0
C344 C 0.27051 0.06997 0.29929 0.0
C345 C 0.12705 0.11115 0.19039 0.0
C346 C 0.10107 0.1104 0.21466 0.0
C347 C 0.16457 0.11191 0.19715 0.0
C348 C 0.17674 0.11181 0.22825 0.0
C349 C 0.15097 0.11107 0.25256 0.0
C350 C 0.11337 0.11053 0.24584 0.0
C351 C 0.2165 0.11179 0.2353 0.0
C352 C 0.23171 0.09571 0.25045 0.0
C353 C 0.23958 0.12688 0.22561 0.0
C354 C 0.22462 0.1445 0.21044 0.0
C355 C 0.19668 0.15546 0.22493 0.0
C356 C 0.18267 0.17202 0.2105 0.0
C357 C 0.1966 0.17788 0.1817 0.0
C358 C 0.22452 0.16717 0.16722 0.0
C359 C 0.23858 0.15057 0.18152 0.0
H360 H 0.18587 0.19077 0.17067 0.0
H361 H 0.32359 0.0298 0.30916 0.0
H362 H 0.61451 0.37569 0.32866 0.0
H363 H 0.67969 0.37855 0.3164 0.0
H364 H 0.65229 0.39 0.21988 0.0
H365 H 0.5869 0.38624 0.23183 0.0
H366 H 0.70797 0.36707 0.22188 0.0
H367 H 0.67882 0.42634 0.27281 0.0
H368 H 0.65379 0.44728 0.31438 0.0
H369 H 0.7302 0.42272 0.38026 0.0
H370 H 0.75538 0.40143 0.33918 0.0
H371 H 0.88339 0.40078 0.181 0.0
H372 H 0.81815 0.40122 0.19406 0.0
H373 H 0.84345 0.37942 0.28605 0.0
H374 H 0.90917 0.37907 0.27333 0.0
H375 H 0.78917 0.40874 0.28554 0.0
H376 H 0.81696 0.34907 0.23096 0.0
H377 H 0.8422 0.33051 0.18664 0.0
H378 H 0.76691 0.35906 0.1241 0.0
H379 H 0.74166 0.37805 0.16799 0.0
C380 C 0.62238 0.37882 0.30482 0.0
C381 C 0.59569 0.38085 0.2812 0.0
C382 C 0.65963 0.38057 0.29788 0.0
C383 C 0.67086 0.38493 0.26737 0.0
C384 C 0.64424 0.38672 0.24363 0.0
C385 C 0.60694 0.38457 0.25045 0.0
C386 C 0.71043 0.38721 0.26018 0.0
C387 C 0.72554 0.37642 0.23554 0.0
C388 C 0.73353 0.39922 0.27825 0.0
C389 C 0.71876 0.41216 0.30296 0.0
C390 C 0.69014 0.42532 0.29621 0.0
C391 C 0.67595 0.43726 0.31968 0.0
C392 C 0.69033 0.43628 0.34995 0.0
C393 C 0.71906 0.42343 0.3568 0.0
C394 C 0.73334 0.41144 0.33342 0.0
C395 C 0.87523 0.39618 0.20412 0.0
C396 C 0.90145 0.38967 0.22604 0.0
C397 C 0.83791 0.39646 0.2115 0.0
C398 C 0.8261 0.3901 0.24082 0.0
C399 C 0.85218 0.38433 0.26325 0.0
C400 C 0.88963 0.38408 0.2559 0.0
C401 C 0.78639 0.38858 0.24743 0.0
C402 C 0.77138 0.39948 0.27194 0.0
C403 C 0.76321 0.37696 0.2289 0.0
C404 C 0.77765 0.3651 0.20272 0.0
C405 C 0.80591 0.35145 0.20774 0.0
C406 C 0.82022 0.34085 0.18268 0.0
C407 C 0.80623 0.34364 0.15255 0.0
C408 C 0.77775 0.35694 0.14744 0.0
C409 C 0.76342 0.36762 0.1724 0.0
H410 H 0.81743 0.33552 0.13313 0.0
H411 H 0.67924 0.4455 0.36809 0.0
H412 H 0.11986 0.87955 0.82868 0.0
H413 H 0.18558 0.88155 0.81782 0.0
H414 H 0.16174 0.89128 0.72017 0.0
H415 H 0.09591 0.88852 0.73071 0.0
H416 H 0.21604 0.86715 0.72531 0.0
H417 H 0.18733 0.92832 0.77192 0.0
H418 H 0.16262 0.95025 0.81226 0.0
H419 H 0.23818 0.92657 0.87967 0.0
H420 H 0.26302 0.9043 0.83981 0.0
H421 H 0.38945 0.9 0.67974 0.0
H422 H 0.32458 0.90091 0.69413 0.0
H423 H 0.35242 0.88187 0.7872 0.0
H424 H 0.41771 0.88101 0.77314 0.0
H425 H 0.29709 0.91085 0.78536 0.0
H426 H 0.32553 0.84977 0.73695 0.0
H427 H 0.35108 0.82928 0.69505 0.0
H428 H 0.27525 0.85444 0.62924 0.0
H429 H 0.24973 0.87536 0.67065 0.0
C430 C 0.12862 0.88211 0.80489 0.0
C431 C 0.10277 0.88394 0.78054 0.0
C432 C 0.16619 0.88337 0.79875 0.0
C433 C 0.17855 0.88695 0.76829 0.0
C434 C 0.15279 0.88858 0.74388 0.0
C435 C 0.11521 0.887 0.74992 0.0
C436 C 0.21838 0.88858 0.76172 0.0
C437 C 0.23359 0.87691 0.73817 0.0
C438 C 0.24149 0.90101 0.77898 0.0
C439 C 0.2268 0.91451 0.80294 0.0
C440 C 0.19851 0.92769 0.79539 0.0
C441 C 0.1845 0.9402 0.81817 0.0
C442 C 0.19875 0.93977 0.84853 0.0
C443 C 0.22714 0.92687 0.85615 0.0
C444 C 0.24121 0.91431 0.83347 0.0
C445 C 0.38193 0.89617 0.70339 0.0
C446 C 0.40872 0.8902 0.72521 0.0
C447 C 0.34484 0.89671 0.71153 0.0
C448 C 0.33384 0.8912 0.74155 0.0
C449 C 0.36051 0.88612 0.76388 0.0
C450 C 0.39773 0.88557 0.75576 0.0
C451 C 0.29433 0.88958 0.74886 0.0
C452 C 0.27933 0.90115 0.77256 0.0
C453 C 0.27128 0.8772 0.73158 0.0
C454 C 0.28595 0.86425 0.70685 0.0
C455 C 0.31445 0.85101 0.71351 0.0
C456 C 0.32892 0.83932 0.68984 0.0
C457 C 0.31486 0.84059 0.65947 0.0
C458 C 0.28616 0.85349 0.65276 0.0
C459 C 0.27167 0.86526 0.67632 0.0
H460 H 0.32616 0.83158 0.64114 0.0
H461 H 0.18786 0.94945 0.86614 0.0
H462 H 0.60952 0.62561 0.75595 0.0
H463 H 0.67615 0.62598 0.76476 0.0
H464 H 0.69079 0.58265 0.69335 0.0
H465 H 0.62468 0.58288 0.68354 0.0
H466 H 0.72383 0.60141 0.78386 0.0
H467 H 0.76947 0.58771 0.65506 0.0
H468 H 0.7476 0.59517 0.60176 0.0
H469 H 0.68713 0.64402 0.6367 0.0
H470 H 0.70903 0.63701 0.69013 0.0
H471 H 0.90819 0.57349 0.78904 0.0
H472 H 0.84269 0.57442 0.7759 0.0
H473 H 0.85906 0.62623 0.72241 0.0
H474 H 0.92508 0.62454 0.73385 0.0
H475 H 0.81046 0.60685 0.6949 0.0
H476 H 0.82659 0.62651 0.80078 0.0
H477 H 0.84884 0.624 0.85516 0.0
H478 H 0.78586 0.57275 0.86804 0.0
H479 H 0.76359 0.57483 0.81359 0.0
C480 C 0.62704 0.61617 0.7422 0.0
C481 C 0.61208 0.60436 0.71888 0.0
C482 C 0.66504 0.61638 0.74724 0.0
C483 C 0.68852 0.60462 0.72928 0.0
C484 C 0.67335 0.59226 0.70685 0.0
C485 C 0.63555 0.59232 0.7014 0.0
C486 C 0.72887 0.60509 0.73407 0.0
C487 C 0.74277 0.60267 0.76443 0.0
C488 C 0.75358 0.60724 0.70881 0.0
C489 C 0.74065 0.61171 0.67665 0.0
C490 C 0.75165 0.60009 0.65135 0.0
C491 C 0.73922 0.60423 0.62112 0.0
C492 C 0.71591 0.62003 0.61587 0.0
C493 C 0.70508 0.63175 0.64082 0.0
C494 C 0.71746 0.62768 0.67108 0.0
C495 C 0.89778 0.58487 0.77404 0.0
C496 C 0.92137 0.59902 0.76257 0.0
C497 C 0.86039 0.5855 0.76677 0.0
C498 C 0.84575 0.60074 0.749 0.0
C499 C 0.86967 0.6144 0.73633 0.0
C500 C 0.90732 0.61344 0.74284 0.0
C501 C 0.80543 0.60281 0.74462 0.0
C502 C 0.79153 0.60569 0.71435 0.0
C503 C 0.78072 0.60191 0.77014 0.0
C504 C 0.79366 0.60075 0.80304 0.0
C505 C 0.81763 0.61466 0.81517 0.0
C506 C 0.83023 0.61331 0.846 0.0
C507 C 0.81882 0.5982 0.86502 0.0
C508 C 0.79469 0.58444 0.85327 0.0
C509 C 0.78203 0.58571 0.82244 0.0
H510 H 0.82864 0.59717 0.88887 0.0
H511 H 0.70629 0.6232 0.59245 0.0
H512 H 0.59874 0.90926 0.73237 0.0
H513 H 0.65995 0.91499 0.75352 0.0
H514 H 0.70626 0.90938 0.66109 0.0
H515 H 0.64492 0.90297 0.63987 0.0
H516 H 0.74442 0.88893 0.70023 0.0
H517 H 0.70115 0.95365 0.69996 0.0
H518 H 0.65826 0.98069 0.70976 0.0
H519 H 0.66664 0.97102 0.80862 0.0
H520 H 0.70919 0.94374 0.79942 0.0
H521 H 0.9205 0.91275 0.75828 0.0
H522 H 0.8626 0.91775 0.73006 0.0
H523 H 0.80223 0.91107 0.81595 0.0
H524 H 0.86008 0.90596 0.84443 0.0
H525 H 0.77462 0.94101 0.77518 0.0
H526 H 0.81162 0.87365 0.77319 0.0
H527 H 0.85535 0.84705 0.7627 0.0
H528 H 0.85925 0.86303 0.66588 0.0
H529 H 0.81594 0.88993 0.67593 0.0
C530 C 0.62189 0.90943 0.71648 0.0
C531 C 0.61712 0.90561 0.68448 0.0
C532 C 0.65686 0.91286 0.72857 0.0
C533 C 0.68764 0.91293 0.70882 0.0
C534 C 0.68285 0.90947 0.67672 0.0
C535 C 0.64785 0.9058 0.66464 0.0
C536 C 0.725 0.91507 0.72221 0.0
C537 C 0.75122 0.90059 0.71603 0.0
C538 C 0.73374 0.93009 0.74327 0.0
C539 C 0.70821 0.94655 0.74896 0.0
C540 C 0.69365 0.95719 0.72378 0.0
C541 C 0.66943 0.97259 0.72923 0.0
C542 C 0.65968 0.97755 0.75979 0.0
C543 C 0.67421 0.96716 0.78496 0.0
C544 C 0.69843 0.95174 0.77964 0.0
C545 C 0.89495 0.91263 0.77126 0.0
C546 C 0.89471 0.90874 0.8035 0.0
C547 C 0.86196 0.9155 0.7551 0.0
C548 C 0.82832 0.91462 0.77096 0.0
C549 C 0.82805 0.91182 0.8034 0.0
C550 C 0.86103 0.90879 0.81957 0.0
C551 C 0.79337 0.91481 0.75336 0.0
C552 C 0.76776 0.92963 0.75887 0.0
C553 C 0.7852 0.90021 0.73148 0.0
C554 C 0.8109 0.88392 0.72538 0.0
C555 C 0.82204 0.87158 0.74972 0.0
C556 C 0.84671 0.85644 0.74385 0.0
C557 C 0.86016 0.85339 0.71366 0.0
C558 C 0.84887 0.86544 0.68926 0.0
C559 C 0.82426 0.88063 0.69503 0.0
H560 H 0.87926 0.84166 0.70916 0.0
H561 H 0.64092 0.98948 0.76396 0.0
H562 H 0.42611 0.57797 0.74178 0.0
H563 H 0.36676 0.57261 0.76673 0.0
H564 H 0.3143 0.57066 0.67614 0.0
H565 H 0.37344 0.57663 0.65109 0.0
H566 H 0.27921 0.59443 0.71251 0.0
H567 H 0.32483 0.53 0.72327 0.0
H568 H 0.36916 0.50445 0.73794 0.0
H569 H 0.36175 0.52156 0.8342 0.0
H570 H 0.31774 0.5474 0.82006 0.0
H571 H 0.10436 0.56857 0.76321 0.0
H572 H 0.16547 0.56381 0.74086 0.0
H573 H 0.21501 0.57784 0.82961 0.0
H574 H 0.15367 0.58267 0.85236 0.0
H575 H 0.25101 0.5466 0.79478 0.0
H576 H 0.20801 0.61218 0.78237 0.0
H577 H 0.16256 0.63708 0.76718 0.0
H578 H 0.16498 0.6167 0.67242 0.0
H579 H 0.21003 0.59146 0.68718 0.0
C580 C 0.40199 0.57613 0.72717 0.0
C581 C 0.40425 0.57786 0.69452 0.0
C582 C 0.36814 0.57295 0.74146 0.0
C583 C 0.33615 0.57109 0.72328 0.0
C584 C 0.33866 0.57208 0.69059 0.0
C585 C 0.37241 0.5755 0.67632 0.0
C586 C 0.29965 0.56992 0.73836 0.0
C587 C 0.27293 0.58372 0.73007 0.0
C588 C 0.29179 0.55631 0.76195 0.0
C589 C 0.31822 0.54076 0.77055 0.0
C590 C 0.33287 0.52842 0.74753 0.0
C591 C 0.3579 0.51387 0.75576 0.0
C592 C 0.36833 0.51141 0.78697 0.0
C593 C 0.35367 0.52349 0.81003 0.0
C594 C 0.32865 0.53808 0.80193 0.0
C595 C 0.12819 0.57039 0.77815 0.0
C596 C 0.12431 0.57628 0.80941 0.0
C597 C 0.16303 0.5676 0.76535 0.0
C598 C 0.19452 0.57067 0.78357 0.0
C599 C 0.19086 0.57541 0.81528 0.0
C600 C 0.1559 0.57827 0.82814 0.0
C601 C 0.23094 0.57093 0.76854 0.0
C602 C 0.25751 0.55713 0.777 0.0
C603 C 0.23877 0.58447 0.74496 0.0
C604 C 0.2121 0.59982 0.73595 0.0
C605 C 0.19863 0.61292 0.75835 0.0
C606 C 0.17297 0.6271 0.74981 0.0
C607 C 0.16081 0.62844 0.71887 0.0
C608 C 0.17439 0.61563 0.69639 0.0
C609 C 0.19999 0.60139 0.70482 0.0
H610 H 0.14094 0.63943 0.71231 0.0
H611 H 0.38771 0.50013 0.79329 0.0
H612 H 0.64224 0.07345 0.34637 0.0
H613 H 0.70345 0.06783 0.32435 0.0
H614 H 0.65799 0.07147 0.23122 0.0
H615 H 0.59656 0.07653 0.25309 0.0
H616 H 0.71112 0.04463 0.23357 0.0
H617 H 0.69646 0.11056 0.26624 0.0
H618 H 0.68264 0.13677 0.30344 0.0
H619 H 0.77077 0.11738 0.36305 0.0
H620 H 0.78479 0.09088 0.32637 0.0
H621 H 0.86247 0.08103 0.14711 0.0
H622 H 0.80418 0.07429 0.1731 0.0
H623 H 0.86159 0.06651 0.26065 0.0
H624 H 0.92 0.07329 0.23488 0.0
H625 H 0.8048 0.09251 0.26438 0.0
H626 H 0.82375 0.02858 0.22585 0.0
H627 H 0.83724 0.00385 0.18603 0.0
H628 H 0.74089 0.02102 0.13435 0.0
H629 H 0.7271 0.04606 0.17363 0.0
C630 C 0.64524 0.07282 0.32121 0.0
C631 C 0.61476 0.07568 0.30142 0.0
C632 C 0.6802 0.06962 0.30867 0.0
C633 C 0.68532 0.06959 0.27616 0.0
C634 C 0.65463 0.07148 0.25638 0.0
C635 C 0.61959 0.07445 0.2689 0.0
C636 C 0.72283 0.06909 0.26277 0.0
C637 C 0.73159 0.05514 0.24016 0.0
C638 C 0.74965 0.08265 0.27175 0.0
C639 C 0.74138 0.09862 0.29376 0.0
C640 C 0.7127 0.11181 0.2874 0.0
C641 C 0.70486 0.12672 0.30837 0.0
C642 C 0.72574 0.1287 0.33564 0.0
C643 C 0.75458 0.1158 0.34195 0.0
C644 C 0.76249 0.10084 0.32107 0.0
C645 C 0.86273 0.07762 0.17181 0.0
C646 C 0.89571 0.07784 0.18904 0.0
C647 C 0.82946 0.07366 0.18657 0.0
C648 C 0.82869 0.06982 0.21874 0.0
C649 C 0.86172 0.06941 0.23578 0.0
C650 C 0.89501 0.07327 0.22102 0.0
C651 C 0.79311 0.0681 0.23508 0.0
C652 C 0.78461 0.08176 0.25815 0.0
C653 C 0.76649 0.05445 0.22617 0.0
C654 C 0.77455 0.0393 0.2026 0.0
C655 C 0.80558 0.02719 0.20588 0.0
C656 C 0.81326 0.0131 0.18342 0.0
C657 C 0.78998 0.01089 0.15764 0.0
C658 C 0.75891 0.02275 0.15432 0.0
C659 C 0.75112 0.03688 0.1767 0.0
H660 H 0.79598 -2e-05 0.14027 0.0
H661 H 0.71963 0.14026 0.35184 0.0
H662 H 0.09059 0.43146 0.21897 0.0
H663 H 0.15062 0.43792 0.24256 0.0
H664 H 0.19916 0.39235 0.18705 0.0
H665 H 0.1398 0.38677 0.16212 0.0
H666 H 0.18876 0.41818 0.27838 0.0
H667 H 0.28783 0.39652 0.17583 0.0
H668 H 0.29105 0.40046 0.11864 0.0
H669 H 0.21887 0.44966 0.12402 0.0
H670 H 0.21562 0.4462 0.18127 0.0
H671 H 0.35382 0.38064 0.33649 0.0
H672 H 0.29532 0.38854 0.3112 0.0
H673 H 0.34762 0.43414 0.25991 0.0
H674 H 0.40672 0.42538 0.28375 0.0
H675 H 0.30802 0.41693 0.2223 0.0
H676 H 0.28335 0.44263 0.32196 0.0
H677 H 0.28032 0.44421 0.37946 0.0
H678 H 0.20419 0.39744 0.38022 0.0
H679 H 0.20714 0.39538 0.32274 0.0
C680 C 0.11433 0.4231 0.21146 0.0
C681 C 0.11074 0.40866 0.18874 0.0
C682 C 0.14856 0.42676 0.22498 0.0
C683 C 0.17963 0.41577 0.21643 0.0
C684 C 0.17598 0.40144 0.19345 0.0
C685 C 0.14196 0.39814 0.17935 0.0
C686 C 0.21509 0.41811 0.23326 0.0
C687 C 0.21482 0.41813 0.26609 0.0
C688 C 0.24917 0.41874 0.21735 0.0
C689 C 0.25131 0.42102 0.18288 0.0
C690 C 0.27282 0.40825 0.16485 0.0
C691 C 0.2746 0.41039 0.1324 0.0
C692 C 0.25512 0.42527 0.1177 0.0
C693 C 0.23387 0.4381 0.13542 0.0
C694 C 0.232 0.43604 0.16788 0.0
C695 C 0.35267 0.39247 0.32006 0.0
C696 C 0.38464 0.4024 0.31198 0.0
C697 C 0.31917 0.39709 0.30576 0.0
C698 C 0.3168 0.41218 0.28396 0.0
C699 C 0.34868 0.42244 0.27657 0.0
C700 C 0.38238 0.41747 0.29024 0.0
C701 C 0.28163 0.41626 0.26738 0.0
C702 C 0.28196 0.41741 0.2346 0.0
C703 C 0.24765 0.41763 0.28338 0.0
C704 C 0.24564 0.4188 0.318 0.0
C705 C 0.26613 0.4326 0.33439 0.0
C706 C 0.26441 0.43359 0.36699 0.0
C707 C 0.24211 0.42092 0.38349 0.0
C708 C 0.22144 0.40725 0.36741 0.0
C709 C 0.22308 0.40619 0.33481 0.0
H710 H 0.24082 0.42171 0.40873 0.0
H711 H 0.25652 0.42689 0.09258 0.0
H712 H -0.00181 0.0673 0.04276 0.0
H713 H 0.00723 0.03907 0.00935 0.0
H714 H 0.08056 0.0141 0.07796 0.0
H715 H 0.07161 0.04223 0.11159 0.0
H716 H 0.10266 0.00743 0.01469 0.0
H717 H -0.00219 0.00074 0.08192 0.0
H718 H 0.93931 0.01118 0.10602 0.0
H719 H 0.88809 0.01362 0.01553 0.0
H720 H 0.94649 0.00348 0.99084 0.0
H721 H 0.00721 0.91157 0.95842 0.0
H722 H 0.01818 0.93672 0.99738 0.0
H723 H 0.06624 0.97241 0.92624 0.0
H724 H 0.05616 0.94732 0.88753 0.0
H725 H 0.98739 0.97121 0.99725 0.0
H726 H 0.12671 0.00318 0.95736 0.0
H727 H 0.18536 0.99177 0.93464 0.0
H728 H 0.16924 0.93598 0.97483 0.0
H729 H 0.11077 0.94712 0.99815 0.0
C730 C 0.01686 0.056 0.05043 0.0
C731 C 0.03385 0.05685 0.07992 0.0
C732 C 0.02193 0.03989 0.03137 0.0
C733 C 0.04419 0.02447 0.04146 0.0
C734 C 0.06325 0.02587 0.06986 0.0
C735 C 0.05797 0.04191 0.08905 0.0
C736 C 0.04451 0.00619 0.0239 0.0
C737 C 0.07757 -0.00056 0.01082 0.0
C738 C 0.01188 -0.00441 0.01974 0.0
C739 C 0.97661 0.00151 0.03452 0.0
C740 C 0.97415 0.00365 0.06715 0.0
C741 C 0.941 0.00949 0.08091 0.0
C742 C 0.91002 0.0131 0.06231 0.0
C743 C 0.91212 0.01084 0.0299 0.0
C744 C 0.94523 0.00503 0.01601 0.0
C745 C 0.02076 0.92463 0.95126 0.0
C746 C 0.03063 0.92753 0.91991 0.0
C747 C 0.02694 0.93899 0.97349 0.0
C748 C 0.04321 0.95639 0.96474 0.0
C749 C 0.05424 0.95899 0.93366 0.0
C750 C 0.04821 0.94466 0.9115 0.0
C751 C 0.04543 0.97256 0.98716 0.0
C752 C 0.0127 0.97899 0.00123 0.0
C753 C 0.0785 0.98266 0.99252 0.0
C754 C 0.11419 0.97597 0.97933 0.0
C755 C 0.1358 0.98852 0.96154 0.0
C756 C 0.16898 0.98209 0.9485 0.0
C757 C 0.18096 0.96315 0.95321 0.0
C758 C 0.15987 0.95063 0.9711 0.0
C759 C 0.12668 0.95699 0.98421 0.0
H760 H 0.20661 0.95818 0.94301 0.0
H761 H 0.88438 0.01762 0.07301 0.0
H762 H 0.96976 0.5316 0.87781 0.0
H763 H 0.95557 0.50783 0.91751 0.0
H764 H 0.95919 0.55185 0.98868 0.0
H765 H 0.97483 0.57568 0.94897 0.0
H766 H -0.00042 0.52313 0.0055 0.0
H767 H 0.87726 0.52868 0.96733 0.0
H768 H 0.82732 0.53016 0.92825 0.0
H769 H 0.85279 0.47242 0.89921 0.0
H770 H 0.90327 0.47068 0.93779 0.0
H771 H 0.9536 0.4567 0.12231 0.0
H772 H 0.94259 0.48287 0.08544 0.0
H773 H 0.96672 0.44466 0.00854 0.0
H774 H 0.97803 0.41825 0.04539 0.0
H775 H 0.9056 0.47205 -0.00167 0.0
H776 H 0.03332 0.46941 0.03273 0.0
H777 H 0.0822 0.46844 0.07283 0.0
H778 H 0.04321 0.52221 0.11034 0.0
H779 H -0.00627 0.52334 0.0707 0.0
C780 C 0.96699 0.5363 0.90184 0.0
C781 C 0.97368 0.55547 0.91035 0.0
C782 C 0.95855 0.5227 0.92452 0.0
C783 C 0.9559 0.52806 0.95608 0.0
C784 C 0.96107 0.54739 0.96446 0.0
C785 C 0.96999 0.56099 0.94178 0.0
C786 C 0.95183 0.51313 0.98045 0.0
C787 C 0.97841 0.51226 0.00427 0.0
C788 C 0.92471 0.49868 0.97856 0.0
C789 C 0.89426 0.49961 0.95535 0.0
C790 C 0.87241 0.51634 0.95246 0.0
C791 C 0.84396 0.51722 0.93041 0.0
C792 C 0.83693 0.50141 0.91122 0.0
C793 C 0.85828 0.48466 0.91409 0.0
C794 C 0.88678 0.48371 0.93608 0.0
C795 C 0.95606 0.45374 0.09754 0.0
C796 C 0.96717 0.43548 0.08673 0.0
C797 C 0.94965 0.46871 0.07655 0.0
C798 C 0.95414 0.46566 0.04442 0.0
C799 C 0.96307 0.4472 0.03334 0.0
C800 C 0.96972 0.4322 0.05438 0.0
C801 C 0.95343 0.48216 0.0228 0.0
C802 C 0.92617 0.48321 -0.00038 0.0
C803 C 0.97966 0.49694 0.02536 0.0
C804 C 0.00959 0.49635 0.049 0.0
C805 C 0.03499 0.48094 0.0497 0.0
C806 C 0.06283 0.48038 0.07231 0.0
C807 C 0.06574 0.49522 0.09419 0.0
C808 C 0.04088 0.5107 0.09342 0.0
C809 C 0.01294 0.51131 0.07088 0.0
H810 H 0.08732 0.49476 0.11167 0.0
H811 H 0.8149 0.50212 0.89417 0.0
H812 H 0.5261 0.45086 0.38242 0.0
H813 H 0.5392 0.47627 0.41981 0.0
H814 H 0.53732 0.43501 0.49506 0.0
H815 H 0.52269 0.4095 0.45763 0.0
H816 H 0.49853 0.46465 0.51036 0.0
H817 H 0.61912 0.45669 0.46923 0.0
H818 H 0.66723 0.45352 0.42896 0.0
H819 H 0.64151 0.51028 0.39549 0.0
H820 H 0.59289 0.5137 0.43529 0.0
H821 H 0.55668 0.533 0.62089 0.0
H822 H 0.56372 0.506 0.58486 0.0
H823 H 0.53365 0.54276 0.50764 0.0
H824 H 0.52608 0.56998 0.54368 0.0
H825 H 0.59419 0.51428 0.49628 0.0
H826 H 0.46882 0.51959 0.53529 0.0
H827 H 0.42259 0.52229 0.57722 0.0
H828 H 0.46118 0.46897 0.61654 0.0
H829 H 0.50805 0.46612 0.57507 0.0
C830 C 0.52881 0.44713 0.40689 0.0
C831 C 0.52328 0.4282 0.41714 0.0
C832 C 0.53663 0.46167 0.42825 0.0
C833 C 0.53987 0.45752 0.46022 0.0
C834 C 0.53507 0.43853 0.47047 0.0
C835 C 0.52672 0.42398 0.44911 0.0
C836 C 0.54531 0.47332 0.48302 0.0
C837 C 0.52 0.47523 0.50758 0.0
C838 C 0.57288 0.48738 0.47915 0.0
C839 C 0.60215 0.4854 0.45515 0.0
C840 C 0.62352 0.46845 0.45314 0.0
C841 C 0.65092 0.46661 0.43042 0.0
C842 C 0.65738 0.48167 0.40965 0.0
C843 C 0.63647 0.49862 0.41159 0.0
C844 C 0.60902 0.50053 0.43426 0.0
C845 C 0.55216 0.53548 0.59619 0.0
C846 C 0.54039 0.55357 0.58512 0.0
C847 C 0.55626 0.52003 0.57567 0.0
C848 C 0.54891 0.52243 0.54376 0.0
C849 C 0.53947 0.54071 0.53227 0.0
C850 C 0.53501 0.55619 0.55286 0.0
C851 C 0.54733 0.50548 0.52308 0.0
C852 C 0.57319 0.50345 0.49905 0.0
C853 C 0.5206 0.49115 0.52758 0.0
C854 C 0.4922 0.49276 0.55232 0.0
C855 C 0.46766 0.50854 0.55304 0.0
C856 C 0.4413 0.51008 0.57669 0.0
C857 C 0.43902 0.49584 0.59959 0.0
C858 C 0.46302 0.48 0.59882 0.0
C859 C 0.48947 0.47841 0.57525 0.0
H860 H 0.4186 0.49706 0.61788 0.0
H861 H 0.67862 0.48024 0.39209 0.0
H862 H 0.46985 0.90999 0.54177 0.0
H863 H 0.45662 0.93393 0.50124 0.0
H864 H 0.46127 0.97907 0.57044 0.0
H865 H 0.47304 0.95524 0.61106 0.0
H866 H 0.40941 0.98724 0.53002 0.0
H867 H 0.53658 0.96651 0.52395 0.0
H868 H 0.58732 0.94289 0.51841 0.0
H869 H 0.54558 0.92605 0.42856 0.0
H870 H 0.49432 0.94943 0.43376 0.0
H871 H 0.47838 0.0671 0.44472 0.0
H872 H 0.46562 0.04035 0.48001 0.0
H873 H 0.44506 0.00348 0.40086 0.0
H874 H 0.45757 0.03012 0.36542 0.0
H875 H 0.49761 0.98907 0.44178 0.0
H876 H 0.37534 0.01497 0.44626 0.0
H877 H 0.32793 0.04025 0.45311 0.0
H878 H 0.36408 0.04935 0.54756 0.0
H879 H 0.41209 0.02431 0.54114 0.0
C880 C 0.46761 0.925 0.54834 0.0
C881 C 0.47287 0.93078 0.57948 0.0
C882 C 0.46013 0.93866 0.52518 0.0
C883 C 0.45862 0.95832 0.53274 0.0
C884 C 0.46232 0.96399 0.56405 0.0
C885 C 0.46924 0.95035 0.58723 0.0
C886 C 0.45575 0.97317 0.50801 0.0
C887 C 0.42876 0.98769 0.51077 0.0
C888 C 0.48059 0.97357 0.48259 0.0
C889 C 0.5114 0.95953 0.47941 0.0
C890 C 0.53809 0.95766 0.50312 0.0
C891 C 0.56696 0.94434 0.50002 0.0
C892 C 0.5696 0.93293 0.47319 0.0
C893 C 0.54345 0.93487 0.44936 0.0
C894 C 0.51449 0.94815 0.45236 0.0
C895 C 0.47053 0.05339 0.43486 0.0
C896 C 0.46925 0.05066 0.40233 0.0
C897 C 0.46307 0.03816 0.45503 0.0
C898 C 0.45431 0.01999 0.44296 0.0
C899 C 0.45171 0.01743 0.41055 0.0
C900 C 0.45886 0.03267 0.39038 0.0
C901 C 0.45168 0.00328 0.46407 0.0
C902 C 0.47778 0.98843 0.46067 0.0
C903 C 0.42645 0.0028 0.48912 0.0
C904 C 0.39751 0.01784 0.49312 0.0
C905 C 0.37339 0.02246 0.46841 0.0
C906 C 0.34636 0.03673 0.47224 0.0
C907 C 0.34304 0.04643 0.50073 0.0
C908 C 0.3667 0.04184 0.52549 0.0
C909 C 0.39379 0.02758 0.52178 0.0
H910 H 0.32209 0.05747 0.50365 0.0
H911 H 0.59198 0.92263 0.47084 0.0
loop_
_geom_bond_atom_site_label_1
_geom_bond_atom_site_label_2
_geom_bond_distance
_geom_bond_site_symmetry_2
_ccdc_geom_bond_type
C0 O1 1.306 . S
C0 O3 1.160 . S
O1 C0 1.306 . S
O1 Cd2 2.228 . S
Cd2 O1 2.228 . S
Cd2 O6 2.273 1_455 S
Cd2 O10 2.277 . S
O3 C0 1.160 . S
O3 Cd4 2.203 . S
Cd4 O3 2.203 . S
Cd4 O6 2.411 1_455 S
Cd4 O7 2.333 1_455 S
Cd4 O8 2.352 . S
Cd4 O12 2.277 . S
Cd4 O13 2.356 . S
C5 O10 1.209 . S
C5 O12 1.226 . S
O6 Cd2 2.273 1_655 S
O6 Cd4 2.411 1_655 S
O6 C9 1.320 . S
O7 Cd4 2.333 1_655 S
O7 C9 1.214 . S
O8 Cd4 2.352 . S
O8 C11 1.258 . S
C9 O6 1.320 . S
C9 O7 1.214 . S
O10 Cd2 2.277 . S
O10 C5 1.209 . S
C11 O8 1.258 . S
C11 O13 1.282 . S
O12 Cd4 2.277 . S
O12 C5 1.226 . S
O13 Cd4 2.356 . S
O13 C11 1.282 . S
C14 O15 1.306 . S
C14 O17 1.160 . S
O15 C14 1.306 . S
O15 Cd16 2.228 1_655 S
Cd16 O15 2.228 1_455 S
Cd16 O20 2.273 . S
Cd16 O24 2.277 . S
O17 C14 1.160 . S
O17 Cd18 2.203 1_655 S
Cd18 O17 2.203 1_455 S
Cd18 O20 2.411 . S
Cd18 O21 2.333 . S
Cd18 O22 2.352 . S
Cd18 O26 2.277 . S
Cd18 O27 2.356 . S
C19 O24 1.209 . S
C19 O26 1.226 . S
O20 Cd16 2.273 . S
O20 Cd18 2.411 . S
O20 C23 1.320 . S
O21 Cd18 2.333 . S
O21 C23 1.214 . S
O22 Cd18 2.352 . S
O22 C25 1.258 . S
C23 O20 1.320 . S
C23 O21 1.214 . S
O24 Cd16 2.277 . S
O24 C19 1.209 . S
C25 O22 1.258 . S
C25 O27 1.282 . S
O26 Cd18 2.277 . S
O26 C19 1.226 . S
O27 Cd18 2.356 . S
O27 C25 1.282 . S
C28 O29 1.306 . S
C28 O31 1.160 . S
O29 C28 1.306 . S
O29 Cd30 2.228 . S
Cd30 O29 2.228 . S
Cd30 O34 2.273 1_455 S
Cd30 O38 2.277 . S
O31 C28 1.160 . S
O31 Cd32 2.203 . S
Cd32 O31 2.203 . S
Cd32 O34 2.411 1_455 S
Cd32 O35 2.333 1_455 S
Cd32 O36 2.352 . S
Cd32 O40 2.277 . S
Cd32 O41 2.356 . S
C33 O38 1.209 . S
C33 O40 1.226 . S
O34 Cd30 2.273 1_655 S
O34 Cd32 2.411 1_655 S
O34 C37 1.320 . S
O35 Cd32 2.333 1_655 S
O35 C37 1.214 . S
O36 Cd32 2.352 . S
O36 C39 1.258 . S
C37 O34 1.320 . S
C37 O35 1.214 . S
O38 Cd30 2.277 . S
O38 C33 1.209 . S
C39 O36 1.258 . S
C39 O41 1.282 . S
O40 Cd32 2.277 . S
O40 C33 1.226 . S
O41 Cd32 2.356 . S
O41 C39 1.282 . S
C42 O43 1.306 . S
C42 O45 1.160 . S
O43 C42 1.306 . S
O43 Cd44 2.228 1_655 S
Cd44 O43 2.228 1_455 S
Cd44 O48 2.273 . S
Cd44 O52 2.277 . S
O45 C42 1.160 . S
O45 Cd46 2.203 1_655 S
Cd46 O45 2.203 1_455 S
Cd46 O48 2.411 . S
Cd46 O49 2.333 . S
Cd46 O50 2.352 . S
Cd46 O54 2.277 . S
Cd46 O55 2.356 . S
C47 O52 1.209 . S
C47 O54 1.226 . S
O48 Cd44 2.273 . S
O48 Cd46 2.411 . S
O48 C51 1.320 . S
O49 Cd46 2.333 . S
O49 C51 1.214 . S
O50 Cd46 2.352 . S
O50 C53 1.258 . S
C51 O48 1.320 . S
C51 O49 1.214 . S
O52 Cd44 2.277 . S
O52 C47 1.209 . S
C53 O50 1.258 . S
C53 O55 1.282 . S
O54 Cd46 2.277 . S
O54 C47 1.226 . S
O55 Cd46 2.356 . S
O55 C53 1.282 . S
C56 O57 1.306 . S
C56 O59 1.160 . S
O57 C56 1.306 . S
O57 Cd58 2.228 . S
Cd58 O57 2.228 . S
Cd58 O62 2.273 . S
Cd58 O66 2.277 . S
O59 C56 1.160 . S
O59 Cd60 2.203 . S
Cd60 O59 2.203 . S
Cd60 O62 2.411 . S
Cd60 O63 2.333 . S
Cd60 O64 2.352 . S
Cd60 O68 2.277 . S
Cd60 O69 2.356 . S
C61 O66 1.209 . S
C61 O68 1.226 . S
O62 Cd58 2.273 . S
O62 Cd60 2.411 . S
O62 C65 1.320 . S
O63 Cd60 2.333 . S
O63 C65 1.214 . S
O64 Cd60 2.352 . S
O64 C67 1.258 . S
C65 O62 1.320 . S
C65 O63 1.214 . S
O66 Cd58 2.277 . S
O66 C61 1.209 . S
C67 O64 1.258 . S
C67 O69 1.282 . S
O68 Cd60 2.277 . S
O68 C61 1.226 . S
O69 Cd60 2.356 . S
O69 C67 1.282 . S
C70 O71 1.306 . S
C70 O73 1.160 . S
O71 C70 1.306 . S
O71 Cd72 2.228 . S
Cd72 O71 2.228 . S
Cd72 O76 2.273 . S
Cd72 O80 2.277 . S
O73 C70 1.160 . S
O73 Cd74 2.203 . S
Cd74 O73 2.203 . S
Cd74 O76 2.411 . S
Cd74 O77 2.333 . S
Cd74 O78 2.352 . S
Cd74 O82 2.277 . S
Cd74 O83 2.356 . S
C75 O80 1.209 . S
C75 O82 1.226 . S
O76 Cd72 2.273 . S
O76 Cd74 2.411 . S
O76 C79 1.320 . S
O77 Cd74 2.333 . S
O77 C79 1.214 . S
O78 Cd74 2.352 . S
O78 C81 1.258 . S
C79 O76 1.320 . S
C79 O77 1.214 . S
O80 Cd72 2.277 . S
O80 C75 1.209 . S
C81 O78 1.258 . S
C81 O83 1.282 . S
O82 Cd74 2.277 . S
O82 C75 1.226 . S
O83 Cd74 2.356 . S
O83 C81 1.282 . S
C84 O85 1.306 . S
C84 O87 1.160 . S
O85 C84 1.306 . S
O85 Cd86 2.228 . S
Cd86 O85 2.228 . S
Cd86 O90 2.273 . S
Cd86 O94 2.277 . S
O87 C84 1.160 . S
O87 Cd88 2.203 . S
Cd88 O87 2.203 . S
Cd88 O90 2.411 . S
Cd88 O91 2.333 . S
Cd88 O92 2.352 . S
Cd88 O96 2.277 . S
Cd88 O97 2.356 . S
C89 O94 1.209 . S
C89 O96 1.226 . S
O90 Cd86 2.273 . S
O90 Cd88 2.411 . S
O90 C93 1.320 . S
O91 Cd88 2.333 . S
O91 C93 1.214 . S
O92 Cd88 2.352 . S
O92 C95 1.258 . S
C93 O90 1.320 . S
C93 O91 1.214 . S
O94 Cd86 2.277 . S
O94 C89 1.209 . S
C95 O92 1.258 . S
C95 O97 1.282 . S
O96 Cd88 2.277 . S
O96 C89 1.226 . S
O97 Cd88 2.356 . S
O97 C95 1.282 . S
C98 O99 1.306 . S
C98 O101 1.160 . S
O99 C98 1.306 . S
O99 Cd100 2.228 . S
Cd100 O99 2.228 . S
Cd100 O104 2.273 . S
Cd100 O108 2.277 . S
O101 C98 1.160 . S
O101 Cd102 2.203 . S
Cd102 O101 2.203 . S
Cd102 O104 2.411 . S
Cd102 O105 2.333 . S
Cd102 O106 2.352 . S
Cd102 O110 2.277 . S
Cd102 O111 2.356 . S
C103 O108 1.209 . S
C103 O110 1.226 . S
O104 Cd100 2.273 . S
O104 Cd102 2.411 . S
O104 C107 1.320 . S
O105 Cd102 2.333 . S
O105 C107 1.214 . S
O106 Cd102 2.352 . S
O106 C109 1.258 . S
C107 O104 1.320 . S
C107 O105 1.214 . S
O108 Cd100 2.277 . S
O108 C103 1.209 . S
C109 O106 1.258 . S
C109 O111 1.282 . S
O110 Cd102 2.277 . S
O110 C103 1.226 . S
O111 Cd102 2.356 . S
O111 C109 1.282 . S
H112 C130 0.951 . S
H113 C132 0.951 . S
H114 C134 0.950 . S
H115 C135 0.950 . S
H116 C137 0.950 . S
H117 C140 0.950 . S
H118 C141 0.950 . S
H119 C143 0.950 . S
H120 C144 0.950 . S
H121 C145 0.951 . S
H122 C147 0.951 . S
H123 C149 0.950 . S
H124 C150 0.950 . S
H125 C152 0.950 . S
H126 C155 0.950 . S
H127 C156 0.950 . S
H128 C158 0.950 . S
H129 C159 0.950 . S
C130 H112 0.951 . S
C130 C131 1.366 1_655 S
C130 C132 1.388 . S
C131 C130 1.366 1_455 S
C131 C135 1.385 . S
C132 H113 0.951 . S
C132 C130 1.388 . S
C132 C133 1.366 1_655 S
C133 C132 1.366 1_455 S
C133 C134 1.414 . S
C133 C136 1.499 . S
C134 H114 0.950 . S
C134 C133 1.414 . S
C134 C135 1.374 . S
C135 H115 0.950 . S
C135 C131 1.385 . S
C135 C134 1.374 . S
C136 C133 1.499 . S
C136 C137 1.373 . S
C136 C138 1.389 1_455 S
C137 H116 0.950 . S
C137 C136 1.373 . S
C137 C153 1.377 . S
C138 C136 1.389 1_655 S
C138 C139 1.524 . S
C138 C152 1.377 . S
C139 C138 1.524 . S
C139 C140 1.397 . S
C139 C144 1.363 . S
C140 H117 0.950 . S
C140 C139 1.397 . S
C140 C141 1.334 . S
C141 H118 0.950 . S
C141 C140 1.334 . S
C141 C142 1.287 . S
C142 C141 1.287 . S
C142 C143 1.524 . S
C142 H161 0.913 . S
C143 H119 0.950 . S
C143 C142 1.524 . S
C143 C144 1.415 . S
C144 H120 0.950 . S
C144 C139 1.363 . S
C144 C143 1.415 . S
C145 H121 0.951 . S
C145 C146 1.366 . S
C145 C147 1.388 . S
C146 C145 1.366 . S
C146 C150 1.385 1_455 S
C147 H122 0.951 . S
C147 C145 1.388 . S
C147 C148 1.366 . S
C148 C147 1.366 . S
C148 C149 1.414 1_455 S
C148 C151 1.499 . S
C149 H123 0.950 . S
C149 C148 1.414 1_655 S
C149 C150 1.374 . S
C150 H124 0.950 . S
C150 C146 1.385 1_655 S
C150 C149 1.374 . S
C151 C148 1.499 . S
C151 C152 1.373 1_455 S
C151 C153 1.389 . S
C152 H125 0.950 . S
C152 C138 1.377 . S
C152 C151 1.373 1_655 S
C153 C137 1.377 . S
C153 C151 1.389 . S
C153 C154 1.524 . S
C154 C153 1.524 . S
C154 C155 1.397 . S
C154 C159 1.363 . S
C155 H126 0.950 . S
C155 C154 1.397 . S
C155 C156 1.334 . S
C156 H127 0.950 . S
C156 C155 1.334 . S
C156 C157 1.287 . S
C157 C156 1.287 . S
C157 C158 1.524 . S
C157 H160 0.999 . S
C158 H128 0.950 . S
C158 C157 1.524 . S
C158 C159 1.415 . S
C159 H129 0.950 . S
C159 C154 1.363 . S
C159 C158 1.415 . S
H160 C157 0.999 . S
H161 C142 0.913 . S
H162 C180 0.951 . S
H163 C182 0.951 . S
H164 C184 0.950 . S
H165 C185 0.950 . S
H166 C187 0.950 . S
H167 C190 0.950 . S
H168 C191 0.950 . S
H169 C193 0.950 . S
H170 C194 0.950 . S
H171 C195 0.951 . S
H172 C197 0.951 . S
H173 C199 0.950 . S
H174 C200 0.950 . S
H175 C202 0.950 . S
H176 C205 0.950 . S
H177 C206 0.950 . S
H178 C208 0.950 . S
H179 C209 0.950 . S
C180 H162 0.951 . S
C180 C181 1.366 . S
C180 C182 1.388 . S
C181 C180 1.366 . S
C181 C185 1.385 . S
C182 H163 0.951 . S
C182 C180 1.388 . S
C182 C183 1.366 . S
C183 C182 1.366 . S
C183 C184 1.414 . S
C183 C186 1.499 . S
C184 H164 0.950 . S
C184 C183 1.414 . S
C184 C185 1.374 . S
C185 H165 0.950 . S
C185 C181 1.385 . S
C185 C184 1.374 . S
C186 C183 1.499 . S
C186 C187 1.373 . S
C186 C188 1.389 1_455 S
C187 H166 0.950 . S
C187 C186 1.373 . S
C187 C203 1.377 . S
C188 C186 1.389 1_655 S
C188 C189 1.524 . S
C188 C202 1.377 . S
C189 C188 1.524 . S
C189 C190 1.397 . S
C189 C194 1.363 . S
C190 H167 0.950 . S
C190 C189 1.397 . S
C190 C191 1.334 . S
C191 H168 0.950 . S
C191 C190 1.334 . S
C191 C192 1.287 . S
C192 C191 1.287 . S
C192 C193 1.524 . S
C192 H211 0.913 . S
C193 H169 0.950 . S
C193 C192 1.524 . S
C193 C194 1.415 . S
C194 H170 0.950 . S
C194 C189 1.363 . S
C194 C193 1.415 . S
C195 H171 0.951 . S
C195 C196 1.366 . S
C195 C197 1.388 . S
C196 C195 1.366 . S
C196 C200 1.385 . S
C197 H172 0.951 . S
C197 C195 1.388 . S
C197 C198 1.366 . S
C198 C197 1.366 . S
C198 C199 1.414 . S
C198 C201 1.499 . S
C199 H173 0.950 . S
C199 C198 1.414 . S
C199 C200 1.374 . S
C200 H174 0.950 . S
C200 C196 1.385 . S
C200 C199 1.374 . S
C201 C198 1.499 . S
C201 C202 1.373 1_455 S
C201 C203 1.389 . S
C202 H175 0.950 . S
C202 C188 1.377 . S
C202 C201 1.373 1_655 S
C203 C187 1.377 . S
C203 C201 1.389 . S
C203 C204 1.524 . S
C204 C203 1.524 . S
C204 C205 1.397 . S
C204 C209 1.363 . S
C205 H176 0.950 . S
C205 C204 1.397 . S
C205 C206 1.334 . S
C206 H177 0.950 . S
C206 C205 1.334 . S
C206 C207 1.287 . S
C207 C206 1.287 . S
C207 C208 1.524 . S
C207 H210 0.999 . S
C208 H178 0.950 . S
C208 C207 1.524 . S
C208 C209 1.415 . S
C209 H179 0.950 . S
C209 C204 1.363 . S
C209 C208 1.415 . S
H210 C207 0.999 . S
H211 C192 0.913 . S
H212 C230 0.951 . S
H213 C232 0.951 . S
H214 C234 0.950 . S
H215 C235 0.950 . S
H216 C237 0.950 . S
H217 C240 0.950 . S
H218 C241 0.950 . S
H219 C243 0.950 . S
H220 C244 0.950 . S
H221 C245 0.951 . S
H222 C247 0.951 . S
H223 C249 0.950 . S
H224 C250 0.950 . S
H225 C252 0.950 . S
H226 C255 0.950 . S
H227 C256 0.950 . S
H228 C258 0.950 . S
H229 C259 0.950 . S
C230 H212 0.951 . S
C230 C231 1.366 . S
C230 C232 1.388 . S
C231 C230 1.366 . S
C231 C235 1.385 . S
C232 H213 0.951 . S
C232 C230 1.388 . S
C232 C233 1.366 . S
C233 C232 1.366 . S
C233 C234 1.414 . S
C233 C236 1.499 . S
C234 H214 0.950 . S
C234 C233 1.414 . S
C234 C235 1.374 . S
C235 H215 0.950 . S
C235 C231 1.385 . S
C235 C234 1.374 . S
C236 C233 1.499 . S
C236 C237 1.373 . S
C236 C238 1.389 . S
C237 H216 0.950 . S
C237 C236 1.373 . S
C237 C253 1.377 . S
C238 C236 1.389 . S
C238 C239 1.524 . S
C238 C252 1.377 . S
C239 C238 1.524 . S
C239 C240 1.397 . S
C239 C244 1.363 . S
C240 H217 0.950 . S
C240 C239 1.397 . S
C240 C241 1.334 . S
C241 H218 0.950 . S
C241 C240 1.334 . S
C241 C242 1.287 . S
C242 C241 1.287 . S
C242 C243 1.524 . S
C242 H261 0.913 . S
C243 H219 0.950 . S
C243 C242 1.524 . S
C243 C244 1.415 . S
C244 H220 0.950 . S
C244 C239 1.363 . S
C244 C243 1.415 . S
C245 H221 0.951 . S
C245 C246 1.366 . S
C245 C247 1.388 . S
C246 C245 1.366 . S
C246 C250 1.385 . S
C247 H222 0.951 . S
C247 C245 1.388 . S
C247 C248 1.366 . S
C248 C247 1.366 . S
C248 C249 1.414 . S
C248 C251 1.499 . S
C249 H223 0.950 . S
C249 C248 1.414 . S
C249 C250 1.374 . S
C250 H224 0.950 . S
C250 C246 1.385 . S
C250 C249 1.374 . S
C251 C248 1.499 . S
C251 C252 1.373 . S
C251 C253 1.389 . S
C252 H225 0.950 . S
C252 C238 1.377 . S
C252 C251 1.373 . S
C253 C237 1.377 . S
C253 C251 1.389 . S
C253 C254 1.524 . S
C254 C253 1.524 . S
C254 C255 1.397 . S
C254 C259 1.363 . S
C255 H226 0.950 . S
C255 C254 1.397 . S
C255 C256 1.334 . S
C256 H227 0.950 . S
C256 C255 1.334 . S
C256 C257 1.287 . S
C257 C256 1.287 . S
C257 C258 1.524 . S
C257 H260 0.999 . S
C258 H228 0.950 . S
C258 C257 1.524 . S
C258 C259 1.415 . S
C259 H229 0.950 . S
C259 C254 1.363 . S
C259 C258 1.415 . S
H260 C257 0.999 . S
H261 C242 0.913 . S
H262 C280 0.951 . S
H263 C282 0.951 . S
H264 C284 0.950 . S
H265 C285 0.950 . S
H266 C287 0.950 . S
H267 C290 0.950 . S
H268 C291 0.950 . S
H269 C293 0.950 . S
H270 C294 0.950 . S
H271 C295 0.951 . S
H272 C297 0.951 . S
H273 C299 0.950 . S
H274 C300 0.950 . S
H275 C302 0.950 . S
H276 C305 0.950 . S
H277 C306 0.950 . S
H278 C308 0.950 . S
H279 C309 0.950 . S
C280 H262 0.951 . S
C280 C281 1.366 . S
C280 C282 1.388 . S
C281 C280 1.366 . S
C281 C285 1.385 . S
C282 H263 0.951 . S
C282 C280 1.388 . S
C282 C283 1.366 . S
C283 C282 1.366 . S
C283 C284 1.414 . S
C283 C286 1.499 . S
C284 H264 0.950 . S
C284 C283 1.414 . S
C284 C285 1.374 . S
C285 H265 0.950 . S
C285 C281 1.385 . S
C285 C284 1.374 . S
C286 C283 1.499 . S
C286 C287 1.373 . S
C286 C288 1.389 . S
C287 H266 0.950 . S
C287 C286 1.373 . S
C287 C303 1.377 . S
C288 C286 1.389 . S
C288 C289 1.524 . S
C288 C302 1.377 . S
C289 C288 1.524 . S
C289 C290 1.397 . S
C289 C294 1.363 . S
C290 H267 0.950 . S
C290 C289 1.397 . S
C290 C291 1.334 . S
C291 H268 0.950 . S
C291 C290 1.334 . S
C291 C292 1.287 . S
C292 C291 1.287 . S
C292 C293 1.524 . S
C292 H311 0.913 . S
C293 H269 0.950 . S
C293 C292 1.524 . S
C293 C294 1.415 . S
C294 H270 0.950 . S
C294 C289 1.363 . S
C294 C293 1.415 . S
C295 H271 0.951 . S
C295 C296 1.366 . S
C295 C297 1.388 . S
C296 C295 1.366 . S
C296 C300 1.385 . S
C297 H272 0.951 . S
C297 C295 1.388 . S
C297 C298 1.366 . S
C298 C297 1.366 . S
C298 C299 1.414 . S
C298 C301 1.499 . S
C299 H273 0.950 . S
C299 C298 1.414 . S
C299 C300 1.374 . S
C300 H274 0.950 . S
C300 C296 1.385 . S
C300 C299 1.374 . S
C301 C298 1.499 . S
C301 C302 1.373 . S
C301 C303 1.389 . S
C302 H275 0.950 . S
C302 C288 1.377 . S
C302 C301 1.373 . S
C303 C287 1.377 . S
C303 C301 1.389 . S
C303 C304 1.524 . S
C304 C303 1.524 . S
C304 C305 1.397 . S
C304 C309 1.363 . S
C305 H276 0.950 . S
C305 C304 1.397 . S
C305 C306 1.334 . S
C306 H277 0.950 . S
C306 C305 1.334 . S
C306 C307 1.287 . S
C307 C306 1.287 . S
C307 C308 1.524 . S
C307 H310 0.999 . S
C308 H278 0.950 . S
C308 C307 1.524 . S
C308 C309 1.415 . S
C309 H279 0.950 . S
C309 C304 1.363 . S
C309 C308 1.415 . S
H310 C307 0.999 . S
H311 C292 0.913 . S
H312 C330 0.951 . S
H313 C332 0.951 . S
H314 C334 0.950 . S
H315 C335 0.950 . S
H316 C337 0.950 . S
H317 C340 0.950 . S
H318 C341 0.950 . S
H319 C343 0.950 . S
H320 C344 0.950 . S
H321 C345 0.951 . S
H322 C347 0.951 . S
H323 C349 0.950 . S
H324 C350 0.950 . S
H325 C352 0.950 . S
H326 C355 0.950 . S
H327 C356 0.950 . S
H328 C358 0.950 . S
H329 C359 0.950 . S
C330 H312 0.951 . S
C330 C331 1.366 . S
C330 C332 1.388 . S
C331 C330 1.366 . S
C331 C335 1.385 . S
C332 H313 0.951 . S
C332 C330 1.388 . S
C332 C333 1.366 . S
C333 C332 1.366 . S
C333 C334 1.414 . S
C333 C336 1.499 . S
C334 H314 0.950 . S
C334 C333 1.414 . S
C334 C335 1.374 . S
C335 H315 0.950 . S
C335 C331 1.385 . S
C335 C334 1.374 . S
C336 C333 1.499 . S
C336 C337 1.373 . S
C336 C338 1.389 . S
C337 H316 0.950 . S
C337 C336 1.373 . S
C337 C353 1.377 . S
C338 C336 1.389 . S
C338 C339 1.524 . S
C338 C352 1.377 . S
C339 C338 1.524 . S
C339 C340 1.397 . S
C339 C344 1.363 . S
C340 H317 0.950 . S
C340 C339 1.397 . S
C340 C341 1.334 . S
C341 H318 0.950 . S
C341 C340 1.334 . S
C341 C342 1.287 . S
C342 C341 1.287 . S
C342 C343 1.524 . S
C342 H361 0.913 . S
C343 H319 0.950 . S
C343 C342 1.524 . S
C343 C344 1.415 . S
C344 H320 0.950 . S
C344 C339 1.363 . S
C344 C343 1.415 . S
C345 H321 0.951 . S
C345 C346 1.366 . S
C345 C347 1.388 . S
C346 C345 1.366 . S
C346 C350 1.385 . S
C347 H322 0.951 . S
C347 C345 1.388 . S
C347 C348 1.366 . S
C348 C347 1.366 . S
C348 C349 1.414 . S
C348 C351 1.499 . S
C349 H323 0.950 . S
C349 C348 1.414 . S
C349 C350 1.374 . S
C350 H324 0.950 . S
C350 C346 1.385 . S
C350 C349 1.374 . S
C351 C348 1.499 . S
C351 C352 1.373 . S
C351 C353 1.389 . S
C352 H325 0.950 . S
C352 C338 1.377 . S
C352 C351 1.373 . S
C353 C337 1.377 . S
C353 C351 1.389 . S
C353 C354 1.524 . S
C354 C353 1.524 . S
C354 C355 1.397 . S
C354 C359 1.363 . S
C355 H326 0.950 . S
C355 C354 1.397 . S
C355 C356 1.334 . S
C356 H327 0.950 . S
C356 C355 1.334 . S
C356 C357 1.287 . S
C357 C356 1.287 . S
C357 C358 1.524 . S
C357 H360 0.999 . S
C358 H328 0.950 . S
C358 C357 1.524 . S
C358 C359 1.415 . S
C359 H329 0.950 . S
C359 C354 1.363 . S
C359 C358 1.415 . S
H360 C357 0.999 . S
H361 C342 0.913 . S
H362 C380 0.951 . S
H363 C382 0.951 . S
H364 C384 0.950 . S
H365 C385 0.950 . S
H366 C387 0.950 . S
H367 C390 0.950 . S
H368 C391 0.950 . S
H369 C393 0.950 . S
H370 C394 0.950 . S
H371 C395 0.951 . S
H372 C397 0.951 . S
H373 C399 0.950 . S
H374 C400 0.950 . S
H375 C402 0.950 . S
H376 C405 0.950 . S
H377 C406 0.950 . S
H378 C408 0.950 . S
H379 C409 0.950 . S
C380 H362 0.951 . S
C380 C381 1.366 . S
C380 C382 1.388 . S
C381 C380 1.366 . S
C381 C385 1.385 . S
C382 H363 0.951 . S
C382 C380 1.388 . S
C382 C383 1.366 . S
C383 C382 1.366 . S
C383 C384 1.414 . S
C383 C386 1.499 . S
C384 H364 0.950 . S
C384 C383 1.414 . S
C384 C385 1.374 . S
C385 H365 0.950 . S
C385 C381 1.385 . S
C385 C384 1.374 . S
C386 C383 1.499 . S
C386 C387 1.373 . S
C386 C388 1.389 . S
C387 H366 0.950 . S
C387 C386 1.373 . S
C387 C403 1.377 . S
C388 C386 1.389 . S
C388 C389 1.524 . S
C388 C402 1.377 . S
C389 C388 1.524 . S
C389 C390 1.397 . S
C389 C394 1.363 . S
C390 H367 0.950 . S
C390 C389 1.397 . S
C390 C391 1.334 . S
C391 H368 0.950 . S
C391 C390 1.334 . S
C391 C392 1.287 . S
C392 C391 1.287 . S
C392 C393 1.524 . S
C392 H411 0.913 . S
C393 H369 0.950 . S
C393 C392 1.524 . S
C393 C394 1.415 . S
C394 H370 0.950 . S
C394 C389 1.363 . S
C394 C393 1.415 . S
C395 H371 0.951 . S
C395 C396 1.366 . S
C395 C397 1.388 . S
C396 C395 1.366 . S
C396 C400 1.385 . S
C397 H372 0.951 . S
C397 C395 1.388 . S
C397 C398 1.366 . S
C398 C397 1.366 . S
C398 C399 1.414 . S
C398 C401 1.499 . S
C399 H373 0.950 . S
C399 C398 1.414 . S
C399 C400 1.374 . S
C400 H374 0.950 . S
C400 C396 1.385 . S
C400 C399 1.374 . S
C401 C398 1.499 . S
C401 C402 1.373 . S
C401 C403 1.389 . S
C402 H375 0.950 . S
C402 C388 1.377 . S
C402 C401 1.373 . S
C403 C387 1.377 . S
C403 C401 1.389 . S
C403 C404 1.524 . S
C404 C403 1.524 . S
C404 C405 1.397 . S
C404 C409 1.363 . S
C405 H376 0.950 . S
C405 C404 1.397 . S
C405 C406 1.334 . S
C406 H377 0.950 . S
C406 C405 1.334 . S
C406 C407 1.287 . S
C407 C406 1.287 . S
C407 C408 1.524 . S
C407 H410 0.999 . S
C408 H378 0.950 . S
C408 C407 1.524 . S
C408 C409 1.415 . S
C409 H379 0.950 . S
C409 C404 1.363 . S
C409 C408 1.415 . S
H410 C407 0.999 . S
H411 C392 0.913 . S
H412 C430 0.951 . S
H413 C432 0.951 . S
H414 C434 0.950 . S
H415 C435 0.950 . S
H416 C437 0.950 . S
H417 C440 0.950 . S
H418 C441 0.950 . S
H419 C443 0.950 . S
H420 C444 0.950 . S
H421 C445 0.951 . S
H422 C447 0.951 . S
H423 C449 0.950 . S
H424 C450 0.950 . S
H425 C452 0.950 . S
H426 C455 0.950 . S
H427 C456 0.950 . S
H428 C458 0.950 . S
H429 C459 0.950 . S
C430 H412 0.951 . S
C430 C431 1.366 . S
C430 C432 1.388 . S
C431 C430 1.366 . S
C431 C435 1.385 . S
C432 H413 0.951 . S
C432 C430 1.388 . S
C432 C433 1.366 . S
C433 C432 1.366 . S
C433 C434 1.414 . S
C433 C436 1.499 . S
C434 H414 0.950 . S
C434 C433 1.414 . S
C434 C435 1.374 . S
C435 H415 0.950 . S
C435 C431 1.385 . S
C435 C434 1.374 . S
C436 C433 1.499 . S
C436 C437 1.373 . S
C436 C438 1.389 . S
C437 H416 0.950 . S
C437 C436 1.373 . S
C437 C453 1.377 . S
C438 C436 1.389 . S
C438 C439 1.524 . S
C438 C452 1.377 . S
C439 C438 1.524 . S
C439 C440 1.397 . S
C439 C444 1.363 . S
C440 H417 0.950 . S
C440 C439 1.397 . S
C440 C441 1.334 . S
C441 H418 0.950 . S
C441 C440 1.334 . S
C441 C442 1.287 . S
C442 C441 1.287 . S
C442 C443 1.524 . S
C442 H461 0.913 . S
C443 H419 0.950 . S
C443 C442 1.524 . S
C443 C444 1.415 . S
C444 H420 0.950 . S
C444 C439 1.363 . S
C444 C443 1.415 . S
C445 H421 0.951 . S
C445 C446 1.366 . S
C445 C447 1.388 . S
C446 C445 1.366 . S
C446 C450 1.385 . S
C447 H422 0.951 . S
C447 C445 1.388 . S
C447 C448 1.366 . S
C448 C447 1.366 . S
C448 C449 1.414 . S
C448 C451 1.499 . S
C449 H423 0.950 . S
C449 C448 1.414 . S
C449 C450 1.374 . S
C450 H424 0.950 . S
C450 C446 1.385 . S
C450 C449 1.374 . S
C451 C448 1.499 . S
C451 C452 1.373 . S
C451 C453 1.389 . S
C452 H425 0.950 . S
C452 C438 1.377 . S
C452 C451 1.373 . S
C453 C437 1.377 . S
C453 C451 1.389 . S
C453 C454 1.524 . S
C454 C453 1.524 . S
C454 C455 1.397 . S
C454 C459 1.363 . S
C455 H426 0.950 . S
C455 C454 1.397 . S
C455 C456 1.334 . S
C456 H427 0.950 . S
C456 C455 1.334 . S
C456 C457 1.287 . S
C457 C456 1.287 . S
C457 C458 1.524 . S
C457 H460 0.999 . S
C458 H428 0.950 . S
C458 C457 1.524 . S
C458 C459 1.415 . S
C459 H429 0.950 . S
C459 C454 1.363 . S
C459 C458 1.415 . S
H460 C457 0.999 . S
H461 C442 0.913 . S
H462 C480 0.951 . S
H463 C482 0.951 . S
H464 C484 0.950 . S
H465 C485 0.950 . S
H466 C487 0.950 . S
H467 C490 0.950 . S
H468 C491 0.950 . S
H469 C493 0.950 . S
H470 C494 0.950 . S
H471 C495 0.951 . S
H472 C497 0.951 . S
H473 C499 0.950 . S
H474 C500 0.950 . S
H475 C502 0.950 . S
H476 C505 0.950 . S
H477 C506 0.950 . S
H478 C508 0.950 . S
H479 C509 0.950 . S
C480 H462 0.951 . S
C480 C481 1.366 . S
C480 C482 1.388 . S
C481 C480 1.366 . S
C481 C485 1.385 . S
C482 H463 0.951 . S
C482 C480 1.388 . S
C482 C483 1.366 . S
C483 C482 1.366 . S
C483 C484 1.414 . S
C483 C486 1.499 . S
C484 H464 0.950 . S
C484 C483 1.414 . S
C484 C485 1.374 . S
C485 H465 0.950 . S
C485 C481 1.385 . S
C485 C484 1.374 . S
C486 C483 1.499 . S
C486 C487 1.373 . S
C486 C488 1.389 . S
C487 H466 0.950 . S
C487 C486 1.373 . S
C487 C503 1.377 . S
C488 C486 1.389 . S
C488 C489 1.524 . S
C488 C502 1.377 . S
C489 C488 1.524 . S
C489 C490 1.397 . S
C489 C494 1.363 . S
C490 H467 0.950 . S
C490 C489 1.397 . S
C490 C491 1.334 . S
C491 H468 0.950 . S
C491 C490 1.334 . S
C491 C492 1.287 . S
C492 C491 1.287 . S
C492 C493 1.524 . S
C492 H511 0.913 . S
C493 H469 0.950 . S
C493 C492 1.524 . S
C493 C494 1.415 . S
C494 H470 0.950 . S
C494 C489 1.363 . S
C494 C493 1.415 . S
C495 H471 0.951 . S
C495 C496 1.366 . S
C495 C497 1.388 . S
C496 C495 1.366 . S
C496 C500 1.385 . S
C497 H472 0.951 . S
C497 C495 1.388 . S
C497 C498 1.366 . S
C498 C497 1.366 . S
C498 C499 1.414 . S
C498 C501 1.499 . S
C499 H473 0.950 . S
C499 C498 1.414 . S
C499 C500 1.374 . S
C500 H474 0.950 . S
C500 C496 1.385 . S
C500 C499 1.374 . S
C501 C498 1.499 . S
C501 C502 1.373 . S
C501 C503 1.389 . S
C502 H475 0.950 . S
C502 C488 1.377 . S
C502 C501 1.373 . S
C503 C487 1.377 . S
C503 C501 1.389 . S
C503 C504 1.524 . S
C504 C503 1.524 . S
C504 C505 1.397 . S
C504 C509 1.363 . S
C505 H476 0.950 . S
C505 C504 1.397 . S
C505 C506 1.334 . S
C506 H477 0.950 . S
C506 C505 1.334 . S
C506 C507 1.287 . S
C507 C506 1.287 . S
C507 C508 1.524 . S
C507 H510 0.999 . S
C508 H478 0.950 . S
C508 C507 1.524 . S
C508 C509 1.415 . S
C509 H479 0.950 . S
C509 C504 1.363 . S
C509 C508 1.415 . S
H510 C507 0.999 . S
H511 C492 0.913 . S
H512 C530 0.951 . S
H513 C532 0.951 . S
H514 C534 0.950 . S
H515 C535 0.950 . S
H516 C537 0.950 . S
H517 C540 0.950 . S
H518 C541 0.950 . S
H519 C543 0.950 . S
H520 C544 0.950 . S
H521 C545 0.951 . S
H522 C547 0.951 . S
H523 C549 0.950 . S
H524 C550 0.950 . S
H525 C552 0.950 . S
H526 C555 0.950 . S
H527 C556 0.950 . S
H528 C558 0.950 . S
H529 C559 0.950 . S
C530 H512 0.951 . S
C530 C531 1.366 . S
C530 C532 1.388 . S
C531 C530 1.366 . S
C531 C535 1.385 . S
C532 H513 0.951 . S
C532 C530 1.388 . S
C532 C533 1.366 . S
C533 C532 1.366 . S
C533 C534 1.414 . S
C533 C536 1.499 . S
C534 H514 0.950 . S
C534 C533 1.414 . S
C534 C535 1.374 . S
C535 H515 0.950 . S
C535 C531 1.385 . S
C535 C534 1.374 . S
C536 C533 1.499 . S
C536 C537 1.373 . S
C536 C538 1.389 . S
C537 H516 0.950 . S
C537 C536 1.373 . S
C537 C553 1.377 . S
C538 C536 1.389 . S
C538 C539 1.524 . S
C538 C552 1.377 . S
C539 C538 1.524 . S
C539 C540 1.397 . S
C539 C544 1.363 . S
C540 H517 0.950 . S
C540 C539 1.397 . S
C540 C541 1.334 . S
C541 H518 0.950 . S
C541 C540 1.334 . S
C541 C542 1.287 . S
C542 C541 1.287 . S
C542 C543 1.524 . S
C542 H561 0.913 . S
C543 H519 0.950 . S
C543 C542 1.524 . S
C543 C544 1.415 . S
C544 H520 0.950 . S
C544 C539 1.363 . S
C544 C543 1.415 . S
C545 H521 0.951 . S
C545 C546 1.366 . S
C545 C547 1.388 . S
C546 C545 1.366 . S
C546 C550 1.385 . S
C547 H522 0.951 . S
C547 C545 1.388 . S
C547 C548 1.366 . S
C548 C547 1.366 . S
C548 C549 1.414 . S
C548 C551 1.499 . S
C549 H523 0.950 . S
C549 C548 1.414 . S
C549 C550 1.374 . S
C550 H524 0.950 . S
C550 C546 1.385 . S
C550 C549 1.374 . S
C551 C548 1.499 . S
C551 C552 1.373 . S
C551 C553 1.389 . S
C552 H525 0.950 . S
C552 C538 1.377 . S
C552 C551 1.373 . S
C553 C537 1.377 . S
C553 C551 1.389 . S
C553 C554 1.524 . S
C554 C553 1.524 . S
C554 C555 1.397 . S
C554 C559 1.363 . S
C555 H526 0.950 . S
C555 C554 1.397 . S
C555 C556 1.334 . S
C556 H527 0.950 . S
C556 C555 1.334 . S
C556 C557 1.287 . S
C557 C556 1.287 . S
C557 C558 1.524 . S
C557 H560 0.999 . S
C558 H528 0.950 . S
C558 C557 1.524 . S
C558 C559 1.415 . S
C559 H529 0.950 . S
C559 C554 1.363 . S
C559 C558 1.415 . S
H560 C557 0.999 . S
H561 C542 0.913 . S
H562 C580 0.951 . S
H563 C582 0.951 . S
H564 C584 0.950 . S
H565 C585 0.950 . S
H566 C587 0.950 . S
H567 C590 0.950 . S
H568 C591 0.950 . S
H569 C593 0.950 . S
H570 C594 0.950 . S
H571 C595 0.951 . S
H572 C597 0.951 . S
H573 C599 0.950 . S
H574 C600 0.950 . S
H575 C602 0.950 . S
H576 C605 0.950 . S
H577 C606 0.950 . S
H578 C608 0.950 . S
H579 C609 0.950 . S
C580 H562 0.951 . S
C580 C581 1.366 . S
C580 C582 1.388 . S
C581 C580 1.366 . S
C581 C585 1.385 . S
C582 H563 0.951 . S
C582 C580 1.388 . S
C582 C583 1.366 . S
C583 C582 1.366 . S
C583 C584 1.414 . S
C583 C586 1.499 . S
C584 H564 0.950 . S
C584 C583 1.414 . S
C584 C585 1.374 . S
C585 H565 0.950 . S
C585 C581 1.385 . S
C585 C584 1.374 . S
C586 C583 1.499 . S
C586 C587 1.373 . S
C586 C588 1.389 . S
C587 H566 0.950 . S
C587 C586 1.373 . S
C587 C603 1.377 . S
C588 C586 1.389 . S
C588 C589 1.524 . S
C588 C602 1.377 . S
C589 C588 1.524 . S
C589 C590 1.397 . S
C589 C594 1.363 . S
C590 H567 0.950 . S
C590 C589 1.397 . S
C590 C591 1.334 . S
C591 H568 0.950 . S
C591 C590 1.334 . S
C591 C592 1.287 . S
C592 C591 1.287 . S
C592 C593 1.524 . S
C592 H611 0.913 . S
C593 H569 0.950 . S
C593 C592 1.524 . S
C593 C594 1.415 . S
C594 H570 0.950 . S
C594 C589 1.363 . S
C594 C593 1.415 . S
C595 H571 0.951 . S
C595 C596 1.366 . S
C595 C597 1.388 . S
C596 C595 1.366 . S
C596 C600 1.385 . S
C597 H572 0.951 . S
C597 C595 1.388 . S
C597 C598 1.366 . S
C598 C597 1.366 . S
C598 C599 1.414 . S
C598 C601 1.499 . S
C599 H573 0.950 . S
C599 C598 1.414 . S
C599 C600 1.374 . S
C600 H574 0.950 . S
C600 C596 1.385 . S
C600 C599 1.374 . S
C601 C598 1.499 . S
C601 C602 1.373 . S
C601 C603 1.389 . S
C602 H575 0.950 . S
C602 C588 1.377 . S
C602 C601 1.373 . S
C603 C587 1.377 . S
C603 C601 1.389 . S
C603 C604 1.524 . S
C604 C603 1.524 . S
C604 C605 1.397 . S
C604 C609 1.363 . S
C605 H576 0.950 . S
C605 C604 1.397 . S
C605 C606 1.334 . S
C606 H577 0.950 . S
C606 C605 1.334 . S
C606 C607 1.287 . S
C607 C606 1.287 . S
C607 C608 1.524 . S
C607 H610 0.999 . S
C608 H578 0.950 . S
C608 C607 1.524 . S
C608 C609 1.415 . S
C609 H579 0.950 . S
C609 C604 1.363 . S
C609 C608 1.415 . S
H610 C607 0.999 . S
H611 C592 0.913 . S
H612 C630 0.951 . S
H613 C632 0.951 . S
H614 C634 0.950 . S
H615 C635 0.950 . S
H616 C637 0.950 . S
H617 C640 0.950 . S
H618 C641 0.950 . S
H619 C643 0.950 . S
H620 C644 0.950 . S
H621 C645 0.951 . S
H622 C647 0.951 . S
H623 C649 0.950 . S
H624 C650 0.950 . S
H625 C652 0.950 . S
H626 C655 0.950 . S
H627 C656 0.950 . S
H628 C658 0.950 . S
H629 C659 0.950 . S
C630 H612 0.951 . S
C630 C631 1.366 . S
C630 C632 1.388 . S
C631 C630 1.366 . S
C631 C635 1.385 . S
C632 H613 0.951 . S
C632 C630 1.388 . S
C632 C633 1.366 . S
C633 C632 1.366 . S
C633 C634 1.414 . S
C633 C636 1.499 . S
C634 H614 0.950 . S
C634 C633 1.414 . S
C634 C635 1.374 . S
C635 H615 0.950 . S
C635 C631 1.385 . S
C635 C634 1.374 . S
C636 C633 1.499 . S
C636 C637 1.373 . S
C636 C638 1.389 . S
C637 H616 0.950 . S
C637 C636 1.373 . S
C637 C653 1.377 . S
C638 C636 1.389 . S
C638 C639 1.524 . S
C638 C652 1.377 . S
C639 C638 1.524 . S
C639 C640 1.397 . S
C639 C644 1.363 . S
C640 H617 0.950 . S
C640 C639 1.397 . S
C640 C641 1.334 . S
C641 H618 0.950 . S
C641 C640 1.334 . S
C641 C642 1.287 . S
C642 C641 1.287 . S
C642 C643 1.524 . S
C642 H661 0.913 . S
C643 H619 0.950 . S
C643 C642 1.524 . S
C643 C644 1.415 . S
C644 H620 0.950 . S
C644 C639 1.363 . S
C644 C643 1.415 . S
C645 H621 0.951 . S
C645 C646 1.366 . S
C645 C647 1.388 . S
C646 C645 1.366 . S
C646 C650 1.385 . S
C647 H622 0.951 . S
C647 C645 1.388 . S
C647 C648 1.366 . S
C648 C647 1.366 . S
C648 C649 1.414 . S
C648 C651 1.499 . S
C649 H623 0.950 . S
C649 C648 1.414 . S
C649 C650 1.374 . S
C650 H624 0.950 . S
C650 C646 1.385 . S
C650 C649 1.374 . S
C651 C648 1.499 . S
C651 C652 1.373 . S
C651 C653 1.389 . S
C652 H625 0.950 . S
C652 C638 1.377 . S
C652 C651 1.373 . S
C653 C637 1.377 . S
C653 C651 1.389 . S
C653 C654 1.524 . S
C654 C653 1.524 . S
C654 C655 1.397 . S
C654 C659 1.363 . S
C655 H626 0.950 . S
C655 C654 1.397 . S
C655 C656 1.334 . S
C656 H627 0.950 . S
C656 C655 1.334 . S
C656 C657 1.287 . S
C657 C656 1.287 . S
C657 C658 1.524 . S
C657 H660 0.999 . S
C658 H628 0.950 . S
C658 C657 1.524 . S
C658 C659 1.415 . S
C659 H629 0.950 . S
C659 C654 1.363 . S
C659 C658 1.415 . S
H660 C657 0.999 . S
H661 C642 0.913 . S
H662 C680 0.951 . S
H663 C682 0.951 . S
H664 C684 0.950 . S
H665 C685 0.950 . S
H666 C687 0.950 . S
H667 C690 0.950 . S
H668 C691 0.950 . S
H669 C693 0.950 . S
H670 C694 0.950 . S
H671 C695 0.951 . S
H672 C697 0.951 . S
H673 C699 0.950 . S
H674 C700 0.950 . S
H675 C702 0.950 . S
H676 C705 0.950 . S
H677 C706 0.950 . S
H678 C708 0.950 . S
H679 C709 0.950 . S
C680 H662 0.951 . S
C680 C681 1.366 . S
C680 C682 1.388 . S
C681 C680 1.366 . S
C681 C685 1.385 . S
C682 H663 0.951 . S
C682 C680 1.388 . S
C682 C683 1.366 . S
C683 C682 1.366 . S
C683 C684 1.414 . S
C683 C686 1.499 . S
C684 H664 0.950 . S
C684 C683 1.414 . S
C684 C685 1.374 . S
C685 H665 0.950 . S
C685 C681 1.385 . S
C685 C684 1.374 . S
C686 C683 1.499 . S
C686 C687 1.373 . S
C686 C688 1.389 . S
C687 H666 0.950 . S
C687 C686 1.373 . S
C687 C703 1.377 . S
C688 C686 1.389 . S
C688 C689 1.524 . S
C688 C702 1.377 . S
C689 C688 1.524 . S
C689 C690 1.397 . S
C689 C694 1.363 . S
C690 H667 0.950 . S
C690 C689 1.397 . S
C690 C691 1.334 . S
C691 H668 0.950 . S
C691 C690 1.334 . S
C691 C692 1.287 . S
C692 C691 1.287 . S
C692 C693 1.524 . S
C692 H711 0.913 . S
C693 H669 0.950 . S
C693 C692 1.524 . S
C693 C694 1.415 . S
C694 H670 0.950 . S
C694 C689 1.363 . S
C694 C693 1.415 . S
C695 H671 0.951 . S
C695 C696 1.366 . S
C695 C697 1.388 . S
C696 C695 1.366 . S
C696 C700 1.385 . S
C697 H672 0.951 . S
C697 C695 1.388 . S
C697 C698 1.366 . S
C698 C697 1.366 . S
C698 C699 1.414 . S
C698 C701 1.499 . S
C699 H673 0.950 . S
C699 C698 1.414 . S
C699 C700 1.374 . S
C700 H674 0.950 . S
C700 C696 1.385 . S
C700 C699 1.374 . S
C701 C698 1.499 . S
C701 C702 1.373 . S
C701 C703 1.389 . S
C702 H675 0.950 . S
C702 C688 1.377 . S
C702 C701 1.373 . S
C703 C687 1.377 . S
C703 C701 1.389 . S
C703 C704 1.524 . S
C704 C703 1.524 . S
C704 C705 1.397 . S
C704 C709 1.363 . S
C705 H676 0.950 . S
C705 C704 1.397 . S
C705 C706 1.334 . S
C706 H677 0.950 . S
C706 C705 1.334 . S
C706 C707 1.287 . S
C707 C706 1.287 . S
C707 C708 1.524 . S
C707 H710 0.999 . S
C708 H678 0.950 . S
C708 C707 1.524 . S
C708 C709 1.415 . S
C709 H679 0.950 . S
C709 C704 1.363 . S
C709 C708 1.415 . S
H710 C707 0.999 . S
H711 C692 0.913 . S
H712 C730 0.951 . S
H713 C732 0.951 . S
H714 C734 0.950 . S
H715 C735 0.950 . S
H716 C737 0.950 . S
H717 C740 0.960 . S
H718 C741 0.950 . S
H719 C743 0.950 . S
H720 C744 0.950 1_556 S
H721 C745 0.951 . S
H722 C747 0.951 . S
H723 C749 0.950 . S
H724 C750 0.950 . S
H725 C752 0.950 . S
H726 C755 0.960 . S
H727 C756 0.950 . S
H728 C758 0.950 . S
H729 C759 0.950 1_554 S
C730 H712 0.951 . S
C730 C731 1.366 1_655 S
C730 C732 1.388 . S
C731 C730 1.366 1_455 S
C731 C735 1.385 . S
C732 H713 0.951 . S
C732 C730 1.388 . S
C732 C733 1.366 1_655 S
C733 C732 1.366 1_455 S
C733 C734 1.414 . S
C733 C736 1.499 . S
C734 H714 0.950 . S
C734 C733 1.414 . S
C734 C735 1.374 . S
C735 H715 0.950 . S
C735 C731 1.385 . S
C735 C734 1.374 . S
C736 C733 1.499 . S
C736 C737 1.373 . S
C736 C738 1.389 1_455 S
C737 H716 0.950 . S
C737 C736 1.373 . S
C737 C753 1.377 1_544 S
C738 C736 1.389 1_655 S
C738 C739 1.524 . S
C738 C752 1.377 1_544 S
C739 C738 1.524 . S
C739 C740 1.397 . S
C739 C744 1.363 . S
C740 H717 0.960 . S
C740 C739 1.397 . S
C740 C741 1.334 . S
C741 H718 0.950 . S
C741 C740 1.334 . S
C741 C742 1.287 . S
C742 C741 1.287 . S
C742 C743 1.524 . S
C742 H761 0.913 . S
C743 H719 0.950 . S
C743 C742 1.524 . S
C743 C744 1.415 . S
C744 H720 0.950 1_554 S
C744 C739 1.363 . S
C744 C743 1.415 . S
C745 H721 0.951 . S
C745 C746 1.366 . S
C745 C747 1.388 . S
C746 C745 1.366 . S
C746 C750 1.385 1_455 S
C747 H722 0.951 . S
C747 C745 1.388 . S
C747 C748 1.366 . S
C748 C747 1.366 . S
C748 C749 1.414 1_455 S
C748 C751 1.499 . S
C749 H723 0.950 . S
C749 C748 1.414 1_655 S
C749 C750 1.374 . S
C750 H724 0.950 . S
C750 C746 1.385 1_655 S
C750 C749 1.374 . S
C751 C748 1.499 . S
C751 C752 1.373 1_455 S
C751 C753 1.389 . S
C752 H725 0.950 . S
C752 C738 1.377 1_566 S
C752 C751 1.373 1_655 S
C753 C737 1.377 1_566 S
C753 C751 1.389 . S
C753 C754 1.524 . S
C754 C753 1.524 . S
C754 C755 1.397 . S
C754 C759 1.363 . S
C755 H726 0.960 . S
C755 C754 1.397 . S
C755 C756 1.334 . S
C756 H727 0.950 . S
C756 C755 1.334 . S
C756 C757 1.287 . S
C757 C756 1.287 . S
C757 C758 1.524 . S
C757 H760 0.999 . S
C758 H728 0.950 . S
C758 C757 1.524 . S
C758 C759 1.415 . S
C759 H729 0.950 1_556 S
C759 C754 1.363 . S
C759 C758 1.415 . S
H760 C757 0.999 . S
H761 C742 0.913 . S
H762 C780 0.951 . S
H763 C782 0.951 . S
H764 C784 0.950 . S
H765 C785 0.950 . S
H766 C787 0.950 . S
H767 C790 0.950 . S
H768 C791 0.950 . S
H769 C793 0.950 . S
H770 C794 0.950 . S
H771 C795 0.951 . S
H772 C797 0.951 . S
H773 C799 0.950 . S
H774 C800 0.950 . S
H775 C802 0.950 . S
H776 C805 0.950 . S
H777 C806 0.950 . S
H778 C808 0.950 . S
H779 C809 0.950 . S
C780 H762 0.951 . S
C780 C781 1.366 . S
C780 C782 1.388 . S
C781 C780 1.366 . S
C781 C785 1.385 . S
C782 H763 0.951 . S
C782 C780 1.388 . S
C782 C783 1.366 . S
C783 C782 1.366 . S
C783 C784 1.414 . S
C783 C786 1.499 . S
C784 H764 0.950 . S
C784 C783 1.414 . S
C784 C785 1.374 . S
C785 H765 0.950 . S
C785 C781 1.385 . S
C785 C784 1.374 . S
C786 C783 1.499 . S
C786 C787 1.373 1_556 S
C786 C788 1.389 1_455 S
C787 H766 0.950 . S
C787 C786 1.373 1_554 S
C787 C803 1.377 . S
C788 C786 1.389 1_655 S
C788 C789 1.524 . S
C788 C802 1.377 . S
C789 C788 1.524 . S
C789 C790 1.397 . S
C789 C794 1.363 . S
C790 H767 0.950 . S
C790 C789 1.397 . S
C790 C791 1.334 . S
C791 H768 0.950 . S
C791 C790 1.334 . S
C791 C792 1.287 . S
C792 C791 1.287 . S
C792 C793 1.524 . S
C792 H811 0.913 . S
C793 H769 0.950 . S
C793 C792 1.524 . S
C793 C794 1.415 . S
C794 H770 0.950 . S
C794 C789 1.363 . S
C794 C793 1.415 . S
C795 H771 0.951 . S
C795 C796 1.366 . S
C795 C797 1.388 . S
C796 C795 1.366 . S
C796 C800 1.385 . S
C797 H772 0.951 . S
C797 C795 1.388 . S
C797 C798 1.366 . S
C798 C797 1.366 . S
C798 C799 1.414 . S
C798 C801 1.499 . S
C799 H773 0.950 . S
C799 C798 1.414 . S
C799 C800 1.374 . S
C800 H774 0.950 . S
C800 C796 1.385 . S
C800 C799 1.374 . S
C801 C798 1.499 . S
C801 C802 1.373 1_454 S
C801 C803 1.389 . S
C802 H775 0.950 . S
C802 C788 1.377 . S
C802 C801 1.373 1_656 S
C803 C787 1.377 . S
C803 C801 1.389 . S
C803 C804 1.524 . S
C804 C803 1.524 . S
C804 C805 1.397 . S
C804 C809 1.363 . S
C805 H776 0.950 . S
C805 C804 1.397 . S
C805 C806 1.334 . S
C806 H777 0.950 . S
C806 C805 1.334 . S
C806 C807 1.287 . S
C807 C806 1.287 . S
C807 C808 1.524 . S
C807 H810 0.999 . S
C808 H778 0.950 . S
C808 C807 1.524 . S
C808 C809 1.415 . S
C809 H779 0.950 . S
C809 C804 1.363 . S
C809 C808 1.415 . S
H810 C807 0.999 . S
H811 C792 0.913 . S
H812 C830 0.951 . S
H813 C832 0.951 . S
H814 C834 0.950 . S
H815 C835 0.950 . S
H816 C837 0.950 . S
H817 C840 0.950 . S
H818 C841 0.950 . S
H819 C843 0.950 . S
H820 C844 0.950 . S
H821 C845 0.951 . S
H822 C847 0.951 . S
H823 C849 0.950 . S
H824 C850 0.950 . S
H825 C852 0.950 . S
H826 C855 0.950 . S
H827 C856 0.950 . S
H828 C858 0.950 . S
H829 C859 0.950 . S
C830 H812 0.951 . S
C830 C831 1.366 . S
C830 C832 1.388 . S
C831 C830 1.366 . S
C831 C835 1.385 . S
C832 H813 0.951 . S
C832 C830 1.388 . S
C832 C833 1.366 . S
C833 C832 1.366 . S
C833 C834 1.414 . S
C833 C836 1.499 . S
C834 H814 0.950 . S
C834 C833 1.414 . S
C834 C835 1.374 . S
C835 H815 0.950 . S
C835 C831 1.385 . S
C835 C834 1.374 . S
C836 C833 1.499 . S
C836 C837 1.373 . S
C836 C838 1.389 . S
C837 H816 0.950 . S
C837 C836 1.373 . S
C837 C853 1.377 . S
C838 C836 1.389 . S
C838 C839 1.524 . S
C838 C852 1.377 . S
C839 C838 1.524 . S
C839 C840 1.397 . S
C839 C844 1.363 . S
C840 H817 0.950 . S
C840 C839 1.397 . S
C840 C841 1.334 . S
C841 H818 0.950 . S
C841 C840 1.334 . S
C841 C842 1.287 . S
C842 C841 1.287 . S
C842 C843 1.524 . S
C842 H861 0.913 . S
C843 H819 0.950 . S
C843 C842 1.524 . S
C843 C844 1.415 . S
C844 H820 0.950 . S
C844 C839 1.363 . S
C844 C843 1.415 . S
C845 H821 0.951 . S
C845 C846 1.366 . S
C845 C847 1.388 . S
C846 C845 1.366 . S
C846 C850 1.385 . S
C847 H822 0.951 . S
C847 C845 1.388 . S
C847 C848 1.366 . S
C848 C847 1.366 . S
C848 C849 1.414 . S
C848 C851 1.499 . S
C849 H823 0.950 . S
C849 C848 1.414 . S
C849 C850 1.374 . S
C850 H824 0.950 . S
C850 C846 1.385 . S
C850 C849 1.374 . S
C851 C848 1.499 . S
C851 C852 1.373 . S
C851 C853 1.389 . S
C852 H825 0.950 . S
C852 C838 1.377 . S
C852 C851 1.373 . S
C853 C837 1.377 . S
C853 C851 1.389 . S
C853 C854 1.524 . S
C854 C853 1.524 . S
C854 C855 1.397 . S
C854 C859 1.363 . S
C855 H826 0.950 . S
C855 C854 1.397 . S
C855 C856 1.334 . S
C856 H827 0.950 . S
C856 C855 1.334 . S
C856 C857 1.287 . S
C857 C856 1.287 . S
C857 C858 1.524 . S
C857 H860 0.999 . S
C858 H828 0.950 . S
C858 C857 1.524 . S
C858 C859 1.415 . S
C859 H829 0.950 . S
C859 C854 1.363 . S
C859 C858 1.415 . S
H860 C857 0.999 . S
H861 C842 0.913 . S
H862 C880 0.951 . S
H863 C882 0.951 . S
H864 C884 0.950 . S
H865 C885 0.950 . S
H866 C887 0.950 . S
H867 C890 0.950 . S
H868 C891 0.950 . S
H869 C893 0.950 . S
H870 C894 0.950 . S
H871 C895 0.951 . S
H872 C897 0.951 . S
H873 C899 0.950 . S
H874 C900 0.950 . S
H875 C902 0.950 . S
H876 C905 0.950 . S
H877 C906 0.950 . S
H878 C908 0.950 . S
H879 C909 0.950 . S
C880 H862 0.951 . S
C880 C881 1.366 . S
C880 C882 1.388 . S
C881 C880 1.366 . S
C881 C885 1.385 . S
C882 H863 0.951 . S
C882 C880 1.388 . S
C882 C883 1.366 . S
C883 C882 1.366 . S
C883 C884 1.414 . S
C883 C886 1.499 . S
C884 H864 0.950 . S
C884 C883 1.414 . S
C884 C885 1.374 . S
C885 H865 0.950 . S
C885 C881 1.385 . S
C885 C884 1.374 . S
C886 C883 1.499 . S
C886 C887 1.373 1_565 S
C886 C888 1.389 . S
C887 H866 0.950 . S
C887 C886 1.373 1_545 S
C887 C903 1.377 . S
C888 C886 1.389 . S
C888 C889 1.524 . S
C888 C902 1.377 . S
C889 C888 1.524 . S
C889 C890 1.397 . S
C889 C894 1.363 . S
C890 H867 0.950 . S
C890 C889 1.397 . S
C890 C891 1.334 . S
C891 H868 0.950 . S
C891 C890 1.334 . S
C891 C892 1.287 . S
C892 C891 1.287 . S
C892 C893 1.524 . S
C892 H911 0.913 . S
C893 H869 0.950 . S
C893 C892 1.524 . S
C893 C894 1.415 . S
C894 H870 0.950 . S
C894 C889 1.363 . S
C894 C893 1.415 . S
C895 H871 0.951 . S
C895 C896 1.366 . S
C895 C897 1.388 . S
C896 C895 1.366 . S
C896 C900 1.385 . S
C897 H872 0.951 . S
C897 C895 1.388 . S
C897 C898 1.366 . S
C898 C897 1.366 . S
C898 C899 1.414 . S
C898 C901 1.499 . S
C899 H873 0.950 . S
C899 C898 1.414 . S
C899 C900 1.374 . S
C900 H874 0.950 . S
C900 C896 1.385 . S
C900 C899 1.374 . S
C901 C898 1.499 . S
C901 C902 1.373 1_545 S
C901 C903 1.389 . S
C902 H875 0.950 . S
C902 C888 1.377 . S
C902 C901 1.373 1_565 S
C903 C887 1.377 . S
C903 C901 1.389 . S
C903 C904 1.524 . S
C904 C903 1.524 . S
C904 C905 1.397 . S
C904 C909 1.363 . S
C905 H876 0.950 . S
C905 C904 1.397 . S
C905 C906 1.334 . S
C906 H877 0.950 . S
C906 C905 1.334 . S
C906 C907 1.287 . S
C907 C906 1.287 . S
C907 C908 1.524 . S
C907 H910 0.999 . S
C908 H878 0.950 . S
C908 C907 1.524 . S
C908 C909 1.415 . S
C909 H879 0.950 . S
C909 C904 1.363 . S
C909 C908 1.415 . S
H910 C907 0.999 . S
H911 C892 0.913 . S
C131 C19 1.424 . S
C146 C5 1.424 . S
C181 C33 1.424 . S
C196 C47 1.424 . S
C231 C61 1.423 . S
C246 C75 1.424 . S
C281 C89 1.423 . S
C296 C103 1.423 . S
C331 C98 1.395 . S
C346 C0 1.396 . S
C381 C84 1.395 . S
C396 C14 1.396 . S
C431 C28 1.395 . S
C446 C70 1.396 . S
C481 C56 1.396 . S
C496 C42 1.395 . S
C531 C79 1.387 . S
C546 C37 1.387 . S
C581 C65 1.387 . S
C596 C51 1.387 . S
C631 C107 1.387 . S
C646 C9 1.387 . S
C681 C23 1.387 . S
C696 C93 1.387 . S
C731 C11 1.349 . S
C746 C39 1.349 . S
C781 C53 1.349 . S
C796 C25 1.350 . S
C831 C95 1.349 . S
C846 C67 1.349 . S
C881 C81 1.350 . S
C896 C109 1.350 . S
