# Generated by pormake.
# Topology vbd, (5)-cn, num edge types: 1
# Building blocks:
#     Node 0, Type 0, BuildingBlock: XOMCOT_clean_sbu_1, # of connection points: 5
#     Node 1, Type 0, BuildingBlock: XOMCOT_clean_sbu_1, # of connection points: 5
#     Node 2, Type 0, BuildingBlock: XOMCOT_clean_sbu_1, # of connection points: 5
#     Node 3, Type 0, BuildingBlock: XOMCOT_clean_sbu_1, # of connection points: 5
#     Node 4, Type 0, BuildingBlock: XOMCOT_clean_sbu_1, # of connection points: 5
#     Node 5, Type 0, BuildingBlock: XOMCOT_clean_sbu_1, # of connection points: 5
#     Node 6, Type 0, BuildingBlock: XOMCOT_clean_sbu_1, # of connection points: 5
#     Node 7, Type 0, BuildingBlock: XOMCOT_clean_sbu_1, # of connection points: 5
#     Node 8, Type 0, BuildingBlock: XOMCOT_clean_sbu_1, # of connection points: 5
#     Node 9, Type 0, BuildingBlock: XOMCOT_clean_sbu_1, # of connection points: 5
#     Node 10, Type 0, BuildingBlock: XOMCOT_clean_sbu_1, # of connection points: 5
#     Node 11, Type 0, BuildingBlock: XOMCOT_clean_sbu_1, # of connection points: 5
#     Node 12, Type 0, BuildingBlock: XOMCOT_clean_sbu_1, # of connection points: 5
#     Node 13, Type 0, BuildingBlock: XOMCOT_clean_sbu_1, # of connection points: 5
#     Node 14, Type 0, BuildingBlock: XOMCOT_clean_sbu_1, # of connection points: 5
#     Node 15, Type 0, BuildingBlock: XOMCOT_clean_sbu_1, # of connection points: 5
#     Node 16, Type 0, BuildingBlock: XOMCOT_clean_sbu_1, # of connection points: 5
#     Node 17, Type 0, BuildingBlock: XOMCOT_clean_sbu_1, # of connection points: 5
#     Node 18, Type 0, BuildingBlock: XOMCOT_clean_sbu_1, # of connection points: 5
#     Node 19, Type 0, BuildingBlock: XOMCOT_clean_sbu_1, # of connection points: 5
#     Node 20, Type 0, BuildingBlock: XOMCOT_clean_sbu_1, # of connection points: 5
#     Node 21, Type 0, BuildingBlock: XOMCOT_clean_sbu_1, # of connection points: 5
#     Node 22, Type 0, BuildingBlock: XOMCOT_clean_sbu_1, # of connection points: 5
#     Node 23, Type 0, BuildingBlock: XOMCOT_clean_sbu_1, # of connection points: 5
#     Node 24, Type 0, BuildingBlock: XOMCOT_clean_sbu_1, # of connection points: 5
#     Node 25, Type 0, BuildingBlock: XOMCOT_clean_sbu_1, # of connection points: 5
#     Node 26, Type 0, BuildingBlock: XOMCOT_clean_sbu_1, # of connection points: 5
#     Node 27, Type 0, BuildingBlock: XOMCOT_clean_sbu_1, # of connection points: 5
#     Node 28, Type 0, BuildingBlock: XOMCOT_clean_sbu_1, # of connection points: 5
#     Node 29, Type 0, BuildingBlock: XOMCOT_clean_sbu_1, # of connection points: 5
#     Node 30, Type 0, BuildingBlock: XOMCOT_clean_sbu_1, # of connection points: 5
#     Node 31, Type 0, BuildingBlock: XOMCOT_clean_sbu_1, # of connection points: 5
#     Edge 32, Type (0, 0), BuildingBlock: EZIPEK_clean_linker_0, # of connection points: 2
#     Edge 33, Type (0, 0), BuildingBlock: EZIPEK_clean_linker_0, # of connection points: 2
#     Edge 34, Type (0, 0), BuildingBlock: EZIPEK_clean_linker_0, # of connection points: 2
#     Edge 35, Type (0, 0), BuildingBlock: EZIPEK_clean_linker_0, # of connection points: 2
#     Edge 36, Type (0, 0), BuildingBlock: EZIPEK_clean_linker_0, # of connection points: 2
#     Edge 37, Type (0, 0), BuildingBlock: EZIPEK_clean_linker_0, # of connection points: 2
#     Edge 38, Type (0, 0), BuildingBlock: EZIPEK_clean_linker_0, # of connection points: 2
#     Edge 39, Type (0, 0), BuildingBlock: EZIPEK_clean_linker_0, # of connection points: 2
#     Edge 40, Type (0, 0), BuildingBlock: EZIPEK_clean_linker_0, # of connection points: 2
#     Edge 41, Type (0, 0), BuildingBlock: EZIPEK_clean_linker_0, # of connection points: 2
#     Edge 42, Type (0, 0), BuildingBlock: EZIPEK_clean_linker_0, # of connection points: 2
#     Edge 43, Type (0, 0), BuildingBlock: EZIPEK_clean_linker_0, # of connection points: 2
#     Edge 44, Type (0, 0), BuildingBlock: EZIPEK_clean_linker_0, # of connection points: 2
#     Edge 45, Type (0, 0), BuildingBlock: EZIPEK_clean_linker_0, # of connection points: 2
#     Edge 46, Type (0, 0), BuildingBlock: EZIPEK_clean_linker_0, # of connection points: 2
#     Edge 47, Type (0, 0), BuildingBlock: EZIPEK_clean_linker_0, # of connection points: 2
#     Edge 48, Type (0, 0), BuildingBlock: EZIPEK_clean_linker_0, # of connection points: 2
#     Edge 49, Type (0, 0), BuildingBlock: EZIPEK_clean_linker_0, # of connection points: 2
#     Edge 50, Type (0, 0), BuildingBlock: EZIPEK_clean_linker_0, # of connection points: 2
#     Edge 51, Type (0, 0), BuildingBlock: EZIPEK_clean_linker_0, # of connection points: 2
#     Edge 52, Type (0, 0), BuildingBlock: EZIPEK_clean_linker_0, # of connection points: 2
#     Edge 53, Type (0, 0), BuildingBlock: EZIPEK_clean_linker_0, # of connection points: 2
#     Edge 54, Type (0, 0), BuildingBlock: EZIPEK_clean_linker_0, # of connection points: 2
#     Edge 55, Type (0, 0), BuildingBlock: EZIPEK_clean_linker_0, # of connection points: 2
#     Edge 56, Type (0, 0), BuildingBlock: EZIPEK_clean_linker_0, # of connection points: 2
#     Edge 57, Type (0, 0), BuildingBlock: EZIPEK_clean_linker_0, # of connection points: 2
#     Edge 58, Type (0, 0), BuildingBlock: EZIPEK_clean_linker_0, # of connection points: 2
#     Edge 59, Type (0, 0), BuildingBlock: EZIPEK_clean_linker_0, # of connection points: 2
#     Edge 60, Type (0, 0), BuildingBlock: EZIPEK_clean_linker_0, # of connection points: 2
#     Edge 61, Type (0, 0), BuildingBlock: EZIPEK_clean_linker_0, # of connection points: 2
#     Edge 62, Type (0, 0), BuildingBlock: EZIPEK_clean_linker_0, # of connection points: 2
#     Edge 63, Type (0, 0), BuildingBlock: EZIPEK_clean_linker_0, # of connection points: 2
#     Edge 64, Type (0, 0), BuildingBlock: EZIPEK_clean_linker_0, # of connection points: 2
#     Edge 65, Type (0, 0), BuildingBlock: EZIPEK_clean_linker_0, # of connection points: 2
#     Edge 66, Type (0, 0), BuildingBlock: EZIPEK_clean_linker_0, # of connection points: 2
#     Edge 67, Type (0, 0), BuildingBlock: EZIPEK_clean_linker_0, # of connection points: 2
#     Edge 68, Type (0, 0), BuildingBlock: EZIPEK_clean_linker_0, # of connection points: 2
#     Edge 69, Type (0, 0), BuildingBlock: EZIPEK_clean_linker_0, # of connection points: 2
#     Edge 70, Type (0, 0), BuildingBlock: EZIPEK_clean_linker_0, # of connection points: 2
#     Edge 71, Type (0, 0), BuildingBlock: EZIPEK_clean_linker_0, # of connection points: 2
#     Edge 72, Type (0, 0), BuildingBlock: EZIPEK_clean_linker_0, # of connection points: 2
#     Edge 73, Type (0, 0), BuildingBlock: EZIPEK_clean_linker_0, # of connection points: 2
#     Edge 74, Type (0, 0), BuildingBlock: EZIPEK_clean_linker_0, # of connection points: 2
#     Edge 75, Type (0, 0), BuildingBlock: EZIPEK_clean_linker_0, # of connection points: 2
#     Edge 76, Type (0, 0), BuildingBlock: EZIPEK_clean_linker_0, # of connection points: 2
#     Edge 77, Type (0, 0), BuildingBlock: EZIPEK_clean_linker_0, # of connection points: 2
#     Edge 78, Type (0, 0), BuildingBlock: EZIPEK_clean_linker_0, # of connection points: 2
#     Edge 79, Type (0, 0), BuildingBlock: EZIPEK_clean_linker_0, # of connection points: 2
#     Edge 80, Type (0, 0), BuildingBlock: EZIPEK_clean_linker_0, # of connection points: 2
#     Edge 81, Type (0, 0), BuildingBlock: EZIPEK_clean_linker_0, # of connection points: 2
#     Edge 82, Type (0, 0), BuildingBlock: EZIPEK_clean_linker_0, # of connection points: 2
#     Edge 83, Type (0, 0), BuildingBlock: EZIPEK_clean_linker_0, # of connection points: 2
#     Edge 84, Type (0, 0), BuildingBlock: EZIPEK_clean_linker_0, # of connection points: 2
#     Edge 85, Type (0, 0), BuildingBlock: EZIPEK_clean_linker_0, # of connection points: 2
#     Edge 86, Type (0, 0), BuildingBlock: EZIPEK_clean_linker_0, # of connection points: 2
#     Edge 87, Type (0, 0), BuildingBlock: EZIPEK_clean_linker_0, # of connection points: 2
#     Edge 88, Type (0, 0), BuildingBlock: EZIPEK_clean_linker_0, # of connection points: 2
#     Edge 89, Type (0, 0), BuildingBlock: EZIPEK_clean_linker_0, # of connection points: 2
#     Edge 90, Type (0, 0), BuildingBlock: EZIPEK_clean_linker_0, # of connection points: 2
#     Edge 91, Type (0, 0), BuildingBlock: EZIPEK_clean_linker_0, # of connection points: 2
#     Edge 92, Type (0, 0), BuildingBlock: EZIPEK_clean_linker_0, # of connection points: 2
#     Edge 93, Type (0, 0), BuildingBlock: EZIPEK_clean_linker_0, # of connection points: 2
#     Edge 94, Type (0, 0), BuildingBlock: EZIPEK_clean_linker_0, # of connection points: 2
#     Edge 95, Type (0, 0), BuildingBlock: EZIPEK_clean_linker_0, # of connection points: 2
#     Edge 96, Type (0, 0), BuildingBlock: EZIPEK_clean_linker_0, # of connection points: 2
#     Edge 97, Type (0, 0), BuildingBlock: EZIPEK_clean_linker_0, # of connection points: 2
#     Edge 98, Type (0, 0), BuildingBlock: EZIPEK_clean_linker_0, # of connection points: 2
#     Edge 99, Type (0, 0), BuildingBlock: EZIPEK_clean_linker_0, # of connection points: 2
#     Edge 100, Type (0, 0), BuildingBlock: EZIPEK_clean_linker_0, # of connection points: 2
#     Edge 101, Type (0, 0), BuildingBlock: EZIPEK_clean_linker_0, # of connection points: 2
#     Edge 102, Type (0, 0), BuildingBlock: EZIPEK_clean_linker_0, # of connection points: 2
#     Edge 103, Type (0, 0), BuildingBlock: EZIPEK_clean_linker_0, # of connection points: 2
#     Edge 104, Type (0, 0), BuildingBlock: EZIPEK_clean_linker_0, # of connection points: 2
#     Edge 105, Type (0, 0), BuildingBlock: EZIPEK_clean_linker_0, # of connection points: 2
#     Edge 106, Type (0, 0), BuildingBlock: EZIPEK_clean_linker_0, # of connection points: 2
#     Edge 107, Type (0, 0), BuildingBlock: EZIPEK_clean_linker_0, # of connection points: 2
#     Edge 108, Type (0, 0), BuildingBlock: EZIPEK_clean_linker_0, # of connection points: 2
#     Edge 109, Type (0, 0), BuildingBlock: EZIPEK_clean_linker_0, # of connection points: 2
#     Edge 110, Type (0, 0), BuildingBlock: EZIPEK_clean_linker_0, # of connection points: 2
#     Edge 111, Type (0, 0), BuildingBlock: EZIPEK_clean_linker_0, # of connection points: 2
# Relax obj value: 0.174
# Max RMSD: 0.140
# Mean RMSD: 0.140
data_MOF--net-vbd--node1-XOMCOT_clean_sbu_1--edge1-EZIPEK_clean_linker_0
_symmetry_space_group_name_H-M    P1
_symmetry_Int_Tables_number       1
_symmetry_cell_setting            triclinic
loop_
_symmetry_equiv_pos_as_xyz
'x, y, z'
_cell_length_a     70.885831
_cell_length_b     19.329775
_cell_length_c     51.710524
_cell_angle_alpha  90.278001
_cell_angle_beta   89.965332
_cell_angle_gamma 89.821445
loop_
_atom_site_label
_atom_site_type_symbol
_atom_site_fract_x
_atom_site_fract_y
_atom_site_fract_z
_atom_type_partial_charge
C0 C 0.06511 0.36134 0.0918 0.0
C1 C 0.06323 0.3325 0.11618 0.0
N2 N 0.06418 0.26306 0.11396 0.0
N3 N 0.06713 0.31062 0.07398 0.0
C4 C 0.06667 0.25143 0.08832 0.0
H5 H 0.06479 0.41594 0.08735 0.0
Co6 Co 0.06986 0.3206 0.03683 0.0
C7 C 0.09544 0.18549 0.04112 0.0
O8 O 0.08178 0.14095 0.04476 0.0
N9 N 0.07394 0.33039 0.99976 0.0
C10 C 0.08511 0.30956 0.95982 0.0
C11 C 0.08531 0.28911 0.98518 0.0
C12 C 0.06803 0.37884 0.98244 0.0
N13 N 0.07417 0.36587 0.95798 0.0
O14 O 0.04867 0.39651 0.03562 0.0
H15 H 0.0933 0.24545 0.99208 0.0
H16 H 0.06004 0.42423 0.98764 0.0
O17 O 0.09165 0.25056 0.03835 0.0
C18 C 0.03307 0.40265 0.02256 0.0
O19 O 0.02831 0.35263 1.00658 0.0
N20 N 0.05128 0.25131 0.03189 0.0
C21 C 0.02529 0.1451 0.03279 0.0
C22 C 0.02263 0.20275 0.04846 0.0
C23 C 0.03572 0.25555 0.04758 0.0
C24 C 0.05298 0.19751 1.0148 0.0
C25 C 0.04015 0.14315 1.01512 0.0
H26 H 0.03368 0.29873 0.06054 0.0
H27 H 0.0649 0.19286 1.00215 0.0
H28 H 0.0673 0.20019 0.08019 0.0
H29 H 0.0612 0.36044 0.13417 0.0
H30 H 0.09252 0.28513 0.94388 0.0
H31 H 0.01095 0.20564 0.06197 0.0
H32 H 0.04227 0.09871 1.00259 0.0
C33 C 0.23068 1.00093 0.08205 0.0
C34 C 0.22961 0.02871 0.10681 0.0
N35 N 0.21314 0.06288 0.10943 0.0
N36 N 0.21498 0.01725 0.06855 0.0
C37 C 0.20444 0.05395 0.08619 0.0
H38 H 0.24277 0.97411 0.07409 0.0
Co39 Co 0.21031 0.00413 0.03139 0.0
C40 C 0.17341 0.08672 0.03168 0.0
O41 O 0.18221 0.13604 0.01937 0.0
N42 N 0.20393 0.99316 0.99451 0.0
C43 C 0.19659 0.02395 0.95392 0.0
C44 C 0.20014 0.04693 0.97845 0.0
C45 C 0.20201 0.93701 0.97861 0.0
N46 N 0.19785 0.95497 0.95384 0.0
O47 O 0.20998 0.90066 0.0358 0.0
H48 H 0.20088 0.10094 0.98347 0.0
H49 H 0.20369 0.88409 0.98487 0.0
O50 O 0.18237 0.0302 0.03758 0.0
C51 C 0.22761 0.88442 0.03117 0.0
O52 O 0.23926 0.93539 0.02652 0.0
N53 N 0.219 0.0943 0.02552 0.0
C54 C 0.25134 0.17253 0.03113 0.0
C55 C 0.2347 0.19285 0.04378 0.0
C56 C 0.21858 0.15132 0.04127 0.0
C57 C 0.23436 0.08251 1.01005 0.0
C58 C 0.25064 0.1201 1.01278 0.0
H59 H 0.20684 0.16082 0.054 0.0
H60 H 0.23546 0.03677 0.99818 0.0
H61 H 0.19099 0.07703 0.0818 0.0
H62 H 0.24064 0.02735 0.12128 0.0
H63 H 0.19392 0.05564 0.9371 0.0
H64 H 0.23488 0.2351 0.05759 0.0
H65 H 0.26322 0.10314 1.00258 0.0
C66 C 0.0334 0.0525 0.23417 0.0
C67 C 0.03395 0.08557 0.21069 0.0
N68 N 0.05172 0.08387 0.20143 0.0
N69 N 0.05071 0.02892 0.24042 0.0
C70 C 0.06156 0.04769 0.2197 0.0
H71 H 0.0214 0.05166 0.24705 0.0
Co72 Co 0.05567 0.00824 0.27623 0.0
C73 C 0.10193 0.9916 0.26594 0.0
O74 O 0.11009 0.93436 0.25789 0.0
N75 N 0.05995 0.99162 0.31216 0.0
C76 C 0.07194 0.00753 0.35168 0.0
C77 C 0.07308 0.02577 0.32613 0.0
C78 C 0.0505 0.95402 0.33019 0.0
N79 N 0.05777 0.96231 0.35426 0.0
O80 O 0.04735 0.90794 0.27135 0.0
H81 H 0.08226 0.06495 0.31847 0.0
H82 H 0.03817 0.92323 0.32613 0.0
O83 O 0.08373 0.99065 0.26919 0.0
C84 C 0.02946 0.8969 0.27492 0.0
O85 O 0.01878 0.95051 0.28052 0.0
N86 N 0.06034 0.10133 0.28135 0.0
C87 C 0.05695 0.24278 0.27897 0.0
C88 C 0.07305 0.21081 0.26901 0.0
C89 C 0.0741 0.13899 0.2696 0.0
C90 C 0.04598 0.13299 0.29426 0.0
C91 C 0.04401 0.20432 0.29335 0.0
H92 H 0.08443 0.11433 0.25771 0.0
H93 H 0.03502 0.10216 0.30305 0.0
H94 H 0.07658 0.03958 0.21892 0.0
H95 H 0.02228 0.11268 0.20173 0.0
H96 H 0.08054 0.02724 0.36734 0.0
H97 H 0.08303 0.23965 0.25744 0.0
H98 H 0.03138 0.2282 0.30122 0.0
C99 C 0.21824 0.28494 0.23292 0.0
C100 C 0.22098 0.25164 0.20971 0.0
N101 N 0.20416 0.23894 0.19892 0.0
N102 N 0.19963 0.29438 0.23773 0.0
C103 C 0.19137 0.26699 0.21591 0.0
H104 H 0.22935 0.29512 0.24641 0.0
Co105 Co 0.19053 0.32033 0.27289 0.0
C106 C 0.15894 0.21226 0.28333 0.0
O107 O 0.1675 0.2012 0.30549 0.0
N108 N 0.18166 0.34775 0.30724 0.0
C109 C 0.1611 0.37543 0.33868 0.0
C110 C 0.16319 0.35665 0.31305 0.0
C111 C 0.1905 0.36582 0.32983 0.0
N112 N 0.17829 0.3808 0.34935 0.0
O113 O 0.21377 0.38822 0.27762 0.0
H114 H 0.15176 0.34991 0.29947 0.0
H115 H 0.20555 0.37069 0.33208 0.0
O116 O 0.1661 0.25886 0.26811 0.0
C117 C 0.23168 0.3931 0.28312 0.0
O118 O 0.2414 0.3364 0.28736 0.0
N119 N 0.2034 0.24071 0.28585 0.0
C120 C 0.22375 0.12076 0.29424 0.0
C121 C 0.2095 0.12133 0.27605 0.0
C122 C 0.19983 0.18178 0.27187 0.0
C123 C 0.21596 0.23792 0.30587 0.0
C124 C 0.2267 0.17831 0.31012 0.0
H125 H 0.19004 0.18117 0.25615 0.0
H126 H 0.21907 0.28243 0.31738 0.0
H127 H 0.17632 0.265 0.21297 0.0
H128 H 0.23441 0.23445 0.20196 0.0
H129 H 0.14791 0.38424 0.34876 0.0
H130 H 0.20703 0.0772 0.26348 0.0
H131 H 0.23789 0.17857 0.32438 0.0
C132 C 0.95581 0.70084 0.96299 0.0
C133 C 0.95789 0.73347 0.93939 0.0
N134 N 0.94992 0.7967 0.9408 0.0
N135 N 0.94705 0.74329 0.98008 0.0
C136 C 0.94325 0.80069 0.96545 0.0
H137 H 0.96044 0.64887 0.96727 0.0
Co138 Co 0.9415 0.7202 1.01648 0.0
C139 C 0.91775 0.85749 1.01606 0.0
O140 O 0.93243 0.8979 1.01325 0.0
N141 N 0.93428 0.69577 0.05153 0.0
C142 C 0.91297 0.68303 0.08308 0.0
C143 C 0.91568 0.69551 0.05727 0.0
C144 C 0.94257 0.68022 0.07471 0.0
N145 N 0.92983 0.67213 0.09424 0.0
O146 O 0.96272 0.64485 1.01685 0.0
H147 H 0.90449 0.70406 0.04344 0.0
H148 H 0.95754 0.67626 0.07765 0.0
O149 O 0.92006 0.79125 1.01656 0.0
C150 C 0.97807 0.63539 0.03014 0.0
O151 O 0.98308 0.68181 0.04738 0.0
N152 N 0.95866 0.78722 0.02839 0.0
C153 C 0.98133 0.89954 0.03923 0.0
C154 C 0.98645 0.85316 0.01976 0.0
C155 C 0.97488 0.79717 1.01461 0.0
C156 C 0.95464 0.82837 0.04929 0.0
C157 C 0.96572 0.88592 0.05484 0.0
H158 H 0.97879 0.76285 0.99901 0.0
H159 H 0.94188 0.82097 0.06033 0.0
H160 H 0.93567 0.84523 0.97221 0.0
H161 H 0.96468 0.71205 0.92237 0.0
H162 H 0.89948 0.68009 0.09285 0.0
H163 H 0.99865 0.86251 1.00765 0.0
H164 H 0.96155 0.92152 0.07006 0.0
C165 C 0.79847 0.10305 0.9568 0.0
C166 C 0.79904 0.06438 0.93422 0.0
N167 N 0.81278 0.01669 0.93622 0.0
N168 N 0.81149 0.07963 0.97379 0.0
C169 C 0.82059 0.02892 0.9598 0.0
H170 H 0.78888 0.14534 0.96029 0.0
Co171 Co 0.81482 0.10648 1.01051 0.0
C172 C 0.84447 0.99812 0.0275 0.0
O173 O 0.83466 0.98175 0.04807 0.0
N174 N 0.81875 0.13385 0.04564 0.0
C175 C 0.82507 0.20923 0.07728 0.0
C176 C 0.82522 0.19789 0.05095 0.0
C177 C 0.815 0.10674 0.06941 0.0
N178 N 0.81859 0.15194 0.08889 0.0
O179 O 0.7921 0.17549 1.01007 0.0
H180 H 0.82916 0.23512 0.03638 0.0
H181 H 0.80919 0.05585 0.07261 0.0
O182 O 0.83828 0.04515 1.01202 0.0
C183 C 0.77411 0.17989 1.00574 0.0
O184 O 0.76518 0.12578 0.9964 0.0
N185 N 0.79896 0.03314 0.02069 0.0
C186 C 0.77362 0.92662 0.02685 0.0
C187 C 0.79029 0.91538 1.01355 0.0
C188 C 0.80264 0.96936 1.01059 0.0
C189 C 0.78342 0.04284 0.03598 0.0
C190 C 0.77027 0.98993 0.03914 0.0
H191 H 0.81487 0.95963 0.99931 0.0
H192 H 0.7809 0.09207 0.04526 0.0
H193 H 0.83231 0.9988 0.96708 0.0
H194 H 0.78971 0.06986 0.91778 0.0
H195 H 0.82886 0.25671 0.08715 0.0
H196 H 0.79333 0.86596 1.00442 0.0
H197 H 0.75748 0.99888 0.05014 0.0
C198 C 0.97014 0.07136 0.83294 0.0
C199 C 0.97094 0.03183 0.85495 0.0
N200 N 0.95472 0.99684 0.85751 0.0
N201 N 0.95362 0.06157 0.82031 0.0
C202 C 0.94431 0.01668 0.8365 0.0
H203 H 0.98132 0.1048 0.82711 0.0
Co204 Co 0.94598 0.09707 0.78568 0.0
C205 C 0.91869 0.97312 0.77694 0.0
O206 O 0.9293 0.94181 0.75964 0.0
N207 N 0.93734 0.13312 0.7516 0.0
C208 C 0.92309 0.13359 0.71276 0.0
C209 C 0.9236 0.10443 0.73684 0.0
C210 C 0.94454 0.18266 0.73537 0.0
N211 N 0.93656 0.18174 0.71136 0.0
O212 O 0.96715 0.16876 0.7857 0.0
H213 H 0.9151 0.06098 0.74179 0.0
H214 H 0.95678 0.21365 0.74004 0.0
O215 O 0.9241 0.03096 0.78674 0.0
C216 C 0.98536 0.16877 0.78452 0.0
O217 O 0.99468 0.11003 0.78456 0.0
N218 N 0.96214 0.03174 0.76863 0.0
C219 C 0.99147 0.95252 0.7487 0.0
C220 C 0.9809 0.9284 0.76963 0.0
C221 C 0.96606 0.9686 0.77915 0.0
C222 C 0.97175 0.05207 0.74697 0.0
C223 C 0.98614 0.01268 0.73634 0.0
H224 H 0.95826 0.94983 0.79552 0.0
H225 H 0.9705 0.1029 0.73954 0.0
H226 H 0.93032 0.997 0.8327 0.0
H227 H 0.98271 0.02905 0.86824 0.0
H228 H 0.91458 0.11616 0.69662 0.0
H229 H 0.98463 0.88056 0.77923 0.0
H230 H 0.99425 0.03253 0.72023 0.0
C231 C 0.79651 0.73232 0.83471 0.0
C232 C 0.79758 0.76855 0.85762 0.0
N233 N 0.81447 0.79987 0.85929 0.0
N234 N 0.81244 0.74044 0.82076 0.0
C235 C 0.82364 0.77831 0.83735 0.0
H236 H 0.78393 0.70853 0.8278 0.0
Co237 Co 0.81412 0.73122 0.78248 0.0
C238 C 0.84226 0.85824 0.7825 0.0
O239 O 0.82932 0.90676 0.78287 0.0
N240 N 0.81695 0.72494 0.74507 0.0
C241 C 0.82204 0.76657 0.70527 0.0
C242 C 0.82078 0.78234 0.73107 0.0
C243 C 0.81638 0.67384 0.72671 0.0
N244 N 0.81923 0.69851 0.70231 0.0
O245 O 0.79207 0.65872 0.78135 0.0
H246 H 0.82187 0.83393 0.73893 0.0
H247 H 0.81392 0.61992 0.73104 0.0
O248 O 0.83714 0.79434 0.78254 0.0
C249 C 0.77379 0.65504 0.78352 0.0
O250 O 0.7641 0.71143 0.78866 0.0
N251 N 0.79631 0.80595 0.77842 0.0
C252 C 0.76986 0.91182 0.77479 0.0
C253 C 0.78278 0.91116 0.79482 0.0
C254 C 0.79557 0.85782 0.79641 0.0
C255 C 0.7835 0.80613 0.7585 0.0
C256 C 0.77006 0.85895 0.7563 0.0
H257 H 0.80525 0.8611 0.81194 0.0
H258 H 0.78307 0.76405 0.74469 0.0
H259 H 0.83754 0.79611 0.83229 0.0
H260 H 0.78613 0.77559 0.87126 0.0
H261 H 0.82456 0.80263 0.6897 0.0
H262 H 0.78289 0.95166 0.80942 0.0
H263 H 0.75983 0.85796 0.74076 0.0
C264 C 0.02492 0.75659 0.57389 0.0
C265 C 0.02427 0.72615 0.59796 0.0
N266 N 0.04197 0.72007 0.60702 0.0
N267 N 0.04303 0.76866 0.56702 0.0
C268 C 0.05304 0.74825 0.58833 0.0
H269 H 0.01293 0.76521 0.56141 0.0
Co270 Co 0.04949 0.8014 0.53239 0.0
C271 C 0.08648 0.72865 0.54442 0.0
O272 O 0.07657 0.67592 0.55237 0.0
N273 N 0.05564 0.84043 0.49912 0.0
C274 C 0.07238 0.89428 0.4687 0.0
C275 C 0.07232 0.87101 0.49375 0.0
C276 C 0.04538 0.84958 0.47706 0.0
N277 N 0.05553 0.88041 0.4581 0.0
O278 O 0.04553 0.89892 0.54443 0.0
H279 H 0.08392 0.87642 0.50714 0.0
H280 H 0.03106 0.83143 0.47458 0.0
O281 O 0.07806 0.78674 0.53896 0.0
C282 C 0.02841 0.91311 0.53698 0.0
O283 O 0.01881 0.86319 0.5259 0.0
N284 N 0.0489 0.70755 0.51812 0.0
C285 C 0.0194 0.63626 0.49708 0.0
C286 C 0.02514 0.62136 0.52224 0.0
C287 C 0.0403 0.65725 0.53236 0.0
C288 C 0.04784 0.70076 0.49183 0.0
C289 C 0.0318 0.67122 0.48078 0.0
H290 H 0.04318 0.6503 0.55246 0.0
H291 H 0.0578 0.726 0.47942 0.0
H292 H 0.06819 0.75171 0.59 0.0
H293 H 0.01178 0.70722 0.60765 0.0
H294 H 0.08403 0.9188 0.45882 0.0
H295 H 0.0166 0.58966 0.5349 0.0
H296 H 0.02861 0.67939 0.46054 0.0
C297 C 0.19518 0.45554 0.59141 0.0
C298 C 0.19636 0.48679 0.61552 0.0
N299 N 0.1965 0.55575 0.61232 0.0
N300 N 0.19472 0.50391 0.57264 0.0
C301 C 0.19559 0.56478 0.58635 0.0
H302 H 0.19397 0.40057 0.58788 0.0
Co303 Co 0.18934 0.47992 0.5366 0.0
C304 C 0.15652 0.57937 0.52233 0.0
O305 O 0.16389 0.58691 0.49918 0.0
N306 N 0.1831 0.45406 0.50163 0.0
C307 C 0.16511 0.40313 0.47162 0.0
C308 C 0.16704 0.41841 0.49753 0.0
C309 C 0.19083 0.45937 0.47745 0.0
N310 N 0.18003 0.42881 0.45886 0.0
O311 O 0.21196 0.4099 0.53536 0.0
H312 H 0.15728 0.40408 0.51266 0.0
H313 H 0.20407 0.48446 0.47334 0.0
O314 O 0.16529 0.54024 0.53863 0.0
C315 C 0.22843 0.40084 0.54581 0.0
O316 O 0.23469 0.44759 0.56218 0.0
N317 N 0.2046 0.55566 0.52486 0.0
C318 C 0.22985 0.66431 0.52057 0.0
C319 C 0.21136 0.677 0.52783 0.0
C320 C 0.19901 0.62228 0.52975 0.0
C321 C 0.22199 0.54448 0.51403 0.0
C322 C 0.23509 0.59823 0.51213 0.0
H323 H 0.1857 0.63485 0.53805 0.0
H324 H 0.22619 0.4937 0.50764 0.0
H325 H 0.19493 0.6156 0.57814 0.0
H326 H 0.19645 0.46088 0.63403 0.0
H327 H 0.15366 0.3746 0.46278 0.0
H328 H 0.20689 0.72811 0.5341 0.0
H329 H 0.24934 0.58767 0.50561 0.0
C330 C 0.0314 0.52876 0.73491 0.0
C331 C 0.03052 0.55381 0.71008 0.0
N332 N 0.04771 0.57642 0.70306 0.0
N333 N 0.0491 0.53463 0.74423 0.0
C334 C 0.05881 0.56332 0.72407 0.0
H335 H 0.0194 0.51238 0.74617 0.0
Co336 Co 0.05292 0.53077 0.7812 0.0
C337 C 0.09394 0.55184 0.79161 0.0
O338 O 0.08844 0.5854 0.8124 0.0
N339 N 0.05527 0.52914 0.81898 0.0
C340 C 0.05357 0.56325 0.8605 0.0
C341 C 0.05111 0.58248 0.83528 0.0
C342 C 0.06023 0.47731 0.83557 0.0
N343 N 0.05918 0.49715 0.86084 0.0
O344 O 0.0489 0.43035 0.78088 0.0
H345 H 0.04689 0.63382 0.82981 0.0
H346 H 0.06445 0.42606 0.82931 0.0
O347 O 0.08135 0.52419 0.77681 0.0
C348 C 0.03164 0.4182 0.7871 0.0
O349 O 0.02102 0.47079 0.79422 0.0
N350 N 0.05362 0.62599 0.78067 0.0
C351 C 0.04329 0.7568 0.76531 0.0
C352 C 0.062 0.7353 0.76258 0.0
C353 C 0.06693 0.66873 0.77027 0.0
C354 C 0.03557 0.64805 0.78432 0.0
C355 C 0.03024 0.7142 0.77758 0.0
H356 H 0.08069 0.65019 0.76489 0.0
H357 H 0.02503 0.61223 0.79118 0.0
H358 H 0.07333 0.57875 0.7253 0.0
H359 H 0.01793 0.55786 0.69835 0.0
H360 H 0.05142 0.59545 0.87744 0.0
H361 H 0.07217 0.76712 0.75253 0.0
H362 H 0.01559 0.72965 0.77962 0.0
C363 C 0.20473 0.84217 0.72176 0.0
C364 C 0.20503 0.81811 0.69649 0.0
N365 N 0.1952 0.75879 0.69526 0.0
N366 N 0.19529 0.79757 0.73709 0.0
C367 C 0.18859 0.75004 0.71963 0.0
H368 H 0.21156 0.88856 0.72845 0.0
Co369 Co 0.19469 0.79619 0.77531 0.0
C370 C 0.16912 0.66223 0.77869 0.0
O371 O 0.18287 0.61957 0.78454 0.0
N372 N 0.19336 0.79433 0.81262 0.0
C373 C 0.19365 0.75182 0.85282 0.0
C374 C 0.19411 0.73601 0.82699 0.0
C375 C 0.19238 0.84567 0.83073 0.0
N376 N 0.19273 0.82073 0.85529 0.0
O377 O 0.21532 0.87224 0.77812 0.0
H378 H 0.1963 0.68473 0.81943 0.0
H379 H 0.19212 0.90018 0.82607 0.0
O380 O 0.17272 0.72676 0.77442 0.0
C381 C 0.23278 0.88099 0.77144 0.0
O382 O 0.241 0.83349 0.75702 0.0
N383 N 0.21382 0.72602 0.77571 0.0
C384 C 0.24123 0.62394 0.77766 0.0
C385 C 0.22693 0.61998 0.75953 0.0
C386 C 0.21335 0.67098 0.75906 0.0
C387 C 0.22844 0.73136 0.79297 0.0
C388 C 0.24234 0.68049 0.79436 0.0
H389 H 0.20167 0.66081 0.74687 0.0
H390 H 0.2292 0.77406 0.80639 0.0
H391 H 0.18013 0.70602 0.72478 0.0
H392 H 0.21275 0.84054 0.68054 0.0
H393 H 0.1949 0.71569 0.86867 0.0
H394 H 0.22561 0.57541 0.74684 0.0
H395 H 0.25336 0.68392 0.80881 0.0
C396 C 0.97698 0.31089 0.48439 0.0
C397 C 0.97697 0.33772 0.45979 0.0
N398 N 0.95961 0.33112 0.44937 0.0
N399 N 0.95975 0.28637 0.49025 0.0
C400 C 0.9496 0.29749 0.46811 0.0
H401 H 0.98856 0.31372 0.49794 0.0
Co402 Co 0.9539 0.26725 0.52611 0.0
C403 C 0.91233 0.28428 0.53268 0.0
O404 O 0.91756 0.31611 0.554 0.0
N405 N 0.94867 0.24706 0.562 0.0
C406 C 0.93594 0.18436 0.59372 0.0
C407 C 0.9377 0.1919 0.56751 0.0
C408 C 0.95376 0.27155 0.58584 0.0
N409 N 0.94595 0.23429 0.60541 0.0
O410 O 0.96234 0.16743 0.52204 0.0
H411 H 0.93145 0.15821 0.55314 0.0
H412 H 0.96322 0.31456 0.58892 0.0
O413 O 0.9253 0.25585 0.51819 0.0
C414 C 0.97968 0.16051 0.52982 0.0
O415 O 0.98842 0.21642 0.53785 0.0
N416 N 0.94987 0.36317 0.53024 0.0
C417 C 0.95807 0.49814 0.51644 0.0
C418 C 0.94094 0.46919 0.50921 0.0
C419 C 0.93748 0.40045 0.51535 0.0
C420 C 0.96524 0.39478 0.54063 0.0
C421 C 0.96971 0.46251 0.53382 0.0
H422 H 0.92635 0.37596 0.50472 0.0
H423 H 0.97561 0.36435 0.55089 0.0
H424 H 0.93497 0.2841 0.46613 0.0
H425 H 0.98872 0.36363 0.45066 0.0
H426 H 0.92826 0.14394 0.60358 0.0
H427 H 0.93174 0.49562 0.49573 0.0
H428 H 0.98319 0.48379 0.53963 0.0
C429 C 0.80383 0.59583 0.46509 0.0
C430 C 0.80204 0.56963 0.44024 0.0
N431 N 0.81026 0.50696 0.43917 0.0
N432 N 0.81264 0.54957 0.48055 0.0
C433 C 0.81739 0.49781 0.46334 0.0
H434 H 0.7986 0.64557 0.47135 0.0
Co435 Co 0.81493 0.55489 0.51902 0.0
C436 C 0.83869 0.41327 0.52227 0.0
O437 O 0.82446 0.37391 0.52889 0.0
N438 N 0.81776 0.55858 0.55659 0.0
C439 C 0.81858 0.51638 0.5969 0.0
C440 C 0.81751 0.50053 0.57113 0.0
C441 C 0.81904 0.61014 0.57473 0.0
N442 N 0.81946 0.58523 0.59941 0.0
O443 O 0.79526 0.63653 0.52117 0.0
H444 H 0.81507 0.44935 0.56376 0.0
H445 H 0.81909 0.66464 0.57005 0.0
O446 O 0.8359 0.47871 0.51806 0.0
C447 C 0.77777 0.64539 0.51431 0.0
O448 O 0.76941 0.59551 0.50134 0.0
N449 N 0.79485 0.49128 0.52292 0.0
C450 C 0.76418 0.40478 0.52707 0.0
C451 C 0.77824 0.39059 0.50919 0.0
C452 C 0.79341 0.43424 0.50751 0.0
C453 C 0.78103 0.50497 0.54087 0.0
C454 C 0.76531 0.46269 0.54302 0.0
H455 H 0.80438 0.41831 0.49486 0.0
H456 H 0.78195 0.54925 0.55355 0.0
H457 H 0.82519 0.45191 0.46851 0.0
H458 H 0.7947 0.59401 0.42433 0.0
H459 H 0.81791 0.48014 0.61278 0.0
H460 H 0.77781 0.34443 0.49718 0.0
H461 H 0.75457 0.4736 0.5574 0.0
C462 C 0.95502 0.59065 0.33428 0.0
C463 C 0.9561 0.56293 0.35891 0.0
N464 N 0.9507 0.49639 0.35779 0.0
N465 N 0.94946 0.54167 0.31713 0.0
C466 C 0.94622 0.48579 0.3326 0.0
H467 H 0.95803 0.64375 0.32943 0.0
Co468 Co 0.94587 0.55015 0.27966 0.0
C469 C 0.92384 0.40223 0.27736 0.0
O470 O 0.93777 0.36328 0.26902 0.0
N471 N 0.94141 0.55622 0.24245 0.0
C472 C 0.94038 0.51292 0.20227 0.0
C473 C 0.94214 0.49787 0.2279 0.0
C474 C 0.93867 0.60702 0.22444 0.0
N475 N 0.93809 0.58144 0.19971 0.0
O476 O 0.96385 0.63797 0.27874 0.0
H477 H 0.94493 0.44691 0.23521 0.0
H478 H 0.93742 0.6614 0.22923 0.0
O479 O 0.92658 0.46797 0.28118 0.0
C480 C 0.98102 0.64792 0.28704 0.0
O481 O 0.98933 0.59666 0.29922 0.0
N482 N 0.96755 0.49389 0.27252 0.0
C483 C 1.00301 0.43581 0.2651 0.0
C484 C 0.99018 0.40539 0.28212 0.0
C485 C 0.97246 0.43533 0.28557 0.0
C486 C 0.97967 0.5199 0.25426 0.0
C487 C 0.99766 0.49329 0.25094 0.0
H488 H 0.96301 0.41116 0.29886 0.0
H489 H 0.9761 0.56509 0.24314 0.0
H490 H 0.94066 0.43778 0.32572 0.0
H491 H 0.96058 0.58959 0.3763 0.0
H492 H 0.94078 0.47598 0.18646 0.0
H493 H 0.994 0.35971 0.29302 0.0
H494 H 0.00732 0.51757 0.23754 0.0
C495 C 0.78225 0.31284 0.31229 0.0
C496 C 0.78149 0.34605 0.33594 0.0
N497 N 0.79776 0.3349 0.34856 0.0
N498 N 0.79911 0.28157 0.3088 0.0
C499 C 0.80783 0.29274 0.33222 0.0
H500 H 0.77153 0.31499 0.29768 0.0
Co501 Co 0.80597 0.25071 0.27326 0.0
C502 C 0.84795 0.29049 0.29393 0.0
O503 O 0.84187 0.33335 0.31166 0.0
N504 N 0.8128 0.22254 0.2384 0.0
C505 C 0.828 0.23749 0.20092 0.0
C506 C 0.82644 0.25842 0.22608 0.0
C507 C 0.80584 0.1803 0.21941 0.0
N508 N 0.81506 0.18861 0.19647 0.0
O509 O 0.79922 0.15112 0.28225 0.0
H510 H 0.83387 0.30185 0.23435 0.0
H511 H 0.7936 0.14771 0.22176 0.0
O512 O 0.83574 0.25426 0.28059 0.0
C513 C 0.78131 0.14533 0.2764 0.0
O514 O 0.77302 0.20044 0.26686 0.0
N515 N 0.80544 0.34349 0.26195 0.0
C516 C 0.78058 0.45206 0.26405 0.0
C517 C 0.79684 0.45317 0.27935 0.0
C518 C 0.80975 0.39921 0.27695 0.0
C519 C 0.79185 0.35014 0.24324 0.0
C520 C 0.77974 0.40664 0.24316 0.0
H521 H 0.82127 0.39831 0.28988 0.0
H522 H 0.78797 0.30714 0.23105 0.0
H523 H 0.82137 0.27121 0.33734 0.0
H524 H 0.77013 0.3789 0.34282 0.0
H525 H 0.83725 0.25942 0.18645 0.0
H526 H 0.79861 0.49124 0.2946 0.0
H527 H 0.76787 0.40752 0.22997 0.0
C528 C 0.52483 0.2496 0.56589 0.0
C529 C 0.52252 0.22399 0.59055 0.0
N530 N 0.5382 0.23722 0.60435 0.0
N531 N 0.5421 0.27789 0.56328 0.0
C532 C 0.5495 0.27273 0.58769 0.0
H533 H 0.51496 0.244 0.55024 0.0
Co534 Co 0.55226 0.30406 0.52935 0.0
C535 C 0.58924 0.23976 0.55485 0.0
O536 O 0.57984 0.19984 0.57056 0.0
N537 N 0.56309 0.32863 0.49611 0.0
C538 C 0.57982 0.30277 0.46062 0.0
C539 C 0.57603 0.28514 0.48558 0.0
C540 C 0.55906 0.37275 0.47632 0.0
N541 N 0.56917 0.35767 0.45458 0.0
O542 O 0.54924 0.40322 0.53903 0.0
H543 H 0.58111 0.23856 0.4947 0.0
H544 H 0.54798 0.4111 0.477 0.0
O545 O 0.5801 0.28382 0.5406 0.0
C546 C 0.53209 0.41378 0.53074 0.0
O547 O 0.52364 0.36231 0.51887 0.0
N548 N 0.54863 0.21377 0.51663 0.0
C549 C 0.52318 0.11198 0.50522 0.0
C550 C 0.53598 0.10253 0.52545 0.0
C551 C 0.54897 0.1543 0.53066 0.0
C552 C 0.53798 0.21692 0.49446 0.0
C553 C 0.52588 0.16433 0.48757 0.0
H554 H 0.55627 0.15087 0.5485 0.0
H555 H 0.53612 0.26434 0.48398 0.0
H556 H 0.56332 0.29165 0.59296 0.0
H557 H 0.51063 0.19416 0.59738 0.0
H558 H 0.58905 0.2753 0.44738 0.0
H559 H 0.5342 0.06081 0.53917 0.0
H560 H 0.51614 0.1717 0.47165 0.0
C561 C 0.71349 0.99245 0.58862 0.0
C562 C 0.71421 0.02639 0.61208 0.0
N563 N 0.69661 0.04285 0.61944 0.0
N564 N 0.69546 0.98656 0.58029 0.0
C565 C 0.68544 0.01612 0.60028 0.0
H566 H 0.72572 0.9795 0.57749 0.0
Co567 Co 0.68799 0.96561 0.54399 0.0
C568 C 0.65795 0.08029 0.53357 0.0
O569 O 0.66746 0.09482 0.51245 0.0
N570 N 0.68014 0.94473 0.5087 0.0
C571 C 0.66029 0.93061 0.47527 0.0
C572 C 0.66178 0.94023 0.50166 0.0
C573 C 0.68945 0.93335 0.4859 0.0
N574 N 0.67776 0.92672 0.46536 0.0
O575 O 0.7105 0.89463 0.53972 0.0
H576 H 0.65002 0.94472 0.51487 0.0
H577 H 0.70444 0.92758 0.48387 0.0
O578 O 0.66421 0.03051 0.54808 0.0
C579 C 0.72873 0.88862 0.53727 0.0
O580 O 0.73927 0.9443 0.53777 0.0
N581 N 0.70262 0.04229 0.53277 0.0
C582 C 0.72117 0.16409 0.52191 0.0
C583 C 0.70752 0.16276 0.54092 0.0
C584 C 0.69885 0.10138 0.54631 0.0
C585 C 0.71591 0.04367 0.51358 0.0
C586 C 0.72542 0.10465 0.50769 0.0
H587 H 0.68885 0.10191 0.56147 0.0
H588 H 0.72035 0.99784 0.50375 0.0
H589 H 0.67028 0.02107 0.6002 0.0
H590 H 0.7269 0.0425 0.62205 0.0
H591 H 0.64738 0.92691 0.46419 0.0
H592 H 0.70428 0.20823 0.5525 0.0
H593 H 0.73661 0.10454 0.49341 0.0
C594 C 0.52512 0.06941 0.73783 0.0
C595 C 0.52368 0.09876 0.71369 0.0
N596 N 0.5411 0.10782 0.70409 0.0
N597 N 0.5434 0.0588 0.74407 0.0
C598 C 0.55288 0.08264 0.72276 0.0
H599 H 0.51339 0.05926 0.75059 0.0
Co600 Co 0.54924 0.02739 0.77903 0.0
C601 C 0.5894 0.05699 0.78969 0.0
O602 O 0.58215 0.07618 0.81202 0.0
N603 N 0.55408 0.99306 0.81378 0.0
C604 C 0.56702 0.91956 0.8421 0.0
C605 C 0.5668 0.94132 0.81692 0.0
C606 C 0.54643 1.00058 0.83792 0.0
N607 N 0.55422 0.95647 0.85539 0.0
O608 O 0.5442 0.93059 0.76914 0.0
H609 H 0.57522 0.91925 0.80149 0.0
H610 H 0.53502 0.03552 0.84266 0.0
O611 O 0.57813 0.02975 0.77256 0.0
C612 C 0.52711 0.92014 0.7769 0.0
O613 O 0.51795 0.97242 0.78735 0.0
N614 N 0.55056 0.12001 0.78888 0.0
C615 C 0.54205 0.25892 0.79016 0.0
C616 C 0.55817 0.23651 0.77732 0.0
C617 C 0.56182 0.16629 0.77615 0.0
C618 C 0.53575 0.14245 0.80342 0.0
C619 C 0.53137 0.21248 0.80469 0.0
H620 H 0.5723 0.14957 0.76243 0.0
H621 H 0.52583 0.10573 0.81114 0.0
H622 H 0.56804 0.08398 0.72124 0.0
H623 H 0.51076 0.11418 0.70414 0.0
H624 H 0.57566 0.87853 0.85002 0.0
H625 H 0.56613 0.27141 0.76515 0.0
H626 H 0.51838 0.22891 0.81396 0.0
C627 C 0.69914 0.34339 0.72155 0.0
C628 C 0.70083 0.30555 0.69894 0.0
N629 N 0.69111 0.24631 0.70144 0.0
N630 N 0.689 0.30801 0.73918 0.0
C631 C 0.68349 0.25044 0.72552 0.0
H632 H 0.70473 0.39452 0.72459 0.0
Co633 Co 0.68458 0.33742 0.77513 0.0
C634 C 0.65334 0.24291 0.79322 0.0
O635 O 0.66323 0.23625 0.81455 0.0
N636 N 0.67951 0.3686 0.80999 0.0
C637 C 0.66452 0.43549 0.83889 0.0
C638 C 0.66605 0.41738 0.81317 0.0
C639 C 0.68605 0.35795 0.83459 0.0
N640 N 0.67706 0.39822 0.8525 0.0
O641 O 0.70775 0.40313 0.77472 0.0
H642 H 0.65787 0.43901 0.7975 0.0
H643 H 0.69708 0.3217 0.8395 0.0
O644 O 0.66045 0.28113 0.77547 0.0
C645 C 0.72537 0.40649 0.7681 0.0
O646 O 0.7334 0.35185 0.75756 0.0
N647 N 0.69923 0.25982 0.78673 0.0
C648 C 0.72336 0.14739 0.79095 0.0
C649 C 0.70528 0.13834 0.78159 0.0
C650 C 0.69355 0.1948 0.77956 0.0
C651 C 0.71622 0.26736 0.79895 0.0
C652 C 0.72878 0.21165 0.80089 0.0
H653 H 0.68026 0.18459 0.7708 0.0
H654 H 0.72063 0.31685 0.80622 0.0
H655 H 0.67382 0.21204 0.73257 0.0
H656 H 0.70847 0.32088 0.68178 0.0
H657 H 0.65499 0.47368 0.84703 0.0
H658 H 0.70065 0.08858 0.77422 0.0
H659 H 0.74275 0.21927 0.80887 0.0
C660 C 0.47393 0.76691 0.48978 0.0
C661 C 0.47476 0.80155 0.46649 0.0
N662 N 0.45776 0.82936 0.46153 0.0
N663 N 0.45655 0.77272 0.50038 0.0
C664 C 0.44691 0.81036 0.48212 0.0
H665 H 0.48579 0.74229 0.49909 0.0
Co666 Co 0.45046 0.73527 0.53503 0.0
C667 C 0.40991 0.76823 0.54437 0.0
O668 O 0.41657 0.78049 0.56764 0.0
N669 N 0.44431 0.69468 0.56828 0.0
C670 C 0.42753 0.62434 0.59362 0.0
C671 C 0.43176 0.64209 0.56862 0.0
C672 C 0.44819 0.7052 0.59388 0.0
N673 N 0.43787 0.66381 0.60965 0.0
O674 O 0.45747 0.63948 0.52307 0.0
H675 H 0.42537 0.61978 0.55153 0.0
H676 H 0.45776 0.74367 0.6013 0.0
O677 O 0.42151 0.74215 0.52723 0.0
C678 C 0.47454 0.63187 0.53206 0.0
O679 O 0.48183 0.68405 0.54492 0.0
N680 N 0.44918 0.82542 0.54807 0.0
C681 C 0.46501 0.9533 0.54597 0.0
C682 C 0.44754 0.94257 0.53439 0.0
C683 C 0.43961 0.87755 0.53598 0.0
C684 C 0.4641 0.84019 0.56377 0.0
C685 C 0.47174 0.90625 0.56418 0.0
H686 H 0.42779 0.8676 0.5236 0.0
H687 H 0.47262 0.799 0.57151 0.0
H688 H 0.43237 0.82546 0.48395 0.0
H689 H 0.48714 0.80774 0.45448 0.0
H690 H 0.41738 0.58585 0.59962 0.0
H691 H 0.44178 0.97947 0.52077 0.0
H692 H 0.48528 0.91429 0.57342 0.0
C693 C 0.30416 0.09174 0.47866 0.0
C694 C 0.30321 0.05647 0.45543 0.0
N695 N 0.31374 0.99862 0.45709 0.0
N696 N 0.31448 0.05538 0.49589 0.0
C697 C 0.32093 1.00077 0.48139 0.0
H698 H 0.29793 0.14181 0.48229 0.0
Co699 Co 0.319 0.07729 0.5323 0.0
C700 C 0.34868 0.97099 0.54841 0.0
O701 O 0.33825 0.96361 0.56924 0.0
N702 N 0.32463 0.10069 0.56752 0.0
C703 C 0.34336 0.14563 0.59796 0.0
C704 C 0.34116 0.13303 0.57195 0.0
C705 C 0.31682 0.09514 0.5916 0.0
N706 N 0.32807 0.12196 0.61047 0.0
O707 O 0.29629 0.14827 0.53381 0.0
H708 H 0.35117 0.14619 0.55697 0.0
H709 H 0.30335 0.07152 0.59555 0.0
O710 O 0.34255 0.01418 0.5314 0.0
C711 C 0.27893 0.15654 0.52614 0.0
O712 O 0.27114 0.10715 0.51227 0.0
N713 N 0.30309 1.00123 0.54199 0.0
C714 C 0.27734 0.89344 0.54438 0.0
C715 C 0.29535 0.88166 0.53505 0.0
C716 C 0.30777 0.93612 0.5335 0.0
C717 C 0.28612 0.01102 0.55415 0.0
C718 C 0.27272 0.95795 0.55498 0.0
H719 H 0.32078 0.92453 0.52409 0.0
H720 H 0.28235 0.06065 0.56218 0.0
H721 H 0.33086 0.96267 0.48815 0.0
H722 H 0.29552 0.07272 0.4384 0.0
H723 H 0.35531 0.17053 0.60709 0.0
H724 H 0.2993 0.83182 0.52693 0.0
H725 H 0.25878 0.96787 0.56275 0.0
C726 C 0.47472 0.03313 0.3369 0.0
C727 C 0.47486 0.0042 0.3612 0.0
N728 N 0.45701 0.99412 0.36917 0.0
N729 N 0.45684 0.04254 0.32868 0.0
C730 C 0.44628 0.0189 0.34913 0.0
H731 H 0.48709 0.04079 0.32507 0.0
Co732 Co 0.45195 0.0532 0.29163 0.0
C733 C 0.40936 0.05546 0.28313 0.0
O734 O 0.40935 0.09203 0.26181 0.0
N735 N 0.44783 0.06002 0.25411 0.0
C736 C 0.44205 0.02658 0.21327 0.0
C737 C 0.44324 0.00602 0.23852 0.0
C738 C 0.44951 0.11356 0.23697 0.0
N739 N 0.44601 0.09419 0.21203 0.0
O740 O 0.45866 0.1551 0.29274 0.0
H741 H 0.44033 0.95394 0.2447 0.0
H742 H 0.45325 0.16575 0.2425 0.0
O743 O 0.42374 0.05956 0.29843 0.0
C744 C 0.47642 0.16295 0.28717 0.0
O745 O 0.48629 0.10632 0.28308 0.0
N746 N 0.44928 0.95838 0.29047 0.0
C747 C 0.4551 0.81971 0.29847 0.0
C748 C 0.43795 0.84932 0.30557 0.0
C749 C 0.43537 0.91971 0.30168 0.0
C750 C 0.46544 0.92847 0.28168 0.0
C751 C 0.4685 0.85844 0.28504 0.0
H752 H 0.42317 0.94301 0.31047 0.0
H753 H 0.47645 0.96033 0.27356 0.0
H754 H 0.43105 0.01575 0.34865 0.0
H755 H 0.48731 0.98831 0.37178 0.0
H756 H 0.43855 0.99401 0.19688 0.0
H757 H 0.42765 0.82025 0.3165 0.0
H758 H 0.48202 0.83622 0.27967 0.0
C759 C 0.30023 0.72004 0.3481 0.0
C760 C 0.29938 0.75218 0.37192 0.0
N761 N 0.31388 0.79641 0.37409 0.0
N762 N 0.31498 0.74403 0.33419 0.0
C763 C 0.3235 0.78867 0.35135 0.0
H764 H 0.29007 0.68313 0.34145 0.0
Co765 Co 0.31936 0.72917 0.29651 0.0
C766 C 0.34469 0.86743 0.29211 0.0
O767 O 0.33166 0.90434 0.28052 0.0
N768 N 0.32414 0.7146 0.25976 0.0
C769 C 0.33056 0.74013 0.21846 0.0
C770 C 0.33124 0.76281 0.24354 0.0
C771 C 0.31934 0.66191 0.24332 0.0
N772 N 0.32294 0.67693 0.21812 0.0
O773 O 0.29842 0.65022 0.29523 0.0
H774 H 0.33579 0.81353 0.24881 0.0
H775 H 0.31248 0.61513 0.24933 0.0
O776 O 0.34134 0.80307 0.29797 0.0
C777 C 0.28009 0.64398 0.29601 0.0
O778 O 0.27001 0.70061 0.29876 0.0
N779 N 0.30124 0.79716 0.28819 0.0
C780 C 0.27334 0.89501 0.28134 0.0
C781 C 0.28656 0.9032 0.30081 0.0
C782 C 0.30042 0.85407 0.30363 0.0
C783 C 0.28897 0.79071 0.26787 0.0
C784 C 0.27465 0.83937 0.26414 0.0
H785 H 0.31128 0.86426 0.31718 0.0
H786 H 0.28941 0.74599 0.25537 0.0
H787 H 0.33575 0.81918 0.34659 0.0
H788 H 0.28843 0.74537 0.38628 0.0
H789 H 0.33474 0.76901 0.20151 0.0
H790 H 0.28627 0.94781 0.31361 0.0
H791 H 0.26456 0.83293 0.24861 0.0
C792 C 0.55483 0.86319 0.09151 0.0
C793 C 0.55411 0.83745 0.11646 0.0
N794 N 0.54951 0.77008 0.11523 0.0
N795 N 0.55119 0.81198 0.07428 0.0
C796 C 0.54727 0.7568 0.08968 0.0
H797 H 0.55885 0.91522 0.0863 0.0
Co798 Co 0.55254 0.81636 0.03673 0.0
C799 C 0.59483 0.81376 0.05289 0.0
O800 O 0.59025 0.81336 0.07741 0.0
N801 N 0.55367 0.82061 0.99938 0.0
C802 C 0.56298 0.79557 0.95901 0.0
C803 C 0.56357 0.77556 0.98449 0.0
C804 C 0.547 0.86761 0.98196 0.0
N805 N 0.55262 0.8536 0.95737 0.0
O806 O 0.54706 0.91811 0.03827 0.0
H807 H 0.57131 0.73144 0.99169 0.0
H808 H 0.53855 0.91218 0.98697 0.0
O809 O 0.58132 0.82149 0.03641 0.0
C810 C 0.52896 0.92589 0.03662 0.0
O811 O 0.51893 0.86955 0.03304 0.0
N812 N 0.55432 0.71894 0.03544 0.0
C813 C 0.54558 0.58476 0.04948 0.0
C814 C 0.56383 0.60952 0.05322 0.0
C815 C 0.56808 0.67696 0.04558 0.0
C816 C 0.53727 0.69219 0.0288 0.0
C817 C 0.53264 0.62479 0.03547 0.0
H818 H 0.58164 0.69611 0.05085 0.0
H819 H 0.52654 0.72565 0.02076 0.0
H820 H 0.54299 0.70729 0.08244 0.0
H821 H 0.55739 0.86542 0.13407 0.0
H822 H 0.56998 0.77027 0.94291 0.0
H823 H 0.57413 0.57955 0.06388 0.0
H824 H 0.51843 0.60645 0.03199 0.0
C825 C 0.7144 0.50904 0.08431 0.0
C826 C 0.71704 0.53932 0.10819 0.0
N827 N 0.70135 0.57404 0.11477 0.0
N828 N 0.69711 0.52458 0.07475 0.0
C829 C 0.68921 0.5621 0.09472 0.0
H830 H 0.72501 0.47897 0.0747 0.0
Co831 Co 0.68824 0.50703 0.03853 0.0
C832 C 0.65956 0.62805 0.03021 0.0
O833 O 0.66809 0.63996 1.00811 0.0
N834 N 0.67901 0.486 1.00373 0.0
C835 C 0.6582 0.46841 0.97169 0.0
C836 C 0.66053 0.48698 0.99729 0.0
C837 C 0.68742 0.46099 0.98169 0.0
N838 N 0.67517 0.45258 0.96169 0.0
O839 O 0.70972 0.43437 0.03203 0.0
H840 H 0.64921 0.49888 1.01059 0.0
H841 H 0.7021 0.44643 0.98027 0.0
O842 O 0.66566 0.57715 0.04437 0.0
C843 C 0.72787 0.43092 0.02863 0.0
O844 O 0.73798 0.48743 0.03105 0.0
N845 N 0.70337 0.58179 0.02644 0.0
C846 C 0.72576 0.69538 1.01604 0.0
C847 C 0.71305 0.6975 0.0363 0.0
C848 C 0.70235 0.64015 0.04133 0.0
C849 C 0.71484 0.58145 1.00512 0.0
C850 C 0.72652 0.63773 0.99975 0.0
H851 H 0.69346 0.6432 0.05771 0.0
H852 H 0.71631 0.53661 0.99317 0.0
H853 H 0.67508 0.58278 0.09419 0.0
H854 H 0.72986 0.53793 0.11954 0.0
H855 H 0.64498 0.46595 0.96125 0.0
H856 H 0.71224 0.74183 0.04921 0.0
H857 H 0.73655 0.63501 0.98397 0.0
C858 C 0.54389 0.48027 0.22238 0.0
C859 C 0.54135 0.51081 0.19849 0.0
N860 N 0.54892 0.57435 0.19926 0.0
N861 N 0.55269 0.52449 0.23875 0.0
C862 C 0.556 0.58078 0.22347 0.0
H863 H 0.53978 0.42827 0.22708 0.0
Co864 Co 0.56046 0.50841 0.27452 0.0
C865 C 0.58427 0.65143 0.27342 0.0
O866 O 0.57073 0.69221 0.2818 0.0
N867 N 0.56914 0.49443 0.30957 0.0
C868 C 0.57566 0.53017 0.34972 0.0
C869 C 0.57395 0.54934 0.32447 0.0
C870 C 0.56841 0.44106 0.32677 0.0
N871 N 0.572 0.4624 0.35146 0.0
O872 O 0.5414 0.42453 0.27811 0.0
H873 H 0.57413 0.60212 0.31821 0.0
H874 H 0.56387 0.38933 0.32173 0.0
O875 O 0.58086 0.58584 0.2706 0.0
C876 C 0.52336 0.41651 0.27434 0.0
O877 O 0.51362 0.46876 0.26513 0.0
N878 N 0.54103 0.56805 0.28776 0.0
C879 C 0.50864 0.63223 0.30634 0.0
C880 C 0.51823 0.65962 0.28512 0.0
C881 C 0.53455 0.62694 0.27622 0.0
C882 C 0.53182 0.54364 0.30921 0.0
C883 C 0.51589 0.57551 0.31904 0.0
H884 H 0.5414 0.64873 0.25975 0.0
H885 H 0.53568 0.49563 0.31799 0.0
H886 H 0.56329 0.62669 0.22983 0.0
H887 H 0.53465 0.48781 0.18173 0.0
H888 H 0.57837 0.56434 0.36595 0.0
H889 H 0.51279 0.70448 0.27504 0.0
H890 H 0.50861 0.55341 0.33547 0.0
C891 C 0.72308 0.74103 0.24779 0.0
C892 C 0.7247 0.70952 0.22389 0.0
N893 N 0.71072 0.73241 0.20856 0.0
N894 N 0.7078 0.78274 0.24855 0.0
C895 C 0.70137 0.77987 0.22353 0.0
H896 H 0.73167 0.72992 0.26436 0.0
Co897 Co 0.69811 0.81879 0.28187 0.0
C898 C 0.65911 0.77541 0.25386 0.0
O899 O 0.66757 0.73512 0.23711 0.0
N900 N 0.68834 0.85325 0.31477 0.0
C901 C 0.66937 0.8465 0.34928 0.0
C902 C 0.67204 0.82705 0.32409 0.0
C903 C 0.6956 0.88811 0.33561 0.0
N904 N 0.6842 0.8843 0.35685 0.0
O905 O 0.70602 0.9159 0.27146 0.0
H906 H 0.66366 0.78839 0.31441 0.0
H907 H 0.70964 0.90991 0.33598 0.0
O908 O 0.66947 0.81322 0.2693 0.0
C909 C 0.7236 0.92115 0.27898 0.0
O910 O 0.73092 0.86721 0.29069 0.0
N911 N 0.69677 0.72807 0.29531 0.0
C912 C 0.71908 0.61392 0.30205 0.0
C913 C 0.70458 0.61228 0.28373 0.0
C914 C 0.69287 0.66978 0.28143 0.0
C915 C 0.70806 0.72305 0.31675 0.0
C916 C 0.71851 0.66368 0.32147 0.0
H917 H 0.68325 0.67017 0.26578 0.0
H918 H 0.71199 0.76811 0.32769 0.0
H919 H 0.68937 0.80915 0.21667 0.0
H920 H 0.73461 0.66896 0.21877 0.0
H921 H 0.65821 0.82867 0.3619 0.0
H922 H 0.70385 0.57147 0.26932 0.0
H923 H 0.72892 0.66379 0.33681 0.0
C924 C 0.45367 0.23337 0.97733 0.0
C925 C 0.45501 0.26642 0.95384 0.0
N926 N 0.44577 0.32727 0.95531 0.0
N927 N 0.44426 0.27378 0.9945 0.0
C928 C 0.43912 0.32971 0.97997 0.0
H929 H 0.45991 0.18374 0.9817 0.0
Co930 Co 0.4412 0.25203 0.03116 0.0
C931 C 0.41827 0.38959 0.03325 0.0
O932 O 0.43374 0.42639 0.03125 0.0
N933 N 0.43665 0.22519 0.06671 0.0
C934 C 0.41878 0.18713 0.09933 0.0
C935 C 0.41902 0.20707 0.07378 0.0
C936 C 0.44699 0.21446 0.0887 0.0
N937 N 0.43637 0.19213 0.10892 0.0
O938 O 0.46237 0.17795 0.0291 0.0
H939 H 0.40698 0.20796 0.06096 0.0
H940 H 0.46194 0.22379 0.09024 0.0
O941 O 0.41946 0.32282 0.03357 0.0
C942 C 0.47889 0.17071 0.03954 0.0
O943 O 0.48532 0.21892 0.05509 0.0
N944 N 0.45937 0.32033 0.04089 0.0
C945 C 0.48996 0.39962 0.05733 0.0
C946 C 0.48857 0.37743 0.03167 0.0
C947 C 0.4738 0.33531 0.02424 0.0
C948 C 0.45923 0.35023 0.06495 0.0
C949 C 0.47505 0.38527 0.07424 0.0
H950 H 0.475 0.3119 1.00549 0.0
H951 H 0.44723 0.34489 0.07761 0.0
H952 H 0.43107 0.37285 0.98714 0.0
H953 H 0.46245 0.24731 0.93694 0.0
H954 H 0.40655 0.17042 0.11015 0.0
H955 H 0.4996 0.38836 1.01776 0.0
H956 H 0.4755 0.4013 0.09432 0.0
C957 C 0.28316 0.46445 1.0002 0.0
C958 C 0.28353 0.42632 0.97757 0.0
N959 N 0.30076 0.43141 0.96679 0.0
N960 N 0.30005 0.49451 1.00433 0.0
C961 C 0.31048 0.47366 0.98334 0.0
H962 H 0.27146 0.4673 1.0136 0.0
Co963 Co 0.3051 0.53811 0.0376 0.0
C964 C 0.34732 0.54182 0.04405 0.0
O965 O 0.34319 0.53054 0.06839 0.0
N966 N 0.30936 0.5814 0.07094 0.0
C967 C 0.31848 0.66467 0.09839 0.0
C968 C 0.31627 0.64642 0.07282 0.0
C969 C 0.30731 0.56172 0.09614 0.0
N970 N 0.31286 0.61145 0.11305 0.0
O971 O 0.29424 0.62954 0.02546 0.0
H972 H 0.31998 0.67829 0.05647 0.0
H973 H 0.30229 0.51187 0.10233 0.0
O974 O 0.33338 0.55286 0.02813 0.0
C975 C 0.27705 0.63646 0.03395 0.0
O976 O 0.26976 0.58382 0.04641 0.0
N977 N 0.31152 0.451 0.05003 0.0
C978 C 0.31137 0.31022 0.0603 0.0
C979 C 0.32669 0.3402 0.04762 0.0
C980 C 0.32577 0.40959 0.041 0.0
C981 C 0.2975 0.42396 0.06467 0.0
C982 C 0.29726 0.35402 0.07044 0.0
H983 H 0.33549 0.42717 0.02654 0.0
H984 H 0.28546 0.4557 0.0698 0.0
H985 H 0.32509 0.48638 0.98068 0.0
H986 H 0.2721 0.39535 0.96994 0.0
H987 H 0.32408 0.71297 0.10572 0.0
H988 H 0.33802 0.30906 0.0398 0.0
H989 H 0.2848 0.33365 0.07981 0.0
C990 C 0.45859 0.61458 0.84926 0.0
C991 C 0.46 0.57971 0.87231 0.0
N992 N 0.44756 0.52743 0.87227 0.0
N993 N 0.4462 0.58278 0.83328 0.0
C994 C 0.4389 0.53238 0.84884 0.0
H995 H 0.4657 0.66237 0.84542 0.0
Co996 Co 0.4398 0.60598 0.79722 0.0
C997 C 0.41701 0.48011 0.78039 0.0
O998 O 0.4282 0.47382 0.76027 0.0
N999 N 0.43206 0.63159 0.76287 0.0
C1000 C 0.41581 0.69419 0.73418 0.0
C1001 C 0.41872 0.68091 0.76007 0.0
C1002 C 0.43669 0.61485 0.73798 0.0
N1003 N 0.42753 0.65373 0.72023 0.0
O1004 O 0.45914 0.68639 0.79669 0.0
H1005 H 0.41177 0.70678 0.77604 0.0
H1006 H 0.44654 0.57483 0.73243 0.0
O1007 O 0.42009 0.52908 0.79688 0.0
C1008 C 0.47727 0.68916 0.79991 0.0
O1009 O 0.48613 0.63358 0.80811 0.0
N1010 N 0.4588 0.54547 0.78429 0.0
C1011 C 0.49091 0.46899 0.77409 0.0
C1012 C 0.47713 0.44312 0.79068 0.0
C1013 C 0.46108 0.48226 0.79544 0.0
C1014 C 0.47159 0.56765 0.76623 0.0
C1015 C 0.48789 0.53045 0.76102 0.0
H1016 H 0.45082 0.46261 0.80871 0.0
H1017 H 0.47026 0.61762 0.75731 0.0
H1018 H 0.42726 0.50012 0.84335 0.0
H1019 H 0.46921 0.59304 0.88825 0.0
H1020 H 0.40632 0.73255 0.72624 0.0
H1021 H 0.47913 0.39437 0.8006 0.0
H1022 H 0.4984 0.55096 0.74793 0.0
C1023 C 0.3096 0.16319 0.85315 0.0
C1024 C 0.30692 0.19267 0.87733 0.0
N1025 N 0.31391 0.25716 0.87715 0.0
N1026 N 0.31787 0.20863 0.83689 0.0
C1027 C 0.32093 0.26483 0.85282 0.0
H1028 H 0.30568 0.11106 0.84789 0.0
Co1029 Co 0.3228 0.18701 0.79978 0.0
C1030 C 0.35195 0.28948 0.78209 0.0
O1031 O 0.34061 0.29965 0.76237 0.0
N1032 N 0.32825 0.16284 0.76431 0.0
C1033 C 0.34471 0.10764 0.73354 0.0
C1034 C 0.34315 0.121 0.75966 0.0
C1035 C 0.32093 0.17411 0.74021 0.0
N1036 N 0.33066 0.14074 0.72122 0.0
O1037 O 0.30055 0.11861 0.79813 0.0
H1038 H 0.35234 0.10097 0.77455 0.0
H1039 H 0.30879 0.206 0.7362 0.0
O1040 O 0.34644 0.24744 0.79989 0.0
C1041 C 0.28287 0.11282 0.80383 0.0
O1042 O 0.27449 0.16381 0.81627 0.0
N1043 N 0.30716 0.26324 0.79005 0.0
C1044 C 0.28399 0.37604 0.78109 0.0
C1045 C 0.30067 0.38449 0.79454 0.0
C1046 C 0.31194 0.32771 0.79887 0.0
C1047 C 0.29093 0.25532 0.77601 0.0
C1048 C 0.27901 0.31133 0.77136 0.0
H1049 H 0.32476 0.33747 0.809 0.0
H1050 H 0.28693 0.20593 0.76824 0.0
H1051 H 0.32839 0.31084 0.8474 0.0
H1052 H 0.3002 0.16859 0.89377 0.0
H1053 H 0.35524 0.07528 0.72427 0.0
H1054 H 0.30481 0.43464 0.80209 0.0
H1055 H 0.26601 0.30414 0.76069 0.0
C1056 C 0.07217 0.17197 0.17817 0.0
C1057 C 0.05778 0.12025 0.1779 0.0
C1058 C 0.04791 0.16246 0.13479 0.0
C1059 C 0.06261 0.2122 0.13474 0.0
N1060 N 0.09185 0.25023 0.15323 0.0
N1061 N 0.0362 0.05406 0.15198 0.0
C1062 C 0.0757 0.21246 0.1555 0.0
C1063 C 0.04705 0.11175 0.15484 0.0
N1064 N 0.08191 0.18555 0.2003 0.0
N1065 N 0.03409 0.16591 0.11649 0.0
H1066 H 0.03592 0.01506 0.16587 0.0
H1067 H 0.02929 0.04143 0.13482 0.0
H1068 H 0.03373 0.20446 0.10251 0.0
H1069 H 0.02206 0.13509 0.1168 0.0
H1070 H 0.09078 0.22802 0.20254 0.0
H1071 H 0.08003 0.15778 0.21712 0.0
H1072 H 0.10293 0.24741 0.1664 0.0
H1073 H 0.09497 0.27873 0.13669 0.0
C1074 C 0.19931 0.08302 0.15354 0.0
C1075 C 0.20793 0.10942 0.13086 0.0
C1076 C 0.20829 0.22556 0.15145 0.0
C1077 C 0.20188 0.19776 0.17521 0.0
N1078 N 0.19289 0.0976 0.19955 0.0
N1079 N 0.22292 0.20452 0.10966 0.0
C1080 C 0.19757 0.12583 0.17632 0.0
C1081 C 0.21282 0.18068 0.13015 0.0
N1082 N 0.19287 0.01659 0.15324 0.0
N1083 N 0.2102 0.29556 0.14949 0.0
H1084 H 0.22688 0.17202 0.09455 0.0
H1085 H 0.22873 0.25384 0.10874 0.0
H1086 H 0.207 0.32881 0.16487 0.0
H1087 H 0.21323 0.32077 0.13224 0.0
H1088 H 0.18489 0.99515 0.16807 0.0
H1089 H 0.19437 0.98458 0.13704 0.0
H1090 H 0.19155 0.04469 0.20265 0.0
H1091 H 0.19146 0.12745 0.21623 0.0
C1092 C 0.95416 0.96845 0.90471 0.0
C1093 C 0.95062 0.94829 0.87864 0.0
C1094 C 0.9425 0.8318 0.89505 0.0
C1095 C 0.9492 0.84904 0.92024 0.0
N1096 N 0.96538 0.93266 0.94684 0.0
N1097 N 0.9447 0.85412 0.84901 0.0
C1098 C 0.95599 0.9173 0.92453 0.0
C1099 C 0.94552 0.87816 0.8738 0.0
N1100 N 0.95542 0.03706 0.91072 0.0
N1101 N 0.93274 0.7718 0.89147 0.0
H1102 H 0.94787 0.88485 0.83314 0.0
H1103 H 0.94281 0.80204 0.84442 0.0
H1104 H 0.92953 0.7387 0.90671 0.0
H1105 H 0.92609 0.7592 0.87412 0.0
H1106 H 0.95646 0.05526 0.92968 0.0
H1107 H 0.95321 0.07563 0.89699 0.0
H1108 H 0.97237 0.97941 0.94968 0.0
H1109 H 0.96809 0.89609 0.96111 0.0
C1110 C 0.81511 0.8366 0.90551 0.0
C1111 C 0.81906 0.85227 0.87919 0.0
C1112 C 0.82378 0.97473 0.89295 0.0
C1113 C 0.81652 0.96021 0.91786 0.0
N1114 N 0.80264 0.87739 0.94656 0.0
N1115 N 0.82708 0.94105 0.84808 0.0
C1116 C 0.8117 0.89091 0.9239 0.0
C1117 C 0.82364 0.92255 0.87301 0.0
N1118 N 0.81466 0.76898 0.9129 0.0
N1119 N 0.83121 0.03867 0.88851 0.0
H1120 H 0.82923 0.90567 0.83336 0.0
H1121 H 0.82735 0.99219 0.84185 0.0
H1122 H 0.83146 0.07715 0.90274 0.0
H1123 H 0.83862 0.05138 0.87181 0.0
H1124 H 0.81342 0.75359 0.9321 0.0
H1125 H 0.81765 0.72872 0.89998 0.0
H1126 H 0.79709 0.82914 0.95114 0.0
H1127 H 0.79893 0.91646 0.95952 0.0
C1128 C 0.05249 0.71855 0.65314 0.0
C1129 C 0.04747 0.68236 0.63028 0.0
C1130 C 0.04753 0.57297 0.65497 0.0
C1131 C 0.05174 0.60954 0.67816 0.0
N1132 N 0.06435 0.71381 0.69707 0.0
N1133 N 0.04391 0.5739 0.60814 0.0
C1134 C 0.05621 0.68129 0.67653 0.0
C1135 C 0.0462 0.60899 0.63087 0.0
N1136 N 0.05274 0.78914 0.65279 0.0
N1137 N 0.04454 0.5033 0.65631 0.0
H1138 H 0.04288 0.59923 0.59052 0.0
H1139 H 0.04434 0.52032 0.60635 0.0
H1140 H 0.04719 0.47523 0.67312 0.0
H1141 H 0.03919 0.47349 0.64123 0.0
H1142 H 0.05393 0.8196 0.66937 0.0
H1143 H 0.05038 0.81732 0.63593 0.0
H1144 H 0.06949 0.76418 0.69646 0.0
H1145 H 0.06764 0.68806 0.714 0.0
C1146 C 0.17874 0.63802 0.64106 0.0
C1147 C 0.19612 0.60851 0.6327 0.0
C1148 C 0.2125 0.67333 0.66731 0.0
C1149 C 0.1954 0.70768 0.67423 0.0
N1150 N 0.16255 0.72777 0.66602 0.0
N1151 N 0.22985 0.60513 0.63541 0.0
C1152 C 0.17858 0.69117 0.66062 0.0
C1153 C 0.21309 0.62845 0.64515 0.0
N1154 N 0.16234 0.61352 0.63075 0.0
N1155 N 0.22796 0.68074 0.6828 0.0
H1156 H 0.23058 0.57183 0.61949 0.0
H1157 H 0.24292 0.62303 0.64169 0.0
H1158 H 0.22779 0.71056 0.69965 0.0
H1159 H 0.24033 0.65223 0.68041 0.0
H1160 H 0.149 0.62742 0.63746 0.0
H1161 H 0.16214 0.57533 0.61643 0.0
H1162 H 0.15015 0.72359 0.65537 0.0
H1163 H 0.16213 0.7663 0.68022 0.0
C1164 C 0.93653 0.44774 0.39807 0.0
C1165 C 0.95088 0.4464 0.37897 0.0
C1166 C 0.9662 0.35079 0.40261 0.0
C1167 C 0.95403 0.36088 0.42424 0.0
N1168 N 0.92682 0.42121 0.44187 0.0
N1169 N 0.97998 0.39811 0.3634 0.0
C1170 C 0.93869 0.40893 0.42159 0.0
C1171 C 0.96577 0.3977 0.38123 0.0
N1172 N 0.9207 0.48616 0.39349 0.0
N1173 N 0.97794 0.29471 0.40237 0.0
H1174 H 0.98 0.43136 0.34757 0.0
H1175 H 0.99234 0.3693 0.36531 0.0
H1176 H 0.97784 0.25816 0.41716 0.0
H1177 H 0.98612 0.28043 0.38647 0.0
H1178 H 0.90864 0.48444 0.40497 0.0
H1179 H 0.91905 0.51531 0.37669 0.0
H1180 H 0.9169 0.46099 0.44227 0.0
H1181 H 0.9278 0.39571 0.45937 0.0
C1182 C 0.79406 0.35614 0.39616 0.0
C1183 C 0.80338 0.37106 0.37249 0.0
C1184 C 0.81989 0.46761 0.3949 0.0
C1185 C 0.80903 0.45742 0.41759 0.0
N1186 N 0.78367 0.39738 0.43846 0.0
N1187 N 0.82273 0.45013 0.34857 0.0
C1188 C 0.79565 0.40257 0.41792 0.0
C1189 C 0.81583 0.42888 0.37178 0.0
N1190 N 0.78363 0.29711 0.39773 0.0
N1191 N 0.83417 0.51474 0.39553 0.0
H1192 H 0.81925 0.42518 0.33144 0.0
H1193 H 0.83028 0.49572 0.34603 0.0
H1194 H 0.8372 0.54386 0.41206 0.0
H1195 H 0.84393 0.52049 0.38063 0.0
H1196 H 0.77774 0.2791 0.41486 0.0
H1197 H 0.78229 0.26304 0.38212 0.0
H1198 H 0.77239 0.36311 0.43915 0.0
H1199 H 0.78407 0.43188 0.45399 0.0
C1200 C 0.54561 0.2136 0.67713 0.0
C1201 C 0.54507 0.14028 0.67913 0.0
C1202 C 0.54496 0.13284 0.63133 0.0
C1203 C 0.54279 0.20593 0.6294 0.0
N1204 N 0.54035 0.31612 0.65062 0.0
N1205 N 0.54356 0.02968 0.65822 0.0
C1206 C 0.54319 0.24646 0.6524 0.0
C1207 C 0.54478 0.09989 0.65616 0.0
N1208 N 0.54853 0.2515 0.69907 0.0
N1209 N 0.54747 0.09508 0.60923 0.0
H1210 H 0.54413 0.00464 0.67605 0.0
H1211 H 0.54106 0.99674 0.64262 0.0
H1212 H 0.54786 0.11796 0.59103 0.0
H1213 H 0.55079 0.04259 0.60898 0.0
H1214 H 0.55036 0.30488 0.69931 0.0
H1215 H 0.55078 0.22796 0.71692 0.0
H1216 H 0.53852 0.34859 0.66654 0.0
H1217 H 0.53873 0.34088 0.63287 0.0
C1218 C 0.69602 0.1226 0.68691 0.0
C1219 C 0.68956 0.19124 0.68196 0.0
C1220 C 0.68763 0.16142 0.6357 0.0
C1221 C 0.69215 0.09097 0.64068 0.0
N1222 N 0.69795 0.00272 0.67213 0.0
N1223 N 0.6743 0.26842 0.65225 0.0
C1224 C 0.69533 0.07106 0.66675 0.0
C1225 C 0.68366 0.20782 0.65655 0.0
N1226 N 0.70405 0.10769 0.7102 0.0
N1227 N 0.68904 0.18628 0.61124 0.0
H1228 H 0.67076 0.30238 0.66724 0.0
H1229 H 0.66834 0.2807 0.63441 0.0
H1230 H 0.69448 0.1561 0.59642 0.0
H1231 H 0.68741 0.23842 0.60666 0.0
H1232 H 0.71068 0.06079 0.71419 0.0
H1233 H 0.70571 0.14461 0.72474 0.0
H1234 H 0.69874 0.98345 0.69087 0.0
H1235 H 0.69766 0.96479 0.65769 0.0
C1236 C 0.44622 0.84773 0.41618 0.0
C1237 C 0.45342 0.87512 0.43969 0.0
C1238 C 0.45873 0.98701 0.41751 0.0
C1239 C 0.45212 0.95904 0.39361 0.0
N1240 N 0.43435 0.86856 0.37279 0.0
N1241 N 0.46296 0.97419 0.46417 0.0
C1242 C 0.44417 0.89124 0.3938 0.0
C1243 C 0.4585 0.94609 0.44072 0.0
N1244 N 0.44211 0.77888 0.41496 0.0
N1245 N 0.46552 0.05302 0.41776 0.0
H1246 H 0.46261 0.945 0.48105 0.0
H1247 H 0.46562 0.02644 0.46733 0.0
H1248 H 0.46434 0.0855 0.40177 0.0
H1249 H 0.4726 0.0752 0.43333 0.0
H1250 H 0.43904 0.75278 0.39782 0.0
H1251 H 0.44295 0.74691 0.43113 0.0
H1252 H 0.42677 0.82253 0.37235 0.0
H1253 H 0.43234 0.89893 0.35654 0.0
C1254 C 0.31699 0.91911 0.39044 0.0
C1255 C 0.31635 0.84673 0.39521 0.0
C1256 C 0.31321 0.87435 0.44176 0.0
C1257 C 0.31632 0.94598 0.4369 0.0
N1258 N 0.32711 0.03081 0.40635 0.0
N1259 N 0.31831 0.75628 0.42691 0.0
C1260 C 0.32028 0.9663 0.41117 0.0
C1261 C 0.31598 0.82468 0.42141 0.0
N1262 N 0.31226 0.944 0.36681 0.0
N1263 N 0.30625 0.85376 0.46506 0.0
H1264 H 0.32094 0.71944 0.41252 0.0
H1265 H 0.31964 0.73787 0.44574 0.0
H1266 H 0.30237 0.88866 0.4795 0.0
H1267 H 0.3022 0.80299 0.46879 0.0
H1268 H 0.31132 0.99671 0.36277 0.0
H1269 H 0.30625 0.91208 0.35301 0.0
H1270 H 0.33137 0.0462 0.38795 0.0
H1271 H 0.33055 0.06531 0.42118 0.0
C1272 C 0.53303 0.71332 0.15207 0.0
C1273 C 0.54937 0.72066 0.13648 0.0
C1274 C 0.56528 0.62975 0.16209 0.0
C1275 C 0.54926 0.62486 0.17842 0.0
N1276 N 0.51866 0.66596 0.19103 0.0
N1277 N 0.58163 0.69079 0.12762 0.0
C1278 C 0.53332 0.66784 0.17391 0.0
C1279 C 0.56566 0.68003 0.14179 0.0
N1280 N 0.51708 0.74879 0.14542 0.0
N1281 N 0.57993 0.58481 0.16574 0.0
H1282 H 0.58207 0.7258 0.1124 0.0
H1283 H 0.59465 0.66837 0.13165 0.0
H1284 H 0.58005 0.54879 0.18071 0.0
H1285 H 0.59144 0.58025 0.15336 0.0
H1286 H 0.50403 0.74183 0.15421 0.0
H1287 H 0.5167 0.78261 0.12975 0.0
H1288 H 0.5072 0.6997 0.19056 0.0
H1289 H 0.51857 0.63287 0.20692 0.0
C1290 C 0.70861 0.68694 0.13667 0.0
C1291 C 0.69985 0.62066 0.13719 0.0
C1292 C 0.69579 0.63334 0.18456 0.0
C1293 C 0.70492 0.69905 0.18421 0.0
N1294 N 0.71768 0.79261 0.15976 0.0
N1295 N 0.68246 0.53571 0.16058 0.0
C1296 C 0.71046 0.72725 0.16007 0.0
C1297 C 0.69251 0.59583 0.16089 0.0
N1298 N 0.71573 0.70994 0.11375 0.0
N1299 N 0.69096 0.60561 0.20785 0.0
H1300 H 0.68028 0.50745 0.1436 0.0
H1301 H 0.67522 0.51622 0.17645 0.0
H1302 H 0.69267 0.63253 0.22514 0.0
H1303 H 0.68607 0.55541 0.21033 0.0
H1304 H 0.72386 0.75428 0.11175 0.0
H1305 H 0.71391 0.68264 0.09648 0.0
H1306 H 0.72093 0.8196 0.143 0.0
H1307 H 0.71941 0.8217 0.17665 0.0
C1308 C 0.44449 0.49956 0.91939 0.0
C1309 C 0.44481 0.47724 0.89312 0.0
C1310 C 0.44051 0.35813 0.90883 0.0
C1311 C 0.44421 0.37901 0.93476 0.0
N1312 N 0.45446 0.47212 0.96284 0.0
N1313 N 0.44803 0.37959 0.86406 0.0
C1314 C 0.4474 0.4506 0.93964 0.0
C1315 C 0.44403 0.40487 0.88809 0.0
N1316 N 0.44096 0.56726 0.92517 0.0
N1317 N 0.43317 0.29431 0.90389 0.0
H1318 H 0.45281 0.41086 0.84914 0.0
H1319 H 0.44896 0.32676 0.86007 0.0
H1320 H 0.4291 0.26087 0.91862 0.0
H1321 H 0.429 0.2788 0.88541 0.0
H1322 H 0.43925 0.58504 0.94411 0.0
H1323 H 0.43742 0.60329 0.91101 0.0
H1324 H 0.4583 0.52332 0.96639 0.0
H1325 H 0.45878 0.43799 0.9772 0.0
C1326 C 0.32053 0.34144 0.94357 0.0
C1327 C 0.30673 0.39524 0.94302 0.0
C1328 C 0.29889 0.36129 0.89787 0.0
C1329 C 0.3127 0.30785 0.89836 0.0
N1330 N 0.33899 0.2551 0.91969 0.0
N1331 N 0.28606 0.46607 0.91766 0.0
C1332 C 0.32428 0.30077 0.92066 0.0
C1333 C 0.29694 0.40792 0.91947 0.0
N1334 N 0.32943 0.32702 0.96632 0.0
N1335 N 0.28703 0.36554 0.87714 0.0
H1336 H 0.28483 0.5015 0.93287 0.0
H1337 H 0.27978 0.48261 0.90057 0.0
H1338 H 0.28819 0.33281 0.86112 0.0
H1339 H 0.27531 0.39804 0.87649 0.0
H1340 H 0.33861 0.28556 0.96889 0.0
H1341 H 0.32672 0.3542 0.98336 0.0
H1342 H 0.34918 0.25063 0.93405 0.0
H1343 H 0.34181 0.22516 0.90327 0.0
C1344 C 0.08454 0.43798 0.92107 0.0
C1345 C 0.06998 0.40189 0.9341 0.0
C1346 C 0.04826 0.42826 0.89835 0.0
C1347 C 0.06322 0.45905 0.8843 0.0
N1348 N 0.09577 0.49113 0.88131 0.0
N1349 N 0.03893 0.35237 0.93337 0.0
C1350 C 0.08147 0.46291 0.89541 0.0
C1351 C 0.05206 0.39433 0.92225 0.0
N1352 N 0.10109 0.45022 0.93378 0.0
N1353 N 0.03025 0.43396 0.88926 0.0
H1354 H 0.04133 0.32681 0.95079 0.0
H1355 H 0.02631 0.33878 0.92444 0.0
H1356 H 0.02708 0.45881 0.87194 0.0
H1357 H 0.01842 0.41911 0.89978 0.0
H1358 H 0.11192 0.48075 0.92655 0.0
H1359 H 0.10339 0.4338 0.95272 0.0
H1360 H 0.10986 0.4905 0.88692 0.0
H1361 H 0.09357 0.51193 0.86299 0.0
C1362 C 0.17747 0.87532 0.8934 0.0
C1363 C 0.19413 0.85727 0.87974 0.0
C1364 C 0.21333 0.89786 0.91644 0.0
C1365 C 0.19668 0.91328 0.93056 0.0
N1366 N 0.16301 0.91201 0.93411 0.0
N1367 N 0.22772 0.84017 0.87951 0.0
C1368 C 0.17875 0.90039 0.91943 0.0
C1369 C 0.21202 0.86531 0.89169 0.0
N1370 N 0.16048 0.86846 0.88123 0.0
N1371 N 0.23038 0.9175 0.92627 0.0
H1372 H 0.22727 0.8182 0.86106 0.0
H1373 H 0.24094 0.83724 0.8882 0.0
H1374 H 0.23176 0.94077 0.94441 0.0
H1375 H 0.24295 0.9151 0.91589 0.0
H1376 H 0.14767 0.88467 0.889 0.0
H1377 H 0.15935 0.84929 0.86239 0.0
H1378 H 0.14936 0.90027 0.92827 0.0
H1379 H 0.16383 0.92993 0.95315 0.0
C1380 C 0.06029 0.86749 0.38595 0.0
C1381 C 0.05218 0.93139 0.37851 0.0
C1382 C 0.04164 0.95211 0.42327 0.0
C1383 C 0.05099 0.89076 0.43106 0.0
N1384 N 0.06569 0.78289 0.41991 0.0
N1385 N 0.03223 0.02829 0.388 0.0
C1386 C 0.05902 0.84583 0.41225 0.0
C1387 C 0.04173 0.97134 0.3966 0.0
N1388 N 0.07016 0.82995 0.36803 0.0
N1389 N 0.03352 0.99317 0.44174 0.0
H1390 H 0.03229 0.04247 0.36854 0.0
H1391 H 0.02345 0.05882 0.39948 0.0
H1392 H 0.03282 0.97823 0.46107 0.0
H1393 H 0.02781 0.04186 0.43827 0.0
H1394 H 0.07812 0.78616 0.37226 0.0
H1395 H 0.07088 0.84439 0.34864 0.0
H1396 H 0.07058 0.74471 0.40733 0.0
H1397 H 0.0651 0.76709 0.43912 0.0
C1398 C 0.186 0.34026 0.39389 0.0
C1399 C 0.18219 0.39535 0.37656 0.0
C1400 C 0.17952 0.47559 0.41383 0.0
C1401 C 0.18338 0.42049 0.43114 0.0
N1402 N 0.19388 0.30398 0.43768 0.0
N1403 N 0.17879 0.517 0.36931 0.0
C1404 C 0.18781 0.35394 0.42105 0.0
C1405 C 0.1801 0.46364 0.3864 0.0
N1406 N 0.18694 0.27428 0.38441 0.0
N1407 N 0.17438 0.53846 0.42373 0.0
H1408 H 0.17917 0.50894 0.34933 0.0
H1409 H 0.17884 0.56891 0.37472 0.0
H1410 H 0.17407 0.54844 0.44357 0.0
H1411 H 0.16947 0.57933 0.41255 0.0
H1412 H 0.18765 0.23051 0.39601 0.0
H1413 H 0.18585 0.26299 0.36473 0.0
H1414 H 0.19891 0.2558 0.43177 0.0
H1415 H 0.19536 0.31328 0.45748 0.0
C1416 C 0.92114 0.59757 0.13151 0.0
C1417 C 0.93259 0.65091 0.12111 0.0
C1418 C 0.94798 0.66134 0.16386 0.0
C1419 C 0.93481 0.61434 0.17475 0.0
N1420 N 0.90575 0.55231 0.16962 0.0
N1421 N 0.95425 0.74423 0.12973 0.0
C1422 C 0.92033 0.58767 0.15872 0.0
C1423 C 0.94528 0.68605 0.13797 0.0
N1424 N 0.9119 0.55325 0.11531 0.0
N1425 N 0.96359 0.67955 0.17761 0.0
H1426 H 0.95197 0.76539 0.1115 0.0
H1427 H 0.96241 0.77503 0.14194 0.0
H1428 H 0.96625 0.66002 0.19598 0.0
H1429 H 0.97458 0.70845 0.16982 0.0
H1430 H 0.90456 0.5101 0.12188 0.0
H1431 H 0.91362 0.55448 0.09529 0.0
H1432 H 0.89399 0.53613 0.15912 0.0
H1433 H 0.90454 0.54619 0.1896 0.0
C1434 C 0.79832 0.19419 0.15443 0.0
C1435 C 0.81151 0.16079 0.17083 0.0
C1436 C 0.8271 0.10916 0.13267 0.0
C1437 C 0.81451 0.14544 0.11629 0.0
N1438 N 0.7855 0.20769 0.11102 0.0
N1439 N 0.83561 0.07555 0.17659 0.0
C1440 C 0.79917 0.18287 0.12711 0.0
C1441 C 0.82484 0.11392 0.16013 0.0
N1442 N 0.78583 0.24027 0.16494 0.0
N1443 N 0.84182 0.07358 0.12189 0.0
H1444 H 0.83403 0.07931 0.19663 0.0
H1445 H 0.84489 0.03683 0.17063 0.0
H1446 H 0.84359 0.06917 0.10192 0.0
H1447 H 0.85268 0.05111 0.13249 0.0
H1448 H 0.77724 0.27274 0.15407 0.0
H1449 H 0.78468 0.24801 0.18485 0.0
H1450 H 0.77307 0.23087 0.11748 0.0
H1451 H 0.78595 0.19961 0.09105 0.0
C1452 C 0.95959 0.18598 0.64519 0.0
C1453 C 0.94861 0.23793 0.63326 0.0
C1454 C 0.9351 0.26797 0.67593 0.0
C1455 C 0.94359 0.20831 0.68684 0.0
N1456 N 0.96246 0.10577 0.68077 0.0
N1457 N 0.92594 0.32959 0.63677 0.0
C1458 C 0.95581 0.16685 0.6713 0.0
C1459 C 0.93664 0.28034 0.64865 0.0
N1460 N 0.97321 0.15329 0.63097 0.0
N1461 N 0.92513 0.31139 0.69172 0.0
H1462 H 0.92723 0.33993 0.61705 0.0
H1463 H 0.91542 0.35806 0.64602 0.0
H1464 H 0.92374 0.302 0.7115 0.0
H1465 H 0.91951 0.3585 0.68578 0.0
H1466 H 0.98289 0.11858 0.63878 0.0
H1467 H 0.97585 0.16629 0.61173 0.0
H1468 H 0.96984 0.06952 0.66975 0.0
H1469 H 0.95909 0.0885 0.69918 0.0
C1470 C 0.83639 0.64962 0.66455 0.0
C1471 C 0.81904 0.66382 0.67727 0.0
C1472 C 0.80191 0.63147 0.63744 0.0
C1473 C 0.81929 0.62062 0.62432 0.0
N1474 N 0.85305 0.62252 0.62436 0.0
N1475 N 0.78542 0.67681 0.67529 0.0
C1476 C 0.83655 0.63085 0.63768 0.0
C1477 C 0.80182 0.65682 0.66353 0.0
N1478 N 0.85269 0.65353 0.67856 0.0
N1479 N 0.78549 0.61533 0.62505 0.0
H1480 H 0.78497 0.69372 0.69447 0.0
H1481 H 0.77251 0.68033 0.66581 0.0
H1482 H 0.78519 0.59895 0.6058 0.0
H1483 H 0.77236 0.61461 0.63405 0.0
H1484 H 0.86595 0.64022 0.6715 0.0
H1485 H 0.85273 0.66659 0.69817 0.0
H1486 H 0.86634 0.63283 0.63192 0.0
H1487 H 0.85332 0.60861 0.60484 0.0
C1488 C 0.55369 0.40413 0.38656 0.0
C1489 C 0.57117 0.42638 0.376 0.0
C1490 C 0.58575 0.41539 0.4189 0.0
C1491 C 0.56879 0.38794 0.42901 0.0
N1492 N 0.5377 0.343 0.42114 0.0
N1493 N 0.60462 0.43925 0.38083 0.0
C1494 C 0.55301 0.37868 0.41247 0.0
C1495 C 0.58744 0.42745 0.39189 0.0
N1496 N 0.53758 0.40986 0.37232 0.0
N1497 N 0.60011 0.43142 0.43543 0.0
H1498 H 0.60619 0.44646 0.36095 0.0
H1499 H 0.61733 0.43504 0.39079 0.0
H1500 H 0.59897 0.42477 0.45539 0.0
H1501 H 0.61229 0.45727 0.42976 0.0
H1502 H 0.52415 0.40227 0.37996 0.0
H1503 H 0.53757 0.42662 0.35326 0.0
H1504 H 0.5266 0.32801 0.40919 0.0
H1505 H 0.53682 0.32349 0.43985 0.0
C1506 C 0.68827 0.85381 0.42822 0.0
C1507 C 0.68273 0.91917 0.43819 0.0
C1508 C 0.6825 0.96637 0.3939 0.0
C1509 C 0.68778 0.90073 0.38389 0.0
N1510 N 0.69955 0.78627 0.39144 0.0
N1511 N 0.67814 0.04082 0.43166 0.0
C1512 C 0.69206 0.84604 0.40119 0.0
C1513 C 0.68105 0.97658 0.4213 0.0
N1514 N 0.68884 0.79837 0.44446 0.0
N1515 N 0.67797 0.01777 0.37698 0.0
H1516 H 0.677 0.04904 0.45157 0.0
H1517 H 0.67825 0.08617 0.4209 0.0
H1518 H 0.67952 0.01161 0.35703 0.0
H1519 H 0.67204 0.06489 0.38249 0.0
H1520 H 0.69097 0.74761 0.43831 0.0
H1521 H 0.68592 0.8028 0.46417 0.0
H1522 H 0.70449 0.74582 0.40282 0.0
H1523 H 0.70229 0.77993 0.37177 0.0
C1524 C 0.56279 0.97256 0.90142 0.0
C1525 C 0.55012 0.94611 0.88262 0.0
C1526 C 0.53617 0.86963 0.91545 0.0
C1527 C 0.54963 0.89287 0.93381 0.0
N1528 N 0.57364 0.97356 0.94621 0.0
N1529 N 0.52275 0.8794 0.87214 0.0
C1530 C 0.56214 0.94733 0.9274 0.0
C1531 C 0.53602 0.89818 0.88993 0.0
N1532 N 0.57599 0.01959 0.89381 0.0
N1533 N 0.52411 0.81792 0.92233 0.0
H1534 H 0.52277 0.89865 0.85332 0.0
H1535 H 0.51114 0.84856 0.87622 0.0
H1536 H 0.52364 0.79848 0.94112 0.0
H1537 H 0.51498 0.79306 0.90962 0.0
H1538 H 0.58695 0.03731 0.90542 0.0
H1539 H 0.57615 0.04011 0.87517 0.0
H1540 H 0.58238 0.01612 0.94377 0.0
H1541 H 0.57365 0.95458 0.96505 0.0
C1542 C 0.67216 0.36897 0.92498 0.0
C1543 C 0.67888 0.43312 0.93479 0.0
C1544 C 0.68881 0.46468 0.89053 0.0
C1545 C 0.68 0.40452 0.88037 0.0
N1546 N 0.66239 0.30068 0.88756 0.0
N1547 N 0.69253 0.54455 0.92674 0.0
C1548 C 0.67163 0.35653 0.89759 0.0
C1549 C 0.68719 0.48125 0.91752 0.0
N1550 N 0.66646 0.31974 0.9421 0.0
N1551 N 0.69875 0.50593 0.8741 0.0
H1552 H 0.69146 0.55818 0.94622 0.0
H1553 H 0.69686 0.58511 0.91501 0.0
H1554 H 0.69986 0.49494 0.85438 0.0
H1555 H 0.70704 0.54727 0.88014 0.0
H1556 H 0.66282 0.26953 0.9368 0.0
H1557 H 0.66689 0.32786 0.96207 0.0
H1558 H 0.6542 0.26717 0.8985 0.0
H1559 H 0.66213 0.29007 0.86777 0.0
C1560 C 0.43765 0.59835 0.651 0.0
C1561 C 0.43691 0.66258 0.63779 0.0
C1562 C 0.43379 0.721 0.67989 0.0
C1563 C 0.43101 0.65644 0.69244 0.0
N1564 N 0.42641 0.53337 0.68773 0.0
N1565 N 0.42958 0.78464 0.64019 0.0
C1566 C 0.43192 0.59486 0.67739 0.0
C1567 C 0.43372 0.72401 0.65236 0.0
N1568 N 0.44434 0.54089 0.63859 0.0
N1569 N 0.43737 0.77915 0.69409 0.0
H1570 H 0.42793 0.78826 0.62024 0.0
H1571 H 0.42559 0.82927 0.65022 0.0
H1572 H 0.43911 0.77824 0.71409 0.0
H1573 H 0.44096 0.82618 0.68565 0.0
H1574 H 0.44659 0.49396 0.64796 0.0
H1575 H 0.44972 0.54262 0.61983 0.0
H1576 H 0.42531 0.48807 0.67682 0.0
H1577 H 0.42086 0.52948 0.7063 0.0
C1578 C 0.32525 0.19251 0.65063 0.0
C1579 C 0.32515 0.12658 0.63835 0.0
C1580 C 0.32365 0.07247 0.68138 0.0
C1581 C 0.32688 0.13754 0.6935 0.0
N1582 N 0.33289 0.25936 0.68908 0.0
N1583 N 0.32646 0.0027 0.64238 0.0
C1584 C 0.32803 0.19776 0.67797 0.0
C1585 C 0.32472 0.06614 0.65383 0.0
N1586 N 0.32246 0.25019 0.636 0.0
N1587 N 0.31921 0.01684 0.69633 0.0
H1588 H 0.32764 0.9962 0.62243 0.0
H1589 H 0.3283 0.95712 0.65275 0.0
H1590 H 0.31788 0.02058 0.71638 0.0
H1591 H 0.31501 0.96935 0.68871 0.0
H1592 H 0.32071 0.29952 0.64384 0.0
H1593 H 0.31997 0.24735 0.61613 0.0
H1594 H 0.33593 0.30362 0.67848 0.0
H1595 H 0.33546 0.26475 0.70882 0.0
C1596 C 0.43323 0.18423 0.18199 0.0
C1597 C 0.44684 0.13269 0.18785 0.0
C1598 C 0.45531 0.1257 0.14157 0.0
C1599 C 0.44183 0.17783 0.13565 0.0
N1600 N 0.4222 0.27049 0.15137 0.0
N1601 N 0.47437 0.0696 0.17453 0.0
C1602 C 0.43217 0.21152 0.15632 0.0
C1603 C 0.4591 0.10889 0.16797 0.0
N1604 N 0.42058 0.20429 0.20046 0.0
N1605 N 0.46356 0.08875 0.12206 0.0
H1606 H 0.47747 0.05788 0.19376 0.0
H1607 H 0.48482 0.05503 0.16142 0.0
H1608 H 0.46067 0.09789 0.10268 0.0
H1609 H 0.47197 0.04528 0.12512 0.0
H1610 H 0.40898 0.2358 0.19662 0.0
H1611 H 0.42096 0.18546 0.2193 0.0
H1612 H 0.41611 0.30097 0.16581 0.0
H1613 H 0.42181 0.29266 0.13301 0.0
C1614 C 0.3006 0.64393 0.18325 0.0
C1615 C 0.31882 0.63906 0.19448 0.0
C1616 C 0.33144 0.59485 0.15313 0.0
C1617 C 0.31391 0.60917 0.14107 0.0
N1618 N 0.28145 0.64274 0.14403 0.0
N1619 N 0.35124 0.60527 0.19151 0.0
C1620 C 0.29827 0.63113 0.15614 0.0
C1621 C 0.33406 0.61179 0.17983 0.0
N1622 N 0.2857 0.66229 0.19856 0.0
N1623 N 0.34555 0.56584 0.13869 0.0
H1624 H 0.35306 0.61469 0.21125 0.0
H1625 H 0.36364 0.59186 0.18195 0.0
H1626 H 0.34375 0.55353 0.1192 0.0
H1627 H 0.35852 0.55021 0.14605 0.0
H1628 H 0.27174 0.66359 0.19241 0.0
H1629 H 0.28722 0.67198 0.21827 0.0
H1630 H 0.26968 0.66484 0.15283 0.0
H1631 H 0.27944 0.63126 0.1245 0.0
C1632 C 0.12022 0.10433 0.02183 0.0
C1633 C 0.11542 0.15795 0.03978 0.0
C1634 C 0.14838 0.15755 0.05516 0.0
C1635 C 0.15299 0.10128 0.03824 0.0
N1636 N 0.1423 0.01401 1.00847 0.0
N1637 N 0.12409 0.22335 0.07768 0.0
C1638 C 0.1385 0.07208 0.02273 0.0
C1639 C 0.12927 0.18097 0.05763 0.0
N1640 N 0.10768 0.0869 1.00283 0.0
N1641 N 0.16239 0.19063 0.06839 0.0
H1642 H 0.11034 0.24134 0.08029 0.0
H1643 H 0.133 0.23547 0.09305 0.0
H1644 H 0.17634 0.17396 0.06815 0.0
H1645 H 0.1604 0.23722 0.07824 0.0
H1646 H 0.11091 0.0538 0.98751 0.0
H1647 H 0.09452 0.11057 1.00089 0.0
H1648 H 0.13202 0.98582 0.99869 0.0
H1649 H 0.15555 0.99039 1.00827 0.0
C1650 C 0.12015 0.07733 0.2947 0.0
C1651 C 0.11466 0.05467 0.26972 0.0
C1652 C 0.13849 0.13612 0.25181 0.0
C1653 C 0.14197 0.16538 0.27685 0.0
N1654 N 0.13 0.17497 0.32059 0.0
N1655 N 0.11783 0.0694 0.22367 0.0
C1656 C 0.13082 0.13955 0.29772 0.0
C1657 C 0.12347 0.08689 0.24807 0.0
N1658 N 0.11667 0.03675 0.31563 0.0
N1659 N 0.15035 0.15016 0.23181 0.0
H1660 H 0.10818 0.03005 0.21999 0.0
H1661 H 0.12177 0.09714 0.20731 0.0
H1662 H 0.16187 0.18225 0.23376 0.0
H1663 H 0.14993 0.12438 0.21408 0.0
H1664 H 0.12191 0.04825 0.334 0.0
H1665 H 0.11011 0.98865 0.31401 0.0
H1666 H 0.12113 0.16014 0.33568 0.0
H1667 H 0.13622 0.22341 0.32309 0.0
C1668 C 0.86459 0.89832 1.01 0.0
C1669 C 0.86324 0.96284 0.02335 0.0
C1670 C 0.89657 0.94983 0.03596 0.0
C1671 C 0.89862 0.89109 0.01933 0.0
N1672 N 0.88476 0.81943 0.98604 0.0
N1673 N 0.87898 0.0543 0.0465 0.0
C1674 C 0.88268 0.86812 1.00506 0.0
C1675 C 0.87961 0.99005 0.03539 0.0
N1676 N 0.84864 0.86368 1.00307 0.0
N1677 N 0.91035 0.96501 0.05355 0.0
H1678 H 0.86674 0.08445 0.04705 0.0
H1679 H 0.89095 0.07994 0.05315 0.0
H1680 H 0.92232 0.93433 0.05606 0.0
H1681 H 0.90888 0.00306 0.06775 0.0
H1682 H 0.84883 0.81381 0.99531 0.0
H1683 H 0.83526 0.88092 1.00813 0.0
H1684 H 0.8739 0.80617 0.97338 0.0
H1685 H 0.89774 0.79771 0.98106 0.0
C1686 C 0.89676 0.87579 0.79059 0.0
C1687 C 0.89921 0.94494 0.78177 0.0
C1688 C 0.86627 0.94525 0.7677 0.0
C1689 C 0.86266 0.88111 0.78017 0.0
N1690 N 0.87534 0.78822 0.8065 0.0
N1691 N 0.88362 0.05183 0.76995 0.0
C1692 C 0.87816 0.84682 0.79242 0.0
C1693 C 0.88315 0.98181 0.77301 0.0
N1694 N 0.91221 0.8375 0.7973 0.0
N1695 N 0.85411 0.96994 0.74944 0.0
H1696 H 0.895 0.08204 0.77566 0.0
H1697 H 0.87166 0.08053 0.7651 0.0
H1698 H 0.84271 0.94123 0.74257 0.0
H1699 H 0.85695 0.01405 0.73858 0.0
H1700 H 0.91169 0.78451 0.80079 0.0
H1701 H 0.92579 0.85807 0.79794 0.0
H1702 H 0.88561 0.7671 0.81855 0.0
H1703 H 0.86255 0.76251 0.80758 0.0
C1704 C 0.11025 0.68186 0.51302 0.0
C1705 C 0.10667 0.71123 0.53771 0.0
C1706 C 0.13676 0.65942 0.55288 0.0
C1707 C 0.13889 0.62173 0.5291 0.0
N1708 N 0.12406 0.58643 0.48909 0.0
N1709 N 0.11584 0.72217 0.58219 0.0
C1710 C 0.12469 0.63059 0.50981 0.0
C1711 C 0.11983 0.69852 0.55786 0.0
N1712 N 0.09949 0.70208 0.49253 0.0
N1713 N 0.15099 0.66034 0.57057 0.0
H1714 H 0.10434 0.75452 0.58603 0.0
H1715 H 0.12332 0.70704 0.59856 0.0
H1716 H 0.16317 0.63112 0.56867 0.0
H1717 H 0.15128 0.69413 0.58632 0.0
H1718 H 0.10232 0.68737 0.4735 0.0
H1719 H 0.0891 0.73993 0.4944 0.0
H1720 H 0.11308 0.58626 0.4757 0.0
H1721 H 0.13313 0.54418 0.48703 0.0
C1722 C 0.14433 0.59809 0.80424 0.0
C1723 C 0.14927 0.63435 0.78122 0.0
C1724 C 0.12002 0.5906 0.76092 0.0
C1725 C 0.11447 0.5602 0.7846 0.0
N1726 N 0.12425 0.51307 0.82507 0.0
N1727 N 0.13968 0.67473 0.73914 0.0
C1728 C 0.12763 0.55734 0.80508 0.0
C1729 C 0.13652 0.6332 0.75992 0.0
N1730 N 0.15487 0.60702 0.82611 0.0
N1731 N 0.11037 0.57419 0.73899 0.0
H1732 H 0.15076 0.70968 0.73855 0.0
H1733 H 0.13012 0.68071 0.72403 0.0
H1734 H 0.10038 0.53483 0.73893 0.0
H1735 H 0.11422 0.59071 0.7206 0.0
H1736 H 0.15106 0.58814 0.84418 0.0
H1737 H 0.16637 0.6401 0.82692 0.0
H1738 H 0.1339 0.50257 0.8397 0.0
H1739 H 0.11247 0.48072 0.82521 0.0
C1740 C 0.8705 0.37636 0.50188 0.0
C1741 C 0.85814 0.37992 0.52367 0.0
C1742 C 0.87871 0.29528 0.54604 0.0
C1743 C 0.89185 0.29661 0.52544 0.0
N1744 N 0.89629 0.31545 0.48024 0.0
N1745 N 0.85305 0.35181 0.5686 0.0
C1746 C 0.88665 0.33091 0.50229 0.0
C1747 C 0.86286 0.34096 0.54618 0.0
N1748 N 0.86718 0.41779 0.48109 0.0
N1749 N 0.88142 0.2487 0.5655 0.0
H1750 H 0.84234 0.38839 0.57024 0.0
H1751 H 0.85692 0.33085 0.58633 0.0
H1752 H 0.89273 0.21392 0.56535 0.0
H1753 H 0.87156 0.23922 0.57998 0.0
H1754 H 0.87647 0.42279 0.46562 0.0
H1755 H 0.85596 0.45248 0.48045 0.0
H1756 H 0.89285 0.33443 0.46205 0.0
H1757 H 0.90607 0.27523 0.4799 0.0
C1758 C 0.9003 0.33514 0.30557 0.0
C1759 C 0.90475 0.36733 0.28158 0.0
C1760 C 0.87628 0.3101 0.26357 0.0
C1761 C 0.86922 0.29602 0.28865 0.0
N1762 N 0.87625 0.28902 0.33416 0.0
N1763 N 0.89621 0.3826 0.23681 0.0
C1764 C 0.88181 0.30702 0.30983 0.0
C1765 C 0.89244 0.3541 0.26033 0.0
N1766 N 0.91409 0.32649 0.32366 0.0
N1767 N 0.8689 0.27552 0.24304 0.0
H1768 H 0.90792 0.4139 0.23356 0.0
H1769 H 0.88686 0.37934 0.22129 0.0
H1770 H 0.85981 0.23403 0.24598 0.0
H1771 H 0.87412 0.2799 0.22427 0.0
H1772 H 0.91217 0.29914 0.34076 0.0
H1773 H 0.92815 0.33792 0.31986 0.0
H1774 H 0.8835 0.30403 0.35078 0.0
H1775 H 0.86401 0.26057 0.33759 0.0
C1776 C 0.61776 0.21424 0.52603 0.0
C1777 C 0.60989 0.21984 0.55102 0.0
C1778 C 0.63674 0.14827 0.56628 0.0
C1779 C 0.64098 0.1266 0.54041 0.0
N1780 N 0.63132 0.13439 0.49538 0.0
N1781 N 0.61414 0.19813 0.59648 0.0
C1782 C 0.63031 0.1585 0.52018 0.0
C1783 C 0.62003 0.18804 0.5716 0.0
N1784 N 0.61463 0.26491 0.50843 0.0
N1785 N 0.64939 0.13696 0.58554 0.0
H1786 H 0.60399 0.23514 0.60141 0.0
H1787 H 0.61908 0.16887 0.61196 0.0
H1788 H 0.66269 0.11786 0.58165 0.0
H1789 H 0.64789 0.15603 0.6043 0.0
H1790 H 0.62113 0.26505 0.49031 0.0
H1791 H 0.60766 0.31058 0.51357 0.0
H1792 H 0.62295 0.15478 0.48065 0.0
H1793 H 0.6384 0.08894 0.49033 0.0
C1794 C 0.62983 0.15774 0.81108 0.0
C1795 C 0.63646 0.19452 0.78909 0.0
C1796 C 0.61435 0.12226 0.76266 0.0
C1797 C 0.60918 0.08438 0.78506 0.0
N1798 N 0.61926 0.0475 0.82711 0.0
N1799 N 0.63447 0.20781 0.74231 0.0
C1800 C 0.61985 0.09516 0.80776 0.0
C1801 C 0.62866 0.17549 0.7643 0.0
N1802 N 0.63131 0.18556 0.83533 0.0
N1803 N 0.60547 0.10802 0.73991 0.0
H1804 H 0.64152 0.25472 0.74215 0.0
H1805 H 0.63198 0.18838 0.72382 0.0
H1806 H 0.59766 0.06297 0.73739 0.0
H1807 H 0.60597 0.13979 0.72373 0.0
H1808 H 0.62564 0.16171 0.85162 0.0
H1809 H 0.63533 0.23677 0.83851 0.0
H1810 H 0.62756 0.05166 0.84371 0.0
H1811 H 0.61193 1.00097 0.82501 0.0
C1812 C 0.37971 0.81396 0.56181 0.0
C1813 C 0.3908 0.80286 0.53943 0.0
C1814 C 0.37337 0.90161 0.51949 0.0
C1815 C 0.36505 0.91929 0.54414 0.0
N1816 N 0.36888 0.90362 0.59034 0.0
N1817 N 0.39559 0.8295 0.49476 0.0
C1818 C 0.37058 0.87839 0.56572 0.0
C1819 C 0.38673 0.84452 0.51748 0.0
N1820 N 0.37882 0.76392 0.58028 0.0
N1821 N 0.36901 0.93938 0.49809 0.0
H1822 H 0.40264 0.78265 0.49198 0.0
H1823 H 0.39575 0.86198 0.47878 0.0
H1824 H 0.36288 0.98813 0.49896 0.0
H1825 H 0.37191 0.92323 0.47929 0.0
H1826 H 0.37012 0.76833 0.5965 0.0
H1827 H 0.38528 0.7157 0.5777 0.0
H1828 H 0.3738 0.87665 0.60642 0.0
H1829 H 0.3655 0.9552 0.59425 0.0
C1830 C 0.36629 0.95812 0.31268 0.0
C1831 C 0.3638 0.90211 0.29495 0.0
C1832 C 0.39019 0.94798 0.26917 0.0
C1833 C 0.3936 0.00241 0.28757 0.0
N1834 N 0.38633 0.04996 0.32963 0.0
N1835 N 0.37741 0.83324 0.26111 0.0
C1836 C 0.38224 0.0039 0.31036 0.0
C1837 C 0.37718 0.89357 0.27493 0.0
N1838 N 0.35293 0.96927 0.33125 0.0
N1839 N 0.39856 0.94909 0.24542 0.0
H1840 H 0.36834 0.79242 0.26529 0.0
H1841 H 0.38796 0.82067 0.24783 0.0
H1842 H 0.4072 0.98869 0.23923 0.0
H1843 H 0.39508 0.91486 0.23056 0.0
H1844 H 0.35244 0.01334 0.3429 0.0
H1845 H 0.34169 0.9355 0.33399 0.0
H1846 H 0.38002 0.04857 0.34782 0.0
H1847 H 0.39691 0.08702 0.32803 0.0
C1848 C 0.61618 0.74686 0.02089 0.0
C1849 C 0.61371 0.77948 0.04531 0.0
C1850 C 0.64285 0.71836 0.05995 0.0
C1851 C 0.64285 0.67546 0.0373 0.0
N1852 N 0.62694 0.64565 0.99745 0.0
N1853 N 0.62784 0.80731 0.08638 0.0
C1854 C 0.62875 0.68902 0.01821 0.0
C1855 C 0.62798 0.7681 0.06434 0.0
N1856 N 0.60784 0.77462 0.99955 0.0
N1857 N 0.6577 0.71521 0.07657 0.0
H1858 H 0.62044 0.85394 0.08767 0.0
H1859 H 0.63513 0.79437 0.10316 0.0
H1860 H 0.66842 0.67959 0.0744 0.0
H1861 H 0.66014 0.75014 0.09156 0.0
H1862 H 0.61026 0.75619 0.98087 0.0
H1863 H 0.60101 0.82245 1.0001 0.0
H1864 H 0.61575 0.64901 0.98444 0.0
H1865 H 0.6354 0.60209 0.99478 0.0
C1866 C 0.6284 0.7218 0.2376 0.0
C1867 C 0.63789 0.76041 0.25728 0.0
C1868 C 0.61175 0.73051 0.287 0.0
C1869 C 0.6036 0.68426 0.2683 0.0
N1870 N 0.60643 0.63092 0.22609 0.0
N1871 N 0.63229 0.82898 0.29517 0.0
C1872 C 0.61258 0.67862 0.2437 0.0
C1873 C 0.62784 0.77253 0.28056 0.0
N1874 N 0.63351 0.73154 0.21239 0.0
N1875 N 0.60484 0.73152 0.31165 0.0
H1876 H 0.64224 0.865 0.28906 0.0
H1877 H 0.62448 0.8451 0.31119 0.0
H1878 H 0.59381 0.7 0.31769 0.0
H1879 H 0.61136 0.75793 0.32679 0.0
H1880 H 0.62616 0.71083 0.19675 0.0
H1881 H 0.64346 0.76854 0.20705 0.0
H1882 H 0.61372 0.61913 0.20913 0.0
H1883 H 0.59518 0.59791 0.22944 0.0
C1884 C 0.37115 0.47821 1.01425 0.0
C1885 C 0.36732 0.51933 0.03646 0.0
C1886 C 0.39709 0.47645 0.056 0.0
C1887 C 0.39972 0.42889 0.03519 0.0
N1888 N 0.38802 0.38052 0.99525 0.0
N1889 N 0.38072 0.57776 0.07307 0.0
C1890 C 0.38639 0.42873 1.0145 0.0
C1891 C 0.38161 0.52434 0.05569 0.0
N1892 N 0.36141 0.49121 0.99213 0.0
N1893 N 0.40883 0.47311 0.07695 0.0
H1894 H 0.37015 0.61547 0.0722 0.0
H1895 H 0.39134 0.58938 0.08626 0.0
H1896 H 0.41991 0.43767 0.07828 0.0
H1897 H 0.40661 0.50065 0.09403 0.0
H1898 H 0.36405 0.46658 0.97454 0.0
H1899 H 0.3527 0.53456 0.99065 0.0
H1900 H 0.37778 0.3729 0.9811 0.0
H1901 H 0.39878 0.34374 0.99481 0.0
C1902 C 0.39648 0.39196 0.80488 0.0
C1903 C 0.40033 0.43145 0.78234 0.0
C1904 C 0.37716 0.35957 0.75953 0.0
C1905 C 0.36999 0.33227 0.78319 0.0
N1906 N 0.3726 0.33467 0.8302 0.0
N1907 N 0.39019 0.46081 0.73918 0.0
C1908 C 0.3795 0.35204 0.8065 0.0
C1909 C 0.38935 0.41783 0.76 0.0
N1910 N 0.40972 0.38705 0.82382 0.0
N1911 N 0.37341 0.32762 0.7365 0.0
H1912 H 0.39787 0.50674 0.73939 0.0
H1913 H 0.38142 0.4548 0.72313 0.0
H1914 H 0.36688 0.2794 0.73536 0.0
H1915 H 0.37933 0.3439 0.71909 0.0
H1916 H 0.40819 0.35511 0.83988 0.0
H1917 H 0.42327 0.40607 0.82112 0.0
H1918 H 0.37842 0.35385 0.8473 0.0
H1919 H 0.36027 0.30699 0.83301 0.0
C1920 C 0.01065 0.48222 0.04852 0.0
C1921 C 0.01973 0.46512 0.02468 0.0
C1922 C 1.00134 0.56036 1.00398 0.0
C1923 C 0.99095 0.57237 0.02707 0.0
N1924 N 0.98356 0.53441 0.07012 0.0
N1925 N 0.02057 0.48261 0.97824 0.0
C1926 C 0.99511 0.53045 0.049 0.0
C1927 C 0.01403 0.50236 1.00201 0.0
N1928 N 0.01671 0.45228 0.0709 0.0
N1929 N 1.00002 0.60675 0.98422 0.0
H1930 H 0.03054 0.44388 0.97545 0.0
H1931 H 0.01503 0.50151 0.961 0.0
H1932 H 0.99137 0.65033 0.98511 0.0
H1933 H 0.00884 0.60582 0.9681 0.0
H1934 H 0.01228 0.4684 0.08917 0.0
H1935 H 0.02733 0.41512 0.07151 0.0
H1936 H 0.98441 0.50077 0.08574 0.0
H1937 H 0.97175 0.56658 0.07078 0.0
C1938 C 0.25922 0.73094 1.00846 0.0
C1939 C 0.26489 0.70218 0.03246 0.0
C1940 C 0.24097 0.7784 0.05422 0.0
C1941 C 0.23677 0.81248 0.03062 0.0
N1942 N 0.24491 0.8268 0.98553 0.0
N1943 N 0.26319 0.70883 0.07895 0.0
C1944 C 0.24674 0.78998 1.00785 0.0
C1945 C 0.25617 0.7286 0.0555 0.0
N1946 N 0.26521 0.70058 0.98599 0.0
N1947 N 0.2306 0.79444 0.07569 0.0
H1948 H 0.27476 0.67581 0.08071 0.0
H1949 H 0.25896 0.7306 0.09647 0.0
H1950 H 0.21974 0.83096 0.07542 0.0
H1951 H 0.23152 0.76727 0.09298 0.0
H1952 H 0.25981 0.71341 0.9679 0.0
H1953 H 0.2745 0.65867 0.9856 0.0
H1954 H 0.25345 0.81908 0.96937 0.0
H1955 H 0.23575 0.86858 0.98376 0.0
C1956 C 0.0049 0.81267 0.25653 0.0
C1957 C 0.01971 0.82626 0.27458 0.0
C1958 C 0.00639 0.73391 0.30214 0.0
C1959 C 0.99279 0.71436 0.28294 0.0
N1960 N 0.98215 0.73121 0.239 0.0
N1961 N 0.03696 0.7852 0.31138 0.0
C1962 C 0.99286 0.75286 0.25935 0.0
C1963 C 0.02124 0.78188 0.29624 0.0
N1964 N 1.00218 0.85752 0.23654 0.0
N1965 N 0.00448 0.71033 0.32687 0.0
H1966 H 0.04829 0.81724 0.30689 0.0
H1967 H 0.03965 0.7505 0.3263 0.0
H1968 H 0.99292 0.68135 0.3329 0.0
H1969 H 0.01293 0.72736 0.34209 0.0
H1970 H 0.99028 0.85659 0.22472 0.0
H1971 H 0.01142 0.89811 0.23266 0.0
H1972 H 0.98326 0.75218 0.22055 0.0
H1973 H 0.97332 0.68857 0.23984 0.0
C1974 C 0.23785 0.51584 0.30182 0.0
C1975 C 0.24282 0.4614 0.28444 0.0
C1976 C 0.27426 0.51803 0.27859 0.0
C1977 C 0.26899 0.5748 0.2948 0.0
N1978 N 0.24816 0.611 0.32924 0.0
N1979 N 0.26431 0.42151 0.25153 0.0
C1980 C 0.2513 0.56928 0.30823 0.0
C1981 C 0.26065 0.46581 0.27159 0.0
N1982 N 0.22009 0.51766 0.31203 0.0
N1983 N 0.29268 0.50984 0.2716 0.0
H1984 H 0.25455 0.38502 0.2451 0.0
H1985 H 0.27593 0.42634 0.23934 0.0
H1986 H 0.3034 0.53964 0.27949 0.0
H1987 H 0.29777 0.46689 0.26153 0.0
H1988 H 0.21464 0.55972 0.32226 0.0
H1989 H 0.21001 0.48011 0.30813 0.0
H1990 H 0.23669 0.60598 0.34164 0.0
H1991 H 0.25833 0.64465 0.33651 0.0
C1992 C 0.74762 0.24228 0.03103 0.0
C1993 C 0.76254 0.24471 1.01234 0.0
C1994 C 0.75187 0.36347 1.00129 0.0
C1995 C 0.73842 0.3639 0.02192 0.0
N1996 N 0.72619 0.30563 0.05939 0.0
N1997 N 0.78 0.31284 0.98175 0.0
C1998 C 0.73696 0.30361 0.03747 0.0
C1999 C 0.76505 0.30712 0.99827 0.0
N2000 N 0.74337 0.18107 0.04271 0.0
N2001 N 0.7514 0.4155 0.9835 0.0
H2002 H 0.78935 0.2723 0.978 0.0
H2003 H 0.78399 0.35934 0.97329 0.0
H2004 H 0.74152 0.45551 0.98416 0.0
H2005 H 0.75935 0.41514 0.96655 0.0
H2006 H 0.73128 0.17376 0.05382 0.0
H2007 H 0.7511 0.13593 0.03985 0.0
H2008 H 0.72637 0.26683 0.07329 0.0
H2009 H 0.7183 0.34878 0.06493 0.0
C2010 C 0.00829 0.25062 0.76264 0.0
C2011 C 0.99672 0.23438 0.78438 0.0
C2012 C 0.0127 0.32616 0.80915 0.0
C2013 C 0.02256 0.34791 0.78667 0.0
N2014 N 0.02799 0.33511 0.7409 0.0
N2015 N 0.98624 0.26389 0.82742 0.0
C2016 C 0.02002 0.31088 0.76314 0.0
C2017 C 0.9984 0.27449 0.80733 0.0
N2018 N 0.00812 0.20834 0.74139 0.0
N2019 N 0.01759 0.35344 0.8326 0.0
H2020 H 0.97566 0.22667 0.82698 0.0
H2021 H 0.98548 0.29623 0.84356 0.0
H2022 H 0.02852 0.38895 0.83457 0.0
H2023 H 0.0124 0.3354 0.85015 0.0
H2024 H 0.01786 0.21195 0.72638 0.0
H2025 H 0.99888 0.16691 0.73939 0.0
H2026 H 0.0247 0.3161 0.72259 0.0
H2027 H 0.03709 0.37733 0.74054 0.0
C2028 C 0.74805 0.49958 0.7512 0.0
C2029 C 0.73732 0.47165 0.77214 0.0
C2030 C 0.75085 0.56303 0.80059 0.0
C2031 C 0.76263 0.58782 0.78016 0.0
N2032 N 0.77266 0.57717 0.73591 0.0
N2033 N 0.73104 0.4721 0.81797 0.0
C2034 C 0.76138 0.5547 0.75555 0.0
C2035 C 0.73934 0.50251 0.79708 0.0
N2036 N 0.74465 0.47632 0.72663 0.0
N2037 N 0.75028 0.59817 0.82356 0.0
H2038 H 0.72194 0.43024 0.81652 0.0
H2039 H 0.73423 0.48504 0.83704 0.0
H2040 H 0.75935 0.63856 0.82805 0.0
H2041 H 0.74004 0.59003 0.83766 0.0
H2042 H 0.75017 0.49886 0.71006 0.0
H2043 H 0.7349 0.43779 0.72238 0.0
H2044 H 0.77469 0.55036 0.71863 0.0
H2045 H 0.78079 0.62171 0.73736 0.0
C2046 C 0.98824 0.04376 0.55056 0.0
C2047 C 0.99106 0.09306 0.53052 0.0
C2048 C 0.02188 0.03535 0.52078 0.0
C2049 C 0.01818 0.98247 0.5391 0.0
N2050 N 0.99693 0.93417 0.57041 0.0
N2051 N 0.0099 0.1306 0.49459 0.0
C2052 C 1.00109 0.98646 0.55368 0.0
C2053 C 0.00779 0.08733 0.51521 0.0
N2054 N 0.97364 0.05311 0.56743 0.0
N2055 N 0.03903 0.0361 0.50875 0.0
H2056 H 0.99982 0.16776 0.48973 0.0
H2057 H 0.02065 0.12594 0.48098 0.0
H2058 H 0.0494 0.99902 0.51241 0.0
H2059 H 0.04363 0.07606 0.49694 0.0
H2060 H 0.97206 0.02534 0.58449 0.0
H2061 H 0.9636 0.09186 0.56504 0.0
H2062 H 0.98376 0.92781 0.57899 0.0
H2063 H 0.00658 0.89524 0.57494 0.0
C2064 C 0.27248 0.28895 0.52655 0.0
C2065 C 0.2667 0.22039 0.53297 0.0
C2066 C 0.23573 0.27007 0.54774 0.0
C2067 C 0.24108 0.33775 0.53984 0.0
N2068 N 0.26432 0.41038 0.51975 0.0
N2069 N 0.24211 0.14634 0.54936 0.0
C2070 C 0.25949 0.34665 0.52896 0.0
C2071 C 0.24808 0.2115 0.54336 0.0
N2072 N 0.29049 0.29929 0.51796 0.0
N2073 N 0.21916 0.26214 0.56094 0.0
H2074 H 0.25113 0.10379 0.55014 0.0
H2075 H 0.22809 0.13364 0.55286 0.0
H2076 H 0.20968 0.30262 0.56411 0.0
H2077 H 0.21525 0.21697 0.57036 0.0
H2078 H 0.29668 0.34773 0.51614 0.0
H2079 H 0.29984 0.25908 0.51388 0.0
H2080 H 0.27631 0.4202 0.50879 0.0
H2081 H 0.25559 0.45355 0.52149 0.0
C2082 C 0.26942 0.0297 0.76914 0.0
C2083 C 0.27096 0.05051 0.7956 0.0
C2084 C 0.24657 0.96252 0.80659 0.0
C2085 C 0.24465 0.94329 0.78 0.0
N2086 N 0.25153 0.97087 0.73561 0.0
N2087 N 0.26323 0.02758 0.84004 0.0
C2088 C 0.25548 0.97997 0.76129 0.0
C2089 C 0.25987 0.01501 0.81437 0.0
N2090 N 0.28159 0.05603 0.75127 0.0
N2091 N 0.23563 0.93066 0.82464 0.0
H2092 H 0.27331 0.06273 0.84653 0.0
H2093 H 0.25738 0.99956 0.85514 0.0
H2094 H 0.22767 0.88712 0.82053 0.0
H2095 H 0.23369 0.9488 0.84342 0.0
H2096 H 0.28307 0.03635 0.7326 0.0
H2097 H 0.29151 0.09362 0.75552 0.0
H2098 H 0.25694 0.00188 0.72099 0.0
H2099 H 0.24121 0.9371 0.72888 0.0
C2100 C 0.75345 0.79913 0.5516 0.0
C2101 C 0.73914 0.81957 0.53372 0.0
C2102 C 0.75272 0.73569 0.50239 0.0
C2103 C 0.76591 0.70998 0.52096 0.0
N2104 N 0.77545 0.71048 0.56581 0.0
N2105 N 0.72247 0.79094 0.49472 0.0
C2106 C 0.76541 0.74014 0.54626 0.0
C2107 C 0.73794 0.78256 0.51 0.0
N2108 N 0.75562 0.83591 0.57401 0.0
N2109 N 0.75479 0.71829 0.4769 0.0
H2110 H 0.71098 0.82065 0.50059 0.0
H2111 H 0.72001 0.76119 0.47822 0.0
H2112 H 0.76604 0.68857 0.47005 0.0
H2113 H 0.74676 0.74041 0.46222 0.0
H2114 H 0.76723 0.83021 0.58618 0.0
H2115 H 0.74621 0.87456 0.5798 0.0
H2116 H 0.77406 0.72498 0.58514 0.0
H2117 H 0.78385 0.66699 0.56316 0.0
C2118 C 0.75137 0.08969 0.29464 0.0
C2119 C 0.76834 0.08179 0.27979 0.0
C2120 C 0.75456 0.97277 0.26171 0.0
C2121 C 0.73713 0.98299 0.27539 0.0
N2122 N 0.71868 0.05581 0.30331 0.0
N2123 N 0.78525 0.01673 0.24768 0.0
C2124 C 0.73552 0.04309 0.29131 0.0
C2125 C 0.76967 0.02317 0.26306 0.0
N2126 N 0.75073 0.14116 0.31285 0.0
N2127 N 0.75679 0.91352 0.24749 0.0
H2128 H 0.79695 0.04882 0.2497 0.0
H2129 H 0.7864 0.98159 0.23245 0.0
H2130 H 0.74574 0.87915 0.24404 0.0
H2131 H 0.76962 0.89699 0.23982 0.0
H2132 H 0.73982 0.1478 0.32608 0.0
H2133 H 0.76213 0.17397 0.31632 0.0
H2134 H 0.71554 0.10112 0.31337 0.0
H2135 H 0.70714 0.0228 0.30147 0.0
C2136 C 0.50534 0.47727 0.55359 0.0
C2137 C 0.51992 0.47814 0.53458 0.0
C2138 C 0.50105 0.56487 0.51025 0.0
C2139 C 0.48712 0.56788 0.53007 0.0
N2140 N 0.4776 0.53219 0.5726 0.0
N2141 N 0.53328 0.53476 0.49787 0.0
C2142 C 0.48978 0.52536 0.55228 0.0
C2143 C 0.51817 0.52567 0.51383 0.0
N2144 N 0.50618 0.42903 0.57276 0.0
N2145 N 0.49768 0.5987 0.48762 0.0
H2146 H 0.54616 0.51028 0.5014 0.0
H2147 H 0.53378 0.57189 0.48338 0.0
H2148 H 0.48495 0.6243 0.4842 0.0
H2149 H 0.50639 0.59496 0.47146 0.0
H2150 H 0.49503 0.41861 0.58526 0.0
H2151 H 0.51797 0.39746 0.57547 0.0
H2152 H 0.47988 0.51003 0.59065 0.0
H2153 H 0.46552 0.56296 0.57166 0.0
C2154 C 0.52084 0.80554 0.79764 0.0
C2155 C 0.51705 0.8516 0.77716 0.0
C2156 C 0.48689 0.78974 0.76963 0.0
C2157 C 0.48943 0.75111 0.79291 0.0
N2158 N 0.50751 0.73816 0.83231 0.0
N2159 N 0.49549 0.89109 0.74453 0.0
C2160 C 0.50609 0.76355 0.80777 0.0
C2161 C 0.49977 0.84448 0.76342 0.0
N2162 N 0.53864 0.80169 0.80745 0.0
N2163 N 0.47282 0.77309 0.75271 0.0
H2164 H 0.50514 0.92797 0.73816 0.0
H2165 H 0.48217 0.89508 0.73613 0.0
H2166 H 0.46279 0.73521 0.75613 0.0
H2167 H 0.47195 0.79359 0.73416 0.0
H2168 H 0.5427 0.76574 0.82134 0.0
H2169 H 0.5498 0.82806 0.79892 0.0
H2170 H 0.51874 0.74944 0.84458 0.0
H2171 H 0.49641 0.71311 0.84156 0.0
C2172 C 0.49759 0.34758 0.29867 0.0
C2173 C 0.5125 0.34927 0.27989 0.0
C2174 C 0.50025 0.23786 0.2629 0.0
C2175 C 0.48683 0.23193 0.28352 0.0
N2176 N 0.47557 0.27873 0.32392 0.0
N2177 N 0.52987 0.28585 0.24757 0.0
C2178 C 0.48623 0.28638 0.30213 0.0
C2179 C 0.51441 0.29109 0.2632 0.0
N2180 N 0.4941 0.40488 0.31336 0.0
N2181 N 0.49895 0.19445 0.24204 0.0
H2182 H 0.54064 0.32238 0.24769 0.0
H2183 H 0.53303 0.24164 0.23678 0.0
H2184 H 0.4883 0.15775 0.2401 0.0
H2185 H 0.50698 0.20037 0.22532 0.0
H2186 H 0.48213 0.41082 0.32487 0.0
H2187 H 0.50268 0.44816 0.31274 0.0
H2188 H 0.47624 0.31254 0.33964 0.0
H2189 H 0.4672 0.23548 0.32727 0.0
C2190 C 0.4866 0.04494 0.04914 0.0
C2191 C 0.49121 0.10681 0.03597 0.0
C2192 C 0.52217 0.05365 0.02404 0.0
C2193 C 0.51802 0.99387 0.03904 0.0
N2194 N 0.49829 0.94464 0.07215 0.0
N2195 N 0.51469 0.17352 1.01354 0.0
C2196 C 0.50077 0.99318 0.05332 0.0
C2197 C 0.50944 0.11211 0.0243 0.0
N2198 N 0.4686 0.03503 0.05772 0.0
N2199 N 0.53787 0.05409 1.00875 0.0
H2200 H 0.50544 0.21529 1.01166 0.0
H2201 H 0.52843 0.18427 1.0077 0.0
H2202 H 0.54792 0.01475 1.00895 0.0
H2203 H 0.54045 0.09174 0.99487 0.0
H2204 H 0.46389 0.98809 0.06511 0.0
H2205 H 0.45792 0.0716 0.05531 0.0
H2206 H 0.48692 0.9452 0.08494 0.0
H2207 H 0.50876 0.90897 0.07708 0.0
C2208 C 0.00656 0.97473 0.05726 0.0
C2209 C 0.99094 0.96655 0.04053 0.0
C2210 C 0.99616 0.08079 0.02185 0.0
C2211 C 0.01308 0.08497 0.03619 0.0
N2212 N 0.03503 0.03871 0.06738 0.0
N2213 N 0.97069 0.00871 1.00646 0.0
C2214 C 0.01841 0.03297 0.05407 0.0
C2215 C 0.98554 0.01911 0.02288 0.0
N2216 N 0.00991 0.92691 0.07614 0.0
N2217 N 0.99025 0.13606 1.00748 0.0
H2218 H 0.96226 0.9648 1.00704 0.0
H2219 H 0.96723 0.04154 0.9913 0.0
H2220 H 0.99809 0.18134 1.00558 0.0
H2221 H 0.97702 0.13949 0.99887 0.0
H2222 H 0.01998 0.93279 0.09059 0.0
H2223 H 1.00159 0.88298 0.07854 0.0
H2224 H 0.04075 0.99957 0.0787 0.0
H2225 H 0.04377 0.08188 0.06617 0.0
C2226 C 0.27692 0.17828 0.06492 0.0
C2227 C 0.27018 0.19537 0.03966 0.0
C2228 C 0.30205 0.22662 0.0281 0.0
C2229 C 0.30612 0.23769 0.05438 0.0
N2230 N 0.30038 0.20422 0.09798 0.0
N2231 N 0.2773 0.23898 0.99679 0.0
C2232 C 0.29478 0.20404 0.07279 0.0
C2233 C 0.28306 0.22032 0.02096 0.0
N2234 N 0.26671 0.13651 0.08082 0.0
N2235 N 0.31612 0.22231 1.0103 0.0
H2236 H 0.26317 0.23826 0.99116 0.0
H2237 H 0.28648 0.26121 0.98342 0.0
H2238 H 0.33026 0.22113 1.01582 0.0
H2239 H 0.31349 0.21046 0.99093 0.0
H2240 H 0.27166 0.11899 0.09858 0.0
H2241 H 0.25407 0.11403 0.07511 0.0
H2242 H 0.29185 0.18825 0.11322 0.0
H2243 H 0.31358 0.22369 0.10325 0.0
C2244 C 0.02602 0.36131 0.24194 0.0
C2245 C 0.0221 0.40696 0.26266 0.0
C2246 C 0.04981 0.36626 0.28604 0.0
C2247 C 0.05049 0.30957 0.26882 0.0
N2248 N 0.04106 0.25477 0.22873 0.0
N2249 N 0.03174 0.465 0.3017 0.0
C2250 C 0.03969 0.30909 0.24567 0.0
C2251 C 0.0348 0.41438 0.28363 0.0
N2252 N 0.01612 0.36598 0.21932 0.0
N2253 N 0.06304 0.37133 0.30512 0.0
H2254 H 0.02122 0.50242 0.2995 0.0
H2255 H 0.03935 0.46986 0.3188 0.0
H2256 H 0.07403 0.33547 0.30669 0.0
H2257 H 0.06398 0.41263 0.31802 0.0
H2258 H 0.01966 0.33871 0.20259 0.0
H2259 H 0.00531 0.40168 0.21643 0.0
H2260 H 0.0318 0.24628 0.21345 0.0
H2261 H 0.05107 0.21578 0.23053 0.0
C2262 C 0.23311 1.00095 0.30447 0.0
C2263 C 0.23735 0.0643 0.29226 0.0
C2264 C 0.26309 0.01097 0.26793 0.0
C2265 C 0.25857 0.94736 0.27977 0.0
N2266 N 0.2379 0.87664 0.30529 0.0
N2267 N 0.25414 0.12963 0.2598 0.0
C2268 C 0.24301 0.94072 0.29671 0.0
C2269 C 0.25175 0.06944 0.27325 0.0
N2270 N 0.21988 0.99921 0.3237 0.0
N2271 N 0.27873 0.01569 0.25252 0.0
H2272 H 0.24684 0.17519 0.26407 0.0
H2273 H 0.26265 0.13378 0.24346 0.0
H2274 H 0.28667 0.97254 0.24698 0.0
H2275 H 0.28433 0.06229 0.24612 0.0
H2276 H 0.21714 0.9559 0.33495 0.0
H2277 H 0.21252 0.0432 0.32981 0.0
H2278 H 0.22584 0.86706 0.31615 0.0
H2279 H 0.24501 0.83167 0.29965 0.0
C2280 C 0.73594 0.81016 1.00068 0.0
C2281 C 0.73974 0.75043 1.01536 0.0
C2282 C 0.76299 0.81227 0.0413 0.0
C2283 C 0.75971 0.87136 0.02593 0.0
N2284 N 0.74338 0.92636 0.99002 0.0
N2285 N 0.75878 0.6887 0.04625 0.0
C2286 C 0.74637 0.87047 1.00546 0.0
C2287 C 0.75394 0.74968 0.03464 0.0
N2288 N 0.72227 0.80964 0.98207 0.0
N2289 N 0.77448 0.81692 0.06248 0.0
H2290 H 0.75243 0.64173 0.04147 0.0
H2291 H 0.77009 0.68326 0.05891 0.0
H2292 H 0.78111 0.8629 0.06789 0.0
H2293 H 0.7762 0.77746 0.0759 0.0
H2294 H 0.71895 0.85329 0.97114 0.0
H2295 H 0.71449 0.76551 0.97749 0.0
H2296 H 0.75033 0.97359 0.99207 0.0
H2297 H 0.75033 0.97359 0.99207 0.0
C2298 C 0.00833 0.85566 0.7276 0.0
C2299 C 0.00918 0.91785 0.74178 0.0
C2300 C 0.03853 0.88403 0.76238 0.0
C2301 C 0.03598 0.81741 0.75162 0.0
N2302 N 0.02276 0.74447 0.71833 0.0
N2303 N 0.02833 0.00381 0.76277 0.0
C2304 C 0.02254 0.80555 0.73172 0.0
C2305 C 0.02559 0.93657 0.75561 0.0
N2306 N 0.99319 0.84325 0.71193 0.0
N2307 N 0.05215 0.89519 0.7806 0.0
H2308 H 0.01909 0.04301 0.7572 0.0
H2309 H 0.04059 0.02171 0.77158 0.0
H2310 H 0.06207 0.85768 0.78562 0.0
H2311 H 0.05317 0.94046 0.79149 0.0
H2312 H 0.9905 0.79608 0.70291 0.0
H2313 H 0.98303 0.88121 0.70827 0.0
H2314 H 0.01424 0.73394 0.70243 0.0
H2315 H 0.03241 0.70531 0.72244 0.0
C2316 C 0.75936 0.02818 0.76044 0.0
C2317 C 0.75589 0.96774 0.775 0.0
C2318 C 0.73396 0.03013 0.80298 0.0
C2319 C 0.73654 0.08959 0.78756 0.0
N2320 N 0.7485 0.14232 0.74853 0.0
N2321 N 0.73728 0.90575 0.80612 0.0
C2322 C 0.74835 0.08796 0.76537 0.0
C2323 C 0.74223 0.96704 0.79496 0.0
N2324 N 0.77365 0.02922 0.74268 0.0
N2325 N 0.72386 0.03466 0.82546 0.0
H2326 H 0.74309 0.85849 0.80028 0.0
H2327 H 0.72625 0.90084 0.8193 0.0
H2328 H 0.7178 0.08088 0.83195 0.0
H2329 H 0.7229 0.99456 0.83877 0.0
H2330 H 0.77836 0.07431 0.73386 0.0
H2331 H 0.78155 0.98541 0.73783 0.0
H2332 H 0.75505 0.14024 0.73051 0.0
H2333 H 0.74094 0.18797 0.75166 0.0
C2334 C 0.99428 0.56839 0.47495 0.0
C2335 C 0.99947 0.62478 0.49065 0.0
C2336 C 0.96988 0.61889 0.51448 0.0
C2337 C 0.96625 0.55597 0.50166 0.0
N2338 N 0.96892 0.49423 0.46134 0.0
N2339 N 0.98937 0.72185 0.51645 0.0
C2340 C 0.97633 0.53909 0.47882 0.0
C2341 C 0.98596 0.65715 0.507 0.0
N2342 N 0.0069 0.53911 0.45821 0.0
N2343 N 0.9588 0.63867 0.53478 0.0
H2344 H 1.00134 0.74939 0.51089 0.0
H2345 H 0.97978 0.74971 0.52768 0.0
H2346 H 0.94668 0.61112 0.53975 0.0
H2347 H 0.96185 0.6805 0.54682 0.0
H2348 H 0.00444 0.4924 0.44866 0.0
H2349 H 0.02019 0.56012 0.45481 0.0
H2350 H 0.97488 0.48544 0.44318 0.0
H2351 H 0.95571 0.47265 0.46409 0.0
C2352 C 0.24515 0.77403 0.50731 0.0
C2353 C 0.2436 0.71955 0.52536 0.0
C2354 C 0.26073 0.78684 0.55794 0.0
C2355 C 0.26324 0.8395 0.5394 0.0
N2356 N 0.25951 0.88338 0.49604 0.0
N2357 N 0.25101 0.66906 0.56677 0.0
C2358 C 0.25581 0.83333 0.51397 0.0
C2359 C 0.25178 0.72443 0.55039 0.0
N2360 N 0.23595 0.76954 0.48411 0.0
N2361 N 0.26676 0.79731 0.58278 0.0
H2362 H 0.24426 0.62284 0.56207 0.0
H2363 H 0.25808 0.66654 0.58435 0.0
H2364 H 0.27344 0.84271 0.58871 0.0
H2365 H 0.26399 0.76388 0.59801 0.0
H2366 H 0.23449 0.81067 0.47135 0.0
H2367 H 0.22895 0.72492 0.47803 0.0
H2368 H 0.25676 0.87792 0.47638 0.0
H2369 H 0.2662 0.92985 0.50064 0.0
C2370 C 0.25848 0.44938 0.79884 0.0
C2371 C 0.27164 0.436 0.77881 0.0
C2372 C 0.26766 0.55226 0.7618 0.0
C2373 C 0.25342 0.56367 0.78051 0.0
N2374 N 0.23302 0.52167 0.81446 0.0
N2375 N 0.28726 0.46847 0.73931 0.0
C2376 C 0.24822 0.51198 0.79849 0.0
C2377 C 0.27577 0.48566 0.75963 0.0
N2378 N 0.25626 0.4032 0.81859 0.0
N2379 N 0.2735 0.60556 0.74647 0.0
H2380 H 0.2934 0.4196 0.73729 0.0
H2381 H 0.28949 0.50026 0.72343 0.0
H2382 H 0.26777 0.65526 0.74784 0.0
H2383 H 0.28498 0.60239 0.73397 0.0
H2384 H 0.24874 0.4143 0.83542 0.0
H2385 H 0.26293 0.35502 0.81896 0.0
H2386 H 0.22717 0.48244 0.82559 0.0
H2387 H 0.22538 0.56781 0.81541 0.0
C2388 C 0.7472 0.23065 0.5401 0.0
C2389 C 0.73284 0.22547 0.52116 0.0
C2390 C 0.7357 0.34751 0.5108 0.0
C2391 C 0.74973 0.35258 0.53016 0.0
N2392 N 0.76581 0.30622 0.56726 0.0
N2393 N 0.71129 0.27783 0.49091 0.0
C2394 C 0.75437 0.29639 0.54628 0.0
C2395 C 0.72641 0.2837 0.50717 0.0
N2396 N 0.75404 0.17247 0.55188 0.0
N2397 N 0.73198 0.40311 0.49536 0.0
H2398 H 0.70486 0.23051 0.48684 0.0
H2399 H 0.70461 0.3199 0.48234 0.0
H2400 H 0.73793 0.45167 0.49876 0.0
H2401 H 0.7236 0.40078 0.47886 0.0
H2402 H 0.76579 0.17226 0.56394 0.0
H2403 H 0.74898 0.12293 0.54796 0.0
H2404 H 0.76836 0.26856 0.58116 0.0
H2405 H 0.77137 0.35437 0.57218 0.0
C2406 C 0.76595 0.56574 0.27312 0.0
C2407 C 0.76403 0.49322 0.27212 0.0
C2408 C 0.73445 0.5001 0.29658 0.0
C2409 C 0.73625 0.57262 0.29715 0.0
N2410 N 0.75666 0.67316 0.2929 0.0
N2411 N 0.74433 0.39157 0.27796 0.0
C2412 C 0.75284 0.6053 0.28751 0.0
C2413 C 0.74775 0.4601 0.28256 0.0
N2414 N 0.77976 0.59709 0.25887 0.0
N2415 N 0.72031 0.4697 0.31046 0.0
H2416 H 0.75312 0.35931 0.26733 0.0
H2417 H 0.7317 0.36724 0.28254 0.0
H2418 H 0.71062 0.49846 0.32133 0.0
H2419 H 0.71928 0.41667 0.31352 0.0
H2420 H 0.78049 0.65032 0.25605 0.0
H2421 H 0.78932 0.56939 0.24745 0.0
H2422 H 0.76968 0.69593 0.28925 0.0
H2423 H 0.74779 0.70623 0.30305 0.0
C2424 C 0.5047 0.00707 0.50167 0.0
C2425 C 0.50491 0.07791 0.50684 0.0
C2426 C 0.47635 0.06983 0.53309 0.0
C2427 C 0.47848 0.99712 0.53216 0.0
N2428 N 0.49427 0.89496 0.51462 0.0
N2429 N 0.48955 0.18157 0.52261 0.0
C2430 C 0.4924 0.96516 0.51595 0.0
C2431 C 0.49003 0.11109 0.52062 0.0
N2432 N 0.51632 0.98063 0.48295 0.0
N2433 N 0.46148 0.09885 0.54615 0.0
H2434 H 0.49825 0.21365 0.51182 0.0
H2435 H 0.48068 0.20907 0.53497 0.0
H2436 H 0.45197 0.06998 0.55703 0.0
H2437 H 0.45795 0.15105 0.54556 0.0
H2438 H 0.51563 0.9299 0.47616 0.0
H2439 H 0.52536 0.01216 0.47229 0.0
H2440 H 0.50586 0.86997 0.5064 0.0
H2441 H 0.48468 0.86094 0.52257 0.0
C2442 C 0.53526 0.38418 0.79584 0.0
C2443 C 0.53303 0.32262 0.78141 0.0
C2444 C 0.50967 0.37745 0.75368 0.0
C2445 C 0.50877 0.43188 0.77175 0.0
N2446 N 0.52158 0.49491 0.80789 0.0
N2447 N 0.5185 0.25865 0.74627 0.0
C2448 C 0.52219 0.43854 0.79187 0.0
C2449 C 0.5207 0.31915 0.75974 0.0
N2450 N 0.54954 0.38951 0.81348 0.0
N2451 N 0.49944 0.38096 0.73134 0.0
H2452 H 0.52638 0.2143 0.74998 0.0
H2453 H 0.50809 0.25086 0.73238 0.0
H2454 H 0.49099 0.42356 0.72688 0.0
H2455 H 0.50077 0.34541 0.71624 0.0
H2456 H 0.55276 0.43485 0.82344 0.0
H2457 H 0.55912 0.34938 0.81672 0.0
H2458 H 0.52947 0.49969 0.82475 0.0
H2459 H 0.51266 0.53682 0.80438 0.0
C2460 C 0.47465 0.76114 0.33079 0.0
C2461 C 0.46148 0.75529 0.31026 0.0
C2462 C 0.47464 0.64514 0.29695 0.0
C2463 C 0.49009 0.65944 0.31346 0.0
N2464 N 0.50197 0.71216 0.35235 0.0
N2465 N 0.44465 0.68577 0.27963 0.0
C2466 C 0.48891 0.71047 0.33294 0.0
C2467 C 0.45978 0.69396 0.29568 0.0
N2468 N 0.47473 0.81928 0.34593 0.0
N2469 N 0.47496 0.58712 0.28177 0.0
H2470 H 0.43377 0.72228 0.27896 0.0
H2471 H 0.44235 0.64251 0.26805 0.0
H2472 H 0.48563 0.55008 0.28338 0.0
H2473 H 0.46471 0.57454 0.2682 0.0
H2474 H 0.48499 0.83079 0.35964 0.0
H2475 H 0.46459 0.858 0.34398 0.0
H2476 H 0.50129 0.74564 0.36813 0.0
H2477 H 0.51285 0.67594 0.3537 0.0
C2478 C 0.53988 0.45749 0.052 0.0
C2479 C 0.53844 0.52356 0.06335 0.0
C2480 C 0.50695 0.5006 0.07865 0.0
C2481 C 0.50743 0.43579 0.06554 0.0
N2482 N 0.5274 0.34102 0.05135 0.0
N2483 N 0.52645 0.5859 0.09996 0.0
C2484 C 0.5251 0.40985 0.05642 0.0
C2485 C 0.52406 0.53647 0.0815 0.0
N2486 N 0.55454 0.44213 0.03588 0.0
N2487 N 0.49046 0.53211 0.08569 0.0
H2488 H 0.53967 0.60818 0.10275 0.0
H2489 H 0.51639 0.59618 0.11421 0.0
H2490 H 0.47719 0.51311 0.08102 0.0
H2491 H 0.4901 0.58189 0.09356 0.0
H2492 H 0.55514 0.39688 0.02485 0.0
H2493 H 0.56568 0.47645 0.03304 0.0
H2494 H 0.5403 0.31946 0.04586 0.0
H2495 H 0.51681 0.30519 0.0553 0.0
loop_
_geom_bond_atom_site_label_1
_geom_bond_atom_site_label_2
_geom_bond_distance
_geom_bond_site_symmetry_2
_ccdc_geom_bond_type
C0 C1 1.351 . S
C0 N3 1.368 . S
C0 H5 0.931 . S
C1 C0 1.351 . S
C1 N2 1.373 . S
C1 H29 0.930 . S
N2 C1 1.373 . S
N2 C4 1.340 . S
N3 C0 1.368 . S
N3 C4 1.321 . S
N3 Co6 2.135 . S
C4 N2 1.340 . S
C4 N3 1.321 . S
C4 H28 0.930 . S
H5 C0 0.931 . S
Co6 N3 2.135 . S
Co6 N9 2.121 1_554 S
Co6 O14 2.055 . S
Co6 O17 2.039 . S
Co6 N20 2.140 . S
C7 O8 1.227 . S
C7 O17 1.265 . S
O8 C7 1.227 . S
N9 Co6 2.121 1_556 S
N9 C11 1.375 . S
N9 C12 1.313 . S
C10 C11 1.338 . S
C10 N13 1.377 . S
C10 H30 0.930 . S
C11 N9 1.375 . S
C11 C10 1.338 . S
C11 H15 0.931 . S
C12 N9 1.313 . S
C12 N13 1.344 . S
C12 H16 0.930 . S
N13 C10 1.377 . S
N13 C12 1.344 . S
O14 Co6 2.055 . S
O14 C18 1.253 . S
H15 C11 0.931 . S
H16 C12 0.930 . S
O17 Co6 2.039 . S
O17 C7 1.265 . S
C18 O14 1.253 . S
C18 O19 1.227 . S
O19 C18 1.227 . S
N20 Co6 2.140 . S
N20 C23 1.346 . S
N20 C24 1.345 1_554 S
C21 C22 1.387 . S
C21 C25 1.391 1_554 S
C22 C21 1.387 . S
C22 C23 1.369 . S
C22 H31 0.929 . S
C23 N20 1.346 . S
C23 C22 1.369 . S
C23 H26 0.928 . S
C24 N20 1.345 1_556 S
C24 C25 1.371 . S
C24 H27 0.931 . S
C25 C21 1.391 1_556 S
C25 C24 1.371 . S
C25 H32 0.930 . S
H26 C23 0.928 . S
H27 C24 0.931 . S
H28 C4 0.930 . S
H29 C1 0.930 . S
H30 C10 0.930 . S
H31 C22 0.929 . S
H32 C25 0.930 . S
C33 C34 1.350 1_565 S
C33 N36 1.367 1_565 S
C33 H38 0.932 . S
C34 C33 1.350 1_545 S
C34 N35 1.373 . S
C34 H62 0.930 . S
N35 C34 1.373 . S
N35 C37 1.340 . S
N36 C33 1.367 1_545 S
N36 C37 1.321 . S
N36 Co39 2.135 . S
C37 N35 1.340 . S
C37 N36 1.321 . S
C37 H61 0.930 . S
H38 C33 0.932 . S
Co39 N36 2.135 . S
Co39 N42 2.121 1_544 S
Co39 O47 2.055 1_545 S
Co39 O50 2.039 . S
Co39 N53 2.140 . S
C40 O41 1.227 . S
C40 O50 1.265 . S
O41 C40 1.227 . S
N42 Co39 2.121 1_566 S
N42 C44 1.375 1_565 S
N42 C45 1.313 . S
C43 C44 1.338 . S
C43 N46 1.377 1_545 S
C43 H63 0.930 . S
C44 N42 1.375 1_545 S
C44 C43 1.338 . S
C44 H48 0.931 . S
C45 N42 1.313 . S
C45 N46 1.344 . S
C45 H49 0.930 . S
N46 C43 1.377 1_565 S
N46 C45 1.344 . S
O47 Co39 2.055 1_565 S
O47 C51 1.253 . S
H48 C44 0.931 . S
H49 C45 0.930 . S
O50 Co39 2.039 . S
O50 C40 1.265 . S
C51 O47 1.253 . S
C51 O52 1.227 . S
O52 C51 1.227 . S
N53 Co39 2.140 . S
N53 C56 1.346 . S
N53 C57 1.345 1_554 S
C54 C55 1.387 . S
C54 C58 1.391 1_554 S
C55 C54 1.387 . S
C55 C56 1.369 . S
C55 H64 0.929 . S
C56 N53 1.346 . S
C56 C55 1.369 . S
C56 H59 0.928 . S
C57 N53 1.345 1_556 S
C57 C58 1.371 . S
C57 H60 0.931 . S
C58 C54 1.391 1_556 S
C58 C57 1.371 . S
C58 H65 0.930 . S
H59 C56 0.928 . S
H60 C57 0.931 . S
H61 C37 0.930 . S
H62 C34 0.930 . S
H63 C43 0.930 . S
H64 C55 0.929 . S
H65 C58 0.930 . S
C66 C67 1.350 1_565 S
C66 N69 1.367 1_565 S
C66 H71 0.932 . S
C67 C66 1.350 1_545 S
C67 N68 1.373 . S
C67 H95 0.930 . S
N68 C67 1.373 . S
N68 C70 1.340 . S
N69 C66 1.367 1_545 S
N69 C70 1.321 . S
N69 Co72 2.135 . S
C70 N68 1.340 . S
C70 N69 1.321 . S
C70 H94 0.930 . S
H71 C66 0.932 . S
Co72 N69 2.135 . S
Co72 N75 2.121 1_545 S
Co72 O80 2.055 1_545 S
Co72 O83 2.039 . S
Co72 N86 2.140 . S
C73 O74 1.227 . S
C73 O83 1.265 . S
O74 C73 1.227 . S
N75 Co72 2.121 1_565 S
N75 C77 1.375 1_565 S
N75 C78 1.313 . S
C76 C77 1.338 . S
C76 N79 1.377 1_545 S
C76 H96 0.930 . S
C77 N75 1.375 1_545 S
C77 C76 1.338 . S
C77 H81 0.931 . S
C78 N75 1.313 . S
C78 N79 1.344 . S
C78 H82 0.930 . S
N79 C76 1.377 1_565 S
N79 C78 1.344 . S
O80 Co72 2.055 1_565 S
O80 C84 1.253 . S
H81 C77 0.931 . S
H82 C78 0.930 . S
O83 Co72 2.039 . S
O83 C73 1.265 . S
C84 O80 1.253 . S
C84 O85 1.227 . S
O85 C84 1.227 . S
N86 Co72 2.140 . S
N86 C89 1.346 . S
N86 C90 1.345 . S
C87 C88 1.387 . S
C87 C91 1.391 . S
C88 C87 1.387 . S
C88 C89 1.369 . S
C88 H97 0.929 . S
C89 N86 1.346 . S
C89 C88 1.369 . S
C89 H92 0.928 . S
C90 N86 1.345 . S
C90 C91 1.371 . S
C90 H93 0.931 . S
C91 C87 1.391 . S
C91 C90 1.371 . S
C91 H98 0.930 . S
H92 C89 0.928 . S
H93 C90 0.931 . S
H94 C70 0.930 . S
H95 C67 0.930 . S
H96 C76 0.930 . S
H97 C88 0.929 . S
H98 C91 0.930 . S
C99 C100 1.351 . S
C99 N102 1.368 . S
C99 H104 0.931 . S
C100 C99 1.351 . S
C100 N101 1.373 . S
C100 H128 0.930 . S
N101 C100 1.373 . S
N101 C103 1.340 . S
N102 C99 1.368 . S
N102 C103 1.321 . S
N102 Co105 2.135 . S
C103 N101 1.340 . S
C103 N102 1.321 . S
C103 H127 0.930 . S
H104 C99 0.931 . S
Co105 N102 2.135 . S
Co105 N108 2.121 . S
Co105 O113 2.055 . S
Co105 O116 2.039 . S
Co105 N119 2.140 . S
C106 O107 1.227 . S
C106 O116 1.265 . S
O107 C106 1.227 . S
N108 Co105 2.121 . S
N108 C110 1.375 . S
N108 C111 1.313 . S
C109 C110 1.338 . S
C109 N112 1.377 . S
C109 H129 0.930 . S
C110 N108 1.375 . S
C110 C109 1.338 . S
C110 H114 0.931 . S
C111 N108 1.313 . S
C111 N112 1.344 . S
C111 H115 0.930 . S
N112 C109 1.377 . S
N112 C111 1.344 . S
O113 Co105 2.055 . S
O113 C117 1.253 . S
H114 C110 0.931 . S
H115 C111 0.930 . S
O116 Co105 2.039 . S
O116 C106 1.265 . S
C117 O113 1.253 . S
C117 O118 1.227 . S
O118 C117 1.227 . S
N119 Co105 2.140 . S
N119 C122 1.346 . S
N119 C123 1.345 . S
C120 C121 1.387 . S
C120 C124 1.391 . S
C121 C120 1.387 . S
C121 C122 1.369 . S
C121 H130 0.929 . S
C122 N119 1.346 . S
C122 C121 1.369 . S
C122 H125 0.928 . S
C123 N119 1.345 . S
C123 C124 1.371 . S
C123 H126 0.931 . S
C124 C120 1.391 . S
C124 C123 1.371 . S
C124 H131 0.930 . S
H125 C122 0.928 . S
H126 C123 0.931 . S
H127 C103 0.930 . S
H128 C100 0.930 . S
H129 C109 0.930 . S
H130 C121 0.929 . S
H131 C124 0.930 . S
C132 C133 1.351 . S
C132 N135 1.368 . S
C132 H137 0.931 . S
C133 C132 1.351 . S
C133 N134 1.373 . S
C133 H161 0.930 . S
N134 C133 1.373 . S
N134 C136 1.340 . S
N135 C132 1.368 . S
N135 C136 1.321 . S
N135 Co138 2.135 1_556 S
C136 N134 1.340 . S
C136 N135 1.321 . S
C136 H160 0.930 . S
H137 C132 0.931 . S
Co138 N135 2.135 1_554 S
Co138 N141 2.121 . S
Co138 O146 2.055 . S
Co138 O149 2.039 . S
Co138 N152 2.140 . S
C139 O140 1.227 . S
C139 O149 1.265 . S
O140 C139 1.227 . S
N141 Co138 2.121 . S
N141 C143 1.375 . S
N141 C144 1.313 . S
C142 C143 1.338 . S
C142 N145 1.377 . S
C142 H162 0.930 . S
C143 N141 1.375 . S
C143 C142 1.338 . S
C143 H147 0.931 . S
C144 N141 1.313 . S
C144 N145 1.344 . S
C144 H148 0.930 . S
N145 C142 1.377 . S
N145 C144 1.344 . S
O146 Co138 2.055 . S
O146 C150 1.253 . S
H147 C143 0.931 . S
H148 C144 0.930 . S
O149 Co138 2.039 . S
O149 C139 1.265 . S
C150 O146 1.253 . S
C150 O151 1.227 . S
O151 C150 1.227 . S
N152 Co138 2.140 . S
N152 C155 1.346 . S
N152 C156 1.345 . S
C153 C154 1.387 . S
C153 C157 1.391 . S
C154 C153 1.387 . S
C154 C155 1.369 . S
C154 H163 0.929 1_554 S
C155 N152 1.346 . S
C155 C154 1.369 . S
C155 H158 0.928 1_554 S
C156 N152 1.345 . S
C156 C157 1.371 . S
C156 H159 0.931 . S
C157 C153 1.391 . S
C157 C156 1.371 . S
C157 H164 0.930 . S
H158 C155 0.928 1_556 S
H159 C156 0.931 . S
H160 C136 0.930 . S
H161 C133 0.930 . S
H162 C142 0.930 . S
H163 C154 0.929 1_556 S
H164 C157 0.930 . S
C165 C166 1.351 . S
C165 N168 1.368 . S
C165 H170 0.931 . S
C166 C165 1.351 . S
C166 N167 1.373 . S
C166 H194 0.930 . S
N167 C166 1.373 . S
N167 C169 1.340 . S
N168 C165 1.368 . S
N168 C169 1.321 . S
N168 Co171 2.135 1_556 S
C169 N167 1.340 . S
C169 N168 1.321 . S
C169 H193 0.930 1_545 S
H170 C165 0.931 . S
Co171 N168 2.135 1_554 S
Co171 N174 2.121 . S
Co171 O179 2.055 . S
Co171 O182 2.039 . S
Co171 N185 2.140 1_545 S
C172 O173 1.227 . S
C172 O182 1.265 1_565 S
O173 C172 1.227 . S
N174 Co171 2.121 . S
N174 C176 1.375 . S
N174 C177 1.313 . S
C175 C176 1.338 . S
C175 N178 1.377 . S
C175 H195 0.930 . S
C176 N174 1.375 . S
C176 C175 1.338 . S
C176 H180 0.931 1_545 S
C177 N174 1.313 . S
C177 N178 1.344 . S
C177 H181 0.930 . S
N178 C175 1.377 . S
N178 C177 1.344 . S
O179 Co171 2.055 . S
O179 C183 1.253 . S
H180 C176 0.931 1_565 S
H181 C177 0.930 . S
O182 Co171 2.039 . S
O182 C172 1.265 1_545 S
C183 O179 1.253 . S
C183 O184 1.227 . S
O184 C183 1.227 . S
N185 Co171 2.140 1_565 S
N185 C188 1.346 . S
N185 C189 1.345 . S
C186 C187 1.387 . S
C186 C190 1.391 . S
C187 C186 1.387 . S
C187 C188 1.369 . S
C187 H196 0.929 1_554 S
C188 N185 1.346 . S
C188 C187 1.369 . S
C188 H191 0.928 1_554 S
C189 N185 1.345 . S
C189 C190 1.371 . S
C189 H192 0.931 1_565 S
C190 C186 1.391 . S
C190 C189 1.371 . S
C190 H197 0.930 . S
H191 C188 0.928 1_556 S
H192 C189 0.931 1_545 S
H193 C169 0.930 1_565 S
H194 C166 0.930 . S
H195 C175 0.930 . S
H196 C187 0.929 1_556 S
H197 C190 0.930 . S
C198 C199 1.351 . S
C198 N201 1.368 . S
C198 H203 0.931 . S
C199 C198 1.351 . S
C199 N200 1.373 . S
C199 H227 0.930 . S
N200 C199 1.373 . S
N200 C202 1.340 . S
N201 C198 1.368 . S
N201 C202 1.321 . S
N201 Co204 2.135 . S
C202 N200 1.340 . S
C202 N201 1.321 . S
C202 H226 0.930 1_545 S
H203 C198 0.931 . S
Co204 N201 2.135 . S
Co204 N207 2.121 . S
Co204 O212 2.055 . S
Co204 O215 2.039 . S
Co204 N218 2.140 1_545 S
C205 O206 1.227 . S
C205 O215 1.265 1_565 S
O206 C205 1.227 . S
N207 Co204 2.121 . S
N207 C209 1.375 . S
N207 C210 1.313 . S
C208 C209 1.338 . S
C208 N211 1.377 . S
C208 H228 0.930 . S
C209 N207 1.375 . S
C209 C208 1.338 . S
C209 H213 0.931 1_545 S
C210 N207 1.313 . S
C210 N211 1.344 . S
C210 H214 0.930 . S
N211 C208 1.377 . S
N211 C210 1.344 . S
O212 Co204 2.055 . S
O212 C216 1.253 . S
H213 C209 0.931 1_565 S
H214 C210 0.930 . S
O215 Co204 2.039 . S
O215 C205 1.265 1_545 S
C216 O212 1.253 . S
C216 O217 1.227 . S
O217 C216 1.227 . S
N218 Co204 2.140 1_565 S
N218 C221 1.346 . S
N218 C222 1.345 . S
C219 C220 1.387 . S
C219 C223 1.391 . S
C220 C219 1.387 . S
C220 C221 1.369 . S
C220 H229 0.929 . S
C221 N218 1.346 . S
C221 C220 1.369 . S
C221 H224 0.928 . S
C222 N218 1.345 . S
C222 C223 1.371 . S
C222 H225 0.931 1_565 S
C223 C219 1.391 . S
C223 C222 1.371 . S
C223 H230 0.930 . S
H224 C221 0.928 . S
H225 C222 0.931 1_545 S
H226 C202 0.930 1_565 S
H227 C199 0.930 . S
H228 C208 0.930 . S
H229 C220 0.929 . S
H230 C223 0.930 . S
C231 C232 1.351 . S
C231 N234 1.368 . S
C231 H236 0.931 . S
C232 C231 1.351 . S
C232 N233 1.373 . S
C232 H260 0.930 . S
N233 C232 1.373 . S
N233 C235 1.340 . S
N234 C231 1.368 . S
N234 C235 1.321 . S
N234 Co237 2.135 . S
C235 N233 1.340 . S
C235 N234 1.321 . S
C235 H259 0.930 . S
H236 C231 0.931 . S
Co237 N234 2.135 . S
Co237 N240 2.121 . S
Co237 O245 2.055 . S
Co237 O248 2.039 . S
Co237 N251 2.140 . S
C238 O239 1.227 . S
C238 O248 1.265 . S
O239 C238 1.227 . S
N240 Co237 2.121 . S
N240 C242 1.375 . S
N240 C243 1.313 . S
C241 C242 1.338 . S
C241 N244 1.377 . S
C241 H261 0.930 . S
C242 N240 1.375 . S
C242 C241 1.338 . S
C242 H246 0.931 . S
C243 N240 1.313 . S
C243 N244 1.344 . S
C243 H247 0.930 . S
N244 C241 1.377 . S
N244 C243 1.344 . S
O245 Co237 2.055 . S
O245 C249 1.253 . S
H246 C242 0.931 . S
H247 C243 0.930 . S
O248 Co237 2.039 . S
O248 C238 1.265 . S
C249 O245 1.253 . S
C249 O250 1.227 . S
O250 C249 1.227 . S
N251 Co237 2.140 . S
N251 C254 1.346 . S
N251 C255 1.345 . S
C252 C253 1.387 . S
C252 C256 1.391 . S
C253 C252 1.387 . S
C253 C254 1.369 . S
C253 H262 0.929 . S
C254 N251 1.346 . S
C254 C253 1.369 . S
C254 H257 0.928 . S
C255 N251 1.345 . S
C255 C256 1.371 . S
C255 H258 0.931 . S
C256 C252 1.391 . S
C256 C255 1.371 . S
C256 H263 0.930 . S
H257 C254 0.928 . S
H258 C255 0.931 . S
H259 C235 0.930 . S
H260 C232 0.930 . S
H261 C241 0.930 . S
H262 C253 0.929 . S
H263 C256 0.930 . S
C264 C265 1.351 . S
C264 N267 1.368 . S
C264 H269 0.931 . S
C265 C264 1.351 . S
C265 N266 1.373 . S
C265 H293 0.930 . S
N266 C265 1.373 . S
N266 C268 1.340 . S
N267 C264 1.368 . S
N267 C268 1.321 . S
N267 Co270 2.135 . S
C268 N266 1.340 . S
C268 N267 1.321 . S
C268 H292 0.930 . S
H269 C264 0.931 . S
Co270 N267 2.135 . S
Co270 N273 2.121 . S
Co270 O278 2.055 . S
Co270 O281 2.039 . S
Co270 N284 2.140 . S
C271 O272 1.227 . S
C271 O281 1.265 . S
O272 C271 1.227 . S
N273 Co270 2.121 . S
N273 C275 1.375 . S
N273 C276 1.313 . S
C274 C275 1.338 . S
C274 N277 1.377 . S
C274 H294 0.930 . S
C275 N273 1.375 . S
C275 C274 1.338 . S
C275 H279 0.931 . S
C276 N273 1.313 . S
C276 N277 1.344 . S
C276 H280 0.930 . S
N277 C274 1.377 . S
N277 C276 1.344 . S
O278 Co270 2.055 . S
O278 C282 1.253 . S
H279 C275 0.931 . S
H280 C276 0.930 . S
O281 Co270 2.039 . S
O281 C271 1.265 . S
C282 O278 1.253 . S
C282 O283 1.227 . S
O283 C282 1.227 . S
N284 Co270 2.140 . S
N284 C287 1.346 . S
N284 C288 1.345 . S
C285 C286 1.387 . S
C285 C289 1.391 . S
C286 C285 1.387 . S
C286 C287 1.369 . S
C286 H295 0.929 . S
C287 N284 1.346 . S
C287 C286 1.369 . S
C287 H290 0.928 . S
C288 N284 1.345 . S
C288 C289 1.371 . S
C288 H291 0.931 . S
C289 C285 1.391 . S
C289 C288 1.371 . S
C289 H296 0.930 . S
H290 C287 0.928 . S
H291 C288 0.931 . S
H292 C268 0.930 . S
H293 C265 0.930 . S
H294 C274 0.930 . S
H295 C286 0.929 . S
H296 C289 0.930 . S
C297 C298 1.351 . S
C297 N300 1.368 . S
C297 H302 0.931 . S
C298 C297 1.351 . S
C298 N299 1.373 . S
C298 H326 0.930 . S
N299 C298 1.373 . S
N299 C301 1.340 . S
N300 C297 1.368 . S
N300 C301 1.321 . S
N300 Co303 2.135 . S
C301 N299 1.340 . S
C301 N300 1.321 . S
C301 H325 0.930 . S
H302 C297 0.931 . S
Co303 N300 2.135 . S
Co303 N306 2.121 . S
Co303 O311 2.055 . S
Co303 O314 2.039 . S
Co303 N317 2.140 . S
C304 O305 1.227 . S
C304 O314 1.265 . S
O305 C304 1.227 . S
N306 Co303 2.121 . S
N306 C308 1.375 . S
N306 C309 1.313 . S
C307 C308 1.338 . S
C307 N310 1.377 . S
C307 H327 0.930 . S
C308 N306 1.375 . S
C308 C307 1.338 . S
C308 H312 0.931 . S
C309 N306 1.313 . S
C309 N310 1.344 . S
C309 H313 0.930 . S
N310 C307 1.377 . S
N310 C309 1.344 . S
O311 Co303 2.055 . S
O311 C315 1.253 . S
H312 C308 0.931 . S
H313 C309 0.930 . S
O314 Co303 2.039 . S
O314 C304 1.265 . S
C315 O311 1.253 . S
C315 O316 1.227 . S
O316 C315 1.227 . S
N317 Co303 2.140 . S
N317 C320 1.346 . S
N317 C321 1.345 . S
C318 C319 1.387 . S
C318 C322 1.391 . S
C319 C318 1.387 . S
C319 C320 1.369 . S
C319 H328 0.929 . S
C320 N317 1.346 . S
C320 C319 1.369 . S
C320 H323 0.928 . S
C321 N317 1.345 . S
C321 C322 1.371 . S
C321 H324 0.931 . S
C322 C318 1.391 . S
C322 C321 1.371 . S
C322 H329 0.930 . S
H323 C320 0.928 . S
H324 C321 0.931 . S
H325 C301 0.930 . S
H326 C298 0.930 . S
H327 C307 0.930 . S
H328 C319 0.929 . S
H329 C322 0.930 . S
C330 C331 1.351 . S
C330 N333 1.368 . S
C330 H335 0.931 . S
C331 C330 1.351 . S
C331 N332 1.373 . S
C331 H359 0.930 . S
N332 C331 1.373 . S
N332 C334 1.340 . S
N333 C330 1.368 . S
N333 C334 1.321 . S
N333 Co336 2.135 . S
C334 N332 1.340 . S
C334 N333 1.321 . S
C334 H358 0.930 . S
H335 C330 0.931 . S
Co336 N333 2.135 . S
Co336 N339 2.121 . S
Co336 O344 2.055 . S
Co336 O347 2.039 . S
Co336 N350 2.140 . S
C337 O338 1.227 . S
C337 O347 1.265 . S
O338 C337 1.227 . S
N339 Co336 2.121 . S
N339 C341 1.375 . S
N339 C342 1.313 . S
C340 C341 1.338 . S
C340 N343 1.377 . S
C340 H360 0.930 . S
C341 N339 1.375 . S
C341 C340 1.338 . S
C341 H345 0.931 . S
C342 N339 1.313 . S
C342 N343 1.344 . S
C342 H346 0.930 . S
N343 C340 1.377 . S
N343 C342 1.344 . S
O344 Co336 2.055 . S
O344 C348 1.253 . S
H345 C341 0.931 . S
H346 C342 0.930 . S
O347 Co336 2.039 . S
O347 C337 1.265 . S
C348 O344 1.253 . S
C348 O349 1.227 . S
O349 C348 1.227 . S
N350 Co336 2.140 . S
N350 C353 1.346 . S
N350 C354 1.345 . S
C351 C352 1.387 . S
C351 C355 1.391 . S
C352 C351 1.387 . S
C352 C353 1.369 . S
C352 H361 0.929 . S
C353 N350 1.346 . S
C353 C352 1.369 . S
C353 H356 0.928 . S
C354 N350 1.345 . S
C354 C355 1.371 . S
C354 H357 0.931 . S
C355 C351 1.391 . S
C355 C354 1.371 . S
C355 H362 0.930 . S
H356 C353 0.928 . S
H357 C354 0.931 . S
H358 C334 0.930 . S
H359 C331 0.930 . S
H360 C340 0.930 . S
H361 C352 0.929 . S
H362 C355 0.930 . S
C363 C364 1.351 . S
C363 N366 1.368 . S
C363 H368 0.931 . S
C364 C363 1.351 . S
C364 N365 1.373 . S
C364 H392 0.930 . S
N365 C364 1.373 . S
N365 C367 1.340 . S
N366 C363 1.368 . S
N366 C367 1.321 . S
N366 Co369 2.135 . S
C367 N365 1.340 . S
C367 N366 1.321 . S
C367 H391 0.930 . S
H368 C363 0.931 . S
Co369 N366 2.135 . S
Co369 N372 2.121 . S
Co369 O377 2.055 . S
Co369 O380 2.039 . S
Co369 N383 2.140 . S
C370 O371 1.227 . S
C370 O380 1.265 . S
O371 C370 1.227 . S
N372 Co369 2.121 . S
N372 C374 1.375 . S
N372 C375 1.313 . S
C373 C374 1.338 . S
C373 N376 1.377 . S
C373 H393 0.930 . S
C374 N372 1.375 . S
C374 C373 1.338 . S
C374 H378 0.931 . S
C375 N372 1.313 . S
C375 N376 1.344 . S
C375 H379 0.930 . S
N376 C373 1.377 . S
N376 C375 1.344 . S
O377 Co369 2.055 . S
O377 C381 1.253 . S
H378 C374 0.931 . S
H379 C375 0.930 . S
O380 Co369 2.039 . S
O380 C370 1.265 . S
C381 O377 1.253 . S
C381 O382 1.227 . S
O382 C381 1.227 . S
N383 Co369 2.140 . S
N383 C386 1.346 . S
N383 C387 1.345 . S
C384 C385 1.387 . S
C384 C388 1.391 . S
C385 C384 1.387 . S
C385 C386 1.369 . S
C385 H394 0.929 . S
C386 N383 1.346 . S
C386 C385 1.369 . S
C386 H389 0.928 . S
C387 N383 1.345 . S
C387 C388 1.371 . S
C387 H390 0.931 . S
C388 C384 1.391 . S
C388 C387 1.371 . S
C388 H395 0.930 . S
H389 C386 0.928 . S
H390 C387 0.931 . S
H391 C367 0.930 . S
H392 C364 0.930 . S
H393 C373 0.930 . S
H394 C385 0.929 . S
H395 C388 0.930 . S
C396 C397 1.351 . S
C396 N399 1.368 . S
C396 H401 0.931 . S
C397 C396 1.351 . S
C397 N398 1.373 . S
C397 H425 0.930 . S
N398 C397 1.373 . S
N398 C400 1.340 . S
N399 C396 1.368 . S
N399 C400 1.321 . S
N399 Co402 2.135 . S
C400 N398 1.340 . S
C400 N399 1.321 . S
C400 H424 0.930 . S
H401 C396 0.931 . S
Co402 N399 2.135 . S
Co402 N405 2.121 . S
Co402 O410 2.055 . S
Co402 O413 2.039 . S
Co402 N416 2.140 . S
C403 O404 1.227 . S
C403 O413 1.265 . S
O404 C403 1.227 . S
N405 Co402 2.121 . S
N405 C407 1.375 . S
N405 C408 1.313 . S
C406 C407 1.338 . S
C406 N409 1.377 . S
C406 H426 0.930 . S
C407 N405 1.375 . S
C407 C406 1.338 . S
C407 H411 0.931 . S
C408 N405 1.313 . S
C408 N409 1.344 . S
C408 H412 0.930 . S
N409 C406 1.377 . S
N409 C408 1.344 . S
O410 Co402 2.055 . S
O410 C414 1.253 . S
H411 C407 0.931 . S
H412 C408 0.930 . S
O413 Co402 2.039 . S
O413 C403 1.265 . S
C414 O410 1.253 . S
C414 O415 1.227 . S
O415 C414 1.227 . S
N416 Co402 2.140 . S
N416 C419 1.346 . S
N416 C420 1.345 . S
C417 C418 1.387 . S
C417 C421 1.391 . S
C418 C417 1.387 . S
C418 C419 1.369 . S
C418 H427 0.929 . S
C419 N416 1.346 . S
C419 C418 1.369 . S
C419 H422 0.928 . S
C420 N416 1.345 . S
C420 C421 1.371 . S
C420 H423 0.931 . S
C421 C417 1.391 . S
C421 C420 1.371 . S
C421 H428 0.930 . S
H422 C419 0.928 . S
H423 C420 0.931 . S
H424 C400 0.930 . S
H425 C397 0.930 . S
H426 C406 0.930 . S
H427 C418 0.929 . S
H428 C421 0.930 . S
C429 C430 1.351 . S
C429 N432 1.368 . S
C429 H434 0.931 . S
C430 C429 1.351 . S
C430 N431 1.373 . S
C430 H458 0.930 . S
N431 C430 1.373 . S
N431 C433 1.340 . S
N432 C429 1.368 . S
N432 C433 1.321 . S
N432 Co435 2.135 . S
C433 N431 1.340 . S
C433 N432 1.321 . S
C433 H457 0.930 . S
H434 C429 0.931 . S
Co435 N432 2.135 . S
Co435 N438 2.121 . S
Co435 O443 2.055 . S
Co435 O446 2.039 . S
Co435 N449 2.140 . S
C436 O437 1.227 . S
C436 O446 1.265 . S
O437 C436 1.227 . S
N438 Co435 2.121 . S
N438 C440 1.375 . S
N438 C441 1.313 . S
C439 C440 1.338 . S
C439 N442 1.377 . S
C439 H459 0.930 . S
C440 N438 1.375 . S
C440 C439 1.338 . S
C440 H444 0.931 . S
C441 N438 1.313 . S
C441 N442 1.344 . S
C441 H445 0.930 . S
N442 C439 1.377 . S
N442 C441 1.344 . S
O443 Co435 2.055 . S
O443 C447 1.253 . S
H444 C440 0.931 . S
H445 C441 0.930 . S
O446 Co435 2.039 . S
O446 C436 1.265 . S
C447 O443 1.253 . S
C447 O448 1.227 . S
O448 C447 1.227 . S
N449 Co435 2.140 . S
N449 C452 1.346 . S
N449 C453 1.345 . S
C450 C451 1.387 . S
C450 C454 1.391 . S
C451 C450 1.387 . S
C451 C452 1.369 . S
C451 H460 0.929 . S
C452 N449 1.346 . S
C452 C451 1.369 . S
C452 H455 0.928 . S
C453 N449 1.345 . S
C453 C454 1.371 . S
C453 H456 0.931 . S
C454 C450 1.391 . S
C454 C453 1.371 . S
C454 H461 0.930 . S
H455 C452 0.928 . S
H456 C453 0.931 . S
H457 C433 0.930 . S
H458 C430 0.930 . S
H459 C439 0.930 . S
H460 C451 0.929 . S
H461 C454 0.930 . S
C462 C463 1.351 . S
C462 N465 1.368 . S
C462 H467 0.931 . S
C463 C462 1.351 . S
C463 N464 1.373 . S
C463 H491 0.930 . S
N464 C463 1.373 . S
N464 C466 1.340 . S
N465 C462 1.368 . S
N465 C466 1.321 . S
N465 Co468 2.135 . S
C466 N464 1.340 . S
C466 N465 1.321 . S
C466 H490 0.930 . S
H467 C462 0.931 . S
Co468 N465 2.135 . S
Co468 N471 2.121 . S
Co468 O476 2.055 . S
Co468 O479 2.039 . S
Co468 N482 2.140 . S
C469 O470 1.227 . S
C469 O479 1.265 . S
O470 C469 1.227 . S
N471 Co468 2.121 . S
N471 C473 1.375 . S
N471 C474 1.313 . S
C472 C473 1.338 . S
C472 N475 1.377 . S
C472 H492 0.930 . S
C473 N471 1.375 . S
C473 C472 1.338 . S
C473 H477 0.931 . S
C474 N471 1.313 . S
C474 N475 1.344 . S
C474 H478 0.930 . S
N475 C472 1.377 . S
N475 C474 1.344 . S
O476 Co468 2.055 . S
O476 C480 1.253 . S
H477 C473 0.931 . S
H478 C474 0.930 . S
O479 Co468 2.039 . S
O479 C469 1.265 . S
C480 O476 1.253 . S
C480 O481 1.227 . S
O481 C480 1.227 . S
N482 Co468 2.140 . S
N482 C485 1.346 . S
N482 C486 1.345 . S
C483 C484 1.387 . S
C483 C487 1.391 . S
C484 C483 1.387 . S
C484 C485 1.369 . S
C484 H493 0.929 . S
C485 N482 1.346 . S
C485 C484 1.369 . S
C485 H488 0.928 . S
C486 N482 1.345 . S
C486 C487 1.371 . S
C486 H489 0.931 . S
C487 C483 1.391 . S
C487 C486 1.371 . S
C487 H494 0.930 . S
H488 C485 0.928 . S
H489 C486 0.931 . S
H490 C466 0.930 . S
H491 C463 0.930 . S
H492 C472 0.930 . S
H493 C484 0.929 . S
H494 C487 0.930 . S
C495 C496 1.351 . S
C495 N498 1.368 . S
C495 H500 0.931 . S
C496 C495 1.351 . S
C496 N497 1.373 . S
C496 H524 0.930 . S
N497 C496 1.373 . S
N497 C499 1.340 . S
N498 C495 1.368 . S
N498 C499 1.321 . S
N498 Co501 2.135 . S
C499 N497 1.340 . S
C499 N498 1.321 . S
C499 H523 0.930 . S
H500 C495 0.931 . S
Co501 N498 2.135 . S
Co501 N504 2.121 . S
Co501 O509 2.055 . S
Co501 O512 2.039 . S
Co501 N515 2.140 . S
C502 O503 1.227 . S
C502 O512 1.265 . S
O503 C502 1.227 . S
N504 Co501 2.121 . S
N504 C506 1.375 . S
N504 C507 1.313 . S
C505 C506 1.338 . S
C505 N508 1.377 . S
C505 H525 0.930 . S
C506 N504 1.375 . S
C506 C505 1.338 . S
C506 H510 0.931 . S
C507 N504 1.313 . S
C507 N508 1.344 . S
C507 H511 0.930 . S
N508 C505 1.377 . S
N508 C507 1.344 . S
O509 Co501 2.055 . S
O509 C513 1.253 . S
H510 C506 0.931 . S
H511 C507 0.930 . S
O512 Co501 2.039 . S
O512 C502 1.265 . S
C513 O509 1.253 . S
C513 O514 1.227 . S
O514 C513 1.227 . S
N515 Co501 2.140 . S
N515 C518 1.346 . S
N515 C519 1.345 . S
C516 C517 1.387 . S
C516 C520 1.391 . S
C517 C516 1.387 . S
C517 C518 1.369 . S
C517 H526 0.929 . S
C518 N515 1.346 . S
C518 C517 1.369 . S
C518 H521 0.928 . S
C519 N515 1.345 . S
C519 C520 1.371 . S
C519 H522 0.931 . S
C520 C516 1.391 . S
C520 C519 1.371 . S
C520 H527 0.930 . S
H521 C518 0.928 . S
H522 C519 0.931 . S
H523 C499 0.930 . S
H524 C496 0.930 . S
H525 C505 0.930 . S
H526 C517 0.929 . S
H527 C520 0.930 . S
C528 C529 1.351 . S
C528 N531 1.368 . S
C528 H533 0.931 . S
C529 C528 1.351 . S
C529 N530 1.373 . S
C529 H557 0.930 . S
N530 C529 1.373 . S
N530 C532 1.340 . S
N531 C528 1.368 . S
N531 C532 1.321 . S
N531 Co534 2.135 . S
C532 N530 1.340 . S
C532 N531 1.321 . S
C532 H556 0.930 . S
H533 C528 0.931 . S
Co534 N531 2.135 . S
Co534 N537 2.121 . S
Co534 O542 2.055 . S
Co534 O545 2.039 . S
Co534 N548 2.140 . S
C535 O536 1.227 . S
C535 O545 1.265 . S
O536 C535 1.227 . S
N537 Co534 2.121 . S
N537 C539 1.375 . S
N537 C540 1.313 . S
C538 C539 1.338 . S
C538 N541 1.377 . S
C538 H558 0.930 . S
C539 N537 1.375 . S
C539 C538 1.338 . S
C539 H543 0.931 . S
C540 N537 1.313 . S
C540 N541 1.344 . S
C540 H544 0.930 . S
N541 C538 1.377 . S
N541 C540 1.344 . S
O542 Co534 2.055 . S
O542 C546 1.253 . S
H543 C539 0.931 . S
H544 C540 0.930 . S
O545 Co534 2.039 . S
O545 C535 1.265 . S
C546 O542 1.253 . S
C546 O547 1.227 . S
O547 C546 1.227 . S
N548 Co534 2.140 . S
N548 C551 1.346 . S
N548 C552 1.345 . S
C549 C550 1.387 . S
C549 C553 1.391 . S
C550 C549 1.387 . S
C550 C551 1.369 . S
C550 H559 0.929 . S
C551 N548 1.346 . S
C551 C550 1.369 . S
C551 H554 0.928 . S
C552 N548 1.345 . S
C552 C553 1.371 . S
C552 H555 0.931 . S
C553 C549 1.391 . S
C553 C552 1.371 . S
C553 H560 0.930 . S
H554 C551 0.928 . S
H555 C552 0.931 . S
H556 C532 0.930 . S
H557 C529 0.930 . S
H558 C538 0.930 . S
H559 C550 0.929 . S
H560 C553 0.930 . S
C561 C562 1.350 1_565 S
C561 N564 1.367 1_565 S
C561 H566 0.932 . S
C562 C561 1.350 1_545 S
C562 N563 1.373 . S
C562 H590 0.930 . S
N563 C562 1.373 . S
N563 C565 1.340 . S
N564 C561 1.367 1_545 S
N564 C565 1.321 . S
N564 Co567 2.135 . S
C565 N563 1.340 . S
C565 N564 1.321 . S
C565 H589 0.930 . S
H566 C561 0.932 . S
Co567 N564 2.135 . S
Co567 N570 2.121 1_545 S
Co567 O575 2.055 1_545 S
Co567 O578 2.039 . S
Co567 N581 2.140 . S
C568 O569 1.227 . S
C568 O578 1.265 . S
O569 C568 1.227 . S
N570 Co567 2.121 1_565 S
N570 C572 1.375 1_565 S
N570 C573 1.313 . S
C571 C572 1.338 . S
C571 N574 1.377 1_545 S
C571 H591 0.930 . S
C572 N570 1.375 1_545 S
C572 C571 1.338 . S
C572 H576 0.931 . S
C573 N570 1.313 . S
C573 N574 1.344 . S
C573 H577 0.930 . S
N574 C571 1.377 1_565 S
N574 C573 1.344 . S
O575 Co567 2.055 1_565 S
O575 C579 1.253 . S
H576 C572 0.931 . S
H577 C573 0.930 . S
O578 Co567 2.039 . S
O578 C568 1.265 . S
C579 O575 1.253 . S
C579 O580 1.227 . S
O580 C579 1.227 . S
N581 Co567 2.140 . S
N581 C584 1.346 . S
N581 C585 1.345 . S
C582 C583 1.387 . S
C582 C586 1.391 . S
C583 C582 1.387 . S
C583 C584 1.369 . S
C583 H592 0.929 . S
C584 N581 1.346 . S
C584 C583 1.369 . S
C584 H587 0.928 . S
C585 N581 1.345 . S
C585 C586 1.371 . S
C585 H588 0.931 . S
C586 C582 1.391 . S
C586 C585 1.371 . S
C586 H593 0.930 . S
H587 C584 0.928 . S
H588 C585 0.931 . S
H589 C565 0.930 . S
H590 C562 0.930 . S
H591 C571 0.930 . S
H592 C583 0.929 . S
H593 C586 0.930 . S
C594 C595 1.349 1_565 S
C594 N597 1.367 1_565 S
C594 H599 0.933 . S
C595 C594 1.349 1_545 S
C595 N596 1.373 . S
C595 H623 0.930 . S
N596 C595 1.373 . S
N596 C598 1.340 . S
N597 C594 1.367 1_545 S
N597 C598 1.321 . S
N597 Co600 2.135 . S
C598 N596 1.340 . S
C598 N597 1.321 . S
C598 H622 0.930 . S
H599 C594 0.933 . S
Co600 N597 2.135 . S
Co600 N603 2.121 1_545 S
Co600 O608 2.055 1_545 S
Co600 O611 2.039 . S
Co600 N614 2.140 . S
C601 O602 1.227 . S
C601 O611 1.265 . S
O602 C601 1.227 . S
N603 Co600 2.121 1_565 S
N603 C605 1.375 1_565 S
N603 C606 1.313 . S
C604 C605 1.338 . S
C604 N607 1.377 1_545 S
C604 H624 0.930 . S
C605 N603 1.375 1_545 S
C605 C604 1.338 . S
C605 H609 0.931 . S
C606 N603 1.313 . S
C606 N607 1.344 . S
C606 H610 0.930 . S
N607 C604 1.377 1_565 S
N607 C606 1.344 . S
O608 Co600 2.055 1_565 S
O608 C612 1.253 . S
H609 C605 0.931 . S
H610 C606 0.930 . S
O611 Co600 2.039 . S
O611 C601 1.265 . S
C612 O608 1.253 . S
C612 O613 1.227 . S
O613 C612 1.227 . S
N614 Co600 2.140 . S
N614 C617 1.346 . S
N614 C618 1.345 . S
C615 C616 1.387 . S
C615 C619 1.391 . S
C616 C615 1.387 . S
C616 C617 1.369 . S
C616 H625 0.929 . S
C617 N614 1.346 . S
C617 C616 1.369 . S
C617 H620 0.928 . S
C618 N614 1.345 . S
C618 C619 1.371 . S
C618 H621 0.931 . S
C619 C615 1.391 . S
C619 C618 1.371 . S
C619 H626 0.930 . S
H620 C617 0.928 . S
H621 C618 0.931 . S
H622 C598 0.930 . S
H623 C595 0.930 . S
H624 C604 0.930 . S
H625 C616 0.929 . S
H626 C619 0.930 . S
C627 C628 1.351 . S
C627 N630 1.368 . S
C627 H632 0.931 . S
C628 C627 1.351 . S
C628 N629 1.373 . S
C628 H656 0.930 . S
N629 C628 1.373 . S
N629 C631 1.340 . S
N630 C627 1.368 . S
N630 C631 1.321 . S
N630 Co633 2.135 . S
C631 N629 1.340 . S
C631 N630 1.321 . S
C631 H655 0.930 . S
H632 C627 0.931 . S
Co633 N630 2.135 . S
Co633 N636 2.121 . S
Co633 O641 2.055 . S
Co633 O644 2.039 . S
Co633 N647 2.140 . S
C634 O635 1.227 . S
C634 O644 1.265 . S
O635 C634 1.227 . S
N636 Co633 2.121 . S
N636 C638 1.375 . S
N636 C639 1.313 . S
C637 C638 1.338 . S
C637 N640 1.377 . S
C637 H657 0.930 . S
C638 N636 1.375 . S
C638 C637 1.338 . S
C638 H642 0.931 . S
C639 N636 1.313 . S
C639 N640 1.344 . S
C639 H643 0.930 . S
N640 C637 1.377 . S
N640 C639 1.344 . S
O641 Co633 2.055 . S
O641 C645 1.253 . S
H642 C638 0.931 . S
H643 C639 0.930 . S
O644 Co633 2.039 . S
O644 C634 1.265 . S
C645 O641 1.253 . S
C645 O646 1.227 . S
O646 C645 1.227 . S
N647 Co633 2.140 . S
N647 C650 1.346 . S
N647 C651 1.345 . S
C648 C649 1.387 . S
C648 C652 1.391 . S
C649 C648 1.387 . S
C649 C650 1.369 . S
C649 H658 0.929 . S
C650 N647 1.346 . S
C650 C649 1.369 . S
C650 H653 0.928 . S
C651 N647 1.345 . S
C651 C652 1.371 . S
C651 H654 0.931 . S
C652 C648 1.391 . S
C652 C651 1.371 . S
C652 H659 0.930 . S
H653 C650 0.928 . S
H654 C651 0.931 . S
H655 C631 0.930 . S
H656 C628 0.930 . S
H657 C637 0.930 . S
H658 C649 0.929 . S
H659 C652 0.930 . S
C660 C661 1.351 . S
C660 N663 1.368 . S
C660 H665 0.931 . S
C661 C660 1.351 . S
C661 N662 1.373 . S
C661 H689 0.930 . S
N662 C661 1.373 . S
N662 C664 1.340 . S
N663 C660 1.368 . S
N663 C664 1.321 . S
N663 Co666 2.135 . S
C664 N662 1.340 . S
C664 N663 1.321 . S
C664 H688 0.930 . S
H665 C660 0.931 . S
Co666 N663 2.135 . S
Co666 N669 2.121 . S
Co666 O674 2.055 . S
Co666 O677 2.039 . S
Co666 N680 2.140 . S
C667 O668 1.227 . S
C667 O677 1.265 . S
O668 C667 1.227 . S
N669 Co666 2.121 . S
N669 C671 1.375 . S
N669 C672 1.313 . S
C670 C671 1.338 . S
C670 N673 1.377 . S
C670 H690 0.930 . S
C671 N669 1.375 . S
C671 C670 1.338 . S
C671 H675 0.931 . S
C672 N669 1.313 . S
C672 N673 1.344 . S
C672 H676 0.930 . S
N673 C670 1.377 . S
N673 C672 1.344 . S
O674 Co666 2.055 . S
O674 C678 1.253 . S
H675 C671 0.931 . S
H676 C672 0.930 . S
O677 Co666 2.039 . S
O677 C667 1.265 . S
C678 O674 1.253 . S
C678 O679 1.227 . S
O679 C678 1.227 . S
N680 Co666 2.140 . S
N680 C683 1.346 . S
N680 C684 1.345 . S
C681 C682 1.387 . S
C681 C685 1.391 . S
C682 C681 1.387 . S
C682 C683 1.369 . S
C682 H691 0.929 . S
C683 N680 1.346 . S
C683 C682 1.369 . S
C683 H686 0.928 . S
C684 N680 1.345 . S
C684 C685 1.371 . S
C684 H687 0.931 . S
C685 C681 1.391 . S
C685 C684 1.371 . S
C685 H692 0.930 . S
H686 C683 0.928 . S
H687 C684 0.931 . S
H688 C664 0.930 . S
H689 C661 0.930 . S
H690 C670 0.930 . S
H691 C682 0.929 . S
H692 C685 0.930 . S
C693 C694 1.351 . S
C693 N696 1.368 . S
C693 H698 0.931 . S
C694 C693 1.351 . S
C694 N695 1.373 . S
C694 H722 0.930 . S
N695 C694 1.373 . S
N695 C697 1.340 . S
N696 C693 1.368 . S
N696 C697 1.321 . S
N696 Co699 2.135 . S
C697 N695 1.340 . S
C697 N696 1.321 . S
C697 H721 0.930 1_545 S
H698 C693 0.931 . S
Co699 N696 2.135 . S
Co699 N702 2.121 . S
Co699 O707 2.055 . S
Co699 O710 2.039 . S
Co699 N713 2.140 1_545 S
C700 O701 1.227 . S
C700 O710 1.265 1_565 S
O701 C700 1.227 . S
N702 Co699 2.121 . S
N702 C704 1.375 . S
N702 C705 1.313 . S
C703 C704 1.338 . S
C703 N706 1.377 . S
C703 H723 0.930 . S
C704 N702 1.375 . S
C704 C703 1.338 . S
C704 H708 0.931 1_545 S
C705 N702 1.313 . S
C705 N706 1.344 . S
C705 H709 0.930 . S
N706 C703 1.377 . S
N706 C705 1.344 . S
O707 Co699 2.055 . S
O707 C711 1.253 . S
H708 C704 0.931 1_565 S
H709 C705 0.930 . S
O710 Co699 2.039 . S
O710 C700 1.265 1_545 S
C711 O707 1.253 . S
C711 O712 1.227 . S
O712 C711 1.227 . S
N713 Co699 2.140 1_565 S
N713 C716 1.346 . S
N713 C717 1.345 . S
C714 C715 1.387 . S
C714 C718 1.391 . S
C715 C714 1.387 . S
C715 C716 1.369 . S
C715 H724 0.929 . S
C716 N713 1.346 . S
C716 C715 1.369 . S
C716 H719 0.928 . S
C717 N713 1.345 . S
C717 C718 1.371 . S
C717 H720 0.931 1_565 S
C718 C714 1.391 . S
C718 C717 1.371 . S
C718 H725 0.930 . S
H719 C716 0.928 . S
H720 C717 0.931 1_545 S
H721 C697 0.930 1_565 S
H722 C694 0.930 . S
H723 C703 0.930 . S
H724 C715 0.929 . S
H725 C718 0.930 . S
C726 C727 1.351 . S
C726 N729 1.368 . S
C726 H731 0.931 . S
C727 C726 1.351 . S
C727 N728 1.373 . S
C727 H755 0.930 . S
N728 C727 1.373 . S
N728 C730 1.340 . S
N729 C726 1.368 . S
N729 C730 1.321 . S
N729 Co732 2.135 . S
C730 N728 1.340 . S
C730 N729 1.321 . S
C730 H754 0.930 1_545 S
H731 C726 0.931 . S
Co732 N729 2.135 . S
Co732 N735 2.121 . S
Co732 O740 2.055 . S
Co732 O743 2.039 . S
Co732 N746 2.140 1_545 S
C733 O734 1.227 . S
C733 O743 1.265 1_565 S
O734 C733 1.227 . S
N735 Co732 2.121 . S
N735 C737 1.375 . S
N735 C738 1.313 . S
C736 C737 1.338 . S
C736 N739 1.377 . S
C736 H756 0.930 . S
C737 N735 1.375 . S
C737 C736 1.338 . S
C737 H741 0.931 1_545 S
C738 N735 1.313 . S
C738 N739 1.344 . S
C738 H742 0.930 . S
N739 C736 1.377 . S
N739 C738 1.344 . S
O740 Co732 2.055 . S
O740 C744 1.253 . S
H741 C737 0.931 1_565 S
H742 C738 0.930 . S
O743 Co732 2.039 . S
O743 C733 1.265 1_545 S
C744 O740 1.253 . S
C744 O745 1.227 . S
O745 C744 1.227 . S
N746 Co732 2.140 1_565 S
N746 C749 1.346 . S
N746 C750 1.345 . S
C747 C748 1.387 . S
C747 C751 1.391 . S
C748 C747 1.387 . S
C748 C749 1.369 . S
C748 H757 0.929 . S
C749 N746 1.346 . S
C749 C748 1.369 . S
C749 H752 0.928 . S
C750 N746 1.345 . S
C750 C751 1.371 . S
C750 H753 0.931 1_565 S
C751 C747 1.391 . S
C751 C750 1.371 . S
C751 H758 0.930 . S
H752 C749 0.928 . S
H753 C750 0.931 1_545 S
H754 C730 0.930 1_565 S
H755 C727 0.930 . S
H756 C736 0.930 . S
H757 C748 0.929 . S
H758 C751 0.930 . S
C759 C760 1.351 . S
C759 N762 1.368 . S
C759 H764 0.931 . S
C760 C759 1.351 . S
C760 N761 1.373 . S
C760 H788 0.930 . S
N761 C760 1.373 . S
N761 C763 1.340 . S
N762 C759 1.368 . S
N762 C763 1.321 . S
N762 Co765 2.135 . S
C763 N761 1.340 . S
C763 N762 1.321 . S
C763 H787 0.930 . S
H764 C759 0.931 . S
Co765 N762 2.135 . S
Co765 N768 2.121 . S
Co765 O773 2.055 . S
Co765 O776 2.039 . S
Co765 N779 2.140 . S
C766 O767 1.227 . S
C766 O776 1.265 . S
O767 C766 1.227 . S
N768 Co765 2.121 . S
N768 C770 1.375 . S
N768 C771 1.313 . S
C769 C770 1.338 . S
C769 N772 1.377 . S
C769 H789 0.930 . S
C770 N768 1.375 . S
C770 C769 1.338 . S
C770 H774 0.931 . S
C771 N768 1.313 . S
C771 N772 1.344 . S
C771 H775 0.930 . S
N772 C769 1.377 . S
N772 C771 1.344 . S
O773 Co765 2.055 . S
O773 C777 1.253 . S
H774 C770 0.931 . S
H775 C771 0.930 . S
O776 Co765 2.039 . S
O776 C766 1.265 . S
C777 O773 1.253 . S
C777 O778 1.227 . S
O778 C777 1.227 . S
N779 Co765 2.140 . S
N779 C782 1.346 . S
N779 C783 1.345 . S
C780 C781 1.387 . S
C780 C784 1.391 . S
C781 C780 1.387 . S
C781 C782 1.369 . S
C781 H790 0.929 . S
C782 N779 1.346 . S
C782 C781 1.369 . S
C782 H785 0.928 . S
C783 N779 1.345 . S
C783 C784 1.371 . S
C783 H786 0.931 . S
C784 C780 1.391 . S
C784 C783 1.371 . S
C784 H791 0.930 . S
H785 C782 0.928 . S
H786 C783 0.931 . S
H787 C763 0.930 . S
H788 C760 0.930 . S
H789 C769 0.930 . S
H790 C781 0.929 . S
H791 C784 0.930 . S
C792 C793 1.351 . S
C792 N795 1.368 . S
C792 H797 0.931 . S
C793 C792 1.351 . S
C793 N794 1.373 . S
C793 H821 0.930 . S
N794 C793 1.373 . S
N794 C796 1.340 . S
N795 C792 1.368 . S
N795 C796 1.321 . S
N795 Co798 2.135 . S
C796 N794 1.340 . S
C796 N795 1.321 . S
C796 H820 0.930 . S
H797 C792 0.931 . S
Co798 N795 2.135 . S
Co798 N801 2.121 1_554 S
Co798 O806 2.055 . S
Co798 O809 2.039 . S
Co798 N812 2.140 . S
C799 O800 1.227 . S
C799 O809 1.265 . S
O800 C799 1.227 . S
N801 Co798 2.121 1_556 S
N801 C803 1.375 . S
N801 C804 1.313 . S
C802 C803 1.338 . S
C802 N805 1.377 . S
C802 H822 0.930 . S
C803 N801 1.375 . S
C803 C802 1.338 . S
C803 H807 0.931 . S
C804 N801 1.313 . S
C804 N805 1.344 . S
C804 H808 0.930 . S
N805 C802 1.377 . S
N805 C804 1.344 . S
O806 Co798 2.055 . S
O806 C810 1.253 . S
H807 C803 0.931 . S
H808 C804 0.930 . S
O809 Co798 2.039 . S
O809 C799 1.265 . S
C810 O806 1.253 . S
C810 O811 1.227 . S
O811 C810 1.227 . S
N812 Co798 2.140 . S
N812 C815 1.346 . S
N812 C816 1.345 1_554 S
C813 C814 1.387 . S
C813 C817 1.391 1_554 S
C814 C813 1.387 . S
C814 C815 1.369 . S
C814 H823 0.929 . S
C815 N812 1.346 . S
C815 C814 1.369 . S
C815 H818 0.928 . S
C816 N812 1.345 1_556 S
C816 C817 1.371 . S
C816 H819 0.931 . S
C817 C813 1.391 1_556 S
C817 C816 1.371 . S
C817 H824 0.930 . S
H818 C815 0.928 . S
H819 C816 0.931 . S
H820 C796 0.930 . S
H821 C793 0.930 . S
H822 C802 0.930 . S
H823 C814 0.929 . S
H824 C817 0.930 . S
C825 C826 1.351 . S
C825 N828 1.368 . S
C825 H830 0.931 . S
C826 C825 1.351 . S
C826 N827 1.373 . S
C826 H854 0.930 . S
N827 C826 1.373 . S
N827 C829 1.340 . S
N828 C825 1.368 . S
N828 C829 1.321 . S
N828 Co831 2.135 . S
C829 N827 1.340 . S
C829 N828 1.321 . S
C829 H853 0.930 . S
H830 C825 0.931 . S
Co831 N828 2.135 . S
Co831 N834 2.121 1_554 S
Co831 O839 2.055 . S
Co831 O842 2.039 . S
Co831 N845 2.140 . S
C832 O833 1.227 . S
C832 O842 1.265 . S
O833 C832 1.227 . S
N834 Co831 2.121 1_556 S
N834 C836 1.375 . S
N834 C837 1.313 . S
C835 C836 1.338 . S
C835 N838 1.377 . S
C835 H855 0.930 . S
C836 N834 1.375 . S
C836 C835 1.338 . S
C836 H840 0.931 . S
C837 N834 1.313 . S
C837 N838 1.344 . S
C837 H841 0.930 . S
N838 C835 1.377 . S
N838 C837 1.344 . S
O839 Co831 2.055 . S
O839 C843 1.253 . S
H840 C836 0.931 . S
H841 C837 0.930 . S
O842 Co831 2.039 . S
O842 C832 1.265 . S
C843 O839 1.253 . S
C843 O844 1.227 . S
O844 C843 1.227 . S
N845 Co831 2.140 . S
N845 C848 1.346 . S
N845 C849 1.345 1_554 S
C846 C847 1.387 . S
C846 C850 1.391 1_554 S
C847 C846 1.387 . S
C847 C848 1.369 . S
C847 H856 0.929 . S
C848 N845 1.346 . S
C848 C847 1.369 . S
C848 H851 0.928 . S
C849 N845 1.345 1_556 S
C849 C850 1.371 . S
C849 H852 0.931 . S
C850 C846 1.391 1_556 S
C850 C849 1.371 . S
C850 H857 0.930 . S
H851 C848 0.928 . S
H852 C849 0.931 . S
H853 C829 0.930 . S
H854 C826 0.930 . S
H855 C835 0.930 . S
H856 C847 0.929 . S
H857 C850 0.930 . S
C858 C859 1.351 . S
C858 N861 1.368 . S
C858 H863 0.931 . S
C859 C858 1.351 . S
C859 N860 1.373 . S
C859 H887 0.930 . S
N860 C859 1.373 . S
N860 C862 1.340 . S
N861 C858 1.368 . S
N861 C862 1.321 . S
N861 Co864 2.135 . S
C862 N860 1.340 . S
C862 N861 1.321 . S
C862 H886 0.930 . S
H863 C858 0.931 . S
Co864 N861 2.135 . S
Co864 N867 2.121 . S
Co864 O872 2.055 . S
Co864 O875 2.039 . S
Co864 N878 2.140 . S
C865 O866 1.227 . S
C865 O875 1.265 . S
O866 C865 1.227 . S
N867 Co864 2.121 . S
N867 C869 1.375 . S
N867 C870 1.313 . S
C868 C869 1.338 . S
C868 N871 1.377 . S
C868 H888 0.930 . S
C869 N867 1.375 . S
C869 C868 1.338 . S
C869 H873 0.931 . S
C870 N867 1.313 . S
C870 N871 1.344 . S
C870 H874 0.930 . S
N871 C868 1.377 . S
N871 C870 1.344 . S
O872 Co864 2.055 . S
O872 C876 1.253 . S
H873 C869 0.931 . S
H874 C870 0.930 . S
O875 Co864 2.039 . S
O875 C865 1.265 . S
C876 O872 1.253 . S
C876 O877 1.227 . S
O877 C876 1.227 . S
N878 Co864 2.140 . S
N878 C881 1.346 . S
N878 C882 1.345 . S
C879 C880 1.387 . S
C879 C883 1.391 . S
C880 C879 1.387 . S
C880 C881 1.369 . S
C880 H889 0.929 . S
C881 N878 1.346 . S
C881 C880 1.369 . S
C881 H884 0.928 . S
C882 N878 1.345 . S
C882 C883 1.371 . S
C882 H885 0.931 . S
C883 C879 1.391 . S
C883 C882 1.371 . S
C883 H890 0.930 . S
H884 C881 0.928 . S
H885 C882 0.931 . S
H886 C862 0.930 . S
H887 C859 0.930 . S
H888 C868 0.930 . S
H889 C880 0.929 . S
H890 C883 0.930 . S
C891 C892 1.351 . S
C891 N894 1.368 . S
C891 H896 0.931 . S
C892 C891 1.351 . S
C892 N893 1.373 . S
C892 H920 0.930 . S
N893 C892 1.373 . S
N893 C895 1.340 . S
N894 C891 1.368 . S
N894 C895 1.321 . S
N894 Co897 2.135 . S
C895 N893 1.340 . S
C895 N894 1.321 . S
C895 H919 0.930 . S
H896 C891 0.931 . S
Co897 N894 2.135 . S
Co897 N900 2.121 . S
Co897 O905 2.055 . S
Co897 O908 2.039 . S
Co897 N911 2.140 . S
C898 O899 1.227 . S
C898 O908 1.265 . S
O899 C898 1.227 . S
N900 Co897 2.121 . S
N900 C902 1.375 . S
N900 C903 1.313 . S
C901 C902 1.338 . S
C901 N904 1.377 . S
C901 H921 0.930 . S
C902 N900 1.375 . S
C902 C901 1.338 . S
C902 H906 0.931 . S
C903 N900 1.313 . S
C903 N904 1.344 . S
C903 H907 0.930 . S
N904 C901 1.377 . S
N904 C903 1.344 . S
O905 Co897 2.055 . S
O905 C909 1.253 . S
H906 C902 0.931 . S
H907 C903 0.930 . S
O908 Co897 2.039 . S
O908 C898 1.265 . S
C909 O905 1.253 . S
C909 O910 1.227 . S
O910 C909 1.227 . S
N911 Co897 2.140 . S
N911 C914 1.346 . S
N911 C915 1.345 . S
C912 C913 1.387 . S
C912 C916 1.391 . S
C913 C912 1.387 . S
C913 C914 1.369 . S
C913 H922 0.929 . S
C914 N911 1.346 . S
C914 C913 1.369 . S
C914 H917 0.928 . S
C915 N911 1.345 . S
C915 C916 1.371 . S
C915 H918 0.931 . S
C916 C912 1.391 . S
C916 C915 1.371 . S
C916 H923 0.930 . S
H917 C914 0.928 . S
H918 C915 0.931 . S
H919 C895 0.930 . S
H920 C892 0.930 . S
H921 C901 0.930 . S
H922 C913 0.929 . S
H923 C916 0.930 . S
C924 C925 1.351 . S
C924 N927 1.368 . S
C924 H929 0.931 . S
C925 C924 1.351 . S
C925 N926 1.373 . S
C925 H953 0.930 . S
N926 C925 1.373 . S
N926 C928 1.340 . S
N927 C924 1.368 . S
N927 C928 1.321 . S
N927 Co930 2.135 1_556 S
C928 N926 1.340 . S
C928 N927 1.321 . S
C928 H952 0.930 . S
H929 C924 0.931 . S
Co930 N927 2.135 1_554 S
Co930 N933 2.121 . S
Co930 O938 2.055 . S
Co930 O941 2.039 . S
Co930 N944 2.140 . S
C931 O932 1.227 . S
C931 O941 1.265 . S
O932 C931 1.227 . S
N933 Co930 2.121 . S
N933 C935 1.375 . S
N933 C936 1.313 . S
C934 C935 1.338 . S
C934 N937 1.377 . S
C934 H954 0.930 . S
C935 N933 1.375 . S
C935 C934 1.338 . S
C935 H939 0.931 . S
C936 N933 1.313 . S
C936 N937 1.344 . S
C936 H940 0.930 . S
N937 C934 1.377 . S
N937 C936 1.344 . S
O938 Co930 2.055 . S
O938 C942 1.253 . S
H939 C935 0.931 . S
H940 C936 0.930 . S
O941 Co930 2.039 . S
O941 C931 1.265 . S
C942 O938 1.253 . S
C942 O943 1.227 . S
O943 C942 1.227 . S
N944 Co930 2.140 . S
N944 C947 1.346 . S
N944 C948 1.345 . S
C945 C946 1.387 . S
C945 C949 1.391 . S
C946 C945 1.387 . S
C946 C947 1.369 . S
C946 H955 0.929 1_554 S
C947 N944 1.346 . S
C947 C946 1.369 . S
C947 H950 0.928 1_554 S
C948 N944 1.345 . S
C948 C949 1.371 . S
C948 H951 0.931 . S
C949 C945 1.391 . S
C949 C948 1.371 . S
C949 H956 0.930 . S
H950 C947 0.928 1_556 S
H951 C948 0.931 . S
H952 C928 0.930 . S
H953 C925 0.930 . S
H954 C934 0.930 . S
H955 C946 0.929 1_556 S
H956 C949 0.930 . S
C957 C958 1.351 . S
C957 N960 1.368 . S
C957 H962 0.931 . S
C958 C957 1.351 . S
C958 N959 1.373 . S
C958 H986 0.930 . S
N959 C958 1.373 . S
N959 C961 1.340 . S
N960 C957 1.368 . S
N960 C961 1.321 . S
N960 Co963 2.135 1_556 S
C961 N959 1.340 . S
C961 N960 1.321 . S
C961 H985 0.930 . S
H962 C957 0.931 . S
Co963 N960 2.135 1_554 S
Co963 N966 2.121 . S
Co963 O971 2.055 . S
Co963 O974 2.039 . S
Co963 N977 2.140 . S
C964 O965 1.227 . S
C964 O974 1.265 . S
O965 C964 1.227 . S
N966 Co963 2.121 . S
N966 C968 1.375 . S
N966 C969 1.313 . S
C967 C968 1.338 . S
C967 N970 1.377 . S
C967 H987 0.930 . S
C968 N966 1.375 . S
C968 C967 1.338 . S
C968 H972 0.931 . S
C969 N966 1.313 . S
C969 N970 1.344 . S
C969 H973 0.930 . S
N970 C967 1.377 . S
N970 C969 1.344 . S
O971 Co963 2.055 . S
O971 C975 1.253 . S
H972 C968 0.931 . S
H973 C969 0.930 . S
O974 Co963 2.039 . S
O974 C964 1.265 . S
C975 O971 1.253 . S
C975 O976 1.227 . S
O976 C975 1.227 . S
N977 Co963 2.140 . S
N977 C980 1.346 . S
N977 C981 1.345 . S
C978 C979 1.387 . S
C978 C982 1.391 . S
C979 C978 1.387 . S
C979 C980 1.369 . S
C979 H988 0.929 1_554 S
C980 N977 1.346 . S
C980 C979 1.369 . S
C980 H983 0.928 1_554 S
C981 N977 1.345 . S
C981 C982 1.371 . S
C981 H984 0.931 . S
C982 C978 1.391 . S
C982 C981 1.371 . S
C982 H989 0.930 . S
H983 C980 0.928 1_556 S
H984 C981 0.931 . S
H985 C961 0.930 . S
H986 C958 0.930 . S
H987 C967 0.930 . S
H988 C979 0.929 1_556 S
H989 C982 0.930 . S
C990 C991 1.351 . S
C990 N993 1.368 . S
C990 H995 0.931 . S
C991 C990 1.351 . S
C991 N992 1.373 . S
C991 H1019 0.930 . S
N992 C991 1.373 . S
N992 C994 1.340 . S
N993 C990 1.368 . S
N993 C994 1.321 . S
N993 Co996 2.135 . S
C994 N992 1.340 . S
C994 N993 1.321 . S
C994 H1018 0.930 . S
H995 C990 0.931 . S
Co996 N993 2.135 . S
Co996 N999 2.121 . S
Co996 O1004 2.055 . S
Co996 O1007 2.039 . S
Co996 N1010 2.140 . S
C997 O998 1.227 . S
C997 O1007 1.265 . S
O998 C997 1.227 . S
N999 Co996 2.121 . S
N999 C1001 1.375 . S
N999 C1002 1.313 . S
C1000 C1001 1.338 . S
C1000 N1003 1.377 . S
C1000 H1020 0.930 . S
C1001 N999 1.375 . S
C1001 C1000 1.338 . S
C1001 H1005 0.931 . S
C1002 N999 1.313 . S
C1002 N1003 1.344 . S
C1002 H1006 0.930 . S
N1003 C1000 1.377 . S
N1003 C1002 1.344 . S
O1004 Co996 2.055 . S
O1004 C1008 1.253 . S
H1005 C1001 0.931 . S
H1006 C1002 0.930 . S
O1007 Co996 2.039 . S
O1007 C997 1.265 . S
C1008 O1004 1.253 . S
C1008 O1009 1.227 . S
O1009 C1008 1.227 . S
N1010 Co996 2.140 . S
N1010 C1013 1.346 . S
N1010 C1014 1.345 . S
C1011 C1012 1.387 . S
C1011 C1015 1.391 . S
C1012 C1011 1.387 . S
C1012 C1013 1.369 . S
C1012 H1021 0.929 . S
C1013 N1010 1.346 . S
C1013 C1012 1.369 . S
C1013 H1016 0.928 . S
C1014 N1010 1.345 . S
C1014 C1015 1.371 . S
C1014 H1017 0.931 . S
C1015 C1011 1.391 . S
C1015 C1014 1.371 . S
C1015 H1022 0.930 . S
H1016 C1013 0.928 . S
H1017 C1014 0.931 . S
H1018 C994 0.930 . S
H1019 C991 0.930 . S
H1020 C1000 0.930 . S
H1021 C1012 0.929 . S
H1022 C1015 0.930 . S
C1023 C1024 1.351 . S
C1023 N1026 1.368 . S
C1023 H1028 0.931 . S
C1024 C1023 1.351 . S
C1024 N1025 1.373 . S
C1024 H1052 0.930 . S
N1025 C1024 1.373 . S
N1025 C1027 1.340 . S
N1026 C1023 1.368 . S
N1026 C1027 1.321 . S
N1026 Co1029 2.135 . S
C1027 N1025 1.340 . S
C1027 N1026 1.321 . S
C1027 H1051 0.930 . S
H1028 C1023 0.931 . S
Co1029 N1026 2.135 . S
Co1029 N1032 2.121 . S
Co1029 O1037 2.055 . S
Co1029 O1040 2.039 . S
Co1029 N1043 2.140 . S
C1030 O1031 1.227 . S
C1030 O1040 1.265 . S
O1031 C1030 1.227 . S
N1032 Co1029 2.121 . S
N1032 C1034 1.375 . S
N1032 C1035 1.313 . S
C1033 C1034 1.338 . S
C1033 N1036 1.377 . S
C1033 H1053 0.930 . S
C1034 N1032 1.375 . S
C1034 C1033 1.338 . S
C1034 H1038 0.931 . S
C1035 N1032 1.313 . S
C1035 N1036 1.344 . S
C1035 H1039 0.930 . S
N1036 C1033 1.377 . S
N1036 C1035 1.344 . S
O1037 Co1029 2.055 . S
O1037 C1041 1.253 . S
H1038 C1034 0.931 . S
H1039 C1035 0.930 . S
O1040 Co1029 2.039 . S
O1040 C1030 1.265 . S
C1041 O1037 1.253 . S
C1041 O1042 1.227 . S
O1042 C1041 1.227 . S
N1043 Co1029 2.140 . S
N1043 C1046 1.346 . S
N1043 C1047 1.345 . S
C1044 C1045 1.387 . S
C1044 C1048 1.391 . S
C1045 C1044 1.387 . S
C1045 C1046 1.369 . S
C1045 H1054 0.929 . S
C1046 N1043 1.346 . S
C1046 C1045 1.369 . S
C1046 H1049 0.928 . S
C1047 N1043 1.345 . S
C1047 C1048 1.371 . S
C1047 H1050 0.931 . S
C1048 C1044 1.391 . S
C1048 C1047 1.371 . S
C1048 H1055 0.930 . S
H1049 C1046 0.928 . S
H1050 C1047 0.931 . S
H1051 C1027 0.930 . S
H1052 C1024 0.930 . S
H1053 C1033 0.930 . S
H1054 C1045 0.929 . S
H1055 C1048 0.930 . S
C1056 C1057 1.363 . S
C1056 C1062 1.379 . S
C1056 N1064 1.356 . S
C1057 C1056 1.363 . S
C1057 C1063 1.363 . S
C1058 C1059 1.363 . S
C1058 C1063 1.379 . S
C1058 N1065 1.356 . S
C1059 C1058 1.363 . S
C1059 C1062 1.363 . S
N1060 C1062 1.356 . S
N1060 H1072 0.984 . S
N1060 H1073 0.985 . S
N1061 C1063 1.356 . S
N1061 H1066 0.984 . S
N1061 H1067 0.985 . S
C1062 C1056 1.379 . S
C1062 C1059 1.363 . S
C1062 N1060 1.356 . S
C1063 C1057 1.363 . S
C1063 C1058 1.379 . S
C1063 N1061 1.356 . S
N1064 C1056 1.356 . S
N1064 H1070 0.984 . S
N1064 H1071 0.984 . S
N1065 C1058 1.356 . S
N1065 H1068 0.984 . S
N1065 H1069 0.985 . S
H1066 N1061 0.984 . S
H1067 N1061 0.985 . S
H1068 N1065 0.984 . S
H1069 N1065 0.985 . S
H1070 N1064 0.984 . S
H1071 N1064 0.984 . S
H1072 N1060 0.984 . S
H1073 N1060 0.985 . S
C1074 C1075 1.363 . S
C1074 C1080 1.379 . S
C1074 N1082 1.356 . S
C1075 C1074 1.363 . S
C1075 C1081 1.363 . S
C1076 C1077 1.363 . S
C1076 C1081 1.379 . S
C1076 N1083 1.356 . S
C1077 C1076 1.363 . S
C1077 C1080 1.363 . S
N1078 C1080 1.356 . S
N1078 H1090 0.984 . S
N1078 H1091 0.985 . S
N1079 C1081 1.356 . S
N1079 H1084 0.984 . S
N1079 H1085 0.985 . S
C1080 C1074 1.379 . S
C1080 C1077 1.363 . S
C1080 N1078 1.356 . S
C1081 C1075 1.363 . S
C1081 C1076 1.379 . S
C1081 N1079 1.356 . S
N1082 C1074 1.356 . S
N1082 H1088 0.984 1_545 S
N1082 H1089 0.984 1_545 S
N1083 C1076 1.356 . S
N1083 H1086 0.984 . S
N1083 H1087 0.985 . S
H1084 N1079 0.984 . S
H1085 N1079 0.985 . S
H1086 N1083 0.984 . S
H1087 N1083 0.985 . S
H1088 N1082 0.984 1_565 S
H1089 N1082 0.984 1_565 S
H1090 N1078 0.984 . S
H1091 N1078 0.985 . S
C1092 C1093 1.363 . S
C1092 C1098 1.379 . S
C1092 N1100 1.356 1_565 S
C1093 C1092 1.363 . S
C1093 C1099 1.363 . S
C1094 C1095 1.363 . S
C1094 C1099 1.379 . S
C1094 N1101 1.356 . S
C1095 C1094 1.363 . S
C1095 C1098 1.363 . S
N1096 C1098 1.356 . S
N1096 H1108 0.984 . S
N1096 H1109 0.985 . S
N1097 C1099 1.356 . S
N1097 H1102 0.984 . S
N1097 H1103 0.985 . S
C1098 C1092 1.379 . S
C1098 C1095 1.363 . S
C1098 N1096 1.356 . S
C1099 C1093 1.363 . S
C1099 C1094 1.379 . S
C1099 N1097 1.356 . S
N1100 C1092 1.356 1_545 S
N1100 H1106 0.984 . S
N1100 H1107 0.984 . S
N1101 C1094 1.356 . S
N1101 H1104 0.984 . S
N1101 H1105 0.985 . S
H1102 N1097 0.984 . S
H1103 N1097 0.985 . S
H1104 N1101 0.984 . S
H1105 N1101 0.985 . S
H1106 N1100 0.984 . S
H1107 N1100 0.984 . S
H1108 N1096 0.984 . S
H1109 N1096 0.985 . S
C1110 C1111 1.363 . S
C1110 C1116 1.379 . S
C1110 N1118 1.356 . S
C1111 C1110 1.363 . S
C1111 C1117 1.363 . S
C1112 C1113 1.363 . S
C1112 C1117 1.379 . S
C1112 N1119 1.356 . S
C1113 C1112 1.363 . S
C1113 C1116 1.363 . S
N1114 C1116 1.356 . S
N1114 H1126 0.984 . S
N1114 H1127 0.985 . S
N1115 C1117 1.356 . S
N1115 H1120 0.984 . S
N1115 H1121 0.985 . S
C1116 C1110 1.379 . S
C1116 C1113 1.363 . S
C1116 N1114 1.356 . S
C1117 C1111 1.363 . S
C1117 C1112 1.379 . S
C1117 N1115 1.356 . S
N1118 C1110 1.356 . S
N1118 H1124 0.984 . S
N1118 H1125 0.984 . S
N1119 C1112 1.356 . S
N1119 H1122 0.984 1_565 S
N1119 H1123 0.985 1_565 S
H1120 N1115 0.984 . S
H1121 N1115 0.985 . S
H1122 N1119 0.984 1_545 S
H1123 N1119 0.985 1_545 S
H1124 N1118 0.984 . S
H1125 N1118 0.984 . S
H1126 N1114 0.984 . S
H1127 N1114 0.985 . S
C1128 C1129 1.363 . S
C1128 C1134 1.379 . S
C1128 N1136 1.356 . S
C1129 C1128 1.363 . S
C1129 C1135 1.363 . S
C1130 C1131 1.363 . S
C1130 C1135 1.379 . S
C1130 N1137 1.356 . S
C1131 C1130 1.363 . S
C1131 C1134 1.363 . S
N1132 C1134 1.356 . S
N1132 H1144 0.984 . S
N1132 H1145 0.985 . S
N1133 C1135 1.356 . S
N1133 H1138 0.984 . S
N1133 H1139 0.985 . S
C1134 C1128 1.379 . S
C1134 C1131 1.363 . S
C1134 N1132 1.356 . S
C1135 C1129 1.363 . S
C1135 C1130 1.379 . S
C1135 N1133 1.356 . S
N1136 C1128 1.356 . S
N1136 H1142 0.984 . S
N1136 H1143 0.984 . S
N1137 C1130 1.356 . S
N1137 H1140 0.984 . S
N1137 H1141 0.985 . S
H1138 N1133 0.984 . S
H1139 N1133 0.985 . S
H1140 N1137 0.984 . S
H1141 N1137 0.985 . S
H1142 N1136 0.984 . S
H1143 N1136 0.984 . S
H1144 N1132 0.984 . S
H1145 N1132 0.985 . S
C1146 C1147 1.363 . S
C1146 C1152 1.379 . S
C1146 N1154 1.356 . S
C1147 C1146 1.363 . S
C1147 C1153 1.363 . S
C1148 C1149 1.363 . S
C1148 C1153 1.379 . S
C1148 N1155 1.356 . S
C1149 C1148 1.363 . S
C1149 C1152 1.363 . S
N1150 C1152 1.356 . S
N1150 H1162 0.984 . S
N1150 H1163 0.985 . S
N1151 C1153 1.356 . S
N1151 H1156 0.984 . S
N1151 H1157 0.985 . S
C1152 C1146 1.379 . S
C1152 C1149 1.363 . S
C1152 N1150 1.356 . S
C1153 C1147 1.363 . S
C1153 C1148 1.379 . S
C1153 N1151 1.356 . S
N1154 C1146 1.356 . S
N1154 H1160 0.984 . S
N1154 H1161 0.984 . S
N1155 C1148 1.356 . S
N1155 H1158 0.984 . S
N1155 H1159 0.985 . S
H1156 N1151 0.984 . S
H1157 N1151 0.985 . S
H1158 N1155 0.984 . S
H1159 N1155 0.985 . S
H1160 N1154 0.984 . S
H1161 N1154 0.984 . S
H1162 N1150 0.984 . S
H1163 N1150 0.985 . S
C1164 C1165 1.363 . S
C1164 C1170 1.379 . S
C1164 N1172 1.356 . S
C1165 C1164 1.363 . S
C1165 C1171 1.363 . S
C1166 C1167 1.363 . S
C1166 C1171 1.379 . S
C1166 N1173 1.356 . S
C1167 C1166 1.363 . S
C1167 C1170 1.363 . S
N1168 C1170 1.356 . S
N1168 H1180 0.984 . S
N1168 H1181 0.985 . S
N1169 C1171 1.356 . S
N1169 H1174 0.984 . S
N1169 H1175 0.985 . S
C1170 C1164 1.379 . S
C1170 C1167 1.363 . S
C1170 N1168 1.356 . S
C1171 C1165 1.363 . S
C1171 C1166 1.379 . S
C1171 N1169 1.356 . S
N1172 C1164 1.356 . S
N1172 H1178 0.984 . S
N1172 H1179 0.984 . S
N1173 C1166 1.356 . S
N1173 H1176 0.984 . S
N1173 H1177 0.985 . S
H1174 N1169 0.984 . S
H1175 N1169 0.985 . S
H1176 N1173 0.984 . S
H1177 N1173 0.985 . S
H1178 N1172 0.984 . S
H1179 N1172 0.984 . S
H1180 N1168 0.984 . S
H1181 N1168 0.985 . S
C1182 C1183 1.363 . S
C1182 C1188 1.379 . S
C1182 N1190 1.356 . S
C1183 C1182 1.363 . S
C1183 C1189 1.363 . S
C1184 C1185 1.363 . S
C1184 C1189 1.379 . S
C1184 N1191 1.356 . S
C1185 C1184 1.363 . S
C1185 C1188 1.363 . S
N1186 C1188 1.356 . S
N1186 H1198 0.984 . S
N1186 H1199 0.985 . S
N1187 C1189 1.356 . S
N1187 H1192 0.984 . S
N1187 H1193 0.985 . S
C1188 C1182 1.379 . S
C1188 C1185 1.363 . S
C1188 N1186 1.356 . S
C1189 C1183 1.363 . S
C1189 C1184 1.379 . S
C1189 N1187 1.356 . S
N1190 C1182 1.356 . S
N1190 H1196 0.984 . S
N1190 H1197 0.984 . S
N1191 C1184 1.356 . S
N1191 H1194 0.984 . S
N1191 H1195 0.985 . S
H1192 N1187 0.984 . S
H1193 N1187 0.985 . S
H1194 N1191 0.984 . S
H1195 N1191 0.985 . S
H1196 N1190 0.984 . S
H1197 N1190 0.984 . S
H1198 N1186 0.984 . S
H1199 N1186 0.985 . S
C1200 C1201 1.363 . S
C1200 C1206 1.379 . S
C1200 N1208 1.356 . S
C1201 C1200 1.363 . S
C1201 C1207 1.363 . S
C1202 C1203 1.363 . S
C1202 C1207 1.379 . S
C1202 N1209 1.356 . S
C1203 C1202 1.363 . S
C1203 C1206 1.363 . S
N1204 C1206 1.356 . S
N1204 H1216 0.984 . S
N1204 H1217 0.985 . S
N1205 C1207 1.356 . S
N1205 H1210 0.984 1_545 S
N1205 H1211 0.985 1_545 S
C1206 C1200 1.379 . S
C1206 C1203 1.363 . S
C1206 N1204 1.356 . S
C1207 C1201 1.363 . S
C1207 C1202 1.379 . S
C1207 N1205 1.356 . S
N1208 C1200 1.356 . S
N1208 H1214 0.984 . S
N1208 H1215 0.984 . S
N1209 C1202 1.356 . S
N1209 H1212 0.984 . S
N1209 H1213 0.985 . S
H1210 N1205 0.984 1_565 S
H1211 N1205 0.985 1_565 S
H1212 N1209 0.984 . S
H1213 N1209 0.985 . S
H1214 N1208 0.984 . S
H1215 N1208 0.984 . S
H1216 N1204 0.984 . S
H1217 N1204 0.985 . S
C1218 C1219 1.363 . S
C1218 C1224 1.379 . S
C1218 N1226 1.356 . S
C1219 C1218 1.363 . S
C1219 C1225 1.363 . S
C1220 C1221 1.363 . S
C1220 C1225 1.379 . S
C1220 N1227 1.356 . S
C1221 C1220 1.363 . S
C1221 C1224 1.363 . S
N1222 C1224 1.356 . S
N1222 H1234 0.984 . S
N1222 H1235 0.985 . S
N1223 C1225 1.356 . S
N1223 H1228 0.984 . S
N1223 H1229 0.985 . S
C1224 C1218 1.379 . S
C1224 C1221 1.363 . S
C1224 N1222 1.356 . S
C1225 C1219 1.363 . S
C1225 C1220 1.379 . S
C1225 N1223 1.356 . S
N1226 C1218 1.356 . S
N1226 H1232 0.984 . S
N1226 H1233 0.984 . S
N1227 C1220 1.356 . S
N1227 H1230 0.984 . S
N1227 H1231 0.985 . S
H1228 N1223 0.984 . S
H1229 N1223 0.985 . S
H1230 N1227 0.984 . S
H1231 N1227 0.985 . S
H1232 N1226 0.984 . S
H1233 N1226 0.984 . S
H1234 N1222 0.984 . S
H1235 N1222 0.985 . S
C1236 C1237 1.363 . S
C1236 C1242 1.379 . S
C1236 N1244 1.356 . S
C1237 C1236 1.363 . S
C1237 C1243 1.363 . S
C1238 C1239 1.363 . S
C1238 C1243 1.379 . S
C1238 N1245 1.356 1_565 S
C1239 C1238 1.363 . S
C1239 C1242 1.363 . S
N1240 C1242 1.356 . S
N1240 H1252 0.984 . S
N1240 H1253 0.985 . S
N1241 C1243 1.356 . S
N1241 H1246 0.984 . S
N1241 H1247 0.985 . S
C1242 C1236 1.379 . S
C1242 C1239 1.363 . S
C1242 N1240 1.356 . S
C1243 C1237 1.363 . S
C1243 C1238 1.379 . S
C1243 N1241 1.356 . S
N1244 C1236 1.356 . S
N1244 H1250 0.984 . S
N1244 H1251 0.984 . S
N1245 C1238 1.356 1_545 S
N1245 H1248 0.984 . S
N1245 H1249 0.985 . S
H1246 N1241 0.984 . S
H1247 N1241 0.985 . S
H1248 N1245 0.984 . S
H1249 N1245 0.985 . S
H1250 N1244 0.984 . S
H1251 N1244 0.984 . S
H1252 N1240 0.984 . S
H1253 N1240 0.985 . S
C1254 C1255 1.363 . S
C1254 C1260 1.379 . S
C1254 N1262 1.356 . S
C1255 C1254 1.363 . S
C1255 C1261 1.363 . S
C1256 C1257 1.363 . S
C1256 C1261 1.379 . S
C1256 N1263 1.356 . S
C1257 C1256 1.363 . S
C1257 C1260 1.363 . S
N1258 C1260 1.356 1_545 S
N1258 H1270 0.984 . S
N1258 H1271 0.985 . S
N1259 C1261 1.356 . S
N1259 H1264 0.984 . S
N1259 H1265 0.985 . S
C1260 C1254 1.379 . S
C1260 C1257 1.363 . S
C1260 N1258 1.356 1_565 S
C1261 C1255 1.363 . S
C1261 C1256 1.379 . S
C1261 N1259 1.356 . S
N1262 C1254 1.356 . S
N1262 H1268 0.984 . S
N1262 H1269 0.984 . S
N1263 C1256 1.356 . S
N1263 H1266 0.984 . S
N1263 H1267 0.985 . S
H1264 N1259 0.984 . S
H1265 N1259 0.985 . S
H1266 N1263 0.984 . S
H1267 N1263 0.985 . S
H1268 N1262 0.984 . S
H1269 N1262 0.984 . S
H1270 N1258 0.984 . S
H1271 N1258 0.985 . S
C1272 C1273 1.363 . S
C1272 C1278 1.379 . S
C1272 N1280 1.356 . S
C1273 C1272 1.363 . S
C1273 C1279 1.363 . S
C1274 C1275 1.363 . S
C1274 C1279 1.379 . S
C1274 N1281 1.356 . S
C1275 C1274 1.363 . S
C1275 C1278 1.363 . S
N1276 C1278 1.356 . S
N1276 H1288 0.984 . S
N1276 H1289 0.985 . S
N1277 C1279 1.356 . S
N1277 H1282 0.984 . S
N1277 H1283 0.985 . S
C1278 C1272 1.379 . S
C1278 C1275 1.363 . S
C1278 N1276 1.356 . S
C1279 C1273 1.363 . S
C1279 C1274 1.379 . S
C1279 N1277 1.356 . S
N1280 C1272 1.356 . S
N1280 H1286 0.984 . S
N1280 H1287 0.984 . S
N1281 C1274 1.356 . S
N1281 H1284 0.984 . S
N1281 H1285 0.985 . S
H1282 N1277 0.984 . S
H1283 N1277 0.985 . S
H1284 N1281 0.984 . S
H1285 N1281 0.985 . S
H1286 N1280 0.984 . S
H1287 N1280 0.984 . S
H1288 N1276 0.984 . S
H1289 N1276 0.985 . S
C1290 C1291 1.363 . S
C1290 C1296 1.379 . S
C1290 N1298 1.356 . S
C1291 C1290 1.363 . S
C1291 C1297 1.363 . S
C1292 C1293 1.363 . S
C1292 C1297 1.379 . S
C1292 N1299 1.356 . S
C1293 C1292 1.363 . S
C1293 C1296 1.363 . S
N1294 C1296 1.356 . S
N1294 H1306 0.984 . S
N1294 H1307 0.985 . S
N1295 C1297 1.356 . S
N1295 H1300 0.984 . S
N1295 H1301 0.985 . S
C1296 C1290 1.379 . S
C1296 C1293 1.363 . S
C1296 N1294 1.356 . S
C1297 C1291 1.363 . S
C1297 C1292 1.379 . S
C1297 N1295 1.356 . S
N1298 C1290 1.356 . S
N1298 H1304 0.984 . S
N1298 H1305 0.984 . S
N1299 C1292 1.356 . S
N1299 H1302 0.984 . S
N1299 H1303 0.985 . S
H1300 N1295 0.984 . S
H1301 N1295 0.985 . S
H1302 N1299 0.984 . S
H1303 N1299 0.985 . S
H1304 N1298 0.984 . S
H1305 N1298 0.984 . S
H1306 N1294 0.984 . S
H1307 N1294 0.985 . S
C1308 C1309 1.363 . S
C1308 C1314 1.379 . S
C1308 N1316 1.356 . S
C1309 C1308 1.363 . S
C1309 C1315 1.363 . S
C1310 C1311 1.363 . S
C1310 C1315 1.379 . S
C1310 N1317 1.356 . S
C1311 C1310 1.363 . S
C1311 C1314 1.363 . S
N1312 C1314 1.356 . S
N1312 H1324 0.984 . S
N1312 H1325 0.985 . S
N1313 C1315 1.356 . S
N1313 H1318 0.984 . S
N1313 H1319 0.985 . S
C1314 C1308 1.379 . S
C1314 C1311 1.363 . S
C1314 N1312 1.356 . S
C1315 C1309 1.363 . S
C1315 C1310 1.379 . S
C1315 N1313 1.356 . S
N1316 C1308 1.356 . S
N1316 H1322 0.984 . S
N1316 H1323 0.984 . S
N1317 C1310 1.356 . S
N1317 H1320 0.984 . S
N1317 H1321 0.985 . S
H1318 N1313 0.984 . S
H1319 N1313 0.985 . S
H1320 N1317 0.984 . S
H1321 N1317 0.985 . S
H1322 N1316 0.984 . S
H1323 N1316 0.984 . S
H1324 N1312 0.984 . S
H1325 N1312 0.985 . S
C1326 C1327 1.363 . S
C1326 C1332 1.379 . S
C1326 N1334 1.356 . S
C1327 C1326 1.363 . S
C1327 C1333 1.363 . S
C1328 C1329 1.363 . S
C1328 C1333 1.379 . S
C1328 N1335 1.356 . S
C1329 C1328 1.363 . S
C1329 C1332 1.363 . S
N1330 C1332 1.356 . S
N1330 H1342 0.984 . S
N1330 H1343 0.985 . S
N1331 C1333 1.356 . S
N1331 H1336 0.984 . S
N1331 H1337 0.985 . S
C1332 C1326 1.379 . S
C1332 C1329 1.363 . S
C1332 N1330 1.356 . S
C1333 C1327 1.363 . S
C1333 C1328 1.379 . S
C1333 N1331 1.356 . S
N1334 C1326 1.356 . S
N1334 H1340 0.984 . S
N1334 H1341 0.984 . S
N1335 C1328 1.356 . S
N1335 H1338 0.984 . S
N1335 H1339 0.985 . S
H1336 N1331 0.984 . S
H1337 N1331 0.985 . S
H1338 N1335 0.984 . S
H1339 N1335 0.985 . S
H1340 N1334 0.984 . S
H1341 N1334 0.984 . S
H1342 N1330 0.984 . S
H1343 N1330 0.985 . S
C1344 C1345 1.363 . S
C1344 C1350 1.379 . S
C1344 N1352 1.356 . S
C1345 C1344 1.363 . S
C1345 C1351 1.363 . S
C1346 C1347 1.363 . S
C1346 C1351 1.379 . S
C1346 N1353 1.356 . S
C1347 C1346 1.363 . S
C1347 C1350 1.363 . S
N1348 C1350 1.356 . S
N1348 H1360 0.984 . S
N1348 H1361 0.985 . S
N1349 C1351 1.356 . S
N1349 H1354 0.984 . S
N1349 H1355 0.985 . S
C1350 C1344 1.379 . S
C1350 C1347 1.363 . S
C1350 N1348 1.356 . S
C1351 C1345 1.363 . S
C1351 C1346 1.379 . S
C1351 N1349 1.356 . S
N1352 C1344 1.356 . S
N1352 H1358 0.984 . S
N1352 H1359 0.984 . S
N1353 C1346 1.356 . S
N1353 H1356 0.984 . S
N1353 H1357 0.985 . S
H1354 N1349 0.984 . S
H1355 N1349 0.985 . S
H1356 N1353 0.984 . S
H1357 N1353 0.985 . S
H1358 N1352 0.984 . S
H1359 N1352 0.984 . S
H1360 N1348 0.984 . S
H1361 N1348 0.985 . S
C1362 C1363 1.363 . S
C1362 C1368 1.379 . S
C1362 N1370 1.356 . S
C1363 C1362 1.363 . S
C1363 C1369 1.363 . S
C1364 C1365 1.363 . S
C1364 C1369 1.379 . S
C1364 N1371 1.356 1_565 S
C1365 C1364 1.363 . S
C1365 C1368 1.363 . S
N1366 C1368 1.356 . S
N1366 H1378 0.984 . S
N1366 H1379 0.985 . S
N1367 C1369 1.356 . S
N1367 H1372 0.984 . S
N1367 H1373 0.985 . S
C1368 C1362 1.379 . S
C1368 C1365 1.363 . S
C1368 N1366 1.356 . S
C1369 C1363 1.363 . S
C1369 C1364 1.379 . S
C1369 N1367 1.356 . S
N1370 C1362 1.356 . S
N1370 H1376 0.984 . S
N1370 H1377 0.984 . S
N1371 C1364 1.356 1_545 S
N1371 H1374 0.984 . S
N1371 H1375 0.985 . S
H1372 N1367 0.984 . S
H1373 N1367 0.985 . S
H1374 N1371 0.984 . S
H1375 N1371 0.985 . S
H1376 N1370 0.984 . S
H1377 N1370 0.984 . S
H1378 N1366 0.984 . S
H1379 N1366 0.985 . S
C1380 C1381 1.363 . S
C1380 C1386 1.379 . S
C1380 N1388 1.356 . S
C1381 C1380 1.363 . S
C1381 C1387 1.363 . S
C1382 C1383 1.363 . S
C1382 C1387 1.379 . S
C1382 N1389 1.356 . S
C1383 C1382 1.363 . S
C1383 C1386 1.363 . S
N1384 C1386 1.356 . S
N1384 H1396 0.984 . S
N1384 H1397 0.985 . S
N1385 C1387 1.356 1_545 S
N1385 H1390 0.984 . S
N1385 H1391 0.985 . S
C1386 C1380 1.379 . S
C1386 C1383 1.363 . S
C1386 N1384 1.356 . S
C1387 C1381 1.363 . S
C1387 C1382 1.379 . S
C1387 N1385 1.356 1_565 S
N1388 C1380 1.356 . S
N1388 H1394 0.984 . S
N1388 H1395 0.984 . S
N1389 C1382 1.356 . S
N1389 H1392 0.984 . S
N1389 H1393 0.985 1_565 S
H1390 N1385 0.984 . S
H1391 N1385 0.985 . S
H1392 N1389 0.984 . S
H1393 N1389 0.985 1_545 S
H1394 N1388 0.984 . S
H1395 N1388 0.984 . S
H1396 N1384 0.984 . S
H1397 N1384 0.985 . S
C1398 C1399 1.363 . S
C1398 C1404 1.379 . S
C1398 N1406 1.356 . S
C1399 C1398 1.363 . S
C1399 C1405 1.363 . S
C1400 C1401 1.363 . S
C1400 C1405 1.379 . S
C1400 N1407 1.356 . S
C1401 C1400 1.363 . S
C1401 C1404 1.363 . S
N1402 C1404 1.356 . S
N1402 H1414 0.984 . S
N1402 H1415 0.985 . S
N1403 C1405 1.356 . S
N1403 H1408 0.984 . S
N1403 H1409 0.985 . S
C1404 C1398 1.379 . S
C1404 C1401 1.363 . S
C1404 N1402 1.356 . S
C1405 C1399 1.363 . S
C1405 C1400 1.379 . S
C1405 N1403 1.356 . S
N1406 C1398 1.356 . S
N1406 H1412 0.984 . S
N1406 H1413 0.984 . S
N1407 C1400 1.356 . S
N1407 H1410 0.984 . S
N1407 H1411 0.985 . S
H1408 N1403 0.984 . S
H1409 N1403 0.985 . S
H1410 N1407 0.984 . S
H1411 N1407 0.985 . S
H1412 N1406 0.984 . S
H1413 N1406 0.984 . S
H1414 N1402 0.984 . S
H1415 N1402 0.985 . S
C1416 C1417 1.363 . S
C1416 C1422 1.379 . S
C1416 N1424 1.356 . S
C1417 C1416 1.363 . S
C1417 C1423 1.363 . S
C1418 C1419 1.363 . S
C1418 C1423 1.379 . S
C1418 N1425 1.356 . S
C1419 C1418 1.363 . S
C1419 C1422 1.363 . S
N1420 C1422 1.356 . S
N1420 H1432 0.984 . S
N1420 H1433 0.985 . S
N1421 C1423 1.356 . S
N1421 H1426 0.984 . S
N1421 H1427 0.985 . S
C1422 C1416 1.379 . S
C1422 C1419 1.363 . S
C1422 N1420 1.356 . S
C1423 C1417 1.363 . S
C1423 C1418 1.379 . S
C1423 N1421 1.356 . S
N1424 C1416 1.356 . S
N1424 H1430 0.984 . S
N1424 H1431 0.984 . S
N1425 C1418 1.356 . S
N1425 H1428 0.984 . S
N1425 H1429 0.985 . S
H1426 N1421 0.984 . S
H1427 N1421 0.985 . S
H1428 N1425 0.984 . S
H1429 N1425 0.985 . S
H1430 N1424 0.984 . S
H1431 N1424 0.984 . S
H1432 N1420 0.984 . S
H1433 N1420 0.985 . S
C1434 C1435 1.363 . S
C1434 C1440 1.379 . S
C1434 N1442 1.356 . S
C1435 C1434 1.363 . S
C1435 C1441 1.363 . S
C1436 C1437 1.363 . S
C1436 C1441 1.379 . S
C1436 N1443 1.356 . S
C1437 C1436 1.363 . S
C1437 C1440 1.363 . S
N1438 C1440 1.356 . S
N1438 H1450 0.984 . S
N1438 H1451 0.985 . S
N1439 C1441 1.356 . S
N1439 H1444 0.984 . S
N1439 H1445 0.985 . S
C1440 C1434 1.379 . S
C1440 C1437 1.363 . S
C1440 N1438 1.356 . S
C1441 C1435 1.363 . S
C1441 C1436 1.379 . S
C1441 N1439 1.356 . S
N1442 C1434 1.356 . S
N1442 H1448 0.984 . S
N1442 H1449 0.984 . S
N1443 C1436 1.356 . S
N1443 H1446 0.984 . S
N1443 H1447 0.985 . S
H1444 N1439 0.984 . S
H1445 N1439 0.985 . S
H1446 N1443 0.984 . S
H1447 N1443 0.985 . S
H1448 N1442 0.984 . S
H1449 N1442 0.984 . S
H1450 N1438 0.984 . S
H1451 N1438 0.985 . S
C1452 C1453 1.363 . S
C1452 C1458 1.379 . S
C1452 N1460 1.356 . S
C1453 C1452 1.363 . S
C1453 C1459 1.363 . S
C1454 C1455 1.363 . S
C1454 C1459 1.379 . S
C1454 N1461 1.356 . S
C1455 C1454 1.363 . S
C1455 C1458 1.363 . S
N1456 C1458 1.356 . S
N1456 H1468 0.984 1_545 S
N1456 H1469 0.985 . S
N1457 C1459 1.356 . S
N1457 H1462 0.984 . S
N1457 H1463 0.985 . S
C1458 C1452 1.379 . S
C1458 C1455 1.363 . S
C1458 N1456 1.356 . S
C1459 C1453 1.363 . S
C1459 C1454 1.379 . S
C1459 N1457 1.356 . S
N1460 C1452 1.356 . S
N1460 H1466 0.984 . S
N1460 H1467 0.984 . S
N1461 C1454 1.356 . S
N1461 H1464 0.984 . S
N1461 H1465 0.985 . S
H1462 N1457 0.984 . S
H1463 N1457 0.985 . S
H1464 N1461 0.984 . S
H1465 N1461 0.985 . S
H1466 N1460 0.984 . S
H1467 N1460 0.984 . S
H1468 N1456 0.984 1_565 S
H1469 N1456 0.985 . S
C1470 C1471 1.363 . S
C1470 C1476 1.379 . S
C1470 N1478 1.356 . S
C1471 C1470 1.363 . S
C1471 C1477 1.363 . S
C1472 C1473 1.363 . S
C1472 C1477 1.379 . S
C1472 N1479 1.356 . S
C1473 C1472 1.363 . S
C1473 C1476 1.363 . S
N1474 C1476 1.356 . S
N1474 H1486 0.984 . S
N1474 H1487 0.985 . S
N1475 C1477 1.356 . S
N1475 H1480 0.984 . S
N1475 H1481 0.985 . S
C1476 C1470 1.379 . S
C1476 C1473 1.363 . S
C1476 N1474 1.356 . S
C1477 C1471 1.363 . S
C1477 C1472 1.379 . S
C1477 N1475 1.356 . S
N1478 C1470 1.356 . S
N1478 H1484 0.984 . S
N1478 H1485 0.984 . S
N1479 C1472 1.356 . S
N1479 H1482 0.984 . S
N1479 H1483 0.985 . S
H1480 N1475 0.984 . S
H1481 N1475 0.985 . S
H1482 N1479 0.984 . S
H1483 N1479 0.985 . S
H1484 N1478 0.984 . S
H1485 N1478 0.984 . S
H1486 N1474 0.984 . S
H1487 N1474 0.985 . S
C1488 C1489 1.363 . S
C1488 C1494 1.379 . S
C1488 N1496 1.356 . S
C1489 C1488 1.363 . S
C1489 C1495 1.363 . S
C1490 C1491 1.363 . S
C1490 C1495 1.379 . S
C1490 N1497 1.356 . S
C1491 C1490 1.363 . S
C1491 C1494 1.363 . S
N1492 C1494 1.356 . S
N1492 H1504 0.984 . S
N1492 H1505 0.985 . S
N1493 C1495 1.356 . S
N1493 H1498 0.984 . S
N1493 H1499 0.985 . S
C1494 C1488 1.379 . S
C1494 C1491 1.363 . S
C1494 N1492 1.356 . S
C1495 C1489 1.363 . S
C1495 C1490 1.379 . S
C1495 N1493 1.356 . S
N1496 C1488 1.356 . S
N1496 H1502 0.984 . S
N1496 H1503 0.984 . S
N1497 C1490 1.356 . S
N1497 H1500 0.984 . S
N1497 H1501 0.985 . S
H1498 N1493 0.984 . S
H1499 N1493 0.985 . S
H1500 N1497 0.984 . S
H1501 N1497 0.985 . S
H1502 N1496 0.984 . S
H1503 N1496 0.984 . S
H1504 N1492 0.984 . S
H1505 N1492 0.985 . S
C1506 C1507 1.363 . S
C1506 C1512 1.379 . S
C1506 N1514 1.356 . S
C1507 C1506 1.363 . S
C1507 C1513 1.363 . S
C1508 C1509 1.363 . S
C1508 C1513 1.379 . S
C1508 N1515 1.356 . S
C1509 C1508 1.363 . S
C1509 C1512 1.363 . S
N1510 C1512 1.356 . S
N1510 H1522 0.984 . S
N1510 H1523 0.985 . S
N1511 C1513 1.356 1_545 S
N1511 H1516 0.984 . S
N1511 H1517 0.985 . S
C1512 C1506 1.379 . S
C1512 C1509 1.363 . S
C1512 N1510 1.356 . S
C1513 C1507 1.363 . S
C1513 C1508 1.379 . S
C1513 N1511 1.356 1_565 S
N1514 C1506 1.356 . S
N1514 H1520 0.984 . S
N1514 H1521 0.984 . S
N1515 C1508 1.356 . S
N1515 H1518 0.984 . S
N1515 H1519 0.989 . S
H1516 N1511 0.984 . S
H1517 N1511 0.985 . S
H1518 N1515 0.984 . S
H1519 N1515 0.989 . S
H1520 N1514 0.984 . S
H1521 N1514 0.984 . S
H1522 N1510 0.984 . S
H1523 N1510 0.985 . S
C1524 C1525 1.363 . S
C1524 C1530 1.379 . S
C1524 N1532 1.356 1_565 S
C1525 C1524 1.363 . S
C1525 C1531 1.363 . S
C1526 C1527 1.363 . S
C1526 C1531 1.379 . S
C1526 N1533 1.356 . S
C1527 C1526 1.363 . S
C1527 C1530 1.363 . S
N1528 C1530 1.356 . S
N1528 H1540 0.984 1_565 S
N1528 H1541 0.985 . S
N1529 C1531 1.356 . S
N1529 H1534 0.984 . S
N1529 H1535 0.985 . S
C1530 C1524 1.379 . S
C1530 C1527 1.363 . S
C1530 N1528 1.356 . S
C1531 C1525 1.363 . S
C1531 C1526 1.379 . S
C1531 N1529 1.356 . S
N1532 C1524 1.356 1_545 S
N1532 H1538 0.984 . S
N1532 H1539 0.984 . S
N1533 C1526 1.356 . S
N1533 H1536 0.984 . S
N1533 H1537 0.985 . S
H1534 N1529 0.984 . S
H1535 N1529 0.985 . S
H1536 N1533 0.984 . S
H1537 N1533 0.985 . S
H1538 N1532 0.984 . S
H1539 N1532 0.984 . S
H1540 N1528 0.984 1_545 S
H1541 N1528 0.985 . S
C1542 C1543 1.363 . S
C1542 C1548 1.379 . S
C1542 N1550 1.356 . S
C1543 C1542 1.363 . S
C1543 C1549 1.363 . S
C1544 C1545 1.363 . S
C1544 C1549 1.379 . S
C1544 N1551 1.356 . S
C1545 C1544 1.363 . S
C1545 C1548 1.363 . S
N1546 C1548 1.356 . S
N1546 H1558 0.984 . S
N1546 H1559 0.985 . S
N1547 C1549 1.356 . S
N1547 H1552 0.984 . S
N1547 H1553 0.985 . S
C1548 C1542 1.379 . S
C1548 C1545 1.363 . S
C1548 N1546 1.356 . S
C1549 C1543 1.363 . S
C1549 C1544 1.379 . S
C1549 N1547 1.356 . S
N1550 C1542 1.356 . S
N1550 H1556 0.984 . S
N1550 H1557 0.984 . S
N1551 C1544 1.356 . S
N1551 H1554 0.984 . S
N1551 H1555 0.985 . S
H1552 N1547 0.984 . S
H1553 N1547 0.985 . S
H1554 N1551 0.984 . S
H1555 N1551 0.985 . S
H1556 N1550 0.984 . S
H1557 N1550 0.984 . S
H1558 N1546 0.984 . S
H1559 N1546 0.985 . S
C1560 C1561 1.363 . S
C1560 C1566 1.379 . S
C1560 N1568 1.356 . S
C1561 C1560 1.363 . S
C1561 C1567 1.363 . S
C1562 C1563 1.363 . S
C1562 C1567 1.379 . S
C1562 N1569 1.356 . S
C1563 C1562 1.363 . S
C1563 C1566 1.363 . S
N1564 C1566 1.356 . S
N1564 H1576 0.984 . S
N1564 H1577 0.985 . S
N1565 C1567 1.356 . S
N1565 H1570 0.984 . S
N1565 H1571 0.985 . S
C1566 C1560 1.379 . S
C1566 C1563 1.363 . S
C1566 N1564 1.356 . S
C1567 C1561 1.363 . S
C1567 C1562 1.379 . S
C1567 N1565 1.356 . S
N1568 C1560 1.356 . S
N1568 H1574 0.984 . S
N1568 H1575 0.984 . S
N1569 C1562 1.356 . S
N1569 H1572 0.984 . S
N1569 H1573 0.985 . S
H1570 N1565 0.984 . S
H1571 N1565 0.985 . S
H1572 N1569 0.984 . S
H1573 N1569 0.985 . S
H1574 N1568 0.984 . S
H1575 N1568 0.984 . S
H1576 N1564 0.984 . S
H1577 N1564 0.985 . S
C1578 C1579 1.363 . S
C1578 C1584 1.379 . S
C1578 N1586 1.356 . S
C1579 C1578 1.363 . S
C1579 C1585 1.363 . S
C1580 C1581 1.363 . S
C1580 C1585 1.379 . S
C1580 N1587 1.356 . S
C1581 C1580 1.363 . S
C1581 C1584 1.363 . S
N1582 C1584 1.356 . S
N1582 H1594 0.984 . S
N1582 H1595 0.985 . S
N1583 C1585 1.356 . S
N1583 H1588 0.984 . S
N1583 H1589 0.985 . S
C1584 C1578 1.379 . S
C1584 C1581 1.363 . S
C1584 N1582 1.356 . S
C1585 C1579 1.363 . S
C1585 C1580 1.379 . S
C1585 N1583 1.356 . S
N1586 C1578 1.356 . S
N1586 H1592 0.984 . S
N1586 H1593 0.984 . S
N1587 C1580 1.356 . S
N1587 H1590 0.984 . S
N1587 H1591 0.985 . S
H1588 N1583 0.984 . S
H1589 N1583 0.985 . S
H1590 N1587 0.984 . S
H1591 N1587 0.985 . S
H1592 N1586 0.984 . S
H1593 N1586 0.984 . S
H1594 N1582 0.984 . S
H1595 N1582 0.985 . S
C1596 C1597 1.363 . S
C1596 C1602 1.379 . S
C1596 N1604 1.356 . S
C1597 C1596 1.363 . S
C1597 C1603 1.363 . S
C1598 C1599 1.363 . S
C1598 C1603 1.379 . S
C1598 N1605 1.356 . S
C1599 C1598 1.363 . S
C1599 C1602 1.363 . S
N1600 C1602 1.356 . S
N1600 H1612 0.984 . S
N1600 H1613 0.985 . S
N1601 C1603 1.356 . S
N1601 H1606 0.984 . S
N1601 H1607 0.985 . S
C1602 C1596 1.379 . S
C1602 C1599 1.363 . S
C1602 N1600 1.356 . S
C1603 C1597 1.363 . S
C1603 C1598 1.379 . S
C1603 N1601 1.356 . S
N1604 C1596 1.356 . S
N1604 H1610 0.984 . S
N1604 H1611 0.984 . S
N1605 C1598 1.356 . S
N1605 H1608 0.984 . S
N1605 H1609 0.985 . S
H1606 N1601 0.984 . S
H1607 N1601 0.985 . S
H1608 N1605 0.984 . S
H1609 N1605 0.985 . S
H1610 N1604 0.984 . S
H1611 N1604 0.984 . S
H1612 N1600 0.984 . S
H1613 N1600 0.985 . S
C1614 C1615 1.363 . S
C1614 C1620 1.379 . S
C1614 N1622 1.356 . S
C1615 C1614 1.363 . S
C1615 C1621 1.363 . S
C1616 C1617 1.363 . S
C1616 C1621 1.379 . S
C1616 N1623 1.356 . S
C1617 C1616 1.363 . S
C1617 C1620 1.363 . S
N1618 C1620 1.356 . S
N1618 H1630 0.984 . S
N1618 H1631 0.985 . S
N1619 C1621 1.356 . S
N1619 H1624 0.984 . S
N1619 H1625 0.985 . S
C1620 C1614 1.379 . S
C1620 C1617 1.363 . S
C1620 N1618 1.356 . S
C1621 C1615 1.363 . S
C1621 C1616 1.379 . S
C1621 N1619 1.356 . S
N1622 C1614 1.356 . S
N1622 H1628 0.984 . S
N1622 H1629 0.984 . S
N1623 C1616 1.356 . S
N1623 H1626 0.984 . S
N1623 H1627 0.985 . S
H1624 N1619 0.984 . S
H1625 N1619 0.985 . S
H1626 N1623 0.984 . S
H1627 N1623 0.985 . S
H1628 N1622 0.984 . S
H1629 N1622 0.984 . S
H1630 N1618 0.984 . S
H1631 N1618 0.985 . S
C1632 C1633 1.363 . S
C1632 C1638 1.379 . S
C1632 N1640 1.356 1_554 S
C1633 C1632 1.363 . S
C1633 C1639 1.363 . S
C1634 C1635 1.363 . S
C1634 C1639 1.379 . S
C1634 N1641 1.356 . S
C1635 C1634 1.363 . S
C1635 C1638 1.363 . S
N1636 C1638 1.356 1_556 S
N1636 H1648 0.984 . S
N1636 H1649 0.985 . S
N1637 C1639 1.356 . S
N1637 H1642 0.984 . S
N1637 H1643 0.985 . S
C1638 C1632 1.379 . S
C1638 C1635 1.363 . S
C1638 N1636 1.356 1_554 S
C1639 C1633 1.363 . S
C1639 C1634 1.379 . S
C1639 N1637 1.356 . S
N1640 C1632 1.356 1_556 S
N1640 H1646 0.984 . S
N1640 H1647 0.984 . S
N1641 C1634 1.356 . S
N1641 H1644 0.984 . S
N1641 H1645 0.985 . S
H1642 N1637 0.984 . S
H1643 N1637 0.985 . S
H1644 N1641 0.984 . S
H1645 N1641 0.985 . S
H1646 N1640 0.984 . S
H1647 N1640 0.984 . S
H1648 N1636 0.984 . S
H1649 N1636 0.985 . S
C1650 C1651 1.363 . S
C1650 C1656 1.379 . S
C1650 N1658 1.356 . S
C1651 C1650 1.363 . S
C1651 C1657 1.363 . S
C1652 C1653 1.363 . S
C1652 C1657 1.379 . S
C1652 N1659 1.356 . S
C1653 C1652 1.363 . S
C1653 C1656 1.363 . S
N1654 C1656 1.356 . S
N1654 H1666 0.984 . S
N1654 H1667 0.985 . S
N1655 C1657 1.356 . S
N1655 H1660 0.984 . S
N1655 H1661 0.985 . S
C1656 C1650 1.379 . S
C1656 C1653 1.363 . S
C1656 N1654 1.356 . S
C1657 C1651 1.363 . S
C1657 C1652 1.379 . S
C1657 N1655 1.356 . S
N1658 C1650 1.356 . S
N1658 H1664 0.984 . S
N1658 H1665 0.984 . S
N1659 C1652 1.356 . S
N1659 H1662 0.984 . S
N1659 H1663 0.985 . S
H1660 N1655 0.984 . S
H1661 N1655 0.985 . S
H1662 N1659 0.984 . S
H1663 N1659 0.985 . S
H1664 N1658 0.984 . S
H1665 N1658 0.984 . S
H1666 N1654 0.984 . S
H1667 N1654 0.985 . S
C1668 C1669 1.363 1_556 S
C1668 C1674 1.379 . S
C1668 N1676 1.356 . S
C1669 C1668 1.363 1_554 S
C1669 C1675 1.363 . S
C1670 C1671 1.363 . S
C1670 C1675 1.379 . S
C1670 N1677 1.356 . S
C1671 C1670 1.363 . S
C1671 C1674 1.363 1_554 S
N1672 C1674 1.356 . S
N1672 H1684 0.984 . S
N1672 H1685 0.985 . S
N1673 C1675 1.356 1_545 S
N1673 H1678 0.984 . S
N1673 H1679 0.985 . S
C1674 C1668 1.379 . S
C1674 C1671 1.363 1_556 S
C1674 N1672 1.356 . S
C1675 C1669 1.363 . S
C1675 C1670 1.379 . S
C1675 N1673 1.356 1_565 S
N1676 C1668 1.356 . S
N1676 H1682 0.984 . S
N1676 H1683 0.984 . S
N1677 C1670 1.356 . S
N1677 H1680 0.984 . S
N1677 H1681 0.985 . S
H1678 N1673 0.984 . S
H1679 N1673 0.985 . S
H1680 N1677 0.984 . S
H1681 N1677 0.985 . S
H1682 N1676 0.984 . S
H1683 N1676 0.984 . S
H1684 N1672 0.984 . S
H1685 N1672 0.985 . S
C1686 C1687 1.363 . S
C1686 C1692 1.379 . S
C1686 N1694 1.356 . S
C1687 C1686 1.363 . S
C1687 C1693 1.363 . S
C1688 C1689 1.363 . S
C1688 C1693 1.379 . S
C1688 N1695 1.356 . S
C1689 C1688 1.363 . S
C1689 C1692 1.363 . S
N1690 C1692 1.356 . S
N1690 H1702 0.984 . S
N1690 H1703 0.985 . S
N1691 C1693 1.356 1_545 S
N1691 H1696 0.984 . S
N1691 H1697 0.985 . S
C1692 C1686 1.379 . S
C1692 C1689 1.363 . S
C1692 N1690 1.356 . S
C1693 C1687 1.363 . S
C1693 C1688 1.379 . S
C1693 N1691 1.356 1_565 S
N1694 C1686 1.356 . S
N1694 H1700 0.984 . S
N1694 H1701 0.984 . S
N1695 C1688 1.356 . S
N1695 H1698 0.984 . S
N1695 H1699 0.985 . S
H1696 N1691 0.984 . S
H1697 N1691 0.985 . S
H1698 N1695 0.984 . S
H1699 N1695 0.985 . S
H1700 N1694 0.984 . S
H1701 N1694 0.984 . S
H1702 N1690 0.984 . S
H1703 N1690 0.985 . S
C1704 C1705 1.363 . S
C1704 C1710 1.379 . S
C1704 N1712 1.356 . S
C1705 C1704 1.363 . S
C1705 C1711 1.363 . S
C1706 C1707 1.363 . S
C1706 C1711 1.379 . S
C1706 N1713 1.356 . S
C1707 C1706 1.363 . S
C1707 C1710 1.363 . S
N1708 C1710 1.356 . S
N1708 H1720 0.984 . S
N1708 H1721 0.985 . S
N1709 C1711 1.356 . S
N1709 H1714 0.984 . S
N1709 H1715 0.985 . S
C1710 C1704 1.379 . S
C1710 C1707 1.363 . S
C1710 N1708 1.356 . S
C1711 C1705 1.363 . S
C1711 C1706 1.379 . S
C1711 N1709 1.356 . S
N1712 C1704 1.356 . S
N1712 H1718 0.984 . S
N1712 H1719 0.984 . S
N1713 C1706 1.356 . S
N1713 H1716 0.984 . S
N1713 H1717 0.985 . S
H1714 N1709 0.984 . S
H1715 N1709 0.985 . S
H1716 N1713 0.984 . S
H1717 N1713 0.985 . S
H1718 N1712 0.984 . S
H1719 N1712 0.984 . S
H1720 N1708 0.984 . S
H1721 N1708 0.985 . S
C1722 C1723 1.363 . S
C1722 C1728 1.379 . S
C1722 N1730 1.356 . S
C1723 C1722 1.363 . S
C1723 C1729 1.363 . S
C1724 C1725 1.363 . S
C1724 C1729 1.379 . S
C1724 N1731 1.356 . S
C1725 C1724 1.363 . S
C1725 C1728 1.363 . S
N1726 C1728 1.356 . S
N1726 H1738 0.984 . S
N1726 H1739 0.985 . S
N1727 C1729 1.356 . S
N1727 H1732 0.984 . S
N1727 H1733 0.985 . S
C1728 C1722 1.379 . S
C1728 C1725 1.363 . S
C1728 N1726 1.356 . S
C1729 C1723 1.363 . S
C1729 C1724 1.379 . S
C1729 N1727 1.356 . S
N1730 C1722 1.356 . S
N1730 H1736 0.984 . S
N1730 H1737 0.984 . S
N1731 C1724 1.356 . S
N1731 H1734 0.984 . S
N1731 H1735 0.985 . S
H1732 N1727 0.984 . S
H1733 N1727 0.985 . S
H1734 N1731 0.984 . S
H1735 N1731 0.985 . S
H1736 N1730 0.984 . S
H1737 N1730 0.984 . S
H1738 N1726 0.984 . S
H1739 N1726 0.985 . S
C1740 C1741 1.363 . S
C1740 C1746 1.379 . S
C1740 N1748 1.356 . S
C1741 C1740 1.363 . S
C1741 C1747 1.363 . S
C1742 C1743 1.363 . S
C1742 C1747 1.379 . S
C1742 N1749 1.356 . S
C1743 C1742 1.363 . S
C1743 C1746 1.363 . S
N1744 C1746 1.356 . S
N1744 H1756 0.984 . S
N1744 H1757 0.985 . S
N1745 C1747 1.356 . S
N1745 H1750 0.984 . S
N1745 H1751 0.985 . S
C1746 C1740 1.379 . S
C1746 C1743 1.363 . S
C1746 N1744 1.356 . S
C1747 C1741 1.363 . S
C1747 C1742 1.379 . S
C1747 N1745 1.356 . S
N1748 C1740 1.356 . S
N1748 H1754 0.984 . S
N1748 H1755 0.984 . S
N1749 C1742 1.356 . S
N1749 H1752 0.984 . S
N1749 H1753 0.985 . S
H1750 N1745 0.984 . S
H1751 N1745 0.985 . S
H1752 N1749 0.984 . S
H1753 N1749 0.985 . S
H1754 N1748 0.984 . S
H1755 N1748 0.984 . S
H1756 N1744 0.984 . S
H1757 N1744 0.985 . S
C1758 C1759 1.363 . S
C1758 C1764 1.379 . S
C1758 N1766 1.356 . S
C1759 C1758 1.363 . S
C1759 C1765 1.363 . S
C1760 C1761 1.363 . S
C1760 C1765 1.379 . S
C1760 N1767 1.356 . S
C1761 C1760 1.363 . S
C1761 C1764 1.363 . S
N1762 C1764 1.356 . S
N1762 H1774 0.984 . S
N1762 H1775 0.985 . S
N1763 C1765 1.356 . S
N1763 H1768 0.984 . S
N1763 H1769 0.985 . S
C1764 C1758 1.379 . S
C1764 C1761 1.363 . S
C1764 N1762 1.356 . S
C1765 C1759 1.363 . S
C1765 C1760 1.379 . S
C1765 N1763 1.356 . S
N1766 C1758 1.356 . S
N1766 H1772 0.984 . S
N1766 H1773 0.984 . S
N1767 C1760 1.356 . S
N1767 H1770 0.984 . S
N1767 H1771 0.985 . S
H1768 N1763 0.984 . S
H1769 N1763 0.985 . S
H1770 N1767 0.984 . S
H1771 N1767 0.985 . S
H1772 N1766 0.984 . S
H1773 N1766 0.984 . S
H1774 N1762 0.984 . S
H1775 N1762 0.985 . S
C1776 C1777 1.363 . S
C1776 C1782 1.379 . S
C1776 N1784 1.356 . S
C1777 C1776 1.363 . S
C1777 C1783 1.363 . S
C1778 C1779 1.363 . S
C1778 C1783 1.379 . S
C1778 N1785 1.356 . S
C1779 C1778 1.363 . S
C1779 C1782 1.363 . S
N1780 C1782 1.356 . S
N1780 H1792 0.984 . S
N1780 H1793 0.985 . S
N1781 C1783 1.356 . S
N1781 H1786 0.984 . S
N1781 H1787 0.985 . S
C1782 C1776 1.379 . S
C1782 C1779 1.363 . S
C1782 N1780 1.356 . S
C1783 C1777 1.363 . S
C1783 C1778 1.379 . S
C1783 N1781 1.356 . S
N1784 C1776 1.356 . S
N1784 H1790 0.984 . S
N1784 H1791 0.984 . S
N1785 C1778 1.356 . S
N1785 H1788 0.984 . S
N1785 H1789 0.985 . S
H1786 N1781 0.984 . S
H1787 N1781 0.985 . S
H1788 N1785 0.984 . S
H1789 N1785 0.985 . S
H1790 N1784 0.984 . S
H1791 N1784 0.984 . S
H1792 N1780 0.984 . S
H1793 N1780 0.985 . S
C1794 C1795 1.363 . S
C1794 C1800 1.379 . S
C1794 N1802 1.356 . S
C1795 C1794 1.363 . S
C1795 C1801 1.363 . S
C1796 C1797 1.363 . S
C1796 C1801 1.379 . S
C1796 N1803 1.356 . S
C1797 C1796 1.363 . S
C1797 C1800 1.363 . S
N1798 C1800 1.356 . S
N1798 H1810 0.984 . S
N1798 H1811 0.985 . S
N1799 C1801 1.356 . S
N1799 H1804 0.984 . S
N1799 H1805 0.985 . S
C1800 C1794 1.379 . S
C1800 C1797 1.363 . S
C1800 N1798 1.356 . S
C1801 C1795 1.363 . S
C1801 C1796 1.379 . S
C1801 N1799 1.356 . S
N1802 C1794 1.356 . S
N1802 H1808 0.984 . S
N1802 H1809 0.984 . S
N1803 C1796 1.356 . S
N1803 H1806 0.984 . S
N1803 H1807 0.985 . S
H1804 N1799 0.984 . S
H1805 N1799 0.985 . S
H1806 N1803 0.984 . S
H1807 N1803 0.985 . S
H1808 N1802 0.984 . S
H1809 N1802 0.984 . S
H1810 N1798 0.984 . S
H1811 N1798 0.985 . S
C1812 C1813 1.363 . S
C1812 C1818 1.379 . S
C1812 N1820 1.356 . S
C1813 C1812 1.363 . S
C1813 C1819 1.363 . S
C1814 C1815 1.363 . S
C1814 C1819 1.379 . S
C1814 N1821 1.356 1_565 S
C1815 C1814 1.363 . S
C1815 C1818 1.363 . S
N1816 C1818 1.356 . S
N1816 H1828 0.984 . S
N1816 H1829 0.985 . S
N1817 C1819 1.356 . S
N1817 H1822 0.984 . S
N1817 H1823 0.985 . S
C1818 C1812 1.379 . S
C1818 C1815 1.363 . S
C1818 N1816 1.356 . S
C1819 C1813 1.363 . S
C1819 C1814 1.379 . S
C1819 N1817 1.356 . S
N1820 C1812 1.356 . S
N1820 H1826 0.984 . S
N1820 H1827 0.984 . S
N1821 C1814 1.356 1_545 S
N1821 H1824 0.984 . S
N1821 H1825 0.985 . S
H1822 N1817 0.984 . S
H1823 N1817 0.985 . S
H1824 N1821 0.984 . S
H1825 N1821 0.985 . S
H1826 N1820 0.984 . S
H1827 N1820 0.984 . S
H1828 N1816 0.984 . S
H1829 N1816 0.985 . S
C1830 C1831 1.363 . S
C1830 C1836 1.379 . S
C1830 N1838 1.356 . S
C1831 C1830 1.363 . S
C1831 C1837 1.363 . S
C1832 C1833 1.363 . S
C1832 C1837 1.379 . S
C1832 N1839 1.356 . S
C1833 C1832 1.363 . S
C1833 C1836 1.363 . S
N1834 C1836 1.356 1_545 S
N1834 H1846 0.984 . S
N1834 H1847 0.985 . S
N1835 C1837 1.356 . S
N1835 H1840 0.984 . S
N1835 H1841 0.985 . S
C1836 C1830 1.379 . S
C1836 C1833 1.363 . S
C1836 N1834 1.356 1_565 S
C1837 C1831 1.363 . S
C1837 C1832 1.379 . S
C1837 N1835 1.356 . S
N1838 C1830 1.356 . S
N1838 H1844 0.984 . S
N1838 H1845 0.984 . S
N1839 C1832 1.356 . S
N1839 H1842 0.984 . S
N1839 H1843 0.985 . S
H1840 N1835 0.984 . S
H1841 N1835 0.985 . S
H1842 N1839 0.984 . S
H1843 N1839 0.985 . S
H1844 N1838 0.984 . S
H1845 N1838 0.984 . S
H1846 N1834 0.984 . S
H1847 N1834 0.985 . S
C1848 C1849 1.363 . S
C1848 C1854 1.379 . S
C1848 N1856 1.356 1_554 S
C1849 C1848 1.363 . S
C1849 C1855 1.363 . S
C1850 C1851 1.363 . S
C1850 C1855 1.379 . S
C1850 N1857 1.356 . S
C1851 C1850 1.363 . S
C1851 C1854 1.363 . S
N1852 C1854 1.356 1_556 S
N1852 H1864 0.984 . S
N1852 H1865 0.985 . S
N1853 C1855 1.356 . S
N1853 H1858 0.984 . S
N1853 H1859 0.985 . S
C1854 C1848 1.379 . S
C1854 C1851 1.363 . S
C1854 N1852 1.356 1_554 S
C1855 C1849 1.363 . S
C1855 C1850 1.379 . S
C1855 N1853 1.356 . S
N1856 C1848 1.356 1_556 S
N1856 H1862 0.984 . S
N1856 H1863 0.984 . S
N1857 C1850 1.356 . S
N1857 H1860 0.984 . S
N1857 H1861 0.985 . S
H1858 N1853 0.984 . S
H1859 N1853 0.985 . S
H1860 N1857 0.984 . S
H1861 N1857 0.985 . S
H1862 N1856 0.984 . S
H1863 N1856 0.984 . S
H1864 N1852 0.984 . S
H1865 N1852 0.985 . S
C1866 C1867 1.363 . S
C1866 C1872 1.379 . S
C1866 N1874 1.356 . S
C1867 C1866 1.363 . S
C1867 C1873 1.363 . S
C1868 C1869 1.363 . S
C1868 C1873 1.379 . S
C1868 N1875 1.356 . S
C1869 C1868 1.363 . S
C1869 C1872 1.363 . S
N1870 C1872 1.356 . S
N1870 H1882 0.984 . S
N1870 H1883 0.985 . S
N1871 C1873 1.356 . S
N1871 H1876 0.984 . S
N1871 H1877 0.985 . S
C1872 C1866 1.379 . S
C1872 C1869 1.363 . S
C1872 N1870 1.356 . S
C1873 C1867 1.363 . S
C1873 C1868 1.379 . S
C1873 N1871 1.356 . S
N1874 C1866 1.356 . S
N1874 H1880 0.984 . S
N1874 H1881 0.984 . S
N1875 C1868 1.356 . S
N1875 H1878 0.984 . S
N1875 H1879 0.985 . S
H1876 N1871 0.984 . S
H1877 N1871 0.985 . S
H1878 N1875 0.984 . S
H1879 N1875 0.985 . S
H1880 N1874 0.984 . S
H1881 N1874 0.984 . S
H1882 N1870 0.984 . S
H1883 N1870 0.985 . S
C1884 C1885 1.363 1_556 S
C1884 C1890 1.379 . S
C1884 N1892 1.356 . S
C1885 C1884 1.363 1_554 S
C1885 C1891 1.363 . S
C1886 C1887 1.363 . S
C1886 C1891 1.379 . S
C1886 N1893 1.356 . S
C1887 C1886 1.363 . S
C1887 C1890 1.363 1_554 S
N1888 C1890 1.356 . S
N1888 H1900 0.984 . S
N1888 H1901 0.985 . S
N1889 C1891 1.356 . S
N1889 H1894 0.984 . S
N1889 H1895 0.985 . S
C1890 C1884 1.379 . S
C1890 C1887 1.363 1_556 S
C1890 N1888 1.356 . S
C1891 C1885 1.363 . S
C1891 C1886 1.379 . S
C1891 N1889 1.356 . S
N1892 C1884 1.356 . S
N1892 H1898 0.984 . S
N1892 H1899 0.984 . S
N1893 C1886 1.356 . S
N1893 H1896 0.984 . S
N1893 H1897 0.985 . S
H1894 N1889 0.984 . S
H1895 N1889 0.985 . S
H1896 N1893 0.984 . S
H1897 N1893 0.985 . S
H1898 N1892 0.984 . S
H1899 N1892 0.984 . S
H1900 N1888 0.984 . S
H1901 N1888 0.985 . S
C1902 C1903 1.363 . S
C1902 C1908 1.379 . S
C1902 N1910 1.356 . S
C1903 C1902 1.363 . S
C1903 C1909 1.363 . S
C1904 C1905 1.363 . S
C1904 C1909 1.379 . S
C1904 N1911 1.356 . S
C1905 C1904 1.363 . S
C1905 C1908 1.363 . S
N1906 C1908 1.356 . S
N1906 H1918 0.984 . S
N1906 H1919 0.985 . S
N1907 C1909 1.356 . S
N1907 H1912 0.984 . S
N1907 H1913 0.985 . S
C1908 C1902 1.379 . S
C1908 C1905 1.363 . S
C1908 N1906 1.356 . S
C1909 C1903 1.363 . S
C1909 C1904 1.379 . S
C1909 N1907 1.356 . S
N1910 C1902 1.356 . S
N1910 H1916 0.984 . S
N1910 H1917 0.984 . S
N1911 C1904 1.356 . S
N1911 H1914 0.984 . S
N1911 H1915 0.985 . S
H1912 N1907 0.984 . S
H1913 N1907 0.985 . S
H1914 N1911 0.984 . S
H1915 N1911 0.985 . S
H1916 N1910 0.984 . S
H1917 N1910 0.984 . S
H1918 N1906 0.984 . S
H1919 N1906 0.985 . S
C1920 C1921 1.363 . S
C1920 C1926 1.379 1_455 S
C1920 N1928 1.356 . S
C1921 C1920 1.363 . S
C1921 C1927 1.363 1_554 S
C1922 C1923 1.363 1_556 S
C1922 C1927 1.379 1_655 S
C1922 N1929 1.356 . S
C1923 C1922 1.363 1_554 S
C1923 C1926 1.363 . S
N1924 C1926 1.356 . S
N1924 H1936 0.984 . S
N1924 H1937 0.985 . S
N1925 C1927 1.356 . S
N1925 H1930 0.984 . S
N1925 H1931 0.985 . S
C1926 C1920 1.379 1_655 S
C1926 C1923 1.363 . S
C1926 N1924 1.356 . S
C1927 C1921 1.363 1_556 S
C1927 C1922 1.379 1_455 S
C1927 N1925 1.356 . S
N1928 C1920 1.356 . S
N1928 H1934 0.984 . S
N1928 H1935 0.984 . S
N1929 C1922 1.356 . S
N1929 H1932 0.984 . S
N1929 H1933 0.985 . S
H1930 N1925 0.984 . S
H1931 N1925 0.985 . S
H1932 N1929 0.984 . S
H1933 N1929 0.985 . S
H1934 N1928 0.984 . S
H1935 N1928 0.984 . S
H1936 N1924 0.984 . S
H1937 N1924 0.985 . S
C1938 C1939 1.363 1_556 S
C1938 C1944 1.379 1_556 S
C1938 N1946 1.356 . S
C1939 C1938 1.363 1_554 S
C1939 C1945 1.363 . S
C1940 C1941 1.363 . S
C1940 C1945 1.379 . S
C1940 N1947 1.356 . S
C1941 C1940 1.363 . S
C1941 C1944 1.363 . S
N1942 C1944 1.356 1_556 S
N1942 H1954 0.984 . S
N1942 H1955 0.984 1_556 S
N1943 C1945 1.356 . S
N1943 H1948 0.984 . S
N1943 H1949 0.985 . S
C1944 C1938 1.379 1_554 S
C1944 C1941 1.363 . S
C1944 N1942 1.356 1_554 S
C1945 C1939 1.363 . S
C1945 C1940 1.379 . S
C1945 N1943 1.356 . S
N1946 C1938 1.356 . S
N1946 H1952 0.984 . S
N1946 H1953 0.984 . S
N1947 C1940 1.356 . S
N1947 H1950 0.984 . S
N1947 H1951 0.985 . S
H1948 N1943 0.984 . S
H1949 N1943 0.985 . S
H1950 N1947 0.984 . S
H1951 N1947 0.985 . S
H1952 N1946 0.984 . S
H1953 N1946 0.984 . S
H1954 N1942 0.984 . S
H1955 N1942 0.984 1_554 S
C1956 C1957 1.400 . S
C1956 C1962 1.342 1_455 S
C1956 N1964 1.371 . S
C1957 C1956 1.400 . S
C1957 C1963 1.363 . S
C1958 C1959 1.400 . S
C1958 C1963 1.342 1_655 S
C1958 N1965 1.371 . S
C1959 C1958 1.400 . S
C1959 C1962 1.363 . S
N1960 C1962 1.356 . S
N1960 H1972 0.984 . S
N1960 H1973 0.985 . S
N1961 C1963 1.356 . S
N1961 H1966 0.984 . S
N1961 H1967 0.985 . S
C1962 C1956 1.342 1_655 S
C1962 C1959 1.363 . S
C1962 N1960 1.356 . S
C1963 C1957 1.363 . S
C1963 C1958 1.342 1_455 S
C1963 N1961 1.356 . S
N1964 C1956 1.371 . S
N1964 H1970 0.984 1_455 S
N1964 H1971 0.984 . S
N1965 C1958 1.371 . S
N1965 H1968 0.984 . S
N1965 H1969 0.985 1_655 S
H1966 N1961 0.984 . S
H1967 N1961 0.985 . S
H1968 N1965 0.984 . S
H1969 N1965 0.985 1_455 S
H1970 N1964 0.984 1_655 S
H1971 N1964 0.984 . S
H1972 N1960 0.984 . S
H1973 N1960 0.985 . S
C1974 C1975 1.363 . S
C1974 C1980 1.379 . S
C1974 N1982 1.356 . S
C1975 C1974 1.363 . S
C1975 C1981 1.363 . S
C1976 C1977 1.363 . S
C1976 C1981 1.379 . S
C1976 N1983 1.356 . S
C1977 C1976 1.363 . S
C1977 C1980 1.363 . S
N1978 C1980 1.356 . S
N1978 H1990 0.984 . S
N1978 H1991 0.985 . S
N1979 C1981 1.356 . S
N1979 H1984 0.984 . S
N1979 H1985 0.985 . S
C1980 C1974 1.379 . S
C1980 C1977 1.363 . S
C1980 N1978 1.356 . S
C1981 C1975 1.363 . S
C1981 C1976 1.379 . S
C1981 N1979 1.356 . S
N1982 C1974 1.356 . S
N1982 H1988 0.984 . S
N1982 H1989 0.984 . S
N1983 C1976 1.356 . S
N1983 H1986 0.984 . S
N1983 H1987 0.985 . S
H1984 N1979 0.984 . S
H1985 N1979 0.985 . S
H1986 N1983 0.984 . S
H1987 N1983 0.985 . S
H1988 N1982 0.984 . S
H1989 N1982 0.984 . S
H1990 N1978 0.984 . S
H1991 N1978 0.985 . S
C1992 C1993 1.363 . S
C1992 C1998 1.379 . S
C1992 N2000 1.356 . S
C1993 C1992 1.363 . S
C1993 C1999 1.363 1_554 S
C1994 C1995 1.363 1_556 S
C1994 C1999 1.379 . S
C1994 N2001 1.356 . S
C1995 C1994 1.363 1_554 S
C1995 C1998 1.363 . S
N1996 C1998 1.356 . S
N1996 H2008 0.984 . S
N1996 H2009 0.985 . S
N1997 C1999 1.356 . S
N1997 H2002 0.984 . S
N1997 H2003 0.985 . S
C1998 C1992 1.379 . S
C1998 C1995 1.363 . S
C1998 N1996 1.356 . S
C1999 C1993 1.363 1_556 S
C1999 C1994 1.379 . S
C1999 N1997 1.356 . S
N2000 C1992 1.356 . S
N2000 H2006 0.984 . S
N2000 H2007 0.984 . S
N2001 C1994 1.356 . S
N2001 H2004 0.984 . S
N2001 H2005 0.985 . S
H2002 N1997 0.984 . S
H2003 N1997 0.985 . S
H2004 N2001 0.984 . S
H2005 N2001 0.985 . S
H2006 N2000 0.984 . S
H2007 N2000 0.984 . S
H2008 N1996 0.984 . S
H2009 N1996 0.985 . S
C2010 C2011 1.363 . S
C2010 C2016 1.379 1_655 S
C2010 N2018 1.356 . S
C2011 C2010 1.363 . S
C2011 C2017 1.363 . S
C2012 C2013 1.363 . S
C2012 C2017 1.379 1_455 S
C2012 N2019 1.356 . S
C2013 C2012 1.363 . S
C2013 C2016 1.363 . S
N2014 C2016 1.356 . S
N2014 H2026 0.984 . S
N2014 H2027 0.985 . S
N2015 C2017 1.356 . S
N2015 H2020 0.984 . S
N2015 H2021 0.985 . S
C2016 C2010 1.379 1_455 S
C2016 C2013 1.363 . S
C2016 N2014 1.356 . S
C2017 C2011 1.363 . S
C2017 C2012 1.379 1_655 S
C2017 N2015 1.356 . S
N2018 C2010 1.356 . S
N2018 H2024 1.016 . S
N2018 H2025 0.984 . S
N2019 C2012 1.356 . S
N2019 H2022 0.984 . S
N2019 H2023 1.015 . S
H2020 N2015 0.984 . S
H2021 N2015 0.985 . S
H2022 N2019 0.984 . S
H2023 N2019 1.015 . S
H2024 N2018 1.016 . S
H2025 N2018 0.984 . S
H2026 N2014 0.984 . S
H2027 N2014 0.985 . S
C2028 C2029 1.363 . S
C2028 C2034 1.379 . S
C2028 N2036 1.356 . S
C2029 C2028 1.363 . S
C2029 C2035 1.363 . S
C2030 C2031 1.363 . S
C2030 C2035 1.379 . S
C2030 N2037 1.356 . S
C2031 C2030 1.363 . S
C2031 C2034 1.363 . S
N2032 C2034 1.356 . S
N2032 H2044 0.984 . S
N2032 H2045 0.985 . S
N2033 C2035 1.356 . S
N2033 H2038 0.984 . S
N2033 H2039 0.985 . S
C2034 C2028 1.379 . S
C2034 C2031 1.363 . S
C2034 N2032 1.356 . S
C2035 C2029 1.363 . S
C2035 C2030 1.379 . S
C2035 N2033 1.356 . S
N2036 C2028 1.356 . S
N2036 H2042 0.984 . S
N2036 H2043 0.984 . S
N2037 C2030 1.356 . S
N2037 H2040 0.984 . S
N2037 H2041 0.985 . S
H2038 N2033 0.984 . S
H2039 N2033 0.985 . S
H2040 N2037 0.984 . S
H2041 N2037 0.985 . S
H2042 N2036 0.984 . S
H2043 N2036 0.984 . S
H2044 N2032 0.984 . S
H2045 N2032 0.985 . S
C2046 C2047 1.363 . S
C2046 C2052 1.379 1_645 S
C2046 N2054 1.356 . S
C2047 C2046 1.363 . S
C2047 C2053 1.363 . S
C2048 C2049 1.363 1_545 S
C2048 C2053 1.379 1_455 S
C2048 N2055 1.356 . S
C2049 C2048 1.363 1_565 S
C2049 C2052 1.363 . S
N2050 C2052 1.356 . S
N2050 H2062 0.984 . S
N2050 H2063 0.985 . S
N2051 C2053 1.356 . S
N2051 H2056 0.984 . S
N2051 H2057 0.985 . S
C2052 C2046 1.379 1_465 S
C2052 C2049 1.363 . S
C2052 N2050 1.356 . S
C2053 C2047 1.363 . S
C2053 C2048 1.379 1_655 S
C2053 N2051 1.356 . S
N2054 C2046 1.356 . S
N2054 H2060 0.984 . S
N2054 H2061 0.984 . S
N2055 C2048 1.356 . S
N2055 H2058 0.984 1_545 S
N2055 H2059 0.985 . S
H2056 N2051 0.984 . S
H2057 N2051 0.985 . S
H2058 N2055 0.984 1_565 S
H2059 N2055 0.985 . S
H2060 N2054 0.984 . S
H2061 N2054 0.984 . S
H2062 N2050 0.984 . S
H2063 N2050 0.985 . S
C2064 C2065 1.363 . S
C2064 C2070 1.379 . S
C2064 N2072 1.356 . S
C2065 C2064 1.363 . S
C2065 C2071 1.363 . S
C2066 C2067 1.363 . S
C2066 C2071 1.379 . S
C2066 N2073 1.356 . S
C2067 C2066 1.363 . S
C2067 C2070 1.363 . S
N2068 C2070 1.356 . S
N2068 H2080 0.984 . S
N2068 H2081 0.985 . S
N2069 C2071 1.356 . S
N2069 H2074 0.984 . S
N2069 H2075 0.985 . S
C2070 C2064 1.379 . S
C2070 C2067 1.363 . S
C2070 N2068 1.356 . S
C2071 C2065 1.363 . S
C2071 C2066 1.379 . S
C2071 N2069 1.356 . S
N2072 C2064 1.356 . S
N2072 H2078 0.984 . S
N2072 H2079 0.984 . S
N2073 C2066 1.356 . S
N2073 H2076 0.984 . S
N2073 H2077 0.985 . S
H2074 N2069 0.984 . S
H2075 N2069 0.985 . S
H2076 N2073 0.984 . S
H2077 N2073 0.985 . S
H2078 N2072 0.984 . S
H2079 N2072 0.984 . S
H2080 N2068 0.984 . S
H2081 N2068 0.985 . S
C2082 C2083 1.363 . S
C2082 C2088 1.379 1_545 S
C2082 N2090 1.356 . S
C2083 C2082 1.363 . S
C2083 C2089 1.363 . S
C2084 C2085 1.363 1_545 S
C2084 C2089 1.379 . S
C2084 N2091 1.356 . S
C2085 C2084 1.363 1_565 S
C2085 C2088 1.363 . S
N2086 C2088 1.356 . S
N2086 H2098 0.984 . S
N2086 H2099 0.985 . S
N2087 C2089 1.356 . S
N2087 H2092 0.984 . S
N2087 H2093 0.985 . S
C2088 C2082 1.379 1_565 S
C2088 C2085 1.363 . S
C2088 N2086 1.356 . S
C2089 C2083 1.363 . S
C2089 C2084 1.379 . S
C2089 N2087 1.356 . S
N2090 C2082 1.356 . S
N2090 H2096 0.984 1_545 S
N2090 H2097 0.984 . S
N2091 C2084 1.356 . S
N2091 H2094 0.984 . S
N2091 H2095 0.985 . S
H2092 N2087 0.984 . S
H2093 N2087 0.985 . S
H2094 N2091 0.984 . S
H2095 N2091 0.985 . S
H2096 N2090 0.984 1_565 S
H2097 N2090 0.984 . S
H2098 N2086 0.984 . S
H2099 N2086 0.985 . S
C2100 C2101 1.363 . S
C2100 C2106 1.379 . S
C2100 N2108 1.356 . S
C2101 C2100 1.363 . S
C2101 C2107 1.363 . S
C2102 C2103 1.363 . S
C2102 C2107 1.379 . S
C2102 N2109 1.356 . S
C2103 C2102 1.363 . S
C2103 C2106 1.363 . S
N2104 C2106 1.356 . S
N2104 H2116 0.984 . S
N2104 H2117 0.985 . S
N2105 C2107 1.356 . S
N2105 H2110 0.984 . S
N2105 H2111 0.985 . S
C2106 C2100 1.379 . S
C2106 C2103 1.363 . S
C2106 N2104 1.356 . S
C2107 C2101 1.363 . S
C2107 C2102 1.379 . S
C2107 N2105 1.356 . S
N2108 C2100 1.356 . S
N2108 H2114 0.984 . S
N2108 H2115 0.984 . S
N2109 C2102 1.356 . S
N2109 H2112 0.984 . S
N2109 H2113 0.985 . S
H2110 N2105 0.984 . S
H2111 N2105 0.985 . S
H2112 N2109 0.984 . S
H2113 N2109 0.985 . S
H2114 N2108 0.984 . S
H2115 N2108 0.984 . S
H2116 N2104 0.984 . S
H2117 N2104 0.985 . S
C2118 C2119 1.363 . S
C2118 C2124 1.379 . S
C2118 N2126 1.356 . S
C2119 C2118 1.363 . S
C2119 C2125 1.363 . S
C2120 C2121 1.363 . S
C2120 C2125 1.379 1_565 S
C2120 N2127 1.356 . S
C2121 C2120 1.363 . S
C2121 C2124 1.363 1_565 S
N2122 C2124 1.356 . S
N2122 H2134 0.984 . S
N2122 H2135 0.985 1_545 S
N2123 C2125 1.356 . S
N2123 H2128 0.984 . S
N2123 H2129 0.985 . S
C2124 C2118 1.379 . S
C2124 C2121 1.363 1_545 S
C2124 N2122 1.356 . S
C2125 C2119 1.363 . S
C2125 C2120 1.379 1_545 S
C2125 N2123 1.356 . S
N2126 C2118 1.356 . S
N2126 H2132 0.984 . S
N2126 H2133 0.984 . S
N2127 C2120 1.356 . S
N2127 H2130 0.984 . S
N2127 H2131 0.985 . S
H2128 N2123 0.984 . S
H2129 N2123 0.985 . S
H2130 N2127 0.984 . S
H2131 N2127 0.985 . S
H2132 N2126 0.984 . S
H2133 N2126 0.984 . S
H2134 N2122 0.984 . S
H2135 N2122 0.985 1_565 S
C2136 C2137 1.363 . S
C2136 C2142 1.379 . S
C2136 N2144 1.356 . S
C2137 C2136 1.363 . S
C2137 C2143 1.363 . S
C2138 C2139 1.363 . S
C2138 C2143 1.379 . S
C2138 N2145 1.356 . S
C2139 C2138 1.363 . S
C2139 C2142 1.363 . S
N2140 C2142 1.356 . S
N2140 H2152 0.984 . S
N2140 H2153 0.985 . S
N2141 C2143 1.356 . S
N2141 H2146 0.984 . S
N2141 H2147 0.985 . S
C2142 C2136 1.379 . S
C2142 C2139 1.363 . S
C2142 N2140 1.356 . S
C2143 C2137 1.363 . S
C2143 C2138 1.379 . S
C2143 N2141 1.356 . S
N2144 C2136 1.356 . S
N2144 H2150 0.984 . S
N2144 H2151 0.984 . S
N2145 C2138 1.356 . S
N2145 H2148 0.984 . S
N2145 H2149 0.985 . S
H2146 N2141 0.984 . S
H2147 N2141 0.985 . S
H2148 N2145 0.984 . S
H2149 N2145 0.985 . S
H2150 N2144 0.984 . S
H2151 N2144 0.984 . S
H2152 N2140 0.984 . S
H2153 N2140 0.985 . S
C2154 C2155 1.363 . S
C2154 C2160 1.379 . S
C2154 N2162 1.356 . S
C2155 C2154 1.363 . S
C2155 C2161 1.363 . S
C2156 C2157 1.363 . S
C2156 C2161 1.379 . S
C2156 N2163 1.356 . S
C2157 C2156 1.363 . S
C2157 C2160 1.363 . S
N2158 C2160 1.356 . S
N2158 H2170 0.984 . S
N2158 H2171 0.985 . S
N2159 C2161 1.356 . S
N2159 H2164 0.984 . S
N2159 H2165 0.985 . S
C2160 C2154 1.379 . S
C2160 C2157 1.363 . S
C2160 N2158 1.356 . S
C2161 C2155 1.363 . S
C2161 C2156 1.379 . S
C2161 N2159 1.356 . S
N2162 C2154 1.356 . S
N2162 H2168 0.984 . S
N2162 H2169 0.984 . S
N2163 C2156 1.356 . S
N2163 H2166 0.984 . S
N2163 H2167 0.985 . S
H2164 N2159 0.984 . S
H2165 N2159 0.985 . S
H2166 N2163 0.984 . S
H2167 N2163 0.985 . S
H2168 N2162 0.984 . S
H2169 N2162 0.984 . S
H2170 N2158 0.984 . S
H2171 N2158 0.985 . S
C2172 C2173 1.363 . S
C2172 C2178 1.379 . S
C2172 N2180 1.356 . S
C2173 C2172 1.363 . S
C2173 C2179 1.363 . S
C2174 C2175 1.363 . S
C2174 C2179 1.379 . S
C2174 N2181 1.356 . S
C2175 C2174 1.363 . S
C2175 C2178 1.363 . S
N2176 C2178 1.356 . S
N2176 H2188 0.984 . S
N2176 H2189 0.985 . S
N2177 C2179 1.356 . S
N2177 H2182 0.984 . S
N2177 H2183 0.985 . S
C2178 C2172 1.379 . S
C2178 C2175 1.363 . S
C2178 N2176 1.356 . S
C2179 C2173 1.363 . S
C2179 C2174 1.379 . S
C2179 N2177 1.356 . S
N2180 C2172 1.356 . S
N2180 H2186 0.984 . S
N2180 H2187 0.984 . S
N2181 C2174 1.356 . S
N2181 H2184 0.984 . S
N2181 H2185 0.985 . S
H2182 N2177 0.984 . S
H2183 N2177 0.985 . S
H2184 N2181 0.984 . S
H2185 N2181 0.985 . S
H2186 N2180 0.984 . S
H2187 N2180 0.984 . S
H2188 N2176 0.984 . S
H2189 N2176 0.985 . S
C2190 C2191 1.363 . S
C2190 C2196 1.379 1_545 S
C2190 N2198 1.356 . S
C2191 C2190 1.363 . S
C2191 C2197 1.370 . S
C2192 C2193 1.363 1_545 S
C2192 C2197 1.382 . S
C2192 N2199 1.356 1_554 S
C2193 C2192 1.363 1_565 S
C2193 C2196 1.363 . S
N2194 C2196 1.356 . S
N2194 H2206 0.984 . S
N2194 H2207 0.985 . S
N2195 C2197 1.347 1_556 S
N2195 H2200 0.984 . S
N2195 H2201 0.985 . S
C2196 C2190 1.379 1_565 S
C2196 C2193 1.363 . S
C2196 N2194 1.356 . S
C2197 C2191 1.370 . S
C2197 C2192 1.382 . S
C2197 N2195 1.347 1_554 S
N2198 C2190 1.356 . S
N2198 H2204 0.984 1_545 S
N2198 H2205 0.984 . S
N2199 C2192 1.356 1_556 S
N2199 H2202 0.984 1_556 S
N2199 H2203 0.985 . S
H2200 N2195 0.984 . S
H2201 N2195 0.985 . S
H2202 N2199 0.984 1_554 S
H2203 N2199 0.985 . S
H2204 N2198 0.984 1_565 S
H2205 N2198 0.984 . S
H2206 N2194 0.984 . S
H2207 N2194 0.985 . S
C2208 C2209 1.363 1_455 S
C2208 C2214 1.379 1_565 S
C2208 N2216 1.356 . S
C2209 C2208 1.363 1_655 S
C2209 C2215 1.363 1_565 S
C2210 C2211 1.362 1_655 S
C2210 C2215 1.379 . S
C2210 N2217 1.356 . S
C2211 C2210 1.362 1_455 S
C2211 C2214 1.363 . S
N2212 C2214 1.356 1_556 S
N2212 H2224 0.984 1_545 S
N2212 H2225 0.985 . S
N2213 C2215 1.356 . S
N2213 H2218 0.984 . S
N2213 H2219 0.985 . S
C2214 C2208 1.379 1_545 S
C2214 C2211 1.363 . S
C2214 N2212 1.356 1_554 S
C2215 C2209 1.363 1_545 S
C2215 C2210 1.379 . S
C2215 N2213 1.356 . S
N2216 C2208 1.356 . S
N2216 H2222 0.984 . S
N2216 H2223 0.984 1_455 S
N2217 C2210 1.356 . S
N2217 H2220 0.984 1_654 S
N2217 H2221 0.985 . S
H2218 N2213 0.984 . S
H2219 N2213 0.985 . S
H2220 N2217 0.984 1_456 S
H2221 N2217 0.985 . S
H2222 N2216 0.984 . S
H2223 N2216 0.984 1_655 S
H2224 N2212 0.984 1_565 S
H2225 N2212 0.985 . S
C2226 C2227 1.361 . S
C2226 C2232 1.379 . S
C2226 N2234 1.356 . S
C2227 C2226 1.361 . S
C2227 C2233 1.364 1_554 S
C2228 C2229 1.363 . S
C2228 C2233 1.379 1_554 S
C2228 N2235 1.356 1_554 S
C2229 C2228 1.363 . S
C2229 C2232 1.363 . S
N2230 C2232 1.356 . S
N2230 H2242 0.984 . S
N2230 H2243 0.985 . S
N2231 C2233 1.356 . S
N2231 H2236 0.984 . S
N2231 H2237 0.985 . S
C2232 C2226 1.379 . S
C2232 C2229 1.363 . S
C2232 N2230 1.356 . S
C2233 C2227 1.364 1_556 S
C2233 C2228 1.379 1_556 S
C2233 N2231 1.356 . S
N2234 C2226 1.356 . S
N2234 H2240 0.984 . S
N2234 H2241 0.984 . S
N2235 C2228 1.356 1_556 S
N2235 H2238 0.984 1_556 S
N2235 H2239 0.985 . S
H2236 N2231 0.984 . S
H2237 N2231 0.985 . S
H2238 N2235 0.984 1_554 S
H2239 N2235 0.985 . S
H2240 N2234 0.984 . S
H2241 N2234 0.984 . S
H2242 N2230 0.984 . S
H2243 N2230 0.985 . S
C2244 C2245 1.363 1_455 S
C2244 C2250 1.379 . S
C2244 N2252 1.356 . S
C2245 C2244 1.363 1_655 S
C2245 C2251 1.363 . S
C2246 C2247 1.363 1_655 S
C2246 C2251 1.379 . S
C2246 N2253 1.356 . S
C2247 C2246 1.363 1_455 S
C2247 C2250 1.363 . S
N2248 C2250 1.356 . S
N2248 H2260 0.984 . S
N2248 H2261 0.985 . S
N2249 C2251 1.356 . S
N2249 H2254 0.984 . S
N2249 H2255 0.985 . S
C2250 C2244 1.379 . S
C2250 C2247 1.363 . S
C2250 N2248 1.356 . S
C2251 C2245 1.363 . S
C2251 C2246 1.379 . S
C2251 N2249 1.356 . S
N2252 C2244 1.356 . S
N2252 H2258 0.984 . S
N2252 H2259 0.984 1_455 S
N2253 C2246 1.356 . S
N2253 H2256 0.984 1_655 S
N2253 H2257 0.985 . S
H2254 N2249 0.984 . S
H2255 N2249 0.985 . S
H2256 N2253 0.984 1_455 S
H2257 N2253 0.985 . S
H2258 N2252 0.984 . S
H2259 N2252 0.984 1_655 S
H2260 N2248 0.984 . S
H2261 N2248 0.985 . S
C2262 C2263 1.363 . S
C2262 C2268 1.379 1_545 S
C2262 N2270 1.356 . S
C2263 C2262 1.363 . S
C2263 C2269 1.363 . S
C2264 C2265 1.363 1_545 S
C2264 C2269 1.379 . S
C2264 N2271 1.354 1_545 S
C2265 C2264 1.363 1_565 S
C2265 C2268 1.363 . S
N2266 C2268 1.356 . S
N2266 H2278 0.984 . S
N2266 H2279 0.985 . S
N2267 C2269 1.356 . S
N2267 H2272 0.984 . S
N2267 H2273 0.985 . S
C2268 C2262 1.379 1_565 S
C2268 C2265 1.363 . S
C2268 N2266 1.356 . S
C2269 C2263 1.363 . S
C2269 C2264 1.379 . S
C2269 N2267 1.356 . S
N2270 C2262 1.356 . S
N2270 H2276 0.984 . S
N2270 H2277 0.984 . S
N2271 C2264 1.354 1_565 S
N2271 H2274 0.990 . S
N2271 H2275 0.981 1_565 S
H2272 N2267 0.984 . S
H2273 N2267 0.985 . S
H2274 N2271 0.990 . S
H2275 N2271 0.981 1_545 S
H2276 N2270 0.984 . S
H2277 N2270 0.984 . S
H2278 N2266 0.984 . S
H2279 N2266 0.985 . S
C2280 C2281 1.364 1_556 S
C2280 C2286 1.379 1_556 S
C2280 N2288 1.356 . S
C2281 C2280 1.364 1_554 S
C2281 C2287 1.361 . S
C2282 C2283 1.363 . S
C2282 C2287 1.379 . S
C2282 N2289 1.356 . S
C2283 C2282 1.363 . S
C2283 C2286 1.363 . S
N2284 C2286 1.362 . S
N2284 H2296 0.950 1_554 S
N2284 H2297 1.014 . S
N2285 C2287 1.356 . S
N2285 H2290 0.984 . S
N2285 H2291 0.985 . S
C2286 C2280 1.379 1_554 S
C2286 C2283 1.363 . S
C2286 N2284 1.362 . S
C2287 C2281 1.361 . S
C2287 C2282 1.379 . S
C2287 N2285 1.356 . S
N2288 C2280 1.356 . S
N2288 H2294 0.984 . S
N2288 H2295 0.984 . S
N2289 C2282 1.356 . S
N2289 H2292 0.984 . S
N2289 H2293 0.985 . S
H2290 N2285 0.984 . S
H2291 N2285 0.985 . S
H2292 N2289 0.984 . S
H2293 N2289 0.985 . S
H2294 N2288 0.984 . S
H2295 N2288 0.984 . S
H2296 N2284 0.950 1_556 S
H2297 N2284 1.014 . S
C2298 C2299 1.363 . S
C2298 C2304 1.378 . S
C2298 N2306 1.356 . S
C2299 C2298 1.363 . S
C2299 C2305 1.364 1_655 S
C2300 C2301 1.363 . S
C2300 C2305 1.378 . S
C2300 N2307 1.356 . S
C2301 C2300 1.363 . S
C2301 C2304 1.364 1_455 S
N2302 C2304 1.357 1_455 S
N2302 H2314 0.984 1_455 S
N2302 H2315 0.985 . S
N2303 C2305 1.357 1_655 S
N2303 H2308 0.984 . S
N2303 H2309 0.985 1_655 S
C2304 C2298 1.378 . S
C2304 C2301 1.364 1_655 S
C2304 N2302 1.357 1_655 S
C2305 C2299 1.364 1_455 S
C2305 C2300 1.378 . S
C2305 N2303 1.357 1_455 S
N2306 C2298 1.356 . S
N2306 H2312 0.984 . S
N2306 H2313 0.984 . S
N2307 C2300 1.356 . S
N2307 H2310 0.984 . S
N2307 H2311 0.985 . S
H2308 N2303 0.984 . S
H2309 N2303 0.985 1_455 S
H2310 N2307 0.984 . S
H2311 N2307 0.985 . S
H2312 N2306 0.984 . S
H2313 N2306 0.984 . S
H2314 N2302 0.984 1_655 S
H2315 N2302 0.985 . S
C2316 C2317 1.363 1_545 S
C2316 C2322 1.379 . S
C2316 N2324 1.356 . S
C2317 C2316 1.363 1_565 S
C2317 C2323 1.363 . S
C2318 C2319 1.363 . S
C2318 C2323 1.379 1_545 S
C2318 N2325 1.356 . S
C2319 C2318 1.363 . S
C2319 C2322 1.363 . S
N2320 C2322 1.356 . S
N2320 H2332 0.984 . S
N2320 H2333 0.985 . S
N2321 C2323 1.356 . S
N2321 H2326 0.984 . S
N2321 H2327 0.985 . S
C2322 C2316 1.379 . S
C2322 C2319 1.363 . S
C2322 N2320 1.356 . S
C2323 C2317 1.363 . S
C2323 C2318 1.379 1_565 S
C2323 N2321 1.356 . S
N2324 C2316 1.356 . S
N2324 H2330 0.984 . S
N2324 H2331 0.984 . S
N2325 C2318 1.356 . S
N2325 H2328 0.984 . S
N2325 H2329 0.985 1_545 S
H2326 N2321 0.984 . S
H2327 N2321 0.985 . S
H2328 N2325 0.984 . S
H2329 N2325 0.985 1_565 S
H2330 N2324 0.984 . S
H2331 N2324 0.984 . S
H2332 N2320 0.984 . S
H2333 N2320 0.985 . S
C2334 C2335 1.378 . S
C2334 C2340 1.363 1_455 S
C2334 N2342 1.362 . S
C2335 C2334 1.378 . S
C2335 C2341 1.363 . S
C2336 C2337 1.378 . S
C2336 C2341 1.364 1_655 S
C2336 N2343 1.362 . S
C2337 C2336 1.378 . S
C2337 C2340 1.363 . S
N2338 C2340 1.356 . S
N2338 H2350 0.984 . S
N2338 H2351 0.985 . S
N2339 C2341 1.356 . S
N2339 H2344 0.984 . S
N2339 H2345 0.985 . S
C2340 C2334 1.363 1_655 S
C2340 C2337 1.363 . S
C2340 N2338 1.356 . S
C2341 C2335 1.363 . S
C2341 C2336 1.364 1_455 S
C2341 N2339 1.356 . S
N2342 C2334 1.362 . S
N2342 H2348 0.984 1_455 S
N2342 H2349 0.984 . S
N2343 C2336 1.362 . S
N2343 H2346 0.984 . S
N2343 H2347 0.985 1_655 S
H2344 N2339 0.984 . S
H2345 N2339 0.985 . S
H2346 N2343 0.984 . S
H2347 N2343 0.985 1_455 S
H2348 N2342 0.984 1_655 S
H2349 N2342 0.984 . S
H2350 N2338 0.984 . S
H2351 N2338 0.985 . S
C2352 C2353 1.363 . S
C2352 C2358 1.379 . S
C2352 N2360 1.356 . S
C2353 C2352 1.363 . S
C2353 C2359 1.363 . S
C2354 C2355 1.363 . S
C2354 C2359 1.379 . S
C2354 N2361 1.356 . S
C2355 C2354 1.363 . S
C2355 C2358 1.363 . S
N2356 C2358 1.356 . S
N2356 H2368 0.984 . S
N2356 H2369 0.985 . S
N2357 C2359 1.356 . S
N2357 H2362 0.984 . S
N2357 H2363 0.985 . S
C2358 C2352 1.379 . S
C2358 C2355 1.363 . S
C2358 N2356 1.356 . S
C2359 C2353 1.363 . S
C2359 C2354 1.379 . S
C2359 N2357 1.356 . S
N2360 C2352 1.356 . S
N2360 H2366 0.984 . S
N2360 H2367 0.984 . S
N2361 C2354 1.356 . S
N2361 H2364 0.984 . S
N2361 H2365 0.985 . S
H2362 N2357 0.984 . S
H2363 N2357 0.985 . S
H2364 N2361 0.984 . S
H2365 N2361 0.985 . S
H2366 N2360 0.984 . S
H2367 N2360 0.984 . S
H2368 N2356 0.984 . S
H2369 N2356 0.985 . S
C2370 C2371 1.363 . S
C2370 C2376 1.379 . S
C2370 N2378 1.356 . S
C2371 C2370 1.363 . S
C2371 C2377 1.363 . S
C2372 C2373 1.363 . S
C2372 C2377 1.379 . S
C2372 N2379 1.356 . S
C2373 C2372 1.363 . S
C2373 C2376 1.363 . S
N2374 C2376 1.356 . S
N2374 H2386 0.984 . S
N2374 H2387 0.985 . S
N2375 C2377 1.356 . S
N2375 H2380 0.984 . S
N2375 H2381 0.985 . S
C2376 C2370 1.379 . S
C2376 C2373 1.363 . S
C2376 N2374 1.356 . S
C2377 C2371 1.363 . S
C2377 C2372 1.379 . S
C2377 N2375 1.356 . S
N2378 C2370 1.356 . S
N2378 H2384 0.984 . S
N2378 H2385 0.984 . S
N2379 C2372 1.356 . S
N2379 H2382 0.984 . S
N2379 H2383 0.985 . S
H2380 N2375 0.984 . S
H2381 N2375 0.985 . S
H2382 N2379 0.984 . S
H2383 N2379 0.985 . S
H2384 N2378 0.984 . S
H2385 N2378 0.984 . S
H2386 N2374 0.984 . S
H2387 N2374 0.985 . S
C2388 C2389 1.363 . S
C2388 C2394 1.379 . S
C2388 N2396 1.356 . S
C2389 C2388 1.363 . S
C2389 C2395 1.363 . S
C2390 C2391 1.363 . S
C2390 C2395 1.379 . S
C2390 N2397 1.356 . S
C2391 C2390 1.363 . S
C2391 C2394 1.363 . S
N2392 C2394 1.356 . S
N2392 H2404 0.984 . S
N2392 H2405 0.985 . S
N2393 C2395 1.356 . S
N2393 H2398 0.984 . S
N2393 H2399 0.985 . S
C2394 C2388 1.379 . S
C2394 C2391 1.363 . S
C2394 N2392 1.356 . S
C2395 C2389 1.363 . S
C2395 C2390 1.379 . S
C2395 N2393 1.356 . S
N2396 C2388 1.356 . S
N2396 H2402 0.984 . S
N2396 H2403 0.984 . S
N2397 C2390 1.356 . S
N2397 H2400 0.984 . S
N2397 H2401 0.985 . S
H2398 N2393 0.984 . S
H2399 N2393 0.985 . S
H2400 N2397 0.984 . S
H2401 N2397 0.985 . S
H2402 N2396 0.984 . S
H2403 N2396 0.984 . S
H2404 N2392 0.984 . S
H2405 N2392 0.985 . S
C2406 C2407 1.363 . S
C2406 C2412 1.379 . S
C2406 N2414 1.356 . S
C2407 C2406 1.363 . S
C2407 C2413 1.363 . S
C2408 C2409 1.363 . S
C2408 C2413 1.379 . S
C2408 N2415 1.356 . S
C2409 C2408 1.363 . S
C2409 C2412 1.363 . S
N2410 C2412 1.356 . S
N2410 H2422 0.984 . S
N2410 H2423 0.985 . S
N2411 C2413 1.356 . S
N2411 H2416 0.984 . S
N2411 H2417 0.985 . S
C2412 C2406 1.379 . S
C2412 C2409 1.363 . S
C2412 N2410 1.356 . S
C2413 C2407 1.363 . S
C2413 C2408 1.379 . S
C2413 N2411 1.356 . S
N2414 C2406 1.356 . S
N2414 H2420 0.984 . S
N2414 H2421 0.984 . S
N2415 C2408 1.356 . S
N2415 H2418 0.984 . S
N2415 H2419 0.985 . S
H2416 N2411 0.984 . S
H2417 N2411 0.985 . S
H2418 N2415 0.984 . S
H2419 N2415 0.985 . S
H2420 N2414 0.984 . S
H2421 N2414 0.984 . S
H2422 N2410 0.984 . S
H2423 N2410 0.985 . S
C2424 C2425 1.363 . S
C2424 C2430 1.379 1_545 S
C2424 N2432 1.356 . S
C2425 C2424 1.363 . S
C2425 C2431 1.363 . S
C2426 C2427 1.363 1_545 S
C2426 C2431 1.379 . S
C2426 N2433 1.356 . S
C2427 C2426 1.363 1_565 S
C2427 C2430 1.363 . S
N2428 C2430 1.356 . S
N2428 H2440 0.984 . S
N2428 H2441 0.985 . S
N2429 C2431 1.356 . S
N2429 H2434 0.984 . S
N2429 H2435 0.985 . S
C2430 C2424 1.379 1_565 S
C2430 C2427 1.363 . S
C2430 N2428 1.356 . S
C2431 C2425 1.363 . S
C2431 C2426 1.379 . S
C2431 N2429 1.356 . S
N2432 C2424 1.356 . S
N2432 H2438 0.984 1_545 S
N2432 H2439 0.984 . S
N2433 C2426 1.356 . S
N2433 H2436 0.984 . S
N2433 H2437 0.985 . S
H2434 N2429 0.984 . S
H2435 N2429 0.985 . S
H2436 N2433 0.984 . S
H2437 N2433 0.985 . S
H2438 N2432 0.984 1_565 S
H2439 N2432 0.984 . S
H2440 N2428 0.984 . S
H2441 N2428 0.985 . S
C2442 C2443 1.363 . S
C2442 C2448 1.379 . S
C2442 N2450 1.356 . S
C2443 C2442 1.363 . S
C2443 C2449 1.363 . S
C2444 C2445 1.363 . S
C2444 C2449 1.379 . S
C2444 N2451 1.356 . S
C2445 C2444 1.363 . S
C2445 C2448 1.363 . S
N2446 C2448 1.356 . S
N2446 H2458 0.984 . S
N2446 H2459 0.985 . S
N2447 C2449 1.356 . S
N2447 H2452 0.984 . S
N2447 H2453 0.985 . S
C2448 C2442 1.379 . S
C2448 C2445 1.363 . S
C2448 N2446 1.356 . S
C2449 C2443 1.363 . S
C2449 C2444 1.379 . S
C2449 N2447 1.356 . S
N2450 C2442 1.356 . S
N2450 H2456 0.984 . S
N2450 H2457 0.984 . S
N2451 C2444 1.356 . S
N2451 H2454 0.984 . S
N2451 H2455 0.985 . S
H2452 N2447 0.984 . S
H2453 N2447 0.985 . S
H2454 N2451 0.984 . S
H2455 N2451 0.985 . S
H2456 N2450 0.984 . S
H2457 N2450 0.984 . S
H2458 N2446 0.984 . S
H2459 N2446 0.985 . S
C2460 C2461 1.363 . S
C2460 C2466 1.379 . S
C2460 N2468 1.356 . S
C2461 C2460 1.363 . S
C2461 C2467 1.363 . S
C2462 C2463 1.363 . S
C2462 C2467 1.379 . S
C2462 N2469 1.356 . S
C2463 C2462 1.363 . S
C2463 C2466 1.363 . S
N2464 C2466 1.356 . S
N2464 H2476 0.984 . S
N2464 H2477 0.985 . S
N2465 C2467 1.356 . S
N2465 H2470 0.984 . S
N2465 H2471 0.985 . S
C2466 C2460 1.379 . S
C2466 C2463 1.363 . S
C2466 N2464 1.356 . S
C2467 C2461 1.363 . S
C2467 C2462 1.379 . S
C2467 N2465 1.356 . S
N2468 C2460 1.356 . S
N2468 H2474 0.984 . S
N2468 H2475 0.984 . S
N2469 C2462 1.356 . S
N2469 H2472 0.984 . S
N2469 H2473 0.985 . S
H2470 N2465 0.984 . S
H2471 N2465 0.985 . S
H2472 N2469 0.984 . S
H2473 N2469 0.985 . S
H2474 N2468 0.984 . S
H2475 N2468 0.984 . S
H2476 N2464 0.984 . S
H2477 N2464 0.985 . S
C2478 C2479 1.364 1_556 S
C2478 C2484 1.379 1_556 S
C2478 N2486 1.356 . S
C2479 C2478 1.364 1_554 S
C2479 C2485 1.361 . S
C2480 C2481 1.363 . S
C2480 C2485 1.379 . S
C2480 N2487 1.356 . S
C2481 C2480 1.363 . S
C2481 C2484 1.363 . S
N2482 C2484 1.356 1_556 S
N2482 H2494 0.984 . S
N2482 H2495 0.985 1_556 S
N2483 C2485 1.356 . S
N2483 H2488 0.984 . S
N2483 H2489 0.985 . S
C2484 C2478 1.379 1_554 S
C2484 C2481 1.363 . S
C2484 N2482 1.356 1_554 S
C2485 C2479 1.361 . S
C2485 C2480 1.379 . S
C2485 N2483 1.356 . S
N2486 C2478 1.356 . S
N2486 H2492 0.984 . S
N2486 H2493 0.984 . S
N2487 C2480 1.356 . S
N2487 H2490 0.984 . S
N2487 H2491 0.985 . S
H2488 N2483 0.984 . S
H2489 N2483 0.985 . S
H2490 N2487 0.984 . S
H2491 N2487 0.985 . S
H2492 N2486 0.984 . S
H2493 N2486 0.984 . S
H2494 N2482 0.984 . S
H2495 N2482 0.985 1_554 S
C1057 N68 1.627 . S
C1059 N2 1.627 . S
C1075 N35 1.627 . S
C1077 N101 1.627 . S
C1093 N200 1.627 1_565 S
C1095 N134 1.627 . S
C1111 N233 1.627 . S
C1113 N167 1.627 1_565 S
C1129 N266 1.627 . S
C1131 N332 1.627 . S
C1147 N299 1.627 . S
C1149 N365 1.627 . S
C1165 N464 1.627 . S
C1167 N398 1.627 . S
C1183 N497 1.627 . S
C1185 N431 1.627 . S
C1201 N596 1.627 . S
C1203 N530 1.627 . S
C1219 N629 1.627 . S
C1221 N563 1.627 . S
C1237 N662 1.627 . S
C1239 N728 1.627 1_565 S
C1255 N761 1.627 . S
C1257 N695 1.627 1_565 S
C1273 N794 1.627 . S
C1275 N860 1.627 . S
C1291 N827 1.627 . S
C1293 N893 1.627 . S
C1309 N992 1.627 . S
C1311 N926 1.627 . S
C1327 N959 1.627 . S
C1329 N1025 1.627 . S
C1345 N13 1.553 . S
C1347 N343 1.553 . S
C1363 N376 1.553 . S
C1365 N46 1.553 . S
C1381 N79 1.553 . S
C1383 N277 1.553 . S
C1399 N112 1.553 . S
C1401 N310 1.553 . S
C1417 N145 1.553 . S
C1419 N475 1.553 . S
C1435 N508 1.553 . S
C1437 N178 1.553 . S
C1453 N409 1.553 . S
C1455 N211 1.553 . S
C1471 N244 1.553 . S
C1473 N442 1.553 . S
C1489 N871 1.553 . S
C1491 N541 1.553 . S
C1507 N574 1.553 . S
C1509 N904 1.553 . S
C1525 N607 1.553 . S
C1527 N805 1.553 . S
C1543 N838 1.553 . S
C1545 N640 1.553 . S
C1561 N673 1.553 . S
C1563 N1003 1.553 . S
C1579 N706 1.553 . S
C1581 N1036 1.553 . S
C1597 N739 1.553 . S
C1599 N937 1.553 . S
C1615 N772 1.553 . S
C1617 N970 1.553 . S
C1633 C7 1.570 . S
C1635 C40 1.570 . S
C1651 C73 1.569 . S
C1653 C106 1.569 . S
C1669 C172 1.569 . S
C1671 C139 1.569 . S
C1687 C205 1.570 . S
C1689 C238 1.570 . S
C1705 C271 1.570 . S
C1707 C304 1.570 . S
C1723 C370 1.569 . S
C1725 C337 1.569 . S
C1741 C436 1.569 . S
C1743 C403 1.569 . S
C1759 C469 1.570 . S
C1761 C502 1.570 . S
C1777 C535 1.569 . S
C1779 C568 1.569 . S
C1795 C634 1.570 . S
C1797 C601 1.570 . S
C1813 C667 1.570 . S
C1815 C700 1.570 . S
C1831 C766 1.570 . S
C1833 C733 1.570 . S
C1849 C799 1.569 . S
C1851 C832 1.569 . S
C1867 C898 1.570 . S
C1869 C865 1.570 . S
C1885 C964 1.570 . S
C1887 C931 1.570 . S
C1903 C997 1.570 . S
C1905 C1030 1.570 . S
C1921 C18 1.893 . S
C1923 C150 1.893 . S
C1939 C975 1.893 . S
C1941 C51 1.893 . S
C1957 C84 1.892 . S
C1959 C480 1.892 . S
C1975 C117 1.892 . S
C1977 C777 1.892 . S
C1993 C183 1.892 . S
C1995 C843 1.892 . S
C2011 C216 1.892 . S
C2013 C348 1.892 . S
C2029 C645 1.893 . S
C2031 C249 1.893 . S
C2047 C414 1.893 . S
C2049 C282 1.893 . S
C2065 C711 1.893 . S
C2067 C315 1.893 . S
C2083 C1041 1.892 . S
C2085 C381 1.892 . S
C2101 C579 1.892 . S
C2103 C447 1.892 . S
C2119 C513 1.893 . S
C2121 C909 1.893 . S
C2137 C546 1.892 . S
C2139 C678 1.892 . S
C2155 C612 1.893 . S
C2157 C1008 1.893 . S
C2173 C876 1.893 . S
C2175 C744 1.893 . S
C2191 C942 1.893 . S
C2193 C810 1.893 . S
C2209 C153 0.614 . S
C2211 C21 0.613 . S
C2227 C54 0.613 . S
C2229 C978 0.614 . S
C2245 C483 0.614 . S
C2247 C87 0.614 . S
C2263 C120 0.614 . S
C2265 C780 0.614 . S
C2281 C846 0.613 . S
C2283 C186 0.614 . S
C2299 C219 0.614 . S
C2301 C351 0.614 . S
C2317 C252 0.614 . S
C2319 C648 0.614 . S
C2335 C285 0.614 . S
C2337 C417 0.614 . S
C2353 C318 0.614 . S
C2355 C714 0.614 . S
C2371 C1044 0.614 . S
C2373 C384 0.614 . S
C2389 C582 0.614 . S
C2391 C450 0.614 . S
C2407 C516 0.614 . S
C2409 C912 0.614 . S
C2425 C549 0.614 . S
C2427 C681 0.614 . S
C2443 C615 0.614 . S
C2445 C1011 0.614 . S
C2461 C747 0.614 . S
C2463 C879 0.614 . S
C2479 C813 0.613 . S
C2481 C945 0.614 . S
