# Generated by pormake.
# Topology lon, (4)-cn, num edge types: 1
# Building blocks:
#     Node 0, Type 0, BuildingBlock: ICAMEG_clean_sbu_1, # of connection points: 4
#     Node 1, Type 0, BuildingBlock: ICAMEG_clean_sbu_1, # of connection points: 4
#     Node 2, Type 0, BuildingBlock: ICAMEG_clean_sbu_1, # of connection points: 4
#     Node 3, Type 0, BuildingBlock: ICAMEG_clean_sbu_1, # of connection points: 4
#     Edge 4, Type (0, 0), BuildingBlock: ZUJKAS_clean_linker_0, # of connection points: 2
#     Edge 5, Type (0, 0), BuildingBlock: ZUJKAS_clean_linker_0, # of connection points: 2
#     Edge 6, Type (0, 0), BuildingBlock: ZUJKAS_clean_linker_0, # of connection points: 2
#     Edge 7, Type (0, 0), BuildingBlock: ZUJKAS_clean_linker_0, # of connection points: 2
#     Edge 8, Type (0, 0), BuildingBlock: ZUJKAS_clean_linker_0, # of connection points: 2
#     Edge 9, Type (0, 0), BuildingBlock: ZUJKAS_clean_linker_0, # of connection points: 2
#     Edge 10, Type (0, 0), BuildingBlock: ZUJKAS_clean_linker_0, # of connection points: 2
#     Edge 11, Type (0, 0), BuildingBlock: ZUJKAS_clean_linker_0, # of connection points: 2
# Relax obj value: 0.243
# Max RMSD: 0.270
# Mean RMSD: 0.258
data_MOF--net-lon--node1-ICAMEG_clean_sbu_1--edge1-ZUJKAS_clean_linker_0
_symmetry_space_group_name_H-M    P1
_symmetry_Int_Tables_number       1
_symmetry_cell_setting            triclinic
loop_
_symmetry_equiv_pos_as_xyz
'x, y, z'
_cell_length_a     28.706804
_cell_length_b     33.629783
_cell_length_c     56.692223
_cell_angle_alpha  92.40952
_cell_angle_beta   90.004697
_cell_angle_gamma 115.31243
loop_
_atom_site_label
_atom_site_type_symbol
_atom_site_fract_x
_atom_site_fract_y
_atom_site_fract_z
_atom_type_partial_charge
Co0 Co 0.36161 0.70797 0.04889 0.0
Co1 Co 0.36544 0.64514 0.09401 0.0
O2 O 0.38014 0.70268 0.08149 0.0
C3 C 0.45896 0.77802 0.03234 0.0
O4 O 0.45947 0.74917 0.01611 0.0
C5 C 0.32846 0.68822 0.13236 0.0
O6 O 0.30531 0.70116 0.11646 0.0
O7 O 0.29111 0.62395 0.08536 0.0
O8 O 0.29827 0.65052 0.04927 0.0
H9 H 0.28421 0.47976 0.09223 0.0
H10 H 0.38137 0.7816 0.08391 0.0
O11 O 0.42403 0.76631 0.04791 0.0
H12 H 0.20303 0.73612 0.05507 0.0
H13 H 0.33778 0.78864 0.9803 0.0
H14 H 0.32684 0.64705 1.00662 0.0
H15 H 0.25493 0.6989 0.03943 0.0
H16 H 0.3593 0.78128 0.02152 0.0
O17 O 0.35332 0.6661 0.12607 0.0
H18 H 0.30503 0.55265 0.0766 0.0
H19 H 0.39247 0.61545 0.13881 0.0
H20 H 0.30479 0.65292 0.96526 0.0
H21 H 0.33103 0.82014 0.09979 0.0
H22 H 0.31022 0.72413 0.95186 0.0
H23 H 0.24111 0.79733 0.08541 0.0
O24 O 0.4027 0.67626 0.03729 0.0
H25 H 0.53578 0.75479 0.12816 0.0
H26 H 0.44358 0.60897 0.08752 0.0
H27 H 0.53611 0.63616 0.09724 0.0
H28 H 0.58282 0.70951 0.11779 0.0
H29 H 0.44329 0.72649 0.11787 0.0
H30 H 0.37221 0.54324 0.15521 0.0
H31 H 0.31788 0.47473 0.13181 0.0
O32 O 0.3785 0.62212 0.06267 0.0
C33 C 0.27203 0.62492 0.06518 0.0
C34 C 0.30801 0.50937 0.10257 0.0
C35 C 0.35734 0.545 0.13793 0.0
N36 N 0.35014 0.58828 0.10672 0.0
C37 C 0.32002 0.55074 0.09379 0.0
C38 C 0.36855 0.5858 0.12858 0.0
C39 C 0.32688 0.50657 0.12479 0.0
C40 C 0.34246 0.7718 0.07738 0.0
N41 N 0.32126 0.73817 0.06068 0.0
C42 C 0.31406 0.79361 0.08652 0.0
C43 C 0.26358 0.78075 0.07847 0.0
C44 C 0.24218 0.74639 0.06146 0.0
C45 C 0.27172 0.72532 0.05274 0.0
C46 C 0.33521 0.75743 0.98593 0.0
C47 C 0.32918 0.67812 1.00094 0.0
C48 C 0.34736 0.75306 1.00924 0.0
N49 N 0.34418 0.71371 0.01649 0.0
C50 C 0.31669 0.68126 0.97749 0.0
C51 C 0.31976 0.72122 0.96998 0.0
C52 C 0.39987 0.63937 0.04361 0.0
C53 C 0.51584 0.72274 0.11924 0.0
C54 C 0.46367 0.64103 0.09633 0.0
C55 C 0.51605 0.6562 0.10186 0.0
C56 C 0.54222 0.69734 0.1134 0.0
N57 N 0.43801 0.66609 0.10217 0.0
C58 C 0.46345 0.70651 0.11342 0.0
Co59 Co 0.60926 0.30638 0.54046 0.0
Co60 Co 0.6818 0.30581 0.58801 0.0
O61 O 0.62646 0.31699 0.57416 0.0
C62 C 0.61679 0.39722 0.54835 0.0
O63 O 0.66311 0.40988 0.55767 0.0
C64 C 0.63052 0.25472 0.62954 0.0
O65 O 0.64133 0.22289 0.62084 0.0
O66 O 0.64805 0.24351 0.575 0.0
O67 O 0.62612 0.25454 0.53875 0.0
H68 H 0.81382 0.24474 0.58832 0.0
H69 H 0.53353 0.31321 0.57397 0.0
O70 O 0.59083 0.35738 0.54109 0.0
H71 H 0.44504 0.16654 0.53374 0.0
H72 H 0.50403 0.29741 0.46765 0.0
H73 H 0.6576 0.28495 0.49855 0.0
H74 H 0.53399 0.21627 0.52358 0.0
H75 H 0.52516 0.30842 0.51029 0.0
O76 O 0.64113 0.28904 0.61783 0.0
H77 H 0.74504 0.2606 0.57107 0.0
H78 H 0.73511 0.32588 0.63534 0.0
H79 H 0.63767 0.27333 0.45581 0.0
H80 H 0.44432 0.26466 0.58451 0.0
H81 H 0.56038 0.27954 0.4401 0.0
H82 H 0.39952 0.19072 0.56435 0.0
O83 O 0.68167 0.34546 0.5328 0.0
H84 H 0.68273 0.44225 0.62816 0.0
H85 H 0.78901 0.37777 0.58857 0.0
H86 H 0.82943 0.45552 0.60291 0.0
H87 H 0.77621 0.48824 0.62296 0.0
H88 H 0.64374 0.36475 0.61325 0.0
H89 H 0.80364 0.31058 0.65332 0.0
H90 H 0.84353 0.26977 0.62974 0.0
O91 O 0.72423 0.32392 0.55878 0.0
C92 C 0.6335 0.23037 0.55365 0.0
C93 C 0.79676 0.26257 0.59877 0.0
C94 C 0.79105 0.29951 0.63525 0.0
N95 N 0.73612 0.29418 0.60216 0.0
C96 C 0.75782 0.27167 0.58909 0.0
C97 C 0.75224 0.30805 0.62498 0.0
C98 C 0.81341 0.27662 0.62201 0.0
C99 C 0.51416 0.28118 0.56502 0.0
N100 N 0.53885 0.26769 0.54811 0.0
C101 C 0.46371 0.25379 0.57111 0.0
C102 C 0.43861 0.21229 0.5598 0.0
C103 C 0.46413 0.19869 0.54263 0.0
C104 C 0.51456 0.22697 0.537 0.0
C105 C 0.53775 0.29452 0.47429 0.0
C106 C 0.62373 0.28745 0.49187 0.0
C107 C 0.54998 0.30081 0.49841 0.0
N108 N 0.59235 0.29698 0.50693 0.0
C109 C 0.61271 0.28095 0.46764 0.0
C110 C 0.56938 0.28448 0.45884 0.0
C111 C 0.72271 0.3438 0.54026 0.0
C112 C 0.70636 0.42834 0.6195 0.0
C113 C 0.7655 0.39179 0.5971 0.0
C114 C 0.78866 0.43582 0.60529 0.0
C115 C 0.75879 0.45415 0.61655 0.0
N116 N 0.71406 0.36664 0.6001 0.0
C117 C 0.68453 0.38442 0.6111 0.0
Co118 Co 0.30994 0.70845 0.47241 0.0
Co119 Co 0.38114 0.71439 0.42361 0.0
O120 O 0.31453 0.70058 0.43823 0.0
C121 C 0.22487 0.61928 0.46177 0.0
O122 O 0.25607 0.60921 0.44847 0.0
C123 C 0.37723 0.76592 0.38293 0.0
O124 O 0.41939 0.79841 0.39164 0.0
O125 O 0.40753 0.77595 0.43744 0.0
O126 O 0.37881 0.76046 0.47416 0.0
H127 H 0.57459 0.78154 0.42167 0.0
H128 H 0.2254 0.70431 0.44101 0.0
O129 O 0.24049 0.65726 0.47204 0.0
H130 H 0.28612 0.84777 0.48498 0.0
H131 H 0.21922 0.71207 0.54796 0.0
H132 H 0.38254 0.72632 0.51293 0.0
H133 H 0.32579 0.79719 0.49226 0.0
H134 H 0.2262 0.7044 0.50482 0.0
O135 O 0.35487 0.73118 0.39448 0.0
H136 H 0.49001 0.76227 0.43979 0.0
H137 H 0.414 0.69745 0.37554 0.0
H138 H 0.37739 0.73463 0.55615 0.0
H139 H 0.18418 0.75372 0.43336 0.0
H140 H 0.29526 0.7275 0.57394 0.0
H141 H 0.21462 0.82606 0.45541 0.0
O142 O 0.34343 0.66856 0.47746 0.0
H143 H 0.24958 0.57752 0.38188 0.0
H144 H 0.42014 0.64483 0.4218 0.0
H145 H 0.38575 0.56785 0.40632 0.0
H146 H 0.29996 0.53372 0.38609 0.0
H147 H 0.28504 0.65422 0.39798 0.0
H148 H 0.49775 0.71617 0.35671 0.0
H149 H 0.57883 0.75848 0.37982 0.0
O150 O 0.40809 0.69636 0.45208 0.0
C151 C 0.40784 0.78691 0.45929 0.0
C152 C 0.53954 0.76309 0.41141 0.0
C153 C 0.49642 0.7264 0.37495 0.0
N154 N 0.4471 0.72876 0.40876 0.0
C155 C 0.49152 0.75207 0.42158 0.0
C156 C 0.44911 0.71592 0.38572 0.0
C157 C 0.54189 0.75014 0.38793 0.0
C158 C 0.23859 0.73561 0.45078 0.0
N159 N 0.27775 0.74773 0.46713 0.0
C160 C 0.21522 0.7635 0.44633 0.0
C161 C 0.23235 0.80411 0.45869 0.0
C162 C 0.27246 0.81631 0.47528 0.0
C163 C 0.29488 0.78757 0.47928 0.0
C164 C 0.25524 0.71531 0.54042 0.0
C165 C 0.34675 0.72339 0.52052 0.0
C166 C 0.25939 0.71088 0.516 0.0
N167 N 0.30484 0.71517 0.50634 0.0
C168 C 0.34403 0.72803 0.54502 0.0
C169 C 0.29792 0.72399 0.55499 0.0
C170 C 0.38688 0.67288 0.46959 0.0
C171 C 0.28708 0.59206 0.39059 0.0
C172 C 0.38261 0.63018 0.41319 0.0
C173 C 0.36343 0.5866 0.40436 0.0
C174 C 0.31533 0.56749 0.39299 0.0
N175 N 0.35471 0.65413 0.41074 0.0
C176 C 0.30748 0.63557 0.39964 0.0
Co177 Co 0.65898 0.30309 0.9629 0.0
Co178 Co 0.72891 0.36948 0.91954 0.0
O179 O 0.68605 0.31087 0.93089 0.0
C180 C 0.68707 0.23369 0.97959 0.0
O181 O 0.71415 0.26209 0.9965 0.0
C182 C 0.65188 0.32756 0.88006 0.0
O183 O 0.61483 0.31474 0.89551 0.0
O184 O 0.67419 0.38907 0.9275 0.0
O185 O 0.65098 0.35962 0.96278 0.0
H186 H 0.80971 0.53492 0.92371 0.0
H187 H 0.61065 0.23136 0.92628 0.0
O188 O 0.66492 0.24552 0.96359 0.0
H189 H 0.47116 0.2699 0.95319 0.0
H190 H 0.54928 0.21689 0.02891 0.0
H191 H 0.67936 0.36158 1.00589 0.0
H192 H 0.55852 0.30816 0.97079 0.0
H193 H 0.58221 0.22716 0.98838 0.0
O194 O 0.69856 0.34949 0.88692 0.0
H195 H 0.75769 0.46089 0.93805 0.0
H196 H 0.78892 0.40226 0.87588 0.0
H197 H 0.64732 0.35281 0.0466 0.0
H198 H 0.52361 0.19181 0.90841 0.0
H199 H 0.58182 0.28003 0.05834 0.0
H200 H 0.45318 0.21113 0.92181 0.0
O201 O 0.73063 0.3356 0.97596 0.0
H202 H 0.79625 0.26421 0.88563 0.0
H203 H 0.84269 0.40719 0.92839 0.0
H204 H 0.91027 0.38216 0.91971 0.0
H205 H 0.88725 0.31026 0.89809 0.0
H206 H 0.72971 0.29027 0.89494 0.0
H207 H 0.84095 0.47567 0.86078 0.0
H208 H 0.85177 0.54266 0.88481 0.0
O209 O 0.762 0.39137 0.95157 0.0
C210 C 0.6517 0.38625 0.94719 0.0
C211 C 0.80539 0.50599 0.91311 0.0
C212 C 0.82286 0.47273 0.87777 0.0
N213 N 0.77051 0.42729 0.90789 0.0
C214 C 0.77607 0.46397 0.92116 0.0
C215 C 0.79323 0.43124 0.88639 0.0
C216 C 0.82894 0.5103 0.89127 0.0
C217 C 0.58009 0.23966 0.93237 0.0
N218 N 0.58969 0.27197 0.94961 0.0
C219 C 0.53093 0.21727 0.92211 0.0
C220 C 0.49145 0.22818 0.92961 0.0
C221 C 0.50153 0.26118 0.9472 0.0
C222 C 0.55116 0.28288 0.95703 0.0
C223 C 0.57778 0.24878 0.02401 0.0
C224 C 0.65078 0.32984 1.01086 0.0
C225 C 0.5966 0.25479 1.00109 0.0
N226 N 0.63261 0.29499 0.99476 0.0
C227 C 0.63281 0.32506 0.03394 0.0
C228 C 0.59606 0.28422 0.04051 0.0
C229 C 0.76486 0.3731 0.97045 0.0
C230 C 0.80677 0.29564 0.89502 0.0
C231 C 0.83227 0.37575 0.9191 0.0
C232 C 0.87076 0.36181 0.91417 0.0
C233 C 0.85782 0.32148 0.90203 0.0
N234 N 0.78229 0.35026 0.91211 0.0
C235 C 0.76929 0.31062 0.90028 0.0
H236 H 0.35932 0.65557 0.16938 0.0
H237 H 0.36076 0.67524 0.21123 0.0
H238 H 0.29784 0.76714 0.1956 0.0
H239 H 0.29522 0.74678 0.15332 0.0
H240 H 0.41454 0.75432 0.23344 0.0
H241 H 0.20527 0.69966 0.24831 0.0
H242 H 0.22953 0.68397 0.22187 0.0
H243 H 0.23153 0.73803 0.22541 0.0
C244 C 0.34541 0.6798 0.17473 0.0
C245 C 0.32712 0.69958 0.1579 0.0
C246 C 0.3463 0.69104 0.19876 0.0
C247 C 0.32904 0.72242 0.20669 0.0
C248 C 0.31046 0.74221 0.19 0.0
H249 H 0.41614 0.83275 0.35212 0.0
H250 H 0.40151 0.82741 0.30932 0.0
C251 C 0.30921 0.7307 0.16582 0.0
C252 C 0.33277 0.7351 0.23236 0.0
H253 H 0.26156 0.73412 0.28089 0.0
C254 C 0.38112 0.75019 0.24378 0.0
C255 C 0.28908 0.72933 0.24591 0.0
C256 C 0.2358 0.71151 0.23487 0.0
C257 C 0.38691 0.75869 0.26833 0.0
C258 C 0.34332 0.75317 0.28191 0.0
C259 C 0.29504 0.73881 0.27047 0.0
C260 C 0.34665 0.75883 0.30816 0.0
C261 C 0.43935 0.77153 0.27959 0.0
C262 C 0.31842 0.7229 0.32196 0.0
C263 C 0.32611 0.72604 0.34646 0.0
C264 C 0.36237 0.76521 0.35773 0.0
C265 C 0.38828 0.80198 0.34403 0.0
C266 C 0.38023 0.79889 0.31951 0.0
H267 H 0.46542 0.764 0.26759 0.0
H268 H 0.4575 0.80749 0.28395 0.0
H269 H 0.43616 0.75419 0.29618 0.0
H270 H 0.29208 0.69171 0.31365 0.0
H271 H 0.30536 0.69703 0.35639 0.0
H272 H 0.60234 0.18739 0.65997 0.0
H273 H 0.59047 0.19136 0.70261 0.0
H274 H 0.61736 0.3273 0.69896 0.0
H275 H 0.62773 0.32325 0.65639 0.0
H276 H 0.6612 0.24058 0.73395 0.0
H277 H 0.49758 0.28514 0.74227 0.0
H278 H 0.51311 0.26556 0.7146 0.0
H279 H 0.54685 0.32265 0.7243 0.0
C280 C 0.60452 0.21783 0.66816 0.0
C281 C 0.6159 0.25494 0.65469 0.0
C282 C 0.59783 0.22009 0.69258 0.0
C283 C 0.60238 0.25948 0.70409 0.0
C284 C 0.61223 0.29617 0.69054 0.0
H285 H 0.71855 0.35698 0.84373 0.0
H286 H 0.70191 0.33693 0.8018 0.0
C287 C 0.61848 0.29384 0.66611 0.0
C288 C 0.60222 0.26363 0.73038 0.0
H289 H 0.55334 0.30119 0.77673 0.0
C290 C 0.637 0.25323 0.74327 0.0
C291 C 0.57024 0.27955 0.74275 0.0
C292 C 0.52947 0.28839 0.73026 0.0
C293 C 0.64231 0.26008 0.76793 0.0
C294 C 0.61298 0.27892 0.78008 0.0
C295 C 0.57643 0.2874 0.7674 0.0
C296 C 0.62176 0.29198 0.8057 0.0
C297 C 0.67956 0.24718 0.78069 0.0
C298 C 0.58169 0.27476 0.8219 0.0
C299 C 0.59098 0.28657 0.84608 0.0
C300 C 0.6405 0.31595 0.85445 0.0
C301 C 0.68007 0.33389 0.83804 0.0
C302 C 0.67071 0.32226 0.81399 0.0
H303 H 0.68593 0.22102 0.77051 0.0
H304 H 0.71733 0.27628 0.78288 0.0
H305 H 0.66551 0.23525 0.79845 0.0
H306 H 0.54347 0.25162 0.81588 0.0
H307 H 0.55962 0.27224 0.85822 0.0
H308 H 0.45491 0.66505 1.00271 0.0
H309 H 0.49553 0.62547 0.97961 0.0
H310 H 0.43793 0.51995 0.02779 0.0
H311 H 0.39686 0.55843 0.0506 0.0
H312 H 0.5704 0.59975 0.99439 0.0
H313 H 0.3953 0.45339 0.96433 0.0
H314 H 0.39304 0.50318 0.97623 0.0
H315 H 0.39629 0.4634 0.99568 0.0
C316 C 0.45043 0.6332 1.00824 0.0
C317 C 0.42249 0.61504 0.02856 0.0
C318 C 0.47374 0.61066 0.99502 0.0
C319 C 0.46908 0.56939 1.00173 0.0
C320 C 0.44107 0.55122 0.02191 0.0
H321 H 0.5959 0.38644 0.98624 0.0
H322 H 0.55286 0.43353 0.99568 0.0
C323 C 0.41787 0.57357 0.03507 0.0
C324 C 0.49543 0.54588 0.98862 0.0
H325 H 0.47462 0.44477 0.9644 0.0
C326 C 0.54944 0.5662 0.98734 0.0
C327 C 0.46805 0.50215 0.97932 0.0
C328 C 0.40993 0.47943 0.97872 0.0
C329 C 0.57688 0.54297 0.9784 0.0
C330 C 0.54953 0.49846 0.97046 0.0
C331 C 0.49549 0.47886 0.97065 0.0
C332 C 0.57626 0.4704 0.96409 0.0
C333 C 0.63498 0.56524 0.97866 0.0
C334 C 0.60363 0.47541 0.94306 0.0
C335 C 0.62819 0.44813 0.93741 0.0
C336 C 0.62587 0.41549 0.95277 0.0
C337 C 0.59845 0.41093 0.97386 0.0
C338 C 0.57375 0.43788 0.97935 0.0
H339 H 0.65058 0.59886 0.98721 0.0
H340 H 0.65066 0.54526 0.98816 0.0
H341 H 0.64885 0.56776 0.96027 0.0
H342 H 0.60573 0.50021 0.93098 0.0
H343 H 0.64902 0.45268 0.92107 0.0
H344 H 0.16768 0.54223 0.436 0.0
H345 H 0.07757 0.49041 0.4422 0.0
H346 H 0.07223 0.57037 0.50273 0.0
H347 H 0.1607 0.62244 0.49628 0.0
H348 H 0.03112 0.44019 0.47802 0.0
H349 H 0.94577 0.55743 0.46737 0.0
H350 H 0.01124 0.57006 0.45929 0.0
H351 H 0.99617 0.57855 0.48943 0.0
C352 C 0.14707 0.54876 0.45054 0.0
C353 C 0.17115 0.58674 0.46546 0.0
C354 C 0.09563 0.5192 0.45405 0.0
C355 C 0.06759 0.52712 0.47255 0.0
C356 C 0.09228 0.56431 0.48782 0.0
H357 H 0.81961 0.35474 0.55289 0.0
H358 H 0.89989 0.39532 0.5329 0.0
C359 C 0.14316 0.59397 0.48419 0.0
C360 C 0.01318 0.49607 0.47673 0.0
H361 H 0.89603 0.49375 0.48984 0.0
C362 C 1.00132 0.45171 0.4802 0.0
C363 C 0.97374 0.51063 0.47895 0.0
C364 C 0.98228 0.55667 0.47328 0.0
C365 C 0.95211 0.42232 0.48734 0.0
C366 C 0.91423 0.43807 0.49185 0.0
C367 C 0.92516 0.48169 0.48686 0.0
C368 C 0.86447 0.41104 0.50316 0.0
C369 C 0.94148 0.37478 0.49005 0.0
C370 C 0.81752 0.40731 0.49359 0.0
C371 C 0.77131 0.38504 0.50541 0.0
C372 C 0.7711 0.36594 0.52705 0.0
C373 C 0.81809 0.36907 0.53633 0.0
C374 C 0.8642 0.39182 0.5247 0.0
H375 H 0.96506 0.36472 0.47775 0.0
H376 H 0.95217 0.37061 0.50828 0.0
H377 H 0.90018 0.35242 0.48669 0.0
H378 H 0.81668 0.42208 0.47707 0.0
H379 H 0.73587 0.38313 0.49767 0.0
H380 H 0.73818 0.19735 1.0054 0.0
H381 H 0.71008 0.11957 0.01331 0.0
H382 H 0.57549 0.08567 0.96868 0.0
H383 H 0.60453 0.16295 0.95992 0.0
H384 H 0.62927 0.06834 0.03542 0.0
H385 H 0.61632 0.99227 0.94602 0.0
H386 H 0.64759 0.0511 0.95174 0.0
H387 H 0.57859 0.02309 0.94761 0.0
C388 C 0.70322 0.17316 0.99684 0.0
C389 C 0.67384 0.18632 0.98188 0.0
C390 C 0.68705 0.12869 1.00145 0.0
C391 C 0.64091 0.09641 0.99139 0.0
C392 C 0.61197 0.10952 0.97613 0.0
H393 H 0.44493 0.84857 0.05059 0.0
H394 H 0.49316 0.92577 0.04166 0.0
C395 C 0.62856 0.15388 0.9712 0.0
C396 C 0.62109 0.04975 0.99826 0.0
H397 H 0.56887 0.94334 0.97609 0.0
C398 C 0.61671 0.04106 0.02241 0.0
C399 C 0.60538 0.01392 0.98141 0.0
C400 C 0.61275 0.0206 0.95528 0.0
C401 C 0.5957 0.99778 0.03012 0.0
C402 C 0.57675 0.96194 0.01324 0.0
C403 C 0.58268 0.97063 0.98911 0.0
C404 C 0.54956 0.91528 0.02008 0.0
C405 C 0.59468 0.99113 0.05631 0.0
C406 C 0.56434 0.88316 1.01065 0.0
C407 C 0.53608 0.83872 0.01536 0.0
C408 C 0.49263 0.82544 0.02977 0.0
C409 C 0.47872 0.85773 0.03976 0.0
C410 C 0.50649 0.90205 0.03473 0.0
H411 H 0.62591 0.01956 0.06587 0.0
H412 H 0.55743 0.98841 0.06336 0.0
H413 H 0.59894 0.96075 0.06018 0.0
H414 H 0.59728 0.89238 0.99926 0.0
H415 H 0.54769 0.81464 1.00734 0.0
H416 H 0.66396 0.48753 0.55515 0.0
H417 H 0.62847 0.53966 0.54526 0.0
H418 H 0.48496 0.43125 0.52328 0.0
H419 H 0.51977 0.37929 0.53287 0.0
H420 H 0.5273 0.49518 0.48955 0.0
H421 H 0.51685 0.56963 0.57774 0.0
H422 H 0.57771 0.5693 0.5705 0.0
H423 H 0.52231 0.51817 0.57414 0.0
C424 C 0.62463 0.47484 0.54851 0.0
C425 C 0.59488 0.42925 0.54467 0.0
C426 C 0.60435 0.50465 0.54296 0.0
C427 C 0.55398 0.48926 0.53364 0.0
C428 C 0.5239 0.44381 0.53044 0.0
H429 H 0.35263 0.61366 0.5047 0.0
H430 H 0.3961 0.57192 0.52112 0.0
C431 C 0.54399 0.41415 0.53594 0.0
C432 C 0.53327 0.52003 0.52558 0.0
H433 H 0.49415 0.59851 0.54453 0.0
C434 C 0.52023 0.51791 0.50155 0.0
C435 C 0.52367 0.54928 0.54133 0.0
C436 C 0.53542 0.55172 0.56742 0.0
C437 C 0.49759 0.54405 0.49283 0.0
C438 C 0.48849 0.57372 0.5085 0.0
C439 C 0.50153 0.57594 0.53255 0.0
C440 C 0.46432 0.60183 0.50013 0.0
C441 C 0.48236 0.53883 0.46699 0.0
C442 C 0.48884 0.63321 0.48333 0.0
C443 C 0.46409 0.6569 0.47382 0.0
C444 C 0.41435 0.64991 0.48104 0.0
C445 C 0.39076 0.61972 0.49863 0.0
C446 C 0.41558 0.59591 0.50809 0.0
H447 H 0.48056 0.50765 0.45872 0.0
H448 H 0.44427 0.53941 0.46453 0.0
H449 H 0.51136 0.56656 0.45749 0.0
H450 H 0.52684 0.63883 0.47726 0.0
H451 H 0.48377 0.68021 0.46052 0.0
H452 H 0.22264 0.60997 0.0223 0.0
H453 H 0.13291 0.56169 0.01243 0.0
H454 H 0.10679 0.52273 0.08447 0.0
H455 H 0.19731 0.57113 0.09469 0.0
H456 H 0.07826 0.46487 0.02056 0.0
H457 H 0.99467 0.56908 0.06587 0.0
H458 H 0.06117 0.59149 0.05706 0.0
H459 H 0.04104 0.55689 0.08176 0.0
C460 C 0.19809 0.59122 0.03616 0.0
C461 C 0.21738 0.59466 0.05937 0.0
C462 C 0.14672 0.56352 0.03041 0.0
C463 C 0.11321 0.53886 0.04772 0.0
C464 C 0.13207 0.54177 0.07089 0.0
H465 H 0.80029 0.3402 1.0065 0.0
H466 H 0.88219 0.37739 0.02866 0.0
C467 C 0.1838 0.56936 0.07667 0.0
C468 C 0.05855 0.51047 0.04116 0.0
H469 H 0.93778 0.5067 0.04342 0.0
C470 C 0.04731 0.47348 0.02586 0.0
C471 C 0.01851 0.52217 0.04796 0.0
C472 C 0.02904 0.56214 0.06399 0.0
C473 C 0.99721 0.44849 0.01668 0.0
C474 C 0.95738 0.4608 0.02302 0.0
C475 C 0.96836 0.49716 0.03878 0.0
C476 C 0.90558 0.43907 0.0115 0.0
C477 C 0.98762 0.41035 0.99936 0.0
C478 C 0.89108 0.46179 0.99501 0.0
C479 C 0.84461 0.4407 0.98229 0.0
C480 C 0.81128 0.39641 0.98593 0.0
C481 C 0.82492 0.37426 1.00324 0.0
C482 C 0.8718 0.39538 0.01586 0.0
H483 H 0.02389 0.40835 0.99414 0.0
H484 H 0.96224 0.37911 1.00745 0.0
H485 H 0.96758 0.41329 0.98322 0.0
H486 H 0.91659 0.49553 0.99141 0.0
H487 H 0.83538 0.45895 0.96922 0.0
H488 H 0.61482 0.15811 0.57992 0.0
H489 H 0.58752 0.08164 0.56487 0.0
H490 H 0.60024 0.12378 0.49343 0.0
H491 H 0.62755 0.19952 0.50809 0.0
H492 H 0.49816 0.0358 0.53566 0.0
H493 H 0.67279 0.04174 0.49109 0.0
H494 H 0.67495 0.08316 0.51298 0.0
H495 H 0.6548 0.08446 0.48311 0.0
C496 C 0.61281 0.15114 0.56102 0.0
C497 C 0.62322 0.18494 0.54524 0.0
C498 C 0.59709 0.10747 0.55245 0.0
C499 C 0.59246 0.09713 0.52802 0.0
C500 C 0.60449 0.13104 0.51232 0.0
H501 H 0.45582 0.86243 0.43465 0.0
H502 H 0.5036 0.9379 0.45147 0.0
C503 C 0.61974 0.17439 0.5208 0.0
C504 C 0.57041 0.05071 0.5187 0.0
H505 H 0.59363 0.97916 0.48122 0.0
C506 C 0.51923 0.02319 0.52402 0.0
C507 C 0.59775 0.03462 0.50321 0.0
C508 C 0.65327 0.06238 0.49739 0.0
C509 C 0.49418 0.98037 0.51382 0.0
C510 C 0.52145 0.96423 0.49828 0.0
C511 C 0.57279 0.99162 0.49308 0.0
C512 C 0.49722 0.91865 0.48772 0.0
C513 C 0.43817 0.95325 0.51922 0.0
C514 C 0.47958 0.88288 0.50242 0.0
C515 C 0.45226 0.84011 0.49295 0.0
C516 C 0.4424 0.83197 0.46846 0.0
C517 C 0.46268 0.8676 0.45356 0.0
C518 C 0.48988 0.91068 0.46315 0.0
H519 H 0.41938 0.97417 0.52599 0.0
H520 H 0.41641 0.93386 0.50329 0.0
H521 H 0.43543 0.92991 0.533 0.0
H522 H 0.48591 0.88814 0.52136 0.0
H523 H 0.43794 0.81345 0.50496 0.0
loop_
_geom_bond_atom_site_label_1
_geom_bond_atom_site_label_2
_geom_bond_distance
_geom_bond_site_symmetry_2
_ccdc_geom_bond_type
Co0 O2 2.143 . S
Co0 O8 2.074 . S
Co0 O11 2.093 . S
Co0 O24 2.097 . S
Co0 N41 2.151 . S
Co0 N49 2.214 1_554 S
Co1 O2 2.160 . S
Co1 O7 2.058 . S
Co1 O17 2.057 . S
Co1 O32 2.037 . S
Co1 N36 2.145 . S
Co1 N57 2.257 . S
O2 Co0 2.143 . S
O2 Co1 2.160 . S
C3 O4 1.278 . S
C3 O11 1.224 . S
O4 C3 1.278 . S
C5 O6 1.245 . S
C5 O17 1.232 . S
O6 C5 1.245 . S
O7 Co1 2.058 . S
O7 C33 1.269 . S
O8 Co0 2.074 . S
O8 C33 1.257 . S
H9 C34 0.930 . S
H10 C40 0.930 . S
O11 Co0 2.093 . S
O11 C3 1.224 . S
H12 C44 0.929 . S
H13 C46 0.930 . S
H14 C47 0.930 . S
H15 C45 0.929 . S
H16 C48 0.928 . S
O17 Co1 2.057 . S
O17 C5 1.232 . S
H18 C37 0.929 . S
H19 C38 0.929 . S
H20 C50 0.931 . S
H21 C42 0.929 . S
H22 C51 0.930 . S
H23 C43 0.931 . S
O24 Co0 2.097 . S
O24 C52 1.214 . S
H25 C53 0.929 . S
H26 C54 0.929 . S
H27 C55 0.930 . S
H28 C56 0.929 . S
H29 C58 0.930 . S
H30 C35 0.930 . S
H31 C39 0.930 . S
O32 Co1 2.037 . S
O32 C52 1.234 . S
C33 O7 1.269 . S
C33 O8 1.257 . S
C34 H9 0.930 . S
C34 C37 1.388 . S
C34 C39 1.418 . S
C35 H30 0.930 . S
C35 C38 1.404 . S
C35 C39 1.353 . S
N36 Co1 2.145 . S
N36 C37 1.397 . S
N36 C38 1.334 . S
C37 H18 0.929 . S
C37 C34 1.388 . S
C37 N36 1.397 . S
C38 H19 0.929 . S
C38 C35 1.404 . S
C38 N36 1.334 . S
C39 H31 0.930 . S
C39 C34 1.418 . S
C39 C35 1.353 . S
C40 H10 0.930 . S
C40 N41 1.330 . S
C40 C42 1.446 . S
N41 Co0 2.151 . S
N41 C40 1.330 . S
N41 C45 1.418 . S
C42 H21 0.929 . S
C42 C40 1.446 . S
C42 C43 1.332 . S
C43 H23 0.931 . S
C43 C42 1.332 . S
C43 C44 1.267 . S
C44 H12 0.929 . S
C44 C43 1.267 . S
C44 C45 1.251 . S
C45 H15 0.929 . S
C45 N41 1.418 . S
C45 C44 1.251 . S
C46 H13 0.930 . S
C46 C48 1.406 . S
C46 C51 1.261 . S
C47 H14 0.930 . S
C47 N49 1.325 . S
C47 C50 1.357 . S
C48 H16 0.928 . S
C48 C46 1.406 . S
C48 N49 1.261 . S
N49 Co0 2.214 1_556 S
N49 C47 1.325 . S
N49 C48 1.261 . S
C50 H20 0.931 . S
C50 C47 1.357 . S
C50 C51 1.312 . S
C51 H22 0.930 . S
C51 C46 1.261 . S
C51 C50 1.312 . S
C52 O24 1.214 . S
C52 O32 1.234 . S
C53 H25 0.929 . S
C53 C56 1.391 . S
C53 C58 1.391 . S
C54 H26 0.929 . S
C54 C55 1.390 . S
C54 N57 1.391 . S
C55 H27 0.930 . S
C55 C54 1.390 . S
C55 C56 1.392 . S
C56 H28 0.929 . S
C56 C53 1.391 . S
C56 C55 1.392 . S
N57 Co1 2.257 . S
N57 C54 1.391 . S
N57 C58 1.388 . S
C58 H29 0.930 . S
C58 C53 1.391 . S
C58 N57 1.388 . S
Co59 O61 2.143 . S
Co59 O67 2.074 . S
Co59 O70 2.093 . S
Co59 O83 2.097 . S
Co59 N100 2.151 . S
Co59 N108 2.214 . S
Co60 O61 2.160 . S
Co60 O66 2.058 . S
Co60 O76 2.057 . S
Co60 O91 2.037 . S
Co60 N95 2.145 . S
Co60 N116 2.257 . S
O61 Co59 2.143 . S
O61 Co60 2.160 . S
C62 O63 1.278 . S
C62 O70 1.224 . S
O63 C62 1.278 . S
C64 O65 1.245 . S
C64 O76 1.232 . S
O65 C64 1.245 . S
O66 Co60 2.058 . S
O66 C92 1.269 . S
O67 Co59 2.074 . S
O67 C92 1.257 . S
H68 C93 0.930 . S
H69 C99 0.930 . S
O70 Co59 2.093 . S
O70 C62 1.224 . S
H71 C103 0.929 . S
H72 C105 0.930 . S
H73 C106 0.930 . S
H74 C104 0.929 . S
H75 C107 0.928 . S
O76 Co60 2.057 . S
O76 C64 1.232 . S
H77 C96 0.929 . S
H78 C97 0.929 . S
H79 C109 0.931 . S
H80 C101 0.929 . S
H81 C110 0.930 . S
H82 C102 0.931 . S
O83 Co59 2.097 . S
O83 C111 1.214 . S
H84 C112 0.929 . S
H85 C113 0.929 . S
H86 C114 0.930 . S
H87 C115 0.929 . S
H88 C117 0.930 . S
H89 C94 0.930 . S
H90 C98 0.930 . S
O91 Co60 2.037 . S
O91 C111 1.234 . S
C92 O66 1.269 . S
C92 O67 1.257 . S
C93 H68 0.930 . S
C93 C96 1.388 . S
C93 C98 1.418 . S
C94 H89 0.930 . S
C94 C97 1.404 . S
C94 C98 1.353 . S
N95 Co60 2.145 . S
N95 C96 1.397 . S
N95 C97 1.334 . S
C96 H77 0.929 . S
C96 C93 1.388 . S
C96 N95 1.397 . S
C97 H78 0.929 . S
C97 C94 1.404 . S
C97 N95 1.334 . S
C98 H90 0.930 . S
C98 C93 1.418 . S
C98 C94 1.353 . S
C99 H69 0.930 . S
C99 N100 1.330 . S
C99 C101 1.446 . S
N100 Co59 2.151 . S
N100 C99 1.330 . S
N100 C104 1.418 . S
C101 H80 0.929 . S
C101 C99 1.446 . S
C101 C102 1.332 . S
C102 H82 0.931 . S
C102 C101 1.332 . S
C102 C103 1.267 . S
C103 H71 0.929 . S
C103 C102 1.267 . S
C103 C104 1.251 . S
C104 H74 0.929 . S
C104 N100 1.418 . S
C104 C103 1.251 . S
C105 H72 0.930 . S
C105 C107 1.406 . S
C105 C110 1.261 . S
C106 H73 0.930 . S
C106 N108 1.325 . S
C106 C109 1.357 . S
C107 H75 0.928 . S
C107 C105 1.406 . S
C107 N108 1.261 . S
N108 Co59 2.214 . S
N108 C106 1.325 . S
N108 C107 1.261 . S
C109 H79 0.931 . S
C109 C106 1.357 . S
C109 C110 1.312 . S
C110 H81 0.930 . S
C110 C105 1.261 . S
C110 C109 1.312 . S
C111 O83 1.214 . S
C111 O91 1.234 . S
C112 H84 0.929 . S
C112 C115 1.391 . S
C112 C117 1.391 . S
C113 H85 0.929 . S
C113 C114 1.390 . S
C113 N116 1.391 . S
C114 H86 0.930 . S
C114 C113 1.390 . S
C114 C115 1.392 . S
C115 H87 0.929 . S
C115 C112 1.391 . S
C115 C114 1.392 . S
N116 Co60 2.257 . S
N116 C113 1.391 . S
N116 C117 1.388 . S
C117 H88 0.930 . S
C117 C112 1.391 . S
C117 N116 1.388 . S
Co118 O120 2.143 . S
Co118 O126 2.074 . S
Co118 O129 2.093 . S
Co118 O142 2.097 . S
Co118 N159 2.151 . S
Co118 N167 2.214 . S
Co119 O120 2.160 . S
Co119 O125 2.058 . S
Co119 O135 2.057 . S
Co119 O150 2.037 . S
Co119 N154 2.145 . S
Co119 N175 2.257 . S
O120 Co118 2.143 . S
O120 Co119 2.160 . S
C121 O122 1.278 . S
C121 O129 1.224 . S
O122 C121 1.278 . S
C123 O124 1.245 . S
C123 O135 1.232 . S
O124 C123 1.245 . S
O125 Co119 2.058 . S
O125 C151 1.269 . S
O126 Co118 2.074 . S
O126 C151 1.257 . S
H127 C152 0.930 . S
H128 C158 0.930 . S
O129 Co118 2.093 . S
O129 C121 1.224 . S
H130 C162 0.929 . S
H131 C164 0.930 . S
H132 C165 0.930 . S
H133 C163 0.929 . S
H134 C166 0.928 . S
O135 Co119 2.057 . S
O135 C123 1.232 . S
H136 C155 0.929 . S
H137 C156 0.929 . S
H138 C168 0.931 . S
H139 C160 0.929 . S
H140 C169 0.930 . S
H141 C161 0.931 . S
O142 Co118 2.097 . S
O142 C170 1.214 . S
H143 C171 0.929 . S
H144 C172 0.929 . S
H145 C173 0.930 . S
H146 C174 0.929 . S
H147 C176 0.930 . S
H148 C153 0.930 . S
H149 C157 0.930 . S
O150 Co119 2.037 . S
O150 C170 1.234 . S
C151 O125 1.269 . S
C151 O126 1.257 . S
C152 H127 0.930 . S
C152 C155 1.388 . S
C152 C157 1.418 . S
C153 H148 0.930 . S
C153 C156 1.404 . S
C153 C157 1.353 . S
N154 Co119 2.145 . S
N154 C155 1.397 . S
N154 C156 1.334 . S
C155 H136 0.929 . S
C155 C152 1.388 . S
C155 N154 1.397 . S
C156 H137 0.929 . S
C156 C153 1.404 . S
C156 N154 1.334 . S
C157 H149 0.930 . S
C157 C152 1.418 . S
C157 C153 1.353 . S
C158 H128 0.930 . S
C158 N159 1.330 . S
C158 C160 1.446 . S
N159 Co118 2.151 . S
N159 C158 1.330 . S
N159 C163 1.418 . S
C160 H139 0.929 . S
C160 C158 1.446 . S
C160 C161 1.332 . S
C161 H141 0.931 . S
C161 C160 1.332 . S
C161 C162 1.267 . S
C162 H130 0.929 . S
C162 C161 1.267 . S
C162 C163 1.251 . S
C163 H133 0.929 . S
C163 N159 1.418 . S
C163 C162 1.251 . S
C164 H131 0.930 . S
C164 C166 1.406 . S
C164 C169 1.261 . S
C165 H132 0.930 . S
C165 N167 1.325 . S
C165 C168 1.357 . S
C166 H134 0.928 . S
C166 C164 1.406 . S
C166 N167 1.261 . S
N167 Co118 2.214 . S
N167 C165 1.325 . S
N167 C166 1.261 . S
C168 H138 0.931 . S
C168 C165 1.357 . S
C168 C169 1.312 . S
C169 H140 0.930 . S
C169 C164 1.261 . S
C169 C168 1.312 . S
C170 O142 1.214 . S
C170 O150 1.234 . S
C171 H143 0.929 . S
C171 C174 1.391 . S
C171 C176 1.391 . S
C172 H144 0.929 . S
C172 C173 1.390 . S
C172 N175 1.391 . S
C173 H145 0.930 . S
C173 C172 1.390 . S
C173 C174 1.392 . S
C174 H146 0.929 . S
C174 C171 1.391 . S
C174 C173 1.392 . S
N175 Co119 2.257 . S
N175 C172 1.391 . S
N175 C176 1.388 . S
C176 H147 0.930 . S
C176 C171 1.391 . S
C176 N175 1.388 . S
Co177 O179 2.143 . S
Co177 O185 2.074 . S
Co177 O188 2.093 . S
Co177 O201 2.097 . S
Co177 N218 2.151 . S
Co177 N226 2.214 . S
Co178 O179 2.160 . S
Co178 O184 2.058 . S
Co178 O194 2.057 . S
Co178 O209 2.037 . S
Co178 N213 2.145 . S
Co178 N234 2.257 . S
O179 Co177 2.143 . S
O179 Co178 2.160 . S
C180 O181 1.278 . S
C180 O188 1.224 . S
O181 C180 1.278 . S
C182 O183 1.245 . S
C182 O194 1.232 . S
O183 C182 1.245 . S
O184 Co178 2.058 . S
O184 C210 1.269 . S
O185 Co177 2.074 . S
O185 C210 1.257 . S
H186 C211 0.930 . S
H187 C217 0.930 . S
O188 Co177 2.093 . S
O188 C180 1.224 . S
H189 C221 0.929 . S
H190 C223 0.930 . S
H191 C224 0.930 1_556 S
H192 C222 0.929 . S
H193 C225 0.928 . S
O194 Co178 2.057 . S
O194 C182 1.232 . S
H195 C214 0.929 . S
H196 C215 0.929 . S
H197 C227 0.931 . S
H198 C219 0.929 . S
H199 C228 0.930 . S
H200 C220 0.931 . S
O201 Co177 2.097 . S
O201 C229 1.214 . S
H202 C230 0.929 . S
H203 C231 0.929 . S
H204 C232 0.930 . S
H205 C233 0.929 . S
H206 C235 0.930 . S
H207 C212 0.930 . S
H208 C216 0.930 . S
O209 Co178 2.037 . S
O209 C229 1.234 . S
C210 O184 1.269 . S
C210 O185 1.257 . S
C211 H186 0.930 . S
C211 C214 1.388 . S
C211 C216 1.418 . S
C212 H207 0.930 . S
C212 C215 1.404 . S
C212 C216 1.353 . S
N213 Co178 2.145 . S
N213 C214 1.397 . S
N213 C215 1.334 . S
C214 H195 0.929 . S
C214 C211 1.388 . S
C214 N213 1.397 . S
C215 H196 0.929 . S
C215 C212 1.404 . S
C215 N213 1.334 . S
C216 H208 0.930 . S
C216 C211 1.418 . S
C216 C212 1.353 . S
C217 H187 0.930 . S
C217 N218 1.330 . S
C217 C219 1.446 . S
N218 Co177 2.151 . S
N218 C217 1.330 . S
N218 C222 1.418 . S
C219 H198 0.929 . S
C219 C217 1.446 . S
C219 C220 1.332 . S
C220 H200 0.931 . S
C220 C219 1.332 . S
C220 C221 1.267 . S
C221 H189 0.929 . S
C221 C220 1.267 . S
C221 C222 1.251 . S
C222 H192 0.929 . S
C222 N218 1.418 . S
C222 C221 1.251 . S
C223 H190 0.930 . S
C223 C225 1.406 . S
C223 C228 1.261 . S
C224 H191 0.930 1_554 S
C224 N226 1.325 1_554 S
C224 C227 1.357 . S
C225 H193 0.928 . S
C225 C223 1.406 . S
C225 N226 1.261 1_554 S
N226 Co177 2.214 . S
N226 C224 1.325 1_556 S
N226 C225 1.261 1_556 S
C227 H197 0.931 . S
C227 C224 1.357 . S
C227 C228 1.312 . S
C228 H199 0.930 . S
C228 C223 1.261 . S
C228 C227 1.312 . S
C229 O201 1.214 . S
C229 O209 1.234 . S
C230 H202 0.929 . S
C230 C233 1.391 . S
C230 C235 1.391 . S
C231 H203 0.929 . S
C231 C232 1.390 . S
C231 N234 1.391 . S
C232 H204 0.930 . S
C232 C231 1.390 . S
C232 C233 1.392 . S
C233 H205 0.929 . S
C233 C230 1.391 . S
C233 C232 1.392 . S
N234 Co178 2.257 . S
N234 C231 1.391 . S
N234 C235 1.388 . S
C235 H206 0.930 . S
C235 C230 1.391 . S
C235 N234 1.388 . S
H236 C244 0.929 . S
H237 C246 0.930 . S
H238 C248 0.930 . S
H239 C251 0.929 . S
H240 C254 0.930 . S
H241 C256 0.960 . S
H242 C256 0.960 . S
H243 C256 0.960 . S
C244 H236 0.929 . S
C244 C245 1.377 . S
C244 C246 1.384 . S
C245 C244 1.377 . S
C245 C251 1.390 . S
C246 H237 0.930 . S
C246 C244 1.384 . S
C246 C247 1.372 . S
C247 C246 1.372 . S
C247 C248 1.400 . S
C247 C252 1.490 . S
C248 H238 0.930 . S
C248 C247 1.400 . S
C248 C251 1.386 . S
H249 C265 0.930 . S
H250 C266 0.931 . S
C251 H239 0.929 . S
C251 C245 1.390 . S
C251 C248 1.386 . S
C252 C247 1.490 . S
C252 C254 1.395 . S
C252 C255 1.403 . S
H253 C259 0.930 . S
C254 H240 0.930 . S
C254 C252 1.395 . S
C254 C257 1.403 . S
C255 C252 1.403 . S
C255 C256 1.524 . S
C255 C259 1.400 . S
C256 H241 0.960 . S
C256 H242 0.960 . S
C256 H243 0.960 . S
C256 C255 1.524 . S
C257 C254 1.403 . S
C257 C258 1.392 . S
C257 C261 1.495 . S
C258 C257 1.392 . S
C258 C259 1.385 . S
C258 C260 1.478 . S
C259 H253 0.930 . S
C259 C255 1.400 . S
C259 C258 1.385 . S
C260 C258 1.478 . S
C260 C262 1.381 . S
C260 C266 1.383 . S
C261 C257 1.495 . S
C261 H267 0.959 . S
C261 H268 0.961 . S
C261 H269 0.960 . S
C262 C260 1.381 . S
C262 C263 1.394 . S
C262 H270 0.930 . S
C263 C262 1.394 . S
C263 C264 1.383 . S
C263 H271 0.929 . S
C264 C263 1.383 . S
C264 C265 1.377 . S
C265 H249 0.930 . S
C265 C264 1.377 . S
C265 C266 1.379 . S
C266 H250 0.931 . S
C266 C260 1.383 . S
C266 C265 1.379 . S
H267 C261 0.959 . S
H268 C261 0.961 . S
H269 C261 0.960 . S
H270 C262 0.930 . S
H271 C263 0.929 . S
H272 C280 0.929 . S
H273 C282 0.930 . S
H274 C284 0.930 . S
H275 C287 0.929 . S
H276 C290 0.930 . S
H277 C292 0.960 . S
H278 C292 0.960 . S
H279 C292 0.960 . S
C280 H272 0.929 . S
C280 C281 1.377 . S
C280 C282 1.384 . S
C281 C280 1.377 . S
C281 C287 1.390 . S
C282 H273 0.930 . S
C282 C280 1.384 . S
C282 C283 1.372 . S
C283 C282 1.372 . S
C283 C284 1.400 . S
C283 C288 1.490 . S
C284 H274 0.930 . S
C284 C283 1.400 . S
C284 C287 1.386 . S
H285 C301 0.930 . S
H286 C302 0.931 . S
C287 H275 0.929 . S
C287 C281 1.390 . S
C287 C284 1.386 . S
C288 C283 1.490 . S
C288 C290 1.395 . S
C288 C291 1.403 . S
H289 C295 0.930 . S
C290 H276 0.930 . S
C290 C288 1.395 . S
C290 C293 1.403 . S
C291 C288 1.403 . S
C291 C292 1.524 . S
C291 C295 1.400 . S
C292 H277 0.960 . S
C292 H278 0.960 . S
C292 H279 0.960 . S
C292 C291 1.524 . S
C293 C290 1.403 . S
C293 C294 1.392 . S
C293 C297 1.495 . S
C294 C293 1.392 . S
C294 C295 1.385 . S
C294 C296 1.478 . S
C295 H289 0.930 . S
C295 C291 1.400 . S
C295 C294 1.385 . S
C296 C294 1.478 . S
C296 C298 1.381 . S
C296 C302 1.383 . S
C297 C293 1.495 . S
C297 H303 0.959 . S
C297 H304 0.961 . S
C297 H305 0.960 . S
C298 C296 1.381 . S
C298 C299 1.394 . S
C298 H306 0.930 . S
C299 C298 1.394 . S
C299 C300 1.383 . S
C299 H307 0.929 . S
C300 C299 1.383 . S
C300 C301 1.377 . S
C301 H285 0.930 . S
C301 C300 1.377 . S
C301 C302 1.379 . S
C302 H286 0.931 . S
C302 C296 1.383 . S
C302 C301 1.379 . S
H303 C297 0.959 . S
H304 C297 0.961 . S
H305 C297 0.960 . S
H306 C298 0.930 . S
H307 C299 0.929 . S
H308 C316 0.929 . S
H309 C318 0.930 . S
H310 C320 0.930 . S
H311 C323 0.929 . S
H312 C326 0.930 . S
H313 C328 0.961 . S
H314 C328 0.960 1_556 S
H315 C328 0.960 . S
C316 H308 0.929 . S
C316 C317 1.377 1_556 S
C316 C318 1.384 . S
C317 C316 1.377 1_554 S
C317 C323 1.390 . S
C318 H309 0.930 . S
C318 C316 1.384 . S
C318 C319 1.370 1_556 S
C319 C318 1.370 1_554 S
C319 C320 1.403 . S
C319 C324 1.489 1_554 S
C320 H310 0.930 . S
C320 C319 1.403 . S
C320 C323 1.386 . S
H321 C337 0.930 . S
H322 C338 0.931 . S
C323 H311 0.929 . S
C323 C317 1.390 . S
C323 C320 1.386 . S
C324 C319 1.489 1_556 S
C324 C326 1.395 . S
C324 C327 1.403 . S
H325 C331 0.930 . S
C326 H312 0.930 . S
C326 C324 1.395 . S
C326 C329 1.403 . S
C327 C324 1.403 . S
C327 C328 1.524 1_556 S
C327 C331 1.400 . S
C328 H313 0.961 . S
C328 H314 0.960 1_554 S
C328 H315 0.960 . S
C328 C327 1.524 1_554 S
C329 C326 1.403 . S
C329 C330 1.392 . S
C329 C333 1.495 . S
C330 C329 1.392 . S
C330 C331 1.385 . S
C330 C332 1.478 . S
C331 H325 0.930 . S
C331 C327 1.400 . S
C331 C330 1.385 . S
C332 C330 1.478 . S
C332 C334 1.381 . S
C332 C338 1.383 . S
C333 C329 1.495 . S
C333 H339 0.959 . S
C333 H340 0.961 . S
C333 H341 0.960 . S
C334 C332 1.381 . S
C334 C335 1.394 . S
C334 H342 0.930 . S
C335 C334 1.394 . S
C335 C336 1.383 . S
C335 H343 0.929 . S
C336 C335 1.383 . S
C336 C337 1.377 . S
C337 H321 0.930 . S
C337 C336 1.377 . S
C337 C338 1.379 . S
C338 H322 0.931 . S
C338 C332 1.383 . S
C338 C337 1.379 . S
H339 C333 0.959 . S
H340 C333 0.961 . S
H341 C333 0.960 . S
H342 C334 0.930 . S
H343 C335 0.929 . S
H344 C352 0.929 . S
H345 C354 0.930 . S
H346 C356 0.930 . S
H347 C359 0.929 . S
H348 C362 0.930 1_455 S
H349 C364 0.960 1_655 S
H350 C364 0.960 . S
H351 C364 0.960 . S
C352 H344 0.929 . S
C352 C353 1.377 . S
C352 C354 1.384 . S
C353 C352 1.377 . S
C353 C359 1.390 . S
C354 H345 0.930 . S
C354 C352 1.384 . S
C354 C355 1.372 . S
C355 C354 1.372 . S
C355 C356 1.400 . S
C355 C360 1.490 . S
C356 H346 0.930 . S
C356 C355 1.400 . S
C356 C359 1.386 . S
H357 C373 0.930 . S
H358 C374 0.931 . S
C359 H347 0.929 . S
C359 C353 1.390 . S
C359 C356 1.386 . S
C360 C355 1.490 . S
C360 C362 1.395 1_455 S
C360 C363 1.403 1_455 S
H361 C367 0.930 . S
C362 H348 0.930 1_655 S
C362 C360 1.395 1_655 S
C362 C365 1.403 . S
C363 C360 1.403 1_655 S
C363 C364 1.524 1_655 S
C363 C367 1.400 . S
C364 H349 0.960 1_455 S
C364 H350 0.960 . S
C364 H351 0.960 . S
C364 C363 1.524 1_455 S
C365 C362 1.403 . S
C365 C366 1.392 . S
C365 C369 1.495 . S
C366 C365 1.392 . S
C366 C367 1.385 . S
C366 C368 1.478 . S
C367 H361 0.930 . S
C367 C363 1.400 . S
C367 C366 1.385 . S
C368 C366 1.478 . S
C368 C370 1.381 . S
C368 C374 1.383 . S
C369 C365 1.495 . S
C369 H375 0.959 . S
C369 H376 0.961 . S
C369 H377 0.960 . S
C370 C368 1.381 . S
C370 C371 1.394 . S
C370 H378 0.930 . S
C371 C370 1.394 . S
C371 C372 1.383 . S
C371 H379 0.929 . S
C372 C371 1.383 . S
C372 C373 1.377 . S
C373 H357 0.930 . S
C373 C372 1.377 . S
C373 C374 1.379 . S
C374 H358 0.931 . S
C374 C368 1.383 . S
C374 C373 1.379 . S
H375 C369 0.959 . S
H376 C369 0.961 . S
H377 C369 0.960 . S
H378 C370 0.930 . S
H379 C371 0.929 . S
H380 C388 0.929 . S
H381 C390 0.930 . S
H382 C392 0.930 . S
H383 C395 0.929 . S
H384 C398 0.930 . S
H385 C400 0.960 1_565 S
H386 C400 0.960 . S
H387 C400 0.960 . S
C388 H380 0.929 . S
C388 C389 1.377 . S
C388 C390 1.384 . S
C389 C388 1.377 . S
C389 C395 1.390 . S
C390 H381 0.930 . S
C390 C388 1.384 . S
C390 C391 1.372 . S
C391 C390 1.372 . S
C391 C392 1.400 . S
C391 C396 1.490 . S
C392 H382 0.930 . S
C392 C391 1.400 . S
C392 C395 1.386 . S
H393 C409 0.930 . S
H394 C410 0.931 . S
C395 H383 0.929 . S
C395 C389 1.390 . S
C395 C392 1.386 . S
C396 C391 1.490 . S
C396 C398 1.395 1_556 S
C396 C399 1.403 . S
H397 C403 0.930 . S
C398 H384 0.930 . S
C398 C396 1.395 1_554 S
C398 C401 1.403 1_545 S
C399 C396 1.403 . S
C399 C400 1.524 . S
C399 C403 1.400 1_545 S
C400 H385 0.960 1_545 S
C400 H386 0.960 . S
C400 H387 0.960 . S
C400 C399 1.524 . S
C401 C398 1.403 1_565 S
C401 C402 1.392 . S
C401 C405 1.495 . S
C402 C401 1.392 . S
C402 C403 1.385 1_554 S
C402 C404 1.478 . S
C403 H397 0.930 . S
C403 C399 1.400 1_565 S
C403 C402 1.385 1_556 S
C404 C402 1.478 . S
C404 C406 1.381 . S
C404 C410 1.383 . S
C405 C401 1.495 . S
C405 H411 0.959 1_565 S
C405 H412 0.961 . S
C405 H413 0.960 . S
C406 C404 1.381 . S
C406 C407 1.394 . S
C406 H414 0.930 . S
C407 C406 1.394 . S
C407 C408 1.383 . S
C407 H415 0.929 . S
C408 C407 1.383 . S
C408 C409 1.377 . S
C409 H393 0.930 . S
C409 C408 1.377 . S
C409 C410 1.379 . S
C410 H394 0.931 . S
C410 C404 1.383 . S
C410 C409 1.379 . S
H411 C405 0.959 1_545 S
H412 C405 0.961 . S
H413 C405 0.960 . S
H414 C406 0.930 . S
H415 C407 0.929 . S
H416 C424 0.929 . S
H417 C426 0.930 . S
H418 C428 0.930 . S
H419 C431 0.929 . S
H420 C434 0.930 . S
H421 C436 0.960 . S
H422 C436 0.960 . S
H423 C436 0.960 . S
C424 H416 0.929 . S
C424 C425 1.377 . S
C424 C426 1.384 . S
C425 C424 1.377 . S
C425 C431 1.390 . S
C426 H417 0.930 . S
C426 C424 1.384 . S
C426 C427 1.372 . S
C427 C426 1.372 . S
C427 C428 1.400 . S
C427 C432 1.490 . S
C428 H418 0.930 . S
C428 C427 1.400 . S
C428 C431 1.386 . S
H429 C445 0.930 . S
H430 C446 0.931 . S
C431 H419 0.929 . S
C431 C425 1.390 . S
C431 C428 1.386 . S
C432 C427 1.490 . S
C432 C434 1.395 . S
C432 C435 1.403 . S
H433 C439 0.930 . S
C434 H420 0.930 . S
C434 C432 1.395 . S
C434 C437 1.403 . S
C435 C432 1.403 . S
C435 C436 1.524 . S
C435 C439 1.400 . S
C436 H421 0.960 . S
C436 H422 0.960 . S
C436 H423 0.960 . S
C436 C435 1.524 . S
C437 C434 1.403 . S
C437 C438 1.392 . S
C437 C441 1.495 . S
C438 C437 1.392 . S
C438 C439 1.385 . S
C438 C440 1.478 . S
C439 H433 0.930 . S
C439 C435 1.400 . S
C439 C438 1.385 . S
C440 C438 1.478 . S
C440 C442 1.381 . S
C440 C446 1.383 . S
C441 C437 1.495 . S
C441 H447 0.959 . S
C441 H448 0.961 . S
C441 H449 0.960 . S
C442 C440 1.381 . S
C442 C443 1.394 . S
C442 H450 0.930 . S
C443 C442 1.394 . S
C443 C444 1.383 . S
C443 H451 0.929 . S
C444 C443 1.383 . S
C444 C445 1.377 . S
C445 H429 0.930 . S
C445 C444 1.377 . S
C445 C446 1.379 . S
C446 H430 0.931 . S
C446 C440 1.383 . S
C446 C445 1.379 . S
H447 C441 0.959 . S
H448 C441 0.961 . S
H449 C441 0.960 . S
H450 C442 0.930 . S
H451 C443 0.929 . S
H452 C460 0.929 . S
H453 C462 0.930 1_556 S
H454 C464 0.930 . S
H455 C467 0.929 . S
H456 C470 0.930 . S
H457 C472 0.960 1_655 S
H458 C472 0.960 . S
H459 C472 0.960 . S
C460 H452 0.929 . S
C460 C461 1.377 . S
C460 C462 1.384 . S
C461 C460 1.377 . S
C461 C467 1.390 . S
C462 H453 0.930 1_554 S
C462 C460 1.384 . S
C462 C463 1.372 . S
C463 C462 1.372 . S
C463 C464 1.400 . S
C463 C468 1.490 . S
C464 H454 0.930 . S
C464 C463 1.400 . S
C464 C467 1.386 . S
H465 C481 0.930 1_554 S
H466 C482 0.931 . S
C467 H455 0.929 . S
C467 C461 1.390 . S
C467 C464 1.386 . S
C468 C463 1.490 . S
C468 C470 1.395 1_554 S
C468 C471 1.403 . S
H469 C475 0.930 . S
C470 H456 0.930 . S
C470 C468 1.395 1_556 S
C470 C473 1.403 1_455 S
C471 C468 1.403 . S
C471 C472 1.524 . S
C471 C475 1.400 1_455 S
C472 H457 0.960 1_455 S
C472 H458 0.960 . S
C472 H459 0.960 . S
C472 C471 1.524 . S
C473 C470 1.403 1_655 S
C473 C474 1.392 . S
C473 C477 1.495 . S
C474 C473 1.392 . S
C474 C475 1.385 1_556 S
C474 C476 1.478 . S
C475 H469 0.930 . S
C475 C471 1.400 1_655 S
C475 C474 1.385 1_554 S
C476 C474 1.478 . S
C476 C478 1.381 . S
C476 C482 1.383 1_556 S
C477 C473 1.495 . S
C477 H483 0.959 1_655 S
C477 H484 0.961 . S
C477 H485 0.960 . S
C478 C476 1.381 . S
C478 C479 1.394 . S
C478 H486 0.930 . S
C479 C478 1.394 . S
C479 C480 1.383 . S
C479 H487 0.929 . S
C480 C479 1.383 . S
C480 C481 1.377 . S
C481 H465 0.930 1_556 S
C481 C480 1.377 . S
C481 C482 1.379 1_556 S
C482 H466 0.931 . S
C482 C476 1.383 1_554 S
C482 C481 1.379 1_554 S
H483 C477 0.959 1_455 S
H484 C477 0.961 . S
H485 C477 0.960 . S
H486 C478 0.930 . S
H487 C479 0.929 . S
H488 C496 0.929 . S
H489 C498 0.930 . S
H490 C500 0.930 . S
H491 C503 0.929 . S
H492 C506 0.930 . S
H493 C508 0.960 . S
H494 C508 0.960 . S
H495 C508 0.960 . S
C496 H488 0.929 . S
C496 C497 1.377 . S
C496 C498 1.384 . S
C497 C496 1.377 . S
C497 C503 1.390 . S
C498 H489 0.930 . S
C498 C496 1.384 . S
C498 C499 1.372 . S
C499 C498 1.372 . S
C499 C500 1.400 . S
C499 C504 1.490 . S
C500 H490 0.930 . S
C500 C499 1.400 . S
C500 C503 1.386 . S
H501 C517 0.930 . S
H502 C518 0.931 . S
C503 H491 0.929 . S
C503 C497 1.390 . S
C503 C500 1.386 . S
C504 C499 1.490 . S
C504 C506 1.395 . S
C504 C507 1.403 . S
H505 C511 0.930 . S
C506 H492 0.930 . S
C506 C504 1.395 . S
C506 C509 1.403 1_545 S
C507 C504 1.403 . S
C507 C508 1.524 . S
C507 C511 1.400 1_545 S
C508 H493 0.960 . S
C508 H494 0.960 . S
C508 H495 0.960 . S
C508 C507 1.524 . S
C509 C506 1.403 1_565 S
C509 C510 1.392 . S
C509 C513 1.495 . S
C510 C509 1.392 . S
C510 C511 1.385 . S
C510 C512 1.478 . S
C511 H505 0.930 . S
C511 C507 1.400 1_565 S
C511 C510 1.385 . S
C512 C510 1.478 . S
C512 C514 1.381 . S
C512 C518 1.383 . S
C513 C509 1.495 . S
C513 H519 0.959 . S
C513 H520 0.961 . S
C513 H521 0.960 . S
C514 C512 1.381 . S
C514 C515 1.394 . S
C514 H522 0.930 . S
C515 C514 1.394 . S
C515 C516 1.383 . S
C515 H523 0.929 . S
C516 C515 1.383 . S
C516 C517 1.377 . S
C517 H501 0.930 . S
C517 C516 1.377 . S
C517 C518 1.379 . S
C518 H502 0.931 . S
C518 C512 1.383 . S
C518 C517 1.379 . S
H519 C513 0.959 . S
H520 C513 0.961 . S
H521 C513 0.960 . S
H522 C514 0.930 . S
H523 C515 0.929 . S
C245 C5 1.616 . S
C264 C123 1.608 . S
C281 C64 1.621 . S
C300 C182 1.613 . S
C317 C52 1.753 . S
C336 C210 1.763 . S
C353 C121 1.476 . S
C372 C111 1.485 . S
C389 C180 1.325 . S
C408 C3 1.338 . S
C425 C62 1.477 . S
C444 C170 1.476 . S
C461 C33 1.758 . S
C480 C229 1.740 . S
C497 C92 1.986 . S
C516 C151 1.970 . S
