# Generated by pormake.
# Topology kag, (6)-cn, num edge types: 1
# Building blocks:
#     Node 0, Type 0, BuildingBlock: KUMBUR_clean_sbu_1, # of connection points: 6
#     Node 1, Type 0, BuildingBlock: KUMBUR_clean_sbu_1, # of connection points: 6
#     Node 2, Type 0, BuildingBlock: KUMBUR_clean_sbu_1, # of connection points: 6
#     Edge 3, Type (0, 0), BuildingBlock: KIFKEQ_clean_linker_1, # of connection points: 2
#     Edge 4, Type (0, 0), BuildingBlock: KIFKEQ_clean_linker_1, # of connection points: 2
#     Edge 5, Type (0, 0), BuildingBlock: KIFKEQ_clean_linker_1, # of connection points: 2
#     Edge 6, Type (0, 0), BuildingBlock: KIFKEQ_clean_linker_1, # of connection points: 2
#     Edge 7, Type (0, 0), BuildingBlock: KIFKEQ_clean_linker_1, # of connection points: 2
#     Edge 8, Type (0, 0), BuildingBlock: KIFKEQ_clean_linker_1, # of connection points: 2
#     Edge 9, Type (0, 0), BuildingBlock: KIFKEQ_clean_linker_1, # of connection points: 2
#     Edge 10, Type (0, 0), BuildingBlock: KIFKEQ_clean_linker_1, # of connection points: 2
#     Edge 11, Type (0, 0), BuildingBlock: KIFKEQ_clean_linker_1, # of connection points: 2
# Relax obj value: 0.093
# Max RMSD: 0.182
# Mean RMSD: 0.125
data_MOF--net-kag--node1-KUMBUR_clean_sbu_1--edge1-KIFKEQ_clean_linker_1
_symmetry_space_group_name_H-M    P1
_symmetry_Int_Tables_number       1
_symmetry_cell_setting            triclinic
loop_
_symmetry_equiv_pos_as_xyz
'x, y, z'
_cell_length_a     30.948854
_cell_length_b     40.714022
_cell_length_c     15.052781
_cell_angle_alpha  107.59508
_cell_angle_beta   96.790755
_cell_angle_gamma 99.411297
loop_
_atom_site_label
_atom_site_type_symbol
_atom_site_fract_x
_atom_site_fract_y
_atom_site_fract_z
_atom_type_partial_charge
Tb0 Tb 0.06705 0.55818 0.05786 0.0
C1 C 0.10569 0.41623 0.83602 0.0
N2 N 0.07111 0.43164 0.81976 0.0
C3 C 0.07707 0.41618 0.65517 0.0
C4 C 0.12862 0.40156 0.7632 0.0
C5 C 0.05475 0.42952 0.72933 0.0
C6 C 0.11472 0.40273 0.67254 0.0
C7 C 0.14948 0.39497 0.94297 0.0
C8 C 0.11612 0.41299 0.92448 0.0
C9 C 0.17366 0.38156 0.8719 0.0
C10 C 0.16338 0.38499 0.78229 0.0
Tb11 Tb 1.03869 0.45373 0.94835 0.0
N12 N 0.09298 0.42726 0.99237 0.0
C13 C 0.15729 0.3909 0.03224 0.0
C14 C 0.09906 0.42212 0.07816 0.0
C15 C 0.13167 0.40426 0.09979 0.0
H16 H 1.02374 0.43706 0.71324 0.0
H17 H 0.13692 0.40071 0.16837 0.0
H18 H 1.03378 0.57411 0.2634 0.0
H19 H 1.02676 0.60793 0.76865 0.0
H20 H 0.07887 0.4319 0.12994 0.0
H21 H 0.1826 0.37718 0.04931 0.0
H22 H 0.0743 0.58529 0.86861 0.0
H23 H 0.06456 0.41549 0.58423 0.0
H24 H 0.19987 0.36804 0.88504 0.0
H25 H 0.18164 0.37384 0.72748 0.0
H26 H 0.97237 0.59746 0.33564 0.0
H27 H 0.1315 0.39184 0.61466 0.0
H28 H 0.95634 0.62299 0.81372 0.0
N29 N 1.01214 0.5798 0.13063 0.0
C30 C 0.98394 0.59278 0.08073 0.0
C31 C 0.97503 0.59599 0.26356 0.0
C32 C 0.94837 0.60609 0.11834 0.0
C33 C 1.00968 0.58283 0.22276 0.0
C34 C 0.94375 0.6071 0.21052 0.0
N35 N 1.02856 0.58268 0.96317 0.0
C36 C 1.04251 0.58972 0.88659 0.0
C37 C 0.96459 0.6081 0.94017 0.0
C38 C 0.99194 0.59357 0.99301 0.0
C39 C 0.97642 0.61194 0.85644 0.0
C40 C 1.01608 0.6034 0.83066 0.0
H41 H 0.91688 0.61719 0.24214 0.0
H42 H 0.89155 0.6287 0.09073 0.0
H43 H 0.90585 0.63058 0.9346 0.0
O44 O 0.09927 0.61063 0.08083 0.0
O45 O 1.00102 0.5277 0.06323 0.0
O46 O 0.98493 0.48165 0.92492 0.0
O47 O 0.11165 0.58567 0.18512 0.0
O48 O 0.07781 0.53421 0.91275 0.0
O49 O 1.02271 0.48409 0.85523 0.0
O50 O 0.99391 0.42287 1.00119 0.0
O51 O 0.10963 0.48063 0.01562 0.0
O52 O 0.11978 0.53449 0.9923 0.0
O53 O 1.00516 0.40328 0.85848 0.0
O54 O 1.03291 0.47569 0.09747 0.0
O55 O 0.08385 0.5287 0.15201 0.0
C56 C 0.97146 0.50448 0.99276 0.0
C57 C 0.17249 0.62478 0.1662 0.0
C58 C 0.23442 0.66982 0.16274 0.0
C59 C 0.26406 0.64841 0.17749 0.0
C60 C 0.20267 0.60377 0.1807 0.0
C61 C 0.24817 0.6156 0.18623 0.0
C62 C 0.18858 0.65764 0.15716 0.0
C63 C 1.05004 0.50976 0.84207 0.0
C64 C 0.12418 0.6128 0.15892 0.0
C65 C 0.91947 0.61874 0.06374 0.0
C66 C 0.92755 0.61972 0.97471 0.0
C67 C 0.13598 0.50785 0.00505 0.0
C68 C 0.93313 0.38618 0.8864 0.0
C69 C 0.86351 0.34683 0.87976 0.0
C70 C 0.84056 0.36424 0.82819 0.0
C71 C 0.90992 0.4029 0.83337 0.0
C72 C 0.90988 0.35824 0.90919 0.0
C73 C 0.86377 0.39207 0.80499 0.0
C74 C 0.05865 0.50228 0.1668 0.0
C75 C 0.98137 0.39781 0.92003 0.0
H76 H 0.29957 0.65711 0.18321 0.0
H77 H 0.19121 0.57815 0.18726 0.0
H78 H 0.27121 0.59927 0.19728 0.0
H79 H 0.16511 0.67342 0.14398 0.0
H80 H 0.80486 0.35598 0.8046 0.0
H81 H 0.92744 0.42423 0.81395 0.0
H82 H 0.92794 0.34565 0.951 0.0
H83 H 0.84598 0.40519 0.76458 0.0
Tb84 Tb 0.49796 0.989 0.96303 0.0
C85 C 0.67405 0.95523 0.04475 0.0
N86 N 0.65911 0.981 0.10631 0.0
C87 C 0.68009 0.95913 0.23273 0.0
C88 C 0.69151 0.92964 0.07443 0.0
C89 C 0.66259 0.98373 0.19983 0.0
C90 C 0.6943 0.9318 0.16964 0.0
C91 C 0.68689 0.92836 0.88587 0.0
C92 C 0.67092 0.95435 0.95138 0.0
C93 C 0.70337 0.90225 0.91435 0.0
C94 C 0.70561 0.90286 0.00838 0.0
Tb95 Tb 0.62971 0.01904 0.04471 0.0
N96 N 0.65449 0.97997 0.92617 0.0
C97 C 0.68738 0.93015 0.79471 0.0
C98 C 0.65993 0.98397 0.84079 0.0
C99 C 0.67486 0.95858 0.77289 0.0
H100 H 0.65131 1.00466 0.24854 0.0
H101 H 0.67774 0.96145 0.70452 0.0
H102 H 0.47103 0.95105 0.73028 0.0
H103 H 0.4402 0.09249 0.2088 0.0
H104 H 0.65422 0.00712 0.82467 0.0
H105 H 0.69945 0.91076 0.74234 0.0
H106 H 0.48165 0.04508 0.16377 0.0
H107 H 0.68235 0.96112 0.30655 0.0
H108 H 0.71535 0.88191 0.86468 0.0
H109 H 0.71888 0.8828 0.02958 0.0
H110 H 0.42775 0.96164 0.59628 0.0
H111 H 0.70754 0.91263 0.1952 0.0
H112 H 0.39523 0.1074 0.08506 0.0
N113 N 0.4566 0.99427 0.83451 0.0
C114 C 0.43354 0.02049 0.85302 0.0
C115 C 0.42928 0.9785 0.66813 0.0
C116 C 0.40757 0.027 0.77928 0.0
C117 C 0.45423 0.97286 0.74386 0.0
C118 C 0.40601 0.00581 0.68584 0.0
N119 N 0.4615 0.03365 0.01545 0.0
C120 C 0.46251 0.05133 0.10887 0.0
C121 C 0.41127 0.06744 0.96919 0.0
C122 C 0.43548 0.04051 0.9466 0.0
C123 C 0.41342 0.08651 0.06468 0.0
C124 C 0.43886 0.07822 0.13476 0.0
H125 H 0.38653 0.01001 0.62709 0.0
H126 H 0.36374 0.05964 0.74555 0.0
H127 H 0.36685 0.09498 0.91184 0.0
O128 O 0.47244 0.95615 0.03671 0.0
O129 O 0.52553 0.04491 0.98219 0.0
O130 O 0.5934 0.06195 0.08482 0.0
O131 O 0.43721 0.95274 0.90081 0.0
O132 O 0.52369 0.99877 0.11401 0.0
O133 O 0.59506 0.03436 0.16396 0.0
O134 O 0.68183 0.05295 0.0173 0.0
O135 O 0.59206 0.96901 0.05197 0.0
O136 O 0.54072 0.95167 0.91816 0.0
O137 O 0.68472 0.04624 0.15293 0.0
O138 O 0.5991 0.02549 0.91252 0.0
O139 O 0.54065 0.97799 0.85664 0.0
C140 C 0.55974 0.06924 0.03731 0.0
C141 C 0.39474 0.93799 0.00888 0.0
C142 C 0.33908 0.90206 0.06144 0.0
C143 C 0.31709 0.93026 0.08601 0.0
C144 C 0.37231 0.96584 0.03269 0.0
C145 C 0.33359 0.9619 0.07114 0.0
C146 C 0.37795 0.90623 0.02291 0.0
C147 C 0.55794 0.01816 0.18076 0.0
C148 C 0.4366 0.94148 0.97283 0.0
C149 C 0.38383 0.05417 0.80123 0.0
C150 C 0.3856 0.07429 0.89596 0.0
C151 C 0.56516 0.9436 0.98227 0.0
C152 C 0.70831 0.104 0.15067 0.0
C153 C 0.72808 0.16303 0.14096 0.0
C154 C 0.71462 0.17705 0.22776 0.0
C155 C 0.69533 0.11853 0.23846 0.0
C156 C 0.72521 0.12662 0.10281 0.0
C157 C 0.69861 0.15485 0.27658 0.0
C158 C 0.56808 1.00349 0.84299 0.0
C159 C 0.70127 0.06541 0.1055 0.0
H160 H 0.28697 0.92767 0.11561 0.0
H161 H 0.38472 0.99052 0.02209 0.0
H162 H 0.31638 0.98346 0.08968 0.0
H163 H 0.39577 0.88493 0.00553 0.0
H164 H 0.7167 0.20516 0.25777 0.0
H165 H 0.68182 0.10189 0.27701 0.0
H166 H 0.73534 0.11589 0.03519 0.0
H167 H 0.68818 0.16574 0.34359 0.0
Tb168 Tb 0.53714 0.45066 0.95955 0.0
C169 C 0.66546 0.59704 0.15544 0.0
N170 N 0.62433 0.58583 0.17268 0.0
C171 C 0.65049 0.61324 0.33983 0.0
C172 C 0.70105 0.61617 0.23042 0.0
C173 C 0.61619 0.59435 0.26324 0.0
C174 C 0.69315 0.62405 0.32345 0.0
C175 C 0.71462 0.59892 0.0417 0.0
C176 C 0.67219 0.58852 0.062 0.0
C177 C 0.75008 0.61805 0.1163 0.0
C178 C 0.74332 0.62664 0.21033 0.0
Tb179 Tb 0.57146 0.55685 0.04059 0.0
N180 N 0.63756 0.56861 0.99148 0.0
C181 C 0.72024 0.58937 0.94704 0.0
C182 C 0.64239 0.56084 0.89897 0.0
C183 C 0.68386 0.57052 0.87539 0.0
H184 H 0.58306 0.5877 0.27685 0.0
H185 H 0.6876 0.56384 0.80185 0.0
H186 H 0.54329 0.41951 0.72931 0.0
H187 H 0.40638 0.42771 0.15431 0.0
H188 H 0.61435 0.54806 0.84308 0.0
H189 H 0.75234 0.59677 0.9285 0.0
H190 H 0.48185 0.45227 0.13558 0.0
H191 H 0.64387 0.61983 0.41146 0.0
H192 H 0.78296 0.62614 0.10206 0.0
H193 H 0.77107 0.6413 0.26708 0.0
H194 H 0.49187 0.38439 0.58077 0.0
H195 H 0.71961 0.63872 0.38301 0.0
H196 H 0.35021 0.39131 0.01285 0.0
N197 N 0.49367 0.4184 0.81593 0.0
C198 C 0.45121 0.40417 0.81952 0.0
C199 C 0.47988 0.3901 0.64734 0.0
C200 C 0.4211 0.38284 0.73654 0.0
C201 C 0.50874 0.41067 0.7317 0.0
C202 C 0.43578 0.37635 0.64962 0.0
N203 N 0.46769 0.43201 0.98543 0.0
C204 C 0.45735 0.43719 0.07365 0.0
C205 C 0.39484 0.39542 0.91438 0.0
C206 C 0.43815 0.41036 0.90723 0.0
C207 C 0.38321 0.40222 0.00434 0.0
C208 C 0.41475 0.42294 0.08435 0.0
H209 H 0.41364 0.36014 0.58421 0.0
H210 H 0.354 0.35192 0.68002 0.0
H211 H 0.33102 0.36295 0.83568 0.0
O212 O 0.55671 0.42346 0.0517 0.0
O213 O 0.48036 0.4786 0.96117 0.0
O214 O 0.50057 0.53899 0.04613 0.0
O215 O 0.54449 0.39821 0.9015 0.0
O216 O 0.56545 0.48355 0.10659 0.0
O217 O 0.54329 0.53652 0.14564 0.0
O218 O 0.56295 0.59149 0.96321 0.0
O219 O 0.62413 0.52578 0.05624 0.0
O220 O 0.60496 0.47091 0.93994 0.0
O221 O 0.56435 0.60837 0.11283 0.0
O222 O 0.53768 0.52626 0.89459 0.0
O223 O 0.56276 0.47444 0.8588 0.0
C224 C 0.47024 0.50958 1.0016 0.0
C225 C 0.58977 0.37407 0.99262 0.0
C226 C 0.61083 0.32027 0.01104 0.0
C227 C 0.65478 0.33414 0.00475 0.0
C228 C 0.63382 0.3871 0.98752 0.0
C229 C 0.66605 0.36717 0.99349 0.0
C230 C 0.57837 0.3407 0.00445 0.0
C231 C 0.5496 0.50793 0.16489 0.0
C232 C 0.55496 0.39436 0.98329 0.0
C233 C 0.37764 0.36829 0.74307 0.0
C234 C 0.36457 0.3745 0.83175 0.0
C235 C 0.63539 0.4979 0.9987 0.0
C236 C 0.52645 0.63811 0.02517 0.0
C237 C 0.50634 0.69213 0.00616 0.0
C238 C 0.4616 0.67742 0.00456 0.0
C239 C 0.48158 0.62421 0.02166 0.0
C240 C 0.53877 0.67207 0.01727 0.0
C241 C 0.44946 0.64385 0.01184 0.0
C242 C 0.54725 0.499 0.83305 0.0
C243 C 0.56065 0.61749 0.03705 0.0
H244 H 0.68056 0.31924 0.00698 0.0
H245 H 0.64315 0.41252 0.97821 0.0
H246 H 0.69999 0.37726 0.98865 0.0
H247 H 0.54431 0.3309 0.00924 0.0
H248 H 0.43573 0.69202 0.99883 0.0
H249 H 0.47146 0.59823 0.02682 0.0
H250 H 0.57344 0.68252 0.01852 0.0
H251 H 0.4149 0.63302 0.01017 0.0
H252 H 0.98065 0.48794 0.69365 0.0
H253 H 0.12155 0.53275 0.77117 0.0
H254 H 0.98293 0.48635 0.53073 0.0
H255 H 0.12436 0.53037 0.6081 0.0
H256 H 0.10561 0.55311 0.32949 0.0
H257 H 0.10251 0.55606 0.49213 0.0
H258 H 1.00945 0.45566 0.39259 0.0
H259 H 1.01121 0.45332 0.22947 0.0
C260 C 1.01211 0.49738 0.67552 0.0
C261 C 1.05094 0.51036 0.74465 0.0
C262 C 1.01354 0.49625 0.58214 0.0
C263 C 0.0539 0.50801 0.55582 0.0
C264 C 0.09259 0.5215 0.62581 0.0
C265 C 0.09106 0.52283 0.71926 0.0
C266 C 0.08447 0.53159 0.342 0.0
C267 C 0.05853 0.50302 0.266 0.0
C268 C 0.0829 0.53321 0.4356 0.0
C269 C 0.05567 0.50614 0.45587 0.0
C270 C 1.03021 0.4773 0.37982 0.0
C271 C 1.03153 0.4758 0.28609 0.0
H272 H 0.4937 0.98139 0.24634 0.0
H273 H 0.61784 0.05837 0.34208 0.0
H274 H 0.49458 0.97939 0.40668 0.0
H275 H 0.61916 0.05566 0.50171 0.0
H276 H 0.59007 0.06346 0.79802 0.0
H277 H 0.58481 0.06944 0.64047 0.0
H278 H 0.53567 0.95698 0.51406 0.0
H279 H 0.54093 0.95122 0.67152 0.0
C280 C 0.52104 0.99813 0.3015 0.0
C281 C 0.55585 0.01989 0.28054 0.0
C282 C 0.52174 0.99671 0.39354 0.0
C283 C 0.55719 0.01705 0.46736 0.0
C284 C 0.59114 0.03978 0.4471 0.0
C285 C 0.59046 0.0412 0.3551 0.0
C286 C 0.57823 0.04004 0.73641 0.0
C287 C 0.56535 0.00692 0.74715 0.0
C288 C 0.57525 0.04344 0.64604 0.0
C289 C 0.55952 0.01373 0.56409 0.0
C290 C 0.54701 0.98056 0.57527 0.0
C291 C 0.55004 0.97721 0.66559 0.0
H292 H 0.49075 0.52591 0.73412 0.0
H293 H 0.59923 0.47135 0.70744 0.0
H294 H 0.48872 0.52688 0.57254 0.0
H295 H 0.59949 0.47412 0.54849 0.0
H296 H 0.57056 0.45729 0.23756 0.0
H297 H 0.56643 0.45333 0.39334 0.0
H298 H 0.52146 0.55164 0.47232 0.0
H299 H 0.52184 0.55379 0.31262 0.0
C300 C 0.51428 0.51419 0.69355 0.0
C301 C 0.54481 0.49821 0.73316 0.0
C302 C 0.51351 0.51505 0.60091 0.0
C303 C 0.54399 0.50065 0.54594 0.0
C304 C 0.57463 0.48476 0.5865 0.0
C305 C 0.57469 0.48323 0.67825 0.0
C306 C 0.55951 0.47805 0.28765 0.0
C307 C 0.54721 0.5062 0.26205 0.0
C308 C 0.55761 0.47598 0.37826 0.0
C309 C 0.54422 0.50238 0.4475 0.0
C310 C 0.53155 0.53046 0.42158 0.0
C311 C 0.53248 0.53208 0.32991 0.0
H312 H 0.1874 0.46378 0.05304 0.0
H313 H 0.199 0.5561 0.9671 0.0
H314 H 0.26622 0.46385 0.04695 0.0
H315 H 0.27878 0.558 0.96943 0.0
H316 H 0.43216 0.56167 0.11083 0.0
H317 H 0.35292 0.5624 0.11154 0.0
H318 H 0.31698 0.4603 0.89596 0.0
H319 H 0.3956 0.46108 0.88845 0.0
C320 C 0.20628 0.48373 0.03121 0.0
C321 C 0.18551 0.50899 0.00707 0.0
C322 C 0.25196 0.48415 0.02928 0.0
C323 C 0.27923 0.51084 0.00719 0.0
C324 C 0.25906 0.53695 0.98653 0.0
C325 C 0.21302 0.53579 0.98524 0.0
C326 C 0.40756 0.53949 0.06249 0.0
C327 C 0.42126 0.51076 1.00126 0.0
C328 C 0.36189 0.53987 0.06336 0.0
C329 C 0.32819 0.51116 0.00484 0.0
C330 C 0.34175 0.48262 0.94334 0.0
C331 C 0.38723 0.48281 0.94019 0.0
H332 H 0.81449 0.1902 0.1486 0.0
H333 H 0.68142 0.18861 0.02252 0.0
H334 H 0.84469 0.2328 0.07512 0.0
H335 H 0.71122 0.23164 0.94882 0.0
H336 H 0.78517 0.34173 0.94749 0.0
H337 H 0.75 0.29455 1.001 0.0
H338 H 0.85273 0.23737 0.91923 0.0
H339 H 0.8879 0.28444 0.86633 0.0
C340 C 0.79189 0.19891 0.10427 0.0
C341 C 0.74588 0.1867 0.09123 0.0
C342 C 0.80901 0.2231 0.06197 0.0
C343 C 0.78031 0.23554 0.00608 0.0
C344 C 0.7341 0.22279 0.99218 0.0
C345 C 0.71704 0.19833 0.0341 0.0
C346 C 0.79978 0.31881 0.93963 0.0
C347 C 0.83959 0.31695 0.90392 0.0
C348 C 0.77962 0.2918 0.97009 0.0
C349 C 0.79889 0.26246 0.96516 0.0
C350 C 0.83763 0.25999 0.92569 0.0
C351 C 0.85775 0.28693 0.89545 0.0
H352 H 0.58912 0.92006 0.12972 0.0
H353 H 0.52592 0.88275 0.83614 0.0
H354 H 0.57776 0.85974 0.13194 0.0
H355 H 0.51527 0.82213 0.83708 0.0
H356 H 0.58121 0.74506 0.09428 0.0
H357 H 0.59776 0.80443 0.08418 0.0
H358 H 0.47358 0.78122 0.89049 0.0
H359 H 0.45852 0.72163 0.89608 0.0
C360 C 0.57335 0.89891 0.06505 0.0
C361 C 0.55864 0.90642 0.98264 0.0
C362 C 0.56689 0.86408 0.06616 0.0
C363 C 0.5455 0.83551 0.98472 0.0
C364 C 0.53116 0.84315 0.90195 0.0
C365 C 0.53745 0.87804 0.9011 0.0
C366 C 0.55778 0.75238 0.04821 0.0
C367 C 0.51826 0.72822 0.99674 0.0
C368 C 0.56698 0.78678 0.04339 0.0
C369 C 0.53696 0.79821 0.98698 0.0
C370 C 0.49796 0.77373 0.93406 0.0
C371 C 0.48892 0.73941 0.93848 0.0
H372 H 0.90141 0.48147 0.84098 0.0
H373 H 0.92888 0.52347 0.1454 0.0
H374 H 0.82218 0.47953 0.84196 0.0
H375 H 0.84995 0.52092 0.14784 0.0
H376 H 0.70847 0.53888 0.13391 0.0
H377 H 0.78711 0.54165 0.1297 0.0
H378 H 0.75376 0.45564 0.86434 0.0
H379 H 0.67486 0.45516 0.86559 0.0
C380 C 0.89055 0.49003 0.9085 0.0
C381 C 0.92217 0.50279 0.99307 0.0
C382 C 0.84461 0.48883 0.90935 0.0
C383 C 0.82812 0.5001 0.99505 0.0
C384 C 0.86014 0.51264 0.07963 0.0
C385 C 0.90601 0.51406 0.07852 0.0
C386 C 0.71772 0.52097 0.07353 0.0
C387 C 0.68447 0.49743 0.99906 0.0
C388 C 0.76348 0.52206 0.07178 0.0
C389 C 0.77837 0.49893 0.99648 0.0
C390 C 0.74485 0.47464 0.92306 0.0
C391 C 0.699 0.474 0.92421 0.0
H392 H 0.20544 0.73118 0.23147 0.0
H393 H 0.30088 0.68717 0.06931 0.0
H394 H 0.22933 0.78698 0.2057 0.0
H395 H 0.32679 0.74368 0.04882 0.0
H396 H 0.32794 0.83564 0.93719 0.0
H397 H 0.30304 0.77997 0.96358 0.0
H398 H 0.28888 0.83692 0.24827 0.0
H399 H 0.31267 0.8926 0.22036 0.0
C400 C 0.23162 0.73341 0.19051 0.0
C401 C 0.25096 0.70454 0.15183 0.0
C402 C 0.24577 0.76562 0.17687 0.0
C403 C 0.27991 0.76987 0.12491 0.0
C404 C 0.2999 0.74121 0.08787 0.0
C405 C 0.28548 0.7089 0.10085 0.0
C406 C 0.31945 0.83617 0.00533 0.0
C407 C 0.3222 0.86838 0.07675 0.0
C408 C 0.30544 0.8043 0.02074 0.0
C409 C 0.29422 0.8039 0.10832 0.0
C410 C 0.29666 0.83621 0.17954 0.0
C411 C 0.3103 0.86812 0.16372 0.0
H412 H 0.53381 0.26849 0.93623 0.0
H413 H 0.66212 0.29053 0.11448 0.0
H414 H 0.51766 0.20997 0.95071 0.0
H415 H 0.64726 0.23186 0.1251 0.0
H416 H 0.6051 0.12958 0.17837 0.0
H417 H 0.61376 0.19021 0.17964 0.0
H418 H 0.52994 0.15404 0.90305 0.0
H419 H 0.51974 0.09378 0.90512 0.0
C420 C 0.55864 0.26102 0.97879 0.0
C421 C 0.59955 0.28457 0.02323 0.0
C422 C 0.54966 0.22696 0.986 0.0
C423 C 0.58131 0.21512 0.03766 0.0
C424 C 0.62167 0.23923 0.08431 0.0
C425 C 0.63056 0.27318 0.07728 0.0
C426 C 0.58834 0.13469 0.11819 0.0
C427 C 0.56192 0.10667 0.04163 0.0
C428 C 0.59352 0.16965 0.11831 0.0
C429 C 0.57307 0.17781 0.04089 0.0
C430 C 0.54583 0.14957 0.96506 0.0
C431 C 0.54004 0.11468 0.96587 0.0
loop_
_geom_bond_atom_site_label_1
_geom_bond_atom_site_label_2
_geom_bond_distance
_geom_bond_site_symmetry_2
_ccdc_geom_bond_type
Tb0 N29 2.617 1_455 S
Tb0 N35 2.572 1_455 S
Tb0 O44 2.465 1_554 S
Tb0 O45 2.387 1_455 S
Tb0 O47 2.428 . S
Tb0 O48 2.306 1_454 S
Tb0 O52 2.349 . S
Tb0 O55 2.393 . S
Tb0 C64 2.802 . S
C1 N2 1.379 . S
C1 C4 1.416 . S
C1 C8 1.424 . S
N2 C1 1.379 . S
N2 C5 1.334 1_455 S
N2 Tb11 2.617 1_455 S
C3 C5 1.390 1_455 S
C3 C6 1.339 . S
C3 H23 0.930 . S
C4 C1 1.416 . S
C4 C6 1.416 . S
C4 C10 1.448 . S
C5 N2 1.334 1_655 S
C5 C3 1.390 1_655 S
C5 H16 0.930 . S
C6 C3 1.339 . S
C6 C4 1.416 . S
C6 H27 0.930 . S
C7 C8 1.413 . S
C7 C9 1.427 . S
C7 C13 1.416 1_556 S
C8 C1 1.424 . S
C8 C7 1.413 . S
C8 N12 1.361 . S
C9 C7 1.427 . S
C9 C10 1.328 . S
C9 H24 0.929 . S
C10 C4 1.448 . S
C10 C9 1.328 . S
C10 H25 0.930 . S
Tb11 N2 2.617 1_655 S
Tb11 N12 2.572 1_655 S
Tb11 O46 2.349 . S
Tb11 O49 2.393 . S
Tb11 O50 2.465 1_556 S
Tb11 O51 2.387 1_655 S
Tb11 O53 2.428 . S
Tb11 O54 2.308 1_656 S
Tb11 C75 2.802 . S
N12 C8 1.361 . S
N12 Tb11 2.572 1_455 S
N12 C14 1.340 1_556 S
C13 C7 1.416 1_554 S
C13 C15 1.332 . S
C13 H21 0.931 . S
C14 N12 1.340 1_554 S
C14 C15 1.407 . S
C14 H20 0.930 . S
C15 C13 1.332 . S
C15 C14 1.407 . S
C15 H17 0.929 . S
H16 C5 0.930 . S
H17 C15 0.929 . S
H18 C33 0.930 . S
H19 C40 0.929 . S
H20 C14 0.930 . S
H21 C13 0.931 . S
H22 C36 0.930 . S
H23 C3 0.930 . S
H24 C9 0.929 . S
H25 C10 0.930 . S
H26 C31 0.930 . S
H27 C6 0.930 . S
H28 C39 0.931 . S
N29 Tb0 2.617 1_655 S
N29 C30 1.379 . S
N29 C33 1.334 1_655 S
C30 N29 1.379 . S
C30 C32 1.416 . S
C30 C38 1.424 . S
C31 H26 0.930 . S
C31 C33 1.390 1_655 S
C31 C34 1.339 . S
C32 C30 1.416 . S
C32 C34 1.416 . S
C32 C65 1.448 . S
C33 H18 0.930 . S
C33 N29 1.334 1_455 S
C33 C31 1.390 1_455 S
C34 C31 1.339 . S
C34 C32 1.416 . S
C34 H41 0.930 . S
N35 Tb0 2.572 1_655 S
N35 C36 1.340 1_554 S
N35 C38 1.361 . S
C36 H22 0.930 . S
C36 N35 1.340 1_556 S
C36 C40 1.407 . S
C37 C38 1.413 . S
C37 C39 1.416 1_554 S
C37 C66 1.427 . S
C38 C30 1.424 . S
C38 N35 1.361 . S
C38 C37 1.413 . S
C39 H28 0.931 . S
C39 C37 1.416 1_556 S
C39 C40 1.332 . S
C40 H19 0.929 . S
C40 C36 1.407 . S
C40 C39 1.332 . S
H41 C34 0.930 . S
H42 C65 0.930 . S
H43 C66 0.929 . S
O44 Tb0 2.465 1_556 S
O44 C64 1.264 1_556 S
O45 Tb0 2.387 1_655 S
O45 C56 1.264 1_554 S
O46 Tb11 2.349 . S
O46 C56 1.243 . S
O47 Tb0 2.428 . S
O47 C64 1.256 . S
O48 Tb0 2.306 1_656 S
O48 C63 1.264 . S
O49 Tb11 2.393 . S
O49 C63 1.248 . S
O50 Tb11 2.465 1_554 S
O50 C75 1.264 1_554 S
O51 Tb11 2.387 1_455 S
O51 C67 1.264 1_556 S
O52 Tb0 2.349 . S
O52 C67 1.243 . S
O53 Tb11 2.428 . S
O53 C75 1.256 . S
O54 Tb11 2.308 1_454 S
O54 C74 1.266 . S
O55 Tb0 2.393 . S
O55 C74 1.248 . S
C56 O45 1.264 1_556 S
C56 O46 1.243 . S
C57 C60 1.399 . S
C57 C62 1.383 . S
C57 C64 1.496 . S
C58 C59 1.399 . S
C58 C62 1.389 . S
C59 C58 1.399 . S
C59 C61 1.380 . S
C59 H76 0.929 . S
C60 C57 1.399 . S
C60 C61 1.392 . S
C60 H77 0.929 . S
C61 C59 1.380 . S
C61 C60 1.392 . S
C61 H78 0.929 . S
C62 C57 1.383 . S
C62 C58 1.389 . S
C62 H79 0.931 1_554 S
C63 O48 1.264 . S
C63 O49 1.248 . S
C64 Tb0 2.802 . S
C64 O44 1.264 1_554 S
C64 O47 1.256 . S
C64 C57 1.496 . S
C65 C32 1.448 . S
C65 H42 0.930 . S
C65 C66 1.328 . S
C66 C37 1.427 . S
C66 H43 0.929 . S
C66 C65 1.328 . S
C67 O51 1.264 1_554 S
C67 O52 1.243 . S
C68 C71 1.399 . S
C68 C72 1.383 . S
C68 C75 1.496 . S
C69 C70 1.399 . S
C69 C72 1.389 . S
C70 C69 1.399 . S
C70 C73 1.380 . S
C70 H80 0.929 . S
C71 C68 1.399 . S
C71 C73 1.392 . S
C71 H81 0.929 . S
C72 C68 1.383 . S
C72 C69 1.389 . S
C72 H82 0.931 1_556 S
C73 C70 1.380 . S
C73 C71 1.392 . S
C73 H83 0.929 . S
C74 O54 1.266 . S
C74 O55 1.248 . S
C75 Tb11 2.802 . S
C75 O50 1.264 1_556 S
C75 O53 1.256 . S
C75 C68 1.496 . S
H76 C59 0.929 . S
H77 C60 0.929 . S
H78 C61 0.929 . S
H79 C62 0.931 1_556 S
H80 C70 0.929 . S
H81 C71 0.929 . S
H82 C72 0.931 1_554 S
H83 C73 0.929 . S
Tb84 N113 2.617 . S
Tb84 N119 2.572 1_566 S
Tb84 O128 2.465 1_556 S
Tb84 O129 2.387 1_565 S
Tb84 O131 2.428 . S
Tb84 O132 2.308 1_566 S
Tb84 O136 2.349 . S
Tb84 O139 2.393 . S
Tb84 C148 2.802 . S
C85 N86 1.379 1_565 S
C85 C88 1.416 . S
C85 C92 1.424 . S
N86 C85 1.379 1_545 S
N86 C89 1.334 . S
N86 Tb95 2.617 . S
C87 C89 1.390 . S
C87 C90 1.339 1_545 S
C87 H107 0.930 . S
C88 C85 1.416 . S
C88 C90 1.416 . S
C88 C94 1.448 . S
C89 N86 1.334 . S
C89 C87 1.390 . S
C89 H100 0.930 . S
C90 C87 1.339 1_565 S
C90 C88 1.416 . S
C90 H111 0.930 . S
C91 C92 1.413 1_556 S
C91 C93 1.427 1_556 S
C91 C97 1.416 . S
C92 C85 1.424 . S
C92 C91 1.413 1_554 S
C92 N96 1.361 1_554 S
C93 C91 1.427 1_554 S
C93 C94 1.328 . S
C93 H108 0.929 . S
C94 C88 1.448 . S
C94 C93 1.328 . S
C94 H109 0.930 . S
Tb95 N86 2.617 . S
Tb95 N96 2.572 1_544 S
Tb95 O130 2.349 . S
Tb95 O133 2.393 . S
Tb95 O134 2.465 1_554 S
Tb95 O135 2.387 1_545 S
Tb95 O137 2.428 . S
Tb95 O138 2.308 1_544 S
Tb95 C159 2.802 . S
N96 C92 1.361 1_556 S
N96 Tb95 2.572 1_566 S
N96 C98 1.340 . S
C97 C91 1.416 . S
C97 C99 1.332 . S
C97 H105 0.931 . S
C98 N96 1.340 . S
C98 C99 1.407 . S
C98 H104 0.930 . S
C99 C97 1.332 . S
C99 C98 1.407 . S
C99 H101 0.929 . S
H100 C89 0.930 . S
H101 C99 0.929 . S
H102 C117 0.930 . S
H103 C124 0.929 . S
H104 C98 0.930 . S
H105 C97 0.931 . S
H106 C120 0.930 . S
H107 C87 0.930 . S
H108 C93 0.929 . S
H109 C94 0.930 . S
H110 C115 0.930 . S
H111 C90 0.930 . S
H112 C123 0.931 . S
N113 Tb84 2.617 . S
N113 C114 1.379 1_565 S
N113 C117 1.334 . S
C114 N113 1.379 1_545 S
C114 C116 1.416 . S
C114 C122 1.424 . S
C115 H110 0.930 . S
C115 C117 1.390 . S
C115 C118 1.339 1_565 S
C116 C114 1.416 . S
C116 C118 1.416 . S
C116 C149 1.448 . S
C117 H102 0.930 . S
C117 N113 1.334 . S
C117 C115 1.390 . S
C118 C115 1.339 1_545 S
C118 C116 1.416 . S
C118 H125 0.930 . S
N119 Tb84 2.572 1_544 S
N119 C120 1.340 . S
N119 C122 1.361 1_554 S
C120 H106 0.930 . S
C120 N119 1.340 . S
C120 C124 1.407 . S
C121 C122 1.413 1_554 S
C121 C123 1.416 . S
C121 C150 1.427 1_554 S
C122 C114 1.424 . S
C122 N119 1.361 1_556 S
C122 C121 1.413 1_556 S
C123 H112 0.931 . S
C123 C121 1.416 . S
C123 C124 1.332 . S
C124 H103 0.929 . S
C124 C120 1.407 . S
C124 C123 1.332 . S
H125 C118 0.930 . S
H126 C149 0.930 . S
H127 C150 0.929 . S
O128 Tb84 2.465 1_554 S
O128 C148 1.264 1_554 S
O129 Tb84 2.387 1_545 S
O129 C140 1.264 1_556 S
O130 Tb95 2.349 . S
O130 C140 1.243 . S
O131 Tb84 2.428 . S
O131 C148 1.256 . S
O132 Tb84 2.308 1_544 S
O132 C147 1.266 . S
O133 Tb95 2.393 . S
O133 C147 1.248 . S
O134 Tb95 2.465 1_556 S
O134 C159 1.264 1_556 S
O135 Tb95 2.387 1_565 S
O135 C151 1.264 1_554 S
O136 Tb84 2.349 . S
O136 C151 1.243 . S
O137 Tb95 2.428 . S
O137 C159 1.256 . S
O138 Tb95 2.308 1_566 S
O138 C158 1.264 . S
O139 Tb84 2.393 . S
O139 C158 1.248 . S
C140 O129 1.264 1_554 S
C140 O130 1.243 . S
C141 C144 1.399 . S
C141 C146 1.383 1_556 S
C141 C148 1.496 . S
C142 C143 1.399 1_554 S
C142 C146 1.389 . S
C143 C142 1.399 1_556 S
C143 C145 1.380 . S
C143 H160 0.929 . S
C144 C141 1.399 . S
C144 C145 1.392 . S
C144 H161 0.929 . S
C145 C143 1.380 . S
C145 C144 1.392 . S
C145 H162 0.929 . S
C146 C141 1.383 1_554 S
C146 C142 1.389 . S
C146 H163 0.931 . S
C147 O132 1.266 . S
C147 O133 1.248 . S
C148 Tb84 2.802 . S
C148 O128 1.264 1_556 S
C148 O131 1.256 . S
C148 C141 1.496 . S
C149 C116 1.448 . S
C149 H126 0.930 . S
C149 C150 1.328 . S
C150 C121 1.427 1_556 S
C150 H127 0.929 . S
C150 C149 1.328 . S
C151 O135 1.264 1_556 S
C151 O136 1.243 . S
C152 C155 1.399 . S
C152 C156 1.383 1_554 S
C152 C159 1.496 . S
C153 C154 1.399 1_556 S
C153 C156 1.389 . S
C154 C153 1.399 1_554 S
C154 C157 1.380 . S
C154 H164 0.929 . S
C155 C152 1.399 . S
C155 C157 1.392 . S
C155 H165 0.929 . S
C156 C152 1.383 1_556 S
C156 C153 1.389 . S
C156 H166 0.931 . S
C157 C154 1.380 . S
C157 C155 1.392 . S
C157 H167 0.929 . S
C158 O138 1.264 . S
C158 O139 1.248 . S
C159 Tb95 2.802 . S
C159 O134 1.264 1_554 S
C159 O137 1.256 . S
C159 C152 1.496 . S
H160 C143 0.929 . S
H161 C144 0.929 . S
H162 C145 0.929 . S
H163 C146 0.931 . S
H164 C154 0.929 . S
H165 C155 0.929 . S
H166 C156 0.931 . S
H167 C157 0.929 . S
Tb168 N197 2.617 . S
Tb168 N203 2.572 . S
Tb168 O212 2.465 1_556 S
Tb168 O213 2.387 . S
Tb168 O215 2.428 . S
Tb168 O216 2.308 1_556 S
Tb168 O220 2.349 . S
Tb168 O223 2.393 . S
Tb168 C232 2.802 . S
C169 N170 1.379 . S
C169 C172 1.416 . S
C169 C176 1.424 . S
N170 C169 1.379 . S
N170 C173 1.334 . S
N170 Tb179 2.617 . S
C171 C173 1.390 . S
C171 C174 1.339 . S
C171 H191 0.930 . S
C172 C169 1.416 . S
C172 C174 1.416 . S
C172 C178 1.448 . S
C173 N170 1.334 . S
C173 C171 1.390 . S
C173 H184 0.930 . S
C174 C171 1.339 . S
C174 C172 1.416 . S
C174 H195 0.930 . S
C175 C176 1.413 . S
C175 C177 1.427 . S
C175 C181 1.415 1_554 S
C176 C169 1.424 . S
C176 C175 1.413 . S
C176 N180 1.361 . S
C177 C175 1.427 . S
C177 C178 1.328 . S
C177 H192 0.929 . S
C178 C172 1.448 . S
C178 C177 1.328 . S
C178 H193 0.930 . S
Tb179 N170 2.617 . S
Tb179 N180 2.572 . S
Tb179 O214 2.349 . S
Tb179 O217 2.393 . S
Tb179 O218 2.465 1_554 S
Tb179 O219 2.387 . S
Tb179 O221 2.428 . S
Tb179 O222 2.308 1_554 S
Tb179 C243 2.802 . S
N180 C176 1.361 . S
N180 Tb179 2.572 . S
N180 C182 1.340 1_554 S
C181 C175 1.415 1_556 S
C181 C183 1.333 . S
C181 H189 0.931 . S
C182 N180 1.340 1_556 S
C182 C183 1.407 . S
C182 H188 0.930 . S
C183 C181 1.333 . S
C183 C182 1.407 . S
C183 H185 0.929 . S
H184 C173 0.930 . S
H185 C183 0.929 . S
H186 C201 0.930 . S
H187 C208 0.929 . S
H188 C182 0.930 . S
H189 C181 0.931 . S
H190 C204 0.930 . S
H191 C171 0.930 . S
H192 C177 0.929 . S
H193 C178 0.930 . S
H194 C199 0.930 . S
H195 C174 0.930 . S
H196 C207 0.931 . S
N197 Tb168 2.617 . S
N197 C198 1.379 . S
N197 C201 1.334 . S
C198 N197 1.379 . S
C198 C200 1.416 . S
C198 C206 1.424 . S
C199 H194 0.930 . S
C199 C201 1.390 . S
C199 C202 1.339 . S
C200 C198 1.416 . S
C200 C202 1.416 . S
C200 C233 1.448 . S
C201 H186 0.930 . S
C201 N197 1.334 . S
C201 C199 1.390 . S
C202 C199 1.339 . S
C202 C200 1.416 . S
C202 H209 0.930 . S
N203 Tb168 2.572 . S
N203 C204 1.340 1_556 S
N203 C206 1.361 . S
C204 H190 0.930 . S
C204 N203 1.340 1_554 S
C204 C208 1.407 . S
C205 C206 1.413 . S
C205 C207 1.416 1_556 S
C205 C234 1.427 . S
C206 C198 1.424 . S
C206 N203 1.361 . S
C206 C205 1.413 . S
C207 H196 0.931 . S
C207 C205 1.416 1_554 S
C207 C208 1.332 . S
C208 H187 0.929 . S
C208 C204 1.407 . S
C208 C207 1.332 . S
H209 C202 0.930 . S
H210 C233 0.930 . S
H211 C234 0.929 . S
O212 Tb168 2.465 1_554 S
O212 C232 1.264 1_554 S
O213 Tb168 2.387 . S
O213 C224 1.264 . S
O214 Tb179 2.349 . S
O214 C224 1.243 1_554 S
O215 Tb168 2.428 . S
O215 C232 1.256 . S
O216 Tb168 2.308 1_554 S
O216 C231 1.266 . S
O217 Tb179 2.393 . S
O217 C231 1.248 . S
O218 Tb179 2.465 1_556 S
O218 C243 1.264 1_556 S
O219 Tb179 2.387 . S
O219 C235 1.264 . S
O220 Tb168 2.349 . S
O220 C235 1.243 1_556 S
O221 Tb179 2.428 . S
O221 C243 1.256 . S
O222 Tb179 2.308 1_556 S
O222 C242 1.266 . S
O223 Tb168 2.393 . S
O223 C242 1.248 . S
C224 O213 1.264 . S
C224 O214 1.243 1_556 S
C225 C228 1.399 . S
C225 C230 1.374 1_556 S
C225 C232 1.496 . S
C226 C227 1.399 . S
C226 C230 1.391 1_556 S
C227 C226 1.399 . S
C227 C229 1.380 . S
C227 H244 0.929 . S
C228 C225 1.399 . S
C228 C229 1.392 . S
C228 H245 0.929 . S
C229 C227 1.380 . S
C229 C228 1.392 . S
C229 H246 0.929 . S
C230 C225 1.374 1_554 S
C230 C226 1.391 1_554 S
C230 H247 0.938 . S
C231 O216 1.266 . S
C231 O217 1.248 . S
C232 Tb168 2.802 . S
C232 O212 1.264 1_556 S
C232 O215 1.256 . S
C232 C225 1.496 . S
C233 C200 1.448 . S
C233 H210 0.930 . S
C233 C234 1.328 . S
C234 C205 1.427 . S
C234 H211 0.929 . S
C234 C233 1.328 . S
C235 O219 1.264 . S
C235 O220 1.243 1_554 S
C236 C239 1.399 . S
C236 C240 1.389 . S
C236 C243 1.496 . S
C237 C238 1.399 . S
C237 C240 1.388 . S
C238 C237 1.399 . S
C238 C241 1.380 . S
C238 H248 0.929 . S
C239 C236 1.399 . S
C239 C241 1.392 . S
C239 H249 0.929 . S
C240 C236 1.389 . S
C240 C237 1.388 . S
C240 H250 0.926 1_554 S
C241 C238 1.380 . S
C241 C239 1.392 . S
C241 H251 0.929 . S
C242 O222 1.266 . S
C242 O223 1.248 . S
C243 Tb179 2.802 . S
C243 O218 1.264 1_554 S
C243 O221 1.256 . S
C243 C236 1.496 . S
H244 C227 0.929 . S
H245 C228 0.929 . S
H246 C229 0.929 . S
H247 C230 0.938 . S
H248 C238 0.929 . S
H249 C239 0.929 . S
H250 C240 0.926 1_556 S
H251 C241 0.929 . S
H252 C260 0.950 . S
H253 C265 0.950 . S
H254 C262 0.950 . S
H255 C264 0.950 . S
H256 C266 0.950 . S
H257 C268 0.950 . S
H258 C270 0.950 . S
H259 C271 0.950 . S
C260 H252 0.950 . S
C260 C261 1.402 . S
C260 C262 1.391 . S
C261 C260 1.402 . S
C261 C265 1.374 1_655 S
C262 H254 0.950 . S
C262 C260 1.391 . S
C262 C263 1.387 1_655 S
C263 C262 1.387 1_455 S
C263 C264 1.409 . S
C263 C269 1.493 . S
C264 H255 0.950 . S
C264 C263 1.409 . S
C264 C265 1.391 . S
C265 H253 0.950 . S
C265 C261 1.374 1_455 S
C265 C264 1.391 . S
C266 H256 0.950 . S
C266 C267 1.386 . S
C266 C268 1.391 . S
C267 C266 1.386 . S
C267 C271 1.393 1_455 S
C268 H257 0.950 . S
C268 C266 1.391 . S
C268 C269 1.400 . S
C269 C263 1.493 . S
C269 C268 1.400 . S
C269 C270 1.398 1_455 S
C270 H258 0.950 . S
C270 C269 1.398 1_655 S
C270 C271 1.391 . S
C271 H259 0.950 . S
C271 C267 1.393 1_655 S
C271 C270 1.391 . S
H272 C280 0.950 . S
H273 C285 0.950 . S
H274 C282 0.950 . S
H275 C284 0.950 . S
H276 C286 0.950 . S
H277 C288 0.950 . S
H278 C290 0.950 . S
H279 C291 0.950 . S
C280 H272 0.950 . S
C280 C281 1.386 1_565 S
C280 C282 1.391 . S
C281 C280 1.386 1_545 S
C281 C285 1.393 . S
C282 H274 0.950 . S
C282 C280 1.391 . S
C282 C283 1.400 1_565 S
C283 C282 1.400 1_545 S
C283 C284 1.398 . S
C283 C289 1.492 1_545 S
C284 H275 0.950 . S
C284 C283 1.398 . S
C284 C285 1.391 . S
C285 H273 0.950 . S
C285 C281 1.393 . S
C285 C284 1.391 . S
C286 H276 0.950 . S
C286 C287 1.386 1_545 S
C286 C288 1.391 . S
C287 C286 1.386 1_565 S
C287 C291 1.393 . S
C288 H277 0.950 . S
C288 C286 1.391 . S
C288 C289 1.402 1_545 S
C289 C283 1.492 1_565 S
C289 C288 1.402 1_565 S
C289 C290 1.395 . S
C290 H278 0.950 . S
C290 C289 1.395 . S
C290 C291 1.391 . S
C291 H279 0.950 . S
C291 C287 1.393 . S
C291 C290 1.391 . S
H292 C300 0.950 . S
H293 C305 0.950 . S
H294 C302 0.950 . S
H295 C304 0.950 . S
H296 C306 0.950 . S
H297 C308 0.950 . S
H298 C310 0.950 . S
H299 C311 0.950 . S
C300 H292 0.950 . S
C300 C301 1.386 . S
C300 C302 1.391 . S
C301 C300 1.386 . S
C301 C305 1.393 . S
C302 H294 0.950 . S
C302 C300 1.391 . S
C302 C303 1.400 . S
C303 C302 1.400 . S
C303 C304 1.398 . S
C303 C309 1.491 . S
C304 H295 0.950 . S
C304 C303 1.398 . S
C304 C305 1.391 . S
C305 H293 0.950 . S
C305 C301 1.393 . S
C305 C304 1.391 . S
C306 H296 0.950 . S
C306 C307 1.386 . S
C306 C308 1.391 . S
C307 C306 1.386 . S
C307 C311 1.393 . S
C308 H297 0.950 . S
C308 C306 1.391 . S
C308 C309 1.400 . S
C309 C303 1.491 . S
C309 C308 1.400 . S
C309 C310 1.398 . S
C310 H298 0.950 . S
C310 C309 1.398 . S
C310 C311 1.391 . S
C311 H299 0.950 . S
C311 C307 1.393 . S
C311 C310 1.391 . S
H312 C320 0.950 . S
H313 C325 0.950 . S
H314 C322 0.950 . S
H315 C324 0.950 . S
H316 C326 0.950 . S
H317 C328 0.950 . S
H318 C330 0.950 . S
H319 C331 0.950 . S
C320 H312 0.950 . S
C320 C321 1.386 1_556 S
C320 C322 1.391 . S
C321 C320 1.386 1_554 S
C321 C325 1.393 . S
C322 H314 0.950 . S
C322 C320 1.391 . S
C322 C323 1.400 1_556 S
C323 C322 1.400 1_554 S
C323 C324 1.398 . S
C323 C329 1.491 . S
C324 H315 0.950 . S
C324 C323 1.398 . S
C324 C325 1.391 . S
C325 H313 0.950 . S
C325 C321 1.393 . S
C325 C324 1.391 . S
C326 H316 0.950 . S
C326 C327 1.386 1_554 S
C326 C328 1.391 . S
C327 C326 1.386 1_556 S
C327 C331 1.393 . S
C328 H317 0.950 . S
C328 C326 1.391 . S
C328 C329 1.400 . S
C329 C323 1.491 . S
C329 C328 1.400 . S
C329 C330 1.398 1_554 S
C330 H318 0.950 . S
C330 C329 1.398 1_556 S
C330 C331 1.391 . S
C331 H319 0.950 . S
C331 C327 1.393 . S
C331 C330 1.391 . S
H332 C340 0.950 . S
H333 C345 0.950 . S
H334 C342 0.950 . S
H335 C344 0.950 1_554 S
H336 C346 0.950 . S
H337 C348 0.950 . S
H338 C350 0.950 . S
H339 C351 0.949 1_556 S
C340 H332 0.950 . S
C340 C341 1.386 . S
C340 C342 1.391 . S
C341 C340 1.386 . S
C341 C345 1.393 . S
C342 H334 0.950 . S
C342 C340 1.391 . S
C342 C343 1.400 . S
C343 C342 1.400 . S
C343 C344 1.398 . S
C343 C349 1.491 . S
C344 H335 0.950 1_556 S
C344 C343 1.398 . S
C344 C345 1.391 . S
C345 H333 0.950 . S
C345 C341 1.393 . S
C345 C344 1.391 . S
C346 H336 0.950 . S
C346 C347 1.386 . S
C346 C348 1.391 . S
C347 C346 1.386 . S
C347 C351 1.393 . S
C348 H337 0.950 . S
C348 C346 1.391 . S
C348 C349 1.400 1_554 S
C349 C343 1.491 . S
C349 C348 1.400 1_556 S
C349 C350 1.398 . S
C350 H338 0.950 . S
C350 C349 1.398 . S
C350 C351 1.391 1_556 S
C351 H339 0.949 1_554 S
C351 C347 1.393 . S
C351 C350 1.391 1_554 S
H352 C360 0.950 . S
H353 C365 0.950 . S
H354 C362 0.950 . S
H355 C364 0.950 . S
H356 C366 0.950 . S
H357 C368 0.950 . S
H358 C370 0.950 . S
H359 C371 0.950 . S
C360 H352 0.950 . S
C360 C361 1.386 1_554 S
C360 C362 1.391 . S
C361 C360 1.386 1_556 S
C361 C365 1.393 . S
C362 H354 0.950 . S
C362 C360 1.391 . S
C362 C363 1.400 1_554 S
C363 C362 1.400 1_556 S
C363 C364 1.398 . S
C363 C369 1.491 . S
C364 H355 0.950 . S
C364 C363 1.398 . S
C364 C365 1.391 . S
C365 H353 0.950 . S
C365 C361 1.393 . S
C365 C364 1.391 . S
C366 H356 0.950 . S
C366 C367 1.386 . S
C366 C368 1.391 . S
C367 C366 1.386 . S
C367 C371 1.393 1_556 S
C368 H357 0.950 . S
C368 C366 1.391 . S
C368 C369 1.400 . S
C369 C363 1.491 . S
C369 C368 1.400 . S
C369 C370 1.398 1_556 S
C370 H358 0.950 . S
C370 C369 1.398 1_554 S
C370 C371 1.391 . S
C371 H359 0.950 . S
C371 C367 1.393 1_554 S
C371 C370 1.391 . S
H372 C380 0.950 . S
H373 C385 0.950 . S
H374 C382 0.950 . S
H375 C384 0.950 . S
H376 C386 0.950 . S
H377 C388 0.950 . S
H378 C390 0.950 . S
H379 C391 0.950 . S
C380 H372 0.950 . S
C380 C381 1.386 . S
C380 C382 1.391 . S
C381 C380 1.386 . S
C381 C385 1.393 1_556 S
C382 H374 0.950 . S
C382 C380 1.391 . S
C382 C383 1.400 . S
C383 C382 1.400 . S
C383 C384 1.398 1_556 S
C383 C389 1.491 . S
C384 H375 0.950 . S
C384 C383 1.398 1_554 S
C384 C385 1.391 . S
C385 H373 0.950 . S
C385 C381 1.393 1_554 S
C385 C384 1.391 . S
C386 H376 0.950 . S
C386 C387 1.386 . S
C386 C388 1.391 . S
C387 C386 1.386 . S
C387 C391 1.393 1_554 S
C388 H377 0.950 . S
C388 C386 1.391 . S
C388 C389 1.400 1_554 S
C389 C383 1.491 . S
C389 C388 1.400 1_556 S
C389 C390 1.398 . S
C390 H378 0.950 . S
C390 C389 1.398 . S
C390 C391 1.391 . S
C391 H379 0.950 . S
C391 C387 1.393 1_556 S
C391 C390 1.391 . S
H392 C400 0.950 . S
H393 C405 0.950 . S
H394 C402 0.950 . S
H395 C404 0.950 . S
H396 C406 0.950 1_556 S
H397 C408 0.950 . S
H398 C410 0.950 . S
H399 C411 0.950 . S
C400 H392 0.950 . S
C400 C401 1.386 1_554 S
C400 C402 1.391 . S
C401 C400 1.386 1_556 S
C401 C405 1.393 . S
C402 H394 0.950 . S
C402 C400 1.391 . S
C402 C403 1.400 . S
C403 C402 1.400 . S
C403 C404 1.398 1_554 S
C403 C409 1.491 . S
C404 H395 0.950 . S
C404 C403 1.398 1_556 S
C404 C405 1.391 . S
C405 H393 0.950 . S
C405 C401 1.393 . S
C405 C404 1.391 . S
C406 H396 0.950 1_554 S
C406 C407 1.386 . S
C406 C408 1.391 1_554 S
C407 C406 1.386 . S
C407 C411 1.393 . S
C408 H397 0.950 . S
C408 C406 1.391 1_556 S
C408 C409 1.400 1_556 S
C409 C403 1.491 . S
C409 C408 1.400 1_554 S
C409 C410 1.398 . S
C410 H398 0.950 . S
C410 C409 1.398 . S
C410 C411 1.391 . S
C411 H399 0.950 . S
C411 C407 1.393 . S
C411 C410 1.391 . S
H412 C420 0.950 . S
H413 C425 0.950 . S
H414 C422 0.950 . S
H415 C424 0.950 . S
H416 C426 0.950 . S
H417 C428 0.950 . S
H418 C430 0.950 . S
H419 C431 0.950 . S
C420 H412 0.950 . S
C420 C421 1.386 . S
C420 C422 1.391 . S
C421 C420 1.386 . S
C421 C425 1.393 . S
C422 H414 0.950 . S
C422 C420 1.391 . S
C422 C423 1.400 . S
C423 C422 1.400 . S
C423 C424 1.398 . S
C423 C429 1.491 . S
C424 H415 0.950 . S
C424 C423 1.398 . S
C424 C425 1.391 . S
C425 H413 0.950 . S
C425 C421 1.393 . S
C425 C424 1.391 . S
C426 H416 0.950 . S
C426 C427 1.386 . S
C426 C428 1.391 . S
C427 C426 1.386 . S
C427 C431 1.393 . S
C428 H417 0.950 . S
C428 C426 1.391 . S
C428 C429 1.400 . S
C429 C423 1.491 . S
C429 C428 1.400 . S
C429 C430 1.398 . S
C430 H418 0.950 . S
C430 C429 1.398 . S
C430 C431 1.391 . S
C431 H419 0.950 . S
C431 C427 1.393 . S
C431 C430 1.391 . S
C261 C63 1.496 . S
C267 C74 1.490 . S
C281 C147 1.515 . S
C287 C158 1.515 . S
C301 C242 1.483 . S
C307 C231 1.483 . S
C321 C67 2.297 . S
C327 C224 2.316 . S
C341 C153 0.819 . S
C347 C69 0.818 1_554 S
C361 C151 1.609 . S
C367 C237 1.471 1_556 S
C381 C56 2.298 . S
C387 C235 2.318 . S
C401 C58 0.749 1_556 S
C407 C142 0.745 . S
C421 C226 1.466 1_554 S
C427 C140 1.622 . S
