# Generated by pormake.
# Topology umf, (4)-cn, num edge types: 1
# Building blocks:
#     Node 0, Type 0, BuildingBlock: QUQFOY_clean_sbu_3, # of connection points: 4
#     Node 1, Type 0, BuildingBlock: QUQFOY_clean_sbu_3, # of connection points: 4
#     Node 2, Type 0, BuildingBlock: QUQFOY_clean_sbu_3, # of connection points: 4
#     Node 3, Type 0, BuildingBlock: QUQFOY_clean_sbu_3, # of connection points: 4
#     Node 4, Type 0, BuildingBlock: QUQFOY_clean_sbu_3, # of connection points: 4
#     Node 5, Type 0, BuildingBlock: QUQFOY_clean_sbu_3, # of connection points: 4
#     Node 6, Type 0, BuildingBlock: QUQFOY_clean_sbu_3, # of connection points: 4
#     Node 7, Type 0, BuildingBlock: QUQFOY_clean_sbu_3, # of connection points: 4
#     Edge 8, Type (0, 0), BuildingBlock: OJICUG_clean_linker_0, # of connection points: 2
#     Edge 9, Type (0, 0), BuildingBlock: OJICUG_clean_linker_0, # of connection points: 2
#     Edge 10, Type (0, 0), BuildingBlock: OJICUG_clean_linker_0, # of connection points: 2
#     Edge 11, Type (0, 0), BuildingBlock: OJICUG_clean_linker_0, # of connection points: 2
#     Edge 12, Type (0, 0), BuildingBlock: OJICUG_clean_linker_0, # of connection points: 2
#     Edge 13, Type (0, 0), BuildingBlock: OJICUG_clean_linker_0, # of connection points: 2
#     Edge 14, Type (0, 0), BuildingBlock: OJICUG_clean_linker_0, # of connection points: 2
#     Edge 15, Type (0, 0), BuildingBlock: OJICUG_clean_linker_0, # of connection points: 2
#     Edge 16, Type (0, 0), BuildingBlock: OJICUG_clean_linker_0, # of connection points: 2
#     Edge 17, Type (0, 0), BuildingBlock: OJICUG_clean_linker_0, # of connection points: 2
#     Edge 18, Type (0, 0), BuildingBlock: OJICUG_clean_linker_0, # of connection points: 2
#     Edge 19, Type (0, 0), BuildingBlock: OJICUG_clean_linker_0, # of connection points: 2
#     Edge 20, Type (0, 0), BuildingBlock: OJICUG_clean_linker_0, # of connection points: 2
#     Edge 21, Type (0, 0), BuildingBlock: OJICUG_clean_linker_0, # of connection points: 2
#     Edge 22, Type (0, 0), BuildingBlock: OJICUG_clean_linker_0, # of connection points: 2
#     Edge 23, Type (0, 0), BuildingBlock: OJICUG_clean_linker_0, # of connection points: 2
# Relax obj value: 0.167
# Max RMSD: 0.288
# Mean RMSD: 0.288
data_MOF--net-umf--node1-QUQFOY_clean_sbu_3--edge1-OJICUG_clean_linker_0
_symmetry_space_group_name_H-M    P1
_symmetry_Int_Tables_number       1
_symmetry_cell_setting            triclinic
loop_
_symmetry_equiv_pos_as_xyz
'x, y, z'
_cell_length_a     21.789738
_cell_length_b     21.790728
_cell_length_c     37.814845
_cell_angle_alpha  90.184073
_cell_angle_beta   89.707072
_cell_angle_gamma 88.570211
loop_
_atom_site_label
_atom_site_type_symbol
_atom_site_fract_x
_atom_site_fract_y
_atom_site_fract_z
_atom_type_partial_charge
C0 C 0.24494 0.22005 0.1862 0.0
O1 O 0.24899 0.24882 0.15742 0.0
Cd2 Cd 0.19959 0.16707 0.12274 0.0
O3 O 0.20728 0.17694 0.18738 0.0
Cd4 Cd 0.11988 0.20336 0.14764 0.0
C5 C 0.11816 0.06776 0.17223 0.0
O6 O 0.1237 0.19905 0.08086 0.0
O7 O 0.03987 0.17442 0.10881 0.0
O8 O 0.1356 0.31153 0.15356 0.0
C9 C 0.06702 0.18531 0.07981 0.0
O10 O 0.1658 0.07164 0.15272 0.0
C11 C 0.08677 0.32271 0.17112 0.0
O12 O 0.08528 0.11558 0.17812 0.0
O13 O 0.05236 0.27779 0.17774 0.0
C14 C 0.67915 0.17715 0.71261 0.0
O15 O 0.70036 0.211 0.68852 0.0
Cd16 Cd 0.74414 0.14956 0.64037 0.0
O17 O 0.67309 0.12052 0.7065 0.0
Cd18 Cd 0.67566 0.05105 0.65656 0.0
C19 C 0.8194 0.02854 0.6788 0.0
O20 O 0.68148 0.09817 0.59659 0.0
O21 O 0.70909 0.00216 0.60394 0.0
O22 O 0.56722 0.06443 0.66089 0.0
C23 C 0.69633 0.04594 0.583 0.0
O24 O 0.82357 0.08091 0.66429 0.0
C25 C 0.55654 0.00863 0.66734 0.0
O26 O 0.76747 0.00354 0.68167 0.0
O27 O 0.60235 0.97124 0.6688 0.0
C28 C 0.8326 0.73966 0.19298 0.0
O29 O 0.81348 0.76197 0.164 0.0
Cd30 Cd 0.88956 0.78041 0.11933 0.0
O31 O 0.88713 0.71786 0.19509 0.0
Cd32 Cd -0.02281 0.69282 0.15755 0.0
C33 C 0.00628 0.83806 0.17099 0.0
O34 O 0.94171 0.69065 0.09583 0.0
O35 O 0.03851 0.70491 0.1049 0.0
O36 O 0.95906 0.58701 0.17088 0.0
C37 C -0.00438 0.69593 0.08312 0.0
O38 O 0.96142 0.84583 0.14988 0.0
C39 C 0.01338 0.57445 0.18092 0.0
O40 O 0.02478 0.78458 0.18003 0.0
O41 O 0.05097 0.61818 0.18145 0.0
C42 C 0.19205 0.74398 0.66353 0.0
O43 O 0.16269 0.72472 0.63707 0.0
Cd44 Cd 0.11943 0.80973 0.60252 0.0
O45 O 0.20079 0.80081 0.6668 0.0
Cd46 Cd 0.19038 0.89739 0.63714 0.0
C47 C 0.04608 0.90159 0.66344 0.0
O48 O 0.18503 0.88294 0.57197 0.0
O49 O 0.15788 0.97109 0.59551 0.0
O50 O 0.29883 0.8856 0.63988 0.0
C51 C 0.17102 0.93991 0.56802 0.0
O52 O 0.04142 0.86136 0.63918 0.0
C53 C 0.30784 0.93471 0.65689 0.0
O54 O 0.09808 0.92347 0.67083 0.0
O55 O 0.26107 0.96842 0.66469 0.0
C56 C 0.1752 0.68045 0.80305 0.0
O57 O 0.20879 0.70183 0.82715 0.0
Cd58 Cd 0.14721 0.7447 0.87548 0.0
O59 O 0.11863 0.67377 0.80916 0.0
Cd60 Cd 0.0487 0.67549 0.85899 0.0
C61 C 0.02571 0.81945 0.8371 0.0
O62 O 0.09615 0.68069 0.91881 0.0
O63 O -1e-05 0.70806 0.91192 0.0
O64 O 0.06216 0.56708 0.85426 0.0
C65 C 0.044 0.6952 0.93265 0.0
O66 O 0.07801 0.82375 0.85163 0.0
C67 C 0.00634 0.55644 0.8479 0.0
O68 O 0.00093 0.76745 0.83414 0.0
O69 O 0.96893 0.60226 0.84665 0.0
C70 C 0.22303 0.24333 0.32704 0.0
O71 O 0.25169 0.24799 0.35579 0.0
Cd72 Cd 0.16981 0.19933 0.3909 0.0
O73 O 0.17989 0.20567 0.32618 0.0
Cd74 Cd 0.20608 0.11923 0.36666 0.0
C75 C 0.07064 0.11707 0.34201 0.0
O76 O 0.20119 0.12415 0.43342 0.0
O77 O 0.1767 0.03994 0.40592 0.0
O78 O 0.3143 0.13486 0.36082 0.0
C79 C 0.18735 0.06751 0.43478 0.0
O80 O 0.07446 0.16507 0.36117 0.0
C81 C 0.32564 0.08568 0.34366 0.0
O82 O 0.11849 0.08409 0.33635 0.0
O83 O 0.28077 0.05115 0.33721 0.0
C84 C 0.74141 0.19291 0.85212 0.0
O85 O 0.72206 0.16349 0.87858 0.0
Cd86 Cd 0.80706 0.11979 0.91296 0.0
O87 O 0.79829 0.20137 0.84877 0.0
Cd88 Cd 0.89483 0.19033 0.87826 0.0
C89 C 0.89852 0.04608 0.85203 0.0
O90 O 0.88079 0.18469 0.94349 0.0
O91 O 0.96866 0.15735 0.91958 0.0
O92 O 0.88335 0.29879 0.87565 0.0
C93 C 0.93776 0.17045 0.9472 0.0
O94 O 0.85832 0.04151 0.87637 0.0
C95 C 0.93235 0.30777 0.85846 0.0
O96 O 0.92047 0.09803 0.84454 0.0
O97 O 0.96591 0.26098 0.85052 0.0
C98 C 0.7425 0.83114 0.32388 0.0
O99 O 0.76503 0.81248 0.35289 0.0
Cd100 Cd 0.7834 0.88929 0.39707 0.0
O101 O 0.72063 0.88562 0.32151 0.0
Cd102 Cd 0.69577 0.97635 0.35844 0.0
C103 C 0.84102 0.00512 0.34455 0.0
O104 O 0.69354 0.9417 0.42034 0.0
O105 O 0.70763 0.03841 0.41076 0.0
O106 O 0.59 0.95803 0.34524 0.0
C107 C 0.69867 -0.00422 0.43276 0.0
O108 O 0.84883 0.96061 0.36594 0.0
C109 C 0.57748 0.01217 0.33484 0.0
O110 O 0.78753 0.0235 0.33551 0.0
O111 O 0.62121 0.04975 0.33409 0.0
C112 C 0.0076 0.40252 0.18737 0.0
C113 C 0.0693 0.38607 0.18098 0.0
H114 H 0.94131 0.4761 0.19259 0.0
C115 C 0.11357 0.43184 0.1805 0.0
H116 H 0.97267 0.36802 0.18808 0.0
C117 C 0.09582 0.49354 0.18361 0.0
C118 C 0.03344 0.51033 0.18668 0.0
H119 H 0.16163 0.42017 0.1761 0.0
H120 H 0.13049 0.52806 0.18113 0.0
C121 C -0.01029 0.46431 0.18993 0.0
C122 C 0.3839 0.01396 0.67209 0.0
C123 C 0.37067 0.95253 0.66512 0.0
H124 H 0.45398 0.07997 0.67826 0.0
C125 C 0.41885 0.90851 0.66305 0.0
H126 H 0.34753 0.04865 0.67392 0.0
C127 C 0.47961 0.9262 0.66586 0.0
C128 C 0.49303 -0.01173 0.67032 0.0
H129 H 0.4097 0.86061 0.6581 0.0
H130 H 0.51598 0.89177 0.66274 0.0
C131 C 0.44474 0.03179 0.67444 0.0
C132 C 0.01161 0.38383 0.84308 0.0
C133 C 0.95019 0.3706 0.85016 0.0
H134 H 0.07764 0.45391 0.83679 0.0
C135 C 0.90619 0.41879 0.85229 0.0
H136 H 0.04629 0.34745 0.8412 0.0
C137 C 0.92389 0.47955 0.84944 0.0
C138 C -0.01404 0.49296 0.84489 0.0
H139 H 0.85829 0.40964 0.85733 0.0
H140 H 0.88947 0.51592 0.85262 0.0
C141 C 0.02945 0.44468 0.84068 0.0
C142 C 0.4056 0.0062 0.3282 0.0
C143 C 0.38909 0.06803 0.33405 0.0
H144 H 0.47924 0.93983 0.32364 0.0
C145 C 0.43484 0.11231 0.33425 0.0
H146 H 0.37112 0.97125 0.32772 0.0
C147 C 0.49657 0.09451 0.3314 0.0
C148 C 0.5134 0.03208 0.32887 0.0
H149 H 0.42312 0.16046 0.33823 0.0
H150 H 0.53106 0.12925 0.33365 0.0
C151 C 0.46742 -0.01172 0.32589 0.0
C152 C 0.03424 0.17565 0.98204 0.0
C153 C 0.96967 0.17452 0.98148 0.0
H154 H 0.1154 0.18068 0.01337 0.0
C155 C 0.93716 0.17766 0.01357 0.0
H156 H 0.06075 0.17367 0.95773 0.0
C157 C 0.96883 0.18103 0.04563 0.0
C158 C 0.03344 0.18233 0.04604 0.0
H159 H 0.88748 0.1769 0.01393 0.0
H160 H 0.94269 0.18297 0.07006 0.0
C161 C 0.06571 0.17995 0.01392 0.0
C162 C 0.69908 0.97322 0.53185 0.0
C163 C 0.69561 0.03411 0.54446 0.0
H164 H 0.70211 0.91338 0.48684 0.0
C165 C 0.69188 0.08232 0.52001 0.0
H166 H 0.7017 0.9349 0.54999 0.0
C167 C 0.69263 0.0698 0.48366 0.0
C168 C 0.69636 0.00884 0.47115 0.0
H169 H 0.68915 0.1296 0.52892 0.0
H170 H 0.6903 0.10792 0.46537 0.0
C171 C 0.6991 0.96073 0.49563 0.0
C172 C 0.069 0.69048 0.03184 0.0
C173 C 0.00818 0.69394 0.04467 0.0
H174 H 0.12828 0.68762 0.9863 0.0
C175 C 0.95977 0.69681 0.02043 0.0
H176 H 0.10735 0.68806 0.04994 0.0
C177 C 0.97184 0.6972 0.98415 0.0
C178 C 0.03259 0.69401 0.97124 0.0
H179 H 0.91252 0.69963 0.02946 0.0
H180 H 0.9333 0.69992 0.9662 0.0
C181 C 0.08109 0.69013 0.99544 0.0
C182 C 0.18256 0.96981 0.46947 0.0
C183 C 0.18399 0.0344 0.46873 0.0
H184 H 0.17796 0.88887 0.50156 0.0
C185 C 0.18134 0.06707 0.50069 0.0
H186 H 0.18469 0.94336 0.44518 0.0
C187 C 0.17665 0.036 0.53272 0.0
C188 C 0.1754 0.97144 0.5336 0.0
H189 H 0.18215 0.11676 0.50097 0.0
H190 H 0.17448 0.06279 0.55689 0.0
C191 C 0.1788 0.93855 0.50168 0.0
C192 C 0.3016 0.21356 0.24242 0.0
C193 C 0.26288 0.24733 0.21989 0.0
H194 H 0.32186 0.18994 0.29594 0.0
C195 C 0.22452 0.29408 0.23407 0.0
H196 H 0.33074 0.17665 0.23204 0.0
C197 C 0.2173 0.29977 0.27066 0.0
C198 C 0.25042 0.26051 0.2932 0.0
H199 H 0.19378 0.32019 0.21713 0.0
H200 H 0.18104 0.32972 0.28106 0.0
C201 C 0.29629 0.22112 0.279 0.0
C202 C 0.659 0.16508 0.81038 0.0
C203 C 0.70256 0.20723 0.82133 0.0
H204 H 0.61596 0.12327 0.76608 0.0
C205 C 0.72214 0.25208 0.79732 0.0
H206 H 0.64279 0.13036 0.82836 0.0
C207 C 0.70726 0.24785 0.76154 0.0
C208 C 0.67268 0.19865 0.74955 0.0
H209 H 0.75506 0.28584 0.80536 0.0
H210 H 0.72902 0.27836 0.743 0.0
C211 C 0.64416 0.16078 0.77457 0.0
C212 C 0.72543 0.81491 0.25924 0.0
C213 C 0.75167 0.79453 0.29116 0.0
H214 H 0.72968 0.81239 0.20275 0.0
C215 C 0.79516 0.74585 0.29021 0.0
H216 H 0.69109 0.85173 0.25911 0.0
C217 C 0.81752 0.72348 0.25783 0.0
C218 C 0.79645 0.74907 0.22588 0.0
H219 H 0.81584 0.72861 0.31432 0.0
H220 H 0.8546 0.68941 0.25795 0.0
C221 C 0.74746 0.79221 0.22687 0.0
C222 C 0.25057 0.72455 0.71851 0.0
C223 C 0.20597 0.70507 0.69438 0.0
H224 H 0.27644 0.73096 0.77287 0.0
C225 C 0.16379 0.66137 0.70519 0.0
H226 H 0.28435 0.75757 0.71058 0.0
C227 C 0.15922 0.6462 0.74096 0.0
C228 C 0.19688 0.67452 0.7661 0.0
H229 H 0.12926 0.64522 0.68711 0.0
H230 H 0.12172 0.61783 0.74933 0.0
C231 C 0.24609 0.70933 0.75424 0.0
C232 C 0.13037 0.95329 0.17556 0.0
C233 C 0.09522 0.00709 0.18241 0.0
H234 H 0.12918 0.85577 0.16753 0.0
C235 C 0.03369 0.00203 0.19315 0.0
H236 H 0.17804 0.95576 0.16755 0.0
C237 C 0.00578 0.94523 0.19248 0.0
C238 C 0.03937 0.89248 0.18212 0.0
H239 H 0.00544 0.04245 0.19898 0.0
H240 H 0.95692 0.94314 0.19771 0.0
C241 C 0.1026 0.8961 0.1757 0.0
C242 C -0.01217 -0.0079 0.68786 0.0
C243 C -0.01055 0.92967 0.67847 0.0
H244 H 0.93147 0.07299 0.69547 0.0
C245 C 0.93425 0.89777 0.67726 0.0
H246 H 0.02969 0.01779 0.68915 0.0
C247 C 0.87804 0.92917 0.68153 0.0
C248 C 0.87633 -0.00689 0.6863 0.0
H249 H 0.93432 0.84942 0.67048 0.0
H250 H 0.83613 0.90433 0.67765 0.0
C251 C 0.9316 0.02375 0.69138 0.0
C252 C -0.011 -0.01222 0.8276 0.0
C253 C 0.9266 -0.01062 0.8371 0.0
H254 H 0.06996 0.93148 0.82003 0.0
C255 C 0.89477 0.93414 0.83857 0.0
H256 H 0.01465 0.02966 0.82611 0.0
C257 C 0.92624 0.87795 0.83445 0.0
C258 C -0.00982 0.8763 0.82955 0.0
H259 H 0.84644 0.9342 0.84546 0.0
H260 H 0.90148 0.83603 0.83852 0.0
C261 C 0.02073 0.93157 0.82422 0.0
C262 C 0.94819 0.0042 0.3229 0.0
C263 C 0.89543 0.03798 0.33306 0.0
H264 H 0.0454 0.00377 0.31624 0.0
C265 C 0.89901 0.10136 0.3389 0.0
H266 H 0.94613 0.95523 0.31811 0.0
C267 C 0.95618 0.12917 0.33869 0.0
C268 C 0.01 0.0939 0.33207 0.0
H269 H 0.85867 0.1281 0.34689 0.0
H270 H 0.95862 0.17702 0.34627 0.0
C271 C 0.00497 0.03213 0.32187 0.0
loop_
_geom_bond_atom_site_label_1
_geom_bond_atom_site_label_2
_geom_bond_distance
_geom_bond_site_symmetry_2
_ccdc_geom_bond_type
C0 O1 1.306 . S
C0 O3 1.160 . S
O1 C0 1.306 . S
O1 Cd2 2.228 . S
Cd2 O1 2.228 . S
Cd2 O6 2.273 . S
Cd2 O10 2.277 . S
O3 C0 1.160 . S
O3 Cd4 2.203 . S
Cd4 O3 2.203 . S
Cd4 O6 2.411 . S
Cd4 O7 2.333 . S
Cd4 O8 2.352 . S
Cd4 O12 2.277 1_455 S
Cd4 O13 2.356 1_455 S
C5 O10 1.209 . S
C5 O12 1.226 1_455 S
O6 Cd2 2.273 . S
O6 Cd4 2.411 . S
O6 C9 1.320 . S
O7 Cd4 2.333 . S
O7 C9 1.214 . S
O8 Cd4 2.352 . S
O8 C11 1.258 . S
C9 O6 1.320 . S
C9 O7 1.214 . S
O10 Cd2 2.277 . S
O10 C5 1.209 . S
C11 O8 1.258 . S
C11 O13 1.282 1_455 S
O12 Cd4 2.277 1_655 S
O12 C5 1.226 1_655 S
O13 Cd4 2.356 1_655 S
O13 C11 1.282 1_655 S
C14 O15 1.306 . S
C14 O17 1.160 . S
O15 C14 1.306 . S
O15 Cd16 2.228 . S
Cd16 O15 2.228 . S
Cd16 O20 2.273 . S
Cd16 O24 2.277 . S
O17 C14 1.160 . S
O17 Cd18 2.203 . S
Cd18 O17 2.203 . S
Cd18 O20 2.411 . S
Cd18 O21 2.333 . S
Cd18 O22 2.352 . S
Cd18 O26 2.277 1_545 S
Cd18 O27 2.356 1_545 S
C19 O24 1.209 . S
C19 O26 1.226 1_545 S
O20 Cd16 2.273 . S
O20 Cd18 2.411 . S
O20 C23 1.320 . S
O21 Cd18 2.333 . S
O21 C23 1.214 . S
O22 Cd18 2.352 . S
O22 C25 1.258 . S
C23 O20 1.320 . S
C23 O21 1.214 . S
O24 Cd16 2.277 . S
O24 C19 1.209 . S
C25 O22 1.258 . S
C25 O27 1.282 1_545 S
O26 Cd18 2.277 1_565 S
O26 C19 1.226 1_565 S
O27 Cd18 2.356 1_565 S
O27 C25 1.282 1_565 S
C28 O29 1.306 . S
C28 O31 1.160 . S
O29 C28 1.306 . S
O29 Cd30 2.228 . S
Cd30 O29 2.228 . S
Cd30 O34 2.273 . S
Cd30 O38 2.277 . S
O31 C28 1.160 . S
O31 Cd32 2.203 . S
Cd32 O31 2.203 . S
Cd32 O34 2.411 . S
Cd32 O35 2.333 . S
Cd32 O36 2.352 . S
Cd32 O40 2.277 1_655 S
Cd32 O41 2.356 1_655 S
C33 O38 1.209 . S
C33 O40 1.226 1_655 S
O34 Cd30 2.273 . S
O34 Cd32 2.411 . S
O34 C37 1.320 . S
O35 Cd32 2.333 . S
O35 C37 1.214 . S
O36 Cd32 2.352 . S
O36 C39 1.258 . S
C37 O34 1.320 . S
C37 O35 1.214 . S
O38 Cd30 2.277 . S
O38 C33 1.209 . S
C39 O36 1.258 . S
C39 O41 1.282 1_655 S
O40 Cd32 2.277 1_455 S
O40 C33 1.226 1_455 S
O41 Cd32 2.356 1_455 S
O41 C39 1.282 1_455 S
C42 O43 1.306 . S
C42 O45 1.160 . S
O43 C42 1.306 . S
O43 Cd44 2.228 . S
Cd44 O43 2.228 . S
Cd44 O48 2.273 . S
Cd44 O52 2.277 . S
O45 C42 1.160 . S
O45 Cd46 2.203 . S
Cd46 O45 2.203 . S
Cd46 O48 2.411 . S
Cd46 O49 2.333 . S
Cd46 O50 2.352 . S
Cd46 O54 2.277 1_565 S
Cd46 O55 2.356 1_565 S
C47 O52 1.209 . S
C47 O54 1.226 1_565 S
O48 Cd44 2.273 . S
O48 Cd46 2.411 . S
O48 C51 1.320 . S
O49 Cd46 2.333 . S
O49 C51 1.214 . S
O50 Cd46 2.352 . S
O50 C53 1.258 . S
C51 O48 1.320 . S
C51 O49 1.214 . S
O52 Cd44 2.277 . S
O52 C47 1.209 . S
C53 O50 1.258 . S
C53 O55 1.282 1_565 S
O54 Cd46 2.277 1_545 S
O54 C47 1.226 1_545 S
O55 Cd46 2.356 1_545 S
O55 C53 1.282 1_545 S
C56 O57 1.306 . S
C56 O59 1.160 . S
O57 C56 1.306 . S
O57 Cd58 2.228 . S
Cd58 O57 2.228 . S
Cd58 O62 2.273 . S
Cd58 O66 2.277 . S
O59 C56 1.160 . S
O59 Cd60 2.203 . S
Cd60 O59 2.203 . S
Cd60 O62 2.411 . S
Cd60 O63 2.333 . S
Cd60 O64 2.352 . S
Cd60 O68 2.277 1_455 S
Cd60 O69 2.356 1_455 S
C61 O66 1.209 . S
C61 O68 1.226 1_455 S
O62 Cd58 2.273 . S
O62 Cd60 2.411 . S
O62 C65 1.320 . S
O63 Cd60 2.333 . S
O63 C65 1.214 . S
O64 Cd60 2.352 . S
O64 C67 1.258 . S
C65 O62 1.320 . S
C65 O63 1.214 . S
O66 Cd58 2.277 . S
O66 C61 1.209 . S
C67 O64 1.258 . S
C67 O69 1.282 1_455 S
O68 Cd60 2.277 1_655 S
O68 C61 1.226 1_655 S
O69 Cd60 2.356 1_655 S
O69 C67 1.282 1_655 S
C70 O71 1.306 . S
C70 O73 1.160 . S
O71 C70 1.306 . S
O71 Cd72 2.228 . S
Cd72 O71 2.228 . S
Cd72 O76 2.273 . S
Cd72 O80 2.277 . S
O73 C70 1.160 . S
O73 Cd74 2.203 . S
Cd74 O73 2.203 . S
Cd74 O76 2.411 . S
Cd74 O77 2.333 . S
Cd74 O78 2.352 . S
Cd74 O82 2.277 1_545 S
Cd74 O83 2.356 1_545 S
C75 O80 1.209 . S
C75 O82 1.226 1_545 S
O76 Cd72 2.273 . S
O76 Cd74 2.411 . S
O76 C79 1.320 . S
O77 Cd74 2.333 . S
O77 C79 1.214 . S
O78 Cd74 2.352 . S
O78 C81 1.258 . S
C79 O76 1.320 . S
C79 O77 1.214 . S
O80 Cd72 2.277 . S
O80 C75 1.209 . S
C81 O78 1.258 . S
C81 O83 1.282 1_545 S
O82 Cd74 2.277 1_565 S
O82 C75 1.226 1_565 S
O83 Cd74 2.356 1_565 S
O83 C81 1.282 1_565 S
C84 O85 1.306 . S
C84 O87 1.160 . S
O85 C84 1.306 . S
O85 Cd86 2.228 . S
Cd86 O85 2.228 . S
Cd86 O90 2.273 . S
Cd86 O94 2.277 . S
O87 C84 1.160 . S
O87 Cd88 2.203 . S
Cd88 O87 2.203 . S
Cd88 O90 2.411 . S
Cd88 O91 2.333 . S
Cd88 O92 2.352 . S
Cd88 O96 2.277 1_655 S
Cd88 O97 2.356 1_655 S
C89 O94 1.209 . S
C89 O96 1.226 1_655 S
O90 Cd86 2.273 . S
O90 Cd88 2.411 . S
O90 C93 1.320 . S
O91 Cd88 2.333 . S
O91 C93 1.214 . S
O92 Cd88 2.352 . S
O92 C95 1.258 . S
C93 O90 1.320 . S
C93 O91 1.214 . S
O94 Cd86 2.277 . S
O94 C89 1.209 . S
C95 O92 1.258 . S
C95 O97 1.282 1_655 S
O96 Cd88 2.277 1_455 S
O96 C89 1.226 1_455 S
O97 Cd88 2.356 1_455 S
O97 C95 1.282 1_455 S
C98 O99 1.306 . S
C98 O101 1.160 . S
O99 C98 1.306 . S
O99 Cd100 2.228 . S
Cd100 O99 2.228 . S
Cd100 O104 2.273 . S
Cd100 O108 2.277 . S
O101 C98 1.160 . S
O101 Cd102 2.203 . S
Cd102 O101 2.203 . S
Cd102 O104 2.411 . S
Cd102 O105 2.333 . S
Cd102 O106 2.352 . S
Cd102 O110 2.277 1_565 S
Cd102 O111 2.356 1_565 S
C103 O108 1.209 . S
C103 O110 1.226 1_565 S
O104 Cd100 2.273 . S
O104 Cd102 2.411 . S
O104 C107 1.320 . S
O105 Cd102 2.333 . S
O105 C107 1.214 . S
O106 Cd102 2.352 . S
O106 C109 1.258 . S
C107 O104 1.320 . S
C107 O105 1.214 . S
O108 Cd100 2.277 . S
O108 C103 1.209 . S
C109 O106 1.258 . S
C109 O111 1.282 1_565 S
O110 Cd102 2.277 1_545 S
O110 C103 1.226 1_545 S
O111 Cd102 2.356 1_545 S
O111 C109 1.282 1_545 S
C112 C113 1.387 . S
C112 H116 0.950 . S
C112 C121 1.390 1_455 S
C113 C112 1.387 . S
C113 C115 1.387 . S
H114 C121 0.950 . S
C115 C113 1.387 . S
C115 C117 1.390 1_455 S
C115 H119 0.950 . S
H116 C112 0.950 . S
C117 C115 1.390 1_655 S
C117 C118 1.387 . S
C117 H120 0.950 . S
C118 C117 1.387 . S
C118 C121 1.387 . S
H119 C115 0.950 . S
H120 C117 0.950 . S
C121 C112 1.390 1_655 S
C121 H114 0.950 . S
C121 C118 1.387 . S
C122 C123 1.387 . S
C122 H126 0.950 . S
C122 C131 1.390 1_565 S
C123 C122 1.387 . S
C123 C125 1.387 . S
H124 C131 0.950 . S
C125 C123 1.387 . S
C125 C127 1.390 1_565 S
C125 H129 0.950 . S
H126 C122 0.950 . S
C127 C125 1.390 1_545 S
C127 C128 1.387 . S
C127 H130 0.950 . S
C128 C127 1.387 . S
C128 C131 1.387 . S
H129 C125 0.950 . S
H130 C127 0.950 . S
C131 C122 1.390 1_545 S
C131 H124 0.950 . S
C131 C128 1.387 . S
C132 C133 1.387 . S
C132 H136 0.950 . S
C132 C141 1.390 1_655 S
C133 C132 1.387 . S
C133 C135 1.387 . S
H134 C141 0.950 . S
C135 C133 1.387 . S
C135 C137 1.390 1_655 S
C135 H139 0.950 . S
H136 C132 0.950 . S
C137 C135 1.390 1_455 S
C137 C138 1.387 . S
C137 H140 0.950 . S
C138 C137 1.387 . S
C138 C141 1.387 . S
H139 C135 0.950 . S
H140 C137 0.950 . S
C141 C132 1.390 1_455 S
C141 H134 0.950 . S
C141 C138 1.387 . S
C142 C143 1.387 . S
C142 H146 0.950 . S
C142 C151 1.390 1_545 S
C143 C142 1.387 . S
C143 C145 1.387 . S
H144 C151 0.950 . S
C145 C143 1.387 . S
C145 C147 1.390 1_545 S
C145 H149 0.950 . S
H146 C142 0.950 . S
C147 C145 1.390 1_565 S
C147 C148 1.387 . S
C147 H150 0.950 . S
C148 C147 1.387 . S
C148 C151 1.387 . S
H149 C145 0.950 . S
H150 C147 0.950 . S
C151 C142 1.390 1_565 S
C151 H144 0.950 . S
C151 C148 1.387 . S
C152 C153 1.387 . S
C152 H156 0.950 . S
C152 C161 1.390 1_656 S
C153 C152 1.387 . S
C153 C155 1.387 . S
H154 C161 0.950 . S
C155 C153 1.387 . S
C155 C157 1.390 1_656 S
C155 H159 0.950 . S
H156 C152 0.950 . S
C157 C155 1.390 1_454 S
C157 C158 1.387 . S
C157 H160 0.950 . S
C158 C157 1.387 . S
C158 C161 1.387 . S
H159 C155 0.950 . S
H160 C157 0.950 . S
C161 C152 1.390 1_454 S
C161 H154 0.950 . S
C161 C158 1.387 . S
C162 C163 1.387 . S
C162 H166 0.950 . S
C162 C171 1.390 1_545 S
C163 C162 1.387 . S
C163 C165 1.387 . S
H164 C171 0.950 . S
C165 C163 1.387 . S
C165 C167 1.390 1_545 S
C165 H169 0.950 . S
H166 C162 0.950 . S
C167 C165 1.390 1_565 S
C167 C168 1.387 . S
C167 H170 0.950 . S
C168 C167 1.387 . S
C168 C171 1.387 . S
H169 C165 0.950 . S
H170 C167 0.950 . S
C171 C162 1.390 1_565 S
C171 H164 0.950 . S
C171 C168 1.387 . S
C172 C173 1.387 . S
C172 H176 0.950 . S
C172 C181 1.390 1_654 S
C173 C172 1.387 . S
C173 C175 1.387 . S
H174 C181 0.950 . S
C175 C173 1.387 . S
C175 C177 1.390 1_654 S
C175 H179 0.950 . S
H176 C172 0.950 . S
C177 C175 1.390 1_456 S
C177 C178 1.387 . S
C177 H180 0.950 . S
C178 C177 1.387 . S
C178 C181 1.387 . S
H179 C175 0.950 . S
H180 C177 0.950 . S
C181 C172 1.390 1_456 S
C181 H174 0.950 . S
C181 C178 1.387 . S
C182 C183 1.387 . S
C182 H186 0.950 . S
C182 C191 1.390 1_545 S
C183 C182 1.387 . S
C183 C185 1.387 . S
H184 C191 0.950 . S
C185 C183 1.387 . S
C185 C187 1.390 1_545 S
C185 H189 0.950 . S
H186 C182 0.950 . S
C187 C185 1.390 1_565 S
C187 C188 1.387 . S
C187 H190 0.950 . S
C188 C187 1.387 . S
C188 C191 1.387 . S
H189 C185 0.950 . S
H190 C187 0.950 . S
C191 C182 1.390 1_565 S
C191 H184 0.950 . S
C191 C188 1.387 . S
C192 C193 1.387 . S
C192 H196 0.950 . S
C192 C201 1.390 . S
C193 C192 1.387 . S
C193 C195 1.387 . S
H194 C201 0.950 . S
C195 C193 1.387 . S
C195 C197 1.390 . S
C195 H199 0.950 . S
H196 C192 0.950 . S
C197 C195 1.390 . S
C197 C198 1.387 . S
C197 H200 0.950 . S
C198 C197 1.387 . S
C198 C201 1.387 . S
H199 C195 0.950 . S
H200 C197 0.950 . S
C201 C192 1.390 . S
C201 H194 0.950 . S
C201 C198 1.387 . S
C202 C203 1.387 . S
C202 H206 0.950 . S
C202 C211 1.390 . S
C203 C202 1.387 . S
C203 C205 1.387 . S
H204 C211 0.950 . S
C205 C203 1.387 . S
C205 C207 1.390 . S
C205 H209 0.950 . S
H206 C202 0.950 . S
C207 C205 1.390 . S
C207 C208 1.387 . S
C207 H210 0.950 . S
C208 C207 1.387 . S
C208 C211 1.387 . S
H209 C205 0.950 . S
H210 C207 0.950 . S
C211 C202 1.390 . S
C211 H204 0.950 . S
C211 C208 1.387 . S
C212 C213 1.387 . S
C212 H216 0.950 . S
C212 C221 1.390 . S
C213 C212 1.387 . S
C213 C215 1.387 . S
H214 C221 0.950 . S
C215 C213 1.387 . S
C215 C217 1.390 . S
C215 H219 0.950 . S
H216 C212 0.950 . S
C217 C215 1.390 . S
C217 C218 1.387 . S
C217 H220 0.950 . S
C218 C217 1.387 . S
C218 C221 1.387 . S
H219 C215 0.950 . S
H220 C217 0.950 . S
C221 C212 1.390 . S
C221 H214 0.950 . S
C221 C218 1.387 . S
C222 C223 1.387 . S
C222 H226 0.950 . S
C222 C231 1.390 . S
C223 C222 1.387 . S
C223 C225 1.387 . S
H224 C231 0.950 . S
C225 C223 1.387 . S
C225 C227 1.390 . S
C225 H229 0.950 . S
H226 C222 0.950 . S
C227 C225 1.390 . S
C227 C228 1.387 . S
C227 H230 0.950 . S
C228 C227 1.387 . S
C228 C231 1.387 . S
H229 C225 0.950 . S
H230 C227 0.950 . S
C231 C222 1.390 . S
C231 H224 0.950 . S
C231 C228 1.387 . S
C232 C233 1.387 . S
C232 H236 0.950 . S
C232 C241 1.390 1_445 S
C233 C232 1.387 . S
C233 C235 1.387 . S
H234 C241 0.950 . S
C235 C233 1.387 . S
C235 C237 1.390 1_445 S
C235 H239 0.950 . S
H236 C232 0.950 . S
C237 C235 1.390 1_665 S
C237 C238 1.387 . S
C237 H240 0.950 . S
C238 C237 1.387 . S
C238 C241 1.387 . S
H239 C235 0.950 . S
H240 C237 0.950 . S
C241 C232 1.390 1_665 S
C241 H234 0.950 . S
C241 C238 1.387 . S
C242 C243 1.387 . S
C242 H246 0.950 . S
C242 C251 1.390 1_465 S
C243 C242 1.387 . S
C243 C245 1.387 . S
H244 C251 0.950 . S
C245 C243 1.387 . S
C245 C247 1.390 1_465 S
C245 H249 0.950 . S
H246 C242 0.950 . S
C247 C245 1.390 1_645 S
C247 C248 1.387 . S
C247 H250 0.950 . S
C248 C247 1.387 . S
C248 C251 1.387 . S
H249 C245 0.950 . S
H250 C247 0.950 . S
C251 C242 1.390 1_645 S
C251 H244 0.950 . S
C251 C248 1.387 . S
C252 C253 1.387 . S
C252 H256 0.950 . S
C252 C261 1.390 1_645 S
C253 C252 1.387 . S
C253 C255 1.387 . S
H254 C261 0.950 . S
C255 C253 1.387 . S
C255 C257 1.390 1_645 S
C255 H259 0.950 . S
H256 C252 0.950 . S
C257 C255 1.390 1_465 S
C257 C258 1.387 . S
C257 H260 0.950 . S
C258 C257 1.387 . S
C258 C261 1.387 . S
H259 C255 0.950 . S
H260 C257 0.950 . S
C261 C252 1.390 1_465 S
C261 H254 0.950 . S
C261 C258 1.387 . S
C262 C263 1.387 . S
C262 H266 0.950 . S
C262 C271 1.390 1_665 S
C263 C262 1.387 . S
C263 C265 1.387 . S
H264 C271 0.950 . S
C265 C263 1.387 . S
C265 C267 1.390 1_665 S
C265 H269 0.950 . S
H266 C262 0.950 . S
C267 C265 1.390 1_445 S
C267 C268 1.387 . S
C267 H270 0.950 . S
C268 C267 1.387 . S
C268 C271 1.387 . S
H269 C265 0.950 . S
H270 C267 0.950 . S
C271 C262 1.390 1_445 S
C271 H264 0.950 . S
C271 C268 1.387 . S
C113 C11 1.438 . S
C118 C39 1.438 . S
C123 C53 1.438 . S
C128 C25 1.438 . S
C133 C95 1.438 . S
C138 C67 1.438 . S
C143 C81 1.438 . S
C148 C109 1.438 . S
C153 C93 1.714 . S
C158 C9 1.714 . S
C163 C23 1.714 . S
C168 C107 1.714 . S
C173 C37 1.714 . S
C178 C65 1.714 . S
C183 C79 1.719 . S
C188 C51 1.719 . S
C193 C0 1.589 . S
C198 C70 1.589 . S
C203 C84 1.588 . S
C208 C14 1.591 . S
C213 C98 1.589 . S
C218 C28 1.589 . S
C223 C42 1.591 . S
C228 C56 1.589 . S
C233 C5 1.130 . S
C238 C33 1.130 . S
C243 C47 1.130 . S
C248 C19 1.130 . S
C253 C89 1.130 . S
C258 C61 1.130 . S
C263 C103 1.130 . S
C268 C75 1.130 . S
