# Generated by pormake.
# Topology gsi, (4)-cn, num edge types: 1
# Building blocks:
#     Node 0, Type 0, BuildingBlock: UXUYUI_clean_sbu_0, # of connection points: 4
#     Node 1, Type 0, BuildingBlock: UXUYUI_clean_sbu_0, # of connection points: 4
#     Node 2, Type 0, BuildingBlock: UXUYUI_clean_sbu_0, # of connection points: 4
#     Node 3, Type 0, BuildingBlock: UXUYUI_clean_sbu_0, # of connection points: 4
#     Node 4, Type 0, BuildingBlock: UXUYUI_clean_sbu_0, # of connection points: 4
#     Node 5, Type 0, BuildingBlock: UXUYUI_clean_sbu_0, # of connection points: 4
#     Node 6, Type 0, BuildingBlock: UXUYUI_clean_sbu_0, # of connection points: 4
#     Node 7, Type 0, BuildingBlock: UXUYUI_clean_sbu_0, # of connection points: 4
#     Node 8, Type 0, BuildingBlock: UXUYUI_clean_sbu_0, # of connection points: 4
#     Node 9, Type 0, BuildingBlock: UXUYUI_clean_sbu_0, # of connection points: 4
#     Node 10, Type 0, BuildingBlock: UXUYUI_clean_sbu_0, # of connection points: 4
#     Node 11, Type 0, BuildingBlock: UXUYUI_clean_sbu_0, # of connection points: 4
#     Node 12, Type 0, BuildingBlock: UXUYUI_clean_sbu_0, # of connection points: 4
#     Node 13, Type 0, BuildingBlock: UXUYUI_clean_sbu_0, # of connection points: 4
#     Node 14, Type 0, BuildingBlock: UXUYUI_clean_sbu_0, # of connection points: 4
#     Node 15, Type 0, BuildingBlock: UXUYUI_clean_sbu_0, # of connection points: 4
#     Edge 16, Type (0, 0), BuildingBlock: EZIPEK_clean_linker_0, # of connection points: 2
#     Edge 17, Type (0, 0), BuildingBlock: EZIPEK_clean_linker_0, # of connection points: 2
#     Edge 18, Type (0, 0), BuildingBlock: EZIPEK_clean_linker_0, # of connection points: 2
#     Edge 19, Type (0, 0), BuildingBlock: EZIPEK_clean_linker_0, # of connection points: 2
#     Edge 20, Type (0, 0), BuildingBlock: EZIPEK_clean_linker_0, # of connection points: 2
#     Edge 21, Type (0, 0), BuildingBlock: EZIPEK_clean_linker_0, # of connection points: 2
#     Edge 22, Type (0, 0), BuildingBlock: EZIPEK_clean_linker_0, # of connection points: 2
#     Edge 23, Type (0, 0), BuildingBlock: EZIPEK_clean_linker_0, # of connection points: 2
#     Edge 24, Type (0, 0), BuildingBlock: EZIPEK_clean_linker_0, # of connection points: 2
#     Edge 25, Type (0, 0), BuildingBlock: EZIPEK_clean_linker_0, # of connection points: 2
#     Edge 26, Type (0, 0), BuildingBlock: EZIPEK_clean_linker_0, # of connection points: 2
#     Edge 27, Type (0, 0), BuildingBlock: EZIPEK_clean_linker_0, # of connection points: 2
#     Edge 28, Type (0, 0), BuildingBlock: EZIPEK_clean_linker_0, # of connection points: 2
#     Edge 29, Type (0, 0), BuildingBlock: EZIPEK_clean_linker_0, # of connection points: 2
#     Edge 30, Type (0, 0), BuildingBlock: EZIPEK_clean_linker_0, # of connection points: 2
#     Edge 31, Type (0, 0), BuildingBlock: EZIPEK_clean_linker_0, # of connection points: 2
#     Edge 32, Type (0, 0), BuildingBlock: EZIPEK_clean_linker_0, # of connection points: 2
#     Edge 33, Type (0, 0), BuildingBlock: EZIPEK_clean_linker_0, # of connection points: 2
#     Edge 34, Type (0, 0), BuildingBlock: EZIPEK_clean_linker_0, # of connection points: 2
#     Edge 35, Type (0, 0), BuildingBlock: EZIPEK_clean_linker_0, # of connection points: 2
#     Edge 36, Type (0, 0), BuildingBlock: EZIPEK_clean_linker_0, # of connection points: 2
#     Edge 37, Type (0, 0), BuildingBlock: EZIPEK_clean_linker_0, # of connection points: 2
#     Edge 38, Type (0, 0), BuildingBlock: EZIPEK_clean_linker_0, # of connection points: 2
#     Edge 39, Type (0, 0), BuildingBlock: EZIPEK_clean_linker_0, # of connection points: 2
#     Edge 40, Type (0, 0), BuildingBlock: EZIPEK_clean_linker_0, # of connection points: 2
#     Edge 41, Type (0, 0), BuildingBlock: EZIPEK_clean_linker_0, # of connection points: 2
#     Edge 42, Type (0, 0), BuildingBlock: EZIPEK_clean_linker_0, # of connection points: 2
#     Edge 43, Type (0, 0), BuildingBlock: EZIPEK_clean_linker_0, # of connection points: 2
#     Edge 44, Type (0, 0), BuildingBlock: EZIPEK_clean_linker_0, # of connection points: 2
#     Edge 45, Type (0, 0), BuildingBlock: EZIPEK_clean_linker_0, # of connection points: 2
#     Edge 46, Type (0, 0), BuildingBlock: EZIPEK_clean_linker_0, # of connection points: 2
#     Edge 47, Type (0, 0), BuildingBlock: EZIPEK_clean_linker_0, # of connection points: 2
# Relax obj value: 0.073
# Max RMSD: 0.058
# Mean RMSD: 0.058
data_MOF--net-gsi--node1-UXUYUI_clean_sbu_0--edge1-EZIPEK_clean_linker_0
_symmetry_space_group_name_H-M    P1
_symmetry_Int_Tables_number       1
_symmetry_cell_setting            triclinic
loop_
_symmetry_equiv_pos_as_xyz
'x, y, z'
_cell_length_a     50.432454
_cell_length_b     50.466338
_cell_length_c     50.489969
_cell_angle_alpha  89.957096
_cell_angle_beta   89.987241
_cell_angle_gamma 90.162142
loop_
_atom_site_label
_atom_site_type_symbol
_atom_site_fract_x
_atom_site_fract_y
_atom_site_fract_z
_atom_type_partial_charge
Li0 Li 0.13216 0.17321 0.15228 0.0
Li1 Li 0.17407 0.17659 0.17602 0.0
Li2 Li 0.17396 0.15496 0.13407 0.0
Li3 Li 0.15518 0.13236 0.1723 0.0
C4 C 0.17764 0.21571 0.14059 0.0
N5 N 0.20506 0.26322 0.14101 0.0
C6 C 0.16707 0.23776 0.15354 0.0
C7 C 0.20203 0.21793 0.12758 0.0
C8 C 0.18128 0.26156 0.15363 0.0
C9 C 0.2156 0.2421 0.12806 0.0
C10 C 0.12823 0.17648 0.21112 0.0
C11 C 0.1151 0.17673 0.25709 0.0
N12 N 0.10508 0.20153 0.25395 0.0
C13 C 0.11783 0.202 0.2084 0.0
C14 C 0.12685 0.16373 0.23569 0.0
C15 C 0.10619 0.2143 0.23025 0.0
C16 C 0.07716 0.18415 0.15893 0.0
N17 N 0.09959 0.19129 0.14572 0.0
C18 C 0.07841 0.23012 0.12877 0.0
C19 C 0.10045 0.21348 0.13041 0.0
C20 C 0.05539 0.22377 0.14301 0.0
C21 C 0.05464 0.20025 0.15783 0.0
H22 H 0.0772 0.16665 0.17132 0.0
H23 H 0.11863 0.21882 0.12036 0.0
C24 C 0.22077 0.2031 0.1888 0.0
N25 N 0.19575 0.19877 0.19797 0.0
C26 C 0.23819 0.21948 0.20268 0.0
C27 C 0.20444 0.22535 0.23614 0.0
C28 C 0.18749 0.20929 0.22135 0.0
C29 C 0.22997 0.23074 0.22664 0.0
H30 H 0.22716 0.19383 0.1706 0.0
H31 H 0.16796 0.20524 0.22881 0.0
C32 C 0.13888 0.12465 0.11273 0.0
N33 N 0.14281 0.10133 0.06345 0.0
C34 C 0.15301 0.10108 0.10965 0.0
C35 C 0.12659 0.1363 0.09085 0.0
C36 C 0.15482 0.08962 0.08454 0.0
C37 C 0.12883 0.1242 0.06607 0.0
C38 C 0.20815 0.13518 0.18706 0.0
C39 C 0.23403 0.12642 0.18253 0.0
C40 C 0.19836 0.13601 0.21295 0.0
C41 C 0.24957 0.11837 0.20397 0.0
C42 C 0.21449 0.12776 0.23385 0.0
N43 N 0.23955 0.11918 0.22896 0.0
C44 C 0.21554 0.13449 0.10226 0.0
C45 C 0.18753 0.16509 0.08027 0.0
C46 C 0.23225 0.13325 0.0802 0.0
N47 N 0.19391 0.15053 0.10204 0.0
C48 C 0.2036 0.16431 0.0577 0.0
C49 C 0.22645 0.14856 0.05777 0.0
H50 H 0.22014 0.12314 0.11982 0.0
H51 H 0.17038 0.17791 0.08075 0.0
C52 C 0.12806 0.09688 0.20653 0.0
N53 N 0.14988 0.09958 0.19089 0.0
C54 C 0.12547 0.075 0.22338 0.0
C55 C 0.16726 0.05846 0.20684 0.0
C56 C 0.16901 0.08062 0.19027 0.0
C57 C 0.14552 0.0558 0.22398 0.0
H58 H 0.11309 0.11218 0.20655 0.0
H59 H 0.18612 0.08317 0.1776 0.0
O60 O 0.16427 0.19207 0.14072 0.0
O61 O 0.13947 0.16391 0.18988 0.0
O62 O 0.13777 0.13669 0.13691 0.0
O63 O 0.19285 0.14348 0.16624 0.0
H64 H 0.14817 0.2365 0.16354 0.0
H65 H 0.21066 0.20108 0.11761 0.0
H66 H 0.17341 0.27871 0.16375 0.0
H67 H 0.23458 0.24403 0.11826 0.0
H68 H 0.11395 0.1671 0.27621 0.0
H69 H 0.11889 0.21233 0.18972 0.0
H70 H 0.13487 0.14405 0.23832 0.0
H71 H 0.09809 0.23404 0.22838 0.0
H72 H 0.07957 0.24819 0.11723 0.0
H73 H 0.03715 0.19491 0.16911 0.0
H74 H 0.25791 0.22315 0.19497 0.0
H75 H 0.19768 0.23362 0.25475 0.0
H76 H 0.16278 0.09197 0.12643 0.0
H77 H 0.11572 0.15466 0.09296 0.0
H78 H 0.16586 0.07148 0.08179 0.0
H79 H 0.11955 0.13304 0.04891 0.0
H80 H 0.24209 0.12593 0.16268 0.0
H81 H 0.17856 0.14297 0.21691 0.0
H82 H 0.26961 0.11151 0.20073 0.0
H83 H 0.20709 0.12824 0.25395 0.0
H84 H 0.24978 0.1209 0.08078 0.0
H85 H 0.19869 0.17639 0.04067 0.0
H86 H 0.10841 0.07341 0.23632 0.0
H87 H 0.183 0.04391 0.20682 0.0
Li88 Li 0.84767 0.35005 0.17737 0.0
Li89 Li 0.89191 0.35093 0.15467 0.0
Li90 Li 0.87055 0.39218 0.17579 0.0
Li91 Li 0.85273 0.37299 0.13569 0.0
C92 C 0.88266 0.34508 0.21605 0.0
N93 N 0.8804 0.31665 0.2628 0.0
C94 C 0.89813 0.32237 0.21928 0.0
C95 C 0.8663 0.35352 0.23674 0.0
C96 C 0.89666 0.30823 0.24304 0.0
C97 C 0.86534 0.33881 0.26017 0.0
C98 C 0.85256 0.32256 0.11993 0.0
C99 C 0.86447 0.31007 0.07543 0.0
N100 N 0.83995 0.29927 0.0721 0.0
C101 C 0.82749 0.31138 0.1161 0.0
C102 C 0.87123 0.32194 0.09949 0.0
C103 C 0.82149 0.29969 0.09174 0.0
C104 C 0.8016 0.33661 0.20625 0.0
N105 N 0.82538 0.32755 0.19747 0.0
C106 C 0.81858 0.28592 0.21891 0.0
C107 C 0.83387 0.3026 0.20299 0.0
C108 C 0.79421 0.29499 0.22858 0.0
C109 C 0.78552 0.32048 0.22196 0.0
H110 H 0.79518 0.35636 0.20114 0.0
H111 H 0.85269 0.29584 0.19531 0.0
C112 C 0.94769 0.34074 0.14832 0.0
N113 N 0.92296 0.32997 0.14948 0.0
C114 C 0.96995 0.32432 0.14632 0.0
C115 C 0.94081 0.28618 0.14664 0.0
C116 C 0.91918 0.30328 0.14855 0.0
C117 C 0.96653 0.2967 0.14569 0.0
H118 H 0.95013 0.36202 0.14937 0.0
H119 H 0.89931 0.29525 0.14986 0.0
C120 C 0.81988 0.40696 0.17472 0.0
N121 N 0.79426 0.45282 0.18998 0.0
C122 C 0.81278 0.42589 0.1558 0.0
C123 C 0.81381 0.4113 0.20139 0.0
C124 C 0.79983 0.44894 0.16391 0.0
C125 C 0.80094 0.43464 0.20871 0.0
C126 C 0.89458 0.40232 0.11849 0.0
C127 C 0.88133 0.42613 0.11377 0.0
C128 C 0.9133 0.39317 0.10027 0.0
C129 C 0.88684 0.44032 0.09063 0.0
C130 C 0.9183 0.40797 0.07741 0.0
N131 N 0.90505 0.43102 0.07309 0.0
C132 C 0.89085 0.41885 0.22024 0.0
C133 C 0.86946 0.44803 0.19039 0.0
C134 C 0.89431 0.43929 0.23853 0.0
N135 N 0.87801 0.42328 0.19697 0.0
C136 C 0.87237 0.46911 0.20824 0.0
C137 C 0.88456 0.4646 0.23278 0.0
H138 H 0.89798 0.39926 0.22494 0.0
H139 H 0.85969 0.45133 0.17167 0.0
C140 C 0.80614 0.37608 0.10622 0.0
N141 N 0.8329 0.378 0.10319 0.0
C142 C 0.78934 0.37701 0.08425 0.0
C143 C 0.82782 0.3818 0.05614 0.0
C144 C 0.84394 0.38053 0.07869 0.0
C145 C 0.80021 0.37988 0.05889 0.0
H146 H 0.79783 0.37323 0.12577 0.0
H147 H 0.86518 0.38076 0.07642 0.0
O148 O 0.88337 0.35887 0.1927 0.0
O149 O 0.85869 0.33442 0.14347 0.0
O150 O 0.83262 0.38427 0.16719 0.0
O151 O 0.88958 0.3882 0.14103 0.0
H152 H 0.91104 0.31564 0.20358 0.0
H153 H 0.85427 0.37108 0.23461 0.0
H154 H 0.90842 0.29054 0.24576 0.0
H155 H 0.85259 0.34499 0.27624 0.0
H156 H 0.87867 0.30952 0.05938 0.0
H157 H 0.8128 0.31186 0.13174 0.0
H158 H 0.89064 0.33078 0.10208 0.0
H159 H 0.80214 0.29102 0.08842 0.0
H160 H 0.82562 0.26622 0.22366 0.0
H161 H 0.76667 0.32783 0.22911 0.0
H162 H 0.98962 0.33298 0.14569 0.0
H163 H 0.93756 0.26496 0.14629 0.0
H164 H 0.81745 0.42301 0.1351 0.0
H165 H 0.81916 0.3969 0.21631 0.0
H166 H 0.79431 0.46379 0.14949 0.0
H167 H 0.79629 0.43833 0.2293 0.0
H168 H 0.86681 0.43344 0.12769 0.0
H169 H 0.92373 0.37477 0.1037 0.0
H170 H 0.87663 0.45871 0.08662 0.0
H171 H 0.93266 0.40111 0.06307 0.0
H172 H 0.90396 0.43527 0.25726 0.0
H173 H 0.86474 0.48851 0.20321 0.0
H174 H 0.76811 0.37517 0.08696 0.0
H175 H 0.83678 0.38362 0.03673 0.0
Li176 Li 0.15686 0.89184 0.35101 0.0
Li177 Li 0.17495 0.87084 0.39183 0.0
Li178 Li 0.17909 0.85037 0.34886 0.0
Li179 Li 0.13512 0.85174 0.37001 0.0
C180 C 0.21916 0.88299 0.35029 0.0
N181 N 0.26932 0.87754 0.32897 0.0
C182 C 0.24101 0.87924 0.36687 0.0
C183 C 0.22288 0.88435 0.32287 0.0
C184 C 0.2662 0.87646 0.35571 0.0
C185 C 0.24837 0.88142 0.31247 0.0
C186 C 0.13448 0.90854 0.40259 0.0
C187 C 0.11281 0.92832 0.44024 0.0
N188 N 0.12594 0.95142 0.43545 0.0
C189 C 0.14778 0.93245 0.39802 0.0
C190 C 0.11681 0.90644 0.42381 0.0
C191 C 0.14316 0.95392 0.41485 0.0
C192 C 0.12687 0.93278 0.32442 0.0
N193 N 0.15151 0.92435 0.33149 0.0
C194 C 0.17156 0.95979 0.30702 0.0
C195 C 0.1736 0.93773 0.32359 0.0
C196 C 0.14652 0.9682 0.29856 0.0
C197 C 0.1239 0.95474 0.3077 0.0
H198 H 0.10957 0.92204 0.3312 0.0
H199 H 0.19293 0.93106 0.32984 0.0
C200 C 0.21053 0.85424 0.43105 0.0
N201 N 0.19347 0.87418 0.42525 0.0
C202 C 0.22423 0.85389 0.45509 0.0
C203 C 0.20466 0.89571 0.46603 0.0
C204 C 0.19111 0.89521 0.44182 0.0
C205 C 0.2198 0.87364 0.47448 0.0
H206 H 0.21374 0.83859 0.4168 0.0
H207 H 0.17907 0.91189 0.43627 0.0
C208 C 0.13039 0.86788 0.31164 0.0
N209 N 0.10107 0.88635 0.26928 0.0
C210 C 0.1027 0.86796 0.31286 0.0
C211 C 0.14316 0.87708 0.28882 0.0
C212 C 0.08824 0.87744 0.29126 0.0
C213 C 0.12798 0.88633 0.26762 0.0
C214 C 0.16234 0.81836 0.40406 0.0
C215 C 0.17309 0.79299 0.40647 0.0
C216 C 0.14605 0.8283 0.4241 0.0
C217 C 0.16737 0.77794 0.429 0.0
C218 C 0.14078 0.81262 0.44631 0.0
N219 N 0.15147 0.78798 0.44828 0.0
C220 C 0.22326 0.81775 0.33899 0.0
C221 C 0.19292 0.82173 0.30326 0.0
C222 C 0.23946 0.80119 0.32398 0.0
N223 N 0.20072 0.82788 0.32828 0.0
C224 C 0.20836 0.80505 0.28766 0.0
C225 C 0.2319 0.79477 0.29807 0.0
H226 H 0.22862 0.82262 0.35915 0.0
H227 H 0.17463 0.82963 0.29549 0.0
C228 C 0.08073 0.84057 0.3848 0.0
N229 N 0.1037 0.83098 0.37447 0.0
C230 C 0.05832 0.82418 0.38664 0.0
C231 C 0.08385 0.78844 0.3676 0.0
C232 C 0.10564 0.80548 0.36603 0.0
C233 C 0.05982 0.79783 0.37783 0.0
H234 H 0.07973 0.86097 0.39128 0.0
H235 H 0.12416 0.79845 0.35786 0.0
O236 O 0.19426 0.88528 0.36083 0.0
O237 O 0.13838 0.88734 0.38623 0.0
O238 O 0.14491 0.85866 0.33258 0.0
O239 O 0.16794 0.83335 0.38217 0.0
H240 H 0.23855 0.87841 0.38813 0.0
H241 H 0.20619 0.88722 0.30974 0.0
H242 H 0.28327 0.8734 0.3683 0.0
H243 H 0.25148 0.88214 0.29128 0.0
H244 H 0.09924 0.92696 0.45678 0.0
H245 H 0.16186 0.93432 0.38199 0.0
H246 H 0.10632 0.88807 0.42757 0.0
H247 H 0.15338 0.97251 0.41162 0.0
H248 H 0.18935 0.96992 0.30047 0.0
H249 H 0.10428 0.96091 0.3016 0.0
H250 H 0.23848 0.83821 0.45793 0.0
H251 H 0.20341 0.91385 0.4771 0.0
H252 H 0.09247 0.86095 0.33033 0.0
H253 H 0.16457 0.87723 0.28753 0.0
H254 H 0.0668 0.87771 0.29197 0.0
H255 H 0.13761 0.89351 0.24985 0.0
H256 H 0.18577 0.78507 0.39111 0.0
H257 H 0.13761 0.8479 0.42257 0.0
H258 H 0.17558 0.75827 0.43116 0.0
H259 H 0.12822 0.82006 0.46198 0.0
H260 H 0.25752 0.79331 0.33247 0.0
H261 H 0.20208 0.8002 0.26772 0.0
H262 H 0.03997 0.83198 0.39455 0.0
H263 H 0.08558 0.76823 0.36059 0.0
Li264 Li 0.85165 0.65568 0.39218 0.0
Li265 Li 0.87098 0.63266 0.35167 0.0
Li266 Li 0.89146 0.67567 0.37103 0.0
Li267 Li 0.8494 0.67467 0.34973 0.0
C268 C 0.89539 0.62025 0.40487 0.0
N269 N 0.91045 0.58083 0.43971 0.0
C270 C 0.8838 0.59512 0.40334 0.0
C271 C 0.91481 0.62528 0.42397 0.0
C272 C 0.89164 0.57546 0.42116 0.0
C273 C 0.92209 0.60511 0.44147 0.0
C274 C 0.80993 0.64121 0.3481 0.0
C275 C 0.78246 0.63079 0.31037 0.0
N276 N 0.76222 0.6447 0.3214 0.0
C277 C 0.78878 0.65523 0.35913 0.0
C278 C 0.80674 0.62879 0.32355 0.0
C279 C 0.76485 0.65685 0.34529 0.0
C280 C 0.81366 0.6709 0.42927 0.0
N281 N 0.83177 0.65147 0.42466 0.0
C282 C 0.81792 0.62857 0.46392 0.0
C283 C 0.83422 0.63055 0.44153 0.0
C284 C 0.79899 0.64828 0.46883 0.0
C285 C 0.79701 0.6697 0.45132 0.0
H286 H 0.81191 0.68727 0.41556 0.0
H287 H 0.8485 0.61524 0.43761 0.0
C288 C 0.89949 0.59675 0.31869 0.0
N289 N 0.87762 0.59967 0.33403 0.0
C290 C 0.90371 0.57322 0.30464 0.0
C291 C 0.86246 0.55649 0.32162 0.0
C292 C 0.85896 0.58031 0.33526 0.0
C293 C 0.88613 0.55139 0.30739 0.0
H294 H 0.91335 0.61305 0.31674 0.0
H295 H 0.84097 0.58357 0.34644 0.0
C296 C 0.86448 0.70705 0.40558 0.0
N297 N 0.87706 0.73458 0.45125 0.0
C298 C 0.85706 0.73358 0.40839 0.0
C299 C 0.87838 0.6946 0.42603 0.0
C300 C 0.86359 0.74714 0.43161 0.0
C301 C 0.88451 0.70881 0.44896 0.0
C302 C 0.88476 0.67762 0.30989 0.0
C303 C 0.88664 0.70523 0.30871 0.0
C304 C 0.88331 0.66298 0.28644 0.0
C305 C 0.88667 0.71779 0.28405 0.0
C306 C 0.88347 0.67628 0.26216 0.0
N307 N 0.88509 0.70318 0.26148 0.0
C308 C 0.94733 0.68454 0.37995 0.0
C309 C 0.92091 0.72276 0.37331 0.0
C310 C 0.97025 0.70025 0.38161 0.0
N311 N 0.92331 0.69601 0.3757 0.0
C312 C 0.9432 0.73913 0.37481 0.0
C313 C 0.96821 0.72785 0.37878 0.0
H314 H 0.94874 0.66322 0.38159 0.0
H315 H 0.90167 0.73143 0.36976 0.0
C316 C 0.81658 0.71789 0.33863 0.0
N317 N 0.82696 0.69562 0.32767 0.0
C318 C 0.80066 0.73468 0.32359 0.0
C319 C 0.80589 0.70498 0.28636 0.0
C320 C 0.82164 0.68873 0.30215 0.0
C321 C 0.79547 0.72827 0.29714 0.0
H322 H 0.8207 0.72263 0.35906 0.0
H323 H 0.82967 0.67069 0.29401 0.0
O324 O 0.88833 0.63965 0.38733 0.0
O325 O 0.83372 0.63993 0.36108 0.0
O326 O 0.85837 0.69366 0.38275 0.0
O327 O 0.88435 0.66496 0.33385 0.0
H328 H 0.86855 0.59099 0.38889 0.0
H329 H 0.92419 0.64456 0.42526 0.0
H330 H 0.88269 0.55598 0.42032 0.0
H331 H 0.93704 0.60875 0.4564 0.0
H332 H 0.7798 0.62145 0.29128 0.0
H333 H 0.79089 0.66506 0.37801 0.0
H334 H 0.82298 0.61821 0.31447 0.0
H335 H 0.74841 0.66783 0.35351 0.0
H336 H 0.81986 0.61177 0.47713 0.0
H337 H 0.78259 0.68522 0.45461 0.0
H338 H 0.92023 0.57318 0.29115 0.0
H339 H 0.846 0.5428 0.32187 0.0
H340 H 0.84651 0.74369 0.39273 0.0
H341 H 0.88427 0.67416 0.42437 0.0
H342 H 0.85799 0.76768 0.43399 0.0
H343 H 0.89519 0.69934 0.46493 0.0
H344 H 0.88752 0.71686 0.32664 0.0
H345 H 0.88171 0.6416 0.28698 0.0
H346 H 0.88783 0.73917 0.28285 0.0
H347 H 0.88219 0.66521 0.24386 0.0
H348 H 0.98937 0.69099 0.38457 0.0
H349 H 0.94103 0.76035 0.37246 0.0
H350 H 0.79266 0.75253 0.33237 0.0
H351 H 0.80199 0.69957 0.26597 0.0
Li352 Li 0.35014 0.85083 0.67747 0.0
Li353 Li 0.39313 0.85206 0.65199 0.0
Li354 Li 0.37201 0.8935 0.67301 0.0
Li355 Li 0.35247 0.87243 0.63468 0.0
C356 C 0.38838 0.84819 0.71399 0.0
N357 N 0.3915 0.82157 0.76172 0.0
C358 C 0.40472 0.826 0.71648 0.0
C359 C 0.37391 0.85705 0.73585 0.0
C360 C 0.40598 0.81278 0.74077 0.0
C361 C 0.37565 0.84325 0.75978 0.0
C362 C 0.3486 0.82119 0.6227 0.0
C363 C 0.35117 0.80438 0.57812 0.0
N364 N 0.32587 0.79521 0.58029 0.0
C365 C 0.32264 0.81162 0.62453 0.0
C366 C 0.36303 0.81757 0.59937 0.0
C367 C 0.31148 0.79856 0.60282 0.0
C368 C 0.30432 0.8367 0.70605 0.0
N369 N 0.32909 0.82866 0.69922 0.0
C370 C 0.32343 0.788 0.72278 0.0
C371 C 0.33869 0.80467 0.7068 0.0
C372 C 0.29797 0.79602 0.73033 0.0
C373 C 0.28827 0.82054 0.72176 0.0
H374 H 0.29691 0.8555 0.69908 0.0
H375 H 0.35814 0.79847 0.70035 0.0
C376 C 0.44902 0.84256 0.64748 0.0
N377 N 0.42437 0.83164 0.64606 0.0
C378 C 0.47151 0.82636 0.64632 0.0
C379 C 0.44276 0.78821 0.64178 0.0
C380 C 0.4209 0.80507 0.64304 0.0
C381 C 0.46837 0.79883 0.6438 0.0
H382 H 0.45118 0.8637 0.6503 0.0
H383 H 0.40108 0.79686 0.64252 0.0
C384 C 0.3201 0.90577 0.67572 0.0
N385 N 0.29214 0.9492 0.69374 0.0
C386 C 0.31023 0.9244 0.65776 0.0
C387 C 0.3156 0.90917 0.70283 0.0
C388 C 0.29614 0.94621 0.66727 0.0
C389 C 0.30151 0.93129 0.71155 0.0
C390 C 0.39204 0.90153 0.61363 0.0
C391 C 0.37784 0.92468 0.60844 0.0
C392 C 0.40959 0.89162 0.59468 0.0
C393 C 0.38124 0.93746 0.58412 0.0
C394 C 0.4125 0.90502 0.57062 0.0
N395 N 0.39835 0.92745 0.56588 0.0
C396 C 0.39463 0.92338 0.71478 0.0
C397 C 0.368 0.94903 0.68594 0.0
C398 C 0.39772 0.94494 0.7319 0.0
N399 N 0.37941 0.92555 0.69263 0.0
C400 C 0.36996 0.97089 0.70286 0.0
C401 C 0.3846 0.96881 0.72641 0.0
H402 H 0.40386 0.90469 0.71956 0.0
H403 H 0.3566 0.95062 0.66794 0.0
C404 C 0.30401 0.8746 0.6089 0.0
N405 N 0.33039 0.8761 0.60342 0.0
C406 C 0.28534 0.87467 0.58854 0.0
C407 C 0.32107 0.8777 0.55683 0.0
C408 C 0.33919 0.87736 0.57791 0.0
C409 C 0.2938 0.87616 0.56217 0.0
H410 H 0.29746 0.87265 0.62919 0.0
H411 H 0.36016 0.87729 0.57376 0.0
O412 O 0.3865 0.86112 0.69023 0.0
O413 O 0.35975 0.83428 0.6436 0.0
O414 O 0.33401 0.8843 0.66681 0.0
O415 O 0.38916 0.88883 0.63734 0.0
H416 H 0.41617 0.81894 0.69983 0.0
H417 H 0.36135 0.8743 0.73431 0.0
H418 H 0.41843 0.79549 0.74295 0.0
H419 H 0.36439 0.84976 0.7768 0.0
H420 H 0.36205 0.80149 0.55989 0.0
H421 H 0.31121 0.8144 0.64246 0.0
H422 H 0.3831 0.82505 0.59765 0.0
H423 H 0.29137 0.79112 0.60387 0.0
H424 H 0.33123 0.769 0.72896 0.0
H425 H 0.26853 0.82702 0.72715 0.0
H426 H 0.49108 0.83508 0.6481 0.0
H427 H 0.43974 0.76702 0.64001 0.0
H428 H 0.31374 0.92229 0.63674 0.0
H429 H 0.32302 0.89494 0.717 0.0
H430 H 0.28851 0.96084 0.65361 0.0
H431 H 0.29802 0.93423 0.73249 0.0
H432 H 0.36419 0.93255 0.62296 0.0
H433 H 0.42077 0.87373 0.5985 0.0
H434 H 0.37027 0.95532 0.57974 0.0
H435 H 0.42594 0.89757 0.55571 0.0
H436 H 0.40942 0.94274 0.74975 0.0
H437 H 0.35978 0.98909 0.69787 0.0
H438 H 0.26444 0.87312 0.5933 0.0
H439 H 0.32823 0.87845 0.53662 0.0
Li440 Li 0.85476 0.87463 0.89289 0.0
Li441 Li 0.87558 0.8937 0.85274 0.0
Li442 Li 0.85073 0.85193 0.85077 0.0
Li443 Li 0.89437 0.85418 0.87206 0.0
C444 C 0.81415 0.88904 0.84692 0.0
N445 N 0.76749 0.88996 0.81827 0.0
C446 C 0.81243 0.90403 0.8237 0.0
C447 C 0.79207 0.87469 0.85569 0.0
C448 C 0.78866 0.90423 0.80949 0.0
C449 C 0.76869 0.87533 0.84087 0.0
C450 C 0.90126 0.91448 0.89209 0.0
C451 C 0.93366 0.948 0.88132 0.0
N452 N 0.91976 0.96588 0.89588 0.0
C453 C 0.88734 0.93311 0.90704 0.0
C454 C 0.92468 0.92188 0.87922 0.0
C455 C 0.89702 0.95903 0.9087 0.0
C456 C 0.84469 0.87166 0.94875 0.0
N457 N 0.83571 0.88128 0.92522 0.0
C458 C 0.79543 0.89571 0.94564 0.0
C459 C 0.81191 0.8938 0.92348 0.0
C460 C 0.8035 0.88443 0.9697 0.0
C461 C 0.82863 0.87271 0.97133 0.0
H462 H 0.86387 0.86221 0.94976 0.0
H463 H 0.80536 0.90165 0.90469 0.0
C464 C 0.89517 0.9236 0.80939 0.0
N465 N 0.88175 0.92551 0.83269 0.0
C466 C 0.89708 0.94542 0.79243 0.0
C467 C 0.87165 0.971 0.82387 0.0
C468 C 0.8702 0.94865 0.84024 0.0
C469 C 0.8849 0.96931 0.7995 0.0
H470 H 0.90357 0.90487 0.80347 0.0
H471 H 0.85903 0.94947 0.8585 0.0
C472 C 0.85371 0.82278 0.90644 0.0
N473 N 0.83782 0.79598 0.9515 0.0
C474 C 0.8726 0.81293 0.92411 0.0
C475 C 0.82674 0.81887 0.9116 0.0
C476 C 0.86416 0.79945 0.94679 0.0
C477 C 0.81911 0.80533 0.93452 0.0
C478 C 0.90408 0.84696 0.82122 0.0
C479 C 0.89803 0.82237 0.80999 0.0
C480 C 0.93001 0.85675 0.81982 0.0
C481 C 0.91812 0.80785 0.79772 0.0
C482 C 0.94954 0.84161 0.80741 0.0
N483 N 0.94325 0.81768 0.79672 0.0
C484 C 0.82227 0.83889 0.80462 0.0
C485 C 0.82029 0.80663 0.8388 0.0
C486 C 0.80593 0.82347 0.78853 0.0
N487 N 0.82869 0.83045 0.82938 0.0
C488 C 0.80421 0.7904 0.82325 0.0
C489 C 0.7968 0.79895 0.79791 0.0
H490 H 0.82993 0.85757 0.79739 0.0
H491 H 0.8263 0.8001 0.85825 0.0
C492 C 0.94874 0.84316 0.88644 0.0
N493 N 0.92541 0.83302 0.87744 0.0
C494 C 0.97114 0.82691 0.88844 0.0
C495 C 0.94499 0.79026 0.87192 0.0
C496 C 0.92309 0.80704 0.87061 0.0
C497 C 0.96939 0.80019 0.88079 0.0
H498 H 0.95004 0.86389 0.89172 0.0
H499 H 0.90425 0.7995 0.86364 0.0
O500 O 0.83741 0.88818 0.86086 0.0
O501 O 0.89178 0.88922 0.8897 0.0
O502 O 0.86158 0.83622 0.88423 0.0
O503 O 0.88484 0.8612 0.83389 0.0
H504 H 0.82932 0.91515 0.81651 0.0
H505 H 0.79308 0.86295 0.87358 0.0
H506 H 0.78708 0.91563 0.79141 0.0
H507 H 0.75153 0.86414 0.84731 0.0
H508 H 0.95165 0.95409 0.87131 0.0
H509 H 0.86913 0.92768 0.91704 0.0
H510 H 0.93561 0.90767 0.8675 0.0
H511 H 0.88639 0.97372 0.92009 0.0
H512 H 0.77619 0.90501 0.94384 0.0
H513 H 0.83545 0.86396 0.98969 0.0
H514 H 0.90726 0.94348 0.77364 0.0
H515 H 0.86187 0.98915 0.82974 0.0
H516 H 0.89355 0.81588 0.92052 0.0
H517 H 0.81185 0.82642 0.89819 0.0
H518 H 0.87856 0.79181 0.9607 0.0
H519 H 0.79831 0.80229 0.93884 0.0
H520 H 0.87811 0.81443 0.81097 0.0
H521 H 0.93506 0.87566 0.82858 0.0
H522 H 0.91376 0.78873 0.78907 0.0
H523 H 0.96972 0.84885 0.80636 0.0
H524 H 0.80068 0.8304 0.76892 0.0
H525 H 0.79763 0.77139 0.83083 0.0
H526 H 0.98972 0.83514 0.89542 0.0
H527 H 0.94297 0.76975 0.8659 0.0
Li528 Li 0.13362 0.67365 0.86991 0.0
Li529 Li 0.17896 0.67572 0.84931 0.0
Li530 Li 0.15624 0.63368 0.85352 0.0
Li531 Li 0.17527 0.65466 0.89201 0.0
C532 C 0.13811 0.65574 0.80916 0.0
N533 N 0.12517 0.63481 0.76029 0.0
C534 C 0.15689 0.6554 0.7888 0.0
C535 C 0.11282 0.64523 0.80474 0.0
C536 C 0.14995 0.64476 0.76422 0.0
C537 C 0.10666 0.63475 0.77988 0.0
C538 C 0.17621 0.71731 0.88054 0.0
C539 C 0.21307 0.74789 0.87986 0.0
N540 N 0.19617 0.76793 0.87373 0.0
C541 C 0.15919 0.73823 0.87431 0.0
C542 C 0.20337 0.72219 0.88345 0.0
C543 C 0.16967 0.76367 0.87095 0.0
C544 C 0.09637 0.70504 0.89821 0.0
N545 N 0.10167 0.69354 0.87442 0.0
C546 C 0.06414 0.71484 0.85483 0.0
C547 C 0.08607 0.69809 0.85293 0.0
C548 C 0.05858 0.72747 0.87893 0.0
C549 C 0.07486 0.72231 0.90088 0.0
H550 H 0.10941 0.70149 0.91484 0.0
H551 H 0.09109 0.68938 0.83408 0.0
C552 C 0.22584 0.68943 0.82183 0.0
N553 N 0.20046 0.69689 0.8269 0.0
C554 C 0.24204 0.70516 0.80585 0.0
C555 C 0.20549 0.73564 0.80022 0.0
C556 C 0.18991 0.71918 0.81608 0.0
C557 C 0.23184 0.72862 0.79514 0.0
H558 H 0.23346 0.67126 0.83011 0.0
H559 H 0.16946 0.72422 0.81997 0.0
C560 C 0.12336 0.61716 0.89242 0.0
N561 N 0.09226 0.57262 0.89954 0.0
C562 C 0.13512 0.59285 0.89841 0.0
C563 C 0.0958 0.61891 0.89023 0.0
C564 C 0.11904 0.57052 0.90186 0.0
C565 C 0.08041 0.59614 0.89389 0.0
C566 C 0.21508 0.62871 0.87102 0.0
C567 C 0.21451 0.60118 0.87417 0.0
C568 C 0.23719 0.64307 0.87968 0.0
C569 C 0.2361 0.58848 0.88593 0.0
C570 C 0.25836 0.62964 0.89136 0.0
N571 N 0.25738 0.60286 0.89422 0.0
C572 C 0.17241 0.59429 0.8181 0.0
C573 C 0.12796 0.58763 0.8318 0.0
C574 C 0.17086 0.57262 0.80099 0.0
N575 N 0.15126 0.60129 0.83331 0.0
C576 C 0.12557 0.56569 0.81497 0.0
C577 C 0.14723 0.55809 0.79933 0.0
H578 H 0.19041 0.60595 0.81885 0.0
H579 H 0.11094 0.59414 0.84293 0.0
C580 C 0.20127 0.67326 0.93805 0.0
N581 N 0.19344 0.65071 0.9255 0.0
C582 C 0.21737 0.67199 0.96053 0.0
C583 C 0.21627 0.62423 0.9576 0.0
C584 C 0.19997 0.62642 0.93526 0.0
C585 C 0.22543 0.64726 0.97021 0.0
H586 H 0.19549 0.69233 0.93033 0.0
H587 H 0.19329 0.60874 0.92524 0.0
O588 O 0.14453 0.66611 0.83336 0.0
O589 O 0.16641 0.69213 0.88337 0.0
O590 O 0.13867 0.63927 0.88913 0.0
O591 O 0.19405 0.64155 0.85971 0.0
H592 H 0.17664 0.66316 0.79193 0.0
H593 H 0.09823 0.64479 0.82045 0.0
H594 H 0.16427 0.64437 0.74827 0.0
H595 H 0.0872 0.62647 0.7762 0.0
H596 H 0.23406 0.7519 0.88185 0.0
H597 H 0.13817 0.73485 0.87178 0.0
H598 H 0.21686 0.70623 0.88808 0.0
H599 H 0.15674 0.78001 0.86599 0.0
H600 H 0.05207 0.71853 0.83747 0.0
H601 H 0.07119 0.7319 0.91971 0.0
H602 H 0.2623 0.69924 0.80198 0.0
H603 H 0.19713 0.75358 0.79195 0.0
H604 H 0.15642 0.59119 0.90009 0.0
H605 H 0.08643 0.63765 0.88567 0.0
H606 H 0.12787 0.55153 0.90634 0.0
H607 H 0.05905 0.59715 0.89218 0.0
H608 H 0.19745 0.58975 0.86797 0.0
H609 H 0.2379 0.66438 0.87766 0.0
H610 H 0.23587 0.56721 0.88858 0.0
H611 H 0.27555 0.64052 0.89821 0.0
H612 H 0.18782 0.56741 0.78891 0.0
H613 H 0.10692 0.55507 0.81378 0.0
H614 H 0.22397 0.69013 0.96994 0.0
H615 H 0.22208 0.60483 0.96468 0.0
Li616 Li 0.85057 0.17811 0.6791 0.0
Li617 Li 0.87093 0.13566 0.67585 0.0
Li618 Li 0.89271 0.1769 0.65658 0.0
Li619 Li 0.85144 0.15718 0.63674 0.0
C620 C 0.889 0.17471 0.71916 0.0
N621 N 0.89619 0.19005 0.77117 0.0
C622 C 0.87318 0.16383 0.73915 0.0
C623 C 0.90855 0.1933 0.7256 0.0
C624 C 0.8771 0.17188 0.76533 0.0
C625 C 0.91187 0.20081 0.75202 0.0
C626 C 0.8198 0.12179 0.6629 0.0
C627 C 0.81776 0.07931 0.64108 0.0
N628 N 0.79262 0.07589 0.65022 0.0
C629 C 0.79395 0.11784 0.67208 0.0
C630 C 0.83184 0.10236 0.64727 0.0
C631 C 0.78053 0.09451 0.66546 0.0
C632 C 0.80197 0.19565 0.69862 0.0
N633 N 0.82856 0.199 0.7016 0.0
C634 C 0.8217 0.23206 0.7347 0.0
C635 C 0.83862 0.21685 0.71915 0.0
C636 C 0.79427 0.22885 0.73203 0.0
C637 C 0.78428 0.21045 0.71382 0.0
H638 H 0.79452 0.18165 0.68422 0.0
H639 H 0.85974 0.21982 0.72072 0.0
C640 C 0.89807 0.0883 0.69335 0.0
N641 N 0.87594 0.10352 0.69559 0.0
C642 C 0.9011 0.06572 0.70928 0.0
C643 C 0.85855 0.07493 0.72926 0.0
C644 C 0.85634 0.0972 0.71304 0.0
C645 C 0.88118 0.05902 0.72757 0.0
H646 H 0.91342 0.09383 0.67942 0.0
H647 H 0.83903 0.10968 0.71461 0.0
C648 C 0.85004 0.21979 0.64856 0.0
N649 N 0.82957 0.26969 0.65798 0.0
C650 C 0.82664 0.22781 0.63612 0.0
C651 C 0.8632 0.23733 0.66553 0.0
C652 C 0.81655 0.25306 0.64123 0.0
C653 C 0.85252 0.26243 0.67007 0.0
C654 C 0.90082 0.13962 0.61614 0.0
C655 C 0.90153 0.16209 0.59994 0.0
C656 C 0.91334 0.11639 0.60791 0.0
C657 C 0.9148 0.16091 0.57569 0.0
C658 C 0.92637 0.11599 0.58349 0.0
N659 N 0.92683 0.13807 0.56803 0.0
C660 C 0.94884 0.18626 0.65929 0.0
C661 C 0.92363 0.22046 0.63944 0.0
C662 C 0.9719 0.20174 0.65751 0.0
N663 N 0.92524 0.19602 0.65068 0.0
C664 C 0.94588 0.23691 0.63818 0.0
C665 C 0.97039 0.22772 0.64752 0.0
H666 H 0.94962 0.16674 0.6681 0.0
H667 H 0.90489 0.22754 0.63197 0.0
C668 C 0.80572 0.16199 0.60635 0.0
N669 N 0.83052 0.15151 0.60531 0.0
C670 C 0.78869 0.16009 0.58462 0.0
C671 C 0.82228 0.13505 0.56157 0.0
C672 C 0.83885 0.13774 0.58367 0.0
C673 C 0.79703 0.14669 0.5618 0.0
H674 H 0.79918 0.17188 0.62416 0.0
H675 H 0.85823 0.12874 0.58347 0.0
O676 O 0.88545 0.16729 0.69338 0.0
O677 O 0.83303 0.14467 0.66918 0.0
O678 O 0.86 0.19491 0.64427 0.0
O679 O 0.88803 0.14023 0.64001 0.0
H680 H 0.85775 0.14971 0.73445 0.0
H681 H 0.92091 0.20196 0.71033 0.0
H682 H 0.86489 0.16376 0.78099 0.0
H683 H 0.92686 0.21524 0.7573 0.0
H684 H 0.82684 0.06414 0.629 0.0
H685 H 0.78434 0.13263 0.68423 0.0
H686 H 0.85181 0.10495 0.63996 0.0
H687 H 0.76051 0.0912 0.67243 0.0
H688 H 0.82986 0.24634 0.74851 0.0
H689 H 0.76312 0.20772 0.71133 0.0
H690 H 0.91879 0.05374 0.70753 0.0
H691 H 0.84285 0.07025 0.74315 0.0
H692 H 0.81641 0.21482 0.62256 0.0
H693 H 0.88118 0.2314 0.67558 0.0
H694 H 0.79839 0.25945 0.63182 0.0
H695 H 0.86237 0.27606 0.68339 0.0
H696 H 0.89182 0.18021 0.60589 0.0
H697 H 0.91294 0.09884 0.62025 0.0
H698 H 0.91548 0.17813 0.56293 0.0
H699 H 0.93612 0.09813 0.57683 0.0
H700 H 0.99054 0.19389 0.66467 0.0
H701 H 0.94396 0.25671 0.63013 0.0
H702 H 0.7692 0.169 0.58559 0.0
H703 H 0.82917 0.12426 0.54436 0.0
Li704 Li 0.1583 0.39528 0.67195 0.0
Li705 Li 0.1802 0.35055 0.67646 0.0
Li706 Li 0.17764 0.37235 0.63358 0.0
Li707 Li 0.13773 0.35274 0.65252 0.0
C708 C 0.21859 0.39514 0.6564 0.0
N709 N 0.26434 0.41448 0.63327 0.0
C710 C 0.24178 0.38006 0.65681 0.0
C711 C 0.21868 0.42014 0.64449 0.0
C712 C 0.26471 0.39018 0.64495 0.0
C713 C 0.24201 0.42954 0.63282 0.0
C714 C 0.14015 0.3531 0.71473 0.0
C715 C 0.12715 0.31764 0.74405 0.0
N716 N 0.13102 0.33391 0.76518 0.0
C717 C 0.14371 0.36958 0.7367 0.0
C718 C 0.13154 0.32702 0.71838 0.0
C719 C 0.13911 0.35946 0.76205 0.0
C720 C 0.12868 0.43795 0.69542 0.0
N721 N 0.15311 0.42724 0.69151 0.0
C722 C 0.17284 0.45914 0.72053 0.0
C723 C 0.17499 0.43744 0.70356 0.0
C724 C 0.14791 0.47036 0.72522 0.0
C725 C 0.12561 0.45976 0.71232 0.0
H726 H 0.11155 0.42916 0.68594 0.0
H727 H 0.19409 0.42824 0.70054 0.0
C728 C 0.21393 0.30813 0.6893 0.0
N729 N 0.20171 0.32997 0.6992 0.0
C730 C 0.22957 0.29237 0.70567 0.0
C731 C 0.22095 0.32265 0.74178 0.0
C732 C 0.20536 0.33778 0.72472 0.0
C733 C 0.23296 0.29959 0.73221 0.0
H734 H 0.21173 0.30304 0.66866 0.0
H735 H 0.19636 0.35583 0.73175 0.0
C736 C 0.13238 0.39474 0.61155 0.0
N737 N 0.11474 0.40603 0.56104 0.0
C738 C 0.12977 0.37446 0.59291 0.0
C739 C 0.12604 0.42075 0.60457 0.0
C740 C 0.12081 0.38057 0.56746 0.0
C741 C 0.11714 0.42606 0.57891 0.0
C742 C 0.16821 0.30952 0.63368 0.0
C743 C 0.17209 0.30316 0.60701 0.0
C744 C 0.16094 0.28965 0.65159 0.0
C745 C 0.16852 0.27699 0.5987 0.0
C746 C 0.15757 0.26373 0.6425 0.0
N747 N 0.16138 0.25799 0.61647 0.0
C748 C 0.21814 0.35826 0.59908 0.0
C749 C 0.19534 0.39639 0.58395 0.0
C750 C 0.23536 0.35936 0.57748 0.0
N751 N 0.19856 0.37653 0.60192 0.0
C752 C 0.21191 0.39798 0.56173 0.0
C753 C 0.2322 0.37927 0.55838 0.0
H754 H 0.22051 0.3429 0.61383 0.0
H755 H 0.18012 0.4111 0.58688 0.0
C756 C 0.08498 0.33751 0.66513 0.0
N757 N 0.10501 0.33326 0.64759 0.0
C758 C 0.0622 0.32157 0.66468 0.0
C759 C 0.08102 0.29715 0.62816 0.0
C760 C 0.10293 0.31412 0.6287 0.0
C761 C 0.06039 0.30059 0.64647 0.0
H762 H 0.08699 0.35285 0.67995 0.0
H763 H 0.11852 0.31144 0.61439 0.0
O764 O 0.19571 0.38517 0.66699 0.0
O765 O 0.14471 0.36264 0.68978 0.0
O766 O 0.14165 0.38929 0.63636 0.0
O767 O 0.17136 0.3351 0.64207 0.0
H768 H 0.24196 0.36062 0.66588 0.0
H769 H 0.2008 0.43195 0.64392 0.0
H770 H 0.28277 0.37867 0.64493 0.0
H771 H 0.24233 0.44875 0.62331 0.0
H772 H 0.12059 0.29745 0.74717 0.0
H773 H 0.15021 0.38988 0.73422 0.0
H774 H 0.12815 0.31418 0.70158 0.0
H775 H 0.14197 0.37192 0.77925 0.0
H776 H 0.19037 0.46683 0.7303 0.0
H777 H 0.10608 0.46797 0.71568 0.0
H778 H 0.23904 0.27484 0.69775 0.0
H779 H 0.22364 0.32881 0.76216 0.0
H780 H 0.13501 0.35431 0.59793 0.0
H781 H 0.12813 0.43666 0.6188 0.0
H782 H 0.1188 0.3651 0.55277 0.0
H783 H 0.11221 0.44611 0.57318 0.0
H784 H 0.17747 0.31832 0.59282 0.0
H785 H 0.15802 0.29419 0.6723 0.0
H786 H 0.17134 0.27181 0.57811 0.0
H787 H 0.15192 0.24817 0.65615 0.0
H788 H 0.25087 0.34469 0.57553 0.0
H789 H 0.20902 0.41365 0.54736 0.0
H790 H 0.04656 0.32496 0.67897 0.0
H791 H 0.08025 0.28134 0.61367 0.0
Li792 Li 0.63339 0.17134 0.3712 0.0
Li793 Li 0.67896 0.17439 0.35095 0.0
Li794 Li 0.65684 0.13198 0.35473 0.0
Li795 Li 0.6752 0.1528 0.39339 0.0
C796 C 0.63802 0.15413 0.31071 0.0
N797 N 0.62447 0.13281 0.26219 0.0
C798 C 0.65717 0.15154 0.29088 0.0
C799 C 0.61199 0.14587 0.3059 0.0
C800 C 0.64992 0.1407 0.26647 0.0
C801 C 0.60554 0.13512 0.28123 0.0
C802 C 0.67456 0.21583 0.38291 0.0
C803 C 0.71018 0.24786 0.38296 0.0
N804 N 0.69244 0.26739 0.3776 0.0
C805 C 0.65667 0.23626 0.37757 0.0
C806 C 0.70152 0.2217 0.38583 0.0
C807 C 0.6661 0.26219 0.37492 0.0
C808 C 0.5917 0.19701 0.39957 0.0
N809 N 0.60112 0.19072 0.37512 0.0
C810 C 0.56758 0.21702 0.35445 0.0
C811 C 0.58954 0.20031 0.35277 0.0
C812 C 0.55772 0.22422 0.37938 0.0
C813 C 0.56986 0.2139 0.40218 0.0
H814 H 0.60161 0.18952 0.41702 0.0
H815 H 0.59786 0.19564 0.33361 0.0
C816 C 0.72495 0.18836 0.32215 0.0
N817 N 0.69994 0.19603 0.32856 0.0
C818 C 0.74059 0.2042 0.30571 0.0
C819 C 0.70426 0.23528 0.30247 0.0
C820 C 0.68922 0.21868 0.31871 0.0
C821 C 0.73022 0.22799 0.29595 0.0
H822 H 0.73267 0.16988 0.32963 0.0
H823 H 0.669 0.22386 0.32354 0.0
C824 C 0.6245 0.11402 0.39272 0.0
N825 N 0.59545 0.06786 0.39788 0.0
C826 C 0.63737 0.09002 0.39755 0.0
C827 C 0.59687 0.11465 0.39074 0.0
C828 C 0.62232 0.06686 0.4 0.0
C829 C 0.58253 0.09106 0.39339 0.0
C830 C 0.71642 0.12904 0.37239 0.0
C831 C 0.71771 0.10158 0.37587 0.0
C832 C 0.7376 0.14492 0.3807 0.0
C833 C 0.74015 0.0905 0.38768 0.0
C834 C 0.75965 0.13309 0.39248 0.0
N835 N 0.76046 0.10635 0.3957 0.0
C836 C 0.67392 0.09139 0.32077 0.0
C837 C 0.62823 0.0875 0.33097 0.0
C838 C 0.67242 0.06966 0.30372 0.0
N839 N 0.65213 0.09974 0.33427 0.0
C840 C 0.62582 0.06566 0.31403 0.0
C841 C 0.64814 0.05659 0.30021 0.0
H842 H 0.69244 0.10204 0.32273 0.0
H843 H 0.61085 0.09512 0.34078 0.0
C844 C 0.70004 0.17154 0.43999 0.0
N845 N 0.69325 0.14895 0.42693 0.0
C846 C 0.71601 0.17048 0.46257 0.0
C847 C 0.71715 0.12281 0.45852 0.0
C848 C 0.70077 0.12476 0.43622 0.0
C849 C 0.72522 0.14593 0.47171 0.0
H850 H 0.69354 0.1905 0.43257 0.0
H851 H 0.69482 0.10702 0.42585 0.0
O852 O 0.64481 0.16436 0.33484 0.0
O853 O 0.66577 0.19022 0.38506 0.0
O854 O 0.63881 0.1369 0.39026 0.0
O855 O 0.69449 0.14031 0.3611 0.0
H856 H 0.67746 0.15763 0.29436 0.0
H857 H 0.59702 0.14743 0.32118 0.0
H858 H 0.66454 0.13848 0.25096 0.0
H859 H 0.5855 0.12853 0.27726 0.0
H860 H 0.73101 0.25263 0.38494 0.0
H861 H 0.63575 0.23218 0.37527 0.0
H862 H 0.71564 0.20619 0.39001 0.0
H863 H 0.65249 0.27815 0.37066 0.0
H864 H 0.55876 0.22481 0.33651 0.0
H865 H 0.56279 0.21924 0.42171 0.0
H866 H 0.76053 0.19806 0.30071 0.0
H867 H 0.69575 0.25347 0.29493 0.0
H868 H 0.65874 0.08924 0.39907 0.0
H869 H 0.58666 0.13313 0.38707 0.0
H870 H 0.63201 0.04809 0.40354 0.0
H871 H 0.56114 0.0912 0.3918 0.0
H872 H 0.70141 0.08896 0.36994 0.0
H873 H 0.73694 0.16619 0.37828 0.0
H874 H 0.74134 0.0693 0.39061 0.0
H875 H 0.7761 0.14518 0.39912 0.0
H876 H 0.68992 0.06335 0.29303 0.0
H877 H 0.60669 0.05622 0.31139 0.0
H878 H 0.72173 0.18868 0.47242 0.0
H879 H 0.72382 0.10353 0.46515 0.0
Li880 Li 0.63578 0.67682 0.65651 0.0
Li881 Li 0.67855 0.6799 0.67727 0.0
Li882 Li 0.67406 0.65827 0.6348 0.0
Li883 Li 0.65818 0.63504 0.6745 0.0
C884 C 0.6576 0.71451 0.62677 0.0
N885 N 0.63528 0.75186 0.59355 0.0
C886 C 0.66031 0.74151 0.63236 0.0
C887 C 0.64387 0.70655 0.60409 0.0
C888 C 0.64881 0.76008 0.61537 0.0
C889 C 0.63264 0.72571 0.5876 0.0
C890 C 0.6483 0.6749 0.71933 0.0
C891 C 0.67027 0.66989 0.76148 0.0
N892 N 0.65734 0.69164 0.77067 0.0
C893 C 0.63509 0.69709 0.72926 0.0
C894 C 0.66591 0.66109 0.73562 0.0
C895 C 0.63998 0.70527 0.75524 0.0
C896 C 0.58205 0.68738 0.63941 0.0
N897 N 0.60355 0.69651 0.65292 0.0
C898 C 0.58156 0.7374 0.66223 0.0
C899 C 0.60369 0.721 0.66415 0.0
C900 C 0.55912 0.72851 0.64852 0.0
C901 C 0.5594 0.70322 0.63695 0.0
H902 H 0.58254 0.66791 0.63049 0.0
H903 H 0.62121 0.72792 0.6744 0.0
C904 C 0.72114 0.69037 0.71175 0.0
N905 N 0.69987 0.70126 0.69935 0.0
C906 C 0.73694 0.70583 0.72833 0.0
C907 C 0.70846 0.74328 0.71919 0.0
C908 C 0.69304 0.72702 0.70302 0.0
C909 C 0.7307 0.73263 0.73191 0.0
H910 H 0.7257 0.66965 0.70887 0.0
H911 H 0.67549 0.73479 0.69358 0.0
C912 C 0.63615 0.62216 0.62038 0.0
N913 N 0.63105 0.58492 0.5806 0.0
C914 C 0.64601 0.59655 0.62396 0.0
C915 C 0.62333 0.62871 0.59673 0.0
C916 C 0.64331 0.57803 0.60357 0.0
C917 C 0.62108 0.60965 0.5768 0.0
C918 C 0.71935 0.6416 0.65647 0.0
C919 C 0.73585 0.66298 0.65012 0.0
C920 C 0.72803 0.61573 0.65195 0.0
C921 C 0.7609 0.65809 0.63945 0.0
C922 C 0.75322 0.61167 0.6412 0.0
N923 N 0.769 0.63275 0.63525 0.0
C924 C 0.7035 0.67582 0.5903 0.0
C925 C 0.69956 0.62909 0.59236 0.0
C926 C 0.72005 0.67401 0.5682 0.0
N927 N 0.69342 0.65358 0.60187 0.0
C928 C 0.71615 0.62636 0.5703 0.0
C929 C 0.72664 0.64906 0.55811 0.0
H930 H 0.69956 0.69503 0.59874 0.0
H931 H 0.69257 0.61161 0.60249 0.0
C932 C 0.63057 0.59064 0.69712 0.0
N933 N 0.65455 0.60269 0.69403 0.0
C934 C 0.62814 0.56823 0.71334 0.0
C935 C 0.67506 0.5711 0.72278 0.0
C936 C 0.67664 0.59321 0.70621 0.0
C937 C 0.65055 0.55849 0.72665 0.0
H938 H 0.6133 0.5987 0.68733 0.0
H939 H 0.6954 0.60332 0.70364 0.0
O940 O 0.66785 0.6959 0.64364 0.0
O941 O 0.64456 0.66709 0.69363 0.0
O942 O 0.63849 0.64052 0.64017 0.0
O943 O 0.69462 0.64602 0.66662 0.0
H944 H 0.6711 0.74811 0.64963 0.0
H945 H 0.64183 0.68578 0.59939 0.0
H946 H 0.65062 0.78102 0.61954 0.0
H947 H 0.62179 0.71978 0.57009 0.0
H948 H 0.68405 0.65953 0.77419 0.0
H949 H 0.62124 0.70791 0.71708 0.0
H950 H 0.67658 0.64413 0.72819 0.0
H951 H 0.62998 0.72248 0.76313 0.0
H952 H 0.58194 0.75685 0.67128 0.0
H953 H 0.5423 0.69588 0.62622 0.0
H954 H 0.75391 0.69709 0.73812 0.0
H955 H 0.70309 0.76388 0.72186 0.0
H956 H 0.65605 0.59112 0.64206 0.0
H957 H 0.61505 0.64824 0.59382 0.0
H958 H 0.65107 0.55821 0.60598 0.0
H959 H 0.61132 0.61448 0.55836 0.0
H960 H 0.72925 0.68315 0.65314 0.0
H961 H 0.71535 0.59899 0.6565 0.0
H962 H 0.77386 0.67444 0.63435 0.0
H963 H 0.7602 0.59176 0.63752 0.0
H964 H 0.72817 0.69188 0.55945 0.0
H965 H 0.72127 0.60679 0.5632 0.0
H966 H 0.60895 0.55888 0.7159 0.0
H967 H 0.6927 0.56408 0.73277 0.0
Li968 Li 0.65651 0.39408 0.85349 0.0
Li969 Li 0.67537 0.37368 0.8922 0.0
Li970 Li 0.67801 0.35173 0.84973 0.0
Li971 Li 0.63478 0.35294 0.87467 0.0
C972 C 0.70733 0.40742 0.85104 0.0
N973 N 0.73275 0.45235 0.83245 0.0
C974 C 0.71633 0.42674 0.86876 0.0
C975 C 0.71136 0.41096 0.82386 0.0
C976 C 0.72915 0.44929 0.85897 0.0
C977 C 0.72419 0.43382 0.81486 0.0
C978 C 0.63563 0.4025 0.91263 0.0
C979 C 0.61409 0.40632 0.95508 0.0
N980 N 0.62913 0.42806 0.96052 0.0
C981 C 0.65073 0.42499 0.91853 0.0
C982 C 0.61706 0.39311 0.93095 0.0
C983 C 0.64722 0.43758 0.9429 0.0
C984 C 0.63778 0.42344 0.80955 0.0
N985 N 0.64969 0.42608 0.83359 0.0
C986 C 0.65758 0.47218 0.82534 0.0
C987 C 0.6587 0.45008 0.84205 0.0
C988 C 0.64649 0.46964 0.79999 0.0
C989 C 0.63585 0.44509 0.79239 0.0
H990 H 0.63038 0.40434 0.80333 0.0
H991 H 0.66773 0.45191 0.86134 0.0
C992 C 0.72296 0.37908 0.92065 0.0
N993 N 0.69624 0.37764 0.92425 0.0
C994 C 0.7401 0.3801 0.94236 0.0
C995 C 0.70209 0.37758 0.97137 0.0
C996 C 0.68565 0.37648 0.94905 0.0
C997 C 0.72963 0.37939 0.96803 0.0
H998 H 0.73105 0.37886 0.90082 0.0
H999 H 0.66456 0.37395 0.95162 0.0
C1000 C 0.64056 0.34743 0.81324 0.0
N1001 N 0.63886 0.31815 0.76702 0.0
C1002 C 0.6241 0.32517 0.81142 0.0
C1003 C 0.65587 0.355 0.7914 0.0
C1004 C 0.62356 0.3106 0.78791 0.0
C1005 C 0.65485 0.33986 0.76827 0.0
C1006 C 0.68016 0.32226 0.90385 0.0
C1007 C 0.70675 0.31489 0.90158 0.0
C1008 C 0.66608 0.31621 0.92692 0.0
C1009 C 0.71888 0.30159 0.92258 0.0
C1010 C 0.67894 0.30289 0.94748 0.0
N1011 N 0.70484 0.29589 0.94489 0.0
C1012 C 0.7223 0.33754 0.81869 0.0
C1013 C 0.68946 0.3041 0.82368 0.0
C1014 C 0.73746 0.32092 0.80272 0.0
N1015 N 0.69867 0.32899 0.82847 0.0
C1016 C 0.7039 0.28687 0.80769 0.0
C1017 C 0.72813 0.29537 0.79707 0.0
H1018 H 0.72943 0.35716 0.8234 0.0
H1019 H 0.67083 0.29774 0.83222 0.0
C1020 C 0.57889 0.34295 0.88072 0.0
N1021 N 0.60362 0.33223 0.88086 0.0
C1022 C 0.55651 0.3265 0.88235 0.0
C1023 C 0.58552 0.2885 0.88459 0.0
C1024 C 0.60727 0.30561 0.88301 0.0
C1025 C 0.55983 0.29894 0.88396 0.0
H1026 H 0.57656 0.36415 0.87862 0.0
H1027 H 0.62712 0.29758 0.88257 0.0
O1028 O 0.69461 0.38523 0.86023 0.0
O1029 O 0.63873 0.38988 0.88892 0.0
O1030 O 0.64179 0.36164 0.83631 0.0
O1031 O 0.66802 0.33552 0.88365 0.0
H1032 H 0.71314 0.42458 0.88983 0.0
H1033 H 0.70447 0.39633 0.80983 0.0
H1034 H 0.7361 0.46443 0.87246 0.0
H1035 H 0.7273 0.43685 0.79387 0.0
H1036 H 0.59988 0.39924 0.96951 0.0
H1037 H 0.66522 0.43241 0.90459 0.0
H1038 H 0.6052 0.37574 0.92662 0.0
H1039 H 0.65892 0.45489 0.94783 0.0
H1040 H 0.66584 0.49091 0.83187 0.0
H1041 H 0.62695 0.44254 0.77303 0.0
H1042 H 0.76132 0.38108 0.93919 0.0
H1043 H 0.69348 0.37651 0.99099 0.0
H1044 H 0.61194 0.31912 0.82798 0.0
H1045 H 0.66862 0.37221 0.79239 0.0
H1046 H 0.61101 0.29326 0.78629 0.0
H1047 H 0.66679 0.34536 0.75132 0.0
H1048 H 0.71791 0.31955 0.88385 0.0
H1049 H 0.64552 0.32196 0.92899 0.0
H1050 H 0.73948 0.29584 0.92118 0.0
H1051 H 0.66834 0.29816 0.96551 0.0
H1052 H 0.75626 0.32782 0.79491 0.0
H1053 H 0.69639 0.26714 0.80372 0.0
H1054 H 0.53686 0.33508 0.88166 0.0
H1055 H 0.58867 0.2673 0.88564 0.0
Li1056 Li 0.35182 0.15694 0.89161 0.0
Li1057 Li 0.37164 0.13407 0.85157 0.0
Li1058 Li 0.39251 0.17599 0.87171 0.0
Li1059 Li 0.35108 0.17678 0.84903 0.0
C1060 C 0.39142 0.11769 0.90316 0.0
N1061 N 0.39839 0.07274 0.93358 0.0
C1062 C 0.37554 0.09536 0.89887 0.0
C1063 C 0.41086 0.11718 0.92286 0.0
C1064 C 0.37939 0.07281 0.91445 0.0
C1065 C 0.41404 0.09427 0.93807 0.0
C1066 C 0.31088 0.14476 0.84587 0.0
C1067 C 0.286 0.14069 0.80524 0.0
N1068 N 0.26426 0.15057 0.81768 0.0
C1069 C 0.28824 0.15474 0.85826 0.0
C1070 C 0.30974 0.1376 0.81914 0.0
C1071 C 0.26488 0.1576 0.84367 0.0
C1072 C 0.31252 0.17238 0.92732 0.0
N1073 N 0.33131 0.15337 0.92386 0.0
C1074 C 0.31796 0.13217 0.96424 0.0
C1075 C 0.33445 0.13359 0.94196 0.0
C1076 C 0.29823 0.15133 0.9679 0.0
C1077 C 0.29568 0.17174 0.94928 0.0
H1078 H 0.31044 0.18801 0.9128 0.0
H1079 H 0.34957 0.11883 0.93926 0.0
C1080 C 0.40192 0.09498 0.82344 0.0
N1081 N 0.3775 0.10138 0.83293 0.0
C1082 C 0.40516 0.07263 0.80729 0.0
C1083 C 0.35819 0.06389 0.8112 0.0
C1084 C 0.35598 0.08594 0.82771 0.0
C1085 C 0.38294 0.05719 0.8005 0.0
H1086 H 0.41871 0.10762 0.82783 0.0
H1087 H 0.33689 0.09109 0.83588 0.0
C1088 C 0.36521 0.20776 0.90576 0.0
N1089 N 0.37637 0.23461 0.95216 0.0
C1090 C 0.35645 0.23378 0.90925 0.0
C1091 C 0.37975 0.19545 0.92587 0.0
C1092 C 0.36227 0.24701 0.93285 0.0
C1093 C 0.38515 0.20934 0.94917 0.0
C1094 C 0.38943 0.17697 0.80993 0.0
C1095 C 0.39298 0.20431 0.8072 0.0
C1096 C 0.38955 0.1608 0.78746 0.0
C1097 C 0.39631 0.21509 0.78192 0.0
C1098 C 0.393 0.17235 0.76253 0.0
N1099 N 0.39625 0.19902 0.7603 0.0
C1100 C 0.44804 0.18479 0.88342 0.0
C1101 C 0.42218 0.22269 0.87349 0.0
C1102 C 0.47085 0.20057 0.88581 0.0
N1103 N 0.42437 0.19607 0.87717 0.0
C1104 C 0.44439 0.2391 0.87554 0.0
C1105 C 0.46906 0.22802 0.88159 0.0
H1106 H 0.44926 0.16357 0.88619 0.0
H1107 H 0.40315 0.23119 0.86859 0.0
C1108 C 0.31606 0.2184 0.83941 0.0
N1109 N 0.32975 0.19887 0.82694 0.0
C1110 C 0.29987 0.23545 0.82494 0.0
C1111 C 0.31193 0.2118 0.78507 0.0
C1112 C 0.32776 0.19513 0.80032 0.0
C1113 C 0.29791 0.23219 0.79749 0.0
H1114 H 0.31756 0.22057 0.86064 0.0
H1115 H 0.33808 0.17901 0.7909 0.0
O1116 O 0.38831 0.13986 0.88794 0.0
O1117 O 0.33412 0.14236 0.8597 0.0
O1118 O 0.35964 0.19468 0.88264 0.0
O1119 O 0.38605 0.16597 0.83446 0.0
H1120 H 0.3601 0.0956 0.88404 0.0
H1121 H 0.42333 0.13432 0.92636 0.0
H1122 H 0.36718 0.05541 0.91144 0.0
H1123 H 0.42898 0.09359 0.95343 0.0
H1124 H 0.28493 0.13545 0.78449 0.0
H1125 H 0.28866 0.16031 0.8789 0.0
H1126 H 0.32719 0.13039 0.809 0.0
H1127 H 0.24726 0.16542 0.853 0.0
H1128 H 0.32049 0.11625 0.97841 0.0
H1129 H 0.28069 0.18689 0.95165 0.0
H1130 H 0.42459 0.0679 0.79952 0.0
H1131 H 0.34068 0.05231 0.80657 0.0
H1132 H 0.34532 0.2437 0.89386 0.0
H1133 H 0.38679 0.1754 0.92362 0.0
H1134 H 0.3556 0.26715 0.9358 0.0
H1135 H 0.39633 0.20002 0.96489 0.0
H1136 H 0.39269 0.2171 0.82433 0.0
H1137 H 0.38678 0.13961 0.78921 0.0
H1138 H 0.39886 0.23624 0.77949 0.0
H1139 H 0.39302 0.16011 0.74495 0.0
H1140 H 0.48972 0.19149 0.89045 0.0
H1141 H 0.44241 0.26021 0.87218 0.0
H1142 H 0.28902 0.25099 0.83497 0.0
H1143 H 0.31047 0.20875 0.76388 0.0
Li1144 Li 0.37515 0.39104 0.35081 0.0
Li1145 Li 0.35361 0.37164 0.38934 0.0
Li1146 Li 0.39376 0.35075 0.37073 0.0
Li1147 Li 0.34993 0.34827 0.34687 0.0
C1148 C 0.39811 0.41017 0.39764 0.0
N1149 N 0.41359 0.45856 0.41806 0.0
C1150 C 0.3791 0.42819 0.40646 0.0
C1151 C 0.42502 0.41658 0.39953 0.0
C1152 C 0.38731 0.4526 0.41664 0.0
C1153 C 0.43245 0.4412 0.40981 0.0
C1154 C 0.31545 0.39941 0.35477 0.0
C1155 C 0.26889 0.40548 0.34581 0.0
N1156 N 0.27132 0.4316 0.35202 0.0
C1157 C 0.31755 0.42635 0.3608 0.0
C1158 C 0.291 0.3889 0.34694 0.0
C1159 C 0.29499 0.44228 0.35939 0.0
C1160 C 0.36338 0.42607 0.31015 0.0
N1161 N 0.38132 0.42241 0.32993 0.0
C1162 C 0.40485 0.46156 0.31669 0.0
C1163 C 0.40196 0.43952 0.33337 0.0
C1164 C 0.3863 0.46591 0.29642 0.0
C1165 C 0.3654 0.44786 0.29321 0.0
H1166 H 0.34745 0.41194 0.30749 0.0
H1167 H 0.41634 0.43602 0.34879 0.0
C1168 C 0.34479 0.37891 0.44524 0.0
N1169 N 0.33295 0.37732 0.42106 0.0
C1170 C 0.32937 0.38028 0.4683 0.0
C1171 C 0.28997 0.37917 0.44111 0.0
C1172 C 0.30608 0.37731 0.41872 0.0
C1173 C 0.30158 0.38031 0.4663 0.0
H1174 H 0.36619 0.37833 0.44665 0.0
H1175 H 0.29702 0.3749 0.39954 0.0
C1176 C 0.40819 0.35963 0.3179 0.0
N1177 N 0.45444 0.36248 0.28877 0.0
C1178 C 0.41034 0.34588 0.294 0.0
C1179 C 0.42953 0.37477 0.32705 0.0
C1180 C 0.43391 0.34759 0.27954 0.0
C1181 C 0.45274 0.37599 0.31201 0.0
C1182 C 0.3542 0.32151 0.40538 0.0
C1183 C 0.37396 0.31847 0.42453 0.0
C1184 C 0.32831 0.31327 0.41094 0.0
C1185 C 0.36752 0.30701 0.4489 0.0
C1186 C 0.32272 0.30168 0.43545 0.0
N1187 N 0.34226 0.29886 0.45379 0.0
C1188 C 0.4443 0.33593 0.39343 0.0
C1189 C 0.42663 0.30814 0.35989 0.0
C1190 C 0.46655 0.31952 0.39587 0.0
N1191 N 0.42494 0.32991 0.37565 0.0
C1192 C 0.44852 0.29137 0.36154 0.0
C1193 C 0.46877 0.29699 0.3797 0.0
H1194 H 0.4424 0.35332 0.40578 0.0
H1195 H 0.41089 0.30386 0.34597 0.0
C1196 C 0.32569 0.33532 0.29869 0.0
N1197 N 0.32863 0.32764 0.32433 0.0
C1198 C 0.31023 0.32021 0.28141 0.0
C1199 C 0.30097 0.28987 0.31744 0.0
C1200 C 0.3169 0.30534 0.33388 0.0
C1201 C 0.29759 0.2973 0.29091 0.0
H1202 H 0.33547 0.35312 0.29172 0.0
H1203 H 0.32005 0.29947 0.35419 0.0
O1204 O 0.39057 0.38618 0.38754 0.0
O1205 O 0.33726 0.3834 0.35588 0.0
O1206 O 0.3855 0.35764 0.33259 0.0
O1207 O 0.36012 0.33286 0.38147 0.0
H1208 H 0.35823 0.42335 0.4056 0.0
H1209 H 0.44001 0.40278 0.3929 0.0
H1210 H 0.37279 0.46677 0.42347 0.0
H1211 H 0.45319 0.44651 0.41122 0.0
H1212 H 0.24981 0.39759 0.33996 0.0
H1213 H 0.33643 0.43497 0.3662 0.0
H1214 H 0.28911 0.36811 0.342 0.0
H1215 H 0.29632 0.46316 0.36404 0.0
H1216 H 0.42134 0.47507 0.31953 0.0
H1217 H 0.35085 0.45057 0.27767 0.0
H1218 H 0.33895 0.38087 0.48748 0.0
H1219 H 0.26861 0.37882 0.43888 0.0
H1220 H 0.39401 0.33393 0.28678 0.0
H1221 H 0.42824 0.38527 0.34566 0.0
H1222 H 0.4359 0.33702 0.26101 0.0
H1223 H 0.46944 0.38761 0.31886 0.0
H1224 H 0.39401 0.32507 0.42074 0.0
H1225 H 0.3126 0.31604 0.39664 0.0
H1226 H 0.38261 0.30459 0.46393 0.0
H1227 H 0.30281 0.29504 0.43993 0.0
H1228 H 0.48188 0.32434 0.41012 0.0
H1229 H 0.44966 0.27414 0.3488 0.0
H1230 H 0.30803 0.32631 0.26096 0.0
H1231 H 0.29156 0.27218 0.32522 0.0
Li1232 Li 0.34938 0.67435 0.17857 0.0
Li1233 Li 0.37223 0.63104 0.17212 0.0
Li1234 Li 0.39227 0.67408 0.15492 0.0
Li1235 Li 0.35158 0.65535 0.13536 0.0
C1236 C 0.39564 0.66674 0.21568 0.0
N1237 N 0.41762 0.67439 0.2652 0.0
C1238 C 0.3896 0.64933 0.23639 0.0
C1239 C 0.41287 0.68801 0.22014 0.0
C1240 C 0.40093 0.65354 0.26129 0.0
C1241 C 0.42376 0.69155 0.24532 0.0
C1242 C 0.31461 0.62553 0.15617 0.0
C1243 C 0.30059 0.58771 0.13054 0.0
N1244 N 0.27523 0.59681 0.13116 0.0
C1245 C 0.28841 0.63444 0.15669 0.0
C1246 C 0.32078 0.60193 0.14311 0.0
C1247 C 0.26879 0.61965 0.14387 0.0
C1248 C 0.30426 0.70331 0.19215 0.0
N1249 N 0.32741 0.69387 0.20221 0.0
C1250 C 0.31931 0.71526 0.24358 0.0
C1251 C 0.33505 0.69935 0.22746 0.0
C1252 C 0.29569 0.72561 0.23345 0.0
C1253 C 0.28801 0.71948 0.20752 0.0
H1254 H 0.29882 0.69884 0.17193 0.0
H1255 H 0.35351 0.69188 0.23504 0.0
C1256 C 0.40322 0.58866 0.19462 0.0
N1257 N 0.37842 0.59846 0.19065 0.0
C1258 C 0.40701 0.56665 0.21116 0.0
C1259 C 0.35972 0.56512 0.21881 0.0
C1260 C 0.35685 0.58711 0.20229 0.0
C1261 C 0.38503 0.55484 0.22359 0.0
H1262 H 0.42009 0.5984 0.18559 0.0
H1263 H 0.33745 0.59567 0.19949 0.0
C1264 C 0.35164 0.71826 0.14971 0.0
N1265 N 0.33619 0.76969 0.16033 0.0
C1266 C 0.33377 0.73115 0.13296 0.0
C1267 C 0.36195 0.73171 0.17165 0.0
C1268 C 0.32612 0.75711 0.13873 0.0
C1269 C 0.35383 0.75765 0.17673 0.0
C1270 C 0.4001 0.63981 0.11206 0.0
C1271 C 0.39875 0.66305 0.09704 0.0
C1272 C 0.4138 0.61791 0.1022 0.0
C1273 C 0.41116 0.66396 0.07231 0.0
C1274 C 0.42592 0.6196 0.07737 0.0
N1275 N 0.42436 0.6424 0.06307 0.0
C1276 C 0.44873 0.68235 0.15376 0.0
C1277 C 0.42267 0.71986 0.14322 0.0
C1278 C 0.47197 0.69759 0.15203 0.0
N1279 N 0.42465 0.69377 0.14969 0.0
C1280 C 0.44516 0.73595 0.14231 0.0
C1281 C 0.47023 0.72493 0.14689 0.0
H1282 H 0.44984 0.66153 0.15876 0.0
H1283 H 0.40361 0.72842 0.13905 0.0
C1284 C 0.30871 0.66704 0.10223 0.0
N1285 N 0.33071 0.65157 0.10364 0.0
C1286 C 0.29181 0.66551 0.08038 0.0
C1287 C 0.32006 0.63158 0.06196 0.0
C1288 C 0.33654 0.63386 0.08417 0.0
C1289 C 0.29749 0.64767 0.05992 0.0
H1290 H 0.30404 0.68026 0.11838 0.0
H1291 H 0.35374 0.62128 0.08599 0.0
O1292 O 0.38485 0.6629 0.19113 0.0
O1293 O 0.3343 0.64013 0.1678 0.0
O1294 O 0.35906 0.69265 0.14468 0.0
O1295 O 0.38807 0.63832 0.13629 0.0
H1296 H 0.37613 0.63291 0.23337 0.0
H1297 H 0.41774 0.7017 0.20435 0.0
H1298 H 0.3964 0.64026 0.27751 0.0
H1299 H 0.43711 0.70795 0.24907 0.0
H1300 H 0.30509 0.56951 0.1202 0.0
H1301 H 0.28331 0.65266 0.16671 0.0
H1302 H 0.34103 0.59489 0.14237 0.0
H1303 H 0.24844 0.62638 0.14396 0.0
H1304 H 0.32564 0.71981 0.26357 0.0
H1305 H 0.26983 0.72733 0.19926 0.0
H1306 H 0.42683 0.55924 0.21465 0.0
H1307 H 0.34241 0.55658 0.22829 0.0
H1308 H 0.32601 0.72136 0.11557 0.0
H1309 H 0.37589 0.72209 0.18476 0.0
H1310 H 0.31222 0.76727 0.12599 0.0
H1311 H 0.36151 0.76818 0.19374 0.0
H1312 H 0.38821 0.6802 0.10428 0.0
H1313 H 0.41499 0.59978 0.11361 0.0
H1314 H 0.41027 0.6818 0.06046 0.0
H1315 H 0.43656 0.60279 0.06946 0.0
H1316 H 0.49103 0.68834 0.1554 0.0
H1317 H 0.44301 0.75687 0.13802 0.0
H1318 H 0.27439 0.67799 0.07951 0.0
H1319 H 0.32482 0.61745 0.04655 0.0
Li1320 Li 0.65781 0.89259 0.17377 0.0
Li1321 Li 0.67978 0.84826 0.17593 0.0
Li1322 Li 0.67627 0.87109 0.13399 0.0
Li1323 Li 0.63722 0.85029 0.15333 0.0
C1324 C 0.71502 0.8981 0.15687 0.0
N1325 N 0.75528 0.92753 0.13417 0.0
C1326 C 0.74064 0.88776 0.15538 0.0
C1327 C 0.70986 0.92345 0.14702 0.0
C1328 C 0.76073 0.90295 0.14377 0.0
C1329 C 0.73049 0.938 0.13556 0.0
C1330 C 0.64498 0.84669 0.21503 0.0
C1331 C 0.64173 0.80678 0.24112 0.0
N1332 N 0.64733 0.82102 0.2633 0.0
C1333 C 0.65048 0.86098 0.23809 0.0
C1334 C 0.64034 0.81942 0.21654 0.0
C1335 C 0.65164 0.84762 0.2623 0.0
C1336 C 0.63026 0.93862 0.19364 0.0
N1337 N 0.65298 0.92414 0.19409 0.0
C1338 C 0.67164 0.95258 0.22712 0.0
C1339 C 0.67349 0.93072 0.21031 0.0
C1340 C 0.64843 0.96776 0.22726 0.0
C1341 C 0.62756 0.96074 0.21022 0.0
H1342 H 0.61418 0.93282 0.18069 0.0
H1343 H 0.6912 0.91868 0.21046 0.0
C1344 C 0.70774 0.80225 0.19052 0.0
N1345 N 0.70193 0.8275 0.19777 0.0
C1346 C 0.72316 0.78632 0.20693 0.0
C1347 C 0.72719 0.82304 0.2375 0.0
C1348 C 0.71161 0.83825 0.2205 0.0
C1349 C 0.73283 0.79675 0.23071 0.0
H1350 H 0.70048 0.79448 0.172 0.0
H1351 H 0.70702 0.85857 0.22547 0.0
C1352 C 0.63234 0.89813 0.11517 0.0
N1353 N 0.61675 0.92013 0.0676 0.0
C1354 C 0.62605 0.88179 0.09374 0.0
C1355 C 0.6306 0.92563 0.11252 0.0
C1356 C 0.61826 0.8933 0.06982 0.0
C1357 C 0.62269 0.93638 0.08827 0.0
C1358 C 0.66474 0.8113 0.1267 0.0
C1359 C 0.66636 0.81223 0.09905 0.0
C1360 C 0.65688 0.78779 0.13916 0.0
C1361 C 0.66019 0.78959 0.08436 0.0
C1362 C 0.65082 0.7656 0.12375 0.0
N1363 N 0.65261 0.76695 0.09691 0.0
C1364 C 0.71799 0.85963 0.10028 0.0
C1365 C 0.69337 0.89615 0.08413 0.0
C1366 C 0.73551 0.86134 0.07894 0.0
N1367 N 0.69729 0.87674 0.10246 0.0
C1368 C 0.71018 0.89828 0.06215 0.0
C1369 C 0.73151 0.8807 0.05948 0.0
H1370 H 0.72092 0.84462 0.1153 0.0
H1371 H 0.67745 0.91013 0.08652 0.0
C1372 C 0.5869 0.83101 0.16911 0.0
N1373 N 0.60441 0.83092 0.1486 0.0
C1374 C 0.56435 0.81479 0.1685 0.0
C1375 C 0.57816 0.79863 0.12569 0.0
C1376 C 0.59981 0.81593 0.12666 0.0
C1377 C 0.56021 0.79772 0.14691 0.0
H1378 H 0.59076 0.84323 0.18627 0.0
H1379 H 0.6133 0.81668 0.11014 0.0
O1380 O 0.69488 0.88316 0.16717 0.0
O1381 O 0.64456 0.85925 0.19103 0.0
O1382 O 0.64 0.8873 0.13872 0.0
O1383 O 0.67089 0.83323 0.14145 0.0
H1384 H 0.74485 0.86809 0.16282 0.0
H1385 H 0.69004 0.9316 0.14786 0.0
H1386 H 0.78064 0.89515 0.1423 0.0
H1387 H 0.72677 0.95758 0.12767 0.0
H1388 H 0.63841 0.78564 0.24256 0.0
H1389 H 0.65408 0.88211 0.23725 0.0
H1390 H 0.63595 0.80812 0.19887 0.0
H1391 H 0.65606 0.85839 0.2803 0.0
H1392 H 0.68805 0.95748 0.24009 0.0
H1393 H 0.60937 0.97209 0.20995 0.0
H1394 H 0.72753 0.76612 0.20117 0.0
H1395 H 0.73463 0.83155 0.25574 0.0
H1396 H 0.62743 0.86049 0.0955 0.0
H1397 H 0.63541 0.9385 0.12899 0.0
H1398 H 0.61345 0.88092 0.053 0.0
H1399 H 0.62131 0.95763 0.08587 0.0
H1400 H 0.67196 0.83029 0.08896 0.0
H1401 H 0.65516 0.78675 0.16048 0.0
H1402 H 0.6613 0.79007 0.06297 0.0
H1403 H 0.64462 0.74734 0.13315 0.0
H1404 H 0.75186 0.84755 0.07747 0.0
H1405 H 0.70674 0.91358 0.0475 0.0
H1406 H 0.55076 0.81486 0.18512 0.0
H1407 H 0.57552 0.78595 0.10858 0.0
C1408 C 0.24163 0.27528 0.24532 0.0
C1409 C 0.24806 0.24814 0.24194 0.0
C1410 C 0.28921 0.25473 0.26675 0.0
C1411 C 0.28098 0.28082 0.27314 0.0
N1412 N 0.24709 0.31454 0.27227 0.0
N1413 N 0.27563 0.21075 0.25331 0.0
C1414 C 0.25657 0.29079 0.26341 0.0
C1415 C 0.27126 0.23748 0.25366 0.0
N1416 N 0.22174 0.28643 0.23072 0.0
N1417 N 0.3144 0.24668 0.27257 0.0
H1418 H 0.26268 0.19729 0.24442 0.0
H1419 H 0.29079 0.2017 0.26397 0.0
H1420 H 0.3283 0.25895 0.28176 0.0
H1421 H 0.32229 0.2288 0.26597 0.0
H1422 H 0.21797 0.30671 0.23047 0.0
H1423 H 0.21067 0.27581 0.21684 0.0
H1424 H 0.22808 0.32135 0.26798 0.0
H1425 H 0.25721 0.32636 0.28588 0.0
C1426 C 0.77951 0.28069 0.27376 0.0
C1427 C 0.77782 0.2778 0.24584 0.0
C1428 C 0.74393 0.24324 0.25077 0.0
C1429 C 0.74655 0.24522 0.27869 0.0
N1430 N 0.76788 0.26364 0.31726 0.0
N1431 N 0.76086 0.2552 0.20734 0.0
C1432 C 0.76465 0.26337 0.29034 0.0
C1433 C 0.76068 0.25875 0.23421 0.0
N1434 N 0.79501 0.30033 0.2843 0.0
N1435 N 0.72504 0.22685 0.2402 0.0
H1436 H 0.77201 0.26697 0.19449 0.0
H1437 H 0.75123 0.2397 0.19772 0.0
H1438 H 0.71319 0.21433 0.25166 0.0
H1439 H 0.71988 0.22662 0.22025 0.0
H1440 H 0.79497 0.30559 0.30421 0.0
H1441 H 0.8071 0.31261 0.27283 0.0
H1442 H 0.78275 0.27413 0.32698 0.0
H1443 H 0.75647 0.2521 0.33011 0.0
C1444 C 0.25926 0.73234 0.26634 0.0
C1445 C 0.27927 0.74334 0.24991 0.0
C1446 C 0.26746 0.78818 0.26419 0.0
C1447 C 0.24851 0.77705 0.28178 0.0
N1448 N 0.22794 0.73899 0.3022 0.0
N1449 N 0.30483 0.78087 0.23482 0.0
C1450 C 0.24485 0.74922 0.28361 0.0
C1451 C 0.28404 0.77106 0.24926 0.0
N1452 N 0.25367 0.70583 0.26491 0.0
N1453 N 0.26918 0.81511 0.26146 0.0
H1454 H 0.31687 0.76901 0.22298 0.0
H1455 H 0.31131 0.80044 0.23574 0.0
H1456 H 0.25813 0.82829 0.27289 0.0
H1457 H 0.28032 0.82452 0.24686 0.0
H1458 H 0.23744 0.69695 0.27408 0.0
H1459 H 0.26433 0.69274 0.25302 0.0
H1460 H 0.22656 0.71891 0.3067 0.0
H1461 H 0.21632 0.75078 0.31455 0.0
C1462 C 0.79234 0.76478 0.26383 0.0
C1463 C 0.7794 0.74621 0.28056 0.0
C1464 C 0.73603 0.76296 0.26678 0.0
C1465 C 0.74893 0.77997 0.24846 0.0
N1466 N 0.78879 0.79537 0.22694 0.0
N1467 N 0.73943 0.72498 0.29608 0.0
C1468 C 0.77696 0.78046 0.24628 0.0
C1469 C 0.75135 0.74459 0.28158 0.0
N1470 N 0.81928 0.76779 0.26522 0.0
N1471 N 0.70921 0.7648 0.27037 0.0
H1472 H 0.75004 0.71144 0.30752 0.0
H1473 H 0.71922 0.72084 0.29535 0.0
H1474 H 0.69729 0.77771 0.25951 0.0
H1475 H 0.69896 0.75504 0.2854 0.0
H1476 H 0.82963 0.78294 0.25574 0.0
H1477 H 0.83127 0.75627 0.27748 0.0
H1478 H 0.80886 0.79426 0.22228 0.0
H1479 H 0.77819 0.80768 0.21417 0.0
C1480 C 0.28077 0.78237 0.77482 0.0
C1481 C 0.28123 0.77858 0.74698 0.0
C1482 C 0.24828 0.74296 0.7506 0.0
C1483 C 0.24883 0.74585 0.77854 0.0
N1484 N 0.26689 0.766 0.81791 0.0
N1485 N 0.26804 0.75408 0.70816 0.0
C1486 C 0.26546 0.76494 0.79086 0.0
C1487 C 0.2657 0.75851 0.73479 0.0
N1488 N 0.29462 0.80299 0.78578 0.0
N1489 N 0.23067 0.7257 0.73923 0.0
H1490 H 0.27978 0.76577 0.69575 0.0
H1491 H 0.2597 0.73791 0.69843 0.0
H1492 H 0.21834 0.71323 0.75023 0.0
H1493 H 0.227 0.72472 0.71899 0.0
H1494 H 0.29286 0.80884 0.80545 0.0
H1495 H 0.30697 0.81545 0.77478 0.0
H1496 H 0.2807 0.7773 0.82826 0.0
H1497 H 0.25516 0.75428 0.83029 0.0
C1498 C 0.77368 0.75613 0.7405 0.0
C1499 C 0.74761 0.7496 0.74887 0.0
C1500 C 0.7529 0.77772 0.78798 0.0
C1501 C 0.77983 0.78197 0.78102 0.0
N1502 N 0.8174 0.77112 0.75346 0.0
N1503 N 0.71396 0.75 0.78288 0.0
C1504 C 0.79069 0.77001 0.75805 0.0
C1505 C 0.73762 0.75921 0.77329 0.0
N1506 N 0.78188 0.74989 0.71546 0.0
N1507 N 0.74167 0.792 0.80805 0.0
H1508 H 0.70233 0.73616 0.77282 0.0
H1509 H 0.70705 0.75422 0.80185 0.0
H1510 H 0.75215 0.80603 0.81907 0.0
H1511 H 0.72143 0.79172 0.81216 0.0
H1512 H 0.79965 0.75665 0.70737 0.0
H1513 H 0.76987 0.74 0.70183 0.0
H1514 H 0.82672 0.76038 0.73854 0.0
H1515 H 0.83063 0.78081 0.76606 0.0
C1516 C 0.74507 0.28197 0.75247 0.0
C1517 C 0.74399 0.27747 0.78018 0.0
C1518 C 0.77271 0.23875 0.77548 0.0
C1519 C 0.7761 0.245 0.74831 0.0
N1520 N 0.76865 0.2744 0.71135 0.0
N1521 N 0.75938 0.25409 0.81893 0.0
C1522 C 0.76307 0.26709 0.73685 0.0
C1523 C 0.75845 0.25647 0.79196 0.0
N1524 N 0.72841 0.3 0.74105 0.0
N1525 N 0.78264 0.21557 0.78537 0.0
H1526 H 0.74913 0.26666 0.8317 0.0
H1527 H 0.77195 0.24104 0.82875 0.0
H1528 H 0.7933 0.20214 0.77386 0.0
H1529 H 0.77841 0.20855 0.8043 0.0
H1530 H 0.72629 0.30218 0.72065 0.0
H1531 H 0.71494 0.31128 0.75191 0.0
H1532 H 0.76209 0.29202 0.70289 0.0
H1533 H 0.78161 0.26387 0.69919 0.0
C1534 C 0.27691 0.28842 0.75222 0.0
C1535 C 0.24939 0.28303 0.74985 0.0
C1536 C 0.25381 0.24387 0.77816 0.0
C1537 C 0.28103 0.25005 0.78163 0.0
N1538 N 0.3181 0.27967 0.77543 0.0
N1539 N 0.21055 0.25835 0.763 0.0
C1540 C 0.29248 0.27279 0.76966 0.0
C1541 C 0.2375 0.26153 0.76357 0.0
N1542 N 0.28821 0.30801 0.73722 0.0
N1543 N 0.24379 0.22072 0.78821 0.0
H1544 H 0.19804 0.27056 0.75199 0.0
H1545 H 0.20031 0.24489 0.77483 0.0
H1546 H 0.25499 0.20765 0.79963 0.0
H1547 H 0.22494 0.2135 0.78385 0.0
H1548 H 0.30857 0.31099 0.73565 0.0
H1549 H 0.27727 0.3204 0.72483 0.0
H1550 H 0.32677 0.29752 0.76972 0.0
H1551 H 0.3303 0.26832 0.78763 0.0
C1552 C 0.14035 0.98581 0.25228 0.0
C1553 C 0.14432 0.99079 0.27968 0.0
C1554 C 0.15007 0.03822 0.27044 0.0
C1555 C 0.14436 0.03348 0.24329 0.0
N1556 N 0.12963 1.00374 0.20897 0.0
N1557 N 0.14833 0.02188 0.31564 0.0
C1558 C 0.13818 1.00753 0.23439 0.0
C1559 C 0.14777 0.01708 0.28899 0.0
N1560 N 0.13965 0.9603 0.24321 0.0
N1561 N 0.15876 0.06267 0.27832 0.0
H1562 H 0.14687 1.00684 0.32976 0.0
H1563 H 0.14795 0.04082 0.32378 0.0
H1564 H 0.16073 0.07868 0.26538 0.0
H1565 H 0.16608 0.0666 0.2972 0.0
H1566 H 0.13989 0.95533 0.22321 0.0
H1567 H 0.14087 0.9439 0.25572 0.0
H1568 H 0.12213 0.9858 0.20204 0.0
H1569 H 0.12793 0.01917 0.19531 0.0
C1570 C 0.90843 0.50326 0.25353 0.0
C1571 C 0.88637 0.48577 0.25321 0.0
C1572 C 0.87238 0.5035 0.29612 0.0
C1573 C 0.89043 0.52495 0.29312 0.0
N1574 N 0.9367 0.52898 0.28213 0.0
N1575 N 0.84681 0.46915 0.27458 0.0
C1576 C 0.91186 0.52072 0.27536 0.0
C1577 C 0.86824 0.48576 0.27469 0.0
N1578 N 0.92623 0.5032 0.23316 0.0
N1579 N 0.86264 0.49752 0.32062 0.0
H1580 H 0.84309 0.45571 0.25931 0.0
H1581 H 0.83171 0.47035 0.28863 0.0
H1582 H 0.86918 0.50751 0.33752 0.0
H1583 H 0.85134 0.48064 0.32452 0.0
H1584 H 0.94116 0.51743 0.23137 0.0
H1585 H 0.92485 0.49018 0.21717 0.0
H1586 H 0.95355 0.52449 0.27107 0.0
H1587 H 0.94075 0.53646 0.30099 0.0
C1588 C 0.25812 0.13253 0.99101 0.0
C1589 C 0.28015 0.15013 0.9912 0.0
C1590 C 0.26596 0.16782 0.03421 0.0
C1591 C 0.24497 0.149 0.03482 0.0
N1592 N 0.22275 0.1112 0.01587 0.0
N1593 N 0.3075 0.18183 0.01423 0.0
C1594 C 0.24155 0.13067 0.0138 0.0
C1595 C 0.28474 0.16706 0.01317 0.0
N1596 N 0.25253 0.11826 0.96866 0.0
N1597 N 0.26757 0.18679 0.05349 0.0
H1598 H 0.32158 0.18196 0.99908 0.0
H1599 H 0.31353 0.19238 0.03089 0.0
H1600 H 0.25469 0.1875 0.06965 0.0
H1601 H 0.28042 0.20294 0.0526 0.0
H1602 H 0.2352 0.10734 0.96608 0.0
H1603 H 0.26438 0.11886 0.95173 0.0
H1604 H 0.22117 0.0954 1.00273 0.0
H1605 H 0.20974 0.10976 0.03189 0.0
C1606 C 0.77044 0.4039 0.02692 0.0
C1607 C 0.78258 0.37993 0.03523 0.0
C1608 C 0.75858 0.3554 1.00066 0.0
C1609 C 0.74768 0.37959 0.99137 0.0
N1610 N 0.74531 0.42722 0.99313 0.0
N1611 N 0.79094 0.33341 0.02862 0.0
C1612 C 0.75417 0.40396 1.00383 0.0
C1613 C 0.77743 0.35582 0.02166 0.0
N1614 N 0.77409 0.42648 0.04144 0.0
N1615 N 0.75032 0.33196 0.98981 0.0
H1616 H 0.80417 0.33275 0.04446 0.0
H1617 H 0.79049 0.3159 0.01776 0.0
H1618 H 0.73703 0.33096 0.97403 0.0
H1619 H 0.7551 0.31343 0.99747 0.0
H1620 H 0.76347 0.44387 0.03842 0.0
H1621 H 0.78673 0.42744 0.05778 0.0
H1622 H 0.75164 0.44585 0.99934 0.0
H1623 H 0.73282 0.42796 0.97668 0.0
C1624 C 0.26837 0.85051 0.52769 0.0
C1625 C 0.27373 0.87496 0.54056 0.0
C1626 C 0.23456 0.894 0.5192 0.0
C1627 C 0.23339 0.87212 0.50158 0.0
N1628 N 0.2352 0.82459 0.50477 0.0
N1629 N 0.26197 0.92073 0.54793 0.0
C1630 C 0.24641 0.84865 0.51009 0.0
C1631 C 0.25686 0.89695 0.53608 0.0
N1632 N 0.28419 0.82905 0.53214 0.0
N1633 N 0.21238 0.90859 0.52392 0.0
H1634 H 0.27811 0.92377 0.5605 0.0
H1635 H 0.25134 0.93783 0.54334 0.0
H1636 H 0.19384 0.90247 0.517 0.0
H1637 H 0.21157 0.92349 0.5382 0.0
H1638 H 0.28285 0.81169 0.52105 0.0
H1639 H 0.29987 0.82927 0.54558 0.0
H1640 H 0.24223 0.8068 0.5125 0.0
H1641 H 0.21668 0.82301 0.49564 0.0
C1642 C 0.77288 0.65183 0.53971 0.0
C1643 C 0.74547 0.64689 0.53549 0.0
C1644 C 0.75412 0.63871 0.48836 0.0
C1645 C 0.78093 0.64655 0.49208 0.0
N1646 N 0.81537 0.66366 0.52046 0.0
N1647 N 0.70918 0.63861 0.50552 0.0
C1648 C 0.79024 0.65385 0.51757 0.0
C1649 C 0.73586 0.641 0.50973 0.0
N1650 N 0.78241 0.65396 0.56497 0.0
N1651 N 0.74629 0.62855 0.4645 0.0
H1652 H 0.69522 0.6399 0.52071 0.0
H1653 H 0.70068 0.63735 0.48677 0.0
H1654 H 0.7591 0.62673 0.44837 0.0
H1655 H 0.72781 0.61988 0.4613 0.0
H1656 H 0.80252 0.65476 0.56954 0.0
H1657 H 0.77026 0.65262 0.58162 0.0
H1658 H 0.82232 0.67221 0.5379 0.0
H1659 H 0.82879 0.66513 0.50479 0.0
C1660 C 1.00539 0.27465 0.16782 0.0
C1661 C 0.98979 0.27858 0.14475 0.0
C1662 C 0.01578 0.24489 0.12124 0.0
C1663 C 0.03268 0.24257 0.14359 0.0
N1664 N 0.04661 0.2585 0.18645 0.0
N1665 N 0.98251 0.27081 0.09822 0.0
C1666 C 0.02834 0.25839 0.16642 0.0
C1667 C 0.99567 0.26463 0.12107 0.0
N1668 N 0.99772 0.28567 0.19134 0.0
N1669 N 0.01845 0.22766 0.10053 0.0
H1670 H 0.96768 0.28515 0.09735 0.0
H1671 H 0.98776 0.2634 0.07971 0.0
H1672 H 0.03302 0.21304 0.09994 0.0
H1673 H 1.00497 0.2264 0.08497 0.0
H1674 H 1.00653 0.2811 0.20942 0.0
H1675 H 0.98107 0.29774 0.19321 0.0
H1676 H 0.04607 0.27177 0.20222 0.0
H1677 H 0.06366 0.24685 0.18622 0.0
C1678 C 1.00407 0.75288 0.40303 0.0
C1679 C 0.99223 0.74508 0.37874 0.0
C1680 C 0.02287 0.77402 0.35432 0.0
C1681 C 0.03612 0.78014 0.37837 0.0
N1682 N 0.04208 0.77252 0.42513 0.0
N1683 N 0.99277 0.74463 0.331 0.0
C1684 C 0.02746 0.76879 0.40263 0.0
C1685 C 1.00235 0.75463 0.35429 0.0
N1686 N 0.99251 0.74571 0.42646 0.0
N1687 N 0.02934 0.78741 0.33165 0.0
H1688 H 0.97763 0.73053 0.33017 0.0
H1689 H 1.00128 0.74857 0.31262 0.0
H1690 H 0.04419 0.80182 0.33089 0.0
H1691 H 0.01853 0.78596 0.31414 0.0
H1692 H 0.99837 0.75321 0.44476 0.0
H1693 H 0.97567 0.7337 0.42751 0.0
H1694 H 0.0385 0.76246 0.44279 0.0
H1695 H 0.05917 0.78419 0.42565 0.0
C1696 C 0.51781 0.74747 0.66865 0.0
C1697 C 0.53533 0.7458 0.64673 0.0
C1698 C 0.50794 0.77754 0.62208 0.0
C1699 C 0.49171 0.78085 0.6448 0.0
N1700 N 0.48329 0.77223 0.69105 0.0
N1701 N 0.54953 0.76158 0.60393 0.0
C1702 C 0.49721 0.76668 0.66847 0.0
C1703 C 0.53106 0.76147 0.62377 0.0
N1704 N 0.52051 0.73024 0.68939 0.0
N1705 N 0.50081 0.78917 0.59868 0.0
H1706 H 0.56643 0.7497 0.60426 0.0
H1707 H 0.54917 0.77477 0.58808 0.0
H1708 H 0.48423 0.80134 0.59682 0.0
H1709 H 0.51009 0.78523 0.5807 0.0
H1710 H 0.5067 0.72844 0.70461 0.0
H1711 H 0.53553 0.71609 0.69033 0.0
H1712 H 0.48824 0.76476 0.70962 0.0
H1713 H 0.468 0.7861 0.69171 0.0
C1714 C 0.89993 0.03656 0.76805 0.0
C1715 C 0.88366 0.0354 0.74511 0.0
C1716 C 0.86708 0.99168 0.75872 0.0
C1717 C 0.8847 0.99204 0.78066 0.0
N1718 N 0.92087 1.01263 0.80412 0.0
N1719 N 0.85526 1.0103 0.71602 0.0
C1720 C 0.90202 0.01387 0.78471 0.0
C1721 C 0.86827 1.01246 0.73969 0.0
N1722 N 0.91257 0.05969 0.77445 0.0
N1723 N 0.84855 0.97195 0.7566 0.0
H1724 H 0.85565 0.02515 0.70164 0.0
H1725 H 0.846 0.99298 0.70964 0.0
H1726 H 0.84709 0.95632 0.77006 0.0
H1727 H 0.83323 0.97216 0.74279 0.0
H1728 H 0.92222 0.06278 0.79241 0.0
H1729 H 0.91177 0.07661 0.76261 0.0
H1730 H 0.93597 0.02658 0.80627 0.0
H1731 H 0.92274 0.99648 0.8169 0.0
C1732 C 0.14861 0.5091 0.78999 0.0
C1733 C 0.14516 0.53538 0.78061 0.0
C1734 C 0.14314 0.5191 0.7348 0.0
C1735 C 0.14535 0.49272 0.74429 0.0
N1736 N 0.14533 0.46198 0.78085 0.0
N1737 N 0.13437 0.56524 0.74498 0.0
C1738 C 0.14661 0.48754 0.77191 0.0
C1739 C 0.14096 0.54031 0.75324 0.0
N1740 N 0.15474 0.50484 0.81603 0.0
N1741 N 0.14417 0.52395 0.70817 0.0
H1742 H 0.13281 0.58122 0.75795 0.0
H1743 H 0.12831 0.56968 0.72578 0.0
H1744 H 0.14534 0.50892 0.69405 0.0
H1745 H 0.14578 0.54286 0.70007 0.0
H1746 H 0.16057 0.48654 0.82352 0.0
H1747 H 0.15585 0.52007 0.82995 0.0
H1748 H 0.14338 0.45693 0.80075 0.0
H1749 H 0.14396 0.44572 0.76817 0.0
C1750 C 0.74681 0.86338 0.01539 0.0
C1751 C 0.74958 0.88218 0.03616 0.0
C1752 C 0.78823 0.90199 0.01383 0.0
C1753 C 0.78501 0.88366 0.99272 0.0
N1754 N 0.76099 0.84783 0.97207 0.0
N1755 N 0.77135 0.92026 0.05512 0.0
C1756 C 0.76421 0.86459 0.99316 0.0
C1757 C 0.76988 0.90176 0.03535 0.0
N1758 N 0.72772 0.84411 0.01724 0.0
N1759 N 0.80916 0.9193 0.01338 0.0
H1760 H 0.7592 0.91986 0.07182 0.0
H1761 H 0.78373 0.93675 0.05473 0.0
H1762 H 0.82218 0.92086 0.9974 0.0
H1763 H 0.81457 0.93144 0.02911 0.0
H1764 H 0.72628 0.82791 1.00462 0.0
H1765 H 0.71356 0.84361 0.03229 0.0
H1766 H 0.74473 0.83541 0.96943 0.0
H1767 H 0.77423 0.84696 0.95624 0.0
C1768 C 0.23532 0.63714 0.01815 0.0
C1769 C 0.24427 0.64573 0.9929 0.0
C1770 C 0.28798 0.65621 1.01166 0.0
C1771 C 0.2796 0.64593 0.03648 0.0
N1772 N 0.24719 0.62184 0.06214 0.0
N1773 N 0.28052 0.65822 0.96428 0.0
C1774 C 0.2538 0.63495 0.03936 0.0
C1775 C 0.27106 0.6537 0.98926 0.0
N1776 N 0.20898 0.63207 0.02216 0.0
N1777 N 0.31163 0.66938 1.00971 0.0
H1778 H 0.26877 0.65645 0.94737 0.0
H1779 H 0.30051 0.66132 0.96009 0.0
H1780 H 0.32458 0.67174 0.02563 0.0
H1781 H 0.31741 0.6799 0.99291 0.0
H1782 H 0.20079 0.62863 0.04079 0.0
H1783 H 0.19485 0.63344 1.00715 0.0
H1784 H 0.2297 0.61106 0.06441 0.0
H1785 H 0.26027 0.6197 0.07799 0.0
C1786 C 0.76986 0.1558 0.49173 0.0
C1787 C 0.74409 0.14471 0.49444 0.0
C1788 C 0.75496 0.13096 0.5398 0.0
C1789 C 0.77928 0.14514 0.5382 0.0
N1790 N 0.80778 0.17509 0.51396 0.0
N1791 N 0.71048 0.12533 0.5225 0.0
C1792 C 0.78622 0.15862 0.51448 0.0
C1793 C 0.73619 0.13318 0.51887 0.0
N1794 N 0.77904 0.16295 0.46726 0.0
N1795 N 0.75009 0.11478 0.56098 0.0
H1796 H 0.69605 0.12693 0.50781 0.0
H1797 H 0.70292 0.11945 0.54079 0.0
H1798 H 0.76356 0.11229 0.57646 0.0
H1799 H 0.73394 0.10191 0.56195 0.0
H1800 H 0.79861 0.16859 0.46373 0.0
H1801 H 0.76787 0.16073 0.45002 0.0
H1802 H 0.81206 0.1876 0.49809 0.0
H1803 H 0.82004 0.17817 0.5303 0.0
C1804 C 0.26822 0.4011 0.53116 0.0
C1805 C 0.24986 0.37999 0.5347 0.0
C1806 C 0.26825 0.3576 0.49576 0.0
C1807 C 0.28443 0.38006 0.49041 0.0
N1808 N 0.29636 0.42527 0.50056 0.0
N1809 N 0.22877 0.34072 0.51724 0.0
C1810 C 0.28348 0.40243 0.50745 0.0
C1811 C 0.24884 0.35895 0.51609 0.0
N1812 N 0.27178 0.41937 0.55082 0.0
N1813 N 0.27206 0.33459 0.48205 0.0
H1814 H 0.21378 0.34132 0.53146 0.0
H1815 H 0.22552 0.32658 0.50256 0.0
H1816 H 0.28653 0.3326 0.46746 0.0
H1817 H 0.26275 0.3168 0.48696 0.0
H1818 H 0.28683 0.43354 0.55051 0.0
H1819 H 0.26126 0.41888 0.5686 0.0
H1820 H 0.29406 0.44304 0.51077 0.0
H1821 H 0.30748 0.42715 0.48323 0.0
C1822 C 0.03747 0.77069 0.86578 0.0
C1823 C 0.03634 0.74684 0.88069 0.0
C1824 C 0.99347 0.76053 0.89913 0.0
C1825 C 0.99305 0.78252 0.88157 0.0
N1826 N 1.0127 0.80586 0.84465 0.0
N1827 N 1.01119 0.71692 0.90838 0.0
C1828 C 0.01456 0.78694 0.86395 0.0
C1829 C 1.01379 0.74118 0.89659 0.0
N1830 N 0.06069 0.77825 0.85396 0.0
N1831 N 0.97484 0.75847 0.91869 0.0
H1832 H 0.02541 0.70205 0.90669 0.0
H1833 H 0.99389 0.71069 0.91781 0.0
H1834 H 0.95991 0.77247 0.92142 0.0
H1835 H 0.9757 0.74433 0.9337 0.0
H1836 H 0.06338 0.79671 0.8451 0.0
H1837 H 0.07808 0.7672 0.85532 0.0
H1838 H 0.02656 0.80793 0.82948 0.0
H1839 H 0.9961 0.8179 0.84227 0.0
C1840 C 0.03133 0.2671 0.67008 0.0
C1841 C 0.03734 0.28185 0.64684 0.0
C1842 C 1.00258 0.25743 0.6231 0.0
C1843 C 0.99408 0.24565 0.64723 0.0
N1844 N 0.99705 0.24472 0.69505 0.0
N1845 N 0.02422 0.2951 0.60275 0.0
C1846 C 1.00752 0.25199 0.67115 0.0
C1847 C 0.02168 0.27818 0.62374 0.0
N1848 N 0.04875 0.26658 0.69079 0.0
N1849 N 0.99314 0.24825 0.59945 0.0
H1850 H 0.03709 0.3113 0.60286 0.0
H1851 H 1.0115 0.2947 0.58648 0.0
H1852 H 0.98002 0.2323 0.59805 0.0
H1853 H 1.00056 0.25458 0.58124 0.0
H1854 H 0.04632 0.25411 0.70708 0.0
H1855 H 0.067 0.27633 0.69042 0.0
H1856 H 1.00488 0.25112 0.71305 0.0
H1857 H 0.979 0.23478 0.69694 0.0
C1858 C 0.53934 0.2702 0.37395 0.0
C1859 C 0.53532 0.24334 0.3814 0.0
C1860 C 0.48894 0.2532 0.39224 0.0
C1861 C 0.49213 0.27907 0.38161 0.0
N1862 N 0.51941 0.31111 0.35873 0.0
N1863 N 0.50545 0.20818 0.39422 0.0
C1864 C 0.51712 0.28735 0.37157 0.0
C1865 C 0.5099 0.23454 0.38975 0.0
N1866 N 0.56449 0.2795 0.36981 0.0
N1867 N 0.46606 0.24667 0.40526 0.0
H1868 H 0.52023 0.19387 0.39252 0.0
H1869 H 0.48666 0.20019 0.39744 0.0
H1870 H 0.45038 0.2599 0.40762 0.0
H1871 H 0.4636 0.22909 0.41579 0.0
H1872 H 0.5689 0.29948 0.36701 0.0
H1873 H 0.58128 0.26762 0.37166 0.0
H1874 H 0.53634 0.31684 0.34837 0.0
H1875 H 0.50362 0.32422 0.35648 0.0
C1876 C 0.66131 0.51127 0.73852 0.0
C1877 C 0.64851 0.53541 0.74502 0.0
C1878 C 0.63175 0.51534 0.7861 0.0
C1879 C 0.647 0.49229 0.78099 0.0
N1880 N 0.68051 0.47046 0.75478 0.0
N1881 N 0.62557 0.56212 0.77735 0.0
C1882 C 0.66294 0.49082 0.75784 0.0
C1883 C 0.63478 0.53793 0.76946 0.0
N1884 N 0.67129 0.50757 0.71363 0.0
N1885 N 0.61378 0.51539 0.80636 0.0
H1886 H 0.62768 0.57924 0.76595 0.0
H1887 H 0.61801 0.5657 0.7962 0.0
H1888 H 0.61077 0.49914 0.81879 0.0
H1889 H 0.60017 0.53059 0.80931 0.0
H1890 H 0.67837 0.4894 0.70692 0.0
H1891 H 0.67016 0.52196 0.69883 0.0
H1892 H 0.6946 0.46989 0.7397 0.0
H1893 H 0.68279 0.45537 0.76871 0.0
C1894 C 0.37785 1.0085 0.79052 0.0
C1895 C 0.38517 0.03428 0.78188 0.0
C1896 C 0.39621 0.01612 0.73814 0.0
C1897 C 0.38537 0.99124 0.74571 0.0
N1898 N 0.36049 0.96567 0.77777 0.0
N1899 N 0.39622 0.06348 0.7455 0.0
C1900 C 0.37473 0.98791 0.77158 0.0
C1901 C 0.39303 0.03836 0.75514 0.0
N1902 N 0.37452 1.00347 0.81691 0.0
N1903 N 0.41018 0.01841 0.71506 0.0
H1904 H 0.39321 0.08041 0.75693 0.0
H1905 H 0.39924 0.06755 0.72549 0.0
H1906 H 0.41351 1.00243 0.7024 0.0
H1907 H 0.42068 0.03545 0.70987 0.0
H1908 H 0.37167 0.98445 0.82446 0.0
H1909 H 0.37738 0.01785 0.83146 0.0
H1910 H 0.3501 0.96353 0.79548 0.0
H1911 H 0.3567 0.95055 0.76421 0.0
C1912 C 0.50029 0.25781 0.90671 0.0
C1913 C 0.493 0.24531 0.88259 0.0
C1914 C 0.52821 0.26952 0.85912 0.0
C1915 C 0.53653 0.28077 0.88353 0.0
N1916 N 0.53313 0.28335 0.93104 0.0
N1917 N 0.50166 0.23629 0.83653 0.0
C1918 C 0.52328 0.27428 0.90749 0.0
C1919 C 0.50748 0.25031 0.85898 0.0
N1920 N 0.48481 0.2544 0.92871 0.0
N1921 N 0.53968 0.27782 0.83599 0.0
H1922 H 0.48619 0.22257 0.83549 0.0
H1923 H 0.51325 0.23673 0.81948 0.0
H1924 H 0.55524 0.29148 0.83533 0.0
H1925 H 0.53264 0.27275 0.81729 0.0
H1926 H 0.48713 0.26527 0.94606 0.0
H1927 H 0.4684 0.24178 0.9291 0.0
H1928 H 0.52629 0.27706 0.94946 0.0
H1929 H 0.54951 0.29596 0.93228 0.0
C1930 C 0.39306 0.50641 0.23298 0.0
C1931 C 0.38824 0.5324 0.24253 0.0
C1932 C 0.3824 0.51496 0.28759 0.0
C1933 C 0.38861 0.48916 0.2783 0.0
N1934 N 0.40522 0.46112 0.24345 0.0
N1935 N 0.38396 0.56233 0.27946 0.0
C1936 C 0.39559 0.48514 0.25135 0.0
C1937 C 0.38468 0.53694 0.27005 0.0
N1938 N 0.3941 0.50185 0.20632 0.0
N1939 N 0.37316 0.51833 0.31282 0.0
H1940 H 0.38565 0.5789 0.26719 0.0
H1941 H 0.38414 0.56697 0.29955 0.0
H1942 H 0.37115 0.50278 0.32629 0.0
H1943 H 0.36543 0.53614 0.31975 0.0
H1944 H 0.39444 0.48296 0.19806 0.0
H1945 H 0.39258 0.51692 0.19226 0.0
H1946 H 0.41317 0.4577 0.22473 0.0
H1947 H 0.4075 0.44516 0.2564 0.0
C1948 C 0.64698 0.03868 0.25372 0.0
C1949 C 0.64615 0.03389 0.28143 0.0
C1950 C 0.64222 0.9861 0.27313 0.0
C1951 C 0.64612 0.99072 0.24566 0.0
N1952 N 0.65545 0.021 0.20987 0.0
N1953 N 0.64621 1.00304 0.31792 0.0
C1954 C 0.64926 0.01693 0.23593 0.0
C1955 C 0.6445 1.00758 0.29127 0.0
N1956 N 0.645 0.06404 0.24441 0.0
N1957 N 0.63577 0.96123 0.2818 0.0
H1958 H 0.6477 0.01823 0.33184 0.0
H1959 H 0.64821 0.98423 0.32616 0.0
H1960 H 0.63397 0.94503 0.26909 0.0
H1961 H 0.62996 0.95705 0.30115 0.0
H1962 H 0.64265 0.0687 0.22445 0.0
H1963 H 0.64336 0.08042 0.25687 0.0
H1964 H 0.66103 0.03935 0.20222 0.0
H1965 H 0.65701 1.00563 0.19617 0.0
C1966 C 0.53452 0.75981 0.16752 0.0
C1967 C 0.5375 0.77857 0.14671 0.0
C1968 C 0.49979 0.75813 0.1238 0.0
C1969 C 0.49428 0.74235 0.14646 0.0
N1970 N 0.50357 0.73309 0.19257 0.0
N1971 N 0.51872 0.79914 0.10775 0.0
C1972 C 0.51087 0.7445 0.16912 0.0
C1973 C 0.51894 0.77874 0.12556 0.0
N1974 N 0.55457 0.7558 0.18525 0.0
N1975 N 0.48733 0.75299 0.10032 0.0
H1976 H 0.53149 0.81537 0.10907 0.0
H1977 H 0.50397 0.80133 0.09347 0.0
H1978 H 0.47405 0.7373 0.0979 0.0
H1979 H 0.49242 0.76246 0.08268 0.0
H1980 H 0.55419 0.74063 0.19926 0.0
H1981 H 0.57276 0.76562 0.18408 0.0
H1982 H 0.51384 0.73633 0.21019 0.0
H1983 H 0.4858 0.7228 0.19511 0.0
loop_
_geom_bond_atom_site_label_1
_geom_bond_atom_site_label_2
_geom_bond_distance
_geom_bond_site_symmetry_2
_ccdc_geom_bond_type
Li0 N17 1.990 . S
Li0 O60 1.956 . S
Li0 O61 1.970 . S
Li0 O62 1.961 . S
Li1 N25 1.990 . S
Li1 O60 1.970 . S
Li1 O61 1.956 . S
Li1 O63 1.961 . S
Li2 N47 1.990 . S
Li2 O60 1.961 . S
Li2 O62 1.956 . S
Li2 O63 1.970 . S
Li3 N53 1.990 . S
Li3 O61 1.961 . S
Li3 O62 1.970 . S
Li3 O63 1.956 . S
C4 C6 1.348 . S
C4 C7 1.356 . S
C4 O60 1.325 . S
N5 C8 1.314 . S
N5 C9 1.279 . S
C6 C4 1.348 . S
C6 C8 1.353 . S
C6 H64 0.929 . S
C7 C4 1.356 . S
C7 C9 1.358 . S
C7 H65 0.930 . S
C8 N5 1.314 . S
C8 C6 1.353 . S
C8 H66 0.930 . S
C9 N5 1.279 . S
C9 C7 1.358 . S
C9 H67 0.930 . S
C10 C13 1.348 . S
C10 C14 1.356 . S
C10 O61 1.325 . S
C11 N12 1.279 . S
C11 C14 1.358 . S
C11 H68 0.930 . S
N12 C11 1.279 . S
N12 C15 1.314 . S
C13 C10 1.348 . S
C13 C15 1.353 . S
C13 H69 0.929 . S
C14 C10 1.356 . S
C14 C11 1.358 . S
C14 H70 0.930 . S
C15 N12 1.314 . S
C15 C13 1.353 . S
C15 H71 0.930 . S
C16 N17 1.314 . S
C16 C21 1.353 . S
C16 H22 0.930 . S
N17 Li0 1.990 . S
N17 C16 1.314 . S
N17 C19 1.279 . S
C18 C19 1.358 . S
C18 C20 1.356 . S
C18 H72 0.930 . S
C19 N17 1.279 . S
C19 C18 1.358 . S
C19 H23 0.930 . S
C20 C18 1.356 . S
C20 C21 1.348 . S
C21 C16 1.353 . S
C21 C20 1.348 . S
C21 H73 0.929 . S
H22 C16 0.930 . S
H23 C19 0.930 . S
C24 N25 1.314 . S
C24 C26 1.353 . S
C24 H30 0.930 . S
N25 Li1 1.990 . S
N25 C24 1.314 . S
N25 C28 1.279 . S
C26 C24 1.353 . S
C26 C29 1.348 . S
C26 H74 0.929 . S
C27 C28 1.358 . S
C27 C29 1.356 . S
C27 H75 0.930 . S
C28 N25 1.279 . S
C28 C27 1.358 . S
C28 H31 0.930 . S
C29 C26 1.348 . S
C29 C27 1.356 . S
H30 C24 0.930 . S
H31 C28 0.930 . S
C32 C34 1.348 . S
C32 C35 1.356 . S
C32 O62 1.325 . S
N33 C36 1.314 . S
N33 C37 1.279 . S
C34 C32 1.348 . S
C34 C36 1.353 . S
C34 H76 0.929 . S
C35 C32 1.356 . S
C35 C37 1.358 . S
C35 H77 0.930 . S
C36 N33 1.314 . S
C36 C34 1.353 . S
C36 H78 0.930 . S
C37 N33 1.279 . S
C37 C35 1.358 . S
C37 H79 0.930 . S
C38 C39 1.348 . S
C38 C40 1.356 . S
C38 O63 1.325 . S
C39 C38 1.348 . S
C39 C41 1.353 . S
C39 H80 0.929 . S
C40 C38 1.356 . S
C40 C42 1.358 . S
C40 H81 0.930 . S
C41 C39 1.353 . S
C41 N43 1.314 . S
C41 H82 0.930 . S
C42 C40 1.358 . S
C42 N43 1.279 . S
C42 H83 0.930 . S
N43 C41 1.314 . S
N43 C42 1.279 . S
C44 C46 1.353 . S
C44 N47 1.314 . S
C44 H50 0.930 . S
C45 N47 1.279 . S
C45 C48 1.358 . S
C45 H51 0.930 . S
C46 C44 1.353 . S
C46 C49 1.348 . S
C46 H84 0.929 . S
N47 Li2 1.990 . S
N47 C44 1.314 . S
N47 C45 1.279 . S
C48 C45 1.358 . S
C48 C49 1.356 . S
C48 H85 0.930 . S
C49 C46 1.348 . S
C49 C48 1.356 . S
H50 C44 0.930 . S
H51 C45 0.930 . S
C52 N53 1.314 . S
C52 C54 1.353 . S
C52 H58 0.930 . S
N53 Li3 1.990 . S
N53 C52 1.314 . S
N53 C56 1.279 . S
C54 C52 1.353 . S
C54 C57 1.348 . S
C54 H86 0.929 . S
C55 C56 1.358 . S
C55 C57 1.356 . S
C55 H87 0.930 . S
C56 N53 1.279 . S
C56 C55 1.358 . S
C56 H59 0.930 . S
C57 C54 1.348 . S
C57 C55 1.356 . S
H58 C52 0.930 . S
H59 C56 0.930 . S
O60 Li0 1.956 . S
O60 Li1 1.970 . S
O60 Li2 1.961 . S
O60 C4 1.325 . S
O61 Li0 1.970 . S
O61 Li1 1.956 . S
O61 Li3 1.961 . S
O61 C10 1.325 . S
O62 Li0 1.961 . S
O62 Li2 1.956 . S
O62 Li3 1.970 . S
O62 C32 1.325 . S
O63 Li1 1.961 . S
O63 Li2 1.970 . S
O63 Li3 1.956 . S
O63 C38 1.325 . S
H64 C6 0.929 . S
H65 C7 0.930 . S
H66 C8 0.930 . S
H67 C9 0.930 . S
H68 C11 0.930 . S
H69 C13 0.929 . S
H70 C14 0.930 . S
H71 C15 0.930 . S
H72 C18 0.930 . S
H73 C21 0.929 . S
H74 C26 0.929 . S
H75 C27 0.930 . S
H76 C34 0.929 . S
H77 C35 0.930 . S
H78 C36 0.930 . S
H79 C37 0.930 . S
H80 C39 0.929 . S
H81 C40 0.930 . S
H82 C41 0.930 . S
H83 C42 0.930 . S
H84 C46 0.929 . S
H85 C48 0.930 . S
H86 C54 0.929 . S
H87 C55 0.930 . S
Li88 N105 1.990 . S
Li88 O148 1.956 . S
Li88 O149 1.970 . S
Li88 O150 1.961 . S
Li89 N113 1.990 . S
Li89 O148 1.970 . S
Li89 O149 1.956 . S
Li89 O151 1.961 . S
Li90 N135 1.990 . S
Li90 O148 1.961 . S
Li90 O150 1.956 . S
Li90 O151 1.970 . S
Li91 N141 1.990 . S
Li91 O149 1.961 . S
Li91 O150 1.970 . S
Li91 O151 1.956 . S
C92 C94 1.348 . S
C92 C95 1.356 . S
C92 O148 1.325 . S
N93 C96 1.314 . S
N93 C97 1.279 . S
C94 C92 1.348 . S
C94 C96 1.353 . S
C94 H152 0.929 . S
C95 C92 1.356 . S
C95 C97 1.358 . S
C95 H153 0.930 . S
C96 N93 1.314 . S
C96 C94 1.353 . S
C96 H154 0.930 . S
C97 N93 1.279 . S
C97 C95 1.358 . S
C97 H155 0.930 . S
C98 C101 1.348 . S
C98 C102 1.356 . S
C98 O149 1.325 . S
C99 N100 1.279 . S
C99 C102 1.358 . S
C99 H156 0.930 . S
N100 C99 1.279 . S
N100 C103 1.314 . S
C101 C98 1.348 . S
C101 C103 1.353 . S
C101 H157 0.929 . S
C102 C98 1.356 . S
C102 C99 1.358 . S
C102 H158 0.930 . S
C103 N100 1.314 . S
C103 C101 1.353 . S
C103 H159 0.930 . S
C104 N105 1.314 . S
C104 C109 1.353 . S
C104 H110 0.930 . S
N105 Li88 1.990 . S
N105 C104 1.314 . S
N105 C107 1.279 . S
C106 C107 1.358 . S
C106 C108 1.356 . S
C106 H160 0.930 . S
C107 N105 1.279 . S
C107 C106 1.358 . S
C107 H111 0.930 . S
C108 C106 1.356 . S
C108 C109 1.348 . S
C109 C104 1.353 . S
C109 C108 1.348 . S
C109 H161 0.929 . S
H110 C104 0.930 . S
H111 C107 0.930 . S
C112 N113 1.314 . S
C112 C114 1.353 . S
C112 H118 0.930 . S
N113 Li89 1.990 . S
N113 C112 1.314 . S
N113 C116 1.279 . S
C114 C112 1.353 . S
C114 C117 1.348 . S
C114 H162 0.929 . S
C115 C116 1.358 . S
C115 C117 1.356 . S
C115 H163 0.930 . S
C116 N113 1.279 . S
C116 C115 1.358 . S
C116 H119 0.930 . S
C117 C114 1.348 . S
C117 C115 1.356 . S
H118 C112 0.930 . S
H119 C116 0.930 . S
C120 C122 1.348 . S
C120 C123 1.356 . S
C120 O150 1.325 . S
N121 C124 1.314 . S
N121 C125 1.279 . S
C122 C120 1.348 . S
C122 C124 1.353 . S
C122 H164 0.929 . S
C123 C120 1.356 . S
C123 C125 1.358 . S
C123 H165 0.930 . S
C124 N121 1.314 . S
C124 C122 1.353 . S
C124 H166 0.930 . S
C125 N121 1.279 . S
C125 C123 1.358 . S
C125 H167 0.930 . S
C126 C127 1.348 . S
C126 C128 1.356 . S
C126 O151 1.325 . S
C127 C126 1.348 . S
C127 C129 1.353 . S
C127 H168 0.929 . S
C128 C126 1.356 . S
C128 C130 1.358 . S
C128 H169 0.930 . S
C129 C127 1.353 . S
C129 N131 1.314 . S
C129 H170 0.930 . S
C130 C128 1.358 . S
C130 N131 1.279 . S
C130 H171 0.930 . S
N131 C129 1.314 . S
N131 C130 1.279 . S
C132 C134 1.353 . S
C132 N135 1.314 . S
C132 H138 0.930 . S
C133 N135 1.279 . S
C133 C136 1.358 . S
C133 H139 0.930 . S
C134 C132 1.353 . S
C134 C137 1.348 . S
C134 H172 0.929 . S
N135 Li90 1.990 . S
N135 C132 1.314 . S
N135 C133 1.279 . S
C136 C133 1.358 . S
C136 C137 1.356 . S
C136 H173 0.930 . S
C137 C134 1.348 . S
C137 C136 1.356 . S
H138 C132 0.930 . S
H139 C133 0.930 . S
C140 N141 1.314 . S
C140 C142 1.353 . S
C140 H146 0.930 . S
N141 Li91 1.990 . S
N141 C140 1.314 . S
N141 C144 1.279 . S
C142 C140 1.353 . S
C142 C145 1.348 . S
C142 H174 0.929 . S
C143 C144 1.358 . S
C143 C145 1.356 . S
C143 H175 0.930 . S
C144 N141 1.279 . S
C144 C143 1.358 . S
C144 H147 0.930 . S
C145 C142 1.348 . S
C145 C143 1.356 . S
H146 C140 0.930 . S
H147 C144 0.930 . S
O148 Li88 1.956 . S
O148 Li89 1.970 . S
O148 Li90 1.961 . S
O148 C92 1.325 . S
O149 Li88 1.970 . S
O149 Li89 1.956 . S
O149 Li91 1.961 . S
O149 C98 1.325 . S
O150 Li88 1.961 . S
O150 Li90 1.956 . S
O150 Li91 1.970 . S
O150 C120 1.325 . S
O151 Li89 1.961 . S
O151 Li90 1.970 . S
O151 Li91 1.956 . S
O151 C126 1.325 . S
H152 C94 0.929 . S
H153 C95 0.930 . S
H154 C96 0.930 . S
H155 C97 0.930 . S
H156 C99 0.930 . S
H157 C101 0.929 . S
H158 C102 0.930 . S
H159 C103 0.930 . S
H160 C106 0.930 . S
H161 C109 0.929 . S
H162 C114 0.929 . S
H163 C115 0.930 . S
H164 C122 0.929 . S
H165 C123 0.930 . S
H166 C124 0.930 . S
H167 C125 0.930 . S
H168 C127 0.929 . S
H169 C128 0.930 . S
H170 C129 0.930 . S
H171 C130 0.930 . S
H172 C134 0.929 . S
H173 C136 0.930 . S
H174 C142 0.929 . S
H175 C143 0.930 . S
Li176 N193 1.990 . S
Li176 O236 1.956 . S
Li176 O237 1.970 . S
Li176 O238 1.961 . S
Li177 N201 1.990 . S
Li177 O236 1.970 . S
Li177 O237 1.956 . S
Li177 O239 1.961 . S
Li178 N223 1.990 . S
Li178 O236 1.961 . S
Li178 O238 1.956 . S
Li178 O239 1.970 . S
Li179 N229 1.990 . S
Li179 O237 1.961 . S
Li179 O238 1.970 . S
Li179 O239 1.956 . S
C180 C182 1.348 . S
C180 C183 1.356 . S
C180 O236 1.325 . S
N181 C184 1.314 . S
N181 C185 1.279 . S
C182 C180 1.348 . S
C182 C184 1.353 . S
C182 H240 0.929 . S
C183 C180 1.356 . S
C183 C185 1.358 . S
C183 H241 0.930 . S
C184 N181 1.314 . S
C184 C182 1.353 . S
C184 H242 0.930 . S
C185 N181 1.279 . S
C185 C183 1.358 . S
C185 H243 0.930 . S
C186 C189 1.348 . S
C186 C190 1.356 . S
C186 O237 1.325 . S
C187 N188 1.279 . S
C187 C190 1.358 . S
C187 H244 0.930 . S
N188 C187 1.279 . S
N188 C191 1.314 . S
C189 C186 1.348 . S
C189 C191 1.353 . S
C189 H245 0.929 . S
C190 C186 1.356 . S
C190 C187 1.358 . S
C190 H246 0.930 . S
C191 N188 1.314 . S
C191 C189 1.353 . S
C191 H247 0.930 . S
C192 N193 1.314 . S
C192 C197 1.353 . S
C192 H198 0.930 . S
N193 Li176 1.990 . S
N193 C192 1.314 . S
N193 C195 1.279 . S
C194 C195 1.358 . S
C194 C196 1.356 . S
C194 H248 0.930 . S
C195 N193 1.279 . S
C195 C194 1.358 . S
C195 H199 0.930 . S
C196 C194 1.356 . S
C196 C197 1.348 . S
C197 C192 1.353 . S
C197 C196 1.348 . S
C197 H249 0.929 . S
H198 C192 0.930 . S
H199 C195 0.930 . S
C200 N201 1.314 . S
C200 C202 1.353 . S
C200 H206 0.930 . S
N201 Li177 1.990 . S
N201 C200 1.314 . S
N201 C204 1.279 . S
C202 C200 1.353 . S
C202 C205 1.348 . S
C202 H250 0.929 . S
C203 C204 1.358 . S
C203 C205 1.356 . S
C203 H251 0.930 . S
C204 N201 1.279 . S
C204 C203 1.358 . S
C204 H207 0.930 . S
C205 C202 1.348 . S
C205 C203 1.356 . S
H206 C200 0.930 . S
H207 C204 0.930 . S
C208 C210 1.348 . S
C208 C211 1.356 . S
C208 O238 1.325 . S
N209 C212 1.314 . S
N209 C213 1.279 . S
C210 C208 1.348 . S
C210 C212 1.353 . S
C210 H252 0.929 . S
C211 C208 1.356 . S
C211 C213 1.358 . S
C211 H253 0.930 . S
C212 N209 1.314 . S
C212 C210 1.353 . S
C212 H254 0.930 . S
C213 N209 1.279 . S
C213 C211 1.358 . S
C213 H255 0.930 . S
C214 C215 1.348 . S
C214 C216 1.356 . S
C214 O239 1.325 . S
C215 C214 1.348 . S
C215 C217 1.353 . S
C215 H256 0.929 . S
C216 C214 1.356 . S
C216 C218 1.358 . S
C216 H257 0.930 . S
C217 C215 1.353 . S
C217 N219 1.314 . S
C217 H258 0.930 . S
C218 C216 1.358 . S
C218 N219 1.279 . S
C218 H259 0.930 . S
N219 C217 1.314 . S
N219 C218 1.279 . S
C220 C222 1.353 . S
C220 N223 1.314 . S
C220 H226 0.930 . S
C221 N223 1.279 . S
C221 C224 1.358 . S
C221 H227 0.930 . S
C222 C220 1.353 . S
C222 C225 1.348 . S
C222 H260 0.929 . S
N223 Li178 1.990 . S
N223 C220 1.314 . S
N223 C221 1.279 . S
C224 C221 1.358 . S
C224 C225 1.356 . S
C224 H261 0.930 . S
C225 C222 1.348 . S
C225 C224 1.356 . S
H226 C220 0.930 . S
H227 C221 0.930 . S
C228 N229 1.314 . S
C228 C230 1.353 . S
C228 H234 0.930 . S
N229 Li179 1.990 . S
N229 C228 1.314 . S
N229 C232 1.279 . S
C230 C228 1.353 . S
C230 C233 1.348 . S
C230 H262 0.929 . S
C231 C232 1.358 . S
C231 C233 1.356 . S
C231 H263 0.930 . S
C232 N229 1.279 . S
C232 C231 1.358 . S
C232 H235 0.930 . S
C233 C230 1.348 . S
C233 C231 1.356 . S
H234 C228 0.930 . S
H235 C232 0.930 . S
O236 Li176 1.956 . S
O236 Li177 1.970 . S
O236 Li178 1.961 . S
O236 C180 1.325 . S
O237 Li176 1.970 . S
O237 Li177 1.956 . S
O237 Li179 1.961 . S
O237 C186 1.325 . S
O238 Li176 1.961 . S
O238 Li178 1.956 . S
O238 Li179 1.970 . S
O238 C208 1.325 . S
O239 Li177 1.961 . S
O239 Li178 1.970 . S
O239 Li179 1.956 . S
O239 C214 1.325 . S
H240 C182 0.929 . S
H241 C183 0.930 . S
H242 C184 0.930 . S
H243 C185 0.930 . S
H244 C187 0.930 . S
H245 C189 0.929 . S
H246 C190 0.930 . S
H247 C191 0.930 . S
H248 C194 0.930 . S
H249 C197 0.929 . S
H250 C202 0.929 . S
H251 C203 0.930 . S
H252 C210 0.929 . S
H253 C211 0.930 . S
H254 C212 0.930 . S
H255 C213 0.930 . S
H256 C215 0.929 . S
H257 C216 0.930 . S
H258 C217 0.930 . S
H259 C218 0.930 . S
H260 C222 0.929 . S
H261 C224 0.930 . S
H262 C230 0.929 . S
H263 C231 0.930 . S
Li264 N281 1.990 . S
Li264 O324 1.956 . S
Li264 O325 1.970 . S
Li264 O326 1.961 . S
Li265 N289 1.990 . S
Li265 O324 1.970 . S
Li265 O325 1.956 . S
Li265 O327 1.961 . S
Li266 N311 1.990 . S
Li266 O324 1.961 . S
Li266 O326 1.956 . S
Li266 O327 1.970 . S
Li267 N317 1.990 . S
Li267 O325 1.961 . S
Li267 O326 1.970 . S
Li267 O327 1.956 . S
C268 C270 1.348 . S
C268 C271 1.356 . S
C268 O324 1.325 . S
N269 C272 1.314 . S
N269 C273 1.279 . S
C270 C268 1.348 . S
C270 C272 1.353 . S
C270 H328 0.929 . S
C271 C268 1.356 . S
C271 C273 1.358 . S
C271 H329 0.930 . S
C272 N269 1.314 . S
C272 C270 1.353 . S
C272 H330 0.930 . S
C273 N269 1.279 . S
C273 C271 1.358 . S
C273 H331 0.930 . S
C274 C277 1.348 . S
C274 C278 1.356 . S
C274 O325 1.325 . S
C275 N276 1.279 . S
C275 C278 1.358 . S
C275 H332 0.930 . S
N276 C275 1.279 . S
N276 C279 1.314 . S
C277 C274 1.348 . S
C277 C279 1.353 . S
C277 H333 0.929 . S
C278 C274 1.356 . S
C278 C275 1.358 . S
C278 H334 0.930 . S
C279 N276 1.314 . S
C279 C277 1.353 . S
C279 H335 0.930 . S
C280 N281 1.314 . S
C280 C285 1.353 . S
C280 H286 0.930 . S
N281 Li264 1.990 . S
N281 C280 1.314 . S
N281 C283 1.279 . S
C282 C283 1.358 . S
C282 C284 1.356 . S
C282 H336 0.930 . S
C283 N281 1.279 . S
C283 C282 1.358 . S
C283 H287 0.930 . S
C284 C282 1.356 . S
C284 C285 1.348 . S
C285 C280 1.353 . S
C285 C284 1.348 . S
C285 H337 0.929 . S
H286 C280 0.930 . S
H287 C283 0.930 . S
C288 N289 1.314 . S
C288 C290 1.353 . S
C288 H294 0.930 . S
N289 Li265 1.990 . S
N289 C288 1.314 . S
N289 C292 1.279 . S
C290 C288 1.353 . S
C290 C293 1.348 . S
C290 H338 0.929 . S
C291 C292 1.358 . S
C291 C293 1.356 . S
C291 H339 0.930 . S
C292 N289 1.279 . S
C292 C291 1.358 . S
C292 H295 0.930 . S
C293 C290 1.348 . S
C293 C291 1.356 . S
H294 C288 0.930 . S
H295 C292 0.930 . S
C296 C298 1.348 . S
C296 C299 1.356 . S
C296 O326 1.325 . S
N297 C300 1.314 . S
N297 C301 1.279 . S
C298 C296 1.348 . S
C298 C300 1.353 . S
C298 H340 0.929 . S
C299 C296 1.356 . S
C299 C301 1.358 . S
C299 H341 0.930 . S
C300 N297 1.314 . S
C300 C298 1.353 . S
C300 H342 0.930 . S
C301 N297 1.279 . S
C301 C299 1.358 . S
C301 H343 0.930 . S
C302 C303 1.348 . S
C302 C304 1.356 . S
C302 O327 1.325 . S
C303 C302 1.348 . S
C303 C305 1.353 . S
C303 H344 0.929 . S
C304 C302 1.356 . S
C304 C306 1.358 . S
C304 H345 0.930 . S
C305 C303 1.353 . S
C305 N307 1.314 . S
C305 H346 0.930 . S
C306 C304 1.358 . S
C306 N307 1.279 . S
C306 H347 0.930 . S
N307 C305 1.314 . S
N307 C306 1.279 . S
C308 C310 1.353 . S
C308 N311 1.314 . S
C308 H314 0.930 . S
C309 N311 1.279 . S
C309 C312 1.358 . S
C309 H315 0.930 . S
C310 C308 1.353 . S
C310 C313 1.348 . S
C310 H348 0.929 . S
N311 Li266 1.990 . S
N311 C308 1.314 . S
N311 C309 1.279 . S
C312 C309 1.358 . S
C312 C313 1.356 . S
C312 H349 0.930 . S
C313 C310 1.348 . S
C313 C312 1.356 . S
H314 C308 0.930 . S
H315 C309 0.930 . S
C316 N317 1.314 . S
C316 C318 1.353 . S
C316 H322 0.930 . S
N317 Li267 1.990 . S
N317 C316 1.314 . S
N317 C320 1.279 . S
C318 C316 1.353 . S
C318 C321 1.348 . S
C318 H350 0.929 . S
C319 C320 1.358 . S
C319 C321 1.356 . S
C319 H351 0.930 . S
C320 N317 1.279 . S
C320 C319 1.358 . S
C320 H323 0.930 . S
C321 C318 1.348 . S
C321 C319 1.356 . S
H322 C316 0.930 . S
H323 C320 0.930 . S
O324 Li264 1.956 . S
O324 Li265 1.970 . S
O324 Li266 1.961 . S
O324 C268 1.325 . S
O325 Li264 1.970 . S
O325 Li265 1.956 . S
O325 Li267 1.961 . S
O325 C274 1.325 . S
O326 Li264 1.961 . S
O326 Li266 1.956 . S
O326 Li267 1.970 . S
O326 C296 1.325 . S
O327 Li265 1.961 . S
O327 Li266 1.970 . S
O327 Li267 1.956 . S
O327 C302 1.325 . S
H328 C270 0.929 . S
H329 C271 0.930 . S
H330 C272 0.930 . S
H331 C273 0.930 . S
H332 C275 0.930 . S
H333 C277 0.929 . S
H334 C278 0.930 . S
H335 C279 0.930 . S
H336 C282 0.930 . S
H337 C285 0.929 . S
H338 C290 0.929 . S
H339 C291 0.930 . S
H340 C298 0.929 . S
H341 C299 0.930 . S
H342 C300 0.930 . S
H343 C301 0.930 . S
H344 C303 0.929 . S
H345 C304 0.930 . S
H346 C305 0.930 . S
H347 C306 0.930 . S
H348 C310 0.929 . S
H349 C312 0.930 . S
H350 C318 0.929 . S
H351 C319 0.930 . S
Li352 N369 1.990 . S
Li352 O412 1.956 . S
Li352 O413 1.970 . S
Li352 O414 1.961 . S
Li353 N377 1.990 . S
Li353 O412 1.970 . S
Li353 O413 1.956 . S
Li353 O415 1.961 . S
Li354 N399 1.990 . S
Li354 O412 1.961 . S
Li354 O414 1.956 . S
Li354 O415 1.970 . S
Li355 N405 1.990 . S
Li355 O413 1.961 . S
Li355 O414 1.970 . S
Li355 O415 1.956 . S
C356 C358 1.348 . S
C356 C359 1.356 . S
C356 O412 1.325 . S
N357 C360 1.314 . S
N357 C361 1.279 . S
C358 C356 1.348 . S
C358 C360 1.353 . S
C358 H416 0.929 . S
C359 C356 1.356 . S
C359 C361 1.358 . S
C359 H417 0.930 . S
C360 N357 1.314 . S
C360 C358 1.353 . S
C360 H418 0.930 . S
C361 N357 1.279 . S
C361 C359 1.358 . S
C361 H419 0.930 . S
C362 C365 1.348 . S
C362 C366 1.356 . S
C362 O413 1.325 . S
C363 N364 1.279 . S
C363 C366 1.358 . S
C363 H420 0.930 . S
N364 C363 1.279 . S
N364 C367 1.314 . S
C365 C362 1.348 . S
C365 C367 1.353 . S
C365 H421 0.929 . S
C366 C362 1.356 . S
C366 C363 1.358 . S
C366 H422 0.930 . S
C367 N364 1.314 . S
C367 C365 1.353 . S
C367 H423 0.930 . S
C368 N369 1.314 . S
C368 C373 1.353 . S
C368 H374 0.930 . S
N369 Li352 1.990 . S
N369 C368 1.314 . S
N369 C371 1.279 . S
C370 C371 1.358 . S
C370 C372 1.356 . S
C370 H424 0.930 . S
C371 N369 1.279 . S
C371 C370 1.358 . S
C371 H375 0.930 . S
C372 C370 1.356 . S
C372 C373 1.348 . S
C373 C368 1.353 . S
C373 C372 1.348 . S
C373 H425 0.929 . S
H374 C368 0.930 . S
H375 C371 0.930 . S
C376 N377 1.314 . S
C376 C378 1.353 . S
C376 H382 0.930 . S
N377 Li353 1.990 . S
N377 C376 1.314 . S
N377 C380 1.279 . S
C378 C376 1.353 . S
C378 C381 1.348 . S
C378 H426 0.929 . S
C379 C380 1.358 . S
C379 C381 1.356 . S
C379 H427 0.930 . S
C380 N377 1.279 . S
C380 C379 1.358 . S
C380 H383 0.930 . S
C381 C378 1.348 . S
C381 C379 1.356 . S
H382 C376 0.930 . S
H383 C380 0.930 . S
C384 C386 1.348 . S
C384 C387 1.356 . S
C384 O414 1.325 . S
N385 C388 1.314 . S
N385 C389 1.279 . S
C386 C384 1.348 . S
C386 C388 1.353 . S
C386 H428 0.929 . S
C387 C384 1.356 . S
C387 C389 1.358 . S
C387 H429 0.930 . S
C388 N385 1.314 . S
C388 C386 1.353 . S
C388 H430 0.930 . S
C389 N385 1.279 . S
C389 C387 1.358 . S
C389 H431 0.930 . S
C390 C391 1.348 . S
C390 C392 1.356 . S
C390 O415 1.325 . S
C391 C390 1.348 . S
C391 C393 1.353 . S
C391 H432 0.929 . S
C392 C390 1.356 . S
C392 C394 1.358 . S
C392 H433 0.930 . S
C393 C391 1.353 . S
C393 N395 1.314 . S
C393 H434 0.930 . S
C394 C392 1.358 . S
C394 N395 1.279 . S
C394 H435 0.930 . S
N395 C393 1.314 . S
N395 C394 1.279 . S
C396 C398 1.353 . S
C396 N399 1.314 . S
C396 H402 0.930 . S
C397 N399 1.279 . S
C397 C400 1.358 . S
C397 H403 0.930 . S
C398 C396 1.353 . S
C398 C401 1.348 . S
C398 H436 0.929 . S
N399 Li354 1.990 . S
N399 C396 1.314 . S
N399 C397 1.279 . S
C400 C397 1.358 . S
C400 C401 1.356 . S
C400 H437 0.930 . S
C401 C398 1.348 . S
C401 C400 1.356 . S
H402 C396 0.930 . S
H403 C397 0.930 . S
C404 N405 1.314 . S
C404 C406 1.353 . S
C404 H410 0.930 . S
N405 Li355 1.990 . S
N405 C404 1.314 . S
N405 C408 1.279 . S
C406 C404 1.353 . S
C406 C409 1.348 . S
C406 H438 0.929 . S
C407 C408 1.358 . S
C407 C409 1.356 . S
C407 H439 0.930 . S
C408 N405 1.279 . S
C408 C407 1.358 . S
C408 H411 0.930 . S
C409 C406 1.348 . S
C409 C407 1.356 . S
H410 C404 0.930 . S
H411 C408 0.930 . S
O412 Li352 1.956 . S
O412 Li353 1.970 . S
O412 Li354 1.961 . S
O412 C356 1.325 . S
O413 Li352 1.970 . S
O413 Li353 1.956 . S
O413 Li355 1.961 . S
O413 C362 1.325 . S
O414 Li352 1.961 . S
O414 Li354 1.956 . S
O414 Li355 1.970 . S
O414 C384 1.325 . S
O415 Li353 1.961 . S
O415 Li354 1.970 . S
O415 Li355 1.956 . S
O415 C390 1.325 . S
H416 C358 0.929 . S
H417 C359 0.930 . S
H418 C360 0.930 . S
H419 C361 0.930 . S
H420 C363 0.930 . S
H421 C365 0.929 . S
H422 C366 0.930 . S
H423 C367 0.930 . S
H424 C370 0.930 . S
H425 C373 0.929 . S
H426 C378 0.929 . S
H427 C379 0.930 . S
H428 C386 0.929 . S
H429 C387 0.930 . S
H430 C388 0.930 . S
H431 C389 0.930 . S
H432 C391 0.929 . S
H433 C392 0.930 . S
H434 C393 0.930 . S
H435 C394 0.930 . S
H436 C398 0.929 . S
H437 C400 0.930 . S
H438 C406 0.929 . S
H439 C407 0.930 . S
Li440 N457 1.990 . S
Li440 O500 1.956 . S
Li440 O501 1.970 . S
Li440 O502 1.961 . S
Li441 N465 1.990 . S
Li441 O500 1.970 . S
Li441 O501 1.956 . S
Li441 O503 1.961 . S
Li442 N487 1.990 . S
Li442 O500 1.961 . S
Li442 O502 1.956 . S
Li442 O503 1.970 . S
Li443 N493 1.990 . S
Li443 O501 1.961 . S
Li443 O502 1.970 . S
Li443 O503 1.956 . S
C444 C446 1.348 . S
C444 C447 1.356 . S
C444 O500 1.325 . S
N445 C448 1.314 . S
N445 C449 1.279 . S
C446 C444 1.348 . S
C446 C448 1.353 . S
C446 H504 0.929 . S
C447 C444 1.356 . S
C447 C449 1.358 . S
C447 H505 0.930 . S
C448 N445 1.314 . S
C448 C446 1.353 . S
C448 H506 0.930 . S
C449 N445 1.279 . S
C449 C447 1.358 . S
C449 H507 0.930 . S
C450 C453 1.348 . S
C450 C454 1.356 . S
C450 O501 1.325 . S
C451 N452 1.279 . S
C451 C454 1.358 . S
C451 H508 0.930 . S
N452 C451 1.279 . S
N452 C455 1.314 . S
C453 C450 1.348 . S
C453 C455 1.353 . S
C453 H509 0.929 . S
C454 C450 1.356 . S
C454 C451 1.358 . S
C454 H510 0.930 . S
C455 N452 1.314 . S
C455 C453 1.353 . S
C455 H511 0.930 . S
C456 N457 1.314 . S
C456 C461 1.353 . S
C456 H462 0.930 . S
N457 Li440 1.990 . S
N457 C456 1.314 . S
N457 C459 1.279 . S
C458 C459 1.358 . S
C458 C460 1.356 . S
C458 H512 0.930 . S
C459 N457 1.279 . S
C459 C458 1.358 . S
C459 H463 0.930 . S
C460 C458 1.356 . S
C460 C461 1.348 . S
C461 C456 1.353 . S
C461 C460 1.348 . S
C461 H513 0.929 . S
H462 C456 0.930 . S
H463 C459 0.930 . S
C464 N465 1.314 . S
C464 C466 1.353 . S
C464 H470 0.930 . S
N465 Li441 1.990 . S
N465 C464 1.314 . S
N465 C468 1.279 . S
C466 C464 1.353 . S
C466 C469 1.348 . S
C466 H514 0.929 . S
C467 C468 1.358 . S
C467 C469 1.356 . S
C467 H515 0.930 . S
C468 N465 1.279 . S
C468 C467 1.358 . S
C468 H471 0.930 . S
C469 C466 1.348 . S
C469 C467 1.356 . S
H470 C464 0.930 . S
H471 C468 0.930 . S
C472 C474 1.348 . S
C472 C475 1.356 . S
C472 O502 1.325 . S
N473 C476 1.314 . S
N473 C477 1.279 . S
C474 C472 1.348 . S
C474 C476 1.353 . S
C474 H516 0.929 . S
C475 C472 1.356 . S
C475 C477 1.358 . S
C475 H517 0.930 . S
C476 N473 1.314 . S
C476 C474 1.353 . S
C476 H518 0.930 . S
C477 N473 1.279 . S
C477 C475 1.358 . S
C477 H519 0.930 . S
C478 C479 1.348 . S
C478 C480 1.356 . S
C478 O503 1.325 . S
C479 C478 1.348 . S
C479 C481 1.353 . S
C479 H520 0.929 . S
C480 C478 1.356 . S
C480 C482 1.358 . S
C480 H521 0.930 . S
C481 C479 1.353 . S
C481 N483 1.314 . S
C481 H522 0.930 . S
C482 C480 1.358 . S
C482 N483 1.279 . S
C482 H523 0.930 . S
N483 C481 1.314 . S
N483 C482 1.279 . S
C484 C486 1.353 . S
C484 N487 1.314 . S
C484 H490 0.930 . S
C485 N487 1.279 . S
C485 C488 1.358 . S
C485 H491 0.930 . S
C486 C484 1.353 . S
C486 C489 1.348 . S
C486 H524 0.929 . S
N487 Li442 1.990 . S
N487 C484 1.314 . S
N487 C485 1.279 . S
C488 C485 1.358 . S
C488 C489 1.356 . S
C488 H525 0.930 . S
C489 C486 1.348 . S
C489 C488 1.356 . S
H490 C484 0.930 . S
H491 C485 0.930 . S
C492 N493 1.314 . S
C492 C494 1.353 . S
C492 H498 0.930 . S
N493 Li443 1.990 . S
N493 C492 1.314 . S
N493 C496 1.279 . S
C494 C492 1.353 . S
C494 C497 1.348 . S
C494 H526 0.929 . S
C495 C496 1.358 . S
C495 C497 1.356 . S
C495 H527 0.930 . S
C496 N493 1.279 . S
C496 C495 1.358 . S
C496 H499 0.930 . S
C497 C494 1.348 . S
C497 C495 1.356 . S
H498 C492 0.930 . S
H499 C496 0.930 . S
O500 Li440 1.956 . S
O500 Li441 1.970 . S
O500 Li442 1.961 . S
O500 C444 1.325 . S
O501 Li440 1.970 . S
O501 Li441 1.956 . S
O501 Li443 1.961 . S
O501 C450 1.325 . S
O502 Li440 1.961 . S
O502 Li442 1.956 . S
O502 Li443 1.970 . S
O502 C472 1.325 . S
O503 Li441 1.961 . S
O503 Li442 1.970 . S
O503 Li443 1.956 . S
O503 C478 1.325 . S
H504 C446 0.929 . S
H505 C447 0.930 . S
H506 C448 0.930 . S
H507 C449 0.930 . S
H508 C451 0.930 . S
H509 C453 0.929 . S
H510 C454 0.930 . S
H511 C455 0.930 . S
H512 C458 0.930 . S
H513 C461 0.929 . S
H514 C466 0.929 . S
H515 C467 0.930 . S
H516 C474 0.929 . S
H517 C475 0.930 . S
H518 C476 0.930 . S
H519 C477 0.930 . S
H520 C479 0.929 . S
H521 C480 0.930 . S
H522 C481 0.930 . S
H523 C482 0.930 . S
H524 C486 0.929 . S
H525 C488 0.930 . S
H526 C494 0.929 . S
H527 C495 0.930 . S
Li528 N545 1.990 . S
Li528 O588 1.956 . S
Li528 O589 1.970 . S
Li528 O590 1.961 . S
Li529 N553 1.990 . S
Li529 O588 1.970 . S
Li529 O589 1.956 . S
Li529 O591 1.961 . S
Li530 N575 1.990 . S
Li530 O588 1.961 . S
Li530 O590 1.956 . S
Li530 O591 1.970 . S
Li531 N581 1.990 . S
Li531 O589 1.961 . S
Li531 O590 1.970 . S
Li531 O591 1.956 . S
C532 C534 1.348 . S
C532 C535 1.356 . S
C532 O588 1.325 . S
N533 C536 1.314 . S
N533 C537 1.279 . S
C534 C532 1.348 . S
C534 C536 1.353 . S
C534 H592 0.929 . S
C535 C532 1.356 . S
C535 C537 1.358 . S
C535 H593 0.930 . S
C536 N533 1.314 . S
C536 C534 1.353 . S
C536 H594 0.930 . S
C537 N533 1.279 . S
C537 C535 1.358 . S
C537 H595 0.930 . S
C538 C541 1.348 . S
C538 C542 1.356 . S
C538 O589 1.325 . S
C539 N540 1.279 . S
C539 C542 1.358 . S
C539 H596 0.930 . S
N540 C539 1.279 . S
N540 C543 1.314 . S
C541 C538 1.348 . S
C541 C543 1.353 . S
C541 H597 0.929 . S
C542 C538 1.356 . S
C542 C539 1.358 . S
C542 H598 0.930 . S
C543 N540 1.314 . S
C543 C541 1.353 . S
C543 H599 0.930 . S
C544 N545 1.314 . S
C544 C549 1.353 . S
C544 H550 0.930 . S
N545 Li528 1.990 . S
N545 C544 1.314 . S
N545 C547 1.279 . S
C546 C547 1.358 . S
C546 C548 1.356 . S
C546 H600 0.930 . S
C547 N545 1.279 . S
C547 C546 1.358 . S
C547 H551 0.930 . S
C548 C546 1.356 . S
C548 C549 1.348 . S
C549 C544 1.353 . S
C549 C548 1.348 . S
C549 H601 0.929 . S
H550 C544 0.930 . S
H551 C547 0.930 . S
C552 N553 1.314 . S
C552 C554 1.353 . S
C552 H558 0.930 . S
N553 Li529 1.990 . S
N553 C552 1.314 . S
N553 C556 1.279 . S
C554 C552 1.353 . S
C554 C557 1.348 . S
C554 H602 0.929 . S
C555 C556 1.358 . S
C555 C557 1.356 . S
C555 H603 0.930 . S
C556 N553 1.279 . S
C556 C555 1.358 . S
C556 H559 0.930 . S
C557 C554 1.348 . S
C557 C555 1.356 . S
H558 C552 0.930 . S
H559 C556 0.930 . S
C560 C562 1.348 . S
C560 C563 1.356 . S
C560 O590 1.325 . S
N561 C564 1.314 . S
N561 C565 1.279 . S
C562 C560 1.348 . S
C562 C564 1.353 . S
C562 H604 0.929 . S
C563 C560 1.356 . S
C563 C565 1.358 . S
C563 H605 0.930 . S
C564 N561 1.314 . S
C564 C562 1.353 . S
C564 H606 0.930 . S
C565 N561 1.279 . S
C565 C563 1.358 . S
C565 H607 0.930 . S
C566 C567 1.348 . S
C566 C568 1.356 . S
C566 O591 1.325 . S
C567 C566 1.348 . S
C567 C569 1.353 . S
C567 H608 0.929 . S
C568 C566 1.356 . S
C568 C570 1.358 . S
C568 H609 0.930 . S
C569 C567 1.353 . S
C569 N571 1.314 . S
C569 H610 0.930 . S
C570 C568 1.358 . S
C570 N571 1.279 . S
C570 H611 0.930 . S
N571 C569 1.314 . S
N571 C570 1.279 . S
C572 C574 1.353 . S
C572 N575 1.314 . S
C572 H578 0.930 . S
C573 N575 1.279 . S
C573 C576 1.358 . S
C573 H579 0.930 . S
C574 C572 1.353 . S
C574 C577 1.348 . S
C574 H612 0.929 . S
N575 Li530 1.990 . S
N575 C572 1.314 . S
N575 C573 1.279 . S
C576 C573 1.358 . S
C576 C577 1.356 . S
C576 H613 0.930 . S
C577 C574 1.348 . S
C577 C576 1.356 . S
H578 C572 0.930 . S
H579 C573 0.930 . S
C580 N581 1.314 . S
C580 C582 1.353 . S
C580 H586 0.930 . S
N581 Li531 1.990 . S
N581 C580 1.314 . S
N581 C584 1.279 . S
C582 C580 1.353 . S
C582 C585 1.348 . S
C582 H614 0.929 . S
C583 C584 1.358 . S
C583 C585 1.356 . S
C583 H615 0.930 . S
C584 N581 1.279 . S
C584 C583 1.358 . S
C584 H587 0.930 . S
C585 C582 1.348 . S
C585 C583 1.356 . S
H586 C580 0.930 . S
H587 C584 0.930 . S
O588 Li528 1.956 . S
O588 Li529 1.970 . S
O588 Li530 1.961 . S
O588 C532 1.325 . S
O589 Li528 1.970 . S
O589 Li529 1.956 . S
O589 Li531 1.961 . S
O589 C538 1.325 . S
O590 Li528 1.961 . S
O590 Li530 1.956 . S
O590 Li531 1.970 . S
O590 C560 1.325 . S
O591 Li529 1.961 . S
O591 Li530 1.970 . S
O591 Li531 1.956 . S
O591 C566 1.325 . S
H592 C534 0.929 . S
H593 C535 0.930 . S
H594 C536 0.930 . S
H595 C537 0.930 . S
H596 C539 0.930 . S
H597 C541 0.929 . S
H598 C542 0.930 . S
H599 C543 0.930 . S
H600 C546 0.930 . S
H601 C549 0.929 . S
H602 C554 0.929 . S
H603 C555 0.930 . S
H604 C562 0.929 . S
H605 C563 0.930 . S
H606 C564 0.930 . S
H607 C565 0.930 . S
H608 C567 0.929 . S
H609 C568 0.930 . S
H610 C569 0.930 . S
H611 C570 0.930 . S
H612 C574 0.929 . S
H613 C576 0.930 . S
H614 C582 0.929 . S
H615 C583 0.930 . S
Li616 N633 1.990 . S
Li616 O676 1.956 . S
Li616 O677 1.970 . S
Li616 O678 1.961 . S
Li617 N641 1.990 . S
Li617 O676 1.970 . S
Li617 O677 1.956 . S
Li617 O679 1.961 . S
Li618 N663 1.990 . S
Li618 O676 1.961 . S
Li618 O678 1.956 . S
Li618 O679 1.970 . S
Li619 N669 1.990 . S
Li619 O677 1.961 . S
Li619 O678 1.970 . S
Li619 O679 1.956 . S
C620 C622 1.348 . S
C620 C623 1.356 . S
C620 O676 1.325 . S
N621 C624 1.314 . S
N621 C625 1.279 . S
C622 C620 1.348 . S
C622 C624 1.353 . S
C622 H680 0.929 . S
C623 C620 1.356 . S
C623 C625 1.358 . S
C623 H681 0.930 . S
C624 N621 1.314 . S
C624 C622 1.353 . S
C624 H682 0.930 . S
C625 N621 1.279 . S
C625 C623 1.358 . S
C625 H683 0.930 . S
C626 C629 1.348 . S
C626 C630 1.356 . S
C626 O677 1.325 . S
C627 N628 1.279 . S
C627 C630 1.358 . S
C627 H684 0.930 . S
N628 C627 1.279 . S
N628 C631 1.314 . S
C629 C626 1.348 . S
C629 C631 1.353 . S
C629 H685 0.929 . S
C630 C626 1.356 . S
C630 C627 1.358 . S
C630 H686 0.930 . S
C631 N628 1.314 . S
C631 C629 1.353 . S
C631 H687 0.930 . S
C632 N633 1.314 . S
C632 C637 1.353 . S
C632 H638 0.930 . S
N633 Li616 1.990 . S
N633 C632 1.314 . S
N633 C635 1.279 . S
C634 C635 1.358 . S
C634 C636 1.356 . S
C634 H688 0.930 . S
C635 N633 1.279 . S
C635 C634 1.358 . S
C635 H639 0.930 . S
C636 C634 1.356 . S
C636 C637 1.348 . S
C637 C632 1.353 . S
C637 C636 1.348 . S
C637 H689 0.929 . S
H638 C632 0.930 . S
H639 C635 0.930 . S
C640 N641 1.314 . S
C640 C642 1.353 . S
C640 H646 0.930 . S
N641 Li617 1.990 . S
N641 C640 1.314 . S
N641 C644 1.279 . S
C642 C640 1.353 . S
C642 C645 1.348 . S
C642 H690 0.929 . S
C643 C644 1.358 . S
C643 C645 1.356 . S
C643 H691 0.930 . S
C644 N641 1.279 . S
C644 C643 1.358 . S
C644 H647 0.930 . S
C645 C642 1.348 . S
C645 C643 1.356 . S
H646 C640 0.930 . S
H647 C644 0.930 . S
C648 C650 1.348 . S
C648 C651 1.356 . S
C648 O678 1.325 . S
N649 C652 1.314 . S
N649 C653 1.279 . S
C650 C648 1.348 . S
C650 C652 1.353 . S
C650 H692 0.929 . S
C651 C648 1.356 . S
C651 C653 1.358 . S
C651 H693 0.930 . S
C652 N649 1.314 . S
C652 C650 1.353 . S
C652 H694 0.930 . S
C653 N649 1.279 . S
C653 C651 1.358 . S
C653 H695 0.930 . S
C654 C655 1.348 . S
C654 C656 1.356 . S
C654 O679 1.325 . S
C655 C654 1.348 . S
C655 C657 1.353 . S
C655 H696 0.929 . S
C656 C654 1.356 . S
C656 C658 1.358 . S
C656 H697 0.930 . S
C657 C655 1.353 . S
C657 N659 1.314 . S
C657 H698 0.930 . S
C658 C656 1.358 . S
C658 N659 1.279 . S
C658 H699 0.930 . S
N659 C657 1.314 . S
N659 C658 1.279 . S
C660 C662 1.353 . S
C660 N663 1.314 . S
C660 H666 0.930 . S
C661 N663 1.279 . S
C661 C664 1.358 . S
C661 H667 0.930 . S
C662 C660 1.353 . S
C662 C665 1.348 . S
C662 H700 0.929 . S
N663 Li618 1.990 . S
N663 C660 1.314 . S
N663 C661 1.279 . S
C664 C661 1.358 . S
C664 C665 1.356 . S
C664 H701 0.930 . S
C665 C662 1.348 . S
C665 C664 1.356 . S
H666 C660 0.930 . S
H667 C661 0.930 . S
C668 N669 1.314 . S
C668 C670 1.353 . S
C668 H674 0.930 . S
N669 Li619 1.990 . S
N669 C668 1.314 . S
N669 C672 1.279 . S
C670 C668 1.353 . S
C670 C673 1.348 . S
C670 H702 0.929 . S
C671 C672 1.358 . S
C671 C673 1.356 . S
C671 H703 0.930 . S
C672 N669 1.279 . S
C672 C671 1.358 . S
C672 H675 0.930 . S
C673 C670 1.348 . S
C673 C671 1.356 . S
H674 C668 0.930 . S
H675 C672 0.930 . S
O676 Li616 1.956 . S
O676 Li617 1.970 . S
O676 Li618 1.961 . S
O676 C620 1.325 . S
O677 Li616 1.970 . S
O677 Li617 1.956 . S
O677 Li619 1.961 . S
O677 C626 1.325 . S
O678 Li616 1.961 . S
O678 Li618 1.956 . S
O678 Li619 1.970 . S
O678 C648 1.325 . S
O679 Li617 1.961 . S
O679 Li618 1.970 . S
O679 Li619 1.956 . S
O679 C654 1.325 . S
H680 C622 0.929 . S
H681 C623 0.930 . S
H682 C624 0.930 . S
H683 C625 0.930 . S
H684 C627 0.930 . S
H685 C629 0.929 . S
H686 C630 0.930 . S
H687 C631 0.930 . S
H688 C634 0.930 . S
H689 C637 0.929 . S
H690 C642 0.929 . S
H691 C643 0.930 . S
H692 C650 0.929 . S
H693 C651 0.930 . S
H694 C652 0.930 . S
H695 C653 0.930 . S
H696 C655 0.929 . S
H697 C656 0.930 . S
H698 C657 0.930 . S
H699 C658 0.930 . S
H700 C662 0.929 . S
H701 C664 0.930 . S
H702 C670 0.929 . S
H703 C671 0.930 . S
Li704 N721 1.990 . S
Li704 O764 1.956 . S
Li704 O765 1.970 . S
Li704 O766 1.961 . S
Li705 N729 1.990 . S
Li705 O764 1.970 . S
Li705 O765 1.956 . S
Li705 O767 1.961 . S
Li706 N751 1.990 . S
Li706 O764 1.961 . S
Li706 O766 1.956 . S
Li706 O767 1.970 . S
Li707 N757 1.990 . S
Li707 O765 1.961 . S
Li707 O766 1.970 . S
Li707 O767 1.956 . S
C708 C710 1.348 . S
C708 C711 1.356 . S
C708 O764 1.325 . S
N709 C712 1.314 . S
N709 C713 1.279 . S
C710 C708 1.348 . S
C710 C712 1.353 . S
C710 H768 0.929 . S
C711 C708 1.356 . S
C711 C713 1.358 . S
C711 H769 0.930 . S
C712 N709 1.314 . S
C712 C710 1.353 . S
C712 H770 0.930 . S
C713 N709 1.279 . S
C713 C711 1.358 . S
C713 H771 0.930 . S
C714 C717 1.348 . S
C714 C718 1.356 . S
C714 O765 1.325 . S
C715 N716 1.279 . S
C715 C718 1.358 . S
C715 H772 0.930 . S
N716 C715 1.279 . S
N716 C719 1.314 . S
C717 C714 1.348 . S
C717 C719 1.353 . S
C717 H773 0.929 . S
C718 C714 1.356 . S
C718 C715 1.358 . S
C718 H774 0.930 . S
C719 N716 1.314 . S
C719 C717 1.353 . S
C719 H775 0.930 . S
C720 N721 1.314 . S
C720 C725 1.353 . S
C720 H726 0.930 . S
N721 Li704 1.990 . S
N721 C720 1.314 . S
N721 C723 1.279 . S
C722 C723 1.358 . S
C722 C724 1.356 . S
C722 H776 0.930 . S
C723 N721 1.279 . S
C723 C722 1.358 . S
C723 H727 0.930 . S
C724 C722 1.356 . S
C724 C725 1.348 . S
C725 C720 1.353 . S
C725 C724 1.348 . S
C725 H777 0.929 . S
H726 C720 0.930 . S
H727 C723 0.930 . S
C728 N729 1.314 . S
C728 C730 1.353 . S
C728 H734 0.930 . S
N729 Li705 1.990 . S
N729 C728 1.314 . S
N729 C732 1.279 . S
C730 C728 1.353 . S
C730 C733 1.348 . S
C730 H778 0.929 . S
C731 C732 1.358 . S
C731 C733 1.356 . S
C731 H779 0.930 . S
C732 N729 1.279 . S
C732 C731 1.358 . S
C732 H735 0.930 . S
C733 C730 1.348 . S
C733 C731 1.356 . S
H734 C728 0.930 . S
H735 C732 0.930 . S
C736 C738 1.348 . S
C736 C739 1.356 . S
C736 O766 1.325 . S
N737 C740 1.314 . S
N737 C741 1.279 . S
C738 C736 1.348 . S
C738 C740 1.353 . S
C738 H780 0.929 . S
C739 C736 1.356 . S
C739 C741 1.358 . S
C739 H781 0.930 . S
C740 N737 1.314 . S
C740 C738 1.353 . S
C740 H782 0.930 . S
C741 N737 1.279 . S
C741 C739 1.358 . S
C741 H783 0.930 . S
C742 C743 1.348 . S
C742 C744 1.356 . S
C742 O767 1.325 . S
C743 C742 1.348 . S
C743 C745 1.353 . S
C743 H784 0.929 . S
C744 C742 1.356 . S
C744 C746 1.358 . S
C744 H785 0.930 . S
C745 C743 1.353 . S
C745 N747 1.314 . S
C745 H786 0.930 . S
C746 C744 1.358 . S
C746 N747 1.279 . S
C746 H787 0.930 . S
N747 C745 1.314 . S
N747 C746 1.279 . S
C748 C750 1.353 . S
C748 N751 1.314 . S
C748 H754 0.930 . S
C749 N751 1.279 . S
C749 C752 1.358 . S
C749 H755 0.930 . S
C750 C748 1.353 . S
C750 C753 1.348 . S
C750 H788 0.929 . S
N751 Li706 1.990 . S
N751 C748 1.314 . S
N751 C749 1.279 . S
C752 C749 1.358 . S
C752 C753 1.356 . S
C752 H789 0.930 . S
C753 C750 1.348 . S
C753 C752 1.356 . S
H754 C748 0.930 . S
H755 C749 0.930 . S
C756 N757 1.314 . S
C756 C758 1.353 . S
C756 H762 0.930 . S
N757 Li707 1.990 . S
N757 C756 1.314 . S
N757 C760 1.279 . S
C758 C756 1.353 . S
C758 C761 1.348 . S
C758 H790 0.929 . S
C759 C760 1.358 . S
C759 C761 1.356 . S
C759 H791 0.930 . S
C760 N757 1.279 . S
C760 C759 1.358 . S
C760 H763 0.930 . S
C761 C758 1.348 . S
C761 C759 1.356 . S
H762 C756 0.930 . S
H763 C760 0.930 . S
O764 Li704 1.956 . S
O764 Li705 1.970 . S
O764 Li706 1.961 . S
O764 C708 1.325 . S
O765 Li704 1.970 . S
O765 Li705 1.956 . S
O765 Li707 1.961 . S
O765 C714 1.325 . S
O766 Li704 1.961 . S
O766 Li706 1.956 . S
O766 Li707 1.970 . S
O766 C736 1.325 . S
O767 Li705 1.961 . S
O767 Li706 1.970 . S
O767 Li707 1.956 . S
O767 C742 1.325 . S
H768 C710 0.929 . S
H769 C711 0.930 . S
H770 C712 0.930 . S
H771 C713 0.930 . S
H772 C715 0.930 . S
H773 C717 0.929 . S
H774 C718 0.930 . S
H775 C719 0.930 . S
H776 C722 0.930 . S
H777 C725 0.929 . S
H778 C730 0.929 . S
H779 C731 0.930 . S
H780 C738 0.929 . S
H781 C739 0.930 . S
H782 C740 0.930 . S
H783 C741 0.930 . S
H784 C743 0.929 . S
H785 C744 0.930 . S
H786 C745 0.930 . S
H787 C746 0.930 . S
H788 C750 0.929 . S
H789 C752 0.930 . S
H790 C758 0.929 . S
H791 C759 0.930 . S
Li792 N809 1.990 . S
Li792 O852 1.956 . S
Li792 O853 1.970 . S
Li792 O854 1.961 . S
Li793 N817 1.990 . S
Li793 O852 1.970 . S
Li793 O853 1.956 . S
Li793 O855 1.961 . S
Li794 N839 1.990 . S
Li794 O852 1.961 . S
Li794 O854 1.956 . S
Li794 O855 1.970 . S
Li795 N845 1.990 . S
Li795 O853 1.961 . S
Li795 O854 1.970 . S
Li795 O855 1.956 . S
C796 C798 1.348 . S
C796 C799 1.356 . S
C796 O852 1.325 . S
N797 C800 1.314 . S
N797 C801 1.279 . S
C798 C796 1.348 . S
C798 C800 1.353 . S
C798 H856 0.929 . S
C799 C796 1.356 . S
C799 C801 1.358 . S
C799 H857 0.930 . S
C800 N797 1.314 . S
C800 C798 1.353 . S
C800 H858 0.930 . S
C801 N797 1.279 . S
C801 C799 1.358 . S
C801 H859 0.930 . S
C802 C805 1.348 . S
C802 C806 1.356 . S
C802 O853 1.325 . S
C803 N804 1.279 . S
C803 C806 1.358 . S
C803 H860 0.930 . S
N804 C803 1.279 . S
N804 C807 1.314 . S
C805 C802 1.348 . S
C805 C807 1.353 . S
C805 H861 0.929 . S
C806 C802 1.356 . S
C806 C803 1.358 . S
C806 H862 0.930 . S
C807 N804 1.314 . S
C807 C805 1.353 . S
C807 H863 0.930 . S
C808 N809 1.314 . S
C808 C813 1.353 . S
C808 H814 0.930 . S
N809 Li792 1.990 . S
N809 C808 1.314 . S
N809 C811 1.279 . S
C810 C811 1.358 . S
C810 C812 1.356 . S
C810 H864 0.930 . S
C811 N809 1.279 . S
C811 C810 1.358 . S
C811 H815 0.930 . S
C812 C810 1.356 . S
C812 C813 1.348 . S
C813 C808 1.353 . S
C813 C812 1.348 . S
C813 H865 0.929 . S
H814 C808 0.930 . S
H815 C811 0.930 . S
C816 N817 1.314 . S
C816 C818 1.353 . S
C816 H822 0.930 . S
N817 Li793 1.990 . S
N817 C816 1.314 . S
N817 C820 1.279 . S
C818 C816 1.353 . S
C818 C821 1.348 . S
C818 H866 0.929 . S
C819 C820 1.358 . S
C819 C821 1.356 . S
C819 H867 0.930 . S
C820 N817 1.279 . S
C820 C819 1.358 . S
C820 H823 0.930 . S
C821 C818 1.348 . S
C821 C819 1.356 . S
H822 C816 0.930 . S
H823 C820 0.930 . S
C824 C826 1.348 . S
C824 C827 1.356 . S
C824 O854 1.325 . S
N825 C828 1.314 . S
N825 C829 1.279 . S
C826 C824 1.348 . S
C826 C828 1.353 . S
C826 H868 0.929 . S
C827 C824 1.356 . S
C827 C829 1.358 . S
C827 H869 0.930 . S
C828 N825 1.314 . S
C828 C826 1.353 . S
C828 H870 0.930 . S
C829 N825 1.279 . S
C829 C827 1.358 . S
C829 H871 0.930 . S
C830 C831 1.348 . S
C830 C832 1.356 . S
C830 O855 1.325 . S
C831 C830 1.348 . S
C831 C833 1.353 . S
C831 H872 0.929 . S
C832 C830 1.356 . S
C832 C834 1.358 . S
C832 H873 0.930 . S
C833 C831 1.353 . S
C833 N835 1.314 . S
C833 H874 0.930 . S
C834 C832 1.358 . S
C834 N835 1.279 . S
C834 H875 0.930 . S
N835 C833 1.314 . S
N835 C834 1.279 . S
C836 C838 1.353 . S
C836 N839 1.314 . S
C836 H842 0.930 . S
C837 N839 1.279 . S
C837 C840 1.358 . S
C837 H843 0.930 . S
C838 C836 1.353 . S
C838 C841 1.348 . S
C838 H876 0.929 . S
N839 Li794 1.990 . S
N839 C836 1.314 . S
N839 C837 1.279 . S
C840 C837 1.358 . S
C840 C841 1.356 . S
C840 H877 0.930 . S
C841 C838 1.348 . S
C841 C840 1.356 . S
H842 C836 0.930 . S
H843 C837 0.930 . S
C844 N845 1.314 . S
C844 C846 1.353 . S
C844 H850 0.930 . S
N845 Li795 1.990 . S
N845 C844 1.314 . S
N845 C848 1.279 . S
C846 C844 1.353 . S
C846 C849 1.348 . S
C846 H878 0.929 . S
C847 C848 1.358 . S
C847 C849 1.356 . S
C847 H879 0.930 . S
C848 N845 1.279 . S
C848 C847 1.358 . S
C848 H851 0.930 . S
C849 C846 1.348 . S
C849 C847 1.356 . S
H850 C844 0.930 . S
H851 C848 0.930 . S
O852 Li792 1.956 . S
O852 Li793 1.970 . S
O852 Li794 1.961 . S
O852 C796 1.325 . S
O853 Li792 1.970 . S
O853 Li793 1.956 . S
O853 Li795 1.961 . S
O853 C802 1.325 . S
O854 Li792 1.961 . S
O854 Li794 1.956 . S
O854 Li795 1.970 . S
O854 C824 1.325 . S
O855 Li793 1.961 . S
O855 Li794 1.970 . S
O855 Li795 1.956 . S
O855 C830 1.325 . S
H856 C798 0.929 . S
H857 C799 0.930 . S
H858 C800 0.930 . S
H859 C801 0.930 . S
H860 C803 0.930 . S
H861 C805 0.929 . S
H862 C806 0.930 . S
H863 C807 0.930 . S
H864 C810 0.930 . S
H865 C813 0.929 . S
H866 C818 0.929 . S
H867 C819 0.930 . S
H868 C826 0.929 . S
H869 C827 0.930 . S
H870 C828 0.930 . S
H871 C829 0.930 . S
H872 C831 0.929 . S
H873 C832 0.930 . S
H874 C833 0.930 . S
H875 C834 0.930 . S
H876 C838 0.929 . S
H877 C840 0.930 . S
H878 C846 0.929 . S
H879 C847 0.930 . S
Li880 N897 1.990 . S
Li880 O940 1.956 . S
Li880 O941 1.970 . S
Li880 O942 1.961 . S
Li881 N905 1.990 . S
Li881 O940 1.970 . S
Li881 O941 1.956 . S
Li881 O943 1.961 . S
Li882 N927 1.990 . S
Li882 O940 1.961 . S
Li882 O942 1.956 . S
Li882 O943 1.970 . S
Li883 N933 1.990 . S
Li883 O941 1.961 . S
Li883 O942 1.970 . S
Li883 O943 1.956 . S
C884 C886 1.348 . S
C884 C887 1.356 . S
C884 O940 1.325 . S
N885 C888 1.314 . S
N885 C889 1.279 . S
C886 C884 1.348 . S
C886 C888 1.353 . S
C886 H944 0.929 . S
C887 C884 1.356 . S
C887 C889 1.358 . S
C887 H945 0.930 . S
C888 N885 1.314 . S
C888 C886 1.353 . S
C888 H946 0.930 . S
C889 N885 1.279 . S
C889 C887 1.358 . S
C889 H947 0.930 . S
C890 C893 1.348 . S
C890 C894 1.356 . S
C890 O941 1.325 . S
C891 N892 1.279 . S
C891 C894 1.358 . S
C891 H948 0.930 . S
N892 C891 1.279 . S
N892 C895 1.314 . S
C893 C890 1.348 . S
C893 C895 1.353 . S
C893 H949 0.929 . S
C894 C890 1.356 . S
C894 C891 1.358 . S
C894 H950 0.930 . S
C895 N892 1.314 . S
C895 C893 1.353 . S
C895 H951 0.930 . S
C896 N897 1.314 . S
C896 C901 1.353 . S
C896 H902 0.930 . S
N897 Li880 1.990 . S
N897 C896 1.314 . S
N897 C899 1.279 . S
C898 C899 1.358 . S
C898 C900 1.356 . S
C898 H952 0.930 . S
C899 N897 1.279 . S
C899 C898 1.358 . S
C899 H903 0.930 . S
C900 C898 1.356 . S
C900 C901 1.348 . S
C901 C896 1.353 . S
C901 C900 1.348 . S
C901 H953 0.929 . S
H902 C896 0.930 . S
H903 C899 0.930 . S
C904 N905 1.314 . S
C904 C906 1.353 . S
C904 H910 0.930 . S
N905 Li881 1.990 . S
N905 C904 1.314 . S
N905 C908 1.279 . S
C906 C904 1.353 . S
C906 C909 1.348 . S
C906 H954 0.929 . S
C907 C908 1.358 . S
C907 C909 1.356 . S
C907 H955 0.930 . S
C908 N905 1.279 . S
C908 C907 1.358 . S
C908 H911 0.930 . S
C909 C906 1.348 . S
C909 C907 1.356 . S
H910 C904 0.930 . S
H911 C908 0.930 . S
C912 C914 1.348 . S
C912 C915 1.356 . S
C912 O942 1.325 . S
N913 C916 1.314 . S
N913 C917 1.279 . S
C914 C912 1.348 . S
C914 C916 1.353 . S
C914 H956 0.929 . S
C915 C912 1.356 . S
C915 C917 1.358 . S
C915 H957 0.930 . S
C916 N913 1.314 . S
C916 C914 1.353 . S
C916 H958 0.930 . S
C917 N913 1.279 . S
C917 C915 1.358 . S
C917 H959 0.930 . S
C918 C919 1.348 . S
C918 C920 1.356 . S
C918 O943 1.325 . S
C919 C918 1.348 . S
C919 C921 1.353 . S
C919 H960 0.929 . S
C920 C918 1.356 . S
C920 C922 1.358 . S
C920 H961 0.930 . S
C921 C919 1.353 . S
C921 N923 1.314 . S
C921 H962 0.930 . S
C922 C920 1.358 . S
C922 N923 1.279 . S
C922 H963 0.930 . S
N923 C921 1.314 . S
N923 C922 1.279 . S
C924 C926 1.353 . S
C924 N927 1.314 . S
C924 H930 0.930 . S
C925 N927 1.279 . S
C925 C928 1.358 . S
C925 H931 0.930 . S
C926 C924 1.353 . S
C926 C929 1.348 . S
C926 H964 0.929 . S
N927 Li882 1.990 . S
N927 C924 1.314 . S
N927 C925 1.279 . S
C928 C925 1.358 . S
C928 C929 1.356 . S
C928 H965 0.930 . S
C929 C926 1.348 . S
C929 C928 1.356 . S
H930 C924 0.930 . S
H931 C925 0.930 . S
C932 N933 1.314 . S
C932 C934 1.353 . S
C932 H938 0.930 . S
N933 Li883 1.990 . S
N933 C932 1.314 . S
N933 C936 1.279 . S
C934 C932 1.353 . S
C934 C937 1.348 . S
C934 H966 0.929 . S
C935 C936 1.358 . S
C935 C937 1.356 . S
C935 H967 0.930 . S
C936 N933 1.279 . S
C936 C935 1.358 . S
C936 H939 0.930 . S
C937 C934 1.348 . S
C937 C935 1.356 . S
H938 C932 0.930 . S
H939 C936 0.930 . S
O940 Li880 1.956 . S
O940 Li881 1.970 . S
O940 Li882 1.961 . S
O940 C884 1.325 . S
O941 Li880 1.970 . S
O941 Li881 1.956 . S
O941 Li883 1.961 . S
O941 C890 1.325 . S
O942 Li880 1.961 . S
O942 Li882 1.956 . S
O942 Li883 1.970 . S
O942 C912 1.325 . S
O943 Li881 1.961 . S
O943 Li882 1.970 . S
O943 Li883 1.956 . S
O943 C918 1.325 . S
H944 C886 0.929 . S
H945 C887 0.930 . S
H946 C888 0.930 . S
H947 C889 0.930 . S
H948 C891 0.930 . S
H949 C893 0.929 . S
H950 C894 0.930 . S
H951 C895 0.930 . S
H952 C898 0.930 . S
H953 C901 0.929 . S
H954 C906 0.929 . S
H955 C907 0.930 . S
H956 C914 0.929 . S
H957 C915 0.930 . S
H958 C916 0.930 . S
H959 C917 0.930 . S
H960 C919 0.929 . S
H961 C920 0.930 . S
H962 C921 0.930 . S
H963 C922 0.930 . S
H964 C926 0.929 . S
H965 C928 0.930 . S
H966 C934 0.929 . S
H967 C935 0.930 . S
Li968 N985 1.990 . S
Li968 O1028 1.956 . S
Li968 O1029 1.970 . S
Li968 O1030 1.961 . S
Li969 N993 1.990 . S
Li969 O1028 1.970 . S
Li969 O1029 1.956 . S
Li969 O1031 1.961 . S
Li970 N1015 1.990 . S
Li970 O1028 1.961 . S
Li970 O1030 1.956 . S
Li970 O1031 1.970 . S
Li971 N1021 1.990 . S
Li971 O1029 1.961 . S
Li971 O1030 1.970 . S
Li971 O1031 1.956 . S
C972 C974 1.348 . S
C972 C975 1.356 . S
C972 O1028 1.325 . S
N973 C976 1.314 . S
N973 C977 1.279 . S
C974 C972 1.348 . S
C974 C976 1.353 . S
C974 H1032 0.929 . S
C975 C972 1.356 . S
C975 C977 1.358 . S
C975 H1033 0.930 . S
C976 N973 1.314 . S
C976 C974 1.353 . S
C976 H1034 0.930 . S
C977 N973 1.279 . S
C977 C975 1.358 . S
C977 H1035 0.930 . S
C978 C981 1.348 . S
C978 C982 1.356 . S
C978 O1029 1.325 . S
C979 N980 1.279 . S
C979 C982 1.358 . S
C979 H1036 0.930 . S
N980 C979 1.279 . S
N980 C983 1.314 . S
C981 C978 1.348 . S
C981 C983 1.353 . S
C981 H1037 0.929 . S
C982 C978 1.356 . S
C982 C979 1.358 . S
C982 H1038 0.930 . S
C983 N980 1.314 . S
C983 C981 1.353 . S
C983 H1039 0.930 . S
C984 N985 1.314 . S
C984 C989 1.353 . S
C984 H990 0.930 . S
N985 Li968 1.990 . S
N985 C984 1.314 . S
N985 C987 1.279 . S
C986 C987 1.358 . S
C986 C988 1.356 . S
C986 H1040 0.930 . S
C987 N985 1.279 . S
C987 C986 1.358 . S
C987 H991 0.930 . S
C988 C986 1.356 . S
C988 C989 1.348 . S
C989 C984 1.353 . S
C989 C988 1.348 . S
C989 H1041 0.929 . S
H990 C984 0.930 . S
H991 C987 0.930 . S
C992 N993 1.314 . S
C992 C994 1.353 . S
C992 H998 0.930 . S
N993 Li969 1.990 . S
N993 C992 1.314 . S
N993 C996 1.279 . S
C994 C992 1.353 . S
C994 C997 1.348 . S
C994 H1042 0.929 . S
C995 C996 1.358 . S
C995 C997 1.356 . S
C995 H1043 0.930 . S
C996 N993 1.279 . S
C996 C995 1.358 . S
C996 H999 0.930 . S
C997 C994 1.348 . S
C997 C995 1.356 . S
H998 C992 0.930 . S
H999 C996 0.930 . S
C1000 C1002 1.348 . S
C1000 C1003 1.356 . S
C1000 O1030 1.325 . S
N1001 C1004 1.314 . S
N1001 C1005 1.279 . S
C1002 C1000 1.348 . S
C1002 C1004 1.353 . S
C1002 H1044 0.929 . S
C1003 C1000 1.356 . S
C1003 C1005 1.358 . S
C1003 H1045 0.930 . S
C1004 N1001 1.314 . S
C1004 C1002 1.353 . S
C1004 H1046 0.930 . S
C1005 N1001 1.279 . S
C1005 C1003 1.358 . S
C1005 H1047 0.930 . S
C1006 C1007 1.348 . S
C1006 C1008 1.356 . S
C1006 O1031 1.325 . S
C1007 C1006 1.348 . S
C1007 C1009 1.353 . S
C1007 H1048 0.929 . S
C1008 C1006 1.356 . S
C1008 C1010 1.358 . S
C1008 H1049 0.930 . S
C1009 C1007 1.353 . S
C1009 N1011 1.314 . S
C1009 H1050 0.930 . S
C1010 C1008 1.358 . S
C1010 N1011 1.279 . S
C1010 H1051 0.930 . S
N1011 C1009 1.314 . S
N1011 C1010 1.279 . S
C1012 C1014 1.353 . S
C1012 N1015 1.314 . S
C1012 H1018 0.930 . S
C1013 N1015 1.279 . S
C1013 C1016 1.358 . S
C1013 H1019 0.930 . S
C1014 C1012 1.353 . S
C1014 C1017 1.348 . S
C1014 H1052 0.929 . S
N1015 Li970 1.990 . S
N1015 C1012 1.314 . S
N1015 C1013 1.279 . S
C1016 C1013 1.358 . S
C1016 C1017 1.356 . S
C1016 H1053 0.930 . S
C1017 C1014 1.348 . S
C1017 C1016 1.356 . S
H1018 C1012 0.930 . S
H1019 C1013 0.930 . S
C1020 N1021 1.314 . S
C1020 C1022 1.353 . S
C1020 H1026 0.930 . S
N1021 Li971 1.990 . S
N1021 C1020 1.314 . S
N1021 C1024 1.279 . S
C1022 C1020 1.353 . S
C1022 C1025 1.348 . S
C1022 H1054 0.929 . S
C1023 C1024 1.358 . S
C1023 C1025 1.356 . S
C1023 H1055 0.930 . S
C1024 N1021 1.279 . S
C1024 C1023 1.358 . S
C1024 H1027 0.930 . S
C1025 C1022 1.348 . S
C1025 C1023 1.356 . S
H1026 C1020 0.930 . S
H1027 C1024 0.930 . S
O1028 Li968 1.956 . S
O1028 Li969 1.970 . S
O1028 Li970 1.961 . S
O1028 C972 1.325 . S
O1029 Li968 1.970 . S
O1029 Li969 1.956 . S
O1029 Li971 1.961 . S
O1029 C978 1.325 . S
O1030 Li968 1.961 . S
O1030 Li970 1.956 . S
O1030 Li971 1.970 . S
O1030 C1000 1.325 . S
O1031 Li969 1.961 . S
O1031 Li970 1.970 . S
O1031 Li971 1.956 . S
O1031 C1006 1.325 . S
H1032 C974 0.929 . S
H1033 C975 0.930 . S
H1034 C976 0.930 . S
H1035 C977 0.930 . S
H1036 C979 0.930 . S
H1037 C981 0.929 . S
H1038 C982 0.930 . S
H1039 C983 0.930 . S
H1040 C986 0.930 . S
H1041 C989 0.929 . S
H1042 C994 0.929 . S
H1043 C995 0.930 . S
H1044 C1002 0.929 . S
H1045 C1003 0.930 . S
H1046 C1004 0.930 . S
H1047 C1005 0.930 . S
H1048 C1007 0.929 . S
H1049 C1008 0.930 . S
H1050 C1009 0.930 . S
H1051 C1010 0.930 . S
H1052 C1014 0.929 . S
H1053 C1016 0.930 . S
H1054 C1022 0.929 . S
H1055 C1023 0.930 . S
Li1056 N1073 1.990 . S
Li1056 O1116 1.956 . S
Li1056 O1117 1.970 . S
Li1056 O1118 1.961 . S
Li1057 N1081 1.990 . S
Li1057 O1116 1.970 . S
Li1057 O1117 1.956 . S
Li1057 O1119 1.961 . S
Li1058 N1103 1.990 . S
Li1058 O1116 1.961 . S
Li1058 O1118 1.956 . S
Li1058 O1119 1.970 . S
Li1059 N1109 1.990 . S
Li1059 O1117 1.961 . S
Li1059 O1118 1.970 . S
Li1059 O1119 1.956 . S
C1060 C1062 1.348 . S
C1060 C1063 1.356 . S
C1060 O1116 1.325 . S
N1061 C1064 1.314 . S
N1061 C1065 1.279 . S
C1062 C1060 1.348 . S
C1062 C1064 1.353 . S
C1062 H1120 0.929 . S
C1063 C1060 1.356 . S
C1063 C1065 1.358 . S
C1063 H1121 0.930 . S
C1064 N1061 1.314 . S
C1064 C1062 1.353 . S
C1064 H1122 0.930 . S
C1065 N1061 1.279 . S
C1065 C1063 1.358 . S
C1065 H1123 0.930 . S
C1066 C1069 1.348 . S
C1066 C1070 1.356 . S
C1066 O1117 1.325 . S
C1067 N1068 1.279 . S
C1067 C1070 1.358 . S
C1067 H1124 0.930 . S
N1068 C1067 1.279 . S
N1068 C1071 1.314 . S
C1069 C1066 1.348 . S
C1069 C1071 1.353 . S
C1069 H1125 0.929 . S
C1070 C1066 1.356 . S
C1070 C1067 1.358 . S
C1070 H1126 0.930 . S
C1071 N1068 1.314 . S
C1071 C1069 1.353 . S
C1071 H1127 0.930 . S
C1072 N1073 1.314 . S
C1072 C1077 1.353 . S
C1072 H1078 0.930 . S
N1073 Li1056 1.990 . S
N1073 C1072 1.314 . S
N1073 C1075 1.279 . S
C1074 C1075 1.358 . S
C1074 C1076 1.356 . S
C1074 H1128 0.930 . S
C1075 N1073 1.279 . S
C1075 C1074 1.358 . S
C1075 H1079 0.930 . S
C1076 C1074 1.356 . S
C1076 C1077 1.348 . S
C1077 C1072 1.353 . S
C1077 C1076 1.348 . S
C1077 H1129 0.929 . S
H1078 C1072 0.930 . S
H1079 C1075 0.930 . S
C1080 N1081 1.314 . S
C1080 C1082 1.353 . S
C1080 H1086 0.930 . S
N1081 Li1057 1.990 . S
N1081 C1080 1.314 . S
N1081 C1084 1.279 . S
C1082 C1080 1.353 . S
C1082 C1085 1.348 . S
C1082 H1130 0.929 . S
C1083 C1084 1.358 . S
C1083 C1085 1.356 . S
C1083 H1131 0.930 . S
C1084 N1081 1.279 . S
C1084 C1083 1.358 . S
C1084 H1087 0.930 . S
C1085 C1082 1.348 . S
C1085 C1083 1.356 . S
H1086 C1080 0.930 . S
H1087 C1084 0.930 . S
C1088 C1090 1.348 . S
C1088 C1091 1.356 . S
C1088 O1118 1.325 . S
N1089 C1092 1.314 . S
N1089 C1093 1.279 . S
C1090 C1088 1.348 . S
C1090 C1092 1.353 . S
C1090 H1132 0.929 . S
C1091 C1088 1.356 . S
C1091 C1093 1.358 . S
C1091 H1133 0.930 . S
C1092 N1089 1.314 . S
C1092 C1090 1.353 . S
C1092 H1134 0.930 . S
C1093 N1089 1.279 . S
C1093 C1091 1.358 . S
C1093 H1135 0.930 . S
C1094 C1095 1.348 . S
C1094 C1096 1.356 . S
C1094 O1119 1.325 . S
C1095 C1094 1.348 . S
C1095 C1097 1.353 . S
C1095 H1136 0.929 . S
C1096 C1094 1.356 . S
C1096 C1098 1.358 . S
C1096 H1137 0.930 . S
C1097 C1095 1.353 . S
C1097 N1099 1.314 . S
C1097 H1138 0.930 . S
C1098 C1096 1.358 . S
C1098 N1099 1.279 . S
C1098 H1139 0.930 . S
N1099 C1097 1.314 . S
N1099 C1098 1.279 . S
C1100 C1102 1.353 . S
C1100 N1103 1.314 . S
C1100 H1106 0.930 . S
C1101 N1103 1.279 . S
C1101 C1104 1.358 . S
C1101 H1107 0.930 . S
C1102 C1100 1.353 . S
C1102 C1105 1.348 . S
C1102 H1140 0.929 . S
N1103 Li1058 1.990 . S
N1103 C1100 1.314 . S
N1103 C1101 1.279 . S
C1104 C1101 1.358 . S
C1104 C1105 1.356 . S
C1104 H1141 0.930 . S
C1105 C1102 1.348 . S
C1105 C1104 1.356 . S
H1106 C1100 0.930 . S
H1107 C1101 0.930 . S
C1108 N1109 1.314 . S
C1108 C1110 1.353 . S
C1108 H1114 0.930 . S
N1109 Li1059 1.990 . S
N1109 C1108 1.314 . S
N1109 C1112 1.279 . S
C1110 C1108 1.353 . S
C1110 C1113 1.348 . S
C1110 H1142 0.929 . S
C1111 C1112 1.358 . S
C1111 C1113 1.356 . S
C1111 H1143 0.930 . S
C1112 N1109 1.279 . S
C1112 C1111 1.358 . S
C1112 H1115 0.930 . S
C1113 C1110 1.348 . S
C1113 C1111 1.356 . S
H1114 C1108 0.930 . S
H1115 C1112 0.930 . S
O1116 Li1056 1.956 . S
O1116 Li1057 1.970 . S
O1116 Li1058 1.961 . S
O1116 C1060 1.325 . S
O1117 Li1056 1.970 . S
O1117 Li1057 1.956 . S
O1117 Li1059 1.961 . S
O1117 C1066 1.325 . S
O1118 Li1056 1.961 . S
O1118 Li1058 1.956 . S
O1118 Li1059 1.970 . S
O1118 C1088 1.325 . S
O1119 Li1057 1.961 . S
O1119 Li1058 1.970 . S
O1119 Li1059 1.956 . S
O1119 C1094 1.325 . S
H1120 C1062 0.929 . S
H1121 C1063 0.930 . S
H1122 C1064 0.930 . S
H1123 C1065 0.930 . S
H1124 C1067 0.930 . S
H1125 C1069 0.929 . S
H1126 C1070 0.930 . S
H1127 C1071 0.930 . S
H1128 C1074 0.930 . S
H1129 C1077 0.929 . S
H1130 C1082 0.929 . S
H1131 C1083 0.930 . S
H1132 C1090 0.929 . S
H1133 C1091 0.930 . S
H1134 C1092 0.930 . S
H1135 C1093 0.930 . S
H1136 C1095 0.929 . S
H1137 C1096 0.930 . S
H1138 C1097 0.930 . S
H1139 C1098 0.930 . S
H1140 C1102 0.929 . S
H1141 C1104 0.930 . S
H1142 C1110 0.929 . S
H1143 C1111 0.930 . S
Li1144 N1161 1.990 . S
Li1144 O1204 1.956 . S
Li1144 O1205 1.970 . S
Li1144 O1206 1.961 . S
Li1145 N1169 1.990 . S
Li1145 O1204 1.970 . S
Li1145 O1205 1.956 . S
Li1145 O1207 1.961 . S
Li1146 N1191 1.990 . S
Li1146 O1204 1.961 . S
Li1146 O1206 1.956 . S
Li1146 O1207 1.970 . S
Li1147 N1197 1.990 . S
Li1147 O1205 1.961 . S
Li1147 O1206 1.970 . S
Li1147 O1207 1.956 . S
C1148 C1150 1.348 . S
C1148 C1151 1.356 . S
C1148 O1204 1.325 . S
N1149 C1152 1.314 . S
N1149 C1153 1.279 . S
C1150 C1148 1.348 . S
C1150 C1152 1.353 . S
C1150 H1208 0.929 . S
C1151 C1148 1.356 . S
C1151 C1153 1.358 . S
C1151 H1209 0.930 . S
C1152 N1149 1.314 . S
C1152 C1150 1.353 . S
C1152 H1210 0.930 . S
C1153 N1149 1.279 . S
C1153 C1151 1.358 . S
C1153 H1211 0.930 . S
C1154 C1157 1.348 . S
C1154 C1158 1.356 . S
C1154 O1205 1.325 . S
C1155 N1156 1.279 . S
C1155 C1158 1.358 . S
C1155 H1212 0.930 . S
N1156 C1155 1.279 . S
N1156 C1159 1.314 . S
C1157 C1154 1.348 . S
C1157 C1159 1.353 . S
C1157 H1213 0.929 . S
C1158 C1154 1.356 . S
C1158 C1155 1.358 . S
C1158 H1214 0.930 . S
C1159 N1156 1.314 . S
C1159 C1157 1.353 . S
C1159 H1215 0.930 . S
C1160 N1161 1.314 . S
C1160 C1165 1.353 . S
C1160 H1166 0.930 . S
N1161 Li1144 1.990 . S
N1161 C1160 1.314 . S
N1161 C1163 1.279 . S
C1162 C1163 1.358 . S
C1162 C1164 1.356 . S
C1162 H1216 0.930 . S
C1163 N1161 1.279 . S
C1163 C1162 1.358 . S
C1163 H1167 0.930 . S
C1164 C1162 1.356 . S
C1164 C1165 1.348 . S
C1165 C1160 1.353 . S
C1165 C1164 1.348 . S
C1165 H1217 0.929 . S
H1166 C1160 0.930 . S
H1167 C1163 0.930 . S
C1168 N1169 1.314 . S
C1168 C1170 1.353 . S
C1168 H1174 0.930 . S
N1169 Li1145 1.990 . S
N1169 C1168 1.314 . S
N1169 C1172 1.279 . S
C1170 C1168 1.353 . S
C1170 C1173 1.348 . S
C1170 H1218 0.929 . S
C1171 C1172 1.358 . S
C1171 C1173 1.356 . S
C1171 H1219 0.930 . S
C1172 N1169 1.279 . S
C1172 C1171 1.358 . S
C1172 H1175 0.930 . S
C1173 C1170 1.348 . S
C1173 C1171 1.356 . S
H1174 C1168 0.930 . S
H1175 C1172 0.930 . S
C1176 C1178 1.348 . S
C1176 C1179 1.356 . S
C1176 O1206 1.325 . S
N1177 C1180 1.314 . S
N1177 C1181 1.279 . S
C1178 C1176 1.348 . S
C1178 C1180 1.353 . S
C1178 H1220 0.929 . S
C1179 C1176 1.356 . S
C1179 C1181 1.358 . S
C1179 H1221 0.930 . S
C1180 N1177 1.314 . S
C1180 C1178 1.353 . S
C1180 H1222 0.930 . S
C1181 N1177 1.279 . S
C1181 C1179 1.358 . S
C1181 H1223 0.930 . S
C1182 C1183 1.348 . S
C1182 C1184 1.356 . S
C1182 O1207 1.325 . S
C1183 C1182 1.348 . S
C1183 C1185 1.353 . S
C1183 H1224 0.929 . S
C1184 C1182 1.356 . S
C1184 C1186 1.358 . S
C1184 H1225 0.930 . S
C1185 C1183 1.353 . S
C1185 N1187 1.314 . S
C1185 H1226 0.930 . S
C1186 C1184 1.358 . S
C1186 N1187 1.279 . S
C1186 H1227 0.930 . S
N1187 C1185 1.314 . S
N1187 C1186 1.279 . S
C1188 C1190 1.353 . S
C1188 N1191 1.314 . S
C1188 H1194 0.930 . S
C1189 N1191 1.279 . S
C1189 C1192 1.358 . S
C1189 H1195 0.930 . S
C1190 C1188 1.353 . S
C1190 C1193 1.348 . S
C1190 H1228 0.929 . S
N1191 Li1146 1.990 . S
N1191 C1188 1.314 . S
N1191 C1189 1.279 . S
C1192 C1189 1.358 . S
C1192 C1193 1.356 . S
C1192 H1229 0.930 . S
C1193 C1190 1.348 . S
C1193 C1192 1.356 . S
H1194 C1188 0.930 . S
H1195 C1189 0.930 . S
C1196 N1197 1.314 . S
C1196 C1198 1.353 . S
C1196 H1202 0.930 . S
N1197 Li1147 1.990 . S
N1197 C1196 1.314 . S
N1197 C1200 1.279 . S
C1198 C1196 1.353 . S
C1198 C1201 1.348 . S
C1198 H1230 0.929 . S
C1199 C1200 1.358 . S
C1199 C1201 1.356 . S
C1199 H1231 0.930 . S
C1200 N1197 1.279 . S
C1200 C1199 1.358 . S
C1200 H1203 0.930 . S
C1201 C1198 1.348 . S
C1201 C1199 1.356 . S
H1202 C1196 0.930 . S
H1203 C1200 0.930 . S
O1204 Li1144 1.956 . S
O1204 Li1145 1.970 . S
O1204 Li1146 1.961 . S
O1204 C1148 1.325 . S
O1205 Li1144 1.970 . S
O1205 Li1145 1.956 . S
O1205 Li1147 1.961 . S
O1205 C1154 1.325 . S
O1206 Li1144 1.961 . S
O1206 Li1146 1.956 . S
O1206 Li1147 1.970 . S
O1206 C1176 1.325 . S
O1207 Li1145 1.961 . S
O1207 Li1146 1.970 . S
O1207 Li1147 1.956 . S
O1207 C1182 1.325 . S
H1208 C1150 0.929 . S
H1209 C1151 0.930 . S
H1210 C1152 0.930 . S
H1211 C1153 0.930 . S
H1212 C1155 0.930 . S
H1213 C1157 0.929 . S
H1214 C1158 0.930 . S
H1215 C1159 0.930 . S
H1216 C1162 0.930 . S
H1217 C1165 0.929 . S
H1218 C1170 0.929 . S
H1219 C1171 0.930 . S
H1220 C1178 0.929 . S
H1221 C1179 0.930 . S
H1222 C1180 0.930 . S
H1223 C1181 0.930 . S
H1224 C1183 0.929 . S
H1225 C1184 0.930 . S
H1226 C1185 0.930 . S
H1227 C1186 0.930 . S
H1228 C1190 0.929 . S
H1229 C1192 0.930 . S
H1230 C1198 0.929 . S
H1231 C1199 0.930 . S
Li1232 N1249 1.990 . S
Li1232 O1292 1.956 . S
Li1232 O1293 1.970 . S
Li1232 O1294 1.961 . S
Li1233 N1257 1.990 . S
Li1233 O1292 1.970 . S
Li1233 O1293 1.956 . S
Li1233 O1295 1.961 . S
Li1234 N1279 1.990 . S
Li1234 O1292 1.961 . S
Li1234 O1294 1.956 . S
Li1234 O1295 1.970 . S
Li1235 N1285 1.990 . S
Li1235 O1293 1.961 . S
Li1235 O1294 1.970 . S
Li1235 O1295 1.956 . S
C1236 C1238 1.348 . S
C1236 C1239 1.356 . S
C1236 O1292 1.325 . S
N1237 C1240 1.314 . S
N1237 C1241 1.279 . S
C1238 C1236 1.348 . S
C1238 C1240 1.353 . S
C1238 H1296 0.929 . S
C1239 C1236 1.356 . S
C1239 C1241 1.358 . S
C1239 H1297 0.930 . S
C1240 N1237 1.314 . S
C1240 C1238 1.353 . S
C1240 H1298 0.930 . S
C1241 N1237 1.279 . S
C1241 C1239 1.358 . S
C1241 H1299 0.930 . S
C1242 C1245 1.348 . S
C1242 C1246 1.356 . S
C1242 O1293 1.325 . S
C1243 N1244 1.279 . S
C1243 C1246 1.358 . S
C1243 H1300 0.930 . S
N1244 C1243 1.279 . S
N1244 C1247 1.314 . S
C1245 C1242 1.348 . S
C1245 C1247 1.353 . S
C1245 H1301 0.929 . S
C1246 C1242 1.356 . S
C1246 C1243 1.358 . S
C1246 H1302 0.930 . S
C1247 N1244 1.314 . S
C1247 C1245 1.353 . S
C1247 H1303 0.930 . S
C1248 N1249 1.314 . S
C1248 C1253 1.353 . S
C1248 H1254 0.930 . S
N1249 Li1232 1.990 . S
N1249 C1248 1.314 . S
N1249 C1251 1.279 . S
C1250 C1251 1.358 . S
C1250 C1252 1.356 . S
C1250 H1304 0.930 . S
C1251 N1249 1.279 . S
C1251 C1250 1.358 . S
C1251 H1255 0.930 . S
C1252 C1250 1.356 . S
C1252 C1253 1.348 . S
C1253 C1248 1.353 . S
C1253 C1252 1.348 . S
C1253 H1305 0.929 . S
H1254 C1248 0.930 . S
H1255 C1251 0.930 . S
C1256 N1257 1.314 . S
C1256 C1258 1.353 . S
C1256 H1262 0.930 . S
N1257 Li1233 1.990 . S
N1257 C1256 1.314 . S
N1257 C1260 1.279 . S
C1258 C1256 1.353 . S
C1258 C1261 1.348 . S
C1258 H1306 0.929 . S
C1259 C1260 1.358 . S
C1259 C1261 1.356 . S
C1259 H1307 0.930 . S
C1260 N1257 1.279 . S
C1260 C1259 1.358 . S
C1260 H1263 0.930 . S
C1261 C1258 1.348 . S
C1261 C1259 1.356 . S
H1262 C1256 0.930 . S
H1263 C1260 0.930 . S
C1264 C1266 1.348 . S
C1264 C1267 1.356 . S
C1264 O1294 1.325 . S
N1265 C1268 1.314 . S
N1265 C1269 1.279 . S
C1266 C1264 1.348 . S
C1266 C1268 1.353 . S
C1266 H1308 0.929 . S
C1267 C1264 1.356 . S
C1267 C1269 1.358 . S
C1267 H1309 0.930 . S
C1268 N1265 1.314 . S
C1268 C1266 1.353 . S
C1268 H1310 0.930 . S
C1269 N1265 1.279 . S
C1269 C1267 1.358 . S
C1269 H1311 0.930 . S
C1270 C1271 1.348 . S
C1270 C1272 1.356 . S
C1270 O1295 1.325 . S
C1271 C1270 1.348 . S
C1271 C1273 1.353 . S
C1271 H1312 0.929 . S
C1272 C1270 1.356 . S
C1272 C1274 1.358 . S
C1272 H1313 0.930 . S
C1273 C1271 1.353 . S
C1273 N1275 1.314 . S
C1273 H1314 0.930 . S
C1274 C1272 1.358 . S
C1274 N1275 1.279 . S
C1274 H1315 0.930 . S
N1275 C1273 1.314 . S
N1275 C1274 1.279 . S
C1276 C1278 1.353 . S
C1276 N1279 1.314 . S
C1276 H1282 0.930 . S
C1277 N1279 1.279 . S
C1277 C1280 1.358 . S
C1277 H1283 0.930 . S
C1278 C1276 1.353 . S
C1278 C1281 1.348 . S
C1278 H1316 0.929 . S
N1279 Li1234 1.990 . S
N1279 C1276 1.314 . S
N1279 C1277 1.279 . S
C1280 C1277 1.358 . S
C1280 C1281 1.356 . S
C1280 H1317 0.930 . S
C1281 C1278 1.348 . S
C1281 C1280 1.356 . S
H1282 C1276 0.930 . S
H1283 C1277 0.930 . S
C1284 N1285 1.314 . S
C1284 C1286 1.353 . S
C1284 H1290 0.930 . S
N1285 Li1235 1.990 . S
N1285 C1284 1.314 . S
N1285 C1288 1.279 . S
C1286 C1284 1.353 . S
C1286 C1289 1.348 . S
C1286 H1318 0.929 . S
C1287 C1288 1.358 . S
C1287 C1289 1.356 . S
C1287 H1319 0.930 . S
C1288 N1285 1.279 . S
C1288 C1287 1.358 . S
C1288 H1291 0.930 . S
C1289 C1286 1.348 . S
C1289 C1287 1.356 . S
H1290 C1284 0.930 . S
H1291 C1288 0.930 . S
O1292 Li1232 1.956 . S
O1292 Li1233 1.970 . S
O1292 Li1234 1.961 . S
O1292 C1236 1.325 . S
O1293 Li1232 1.970 . S
O1293 Li1233 1.956 . S
O1293 Li1235 1.961 . S
O1293 C1242 1.325 . S
O1294 Li1232 1.961 . S
O1294 Li1234 1.956 . S
O1294 Li1235 1.970 . S
O1294 C1264 1.325 . S
O1295 Li1233 1.961 . S
O1295 Li1234 1.970 . S
O1295 Li1235 1.956 . S
O1295 C1270 1.325 . S
H1296 C1238 0.929 . S
H1297 C1239 0.930 . S
H1298 C1240 0.930 . S
H1299 C1241 0.930 . S
H1300 C1243 0.930 . S
H1301 C1245 0.929 . S
H1302 C1246 0.930 . S
H1303 C1247 0.930 . S
H1304 C1250 0.930 . S
H1305 C1253 0.929 . S
H1306 C1258 0.929 . S
H1307 C1259 0.930 . S
H1308 C1266 0.929 . S
H1309 C1267 0.930 . S
H1310 C1268 0.930 . S
H1311 C1269 0.930 . S
H1312 C1271 0.929 . S
H1313 C1272 0.930 . S
H1314 C1273 0.930 . S
H1315 C1274 0.930 . S
H1316 C1278 0.929 . S
H1317 C1280 0.930 . S
H1318 C1286 0.929 . S
H1319 C1287 0.930 . S
Li1320 N1337 1.990 . S
Li1320 O1380 1.956 . S
Li1320 O1381 1.970 . S
Li1320 O1382 1.961 . S
Li1321 N1345 1.990 . S
Li1321 O1380 1.970 . S
Li1321 O1381 1.956 . S
Li1321 O1383 1.961 . S
Li1322 N1367 1.990 . S
Li1322 O1380 1.961 . S
Li1322 O1382 1.956 . S
Li1322 O1383 1.970 . S
Li1323 N1373 1.990 . S
Li1323 O1381 1.961 . S
Li1323 O1382 1.970 . S
Li1323 O1383 1.956 . S
C1324 C1326 1.348 . S
C1324 C1327 1.356 . S
C1324 O1380 1.325 . S
N1325 C1328 1.314 . S
N1325 C1329 1.279 . S
C1326 C1324 1.348 . S
C1326 C1328 1.353 . S
C1326 H1384 0.929 . S
C1327 C1324 1.356 . S
C1327 C1329 1.358 . S
C1327 H1385 0.930 . S
C1328 N1325 1.314 . S
C1328 C1326 1.353 . S
C1328 H1386 0.930 . S
C1329 N1325 1.279 . S
C1329 C1327 1.358 . S
C1329 H1387 0.930 . S
C1330 C1333 1.348 . S
C1330 C1334 1.356 . S
C1330 O1381 1.325 . S
C1331 N1332 1.279 . S
C1331 C1334 1.358 . S
C1331 H1388 0.930 . S
N1332 C1331 1.279 . S
N1332 C1335 1.314 . S
C1333 C1330 1.348 . S
C1333 C1335 1.353 . S
C1333 H1389 0.929 . S
C1334 C1330 1.356 . S
C1334 C1331 1.358 . S
C1334 H1390 0.930 . S
C1335 N1332 1.314 . S
C1335 C1333 1.353 . S
C1335 H1391 0.930 . S
C1336 N1337 1.314 . S
C1336 C1341 1.353 . S
C1336 H1342 0.930 . S
N1337 Li1320 1.990 . S
N1337 C1336 1.314 . S
N1337 C1339 1.279 . S
C1338 C1339 1.358 . S
C1338 C1340 1.356 . S
C1338 H1392 0.930 . S
C1339 N1337 1.279 . S
C1339 C1338 1.358 . S
C1339 H1343 0.930 . S
C1340 C1338 1.356 . S
C1340 C1341 1.348 . S
C1341 C1336 1.353 . S
C1341 C1340 1.348 . S
C1341 H1393 0.929 . S
H1342 C1336 0.930 . S
H1343 C1339 0.930 . S
C1344 N1345 1.314 . S
C1344 C1346 1.353 . S
C1344 H1350 0.930 . S
N1345 Li1321 1.990 . S
N1345 C1344 1.314 . S
N1345 C1348 1.279 . S
C1346 C1344 1.353 . S
C1346 C1349 1.348 . S
C1346 H1394 0.929 . S
C1347 C1348 1.358 . S
C1347 C1349 1.356 . S
C1347 H1395 0.930 . S
C1348 N1345 1.279 . S
C1348 C1347 1.358 . S
C1348 H1351 0.930 . S
C1349 C1346 1.348 . S
C1349 C1347 1.356 . S
H1350 C1344 0.930 . S
H1351 C1348 0.930 . S
C1352 C1354 1.348 . S
C1352 C1355 1.356 . S
C1352 O1382 1.325 . S
N1353 C1356 1.314 . S
N1353 C1357 1.279 . S
C1354 C1352 1.348 . S
C1354 C1356 1.353 . S
C1354 H1396 0.929 . S
C1355 C1352 1.356 . S
C1355 C1357 1.358 . S
C1355 H1397 0.930 . S
C1356 N1353 1.314 . S
C1356 C1354 1.353 . S
C1356 H1398 0.930 . S
C1357 N1353 1.279 . S
C1357 C1355 1.358 . S
C1357 H1399 0.930 . S
C1358 C1359 1.348 . S
C1358 C1360 1.356 . S
C1358 O1383 1.325 . S
C1359 C1358 1.348 . S
C1359 C1361 1.353 . S
C1359 H1400 0.929 . S
C1360 C1358 1.356 . S
C1360 C1362 1.358 . S
C1360 H1401 0.930 . S
C1361 C1359 1.353 . S
C1361 N1363 1.314 . S
C1361 H1402 0.930 . S
C1362 C1360 1.358 . S
C1362 N1363 1.279 . S
C1362 H1403 0.930 . S
N1363 C1361 1.314 . S
N1363 C1362 1.279 . S
C1364 C1366 1.353 . S
C1364 N1367 1.314 . S
C1364 H1370 0.930 . S
C1365 N1367 1.279 . S
C1365 C1368 1.358 . S
C1365 H1371 0.930 . S
C1366 C1364 1.353 . S
C1366 C1369 1.348 . S
C1366 H1404 0.929 . S
N1367 Li1322 1.990 . S
N1367 C1364 1.314 . S
N1367 C1365 1.279 . S
C1368 C1365 1.358 . S
C1368 C1369 1.356 . S
C1368 H1405 0.930 . S
C1369 C1366 1.348 . S
C1369 C1368 1.356 . S
H1370 C1364 0.930 . S
H1371 C1365 0.930 . S
C1372 N1373 1.314 . S
C1372 C1374 1.353 . S
C1372 H1378 0.930 . S
N1373 Li1323 1.990 . S
N1373 C1372 1.314 . S
N1373 C1376 1.279 . S
C1374 C1372 1.353 . S
C1374 C1377 1.348 . S
C1374 H1406 0.929 . S
C1375 C1376 1.358 . S
C1375 C1377 1.356 . S
C1375 H1407 0.930 . S
C1376 N1373 1.279 . S
C1376 C1375 1.358 . S
C1376 H1379 0.930 . S
C1377 C1374 1.348 . S
C1377 C1375 1.356 . S
H1378 C1372 0.930 . S
H1379 C1376 0.930 . S
O1380 Li1320 1.956 . S
O1380 Li1321 1.970 . S
O1380 Li1322 1.961 . S
O1380 C1324 1.325 . S
O1381 Li1320 1.970 . S
O1381 Li1321 1.956 . S
O1381 Li1323 1.961 . S
O1381 C1330 1.325 . S
O1382 Li1320 1.961 . S
O1382 Li1322 1.956 . S
O1382 Li1323 1.970 . S
O1382 C1352 1.325 . S
O1383 Li1321 1.961 . S
O1383 Li1322 1.970 . S
O1383 Li1323 1.956 . S
O1383 C1358 1.325 . S
H1384 C1326 0.929 . S
H1385 C1327 0.930 . S
H1386 C1328 0.930 . S
H1387 C1329 0.930 . S
H1388 C1331 0.930 . S
H1389 C1333 0.929 . S
H1390 C1334 0.930 . S
H1391 C1335 0.930 . S
H1392 C1338 0.930 . S
H1393 C1341 0.929 . S
H1394 C1346 0.929 . S
H1395 C1347 0.930 . S
H1396 C1354 0.929 . S
H1397 C1355 0.930 . S
H1398 C1356 0.930 . S
H1399 C1357 0.930 . S
H1400 C1359 0.929 . S
H1401 C1360 0.930 . S
H1402 C1361 0.930 . S
H1403 C1362 0.930 . S
H1404 C1366 0.929 . S
H1405 C1368 0.930 . S
H1406 C1374 0.929 . S
H1407 C1375 0.930 . S
C1408 C1409 1.363 . S
C1408 C1414 1.379 . S
C1408 N1416 1.356 . S
C1409 C1408 1.363 . S
C1409 C1415 1.363 . S
C1410 C1411 1.363 . S
C1410 C1415 1.379 . S
C1410 N1417 1.356 . S
C1411 C1410 1.363 . S
C1411 C1414 1.363 . S
N1412 C1414 1.356 . S
N1412 H1424 0.984 . S
N1412 H1425 0.985 . S
N1413 C1415 1.356 . S
N1413 H1418 0.984 . S
N1413 H1419 0.985 . S
C1414 C1408 1.379 . S
C1414 C1411 1.363 . S
C1414 N1412 1.356 . S
C1415 C1409 1.363 . S
C1415 C1410 1.379 . S
C1415 N1413 1.356 . S
N1416 C1408 1.356 . S
N1416 H1422 0.984 . S
N1416 H1423 0.984 . S
N1417 C1410 1.356 . S
N1417 H1420 0.984 . S
N1417 H1421 0.985 . S
H1418 N1413 0.984 . S
H1419 N1413 0.985 . S
H1420 N1417 0.984 . S
H1421 N1417 0.985 . S
H1422 N1416 0.984 . S
H1423 N1416 0.984 . S
H1424 N1412 0.984 . S
H1425 N1412 0.985 . S
C1426 C1427 1.363 . S
C1426 C1432 1.379 . S
C1426 N1434 1.356 . S
C1427 C1426 1.363 . S
C1427 C1433 1.363 . S
C1428 C1429 1.363 . S
C1428 C1433 1.379 . S
C1428 N1435 1.356 . S
C1429 C1428 1.363 . S
C1429 C1432 1.363 . S
N1430 C1432 1.356 . S
N1430 H1442 0.984 . S
N1430 H1443 0.985 . S
N1431 C1433 1.356 . S
N1431 H1436 0.984 . S
N1431 H1437 0.985 . S
C1432 C1426 1.379 . S
C1432 C1429 1.363 . S
C1432 N1430 1.356 . S
C1433 C1427 1.363 . S
C1433 C1428 1.379 . S
C1433 N1431 1.356 . S
N1434 C1426 1.356 . S
N1434 H1440 0.984 . S
N1434 H1441 0.984 . S
N1435 C1428 1.356 . S
N1435 H1438 0.984 . S
N1435 H1439 0.985 . S
H1436 N1431 0.984 . S
H1437 N1431 0.985 . S
H1438 N1435 0.984 . S
H1439 N1435 0.985 . S
H1440 N1434 0.984 . S
H1441 N1434 0.984 . S
H1442 N1430 0.984 . S
H1443 N1430 0.985 . S
C1444 C1445 1.363 . S
C1444 C1450 1.379 . S
C1444 N1452 1.356 . S
C1445 C1444 1.363 . S
C1445 C1451 1.363 . S
C1446 C1447 1.363 . S
C1446 C1451 1.379 . S
C1446 N1453 1.356 . S
C1447 C1446 1.363 . S
C1447 C1450 1.363 . S
N1448 C1450 1.356 . S
N1448 H1460 0.984 . S
N1448 H1461 0.985 . S
N1449 C1451 1.356 . S
N1449 H1454 0.984 . S
N1449 H1455 0.985 . S
C1450 C1444 1.379 . S
C1450 C1447 1.363 . S
C1450 N1448 1.356 . S
C1451 C1445 1.363 . S
C1451 C1446 1.379 . S
C1451 N1449 1.356 . S
N1452 C1444 1.356 . S
N1452 H1458 0.984 . S
N1452 H1459 0.984 . S
N1453 C1446 1.356 . S
N1453 H1456 0.984 . S
N1453 H1457 0.985 . S
H1454 N1449 0.984 . S
H1455 N1449 0.985 . S
H1456 N1453 0.984 . S
H1457 N1453 0.985 . S
H1458 N1452 0.984 . S
H1459 N1452 0.984 . S
H1460 N1448 0.984 . S
H1461 N1448 0.985 . S
C1462 C1463 1.363 . S
C1462 C1468 1.379 . S
C1462 N1470 1.356 . S
C1463 C1462 1.363 . S
C1463 C1469 1.363 . S
C1464 C1465 1.363 . S
C1464 C1469 1.379 . S
C1464 N1471 1.356 . S
C1465 C1464 1.363 . S
C1465 C1468 1.363 . S
N1466 C1468 1.356 . S
N1466 H1478 0.984 . S
N1466 H1479 0.985 . S
N1467 C1469 1.356 . S
N1467 H1472 0.984 . S
N1467 H1473 0.985 . S
C1468 C1462 1.379 . S
C1468 C1465 1.363 . S
C1468 N1466 1.356 . S
C1469 C1463 1.363 . S
C1469 C1464 1.379 . S
C1469 N1467 1.356 . S
N1470 C1462 1.356 . S
N1470 H1476 0.984 . S
N1470 H1477 0.984 . S
N1471 C1464 1.356 . S
N1471 H1474 0.984 . S
N1471 H1475 0.985 . S
H1472 N1467 0.984 . S
H1473 N1467 0.985 . S
H1474 N1471 0.984 . S
H1475 N1471 0.985 . S
H1476 N1470 0.984 . S
H1477 N1470 0.984 . S
H1478 N1466 0.984 . S
H1479 N1466 0.985 . S
C1480 C1481 1.363 . S
C1480 C1486 1.379 . S
C1480 N1488 1.356 . S
C1481 C1480 1.363 . S
C1481 C1487 1.363 . S
C1482 C1483 1.363 . S
C1482 C1487 1.379 . S
C1482 N1489 1.356 . S
C1483 C1482 1.363 . S
C1483 C1486 1.363 . S
N1484 C1486 1.356 . S
N1484 H1496 0.984 . S
N1484 H1497 0.985 . S
N1485 C1487 1.356 . S
N1485 H1490 0.984 . S
N1485 H1491 0.985 . S
C1486 C1480 1.379 . S
C1486 C1483 1.363 . S
C1486 N1484 1.356 . S
C1487 C1481 1.363 . S
C1487 C1482 1.379 . S
C1487 N1485 1.356 . S
N1488 C1480 1.356 . S
N1488 H1494 0.984 . S
N1488 H1495 0.984 . S
N1489 C1482 1.356 . S
N1489 H1492 0.984 . S
N1489 H1493 0.985 . S
H1490 N1485 0.984 . S
H1491 N1485 0.985 . S
H1492 N1489 0.984 . S
H1493 N1489 0.985 . S
H1494 N1488 0.984 . S
H1495 N1488 0.984 . S
H1496 N1484 0.984 . S
H1497 N1484 0.985 . S
C1498 C1499 1.363 . S
C1498 C1504 1.379 . S
C1498 N1506 1.356 . S
C1499 C1498 1.363 . S
C1499 C1505 1.363 . S
C1500 C1501 1.363 . S
C1500 C1505 1.379 . S
C1500 N1507 1.356 . S
C1501 C1500 1.363 . S
C1501 C1504 1.363 . S
N1502 C1504 1.356 . S
N1502 H1514 0.984 . S
N1502 H1515 0.985 . S
N1503 C1505 1.356 . S
N1503 H1508 0.984 . S
N1503 H1509 0.985 . S
C1504 C1498 1.379 . S
C1504 C1501 1.363 . S
C1504 N1502 1.356 . S
C1505 C1499 1.363 . S
C1505 C1500 1.379 . S
C1505 N1503 1.356 . S
N1506 C1498 1.356 . S
N1506 H1512 0.984 . S
N1506 H1513 0.984 . S
N1507 C1500 1.356 . S
N1507 H1510 0.984 . S
N1507 H1511 0.985 . S
H1508 N1503 0.984 . S
H1509 N1503 0.985 . S
H1510 N1507 0.984 . S
H1511 N1507 0.985 . S
H1512 N1506 0.984 . S
H1513 N1506 0.984 . S
H1514 N1502 0.984 . S
H1515 N1502 0.985 . S
C1516 C1517 1.363 . S
C1516 C1522 1.379 . S
C1516 N1524 1.356 . S
C1517 C1516 1.363 . S
C1517 C1523 1.363 . S
C1518 C1519 1.363 . S
C1518 C1523 1.379 . S
C1518 N1525 1.356 . S
C1519 C1518 1.363 . S
C1519 C1522 1.363 . S
N1520 C1522 1.356 . S
N1520 H1532 0.984 . S
N1520 H1533 0.985 . S
N1521 C1523 1.356 . S
N1521 H1526 0.984 . S
N1521 H1527 0.985 . S
C1522 C1516 1.379 . S
C1522 C1519 1.363 . S
C1522 N1520 1.356 . S
C1523 C1517 1.363 . S
C1523 C1518 1.379 . S
C1523 N1521 1.356 . S
N1524 C1516 1.356 . S
N1524 H1530 0.984 . S
N1524 H1531 0.984 . S
N1525 C1518 1.356 . S
N1525 H1528 0.984 . S
N1525 H1529 0.985 . S
H1526 N1521 0.984 . S
H1527 N1521 0.985 . S
H1528 N1525 0.984 . S
H1529 N1525 0.985 . S
H1530 N1524 0.984 . S
H1531 N1524 0.984 . S
H1532 N1520 0.984 . S
H1533 N1520 0.985 . S
C1534 C1535 1.363 . S
C1534 C1540 1.379 . S
C1534 N1542 1.356 . S
C1535 C1534 1.363 . S
C1535 C1541 1.363 . S
C1536 C1537 1.363 . S
C1536 C1541 1.379 . S
C1536 N1543 1.356 . S
C1537 C1536 1.363 . S
C1537 C1540 1.363 . S
N1538 C1540 1.356 . S
N1538 H1550 0.984 . S
N1538 H1551 0.985 . S
N1539 C1541 1.356 . S
N1539 H1544 0.984 . S
N1539 H1545 0.985 . S
C1540 C1534 1.379 . S
C1540 C1537 1.363 . S
C1540 N1538 1.356 . S
C1541 C1535 1.363 . S
C1541 C1536 1.379 . S
C1541 N1539 1.356 . S
N1542 C1534 1.356 . S
N1542 H1548 0.984 . S
N1542 H1549 0.984 . S
N1543 C1536 1.356 . S
N1543 H1546 0.984 . S
N1543 H1547 0.985 . S
H1544 N1539 0.984 . S
H1545 N1539 0.985 . S
H1546 N1543 0.984 . S
H1547 N1543 0.985 . S
H1548 N1542 0.984 . S
H1549 N1542 0.984 . S
H1550 N1538 0.984 . S
H1551 N1538 0.985 . S
C1552 C1553 1.363 . S
C1552 C1558 1.379 . S
C1552 N1560 1.356 . S
C1553 C1552 1.363 . S
C1553 C1559 1.363 1_565 S
C1554 C1555 1.363 . S
C1554 C1559 1.379 . S
C1554 N1561 1.356 . S
C1555 C1554 1.363 . S
C1555 C1558 1.363 1_545 S
N1556 C1558 1.356 . S
N1556 H1568 0.984 . S
N1556 H1569 0.985 1_565 S
N1557 C1559 1.356 . S
N1557 H1562 0.984 1_545 S
N1557 H1563 0.985 . S
C1558 C1552 1.379 . S
C1558 C1555 1.363 1_565 S
C1558 N1556 1.356 . S
C1559 C1553 1.363 1_545 S
C1559 C1554 1.379 . S
C1559 N1557 1.356 . S
N1560 C1552 1.356 . S
N1560 H1566 0.984 . S
N1560 H1567 0.984 . S
N1561 C1554 1.356 . S
N1561 H1564 0.984 . S
N1561 H1565 0.985 . S
H1562 N1557 0.984 1_565 S
H1563 N1557 0.985 . S
H1564 N1561 0.984 . S
H1565 N1561 0.985 . S
H1566 N1560 0.984 . S
H1567 N1560 0.984 . S
H1568 N1556 0.984 . S
H1569 N1556 0.985 1_545 S
C1570 C1571 1.363 . S
C1570 C1576 1.379 . S
C1570 N1578 1.356 . S
C1571 C1570 1.363 . S
C1571 C1577 1.363 . S
C1572 C1573 1.363 . S
C1572 C1577 1.379 . S
C1572 N1579 1.356 . S
C1573 C1572 1.363 . S
C1573 C1576 1.363 . S
N1574 C1576 1.356 . S
N1574 H1586 0.984 . S
N1574 H1587 0.985 . S
N1575 C1577 1.356 . S
N1575 H1580 0.984 . S
N1575 H1581 0.985 . S
C1576 C1570 1.379 . S
C1576 C1573 1.363 . S
C1576 N1574 1.356 . S
C1577 C1571 1.363 . S
C1577 C1572 1.379 . S
C1577 N1575 1.356 . S
N1578 C1570 1.356 . S
N1578 H1584 0.984 . S
N1578 H1585 0.984 . S
N1579 C1572 1.356 . S
N1579 H1582 0.984 . S
N1579 H1583 0.985 . S
H1580 N1575 0.984 . S
H1581 N1575 0.985 . S
H1582 N1579 0.984 . S
H1583 N1579 0.985 . S
H1584 N1578 0.984 . S
H1585 N1578 0.984 . S
H1586 N1574 0.984 . S
H1587 N1574 0.985 . S
C1588 C1589 1.363 . S
C1588 C1594 1.379 . S
C1588 N1596 1.356 . S
C1589 C1588 1.363 . S
C1589 C1595 1.363 1_556 S
C1590 C1591 1.363 . S
C1590 C1595 1.379 . S
C1590 N1597 1.356 . S
C1591 C1590 1.363 . S
C1591 C1594 1.363 1_554 S
N1592 C1594 1.356 1_554 S
N1592 H1604 0.984 1_554 S
N1592 H1605 0.985 . S
N1593 C1595 1.356 1_556 S
N1593 H1598 0.984 . S
N1593 H1599 0.985 1_556 S
C1594 C1588 1.379 . S
C1594 C1591 1.363 1_556 S
C1594 N1592 1.356 1_556 S
C1595 C1589 1.363 1_554 S
C1595 C1590 1.379 . S
C1595 N1593 1.356 1_554 S
N1596 C1588 1.356 . S
N1596 H1602 0.984 . S
N1596 H1603 0.984 . S
N1597 C1590 1.356 . S
N1597 H1600 0.984 . S
N1597 H1601 0.985 . S
H1598 N1593 0.984 . S
H1599 N1593 0.985 1_554 S
H1600 N1597 0.984 . S
H1601 N1597 0.985 . S
H1602 N1596 0.984 . S
H1603 N1596 0.984 . S
H1604 N1592 0.984 1_556 S
H1605 N1592 0.985 . S
C1606 C1607 1.363 . S
C1606 C1612 1.379 . S
C1606 N1614 1.356 . S
C1607 C1606 1.363 . S
C1607 C1613 1.363 1_554 S
C1608 C1609 1.363 . S
C1608 C1613 1.379 . S
C1608 N1615 1.356 . S
C1609 C1608 1.363 . S
C1609 C1612 1.363 1_556 S
N1610 C1612 1.356 1_556 S
N1610 H1622 0.984 1_556 S
N1610 H1623 0.985 . S
N1611 C1613 1.356 1_554 S
N1611 H1616 0.984 . S
N1611 H1617 0.985 1_554 S
C1612 C1606 1.379 . S
C1612 C1609 1.363 1_554 S
C1612 N1610 1.356 1_554 S
C1613 C1607 1.363 1_556 S
C1613 C1608 1.379 . S
C1613 N1611 1.356 1_556 S
N1614 C1606 1.356 . S
N1614 H1620 0.984 . S
N1614 H1621 0.984 . S
N1615 C1608 1.356 . S
N1615 H1618 0.984 . S
N1615 H1619 0.985 . S
H1616 N1611 0.984 . S
H1617 N1611 0.985 1_556 S
H1618 N1615 0.984 . S
H1619 N1615 0.985 . S
H1620 N1614 0.984 . S
H1621 N1614 0.984 . S
H1622 N1610 0.984 1_554 S
H1623 N1610 0.985 . S
C1624 C1625 1.363 . S
C1624 C1630 1.379 . S
C1624 N1632 1.356 . S
C1625 C1624 1.363 . S
C1625 C1631 1.363 . S
C1626 C1627 1.363 . S
C1626 C1631 1.379 . S
C1626 N1633 1.356 . S
C1627 C1626 1.363 . S
C1627 C1630 1.363 . S
N1628 C1630 1.356 . S
N1628 H1640 0.984 . S
N1628 H1641 0.985 . S
N1629 C1631 1.356 . S
N1629 H1634 0.984 . S
N1629 H1635 0.985 . S
C1630 C1624 1.379 . S
C1630 C1627 1.363 . S
C1630 N1628 1.356 . S
C1631 C1625 1.363 . S
C1631 C1626 1.379 . S
C1631 N1629 1.356 . S
N1632 C1624 1.356 . S
N1632 H1638 0.984 . S
N1632 H1639 0.984 . S
N1633 C1626 1.356 . S
N1633 H1636 0.984 . S
N1633 H1637 0.985 . S
H1634 N1629 0.984 . S
H1635 N1629 0.985 . S
H1636 N1633 0.984 . S
H1637 N1633 0.985 . S
H1638 N1632 0.984 . S
H1639 N1632 0.984 . S
H1640 N1628 0.984 . S
H1641 N1628 0.985 . S
C1642 C1643 1.363 . S
C1642 C1648 1.379 . S
C1642 N1650 1.356 . S
C1643 C1642 1.363 . S
C1643 C1649 1.363 . S
C1644 C1645 1.363 . S
C1644 C1649 1.379 . S
C1644 N1651 1.356 . S
C1645 C1644 1.363 . S
C1645 C1648 1.363 . S
N1646 C1648 1.356 . S
N1646 H1658 0.984 . S
N1646 H1659 0.985 . S
N1647 C1649 1.356 . S
N1647 H1652 0.984 . S
N1647 H1653 0.985 . S
C1648 C1642 1.379 . S
C1648 C1645 1.363 . S
C1648 N1646 1.356 . S
C1649 C1643 1.363 . S
C1649 C1644 1.379 . S
C1649 N1647 1.356 . S
N1650 C1642 1.356 . S
N1650 H1656 0.984 . S
N1650 H1657 0.984 . S
N1651 C1644 1.356 . S
N1651 H1654 0.984 . S
N1651 H1655 0.985 . S
H1652 N1647 0.984 . S
H1653 N1647 0.985 . S
H1654 N1651 0.984 . S
H1655 N1651 0.985 . S
H1656 N1650 0.984 . S
H1657 N1650 0.984 . S
H1658 N1646 0.984 . S
H1659 N1646 0.985 . S
C1660 C1661 1.363 1_455 S
C1660 C1666 1.379 . S
C1660 N1668 1.353 1_455 S
C1661 C1660 1.363 1_655 S
C1661 C1667 1.363 . S
C1662 C1663 1.363 1_655 S
C1662 C1667 1.379 . S
C1662 N1669 1.353 1_655 S
C1663 C1662 1.363 1_455 S
C1663 C1666 1.363 . S
N1664 C1666 1.356 . S
N1664 H1676 0.984 . S
N1664 H1677 0.985 . S
N1665 C1667 1.356 . S
N1665 H1670 0.984 . S
N1665 H1671 0.985 . S
C1666 C1660 1.379 . S
C1666 C1663 1.363 . S
C1666 N1664 1.356 . S
C1667 C1661 1.363 . S
C1667 C1662 1.379 . S
C1667 N1665 1.356 . S
N1668 C1660 1.353 1_655 S
N1668 H1674 0.966 1_655 S
N1668 H1675 1.007 . S
N1669 C1662 1.353 1_455 S
N1669 H1672 1.007 . S
N1669 H1673 0.966 1_455 S
H1670 N1665 0.984 . S
H1671 N1665 0.985 . S
H1672 N1669 1.007 . S
H1673 N1669 0.966 1_655 S
H1674 N1668 0.966 1_455 S
H1675 N1668 1.007 . S
H1676 N1664 0.984 . S
H1677 N1664 0.985 . S
C1678 C1679 1.363 . S
C1678 C1684 1.379 . S
C1678 N1686 1.356 . S
C1679 C1678 1.363 . S
C1679 C1685 1.363 1_655 S
C1680 C1681 1.363 . S
C1680 C1685 1.379 . S
C1680 N1687 1.356 . S
C1681 C1680 1.363 . S
C1681 C1684 1.363 1_455 S
N1682 C1684 1.354 1_455 S
N1682 H1694 0.971 1_455 S
N1682 H1695 1.001 . S
N1683 C1685 1.354 1_655 S
N1683 H1688 1.001 . S
N1683 H1689 0.971 1_655 S
C1684 C1678 1.379 . S
C1684 C1681 1.363 1_655 S
C1684 N1682 1.354 1_655 S
C1685 C1679 1.363 1_455 S
C1685 C1680 1.379 . S
C1685 N1683 1.354 1_455 S
N1686 C1678 1.356 . S
N1686 H1692 0.984 . S
N1686 H1693 0.984 . S
N1687 C1680 1.356 . S
N1687 H1690 0.984 . S
N1687 H1691 0.985 . S
H1688 N1683 1.001 . S
H1689 N1683 0.971 1_455 S
H1690 N1687 0.984 . S
H1691 N1687 0.985 . S
H1692 N1686 0.984 . S
H1693 N1686 0.984 . S
H1694 N1682 0.971 1_655 S
H1695 N1682 1.001 . S
C1696 C1697 1.363 . S
C1696 C1702 1.379 . S
C1696 N1704 1.356 . S
C1697 C1696 1.363 . S
C1697 C1703 1.363 . S
C1698 C1699 1.363 . S
C1698 C1703 1.379 . S
C1698 N1705 1.356 . S
C1699 C1698 1.363 . S
C1699 C1702 1.363 . S
N1700 C1702 1.356 . S
N1700 H1712 0.984 . S
N1700 H1713 0.985 . S
N1701 C1703 1.356 . S
N1701 H1706 0.984 . S
N1701 H1707 0.985 . S
C1702 C1696 1.379 . S
C1702 C1699 1.363 . S
C1702 N1700 1.356 . S
C1703 C1697 1.363 . S
C1703 C1698 1.379 . S
C1703 N1701 1.356 . S
N1704 C1696 1.356 . S
N1704 H1710 0.984 . S
N1704 H1711 0.984 . S
N1705 C1698 1.356 . S
N1705 H1708 0.984 . S
N1705 H1709 0.985 . S
H1706 N1701 0.984 . S
H1707 N1701 0.985 . S
H1708 N1705 0.984 . S
H1709 N1705 0.985 . S
H1710 N1704 0.984 . S
H1711 N1704 0.984 . S
H1712 N1700 0.984 . S
H1713 N1700 0.985 . S
C1714 C1715 1.363 . S
C1714 C1720 1.379 . S
C1714 N1722 1.356 . S
C1715 C1714 1.363 . S
C1715 C1721 1.363 1_545 S
C1716 C1717 1.363 . S
C1716 C1721 1.379 . S
C1716 N1723 1.356 . S
C1717 C1716 1.363 . S
C1717 C1720 1.363 1_565 S
N1718 C1720 1.356 . S
N1718 H1730 0.984 . S
N1718 H1731 0.985 1_545 S
N1719 C1721 1.356 . S
N1719 H1724 0.984 1_565 S
N1719 H1725 0.985 . S
C1720 C1714 1.379 . S
C1720 C1717 1.363 1_545 S
C1720 N1718 1.356 . S
C1721 C1715 1.363 1_565 S
C1721 C1716 1.379 . S
C1721 N1719 1.356 . S
N1722 C1714 1.356 . S
N1722 H1728 0.984 . S
N1722 H1729 0.984 . S
N1723 C1716 1.356 . S
N1723 H1726 0.984 . S
N1723 H1727 0.985 . S
H1724 N1719 0.984 1_545 S
H1725 N1719 0.985 . S
H1726 N1723 0.984 . S
H1727 N1723 0.985 . S
H1728 N1722 0.984 . S
H1729 N1722 0.984 . S
H1730 N1718 0.984 . S
H1731 N1718 0.985 1_565 S
C1732 C1733 1.363 . S
C1732 C1738 1.379 . S
C1732 N1740 1.356 . S
C1733 C1732 1.363 . S
C1733 C1739 1.363 . S
C1734 C1735 1.363 . S
C1734 C1739 1.379 . S
C1734 N1741 1.356 . S
C1735 C1734 1.363 . S
C1735 C1738 1.363 . S
N1736 C1738 1.356 . S
N1736 H1748 0.984 . S
N1736 H1749 0.985 . S
N1737 C1739 1.356 . S
N1737 H1742 0.984 . S
N1737 H1743 0.985 . S
C1738 C1732 1.379 . S
C1738 C1735 1.363 . S
C1738 N1736 1.356 . S
C1739 C1733 1.363 . S
C1739 C1734 1.379 . S
C1739 N1737 1.356 . S
N1740 C1732 1.356 . S
N1740 H1746 0.984 . S
N1740 H1747 0.984 . S
N1741 C1734 1.356 . S
N1741 H1744 0.984 . S
N1741 H1745 0.985 . S
H1742 N1737 0.984 . S
H1743 N1737 0.985 . S
H1744 N1741 0.984 . S
H1745 N1741 0.985 . S
H1746 N1740 0.984 . S
H1747 N1740 0.984 . S
H1748 N1736 0.984 . S
H1749 N1736 0.985 . S
C1750 C1751 1.363 . S
C1750 C1756 1.379 . S
C1750 N1758 1.356 . S
C1751 C1750 1.363 . S
C1751 C1757 1.363 1_554 S
C1752 C1753 1.363 . S
C1752 C1757 1.379 . S
C1752 N1759 1.356 . S
C1753 C1752 1.363 . S
C1753 C1756 1.363 1_556 S
N1754 C1756 1.354 1_556 S
N1754 H1766 0.975 1_556 S
N1754 H1767 0.997 . S
N1755 C1757 1.356 1_554 S
N1755 H1760 0.984 . S
N1755 H1761 0.985 1_554 S
C1756 C1750 1.379 . S
C1756 C1753 1.363 1_554 S
C1756 N1754 1.354 1_554 S
C1757 C1751 1.363 1_556 S
C1757 C1752 1.379 . S
C1757 N1755 1.356 1_556 S
N1758 C1750 1.356 . S
N1758 H1764 0.984 . S
N1758 H1765 0.984 . S
N1759 C1752 1.356 . S
N1759 H1762 0.984 . S
N1759 H1763 0.985 . S
H1760 N1755 0.984 . S
H1761 N1755 0.985 1_556 S
H1762 N1759 0.984 . S
H1763 N1759 0.985 . S
H1764 N1758 0.984 . S
H1765 N1758 0.984 . S
H1766 N1754 0.975 1_554 S
H1767 N1754 0.997 . S
C1768 C1769 1.363 1_554 S
C1768 C1774 1.379 . S
C1768 N1776 1.356 1_554 S
C1769 C1768 1.363 1_556 S
C1769 C1775 1.363 . S
C1770 C1771 1.363 1_556 S
C1770 C1775 1.379 . S
C1770 N1777 1.352 1_556 S
C1771 C1770 1.363 1_554 S
C1771 C1774 1.363 . S
N1772 C1774 1.356 . S
N1772 H1784 0.984 . S
N1772 H1785 0.985 . S
N1773 C1775 1.356 . S
N1773 H1778 0.984 . S
N1773 H1779 0.985 . S
C1774 C1768 1.379 . S
C1774 C1771 1.363 . S
C1774 N1772 1.356 . S
C1775 C1769 1.363 . S
C1775 C1770 1.379 . S
C1775 N1773 1.356 . S
N1776 C1768 1.356 1_556 S
N1776 H1782 0.983 1_556 S
N1776 H1783 0.986 . S
N1777 C1770 1.352 1_554 S
N1777 H1780 1.015 . S
N1777 H1781 0.960 1_554 S
H1778 N1773 0.984 . S
H1779 N1773 0.985 . S
H1780 N1777 1.015 . S
H1781 N1777 0.960 1_556 S
H1782 N1776 0.983 1_554 S
H1783 N1776 0.986 . S
H1784 N1772 0.984 . S
H1785 N1772 0.985 . S
C1786 C1787 1.363 . S
C1786 C1792 1.379 . S
C1786 N1794 1.356 . S
C1787 C1786 1.363 . S
C1787 C1793 1.363 . S
C1788 C1789 1.363 . S
C1788 C1793 1.379 . S
C1788 N1795 1.356 . S
C1789 C1788 1.363 . S
C1789 C1792 1.363 . S
N1790 C1792 1.356 . S
N1790 H1802 0.984 . S
N1790 H1803 0.985 . S
N1791 C1793 1.356 . S
N1791 H1796 0.984 . S
N1791 H1797 0.985 . S
C1792 C1786 1.379 . S
C1792 C1789 1.363 . S
C1792 N1790 1.356 . S
C1793 C1787 1.363 . S
C1793 C1788 1.379 . S
C1793 N1791 1.356 . S
N1794 C1786 1.356 . S
N1794 H1800 0.984 . S
N1794 H1801 0.984 . S
N1795 C1788 1.356 . S
N1795 H1798 0.984 . S
N1795 H1799 0.985 . S
H1796 N1791 0.984 . S
H1797 N1791 0.985 . S
H1798 N1795 0.984 . S
H1799 N1795 0.985 . S
H1800 N1794 0.984 . S
H1801 N1794 0.984 . S
H1802 N1790 0.984 . S
H1803 N1790 0.985 . S
C1804 C1805 1.363 . S
C1804 C1810 1.379 . S
C1804 N1812 1.356 . S
C1805 C1804 1.363 . S
C1805 C1811 1.363 . S
C1806 C1807 1.363 . S
C1806 C1811 1.379 . S
C1806 N1813 1.356 . S
C1807 C1806 1.363 . S
C1807 C1810 1.363 . S
N1808 C1810 1.356 . S
N1808 H1820 0.984 . S
N1808 H1821 0.985 . S
N1809 C1811 1.356 . S
N1809 H1814 0.984 . S
N1809 H1815 0.985 . S
C1810 C1804 1.379 . S
C1810 C1807 1.363 . S
C1810 N1808 1.356 . S
C1811 C1805 1.363 . S
C1811 C1806 1.379 . S
C1811 N1809 1.356 . S
N1812 C1804 1.356 . S
N1812 H1818 0.984 . S
N1812 H1819 0.984 . S
N1813 C1806 1.356 . S
N1813 H1816 0.984 . S
N1813 H1817 0.985 . S
H1814 N1809 0.984 . S
H1815 N1809 0.985 . S
H1816 N1813 0.984 . S
H1817 N1813 0.985 . S
H1818 N1812 0.984 . S
H1819 N1812 0.984 . S
H1820 N1808 0.984 . S
H1821 N1808 0.985 . S
C1822 C1823 1.363 . S
C1822 C1828 1.379 . S
C1822 N1830 1.356 . S
C1823 C1822 1.363 . S
C1823 C1829 1.363 1_455 S
C1824 C1825 1.363 . S
C1824 C1829 1.379 . S
C1824 N1831 1.356 . S
C1825 C1824 1.363 . S
C1825 C1828 1.363 1_655 S
N1826 C1828 1.352 1_655 S
N1826 H1838 0.963 1_655 S
N1826 H1839 1.012 . S
N1827 C1829 1.352 1_455 S
N1827 H1832 1.012 . S
N1827 H1833 0.963 1_455 S
C1828 C1822 1.379 . S
C1828 C1825 1.363 1_455 S
C1828 N1826 1.352 1_455 S
C1829 C1823 1.363 1_655 S
C1829 C1824 1.379 . S
C1829 N1827 1.352 1_655 S
N1830 C1822 1.356 . S
N1830 H1836 0.984 . S
N1830 H1837 0.984 . S
N1831 C1824 1.356 . S
N1831 H1834 0.984 . S
N1831 H1835 0.985 . S
H1832 N1827 1.012 . S
H1833 N1827 0.963 1_655 S
H1834 N1831 0.984 . S
H1835 N1831 0.985 . S
H1836 N1830 0.984 . S
H1837 N1830 0.984 . S
H1838 N1826 0.963 1_455 S
H1839 N1826 1.012 . S
C1840 C1841 1.363 . S
C1840 C1846 1.379 . S
C1840 N1848 1.356 . S
C1841 C1840 1.363 . S
C1841 C1847 1.363 1_455 S
C1842 C1843 1.363 . S
C1842 C1847 1.379 . S
C1842 N1849 1.356 . S
C1843 C1842 1.363 . S
C1843 C1846 1.363 1_655 S
N1844 C1846 1.356 1_655 S
N1844 H1856 0.984 1_655 S
N1844 H1857 0.985 . S
N1845 C1847 1.356 1_455 S
N1845 H1850 0.984 . S
N1845 H1851 0.985 1_455 S
C1846 C1840 1.379 . S
C1846 C1843 1.363 1_455 S
C1846 N1844 1.356 1_455 S
C1847 C1841 1.363 1_655 S
C1847 C1842 1.379 . S
C1847 N1845 1.356 1_655 S
N1848 C1840 1.356 . S
N1848 H1854 0.984 . S
N1848 H1855 0.984 . S
N1849 C1842 1.356 . S
N1849 H1852 0.984 . S
N1849 H1853 0.985 . S
H1850 N1845 0.984 . S
H1851 N1845 0.985 1_655 S
H1852 N1849 0.984 . S
H1853 N1849 0.985 . S
H1854 N1848 0.984 . S
H1855 N1848 0.984 . S
H1856 N1844 0.984 1_455 S
H1857 N1844 0.985 . S
C1858 C1859 1.363 . S
C1858 C1864 1.379 . S
C1858 N1866 1.356 . S
C1859 C1858 1.363 . S
C1859 C1865 1.363 . S
C1860 C1861 1.363 . S
C1860 C1865 1.379 . S
C1860 N1867 1.356 . S
C1861 C1860 1.363 . S
C1861 C1864 1.363 . S
N1862 C1864 1.356 . S
N1862 H1874 0.984 . S
N1862 H1875 0.985 . S
N1863 C1865 1.356 . S
N1863 H1868 0.984 . S
N1863 H1869 0.985 . S
C1864 C1858 1.379 . S
C1864 C1861 1.363 . S
C1864 N1862 1.356 . S
C1865 C1859 1.363 . S
C1865 C1860 1.379 . S
C1865 N1863 1.356 . S
N1866 C1858 1.356 . S
N1866 H1872 0.984 . S
N1866 H1873 0.984 . S
N1867 C1860 1.356 . S
N1867 H1870 0.984 . S
N1867 H1871 0.985 . S
H1868 N1863 0.984 . S
H1869 N1863 0.985 . S
H1870 N1867 0.984 . S
H1871 N1867 0.985 . S
H1872 N1866 0.984 . S
H1873 N1866 0.984 . S
H1874 N1862 0.984 . S
H1875 N1862 0.985 . S
C1876 C1877 1.363 . S
C1876 C1882 1.379 . S
C1876 N1884 1.356 . S
C1877 C1876 1.363 . S
C1877 C1883 1.363 . S
C1878 C1879 1.363 . S
C1878 C1883 1.379 . S
C1878 N1885 1.356 . S
C1879 C1878 1.363 . S
C1879 C1882 1.363 . S
N1880 C1882 1.356 . S
N1880 H1892 0.984 . S
N1880 H1893 0.985 . S
N1881 C1883 1.356 . S
N1881 H1886 0.984 . S
N1881 H1887 0.985 . S
C1882 C1876 1.379 . S
C1882 C1879 1.363 . S
C1882 N1880 1.356 . S
C1883 C1877 1.363 . S
C1883 C1878 1.379 . S
C1883 N1881 1.356 . S
N1884 C1876 1.356 . S
N1884 H1890 0.984 . S
N1884 H1891 0.984 . S
N1885 C1878 1.356 . S
N1885 H1888 0.984 . S
N1885 H1889 0.985 . S
H1886 N1881 0.984 . S
H1887 N1881 0.985 . S
H1888 N1885 0.984 . S
H1889 N1885 0.985 . S
H1890 N1884 0.984 . S
H1891 N1884 0.984 . S
H1892 N1880 0.984 . S
H1893 N1880 0.985 . S
C1894 C1895 1.363 1_565 S
C1894 C1900 1.379 . S
C1894 N1902 1.356 . S
C1895 C1894 1.363 1_545 S
C1895 C1901 1.363 . S
C1896 C1897 1.363 1_545 S
C1896 C1901 1.379 . S
C1896 N1903 1.356 . S
C1897 C1896 1.363 1_565 S
C1897 C1900 1.363 . S
N1898 C1900 1.356 . S
N1898 H1910 0.984 . S
N1898 H1911 0.985 . S
N1899 C1901 1.356 . S
N1899 H1904 0.984 . S
N1899 H1905 0.985 . S
C1900 C1894 1.379 . S
C1900 C1897 1.363 . S
C1900 N1898 1.356 . S
C1901 C1895 1.363 . S
C1901 C1896 1.379 . S
C1901 N1899 1.356 . S
N1902 C1894 1.356 . S
N1902 H1908 0.984 . S
N1902 H1909 0.984 1_565 S
N1903 C1896 1.356 . S
N1903 H1906 0.984 1_545 S
N1903 H1907 0.985 . S
H1904 N1899 0.984 . S
H1905 N1899 0.985 . S
H1906 N1903 0.984 1_565 S
H1907 N1903 0.985 . S
H1908 N1902 0.984 . S
H1909 N1902 0.984 1_545 S
H1910 N1898 0.984 . S
H1911 N1898 0.985 . S
C1912 C1913 1.363 . S
C1912 C1918 1.379 . S
C1912 N1920 1.356 . S
C1913 C1912 1.363 . S
C1913 C1919 1.363 . S
C1914 C1915 1.363 . S
C1914 C1919 1.379 . S
C1914 N1921 1.356 . S
C1915 C1914 1.363 . S
C1915 C1918 1.363 . S
N1916 C1918 1.356 . S
N1916 H1928 0.984 . S
N1916 H1929 0.985 . S
N1917 C1919 1.356 . S
N1917 H1922 0.984 . S
N1917 H1923 0.985 . S
C1918 C1912 1.379 . S
C1918 C1915 1.363 . S
C1918 N1916 1.356 . S
C1919 C1913 1.363 . S
C1919 C1914 1.379 . S
C1919 N1917 1.356 . S
N1920 C1912 1.356 . S
N1920 H1926 0.984 . S
N1920 H1927 0.984 . S
N1921 C1914 1.356 . S
N1921 H1924 0.984 . S
N1921 H1925 0.985 . S
H1922 N1917 0.984 . S
H1923 N1917 0.985 . S
H1924 N1921 0.984 . S
H1925 N1921 0.985 . S
H1926 N1920 0.984 . S
H1927 N1920 0.984 . S
H1928 N1916 0.984 . S
H1929 N1916 0.985 . S
C1930 C1931 1.363 . S
C1930 C1936 1.379 . S
C1930 N1938 1.356 . S
C1931 C1930 1.363 . S
C1931 C1937 1.363 . S
C1932 C1933 1.363 . S
C1932 C1937 1.379 . S
C1932 N1939 1.356 . S
C1933 C1932 1.363 . S
C1933 C1936 1.363 . S
N1934 C1936 1.356 . S
N1934 H1946 0.984 . S
N1934 H1947 0.985 . S
N1935 C1937 1.356 . S
N1935 H1940 0.984 . S
N1935 H1941 0.985 . S
C1936 C1930 1.379 . S
C1936 C1933 1.363 . S
C1936 N1934 1.356 . S
C1937 C1931 1.363 . S
C1937 C1932 1.379 . S
C1937 N1935 1.356 . S
N1938 C1930 1.356 . S
N1938 H1944 0.984 . S
N1938 H1945 0.984 . S
N1939 C1932 1.356 . S
N1939 H1942 0.984 . S
N1939 H1943 0.985 . S
H1940 N1935 0.984 . S
H1941 N1935 0.985 . S
H1942 N1939 0.984 . S
H1943 N1939 0.985 . S
H1944 N1938 0.984 . S
H1945 N1938 0.984 . S
H1946 N1934 0.984 . S
H1947 N1934 0.985 . S
C1948 C1949 1.363 . S
C1948 C1954 1.379 . S
C1948 N1956 1.356 . S
C1949 C1948 1.363 . S
C1949 C1955 1.363 1_545 S
C1950 C1951 1.363 . S
C1950 C1955 1.379 . S
C1950 N1957 1.356 . S
C1951 C1950 1.363 . S
C1951 C1954 1.363 1_565 S
N1952 C1954 1.356 . S
N1952 H1964 0.984 . S
N1952 H1965 0.985 1_545 S
N1953 C1955 1.356 . S
N1953 H1958 0.984 1_565 S
N1953 H1959 0.985 . S
C1954 C1948 1.379 . S
C1954 C1951 1.363 1_545 S
C1954 N1952 1.356 . S
C1955 C1949 1.363 1_565 S
C1955 C1950 1.379 . S
C1955 N1953 1.356 . S
N1956 C1948 1.356 . S
N1956 H1962 0.984 . S
N1956 H1963 0.984 . S
N1957 C1950 1.356 . S
N1957 H1960 0.984 . S
N1957 H1961 0.985 . S
H1958 N1953 0.984 1_545 S
H1959 N1953 0.985 . S
H1960 N1957 0.984 . S
H1961 N1957 0.985 . S
H1962 N1956 0.984 . S
H1963 N1956 0.984 . S
H1964 N1952 0.984 . S
H1965 N1952 0.985 1_565 S
C1966 C1967 1.363 . S
C1966 C1972 1.379 . S
C1966 N1974 1.356 . S
C1967 C1966 1.363 . S
C1967 C1973 1.363 . S
C1968 C1969 1.363 . S
C1968 C1973 1.379 . S
C1968 N1975 1.356 . S
C1969 C1968 1.363 . S
C1969 C1972 1.363 . S
N1970 C1972 1.356 . S
N1970 H1982 0.984 . S
N1970 H1983 0.985 . S
N1971 C1973 1.356 . S
N1971 H1976 0.984 . S
N1971 H1977 0.985 . S
C1972 C1966 1.379 . S
C1972 C1969 1.363 . S
C1972 N1970 1.356 . S
C1973 C1967 1.363 . S
C1973 C1968 1.379 . S
C1973 N1971 1.356 . S
N1974 C1966 1.356 . S
N1974 H1980 0.984 . S
N1974 H1981 0.984 . S
N1975 C1968 1.356 . S
N1975 H1978 0.984 . S
N1975 H1979 0.985 . S
H1976 N1971 0.984 . S
H1977 N1971 0.985 . S
H1978 N1975 0.984 . S
H1979 N1975 0.985 . S
H1980 N1974 0.984 . S
H1981 N1974 0.984 . S
H1982 N1970 0.984 . S
H1983 N1970 0.985 . S
C1409 C29 0.810 . S
C1411 C1201 0.810 . S
C1427 C108 0.810 . S
C1429 C821 0.810 . S
C1445 C1252 0.799 . S
C1447 C225 0.799 . S
C1463 C321 0.799 . S
C1465 C1349 0.799 . S
C1481 C372 0.810 . S
C1483 C557 0.810 . S
C1499 C909 0.810 . S
C1501 C489 0.810 . S
C1517 C1017 0.799 . S
C1519 C636 0.799 . S
C1535 C733 0.799 . S
C1537 C1113 0.799 . S
C1553 C196 1.763 . S
C1555 C57 1.762 . S
C1571 C137 1.762 . S
C1573 C293 1.763 . S
C1589 C1076 1.769 . S
C1591 C49 1.770 . S
C1607 C145 1.770 . S
C1609 C997 1.769 . S
C1625 C409 1.770 . S
C1627 C205 1.769 . S
C1643 C929 1.770 . S
C1645 C284 1.769 . S
C1661 C117 1.765 . S
C1663 C20 1.765 . S
C1679 C313 1.737 . S
C1681 C233 1.737 . S
C1697 C900 1.765 . S
C1699 C381 1.765 . S
C1715 C645 1.756 . S
C1717 C469 1.754 . S
C1733 C577 1.754 . S
C1735 C724 1.756 . S
C1751 C1369 1.766 . S
C1753 C460 1.753 . S
C1769 C585 1.753 . S
C1771 C1289 1.766 . S
C1787 C849 1.753 . S
C1789 C673 1.766 . S
C1805 C753 1.766 . S
C1807 C1173 1.753 . S
C1823 C548 1.770 . S
C1825 C497 1.770 . S
C1841 C761 1.767 . S
C1843 C665 1.767 . S
C1859 C812 1.770 . S
C1861 C1193 1.770 . S
C1877 C937 1.762 . S
C1879 C988 1.763 . S
C1895 C1085 1.763 . S
C1897 C401 1.762 . S
C1913 C1105 1.737 . S
C1915 C1025 1.737 . S
C1931 C1261 1.756 . S
C1933 C1164 1.754 . S
C1949 C841 1.754 . S
C1951 C1340 1.756 . S
C1967 C1377 1.767 . S
C1969 C1281 1.767 . S
