# Generated by pormake.
# Topology wfu, (7)-cn, num edge types: 1
# Building blocks:
#     Node 0, Type 0, BuildingBlock: HICVOG_clean_sbu_0, # of connection points: 7
#     Node 1, Type 0, BuildingBlock: HICVOG_clean_sbu_0, # of connection points: 7
#     Node 2, Type 0, BuildingBlock: HICVOG_clean_sbu_0, # of connection points: 7
#     Node 3, Type 0, BuildingBlock: HICVOG_clean_sbu_0, # of connection points: 7
#     Node 4, Type 0, BuildingBlock: HICVOG_clean_sbu_0, # of connection points: 7
#     Node 5, Type 0, BuildingBlock: HICVOG_clean_sbu_0, # of connection points: 7
#     Node 6, Type 0, BuildingBlock: HICVOG_clean_sbu_0, # of connection points: 7
#     Node 7, Type 0, BuildingBlock: HICVOG_clean_sbu_0, # of connection points: 7
#     Edge 8, Type (0, 0), BuildingBlock: MIFKUJ_clean_linker_0, # of connection points: 2
#     Edge 9, Type (0, 0), BuildingBlock: MIFKUJ_clean_linker_0, # of connection points: 2
#     Edge 10, Type (0, 0), BuildingBlock: MIFKUJ_clean_linker_0, # of connection points: 2
#     Edge 11, Type (0, 0), BuildingBlock: MIFKUJ_clean_linker_0, # of connection points: 2
#     Edge 12, Type (0, 0), BuildingBlock: MIFKUJ_clean_linker_0, # of connection points: 2
#     Edge 13, Type (0, 0), BuildingBlock: MIFKUJ_clean_linker_0, # of connection points: 2
#     Edge 14, Type (0, 0), BuildingBlock: MIFKUJ_clean_linker_0, # of connection points: 2
#     Edge 15, Type (0, 0), BuildingBlock: MIFKUJ_clean_linker_0, # of connection points: 2
#     Edge 16, Type (0, 0), BuildingBlock: MIFKUJ_clean_linker_0, # of connection points: 2
#     Edge 17, Type (0, 0), BuildingBlock: MIFKUJ_clean_linker_0, # of connection points: 2
#     Edge 18, Type (0, 0), BuildingBlock: MIFKUJ_clean_linker_0, # of connection points: 2
#     Edge 19, Type (0, 0), BuildingBlock: MIFKUJ_clean_linker_0, # of connection points: 2
#     Edge 20, Type (0, 0), BuildingBlock: MIFKUJ_clean_linker_0, # of connection points: 2
#     Edge 21, Type (0, 0), BuildingBlock: MIFKUJ_clean_linker_0, # of connection points: 2
#     Edge 22, Type (0, 0), BuildingBlock: MIFKUJ_clean_linker_0, # of connection points: 2
#     Edge 23, Type (0, 0), BuildingBlock: MIFKUJ_clean_linker_0, # of connection points: 2
#     Edge 24, Type (0, 0), BuildingBlock: MIFKUJ_clean_linker_0, # of connection points: 2
#     Edge 25, Type (0, 0), BuildingBlock: MIFKUJ_clean_linker_0, # of connection points: 2
#     Edge 26, Type (0, 0), BuildingBlock: MIFKUJ_clean_linker_0, # of connection points: 2
#     Edge 27, Type (0, 0), BuildingBlock: MIFKUJ_clean_linker_0, # of connection points: 2
#     Edge 28, Type (0, 0), BuildingBlock: MIFKUJ_clean_linker_0, # of connection points: 2
#     Edge 29, Type (0, 0), BuildingBlock: MIFKUJ_clean_linker_0, # of connection points: 2
#     Edge 30, Type (0, 0), BuildingBlock: MIFKUJ_clean_linker_0, # of connection points: 2
#     Edge 31, Type (0, 0), BuildingBlock: MIFKUJ_clean_linker_0, # of connection points: 2
#     Edge 32, Type (0, 0), BuildingBlock: MIFKUJ_clean_linker_0, # of connection points: 2
#     Edge 33, Type (0, 0), BuildingBlock: MIFKUJ_clean_linker_0, # of connection points: 2
#     Edge 34, Type (0, 0), BuildingBlock: MIFKUJ_clean_linker_0, # of connection points: 2
#     Edge 35, Type (0, 0), BuildingBlock: MIFKUJ_clean_linker_0, # of connection points: 2
# Relax obj value: 0.414
# Max RMSD: 0.287
# Mean RMSD: 0.287
data_MOF--net-wfu--node1-HICVOG_clean_sbu_0--edge1-MIFKUJ_clean_linker_0
_symmetry_space_group_name_H-M    P1
_symmetry_Int_Tables_number       1
_symmetry_cell_setting            triclinic
loop_
_symmetry_equiv_pos_as_xyz
'x, y, z'
_cell_length_a     39.822227
_cell_length_b     39.796684
_cell_length_c     39.052715
_cell_angle_alpha  90.01311
_cell_angle_beta   89.921116
_cell_angle_gamma 90.098955
loop_
_atom_site_label
_atom_site_type_symbol
_atom_site_fract_x
_atom_site_fract_y
_atom_site_fract_z
_atom_type_partial_charge
Zn0 Zn 0.26748 0.34783 0.1371 0.0
C1 C 0.27518 0.35987 0.23974 0.0
N2 N 0.26777 0.32699 0.24069 0.0
C3 C 0.26683 0.31878 0.20734 0.0
N4 N 0.27281 0.34574 0.18688 0.0
N5 N 0.27826 0.37161 0.20763 0.0
C6 C 0.26559 0.47132 0.23474 0.0
O7 O 0.23903 0.46422 0.21616 0.0
O8 O 0.30568 0.32496 0.11144 0.0
Zn9 Zn 0.29666 0.41529 0.19607 0.0
N10 N 0.22525 0.32596 0.12593 0.0
C11 C 0.17109 0.30633 0.1425 0.0
C12 C 0.20153 0.32164 0.15064 0.0
C13 C 0.21895 0.31723 0.09291 0.0
N14 N 0.16469 0.29782 0.10952 0.0
C15 C 0.18753 0.30338 0.08417 0.0
O16 O 0.27966 0.43489 0.15248 0.0
C17 C 0.26861 0.42586 0.12342 0.0
O18 O 0.26406 0.39495 0.11613 0.0
H19 H 0.20598 0.33025 0.17645 0.0
H20 H 0.2381 0.32161 0.07375 0.0
C21 C 0.36286 0.41244 0.21951 0.0
C22 C 0.39772 0.40718 0.2179 0.0
C23 C 0.39213 0.39416 0.15859 0.0
C24 C 0.35773 0.40012 0.16044 0.0
N25 N 0.34391 0.40873 0.19095 0.0
N26 N 0.41119 0.39798 0.18715 0.0
H27 H 0.3503 0.4197 0.24275 0.0
C28 C 0.33526 0.31984 0.12259 0.0
O29 O 0.34236 0.32732 0.15452 0.0
O30 O 0.29127 0.45238 0.23246 0.0
H31 H 0.34206 0.39735 0.13801 0.0
H32 H 0.1523 0.30209 0.16206 0.0
H33 H 0.40367 0.38679 0.13464 0.0
Zn34 Zn 0.4121 0.74033 0.81204 0.0
C35 C 0.31487 0.76909 0.80591 0.0
N36 N 0.32268 0.77388 0.7728 0.0
C37 C 0.35576 0.7673 0.7721 0.0
N38 N 0.36777 0.75862 0.80304 0.0
N39 N 0.34207 0.76015 0.82469 0.0
C40 C 0.31032 0.69548 0.88535 0.0
O41 O 0.31582 0.69013 0.85268 0.0
O42 O 0.44902 0.75125 0.7765 0.0
Zn43 Zn 0.34441 0.76153 0.87489 0.0
N44 N 0.40717 0.69241 0.81432 0.0
C45 C 0.38403 0.64453 0.8422 0.0
C46 C 0.38981 0.6791 0.84102 0.0
C47 C 0.42052 0.67251 0.78959 0.0
N48 N 0.39688 0.62463 0.81716 0.0
C49 C 0.41528 0.63776 0.79098 0.0
O50 O 0.39153 0.76256 0.89627 0.0
C51 C 0.42234 0.76105 0.88752 0.0
O52 O 0.43097 0.75461 0.85696 0.0
H53 H 0.3804 0.69536 0.86099 0.0
H54 H 0.43498 0.68364 0.76901 0.0
C55 C 0.30999 0.80847 0.91902 0.0
C56 C 0.29765 0.84039 0.92825 0.0
C57 C 0.31504 0.86159 0.87423 0.0
C58 C 0.32815 0.83028 0.86573 0.0
N59 N 0.32485 0.80419 0.88796 0.0
N60 N 0.30027 0.86595 0.90522 0.0
H61 H 0.30807 0.78724 0.93621 0.0
C62 C 0.4781 0.74258 0.78699 0.0
O63 O 0.48051 0.72786 0.81699 0.0
O64 O 0.31911 0.72339 0.89849 0.0
H65 H 0.34085 0.8268 0.84151 0.0
H66 H 0.36977 0.63356 0.863 0.0
H67 H 0.31705 0.88244 0.85658 0.0
Zn68 Zn 0.73359 0.5942 0.20058 0.0
C69 C 0.7558 0.69236 0.20503 0.0
N70 N 0.75888 0.68478 0.23838 0.0
C71 C 0.75792 0.65111 0.23841 0.0
N72 N 0.75363 0.63835 0.20683 0.0
N73 N 0.7524 0.66437 0.18548 0.0
C74 C 0.69093 0.70405 0.12451 0.0
O75 O 0.68434 0.69939 0.1571 0.0
O76 O 0.74862 0.55765 0.23444 0.0
Zn77 Zn 0.75285 0.66223 0.13541 0.0
N78 N 0.68708 0.60117 0.21065 0.0
C79 C 0.63749 0.63311 0.20198 0.0
C80 C 0.67032 0.62504 0.19277 0.0
C81 C 0.67225 0.58431 0.23688 0.0
N82 N 0.62256 0.61625 0.22813 0.0
C83 C 0.63897 0.59174 0.24576 0.0
O84 O 0.74566 0.61555 0.11492 0.0
C85 C 0.74043 0.58477 0.12223 0.0
O86 O 0.73664 0.57508 0.15302 0.0
H87 H 0.68267 0.63779 0.17186 0.0
H88 H 0.68631 0.56556 0.25082 0.0
C89 C 0.80505 0.68521 0.08896 0.0
C90 C 0.83874 0.6905 0.07922 0.0
C91 C 0.85622 0.6752 0.13514 0.0
C92 C 0.82296 0.66947 0.1445 0.0
N93 N 0.798 0.67462 0.12135 0.0
N94 N 0.86334 0.68524 0.10276 0.0
H95 H 0.7848 0.6881 0.07074 0.0
C96 C 0.7682 0.53344 0.22702 0.0
O97 O 0.78342 0.5335 0.19715 0.0
O98 O 0.71816 0.69253 0.11201 0.0
H99 H 0.81717 0.66042 0.16991 0.0
H100 H 0.62388 0.65238 0.18828 0.0
H101 H 0.8763 0.67113 0.15329 0.0
Zn102 Zn 0.60132 0.28646 0.80195 0.0
C103 C 0.69594 0.25443 0.78512 0.0
N104 N 0.68642 0.25918 0.75249 0.0
C105 C 0.65393 0.26713 0.75535 0.0
N106 N 0.64358 0.26738 0.78807 0.0
N107 N 0.66998 0.25952 0.80727 0.0
C108 C 0.69926 0.32385 0.86954 0.0
O109 O 0.69799 0.32882 0.8363 0.0
O110 O 0.56329 0.28178 0.76675 0.0
Zn111 Zn 0.66951 0.25523 0.85744 0.0
N112 N 0.60908 0.33339 0.80734 0.0
C113 C 0.62531 0.38098 0.83986 0.0
C114 C 0.62049 0.34642 0.83724 0.0
C115 C 0.60213 0.35312 0.77999 0.0
N116 N 0.61724 0.40093 0.81288 0.0
C117 C 0.60535 0.38813 0.7828 0.0
O118 O 0.62334 0.25096 0.88005 0.0
C119 C 0.59245 0.25671 0.87411 0.0
O120 O 0.58286 0.26921 0.8459 0.0
H121 H 0.62575 0.33009 0.85869 0.0
H122 H 0.59369 0.34113 0.75679 0.0
C123 C 0.69951 0.20904 0.90392 0.0
C124 C 0.71381 0.17838 0.9144 0.0
C125 C 0.71533 0.16064 0.85638 0.0
C126 C 0.69978 0.19038 0.8464 0.0
N127 N 0.69284 0.21433 0.87023 0.0
N128 N 0.72175 0.15523 0.89003 0.0
H129 H 0.69316 0.22843 0.92221 0.0
C130 C 0.54167 0.25822 0.7687 0.0
O131 O 0.54631 0.23417 0.79124 0.0
O132 O 0.69007 0.29563 0.88176 0.0
H133 H 0.69295 0.19406 0.81994 0.0
H134 H 0.63462 0.39197 0.86336 0.0
H135 H 0.72146 0.14158 0.83763 0.0
Zn136 Zn 0.75466 0.16062 0.37017 0.0
C137 C 0.73296 0.15588 0.2699 0.0
N138 N 0.72569 0.18847 0.27525 0.0
C139 C 0.73676 0.19382 0.3072 0.0
N140 N 0.75042 0.16585 0.32083 0.0
N141 N 0.7483 0.14183 0.29728 0.0
C142 C 0.74102 0.0363 0.28026 0.0
O143 O 0.73042 0.03769 0.3121 0.0
O144 O 0.78905 0.19125 0.39306 0.0
Zn145 Zn 0.77426 0.10022 0.29823 0.0
N146 N 0.71007 0.17016 0.38708 0.0
C147 C 0.65186 0.15829 0.38054 0.0
C148 C 0.68503 0.15376 0.37034 0.0
C149 C 0.70331 0.19122 0.41367 0.0
N150 N 0.64505 0.17877 0.4074 0.0
C151 C 0.66978 0.19556 0.42435 0.0
O152 O 0.77888 0.07919 0.34479 0.0
C153 C 0.77457 0.08494 0.37649 0.0
O154 O 0.76524 0.11364 0.3872 0.0
H155 H 0.69091 0.1371 0.34929 0.0
H156 H 0.72382 0.2035 0.42686 0.0
C157 C 0.8372 0.08648 0.26781 0.0
C158 C 0.86726 0.09419 0.25072 0.0
C159 C 0.85755 0.15217 0.26087 0.0
C160 C 0.82777 0.14433 0.27787 0.0
N161 N 0.81823 0.11165 0.28098 0.0
N162 N 0.87653 0.12701 0.24765 0.0
H163 H 0.82816 0.06089 0.26968 0.0
C164 C 0.81957 0.19247 0.3834 0.0
O165 O 0.82827 0.17682 0.35515 0.0
O166 O 0.75715 0.06127 0.26804 0.0
H167 H 0.81196 0.16421 0.28755 0.0
H168 H 0.63169 0.14532 0.36751 0.0
H169 H 0.86535 0.17805 0.25787 0.0
Zn170 Zn 0.10517 0.23895 0.70231 0.0
C171 C 0.19678 0.28113 0.69534 0.0
N172 N 0.19042 0.29187 0.72724 0.0
C173 C 0.15824 0.2826 0.73209 0.0
N174 N 0.14545 0.26659 0.70448 0.0
N175 N 0.1698 0.26593 0.68127 0.0
C176 C 0.19016 0.19394 0.61849 0.0
O177 O 0.16485 0.18661 0.63877 0.0
O178 O 0.06653 0.25323 0.73385 0.0
Zn179 Zn 0.16559 0.26029 0.63218 0.0
N180 N 0.11854 0.19492 0.71774 0.0
C181 C 0.16078 0.15644 0.73522 0.0
C182 C 0.15152 0.18628 0.71919 0.0
C183 C 0.09445 0.1751 0.73177 0.0
N184 N 0.13672 0.13673 0.74954 0.0
C185 C 0.10361 0.14529 0.74861 0.0
O186 O 0.11886 0.24984 0.61398 0.0
C187 C 0.08981 0.2408 0.62408 0.0
O188 O 0.08355 0.236 0.65564 0.0
H189 H 0.17055 0.20272 0.70876 0.0
H190 H 0.06857 0.18298 0.72985 0.0
C191 C 0.19588 0.30949 0.58628 0.0
C192 C 0.20269 0.34266 0.57561 0.0
C193 C 0.17105 0.36327 0.6227 0.0
C194 C 0.16376 0.33051 0.63263 0.0
N195 N 0.17654 0.3043 0.61451 0.0
N196 N 0.19018 0.36857 0.59448 0.0
H197 H 0.20588 0.28804 0.57267 0.0
C198 C 0.04239 0.2718 0.72403 0.0
O199 O 0.04436 0.28639 0.69392 0.0
O200 O 0.19694 0.22471 0.61281 0.0
H201 H 0.14818 0.32594 0.65485 0.0
H202 H 0.1869 0.1492 0.73668 0.0
H203 H 0.16134 0.38436 0.63709 0.0
Zn204 Zn 0.26192 0.84839 0.37282 0.0
C205 C 0.25166 0.86111 0.27035 0.0
N206 N 0.25946 0.82837 0.26873 0.0
C207 C 0.26263 0.82 0.3019 0.0
N208 N 0.25711 0.84666 0.32292 0.0
N209 N 0.2502 0.87252 0.30269 0.0
C210 C 0.22116 0.9791 0.28338 0.0
O211 O 0.20074 0.98021 0.30982 0.0
O212 O 0.22283 0.82529 0.39701 0.0
Zn213 Zn 0.23231 0.91584 0.31529 0.0
N214 N 0.30387 0.82619 0.38408 0.0
C215 C 0.35761 0.80615 0.36675 0.0
C216 C 0.32746 0.82218 0.35918 0.0
C217 C 0.31013 0.81653 0.41685 0.0
N218 N 0.36379 0.79628 0.39937 0.0
C219 C 0.3411 0.8015 0.4249 0.0
O220 O 0.25181 0.93576 0.35771 0.0
C221 C 0.26207 0.92643 0.38695 0.0
O222 O 0.2652 0.89541 0.3945 0.0
H223 H 0.32309 0.83151 0.33363 0.0
H224 H 0.29129 0.8208 0.43636 0.0
C225 C 0.16347 0.91073 0.29736 0.0
C226 C 0.12885 0.90703 0.30352 0.0
C227 C 0.14061 0.89845 0.36265 0.0
C228 C 0.17466 0.90345 0.35644 0.0
N229 N 0.18532 0.90925 0.32395 0.0
N230 N 0.11863 0.90067 0.33624 0.0
H231 H 0.17341 0.91523 0.27208 0.0
C232 C 0.19369 0.82143 0.38418 0.0
O233 O 0.18847 0.83029 0.35224 0.0
O234 O 0.23828 0.95244 0.27851 0.0
H235 H 0.19252 0.90217 0.37722 0.0
H236 H 0.37627 0.80222 0.34701 0.0
H237 H 0.13163 0.8933 0.38827 0.0
Zn238 Zn 0.91159 0.77727 0.69058 0.0
C239 C 0.81452 0.75239 0.69867 0.0
N240 N 0.82092 0.7555 0.73224 0.0
C241 C 0.85449 0.75828 0.73315 0.0
N242 N 0.86829 0.75743 0.70162 0.0
N243 N 0.84305 0.75356 0.67967 0.0
C244 C 0.8076 0.80766 0.61154 0.0
O245 O 0.80752 0.81468 0.64437 0.0
O246 O 0.94827 0.77502 0.72751 0.0
Zn247 Zn 0.84689 0.74642 0.63007 0.0
N248 N 0.9018 0.82357 0.68193 0.0
C249 C 0.87398 0.86416 0.64759 0.0
C250 C 0.8837 0.83108 0.65354 0.0
C251 C 0.91142 0.84782 0.70431 0.0
N252 N 0.88362 0.88852 0.66986 0.0
C253 C 0.90245 0.88135 0.69799 0.0
O254 O 0.89426 0.7475 0.60995 0.0
C255 C 0.92498 0.75154 0.618 0.0
O256 O 0.93352 0.76043 0.64795 0.0
H257 H 0.87652 0.81135 0.63601 0.0
H258 H 0.9256 0.84089 0.72683 0.0
C259 C 0.81989 0.69157 0.59012 0.0
C260 C 0.81343 0.65737 0.58359 0.0
C261 C 0.8306 0.64409 0.64014 0.0
C262 C 0.83771 0.67784 0.64622 0.0
N263 N 0.83201 0.70094 0.62125 0.0
N264 N 0.81905 0.63459 0.60893 0.0
H265 H 0.81699 0.71031 0.57028 0.0
C266 C 0.96926 0.75087 0.72691 0.0
O267 O 0.96393 0.7258 0.70569 0.0
O268 O 0.82072 0.78028 0.60136 0.0
H269 H 0.8481 0.68555 0.67056 0.0
H270 H 0.85905 0.87046 0.62541 0.0
H271 H 0.83496 0.62545 0.65979 0.0
H272 H 0.20664 0.33831 0.02671 0.0
H273 H 0.18669 0.3303 0.96836 0.0
H274 H 0.12491 0.24734 0.00141 0.0
H275 H 0.14474 0.25516 0.06029 0.0
H276 H 0.16339 0.23629 0.9387 0.0
H277 H 0.08522 0.31378 0.9873 0.0
H278 H 0.0682 0.36382 0.02021 0.0
H279 H 0.12009 0.42743 0.94874 0.0
H280 H 0.13786 0.37772 0.91567 0.0
H281 H 0.11895 0.23684 0.76656 0.0
H282 H 0.10412 0.23826 0.82707 0.0
H283 H 0.15292 0.33479 0.83644 0.0
H284 H 0.16465 0.33468 0.77529 0.0
H285 H 0.10557 0.33147 0.88171 0.0
H286 H 0.19623 0.25545 0.84474 0.0
H287 H 0.21595 0.20753 0.81001 0.0
H288 H 0.14358 0.14314 0.85865 0.0
H289 H 0.12325 0.19082 0.89344 0.0
C290 C 0.18943 0.31783 0.02164 0.0
C291 C 0.17779 0.29692 0.04816 0.0
C292 C 0.17773 0.31358 0.98829 0.0
C293 C 0.1542 0.2884 0.98076 0.0
C294 C 0.14307 0.26692 0.00684 0.0
C295 C 0.15446 0.27142 0.04038 0.0
C296 C 0.1412 0.28514 0.9455 0.0
C297 C 0.15 0.25669 0.92637 0.0
C298 C 0.12399 0.31192 0.92953 0.0
C299 C 0.11299 0.34197 0.94909 0.0
C300 C 0.09318 0.33842 0.97871 0.0
C301 C 0.08338 0.36673 0.99738 0.0
C302 C 0.09309 0.39878 0.9866 0.0
C303 C 0.11257 0.40259 0.95706 0.0
C304 C 0.12247 0.37435 0.93831 0.0
C305 C 0.12455 0.25919 0.78094 0.0
C306 C 0.14238 0.28584 0.76601 0.0
C307 C 0.11672 0.25974 0.81584 0.0
C308 C 0.12824 0.28621 0.83658 0.0
C309 C 0.1438 0.314 0.82111 0.0
C310 C 0.15071 0.31383 0.78615 0.0
C311 C 0.12905 0.28327 0.87444 0.0
C312 C 0.11801 0.31057 0.89419 0.0
C313 C 0.14466 0.25564 0.89092 0.0
C314 C 0.15812 0.22665 0.87148 0.0
C315 C 0.18464 0.23102 0.84808 0.0
C316 C 0.19585 0.20395 0.82834 0.0
C317 C 0.18099 0.17232 0.83208 0.0
C318 C 0.15505 0.16765 0.85577 0.0
C319 C 0.1437 0.19467 0.87554 0.0
H320 H 0.18958 0.15143 0.81665 0.0
H321 H 0.08549 0.42067 1.0011 0.0
H322 H 0.31424 0.81144 0.9899 0.0
H323 H 0.29279 0.82591 0.04635 0.0
H324 H 0.2283 0.90092 0.00158 0.0
H325 H 0.24985 0.88666 0.94464 0.0
H326 H 0.25867 0.92524 0.05734 0.0
H327 H 0.19494 0.82722 0.0309 0.0
H328 H 0.18548 0.76904 0.01135 0.0
H329 H 0.24672 0.73194 0.09345 0.0
H330 H 0.25702 0.78995 0.11311 0.0
H331 H 0.19183 0.86074 0.23841 0.0
H332 H 0.18338 0.87289 0.17762 0.0
H333 H 0.28447 0.9118 0.17129 0.0
H334 H 0.29234 0.90053 0.23228 0.0
H335 H 0.21883 0.8365 0.13675 0.0
H336 H 0.29668 0.9561 0.09763 0.0
H337 H 0.30298 0.01502 0.11598 0.0
H338 H 0.20669 0.01113 0.16537 0.0
H339 H 0.19936 0.95243 0.14667 0.0
C340 C 0.29494 0.83046 0.99179 0.0
C341 C 0.28326 0.84741 0.96256 0.0
C342 C 0.28282 0.83888 0.02421 0.0
C343 C 0.25854 0.86415 0.02815 0.0
C344 C 0.24693 0.88127 0.99912 0.0
C345 C 0.2592 0.87299 0.96662 0.0
C346 C 0.24599 0.87287 0.06281 0.0
C347 C 0.24967 0.906 0.07476 0.0
C348 C 0.23318 0.84795 0.08508 0.0
C349 C 0.22682 0.81296 0.07343 0.0
C350 C 0.20653 0.80667 0.04468 0.0
C351 C 0.20102 0.77372 0.03357 0.0
C352 C 0.2155 0.74681 0.05113 0.0
C353 C 0.23549 0.7528 0.07987 0.0
C354 C 0.24113 0.7857 0.09104 0.0
C355 C 0.21143 0.87372 0.22436 0.0
C356 C 0.24256 0.88009 0.23972 0.0
C357 C 0.20672 0.88043 0.18963 0.0
C358 C 0.23338 0.89297 0.16976 0.0
C359 C 0.26336 0.90256 0.18607 0.0
C360 C 0.26791 0.89612 0.22092 0.0
C361 C 0.23296 0.88865 0.13202 0.0
C362 C 0.22699 0.85615 0.11936 0.0
C363 C 0.24322 0.91431 0.10919 0.0
C364 C 0.24752 0.94967 0.12075 0.0
C365 C 0.2767 0.96782 0.11219 0.0
C366 C 0.28047 1.00121 0.12267 0.0
C367 C 0.2552 0.01682 0.14171 0.0
C368 C 0.22621 0.99901 0.15054 0.0
C369 C 0.22226 0.96564 0.14004 0.0
H370 H 0.25807 0.04275 0.14955 0.0
H371 H 0.21122 0.72132 0.04248 0.0
H372 H 0.90769 0.7222 0.75695 0.0
H373 H 0.92275 0.71595 0.81753 0.0
H374 H 0.85241 0.79425 0.84389 0.0
H375 H 0.83884 0.80151 0.78356 0.0
H376 H 0.89965 0.79301 0.89027 0.0
H377 H 0.82797 0.71056 0.83478 0.0
H378 H 0.81511 0.66706 0.79171 0.0
H379 H 0.89695 0.60699 0.82853 0.0
H380 H 0.91057 0.65043 0.87153 0.0
H381 H 0.80762 0.7352 0.03604 0.0
H382 H 0.82512 0.75094 0.97792 0.0
H383 H 0.90904 0.68297 0.98462 0.0
H384 H 0.89207 0.66753 0.04285 0.0
H385 H 0.8671 0.67707 0.92356 0.0
H386 H 0.92885 0.75854 0.98843 0.0
H387 H 0.93597 0.80291 0.0319 0.0
H388 H 0.8662 0.86573 0.97803 0.0
H389 H 0.85826 0.82152 0.93449 0.0
C390 C 0.89711 0.73939 0.77554 0.0
C391 C 0.87235 0.76248 0.76576 0.0
C392 C 0.90526 0.73548 0.8102 0.0
C393 C 0.88796 0.75396 0.83539 0.0
C394 C 0.866 0.77955 0.82508 0.0
C395 C 0.85821 0.7837 0.79056 0.0
C396 C 0.88781 0.74332 0.8719 0.0
C397 C 0.8927 0.76763 0.89753 0.0
C398 C 0.87888 0.71012 0.88156 0.0
C399 C 0.87053 0.68387 0.85603 0.0
C400 C 0.84332 0.68814 0.83354 0.0
C401 C 0.8359 0.66352 0.80916 0.0
C402 C 0.85527 0.63433 0.80732 0.0
C403 C 0.88203 0.62966 0.82993 0.0
C404 C 0.88962 0.65427 0.8543 0.0
C405 C 0.82969 0.72353 0.02506 0.0
C406 C 0.84837 0.69997 0.04387 0.0
C407 C 0.83982 0.73274 0.99204 0.0
C408 C 0.86848 0.71824 0.97717 0.0
C409 C 0.88696 0.69453 0.99575 0.0
C410 C 0.87724 0.68579 0.02897 0.0
C411 C 0.8783 0.7269 0.94167 0.0
C412 C 0.87498 0.70221 0.91632 0.0
C413 C 0.88793 0.75985 0.93231 0.0
C414 C 0.89277 0.78659 0.95834 0.0
C415 C 0.9148 0.7817 0.986 0.0
C416 C 0.91903 0.80685 0.01062 0.0
C417 C 0.90149 0.83709 0.00777 0.0
C418 C 0.87975 0.84228 0.98022 0.0
C419 C 0.87541 0.8172 0.95554 0.0
H420 H 0.9048 0.85653 0.02686 0.0
H421 H 0.84949 0.61528 0.78842 0.0
H422 H 0.77457 0.11248 0.23479 0.0
H423 H 0.77137 0.098 0.17431 0.0
H424 H 0.68019 0.15587 0.16566 0.0
H425 H 0.68183 0.1675 0.22678 0.0
H426 H 0.67807 0.10754 0.1213 0.0
H427 H 0.76412 0.19062 0.15535 0.0
H428 H 0.81476 0.20546 0.18854 0.0
H429 H 0.86959 0.12621 0.13915 0.0
H430 H 0.81913 0.11075 0.10592 0.0
H431 H 0.67625 0.19896 0.9698 0.0
H432 H 0.68222 0.18148 0.02914 0.0
H433 H 0.76642 0.11897 0.0017 0.0
H434 H 0.76121 0.13705 0.94196 0.0
H435 H 0.77756 0.15447 0.06122 0.0
H436 H 0.69303 0.08215 0.01639 0.0
H437 H 0.64143 0.06765 0.98481 0.0
H438 H 0.58293 0.1266 0.05498 0.0
H439 H 0.63425 0.14185 0.08671 0.0
C440 C 0.7529 0.12037 0.2206 0.0
C441 C 0.7283 0.14068 0.23577 0.0
C442 C 0.7514 0.11271 0.18567 0.0
C443 C 0.72605 0.12665 0.16513 0.0
C444 C 0.70012 0.14488 0.18082 0.0
C445 C 0.7012 0.15171 0.21578 0.0
C446 C 0.72839 0.12657 0.12717 0.0
C447 C 0.69984 0.11771 0.10815 0.0
C448 C 0.75717 0.13894 0.10981 0.0
C449 C 0.78789 0.14944 0.12834 0.0
C450 C 0.78704 0.17647 0.15152 0.0
C451 C 0.81566 0.18492 0.17038 0.0
C452 C 0.84536 0.16677 0.16597 0.0
C453 C 0.84656 0.14025 0.14253 0.0
C454 C 0.81799 0.13166 0.12364 0.0
C455 C 0.69657 0.18211 0.97628 0.0
C456 C 0.71858 0.16977 0.95105 0.0
C457 C 0.6996 0.17171 0.01025 0.0
C458 C 0.72445 0.14855 0.01971 0.0
C459 C 0.74696 0.13673 0.99486 0.0
C460 C 0.7439 0.14705 0.96077 0.0
C461 C 0.72663 0.13695 0.05569 0.0
C462 C 0.75607 0.14353 0.07422 0.0
C463 C 0.69859 0.12268 0.07262 0.0
C464 C 0.66755 0.11326 0.05385 0.0
C465 C 0.6692 0.09218 0.02498 0.0
C466 C 0.63999 0.08381 0.00706 0.0
C467 C 0.60893 0.09622 0.01786 0.0
C468 C 0.60701 0.11698 0.04665 0.0
C469 C 0.63615 0.12545 0.06465 0.0
H470 H 0.58635 0.08973 0.00394 0.0
H471 H 0.86745 0.17325 0.18069 0.0
H472 H 0.69655 0.25599 0.44546 0.0
H473 H 0.68247 0.28719 0.49767 0.0
H474 H 0.60897 0.2116 0.52398 0.0
H475 H 0.62195 0.18126 0.47142 0.0
H476 H 0.58658 0.27082 0.54314 0.0
H477 H 0.69408 0.21079 0.5542 0.0
H478 H 0.75251 0.19927 0.53656 0.0
H479 H 0.7779 0.30317 0.5515 0.0
H480 H 0.71963 0.31526 0.56898 0.0
H481 H 0.60552 0.23386 0.72023 0.0
H482 H 0.59486 0.24206 0.65903 0.0
H483 H 0.65274 0.33375 0.66129 0.0
H484 H 0.66312 0.3256 0.72242 0.0
H485 H 0.68182 0.28358 0.62369 0.0
H486 H 0.5777 0.33635 0.63335 0.0
H487 H 0.51962 0.34727 0.65168 0.0
H488 H 0.48605 0.25963 0.59747 0.0
H489 H 0.54414 0.24671 0.5808 0.0
C490 C 0.67733 0.24617 0.46238 0.0
C491 C 0.66081 0.21584 0.45476 0.0
C492 C 0.66918 0.26407 0.49211 0.0
C493 C 0.64507 0.25143 0.51515 0.0
C494 C 0.6276 0.22194 0.50668 0.0
C495 C 0.63523 0.20447 0.47671 0.0
C496 C 0.64009 0.26663 0.54956 0.0
C497 C 0.60727 0.27355 0.56095 0.0
C498 C 0.66731 0.27153 0.57227 0.0
C499 C 0.70249 0.26398 0.56253 0.0
C500 C 0.71216 0.23115 0.55363 0.0
C501 C 0.74524 0.22452 0.54367 0.0
C502 C 0.76893 0.25048 0.54282 0.0
C503 C 0.7596 0.28307 0.55213 0.0
C504 C 0.72656 0.28982 0.56209 0.0
C505 C 0.6141 0.25678 0.70804 0.0
C506 C 0.63498 0.27919 0.72573 0.0
C507 C 0.60818 0.26141 0.67306 0.0
C508 C 0.62341 0.28831 0.65557 0.0
C509 C 0.64083 0.31283 0.6743 0.0
C510 C 0.64657 0.30828 0.70921 0.0
C511 C 0.62803 0.28623 0.61799 0.0
C512 C 0.66095 0.28169 0.60594 0.0
C513 C 0.60079 0.28334 0.595 0.0
C514 C 0.56564 0.29034 0.60599 0.0
C515 C 0.55814 0.31889 0.62594 0.0
C516 C 0.52512 0.32542 0.63614 0.0
C517 C 0.49916 0.30403 0.62598 0.0
C518 C 0.50621 0.27597 0.60572 0.0
C519 C 0.53924 0.26894 0.59601 0.0
H520 H 0.47358 0.30928 0.63364 0.0
H521 H 0.7945 0.24533 0.53501 0.0
H522 H 0.20644 0.30566 0.51618 0.0
H523 H 0.23331 0.32181 0.46272 0.0
H524 H 0.26771 0.41416 0.50881 0.0
H525 H 0.24074 0.39817 0.56274 0.0
H526 H 0.23981 0.4262 0.44842 0.0
H527 H 0.32455 0.35333 0.48881 0.0
H528 H 0.34796 0.30205 0.51487 0.0
H529 H 0.30998 0.24301 0.4314 0.0
H530 H 0.28592 0.29383 0.40505 0.0
H531 H 0.33225 0.37038 0.27563 0.0
H532 H 0.33495 0.38576 0.33628 0.0
H533 H 0.22765 0.40178 0.33634 0.0
H534 H 0.22576 0.38906 0.27544 0.0
H535 H 0.30987 0.34796 0.38019 0.0
H536 H 0.19823 0.44147 0.40412 0.0
H537 H 0.17533 0.49236 0.37697 0.0
H538 H 0.27143 0.51337 0.33203 0.0
H539 H 0.29531 0.46341 0.35968 0.0
C540 C 0.22048 0.32896 0.51543 0.0
C541 C 0.2218 0.3504 0.544 0.0
C542 C 0.23576 0.33826 0.48469 0.0
C543 C 0.25292 0.36901 0.48191 0.0
C544 C 0.25471 0.39028 0.51045 0.0
C545 C 0.23931 0.38106 0.54122 0.0
C546 C 0.26702 0.37948 0.44843 0.0
C547 C 0.25551 0.40942 0.43351 0.0
C548 C 0.28848 0.35813 0.42956 0.0
C549 C 0.30338 0.32745 0.44498 0.0
C550 C 0.32108 0.3294 0.47607 0.0
C551 C 0.33446 0.3004 0.4909 0.0
C552 C 0.33046 0.26929 0.47481 0.0
C553 C 0.31311 0.26713 0.44381 0.0
C554 C 0.29965 0.29605 0.42887 0.0
C555 C 0.30979 0.37949 0.28824 0.0
C556 C 0.27897 0.37957 0.27101 0.0
C557 C 0.31118 0.38772 0.32299 0.0
C558 C 0.28153 0.39499 0.34112 0.0
C559 C 0.25108 0.39722 0.32305 0.0
C560 C 0.2499 0.38985 0.28819 0.0
C561 C 0.281 0.39382 0.37916 0.0
C562 C 0.29508 0.36551 0.39514 0.0
C563 C 0.2623 0.41699 0.39903 0.0
C564 C 0.24857 0.44842 0.38392 0.0
C565 C 0.21467 0.45718 0.38884 0.0
C566 C 0.20147 0.48587 0.37324 0.0
C567 C 0.22185 0.50599 0.35255 0.0
C568 C 0.25557 0.49765 0.34775 0.0
C569 C 0.26901 0.46923 0.36354 0.0
H570 H 0.21159 0.52815 0.34041 0.0
H571 H 0.3408 0.24687 0.48635 0.0
H572 H 0.37535 0.74646 0.4469 0.0
H573 H 0.3937 0.73386 0.50555 0.0
H574 H 0.34801 0.82569 0.541 0.0
H575 H 0.32919 0.83816 0.48278 0.0
H576 H 0.41802 0.81245 0.5638 0.0
H577 H 0.30654 0.76065 0.5552 0.0
H578 H 0.26559 0.72177 0.52914 0.0
H579 H 0.33161 0.63872 0.54852 0.0
H580 H 0.37315 0.67726 0.57432 0.0
H581 H 0.36278 0.82029 0.73057 0.0
H582 H 0.37978 0.81914 0.67072 0.0
H583 H 0.40637 0.71441 0.68048 0.0
H584 H 0.38841 0.71566 0.74074 0.0
H585 H 0.36233 0.72272 0.63142 0.0
H586 H 0.46652 0.77304 0.65492 0.0
H587 H 0.50746 0.81161 0.68145 0.0
H588 H 0.4586 0.89585 0.63457 0.0
H589 H 0.41706 0.85799 0.60812 0.0
C590 C 0.36906 0.76379 0.46731 0.0
C591 C 0.3504 0.79299 0.46045 0.0
C592 C 0.37964 0.75664 0.50064 0.0
C593 C 0.3723 0.77896 0.52739 0.0
C594 C 0.35399 0.80826 0.52056 0.0
C595 C 0.34288 0.81511 0.48742 0.0
C596 C 0.38264 0.77157 0.56289 0.0
C597 C 0.40604 0.79283 0.57875 0.0
C598 C 0.36807 0.74496 0.58166 0.0
C599 C 0.34312 0.72186 0.56621 0.0
C600 C 0.31246 0.73415 0.55358 0.0
C601 C 0.28911 0.71217 0.53894 0.0
C602 C 0.29605 0.67781 0.53705 0.0
C603 C 0.32631 0.66535 0.54992 0.0
C604 C 0.34975 0.68724 0.56455 0.0
C605 C 0.37359 0.79744 0.72025 0.0
C606 C 0.37495 0.76822 0.74012 0.0
C607 C 0.38348 0.79678 0.68607 0.0
C608 C 0.39473 0.76676 0.67106 0.0
C609 C 0.39811 0.73793 0.6916 0.0
C610 C 0.38823 0.73868 0.72603 0.0
C611 C 0.39672 0.76467 0.63319 0.0
C612 C 0.37551 0.74164 0.61656 0.0
C613 C 0.4136 0.78951 0.6137 0.0
C614 C 0.43857 0.81257 0.62952 0.0
C615 C 0.46434 0.7998 0.65042 0.0
C616 C 0.48769 0.82154 0.66543 0.0
C617 C 0.48562 0.85612 0.65971 0.0
C618 C 0.46021 0.86905 0.63893 0.0
C619 C 0.43679 0.84744 0.62384 0.0
H620 H 0.50372 0.87289 0.67137 0.0
H621 H 0.27794 0.66083 0.52572 0.0
H622 H 0.83565 0.60153 0.55081 0.0
H623 H 0.82268 0.58329 0.49236 0.0
H624 H 0.75509 0.667 0.48078 0.0
H625 H 0.76844 0.68584 0.53904 0.0
H626 H 0.73308 0.59706 0.45321 0.0
H627 H 0.82324 0.6821 0.45158 0.0
H628 H 0.87856 0.7033 0.4701 0.0
H629 H 0.92531 0.61292 0.43366 0.0
H630 H 0.8701 0.59098 0.41543 0.0
H631 H 0.71368 0.65999 0.28943 0.0
H632 H 0.7202 0.64165 0.34848 0.0
H633 H 0.8065 0.58246 0.31948 0.0
H634 H 0.80039 0.60199 0.26006 0.0
H635 H 0.82259 0.62315 0.36869 0.0
H636 H 0.7354 0.54505 0.35527 0.0
H637 H 0.68086 0.52348 0.33502 0.0
H638 H 0.62935 0.595 0.39832 0.0
H639 H 0.68352 0.61746 0.41861 0.0
C640 C 0.8177 0.61581 0.53595 0.0
C641 C 0.80337 0.64534 0.54925 0.0
C642 C 0.81028 0.6053 0.50267 0.0
C643 C 0.78788 0.62375 0.48246 0.0
C644 C 0.7723 0.65236 0.49619 0.0
C645 C 0.78022 0.66329 0.52924 0.0
C646 C 0.7834 0.61546 0.44587 0.0
C647 C 0.75251 0.60265 0.43457 0.0
C648 C 0.8094 0.62139 0.42197 0.0
C649 C 0.84255 0.63473 0.43259 0.0
C650 C 0.84528 0.66663 0.44783 0.0
C651 C 0.87661 0.6788 0.45821 0.0
C652 C 0.90542 0.65942 0.45317 0.0
C653 C 0.90296 0.62787 0.43763 0.0
C654 C 0.87167 0.61556 0.42727 0.0
C655 C 0.73327 0.64208 0.29551 0.0
C656 C 0.75635 0.63205 0.27045 0.0
C657 C 0.73692 0.63142 0.32924 0.0
C658 C 0.76374 0.61043 0.33852 0.0
C659 C 0.78556 0.59854 0.3129 0.0
C660 C 0.78192 0.6094 0.279 0.0
C661 C 0.7716 0.60584 0.37539 0.0
C662 C 0.80327 0.61635 0.38705 0.0
C663 C 0.74644 0.59721 0.39953 0.0
C664 C 0.71364 0.58302 0.38845 0.0
C665 C 0.71247 0.55627 0.36485 0.0
C666 C 0.68162 0.54391 0.35332 0.0
C667 C 0.65176 0.55795 0.36535 0.0
C668 C 0.65258 0.58419 0.38908 0.0
C669 C 0.68336 0.59669 0.40068 0.0
H670 H 0.62796 0.5485 0.35633 0.0
H671 H 0.92966 0.66888 0.46122 0.0
H672 H 0.52442 0.25382 0.86722 0.0
H673 H 0.48231 0.25855 0.91229 0.0
H674 H 0.56026 0.25724 0.9888 0.0
H675 H 0.60285 0.25198 0.94361 0.0
H676 H 0.50261 0.22352 0.01038 0.0
H677 H 0.53125 0.33043 0.96331 0.0
H678 H 0.54163 0.37115 0.91689 0.0
H679 H 0.43905 0.36213 0.88438 0.0
H680 H 0.42818 0.32092 0.93033 0.0
H681 H 0.40121 0.30665 0.13757 0.0
H682 H 0.44592 0.29051 0.09777 0.0
H683 H 0.37491 0.29042 0.01451 0.0
H684 H 0.33012 0.30656 0.05402 0.0
H685 H 0.43181 0.32541 0.99876 0.0
H686 H 0.40408 0.21751 0.04717 0.0
H687 H 0.39527 0.17691 0.09403 0.0
H688 H 0.4978 0.1892 0.12562 0.0
H689 H 0.50709 0.23028 0.07924 0.0
C690 C 0.53269 0.2539 0.89364 0.0
C691 C 0.56709 0.25296 0.90176 0.0
C692 C 0.50853 0.25669 0.9194 0.0
C693 C 0.51816 0.25903 0.95388 0.0
C694 C 0.55228 0.25567 0.96234 0.0
C695 C 0.57659 0.25263 0.93647 0.0
C696 C 0.49278 0.26779 0.9804 0.0
C697 C 0.48741 0.24601 0.00814 0.0
C698 C 0.47278 0.29705 0.97734 0.0
C699 C 0.47898 0.32239 0.95011 0.0
C700 C 0.51095 0.33701 0.94616 0.0
C701 C 0.51692 0.36018 0.91994 0.0
C702 C 0.49102 0.36918 0.89767 0.0
C703 C 0.45908 0.35511 0.90165 0.0
C704 C 0.45299 0.33187 0.9278 0.0
C705 C 0.395 0.30286 0.11086 0.0
C706 C 0.36201 0.30786 0.09904 0.0
C707 C 0.42062 0.29357 0.08814 0.0
C708 C 0.41377 0.28909 0.05315 0.0
C709 C 0.38081 0.29374 0.04138 0.0
C710 C 0.35518 0.30287 0.06406 0.0
C711 C 0.44108 0.28081 0.02848 0.0
C712 C 0.44697 0.3029 1.0011 0.0
C713 C 0.4617 0.25204 0.03215 0.0
C714 C 0.45618 0.22725 0.05996 0.0
C715 C 0.42467 0.21178 0.06429 0.0
C716 C 0.4196 0.18864 0.09073 0.0
C717 C 0.44593 0.18056 0.11285 0.0
C718 C 0.47741 0.19553 0.1085 0.0
C719 C 0.4826 0.21873 0.08213 0.0
H720 H 0.44195 0.16263 0.1333 0.0
H721 H 0.4957 0.38711 0.87737 0.0
H722 H 0.26945 0.49391 0.13228 0.0
H723 H 0.26843 0.53738 0.08851 0.0
H724 H 0.25646 0.46183 0.01027 0.0
H725 H 0.25793 0.41775 0.05418 0.0
H726 H 0.30535 0.50601 0.99359 0.0
H727 H 0.19157 0.51452 0.03111 0.0
H728 H 0.14533 0.51944 0.07285 0.0
H729 H 0.18444 0.61428 0.10704 0.0
H730 H 0.23119 0.60973 0.06584 0.0
H731 H 0.29164 0.63198 0.86606 0.0
H732 H 0.27627 0.58493 0.90317 0.0
H733 H 0.28613 0.64882 0.99183 0.0
H734 H 0.30086 0.69617 0.95487 0.0
H735 H 0.23325 0.60746 0.99884 0.0
H736 H 0.34949 0.59641 0.96629 0.0
H737 H 0.39599 0.59273 0.9247 0.0
H738 H 0.35285 0.50306 0.8821 0.0
H739 H 0.30572 0.50657 0.92306 0.0
C740 C 0.26619 0.48639 0.10583 0.0
C741 C 0.26384 0.4522 0.09682 0.0
C742 C 0.26544 0.51141 0.08077 0.0
C743 C 0.2621 0.503 0.04604 0.0
C744 C 0.25899 0.46896 0.03691 0.0
C745 C 0.25965 0.44379 0.06207 0.0
C746 C 0.26388 0.5298 0.01943 0.0
C747 C 0.28908 0.52784 0.9943 0.0
C748 C 0.24322 0.55874 0.02077 0.0
C749 C 0.21504 0.56165 0.04552 0.0
C750 C 0.19046 0.53631 0.0477 0.0
C751 C 0.16412 0.53906 0.07124 0.0
C752 C 0.16198 0.56712 0.09263 0.0
C753 C 0.18613 0.59254 0.09047 0.0
C754 C 0.21253 0.58992 0.06699 0.0
C755 C 0.29015 0.63617 0.89342 0.0
C756 C 0.29777 0.66783 0.90749 0.0
C757 C 0.28148 0.60916 0.91464 0.0
C758 C 0.28058 0.61314 0.95038 0.0
C759 C 0.28674 0.64508 0.96436 0.0
C760 C 0.29527 0.67213 0.94316 0.0
C761 C 0.27493 0.58379 0.97337 0.0
C762 C 0.24914 0.58536 0.99786 0.0
C763 C 0.29515 0.55456 0.97158 0.0
C764 C 0.32389 0.55196 0.94749 0.0
C765 C 0.34981 0.57602 0.94792 0.0
C766 C 0.37628 0.57397 0.92446 0.0
C767 C 0.37733 0.54774 0.9007 0.0
C768 C 0.35197 0.52341 0.90047 0.0
C769 C 0.32537 0.52541 0.9238 0.0
H770 H 0.39781 0.54622 0.88253 0.0
H771 H 0.14158 0.56919 0.11084 0.0
H772 H 0.48925 0.77093 0.87624 0.0
H773 H 0.53489 0.7679 0.91756 0.0
H774 H 0.4633 0.75357 0.99921 0.0
H775 H 0.41707 0.75699 0.95781 0.0
H776 H 0.5165 0.79543 0.01786 0.0
H777 H 0.50292 0.68645 0.96381 0.0
H778 H 0.49847 0.64924 0.91349 0.0
H779 H 0.59673 0.67974 0.88028 0.0
H780 H 0.6016 0.71746 0.93022 0.0
H781 H 0.62559 0.71938 0.14004 0.0
H782 H 0.58126 0.737 0.10081 0.0
H783 H 0.65254 0.73865 0.01756 0.0
H784 H 0.69698 0.72074 0.05664 0.0
H785 H 0.59982 0.70475 0.99896 0.0
H786 H 0.61504 0.8144 0.04524 0.0
H787 H 0.6202 0.86055 0.08711 0.0
H788 H 0.52386 0.83511 0.12937 0.0
H789 H 0.51794 0.78908 0.0874 0.0
C790 C 0.48303 0.76745 0.90301 0.0
C791 C 0.4494 0.76378 0.9136 0.0
C792 C 0.50926 0.76565 0.92663 0.0
C793 C 0.50261 0.75975 0.9614 0.0
C794 C 0.46904 0.7579 0.97245 0.0
C795 C 0.44263 0.75989 0.94876 0.0
C796 C 0.5308 0.75395 0.98573 0.0
C797 C 0.53442 0.77526 0.01411 0.0
C798 C 0.555 0.72848 0.98004 0.0
C799 C 0.55252 0.70494 0.95064 0.0
C800 C 0.52353 0.68529 0.94573 0.0
C801 C 0.52093 0.66412 0.91727 0.0
C802 C 0.54727 0.66217 0.89367 0.0
C803 C 0.57635 0.68127 0.89858 0.0
C804 C 0.57906 0.70251 0.92699 0.0
C805 C 0.632 0.72395 0.11349 0.0
C806 C 0.66491 0.71849 0.10151 0.0
C807 C 0.60658 0.73425 0.09105 0.0
C808 C 0.61343 0.73935 0.05611 0.0
C809 C 0.64651 0.73487 0.04434 0.0
C810 C 0.67195 0.72463 0.06676 0.0
C811 C 0.58564 0.74622 0.03144 0.0
C812 C 0.58196 0.72493 0.00295 0.0
C813 C 0.56183 0.77215 0.03663 0.0
C814 C 0.56622 0.79812 0.06344 0.0
C815 C 0.5951 0.81846 0.06368 0.0
C816 C 0.598 0.84482 0.08716 0.0
C817 C 0.57233 0.85082 0.11082 0.0
C818 C 0.5437 0.83047 0.111 0.0
C819 C 0.54049 0.80435 0.08728 0.0
H820 H 0.57473 0.8711 0.12913 0.0
H821 H 0.54518 0.64584 0.8716 0.0
H822 H 0.70204 0.32201 0.93939 0.0
H823 H 0.71087 0.36879 0.9787 0.0
H824 H 0.72445 0.43604 0.89323 0.0
H825 H 0.7156 0.38913 0.85343 0.0
H826 H 0.76971 0.44865 0.94649 0.0
H827 H 0.65185 0.43565 0.93177 0.0
H828 H 0.59837 0.40454 0.92899 0.0
H829 H 0.60806 0.37734 0.0349 0.0
H830 H 0.66199 0.40778 0.03817 0.0
H831 H 0.74761 0.59453 0.05279 0.0
H832 H 0.74207 0.5527 0.00712 0.0
H833 H 0.72212 0.47592 0.08238 0.0
H834 H 0.72728 0.51742 0.12806 0.0
H835 H 0.67848 0.47178 0.0299 0.0
H836 H 0.7988 0.48256 0.0425 0.0
H837 H 0.85245 0.51358 0.04397 0.0
H838 H 0.83703 0.54639 0.94044 0.0
H839 H 0.78305 0.51588 0.93852 0.0
C840 C 0.70719 0.34665 0.92881 0.0
C841 C 0.70787 0.35181 0.89318 0.0
C842 C 0.71216 0.37342 0.95139 0.0
C843 C 0.71785 0.40603 0.93894 0.0
C844 C 0.71999 0.41111 0.90341 0.0
C845 C 0.71487 0.38426 0.88071 0.0
C846 C 0.72007 0.43477 0.96324 0.0
C847 C 0.74957 0.45409 0.96438 0.0
C848 C 0.69389 0.4417 0.98678 0.0
C849 C 0.66114 0.4238 0.98514 0.0
C850 C 0.64272 0.42285 0.95442 0.0
C851 C 0.6123 0.40533 0.95275 0.0
C852 C 0.59984 0.38892 0.98174 0.0
C853 C 0.61776 0.39005 0.01247 0.0
C854 C 0.64825 0.40745 0.01425 0.0
C855 C 0.74213 0.56873 0.05967 0.0
C856 C 0.73794 0.55945 0.09422 0.0
C857 C 0.73907 0.5448 0.03349 0.0
C858 C 0.73188 0.51105 0.04127 0.0
C859 C 0.72762 0.50177 0.07568 0.0
C860 C 0.73071 0.5256 0.10183 0.0
C861 C 0.72846 0.48529 0.01374 0.0
C862 C 0.69858 0.46654 0.01191 0.0
C863 C 0.7542 0.4791 0.98944 0.0
C864 C 0.78673 0.49725 0.9905 0.0
C865 C 0.80673 0.4966 0.02014 0.0
C866 C 0.83722 0.51405 0.02104 0.0
C867 C 0.84809 0.53203 0.99235 0.0
C868 C 0.82855 0.5325 0.96266 0.0
C869 C 0.79803 0.51511 0.96164 0.0
H870 H 0.8717 0.54553 0.9931 0.0
H871 H 0.57629 0.37539 0.98042 0.0
H872 H 0.8144 0.20616 0.452 0.0
H873 H 0.85999 0.21819 0.49184 0.0
H874 H 0.93024 0.22122 0.40763 0.0
H875 H 0.88483 0.20766 0.36784 0.0
H876 H 0.95539 0.18452 0.45456 0.0
H877 H 0.90564 0.29463 0.45756 0.0
H878 H 0.85928 0.33531 0.46373 0.0
H879 H 0.84095 0.30035 0.56609 0.0
H880 H 0.8868 0.25916 0.56028 0.0
H881 H 0.0937 0.24371 0.55384 0.0
H882 H 0.04785 0.23875 0.5125 0.0
H883 H 0.97738 0.22411 0.59512 0.0
H884 H 0.02296 0.22926 0.63664 0.0
H885 H 0.95308 0.26807 0.54874 0.0
H886 H 1.00233 0.15813 0.54568 0.0
H887 H 0.04739 0.11615 0.53928 0.0
H888 H 0.06677 0.15092 0.43706 0.0
H889 H 0.02199 0.19335 0.44297 0.0
C890 C 0.83944 0.21001 0.44185 0.0
C891 C 0.84597 0.20574 0.4067 0.0
C892 C 0.8656 0.21705 0.46473 0.0
C893 C 0.89881 0.22085 0.45294 0.0
C894 C 0.905 0.21822 0.41757 0.0
C895 C 0.87895 0.21062 0.39476 0.0
C896 C 0.92736 0.22501 0.47752 0.0
C897 C 0.95508 0.20331 0.47469 0.0
C898 C 0.9268 0.2487 0.50465 0.0
C899 C 0.89937 0.2736 0.50831 0.0
C900 C 0.89146 0.29544 0.48123 0.0
C901 C 0.86531 0.31859 0.48468 0.0
C902 C 0.84704 0.32028 0.5152 0.0
C903 C 0.85502 0.29895 0.54241 0.0
C904 C 0.88111 0.27572 0.53906 0.0
C905 C 0.06848 0.23934 0.56327 0.0
C906 C 0.06216 0.23682 0.59867 0.0
C907 C 0.04226 0.23639 0.53955 0.0
C908 C 0.00909 0.23082 0.5506 0.0
C909 C 1.00269 0.22842 0.5859 0.0
C910 C 0.02889 0.23122 0.60963 0.0
C911 C 0.98104 0.2278 0.52546 0.0
C912 C 0.95343 0.24957 0.52833 0.0
C913 C 0.9817 0.20422 0.49832 0.0
C914 C 0.00899 0.1791 0.49488 0.0
C915 C 0.01639 0.15702 0.52195 0.0
C916 C 0.04181 0.13308 0.51837 0.0
C917 C 0.05986 0.13083 0.48775 0.0
C918 C 0.05268 0.15264 0.46072 0.0
C919 C 0.02727 0.17662 0.46416 0.0
H920 H 0.07942 0.11217 0.48498 0.0
H921 H 0.82679 0.33821 0.51781 0.0
H922 H 0.23126 0.19977 0.5623 0.0
H923 H 0.25233 0.15428 0.52588 0.0
H924 H 0.20841 0.08112 0.594 0.0
H925 H 0.18715 0.12637 0.63044 0.0
H926 H 0.27198 0.06144 0.56836 0.0
H927 H 0.16644 0.10466 0.52778 0.0
H928 H 0.12842 0.14963 0.50864 0.0
H929 H 0.19314 0.17023 0.42315 0.0
H930 H 0.23234 0.12625 0.44259 0.0
H931 H 0.25392 0.92014 0.45641 0.0
H932 H 0.2498 0.96564 0.49835 0.0
H933 H 0.27497 0.03772 0.41979 0.0
H934 H 0.27762 0.99252 0.37763 0.0
H935 H 0.22371 0.05931 0.45137 0.0
H936 H 0.32909 0.01578 0.4902 0.0
H937 H 0.3687 0.97241 0.51004 0.0
H938 H 0.30598 0.95265 0.59729 0.0
H939 H 0.26575 0.99562 0.57774 0.0
C940 C 0.2266 0.17401 0.56989 0.0
C941 C 0.20722 0.16673 0.59912 0.0
C942 C 0.23861 0.14802 0.54899 0.0
C943 C 0.23164 0.11428 0.55702 0.0
C944 C 0.21408 0.10693 0.58729 0.0
C945 C 0.2018 0.13287 0.608 0.0
C946 C 0.23993 0.08688 0.53247 0.0
C947 C 0.26134 0.06079 0.54282 0.0
C948 C 0.22644 0.08634 0.49896 0.0
C949 C 0.20256 0.1124 0.48689 0.0
C950 C 0.17277 0.11899 0.50509 0.0
C951 C 0.15097 0.14429 0.49417 0.0
C952 C 0.15828 0.16271 0.46464 0.0
C953 C 0.1875 0.15595 0.44603 0.0
C954 C 0.20959 0.13091 0.45706 0.0
C955 C 0.25935 0.9456 0.44829 0.0
C956 C 0.2661 0.95269 0.41368 0.0
C957 C 0.25702 0.9717 0.47234 0.0
C958 C 0.2622 1.00535 0.46246 0.0
C959 C 0.27063 0.01213 0.42818 0.0
C960 C 0.27235 0.98619 0.40408 0.0
C961 C 0.25627 0.0337 0.4869 0.0
C962 C 0.23491 0.05997 0.47667 0.0
C963 C 0.27 0.03443 0.52039 0.0
C964 C 0.29426 0.00873 0.53233 0.0
C965 C 0.32362 1.00203 0.5135 0.0
C966 C 0.34621 0.97754 0.52471 0.0
C967 C 0.33982 0.95973 0.55486 0.0
C968 C 0.31088 0.96645 0.57392 0.0
C969 C 0.2882 0.99089 0.56281 0.0
H970 H 0.35733 0.94077 0.56348 0.0
H971 H 0.14129 0.18221 0.45617 0.0
H972 H 0.19539 0.80178 0.45139 0.0
H973 H 0.14831 0.78417 0.48735 0.0
H974 H 0.08091 0.7952 0.40173 0.0
H975 H 0.12782 0.81348 0.36572 0.0
H976 H 0.05425 0.82253 0.45751 0.0
H977 H 0.10488 0.71685 0.4309 0.0
H978 H 0.15134 0.67629 0.42558 0.0
H979 H 0.16841 0.68151 0.53399 0.0
H980 H 0.12231 0.72245 0.53992 0.0
H981 H 0.91734 0.74987 0.54805 0.0
H982 H 0.96158 0.75504 0.50467 0.0
H983 H 0.03677 0.7545 0.58401 0.0
H984 H 0.99293 0.74922 0.62741 0.0
H985 H 0.05691 0.71844 0.52739 0.0
H986 H 0.00985 0.82732 0.55292 0.0
H987 H 0.96358 0.86804 0.55878 0.0
H988 H 0.94009 0.85668 0.45212 0.0
H989 H 0.98593 0.81545 0.44576 0.0
C990 C 0.17061 0.80023 0.44009 0.0
C991 C 0.16546 0.8089 0.40558 0.0
C992 C 0.14368 0.79001 0.46069 0.0
C993 C 0.11103 0.78791 0.4472 0.0
C994 C 0.10584 0.7965 0.41273 0.0
C995 C 0.13276 0.8068 0.39212 0.0
C996 C 0.08225 0.77773 0.46937 0.0
C997 C 0.05459 0.79943 0.47225 0.0
C998 C 0.08282 0.74789 0.48918 0.0
C999 C 0.11028 0.72292 0.48581 0.0
C1000 C 0.11866 0.7095 0.45359 0.0
C1001 C 0.14492 0.68641 0.45047 0.0
C1002 C 0.16286 0.67638 0.47942 0.0
C1003 C 0.1545 0.68932 0.51158 0.0
C1004 C 0.12827 0.71242 0.51485 0.0
C1005 C 0.94331 0.75022 0.55624 0.0
C1006 C 0.95152 0.74946 0.59128 0.0
C1007 C 0.96857 0.75334 0.53141 0.0
C1008 C 1.00248 0.75564 0.54113 0.0
C1009 C 0.01081 0.75287 0.5759 0.0
C1010 C 0.98564 0.74997 0.60071 0.0
C1011 C 0.02917 0.76333 0.51558 0.0
C1012 C 0.05644 0.74126 0.51221 0.0
C1013 C 0.02827 0.79282 0.49531 0.0
C1014 C 1.00107 0.81801 0.49895 0.0
C1015 C 0.99467 0.83333 0.53077 0.0
C1016 C 0.96854 0.85652 0.53418 0.0
C1017 C 0.94883 0.86486 0.50586 0.0
C1018 C 0.95532 0.85013 0.47405 0.0
C1019 C 0.98138 0.82686 0.47052 0.0
H1020 H 0.92859 0.8828 0.50856 0.0
H1021 H 0.1832 0.65853 0.47695 0.0
H1022 H 0.79849 0.02166 0.36365 0.0
H1023 H 0.80291 0.9746 0.4034 0.0
H1024 H 0.7644 0.03676 0.48492 0.0
H1025 H 0.76063 0.08436 0.44544 0.0
H1026 H 0.8154 0.9981 0.50727 0.0
H1027 H 0.71377 0.97937 0.44203 0.0
H1028 H 0.68215 0.97397 0.38802 0.0
H1029 H 0.74347 0.89014 0.35857 0.0
H1030 H 0.77571 0.89528 0.41226 0.0
H1031 H 0.77833 0.86864 0.62407 0.0
H1032 H 0.77023 0.91483 0.58368 0.0
H1033 H 0.80831 0.85299 0.50172 0.0
H1034 H 0.81601 0.80647 0.54183 0.0
H1035 H 0.75702 0.89123 0.47943 0.0
H1036 H 0.86096 0.91077 0.53841 0.0
H1037 H 0.89688 0.91523 0.58963 0.0
H1038 H 0.83528 0.99525 0.62815 0.0
H1039 H 0.79913 0.99145 0.57693 0.0
C1040 C 0.79111 0.02548 0.39007 0.0
C1041 C 0.77899 0.05686 0.40123 0.0
C1042 C 0.7935 0.99842 0.41277 0.0
C1043 C 0.78338 1.00188 0.44706 0.0
C1044 C 0.77221 0.0334 0.45856 0.0
C1045 C 0.77002 0.0606 0.4359 0.0
C1046 C 0.78392 0.97251 0.47074 0.0
C1047 C 0.80217 0.97496 0.50139 0.0
C1048 C 0.76754 0.94183 0.4627 0.0
C1049 C 0.74728 0.93785 0.43107 0.0
C1050 C 0.72054 0.95982 0.42401 0.0
C1051 C 0.70252 0.95682 0.39345 0.0
C1052 C 0.71084 0.93177 0.36985 0.0
C1053 C 0.73706 0.90953 0.37687 0.0
C1054 C 0.75517 0.91244 0.4074 0.0
C1055 C 0.78457 0.86467 0.59737 0.0
C1056 C 0.79816 0.83392 0.5863 0.0
C1057 C 0.78009 0.8912 0.57431 0.0
C1058 C 0.78933 0.88766 0.53974 0.0
C1059 C 0.80116 0.85641 0.52826 0.0
C1060 C 0.80555 0.82981 0.55129 0.0
C1061 C 0.78822 0.91699 0.51604 0.0
C1062 C 0.77 0.91449 0.48538 0.0
C1063 C 0.80501 0.94747 0.52376 0.0
C1064 C 0.82719 0.95062 0.55405 0.0
C1065 C 0.85508 0.9293 0.55783 0.0
C1066 C 0.87551 0.93177 0.58679 0.0
C1067 C 0.8682 0.95534 0.61224 0.0
C1068 C 0.84081 0.97693 0.60847 0.0
C1069 C 0.82045 0.97476 0.57939 0.0
H1070 H 0.88374 0.95683 0.63489 0.0
H1071 H 0.69696 0.92957 0.34614 0.0
H1072 H 0.38299 0.43426 0.28296 0.0
H1073 H 0.42291 0.45844 0.32224 0.0
H1074 H 0.50468 0.42071 0.2611 0.0
H1075 H 0.46516 0.39573 0.22134 0.0
H1076 H 0.52128 0.43061 0.33304 0.0
H1077 H 0.46699 0.49163 0.23391 0.0
H1078 H 0.41518 0.51179 0.206 0.0
H1079 H 0.38541 0.56076 0.29925 0.0
H1080 H 0.43686 0.54043 0.32772 0.0
H1081 H 0.64184 0.52396 0.256 0.0
H1082 H 0.60126 0.49006 0.28671 0.0
H1083 H 0.55364 0.58004 0.3251 0.0
H1084 H 0.59357 0.61421 0.29258 0.0
H1085 H 0.51044 0.54895 0.29502 0.0
H1086 H 0.58124 0.51221 0.38002 0.0
H1087 H 0.63195 0.49315 0.4103 0.0
H1088 H 0.62928 0.39993 0.35514 0.0
H1089 H 0.57957 0.41896 0.32325 0.0
C1090 C 0.40923 0.42995 0.27777 0.0
C1091 C 0.42054 0.41417 0.24742 0.0
C1092 C 0.43216 0.44365 0.30093 0.0
C1093 C 0.46665 0.44204 0.29412 0.0
C1094 C 0.47807 0.42241 0.26671 0.0
C1095 C 0.45526 0.40857 0.2436 0.0
C1096 C 0.48984 0.46726 0.30868 0.0
C1097 C 0.51916 0.45667 0.3253 0.0
C1098 C 0.48591 0.50155 0.30029 0.0
C1099 C 0.45549 0.51438 0.28294 0.0
C1100 C 0.44932 0.50667 0.24839 0.0
C1101 C 0.42002 0.51806 0.23251 0.0
C1102 C 0.39698 0.5375 0.25084 0.0
C1103 C 0.40322 0.54564 0.28508 0.0
C1104 C 0.43242 0.53418 0.30111 0.0
C1105 C 0.62352 0.53659 0.27197 0.0
C1106 C 0.62048 0.57174 0.27149 0.0
C1107 C 0.60033 0.51706 0.28993 0.0
C1108 C 0.57405 0.53232 0.30832 0.0
C1109 C 0.57337 0.56758 0.31084 0.0
C1110 C 0.59613 0.58712 0.29221 0.0
C1111 C 0.54382 0.51213 0.31731 0.0
C1112 C 0.51279 0.52358 0.30486 0.0
C1113 C 0.54617 0.47898 0.33043 0.0
C1114 C 0.57663 0.46726 0.34895 0.0
C1115 C 0.59174 0.48785 0.37387 0.0
C1116 C 0.62039 0.47706 0.39131 0.0
C1117 C 0.634 0.44546 0.38443 0.0
C1118 C 0.61893 0.42457 0.36015 0.0
C1119 C 0.59049 0.43538 0.34235 0.0
H1120 H 0.65611 0.43709 0.39804 0.0
H1121 H 0.37435 0.54633 0.23848 0.0
H1122 H 0.48155 0.63454 0.77689 0.0
H1123 H 0.51043 0.59101 0.74471 0.0
H1124 H 0.41514 0.54729 0.71628 0.0
H1125 H 0.38622 0.58948 0.7514 0.0
H1126 H 0.4497 0.50149 0.73757 0.0
H1127 H 0.47581 0.58143 0.65497 0.0
H1128 H 0.49223 0.63547 0.62909 0.0
H1129 H 0.5912 0.62583 0.67131 0.0
H1130 H 0.57517 0.57242 0.69852 0.0
H1131 H 0.56526 0.37461 0.72522 0.0
H1132 H 0.53376 0.4153 0.69274 0.0
H1133 H 0.5831 0.4959 0.74671 0.0
H1134 H 0.61617 0.45558 0.77863 0.0
H1135 H 0.56097 0.51576 0.68222 0.0
H1136 H 0.51476 0.45191 0.78445 0.0
H1137 H 0.49849 0.39726 0.80954 0.0
H1138 H 0.43582 0.37677 0.72255 0.0
H1139 H 0.45207 0.43119 0.69685 0.0
C1140 C 0.46679 0.6161 0.76305 0.0
C1141 C 0.43178 0.61517 0.76645 0.0
C1142 C 0.4833 0.59148 0.74414 0.0
C1143 C 0.46511 0.56621 0.7271 0.0
C1144 C 0.42982 0.56654 0.72895 0.0
C1145 C 0.41331 0.59056 0.74895 0.0
C1146 C 0.48337 0.5367 0.71297 0.0
C1147 C 0.47337 0.50466 0.72417 0.0
C1148 C 0.51419 0.54026 0.69501 0.0
C1149 C 0.52421 0.57263 0.67875 0.0
C1150 C 0.50102 0.59089 0.65899 0.0
C1151 C 0.51025 0.62152 0.64413 0.0
C1152 C 0.54273 0.63409 0.64857 0.0
C1153 C 0.56605 0.61605 0.66785 0.0
C1154 C 0.55688 0.58557 0.68302 0.0
C1155 C 0.57082 0.4008 0.72965 0.0
C1156 C 0.59276 0.41154 0.75594 0.0
C1157 C 0.55252 0.42418 0.71067 0.0
C1158 C 0.55533 0.45851 0.71807 0.0
C1159 C 0.58027 0.46943 0.74082 0.0
C1160 C 0.59889 0.44618 0.75948 0.0
C1161 C 0.52808 0.48216 0.70928 0.0
C1162 C 0.53636 0.51284 0.69376 0.0
C1163 C 0.49538 0.4774 0.72265 0.0
C1164 C 0.48474 0.44538 0.7387 0.0
C1165 C 0.49746 0.43573 0.77077 0.0
C1166 C 0.48833 0.40479 0.78503 0.0
C1167 C 0.4662 0.38352 0.76761 0.0
C1168 C 0.45302 0.39324 0.73597 0.0
C1169 C 0.46217 0.4241 0.72155 0.0
H1170 H 0.45923 0.35954 0.77862 0.0
H1171 H 0.54982 0.6578 0.63706 0.0
H1172 H 0.8781 0.0313 0.27688 0.0
H1173 H 0.9206 0.99129 0.25909 0.0
H1174 H 0.94947 0.05642 0.1758 0.0
H1175 H 0.90701 0.0973 0.19391 0.0
H1176 H 0.93945 0.95494 0.20271 0.0
H1177 H 0.03568 0.0561 0.17449 0.0
H1178 H 0.04575 0.1167 0.18367 0.0
H1179 H 0.99051 0.11252 0.27812 0.0
H1180 H 0.98054 0.05186 0.26965 0.0
H1181 H 0.13567 0.93732 0.23919 0.0
H1182 H 0.09078 0.95658 0.20262 0.0
H1183 H 0.01787 0.91194 0.27067 0.0
H1184 H 0.06253 0.89063 0.30645 0.0
H1185 H 0.05269 1.00212 0.22469 0.0
H1186 H 0.94251 0.90479 0.24023 0.0
H1187 H 0.93336 0.84392 0.23366 0.0
H1188 H 0.01928 0.83738 0.16745 0.0
H1189 H 0.02857 0.89839 0.173 0.0
C1190 C 0.89265 0.0368 0.25412 0.0
C1191 C 0.88932 0.06761 0.23689 0.0
C1192 C 0.91689 0.01372 0.24386 0.0
C1193 C 0.93821 0.0209 0.2162 0.0
C1194 C 0.93337 0.05053 0.19737 0.0
C1195 C 0.9093 0.07389 0.20786 0.0
C1196 C 0.96838 0.99984 0.2112 0.0
C1197 C 0.96438 0.96503 0.20716 0.0
C1198 C 1.00095 0.01334 0.21561 0.0
C1199 C 0.00696 0.04968 0.22115 0.0
C1200 C 0.02572 0.06817 0.19719 0.0
C1201 C 0.03143 0.10249 0.20229 0.0
C1202 C 0.01864 0.11848 0.23138 0.0
C1203 C 1.00028 0.10014 0.25553 0.0
C1204 C 0.9946 0.06581 0.2506 0.0
C1205 C 0.11037 0.93009 0.24596 0.0
C1206 C 0.10301 0.91272 0.27657 0.0
C1207 C 0.08452 0.94138 0.22475 0.0
C1208 C 0.05084 0.93591 0.23379 0.0
C1209 C 0.04357 0.9161 0.2626 0.0
C1210 C 0.06933 0.90437 0.28352 0.0
C1211 C 0.02381 0.95656 0.21833 0.0
C1212 C 0.02828 0.99157 0.21854 0.0
C1213 C 0.99177 0.94308 0.21058 0.0
C1214 C 0.98622 0.9063 0.20702 0.0
C1215 C 0.95927 0.89049 0.22397 0.0
C1216 C 0.9541 0.85591 0.22049 0.0
C1217 C 0.97573 0.83679 0.20016 0.0
C1218 C 1.00257 0.85222 0.18324 0.0
C1219 C 0.00781 0.88681 0.18657 0.0
H1220 H 0.97171 0.81001 0.19753 0.0
H1221 H 0.02305 0.14506 0.23525 0.0
H1222 H 0.04002 0.1603 0.77348 0.0
H1223 H 0.99584 0.12019 0.78755 0.0
H1224 H 0.06547 0.0384 0.77412 0.0
H1225 H 0.10966 0.07804 0.75908 0.0
H1226 H 0.97835 0.07547 0.73658 0.0
H1227 H 0.03966 0.97135 0.82088 0.0
H1228 H 0.07653 0.9677 0.87136 0.0
H1229 H 0.04531 0.06601 0.90343 0.0
H1230 H 0.00781 0.0701 0.85346 0.0
H1231 H 0.96374 0.8873 0.72869 0.0
H1232 H 0.98653 0.93651 0.75731 0.0
H1233 H 0.89153 0.98739 0.74589 0.0
H1234 H 0.86887 0.93831 0.71583 0.0
H1235 H 0.9773 0.97431 0.81052 0.0
H1236 H 0.90531 0.06903 0.72896 0.0
H1237 H 0.87561 0.07378 0.6737 0.0
H1238 H 0.93737 0.99564 0.63152 0.0
H1239 H 0.96734 0.99046 0.68653 0.0
C1240 C 0.04611 0.13382 0.77345 0.0
C1241 C 0.07815 0.1223 0.76356 0.0
C1242 C 0.02085 0.11099 0.78213 0.0
C1243 C 0.02736 0.0764 0.78173 0.0
C1244 C 0.06002 0.06505 0.77498 0.0
C1245 C 0.08522 0.0878 0.76608 0.0
C1246 C 0.99938 0.052 0.78124 0.0
C1247 C 0.97712 0.05398 0.7536 0.0
C1248 C 0.99872 0.02354 0.80283 0.0
C1249 C 0.02093 0.02106 0.83327 0.0
C1250 C 0.04042 0.99211 0.83881 0.0
C1251 C 0.0615 0.98998 0.86733 0.0
C1252 C 0.06329 0.01662 0.89056 0.0
C1253 C 0.04396 0.04543 0.88536 0.0
C1254 C 0.02282 0.04768 0.85691 0.0
C1255 C 0.94738 0.9086 0.73297 0.0
C1256 C 0.91453 0.90903 0.71994 0.0
C1257 C 0.96046 0.93679 0.74943 0.0
C1258 C 0.94091 0.96586 0.75337 0.0
C1259 C 0.90728 0.96547 0.74256 0.0
C1260 C 0.89436 0.93746 0.72546 0.0
C1261 C 0.95732 0.99733 0.76496 0.0
C1262 C 0.97738 0.9966 0.79455 0.0
C1263 C 0.9566 0.02685 0.74474 0.0
C1264 C 0.93811 0.02901 0.71194 0.0
C1265 C 0.91237 0.05277 0.70791 0.0
C1266 C 0.89553 0.05554 0.67665 0.0
C1267 C 0.90447 0.0349 0.64917 0.0
C1268 C 0.93032 0.01147 0.65288 0.0
C1269 C 0.94716 0.00852 0.68412 0.0
H1270 H 0.89148 0.03714 0.62496 0.0
H1271 H 0.07965 0.01493 0.9126 0.0
H1272 H 0.27317 0.99543 0.23944 0.0
H1273 H 0.28282 0.0498 0.21116 0.0
H1274 H 0.18872 0.08634 0.2512 0.0
H1275 H 0.17907 0.03258 0.2793 0.0
H1276 H 0.19713 0.10926 0.188 0.0
H1277 H 0.26532 0.10248 0.2909 0.0
H1278 H 0.3089 0.07774 0.32794 0.0
H1279 H 0.38236 0.09158 0.24854 0.0
H1280 H 0.33905 0.11603 0.21088 0.0
H1281 H 0.21248 0.28208 0.22432 0.0
H1282 H 0.20631 0.2211 0.22108 0.0
H1283 H 0.30058 0.21437 0.16709 0.0
H1284 H 0.3066 0.27567 0.17032 0.0
H1285 H 0.29817 0.17318 0.22392 0.0
H1286 H 0.23048 0.19233 0.12647 0.0
H1287 H 0.18652 0.22024 0.09268 0.0
H1288 H 0.11133 0.18514 0.1631 0.0
H1289 H 0.155 0.15748 0.19776 0.0
C1290 C 0.25434 0.01492 0.24175 0.0
C1291 C 0.22555 0.00976 0.26201 0.0
C1292 C 0.25994 0.04607 0.22569 0.0
C1293 C 0.23667 0.07249 0.22928 0.0
C1294 C 0.20709 0.06655 0.24792 0.0
C1295 C 0.20169 0.03572 0.26418 0.0
C1296 C 0.24365 0.10709 0.21601 0.0
C1297 C 0.21925 0.1232 0.19583 0.0
C1298 C 0.2729 0.12525 0.22534 0.0
C1299 C 0.29891 0.11065 0.24795 0.0
C1300 C 0.29072 0.1 0.28127 0.0
C1301 C 0.31537 0.08608 0.30238 0.0
C1302 C 0.34836 0.08298 0.29055 0.0
C1303 C 0.35678 0.09391 0.25763 0.0
C1304 C 0.3322 0.1078 0.23639 0.0
C1305 C 0.23122 0.26771 0.21053 0.0
C1306 C 0.25952 0.28382 0.19659 0.0
C1307 C 0.22777 0.23279 0.20881 0.0
C1308 C 0.25288 0.21298 0.19366 0.0
C1309 C 0.28072 0.22908 0.17865 0.0
C1310 C 0.2839 0.26424 0.17995 0.0
C1311 C 0.2512 0.1756 0.19679 0.0
C1312 C 0.2765 0.15901 0.21521 0.0
C1313 C 0.22268 0.15712 0.18604 0.0
C1314 C 0.1961 0.17293 0.16484 0.0
C1315 C 0.2046 0.19069 0.13489 0.0
C1316 C 0.17971 0.20649 0.11556 0.0
C1317 C 0.14612 0.20453 0.12575 0.0
C1318 C 0.13736 0.18664 0.15524 0.0
C1319 C 0.16219 0.17084 0.17472 0.0
H1320 H 0.12687 0.21683 0.1108 0.0
H1321 H 0.36741 0.07221 0.30693 0.0
H1322 H 0.2756 0.71423 0.81107 0.0
H1323 H 0.21449 0.71258 0.81001 0.0
H1324 H 0.2116 0.8206 0.81662 0.0
H1325 H 0.27323 0.8221 0.81851 0.0
H1326 H 0.15457 0.7858 0.85071 0.0
H1327 H 0.21269 0.79163 0.74263 0.0
H1328 H 0.25557 0.77398 0.70075 0.0
H1329 H 0.21178 0.67538 0.69668 0.0
H1330 H 0.16902 0.69228 0.73911 0.0
H1331 H 0.99712 0.80513 0.76048 0.0
H1332 H 0.05399 0.80952 0.78413 0.0
H1333 H 0.07156 0.70527 0.75987 0.0
H1334 H 0.01529 0.70095 0.73572 0.0
H1335 H 0.12136 0.74128 0.73696 0.0
H1336 H 0.06212 0.73531 0.84395 0.0
H1337 H 0.01987 0.75225 0.88678 0.0
H1338 H 0.06484 0.85018 0.89334 0.0
H1339 H 0.10709 0.83398 0.85013 0.0
C1340 C 0.26205 0.73741 0.81504 0.0
C1341 C 0.27935 0.76811 0.81701 0.0
C1342 C 0.22696 0.73654 0.81361 0.0
C1343 C 0.20832 0.76646 0.8132 0.0
C1344 C 0.22535 0.79716 0.81737 0.0
C1345 C 0.26061 0.79798 0.81876 0.0
C1346 C 0.17226 0.76571 0.80284 0.0
C1347 C 0.14723 0.77643 0.82574 0.0
C1348 C 0.16261 0.75316 0.77036 0.0
C1349 C 0.18786 0.74313 0.74431 0.0
C1350 C 0.21236 0.76611 0.73301 0.0
C1351 C 0.23663 0.75625 0.70916 0.0
C1352 C 0.23644 0.72356 0.69612 0.0
C1353 C 0.21192 0.70069 0.70684 0.0
C1354 C 0.18766 0.71039 0.73079 0.0
C1355 C 0.0129 0.78299 0.76075 0.0
C1356 C 1.0016 0.75271 0.74601 0.0
C1357 C 0.04548 0.78551 0.77435 0.0
C1358 C 0.06732 0.75772 0.77387 0.0
C1359 C 0.05545 0.72718 0.76041 0.0
C1360 C 0.0231 0.7247 0.74668 0.0
C1361 C 0.10317 0.7607 0.78505 0.0
C1362 C 0.1284 0.7506 0.76206 0.0
C1363 C 0.11281 0.7738 0.81741 0.0
C1364 C 0.08756 0.78354 0.84353 0.0
C1365 C 0.06284 0.76055 0.85431 0.0
C1366 C 0.03892 0.77 0.8787 0.0
C1367 C 0.03962 0.8023 0.89271 0.0
C1368 C 0.0643 0.82519 0.88243 0.0
C1369 C 0.08826 0.81587 0.85801 0.0
H1370 H 0.02107 0.80957 0.91158 0.0
H1371 H 0.25525 0.71597 0.67765 0.0
H1372 H 0.70686 0.73123 0.2291 0.0
H1373 H 0.70376 0.79203 0.22765 0.0
H1374 H 0.78817 0.7952 0.15828 0.0
H1375 H 0.79218 0.73343 0.16113 0.0
H1376 H 0.79767 0.8386 0.20816 0.0
H1377 H 0.70649 0.82217 0.13214 0.0
H1378 H 0.65586 0.79276 0.11193 0.0
H1379 H 0.60285 0.8224 0.20283 0.0
H1380 H 0.65323 0.85228 0.22355 0.0
H1381 H 0.7748 0.01769 0.22172 0.0
H1382 H 0.77617 0.96188 0.19497 0.0
H1383 H 0.70426 0.9258 0.269 0.0
H1384 H 0.70292 0.9812 0.29594 0.0
H1385 H 0.69091 0.90249 0.20266 0.0
H1386 H 0.78576 0.91195 0.28051 0.0
H1387 H 0.8386 0.93635 0.30215 0.0
H1388 H 0.88601 0.91805 0.20511 0.0
H1389 H 0.83328 0.894 0.18273 0.0
C1390 C 0.72408 0.74477 0.21256 0.0
C1391 C 0.74929 0.72749 0.19465 0.0
C1392 C 0.72226 0.77971 0.21168 0.0
C1393 C 0.74534 0.7986 0.19239 0.0
C1394 C 0.76985 0.78131 0.17315 0.0
C1395 C 0.77183 0.74596 0.17429 0.0
C1396 C 0.74512 0.83615 0.19538 0.0
C1397 C 0.77452 0.85275 0.20591 0.0
C1398 C 0.71492 0.85484 0.19294 0.0
C1399 C 0.68372 0.83928 0.17949 0.0
C1400 C 0.68402 0.82247 0.14781 0.0
C1401 C 0.65542 0.80553 0.13637 0.0
C1402 C 0.62634 0.80513 0.15641 0.0
C1403 C 0.62551 0.82248 0.1875 0.0
C1404 C 0.65402 0.83963 0.19901 0.0
C1405 C 0.75886 0.99803 0.23196 0.0
C1406 C 0.73874 1.00401 0.26104 0.0
C1407 C 0.75981 0.96606 0.21673 0.0
C1408 C 0.74048 0.93949 0.23007 0.0
C1409 C 0.71935 0.94583 0.25816 0.0
C1410 C 0.71865 0.9776 0.27359 0.0
C1411 C 0.74328 0.90462 0.21617 0.0
C1412 C 0.71427 0.88857 0.20378 0.0
C1413 C 0.77397 0.8866 0.21647 0.0
C1414 C 0.80545 0.90161 0.22979 0.0
C1415 C 0.80733 0.9135 0.26365 0.0
C1416 C 0.83729 0.92719 0.27609 0.0
C1417 C 0.86563 0.92881 0.255 0.0
C1418 C 0.86404 0.91684 0.2214 0.0
C1419 C 0.83413 0.90319 0.20883 0.0
H1420 H 0.88885 0.93913 0.26477 0.0
H1421 H 0.60431 0.79169 0.14765 0.0
H1422 H 0.02327 0.23162 0.7779 0.0
H1423 H 0.96703 0.22632 0.80288 0.0
H1424 H 0.93189 0.30669 0.73822 0.0
H1425 H 0.9879 0.31213 0.71315 0.0
H1426 H 0.90218 0.30999 0.80097 0.0
H1427 H 0.92251 0.22807 0.71373 0.0
H1428 H 0.95099 0.18116 0.68458 0.0
H1429 H 0.93192 0.11724 0.77103 0.0
H1430 H 0.90403 0.16412 0.80111 0.0
H1431 H 0.74069 0.22578 0.74272 0.0
H1432 H 0.80116 0.22541 0.74711 0.0
H1433 H 0.79456 0.26527 0.84969 0.0
H1434 H 0.73313 0.26701 0.84456 0.0
H1435 H 0.84809 0.19947 0.78039 0.0
H1436 H 0.86277 0.31643 0.86322 0.0
H1437 H 0.82945 0.36514 0.88271 0.0
H1438 H 0.77265 0.36268 0.78936 0.0
H1439 H 0.80593 0.31427 0.76918 0.0
C1440 C 1.00377 0.24867 0.7695 0.0
C1441 C 0.01009 0.27216 0.74328 0.0
C1442 C 0.97156 0.24553 0.78376 0.0
C1443 C 0.94505 0.26589 0.77224 0.0
C1444 C 0.95186 0.29072 0.74762 0.0
C1445 C 0.98394 0.29371 0.73317 0.0
C1446 C 0.90967 0.25934 0.78307 0.0
C1447 C 0.89046 0.28569 0.79689 0.0
C1448 C 0.89408 0.22778 0.77743 0.0
C1449 C 0.91171 0.19978 0.75992 0.0
C1450 C 0.92485 0.20418 0.72677 0.0
C1451 C 0.94083 0.17758 0.71004 0.0
C1452 C 0.9434 0.14629 0.726 0.0
C1453 C 0.93005 0.14155 0.75877 0.0
C1454 C 0.91423 0.16816 0.77571 0.0
C1455 C 0.75187 0.23423 0.7665 0.0
C1456 C 0.73184 0.24736 0.79301 0.0
C1457 C 0.78673 0.23374 0.76906 0.0
C1458 C 0.80285 0.24604 0.7984 0.0
C1459 C 0.78289 0.25643 0.82633 0.0
C1460 C 0.74764 0.25727 0.82354 0.0
C1461 C 0.8402 0.25032 0.79756 0.0
C1462 C 0.85996 0.2235 0.78557 0.0
C1463 C 0.85592 0.28177 0.80366 0.0
C1464 C 0.8366 0.31159 0.8149 0.0
C1465 C 0.84329 0.32644 0.84681 0.0
C1466 C 0.8244 0.35395 0.85798 0.0
C1467 C 0.7989 0.36693 0.83732 0.0
C1468 C 0.79237 0.35256 0.80535 0.0
C1469 C 0.81125 0.32512 0.79403 0.0
H1470 H 0.78429 0.38819 0.84604 0.0
H1471 H 0.95555 0.12573 0.71282 0.0
H1472 H 0.79467 0.22808 0.30394 0.0
H1473 H 0.80075 0.2889 0.30376 0.0
H1474 H 0.69756 0.29922 0.33632 0.0
H1475 H 0.69096 0.23788 0.33349 0.0
H1476 H 0.70521 0.33926 0.28869 0.0
H1477 H 0.77252 0.32224 0.38722 0.0
H1478 H 0.816 0.29347 0.42121 0.0
H1479 H 0.89172 0.32612 0.35025 0.0
H1480 H 0.84867 0.3545 0.31541 0.0
H1481 H 0.72703 0.51658 0.28103 0.0
H1482 H 0.72345 0.46216 0.31022 0.0
H1483 H 0.80833 0.4265 0.25213 0.0
H1484 H 0.81187 0.48059 0.22257 0.0
H1485 H 0.80666 0.40331 0.32321 0.0
H1486 H 0.73464 0.41121 0.22168 0.0
H1487 H 0.68998 0.43938 0.18875 0.0
H1488 H 0.62105 0.42496 0.2721 0.0
H1489 H 0.66556 0.39699 0.30564 0.0
C1490 C 0.77372 0.24332 0.31244 0.0
C1491 C 0.7426 0.22834 0.31956 0.0
C1492 C 0.77715 0.27831 0.31233 0.0
C1493 C 0.74981 0.29926 0.32056 0.0
C1494 C 0.71915 0.28396 0.32985 0.0
C1495 C 0.71545 0.24886 0.32884 0.0
C1496 C 0.75237 0.33667 0.31583 0.0
C1497 C 0.72708 0.35323 0.29717 0.0
C1498 C 0.78093 0.35547 0.32641 0.0
C1499 C 0.80726 0.3404 0.34856 0.0
C1500 C 0.79844 0.32333 0.37885 0.0
C1501 C 0.823 0.30699 0.39822 0.0
C1502 C 0.85655 0.30787 0.3878 0.0
C1503 C 0.86569 0.32543 0.35824 0.0
C1504 C 0.84122 0.3417 0.33869 0.0
C1505 C 0.74541 0.49743 0.27494 0.0
C1506 C 0.76953 0.5029 0.2491 0.0
C1507 C 0.74331 0.46628 0.2917 0.0
C1508 C 0.7655 0.44008 0.28323 0.0
C1509 C 0.79101 0.4463 0.25919 0.0
C1510 C 0.79287 0.47724 0.24215 0.0
C1511 C 0.75978 0.40514 0.29597 0.0
C1512 C 0.78451 0.3892 0.31579 0.0
C1513 C 0.73045 0.387 0.28715 0.0
C1514 C 0.70344 0.40241 0.26633 0.0
C1515 C 0.70999 0.41417 0.23302 0.0
C1516 C 0.68473 0.43009 0.21425 0.0
C1517 C 0.65273 0.43409 0.22841 0.0
C1518 C 0.64587 0.42194 0.26125 0.0
C1519 C 0.67107 0.40604 0.28012 0.0
H1520 H 0.63323 0.44652 0.2139 0.0
H1521 H 0.87547 0.29491 0.40258 0.0
H1522 H 0.49226 0.21064 0.76525 0.0
H1523 H 0.43645 0.21588 0.74015 0.0
H1524 H 0.46121 0.31533 0.70417 0.0
H1525 H 0.51732 0.31036 0.7295 0.0
H1526 H 0.40134 0.3137 0.73855 0.0
H1527 H 0.45347 0.24855 0.65036 0.0
H1528 H 0.48529 0.2008 0.62648 0.0
H1529 H 0.40879 0.13263 0.66107 0.0
H1530 H 0.37693 0.17989 0.6857 0.0
H1531 H 0.23827 0.33194 0.67508 0.0
H1532 H 0.29978 0.32953 0.67314 0.0
H1533 H 0.2955 0.22267 0.69192 0.0
H1534 H 0.23421 0.22492 0.69093 0.0
H1535 H 0.34811 0.23197 0.65949 0.0
H1536 H 0.30256 0.2887 0.75749 0.0
H1537 H 0.27037 0.33182 0.78876 0.0
H1538 H 0.33288 0.40918 0.74587 0.0
H1539 H 0.36512 0.36652 0.7139 0.0
C1540 C 0.48612 0.23349 0.75157 0.0
C1541 C 0.50939 0.26007 0.7495 0.0
C1542 C 0.45411 0.2364 0.73708 0.0
C1543 C 0.44452 0.26592 0.72001 0.0
C1544 C 0.46797 0.29226 0.71714 0.0
C1545 C 0.50014 0.28931 0.73151 0.0
C1546 C 0.40934 0.26993 0.70731 0.0
C1547 C 0.38989 0.29622 0.72068 0.0
C1548 C 0.39391 0.24637 0.68505 0.0
C1549 C 0.41291 0.21786 0.66998 0.0
C1550 C 0.44357 0.22338 0.65299 0.0
C1551 C 0.4616 0.19639 0.63933 0.0
C1552 C 0.44906 0.16371 0.64224 0.0
C1553 C 0.41847 0.15797 0.65881 0.0
C1554 C 0.40042 0.18487 0.67261 0.0
C1555 C 0.25061 0.30779 0.67714 0.0
C1556 C 0.23162 0.27856 0.68272 0.0
C1557 C 0.28582 0.30644 0.67676 0.0
C1558 C 0.30271 0.27612 0.68382 0.0
C1559 C 0.28348 0.2465 0.68666 0.0
C1560 C 0.24832 0.2477 0.68586 0.0
C1561 C 0.33973 0.27544 0.69125 0.0
C1562 C 0.35957 0.24975 0.677 0.0
C1563 C 0.3553 0.29878 0.7138 0.0
C1564 C 0.33591 0.32447 0.73291 0.0
C1565 C 0.30926 0.31493 0.75452 0.0
C1566 C 0.29103 0.33928 0.77238 0.0
C1567 C 0.29949 0.37323 0.7692 0.0
C1568 C 0.32628 0.38289 0.74821 0.0
C1569 C 0.34452 0.35864 0.73019 0.0
H1570 H 0.28537 0.39205 0.78308 0.0
H1571 H 0.46304 0.14285 0.63164 0.0
H1572 H 0.31621 0.78372 0.28202 0.0
H1573 H 0.32084 0.7225 0.28133 0.0
H1574 H 0.22881 0.71476 0.3391 0.0
H1575 H 0.2246 0.7762 0.34026 0.0
H1576 H 0.27223 0.66284 0.35514 0.0
H1577 H 0.22684 0.71281 0.25328 0.0
H1578 H 0.2262 0.75152 0.20396 0.0
H1579 H 0.31652 0.70661 0.16515 0.0
H1580 H 0.31804 0.66802 0.21457 0.0
H1581 H 0.2137 0.51281 0.25277 0.0
H1582 H 0.21716 0.57003 0.27572 0.0
H1583 H 0.32485 0.5623 0.28013 0.0
H1584 H 0.32174 0.50467 0.25783 0.0
H1585 H 0.27374 0.62073 0.2355 0.0
H1586 H 0.32281 0.57744 0.34391 0.0
H1587 H 0.32283 0.54074 0.39487 0.0
H1588 H 0.22271 0.57261 0.41962 0.0
H1589 H 0.22216 0.60943 0.3687 0.0
C1590 C 0.29772 0.76899 0.29583 0.0
C1591 C 0.27034 0.78487 0.31174 0.0
C1592 C 0.30019 0.73394 0.29512 0.0
C1593 C 0.27478 0.71384 0.30947 0.0
C1594 C 0.24875 0.72963 0.32779 0.0
C1595 C 0.24651 0.76489 0.32882 0.0
C1596 C 0.27352 0.677 0.3019 0.0
C1597 C 0.27245 0.65373 0.32896 0.0
C1598 C 0.2738 0.66477 0.26774 0.0
C1599 C 0.27273 0.68774 0.23781 0.0
C1600 C 0.2467 0.71135 0.23436 0.0
C1601 C 0.24616 0.73325 0.20638 0.0
C1602 C 0.27134 0.73156 0.18149 0.0
C1603 C 0.29706 0.70792 0.18448 0.0
C1604 C 0.29777 0.68602 0.21247 0.0
C1605 C 0.23813 0.52294 0.25927 0.0
C1606 C 0.26743 0.50403 0.25338 0.0
C1607 C 0.24003 0.55568 0.27248 0.0
C1608 C 0.27124 0.57032 0.28001 0.0
C1609 C 0.3005 0.55127 0.27506 0.0
C1610 C 0.29863 0.51833 0.26224 0.0
C1611 C 0.27331 0.60673 0.28867 0.0
C1612 C 0.27395 0.62993 0.26166 0.0
C1613 C 0.27258 0.61881 0.32272 0.0
C1614 C 0.27226 0.59569 0.35232 0.0
C1615 C 0.30069 0.5763 0.36003 0.0
C1616 C 0.3009 0.5557 0.38904 0.0
C1617 C 0.27279 0.55435 0.41048 0.0
C1618 C 0.24446 0.57368 0.40301 0.0
C1619 C 0.2442 0.59442 0.3741 0.0
H1620 H 0.27292 0.53825 0.43281 0.0
H1621 H 0.2709 0.74853 0.15986 0.0
H1622 H 0.48603 0.74935 0.71669 0.0
H1623 H 0.53973 0.75118 0.68493 0.0
H1624 H 0.59375 0.75078 0.78055 0.0
H1625 H 0.54106 0.7482 0.8119 0.0
H1626 H 0.59805 0.79344 0.68419 0.0
H1627 H 0.65576 0.69467 0.77689 0.0
H1628 H 0.6357 0.64799 0.8131 0.0
H1629 H 0.55045 0.63468 0.74732 0.0
H1630 H 0.57029 0.68064 0.71035 0.0
H1631 H 0.77191 0.80349 0.70743 0.0
H1632 H 0.71095 0.80145 0.70498 0.0
H1633 H 0.71573 0.70123 0.66311 0.0
H1634 H 0.77719 0.70302 0.6668 0.0
H1635 H 0.67605 0.70113 0.71505 0.0
H1636 H 0.68208 0.76993 0.61729 0.0
H1637 H 0.70297 0.81683 0.58194 0.0
H1638 H 0.66027 0.88771 0.65244 0.0
H1639 H 0.63981 0.8413 0.68871 0.0
C1640 C 0.50942 0.75011 0.73079 0.0
C1641 C 0.5093 0.74816 0.76679 0.0
C1642 C 0.54006 0.7512 0.71266 0.0
C1643 C 0.57087 0.75055 0.73033 0.0
C1644 C 0.57044 0.7507 0.76626 0.0
C1645 C 0.54018 0.7492 0.78419 0.0
C1646 C 0.60378 0.74726 0.71221 0.0
C1647 C 0.61505 0.77312 0.69054 0.0
C1648 C 0.62569 0.72019 0.71963 0.0
C1649 C 0.61453 0.69122 0.74084 0.0
C1650 C 0.63296 0.68149 0.76989 0.0
C1651 C 0.62157 0.65516 0.79061 0.0
C1652 C 0.59181 0.63831 0.78252 0.0
C1653 C 0.57349 0.64764 0.75358 0.0
C1654 C 0.58482 0.67382 0.73272 0.0
C1655 C 0.76002 0.78157 0.69624 0.0
C1656 C 0.77949 0.75386 0.68618 0.0
C1657 C 0.725 0.78039 0.69486 0.0
C1658 C 0.70836 0.75135 0.68341 0.0
C1659 C 0.72784 0.7241 0.67172 0.0
C1660 C 0.76311 0.72531 0.67322 0.0
C1661 C 0.67118 0.74822 0.68833 0.0
C1662 C 0.659 0.7211 0.70774 0.0
C1663 C 0.64847 0.77389 0.67832 0.0
C1664 C 0.65943 0.80202 0.65583 0.0
C1665 C 0.67719 0.79551 0.62535 0.0
C1666 C 0.68902 0.82203 0.60515 0.0
C1667 C 0.68296 0.85523 0.61494 0.0
C1668 C 0.66492 0.86197 0.64488 0.0
C1669 C 0.65316 0.83555 0.66525 0.0
H1670 H 0.69224 0.87572 0.59933 0.0
H1671 H 0.58294 0.61805 0.79867 0.0
loop_
_geom_bond_atom_site_label_1
_geom_bond_atom_site_label_2
_geom_bond_distance
_geom_bond_site_symmetry_2
_ccdc_geom_bond_type
Zn0 N4 2.020 . S
Zn0 O8 2.019 . S
Zn0 N10 2.119 . S
Zn0 O18 1.975 . S
C1 N2 1.334 . S
C1 N5 1.336 . S
N2 C1 1.334 . S
N2 C3 1.334 . S
C3 N2 1.334 . S
C3 N4 1.336 . S
N4 Zn0 2.020 . S
N4 C3 1.336 . S
N4 N5 1.354 . S
N5 C1 1.336 . S
N5 N4 1.354 . S
N5 Zn9 2.020 . S
C6 O7 1.244 . S
C6 O30 1.257 . S
O7 C6 1.244 . S
O8 Zn0 2.019 . S
O8 C28 1.257 . S
Zn9 N5 2.020 . S
Zn9 O16 1.975 . S
Zn9 N25 2.119 . S
Zn9 O30 2.019 . S
N10 Zn0 2.119 . S
N10 C12 1.334 . S
N10 C13 1.328 . S
C11 C12 1.391 . S
C11 N14 1.329 . S
C11 H32 0.930 . S
C12 N10 1.334 . S
C12 C11 1.391 . S
C12 H19 0.930 . S
C13 N10 1.328 . S
C13 C15 1.392 . S
C13 H20 0.930 . S
N14 C11 1.329 . S
N14 C15 1.331 . S
C15 C13 1.392 . S
C15 N14 1.331 . S
O16 Zn9 1.975 . S
O16 C17 1.252 . S
C17 O16 1.252 . S
C17 O18 1.252 . S
O18 Zn0 1.975 . S
O18 C17 1.252 . S
H19 C12 0.930 . S
H20 C13 0.930 . S
C21 C22 1.392 . S
C21 N25 1.328 . S
C21 H27 0.930 . S
C22 C21 1.392 . S
C22 N26 1.331 . S
C23 C24 1.391 . S
C23 N26 1.329 . S
C23 H33 0.930 . S
C24 C23 1.391 . S
C24 N25 1.334 . S
C24 H31 0.930 . S
N25 Zn9 2.119 . S
N25 C21 1.328 . S
N25 C24 1.334 . S
N26 C22 1.331 . S
N26 C23 1.329 . S
H27 C21 0.930 . S
C28 O8 1.257 . S
C28 O29 1.244 . S
O29 C28 1.244 . S
O30 C6 1.257 . S
O30 Zn9 2.019 . S
H31 C24 0.930 . S
H32 C11 0.930 . S
H33 C23 0.930 . S
Zn34 N38 2.020 . S
Zn34 O42 2.019 . S
Zn34 N44 2.119 . S
Zn34 O52 1.975 . S
C35 N36 1.334 . S
C35 N39 1.336 . S
N36 C35 1.334 . S
N36 C37 1.334 . S
C37 N36 1.334 . S
C37 N38 1.336 . S
N38 Zn34 2.020 . S
N38 C37 1.336 . S
N38 N39 1.354 . S
N39 C35 1.336 . S
N39 N38 1.354 . S
N39 Zn43 2.020 . S
C40 O41 1.244 . S
C40 O64 1.257 . S
O41 C40 1.244 . S
O42 Zn34 2.019 . S
O42 C62 1.257 . S
Zn43 N39 2.020 . S
Zn43 O50 1.975 . S
Zn43 N59 2.119 . S
Zn43 O64 2.019 . S
N44 Zn34 2.119 . S
N44 C46 1.334 . S
N44 C47 1.328 . S
C45 C46 1.391 . S
C45 N48 1.329 . S
C45 H66 0.930 . S
C46 N44 1.334 . S
C46 C45 1.391 . S
C46 H53 0.930 . S
C47 N44 1.328 . S
C47 C49 1.392 . S
C47 H54 0.930 . S
N48 C45 1.329 . S
N48 C49 1.331 . S
C49 C47 1.392 . S
C49 N48 1.331 . S
O50 Zn43 1.975 . S
O50 C51 1.252 . S
C51 O50 1.252 . S
C51 O52 1.252 . S
O52 Zn34 1.975 . S
O52 C51 1.252 . S
H53 C46 0.930 . S
H54 C47 0.930 . S
C55 C56 1.392 . S
C55 N59 1.328 . S
C55 H61 0.930 . S
C56 C55 1.392 . S
C56 N60 1.331 . S
C57 C58 1.391 . S
C57 N60 1.329 . S
C57 H67 0.930 . S
C58 C57 1.391 . S
C58 N59 1.334 . S
C58 H65 0.930 . S
N59 Zn43 2.119 . S
N59 C55 1.328 . S
N59 C58 1.334 . S
N60 C56 1.331 . S
N60 C57 1.329 . S
H61 C55 0.930 . S
C62 O42 1.257 . S
C62 O63 1.244 . S
O63 C62 1.244 . S
O64 C40 1.257 . S
O64 Zn43 2.019 . S
H65 C58 0.930 . S
H66 C45 0.930 . S
H67 C57 0.930 . S
Zn68 N72 2.020 . S
Zn68 O76 2.019 . S
Zn68 N78 2.119 . S
Zn68 O86 1.975 . S
C69 N70 1.334 . S
C69 N73 1.336 . S
N70 C69 1.334 . S
N70 C71 1.334 . S
C71 N70 1.334 . S
C71 N72 1.336 . S
N72 Zn68 2.020 . S
N72 C71 1.336 . S
N72 N73 1.354 . S
N73 C69 1.336 . S
N73 N72 1.354 . S
N73 Zn77 2.020 . S
C74 O75 1.244 . S
C74 O98 1.257 . S
O75 C74 1.244 . S
O76 Zn68 2.019 . S
O76 C96 1.257 . S
Zn77 N73 2.020 . S
Zn77 O84 1.975 . S
Zn77 N93 2.119 . S
Zn77 O98 2.019 . S
N78 Zn68 2.119 . S
N78 C80 1.334 . S
N78 C81 1.328 . S
C79 C80 1.391 . S
C79 N82 1.329 . S
C79 H100 0.930 . S
C80 N78 1.334 . S
C80 C79 1.391 . S
C80 H87 0.930 . S
C81 N78 1.328 . S
C81 C83 1.392 . S
C81 H88 0.930 . S
N82 C79 1.329 . S
N82 C83 1.331 . S
C83 C81 1.392 . S
C83 N82 1.331 . S
O84 Zn77 1.975 . S
O84 C85 1.252 . S
C85 O84 1.252 . S
C85 O86 1.252 . S
O86 Zn68 1.975 . S
O86 C85 1.252 . S
H87 C80 0.930 . S
H88 C81 0.930 . S
C89 C90 1.392 . S
C89 N93 1.328 . S
C89 H95 0.930 . S
C90 C89 1.392 . S
C90 N94 1.331 . S
C91 C92 1.391 . S
C91 N94 1.329 . S
C91 H101 0.930 . S
C92 C91 1.391 . S
C92 N93 1.334 . S
C92 H99 0.930 . S
N93 Zn77 2.119 . S
N93 C89 1.328 . S
N93 C92 1.334 . S
N94 C90 1.331 . S
N94 C91 1.329 . S
H95 C89 0.930 . S
C96 O76 1.257 . S
C96 O97 1.244 . S
O97 C96 1.244 . S
O98 C74 1.257 . S
O98 Zn77 2.019 . S
H99 C92 0.930 . S
H100 C79 0.930 . S
H101 C91 0.930 . S
Zn102 N106 2.020 . S
Zn102 O110 2.019 . S
Zn102 N112 2.119 . S
Zn102 O120 1.975 . S
C103 N104 1.334 . S
C103 N107 1.336 . S
N104 C103 1.334 . S
N104 C105 1.334 . S
C105 N104 1.334 . S
C105 N106 1.336 . S
N106 Zn102 2.020 . S
N106 C105 1.336 . S
N106 N107 1.354 . S
N107 C103 1.336 . S
N107 N106 1.354 . S
N107 Zn111 2.020 . S
C108 O109 1.244 . S
C108 O132 1.257 . S
O109 C108 1.244 . S
O110 Zn102 2.019 . S
O110 C130 1.257 . S
Zn111 N107 2.020 . S
Zn111 O118 1.975 . S
Zn111 N127 2.119 . S
Zn111 O132 2.019 . S
N112 Zn102 2.119 . S
N112 C114 1.334 . S
N112 C115 1.328 . S
C113 C114 1.391 . S
C113 N116 1.329 . S
C113 H134 0.930 . S
C114 N112 1.334 . S
C114 C113 1.391 . S
C114 H121 0.930 . S
C115 N112 1.328 . S
C115 C117 1.392 . S
C115 H122 0.930 . S
N116 C113 1.329 . S
N116 C117 1.331 . S
C117 C115 1.392 . S
C117 N116 1.331 . S
O118 Zn111 1.975 . S
O118 C119 1.252 . S
C119 O118 1.252 . S
C119 O120 1.252 . S
O120 Zn102 1.975 . S
O120 C119 1.252 . S
H121 C114 0.930 . S
H122 C115 0.930 . S
C123 C124 1.392 . S
C123 N127 1.328 . S
C123 H129 0.930 . S
C124 C123 1.392 . S
C124 N128 1.331 . S
C125 C126 1.391 . S
C125 N128 1.329 . S
C125 H135 0.930 . S
C126 C125 1.391 . S
C126 N127 1.334 . S
C126 H133 0.930 . S
N127 Zn111 2.119 . S
N127 C123 1.328 . S
N127 C126 1.334 . S
N128 C124 1.331 . S
N128 C125 1.329 . S
H129 C123 0.930 . S
C130 O110 1.257 . S
C130 O131 1.244 . S
O131 C130 1.244 . S
O132 C108 1.257 . S
O132 Zn111 2.019 . S
H133 C126 0.930 . S
H134 C113 0.930 . S
H135 C125 0.930 . S
Zn136 N140 2.020 . S
Zn136 O144 2.019 . S
Zn136 N146 2.119 . S
Zn136 O154 1.975 . S
C137 N138 1.334 . S
C137 N141 1.336 . S
N138 C137 1.334 . S
N138 C139 1.334 . S
C139 N138 1.334 . S
C139 N140 1.336 . S
N140 Zn136 2.020 . S
N140 C139 1.336 . S
N140 N141 1.354 . S
N141 C137 1.336 . S
N141 N140 1.354 . S
N141 Zn145 2.020 . S
C142 O143 1.221 1_565 S
C142 O166 1.256 . S
O143 C142 1.221 1_545 S
O144 Zn136 2.019 . S
O144 C164 1.257 . S
Zn145 N141 2.020 . S
Zn145 O152 1.975 . S
Zn145 N161 2.119 . S
Zn145 O166 2.021 1_545 S
N146 Zn136 2.119 . S
N146 C148 1.334 . S
N146 C149 1.328 . S
C147 C148 1.391 . S
C147 N150 1.329 . S
C147 H168 0.930 . S
C148 N146 1.334 . S
C148 C147 1.391 . S
C148 H155 0.930 . S
C149 N146 1.328 . S
C149 C151 1.392 . S
C149 H156 0.930 . S
N150 C147 1.329 . S
N150 C151 1.331 . S
C151 C149 1.392 . S
C151 N150 1.331 . S
O152 Zn145 1.975 . S
O152 C153 1.252 . S
C153 O152 1.252 . S
C153 O154 1.252 . S
O154 Zn136 1.975 . S
O154 C153 1.252 . S
H155 C148 0.930 . S
H156 C149 0.930 . S
C157 C158 1.392 . S
C157 N161 1.328 . S
C157 H163 0.930 . S
C158 C157 1.392 . S
C158 N162 1.331 . S
C159 C160 1.391 . S
C159 N162 1.329 . S
C159 H169 0.930 . S
C160 C159 1.391 . S
C160 N161 1.334 . S
C160 H167 0.930 . S
N161 Zn145 2.119 . S
N161 C157 1.328 . S
N161 C160 1.334 . S
N162 C158 1.331 . S
N162 C159 1.329 . S
H163 C157 0.930 . S
C164 O144 1.257 . S
C164 O165 1.244 . S
O165 C164 1.244 . S
O166 C142 1.256 . S
O166 Zn145 2.021 1_565 S
H167 C160 0.930 . S
H168 C147 0.930 . S
H169 C159 0.930 . S
Zn170 N174 2.020 . S
Zn170 O178 2.021 1_455 S
Zn170 N180 2.119 . S
Zn170 O188 1.975 . S
C171 N172 1.334 . S
C171 N175 1.336 . S
N172 C171 1.334 . S
N172 C173 1.334 . S
C173 N172 1.334 . S
C173 N174 1.336 . S
N174 Zn170 2.020 . S
N174 C173 1.336 . S
N174 N175 1.354 . S
N175 C171 1.336 . S
N175 N174 1.354 . S
N175 Zn179 2.020 . S
C176 O177 1.244 . S
C176 O200 1.257 . S
O177 C176 1.244 . S
O178 Zn170 2.021 1_655 S
O178 C198 1.256 . S
Zn179 N175 2.020 . S
Zn179 O186 1.975 . S
Zn179 N195 2.119 . S
Zn179 O200 2.019 . S
N180 Zn170 2.119 . S
N180 C182 1.334 . S
N180 C183 1.328 . S
C181 C182 1.391 . S
C181 N184 1.329 . S
C181 H202 0.930 . S
C182 N180 1.334 . S
C182 C181 1.391 . S
C182 H189 0.930 . S
C183 N180 1.328 . S
C183 C185 1.392 . S
C183 H190 0.930 . S
N184 C181 1.329 . S
N184 C185 1.331 . S
C185 C183 1.392 . S
C185 N184 1.331 . S
O186 Zn179 1.975 . S
O186 C187 1.252 . S
C187 O186 1.252 . S
C187 O188 1.252 . S
O188 Zn170 1.975 . S
O188 C187 1.252 . S
H189 C182 0.930 . S
H190 C183 0.930 . S
C191 C192 1.392 . S
C191 N195 1.328 . S
C191 H197 0.930 . S
C192 C191 1.392 . S
C192 N196 1.331 . S
C193 C194 1.391 . S
C193 N196 1.329 . S
C193 H203 0.930 . S
C194 C193 1.391 . S
C194 N195 1.334 . S
C194 H201 0.930 . S
N195 Zn179 2.119 . S
N195 C191 1.328 . S
N195 C194 1.334 . S
N196 C192 1.331 . S
N196 C193 1.329 . S
H197 C191 0.930 . S
C198 O178 1.256 . S
C198 O199 1.221 1_655 S
O199 C198 1.221 1_455 S
O200 C176 1.257 . S
O200 Zn179 2.019 . S
H201 C194 0.930 . S
H202 C181 0.930 . S
H203 C193 0.930 . S
Zn204 N208 2.020 . S
Zn204 O212 2.019 . S
Zn204 N214 2.119 . S
Zn204 O222 1.975 . S
C205 N206 1.334 . S
C205 N209 1.336 . S
N206 C205 1.334 . S
N206 C207 1.334 . S
C207 N206 1.334 . S
C207 N208 1.336 . S
N208 Zn204 2.020 . S
N208 C207 1.336 . S
N208 N209 1.354 . S
N209 C205 1.336 . S
N209 N208 1.354 . S
N209 Zn213 2.020 . S
C210 O211 1.221 1_545 S
C210 O234 1.256 . S
O211 C210 1.221 1_565 S
O212 Zn204 2.019 . S
O212 C232 1.257 . S
Zn213 N209 2.020 . S
Zn213 O220 1.975 . S
Zn213 N229 2.119 . S
Zn213 O234 2.021 1_565 S
N214 Zn204 2.119 . S
N214 C216 1.334 . S
N214 C217 1.328 . S
C215 C216 1.391 . S
C215 N218 1.329 . S
C215 H236 0.930 . S
C216 N214 1.334 . S
C216 C215 1.391 . S
C216 H223 0.930 . S
C217 N214 1.328 . S
C217 C219 1.392 . S
C217 H224 0.930 . S
N218 C215 1.329 . S
N218 C219 1.331 . S
C219 C217 1.392 . S
C219 N218 1.331 . S
O220 Zn213 1.975 . S
O220 C221 1.252 . S
C221 O220 1.252 . S
C221 O222 1.252 . S
O222 Zn204 1.975 . S
O222 C221 1.252 . S
H223 C216 0.930 . S
H224 C217 0.930 . S
C225 C226 1.392 . S
C225 N229 1.328 . S
C225 H231 0.930 . S
C226 C225 1.392 . S
C226 N230 1.331 . S
C227 C228 1.391 . S
C227 N230 1.329 . S
C227 H237 0.930 . S
C228 C227 1.391 . S
C228 N229 1.334 . S
C228 H235 0.930 . S
N229 Zn213 2.119 . S
N229 C225 1.328 . S
N229 C228 1.334 . S
N230 C226 1.331 . S
N230 C227 1.329 . S
H231 C225 0.930 . S
C232 O212 1.257 . S
C232 O233 1.244 . S
O233 C232 1.244 . S
O234 C210 1.256 . S
O234 Zn213 2.021 1_545 S
H235 C228 0.930 . S
H236 C215 0.930 . S
H237 C227 0.930 . S
Zn238 N242 2.020 . S
Zn238 O246 2.021 1_655 S
Zn238 N248 2.119 . S
Zn238 O256 1.975 . S
C239 N240 1.334 . S
C239 N243 1.336 . S
N240 C239 1.334 . S
N240 C241 1.334 . S
C241 N240 1.334 . S
C241 N242 1.336 . S
N242 Zn238 2.020 . S
N242 C241 1.336 . S
N242 N243 1.354 . S
N243 C239 1.336 . S
N243 N242 1.354 . S
N243 Zn247 2.020 . S
C244 O245 1.244 . S
C244 O268 1.257 . S
O245 C244 1.244 . S
O246 Zn238 2.021 1_455 S
O246 C266 1.256 . S
Zn247 N243 2.020 . S
Zn247 O254 1.975 . S
Zn247 N263 2.119 . S
Zn247 O268 2.019 . S
N248 Zn238 2.119 . S
N248 C250 1.334 . S
N248 C251 1.328 . S
C249 C250 1.391 . S
C249 N252 1.329 . S
C249 H270 0.930 . S
C250 N248 1.334 . S
C250 C249 1.391 . S
C250 H257 0.930 . S
C251 N248 1.328 . S
C251 C253 1.392 . S
C251 H258 0.930 . S
N252 C249 1.329 . S
N252 C253 1.331 . S
C253 C251 1.392 . S
C253 N252 1.331 . S
O254 Zn247 1.975 . S
O254 C255 1.252 . S
C255 O254 1.252 . S
C255 O256 1.252 . S
O256 Zn238 1.975 . S
O256 C255 1.252 . S
H257 C250 0.930 . S
H258 C251 0.930 . S
C259 C260 1.392 . S
C259 N263 1.328 . S
C259 H265 0.930 . S
C260 C259 1.392 . S
C260 N264 1.331 . S
C261 C262 1.391 . S
C261 N264 1.329 . S
C261 H271 0.930 . S
C262 C261 1.391 . S
C262 N263 1.334 . S
C262 H269 0.930 . S
N263 Zn247 2.119 . S
N263 C259 1.328 . S
N263 C262 1.334 . S
N264 C260 1.331 . S
N264 C261 1.329 . S
H265 C259 0.930 . S
C266 O246 1.256 . S
C266 O267 1.221 1_455 S
O267 C266 1.221 1_655 S
O268 C244 1.257 . S
O268 Zn247 2.019 . S
H269 C262 0.930 . S
H270 C249 0.930 . S
H271 C261 0.930 . S
H272 C290 0.951 . S
H273 C292 0.951 . S
H274 C294 0.950 . S
H275 C295 0.950 . S
H276 C297 0.950 . S
H277 C300 0.950 . S
H278 C301 0.950 . S
H279 C303 0.950 . S
H280 C304 0.950 . S
H281 C305 0.951 . S
H282 C307 0.951 . S
H283 C309 0.950 . S
H284 C310 0.950 . S
H285 C312 0.950 . S
H286 C315 0.950 . S
H287 C316 0.950 . S
H288 C318 0.950 . S
H289 C319 0.950 . S
C290 H272 0.951 . S
C290 C291 1.366 . S
C290 C292 1.388 1_554 S
C291 C290 1.366 . S
C291 C295 1.385 . S
C292 H273 0.951 . S
C292 C290 1.388 1_556 S
C292 C293 1.366 . S
C293 C292 1.366 . S
C293 C294 1.414 . S
C293 C296 1.499 . S
C294 H274 0.950 . S
C294 C293 1.414 . S
C294 C295 1.374 1_556 S
C295 H275 0.950 . S
C295 C291 1.385 . S
C295 C294 1.374 1_554 S
C296 C293 1.499 . S
C296 C297 1.373 . S
C296 C298 1.389 . S
C297 H276 0.950 . S
C297 C296 1.373 . S
C297 C313 1.377 . S
C298 C296 1.389 . S
C298 C299 1.524 . S
C298 C312 1.377 . S
C299 C298 1.524 . S
C299 C300 1.397 . S
C299 C304 1.363 . S
C300 H277 0.950 . S
C300 C299 1.397 . S
C300 C301 1.334 . S
C301 H278 0.950 . S
C301 C300 1.334 . S
C301 C302 1.287 . S
C302 C301 1.287 . S
C302 C303 1.524 . S
C302 H321 0.913 . S
C303 H279 0.950 . S
C303 C302 1.524 . S
C303 C304 1.415 . S
C304 H280 0.950 . S
C304 C299 1.363 . S
C304 C303 1.415 . S
C305 H281 0.951 . S
C305 C306 1.366 . S
C305 C307 1.388 . S
C306 C305 1.366 . S
C306 C310 1.385 . S
C307 H282 0.951 . S
C307 C305 1.388 . S
C307 C308 1.366 . S
C308 C307 1.366 . S
C308 C309 1.414 . S
C308 C311 1.499 . S
C309 H283 0.950 . S
C309 C308 1.414 . S
C309 C310 1.374 . S
C310 H284 0.950 . S
C310 C306 1.385 . S
C310 C309 1.374 . S
C311 C308 1.499 . S
C311 C312 1.373 . S
C311 C313 1.389 . S
C312 H285 0.950 . S
C312 C298 1.377 . S
C312 C311 1.373 . S
C313 C297 1.377 . S
C313 C311 1.389 . S
C313 C314 1.524 . S
C314 C313 1.524 . S
C314 C315 1.397 . S
C314 C319 1.363 . S
C315 H286 0.950 . S
C315 C314 1.397 . S
C315 C316 1.334 . S
C316 H287 0.950 . S
C316 C315 1.334 . S
C316 C317 1.287 . S
C317 C316 1.287 . S
C317 C318 1.524 . S
C317 H320 0.999 . S
C318 H288 0.950 . S
C318 C317 1.524 . S
C318 C319 1.415 . S
C319 H289 0.950 . S
C319 C314 1.363 . S
C319 C318 1.415 . S
H320 C317 0.999 . S
H321 C302 0.913 . S
H322 C340 0.951 . S
H323 C342 0.951 . S
H324 C344 0.950 . S
H325 C345 0.950 . S
H326 C347 0.950 . S
H327 C350 0.950 . S
H328 C351 0.950 . S
H329 C353 0.950 . S
H330 C354 0.950 . S
H331 C355 0.951 . S
H332 C357 0.951 . S
H333 C359 0.950 . S
H334 C360 0.950 . S
H335 C362 0.950 . S
H336 C365 0.950 . S
H337 C366 0.950 . S
H338 C368 0.950 1_545 S
H339 C369 0.950 . S
C340 H322 0.951 . S
C340 C341 1.366 . S
C340 C342 1.388 1_556 S
C341 C340 1.366 . S
C341 C345 1.385 . S
C342 H323 0.951 . S
C342 C340 1.388 1_554 S
C342 C343 1.366 . S
C343 C342 1.366 . S
C343 C344 1.414 . S
C343 C346 1.499 . S
C344 H324 0.950 . S
C344 C343 1.414 . S
C344 C345 1.374 1_554 S
C345 H325 0.950 . S
C345 C341 1.385 . S
C345 C344 1.374 1_556 S
C346 C343 1.499 . S
C346 C347 1.373 . S
C346 C348 1.389 . S
C347 H326 0.950 . S
C347 C346 1.373 . S
C347 C363 1.377 . S
C348 C346 1.389 . S
C348 C349 1.524 . S
C348 C362 1.377 . S
C349 C348 1.524 . S
C349 C350 1.397 . S
C349 C354 1.363 . S
C350 H327 0.950 . S
C350 C349 1.397 . S
C350 C351 1.334 . S
C351 H328 0.950 . S
C351 C350 1.334 . S
C351 C352 1.287 . S
C352 C351 1.287 . S
C352 C353 1.524 . S
C352 H371 0.913 . S
C353 H329 0.950 . S
C353 C352 1.524 . S
C353 C354 1.415 . S
C354 H330 0.950 . S
C354 C349 1.363 . S
C354 C353 1.415 . S
C355 H331 0.951 . S
C355 C356 1.366 . S
C355 C357 1.388 . S
C356 C355 1.366 . S
C356 C360 1.385 . S
C357 H332 0.951 . S
C357 C355 1.388 . S
C357 C358 1.366 . S
C358 C357 1.366 . S
C358 C359 1.414 . S
C358 C361 1.499 . S
C359 H333 0.950 . S
C359 C358 1.414 . S
C359 C360 1.374 . S
C360 H334 0.950 . S
C360 C356 1.385 . S
C360 C359 1.374 . S
C361 C358 1.499 . S
C361 C362 1.373 . S
C361 C363 1.389 . S
C362 H335 0.950 . S
C362 C348 1.377 . S
C362 C361 1.373 . S
C363 C347 1.377 . S
C363 C361 1.389 . S
C363 C364 1.524 . S
C364 C363 1.524 . S
C364 C365 1.397 . S
C364 C369 1.363 . S
C365 H336 0.950 . S
C365 C364 1.397 . S
C365 C366 1.334 . S
C366 H337 0.950 . S
C366 C365 1.334 . S
C366 C367 1.287 . S
C367 C366 1.287 . S
C367 C368 1.524 . S
C367 H370 0.999 . S
C368 H338 0.950 1_565 S
C368 C367 1.524 . S
C368 C369 1.415 . S
C369 H339 0.950 . S
C369 C364 1.363 . S
C369 C368 1.415 . S
H370 C367 0.999 . S
H371 C352 0.913 . S
H372 C390 0.951 . S
H373 C392 0.951 . S
H374 C394 0.950 . S
H375 C395 0.950 . S
H376 C397 0.950 . S
H377 C400 0.950 . S
H378 C401 0.950 . S
H379 C403 0.950 . S
H380 C404 0.950 . S
H381 C405 0.951 . S
H382 C407 0.951 . S
H383 C409 0.950 . S
H384 C410 0.950 . S
H385 C412 0.950 . S
H386 C415 0.950 . S
H387 C416 0.950 1_554 S
H388 C418 0.950 . S
H389 C419 0.950 . S
C390 H372 0.951 . S
C390 C391 1.366 . S
C390 C392 1.388 . S
C391 C390 1.366 . S
C391 C395 1.385 . S
C392 H373 0.951 . S
C392 C390 1.388 . S
C392 C393 1.366 . S
C393 C392 1.366 . S
C393 C394 1.414 . S
C393 C396 1.499 . S
C394 H374 0.950 . S
C394 C393 1.414 . S
C394 C395 1.374 . S
C395 H375 0.950 . S
C395 C391 1.385 . S
C395 C394 1.374 . S
C396 C393 1.499 . S
C396 C397 1.373 . S
C396 C398 1.389 . S
C397 H376 0.950 . S
C397 C396 1.373 . S
C397 C413 1.377 . S
C398 C396 1.389 . S
C398 C399 1.524 . S
C398 C412 1.377 . S
C399 C398 1.524 . S
C399 C400 1.397 . S
C399 C404 1.363 . S
C400 H377 0.950 . S
C400 C399 1.397 . S
C400 C401 1.334 . S
C401 H378 0.950 . S
C401 C400 1.334 . S
C401 C402 1.287 . S
C402 C401 1.287 . S
C402 C403 1.524 . S
C402 H421 0.913 . S
C403 H379 0.950 . S
C403 C402 1.524 . S
C403 C404 1.415 . S
C404 H380 0.950 . S
C404 C399 1.363 . S
C404 C403 1.415 . S
C405 H381 0.951 . S
C405 C406 1.366 . S
C405 C407 1.388 1_554 S
C406 C405 1.366 . S
C406 C410 1.385 . S
C407 H382 0.951 . S
C407 C405 1.388 1_556 S
C407 C408 1.366 . S
C408 C407 1.366 . S
C408 C409 1.414 . S
C408 C411 1.499 . S
C409 H383 0.950 . S
C409 C408 1.414 . S
C409 C410 1.374 1_556 S
C410 H384 0.950 . S
C410 C406 1.385 . S
C410 C409 1.374 1_554 S
C411 C408 1.499 . S
C411 C412 1.373 . S
C411 C413 1.389 . S
C412 H385 0.950 . S
C412 C398 1.377 . S
C412 C411 1.373 . S
C413 C397 1.377 . S
C413 C411 1.389 . S
C413 C414 1.524 . S
C414 C413 1.524 . S
C414 C415 1.397 . S
C414 C419 1.363 . S
C415 H386 0.950 . S
C415 C414 1.397 . S
C415 C416 1.334 . S
C416 H387 0.950 1_556 S
C416 C415 1.334 . S
C416 C417 1.287 . S
C417 C416 1.287 . S
C417 C418 1.524 . S
C417 H420 0.999 1_556 S
C418 H388 0.950 . S
C418 C417 1.524 . S
C418 C419 1.415 . S
C419 H389 0.950 . S
C419 C414 1.363 . S
C419 C418 1.415 . S
H420 C417 0.999 1_554 S
H421 C402 0.913 . S
H422 C440 0.951 . S
H423 C442 0.951 . S
H424 C444 0.950 . S
H425 C445 0.950 . S
H426 C447 0.950 . S
H427 C450 0.950 . S
H428 C451 0.950 . S
H429 C453 0.950 . S
H430 C454 0.950 . S
H431 C455 0.951 . S
H432 C457 0.951 . S
H433 C459 0.950 . S
H434 C460 0.950 . S
H435 C462 0.950 . S
H436 C465 0.950 . S
H437 C466 0.950 . S
H438 C468 0.950 . S
H439 C469 0.950 . S
C440 H422 0.951 . S
C440 C441 1.366 . S
C440 C442 1.388 . S
C441 C440 1.366 . S
C441 C445 1.385 . S
C442 H423 0.951 . S
C442 C440 1.388 . S
C442 C443 1.366 . S
C443 C442 1.366 . S
C443 C444 1.414 . S
C443 C446 1.499 . S
C444 H424 0.950 . S
C444 C443 1.414 . S
C444 C445 1.374 . S
C445 H425 0.950 . S
C445 C441 1.385 . S
C445 C444 1.374 . S
C446 C443 1.499 . S
C446 C447 1.373 . S
C446 C448 1.389 . S
C447 H426 0.950 . S
C447 C446 1.373 . S
C447 C463 1.377 . S
C448 C446 1.389 . S
C448 C449 1.524 . S
C448 C462 1.377 . S
C449 C448 1.524 . S
C449 C450 1.397 . S
C449 C454 1.363 . S
C450 H427 0.950 . S
C450 C449 1.397 . S
C450 C451 1.334 . S
C451 H428 0.950 . S
C451 C450 1.334 . S
C451 C452 1.287 . S
C452 C451 1.287 . S
C452 C453 1.524 . S
C452 H471 0.913 . S
C453 H429 0.950 . S
C453 C452 1.524 . S
C453 C454 1.415 . S
C454 H430 0.950 . S
C454 C449 1.363 . S
C454 C453 1.415 . S
C455 H431 0.951 . S
C455 C456 1.366 . S
C455 C457 1.388 1_556 S
C456 C455 1.366 . S
C456 C460 1.385 . S
C457 H432 0.951 . S
C457 C455 1.388 1_554 S
C457 C458 1.366 . S
C458 C457 1.366 . S
C458 C459 1.414 . S
C458 C461 1.499 . S
C459 H433 0.950 . S
C459 C458 1.414 . S
C459 C460 1.374 1_554 S
C460 H434 0.950 . S
C460 C456 1.385 . S
C460 C459 1.374 1_556 S
C461 C458 1.499 . S
C461 C462 1.373 . S
C461 C463 1.389 . S
C462 H435 0.950 . S
C462 C448 1.377 . S
C462 C461 1.373 . S
C463 C447 1.377 . S
C463 C461 1.389 . S
C463 C464 1.524 . S
C464 C463 1.524 . S
C464 C465 1.397 . S
C464 C469 1.363 . S
C465 H436 0.950 . S
C465 C464 1.397 . S
C465 C466 1.334 . S
C466 H437 0.950 . S
C466 C465 1.334 . S
C466 C467 1.287 . S
C467 C466 1.287 . S
C467 C468 1.524 . S
C467 H470 0.999 . S
C468 H438 0.950 . S
C468 C467 1.524 . S
C468 C469 1.415 . S
C469 H439 0.950 . S
C469 C464 1.363 . S
C469 C468 1.415 . S
H470 C467 0.999 . S
H471 C452 0.913 . S
H472 C490 0.951 . S
H473 C492 0.951 . S
H474 C494 0.950 . S
H475 C495 0.950 . S
H476 C497 0.950 . S
H477 C500 0.950 . S
H478 C501 0.950 . S
H479 C503 0.950 . S
H480 C504 0.950 . S
H481 C505 0.951 . S
H482 C507 0.951 . S
H483 C509 0.950 . S
H484 C510 0.950 . S
H485 C512 0.950 . S
H486 C515 0.950 . S
H487 C516 0.950 . S
H488 C518 0.950 . S
H489 C519 0.950 . S
C490 H472 0.951 . S
C490 C491 1.366 . S
C490 C492 1.388 . S
C491 C490 1.366 . S
C491 C495 1.385 . S
C492 H473 0.951 . S
C492 C490 1.388 . S
C492 C493 1.366 . S
C493 C492 1.366 . S
C493 C494 1.414 . S
C493 C496 1.499 . S
C494 H474 0.950 . S
C494 C493 1.414 . S
C494 C495 1.374 . S
C495 H475 0.950 . S
C495 C491 1.385 . S
C495 C494 1.374 . S
C496 C493 1.499 . S
C496 C497 1.373 . S
C496 C498 1.389 . S
C497 H476 0.950 . S
C497 C496 1.373 . S
C497 C513 1.377 . S
C498 C496 1.389 . S
C498 C499 1.524 . S
C498 C512 1.377 . S
C499 C498 1.524 . S
C499 C500 1.397 . S
C499 C504 1.363 . S
C500 H477 0.950 . S
C500 C499 1.397 . S
C500 C501 1.334 . S
C501 H478 0.950 . S
C501 C500 1.334 . S
C501 C502 1.287 . S
C502 C501 1.287 . S
C502 C503 1.524 . S
C502 H521 0.913 . S
C503 H479 0.950 . S
C503 C502 1.524 . S
C503 C504 1.415 . S
C504 H480 0.950 . S
C504 C499 1.363 . S
C504 C503 1.415 . S
C505 H481 0.951 . S
C505 C506 1.366 . S
C505 C507 1.388 . S
C506 C505 1.366 . S
C506 C510 1.385 . S
C507 H482 0.951 . S
C507 C505 1.388 . S
C507 C508 1.366 . S
C508 C507 1.366 . S
C508 C509 1.414 . S
C508 C511 1.499 . S
C509 H483 0.950 . S
C509 C508 1.414 . S
C509 C510 1.374 . S
C510 H484 0.950 . S
C510 C506 1.385 . S
C510 C509 1.374 . S
C511 C508 1.499 . S
C511 C512 1.373 . S
C511 C513 1.389 . S
C512 H485 0.950 . S
C512 C498 1.377 . S
C512 C511 1.373 . S
C513 C497 1.377 . S
C513 C511 1.389 . S
C513 C514 1.524 . S
C514 C513 1.524 . S
C514 C515 1.397 . S
C514 C519 1.363 . S
C515 H486 0.950 . S
C515 C514 1.397 . S
C515 C516 1.334 . S
C516 H487 0.950 . S
C516 C515 1.334 . S
C516 C517 1.287 . S
C517 C516 1.287 . S
C517 C518 1.524 . S
C517 H520 0.999 . S
C518 H488 0.950 . S
C518 C517 1.524 . S
C518 C519 1.415 . S
C519 H489 0.950 . S
C519 C514 1.363 . S
C519 C518 1.415 . S
H520 C517 0.999 . S
H521 C502 0.913 . S
H522 C540 0.951 . S
H523 C542 0.951 . S
H524 C544 0.950 . S
H525 C545 0.950 . S
H526 C547 0.950 . S
H527 C550 0.950 . S
H528 C551 0.950 . S
H529 C553 0.950 . S
H530 C554 0.950 . S
H531 C555 0.951 . S
H532 C557 0.951 . S
H533 C559 0.950 . S
H534 C560 0.950 . S
H535 C562 0.950 . S
H536 C565 0.950 . S
H537 C566 0.950 . S
H538 C568 0.950 . S
H539 C569 0.950 . S
C540 H522 0.951 . S
C540 C541 1.366 . S
C540 C542 1.388 . S
C541 C540 1.366 . S
C541 C545 1.385 . S
C542 H523 0.951 . S
C542 C540 1.388 . S
C542 C543 1.366 . S
C543 C542 1.366 . S
C543 C544 1.414 . S
C543 C546 1.499 . S
C544 H524 0.950 . S
C544 C543 1.414 . S
C544 C545 1.374 . S
C545 H525 0.950 . S
C545 C541 1.385 . S
C545 C544 1.374 . S
C546 C543 1.499 . S
C546 C547 1.373 . S
C546 C548 1.389 . S
C547 H526 0.950 . S
C547 C546 1.373 . S
C547 C563 1.377 . S
C548 C546 1.389 . S
C548 C549 1.524 . S
C548 C562 1.377 . S
C549 C548 1.524 . S
C549 C550 1.397 . S
C549 C554 1.363 . S
C550 H527 0.950 . S
C550 C549 1.397 . S
C550 C551 1.334 . S
C551 H528 0.950 . S
C551 C550 1.334 . S
C551 C552 1.287 . S
C552 C551 1.287 . S
C552 C553 1.524 . S
C552 H571 0.913 . S
C553 H529 0.950 . S
C553 C552 1.524 . S
C553 C554 1.415 . S
C554 H530 0.950 . S
C554 C549 1.363 . S
C554 C553 1.415 . S
C555 H531 0.951 . S
C555 C556 1.366 . S
C555 C557 1.388 . S
C556 C555 1.366 . S
C556 C560 1.385 . S
C557 H532 0.951 . S
C557 C555 1.388 . S
C557 C558 1.366 . S
C558 C557 1.366 . S
C558 C559 1.414 . S
C558 C561 1.499 . S
C559 H533 0.950 . S
C559 C558 1.414 . S
C559 C560 1.374 . S
C560 H534 0.950 . S
C560 C556 1.385 . S
C560 C559 1.374 . S
C561 C558 1.499 . S
C561 C562 1.373 . S
C561 C563 1.389 . S
C562 H535 0.950 . S
C562 C548 1.377 . S
C562 C561 1.373 . S
C563 C547 1.377 . S
C563 C561 1.389 . S
C563 C564 1.524 . S
C564 C563 1.524 . S
C564 C565 1.397 . S
C564 C569 1.363 . S
C565 H536 0.950 . S
C565 C564 1.397 . S
C565 C566 1.334 . S
C566 H537 0.950 . S
C566 C565 1.334 . S
C566 C567 1.287 . S
C567 C566 1.287 . S
C567 C568 1.524 . S
C567 H570 0.999 . S
C568 H538 0.950 . S
C568 C567 1.524 . S
C568 C569 1.415 . S
C569 H539 0.950 . S
C569 C564 1.363 . S
C569 C568 1.415 . S
H570 C567 0.999 . S
H571 C552 0.913 . S
H572 C590 0.951 . S
H573 C592 0.951 . S
H574 C594 0.950 . S
H575 C595 0.950 . S
H576 C597 0.950 . S
H577 C600 0.950 . S
H578 C601 0.950 . S
H579 C603 0.950 . S
H580 C604 0.950 . S
H581 C605 0.951 . S
H582 C607 0.951 . S
H583 C609 0.950 . S
H584 C610 0.950 . S
H585 C612 0.950 . S
H586 C615 0.950 . S
H587 C616 0.950 . S
H588 C618 0.950 . S
H589 C619 0.950 . S
C590 H572 0.951 . S
C590 C591 1.366 . S
C590 C592 1.388 . S
C591 C590 1.366 . S
C591 C595 1.385 . S
C592 H573 0.951 . S
C592 C590 1.388 . S
C592 C593 1.366 . S
C593 C592 1.366 . S
C593 C594 1.414 . S
C593 C596 1.499 . S
C594 H574 0.950 . S
C594 C593 1.414 . S
C594 C595 1.374 . S
C595 H575 0.950 . S
C595 C591 1.385 . S
C595 C594 1.374 . S
C596 C593 1.499 . S
C596 C597 1.373 . S
C596 C598 1.389 . S
C597 H576 0.950 . S
C597 C596 1.373 . S
C597 C613 1.377 . S
C598 C596 1.389 . S
C598 C599 1.524 . S
C598 C612 1.377 . S
C599 C598 1.524 . S
C599 C600 1.397 . S
C599 C604 1.363 . S
C600 H577 0.950 . S
C600 C599 1.397 . S
C600 C601 1.334 . S
C601 H578 0.950 . S
C601 C600 1.334 . S
C601 C602 1.287 . S
C602 C601 1.287 . S
C602 C603 1.524 . S
C602 H621 0.913 . S
C603 H579 0.950 . S
C603 C602 1.524 . S
C603 C604 1.415 . S
C604 H580 0.950 . S
C604 C599 1.363 . S
C604 C603 1.415 . S
C605 H581 0.951 . S
C605 C606 1.366 . S
C605 C607 1.388 . S
C606 C605 1.366 . S
C606 C610 1.385 . S
C607 H582 0.951 . S
C607 C605 1.388 . S
C607 C608 1.366 . S
C608 C607 1.366 . S
C608 C609 1.414 . S
C608 C611 1.499 . S
C609 H583 0.950 . S
C609 C608 1.414 . S
C609 C610 1.374 . S
C610 H584 0.950 . S
C610 C606 1.385 . S
C610 C609 1.374 . S
C611 C608 1.499 . S
C611 C612 1.373 . S
C611 C613 1.389 . S
C612 H585 0.950 . S
C612 C598 1.377 . S
C612 C611 1.373 . S
C613 C597 1.377 . S
C613 C611 1.389 . S
C613 C614 1.524 . S
C614 C613 1.524 . S
C614 C615 1.397 . S
C614 C619 1.363 . S
C615 H586 0.950 . S
C615 C614 1.397 . S
C615 C616 1.334 . S
C616 H587 0.950 . S
C616 C615 1.334 . S
C616 C617 1.287 . S
C617 C616 1.287 . S
C617 C618 1.524 . S
C617 H620 0.999 . S
C618 H588 0.950 . S
C618 C617 1.524 . S
C618 C619 1.415 . S
C619 H589 0.950 . S
C619 C614 1.363 . S
C619 C618 1.415 . S
H620 C617 0.999 . S
H621 C602 0.913 . S
H622 C640 0.951 . S
H623 C642 0.951 . S
H624 C644 0.950 . S
H625 C645 0.950 . S
H626 C647 0.950 . S
H627 C650 0.950 . S
H628 C651 0.950 . S
H629 C653 0.950 . S
H630 C654 0.950 . S
H631 C655 0.951 . S
H632 C657 0.951 . S
H633 C659 0.950 . S
H634 C660 0.950 . S
H635 C662 0.950 . S
H636 C665 0.950 . S
H637 C666 0.950 . S
H638 C668 0.950 . S
H639 C669 0.950 . S
C640 H622 0.951 . S
C640 C641 1.366 . S
C640 C642 1.388 . S
C641 C640 1.366 . S
C641 C645 1.385 . S
C642 H623 0.951 . S
C642 C640 1.388 . S
C642 C643 1.366 . S
C643 C642 1.366 . S
C643 C644 1.414 . S
C643 C646 1.499 . S
C644 H624 0.950 . S
C644 C643 1.414 . S
C644 C645 1.374 . S
C645 H625 0.950 . S
C645 C641 1.385 . S
C645 C644 1.374 . S
C646 C643 1.499 . S
C646 C647 1.373 . S
C646 C648 1.389 . S
C647 H626 0.950 . S
C647 C646 1.373 . S
C647 C663 1.377 . S
C648 C646 1.389 . S
C648 C649 1.524 . S
C648 C662 1.377 . S
C649 C648 1.524 . S
C649 C650 1.397 . S
C649 C654 1.363 . S
C650 H627 0.950 . S
C650 C649 1.397 . S
C650 C651 1.334 . S
C651 H628 0.950 . S
C651 C650 1.334 . S
C651 C652 1.287 . S
C652 C651 1.287 . S
C652 C653 1.524 . S
C652 H671 0.913 . S
C653 H629 0.950 . S
C653 C652 1.524 . S
C653 C654 1.415 . S
C654 H630 0.950 . S
C654 C649 1.363 . S
C654 C653 1.415 . S
C655 H631 0.951 . S
C655 C656 1.366 . S
C655 C657 1.388 . S
C656 C655 1.366 . S
C656 C660 1.385 . S
C657 H632 0.951 . S
C657 C655 1.388 . S
C657 C658 1.366 . S
C658 C657 1.366 . S
C658 C659 1.414 . S
C658 C661 1.499 . S
C659 H633 0.950 . S
C659 C658 1.414 . S
C659 C660 1.374 . S
C660 H634 0.950 . S
C660 C656 1.385 . S
C660 C659 1.374 . S
C661 C658 1.499 . S
C661 C662 1.373 . S
C661 C663 1.389 . S
C662 H635 0.950 . S
C662 C648 1.377 . S
C662 C661 1.373 . S
C663 C647 1.377 . S
C663 C661 1.389 . S
C663 C664 1.524 . S
C664 C663 1.524 . S
C664 C665 1.397 . S
C664 C669 1.363 . S
C665 H636 0.950 . S
C665 C664 1.397 . S
C665 C666 1.334 . S
C666 H637 0.950 . S
C666 C665 1.334 . S
C666 C667 1.287 . S
C667 C666 1.287 . S
C667 C668 1.524 . S
C667 H670 0.999 . S
C668 H638 0.950 . S
C668 C667 1.524 . S
C668 C669 1.415 . S
C669 H639 0.950 . S
C669 C664 1.363 . S
C669 C668 1.415 . S
H670 C667 0.999 . S
H671 C652 0.913 . S
H672 C690 0.951 . S
H673 C692 0.951 . S
H674 C694 0.950 . S
H675 C695 0.950 . S
H676 C697 0.950 . S
H677 C700 0.950 . S
H678 C701 0.950 . S
H679 C703 0.950 . S
H680 C704 0.950 . S
H681 C705 0.951 . S
H682 C707 0.951 . S
H683 C709 0.950 1_556 S
H684 C710 0.950 . S
H685 C712 0.950 . S
H686 C715 0.950 . S
H687 C716 0.950 . S
H688 C718 0.950 . S
H689 C719 0.950 . S
C690 H672 0.951 . S
C690 C691 1.366 . S
C690 C692 1.388 . S
C691 C690 1.366 . S
C691 C695 1.385 . S
C692 H673 0.951 . S
C692 C690 1.388 . S
C692 C693 1.366 . S
C693 C692 1.366 . S
C693 C694 1.414 . S
C693 C696 1.499 . S
C694 H674 0.950 . S
C694 C693 1.414 . S
C694 C695 1.374 . S
C695 H675 0.950 . S
C695 C691 1.385 . S
C695 C694 1.374 . S
C696 C693 1.499 . S
C696 C697 1.373 . S
C696 C698 1.389 . S
C697 H676 0.950 . S
C697 C696 1.373 . S
C697 C713 1.377 1_556 S
C698 C696 1.389 . S
C698 C699 1.524 . S
C698 C712 1.377 . S
C699 C698 1.524 . S
C699 C700 1.397 . S
C699 C704 1.363 . S
C700 H677 0.950 . S
C700 C699 1.397 . S
C700 C701 1.334 . S
C701 H678 0.950 . S
C701 C700 1.334 . S
C701 C702 1.287 . S
C702 C701 1.287 . S
C702 C703 1.524 . S
C702 H721 0.913 . S
C703 H679 0.950 . S
C703 C702 1.524 . S
C703 C704 1.415 . S
C704 H680 0.950 . S
C704 C699 1.363 . S
C704 C703 1.415 . S
C705 H681 0.951 . S
C705 C706 1.366 . S
C705 C707 1.388 . S
C706 C705 1.366 . S
C706 C710 1.385 . S
C707 H682 0.951 . S
C707 C705 1.388 . S
C707 C708 1.366 . S
C708 C707 1.366 . S
C708 C709 1.414 . S
C708 C711 1.499 . S
C709 H683 0.950 1_554 S
C709 C708 1.414 . S
C709 C710 1.374 . S
C710 H684 0.950 . S
C710 C706 1.385 . S
C710 C709 1.374 . S
C711 C708 1.499 . S
C711 C712 1.373 1_554 S
C711 C713 1.389 . S
C712 H685 0.950 . S
C712 C698 1.377 . S
C712 C711 1.373 1_556 S
C713 C697 1.377 1_554 S
C713 C711 1.389 . S
C713 C714 1.524 . S
C714 C713 1.524 . S
C714 C715 1.397 . S
C714 C719 1.363 . S
C715 H686 0.950 . S
C715 C714 1.397 . S
C715 C716 1.334 . S
C716 H687 0.950 . S
C716 C715 1.334 . S
C716 C717 1.287 . S
C717 C716 1.287 . S
C717 C718 1.524 . S
C717 H720 0.999 . S
C718 H688 0.950 . S
C718 C717 1.524 . S
C718 C719 1.415 . S
C719 H689 0.950 . S
C719 C714 1.363 . S
C719 C718 1.415 . S
H720 C717 0.999 . S
H721 C702 0.913 . S
H722 C740 0.951 . S
H723 C742 0.951 . S
H724 C744 0.950 . S
H725 C745 0.950 . S
H726 C747 0.950 . S
H727 C750 0.950 . S
H728 C751 0.950 . S
H729 C753 0.950 . S
H730 C754 0.950 . S
H731 C755 0.951 . S
H732 C757 0.951 . S
H733 C759 0.951 1_554 S
H734 C760 0.950 . S
H735 C762 0.950 . S
H736 C765 0.950 1_554 S
H737 C766 0.950 . S
H738 C768 0.950 . S
H739 C769 0.950 . S
C740 H722 0.951 . S
C740 C741 1.366 . S
C740 C742 1.388 . S
C741 C740 1.366 . S
C741 C745 1.385 . S
C742 H723 0.951 . S
C742 C740 1.388 . S
C742 C743 1.366 . S
C743 C742 1.366 . S
C743 C744 1.414 . S
C743 C746 1.499 . S
C744 H724 0.950 . S
C744 C743 1.414 . S
C744 C745 1.374 . S
C745 H725 0.950 . S
C745 C741 1.385 . S
C745 C744 1.374 . S
C746 C743 1.499 . S
C746 C747 1.373 . S
C746 C748 1.389 . S
C747 H726 0.950 . S
C747 C746 1.373 . S
C747 C763 1.380 . S
C748 C746 1.389 . S
C748 C749 1.524 . S
C748 C762 1.377 . S
C749 C748 1.524 . S
C749 C750 1.397 . S
C749 C754 1.363 . S
C750 H727 0.950 . S
C750 C749 1.397 . S
C750 C751 1.334 . S
C751 H728 0.950 . S
C751 C750 1.334 . S
C751 C752 1.287 . S
C752 C751 1.287 . S
C752 C753 1.524 . S
C752 H771 0.913 . S
C753 H729 0.950 . S
C753 C752 1.524 . S
C753 C754 1.415 . S
C754 H730 0.950 . S
C754 C749 1.363 . S
C754 C753 1.415 . S
C755 H731 0.951 . S
C755 C756 1.366 . S
C755 C757 1.388 . S
C756 C755 1.366 . S
C756 C760 1.385 . S
C757 H732 0.951 . S
C757 C755 1.388 . S
C757 C758 1.366 . S
C758 C757 1.366 . S
C758 C759 1.414 . S
C758 C761 1.499 . S
C759 H733 0.951 1_556 S
C759 C758 1.414 . S
C759 C760 1.374 . S
C760 H734 0.950 . S
C760 C756 1.385 . S
C760 C759 1.374 . S
C761 C758 1.499 . S
C761 C762 1.373 1_556 S
C761 C763 1.388 1_556 S
C762 H735 0.950 . S
C762 C748 1.377 . S
C762 C761 1.373 1_554 S
C763 C747 1.380 . S
C763 C761 1.388 1_554 S
C763 C764 1.523 1_554 S
C764 C763 1.523 1_556 S
C764 C765 1.397 . S
C764 C769 1.363 . S
C765 H736 0.950 1_556 S
C765 C764 1.397 . S
C765 C766 1.334 . S
C766 H737 0.950 . S
C766 C765 1.334 . S
C766 C767 1.287 . S
C767 C766 1.287 . S
C767 C768 1.524 . S
C767 H770 0.999 . S
C768 H738 0.950 . S
C768 C767 1.524 . S
C768 C769 1.415 . S
C769 H739 0.950 . S
C769 C764 1.363 . S
C769 C768 1.415 . S
H770 C767 0.999 . S
H771 C752 0.913 . S
H772 C790 0.951 . S
H773 C792 0.951 . S
H774 C794 0.950 . S
H775 C795 0.950 . S
H776 C797 0.950 . S
H777 C800 0.950 . S
H778 C801 0.950 . S
H779 C803 0.950 . S
H780 C804 0.950 . S
H781 C805 0.951 . S
H782 C807 0.951 . S
H783 C809 0.950 . S
H784 C810 0.950 . S
H785 C812 0.950 . S
H786 C815 0.950 . S
H787 C816 0.950 . S
H788 C818 0.950 . S
H789 C819 0.950 . S
C790 H772 0.951 . S
C790 C791 1.366 . S
C790 C792 1.388 . S
C791 C790 1.366 . S
C791 C795 1.385 . S
C792 H773 0.951 . S
C792 C790 1.388 . S
C792 C793 1.366 . S
C793 C792 1.366 . S
C793 C794 1.414 . S
C793 C796 1.499 . S
C794 H774 0.950 . S
C794 C793 1.414 . S
C794 C795 1.374 . S
C795 H775 0.950 . S
C795 C791 1.385 . S
C795 C794 1.374 . S
C796 C793 1.499 . S
C796 C797 1.373 . S
C796 C798 1.389 . S
C797 H776 0.950 . S
C797 C796 1.373 . S
C797 C813 1.377 1_556 S
C798 C796 1.389 . S
C798 C799 1.524 . S
C798 C812 1.377 . S
C799 C798 1.524 . S
C799 C800 1.397 . S
C799 C804 1.363 . S
C800 H777 0.950 . S
C800 C799 1.397 . S
C800 C801 1.334 . S
C801 H778 0.950 . S
C801 C800 1.334 . S
C801 C802 1.287 . S
C802 C801 1.287 . S
C802 C803 1.524 . S
C802 H821 0.913 . S
C803 H779 0.950 . S
C803 C802 1.524 . S
C803 C804 1.415 . S
C804 H780 0.950 . S
C804 C799 1.363 . S
C804 C803 1.415 . S
C805 H781 0.951 . S
C805 C806 1.366 . S
C805 C807 1.388 . S
C806 C805 1.366 . S
C806 C810 1.385 . S
C807 H782 0.951 . S
C807 C805 1.388 . S
C807 C808 1.366 . S
C808 C807 1.366 . S
C808 C809 1.414 . S
C808 C811 1.499 . S
C809 H783 0.950 . S
C809 C808 1.414 . S
C809 C810 1.374 . S
C810 H784 0.950 . S
C810 C806 1.385 . S
C810 C809 1.374 . S
C811 C808 1.499 . S
C811 C812 1.373 1_554 S
C811 C813 1.389 . S
C812 H785 0.950 . S
C812 C798 1.377 . S
C812 C811 1.373 1_556 S
C813 C797 1.377 1_554 S
C813 C811 1.389 . S
C813 C814 1.524 . S
C814 C813 1.524 . S
C814 C815 1.397 . S
C814 C819 1.363 . S
C815 H786 0.950 . S
C815 C814 1.397 . S
C815 C816 1.334 . S
C816 H787 0.950 . S
C816 C815 1.334 . S
C816 C817 1.287 . S
C817 C816 1.287 . S
C817 C818 1.524 . S
C817 H820 0.999 . S
C818 H788 0.950 . S
C818 C817 1.524 . S
C818 C819 1.415 . S
C819 H789 0.950 . S
C819 C814 1.363 . S
C819 C818 1.415 . S
H820 C817 0.999 . S
H821 C802 0.913 . S
H822 C840 0.951 . S
H823 C842 0.951 1_554 S
H824 C844 0.950 . S
H825 C845 0.950 . S
H826 C847 0.950 . S
H827 C850 0.950 . S
H828 C851 0.950 . S
H829 C853 0.950 . S
H830 C854 0.950 . S
H831 C855 0.951 . S
H832 C857 0.951 . S
H833 C859 0.950 . S
H834 C860 0.950 . S
H835 C862 0.950 . S
H836 C865 0.950 . S
H837 C866 0.950 . S
H838 C868 0.950 . S
H839 C869 0.950 . S
C840 H822 0.951 . S
C840 C841 1.366 . S
C840 C842 1.388 . S
C841 C840 1.366 . S
C841 C845 1.385 . S
C842 H823 0.951 1_556 S
C842 C840 1.388 . S
C842 C843 1.366 . S
C843 C842 1.366 . S
C843 C844 1.414 . S
C843 C846 1.499 . S
C844 H824 0.950 . S
C844 C843 1.414 . S
C844 C845 1.374 . S
C845 H825 0.950 . S
C845 C841 1.385 . S
C845 C844 1.374 . S
C846 C843 1.499 . S
C846 C847 1.373 . S
C846 C848 1.389 1_556 S
C847 H826 0.950 . S
C847 C846 1.373 . S
C847 C863 1.377 1_556 S
C848 C846 1.389 1_554 S
C848 C849 1.524 . S
C848 C862 1.377 . S
C849 C848 1.524 . S
C849 C850 1.397 1_554 S
C849 C854 1.363 . S
C850 H827 0.950 . S
C850 C849 1.397 1_556 S
C850 C851 1.334 . S
C851 H828 0.950 . S
C851 C850 1.334 . S
C851 C852 1.287 . S
C852 C851 1.287 . S
C852 C853 1.524 1_556 S
C852 H871 0.913 . S
C853 H829 0.950 . S
C853 C852 1.524 1_554 S
C853 C854 1.415 . S
C854 H830 0.950 . S
C854 C849 1.363 . S
C854 C853 1.415 . S
C855 H831 0.951 . S
C855 C856 1.366 . S
C855 C857 1.388 . S
C856 C855 1.366 . S
C856 C860 1.385 . S
C857 H832 0.951 . S
C857 C855 1.388 . S
C857 C858 1.366 . S
C858 C857 1.366 . S
C858 C859 1.414 . S
C858 C861 1.499 . S
C859 H833 0.950 . S
C859 C858 1.414 . S
C859 C860 1.374 . S
C860 H834 0.950 . S
C860 C856 1.385 . S
C860 C859 1.374 . S
C861 C858 1.499 . S
C861 C862 1.373 . S
C861 C863 1.389 . S
C862 H835 0.950 . S
C862 C848 1.377 . S
C862 C861 1.373 . S
C863 C847 1.377 1_554 S
C863 C861 1.389 . S
C863 C864 1.524 . S
C864 C863 1.524 . S
C864 C865 1.397 . S
C864 C869 1.363 1_554 S
C865 H836 0.950 . S
C865 C864 1.397 . S
C865 C866 1.334 . S
C866 H837 0.950 . S
C866 C865 1.334 . S
C866 C867 1.287 . S
C867 C866 1.287 . S
C867 C868 1.524 1_554 S
C867 H870 0.999 . S
C868 H838 0.950 . S
C868 C867 1.524 1_556 S
C868 C869 1.415 . S
C869 H839 0.950 . S
C869 C864 1.363 1_556 S
C869 C868 1.415 . S
H870 C867 0.999 . S
H871 C852 0.913 . S
H872 C890 0.951 . S
H873 C892 0.951 . S
H874 C894 0.950 . S
H875 C895 0.950 . S
H876 C897 0.950 . S
H877 C900 0.950 . S
H878 C901 0.950 . S
H879 C903 0.950 . S
H880 C904 0.950 . S
H881 C905 0.951 . S
H882 C907 0.951 . S
H883 C909 0.950 . S
H884 C910 0.950 . S
H885 C912 0.950 . S
H886 C915 0.950 . S
H887 C916 0.950 1_455 S
H888 C918 0.950 . S
H889 C919 0.950 . S
C890 H872 0.951 . S
C890 C891 1.366 . S
C890 C892 1.388 . S
C891 C890 1.366 . S
C891 C895 1.385 . S
C892 H873 0.951 . S
C892 C890 1.388 . S
C892 C893 1.366 . S
C893 C892 1.366 . S
C893 C894 1.414 . S
C893 C896 1.499 . S
C894 H874 0.950 . S
C894 C893 1.414 . S
C894 C895 1.374 . S
C895 H875 0.950 . S
C895 C891 1.385 . S
C895 C894 1.374 . S
C896 C893 1.499 . S
C896 C897 1.373 . S
C896 C898 1.389 . S
C897 H876 0.950 . S
C897 C896 1.373 . S
C897 C913 1.377 . S
C898 C896 1.389 . S
C898 C899 1.524 . S
C898 C912 1.377 . S
C899 C898 1.524 . S
C899 C900 1.397 . S
C899 C904 1.363 . S
C900 H877 0.950 . S
C900 C899 1.397 . S
C900 C901 1.334 . S
C901 H878 0.950 . S
C901 C900 1.334 . S
C901 C902 1.287 . S
C902 C901 1.287 . S
C902 C903 1.524 . S
C902 H921 0.913 . S
C903 H879 0.950 . S
C903 C902 1.524 . S
C903 C904 1.415 . S
C904 H880 0.950 . S
C904 C899 1.363 . S
C904 C903 1.415 . S
C905 H881 0.951 . S
C905 C906 1.366 . S
C905 C907 1.388 . S
C906 C905 1.366 . S
C906 C910 1.385 1_455 S
C907 H882 0.951 . S
C907 C905 1.388 . S
C907 C908 1.366 1_455 S
C908 C907 1.366 1_655 S
C908 C909 1.414 . S
C908 C911 1.499 . S
C909 H883 0.950 . S
C909 C908 1.414 . S
C909 C910 1.374 . S
C910 H884 0.950 . S
C910 C906 1.385 1_655 S
C910 C909 1.374 . S
C911 C908 1.499 . S
C911 C912 1.373 . S
C911 C913 1.389 . S
C912 H885 0.950 . S
C912 C898 1.377 . S
C912 C911 1.373 . S
C913 C897 1.377 . S
C913 C911 1.389 . S
C913 C914 1.524 . S
C914 C913 1.524 . S
C914 C915 1.397 . S
C914 C919 1.363 . S
C915 H886 0.950 . S
C915 C914 1.397 . S
C915 C916 1.334 . S
C916 H887 0.950 1_655 S
C916 C915 1.334 . S
C916 C917 1.287 1_655 S
C917 C916 1.287 1_455 S
C917 C918 1.524 . S
C917 H920 0.999 . S
C918 H888 0.950 . S
C918 C917 1.524 . S
C918 C919 1.415 1_455 S
C919 H889 0.950 . S
C919 C914 1.363 . S
C919 C918 1.415 1_655 S
H920 C917 0.999 . S
H921 C902 0.913 . S
H922 C940 0.951 . S
H923 C942 0.951 . S
H924 C944 0.950 . S
H925 C945 0.950 . S
H926 C947 0.950 . S
H927 C950 0.950 . S
H928 C951 0.950 . S
H929 C953 0.950 . S
H930 C954 0.950 . S
H931 C955 0.951 . S
H932 C957 0.951 . S
H933 C959 0.950 . S
H934 C960 0.950 . S
H935 C962 0.950 . S
H936 C965 0.950 . S
H937 C966 0.950 . S
H938 C968 0.950 . S
H939 C969 0.950 . S
C940 H922 0.951 . S
C940 C941 1.366 . S
C940 C942 1.388 . S
C941 C940 1.366 . S
C941 C945 1.385 . S
C942 H923 0.951 . S
C942 C940 1.388 . S
C942 C943 1.366 . S
C943 C942 1.366 . S
C943 C944 1.414 . S
C943 C946 1.499 . S
C944 H924 0.950 . S
C944 C943 1.414 . S
C944 C945 1.374 . S
C945 H925 0.950 . S
C945 C941 1.385 . S
C945 C944 1.374 . S
C946 C943 1.499 . S
C946 C947 1.373 . S
C946 C948 1.389 . S
C947 H926 0.950 . S
C947 C946 1.373 . S
C947 C963 1.377 . S
C948 C946 1.389 . S
C948 C949 1.524 . S
C948 C962 1.377 . S
C949 C948 1.524 . S
C949 C950 1.397 . S
C949 C954 1.363 . S
C950 H927 0.950 . S
C950 C949 1.397 . S
C950 C951 1.334 . S
C951 H928 0.950 . S
C951 C950 1.334 . S
C951 C952 1.287 . S
C952 C951 1.287 . S
C952 C953 1.524 . S
C952 H971 0.913 . S
C953 H929 0.950 . S
C953 C952 1.524 . S
C953 C954 1.415 . S
C954 H930 0.950 . S
C954 C949 1.363 . S
C954 C953 1.415 . S
C955 H931 0.951 . S
C955 C956 1.366 . S
C955 C957 1.388 1_565 S
C956 C955 1.366 . S
C956 C960 1.385 . S
C957 H932 0.951 . S
C957 C955 1.388 1_545 S
C957 C958 1.366 . S
C958 C957 1.366 . S
C958 C959 1.414 . S
C958 C961 1.499 . S
C959 H933 0.950 . S
C959 C958 1.414 . S
C959 C960 1.374 1_545 S
C960 H934 0.950 . S
C960 C956 1.385 . S
C960 C959 1.374 1_565 S
C961 C958 1.499 . S
C961 C962 1.373 . S
C961 C963 1.389 . S
C962 H935 0.950 . S
C962 C948 1.377 . S
C962 C961 1.373 . S
C963 C947 1.377 . S
C963 C961 1.389 . S
C963 C964 1.524 . S
C964 C963 1.524 . S
C964 C965 1.397 1_545 S
C964 C969 1.363 . S
C965 H936 0.950 . S
C965 C964 1.397 1_565 S
C965 C966 1.334 . S
C966 H937 0.950 . S
C966 C965 1.334 . S
C966 C967 1.287 . S
C967 C966 1.287 . S
C967 C968 1.524 . S
C967 H970 0.999 . S
C968 H938 0.950 . S
C968 C967 1.524 . S
C968 C969 1.415 1_565 S
C969 H939 0.950 . S
C969 C964 1.363 . S
C969 C968 1.415 1_545 S
H970 C967 0.999 . S
H971 C952 0.913 . S
H972 C990 0.951 . S
H973 C992 0.951 . S
H974 C994 0.950 . S
H975 C995 0.950 . S
H976 C997 0.950 . S
H977 C1000 0.950 . S
H978 C1001 0.950 . S
H979 C1003 0.950 . S
H980 C1004 0.950 . S
H981 C1005 0.951 . S
H982 C1007 0.951 1_455 S
H983 C1009 0.950 . S
H984 C1010 0.950 . S
H985 C1012 0.950 . S
H986 C1015 0.950 . S
H987 C1016 0.950 . S
H988 C1018 0.950 . S
H989 C1019 0.950 . S
C990 H972 0.951 . S
C990 C991 1.366 . S
C990 C992 1.388 . S
C991 C990 1.366 . S
C991 C995 1.385 . S
C992 H973 0.951 . S
C992 C990 1.388 . S
C992 C993 1.366 . S
C993 C992 1.366 . S
C993 C994 1.414 . S
C993 C996 1.499 . S
C994 H974 0.950 . S
C994 C993 1.414 . S
C994 C995 1.374 . S
C995 H975 0.950 . S
C995 C991 1.385 . S
C995 C994 1.374 . S
C996 C993 1.499 . S
C996 C997 1.373 . S
C996 C998 1.389 . S
C997 H976 0.950 . S
C997 C996 1.373 . S
C997 C1013 1.377 . S
C998 C996 1.389 . S
C998 C999 1.524 . S
C998 C1012 1.377 . S
C999 C998 1.524 . S
C999 C1000 1.397 . S
C999 C1004 1.363 . S
C1000 H977 0.950 . S
C1000 C999 1.397 . S
C1000 C1001 1.334 . S
C1001 H978 0.950 . S
C1001 C1000 1.334 . S
C1001 C1002 1.287 . S
C1002 C1001 1.287 . S
C1002 C1003 1.524 . S
C1002 H1021 0.913 . S
C1003 H979 0.950 . S
C1003 C1002 1.524 . S
C1003 C1004 1.415 . S
C1004 H980 0.950 . S
C1004 C999 1.363 . S
C1004 C1003 1.415 . S
C1005 H981 0.951 . S
C1005 C1006 1.366 . S
C1005 C1007 1.390 . S
C1006 C1005 1.366 . S
C1006 C1010 1.385 . S
C1007 H982 0.951 1_655 S
C1007 C1005 1.390 . S
C1007 C1008 1.363 1_655 S
C1008 C1007 1.363 1_455 S
C1008 C1009 1.414 . S
C1008 C1011 1.499 . S
C1009 H983 0.950 . S
C1009 C1008 1.414 . S
C1009 C1010 1.374 1_455 S
C1010 H984 0.950 . S
C1010 C1006 1.385 . S
C1010 C1009 1.374 1_655 S
C1011 C1008 1.499 . S
C1011 C1012 1.373 . S
C1011 C1013 1.389 . S
C1012 H985 0.950 . S
C1012 C998 1.377 . S
C1012 C1011 1.373 . S
C1013 C997 1.377 . S
C1013 C1011 1.389 . S
C1013 C1014 1.524 . S
C1014 C1013 1.524 . S
C1014 C1015 1.397 . S
C1014 C1019 1.363 . S
C1015 H986 0.950 . S
C1015 C1014 1.397 . S
C1015 C1016 1.334 . S
C1016 H987 0.950 . S
C1016 C1015 1.334 . S
C1016 C1017 1.287 . S
C1017 C1016 1.287 . S
C1017 C1018 1.524 . S
C1017 H1020 0.999 . S
C1018 H988 0.950 . S
C1018 C1017 1.524 . S
C1018 C1019 1.415 . S
C1019 H989 0.950 . S
C1019 C1014 1.363 . S
C1019 C1018 1.415 . S
H1020 C1017 0.999 . S
H1021 C1002 0.913 . S
H1022 C1040 0.954 . S
H1023 C1042 0.951 . S
H1024 C1044 0.950 . S
H1025 C1045 0.950 . S
H1026 C1047 0.950 . S
H1027 C1050 0.950 . S
H1028 C1051 0.950 . S
H1029 C1053 0.950 . S
H1030 C1054 0.950 . S
H1031 C1055 0.951 . S
H1032 C1057 0.951 . S
H1033 C1059 0.950 . S
H1034 C1060 0.950 . S
H1035 C1062 0.950 . S
H1036 C1065 0.950 . S
H1037 C1066 0.950 . S
H1038 C1068 0.950 . S
H1039 C1069 0.950 . S
C1040 H1022 0.954 . S
C1040 C1041 1.347 1_565 S
C1040 C1042 1.403 . S
C1041 C1040 1.347 1_545 S
C1041 C1045 1.385 . S
C1042 H1023 0.951 . S
C1042 C1040 1.403 . S
C1042 C1043 1.366 . S
C1043 C1042 1.366 . S
C1043 C1044 1.414 1_565 S
C1043 C1046 1.499 . S
C1044 H1024 0.950 . S
C1044 C1043 1.414 1_545 S
C1044 C1045 1.374 . S
C1045 H1025 0.950 . S
C1045 C1041 1.385 . S
C1045 C1044 1.374 . S
C1046 C1043 1.499 . S
C1046 C1047 1.373 . S
C1046 C1048 1.389 . S
C1047 H1026 0.950 . S
C1047 C1046 1.373 . S
C1047 C1063 1.377 . S
C1048 C1046 1.389 . S
C1048 C1049 1.524 . S
C1048 C1062 1.377 . S
C1049 C1048 1.524 . S
C1049 C1050 1.397 . S
C1049 C1054 1.363 . S
C1050 H1027 0.950 . S
C1050 C1049 1.397 . S
C1050 C1051 1.334 . S
C1051 H1028 0.950 . S
C1051 C1050 1.334 . S
C1051 C1052 1.287 . S
C1052 C1051 1.287 . S
C1052 C1053 1.524 . S
C1052 H1071 0.913 . S
C1053 H1029 0.950 . S
C1053 C1052 1.524 . S
C1053 C1054 1.415 . S
C1054 H1030 0.950 . S
C1054 C1049 1.363 . S
C1054 C1053 1.415 . S
C1055 H1031 0.951 . S
C1055 C1056 1.366 . S
C1055 C1057 1.388 . S
C1056 C1055 1.366 . S
C1056 C1060 1.385 . S
C1057 H1032 0.951 . S
C1057 C1055 1.388 . S
C1057 C1058 1.366 . S
C1058 C1057 1.366 . S
C1058 C1059 1.414 . S
C1058 C1061 1.499 . S
C1059 H1033 0.950 . S
C1059 C1058 1.414 . S
C1059 C1060 1.374 . S
C1060 H1034 0.950 . S
C1060 C1056 1.385 . S
C1060 C1059 1.374 . S
C1061 C1058 1.499 . S
C1061 C1062 1.373 . S
C1061 C1063 1.389 . S
C1062 H1035 0.950 . S
C1062 C1048 1.377 . S
C1062 C1061 1.373 . S
C1063 C1047 1.377 . S
C1063 C1061 1.389 . S
C1063 C1064 1.524 . S
C1064 C1063 1.524 . S
C1064 C1065 1.397 . S
C1064 C1069 1.363 . S
C1065 H1036 0.950 . S
C1065 C1064 1.397 . S
C1065 C1066 1.334 . S
C1066 H1037 0.950 . S
C1066 C1065 1.334 . S
C1066 C1067 1.287 . S
C1067 C1066 1.287 . S
C1067 C1068 1.524 . S
C1067 H1070 0.999 . S
C1068 H1038 0.950 . S
C1068 C1067 1.524 . S
C1068 C1069 1.415 . S
C1069 H1039 0.950 . S
C1069 C1064 1.363 . S
C1069 C1068 1.415 . S
H1070 C1067 0.999 . S
H1071 C1052 0.913 . S
H1072 C1090 0.951 . S
H1073 C1092 0.951 . S
H1074 C1094 0.950 . S
H1075 C1095 0.950 . S
H1076 C1097 0.950 . S
H1077 C1100 0.950 . S
H1078 C1101 0.950 . S
H1079 C1103 0.950 . S
H1080 C1104 0.950 . S
H1081 C1105 0.951 . S
H1082 C1107 0.951 . S
H1083 C1109 0.950 . S
H1084 C1110 0.950 . S
H1085 C1112 0.950 . S
H1086 C1115 0.950 . S
H1087 C1116 0.950 . S
H1088 C1118 0.950 . S
H1089 C1119 0.950 . S
C1090 H1072 0.951 . S
C1090 C1091 1.366 . S
C1090 C1092 1.388 . S
C1091 C1090 1.366 . S
C1091 C1095 1.385 . S
C1092 H1073 0.951 . S
C1092 C1090 1.388 . S
C1092 C1093 1.366 . S
C1093 C1092 1.366 . S
C1093 C1094 1.414 . S
C1093 C1096 1.499 . S
C1094 H1074 0.950 . S
C1094 C1093 1.414 . S
C1094 C1095 1.374 . S
C1095 H1075 0.950 . S
C1095 C1091 1.385 . S
C1095 C1094 1.374 . S
C1096 C1093 1.499 . S
C1096 C1097 1.373 . S
C1096 C1098 1.389 . S
C1097 H1076 0.950 . S
C1097 C1096 1.373 . S
C1097 C1113 1.377 . S
C1098 C1096 1.389 . S
C1098 C1099 1.524 . S
C1098 C1112 1.377 . S
C1099 C1098 1.524 . S
C1099 C1100 1.397 . S
C1099 C1104 1.363 . S
C1100 H1077 0.950 . S
C1100 C1099 1.397 . S
C1100 C1101 1.334 . S
C1101 H1078 0.950 . S
C1101 C1100 1.334 . S
C1101 C1102 1.287 . S
C1102 C1101 1.287 . S
C1102 C1103 1.524 . S
C1102 H1121 0.913 . S
C1103 H1079 0.950 . S
C1103 C1102 1.524 . S
C1103 C1104 1.415 . S
C1104 H1080 0.950 . S
C1104 C1099 1.363 . S
C1104 C1103 1.415 . S
C1105 H1081 0.951 . S
C1105 C1106 1.366 . S
C1105 C1107 1.388 . S
C1106 C1105 1.366 . S
C1106 C1110 1.385 . S
C1107 H1082 0.951 . S
C1107 C1105 1.388 . S
C1107 C1108 1.366 . S
C1108 C1107 1.366 . S
C1108 C1109 1.414 . S
C1108 C1111 1.499 . S
C1109 H1083 0.950 . S
C1109 C1108 1.414 . S
C1109 C1110 1.374 . S
C1110 H1084 0.950 . S
C1110 C1106 1.385 . S
C1110 C1109 1.374 . S
C1111 C1108 1.499 . S
C1111 C1112 1.373 . S
C1111 C1113 1.389 . S
C1112 H1085 0.950 . S
C1112 C1098 1.377 . S
C1112 C1111 1.373 . S
C1113 C1097 1.377 . S
C1113 C1111 1.389 . S
C1113 C1114 1.524 . S
C1114 C1113 1.524 . S
C1114 C1115 1.397 . S
C1114 C1119 1.363 . S
C1115 H1086 0.950 . S
C1115 C1114 1.397 . S
C1115 C1116 1.334 . S
C1116 H1087 0.950 . S
C1116 C1115 1.334 . S
C1116 C1117 1.287 . S
C1117 C1116 1.287 . S
C1117 C1118 1.524 . S
C1117 H1120 0.999 . S
C1118 H1088 0.950 . S
C1118 C1117 1.524 . S
C1118 C1119 1.415 . S
C1119 H1089 0.950 . S
C1119 C1114 1.363 . S
C1119 C1118 1.415 . S
H1120 C1117 0.999 . S
H1121 C1102 0.913 . S
H1122 C1140 0.951 . S
H1123 C1142 0.951 . S
H1124 C1144 0.950 . S
H1125 C1145 0.950 . S
H1126 C1147 0.950 . S
H1127 C1150 0.950 . S
H1128 C1151 0.950 . S
H1129 C1153 0.950 . S
H1130 C1154 0.950 . S
H1131 C1155 0.951 . S
H1132 C1157 0.951 . S
H1133 C1159 0.950 . S
H1134 C1160 0.950 . S
H1135 C1162 0.950 . S
H1136 C1165 0.950 . S
H1137 C1166 0.950 . S
H1138 C1168 0.950 . S
H1139 C1169 0.950 . S
C1140 H1122 0.951 . S
C1140 C1141 1.366 . S
C1140 C1142 1.388 . S
C1141 C1140 1.366 . S
C1141 C1145 1.385 . S
C1142 H1123 0.951 . S
C1142 C1140 1.388 . S
C1142 C1143 1.366 . S
C1143 C1142 1.366 . S
C1143 C1144 1.414 . S
C1143 C1146 1.499 . S
C1144 H1124 0.950 . S
C1144 C1143 1.414 . S
C1144 C1145 1.374 . S
C1145 H1125 0.950 . S
C1145 C1141 1.385 . S
C1145 C1144 1.374 . S
C1146 C1143 1.499 . S
C1146 C1147 1.373 . S
C1146 C1148 1.389 . S
C1147 H1126 0.950 . S
C1147 C1146 1.373 . S
C1147 C1163 1.377 . S
C1148 C1146 1.389 . S
C1148 C1149 1.524 . S
C1148 C1162 1.377 . S
C1149 C1148 1.524 . S
C1149 C1150 1.397 . S
C1149 C1154 1.363 . S
C1150 H1127 0.950 . S
C1150 C1149 1.397 . S
C1150 C1151 1.334 . S
C1151 H1128 0.950 . S
C1151 C1150 1.334 . S
C1151 C1152 1.287 . S
C1152 C1151 1.287 . S
C1152 C1153 1.524 . S
C1152 H1171 0.913 . S
C1153 H1129 0.950 . S
C1153 C1152 1.524 . S
C1153 C1154 1.415 . S
C1154 H1130 0.950 . S
C1154 C1149 1.363 . S
C1154 C1153 1.415 . S
C1155 H1131 0.951 . S
C1155 C1156 1.366 . S
C1155 C1157 1.388 . S
C1156 C1155 1.366 . S
C1156 C1160 1.385 . S
C1157 H1132 0.951 . S
C1157 C1155 1.388 . S
C1157 C1158 1.366 . S
C1158 C1157 1.366 . S
C1158 C1159 1.414 . S
C1158 C1161 1.499 . S
C1159 H1133 0.950 . S
C1159 C1158 1.414 . S
C1159 C1160 1.374 . S
C1160 H1134 0.950 . S
C1160 C1156 1.385 . S
C1160 C1159 1.374 . S
C1161 C1158 1.499 . S
C1161 C1162 1.373 . S
C1161 C1163 1.389 . S
C1162 H1135 0.950 . S
C1162 C1148 1.377 . S
C1162 C1161 1.373 . S
C1163 C1147 1.377 . S
C1163 C1161 1.389 . S
C1163 C1164 1.524 . S
C1164 C1163 1.524 . S
C1164 C1165 1.397 . S
C1164 C1169 1.363 . S
C1165 H1136 0.950 . S
C1165 C1164 1.397 . S
C1165 C1166 1.334 . S
C1166 H1137 0.950 . S
C1166 C1165 1.334 . S
C1166 C1167 1.287 . S
C1167 C1166 1.287 . S
C1167 C1168 1.524 . S
C1167 H1170 0.999 . S
C1168 H1138 0.950 . S
C1168 C1167 1.524 . S
C1168 C1169 1.415 . S
C1169 H1139 0.950 . S
C1169 C1164 1.363 . S
C1169 C1168 1.415 . S
H1170 C1167 0.999 . S
H1171 C1152 0.913 . S
H1172 C1190 0.951 . S
H1173 C1192 0.951 . S
H1174 C1194 0.950 . S
H1175 C1195 0.950 . S
H1176 C1197 0.950 . S
H1177 C1200 0.950 . S
H1178 C1201 0.950 . S
H1179 C1203 0.950 . S
H1180 C1204 0.950 . S
H1181 C1205 0.951 . S
H1182 C1207 0.951 . S
H1183 C1209 0.950 . S
H1184 C1210 0.950 . S
H1185 C1212 0.950 . S
H1186 C1215 0.950 . S
H1187 C1216 0.950 . S
H1188 C1218 0.950 . S
H1189 C1219 0.950 . S
C1190 H1172 0.951 . S
C1190 C1191 1.366 . S
C1190 C1192 1.388 . S
C1191 C1190 1.366 . S
C1191 C1195 1.385 1_545 S
C1192 H1173 0.951 . S
C1192 C1190 1.388 . S
C1192 C1193 1.366 . S
C1193 C1192 1.366 . S
C1193 C1194 1.414 1_545 S
C1193 C1196 1.499 . S
C1194 H1174 0.950 . S
C1194 C1193 1.414 1_565 S
C1194 C1195 1.374 . S
C1195 H1175 0.950 . S
C1195 C1191 1.385 1_565 S
C1195 C1194 1.374 . S
C1196 C1193 1.499 . S
C1196 C1197 1.373 1_545 S
C1196 C1198 1.389 . S
C1197 H1176 0.950 . S
C1197 C1196 1.373 1_565 S
C1197 C1213 1.377 1_655 S
C1198 C1196 1.389 . S
C1198 C1199 1.524 . S
C1198 C1212 1.377 1_655 S
C1199 C1198 1.524 . S
C1199 C1200 1.397 . S
C1199 C1204 1.363 . S
C1200 H1177 0.950 . S
C1200 C1199 1.397 . S
C1200 C1201 1.334 . S
C1201 H1178 0.950 . S
C1201 C1200 1.334 . S
C1201 C1202 1.287 . S
C1202 C1201 1.287 . S
C1202 C1203 1.524 . S
C1202 H1221 0.913 . S
C1203 H1179 0.950 . S
C1203 C1202 1.524 . S
C1203 C1204 1.415 . S
C1204 H1180 0.950 . S
C1204 C1199 1.363 . S
C1204 C1203 1.415 . S
C1205 H1181 0.951 . S
C1205 C1206 1.366 . S
C1205 C1207 1.388 . S
C1206 C1205 1.366 . S
C1206 C1210 1.385 1_565 S
C1207 H1182 0.951 . S
C1207 C1205 1.388 . S
C1207 C1208 1.366 . S
C1208 C1207 1.366 . S
C1208 C1209 1.414 1_565 S
C1208 C1211 1.499 . S
C1209 H1183 0.950 . S
C1209 C1208 1.414 1_545 S
C1209 C1210 1.374 . S
C1210 H1184 0.950 . S
C1210 C1206 1.385 1_545 S
C1210 C1209 1.374 . S
C1211 C1208 1.499 . S
C1211 C1212 1.373 1_565 S
C1211 C1213 1.389 . S
C1212 H1185 0.950 . S
C1212 C1198 1.377 1_455 S
C1212 C1211 1.373 1_545 S
C1213 C1197 1.377 1_455 S
C1213 C1211 1.389 . S
C1213 C1214 1.524 . S
C1214 C1213 1.524 . S
C1214 C1215 1.397 . S
C1214 C1219 1.363 . S
C1215 H1186 0.950 . S
C1215 C1214 1.397 . S
C1215 C1216 1.334 . S
C1216 H1187 0.950 . S
C1216 C1215 1.334 . S
C1216 C1217 1.287 . S
C1217 C1216 1.287 . S
C1217 C1218 1.524 . S
C1217 H1220 0.999 . S
C1218 H1188 0.950 . S
C1218 C1217 1.524 . S
C1218 C1219 1.415 . S
C1219 H1189 0.950 . S
C1219 C1214 1.363 . S
C1219 C1218 1.415 . S
H1220 C1217 0.999 . S
H1221 C1202 0.913 . S
H1222 C1240 0.951 . S
H1223 C1242 0.951 . S
H1224 C1244 0.950 . S
H1225 C1245 0.950 . S
H1226 C1247 0.950 . S
H1227 C1250 0.950 . S
H1228 C1251 0.950 . S
H1229 C1253 0.950 . S
H1230 C1254 0.950 1_655 S
H1231 C1255 0.951 . S
H1232 C1257 0.951 . S
H1233 C1259 0.950 . S
H1234 C1260 0.950 . S
H1235 C1262 0.950 . S
H1236 C1265 0.950 . S
H1237 C1266 0.950 . S
H1238 C1268 0.950 . S
H1239 C1269 0.950 1_455 S
C1240 H1222 0.951 . S
C1240 C1241 1.366 1_655 S
C1240 C1242 1.388 . S
C1241 C1240 1.366 1_455 S
C1241 C1245 1.385 . S
C1242 H1223 0.951 . S
C1242 C1240 1.388 . S
C1242 C1243 1.366 1_655 S
C1243 C1242 1.366 1_455 S
C1243 C1244 1.414 . S
C1243 C1246 1.499 . S
C1244 H1224 0.950 . S
C1244 C1243 1.414 . S
C1244 C1245 1.374 . S
C1245 H1225 0.950 . S
C1245 C1241 1.385 . S
C1245 C1244 1.374 . S
C1246 C1243 1.499 . S
C1246 C1247 1.373 1_455 S
C1246 C1248 1.389 . S
C1247 H1226 0.950 . S
C1247 C1246 1.373 1_655 S
C1247 C1263 1.377 1_545 S
C1248 C1246 1.389 . S
C1248 C1249 1.524 . S
C1248 C1262 1.377 1_545 S
C1249 C1248 1.524 . S
C1249 C1250 1.397 . S
C1249 C1254 1.363 . S
C1250 H1227 0.950 . S
C1250 C1249 1.397 . S
C1250 C1251 1.334 . S
C1251 H1228 0.950 . S
C1251 C1250 1.334 . S
C1251 C1252 1.287 . S
C1252 C1251 1.287 . S
C1252 C1253 1.524 . S
C1252 H1271 0.913 . S
C1253 H1229 0.950 . S
C1253 C1252 1.524 . S
C1253 C1254 1.415 . S
C1254 H1230 0.950 1_455 S
C1254 C1249 1.363 . S
C1254 C1253 1.415 . S
C1255 H1231 0.951 . S
C1255 C1256 1.366 1_455 S
C1255 C1257 1.388 . S
C1256 C1255 1.366 1_655 S
C1256 C1260 1.385 . S
C1257 H1232 0.951 . S
C1257 C1255 1.388 . S
C1257 C1258 1.366 1_455 S
C1258 C1257 1.366 1_655 S
C1258 C1259 1.414 . S
C1258 C1261 1.499 . S
C1259 H1233 0.950 . S
C1259 C1258 1.414 . S
C1259 C1260 1.374 . S
C1260 H1234 0.950 . S
C1260 C1256 1.385 . S
C1260 C1259 1.374 . S
C1261 C1258 1.499 . S
C1261 C1262 1.373 1_655 S
C1261 C1263 1.389 . S
C1262 H1235 0.950 . S
C1262 C1248 1.377 1_565 S
C1262 C1261 1.373 1_455 S
C1263 C1247 1.377 1_565 S
C1263 C1261 1.389 . S
C1263 C1264 1.524 . S
C1264 C1263 1.524 . S
C1264 C1265 1.397 . S
C1264 C1269 1.363 . S
C1265 H1236 0.950 . S
C1265 C1264 1.397 . S
C1265 C1266 1.334 . S
C1266 H1237 0.950 . S
C1266 C1265 1.334 . S
C1266 C1267 1.287 . S
C1267 C1266 1.287 . S
C1267 C1268 1.524 . S
C1267 H1270 0.999 . S
C1268 H1238 0.950 . S
C1268 C1267 1.524 . S
C1268 C1269 1.415 . S
C1269 H1239 0.950 1_655 S
C1269 C1264 1.363 . S
C1269 C1268 1.415 . S
H1270 C1267 0.999 . S
H1271 C1252 0.913 . S
H1272 C1290 0.951 . S
H1273 C1292 0.951 . S
H1274 C1294 0.950 . S
H1275 C1295 0.950 . S
H1276 C1297 0.950 . S
H1277 C1300 0.950 . S
H1278 C1301 0.950 . S
H1279 C1303 0.950 . S
H1280 C1304 0.950 . S
H1281 C1305 0.951 . S
H1282 C1307 0.951 . S
H1283 C1309 0.950 . S
H1284 C1310 0.950 . S
H1285 C1312 0.950 . S
H1286 C1315 0.950 . S
H1287 C1316 0.950 . S
H1288 C1318 0.950 . S
H1289 C1319 0.950 . S
C1290 H1272 0.951 . S
C1290 C1291 1.366 . S
C1290 C1292 1.388 . S
C1291 C1290 1.366 . S
C1291 C1295 1.385 . S
C1292 H1273 0.951 . S
C1292 C1290 1.388 . S
C1292 C1293 1.366 . S
C1293 C1292 1.366 . S
C1293 C1294 1.414 . S
C1293 C1296 1.499 . S
C1294 H1274 0.950 . S
C1294 C1293 1.414 . S
C1294 C1295 1.374 . S
C1295 H1275 0.950 . S
C1295 C1291 1.385 . S
C1295 C1294 1.374 . S
C1296 C1293 1.499 . S
C1296 C1297 1.373 . S
C1296 C1298 1.389 . S
C1297 H1276 0.950 . S
C1297 C1296 1.373 . S
C1297 C1313 1.377 . S
C1298 C1296 1.389 . S
C1298 C1299 1.524 . S
C1298 C1312 1.377 . S
C1299 C1298 1.524 . S
C1299 C1300 1.397 . S
C1299 C1304 1.363 . S
C1300 H1277 0.950 . S
C1300 C1299 1.397 . S
C1300 C1301 1.334 . S
C1301 H1278 0.950 . S
C1301 C1300 1.334 . S
C1301 C1302 1.287 . S
C1302 C1301 1.287 . S
C1302 C1303 1.524 . S
C1302 H1321 0.913 . S
C1303 H1279 0.950 . S
C1303 C1302 1.524 . S
C1303 C1304 1.415 . S
C1304 H1280 0.950 . S
C1304 C1299 1.363 . S
C1304 C1303 1.415 . S
C1305 H1281 0.951 . S
C1305 C1306 1.366 . S
C1305 C1307 1.388 . S
C1306 C1305 1.366 . S
C1306 C1310 1.385 . S
C1307 H1282 0.951 . S
C1307 C1305 1.388 . S
C1307 C1308 1.366 . S
C1308 C1307 1.366 . S
C1308 C1309 1.414 . S
C1308 C1311 1.499 . S
C1309 H1283 0.950 . S
C1309 C1308 1.414 . S
C1309 C1310 1.374 . S
C1310 H1284 0.950 . S
C1310 C1306 1.385 . S
C1310 C1309 1.374 . S
C1311 C1308 1.499 . S
C1311 C1312 1.373 . S
C1311 C1313 1.389 . S
C1312 H1285 0.950 . S
C1312 C1298 1.377 . S
C1312 C1311 1.373 . S
C1313 C1297 1.377 . S
C1313 C1311 1.389 . S
C1313 C1314 1.524 . S
C1314 C1313 1.524 . S
C1314 C1315 1.397 . S
C1314 C1319 1.363 . S
C1315 H1286 0.950 . S
C1315 C1314 1.397 . S
C1315 C1316 1.334 . S
C1316 H1287 0.950 . S
C1316 C1315 1.334 . S
C1316 C1317 1.287 . S
C1317 C1316 1.287 . S
C1317 C1318 1.524 . S
C1317 H1320 0.999 . S
C1318 H1288 0.950 . S
C1318 C1317 1.524 . S
C1318 C1319 1.415 . S
C1319 H1289 0.950 . S
C1319 C1314 1.363 . S
C1319 C1318 1.415 . S
H1320 C1317 0.999 . S
H1321 C1302 0.913 . S
H1322 C1340 0.951 . S
H1323 C1342 0.951 . S
H1324 C1344 0.950 . S
H1325 C1345 0.950 . S
H1326 C1347 0.950 . S
H1327 C1350 0.950 . S
H1328 C1351 0.950 . S
H1329 C1353 0.950 . S
H1330 C1354 0.950 . S
H1331 C1355 0.951 . S
H1332 C1357 0.951 . S
H1333 C1359 0.950 . S
H1334 C1360 0.950 . S
H1335 C1362 0.950 . S
H1336 C1365 0.950 . S
H1337 C1366 0.950 . S
H1338 C1368 0.950 . S
H1339 C1369 0.950 . S
C1340 H1322 0.951 . S
C1340 C1341 1.366 . S
C1340 C1342 1.388 . S
C1341 C1340 1.366 . S
C1341 C1345 1.385 . S
C1342 H1323 0.951 . S
C1342 C1340 1.388 . S
C1342 C1343 1.366 . S
C1343 C1342 1.366 . S
C1343 C1344 1.414 . S
C1343 C1346 1.499 . S
C1344 H1324 0.950 . S
C1344 C1343 1.414 . S
C1344 C1345 1.374 . S
C1345 H1325 0.950 . S
C1345 C1341 1.385 . S
C1345 C1344 1.374 . S
C1346 C1343 1.499 . S
C1346 C1347 1.373 . S
C1346 C1348 1.389 . S
C1347 H1326 0.950 . S
C1347 C1346 1.373 . S
C1347 C1363 1.377 . S
C1348 C1346 1.389 . S
C1348 C1349 1.524 . S
C1348 C1362 1.377 . S
C1349 C1348 1.524 . S
C1349 C1350 1.397 . S
C1349 C1354 1.363 . S
C1350 H1327 0.950 . S
C1350 C1349 1.397 . S
C1350 C1351 1.334 . S
C1351 H1328 0.950 . S
C1351 C1350 1.334 . S
C1351 C1352 1.287 . S
C1352 C1351 1.287 . S
C1352 C1353 1.524 . S
C1352 H1371 0.913 . S
C1353 H1329 0.950 . S
C1353 C1352 1.524 . S
C1353 C1354 1.415 . S
C1354 H1330 0.950 . S
C1354 C1349 1.363 . S
C1354 C1353 1.415 . S
C1355 H1331 0.951 . S
C1355 C1356 1.366 . S
C1355 C1357 1.388 . S
C1356 C1355 1.366 . S
C1356 C1360 1.385 . S
C1357 H1332 0.951 . S
C1357 C1355 1.388 . S
C1357 C1358 1.366 . S
C1358 C1357 1.366 . S
C1358 C1359 1.414 . S
C1358 C1361 1.499 . S
C1359 H1333 0.950 . S
C1359 C1358 1.414 . S
C1359 C1360 1.374 . S
C1360 H1334 0.950 . S
C1360 C1356 1.385 . S
C1360 C1359 1.374 . S
C1361 C1358 1.499 . S
C1361 C1362 1.373 . S
C1361 C1363 1.389 . S
C1362 H1335 0.950 . S
C1362 C1348 1.377 . S
C1362 C1361 1.373 . S
C1363 C1347 1.377 . S
C1363 C1361 1.389 . S
C1363 C1364 1.524 . S
C1364 C1363 1.524 . S
C1364 C1365 1.397 . S
C1364 C1369 1.363 . S
C1365 H1336 0.950 . S
C1365 C1364 1.397 . S
C1365 C1366 1.334 . S
C1366 H1337 0.950 . S
C1366 C1365 1.334 . S
C1366 C1367 1.287 . S
C1367 C1366 1.287 . S
C1367 C1368 1.524 . S
C1367 H1370 0.999 . S
C1368 H1338 0.950 . S
C1368 C1367 1.524 . S
C1368 C1369 1.415 . S
C1369 H1339 0.950 . S
C1369 C1364 1.363 . S
C1369 C1368 1.415 . S
H1370 C1367 0.999 . S
H1371 C1352 0.913 . S
H1372 C1390 0.951 . S
H1373 C1392 0.951 . S
H1374 C1394 0.950 . S
H1375 C1395 0.950 . S
H1376 C1397 0.950 . S
H1377 C1400 0.950 . S
H1378 C1401 0.950 . S
H1379 C1403 0.950 . S
H1380 C1404 0.950 . S
H1381 C1405 0.951 . S
H1382 C1407 0.951 . S
H1383 C1409 0.950 . S
H1384 C1410 0.950 . S
H1385 C1412 0.950 . S
H1386 C1415 0.950 . S
H1387 C1416 0.950 . S
H1388 C1418 0.950 . S
H1389 C1419 0.950 . S
C1390 H1372 0.951 . S
C1390 C1391 1.366 . S
C1390 C1392 1.388 . S
C1391 C1390 1.366 . S
C1391 C1395 1.385 . S
C1392 H1373 0.951 . S
C1392 C1390 1.388 . S
C1392 C1393 1.366 . S
C1393 C1392 1.366 . S
C1393 C1394 1.414 . S
C1393 C1396 1.499 . S
C1394 H1374 0.950 . S
C1394 C1393 1.414 . S
C1394 C1395 1.374 . S
C1395 H1375 0.950 . S
C1395 C1391 1.385 . S
C1395 C1394 1.374 . S
C1396 C1393 1.499 . S
C1396 C1397 1.373 . S
C1396 C1398 1.389 . S
C1397 H1376 0.950 . S
C1397 C1396 1.373 . S
C1397 C1413 1.377 . S
C1398 C1396 1.389 . S
C1398 C1399 1.524 . S
C1398 C1412 1.377 . S
C1399 C1398 1.524 . S
C1399 C1400 1.397 . S
C1399 C1404 1.363 . S
C1400 H1377 0.950 . S
C1400 C1399 1.397 . S
C1400 C1401 1.334 . S
C1401 H1378 0.950 . S
C1401 C1400 1.334 . S
C1401 C1402 1.287 . S
C1402 C1401 1.287 . S
C1402 C1403 1.524 . S
C1402 H1421 0.913 . S
C1403 H1379 0.950 . S
C1403 C1402 1.524 . S
C1403 C1404 1.415 . S
C1404 H1380 0.950 . S
C1404 C1399 1.363 . S
C1404 C1403 1.415 . S
C1405 H1381 0.951 . S
C1405 C1406 1.366 . S
C1405 C1407 1.388 . S
C1406 C1405 1.366 . S
C1406 C1410 1.385 . S
C1407 H1382 0.951 . S
C1407 C1405 1.388 . S
C1407 C1408 1.366 . S
C1408 C1407 1.366 . S
C1408 C1409 1.414 . S
C1408 C1411 1.499 . S
C1409 H1383 0.950 . S
C1409 C1408 1.414 . S
C1409 C1410 1.374 . S
C1410 H1384 0.950 . S
C1410 C1406 1.385 . S
C1410 C1409 1.374 . S
C1411 C1408 1.499 . S
C1411 C1412 1.373 . S
C1411 C1413 1.389 . S
C1412 H1385 0.950 . S
C1412 C1398 1.377 . S
C1412 C1411 1.373 . S
C1413 C1397 1.377 . S
C1413 C1411 1.389 . S
C1413 C1414 1.524 . S
C1414 C1413 1.524 . S
C1414 C1415 1.397 . S
C1414 C1419 1.363 . S
C1415 H1386 0.950 . S
C1415 C1414 1.397 . S
C1415 C1416 1.334 . S
C1416 H1387 0.950 . S
C1416 C1415 1.334 . S
C1416 C1417 1.287 . S
C1417 C1416 1.287 . S
C1417 C1418 1.524 . S
C1417 H1420 0.999 . S
C1418 H1388 0.950 . S
C1418 C1417 1.524 . S
C1418 C1419 1.415 . S
C1419 H1389 0.950 . S
C1419 C1414 1.363 . S
C1419 C1418 1.415 . S
H1420 C1417 0.999 . S
H1421 C1402 0.913 . S
H1422 C1440 0.951 . S
H1423 C1442 0.951 . S
H1424 C1444 0.950 . S
H1425 C1445 0.950 . S
H1426 C1447 0.950 . S
H1427 C1450 0.950 . S
H1428 C1451 0.950 . S
H1429 C1453 0.950 . S
H1430 C1454 0.950 . S
H1431 C1455 0.951 . S
H1432 C1457 0.951 . S
H1433 C1459 0.950 . S
H1434 C1460 0.950 . S
H1435 C1462 0.950 . S
H1436 C1465 0.950 . S
H1437 C1466 0.950 . S
H1438 C1468 0.950 . S
H1439 C1469 0.950 . S
C1440 H1422 0.951 . S
C1440 C1441 1.366 . S
C1440 C1442 1.388 . S
C1441 C1440 1.366 . S
C1441 C1445 1.385 . S
C1442 H1423 0.951 . S
C1442 C1440 1.388 . S
C1442 C1443 1.366 . S
C1443 C1442 1.366 . S
C1443 C1444 1.414 . S
C1443 C1446 1.499 . S
C1444 H1424 0.950 . S
C1444 C1443 1.414 . S
C1444 C1445 1.374 . S
C1445 H1425 0.950 . S
C1445 C1441 1.385 . S
C1445 C1444 1.374 . S
C1446 C1443 1.499 . S
C1446 C1447 1.373 . S
C1446 C1448 1.389 . S
C1447 H1426 0.950 . S
C1447 C1446 1.373 . S
C1447 C1463 1.377 . S
C1448 C1446 1.389 . S
C1448 C1449 1.524 . S
C1448 C1462 1.377 . S
C1449 C1448 1.524 . S
C1449 C1450 1.397 . S
C1449 C1454 1.363 . S
C1450 H1427 0.950 . S
C1450 C1449 1.397 . S
C1450 C1451 1.334 . S
C1451 H1428 0.950 . S
C1451 C1450 1.334 . S
C1451 C1452 1.287 . S
C1452 C1451 1.287 . S
C1452 C1453 1.524 . S
C1452 H1471 0.913 . S
C1453 H1429 0.950 . S
C1453 C1452 1.524 . S
C1453 C1454 1.415 . S
C1454 H1430 0.950 . S
C1454 C1449 1.363 . S
C1454 C1453 1.415 . S
C1455 H1431 0.951 . S
C1455 C1456 1.366 . S
C1455 C1457 1.388 . S
C1456 C1455 1.366 . S
C1456 C1460 1.385 . S
C1457 H1432 0.951 . S
C1457 C1455 1.388 . S
C1457 C1458 1.366 . S
C1458 C1457 1.366 . S
C1458 C1459 1.414 . S
C1458 C1461 1.499 . S
C1459 H1433 0.950 . S
C1459 C1458 1.414 . S
C1459 C1460 1.374 . S
C1460 H1434 0.950 . S
C1460 C1456 1.385 . S
C1460 C1459 1.374 . S
C1461 C1458 1.499 . S
C1461 C1462 1.373 . S
C1461 C1463 1.389 . S
C1462 H1435 0.950 . S
C1462 C1448 1.377 . S
C1462 C1461 1.373 . S
C1463 C1447 1.377 . S
C1463 C1461 1.389 . S
C1463 C1464 1.524 . S
C1464 C1463 1.524 . S
C1464 C1465 1.397 . S
C1464 C1469 1.363 . S
C1465 H1436 0.950 . S
C1465 C1464 1.397 . S
C1465 C1466 1.334 . S
C1466 H1437 0.950 . S
C1466 C1465 1.334 . S
C1466 C1467 1.287 . S
C1467 C1466 1.287 . S
C1467 C1468 1.524 . S
C1467 H1470 0.999 . S
C1468 H1438 0.950 . S
C1468 C1467 1.524 . S
C1468 C1469 1.415 . S
C1469 H1439 0.950 . S
C1469 C1464 1.363 . S
C1469 C1468 1.415 . S
H1470 C1467 0.999 . S
H1471 C1452 0.913 . S
H1472 C1490 0.951 . S
H1473 C1492 0.951 . S
H1474 C1494 0.950 . S
H1475 C1495 0.950 . S
H1476 C1497 0.950 . S
H1477 C1500 0.950 . S
H1478 C1501 0.950 . S
H1479 C1503 0.950 . S
H1480 C1504 0.950 . S
H1481 C1505 0.951 . S
H1482 C1507 0.951 . S
H1483 C1509 0.950 . S
H1484 C1510 0.950 . S
H1485 C1512 0.950 . S
H1486 C1515 0.950 . S
H1487 C1516 0.950 . S
H1488 C1518 0.950 . S
H1489 C1519 0.950 . S
C1490 H1472 0.951 . S
C1490 C1491 1.366 . S
C1490 C1492 1.388 . S
C1491 C1490 1.366 . S
C1491 C1495 1.385 . S
C1492 H1473 0.951 . S
C1492 C1490 1.388 . S
C1492 C1493 1.366 . S
C1493 C1492 1.366 . S
C1493 C1494 1.414 . S
C1493 C1496 1.499 . S
C1494 H1474 0.950 . S
C1494 C1493 1.414 . S
C1494 C1495 1.374 . S
C1495 H1475 0.950 . S
C1495 C1491 1.385 . S
C1495 C1494 1.374 . S
C1496 C1493 1.499 . S
C1496 C1497 1.373 . S
C1496 C1498 1.389 . S
C1497 H1476 0.950 . S
C1497 C1496 1.373 . S
C1497 C1513 1.377 . S
C1498 C1496 1.389 . S
C1498 C1499 1.524 . S
C1498 C1512 1.377 . S
C1499 C1498 1.524 . S
C1499 C1500 1.397 . S
C1499 C1504 1.363 . S
C1500 H1477 0.950 . S
C1500 C1499 1.397 . S
C1500 C1501 1.334 . S
C1501 H1478 0.950 . S
C1501 C1500 1.334 . S
C1501 C1502 1.287 . S
C1502 C1501 1.287 . S
C1502 C1503 1.524 . S
C1502 H1521 0.913 . S
C1503 H1479 0.950 . S
C1503 C1502 1.524 . S
C1503 C1504 1.415 . S
C1504 H1480 0.950 . S
C1504 C1499 1.363 . S
C1504 C1503 1.415 . S
C1505 H1481 0.951 . S
C1505 C1506 1.366 . S
C1505 C1507 1.388 . S
C1506 C1505 1.366 . S
C1506 C1510 1.385 . S
C1507 H1482 0.951 . S
C1507 C1505 1.388 . S
C1507 C1508 1.366 . S
C1508 C1507 1.366 . S
C1508 C1509 1.414 . S
C1508 C1511 1.499 . S
C1509 H1483 0.950 . S
C1509 C1508 1.414 . S
C1509 C1510 1.374 . S
C1510 H1484 0.950 . S
C1510 C1506 1.385 . S
C1510 C1509 1.374 . S
C1511 C1508 1.499 . S
C1511 C1512 1.373 . S
C1511 C1513 1.389 . S
C1512 H1485 0.950 . S
C1512 C1498 1.377 . S
C1512 C1511 1.373 . S
C1513 C1497 1.377 . S
C1513 C1511 1.389 . S
C1513 C1514 1.524 . S
C1514 C1513 1.524 . S
C1514 C1515 1.397 . S
C1514 C1519 1.363 . S
C1515 H1486 0.950 . S
C1515 C1514 1.397 . S
C1515 C1516 1.334 . S
C1516 H1487 0.950 . S
C1516 C1515 1.334 . S
C1516 C1517 1.287 . S
C1517 C1516 1.287 . S
C1517 C1518 1.524 . S
C1517 H1520 0.999 . S
C1518 H1488 0.950 . S
C1518 C1517 1.524 . S
C1518 C1519 1.415 . S
C1519 H1489 0.950 . S
C1519 C1514 1.363 . S
C1519 C1518 1.415 . S
H1520 C1517 0.999 . S
H1521 C1502 0.913 . S
H1522 C1540 0.951 . S
H1523 C1542 0.951 . S
H1524 C1544 0.950 . S
H1525 C1545 0.950 . S
H1526 C1547 0.950 . S
H1527 C1550 0.950 . S
H1528 C1551 0.950 . S
H1529 C1553 0.950 . S
H1530 C1554 0.950 . S
H1531 C1555 0.951 . S
H1532 C1557 0.951 . S
H1533 C1559 0.950 . S
H1534 C1560 0.950 . S
H1535 C1562 0.950 . S
H1536 C1565 0.950 . S
H1537 C1566 0.950 . S
H1538 C1568 0.950 . S
H1539 C1569 0.950 . S
C1540 H1522 0.951 . S
C1540 C1541 1.366 . S
C1540 C1542 1.388 . S
C1541 C1540 1.366 . S
C1541 C1545 1.385 . S
C1542 H1523 0.951 . S
C1542 C1540 1.388 . S
C1542 C1543 1.366 . S
C1543 C1542 1.366 . S
C1543 C1544 1.414 . S
C1543 C1546 1.499 . S
C1544 H1524 0.950 . S
C1544 C1543 1.414 . S
C1544 C1545 1.374 . S
C1545 H1525 0.950 . S
C1545 C1541 1.385 . S
C1545 C1544 1.374 . S
C1546 C1543 1.499 . S
C1546 C1547 1.373 . S
C1546 C1548 1.389 . S
C1547 H1526 0.950 . S
C1547 C1546 1.373 . S
C1547 C1563 1.377 . S
C1548 C1546 1.389 . S
C1548 C1549 1.524 . S
C1548 C1562 1.377 . S
C1549 C1548 1.524 . S
C1549 C1550 1.397 . S
C1549 C1554 1.363 . S
C1550 H1527 0.950 . S
C1550 C1549 1.397 . S
C1550 C1551 1.334 . S
C1551 H1528 0.950 . S
C1551 C1550 1.334 . S
C1551 C1552 1.287 . S
C1552 C1551 1.287 . S
C1552 C1553 1.524 . S
C1552 H1571 0.913 . S
C1553 H1529 0.950 . S
C1553 C1552 1.524 . S
C1553 C1554 1.415 . S
C1554 H1530 0.950 . S
C1554 C1549 1.363 . S
C1554 C1553 1.415 . S
C1555 H1531 0.951 . S
C1555 C1556 1.366 . S
C1555 C1557 1.388 . S
C1556 C1555 1.366 . S
C1556 C1560 1.385 . S
C1557 H1532 0.951 . S
C1557 C1555 1.388 . S
C1557 C1558 1.366 . S
C1558 C1557 1.366 . S
C1558 C1559 1.414 . S
C1558 C1561 1.499 . S
C1559 H1533 0.950 . S
C1559 C1558 1.414 . S
C1559 C1560 1.374 . S
C1560 H1534 0.950 . S
C1560 C1556 1.385 . S
C1560 C1559 1.374 . S
C1561 C1558 1.499 . S
C1561 C1562 1.373 . S
C1561 C1563 1.389 . S
C1562 H1535 0.950 . S
C1562 C1548 1.377 . S
C1562 C1561 1.373 . S
C1563 C1547 1.377 . S
C1563 C1561 1.389 . S
C1563 C1564 1.524 . S
C1564 C1563 1.524 . S
C1564 C1565 1.397 . S
C1564 C1569 1.363 . S
C1565 H1536 0.950 . S
C1565 C1564 1.397 . S
C1565 C1566 1.334 . S
C1566 H1537 0.950 . S
C1566 C1565 1.334 . S
C1566 C1567 1.287 . S
C1567 C1566 1.287 . S
C1567 C1568 1.524 . S
C1567 H1570 0.999 . S
C1568 H1538 0.950 . S
C1568 C1567 1.524 . S
C1568 C1569 1.415 . S
C1569 H1539 0.950 . S
C1569 C1564 1.363 . S
C1569 C1568 1.415 . S
H1570 C1567 0.999 . S
H1571 C1552 0.913 . S
H1572 C1590 0.951 . S
H1573 C1592 0.951 . S
H1574 C1594 0.950 . S
H1575 C1595 0.950 . S
H1576 C1597 0.950 . S
H1577 C1600 0.950 . S
H1578 C1601 0.950 . S
H1579 C1603 0.950 . S
H1580 C1604 0.950 . S
H1581 C1605 0.951 . S
H1582 C1607 0.951 . S
H1583 C1609 0.950 . S
H1584 C1610 0.950 . S
H1585 C1612 0.950 . S
H1586 C1615 0.950 . S
H1587 C1616 0.950 . S
H1588 C1618 0.950 . S
H1589 C1619 0.950 . S
C1590 H1572 0.951 . S
C1590 C1591 1.366 . S
C1590 C1592 1.388 . S
C1591 C1590 1.366 . S
C1591 C1595 1.385 . S
C1592 H1573 0.951 . S
C1592 C1590 1.388 . S
C1592 C1593 1.366 . S
C1593 C1592 1.366 . S
C1593 C1594 1.414 . S
C1593 C1596 1.499 . S
C1594 H1574 0.950 . S
C1594 C1593 1.414 . S
C1594 C1595 1.374 . S
C1595 H1575 0.950 . S
C1595 C1591 1.385 . S
C1595 C1594 1.374 . S
C1596 C1593 1.499 . S
C1596 C1597 1.373 . S
C1596 C1598 1.389 . S
C1597 H1576 0.950 . S
C1597 C1596 1.373 . S
C1597 C1613 1.377 . S
C1598 C1596 1.389 . S
C1598 C1599 1.524 . S
C1598 C1612 1.377 . S
C1599 C1598 1.524 . S
C1599 C1600 1.397 . S
C1599 C1604 1.363 . S
C1600 H1577 0.950 . S
C1600 C1599 1.397 . S
C1600 C1601 1.334 . S
C1601 H1578 0.950 . S
C1601 C1600 1.334 . S
C1601 C1602 1.287 . S
C1602 C1601 1.287 . S
C1602 C1603 1.524 . S
C1602 H1621 0.913 . S
C1603 H1579 0.950 . S
C1603 C1602 1.524 . S
C1603 C1604 1.415 . S
C1604 H1580 0.950 . S
C1604 C1599 1.363 . S
C1604 C1603 1.415 . S
C1605 H1581 0.951 . S
C1605 C1606 1.366 . S
C1605 C1607 1.388 . S
C1606 C1605 1.366 . S
C1606 C1610 1.385 . S
C1607 H1582 0.951 . S
C1607 C1605 1.388 . S
C1607 C1608 1.366 . S
C1608 C1607 1.366 . S
C1608 C1609 1.414 . S
C1608 C1611 1.499 . S
C1609 H1583 0.950 . S
C1609 C1608 1.414 . S
C1609 C1610 1.374 . S
C1610 H1584 0.950 . S
C1610 C1606 1.385 . S
C1610 C1609 1.374 . S
C1611 C1608 1.499 . S
C1611 C1612 1.373 . S
C1611 C1613 1.389 . S
C1612 H1585 0.950 . S
C1612 C1598 1.377 . S
C1612 C1611 1.373 . S
C1613 C1597 1.377 . S
C1613 C1611 1.389 . S
C1613 C1614 1.524 . S
C1614 C1613 1.524 . S
C1614 C1615 1.397 . S
C1614 C1619 1.363 . S
C1615 H1586 0.950 . S
C1615 C1614 1.397 . S
C1615 C1616 1.334 . S
C1616 H1587 0.950 . S
C1616 C1615 1.334 . S
C1616 C1617 1.287 . S
C1617 C1616 1.287 . S
C1617 C1618 1.524 . S
C1617 H1620 0.999 . S
C1618 H1588 0.950 . S
C1618 C1617 1.524 . S
C1618 C1619 1.415 . S
C1619 H1589 0.950 . S
C1619 C1614 1.363 . S
C1619 C1618 1.415 . S
H1620 C1617 0.999 . S
H1621 C1602 0.913 . S
H1622 C1640 0.951 . S
H1623 C1642 0.951 . S
H1624 C1644 0.950 . S
H1625 C1645 0.950 . S
H1626 C1647 0.950 . S
H1627 C1650 0.950 . S
H1628 C1651 0.950 . S
H1629 C1653 0.950 . S
H1630 C1654 0.950 . S
H1631 C1655 0.951 . S
H1632 C1657 0.951 . S
H1633 C1659 0.950 . S
H1634 C1660 0.950 . S
H1635 C1662 0.950 . S
H1636 C1665 0.950 . S
H1637 C1666 0.950 . S
H1638 C1668 0.950 . S
H1639 C1669 0.950 . S
C1640 H1622 0.951 . S
C1640 C1641 1.366 . S
C1640 C1642 1.388 . S
C1641 C1640 1.366 . S
C1641 C1645 1.385 . S
C1642 H1623 0.951 . S
C1642 C1640 1.388 . S
C1642 C1643 1.366 . S
C1643 C1642 1.366 . S
C1643 C1644 1.414 . S
C1643 C1646 1.499 . S
C1644 H1624 0.950 . S
C1644 C1643 1.414 . S
C1644 C1645 1.374 . S
C1645 H1625 0.950 . S
C1645 C1641 1.385 . S
C1645 C1644 1.374 . S
C1646 C1643 1.499 . S
C1646 C1647 1.373 . S
C1646 C1648 1.389 . S
C1647 H1626 0.950 . S
C1647 C1646 1.373 . S
C1647 C1663 1.377 . S
C1648 C1646 1.389 . S
C1648 C1649 1.524 . S
C1648 C1662 1.377 . S
C1649 C1648 1.524 . S
C1649 C1650 1.397 . S
C1649 C1654 1.363 . S
C1650 H1627 0.950 . S
C1650 C1649 1.397 . S
C1650 C1651 1.334 . S
C1651 H1628 0.950 . S
C1651 C1650 1.334 . S
C1651 C1652 1.287 . S
C1652 C1651 1.287 . S
C1652 C1653 1.524 . S
C1652 H1671 0.913 . S
C1653 H1629 0.950 . S
C1653 C1652 1.524 . S
C1653 C1654 1.415 . S
C1654 H1630 0.950 . S
C1654 C1649 1.363 . S
C1654 C1653 1.415 . S
C1655 H1631 0.951 . S
C1655 C1656 1.366 . S
C1655 C1657 1.388 . S
C1656 C1655 1.366 . S
C1656 C1660 1.385 . S
C1657 H1632 0.951 . S
C1657 C1655 1.388 . S
C1657 C1658 1.366 . S
C1658 C1657 1.366 . S
C1658 C1659 1.414 . S
C1658 C1661 1.499 . S
C1659 H1633 0.950 . S
C1659 C1658 1.414 . S
C1659 C1660 1.374 . S
C1660 H1634 0.950 . S
C1660 C1656 1.385 . S
C1660 C1659 1.374 . S
C1661 C1658 1.499 . S
C1661 C1662 1.373 . S
C1661 C1663 1.389 . S
C1662 H1635 0.950 . S
C1662 C1648 1.377 . S
C1662 C1661 1.373 . S
C1663 C1647 1.377 . S
C1663 C1661 1.389 . S
C1663 C1664 1.524 . S
C1664 C1663 1.524 . S
C1664 C1665 1.397 . S
C1664 C1669 1.363 . S
C1665 H1636 0.950 . S
C1665 C1664 1.397 . S
C1665 C1666 1.334 . S
C1666 H1637 0.950 . S
C1666 C1665 1.334 . S
C1666 C1667 1.287 . S
C1667 C1666 1.287 . S
C1667 C1668 1.524 . S
C1667 H1670 0.999 . S
C1668 H1638 0.950 . S
C1668 C1667 1.524 . S
C1668 C1669 1.415 . S
C1669 H1639 0.950 . S
C1669 C1664 1.363 . S
C1669 C1668 1.415 . S
H1670 C1667 0.999 . S
H1671 C1652 0.913 . S
C291 C15 1.574 . S
C306 C173 1.481 . S
C341 C56 1.574 . S
C356 C205 1.481 . S
C391 C241 1.482 . S
C406 C90 1.573 . S
C441 C137 1.481 . S
C456 C124 1.574 . S
C491 C151 1.574 . S
C506 C105 1.481 . S
C541 C192 1.574 . S
C556 C1 1.481 . S
C591 C219 1.573 . S
C606 C37 1.482 . S
C641 C260 1.574 . S
C656 C71 1.481 . S
C691 C119 0.855 . S
C706 C28 0.842 . S
C741 C17 0.856 . S
C756 C40 0.844 . S
C791 C51 0.856 . S
C806 C74 0.844 . S
C841 C108 0.844 . S
C856 C85 0.856 . S
C891 C164 0.842 . S
C906 C187 0.855 . S
C941 C176 0.843 . S
C956 C221 0.855 . S
C991 C232 0.843 . S
C1006 C255 0.856 . S
C1041 C153 0.855 . S
C1056 C244 0.844 . S
C1091 C22 0.697 . S
C1106 C83 0.696 . S
C1141 C49 0.696 . S
C1156 C117 0.698 . S
C1191 C158 0.699 . S
C1206 C226 0.700 . S
C1241 C185 0.697 . S
C1256 C253 0.700 . S
C1291 C210 1.824 . S
C1306 C3 1.736 . S
C1341 C35 1.737 . S
C1356 C266 1.824 . S
C1391 C69 1.736 . S
C1406 C142 1.825 . S
C1441 C198 1.825 . S
C1456 C103 1.737 . S
C1491 C139 1.736 . S
C1506 C96 1.796 . S
C1541 C130 1.795 . S
C1556 C171 1.736 . S
C1591 C207 1.737 . S
C1606 C6 1.796 . S
C1641 C62 1.796 . S
C1656 C239 1.737 . S
