# Generated by pormake.
# Topology pem, (4)-cn, num edge types: 1
# Building blocks:
#     Node 0, Type 0, BuildingBlock: UXUYUI_clean_sbu_0, # of connection points: 4
#     Node 1, Type 0, BuildingBlock: UXUYUI_clean_sbu_0, # of connection points: 4
#     Node 2, Type 0, BuildingBlock: UXUYUI_clean_sbu_0, # of connection points: 4
#     Node 3, Type 0, BuildingBlock: UXUYUI_clean_sbu_0, # of connection points: 4
#     Node 4, Type 0, BuildingBlock: UXUYUI_clean_sbu_0, # of connection points: 4
#     Node 5, Type 0, BuildingBlock: UXUYUI_clean_sbu_0, # of connection points: 4
#     Node 6, Type 0, BuildingBlock: UXUYUI_clean_sbu_0, # of connection points: 4
#     Node 7, Type 0, BuildingBlock: UXUYUI_clean_sbu_0, # of connection points: 4
#     Node 8, Type 0, BuildingBlock: UXUYUI_clean_sbu_0, # of connection points: 4
#     Node 9, Type 0, BuildingBlock: UXUYUI_clean_sbu_0, # of connection points: 4
#     Node 10, Type 0, BuildingBlock: UXUYUI_clean_sbu_0, # of connection points: 4
#     Node 11, Type 0, BuildingBlock: UXUYUI_clean_sbu_0, # of connection points: 4
#     Node 12, Type 0, BuildingBlock: UXUYUI_clean_sbu_0, # of connection points: 4
#     Node 13, Type 0, BuildingBlock: UXUYUI_clean_sbu_0, # of connection points: 4
#     Node 14, Type 0, BuildingBlock: UXUYUI_clean_sbu_0, # of connection points: 4
#     Node 15, Type 0, BuildingBlock: UXUYUI_clean_sbu_0, # of connection points: 4
#     Node 16, Type 0, BuildingBlock: UXUYUI_clean_sbu_0, # of connection points: 4
#     Node 17, Type 0, BuildingBlock: UXUYUI_clean_sbu_0, # of connection points: 4
#     Node 18, Type 0, BuildingBlock: UXUYUI_clean_sbu_0, # of connection points: 4
#     Node 19, Type 0, BuildingBlock: UXUYUI_clean_sbu_0, # of connection points: 4
#     Node 20, Type 0, BuildingBlock: UXUYUI_clean_sbu_0, # of connection points: 4
#     Node 21, Type 0, BuildingBlock: UXUYUI_clean_sbu_0, # of connection points: 4
#     Node 22, Type 0, BuildingBlock: UXUYUI_clean_sbu_0, # of connection points: 4
#     Node 23, Type 0, BuildingBlock: UXUYUI_clean_sbu_0, # of connection points: 4
#     Node 24, Type 0, BuildingBlock: UXUYUI_clean_sbu_0, # of connection points: 4
#     Node 25, Type 0, BuildingBlock: UXUYUI_clean_sbu_0, # of connection points: 4
#     Node 26, Type 0, BuildingBlock: UXUYUI_clean_sbu_0, # of connection points: 4
#     Node 27, Type 0, BuildingBlock: UXUYUI_clean_sbu_0, # of connection points: 4
#     Node 28, Type 0, BuildingBlock: UXUYUI_clean_sbu_0, # of connection points: 4
#     Node 29, Type 0, BuildingBlock: UXUYUI_clean_sbu_0, # of connection points: 4
#     Node 30, Type 0, BuildingBlock: UXUYUI_clean_sbu_0, # of connection points: 4
#     Node 31, Type 0, BuildingBlock: UXUYUI_clean_sbu_0, # of connection points: 4
#     Edge 32, Type (0, 0), BuildingBlock: TEMPAE_clean_linker_10, # of connection points: 2
#     Edge 33, Type (0, 0), BuildingBlock: TEMPAE_clean_linker_10, # of connection points: 2
#     Edge 34, Type (0, 0), BuildingBlock: TEMPAE_clean_linker_10, # of connection points: 2
#     Edge 35, Type (0, 0), BuildingBlock: TEMPAE_clean_linker_10, # of connection points: 2
#     Edge 36, Type (0, 0), BuildingBlock: TEMPAE_clean_linker_10, # of connection points: 2
#     Edge 37, Type (0, 0), BuildingBlock: TEMPAE_clean_linker_10, # of connection points: 2
#     Edge 38, Type (0, 0), BuildingBlock: TEMPAE_clean_linker_10, # of connection points: 2
#     Edge 39, Type (0, 0), BuildingBlock: TEMPAE_clean_linker_10, # of connection points: 2
#     Edge 40, Type (0, 0), BuildingBlock: TEMPAE_clean_linker_10, # of connection points: 2
#     Edge 41, Type (0, 0), BuildingBlock: TEMPAE_clean_linker_10, # of connection points: 2
#     Edge 42, Type (0, 0), BuildingBlock: TEMPAE_clean_linker_10, # of connection points: 2
#     Edge 43, Type (0, 0), BuildingBlock: TEMPAE_clean_linker_10, # of connection points: 2
#     Edge 44, Type (0, 0), BuildingBlock: TEMPAE_clean_linker_10, # of connection points: 2
#     Edge 45, Type (0, 0), BuildingBlock: TEMPAE_clean_linker_10, # of connection points: 2
#     Edge 46, Type (0, 0), BuildingBlock: TEMPAE_clean_linker_10, # of connection points: 2
#     Edge 47, Type (0, 0), BuildingBlock: TEMPAE_clean_linker_10, # of connection points: 2
#     Edge 48, Type (0, 0), BuildingBlock: TEMPAE_clean_linker_10, # of connection points: 2
#     Edge 49, Type (0, 0), BuildingBlock: TEMPAE_clean_linker_10, # of connection points: 2
#     Edge 50, Type (0, 0), BuildingBlock: TEMPAE_clean_linker_10, # of connection points: 2
#     Edge 51, Type (0, 0), BuildingBlock: TEMPAE_clean_linker_10, # of connection points: 2
#     Edge 52, Type (0, 0), BuildingBlock: TEMPAE_clean_linker_10, # of connection points: 2
#     Edge 53, Type (0, 0), BuildingBlock: TEMPAE_clean_linker_10, # of connection points: 2
#     Edge 54, Type (0, 0), BuildingBlock: TEMPAE_clean_linker_10, # of connection points: 2
#     Edge 55, Type (0, 0), BuildingBlock: TEMPAE_clean_linker_10, # of connection points: 2
#     Edge 56, Type (0, 0), BuildingBlock: TEMPAE_clean_linker_10, # of connection points: 2
#     Edge 57, Type (0, 0), BuildingBlock: TEMPAE_clean_linker_10, # of connection points: 2
#     Edge 58, Type (0, 0), BuildingBlock: TEMPAE_clean_linker_10, # of connection points: 2
#     Edge 59, Type (0, 0), BuildingBlock: TEMPAE_clean_linker_10, # of connection points: 2
#     Edge 60, Type (0, 0), BuildingBlock: TEMPAE_clean_linker_10, # of connection points: 2
#     Edge 61, Type (0, 0), BuildingBlock: TEMPAE_clean_linker_10, # of connection points: 2
#     Edge 62, Type (0, 0), BuildingBlock: TEMPAE_clean_linker_10, # of connection points: 2
#     Edge 63, Type (0, 0), BuildingBlock: TEMPAE_clean_linker_10, # of connection points: 2
#     Edge 64, Type (0, 0), BuildingBlock: TEMPAE_clean_linker_10, # of connection points: 2
#     Edge 65, Type (0, 0), BuildingBlock: TEMPAE_clean_linker_10, # of connection points: 2
#     Edge 66, Type (0, 0), BuildingBlock: TEMPAE_clean_linker_10, # of connection points: 2
#     Edge 67, Type (0, 0), BuildingBlock: TEMPAE_clean_linker_10, # of connection points: 2
#     Edge 68, Type (0, 0), BuildingBlock: TEMPAE_clean_linker_10, # of connection points: 2
#     Edge 69, Type (0, 0), BuildingBlock: TEMPAE_clean_linker_10, # of connection points: 2
#     Edge 70, Type (0, 0), BuildingBlock: TEMPAE_clean_linker_10, # of connection points: 2
#     Edge 71, Type (0, 0), BuildingBlock: TEMPAE_clean_linker_10, # of connection points: 2
#     Edge 72, Type (0, 0), BuildingBlock: TEMPAE_clean_linker_10, # of connection points: 2
#     Edge 73, Type (0, 0), BuildingBlock: TEMPAE_clean_linker_10, # of connection points: 2
#     Edge 74, Type (0, 0), BuildingBlock: TEMPAE_clean_linker_10, # of connection points: 2
#     Edge 75, Type (0, 0), BuildingBlock: TEMPAE_clean_linker_10, # of connection points: 2
#     Edge 76, Type (0, 0), BuildingBlock: TEMPAE_clean_linker_10, # of connection points: 2
#     Edge 77, Type (0, 0), BuildingBlock: TEMPAE_clean_linker_10, # of connection points: 2
#     Edge 78, Type (0, 0), BuildingBlock: TEMPAE_clean_linker_10, # of connection points: 2
#     Edge 79, Type (0, 0), BuildingBlock: TEMPAE_clean_linker_10, # of connection points: 2
#     Edge 80, Type (0, 0), BuildingBlock: TEMPAE_clean_linker_10, # of connection points: 2
#     Edge 81, Type (0, 0), BuildingBlock: TEMPAE_clean_linker_10, # of connection points: 2
#     Edge 82, Type (0, 0), BuildingBlock: TEMPAE_clean_linker_10, # of connection points: 2
#     Edge 83, Type (0, 0), BuildingBlock: TEMPAE_clean_linker_10, # of connection points: 2
#     Edge 84, Type (0, 0), BuildingBlock: TEMPAE_clean_linker_10, # of connection points: 2
#     Edge 85, Type (0, 0), BuildingBlock: TEMPAE_clean_linker_10, # of connection points: 2
#     Edge 86, Type (0, 0), BuildingBlock: TEMPAE_clean_linker_10, # of connection points: 2
#     Edge 87, Type (0, 0), BuildingBlock: TEMPAE_clean_linker_10, # of connection points: 2
#     Edge 88, Type (0, 0), BuildingBlock: TEMPAE_clean_linker_10, # of connection points: 2
#     Edge 89, Type (0, 0), BuildingBlock: TEMPAE_clean_linker_10, # of connection points: 2
#     Edge 90, Type (0, 0), BuildingBlock: TEMPAE_clean_linker_10, # of connection points: 2
#     Edge 91, Type (0, 0), BuildingBlock: TEMPAE_clean_linker_10, # of connection points: 2
#     Edge 92, Type (0, 0), BuildingBlock: TEMPAE_clean_linker_10, # of connection points: 2
#     Edge 93, Type (0, 0), BuildingBlock: TEMPAE_clean_linker_10, # of connection points: 2
#     Edge 94, Type (0, 0), BuildingBlock: TEMPAE_clean_linker_10, # of connection points: 2
#     Edge 95, Type (0, 0), BuildingBlock: TEMPAE_clean_linker_10, # of connection points: 2
# Relax obj value: 0.135
# Max RMSD: 0.073
# Mean RMSD: 0.073
data_MOF--net-pem--node1-UXUYUI_clean_sbu_0--edge1-TEMPAE_clean_linker_10
_symmetry_space_group_name_H-M    P1
_symmetry_Int_Tables_number       1
_symmetry_cell_setting            triclinic
loop_
_symmetry_equiv_pos_as_xyz
'x, y, z'
_cell_length_a     63.123048
_cell_length_b     62.990402
_cell_length_c     62.984676
_cell_angle_alpha  89.996133
_cell_angle_beta   90.102664
_cell_angle_gamma 89.89714
loop_
_atom_site_label
_atom_site_type_symbol
_atom_site_fract_x
_atom_site_fract_y
_atom_site_fract_z
_atom_type_partial_charge
Li0 Li 0.09108 0.11071 0.1021 0.0
Li1 Li 0.11129 0.0802 0.12013 0.0
Li2 Li 0.12718 0.09948 0.08558 0.0
Li3 Li 0.09524 0.07662 0.08367 0.0
C4 C 0.11635 0.12711 0.13042 0.0
N5 N 0.10867 0.15948 0.15906 0.0
C6 C 0.11637 0.12296 0.15223 0.0
C7 C 0.11242 0.14774 0.1232 0.0
C8 C 0.11246 0.13953 0.16645 0.0
C9 C 0.10858 0.16389 0.13793 0.0
C10 C 0.06472 0.08573 0.12536 0.0
C11 C 0.02749 0.08947 0.13313 0.0
N12 N 0.0323 0.09348 0.1538 0.0
C13 C 0.06927 0.09004 0.14665 0.0
C14 C 0.04365 0.08561 0.11849 0.0
C15 C 0.05269 0.09388 0.16078 0.0
C16 C 0.05869 0.14154 0.08821 0.0
N17 N 0.06869 0.13404 0.10592 0.0
C18 C 0.04681 0.15731 0.12734 0.0
C19 C 0.06257 0.14146 0.12536 0.0
C20 C 0.03676 0.16596 0.1092 0.0
C21 C 0.04315 0.15759 0.08943 0.0
H22 H 0.06253 0.13493 0.0729 0.0
H23 H 0.06986 0.1351 0.13954 0.0
C24 C 0.13836 0.05925 0.15323 0.0
N25 N 0.11828 0.06119 0.14536 0.0
C26 C 0.1434 0.04364 0.16862 0.0
C27 C 0.1071 0.03233 0.16808 0.0
C28 C 0.10278 0.04803 0.15272 0.0
C29 C 0.12776 0.02949 0.17617 0.0
H30 H 0.15074 0.06935 0.14709 0.0
H31 H 0.08699 0.04912 0.14616 0.0
C32 C 0.09934 0.11661 0.05376 0.0
N33 N 0.09999 0.13992 0.0166 0.0
C34 C 0.0984 0.10633 0.03413 0.0
C35 C 0.10067 0.13877 0.05449 0.0
C36 C 0.09878 0.11839 0.01552 0.0
C37 C 0.10091 0.15027 0.03553 0.0
C38 C 0.12662 0.04712 0.09444 0.0
C39 C 0.14518 0.03738 0.08721 0.0
C40 C 0.11027 0.03458 0.10257 0.0
C41 C 0.14721 0.01533 0.08863 0.0
C42 C 0.1129 0.01259 0.10371 0.0
N43 N 0.13118 0.0035 0.0968 0.0
C44 C 0.17067 0.09091 0.07001 0.0
C45 C 0.1538 0.11722 0.04961 0.0
C46 C 0.18863 0.09162 0.0567 0.0
N47 N 0.15344 0.10357 0.06646 0.0
C48 C 0.17118 0.118 0.03553 0.0
C49 C 0.18913 0.10489 0.03859 0.0
H50 H 0.17075 0.08044 0.08359 0.0
H51 H 0.14053 0.12752 0.04668 0.0
C52 C 0.06344 0.05066 0.06634 0.0
N53 N 0.08397 0.05681 0.06505 0.0
C54 C 0.05627 0.03387 0.05395 0.0
C55 C 0.0915 0.03037 0.03912 0.0
C56 C 0.09787 0.04749 0.05147 0.0
C57 C 0.07056 0.02331 0.04057 0.0
H58 H 0.0529 0.05833 0.07743 0.0
H59 H 0.11409 0.05294 0.05081 0.0
O60 O 0.12099 0.11124 0.1163 0.0
O61 O 0.08079 0.08164 0.11135 0.0
O62 O 0.09896 0.10505 0.07215 0.0
O63 O 0.12412 0.0687 0.09305 0.0
H64 H 0.11982 0.10718 0.15813 0.0
H65 H 0.11256 0.15128 0.1064 0.0
H66 H 0.11258 0.13656 0.18337 0.0
H67 H 0.10551 0.17991 0.13254 0.0
H68 H 0.01111 0.08929 0.12805 0.0
H69 H 0.08544 0.0904 0.15223 0.0
H70 H 0.03978 0.08263 0.10204 0.0
H71 H 0.05603 0.09718 0.17731 0.0
H72 H 0.04237 0.1624 0.14312 0.0
H73 H 0.03637 0.16338 0.07475 0.0
H74 H 0.15965 0.04228 0.17396 0.0
H75 H 0.09419 0.02241 0.17342 0.0
H76 H 0.09741 0.08922 0.03324 0.0
H77 H 0.10162 0.14698 0.06954 0.0
H78 H 0.09809 0.11063 1.00021 0.0
H79 H 0.10192 0.1674 0.03586 0.0
H80 H 0.15786 0.04664 0.08046 0.0
H81 H 0.09557 0.04172 0.10772 0.0
H82 H 0.16152 0.00762 0.08315 0.0
H83 H 0.10037 0.00276 0.11001 0.0
H84 H 0.20201 0.08166 0.06077 0.0
H85 H 0.17001 0.12857 0.02208 0.0
H86 H 0.03999 0.02863 0.05541 0.0
H87 H 0.1028 0.02258 0.02878 0.0
Li88 Li 0.17615 0.85253 0.38421 0.0
Li89 Li 0.15844 0.86275 0.3483 0.0
Li90 Li 0.13931 0.83709 0.37423 0.0
Li91 Li 0.17014 0.82522 0.35539 0.0
C92 C 0.15342 0.88956 0.38396 0.0
N93 N 0.1685 0.93007 0.39155 0.0
C94 C 0.14919 0.90597 0.36965 0.0
C95 C 0.16396 0.89415 0.40288 0.0
C96 C 0.15736 0.9262 0.3735 0.0
C97 C 0.1718 0.91465 0.40626 0.0
C98 C 0.20453 0.85877 0.34367 0.0
C99 C 0.23038 0.85511 0.3157 0.0
N100 N 0.23929 0.87382 0.3217 0.0
C101 C 0.214 0.8779 0.34957 0.0
C102 C 0.21282 0.84723 0.32661 0.0
C103 C 0.23152 0.88527 0.33826 0.0
C104 C 0.20569 0.83974 0.41684 0.0
N105 N 0.19938 0.85725 0.40576 0.0
C106 C 0.22735 0.87738 0.42246 0.0
C107 C 0.21035 0.87576 0.40807 0.0
C108 C 0.23418 0.85956 0.43423 0.0
C109 C 0.22293 0.8405 0.43099 0.0
H110 H 0.19781 0.82477 0.41426 0.0
H111 H 0.20624 0.8894 0.39861 0.0
C112 C 0.14024 0.88362 0.31023 0.0
N113 N 0.15636 0.88523 0.3246 0.0
C114 C 0.13738 0.8988 0.29399 0.0
C115 C 0.16835 0.917 0.30653 0.0
C116 C 0.17038 0.90167 0.32281 0.0
C117 C 0.15155 0.91583 0.29187 0.0
H118 H 0.12956 0.87038 0.31124 0.0
H119 H 0.18299 0.90329 0.33427 0.0
C120 C 0.15698 0.81262 0.40285 0.0
N121 N 0.13944 0.7914 0.43688 0.0
C122 C 0.15275 0.79091 0.4014 0.0
C123 C 0.15232 0.82357 0.42158 0.0
C124 C 0.14385 0.78046 0.41879 0.0
C125 C 0.14347 0.81254 0.43862 0.0
C126 C 0.14297 0.82864 0.32164 0.0
C127 C 0.12742 0.81471 0.31409 0.0
C128 C 0.15868 0.83576 0.30777 0.0
C129 C 0.12778 0.80838 0.29283 0.0
C130 C 0.1585 0.8291 0.28662 0.0
N131 N 0.14317 0.81566 0.27964 0.0
C132 C 0.10852 0.80344 0.37315 0.0
C133 C 0.10049 0.82672 0.40126 0.0
C134 C 0.09052 0.7911 0.37764 0.0
N135 N 0.11293 0.82144 0.38434 0.0
C136 C 0.08227 0.8147 0.40641 0.0
C137 C 0.0765 0.79693 0.39405 0.0
H138 H 0.11899 0.79867 0.36047 0.0
H139 H 0.10448 0.84046 0.41058 0.0
C140 C 0.20243 0.79584 0.34837 0.0
N141 N 0.18146 0.79979 0.3458 0.0
C142 C 0.21086 0.7765 0.34182 0.0
C143 C 0.17568 0.76544 0.33123 0.0
C144 C 0.16794 0.78479 0.3384 0.0
C145 C 0.1975 0.76129 0.33242 0.0
H146 H 0.21257 0.80777 0.35539 0.0
H147 H 0.15113 0.78786 0.338 0.0
O148 O 0.14757 0.86912 0.37938 0.0
O149 O 0.1874 0.85125 0.35466 0.0
O150 O 0.16502 0.82329 0.38579 0.0
O151 O 0.14316 0.83495 0.34253 0.0
H152 H 0.13979 0.90319 0.35565 0.0
H153 H 0.16634 0.88194 0.41471 0.0
H154 H 0.15505 0.93874 0.36202 0.0
H155 H 0.18061 0.91826 0.42054 0.0
H156 H 0.23691 0.84636 0.30246 0.0
H157 H 0.20758 0.88721 0.36243 0.0
H158 H 0.20577 0.83236 0.32177 0.0
H159 H 0.23889 0.90015 0.3426 0.0
H160 H 0.23498 0.89264 0.4242 0.0
H161 H 0.22762 0.82595 0.43882 0.0
H162 H 0.12428 0.89707 0.283 0.0
H163 H 0.17966 0.92988 0.30562 0.0
H164 H 0.15614 0.78228 0.38692 0.0
H165 H 0.15533 0.84044 0.42284 0.0
H166 H 0.14039 0.76367 0.41788 0.0
H167 H 0.13973 0.8208 0.4532 0.0
H168 H 0.11533 0.80854 0.32448 0.0
H169 H 0.1708 0.8465 0.3132 0.0
H170 H 0.11585 0.79761 0.28684 0.0
H171 H 0.17054 0.83463 0.27576 0.0
H172 H 0.08743 0.77722 0.36799 0.0
H173 H 0.07223 0.81995 0.41931 0.0
H174 H 0.2277 0.77369 0.34361 0.0
H175 H 0.16476 0.75426 0.32411 0.0
Li176 Li 0.42343 0.91445 0.6245 0.0
Li177 Li 0.44216 0.87875 0.61462 0.0
Li178 Li 0.44313 0.90865 0.59173 0.0
Li179 Li 0.40989 0.89029 0.59321 0.0
C180 C 0.4728 0.91781 0.61951 0.0
N181 N 0.51086 0.9389 0.61494 0.0
C182 C 0.49087 0.9068 0.61295 0.0
C183 C 0.47408 0.93955 0.62378 0.0
C184 C 0.50997 0.91774 0.61072 0.0
C185 C 0.49348 0.94992 0.62138 0.0
C186 C 0.41321 0.872 0.64354 0.0
C187 C 0.416 0.83811 0.66113 0.0
N188 N 0.41942 0.8482 0.6799 0.0
C189 C 0.41705 0.88202 0.66298 0.0
C190 C 0.41265 0.84986 0.64257 0.0
C191 C 0.41987 0.86973 0.68123 0.0
C192 C 0.39418 0.94304 0.64339 0.0
N193 N 0.41441 0.93595 0.64552 0.0
C194 C 0.42061 0.9619 0.67291 0.0
C195 C 0.42755 0.94482 0.66025 0.0
C196 C 0.39981 0.9698 0.67072 0.0
C197 C 0.38645 0.95977 0.65592 0.0
H198 H 0.38436 0.93613 0.63127 0.0
H199 H 0.44358 0.93896 0.66193 0.0
C200 C 0.47416 0.84803 0.60742 0.0
N201 N 0.46171 0.85572 0.62331 0.0
C202 C 0.48981 0.83275 0.61146 0.0
C203 C 0.47992 0.83326 0.64833 0.0
C204 C 0.46486 0.84906 0.64364 0.0
C205 C 0.49293 0.82483 0.63215 0.0
H206 H 0.47245 0.85429 0.59153 0.0
H207 H 0.45605 0.85626 0.65639 0.0
C208 C 0.41528 0.93946 0.58271 0.0
N209 N 0.41647 0.97572 0.55798 0.0
C210 C 0.41475 0.93793 0.56054 0.0
C211 C 0.41648 0.95946 0.59226 0.0
C212 C 0.4153 0.95644 0.54834 0.0
C213 C 0.41708 0.97759 0.57948 0.0
C214 C 0.43227 0.86413 0.56911 0.0
C215 C 0.42758 0.87014 0.54823 0.0
C216 C 0.4313 0.84268 0.5748 0.0
C217 C 0.42225 0.85459 0.53336 0.0
C218 C 0.42608 0.8276 0.5594 0.0
N219 N 0.42168 0.83381 0.53919 0.0
C220 C 0.46721 0.90859 0.55522 0.0
C221 C 0.46445 0.94269 0.57098 0.0
C222 C 0.47368 0.91742 0.5361 0.0
N223 N 0.46116 0.92138 0.5715 0.0
C224 C 0.47133 0.95219 0.55231 0.0
C225 C 0.47468 0.93947 0.53439 0.0
H226 H 0.46539 0.89162 0.55643 0.0
H227 H 0.45974 0.9525 0.5842 0.0
C228 C 0.37522 0.89986 0.56475 0.0
N229 N 0.3852 0.88325 0.57442 0.0
C230 C 0.35976 0.89651 0.54903 0.0
C231 C 0.36414 0.85886 0.55367 0.0
C232 C 0.37978 0.86297 0.56916 0.0
C233 C 0.35379 0.8758 0.54336 0.0
H234 H 0.37911 0.91589 0.56923 0.0
H235 H 0.38805 0.84993 0.5765 0.0
O236 O 0.45394 0.90738 0.62169 0.0
O237 O 0.41131 0.88378 0.6254 0.0
O238 O 0.41455 0.92152 0.59501 0.0
O239 O 0.4377 0.8792 0.58383 0.0
H240 H 0.49015 0.89001 0.60951 0.0
H241 H 0.46018 0.94842 0.62847 0.0
H242 H 0.52407 0.90942 0.6056 0.0
H243 H 0.49467 0.96676 0.6245 0.0
H244 H 0.41634 0.82101 0.6606 0.0
H245 H 0.41776 0.89909 0.66405 0.0
H246 H 0.4104 0.84188 0.62754 0.0
H247 H 0.42264 0.8773 0.69639 0.0
H248 H 0.4314 0.96882 0.68434 0.0
H249 H 0.37038 0.9653 0.65346 0.0
H250 H 0.49973 0.82775 0.59839 0.0
H251 H 0.48134 0.82791 0.66458 0.0
H252 H 0.41413 0.9226 0.55284 0.0
H253 H 0.41718 0.96102 0.60932 0.0
H254 H 0.4149 0.95548 0.5312 0.0
H255 H 0.41808 0.99315 0.58668 0.0
H256 H 0.4279 0.88667 0.54358 0.0
H257 H 0.4343 0.83772 0.59097 0.0
H258 H 0.41855 0.85904 0.51718 0.0
H259 H 0.42545 0.81095 0.56353 0.0
H260 H 0.47643 0.90731 0.52246 0.0
H261 H 0.47201 0.96935 0.55127 0.0
H262 H 0.35237 0.9101 0.54151 0.0
H263 H 0.36015 0.84259 0.54986 0.0
Li264 Li 0.32327 0.13444 0.82433 0.0
Li265 Li 0.31485 0.14048 0.86464 0.0
Li266 Li 0.29961 0.16176 0.83855 0.0
Li267 Li 0.33711 0.16817 0.84513 0.0
C268 C 0.27558 0.12846 0.83685 0.0
N269 N 0.23276 0.12667 0.82804 0.0
C270 C 0.26082 0.13036 0.85326 0.0
C271 C 0.26861 0.12539 0.81601 0.0
C272 C 0.23922 0.12948 0.84846 0.0
C273 C 0.24687 0.12459 0.81187 0.0
C274 C 0.35256 0.12777 0.86552 0.0
C275 C 0.36114 0.12904 0.90236 0.0
N276 N 0.36428 0.10772 0.90188 0.0
C277 C 0.35635 0.10597 0.86512 0.0
C278 C 0.35524 0.13948 0.88402 0.0
C279 C 0.36231 0.09604 0.8839 0.0
C280 C 0.33924 0.12164 0.78302 0.0
N281 N 0.33242 0.11414 0.80213 0.0
C282 C 0.34075 0.07847 0.79109 0.0
C283 C 0.33304 0.09291 0.80631 0.0
C284 C 0.34751 0.08579 0.7711 0.0
C285 C 0.3465 0.10772 0.76716 0.0
H286 H 0.33942 0.13853 0.78009 0.0
H287 H 0.32781 0.08715 0.82161 0.0
C288 C 0.29677 0.14123 0.90695 0.0
N289 N 0.30793 0.1285 0.89343 0.0
C290 C 0.29173 0.13456 0.92771 0.0
C291 C 0.3096 0.10159 0.92051 0.0
C292 C 0.31316 0.10846 0.89959 0.0
C293 C 0.29909 0.11484 0.93556 0.0
H294 H 0.29143 0.15662 0.90155 0.0
H295 H 0.32009 0.09767 0.88828 0.0
C296 C 0.3165 0.1766 0.79925 0.0
N297 N 0.30449 0.19886 0.76334 0.0
C298 C 0.32196 0.19799 0.797 0.0
C299 C 0.30543 0.16641 0.78295 0.0
C300 C 0.31556 0.20902 0.77883 0.0
C301 C 0.29939 0.17796 0.76498 0.0
C302 C 0.31232 0.19238 0.87092 0.0
C303 C 0.3106 0.20818 0.85545 0.0
C304 C 0.31336 0.19813 0.89234 0.0
C305 C 0.31007 0.22947 0.8616 0.0
C306 C 0.31274 0.2196 0.89788 0.0
N307 N 0.31114 0.2347 0.88252 0.0
C308 C 0.26553 0.18402 0.85475 0.0
C309 C 0.26474 0.1826 0.81718 0.0
C310 C 0.25138 0.201 0.85493 0.0
N311 N 0.27341 0.1767 0.836 0.0
C312 C 0.24997 0.19902 0.81662 0.0
C313 C 0.24453 0.20936 0.83559 0.0
H314 H 0.27182 0.17816 0.86959 0.0
H315 H 0.27031 0.1758 0.80256 0.0
C316 C 0.37337 0.19332 0.83119 0.0
N317 N 0.36094 0.1882 0.8481 0.0
C318 C 0.39057 0.20734 0.83361 0.0
C319 C 0.38163 0.21104 0.87059 0.0
C320 C 0.36491 0.19678 0.86756 0.0
C321 C 0.39488 0.2165 0.85355 0.0
H322 H 0.3701 0.18636 0.81583 0.0
H323 H 0.35527 0.19248 0.88098 0.0
O324 O 0.29675 0.12988 0.84114 0.0
O325 O 0.34377 0.13746 0.84864 0.0
O326 O 0.32285 0.16546 0.81683 0.0
O327 O 0.31328 0.1714 0.86519 0.0
H328 H 0.26601 0.13275 0.86947 0.0
H329 H 0.27987 0.12374 0.80319 0.0
H330 H 0.22761 0.1311 0.86097 0.0
H331 H 0.24122 0.12235 0.79581 0.0
H332 H 0.36279 0.13784 0.91698 0.0
H333 H 0.35399 0.09682 0.85078 0.0
H334 H 0.35173 0.15623 0.88443 0.0
H335 H 0.36472 0.07907 0.88447 0.0
H336 H 0.34127 0.06169 0.79486 0.0
H337 H 0.35184 0.11413 0.75214 0.0
H338 H 0.28261 0.14498 0.93788 0.0
H339 H 0.31409 0.08555 0.92475 0.0
H340 H 0.33117 0.206 0.80908 0.0
H341 H 0.30127 0.14982 0.78428 0.0
H342 H 0.31952 0.22562 0.77699 0.0
H343 H 0.29062 0.17031 0.75236 0.0
H344 H 0.30941 0.20401 0.8389 0.0
H345 H 0.31502 0.18617 0.90457 0.0
H346 H 0.30877 0.24183 0.84974 0.0
H347 H 0.31364 0.22427 0.91438 0.0
H348 H 0.24743 0.20867 0.8698 0.0
H349 H 0.24485 0.20517 0.80139 0.0
H350 H 0.40024 0.21115 0.81995 0.0
H351 H 0.38444 0.21736 0.88633 0.0
Li352 Li 0.05824 0.92505 0.39345 0.0
Li353 Li 0.09246 0.90811 0.40183 0.0
Li354 Li 0.08469 0.92856 0.36655 0.0
Li355 Li 0.06702 0.89423 0.37498 0.0
C356 C 0.08253 0.95703 0.40695 0.0
N357 N 0.07307 0.99413 0.42842 0.0
C358 C 0.08228 0.95733 0.42914 0.0
C359 C 0.07823 0.97568 0.39569 0.0
C360 C 0.07735 0.97621 0.4397 0.0
C361 C 0.07346 0.99426 0.40683 0.0
C362 C 0.05326 0.8936 0.42484 0.0
C363 C 0.02339 0.8798 0.44431 0.0
N364 N 0.03253 0.88621 0.46279 0.0
C365 C 0.06242 0.89987 0.44407 0.0
C366 C 0.03363 0.88331 0.42499 0.0
C367 C 0.05168 0.89606 0.46306 0.0
C368 C 0.0286 0.94289 0.42337 0.0
N369 N 0.03634 0.94287 0.40329 0.0
C370 C 0.01853 0.97533 0.39522 0.0
C371 C 0.03089 0.95815 0.38901 0.0
C372 C 0.01159 0.9765 0.41624 0.0
C373 C 0.01593 0.95963 0.43019 0.0
H374 H 0.03337 0.93087 0.43455 0.0
H375 H 0.03759 0.95788 0.37322 0.0
C376 C 0.12685 0.91799 0.4308 0.0
N377 N 0.1137 0.90223 0.42406 0.0
C378 C 0.1418 0.9142 0.44696 0.0
C379 C 0.12911 0.87825 0.44956 0.0
C380 C 0.11436 0.88275 0.43342 0.0
C381 C 0.14335 0.894 0.45636 0.0
H382 H 0.12589 0.93351 0.42351 0.0
H383 H 0.10311 0.87082 0.42862 0.0
C384 C 0.03492 0.91513 0.35563 0.0
N385 N 0.99522 0.90352 0.34118 0.0
C386 C 0.01973 0.90753 0.36981 0.0
C387 C 0.02992 0.9168 0.33406 0.0
C388 C 0.99976 0.90174 0.36222 0.0
C389 C 0.00976 0.91088 0.32708 0.0
C390 C 0.09814 0.88664 0.35337 0.0
C391 C 0.09211 0.89433 0.33342 0.0
C392 C 0.10067 0.86494 0.35641 0.0
C393 C 0.08823 0.87999 0.31695 0.0
C394 C 0.09621 0.85105 0.33973 0.0
N395 N 0.09017 0.85877 0.32048 0.0
C396 C 0.11331 0.96018 0.3528 0.0
C397 C 0.08308 0.95616 0.33087 0.0
C398 C 0.11966 0.97809 0.34133 0.0
N399 N 0.09532 0.94964 0.34742 0.0
C400 C 0.0887 0.9741 0.3191 0.0
C401 C 0.10709 0.98551 0.32443 0.0
H402 H 0.12204 0.95537 0.36676 0.0
H403 H 0.06851 0.94794 0.32733 0.0
C404 C 0.05281 0.85357 0.38137 0.0
N405 N 0.05444 0.86755 0.36511 0.0
C406 C 0.04185 0.83468 0.37882 0.0
C407 C 0.03641 0.84299 0.3419 0.0
C408 C 0.04631 0.86273 0.34555 0.0
C409 C 0.03396 0.82879 0.35887 0.0
H410 H 0.05927 0.8575 0.39674 0.0
H411 H 0.04715 0.87423 0.33286 0.0
O412 O 0.08674 0.93854 0.3963 0.0
O413 O 0.06382 0.8967 0.40609 0.0
O414 O 0.0548 0.92031 0.36264 0.0
O415 O 0.09893 0.90004 0.37041 0.0
H416 H 0.08574 0.94315 0.43813 0.0
H417 H 0.07817 0.97577 0.37853 0.0
H418 H 0.07694 0.97662 0.45686 0.0
H419 H 0.06992 0.00875 0.39831 0.0
H420 H 0.00819 0.87189 0.44462 0.0
H421 H 0.07759 0.90769 0.44441 0.0
H422 H 0.0264 0.8779 0.41039 0.0
H423 H 0.05857 0.90094 0.47802 0.0
H424 H 0.01566 0.98823 0.3842 0.0
H425 H 0.01119 0.9603 0.4467 0.0
H426 H 0.15219 0.92694 0.45193 0.0
H427 H 0.1295 0.86253 0.45652 0.0
H428 H 0.02333 0.90607 0.38648 0.0
H429 H 0.04156 0.9223 0.32277 0.0
H430 H 0.98789 0.8958 0.37305 0.0
H431 H 0.0057 0.91202 0.31042 0.0
H432 H 0.08981 0.9111 0.33079 0.0
H433 H 0.10481 0.85905 0.37191 0.0
H434 H 0.08336 0.8857 0.3015 0.0
H435 H 0.09682 0.83416 0.34233 0.0
H436 H 0.13372 0.9866 0.34628 0.0
H437 H 0.07856 0.97916 0.30617 0.0
H438 H 0.03892 0.82511 0.39273 0.0
H439 H 0.02963 0.83949 0.3265 0.0
Li440 Li 0.31464 0.84124 0.65891 0.0
Li441 Li 0.34522 0.84024 0.63519 0.0
Li442 Li 0.33524 0.87426 0.65404 0.0
Li443 Li 0.31232 0.86013 0.62297 0.0
C444 C 0.34922 0.84825 0.68714 0.0
N445 N 0.35891 0.85233 0.7298 0.0
C446 C 0.36806 0.8398 0.69522 0.0
C447 C 0.33531 0.85877 0.70084 0.0
C448 C 0.37269 0.84202 0.7168 0.0
C449 C 0.34047 0.86067 0.72233 0.0
C450 C 0.32056 0.81006 0.62118 0.0
C451 C 0.33056 0.78898 0.59086 0.0
N452 N 0.33195 0.77157 0.60357 0.0
C453 C 0.32203 0.79198 0.63395 0.0
C454 C 0.32482 0.8086 0.59946 0.0
C455 C 0.32783 0.77265 0.62474 0.0
C456 C 0.279 0.83183 0.68338 0.0
N457 N 0.29955 0.82662 0.67967 0.0
C458 C 0.30312 0.81113 0.71383 0.0
C459 C 0.31114 0.81512 0.69373 0.0
C460 C 0.28283 0.81855 0.71901 0.0
C461 C 0.27018 0.82792 0.70327 0.0
H462 H 0.27018 0.84078 0.67166 0.0
H463 H 0.32727 0.81072 0.69001 0.0
C464 C 0.37372 0.80656 0.64568 0.0
N465 N 0.3682 0.81917 0.62896 0.0
C466 C 0.39006 0.79148 0.64393 0.0
C467 C 0.39387 0.80097 0.60715 0.0
C468 C 0.3775 0.81608 0.60968 0.0
C469 C 0.40079 0.78881 0.62462 0.0
H470 H 0.36532 0.8081 0.66051 0.0
H471 H 0.37205 0.82515 0.59622 0.0
C472 C 0.29161 0.88658 0.65917 0.0
N473 N 0.26689 0.92021 0.67296 0.0
C474 C 0.28911 0.90464 0.64653 0.0
C475 C 0.28199 0.88598 0.67918 0.0
C476 C 0.2764 0.92136 0.65364 0.0
C477 C 0.26948 0.90305 0.6858 0.0
C478 C 0.34228 0.89015 0.61275 0.0
C479 C 0.34928 0.90835 0.62328 0.0
C480 C 0.33276 0.89222 0.59286 0.0
C481 C 0.34484 0.92836 0.61475 0.0
C482 C 0.32879 0.91255 0.58472 0.0
N483 N 0.3347 0.93003 0.59581 0.0
C484 C 0.36619 0.89557 0.68006 0.0
C485 C 0.33307 0.9129 0.68153 0.0
C486 C 0.37407 0.90843 0.69651 0.0
N487 N 0.3458 0.89753 0.67315 0.0
C488 C 0.34014 0.92583 0.6982 0.0
C489 C 0.36071 0.92336 0.70629 0.0
H490 H 0.37595 0.88315 0.67352 0.0
H491 H 0.31713 0.91486 0.67604 0.0
C492 C 0.2799 0.84736 0.59265 0.0
N493 N 0.29015 0.86487 0.6002 0.0
C494 C 0.26347 0.84916 0.57756 0.0
C495 C 0.26839 0.88694 0.57763 0.0
C496 C 0.28416 0.88447 0.59313 0.0
C497 C 0.25734 0.86923 0.56966 0.0
H498 H 0.28411 0.83186 0.59869 0.0
H499 H 0.29154 0.8985 0.59926 0.0
O500 O 0.3446 0.8465 0.6659 0.0
O501 O 0.31563 0.82925 0.63003 0.0
O502 O 0.30382 0.86994 0.65222 0.0
O503 O 0.34376 0.87059 0.62224 0.0
H504 H 0.37907 0.83166 0.68498 0.0
H505 H 0.32073 0.86551 0.69489 0.0
H506 H 0.38726 0.83558 0.7232 0.0
H507 H 0.32984 0.86881 0.73305 0.0
H508 H 0.33402 0.78761 0.5741 0.0
H509 H 0.31893 0.79291 0.65081 0.0
H510 H 0.32399 0.82254 0.58943 0.0
H511 H 0.32913 0.75853 0.63443 0.0
H512 H 0.31292 0.80307 0.72546 0.0
H513 H 0.25424 0.83329 0.70673 0.0
H514 H 0.39436 0.78205 0.65766 0.0
H515 H 0.40125 0.79901 0.59178 0.0
H516 H 0.29774 0.90615 0.6319 0.0
H517 H 0.28437 0.87275 0.68976 0.0
H518 H 0.27438 0.9354 0.64395 0.0
H519 H 0.26195 0.9027 0.70121 0.0
H520 H 0.35813 0.90714 0.6378 0.0
H521 H 0.32792 0.8783 0.58406 0.0
H522 H 0.34931 0.9426 0.62319 0.0
H523 H 0.32068 0.91451 0.56977 0.0
H524 H 0.39008 0.90598 0.70221 0.0
H525 H 0.32943 0.93744 0.70498 0.0
H526 H 0.25543 0.83485 0.57259 0.0
H527 H 0.26506 0.90282 0.57202 0.0
Li528 Li 0.41394 0.08953 0.91227 0.0
Li529 Li 0.44997 0.07603 0.90842 0.0
Li530 Li 0.44161 0.10751 0.89063 0.0
Li531 Li 0.42646 0.07422 0.87676 0.0
C532 C 0.4409 0.10178 0.94334 0.0
N533 N 0.44287 0.09892 0.98713 0.0
C534 C 0.43419 0.08333 0.95368 0.0
C535 C 0.44843 0.11885 0.95536 0.0
C536 C 0.43535 0.08217 0.9758 0.0
C537 C 0.44934 0.11708 0.97746 0.0
C538 C 0.4259 0.03856 0.90169 0.0
C539 C 0.4469 0.0097 0.88775 0.0
N540 N 0.43103 0.99593 0.89249 0.0
C541 C 0.40981 0.0241 0.9064 0.0
C542 C 0.4446 0.0313 0.89224 0.0
C543 C 0.41271 0.00263 0.90165 0.0
C544 C 0.37542 0.07491 0.93298 0.0
N545 N 0.38967 0.09117 0.93203 0.0
C546 C 0.36635 0.11311 0.95264 0.0
C547 C 0.38596 0.1096 0.94272 0.0
C548 C 0.35064 0.09735 0.95213 0.0
C549 C 0.35577 0.07762 0.94319 0.0
H550 H 0.37861 0.06034 0.92457 0.0
H551 H 0.39746 0.12229 0.94202 0.0
C552 C 0.48727 0.08027 0.92857 0.0
N553 N 0.47204 0.06549 0.92493 0.0
C554 C 0.50038 0.07854 0.94624 0.0
C555 C 0.48289 0.04548 0.95499 0.0
C556 C 0.46992 0.048 0.93731 0.0
C557 C 0.49772 0.06134 0.96001 0.0
H558 H 0.48777 0.09448 0.91896 0.0
H559 H 0.45692 0.03716 0.93477 0.0
C560 C 0.40828 0.12035 0.87208 0.0
N561 N 0.40365 0.15869 0.85143 0.0
C562 C 0.40545 0.12085 0.85008 0.0
C563 C 0.40853 0.13928 0.88362 0.0
C564 C 0.40304 0.14042 0.83993 0.0
C565 C 0.4063 0.15853 0.87287 0.0
C566 C 0.46834 0.09112 0.86267 0.0
C567 C 0.45924 0.09444 0.84269 0.0
C568 C 0.48928 0.09728 0.86636 0.0
C569 C 0.47125 0.104 0.82673 0.0
C570 C 0.50074 0.10686 0.85001 0.0
N571 N 0.49156 0.10999 0.8307 0.0
C572 C 0.47051 0.14073 0.89978 0.0
C573 C 0.45765 0.14426 0.86474 0.0
C574 C 0.48456 0.15769 0.89679 0.0
N575 N 0.4573 0.13423 0.88395 0.0
C576 C 0.47154 0.16135 0.86104 0.0
C577 C 0.48547 0.16826 0.87714 0.0
H578 H 0.47081 0.13216 0.9146 0.0
H579 H 0.44768 0.13866 0.85199 0.0
C580 C 0.39636 0.05155 0.8512 0.0
N581 N 0.41741 0.05539 0.85374 0.0
C582 C 0.38926 0.03591 0.83703 0.0
C583 C 0.42561 0.0285 0.82794 0.0
C584 C 0.432 0.04427 0.84233 0.0
C585 C 0.40394 0.02387 0.82524 0.0
H586 H 0.38505 0.06017 0.86069 0.0
H587 H 0.4487 0.0472 0.84483 0.0
O588 O 0.44061 0.10303 0.9216 0.0
O589 O 0.42295 0.05979 0.90545 0.0
O590 O 0.41068 0.10141 0.88233 0.0
O591 O 0.45668 0.08216 0.8786 0.0
H592 H 0.42828 0.06993 0.94477 0.0
H593 H 0.45353 0.13335 0.94774 0.0
H594 H 0.43032 0.06793 0.98394 0.0
H595 H 0.45522 0.13014 0.98692 0.0
H596 H 0.46127 0.0039 0.88041 0.0
H597 H 0.39515 0.02936 0.9135 0.0
H598 H 0.45721 0.04218 0.8883 0.0
H599 H 0.40035 0.99129 0.90518 0.0
H600 H 0.36333 0.12832 0.96005 0.0
H601 H 0.34433 0.06483 0.94307 0.0
H602 H 0.5116 0.09105 0.94977 0.0
H603 H 0.48015 0.03221 0.96557 0.0
H604 H 0.40503 0.10627 0.84099 0.0
H605 H 0.41066 0.13908 0.90069 0.0
H606 H 0.4008 0.14111 0.82291 0.0
H607 H 0.40676 0.17332 0.88155 0.0
H608 H 0.44299 0.08996 0.83962 0.0
H609 H 0.49658 0.09482 0.88171 0.0
H610 H 0.46437 0.10677 0.81124 0.0
H611 H 0.51692 0.11184 0.85268 0.0
H612 H 0.49522 0.1619 0.90959 0.0
H613 H 0.47149 0.16892 0.8456 0.0
H614 H 0.37242 0.03289 0.83586 0.0
H615 H 0.43759 0.01999 0.81907 0.0
Li616 Li 0.17022 0.19068 0.16281 0.0
Li617 Li 0.20591 0.1839 0.17517 0.0
Li618 Li 0.19453 0.16513 0.14661 0.0
Li619 Li 0.17993 0.15684 0.18304 0.0
C620 C 0.19722 0.21773 0.14539 0.0
N621 N 0.19731 0.26144 0.14088 0.0
C622 C 0.20173 0.23079 0.16276 0.0
C623 C 0.19255 0.22701 0.12575 0.0
C624 C 0.20179 0.2528 0.16016 0.0
C625 C 0.1927 0.2491 0.12379 0.0
C626 C 0.18526 0.19538 0.21237 0.0
C627 C 0.19721 0.19082 0.2485 0.0
N628 N 0.19562 0.21212 0.25161 0.0
C629 C 0.18341 0.2172 0.21605 0.0
C630 C 0.19196 0.18205 0.22881 0.0
C631 C 0.18888 0.22537 0.23594 0.0
C632 C 0.13729 0.22001 0.17435 0.0
N633 N 0.1472 0.21029 0.15782 0.0
C634 C 0.12382 0.22734 0.13309 0.0
C635 C 0.14085 0.21378 0.13746 0.0
C636 C 0.1133 0.23766 0.14981 0.0
C637 C 0.12035 0.23396 0.17068 0.0
H638 H 0.1424 0.2168 0.19042 0.0
H639 H 0.149 0.20601 0.12456 0.0
C640 C 0.24455 0.19714 0.16368 0.0
N641 N 0.2328 0.19505 0.18164 0.0
C642 C 0.26445 0.20646 0.16441 0.0
C643 C 0.26032 0.21023 0.20242 0.0
C644 C 0.24047 0.20068 0.20095 0.0
C645 C 0.27221 0.21386 0.18383 0.0
H646 H 0.23816 0.19201 0.1486 0.0
H647 H 0.23098 0.19854 0.21501 0.0
C648 C 0.16291 0.14678 0.13903 0.0
N649 N 0.16608 0.11984 0.10506 0.0
C650 C 0.16682 0.12522 0.14238 0.0
C651 C 0.16038 0.15465 0.11846 0.0
C652 C 0.16834 0.11178 0.12492 0.0
C653 C 0.162 0.14071 0.10142 0.0
C654 C 0.22761 0.14712 0.17933 0.0
C655 C 0.24531 0.14662 0.16603 0.0
C656 C 0.22982 0.14164 0.20071 0.0
C657 C 0.26506 0.1412 0.1745 0.0
C658 C 0.24983 0.13629 0.20858 0.0
N659 N 0.2669 0.13622 0.19544 0.0
C660 C 0.20967 0.16868 0.10477 0.0
C661 C 0.2138 0.134 0.11853 0.0
C662 C 0.22017 0.163 0.08616 0.0
N663 N 0.20672 0.15431 0.12054 0.0
C664 C 0.2238 0.12739 0.09982 0.0
C665 C 0.22758 0.14209 0.08338 0.0
H666 H 0.20442 0.18482 0.1069 0.0
H667 H 0.21193 0.12297 0.13155 0.0
C668 C 0.15368 0.14261 0.21644 0.0
N669 N 0.16878 0.13622 0.20242 0.0
C670 C 0.14505 0.1282 0.23094 0.0
C671 C 0.16712 0.10072 0.21584 0.0
C672 C 0.1757 0.11576 0.20198 0.0
C673 C 0.15169 0.10693 0.23063 0.0
H674 H 0.1484 0.15896 0.21641 0.0
H675 H 0.18786 0.11111 0.19082 0.0
O676 O 0.19664 0.19605 0.14759 0.0
O677 O 0.17975 0.18703 0.19306 0.0
O678 O 0.16349 0.16043 0.15567 0.0
O679 O 0.20816 0.15257 0.17137 0.0
H680 H 0.20509 0.2241 0.17812 0.0
H681 H 0.18849 0.21732 0.11218 0.0
H682 H 0.20533 0.26303 0.1735 0.0
H683 H 0.18905 0.25644 0.10868 0.0
H684 H 0.20252 0.18067 0.26132 0.0
H685 H 0.17775 0.22775 0.20373 0.0
H686 H 0.19305 0.16512 0.22646 0.0
H687 H 0.18765 0.24224 0.23894 0.0
H688 H 0.11904 0.22987 0.11676 0.0
H689 H 0.11255 0.24143 0.18404 0.0
H690 H 0.27315 0.20886 0.1498 0.0
H691 H 0.26559 0.21602 0.21773 0.0
H692 H 0.16896 0.11902 0.1582 0.0
H693 H 0.15775 0.17136 0.11567 0.0
H694 H 0.17166 0.09508 0.12705 0.0
H695 H 0.16038 0.14651 0.08535 0.0
H696 H 0.24388 0.15064 0.14939 0.0
H697 H 0.21624 0.14142 0.21111 0.0
H698 H 0.27893 0.14098 0.16444 0.0
H699 H 0.25178 0.13213 0.22514 0.0
H700 H 0.22317 0.17528 0.07455 0.0
H701 H 0.22891 0.11103 0.09853 0.0
H702 H 0.1331 0.13353 0.24206 0.0
H703 H 0.17271 0.08445 0.21524 0.0
Li704 Li 0.59189 0.38821 0.92937 0.0
Li705 Li 0.56181 0.41021 0.91985 0.0
Li706 Li 0.56395 0.37537 0.90503 0.0
Li707 Li 0.58809 0.40606 0.89206 0.0
C708 C 0.56032 0.37714 0.95611 0.0
N709 N 0.55891 0.3651 0.99831 0.0
C710 C 0.55513 0.39196 0.9718 0.0
C711 C 0.56445 0.35612 0.96191 0.0
C712 C 0.55459 0.38559 0.99303 0.0
C713 C 0.56377 0.35036 0.98331 0.0
C714 C 0.59255 0.4374 0.93238 0.0
C715 C 0.59777 0.47531 0.93474 0.0
N716 N 0.5937 0.47449 0.95591 0.0
C717 C 0.58857 0.43698 0.95419 0.0
C718 C 0.59734 0.45675 0.9226 0.0
C719 C 0.58917 0.45586 0.9658 0.0
C720 C 0.62563 0.39731 0.95882 0.0
N721 N 0.61311 0.38124 0.9516 0.0
C722 C 0.63145 0.35674 0.97462 0.0
C723 C 0.61594 0.36112 0.95913 0.0
C724 C 0.64471 0.37306 0.98213 0.0
C725 C 0.64145 0.3936 0.97401 0.0
H726 H 0.62401 0.41301 0.9522 0.0
H727 H 0.60659 0.34827 0.95275 0.0
C728 C 0.52282 0.42318 0.93648 0.0
N729 N 0.54106 0.43018 0.92749 0.0
C730 C 0.50601 0.43717 0.93961 0.0
C731 C 0.52699 0.46506 0.92373 0.0
C732 C 0.54317 0.45047 0.9206 0.0
C733 C 0.50814 0.45852 0.93348 0.0
H734 H 0.52116 0.40662 0.94065 0.0
H735 H 0.55707 0.45518 0.91191 0.0
C736 C 0.59418 0.35798 0.88765 0.0
N737 N 0.58157 0.32415 0.86311 0.0
C738 C 0.5931 0.36009 0.86561 0.0
C739 C 0.58991 0.33844 0.89717 0.0
C740 C 0.58671 0.34274 0.85344 0.0
C741 C 0.58321 0.32158 0.88449 0.0
C742 C 0.53896 0.41146 0.88373 0.0
C743 C 0.51954 0.40183 0.88822 0.0
C744 C 0.53928 0.43123 0.87364 0.0
C745 C 0.50076 0.41217 0.88256 0.0
C746 C 0.52015 0.44106 0.86825 0.0
N747 N 0.50145 0.4314 0.87279 0.0
C748 C 0.53526 0.34019 0.91143 0.0
C749 C 0.53922 0.34947 0.87537 0.0
C750 C 0.52033 0.32458 0.90614 0.0
N751 N 0.54465 0.35217 0.89614 0.0
C752 C 0.52472 0.33366 0.8693 0.0
C753 C 0.51478 0.32091 0.88477 0.0
H754 H 0.53882 0.34312 0.9279 0.0
H755 H 0.54608 0.35968 0.86342 0.0
C756 C 0.61819 0.43469 0.87447 0.0
N757 N 0.60105 0.4226 0.86944 0.0
C758 C 0.6248 0.45107 0.86098 0.0
C759 C 0.5967 0.44171 0.83673 0.0
C760 C 0.59078 0.4253 0.85058 0.0
C761 C 0.61352 0.4552 0.84224 0.0
H762 H 0.62583 0.43263 0.88969 0.0
H763 H 0.57708 0.41566 0.84693 0.0
O764 O 0.56099 0.38305 0.93518 0.0
O765 O 0.59201 0.41897 0.92077 0.0
O766 O 0.5968 0.37554 0.89996 0.0
O767 O 0.55752 0.40179 0.88959 0.0
H768 H 0.55152 0.40822 0.96769 0.0
H769 H 0.56849 0.34439 0.95003 0.0
H770 H 0.55069 0.39694 0.00532 0.0
H771 H 0.56714 0.33418 0.988 0.0
H772 H 0.60126 0.49038 0.9273 0.0
H773 H 0.58541 0.42216 0.96215 0.0
H774 H 0.60015 0.45762 0.90573 0.0
H775 H 0.58612 0.45568 0.9827 0.0
H776 H 0.63355 0.34056 0.98007 0.0
H777 H 0.65116 0.40675 0.97926 0.0
H778 H 0.49156 0.43136 0.94677 0.0
H779 H 0.52943 0.48135 0.91885 0.0
H780 H 0.59629 0.3752 0.85808 0.0
H781 H 0.5905 0.33672 0.91426 0.0
H782 H 0.58533 0.34418 0.83638 0.0
H783 H 0.57891 0.3066 0.89167 0.0
H784 H 0.51892 0.38673 0.89635 0.0
H785 H 0.55409 0.43919 0.87047 0.0
H786 H 0.48562 0.40495 0.88607 0.0
H787 H 0.52018 0.45643 0.8606 0.0
H788 H 0.51279 0.31597 0.91892 0.0
H789 H 0.52139 0.33161 0.85257 0.0
H790 H 0.63785 0.46118 0.86573 0.0
H791 H 0.58772 0.44439 0.8223 0.0
Li792 Li 0.83643 0.3198 0.16586 0.0
Li793 Li 0.86344 0.32917 0.14057 0.0
Li794 Li 0.84751 0.35789 0.16577 0.0
Li795 Li 0.82603 0.34342 0.13498 0.0
C796 C 0.86974 0.33177 0.19327 0.0
N797 N 0.88051 0.33291 0.2358 0.0
C798 C 0.8905 0.32735 0.19966 0.0
C799 C 0.85442 0.33657 0.20854 0.0
C800 C 0.89564 0.32804 0.22123 0.0
C801 C 0.86019 0.33714 0.22995 0.0
C802 C 0.84233 0.29946 0.12026 0.0
C803 C 0.85044 0.29063 0.08392 0.0
N804 N 0.85551 0.27055 0.09006 0.0
C805 C 0.84754 0.27872 0.12621 0.0
C806 C 0.84376 0.30549 0.09896 0.0
C807 C 0.85421 0.26435 0.11071 0.0
C808 C 0.80928 0.28802 0.17997 0.0
N809 N 0.82942 0.29542 0.18059 0.0
C810 C 0.84195 0.26346 0.19647 0.0
C811 C 0.84568 0.28362 0.18844 0.0
C812 C 0.82128 0.25545 0.19635 0.0
C813 C 0.80476 0.26798 0.18804 0.0
H814 H 0.79688 0.29754 0.17286 0.0
H815 H 0.86167 0.28956 0.18789 0.0
C816 C 0.89423 0.29758 0.14662 0.0
N817 N 0.88824 0.31131 0.13097 0.0
C818 C 0.91015 0.28237 0.14337 0.0
C819 C 0.91382 0.29493 0.10752 0.0
C820 C 0.89748 0.30989 0.11142 0.0
C821 C 0.92035 0.28068 0.12362 0.0
H822 H 0.88644 0.29822 0.1618 0.0
H823 H 0.89218 0.32024 0.09875 0.0
C824 C 0.80115 0.35359 0.17585 0.0
N825 N 0.7659 0.3699 0.19613 0.0
C826 C 0.79164 0.37224 0.1685 0.0
C827 C 0.79276 0.34326 0.19358 0.0
C828 C 0.77383 0.38023 0.17894 0.0
C829 C 0.77493 0.35175 0.20361 0.0
C830 C 0.84682 0.37784 0.12328 0.0
C831 C 0.84552 0.39748 0.13353 0.0
C832 C 0.83952 0.37594 0.10246 0.0
C833 C 0.83652 0.41476 0.12289 0.0
C834 C 0.83088 0.39367 0.09222 0.0
N835 N 0.82944 0.41251 0.10262 0.0
C836 C 0.8739 0.38489 0.19158 0.0
C837 C 0.83769 0.39277 0.19622 0.0
C838 C 0.87957 0.39992 0.20709 0.0
N839 N 0.85328 0.38151 0.18629 0.0
C840 C 0.84258 0.40769 0.2121 0.0
C841 C 0.86379 0.41143 0.21788 0.0
H842 H 0.88586 0.37524 0.18424 0.0
H843 H 0.82135 0.38998 0.19228 0.0
C844 C 0.79282 0.33002 0.10637 0.0
N845 N 0.80134 0.34769 0.11547 0.0
C846 C 0.77512 0.33143 0.09286 0.0
C847 C 0.7748 0.36922 0.09822 0.0
C848 C 0.7922 0.36702 0.11198 0.0
C849 C 0.76579 0.35129 0.08833 0.0
H850 H 0.79957 0.31463 0.10981 0.0
H851 H 0.79856 0.38098 0.11956 0.0
O852 O 0.86454 0.3316 0.17215 0.0
O853 O 0.83648 0.31397 0.13529 0.0
O854 O 0.81851 0.34539 0.16574 0.0
O855 O 0.8544 0.36038 0.13381 0.0
H856 H 0.90252 0.32344 0.1881 0.0
H857 H 0.83831 0.34003 0.2039 0.0
H858 H 0.91166 0.32473 0.22639 0.0
H859 H 0.84851 0.34098 0.2419 0.0
H860 H 0.8517 0.2951 0.06739 0.0
H861 H 0.84664 0.27384 0.14265 0.0
H862 H 0.83994 0.32153 0.09412 0.0
H863 H 0.85842 0.24828 0.1151 0.0
H864 H 0.85509 0.25421 0.2026 0.0
H865 H 0.78851 0.2625 0.18805 0.0
H866 H 0.91449 0.27206 0.15642 0.0
H867 H 0.92086 0.29418 0.09188 0.0
H868 H 0.79837 0.38083 0.15533 0.0
H869 H 0.79998 0.32889 0.19962 0.0
H870 H 0.76641 0.39474 0.17348 0.0
H871 H 0.76829 0.34393 0.21736 0.0
H872 H 0.8513 0.39942 0.14954 0.0
H873 H 0.83982 0.36071 0.09457 0.0
H874 H 0.83521 0.42999 0.13073 0.0
H875 H 0.82478 0.39229 0.07623 0.0
H876 H 0.89613 0.40194 0.21114 0.0
H877 H 0.82984 0.41622 0.21985 0.0
H878 H 0.76868 0.31692 0.08635 0.0
H879 H 0.76871 0.38501 0.09525 0.0
Li880 Li 0.89243 0.60685 0.4052 0.0
Li881 Li 0.93049 0.59802 0.40612 0.0
Li882 Li 0.92103 0.62296 0.37807 0.0
Li883 Li 0.91106 0.58244 0.37671 0.0
C884 C 0.92517 0.631 0.42999 0.0
N885 N 0.94116 0.64027 0.46989 0.0
C886 C 0.91527 0.6231 0.4482 0.0
C887 C 0.94342 0.64341 0.43218 0.0
C888 C 0.92353 0.62801 0.46819 0.0
C889 C 0.95118 0.64798 0.45245 0.0
C890 C 0.91372 0.56023 0.41733 0.0
C891 C 0.93853 0.53103 0.41811 0.0
N892 N 0.93075 0.52502 0.43731 0.0
C893 C 0.90602 0.55378 0.43711 0.0
C894 C 0.93011 0.54876 0.40775 0.0
C895 C 0.91481 0.53591 0.44691 0.0
C896 C 0.85805 0.59487 0.43573 0.0
N897 N 0.86716 0.61181 0.42565 0.0
C898 C 0.84387 0.63518 0.44555 0.0
C899 C 0.86048 0.63183 0.43079 0.0
C900 C 0.83347 0.61796 0.45524 0.0
C901 C 0.84108 0.59755 0.45024 0.0
H902 H 0.86347 0.57903 0.43205 0.0
H903 H 0.86814 0.64537 0.42363 0.0
C904 C 0.97315 0.59504 0.41401 0.0
N905 N 0.95402 0.59256 0.42352 0.0
C906 C 0.99094 0.58511 0.42242 0.0
C907 C 0.9696 0.57376 0.45224 0.0
C908 C 0.95213 0.58355 0.443 0.0
C909 C 0.98881 0.57335 0.44109 0.0
H910 H 0.97424 0.60311 0.39894 0.0
H911 H 0.93679 0.58236 0.45046 0.0
C912 C 0.89095 0.61124 0.34903 0.0
N913 N 0.8988 0.617 0.30611 0.0
C914 C 0.89197 0.59391 0.33521 0.0
C915 C 0.89102 0.63146 0.34031 0.0
C916 C 0.89649 0.597 0.31376 0.0
C917 C 0.89576 0.63418 0.31876 0.0
C918 C 0.95198 0.59305 0.35969 0.0
C919 C 0.94918 0.60356 0.34034 0.0
C920 C 0.96829 0.57813 0.36185 0.0
C921 C 0.96273 0.59897 0.32344 0.0
C922 C 0.98154 0.57401 0.34459 0.0
N923 N 0.9785 0.58442 0.3259 0.0
C924 C 0.95476 0.65091 0.37499 0.0
C925 C 0.92925 0.66484 0.35159 0.0
C926 C 0.96571 0.67023 0.37489 0.0
N927 N 0.93567 0.64898 0.36516 0.0
C928 C 0.94011 0.68433 0.35052 0.0
C929 C 0.9572 0.6881 0.36432 0.0
H930 H 0.96056 0.63798 0.38467 0.0
H931 H 0.91484 0.66389 0.34284 0.0
C932 C 0.89114 0.54258 0.36399 0.0
N933 N 0.90841 0.55499 0.36011 0.0
C934 C 0.88628 0.5252 0.35078 0.0
C935 C 0.91795 0.53224 0.3308 0.0
C936 C 0.92188 0.54981 0.34396 0.0
C937 C 0.89969 0.51992 0.33375 0.0
H938 H 0.88054 0.54677 0.3768 0.0
H939 H 0.93521 0.55975 0.34043 0.0
O940 O 0.91729 0.62609 0.41024 0.0
O941 O 0.90597 0.57816 0.40776 0.0
O942 O 0.89151 0.60864 0.37079 0.0
O943 O 0.93891 0.59742 0.37644 0.0
H944 H 0.90167 0.61285 0.44699 0.0
H945 H 0.95161 0.64951 0.4185 0.0
H946 H 0.91601 0.62192 0.48236 0.0
H947 H 0.96522 0.65764 0.45429 0.0
H948 H 0.95134 0.52214 0.41095 0.0
H949 H 0.89373 0.56269 0.44505 0.0
H950 H 0.93659 0.55375 0.39269 0.0
H951 H 0.90907 0.5308 0.46226 0.0
H952 H 0.83926 0.65123 0.44949 0.0
H953 H 0.83404 0.58372 0.45758 0.0
H954 H 0.00566 0.58511 0.41359 0.0
H955 H 0.96753 0.56469 0.46671 0.0
H956 H 0.88799 0.5784 0.34051 0.0
H957 H 0.88785 0.6449 0.3503 0.0
H958 H 0.89781 0.58355 0.30316 0.0
H959 H 0.89699 0.6499 0.31204 0.0
H960 H 0.93666 0.61511 0.33834 0.0
H961 H 0.97056 0.56963 0.3766 0.0
H962 H 0.96071 0.60696 0.30837 0.0
H963 H 0.99418 0.56248 0.34602 0.0
H964 H 0.97956 0.67173 0.38493 0.0
H965 H 0.93386 0.69684 0.34054 0.0
H966 H 0.87203 0.51612 0.35371 0.0
H967 H 0.92861 0.52894 0.31774 0.0
Li968 Li 0.81596 0.63874 0.36551 0.0
Li969 Li 0.83685 0.6329 0.33274 0.0
Li970 Li 0.85166 0.65733 0.36375 0.0
Li971 Li 0.82216 0.66821 0.34037 0.0
C972 C 0.84148 0.60431 0.37067 0.0
N973 N 0.83328 0.56333 0.38445 0.0
C974 C 0.84489 0.58695 0.35734 0.0
C975 C 0.83472 0.60067 0.39137 0.0
C976 C 0.84056 0.56644 0.36443 0.0
C977 C 0.83029 0.57988 0.39795 0.0
C978 C 0.79455 0.63005 0.32245 0.0
C979 C 0.78001 0.62449 0.28746 0.0
N980 N 0.7695 0.60712 0.29474 0.0
C981 C 0.78351 0.61224 0.32962 0.0
C982 C 0.79271 0.63632 0.30124 0.0
C983 C 0.77097 0.60082 0.31535 0.0
C984 C 0.78301 0.64881 0.39041 0.0
N985 N 0.79331 0.63099 0.38414 0.0
C986 C 0.77727 0.61105 0.41199 0.0
C987 C 0.78833 0.61182 0.39276 0.0
C988 C 0.77022 0.63014 0.421 0.0
C989 C 0.77132 0.64878 0.40899 0.0
H990 H 0.78507 0.66347 0.3818 0.0
H991 H 0.79406 0.59735 0.38566 0.0
C992 C 0.85336 0.61964 0.29157 0.0
N993 N 0.84104 0.61351 0.30822 0.0
C994 C 0.85732 0.60582 0.27457 0.0
C995 C 0.83464 0.57997 0.29112 0.0
C996 C 0.83081 0.59444 0.30756 0.0
C997 C 0.84833 0.58551 0.27455 0.0
H998 H 0.86083 0.63499 0.29172 0.0
H999 H 0.8203 0.58998 0.32029 0.0
C1000 C 0.8228 0.68281 0.38739 0.0
N1001 N 0.81914 0.71086 0.42091 0.0
C1002 C 0.8195 0.70442 0.38355 0.0
C1003 C 0.8241 0.67544 0.40826 0.0
C1004 C 0.81784 0.71837 0.4007 0.0
C1005 C 0.82214 0.68987 0.42501 0.0
C1006 C 0.85822 0.67502 0.31644 0.0
C1007 C 0.87514 0.68878 0.32035 0.0
C1008 C 0.84823 0.67533 0.29661 0.0
C1009 C 0.88165 0.70276 0.30443 0.0
C1010 C 0.85521 0.68954 0.2811 0.0
N1011 N 0.87162 0.70286 0.28531 0.0
C1012 C 0.87412 0.69426 0.37729 0.0
C1013 C 0.8917 0.6635 0.38905 0.0
C1014 C 0.89113 0.70693 0.38389 0.0
N1015 N 0.87502 0.67273 0.37886 0.0
C1016 C 0.9094 0.67572 0.39553 0.0
C1017 C 0.91012 0.69757 0.39115 0.0
H1018 H 0.86077 0.70164 0.36949 0.0
H1019 H 0.89188 0.6465 0.39061 0.0
C1020 C 0.78763 0.68662 0.32297 0.0
N1021 N 0.80812 0.69079 0.32798 0.0
C1022 C 0.77794 0.69769 0.30658 0.0
C1023 C 0.80967 0.71908 0.3033 0.0
C1024 C 0.81859 0.70781 0.32003 0.0
C1025 C 0.78974 0.71294 0.29571 0.0
H1026 H 0.77964 0.67324 0.33009 0.0
H1027 H 0.83465 0.71109 0.32496 0.0
O1028 O 0.84546 0.62457 0.36365 0.0
O1029 O 0.80697 0.64137 0.33618 0.0
O1030 O 0.82388 0.66882 0.3708 0.0
O1031 O 0.85174 0.66112 0.33184 0.0
H1032 H 0.85123 0.58921 0.34178 0.0
H1033 H 0.83185 0.6139 0.40192 0.0
H1034 H 0.84307 0.553 0.35404 0.0
H1035 H 0.82396 0.57693 0.4136 0.0
H1036 H 0.77849 0.62912 0.27099 0.0
H1037 H 0.78479 0.60715 0.34597 0.0
H1038 H 0.80098 0.65016 0.29546 0.0
H1039 H 0.76243 0.58693 0.32065 0.0
H1040 H 0.77564 0.59607 0.42024 0.0
H1041 H 0.76439 0.66353 0.41439 0.0
H1042 H 0.86792 0.61066 0.26197 0.0
H1043 H 0.82725 0.56447 0.29152 0.0
H1044 H 0.8183 0.71038 0.36748 0.0
H1045 H 0.82621 0.6587 0.41138 0.0
H1046 H 0.81541 0.73515 0.39796 0.0
H1047 H 0.82286 0.68441 0.44126 0.0
H1048 H 0.88339 0.68848 0.33537 0.0
H1049 H 0.83513 0.66483 0.29329 0.0
H1050 H 0.89474 0.71346 0.30727 0.0
H1051 H 0.84755 0.68999 0.26573 0.0
H1052 H 0.88984 0.72393 0.38174 0.0
H1053 H 0.92316 0.66783 0.4018 0.0
H1054 H 0.76244 0.69284 0.30101 0.0
H1055 H 0.81893 0.73104 0.29516 0.0
Li1056 Li 0.66188 0.37181 0.83532 0.0
Li1057 Li 0.68089 0.35807 0.86896 0.0
Li1058 Li 0.68781 0.34305 0.83604 0.0
Li1059 Li 0.65393 0.33422 0.85181 0.0
C1060 C 0.71101 0.37786 0.83471 0.0
N1061 N 0.74972 0.38567 0.81572 0.0
C1062 C 0.72951 0.3786 0.84695 0.0
C1063 C 0.71229 0.38111 0.81279 0.0
C1064 C 0.7489 0.38256 0.83706 0.0
C1065 C 0.73197 0.38503 0.80349 0.0
C1066 C 0.64912 0.37236 0.88406 0.0
C1067 C 0.65369 0.36757 0.92169 0.0
N1068 N 0.65718 0.38876 0.92382 0.0
C1069 C 0.65258 0.39409 0.88659 0.0
C1070 C 0.64928 0.359 0.90175 0.0
C1071 C 0.6564 0.40213 0.90689 0.0
C1072 C 0.63077 0.3942 0.80914 0.0
N1073 N 0.65071 0.39516 0.81745 0.0
C1074 C 0.65888 0.42456 0.7945 0.0
C1075 C 0.66442 0.4105 0.8109 0.0
C1076 C 0.63866 0.42359 0.78511 0.0
C1077 C 0.62432 0.40847 0.79313 0.0
H1078 H 0.62012 0.38179 0.81428 0.0
H1079 H 0.68006 0.41134 0.8178 0.0
C1080 C 0.70298 0.34813 0.90752 0.0
N1081 N 0.69747 0.36493 0.89507 0.0
C1082 C 0.71805 0.35025 0.92377 0.0
C1083 C 0.7212 0.38731 0.91507 0.0
C1084 C 0.70601 0.38445 0.89887 0.0
C1085 C 0.72793 0.3699 0.92747 0.0
H1086 H 0.69624 0.33279 0.90436 0.0
H1087 H 0.70193 0.39761 0.88861 0.0
C1088 C 0.66079 0.33714 0.80078 0.0
N1089 N 0.66222 0.32535 0.75847 0.0
C1090 C 0.65744 0.31598 0.79489 0.0
C1091 C 0.66442 0.35233 0.78501 0.0
C1092 C 0.65837 0.31032 0.77346 0.0
C1093 C 0.66519 0.34605 0.76376 0.0
C1094 C 0.6837 0.30561 0.86192 0.0
C1095 C 0.6841 0.29517 0.84235 0.0
C1096 C 0.68402 0.29357 0.8806 0.0
C1097 C 0.68498 0.27302 0.84173 0.0
C1098 C 0.68484 0.27143 0.87935 0.0
N1099 N 0.68532 0.2617 0.86009 0.0
C1100 C 0.72751 0.32825 0.83849 0.0
C1101 C 0.71581 0.32768 0.80266 0.0
C1102 C 0.74658 0.31881 0.83301 0.0
N1103 N 0.71248 0.33204 0.82348 0.0
C1104 C 0.73463 0.31793 0.79647 0.0
C1105 C 0.74999 0.31286 0.81191 0.0
H1106 H 0.72439 0.33219 0.85491 0.0
H1107 H 0.70372 0.33106 0.79102 0.0
C1108 C 0.62009 0.30675 0.83759 0.0
N1109 N 0.63252 0.31152 0.85465 0.0
C1110 C 0.60499 0.29042 0.83868 0.0
C1111 C 0.61614 0.28337 0.87461 0.0
C1112 C 0.63084 0.30005 0.87293 0.0
C1113 C 0.60255 0.27866 0.85751 0.0
H1114 H 0.62144 0.31603 0.82323 0.0
H1115 H 0.64073 0.30398 0.88638 0.0
O1116 O 0.69188 0.37351 0.84406 0.0
O1117 O 0.64835 0.36381 0.86421 0.0
O1118 O 0.65966 0.3431 0.82171 0.0
O1119 O 0.68247 0.32737 0.86287 0.0
H1120 H 0.72906 0.3757 0.86382 0.0
H1121 H 0.69831 0.3803 0.80296 0.0
H1122 H 0.76332 0.38304 0.84636 0.0
H1123 H 0.73313 0.38745 0.78653 0.0
H1124 H 0.65484 0.35728 0.93537 0.0
H1125 H 0.65307 0.40447 0.8729 0.0
H1126 H 0.64712 0.34205 0.89992 0.0
H1127 H 0.65937 0.41889 0.90912 0.0
H1128 H 0.67035 0.43618 0.78925 0.0
H1129 H 0.60858 0.40702 0.78644 0.0
H1130 H 0.72222 0.33641 0.93309 0.0
H1131 H 0.72836 0.40278 0.91711 0.0
H1132 H 0.65405 0.30398 0.80665 0.0
H1133 H 0.66658 0.36881 0.78903 0.0
H1134 H 0.65593 0.29399 0.76875 0.0
H1135 H 0.6681 0.35767 0.75145 0.0
H1136 H 0.68379 0.30401 0.82776 0.0
H1137 H 0.68312 0.30108 0.89598 0.0
H1138 H 0.68534 0.26485 0.82663 0.0
H1139 H 0.68497 0.26199 0.89369 0.0
H1140 H 0.75809 0.31531 0.8453 0.0
H1141 H 0.73654 0.31325 0.78004 0.0
H1142 H 0.59499 0.28733 0.82504 0.0
H1143 H 0.61479 0.27488 0.88949 0.0
Li1144 Li 0.9015 0.88929 0.91337 0.0
Li1145 Li 0.93227 0.878 0.89019 0.0
Li1146 Li 0.93722 0.9047 0.91818 0.0
Li1147 Li 0.91681 0.91372 0.88665 0.0
C1148 C 0.92842 0.86508 0.93996 0.0
N1149 N 0.92834 0.84521 0.97902 0.0
C1150 C 0.93467 0.84386 0.94166 0.0
C1151 C 0.92212 0.87622 0.95807 0.0
C1152 C 0.93453 0.83409 0.96157 0.0
C1153 C 0.92219 0.86588 0.97769 0.0
C1154 C 0.9059 0.877 0.86128 0.0
C1155 C 0.92513 0.87645 0.82817 0.0
N1156 N 0.91562 0.85778 0.82302 0.0
C1157 C 0.89601 0.85817 0.8554 0.0
C1158 C 0.92041 0.8864 0.84742 0.0
C1159 C 0.90128 0.84851 0.83615 0.0
C1160 C 0.86823 0.89857 0.94213 0.0
N1161 N 0.87772 0.88183 0.93226 0.0
C1162 C 0.85638 0.85767 0.95277 0.0
C1163 C 0.8725 0.86156 0.93781 0.0
C1164 C 0.84569 0.87481 0.96232 0.0
C1165 C 0.85215 0.89543 0.95707 0.0
H1166 H 0.87324 0.91451 0.93866 0.0
H1167 H 0.88116 0.84842 0.93107 0.0
C1168 C 0.97095 0.86117 0.87884 0.0
N1169 N 0.95016 0.85555 0.87857 0.0
C1170 C 0.98677 0.84656 0.87381 0.0
C1171 C 0.95979 0.82029 0.86758 0.0
C1172 C 0.94431 0.83552 0.87289 0.0
C1173 C 0.98149 0.82551 0.86876 0.0
H1174 H 0.97547 0.8769 0.88378 0.0
H1175 H 0.92779 0.83107 0.8732 0.0
C1176 C 0.90261 0.9399 0.91501 0.0
N1177 N 0.88806 0.98077 0.90832 0.0
C1178 C 0.88215 0.94336 0.90721 0.0
C1179 C 0.91562 0.95724 0.91956 0.0
C1180 C 0.87509 0.96413 0.90389 0.0
C1181 C 0.90799 0.97778 0.91604 0.0
C1182 C 0.96142 0.91975 0.88092 0.0
C1183 C 0.96804 0.93699 0.89322 0.0
C1184 C 0.97025 0.91662 0.8608 0.0
C1185 C 0.98304 0.95105 0.88504 0.0
C1186 C 0.98519 0.93106 0.85317 0.0
N1187 N 0.99121 0.94784 0.86533 0.0
C1188 C 0.9761 0.89977 0.93559 0.0
C1189 C 0.95432 0.92345 0.95523 0.0
C1190 C 0.99286 0.90284 0.94956 0.0
N1191 N 0.9576 0.9104 0.93844 0.0
C1192 C 0.97067 0.927 0.96964 0.0
C1193 C 0.99033 0.91689 0.9666 0.0
H1194 H 0.97786 0.88917 0.9222 0.0
H1195 H 0.9392 0.93131 0.95717 0.0
C1196 C 0.89033 0.935 0.85658 0.0
N1197 N 0.90928 0.93666 0.86673 0.0
C1198 C 0.88314 0.95114 0.84304 0.0
C1199 C 0.91545 0.97028 0.84985 0.0
C1200 C 0.92172 0.95402 0.86369 0.0
C1201 C 0.89579 0.96921 0.83925 0.0
H1202 H 0.88058 0.92125 0.85939 0.0
H1203 H 0.93648 0.95551 0.87211 0.0
O1204 O 0.92817 0.87476 0.92055 0.0
O1205 O 0.90194 0.88589 0.8807 0.0
O1206 O 0.90996 0.91962 0.91769 0.0
O1207 O 0.94706 0.90551 0.88881 0.0
H1208 H 0.9395 0.83503 0.92772 0.0
H1209 H 0.91709 0.89262 0.95695 0.0
H1210 H 0.9393 0.81767 0.96315 0.0
H1211 H 0.91731 0.87427 0.99185 0.0
H1212 H 0.93638 0.88354 0.81736 0.0
H1213 H 0.88441 0.85126 0.86569 0.0
H1214 H 0.92788 0.90125 0.85142 0.0
H1215 H 0.89403 0.83363 0.83168 0.0
H1216 H 0.85222 0.84147 0.95671 0.0
H1217 H 0.84477 0.9091 0.96444 0.0
H1218 H 1.00311 0.85175 0.87433 0.0
H1219 H 0.95482 0.80436 0.86355 0.0
H1220 H 0.87202 0.93008 0.90337 0.0
H1221 H 0.93147 0.9549 0.92565 0.0
H1222 H 0.85936 0.96699 0.89767 0.0
H1223 H 0.91793 0.99135 0.9194 0.0
H1224 H 0.96154 0.93967 0.90882 0.0
H1225 H 0.96575 0.90312 0.85121 0.0
H1226 H 0.98816 0.96454 0.89435 0.0
H1227 H 0.99207 0.92886 0.8376 0.0
H1228 H 0.00778 0.89478 0.9468 0.0
H1229 H 0.96827 0.93824 0.98243 0.0
H1230 H 0.86764 0.94942 0.83591 0.0
H1231 H 0.92616 0.98342 0.8474 0.0
Li1232 Li 0.82722 0.16044 0.67394 0.0
Li1233 Li 0.84695 0.12675 0.66824 0.0
Li1234 Li 0.85779 0.16173 0.64934 0.0
Li1235 Li 0.82432 0.14423 0.63995 0.0
C1236 C 0.87168 0.15459 0.69576 0.0
N1237 N 0.90095 0.15429 0.72851 0.0
C1238 C 0.88786 0.13945 0.69617 0.0
C1239 C 0.87069 0.1699 0.71185 0.0
C1240 C 0.90234 0.13939 0.71297 0.0
C1241 C 0.88562 0.16948 0.72824 0.0
C1242 C 0.7948 0.13091 0.6712 0.0
C1243 C 0.76451 0.11246 0.6853 0.0
N1244 N 0.75173 0.12843 0.67836 0.0
C1245 C 0.78138 0.14717 0.66423 0.0
C1246 C 0.78635 0.11342 0.68184 0.0
C1247 C 0.75964 0.14561 0.66799 0.0
C1248 C 0.80027 0.19043 0.69368 0.0
N1249 N 0.81332 0.17352 0.69645 0.0
C1250 C 0.81227 0.1772 0.73402 0.0
C1251 C 0.81848 0.1661 0.71604 0.0
C1252 C 0.80022 0.19568 0.73158 0.0
C1253 C 0.79343 0.20188 0.71126 0.0
H1254 H 0.79616 0.19567 0.67785 0.0
H1255 H 0.82861 0.15237 0.7176 0.0
C1256 C 0.86982 0.08802 0.68503 0.0
N1257 N 0.85446 0.10312 0.6871 0.0
C1258 C 0.87378 0.07352 0.70159 0.0
C1259 C 0.84688 0.09098 0.72237 0.0
C1260 C 0.84303 0.10458 0.70529 0.0
C1261 C 0.86238 0.07494 0.72086 0.0
H1262 H 0.8794 0.08745 0.67082 0.0
H1263 H 0.83118 0.11686 0.70679 0.0
C1264 C 0.83141 0.19648 0.64754 0.0
N1265 N 0.83663 0.23994 0.65104 0.0
C1266 C 0.8249 0.20991 0.63109 0.0
C1267 C 0.8406 0.20522 0.66574 0.0
C1268 C 0.82766 0.23182 0.63316 0.0
C1269 C 0.84309 0.2272 0.66723 0.0
C1270 C 0.84856 0.11595 0.62303 0.0
C1271 C 0.8408 0.12153 0.60304 0.0
C1272 C 0.84794 0.09471 0.62941 0.0
C1273 C 0.83108 0.10604 0.59048 0.0
C1274 C 0.83906 0.07951 0.61596 0.0
N1275 N 0.83058 0.0855 0.59705 0.0
C1276 C 0.89015 0.19201 0.65896 0.0
C1277 C 0.88905 0.18415 0.6223 0.0
C1278 C 0.90741 0.20562 0.65605 0.0
N1279 N 0.88162 0.18101 0.64238 0.0
C1280 C 0.90637 0.19776 0.61864 0.0
C1281 C 0.91615 0.20833 0.63577 0.0
H1282 H 0.88379 0.19009 0.67468 0.0
H1283 H 0.88184 0.17577 0.60916 0.0
C1284 C 0.79052 0.12153 0.61761 0.0
N1285 N 0.80213 0.13975 0.61825 0.0
C1286 C 0.77403 0.11912 0.60281 0.0
C1287 C 0.78129 0.15436 0.58981 0.0
C1288 C 0.79784 0.15595 0.60459 0.0
C1289 C 0.76903 0.13578 0.58875 0.0
H1290 H 0.79403 0.10884 0.62865 0.0
H1291 H 0.80722 0.17023 0.60525 0.0
O1292 O 0.85674 0.1542 0.67993 0.0
O1293 O 0.81614 0.13211 0.66769 0.0
O1294 O 0.829 0.17493 0.64562 0.0
O1295 O 0.8549 0.13133 0.63701 0.0
H1296 H 0.8892 0.12782 0.68364 0.0
H1297 H 0.85865 0.1821 0.71168 0.0
H1298 H 0.91472 0.12751 0.71363 0.0
H1299 H 0.88498 0.1812 0.74077 0.0
H1300 H 0.75773 0.099 0.6935 0.0
H1301 H 0.78768 0.16083 0.65598 0.0
H1302 H 0.79654 0.10071 0.68732 0.0
H1303 H 0.74906 0.15805 0.66266 0.0
H1304 H 0.81758 0.17199 0.74954 0.0
H1305 H 0.78414 0.21617 0.70891 0.0
H1306 H 0.88578 0.06148 0.69924 0.0
H1307 H 0.83802 0.09359 0.73681 0.0
H1308 H 0.81784 0.20355 0.61681 0.0
H1309 H 0.84578 0.19518 0.6786 0.0
H1310 H 0.8227 0.24237 0.62053 0.0
H1311 H 0.85019 0.23411 0.68126 0.0
H1312 H 0.84114 0.1379 0.59781 0.0
H1313 H 0.85373 0.09003 0.64478 0.0
H1314 H 0.82366 0.11039 0.57565 0.0
H1315 H 0.83843 0.06305 0.62081 0.0
H1316 H 0.91391 0.21391 0.66963 0.0
H1317 H 0.91227 0.19971 0.60263 0.0
H1318 H 0.76493 0.10456 0.60272 0.0
H1319 H 0.77819 0.16755 0.57922 0.0
Li1320 Li 0.57074 0.11705 0.40376 0.0
Li1321 Li 0.59849 0.10297 0.42807 0.0
Li1322 Li 0.59087 0.08193 0.39301 0.0
Li1323 Li 0.56506 0.08454 0.42161 0.0
C1324 C 0.59876 0.12426 0.37865 0.0
N1325 N 0.58454 0.14798 0.34441 0.0
C1326 C 0.60023 0.14634 0.37905 0.0
C1327 C 0.59024 0.11439 0.36069 0.0
C1328 C 0.59239 0.158 0.3618 0.0
C1329 C 0.58361 0.12651 0.34339 0.0
C1330 C 0.5588 0.11925 0.45149 0.0
C1331 C 0.55546 0.1232 0.48944 0.0
N1332 N 0.53675 0.13355 0.48658 0.0
C1333 C 0.53968 0.13021 0.44893 0.0
C1334 C 0.5669 0.11595 0.4719 0.0
C1335 C 0.52871 0.13719 0.46687 0.0
C1336 C 0.54296 0.14569 0.37973 0.0
N1337 N 0.55669 0.14389 0.39633 0.0
C1338 C 0.55155 0.18071 0.40498 0.0
C1339 C 0.56096 0.16093 0.40896 0.0
C1340 C 0.53716 0.18303 0.38808 0.0
C1341 C 0.53291 0.16511 0.3754 0.0
H1342 H 0.54006 0.13216 0.36958 0.0
H1343 H 0.57198 0.15921 0.42203 0.0
C1344 C 0.62975 0.09392 0.46028 0.0
N1345 N 0.61956 0.11 0.44997 0.0
C1346 C 0.64408 0.09817 0.47675 0.0
C1347 C 0.63783 0.1356 0.47167 0.0
C1348 C 0.62315 0.1306 0.45558 0.0
C1349 C 0.6485 0.11922 0.48248 0.0
H1350 H 0.62713 0.0777 0.45556 0.0
H1351 H 0.61479 0.14319 0.44739 0.0
C1352 C 0.54115 0.08068 0.38674 0.0
N1353 N 0.50256 0.0613 0.37932 0.0
C1354 C 0.5403 0.05922 0.38114 0.0
C1355 C 0.52232 0.09223 0.38871 0.0
C1356 C 0.52066 0.04972 0.37743 0.0
C1357 C 0.50299 0.08217 0.38483 0.0
C1358 C 0.59546 0.05554 0.43664 0.0
C1359 C 0.60417 0.03616 0.43022 0.0
C1360 C 0.58808 0.05787 0.45742 0.0
C1361 C 0.60547 0.01947 0.44477 0.0
C1362 C 0.58964 0.0408 0.47149 0.0
N1363 N 0.59825 0.02211 0.46493 0.0
C1364 C 0.62221 0.05314 0.37457 0.0
C1365 C 0.59071 0.05634 0.35452 0.0
C1366 C 0.63079 0.03902 0.3595 0.0
N1367 N 0.6026 0.06182 0.37173 0.0
C1368 C 0.59861 0.0424 0.33915 0.0
C1369 C 0.61907 0.0337 0.34126 0.0
H1370 H 0.63132 0.05735 0.38846 0.0
H1371 H 0.57522 0.0633 0.35227 0.0
C1372 C 0.5237 0.07681 0.43747 0.0
N1373 N 0.54256 0.06776 0.43225 0.0
C1374 C 0.50575 0.06425 0.44028 0.0
C1375 C 0.52715 0.03332 0.4327 0.0
C1376 C 0.54448 0.04645 0.42971 0.0
C1377 C 0.50736 0.04219 0.43771 0.0
H1378 H 0.52216 0.09381 0.43806 0.0
H1379 H 0.5591 0.03964 0.4241 0.0
O1380 O 0.60289 0.1125 0.39652 0.0
O1381 O 0.57004 0.11275 0.43409 0.0
O1382 O 0.56026 0.09023 0.39069 0.0
O1383 O 0.59397 0.07203 0.42256 0.0
H1384 H 0.60598 0.15435 0.39311 0.0
H1385 H 0.58841 0.09755 0.36013 0.0
H1386 H 0.59153 0.17495 0.36252 0.0
H1387 H 0.57715 0.11887 0.32944 0.0
H1388 H 0.56152 0.12068 0.50532 0.0
H1389 H 0.53323 0.13305 0.43326 0.0
H1390 H 0.58195 0.10806 0.47422 0.0
H1391 H 0.5138 0.14551 0.46511 0.0
H1392 H 0.55564 0.19415 0.4149 0.0
H1393 H 0.52255 0.16628 0.36172 0.0
H1394 H 0.65219 0.0851 0.48448 0.0
H1395 H 0.64087 0.15206 0.47557 0.0
H1396 H 0.55459 0.04978 0.38029 0.0
H1397 H 0.52255 0.10864 0.3937 0.0
H1398 H 0.51979 0.03309 0.37327 0.0
H1399 H 0.48831 0.09091 0.3864 0.0
H1400 H 0.60981 0.034 0.41416 0.0
H1401 H 0.58105 0.07263 0.46254 0.0
H1402 H 0.6122 0.00439 0.44002 0.0
H1403 H 0.58396 0.04239 0.48761 0.0
H1404 H 0.64677 0.03312 0.36166 0.0
H1405 H 0.58901 0.03899 0.32529 0.0
H1406 H 0.49076 0.07174 0.444 0.0
H1407 H 0.52935 0.01635 0.43104 0.0
Li1408 Li 0.66251 0.8683 0.16476 0.0
Li1409 Li 0.68464 0.83635 0.1619 0.0
Li1410 Li 0.67917 0.85779 0.13053 0.0
Li1411 Li 0.64972 0.83607 0.14495 0.0
C1412 C 0.70554 0.87936 0.1689 0.0
N1413 N 0.73003 0.90689 0.1927 0.0
C1414 C 0.7176 0.87173 0.18594 0.0
C1415 C 0.70621 0.90095 0.16382 0.0
C1416 C 0.72982 0.88591 0.1978 0.0
C1417 C 0.71859 0.91463 0.17609 0.0
C1418 C 0.64103 0.8405 0.19031 0.0
C1419 C 0.62684 0.83475 0.22534 0.0
N1420 N 0.60845 0.84431 0.21928 0.0
C1421 C 0.62205 0.85032 0.18447 0.0
C1422 C 0.64355 0.83276 0.21095 0.0
C1423 C 0.60576 0.85211 0.19932 0.0
C1424 C 0.63612 0.90185 0.18519 0.0
N1425 N 0.65429 0.89007 0.18607 0.0
C1426 C 0.66355 0.90676 0.21909 0.0
C1427 C 0.66722 0.89157 0.20331 0.0
C1428 C 0.64584 0.92022 0.21788 0.0
C1429 C 0.63135 0.91672 0.20131 0.0
H1430 H 0.62529 0.89972 0.17204 0.0
H1431 H 0.68054 0.88097 0.20489 0.0
C1432 C 0.72304 0.81712 0.16073 0.0
N1433 N 0.70493 0.81835 0.17228 0.0
C1434 C 0.73743 0.80082 0.16454 0.0
C1435 C 0.71399 0.78768 0.19204 0.0
C1436 C 0.70021 0.80433 0.18787 0.0
C1437 C 0.7326 0.7857 0.18002 0.0
H1438 H 0.72582 0.82835 0.14804 0.0
H1439 H 0.68534 0.80555 0.19626 0.0
C1440 C 0.65075 0.87919 0.11838 0.0
N1441 N 0.66343 0.90078 0.08258 0.0
C1442 C 0.64649 0.87082 0.09833 0.0
C1443 C 0.66075 0.89882 0.12027 0.0
C1444 C 0.65325 0.88188 0.08041 0.0
C1445 C 0.66698 0.90958 0.10196 0.0
C1446 C 0.67776 0.80555 0.13039 0.0
C1447 C 0.68637 0.79695 0.11186 0.0
C1448 C 0.67013 0.79202 0.14621 0.0
C1449 C 0.68713 0.77491 0.10944 0.0
C1450 C 0.67123 0.77008 0.14323 0.0
N1451 N 0.67962 0.76204 0.12505 0.0
C1452 C 0.7147 0.87581 0.10848 0.0
C1453 C 0.69383 0.85363 0.08674 0.0
C1454 C 0.73021 0.87729 0.09261 0.0
N1455 N 0.6969 0.86403 0.10545 0.0
C1456 C 0.70854 0.85536 0.0701 0.0
C1457 C 0.72752 0.86689 0.07292 0.0
H1458 H 0.71748 0.88323 0.12366 0.0
H1459 H 0.68011 0.84356 0.08478 0.0
C1460 C 0.61765 0.80501 0.15463 0.0
N1461 N 0.62725 0.81572 0.1385 0.0
C1462 C 0.60276 0.78914 0.15041 0.0
C1463 C 0.60834 0.79465 0.11294 0.0
C1464 C 0.62323 0.81045 0.1179 0.0
C1465 C 0.59775 0.78399 0.12937 0.0
H1466 H 0.6218 0.80831 0.17089 0.0
H1467 H 0.63163 0.81845 0.10529 0.0
O1468 O 0.69338 0.8657 0.15716 0.0
O1469 O 0.65721 0.83896 0.17599 0.0
O1470 O 0.64769 0.86709 0.13601 0.0
O1471 O 0.67686 0.82712 0.13299 0.0
H1472 H 0.71733 0.85511 0.19016 0.0
H1473 H 0.69731 0.90714 0.15053 0.0
H1474 H 0.7391 0.88025 0.21111 0.0
H1475 H 0.71914 0.93139 0.17239 0.0
H1476 H 0.6285 0.82874 0.24135 0.0
H1477 H 0.62008 0.85662 0.16864 0.0
H1478 H 0.65823 0.82531 0.21581 0.0
H1479 H 0.591 0.85974 0.195 0.0
H1480 H 0.67468 0.90793 0.23213 0.0
H1481 H 0.61691 0.92586 0.20042 0.0
H1482 H 0.75187 0.79977 0.15533 0.0
H1483 H 0.71021 0.77645 0.20451 0.0
H1484 H 0.63909 0.85544 0.09666 0.0
H1485 H 0.66406 0.90537 0.13577 0.0
H1486 H 0.65106 0.87505 0.06485 0.0
H1487 H 0.67501 0.92468 0.10316 0.0
H1488 H 0.69239 0.80718 0.09947 0.0
H1489 H 0.66344 0.79838 0.16066 0.0
H1490 H 0.69371 0.76803 0.09516 0.0
H1491 H 0.6654 0.75945 0.15536 0.0
H1492 H 0.74454 0.88589 0.09633 0.0
H1493 H 0.70504 0.84732 0.05535 0.0
H1494 H 0.59512 0.78103 0.16348 0.0
H1495 H 0.60503 0.79089 0.09649 0.0
Li1496 Li 0.92298 0.07589 0.62367 0.0
Li1497 Li 0.94316 0.07998 0.59071 0.0
Li1498 Li 0.93868 0.11132 0.61293 0.0
Li1499 Li 0.90869 0.09769 0.59316 0.0
C1500 C 0.96766 0.07057 0.62936 0.0
N1501 N 0.99551 0.04274 0.64882 0.0
C1502 C 0.97017 0.04997 0.62156 0.0
C1503 C 0.97931 0.077 0.64715 0.0
C1504 C 0.98432 0.03614 0.63159 0.0
C1505 C 0.99331 0.0627 0.65674 0.0
C1506 C 0.9149 0.04635 0.58611 0.0
C1507 C 0.90898 0.02218 0.55688 0.0
N1508 N 0.91454 0.0056 0.56954 0.0
C1509 C 0.92055 0.02897 0.59878 0.0
C1510 C 0.90904 0.04284 0.56494 0.0
C1511 C 0.92027 0.00855 0.59014 0.0
C1512 C 0.89406 0.04836 0.64484 0.0
N1513 N 0.91453 0.05512 0.64543 0.0
C1514 C 0.92235 0.03014 0.67315 0.0
C1515 C 0.92854 0.04648 0.65949 0.0
C1516 C 0.9015 0.02239 0.67247 0.0
C1517 C 0.88717 0.03201 0.65827 0.0
H1518 H 0.88318 0.0553 0.63349 0.0
H1519 H 0.94464 0.05204 0.66012 0.0
C1520 C 0.97604 0.08515 0.56337 0.0
N1521 N 0.96348 0.06962 0.57146 0.0
C1522 C 0.98828 0.08126 0.54545 0.0
C1523 C 0.97663 0.04468 0.5464 0.0
C1524 C 0.9642 0.04942 0.56397 0.0
C1525 C 0.98802 0.06098 0.53647 0.0
H1526 H 0.97536 0.101 0.56993 0.0
H1527 H 0.95443 0.03722 0.57083 0.0
C1528 C 0.91632 0.11607 0.64278 0.0
N1529 N 0.93689 0.13892 0.67417 0.0
C1530 C 0.91353 0.13794 0.64424 0.0
C1531 C 0.92904 0.10577 0.65781 0.0
C1532 C 0.92446 0.14928 0.65991 0.0
C1533 C 0.93913 0.1175 0.67363 0.0
C1534 C 0.93216 0.11475 0.5616 0.0
C1535 C 0.93266 0.13612 0.55559 0.0
C1536 C 0.92841 0.09921 0.54623 0.0
C1537 C 0.92918 0.14155 0.53436 0.0
C1538 C 0.92505 0.10525 0.52516 0.0
N1539 N 0.92546 0.12613 0.51971 0.0
C1540 C 0.97407 0.13704 0.62685 0.0
C1541 C 0.94591 0.15571 0.61045 0.0
C1542 C 0.98655 0.15544 0.62707 0.0
N1543 N 0.95417 0.13743 0.6185 0.0
C1544 C 0.95788 0.17436 0.61015 0.0
C1545 C 0.97866 0.17437 0.61818 0.0
H1546 H 0.9807 0.12225 0.63238 0.0
H1547 H 0.9302 0.15563 0.60358 0.0
C1548 C 0.87385 0.08924 0.56555 0.0
N1549 N 0.88462 0.10531 0.57514 0.0
C1550 C 0.8589 0.09348 0.54965 0.0
C1551 C 0.86504 0.13094 0.55466 0.0
C1552 C 0.88048 0.12593 0.57 0.0
C1553 C 0.85421 0.11455 0.54408 0.0
H1554 H 0.87688 0.07305 0.57021 0.0
H1555 H 0.88935 0.1385 0.5776 0.0
O1556 O 0.95373 0.08433 0.6199 0.0
O1557 O 0.91478 0.06652 0.59444 0.0
O1558 O 0.90902 0.10527 0.62532 0.0
O1559 O 0.9351 0.10912 0.58244 0.0
H1560 H 0.9612 0.04464 0.60802 0.0
H1561 H 0.9773 0.0927 0.65376 0.0
H1562 H 0.98635 0.02013 0.62569 0.0
H1563 H 1.00234 0.06745 0.67055 0.0
H1564 H 0.90453 0.01933 0.54053 0.0
H1565 H 0.92543 0.03109 0.61503 0.0
H1566 H 0.90464 0.05583 0.55466 0.0
H1567 H 0.92469 0.99505 0.59981 0.0
H1568 H 0.93385 0.02361 0.68415 0.0
H1569 H 0.87096 0.02656 0.65706 0.0
H1570 H 0.99693 0.09412 0.53806 0.0
H1571 H 0.97603 0.02886 0.53966 0.0
H1572 H 0.90413 0.14604 0.63246 0.0
H1573 H 0.93191 0.08903 0.65689 0.0
H1574 H 0.92364 0.1663 0.66047 0.0
H1575 H 0.94919 0.10964 0.68513 0.0
H1576 H 0.93562 0.14843 0.56713 0.0
H1577 H 0.9282 0.08266 0.55052 0.0
H1578 H 0.92943 0.15802 0.52953 0.0
H1579 H 0.92212 0.09333 0.51315 0.0
H1580 H 1.0026 0.15452 0.63307 0.0
H1581 H 0.95112 0.18855 0.60317 0.0
H1582 H 0.8506 0.0804 0.5422 0.0
H1583 H 0.86184 0.1474 0.55087 0.0
Li1584 Li 0.6555 0.16983 0.36635 0.0
Li1585 Li 0.68428 0.15008 0.38233 0.0
Li1586 Li 0.68768 0.16449 0.34725 0.0
Li1587 Li 0.66501 0.13306 0.35063 0.0
C1588 C 0.67794 0.19952 0.38176 0.0
N1589 N 0.66382 0.23804 0.39738 0.0
C1590 C 0.67046 0.20106 0.40259 0.0
C1591 C 0.67811 0.21757 0.36885 0.0
C1592 C 0.66349 0.22069 0.41022 0.0
C1593 C 0.6709 0.23689 0.37703 0.0
C1594 C 0.65575 0.12508 0.39552 0.0
C1595 C 0.66246 0.08865 0.4053 0.0
N1596 N 0.66797 0.09511 0.42512 0.0
C1597 C 0.6604 0.13123 0.41627 0.0
C1598 C 0.65634 0.10357 0.39006 0.0
C1599 C 0.66715 0.11591 0.43081 0.0
C1600 C 0.62645 0.19878 0.34954 0.0
N1601 N 0.63181 0.19057 0.36878 0.0
C1602 C 0.60333 0.21051 0.38497 0.0
C1603 C 0.62092 0.19662 0.38657 0.0
C1604 C 0.59691 0.21786 0.36487 0.0
C1605 C 0.60918 0.21234 0.34723 0.0
H1606 H 0.63507 0.19425 0.33565 0.0
H1607 H 0.6253 0.19011 0.40185 0.0
C1608 C 0.71149 0.12418 0.4096 0.0
N1609 N 0.70353 0.14408 0.40647 0.0
C1610 C 0.7272 0.12045 0.42497 0.0
C1611 C 0.72661 0.15772 0.43359 0.0
C1612 C 0.71091 0.16071 0.41812 0.0
C1613 C 0.73523 0.13741 0.43708 0.0
H1614 H 0.70597 0.11121 0.39981 0.0
H1615 H 0.70523 0.17654 0.41496 0.0
C1616 C 0.66028 0.16627 0.31519 0.0
N1617 N 0.66393 0.17812 0.27303 0.0
C1618 C 0.65491 0.15205 0.29901 0.0
C1619 C 0.66699 0.18675 0.30982 0.0
C1620 C 0.65699 0.15828 0.27783 0.0
C1621 C 0.6689 0.19237 0.28846 0.0
C1622 C 0.71639 0.13138 0.35824 0.0
C1623 C 0.73057 0.14717 0.36466 0.0
C1624 C 0.7239 0.11094 0.35398 0.0
C1625 C 0.75208 0.14227 0.36656 0.0
C1626 C 0.74553 0.10668 0.35606 0.0
N1627 N 0.75905 0.12229 0.36225 0.0
C1628 C 0.71969 0.19104 0.32991 0.0
C1629 C 0.71134 0.15903 0.3118 0.0
C1630 C 0.73503 0.19582 0.31482 0.0
N1631 N 0.70808 0.17307 0.32783 0.0
C1632 C 0.72644 0.16315 0.29641 0.0
C1633 C 0.73833 0.18183 0.29776 0.0
H1634 H 0.71714 0.20147 0.34328 0.0
H1635 H 0.702 0.14471 0.31093 0.0
C1636 C 0.63828 0.10055 0.33049 0.0
N1637 N 0.65804 0.10887 0.33273 0.0
C1638 C 0.634 0.08557 0.31449 0.0
C1639 C 0.67047 0.08798 0.30347 0.0
C1640 C 0.674 0.10278 0.3196 0.0
C1641 C 0.65026 0.07913 0.30065 0.0
H1642 H 0.62579 0.10592 0.34075 0.0
H1643 H 0.68937 0.11012 0.32105 0.0
O1644 O 0.68458 0.18037 0.37392 0.0
O1645 O 0.65288 0.1401 0.38012 0.0
O1646 O 0.65851 0.16032 0.33611 0.0
O1647 O 0.69519 0.13577 0.35658 0.0
H1648 H 0.66963 0.18717 0.41265 0.0
H1649 H 0.68361 0.21669 0.35264 0.0
H1650 H 0.6576 0.22208 0.42628 0.0
H1651 H 0.6709 0.25096 0.36718 0.0
H1652 H 0.66352 0.07202 0.40119 0.0
H1653 H 0.66019 0.14784 0.42071 0.0
H1654 H 0.65276 0.09847 0.37408 0.0
H1655 H 0.67244 0.12063 0.44638 0.0
H1656 H 0.59429 0.21451 0.39901 0.0
H1657 H 0.60516 0.21803 0.3315 0.0
H1658 H 0.73351 0.10456 0.4268 0.0
H1659 H 0.73213 0.17129 0.44256 0.0
H1660 H 0.64895 0.13644 0.30266 0.0
H1661 H 0.67098 0.19811 0.32204 0.0
H1662 H 0.65298 0.14735 0.2652 0.0
H1663 H 0.67434 0.20806 0.28415 0.0
H1664 H 0.72501 0.163 0.36834 0.0
H1665 H 0.71312 0.09843 0.34934 0.0
H1666 H 0.76321 0.15433 0.37154 0.0
H1667 H 0.75156 0.09092 0.35283 0.0
H1668 H 0.74422 0.21024 0.31646 0.0
H1669 H 0.72846 0.15213 0.28336 0.0
H1670 H 0.6182 0.07909 0.31312 0.0
H1671 H 0.68343 0.08405 0.29298 0.0
Li1672 Li 0.56631 0.93482 0.09645 0.0
Li1673 Li 0.59213 0.92291 0.12193 0.0
Li1674 Li 0.59385 0.91125 0.0819 0.0
Li1675 Li 0.56518 0.89888 0.10603 0.0
C1676 C 0.59931 0.96037 0.09044 0.0
N1677 N 0.60213 0.00289 0.07987 0.0
C1678 C 0.60065 0.97579 0.10636 0.0
C1679 C 0.59948 0.96662 0.06913 0.0
C1680 C 0.60203 0.99719 0.1007 0.0
C1681 C 0.60091 0.98818 0.06412 0.0
C1682 C 0.54013 0.92377 0.13109 0.0
C1683 C 0.51333 0.92217 0.15832 0.0
N1684 N 0.49803 0.92318 0.14312 0.0
C1685 C 0.52412 0.92479 0.11578 0.0
C1686 C 0.5347 0.92246 0.15257 0.0
C1687 C 0.50295 0.92449 0.12215 0.0
C1688 C 0.54789 0.96679 0.07145 0.0
N1689 N 0.55166 0.96058 0.09168 0.0
C1690 C 0.54185 0.99487 0.10493 0.0
C1691 C 0.54847 0.97394 0.10842 0.0
C1692 C 0.53866 1.00166 0.08406 0.0
C1693 C 0.54135 0.98733 0.0673 0.0
H1694 H 0.55126 0.95635 0.05841 0.0
H1695 H 0.5522 0.96871 0.12436 0.0
C1696 C 0.62881 0.93964 0.14451 0.0
N1697 N 0.60765 0.93536 0.14519 0.0
C1698 C 0.63824 0.95274 0.15996 0.0
C1699 C 0.60366 0.95771 0.17557 0.0
C1700 C 0.59515 0.94403 0.16042 0.0
C1701 C 0.62545 0.96226 0.17549 0.0
H1702 H 0.63812 0.93389 0.13138 0.0
H1703 H 0.57829 0.94128 0.16012 0.0
C1704 C 0.55239 0.9134 0.0583 0.0
N1705 N 0.53086 0.91949 0.02049 0.0
C1706 C 0.53072 0.90898 0.05693 0.0
C1707 C 0.56314 0.92059 0.04029 0.0
C1708 C 0.52011 0.91226 0.03772 0.0
C1709 C 0.55197 0.92367 0.02137 0.0
C1710 C 0.59343 0.87322 0.11471 0.0
C1711 C 0.58958 0.85807 0.09899 0.0
C1712 C 0.59063 0.86795 0.13606 0.0
C1713 C 0.58199 0.83812 0.10485 0.0
C1714 C 0.58336 0.84768 0.1413 0.0
N1715 N 0.57896 0.83343 0.1257 0.0
C1716 C 0.62891 0.92028 0.05553 0.0
C1717 C 0.61067 0.88918 0.04507 0.0
C1718 C 0.64398 0.91723 0.03958 0.0
N1719 N 0.61293 0.9061 0.05835 0.0
C1720 C 0.62544 0.88552 0.02881 0.0
C1721 C 0.64273 0.89937 0.0263 0.0
H1722 H 0.63051 0.93356 0.06626 0.0
H1723 H 0.59763 0.8783 0.04732 0.0
C1724 C 0.53835 0.87035 0.13071 0.0
N1725 N 0.5452 0.87539 0.11084 0.0
C1726 C 0.52369 0.85394 0.13379 0.0
C1727 C 0.52308 0.84818 0.09595 0.0
C1728 C 0.53783 0.86461 0.09361 0.0
C1729 C 0.51569 0.84263 0.11626 0.0
H1730 H 0.54439 0.87896 0.14426 0.0
H1731 H 0.54356 0.86866 0.07796 0.0
O1732 O 0.59741 0.93934 0.09568 0.0
O1733 O 0.561 0.92359 0.12515 0.0
O1734 O 0.56316 0.90991 0.07689 0.0
O1735 O 0.5977 0.89369 0.1091 0.0
H1736 H 0.60027 0.97138 0.12292 0.0
H1737 H 0.59817 0.95499 0.05658 0.0
H1738 H 0.60292 0.00927 0.11287 0.0
H1739 H 0.60092 0.99322 0.0477 0.0
H1740 H 0.50892 0.92106 0.17487 0.0
H1741 H 0.52801 0.92587 0.09916 0.0
H1742 H 0.54683 0.92132 0.16467 0.0
H1743 H 0.49043 0.92527 0.11043 0.0
H1744 H 0.53995 0.00569 0.11815 0.0
H1745 H 0.53925 0.99218 0.05102 0.0
H1746 H 0.65503 0.95613 0.15923 0.0
H1747 H 0.59327 0.96472 0.18733 0.0
H1748 H 0.52215 0.90294 0.0705 0.0
H1749 H 0.57984 0.92418 0.04094 0.0
H1750 H 0.50334 0.90897 0.03649 0.0
H1751 H 0.56008 0.92943 0.0074 0.0
H1752 H 0.59146 0.86203 0.08239 0.0
H1753 H 0.5933 0.87965 0.14837 0.0
H1754 H 0.5783 0.82645 0.09282 0.0
H1755 H 0.5807 0.84343 0.15771 0.0
H1756 H 0.65686 0.92847 0.03806 0.0
H1757 H 0.62383 0.87157 0.0189 0.0
H1758 H 0.51838 0.85041 0.14974 0.0
H1759 H 0.51766 0.83976 0.08197 0.0
Li1760 Li 0.84717 0.83343 0.86173 0.0
Li1761 Li 0.81575 0.85375 0.87007 0.0
Li1762 Li 0.81812 0.83509 0.83639 0.0
Li1763 Li 0.83915 0.8673 0.8393 0.0
C1764 C 0.82263 0.80397 0.87531 0.0
N1765 N 0.83441 0.76668 0.89535 0.0
C1766 C 0.83054 0.8044 0.89607 0.0
C1767 C 0.82083 0.78453 0.86475 0.0
C1768 C 0.83638 0.78539 0.90593 0.0
C1769 C 0.82683 0.76587 0.87515 0.0
C1770 C 0.84136 0.88333 0.882 0.0
C1771 C 0.83363 0.92091 0.88168 0.0
N1772 N 0.82605 0.91944 0.90179 0.0
C1773 C 0.83424 0.88237 0.90293 0.0
C1774 C 0.84128 0.90284 0.87143 0.0
C1775 C 0.82608 0.90069 0.91244 0.0
C1776 C 0.87427 0.79646 0.86013 0.0
N1777 N 0.87022 0.81403 0.87206 0.0
C1778 C 0.89735 0.8033 0.89688 0.0
C1779 C 0.88135 0.8175 0.89031 0.0
C1780 C 0.90166 0.78497 0.88482 0.0
C1781 C 0.88976 0.78172 0.86625 0.0
H1782 H 0.86535 0.79366 0.84586 0.0
H1783 H 0.87792 0.83143 0.89963 0.0
C1784 C 0.78203 0.87912 0.88927 0.0
N1785 N 0.79463 0.86173 0.89191 0.0
C1786 C 0.76579 0.88371 0.90376 0.0
C1787 C 0.7767 0.85351 0.92452 0.0
C1788 C 0.79219 0.84908 0.90925 0.0
C1789 C 0.7627 0.87074 0.92176 0.0
H1790 H 0.78433 0.88936 0.87571 0.0
H1791 H 0.80222 0.83542 0.91134 0.0
C1792 C 0.85258 0.82872 0.8117 0.0
N1793 N 0.8591 0.80912 0.77292 0.0
C1794 C 0.86162 0.83995 0.79485 0.0
C1795 C 0.84705 0.80741 0.8088 0.0
C1796 C 0.86478 0.82978 0.7754 0.0
C1797 C 0.85037 0.79783 0.78908 0.0
C1798 C 0.78678 0.8664 0.8385 0.0
C1799 C 0.77317 0.85021 0.84512 0.0
C1800 C 0.77833 0.88486 0.8295 0.0
C1801 C 0.75133 0.85271 0.84249 0.0
C1802 C 0.75639 0.88675 0.82717 0.0
N1803 N 0.74346 0.87077 0.83364 0.0
C1804 C 0.79175 0.80595 0.81255 0.0
C1805 C 0.80566 0.83654 0.79561 0.0
C1806 C 0.78453 0.79826 0.7931 0.0
N1807 N 0.80297 0.82427 0.81315 0.0
C1808 C 0.79894 0.82942 0.77588 0.0
C1809 C 0.78894 0.80971 0.77444 0.0
H1810 H 0.78924 0.79691 0.82688 0.0
H1811 H 0.81436 0.85124 0.7968 0.0
C1812 C 0.86892 0.89574 0.818 0.0
N1813 N 0.84857 0.88879 0.81886 0.0
C1814 C 0.87593 0.9083 0.80103 0.0
C1815 C 0.84063 0.90728 0.78646 0.0
C1816 C 0.83444 0.89448 0.80353 0.0
C1817 C 0.86178 0.9141 0.78467 0.0
H1818 H 0.87987 0.89101 0.83015 0.0
H1819 H 0.81843 0.88858 0.80419 0.0
O1820 O 0.81722 0.8225 0.86522 0.0
O1821 O 0.84637 0.86512 0.87119 0.0
O1822 O 0.8489 0.83868 0.83073 0.0
O1823 O 0.80823 0.86428 0.84103 0.0
H1824 H 0.83301 0.8193 0.9042 0.0
H1825 H 0.81514 0.78382 0.8486 0.0
H1826 H 0.84273 0.78556 0.92189 0.0
H1827 H 0.82556 0.75075 0.86711 0.0
H1828 H 0.83348 0.93605 0.87356 0.0
H1829 H 0.83407 0.86741 0.91136 0.0
H1830 H 0.84666 0.90407 0.85532 0.0
H1831 H 0.81948 0.89997 0.92817 0.0
H1832 H 0.90607 0.80652 0.91134 0.0
H1833 H 0.89261 0.76801 0.85628 0.0
H1834 H 0.75553 0.89708 0.90047 0.0
H1835 H 0.77581 0.84334 0.93833 0.0
H1836 H 0.86623 0.85634 0.79672 0.0
H1837 H 0.83954 0.79856 0.82138 0.0
H1838 H 0.87172 0.83834 0.76225 0.0
H1839 H 0.84584 0.78146 0.78657 0.0
H1840 H 0.77938 0.83586 0.85224 0.0
H1841 H 0.78855 0.89773 0.82464 0.0
H1842 H 0.74064 0.84029 0.84753 0.0
H1843 H 0.74964 0.90097 0.82027 0.0
H1844 H 0.77687 0.78289 0.7925 0.0
H1845 H 0.80245 0.83867 0.76182 0.0
H1846 H 0.89245 0.91281 0.80056 0.0
H1847 H 0.82885 0.91164 0.77474 0.0
Li1848 Li 0.40844 0.59098 0.12173 0.0
Li1849 Li 0.42429 0.58824 0.08582 0.0
Li1850 Li 0.42809 0.62112 0.10502 0.0
Li1851 Li 0.39324 0.61172 0.08887 0.0
C1852 C 0.45092 0.57667 0.12225 0.0
N1853 N 0.47474 0.54448 0.14038 0.0
C1854 C 0.44962 0.55597 0.1144 0.0
C1855 C 0.46467 0.58103 0.13913 0.0
C1856 C 0.46168 0.5399 0.12382 0.0
C1857 C 0.47648 0.56454 0.14814 0.0
C1858 C 0.38994 0.55929 0.09101 0.0
C1859 C 0.37264 0.53227 0.06993 0.0
N1860 N 0.37923 0.51721 0.08393 0.0
C1861 C 0.39655 0.54342 0.1051 0.0
C1862 C 0.37789 0.55356 0.07319 0.0
C1863 C 0.39098 0.52231 0.10128 0.0
C1864 C 0.37979 0.56774 0.1484 0.0
N1865 N 0.39999 0.57523 0.14787 0.0
C1866 C 0.40669 0.55929 0.18205 0.0
C1867 C 0.41342 0.57119 0.16438 0.0
C1868 C 0.38573 0.55166 0.18322 0.0
C1869 C 0.37233 0.55603 0.16584 0.0
H1870 H 0.36942 0.57072 0.13508 0.0
H1871 H 0.42938 0.57727 0.16401 0.0
C1872 C 0.45329 0.58396 0.05383 0.0
N1873 N 0.43828 0.57266 0.06438 0.0
C1874 C 0.45937 0.57797 0.03344 0.0
C1875 C 0.43623 0.54754 0.03631 0.0
C1876 C 0.43059 0.55414 0.05655 0.0
C1877 C 0.45001 0.56007 0.02419 0.0
H1878 H 0.45915 0.59864 0.06052 0.0
H1879 H 0.41939 0.54492 0.06544 0.0
C1880 C 0.40556 0.63784 0.13213 0.0
N1881 N 0.42591 0.66879 0.15542 0.0
C1882 C 0.40743 0.65834 0.12398 0.0
C1883 C 0.41327 0.63326 0.15243 0.0
C1884 C 0.41843 0.67356 0.13571 0.0
C1885 C 0.42319 0.64924 0.16412 0.0
C1886 C 0.41743 0.61826 0.05323 0.0
C1887 C 0.42849 0.63281 0.04069 0.0
C1888 C 0.40413 0.60347 0.04345 0.0
C1889 C 0.42584 0.63247 0.01866 0.0
C1890 C 0.40189 0.6036 0.02139 0.0
N1891 N 0.4127 0.618 0.00954 0.0
C1892 C 0.46228 0.64412 0.12605 0.0
C1893 C 0.45028 0.65951 0.09396 0.0
C1894 C 0.47769 0.65999 0.12831 0.0
N1895 N 0.44894 0.64405 0.10903 0.0
C1896 C 0.46566 0.67549 0.09542 0.0
C1897 C 0.47975 0.67583 0.11271 0.0
H1898 H 0.46087 0.63195 0.138 0.0
H1899 H 0.43926 0.65954 0.08085 0.0
C1900 C 0.35318 0.60358 0.07294 0.0
N1901 N 0.36751 0.61951 0.07272 0.0
C1902 C 0.3347 0.60457 0.06085 0.0
C1903 C 0.34595 0.63835 0.04719 0.0
C1904 C 0.36421 0.63692 0.0602 0.0
C1905 C 0.33095 0.62177 0.04716 0.0
H1906 H 0.35611 0.58988 0.08273 0.0
H1907 H 0.37604 0.64931 0.05966 0.0
O1908 O 0.43934 0.59272 0.11317 0.0
O1909 O 0.39508 0.58019 0.09474 0.0
O1910 O 0.39865 0.62177 0.11939 0.0
O1911 O 0.42031 0.61789 0.07483 0.0
H1912 H 0.43948 0.55227 0.10114 0.0
H1913 H 0.466 0.59689 0.14548 0.0
H1914 H 0.46069 0.52381 0.11792 0.0
H1915 H 0.48702 0.5677 0.16133 0.0
H1916 H 0.3634 0.52771 0.05619 0.0
H1917 H 0.40606 0.5472 0.11881 0.0
H1918 H 0.37282 0.56522 0.06169 0.0
H1919 H 0.39606 0.50997 0.11211 0.0
H1920 H 0.41777 0.55635 0.19487 0.0
H1921 H 0.356 0.55087 0.16578 0.0
H1922 H 0.47039 0.58777 0.02466 0.0
H1923 H 0.4295 0.53303 0.03 0.0
H1924 H 0.40186 0.662 0.10812 0.0
H1925 H 0.41227 0.61735 0.15875 0.0
H1926 H 0.42139 0.68902 0.12895 0.0
H1927 H 0.42937 0.6459 0.1798 0.0
H1928 H 0.43926 0.64408 0.04778 0.0
H1929 H 0.39585 0.59183 0.0528 0.0
H1930 H 0.43432 0.64363 0.0088 0.0
H1931 H 0.39166 0.59219 0.01369 0.0
H1932 H 0.48822 0.65959 0.1419 0.0
H1933 H 0.46643 0.68756 0.0832 0.0
H1934 H 0.32361 0.59169 0.06251 0.0
H1935 H 0.344 0.65198 0.03693 0.0
Li1936 Li 0.18861 0.64916 0.85301 0.0
Li1937 Li 0.1573 0.67027 0.83968 0.0
Li1938 Li 0.17426 0.6409 0.8176 0.0
Li1939 Li 0.1928 0.67346 0.82454 0.0
C1940 C 0.16292 0.61978 0.85708 0.0
N1941 N 0.17457 0.58458 0.88075 0.0
C1942 C 0.15748 0.61846 0.87853 0.0
C1943 C 0.17428 0.60312 0.84774 0.0
C1944 C 0.16355 0.60053 0.89021 0.0
C1945 C 0.17996 0.58547 0.8599 0.0
C1946 C 0.19112 0.69871 0.85978 0.0
C1947 C 0.18858 0.73685 0.86256 0.0
N1948 N 0.20835 0.73741 0.87116 0.0
C1949 C 0.2114 0.69969 0.86871 0.0
C1950 C 0.17959 0.71745 0.85672 0.0
C1951 C 0.21983 0.7194 0.87433 0.0
C1952 C 0.21484 0.62275 0.87993 0.0
N1953 N 0.20239 0.64032 0.87861 0.0
C1954 C 0.21076 0.64965 0.91434 0.0
C1955 C 0.20002 0.65354 0.89544 0.0
C1956 C 0.22329 0.63122 0.91667 0.0
C1957 C 0.22508 0.61761 0.89897 0.0
H1958 H 0.21661 0.61251 0.86634 0.0
H1959 H 0.18995 0.66737 0.8941 0.0
C1960 C 0.12117 0.69431 0.82866 0.0
N1961 N 0.13253 0.68739 0.84569 0.0
C1962 C 0.10517 0.70951 0.83112 0.0
C1963 C 0.1121 0.70971 0.86883 0.0
C1964 C 0.12832 0.69477 0.86557 0.0
C1965 C 0.1004 0.71744 0.8514 0.0
H1966 H 0.1246 0.68808 0.81307 0.0
H1967 H 0.13785 0.68941 0.87882 0.0
C1968 C 0.21812 0.63476 0.81263 0.0
N1969 N 0.24582 0.6151 0.78487 0.0
C1970 C 0.22491 0.64528 0.79432 0.0
C1971 C 0.22565 0.6143 0.8169 0.0
C1972 C 0.23884 0.63506 0.78046 0.0
C1973 C 0.23959 0.60462 0.80265 0.0
C1974 C 0.16742 0.67758 0.78867 0.0
C1975 C 0.17774 0.66539 0.77329 0.0
C1976 C 0.15851 0.69711 0.78289 0.0
C1977 C 0.17927 0.67301 0.75253 0.0
C1978 C 0.16036 0.7042 0.76196 0.0
N1979 N 0.17062 0.69211 0.74733 0.0
C1980 C 0.14383 0.61842 0.79635 0.0
C1981 C 0.17767 0.60594 0.78604 0.0
C1982 C 0.13395 0.6031 0.78385 0.0
N1983 N 0.16527 0.61949 0.79746 0.0
C1984 C 0.16841 0.59013 0.7734 0.0
C1985 C 0.14623 0.58855 0.77222 0.0
H1986 H 0.13443 0.62928 0.80569 0.0
H1987 H 0.19467 0.60702 0.78696 0.0
C1988 C 0.23245 0.6925 0.82238 0.0
N1989 N 0.21174 0.69487 0.81686 0.0
C1990 C 0.24573 0.71013 0.82313 0.0
C1991 C 0.21613 0.73201 0.81209 0.0
C1992 C 0.20349 0.71404 0.81155 0.0
C1993 C 0.23739 0.73024 0.8184 0.0
H1994 H 0.23825 0.67718 0.82754 0.0
H1995 H 0.18676 0.71568 0.80857 0.0
O1996 O 0.15917 0.63805 0.84581 0.0
O1997 O 0.1827 0.67956 0.85388 0.0
O1998 O 0.20472 0.64457 0.82663 0.0
O1999 O 0.16555 0.67025 0.80909 0.0
H2000 H 0.14923 0.63141 0.88614 0.0
H2001 H 0.17939 0.60401 0.83148 0.0
H2002 H 0.15975 0.59926 0.90683 0.0
H2003 H 0.18886 0.57261 0.85283 0.0
H2004 H 0.1799 0.75147 0.86011 0.0
H2005 H 0.2207 0.68541 0.87092 0.0
H2006 H 0.16406 0.71712 0.84949 0.0
H2007 H 0.23556 0.72038 0.8811 0.0
H2008 H 0.20896 0.66099 0.92712 0.0
H2009 H 0.23385 0.60288 0.89966 0.0
H2010 H 0.09634 0.71472 0.81731 0.0
H2011 H 0.109 0.71546 0.88473 0.0
H2012 H 0.21954 0.66119 0.79081 0.0
H2013 H 0.22057 0.6058 0.83087 0.0
H2014 H 0.24413 0.64302 0.76621 0.0
H2015 H 0.24539 0.58873 0.80571 0.0
H2016 H 0.18454 0.6502 0.77726 0.0
H2017 H 0.15056 0.70692 0.7945 0.0
H2018 H 0.1873 0.66372 0.74054 0.0
H2019 H 0.15368 0.71935 0.75735 0.0
H2020 H 0.11682 0.60212 0.78404 0.0
H2021 H 0.17846 0.5791 0.76488 0.0
H2022 H 0.26211 0.7082 0.82792 0.0
H2023 H 0.20924 0.7472 0.80782 0.0
Li2024 Li 0.0891 0.4287 0.61503 0.0
Li2025 Li 0.07213 0.42778 0.58007 0.0
Li2026 Li 0.07366 0.39519 0.60116 0.0
Li2027 Li 0.10537 0.40922 0.58397 0.0
C2028 C 0.04406 0.43398 0.61859 0.0
N2029 N 0.01477 0.45804 0.6407 0.0
C2030 C 0.03444 0.45157 0.60899 0.0
C2031 C 0.03856 0.42854 0.6394 0.0
C2032 C 0.01972 0.46354 0.62044 0.0
C2033 C 0.0238 0.44094 0.65032 0.0
C2034 C 0.11789 0.45139 0.59263 0.0
C2035 C 0.13767 0.48411 0.59428 0.0
N2036 N 0.15368 0.47378 0.60444 0.0
C2037 C 0.13453 0.44115 0.60318 0.0
C2038 C 0.11942 0.47311 0.58829 0.0
C2039 C 0.15248 0.45272 0.609 0.0
C2040 C 0.11217 0.44669 0.65122 0.0
N2041 N 0.09452 0.44855 0.63884 0.0
C2042 C 0.08353 0.47911 0.65885 0.0
C2043 C 0.08074 0.4649 0.642 0.0
C2044 C 0.10121 0.47721 0.67228 0.0
C2045 C 0.11599 0.46111 0.66786 0.0
H2046 H 0.12333 0.43401 0.6482 0.0
H2047 H 0.06759 0.46718 0.63135 0.0
C2048 C 0.04155 0.43219 0.54799 0.0
N2049 N 0.05726 0.442 0.55902 0.0
C2050 C 0.03479 0.44058 0.52864 0.0
C2051 C 0.05983 0.46933 0.5333 0.0
C2052 C 0.06604 0.46044 0.55242 0.0
C2053 C 0.04452 0.45901 0.52088 0.0
H2054 H 0.0353 0.41721 0.55356 0.0
H2055 H 0.07866 0.46757 0.56147 0.0
C2056 C 0.0966 0.38615 0.63113 0.0
N2057 N 0.07744 0.35944 0.66011 0.0
C2058 C 0.09862 0.36417 0.62901 0.0
C2059 C 0.08554 0.39447 0.64846 0.0
C2060 C 0.08834 0.35097 0.64356 0.0
C2061 C 0.0762 0.38075 0.66307 0.0
C2062 C 0.07961 0.39684 0.54941 0.0
C2063 C 0.06926 0.37985 0.53963 0.0
C2064 C 0.08984 0.41204 0.5369 0.0
C2065 C 0.06951 0.37822 0.51751 0.0
C2066 C 0.08972 0.40985 0.51484 0.0
N2067 N 0.07965 0.39312 0.50568 0.0
C2068 C 0.04283 0.36832 0.62128 0.0
C2069 C 0.06291 0.35174 0.5942 0.0
C2070 C 0.03216 0.34933 0.62537 0.0
N2071 N 0.0581 0.36915 0.6061 0.0
C2072 C 0.05226 0.33251 0.59745 0.0
C2073 C 0.0368 0.33117 0.61333 0.0
H2074 H 0.0391 0.38233 0.6304 0.0
H2075 H 0.07524 0.35272 0.58234 0.0
C2076 C 0.14135 0.41695 0.55607 0.0
N2077 N 0.12885 0.40172 0.56499 0.0
C2078 C 0.1554 0.4119 0.53964 0.0
C2079 C 0.14299 0.37575 0.54083 0.0
C2080 C 0.12927 0.38144 0.55744 0.0
C2081 C 0.15646 0.39105 0.53194 0.0
H2082 H 0.13996 0.43327 0.56098 0.0
H2083 H 0.11858 0.36975 0.56399 0.0
O2084 O 0.05848 0.42203 0.60756 0.0
O2085 O 0.0997 0.44057 0.58776 0.0
O2086 O 0.10295 0.39938 0.61513 0.0
O2087 O 0.07927 0.3988 0.57107 0.0
H2088 H 0.0384 0.45611 0.59296 0.0
H2089 H 0.04565 0.41501 0.64716 0.0
H2090 H 0.01227 0.47724 0.61322 0.0
H2091 H 0.01952 0.43696 0.66646 0.0
H2092 H 0.13905 0.50091 0.59099 0.0
H2093 H 0.1336 0.42445 0.60694 0.0
H2094 H 0.1066 0.48151 0.58057 0.0
H2095 H 0.16541 0.44499 0.61723 0.0
H2096 H 0.07208 0.49173 0.66113 0.0
H2097 H 0.13011 0.45939 0.67748 0.0
H2098 H 0.02277 0.43239 0.5195 0.0
H2099 H 0.06718 0.48396 0.5281 0.0
H2100 H 0.10673 0.3574 0.61546 0.0
H2101 H 0.08366 0.41135 0.6504 0.0
H2102 H 0.08826 0.33408 0.64132 0.0
H2103 H 0.06745 0.38705 0.67642 0.0
H2104 H 0.06101 0.36809 0.549 0.0
H2105 H 0.09763 0.4255 0.54415 0.0
H2106 H 0.06157 0.36513 0.50974 0.0
H2107 H 0.09757 0.4215 0.50501 0.0
H2108 H 0.02004 0.34907 0.6375 0.0
H2109 H 0.05632 0.3188 0.58791 0.0
H2110 H 0.1653 0.42421 0.53292 0.0
H2111 H 0.14315 0.35955 0.53508 0.0
Li2112 Li 0.18072 0.32864 0.67146 0.0
Li2113 Li 0.16107 0.36267 0.66431 0.0
Li2114 Li 0.14864 0.32676 0.64855 0.0
Li2115 Li 0.18161 0.34307 0.63681 0.0
C2116 C 0.13537 0.33447 0.69313 0.0
N2117 N 0.10267 0.33153 0.72215 0.0
C2118 C 0.1175 0.34734 0.6911 0.0
C2119 C 0.13657 0.31997 0.70994 0.0
C2120 C 0.10116 0.34572 0.70595 0.0
C2121 C 0.11988 0.31871 0.72441 0.0
C2122 C 0.21276 0.36057 0.66236 0.0
C2123 C 0.24205 0.38508 0.6638 0.0
N2124 N 0.25565 0.36884 0.65967 0.0
C2125 C 0.22702 0.34416 0.65796 0.0
C2126 C 0.2203 0.38124 0.66515 0.0
C2127 C 0.24865 0.34864 0.65674 0.0
C2128 C 0.21295 0.30467 0.69317 0.0
N2129 N 0.19637 0.31834 0.69436 0.0
C2130 C 0.20095 0.32238 0.73162 0.0
C2131 C 0.19077 0.32775 0.71286 0.0
C2132 C 0.21803 0.308 0.73129 0.0
C2133 C 0.22438 0.29962 0.71149 0.0
H2134 H 0.21744 0.29793 0.67804 0.0
H2135 H 0.17807 0.33928 0.71305 0.0
C2136 C 0.13539 0.3984 0.67897 0.0
N2137 N 0.15447 0.38836 0.67994 0.0
C2138 C 0.13081 0.4153 0.69273 0.0
C2139 C 0.16614 0.41237 0.70711 0.0
C2140 C 0.16964 0.39488 0.69387 0.0
C2141 C 0.14646 0.4227 0.70674 0.0
H2142 H 0.1236 0.39295 0.66791 0.0
H2143 H 0.18437 0.38621 0.69505 0.0
C2144 C 0.17448 0.2914 0.64805 0.0
N2145 N 0.16861 0.24856 0.65552 0.0
C2146 C 0.18044 0.27645 0.63277 0.0
C2147 C 0.16551 0.28452 0.6671 0.0
C2148 C 0.17735 0.25487 0.63684 0.0
C2149 C 0.16268 0.26282 0.6706 0.0
C2150 C 0.15685 0.3652 0.61588 0.0
C2151 C 0.15975 0.35272 0.59781 0.0
C2152 C 0.1622 0.38671 0.61547 0.0
C2153 C 0.16942 0.36161 0.58004 0.0
C2154 C 0.17126 0.39518 0.59711 0.0
N2155 N 0.17496 0.38248 0.58005 0.0
C2156 C 0.11129 0.29991 0.65709 0.0
C2157 C 0.11722 0.30814 0.62098 0.0
C2158 C 0.09246 0.28905 0.6519 0.0
N2159 N 0.12312 0.30959 0.64174 0.0
C2160 C 0.09875 0.29722 0.6151 0.0
C2161 C 0.08593 0.28754 0.63061 0.0
H2162 H 0.11623 0.30071 0.67347 0.0
H2163 H 0.12663 0.31583 0.60894 0.0
C2164 C 0.21275 0.36558 0.61091 0.0
N2165 N 0.2026 0.34672 0.61373 0.0
C2166 C 0.22829 0.36786 0.59521 0.0
C2167 C 0.22287 0.3313 0.58537 0.0
C2168 C 0.20746 0.32971 0.60132 0.0
C2169 C 0.23368 0.35056 0.58214 0.0
H2170 H 0.20882 0.37897 0.6209 0.0
H2171 H 0.19929 0.31485 0.60374 0.0
O2172 O 0.1516 0.33617 0.67881 0.0
O2173 O 0.19146 0.3566 0.66304 0.0
O2174 O 0.17713 0.3126 0.64408 0.0
O2175 O 0.1511 0.35586 0.63452 0.0
H2176 H 0.11633 0.35841 0.67812 0.0
H2177 H 0.15018 0.3097 0.71185 0.0
H2178 H 0.08728 0.35571 0.7046 0.0
H2179 H 0.12061 0.30756 0.73745 0.0
H2180 H 0.24809 0.40101 0.66589 0.0
H2181 H 0.22138 0.32824 0.65499 0.0
H2182 H 0.20948 0.39427 0.66796 0.0
H2183 H 0.25984 0.3361 0.65328 0.0
H2184 H 0.19487 0.32909 0.74618 0.0
H2185 H 0.23786 0.28911 0.71 0.0
H2186 H 0.11528 0.42262 0.69232 0.0
H2187 H 0.17846 0.41739 0.71799 0.0
H2188 H 0.1873 0.28145 0.61786 0.0
H2189 H 0.16074 0.29577 0.67903 0.0
H2190 H 0.18187 0.24315 0.62514 0.0
H2191 H 0.15574 0.25732 0.68529 0.0
H2192 H 0.15609 0.33597 0.59805 0.0
H2193 H 0.16011 0.39654 0.62942 0.0
H2194 H 0.17276 0.35181 0.56637 0.0
H2195 H 0.17588 0.41168 0.59659 0.0
H2196 H 0.08326 0.28169 0.66438 0.0
H2197 H 0.09433 0.29671 0.59848 0.0
H2198 H 0.23628 0.38297 0.59362 0.0
H2199 H 0.22615 0.31756 0.57557 0.0
Li2200 Li 0.32349 0.67414 0.18367 0.0
Li2201 Li 0.35068 0.64533 0.18732 0.0
Li2202 Li 0.35615 0.67576 0.16369 0.0
Li2203 Li 0.32743 0.65148 0.15322 0.0
C2204 C 0.36034 0.69114 0.20725 0.0
N2205 N 0.37744 0.72347 0.23142 0.0
C2206 C 0.37458 0.68647 0.22362 0.0
C2207 C 0.35477 0.71224 0.2032 0.0
C2208 C 0.38306 0.70304 0.23566 0.0
C2209 C 0.36359 0.72836 0.21559 0.0
C2210 C 0.30676 0.63313 0.19759 0.0
C2211 C 0.28244 0.60544 0.20789 0.0
N2212 N 0.28247 0.61304 0.22809 0.0
C2213 C 0.30654 0.64059 0.21847 0.0
C2214 C 0.29457 0.61539 0.19226 0.0
C2215 C 0.29417 0.63028 0.23365 0.0
C2216 C 0.28157 0.67919 0.19163 0.0
N2217 N 0.30081 0.68631 0.19829 0.0
C2218 C 0.28676 0.69602 0.23184 0.0
C2219 C 0.30356 0.69535 0.21765 0.0
C2220 C 0.2672 0.68723 0.22594 0.0
C2221 C 0.26429 0.67968 0.20529 0.0
H2222 H 0.2802 0.67105 0.17659 0.0
H2223 H 0.31912 0.69994 0.22297 0.0
C2224 C 0.38156 0.61406 0.20334 0.0
N2225 N 0.36555 0.62763 0.2087 0.0
C2226 C 0.38884 0.59882 0.21794 0.0
C2227 C 0.36453 0.61298 0.2437 0.0
C2228 C 0.35825 0.62831 0.22898 0.0
C2229 C 0.379 0.59716 0.23777 0.0
H2230 H 0.38762 0.61406 0.18733 0.0
H2231 H 0.34672 0.64006 0.23351 0.0
C2232 C 0.31476 0.69887 0.1485 0.0
N2233 N 0.28858 0.73223 0.13712 0.0
C2234 C 0.29425 0.69495 0.14108 0.0
C2235 C 0.32206 0.71977 0.14978 0.0
C2236 C 0.28122 0.71202 0.13552 0.0
C2237 C 0.30856 0.73642 0.14405 0.0
C2238 C 0.35204 0.6232 0.14999 0.0
C2239 C 0.34934 0.61808 0.12855 0.0
C2240 C 0.34384 0.60916 0.16522 0.0
C2241 C 0.33676 0.60057 0.12302 0.0
C2242 C 0.33261 0.59119 0.15902 0.0
N2243 N 0.32889 0.58753 0.13818 0.0
C2244 C 0.39271 0.70243 0.16827 0.0
C2245 C 0.37554 0.70566 0.13497 0.0
C2246 C 0.40669 0.71884 0.16311 0.0
N2247 N 0.3773 0.69629 0.1544 0.0
C2248 C 0.38957 0.72187 0.12895 0.0
C2249 C 0.40524 0.72871 0.14323 0.0
H2250 H 0.39447 0.69442 0.18329 0.0
H2251 H 0.36311 0.7007 0.12422 0.0
C2252 C 0.2913 0.6323 0.13047 0.0
N2253 N 0.31005 0.64289 0.1289 0.0
C2254 C 0.2787 0.6288 0.11236 0.0
C2255 C 0.30489 0.64715 0.09142 0.0
C2256 C 0.31673 0.65059 0.10985 0.0
C2257 C 0.28559 0.63622 0.09252 0.0
H2258 H 0.28572 0.62718 0.14581 0.0
H2259 H 0.33123 0.65968 0.10905 0.0
O2260 O 0.3523 0.67512 0.195 0.0
O2261 O 0.31862 0.64319 0.18237 0.0
O2262 O 0.32786 0.68233 0.15376 0.0
O2263 O 0.35944 0.64308 0.15574 0.0
H2264 H 0.3792 0.67024 0.22685 0.0
H2265 H 0.34365 0.71608 0.19075 0.0
H2266 H 0.39415 0.69967 0.24834 0.0
H2267 H 0.35941 0.74476 0.21263 0.0
H2268 H 0.27301 0.59167 0.20394 0.0
H2269 H 0.31577 0.65428 0.22294 0.0
H2270 H 0.29457 0.6092 0.17627 0.0
H2271 H 0.29387 0.63598 0.24985 0.0
H2272 H 0.2893 0.70229 0.24766 0.0
H2273 H 0.24933 0.67286 0.20036 0.0
H2274 H 0.40063 0.58741 0.21316 0.0
H2275 H 0.35695 0.61261 0.25912 0.0
H2276 H 0.28838 0.6789 0.13967 0.0
H2277 H 0.33803 0.72315 0.15495 0.0
H2278 H 0.26528 0.70919 0.12987 0.0
H2279 H 0.314 0.75267 0.14502 0.0
H2280 H 0.35516 0.62863 0.11634 0.0
H2281 H 0.34466 0.61234 0.18179 0.0
H2282 H 0.33206 0.59786 0.1069 0.0
H2283 H 0.32606 0.58062 0.17085 0.0
H2284 H 0.41882 0.72347 0.17437 0.0
H2285 H 0.38808 0.72911 0.11342 0.0
H2286 H 0.26366 0.62071 0.11386 0.0
H2287 H 0.31042 0.65362 0.0765 0.0
Li2288 Li 0.57692 0.62642 0.61007 0.0
Li2289 Li 0.59291 0.59038 0.61999 0.0
Li2290 Li 0.61101 0.61443 0.592 0.0
Li2291 Li 0.57718 0.59894 0.58442 0.0
C2292 C 0.60269 0.63661 0.63699 0.0
N2293 N 0.58708 0.66911 0.66166 0.0
C2294 C 0.59931 0.63341 0.65865 0.0
C2295 C 0.59962 0.6567 0.62817 0.0
C2296 C 0.59135 0.65006 0.67089 0.0
C2297 C 0.59124 0.67281 0.6408 0.0
C2298 C 0.5486 0.59193 0.62636 0.0
C2299 C 0.51774 0.57089 0.63443 0.0
N2300 N 0.51824 0.57819 0.65474 0.0
C2301 C 0.54885 0.59911 0.64732 0.0
C2302 C 0.53298 0.5776 0.61985 0.0
C2303 C 0.53336 0.59203 0.66143 0.0
C2304 C 0.54852 0.66001 0.5983 0.0
N2305 N 0.55522 0.64948 0.616 0.0
C2306 C 0.5298 0.66928 0.63682 0.0
C2307 C 0.54581 0.65369 0.63506 0.0
C2308 C 0.52268 0.68049 0.61874 0.0
C2309 C 0.53245 0.67545 0.59929 0.0
H2310 H 0.55525 0.65605 0.58308 0.0
H2311 H 0.55069 0.64512 0.64907 0.0
C2312 C 0.60541 0.54844 0.63522 0.0
N2313 N 0.59745 0.56749 0.64187 0.0
C2314 C 0.60879 0.53163 0.64951 0.0
C2315 C 0.59693 0.55425 0.67786 0.0
C2316 C 0.5931 0.57046 0.66289 0.0
C2317 C 0.60475 0.5344 0.67123 0.0
H2318 H 0.60977 0.54624 0.61885 0.0
H2319 H 0.58681 0.58544 0.66826 0.0
C2320 C 0.59157 0.63307 0.55944 0.0
N2321 N 0.60435 0.64272 0.51861 0.0
C2322 C 0.59904 0.61708 0.546 0.0
C2323 C 0.59082 0.65403 0.55216 0.0
C2324 C 0.60537 0.62225 0.52541 0.0
C2325 C 0.59727 0.65857 0.53145 0.0
C2326 C 0.59808 0.5639 0.58114 0.0
C2327 C 0.60955 0.55545 0.56409 0.0
C2328 C 0.58045 0.55285 0.58877 0.0
C2329 C 0.60317 0.53623 0.55504 0.0
C2330 C 0.57455 0.53372 0.57927 0.0
N2331 N 0.58593 0.52587 0.56273 0.0
C2332 C 0.64855 0.60601 0.56753 0.0
C2333 C 0.64592 0.64206 0.57726 0.0
C2334 C 0.66699 0.60996 0.55576 0.0
N2335 N 0.63828 0.62186 0.57803 0.0
C2336 C 0.6644 0.64676 0.56567 0.0
C2337 C 0.67532 0.6306 0.55455 0.0
H2338 H 0.64244 0.59013 0.56829 0.0
H2339 H 0.63756 0.65461 0.58547 0.0
C2340 C 0.53784 0.59996 0.56909 0.0
N2341 N 0.55695 0.59128 0.5642 0.0
C2342 C 0.51974 0.59358 0.55834 0.0
C2343 C 0.5418 0.57146 0.53597 0.0
C2344 C 0.55949 0.57822 0.54727 0.0
C2345 C 0.52158 0.57846 0.54221 0.0
H2346 H 0.53654 0.61093 0.58223 0.0
H2347 H 0.57495 0.57222 0.54315 0.0
O2348 O 0.60665 0.61976 0.624 0.0
O2349 O 0.5638 0.59851 0.61237 0.0
O2350 O 0.58596 0.62848 0.57992 0.0
O2351 O 0.60399 0.58271 0.59048 0.0
H2352 H 0.60219 0.6181 0.66579 0.0
H2353 H 0.60217 0.65937 0.61138 0.0
H2354 H 0.58816 0.64773 0.68759 0.0
H2355 H 0.5874 0.68803 0.63385 0.0
H2356 H 0.50556 0.55983 0.6296 0.0
H2357 H 0.56104 0.60986 0.65269 0.0
H2358 H 0.53269 0.5716 0.60376 0.0
H2359 H 0.5334 0.59747 0.67772 0.0
H2360 H 0.52315 0.67249 0.65232 0.0
H2361 H 0.52737 0.68289 0.58465 0.0
H2362 H 0.61524 0.51679 0.64368 0.0
H2363 H 0.59361 0.55717 0.69448 0.0
H2364 H 0.60029 0.6009 0.55151 0.0
H2365 H 0.58555 0.66672 0.56247 0.0
H2366 H 0.61122 0.61001 0.51489 0.0
H2367 H 0.59677 0.67471 0.52561 0.0
H2368 H 0.62309 0.56356 0.55763 0.0
H2369 H 0.57149 0.55886 0.60205 0.0
H2370 H 0.61187 0.52961 0.54182 0.0
H2371 H 0.56093 0.52509 0.58507 0.0
H2372 H 0.67433 0.59691 0.54735 0.0
H2373 H 0.67019 0.66292 0.56563 0.0
H2374 H 0.50439 0.59941 0.56337 0.0
H2375 H 0.54378 0.55967 0.52361 0.0
Li2376 Li 0.91576 0.42073 0.11776 0.0
Li2377 Li 0.93599 0.3885 0.10593 0.0
Li2378 Li 0.93329 0.42098 0.08304 0.0
Li2379 Li 0.90202 0.39796 0.0875 0.0
C2380 C 0.96157 0.43036 0.12041 0.0
N2381 N 0.99188 0.45583 0.13928 0.0
C2382 C 0.97179 0.42374 0.13899 0.0
C2383 C 0.96683 0.44995 0.11143 0.0
C2384 C 0.98704 0.43684 0.14829 0.0
C2385 C 0.98217 0.46259 0.1212 0.0
C2386 C 0.9118 0.37794 0.13618 0.0
C2387 C 0.92303 0.34433 0.15071 0.0
N2388 N 0.92804 0.35408 0.16931 0.0
C2389 C 0.91699 0.38762 0.15548 0.0
C2390 C 0.91481 0.35616 0.13379 0.0
C2391 C 0.92525 0.3753 0.17201 0.0
C2392 C 0.88608 0.4427 0.14454 0.0
N2393 N 0.90717 0.44035 0.14071 0.0
C2394 C 0.91491 0.46753 0.16634 0.0
C2395 C 0.92153 0.45226 0.1516 0.0
C2396 C 0.89319 0.47101 0.16993 0.0
C2397 C 0.87871 0.45799 0.15898 0.0
H2398 H 0.87493 0.43313 0.13581 0.0
H2399 H 0.93819 0.45032 0.14876 0.0
C2400 C 0.96521 0.35486 0.09609 0.0
N2401 N 0.95736 0.36657 0.11248 0.0
C2402 C 0.98128 0.33984 0.09946 0.0
C2403 C 0.98144 0.34927 0.13653 0.0
C2404 C 0.96554 0.36426 0.13238 0.0
C2405 C 0.98963 0.33685 0.11993 0.0
H2406 H 0.95943 0.35746 0.08019 0.0
H2407 H 0.95981 0.37407 0.14512 0.0
C2408 C 0.89464 0.4485 0.09235 0.0
N2409 N 0.87489 0.48688 0.10024 0.0
C2410 C 0.87255 0.44982 0.09262 0.0
C2411 C 0.90669 0.46674 0.09593 0.0
C2412 C 0.86285 0.46935 0.09665 0.0
C2413 C 0.89642 0.48598 0.09996 0.0
C2414 C 0.92484 0.3785 0.05829 0.0
C2415 C 0.92321 0.38769 0.03816 0.0
C2416 C 0.9204 0.35691 0.0609 0.0
C2417 C 0.91721 0.37509 0.02092 0.0
C2418 C 0.91451 0.34484 0.04325 0.0
N2419 N 0.91303 0.35411 0.0238 0.0
C2420 C 0.96764 0.42794 0.05848 0.0
C2421 C 0.93712 0.44745 0.04791 0.0
C2422 C 0.97813 0.43367 0.04002 0.0
N2423 N 0.94755 0.43474 0.06184 0.0
C2424 C 0.94702 0.45358 0.02918 0.0
C2425 C 0.96762 0.44628 0.02496 0.0
H2426 H 0.9751 0.41732 0.06976 0.0
H2427 H 0.92081 0.45184 0.05084 0.0
C2428 C 0.87253 0.40612 0.05494 0.0
N2429 N 0.87861 0.39 0.06805 0.0
C2430 C 0.85721 0.403 0.03915 0.0
C2431 C 0.85483 0.36634 0.04973 0.0
C2432 C 0.8705 0.37014 0.06527 0.0
C2433 C 0.84789 0.38297 0.03641 0.0
H2434 H 0.87987 0.42151 0.05643 0.0
H2435 H 0.87598 0.35725 0.07523 0.0
O2436 O 0.94655 0.41773 0.11109 0.0
O2437 O 0.90587 0.38996 0.11908 0.0
O2438 O 0.90437 0.42935 0.08913 0.0
O2439 O 0.93015 0.39069 0.07547 0.0
H2440 H 0.96771 0.40889 0.14642 0.0
H2441 H 0.95924 0.45539 0.09706 0.0
H2442 H 0.99497 0.43194 0.16273 0.0
H2443 H 0.98637 0.47779 0.11441 0.0
H2444 H 0.92625 0.32761 0.14882 0.0
H2445 H 0.91507 0.40447 0.15768 0.0
H2446 H 0.91187 0.34883 0.11859 0.0
H2447 H 0.92942 0.38262 0.18698 0.0
H2448 H 0.9268 0.47664 0.17472 0.0
H2449 H 0.86179 0.46 0.16095 0.0
H2450 H 0.98717 0.33072 0.08614 0.0
H2451 H 0.98767 0.34785 0.1525 0.0
H2452 H 0.86302 0.43586 0.0899 0.0
H2453 H 0.92378 0.466 0.09583 0.0
H2454 H 0.84575 0.47056 0.09701 0.0
H2455 H 0.90556 0.50019 0.10291 0.0
H2456 H 0.92637 0.40439 0.03587 0.0
H2457 H 0.92117 0.34963 0.07645 0.0
H2458 H 0.91582 0.38201 0.00526 0.0
H2459 H 0.91096 0.32815 0.04506 0.0
H2460 H 0.99417 0.42811 0.03744 0.0
H2461 H 0.93846 0.46326 0.01782 0.0
H2462 H 0.85253 0.41629 0.02929 0.0
H2463 H 0.84834 0.35053 0.04805 0.0
Li2464 Li 0.69558 0.65311 0.68417 0.0
Li2465 Li 0.66002 0.66049 0.67106 0.0
Li2466 Li 0.6699 0.62601 0.691 0.0
Li2467 Li 0.68541 0.63401 0.65372 0.0
C2468 C 0.67077 0.6645 0.72076 0.0
N2469 N 0.67379 0.68187 0.76102 0.0
C2470 C 0.66636 0.68603 0.72405 0.0
C2471 C 0.6763 0.65177 0.73811 0.0
C2472 C 0.6681 0.69453 0.74447 0.0
C2473 C 0.67785 0.66085 0.75828 0.0
C2474 C 0.69565 0.68485 0.65415 0.0
C2475 C 0.7204 0.70881 0.63744 0.0
N2476 N 0.71395 0.72461 0.65066 0.0
C2477 C 0.68929 0.70138 0.66748 0.0
C2478 C 0.71134 0.68864 0.63893 0.0
C2479 C 0.69871 0.72133 0.66551 0.0
C2480 C 0.73604 0.66679 0.6776 0.0
N2481 N 0.72097 0.66636 0.69303 0.0
C2482 C 0.74162 0.68904 0.71494 0.0
C2483 C 0.72377 0.67648 0.71183 0.0
C2484 C 0.75641 0.69123 0.69844 0.0
C2485 C 0.7539 0.67945 0.67985 0.0
H2486 H 0.73345 0.65833 0.6629 0.0
H2487 H 0.71181 0.67578 0.72397 0.0
C2488 C 0.6259 0.68848 0.68318 0.0
N2489 N 0.6391 0.68311 0.66695 0.0
C2490 C 0.61123 0.70512 0.68084 0.0
C2491 C 0.62479 0.71137 0.64561 0.0
C2492 C 0.63902 0.69444 0.64852 0.0
C2493 C 0.61019 0.71653 0.66167 0.0
H2494 H 0.62643 0.67955 0.69784 0.0
H2495 H 0.64994 0.69025 0.63598 0.0
C2496 C 0.71875 0.61848 0.688 0.0
N2497 N 0.75864 0.61226 0.70522 0.0
C2498 C 0.73625 0.61537 0.67476 0.0
C2499 C 0.7216 0.61829 0.71002 0.0
C2500 C 0.75627 0.61229 0.68376 0.0
C2501 C 0.74186 0.61516 0.71841 0.0
C2502 C 0.65106 0.61007 0.65221 0.0
C2503 C 0.64695 0.5917 0.66392 0.0
C2504 C 0.65424 0.60843 0.63034 0.0
C2505 C 0.64801 0.57193 0.65402 0.0
C2506 C 0.65499 0.58834 0.62093 0.0
N2507 N 0.65208 0.57065 0.63289 0.0
C2508 C 0.64151 0.60878 0.72226 0.0
C2509 C 0.67341 0.58938 0.71811 0.0
C2510 C 0.63488 0.595 0.73843 0.0
N2511 N 0.66052 0.6058 0.71248 0.0
C2512 C 0.66761 0.57553 0.7345 0.0
C2513 C 0.64815 0.57828 0.74494 0.0
H2514 H 0.63153 0.62195 0.71753 0.0
H2515 H 0.68829 0.58707 0.70997 0.0
C2516 C 0.69738 0.64117 0.61205 0.0
N2517 N 0.69806 0.62545 0.62677 0.0
C2518 C 0.71028 0.64035 0.59415 0.0
C2519 C 0.72257 0.60578 0.60508 0.0
C2520 C 0.70975 0.60753 0.62331 0.0
C2521 C 0.72357 0.62281 0.59072 0.0
H2522 H 0.68757 0.65498 0.61479 0.0
H2523 H 0.71002 0.59511 0.63517 0.0
O2524 O 0.66897 0.65582 0.70088 0.0
O2525 O 0.68693 0.66501 0.65638 0.0
O2526 O 0.69902 0.6219 0.67949 0.0
O2527 O 0.65373 0.62919 0.66232 0.0
H2528 H 0.6615 0.69615 0.7111 0.0
H2529 H 0.67928 0.63503 0.73615 0.0
H2530 H 0.66483 0.71117 0.74717 0.0
H2531 H 0.68221 0.65116 0.77179 0.0
H2532 H 0.73266 0.71186 0.62587 0.0
H2533 H 0.67732 0.69878 0.67934 0.0
H2534 H 0.71693 0.67608 0.6287 0.0
H2535 H 0.69393 0.7342 0.67584 0.0
H2536 H 0.743 0.69822 0.72943 0.0
H2537 H 0.76497 0.68095 0.66681 0.0
H2538 H 0.60043 0.70868 0.69371 0.0
H2539 H 0.62457 0.71972 0.63058 0.0
H2540 H 0.73455 0.61578 0.65772 0.0
H2541 H 0.70836 0.62069 0.72053 0.0
H2542 H 0.76994 0.61003 0.67367 0.0
H2543 H 0.74425 0.61508 0.73542 0.0
H2544 H 0.64307 0.5925 0.68048 0.0
H2545 H 0.65667 0.62251 0.62084 0.0
H2546 H 0.6456 0.5576 0.66315 0.0
H2547 H 0.65839 0.58671 0.60425 0.0
H2548 H 0.61971 0.59758 0.746 0.0
H2549 H 0.67811 0.56259 0.73876 0.0
H2550 H 0.70987 0.65357 0.58318 0.0
H2551 H 0.73239 0.59185 0.60288 0.0
Li2552 Li 0.40257 0.39159 0.42367 0.0
Li2553 Li 0.43667 0.38112 0.40505 0.0
Li2554 Li 0.43515 0.41081 0.42863 0.0
Li2555 Li 0.4176 0.41638 0.39473 0.0
C2556 C 0.43574 0.37345 0.45466 0.0
N2557 N 0.44838 0.35811 0.49385 0.0
C2558 C 0.45579 0.36428 0.45719 0.0
C2559 C 0.42217 0.37487 0.47215 0.0
C2560 C 0.46187 0.35661 0.4771 0.0
C2561 C 0.42884 0.36701 0.4918 0.0
C2562 C 0.41112 0.38141 0.37017 0.0
C2563 C 0.42986 0.38873 0.33742 0.0
N2564 N 0.42005 0.37203 0.32804 0.0
C2565 C 0.40142 0.36432 0.36013 0.0
C2566 C 0.42569 0.39357 0.35864 0.0
C2567 C 0.40609 0.35979 0.33889 0.0
C2568 C 0.36715 0.39752 0.45047 0.0
N2569 N 0.37829 0.38212 0.44019 0.0
C2570 C 0.35947 0.35524 0.45957 0.0
C2571 C 0.37476 0.3612 0.44449 0.0
C2572 C 0.3484 0.37097 0.47088 0.0
C2573 C 0.35246 0.39232 0.4662 0.0
H2574 H 0.36961 0.41395 0.44652 0.0
H2575 H 0.38413 0.34918 0.43658 0.0
C2576 C 0.46203 0.35744 0.37646 0.0
N2577 N 0.45236 0.35636 0.39562 0.0
C2578 C 0.47194 0.33962 0.36794 0.0
C2579 C 0.46415 0.32021 0.39994 0.0
C2580 C 0.45332 0.33823 0.40746 0.0
C2581 C 0.47264 0.32031 0.37932 0.0
H2582 H 0.46188 0.37212 0.36762 0.0
H2583 H 0.44552 0.33761 0.42269 0.0
C2584 C 0.40342 0.43972 0.43596 0.0
N2585 N 0.39752 0.47452 0.46205 0.0
C2586 C 0.40134 0.46002 0.42722 0.0
C2587 C 0.40266 0.43718 0.45803 0.0
C2588 C 0.39835 0.4774 0.44067 0.0
C2589 C 0.39964 0.45495 0.47092 0.0
C2590 C 0.4692 0.41603 0.40297 0.0
C2591 C 0.47619 0.43606 0.39653 0.0
C2592 C 0.48346 0.40186 0.41234 0.0
C2593 C 0.49732 0.44171 0.3999 0.0
C2594 C 0.50447 0.40809 0.41542 0.0
N2595 N 0.5109 0.42772 0.40922 0.0
C2596 C 0.45436 0.42174 0.46912 0.0
C2597 C 0.45134 0.44813 0.4424 0.0
C2598 C 0.45886 0.43713 0.48434 0.0
N2599 N 0.44976 0.42762 0.44882 0.0
C2600 C 0.4555 0.46399 0.45706 0.0
C2601 C 0.45839 0.45851 0.4784 0.0
H2602 H 0.45334 0.40547 0.474 0.0
H2603 H 0.44738 0.45238 0.42625 0.0
C2604 C 0.38747 0.44256 0.37265 0.0
N2605 N 0.4085 0.4377 0.37319 0.0
C2606 C 0.37948 0.45755 0.35817 0.0
C2607 C 0.41486 0.4625 0.34479 0.0
C2608 C 0.42223 0.44764 0.35976 0.0
C2609 C 0.39317 0.46764 0.34378 0.0
H2610 H 0.37686 0.43484 0.38363 0.0
H2611 H 0.43894 0.4439 0.36046 0.0
O2612 O 0.42935 0.38071 0.43517 0.0
O2613 O 0.40742 0.38511 0.39141 0.0
O2614 O 0.4062 0.42247 0.42297 0.0
O2615 O 0.44852 0.41027 0.40004 0.0
H2616 H 0.4666 0.36311 0.44397 0.0
H2617 H 0.40676 0.38217 0.47074 0.0
H2618 H 0.47733 0.34947 0.47925 0.0
H2619 H 0.41851 0.36806 0.50544 0.0
H2620 H 0.44106 0.39814 0.32849 0.0
H2621 H 0.39062 0.3546 0.36889 0.0
H2622 H 0.43422 0.40637 0.3658 0.0
H2623 H 0.39871 0.34658 0.33097 0.0
H2624 H 0.35674 0.33858 0.4628 0.0
H2625 H 0.34396 0.40488 0.47431 0.0
H2626 H 0.47903 0.34093 0.35234 0.0
H2627 H 0.46535 0.30635 0.41 0.0
H2628 H 0.40213 0.46239 0.41025 0.0
H2629 H 0.40455 0.42165 0.46512 0.0
H2630 H 0.39672 0.49319 0.4341 0.0
H2631 H 0.39908 0.45321 0.488 0.0
H2632 H 0.46534 0.44721 0.38922 0.0
H2633 H 0.47835 0.38625 0.4172 0.0
H2634 H 0.50291 0.45721 0.39514 0.0
H2635 H 0.51566 0.3973 0.42275 0.0
H2636 H 0.46145 0.43251 0.50071 0.0
H2637 H 0.45552 0.48042 0.45198 0.0
H2638 H 0.36263 0.46082 0.35788 0.0
H2639 H 0.42603 0.46991 0.33408 0.0
Li2640 Li 0.11307 0.61323 0.91386 0.0
Li2641 Li 0.0775 0.62568 0.90007 0.0
Li2642 Li 0.08404 0.58738 0.90967 0.0
Li2643 Li 0.10003 0.59887 0.87689 0.0
C2644 C 0.0897 0.62226 0.94723 0.0
N2645 N 0.10161 0.64094 0.98513 0.0
C2646 C 0.09724 0.64311 0.94753 0.0
C2647 C 0.08839 0.61085 0.96623 0.0
C2648 C 0.10315 0.65229 0.96683 0.0
C2649 C 0.09442 0.6206 0.98522 0.0
C2650 C 0.10185 0.64249 0.86845 0.0
C2651 C 0.09657 0.64513 0.83056 0.0
N2652 N 0.08325 0.66183 0.83365 0.0
C2653 C 0.08953 0.66068 0.87101 0.0
C2654 C 0.10628 0.63529 0.84794 0.0
C2655 C 0.07963 0.66979 0.85337 0.0
C2656 C 0.14162 0.60638 0.94965 0.0
N2657 N 0.13771 0.62055 0.93372 0.0
C2658 C 0.16658 0.64212 0.94696 0.0
C2659 C 0.14979 0.63849 0.93245 0.0
C2660 C 0.17137 0.62711 0.96293 0.0
C2661 C 0.15826 0.60922 0.96415 0.0
H2662 H 0.1317 0.5928 0.95154 0.0
H2663 H 0.14645 0.6501 0.92023 0.0
C2664 C 0.03475 0.64255 0.89315 0.0
N2665 N 0.05393 0.64742 0.90193 0.0
C2666 C 0.01817 0.65739 0.89267 0.0
C2667 C 0.03978 0.68128 0.91309 0.0
C2668 C 0.05624 0.6662 0.91257 0.0
C2669 C 0.02063 0.67719 0.9025 0.0
H2670 H 0.03197 0.62701 0.88672 0.0
H2671 H 0.07101 0.66988 0.92033 0.0
C2672 C 0.11952 0.56489 0.91087 0.0
N2673 N 0.12896 0.52646 0.93025 0.0
C2674 C 0.12976 0.54873 0.89955 0.0
C2675 C 0.11408 0.56126 0.93208 0.0
C2676 C 0.13443 0.5295 0.90961 0.0
C2677 C 0.11895 0.54182 0.94159 0.0
C2678 C 0.05577 0.59653 0.8682 0.0
C2679 C 0.04475 0.57748 0.86544 0.0
C2680 C 0.0523 0.61326 0.85399 0.0
C2681 C 0.03065 0.57545 0.84844 0.0
C2682 C 0.03798 0.61066 0.83727 0.0
N2683 N 0.02758 0.59193 0.83483 0.0
C2684 C 0.06017 0.56121 0.93703 0.0
C2685 C 0.07277 0.54543 0.90517 0.0
C2686 C 0.05229 0.54178 0.94378 0.0
N2687 N 0.07054 0.56248 0.91826 0.0
C2688 C 0.06484 0.52574 0.91114 0.0
C2689 C 0.05488 0.52383 0.93082 0.0
H2690 H 0.05837 0.57517 0.94682 0.0
H2691 H 0.08107 0.54715 0.89026 0.0
C2692 C 0.12594 0.57468 0.84847 0.0
N2693 N 0.10661 0.58414 0.84915 0.0
C2694 C 0.13108 0.55994 0.83257 0.0
C2695 C 0.09706 0.56616 0.81663 0.0
C2696 C 0.09257 0.5807 0.83299 0.0
C2697 C 0.11627 0.55487 0.81662 0.0
H2698 H 0.13704 0.57786 0.861 0.0
H2699 H 0.07755 0.58863 0.83276 0.0
O2700 O 0.08452 0.61286 0.92833 0.0
O2701 O 0.1069 0.63023 0.88574 0.0
O2702 O 0.11444 0.58388 0.90126 0.0
O2703 O 0.0696 0.5989 0.88484 0.0
H2704 H 0.09932 0.65179 0.93288 0.0
H2705 H 0.083 0.59459 0.96635 0.0
H2706 H 0.10919 0.66834 0.96723 0.0
H2707 H 0.0935 0.61195 1.00003 0.0
H2708 H 0.09923 0.63926 0.81467 0.0
H2709 H 0.08752 0.66753 0.88649 0.0
H2710 H 0.11672 0.62199 0.84544 0.0
H2711 H 0.06919 0.68327 0.85535 0.0
H2712 H 0.17582 0.65645 0.94541 0.0
H2713 H 0.16042 0.59749 0.97648 0.0
H2714 H 1.00337 0.65326 0.88499 0.0
H2715 H 0.04222 0.69618 0.92129 0.0
H2716 H 0.1341 0.55072 0.88318 0.0
H2717 H 0.10533 0.57304 0.94092 0.0
H2718 H 0.14233 0.51695 0.90096 0.0
H2719 H 0.11454 0.53887 0.95791 0.0
H2720 H 0.04692 0.56442 0.87632 0.0
H2721 H 0.06041 0.62817 0.85599 0.0
H2722 H 0.02208 0.56077 0.84611 0.0
H2723 H 0.03517 0.62352 0.82622 0.0
H2724 H 0.04419 0.54075 0.9589 0.0
H2725 H 0.06681 0.51215 0.90079 0.0
H2726 H 0.14622 0.55203 0.83358 0.0
H2727 H 0.08534 0.56365 0.80435 0.0
Li2728 Li 0.32255 0.35214 0.36789 0.0
Li2729 Li 0.35692 0.3338 0.35713 0.0
Li2730 Li 0.34648 0.37147 0.34142 0.0
Li2731 Li 0.32625 0.33934 0.33323 0.0
C2732 C 0.34755 0.37767 0.38744 0.0
N2733 N 0.32922 0.40579 0.41565 0.0
C2734 C 0.33998 0.37046 0.40694 0.0
C2735 C 0.34668 0.39933 0.38269 0.0
C2736 C 0.33006 0.3848 0.42063 0.0
C2737 C 0.33758 0.41333 0.39727 0.0
C2738 C 0.31994 0.30215 0.35682 0.0
C2739 C 0.32485 0.2657 0.34612 0.0
N2740 N 0.30424 0.26165 0.35085 0.0
C2741 C 0.29885 0.29756 0.36178 0.0
C2742 C 0.33311 0.28605 0.34912 0.0
C2743 C 0.2912 0.27701 0.35858 0.0
C2744 C 0.29068 0.37539 0.39137 0.0
N2745 N 0.30057 0.35621 0.38977 0.0
C2746 C 0.27951 0.34267 0.41848 0.0
C2747 C 0.29529 0.33997 0.40303 0.0
C2748 C 0.26918 0.36236 0.42055 0.0
C2749 C 0.27506 0.37886 0.40676 0.0
H2750 H 0.29526 0.38824 0.38099 0.0
H2751 H 0.30344 0.32492 0.40172 0.0
C2752 C 0.39088 0.30676 0.34461 0.0
N2753 N 0.38256 0.31565 0.36245 0.0
C2754 C 0.41126 0.29807 0.3445 0.0
C2755 C 0.41387 0.30519 0.38192 0.0
C2756 C 0.39335 0.31421 0.38122 0.0
C2757 C 0.42349 0.2979 0.36309 0.0
H2758 H 0.3823 0.3076 0.32993 0.0
H2759 H 0.38672 0.32129 0.39539 0.0
C2760 C 0.29439 0.37096 0.33926 0.0
N2761 N 0.25144 0.37873 0.33569 0.0
C2762 C 0.27993 0.35429 0.34091 0.0
C2763 C 0.28701 0.39162 0.33582 0.0
C2764 C 0.25829 0.35852 0.33905 0.0
C2765 C 0.26523 0.39521 0.33405 0.0
C2766 C 0.36063 0.33978 0.30676 0.0
C2767 C 0.36862 0.35491 0.29264 0.0
C2768 C 0.35671 0.31916 0.29946 0.0
C2769 C 0.37228 0.34927 0.27152 0.0
C2770 C 0.36052 0.31415 0.27821 0.0
N2771 N 0.36817 0.32919 0.26479 0.0
C2772 C 0.37461 0.40686 0.32758 0.0
C2773 C 0.34098 0.40296 0.31152 0.0
C2774 C 0.37958 0.42371 0.31374 0.0
N2775 N 0.35548 0.3969 0.32629 0.0
C2776 C 0.34508 0.41978 0.29781 0.0
C2777 C 0.3644 0.43066 0.29898 0.0
H2778 H 0.38594 0.40187 0.33932 0.0
H2779 H 0.32615 0.39462 0.31028 0.0
C2780 C 0.30378 0.31093 0.30464 0.0
N2781 N 0.31173 0.33054 0.30858 0.0
C2782 C 0.29799 0.30546 0.28403 0.0
C2783 C 0.30736 0.34085 0.27239 0.0
C2784 C 0.31254 0.34573 0.29326 0.0
C2785 C 0.30069 0.3203 0.2676 0.0
H2786 H 0.30324 0.2991 0.31696 0.0
H2787 H 0.31899 0.36114 0.29694 0.0
O2788 O 0.35338 0.36343 0.37215 0.0
O2789 O 0.32784 0.32209 0.36013 0.0
O2790 O 0.31566 0.36719 0.34136 0.0
O2791 O 0.35675 0.3452 0.32753 0.0
H2792 H 0.34039 0.35371 0.41078 0.0
H2793 H 0.35244 0.40523 0.3677 0.0
H2794 H 0.3227 0.37917 0.43503 0.0
H2795 H 0.33665 0.4301 0.39371 0.0
H2796 H 0.33485 0.25313 0.34005 0.0
H2797 H 0.28846 0.3097 0.36803 0.0
H2798 H 0.3495 0.28921 0.34545 0.0
H2799 H 0.27489 0.27327 0.36226 0.0
H2800 H 0.27563 0.32959 0.42892 0.0
H2801 H 0.26749 0.39428 0.40772 0.0
H2802 H 0.41766 0.29221 0.32967 0.0
H2803 H 0.42245 0.3051 0.39678 0.0
H2804 H 0.28538 0.33826 0.3436 0.0
H2805 H 0.29795 0.40478 0.33481 0.0
H2806 H 0.24693 0.34574 0.3403 0.0
H2807 H 0.25929 0.41112 0.33145 0.0
H2808 H 0.3722 0.3708 0.29793 0.0
H2809 H 0.35043 0.30721 0.31003 0.0
H2810 H 0.37844 0.36087 0.26047 0.0
H2811 H 0.35729 0.29833 0.27236 0.0
H2812 H 0.39471 0.4316 0.31514 0.0
H2813 H 0.333 0.42439 0.28646 0.0
H2814 H 0.29308 0.28932 0.2807 0.0
H2815 H 0.30967 0.35256 0.26002 0.0
C2816 C 0.04573 0.00551 0.01603 0.0
C2817 C 0.06374 0.00443 0.02886 0.0
C2818 C 0.03782 0.98731 0.00625 0.0
C2819 C 0.04812 0.96758 0.00972 0.0
C2820 C 0.06679 0.96654 0.02209 0.0
C2821 C 0.07446 0.98513 0.03153 0.0
C2822 C 0.01805 0.98912 0.99278 0.0
C2823 C 0.07806 0.94579 0.0262 0.0
C2824 C 0.00654 0.92661 1.00126 0.0
C2825 C 0.00872 0.92344 0.97938 0.0
C2826 C 0.02127 0.9389 0.01236 0.0
C2827 C 0.03827 0.9482 1.00112 0.0
C2828 C 0.04215 0.94248 0.97979 0.0
C2829 C 0.02721 0.93011 0.96908 0.0
C2830 C 0.01703 0.94418 0.03533 0.0
C2831 C 0.0604 0.95176 0.96745 0.0
H2832 H 0.03768 0.0206 0.01392 0.0
H2833 H 0.08836 0.98445 0.04166 0.0
H2834 H 0.02092 0.98235 0.97678 0.0
H2835 H 0.00501 0.97992 1.00014 0.0
H2836 H 0.0127 0.00583 0.99088 0.0
H2837 H 0.09447 0.94832 0.03206 0.0
H2838 H 0.06925 0.93672 0.03843 0.0
H2839 H 0.07865 0.93587 0.01166 0.0
H2840 H 0.99245 0.92095 0.00929 0.0
H2841 H 0.02899 0.92754 0.95215 0.0
H2842 H 0.00969 0.96018 0.03634 0.0
H2843 H 0.03198 0.94455 0.04458 0.0
H2844 H 0.00606 0.93259 0.04275 0.0
H2845 H 0.0562 0.96808 0.96229 0.0
H2846 H 0.06401 0.9422 0.95307 0.0
H2847 H 0.07486 0.95281 0.97741 0.0
C2848 C 0.23104 0.69601 0.23837 0.0
C2849 C 0.25032 0.68565 0.24179 0.0
C2850 C 0.21801 0.70097 0.25561 0.0
C2851 C 0.22485 0.69556 0.27635 0.0
C2852 C 0.24205 0.68148 0.27915 0.0
C2853 C 0.25486 0.67682 0.2617 0.0
C2854 C 0.199 0.71506 0.25198 0.0
C2855 C 0.24902 0.67435 0.30092 0.0
C2856 C 0.22493 0.74497 0.30953 0.0
C2857 C 0.20643 0.74256 0.32148 0.0
C2858 C 0.23175 0.72904 0.29582 0.0
C2859 C 0.21957 0.71026 0.29379 0.0
C2860 C 0.20173 0.70699 0.30688 0.0
C2861 C 0.19536 0.72325 0.32068 0.0
C2862 C 0.25127 0.73307 0.28248 0.0
C2863 C 0.18854 0.68709 0.30552 0.0
H2864 H 0.22734 0.70229 0.22276 0.0
H2865 H 0.26949 0.66806 0.26402 0.0
H2866 H 0.18591 0.71074 0.26287 0.0
H2867 H 0.20344 0.7318 0.25524 0.0
H2868 H 0.19323 0.71402 0.23534 0.0
H2869 H 0.25831 0.65938 0.30006 0.0
H2870 H 0.25927 0.68675 0.30807 0.0
H2871 H 0.23522 0.67196 0.31153 0.0
H2872 H 0.23344 0.7599 0.3098 0.0
H2873 H 0.18125 0.72112 0.33023 0.0
H2874 H 0.24681 0.73406 0.26546 0.0
H2875 H 0.26274 0.71984 0.2843 0.0
H2876 H 0.25941 0.74806 0.28689 0.0
H2877 H 0.17548 0.68966 0.29398 0.0
H2878 H 0.18127 0.68333 0.32112 0.0
H2879 H 0.19794 0.6732 0.30015 0.0
C2880 C 0.49301 0.96098 0.50739 0.0
C2881 C 0.47526 0.94947 0.51353 0.0
C2882 C 0.49214 0.97409 0.48955 0.0
C2883 C 0.47276 0.97609 0.47816 0.0
C2884 C 0.45521 0.96333 0.48358 0.0
C2885 C 0.45675 0.94998 0.50127 0.0
C2886 C 0.51154 0.98696 0.48391 0.0
C2887 C 0.4343 0.96488 0.47206 0.0
C2888 C 0.47746 0.0314 0.46089 0.0
C2889 C 0.48943 0.02793 0.44251 0.0
C2890 C 0.46764 0.01434 0.47106 0.0
C2891 C 0.47065 0.99367 0.46283 0.0
C2892 C 0.47857 0.99097 0.44208 0.0
C2893 C 0.48769 0.00841 0.43188 0.0
C2894 C 0.45761 0.01793 0.49248 0.0
C2895 C 0.48086 0.96926 0.43227 0.0
H2896 H 0.50721 0.9604 0.5171 0.0
H2897 H 0.44303 0.94095 0.50631 0.0
H2898 H 0.51501 0.98564 0.46671 0.0
H2899 H 0.50864 0.00396 0.48754 0.0
H2900 H 0.52578 0.98176 0.49291 0.0
H2901 H 0.42625 0.9492 0.47173 0.0
H2902 H 0.42382 0.97607 0.48073 0.0
H2903 H 0.43608 0.9707 0.45554 0.0
H2904 H 0.47801 0.04662 0.46887 0.0
H2905 H 0.49586 0.00605 0.41693 0.0
H2906 H 0.46945 0.01461 0.50512 0.0
H2907 H 0.44397 0.00711 0.49485 0.0
H2908 H 0.45212 0.0346 0.49431 0.0
H2909 H 0.49584 0.96192 0.43795 0.0
H2910 H 0.48153 0.97025 0.41468 0.0
H2911 H 0.4676 0.95872 0.43694 0.0
C2912 C 0.21826 0.2365 0.82489 0.0
C2913 C 0.23775 0.23155 0.83415 0.0
C2914 C 0.21569 0.25569 0.81397 0.0
C2915 C 0.23344 0.26919 0.81142 0.0
C2916 C 0.25183 0.26584 0.82378 0.0
C2917 C 0.25362 0.24701 0.8354 0.0
C2918 C 0.19525 0.25967 0.8022 0.0
C2919 C 0.27102 0.27993 0.82177 0.0
C2920 C 0.23561 0.2796 0.75299 0.0
C2921 C 0.22735 0.30025 0.75166 0.0
C2922 C 0.24005 0.2703 0.77261 0.0
C2923 C 0.235 0.28144 0.79147 0.0
C2924 C 0.22867 0.3029 0.79041 0.0
C2925 C 0.22555 0.31226 0.77046 0.0
C2926 C 0.24822 0.2477 0.77298 0.0
C2927 C 0.22328 0.31555 0.81002 0.0
H2928 H 0.20596 0.22453 0.82417 0.0
H2929 H 0.26866 0.24305 0.84276 0.0
H2930 H 0.19152 0.27689 0.80174 0.0
H2931 H 0.19686 0.25399 0.78559 0.0
H2932 H 0.18182 0.25107 0.80965 0.0
H2933 H 0.28111 0.27902 0.83623 0.0
H2934 H 0.28065 0.27452 0.80806 0.0
H2935 H 0.26648 0.2967 0.81894 0.0
H2936 H 0.2373 0.2699 0.73893 0.0
H2937 H 0.2205 0.32868 0.76982 0.0
H2938 H 0.23497 0.23676 0.77669 0.0
H2939 H 0.26058 0.24565 0.78536 0.0
H2940 H 0.25503 0.24291 0.75745 0.0
H2941 H 0.20593 0.31468 0.81271 0.0
H2942 H 0.22746 0.33253 0.80784 0.0
H2943 H 0.23137 0.30946 0.82443 0.0
C2944 C 0.01714 0.01458 0.42363 0.0
C2945 C 1.00404 0.9967 0.42507 0.0
C2946 C 0.01501 0.03131 0.43807 0.0
C2947 C 0.9993 0.02995 0.45394 0.0
C2948 C 0.98405 0.01348 0.45326 0.0
C2949 C 0.98673 0.99685 0.43885 0.0
C2950 C 0.03129 0.04881 0.43803 0.0
C2951 C 0.96661 0.01187 0.46957 0.0
C2952 C 0.00993 0.04025 0.51143 0.0
C2953 C 0.99636 0.05737 0.51509 0.0
C2954 C 0.01292 0.03256 0.49087 0.0
C2955 C 1.00166 0.04209 0.47383 0.0
C2956 C 0.98978 0.06081 0.47721 0.0
C2957 C 0.9873 0.06832 0.49797 0.0
C2958 C 0.02625 0.01285 0.48778 0.0
C2959 C 0.97784 0.07155 0.45943 0.0
H2960 H 0.03048 0.01449 0.41282 0.0
H2961 H 0.97649 0.98307 0.43965 0.0
H2962 H 0.02438 0.06409 0.4434 0.0
H2963 H 0.04432 0.04457 0.44911 0.0
H2964 H 0.03824 0.05099 0.42198 0.0
H2965 H 0.95422 1.00032 0.46474 0.0
H2966 H 0.97344 0.00657 0.48494 0.0
H2967 H 0.95904 0.02755 0.47217 0.0
H2968 H 0.01695 0.03198 0.52482 0.0
H2969 H 0.97669 0.08155 0.50096 0.0
H2970 H 0.03692 0.01471 0.47393 0.0
H2971 H 0.01576 0.99908 0.48458 0.0
H2972 H 0.03602 0.00916 0.502 0.0
H2973 H 0.98665 0.0706 0.44423 0.0
H2974 H 0.97466 0.0885 0.46317 0.0
H2975 H 0.96239 0.0635 0.45716 0.0
C2976 C 0.28758 0.82262 0.75797 0.0
C2977 C 0.27509 0.81598 0.74079 0.0
C2978 C 0.28313 0.81561 0.77856 0.0
C2979 C 0.26633 0.80116 0.78159 0.0
C2980 C 0.25205 0.79683 0.76466 0.0
C2981 C 0.25661 0.80447 0.74438 0.0
C2982 C 0.29764 0.82214 0.79643 0.0
C2983 C 0.23343 0.78197 0.76723 0.0
C2984 C 0.26962 0.74833 0.80571 0.0
C2985 C 0.25098 0.74918 0.8176 0.0
C2986 C 0.27777 0.7668 0.79662 0.0
C2987 C 0.26676 0.78619 0.79963 0.0
C2988 C 0.25105 0.78769 0.81547 0.0
C2989 C 0.24306 0.76893 0.82424 0.0
C2990 C 0.29569 0.76481 0.78089 0.0
C2991 C 0.24051 0.80851 0.82072 0.0
H2992 H 0.30153 0.83223 0.75513 0.0
H2993 H 0.24684 0.79975 0.73101 0.0
H2994 H 0.29071 0.81891 0.81228 0.0
H2995 H 0.31289 0.81347 0.79506 0.0
H2996 H 0.30128 0.83935 0.79522 0.0
H2997 H 0.22321 0.78154 0.75285 0.0
H2998 H 0.23921 0.76562 0.77038 0.0
H2999 H 0.22352 0.78689 0.78088 0.0
H3000 H 0.27617 0.73308 0.8011 0.0
H3001 H 0.22921 0.76959 0.83438 0.0
H3002 H 0.30738 0.77768 0.78332 0.0
H3003 H 0.28936 0.76624 0.76449 0.0
H3004 H 0.30401 0.74931 0.78229 0.0
H3005 H 0.25132 0.8221 0.81788 0.0
H3006 H 0.23524 0.80873 0.83753 0.0
H3007 H 0.22627 0.81061 0.81057 0.0
C3008 C 0.50722 0.07828 0.99457 0.0
C3009 C 0.50844 0.06084 0.98075 0.0
C3010 C 0.51356 0.07635 0.01587 0.0
C3011 C 0.52122 0.05656 0.02322 0.0
C3012 C 0.52386 0.03947 0.00874 0.0
C3013 C 0.5175 0.0419 0.9877 0.0
C3014 C 0.51145 0.0952 0.03051 0.0
C3015 C 0.53169 0.01793 0.01569 0.0
C3016 C 0.5494 0.03658 0.07065 0.0
C3017 C 0.53327 0.02363 0.07863 0.0
C3018 C 0.54502 0.0512 0.05445 0.0
C3019 C 0.52421 0.05229 0.04617 0.0
C3020 C 0.50738 0.04247 0.05731 0.0
C3021 C 0.51218 0.02807 0.07355 0.0
C3022 C 0.56316 0.0624 0.04374 0.0
C3023 C 0.48478 0.04398 0.04961 0.0
H3024 H 0.5002 0.09301 0.98906 0.0
H3025 H 0.51861 0.02857 0.97683 0.0
H3026 H 0.50421 0.09057 0.04586 0.0
H3027 H 0.52745 0.10156 0.03403 0.0
H3028 H 0.50181 0.10811 0.02331 0.0
H3029 H 0.53444 0.00703 0.0021 0.0
H3030 H 0.54673 0.0194 0.02467 0.0
H3031 H 0.51962 0.01062 0.02616 0.0
H3032 H 0.56574 0.03316 0.07481 0.0
H3033 H 0.49976 0.01808 0.07996 0.0
H3034 H 0.55813 0.07815 0.03765 0.0
H3035 H 0.56865 0.05278 0.03004 0.0
H3036 H 0.57674 0.06451 0.05478 0.0
H3037 H 0.48102 0.06026 0.04406 0.0
H3038 H 0.4734 0.0395 0.06228 0.0
H3039 H 0.48255 0.03297 0.03603 0.0
C3040 C 0.2823 0.30152 0.23861 0.0
C3041 C 0.29985 0.31299 0.24553 0.0
C3042 C 0.28377 0.28843 0.22083 0.0
C3043 C 0.30347 0.28672 0.21004 0.0
C3044 C 0.32024 0.3006 0.21524 0.0
C3045 C 0.31822 0.31369 0.23308 0.0
C3046 C 0.26498 0.27458 0.21537 0.0
C3047 C 0.34108 0.30025 0.20357 0.0
C3048 C 0.3035 0.22941 0.20196 0.0
C3049 C 0.28995 0.22907 0.18438 0.0
C3050 C 0.3124 0.24858 0.20867 0.0
C3051 C 0.30736 0.26737 0.19737 0.0
C3052 C 0.29841 0.26594 0.1769 0.0
C3053 C 0.28947 0.24662 0.17061 0.0
C3054 C 0.32349 0.24927 0.2299 0.0
C3055 C 0.29468 0.28543 0.16354 0.0
H3056 H 0.26802 0.30144 0.24818 0.0
H3057 H 0.33172 0.32291 0.23837 0.0
H3058 H 0.26152 0.27528 0.19813 0.0
H3059 H 0.26855 0.25784 0.21956 0.0
H3060 H 0.25045 0.27941 0.22407 0.0
H3061 H 0.34711 0.31668 0.20153 0.0
H3062 H 0.35296 0.29147 0.21317 0.0
H3063 H 0.33982 0.29262 0.18774 0.0
H3064 H 0.30473 0.21549 0.21203 0.0
H3065 H 0.27963 0.24632 0.15649 0.0
H3066 H 0.31229 0.25508 0.24219 0.0
H3067 H 0.33711 0.26034 0.22939 0.0
H3068 H 0.32928 0.23333 0.23477 0.0
H3069 H 0.27908 0.29246 0.16764 0.0
H3070 H 0.29443 0.28132 0.14639 0.0
H3071 H 0.30707 0.29758 0.16644 0.0
C3072 C 0.43883 0.54652 0.98883 0.0
C3073 C 0.45503 0.55366 0.00231 0.0
C3074 C 0.44366 0.53464 0.97072 0.0
C3075 C 0.46506 0.52974 0.96646 0.0
C3076 C 0.48141 0.53996 0.97801 0.0
C3077 C 0.47616 0.55181 0.996 0.0
C3078 C 0.42586 0.52502 0.95797 0.0
C3079 C 0.5045 0.53581 0.97332 0.0
C3080 C 0.48283 0.47362 0.95949 0.0
C3081 C 0.49199 0.47448 0.93931 0.0
C3082 C 0.47188 0.49102 0.96766 0.0
C3083 C 0.4703 0.5098 0.95536 0.0
C3084 C 0.47731 0.50993 0.93408 0.0
C3085 C 0.48809 0.49213 0.92623 0.0
C3086 C 0.46405 0.48998 0.99033 0.0
C3087 C 0.47522 0.52931 0.92017 0.0
H3088 H 0.42241 0.54878 0.99334 0.0
H3089 H 0.48866 0.55774 0.00622 0.0
H3090 H 0.43037 0.52314 0.94105 0.0
H3091 H 0.42214 0.50905 0.96438 0.0
H3092 H 0.41129 0.53489 0.95896 0.0
H3093 H 0.51497 0.54754 0.98127 0.0
H3094 H 0.50885 0.51971 0.97907 0.0
H3095 H 0.50748 0.53634 0.95599 0.0
H3096 H 0.48572 0.46007 0.96971 0.0
H3097 H 0.49454 0.49258 0.9103 0.0
H3098 H 0.44745 0.49564 0.99134 0.0
H3099 H 0.4739 0.50045 1.00051 0.0
H3100 H 0.46479 0.47363 0.9969 0.0
H3101 H 0.46163 0.53944 0.92489 0.0
H3102 H 0.4733 0.52469 0.90325 0.0
H3103 H 0.48989 0.5389 0.92145 0.0
C3104 C 0.80094 0.22166 0.19839 0.0
C3105 C 0.81644 0.23514 0.20683 0.0
C3106 C 0.79135 0.20632 0.21119 0.0
C3107 C 0.79746 0.20482 0.23273 0.0
C3108 C 0.81556 0.21575 0.2401 0.0
C3109 C 0.82483 0.231 0.22702 0.0
C3110 C 0.77269 0.19411 0.20257 0.0
C3111 C 0.82298 0.21391 0.26282 0.0
C3112 C 0.75306 0.20761 0.27225 0.0
C3113 C 0.75336 0.18719 0.28084 0.0
C3114 C 0.76707 0.21325 0.25616 0.0
C3115 C 0.78167 0.19796 0.24845 0.0
C3116 C 0.78165 0.17707 0.25662 0.0
C3117 C 0.76748 0.17193 0.2729 0.0
C3118 C 0.76638 0.23572 0.24769 0.0
C3119 C 0.79688 0.16034 0.24875 0.0
H3120 H 0.79505 0.22433 0.18243 0.0
H3121 H 0.83707 0.24116 0.23353 0.0
H3122 H 0.77203 0.17792 0.20948 0.0
H3123 H 0.75783 0.20249 0.20691 0.0
H3124 H 0.77334 0.19286 0.18499 0.0
H3125 H 0.83946 0.21978 0.26478 0.0
H3126 H 0.81246 0.22355 0.27314 0.0
H3127 H 0.82221 0.19722 0.26835 0.0
H3128 H 0.74175 0.21919 0.27808 0.0
H3129 H 0.76766 0.15609 0.27963 0.0
H3130 H 0.76356 0.23557 0.2303 0.0
H3131 H 0.7818 0.24366 0.25054 0.0
H3132 H 0.75375 0.24542 0.25524 0.0
H3133 H 0.8003 0.16224 0.23158 0.0
H3134 H 0.79062 0.14411 0.25152 0.0
H3135 H 0.81205 0.1618 0.25753 0.0
C3136 C 0.05403 0.47649 0.48694 0.0
C3137 C 0.03835 0.46844 0.50046 0.0
C3138 C 0.04889 0.49143 0.47137 0.0
C3139 C 0.02764 0.49814 0.46944 0.0
C3140 C 0.01142 0.48752 0.48074 0.0
C3141 C 0.01702 0.47275 0.49632 0.0
C3142 C 0.06647 0.50188 0.45903 0.0
C3143 C 0.98842 0.49375 0.4784 0.0
C3144 C 0.01287 0.55571 0.46659 0.0
C3145 C 1.00422 0.55679 0.44625 0.0
C3146 C 0.02251 0.53702 0.47364 0.0
C3147 C 0.02289 0.51904 0.46007 0.0
C3148 C 0.01579 0.52072 0.43887 0.0
C3149 C 0.00657 0.53975 0.43214 0.0
C3150 C 0.03047 0.53596 0.49627 0.0
C3151 C 0.01586 0.50197 0.42395 0.0
H3152 H 0.07052 0.47251 0.48978 0.0
H3153 H 0.00489 0.46624 0.5066 0.0
H3154 H 0.06136 0.50568 0.4426 0.0
H3155 H 0.07084 0.51701 0.46693 0.0
H3156 H 0.08082 0.49165 0.45838 0.0
H3157 H 0.97768 0.48165 0.48533 0.0
H3158 H 0.98563 0.50905 0.4867 0.0
H3159 H 0.98423 0.49602 0.46144 0.0
H3160 H 0.01087 0.56899 0.47737 0.0
H3161 H 0.99952 0.54065 0.41644 0.0
H3162 H 0.04644 0.52861 0.49686 0.0
H3163 H 0.01967 0.52591 0.50584 0.0
H3164 H 0.0313 0.5519 0.50376 0.0
H3165 H 0.02947 0.49123 0.427 0.0
H3166 H 0.01634 0.50723 0.40712 0.0
H3167 H 1.0011 0.49273 0.42626 0.0
C3168 C 0.79472 0.71136 0.25705 0.0
C3169 C 0.78324 0.71907 0.27442 0.0
C3170 C 0.78896 0.71693 0.23638 0.0
C3171 C 0.77176 0.73094 0.23338 0.0
C3172 C 0.75947 0.73786 0.25096 0.0
C3173 C 0.76532 0.73159 0.2714 0.0
C3174 C 0.80179 0.70846 0.21803 0.0
C3175 C 0.74072 0.75262 0.24833 0.0
C3176 C 0.76688 0.77471 0.1947 0.0
C3177 C 0.74761 0.76893 0.1855 0.0
C3178 C 0.7772 0.76073 0.20844 0.0
C3179 C 0.76789 0.74073 0.21255 0.0
C3180 C 0.75075 0.7335 0.20008 0.0
C3181 C 0.74051 0.74794 0.18672 0.0
C3182 C 0.79581 0.76876 0.2212 0.0
C3183 C 0.74121 0.71179 0.2032 0.0
H3184 H 0.80822 0.70102 0.25969 0.0
H3185 H 0.75633 0.73695 0.28505 0.0
H3186 H 0.7919 0.70628 0.20362 0.0
H3187 H 0.81456 0.71988 0.21416 0.0
H3188 H 0.80937 0.69305 0.22213 0.0
H3189 H 0.73269 0.756 0.26364 0.0
H3190 H 0.746 0.7679 0.24136 0.0
H3191 H 0.72897 0.74557 0.23731 0.0
H3192 H 0.77234 0.79098 0.19344 0.0
H3193 H 0.72573 0.74353 0.1791 0.0
H3194 H 0.80809 0.75627 0.22287 0.0
H3195 H 0.79037 0.7731 0.23739 0.0
H3196 H 0.80311 0.78299 0.21383 0.0
H3197 H 0.75348 0.69994 0.20762 0.0
H3198 H 0.73294 0.70637 0.1886 0.0
H3199 H 0.7294 0.71249 0.21621 0.0
C3200 C 0.77668 0.21808 0.75355 0.0
C3201 C 0.79686 0.20995 0.74963 0.0
C3202 C 0.77388 0.23468 0.76792 0.0
C3203 C 0.79181 0.24337 0.77835 0.0
C3204 C 0.81204 0.23417 0.77558 0.0
C3205 C 0.81434 0.21745 0.76114 0.0
C3206 C 0.75189 0.24379 0.77085 0.0
C3207 C 0.83145 0.24285 0.78654 0.0
C3208 C 0.77776 0.29999 0.78703 0.0
C3209 C 0.76741 0.29823 0.80657 0.0
C3210 C 0.78876 0.28265 0.77864 0.0
C3211 C 0.7892 0.26337 0.79017 0.0
C3212 C 0.78175 0.26269 0.81126 0.0
C3213 C 0.77077 0.28021 0.81925 0.0
C3214 C 0.79724 0.28411 0.7563 0.0
C3215 C 0.78265 0.24259 0.82426 0.0
H3216 H 0.76325 0.212 0.74468 0.0
H3217 H 0.83 0.21115 0.7579 0.0
H3218 H 0.74789 0.24464 0.78797 0.0
H3219 H 0.75131 0.26019 0.76442 0.0
H3220 H 0.73957 0.23422 0.76267 0.0
H3221 H 0.8441 0.23062 0.78779 0.0
H3222 H 0.83779 0.25632 0.77715 0.0
H3223 H 0.82772 0.24884 0.80267 0.0
H3224 H 0.77568 0.3142 0.77754 0.0
H3225 H 0.76295 0.27882 0.8345 0.0
H3226 H 0.78602 0.27621 0.74525 0.0
H3227 H 0.81272 0.27586 0.75499 0.0
H3228 H 0.79919 0.30085 0.75113 0.0
H3229 H 0.76927 0.23214 0.81966 0.0
H3230 H 0.78131 0.24601 0.84151 0.0
H3231 H 0.79759 0.23375 0.82135 0.0
C3232 C 0.76714 0.7888 0.74929 0.0
C3233 C 0.78597 0.79953 0.75366 0.0
C3234 C 0.76626 0.77391 0.7329 0.0
C3235 C 0.7848 0.7697 0.72087 0.0
C3236 C 0.80284 0.7827 0.72328 0.0
C3237 C 0.80328 0.79751 0.73985 0.0
C3238 C 0.74634 0.76087 0.73033 0.0
C3239 C 0.82251 0.77946 0.71012 0.0
C3240 C 0.78415 0.71111 0.71762 0.0
C3241 C 0.77172 0.70868 0.69944 0.0
C3242 C 0.79182 0.73111 0.72323 0.0
C3243 C 0.78654 0.74883 0.71037 0.0
C3244 C 0.77727 0.74569 0.69019 0.0
C3245 C 0.76982 0.72545 0.68492 0.0
C3246 C 0.80252 0.73369 0.74454 0.0
C3247 C 0.77245 0.76401 0.67555 0.0
H3248 H 0.75366 0.79085 0.75974 0.0
H3249 H 0.81784 0.80602 0.74312 0.0
H3250 H 0.74186 0.75966 0.71335 0.0
H3251 H 0.74916 0.74454 0.73634 0.0
H3252 H 0.73277 0.76777 0.73919 0.0
H3253 H 0.83103 0.79471 0.70787 0.0
H3254 H 0.83338 0.76844 0.71854 0.0
H3255 H 0.8188 0.77258 0.69433 0.0
H3256 H 0.78587 0.69791 0.72855 0.0
H3257 H 0.76038 0.72341 0.67066 0.0
H3258 H 0.79115 0.74067 0.75603 0.0
H3259 H 0.81623 0.74459 0.74331 0.0
H3260 H 0.80815 0.71826 0.751 0.0
H3261 H 0.75644 0.77034 0.67918 0.0
H3262 H 0.77245 0.75876 0.65871 0.0
H3263 H 0.78405 0.77708 0.67754 0.0
C3264 C 0.44509 0.49145 0.49512 0.0
C3265 C 0.46043 0.47539 0.49421 0.0
C3266 C 0.44888 0.51004 0.50657 0.0
C3267 C 0.46865 0.51255 0.51674 0.0
C3268 C 0.48316 0.49536 0.51779 0.0
C3269 C 0.47877 0.4768 0.50648 0.0
C3270 C 0.43266 0.52765 0.50597 0.0
C3271 C 0.50432 0.49737 0.52886 0.0
C3272 C 0.501 0.56188 0.51314 0.0
C3273 C 0.50281 0.56701 0.53463 0.0
C3274 C 0.48778 0.54537 0.50666 0.0
C3275 C 0.47625 0.53394 0.52219 0.0
C3276 C 0.47583 0.541 0.54345 0.0
C3277 C 0.48927 0.55755 0.54949 0.0
C3278 C 0.48823 0.53855 0.48367 0.0
C3279 C 0.46319 0.52963 0.56028 0.0
H3280 H 0.43067 0.48999 0.48589 0.0
H3281 H 0.49043 0.46414 0.50584 0.0
H3282 H 0.43251 0.53671 0.52107 0.0
H3283 H 0.43666 0.53886 0.49299 0.0
H3284 H 0.41652 0.52136 0.50288 0.0
H3285 H 0.51262 0.48186 0.5302 0.0
H3286 H 0.51459 0.50842 0.51981 0.0
H3287 H 0.50226 0.50405 0.54501 0.0
H3288 H 0.51127 0.56956 0.50169 0.0
H3289 H 0.49064 0.56158 0.56618 0.0
H3290 H 0.47195 0.53578 0.47768 0.0
H3291 H 0.4971 0.52338 0.48224 0.0
H3292 H 0.49599 0.55053 0.47335 0.0
H3293 H 0.44829 0.52297 0.55372 0.0
H3294 H 0.45928 0.54043 0.57366 0.0
H3295 H 0.47273 0.51629 0.56672 0.0
C3296 C 0.0298 0.49392 0.92684 0.0
C3297 C 0.04645 0.50345 0.93796 0.0
C3298 C 0.01725 0.47854 0.93674 0.0
C3299 C 0.02164 0.47305 0.95807 0.0
C3300 C 0.04038 0.48034 0.96802 0.0
C3301 C 0.05258 0.49567 0.9578 0.0
C3302 C 0.99785 0.47035 0.92542 0.0
C3303 C 0.04593 0.47434 0.99057 0.0
C3304 C 0.9784 0.47342 0.9987 0.0
C3305 C 0.9785 0.45224 0.00524 0.0
C3306 C 0.99127 0.48006 0.98201 0.0
C3307 C 0.00448 0.46505 0.9717 0.0
C3308 C 1.00329 0.44332 0.97703 0.0
C3309 C 0.99032 0.43714 0.99392 0.0
C3310 C 0.99199 0.50346 0.97666 0.0
C3311 C 0.01672 0.4268 0.96609 0.0
H3312 H 0.02536 0.49989 0.9113 0.0
H3313 H 0.06582 0.50291 0.96605 0.0
H3314 H 0.99462 0.4536 0.92978 0.0
H3315 H 0.9839 0.47998 0.93016 0.0
H3316 H 0.9996 0.47151 0.90791 0.0
H3317 H 0.06254 0.47855 0.99461 0.0
H3318 H 0.03525 0.4829 1.00166 0.0
H3319 H 0.04371 0.45709 0.99317 0.0
H3320 H 0.96925 0.48505 0.00748 0.0
H3321 H 0.98998 0.42062 0.99874 0.0
H3322 H 0.98997 0.50588 0.95934 0.0
H3323 H 0.00765 0.51006 0.98121 0.0
H3324 H 0.97951 0.51265 0.98504 0.0
H3325 H 0.01973 0.43098 0.94925 0.0
H3326 H 0.00911 0.41092 0.96673 0.0
H3327 H 0.03224 0.42561 0.97431 0.0
C3328 C 0.12152 0.99249 0.19181 0.0
C3329 C 0.13275 0.01185 0.19206 0.0
C3330 C 0.12514 0.97634 0.20709 0.0
C3331 C 0.14019 0.97935 0.2236 0.0
C3332 C 0.15215 0.99845 0.22352 0.0
C3333 C 0.14845 0.01424 0.20783 0.0
C3334 C 0.11275 0.95593 0.20555 0.0
C3335 C 0.16845 0.00263 0.24051 0.0
C3336 C 0.1323 0.94713 0.27533 0.0
C3337 C 0.14877 0.93214 0.2745 0.0
C3338 C 0.12932 0.9624 0.25903 0.0
C3339 C 0.14303 0.9628 0.24109 0.0
C3340 C 0.15941 0.94729 0.24002 0.0
C3341 C 0.16227 0.93249 0.25679 0.0
C3342 C 0.11175 0.97845 0.26152 0.0
C3343 C 0.1739 0.94605 0.22103 0.0
H3344 H 0.1099 0.98974 0.17945 0.0
H3345 H 0.15732 0.02892 0.20858 0.0
H3346 H 0.12373 0.94214 0.20583 0.0
H3347 H 0.1021 0.95441 0.21946 0.0
H3348 H 0.103 0.95513 0.19088 0.0
H3349 H 0.1824 0.99226 0.23794 0.0
H3350 H 0.17391 0.01938 0.24042 0.0
H3351 H 0.16189 0.9988 0.25637 0.0
H3352 H 0.12182 0.94708 0.28895 0.0
H3353 H 0.17493 0.92088 0.25586 0.0
H3354 H 0.09946 0.97288 0.27279 0.0
H3355 H 0.104 0.98223 0.24618 0.0
H3356 H 0.11857 0.99333 0.26781 0.0
H3357 H 0.16492 0.94842 0.20605 0.0
H3358 H 0.18229 0.93055 0.22021 0.0
H3359 H 0.18598 0.95875 0.22211 0.0
C3360 C 0.33967 0.85807 0.51004 0.0
C3361 C 0.33668 0.87216 0.52707 0.0
C3362 C 0.32398 0.85538 0.49418 0.0
C3363 C 0.30455 0.86673 0.49549 0.0
C3364 C 0.30131 0.88061 0.51291 0.0
C3365 C 0.31739 0.88326 0.52826 0.0
C3366 C 0.32833 0.84058 0.47586 0.0
C3367 C 0.28081 0.89277 0.51533 0.0
C3368 C 0.26912 0.87586 0.44667 0.0
C3369 C 0.25289 0.86075 0.44942 0.0
C3370 C 0.28614 0.87769 0.46117 0.0
C3371 C 0.2874 0.86397 0.47897 0.0
C3372 C 0.27161 0.84825 0.48153 0.0
C3373 C 0.25466 0.84686 0.46692 0.0
C3374 C 0.30275 0.8945 0.4575 0.0
C3375 C 0.27253 0.83297 0.49997 0.0
H3376 H 0.35453 0.8495 0.50884 0.0
H3377 H 0.3147 0.89393 0.54138 0.0
H3378 H 0.316 0.82808 0.4751 0.0
H3379 H 0.32759 0.8495 0.46069 0.0
H3380 H 0.3441 0.83282 0.47714 0.0
H3381 H 0.27886 0.90394 0.50184 0.0
H3382 H 0.26716 0.88172 0.5149 0.0
H3383 H 0.2802 0.90196 0.53037 0.0
H3384 H 0.26877 0.88629 0.43303 0.0
H3385 H 0.24257 0.83504 0.46962 0.0
H3386 H 0.31875 0.88719 0.4573 0.0
H3387 H 0.30247 0.90612 0.47074 0.0
H3388 H 0.30026 0.90319 0.44235 0.0
H3389 H 0.27231 0.84191 0.51513 0.0
H3390 H 0.28761 0.82393 0.49958 0.0
H3391 H 0.25925 0.82147 0.49982 0.0
C3392 C 0.37227 0.05644 0.7598 0.0
C3393 C 0.35598 0.07072 0.75468 0.0
C3394 C 0.38021 0.04192 0.74471 0.0
C3395 C 0.37125 0.04093 0.72402 0.0
C3396 C 0.35556 0.05615 0.71844 0.0
C3397 C 0.3481 0.07075 0.73379 0.0
C3398 C 0.39813 0.02744 0.75104 0.0
C3399 C 0.34641 0.05711 0.69633 0.0
C3400 C 0.40481 0.00655 0.68629 0.0
C3401 C 0.39215 0.98843 0.68358 0.0
C3402 C 0.39781 0.02415 0.69829 0.0
C3403 C 0.37785 0.02352 0.70877 0.0
C3404 C 0.36467 0.0055 0.70533 0.0
C3405 C 0.37192 0.9884 0.69279 0.0
C3406 C 0.41196 0.04343 0.69898 0.0
C3407 C 0.34249 0.00402 0.71412 0.0
H3408 H 0.37893 0.05673 0.77568 0.0
H3409 H 0.33577 0.08197 0.72952 0.0
H3410 H 0.41236 0.03097 0.74145 0.0
H3411 H 0.39353 0.01085 0.74778 0.0
H3412 H 0.4026 0.02917 0.76799 0.0
H3413 H 0.34092 0.07342 0.69241 0.0
H3414 H 0.35812 0.05203 0.68421 0.0
H3415 H 0.3325 0.04644 0.69537 0.0
H3416 H 0.42017 0.00719 0.67865 0.0
H3417 H 0.36177 0.97471 0.69056 0.0
H3418 H 0.42716 0.03922 0.70683 0.0
H3419 H 0.40482 0.05721 0.70728 0.0
H3420 H 0.41591 0.04835 0.68252 0.0
H3421 H 0.33898 0.9875 0.7192 0.0
H3422 H 0.33108 0.00795 0.70129 0.0
H3423 H 0.33958 0.01492 0.7276 0.0
C3424 C 0.31002 0.11171 0.98859 0.0
C3425 C 0.29377 0.10738 0.95996 0.0
C3426 C 0.29239 0.10897 0.97748 0.0
C3427 C 0.26332 0.10322 0.9792 0.0
C3428 C 0.25832 0.09331 0.96037 0.0
C3429 C 0.27581 0.09289 0.94864 0.0
C3430 C 0.31562 0.1092 0.00723 0.0
C3431 C 0.23736 0.08498 0.9522 0.0
C3432 C 0.22067 0.08627 0.02113 0.0
C3433 C 0.20779 0.10444 0.02301 0.0
C3434 C 0.23729 0.08488 0.00609 0.0
C3435 C 0.24432 0.10342 0.99496 0.0
C3436 C 0.22845 0.11956 0.99318 0.0
C3437 C 0.21142 0.12061 0.00792 0.0
C3438 C 0.24234 0.06265 0.99854 0.0
C3439 C 0.22714 0.13371 0.97373 0.0
H3440 H 0.3346 0.12129 0.98727 0.0
H3441 H 0.274 0.08746 0.93222 0.0
H3442 H 0.31169 0.10301 0.02393 0.0
H3443 H 0.33123 0.09766 0.01058 0.0
H3444 H 0.3208 0.12514 0.01753 0.0
H3445 H 0.23906 0.06786 0.94835 0.0
H3446 H 0.22395 0.08698 0.9633 0.0
H3447 H 0.23334 0.09319 0.93711 0.0
H3448 H 0.21634 0.07203 0.02969 0.0
H3449 H 0.20072 0.13398 0.00694 0.0
H3450 H 0.24382 0.05157 0.01218 0.0
H3451 H 0.25647 0.06157 0.98824 0.0
H3452 H 0.22869 0.05676 0.98909 0.0
H3453 H 0.21896 0.14893 0.97721 0.0
H3454 H 0.2174 0.12561 0.96152 0.0
H3455 H 0.24281 0.13699 0.96653 0.0
C3456 C 0.14343 0.09484 0.26764 0.0
C3457 C 0.14266 0.09125 0.24567 0.0
C3458 C 0.13622 0.0794 0.28206 0.0
C3459 C 0.12789 0.06002 0.27428 0.0
C3460 C 0.12581 0.05702 0.25208 0.0
C3461 C 0.13359 0.07247 0.23804 0.0
C3462 C 0.13783 0.08371 0.30556 0.0
C3463 C 0.11587 0.03722 0.24312 0.0
C3464 C 0.13371 0.00955 0.30709 0.0
C3465 C 0.11267 0.00537 0.31285 0.0
C3466 C 0.13898 0.02766 0.29518 0.0
C3467 C 0.12286 0.04217 0.28907 0.0
C3468 C 0.1018 0.0387 0.29597 0.0
C3469 C 0.09692 0.02022 0.30748 0.0
C3470 C 0.16189 0.03123 0.28934 0.0
C3471 C 0.08427 0.0543 0.29107 0.0
H3472 H 0.15029 0.10947 0.27355 0.0
H3473 H 0.13261 0.06986 0.22104 0.0
H3474 H 0.12312 0.07875 0.31381 0.0
H3475 H 0.15111 0.07436 0.31236 0.0
H3476 H 0.14076 0.10076 0.30894 0.0
H3477 H 0.114 0.03798 0.22561 0.0
H3478 H 0.12585 0.02342 0.24736 0.0
H3479 H 0.10007 0.03451 0.2502 0.0
H3480 H 0.14602 0.99828 0.31131 0.0
H3481 H 0.08072 0.01747 0.31241 0.0
H3482 H 0.16344 0.03756 0.273 0.0
H3483 H 0.16883 0.04309 0.30034 0.0
H3484 H 0.17139 0.01643 0.29069 0.0
H3485 H 0.07086 0.05265 0.30235 0.0
H3486 H 0.0781 0.05132 0.27485 0.0
H3487 H 0.09008 0.0709 0.29166 0.0
C3488 C 0.23422 0.85567 0.53916 0.0
C3489 C 0.23957 0.87192 0.5536 0.0
C3490 C 0.21816 0.85844 0.52372 0.0
C3491 C 0.20707 0.87797 0.52232 0.0
C3492 C 0.21195 0.89424 0.53704 0.0
C3493 C 0.22785 0.89098 0.55248 0.0
C3494 C 0.21302 0.84042 0.5088 0.0
C3495 C 0.20037 0.91522 0.53647 0.0
C3496 C 0.18108 0.89468 0.46983 0.0
C3497 C 0.1597 0.88945 0.4731 0.0
C3498 C 0.19661 0.89068 0.48548 0.0
C3499 C 0.1907 0.88158 0.50521 0.0
C3500 C 0.16913 0.87623 0.50858 0.0
C3501 C 0.15399 0.88001 0.49246 0.0
C3502 C 0.21938 0.89643 0.48099 0.0
C3503 C 0.16191 0.86692 0.52943 0.0
H3504 H 0.24277 0.84079 0.53958 0.0
H3505 H 0.23085 0.90351 0.56383 0.0
H3506 H 0.22361 0.82654 0.51111 0.0
H3507 H 0.21411 0.8459 0.49211 0.0
H3508 H 0.19647 0.83516 0.51135 0.0
H3509 H 0.20553 0.9261 0.54935 0.0
H3510 H 0.20309 0.92315 0.52099 0.0
H3511 H 0.18306 0.91257 0.53795 0.0
H3512 H 0.18573 0.90173 0.45486 0.0
H3513 H 0.13753 0.87602 0.49519 0.0
H3514 H 0.22184 0.90122 0.46421 0.0
H3515 H 0.22995 0.88283 0.48468 0.0
H3516 H 0.22424 0.90977 0.49139 0.0
H3517 H 0.1709 0.85221 0.53299 0.0
H3518 H 0.14472 0.86317 0.52943 0.0
H3519 H 0.16519 0.87829 0.54248 0.0
C3520 C 0.40851 0.98796 0.80752 0.0
C3521 C 0.39675 0.00676 0.81018 0.0
C3522 C 0.40248 0.97235 0.79263 0.0
C3523 C 0.38476 0.97588 0.77913 0.0
C3524 C 0.37205 0.99422 0.78278 0.0
C3525 C 0.3781 0.0092 0.79824 0.0
C3526 C 0.41535 0.95217 0.79139 0.0
C3527 C 0.35206 0.99864 0.77039 0.0
C3528 C 0.38672 0.94711 0.72524 0.0
C3529 C 0.36771 0.93571 0.72534 0.0
C3530 C 0.39277 0.95988 0.74261 0.0
C3531 C 0.37977 0.96082 0.76112 0.0
C3532 C 0.36134 0.94785 0.76179 0.0
C3533 C 0.35528 0.93605 0.74377 0.0
C3534 C 0.41314 0.97219 0.74032 0.0
C3535 C 0.34766 0.94615 0.78134 0.0
H3536 H 0.42242 0.98527 0.81727 0.0
H3537 H 0.36858 0.0234 0.8002 0.0
H3538 H 0.4056 0.93849 0.78612 0.0
H3539 H 0.42848 0.95435 0.77992 0.0
H3540 H 0.42254 0.94826 0.80703 0.0
H3541 H 0.33825 0.99334 0.77986 0.0
H3542 H 0.34998 0.01591 0.76758 0.0
H3543 H 0.35178 0.99034 0.75496 0.0
H3544 H 0.39665 0.94656 0.71124 0.0
H3545 H 0.34085 0.92674 0.74426 0.0
H3546 H 0.41691 0.9826 0.75394 0.0
H3547 H 0.41241 0.98211 0.72578 0.0
H3548 H 0.42647 0.96088 0.73808 0.0
H3549 H 0.34295 0.92936 0.78396 0.0
H3550 H 0.33284 0.95531 0.7788 0.0
H3551 H 0.35562 0.95199 0.79592 0.0
C3552 C 0.31336 0.07763 0.98024 0.0
C3553 C 0.32951 0.10169 0.96172 0.0
C3554 C 0.28888 0.08529 0.00386 0.0
C3555 C 0.28109 0.1205 0.00945 0.0
C3556 C 0.2958 0.1438 0.98896 0.0
C3557 C 0.31799 0.13592 0.96476 0.0
C3558 C 0.28351 0.06956 0.02184 0.0
C3559 C 0.29634 0.1666 0.99522 0.0
C3560 C 0.23867 0.14716 0.04526 0.0
C3561 C 0.24082 0.13633 0.06446 0.0
C3562 C 0.25273 0.14395 0.02822 0.0
C3563 C 0.26896 0.128 0.02938 0.0
C3564 C 0.27265 0.11928 0.05016 0.0
C3565 C 0.2578 0.12232 0.06656 0.0
C3566 C 0.25012 0.15936 0.01019 0.0
C3567 C 0.29404 0.11177 0.05777 0.0
H3568 H 0.30149 0.07629 0.99172 0.0
H3569 H 0.32652 0.14847 0.95679 0.0
H3570 H 0.27047 0.07556 0.03196 0.0
H3571 H 0.28037 0.05356 0.01529 0.0
H3572 H 0.29785 0.06731 0.03175 0.0
H3573 H 0.28445 0.17568 0.98593 0.0
H3574 H 0.29357 0.16823 0.01251 0.0
H3575 H 0.3121 0.17325 0.99124 0.0
H3576 H 0.22597 0.15861 0.04345 0.0
H3577 H 0.26091 0.11537 0.08199 0.0
H3578 H 0.25775 0.17457 0.01461 0.0
H3579 H 0.23319 0.16345 0.00764 0.0
H3580 H 0.25677 0.15342 0.99528 0.0
H3581 H 0.29654 0.09494 0.05383 0.0
H3582 H 0.29574 0.11268 0.07532 0.0
H3583 H 0.30667 0.12213 0.05139 0.0
C3584 C 0.93529 0.24352 0.12911 0.0
C3585 C 0.93729 0.26392 0.12015 0.0
C3586 C 0.95125 0.22788 0.12691 0.0
C3587 C 0.9701 0.23241 0.11551 0.0
C3588 C 0.97205 0.25288 0.10603 0.0
C3589 C 0.95577 0.26823 0.1085 0.0
C3590 C 0.94782 0.20631 0.13676 0.0
C3591 C 0.99128 0.25923 0.09339 0.0
C3592 C 0.01914 0.19762 0.12795 0.0
C3593 C 0.01971 0.18319 0.11081 0.0
C3594 C 1.00332 0.21356 0.12964 0.0
C3595 C 0.98751 0.21572 0.11371 0.0
C3596 C 0.98801 0.20142 0.09631 0.0
C3597 C 1.00379 0.18541 0.09516 0.0
C3598 C 1.00343 0.22788 0.14883 0.0
C3599 C 0.97168 0.20295 0.07886 0.0
H3600 H 0.92101 0.23964 0.13779 0.0
H3601 H 0.95782 0.28386 0.10158 0.0
H3602 H 0.94937 0.19377 0.12448 0.0
H3603 H 0.96012 0.20325 0.14897 0.0
H3604 H 0.93199 0.20488 0.14431 0.0
H3605 H 0.99999 0.27178 0.10217 0.0
H3606 H 0.98622 0.26633 0.07804 0.0
H3607 H 1.00221 0.24588 0.09004 0.0
H3608 H 0.03123 0.19671 0.14013 0.0
H3609 H 1.0033 0.17438 0.08201 0.0
H3610 H 0.99916 0.2444 0.14445 0.0
H3611 H 0.01911 0.22791 0.15686 0.0
H3612 H 0.99147 0.22219 0.16037 0.0
H3613 H 0.95556 0.20115 0.08561 0.0
H3614 H 0.97401 0.19071 0.06638 0.0
H3615 H 0.97247 0.21888 0.07137 0.0
C3616 C 0.49486 0.28647 0.89164 0.0
C3617 C 0.49824 0.30455 0.8789 0.0
C3618 C 0.47862 0.27177 0.8871 0.0
C3619 C 0.46562 0.27463 0.86896 0.0
C3620 C 0.46929 0.29238 0.85564 0.0
C3621 C 0.48526 0.30715 0.86086 0.0
C3622 C 0.47523 0.25324 0.90188 0.0
C3623 C 0.45598 0.29604 0.83604 0.0
C3624 C 0.43309 0.22748 0.84823 0.0
C3625 C 0.41297 0.2316 0.85683 0.0
C3626 C 0.45035 0.24125 0.85198 0.0
C3627 C 0.44749 0.25974 0.86456 0.0
C3628 C 0.42717 0.26401 0.87315 0.0
C3629 C 0.41027 0.24995 0.86922 0.0
C3630 C 0.47172 0.23576 0.84278 0.0
C3631 C 0.42329 0.28339 0.88672 0.0
H3632 H 0.50494 0.28366 0.90528 0.0
H3633 H 0.48714 0.32105 0.85094 0.0
H3634 H 0.47809 0.23817 0.89325 0.0
H3635 H 0.48582 0.25383 0.91596 0.0
H3636 H 0.45857 0.25296 0.90747 0.0
H3637 H 0.46153 0.30986 0.82663 0.0
H3638 H 0.45631 0.28171 0.82578 0.0
H3639 H 0.43925 0.29881 0.84066 0.0
H3640 H 0.43549 0.2132 0.83893 0.0
H3641 H 0.3948 0.25343 0.87581 0.0
H3642 H 0.47089 0.22221 0.83153 0.0
H3643 H 0.48276 0.23144 0.8558 0.0
H3644 H 0.47851 0.24967 0.83442 0.0
H3645 H 0.43388 0.28306 0.9008 0.0
H3646 H 0.40662 0.28446 0.89227 0.0
H3647 H 0.42709 0.29796 0.87762 0.0
C3648 C 0.99214 0.71074 0.36914 0.0
C3649 C 0.96522 0.71041 0.37094 0.0
C3650 C 0.00726 0.72796 0.38289 0.0
C3651 C 0.99932 0.74764 0.39979 0.0
C3652 C 0.97397 0.75296 0.4079 0.0
C3653 C 0.95265 0.73995 0.3973 0.0
C3654 C 0.03076 0.7249 0.3805 0.0
C3655 C 0.97013 0.76642 0.42712 0.0
C3656 C 0.04669 0.78078 0.41591 0.0
C3657 C 0.05497 0.78613 0.39643 0.0
C3658 C 0.02802 0.76884 0.41697 0.0
C3659 C 0.01447 0.76651 0.3987 0.0
C3660 C 0.01859 0.77883 0.378 0.0
C3661 C 0.04237 0.78213 0.37852 0.0
C3662 C 0.02462 0.75641 0.43723 0.0
C3663 C 0.98923 0.79454 0.34518 0.0
H3664 H 0.99992 0.6986 0.3598 0.0
H3665 H 0.93721 0.7436 0.40435 0.0
H3666 H 0.03773 0.73817 0.37141 0.0
H3667 H 0.03838 0.72493 0.39638 0.0
H3668 H 0.03449 0.70979 0.37224 0.0
H3669 H 0.97187 0.75633 0.44145 0.0
H3670 H 0.98174 0.77958 0.42813 0.0
H3671 H 0.95366 0.77257 0.42725 0.0
H3672 H 0.0563 0.78326 0.42997 0.0
H3673 H 0.05194 0.78535 0.36479 0.0
H3674 H 0.02779 0.73936 0.43413 0.0
H3675 H 0.00824 0.75793 0.443 0.0
H3676 H 0.03533 0.76155 0.45027 0.0
H3677 H 0.99452 0.805 0.33155 0.0
H3678 H 0.97521 0.80504 0.34878 0.0
H3679 H 0.97994 0.78354 0.3346 0.0
C3680 C 0.02487 0.32086 0.11018 0.0
C3681 C 0.00732 0.32153 0.12382 0.0
C3682 C 0.04214 0.30726 0.1142 0.0
C3683 C 0.04179 0.29365 0.13212 0.0
C3684 C 0.02393 0.294 0.14576 0.0
C3685 C 0.00704 0.30802 0.14154 0.0
C3686 C 0.06107 0.30793 0.0996 0.0
C3687 C 0.02273 0.28016 0.16528 0.0
C3688 C 0.07877 0.24558 0.13159 0.0
C3689 C 0.09497 0.25198 0.14545 0.0
C3690 C 0.06138 0.25888 0.12725 0.0
C3691 C 0.06022 0.27928 0.13668 0.0
C3692 C 0.07661 0.28587 0.1506 0.0
C3693 C 0.09367 0.27208 0.15497 0.0
C3694 C 0.04411 0.25095 0.11275 0.0
C3695 C 0.07622 0.30755 0.16077 0.0
H3696 H 0.02538 0.33147 0.09664 0.0
H3697 H 0.99352 0.30835 0.15213 0.0
H3698 H 0.07547 0.3122 0.10878 0.0
H3699 H 0.06388 0.29204 0.09257 0.0
H3700 H 0.05902 0.31959 0.08651 0.0
H3701 H 0.03014 0.28864 0.17881 0.0
H3702 H 0.00602 0.27676 0.16963 0.0
H3703 H 0.03124 0.26491 0.16312 0.0
H3704 H 0.07954 0.22997 0.12439 0.0
H3705 H 0.10622 0.27719 0.16555 0.0
H3706 H 0.04376 0.26054 0.09799 0.0
H3707 H 0.04623 0.23399 0.10839 0.0
H3708 H 0.02857 0.2529 0.1206 0.0
H3709 H 0.07446 0.32 0.14842 0.0
H3710 H 0.0908 0.31081 0.17011 0.0
H3711 H 0.06236 0.30883 0.1715 0.0
C3712 C 0.57173 0.72737 0.66168 0.0
C3713 C 0.59303 0.73254 0.65783 0.0
C3714 C 0.55525 0.74192 0.65736 0.0
C3715 C 0.56014 0.76243 0.64951 0.0
C3716 C 0.58164 0.76776 0.6457 0.0
C3717 C 0.59775 0.7527 0.64967 0.0
C3718 C 0.53258 0.73526 0.66108 0.0
C3719 C 0.58764 0.78938 0.63734 0.0
C3720 C 0.51681 0.79419 0.62103 0.0
C3721 C 0.50999 0.80855 0.63678 0.0
C3722 C 0.53312 0.77935 0.62488 0.0
C3723 C 0.54278 0.77827 0.64516 0.0
C3724 C 0.53594 0.79245 0.66121 0.0
C3725 C 0.5199 0.80745 0.65682 0.0
C3726 C 0.54004 0.76477 0.60718 0.0
C3727 C 0.54579 0.79194 0.68307 0.0
H3728 H 0.56789 0.7117 0.66764 0.0
H3729 H 0.61414 0.7568 0.64662 0.0
H3730 H 0.5232 0.73723 0.6463 0.0
H3731 H 0.53133 0.71848 0.66634 0.0
H3732 H 0.52528 0.74562 0.6733 0.0
H3733 H 0.60503 0.79114 0.63535 0.0
H3734 H 0.57987 0.7922 0.62178 0.0
H3735 H 0.58195 0.80188 0.64836 0.0
H3736 H 0.5093 0.7943 0.60558 0.0
H3737 H 0.51546 0.81858 0.66912 0.0
H3738 H 0.5322 0.76864 0.59187 0.0
H3739 H 0.53635 0.74811 0.61146 0.0
H3740 H 0.55743 0.76575 0.60491 0.0
H3741 H 0.54394 0.77591 0.69012 0.0
H3742 H 0.53857 0.80378 0.69396 0.0
H3743 H 0.56303 0.79514 0.68192 0.0
C3744 C 0.952 0.70369 0.40558 0.0
C3745 C 0.93086 0.70962 0.38933 0.0
C3746 C 0.97662 0.71606 0.4029 0.0
C3747 C 0.97449 0.74376 0.37115 0.0
C3748 C 0.95008 0.74312 0.3598 0.0
C3749 C 0.9308 0.72724 0.36877 0.0
C3750 C 0.99222 0.70956 0.4206 0.0
C3751 C 0.94514 0.75709 0.34126 0.0
C3752 C 0.99935 0.81016 0.37701 0.0
C3753 C 0.01982 0.81006 0.35803 0.0
C3754 C 0.98268 0.78796 0.38036 0.0
C3755 C 0.98728 0.76392 0.36517 0.0
C3756 C 0.00855 0.76333 0.34619 0.0
C3757 C 0.02438 0.78648 0.34201 0.0
C3758 C 0.96096 0.79382 0.38832 0.0
C3759 C 0.01134 0.74482 0.33166 0.0
H3760 H 0.94983 0.69208 0.41803 0.0
H3761 H 0.91652 0.72819 0.35936 0.0
H3762 H 0.99348 0.72221 0.43273 0.0
H3763 H 0.98612 0.69536 0.42899 0.0
H3764 H 0.00824 0.70526 0.41493 0.0
H3765 H 0.92939 0.75333 0.3344 0.0
H3766 H 0.94517 0.77391 0.34645 0.0
H3767 H 0.95745 0.75493 0.32891 0.0
H3768 H 0.99605 0.82457 0.38576 0.0
H3769 H 0.03683 0.78634 0.33021 0.0
H3770 H 0.96208 0.80117 0.40424 0.0
H3771 H 0.94958 0.78056 0.38769 0.0
H3772 H 0.95433 0.80653 0.3781 0.0
H3773 H 0.02565 0.73572 0.33623 0.0
H3774 H 0.01387 0.75068 0.31525 0.0
H3775 H 0.99725 0.73436 0.33206 0.0
C3776 C 0.50665 0.20015 0.88953 0.0
C3777 C 0.50151 0.18559 0.87339 0.0
C3778 C 0.52259 0.21561 0.88675 0.0
C3779 C 0.53391 0.21671 0.86736 0.0
C3780 C 0.52855 0.20234 0.85085 0.0
C3781 C 0.51247 0.18708 0.85402 0.0
C3782 C 0.52745 0.23072 0.9047 0.0
C3783 C 0.54019 0.20274 0.82996 0.0
C3784 C 0.56431 0.26758 0.85337 0.0
C3785 C 0.58509 0.26263 0.85974 0.0
C3786 C 0.54757 0.25297 0.85587 0.0
C3787 C 0.55161 0.23256 0.86456 0.0
C3788 C 0.57262 0.22743 0.87086 0.0
C3789 C 0.58898 0.24253 0.8686 0.0
C3790 C 0.52552 0.25943 0.8492 0.0
C3791 C 0.57785 0.20588 0.87997 0.0
H3792 H 0.49814 0.19953 0.90444 0.0
H3793 H 0.50896 0.17585 0.84147 0.0
H3794 H 0.52553 0.24734 0.89919 0.0
H3795 H 0.54417 0.22879 0.9098 0.0
H3796 H 0.51707 0.22811 0.91867 0.0
H3797 H 0.53414 0.19065 0.81864 0.0
H3798 H 0.53868 0.21864 0.82254 0.0
H3799 H 0.55733 0.19981 0.83269 0.0
H3800 H 0.56103 0.28315 0.84678 0.0
H3801 H 0.60496 0.2385 0.87351 0.0
H3802 H 0.51401 0.25565 0.86191 0.0
H3803 H 0.52079 0.25031 0.83491 0.0
H3804 H 0.52439 0.27663 0.84548 0.0
H3805 H 0.5687 0.20324 0.89476 0.0
H3806 H 0.59498 0.20411 0.88363 0.0
H3807 H 0.57318 0.19328 0.86858 0.0
C3808 C 0.85105 0.05608 0.75466 0.0
C3809 C 0.8668 0.0604 0.73945 0.0
C3810 C 0.85515 0.04354 0.77271 0.0
C3811 C 0.87521 0.03367 0.77528 0.0
C3812 C 0.89129 0.038 0.76008 0.0
C3813 C 0.88695 0.0514 0.74265 0.0
C3814 C 0.83768 0.0415 0.78896 0.0
C3815 C 0.91348 0.02922 0.76199 0.0
C3816 C 0.89614 0.00749 0.82617 0.0
C3817 C 0.88894 0.98642 0.824 0.0
C3818 C 0.89116 0.02324 0.811 0.0
C3819 C 0.87891 0.01791 0.79291 0.0
C3820 C 0.8704 0.99716 0.79143 0.0
C3821 C 0.87549 0.9818 0.80682 0.0
C3822 C 0.89918 0.04553 0.81437 0.0
C3823 C 0.85639 0.99093 0.77313 0.0
H3824 H 0.83523 0.06243 0.75266 0.0
H3825 H 0.89968 0.05498 0.73173 0.0
H3826 H 0.84262 0.03321 0.80369 0.0
H3827 H 0.83184 0.05755 0.79335 0.0
H3828 H 0.82406 0.03295 0.7818 0.0
H3829 H 0.92427 0.04219 0.76702 0.0
H3830 H 0.91495 0.01604 0.77353 0.0
H3831 H 0.91916 0.02365 0.74625 0.0
H3832 H 0.90565 0.01187 0.8398 0.0
H3833 H 0.86936 0.96591 0.80483 0.0
H3834 H 0.88724 0.05743 0.80921 0.0
H3835 H 0.91371 0.04793 0.80481 0.0
H3836 H 0.90323 0.0485 0.83129 0.0
H3837 H 0.86438 0.99523 0.75813 0.0
H3838 H 0.84124 0.99978 0.77383 0.0
H3839 H 0.85255 0.97375 0.77303 0.0
C3840 C 0.68381 0.13442 0.49307 0.0
C3841 C 0.66515 0.12377 0.49872 0.0
C3842 C 0.7006 0.13685 0.50768 0.0
C3843 C 0.69846 0.12908 0.52872 0.0
C3844 C 0.67924 0.11908 0.5347 0.0
C3845 C 0.66303 0.11618 0.51954 0.0
C3846 C 0.72088 0.14721 0.50043 0.0
C3847 C 0.67584 0.11127 0.55708 0.0
C3848 C 0.74801 0.11554 0.56125 0.0
C3849 C 0.75096 0.13401 0.57338 0.0
C3850 C 0.73114 0.11381 0.54663 0.0
C3851 C 0.71653 0.1308 0.54423 0.0
C3852 C 0.71928 0.14937 0.55665 0.0
C3853 C 0.73651 0.15083 0.57085 0.0
C3854 C 0.72894 0.09376 0.53372 0.0
C3855 C 0.70376 0.16757 0.55524 0.0
H3856 H 0.68559 0.14021 0.47697 0.0
H3857 H 0.64862 0.10798 0.52396 0.0
H3858 H 0.72393 0.16175 0.50985 0.0
H3859 H 0.73442 0.1363 0.50319 0.0
H3860 H 0.72041 0.15159 0.48336 0.0
H3861 H 0.65935 0.10574 0.55973 0.0
H3862 H 0.6868 0.09792 0.56052 0.0
H3863 H 0.67942 0.1241 0.56862 0.0
H3864 H 0.75915 0.10253 0.56292 0.0
H3865 H 0.73845 0.16504 0.58035 0.0
H3866 H 0.7427 0.08294 0.53576 0.0
H3867 H 0.72717 0.0977 0.51663 0.0
H3868 H 0.71444 0.08515 0.53858 0.0
H3869 H 0.70352 0.17409 0.53889 0.0
H3870 H 0.70768 0.18061 0.56644 0.0
H3871 H 0.68752 0.16183 0.55876 0.0
C3872 C 0.62015 0.95149 0.24071 0.0
C3873 C 0.64455 0.9391 0.23234 0.0
C3874 C 0.62058 0.97408 0.25843 0.0
C3875 C 0.64597 0.98483 0.26736 0.0
C3876 C 0.66996 0.97319 0.25738 0.0
C3877 C 0.6691 0.95086 0.2402 0.0
C3878 C 0.6003 0.98139 0.26804 0.0
C3879 C 0.69117 0.97801 0.26688 0.0
C3880 C 0.62632 0.03195 0.30344 0.0
C3881 C 0.62898 0.02243 0.32282 0.0
C3882 C 0.63875 0.02587 0.28306 0.0
C3883 C 0.64644 1.00101 0.28544 0.0
C3884 C 0.64931 0.99331 0.30684 0.0
C3885 C 0.64176 0.00461 0.32466 0.0
C3886 C 0.64709 0.0554 0.24807 0.0
C3887 C 0.6601 0.97264 0.31235 0.0
H3888 H 0.60515 0.94475 0.2359 0.0
H3889 H 0.6839 0.94387 0.2351 0.0
H3890 H 0.60264 0.99602 0.2775 0.0
H3891 H 0.58834 0.98387 0.25536 0.0
H3892 H 0.59423 0.9687 0.2786 0.0
H3893 H 0.7028 0.98113 0.2541 0.0
H3894 H 0.6903 0.99132 0.27836 0.0
H3895 H 0.69711 0.96365 0.27519 0.0
H3896 H 0.6335 0.03033 0.29039 0.0
H3897 H 0.64433 0.99821 0.34046 0.0
H3898 H 0.63425 0.065 0.23997 0.0
H3899 H 0.65503 0.05054 0.23288 0.0
H3900 H 0.65765 0.06978 0.24998 0.0
H3901 H 0.64803 0.96093 0.3175 0.0
H3902 H 0.671 0.9749 0.32605 0.0
H3903 H 0.6695 0.96587 0.29948 0.0
C3904 C 0.80858 0.88228 0.97461 0.0
C3905 C 0.82788 0.87162 0.97766 0.0
C3906 C 0.79201 0.88079 0.98943 0.0
C3907 C 0.79474 0.86862 0.00816 0.0
C3908 C 0.81418 0.85764 0.01128 0.0
C3909 C 0.83039 0.85905 0.99589 0.0
C3910 C 0.77156 0.89236 0.985 0.0
C3911 C 0.81813 0.845 0.03125 0.0
C3912 C 0.75959 0.884 0.05526 0.0
C3913 C 0.74463 0.86741 0.05601 0.0
C3914 C 0.77617 0.88423 0.04028 0.0
C3915 C 0.77756 0.86803 0.02473 0.0
C3916 C 0.76227 0.85159 0.02483 0.0
C3917 C 0.74643 0.85119 0.04064 0.0
C3918 C 0.79227 0.90191 0.04112 0.0
C3919 C 0.76243 0.83455 0.00798 0.0
H3920 H 0.80639 0.89192 0.96058 0.0
H3921 H 0.84534 0.85095 0.99848 0.0
H3922 H 0.75851 0.8807 0.9839 0.0
H3923 H 0.76779 0.90337 0.99818 0.0
H3924 H 0.77214 0.90162 0.97 0.0
H3925 H 0.83399 0.83732 0.03131 0.0
H3926 H 0.81693 0.85558 0.04529 0.0
H3927 H 0.80588 0.83254 0.03303 0.0
H3928 H 0.75841 0.8971 0.06629 0.0
H3929 H 0.73555 0.83796 0.04084 0.0
H3930 H 0.7911 0.91177 0.02658 0.0
H3931 H 0.80853 0.8952 0.04166 0.0
H3932 H 0.79004 0.91238 0.05514 0.0
H3933 H 0.74904 0.82327 0.00971 0.0
H3934 H 0.7775 0.8255 0.0087 0.0
H3935 H 0.76149 0.84194 0.992 0.0
C3936 C 0.87516 0.00406 0.69628 0.0
C3937 C 0.89501 0.00425 0.68635 0.0
C3938 C 0.86923 0.98749 0.71003 0.0
C3939 C 0.88372 0.97066 0.71437 0.0
C3940 C 0.90321 0.97009 0.70316 0.0
C3941 C 0.90868 0.98695 0.68959 0.0
C3942 C 0.84721 0.98851 0.71929 0.0
C3943 C 0.91858 0.9518 0.70512 0.0
C3944 C 0.88483 0.94254 0.7682 0.0
C3945 C 0.86881 0.92725 0.766 0.0
C3946 C 0.89005 0.95642 0.75151 0.0
C3947 C 0.8794 0.9548 0.73169 0.0
C3948 C 0.86467 0.93811 0.7287 0.0
C3949 C 0.85931 0.92484 0.7459 0.0
C3950 C 0.90673 0.97308 0.75549 0.0
C3951 C 0.85433 0.93428 0.70743 0.0
H3952 H 0.86428 0.01715 0.69368 0.0
H3953 H 0.92374 0.98643 0.68136 0.0
H3954 H 0.84405 0.97632 0.73153 0.0
H3955 H 0.84431 0.00448 0.7262 0.0
H3956 H 0.8355 0.98644 0.70629 0.0
H3957 H 0.93257 0.95695 0.71446 0.0
H3958 H 0.91157 0.93756 0.7127 0.0
H3959 H 0.92448 0.9472 0.68915 0.0
H3960 H 0.8928 0.94442 0.78331 0.0
H3961 H 0.84772 0.91243 0.74343 0.0
H3962 H 0.90873 0.9764 0.77269 0.0
H3963 H 0.90281 0.9881 0.74721 0.0
H3964 H 0.92217 0.9673 0.74943 0.0
H3965 H 0.84048 0.94499 0.70566 0.0
H3966 H 0.84858 0.91768 0.70595 0.0
H3967 H 0.86548 0.93756 0.69421 0.0
C3968 C 0.81981 0.13169 0.53312 0.0
C3969 C 0.83747 0.11915 0.52795 0.0
C3970 C 0.8031 0.13469 0.51852 0.0
C3971 C 0.80435 0.12554 0.49797 0.0
C3972 C 0.82249 0.1134 0.49251 0.0
C3973 C 0.83861 0.11008 0.50765 0.0
C3974 C 0.78384 0.14722 0.52525 0.0
C3975 C 0.82487 0.10387 0.47065 0.0
C3976 C 0.75362 0.11627 0.46591 0.0
C3977 C 0.75298 0.1342 0.45264 0.0
C3978 C 0.77015 0.11332 0.48073 0.0
C3979 C 0.78665 0.12849 0.48227 0.0
C3980 C 0.78624 0.14646 0.46874 0.0
C3981 C 0.76944 0.14913 0.45422 0.0
C3982 C 0.76992 0.09399 0.49486 0.0
C3983 C 0.80371 0.16278 0.46942 0.0
H3984 H 0.81876 0.13863 0.54884 0.0
H3985 H 0.85227 0.10045 0.50358 0.0
H3986 H 0.78118 0.16073 0.51427 0.0
H3987 H 0.76959 0.13698 0.52441 0.0
H3988 H 0.78535 0.15349 0.54165 0.0
H3989 H 0.84037 0.09577 0.46856 0.0
H3990 H 0.81206 0.0922 0.46774 0.0
H3991 H 0.82333 0.11645 0.4584 0.0
H3992 H 0.74093 0.10475 0.46505 0.0
H3993 H 0.76941 0.16282 0.4438 0.0
H3994 H 0.75557 0.08411 0.4924 0.0
H3995 H 0.77072 0.09893 0.51176 0.0
H3996 H 0.78407 0.08404 0.49172 0.0
H3997 H 0.80455 0.17004 0.48545 0.0
H3998 H 0.80135 0.17562 0.45755 0.0
H3999 H 0.81921 0.15503 0.46639 0.0
C4000 C 0.62467 0.99699 0.19321 0.0
C4001 C 0.63379 0.97721 0.19169 0.0
C4002 C 0.62945 0.01079 0.20971 0.0
C4003 C 0.63723 0.00288 0.22973 0.0
C4004 C 0.64445 0.97741 0.23095 0.0
C4005 C 0.64719 0.96995 0.20756 0.0
C4006 C 0.62717 0.03409 0.20389 0.0
C4007 C 0.64489 0.94849 0.26762 0.0
C4008 C 0.66863 0.04614 0.27645 0.0
C4009 C 0.64677 0.06257 0.2841 0.0
C4010 C 0.66549 0.02547 0.25745 0.0
C4011 C 0.63939 0.01971 0.24673 0.0
C4012 C 0.61701 0.03567 0.2551 0.0
C4013 C 0.62077 0.05762 0.273 0.0
C4014 C 0.6847 0.02033 0.2445 0.0
C4015 C 0.59498 0.03104 0.24775 0.0
H4016 H 0.61531 0.00249 0.17981 0.0
H4017 H 0.64614 0.97237 0.22255 0.0
H4018 H 0.61848 0.04351 0.21561 0.0
H4019 H 0.64317 0.04092 0.20168 0.0
H4020 H 0.6187 0.03659 0.1886 0.0
H4021 H 0.66002 0.94192 0.27467 0.0
H4022 H 0.63717 0.9526 0.28322 0.0
H4023 H 0.63724 0.93224 0.26737 0.0
H4024 H 0.68437 0.04954 0.28229 0.0
H4025 H 0.60736 0.06721 0.27773 0.0
H4026 H 0.68814 0.03401 0.23399 0.0
H4027 H 0.68208 0.00649 0.23399 0.0
H4028 H 0.69882 0.01867 0.25484 0.0
H4029 H 0.58837 0.04532 0.23981 0.0
H4030 H 0.58487 0.02784 0.26176 0.0
H4031 H 0.59458 0.01732 0.23677 0.0
C4032 C 0.68134 0.89652 0.01733 0.0
C4033 C 0.66012 0.89469 0.01093 0.0
C4034 C 0.69807 0.8925 0.00318 0.0
C4035 C 0.69361 0.88654 0.98194 0.0
C4036 C 0.67218 0.8845 0.9754 0.0
C4037 C 0.65571 0.88846 0.98999 0.0
C4038 C 0.72052 0.89464 0.01103 0.0
C4039 C 0.66665 0.87842 0.9529 0.0
C4040 C 0.7368 0.89545 0.94038 0.0
C4041 C 0.74494 0.87485 0.93727 0.0
C4042 C 0.72002 0.8994 0.95459 0.0
C4043 C 0.71133 0.88251 0.96658 0.0
C4044 C 0.7196 0.86178 0.96388 0.0
C4045 C 0.73592 0.85815 0.94908 0.0
C4046 C 0.71163 0.92175 0.9568 0.0
C4047 C 0.7113 0.84339 0.97678 0.0
H4048 H 0.6849 0.90091 0.0336 0.0
H4049 H 0.63936 0.88707 0.9849 0.0
H4050 H 0.72918 0.87959 0.00832 0.0
H4051 H 0.72874 0.90726 0.00199 0.0
H4052 H 0.72133 0.89863 0.02819 0.0
H4053 H 0.64926 0.87766 0.95024 0.0
H4054 H 0.67352 0.89012 0.94168 0.0
H4055 H 0.67363 0.86272 0.94903 0.0
H4056 H 0.74372 0.90872 0.93199 0.0
H4057 H 0.74143 0.84205 0.94675 0.0
H4058 H 0.71422 0.9275 0.97324 0.0
H4059 H 0.6943 0.92199 0.95383 0.0
H4060 H 0.71936 0.93297 0.94565 0.0
H4061 H 0.69418 0.84108 0.97353 0.0
H4062 H 0.71979 0.82833 0.97329 0.0
H4063 H 0.71297 0.84689 0.99398 0.0
C4064 C 0.99669 0.79243 0.8514 0.0
C4065 C 0.99867 0.8092 0.86599 0.0
C4066 C 0.01296 0.77723 0.84889 0.0
C4067 C 0.03185 0.77893 0.86101 0.0
C4068 C 0.03394 0.79578 0.87571 0.0
C4069 C 0.01731 0.81041 0.87823 0.0
C4070 C 0.01001 0.75944 0.83313 0.0
C4071 C 0.05389 0.79851 0.8887 0.0
C4072 C 0.06753 0.73063 0.8699 0.0
C4073 C 0.08306 0.73336 0.85421 0.0
C4074 C 0.05066 0.74515 0.87205 0.0
C4075 C 0.04942 0.76307 0.85848 0.0
C4076 C 0.06527 0.76608 0.84287 0.0
C4077 C 0.08172 0.75111 0.84078 0.0
C4078 C 0.034 0.74125 0.88872 0.0
C4079 C 0.06504 0.78531 0.82856 0.0
H4080 H 0.98252 0.79125 0.84174 0.0
H4081 H 0.01894 0.8228 0.89004 0.0
H4082 H 0.01399 0.74396 0.84056 0.0
H4083 H 0.99356 0.75876 0.82688 0.0
H4084 H 0.02094 0.76169 0.81956 0.0
H4085 H 0.05347 0.81304 0.89868 0.0
H4086 H 0.05622 0.78458 0.89922 0.0
H4087 H 0.06787 0.79939 0.87807 0.0
H4088 H 0.06832 0.71686 0.88021 0.0
H4089 H 0.09379 0.75345 0.82878 0.0
H4090 H 0.01811 0.7411 0.88121 0.0
H4091 H 0.03403 0.7543 0.90052 0.0
H4092 H 0.03653 0.72605 0.89721 0.0
H4093 H 0.05024 0.78561 0.81905 0.0
H4094 H 0.07875 0.78558 0.81753 0.0
H4095 H 0.06529 0.8 0.83828 0.0
C4096 C 0.50052 0.70314 0.13331 0.0
C4097 C 0.49678 0.69227 0.11422 0.0
C4098 C 0.51677 0.71838 0.135 0.0
C4099 C 0.53004 0.72256 0.11732 0.0
C4100 C 0.52639 0.71153 0.09804 0.0
C4101 C 0.50969 0.69676 0.09665 0.0
C4102 C 0.51989 0.72963 0.15592 0.0
C4103 C 0.54052 0.71487 0.07903 0.0
C4104 C 0.56177 0.77427 0.11587 0.0
C4105 C 0.58111 0.76798 0.1248 0.0
C4106 C 0.54512 0.75968 0.11317 0.0
C4107 C 0.54797 0.73812 0.11915 0.0
C4108 C 0.56782 0.73163 0.12755 0.0
C4109 C 0.58402 0.7467 0.13059 0.0
C4110 C 0.52414 0.76757 0.10488 0.0
C4111 C 0.57191 0.70879 0.13355 0.0
H4112 H 0.49057 0.69987 0.14693 0.0
H4113 H 0.5071 0.68824 0.08193 0.0
H4114 H 0.52434 0.74648 0.15352 0.0
H4115 H 0.50541 0.72897 0.1659 0.0
H4116 H 0.53294 0.72183 0.16481 0.0
H4117 H 0.53575 0.70493 0.06527 0.0
H4118 H 0.54018 0.73177 0.07413 0.0
H4119 H 0.55715 0.71097 0.0833 0.0
H4120 H 0.55943 0.79081 0.11169 0.0
H4121 H 0.599 0.74186 0.13753 0.0
H4122 H 0.51213 0.7657 0.11751 0.0
H4123 H 0.51891 0.75796 0.09111 0.0
H4124 H 0.52468 0.78454 0.10009 0.0
H4125 H 0.56202 0.70445 0.14741 0.0
H4126 H 0.58878 0.70588 0.13767 0.0
H4127 H 0.5674 0.69811 0.12027 0.0
C4128 C 0.01616 0.30478 0.64335 0.0
C4129 C 0.02486 0.31133 0.6169 0.0
C4130 C 0.99898 0.28278 0.64751 0.0
C4131 C 0.98887 0.26743 0.62527 0.0
C4132 C 0.99748 0.27462 0.59854 0.0
C4133 C 0.01594 0.29601 0.59488 0.0
C4134 C 0.98828 0.28269 0.6687 0.0
C4135 C 0.98561 0.26832 0.57895 0.0
C4136 C 0.95223 0.22196 0.64646 0.0
C4137 C 0.93488 0.22267 0.63271 0.0
C4138 C 0.96926 0.23646 0.64491 0.0
C4139 C 0.96954 0.25259 0.62865 0.0
C4140 C 0.95036 0.25422 0.61617 0.0
C4141 C 0.93435 0.23865 0.61753 0.0
C4142 C 0.98543 0.23454 0.66243 0.0
C4143 C 0.94363 0.27335 0.60348 0.0
H4144 H 0.02058 0.31478 0.65659 0.0
H4145 H 0.01998 0.30096 0.57896 0.0
H4146 H 0.97208 0.27605 0.66754 0.0
H4147 H 0.99804 0.2737 0.68028 0.0
H4148 H 0.98709 0.29917 0.67481 0.0
H4149 H 0.97456 0.28126 0.57454 0.0
H4150 H 0.99644 0.26768 0.56518 0.0
H4151 H 0.97661 0.25345 0.5812 0.0
H4152 H 0.95241 0.21 0.65886 0.0
H4153 H 0.92026 0.24013 0.60772 0.0
H4154 H 0.97842 0.24064 0.67738 0.0
H4155 H 1.00017 0.24308 0.6591 0.0
H4156 H 0.98912 0.21768 0.66591 0.0
H4157 H 0.92834 0.27946 0.60975 0.0
H4158 H 0.94053 0.26868 0.58676 0.0
H4159 H 0.95462 0.28655 0.6039 0.0
C4160 C 0.9959 0.70073 0.88183 0.0
C4161 C 1.00331 0.69339 0.90152 0.0
C4162 C 0.97972 0.71614 0.88048 0.0
C4163 C 0.97001 0.7239 0.89926 0.0
C4164 C 0.97718 0.71618 0.9192 0.0
C4165 C 0.994 0.70137 0.9201 0.0
C4166 C 0.97317 0.72431 0.85893 0.0
C4167 C 0.96667 0.72307 0.93956 0.0
C4168 C 0.93901 0.77631 0.89669 0.0
C4169 C 0.91864 0.76941 0.89099 0.0
C4170 C 0.95586 0.76178 0.89948 0.0
C4171 C 0.95205 0.73963 0.89783 0.0
C4172 C 0.93111 0.73256 0.89372 0.0
C4173 C 0.91485 0.74746 0.8899 0.0
C4174 C 0.97793 0.77022 0.90308 0.0
C4175 C 0.9259 0.70919 0.89299 0.0
H4176 H 1.00317 0.69475 0.86743 0.0
H4177 H 0.99952 0.69557 0.93534 0.0
H4178 H 0.97356 0.74193 0.85879 0.0
H4179 H 0.98354 0.71822 0.84606 0.0
H4180 H 0.95666 0.71946 0.85542 0.0
H4181 H 0.97371 0.71523 0.95372 0.0
H4182 H 0.96802 0.7405 0.94154 0.0
H4183 H 0.94952 0.71925 0.93893 0.0
H4184 H 0.942 0.79316 0.89806 0.0
H4185 H 0.89907 0.74191 0.88602 0.0
H4186 H 0.97817 0.78776 0.90491 0.0
H4187 H 0.98808 0.76582 0.88941 0.0
H4188 H 0.98513 0.76295 0.91741 0.0
H4189 H 0.93304 0.70192 0.87866 0.0
H4190 H 0.90855 0.70632 0.89257 0.0
H4191 H 0.93269 0.70095 0.90703 0.0
C4192 C 0.45864 0.30235 0.3402 0.0
C4193 C 0.44652 0.29216 0.36174 0.0
C4194 C 0.48583 0.29728 0.33456 0.0
C4195 C 0.50187 0.27159 0.36593 0.0
C4196 C 0.48219 0.26778 0.38457 0.0
C4197 C 0.45711 0.27694 0.38132 0.0
C4198 C 0.49501 0.30556 0.31101 0.0
C4199 C 0.48742 0.25769 0.40554 0.0
C4200 C 0.50856 0.20763 0.37491 0.0
C4201 C 0.52897 0.20446 0.38187 0.0
C4202 C 0.50029 0.22763 0.36861 0.0
C4203 C 0.51384 0.24688 0.36611 0.0
C4204 C 0.53957 0.23905 0.36438 0.0
C4205 C 0.54341 0.22023 0.37925 0.0
C4206 C 0.4767 0.22525 0.36308 0.0
C4207 C 0.57277 0.25802 0.33768 0.0
H4208 H 0.47294 0.30081 0.3355 0.0
H4209 H 0.44631 0.2728 0.39397 0.0
H4210 H 0.50423 0.29404 0.30145 0.0
H4211 H 0.48123 0.31002 0.30097 0.0
H4212 H 0.50402 0.32051 0.31301 0.0
H4213 H 0.47921 0.24222 0.40701 0.0
H4214 H 0.50475 0.25546 0.4075 0.0
H4215 H 0.48142 0.26795 0.41853 0.0
H4216 H 0.49838 0.1938 0.37583 0.0
H4217 H 0.54293 0.23195 0.36937 0.0
H4218 H 0.47014 0.20923 0.36642 0.0
H4219 H 0.47404 0.22693 0.34593 0.0
H4220 H 0.46582 0.23537 0.37208 0.0
H4221 H 0.57715 0.25142 0.32157 0.0
H4222 H 0.58991 0.25963 0.34275 0.0
H4223 H 0.57164 0.27494 0.33181 0.0
C4224 C 0.99228 0.20504 0.59688 0.0
C4225 C 0.99226 0.19365 0.61595 0.0
C4226 C 0.00542 0.22279 0.59404 0.0
C4227 C 0.01608 0.23188 0.61189 0.0
C4228 C 0.01855 0.21855 0.63 0.0
C4229 C 0.00658 0.19973 0.63182 0.0
C4230 C 0.01087 0.22812 0.57132 0.0
C4231 C 0.0353 0.22293 0.64666 0.0
C4232 C 0.06723 0.26167 0.60728 0.0
C4233 C 0.06623 0.27579 0.62416 0.0
C4234 C 0.05068 0.24777 0.60256 0.0
C4235 C 0.02961 0.25167 0.61015 0.0
C4236 C 0.02527 0.2742 0.62296 0.0
C4237 C 0.04678 0.27986 0.63403 0.0
C4238 C 0.05718 0.22796 0.59038 0.0
C4239 C 0.98921 0.30353 0.61888 0.0
H4240 H 0.98344 0.19893 0.58343 0.0
H4241 H 0.00818 0.19001 0.64593 0.0
H4242 H 0.99636 0.22907 0.56136 0.0
H4243 H 0.02043 0.24272 0.56969 0.0
H4244 H 0.02026 0.21483 0.56455 0.0
H4245 H 0.05107 0.21884 0.64006 0.0
H4246 H 0.03571 0.23992 0.65114 0.0
H4247 H 0.03284 0.21333 0.66124 0.0
H4248 H 0.08253 0.25902 0.59988 0.0
H4249 H 0.03283 0.27846 0.62832 0.0
H4250 H 0.05606 0.23118 0.5731 0.0
H4251 H 0.04765 0.21374 0.5942 0.0
H4252 H 0.07397 0.22365 0.59362 0.0
H4253 H 0.98177 0.30759 0.60306 0.0
H4254 H 0.98991 0.32086 0.62366 0.0
H4255 H 0.97389 0.30118 0.62781 0.0
C4256 C 0.41968 0.76544 0.14742 0.0
C4257 C 0.42054 0.7456 0.13742 0.0
C4258 C 0.43477 0.78125 0.14295 0.0
C4259 C 0.45152 0.77694 0.12856 0.0
C4260 C 0.4522 0.75689 0.11823 0.0
C4261 C 0.43668 0.74152 0.12277 0.0
C4262 C 0.4328 0.80258 0.1537 0.0
C4263 C 0.46968 0.75096 0.10303 0.0
C4264 C 0.48228 0.82364 0.1051 0.0
C4265 C 0.49956 0.82541 0.1191 0.0
C4266 C 0.4667 0.80788 0.10786 0.0
C4267 C 0.46842 0.79329 0.1249 0.0
C4268 C 0.48598 0.79478 0.13888 0.0
C4269 C 0.50122 0.81084 0.1359 0.0
C4270 C 0.44822 0.80699 0.09267 0.0
C4271 C 0.48877 0.77931 0.15697 0.0
H4272 H 0.40716 0.76855 0.15876 0.0
H4273 H 0.43749 0.72605 0.11525 0.0
H4274 H 0.44654 0.80518 0.16438 0.0
H4275 H 0.43294 0.81545 0.14166 0.0
H4276 H 0.41805 0.80394 0.16321 0.0
H4277 H 0.46389 0.73969 0.09077 0.0
H4278 H 0.4766 0.76496 0.09497 0.0
H4279 H 0.48238 0.74278 0.11206 0.0
H4280 H 0.48066 0.83491 0.09221 0.0
H4281 H 0.51465 0.81178 0.14661 0.0
H4282 H 0.43313 0.80861 0.10156 0.0
H4283 H 0.44793 0.79135 0.08457 0.0
H4284 H 0.44893 0.81967 0.08042 0.0
H4285 H 0.47674 0.78254 0.16937 0.0
H4286 H 0.50473 0.78046 0.16433 0.0
H4287 H 0.48627 0.76282 0.15132 0.0
C4288 C 0.61322 0.44834 0.76598 0.0
C4289 C 0.63292 0.43798 0.76686 0.0
C4290 C 0.60813 0.46261 0.74939 0.0
C4291 C 0.62305 0.46675 0.73296 0.0
C4292 C 0.6425 0.45532 0.7332 0.0
C4293 C 0.64726 0.44144 0.75017 0.0
C4294 C 0.58639 0.4726 0.74949 0.0
C4295 C 0.65864 0.45738 0.71567 0.0
C4296 C 0.60143 0.49635 0.68387 0.0
C4297 C 0.60944 0.51696 0.68684 0.0
C4298 C 0.60593 0.4798 0.69842 0.0
C4299 C 0.61887 0.48378 0.71644 0.0
C4300 C 0.62783 0.50431 0.71879 0.0
C4301 C 0.62268 0.52068 0.70434 0.0
C4302 C 0.59702 0.458 0.69427 0.0
C4303 C 0.64324 0.50887 0.73642 0.0
H4304 H 0.60185 0.44564 0.77856 0.0
H4305 H 0.66231 0.43313 0.75024 0.0
H4306 H 0.58078 0.47527 0.76598 0.0
H4307 H 0.58576 0.48781 0.74067 0.0
H4308 H 0.57506 0.46147 0.74193 0.0
H4309 H 0.6644 0.4414 0.71092 0.0
H4310 H 0.65242 0.46553 0.70134 0.0
H4311 H 0.67259 0.46624 0.7217 0.0
H4312 H 0.59143 0.49321 0.67023 0.0
H4313 H 0.62946 0.53635 0.70647 0.0
H4314 H 0.58341 0.45518 0.705 0.0
H4315 H 0.60909 0.44557 0.69751 0.0
H4316 H 0.59137 0.45626 0.67765 0.0
H4317 H 0.64818 0.52575 0.73682 0.0
H4318 H 0.65769 0.49909 0.7344 0.0
H4319 H 0.63599 0.50437 0.75173 0.0
C4320 C 0.83305 0.38831 0.99943 0.0
C4321 C 0.83088 0.37983 0.01997 0.0
C4322 C 0.81675 0.38651 0.98415 0.0
C4323 C 0.79748 0.37623 0.98945 0.0
C4324 C 0.79538 0.36733 0.01007 0.0
C4325 C 0.81201 0.36922 0.02498 0.0
C4326 C 0.82018 0.39557 0.96225 0.0
C4327 C 0.77537 0.35635 0.01695 0.0
C4328 C 0.74787 0.3897 0.9565 0.0
C4329 C 0.74577 0.37177 0.94336 0.0
C4330 C 0.76446 0.39131 0.97156 0.0
C4331 C 0.77968 0.37479 0.97344 0.0
C4332 C 0.77777 0.35679 0.96007 0.0
C4333 C 0.76093 0.35547 0.94536 0.0
C4334 C 0.76547 0.41053 0.9858 0.0
C4335 C 0.7935 0.33877 0.96144 0.0
H4336 H 0.84764 0.39633 0.99525 0.0
H4337 H 0.80996 0.36286 0.04085 0.0
H4338 H 0.81793 0.38299 0.95012 0.0
H4339 H 0.8083 0.40816 0.959 0.0
H4340 H 0.83627 0.40243 0.96034 0.0
H4341 H 0.77904 0.34372 0.02869 0.0
H4342 H 0.76485 0.36816 0.02468 0.0
H4343 H 0.76663 0.34909 0.00352 0.0
H4344 H 0.73624 0.40232 0.95536 0.0
H4345 H 0.75985 0.34168 0.93514 0.0
H4346 H 0.76494 0.40546 0.00267 0.0
H4347 H 0.75224 0.4218 0.98281 0.0
H4348 H 0.78067 0.41899 0.9834 0.0
H4349 H 0.79041 0.32624 0.94942 0.0
H4350 H 0.79281 0.33148 0.97747 0.0
H4351 H 0.80982 0.34486 0.95918 0.0
C4352 C 0.84582 0.57004 0.23781 0.0
C4353 C 0.85446 0.56958 0.25832 0.0
C4354 C 0.85145 0.55457 0.2226 0.0
C4355 C 0.86626 0.53847 0.22799 0.0
C4356 C 0.87523 0.53837 0.24864 0.0
C4357 C 0.86908 0.55373 0.2636 0.0
C4358 C 0.84141 0.55529 0.20088 0.0
C4359 C 0.89101 0.52167 0.25509 0.0
C4360 C 0.86766 0.48605 0.19709 0.0
C4361 C 0.88585 0.48843 0.1845 0.0
C4362 C 0.86074 0.50231 0.21083 0.0
C4363 C 0.87235 0.52155 0.21228 0.0
C4364 C 0.89049 0.52422 0.19933 0.0
C4365 C 0.89696 0.50774 0.18566 0.0
C4366 C 0.8406 0.49878 0.22317 0.0
C4367 C 0.90306 0.54458 0.19982 0.0
H4368 H 0.83448 0.58235 0.23378 0.0
H4369 H 0.87575 0.55341 0.27948 0.0
H4370 H 0.85385 0.55531 0.18844 0.0
H4371 H 0.83165 0.54085 0.19846 0.0
H4372 H 0.83118 0.56949 0.19871 0.0
H4373 H 0.90496 0.52206 0.24442 0.0
H4374 H 0.89657 0.5236 0.27172 0.0
H4375 H 0.88346 0.50594 0.25329 0.0
H4376 H 0.85885 0.4713 0.19648 0.0
H4377 H 0.91067 0.51017 0.17564 0.0
H4378 H 0.83971 0.50859 0.23773 0.0
H4379 H 0.83886 0.48178 0.22756 0.0
H4380 H 0.82692 0.50303 0.21292 0.0
H4381 H 0.91622 0.54457 0.18814 0.0
H4382 H 0.90982 0.54707 0.2159 0.0
H4383 H 0.8925 0.55828 0.19641 0.0
C4384 C 0.75228 0.60957 0.45727 0.0
C4385 C 0.76369 0.63157 0.4433 0.0
C4386 C 0.74225 0.61292 0.48353 0.0
C4387 C 0.74386 0.63862 0.49644 0.0
C4388 C 0.75714 0.65998 0.48283 0.0
C4389 C 0.767 0.65617 0.45677 0.0
C4390 C 0.72771 0.59593 0.49132 0.0
C4391 C 0.75847 0.6821 0.49115 0.0
C4392 C 0.69684 0.654 0.53054 0.0
C4393 C 0.69514 0.63534 0.54185 0.0
C4394 C 0.71323 0.65646 0.51593 0.0
C4395 C 0.73121 0.64223 0.51659 0.0
C4396 C 0.73469 0.62854 0.53586 0.0
C4397 C 0.71253 0.62134 0.54097 0.0
C4398 C 0.70937 0.67387 0.49986 0.0
C4399 C 0.77304 0.62146 0.56091 0.0
H4400 H 0.74986 0.59465 0.44914 0.0
H4401 H 0.7745 0.6694 0.44886 0.0
H4402 H 0.72481 0.59689 0.50851 0.0
H4403 H 0.71225 0.59772 0.4831 0.0
H4404 H 0.73415 0.58011 0.48705 0.0
H4405 H 0.75032 0.68379 0.50648 0.0
H4406 H 0.77533 0.68688 0.49235 0.0
H4407 H 0.7511 0.69305 0.47947 0.0
H4408 H 0.68374 0.66517 0.53066 0.0
H4409 H 0.70909 0.6065 0.54879 0.0
H4410 H 0.69237 0.6745 0.49521 0.0
H4411 H 0.71835 0.67251 0.4852 0.0
H4412 H 0.71306 0.68941 0.50731 0.0
H4413 H 0.77303 0.61238 0.57644 0.0
H4414 H 0.78283 0.63487 0.56768 0.0
H4415 H 0.78704 0.61231 0.55468 0.0
C4416 C 0.63544 0.47464 0.81548 0.0
C4417 C 0.61829 0.47441 0.82943 0.0
C4418 C 0.64011 0.49266 0.80313 0.0
C4419 C 0.62757 0.51141 0.80524 0.0
C4420 C 0.61086 0.51148 0.82038 0.0
C4421 C 0.60615 0.49287 0.83185 0.0
C4422 C 0.65857 0.4908 0.78802 0.0
C4423 C 0.59777 0.53104 0.82485 0.0
C4424 C 0.65516 0.55869 0.77906 0.0
C4425 C 0.64159 0.56325 0.762 0.0
C4426 C 0.64998 0.54305 0.79418 0.0
C4427 C 0.6315 0.53051 0.79137 0.0
C4428 C 0.61721 0.53594 0.77471 0.0
C4429 C 0.62224 0.55252 0.76059 0.0
C4430 C 0.66471 0.53972 0.81278 0.0
C4431 C 0.59693 0.52394 0.77082 0.0
H4432 H 0.64521 0.46059 0.81415 0.0
H4433 H 0.59313 0.49288 0.84307 0.0
H4434 H 0.673 0.48612 0.79699 0.0
H4435 H 0.66207 0.50544 0.77903 0.0
H4436 H 0.65539 0.4779 0.77649 0.0
H4437 H 0.59428 0.53225 0.84209 0.0
H4438 H 0.60565 0.54591 0.81975 0.0
H4439 H 0.58233 0.52966 0.81653 0.0
H4440 H 0.66989 0.56739 0.7806 0.0
H4441 H 0.61159 0.55612 0.74754 0.0
H4442 H 0.67676 0.5276 0.8086 0.0
H4443 H 0.65603 0.53419 0.82706 0.0
H4444 H 0.67325 0.55459 0.81682 0.0
H4445 H 0.59344 0.52301 0.75356 0.0
H4446 H 0.58363 0.53268 0.7783 0.0
H4447 H 0.59741 0.50764 0.77738 0.0
C4448 C 0.7441 0.33906 0.05647 0.0
C4449 C 0.74703 0.35333 0.07344 0.0
C4450 C 0.72737 0.3415 0.04174 0.0
C4451 C 0.71274 0.35843 0.04403 0.0
C4452 C 0.71515 0.37253 0.06141 0.0
C4453 C 0.7321 0.36981 0.07581 0.0
C4454 C 0.72569 0.32622 0.02335 0.0
C4455 C 0.69998 0.3908 0.06457 0.0
C4456 C 0.68218 0.37827 0.99525 0.0
C4457 C 0.6622 0.36879 0.9978 0.0
C4458 C 0.69865 0.375 0.01006 0.0
C4459 C 0.69531 0.36178 0.02797 0.0
C4460 C 0.67525 0.35198 0.03054 0.0
C4461 C 0.65902 0.35552 0.01545 0.0
C4462 C 0.71976 0.38548 0.00623 0.0
C4463 C 0.67083 0.33792 0.04941 0.0
H4464 H 0.75534 0.32629 0.0541 0.0
H4465 H 0.73349 0.38066 0.08907 0.0
H4466 H 0.72684 0.33503 0.00814 0.0
H4467 H 0.73828 0.31388 0.02371 0.0
H4468 H 0.71002 0.31827 0.02356 0.0
H4469 H 0.70346 0.39996 0.07924 0.0
H4470 H 0.70086 0.40173 0.05078 0.0
H4471 H 0.68348 0.38484 0.06542 0.0
H4472 H 0.68506 0.38816 0.98147 0.0
H4473 H 0.64366 0.34821 0.01771 0.0
H4474 H 0.72607 0.39266 0.02101 0.0
H4475 H 0.7187 0.39803 0.99389 0.0
H4476 H 0.73128 0.37331 1.00087 0.0
H4477 H 0.68233 0.32459 0.04984 0.0
H4478 H 0.65454 0.33129 0.04908 0.0
H4479 H 0.6729 0.34709 0.0643 0.0
C4480 C 0.8747 0.50285 0.30761 0.0
C4481 C 0.89416 0.50258 0.31834 0.0
C4482 C 0.86988 0.48783 0.29168 0.0
C4483 C 0.88464 0.47144 0.28656 0.0
C4484 C 0.90378 0.47035 0.29851 0.0
C4485 C 0.90856 0.48623 0.31366 0.0
C4486 C 0.84894 0.49029 0.28036 0.0
C4487 C 0.91942 0.45247 0.29545 0.0
C4488 C 0.85868 0.42599 0.25497 0.0
C4489 C 0.86934 0.42665 0.23544 0.0
C4490 C 0.86408 0.43975 0.27185 0.0
C4491 C 0.88002 0.45548 0.26906 0.0
C4492 C 0.8911 0.4559 0.24931 0.0
C4493 C 0.88566 0.44153 0.23296 0.0
C4494 C 0.8526 0.43707 0.29268 0.0
C4495 C 0.90892 0.47114 0.24468 0.0
H4496 H 0.86345 0.51541 0.31107 0.0
H4497 H 0.92353 0.48568 0.3221 0.0
H4498 H 0.8461 0.50726 0.27646 0.0
H4499 H 0.84788 0.48086 0.26558 0.0
H4500 H 0.83601 0.48535 0.29118 0.0
H4501 H 0.92885 0.44966 0.31011 0.0
H4502 H 0.91139 0.43745 0.29101 0.0
H4503 H 0.93065 0.45672 0.28263 0.0
H4504 H 0.84633 0.41428 0.25729 0.0
H4505 H 0.8941 0.44219 0.21799 0.0
H4506 H 0.83776 0.44651 0.2923 0.0
H4507 H 0.86229 0.44234 0.30641 0.0
H4508 H 0.84807 0.42022 0.29522 0.0
H4509 H 0.92343 0.462 0.24071 0.0
H4510 H 0.91269 0.48202 0.25793 0.0
H4511 H 0.90489 0.48072 0.23042 0.0
C4512 C 0.82117 0.62699 0.49201 0.0
C4513 C 0.81597 0.62152 0.47145 0.0
C4514 C 0.80618 0.62951 0.50832 0.0
C4515 C 0.78362 0.62898 0.50463 0.0
C4516 C 0.77537 0.62818 0.47957 0.0
C4517 C 0.7947 0.6207 0.46549 0.0
C4518 C 0.81595 0.63192 0.53017 0.0
C4519 C 0.73389 0.64102 0.46168 0.0
C4520 C 0.7444 0.59956 0.55678 0.0
C4521 C 0.73837 0.62317 0.57234 0.0
C4522 C 0.75971 0.6018 0.5329 0.0
C4523 C 0.77009 0.62715 0.52479 0.0
C4524 C 0.76414 0.65047 0.54048 0.0
C4525 C 0.74811 0.64832 0.5637 0.0
C4526 C 0.76667 0.58201 0.5219 0.0
C4527 C 0.77596 0.67077 0.5377 0.0
H4528 H 0.83793 0.62788 0.4958 0.0
H4529 H 0.78199 0.62532 0.47226 0.0
H4530 H 0.80652 0.6419 0.54086 0.0
H4531 H 0.81806 0.61594 0.53728 0.0
H4532 H 0.83193 0.63927 0.52947 0.0
H4533 H 0.72714 0.63405 0.44653 0.0
H4534 H 0.71842 0.63896 0.47048 0.0
H4535 H 0.7306 0.65781 0.45628 0.0
H4536 H 0.73871 0.58419 0.56186 0.0
H4537 H 0.74515 0.66237 0.57312 0.0
H4538 H 0.78039 0.57528 0.53065 0.0
H4539 H 0.77173 0.5854 0.5054 0.0
H4540 H 0.75378 0.57008 0.52222 0.0
H4541 H 0.78562 0.67058 0.52309 0.0
H4542 H 0.78676 0.67283 0.55146 0.0
H4543 H 0.76487 0.68441 0.53837 0.0
C4544 C 0.48825 0.69488 0.63454 0.0
C4545 C 0.50496 0.69684 0.61987 0.0
C4546 C 0.47137 0.70971 0.63529 0.0
C4547 C 0.47087 0.72716 0.62103 0.0
C4548 C 0.48762 0.72928 0.60622 0.0
C4549 C 0.50435 0.7143 0.60587 0.0
C4550 C 0.45383 0.70649 0.6512 0.0
C4551 C 0.48788 0.74749 0.59066 0.0
C4552 C 0.41821 0.756 0.60918 0.0
C4553 C 0.41901 0.77346 0.62301 0.0
C4554 C 0.43474 0.74077 0.60855 0.0
C4555 C 0.45295 0.74323 0.62164 0.0
C4556 C 0.45403 0.7612 0.63523 0.0
C4557 C 0.437 0.77582 0.63599 0.0
C4558 C 0.43252 0.72179 0.59411 0.0
C4559 C 0.47312 0.76492 0.64921 0.0
H4560 H 0.48802 0.68143 0.64525 0.0
H4561 H 0.51712 0.71649 0.59464 0.0
H4562 H 0.45283 0.72042 0.66193 0.0
H4563 H 0.43839 0.70522 0.64284 0.0
H4564 H 0.45623 0.69201 0.66098 0.0
H4565 H 0.5019 0.74701 0.58006 0.0
H4566 H 0.47341 0.74715 0.58067 0.0
H4567 H 0.48775 0.76276 0.59941 0.0
H4568 H 0.40433 0.75394 0.59923 0.0
H4569 H 0.43783 0.78928 0.64668 0.0
H4570 H 0.43325 0.70697 0.60361 0.0
H4571 H 0.44585 0.72128 0.58267 0.0
H4572 H 0.41739 0.72201 0.58506 0.0
H4573 H 0.47335 0.75302 0.66219 0.0
H4574 H 0.47304 0.78102 0.6564 0.0
H4575 H 0.48796 0.76287 0.64003 0.0
C4576 C 0.35319 0.56702 0.2559 0.0
C4577 C 0.37868 0.57683 0.24958 0.0
C4578 C 0.3498 0.54359 0.2711 0.0
C4579 C 0.37261 0.52837 0.27968 0.0
C4580 C 0.39882 0.53726 0.27201 0.0
C4581 C 0.40199 0.56169 0.25743 0.0
C4582 C 0.32856 0.54178 0.28141 0.0
C4583 C 0.41804 0.52588 0.27978 0.0
C4584 C 0.37143 0.49909 0.3324 0.0
C4585 C 0.38454 0.48241 0.32709 0.0
C4586 C 0.36633 0.51422 0.31698 0.0
C4587 C 0.37006 0.50963 0.29483 0.0
C4588 C 0.37442 0.48697 0.28827 0.0
C4589 C 0.38905 0.47953 0.30557 0.0
C4590 C 0.35924 0.53532 0.32583 0.0
C4591 C 0.35726 0.46175 0.25322 0.0
H4592 H 0.33934 0.57627 0.25169 0.0
H4593 H 0.41766 0.56745 0.25358 0.0
H4594 H 0.3159 0.5411 0.26923 0.0
H4595 H 0.32799 0.5285 0.29284 0.0
H4596 H 0.32536 0.55666 0.29027 0.0
H4597 H 0.42222 0.53209 0.29572 0.0
H4598 H 0.41496 0.50866 0.28127 0.0
H4599 H 0.43153 0.52878 0.26889 0.0
H4600 H 0.36794 0.502 0.34902 0.0
H4601 H 0.4014 0.46783 0.30343 0.0
H4602 H 0.35213 0.54604 0.31425 0.0
H4603 H 0.37306 0.54342 0.33314 0.0
H4604 H 0.34744 0.53289 0.33868 0.0
H4605 H 0.33973 0.45973 0.25032 0.0
H4606 H 0.36054 0.44416 0.25137 0.0
H4607 H 0.36125 0.46512 0.23613 0.0
C4608 C 0.25568 0.64798 0.06985 0.0
C4609 C 0.27244 0.63435 0.07304 0.0
C4610 C 0.2437 0.64826 0.05114 0.0
C4611 C 0.25059 0.63739 0.03216 0.0
C4612 C 0.274 0.62515 0.03308 0.0
C4613 C 0.27978 0.62164 0.05685 0.0
C4614 C 0.22272 0.65974 0.05365 0.0
C4615 C 0.30293 0.61547 0.99786 0.0
C4616 C 0.20083 0.60678 0.99115 0.0
C4617 C 0.1898 0.62965 0.97806 0.0
C4618 C 0.22219 0.60935 0.00976 0.0
C4619 C 0.23398 0.63534 0.01459 0.0
C4620 C 0.22363 0.65811 1.00044 0.0
C4621 C 0.20135 0.65543 0.98289 0.0
C4622 C 0.2246 0.59208 0.02582 0.0
C4623 C 0.23214 0.67996 0.00395 0.0
H4624 H 0.25085 0.65769 0.08326 0.0
H4625 H 0.27805 0.62286 0.04185 0.0
H4626 H 0.21605 0.66623 0.03907 0.0
H4627 H 0.21107 0.64866 0.06076 0.0
H4628 H 0.22408 0.67339 0.06477 0.0
H4629 H 0.30826 0.5988 0.99388 0.0
H4630 H 0.29968 0.62047 0.98098 0.0
H4631 H 0.31976 0.62165 0.99718 0.0
H4632 H 0.19371 0.59135 0.989 0.0
H4633 H 0.19495 0.66937 0.97518 0.0
H4634 H 0.23899 0.59429 0.03563 0.0
H4635 H 0.22404 0.57635 0.01797 0.0
H4636 H 0.21079 0.59271 0.03665 0.0
H4637 H 0.24521 0.67991 0.01572 0.0
H4638 H 0.21915 0.69041 0.00956 0.0
H4639 H 0.23756 0.68662 0.9886 0.0
C4640 C 0.14722 0.52786 0.79743 0.0
C4641 C 0.12057 0.53763 0.80067 0.0
C4642 C 0.15255 0.50716 0.7788 0.0
C4643 C 0.13132 0.49445 0.76434 0.0
C4644 C 0.10427 0.50315 0.76873 0.0
C4645 C 0.09919 0.52523 0.78648 0.0
C4646 C 0.17443 0.49806 0.77908 0.0
C4647 C 0.08593 0.48874 0.76427 0.0
C4648 C 0.15398 0.45957 0.71919 0.0
C4649 C 0.14239 0.4409 0.72119 0.0
C4650 C 0.15119 0.47669 0.73332 0.0
C4651 C 0.13617 0.47532 0.75031 0.0
C4652 C 0.12617 0.45512 0.75339 0.0
C4653 C 0.1286 0.43879 0.73828 0.0
C4654 C 0.16579 0.49523 0.72991 0.0
C4655 C 0.1151 0.44861 0.77351 0.0
H4656 H 0.16023 0.53452 0.80637 0.0
H4657 H 0.08299 0.52968 0.78981 0.0
H4658 H 0.17465 0.48169 0.77265 0.0
H4659 H 0.1851 0.50847 0.76979 0.0
H4660 H 0.18048 0.49789 0.79563 0.0
H4661 H 0.08431 0.47733 0.77747 0.0
H4662 H 0.07084 0.49758 0.76498 0.0
H4663 H 0.08805 0.47976 0.74931 0.0
H4664 H 0.16548 0.46078 0.70646 0.0
H4665 H 0.12067 0.42371 0.74063 0.0
H4666 H 0.18192 0.49079 0.73537 0.0
H4667 H 0.16074 0.50968 0.7383 0.0
H4668 H 0.16744 0.49865 0.71272 0.0
H4669 H 0.123 0.4343 0.78016 0.0
H4670 H 0.09857 0.44383 0.76985 0.0
H4671 H 0.11523 0.46075 0.78594 0.0
C4672 C 0.26474 0.33572 0.56153 0.0
C4673 C 0.25059 0.35252 0.56549 0.0
C4674 C 0.28083 0.33743 0.54613 0.0
C4675 C 0.2829 0.35636 0.53416 0.0
C4676 C 0.26867 0.37335 0.53801 0.0
C4677 C 0.25279 0.37127 0.55358 0.0
C4678 C 0.2958 0.31903 0.54278 0.0
C4679 C 0.27006 0.39371 0.52547 0.0
C4680 C 0.33538 0.37186 0.50839 0.0
C4681 C 0.33238 0.36552 0.48727 0.0
C4682 C 0.31974 0.36829 0.52388 0.0
C4683 C 0.30028 0.35866 0.51804 0.0
C4684 C 0.29734 0.35194 0.49668 0.0
C4685 C 0.31347 0.35537 0.48162 0.0
C4686 C 0.32397 0.37505 0.54648 0.0
C4687 C 0.27685 0.34213 0.48925 0.0
H4688 H 0.26354 0.32128 0.57079 0.0
H4689 H 0.24181 0.38426 0.55613 0.0
H4690 H 0.29469 0.31341 0.52612 0.0
H4691 H 0.31237 0.32426 0.54548 0.0
H4692 H 0.29236 0.3055 0.55354 0.0
H4693 H 0.28475 0.40232 0.52982 0.0
H4694 H 0.27093 0.39016 0.50824 0.0
H4695 H 0.25633 0.40435 0.52843 0.0
H4696 H 0.35002 0.37974 0.51275 0.0
H4697 H 0.31098 0.35077 0.4652 0.0
H4698 H 0.32113 0.36158 0.55747 0.0
H4699 H 0.31292 0.38798 0.55101 0.0
H4700 H 0.34045 0.38078 0.54877 0.0
H4701 H 0.26936 0.3323 0.50175 0.0
H4702 H 0.2657 0.35504 0.48497 0.0
H4703 H 0.27926 0.33219 0.47488 0.0
C4704 C 0.34354 0.46728 0.28694 0.0
C4705 C 0.36637 0.45081 0.28696 0.0
C4706 C 0.34194 0.49009 0.27054 0.0
C4707 C 0.36415 0.49765 0.25427 0.0
C4708 C 0.38797 0.48172 0.25472 0.0
C4709 C 0.38897 0.45791 0.27048 0.0
C4710 C 0.31988 0.49715 0.26535 0.0
C4711 C 0.40609 0.48704 0.24056 0.0
C4712 C 0.36218 0.52475 0.20136 0.0
C4713 C 0.3776 0.54038 0.20278 0.0
C4714 C 0.35547 0.51267 0.21879 0.0
C4715 C 0.3628 0.51681 0.23991 0.0
C4716 C 0.37488 0.53953 0.24427 0.0
C4717 C 0.38469 0.5469 0.22264 0.0
C4718 C 0.34085 0.49454 0.21317 0.0
C4719 C 0.37708 0.56427 0.28383 0.0
H4720 H 0.32964 0.46244 0.29572 0.0
H4721 H 0.40271 0.44764 0.26982 0.0
H4722 H 0.31099 0.50096 0.28001 0.0
H4723 H 0.31978 0.51015 0.25357 0.0
H4724 H 0.31121 0.48358 0.25826 0.0
H4725 H 0.40357 0.47924 0.22497 0.0
H4726 H 0.40697 0.50442 0.23793 0.0
H4727 H 0.4211 0.481 0.24749 0.0
H4728 H 0.35648 0.52037 0.18572 0.0
H4729 H 0.37961 0.54434 0.23653 0.0
H4730 H 0.33258 0.48765 0.22682 0.0
H4731 H 0.35006 0.48193 0.20501 0.0
H4732 H 0.32853 0.49997 0.20176 0.0
H4733 H 0.36257 0.57133 0.29161 0.0
H4734 H 0.3863 0.57961 0.2854 0.0
H4735 H 0.38403 0.55764 0.29896 0.0
C4736 C 0.29816 0.5967 0.02889 0.0
C4737 C 0.31185 0.62149 0.03285 0.0
C4738 C 0.27578 0.59507 0.01181 0.0
C4739 C 0.26669 0.618 0.99746 0.0
C4740 C 0.27996 0.64342 1.00177 0.0
C4741 C 0.30202 0.64491 0.01981 0.0
C4742 C 0.26699 0.57336 0.00792 0.0
C4743 C 0.27676 0.66141 0.98672 0.0
C4744 C 0.24876 0.61117 0.94051 0.0
C4745 C 0.23261 0.62581 0.93793 0.0
C4746 C 0.25825 0.6068 0.96014 0.0
C4747 C 0.25068 0.61613 0.97959 0.0
C4748 C 0.22761 0.62862 0.97876 0.0
C4749 C 0.22337 0.63508 0.95541 0.0
C4750 C 0.27745 0.59249 0.95818 0.0
C4751 C 0.19756 0.63583 0.01343 0.0
H4752 H 0.30382 0.58219 0.03605 0.0
H4753 H 0.31028 0.65981 0.02165 0.0
H4754 H 0.25398 0.57371 0.99609 0.0
H4755 H 0.27988 0.56284 0.00217 0.0
H4756 H 0.26162 0.56639 0.02315 0.0
H4757 H 0.29044 0.6619 0.97571 0.0
H4758 H 0.2622 0.6593 0.97715 0.0
H4759 H 0.27675 0.67664 0.99552 0.0
H4760 H 0.25565 0.6041 0.92646 0.0
H4761 H 0.22403 0.63205 0.97015 0.0
H4762 H 0.28315 0.58559 0.97294 0.0
H4763 H 0.29057 0.60144 0.95062 0.0
H4764 H 0.2739 0.57892 0.94746 0.0
H4765 H 0.18115 0.6286 0.0136 0.0
H4766 H 0.19118 0.65206 0.01771 0.0
H4767 H 0.20079 0.63087 0.03034 0.0
C4768 C 0.12282 0.50322 0.69374 0.0
C4769 C 0.10395 0.49192 0.69075 0.0
C4770 C 0.12485 0.51826 0.71027 0.0
C4771 C 0.10875 0.52014 0.72598 0.0
C4772 C 0.08854 0.51142 0.72065 0.0
C4773 C 0.08674 0.49671 0.70391 0.0
C4774 C 0.14185 0.53501 0.70802 0.0
C4775 C 0.06803 0.51931 0.73017 0.0
C4776 C 0.14345 0.55017 0.76452 0.0
C4777 C 0.13571 0.57057 0.76114 0.0
C4778 C 0.12793 0.53125 0.76467 0.0
C4779 C 0.11176 0.53546 0.74441 0.0
C4780 C 0.10647 0.55707 0.73982 0.0
C4781 C 0.11656 0.57362 0.75056 0.0
C4782 C 0.12309 0.50085 0.79963 0.0
C4783 C 0.09086 0.56363 0.72269 0.0
H4784 H 0.1354 0.50149 0.68218 0.0
H4785 H 0.07148 0.48953 0.70064 0.0
H4786 H 0.13449 0.54958 0.70136 0.0
H4787 H 0.14892 0.53955 0.7234 0.0
H4788 H 0.15463 0.53007 0.69697 0.0
H4789 H 0.06008 0.52988 0.71851 0.0
H4790 H 0.05685 0.50596 0.73271 0.0
H4791 H 0.07028 0.52828 0.74514 0.0
H4792 H 0.13532 0.53756 0.76673 0.0
H4793 H 0.11096 0.58975 0.74824 0.0
H4794 H 0.1331 0.48603 0.80099 0.0
H4795 H 0.10758 0.49278 0.8035 0.0
H4796 H 0.126 0.50511 0.81686 0.0
H4797 H 0.09403 0.57997 0.71686 0.0
H4798 H 0.07466 0.56376 0.72947 0.0
H4799 H 0.09117 0.55305 0.70865 0.0
C4800 C 0.18869 0.37151 0.51935 0.0
C4801 C 0.17185 0.38535 0.51499 0.0
C4802 C 0.20418 0.36702 0.50393 0.0
C4803 C 0.20267 0.37632 0.48346 0.0
C4804 C 0.18525 0.38981 0.47881 0.0
C4805 C 0.17024 0.39442 0.49472 0.0
C4806 C 0.22266 0.35304 0.50988 0.0
C4807 C 0.1825 0.39951 0.45707 0.0
C4808 C 0.25259 0.3838 0.44992 0.0
C4809 C 0.25233 0.36573 0.43688 0.0
C4810 C 0.23673 0.3873 0.46524 0.0
C4811 C 0.21979 0.37266 0.46731 0.0
C4812 C 0.2193 0.35455 0.45394 0.0
C4813 C 0.2357 0.35115 0.43915 0.0
C4814 C 0.23805 0.40689 0.47897 0.0
C4815 C 0.20115 0.33901 0.45488 0.0
H4816 H 0.19014 0.36473 0.53509 0.0
H4817 H 0.15718 0.40509 0.49132 0.0
H4818 H 0.23739 0.36246 0.50881 0.0
H4819 H 0.22126 0.34652 0.5262 0.0
H4820 H 0.22419 0.33964 0.49857 0.0
H4821 H 0.16678 0.40724 0.45516 0.0
H4822 H 0.19494 0.41162 0.45441 0.0
H4823 H 0.18432 0.3872 0.4446 0.0
H4824 H 0.26543 0.3951 0.44834 0.0
H4825 H 0.23522 0.33732 0.42892 0.0
H4826 H 0.2543 0.41365 0.47915 0.0
H4827 H 0.2332 0.40342 0.49552 0.0
H4828 H 0.22715 0.41918 0.47263 0.0
H4829 H 0.20017 0.33182 0.47092 0.0
H4830 H 0.20276 0.32607 0.44301 0.0
H4831 H 0.18597 0.34748 0.45199 0.0
C4832 C 0.47318 0.26817 0.3476 0.0
C4833 C 0.48388 0.30131 0.36885 0.0
C4834 C 0.49404 0.26134 0.33087 0.0
C4835 C 0.51773 0.27557 0.33215 0.0
C4836 C 0.52242 0.29791 0.3448 0.0
C4837 C 0.50796 0.30923 0.36287 0.0
C4838 C 0.48887 0.24716 0.31258 0.0
C4839 C 0.53956 0.31185 0.3351 0.0
C4840 C 0.572 0.25431 0.37422 0.0
C4841 C 0.57712 0.2301 0.361 0.0
C4842 C 0.55276 0.27264 0.36421 0.0
C4843 C 0.5374 0.26503 0.339 0.0
C4844 C 0.54268 0.23962 0.32758 0.0
C4845 C 0.56179 0.22274 0.33888 0.0
C4846 C 0.54857 0.2898 0.3806 0.0
C4847 C 0.53677 0.23469 0.30517 0.0
H4848 H 0.45791 0.26042 0.34493 0.0
H4849 H 0.51351 0.32417 0.3693 0.0
H4850 H 0.49453 0.23089 0.3159 0.0
H4851 H 0.47144 0.24626 0.3104 0.0
H4852 H 0.49588 0.25334 0.29773 0.0
H4853 H 0.53715 0.3288 0.33928 0.0
H4854 H 0.55567 0.3072 0.34015 0.0
H4855 H 0.53959 0.31011 0.31757 0.0
H4856 H 0.58133 0.25832 0.38807 0.0
H4857 H 0.56586 0.2083 0.33051 0.0
H4858 H 0.53291 0.28761 0.38807 0.0
H4859 H 0.55037 0.30614 0.3746 0.0
H4860 H 0.56017 0.28856 0.39378 0.0
H4861 H 0.52588 0.22095 0.30463 0.0
H4862 H 0.5512 0.22959 0.29651 0.0
H4863 H 0.53039 0.24888 0.29702 0.0
loop_
_geom_bond_atom_site_label_1
_geom_bond_atom_site_label_2
_geom_bond_distance
_geom_bond_site_symmetry_2
_ccdc_geom_bond_type
Li0 N17 1.990 . S
Li0 O60 1.956 . S
Li0 O61 1.970 . S
Li0 O62 1.961 . S
Li1 N25 1.990 . S
Li1 O60 1.970 . S
Li1 O61 1.956 . S
Li1 O63 1.961 . S
Li2 N47 1.990 . S
Li2 O60 1.961 . S
Li2 O62 1.956 . S
Li2 O63 1.970 . S
Li3 N53 1.990 . S
Li3 O61 1.961 . S
Li3 O62 1.970 . S
Li3 O63 1.956 . S
C4 C6 1.348 . S
C4 C7 1.356 . S
C4 O60 1.325 . S
N5 C8 1.314 . S
N5 C9 1.279 . S
C6 C4 1.348 . S
C6 C8 1.353 . S
C6 H64 0.929 . S
C7 C4 1.356 . S
C7 C9 1.358 . S
C7 H65 0.930 . S
C8 N5 1.314 . S
C8 C6 1.353 . S
C8 H66 0.930 . S
C9 N5 1.279 . S
C9 C7 1.358 . S
C9 H67 0.930 . S
C10 C13 1.348 . S
C10 C14 1.356 . S
C10 O61 1.325 . S
C11 N12 1.279 . S
C11 C14 1.358 . S
C11 H68 0.930 . S
N12 C11 1.279 . S
N12 C15 1.314 . S
C13 C10 1.348 . S
C13 C15 1.353 . S
C13 H69 0.929 . S
C14 C10 1.356 . S
C14 C11 1.358 . S
C14 H70 0.930 . S
C15 N12 1.314 . S
C15 C13 1.353 . S
C15 H71 0.930 . S
C16 N17 1.314 . S
C16 C21 1.353 . S
C16 H22 0.930 . S
N17 Li0 1.990 . S
N17 C16 1.314 . S
N17 C19 1.279 . S
C18 C19 1.358 . S
C18 C20 1.356 . S
C18 H72 0.930 . S
C19 N17 1.279 . S
C19 C18 1.358 . S
C19 H23 0.930 . S
C20 C18 1.356 . S
C20 C21 1.348 . S
C21 C16 1.353 . S
C21 C20 1.348 . S
C21 H73 0.929 . S
H22 C16 0.930 . S
H23 C19 0.930 . S
C24 N25 1.314 . S
C24 C26 1.353 . S
C24 H30 0.930 . S
N25 Li1 1.990 . S
N25 C24 1.314 . S
N25 C28 1.279 . S
C26 C24 1.353 . S
C26 C29 1.348 . S
C26 H74 0.929 . S
C27 C28 1.358 . S
C27 C29 1.356 . S
C27 H75 0.930 . S
C28 N25 1.279 . S
C28 C27 1.358 . S
C28 H31 0.930 . S
C29 C26 1.348 . S
C29 C27 1.356 . S
H30 C24 0.930 . S
H31 C28 0.930 . S
C32 C34 1.348 . S
C32 C35 1.356 . S
C32 O62 1.325 . S
N33 C36 1.314 . S
N33 C37 1.279 . S
C34 C32 1.348 . S
C34 C36 1.353 . S
C34 H76 0.929 . S
C35 C32 1.356 . S
C35 C37 1.358 . S
C35 H77 0.930 . S
C36 N33 1.314 . S
C36 C34 1.353 . S
C36 H78 0.930 . S
C37 N33 1.279 . S
C37 C35 1.358 . S
C37 H79 0.930 . S
C38 C39 1.348 . S
C38 C40 1.356 . S
C38 O63 1.325 . S
C39 C38 1.348 . S
C39 C41 1.353 . S
C39 H80 0.929 . S
C40 C38 1.356 . S
C40 C42 1.358 . S
C40 H81 0.930 . S
C41 C39 1.353 . S
C41 N43 1.314 . S
C41 H82 0.930 . S
C42 C40 1.358 . S
C42 N43 1.279 . S
C42 H83 0.930 . S
N43 C41 1.314 . S
N43 C42 1.279 . S
C44 C46 1.353 . S
C44 N47 1.314 . S
C44 H50 0.930 . S
C45 N47 1.279 . S
C45 C48 1.358 . S
C45 H51 0.930 . S
C46 C44 1.353 . S
C46 C49 1.348 . S
C46 H84 0.929 . S
N47 Li2 1.990 . S
N47 C44 1.314 . S
N47 C45 1.279 . S
C48 C45 1.358 . S
C48 C49 1.356 . S
C48 H85 0.930 . S
C49 C46 1.348 . S
C49 C48 1.356 . S
H50 C44 0.930 . S
H51 C45 0.930 . S
C52 N53 1.314 . S
C52 C54 1.353 . S
C52 H58 0.930 . S
N53 Li3 1.990 . S
N53 C52 1.314 . S
N53 C56 1.279 . S
C54 C52 1.353 . S
C54 C57 1.348 . S
C54 H86 0.929 . S
C55 C56 1.358 . S
C55 C57 1.356 . S
C55 H87 0.930 . S
C56 N53 1.279 . S
C56 C55 1.358 . S
C56 H59 0.930 . S
C57 C54 1.348 . S
C57 C55 1.356 . S
H58 C52 0.930 . S
H59 C56 0.930 . S
O60 Li0 1.956 . S
O60 Li1 1.970 . S
O60 Li2 1.961 . S
O60 C4 1.325 . S
O61 Li0 1.970 . S
O61 Li1 1.956 . S
O61 Li3 1.961 . S
O61 C10 1.325 . S
O62 Li0 1.961 . S
O62 Li2 1.956 . S
O62 Li3 1.970 . S
O62 C32 1.325 . S
O63 Li1 1.961 . S
O63 Li2 1.970 . S
O63 Li3 1.956 . S
O63 C38 1.325 . S
H64 C6 0.929 . S
H65 C7 0.930 . S
H66 C8 0.930 . S
H67 C9 0.930 . S
H68 C11 0.930 . S
H69 C13 0.929 . S
H70 C14 0.930 . S
H71 C15 0.930 . S
H72 C18 0.930 . S
H73 C21 0.929 . S
H74 C26 0.929 . S
H75 C27 0.930 . S
H76 C34 0.929 . S
H77 C35 0.930 . S
H78 C36 0.930 . S
H79 C37 0.930 . S
H80 C39 0.929 . S
H81 C40 0.930 . S
H82 C41 0.930 . S
H83 C42 0.930 . S
H84 C46 0.929 . S
H85 C48 0.930 . S
H86 C54 0.929 . S
H87 C55 0.930 . S
Li88 N105 1.990 . S
Li88 O148 1.956 . S
Li88 O149 1.970 . S
Li88 O150 1.961 . S
Li89 N113 1.990 . S
Li89 O148 1.970 . S
Li89 O149 1.956 . S
Li89 O151 1.961 . S
Li90 N135 1.990 . S
Li90 O148 1.961 . S
Li90 O150 1.956 . S
Li90 O151 1.970 . S
Li91 N141 1.990 . S
Li91 O149 1.961 . S
Li91 O150 1.970 . S
Li91 O151 1.956 . S
C92 C94 1.348 . S
C92 C95 1.356 . S
C92 O148 1.325 . S
N93 C96 1.314 . S
N93 C97 1.279 . S
C94 C92 1.348 . S
C94 C96 1.353 . S
C94 H152 0.929 . S
C95 C92 1.356 . S
C95 C97 1.358 . S
C95 H153 0.930 . S
C96 N93 1.314 . S
C96 C94 1.353 . S
C96 H154 0.930 . S
C97 N93 1.279 . S
C97 C95 1.358 . S
C97 H155 0.930 . S
C98 C101 1.348 . S
C98 C102 1.356 . S
C98 O149 1.325 . S
C99 N100 1.279 . S
C99 C102 1.358 . S
C99 H156 0.930 . S
N100 C99 1.279 . S
N100 C103 1.314 . S
C101 C98 1.348 . S
C101 C103 1.353 . S
C101 H157 0.929 . S
C102 C98 1.356 . S
C102 C99 1.358 . S
C102 H158 0.930 . S
C103 N100 1.314 . S
C103 C101 1.353 . S
C103 H159 0.930 . S
C104 N105 1.314 . S
C104 C109 1.353 . S
C104 H110 0.930 . S
N105 Li88 1.990 . S
N105 C104 1.314 . S
N105 C107 1.279 . S
C106 C107 1.358 . S
C106 C108 1.356 . S
C106 H160 0.930 . S
C107 N105 1.279 . S
C107 C106 1.358 . S
C107 H111 0.930 . S
C108 C106 1.356 . S
C108 C109 1.348 . S
C109 C104 1.353 . S
C109 C108 1.348 . S
C109 H161 0.929 . S
H110 C104 0.930 . S
H111 C107 0.930 . S
C112 N113 1.314 . S
C112 C114 1.353 . S
C112 H118 0.930 . S
N113 Li89 1.990 . S
N113 C112 1.314 . S
N113 C116 1.279 . S
C114 C112 1.353 . S
C114 C117 1.348 . S
C114 H162 0.929 . S
C115 C116 1.358 . S
C115 C117 1.356 . S
C115 H163 0.930 . S
C116 N113 1.279 . S
C116 C115 1.358 . S
C116 H119 0.930 . S
C117 C114 1.348 . S
C117 C115 1.356 . S
H118 C112 0.930 . S
H119 C116 0.930 . S
C120 C122 1.348 . S
C120 C123 1.356 . S
C120 O150 1.325 . S
N121 C124 1.314 . S
N121 C125 1.279 . S
C122 C120 1.348 . S
C122 C124 1.353 . S
C122 H164 0.929 . S
C123 C120 1.356 . S
C123 C125 1.358 . S
C123 H165 0.930 . S
C124 N121 1.314 . S
C124 C122 1.353 . S
C124 H166 0.930 . S
C125 N121 1.279 . S
C125 C123 1.358 . S
C125 H167 0.930 . S
C126 C127 1.348 . S
C126 C128 1.356 . S
C126 O151 1.325 . S
C127 C126 1.348 . S
C127 C129 1.353 . S
C127 H168 0.929 . S
C128 C126 1.356 . S
C128 C130 1.358 . S
C128 H169 0.930 . S
C129 C127 1.353 . S
C129 N131 1.314 . S
C129 H170 0.930 . S
C130 C128 1.358 . S
C130 N131 1.279 . S
C130 H171 0.930 . S
N131 C129 1.314 . S
N131 C130 1.279 . S
C132 C134 1.353 . S
C132 N135 1.314 . S
C132 H138 0.930 . S
C133 N135 1.279 . S
C133 C136 1.358 . S
C133 H139 0.930 . S
C134 C132 1.353 . S
C134 C137 1.348 . S
C134 H172 0.929 . S
N135 Li90 1.990 . S
N135 C132 1.314 . S
N135 C133 1.279 . S
C136 C133 1.358 . S
C136 C137 1.356 . S
C136 H173 0.930 . S
C137 C134 1.348 . S
C137 C136 1.356 . S
H138 C132 0.930 . S
H139 C133 0.930 . S
C140 N141 1.314 . S
C140 C142 1.353 . S
C140 H146 0.930 . S
N141 Li91 1.990 . S
N141 C140 1.314 . S
N141 C144 1.279 . S
C142 C140 1.353 . S
C142 C145 1.348 . S
C142 H174 0.929 . S
C143 C144 1.358 . S
C143 C145 1.356 . S
C143 H175 0.930 . S
C144 N141 1.279 . S
C144 C143 1.358 . S
C144 H147 0.930 . S
C145 C142 1.348 . S
C145 C143 1.356 . S
H146 C140 0.930 . S
H147 C144 0.930 . S
O148 Li88 1.956 . S
O148 Li89 1.970 . S
O148 Li90 1.961 . S
O148 C92 1.325 . S
O149 Li88 1.970 . S
O149 Li89 1.956 . S
O149 Li91 1.961 . S
O149 C98 1.325 . S
O150 Li88 1.961 . S
O150 Li90 1.956 . S
O150 Li91 1.970 . S
O150 C120 1.325 . S
O151 Li89 1.961 . S
O151 Li90 1.970 . S
O151 Li91 1.956 . S
O151 C126 1.325 . S
H152 C94 0.929 . S
H153 C95 0.930 . S
H154 C96 0.930 . S
H155 C97 0.930 . S
H156 C99 0.930 . S
H157 C101 0.929 . S
H158 C102 0.930 . S
H159 C103 0.930 . S
H160 C106 0.930 . S
H161 C109 0.929 . S
H162 C114 0.929 . S
H163 C115 0.930 . S
H164 C122 0.929 . S
H165 C123 0.930 . S
H166 C124 0.930 . S
H167 C125 0.930 . S
H168 C127 0.929 . S
H169 C128 0.930 . S
H170 C129 0.930 . S
H171 C130 0.930 . S
H172 C134 0.929 . S
H173 C136 0.930 . S
H174 C142 0.929 . S
H175 C143 0.930 . S
Li176 N193 1.990 . S
Li176 O236 1.956 . S
Li176 O237 1.970 . S
Li176 O238 1.961 . S
Li177 N201 1.990 . S
Li177 O236 1.970 . S
Li177 O237 1.956 . S
Li177 O239 1.961 . S
Li178 N223 1.990 . S
Li178 O236 1.961 . S
Li178 O238 1.956 . S
Li178 O239 1.970 . S
Li179 N229 1.990 . S
Li179 O237 1.961 . S
Li179 O238 1.970 . S
Li179 O239 1.956 . S
C180 C182 1.348 . S
C180 C183 1.356 . S
C180 O236 1.325 . S
N181 C184 1.314 . S
N181 C185 1.279 . S
C182 C180 1.348 . S
C182 C184 1.353 . S
C182 H240 0.929 . S
C183 C180 1.356 . S
C183 C185 1.358 . S
C183 H241 0.930 . S
C184 N181 1.314 . S
C184 C182 1.353 . S
C184 H242 0.930 . S
C185 N181 1.279 . S
C185 C183 1.358 . S
C185 H243 0.930 . S
C186 C189 1.348 . S
C186 C190 1.356 . S
C186 O237 1.325 . S
C187 N188 1.279 . S
C187 C190 1.358 . S
C187 H244 0.930 . S
N188 C187 1.279 . S
N188 C191 1.314 . S
C189 C186 1.348 . S
C189 C191 1.353 . S
C189 H245 0.929 . S
C190 C186 1.356 . S
C190 C187 1.358 . S
C190 H246 0.930 . S
C191 N188 1.314 . S
C191 C189 1.353 . S
C191 H247 0.930 . S
C192 N193 1.314 . S
C192 C197 1.353 . S
C192 H198 0.930 . S
N193 Li176 1.990 . S
N193 C192 1.314 . S
N193 C195 1.279 . S
C194 C195 1.358 . S
C194 C196 1.356 . S
C194 H248 0.930 . S
C195 N193 1.279 . S
C195 C194 1.358 . S
C195 H199 0.930 . S
C196 C194 1.356 . S
C196 C197 1.348 . S
C197 C192 1.353 . S
C197 C196 1.348 . S
C197 H249 0.929 . S
H198 C192 0.930 . S
H199 C195 0.930 . S
C200 N201 1.314 . S
C200 C202 1.353 . S
C200 H206 0.930 . S
N201 Li177 1.990 . S
N201 C200 1.314 . S
N201 C204 1.279 . S
C202 C200 1.353 . S
C202 C205 1.348 . S
C202 H250 0.929 . S
C203 C204 1.358 . S
C203 C205 1.356 . S
C203 H251 0.930 . S
C204 N201 1.279 . S
C204 C203 1.358 . S
C204 H207 0.930 . S
C205 C202 1.348 . S
C205 C203 1.356 . S
H206 C200 0.930 . S
H207 C204 0.930 . S
C208 C210 1.348 . S
C208 C211 1.356 . S
C208 O238 1.325 . S
N209 C212 1.314 . S
N209 C213 1.279 . S
C210 C208 1.348 . S
C210 C212 1.353 . S
C210 H252 0.929 . S
C211 C208 1.356 . S
C211 C213 1.358 . S
C211 H253 0.930 . S
C212 N209 1.314 . S
C212 C210 1.353 . S
C212 H254 0.930 . S
C213 N209 1.279 . S
C213 C211 1.358 . S
C213 H255 0.930 . S
C214 C215 1.348 . S
C214 C216 1.356 . S
C214 O239 1.325 . S
C215 C214 1.348 . S
C215 C217 1.353 . S
C215 H256 0.929 . S
C216 C214 1.356 . S
C216 C218 1.358 . S
C216 H257 0.930 . S
C217 C215 1.353 . S
C217 N219 1.314 . S
C217 H258 0.930 . S
C218 C216 1.358 . S
C218 N219 1.279 . S
C218 H259 0.930 . S
N219 C217 1.314 . S
N219 C218 1.279 . S
C220 C222 1.353 . S
C220 N223 1.314 . S
C220 H226 0.930 . S
C221 N223 1.279 . S
C221 C224 1.358 . S
C221 H227 0.930 . S
C222 C220 1.353 . S
C222 C225 1.348 . S
C222 H260 0.929 . S
N223 Li178 1.990 . S
N223 C220 1.314 . S
N223 C221 1.279 . S
C224 C221 1.358 . S
C224 C225 1.356 . S
C224 H261 0.930 . S
C225 C222 1.348 . S
C225 C224 1.356 . S
H226 C220 0.930 . S
H227 C221 0.930 . S
C228 N229 1.314 . S
C228 C230 1.353 . S
C228 H234 0.930 . S
N229 Li179 1.990 . S
N229 C228 1.314 . S
N229 C232 1.279 . S
C230 C228 1.353 . S
C230 C233 1.348 . S
C230 H262 0.929 . S
C231 C232 1.358 . S
C231 C233 1.356 . S
C231 H263 0.930 . S
C232 N229 1.279 . S
C232 C231 1.358 . S
C232 H235 0.930 . S
C233 C230 1.348 . S
C233 C231 1.356 . S
H234 C228 0.930 . S
H235 C232 0.930 . S
O236 Li176 1.956 . S
O236 Li177 1.970 . S
O236 Li178 1.961 . S
O236 C180 1.325 . S
O237 Li176 1.970 . S
O237 Li177 1.956 . S
O237 Li179 1.961 . S
O237 C186 1.325 . S
O238 Li176 1.961 . S
O238 Li178 1.956 . S
O238 Li179 1.970 . S
O238 C208 1.325 . S
O239 Li177 1.961 . S
O239 Li178 1.970 . S
O239 Li179 1.956 . S
O239 C214 1.325 . S
H240 C182 0.929 . S
H241 C183 0.930 . S
H242 C184 0.930 . S
H243 C185 0.930 . S
H244 C187 0.930 . S
H245 C189 0.929 . S
H246 C190 0.930 . S
H247 C191 0.930 . S
H248 C194 0.930 . S
H249 C197 0.929 . S
H250 C202 0.929 . S
H251 C203 0.930 . S
H252 C210 0.929 . S
H253 C211 0.930 . S
H254 C212 0.930 . S
H255 C213 0.930 . S
H256 C215 0.929 . S
H257 C216 0.930 . S
H258 C217 0.930 . S
H259 C218 0.930 . S
H260 C222 0.929 . S
H261 C224 0.930 . S
H262 C230 0.929 . S
H263 C231 0.930 . S
Li264 N281 1.990 . S
Li264 O324 1.956 . S
Li264 O325 1.970 . S
Li264 O326 1.961 . S
Li265 N289 1.990 . S
Li265 O324 1.970 . S
Li265 O325 1.956 . S
Li265 O327 1.961 . S
Li266 N311 1.990 . S
Li266 O324 1.961 . S
Li266 O326 1.956 . S
Li266 O327 1.970 . S
Li267 N317 1.990 . S
Li267 O325 1.961 . S
Li267 O326 1.970 . S
Li267 O327 1.956 . S
C268 C270 1.348 . S
C268 C271 1.356 . S
C268 O324 1.325 . S
N269 C272 1.314 . S
N269 C273 1.279 . S
C270 C268 1.348 . S
C270 C272 1.353 . S
C270 H328 0.929 . S
C271 C268 1.356 . S
C271 C273 1.358 . S
C271 H329 0.930 . S
C272 N269 1.314 . S
C272 C270 1.353 . S
C272 H330 0.930 . S
C273 N269 1.279 . S
C273 C271 1.358 . S
C273 H331 0.930 . S
C274 C277 1.348 . S
C274 C278 1.356 . S
C274 O325 1.325 . S
C275 N276 1.279 . S
C275 C278 1.358 . S
C275 H332 0.930 . S
N276 C275 1.279 . S
N276 C279 1.314 . S
C277 C274 1.348 . S
C277 C279 1.353 . S
C277 H333 0.929 . S
C278 C274 1.356 . S
C278 C275 1.358 . S
C278 H334 0.930 . S
C279 N276 1.314 . S
C279 C277 1.353 . S
C279 H335 0.930 . S
C280 N281 1.314 . S
C280 C285 1.353 . S
C280 H286 0.930 . S
N281 Li264 1.990 . S
N281 C280 1.314 . S
N281 C283 1.279 . S
C282 C283 1.358 . S
C282 C284 1.356 . S
C282 H336 0.930 . S
C283 N281 1.279 . S
C283 C282 1.358 . S
C283 H287 0.930 . S
C284 C282 1.356 . S
C284 C285 1.348 . S
C285 C280 1.353 . S
C285 C284 1.348 . S
C285 H337 0.929 . S
H286 C280 0.930 . S
H287 C283 0.930 . S
C288 N289 1.314 . S
C288 C290 1.353 . S
C288 H294 0.930 . S
N289 Li265 1.990 . S
N289 C288 1.314 . S
N289 C292 1.279 . S
C290 C288 1.353 . S
C290 C293 1.348 . S
C290 H338 0.929 . S
C291 C292 1.358 . S
C291 C293 1.356 . S
C291 H339 0.930 . S
C292 N289 1.279 . S
C292 C291 1.358 . S
C292 H295 0.930 . S
C293 C290 1.348 . S
C293 C291 1.356 . S
H294 C288 0.930 . S
H295 C292 0.930 . S
C296 C298 1.348 . S
C296 C299 1.356 . S
C296 O326 1.325 . S
N297 C300 1.314 . S
N297 C301 1.279 . S
C298 C296 1.348 . S
C298 C300 1.353 . S
C298 H340 0.929 . S
C299 C296 1.356 . S
C299 C301 1.358 . S
C299 H341 0.930 . S
C300 N297 1.314 . S
C300 C298 1.353 . S
C300 H342 0.930 . S
C301 N297 1.279 . S
C301 C299 1.358 . S
C301 H343 0.930 . S
C302 C303 1.348 . S
C302 C304 1.356 . S
C302 O327 1.325 . S
C303 C302 1.348 . S
C303 C305 1.353 . S
C303 H344 0.929 . S
C304 C302 1.356 . S
C304 C306 1.358 . S
C304 H345 0.930 . S
C305 C303 1.353 . S
C305 N307 1.314 . S
C305 H346 0.930 . S
C306 C304 1.358 . S
C306 N307 1.279 . S
C306 H347 0.930 . S
N307 C305 1.314 . S
N307 C306 1.279 . S
C308 C310 1.353 . S
C308 N311 1.314 . S
C308 H314 0.930 . S
C309 N311 1.279 . S
C309 C312 1.358 . S
C309 H315 0.930 . S
C310 C308 1.353 . S
C310 C313 1.348 . S
C310 H348 0.929 . S
N311 Li266 1.990 . S
N311 C308 1.314 . S
N311 C309 1.279 . S
C312 C309 1.358 . S
C312 C313 1.356 . S
C312 H349 0.930 . S
C313 C310 1.348 . S
C313 C312 1.356 . S
H314 C308 0.930 . S
H315 C309 0.930 . S
C316 N317 1.314 . S
C316 C318 1.353 . S
C316 H322 0.930 . S
N317 Li267 1.990 . S
N317 C316 1.314 . S
N317 C320 1.279 . S
C318 C316 1.353 . S
C318 C321 1.348 . S
C318 H350 0.929 . S
C319 C320 1.358 . S
C319 C321 1.356 . S
C319 H351 0.930 . S
C320 N317 1.279 . S
C320 C319 1.358 . S
C320 H323 0.930 . S
C321 C318 1.348 . S
C321 C319 1.356 . S
H322 C316 0.930 . S
H323 C320 0.930 . S
O324 Li264 1.956 . S
O324 Li265 1.970 . S
O324 Li266 1.961 . S
O324 C268 1.325 . S
O325 Li264 1.970 . S
O325 Li265 1.956 . S
O325 Li267 1.961 . S
O325 C274 1.325 . S
O326 Li264 1.961 . S
O326 Li266 1.956 . S
O326 Li267 1.970 . S
O326 C296 1.325 . S
O327 Li265 1.961 . S
O327 Li266 1.970 . S
O327 Li267 1.956 . S
O327 C302 1.325 . S
H328 C270 0.929 . S
H329 C271 0.930 . S
H330 C272 0.930 . S
H331 C273 0.930 . S
H332 C275 0.930 . S
H333 C277 0.929 . S
H334 C278 0.930 . S
H335 C279 0.930 . S
H336 C282 0.930 . S
H337 C285 0.929 . S
H338 C290 0.929 . S
H339 C291 0.930 . S
H340 C298 0.929 . S
H341 C299 0.930 . S
H342 C300 0.930 . S
H343 C301 0.930 . S
H344 C303 0.929 . S
H345 C304 0.930 . S
H346 C305 0.930 . S
H347 C306 0.930 . S
H348 C310 0.929 . S
H349 C312 0.930 . S
H350 C318 0.929 . S
H351 C319 0.930 . S
Li352 N369 1.990 . S
Li352 O412 1.956 . S
Li352 O413 1.970 . S
Li352 O414 1.961 . S
Li353 N377 1.990 . S
Li353 O412 1.970 . S
Li353 O413 1.956 . S
Li353 O415 1.961 . S
Li354 N399 1.990 . S
Li354 O412 1.961 . S
Li354 O414 1.956 . S
Li354 O415 1.970 . S
Li355 N405 1.990 . S
Li355 O413 1.961 . S
Li355 O414 1.970 . S
Li355 O415 1.956 . S
C356 C358 1.348 . S
C356 C359 1.356 . S
C356 O412 1.325 . S
N357 C360 1.314 . S
N357 C361 1.279 . S
C358 C356 1.348 . S
C358 C360 1.353 . S
C358 H416 0.929 . S
C359 C356 1.356 . S
C359 C361 1.358 . S
C359 H417 0.930 . S
C360 N357 1.314 . S
C360 C358 1.353 . S
C360 H418 0.930 . S
C361 N357 1.279 . S
C361 C359 1.358 . S
C361 H419 0.930 . S
C362 C365 1.348 . S
C362 C366 1.356 . S
C362 O413 1.325 . S
C363 N364 1.279 . S
C363 C366 1.358 . S
C363 H420 0.930 . S
N364 C363 1.279 . S
N364 C367 1.314 . S
C365 C362 1.348 . S
C365 C367 1.353 . S
C365 H421 0.929 . S
C366 C362 1.356 . S
C366 C363 1.358 . S
C366 H422 0.930 . S
C367 N364 1.314 . S
C367 C365 1.353 . S
C367 H423 0.930 . S
C368 N369 1.314 . S
C368 C373 1.353 . S
C368 H374 0.930 . S
N369 Li352 1.990 . S
N369 C368 1.314 . S
N369 C371 1.279 . S
C370 C371 1.358 . S
C370 C372 1.356 . S
C370 H424 0.930 . S
C371 N369 1.279 . S
C371 C370 1.358 . S
C371 H375 0.930 . S
C372 C370 1.356 . S
C372 C373 1.348 . S
C373 C368 1.353 . S
C373 C372 1.348 . S
C373 H425 0.929 . S
H374 C368 0.930 . S
H375 C371 0.930 . S
C376 N377 1.314 . S
C376 C378 1.353 . S
C376 H382 0.930 . S
N377 Li353 1.990 . S
N377 C376 1.314 . S
N377 C380 1.279 . S
C378 C376 1.353 . S
C378 C381 1.348 . S
C378 H426 0.929 . S
C379 C380 1.358 . S
C379 C381 1.356 . S
C379 H427 0.930 . S
C380 N377 1.279 . S
C380 C379 1.358 . S
C380 H383 0.930 . S
C381 C378 1.348 . S
C381 C379 1.356 . S
H382 C376 0.930 . S
H383 C380 0.930 . S
C384 C386 1.348 . S
C384 C387 1.356 . S
C384 O414 1.325 . S
N385 C388 1.314 . S
N385 C389 1.279 . S
C386 C384 1.348 . S
C386 C388 1.353 . S
C386 H428 0.929 . S
C387 C384 1.356 . S
C387 C389 1.358 . S
C387 H429 0.930 . S
C388 N385 1.314 . S
C388 C386 1.353 . S
C388 H430 0.930 . S
C389 N385 1.279 . S
C389 C387 1.358 . S
C389 H431 0.930 . S
C390 C391 1.348 . S
C390 C392 1.356 . S
C390 O415 1.325 . S
C391 C390 1.348 . S
C391 C393 1.353 . S
C391 H432 0.929 . S
C392 C390 1.356 . S
C392 C394 1.358 . S
C392 H433 0.930 . S
C393 C391 1.353 . S
C393 N395 1.314 . S
C393 H434 0.930 . S
C394 C392 1.358 . S
C394 N395 1.279 . S
C394 H435 0.930 . S
N395 C393 1.314 . S
N395 C394 1.279 . S
C396 C398 1.353 . S
C396 N399 1.314 . S
C396 H402 0.930 . S
C397 N399 1.279 . S
C397 C400 1.358 . S
C397 H403 0.930 . S
C398 C396 1.353 . S
C398 C401 1.348 . S
C398 H436 0.929 . S
N399 Li354 1.990 . S
N399 C396 1.314 . S
N399 C397 1.279 . S
C400 C397 1.358 . S
C400 C401 1.356 . S
C400 H437 0.930 . S
C401 C398 1.348 . S
C401 C400 1.356 . S
H402 C396 0.930 . S
H403 C397 0.930 . S
C404 N405 1.314 . S
C404 C406 1.353 . S
C404 H410 0.930 . S
N405 Li355 1.990 . S
N405 C404 1.314 . S
N405 C408 1.279 . S
C406 C404 1.353 . S
C406 C409 1.348 . S
C406 H438 0.929 . S
C407 C408 1.358 . S
C407 C409 1.356 . S
C407 H439 0.930 . S
C408 N405 1.279 . S
C408 C407 1.358 . S
C408 H411 0.930 . S
C409 C406 1.348 . S
C409 C407 1.356 . S
H410 C404 0.930 . S
H411 C408 0.930 . S
O412 Li352 1.956 . S
O412 Li353 1.970 . S
O412 Li354 1.961 . S
O412 C356 1.325 . S
O413 Li352 1.970 . S
O413 Li353 1.956 . S
O413 Li355 1.961 . S
O413 C362 1.325 . S
O414 Li352 1.961 . S
O414 Li354 1.956 . S
O414 Li355 1.970 . S
O414 C384 1.325 . S
O415 Li353 1.961 . S
O415 Li354 1.970 . S
O415 Li355 1.956 . S
O415 C390 1.325 . S
H416 C358 0.929 . S
H417 C359 0.930 . S
H418 C360 0.930 . S
H419 C361 0.930 . S
H420 C363 0.930 . S
H421 C365 0.929 . S
H422 C366 0.930 . S
H423 C367 0.930 . S
H424 C370 0.930 . S
H425 C373 0.929 . S
H426 C378 0.929 . S
H427 C379 0.930 . S
H428 C386 0.929 . S
H429 C387 0.930 . S
H430 C388 0.930 . S
H431 C389 0.930 . S
H432 C391 0.929 . S
H433 C392 0.930 . S
H434 C393 0.930 . S
H435 C394 0.930 . S
H436 C398 0.929 . S
H437 C400 0.930 . S
H438 C406 0.929 . S
H439 C407 0.930 . S
Li440 N457 1.990 . S
Li440 O500 1.956 . S
Li440 O501 1.970 . S
Li440 O502 1.961 . S
Li441 N465 1.990 . S
Li441 O500 1.970 . S
Li441 O501 1.956 . S
Li441 O503 1.961 . S
Li442 N487 1.990 . S
Li442 O500 1.961 . S
Li442 O502 1.956 . S
Li442 O503 1.970 . S
Li443 N493 1.990 . S
Li443 O501 1.961 . S
Li443 O502 1.970 . S
Li443 O503 1.956 . S
C444 C446 1.348 . S
C444 C447 1.356 . S
C444 O500 1.325 . S
N445 C448 1.314 . S
N445 C449 1.279 . S
C446 C444 1.348 . S
C446 C448 1.353 . S
C446 H504 0.929 . S
C447 C444 1.356 . S
C447 C449 1.358 . S
C447 H505 0.930 . S
C448 N445 1.314 . S
C448 C446 1.353 . S
C448 H506 0.930 . S
C449 N445 1.279 . S
C449 C447 1.358 . S
C449 H507 0.930 . S
C450 C453 1.348 . S
C450 C454 1.356 . S
C450 O501 1.325 . S
C451 N452 1.279 . S
C451 C454 1.358 . S
C451 H508 0.930 . S
N452 C451 1.279 . S
N452 C455 1.314 . S
C453 C450 1.348 . S
C453 C455 1.353 . S
C453 H509 0.929 . S
C454 C450 1.356 . S
C454 C451 1.358 . S
C454 H510 0.930 . S
C455 N452 1.314 . S
C455 C453 1.353 . S
C455 H511 0.930 . S
C456 N457 1.314 . S
C456 C461 1.353 . S
C456 H462 0.930 . S
N457 Li440 1.990 . S
N457 C456 1.314 . S
N457 C459 1.279 . S
C458 C459 1.358 . S
C458 C460 1.356 . S
C458 H512 0.930 . S
C459 N457 1.279 . S
C459 C458 1.358 . S
C459 H463 0.930 . S
C460 C458 1.356 . S
C460 C461 1.348 . S
C461 C456 1.353 . S
C461 C460 1.348 . S
C461 H513 0.929 . S
H462 C456 0.930 . S
H463 C459 0.930 . S
C464 N465 1.314 . S
C464 C466 1.353 . S
C464 H470 0.930 . S
N465 Li441 1.990 . S
N465 C464 1.314 . S
N465 C468 1.279 . S
C466 C464 1.353 . S
C466 C469 1.348 . S
C466 H514 0.929 . S
C467 C468 1.358 . S
C467 C469 1.356 . S
C467 H515 0.930 . S
C468 N465 1.279 . S
C468 C467 1.358 . S
C468 H471 0.930 . S
C469 C466 1.348 . S
C469 C467 1.356 . S
H470 C464 0.930 . S
H471 C468 0.930 . S
C472 C474 1.348 . S
C472 C475 1.356 . S
C472 O502 1.325 . S
N473 C476 1.314 . S
N473 C477 1.279 . S
C474 C472 1.348 . S
C474 C476 1.353 . S
C474 H516 0.929 . S
C475 C472 1.356 . S
C475 C477 1.358 . S
C475 H517 0.930 . S
C476 N473 1.314 . S
C476 C474 1.353 . S
C476 H518 0.930 . S
C477 N473 1.279 . S
C477 C475 1.358 . S
C477 H519 0.930 . S
C478 C479 1.348 . S
C478 C480 1.356 . S
C478 O503 1.325 . S
C479 C478 1.348 . S
C479 C481 1.353 . S
C479 H520 0.929 . S
C480 C478 1.356 . S
C480 C482 1.358 . S
C480 H521 0.930 . S
C481 C479 1.353 . S
C481 N483 1.314 . S
C481 H522 0.930 . S
C482 C480 1.358 . S
C482 N483 1.279 . S
C482 H523 0.930 . S
N483 C481 1.314 . S
N483 C482 1.279 . S
C484 C486 1.353 . S
C484 N487 1.314 . S
C484 H490 0.930 . S
C485 N487 1.279 . S
C485 C488 1.358 . S
C485 H491 0.930 . S
C486 C484 1.353 . S
C486 C489 1.348 . S
C486 H524 0.929 . S
N487 Li442 1.990 . S
N487 C484 1.314 . S
N487 C485 1.279 . S
C488 C485 1.358 . S
C488 C489 1.356 . S
C488 H525 0.930 . S
C489 C486 1.348 . S
C489 C488 1.356 . S
H490 C484 0.930 . S
H491 C485 0.930 . S
C492 N493 1.314 . S
C492 C494 1.353 . S
C492 H498 0.930 . S
N493 Li443 1.990 . S
N493 C492 1.314 . S
N493 C496 1.279 . S
C494 C492 1.353 . S
C494 C497 1.348 . S
C494 H526 0.929 . S
C495 C496 1.358 . S
C495 C497 1.356 . S
C495 H527 0.930 . S
C496 N493 1.279 . S
C496 C495 1.358 . S
C496 H499 0.930 . S
C497 C494 1.348 . S
C497 C495 1.356 . S
H498 C492 0.930 . S
H499 C496 0.930 . S
O500 Li440 1.956 . S
O500 Li441 1.970 . S
O500 Li442 1.961 . S
O500 C444 1.325 . S
O501 Li440 1.970 . S
O501 Li441 1.956 . S
O501 Li443 1.961 . S
O501 C450 1.325 . S
O502 Li440 1.961 . S
O502 Li442 1.956 . S
O502 Li443 1.970 . S
O502 C472 1.325 . S
O503 Li441 1.961 . S
O503 Li442 1.970 . S
O503 Li443 1.956 . S
O503 C478 1.325 . S
H504 C446 0.929 . S
H505 C447 0.930 . S
H506 C448 0.930 . S
H507 C449 0.930 . S
H508 C451 0.930 . S
H509 C453 0.929 . S
H510 C454 0.930 . S
H511 C455 0.930 . S
H512 C458 0.930 . S
H513 C461 0.929 . S
H514 C466 0.929 . S
H515 C467 0.930 . S
H516 C474 0.929 . S
H517 C475 0.930 . S
H518 C476 0.930 . S
H519 C477 0.930 . S
H520 C479 0.929 . S
H521 C480 0.930 . S
H522 C481 0.930 . S
H523 C482 0.930 . S
H524 C486 0.929 . S
H525 C488 0.930 . S
H526 C494 0.929 . S
H527 C495 0.930 . S
Li528 N545 1.990 . S
Li528 O588 1.956 . S
Li528 O589 1.970 . S
Li528 O590 1.961 . S
Li529 N553 1.990 . S
Li529 O588 1.970 . S
Li529 O589 1.956 . S
Li529 O591 1.961 . S
Li530 N575 1.990 . S
Li530 O588 1.961 . S
Li530 O590 1.956 . S
Li530 O591 1.970 . S
Li531 N581 1.990 . S
Li531 O589 1.961 . S
Li531 O590 1.970 . S
Li531 O591 1.956 . S
C532 C534 1.348 . S
C532 C535 1.356 . S
C532 O588 1.325 . S
N533 C536 1.314 . S
N533 C537 1.279 . S
C534 C532 1.348 . S
C534 C536 1.353 . S
C534 H592 0.929 . S
C535 C532 1.356 . S
C535 C537 1.358 . S
C535 H593 0.930 . S
C536 N533 1.314 . S
C536 C534 1.353 . S
C536 H594 0.930 . S
C537 N533 1.279 . S
C537 C535 1.358 . S
C537 H595 0.930 . S
C538 C541 1.348 . S
C538 C542 1.356 . S
C538 O589 1.325 . S
C539 N540 1.279 . S
C539 C542 1.358 . S
C539 H596 0.930 . S
N540 C539 1.279 . S
N540 C543 1.314 . S
C541 C538 1.348 . S
C541 C543 1.353 . S
C541 H597 0.929 . S
C542 C538 1.356 . S
C542 C539 1.358 . S
C542 H598 0.930 . S
C543 N540 1.314 . S
C543 C541 1.353 . S
C543 H599 0.930 . S
C544 N545 1.314 . S
C544 C549 1.353 . S
C544 H550 0.930 . S
N545 Li528 1.990 . S
N545 C544 1.314 . S
N545 C547 1.279 . S
C546 C547 1.358 . S
C546 C548 1.356 . S
C546 H600 0.930 . S
C547 N545 1.279 . S
C547 C546 1.358 . S
C547 H551 0.930 . S
C548 C546 1.356 . S
C548 C549 1.348 . S
C549 C544 1.353 . S
C549 C548 1.348 . S
C549 H601 0.929 . S
H550 C544 0.930 . S
H551 C547 0.930 . S
C552 N553 1.314 . S
C552 C554 1.353 . S
C552 H558 0.930 . S
N553 Li529 1.990 . S
N553 C552 1.314 . S
N553 C556 1.279 . S
C554 C552 1.353 . S
C554 C557 1.348 . S
C554 H602 0.929 . S
C555 C556 1.358 . S
C555 C557 1.356 . S
C555 H603 0.930 . S
C556 N553 1.279 . S
C556 C555 1.358 . S
C556 H559 0.930 . S
C557 C554 1.348 . S
C557 C555 1.356 . S
H558 C552 0.930 . S
H559 C556 0.930 . S
C560 C562 1.348 . S
C560 C563 1.356 . S
C560 O590 1.325 . S
N561 C564 1.314 . S
N561 C565 1.279 . S
C562 C560 1.348 . S
C562 C564 1.353 . S
C562 H604 0.929 . S
C563 C560 1.356 . S
C563 C565 1.358 . S
C563 H605 0.930 . S
C564 N561 1.314 . S
C564 C562 1.353 . S
C564 H606 0.930 . S
C565 N561 1.279 . S
C565 C563 1.358 . S
C565 H607 0.930 . S
C566 C567 1.348 . S
C566 C568 1.356 . S
C566 O591 1.325 . S
C567 C566 1.348 . S
C567 C569 1.353 . S
C567 H608 0.929 . S
C568 C566 1.356 . S
C568 C570 1.358 . S
C568 H609 0.930 . S
C569 C567 1.353 . S
C569 N571 1.314 . S
C569 H610 0.930 . S
C570 C568 1.358 . S
C570 N571 1.279 . S
C570 H611 0.930 . S
N571 C569 1.314 . S
N571 C570 1.279 . S
C572 C574 1.353 . S
C572 N575 1.314 . S
C572 H578 0.930 . S
C573 N575 1.279 . S
C573 C576 1.358 . S
C573 H579 0.930 . S
C574 C572 1.353 . S
C574 C577 1.348 . S
C574 H612 0.929 . S
N575 Li530 1.990 . S
N575 C572 1.314 . S
N575 C573 1.279 . S
C576 C573 1.358 . S
C576 C577 1.356 . S
C576 H613 0.930 . S
C577 C574 1.348 . S
C577 C576 1.356 . S
H578 C572 0.930 . S
H579 C573 0.930 . S
C580 N581 1.314 . S
C580 C582 1.353 . S
C580 H586 0.930 . S
N581 Li531 1.990 . S
N581 C580 1.314 . S
N581 C584 1.279 . S
C582 C580 1.353 . S
C582 C585 1.348 . S
C582 H614 0.929 . S
C583 C584 1.358 . S
C583 C585 1.356 . S
C583 H615 0.930 . S
C584 N581 1.279 . S
C584 C583 1.358 . S
C584 H587 0.930 . S
C585 C582 1.348 . S
C585 C583 1.356 . S
H586 C580 0.930 . S
H587 C584 0.930 . S
O588 Li528 1.956 . S
O588 Li529 1.970 . S
O588 Li530 1.961 . S
O588 C532 1.325 . S
O589 Li528 1.970 . S
O589 Li529 1.956 . S
O589 Li531 1.961 . S
O589 C538 1.325 . S
O590 Li528 1.961 . S
O590 Li530 1.956 . S
O590 Li531 1.970 . S
O590 C560 1.325 . S
O591 Li529 1.961 . S
O591 Li530 1.970 . S
O591 Li531 1.956 . S
O591 C566 1.325 . S
H592 C534 0.929 . S
H593 C535 0.930 . S
H594 C536 0.930 . S
H595 C537 0.930 . S
H596 C539 0.930 . S
H597 C541 0.929 . S
H598 C542 0.930 . S
H599 C543 0.930 . S
H600 C546 0.930 . S
H601 C549 0.929 . S
H602 C554 0.929 . S
H603 C555 0.930 . S
H604 C562 0.929 . S
H605 C563 0.930 . S
H606 C564 0.930 . S
H607 C565 0.930 . S
H608 C567 0.929 . S
H609 C568 0.930 . S
H610 C569 0.930 . S
H611 C570 0.930 . S
H612 C574 0.929 . S
H613 C576 0.930 . S
H614 C582 0.929 . S
H615 C583 0.930 . S
Li616 N633 1.990 . S
Li616 O676 1.956 . S
Li616 O677 1.970 . S
Li616 O678 1.961 . S
Li617 N641 1.990 . S
Li617 O676 1.970 . S
Li617 O677 1.956 . S
Li617 O679 1.961 . S
Li618 N663 1.990 . S
Li618 O676 1.961 . S
Li618 O678 1.956 . S
Li618 O679 1.970 . S
Li619 N669 1.990 . S
Li619 O677 1.961 . S
Li619 O678 1.970 . S
Li619 O679 1.956 . S
C620 C622 1.348 . S
C620 C623 1.356 . S
C620 O676 1.325 . S
N621 C624 1.314 . S
N621 C625 1.279 . S
C622 C620 1.348 . S
C622 C624 1.353 . S
C622 H680 0.929 . S
C623 C620 1.356 . S
C623 C625 1.358 . S
C623 H681 0.930 . S
C624 N621 1.314 . S
C624 C622 1.353 . S
C624 H682 0.930 . S
C625 N621 1.279 . S
C625 C623 1.358 . S
C625 H683 0.930 . S
C626 C629 1.348 . S
C626 C630 1.356 . S
C626 O677 1.325 . S
C627 N628 1.279 . S
C627 C630 1.358 . S
C627 H684 0.930 . S
N628 C627 1.279 . S
N628 C631 1.314 . S
C629 C626 1.348 . S
C629 C631 1.353 . S
C629 H685 0.929 . S
C630 C626 1.356 . S
C630 C627 1.358 . S
C630 H686 0.930 . S
C631 N628 1.314 . S
C631 C629 1.353 . S
C631 H687 0.930 . S
C632 N633 1.314 . S
C632 C637 1.353 . S
C632 H638 0.930 . S
N633 Li616 1.990 . S
N633 C632 1.314 . S
N633 C635 1.279 . S
C634 C635 1.358 . S
C634 C636 1.356 . S
C634 H688 0.930 . S
C635 N633 1.279 . S
C635 C634 1.358 . S
C635 H639 0.930 . S
C636 C634 1.356 . S
C636 C637 1.348 . S
C637 C632 1.353 . S
C637 C636 1.348 . S
C637 H689 0.929 . S
H638 C632 0.930 . S
H639 C635 0.930 . S
C640 N641 1.314 . S
C640 C642 1.353 . S
C640 H646 0.930 . S
N641 Li617 1.990 . S
N641 C640 1.314 . S
N641 C644 1.279 . S
C642 C640 1.353 . S
C642 C645 1.348 . S
C642 H690 0.929 . S
C643 C644 1.358 . S
C643 C645 1.356 . S
C643 H691 0.930 . S
C644 N641 1.279 . S
C644 C643 1.358 . S
C644 H647 0.930 . S
C645 C642 1.348 . S
C645 C643 1.356 . S
H646 C640 0.930 . S
H647 C644 0.930 . S
C648 C650 1.348 . S
C648 C651 1.356 . S
C648 O678 1.325 . S
N649 C652 1.314 . S
N649 C653 1.279 . S
C650 C648 1.348 . S
C650 C652 1.353 . S
C650 H692 0.929 . S
C651 C648 1.356 . S
C651 C653 1.358 . S
C651 H693 0.930 . S
C652 N649 1.314 . S
C652 C650 1.353 . S
C652 H694 0.930 . S
C653 N649 1.279 . S
C653 C651 1.358 . S
C653 H695 0.930 . S
C654 C655 1.348 . S
C654 C656 1.356 . S
C654 O679 1.325 . S
C655 C654 1.348 . S
C655 C657 1.353 . S
C655 H696 0.929 . S
C656 C654 1.356 . S
C656 C658 1.358 . S
C656 H697 0.930 . S
C657 C655 1.353 . S
C657 N659 1.314 . S
C657 H698 0.930 . S
C658 C656 1.358 . S
C658 N659 1.279 . S
C658 H699 0.930 . S
N659 C657 1.314 . S
N659 C658 1.279 . S
C660 C662 1.353 . S
C660 N663 1.314 . S
C660 H666 0.930 . S
C661 N663 1.279 . S
C661 C664 1.358 . S
C661 H667 0.930 . S
C662 C660 1.353 . S
C662 C665 1.348 . S
C662 H700 0.929 . S
N663 Li618 1.990 . S
N663 C660 1.314 . S
N663 C661 1.279 . S
C664 C661 1.358 . S
C664 C665 1.356 . S
C664 H701 0.930 . S
C665 C662 1.348 . S
C665 C664 1.356 . S
H666 C660 0.930 . S
H667 C661 0.930 . S
C668 N669 1.314 . S
C668 C670 1.353 . S
C668 H674 0.930 . S
N669 Li619 1.990 . S
N669 C668 1.314 . S
N669 C672 1.279 . S
C670 C668 1.353 . S
C670 C673 1.348 . S
C670 H702 0.929 . S
C671 C672 1.358 . S
C671 C673 1.356 . S
C671 H703 0.930 . S
C672 N669 1.279 . S
C672 C671 1.358 . S
C672 H675 0.930 . S
C673 C670 1.348 . S
C673 C671 1.356 . S
H674 C668 0.930 . S
H675 C672 0.930 . S
O676 Li616 1.956 . S
O676 Li617 1.970 . S
O676 Li618 1.961 . S
O676 C620 1.325 . S
O677 Li616 1.970 . S
O677 Li617 1.956 . S
O677 Li619 1.961 . S
O677 C626 1.325 . S
O678 Li616 1.961 . S
O678 Li618 1.956 . S
O678 Li619 1.970 . S
O678 C648 1.325 . S
O679 Li617 1.961 . S
O679 Li618 1.970 . S
O679 Li619 1.956 . S
O679 C654 1.325 . S
H680 C622 0.929 . S
H681 C623 0.930 . S
H682 C624 0.930 . S
H683 C625 0.930 . S
H684 C627 0.930 . S
H685 C629 0.929 . S
H686 C630 0.930 . S
H687 C631 0.930 . S
H688 C634 0.930 . S
H689 C637 0.929 . S
H690 C642 0.929 . S
H691 C643 0.930 . S
H692 C650 0.929 . S
H693 C651 0.930 . S
H694 C652 0.930 . S
H695 C653 0.930 . S
H696 C655 0.929 . S
H697 C656 0.930 . S
H698 C657 0.930 . S
H699 C658 0.930 . S
H700 C662 0.929 . S
H701 C664 0.930 . S
H702 C670 0.929 . S
H703 C671 0.930 . S
Li704 N721 1.990 . S
Li704 O764 1.956 . S
Li704 O765 1.970 . S
Li704 O766 1.961 . S
Li705 N729 1.990 . S
Li705 O764 1.970 . S
Li705 O765 1.956 . S
Li705 O767 1.961 . S
Li706 N751 1.990 . S
Li706 O764 1.961 . S
Li706 O766 1.956 . S
Li706 O767 1.970 . S
Li707 N757 1.990 . S
Li707 O765 1.961 . S
Li707 O766 1.970 . S
Li707 O767 1.956 . S
C708 C710 1.348 . S
C708 C711 1.356 . S
C708 O764 1.325 . S
N709 C712 1.314 . S
N709 C713 1.279 . S
C710 C708 1.348 . S
C710 C712 1.353 . S
C710 H768 0.929 . S
C711 C708 1.356 . S
C711 C713 1.358 . S
C711 H769 0.930 . S
C712 N709 1.314 . S
C712 C710 1.353 . S
C712 H770 0.930 . S
C713 N709 1.279 . S
C713 C711 1.358 . S
C713 H771 0.930 . S
C714 C717 1.348 . S
C714 C718 1.356 . S
C714 O765 1.325 . S
C715 N716 1.279 . S
C715 C718 1.358 . S
C715 H772 0.930 . S
N716 C715 1.279 . S
N716 C719 1.314 . S
C717 C714 1.348 . S
C717 C719 1.353 . S
C717 H773 0.929 . S
C718 C714 1.356 . S
C718 C715 1.358 . S
C718 H774 0.930 . S
C719 N716 1.314 . S
C719 C717 1.353 . S
C719 H775 0.930 . S
C720 N721 1.314 . S
C720 C725 1.353 . S
C720 H726 0.930 . S
N721 Li704 1.990 . S
N721 C720 1.314 . S
N721 C723 1.279 . S
C722 C723 1.358 . S
C722 C724 1.356 . S
C722 H776 0.930 . S
C723 N721 1.279 . S
C723 C722 1.358 . S
C723 H727 0.930 . S
C724 C722 1.356 . S
C724 C725 1.348 . S
C725 C720 1.353 . S
C725 C724 1.348 . S
C725 H777 0.929 . S
H726 C720 0.930 . S
H727 C723 0.930 . S
C728 N729 1.314 . S
C728 C730 1.353 . S
C728 H734 0.930 . S
N729 Li705 1.990 . S
N729 C728 1.314 . S
N729 C732 1.279 . S
C730 C728 1.353 . S
C730 C733 1.348 . S
C730 H778 0.929 . S
C731 C732 1.358 . S
C731 C733 1.356 . S
C731 H779 0.930 . S
C732 N729 1.279 . S
C732 C731 1.358 . S
C732 H735 0.930 . S
C733 C730 1.348 . S
C733 C731 1.356 . S
H734 C728 0.930 . S
H735 C732 0.930 . S
C736 C738 1.348 . S
C736 C739 1.356 . S
C736 O766 1.325 . S
N737 C740 1.314 . S
N737 C741 1.279 . S
C738 C736 1.348 . S
C738 C740 1.353 . S
C738 H780 0.929 . S
C739 C736 1.356 . S
C739 C741 1.358 . S
C739 H781 0.930 . S
C740 N737 1.314 . S
C740 C738 1.353 . S
C740 H782 0.930 . S
C741 N737 1.279 . S
C741 C739 1.358 . S
C741 H783 0.930 . S
C742 C743 1.348 . S
C742 C744 1.356 . S
C742 O767 1.325 . S
C743 C742 1.348 . S
C743 C745 1.353 . S
C743 H784 0.929 . S
C744 C742 1.356 . S
C744 C746 1.358 . S
C744 H785 0.930 . S
C745 C743 1.353 . S
C745 N747 1.314 . S
C745 H786 0.930 . S
C746 C744 1.358 . S
C746 N747 1.279 . S
C746 H787 0.930 . S
N747 C745 1.314 . S
N747 C746 1.279 . S
C748 C750 1.353 . S
C748 N751 1.314 . S
C748 H754 0.930 . S
C749 N751 1.279 . S
C749 C752 1.358 . S
C749 H755 0.930 . S
C750 C748 1.353 . S
C750 C753 1.348 . S
C750 H788 0.929 . S
N751 Li706 1.990 . S
N751 C748 1.314 . S
N751 C749 1.279 . S
C752 C749 1.358 . S
C752 C753 1.356 . S
C752 H789 0.930 . S
C753 C750 1.348 . S
C753 C752 1.356 . S
H754 C748 0.930 . S
H755 C749 0.930 . S
C756 N757 1.314 . S
C756 C758 1.353 . S
C756 H762 0.930 . S
N757 Li707 1.990 . S
N757 C756 1.314 . S
N757 C760 1.279 . S
C758 C756 1.353 . S
C758 C761 1.348 . S
C758 H790 0.929 . S
C759 C760 1.358 . S
C759 C761 1.356 . S
C759 H791 0.930 . S
C760 N757 1.279 . S
C760 C759 1.358 . S
C760 H763 0.930 . S
C761 C758 1.348 . S
C761 C759 1.356 . S
H762 C756 0.930 . S
H763 C760 0.930 . S
O764 Li704 1.956 . S
O764 Li705 1.970 . S
O764 Li706 1.961 . S
O764 C708 1.325 . S
O765 Li704 1.970 . S
O765 Li705 1.956 . S
O765 Li707 1.961 . S
O765 C714 1.325 . S
O766 Li704 1.961 . S
O766 Li706 1.956 . S
O766 Li707 1.970 . S
O766 C736 1.325 . S
O767 Li705 1.961 . S
O767 Li706 1.970 . S
O767 Li707 1.956 . S
O767 C742 1.325 . S
H768 C710 0.929 . S
H769 C711 0.930 . S
H770 C712 0.930 . S
H771 C713 0.930 . S
H772 C715 0.930 . S
H773 C717 0.929 . S
H774 C718 0.930 . S
H775 C719 0.930 . S
H776 C722 0.930 . S
H777 C725 0.929 . S
H778 C730 0.929 . S
H779 C731 0.930 . S
H780 C738 0.929 . S
H781 C739 0.930 . S
H782 C740 0.930 . S
H783 C741 0.930 . S
H784 C743 0.929 . S
H785 C744 0.930 . S
H786 C745 0.930 . S
H787 C746 0.930 . S
H788 C750 0.929 . S
H789 C752 0.930 . S
H790 C758 0.929 . S
H791 C759 0.930 . S
Li792 N809 1.990 . S
Li792 O852 1.956 . S
Li792 O853 1.970 . S
Li792 O854 1.961 . S
Li793 N817 1.990 . S
Li793 O852 1.970 . S
Li793 O853 1.956 . S
Li793 O855 1.961 . S
Li794 N839 1.990 . S
Li794 O852 1.961 . S
Li794 O854 1.956 . S
Li794 O855 1.970 . S
Li795 N845 1.990 . S
Li795 O853 1.961 . S
Li795 O854 1.970 . S
Li795 O855 1.956 . S
C796 C798 1.348 . S
C796 C799 1.356 . S
C796 O852 1.325 . S
N797 C800 1.314 . S
N797 C801 1.279 . S
C798 C796 1.348 . S
C798 C800 1.353 . S
C798 H856 0.929 . S
C799 C796 1.356 . S
C799 C801 1.358 . S
C799 H857 0.930 . S
C800 N797 1.314 . S
C800 C798 1.353 . S
C800 H858 0.930 . S
C801 N797 1.279 . S
C801 C799 1.358 . S
C801 H859 0.930 . S
C802 C805 1.348 . S
C802 C806 1.356 . S
C802 O853 1.325 . S
C803 N804 1.279 . S
C803 C806 1.358 . S
C803 H860 0.930 . S
N804 C803 1.279 . S
N804 C807 1.314 . S
C805 C802 1.348 . S
C805 C807 1.353 . S
C805 H861 0.929 . S
C806 C802 1.356 . S
C806 C803 1.358 . S
C806 H862 0.930 . S
C807 N804 1.314 . S
C807 C805 1.353 . S
C807 H863 0.930 . S
C808 N809 1.314 . S
C808 C813 1.353 . S
C808 H814 0.930 . S
N809 Li792 1.990 . S
N809 C808 1.314 . S
N809 C811 1.279 . S
C810 C811 1.358 . S
C810 C812 1.356 . S
C810 H864 0.930 . S
C811 N809 1.279 . S
C811 C810 1.358 . S
C811 H815 0.930 . S
C812 C810 1.356 . S
C812 C813 1.348 . S
C813 C808 1.353 . S
C813 C812 1.348 . S
C813 H865 0.929 . S
H814 C808 0.930 . S
H815 C811 0.930 . S
C816 N817 1.314 . S
C816 C818 1.353 . S
C816 H822 0.930 . S
N817 Li793 1.990 . S
N817 C816 1.314 . S
N817 C820 1.279 . S
C818 C816 1.353 . S
C818 C821 1.348 . S
C818 H866 0.929 . S
C819 C820 1.358 . S
C819 C821 1.356 . S
C819 H867 0.930 . S
C820 N817 1.279 . S
C820 C819 1.358 . S
C820 H823 0.930 . S
C821 C818 1.348 . S
C821 C819 1.356 . S
H822 C816 0.930 . S
H823 C820 0.930 . S
C824 C826 1.348 . S
C824 C827 1.356 . S
C824 O854 1.325 . S
N825 C828 1.314 . S
N825 C829 1.279 . S
C826 C824 1.348 . S
C826 C828 1.353 . S
C826 H868 0.929 . S
C827 C824 1.356 . S
C827 C829 1.358 . S
C827 H869 0.930 . S
C828 N825 1.314 . S
C828 C826 1.353 . S
C828 H870 0.930 . S
C829 N825 1.279 . S
C829 C827 1.358 . S
C829 H871 0.930 . S
C830 C831 1.348 . S
C830 C832 1.356 . S
C830 O855 1.325 . S
C831 C830 1.348 . S
C831 C833 1.353 . S
C831 H872 0.929 . S
C832 C830 1.356 . S
C832 C834 1.358 . S
C832 H873 0.930 . S
C833 C831 1.353 . S
C833 N835 1.314 . S
C833 H874 0.930 . S
C834 C832 1.358 . S
C834 N835 1.279 . S
C834 H875 0.930 . S
N835 C833 1.314 . S
N835 C834 1.279 . S
C836 C838 1.353 . S
C836 N839 1.314 . S
C836 H842 0.930 . S
C837 N839 1.279 . S
C837 C840 1.358 . S
C837 H843 0.930 . S
C838 C836 1.353 . S
C838 C841 1.348 . S
C838 H876 0.929 . S
N839 Li794 1.990 . S
N839 C836 1.314 . S
N839 C837 1.279 . S
C840 C837 1.358 . S
C840 C841 1.356 . S
C840 H877 0.930 . S
C841 C838 1.348 . S
C841 C840 1.356 . S
H842 C836 0.930 . S
H843 C837 0.930 . S
C844 N845 1.314 . S
C844 C846 1.353 . S
C844 H850 0.930 . S
N845 Li795 1.990 . S
N845 C844 1.314 . S
N845 C848 1.279 . S
C846 C844 1.353 . S
C846 C849 1.348 . S
C846 H878 0.929 . S
C847 C848 1.358 . S
C847 C849 1.356 . S
C847 H879 0.930 . S
C848 N845 1.279 . S
C848 C847 1.358 . S
C848 H851 0.930 . S
C849 C846 1.348 . S
C849 C847 1.356 . S
H850 C844 0.930 . S
H851 C848 0.930 . S
O852 Li792 1.956 . S
O852 Li793 1.970 . S
O852 Li794 1.961 . S
O852 C796 1.325 . S
O853 Li792 1.970 . S
O853 Li793 1.956 . S
O853 Li795 1.961 . S
O853 C802 1.325 . S
O854 Li792 1.961 . S
O854 Li794 1.956 . S
O854 Li795 1.970 . S
O854 C824 1.325 . S
O855 Li793 1.961 . S
O855 Li794 1.970 . S
O855 Li795 1.956 . S
O855 C830 1.325 . S
H856 C798 0.929 . S
H857 C799 0.930 . S
H858 C800 0.930 . S
H859 C801 0.930 . S
H860 C803 0.930 . S
H861 C805 0.929 . S
H862 C806 0.930 . S
H863 C807 0.930 . S
H864 C810 0.930 . S
H865 C813 0.929 . S
H866 C818 0.929 . S
H867 C819 0.930 . S
H868 C826 0.929 . S
H869 C827 0.930 . S
H870 C828 0.930 . S
H871 C829 0.930 . S
H872 C831 0.929 . S
H873 C832 0.930 . S
H874 C833 0.930 . S
H875 C834 0.930 . S
H876 C838 0.929 . S
H877 C840 0.930 . S
H878 C846 0.929 . S
H879 C847 0.930 . S
Li880 N897 1.990 . S
Li880 O940 1.956 . S
Li880 O941 1.970 . S
Li880 O942 1.961 . S
Li881 N905 1.990 . S
Li881 O940 1.970 . S
Li881 O941 1.956 . S
Li881 O943 1.961 . S
Li882 N927 1.990 . S
Li882 O940 1.961 . S
Li882 O942 1.956 . S
Li882 O943 1.970 . S
Li883 N933 1.990 . S
Li883 O941 1.961 . S
Li883 O942 1.970 . S
Li883 O943 1.956 . S
C884 C886 1.348 . S
C884 C887 1.356 . S
C884 O940 1.325 . S
N885 C888 1.314 . S
N885 C889 1.279 . S
C886 C884 1.348 . S
C886 C888 1.353 . S
C886 H944 0.929 . S
C887 C884 1.356 . S
C887 C889 1.358 . S
C887 H945 0.930 . S
C888 N885 1.314 . S
C888 C886 1.353 . S
C888 H946 0.930 . S
C889 N885 1.279 . S
C889 C887 1.358 . S
C889 H947 0.930 . S
C890 C893 1.348 . S
C890 C894 1.356 . S
C890 O941 1.325 . S
C891 N892 1.279 . S
C891 C894 1.358 . S
C891 H948 0.930 . S
N892 C891 1.279 . S
N892 C895 1.314 . S
C893 C890 1.348 . S
C893 C895 1.353 . S
C893 H949 0.929 . S
C894 C890 1.356 . S
C894 C891 1.358 . S
C894 H950 0.930 . S
C895 N892 1.314 . S
C895 C893 1.353 . S
C895 H951 0.930 . S
C896 N897 1.314 . S
C896 C901 1.353 . S
C896 H902 0.930 . S
N897 Li880 1.990 . S
N897 C896 1.314 . S
N897 C899 1.279 . S
C898 C899 1.358 . S
C898 C900 1.356 . S
C898 H952 0.930 . S
C899 N897 1.279 . S
C899 C898 1.358 . S
C899 H903 0.930 . S
C900 C898 1.356 . S
C900 C901 1.348 . S
C901 C896 1.353 . S
C901 C900 1.348 . S
C901 H953 0.929 . S
H902 C896 0.930 . S
H903 C899 0.930 . S
C904 N905 1.314 . S
C904 C906 1.353 . S
C904 H910 0.930 . S
N905 Li881 1.990 . S
N905 C904 1.314 . S
N905 C908 1.279 . S
C906 C904 1.353 . S
C906 C909 1.348 . S
C906 H954 0.929 . S
C907 C908 1.358 . S
C907 C909 1.356 . S
C907 H955 0.930 . S
C908 N905 1.279 . S
C908 C907 1.358 . S
C908 H911 0.930 . S
C909 C906 1.348 . S
C909 C907 1.356 . S
H910 C904 0.930 . S
H911 C908 0.930 . S
C912 C914 1.348 . S
C912 C915 1.356 . S
C912 O942 1.325 . S
N913 C916 1.314 . S
N913 C917 1.279 . S
C914 C912 1.348 . S
C914 C916 1.353 . S
C914 H956 0.929 . S
C915 C912 1.356 . S
C915 C917 1.358 . S
C915 H957 0.930 . S
C916 N913 1.314 . S
C916 C914 1.353 . S
C916 H958 0.930 . S
C917 N913 1.279 . S
C917 C915 1.358 . S
C917 H959 0.930 . S
C918 C919 1.348 . S
C918 C920 1.356 . S
C918 O943 1.325 . S
C919 C918 1.348 . S
C919 C921 1.353 . S
C919 H960 0.929 . S
C920 C918 1.356 . S
C920 C922 1.358 . S
C920 H961 0.930 . S
C921 C919 1.353 . S
C921 N923 1.314 . S
C921 H962 0.930 . S
C922 C920 1.358 . S
C922 N923 1.279 . S
C922 H963 0.930 . S
N923 C921 1.314 . S
N923 C922 1.279 . S
C924 C926 1.353 . S
C924 N927 1.314 . S
C924 H930 0.930 . S
C925 N927 1.279 . S
C925 C928 1.358 . S
C925 H931 0.930 . S
C926 C924 1.353 . S
C926 C929 1.348 . S
C926 H964 0.929 . S
N927 Li882 1.990 . S
N927 C924 1.314 . S
N927 C925 1.279 . S
C928 C925 1.358 . S
C928 C929 1.356 . S
C928 H965 0.930 . S
C929 C926 1.348 . S
C929 C928 1.356 . S
H930 C924 0.930 . S
H931 C925 0.930 . S
C932 N933 1.314 . S
C932 C934 1.353 . S
C932 H938 0.930 . S
N933 Li883 1.990 . S
N933 C932 1.314 . S
N933 C936 1.279 . S
C934 C932 1.353 . S
C934 C937 1.348 . S
C934 H966 0.929 . S
C935 C936 1.358 . S
C935 C937 1.356 . S
C935 H967 0.930 . S
C936 N933 1.279 . S
C936 C935 1.358 . S
C936 H939 0.930 . S
C937 C934 1.348 . S
C937 C935 1.356 . S
H938 C932 0.930 . S
H939 C936 0.930 . S
O940 Li880 1.956 . S
O940 Li881 1.970 . S
O940 Li882 1.961 . S
O940 C884 1.325 . S
O941 Li880 1.970 . S
O941 Li881 1.956 . S
O941 Li883 1.961 . S
O941 C890 1.325 . S
O942 Li880 1.961 . S
O942 Li882 1.956 . S
O942 Li883 1.970 . S
O942 C912 1.325 . S
O943 Li881 1.961 . S
O943 Li882 1.970 . S
O943 Li883 1.956 . S
O943 C918 1.325 . S
H944 C886 0.929 . S
H945 C887 0.930 . S
H946 C888 0.930 . S
H947 C889 0.930 . S
H948 C891 0.930 . S
H949 C893 0.929 . S
H950 C894 0.930 . S
H951 C895 0.930 . S
H952 C898 0.930 . S
H953 C901 0.929 . S
H954 C906 0.929 . S
H955 C907 0.930 . S
H956 C914 0.929 . S
H957 C915 0.930 . S
H958 C916 0.930 . S
H959 C917 0.930 . S
H960 C919 0.929 . S
H961 C920 0.930 . S
H962 C921 0.930 . S
H963 C922 0.930 . S
H964 C926 0.929 . S
H965 C928 0.930 . S
H966 C934 0.929 . S
H967 C935 0.930 . S
Li968 N985 1.990 . S
Li968 O1028 1.956 . S
Li968 O1029 1.970 . S
Li968 O1030 1.961 . S
Li969 N993 1.990 . S
Li969 O1028 1.970 . S
Li969 O1029 1.956 . S
Li969 O1031 1.961 . S
Li970 N1015 1.990 . S
Li970 O1028 1.961 . S
Li970 O1030 1.956 . S
Li970 O1031 1.970 . S
Li971 N1021 1.990 . S
Li971 O1029 1.961 . S
Li971 O1030 1.970 . S
Li971 O1031 1.956 . S
C972 C974 1.348 . S
C972 C975 1.356 . S
C972 O1028 1.325 . S
N973 C976 1.314 . S
N973 C977 1.279 . S
C974 C972 1.348 . S
C974 C976 1.353 . S
C974 H1032 0.929 . S
C975 C972 1.356 . S
C975 C977 1.358 . S
C975 H1033 0.930 . S
C976 N973 1.314 . S
C976 C974 1.353 . S
C976 H1034 0.930 . S
C977 N973 1.279 . S
C977 C975 1.358 . S
C977 H1035 0.930 . S
C978 C981 1.348 . S
C978 C982 1.356 . S
C978 O1029 1.325 . S
C979 N980 1.279 . S
C979 C982 1.358 . S
C979 H1036 0.930 . S
N980 C979 1.279 . S
N980 C983 1.314 . S
C981 C978 1.348 . S
C981 C983 1.353 . S
C981 H1037 0.929 . S
C982 C978 1.356 . S
C982 C979 1.358 . S
C982 H1038 0.930 . S
C983 N980 1.314 . S
C983 C981 1.353 . S
C983 H1039 0.930 . S
C984 N985 1.314 . S
C984 C989 1.353 . S
C984 H990 0.930 . S
N985 Li968 1.990 . S
N985 C984 1.314 . S
N985 C987 1.279 . S
C986 C987 1.358 . S
C986 C988 1.356 . S
C986 H1040 0.930 . S
C987 N985 1.279 . S
C987 C986 1.358 . S
C987 H991 0.930 . S
C988 C986 1.356 . S
C988 C989 1.348 . S
C989 C984 1.353 . S
C989 C988 1.348 . S
C989 H1041 0.929 . S
H990 C984 0.930 . S
H991 C987 0.930 . S
C992 N993 1.314 . S
C992 C994 1.353 . S
C992 H998 0.930 . S
N993 Li969 1.990 . S
N993 C992 1.314 . S
N993 C996 1.279 . S
C994 C992 1.353 . S
C994 C997 1.348 . S
C994 H1042 0.929 . S
C995 C996 1.358 . S
C995 C997 1.356 . S
C995 H1043 0.930 . S
C996 N993 1.279 . S
C996 C995 1.358 . S
C996 H999 0.930 . S
C997 C994 1.348 . S
C997 C995 1.356 . S
H998 C992 0.930 . S
H999 C996 0.930 . S
C1000 C1002 1.348 . S
C1000 C1003 1.356 . S
C1000 O1030 1.325 . S
N1001 C1004 1.314 . S
N1001 C1005 1.279 . S
C1002 C1000 1.348 . S
C1002 C1004 1.353 . S
C1002 H1044 0.929 . S
C1003 C1000 1.356 . S
C1003 C1005 1.358 . S
C1003 H1045 0.930 . S
C1004 N1001 1.314 . S
C1004 C1002 1.353 . S
C1004 H1046 0.930 . S
C1005 N1001 1.279 . S
C1005 C1003 1.358 . S
C1005 H1047 0.930 . S
C1006 C1007 1.348 . S
C1006 C1008 1.356 . S
C1006 O1031 1.325 . S
C1007 C1006 1.348 . S
C1007 C1009 1.353 . S
C1007 H1048 0.929 . S
C1008 C1006 1.356 . S
C1008 C1010 1.358 . S
C1008 H1049 0.930 . S
C1009 C1007 1.353 . S
C1009 N1011 1.314 . S
C1009 H1050 0.930 . S
C1010 C1008 1.358 . S
C1010 N1011 1.279 . S
C1010 H1051 0.930 . S
N1011 C1009 1.314 . S
N1011 C1010 1.279 . S
C1012 C1014 1.353 . S
C1012 N1015 1.314 . S
C1012 H1018 0.930 . S
C1013 N1015 1.279 . S
C1013 C1016 1.358 . S
C1013 H1019 0.930 . S
C1014 C1012 1.353 . S
C1014 C1017 1.348 . S
C1014 H1052 0.929 . S
N1015 Li970 1.990 . S
N1015 C1012 1.314 . S
N1015 C1013 1.279 . S
C1016 C1013 1.358 . S
C1016 C1017 1.356 . S
C1016 H1053 0.930 . S
C1017 C1014 1.348 . S
C1017 C1016 1.356 . S
H1018 C1012 0.930 . S
H1019 C1013 0.930 . S
C1020 N1021 1.314 . S
C1020 C1022 1.353 . S
C1020 H1026 0.930 . S
N1021 Li971 1.990 . S
N1021 C1020 1.314 . S
N1021 C1024 1.279 . S
C1022 C1020 1.353 . S
C1022 C1025 1.348 . S
C1022 H1054 0.929 . S
C1023 C1024 1.358 . S
C1023 C1025 1.356 . S
C1023 H1055 0.930 . S
C1024 N1021 1.279 . S
C1024 C1023 1.358 . S
C1024 H1027 0.930 . S
C1025 C1022 1.348 . S
C1025 C1023 1.356 . S
H1026 C1020 0.930 . S
H1027 C1024 0.930 . S
O1028 Li968 1.956 . S
O1028 Li969 1.970 . S
O1028 Li970 1.961 . S
O1028 C972 1.325 . S
O1029 Li968 1.970 . S
O1029 Li969 1.956 . S
O1029 Li971 1.961 . S
O1029 C978 1.325 . S
O1030 Li968 1.961 . S
O1030 Li970 1.956 . S
O1030 Li971 1.970 . S
O1030 C1000 1.325 . S
O1031 Li969 1.961 . S
O1031 Li970 1.970 . S
O1031 Li971 1.956 . S
O1031 C1006 1.325 . S
H1032 C974 0.929 . S
H1033 C975 0.930 . S
H1034 C976 0.930 . S
H1035 C977 0.930 . S
H1036 C979 0.930 . S
H1037 C981 0.929 . S
H1038 C982 0.930 . S
H1039 C983 0.930 . S
H1040 C986 0.930 . S
H1041 C989 0.929 . S
H1042 C994 0.929 . S
H1043 C995 0.930 . S
H1044 C1002 0.929 . S
H1045 C1003 0.930 . S
H1046 C1004 0.930 . S
H1047 C1005 0.930 . S
H1048 C1007 0.929 . S
H1049 C1008 0.930 . S
H1050 C1009 0.930 . S
H1051 C1010 0.930 . S
H1052 C1014 0.929 . S
H1053 C1016 0.930 . S
H1054 C1022 0.929 . S
H1055 C1023 0.930 . S
Li1056 N1073 1.990 . S
Li1056 O1116 1.956 . S
Li1056 O1117 1.970 . S
Li1056 O1118 1.961 . S
Li1057 N1081 1.990 . S
Li1057 O1116 1.970 . S
Li1057 O1117 1.956 . S
Li1057 O1119 1.961 . S
Li1058 N1103 1.990 . S
Li1058 O1116 1.961 . S
Li1058 O1118 1.956 . S
Li1058 O1119 1.970 . S
Li1059 N1109 1.990 . S
Li1059 O1117 1.961 . S
Li1059 O1118 1.970 . S
Li1059 O1119 1.956 . S
C1060 C1062 1.348 . S
C1060 C1063 1.356 . S
C1060 O1116 1.325 . S
N1061 C1064 1.314 . S
N1061 C1065 1.279 . S
C1062 C1060 1.348 . S
C1062 C1064 1.353 . S
C1062 H1120 0.929 . S
C1063 C1060 1.356 . S
C1063 C1065 1.358 . S
C1063 H1121 0.930 . S
C1064 N1061 1.314 . S
C1064 C1062 1.353 . S
C1064 H1122 0.930 . S
C1065 N1061 1.279 . S
C1065 C1063 1.358 . S
C1065 H1123 0.930 . S
C1066 C1069 1.348 . S
C1066 C1070 1.356 . S
C1066 O1117 1.325 . S
C1067 N1068 1.279 . S
C1067 C1070 1.358 . S
C1067 H1124 0.930 . S
N1068 C1067 1.279 . S
N1068 C1071 1.314 . S
C1069 C1066 1.348 . S
C1069 C1071 1.353 . S
C1069 H1125 0.929 . S
C1070 C1066 1.356 . S
C1070 C1067 1.358 . S
C1070 H1126 0.930 . S
C1071 N1068 1.314 . S
C1071 C1069 1.353 . S
C1071 H1127 0.930 . S
C1072 N1073 1.314 . S
C1072 C1077 1.353 . S
C1072 H1078 0.930 . S
N1073 Li1056 1.990 . S
N1073 C1072 1.314 . S
N1073 C1075 1.279 . S
C1074 C1075 1.358 . S
C1074 C1076 1.356 . S
C1074 H1128 0.930 . S
C1075 N1073 1.279 . S
C1075 C1074 1.358 . S
C1075 H1079 0.930 . S
C1076 C1074 1.356 . S
C1076 C1077 1.348 . S
C1077 C1072 1.353 . S
C1077 C1076 1.348 . S
C1077 H1129 0.929 . S
H1078 C1072 0.930 . S
H1079 C1075 0.930 . S
C1080 N1081 1.314 . S
C1080 C1082 1.353 . S
C1080 H1086 0.930 . S
N1081 Li1057 1.990 . S
N1081 C1080 1.314 . S
N1081 C1084 1.279 . S
C1082 C1080 1.353 . S
C1082 C1085 1.348 . S
C1082 H1130 0.929 . S
C1083 C1084 1.358 . S
C1083 C1085 1.356 . S
C1083 H1131 0.930 . S
C1084 N1081 1.279 . S
C1084 C1083 1.358 . S
C1084 H1087 0.930 . S
C1085 C1082 1.348 . S
C1085 C1083 1.356 . S
H1086 C1080 0.930 . S
H1087 C1084 0.930 . S
C1088 C1090 1.348 . S
C1088 C1091 1.356 . S
C1088 O1118 1.325 . S
N1089 C1092 1.314 . S
N1089 C1093 1.279 . S
C1090 C1088 1.348 . S
C1090 C1092 1.353 . S
C1090 H1132 0.929 . S
C1091 C1088 1.356 . S
C1091 C1093 1.358 . S
C1091 H1133 0.930 . S
C1092 N1089 1.314 . S
C1092 C1090 1.353 . S
C1092 H1134 0.930 . S
C1093 N1089 1.279 . S
C1093 C1091 1.358 . S
C1093 H1135 0.930 . S
C1094 C1095 1.348 . S
C1094 C1096 1.356 . S
C1094 O1119 1.325 . S
C1095 C1094 1.348 . S
C1095 C1097 1.353 . S
C1095 H1136 0.929 . S
C1096 C1094 1.356 . S
C1096 C1098 1.358 . S
C1096 H1137 0.930 . S
C1097 C1095 1.353 . S
C1097 N1099 1.314 . S
C1097 H1138 0.930 . S
C1098 C1096 1.358 . S
C1098 N1099 1.279 . S
C1098 H1139 0.930 . S
N1099 C1097 1.314 . S
N1099 C1098 1.279 . S
C1100 C1102 1.353 . S
C1100 N1103 1.314 . S
C1100 H1106 0.930 . S
C1101 N1103 1.279 . S
C1101 C1104 1.358 . S
C1101 H1107 0.930 . S
C1102 C1100 1.353 . S
C1102 C1105 1.348 . S
C1102 H1140 0.929 . S
N1103 Li1058 1.990 . S
N1103 C1100 1.314 . S
N1103 C1101 1.279 . S
C1104 C1101 1.358 . S
C1104 C1105 1.356 . S
C1104 H1141 0.930 . S
C1105 C1102 1.348 . S
C1105 C1104 1.356 . S
H1106 C1100 0.930 . S
H1107 C1101 0.930 . S
C1108 N1109 1.314 . S
C1108 C1110 1.353 . S
C1108 H1114 0.930 . S
N1109 Li1059 1.990 . S
N1109 C1108 1.314 . S
N1109 C1112 1.279 . S
C1110 C1108 1.353 . S
C1110 C1113 1.348 . S
C1110 H1142 0.929 . S
C1111 C1112 1.358 . S
C1111 C1113 1.356 . S
C1111 H1143 0.930 . S
C1112 N1109 1.279 . S
C1112 C1111 1.358 . S
C1112 H1115 0.930 . S
C1113 C1110 1.348 . S
C1113 C1111 1.356 . S
H1114 C1108 0.930 . S
H1115 C1112 0.930 . S
O1116 Li1056 1.956 . S
O1116 Li1057 1.970 . S
O1116 Li1058 1.961 . S
O1116 C1060 1.325 . S
O1117 Li1056 1.970 . S
O1117 Li1057 1.956 . S
O1117 Li1059 1.961 . S
O1117 C1066 1.325 . S
O1118 Li1056 1.961 . S
O1118 Li1058 1.956 . S
O1118 Li1059 1.970 . S
O1118 C1088 1.325 . S
O1119 Li1057 1.961 . S
O1119 Li1058 1.970 . S
O1119 Li1059 1.956 . S
O1119 C1094 1.325 . S
H1120 C1062 0.929 . S
H1121 C1063 0.930 . S
H1122 C1064 0.930 . S
H1123 C1065 0.930 . S
H1124 C1067 0.930 . S
H1125 C1069 0.929 . S
H1126 C1070 0.930 . S
H1127 C1071 0.930 . S
H1128 C1074 0.930 . S
H1129 C1077 0.929 . S
H1130 C1082 0.929 . S
H1131 C1083 0.930 . S
H1132 C1090 0.929 . S
H1133 C1091 0.930 . S
H1134 C1092 0.930 . S
H1135 C1093 0.930 . S
H1136 C1095 0.929 . S
H1137 C1096 0.930 . S
H1138 C1097 0.930 . S
H1139 C1098 0.930 . S
H1140 C1102 0.929 . S
H1141 C1104 0.930 . S
H1142 C1110 0.929 . S
H1143 C1111 0.930 . S
Li1144 N1161 1.990 . S
Li1144 O1204 1.956 . S
Li1144 O1205 1.970 . S
Li1144 O1206 1.961 . S
Li1145 N1169 1.990 . S
Li1145 O1204 1.970 . S
Li1145 O1205 1.956 . S
Li1145 O1207 1.961 . S
Li1146 N1191 1.990 . S
Li1146 O1204 1.961 . S
Li1146 O1206 1.956 . S
Li1146 O1207 1.970 . S
Li1147 N1197 1.990 . S
Li1147 O1205 1.961 . S
Li1147 O1206 1.970 . S
Li1147 O1207 1.956 . S
C1148 C1150 1.348 . S
C1148 C1151 1.356 . S
C1148 O1204 1.325 . S
N1149 C1152 1.314 . S
N1149 C1153 1.279 . S
C1150 C1148 1.348 . S
C1150 C1152 1.353 . S
C1150 H1208 0.929 . S
C1151 C1148 1.356 . S
C1151 C1153 1.358 . S
C1151 H1209 0.930 . S
C1152 N1149 1.314 . S
C1152 C1150 1.353 . S
C1152 H1210 0.930 . S
C1153 N1149 1.279 . S
C1153 C1151 1.358 . S
C1153 H1211 0.930 . S
C1154 C1157 1.348 . S
C1154 C1158 1.356 . S
C1154 O1205 1.325 . S
C1155 N1156 1.279 . S
C1155 C1158 1.358 . S
C1155 H1212 0.930 . S
N1156 C1155 1.279 . S
N1156 C1159 1.314 . S
C1157 C1154 1.348 . S
C1157 C1159 1.353 . S
C1157 H1213 0.929 . S
C1158 C1154 1.356 . S
C1158 C1155 1.358 . S
C1158 H1214 0.930 . S
C1159 N1156 1.314 . S
C1159 C1157 1.353 . S
C1159 H1215 0.930 . S
C1160 N1161 1.314 . S
C1160 C1165 1.353 . S
C1160 H1166 0.930 . S
N1161 Li1144 1.990 . S
N1161 C1160 1.314 . S
N1161 C1163 1.279 . S
C1162 C1163 1.358 . S
C1162 C1164 1.356 . S
C1162 H1216 0.930 . S
C1163 N1161 1.279 . S
C1163 C1162 1.358 . S
C1163 H1167 0.930 . S
C1164 C1162 1.356 . S
C1164 C1165 1.348 . S
C1165 C1160 1.353 . S
C1165 C1164 1.348 . S
C1165 H1217 0.929 . S
H1166 C1160 0.930 . S
H1167 C1163 0.930 . S
C1168 N1169 1.314 . S
C1168 C1170 1.353 . S
C1168 H1174 0.930 . S
N1169 Li1145 1.990 . S
N1169 C1168 1.314 . S
N1169 C1172 1.279 . S
C1170 C1168 1.353 . S
C1170 C1173 1.348 . S
C1170 H1218 0.929 . S
C1171 C1172 1.358 . S
C1171 C1173 1.356 . S
C1171 H1219 0.930 . S
C1172 N1169 1.279 . S
C1172 C1171 1.358 . S
C1172 H1175 0.930 . S
C1173 C1170 1.348 . S
C1173 C1171 1.356 . S
H1174 C1168 0.930 . S
H1175 C1172 0.930 . S
C1176 C1178 1.348 . S
C1176 C1179 1.356 . S
C1176 O1206 1.325 . S
N1177 C1180 1.314 . S
N1177 C1181 1.279 . S
C1178 C1176 1.348 . S
C1178 C1180 1.353 . S
C1178 H1220 0.929 . S
C1179 C1176 1.356 . S
C1179 C1181 1.358 . S
C1179 H1221 0.930 . S
C1180 N1177 1.314 . S
C1180 C1178 1.353 . S
C1180 H1222 0.930 . S
C1181 N1177 1.279 . S
C1181 C1179 1.358 . S
C1181 H1223 0.930 . S
C1182 C1183 1.348 . S
C1182 C1184 1.356 . S
C1182 O1207 1.325 . S
C1183 C1182 1.348 . S
C1183 C1185 1.353 . S
C1183 H1224 0.929 . S
C1184 C1182 1.356 . S
C1184 C1186 1.358 . S
C1184 H1225 0.930 . S
C1185 C1183 1.353 . S
C1185 N1187 1.314 . S
C1185 H1226 0.930 . S
C1186 C1184 1.358 . S
C1186 N1187 1.279 . S
C1186 H1227 0.930 . S
N1187 C1185 1.314 . S
N1187 C1186 1.279 . S
C1188 C1190 1.353 . S
C1188 N1191 1.314 . S
C1188 H1194 0.930 . S
C1189 N1191 1.279 . S
C1189 C1192 1.358 . S
C1189 H1195 0.930 . S
C1190 C1188 1.353 . S
C1190 C1193 1.348 . S
C1190 H1228 0.929 . S
N1191 Li1146 1.990 . S
N1191 C1188 1.314 . S
N1191 C1189 1.279 . S
C1192 C1189 1.358 . S
C1192 C1193 1.356 . S
C1192 H1229 0.930 . S
C1193 C1190 1.348 . S
C1193 C1192 1.356 . S
H1194 C1188 0.930 . S
H1195 C1189 0.930 . S
C1196 N1197 1.314 . S
C1196 C1198 1.353 . S
C1196 H1202 0.930 . S
N1197 Li1147 1.990 . S
N1197 C1196 1.314 . S
N1197 C1200 1.279 . S
C1198 C1196 1.353 . S
C1198 C1201 1.348 . S
C1198 H1230 0.929 . S
C1199 C1200 1.358 . S
C1199 C1201 1.356 . S
C1199 H1231 0.930 . S
C1200 N1197 1.279 . S
C1200 C1199 1.358 . S
C1200 H1203 0.930 . S
C1201 C1198 1.348 . S
C1201 C1199 1.356 . S
H1202 C1196 0.930 . S
H1203 C1200 0.930 . S
O1204 Li1144 1.956 . S
O1204 Li1145 1.970 . S
O1204 Li1146 1.961 . S
O1204 C1148 1.325 . S
O1205 Li1144 1.970 . S
O1205 Li1145 1.956 . S
O1205 Li1147 1.961 . S
O1205 C1154 1.325 . S
O1206 Li1144 1.961 . S
O1206 Li1146 1.956 . S
O1206 Li1147 1.970 . S
O1206 C1176 1.325 . S
O1207 Li1145 1.961 . S
O1207 Li1146 1.970 . S
O1207 Li1147 1.956 . S
O1207 C1182 1.325 . S
H1208 C1150 0.929 . S
H1209 C1151 0.930 . S
H1210 C1152 0.930 . S
H1211 C1153 0.930 . S
H1212 C1155 0.930 . S
H1213 C1157 0.929 . S
H1214 C1158 0.930 . S
H1215 C1159 0.930 . S
H1216 C1162 0.930 . S
H1217 C1165 0.929 . S
H1218 C1170 0.929 . S
H1219 C1171 0.930 . S
H1220 C1178 0.929 . S
H1221 C1179 0.930 . S
H1222 C1180 0.930 . S
H1223 C1181 0.930 . S
H1224 C1183 0.929 . S
H1225 C1184 0.930 . S
H1226 C1185 0.930 . S
H1227 C1186 0.930 . S
H1228 C1190 0.929 . S
H1229 C1192 0.930 . S
H1230 C1198 0.929 . S
H1231 C1199 0.930 . S
Li1232 N1249 1.990 . S
Li1232 O1292 1.956 . S
Li1232 O1293 1.970 . S
Li1232 O1294 1.961 . S
Li1233 N1257 1.990 . S
Li1233 O1292 1.970 . S
Li1233 O1293 1.956 . S
Li1233 O1295 1.961 . S
Li1234 N1279 1.990 . S
Li1234 O1292 1.961 . S
Li1234 O1294 1.956 . S
Li1234 O1295 1.970 . S
Li1235 N1285 1.990 . S
Li1235 O1293 1.961 . S
Li1235 O1294 1.970 . S
Li1235 O1295 1.956 . S
C1236 C1238 1.348 . S
C1236 C1239 1.356 . S
C1236 O1292 1.325 . S
N1237 C1240 1.314 . S
N1237 C1241 1.279 . S
C1238 C1236 1.348 . S
C1238 C1240 1.353 . S
C1238 H1296 0.929 . S
C1239 C1236 1.356 . S
C1239 C1241 1.358 . S
C1239 H1297 0.930 . S
C1240 N1237 1.314 . S
C1240 C1238 1.353 . S
C1240 H1298 0.930 . S
C1241 N1237 1.279 . S
C1241 C1239 1.358 . S
C1241 H1299 0.930 . S
C1242 C1245 1.348 . S
C1242 C1246 1.356 . S
C1242 O1293 1.325 . S
C1243 N1244 1.279 . S
C1243 C1246 1.358 . S
C1243 H1300 0.930 . S
N1244 C1243 1.279 . S
N1244 C1247 1.314 . S
C1245 C1242 1.348 . S
C1245 C1247 1.353 . S
C1245 H1301 0.929 . S
C1246 C1242 1.356 . S
C1246 C1243 1.358 . S
C1246 H1302 0.930 . S
C1247 N1244 1.314 . S
C1247 C1245 1.353 . S
C1247 H1303 0.930 . S
C1248 N1249 1.314 . S
C1248 C1253 1.353 . S
C1248 H1254 0.930 . S
N1249 Li1232 1.990 . S
N1249 C1248 1.314 . S
N1249 C1251 1.279 . S
C1250 C1251 1.358 . S
C1250 C1252 1.356 . S
C1250 H1304 0.930 . S
C1251 N1249 1.279 . S
C1251 C1250 1.358 . S
C1251 H1255 0.930 . S
C1252 C1250 1.356 . S
C1252 C1253 1.348 . S
C1253 C1248 1.353 . S
C1253 C1252 1.348 . S
C1253 H1305 0.929 . S
H1254 C1248 0.930 . S
H1255 C1251 0.930 . S
C1256 N1257 1.314 . S
C1256 C1258 1.353 . S
C1256 H1262 0.930 . S
N1257 Li1233 1.990 . S
N1257 C1256 1.314 . S
N1257 C1260 1.279 . S
C1258 C1256 1.353 . S
C1258 C1261 1.348 . S
C1258 H1306 0.929 . S
C1259 C1260 1.358 . S
C1259 C1261 1.356 . S
C1259 H1307 0.930 . S
C1260 N1257 1.279 . S
C1260 C1259 1.358 . S
C1260 H1263 0.930 . S
C1261 C1258 1.348 . S
C1261 C1259 1.356 . S
H1262 C1256 0.930 . S
H1263 C1260 0.930 . S
C1264 C1266 1.348 . S
C1264 C1267 1.356 . S
C1264 O1294 1.325 . S
N1265 C1268 1.314 . S
N1265 C1269 1.279 . S
C1266 C1264 1.348 . S
C1266 C1268 1.353 . S
C1266 H1308 0.929 . S
C1267 C1264 1.356 . S
C1267 C1269 1.358 . S
C1267 H1309 0.930 . S
C1268 N1265 1.314 . S
C1268 C1266 1.353 . S
C1268 H1310 0.930 . S
C1269 N1265 1.279 . S
C1269 C1267 1.358 . S
C1269 H1311 0.930 . S
C1270 C1271 1.348 . S
C1270 C1272 1.356 . S
C1270 O1295 1.325 . S
C1271 C1270 1.348 . S
C1271 C1273 1.353 . S
C1271 H1312 0.929 . S
C1272 C1270 1.356 . S
C1272 C1274 1.358 . S
C1272 H1313 0.930 . S
C1273 C1271 1.353 . S
C1273 N1275 1.314 . S
C1273 H1314 0.930 . S
C1274 C1272 1.358 . S
C1274 N1275 1.279 . S
C1274 H1315 0.930 . S
N1275 C1273 1.314 . S
N1275 C1274 1.279 . S
C1276 C1278 1.353 . S
C1276 N1279 1.314 . S
C1276 H1282 0.930 . S
C1277 N1279 1.279 . S
C1277 C1280 1.358 . S
C1277 H1283 0.930 . S
C1278 C1276 1.353 . S
C1278 C1281 1.348 . S
C1278 H1316 0.929 . S
N1279 Li1234 1.990 . S
N1279 C1276 1.314 . S
N1279 C1277 1.279 . S
C1280 C1277 1.358 . S
C1280 C1281 1.356 . S
C1280 H1317 0.930 . S
C1281 C1278 1.348 . S
C1281 C1280 1.356 . S
H1282 C1276 0.930 . S
H1283 C1277 0.930 . S
C1284 N1285 1.314 . S
C1284 C1286 1.353 . S
C1284 H1290 0.930 . S
N1285 Li1235 1.990 . S
N1285 C1284 1.314 . S
N1285 C1288 1.279 . S
C1286 C1284 1.353 . S
C1286 C1289 1.348 . S
C1286 H1318 0.929 . S
C1287 C1288 1.358 . S
C1287 C1289 1.356 . S
C1287 H1319 0.930 . S
C1288 N1285 1.279 . S
C1288 C1287 1.358 . S
C1288 H1291 0.930 . S
C1289 C1286 1.348 . S
C1289 C1287 1.356 . S
H1290 C1284 0.930 . S
H1291 C1288 0.930 . S
O1292 Li1232 1.956 . S
O1292 Li1233 1.970 . S
O1292 Li1234 1.961 . S
O1292 C1236 1.325 . S
O1293 Li1232 1.970 . S
O1293 Li1233 1.956 . S
O1293 Li1235 1.961 . S
O1293 C1242 1.325 . S
O1294 Li1232 1.961 . S
O1294 Li1234 1.956 . S
O1294 Li1235 1.970 . S
O1294 C1264 1.325 . S
O1295 Li1233 1.961 . S
O1295 Li1234 1.970 . S
O1295 Li1235 1.956 . S
O1295 C1270 1.325 . S
H1296 C1238 0.929 . S
H1297 C1239 0.930 . S
H1298 C1240 0.930 . S
H1299 C1241 0.930 . S
H1300 C1243 0.930 . S
H1301 C1245 0.929 . S
H1302 C1246 0.930 . S
H1303 C1247 0.930 . S
H1304 C1250 0.930 . S
H1305 C1253 0.929 . S
H1306 C1258 0.929 . S
H1307 C1259 0.930 . S
H1308 C1266 0.929 . S
H1309 C1267 0.930 . S
H1310 C1268 0.930 . S
H1311 C1269 0.930 . S
H1312 C1271 0.929 . S
H1313 C1272 0.930 . S
H1314 C1273 0.930 . S
H1315 C1274 0.930 . S
H1316 C1278 0.929 . S
H1317 C1280 0.930 . S
H1318 C1286 0.929 . S
H1319 C1287 0.930 . S
Li1320 N1337 1.990 . S
Li1320 O1380 1.956 . S
Li1320 O1381 1.970 . S
Li1320 O1382 1.961 . S
Li1321 N1345 1.990 . S
Li1321 O1380 1.970 . S
Li1321 O1381 1.956 . S
Li1321 O1383 1.961 . S
Li1322 N1367 1.990 . S
Li1322 O1380 1.961 . S
Li1322 O1382 1.956 . S
Li1322 O1383 1.970 . S
Li1323 N1373 1.990 . S
Li1323 O1381 1.961 . S
Li1323 O1382 1.970 . S
Li1323 O1383 1.956 . S
C1324 C1326 1.348 . S
C1324 C1327 1.356 . S
C1324 O1380 1.325 . S
N1325 C1328 1.314 . S
N1325 C1329 1.279 . S
C1326 C1324 1.348 . S
C1326 C1328 1.353 . S
C1326 H1384 0.929 . S
C1327 C1324 1.356 . S
C1327 C1329 1.358 . S
C1327 H1385 0.930 . S
C1328 N1325 1.314 . S
C1328 C1326 1.353 . S
C1328 H1386 0.930 . S
C1329 N1325 1.279 . S
C1329 C1327 1.358 . S
C1329 H1387 0.930 . S
C1330 C1333 1.348 . S
C1330 C1334 1.356 . S
C1330 O1381 1.325 . S
C1331 N1332 1.279 . S
C1331 C1334 1.358 . S
C1331 H1388 0.930 . S
N1332 C1331 1.279 . S
N1332 C1335 1.314 . S
C1333 C1330 1.348 . S
C1333 C1335 1.353 . S
C1333 H1389 0.929 . S
C1334 C1330 1.356 . S
C1334 C1331 1.358 . S
C1334 H1390 0.930 . S
C1335 N1332 1.314 . S
C1335 C1333 1.353 . S
C1335 H1391 0.930 . S
C1336 N1337 1.314 . S
C1336 C1341 1.353 . S
C1336 H1342 0.930 . S
N1337 Li1320 1.990 . S
N1337 C1336 1.314 . S
N1337 C1339 1.279 . S
C1338 C1339 1.358 . S
C1338 C1340 1.356 . S
C1338 H1392 0.930 . S
C1339 N1337 1.279 . S
C1339 C1338 1.358 . S
C1339 H1343 0.930 . S
C1340 C1338 1.356 . S
C1340 C1341 1.348 . S
C1341 C1336 1.353 . S
C1341 C1340 1.348 . S
C1341 H1393 0.929 . S
H1342 C1336 0.930 . S
H1343 C1339 0.930 . S
C1344 N1345 1.314 . S
C1344 C1346 1.353 . S
C1344 H1350 0.930 . S
N1345 Li1321 1.990 . S
N1345 C1344 1.314 . S
N1345 C1348 1.279 . S
C1346 C1344 1.353 . S
C1346 C1349 1.348 . S
C1346 H1394 0.929 . S
C1347 C1348 1.358 . S
C1347 C1349 1.356 . S
C1347 H1395 0.930 . S
C1348 N1345 1.279 . S
C1348 C1347 1.358 . S
C1348 H1351 0.930 . S
C1349 C1346 1.348 . S
C1349 C1347 1.356 . S
H1350 C1344 0.930 . S
H1351 C1348 0.930 . S
C1352 C1354 1.348 . S
C1352 C1355 1.356 . S
C1352 O1382 1.325 . S
N1353 C1356 1.314 . S
N1353 C1357 1.279 . S
C1354 C1352 1.348 . S
C1354 C1356 1.353 . S
C1354 H1396 0.929 . S
C1355 C1352 1.356 . S
C1355 C1357 1.358 . S
C1355 H1397 0.930 . S
C1356 N1353 1.314 . S
C1356 C1354 1.353 . S
C1356 H1398 0.930 . S
C1357 N1353 1.279 . S
C1357 C1355 1.358 . S
C1357 H1399 0.930 . S
C1358 C1359 1.348 . S
C1358 C1360 1.356 . S
C1358 O1383 1.325 . S
C1359 C1358 1.348 . S
C1359 C1361 1.353 . S
C1359 H1400 0.929 . S
C1360 C1358 1.356 . S
C1360 C1362 1.358 . S
C1360 H1401 0.930 . S
C1361 C1359 1.353 . S
C1361 N1363 1.314 . S
C1361 H1402 0.930 . S
C1362 C1360 1.358 . S
C1362 N1363 1.279 . S
C1362 H1403 0.930 . S
N1363 C1361 1.314 . S
N1363 C1362 1.279 . S
C1364 C1366 1.353 . S
C1364 N1367 1.314 . S
C1364 H1370 0.930 . S
C1365 N1367 1.279 . S
C1365 C1368 1.358 . S
C1365 H1371 0.930 . S
C1366 C1364 1.353 . S
C1366 C1369 1.348 . S
C1366 H1404 0.929 . S
N1367 Li1322 1.990 . S
N1367 C1364 1.314 . S
N1367 C1365 1.279 . S
C1368 C1365 1.358 . S
C1368 C1369 1.356 . S
C1368 H1405 0.930 . S
C1369 C1366 1.348 . S
C1369 C1368 1.356 . S
H1370 C1364 0.930 . S
H1371 C1365 0.930 . S
C1372 N1373 1.314 . S
C1372 C1374 1.353 . S
C1372 H1378 0.930 . S
N1373 Li1323 1.990 . S
N1373 C1372 1.314 . S
N1373 C1376 1.279 . S
C1374 C1372 1.353 . S
C1374 C1377 1.348 . S
C1374 H1406 0.929 . S
C1375 C1376 1.358 . S
C1375 C1377 1.356 . S
C1375 H1407 0.930 . S
C1376 N1373 1.279 . S
C1376 C1375 1.358 . S
C1376 H1379 0.930 . S
C1377 C1374 1.348 . S
C1377 C1375 1.356 . S
H1378 C1372 0.930 . S
H1379 C1376 0.930 . S
O1380 Li1320 1.956 . S
O1380 Li1321 1.970 . S
O1380 Li1322 1.961 . S
O1380 C1324 1.325 . S
O1381 Li1320 1.970 . S
O1381 Li1321 1.956 . S
O1381 Li1323 1.961 . S
O1381 C1330 1.325 . S
O1382 Li1320 1.961 . S
O1382 Li1322 1.956 . S
O1382 Li1323 1.970 . S
O1382 C1352 1.325 . S
O1383 Li1321 1.961 . S
O1383 Li1322 1.970 . S
O1383 Li1323 1.956 . S
O1383 C1358 1.325 . S
H1384 C1326 0.929 . S
H1385 C1327 0.930 . S
H1386 C1328 0.930 . S
H1387 C1329 0.930 . S
H1388 C1331 0.930 . S
H1389 C1333 0.929 . S
H1390 C1334 0.930 . S
H1391 C1335 0.930 . S
H1392 C1338 0.930 . S
H1393 C1341 0.929 . S
H1394 C1346 0.929 . S
H1395 C1347 0.930 . S
H1396 C1354 0.929 . S
H1397 C1355 0.930 . S
H1398 C1356 0.930 . S
H1399 C1357 0.930 . S
H1400 C1359 0.929 . S
H1401 C1360 0.930 . S
H1402 C1361 0.930 . S
H1403 C1362 0.930 . S
H1404 C1366 0.929 . S
H1405 C1368 0.930 . S
H1406 C1374 0.929 . S
H1407 C1375 0.930 . S
Li1408 N1425 1.990 . S
Li1408 O1468 1.956 . S
Li1408 O1469 1.970 . S
Li1408 O1470 1.961 . S
Li1409 N1433 1.990 . S
Li1409 O1468 1.970 . S
Li1409 O1469 1.956 . S
Li1409 O1471 1.961 . S
Li1410 N1455 1.990 . S
Li1410 O1468 1.961 . S
Li1410 O1470 1.956 . S
Li1410 O1471 1.970 . S
Li1411 N1461 1.990 . S
Li1411 O1469 1.961 . S
Li1411 O1470 1.970 . S
Li1411 O1471 1.956 . S
C1412 C1414 1.348 . S
C1412 C1415 1.356 . S
C1412 O1468 1.325 . S
N1413 C1416 1.314 . S
N1413 C1417 1.279 . S
C1414 C1412 1.348 . S
C1414 C1416 1.353 . S
C1414 H1472 0.929 . S
C1415 C1412 1.356 . S
C1415 C1417 1.358 . S
C1415 H1473 0.930 . S
C1416 N1413 1.314 . S
C1416 C1414 1.353 . S
C1416 H1474 0.930 . S
C1417 N1413 1.279 . S
C1417 C1415 1.358 . S
C1417 H1475 0.930 . S
C1418 C1421 1.348 . S
C1418 C1422 1.356 . S
C1418 O1469 1.325 . S
C1419 N1420 1.279 . S
C1419 C1422 1.358 . S
C1419 H1476 0.930 . S
N1420 C1419 1.279 . S
N1420 C1423 1.314 . S
C1421 C1418 1.348 . S
C1421 C1423 1.353 . S
C1421 H1477 0.929 . S
C1422 C1418 1.356 . S
C1422 C1419 1.358 . S
C1422 H1478 0.930 . S
C1423 N1420 1.314 . S
C1423 C1421 1.353 . S
C1423 H1479 0.930 . S
C1424 N1425 1.314 . S
C1424 C1429 1.353 . S
C1424 H1430 0.930 . S
N1425 Li1408 1.990 . S
N1425 C1424 1.314 . S
N1425 C1427 1.279 . S
C1426 C1427 1.358 . S
C1426 C1428 1.356 . S
C1426 H1480 0.930 . S
C1427 N1425 1.279 . S
C1427 C1426 1.358 . S
C1427 H1431 0.930 . S
C1428 C1426 1.356 . S
C1428 C1429 1.348 . S
C1429 C1424 1.353 . S
C1429 C1428 1.348 . S
C1429 H1481 0.929 . S
H1430 C1424 0.930 . S
H1431 C1427 0.930 . S
C1432 N1433 1.314 . S
C1432 C1434 1.353 . S
C1432 H1438 0.930 . S
N1433 Li1409 1.990 . S
N1433 C1432 1.314 . S
N1433 C1436 1.279 . S
C1434 C1432 1.353 . S
C1434 C1437 1.348 . S
C1434 H1482 0.929 . S
C1435 C1436 1.358 . S
C1435 C1437 1.356 . S
C1435 H1483 0.930 . S
C1436 N1433 1.279 . S
C1436 C1435 1.358 . S
C1436 H1439 0.930 . S
C1437 C1434 1.348 . S
C1437 C1435 1.356 . S
H1438 C1432 0.930 . S
H1439 C1436 0.930 . S
C1440 C1442 1.348 . S
C1440 C1443 1.356 . S
C1440 O1470 1.325 . S
N1441 C1444 1.314 . S
N1441 C1445 1.279 . S
C1442 C1440 1.348 . S
C1442 C1444 1.353 . S
C1442 H1484 0.929 . S
C1443 C1440 1.356 . S
C1443 C1445 1.358 . S
C1443 H1485 0.930 . S
C1444 N1441 1.314 . S
C1444 C1442 1.353 . S
C1444 H1486 0.930 . S
C1445 N1441 1.279 . S
C1445 C1443 1.358 . S
C1445 H1487 0.930 . S
C1446 C1447 1.348 . S
C1446 C1448 1.356 . S
C1446 O1471 1.325 . S
C1447 C1446 1.348 . S
C1447 C1449 1.353 . S
C1447 H1488 0.929 . S
C1448 C1446 1.356 . S
C1448 C1450 1.358 . S
C1448 H1489 0.930 . S
C1449 C1447 1.353 . S
C1449 N1451 1.314 . S
C1449 H1490 0.930 . S
C1450 C1448 1.358 . S
C1450 N1451 1.279 . S
C1450 H1491 0.930 . S
N1451 C1449 1.314 . S
N1451 C1450 1.279 . S
C1452 C1454 1.353 . S
C1452 N1455 1.314 . S
C1452 H1458 0.930 . S
C1453 N1455 1.279 . S
C1453 C1456 1.358 . S
C1453 H1459 0.930 . S
C1454 C1452 1.353 . S
C1454 C1457 1.348 . S
C1454 H1492 0.929 . S
N1455 Li1410 1.990 . S
N1455 C1452 1.314 . S
N1455 C1453 1.279 . S
C1456 C1453 1.358 . S
C1456 C1457 1.356 . S
C1456 H1493 0.930 . S
C1457 C1454 1.348 . S
C1457 C1456 1.356 . S
H1458 C1452 0.930 . S
H1459 C1453 0.930 . S
C1460 N1461 1.314 . S
C1460 C1462 1.353 . S
C1460 H1466 0.930 . S
N1461 Li1411 1.990 . S
N1461 C1460 1.314 . S
N1461 C1464 1.279 . S
C1462 C1460 1.353 . S
C1462 C1465 1.348 . S
C1462 H1494 0.929 . S
C1463 C1464 1.358 . S
C1463 C1465 1.356 . S
C1463 H1495 0.930 . S
C1464 N1461 1.279 . S
C1464 C1463 1.358 . S
C1464 H1467 0.930 . S
C1465 C1462 1.348 . S
C1465 C1463 1.356 . S
H1466 C1460 0.930 . S
H1467 C1464 0.930 . S
O1468 Li1408 1.956 . S
O1468 Li1409 1.970 . S
O1468 Li1410 1.961 . S
O1468 C1412 1.325 . S
O1469 Li1408 1.970 . S
O1469 Li1409 1.956 . S
O1469 Li1411 1.961 . S
O1469 C1418 1.325 . S
O1470 Li1408 1.961 . S
O1470 Li1410 1.956 . S
O1470 Li1411 1.970 . S
O1470 C1440 1.325 . S
O1471 Li1409 1.961 . S
O1471 Li1410 1.970 . S
O1471 Li1411 1.956 . S
O1471 C1446 1.325 . S
H1472 C1414 0.929 . S
H1473 C1415 0.930 . S
H1474 C1416 0.930 . S
H1475 C1417 0.930 . S
H1476 C1419 0.930 . S
H1477 C1421 0.929 . S
H1478 C1422 0.930 . S
H1479 C1423 0.930 . S
H1480 C1426 0.930 . S
H1481 C1429 0.929 . S
H1482 C1434 0.929 . S
H1483 C1435 0.930 . S
H1484 C1442 0.929 . S
H1485 C1443 0.930 . S
H1486 C1444 0.930 . S
H1487 C1445 0.930 . S
H1488 C1447 0.929 . S
H1489 C1448 0.930 . S
H1490 C1449 0.930 . S
H1491 C1450 0.930 . S
H1492 C1454 0.929 . S
H1493 C1456 0.930 . S
H1494 C1462 0.929 . S
H1495 C1463 0.930 . S
Li1496 N1513 1.990 . S
Li1496 O1556 1.956 . S
Li1496 O1557 1.970 . S
Li1496 O1558 1.961 . S
Li1497 N1521 1.990 . S
Li1497 O1556 1.970 . S
Li1497 O1557 1.956 . S
Li1497 O1559 1.961 . S
Li1498 N1543 1.990 . S
Li1498 O1556 1.961 . S
Li1498 O1558 1.956 . S
Li1498 O1559 1.970 . S
Li1499 N1549 1.990 . S
Li1499 O1557 1.961 . S
Li1499 O1558 1.970 . S
Li1499 O1559 1.956 . S
C1500 C1502 1.348 . S
C1500 C1503 1.356 . S
C1500 O1556 1.325 . S
N1501 C1504 1.314 . S
N1501 C1505 1.279 . S
C1502 C1500 1.348 . S
C1502 C1504 1.353 . S
C1502 H1560 0.929 . S
C1503 C1500 1.356 . S
C1503 C1505 1.358 . S
C1503 H1561 0.930 . S
C1504 N1501 1.314 . S
C1504 C1502 1.353 . S
C1504 H1562 0.930 . S
C1505 N1501 1.279 . S
C1505 C1503 1.358 . S
C1505 H1563 0.930 . S
C1506 C1509 1.348 . S
C1506 C1510 1.356 . S
C1506 O1557 1.325 . S
C1507 N1508 1.279 . S
C1507 C1510 1.358 . S
C1507 H1564 0.930 . S
N1508 C1507 1.279 . S
N1508 C1511 1.314 . S
C1509 C1506 1.348 . S
C1509 C1511 1.353 . S
C1509 H1565 0.929 . S
C1510 C1506 1.356 . S
C1510 C1507 1.358 . S
C1510 H1566 0.930 . S
C1511 N1508 1.314 . S
C1511 C1509 1.353 . S
C1511 H1567 0.930 . S
C1512 N1513 1.314 . S
C1512 C1517 1.353 . S
C1512 H1518 0.930 . S
N1513 Li1496 1.990 . S
N1513 C1512 1.314 . S
N1513 C1515 1.279 . S
C1514 C1515 1.358 . S
C1514 C1516 1.356 . S
C1514 H1568 0.930 . S
C1515 N1513 1.279 . S
C1515 C1514 1.358 . S
C1515 H1519 0.930 . S
C1516 C1514 1.356 . S
C1516 C1517 1.348 . S
C1517 C1512 1.353 . S
C1517 C1516 1.348 . S
C1517 H1569 0.929 . S
H1518 C1512 0.930 . S
H1519 C1515 0.930 . S
C1520 N1521 1.314 . S
C1520 C1522 1.353 . S
C1520 H1526 0.930 . S
N1521 Li1497 1.990 . S
N1521 C1520 1.314 . S
N1521 C1524 1.279 . S
C1522 C1520 1.353 . S
C1522 C1525 1.348 . S
C1522 H1570 0.929 . S
C1523 C1524 1.358 . S
C1523 C1525 1.356 . S
C1523 H1571 0.930 . S
C1524 N1521 1.279 . S
C1524 C1523 1.358 . S
C1524 H1527 0.930 . S
C1525 C1522 1.348 . S
C1525 C1523 1.356 . S
H1526 C1520 0.930 . S
H1527 C1524 0.930 . S
C1528 C1530 1.348 . S
C1528 C1531 1.356 . S
C1528 O1558 1.325 . S
N1529 C1532 1.314 . S
N1529 C1533 1.279 . S
C1530 C1528 1.348 . S
C1530 C1532 1.353 . S
C1530 H1572 0.929 . S
C1531 C1528 1.356 . S
C1531 C1533 1.358 . S
C1531 H1573 0.930 . S
C1532 N1529 1.314 . S
C1532 C1530 1.353 . S
C1532 H1574 0.930 . S
C1533 N1529 1.279 . S
C1533 C1531 1.358 . S
C1533 H1575 0.930 . S
C1534 C1535 1.348 . S
C1534 C1536 1.356 . S
C1534 O1559 1.325 . S
C1535 C1534 1.348 . S
C1535 C1537 1.353 . S
C1535 H1576 0.929 . S
C1536 C1534 1.356 . S
C1536 C1538 1.358 . S
C1536 H1577 0.930 . S
C1537 C1535 1.353 . S
C1537 N1539 1.314 . S
C1537 H1578 0.930 . S
C1538 C1536 1.358 . S
C1538 N1539 1.279 . S
C1538 H1579 0.930 . S
N1539 C1537 1.314 . S
N1539 C1538 1.279 . S
C1540 C1542 1.353 . S
C1540 N1543 1.314 . S
C1540 H1546 0.930 . S
C1541 N1543 1.279 . S
C1541 C1544 1.358 . S
C1541 H1547 0.930 . S
C1542 C1540 1.353 . S
C1542 C1545 1.348 . S
C1542 H1580 0.929 . S
N1543 Li1498 1.990 . S
N1543 C1540 1.314 . S
N1543 C1541 1.279 . S
C1544 C1541 1.358 . S
C1544 C1545 1.356 . S
C1544 H1581 0.930 . S
C1545 C1542 1.348 . S
C1545 C1544 1.356 . S
H1546 C1540 0.930 . S
H1547 C1541 0.930 . S
C1548 N1549 1.314 . S
C1548 C1550 1.353 . S
C1548 H1554 0.930 . S
N1549 Li1499 1.990 . S
N1549 C1548 1.314 . S
N1549 C1552 1.279 . S
C1550 C1548 1.353 . S
C1550 C1553 1.348 . S
C1550 H1582 0.929 . S
C1551 C1552 1.358 . S
C1551 C1553 1.356 . S
C1551 H1583 0.930 . S
C1552 N1549 1.279 . S
C1552 C1551 1.358 . S
C1552 H1555 0.930 . S
C1553 C1550 1.348 . S
C1553 C1551 1.356 . S
H1554 C1548 0.930 . S
H1555 C1552 0.930 . S
O1556 Li1496 1.956 . S
O1556 Li1497 1.970 . S
O1556 Li1498 1.961 . S
O1556 C1500 1.325 . S
O1557 Li1496 1.970 . S
O1557 Li1497 1.956 . S
O1557 Li1499 1.961 . S
O1557 C1506 1.325 . S
O1558 Li1496 1.961 . S
O1558 Li1498 1.956 . S
O1558 Li1499 1.970 . S
O1558 C1528 1.325 . S
O1559 Li1497 1.961 . S
O1559 Li1498 1.970 . S
O1559 Li1499 1.956 . S
O1559 C1534 1.325 . S
H1560 C1502 0.929 . S
H1561 C1503 0.930 . S
H1562 C1504 0.930 . S
H1563 C1505 0.930 . S
H1564 C1507 0.930 . S
H1565 C1509 0.929 . S
H1566 C1510 0.930 . S
H1567 C1511 0.930 . S
H1568 C1514 0.930 . S
H1569 C1517 0.929 . S
H1570 C1522 0.929 . S
H1571 C1523 0.930 . S
H1572 C1530 0.929 . S
H1573 C1531 0.930 . S
H1574 C1532 0.930 . S
H1575 C1533 0.930 . S
H1576 C1535 0.929 . S
H1577 C1536 0.930 . S
H1578 C1537 0.930 . S
H1579 C1538 0.930 . S
H1580 C1542 0.929 . S
H1581 C1544 0.930 . S
H1582 C1550 0.929 . S
H1583 C1551 0.930 . S
Li1584 N1601 1.990 . S
Li1584 O1644 1.956 . S
Li1584 O1645 1.970 . S
Li1584 O1646 1.961 . S
Li1585 N1609 1.990 . S
Li1585 O1644 1.970 . S
Li1585 O1645 1.956 . S
Li1585 O1647 1.961 . S
Li1586 N1631 1.990 . S
Li1586 O1644 1.961 . S
Li1586 O1646 1.956 . S
Li1586 O1647 1.970 . S
Li1587 N1637 1.990 . S
Li1587 O1645 1.961 . S
Li1587 O1646 1.970 . S
Li1587 O1647 1.956 . S
C1588 C1590 1.348 . S
C1588 C1591 1.356 . S
C1588 O1644 1.325 . S
N1589 C1592 1.314 . S
N1589 C1593 1.279 . S
C1590 C1588 1.348 . S
C1590 C1592 1.353 . S
C1590 H1648 0.929 . S
C1591 C1588 1.356 . S
C1591 C1593 1.358 . S
C1591 H1649 0.930 . S
C1592 N1589 1.314 . S
C1592 C1590 1.353 . S
C1592 H1650 0.930 . S
C1593 N1589 1.279 . S
C1593 C1591 1.358 . S
C1593 H1651 0.930 . S
C1594 C1597 1.348 . S
C1594 C1598 1.356 . S
C1594 O1645 1.325 . S
C1595 N1596 1.279 . S
C1595 C1598 1.358 . S
C1595 H1652 0.930 . S
N1596 C1595 1.279 . S
N1596 C1599 1.314 . S
C1597 C1594 1.348 . S
C1597 C1599 1.353 . S
C1597 H1653 0.929 . S
C1598 C1594 1.356 . S
C1598 C1595 1.358 . S
C1598 H1654 0.930 . S
C1599 N1596 1.314 . S
C1599 C1597 1.353 . S
C1599 H1655 0.930 . S
C1600 N1601 1.314 . S
C1600 C1605 1.353 . S
C1600 H1606 0.930 . S
N1601 Li1584 1.990 . S
N1601 C1600 1.314 . S
N1601 C1603 1.279 . S
C1602 C1603 1.358 . S
C1602 C1604 1.356 . S
C1602 H1656 0.930 . S
C1603 N1601 1.279 . S
C1603 C1602 1.358 . S
C1603 H1607 0.930 . S
C1604 C1602 1.356 . S
C1604 C1605 1.348 . S
C1605 C1600 1.353 . S
C1605 C1604 1.348 . S
C1605 H1657 0.929 . S
H1606 C1600 0.930 . S
H1607 C1603 0.930 . S
C1608 N1609 1.314 . S
C1608 C1610 1.353 . S
C1608 H1614 0.930 . S
N1609 Li1585 1.990 . S
N1609 C1608 1.314 . S
N1609 C1612 1.279 . S
C1610 C1608 1.353 . S
C1610 C1613 1.348 . S
C1610 H1658 0.929 . S
C1611 C1612 1.358 . S
C1611 C1613 1.356 . S
C1611 H1659 0.930 . S
C1612 N1609 1.279 . S
C1612 C1611 1.358 . S
C1612 H1615 0.930 . S
C1613 C1610 1.348 . S
C1613 C1611 1.356 . S
H1614 C1608 0.930 . S
H1615 C1612 0.930 . S
C1616 C1618 1.348 . S
C1616 C1619 1.356 . S
C1616 O1646 1.325 . S
N1617 C1620 1.314 . S
N1617 C1621 1.279 . S
C1618 C1616 1.348 . S
C1618 C1620 1.353 . S
C1618 H1660 0.929 . S
C1619 C1616 1.356 . S
C1619 C1621 1.358 . S
C1619 H1661 0.930 . S
C1620 N1617 1.314 . S
C1620 C1618 1.353 . S
C1620 H1662 0.930 . S
C1621 N1617 1.279 . S
C1621 C1619 1.358 . S
C1621 H1663 0.930 . S
C1622 C1623 1.348 . S
C1622 C1624 1.356 . S
C1622 O1647 1.325 . S
C1623 C1622 1.348 . S
C1623 C1625 1.353 . S
C1623 H1664 0.929 . S
C1624 C1622 1.356 . S
C1624 C1626 1.358 . S
C1624 H1665 0.930 . S
C1625 C1623 1.353 . S
C1625 N1627 1.314 . S
C1625 H1666 0.930 . S
C1626 C1624 1.358 . S
C1626 N1627 1.279 . S
C1626 H1667 0.930 . S
N1627 C1625 1.314 . S
N1627 C1626 1.279 . S
C1628 C1630 1.353 . S
C1628 N1631 1.314 . S
C1628 H1634 0.930 . S
C1629 N1631 1.279 . S
C1629 C1632 1.358 . S
C1629 H1635 0.930 . S
C1630 C1628 1.353 . S
C1630 C1633 1.348 . S
C1630 H1668 0.929 . S
N1631 Li1586 1.990 . S
N1631 C1628 1.314 . S
N1631 C1629 1.279 . S
C1632 C1629 1.358 . S
C1632 C1633 1.356 . S
C1632 H1669 0.930 . S
C1633 C1630 1.348 . S
C1633 C1632 1.356 . S
H1634 C1628 0.930 . S
H1635 C1629 0.930 . S
C1636 N1637 1.314 . S
C1636 C1638 1.353 . S
C1636 H1642 0.930 . S
N1637 Li1587 1.990 . S
N1637 C1636 1.314 . S
N1637 C1640 1.279 . S
C1638 C1636 1.353 . S
C1638 C1641 1.348 . S
C1638 H1670 0.929 . S
C1639 C1640 1.358 . S
C1639 C1641 1.356 . S
C1639 H1671 0.930 . S
C1640 N1637 1.279 . S
C1640 C1639 1.358 . S
C1640 H1643 0.930 . S
C1641 C1638 1.348 . S
C1641 C1639 1.356 . S
H1642 C1636 0.930 . S
H1643 C1640 0.930 . S
O1644 Li1584 1.956 . S
O1644 Li1585 1.970 . S
O1644 Li1586 1.961 . S
O1644 C1588 1.325 . S
O1645 Li1584 1.970 . S
O1645 Li1585 1.956 . S
O1645 Li1587 1.961 . S
O1645 C1594 1.325 . S
O1646 Li1584 1.961 . S
O1646 Li1586 1.956 . S
O1646 Li1587 1.970 . S
O1646 C1616 1.325 . S
O1647 Li1585 1.961 . S
O1647 Li1586 1.970 . S
O1647 Li1587 1.956 . S
O1647 C1622 1.325 . S
H1648 C1590 0.929 . S
H1649 C1591 0.930 . S
H1650 C1592 0.930 . S
H1651 C1593 0.930 . S
H1652 C1595 0.930 . S
H1653 C1597 0.929 . S
H1654 C1598 0.930 . S
H1655 C1599 0.930 . S
H1656 C1602 0.930 . S
H1657 C1605 0.929 . S
H1658 C1610 0.929 . S
H1659 C1611 0.930 . S
H1660 C1618 0.929 . S
H1661 C1619 0.930 . S
H1662 C1620 0.930 . S
H1663 C1621 0.930 . S
H1664 C1623 0.929 . S
H1665 C1624 0.930 . S
H1666 C1625 0.930 . S
H1667 C1626 0.930 . S
H1668 C1630 0.929 . S
H1669 C1632 0.930 . S
H1670 C1638 0.929 . S
H1671 C1639 0.930 . S
Li1672 N1689 1.990 . S
Li1672 O1732 1.956 . S
Li1672 O1733 1.970 . S
Li1672 O1734 1.961 . S
Li1673 N1697 1.990 . S
Li1673 O1732 1.970 . S
Li1673 O1733 1.956 . S
Li1673 O1735 1.961 . S
Li1674 N1719 1.990 . S
Li1674 O1732 1.961 . S
Li1674 O1734 1.956 . S
Li1674 O1735 1.970 . S
Li1675 N1725 1.990 . S
Li1675 O1733 1.961 . S
Li1675 O1734 1.970 . S
Li1675 O1735 1.956 . S
C1676 C1678 1.348 . S
C1676 C1679 1.356 . S
C1676 O1732 1.325 . S
N1677 C1680 1.314 . S
N1677 C1681 1.279 . S
C1678 C1676 1.348 . S
C1678 C1680 1.353 . S
C1678 H1736 0.929 . S
C1679 C1676 1.356 . S
C1679 C1681 1.358 . S
C1679 H1737 0.930 . S
C1680 N1677 1.314 . S
C1680 C1678 1.353 . S
C1680 H1738 0.930 . S
C1681 N1677 1.279 . S
C1681 C1679 1.358 . S
C1681 H1739 0.930 . S
C1682 C1685 1.348 . S
C1682 C1686 1.356 . S
C1682 O1733 1.325 . S
C1683 N1684 1.279 . S
C1683 C1686 1.358 . S
C1683 H1740 0.930 . S
N1684 C1683 1.279 . S
N1684 C1687 1.314 . S
C1685 C1682 1.348 . S
C1685 C1687 1.353 . S
C1685 H1741 0.929 . S
C1686 C1682 1.356 . S
C1686 C1683 1.358 . S
C1686 H1742 0.930 . S
C1687 N1684 1.314 . S
C1687 C1685 1.353 . S
C1687 H1743 0.930 . S
C1688 N1689 1.314 . S
C1688 C1693 1.353 . S
C1688 H1694 0.930 . S
N1689 Li1672 1.990 . S
N1689 C1688 1.314 . S
N1689 C1691 1.279 . S
C1690 C1691 1.358 . S
C1690 C1692 1.356 . S
C1690 H1744 0.930 . S
C1691 N1689 1.279 . S
C1691 C1690 1.358 . S
C1691 H1695 0.930 . S
C1692 C1690 1.356 . S
C1692 C1693 1.348 . S
C1693 C1688 1.353 . S
C1693 C1692 1.348 . S
C1693 H1745 0.929 . S
H1694 C1688 0.930 . S
H1695 C1691 0.930 . S
C1696 N1697 1.314 . S
C1696 C1698 1.353 . S
C1696 H1702 0.930 . S
N1697 Li1673 1.990 . S
N1697 C1696 1.314 . S
N1697 C1700 1.279 . S
C1698 C1696 1.353 . S
C1698 C1701 1.348 . S
C1698 H1746 0.929 . S
C1699 C1700 1.358 . S
C1699 C1701 1.356 . S
C1699 H1747 0.930 . S
C1700 N1697 1.279 . S
C1700 C1699 1.358 . S
C1700 H1703 0.930 . S
C1701 C1698 1.348 . S
C1701 C1699 1.356 . S
H1702 C1696 0.930 . S
H1703 C1700 0.930 . S
C1704 C1706 1.348 . S
C1704 C1707 1.356 . S
C1704 O1734 1.325 . S
N1705 C1708 1.314 . S
N1705 C1709 1.279 . S
C1706 C1704 1.348 . S
C1706 C1708 1.353 . S
C1706 H1748 0.929 . S
C1707 C1704 1.356 . S
C1707 C1709 1.358 . S
C1707 H1749 0.930 . S
C1708 N1705 1.314 . S
C1708 C1706 1.353 . S
C1708 H1750 0.930 . S
C1709 N1705 1.279 . S
C1709 C1707 1.358 . S
C1709 H1751 0.930 . S
C1710 C1711 1.348 . S
C1710 C1712 1.356 . S
C1710 O1735 1.325 . S
C1711 C1710 1.348 . S
C1711 C1713 1.353 . S
C1711 H1752 0.929 . S
C1712 C1710 1.356 . S
C1712 C1714 1.358 . S
C1712 H1753 0.930 . S
C1713 C1711 1.353 . S
C1713 N1715 1.314 . S
C1713 H1754 0.930 . S
C1714 C1712 1.358 . S
C1714 N1715 1.279 . S
C1714 H1755 0.930 . S
N1715 C1713 1.314 . S
N1715 C1714 1.279 . S
C1716 C1718 1.353 . S
C1716 N1719 1.314 . S
C1716 H1722 0.930 . S
C1717 N1719 1.279 . S
C1717 C1720 1.358 . S
C1717 H1723 0.930 . S
C1718 C1716 1.353 . S
C1718 C1721 1.348 . S
C1718 H1756 0.929 . S
N1719 Li1674 1.990 . S
N1719 C1716 1.314 . S
N1719 C1717 1.279 . S
C1720 C1717 1.358 . S
C1720 C1721 1.356 . S
C1720 H1757 0.930 . S
C1721 C1718 1.348 . S
C1721 C1720 1.356 . S
H1722 C1716 0.930 . S
H1723 C1717 0.930 . S
C1724 N1725 1.314 . S
C1724 C1726 1.353 . S
C1724 H1730 0.930 . S
N1725 Li1675 1.990 . S
N1725 C1724 1.314 . S
N1725 C1728 1.279 . S
C1726 C1724 1.353 . S
C1726 C1729 1.348 . S
C1726 H1758 0.929 . S
C1727 C1728 1.358 . S
C1727 C1729 1.356 . S
C1727 H1759 0.930 . S
C1728 N1725 1.279 . S
C1728 C1727 1.358 . S
C1728 H1731 0.930 . S
C1729 C1726 1.348 . S
C1729 C1727 1.356 . S
H1730 C1724 0.930 . S
H1731 C1728 0.930 . S
O1732 Li1672 1.956 . S
O1732 Li1673 1.970 . S
O1732 Li1674 1.961 . S
O1732 C1676 1.325 . S
O1733 Li1672 1.970 . S
O1733 Li1673 1.956 . S
O1733 Li1675 1.961 . S
O1733 C1682 1.325 . S
O1734 Li1672 1.961 . S
O1734 Li1674 1.956 . S
O1734 Li1675 1.970 . S
O1734 C1704 1.325 . S
O1735 Li1673 1.961 . S
O1735 Li1674 1.970 . S
O1735 Li1675 1.956 . S
O1735 C1710 1.325 . S
H1736 C1678 0.929 . S
H1737 C1679 0.930 . S
H1738 C1680 0.930 . S
H1739 C1681 0.930 . S
H1740 C1683 0.930 . S
H1741 C1685 0.929 . S
H1742 C1686 0.930 . S
H1743 C1687 0.930 . S
H1744 C1690 0.930 . S
H1745 C1693 0.929 . S
H1746 C1698 0.929 . S
H1747 C1699 0.930 . S
H1748 C1706 0.929 . S
H1749 C1707 0.930 . S
H1750 C1708 0.930 . S
H1751 C1709 0.930 . S
H1752 C1711 0.929 . S
H1753 C1712 0.930 . S
H1754 C1713 0.930 . S
H1755 C1714 0.930 . S
H1756 C1718 0.929 . S
H1757 C1720 0.930 . S
H1758 C1726 0.929 . S
H1759 C1727 0.930 . S
Li1760 N1777 1.990 . S
Li1760 O1820 1.956 . S
Li1760 O1821 1.970 . S
Li1760 O1822 1.961 . S
Li1761 N1785 1.990 . S
Li1761 O1820 1.970 . S
Li1761 O1821 1.956 . S
Li1761 O1823 1.961 . S
Li1762 N1807 1.990 . S
Li1762 O1820 1.961 . S
Li1762 O1822 1.956 . S
Li1762 O1823 1.970 . S
Li1763 N1813 1.990 . S
Li1763 O1821 1.961 . S
Li1763 O1822 1.970 . S
Li1763 O1823 1.956 . S
C1764 C1766 1.348 . S
C1764 C1767 1.356 . S
C1764 O1820 1.325 . S
N1765 C1768 1.314 . S
N1765 C1769 1.279 . S
C1766 C1764 1.348 . S
C1766 C1768 1.353 . S
C1766 H1824 0.929 . S
C1767 C1764 1.356 . S
C1767 C1769 1.358 . S
C1767 H1825 0.930 . S
C1768 N1765 1.314 . S
C1768 C1766 1.353 . S
C1768 H1826 0.930 . S
C1769 N1765 1.279 . S
C1769 C1767 1.358 . S
C1769 H1827 0.930 . S
C1770 C1773 1.348 . S
C1770 C1774 1.356 . S
C1770 O1821 1.325 . S
C1771 N1772 1.279 . S
C1771 C1774 1.358 . S
C1771 H1828 0.930 . S
N1772 C1771 1.279 . S
N1772 C1775 1.314 . S
C1773 C1770 1.348 . S
C1773 C1775 1.353 . S
C1773 H1829 0.929 . S
C1774 C1770 1.356 . S
C1774 C1771 1.358 . S
C1774 H1830 0.930 . S
C1775 N1772 1.314 . S
C1775 C1773 1.353 . S
C1775 H1831 0.930 . S
C1776 N1777 1.314 . S
C1776 C1781 1.353 . S
C1776 H1782 0.930 . S
N1777 Li1760 1.990 . S
N1777 C1776 1.314 . S
N1777 C1779 1.279 . S
C1778 C1779 1.358 . S
C1778 C1780 1.356 . S
C1778 H1832 0.930 . S
C1779 N1777 1.279 . S
C1779 C1778 1.358 . S
C1779 H1783 0.930 . S
C1780 C1778 1.356 . S
C1780 C1781 1.348 . S
C1781 C1776 1.353 . S
C1781 C1780 1.348 . S
C1781 H1833 0.929 . S
H1782 C1776 0.930 . S
H1783 C1779 0.930 . S
C1784 N1785 1.314 . S
C1784 C1786 1.353 . S
C1784 H1790 0.930 . S
N1785 Li1761 1.990 . S
N1785 C1784 1.314 . S
N1785 C1788 1.279 . S
C1786 C1784 1.353 . S
C1786 C1789 1.348 . S
C1786 H1834 0.929 . S
C1787 C1788 1.358 . S
C1787 C1789 1.356 . S
C1787 H1835 0.930 . S
C1788 N1785 1.279 . S
C1788 C1787 1.358 . S
C1788 H1791 0.930 . S
C1789 C1786 1.348 . S
C1789 C1787 1.356 . S
H1790 C1784 0.930 . S
H1791 C1788 0.930 . S
C1792 C1794 1.348 . S
C1792 C1795 1.356 . S
C1792 O1822 1.325 . S
N1793 C1796 1.314 . S
N1793 C1797 1.279 . S
C1794 C1792 1.348 . S
C1794 C1796 1.353 . S
C1794 H1836 0.929 . S
C1795 C1792 1.356 . S
C1795 C1797 1.358 . S
C1795 H1837 0.930 . S
C1796 N1793 1.314 . S
C1796 C1794 1.353 . S
C1796 H1838 0.930 . S
C1797 N1793 1.279 . S
C1797 C1795 1.358 . S
C1797 H1839 0.930 . S
C1798 C1799 1.348 . S
C1798 C1800 1.356 . S
C1798 O1823 1.325 . S
C1799 C1798 1.348 . S
C1799 C1801 1.353 . S
C1799 H1840 0.929 . S
C1800 C1798 1.356 . S
C1800 C1802 1.358 . S
C1800 H1841 0.930 . S
C1801 C1799 1.353 . S
C1801 N1803 1.314 . S
C1801 H1842 0.930 . S
C1802 C1800 1.358 . S
C1802 N1803 1.279 . S
C1802 H1843 0.930 . S
N1803 C1801 1.314 . S
N1803 C1802 1.279 . S
C1804 C1806 1.353 . S
C1804 N1807 1.314 . S
C1804 H1810 0.930 . S
C1805 N1807 1.279 . S
C1805 C1808 1.358 . S
C1805 H1811 0.930 . S
C1806 C1804 1.353 . S
C1806 C1809 1.348 . S
C1806 H1844 0.929 . S
N1807 Li1762 1.990 . S
N1807 C1804 1.314 . S
N1807 C1805 1.279 . S
C1808 C1805 1.358 . S
C1808 C1809 1.356 . S
C1808 H1845 0.930 . S
C1809 C1806 1.348 . S
C1809 C1808 1.356 . S
H1810 C1804 0.930 . S
H1811 C1805 0.930 . S
C1812 N1813 1.314 . S
C1812 C1814 1.353 . S
C1812 H1818 0.930 . S
N1813 Li1763 1.990 . S
N1813 C1812 1.314 . S
N1813 C1816 1.279 . S
C1814 C1812 1.353 . S
C1814 C1817 1.348 . S
C1814 H1846 0.929 . S
C1815 C1816 1.358 . S
C1815 C1817 1.356 . S
C1815 H1847 0.930 . S
C1816 N1813 1.279 . S
C1816 C1815 1.358 . S
C1816 H1819 0.930 . S
C1817 C1814 1.348 . S
C1817 C1815 1.356 . S
H1818 C1812 0.930 . S
H1819 C1816 0.930 . S
O1820 Li1760 1.956 . S
O1820 Li1761 1.970 . S
O1820 Li1762 1.961 . S
O1820 C1764 1.325 . S
O1821 Li1760 1.970 . S
O1821 Li1761 1.956 . S
O1821 Li1763 1.961 . S
O1821 C1770 1.325 . S
O1822 Li1760 1.961 . S
O1822 Li1762 1.956 . S
O1822 Li1763 1.970 . S
O1822 C1792 1.325 . S
O1823 Li1761 1.961 . S
O1823 Li1762 1.970 . S
O1823 Li1763 1.956 . S
O1823 C1798 1.325 . S
H1824 C1766 0.929 . S
H1825 C1767 0.930 . S
H1826 C1768 0.930 . S
H1827 C1769 0.930 . S
H1828 C1771 0.930 . S
H1829 C1773 0.929 . S
H1830 C1774 0.930 . S
H1831 C1775 0.930 . S
H1832 C1778 0.930 . S
H1833 C1781 0.929 . S
H1834 C1786 0.929 . S
H1835 C1787 0.930 . S
H1836 C1794 0.929 . S
H1837 C1795 0.930 . S
H1838 C1796 0.930 . S
H1839 C1797 0.930 . S
H1840 C1799 0.929 . S
H1841 C1800 0.930 . S
H1842 C1801 0.930 . S
H1843 C1802 0.930 . S
H1844 C1806 0.929 . S
H1845 C1808 0.930 . S
H1846 C1814 0.929 . S
H1847 C1815 0.930 . S
Li1848 N1865 1.990 . S
Li1848 O1908 1.956 . S
Li1848 O1909 1.970 . S
Li1848 O1910 1.961 . S
Li1849 N1873 1.990 . S
Li1849 O1908 1.970 . S
Li1849 O1909 1.956 . S
Li1849 O1911 1.961 . S
Li1850 N1895 1.990 . S
Li1850 O1908 1.961 . S
Li1850 O1910 1.956 . S
Li1850 O1911 1.970 . S
Li1851 N1901 1.990 . S
Li1851 O1909 1.961 . S
Li1851 O1910 1.970 . S
Li1851 O1911 1.956 . S
C1852 C1854 1.348 . S
C1852 C1855 1.356 . S
C1852 O1908 1.325 . S
N1853 C1856 1.314 . S
N1853 C1857 1.279 . S
C1854 C1852 1.348 . S
C1854 C1856 1.353 . S
C1854 H1912 0.929 . S
C1855 C1852 1.356 . S
C1855 C1857 1.358 . S
C1855 H1913 0.930 . S
C1856 N1853 1.314 . S
C1856 C1854 1.353 . S
C1856 H1914 0.930 . S
C1857 N1853 1.279 . S
C1857 C1855 1.358 . S
C1857 H1915 0.930 . S
C1858 C1861 1.348 . S
C1858 C1862 1.356 . S
C1858 O1909 1.325 . S
C1859 N1860 1.279 . S
C1859 C1862 1.358 . S
C1859 H1916 0.930 . S
N1860 C1859 1.279 . S
N1860 C1863 1.314 . S
C1861 C1858 1.348 . S
C1861 C1863 1.353 . S
C1861 H1917 0.929 . S
C1862 C1858 1.356 . S
C1862 C1859 1.358 . S
C1862 H1918 0.930 . S
C1863 N1860 1.314 . S
C1863 C1861 1.353 . S
C1863 H1919 0.930 . S
C1864 N1865 1.314 . S
C1864 C1869 1.353 . S
C1864 H1870 0.930 . S
N1865 Li1848 1.990 . S
N1865 C1864 1.314 . S
N1865 C1867 1.279 . S
C1866 C1867 1.358 . S
C1866 C1868 1.356 . S
C1866 H1920 0.930 . S
C1867 N1865 1.279 . S
C1867 C1866 1.358 . S
C1867 H1871 0.930 . S
C1868 C1866 1.356 . S
C1868 C1869 1.348 . S
C1869 C1864 1.353 . S
C1869 C1868 1.348 . S
C1869 H1921 0.929 . S
H1870 C1864 0.930 . S
H1871 C1867 0.930 . S
C1872 N1873 1.314 . S
C1872 C1874 1.353 . S
C1872 H1878 0.930 . S
N1873 Li1849 1.990 . S
N1873 C1872 1.314 . S
N1873 C1876 1.279 . S
C1874 C1872 1.353 . S
C1874 C1877 1.348 . S
C1874 H1922 0.929 . S
C1875 C1876 1.358 . S
C1875 C1877 1.356 . S
C1875 H1923 0.930 . S
C1876 N1873 1.279 . S
C1876 C1875 1.358 . S
C1876 H1879 0.930 . S
C1877 C1874 1.348 . S
C1877 C1875 1.356 . S
H1878 C1872 0.930 . S
H1879 C1876 0.930 . S
C1880 C1882 1.348 . S
C1880 C1883 1.356 . S
C1880 O1910 1.325 . S
N1881 C1884 1.314 . S
N1881 C1885 1.279 . S
C1882 C1880 1.348 . S
C1882 C1884 1.353 . S
C1882 H1924 0.929 . S
C1883 C1880 1.356 . S
C1883 C1885 1.358 . S
C1883 H1925 0.930 . S
C1884 N1881 1.314 . S
C1884 C1882 1.353 . S
C1884 H1926 0.930 . S
C1885 N1881 1.279 . S
C1885 C1883 1.358 . S
C1885 H1927 0.930 . S
C1886 C1887 1.348 . S
C1886 C1888 1.356 . S
C1886 O1911 1.325 . S
C1887 C1886 1.348 . S
C1887 C1889 1.353 . S
C1887 H1928 0.929 . S
C1888 C1886 1.356 . S
C1888 C1890 1.358 . S
C1888 H1929 0.930 . S
C1889 C1887 1.353 . S
C1889 N1891 1.314 . S
C1889 H1930 0.930 . S
C1890 C1888 1.358 . S
C1890 N1891 1.279 . S
C1890 H1931 0.930 . S
N1891 C1889 1.314 . S
N1891 C1890 1.279 . S
C1892 C1894 1.353 . S
C1892 N1895 1.314 . S
C1892 H1898 0.930 . S
C1893 N1895 1.279 . S
C1893 C1896 1.358 . S
C1893 H1899 0.930 . S
C1894 C1892 1.353 . S
C1894 C1897 1.348 . S
C1894 H1932 0.929 . S
N1895 Li1850 1.990 . S
N1895 C1892 1.314 . S
N1895 C1893 1.279 . S
C1896 C1893 1.358 . S
C1896 C1897 1.356 . S
C1896 H1933 0.930 . S
C1897 C1894 1.348 . S
C1897 C1896 1.356 . S
H1898 C1892 0.930 . S
H1899 C1893 0.930 . S
C1900 N1901 1.314 . S
C1900 C1902 1.353 . S
C1900 H1906 0.930 . S
N1901 Li1851 1.990 . S
N1901 C1900 1.314 . S
N1901 C1904 1.279 . S
C1902 C1900 1.353 . S
C1902 C1905 1.348 . S
C1902 H1934 0.929 . S
C1903 C1904 1.358 . S
C1903 C1905 1.356 . S
C1903 H1935 0.930 . S
C1904 N1901 1.279 . S
C1904 C1903 1.358 . S
C1904 H1907 0.930 . S
C1905 C1902 1.348 . S
C1905 C1903 1.356 . S
H1906 C1900 0.930 . S
H1907 C1904 0.930 . S
O1908 Li1848 1.956 . S
O1908 Li1849 1.970 . S
O1908 Li1850 1.961 . S
O1908 C1852 1.325 . S
O1909 Li1848 1.970 . S
O1909 Li1849 1.956 . S
O1909 Li1851 1.961 . S
O1909 C1858 1.325 . S
O1910 Li1848 1.961 . S
O1910 Li1850 1.956 . S
O1910 Li1851 1.970 . S
O1910 C1880 1.325 . S
O1911 Li1849 1.961 . S
O1911 Li1850 1.970 . S
O1911 Li1851 1.956 . S
O1911 C1886 1.325 . S
H1912 C1854 0.929 . S
H1913 C1855 0.930 . S
H1914 C1856 0.930 . S
H1915 C1857 0.930 . S
H1916 C1859 0.930 . S
H1917 C1861 0.929 . S
H1918 C1862 0.930 . S
H1919 C1863 0.930 . S
H1920 C1866 0.930 . S
H1921 C1869 0.929 . S
H1922 C1874 0.929 . S
H1923 C1875 0.930 . S
H1924 C1882 0.929 . S
H1925 C1883 0.930 . S
H1926 C1884 0.930 . S
H1927 C1885 0.930 . S
H1928 C1887 0.929 . S
H1929 C1888 0.930 . S
H1930 C1889 0.930 . S
H1931 C1890 0.930 . S
H1932 C1894 0.929 . S
H1933 C1896 0.930 . S
H1934 C1902 0.929 . S
H1935 C1903 0.930 . S
Li1936 N1953 1.990 . S
Li1936 O1996 1.956 . S
Li1936 O1997 1.970 . S
Li1936 O1998 1.961 . S
Li1937 N1961 1.990 . S
Li1937 O1996 1.970 . S
Li1937 O1997 1.956 . S
Li1937 O1999 1.961 . S
Li1938 N1983 1.990 . S
Li1938 O1996 1.961 . S
Li1938 O1998 1.956 . S
Li1938 O1999 1.970 . S
Li1939 N1989 1.990 . S
Li1939 O1997 1.961 . S
Li1939 O1998 1.970 . S
Li1939 O1999 1.956 . S
C1940 C1942 1.348 . S
C1940 C1943 1.356 . S
C1940 O1996 1.325 . S
N1941 C1944 1.314 . S
N1941 C1945 1.279 . S
C1942 C1940 1.348 . S
C1942 C1944 1.353 . S
C1942 H2000 0.929 . S
C1943 C1940 1.356 . S
C1943 C1945 1.358 . S
C1943 H2001 0.930 . S
C1944 N1941 1.314 . S
C1944 C1942 1.353 . S
C1944 H2002 0.930 . S
C1945 N1941 1.279 . S
C1945 C1943 1.358 . S
C1945 H2003 0.930 . S
C1946 C1949 1.348 . S
C1946 C1950 1.356 . S
C1946 O1997 1.325 . S
C1947 N1948 1.279 . S
C1947 C1950 1.358 . S
C1947 H2004 0.930 . S
N1948 C1947 1.279 . S
N1948 C1951 1.314 . S
C1949 C1946 1.348 . S
C1949 C1951 1.353 . S
C1949 H2005 0.929 . S
C1950 C1946 1.356 . S
C1950 C1947 1.358 . S
C1950 H2006 0.930 . S
C1951 N1948 1.314 . S
C1951 C1949 1.353 . S
C1951 H2007 0.930 . S
C1952 N1953 1.314 . S
C1952 C1957 1.353 . S
C1952 H1958 0.930 . S
N1953 Li1936 1.990 . S
N1953 C1952 1.314 . S
N1953 C1955 1.279 . S
C1954 C1955 1.358 . S
C1954 C1956 1.356 . S
C1954 H2008 0.930 . S
C1955 N1953 1.279 . S
C1955 C1954 1.358 . S
C1955 H1959 0.930 . S
C1956 C1954 1.356 . S
C1956 C1957 1.348 . S
C1957 C1952 1.353 . S
C1957 C1956 1.348 . S
C1957 H2009 0.929 . S
H1958 C1952 0.930 . S
H1959 C1955 0.930 . S
C1960 N1961 1.314 . S
C1960 C1962 1.353 . S
C1960 H1966 0.930 . S
N1961 Li1937 1.990 . S
N1961 C1960 1.314 . S
N1961 C1964 1.279 . S
C1962 C1960 1.353 . S
C1962 C1965 1.348 . S
C1962 H2010 0.929 . S
C1963 C1964 1.358 . S
C1963 C1965 1.356 . S
C1963 H2011 0.930 . S
C1964 N1961 1.279 . S
C1964 C1963 1.358 . S
C1964 H1967 0.930 . S
C1965 C1962 1.348 . S
C1965 C1963 1.356 . S
H1966 C1960 0.930 . S
H1967 C1964 0.930 . S
C1968 C1970 1.348 . S
C1968 C1971 1.356 . S
C1968 O1998 1.325 . S
N1969 C1972 1.314 . S
N1969 C1973 1.279 . S
C1970 C1968 1.348 . S
C1970 C1972 1.353 . S
C1970 H2012 0.929 . S
C1971 C1968 1.356 . S
C1971 C1973 1.358 . S
C1971 H2013 0.930 . S
C1972 N1969 1.314 . S
C1972 C1970 1.353 . S
C1972 H2014 0.930 . S
C1973 N1969 1.279 . S
C1973 C1971 1.358 . S
C1973 H2015 0.930 . S
C1974 C1975 1.348 . S
C1974 C1976 1.356 . S
C1974 O1999 1.325 . S
C1975 C1974 1.348 . S
C1975 C1977 1.353 . S
C1975 H2016 0.929 . S
C1976 C1974 1.356 . S
C1976 C1978 1.358 . S
C1976 H2017 0.930 . S
C1977 C1975 1.353 . S
C1977 N1979 1.314 . S
C1977 H2018 0.930 . S
C1978 C1976 1.358 . S
C1978 N1979 1.279 . S
C1978 H2019 0.930 . S
N1979 C1977 1.314 . S
N1979 C1978 1.279 . S
C1980 C1982 1.353 . S
C1980 N1983 1.314 . S
C1980 H1986 0.930 . S
C1981 N1983 1.279 . S
C1981 C1984 1.358 . S
C1981 H1987 0.930 . S
C1982 C1980 1.353 . S
C1982 C1985 1.348 . S
C1982 H2020 0.929 . S
N1983 Li1938 1.990 . S
N1983 C1980 1.314 . S
N1983 C1981 1.279 . S
C1984 C1981 1.358 . S
C1984 C1985 1.356 . S
C1984 H2021 0.930 . S
C1985 C1982 1.348 . S
C1985 C1984 1.356 . S
H1986 C1980 0.930 . S
H1987 C1981 0.930 . S
C1988 N1989 1.314 . S
C1988 C1990 1.353 . S
C1988 H1994 0.930 . S
N1989 Li1939 1.990 . S
N1989 C1988 1.314 . S
N1989 C1992 1.279 . S
C1990 C1988 1.353 . S
C1990 C1993 1.348 . S
C1990 H2022 0.929 . S
C1991 C1992 1.358 . S
C1991 C1993 1.356 . S
C1991 H2023 0.930 . S
C1992 N1989 1.279 . S
C1992 C1991 1.358 . S
C1992 H1995 0.930 . S
C1993 C1990 1.348 . S
C1993 C1991 1.356 . S
H1994 C1988 0.930 . S
H1995 C1992 0.930 . S
O1996 Li1936 1.956 . S
O1996 Li1937 1.970 . S
O1996 Li1938 1.961 . S
O1996 C1940 1.325 . S
O1997 Li1936 1.970 . S
O1997 Li1937 1.956 . S
O1997 Li1939 1.961 . S
O1997 C1946 1.325 . S
O1998 Li1936 1.961 . S
O1998 Li1938 1.956 . S
O1998 Li1939 1.970 . S
O1998 C1968 1.325 . S
O1999 Li1937 1.961 . S
O1999 Li1938 1.970 . S
O1999 Li1939 1.956 . S
O1999 C1974 1.325 . S
H2000 C1942 0.929 . S
H2001 C1943 0.930 . S
H2002 C1944 0.930 . S
H2003 C1945 0.930 . S
H2004 C1947 0.930 . S
H2005 C1949 0.929 . S
H2006 C1950 0.930 . S
H2007 C1951 0.930 . S
H2008 C1954 0.930 . S
H2009 C1957 0.929 . S
H2010 C1962 0.929 . S
H2011 C1963 0.930 . S
H2012 C1970 0.929 . S
H2013 C1971 0.930 . S
H2014 C1972 0.930 . S
H2015 C1973 0.930 . S
H2016 C1975 0.929 . S
H2017 C1976 0.930 . S
H2018 C1977 0.930 . S
H2019 C1978 0.930 . S
H2020 C1982 0.929 . S
H2021 C1984 0.930 . S
H2022 C1990 0.929 . S
H2023 C1991 0.930 . S
Li2024 N2041 1.990 . S
Li2024 O2084 1.956 . S
Li2024 O2085 1.970 . S
Li2024 O2086 1.961 . S
Li2025 N2049 1.990 . S
Li2025 O2084 1.970 . S
Li2025 O2085 1.956 . S
Li2025 O2087 1.961 . S
Li2026 N2071 1.990 . S
Li2026 O2084 1.961 . S
Li2026 O2086 1.956 . S
Li2026 O2087 1.970 . S
Li2027 N2077 1.990 . S
Li2027 O2085 1.961 . S
Li2027 O2086 1.970 . S
Li2027 O2087 1.956 . S
C2028 C2030 1.348 . S
C2028 C2031 1.356 . S
C2028 O2084 1.325 . S
N2029 C2032 1.314 . S
N2029 C2033 1.279 . S
C2030 C2028 1.348 . S
C2030 C2032 1.353 . S
C2030 H2088 0.929 . S
C2031 C2028 1.356 . S
C2031 C2033 1.358 . S
C2031 H2089 0.930 . S
C2032 N2029 1.314 . S
C2032 C2030 1.353 . S
C2032 H2090 0.930 . S
C2033 N2029 1.279 . S
C2033 C2031 1.358 . S
C2033 H2091 0.930 . S
C2034 C2037 1.348 . S
C2034 C2038 1.356 . S
C2034 O2085 1.325 . S
C2035 N2036 1.279 . S
C2035 C2038 1.358 . S
C2035 H2092 0.930 . S
N2036 C2035 1.279 . S
N2036 C2039 1.314 . S
C2037 C2034 1.348 . S
C2037 C2039 1.353 . S
C2037 H2093 0.929 . S
C2038 C2034 1.356 . S
C2038 C2035 1.358 . S
C2038 H2094 0.930 . S
C2039 N2036 1.314 . S
C2039 C2037 1.353 . S
C2039 H2095 0.930 . S
C2040 N2041 1.314 . S
C2040 C2045 1.353 . S
C2040 H2046 0.930 . S
N2041 Li2024 1.990 . S
N2041 C2040 1.314 . S
N2041 C2043 1.279 . S
C2042 C2043 1.358 . S
C2042 C2044 1.356 . S
C2042 H2096 0.930 . S
C2043 N2041 1.279 . S
C2043 C2042 1.358 . S
C2043 H2047 0.930 . S
C2044 C2042 1.356 . S
C2044 C2045 1.348 . S
C2045 C2040 1.353 . S
C2045 C2044 1.348 . S
C2045 H2097 0.929 . S
H2046 C2040 0.930 . S
H2047 C2043 0.930 . S
C2048 N2049 1.314 . S
C2048 C2050 1.353 . S
C2048 H2054 0.930 . S
N2049 Li2025 1.990 . S
N2049 C2048 1.314 . S
N2049 C2052 1.279 . S
C2050 C2048 1.353 . S
C2050 C2053 1.348 . S
C2050 H2098 0.929 . S
C2051 C2052 1.358 . S
C2051 C2053 1.356 . S
C2051 H2099 0.930 . S
C2052 N2049 1.279 . S
C2052 C2051 1.358 . S
C2052 H2055 0.930 . S
C2053 C2050 1.348 . S
C2053 C2051 1.356 . S
H2054 C2048 0.930 . S
H2055 C2052 0.930 . S
C2056 C2058 1.348 . S
C2056 C2059 1.356 . S
C2056 O2086 1.325 . S
N2057 C2060 1.314 . S
N2057 C2061 1.279 . S
C2058 C2056 1.348 . S
C2058 C2060 1.353 . S
C2058 H2100 0.929 . S
C2059 C2056 1.356 . S
C2059 C2061 1.358 . S
C2059 H2101 0.930 . S
C2060 N2057 1.314 . S
C2060 C2058 1.353 . S
C2060 H2102 0.930 . S
C2061 N2057 1.279 . S
C2061 C2059 1.358 . S
C2061 H2103 0.930 . S
C2062 C2063 1.348 . S
C2062 C2064 1.356 . S
C2062 O2087 1.325 . S
C2063 C2062 1.348 . S
C2063 C2065 1.353 . S
C2063 H2104 0.929 . S
C2064 C2062 1.356 . S
C2064 C2066 1.358 . S
C2064 H2105 0.930 . S
C2065 C2063 1.353 . S
C2065 N2067 1.314 . S
C2065 H2106 0.930 . S
C2066 C2064 1.358 . S
C2066 N2067 1.279 . S
C2066 H2107 0.930 . S
N2067 C2065 1.314 . S
N2067 C2066 1.279 . S
C2068 C2070 1.353 . S
C2068 N2071 1.314 . S
C2068 H2074 0.930 . S
C2069 N2071 1.279 . S
C2069 C2072 1.358 . S
C2069 H2075 0.930 . S
C2070 C2068 1.353 . S
C2070 C2073 1.348 . S
C2070 H2108 0.929 . S
N2071 Li2026 1.990 . S
N2071 C2068 1.314 . S
N2071 C2069 1.279 . S
C2072 C2069 1.358 . S
C2072 C2073 1.356 . S
C2072 H2109 0.930 . S
C2073 C2070 1.348 . S
C2073 C2072 1.356 . S
H2074 C2068 0.930 . S
H2075 C2069 0.930 . S
C2076 N2077 1.314 . S
C2076 C2078 1.353 . S
C2076 H2082 0.930 . S
N2077 Li2027 1.990 . S
N2077 C2076 1.314 . S
N2077 C2080 1.279 . S
C2078 C2076 1.353 . S
C2078 C2081 1.348 . S
C2078 H2110 0.929 . S
C2079 C2080 1.358 . S
C2079 C2081 1.356 . S
C2079 H2111 0.930 . S
C2080 N2077 1.279 . S
C2080 C2079 1.358 . S
C2080 H2083 0.930 . S
C2081 C2078 1.348 . S
C2081 C2079 1.356 . S
H2082 C2076 0.930 . S
H2083 C2080 0.930 . S
O2084 Li2024 1.956 . S
O2084 Li2025 1.970 . S
O2084 Li2026 1.961 . S
O2084 C2028 1.325 . S
O2085 Li2024 1.970 . S
O2085 Li2025 1.956 . S
O2085 Li2027 1.961 . S
O2085 C2034 1.325 . S
O2086 Li2024 1.961 . S
O2086 Li2026 1.956 . S
O2086 Li2027 1.970 . S
O2086 C2056 1.325 . S
O2087 Li2025 1.961 . S
O2087 Li2026 1.970 . S
O2087 Li2027 1.956 . S
O2087 C2062 1.325 . S
H2088 C2030 0.929 . S
H2089 C2031 0.930 . S
H2090 C2032 0.930 . S
H2091 C2033 0.930 . S
H2092 C2035 0.930 . S
H2093 C2037 0.929 . S
H2094 C2038 0.930 . S
H2095 C2039 0.930 . S
H2096 C2042 0.930 . S
H2097 C2045 0.929 . S
H2098 C2050 0.929 . S
H2099 C2051 0.930 . S
H2100 C2058 0.929 . S
H2101 C2059 0.930 . S
H2102 C2060 0.930 . S
H2103 C2061 0.930 . S
H2104 C2063 0.929 . S
H2105 C2064 0.930 . S
H2106 C2065 0.930 . S
H2107 C2066 0.930 . S
H2108 C2070 0.929 . S
H2109 C2072 0.930 . S
H2110 C2078 0.929 . S
H2111 C2079 0.930 . S
Li2112 N2129 1.990 . S
Li2112 O2172 1.956 . S
Li2112 O2173 1.970 . S
Li2112 O2174 1.961 . S
Li2113 N2137 1.990 . S
Li2113 O2172 1.970 . S
Li2113 O2173 1.956 . S
Li2113 O2175 1.961 . S
Li2114 N2159 1.990 . S
Li2114 O2172 1.961 . S
Li2114 O2174 1.956 . S
Li2114 O2175 1.970 . S
Li2115 N2165 1.990 . S
Li2115 O2173 1.961 . S
Li2115 O2174 1.970 . S
Li2115 O2175 1.956 . S
C2116 C2118 1.348 . S
C2116 C2119 1.356 . S
C2116 O2172 1.325 . S
N2117 C2120 1.314 . S
N2117 C2121 1.279 . S
C2118 C2116 1.348 . S
C2118 C2120 1.353 . S
C2118 H2176 0.929 . S
C2119 C2116 1.356 . S
C2119 C2121 1.358 . S
C2119 H2177 0.930 . S
C2120 N2117 1.314 . S
C2120 C2118 1.353 . S
C2120 H2178 0.930 . S
C2121 N2117 1.279 . S
C2121 C2119 1.358 . S
C2121 H2179 0.930 . S
C2122 C2125 1.348 . S
C2122 C2126 1.356 . S
C2122 O2173 1.325 . S
C2123 N2124 1.279 . S
C2123 C2126 1.358 . S
C2123 H2180 0.930 . S
N2124 C2123 1.279 . S
N2124 C2127 1.314 . S
C2125 C2122 1.348 . S
C2125 C2127 1.353 . S
C2125 H2181 0.929 . S
C2126 C2122 1.356 . S
C2126 C2123 1.358 . S
C2126 H2182 0.930 . S
C2127 N2124 1.314 . S
C2127 C2125 1.353 . S
C2127 H2183 0.930 . S
C2128 N2129 1.314 . S
C2128 C2133 1.353 . S
C2128 H2134 0.930 . S
N2129 Li2112 1.990 . S
N2129 C2128 1.314 . S
N2129 C2131 1.279 . S
C2130 C2131 1.358 . S
C2130 C2132 1.356 . S
C2130 H2184 0.930 . S
C2131 N2129 1.279 . S
C2131 C2130 1.358 . S
C2131 H2135 0.930 . S
C2132 C2130 1.356 . S
C2132 C2133 1.348 . S
C2133 C2128 1.353 . S
C2133 C2132 1.348 . S
C2133 H2185 0.929 . S
H2134 C2128 0.930 . S
H2135 C2131 0.930 . S
C2136 N2137 1.314 . S
C2136 C2138 1.353 . S
C2136 H2142 0.930 . S
N2137 Li2113 1.990 . S
N2137 C2136 1.314 . S
N2137 C2140 1.279 . S
C2138 C2136 1.353 . S
C2138 C2141 1.348 . S
C2138 H2186 0.929 . S
C2139 C2140 1.358 . S
C2139 C2141 1.356 . S
C2139 H2187 0.930 . S
C2140 N2137 1.279 . S
C2140 C2139 1.358 . S
C2140 H2143 0.930 . S
C2141 C2138 1.348 . S
C2141 C2139 1.356 . S
H2142 C2136 0.930 . S
H2143 C2140 0.930 . S
C2144 C2146 1.348 . S
C2144 C2147 1.356 . S
C2144 O2174 1.325 . S
N2145 C2148 1.314 . S
N2145 C2149 1.279 . S
C2146 C2144 1.348 . S
C2146 C2148 1.353 . S
C2146 H2188 0.929 . S
C2147 C2144 1.356 . S
C2147 C2149 1.358 . S
C2147 H2189 0.930 . S
C2148 N2145 1.314 . S
C2148 C2146 1.353 . S
C2148 H2190 0.930 . S
C2149 N2145 1.279 . S
C2149 C2147 1.358 . S
C2149 H2191 0.930 . S
C2150 C2151 1.348 . S
C2150 C2152 1.356 . S
C2150 O2175 1.325 . S
C2151 C2150 1.348 . S
C2151 C2153 1.353 . S
C2151 H2192 0.929 . S
C2152 C2150 1.356 . S
C2152 C2154 1.358 . S
C2152 H2193 0.930 . S
C2153 C2151 1.353 . S
C2153 N2155 1.314 . S
C2153 H2194 0.930 . S
C2154 C2152 1.358 . S
C2154 N2155 1.279 . S
C2154 H2195 0.930 . S
N2155 C2153 1.314 . S
N2155 C2154 1.279 . S
C2156 C2158 1.353 . S
C2156 N2159 1.314 . S
C2156 H2162 0.930 . S
C2157 N2159 1.279 . S
C2157 C2160 1.358 . S
C2157 H2163 0.930 . S
C2158 C2156 1.353 . S
C2158 C2161 1.348 . S
C2158 H2196 0.929 . S
N2159 Li2114 1.990 . S
N2159 C2156 1.314 . S
N2159 C2157 1.279 . S
C2160 C2157 1.358 . S
C2160 C2161 1.356 . S
C2160 H2197 0.930 . S
C2161 C2158 1.348 . S
C2161 C2160 1.356 . S
H2162 C2156 0.930 . S
H2163 C2157 0.930 . S
C2164 N2165 1.314 . S
C2164 C2166 1.353 . S
C2164 H2170 0.930 . S
N2165 Li2115 1.990 . S
N2165 C2164 1.314 . S
N2165 C2168 1.279 . S
C2166 C2164 1.353 . S
C2166 C2169 1.348 . S
C2166 H2198 0.929 . S
C2167 C2168 1.358 . S
C2167 C2169 1.356 . S
C2167 H2199 0.930 . S
C2168 N2165 1.279 . S
C2168 C2167 1.358 . S
C2168 H2171 0.930 . S
C2169 C2166 1.348 . S
C2169 C2167 1.356 . S
H2170 C2164 0.930 . S
H2171 C2168 0.930 . S
O2172 Li2112 1.956 . S
O2172 Li2113 1.970 . S
O2172 Li2114 1.961 . S
O2172 C2116 1.325 . S
O2173 Li2112 1.970 . S
O2173 Li2113 1.956 . S
O2173 Li2115 1.961 . S
O2173 C2122 1.325 . S
O2174 Li2112 1.961 . S
O2174 Li2114 1.956 . S
O2174 Li2115 1.970 . S
O2174 C2144 1.325 . S
O2175 Li2113 1.961 . S
O2175 Li2114 1.970 . S
O2175 Li2115 1.956 . S
O2175 C2150 1.325 . S
H2176 C2118 0.929 . S
H2177 C2119 0.930 . S
H2178 C2120 0.930 . S
H2179 C2121 0.930 . S
H2180 C2123 0.930 . S
H2181 C2125 0.929 . S
H2182 C2126 0.930 . S
H2183 C2127 0.930 . S
H2184 C2130 0.930 . S
H2185 C2133 0.929 . S
H2186 C2138 0.929 . S
H2187 C2139 0.930 . S
H2188 C2146 0.929 . S
H2189 C2147 0.930 . S
H2190 C2148 0.930 . S
H2191 C2149 0.930 . S
H2192 C2151 0.929 . S
H2193 C2152 0.930 . S
H2194 C2153 0.930 . S
H2195 C2154 0.930 . S
H2196 C2158 0.929 . S
H2197 C2160 0.930 . S
H2198 C2166 0.929 . S
H2199 C2167 0.930 . S
Li2200 N2217 1.990 . S
Li2200 O2260 1.956 . S
Li2200 O2261 1.970 . S
Li2200 O2262 1.961 . S
Li2201 N2225 1.990 . S
Li2201 O2260 1.970 . S
Li2201 O2261 1.956 . S
Li2201 O2263 1.961 . S
Li2202 N2247 1.990 . S
Li2202 O2260 1.961 . S
Li2202 O2262 1.956 . S
Li2202 O2263 1.970 . S
Li2203 N2253 1.990 . S
Li2203 O2261 1.961 . S
Li2203 O2262 1.970 . S
Li2203 O2263 1.956 . S
C2204 C2206 1.348 . S
C2204 C2207 1.356 . S
C2204 O2260 1.325 . S
N2205 C2208 1.314 . S
N2205 C2209 1.279 . S
C2206 C2204 1.348 . S
C2206 C2208 1.353 . S
C2206 H2264 0.929 . S
C2207 C2204 1.356 . S
C2207 C2209 1.358 . S
C2207 H2265 0.930 . S
C2208 N2205 1.314 . S
C2208 C2206 1.353 . S
C2208 H2266 0.930 . S
C2209 N2205 1.279 . S
C2209 C2207 1.358 . S
C2209 H2267 0.930 . S
C2210 C2213 1.348 . S
C2210 C2214 1.356 . S
C2210 O2261 1.325 . S
C2211 N2212 1.279 . S
C2211 C2214 1.358 . S
C2211 H2268 0.930 . S
N2212 C2211 1.279 . S
N2212 C2215 1.314 . S
C2213 C2210 1.348 . S
C2213 C2215 1.353 . S
C2213 H2269 0.929 . S
C2214 C2210 1.356 . S
C2214 C2211 1.358 . S
C2214 H2270 0.930 . S
C2215 N2212 1.314 . S
C2215 C2213 1.353 . S
C2215 H2271 0.930 . S
C2216 N2217 1.314 . S
C2216 C2221 1.353 . S
C2216 H2222 0.930 . S
N2217 Li2200 1.990 . S
N2217 C2216 1.314 . S
N2217 C2219 1.279 . S
C2218 C2219 1.358 . S
C2218 C2220 1.356 . S
C2218 H2272 0.930 . S
C2219 N2217 1.279 . S
C2219 C2218 1.358 . S
C2219 H2223 0.930 . S
C2220 C2218 1.356 . S
C2220 C2221 1.348 . S
C2221 C2216 1.353 . S
C2221 C2220 1.348 . S
C2221 H2273 0.929 . S
H2222 C2216 0.930 . S
H2223 C2219 0.930 . S
C2224 N2225 1.314 . S
C2224 C2226 1.353 . S
C2224 H2230 0.930 . S
N2225 Li2201 1.990 . S
N2225 C2224 1.314 . S
N2225 C2228 1.279 . S
C2226 C2224 1.353 . S
C2226 C2229 1.348 . S
C2226 H2274 0.929 . S
C2227 C2228 1.358 . S
C2227 C2229 1.356 . S
C2227 H2275 0.930 . S
C2228 N2225 1.279 . S
C2228 C2227 1.358 . S
C2228 H2231 0.930 . S
C2229 C2226 1.348 . S
C2229 C2227 1.356 . S
H2230 C2224 0.930 . S
H2231 C2228 0.930 . S
C2232 C2234 1.348 . S
C2232 C2235 1.356 . S
C2232 O2262 1.325 . S
N2233 C2236 1.314 . S
N2233 C2237 1.279 . S
C2234 C2232 1.348 . S
C2234 C2236 1.353 . S
C2234 H2276 0.929 . S
C2235 C2232 1.356 . S
C2235 C2237 1.358 . S
C2235 H2277 0.930 . S
C2236 N2233 1.314 . S
C2236 C2234 1.353 . S
C2236 H2278 0.930 . S
C2237 N2233 1.279 . S
C2237 C2235 1.358 . S
C2237 H2279 0.930 . S
C2238 C2239 1.348 . S
C2238 C2240 1.356 . S
C2238 O2263 1.325 . S
C2239 C2238 1.348 . S
C2239 C2241 1.353 . S
C2239 H2280 0.929 . S
C2240 C2238 1.356 . S
C2240 C2242 1.358 . S
C2240 H2281 0.930 . S
C2241 C2239 1.353 . S
C2241 N2243 1.314 . S
C2241 H2282 0.930 . S
C2242 C2240 1.358 . S
C2242 N2243 1.279 . S
C2242 H2283 0.930 . S
N2243 C2241 1.314 . S
N2243 C2242 1.279 . S
C2244 C2246 1.353 . S
C2244 N2247 1.314 . S
C2244 H2250 0.930 . S
C2245 N2247 1.279 . S
C2245 C2248 1.358 . S
C2245 H2251 0.930 . S
C2246 C2244 1.353 . S
C2246 C2249 1.348 . S
C2246 H2284 0.929 . S
N2247 Li2202 1.990 . S
N2247 C2244 1.314 . S
N2247 C2245 1.279 . S
C2248 C2245 1.358 . S
C2248 C2249 1.356 . S
C2248 H2285 0.930 . S
C2249 C2246 1.348 . S
C2249 C2248 1.356 . S
H2250 C2244 0.930 . S
H2251 C2245 0.930 . S
C2252 N2253 1.314 . S
C2252 C2254 1.353 . S
C2252 H2258 0.930 . S
N2253 Li2203 1.990 . S
N2253 C2252 1.314 . S
N2253 C2256 1.279 . S
C2254 C2252 1.353 . S
C2254 C2257 1.348 . S
C2254 H2286 0.929 . S
C2255 C2256 1.358 . S
C2255 C2257 1.356 . S
C2255 H2287 0.930 . S
C2256 N2253 1.279 . S
C2256 C2255 1.358 . S
C2256 H2259 0.930 . S
C2257 C2254 1.348 . S
C2257 C2255 1.356 . S
H2258 C2252 0.930 . S
H2259 C2256 0.930 . S
O2260 Li2200 1.956 . S
O2260 Li2201 1.970 . S
O2260 Li2202 1.961 . S
O2260 C2204 1.325 . S
O2261 Li2200 1.970 . S
O2261 Li2201 1.956 . S
O2261 Li2203 1.961 . S
O2261 C2210 1.325 . S
O2262 Li2200 1.961 . S
O2262 Li2202 1.956 . S
O2262 Li2203 1.970 . S
O2262 C2232 1.325 . S
O2263 Li2201 1.961 . S
O2263 Li2202 1.970 . S
O2263 Li2203 1.956 . S
O2263 C2238 1.325 . S
H2264 C2206 0.929 . S
H2265 C2207 0.930 . S
H2266 C2208 0.930 . S
H2267 C2209 0.930 . S
H2268 C2211 0.930 . S
H2269 C2213 0.929 . S
H2270 C2214 0.930 . S
H2271 C2215 0.930 . S
H2272 C2218 0.930 . S
H2273 C2221 0.929 . S
H2274 C2226 0.929 . S
H2275 C2227 0.930 . S
H2276 C2234 0.929 . S
H2277 C2235 0.930 . S
H2278 C2236 0.930 . S
H2279 C2237 0.930 . S
H2280 C2239 0.929 . S
H2281 C2240 0.930 . S
H2282 C2241 0.930 . S
H2283 C2242 0.930 . S
H2284 C2246 0.929 . S
H2285 C2248 0.930 . S
H2286 C2254 0.929 . S
H2287 C2255 0.930 . S
Li2288 N2305 1.990 . S
Li2288 O2348 1.956 . S
Li2288 O2349 1.970 . S
Li2288 O2350 1.961 . S
Li2289 N2313 1.990 . S
Li2289 O2348 1.970 . S
Li2289 O2349 1.956 . S
Li2289 O2351 1.961 . S
Li2290 N2335 1.990 . S
Li2290 O2348 1.961 . S
Li2290 O2350 1.956 . S
Li2290 O2351 1.970 . S
Li2291 N2341 1.990 . S
Li2291 O2349 1.961 . S
Li2291 O2350 1.970 . S
Li2291 O2351 1.956 . S
C2292 C2294 1.348 . S
C2292 C2295 1.356 . S
C2292 O2348 1.325 . S
N2293 C2296 1.314 . S
N2293 C2297 1.279 . S
C2294 C2292 1.348 . S
C2294 C2296 1.353 . S
C2294 H2352 0.929 . S
C2295 C2292 1.356 . S
C2295 C2297 1.358 . S
C2295 H2353 0.930 . S
C2296 N2293 1.314 . S
C2296 C2294 1.353 . S
C2296 H2354 0.930 . S
C2297 N2293 1.279 . S
C2297 C2295 1.358 . S
C2297 H2355 0.930 . S
C2298 C2301 1.348 . S
C2298 C2302 1.356 . S
C2298 O2349 1.325 . S
C2299 N2300 1.279 . S
C2299 C2302 1.358 . S
C2299 H2356 0.930 . S
N2300 C2299 1.279 . S
N2300 C2303 1.314 . S
C2301 C2298 1.348 . S
C2301 C2303 1.353 . S
C2301 H2357 0.929 . S
C2302 C2298 1.356 . S
C2302 C2299 1.358 . S
C2302 H2358 0.930 . S
C2303 N2300 1.314 . S
C2303 C2301 1.353 . S
C2303 H2359 0.930 . S
C2304 N2305 1.314 . S
C2304 C2309 1.353 . S
C2304 H2310 0.930 . S
N2305 Li2288 1.990 . S
N2305 C2304 1.314 . S
N2305 C2307 1.279 . S
C2306 C2307 1.358 . S
C2306 C2308 1.356 . S
C2306 H2360 0.930 . S
C2307 N2305 1.279 . S
C2307 C2306 1.358 . S
C2307 H2311 0.930 . S
C2308 C2306 1.356 . S
C2308 C2309 1.348 . S
C2309 C2304 1.353 . S
C2309 C2308 1.348 . S
C2309 H2361 0.929 . S
H2310 C2304 0.930 . S
H2311 C2307 0.930 . S
C2312 N2313 1.314 . S
C2312 C2314 1.353 . S
C2312 H2318 0.930 . S
N2313 Li2289 1.990 . S
N2313 C2312 1.314 . S
N2313 C2316 1.279 . S
C2314 C2312 1.353 . S
C2314 C2317 1.348 . S
C2314 H2362 0.929 . S
C2315 C2316 1.358 . S
C2315 C2317 1.356 . S
C2315 H2363 0.930 . S
C2316 N2313 1.279 . S
C2316 C2315 1.358 . S
C2316 H2319 0.930 . S
C2317 C2314 1.348 . S
C2317 C2315 1.356 . S
H2318 C2312 0.930 . S
H2319 C2316 0.930 . S
C2320 C2322 1.348 . S
C2320 C2323 1.356 . S
C2320 O2350 1.325 . S
N2321 C2324 1.314 . S
N2321 C2325 1.279 . S
C2322 C2320 1.348 . S
C2322 C2324 1.353 . S
C2322 H2364 0.929 . S
C2323 C2320 1.356 . S
C2323 C2325 1.358 . S
C2323 H2365 0.930 . S
C2324 N2321 1.314 . S
C2324 C2322 1.353 . S
C2324 H2366 0.930 . S
C2325 N2321 1.279 . S
C2325 C2323 1.358 . S
C2325 H2367 0.930 . S
C2326 C2327 1.348 . S
C2326 C2328 1.356 . S
C2326 O2351 1.325 . S
C2327 C2326 1.348 . S
C2327 C2329 1.353 . S
C2327 H2368 0.929 . S
C2328 C2326 1.356 . S
C2328 C2330 1.358 . S
C2328 H2369 0.930 . S
C2329 C2327 1.353 . S
C2329 N2331 1.314 . S
C2329 H2370 0.930 . S
C2330 C2328 1.358 . S
C2330 N2331 1.279 . S
C2330 H2371 0.930 . S
N2331 C2329 1.314 . S
N2331 C2330 1.279 . S
C2332 C2334 1.353 . S
C2332 N2335 1.314 . S
C2332 H2338 0.930 . S
C2333 N2335 1.279 . S
C2333 C2336 1.358 . S
C2333 H2339 0.930 . S
C2334 C2332 1.353 . S
C2334 C2337 1.348 . S
C2334 H2372 0.929 . S
N2335 Li2290 1.990 . S
N2335 C2332 1.314 . S
N2335 C2333 1.279 . S
C2336 C2333 1.358 . S
C2336 C2337 1.356 . S
C2336 H2373 0.930 . S
C2337 C2334 1.348 . S
C2337 C2336 1.356 . S
H2338 C2332 0.930 . S
H2339 C2333 0.930 . S
C2340 N2341 1.314 . S
C2340 C2342 1.353 . S
C2340 H2346 0.930 . S
N2341 Li2291 1.990 . S
N2341 C2340 1.314 . S
N2341 C2344 1.279 . S
C2342 C2340 1.353 . S
C2342 C2345 1.348 . S
C2342 H2374 0.929 . S
C2343 C2344 1.358 . S
C2343 C2345 1.356 . S
C2343 H2375 0.930 . S
C2344 N2341 1.279 . S
C2344 C2343 1.358 . S
C2344 H2347 0.930 . S
C2345 C2342 1.348 . S
C2345 C2343 1.356 . S
H2346 C2340 0.930 . S
H2347 C2344 0.930 . S
O2348 Li2288 1.956 . S
O2348 Li2289 1.970 . S
O2348 Li2290 1.961 . S
O2348 C2292 1.325 . S
O2349 Li2288 1.970 . S
O2349 Li2289 1.956 . S
O2349 Li2291 1.961 . S
O2349 C2298 1.325 . S
O2350 Li2288 1.961 . S
O2350 Li2290 1.956 . S
O2350 Li2291 1.970 . S
O2350 C2320 1.325 . S
O2351 Li2289 1.961 . S
O2351 Li2290 1.970 . S
O2351 Li2291 1.956 . S
O2351 C2326 1.325 . S
H2352 C2294 0.929 . S
H2353 C2295 0.930 . S
H2354 C2296 0.930 . S
H2355 C2297 0.930 . S
H2356 C2299 0.930 . S
H2357 C2301 0.929 . S
H2358 C2302 0.930 . S
H2359 C2303 0.930 . S
H2360 C2306 0.930 . S
H2361 C2309 0.929 . S
H2362 C2314 0.929 . S
H2363 C2315 0.930 . S
H2364 C2322 0.929 . S
H2365 C2323 0.930 . S
H2366 C2324 0.930 . S
H2367 C2325 0.930 . S
H2368 C2327 0.929 . S
H2369 C2328 0.930 . S
H2370 C2329 0.930 . S
H2371 C2330 0.930 . S
H2372 C2334 0.929 . S
H2373 C2336 0.930 . S
H2374 C2342 0.929 . S
H2375 C2343 0.930 . S
Li2376 N2393 1.990 . S
Li2376 O2436 1.956 . S
Li2376 O2437 1.970 . S
Li2376 O2438 1.961 . S
Li2377 N2401 1.990 . S
Li2377 O2436 1.970 . S
Li2377 O2437 1.956 . S
Li2377 O2439 1.961 . S
Li2378 N2423 1.990 . S
Li2378 O2436 1.961 . S
Li2378 O2438 1.956 . S
Li2378 O2439 1.970 . S
Li2379 N2429 1.990 . S
Li2379 O2437 1.961 . S
Li2379 O2438 1.970 . S
Li2379 O2439 1.956 . S
C2380 C2382 1.348 . S
C2380 C2383 1.356 . S
C2380 O2436 1.325 . S
N2381 C2384 1.314 . S
N2381 C2385 1.279 . S
C2382 C2380 1.348 . S
C2382 C2384 1.353 . S
C2382 H2440 0.929 . S
C2383 C2380 1.356 . S
C2383 C2385 1.358 . S
C2383 H2441 0.930 . S
C2384 N2381 1.314 . S
C2384 C2382 1.353 . S
C2384 H2442 0.930 . S
C2385 N2381 1.279 . S
C2385 C2383 1.358 . S
C2385 H2443 0.930 . S
C2386 C2389 1.348 . S
C2386 C2390 1.356 . S
C2386 O2437 1.325 . S
C2387 N2388 1.279 . S
C2387 C2390 1.358 . S
C2387 H2444 0.930 . S
N2388 C2387 1.279 . S
N2388 C2391 1.314 . S
C2389 C2386 1.348 . S
C2389 C2391 1.353 . S
C2389 H2445 0.929 . S
C2390 C2386 1.356 . S
C2390 C2387 1.358 . S
C2390 H2446 0.930 . S
C2391 N2388 1.314 . S
C2391 C2389 1.353 . S
C2391 H2447 0.930 . S
C2392 N2393 1.314 . S
C2392 C2397 1.353 . S
C2392 H2398 0.930 . S
N2393 Li2376 1.990 . S
N2393 C2392 1.314 . S
N2393 C2395 1.279 . S
C2394 C2395 1.358 . S
C2394 C2396 1.356 . S
C2394 H2448 0.930 . S
C2395 N2393 1.279 . S
C2395 C2394 1.358 . S
C2395 H2399 0.930 . S
C2396 C2394 1.356 . S
C2396 C2397 1.348 . S
C2397 C2392 1.353 . S
C2397 C2396 1.348 . S
C2397 H2449 0.929 . S
H2398 C2392 0.930 . S
H2399 C2395 0.930 . S
C2400 N2401 1.314 . S
C2400 C2402 1.353 . S
C2400 H2406 0.930 . S
N2401 Li2377 1.990 . S
N2401 C2400 1.314 . S
N2401 C2404 1.279 . S
C2402 C2400 1.353 . S
C2402 C2405 1.348 . S
C2402 H2450 0.929 . S
C2403 C2404 1.358 . S
C2403 C2405 1.356 . S
C2403 H2451 0.930 . S
C2404 N2401 1.279 . S
C2404 C2403 1.358 . S
C2404 H2407 0.930 . S
C2405 C2402 1.348 . S
C2405 C2403 1.356 . S
H2406 C2400 0.930 . S
H2407 C2404 0.930 . S
C2408 C2410 1.348 . S
C2408 C2411 1.356 . S
C2408 O2438 1.325 . S
N2409 C2412 1.314 . S
N2409 C2413 1.279 . S
C2410 C2408 1.348 . S
C2410 C2412 1.353 . S
C2410 H2452 0.929 . S
C2411 C2408 1.356 . S
C2411 C2413 1.358 . S
C2411 H2453 0.930 . S
C2412 N2409 1.314 . S
C2412 C2410 1.353 . S
C2412 H2454 0.930 . S
C2413 N2409 1.279 . S
C2413 C2411 1.358 . S
C2413 H2455 0.930 . S
C2414 C2415 1.348 . S
C2414 C2416 1.356 . S
C2414 O2439 1.325 . S
C2415 C2414 1.348 . S
C2415 C2417 1.353 . S
C2415 H2456 0.929 . S
C2416 C2414 1.356 . S
C2416 C2418 1.358 . S
C2416 H2457 0.930 . S
C2417 C2415 1.353 . S
C2417 N2419 1.314 . S
C2417 H2458 0.930 . S
C2418 C2416 1.358 . S
C2418 N2419 1.279 . S
C2418 H2459 0.930 . S
N2419 C2417 1.314 . S
N2419 C2418 1.279 . S
C2420 C2422 1.353 . S
C2420 N2423 1.314 . S
C2420 H2426 0.930 . S
C2421 N2423 1.279 . S
C2421 C2424 1.358 . S
C2421 H2427 0.930 . S
C2422 C2420 1.353 . S
C2422 C2425 1.348 . S
C2422 H2460 0.929 . S
N2423 Li2378 1.990 . S
N2423 C2420 1.314 . S
N2423 C2421 1.279 . S
C2424 C2421 1.358 . S
C2424 C2425 1.356 . S
C2424 H2461 0.930 . S
C2425 C2422 1.348 . S
C2425 C2424 1.356 . S
H2426 C2420 0.930 . S
H2427 C2421 0.930 . S
C2428 N2429 1.314 . S
C2428 C2430 1.353 . S
C2428 H2434 0.930 . S
N2429 Li2379 1.990 . S
N2429 C2428 1.314 . S
N2429 C2432 1.279 . S
C2430 C2428 1.353 . S
C2430 C2433 1.348 . S
C2430 H2462 0.929 . S
C2431 C2432 1.358 . S
C2431 C2433 1.356 . S
C2431 H2463 0.930 . S
C2432 N2429 1.279 . S
C2432 C2431 1.358 . S
C2432 H2435 0.930 . S
C2433 C2430 1.348 . S
C2433 C2431 1.356 . S
H2434 C2428 0.930 . S
H2435 C2432 0.930 . S
O2436 Li2376 1.956 . S
O2436 Li2377 1.970 . S
O2436 Li2378 1.961 . S
O2436 C2380 1.325 . S
O2437 Li2376 1.970 . S
O2437 Li2377 1.956 . S
O2437 Li2379 1.961 . S
O2437 C2386 1.325 . S
O2438 Li2376 1.961 . S
O2438 Li2378 1.956 . S
O2438 Li2379 1.970 . S
O2438 C2408 1.325 . S
O2439 Li2377 1.961 . S
O2439 Li2378 1.970 . S
O2439 Li2379 1.956 . S
O2439 C2414 1.325 . S
H2440 C2382 0.929 . S
H2441 C2383 0.930 . S
H2442 C2384 0.930 . S
H2443 C2385 0.930 . S
H2444 C2387 0.930 . S
H2445 C2389 0.929 . S
H2446 C2390 0.930 . S
H2447 C2391 0.930 . S
H2448 C2394 0.930 . S
H2449 C2397 0.929 . S
H2450 C2402 0.929 . S
H2451 C2403 0.930 . S
H2452 C2410 0.929 . S
H2453 C2411 0.930 . S
H2454 C2412 0.930 . S
H2455 C2413 0.930 . S
H2456 C2415 0.929 . S
H2457 C2416 0.930 . S
H2458 C2417 0.930 . S
H2459 C2418 0.930 . S
H2460 C2422 0.929 . S
H2461 C2424 0.930 . S
H2462 C2430 0.929 . S
H2463 C2431 0.930 . S
Li2464 N2481 1.990 . S
Li2464 O2524 1.956 . S
Li2464 O2525 1.970 . S
Li2464 O2526 1.961 . S
Li2465 N2489 1.990 . S
Li2465 O2524 1.970 . S
Li2465 O2525 1.956 . S
Li2465 O2527 1.961 . S
Li2466 N2511 1.990 . S
Li2466 O2524 1.961 . S
Li2466 O2526 1.956 . S
Li2466 O2527 1.970 . S
Li2467 N2517 1.990 . S
Li2467 O2525 1.961 . S
Li2467 O2526 1.970 . S
Li2467 O2527 1.956 . S
C2468 C2470 1.348 . S
C2468 C2471 1.356 . S
C2468 O2524 1.325 . S
N2469 C2472 1.314 . S
N2469 C2473 1.279 . S
C2470 C2468 1.348 . S
C2470 C2472 1.353 . S
C2470 H2528 0.929 . S
C2471 C2468 1.356 . S
C2471 C2473 1.358 . S
C2471 H2529 0.930 . S
C2472 N2469 1.314 . S
C2472 C2470 1.353 . S
C2472 H2530 0.930 . S
C2473 N2469 1.279 . S
C2473 C2471 1.358 . S
C2473 H2531 0.930 . S
C2474 C2477 1.348 . S
C2474 C2478 1.356 . S
C2474 O2525 1.325 . S
C2475 N2476 1.279 . S
C2475 C2478 1.358 . S
C2475 H2532 0.930 . S
N2476 C2475 1.279 . S
N2476 C2479 1.314 . S
C2477 C2474 1.348 . S
C2477 C2479 1.353 . S
C2477 H2533 0.929 . S
C2478 C2474 1.356 . S
C2478 C2475 1.358 . S
C2478 H2534 0.930 . S
C2479 N2476 1.314 . S
C2479 C2477 1.353 . S
C2479 H2535 0.930 . S
C2480 N2481 1.314 . S
C2480 C2485 1.353 . S
C2480 H2486 0.930 . S
N2481 Li2464 1.990 . S
N2481 C2480 1.314 . S
N2481 C2483 1.279 . S
C2482 C2483 1.358 . S
C2482 C2484 1.356 . S
C2482 H2536 0.930 . S
C2483 N2481 1.279 . S
C2483 C2482 1.358 . S
C2483 H2487 0.930 . S
C2484 C2482 1.356 . S
C2484 C2485 1.348 . S
C2485 C2480 1.353 . S
C2485 C2484 1.348 . S
C2485 H2537 0.929 . S
H2486 C2480 0.930 . S
H2487 C2483 0.930 . S
C2488 N2489 1.314 . S
C2488 C2490 1.353 . S
C2488 H2494 0.930 . S
N2489 Li2465 1.990 . S
N2489 C2488 1.314 . S
N2489 C2492 1.279 . S
C2490 C2488 1.353 . S
C2490 C2493 1.348 . S
C2490 H2538 0.929 . S
C2491 C2492 1.358 . S
C2491 C2493 1.356 . S
C2491 H2539 0.930 . S
C2492 N2489 1.279 . S
C2492 C2491 1.358 . S
C2492 H2495 0.930 . S
C2493 C2490 1.348 . S
C2493 C2491 1.356 . S
H2494 C2488 0.930 . S
H2495 C2492 0.930 . S
C2496 C2498 1.348 . S
C2496 C2499 1.356 . S
C2496 O2526 1.325 . S
N2497 C2500 1.314 . S
N2497 C2501 1.279 . S
C2498 C2496 1.348 . S
C2498 C2500 1.353 . S
C2498 H2540 0.929 . S
C2499 C2496 1.356 . S
C2499 C2501 1.358 . S
C2499 H2541 0.930 . S
C2500 N2497 1.314 . S
C2500 C2498 1.353 . S
C2500 H2542 0.930 . S
C2501 N2497 1.279 . S
C2501 C2499 1.358 . S
C2501 H2543 0.930 . S
C2502 C2503 1.348 . S
C2502 C2504 1.356 . S
C2502 O2527 1.325 . S
C2503 C2502 1.348 . S
C2503 C2505 1.353 . S
C2503 H2544 0.929 . S
C2504 C2502 1.356 . S
C2504 C2506 1.358 . S
C2504 H2545 0.930 . S
C2505 C2503 1.353 . S
C2505 N2507 1.314 . S
C2505 H2546 0.930 . S
C2506 C2504 1.358 . S
C2506 N2507 1.279 . S
C2506 H2547 0.930 . S
N2507 C2505 1.314 . S
N2507 C2506 1.279 . S
C2508 C2510 1.353 . S
C2508 N2511 1.314 . S
C2508 H2514 0.930 . S
C2509 N2511 1.279 . S
C2509 C2512 1.358 . S
C2509 H2515 0.930 . S
C2510 C2508 1.353 . S
C2510 C2513 1.348 . S
C2510 H2548 0.929 . S
N2511 Li2466 1.990 . S
N2511 C2508 1.314 . S
N2511 C2509 1.279 . S
C2512 C2509 1.358 . S
C2512 C2513 1.356 . S
C2512 H2549 0.930 . S
C2513 C2510 1.348 . S
C2513 C2512 1.356 . S
H2514 C2508 0.930 . S
H2515 C2509 0.930 . S
C2516 N2517 1.314 . S
C2516 C2518 1.353 . S
C2516 H2522 0.930 . S
N2517 Li2467 1.990 . S
N2517 C2516 1.314 . S
N2517 C2520 1.279 . S
C2518 C2516 1.353 . S
C2518 C2521 1.348 . S
C2518 H2550 0.929 . S
C2519 C2520 1.358 . S
C2519 C2521 1.356 . S
C2519 H2551 0.930 . S
C2520 N2517 1.279 . S
C2520 C2519 1.358 . S
C2520 H2523 0.930 . S
C2521 C2518 1.348 . S
C2521 C2519 1.356 . S
H2522 C2516 0.930 . S
H2523 C2520 0.930 . S
O2524 Li2464 1.956 . S
O2524 Li2465 1.970 . S
O2524 Li2466 1.961 . S
O2524 C2468 1.325 . S
O2525 Li2464 1.970 . S
O2525 Li2465 1.956 . S
O2525 Li2467 1.961 . S
O2525 C2474 1.325 . S
O2526 Li2464 1.961 . S
O2526 Li2466 1.956 . S
O2526 Li2467 1.970 . S
O2526 C2496 1.325 . S
O2527 Li2465 1.961 . S
O2527 Li2466 1.970 . S
O2527 Li2467 1.956 . S
O2527 C2502 1.325 . S
H2528 C2470 0.929 . S
H2529 C2471 0.930 . S
H2530 C2472 0.930 . S
H2531 C2473 0.930 . S
H2532 C2475 0.930 . S
H2533 C2477 0.929 . S
H2534 C2478 0.930 . S
H2535 C2479 0.930 . S
H2536 C2482 0.930 . S
H2537 C2485 0.929 . S
H2538 C2490 0.929 . S
H2539 C2491 0.930 . S
H2540 C2498 0.929 . S
H2541 C2499 0.930 . S
H2542 C2500 0.930 . S
H2543 C2501 0.930 . S
H2544 C2503 0.929 . S
H2545 C2504 0.930 . S
H2546 C2505 0.930 . S
H2547 C2506 0.930 . S
H2548 C2510 0.929 . S
H2549 C2512 0.930 . S
H2550 C2518 0.929 . S
H2551 C2519 0.930 . S
Li2552 N2569 1.990 . S
Li2552 O2612 1.956 . S
Li2552 O2613 1.970 . S
Li2552 O2614 1.961 . S
Li2553 N2577 1.990 . S
Li2553 O2612 1.970 . S
Li2553 O2613 1.956 . S
Li2553 O2615 1.961 . S
Li2554 N2599 1.990 . S
Li2554 O2612 1.961 . S
Li2554 O2614 1.956 . S
Li2554 O2615 1.970 . S
Li2555 N2605 1.990 . S
Li2555 O2613 1.961 . S
Li2555 O2614 1.970 . S
Li2555 O2615 1.956 . S
C2556 C2558 1.348 . S
C2556 C2559 1.356 . S
C2556 O2612 1.325 . S
N2557 C2560 1.314 . S
N2557 C2561 1.279 . S
C2558 C2556 1.348 . S
C2558 C2560 1.353 . S
C2558 H2616 0.929 . S
C2559 C2556 1.356 . S
C2559 C2561 1.358 . S
C2559 H2617 0.930 . S
C2560 N2557 1.314 . S
C2560 C2558 1.353 . S
C2560 H2618 0.930 . S
C2561 N2557 1.279 . S
C2561 C2559 1.358 . S
C2561 H2619 0.930 . S
C2562 C2565 1.348 . S
C2562 C2566 1.356 . S
C2562 O2613 1.325 . S
C2563 N2564 1.279 . S
C2563 C2566 1.358 . S
C2563 H2620 0.930 . S
N2564 C2563 1.279 . S
N2564 C2567 1.314 . S
C2565 C2562 1.348 . S
C2565 C2567 1.353 . S
C2565 H2621 0.929 . S
C2566 C2562 1.356 . S
C2566 C2563 1.358 . S
C2566 H2622 0.930 . S
C2567 N2564 1.314 . S
C2567 C2565 1.353 . S
C2567 H2623 0.930 . S
C2568 N2569 1.314 . S
C2568 C2573 1.353 . S
C2568 H2574 0.930 . S
N2569 Li2552 1.990 . S
N2569 C2568 1.314 . S
N2569 C2571 1.279 . S
C2570 C2571 1.358 . S
C2570 C2572 1.356 . S
C2570 H2624 0.930 . S
C2571 N2569 1.279 . S
C2571 C2570 1.358 . S
C2571 H2575 0.930 . S
C2572 C2570 1.356 . S
C2572 C2573 1.348 . S
C2573 C2568 1.353 . S
C2573 C2572 1.348 . S
C2573 H2625 0.929 . S
H2574 C2568 0.930 . S
H2575 C2571 0.930 . S
C2576 N2577 1.314 . S
C2576 C2578 1.353 . S
C2576 H2582 0.930 . S
N2577 Li2553 1.990 . S
N2577 C2576 1.314 . S
N2577 C2580 1.279 . S
C2578 C2576 1.353 . S
C2578 C2581 1.348 . S
C2578 H2626 0.929 . S
C2579 C2580 1.358 . S
C2579 C2581 1.356 . S
C2579 H2627 0.930 . S
C2580 N2577 1.279 . S
C2580 C2579 1.358 . S
C2580 H2583 0.930 . S
C2581 C2578 1.348 . S
C2581 C2579 1.356 . S
H2582 C2576 0.930 . S
H2583 C2580 0.930 . S
C2584 C2586 1.348 . S
C2584 C2587 1.356 . S
C2584 O2614 1.325 . S
N2585 C2588 1.314 . S
N2585 C2589 1.279 . S
C2586 C2584 1.348 . S
C2586 C2588 1.353 . S
C2586 H2628 0.929 . S
C2587 C2584 1.356 . S
C2587 C2589 1.358 . S
C2587 H2629 0.930 . S
C2588 N2585 1.314 . S
C2588 C2586 1.353 . S
C2588 H2630 0.930 . S
C2589 N2585 1.279 . S
C2589 C2587 1.358 . S
C2589 H2631 0.930 . S
C2590 C2591 1.348 . S
C2590 C2592 1.356 . S
C2590 O2615 1.325 . S
C2591 C2590 1.348 . S
C2591 C2593 1.353 . S
C2591 H2632 0.929 . S
C2592 C2590 1.356 . S
C2592 C2594 1.358 . S
C2592 H2633 0.930 . S
C2593 C2591 1.353 . S
C2593 N2595 1.314 . S
C2593 H2634 0.930 . S
C2594 C2592 1.358 . S
C2594 N2595 1.279 . S
C2594 H2635 0.930 . S
N2595 C2593 1.314 . S
N2595 C2594 1.279 . S
C2596 C2598 1.353 . S
C2596 N2599 1.314 . S
C2596 H2602 0.930 . S
C2597 N2599 1.279 . S
C2597 C2600 1.358 . S
C2597 H2603 0.930 . S
C2598 C2596 1.353 . S
C2598 C2601 1.348 . S
C2598 H2636 0.929 . S
N2599 Li2554 1.990 . S
N2599 C2596 1.314 . S
N2599 C2597 1.279 . S
C2600 C2597 1.358 . S
C2600 C2601 1.356 . S
C2600 H2637 0.930 . S
C2601 C2598 1.348 . S
C2601 C2600 1.356 . S
H2602 C2596 0.930 . S
H2603 C2597 0.930 . S
C2604 N2605 1.314 . S
C2604 C2606 1.353 . S
C2604 H2610 0.930 . S
N2605 Li2555 1.990 . S
N2605 C2604 1.314 . S
N2605 C2608 1.279 . S
C2606 C2604 1.353 . S
C2606 C2609 1.348 . S
C2606 H2638 0.929 . S
C2607 C2608 1.358 . S
C2607 C2609 1.356 . S
C2607 H2639 0.930 . S
C2608 N2605 1.279 . S
C2608 C2607 1.358 . S
C2608 H2611 0.930 . S
C2609 C2606 1.348 . S
C2609 C2607 1.356 . S
H2610 C2604 0.930 . S
H2611 C2608 0.930 . S
O2612 Li2552 1.956 . S
O2612 Li2553 1.970 . S
O2612 Li2554 1.961 . S
O2612 C2556 1.325 . S
O2613 Li2552 1.970 . S
O2613 Li2553 1.956 . S
O2613 Li2555 1.961 . S
O2613 C2562 1.325 . S
O2614 Li2552 1.961 . S
O2614 Li2554 1.956 . S
O2614 Li2555 1.970 . S
O2614 C2584 1.325 . S
O2615 Li2553 1.961 . S
O2615 Li2554 1.970 . S
O2615 Li2555 1.956 . S
O2615 C2590 1.325 . S
H2616 C2558 0.929 . S
H2617 C2559 0.930 . S
H2618 C2560 0.930 . S
H2619 C2561 0.930 . S
H2620 C2563 0.930 . S
H2621 C2565 0.929 . S
H2622 C2566 0.930 . S
H2623 C2567 0.930 . S
H2624 C2570 0.930 . S
H2625 C2573 0.929 . S
H2626 C2578 0.929 . S
H2627 C2579 0.930 . S
H2628 C2586 0.929 . S
H2629 C2587 0.930 . S
H2630 C2588 0.930 . S
H2631 C2589 0.930 . S
H2632 C2591 0.929 . S
H2633 C2592 0.930 . S
H2634 C2593 0.930 . S
H2635 C2594 0.930 . S
H2636 C2598 0.929 . S
H2637 C2600 0.930 . S
H2638 C2606 0.929 . S
H2639 C2607 0.930 . S
Li2640 N2657 1.990 . S
Li2640 O2700 1.956 . S
Li2640 O2701 1.970 . S
Li2640 O2702 1.961 . S
Li2641 N2665 1.990 . S
Li2641 O2700 1.970 . S
Li2641 O2701 1.956 . S
Li2641 O2703 1.961 . S
Li2642 N2687 1.990 . S
Li2642 O2700 1.961 . S
Li2642 O2702 1.956 . S
Li2642 O2703 1.970 . S
Li2643 N2693 1.990 . S
Li2643 O2701 1.961 . S
Li2643 O2702 1.970 . S
Li2643 O2703 1.956 . S
C2644 C2646 1.348 . S
C2644 C2647 1.356 . S
C2644 O2700 1.325 . S
N2645 C2648 1.314 . S
N2645 C2649 1.279 . S
C2646 C2644 1.348 . S
C2646 C2648 1.353 . S
C2646 H2704 0.929 . S
C2647 C2644 1.356 . S
C2647 C2649 1.358 . S
C2647 H2705 0.930 . S
C2648 N2645 1.314 . S
C2648 C2646 1.353 . S
C2648 H2706 0.930 . S
C2649 N2645 1.279 . S
C2649 C2647 1.358 . S
C2649 H2707 0.930 . S
C2650 C2653 1.348 . S
C2650 C2654 1.356 . S
C2650 O2701 1.325 . S
C2651 N2652 1.279 . S
C2651 C2654 1.358 . S
C2651 H2708 0.930 . S
N2652 C2651 1.279 . S
N2652 C2655 1.314 . S
C2653 C2650 1.348 . S
C2653 C2655 1.353 . S
C2653 H2709 0.929 . S
C2654 C2650 1.356 . S
C2654 C2651 1.358 . S
C2654 H2710 0.930 . S
C2655 N2652 1.314 . S
C2655 C2653 1.353 . S
C2655 H2711 0.930 . S
C2656 N2657 1.314 . S
C2656 C2661 1.353 . S
C2656 H2662 0.930 . S
N2657 Li2640 1.990 . S
N2657 C2656 1.314 . S
N2657 C2659 1.279 . S
C2658 C2659 1.358 . S
C2658 C2660 1.356 . S
C2658 H2712 0.930 . S
C2659 N2657 1.279 . S
C2659 C2658 1.358 . S
C2659 H2663 0.930 . S
C2660 C2658 1.356 . S
C2660 C2661 1.348 . S
C2661 C2656 1.353 . S
C2661 C2660 1.348 . S
C2661 H2713 0.929 . S
H2662 C2656 0.930 . S
H2663 C2659 0.930 . S
C2664 N2665 1.314 . S
C2664 C2666 1.353 . S
C2664 H2670 0.930 . S
N2665 Li2641 1.990 . S
N2665 C2664 1.314 . S
N2665 C2668 1.279 . S
C2666 C2664 1.353 . S
C2666 C2669 1.348 . S
C2666 H2714 0.929 . S
C2667 C2668 1.358 . S
C2667 C2669 1.356 . S
C2667 H2715 0.930 . S
C2668 N2665 1.279 . S
C2668 C2667 1.358 . S
C2668 H2671 0.930 . S
C2669 C2666 1.348 . S
C2669 C2667 1.356 . S
H2670 C2664 0.930 . S
H2671 C2668 0.930 . S
C2672 C2674 1.348 . S
C2672 C2675 1.356 . S
C2672 O2702 1.325 . S
N2673 C2676 1.314 . S
N2673 C2677 1.279 . S
C2674 C2672 1.348 . S
C2674 C2676 1.353 . S
C2674 H2716 0.929 . S
C2675 C2672 1.356 . S
C2675 C2677 1.358 . S
C2675 H2717 0.930 . S
C2676 N2673 1.314 . S
C2676 C2674 1.353 . S
C2676 H2718 0.930 . S
C2677 N2673 1.279 . S
C2677 C2675 1.358 . S
C2677 H2719 0.930 . S
C2678 C2679 1.348 . S
C2678 C2680 1.356 . S
C2678 O2703 1.325 . S
C2679 C2678 1.348 . S
C2679 C2681 1.353 . S
C2679 H2720 0.929 . S
C2680 C2678 1.356 . S
C2680 C2682 1.358 . S
C2680 H2721 0.930 . S
C2681 C2679 1.353 . S
C2681 N2683 1.314 . S
C2681 H2722 0.930 . S
C2682 C2680 1.358 . S
C2682 N2683 1.279 . S
C2682 H2723 0.930 . S
N2683 C2681 1.314 . S
N2683 C2682 1.279 . S
C2684 C2686 1.353 . S
C2684 N2687 1.314 . S
C2684 H2690 0.930 . S
C2685 N2687 1.279 . S
C2685 C2688 1.358 . S
C2685 H2691 0.930 . S
C2686 C2684 1.353 . S
C2686 C2689 1.348 . S
C2686 H2724 0.929 . S
N2687 Li2642 1.990 . S
N2687 C2684 1.314 . S
N2687 C2685 1.279 . S
C2688 C2685 1.358 . S
C2688 C2689 1.356 . S
C2688 H2725 0.930 . S
C2689 C2686 1.348 . S
C2689 C2688 1.356 . S
H2690 C2684 0.930 . S
H2691 C2685 0.930 . S
C2692 N2693 1.314 . S
C2692 C2694 1.353 . S
C2692 H2698 0.930 . S
N2693 Li2643 1.990 . S
N2693 C2692 1.314 . S
N2693 C2696 1.279 . S
C2694 C2692 1.353 . S
C2694 C2697 1.348 . S
C2694 H2726 0.929 . S
C2695 C2696 1.358 . S
C2695 C2697 1.356 . S
C2695 H2727 0.930 . S
C2696 N2693 1.279 . S
C2696 C2695 1.358 . S
C2696 H2699 0.930 . S
C2697 C2694 1.348 . S
C2697 C2695 1.356 . S
H2698 C2692 0.930 . S
H2699 C2696 0.930 . S
O2700 Li2640 1.956 . S
O2700 Li2641 1.970 . S
O2700 Li2642 1.961 . S
O2700 C2644 1.325 . S
O2701 Li2640 1.970 . S
O2701 Li2641 1.956 . S
O2701 Li2643 1.961 . S
O2701 C2650 1.325 . S
O2702 Li2640 1.961 . S
O2702 Li2642 1.956 . S
O2702 Li2643 1.970 . S
O2702 C2672 1.325 . S
O2703 Li2641 1.961 . S
O2703 Li2642 1.970 . S
O2703 Li2643 1.956 . S
O2703 C2678 1.325 . S
H2704 C2646 0.929 . S
H2705 C2647 0.930 . S
H2706 C2648 0.930 . S
H2707 C2649 0.930 . S
H2708 C2651 0.930 . S
H2709 C2653 0.929 . S
H2710 C2654 0.930 . S
H2711 C2655 0.930 . S
H2712 C2658 0.930 . S
H2713 C2661 0.929 . S
H2714 C2666 0.929 . S
H2715 C2667 0.930 . S
H2716 C2674 0.929 . S
H2717 C2675 0.930 . S
H2718 C2676 0.930 . S
H2719 C2677 0.930 . S
H2720 C2679 0.929 . S
H2721 C2680 0.930 . S
H2722 C2681 0.930 . S
H2723 C2682 0.930 . S
H2724 C2686 0.929 . S
H2725 C2688 0.930 . S
H2726 C2694 0.929 . S
H2727 C2695 0.930 . S
Li2728 N2745 1.990 . S
Li2728 O2788 1.956 . S
Li2728 O2789 1.970 . S
Li2728 O2790 1.961 . S
Li2729 N2753 1.990 . S
Li2729 O2788 1.970 . S
Li2729 O2789 1.956 . S
Li2729 O2791 1.961 . S
Li2730 N2775 1.990 . S
Li2730 O2788 1.961 . S
Li2730 O2790 1.956 . S
Li2730 O2791 1.970 . S
Li2731 N2781 1.990 . S
Li2731 O2789 1.961 . S
Li2731 O2790 1.970 . S
Li2731 O2791 1.956 . S
C2732 C2734 1.348 . S
C2732 C2735 1.356 . S
C2732 O2788 1.325 . S
N2733 C2736 1.314 . S
N2733 C2737 1.279 . S
C2734 C2732 1.348 . S
C2734 C2736 1.353 . S
C2734 H2792 0.929 . S
C2735 C2732 1.356 . S
C2735 C2737 1.358 . S
C2735 H2793 0.930 . S
C2736 N2733 1.314 . S
C2736 C2734 1.353 . S
C2736 H2794 0.930 . S
C2737 N2733 1.279 . S
C2737 C2735 1.358 . S
C2737 H2795 0.930 . S
C2738 C2741 1.348 . S
C2738 C2742 1.356 . S
C2738 O2789 1.325 . S
C2739 N2740 1.279 . S
C2739 C2742 1.358 . S
C2739 H2796 0.930 . S
N2740 C2739 1.279 . S
N2740 C2743 1.314 . S
C2741 C2738 1.348 . S
C2741 C2743 1.353 . S
C2741 H2797 0.929 . S
C2742 C2738 1.356 . S
C2742 C2739 1.358 . S
C2742 H2798 0.930 . S
C2743 N2740 1.314 . S
C2743 C2741 1.353 . S
C2743 H2799 0.930 . S
C2744 N2745 1.314 . S
C2744 C2749 1.353 . S
C2744 H2750 0.930 . S
N2745 Li2728 1.990 . S
N2745 C2744 1.314 . S
N2745 C2747 1.279 . S
C2746 C2747 1.358 . S
C2746 C2748 1.356 . S
C2746 H2800 0.930 . S
C2747 N2745 1.279 . S
C2747 C2746 1.358 . S
C2747 H2751 0.930 . S
C2748 C2746 1.356 . S
C2748 C2749 1.348 . S
C2749 C2744 1.353 . S
C2749 C2748 1.348 . S
C2749 H2801 0.929 . S
H2750 C2744 0.930 . S
H2751 C2747 0.930 . S
C2752 N2753 1.314 . S
C2752 C2754 1.353 . S
C2752 H2758 0.930 . S
N2753 Li2729 1.990 . S
N2753 C2752 1.314 . S
N2753 C2756 1.279 . S
C2754 C2752 1.353 . S
C2754 C2757 1.348 . S
C2754 H2802 0.929 . S
C2755 C2756 1.358 . S
C2755 C2757 1.356 . S
C2755 H2803 0.930 . S
C2756 N2753 1.279 . S
C2756 C2755 1.358 . S
C2756 H2759 0.930 . S
C2757 C2754 1.348 . S
C2757 C2755 1.356 . S
H2758 C2752 0.930 . S
H2759 C2756 0.930 . S
C2760 C2762 1.348 . S
C2760 C2763 1.356 . S
C2760 O2790 1.325 . S
N2761 C2764 1.314 . S
N2761 C2765 1.279 . S
C2762 C2760 1.348 . S
C2762 C2764 1.353 . S
C2762 H2804 0.929 . S
C2763 C2760 1.356 . S
C2763 C2765 1.358 . S
C2763 H2805 0.930 . S
C2764 N2761 1.314 . S
C2764 C2762 1.353 . S
C2764 H2806 0.930 . S
C2765 N2761 1.279 . S
C2765 C2763 1.358 . S
C2765 H2807 0.930 . S
C2766 C2767 1.348 . S
C2766 C2768 1.356 . S
C2766 O2791 1.325 . S
C2767 C2766 1.348 . S
C2767 C2769 1.353 . S
C2767 H2808 0.929 . S
C2768 C2766 1.356 . S
C2768 C2770 1.358 . S
C2768 H2809 0.930 . S
C2769 C2767 1.353 . S
C2769 N2771 1.314 . S
C2769 H2810 0.930 . S
C2770 C2768 1.358 . S
C2770 N2771 1.279 . S
C2770 H2811 0.930 . S
N2771 C2769 1.314 . S
N2771 C2770 1.279 . S
C2772 C2774 1.353 . S
C2772 N2775 1.314 . S
C2772 H2778 0.930 . S
C2773 N2775 1.279 . S
C2773 C2776 1.358 . S
C2773 H2779 0.930 . S
C2774 C2772 1.353 . S
C2774 C2777 1.348 . S
C2774 H2812 0.929 . S
N2775 Li2730 1.990 . S
N2775 C2772 1.314 . S
N2775 C2773 1.279 . S
C2776 C2773 1.358 . S
C2776 C2777 1.356 . S
C2776 H2813 0.930 . S
C2777 C2774 1.348 . S
C2777 C2776 1.356 . S
H2778 C2772 0.930 . S
H2779 C2773 0.930 . S
C2780 N2781 1.314 . S
C2780 C2782 1.353 . S
C2780 H2786 0.930 . S
N2781 Li2731 1.990 . S
N2781 C2780 1.314 . S
N2781 C2784 1.279 . S
C2782 C2780 1.353 . S
C2782 C2785 1.348 . S
C2782 H2814 0.929 . S
C2783 C2784 1.358 . S
C2783 C2785 1.356 . S
C2783 H2815 0.930 . S
C2784 N2781 1.279 . S
C2784 C2783 1.358 . S
C2784 H2787 0.930 . S
C2785 C2782 1.348 . S
C2785 C2783 1.356 . S
H2786 C2780 0.930 . S
H2787 C2784 0.930 . S
O2788 Li2728 1.956 . S
O2788 Li2729 1.970 . S
O2788 Li2730 1.961 . S
O2788 C2732 1.325 . S
O2789 Li2728 1.970 . S
O2789 Li2729 1.956 . S
O2789 Li2731 1.961 . S
O2789 C2738 1.325 . S
O2790 Li2728 1.961 . S
O2790 Li2730 1.956 . S
O2790 Li2731 1.970 . S
O2790 C2760 1.325 . S
O2791 Li2729 1.961 . S
O2791 Li2730 1.970 . S
O2791 Li2731 1.956 . S
O2791 C2766 1.325 . S
H2792 C2734 0.929 . S
H2793 C2735 0.930 . S
H2794 C2736 0.930 . S
H2795 C2737 0.930 . S
H2796 C2739 0.930 . S
H2797 C2741 0.929 . S
H2798 C2742 0.930 . S
H2799 C2743 0.930 . S
H2800 C2746 0.930 . S
H2801 C2749 0.929 . S
H2802 C2754 0.929 . S
H2803 C2755 0.930 . S
H2804 C2762 0.929 . S
H2805 C2763 0.930 . S
H2806 C2764 0.930 . S
H2807 C2765 0.930 . S
H2808 C2767 0.929 . S
H2809 C2768 0.930 . S
H2810 C2769 0.930 . S
H2811 C2770 0.930 . S
H2812 C2774 0.929 . S
H2813 C2776 0.930 . S
H2814 C2782 0.929 . S
H2815 C2783 0.930 . S
C2816 C2817 1.391 . S
C2816 C2818 1.394 . S
C2816 H2832 0.931 . S
C2817 C2816 1.391 . S
C2817 C2821 1.376 . S
C2818 C2816 1.394 . S
C2818 C2819 1.369 . S
C2818 C2822 1.531 1_454 S
C2819 C2818 1.369 . S
C2819 C2820 1.410 1_545 S
C2819 C2827 1.503 1_444 S
C2820 C2819 1.410 1_565 S
C2820 C2821 1.392 1_565 S
C2820 C2823 1.511 . S
C2821 C2817 1.376 . S
C2821 C2820 1.392 1_545 S
C2821 H2833 0.929 . S
C2822 C2818 1.531 1_656 S
C2822 H2834 0.960 . S
C2822 H2835 0.962 . S
C2822 H2836 0.960 . S
C2823 C2820 1.511 . S
C2823 H2837 0.961 . S
C2823 H2838 0.961 . S
C2823 H2839 0.961 . S
C2824 C2825 1.370 . S
C2824 C2826 1.363 . S
C2824 H2840 0.931 . S
C2825 C2824 1.370 . S
C2825 C2829 1.408 . S
C2826 C2824 1.363 . S
C2826 C2827 1.370 . S
C2826 C2830 1.524 1_556 S
C2827 C2819 1.503 1_666 S
C2827 C2826 1.370 . S
C2827 C2828 1.403 1_655 S
C2828 C2827 1.403 1_455 S
C2828 C2829 1.404 1_455 S
C2828 C2831 1.539 . S
C2829 C2825 1.408 . S
C2829 C2828 1.404 1_655 S
C2829 H2841 0.930 . S
C2830 C2826 1.524 1_554 S
C2830 H2842 0.956 1_565 S
C2830 H2843 0.961 . S
C2830 H2844 0.961 . S
C2831 C2828 1.539 . S
C2831 H2845 0.958 1_565 S
C2831 H2846 0.961 . S
C2831 H2847 0.960 . S
H2832 C2816 0.931 . S
H2833 C2821 0.929 . S
H2834 C2822 0.960 . S
H2835 C2822 0.962 . S
H2836 C2822 0.960 . S
H2837 C2823 0.961 . S
H2838 C2823 0.961 . S
H2839 C2823 0.961 . S
H2840 C2824 0.931 . S
H2841 C2829 0.930 . S
H2842 C2830 0.956 1_545 S
H2843 C2830 0.961 . S
H2844 C2830 0.961 . S
H2845 C2831 0.958 1_545 S
H2846 C2831 0.961 . S
H2847 C2831 0.960 . S
C2848 C2849 1.391 . S
C2848 C2850 1.394 . S
C2848 H2864 0.931 . S
C2849 C2848 1.391 . S
C2849 C2853 1.376 . S
C2850 C2848 1.394 . S
C2850 C2851 1.369 . S
C2850 C2854 1.531 . S
C2851 C2850 1.369 . S
C2851 C2852 1.410 . S
C2851 C2859 1.503 . S
C2852 C2851 1.410 . S
C2852 C2853 1.392 . S
C2852 C2855 1.511 . S
C2853 C2849 1.376 . S
C2853 C2852 1.392 . S
C2853 H2865 0.929 . S
C2854 C2850 1.531 . S
C2854 H2866 0.960 . S
C2854 H2867 0.962 . S
C2854 H2868 0.960 . S
C2855 C2852 1.511 . S
C2855 H2869 0.961 . S
C2855 H2870 0.961 . S
C2855 H2871 0.961 . S
C2856 C2857 1.370 . S
C2856 C2858 1.363 . S
C2856 H2872 0.931 . S
C2857 C2856 1.370 . S
C2857 C2861 1.408 . S
C2858 C2856 1.363 . S
C2858 C2859 1.370 . S
C2858 C2862 1.524 . S
C2859 C2851 1.503 . S
C2859 C2858 1.370 . S
C2859 C2860 1.403 . S
C2860 C2859 1.403 . S
C2860 C2861 1.404 . S
C2860 C2863 1.539 . S
C2861 C2857 1.408 . S
C2861 C2860 1.404 . S
C2861 H2873 0.930 . S
C2862 C2858 1.524 . S
C2862 H2874 0.956 . S
C2862 H2875 0.961 . S
C2862 H2876 0.961 . S
C2863 C2860 1.539 . S
C2863 H2877 0.958 . S
C2863 H2878 0.961 . S
C2863 H2879 0.960 . S
H2864 C2848 0.931 . S
H2865 C2853 0.929 . S
H2866 C2854 0.960 . S
H2867 C2854 0.962 . S
H2868 C2854 0.960 . S
H2869 C2855 0.961 . S
H2870 C2855 0.961 . S
H2871 C2855 0.961 . S
H2872 C2856 0.931 . S
H2873 C2861 0.930 . S
H2874 C2862 0.956 . S
H2875 C2862 0.961 . S
H2876 C2862 0.961 . S
H2877 C2863 0.958 . S
H2878 C2863 0.961 . S
H2879 C2863 0.960 . S
C2880 C2881 1.391 . S
C2880 C2882 1.394 . S
C2880 H2896 0.931 . S
C2881 C2880 1.391 . S
C2881 C2885 1.376 . S
C2882 C2880 1.394 . S
C2882 C2883 1.369 . S
C2882 C2886 1.531 . S
C2883 C2882 1.369 . S
C2883 C2884 1.410 . S
C2883 C2891 1.503 1_565 S
C2884 C2883 1.410 . S
C2884 C2885 1.392 . S
C2884 C2887 1.511 . S
C2885 C2881 1.376 . S
C2885 C2884 1.392 . S
C2885 H2897 0.929 . S
C2886 C2882 1.531 . S
C2886 H2898 0.960 . S
C2886 H2899 0.970 . S
C2886 H2900 0.960 . S
C2887 C2884 1.511 . S
C2887 H2901 0.961 . S
C2887 H2902 0.961 1_565 S
C2887 H2903 0.961 . S
C2888 C2889 1.370 . S
C2888 C2890 1.363 . S
C2888 H2904 0.931 . S
C2889 C2888 1.370 . S
C2889 C2893 1.408 . S
C2890 C2888 1.363 . S
C2890 C2891 1.370 . S
C2890 C2894 1.524 . S
C2891 C2883 1.503 1_545 S
C2891 C2890 1.370 . S
C2891 C2892 1.403 1_545 S
C2892 C2891 1.403 1_565 S
C2892 C2893 1.404 1_565 S
C2892 C2895 1.539 . S
C2893 C2889 1.408 . S
C2893 C2892 1.404 1_545 S
C2893 H2905 0.930 . S
C2894 C2890 1.524 . S
C2894 H2906 0.956 . S
C2894 H2907 0.961 . S
C2894 H2908 0.961 . S
C2895 C2892 1.539 . S
C2895 H2909 0.958 . S
C2895 H2910 0.961 . S
C2895 H2911 0.960 . S
H2896 C2880 0.931 . S
H2897 C2885 0.929 . S
H2898 C2886 0.960 . S
H2899 C2886 0.970 . S
H2900 C2886 0.960 . S
H2901 C2887 0.961 . S
H2902 C2887 0.961 1_545 S
H2903 C2887 0.961 . S
H2904 C2888 0.931 . S
H2905 C2893 0.930 . S
H2906 C2894 0.956 . S
H2907 C2894 0.961 . S
H2908 C2894 0.961 . S
H2909 C2895 0.958 . S
H2910 C2895 0.961 . S
H2911 C2895 0.960 . S
C2912 C2913 1.391 . S
C2912 C2914 1.394 . S
C2912 H2928 0.931 . S
C2913 C2912 1.391 . S
C2913 C2917 1.376 . S
C2914 C2912 1.394 . S
C2914 C2915 1.369 . S
C2914 C2918 1.531 . S
C2915 C2914 1.369 . S
C2915 C2916 1.410 . S
C2915 C2923 1.503 . S
C2916 C2915 1.410 . S
C2916 C2917 1.392 . S
C2916 C2919 1.511 . S
C2917 C2913 1.376 . S
C2917 C2916 1.392 . S
C2917 H2929 0.929 . S
C2918 C2914 1.531 . S
C2918 H2930 0.960 . S
C2918 H2931 0.962 . S
C2918 H2932 0.960 . S
C2919 C2916 1.511 . S
C2919 H2933 0.961 . S
C2919 H2934 0.961 . S
C2919 H2935 0.961 . S
C2920 C2921 1.370 . S
C2920 C2922 1.363 . S
C2920 H2936 0.931 . S
C2921 C2920 1.370 . S
C2921 C2925 1.408 . S
C2922 C2920 1.363 . S
C2922 C2923 1.370 . S
C2922 C2926 1.524 . S
C2923 C2915 1.503 . S
C2923 C2922 1.370 . S
C2923 C2924 1.403 . S
C2924 C2923 1.403 . S
C2924 C2925 1.404 . S
C2924 C2927 1.539 . S
C2925 C2921 1.408 . S
C2925 C2924 1.404 . S
C2925 H2937 0.930 . S
C2926 C2922 1.524 . S
C2926 H2938 0.956 . S
C2926 H2939 0.961 . S
C2926 H2940 0.961 . S
C2927 C2924 1.539 . S
C2927 H2941 0.958 . S
C2927 H2942 0.961 . S
C2927 H2943 0.960 . S
H2928 C2912 0.931 . S
H2929 C2917 0.929 . S
H2930 C2918 0.960 . S
H2931 C2918 0.962 . S
H2932 C2918 0.960 . S
H2933 C2919 0.961 . S
H2934 C2919 0.961 . S
H2935 C2919 0.961 . S
H2936 C2920 0.931 . S
H2937 C2925 0.930 . S
H2938 C2926 0.956 . S
H2939 C2926 0.961 . S
H2940 C2926 0.961 . S
H2941 C2927 0.958 . S
H2942 C2927 0.961 . S
H2943 C2927 0.960 . S
C2944 C2945 1.391 . S
C2944 C2946 1.394 . S
C2944 H2960 0.931 . S
C2945 C2944 1.391 . S
C2945 C2949 1.376 . S
C2946 C2944 1.394 . S
C2946 C2947 1.369 . S
C2946 C2950 1.531 1_565 S
C2947 C2946 1.369 . S
C2947 C2948 1.403 1_455 S
C2947 C2955 1.503 1_465 S
C2948 C2947 1.403 1_655 S
C2948 C2949 1.383 1_655 S
C2948 C2951 1.526 . S
C2949 C2945 1.376 . S
C2949 C2948 1.383 1_455 S
C2949 H2961 0.929 . S
C2950 C2946 1.531 1_545 S
C2950 H2962 0.960 . S
C2950 H2963 0.962 1_545 S
C2950 H2964 0.960 . S
C2951 C2948 1.526 . S
C2951 H2965 0.961 . S
C2951 H2966 0.961 . S
C2951 H2967 0.961 1_565 S
C2952 C2953 1.370 . S
C2952 C2954 1.362 1_545 S
C2952 H2968 0.931 . S
C2953 C2952 1.370 . S
C2953 C2957 1.408 . S
C2954 C2952 1.362 1_565 S
C2954 C2955 1.370 1_565 S
C2954 C2958 1.526 . S
C2955 C2947 1.503 1_645 S
C2955 C2954 1.370 1_545 S
C2955 C2956 1.403 . S
C2956 C2955 1.403 . S
C2956 C2957 1.404 . S
C2956 C2959 1.539 1_655 S
C2957 C2953 1.408 . S
C2957 C2956 1.404 . S
C2957 H2969 0.930 . S
C2958 C2954 1.526 . S
C2958 H2970 0.957 . S
C2958 H2971 0.961 . S
C2958 H2972 0.961 . S
C2959 C2956 1.539 1_455 S
C2959 H2973 0.958 . S
C2959 H2974 0.961 1_455 S
C2959 H2975 0.960 . S
H2960 C2944 0.931 . S
H2961 C2949 0.929 . S
H2962 C2950 0.960 . S
H2963 C2950 0.962 1_565 S
H2964 C2950 0.960 . S
H2965 C2951 0.961 . S
H2966 C2951 0.961 . S
H2967 C2951 0.961 1_545 S
H2968 C2952 0.931 . S
H2969 C2957 0.930 . S
H2970 C2958 0.957 . S
H2971 C2958 0.961 . S
H2972 C2958 0.961 . S
H2973 C2959 0.958 . S
H2974 C2959 0.961 1_655 S
H2975 C2959 0.960 . S
C2976 C2977 1.391 . S
C2976 C2978 1.394 . S
C2976 H2992 0.931 . S
C2977 C2976 1.391 . S
C2977 C2981 1.376 . S
C2978 C2976 1.394 . S
C2978 C2979 1.369 . S
C2978 C2982 1.531 . S
C2979 C2978 1.369 . S
C2979 C2980 1.410 . S
C2979 C2987 1.503 . S
C2980 C2979 1.410 . S
C2980 C2981 1.392 . S
C2980 C2983 1.511 . S
C2981 C2977 1.376 . S
C2981 C2980 1.392 . S
C2981 H2993 0.929 . S
C2982 C2978 1.531 . S
C2982 H2994 0.960 . S
C2982 H2995 0.962 . S
C2982 H2996 0.960 . S
C2983 C2980 1.511 . S
C2983 H2997 0.961 . S
C2983 H2998 0.961 . S
C2983 H2999 0.961 . S
C2984 C2985 1.370 . S
C2984 C2986 1.363 . S
C2984 H3000 0.931 . S
C2985 C2984 1.370 . S
C2985 C2989 1.408 . S
C2986 C2984 1.363 . S
C2986 C2987 1.370 . S
C2986 C2990 1.524 . S
C2987 C2979 1.503 . S
C2987 C2986 1.370 . S
C2987 C2988 1.403 . S
C2988 C2987 1.403 . S
C2988 C2989 1.404 . S
C2988 C2991 1.539 . S
C2989 C2985 1.408 . S
C2989 C2988 1.404 . S
C2989 H3001 0.930 . S
C2990 C2986 1.524 . S
C2990 H3002 0.956 . S
C2990 H3003 0.961 . S
C2990 H3004 0.961 . S
C2991 C2988 1.539 . S
C2991 H3005 0.958 . S
C2991 H3006 0.961 . S
C2991 H3007 0.960 . S
H2992 C2976 0.931 . S
H2993 C2981 0.929 . S
H2994 C2982 0.960 . S
H2995 C2982 0.962 . S
H2996 C2982 0.960 . S
H2997 C2983 0.961 . S
H2998 C2983 0.961 . S
H2999 C2983 0.961 . S
H3000 C2984 0.931 . S
H3001 C2989 0.930 . S
H3002 C2990 0.956 . S
H3003 C2990 0.961 . S
H3004 C2990 0.961 . S
H3005 C2991 0.958 . S
H3006 C2991 0.961 . S
H3007 C2991 0.960 . S
C3008 C3009 1.391 . S
C3008 C3010 1.394 . S
C3008 H3024 0.931 . S
C3009 C3008 1.391 . S
C3009 C3013 1.376 . S
C3010 C3008 1.394 . S
C3010 C3011 1.369 . S
C3010 C3014 1.531 . S
C3011 C3010 1.369 . S
C3011 C3012 1.410 . S
C3011 C3019 1.503 1_546 S
C3012 C3011 1.410 . S
C3012 C3013 1.392 . S
C3012 C3015 1.511 1_546 S
C3013 C3009 1.376 . S
C3013 C3012 1.392 . S
C3013 H3025 0.929 . S
C3014 C3010 1.531 . S
C3014 H3026 0.960 1_556 S
C3014 H3027 0.962 . S
C3014 H3028 0.960 . S
C3015 C3012 1.511 1_564 S
C3015 H3029 0.961 1_554 S
C3015 H3030 0.961 . S
C3015 H3031 0.961 . S
C3016 C3017 1.370 . S
C3016 C3018 1.363 1_554 S
C3016 H3032 0.931 . S
C3017 C3016 1.370 . S
C3017 C3021 1.408 . S
C3018 C3016 1.363 1_556 S
C3018 C3019 1.371 1_556 S
C3018 C3022 1.524 . S
C3019 C3011 1.503 1_564 S
C3019 C3018 1.371 1_554 S
C3019 C3020 1.403 . S
C3020 C3019 1.403 . S
C3020 C3021 1.404 . S
C3020 C3023 1.539 1_565 S
C3021 C3017 1.408 . S
C3021 C3020 1.404 . S
C3021 H3033 0.930 . S
C3022 C3018 1.524 . S
C3022 H3034 0.956 . S
C3022 H3035 0.961 . S
C3022 H3036 0.961 . S
C3023 C3020 1.539 1_545 S
C3023 H3037 0.958 . S
C3023 H3038 0.961 . S
C3023 H3039 0.960 . S
H3024 C3008 0.931 . S
H3025 C3013 0.929 . S
H3026 C3014 0.960 1_554 S
H3027 C3014 0.962 . S
H3028 C3014 0.960 . S
H3029 C3015 0.961 1_556 S
H3030 C3015 0.961 . S
H3031 C3015 0.961 . S
H3032 C3016 0.931 . S
H3033 C3021 0.930 . S
H3034 C3022 0.956 . S
H3035 C3022 0.961 . S
H3036 C3022 0.961 . S
H3037 C3023 0.958 . S
H3038 C3023 0.961 . S
H3039 C3023 0.960 . S
C3040 C3041 1.391 . S
C3040 C3042 1.394 . S
C3040 H3056 0.931 . S
C3041 C3040 1.391 . S
C3041 C3045 1.376 . S
C3042 C3040 1.394 . S
C3042 C3043 1.369 . S
C3042 C3046 1.531 . S
C3043 C3042 1.369 . S
C3043 C3044 1.410 . S
C3043 C3051 1.503 . S
C3044 C3043 1.410 . S
C3044 C3045 1.392 . S
C3044 C3047 1.511 . S
C3045 C3041 1.376 . S
C3045 C3044 1.392 . S
C3045 H3057 0.929 . S
C3046 C3042 1.531 . S
C3046 H3058 0.960 . S
C3046 H3059 0.962 . S
C3046 H3060 0.960 . S
C3047 C3044 1.511 . S
C3047 H3061 0.961 . S
C3047 H3062 0.961 . S
C3047 H3063 0.961 . S
C3048 C3049 1.370 . S
C3048 C3050 1.363 . S
C3048 H3064 0.931 . S
C3049 C3048 1.370 . S
C3049 C3053 1.408 . S
C3050 C3048 1.363 . S
C3050 C3051 1.370 . S
C3050 C3054 1.524 . S
C3051 C3043 1.503 . S
C3051 C3050 1.370 . S
C3051 C3052 1.403 . S
C3052 C3051 1.403 . S
C3052 C3053 1.404 . S
C3052 C3055 1.539 . S
C3053 C3049 1.408 . S
C3053 C3052 1.404 . S
C3053 H3065 0.930 . S
C3054 C3050 1.524 . S
C3054 H3066 0.956 . S
C3054 H3067 0.961 . S
C3054 H3068 0.961 . S
C3055 C3052 1.539 . S
C3055 H3069 0.958 . S
C3055 H3070 0.961 . S
C3055 H3071 0.960 . S
H3056 C3040 0.931 . S
H3057 C3045 0.929 . S
H3058 C3046 0.960 . S
H3059 C3046 0.962 . S
H3060 C3046 0.960 . S
H3061 C3047 0.961 . S
H3062 C3047 0.961 . S
H3063 C3047 0.961 . S
H3064 C3048 0.931 . S
H3065 C3053 0.930 . S
H3066 C3054 0.956 . S
H3067 C3054 0.961 . S
H3068 C3054 0.961 . S
H3069 C3055 0.958 . S
H3070 C3055 0.961 . S
H3071 C3055 0.960 . S
C3072 C3073 1.391 . S
C3072 C3074 1.394 . S
C3072 H3088 0.931 . S
C3073 C3072 1.391 . S
C3073 C3077 1.376 . S
C3074 C3072 1.394 . S
C3074 C3075 1.369 . S
C3074 C3078 1.531 1_554 S
C3075 C3074 1.369 . S
C3075 C3076 1.410 . S
C3075 C3083 1.503 1_554 S
C3076 C3075 1.410 . S
C3076 C3077 1.392 . S
C3076 C3079 1.511 . S
C3077 C3073 1.376 . S
C3077 C3076 1.392 . S
C3077 H3089 0.929 . S
C3078 C3074 1.531 1_556 S
C3078 H3090 0.960 . S
C3078 H3091 0.962 . S
C3078 H3092 0.960 . S
C3079 C3076 1.511 . S
C3079 H3093 0.961 . S
C3079 H3094 0.961 . S
C3079 H3095 0.961 . S
C3080 C3081 1.370 . S
C3080 C3082 1.388 . S
C3080 H3096 0.931 . S
C3081 C3080 1.370 . S
C3081 C3085 1.408 . S
C3082 C3080 1.388 . S
C3082 C3083 1.388 . S
C3082 C3086 1.483 1_556 S
C3083 C3075 1.503 1_556 S
C3083 C3082 1.388 . S
C3083 C3084 1.403 . S
C3084 C3083 1.403 . S
C3084 C3085 1.404 . S
C3084 C3087 1.539 . S
C3085 C3081 1.408 . S
C3085 C3084 1.404 . S
C3085 H3097 0.930 . S
C3086 C3082 1.483 1_554 S
C3086 H3098 0.956 . S
C3086 H3099 0.961 . S
C3086 H3100 0.961 . S
C3087 C3084 1.539 . S
C3087 H3101 0.958 . S
C3087 H3102 0.961 . S
C3087 H3103 0.960 . S
H3088 C3072 0.931 . S
H3089 C3077 0.929 . S
H3090 C3078 0.960 . S
H3091 C3078 0.962 . S
H3092 C3078 0.960 . S
H3093 C3079 0.961 . S
H3094 C3079 0.961 . S
H3095 C3079 0.961 . S
H3096 C3080 0.931 . S
H3097 C3085 0.930 . S
H3098 C3086 0.956 . S
H3099 C3086 0.961 . S
H3100 C3086 0.961 . S
H3101 C3087 0.958 . S
H3102 C3087 0.961 . S
H3103 C3087 0.960 . S
C3104 C3105 1.391 . S
C3104 C3106 1.394 . S
C3104 H3120 0.931 . S
C3105 C3104 1.391 . S
C3105 C3109 1.376 . S
C3106 C3104 1.394 . S
C3106 C3107 1.369 . S
C3106 C3110 1.531 . S
C3107 C3106 1.369 . S
C3107 C3108 1.410 . S
C3107 C3115 1.503 . S
C3108 C3107 1.410 . S
C3108 C3109 1.392 . S
C3108 C3111 1.511 . S
C3109 C3105 1.376 . S
C3109 C3108 1.392 . S
C3109 H3121 0.929 . S
C3110 C3106 1.531 . S
C3110 H3122 0.960 . S
C3110 H3123 0.962 . S
C3110 H3124 0.960 . S
C3111 C3108 1.511 . S
C3111 H3125 0.961 . S
C3111 H3126 0.961 . S
C3111 H3127 0.961 . S
C3112 C3113 1.370 . S
C3112 C3114 1.363 . S
C3112 H3128 0.931 . S
C3113 C3112 1.370 . S
C3113 C3117 1.408 . S
C3114 C3112 1.363 . S
C3114 C3115 1.370 . S
C3114 C3118 1.524 . S
C3115 C3107 1.503 . S
C3115 C3114 1.370 . S
C3115 C3116 1.403 . S
C3116 C3115 1.403 . S
C3116 C3117 1.404 . S
C3116 C3119 1.539 . S
C3117 C3113 1.408 . S
C3117 C3116 1.404 . S
C3117 H3129 0.930 . S
C3118 C3114 1.524 . S
C3118 H3130 0.956 . S
C3118 H3131 0.961 . S
C3118 H3132 0.961 . S
C3119 C3116 1.539 . S
C3119 H3133 0.958 . S
C3119 H3134 0.961 . S
C3119 H3135 0.960 . S
H3120 C3104 0.931 . S
H3121 C3109 0.929 . S
H3122 C3110 0.960 . S
H3123 C3110 0.962 . S
H3124 C3110 0.960 . S
H3125 C3111 0.961 . S
H3126 C3111 0.961 . S
H3127 C3111 0.961 . S
H3128 C3112 0.931 . S
H3129 C3117 0.930 . S
H3130 C3118 0.956 . S
H3131 C3118 0.961 . S
H3132 C3118 0.961 . S
H3133 C3119 0.958 . S
H3134 C3119 0.961 . S
H3135 C3119 0.960 . S
C3136 C3137 1.391 . S
C3136 C3138 1.394 . S
C3136 H3152 0.931 . S
C3137 C3136 1.391 . S
C3137 C3141 1.376 . S
C3138 C3136 1.394 . S
C3138 C3139 1.369 . S
C3138 C3142 1.531 . S
C3139 C3138 1.369 . S
C3139 C3140 1.410 1_455 S
C3139 C3147 1.503 1_455 S
C3140 C3139 1.410 1_655 S
C3140 C3141 1.392 1_655 S
C3140 C3143 1.511 . S
C3141 C3137 1.376 . S
C3141 C3140 1.392 1_455 S
C3141 H3153 0.929 . S
C3142 C3138 1.531 . S
C3142 H3154 0.960 . S
C3142 H3155 0.962 . S
C3142 H3156 0.960 . S
C3143 C3140 1.511 . S
C3143 H3157 0.961 . S
C3143 H3158 0.961 . S
C3143 H3159 0.961 . S
C3144 C3145 1.370 . S
C3144 C3146 1.363 . S
C3144 H3160 0.931 . S
C3145 C3144 1.370 . S
C3145 C3149 1.408 . S
C3146 C3144 1.363 . S
C3146 C3147 1.370 . S
C3146 C3150 1.524 . S
C3147 C3139 1.503 1_655 S
C3147 C3146 1.370 . S
C3147 C3148 1.403 . S
C3148 C3147 1.403 . S
C3148 C3149 1.404 . S
C3148 C3151 1.539 . S
C3149 C3145 1.408 . S
C3149 C3148 1.404 . S
C3149 H3161 0.930 . S
C3150 C3146 1.524 . S
C3150 H3162 0.956 1_655 S
C3150 H3163 0.961 . S
C3150 H3164 0.961 . S
C3151 C3148 1.539 . S
C3151 H3165 0.958 . S
C3151 H3166 0.961 . S
C3151 H3167 0.960 . S
H3152 C3136 0.931 . S
H3153 C3141 0.929 . S
H3154 C3142 0.960 . S
H3155 C3142 0.962 . S
H3156 C3142 0.960 . S
H3157 C3143 0.961 . S
H3158 C3143 0.961 . S
H3159 C3143 0.961 . S
H3160 C3144 0.931 . S
H3161 C3149 0.930 . S
H3162 C3150 0.956 1_455 S
H3163 C3150 0.961 . S
H3164 C3150 0.961 . S
H3165 C3151 0.958 . S
H3166 C3151 0.961 . S
H3167 C3151 0.960 . S
C3168 C3169 1.391 . S
C3168 C3170 1.394 . S
C3168 H3184 0.931 . S
C3169 C3168 1.391 . S
C3169 C3173 1.376 . S
C3170 C3168 1.394 . S
C3170 C3171 1.369 . S
C3170 C3174 1.531 . S
C3171 C3170 1.369 . S
C3171 C3172 1.410 . S
C3171 C3179 1.503 . S
C3172 C3171 1.410 . S
C3172 C3173 1.392 . S
C3172 C3175 1.511 . S
C3173 C3169 1.376 . S
C3173 C3172 1.392 . S
C3173 H3185 0.929 . S
C3174 C3170 1.531 . S
C3174 H3186 0.960 . S
C3174 H3187 0.962 . S
C3174 H3188 0.960 . S
C3175 C3172 1.511 . S
C3175 H3189 0.961 . S
C3175 H3190 0.961 . S
C3175 H3191 0.961 . S
C3176 C3177 1.370 . S
C3176 C3178 1.363 . S
C3176 H3192 0.931 . S
C3177 C3176 1.370 . S
C3177 C3181 1.408 . S
C3178 C3176 1.363 . S
C3178 C3179 1.370 . S
C3178 C3182 1.524 . S
C3179 C3171 1.503 . S
C3179 C3178 1.370 . S
C3179 C3180 1.403 . S
C3180 C3179 1.403 . S
C3180 C3181 1.404 . S
C3180 C3183 1.539 . S
C3181 C3177 1.408 . S
C3181 C3180 1.404 . S
C3181 H3193 0.930 . S
C3182 C3178 1.524 . S
C3182 H3194 0.956 . S
C3182 H3195 0.961 . S
C3182 H3196 0.961 . S
C3183 C3180 1.539 . S
C3183 H3197 0.958 . S
C3183 H3198 0.961 . S
C3183 H3199 0.960 . S
H3184 C3168 0.931 . S
H3185 C3173 0.929 . S
H3186 C3174 0.960 . S
H3187 C3174 0.962 . S
H3188 C3174 0.960 . S
H3189 C3175 0.961 . S
H3190 C3175 0.961 . S
H3191 C3175 0.961 . S
H3192 C3176 0.931 . S
H3193 C3181 0.930 . S
H3194 C3182 0.956 . S
H3195 C3182 0.961 . S
H3196 C3182 0.961 . S
H3197 C3183 0.958 . S
H3198 C3183 0.961 . S
H3199 C3183 0.960 . S
C3200 C3201 1.391 . S
C3200 C3202 1.394 . S
C3200 H3216 0.931 . S
C3201 C3200 1.391 . S
C3201 C3205 1.376 . S
C3202 C3200 1.394 . S
C3202 C3203 1.369 . S
C3202 C3206 1.531 . S
C3203 C3202 1.369 . S
C3203 C3204 1.410 . S
C3203 C3211 1.503 . S
C3204 C3203 1.410 . S
C3204 C3205 1.392 . S
C3204 C3207 1.511 . S
C3205 C3201 1.376 . S
C3205 C3204 1.392 . S
C3205 H3217 0.929 . S
C3206 C3202 1.531 . S
C3206 H3218 0.960 . S
C3206 H3219 0.962 . S
C3206 H3220 0.960 . S
C3207 C3204 1.511 . S
C3207 H3221 0.961 . S
C3207 H3222 0.961 . S
C3207 H3223 0.961 . S
C3208 C3209 1.370 . S
C3208 C3210 1.363 . S
C3208 H3224 0.931 . S
C3209 C3208 1.370 . S
C3209 C3213 1.408 . S
C3210 C3208 1.363 . S
C3210 C3211 1.370 . S
C3210 C3214 1.524 . S
C3211 C3203 1.503 . S
C3211 C3210 1.370 . S
C3211 C3212 1.403 . S
C3212 C3211 1.403 . S
C3212 C3213 1.404 . S
C3212 C3215 1.539 . S
C3213 C3209 1.408 . S
C3213 C3212 1.404 . S
C3213 H3225 0.930 . S
C3214 C3210 1.524 . S
C3214 H3226 0.956 . S
C3214 H3227 0.961 . S
C3214 H3228 0.961 . S
C3215 C3212 1.539 . S
C3215 H3229 0.958 . S
C3215 H3230 0.961 . S
C3215 H3231 0.960 . S
H3216 C3200 0.931 . S
H3217 C3205 0.929 . S
H3218 C3206 0.960 . S
H3219 C3206 0.962 . S
H3220 C3206 0.960 . S
H3221 C3207 0.961 . S
H3222 C3207 0.961 . S
H3223 C3207 0.961 . S
H3224 C3208 0.931 . S
H3225 C3213 0.930 . S
H3226 C3214 0.956 . S
H3227 C3214 0.961 . S
H3228 C3214 0.961 . S
H3229 C3215 0.958 . S
H3230 C3215 0.961 . S
H3231 C3215 0.960 . S
C3232 C3233 1.391 . S
C3232 C3234 1.394 . S
C3232 H3248 0.931 . S
C3233 C3232 1.391 . S
C3233 C3237 1.376 . S
C3234 C3232 1.394 . S
C3234 C3235 1.369 . S
C3234 C3238 1.531 . S
C3235 C3234 1.369 . S
C3235 C3236 1.410 . S
C3235 C3243 1.503 . S
C3236 C3235 1.410 . S
C3236 C3237 1.392 . S
C3236 C3239 1.511 . S
C3237 C3233 1.376 . S
C3237 C3236 1.392 . S
C3237 H3249 0.929 . S
C3238 C3234 1.531 . S
C3238 H3250 0.960 . S
C3238 H3251 0.962 . S
C3238 H3252 0.960 . S
C3239 C3236 1.511 . S
C3239 H3253 0.961 . S
C3239 H3254 0.961 . S
C3239 H3255 0.961 . S
C3240 C3241 1.370 . S
C3240 C3242 1.363 . S
C3240 H3256 0.931 . S
C3241 C3240 1.370 . S
C3241 C3245 1.408 . S
C3242 C3240 1.363 . S
C3242 C3243 1.370 . S
C3242 C3246 1.524 . S
C3243 C3235 1.503 . S
C3243 C3242 1.370 . S
C3243 C3244 1.403 . S
C3244 C3243 1.403 . S
C3244 C3245 1.404 . S
C3244 C3247 1.539 . S
C3245 C3241 1.408 . S
C3245 C3244 1.404 . S
C3245 H3257 0.930 . S
C3246 C3242 1.524 . S
C3246 H3258 0.956 . S
C3246 H3259 0.961 . S
C3246 H3260 0.961 . S
C3247 C3244 1.539 . S
C3247 H3261 0.958 . S
C3247 H3262 0.961 . S
C3247 H3263 0.960 . S
H3248 C3232 0.931 . S
H3249 C3237 0.929 . S
H3250 C3238 0.960 . S
H3251 C3238 0.962 . S
H3252 C3238 0.960 . S
H3253 C3239 0.961 . S
H3254 C3239 0.961 . S
H3255 C3239 0.961 . S
H3256 C3240 0.931 . S
H3257 C3245 0.930 . S
H3258 C3246 0.956 . S
H3259 C3246 0.961 . S
H3260 C3246 0.961 . S
H3261 C3247 0.958 . S
H3262 C3247 0.961 . S
H3263 C3247 0.960 . S
C3264 C3265 1.391 . S
C3264 C3266 1.394 . S
C3264 H3280 0.931 . S
C3265 C3264 1.391 . S
C3265 C3269 1.376 . S
C3266 C3264 1.394 . S
C3266 C3267 1.369 . S
C3266 C3270 1.531 . S
C3267 C3266 1.369 . S
C3267 C3268 1.410 . S
C3267 C3275 1.503 . S
C3268 C3267 1.410 . S
C3268 C3269 1.392 . S
C3268 C3271 1.511 . S
C3269 C3265 1.376 . S
C3269 C3268 1.392 . S
C3269 H3281 0.929 . S
C3270 C3266 1.531 . S
C3270 H3282 0.960 . S
C3270 H3283 0.962 . S
C3270 H3284 0.960 . S
C3271 C3268 1.511 . S
C3271 H3285 0.961 . S
C3271 H3286 0.961 . S
C3271 H3287 0.961 . S
C3272 C3273 1.370 . S
C3272 C3274 1.363 . S
C3272 H3288 0.931 . S
C3273 C3272 1.370 . S
C3273 C3277 1.408 . S
C3274 C3272 1.363 . S
C3274 C3275 1.370 . S
C3274 C3278 1.524 . S
C3275 C3267 1.503 . S
C3275 C3274 1.370 . S
C3275 C3276 1.403 . S
C3276 C3275 1.403 . S
C3276 C3277 1.404 . S
C3276 C3279 1.539 . S
C3277 C3273 1.408 . S
C3277 C3276 1.404 . S
C3277 H3289 0.930 . S
C3278 C3274 1.524 . S
C3278 H3290 0.956 . S
C3278 H3291 0.961 . S
C3278 H3292 0.961 . S
C3279 C3276 1.539 . S
C3279 H3293 0.958 . S
C3279 H3294 0.961 . S
C3279 H3295 0.960 . S
H3280 C3264 0.931 . S
H3281 C3269 0.929 . S
H3282 C3270 0.960 . S
H3283 C3270 0.962 . S
H3284 C3270 0.960 . S
H3285 C3271 0.961 . S
H3286 C3271 0.961 . S
H3287 C3271 0.961 . S
H3288 C3272 0.931 . S
H3289 C3277 0.930 . S
H3290 C3278 0.956 . S
H3291 C3278 0.961 . S
H3292 C3278 0.961 . S
H3293 C3279 0.958 . S
H3294 C3279 0.961 . S
H3295 C3279 0.960 . S
C3296 C3297 1.391 . S
C3296 C3298 1.394 . S
C3296 H3312 0.931 . S
C3297 C3296 1.391 . S
C3297 C3301 1.376 . S
C3298 C3296 1.394 . S
C3298 C3299 1.369 . S
C3298 C3302 1.531 . S
C3299 C3298 1.369 . S
C3299 C3300 1.410 1_556 S
C3299 C3307 1.503 1_456 S
C3300 C3299 1.410 1_554 S
C3300 C3301 1.392 1_554 S
C3300 C3303 1.511 . S
C3301 C3297 1.376 . S
C3301 C3300 1.392 1_556 S
C3301 H3313 0.929 . S
C3302 C3298 1.531 . S
C3302 H3314 0.960 . S
C3302 H3315 0.962 1_455 S
C3302 H3316 0.960 . S
C3303 C3300 1.511 . S
C3303 H3317 0.961 . S
C3303 H3318 0.961 . S
C3303 H3319 0.961 . S
C3304 C3305 1.370 . S
C3304 C3306 1.363 . S
C3304 H3320 0.931 . S
C3305 C3304 1.370 . S
C3305 C3309 1.408 . S
C3306 C3304 1.363 . S
C3306 C3307 1.370 . S
C3306 C3310 1.524 1_554 S
C3307 C3299 1.503 1_654 S
C3307 C3306 1.370 . S
C3307 C3308 1.403 1_655 S
C3308 C3307 1.403 1_455 S
C3308 C3309 1.404 1_455 S
C3308 C3311 1.539 . S
C3309 C3305 1.408 . S
C3309 C3308 1.404 1_655 S
C3309 H3321 0.930 . S
C3310 C3306 1.524 1_556 S
C3310 H3322 0.956 . S
C3310 H3323 0.963 . S
C3310 H3324 0.960 . S
C3311 C3308 1.539 . S
C3311 H3325 0.958 . S
C3311 H3326 0.961 . S
C3311 H3327 0.960 . S
H3312 C3296 0.931 . S
H3313 C3301 0.929 . S
H3314 C3302 0.960 . S
H3315 C3302 0.962 1_655 S
H3316 C3302 0.960 . S
H3317 C3303 0.961 . S
H3318 C3303 0.961 . S
H3319 C3303 0.961 . S
H3320 C3304 0.931 . S
H3321 C3309 0.930 . S
H3322 C3310 0.956 . S
H3323 C3310 0.963 . S
H3324 C3310 0.960 . S
H3325 C3311 0.958 . S
H3326 C3311 0.961 . S
H3327 C3311 0.960 . S
C3328 C3329 1.391 . S
C3328 C3330 1.394 1_545 S
C3328 H3344 0.931 . S
C3329 C3328 1.391 . S
C3329 C3333 1.376 . S
C3330 C3328 1.394 1_565 S
C3330 C3331 1.369 . S
C3330 C3334 1.531 . S
C3331 C3330 1.369 . S
C3331 C3332 1.410 1_565 S
C3331 C3339 1.503 . S
C3332 C3331 1.410 1_545 S
C3332 C3333 1.392 . S
C3332 C3335 1.511 . S
C3333 C3329 1.376 . S
C3333 C3332 1.392 . S
C3333 H3345 0.929 . S
C3334 C3330 1.531 . S
C3334 H3346 0.960 . S
C3334 H3347 0.962 . S
C3334 H3348 0.960 . S
C3335 C3332 1.511 . S
C3335 H3349 0.961 . S
C3335 H3350 0.961 . S
C3335 H3351 0.961 . S
C3336 C3337 1.370 . S
C3336 C3338 1.363 . S
C3336 H3352 0.931 . S
C3337 C3336 1.370 . S
C3337 C3341 1.408 . S
C3338 C3336 1.363 . S
C3338 C3339 1.370 . S
C3338 C3342 1.524 . S
C3339 C3331 1.503 . S
C3339 C3338 1.370 . S
C3339 C3340 1.403 . S
C3340 C3339 1.403 . S
C3340 C3341 1.404 . S
C3340 C3343 1.539 . S
C3341 C3337 1.408 . S
C3341 C3340 1.404 . S
C3341 H3353 0.930 . S
C3342 C3338 1.524 . S
C3342 H3354 0.956 . S
C3342 H3355 0.961 1_565 S
C3342 H3356 0.961 . S
C3343 C3340 1.539 . S
C3343 H3357 0.958 . S
C3343 H3358 0.961 . S
C3343 H3359 0.960 . S
H3344 C3328 0.931 . S
H3345 C3333 0.929 . S
H3346 C3334 0.960 . S
H3347 C3334 0.962 . S
H3348 C3334 0.960 . S
H3349 C3335 0.961 . S
H3350 C3335 0.961 . S
H3351 C3335 0.961 . S
H3352 C3336 0.931 . S
H3353 C3341 0.930 . S
H3354 C3342 0.956 . S
H3355 C3342 0.961 1_545 S
H3356 C3342 0.961 . S
H3357 C3343 0.958 . S
H3358 C3343 0.961 . S
H3359 C3343 0.960 . S
C3360 C3361 1.391 . S
C3360 C3362 1.394 . S
C3360 H3376 0.931 . S
C3361 C3360 1.391 . S
C3361 C3365 1.376 . S
C3362 C3360 1.394 . S
C3362 C3363 1.369 . S
C3362 C3366 1.531 . S
C3363 C3362 1.369 . S
C3363 C3364 1.410 . S
C3363 C3371 1.503 . S
C3364 C3363 1.410 . S
C3364 C3365 1.392 . S
C3364 C3367 1.511 . S
C3365 C3361 1.376 . S
C3365 C3364 1.392 . S
C3365 H3377 0.929 . S
C3366 C3362 1.531 . S
C3366 H3378 0.960 . S
C3366 H3379 0.962 . S
C3366 H3380 0.960 . S
C3367 C3364 1.511 . S
C3367 H3381 0.961 . S
C3367 H3382 0.961 . S
C3367 H3383 0.961 . S
C3368 C3369 1.370 . S
C3368 C3370 1.363 . S
C3368 H3384 0.931 . S
C3369 C3368 1.370 . S
C3369 C3373 1.408 . S
C3370 C3368 1.363 . S
C3370 C3371 1.370 . S
C3370 C3374 1.524 . S
C3371 C3363 1.503 . S
C3371 C3370 1.370 . S
C3371 C3372 1.403 . S
C3372 C3371 1.403 . S
C3372 C3373 1.404 . S
C3372 C3375 1.539 . S
C3373 C3369 1.408 . S
C3373 C3372 1.404 . S
C3373 H3385 0.930 . S
C3374 C3370 1.524 . S
C3374 H3386 0.956 . S
C3374 H3387 0.961 . S
C3374 H3388 0.961 . S
C3375 C3372 1.539 . S
C3375 H3389 0.958 . S
C3375 H3390 0.961 . S
C3375 H3391 0.960 . S
H3376 C3360 0.931 . S
H3377 C3365 0.929 . S
H3378 C3366 0.960 . S
H3379 C3366 0.962 . S
H3380 C3366 0.960 . S
H3381 C3367 0.961 . S
H3382 C3367 0.961 . S
H3383 C3367 0.961 . S
H3384 C3368 0.931 . S
H3385 C3373 0.930 . S
H3386 C3374 0.956 . S
H3387 C3374 0.961 . S
H3388 C3374 0.961 . S
H3389 C3375 0.958 . S
H3390 C3375 0.961 . S
H3391 C3375 0.960 . S
C3392 C3393 1.391 . S
C3392 C3394 1.394 . S
C3392 H3408 0.931 . S
C3393 C3392 1.391 . S
C3393 C3397 1.376 . S
C3394 C3392 1.394 . S
C3394 C3395 1.369 . S
C3394 C3398 1.531 1_545 S
C3395 C3394 1.369 . S
C3395 C3396 1.410 . S
C3395 C3403 1.488 1_545 S
C3396 C3395 1.410 . S
C3396 C3397 1.392 . S
C3396 C3399 1.511 . S
C3397 C3393 1.376 . S
C3397 C3396 1.392 . S
C3397 H3409 0.929 . S
C3398 C3394 1.531 1_565 S
C3398 H3410 0.960 . S
C3398 H3411 0.962 . S
C3398 H3412 0.960 . S
C3399 C3396 1.511 . S
C3399 H3413 0.961 . S
C3399 H3414 0.961 . S
C3399 H3415 0.961 . S
C3400 C3401 1.370 . S
C3400 C3402 1.363 . S
C3400 H3416 0.931 . S
C3401 C3400 1.370 . S
C3401 C3405 1.408 . S
C3402 C3400 1.363 . S
C3402 C3403 1.372 . S
C3402 C3406 1.524 1_565 S
C3403 C3395 1.488 1_565 S
C3403 C3402 1.372 . S
C3403 C3404 1.416 . S
C3404 C3403 1.416 . S
C3404 C3405 1.404 . S
C3404 C3407 1.539 . S
C3405 C3401 1.408 . S
C3405 C3404 1.404 . S
C3405 H3417 0.930 . S
C3406 C3402 1.524 1_545 S
C3406 H3418 0.956 . S
C3406 H3419 0.961 . S
C3406 H3420 0.961 . S
C3407 C3404 1.539 . S
C3407 H3421 0.958 . S
C3407 H3422 0.961 . S
C3407 H3423 0.960 1_565 S
H3408 C3392 0.931 . S
H3409 C3397 0.929 . S
H3410 C3398 0.960 . S
H3411 C3398 0.962 . S
H3412 C3398 0.960 . S
H3413 C3399 0.961 . S
H3414 C3399 0.961 . S
H3415 C3399 0.961 . S
H3416 C3400 0.931 . S
H3417 C3405 0.930 . S
H3418 C3406 0.956 . S
H3419 C3406 0.961 . S
H3420 C3406 0.961 . S
H3421 C3407 0.958 . S
H3422 C3407 0.961 . S
H3423 C3407 0.960 1_545 S
C3424 C3425 1.391 . S
C3424 C3426 1.394 . S
C3424 H3440 0.931 . S
C3425 C3424 1.391 . S
C3425 C3429 1.376 . S
C3426 C3424 1.394 . S
C3426 C3427 1.369 . S
C3426 C3430 1.531 1_556 S
C3427 C3426 1.369 . S
C3427 C3428 1.410 . S
C3427 C3435 1.489 1_556 S
C3428 C3427 1.410 . S
C3428 C3429 1.392 . S
C3428 C3431 1.511 . S
C3429 C3425 1.376 . S
C3429 C3428 1.392 . S
C3429 H3441 0.929 . S
C3430 C3426 1.531 1_554 S
C3430 H3442 0.960 . S
C3430 H3443 0.962 . S
C3430 H3444 0.960 . S
C3431 C3428 1.511 . S
C3431 H3445 0.961 . S
C3431 H3446 0.961 . S
C3431 H3447 0.961 . S
C3432 C3433 1.370 . S
C3432 C3434 1.356 1_554 S
C3432 H3448 0.931 . S
C3433 C3432 1.370 . S
C3433 C3437 1.408 . S
C3434 C3432 1.356 1_556 S
C3434 C3435 1.370 1_556 S
C3434 C3438 1.532 . S
C3435 C3427 1.489 1_554 S
C3435 C3434 1.370 1_554 S
C3435 C3436 1.418 . S
C3436 C3435 1.418 . S
C3436 C3437 1.404 . S
C3436 C3439 1.539 . S
C3437 C3433 1.408 . S
C3437 C3436 1.404 . S
C3437 H3449 0.930 . S
C3438 C3434 1.532 . S
C3438 H3450 0.956 . S
C3438 H3451 0.961 . S
C3438 H3452 0.961 . S
C3439 C3436 1.539 . S
C3439 H3453 0.958 . S
C3439 H3454 0.961 . S
C3439 H3455 0.960 . S
H3440 C3424 0.931 . S
H3441 C3429 0.929 . S
H3442 C3430 0.960 . S
H3443 C3430 0.962 . S
H3444 C3430 0.960 . S
H3445 C3431 0.961 . S
H3446 C3431 0.961 . S
H3447 C3431 0.961 . S
H3448 C3432 0.931 . S
H3449 C3437 0.930 . S
H3450 C3438 0.956 . S
H3451 C3438 0.961 . S
H3452 C3438 0.961 . S
H3453 C3439 0.958 . S
H3454 C3439 0.961 . S
H3455 C3439 0.960 . S
C3456 C3457 1.391 . S
C3456 C3458 1.394 . S
C3456 H3472 0.931 . S
C3457 C3456 1.391 . S
C3457 C3461 1.376 . S
C3458 C3456 1.394 . S
C3458 C3459 1.369 . S
C3458 C3462 1.531 . S
C3459 C3458 1.369 . S
C3459 C3460 1.410 . S
C3459 C3467 1.503 . S
C3460 C3459 1.410 . S
C3460 C3461 1.392 . S
C3460 C3463 1.511 . S
C3461 C3457 1.376 . S
C3461 C3460 1.392 . S
C3461 H3473 0.929 . S
C3462 C3458 1.531 . S
C3462 H3474 0.960 . S
C3462 H3475 0.962 . S
C3462 H3476 0.960 . S
C3463 C3460 1.511 . S
C3463 H3477 0.961 . S
C3463 H3478 0.961 1_545 S
C3463 H3479 0.961 . S
C3464 C3465 1.370 . S
C3464 C3466 1.363 . S
C3464 H3480 0.931 . S
C3465 C3464 1.370 . S
C3465 C3469 1.408 . S
C3466 C3464 1.363 . S
C3466 C3467 1.370 1_565 S
C3466 C3470 1.524 . S
C3467 C3459 1.503 . S
C3467 C3466 1.370 1_545 S
C3467 C3468 1.403 . S
C3468 C3467 1.403 . S
C3468 C3469 1.404 1_545 S
C3468 C3471 1.539 . S
C3469 C3465 1.408 . S
C3469 C3468 1.404 1_565 S
C3469 H3481 0.930 . S
C3470 C3466 1.524 . S
C3470 H3482 0.956 . S
C3470 H3483 0.961 . S
C3470 H3484 0.961 . S
C3471 C3468 1.539 . S
C3471 H3485 0.958 . S
C3471 H3486 0.961 . S
C3471 H3487 0.960 . S
H3472 C3456 0.931 . S
H3473 C3461 0.929 . S
H3474 C3462 0.960 . S
H3475 C3462 0.962 . S
H3476 C3462 0.960 . S
H3477 C3463 0.961 . S
H3478 C3463 0.961 1_565 S
H3479 C3463 0.961 . S
H3480 C3464 0.931 . S
H3481 C3469 0.930 . S
H3482 C3470 0.956 . S
H3483 C3470 0.961 . S
H3484 C3470 0.961 . S
H3485 C3471 0.958 . S
H3486 C3471 0.961 . S
H3487 C3471 0.960 . S
C3488 C3489 1.391 . S
C3488 C3490 1.394 . S
C3488 H3504 0.931 . S
C3489 C3488 1.391 . S
C3489 C3493 1.376 . S
C3490 C3488 1.394 . S
C3490 C3491 1.369 . S
C3490 C3494 1.531 . S
C3491 C3490 1.369 . S
C3491 C3492 1.410 . S
C3491 C3499 1.503 . S
C3492 C3491 1.410 . S
C3492 C3493 1.392 . S
C3492 C3495 1.511 . S
C3493 C3489 1.376 . S
C3493 C3492 1.392 . S
C3493 H3505 0.929 . S
C3494 C3490 1.531 . S
C3494 H3506 0.960 . S
C3494 H3507 0.962 . S
C3494 H3508 0.960 . S
C3495 C3492 1.511 . S
C3495 H3509 0.961 . S
C3495 H3510 0.961 . S
C3495 H3511 0.961 . S
C3496 C3497 1.370 . S
C3496 C3498 1.363 . S
C3496 H3512 0.931 . S
C3497 C3496 1.370 . S
C3497 C3501 1.408 . S
C3498 C3496 1.363 . S
C3498 C3499 1.370 . S
C3498 C3502 1.524 . S
C3499 C3491 1.503 . S
C3499 C3498 1.370 . S
C3499 C3500 1.403 . S
C3500 C3499 1.403 . S
C3500 C3501 1.404 . S
C3500 C3503 1.539 . S
C3501 C3497 1.408 . S
C3501 C3500 1.404 . S
C3501 H3513 0.930 . S
C3502 C3498 1.524 . S
C3502 H3514 0.956 . S
C3502 H3515 0.961 . S
C3502 H3516 0.961 . S
C3503 C3500 1.539 . S
C3503 H3517 0.958 . S
C3503 H3518 0.961 . S
C3503 H3519 0.960 . S
H3504 C3488 0.931 . S
H3505 C3493 0.929 . S
H3506 C3494 0.960 . S
H3507 C3494 0.962 . S
H3508 C3494 0.960 . S
H3509 C3495 0.961 . S
H3510 C3495 0.961 . S
H3511 C3495 0.961 . S
H3512 C3496 0.931 . S
H3513 C3501 0.930 . S
H3514 C3502 0.956 . S
H3515 C3502 0.961 . S
H3516 C3502 0.961 . S
H3517 C3503 0.958 . S
H3518 C3503 0.961 . S
H3519 C3503 0.960 . S
C3520 C3521 1.391 . S
C3520 C3522 1.394 1_545 S
C3520 H3536 0.931 . S
C3521 C3520 1.391 . S
C3521 C3525 1.376 . S
C3522 C3520 1.394 1_565 S
C3522 C3523 1.369 . S
C3522 C3526 1.531 . S
C3523 C3522 1.369 . S
C3523 C3524 1.410 1_565 S
C3523 C3531 1.503 . S
C3524 C3523 1.410 1_545 S
C3524 C3525 1.392 . S
C3524 C3527 1.511 . S
C3525 C3521 1.376 . S
C3525 C3524 1.392 . S
C3525 H3537 0.929 . S
C3526 C3522 1.531 . S
C3526 H3538 0.960 . S
C3526 H3539 0.962 . S
C3526 H3540 0.960 . S
C3527 C3524 1.511 . S
C3527 H3541 0.961 . S
C3527 H3542 0.961 . S
C3527 H3543 0.929 1_545 S
C3528 C3529 1.370 . S
C3528 C3530 1.363 . S
C3528 H3544 0.931 . S
C3529 C3528 1.370 . S
C3529 C3533 1.408 . S
C3530 C3528 1.363 . S
C3530 C3531 1.370 . S
C3530 C3534 1.524 1_565 S
C3531 C3523 1.503 . S
C3531 C3530 1.370 . S
C3531 C3532 1.403 . S
C3532 C3531 1.403 . S
C3532 C3533 1.404 . S
C3532 C3535 1.539 . S
C3533 C3529 1.408 . S
C3533 C3532 1.404 . S
C3533 H3545 0.930 . S
C3534 C3530 1.524 1_545 S
C3534 H3546 0.956 . S
C3534 H3547 0.961 . S
C3534 H3548 0.961 . S
C3535 C3532 1.539 . S
C3535 H3549 0.958 . S
C3535 H3550 0.961 . S
C3535 H3551 0.960 . S
H3536 C3520 0.931 . S
H3537 C3525 0.929 . S
H3538 C3526 0.960 . S
H3539 C3526 0.962 . S
H3540 C3526 0.960 . S
H3541 C3527 0.961 . S
H3542 C3527 0.961 . S
H3543 C3527 0.929 1_565 S
H3544 C3528 0.931 . S
H3545 C3533 0.930 . S
H3546 C3534 0.956 . S
H3547 C3534 0.961 . S
H3548 C3534 0.961 . S
H3549 C3535 0.958 . S
H3550 C3535 0.961 . S
H3551 C3535 0.960 . S
C3552 C3553 1.391 . S
C3552 C3554 1.394 . S
C3552 H3568 0.931 . S
C3553 C3552 1.391 . S
C3553 C3557 1.376 . S
C3554 C3552 1.394 . S
C3554 C3555 1.369 1_556 S
C3554 C3558 1.531 . S
C3555 C3554 1.369 1_554 S
C3555 C3556 1.410 . S
C3555 C3563 1.503 . S
C3556 C3555 1.410 . S
C3556 C3557 1.392 1_554 S
C3556 C3559 1.511 . S
C3557 C3553 1.376 . S
C3557 C3556 1.392 1_556 S
C3557 H3569 0.929 . S
C3558 C3554 1.531 . S
C3558 H3570 0.960 . S
C3558 H3571 0.962 . S
C3558 H3572 0.960 . S
C3559 C3556 1.511 . S
C3559 H3573 0.961 . S
C3559 H3574 0.961 . S
C3559 H3575 0.961 . S
C3560 C3561 1.370 . S
C3560 C3562 1.363 . S
C3560 H3576 0.931 . S
C3561 C3560 1.370 . S
C3561 C3565 1.408 . S
C3562 C3560 1.363 . S
C3562 C3563 1.370 . S
C3562 C3566 1.520 . S
C3563 C3555 1.503 . S
C3563 C3562 1.370 . S
C3563 C3564 1.403 . S
C3564 C3563 1.403 . S
C3564 C3565 1.404 . S
C3564 C3567 1.539 . S
C3565 C3561 1.408 . S
C3565 C3564 1.404 . S
C3565 H3577 0.930 . S
C3566 C3562 1.520 . S
C3566 H3578 0.961 1_554 S
C3566 H3579 0.961 1_554 S
C3566 H3580 0.960 . S
C3567 C3564 1.539 . S
C3567 H3581 0.958 . S
C3567 H3582 0.961 . S
C3567 H3583 0.960 . S
H3568 C3552 0.931 . S
H3569 C3557 0.929 . S
H3570 C3558 0.960 . S
H3571 C3558 0.962 . S
H3572 C3558 0.960 . S
H3573 C3559 0.961 . S
H3574 C3559 0.961 . S
H3575 C3559 0.961 . S
H3576 C3560 0.931 . S
H3577 C3565 0.930 . S
H3578 C3566 0.961 1_556 S
H3579 C3566 0.961 1_556 S
H3580 C3566 0.960 . S
H3581 C3567 0.958 . S
H3582 C3567 0.961 . S
H3583 C3567 0.960 . S
C3584 C3585 1.391 . S
C3584 C3586 1.394 . S
C3584 H3600 0.931 . S
C3585 C3584 1.391 . S
C3585 C3589 1.376 . S
C3586 C3584 1.394 . S
C3586 C3587 1.369 . S
C3586 C3590 1.531 . S
C3587 C3586 1.369 . S
C3587 C3588 1.410 . S
C3587 C3595 1.503 . S
C3588 C3587 1.410 . S
C3588 C3589 1.392 . S
C3588 C3591 1.511 1_655 S
C3589 C3585 1.376 . S
C3589 C3588 1.392 . S
C3589 H3601 0.929 . S
C3590 C3586 1.531 . S
C3590 H3602 0.960 . S
C3590 H3603 0.962 . S
C3590 H3604 0.960 . S
C3591 C3588 1.511 1_455 S
C3591 H3605 0.961 . S
C3591 H3606 0.961 . S
C3591 H3607 0.961 . S
C3592 C3593 1.370 . S
C3592 C3594 1.363 . S
C3592 H3608 0.931 . S
C3593 C3592 1.370 . S
C3593 C3597 1.408 . S
C3594 C3592 1.363 . S
C3594 C3595 1.370 1_455 S
C3594 C3598 1.524 1_455 S
C3595 C3587 1.503 . S
C3595 C3594 1.370 1_655 S
C3595 C3596 1.403 1_655 S
C3596 C3595 1.403 1_455 S
C3596 C3597 1.404 . S
C3596 C3599 1.539 . S
C3597 C3593 1.408 . S
C3597 C3596 1.404 . S
C3597 H3609 0.930 . S
C3598 C3594 1.524 1_655 S
C3598 H3610 0.956 . S
C3598 H3611 0.961 . S
C3598 H3612 0.970 . S
C3599 C3596 1.539 . S
C3599 H3613 0.958 1_455 S
C3599 H3614 0.961 . S
C3599 H3615 0.949 1_455 S
H3600 C3584 0.931 . S
H3601 C3589 0.929 . S
H3602 C3590 0.960 . S
H3603 C3590 0.962 . S
H3604 C3590 0.960 . S
H3605 C3591 0.961 . S
H3606 C3591 0.961 . S
H3607 C3591 0.961 . S
H3608 C3592 0.931 . S
H3609 C3597 0.930 . S
H3610 C3598 0.956 . S
H3611 C3598 0.961 . S
H3612 C3598 0.970 . S
H3613 C3599 0.958 1_655 S
H3614 C3599 0.961 . S
H3615 C3599 0.949 1_655 S
C3616 C3617 1.391 . S
C3616 C3618 1.394 . S
C3616 H3632 0.931 . S
C3617 C3616 1.391 . S
C3617 C3621 1.376 . S
C3618 C3616 1.394 . S
C3618 C3619 1.369 . S
C3618 C3622 1.531 . S
C3619 C3618 1.369 . S
C3619 C3620 1.410 . S
C3619 C3627 1.503 . S
C3620 C3619 1.410 . S
C3620 C3621 1.392 . S
C3620 C3623 1.511 . S
C3621 C3617 1.376 . S
C3621 C3620 1.392 . S
C3621 H3633 0.929 . S
C3622 C3618 1.531 . S
C3622 H3634 0.960 . S
C3622 H3635 0.962 . S
C3622 H3636 0.960 . S
C3623 C3620 1.511 . S
C3623 H3637 0.961 . S
C3623 H3638 0.961 . S
C3623 H3639 0.961 . S
C3624 C3625 1.370 . S
C3624 C3626 1.363 . S
C3624 H3640 0.931 . S
C3625 C3624 1.370 . S
C3625 C3629 1.408 . S
C3626 C3624 1.363 . S
C3626 C3627 1.370 . S
C3626 C3630 1.524 . S
C3627 C3619 1.503 . S
C3627 C3626 1.370 . S
C3627 C3628 1.403 . S
C3628 C3627 1.403 . S
C3628 C3629 1.404 . S
C3628 C3631 1.539 . S
C3629 C3625 1.408 . S
C3629 C3628 1.404 . S
C3629 H3641 0.930 . S
C3630 C3626 1.524 . S
C3630 H3642 0.956 . S
C3630 H3643 0.961 . S
C3630 H3644 0.961 . S
C3631 C3628 1.539 . S
C3631 H3645 0.958 . S
C3631 H3646 0.961 . S
C3631 H3647 0.960 . S
H3632 C3616 0.931 . S
H3633 C3621 0.929 . S
H3634 C3622 0.960 . S
H3635 C3622 0.962 . S
H3636 C3622 0.960 . S
H3637 C3623 0.961 . S
H3638 C3623 0.961 . S
H3639 C3623 0.961 . S
H3640 C3624 0.931 . S
H3641 C3629 0.930 . S
H3642 C3630 0.956 . S
H3643 C3630 0.961 . S
H3644 C3630 0.961 . S
H3645 C3631 0.958 . S
H3646 C3631 0.961 . S
H3647 C3631 0.960 . S
C3648 C3649 1.391 . S
C3648 C3650 1.421 . S
C3648 H3664 0.931 . S
C3649 C3648 1.391 . S
C3649 C3653 1.376 . S
C3650 C3648 1.421 . S
C3650 C3651 1.370 . S
C3650 C3654 1.503 1_655 S
C3651 C3650 1.370 . S
C3651 C3652 1.410 . S
C3651 C3659 1.503 1_655 S
C3652 C3651 1.410 . S
C3652 C3653 1.392 . S
C3652 C3655 1.511 . S
C3653 C3649 1.376 . S
C3653 C3652 1.392 . S
C3653 H3665 0.929 . S
C3654 C3650 1.503 1_455 S
C3654 H3666 0.960 . S
C3654 H3667 0.962 . S
C3654 H3668 0.960 . S
C3655 C3652 1.511 . S
C3655 H3669 0.961 . S
C3655 H3670 0.961 . S
C3655 H3671 0.961 . S
C3656 C3657 1.370 . S
C3656 C3658 1.363 . S
C3656 H3672 0.931 . S
C3657 C3656 1.370 . S
C3657 C3661 1.408 . S
C3658 C3656 1.363 . S
C3658 C3659 1.370 . S
C3658 C3662 1.524 . S
C3659 C3651 1.503 1_455 S
C3659 C3658 1.370 . S
C3659 C3660 1.403 . S
C3660 C3659 1.403 . S
C3660 C3661 1.404 . S
C3660 C3663 1.539 1_455 S
C3661 C3657 1.408 . S
C3661 C3660 1.404 . S
C3661 H3673 0.930 . S
C3662 C3658 1.524 . S
C3662 H3674 0.956 . S
C3662 H3675 0.961 . S
C3662 H3676 0.961 . S
C3663 C3660 1.539 1_655 S
C3663 H3677 0.958 . S
C3663 H3678 0.961 . S
C3663 H3679 0.960 . S
H3664 C3648 0.931 . S
H3665 C3653 0.929 . S
H3666 C3654 0.960 . S
H3667 C3654 0.962 . S
H3668 C3654 0.960 . S
H3669 C3655 0.961 . S
H3670 C3655 0.961 . S
H3671 C3655 0.961 . S
H3672 C3656 0.931 . S
H3673 C3661 0.930 . S
H3674 C3662 0.956 . S
H3675 C3662 0.961 . S
H3676 C3662 0.961 . S
H3677 C3663 0.958 . S
H3678 C3663 0.961 . S
H3679 C3663 0.960 . S
C3680 C3681 1.391 . S
C3680 C3682 1.394 1_655 S
C3680 H3696 0.931 . S
C3681 C3680 1.391 . S
C3681 C3685 1.376 . S
C3682 C3680 1.394 1_455 S
C3682 C3683 1.369 . S
C3682 C3686 1.531 . S
C3683 C3682 1.369 . S
C3683 C3684 1.410 1_455 S
C3683 C3691 1.503 . S
C3684 C3683 1.410 1_655 S
C3684 C3685 1.392 . S
C3684 C3687 1.511 . S
C3685 C3681 1.376 . S
C3685 C3684 1.392 . S
C3685 H3697 0.929 . S
C3686 C3682 1.531 . S
C3686 H3698 0.960 . S
C3686 H3699 0.962 . S
C3686 H3700 0.960 . S
C3687 C3684 1.511 . S
C3687 H3701 0.961 . S
C3687 H3702 0.961 . S
C3687 H3703 0.936 1_655 S
C3688 C3689 1.370 . S
C3688 C3690 1.363 . S
C3688 H3704 0.931 . S
C3689 C3688 1.370 . S
C3689 C3693 1.408 . S
C3690 C3688 1.363 . S
C3690 C3691 1.370 . S
C3690 C3694 1.524 1_455 S
C3691 C3683 1.503 . S
C3691 C3690 1.370 . S
C3691 C3692 1.403 . S
C3692 C3691 1.403 . S
C3692 C3693 1.404 . S
C3692 C3695 1.539 . S
C3693 C3689 1.408 . S
C3693 C3692 1.404 . S
C3693 H3705 0.930 . S
C3694 C3690 1.524 1_655 S
C3694 H3706 0.956 . S
C3694 H3707 0.961 . S
C3694 H3708 0.961 . S
C3695 C3692 1.539 . S
C3695 H3709 0.958 . S
C3695 H3710 0.961 . S
C3695 H3711 0.960 . S
H3696 C3680 0.931 . S
H3697 C3685 0.929 . S
H3698 C3686 0.960 . S
H3699 C3686 0.962 . S
H3700 C3686 0.960 . S
H3701 C3687 0.961 . S
H3702 C3687 0.961 . S
H3703 C3687 0.936 1_455 S
H3704 C3688 0.931 . S
H3705 C3693 0.930 . S
H3706 C3694 0.956 . S
H3707 C3694 0.961 . S
H3708 C3694 0.961 . S
H3709 C3695 0.958 . S
H3710 C3695 0.961 . S
H3711 C3695 0.960 . S
C3712 C3713 1.391 . S
C3712 C3714 1.394 . S
C3712 H3728 0.931 . S
C3713 C3712 1.391 . S
C3713 C3717 1.376 . S
C3714 C3712 1.394 . S
C3714 C3715 1.369 . S
C3714 C3718 1.531 . S
C3715 C3714 1.369 . S
C3715 C3716 1.410 . S
C3715 C3723 1.503 . S
C3716 C3715 1.410 . S
C3716 C3717 1.392 . S
C3716 C3719 1.511 . S
C3717 C3713 1.376 . S
C3717 C3716 1.392 . S
C3717 H3729 0.929 . S
C3718 C3714 1.531 . S
C3718 H3730 0.960 . S
C3718 H3731 0.962 . S
C3718 H3732 0.960 . S
C3719 C3716 1.511 . S
C3719 H3733 0.961 . S
C3719 H3734 0.961 . S
C3719 H3735 0.961 . S
C3720 C3721 1.370 . S
C3720 C3722 1.363 . S
C3720 H3736 0.931 . S
C3721 C3720 1.370 . S
C3721 C3725 1.408 . S
C3722 C3720 1.363 . S
C3722 C3723 1.370 . S
C3722 C3726 1.524 . S
C3723 C3715 1.503 . S
C3723 C3722 1.370 . S
C3723 C3724 1.403 . S
C3724 C3723 1.403 . S
C3724 C3725 1.404 . S
C3724 C3727 1.539 . S
C3725 C3721 1.408 . S
C3725 C3724 1.404 . S
C3725 H3737 0.930 . S
C3726 C3722 1.524 . S
C3726 H3738 0.956 . S
C3726 H3739 0.961 . S
C3726 H3740 0.961 . S
C3727 C3724 1.539 . S
C3727 H3741 0.958 . S
C3727 H3742 0.961 . S
C3727 H3743 0.960 . S
H3728 C3712 0.931 . S
H3729 C3717 0.929 . S
H3730 C3718 0.960 . S
H3731 C3718 0.962 . S
H3732 C3718 0.960 . S
H3733 C3719 0.961 . S
H3734 C3719 0.961 . S
H3735 C3719 0.961 . S
H3736 C3720 0.931 . S
H3737 C3725 0.930 . S
H3738 C3726 0.956 . S
H3739 C3726 0.961 . S
H3740 C3726 0.961 . S
H3741 C3727 0.958 . S
H3742 C3727 0.961 . S
H3743 C3727 0.960 . S
C3744 C3745 1.391 . S
C3744 C3746 1.394 . S
C3744 H3760 0.931 . S
C3745 C3744 1.391 . S
C3745 C3749 1.376 . S
C3746 C3744 1.394 . S
C3746 C3747 1.369 . S
C3746 C3750 1.531 1_655 S
C3747 C3746 1.369 . S
C3747 C3748 1.410 . S
C3747 C3755 1.524 . S
C3748 C3747 1.410 . S
C3748 C3749 1.392 . S
C3748 C3751 1.511 . S
C3749 C3745 1.376 . S
C3749 C3748 1.392 . S
C3749 H3761 0.929 . S
C3750 C3746 1.531 1_455 S
C3750 H3762 0.960 . S
C3750 H3763 0.962 . S
C3750 H3764 0.960 . S
C3751 C3748 1.511 . S
C3751 H3765 0.961 . S
C3751 H3766 0.961 . S
C3751 H3767 0.961 . S
C3752 C3753 1.370 . S
C3752 C3754 1.385 . S
C3752 H3768 0.931 . S
C3753 C3752 1.370 . S
C3753 C3757 1.408 . S
C3754 C3752 1.385 . S
C3754 C3755 1.369 1_455 S
C3754 C3758 1.505 1_455 S
C3755 C3747 1.524 . S
C3755 C3754 1.369 1_655 S
C3755 C3756 1.383 1_655 S
C3756 C3755 1.383 1_455 S
C3756 C3757 1.404 . S
C3756 C3759 1.539 . S
C3757 C3753 1.408 . S
C3757 C3756 1.404 . S
C3757 H3769 0.930 . S
C3758 C3754 1.505 1_655 S
C3758 H3770 0.956 . S
C3758 H3771 0.961 . S
C3758 H3772 0.961 . S
C3759 C3756 1.539 . S
C3759 H3773 0.958 . S
C3759 H3774 0.961 . S
C3759 H3775 0.960 1_455 S
H3760 C3744 0.931 . S
H3761 C3749 0.929 . S
H3762 C3750 0.960 . S
H3763 C3750 0.962 . S
H3764 C3750 0.960 . S
H3765 C3751 0.961 . S
H3766 C3751 0.961 . S
H3767 C3751 0.961 . S
H3768 C3752 0.931 . S
H3769 C3757 0.930 . S
H3770 C3758 0.956 . S
H3771 C3758 0.961 . S
H3772 C3758 0.961 . S
H3773 C3759 0.958 . S
H3774 C3759 0.961 . S
H3775 C3759 0.960 1_655 S
C3776 C3777 1.391 . S
C3776 C3778 1.394 . S
C3776 H3792 0.931 . S
C3777 C3776 1.391 . S
C3777 C3781 1.376 . S
C3778 C3776 1.394 . S
C3778 C3779 1.369 . S
C3778 C3782 1.531 . S
C3779 C3778 1.369 . S
C3779 C3780 1.410 . S
C3779 C3787 1.503 . S
C3780 C3779 1.410 . S
C3780 C3781 1.392 . S
C3780 C3783 1.511 . S
C3781 C3777 1.376 . S
C3781 C3780 1.392 . S
C3781 H3793 0.929 . S
C3782 C3778 1.531 . S
C3782 H3794 0.960 . S
C3782 H3795 0.962 . S
C3782 H3796 0.960 . S
C3783 C3780 1.511 . S
C3783 H3797 0.961 . S
C3783 H3798 0.961 . S
C3783 H3799 0.961 . S
C3784 C3785 1.370 . S
C3784 C3786 1.363 . S
C3784 H3800 0.931 . S
C3785 C3784 1.370 . S
C3785 C3789 1.408 . S
C3786 C3784 1.363 . S
C3786 C3787 1.370 . S
C3786 C3790 1.524 . S
C3787 C3779 1.503 . S
C3787 C3786 1.370 . S
C3787 C3788 1.403 . S
C3788 C3787 1.403 . S
C3788 C3789 1.404 . S
C3788 C3791 1.539 . S
C3789 C3785 1.408 . S
C3789 C3788 1.404 . S
C3789 H3801 0.930 . S
C3790 C3786 1.524 . S
C3790 H3802 0.956 . S
C3790 H3803 0.961 . S
C3790 H3804 0.961 . S
C3791 C3788 1.539 . S
C3791 H3805 0.958 . S
C3791 H3806 0.961 . S
C3791 H3807 0.960 . S
H3792 C3776 0.931 . S
H3793 C3781 0.929 . S
H3794 C3782 0.960 . S
H3795 C3782 0.962 . S
H3796 C3782 0.960 . S
H3797 C3783 0.961 . S
H3798 C3783 0.961 . S
H3799 C3783 0.961 . S
H3800 C3784 0.931 . S
H3801 C3789 0.930 . S
H3802 C3790 0.956 . S
H3803 C3790 0.961 . S
H3804 C3790 0.961 . S
H3805 C3791 0.958 . S
H3806 C3791 0.961 . S
H3807 C3791 0.960 . S
C3808 C3809 1.391 . S
C3808 C3810 1.394 . S
C3808 H3824 0.931 . S
C3809 C3808 1.391 . S
C3809 C3813 1.376 . S
C3810 C3808 1.394 . S
C3810 C3811 1.369 . S
C3810 C3814 1.531 . S
C3811 C3810 1.369 . S
C3811 C3812 1.410 . S
C3811 C3819 1.503 1_545 S
C3812 C3811 1.410 . S
C3812 C3813 1.392 . S
C3812 C3815 1.511 . S
C3813 C3809 1.376 . S
C3813 C3812 1.392 . S
C3813 H3825 0.929 . S
C3814 C3810 1.531 . S
C3814 H3826 0.960 . S
C3814 H3827 0.962 . S
C3814 H3828 0.960 . S
C3815 C3812 1.511 . S
C3815 H3829 0.961 . S
C3815 H3830 0.969 . S
C3815 H3831 0.961 1_545 S
C3816 C3817 1.370 . S
C3816 C3818 1.363 1_565 S
C3816 H3832 0.931 . S
C3817 C3816 1.370 . S
C3817 C3821 1.408 . S
C3818 C3816 1.363 1_545 S
C3818 C3819 1.370 1_545 S
C3818 C3822 1.524 . S
C3819 C3811 1.503 1_565 S
C3819 C3818 1.370 1_565 S
C3819 C3820 1.403 . S
C3820 C3819 1.403 . S
C3820 C3821 1.404 . S
C3820 C3823 1.539 . S
C3821 C3817 1.408 . S
C3821 C3820 1.404 . S
C3821 H3833 0.930 . S
C3822 C3818 1.524 . S
C3822 H3834 0.956 . S
C3822 H3835 0.961 . S
C3822 H3836 0.961 . S
C3823 C3820 1.539 . S
C3823 H3837 0.958 . S
C3823 H3838 0.961 . S
C3823 H3839 0.960 . S
H3824 C3808 0.931 . S
H3825 C3813 0.929 . S
H3826 C3814 0.960 . S
H3827 C3814 0.962 . S
H3828 C3814 0.960 . S
H3829 C3815 0.961 . S
H3830 C3815 0.969 . S
H3831 C3815 0.961 1_565 S
H3832 C3816 0.931 . S
H3833 C3821 0.930 . S
H3834 C3822 0.956 . S
H3835 C3822 0.961 . S
H3836 C3822 0.961 . S
H3837 C3823 0.958 . S
H3838 C3823 0.961 . S
H3839 C3823 0.960 . S
C3840 C3841 1.391 . S
C3840 C3842 1.394 . S
C3840 H3856 0.931 . S
C3841 C3840 1.391 . S
C3841 C3845 1.376 . S
C3842 C3840 1.394 . S
C3842 C3843 1.369 . S
C3842 C3846 1.531 . S
C3843 C3842 1.369 . S
C3843 C3844 1.410 . S
C3843 C3851 1.503 . S
C3844 C3843 1.410 . S
C3844 C3845 1.392 . S
C3844 C3847 1.511 . S
C3845 C3841 1.376 . S
C3845 C3844 1.392 . S
C3845 H3857 0.929 . S
C3846 C3842 1.531 . S
C3846 H3858 0.960 . S
C3846 H3859 0.962 . S
C3846 H3860 0.960 . S
C3847 C3844 1.511 . S
C3847 H3861 0.961 . S
C3847 H3862 0.961 . S
C3847 H3863 0.961 . S
C3848 C3849 1.370 . S
C3848 C3850 1.363 . S
C3848 H3864 0.931 . S
C3849 C3848 1.370 . S
C3849 C3853 1.408 . S
C3850 C3848 1.363 . S
C3850 C3851 1.370 . S
C3850 C3854 1.524 . S
C3851 C3843 1.503 . S
C3851 C3850 1.370 . S
C3851 C3852 1.403 . S
C3852 C3851 1.403 . S
C3852 C3853 1.404 . S
C3852 C3855 1.539 . S
C3853 C3849 1.408 . S
C3853 C3852 1.404 . S
C3853 H3865 0.930 . S
C3854 C3850 1.524 . S
C3854 H3866 0.956 . S
C3854 H3867 0.961 . S
C3854 H3868 0.961 . S
C3855 C3852 1.539 . S
C3855 H3869 0.958 . S
C3855 H3870 0.961 . S
C3855 H3871 0.960 . S
H3856 C3840 0.931 . S
H3857 C3845 0.929 . S
H3858 C3846 0.960 . S
H3859 C3846 0.962 . S
H3860 C3846 0.960 . S
H3861 C3847 0.961 . S
H3862 C3847 0.961 . S
H3863 C3847 0.961 . S
H3864 C3848 0.931 . S
H3865 C3853 0.930 . S
H3866 C3854 0.956 . S
H3867 C3854 0.961 . S
H3868 C3854 0.961 . S
H3869 C3855 0.958 . S
H3870 C3855 0.961 . S
H3871 C3855 0.960 . S
C3872 C3873 1.391 . S
C3872 C3874 1.394 . S
C3872 H3888 0.931 . S
C3873 C3872 1.391 . S
C3873 C3877 1.376 . S
C3874 C3872 1.394 . S
C3874 C3875 1.369 . S
C3874 C3878 1.531 . S
C3875 C3874 1.369 . S
C3875 C3876 1.410 . S
C3875 C3883 1.503 . S
C3876 C3875 1.410 . S
C3876 C3877 1.392 . S
C3876 C3879 1.511 . S
C3877 C3873 1.376 . S
C3877 C3876 1.392 . S
C3877 H3889 0.929 . S
C3878 C3874 1.531 . S
C3878 H3890 0.960 . S
C3878 H3891 0.962 . S
C3878 H3892 0.960 . S
C3879 C3876 1.511 . S
C3879 H3893 0.961 . S
C3879 H3894 0.961 . S
C3879 H3895 0.961 . S
C3880 C3881 1.370 . S
C3880 C3882 1.363 . S
C3880 H3896 0.931 . S
C3881 C3880 1.370 . S
C3881 C3885 1.408 . S
C3882 C3880 1.363 . S
C3882 C3883 1.370 1_545 S
C3882 C3886 1.524 . S
C3883 C3875 1.503 . S
C3883 C3882 1.370 1_565 S
C3883 C3884 1.403 . S
C3884 C3883 1.403 . S
C3884 C3885 1.404 1_565 S
C3884 C3887 1.539 . S
C3885 C3881 1.408 . S
C3885 C3884 1.404 1_545 S
C3885 H3897 0.930 . S
C3886 C3882 1.524 . S
C3886 H3898 0.956 . S
C3886 H3899 0.961 . S
C3886 H3900 0.961 . S
C3887 C3884 1.539 . S
C3887 H3901 0.958 . S
C3887 H3902 0.961 . S
C3887 H3903 0.960 . S
H3888 C3872 0.931 . S
H3889 C3877 0.929 . S
H3890 C3878 0.960 . S
H3891 C3878 0.962 . S
H3892 C3878 0.960 . S
H3893 C3879 0.961 . S
H3894 C3879 0.961 . S
H3895 C3879 0.961 . S
H3896 C3880 0.931 . S
H3897 C3885 0.930 . S
H3898 C3886 0.956 . S
H3899 C3886 0.961 . S
H3900 C3886 0.961 . S
H3901 C3887 0.958 . S
H3902 C3887 0.961 . S
H3903 C3887 0.960 . S
C3904 C3905 1.391 . S
C3904 C3906 1.394 . S
C3904 H3920 0.931 . S
C3905 C3904 1.391 . S
C3905 C3909 1.376 . S
C3906 C3904 1.394 . S
C3906 C3907 1.369 . S
C3906 C3910 1.531 . S
C3907 C3906 1.369 . S
C3907 C3908 1.410 . S
C3907 C3915 1.503 1_556 S
C3908 C3907 1.410 . S
C3908 C3909 1.392 . S
C3908 C3911 1.511 1_556 S
C3909 C3905 1.376 . S
C3909 C3908 1.392 . S
C3909 H3921 0.929 . S
C3910 C3906 1.531 . S
C3910 H3922 0.960 . S
C3910 H3923 0.962 . S
C3910 H3924 0.960 . S
C3911 C3908 1.511 1_554 S
C3911 H3925 0.961 . S
C3911 H3926 0.961 . S
C3911 H3927 0.961 . S
C3912 C3913 1.370 . S
C3912 C3914 1.363 . S
C3912 H3928 0.931 . S
C3913 C3912 1.370 . S
C3913 C3917 1.408 . S
C3914 C3912 1.363 . S
C3914 C3915 1.370 . S
C3914 C3918 1.524 . S
C3915 C3907 1.503 1_554 S
C3915 C3914 1.370 . S
C3915 C3916 1.403 . S
C3916 C3915 1.403 . S
C3916 C3917 1.404 . S
C3916 C3919 1.539 1_554 S
C3917 C3913 1.408 . S
C3917 C3916 1.404 . S
C3917 H3929 0.930 . S
C3918 C3914 1.524 . S
C3918 H3930 0.956 . S
C3918 H3931 0.961 . S
C3918 H3932 0.961 . S
C3919 C3916 1.539 1_556 S
C3919 H3933 0.958 . S
C3919 H3934 0.961 . S
C3919 H3935 0.960 . S
H3920 C3904 0.931 . S
H3921 C3909 0.929 . S
H3922 C3910 0.960 . S
H3923 C3910 0.962 . S
H3924 C3910 0.960 . S
H3925 C3911 0.961 . S
H3926 C3911 0.961 . S
H3927 C3911 0.961 . S
H3928 C3912 0.931 . S
H3929 C3917 0.930 . S
H3930 C3918 0.956 . S
H3931 C3918 0.961 . S
H3932 C3918 0.961 . S
H3933 C3919 0.958 . S
H3934 C3919 0.961 . S
H3935 C3919 0.960 . S
C3936 C3937 1.391 . S
C3936 C3938 1.394 . S
C3936 H3952 0.931 . S
C3937 C3936 1.391 . S
C3937 C3941 1.376 . S
C3938 C3936 1.394 . S
C3938 C3939 1.369 1_545 S
C3938 C3942 1.531 1_545 S
C3939 C3938 1.369 1_565 S
C3939 C3940 1.410 1_565 S
C3939 C3947 1.503 . S
C3940 C3939 1.410 1_545 S
C3940 C3941 1.392 . S
C3940 C3943 1.511 1_545 S
C3941 C3937 1.376 . S
C3941 C3940 1.392 . S
C3941 H3953 0.929 . S
C3942 C3938 1.531 1_565 S
C3942 H3954 0.960 . S
C3942 H3955 0.962 1_565 S
C3942 H3956 0.960 . S
C3943 C3940 1.511 1_565 S
C3943 H3957 0.961 1_565 S
C3943 H3958 0.961 . S
C3943 H3959 0.961 . S
C3944 C3945 1.370 . S
C3944 C3946 1.363 . S
C3944 H3960 0.931 . S
C3945 C3944 1.370 . S
C3945 C3949 1.408 . S
C3946 C3944 1.363 . S
C3946 C3947 1.370 . S
C3946 C3950 1.524 1_565 S
C3947 C3939 1.503 . S
C3947 C3946 1.370 . S
C3947 C3948 1.403 . S
C3948 C3947 1.403 . S
C3948 C3949 1.404 . S
C3948 C3951 1.539 . S
C3949 C3945 1.408 . S
C3949 C3948 1.404 . S
C3949 H3961 0.930 . S
C3950 C3946 1.524 1_545 S
C3950 H3962 0.956 . S
C3950 H3963 0.961 . S
C3950 H3964 0.961 . S
C3951 C3948 1.539 . S
C3951 H3965 0.958 . S
C3951 H3966 0.961 . S
C3951 H3967 0.960 . S
H3952 C3936 0.931 . S
H3953 C3941 0.929 . S
H3954 C3942 0.960 . S
H3955 C3942 0.962 1_545 S
H3956 C3942 0.960 . S
H3957 C3943 0.961 1_545 S
H3958 C3943 0.961 . S
H3959 C3943 0.961 . S
H3960 C3944 0.931 . S
H3961 C3949 0.930 . S
H3962 C3950 0.956 . S
H3963 C3950 0.961 . S
H3964 C3950 0.961 . S
H3965 C3951 0.958 . S
H3966 C3951 0.961 . S
H3967 C3951 0.960 . S
C3968 C3969 1.391 . S
C3968 C3970 1.394 . S
C3968 H3984 0.931 . S
C3969 C3968 1.391 . S
C3969 C3973 1.376 . S
C3970 C3968 1.394 . S
C3970 C3971 1.369 . S
C3970 C3974 1.531 . S
C3971 C3970 1.369 . S
C3971 C3972 1.410 . S
C3971 C3979 1.503 . S
C3972 C3971 1.410 . S
C3972 C3973 1.392 . S
C3972 C3975 1.511 . S
C3973 C3969 1.376 . S
C3973 C3972 1.392 . S
C3973 H3985 0.929 . S
C3974 C3970 1.531 . S
C3974 H3986 0.960 . S
C3974 H3987 0.962 . S
C3974 H3988 0.960 . S
C3975 C3972 1.511 . S
C3975 H3989 0.961 . S
C3975 H3990 0.961 . S
C3975 H3991 0.961 . S
C3976 C3977 1.370 . S
C3976 C3978 1.363 . S
C3976 H3992 0.931 . S
C3977 C3976 1.370 . S
C3977 C3981 1.408 . S
C3978 C3976 1.363 . S
C3978 C3979 1.370 . S
C3978 C3982 1.524 . S
C3979 C3971 1.503 . S
C3979 C3978 1.370 . S
C3979 C3980 1.403 . S
C3980 C3979 1.403 . S
C3980 C3981 1.404 . S
C3980 C3983 1.539 . S
C3981 C3977 1.408 . S
C3981 C3980 1.404 . S
C3981 H3993 0.930 . S
C3982 C3978 1.524 . S
C3982 H3994 0.956 . S
C3982 H3995 0.961 . S
C3982 H3996 0.961 . S
C3983 C3980 1.539 . S
C3983 H3997 0.958 . S
C3983 H3998 0.961 . S
C3983 H3999 0.960 . S
H3984 C3968 0.931 . S
H3985 C3973 0.929 . S
H3986 C3974 0.960 . S
H3987 C3974 0.962 . S
H3988 C3974 0.960 . S
H3989 C3975 0.961 . S
H3990 C3975 0.961 . S
H3991 C3975 0.961 . S
H3992 C3976 0.931 . S
H3993 C3981 0.930 . S
H3994 C3982 0.956 . S
H3995 C3982 0.961 . S
H3996 C3982 0.961 . S
H3997 C3983 0.958 . S
H3998 C3983 0.961 . S
H3999 C3983 0.960 . S
C4000 C4001 1.391 . S
C4000 C4002 1.394 1_565 S
C4000 H4016 0.931 . S
C4001 C4000 1.391 . S
C4001 C4005 1.376 . S
C4002 C4000 1.394 1_545 S
C4002 C4003 1.369 . S
C4002 C4006 1.531 . S
C4003 C4002 1.369 . S
C4003 C4004 1.410 1_545 S
C4003 C4011 1.503 . S
C4004 C4003 1.410 1_565 S
C4004 C4005 1.392 . S
C4004 C4007 1.511 . S
C4005 C4001 1.376 . S
C4005 C4004 1.392 . S
C4005 H4017 0.929 . S
C4006 C4002 1.531 . S
C4006 H4018 0.960 . S
C4006 H4019 0.962 . S
C4006 H4020 0.960 . S
C4007 C4004 1.511 . S
C4007 H4021 0.961 . S
C4007 H4022 0.961 . S
C4007 H4023 0.961 . S
C4008 C4009 1.370 . S
C4008 C4010 1.363 . S
C4008 H4024 0.931 . S
C4009 C4008 1.370 . S
C4009 C4013 1.408 . S
C4010 C4008 1.363 . S
C4010 C4011 1.370 . S
C4010 C4014 1.524 . S
C4011 C4003 1.503 . S
C4011 C4010 1.370 . S
C4011 C4012 1.403 . S
C4012 C4011 1.403 . S
C4012 C4013 1.404 . S
C4012 C4015 1.539 . S
C4013 C4009 1.408 . S
C4013 C4012 1.404 . S
C4013 H4025 0.930 . S
C4014 C4010 1.524 . S
C4014 H4026 0.956 . S
C4014 H4027 0.961 . S
C4014 H4028 0.961 . S
C4015 C4012 1.539 . S
C4015 H4029 0.958 . S
C4015 H4030 0.961 . S
C4015 H4031 0.960 . S
H4016 C4000 0.931 . S
H4017 C4005 0.929 . S
H4018 C4006 0.960 . S
H4019 C4006 0.962 . S
H4020 C4006 0.960 . S
H4021 C4007 0.961 . S
H4022 C4007 0.961 . S
H4023 C4007 0.961 . S
H4024 C4008 0.931 . S
H4025 C4013 0.930 . S
H4026 C4014 0.956 . S
H4027 C4014 0.961 . S
H4028 C4014 0.961 . S
H4029 C4015 0.958 . S
H4030 C4015 0.961 . S
H4031 C4015 0.960 . S
C4032 C4033 1.391 . S
C4032 C4034 1.394 . S
C4032 H4048 0.931 . S
C4033 C4032 1.391 . S
C4033 C4037 1.376 . S
C4034 C4032 1.394 . S
C4034 C4035 1.369 . S
C4034 C4038 1.531 . S
C4035 C4034 1.369 . S
C4035 C4036 1.410 . S
C4035 C4043 1.503 1_554 S
C4036 C4035 1.410 . S
C4036 C4037 1.392 . S
C4036 C4039 1.511 1_554 S
C4037 C4033 1.376 . S
C4037 C4036 1.392 . S
C4037 H4049 0.929 . S
C4038 C4034 1.531 . S
C4038 H4050 0.960 . S
C4038 H4051 0.962 . S
C4038 H4052 0.960 . S
C4039 C4036 1.511 1_556 S
C4039 H4053 0.961 . S
C4039 H4054 0.961 . S
C4039 H4055 0.961 . S
C4040 C4041 1.370 . S
C4040 C4042 1.363 . S
C4040 H4056 0.931 . S
C4041 C4040 1.370 . S
C4041 C4045 1.408 . S
C4042 C4040 1.363 . S
C4042 C4043 1.370 . S
C4042 C4046 1.524 . S
C4043 C4035 1.503 1_556 S
C4043 C4042 1.370 . S
C4043 C4044 1.403 . S
C4044 C4043 1.403 . S
C4044 C4045 1.404 . S
C4044 C4047 1.539 1_556 S
C4045 C4041 1.408 . S
C4045 C4044 1.404 . S
C4045 H4057 0.930 . S
C4046 C4042 1.524 . S
C4046 H4058 0.956 . S
C4046 H4059 0.961 . S
C4046 H4060 0.961 . S
C4047 C4044 1.539 1_554 S
C4047 H4061 0.958 . S
C4047 H4062 0.961 . S
C4047 H4063 0.960 . S
H4048 C4032 0.931 . S
H4049 C4037 0.929 . S
H4050 C4038 0.960 . S
H4051 C4038 0.962 . S
H4052 C4038 0.960 . S
H4053 C4039 0.961 . S
H4054 C4039 0.961 . S
H4055 C4039 0.961 . S
H4056 C4040 0.931 . S
H4057 C4045 0.930 . S
H4058 C4046 0.956 . S
H4059 C4046 0.961 . S
H4060 C4046 0.961 . S
H4061 C4047 0.958 . S
H4062 C4047 0.961 . S
H4063 C4047 0.960 . S
C4064 C4065 1.391 . S
C4064 C4066 1.394 . S
C4064 H4080 0.931 . S
C4065 C4064 1.391 . S
C4065 C4069 1.376 . S
C4066 C4064 1.394 . S
C4066 C4067 1.369 1_655 S
C4066 C4070 1.531 . S
C4067 C4066 1.369 1_455 S
C4067 C4068 1.410 . S
C4067 C4075 1.503 . S
C4068 C4067 1.410 . S
C4068 C4069 1.392 1_455 S
C4068 C4071 1.511 . S
C4069 C4065 1.376 . S
C4069 C4068 1.392 1_655 S
C4069 H4081 0.929 . S
C4070 C4066 1.531 . S
C4070 H4082 0.960 . S
C4070 H4083 0.962 . S
C4070 H4084 0.960 . S
C4071 C4068 1.511 . S
C4071 H4085 0.961 . S
C4071 H4086 0.961 . S
C4071 H4087 0.961 . S
C4072 C4073 1.370 . S
C4072 C4074 1.363 . S
C4072 H4088 0.931 . S
C4073 C4072 1.370 . S
C4073 C4077 1.408 . S
C4074 C4072 1.363 . S
C4074 C4075 1.370 . S
C4074 C4078 1.524 . S
C4075 C4067 1.503 . S
C4075 C4074 1.370 . S
C4075 C4076 1.403 . S
C4076 C4075 1.403 . S
C4076 C4077 1.404 . S
C4076 C4079 1.539 . S
C4077 C4073 1.408 . S
C4077 C4076 1.404 . S
C4077 H4089 0.930 . S
C4078 C4074 1.524 . S
C4078 H4090 0.956 1_455 S
C4078 H4091 0.961 . S
C4078 H4092 0.961 . S
C4079 C4076 1.539 . S
C4079 H4093 0.958 . S
C4079 H4094 0.961 . S
C4079 H4095 0.960 . S
H4080 C4064 0.931 . S
H4081 C4069 0.929 . S
H4082 C4070 0.960 . S
H4083 C4070 0.962 . S
H4084 C4070 0.960 . S
H4085 C4071 0.961 . S
H4086 C4071 0.961 . S
H4087 C4071 0.961 . S
H4088 C4072 0.931 . S
H4089 C4077 0.930 . S
H4090 C4078 0.956 1_655 S
H4091 C4078 0.961 . S
H4092 C4078 0.961 . S
H4093 C4079 0.958 . S
H4094 C4079 0.961 . S
H4095 C4079 0.960 . S
C4096 C4097 1.391 . S
C4096 C4098 1.394 . S
C4096 H4112 0.931 . S
C4097 C4096 1.391 . S
C4097 C4101 1.376 . S
C4098 C4096 1.394 . S
C4098 C4099 1.369 . S
C4098 C4102 1.531 . S
C4099 C4098 1.369 . S
C4099 C4100 1.410 . S
C4099 C4107 1.503 . S
C4100 C4099 1.410 . S
C4100 C4101 1.392 . S
C4100 C4103 1.511 . S
C4101 C4097 1.376 . S
C4101 C4100 1.392 . S
C4101 H4113 0.929 . S
C4102 C4098 1.531 . S
C4102 H4114 0.960 . S
C4102 H4115 0.962 . S
C4102 H4116 0.960 . S
C4103 C4100 1.511 . S
C4103 H4117 0.961 . S
C4103 H4118 0.961 . S
C4103 H4119 0.961 . S
C4104 C4105 1.370 . S
C4104 C4106 1.363 . S
C4104 H4120 0.931 . S
C4105 C4104 1.370 . S
C4105 C4109 1.408 . S
C4106 C4104 1.363 . S
C4106 C4107 1.370 . S
C4106 C4110 1.524 . S
C4107 C4099 1.503 . S
C4107 C4106 1.370 . S
C4107 C4108 1.403 . S
C4108 C4107 1.403 . S
C4108 C4109 1.404 . S
C4108 C4111 1.539 . S
C4109 C4105 1.408 . S
C4109 C4108 1.404 . S
C4109 H4121 0.930 . S
C4110 C4106 1.524 . S
C4110 H4122 0.956 . S
C4110 H4123 0.961 . S
C4110 H4124 0.961 . S
C4111 C4108 1.539 . S
C4111 H4125 0.958 . S
C4111 H4126 0.961 . S
C4111 H4127 0.960 . S
H4112 C4096 0.931 . S
H4113 C4101 0.929 . S
H4114 C4102 0.960 . S
H4115 C4102 0.962 . S
H4116 C4102 0.960 . S
H4117 C4103 0.961 . S
H4118 C4103 0.961 . S
H4119 C4103 0.961 . S
H4120 C4104 0.931 . S
H4121 C4109 0.930 . S
H4122 C4110 0.956 . S
H4123 C4110 0.961 . S
H4124 C4110 0.961 . S
H4125 C4111 0.958 . S
H4126 C4111 0.961 . S
H4127 C4111 0.960 . S
C4128 C4129 1.391 . S
C4128 C4130 1.394 1_455 S
C4128 H4144 0.931 . S
C4129 C4128 1.391 . S
C4129 C4133 1.376 . S
C4130 C4128 1.394 1_655 S
C4130 C4131 1.369 . S
C4130 C4134 1.531 . S
C4131 C4130 1.369 . S
C4131 C4132 1.410 1_655 S
C4131 C4139 1.503 . S
C4132 C4131 1.410 1_455 S
C4132 C4133 1.392 . S
C4132 C4135 1.511 . S
C4133 C4129 1.376 . S
C4133 C4132 1.392 . S
C4133 H4145 0.929 . S
C4134 C4130 1.531 . S
C4134 H4146 0.960 . S
C4134 H4147 0.962 . S
C4134 H4148 0.960 . S
C4135 C4132 1.511 . S
C4135 H4149 0.961 . S
C4135 H4150 0.961 . S
C4135 H4151 0.961 . S
C4136 C4137 1.370 . S
C4136 C4138 1.363 . S
C4136 H4152 0.931 . S
C4137 C4136 1.370 . S
C4137 C4141 1.408 . S
C4138 C4136 1.363 . S
C4138 C4139 1.370 . S
C4138 C4142 1.524 . S
C4139 C4131 1.503 . S
C4139 C4138 1.370 . S
C4139 C4140 1.403 . S
C4140 C4139 1.403 . S
C4140 C4141 1.404 . S
C4140 C4143 1.539 . S
C4141 C4137 1.408 . S
C4141 C4140 1.404 . S
C4141 H4153 0.930 . S
C4142 C4138 1.524 . S
C4142 H4154 0.956 . S
C4142 H4155 0.961 1_655 S
C4142 H4156 0.961 . S
C4143 C4140 1.539 . S
C4143 H4157 0.958 . S
C4143 H4158 0.961 . S
C4143 H4159 0.960 . S
H4144 C4128 0.931 . S
H4145 C4133 0.929 . S
H4146 C4134 0.960 . S
H4147 C4134 0.962 . S
H4148 C4134 0.960 . S
H4149 C4135 0.961 . S
H4150 C4135 0.961 . S
H4151 C4135 0.961 . S
H4152 C4136 0.931 . S
H4153 C4141 0.930 . S
H4154 C4142 0.956 . S
H4155 C4142 0.961 1_455 S
H4156 C4142 0.961 . S
H4157 C4143 0.958 . S
H4158 C4143 0.961 . S
H4159 C4143 0.960 . S
C4160 C4161 1.391 . S
C4160 C4162 1.394 . S
C4160 H4176 0.931 . S
C4161 C4160 1.391 . S
C4161 C4165 1.376 . S
C4162 C4160 1.394 . S
C4162 C4163 1.369 1_455 S
C4162 C4166 1.531 . S
C4163 C4162 1.369 1_655 S
C4163 C4164 1.410 . S
C4163 C4171 1.503 . S
C4164 C4163 1.410 . S
C4164 C4165 1.392 1_655 S
C4164 C4167 1.511 . S
C4165 C4161 1.376 . S
C4165 C4164 1.392 1_455 S
C4165 H4177 0.929 . S
C4166 C4162 1.531 . S
C4166 H4178 0.960 . S
C4166 H4179 0.962 . S
C4166 H4180 0.960 . S
C4167 C4164 1.511 . S
C4167 H4181 0.961 . S
C4167 H4182 0.961 . S
C4167 H4183 0.961 . S
C4168 C4169 1.370 . S
C4168 C4170 1.363 . S
C4168 H4184 0.931 . S
C4169 C4168 1.370 . S
C4169 C4173 1.408 . S
C4170 C4168 1.363 . S
C4170 C4171 1.370 . S
C4170 C4174 1.533 . S
C4171 C4163 1.503 . S
C4171 C4170 1.370 . S
C4171 C4172 1.403 . S
C4172 C4171 1.403 . S
C4172 C4173 1.404 . S
C4172 C4175 1.539 . S
C4173 C4169 1.408 . S
C4173 C4172 1.404 . S
C4173 H4185 0.930 . S
C4174 C4170 1.533 . S
C4174 H4186 0.946 1_655 S
C4174 H4187 0.960 1_655 S
C4174 H4188 0.962 . S
C4175 C4172 1.539 . S
C4175 H4189 0.958 . S
C4175 H4190 0.961 . S
C4175 H4191 0.960 . S
H4176 C4160 0.931 . S
H4177 C4165 0.929 . S
H4178 C4166 0.960 . S
H4179 C4166 0.962 . S
H4180 C4166 0.960 . S
H4181 C4167 0.961 . S
H4182 C4167 0.961 . S
H4183 C4167 0.961 . S
H4184 C4168 0.931 . S
H4185 C4173 0.930 . S
H4186 C4174 0.946 1_455 S
H4187 C4174 0.960 1_455 S
H4188 C4174 0.962 . S
H4189 C4175 0.958 . S
H4190 C4175 0.961 . S
H4191 C4175 0.960 . S
C4192 C4193 1.391 . S
C4192 C4194 1.394 . S
C4192 H4208 0.931 . S
C4193 C4192 1.391 . S
C4193 C4197 1.376 . S
C4194 C4192 1.394 . S
C4194 C4195 1.369 . S
C4194 C4198 1.531 . S
C4195 C4194 1.369 . S
C4195 C4196 1.410 . S
C4195 C4203 1.503 . S
C4196 C4195 1.410 . S
C4196 C4197 1.392 . S
C4196 C4199 1.511 . S
C4197 C4193 1.376 . S
C4197 C4196 1.392 . S
C4197 H4209 0.929 . S
C4198 C4194 1.531 . S
C4198 H4210 0.960 . S
C4198 H4211 0.962 . S
C4198 H4212 0.960 . S
C4199 C4196 1.511 . S
C4199 H4213 0.961 . S
C4199 H4214 0.961 . S
C4199 H4215 0.961 . S
C4200 C4201 1.370 . S
C4200 C4202 1.363 . S
C4200 H4216 0.931 . S
C4201 C4200 1.370 . S
C4201 C4205 1.408 . S
C4202 C4200 1.363 . S
C4202 C4203 1.370 . S
C4202 C4206 1.524 . S
C4203 C4195 1.503 . S
C4203 C4202 1.370 . S
C4203 C4204 1.403 . S
C4204 C4203 1.403 . S
C4204 C4205 1.404 . S
C4204 C4207 1.539 . S
C4205 C4201 1.408 . S
C4205 C4204 1.404 . S
C4205 H4217 0.930 . S
C4206 C4202 1.524 . S
C4206 H4218 0.956 . S
C4206 H4219 0.961 . S
C4206 H4220 0.961 . S
C4207 C4204 1.539 . S
C4207 H4221 0.958 . S
C4207 H4222 0.961 . S
C4207 H4223 0.960 . S
H4208 C4192 0.931 . S
H4209 C4197 0.929 . S
H4210 C4198 0.960 . S
H4211 C4198 0.962 . S
H4212 C4198 0.960 . S
H4213 C4199 0.961 . S
H4214 C4199 0.961 . S
H4215 C4199 0.961 . S
H4216 C4200 0.931 . S
H4217 C4205 0.930 . S
H4218 C4206 0.956 . S
H4219 C4206 0.961 . S
H4220 C4206 0.961 . S
H4221 C4207 0.958 . S
H4222 C4207 0.961 . S
H4223 C4207 0.960 . S
C4224 C4225 1.391 . S
C4224 C4226 1.394 . S
C4224 H4240 0.931 . S
C4225 C4224 1.391 . S
C4225 C4229 1.376 . S
C4226 C4224 1.394 . S
C4226 C4227 1.369 . S
C4226 C4230 1.531 . S
C4227 C4226 1.369 . S
C4227 C4228 1.410 . S
C4227 C4235 1.503 1_655 S
C4228 C4227 1.410 . S
C4228 C4229 1.392 . S
C4228 C4231 1.511 1_655 S
C4229 C4225 1.376 . S
C4229 C4228 1.392 . S
C4229 H4241 0.929 . S
C4230 C4226 1.531 . S
C4230 H4242 0.960 . S
C4230 H4243 0.962 1_655 S
C4230 H4244 0.960 . S
C4231 C4228 1.511 1_455 S
C4231 H4245 0.961 . S
C4231 H4246 0.961 . S
C4231 H4247 0.961 1_455 S
C4232 C4233 1.370 . S
C4232 C4234 1.363 . S
C4232 H4248 0.931 . S
C4233 C4232 1.370 . S
C4233 C4237 1.408 . S
C4234 C4232 1.363 . S
C4234 C4235 1.370 . S
C4234 C4238 1.524 . S
C4235 C4227 1.503 1_455 S
C4235 C4234 1.370 . S
C4235 C4236 1.403 . S
C4236 C4235 1.403 . S
C4236 C4237 1.404 . S
C4236 C4239 1.539 1_455 S
C4237 C4233 1.408 . S
C4237 C4236 1.404 . S
C4237 H4249 0.930 . S
C4238 C4234 1.524 . S
C4238 H4250 0.956 . S
C4238 H4251 0.961 . S
C4238 H4252 0.961 . S
C4239 C4236 1.539 1_655 S
C4239 H4253 0.958 . S
C4239 H4254 0.961 . S
C4239 H4255 0.960 . S
H4240 C4224 0.931 . S
H4241 C4229 0.929 . S
H4242 C4230 0.960 . S
H4243 C4230 0.962 1_455 S
H4244 C4230 0.960 . S
H4245 C4231 0.961 . S
H4246 C4231 0.961 . S
H4247 C4231 0.961 1_655 S
H4248 C4232 0.931 . S
H4249 C4237 0.930 . S
H4250 C4238 0.956 . S
H4251 C4238 0.961 . S
H4252 C4238 0.961 . S
H4253 C4239 0.958 . S
H4254 C4239 0.961 . S
H4255 C4239 0.960 . S
C4256 C4257 1.391 . S
C4256 C4258 1.394 . S
C4256 H4272 0.931 . S
C4257 C4256 1.391 . S
C4257 C4261 1.376 . S
C4258 C4256 1.394 . S
C4258 C4259 1.369 . S
C4258 C4262 1.531 . S
C4259 C4258 1.369 . S
C4259 C4260 1.410 . S
C4259 C4267 1.503 . S
C4260 C4259 1.410 . S
C4260 C4261 1.392 . S
C4260 C4263 1.511 . S
C4261 C4257 1.376 . S
C4261 C4260 1.392 . S
C4261 H4273 0.929 . S
C4262 C4258 1.531 . S
C4262 H4274 0.960 . S
C4262 H4275 0.962 . S
C4262 H4276 0.960 . S
C4263 C4260 1.511 . S
C4263 H4277 0.961 . S
C4263 H4278 0.961 . S
C4263 H4279 0.961 . S
C4264 C4265 1.370 . S
C4264 C4266 1.363 . S
C4264 H4280 0.931 . S
C4265 C4264 1.370 . S
C4265 C4269 1.408 . S
C4266 C4264 1.363 . S
C4266 C4267 1.370 . S
C4266 C4270 1.524 . S
C4267 C4259 1.503 . S
C4267 C4266 1.370 . S
C4267 C4268 1.403 . S
C4268 C4267 1.403 . S
C4268 C4269 1.404 . S
C4268 C4271 1.539 . S
C4269 C4265 1.408 . S
C4269 C4268 1.404 . S
C4269 H4281 0.930 . S
C4270 C4266 1.524 . S
C4270 H4282 0.956 . S
C4270 H4283 0.961 . S
C4270 H4284 0.961 . S
C4271 C4268 1.539 . S
C4271 H4285 0.958 . S
C4271 H4286 0.961 . S
C4271 H4287 0.960 . S
H4272 C4256 0.931 . S
H4273 C4261 0.929 . S
H4274 C4262 0.960 . S
H4275 C4262 0.962 . S
H4276 C4262 0.960 . S
H4277 C4263 0.961 . S
H4278 C4263 0.961 . S
H4279 C4263 0.961 . S
H4280 C4264 0.931 . S
H4281 C4269 0.930 . S
H4282 C4270 0.956 . S
H4283 C4270 0.961 . S
H4284 C4270 0.961 . S
H4285 C4271 0.958 . S
H4286 C4271 0.961 . S
H4287 C4271 0.960 . S
C4288 C4289 1.391 . S
C4288 C4290 1.394 . S
C4288 H4304 0.931 . S
C4289 C4288 1.391 . S
C4289 C4293 1.376 . S
C4290 C4288 1.394 . S
C4290 C4291 1.369 . S
C4290 C4294 1.531 . S
C4291 C4290 1.369 . S
C4291 C4292 1.410 . S
C4291 C4299 1.503 . S
C4292 C4291 1.410 . S
C4292 C4293 1.392 . S
C4292 C4295 1.511 . S
C4293 C4289 1.376 . S
C4293 C4292 1.392 . S
C4293 H4305 0.929 . S
C4294 C4290 1.531 . S
C4294 H4306 0.960 . S
C4294 H4307 0.962 . S
C4294 H4308 0.960 . S
C4295 C4292 1.511 . S
C4295 H4309 0.961 . S
C4295 H4310 0.961 . S
C4295 H4311 0.961 . S
C4296 C4297 1.370 . S
C4296 C4298 1.363 . S
C4296 H4312 0.931 . S
C4297 C4296 1.370 . S
C4297 C4301 1.408 . S
C4298 C4296 1.363 . S
C4298 C4299 1.370 . S
C4298 C4302 1.524 . S
C4299 C4291 1.503 . S
C4299 C4298 1.370 . S
C4299 C4300 1.403 . S
C4300 C4299 1.403 . S
C4300 C4301 1.404 . S
C4300 C4303 1.539 . S
C4301 C4297 1.408 . S
C4301 C4300 1.404 . S
C4301 H4313 0.930 . S
C4302 C4298 1.524 . S
C4302 H4314 0.956 . S
C4302 H4315 0.961 . S
C4302 H4316 0.961 . S
C4303 C4300 1.539 . S
C4303 H4317 0.958 . S
C4303 H4318 0.961 . S
C4303 H4319 0.960 . S
H4304 C4288 0.931 . S
H4305 C4293 0.929 . S
H4306 C4294 0.960 . S
H4307 C4294 0.962 . S
H4308 C4294 0.960 . S
H4309 C4295 0.961 . S
H4310 C4295 0.961 . S
H4311 C4295 0.961 . S
H4312 C4296 0.931 . S
H4313 C4301 0.930 . S
H4314 C4302 0.956 . S
H4315 C4302 0.961 . S
H4316 C4302 0.961 . S
H4317 C4303 0.958 . S
H4318 C4303 0.961 . S
H4319 C4303 0.960 . S
C4320 C4321 1.391 . S
C4320 C4322 1.394 1_554 S
C4320 H4336 0.931 . S
C4321 C4320 1.391 . S
C4321 C4325 1.376 . S
C4322 C4320 1.394 1_556 S
C4322 C4323 1.369 . S
C4322 C4326 1.531 . S
C4323 C4322 1.369 . S
C4323 C4324 1.410 1_556 S
C4323 C4331 1.503 . S
C4324 C4323 1.410 1_554 S
C4324 C4325 1.392 . S
C4324 C4327 1.511 . S
C4325 C4321 1.376 . S
C4325 C4324 1.392 . S
C4325 H4337 0.929 . S
C4326 C4322 1.531 . S
C4326 H4338 0.960 . S
C4326 H4339 0.962 . S
C4326 H4340 0.960 . S
C4327 C4324 1.511 . S
C4327 H4341 0.961 . S
C4327 H4342 0.961 . S
C4327 H4343 0.961 . S
C4328 C4329 1.370 . S
C4328 C4330 1.363 . S
C4328 H4344 0.931 . S
C4329 C4328 1.370 . S
C4329 C4333 1.408 . S
C4330 C4328 1.363 . S
C4330 C4331 1.370 . S
C4330 C4334 1.524 . S
C4331 C4323 1.503 . S
C4331 C4330 1.370 . S
C4331 C4332 1.403 . S
C4332 C4331 1.403 . S
C4332 C4333 1.404 . S
C4332 C4335 1.539 . S
C4333 C4329 1.408 . S
C4333 C4332 1.404 . S
C4333 H4345 0.930 . S
C4334 C4330 1.524 . S
C4334 H4346 0.956 . S
C4334 H4347 0.961 1_556 S
C4334 H4348 0.961 . S
C4335 C4332 1.539 . S
C4335 H4349 0.958 . S
C4335 H4350 0.961 . S
C4335 H4351 0.960 . S
H4336 C4320 0.931 . S
H4337 C4325 0.929 . S
H4338 C4326 0.960 . S
H4339 C4326 0.962 . S
H4340 C4326 0.960 . S
H4341 C4327 0.961 . S
H4342 C4327 0.961 . S
H4343 C4327 0.961 . S
H4344 C4328 0.931 . S
H4345 C4333 0.930 . S
H4346 C4334 0.956 . S
H4347 C4334 0.961 1_554 S
H4348 C4334 0.961 . S
H4349 C4335 0.958 . S
H4350 C4335 0.961 . S
H4351 C4335 0.960 . S
C4352 C4353 1.391 . S
C4352 C4354 1.394 . S
C4352 H4368 0.931 . S
C4353 C4352 1.391 . S
C4353 C4357 1.376 . S
C4354 C4352 1.394 . S
C4354 C4355 1.369 . S
C4354 C4358 1.531 . S
C4355 C4354 1.369 . S
C4355 C4356 1.410 . S
C4355 C4363 1.503 . S
C4356 C4355 1.410 . S
C4356 C4357 1.392 . S
C4356 C4359 1.511 . S
C4357 C4353 1.376 . S
C4357 C4356 1.392 . S
C4357 H4369 0.929 . S
C4358 C4354 1.531 . S
C4358 H4370 0.960 . S
C4358 H4371 0.962 . S
C4358 H4372 0.960 . S
C4359 C4356 1.511 . S
C4359 H4373 0.961 . S
C4359 H4374 0.961 . S
C4359 H4375 0.961 . S
C4360 C4361 1.370 . S
C4360 C4362 1.363 . S
C4360 H4376 0.931 . S
C4361 C4360 1.370 . S
C4361 C4365 1.408 . S
C4362 C4360 1.363 . S
C4362 C4363 1.370 . S
C4362 C4366 1.524 . S
C4363 C4355 1.503 . S
C4363 C4362 1.370 . S
C4363 C4364 1.403 . S
C4364 C4363 1.403 . S
C4364 C4365 1.404 . S
C4364 C4367 1.539 . S
C4365 C4361 1.408 . S
C4365 C4364 1.404 . S
C4365 H4377 0.930 . S
C4366 C4362 1.524 . S
C4366 H4378 0.956 . S
C4366 H4379 0.961 . S
C4366 H4380 0.961 . S
C4367 C4364 1.539 . S
C4367 H4381 0.958 . S
C4367 H4382 0.961 . S
C4367 H4383 0.960 . S
H4368 C4352 0.931 . S
H4369 C4357 0.929 . S
H4370 C4358 0.960 . S
H4371 C4358 0.962 . S
H4372 C4358 0.960 . S
H4373 C4359 0.961 . S
H4374 C4359 0.961 . S
H4375 C4359 0.961 . S
H4376 C4360 0.931 . S
H4377 C4365 0.930 . S
H4378 C4366 0.956 . S
H4379 C4366 0.961 . S
H4380 C4366 0.961 . S
H4381 C4367 0.958 . S
H4382 C4367 0.961 . S
H4383 C4367 0.960 . S
C4384 C4385 1.391 . S
C4384 C4386 1.394 . S
C4384 H4400 0.931 . S
C4385 C4384 1.391 . S
C4385 C4389 1.376 . S
C4386 C4384 1.394 . S
C4386 C4387 1.369 . S
C4386 C4390 1.531 . S
C4387 C4386 1.369 . S
C4387 C4388 1.410 . S
C4387 C4395 1.503 . S
C4388 C4387 1.410 . S
C4388 C4389 1.392 . S
C4388 C4391 1.511 . S
C4389 C4385 1.376 . S
C4389 C4388 1.392 . S
C4389 H4401 0.929 . S
C4390 C4386 1.531 . S
C4390 H4402 0.960 . S
C4390 H4403 0.962 . S
C4390 H4404 0.960 . S
C4391 C4388 1.511 . S
C4391 H4405 0.961 . S
C4391 H4406 0.961 . S
C4391 H4407 0.961 . S
C4392 C4393 1.370 . S
C4392 C4394 1.363 . S
C4392 H4408 0.931 . S
C4393 C4392 1.370 . S
C4393 C4397 1.408 . S
C4394 C4392 1.363 . S
C4394 C4395 1.370 . S
C4394 C4398 1.524 . S
C4395 C4387 1.503 . S
C4395 C4394 1.370 . S
C4395 C4396 1.403 . S
C4396 C4395 1.403 . S
C4396 C4397 1.404 . S
C4396 C4399 1.539 . S
C4397 C4393 1.408 . S
C4397 C4396 1.404 . S
C4397 H4409 0.930 . S
C4398 C4394 1.524 . S
C4398 H4410 0.956 . S
C4398 H4411 0.961 . S
C4398 H4412 0.961 . S
C4399 C4396 1.539 . S
C4399 H4413 0.958 . S
C4399 H4414 0.961 . S
C4399 H4415 0.960 . S
H4400 C4384 0.931 . S
H4401 C4389 0.929 . S
H4402 C4390 0.960 . S
H4403 C4390 0.962 . S
H4404 C4390 0.960 . S
H4405 C4391 0.961 . S
H4406 C4391 0.961 . S
H4407 C4391 0.961 . S
H4408 C4392 0.931 . S
H4409 C4397 0.930 . S
H4410 C4398 0.956 . S
H4411 C4398 0.961 . S
H4412 C4398 0.961 . S
H4413 C4399 0.958 . S
H4414 C4399 0.961 . S
H4415 C4399 0.960 . S
C4416 C4417 1.391 . S
C4416 C4418 1.394 . S
C4416 H4432 0.931 . S
C4417 C4416 1.391 . S
C4417 C4421 1.376 . S
C4418 C4416 1.394 . S
C4418 C4419 1.369 . S
C4418 C4422 1.531 . S
C4419 C4418 1.369 . S
C4419 C4420 1.410 . S
C4419 C4427 1.503 . S
C4420 C4419 1.410 . S
C4420 C4421 1.392 . S
C4420 C4423 1.511 . S
C4421 C4417 1.376 . S
C4421 C4420 1.392 . S
C4421 H4433 0.929 . S
C4422 C4418 1.531 . S
C4422 H4434 0.960 . S
C4422 H4435 0.962 . S
C4422 H4436 0.960 . S
C4423 C4420 1.511 . S
C4423 H4437 0.961 . S
C4423 H4438 0.961 . S
C4423 H4439 0.961 . S
C4424 C4425 1.370 . S
C4424 C4426 1.363 . S
C4424 H4440 0.931 . S
C4425 C4424 1.370 . S
C4425 C4429 1.408 . S
C4426 C4424 1.363 . S
C4426 C4427 1.370 . S
C4426 C4430 1.524 . S
C4427 C4419 1.503 . S
C4427 C4426 1.370 . S
C4427 C4428 1.403 . S
C4428 C4427 1.403 . S
C4428 C4429 1.404 . S
C4428 C4431 1.539 . S
C4429 C4425 1.408 . S
C4429 C4428 1.404 . S
C4429 H4441 0.930 . S
C4430 C4426 1.524 . S
C4430 H4442 0.956 . S
C4430 H4443 0.961 . S
C4430 H4444 0.961 . S
C4431 C4428 1.539 . S
C4431 H4445 0.958 . S
C4431 H4446 0.961 . S
C4431 H4447 0.960 . S
H4432 C4416 0.931 . S
H4433 C4421 0.929 . S
H4434 C4422 0.960 . S
H4435 C4422 0.962 . S
H4436 C4422 0.960 . S
H4437 C4423 0.961 . S
H4438 C4423 0.961 . S
H4439 C4423 0.961 . S
H4440 C4424 0.931 . S
H4441 C4429 0.930 . S
H4442 C4430 0.956 . S
H4443 C4430 0.961 . S
H4444 C4430 0.961 . S
H4445 C4431 0.958 . S
H4446 C4431 0.961 . S
H4447 C4431 0.960 . S
C4448 C4449 1.391 . S
C4448 C4450 1.394 . S
C4448 H4464 0.931 . S
C4449 C4448 1.391 . S
C4449 C4453 1.376 . S
C4450 C4448 1.394 . S
C4450 C4451 1.369 . S
C4450 C4454 1.531 . S
C4451 C4450 1.369 . S
C4451 C4452 1.410 . S
C4451 C4459 1.503 . S
C4452 C4451 1.410 . S
C4452 C4453 1.392 . S
C4452 C4455 1.511 . S
C4453 C4449 1.376 . S
C4453 C4452 1.392 . S
C4453 H4465 0.929 . S
C4454 C4450 1.531 . S
C4454 H4466 0.955 1_554 S
C4454 H4467 0.962 1_554 S
C4454 H4468 0.960 . S
C4455 C4452 1.511 . S
C4455 H4469 0.961 . S
C4455 H4470 0.961 . S
C4455 H4471 0.961 . S
C4456 C4457 1.370 . S
C4456 C4458 1.363 . S
C4456 H4472 0.931 . S
C4457 C4456 1.370 . S
C4457 C4461 1.408 . S
C4458 C4456 1.363 . S
C4458 C4459 1.370 1_556 S
C4458 C4462 1.524 . S
C4459 C4451 1.503 . S
C4459 C4458 1.370 1_554 S
C4459 C4460 1.403 . S
C4460 C4459 1.403 . S
C4460 C4461 1.404 1_554 S
C4460 C4463 1.539 . S
C4461 C4457 1.408 . S
C4461 C4460 1.404 1_556 S
C4461 H4473 0.930 . S
C4462 C4458 1.524 . S
C4462 H4474 0.956 . S
C4462 H4475 0.961 . S
C4462 H4476 0.961 . S
C4463 C4460 1.539 . S
C4463 H4477 0.958 . S
C4463 H4478 0.961 . S
C4463 H4479 0.960 . S
H4464 C4448 0.931 . S
H4465 C4453 0.929 . S
H4466 C4454 0.955 1_556 S
H4467 C4454 0.962 1_556 S
H4468 C4454 0.960 . S
H4469 C4455 0.961 . S
H4470 C4455 0.961 . S
H4471 C4455 0.961 . S
H4472 C4456 0.931 . S
H4473 C4461 0.930 . S
H4474 C4462 0.956 . S
H4475 C4462 0.961 . S
H4476 C4462 0.961 . S
H4477 C4463 0.958 . S
H4478 C4463 0.961 . S
H4479 C4463 0.960 . S
C4480 C4481 1.391 . S
C4480 C4482 1.394 . S
C4480 H4496 0.931 . S
C4481 C4480 1.391 . S
C4481 C4485 1.376 . S
C4482 C4480 1.394 . S
C4482 C4483 1.369 . S
C4482 C4486 1.531 . S
C4483 C4482 1.369 . S
C4483 C4484 1.410 . S
C4483 C4491 1.503 . S
C4484 C4483 1.410 . S
C4484 C4485 1.392 . S
C4484 C4487 1.511 . S
C4485 C4481 1.376 . S
C4485 C4484 1.392 . S
C4485 H4497 0.929 . S
C4486 C4482 1.531 . S
C4486 H4498 0.960 . S
C4486 H4499 0.962 . S
C4486 H4500 0.960 . S
C4487 C4484 1.511 . S
C4487 H4501 0.961 . S
C4487 H4502 0.961 . S
C4487 H4503 0.961 . S
C4488 C4489 1.370 . S
C4488 C4490 1.363 . S
C4488 H4504 0.931 . S
C4489 C4488 1.370 . S
C4489 C4493 1.408 . S
C4490 C4488 1.363 . S
C4490 C4491 1.370 . S
C4490 C4494 1.524 . S
C4491 C4483 1.503 . S
C4491 C4490 1.370 . S
C4491 C4492 1.403 . S
C4492 C4491 1.403 . S
C4492 C4493 1.404 . S
C4492 C4495 1.539 . S
C4493 C4489 1.408 . S
C4493 C4492 1.404 . S
C4493 H4505 0.930 . S
C4494 C4490 1.524 . S
C4494 H4506 0.956 . S
C4494 H4507 0.961 . S
C4494 H4508 0.961 . S
C4495 C4492 1.539 . S
C4495 H4509 0.958 . S
C4495 H4510 0.961 . S
C4495 H4511 0.960 . S
H4496 C4480 0.931 . S
H4497 C4485 0.929 . S
H4498 C4486 0.960 . S
H4499 C4486 0.962 . S
H4500 C4486 0.960 . S
H4501 C4487 0.961 . S
H4502 C4487 0.961 . S
H4503 C4487 0.961 . S
H4504 C4488 0.931 . S
H4505 C4493 0.930 . S
H4506 C4494 0.956 . S
H4507 C4494 0.961 . S
H4508 C4494 0.961 . S
H4509 C4495 0.958 . S
H4510 C4495 0.961 . S
H4511 C4495 0.960 . S
C4512 C4513 1.391 . S
C4512 C4514 1.394 . S
C4512 H4528 0.931 . S
C4513 C4512 1.391 . S
C4513 C4517 1.376 . S
C4514 C4512 1.394 . S
C4514 C4515 1.369 . S
C4514 C4518 1.531 . S
C4515 C4514 1.369 . S
C4515 C4516 1.410 . S
C4515 C4523 1.503 . S
C4516 C4515 1.410 . S
C4516 C4517 1.392 . S
C4516 C4519 1.511 . S
C4517 C4513 1.376 . S
C4517 C4516 1.392 . S
C4517 H4529 0.929 . S
C4518 C4514 1.531 . S
C4518 H4530 0.960 . S
C4518 H4531 0.962 . S
C4518 H4532 0.960 . S
C4519 C4516 1.511 . S
C4519 H4533 0.961 . S
C4519 H4534 0.961 . S
C4519 H4535 0.961 . S
C4520 C4521 1.370 . S
C4520 C4522 1.363 . S
C4520 H4536 0.931 . S
C4521 C4520 1.370 . S
C4521 C4525 1.408 . S
C4522 C4520 1.363 . S
C4522 C4523 1.370 . S
C4522 C4526 1.524 . S
C4523 C4515 1.503 . S
C4523 C4522 1.370 . S
C4523 C4524 1.403 . S
C4524 C4523 1.403 . S
C4524 C4525 1.404 . S
C4524 C4527 1.539 . S
C4525 C4521 1.408 . S
C4525 C4524 1.404 . S
C4525 H4537 0.930 . S
C4526 C4522 1.524 . S
C4526 H4538 0.956 . S
C4526 H4539 0.961 . S
C4526 H4540 0.961 . S
C4527 C4524 1.539 . S
C4527 H4541 0.958 . S
C4527 H4542 0.961 . S
C4527 H4543 0.960 . S
H4528 C4512 0.931 . S
H4529 C4517 0.929 . S
H4530 C4518 0.960 . S
H4531 C4518 0.962 . S
H4532 C4518 0.960 . S
H4533 C4519 0.961 . S
H4534 C4519 0.961 . S
H4535 C4519 0.961 . S
H4536 C4520 0.931 . S
H4537 C4525 0.930 . S
H4538 C4526 0.956 . S
H4539 C4526 0.961 . S
H4540 C4526 0.961 . S
H4541 C4527 0.958 . S
H4542 C4527 0.961 . S
H4543 C4527 0.960 . S
C4544 C4545 1.391 . S
C4544 C4546 1.394 . S
C4544 H4560 0.931 . S
C4545 C4544 1.391 . S
C4545 C4549 1.376 . S
C4546 C4544 1.394 . S
C4546 C4547 1.369 . S
C4546 C4550 1.531 . S
C4547 C4546 1.369 . S
C4547 C4548 1.410 . S
C4547 C4555 1.503 . S
C4548 C4547 1.410 . S
C4548 C4549 1.392 . S
C4548 C4551 1.511 . S
C4549 C4545 1.376 . S
C4549 C4548 1.392 . S
C4549 H4561 0.929 . S
C4550 C4546 1.531 . S
C4550 H4562 0.960 . S
C4550 H4563 0.962 . S
C4550 H4564 0.960 . S
C4551 C4548 1.511 . S
C4551 H4565 0.961 . S
C4551 H4566 0.961 . S
C4551 H4567 0.961 . S
C4552 C4553 1.370 . S
C4552 C4554 1.363 . S
C4552 H4568 0.931 . S
C4553 C4552 1.370 . S
C4553 C4557 1.408 . S
C4554 C4552 1.363 . S
C4554 C4555 1.370 . S
C4554 C4558 1.524 . S
C4555 C4547 1.503 . S
C4555 C4554 1.370 . S
C4555 C4556 1.403 . S
C4556 C4555 1.403 . S
C4556 C4557 1.404 . S
C4556 C4559 1.539 . S
C4557 C4553 1.408 . S
C4557 C4556 1.404 . S
C4557 H4569 0.930 . S
C4558 C4554 1.524 . S
C4558 H4570 0.956 . S
C4558 H4571 0.961 . S
C4558 H4572 0.961 . S
C4559 C4556 1.539 . S
C4559 H4573 0.958 . S
C4559 H4574 0.961 . S
C4559 H4575 0.960 . S
H4560 C4544 0.931 . S
H4561 C4549 0.929 . S
H4562 C4550 0.960 . S
H4563 C4550 0.962 . S
H4564 C4550 0.960 . S
H4565 C4551 0.961 . S
H4566 C4551 0.961 . S
H4567 C4551 0.961 . S
H4568 C4552 0.931 . S
H4569 C4557 0.930 . S
H4570 C4558 0.956 . S
H4571 C4558 0.961 . S
H4572 C4558 0.961 . S
H4573 C4559 0.958 . S
H4574 C4559 0.961 . S
H4575 C4559 0.960 . S
C4576 C4577 1.391 . S
C4576 C4578 1.394 . S
C4576 H4592 0.931 . S
C4577 C4576 1.391 . S
C4577 C4581 1.376 . S
C4578 C4576 1.394 . S
C4578 C4579 1.369 . S
C4578 C4582 1.531 . S
C4579 C4578 1.369 . S
C4579 C4580 1.410 . S
C4579 C4587 1.503 . S
C4580 C4579 1.410 . S
C4580 C4581 1.392 . S
C4580 C4583 1.511 . S
C4581 C4577 1.376 . S
C4581 C4580 1.392 . S
C4581 H4593 0.929 . S
C4582 C4578 1.531 . S
C4582 H4594 0.960 . S
C4582 H4595 0.962 . S
C4582 H4596 0.960 . S
C4583 C4580 1.511 . S
C4583 H4597 0.961 . S
C4583 H4598 0.961 . S
C4583 H4599 0.961 . S
C4584 C4585 1.370 . S
C4584 C4586 1.363 . S
C4584 H4600 0.931 . S
C4585 C4584 1.370 . S
C4585 C4589 1.408 . S
C4586 C4584 1.363 . S
C4586 C4587 1.370 . S
C4586 C4590 1.524 . S
C4587 C4579 1.503 . S
C4587 C4586 1.370 . S
C4587 C4588 1.403 . S
C4588 C4587 1.403 . S
C4588 C4589 1.404 . S
C4588 C4591 1.539 . S
C4589 C4585 1.408 . S
C4589 C4588 1.404 . S
C4589 H4601 0.930 . S
C4590 C4586 1.524 . S
C4590 H4602 0.956 . S
C4590 H4603 0.961 . S
C4590 H4604 0.961 . S
C4591 C4588 1.539 . S
C4591 H4605 0.958 . S
C4591 H4606 0.961 . S
C4591 H4607 0.960 . S
H4592 C4576 0.931 . S
H4593 C4581 0.929 . S
H4594 C4582 0.960 . S
H4595 C4582 0.962 . S
H4596 C4582 0.960 . S
H4597 C4583 0.961 . S
H4598 C4583 0.961 . S
H4599 C4583 0.961 . S
H4600 C4584 0.931 . S
H4601 C4589 0.930 . S
H4602 C4590 0.956 . S
H4603 C4590 0.961 . S
H4604 C4590 0.961 . S
H4605 C4591 0.958 . S
H4606 C4591 0.961 . S
H4607 C4591 0.960 . S
C4608 C4609 1.391 . S
C4608 C4610 1.394 . S
C4608 H4624 0.931 . S
C4609 C4608 1.391 . S
C4609 C4613 1.376 . S
C4610 C4608 1.394 . S
C4610 C4611 1.369 . S
C4610 C4614 1.531 . S
C4611 C4610 1.369 . S
C4611 C4612 1.410 . S
C4611 C4619 1.503 . S
C4612 C4611 1.410 . S
C4612 C4613 1.392 . S
C4612 C4615 1.511 1_554 S
C4613 C4609 1.376 . S
C4613 C4612 1.392 . S
C4613 H4625 0.929 . S
C4614 C4610 1.531 . S
C4614 H4626 0.960 . S
C4614 H4627 0.962 . S
C4614 H4628 0.960 . S
C4615 C4612 1.511 1_556 S
C4615 H4629 0.961 . S
C4615 H4630 0.961 . S
C4615 H4631 0.961 . S
C4616 C4617 1.370 . S
C4616 C4618 1.363 . S
C4616 H4632 0.931 . S
C4617 C4616 1.370 . S
C4617 C4621 1.408 . S
C4618 C4616 1.363 . S
C4618 C4619 1.370 1_556 S
C4618 C4622 1.529 . S
C4619 C4611 1.503 . S
C4619 C4618 1.370 1_554 S
C4619 C4620 1.403 1_554 S
C4620 C4619 1.403 1_556 S
C4620 C4621 1.404 . S
C4620 C4623 1.539 1_556 S
C4621 C4617 1.408 . S
C4621 C4620 1.404 . S
C4621 H4633 0.930 . S
C4622 C4618 1.529 . S
C4622 H4634 0.940 1_556 S
C4622 H4635 0.962 . S
C4622 H4636 0.970 . S
C4623 C4620 1.539 1_554 S
C4623 H4637 0.958 . S
C4623 H4638 0.961 1_554 S
C4623 H4639 0.960 . S
H4624 C4608 0.931 . S
H4625 C4613 0.929 . S
H4626 C4614 0.960 . S
H4627 C4614 0.962 . S
H4628 C4614 0.960 . S
H4629 C4615 0.961 . S
H4630 C4615 0.961 . S
H4631 C4615 0.961 . S
H4632 C4616 0.931 . S
H4633 C4621 0.930 . S
H4634 C4622 0.940 1_554 S
H4635 C4622 0.962 . S
H4636 C4622 0.970 . S
H4637 C4623 0.958 . S
H4638 C4623 0.961 1_556 S
H4639 C4623 0.960 . S
C4640 C4641 1.391 . S
C4640 C4642 1.394 . S
C4640 H4656 0.931 . S
C4641 C4640 1.391 . S
C4641 C4645 1.376 . S
C4642 C4640 1.394 . S
C4642 C4643 1.369 . S
C4642 C4646 1.531 . S
C4643 C4642 1.369 . S
C4643 C4644 1.410 . S
C4643 C4651 1.503 . S
C4644 C4643 1.410 . S
C4644 C4645 1.392 . S
C4644 C4647 1.511 . S
C4645 C4641 1.376 . S
C4645 C4644 1.392 . S
C4645 H4657 0.929 . S
C4646 C4642 1.531 . S
C4646 H4658 0.960 . S
C4646 H4659 0.962 . S
C4646 H4660 0.960 . S
C4647 C4644 1.511 . S
C4647 H4661 0.961 . S
C4647 H4662 0.961 . S
C4647 H4663 0.961 . S
C4648 C4649 1.370 . S
C4648 C4650 1.363 . S
C4648 H4664 0.931 . S
C4649 C4648 1.370 . S
C4649 C4653 1.408 . S
C4650 C4648 1.363 . S
C4650 C4651 1.370 . S
C4650 C4654 1.524 . S
C4651 C4643 1.503 . S
C4651 C4650 1.370 . S
C4651 C4652 1.403 . S
C4652 C4651 1.403 . S
C4652 C4653 1.404 . S
C4652 C4655 1.539 . S
C4653 C4649 1.408 . S
C4653 C4652 1.404 . S
C4653 H4665 0.930 . S
C4654 C4650 1.524 . S
C4654 H4666 0.956 . S
C4654 H4667 0.961 . S
C4654 H4668 0.961 . S
C4655 C4652 1.539 . S
C4655 H4669 0.958 . S
C4655 H4670 0.961 . S
C4655 H4671 0.960 . S
H4656 C4640 0.931 . S
H4657 C4645 0.929 . S
H4658 C4646 0.960 . S
H4659 C4646 0.962 . S
H4660 C4646 0.960 . S
H4661 C4647 0.961 . S
H4662 C4647 0.961 . S
H4663 C4647 0.961 . S
H4664 C4648 0.931 . S
H4665 C4653 0.930 . S
H4666 C4654 0.956 . S
H4667 C4654 0.961 . S
H4668 C4654 0.961 . S
H4669 C4655 0.958 . S
H4670 C4655 0.961 . S
H4671 C4655 0.960 . S
C4672 C4673 1.391 . S
C4672 C4674 1.394 . S
C4672 H4688 0.931 . S
C4673 C4672 1.391 . S
C4673 C4677 1.376 . S
C4674 C4672 1.394 . S
C4674 C4675 1.369 . S
C4674 C4678 1.531 . S
C4675 C4674 1.369 . S
C4675 C4676 1.410 . S
C4675 C4683 1.503 . S
C4676 C4675 1.410 . S
C4676 C4677 1.392 . S
C4676 C4679 1.511 . S
C4677 C4673 1.376 . S
C4677 C4676 1.392 . S
C4677 H4689 0.929 . S
C4678 C4674 1.531 . S
C4678 H4690 0.960 . S
C4678 H4691 0.962 . S
C4678 H4692 0.960 . S
C4679 C4676 1.511 . S
C4679 H4693 0.961 . S
C4679 H4694 0.961 . S
C4679 H4695 0.961 . S
C4680 C4681 1.370 . S
C4680 C4682 1.363 . S
C4680 H4696 0.931 . S
C4681 C4680 1.370 . S
C4681 C4685 1.408 . S
C4682 C4680 1.363 . S
C4682 C4683 1.370 . S
C4682 C4686 1.524 . S
C4683 C4675 1.503 . S
C4683 C4682 1.370 . S
C4683 C4684 1.403 . S
C4684 C4683 1.403 . S
C4684 C4685 1.404 . S
C4684 C4687 1.539 . S
C4685 C4681 1.408 . S
C4685 C4684 1.404 . S
C4685 H4697 0.930 . S
C4686 C4682 1.524 . S
C4686 H4698 0.956 . S
C4686 H4699 0.961 . S
C4686 H4700 0.961 . S
C4687 C4684 1.539 . S
C4687 H4701 0.958 . S
C4687 H4702 0.961 . S
C4687 H4703 0.960 . S
H4688 C4672 0.931 . S
H4689 C4677 0.929 . S
H4690 C4678 0.960 . S
H4691 C4678 0.962 . S
H4692 C4678 0.960 . S
H4693 C4679 0.961 . S
H4694 C4679 0.961 . S
H4695 C4679 0.961 . S
H4696 C4680 0.931 . S
H4697 C4685 0.930 . S
H4698 C4686 0.956 . S
H4699 C4686 0.961 . S
H4700 C4686 0.961 . S
H4701 C4687 0.958 . S
H4702 C4687 0.961 . S
H4703 C4687 0.960 . S
C4704 C4705 1.391 . S
C4704 C4706 1.394 . S
C4704 H4720 0.931 . S
C4705 C4704 1.391 . S
C4705 C4709 1.376 . S
C4706 C4704 1.394 . S
C4706 C4707 1.369 . S
C4706 C4710 1.531 . S
C4707 C4706 1.369 . S
C4707 C4708 1.410 . S
C4707 C4715 1.503 . S
C4708 C4707 1.410 . S
C4708 C4709 1.392 . S
C4708 C4711 1.511 . S
C4709 C4705 1.376 . S
C4709 C4708 1.392 . S
C4709 H4721 0.929 . S
C4710 C4706 1.531 . S
C4710 H4722 0.960 . S
C4710 H4723 0.962 . S
C4710 H4724 0.960 . S
C4711 C4708 1.511 . S
C4711 H4725 0.961 . S
C4711 H4726 0.961 . S
C4711 H4727 0.961 . S
C4712 C4713 1.370 . S
C4712 C4714 1.363 . S
C4712 H4728 0.931 . S
C4713 C4712 1.370 . S
C4713 C4717 1.408 . S
C4714 C4712 1.363 . S
C4714 C4715 1.370 . S
C4714 C4718 1.524 . S
C4715 C4707 1.503 . S
C4715 C4714 1.370 . S
C4715 C4716 1.403 . S
C4716 C4715 1.403 . S
C4716 C4717 1.404 . S
C4716 C4719 1.539 . S
C4717 C4713 1.408 . S
C4717 C4716 1.404 . S
C4717 H4729 0.930 . S
C4718 C4714 1.524 . S
C4718 H4730 0.956 . S
C4718 H4731 0.961 . S
C4718 H4732 0.961 . S
C4719 C4716 1.539 . S
C4719 H4733 0.958 . S
C4719 H4734 0.961 . S
C4719 H4735 0.960 . S
H4720 C4704 0.931 . S
H4721 C4709 0.929 . S
H4722 C4710 0.960 . S
H4723 C4710 0.962 . S
H4724 C4710 0.960 . S
H4725 C4711 0.961 . S
H4726 C4711 0.961 . S
H4727 C4711 0.961 . S
H4728 C4712 0.931 . S
H4729 C4717 0.930 . S
H4730 C4718 0.956 . S
H4731 C4718 0.961 . S
H4732 C4718 0.961 . S
H4733 C4719 0.958 . S
H4734 C4719 0.961 . S
H4735 C4719 0.960 . S
C4736 C4737 1.391 . S
C4736 C4738 1.394 . S
C4736 H4752 0.931 . S
C4737 C4736 1.391 . S
C4737 C4741 1.376 . S
C4738 C4736 1.394 . S
C4738 C4739 1.369 . S
C4738 C4742 1.531 . S
C4739 C4738 1.369 . S
C4739 C4740 1.410 . S
C4739 C4747 1.503 1_554 S
C4740 C4739 1.410 . S
C4740 C4741 1.392 . S
C4740 C4743 1.511 . S
C4741 C4737 1.376 . S
C4741 C4740 1.392 . S
C4741 H4753 0.929 . S
C4742 C4738 1.531 . S
C4742 H4754 0.972 . S
C4742 H4755 0.962 1_554 S
C4742 H4756 0.960 . S
C4743 C4740 1.511 . S
C4743 H4757 0.961 . S
C4743 H4758 0.961 1_554 S
C4743 H4759 0.961 . S
C4744 C4745 1.370 . S
C4744 C4746 1.363 . S
C4744 H4760 0.931 . S
C4745 C4744 1.370 . S
C4745 C4749 1.408 . S
C4746 C4744 1.363 . S
C4746 C4747 1.370 . S
C4746 C4750 1.524 . S
C4747 C4739 1.503 1_556 S
C4747 C4746 1.370 . S
C4747 C4748 1.403 . S
C4748 C4747 1.403 . S
C4748 C4749 1.404 . S
C4748 C4751 1.539 1_556 S
C4749 C4745 1.408 . S
C4749 C4748 1.404 . S
C4749 H4761 0.930 . S
C4750 C4746 1.524 . S
C4750 H4762 0.956 . S
C4750 H4763 0.961 . S
C4750 H4764 0.961 . S
C4751 C4748 1.539 1_554 S
C4751 H4765 0.958 . S
C4751 H4766 0.961 . S
C4751 H4767 0.960 . S
H4752 C4736 0.931 . S
H4753 C4741 0.929 . S
H4754 C4742 0.972 . S
H4755 C4742 0.962 1_556 S
H4756 C4742 0.960 . S
H4757 C4743 0.961 . S
H4758 C4743 0.961 1_556 S
H4759 C4743 0.961 . S
H4760 C4744 0.931 . S
H4761 C4749 0.930 . S
H4762 C4750 0.956 . S
H4763 C4750 0.961 . S
H4764 C4750 0.961 . S
H4765 C4751 0.958 . S
H4766 C4751 0.961 . S
H4767 C4751 0.960 . S
C4768 C4769 1.391 . S
C4768 C4770 1.394 . S
C4768 H4784 0.931 . S
C4769 C4768 1.391 . S
C4769 C4773 1.376 . S
C4770 C4768 1.394 . S
C4770 C4771 1.369 . S
C4770 C4774 1.531 . S
C4771 C4770 1.369 . S
C4771 C4772 1.410 . S
C4771 C4779 1.503 . S
C4772 C4771 1.410 . S
C4772 C4773 1.392 . S
C4772 C4775 1.511 . S
C4773 C4769 1.376 . S
C4773 C4772 1.392 . S
C4773 H4785 0.929 . S
C4774 C4770 1.531 . S
C4774 H4786 0.960 . S
C4774 H4787 0.962 . S
C4774 H4788 0.960 . S
C4775 C4772 1.511 . S
C4775 H4789 0.961 . S
C4775 H4790 0.961 . S
C4775 H4791 0.961 . S
C4776 C4777 1.370 . S
C4776 C4778 1.363 . S
C4776 H4792 0.931 . S
C4777 C4776 1.370 . S
C4777 C4781 1.408 . S
C4778 C4776 1.363 . S
C4778 C4779 1.370 . S
C4778 C4782 1.524 . S
C4779 C4771 1.503 . S
C4779 C4778 1.370 . S
C4779 C4780 1.403 . S
C4780 C4779 1.403 . S
C4780 C4781 1.404 . S
C4780 C4783 1.539 . S
C4781 C4777 1.408 . S
C4781 C4780 1.404 . S
C4781 H4793 0.930 . S
C4782 C4778 1.524 . S
C4782 H4794 0.956 . S
C4782 H4795 0.961 . S
C4782 H4796 0.961 . S
C4783 C4780 1.539 . S
C4783 H4797 0.958 . S
C4783 H4798 0.961 . S
C4783 H4799 0.960 . S
H4784 C4768 0.931 . S
H4785 C4773 0.929 . S
H4786 C4774 0.960 . S
H4787 C4774 0.962 . S
H4788 C4774 0.960 . S
H4789 C4775 0.961 . S
H4790 C4775 0.961 . S
H4791 C4775 0.961 . S
H4792 C4776 0.931 . S
H4793 C4781 0.930 . S
H4794 C4782 0.956 . S
H4795 C4782 0.961 . S
H4796 C4782 0.961 . S
H4797 C4783 0.958 . S
H4798 C4783 0.961 . S
H4799 C4783 0.960 . S
C4800 C4801 1.391 . S
C4800 C4802 1.394 . S
C4800 H4816 0.931 . S
C4801 C4800 1.391 . S
C4801 C4805 1.376 . S
C4802 C4800 1.394 . S
C4802 C4803 1.369 . S
C4802 C4806 1.531 . S
C4803 C4802 1.369 . S
C4803 C4804 1.410 . S
C4803 C4811 1.503 . S
C4804 C4803 1.410 . S
C4804 C4805 1.392 . S
C4804 C4807 1.511 . S
C4805 C4801 1.376 . S
C4805 C4804 1.392 . S
C4805 H4817 0.929 . S
C4806 C4802 1.531 . S
C4806 H4818 0.960 . S
C4806 H4819 0.962 . S
C4806 H4820 0.960 . S
C4807 C4804 1.511 . S
C4807 H4821 0.961 . S
C4807 H4822 0.961 . S
C4807 H4823 0.961 . S
C4808 C4809 1.370 . S
C4808 C4810 1.363 . S
C4808 H4824 0.931 . S
C4809 C4808 1.370 . S
C4809 C4813 1.408 . S
C4810 C4808 1.363 . S
C4810 C4811 1.370 . S
C4810 C4814 1.524 . S
C4811 C4803 1.503 . S
C4811 C4810 1.370 . S
C4811 C4812 1.403 . S
C4812 C4811 1.403 . S
C4812 C4813 1.404 . S
C4812 C4815 1.539 . S
C4813 C4809 1.408 . S
C4813 C4812 1.404 . S
C4813 H4825 0.930 . S
C4814 C4810 1.524 . S
C4814 H4826 0.956 . S
C4814 H4827 0.961 . S
C4814 H4828 0.961 . S
C4815 C4812 1.539 . S
C4815 H4829 0.958 . S
C4815 H4830 0.961 . S
C4815 H4831 0.960 . S
H4816 C4800 0.931 . S
H4817 C4805 0.929 . S
H4818 C4806 0.960 . S
H4819 C4806 0.962 . S
H4820 C4806 0.960 . S
H4821 C4807 0.961 . S
H4822 C4807 0.961 . S
H4823 C4807 0.961 . S
H4824 C4808 0.931 . S
H4825 C4813 0.930 . S
H4826 C4814 0.956 . S
H4827 C4814 0.961 . S
H4828 C4814 0.961 . S
H4829 C4815 0.958 . S
H4830 C4815 0.961 . S
H4831 C4815 0.960 . S
C4832 C4833 1.391 . S
C4832 C4834 1.394 . S
C4832 H4848 0.931 . S
C4833 C4832 1.391 . S
C4833 C4837 1.376 . S
C4834 C4832 1.394 . S
C4834 C4835 1.369 . S
C4834 C4838 1.531 . S
C4835 C4834 1.369 . S
C4835 C4836 1.410 . S
C4835 C4843 1.503 . S
C4836 C4835 1.410 . S
C4836 C4837 1.392 . S
C4836 C4839 1.511 . S
C4837 C4833 1.376 . S
C4837 C4836 1.392 . S
C4837 H4849 0.929 . S
C4838 C4834 1.531 . S
C4838 H4850 0.960 . S
C4838 H4851 0.962 . S
C4838 H4852 0.960 . S
C4839 C4836 1.511 . S
C4839 H4853 0.961 . S
C4839 H4854 0.961 . S
C4839 H4855 0.961 . S
C4840 C4841 1.370 . S
C4840 C4842 1.363 . S
C4840 H4856 0.931 . S
C4841 C4840 1.370 . S
C4841 C4845 1.408 . S
C4842 C4840 1.363 . S
C4842 C4843 1.370 . S
C4842 C4846 1.524 . S
C4843 C4835 1.503 . S
C4843 C4842 1.370 . S
C4843 C4844 1.403 . S
C4844 C4843 1.403 . S
C4844 C4845 1.404 . S
C4844 C4847 1.539 . S
C4845 C4841 1.408 . S
C4845 C4844 1.404 . S
C4845 H4857 0.930 . S
C4846 C4842 1.524 . S
C4846 H4858 0.956 . S
C4846 H4859 0.961 . S
C4846 H4860 0.961 . S
C4847 C4844 1.539 . S
C4847 H4861 0.958 . S
C4847 H4862 0.961 . S
C4847 H4863 0.960 . S
H4848 C4832 0.931 . S
H4849 C4837 0.929 . S
H4850 C4838 0.960 . S
H4851 C4838 0.962 . S
H4852 C4838 0.960 . S
H4853 C4839 0.961 . S
H4854 C4839 0.961 . S
H4855 C4839 0.961 . S
H4856 C4840 0.931 . S
H4857 C4845 0.930 . S
H4858 C4846 0.956 . S
H4859 C4846 0.961 . S
H4860 C4846 0.961 . S
H4861 C4847 0.958 . S
H4862 C4847 0.961 . S
H4863 C4847 0.960 . S
C2817 C57 0.917 . S
C2825 C1193 0.920 . S
C2849 C2220 0.920 . S
C2857 C145 0.919 . S
C2881 C225 0.921 . S
C2889 C1377 0.918 . S
C2913 C313 0.921 . S
C2921 C2132 0.918 . S
C2945 C372 0.912 . S
C2953 C1525 0.918 . S
C2977 C460 0.914 . S
C2985 C1993 0.917 . S
C3009 C557 0.919 . S
C3017 C1692 0.919 . S
C3041 C2785 0.918 . S
C3049 C645 0.920 . S
C3073 C1877 0.916 . S
C3081 C733 0.916 . S
C3105 C812 0.918 . S
C3113 C1633 0.920 . S
C3137 C2053 0.917 . S
C3145 C909 0.916 . S
C3169 C1025 0.915 . S
C3177 C1437 0.917 . S
C3201 C1252 0.913 . S
C3209 C1105 0.919 . S
C3233 C1809 0.919 . S
C3241 C2484 0.920 . S
C3265 C2601 0.914 . S
C3273 C2345 0.917 . S
C3297 C2689 0.913 . S
C3305 C2425 0.919 . S
C3329 C29 1.702 . S
C3337 C117 1.679 . S
C3361 C233 1.717 . S
C3369 C108 1.694 . S
C3393 C284 1.670 . S
C3401 C196 1.697 . S
C3425 C293 1.686 . S
C3433 C49 1.711 . S
C3457 C673 1.678 . S
C3465 C401 1.679 . S
C3489 C497 1.674 . S
C3497 C381 1.705 . S
C3521 C585 1.684 . S
C3529 C489 1.678 . S
C3553 C548 1.677 . S
C3561 C665 1.702 . S
C3585 C821 1.715 . S
C3593 C20 1.693 . S
C3617 C753 1.675 . S
C3625 C321 1.704 . S
C3649 C929 1.713 . S
C3657 C137 1.704 . S
C3681 C2405 1.700 . S
C3689 C636 1.693 . S
C3713 C2493 1.677 . S
C3721 C205 1.705 . S
C3745 C1017 1.688 . S
C3753 C409 1.709 . S
C3777 C577 1.675 . S
C3785 C1113 1.706 . S
C3809 C1261 1.689 . S
C3817 C1201 1.692 . S
C3841 C1349 1.704 . S
C3849 C1289 1.698 . S
C3873 C1428 1.672 . S
C3881 C1369 1.686 . S
C3905 C1164 1.712 . S
C3913 C1457 1.705 . S
C3937 C1516 1.676 . S
C3945 C1817 1.684 . S
C3969 C1553 1.698 . S
C3977 C1613 1.699 . S
C4001 C1701 1.662 . S
C4009 C1641 1.697 . S
C4033 C1721 1.712 . S
C4041 C1789 1.705 . S
C4065 C1173 1.715 . S
C4073 C1965 1.686 . S
C4097 C1897 1.699 . S
C4105 C1465 1.689 . S
C4129 C2073 1.682 . S
C4137 C1281 1.700 . S
C4161 C2669 1.711 . S
C4169 C1780 1.686 . S
C4193 C2757 1.711 . S
C4201 C1340 1.706 . S
C4225 C1545 1.715 . S
C4233 C2161 1.698 . S
C4257 C2249 1.693 . S
C4265 C1729 1.713 . S
C4289 C1076 1.687 . S
C4297 C2317 1.696 . S
C4321 C2433 1.711 . S
C4329 C1085 1.692 . S
C4353 C997 1.683 . S
C4361 C2396 1.678 . S
C4385 C988 1.713 . S
C4393 C2337 1.704 . S
C4417 C761 1.681 . S
C4425 C2513 1.697 . S
C4449 C849 1.676 . S
C4457 C724 1.702 . S
C4481 C937 1.675 . S
C4489 C841 1.697 . S
C4513 C900 1.717 . S
C4521 C2521 1.694 . S
C4545 C2308 1.717 . S
C4553 C469 1.699 . S
C4577 C2229 1.702 . S
C4585 C2609 1.685 . S
C4609 C2257 1.685 . S
C4617 C2660 1.704 . S
C4641 C2697 1.661 . S
C4649 C2141 1.694 . S
C4673 C2169 1.696 . S
C4681 C2572 1.705 . S
C4705 C2777 1.700 . S
C4713 C1868 1.686 . S
C4737 C1905 1.703 . S
C4745 C1956 1.710 . S
C4769 C2044 1.676 . S
C4777 C1985 1.684 . S
C4801 C2081 1.708 . S
C4809 C2748 1.699 . S
C4833 C2581 1.715 . S
C4841 C1604 1.686 . S
