# Generated by pormake.
# Topology vmc, (5)-cn, num edge types: 1
# Building blocks:
#     Node 0, Type 0, BuildingBlock: XOMCOT_clean_sbu_0, # of connection points: 5
#     Node 1, Type 0, BuildingBlock: XOMCOT_clean_sbu_0, # of connection points: 5
#     Node 2, Type 0, BuildingBlock: XOMCOT_clean_sbu_0, # of connection points: 5
#     Node 3, Type 0, BuildingBlock: XOMCOT_clean_sbu_0, # of connection points: 5
#     Node 4, Type 0, BuildingBlock: XOMCOT_clean_sbu_0, # of connection points: 5
#     Node 5, Type 0, BuildingBlock: XOMCOT_clean_sbu_0, # of connection points: 5
#     Node 6, Type 0, BuildingBlock: XOMCOT_clean_sbu_0, # of connection points: 5
#     Node 7, Type 0, BuildingBlock: XOMCOT_clean_sbu_0, # of connection points: 5
#     Edge 8, Type (0, 0), BuildingBlock: OJICUG_clean_linker_0, # of connection points: 2
#     Edge 9, Type (0, 0), BuildingBlock: OJICUG_clean_linker_0, # of connection points: 2
#     Edge 10, Type (0, 0), BuildingBlock: OJICUG_clean_linker_0, # of connection points: 2
#     Edge 11, Type (0, 0), BuildingBlock: OJICUG_clean_linker_0, # of connection points: 2
#     Edge 12, Type (0, 0), BuildingBlock: OJICUG_clean_linker_0, # of connection points: 2
#     Edge 13, Type (0, 0), BuildingBlock: OJICUG_clean_linker_0, # of connection points: 2
#     Edge 14, Type (0, 0), BuildingBlock: OJICUG_clean_linker_0, # of connection points: 2
#     Edge 15, Type (0, 0), BuildingBlock: OJICUG_clean_linker_0, # of connection points: 2
#     Edge 16, Type (0, 0), BuildingBlock: OJICUG_clean_linker_0, # of connection points: 2
#     Edge 17, Type (0, 0), BuildingBlock: OJICUG_clean_linker_0, # of connection points: 2
#     Edge 18, Type (0, 0), BuildingBlock: OJICUG_clean_linker_0, # of connection points: 2
#     Edge 19, Type (0, 0), BuildingBlock: OJICUG_clean_linker_0, # of connection points: 2
#     Edge 20, Type (0, 0), BuildingBlock: OJICUG_clean_linker_0, # of connection points: 2
#     Edge 21, Type (0, 0), BuildingBlock: OJICUG_clean_linker_0, # of connection points: 2
#     Edge 22, Type (0, 0), BuildingBlock: OJICUG_clean_linker_0, # of connection points: 2
#     Edge 23, Type (0, 0), BuildingBlock: OJICUG_clean_linker_0, # of connection points: 2
#     Edge 24, Type (0, 0), BuildingBlock: OJICUG_clean_linker_0, # of connection points: 2
#     Edge 25, Type (0, 0), BuildingBlock: OJICUG_clean_linker_0, # of connection points: 2
#     Edge 26, Type (0, 0), BuildingBlock: OJICUG_clean_linker_0, # of connection points: 2
#     Edge 27, Type (0, 0), BuildingBlock: OJICUG_clean_linker_0, # of connection points: 2
# Relax obj value: 0.325
# Max RMSD: 0.197
# Mean RMSD: 0.197
data_MOF--net-vmc--node1-XOMCOT_clean_sbu_0--edge1-OJICUG_clean_linker_0
_symmetry_space_group_name_H-M    P1
_symmetry_Int_Tables_number       1
_symmetry_cell_setting            triclinic
loop_
_symmetry_equiv_pos_as_xyz
'x, y, z'
_cell_length_a     22.028605
_cell_length_b     36.399681
_cell_length_c     21.711178
_cell_angle_alpha  90.08522
_cell_angle_beta   86.6701
_cell_angle_gamma 89.967434
loop_
_atom_site_label
_atom_site_type_symbol
_atom_site_fract_x
_atom_site_fract_y
_atom_site_fract_z
_atom_type_partial_charge
Co0 Co 0.26265 0.47432 0.0819 0.0
C1 C 0.20996 0.50396 0.9719 0.0
C2 C 0.16464 0.52782 0.05199 0.0
C3 C 0.14153 0.54332 0.99986 0.0
N4 N 0.20729 0.50277 1.03407 0.0
N5 N 0.17064 0.52831 0.94951 0.0
H6 H 0.24189 0.48818 0.94322 0.0
H7 H 0.15283 0.53564 0.09918 0.0
C8 C 0.1635 0.48346 0.19126 0.0
O9 O 0.11483 0.47236 0.16439 0.0
N10 N 0.31888 0.44542 0.12584 0.0
C11 C 0.34527 0.41418 0.10408 0.0
C12 C 0.38978 0.40419 0.142 0.0
C13 C 0.34853 0.45456 0.17601 0.0
N14 N 0.39193 0.42963 0.1869 0.0
C15 C 0.22732 0.41406 1.00698 0.0
C16 C 0.19312 0.36924 0.10559 0.0
C17 C 0.20658 0.35319 0.04779 0.0
C18 C 0.22051 0.37633 0.99738 0.0
C19 C 0.2006 0.40697 0.11327 0.0
N20 N 0.22024 0.42878 0.06487 0.0
H21 H 0.24581 0.43028 0.96905 0.0
H22 H 0.19846 0.41725 0.15981 0.0
H23 H 0.33527 0.40061 0.06159 0.0
H24 H 0.34011 0.47946 0.20236 0.0
O25 O 0.32514 0.47536 1.01447 0.0
O26 O 0.31373 0.51648 0.08938 0.0
O27 O 0.21542 0.48397 0.1621 0.0
C28 C 0.34649 0.504 0.04252 0.0
H29 H 0.10826 0.56519 0.99921 0.0
H30 H 0.42041 0.38109 0.13515 0.0
H31 H 0.18152 0.35245 0.1457 0.0
H32 H 0.23191 0.36512 0.95194 0.0
Co33 Co 0.68474 0.47552 0.48576 0.0
C34 C 0.73424 0.50603 0.59828 0.0
C35 C 0.79006 0.5224 0.5192 0.0
C36 C 0.81432 0.53671 0.57155 0.0
N37 N 0.73996 0.50277 0.53614 0.0
N38 N 0.7792 0.5262 0.62148 0.0
H39 H 0.69692 0.49435 0.62609 0.0
H40 H 0.80784 0.52661 0.47241 0.0
C41 C 0.78464 0.48147 0.37733 0.0
O42 O 0.82785 0.46259 0.40201 0.0
N43 N 0.62873 0.44782 0.43957 0.0
C44 C 0.60026 0.4172 0.46092 0.0
C45 C 0.55881 0.40671 0.42001 0.0
C46 C 0.60336 0.45619 0.38655 0.0
N47 N 0.5607 0.4312 0.37352 0.0
C48 C 0.72265 0.41531 0.55945 0.0
C49 C 0.74753 0.36876 0.46038 0.0
C50 C 0.73833 0.35349 0.51934 0.0
C51 C 0.72878 0.3775 0.56968 0.0
C52 C 0.7407 0.4065 0.45213 0.0
N53 N 0.72605 0.42925 0.50099 0.0
H54 H 0.70856 0.43258 0.59803 0.0
H55 H 0.73918 0.41632 0.40545 0.0
H56 H 0.60762 0.40415 0.50455 0.0
H57 H 0.61468 0.48033 0.35919 0.0
O58 O 0.6215 0.47552 0.55241 0.0
O59 O 0.6341 0.51804 0.48008 0.0
O60 O 0.73342 0.48681 0.40648 0.0
C61 C 0.60063 0.50473 0.52571 0.0
H62 H 0.85483 0.55344 0.57245 0.0
H63 H 0.52758 0.38383 0.42546 0.0
H64 H 0.75564 0.35142 0.42016 0.0
H65 H 0.72091 0.367 0.61609 0.0
Co66 Co 0.68465 0.57363 0.98582 0.0
C67 C 0.73335 0.54256 0.0982 0.0
C68 C 0.791 0.52763 1.01949 0.0
C69 C 0.81522 0.5134 0.07187 0.0
N70 N 0.73974 0.54628 0.03618 0.0
N71 N 0.77896 0.52304 0.12157 0.0
H72 H 0.69534 0.55363 0.12585 0.0
H73 H 0.80982 0.52419 0.97285 0.0
C74 C 0.78461 0.56818 0.87728 0.0
O75 O 0.82734 0.58756 0.90181 0.0
N76 N 0.6288 0.60142 0.93966 0.0
C77 C 0.60021 0.63201 0.9612 0.0
C78 C 0.55882 0.64254 0.92027 0.0
C79 C 0.60355 0.59309 0.88652 0.0
N80 N 0.56086 0.61809 0.8736 0.0
C81 C 0.72275 0.6334 0.06047 0.0
C82 C 0.74738 0.68054 0.96235 0.0
C83 C 0.73882 0.69542 1.02174 0.0
C84 C 0.72909 0.67111 0.0715 0.0
C85 C 0.74029 0.64286 0.95329 0.0
N86 N 0.72588 0.61983 1.00171 0.0
H87 H 0.70905 0.61589 0.09875 0.0
H88 H 0.73818 0.63333 0.90643 0.0
H89 H 0.60744 0.64502 1.00497 0.0
H90 H 0.61496 0.56897 0.85901 0.0
O91 O 0.62121 0.57362 0.05224 0.0
O92 O 0.63401 0.53116 0.97961 0.0
O93 O 0.73362 0.56239 0.90658 0.0
C94 C 0.60042 0.54445 1.02525 0.0
H95 H 0.85663 0.49749 0.073 0.0
H96 H 0.5275 0.6654 0.92586 0.0
H97 H 0.75365 0.69814 0.92231 0.0
H98 H 0.72279 0.68132 0.11831 0.0
Co99 Co 0.26265 0.57486 0.58218 0.0
C100 C 0.21017 0.54509 0.47208 0.0
C101 C 0.16482 0.52129 0.55205 0.0
C102 C 0.14176 0.50577 0.49984 0.0
N103 N 0.20744 0.54632 0.53425 0.0
N104 N 0.17089 0.52075 0.44957 0.0
H105 H 0.24209 0.56085 0.44348 0.0
H106 H 0.15296 0.51352 0.59921 0.0
C107 C 0.16343 0.56579 0.69146 0.0
O108 O 0.11471 0.57677 0.66456 0.0
N109 N 0.31874 0.60386 0.62623 0.0
C110 C 0.34501 0.63509 0.60456 0.0
C111 C 0.38956 0.64511 0.64244 0.0
C112 C 0.34851 0.59473 0.6763 0.0
N113 N 0.39187 0.61968 0.68721 0.0
C114 C 0.22731 0.63497 0.50722 0.0
C115 C 0.19282 0.67997 0.60577 0.0
C116 C 0.20636 0.69591 0.54798 0.0
C117 C 0.22043 0.67268 0.49759 0.0
C118 C 0.20034 0.64225 0.61346 0.0
N119 N 0.22014 0.62036 0.5651 0.0
H120 H 0.24595 0.61871 0.46933 0.0
H121 H 0.19808 0.63204 0.66 0.0
H122 H 0.33493 0.64864 0.56213 0.0
H123 H 0.34023 0.56982 0.70252 0.0
O124 O 0.32523 0.57373 0.51485 0.0
O125 O 0.31384 0.53273 0.58972 0.0
O126 O 0.21536 0.56532 0.66233 0.0
C127 C 0.34661 0.54515 0.54291 0.0
H128 H 0.10849 0.48393 0.49909 0.0
H129 H 0.42013 0.66821 0.63563 0.0
H130 H 0.18113 0.69685 0.64586 0.0
H131 H 0.2319 0.68381 0.45217 0.0
Co132 Co 0.76357 0.97543 0.08448 0.0
C133 C 0.71481 1.00649 0.97213 0.0
C134 C 0.65729 1.02151 0.05088 0.0
C135 C 0.63305 0.03574 0.99851 0.0
N136 N 0.70848 1.0028 1.03415 0.0
N137 N 0.66923 0.02604 0.94879 0.0
H138 H 0.75278 0.99538 0.94445 0.0
H139 H 0.63855 0.025 0.09753 0.0
C140 C 0.66363 0.9809 0.19302 0.0
O141 O 0.62086 0.96156 0.16848 0.0
N142 N 0.81944 0.94762 0.1306 0.0
C143 C 0.848 0.91703 0.10903 0.0
C144 C 0.88943 0.90649 0.1499 0.0
C145 C 0.84474 0.95594 0.18371 0.0
N146 N 0.88744 0.93094 0.19658 0.0
C147 C 0.72548 0.91566 1.00982 0.0
C148 C 0.70081 0.86853 0.10794 0.0
C149 C 0.70938 0.85364 0.04856 0.0
C150 C 0.71913 0.87795 0.99879 0.0
C151 C 0.7079 0.90621 0.117 0.0
N152 N 0.72233 0.92924 0.06858 0.0
H153 H 0.7392 0.93317 0.97154 0.0
H154 H 0.70999 0.91574 0.16386 0.0
H155 H 0.84073 0.90403 0.06526 0.0
H156 H 0.83337 0.98007 0.21123 0.0
O157 O 0.827 0.97546 1.01804 0.0
O158 O 0.81422 1.0179 0.09071 0.0
O159 O 0.71463 0.98665 0.16373 0.0
C160 C 0.8478 1.00462 0.04505 0.0
H161 H 0.59169 0.0517 0.9974 0.0
H162 H 0.92075 0.88363 0.14428 0.0
H163 H 0.69452 0.85093 0.14798 0.0
H164 H 0.72545 0.86774 0.95198 0.0
Co165 Co 0.18568 0.97417 0.48798 0.0
C166 C 0.23788 1.00407 0.59815 0.0
C167 C 0.28383 0.02751 0.51819 0.0
C168 C 0.30687 0.04304 0.57042 0.0
N169 N 0.24083 1.00272 0.53598 0.0
N170 N 0.27737 0.02828 0.62067 0.0
H171 H 0.20573 0.98846 0.62673 0.0
H172 H 0.29603 0.03512 0.47104 0.0
C173 C 0.28491 0.98313 0.37865 0.0
O174 O 0.33356 0.97192 0.40542 0.0
N175 N 0.12966 0.94516 0.44387 0.0
C176 C 0.1034 0.91392 0.46552 0.0
C177 C 0.05887 0.9039 0.42761 0.0
C178 C 0.09992 0.95428 0.39378 0.0
N179 N 0.05657 0.92933 0.38283 0.0
C180 C 0.22118 0.91412 0.56299 0.0
C181 C 0.25542 0.86904 0.46447 0.0
C182 C 0.24193 0.85315 0.52231 0.0
C183 C 0.22801 0.87642 0.57268 0.0
C184 C 0.24792 0.90676 0.45672 0.0
N185 N 0.22822 0.92868 0.50507 0.0
H186 H 0.20269 0.93044 0.60089 0.0
H187 H 0.25006 0.91693 0.41016 0.0
H188 H 0.11346 0.90038 0.50795 0.0
H189 H 0.1082 0.97919 0.36756 0.0
O190 O 0.12305 0.97525 0.55527 0.0
O191 O 0.13444 1.01628 0.48045 0.0
O192 O 0.23302 0.98374 0.40786 0.0
C193 C 0.10165 1.00383 0.52723 0.0
H194 H 0.34044 0.06471 0.57118 0.0
H195 H 0.02831 0.8808 0.4344 0.0
H196 H 0.26701 0.85214 0.4244 0.0
H197 H 0.21661 0.86533 0.61814 0.0
Co198 Co 0.18554 0.07475 0.98841 0.0
C199 C 0.23846 0.04514 0.09829 0.0
C200 C 0.28324 1.02101 1.01814 0.0
C201 C 0.30637 1.00547 0.07024 0.0
N202 N 0.24094 0.04625 0.03612 0.0
N203 N 0.27759 1.02066 0.12063 0.0
H204 H 0.20674 0.06104 0.12701 0.0
H205 H 0.29476 1.01306 0.97096 0.0
C206 C 0.28461 0.06549 0.87902 0.0
O207 O 0.33339 0.07628 0.90603 0.0
N208 N 0.12926 0.10369 0.9446 0.0
C209 C 0.10296 0.13495 0.9664 0.0
C210 C 0.05832 0.14494 0.92863 0.0
C211 C 0.09941 0.09453 0.89457 0.0
N212 N 0.05598 0.11947 0.88379 0.0
C213 C 0.22085 0.13501 0.06333 0.0
C214 C 0.25533 0.17977 0.96473 0.0
C215 C 0.24182 0.19585 1.0225 0.0
C216 C 0.22775 0.17274 0.07292 0.0
C217 C 0.24778 0.14205 0.95708 0.0
N218 N 0.228 0.12027 1.00547 0.0
H219 H 0.20221 0.11884 0.10125 0.0
H220 H 0.25 0.13176 0.91055 0.0
H221 H 0.1131 0.14854 1.00883 0.0
H222 H 0.1077 0.06961 0.86825 0.0
O223 O 0.12311 0.07366 0.05591 0.0
O224 O 0.13444 0.0326 0.9809 0.0
O225 O 0.23266 0.06515 0.90813 0.0
C226 C 0.10174 0.04505 1.02782 0.0
H227 H 0.33937 0.98345 0.07086 0.0
H228 H 0.02773 0.16805 0.93554 0.0
H229 H 0.26703 0.19655 0.92462 0.0
H230 H 0.2163 0.18398 0.11833 0.0
Co231 Co 0.7635 0.07348 0.58463 0.0
C232 C 0.71407 0.04297 0.47207 0.0
C233 C 0.65815 0.02665 0.55112 0.0
C234 C 0.63391 1.01235 0.49876 0.0
N235 N 0.70831 0.04623 0.53421 0.0
N236 N 0.66908 1.02283 0.44885 0.0
H237 H 0.75142 0.05463 0.44428 0.0
H238 H 0.64032 1.02246 0.5979 0.0
C239 C 0.66355 0.06755 0.69301 0.0
O240 O 0.62039 0.08647 0.66832 0.0
N241 N 0.81947 0.10117 0.63089 0.0
C242 C 0.84798 0.13178 0.60959 0.0
C243 C 0.88928 0.14231 0.65064 0.0
C244 C 0.84466 0.09283 0.68402 0.0
N245 N 0.88724 0.11784 0.69716 0.0
C246 C 0.72561 0.13369 0.51095 0.0
C247 C 0.70075 0.18025 0.61002 0.0
C248 C 0.70995 0.19552 0.55105 0.0
C249 C 0.71949 0.1715 0.50072 0.0
C250 C 0.70756 0.14251 0.61827 0.0
N251 N 0.7222 0.11975 0.56941 0.0
H252 H 0.73968 0.11642 0.47237 0.0
H253 H 0.70908 0.13269 0.66495 0.0
H254 H 0.84073 0.14482 0.56592 0.0
H255 H 0.83324 0.06871 0.71139 0.0
O256 O 0.82676 0.07351 0.51802 0.0
O257 O 0.81416 0.03096 0.5903 0.0
O258 O 0.71477 0.06217 0.66389 0.0
C259 C 0.84763 0.04429 0.5447 0.0
H260 H 0.59335 0.99566 0.49783 0.0
H261 H 0.9205 0.16519 0.64526 0.0
H262 H 0.69264 0.19759 0.65024 0.0
H263 H 0.72737 0.182 0.4543 0.0
C264 C 0.11083 0.56146 0.79902 0.0
C265 C 0.16182 0.55557 0.75799 0.0
H266 H 0.0735 0.55738 0.8928 0.0
C267 C 0.21471 0.54078 0.78155 0.0
H268 H 0.06943 0.57294 0.78254 0.0
C269 C 0.21734 0.53259 0.84379 0.0
C270 C 0.16682 0.53817 0.88522 0.0
H271 H 0.25503 0.5356 0.7519 0.0
H272 H 0.25988 0.52229 0.8593 0.0
C273 C 0.11336 0.55286 0.8622 0.0
C274 C 0.82293 0.56451 0.70387 0.0
C275 C 0.78633 0.53493 0.68603 0.0
H276 H 0.85207 0.59805 0.77847 0.0
C277 C 0.75497 0.51453 0.73283 0.0
H278 H 0.8479 0.58094 0.66957 0.0
C279 C 0.75696 0.52459 0.79476 0.0
C280 C 0.79122 0.555 0.81237 0.0
H281 H 0.72791 0.49089 0.72195 0.0
H282 H 0.73045 0.50884 0.82903 0.0
C283 C 0.82556 0.57432 0.76643 0.0
C284 C 0.82629 0.47564 0.26659 0.0
C285 C 0.79102 0.49457 0.31243 0.0
H286 H 0.84935 0.46921 0.16975 0.0
C287 C 0.75572 0.5245 0.29474 0.0
H288 H 0.85363 0.45228 0.27869 0.0
C289 C 0.75365 0.53446 0.23283 0.0
C290 C 0.78601 0.51442 0.18612 0.0
H291 H 0.72849 0.53997 0.32893 0.0
H292 H 0.72579 0.55774 0.22189 0.0
C293 C 0.8236 0.48534 0.20403 0.0
C294 C 0.11104 0.48762 0.29893 0.0
C295 C 0.1619 0.49366 0.25785 0.0
H296 H 0.07385 0.49151 0.39281 0.0
C297 C 0.21471 0.50856 0.28141 0.0
H298 H 0.0697 0.47605 0.28245 0.0
C299 C 0.2174 0.51668 0.34371 0.0
C300 C 0.16702 0.51094 0.3852 0.0
H301 H 0.25492 0.51387 0.25173 0.0
H302 H 0.25991 0.52705 0.35919 0.0
C303 C 0.11362 0.49615 0.36218 0.0
C304 C 0.62467 0.06378 0.86633 0.0
C305 C 0.66214 0.03464 0.88424 0.0
H306 H 0.59475 0.09687 0.79166 0.0
C307 C 0.69436 1.01453 0.83752 0.0
H308 H 0.59904 0.07996 0.90061 0.0
C309 C 0.69228 1.02447 0.7756 0.0
C310 C 0.65712 0.05446 0.75791 0.0
H311 H 0.72212 0.9912 0.84846 0.0
H312 H 0.71942 1.00894 0.74141 0.0
C313 C 0.62198 0.07347 0.80376 0.0
C314 C 0.33729 0.06107 0.77147 0.0
C315 C 0.28617 0.05539 0.81238 0.0
H316 H 0.37473 0.05687 0.67771 0.0
C317 C 0.23315 0.04091 0.78862 0.0
H318 H 0.3788 0.07231 0.7881 0.0
C319 C 0.23052 0.03281 0.72631 0.0
C320 C 0.28117 0.03814 0.68501 0.0
H321 H 0.19273 0.03589 0.81817 0.0
H322 H 0.18788 1.02275 0.71067 0.0
C323 C 0.33476 0.05255 0.70821 0.0
C324 C 0.3348 0.9959 0.20783 0.0
C325 C 0.28144 1.01081 0.18492 0.0
H326 H 0.37868 0.97565 0.2874 0.0
C327 C 0.23107 1.01659 0.22645 0.0
H328 H 0.37455 0.99122 0.17715 0.0
C329 C 0.23373 1.0084 0.28869 0.0
C330 C 0.28651 0.99339 0.31214 0.0
H331 H 0.1886 0.02705 0.21103 0.0
H332 H 0.19352 1.01373 0.31841 0.0
C333 C 0.33736 0.9873 0.27101 0.0
C334 C 0.6934 0.03449 0.33751 0.0
C335 C 0.66195 1.01411 0.38429 0.0
H336 H 0.71796 0.04017 0.24132 0.0
C337 C 0.62528 0.98458 0.36643 0.0
H338 H 0.72052 0.0581 0.3484 0.0
C339 C 0.62264 0.97478 0.30386 0.0
C340 C 0.65705 0.99407 0.25795 0.0
H341 H 0.60025 0.96816 0.40072 0.0
H342 H 0.59606 0.95108 0.29181 0.0
C343 C 0.6914 1.02443 0.27557 0.0
C344 C 0.45325 0.49464 0.99901 0.0
C345 C 0.41061 0.51599 1.03363 0.0
H346 H 0.54691 0.48608 0.97119 0.0
C347 C 0.4315 0.54573 0.06825 0.0
H348 H 0.43889 0.4711 0.97299 0.0
C349 C 0.49354 0.55394 0.06831 0.0
C350 C 0.53619 0.53257 1.03375 0.0
H351 H 0.39989 0.56247 0.09619 0.0
H352 H 0.50789 0.57746 0.09439 0.0
C353 C 0.5153 0.50284 0.99909 0.0
C354 C 0.49374 0.49521 0.56865 0.0
C355 C 0.53639 0.51662 0.53433 0.0
H356 H 0.40006 0.48664 0.59629 0.0
C357 C 0.51548 0.54639 0.4999 0.0
H358 H 0.50811 0.47165 0.59455 0.0
C359 C 0.45341 0.55457 0.49974 0.0
C360 C 0.41078 0.53317 0.53409 0.0
H361 H 0.54708 0.56319 0.47219 0.0
H362 H 0.43904 0.57814 0.47388 0.0
C363 C 0.43168 0.50341 0.56854 0.0
C364 C -0.00502 0.0544 0.07134 0.0
C365 C 0.03762 0.03306 0.03673 0.0
H366 H 0.90132 0.06298 0.09914 0.0
C367 C 0.01672 1.00332 1.00209 0.0
H368 H 0.00935 0.07794 0.09736 0.0
C369 C 0.95468 0.99512 1.00201 0.0
C370 C 0.91203 1.01649 0.03656 0.0
H371 H 0.04833 0.98658 0.97415 0.0
H372 H 0.94033 0.9716 0.97592 0.0
C373 C 0.93292 0.04622 0.07124 0.0
C374 C 0.95448 0.05376 0.50158 0.0
C375 C 0.91187 0.03239 0.53602 0.0
H376 H 0.04813 0.06229 0.47377 0.0
C377 C 0.93282 1.00264 0.57048 0.0
H378 H 0.94008 0.0773 0.47565 0.0
C379 C -0.00511 0.99445 0.57054 0.0
C380 C 0.03749 1.01581 0.53608 0.0
H381 H 0.90125 0.98587 0.59828 0.0
H382 H 0.00929 0.9709 0.59643 0.0
C383 C 0.01654 0.04555 0.5016 0.0
C384 C 0.19474 0.29396 0.98995 0.0
C385 C 0.214 0.31272 0.04184 0.0
H386 H 0.18787 0.24242 0.94355 0.0
C387 C 0.24379 0.29285 0.08685 0.0
H388 H 0.17141 0.3084 0.95469 0.0
C389 C 0.25374 0.25509 0.0803 0.0
C390 C 0.23447 0.23632 1.02841 0.0
H391 H 0.26062 0.30662 0.1267 0.0
H392 H 0.27706 0.24065 0.11556 0.0
C393 C 0.2047 0.25619 0.98339 0.0
C394 C 0.75547 0.29494 0.57786 0.0
C395 C 0.73215 0.31291 0.52714 0.0
H396 H 0.76762 0.24401 0.62458 0.0
C397 C 0.70056 0.29198 0.48468 0.0
H398 H 0.78041 0.31009 0.61112 0.0
C399 C 0.69282 0.25407 0.49253 0.0
C400 C 0.71614 0.23609 0.54325 0.0
H401 H 0.68067 0.30499 0.44581 0.0
H402 H 0.66788 0.23892 0.45927 0.0
C403 C 0.74773 0.25703 0.58571 0.0
C404 C 0.76164 0.79838 0.99993 0.0
C405 C 0.71533 0.81308 0.04007 0.0
H406 H 0.80659 0.75004 0.96396 0.0
C407 C 0.67795 0.78871 0.07526 0.0
H408 H 0.79228 0.81628 0.97322 0.0
C409 C 0.68658 0.75069 0.07038 0.0
C410 C 0.73288 0.73598 1.03023 0.0
H411 H 0.64162 0.79903 0.10634 0.0
H412 H 0.65593 0.73278 0.09708 0.0
C413 C 0.77026 0.76035 0.99504 0.0
C414 C 0.25363 0.79404 0.58031 0.0
C415 C 0.23445 0.8127 0.52835 0.0
H416 H 0.26033 0.74262 0.62688 0.0
C417 C 0.20464 0.79275 0.48338 0.0
H418 H 0.27698 0.80854 0.61555 0.0
C419 C 0.19458 0.75502 0.49005 0.0
C420 C 0.21377 0.73636 0.542 0.0
H421 H 0.18787 0.80644 0.44349 0.0
H422 H 0.17124 0.74052 0.4548 0.0
C423 C 0.24356 0.75631 0.58698 0.0
C424 C 0.49907 0.4646 0.30084 0.0
C425 C 0.52094 0.43142 0.32383 0.0
H426 H 0.43984 0.49003 0.23868 0.0
C427 C 0.50038 0.39799 0.30069 0.0
H428 H 0.51393 0.4907 0.3186 0.0
C429 C 0.45778 0.39758 0.25614 0.0
C430 C 0.43503 0.4306 0.23365 0.0
H431 H 0.51704 0.37208 0.31744 0.0
H432 H 0.44195 0.37134 0.2399 0.0
C433 C 0.45611 0.4642 0.25607 0.0
C434 C 0.45629 0.58511 0.75603 0.0
C435 C 0.4351 0.6187 0.73384 0.0
H436 H 0.51423 0.5586 0.81836 0.0
C437 C 0.45783 0.65173 0.75644 0.0
H438 H 0.44004 0.55927 0.73855 0.0
C439 C 0.50049 0.65131 0.80093 0.0
C440 C 0.52113 0.61788 0.82389 0.0
H441 H 0.44192 0.67796 0.74036 0.0
H442 H 0.51712 0.67721 0.8178 0.0
C443 C 0.49931 0.5847 0.80074 0.0
C444 C -0.00939 0.89729 0.31361 0.0
C445 C 0.01334 0.93031 0.33622 0.0
H446 H 0.93127 0.87181 0.25229 0.0
C447 C -0.00788 0.96391 0.31406 0.0
H448 H 0.00653 0.87105 0.32966 0.0
C449 C 0.94907 0.96432 0.26939 0.0
C450 C 0.92724 0.93114 0.24624 0.0
H451 H 0.00838 0.98974 0.33155 0.0
H452 H 0.93412 0.99042 0.2518 0.0
C453 C 0.94791 0.89771 0.26916 0.0
C454 C -0.00831 0.08488 0.81476 0.0
C455 C 0.01275 0.11849 0.83717 0.0
H456 H 0.93394 0.05836 0.75219 0.0
C457 C -0.01007 0.1515 0.81472 0.0
H458 H 0.00801 0.05906 0.83212 0.0
C459 C 0.94734 0.15108 0.77016 0.0
C460 C 0.92687 0.11764 0.74697 0.0
H461 H 0.00573 0.17775 0.83096 0.0
H462 H 0.93066 0.17697 0.7534 0.0
C463 C 0.94875 0.08446 0.76998 0.0
loop_
_geom_bond_atom_site_label_1
_geom_bond_atom_site_label_2
_geom_bond_distance
_geom_bond_site_symmetry_2
_ccdc_geom_bond_type
Co0 N4 2.148 . S
Co0 N10 2.128 . S
Co0 N20 2.194 . S
Co0 O25 2.351 1_554 S
Co0 O26 2.155 . S
Co0 O27 2.096 . S
C1 N4 1.301 1_556 S
C1 N5 1.328 . S
C1 H6 0.930 . S
C2 C3 1.333 1_554 S
C2 N4 1.317 . S
C2 H7 0.930 . S
C3 C2 1.333 1_556 S
C3 N5 1.350 . S
C3 H29 0.931 . S
N4 Co0 2.148 . S
N4 C1 1.301 1_554 S
N4 C2 1.317 . S
N5 C1 1.328 . S
N5 C3 1.350 . S
H6 C1 0.930 . S
H7 C2 0.930 . S
C8 O9 1.224 . S
C8 O27 1.247 . S
O9 C8 1.224 . S
N10 Co0 2.128 . S
N10 C11 1.355 . S
N10 C13 1.311 . S
C11 N10 1.355 . S
C11 C12 1.363 . S
C11 H23 0.929 . S
C12 C11 1.363 . S
C12 N14 1.375 . S
C12 H30 0.931 . S
C13 N10 1.311 . S
C13 N14 1.347 . S
C13 H24 0.929 . S
N14 C12 1.375 . S
N14 C13 1.347 . S
C15 C18 1.365 . S
C15 N20 1.328 1_556 S
C15 H21 0.929 . S
C16 C17 1.362 . S
C16 C19 1.378 . S
C16 H31 0.929 . S
C17 C16 1.362 . S
C17 C18 1.366 1_554 S
C18 C15 1.365 . S
C18 C17 1.366 1_556 S
C18 H32 0.930 . S
C19 C16 1.378 . S
C19 N20 1.315 . S
C19 H22 0.930 . S
N20 Co0 2.194 . S
N20 C15 1.328 1_554 S
N20 C19 1.315 . S
H21 C15 0.929 . S
H22 C19 0.930 . S
H23 C11 0.929 . S
H24 C13 0.929 . S
O25 Co0 2.351 1_556 S
O25 C28 1.244 1_556 S
O26 Co0 2.155 . S
O26 C28 1.240 . S
O27 Co0 2.096 . S
O27 C8 1.247 . S
C28 O25 1.244 1_554 S
C28 O26 1.240 . S
H29 C3 0.931 . S
H30 C12 0.931 . S
H31 C16 0.929 . S
H32 C18 0.930 . S
Co33 N37 2.148 . S
Co33 N43 2.128 . S
Co33 N53 2.194 . S
Co33 O58 2.351 . S
Co33 O59 2.155 . S
Co33 O60 2.096 . S
C34 N37 1.301 . S
C34 N38 1.328 . S
C34 H39 0.930 . S
C35 C36 1.333 . S
C35 N37 1.317 . S
C35 H40 0.930 . S
C36 C35 1.333 . S
C36 N38 1.350 . S
C36 H62 0.931 . S
N37 Co33 2.148 . S
N37 C34 1.301 . S
N37 C35 1.317 . S
N38 C34 1.328 . S
N38 C36 1.350 . S
H39 C34 0.930 . S
H40 C35 0.930 . S
C41 O42 1.224 . S
C41 O60 1.247 . S
O42 C41 1.224 . S
N43 Co33 2.128 . S
N43 C44 1.355 . S
N43 C46 1.311 . S
C44 N43 1.355 . S
C44 C45 1.363 . S
C44 H56 0.929 . S
C45 C44 1.363 . S
C45 N47 1.375 . S
C45 H63 0.931 . S
C46 N43 1.311 . S
C46 N47 1.347 . S
C46 H57 0.929 . S
N47 C45 1.375 . S
N47 C46 1.347 . S
C48 C51 1.365 . S
C48 N53 1.328 . S
C48 H54 0.929 . S
C49 C50 1.362 . S
C49 C52 1.378 . S
C49 H64 0.929 . S
C50 C49 1.362 . S
C50 C51 1.366 . S
C51 C48 1.365 . S
C51 C50 1.366 . S
C51 H65 0.930 . S
C52 C49 1.378 . S
C52 N53 1.315 . S
C52 H55 0.930 . S
N53 Co33 2.194 . S
N53 C48 1.328 . S
N53 C52 1.315 . S
H54 C48 0.929 . S
H55 C52 0.930 . S
H56 C44 0.929 . S
H57 C46 0.929 . S
O58 Co33 2.351 . S
O58 C61 1.244 . S
O59 Co33 2.155 . S
O59 C61 1.240 . S
O60 Co33 2.096 . S
O60 C41 1.247 . S
C61 O58 1.244 . S
C61 O59 1.240 . S
H62 C36 0.931 . S
H63 C45 0.931 . S
H64 C49 0.929 . S
H65 C51 0.930 . S
Co66 N70 2.148 . S
Co66 N76 2.128 . S
Co66 N86 2.194 . S
Co66 O91 2.351 1_556 S
Co66 O92 2.155 . S
Co66 O93 2.096 . S
C67 N70 1.301 1_554 S
C67 N71 1.328 . S
C67 H72 0.930 . S
C68 C69 1.333 1_556 S
C68 N70 1.317 . S
C68 H73 0.930 . S
C69 C68 1.333 1_554 S
C69 N71 1.350 . S
C69 H95 0.931 . S
N70 Co66 2.148 . S
N70 C67 1.301 1_556 S
N70 C68 1.317 . S
N71 C67 1.328 . S
N71 C69 1.350 . S
H72 C67 0.930 . S
H73 C68 0.930 . S
C74 O75 1.224 . S
C74 O93 1.247 . S
O75 C74 1.224 . S
N76 Co66 2.128 . S
N76 C77 1.355 . S
N76 C79 1.311 . S
C77 N76 1.355 . S
C77 C78 1.363 . S
C77 H89 0.929 . S
C78 C77 1.363 . S
C78 N80 1.375 . S
C78 H96 0.931 . S
C79 N76 1.311 . S
C79 N80 1.347 . S
C79 H90 0.929 . S
N80 C78 1.375 . S
N80 C79 1.347 . S
C81 C84 1.365 . S
C81 N86 1.328 1_554 S
C81 H87 0.929 . S
C82 C83 1.362 . S
C82 C85 1.378 . S
C82 H97 0.929 . S
C83 C82 1.362 . S
C83 C84 1.366 1_556 S
C84 C81 1.365 . S
C84 C83 1.366 1_554 S
C84 H98 0.930 . S
C85 C82 1.378 . S
C85 N86 1.315 . S
C85 H88 0.930 . S
N86 Co66 2.194 . S
N86 C81 1.328 1_556 S
N86 C85 1.315 . S
H87 C81 0.929 . S
H88 C85 0.930 . S
H89 C77 0.929 . S
H90 C79 0.929 . S
O91 Co66 2.351 1_554 S
O91 C94 1.244 1_554 S
O92 Co66 2.155 . S
O92 C94 1.240 . S
O93 Co66 2.096 . S
O93 C74 1.247 . S
C94 O91 1.244 1_556 S
C94 O92 1.240 . S
H95 C69 0.931 . S
H96 C78 0.931 . S
H97 C82 0.929 . S
H98 C84 0.930 . S
Co99 N103 2.148 . S
Co99 N109 2.128 . S
Co99 N119 2.194 . S
Co99 O124 2.351 . S
Co99 O125 2.155 . S
Co99 O126 2.096 . S
C100 N103 1.301 . S
C100 N104 1.328 . S
C100 H105 0.930 . S
C101 C102 1.333 . S
C101 N103 1.317 . S
C101 H106 0.930 . S
C102 C101 1.333 . S
C102 N104 1.350 . S
C102 H128 0.931 . S
N103 Co99 2.148 . S
N103 C100 1.301 . S
N103 C101 1.317 . S
N104 C100 1.328 . S
N104 C102 1.350 . S
H105 C100 0.930 . S
H106 C101 0.930 . S
C107 O108 1.224 . S
C107 O126 1.247 . S
O108 C107 1.224 . S
N109 Co99 2.128 . S
N109 C110 1.355 . S
N109 C112 1.311 . S
C110 N109 1.355 . S
C110 C111 1.363 . S
C110 H122 0.929 . S
C111 C110 1.363 . S
C111 N113 1.375 . S
C111 H129 0.931 . S
C112 N109 1.311 . S
C112 N113 1.347 . S
C112 H123 0.929 . S
N113 C111 1.375 . S
N113 C112 1.347 . S
C114 C117 1.365 . S
C114 N119 1.328 . S
C114 H120 0.929 . S
C115 C116 1.362 . S
C115 C118 1.378 . S
C115 H130 0.929 . S
C116 C115 1.362 . S
C116 C117 1.366 . S
C117 C114 1.365 . S
C117 C116 1.366 . S
C117 H131 0.930 . S
C118 C115 1.378 . S
C118 N119 1.315 . S
C118 H121 0.930 . S
N119 Co99 2.194 . S
N119 C114 1.328 . S
N119 C118 1.315 . S
H120 C114 0.929 . S
H121 C118 0.930 . S
H122 C110 0.929 . S
H123 C112 0.929 . S
O124 Co99 2.351 . S
O124 C127 1.244 . S
O125 Co99 2.155 . S
O125 C127 1.240 . S
O126 Co99 2.096 . S
O126 C107 1.247 . S
C127 O124 1.244 . S
C127 O125 1.240 . S
H128 C102 0.931 . S
H129 C111 0.931 . S
H130 C115 0.929 . S
H131 C117 0.930 . S
Co132 N136 2.148 . S
Co132 N142 2.128 . S
Co132 N152 2.194 . S
Co132 O157 2.351 1_554 S
Co132 O158 2.155 . S
Co132 O159 2.096 . S
C133 N136 1.301 1_556 S
C133 N137 1.328 . S
C133 H138 0.930 . S
C134 C135 1.333 1_554 S
C134 N136 1.317 . S
C134 H139 0.930 . S
C135 C134 1.333 1_556 S
C135 N137 1.350 . S
C135 H161 0.931 1_565 S
N136 Co132 2.148 . S
N136 C133 1.301 1_554 S
N136 C134 1.317 . S
N137 C133 1.328 . S
N137 C135 1.350 . S
H138 C133 0.930 . S
H139 C134 0.930 . S
C140 O141 1.224 . S
C140 O159 1.247 . S
O141 C140 1.224 . S
N142 Co132 2.128 . S
N142 C143 1.355 . S
N142 C145 1.311 . S
C143 N142 1.355 . S
C143 C144 1.363 . S
C143 H155 0.929 . S
C144 C143 1.363 . S
C144 N146 1.375 . S
C144 H162 0.931 . S
C145 N142 1.311 . S
C145 N146 1.347 . S
C145 H156 0.929 . S
N146 C144 1.375 . S
N146 C145 1.347 . S
C147 C150 1.365 . S
C147 N152 1.328 1_556 S
C147 H153 0.929 . S
C148 C149 1.362 . S
C148 C151 1.378 . S
C148 H163 0.929 . S
C149 C148 1.362 . S
C149 C150 1.366 1_554 S
C150 C147 1.365 . S
C150 C149 1.366 1_556 S
C150 H164 0.930 . S
C151 C148 1.378 . S
C151 N152 1.315 . S
C151 H154 0.930 . S
N152 Co132 2.194 . S
N152 C147 1.328 1_554 S
N152 C151 1.315 . S
H153 C147 0.929 . S
H154 C151 0.930 . S
H155 C143 0.929 . S
H156 C145 0.929 . S
O157 Co132 2.351 1_556 S
O157 C160 1.244 1_556 S
O158 Co132 2.155 . S
O158 C160 1.240 . S
O159 Co132 2.096 . S
O159 C140 1.247 . S
C160 O157 1.244 1_554 S
C160 O158 1.240 . S
H161 C135 0.931 1_545 S
H162 C144 0.931 . S
H163 C148 0.929 . S
H164 C150 0.930 . S
Co165 N169 2.148 . S
Co165 N175 2.128 . S
Co165 N185 2.194 . S
Co165 O190 2.351 . S
Co165 O191 2.155 . S
Co165 O192 2.096 . S
C166 N169 1.301 . S
C166 N170 1.328 . S
C166 H171 0.930 . S
C167 C168 1.333 . S
C167 N169 1.317 . S
C167 H172 0.930 . S
C168 C167 1.333 . S
C168 N170 1.350 . S
C168 H194 0.931 1_565 S
N169 Co165 2.148 . S
N169 C166 1.301 . S
N169 C167 1.317 . S
N170 C166 1.328 . S
N170 C168 1.350 . S
H171 C166 0.930 . S
H172 C167 0.930 . S
C173 O174 1.224 . S
C173 O192 1.247 . S
O174 C173 1.224 . S
N175 Co165 2.128 . S
N175 C176 1.355 . S
N175 C178 1.311 . S
C176 N175 1.355 . S
C176 C177 1.363 . S
C176 H188 0.929 . S
C177 C176 1.363 . S
C177 N179 1.375 . S
C177 H195 0.931 . S
C178 N175 1.311 . S
C178 N179 1.347 . S
C178 H189 0.929 . S
N179 C177 1.375 . S
N179 C178 1.347 . S
C180 C183 1.365 . S
C180 N185 1.328 . S
C180 H186 0.929 . S
C181 C182 1.362 . S
C181 C184 1.378 . S
C181 H196 0.929 . S
C182 C181 1.362 . S
C182 C183 1.366 . S
C183 C180 1.365 . S
C183 C182 1.366 . S
C183 H197 0.930 . S
C184 C181 1.378 . S
C184 N185 1.315 . S
C184 H187 0.930 . S
N185 Co165 2.194 . S
N185 C180 1.328 . S
N185 C184 1.315 . S
H186 C180 0.929 . S
H187 C184 0.930 . S
H188 C176 0.929 . S
H189 C178 0.929 . S
O190 Co165 2.351 . S
O190 C193 1.244 . S
O191 Co165 2.155 . S
O191 C193 1.240 . S
O192 Co165 2.096 . S
O192 C173 1.247 . S
C193 O190 1.244 . S
C193 O191 1.240 . S
H194 C168 0.931 1_545 S
H195 C177 0.931 . S
H196 C181 0.929 . S
H197 C183 0.930 . S
Co198 N202 2.148 . S
Co198 N208 2.128 . S
Co198 N218 2.194 . S
Co198 O223 2.351 1_556 S
Co198 O224 2.155 . S
Co198 O225 2.096 . S
C199 N202 1.301 1_554 S
C199 N203 1.328 . S
C199 H204 0.930 . S
C200 C201 1.333 1_556 S
C200 N202 1.317 . S
C200 H205 0.930 . S
C201 C200 1.333 1_554 S
C201 N203 1.350 . S
C201 H227 0.931 1_545 S
N202 Co198 2.148 . S
N202 C199 1.301 1_556 S
N202 C200 1.317 . S
N203 C199 1.328 . S
N203 C201 1.350 . S
H204 C199 0.930 . S
H205 C200 0.930 . S
C206 O207 1.224 . S
C206 O225 1.247 . S
O207 C206 1.224 . S
N208 Co198 2.128 . S
N208 C209 1.355 . S
N208 C211 1.311 . S
C209 N208 1.355 . S
C209 C210 1.363 . S
C209 H221 0.929 . S
C210 C209 1.363 . S
C210 N212 1.375 . S
C210 H228 0.931 . S
C211 N208 1.311 . S
C211 N212 1.347 . S
C211 H222 0.929 . S
N212 C210 1.375 . S
N212 C211 1.347 . S
C213 C216 1.365 . S
C213 N218 1.328 1_554 S
C213 H219 0.929 . S
C214 C215 1.362 . S
C214 C217 1.378 . S
C214 H229 0.929 . S
C215 C214 1.362 . S
C215 C216 1.366 1_556 S
C216 C213 1.365 . S
C216 C215 1.366 1_554 S
C216 H230 0.930 . S
C217 C214 1.378 . S
C217 N218 1.315 . S
C217 H220 0.930 . S
N218 Co198 2.194 . S
N218 C213 1.328 1_556 S
N218 C217 1.315 . S
H219 C213 0.929 . S
H220 C217 0.930 . S
H221 C209 0.929 . S
H222 C211 0.929 . S
O223 Co198 2.351 1_554 S
O223 C226 1.244 1_554 S
O224 Co198 2.155 . S
O224 C226 1.240 . S
O225 Co198 2.096 . S
O225 C206 1.247 . S
C226 O223 1.244 1_556 S
C226 O224 1.240 . S
H227 C201 0.931 1_565 S
H228 C210 0.931 . S
H229 C214 0.929 . S
H230 C216 0.930 . S
Co231 N235 2.148 . S
Co231 N241 2.128 . S
Co231 N251 2.194 . S
Co231 O256 2.351 . S
Co231 O257 2.155 . S
Co231 O258 2.096 . S
C232 N235 1.301 . S
C232 N236 1.328 . S
C232 H237 0.930 . S
C233 C234 1.333 . S
C233 N235 1.317 . S
C233 H238 0.930 . S
C234 C233 1.333 . S
C234 N236 1.350 . S
C234 H260 0.931 1_545 S
N235 Co231 2.148 . S
N235 C232 1.301 . S
N235 C233 1.317 . S
N236 C232 1.328 . S
N236 C234 1.350 . S
H237 C232 0.930 . S
H238 C233 0.930 . S
C239 O240 1.224 . S
C239 O258 1.247 . S
O240 C239 1.224 . S
N241 Co231 2.128 . S
N241 C242 1.355 . S
N241 C244 1.311 . S
C242 N241 1.355 . S
C242 C243 1.363 . S
C242 H254 0.929 . S
C243 C242 1.363 . S
C243 N245 1.375 . S
C243 H261 0.931 . S
C244 N241 1.311 . S
C244 N245 1.347 . S
C244 H255 0.929 . S
N245 C243 1.375 . S
N245 C244 1.347 . S
C246 C249 1.365 . S
C246 N251 1.328 . S
C246 H252 0.929 . S
C247 C248 1.362 . S
C247 C250 1.378 . S
C247 H262 0.929 . S
C248 C247 1.362 . S
C248 C249 1.366 . S
C249 C246 1.365 . S
C249 C248 1.366 . S
C249 H263 0.930 . S
C250 C247 1.378 . S
C250 N251 1.315 . S
C250 H253 0.930 . S
N251 Co231 2.194 . S
N251 C246 1.328 . S
N251 C250 1.315 . S
H252 C246 0.929 . S
H253 C250 0.930 . S
H254 C242 0.929 . S
H255 C244 0.929 . S
O256 Co231 2.351 . S
O256 C259 1.244 . S
O257 Co231 2.155 . S
O257 C259 1.240 . S
O258 Co231 2.096 . S
O258 C239 1.247 . S
C259 O256 1.244 . S
C259 O257 1.240 . S
H260 C234 0.931 1_565 S
H261 C243 0.931 . S
H262 C247 0.929 . S
H263 C249 0.930 . S
C264 C265 1.387 . S
C264 H268 0.950 . S
C264 C273 1.390 . S
C265 C264 1.387 . S
C265 C267 1.387 . S
H266 C273 0.950 . S
C267 C265 1.387 . S
C267 C269 1.390 . S
C267 H271 0.950 . S
H268 C264 0.950 . S
C269 C267 1.390 . S
C269 C270 1.387 . S
C269 H272 0.950 . S
C270 C269 1.387 . S
C270 C273 1.387 . S
H271 C267 0.950 . S
H272 C269 0.950 . S
C273 C264 1.390 . S
C273 H266 0.950 . S
C273 C270 1.387 . S
C274 C275 1.387 . S
C274 H278 0.950 . S
C274 C283 1.390 . S
C275 C274 1.387 . S
C275 C277 1.387 . S
H276 C283 0.950 . S
C277 C275 1.387 . S
C277 C279 1.390 . S
C277 H281 0.950 . S
H278 C274 0.950 . S
C279 C277 1.390 . S
C279 C280 1.387 . S
C279 H282 0.950 . S
C280 C279 1.387 . S
C280 C283 1.387 . S
H281 C277 0.950 . S
H282 C279 0.950 . S
C283 C274 1.390 . S
C283 H276 0.950 . S
C283 C280 1.387 . S
C284 C285 1.387 . S
C284 H288 0.950 . S
C284 C293 1.390 . S
C285 C284 1.387 . S
C285 C287 1.387 . S
H286 C293 0.950 . S
C287 C285 1.387 . S
C287 C289 1.390 . S
C287 H291 0.950 . S
H288 C284 0.950 . S
C289 C287 1.390 . S
C289 C290 1.387 . S
C289 H292 0.950 . S
C290 C289 1.387 . S
C290 C293 1.387 . S
H291 C287 0.950 . S
H292 C289 0.950 . S
C293 C284 1.390 . S
C293 H286 0.950 . S
C293 C290 1.387 . S
C294 C295 1.387 . S
C294 H298 0.950 . S
C294 C303 1.390 . S
C295 C294 1.387 . S
C295 C297 1.387 . S
H296 C303 0.950 . S
C297 C295 1.387 . S
C297 C299 1.390 . S
C297 H301 0.950 . S
H298 C294 0.950 . S
C299 C297 1.390 . S
C299 C300 1.387 . S
C299 H302 0.950 . S
C300 C299 1.387 . S
C300 C303 1.387 . S
H301 C297 0.950 . S
H302 C299 0.950 . S
C303 C294 1.390 . S
C303 H296 0.950 . S
C303 C300 1.387 . S
C304 C305 1.387 1_545 S
C304 H308 0.950 . S
C304 C313 1.390 . S
C305 C304 1.387 1_565 S
C305 C307 1.387 . S
H306 C313 0.950 . S
C307 C305 1.387 . S
C307 C309 1.390 . S
C307 H311 0.950 . S
H308 C304 0.950 . S
C309 C307 1.390 . S
C309 C310 1.387 1_565 S
C309 H312 0.950 . S
C310 C309 1.387 1_545 S
C310 C313 1.387 . S
H311 C307 0.950 . S
H312 C309 0.950 . S
C313 C304 1.390 . S
C313 H306 0.950 . S
C313 C310 1.387 . S
C314 C315 1.387 . S
C314 H318 0.950 . S
C314 C323 1.388 1_545 S
C315 C314 1.387 . S
C315 C317 1.387 . S
H316 C323 0.951 . S
C317 C315 1.387 . S
C317 C319 1.390 1_545 S
C317 H321 0.950 . S
H318 C314 0.950 . S
C319 C317 1.390 1_565 S
C319 C320 1.387 . S
C319 H322 0.950 . S
C320 C319 1.387 . S
C320 C323 1.389 . S
H321 C317 0.950 . S
H322 C319 0.950 . S
C323 C314 1.388 1_565 S
C323 H316 0.951 . S
C323 C320 1.389 . S
C324 C325 1.386 1_565 S
C324 H328 0.949 1_565 S
C324 C333 1.393 . S
C325 C324 1.386 1_545 S
C325 C327 1.387 . S
H326 C333 0.950 . S
C327 C325 1.387 . S
C327 C329 1.390 1_545 S
C327 H331 0.950 . S
H328 C324 0.949 1_545 S
C329 C327 1.390 1_565 S
C329 C330 1.387 . S
C329 H332 0.950 . S
C330 C329 1.387 . S
C330 C333 1.387 . S
H331 C327 0.950 . S
H332 C329 0.950 . S
C333 C324 1.393 . S
C333 H326 0.950 . S
C333 C330 1.387 . S
C334 C335 1.387 . S
C334 H338 0.950 . S
C334 C343 1.390 1_545 S
C335 C334 1.387 . S
C335 C337 1.390 . S
H336 C343 0.950 . S
C337 C335 1.390 . S
C337 C339 1.386 1_545 S
C337 H341 0.951 . S
H338 C334 0.950 . S
C339 C337 1.386 1_565 S
C339 C340 1.387 . S
C339 H342 0.950 . S
C340 C339 1.387 . S
C340 C343 1.387 . S
H341 C337 0.951 . S
H342 C339 0.950 . S
C343 C334 1.390 1_565 S
C343 H336 0.950 . S
C343 C340 1.387 . S
C344 C345 1.387 . S
C344 H348 0.950 . S
C344 C353 1.390 . S
C345 C344 1.387 . S
C345 C347 1.387 1_556 S
H346 C353 0.950 . S
C347 C345 1.387 1_554 S
C347 C349 1.390 . S
C347 H351 0.950 . S
H348 C344 0.950 . S
C349 C347 1.390 . S
C349 C350 1.387 . S
C349 H352 0.950 . S
C350 C349 1.387 . S
C350 C353 1.387 1_554 S
H351 C347 0.950 . S
H352 C349 0.950 . S
C353 C344 1.390 . S
C353 H346 0.950 . S
C353 C350 1.387 1_556 S
C354 C355 1.387 . S
C354 H358 0.950 . S
C354 C363 1.390 . S
C355 C354 1.387 . S
C355 C357 1.387 . S
H356 C363 0.950 . S
C357 C355 1.387 . S
C357 C359 1.390 . S
C357 H361 0.950 . S
H358 C354 0.950 . S
C359 C357 1.390 . S
C359 C360 1.387 . S
C359 H362 0.950 . S
C360 C359 1.387 . S
C360 C363 1.387 . S
H361 C357 0.950 . S
H362 C359 0.950 . S
C363 C354 1.390 . S
C363 H356 0.950 . S
C363 C360 1.387 . S
C364 C365 1.387 1_565 S
C364 H368 0.950 . S
C364 C373 1.390 1_455 S
C365 C364 1.387 1_545 S
C365 C367 1.387 1_554 S
H366 C373 0.950 . S
C367 C365 1.387 1_556 S
C367 C369 1.390 1_455 S
C367 H371 0.950 . S
H368 C364 0.950 . S
C369 C367 1.390 1_655 S
C369 C370 1.387 1_545 S
C369 H372 0.950 . S
C370 C369 1.387 1_565 S
C370 C373 1.387 1_556 S
H371 C367 0.950 . S
H372 C369 0.950 . S
C373 C364 1.390 1_655 S
C373 H366 0.950 . S
C373 C370 1.387 1_554 S
C374 C375 1.381 1_565 S
C374 H378 0.950 . S
C374 C383 1.397 1_655 S
C375 C374 1.381 1_545 S
C375 C377 1.387 . S
H376 C383 0.950 . S
C377 C375 1.387 . S
C377 C379 1.397 1_655 S
C377 H381 0.950 . S
H378 C374 0.950 . S
C379 C377 1.397 1_455 S
C379 C380 1.381 1_545 S
C379 H382 0.950 . S
C380 C379 1.381 1_565 S
C380 C383 1.387 . S
H381 C377 0.950 . S
H382 C379 0.950 . S
C383 C374 1.397 1_455 S
C383 H376 0.950 . S
C383 C380 1.387 . S
C384 C385 1.387 1_556 S
C384 H388 0.950 . S
C384 C393 1.390 . S
C385 C384 1.387 1_554 S
C385 C387 1.387 . S
H386 C393 0.950 . S
C387 C385 1.387 . S
C387 C389 1.390 . S
C387 H391 0.950 . S
H388 C384 0.950 . S
C389 C387 1.390 . S
C389 C390 1.387 1_554 S
C389 H392 0.950 . S
C390 C389 1.387 1_556 S
C390 C393 1.387 . S
H391 C387 0.950 . S
H392 C389 0.950 . S
C393 C384 1.390 . S
C393 H386 0.950 . S
C393 C390 1.387 . S
C394 C395 1.387 . S
C394 H398 0.950 . S
C394 C403 1.390 . S
C395 C394 1.387 . S
C395 C397 1.387 . S
H396 C403 0.950 . S
C397 C395 1.387 . S
C397 C399 1.390 . S
C397 H401 0.950 . S
H398 C394 0.950 . S
C399 C397 1.390 . S
C399 C400 1.387 . S
C399 H402 0.950 . S
C400 C399 1.387 . S
C400 C403 1.387 . S
H401 C397 0.950 . S
H402 C399 0.950 . S
C403 C394 1.390 . S
C403 H396 0.950 . S
C403 C400 1.387 . S
C404 C405 1.387 1_556 S
C404 H408 0.950 . S
C404 C413 1.390 . S
C405 C404 1.387 1_554 S
C405 C407 1.387 . S
H406 C413 0.950 . S
C407 C405 1.387 . S
C407 C409 1.390 . S
C407 H411 0.950 . S
H408 C404 0.950 . S
C409 C407 1.390 . S
C409 C410 1.387 1_554 S
C409 H412 0.950 . S
C410 C409 1.387 1_556 S
C410 C413 1.387 . S
H411 C407 0.950 . S
H412 C409 0.950 . S
C413 C404 1.390 . S
C413 H406 0.950 . S
C413 C410 1.387 . S
C414 C415 1.387 . S
C414 H418 0.950 . S
C414 C423 1.390 . S
C415 C414 1.387 . S
C415 C417 1.387 . S
H416 C423 0.950 . S
C417 C415 1.387 . S
C417 C419 1.390 . S
C417 H421 0.950 . S
H418 C414 0.950 . S
C419 C417 1.390 . S
C419 C420 1.387 . S
C419 H422 0.950 . S
C420 C419 1.387 . S
C420 C423 1.387 . S
H421 C417 0.950 . S
H422 C419 0.950 . S
C423 C414 1.390 . S
C423 H416 0.950 . S
C423 C420 1.387 . S
C424 C425 1.387 . S
C424 H428 0.950 . S
C424 C433 1.390 . S
C425 C424 1.387 . S
C425 C427 1.387 . S
H426 C433 0.950 . S
C427 C425 1.387 . S
C427 C429 1.390 . S
C427 H431 0.950 . S
H428 C424 0.950 . S
C429 C427 1.390 . S
C429 C430 1.387 . S
C429 H432 0.950 . S
C430 C429 1.387 . S
C430 C433 1.387 . S
H431 C427 0.950 . S
H432 C429 0.950 . S
C433 C424 1.390 . S
C433 H426 0.950 . S
C433 C430 1.387 . S
C434 C435 1.387 . S
C434 H438 0.950 . S
C434 C443 1.390 . S
C435 C434 1.387 . S
C435 C437 1.387 . S
H436 C443 0.950 . S
C437 C435 1.387 . S
C437 C439 1.390 . S
C437 H441 0.950 . S
H438 C434 0.950 . S
C439 C437 1.390 . S
C439 C440 1.387 . S
C439 H442 0.950 . S
C440 C439 1.387 . S
C440 C443 1.387 . S
H441 C437 0.950 . S
H442 C439 0.950 . S
C443 C434 1.390 . S
C443 H436 0.950 . S
C443 C440 1.387 . S
C444 C445 1.387 . S
C444 H448 0.950 . S
C444 C453 1.390 1_455 S
C445 C444 1.387 . S
C445 C447 1.387 . S
H446 C453 0.950 . S
C447 C445 1.387 . S
C447 C449 1.390 1_455 S
C447 H451 0.950 . S
H448 C444 0.950 . S
C449 C447 1.390 1_655 S
C449 C450 1.387 . S
C449 H452 0.950 . S
C450 C449 1.387 . S
C450 C453 1.387 . S
H451 C447 0.950 . S
H452 C449 0.950 . S
C453 C444 1.390 1_655 S
C453 H446 0.950 . S
C453 C450 1.387 . S
C454 C455 1.387 . S
C454 H458 0.950 . S
C454 C463 1.390 1_455 S
C455 C454 1.387 . S
C455 C457 1.387 . S
H456 C463 0.950 . S
C457 C455 1.387 . S
C457 C459 1.390 1_455 S
C457 H461 0.950 . S
H458 C454 0.950 . S
C459 C457 1.390 1_655 S
C459 C460 1.387 . S
C459 H462 0.950 . S
C460 C459 1.387 . S
C460 C463 1.387 . S
H461 C457 0.950 . S
H462 C459 0.950 . S
C463 C454 1.390 1_655 S
C463 H456 0.950 . S
C463 C460 1.387 . S
C265 C107 1.902 . S
C270 N5 1.925 . S
C275 N38 1.925 . S
C280 C74 1.902 . S
C285 C41 1.903 . S
C290 N71 1.924 . S
C295 C8 1.903 . S
C300 N104 1.924 . S
C305 N137 1.925 . S
C310 C239 1.902 . S
C315 C206 1.902 . S
C320 N170 1.925 . S
C325 N203 1.924 . S
C330 C173 1.903 . S
C335 N236 1.925 . S
C340 C140 1.902 . S
C345 C28 1.132 1_556 S
C350 C94 1.132 1_554 S
C355 C61 1.133 . S
C360 C127 1.133 . S
C365 C226 1.132 1_554 S
C370 C160 1.132 1_556 S
C375 C259 1.132 . S
C380 C193 1.132 . S
C385 C17 1.562 . S
C390 C215 1.562 . S
C395 C50 1.561 . S
C400 C248 1.561 . S
C405 C149 1.561 . S
C410 C83 1.561 . S
C415 C182 1.561 . S
C420 C116 1.561 . S
C425 N47 1.017 . S
C430 N14 1.017 . S
C435 N113 1.025 . S
C440 N80 1.025 . S
C445 N179 1.025 . S
C450 N146 1.025 . S
C455 N212 1.025 . S
C460 N245 1.025 . S
