# Generated by pormake.
# Topology umx, (4)-cn, num edge types: 1
# Building blocks:
#     Node 0, Type 0, BuildingBlock: QUQFOY_clean_sbu_3, # of connection points: 4
#     Node 1, Type 0, BuildingBlock: QUQFOY_clean_sbu_3, # of connection points: 4
#     Node 2, Type 0, BuildingBlock: QUQFOY_clean_sbu_3, # of connection points: 4
#     Node 3, Type 0, BuildingBlock: QUQFOY_clean_sbu_3, # of connection points: 4
#     Node 4, Type 0, BuildingBlock: QUQFOY_clean_sbu_3, # of connection points: 4
#     Node 5, Type 0, BuildingBlock: QUQFOY_clean_sbu_3, # of connection points: 4
#     Node 6, Type 0, BuildingBlock: QUQFOY_clean_sbu_3, # of connection points: 4
#     Node 7, Type 0, BuildingBlock: QUQFOY_clean_sbu_3, # of connection points: 4
#     Edge 8, Type (0, 0), BuildingBlock: OJICUG_clean_linker_0, # of connection points: 2
#     Edge 9, Type (0, 0), BuildingBlock: OJICUG_clean_linker_0, # of connection points: 2
#     Edge 10, Type (0, 0), BuildingBlock: OJICUG_clean_linker_0, # of connection points: 2
#     Edge 11, Type (0, 0), BuildingBlock: OJICUG_clean_linker_0, # of connection points: 2
#     Edge 12, Type (0, 0), BuildingBlock: OJICUG_clean_linker_0, # of connection points: 2
#     Edge 13, Type (0, 0), BuildingBlock: OJICUG_clean_linker_0, # of connection points: 2
#     Edge 14, Type (0, 0), BuildingBlock: OJICUG_clean_linker_0, # of connection points: 2
#     Edge 15, Type (0, 0), BuildingBlock: OJICUG_clean_linker_0, # of connection points: 2
#     Edge 16, Type (0, 0), BuildingBlock: OJICUG_clean_linker_0, # of connection points: 2
#     Edge 17, Type (0, 0), BuildingBlock: OJICUG_clean_linker_0, # of connection points: 2
#     Edge 18, Type (0, 0), BuildingBlock: OJICUG_clean_linker_0, # of connection points: 2
#     Edge 19, Type (0, 0), BuildingBlock: OJICUG_clean_linker_0, # of connection points: 2
#     Edge 20, Type (0, 0), BuildingBlock: OJICUG_clean_linker_0, # of connection points: 2
#     Edge 21, Type (0, 0), BuildingBlock: OJICUG_clean_linker_0, # of connection points: 2
#     Edge 22, Type (0, 0), BuildingBlock: OJICUG_clean_linker_0, # of connection points: 2
#     Edge 23, Type (0, 0), BuildingBlock: OJICUG_clean_linker_0, # of connection points: 2
# Relax obj value: 0.077
# Max RMSD: 0.190
# Mean RMSD: 0.190
data_MOF--net-umx--node1-QUQFOY_clean_sbu_3--edge1-OJICUG_clean_linker_0
_symmetry_space_group_name_H-M    P1
_symmetry_Int_Tables_number       1
_symmetry_cell_setting            triclinic
loop_
_symmetry_equiv_pos_as_xyz
'x, y, z'
_cell_length_a     30.222471
_cell_length_b     30.221142
_cell_length_c     20.69048
_cell_angle_alpha  90.031544
_cell_angle_beta   89.966782
_cell_angle_gamma 90.001649
loop_
_atom_site_label
_atom_site_type_symbol
_atom_site_fract_x
_atom_site_fract_y
_atom_site_fract_z
_atom_type_partial_charge
C0 C 0.19106 0.48001 0.88069 0.0
O1 O 0.19409 0.51493 0.91476 0.0
Cd2 Cd 0.18542 0.51822 0.03053 0.0
O3 O 0.18362 0.44259 0.90696 0.0
Cd4 Cd 0.17173 0.40824 0.01401 0.0
C5 C 0.08054 0.47252 0.03865 0.0
O6 O 0.22505 0.45527 0.06767 0.0
O7 O 0.19416 0.40612 0.12739 0.0
O8 O 0.20806 0.34749 0.96025 0.0
C9 C 0.22018 0.43879 0.12349 0.0
O10 O 0.10626 0.50569 0.04475 0.0
C11 C 0.18855 0.31731 0.992 0.0
O12 O 0.09562 0.43414 0.02541 0.0
O13 O 0.15912 0.32926 0.03219 0.0
C14 C 0.49135 0.19065 0.38663 0.0
O15 O 0.45646 0.1935 0.4208 0.0
Cd16 Cd 0.45384 0.18394 0.5364 0.0
O17 O 0.52878 0.18305 0.41276 0.0
Cd18 Cd 0.56345 0.17064 0.51941 0.0
C19 C 0.49965 0.07903 0.54196 0.0
O20 O 0.51664 0.22391 0.57373 0.0
O21 O 0.56536 0.19214 0.63322 0.0
O22 O 0.62363 0.20734 0.46499 0.0
C23 C 0.53309 0.21866 0.62948 0.0
O24 O 0.46644 0.10462 0.54873 0.0
C25 C 0.65414 0.18821 0.49648 0.0
O26 O 0.53799 0.09434 0.52912 0.0
O27 O 0.64266 0.15884 0.53702 0.0
C28 C 0.77989 0.49145 0.88644 0.0
O29 O 0.77693 0.45654 0.9205 0.0
Cd30 Cd 0.78645 0.45389 0.03614 0.0
O31 O 0.7876 0.52883 0.91271 0.0
Cd32 Cd 0.80011 0.5636 0.01927 0.0
C33 C 0.89149 0.49946 0.04191 0.0
O34 O 0.74679 0.51691 0.0735 0.0
O35 O 0.77828 0.56586 0.13299 0.0
O36 O 0.76379 0.62364 0.96417 0.0
C37 C 0.75192 0.53344 0.12926 0.0
O38 O 0.86582 0.46631 0.04853 0.0
C39 C 0.78297 0.65425 -0.00455 0.0
O40 O 0.87629 0.53785 0.02917 0.0
O41 O 0.81212 0.64287 0.03637 0.0
C42 C 0.48065 0.77936 0.38049 0.0
O43 O 0.5156 0.77636 0.41445 0.0
Cd44 Cd 0.51889 0.78507 0.53025 0.0
O45 O 0.44325 0.78679 0.4069 0.0
Cd46 Cd 0.40879 0.79869 0.51386 0.0
C47 C 0.47306 0.88991 0.53847 0.0
O48 O 0.45588 0.74552 0.56748 0.0
O49 O 0.40643 0.77599 0.62718 0.0
O50 O 0.34829 0.76249 0.45947 0.0
C51 C 0.43932 0.75024 0.6233 0.0
O52 O 0.50627 0.86424 0.54444 0.0
C53 C 0.31795 0.78196 0.49099 0.0
O54 O 0.43469 0.87479 0.52535 0.0
O55 O 0.32971 0.81123 0.53155 0.0
C56 C 0.19046 0.49135 0.60187 0.0
O57 O 0.19333 0.45646 0.56769 0.0
Cd58 Cd 0.18385 0.45383 0.45209 0.0
O59 O 0.18289 0.52878 0.57574 0.0
Cd60 Cd 0.17057 0.56346 0.46907 0.0
C61 C 0.07895 0.49969 0.4464 0.0
O62 O 0.22383 0.51663 0.41476 0.0
O63 O 0.19207 0.56535 0.35526 0.0
O64 O 0.20733 0.62362 0.52343 0.0
C65 C 0.21858 0.53307 0.359 0.0
O66 O 0.10454 0.46648 0.43966 0.0
C67 C 0.18821 0.65415 0.49194 0.0
O68 O 0.09426 0.53803 0.45927 0.0
O69 O 0.15881 0.64268 0.45144 0.0
C70 C 0.48006 0.19134 0.10782 0.0
O71 O 0.51499 0.19438 0.07376 0.0
Cd72 Cd 0.51831 0.18572 0.95798 0.0
O73 O 0.44265 0.18388 0.08153 0.0
Cd74 Cd 0.40832 0.17196 0.97449 0.0
C75 C 0.47268 0.08082 0.94982 0.0
O76 O 0.45533 0.22529 0.92084 0.0
O77 O 0.40616 0.19443 0.86113 0.0
O78 O 0.34753 0.20822 0.02825 0.0
C79 C 0.43884 0.22043 0.86502 0.0
O80 O 0.50584 0.10655 0.94374 0.0
C81 C 0.31737 0.18868 -0.00348 0.0
O82 O 0.4343 0.09588 0.96305 0.0
O83 O 0.32936 0.15925 0.95633 0.0
C84 C 0.77926 0.48056 0.60757 0.0
O85 O 0.77625 0.51552 0.57362 0.0
Cd86 Cd 0.78498 0.51879 0.45782 0.0
O87 O 0.78672 0.44317 0.58116 0.0
Cd88 Cd 0.79867 0.40871 0.47422 0.0
C89 C 0.88985 0.47304 0.44966 0.0
O90 O 0.74545 0.45575 0.4206 0.0
O91 O 0.77598 0.40633 0.3609 0.0
O92 O 0.76254 0.34822 0.52869 0.0
C93 C 0.75019 0.43919 0.36478 0.0
O94 O 0.86416 0.50624 0.44367 0.0
C95 C 0.782 0.31787 0.49716 0.0
O96 O 0.87475 0.43466 0.46276 0.0
O97 O 0.81123 0.32963 0.45656 0.0
C98 C 0.49159 0.78008 0.10163 0.0
O99 O 0.45668 0.77713 0.06756 0.0
Cd100 Cd 0.45408 0.78672 0.95193 0.0
O101 O 0.52897 0.78781 0.07538 0.0
Cd102 Cd 0.56376 0.80035 0.96883 0.0
C103 C 0.49967 0.89176 0.94632 0.0
O104 O 0.51708 0.74703 0.91456 0.0
O105 O 0.56598 0.77861 0.85507 0.0
O106 O 0.62375 0.76395 0.02394 0.0
C107 C 0.5336 0.75221 0.8588 0.0
O108 O 0.46652 0.86609 0.93966 0.0
C109 C 0.65438 0.78309 0.99267 0.0
O110 O 0.53806 0.87655 0.95904 0.0
O111 O 0.64305 0.81225 0.95174 0.0
C112 C 0.23456 0.50915 0.18249 0.0
C113 C 0.23265 0.46277 0.1826 0.0
H114 H 0.2314 0.56815 0.23966 0.0
C115 C 0.23498 0.43995 0.24163 0.0
H116 H 0.23294 0.52752 0.13763 0.0
C117 C 0.23504 0.46318 0.29996 0.0
C118 C 0.2317 0.50948 0.29984 0.0
H119 H 0.23388 0.40412 0.24278 0.0
H120 H 0.23381 0.44476 0.34482 0.0
C121 C 0.23356 0.53236 0.24082 0.0
C122 C 0.46323 0.23521 0.68853 0.0
C123 C 0.50952 0.23182 0.68864 0.0
H124 H 0.40418 0.23415 0.74573 0.0
C125 C 0.53241 0.23366 0.74766 0.0
H126 H 0.4448 0.23399 0.64368 0.0
C127 C 0.50921 0.23472 0.80599 0.0
C128 C 0.46283 0.23286 0.8059 0.0
H129 H 0.56819 0.23147 0.7488 0.0
H130 H 0.52759 0.23309 0.85084 0.0
C131 C 0.44001 0.2352 0.74687 0.0
C132 C 0.73599 0.50956 0.30579 0.0
C133 C 0.73784 0.46318 0.30565 0.0
H134 H 0.7392 0.56854 0.24868 0.0
C135 C 0.7355 0.44035 0.24658 0.0
H136 H 0.73761 0.52795 0.35067 0.0
C137 C 0.73548 0.46356 0.18828 0.0
C138 C 0.73885 0.50986 0.18843 0.0
H139 H 0.73655 0.40452 0.2454 0.0
H140 H 0.73668 0.44512 0.1434 0.0
C141 C 0.73702 0.53276 0.24748 0.0
C142 C 0.46374 0.73563 0.7998 0.0
C143 C 0.51003 0.7391 0.79963 0.0
H144 H 0.40469 0.73656 0.7427 0.0
C145 C 0.53293 0.73731 0.74058 0.0
H146 H 0.44531 0.7368 0.84468 0.0
C147 C 0.50973 0.7362 0.68227 0.0
C148 C 0.46334 0.73796 0.68243 0.0
H149 H 0.5687 0.73956 0.73937 0.0
H150 H 0.52811 0.73786 0.6374 0.0
C151 C 0.44053 0.73559 0.7415 0.0
C152 C 0.77556 0.4447 0.71663 0.0
C153 C 0.77607 0.48338 0.67886 0.0
H154 H 0.77598 0.41684 0.81165 0.0
C155 C 0.77541 0.5247 0.71003 0.0
H156 H 0.77582 0.41232 0.69417 0.0
C157 C 0.77571 0.52729 0.77744 0.0
C158 C 0.77637 0.48861 0.8152 0.0
H159 H 0.77572 0.55515 0.68243 0.0
H160 H 0.77607 0.55967 0.79988 0.0
C161 C 0.77556 0.44729 0.78404 0.0
C162 C 0.4474 0.7757 0.20401 0.0
C163 C 0.48873 0.77654 0.17287 0.0
H164 H 0.41242 0.77592 0.29387 0.0
C165 C 0.5274 0.77587 0.21064 0.0
H166 H 0.41697 0.77613 0.17639 0.0
C167 C 0.5248 0.77555 0.27805 0.0
C168 C 0.48348 0.77619 0.30921 0.0
H169 H 0.55979 0.77626 0.18821 0.0
H170 H 0.55524 0.77587 0.30566 0.0
C171 C 0.44481 0.77568 0.27143 0.0
C172 C 0.19494 0.5243 0.77845 0.0
C173 C 0.19422 0.48293 0.80941 0.0
H174 H 0.19433 0.55942 0.68877 0.0
C175 C 0.19467 0.44431 0.77145 0.0
H176 H 0.19467 0.5547 0.8062 0.0
C177 C 0.19468 0.44701 0.70405 0.0
C178 C 0.19394 0.48839 0.6731 0.0
H179 H 0.19436 0.41189 0.79374 0.0
H180 H 0.19421 0.41662 0.67629 0.0
C181 C 0.19465 0.527 0.71106 0.0
C182 C 0.44703 0.19491 0.28444 0.0
C183 C 0.4884 0.19417 0.3154 0.0
H184 H 0.41193 0.19462 0.19474 0.0
C185 C 0.52702 0.1949 0.27746 0.0
H186 H 0.41663 0.19443 0.31219 0.0
C187 C 0.52433 0.19521 0.21007 0.0
C188 C 0.48297 0.19449 0.17909 0.0
H189 H 0.55944 0.19458 0.29976 0.0
H190 H 0.55474 0.19496 0.18233 0.0
C191 C 0.44435 0.19493 0.21704 0.0
C192 C 0.96886 0.52894 0.04619 0.0
C193 C 0.93985 0.49264 0.0458 0.0
H194 H 0.03599 0.55108 0.04485 0.0
C195 C 0.95754 0.44959 0.04639 0.0
H196 H 0.95631 0.56251 0.04607 0.0
C197 C 0.00325 0.443 0.04524 0.0
C198 C 0.03225 0.47931 0.04407 0.0
H199 H 0.9361 0.42087 0.04615 0.0
H200 H 0.0158 0.40943 0.04444 0.0
C201 C 0.01457 0.52235 0.04563 0.0
C202 C 0.52278 0.95598 0.5453 0.0
C203 C 0.47977 0.93822 0.54392 0.0
H204 H 0.56283 0.01433 0.54567 0.0
C205 C 0.44342 0.96715 0.54531 0.0
H206 H 0.55155 0.93461 0.54435 0.0
C207 C 0.44993 0.01287 0.54653 0.0
C208 C 0.49294 0.03065 0.54577 0.0
H209 H 0.40987 0.95453 0.54465 0.0
H210 H 0.42116 0.03425 0.54646 0.0
C211 C 0.52929 0.00171 0.54592 0.0
C212 C 0.00163 0.52932 0.44239 0.0
C213 C 0.03058 0.49297 0.44253 0.0
H214 H 0.93452 0.55156 0.44391 0.0
C215 C 0.01281 0.44996 0.44168 0.0
H216 H 0.01424 0.56287 0.4427 0.0
C217 C 0.9671 0.44343 0.44284 0.0
C218 C 0.93816 0.47978 0.44425 0.0
H219 H 0.0342 0.42119 0.44173 0.0
H220 H 0.95449 0.40988 0.44343 0.0
C221 C 0.9559 0.5228 0.44294 0.0
C222 C 0.52914 0.96915 0.9422 0.0
C223 C 0.49284 0.94012 0.94251 0.0
H224 H 0.55125 0.03629 0.94366 0.0
C225 C 0.4498 0.95781 0.9419 0.0
H226 H 0.56271 0.9566 0.94233 0.0
C227 C 0.44319 0.00352 0.94312 0.0
C228 C 0.47949 0.03252 0.94437 0.0
H229 H 0.42108 0.93636 0.94209 0.0
H230 H 0.40962 0.01606 0.9439 0.0
C231 C 0.52253 0.01486 0.94282 0.0
C232 C 0.22244 0.25365 0.93486 0.0
C233 C 0.20707 0.27251 0.99258 0.0
H234 H 0.26891 0.20925 0.89145 0.0
C235 C 0.22037 0.25446 0.05197 0.0
H236 H 0.21274 0.26739 0.88862 0.0
C237 C 0.25368 0.22249 0.05368 0.0
C238 C 0.27255 0.20713 -0.00404 0.0
H239 H 0.20922 0.26891 0.09708 0.0
H240 H 0.26745 0.21283 0.09992 0.0
C241 C 0.25446 0.22038 0.93657 0.0
C242 C 0.74884 0.25453 0.55584 0.0
C243 C 0.76375 0.27297 0.49759 0.0
H244 H 0.70298 0.21017 0.60061 0.0
C245 C 0.75028 0.25426 0.4387 0.0
H246 H 0.75869 0.26878 0.6017 0.0
C247 C 0.71723 0.22199 0.43798 0.0
C248 C 0.69881 0.20702 0.4962 0.0
H249 H 0.76107 0.26837 0.3932 0.0
H250 H 0.70329 0.21178 0.39209 0.0
C251 C 0.71709 0.22099 0.55512 0.0
C252 C 0.75045 0.71797 0.05271 0.0
C253 C 0.76453 0.69906 -0.00576 0.0
H254 H 0.7028 0.76037 0.09809 0.0
C255 C 0.75 0.71711 0.93556 0.0
H256 H 0.76094 0.70415 0.09853 0.0
C257 C 0.71803 0.75044 0.93539 0.0
C258 C 0.69916 0.76457 0.99386 0.0
H259 H 0.76032 0.70269 0.89002 0.0
H260 H 0.70422 0.76094 0.88957 0.0
C261 C 0.71719 0.75002 0.05254 0.0
C262 C 0.25437 0.75027 0.54954 0.0
C263 C 0.27305 0.7637 0.49061 0.0
H264 H 0.21189 0.70334 0.59626 0.0
C265 C 0.25459 0.74876 0.43241 0.0
H266 H 0.2685 0.76108 0.59501 0.0
C267 C 0.22103 0.71703 0.4332 0.0
C268 C 0.20707 0.6988 0.49216 0.0
H269 H 0.26882 0.75858 0.38652 0.0
H270 H 0.21017 0.7029 0.38774 0.0
C271 C 0.22208 0.71724 0.55034 0.0
loop_
_geom_bond_atom_site_label_1
_geom_bond_atom_site_label_2
_geom_bond_distance
_geom_bond_site_symmetry_2
_ccdc_geom_bond_type
C0 O1 1.306 . S
C0 O3 1.160 . S
O1 C0 1.306 . S
O1 Cd2 2.228 1_556 S
Cd2 O1 2.228 1_554 S
Cd2 O6 2.273 . S
Cd2 O10 2.277 . S
O3 C0 1.160 . S
O3 Cd4 2.203 1_556 S
Cd4 O3 2.203 1_554 S
Cd4 O6 2.411 . S
Cd4 O7 2.333 . S
Cd4 O8 2.352 1_554 S
Cd4 O12 2.277 1_554 S
Cd4 O13 2.356 . S
C5 O10 1.209 . S
C5 O12 1.226 1_554 S
O6 Cd2 2.273 . S
O6 Cd4 2.411 . S
O6 C9 1.320 . S
O7 Cd4 2.333 . S
O7 C9 1.214 . S
O8 Cd4 2.352 1_556 S
O8 C11 1.258 1_556 S
C9 O6 1.320 . S
C9 O7 1.214 . S
O10 Cd2 2.277 . S
O10 C5 1.209 . S
C11 O8 1.258 1_554 S
C11 O13 1.282 . S
O12 Cd4 2.277 1_556 S
O12 C5 1.226 1_556 S
O13 Cd4 2.356 . S
O13 C11 1.282 . S
C14 O15 1.306 . S
C14 O17 1.160 . S
O15 C14 1.306 . S
O15 Cd16 2.228 . S
Cd16 O15 2.228 . S
Cd16 O20 2.273 . S
Cd16 O24 2.277 . S
O17 C14 1.160 . S
O17 Cd18 2.203 . S
Cd18 O17 2.203 . S
Cd18 O20 2.411 . S
Cd18 O21 2.333 . S
Cd18 O22 2.352 . S
Cd18 O26 2.277 . S
Cd18 O27 2.356 . S
C19 O24 1.209 . S
C19 O26 1.226 . S
O20 Cd16 2.273 . S
O20 Cd18 2.411 . S
O20 C23 1.320 . S
O21 Cd18 2.333 . S
O21 C23 1.214 . S
O22 Cd18 2.352 . S
O22 C25 1.258 . S
C23 O20 1.320 . S
C23 O21 1.214 . S
O24 Cd16 2.277 . S
O24 C19 1.209 . S
C25 O22 1.258 . S
C25 O27 1.282 . S
O26 Cd18 2.277 . S
O26 C19 1.226 . S
O27 Cd18 2.356 . S
O27 C25 1.282 . S
C28 O29 1.306 . S
C28 O31 1.160 . S
O29 C28 1.306 . S
O29 Cd30 2.228 1_556 S
Cd30 O29 2.228 1_554 S
Cd30 O34 2.273 . S
Cd30 O38 2.277 . S
O31 C28 1.160 . S
O31 Cd32 2.203 1_556 S
Cd32 O31 2.203 1_554 S
Cd32 O34 2.411 . S
Cd32 O35 2.333 . S
Cd32 O36 2.352 1_554 S
Cd32 O40 2.277 1_554 S
Cd32 O41 2.356 . S
C33 O38 1.209 . S
C33 O40 1.226 1_554 S
O34 Cd30 2.273 . S
O34 Cd32 2.411 . S
O34 C37 1.320 . S
O35 Cd32 2.333 . S
O35 C37 1.214 . S
O36 Cd32 2.352 1_556 S
O36 C39 1.258 1_556 S
C37 O34 1.320 . S
C37 O35 1.214 . S
O38 Cd30 2.277 . S
O38 C33 1.209 . S
C39 O36 1.258 1_554 S
C39 O41 1.282 . S
O40 Cd32 2.277 1_556 S
O40 C33 1.226 1_556 S
O41 Cd32 2.356 . S
O41 C39 1.282 . S
C42 O43 1.306 . S
C42 O45 1.160 . S
O43 C42 1.306 . S
O43 Cd44 2.228 . S
Cd44 O43 2.228 . S
Cd44 O48 2.273 . S
Cd44 O52 2.277 . S
O45 C42 1.160 . S
O45 Cd46 2.203 . S
Cd46 O45 2.203 . S
Cd46 O48 2.411 . S
Cd46 O49 2.333 . S
Cd46 O50 2.352 . S
Cd46 O54 2.277 . S
Cd46 O55 2.356 . S
C47 O52 1.209 . S
C47 O54 1.226 . S
O48 Cd44 2.273 . S
O48 Cd46 2.411 . S
O48 C51 1.320 . S
O49 Cd46 2.333 . S
O49 C51 1.214 . S
O50 Cd46 2.352 . S
O50 C53 1.258 . S
C51 O48 1.320 . S
C51 O49 1.214 . S
O52 Cd44 2.277 . S
O52 C47 1.209 . S
C53 O50 1.258 . S
C53 O55 1.282 . S
O54 Cd46 2.277 . S
O54 C47 1.226 . S
O55 Cd46 2.356 . S
O55 C53 1.282 . S
C56 O57 1.306 . S
C56 O59 1.160 . S
O57 C56 1.306 . S
O57 Cd58 2.228 . S
Cd58 O57 2.228 . S
Cd58 O62 2.273 . S
Cd58 O66 2.277 . S
O59 C56 1.160 . S
O59 Cd60 2.203 . S
Cd60 O59 2.203 . S
Cd60 O62 2.411 . S
Cd60 O63 2.333 . S
Cd60 O64 2.352 . S
Cd60 O68 2.277 . S
Cd60 O69 2.356 . S
C61 O66 1.209 . S
C61 O68 1.226 . S
O62 Cd58 2.273 . S
O62 Cd60 2.411 . S
O62 C65 1.320 . S
O63 Cd60 2.333 . S
O63 C65 1.214 . S
O64 Cd60 2.352 . S
O64 C67 1.258 . S
C65 O62 1.320 . S
C65 O63 1.214 . S
O66 Cd58 2.277 . S
O66 C61 1.209 . S
C67 O64 1.258 . S
C67 O69 1.282 . S
O68 Cd60 2.277 . S
O68 C61 1.226 . S
O69 Cd60 2.356 . S
O69 C67 1.282 . S
C70 O71 1.306 . S
C70 O73 1.160 . S
O71 C70 1.306 . S
O71 Cd72 2.228 1_554 S
Cd72 O71 2.228 1_556 S
Cd72 O76 2.273 . S
Cd72 O80 2.277 . S
O73 C70 1.160 . S
O73 Cd74 2.203 1_554 S
Cd74 O73 2.203 1_556 S
Cd74 O76 2.411 . S
Cd74 O77 2.333 . S
Cd74 O78 2.352 1_556 S
Cd74 O82 2.277 1_556 S
Cd74 O83 2.356 . S
C75 O80 1.209 1_554 S
C75 O82 1.226 . S
O76 Cd72 2.273 . S
O76 Cd74 2.411 . S
O76 C79 1.320 . S
O77 Cd74 2.333 . S
O77 C79 1.214 . S
O78 Cd74 2.352 1_554 S
O78 C81 1.258 1_554 S
C79 O76 1.320 . S
C79 O77 1.214 . S
O80 Cd72 2.277 . S
O80 C75 1.209 1_556 S
C81 O78 1.258 1_556 S
C81 O83 1.282 . S
O82 Cd74 2.277 1_554 S
O82 C75 1.226 . S
O83 Cd74 2.356 . S
O83 C81 1.282 . S
C84 O85 1.306 . S
C84 O87 1.160 . S
O85 C84 1.306 . S
O85 Cd86 2.228 . S
Cd86 O85 2.228 . S
Cd86 O90 2.273 . S
Cd86 O94 2.277 . S
O87 C84 1.160 . S
O87 Cd88 2.203 . S
Cd88 O87 2.203 . S
Cd88 O90 2.411 . S
Cd88 O91 2.333 . S
Cd88 O92 2.352 . S
Cd88 O96 2.277 . S
Cd88 O97 2.356 . S
C89 O94 1.209 . S
C89 O96 1.226 . S
O90 Cd86 2.273 . S
O90 Cd88 2.411 . S
O90 C93 1.320 . S
O91 Cd88 2.333 . S
O91 C93 1.214 . S
O92 Cd88 2.352 . S
O92 C95 1.258 . S
C93 O90 1.320 . S
C93 O91 1.214 . S
O94 Cd86 2.277 . S
O94 C89 1.209 . S
C95 O92 1.258 . S
C95 O97 1.282 . S
O96 Cd88 2.277 . S
O96 C89 1.226 . S
O97 Cd88 2.356 . S
O97 C95 1.282 . S
C98 O99 1.306 . S
C98 O101 1.160 . S
O99 C98 1.306 . S
O99 Cd100 2.228 1_554 S
Cd100 O99 2.228 1_556 S
Cd100 O104 2.273 . S
Cd100 O108 2.277 . S
O101 C98 1.160 . S
O101 Cd102 2.203 1_554 S
Cd102 O101 2.203 1_556 S
Cd102 O104 2.411 . S
Cd102 O105 2.333 . S
Cd102 O106 2.352 1_556 S
Cd102 O110 2.277 1_556 S
Cd102 O111 2.356 . S
C103 O108 1.209 1_554 S
C103 O110 1.226 . S
O104 Cd100 2.273 . S
O104 Cd102 2.411 . S
O104 C107 1.320 . S
O105 Cd102 2.333 . S
O105 C107 1.214 . S
O106 Cd102 2.352 1_554 S
O106 C109 1.258 1_554 S
C107 O104 1.320 . S
C107 O105 1.214 . S
O108 Cd100 2.277 . S
O108 C103 1.209 1_556 S
C109 O106 1.258 1_556 S
C109 O111 1.282 . S
O110 Cd102 2.277 1_554 S
O110 C103 1.226 . S
O111 Cd102 2.356 . S
O111 C109 1.282 . S
C112 C113 1.387 . S
C112 H116 0.950 . S
C112 C121 1.390 . S
C113 C112 1.387 . S
C113 C115 1.387 . S
H114 C121 0.950 . S
C115 C113 1.387 . S
C115 C117 1.390 . S
C115 H119 0.950 . S
H116 C112 0.950 . S
C117 C115 1.390 . S
C117 C118 1.387 . S
C117 H120 0.950 . S
C118 C117 1.387 . S
C118 C121 1.387 . S
H119 C115 0.950 . S
H120 C117 0.950 . S
C121 C112 1.390 . S
C121 H114 0.950 . S
C121 C118 1.387 . S
C122 C123 1.387 . S
C122 H126 0.950 . S
C122 C131 1.390 . S
C123 C122 1.387 . S
C123 C125 1.387 . S
H124 C131 0.950 . S
C125 C123 1.387 . S
C125 C127 1.390 . S
C125 H129 0.950 . S
H126 C122 0.950 . S
C127 C125 1.390 . S
C127 C128 1.387 . S
C127 H130 0.950 . S
C128 C127 1.387 . S
C128 C131 1.387 . S
H129 C125 0.950 . S
H130 C127 0.950 . S
C131 C122 1.390 . S
C131 H124 0.950 . S
C131 C128 1.387 . S
C132 C133 1.387 . S
C132 H136 0.950 . S
C132 C141 1.390 . S
C133 C132 1.387 . S
C133 C135 1.387 . S
H134 C141 0.950 . S
C135 C133 1.387 . S
C135 C137 1.390 . S
C135 H139 0.950 . S
H136 C132 0.950 . S
C137 C135 1.390 . S
C137 C138 1.387 . S
C137 H140 0.950 . S
C138 C137 1.387 . S
C138 C141 1.387 . S
H139 C135 0.950 . S
H140 C137 0.950 . S
C141 C132 1.390 . S
C141 H134 0.950 . S
C141 C138 1.387 . S
C142 C143 1.387 . S
C142 H146 0.950 . S
C142 C151 1.390 . S
C143 C142 1.387 . S
C143 C145 1.387 . S
H144 C151 0.950 . S
C145 C143 1.387 . S
C145 C147 1.390 . S
C145 H149 0.950 . S
H146 C142 0.950 . S
C147 C145 1.390 . S
C147 C148 1.387 . S
C147 H150 0.950 . S
C148 C147 1.387 . S
C148 C151 1.387 . S
H149 C145 0.950 . S
H150 C147 0.950 . S
C151 C142 1.390 . S
C151 H144 0.950 . S
C151 C148 1.387 . S
C152 C153 1.387 . S
C152 H156 0.950 . S
C152 C161 1.390 . S
C153 C152 1.387 . S
C153 C155 1.387 . S
H154 C161 0.950 . S
C155 C153 1.387 . S
C155 C157 1.390 . S
C155 H159 0.950 . S
H156 C152 0.950 . S
C157 C155 1.390 . S
C157 C158 1.387 . S
C157 H160 0.950 . S
C158 C157 1.387 . S
C158 C161 1.387 . S
H159 C155 0.950 . S
H160 C157 0.950 . S
C161 C152 1.390 . S
C161 H154 0.950 . S
C161 C158 1.387 . S
C162 C163 1.387 . S
C162 H166 0.950 . S
C162 C171 1.390 . S
C163 C162 1.387 . S
C163 C165 1.387 . S
H164 C171 0.950 . S
C165 C163 1.387 . S
C165 C167 1.390 . S
C165 H169 0.950 . S
H166 C162 0.950 . S
C167 C165 1.390 . S
C167 C168 1.387 . S
C167 H170 0.950 . S
C168 C167 1.387 . S
C168 C171 1.387 . S
H169 C165 0.950 . S
H170 C167 0.950 . S
C171 C162 1.390 . S
C171 H164 0.950 . S
C171 C168 1.387 . S
C172 C173 1.387 . S
C172 H176 0.950 . S
C172 C181 1.390 . S
C173 C172 1.387 . S
C173 C175 1.387 . S
H174 C181 0.950 . S
C175 C173 1.387 . S
C175 C177 1.390 . S
C175 H179 0.950 . S
H176 C172 0.950 . S
C177 C175 1.390 . S
C177 C178 1.387 . S
C177 H180 0.950 . S
C178 C177 1.387 . S
C178 C181 1.387 . S
H179 C175 0.950 . S
H180 C177 0.950 . S
C181 C172 1.390 . S
C181 H174 0.950 . S
C181 C178 1.387 . S
C182 C183 1.387 . S
C182 H186 0.950 . S
C182 C191 1.390 . S
C183 C182 1.387 . S
C183 C185 1.387 . S
H184 C191 0.950 . S
C185 C183 1.387 . S
C185 C187 1.390 . S
C185 H189 0.950 . S
H186 C182 0.950 . S
C187 C185 1.390 . S
C187 C188 1.387 . S
C187 H190 0.950 . S
C188 C187 1.387 . S
C188 C191 1.387 . S
H189 C185 0.950 . S
H190 C187 0.950 . S
C191 C182 1.390 . S
C191 H184 0.950 . S
C191 C188 1.387 . S
C192 C193 1.387 . S
C192 H196 0.950 . S
C192 C201 1.390 1_655 S
C193 C192 1.387 . S
C193 C195 1.388 1_556 S
H194 C201 0.950 . S
C195 C193 1.388 1_554 S
C195 C197 1.390 1_655 S
C195 H199 0.950 . S
H196 C192 0.950 . S
C197 C195 1.390 1_455 S
C197 C198 1.388 1_554 S
C197 H200 0.950 . S
C198 C197 1.388 1_556 S
C198 C201 1.387 . S
H199 C195 0.950 . S
H200 C197 0.950 . S
C201 C192 1.390 1_455 S
C201 H194 0.950 . S
C201 C198 1.387 . S
C202 C203 1.387 . S
C202 H206 0.950 . S
C202 C211 1.390 1_565 S
C203 C202 1.387 . S
C203 C205 1.387 . S
H204 C211 0.950 . S
C205 C203 1.387 . S
C205 C207 1.390 1_565 S
C205 H209 0.950 . S
H206 C202 0.950 . S
C207 C205 1.390 1_545 S
C207 C208 1.387 . S
C207 H210 0.950 . S
C208 C207 1.387 . S
C208 C211 1.387 . S
H209 C205 0.950 . S
H210 C207 0.950 . S
C211 C202 1.390 1_545 S
C211 H204 0.950 . S
C211 C208 1.387 . S
C212 C213 1.387 . S
C212 H216 0.950 . S
C212 C221 1.390 1_455 S
C213 C212 1.387 . S
C213 C215 1.387 . S
H214 C221 0.950 . S
C215 C213 1.387 . S
C215 C217 1.390 1_455 S
C215 H219 0.950 . S
H216 C212 0.950 . S
C217 C215 1.390 1_655 S
C217 C218 1.387 . S
C217 H220 0.950 . S
C218 C217 1.387 . S
C218 C221 1.387 . S
H219 C215 0.950 . S
H220 C217 0.950 . S
C221 C212 1.390 1_655 S
C221 H214 0.950 . S
C221 C218 1.387 . S
C222 C223 1.391 . S
C222 H226 0.950 . S
C222 C231 1.390 1_565 S
C223 C222 1.391 . S
C223 C225 1.384 1_554 S
H224 C231 0.950 . S
C225 C223 1.384 1_556 S
C225 C227 1.390 1_565 S
C225 H229 0.950 . S
H226 C222 0.950 . S
C227 C225 1.390 1_545 S
C227 C228 1.384 1_556 S
C227 H230 0.950 . S
C228 C227 1.384 1_554 S
C228 C231 1.391 . S
H229 C225 0.950 . S
H230 C227 0.950 . S
C231 C222 1.390 1_545 S
C231 H224 0.950 . S
C231 C228 1.391 . S
C232 C233 1.387 1_556 S
C232 H236 0.950 . S
C232 C241 1.390 . S
C233 C232 1.387 1_554 S
C233 C235 1.387 . S
H234 C241 0.950 . S
C235 C233 1.387 . S
C235 C237 1.390 . S
C235 H239 0.950 . S
H236 C232 0.950 . S
C237 C235 1.390 . S
C237 C238 1.387 1_554 S
C237 H240 0.950 . S
C238 C237 1.387 1_556 S
C238 C241 1.387 . S
H239 C235 0.950 . S
H240 C237 0.950 . S
C241 C232 1.390 . S
C241 H234 0.950 . S
C241 C238 1.387 . S
C242 C243 1.387 . S
C242 H246 0.950 . S
C242 C251 1.390 . S
C243 C242 1.387 . S
C243 C245 1.387 . S
H244 C251 0.950 . S
C245 C243 1.387 . S
C245 C247 1.390 . S
C245 H249 0.950 . S
H246 C242 0.950 . S
C247 C245 1.390 . S
C247 C248 1.387 . S
C247 H250 0.950 . S
C248 C247 1.387 . S
C248 C251 1.387 . S
H249 C245 0.950 . S
H250 C247 0.950 . S
C251 C242 1.390 . S
C251 H244 0.950 . S
C251 C248 1.387 . S
C252 C253 1.387 . S
C252 H256 0.950 . S
C252 C261 1.390 . S
C253 C252 1.387 . S
C253 C255 1.387 1_554 S
H254 C261 0.950 . S
C255 C253 1.387 1_556 S
C255 C257 1.390 . S
C255 H259 0.950 . S
H256 C252 0.950 . S
C257 C255 1.390 . S
C257 C258 1.387 . S
C257 H260 0.950 . S
C258 C257 1.387 . S
C258 C261 1.387 1_556 S
H259 C255 0.950 . S
H260 C257 0.950 . S
C261 C252 1.390 . S
C261 H254 0.950 . S
C261 C258 1.387 1_554 S
C262 C263 1.387 . S
C262 H266 0.950 . S
C262 C271 1.390 . S
C263 C262 1.387 . S
C263 C265 1.387 . S
H264 C271 0.950 . S
C265 C263 1.387 . S
C265 C267 1.390 . S
C265 H269 0.950 . S
H266 C262 0.950 . S
C267 C265 1.390 . S
C267 C268 1.387 . S
C267 H270 0.950 . S
C268 C267 1.387 . S
C268 C271 1.387 . S
H269 C265 0.950 . S
H270 C267 0.950 . S
C271 C262 1.390 . S
C271 H264 0.950 . S
C271 C268 1.387 . S
C113 C9 1.393 . S
C118 C65 1.393 . S
C123 C23 1.389 . S
C128 C79 1.389 . S
C133 C93 1.393 . S
C138 C37 1.393 . S
C143 C107 1.389 . S
C148 C51 1.389 . S
C153 C84 1.371 . S
C158 C28 1.371 . S
C163 C98 1.371 . S
C168 C42 1.371 . S
C173 C0 1.373 . S
C178 C56 1.373 . S
C183 C14 1.371 . S
C188 C70 1.371 . S
C193 C33 1.428 1_556 S
C198 C5 1.428 1_556 S
C203 C47 1.428 . S
C208 C19 1.428 . S
C213 C61 1.428 . S
C218 C89 1.428 . S
C223 C103 1.428 . S
C228 C75 1.428 . S
C233 C11 1.394 . S
C238 C81 1.393 . S
C243 C95 1.394 . S
C248 C25 1.394 . S
C253 C39 1.393 . S
C258 C109 1.394 . S
C263 C53 1.394 . S
C268 C67 1.394 . S
