# Generated by pormake.
# Topology ukm, (4)-cn, num edge types: 1
# Building blocks:
#     Node 0, Type 0, BuildingBlock: CEKHIL_clean_sbu_0, # of connection points: 4
#     Node 1, Type 0, BuildingBlock: CEKHIL_clean_sbu_0, # of connection points: 4
#     Node 2, Type 0, BuildingBlock: CEKHIL_clean_sbu_0, # of connection points: 4
#     Node 3, Type 0, BuildingBlock: CEKHIL_clean_sbu_0, # of connection points: 4
#     Node 4, Type 0, BuildingBlock: CEKHIL_clean_sbu_0, # of connection points: 4
#     Node 5, Type 0, BuildingBlock: CEKHIL_clean_sbu_0, # of connection points: 4
#     Node 6, Type 0, BuildingBlock: CEKHIL_clean_sbu_0, # of connection points: 4
#     Node 7, Type 0, BuildingBlock: CEKHIL_clean_sbu_0, # of connection points: 4
#     Node 8, Type 0, BuildingBlock: CEKHIL_clean_sbu_0, # of connection points: 4
#     Node 9, Type 0, BuildingBlock: CEKHIL_clean_sbu_0, # of connection points: 4
#     Node 10, Type 0, BuildingBlock: CEKHIL_clean_sbu_0, # of connection points: 4
#     Node 11, Type 0, BuildingBlock: CEKHIL_clean_sbu_0, # of connection points: 4
#     Node 12, Type 0, BuildingBlock: CEKHIL_clean_sbu_0, # of connection points: 4
#     Node 13, Type 0, BuildingBlock: CEKHIL_clean_sbu_0, # of connection points: 4
#     Node 14, Type 0, BuildingBlock: CEKHIL_clean_sbu_0, # of connection points: 4
#     Node 15, Type 0, BuildingBlock: CEKHIL_clean_sbu_0, # of connection points: 4
#     Node 16, Type 0, BuildingBlock: CEKHIL_clean_sbu_0, # of connection points: 4
#     Node 17, Type 0, BuildingBlock: CEKHIL_clean_sbu_0, # of connection points: 4
#     Node 18, Type 0, BuildingBlock: CEKHIL_clean_sbu_0, # of connection points: 4
#     Node 19, Type 0, BuildingBlock: CEKHIL_clean_sbu_0, # of connection points: 4
#     Node 20, Type 0, BuildingBlock: CEKHIL_clean_sbu_0, # of connection points: 4
#     Node 21, Type 0, BuildingBlock: CEKHIL_clean_sbu_0, # of connection points: 4
#     Node 22, Type 0, BuildingBlock: CEKHIL_clean_sbu_0, # of connection points: 4
#     Node 23, Type 0, BuildingBlock: CEKHIL_clean_sbu_0, # of connection points: 4
#     Node 24, Type 0, BuildingBlock: CEKHIL_clean_sbu_0, # of connection points: 4
#     Node 25, Type 0, BuildingBlock: CEKHIL_clean_sbu_0, # of connection points: 4
#     Node 26, Type 0, BuildingBlock: CEKHIL_clean_sbu_0, # of connection points: 4
#     Node 27, Type 0, BuildingBlock: CEKHIL_clean_sbu_0, # of connection points: 4
#     Node 28, Type 0, BuildingBlock: CEKHIL_clean_sbu_0, # of connection points: 4
#     Node 29, Type 0, BuildingBlock: CEKHIL_clean_sbu_0, # of connection points: 4
#     Node 30, Type 0, BuildingBlock: CEKHIL_clean_sbu_0, # of connection points: 4
#     Node 31, Type 0, BuildingBlock: CEKHIL_clean_sbu_0, # of connection points: 4
#     Edge 32, Type (0, 0), BuildingBlock: ZUJKAS_clean_linker_0, # of connection points: 2
#     Edge 33, Type (0, 0), BuildingBlock: ZUJKAS_clean_linker_0, # of connection points: 2
#     Edge 34, Type (0, 0), BuildingBlock: ZUJKAS_clean_linker_0, # of connection points: 2
#     Edge 35, Type (0, 0), BuildingBlock: ZUJKAS_clean_linker_0, # of connection points: 2
#     Edge 36, Type (0, 0), BuildingBlock: ZUJKAS_clean_linker_0, # of connection points: 2
#     Edge 37, Type (0, 0), BuildingBlock: ZUJKAS_clean_linker_0, # of connection points: 2
#     Edge 38, Type (0, 0), BuildingBlock: ZUJKAS_clean_linker_0, # of connection points: 2
#     Edge 39, Type (0, 0), BuildingBlock: ZUJKAS_clean_linker_0, # of connection points: 2
#     Edge 40, Type (0, 0), BuildingBlock: ZUJKAS_clean_linker_0, # of connection points: 2
#     Edge 41, Type (0, 0), BuildingBlock: ZUJKAS_clean_linker_0, # of connection points: 2
#     Edge 42, Type (0, 0), BuildingBlock: ZUJKAS_clean_linker_0, # of connection points: 2
#     Edge 43, Type (0, 0), BuildingBlock: ZUJKAS_clean_linker_0, # of connection points: 2
#     Edge 44, Type (0, 0), BuildingBlock: ZUJKAS_clean_linker_0, # of connection points: 2
#     Edge 45, Type (0, 0), BuildingBlock: ZUJKAS_clean_linker_0, # of connection points: 2
#     Edge 46, Type (0, 0), BuildingBlock: ZUJKAS_clean_linker_0, # of connection points: 2
#     Edge 47, Type (0, 0), BuildingBlock: ZUJKAS_clean_linker_0, # of connection points: 2
#     Edge 48, Type (0, 0), BuildingBlock: ZUJKAS_clean_linker_0, # of connection points: 2
#     Edge 49, Type (0, 0), BuildingBlock: ZUJKAS_clean_linker_0, # of connection points: 2
#     Edge 50, Type (0, 0), BuildingBlock: ZUJKAS_clean_linker_0, # of connection points: 2
#     Edge 51, Type (0, 0), BuildingBlock: ZUJKAS_clean_linker_0, # of connection points: 2
#     Edge 52, Type (0, 0), BuildingBlock: ZUJKAS_clean_linker_0, # of connection points: 2
#     Edge 53, Type (0, 0), BuildingBlock: ZUJKAS_clean_linker_0, # of connection points: 2
#     Edge 54, Type (0, 0), BuildingBlock: ZUJKAS_clean_linker_0, # of connection points: 2
#     Edge 55, Type (0, 0), BuildingBlock: ZUJKAS_clean_linker_0, # of connection points: 2
#     Edge 56, Type (0, 0), BuildingBlock: ZUJKAS_clean_linker_0, # of connection points: 2
#     Edge 57, Type (0, 0), BuildingBlock: ZUJKAS_clean_linker_0, # of connection points: 2
#     Edge 58, Type (0, 0), BuildingBlock: ZUJKAS_clean_linker_0, # of connection points: 2
#     Edge 59, Type (0, 0), BuildingBlock: ZUJKAS_clean_linker_0, # of connection points: 2
#     Edge 60, Type (0, 0), BuildingBlock: ZUJKAS_clean_linker_0, # of connection points: 2
#     Edge 61, Type (0, 0), BuildingBlock: ZUJKAS_clean_linker_0, # of connection points: 2
#     Edge 62, Type (0, 0), BuildingBlock: ZUJKAS_clean_linker_0, # of connection points: 2
#     Edge 63, Type (0, 0), BuildingBlock: ZUJKAS_clean_linker_0, # of connection points: 2
#     Edge 64, Type (0, 0), BuildingBlock: ZUJKAS_clean_linker_0, # of connection points: 2
#     Edge 65, Type (0, 0), BuildingBlock: ZUJKAS_clean_linker_0, # of connection points: 2
#     Edge 66, Type (0, 0), BuildingBlock: ZUJKAS_clean_linker_0, # of connection points: 2
#     Edge 67, Type (0, 0), BuildingBlock: ZUJKAS_clean_linker_0, # of connection points: 2
#     Edge 68, Type (0, 0), BuildingBlock: ZUJKAS_clean_linker_0, # of connection points: 2
#     Edge 69, Type (0, 0), BuildingBlock: ZUJKAS_clean_linker_0, # of connection points: 2
#     Edge 70, Type (0, 0), BuildingBlock: ZUJKAS_clean_linker_0, # of connection points: 2
#     Edge 71, Type (0, 0), BuildingBlock: ZUJKAS_clean_linker_0, # of connection points: 2
#     Edge 72, Type (0, 0), BuildingBlock: ZUJKAS_clean_linker_0, # of connection points: 2
#     Edge 73, Type (0, 0), BuildingBlock: ZUJKAS_clean_linker_0, # of connection points: 2
#     Edge 74, Type (0, 0), BuildingBlock: ZUJKAS_clean_linker_0, # of connection points: 2
#     Edge 75, Type (0, 0), BuildingBlock: ZUJKAS_clean_linker_0, # of connection points: 2
#     Edge 76, Type (0, 0), BuildingBlock: ZUJKAS_clean_linker_0, # of connection points: 2
#     Edge 77, Type (0, 0), BuildingBlock: ZUJKAS_clean_linker_0, # of connection points: 2
#     Edge 78, Type (0, 0), BuildingBlock: ZUJKAS_clean_linker_0, # of connection points: 2
#     Edge 79, Type (0, 0), BuildingBlock: ZUJKAS_clean_linker_0, # of connection points: 2
#     Edge 80, Type (0, 0), BuildingBlock: ZUJKAS_clean_linker_0, # of connection points: 2
#     Edge 81, Type (0, 0), BuildingBlock: ZUJKAS_clean_linker_0, # of connection points: 2
#     Edge 82, Type (0, 0), BuildingBlock: ZUJKAS_clean_linker_0, # of connection points: 2
#     Edge 83, Type (0, 0), BuildingBlock: ZUJKAS_clean_linker_0, # of connection points: 2
#     Edge 84, Type (0, 0), BuildingBlock: ZUJKAS_clean_linker_0, # of connection points: 2
#     Edge 85, Type (0, 0), BuildingBlock: ZUJKAS_clean_linker_0, # of connection points: 2
#     Edge 86, Type (0, 0), BuildingBlock: ZUJKAS_clean_linker_0, # of connection points: 2
#     Edge 87, Type (0, 0), BuildingBlock: ZUJKAS_clean_linker_0, # of connection points: 2
#     Edge 88, Type (0, 0), BuildingBlock: ZUJKAS_clean_linker_0, # of connection points: 2
#     Edge 89, Type (0, 0), BuildingBlock: ZUJKAS_clean_linker_0, # of connection points: 2
#     Edge 90, Type (0, 0), BuildingBlock: ZUJKAS_clean_linker_0, # of connection points: 2
#     Edge 91, Type (0, 0), BuildingBlock: ZUJKAS_clean_linker_0, # of connection points: 2
#     Edge 92, Type (0, 0), BuildingBlock: ZUJKAS_clean_linker_0, # of connection points: 2
#     Edge 93, Type (0, 0), BuildingBlock: ZUJKAS_clean_linker_0, # of connection points: 2
#     Edge 94, Type (0, 0), BuildingBlock: ZUJKAS_clean_linker_0, # of connection points: 2
#     Edge 95, Type (0, 0), BuildingBlock: ZUJKAS_clean_linker_0, # of connection points: 2
# Relax obj value: 0.247
# Max RMSD: 0.190
# Mean RMSD: 0.187
data_MOF--net-ukm--node1-CEKHIL_clean_sbu_0--edge1-ZUJKAS_clean_linker_0
_symmetry_space_group_name_H-M    P1
_symmetry_Int_Tables_number       1
_symmetry_cell_setting            triclinic
loop_
_symmetry_equiv_pos_as_xyz
'x, y, z'
_cell_length_a     30.219423
_cell_length_b     133.88165
_cell_length_c     54.975424
_cell_angle_alpha  89.983829
_cell_angle_beta   89.993172
_cell_angle_gamma 89.981927
loop_
_atom_site_label
_atom_site_type_symbol
_atom_site_fract_x
_atom_site_fract_y
_atom_site_fract_z
_atom_type_partial_charge
Co0 Co 0.10255 0.31118 0.30247 0.0
O1 O 0.11602 0.29825 0.28933 0.0
O2 O 0.04829 0.30404 0.29556 0.0
C3 C 0.15282 0.31062 0.33259 0.0
O4 O 0.07608 0.32408 0.31605 0.0
Co5 Co 0.1756 0.32771 0.30202 0.0
O6 O 0.1294 0.33584 0.31799 0.0
C7 C 0.13365 0.32127 0.25644 0.0
C8 C 0.07363 0.29687 0.28769 0.0
C9 C 0.08958 0.33297 0.3211 0.0
O10 O 0.10305 0.31682 0.26858 0.0
O11 O 0.1678 0.32517 0.26639 0.0
O12 O 0.11462 0.3063 0.33556 0.0
O13 O 0.16016 0.31426 0.31133 0.0
Co14 Co 0.15691 0.93704 0.29125 0.0
O15 O 0.14373 0.94907 0.27374 0.0
O16 O 0.21095 0.94439 0.28502 0.0
C17 C 0.10131 0.93888 0.31811 0.0
O18 O 0.18304 0.92527 0.31015 0.0
Co19 Co 0.08838 0.91972 0.29461 0.0
O20 O 0.12719 0.91516 0.32136 0.0
C21 C 0.13691 0.92343 0.24877 0.0
C22 C 0.18581 0.95095 0.27431 0.0
C23 C 0.1675 0.91788 0.32252 0.0
O24 O 0.16273 0.92966 0.25956 0.0
O25 O 0.10387 0.91923 0.25918 0.0
O26 O 0.13861 0.94349 0.3217 0.0
O27 O 0.09838 0.93388 0.29817 0.0
Co28 Co 0.10316 0.93814 0.94803 0.0
O29 O 0.11292 0.95055 0.96459 0.0
O30 O 0.04688 0.94437 0.95569 0.0
C31 C 0.155 0.94081 0.91958 0.0
O32 O 0.08045 0.92572 0.93023 0.0
Co33 Co 0.1782 0.92232 0.94379 0.0
O34 O 0.1395 0.91678 0.91809 0.0
C35 C 0.13119 0.9251 0.99042 0.0
C36 C 0.07026 0.9515 0.96538 0.0
C37 C 0.09819 0.91866 0.91765 0.0
O38 O 0.10297 0.93093 0.98013 0.0
O39 O 0.16483 0.92143 0.97943 0.0
O40 O 0.11577 0.94463 0.91676 0.0
O41 O 0.16218 0.93618 0.9397 0.0
Co42 Co 0.13501 0.31186 0.94945 0.0
O43 O 0.12611 0.29874 0.96254 0.0
O44 O 0.19161 0.30535 0.95431 0.0
C45 C 0.08142 0.31059 0.92121 0.0
O46 O 0.15661 0.3251 0.93518 0.0
Co47 Co 0.05836 0.32748 0.95199 0.0
O48 O 0.09885 0.33564 0.93197 0.0
C49 C 0.10604 0.32146 -0.00365 0.0
C50 C 0.16881 0.2978 0.96245 0.0
C51 C 0.13953 0.33351 0.92864 0.0
O52 O 0.13667 0.31741 0.98343 0.0
O53 O 0.07029 0.32499 0.98728 0.0
O54 O 0.12039 0.30689 0.91674 0.0
O55 O 0.07587 0.31418 0.94267 0.0
Co56 Co 0.90411 0.68315 0.706 0.0
O57 O 0.93801 0.68389 0.73576 0.0
O58 O 0.86539 0.68602 0.73245 0.0
C59 C 0.93362 0.66907 0.69107 0.0
O60 O 0.8565 0.68255 0.68045 0.0
Co61 Co 0.94305 0.68522 0.65477 0.0
O62 O 0.88293 0.6817 0.64252 0.0
C63 C 0.93739 0.70291 0.68609 0.0
C64 C 0.90017 0.6857 0.74623 0.0
C65 C 0.8508 0.68152 0.65751 0.0
O66 O 0.9131 0.69781 0.70061 0.0
O67 O 0.9564 0.69907 0.66749 0.0
O68 O 0.90335 0.66877 0.70784 0.0
O69 O 0.94847 0.67788 0.68546 0.0
Co70 Co 0.83629 0.0644 0.70175 0.0
O71 O 0.8048 0.06633 0.73204 0.0
O72 O 0.87563 0.06221 0.72828 0.0
C73 C 0.81216 0.07815 0.68262 0.0
O74 O 0.88217 0.0623 0.67578 0.0
Co75 Co 0.79491 0.06061 0.65198 0.0
O76 O 0.85541 0.06208 0.63795 0.0
C77 C 0.79496 0.04446 0.68829 0.0
C78 C 0.84255 0.06429 0.74238 0.0
C79 C 0.88782 0.06208 0.65272 0.0
O80 O 0.81983 0.0499 0.70178 0.0
O81 O 0.77862 0.04759 0.66818 0.0
O82 O 0.84422 0.07861 0.69832 0.0
O83 O 0.79288 0.06954 0.68024 0.0
Co84 Co 0.90383 0.06562 0.04073 0.0
O85 O 0.93976 0.06613 0.01159 0.0
O86 O 0.86777 0.06291 0.01313 0.0
C87 C 0.92879 0.07971 0.05797 0.0
O88 O 0.85397 0.06493 0.06504 0.0
Co89 Co 0.93763 0.0631 0.09274 0.0
O90 O 0.87649 0.06642 0.10355 0.0
C91 C 0.93689 0.04567 0.06014 0.0
C92 C 0.90309 0.06412 0.0001 0.0
C93 C 0.84579 0.06597 0.08776 0.0
O94 O 0.91675 0.05102 0.04427 0.0
O95 O 0.9503 0.04915 0.08056 0.0
O96 O 0.8992 0.07998 0.04084 0.0
O97 O 0.9453 0.07099 0.06299 0.0
Co98 Co 0.8335 0.68313 0.04273 0.0
O99 O 0.79916 0.68465 0.01326 0.0
O100 O 0.87183 0.68665 0.01662 0.0
C101 C 0.80414 0.66873 0.05577 0.0
O102 O 0.8816 0.68176 0.06781 0.0
Co103 Co 0.79583 0.68388 0.09455 0.0
O104 O 0.8564 0.68024 0.10591 0.0
C105 C 0.80016 0.70228 0.06566 0.0
C106 C 0.83692 0.68669 0.00293 0.0
C107 C 0.88792 0.68025 0.09055 0.0
O108 O 0.82481 0.69762 0.05043 0.0
O109 O 0.78138 0.69792 0.08364 0.0
O110 O 0.83387 0.66881 0.03869 0.0
O111 O 0.78962 0.67739 0.06279 0.0
Co112 Co 0.1183 0.80931 0.80056 0.0
O113 O 0.1264 0.79582 0.78979 0.0
O114 O 0.06127 0.8032 0.7942 0.0
C115 C 0.16741 0.80853 0.8311 0.0
O116 O 0.09784 0.82311 0.81198 0.0
Co117 Co 0.19891 0.82395 0.79785 0.0
O118 O 0.15736 0.83324 0.81401 0.0
C119 C 0.15463 0.81727 0.75318 0.0
C120 C 0.0837 0.79529 0.78794 0.0
C121 C 0.11613 0.83158 0.81693 0.0
O122 O 0.12189 0.81398 0.76581 0.0
O123 O 0.1904 0.82057 0.76271 0.0
O124 O 0.12759 0.80512 0.83453 0.0
O125 O 0.17666 0.81132 0.80934 0.0
Co126 Co 0.14558 0.43602 0.79471 0.0
O127 O 0.13311 0.44922 0.78318 0.0
O128 O 0.20048 0.44306 0.78836 0.0
C129 C 0.09563 0.43644 0.82503 0.0
O130 O 0.17056 0.42274 0.80699 0.0
Co131 Co 0.07025 0.42002 0.79307 0.0
O132 O 0.11494 0.41154 0.80923 0.0
C133 C 0.11228 0.42699 0.74793 0.0
C134 C 0.17553 0.45052 0.78179 0.0
C135 C 0.1554 0.41398 0.81209 0.0
O136 O 0.14394 0.43096 0.76024 0.0
O137 O 0.07771 0.42323 0.75777 0.0
O138 O 0.13449 0.44039 0.82832 0.0
O139 O 0.0878 0.43317 0.80348 0.0
Co140 Co 0.09961 0.43693 0.44358 0.0
O141 O 0.11482 0.44922 0.45951 0.0
O142 O 0.04657 0.44458 0.45012 0.0
C143 C 0.15366 0.43789 0.41558 0.0
O144 O 0.07134 0.42494 0.42662 0.0
Co145 Co 0.1667 0.41924 0.44148 0.0
O146 O 0.12491 0.41394 0.41697 0.0
C147 C 0.12344 0.42481 0.4877 0.0
C148 C 0.07277 0.45118 0.45984 0.0
C149 C 0.08506 0.417 0.41572 0.0
O150 O 0.09525 0.43022 0.47614 0.0
O151 O 0.15634 0.42052 0.47737 0.0
O152 O 0.11683 0.44272 0.41207 0.0
O153 O 0.15718 0.43331 0.43605 0.0
Co154 Co 0.13611 0.8128 0.44545 0.0
O155 O 0.12261 0.79973 0.45762 0.0
O156 O 0.19011 0.80512 0.44905 0.0
C157 C 0.08127 0.8131 0.41776 0.0
O158 O 0.16225 0.8258 0.43219 0.0
Co159 Co 0.06581 0.82973 0.4512 0.0
O160 O 0.11007 0.83783 0.43359 0.0
C161 C 0.11294 0.8219 0.4939 0.0
C162 C 0.16482 0.798 0.45722 0.0
C163 C 0.14902 0.83483 0.42849 0.0
O164 O 0.14145 0.8177 0.47987 0.0
O165 O 0.07796 0.8262 0.48597 0.0
O166 O 0.11844 0.80869 0.41254 0.0
O167 O 0.07779 0.81639 0.43965 0.0
Co168 Co 0.91273 0.18428 0.20678 0.0
O169 O 0.94833 0.18561 0.23581 0.0
O170 O 0.87549 0.18758 0.23359 0.0
C171 C 0.94188 0.17 0.19275 0.0
O172 O 0.86378 0.18307 0.18208 0.0
Co173 Co 0.94949 0.18553 0.15477 0.0
O174 O 0.88891 0.18162 0.14394 0.0
C175 C 0.94449 0.20369 0.18436 0.0
C176 C 0.91109 0.18759 0.24675 0.0
C177 C 0.85738 0.18158 0.15933 0.0
O178 O 0.92062 0.19884 0.19959 0.0
O179 O 0.96335 0.19955 0.16612 0.0
O180 O 0.91282 0.16991 0.21017 0.0
O181 O 0.95605 0.17874 0.1861 0.0
Co182 Co 0.83949 0.56301 0.20247 0.0
O183 O 0.80626 0.56334 0.2325 0.0
O184 O 0.87762 0.55966 0.22887 0.0
C185 C 0.81494 0.57743 0.18671 0.0
O186 O 0.88648 0.56235 0.17655 0.0
Co187 Co 0.79875 0.5612 0.15161 0.0
O188 O 0.85928 0.56408 0.13897 0.0
C189 C 0.79978 0.54364 0.18366 0.0
C190 C 0.84343 0.56082 0.24284 0.0
C191 C 0.89184 0.56345 0.15359 0.0
O192 O 0.82473 0.54855 0.19822 0.0
O193 O 0.78255 0.54755 0.16461 0.0
O194 O 0.84584 0.57736 0.20316 0.0
O195 O 0.79674 0.56887 0.18191 0.0
Co196 Co 0.91485 0.56533 0.53926 0.0
O197 O 0.94975 0.56461 0.50982 0.0
O198 O 0.87708 0.56239 0.51247 0.0
C199 C 0.94357 0.57941 0.55459 0.0
O200 O 0.86634 0.56595 0.56432 0.0
Co201 Co 0.95211 0.56321 0.59089 0.0
O202 O 0.89132 0.56642 0.60262 0.0
C203 C 0.94676 0.54549 0.55972 0.0
C204 C 0.91232 0.56267 0.49904 0.0
C205 C 0.85984 0.56678 0.58725 0.0
O206 O 0.92367 0.55068 0.54478 0.0
O207 O 0.965 0.54928 0.57861 0.0
O208 O 0.91407 0.57972 0.5374 0.0
O209 O 0.95834 0.5706 0.56029 0.0
Co210 Co 0.83524 0.18339 0.54258 0.0
O211 O 0.80428 0.18419 0.5119 0.0
O212 O 0.87615 0.18677 0.51746 0.0
C213 C 0.8063 0.16901 0.55601 0.0
O214 O 0.88024 0.1828 0.56948 0.0
Co215 Co 0.7911 0.18471 0.5927 0.0
O216 O 0.85066 0.18184 0.60674 0.0
C217 C 0.79727 0.2027 0.56251 0.0
C218 C 0.8428 0.18637 0.50266 0.0
C219 C 0.88394 0.18177 0.59254 0.0
O220 O 0.8238 0.19794 0.54848 0.0
O221 O 0.77685 0.19852 0.5802 0.0
O222 O 0.83822 0.16903 0.54016 0.0
O223 O 0.78958 0.17766 0.56145 0.0
Co224 Co 0.60442 0.31131 0.79644 0.0
O225 O 0.61607 0.29902 0.77974 0.0
O226 O 0.54911 0.30482 0.78825 0.0
C227 C 0.65601 0.30891 0.82526 0.0
O228 O 0.57994 0.32354 0.8142 0.0
Co229 Co 0.67815 0.32752 0.80105 0.0
O230 O 0.63732 0.33318 0.8256 0.0
C231 C 0.63488 0.32371 0.75383 0.0
C232 C 0.57353 0.29785 0.7786 0.0
C233 C 0.59636 0.33093 0.82618 0.0
O234 O 0.60443 0.3186 0.76445 0.0
O235 O 0.66883 0.32715 0.76496 0.0
O236 O 0.61739 0.30474 0.82766 0.0
O237 O 0.66259 0.31366 0.80526 0.0
Co238 Co 0.6392 0.93322 0.79182 0.0
O239 O 0.62398 0.94591 0.77783 0.0
O240 O 0.69177 0.94139 0.78846 0.0
C241 C 0.58234 0.93301 0.81841 0.0
O242 O 0.6674 0.92088 0.80741 0.0
Co243 Co 0.57339 0.91529 0.7883 0.0
O244 O 0.61769 0.90833 0.80846 0.0
C245 C 0.62414 0.92169 0.74516 0.0
C246 C 0.66565 0.94814 0.77927 0.0
C247 C 0.65585 0.91191 0.81306 0.0
O248 O 0.648 0.92759 0.75818 0.0
O249 O 0.59099 0.91681 0.75346 0.0
O250 O 0.61843 0.93783 0.82377 0.0
O251 O 0.58111 0.92913 0.79701 0.0
Co252 Co 0.61674 0.93578 0.44447 0.0
O253 O 0.62985 0.94724 0.46409 0.0
O254 O 0.56313 0.94333 0.45038 0.0
C255 C 0.67498 0.93789 0.41951 0.0
O256 O 0.5909 0.92467 0.42328 0.0
Co257 Co 0.6833 0.91811 0.44082 0.0
O258 O 0.64561 0.91407 0.41312 0.0
C259 C 0.6333 0.92174 0.48616 0.0
C260 C 0.58806 0.94938 0.46289 0.0
C261 C 0.60607 0.91725 0.41091 0.0
O262 O 0.60729 0.92777 0.47489 0.0
O263 O 0.66729 0.91772 0.47623 0.0
O264 O 0.63855 0.94281 0.41554 0.0
O265 O 0.67541 0.9324 0.43874 0.0
Co266 Co 0.64121 0.31191 0.45098 0.0
O267 O 0.62703 0.29999 0.4688 0.0
O268 O 0.69446 0.30428 0.45693 0.0
C269 C 0.58509 0.31053 0.42438 0.0
O270 O 0.6685 0.32349 0.43198 0.0
Co271 Co 0.57464 0.32969 0.44841 0.0
O272 O 0.61497 0.33454 0.42261 0.0
C273 C 0.62222 0.32514 0.49405 0.0
C274 C 0.66897 0.29793 0.46812 0.0
C275 C 0.6545 0.33132 0.42074 0.0
O276 O 0.64865 0.31927 0.48254 0.0
O277 O 0.58866 0.32932 0.48408 0.0
O278 O 0.62143 0.30554 0.42069 0.0
O279 O 0.58307 0.3155 0.44437 0.0
Co280 Co 0.40388 0.68368 0.19709 0.0
O281 O 0.43808 0.68271 0.22671 0.0
O282 O 0.36646 0.68627 0.22425 0.0
C283 C 0.42893 0.66965 0.17967 0.0
O284 O 0.35565 0.68489 0.17198 0.0
Co285 Co 0.44064 0.68644 0.14589 0.0
O286 O 0.37996 0.68346 0.1338 0.0
C287 C 0.43972 0.70359 0.17932 0.0
C288 C 0.40102 0.68478 0.23773 0.0
C289 C 0.34853 0.68404 0.14912 0.0
O290 O 0.41841 0.69821 0.19465 0.0
O291 O 0.45374 0.70024 0.15892 0.0
O292 O 0.39776 0.66937 0.19594 0.0
O293 O 0.4465 0.67833 0.17544 0.0
Co294 Co 0.33338 0.06796 0.20049 0.0
O295 O 0.30034 0.06753 0.23064 0.0
O296 O 0.37334 0.06643 0.22699 0.0
C297 C 0.2993 0.08112 0.18367 0.0
O298 O 0.38058 0.0686 0.17465 0.0
Co299 Co 0.29553 0.06421 0.1495 0.0
O300 O 0.35485 0.06793 0.13656 0.0
C301 C 0.30605 0.04733 0.18331 0.0
C302 C 0.33894 0.06665 0.24103 0.0
C303 C 0.38651 0.06899 0.15161 0.0
O304 O 0.32839 0.05307 0.1974 0.0
O305 O 0.28683 0.0505 0.16403 0.0
O306 O 0.32967 0.08236 0.20012 0.0
O307 O 0.28744 0.07197 0.17936 0.0
Co308 Co 0.4034 0.06316 0.53929 0.0
O309 O 0.43819 0.06495 0.51007 0.0
O310 O 0.36804 0.06008 0.51162 0.0
C311 C 0.42267 0.07746 0.55767 0.0
O312 O 0.35486 0.06093 0.56374 0.0
Co313 Co 0.43932 0.06066 0.59081 0.0
O314 O 0.37711 0.06203 0.60235 0.0
C315 C 0.446 0.04384 0.55654 0.0
C316 C 0.40236 0.06231 0.49856 0.0
C317 C 0.34657 0.06119 0.58655 0.0
O318 O 0.42266 0.04888 0.54141 0.0
O319 O 0.45889 0.0474 0.57698 0.0
O320 O 0.39233 0.07732 0.54093 0.0
O321 O 0.44306 0.06908 0.5617 0.0
Co322 Co 0.34221 0.68432 0.53635 0.0
O323 O 0.30842 0.68394 0.50654 0.0
O324 O 0.38011 0.68735 0.50962 0.0
C325 C 0.31714 0.67004 0.55257 0.0
O326 O 0.38969 0.68494 0.56192 0.0
Co327 Co 0.30268 0.68645 0.58735 0.0
O328 O 0.36351 0.6837 0.59981 0.0
C329 C 0.30318 0.70379 0.55466 0.0
C330 C 0.34567 0.68615 0.49587 0.0
C331 C 0.39568 0.68405 0.58487 0.0
O332 O 0.32843 0.69886 0.54028 0.0
O333 O 0.2856 0.69993 0.57367 0.0
O334 O 0.34788 0.66997 0.53605 0.0
O335 O 0.29935 0.67866 0.55726 0.0
Co336 Co 0.60163 0.80985 0.30059 0.0
O337 O 0.61163 0.79714 0.28555 0.0
O338 O 0.54559 0.80397 0.29127 0.0
C339 C 0.64917 0.80738 0.33133 0.0
O340 O 0.57873 0.8227 0.31621 0.0
Co341 Co 0.6792 0.82509 0.3056 0.0
O342 O 0.63722 0.83203 0.32749 0.0
C343 C 0.63856 0.82129 0.25772 0.0
C344 C 0.56905 0.79654 0.28306 0.0
C345 C 0.59579 0.83024 0.32732 0.0
O346 O 0.60658 0.81655 0.26798 0.0
O347 O 0.6724 0.82451 0.26934 0.0
O348 O 0.60937 0.80375 0.33284 0.0
O349 O 0.65945 0.81157 0.31107 0.0
Co350 Co 0.63748 0.43434 0.29399 0.0
O351 O 0.62272 0.4471 0.28039 0.0
O352 O 0.69097 0.44193 0.28794 0.0
C353 C 0.5848 0.43478 0.32296 0.0
O354 O 0.66508 0.42172 0.30851 0.0
Co355 Co 0.56719 0.41724 0.29298 0.0
O356 O 0.61337 0.4096 0.31029 0.0
C357 C 0.61058 0.42382 0.24784 0.0
C358 C 0.66486 0.44889 0.27971 0.0
C359 C 0.65257 0.41279 0.31386 0.0
O360 O 0.63996 0.42854 0.26026 0.0
O361 O 0.57652 0.41973 0.25745 0.0
O362 O 0.62237 0.43928 0.32666 0.0
O363 O 0.57979 0.43089 0.30176 0.0
Co364 Co 0.61114 0.4372 0.94429 0.0
O365 O 0.62295 0.44936 0.96159 0.0
O366 O 0.55633 0.44427 0.95023 0.0
C367 C 0.66672 0.43905 0.91755 0.0
O368 O 0.5864 0.42525 0.92557 0.0
Co369 Co 0.68171 0.42019 0.94211 0.0
O370 O 0.64258 0.41488 0.91634 0.0
C371 C 0.6342 0.42463 0.98781 0.0
C372 C 0.58063 0.45097 0.961 0.0
C373 C 0.60236 0.41762 0.91431 0.0
O374 O 0.60574 0.42994 0.97614 0.0
O375 O 0.66864 0.42085 0.97782 0.0
O376 O 0.6294 0.44364 0.91371 0.0
O377 O 0.66977 0.43422 0.9377 0.0
Co378 Co 0.65066 0.81209 0.95481 0.0
O379 O 0.63481 0.80016 0.97206 0.0
O380 O 0.70317 0.80424 0.96146 0.0
C381 C 0.59591 0.81093 0.92728 0.0
O382 O 0.67922 0.82371 0.93652 0.0
Co383 Co 0.58461 0.82996 0.95206 0.0
O384 O 0.6258 0.83471 0.92658 0.0
C385 C 0.63037 0.82516 -0.00195 0.0
C386 C 0.67659 0.79795 0.97208 0.0
C387 C 0.66544 0.83153 0.92513 0.0
O388 O 0.6569 0.81929 0.98664 0.0
O389 O 0.5973 0.82946 0.98788 0.0
O390 O 0.63231 0.80591 0.92404 0.0
O391 O 0.59302 0.8158 0.9474 0.0
Co392 Co 0.40365 0.18452 0.69718 0.0
O393 O 0.44015 0.18279 0.72578 0.0
O394 O 0.36982 0.18758 0.72546 0.0
C395 C 0.42219 0.17021 0.67864 0.0
O396 O 0.35363 0.18668 0.67353 0.0
Co397 Co 0.43661 0.18699 0.64512 0.0
O398 O 0.37421 0.18481 0.6348 0.0
C399 C 0.44322 0.204 0.67875 0.0
C400 C 0.40498 0.18543 0.7379 0.0
C401 C 0.34437 0.18591 0.65089 0.0
O402 O 0.42259 0.19879 0.6947 0.0
O403 O 0.45395 0.2006 0.6578 0.0
O404 O 0.39267 0.17035 0.69582 0.0
O405 O 0.44227 0.17859 0.6742 0.0
Co406 Co 0.34863 0.56563 0.70062 0.0
O407 O 0.31548 0.56808 0.73004 0.0
O408 O 0.38559 0.56309 0.7281 0.0
C409 C 0.32773 0.57951 0.68087 0.0
O410 O 0.3955 0.56293 0.67542 0.0
Co411 Co 0.30838 0.56196 0.6505 0.0
O412 O 0.36935 0.5639 0.63748 0.0
C413 C 0.30639 0.54579 0.68667 0.0
C414 C 0.35174 0.56557 0.74127 0.0
C415 C 0.40144 0.5632 0.65237 0.0
O416 O 0.32991 0.5513 0.70068 0.0
O417 O 0.29152 0.54884 0.66615 0.0
O418 O 0.35926 0.57976 0.69693 0.0
O419 O 0.30724 0.57105 0.67842 0.0
Co420 Co 0.40963 0.56524 0.03939 0.0
O421 O 0.44764 0.5661 0.01124 0.0
O422 O 0.37545 0.56288 0.01075 0.0
C423 C 0.43433 0.57902 0.05806 0.0
O424 O 0.35846 0.56443 0.06282 0.0
Co425 Co 0.4416 0.56188 0.09146 0.0
O426 O 0.37977 0.56484 0.10175 0.0
C427 C 0.44171 0.54499 0.05744 0.0
C428 C 0.41196 0.56424 -0.0012 0.0
C429 C 0.34964 0.56499 0.08557 0.0
O430 O 0.42129 0.55056 0.04213 0.0
O431 O 0.45605 0.54825 0.07786 0.0
O432 O 0.4055 0.57959 0.04058 0.0
O433 O 0.45031 0.57021 0.06255 0.0
Co434 Co 0.35134 0.18407 0.03662 0.0
O435 O 0.31867 0.18448 0.00644 0.0
O436 O 0.39115 0.18662 0.01042 0.0
C437 C 0.32042 0.17018 0.05162 0.0
O438 O 0.39802 0.18372 0.0628 0.0
Co439 Co 0.31087 0.18646 0.08738 0.0
O440 O 0.3702 0.18278 0.1004 0.0
C441 C 0.31773 0.20398 0.05532 0.0
C442 C 0.35693 0.1861 -0.00375 0.0
C443 C 0.40292 0.18272 0.08582 0.0
O444 O 0.34206 0.19876 0.04104 0.0
O445 O 0.29871 0.20027 0.07409 0.0
O446 O 0.35183 0.16966 0.03555 0.0
O447 O 0.3059 0.17905 0.05682 0.0
H448 H 0.00113 0.41207 0.43016 0.0
H449 H 0.95773 0.39773 0.41539 0.0
H450 H 0.05495 0.39258 0.35935 0.0
H451 H 0.09836 0.40668 0.37414 0.0
H452 H 0.95707 0.38883 0.34668 0.0
H453 H 0.02133 0.36988 0.4299 0.0
H454 H 0.99176 0.38155 0.43186 0.0
H455 H 0.04688 0.38132 0.41977 0.0
C456 C 0.01225 0.40808 0.41415 0.0
C457 C 0.0532 0.41039 0.40335 0.0
C458 C 0.98756 0.39988 0.40582 0.0
C459 C 0.00337 0.39408 0.38641 0.0
C460 C 0.04213 0.39699 0.3743 0.0
H461 H 0.0886 0.35229 0.30789 0.0
H462 H 0.04352 0.36569 0.32419 0.0
C463 C 0.06699 0.40502 0.38279 0.0
C464 C 0.98508 0.38409 0.3808 0.0
H465 H 0.01021 0.36 0.3952 0.0
C466 C 0.96682 0.38248 0.35768 0.0
C467 C 0.9968 0.37579 0.39536 0.0
C468 C 0.01522 0.37713 0.42066 0.0
C469 C 0.96565 0.37286 0.34756 0.0
C470 C 0.98459 0.36481 0.36059 0.0
C471 C 0.99637 0.3662 0.38503 0.0
C472 C 0.00436 0.35616 0.34768 0.0
C473 C 0.94796 0.37155 0.32213 0.0
C474 C 0.99765 0.34626 0.35546 0.0
C475 C 0.02376 0.33849 0.346 0.0
C476 C 0.05763 0.34061 0.32925 0.0
C477 C 0.06302 0.35045 0.32096 0.0
C478 C 0.03669 0.35811 0.33 0.0
H479 H 0.9189 0.37649 0.31912 0.0
H480 H 0.97382 0.37375 0.30883 0.0
H481 H 0.93814 0.36369 0.31858 0.0
H482 H 0.97342 0.34462 0.36942 0.0
H483 H 0.01905 0.33095 0.35267 0.0
H484 H 0.25085 0.9117 0.31001 0.0
H485 H 0.29045 0.89733 0.3276 0.0
H486 H 0.19038 0.89487 0.38322 0.0
H487 H 0.15083 0.90902 0.36571 0.0
H488 H 0.28433 0.89016 0.39814 0.0
H489 H 0.22305 0.87007 0.3158 0.0
H490 H 0.2562 0.8812 0.3129 0.0
H491 H 0.20028 0.88211 0.32362 0.0
C492 C 0.23835 0.9083 0.32652 0.0
C493 C 0.19764 0.91138 0.33644 0.0
C494 C 0.26084 0.90008 0.33645 0.0
C495 C 0.24303 0.895 0.35654 0.0
C496 C 0.20471 0.89871 0.36774 0.0
H497 H 0.14834 0.85451 0.4388 0.0
H498 H 0.19342 0.86761 0.42128 0.0
C499 C 0.18205 0.90677 0.3577 0.0
C500 C 0.25867 0.88496 0.36387 0.0
H501 H 0.23137 0.86078 0.35158 0.0
C502 C 0.27457 0.88367 0.38763 0.0
C503 C 0.2468 0.87647 0.35 0.0
C504 C 0.23064 0.87744 0.32413 0.0
C505 C 0.27345 0.87426 0.39887 0.0
C506 C 0.25476 0.86608 0.38622 0.0
C507 C 0.24508 0.86709 0.36139 0.0
C508 C 0.23381 0.85767 0.3995 0.0
C509 C 0.28862 0.87335 0.42489 0.0
C510 C 0.24103 0.84765 0.39296 0.0
C511 C 0.21479 0.84003 0.40306 0.0
C512 C 0.18034 0.84242 0.41925 0.0
C513 C 0.17428 0.85242 0.42618 0.0
C514 C 0.20062 0.85993 0.41645 0.0
H515 H 0.31772 0.87823 0.42823 0.0
H516 H 0.26171 0.87587 0.43718 0.0
H517 H 0.29745 0.86553 0.42955 0.0
H518 H 0.26597 0.84576 0.37957 0.0
H519 H 0.22014 0.83237 0.39742 0.0
H520 H 0.11642 0.91047 0.8739 0.0
H521 H 0.08047 0.89609 0.85539 0.0
H522 H 0.98212 0.89612 0.91228 0.0
H523 H 0.01814 0.91073 0.93086 0.0
H524 H 0.02908 0.87837 0.90869 0.0
H525 H 0.96908 0.88878 0.81773 0.0
H526 H 0.02276 0.89408 0.82277 0.0
H527 H 0.97695 0.89787 0.84167 0.0
C528 C 0.08622 0.90764 0.88199 0.0
C529 C 0.07007 0.91168 0.90379 0.0
C530 C 0.06544 0.89945 0.8713 0.0
C531 C 0.02823 0.89508 0.88227 0.0
C532 C 0.01042 0.89946 0.90334 0.0
H533 H 0.03378 0.83127 0.83906 0.0
H534 H 0.9927 0.84575 0.85531 0.0
C535 C 0.03092 0.90781 0.91389 0.0
C536 C 0.01422 0.88502 0.87396 0.0
H537 H 0.00395 0.87206 0.82093 0.0
C538 C 0.02158 0.87693 0.88972 0.0
C539 C 0.00387 0.88313 0.84933 0.0
C540 C 0.99223 0.89146 0.832 0.0
C541 C 0.02515 0.86714 0.88072 0.0
C542 C 0.02092 0.86547 0.85544 0.0
C543 C 0.00767 0.87337 0.8403 0.0
C544 C 0.04153 0.85661 0.84394 0.0
C545 C 0.03852 0.85885 0.8978 0.0
C546 C 0.08193 0.85797 0.83194 0.0
C547 C 0.10532 0.84983 0.82295 0.0
C548 C 0.08882 0.84007 0.82559 0.0
C549 C 0.0474 0.83869 0.83684 0.0
C550 C 0.02396 0.84693 0.84612 0.0
H551 H 0.03984 0.86137 0.91704 0.0
H552 H 0.01459 0.85259 0.89641 0.0
H553 H 0.07161 0.85594 0.89259 0.0
H554 H 0.09615 0.86537 0.83014 0.0
H555 H 0.13675 0.85122 0.8141 0.0
H556 H 0.23333 0.41596 0.83801 0.0
H557 H 0.27601 0.40237 0.85713 0.0
H558 H 0.18658 0.38081 0.82566 0.0
H559 H 0.14516 0.39409 0.80658 0.0
H560 H 0.24471 0.39068 0.89103 0.0
H561 H 0.29784 0.3654 0.81905 0.0
H562 H 0.28431 0.37831 0.81271 0.0
H563 H 0.24212 0.36874 0.81169 0.0
C564 C 0.22374 0.40828 0.83472 0.0
C565 C 0.18555 0.40609 0.8211 0.0
C566 C 0.24817 0.40053 0.84556 0.0
C567 C 0.2352 0.39051 0.84247 0.0
C568 C 0.19843 0.38839 0.82776 0.0
H569 H 0.11602 0.35266 0.91868 0.0
H570 H 0.16079 0.3659 0.90186 0.0
C571 C 0.1741 0.39605 0.81718 0.0
C572 C 0.25333 0.38233 0.85779 0.0
H573 H 0.25802 0.35693 0.85456 0.0
C574 C 0.24979 0.38335 0.88312 0.0
C575 C 0.262 0.37276 0.8479 0.0
C576 C 0.27232 0.37131 0.82132 0.0
C577 C 0.24631 0.3749 0.89808 0.0
C578 C 0.24524 0.36531 0.88729 0.0
C579 C 0.25709 0.3643 0.86276 0.0
C580 C 0.22054 0.35705 0.899 0.0
C581 C 0.23907 0.37635 0.92498 0.0
C582 C 0.23871 0.34748 0.90223 0.0
C583 C 0.21271 0.33972 0.91189 0.0
C584 C 0.16801 0.34142 0.91798 0.0
C585 C 0.15019 0.35101 0.91431 0.0
C586 C 0.17602 0.35867 0.90494 0.0
H587 H 0.2585 0.38283 0.93172 0.0
H588 H 0.20359 0.37798 0.92838 0.0
H589 H 0.24855 0.36959 0.93548 0.0
H590 H 0.27281 0.34602 0.89729 0.0
H591 H 0.22744 0.33242 0.91443 0.0
H592 H 0.98679 0.58101 0.59839 0.0
H593 H 0.99778 0.59635 0.62226 0.0
H594 H 0.93947 0.61368 0.56444 0.0
H595 H 0.92799 0.5985 0.54073 0.0
H596 H 0.03954 0.61672 0.60992 0.0
H597 H 0.85801 0.61677 0.62661 0.0
H598 H 0.88746 0.60579 0.6165 0.0
H599 H 0.87439 0.61557 0.59531 0.0
C600 C 0.97704 0.58812 0.59065 0.0
C601 C 0.95596 0.58856 0.56788 0.0
C602 C 0.98345 0.59686 0.60424 0.0
C603 C 0.96903 0.6061 0.59512 0.0
C604 C 0.95048 0.6066 0.57181 0.0
H605 H 0.97952 0.66726 0.64812 0.0
H606 H 0.99438 0.65175 0.62565 0.0
C607 C 0.94383 0.59791 0.55835 0.0
C608 C 0.96869 0.61508 0.61071 0.0
H609 H 0.89768 0.63106 0.63907 0.0
C610 C 0.00867 0.61986 0.61648 0.0
C611 C 0.92832 0.61906 0.6193 0.0
C612 C 0.88456 0.61401 0.61433 0.0
C613 C 0.00912 0.62869 0.63037 0.0
C614 C 0.96853 0.63281 0.63837 0.0
C615 C 0.92876 0.62791 0.63283 0.0
C616 C 0.96581 0.64207 0.65303 0.0
C617 C 0.05283 0.63347 0.63661 0.0
C618 C 0.94501 0.64176 0.6758 0.0
C619 C 0.93598 0.65055 0.68839 0.0
C620 C 0.94768 0.65986 0.67851 0.0
C621 C 0.97028 0.66018 0.65618 0.0
C622 C 0.97904 0.65133 0.64342 0.0
H623 H 0.08089 0.6282 0.63409 0.0
H624 H 0.05831 0.63999 0.62452 0.0
H625 H 0.0529 0.63617 0.6557 0.0
H626 H 0.93445 0.6347 0.68351 0.0
H627 H 0.91885 0.65006 0.70566 0.0
H628 H 0.7374 0.08096 0.65492 0.0
H629 H 0.71571 0.09624 0.63315 0.0
H630 H 0.8364 0.11052 0.6566 0.0
H631 H 0.85738 0.09553 0.67876 0.0
H632 H 0.76477 0.1225 0.66282 0.0
H633 H 0.76611 0.10641 0.56938 0.0
H634 H 0.72994 0.10061 0.59115 0.0
H635 H 0.78882 0.0998 0.5951 0.0
C636 C 0.75925 0.08737 0.6553 0.0
C637 C 0.79907 0.08706 0.66852 0.0
C638 C 0.74691 0.09607 0.64282 0.0
C639 C 0.77459 0.1045 0.64313 0.0
C640 C 0.81439 0.10413 0.65622 0.0
H641 H 0.84786 0.15111 0.55385 0.0
H642 H 0.82843 0.13574 0.5748 0.0
C643 C 0.82643 0.09553 0.66882 0.0
C644 C 0.76328 0.11382 0.62991 0.0
H645 H 0.75728 0.12371 0.57281 0.0
C646 C 0.76239 0.12279 0.64314 0.0
C647 C 0.75995 0.11413 0.60426 0.0
C648 C 0.7615 0.10475 0.58903 0.0
C649 C 0.76189 0.13209 0.6314 0.0
C650 C 0.76088 0.13241 0.60567 0.0
C651 C 0.75817 0.12343 0.59252 0.0
C652 C 0.76981 0.14177 0.59205 0.0
C653 C 0.76586 0.14144 0.6466 0.0
C654 C 0.74309 0.1503 0.59458 0.0
C655 C 0.75468 0.15923 0.58286 0.0
C656 C 0.79265 0.15967 0.56812 0.0
C657 C 0.8184 0.15102 0.56507 0.0
C658 C 0.8072 0.1422 0.57697 0.0
H659 H 0.77429 0.13976 0.66584 0.0
H660 H 0.79163 0.14648 0.63908 0.0
H661 H 0.73384 0.14549 0.64641 0.0
H662 H 0.71358 0.15009 0.60573 0.0
H663 H 0.73403 0.16577 0.58533 0.0
H664 H 0.98449 0.16787 0.14891 0.0
H665 H 0.99453 0.15229 0.12587 0.0
H666 H 0.93653 0.13564 0.18494 0.0
H667 H 0.926 0.15107 0.20784 0.0
H668 H 0.03558 0.13196 0.13891 0.0
H669 H 0.85369 0.13224 0.12346 0.0
H670 H 0.88384 0.14321 0.13287 0.0
H671 H 0.87086 0.13362 0.15458 0.0
C672 C 0.97462 0.16086 0.15711 0.0
C673 C 0.95388 0.16069 0.17999 0.0
C674 C 0.9805 0.15199 0.14399 0.0
C675 C 0.96588 0.14287 0.1537 0.0
C676 C 0.94771 0.14263 0.17713 0.0
H677 H 0.97492 0.08148 0.10085 0.0
H678 H 0.9897 0.09693 0.12354 0.0
C679 C 0.9416 0.15146 0.19012 0.0
C680 C 0.9648 0.13376 0.13855 0.0
H681 H 0.8925 0.11783 0.11108 0.0
C682 C 0.00444 0.12886 0.13266 0.0
C683 C 0.92407 0.12983 0.13035 0.0
C684 C 0.88064 0.13501 0.13542 0.0
C685 C 0.00422 0.11997 0.11897 0.0
C686 C 0.96328 0.11592 0.11131 0.0
C687 C 0.92384 0.12092 0.11705 0.0
C688 C 0.95984 0.10666 0.09666 0.0
C689 C 0.04766 0.11509 0.11254 0.0
C690 C 0.93811 0.10699 0.07415 0.0
C691 C 0.92904 0.09823 0.06147 0.0
C692 C 0.94169 0.08891 0.07096 0.0
C693 C 0.96492 0.08856 0.0931 0.0
C694 C 0.97367 0.09739 0.10596 0.0
H695 H 0.07592 0.12033 0.11462 0.0
H696 H 0.05334 0.10865 0.12484 0.0
H697 H 0.04716 0.11226 0.09356 0.0
H698 H 0.92707 0.11406 0.06666 0.0
H699 H 0.91142 0.09875 0.04435 0.0
H700 H 0.76016 0.57967 0.14721 0.0
H701 H 0.747 0.59506 0.12385 0.0
H702 H 0.83072 0.61138 0.17335 0.0
H703 H 0.8443 0.59615 0.19652 0.0
H704 H 0.7155 0.61538 0.13921 0.0
H705 H 0.88794 0.61428 0.10433 0.0
H706 H 0.86133 0.60355 0.11779 0.0
H707 H 0.88319 0.61328 0.13682 0.0
C708 C 0.77539 0.58656 0.1532 0.0
C709 C 0.80367 0.58669 0.1735 0.0
C710 C 0.76773 0.59533 0.13992 0.0
C711 C 0.78829 0.60429 0.1468 0.0
C712 C 0.81496 0.6045 0.16764 0.0
H713 H 0.76725 0.66598 0.1009 0.0
H714 H 0.75665 0.65001 0.12203 0.0
C715 C 0.82271 0.59578 0.18081 0.0
C716 C 0.78474 0.61333 0.13147 0.0
H717 H 0.84755 0.62917 0.09743 0.0
C718 C 0.74415 0.61838 0.12985 0.0
C719 C 0.82213 0.61713 0.11913 0.0
C720 C 0.86606 0.61175 0.11936 0.0
C721 C 0.74034 0.62735 0.11665 0.0
C722 C 0.77828 0.63135 0.10512 0.0
C723 C 0.81851 0.62613 0.10635 0.0
C724 C 0.77779 0.64092 0.09156 0.0
C725 C 0.69584 0.6324 0.11501 0.0
C726 C 0.79298 0.64113 0.06745 0.0
C727 C 0.79982 0.6502 0.05562 0.0
C728 C 0.79129 0.65927 0.06756 0.0
C729 C 0.77386 0.65909 0.09125 0.0
C730 C 0.76752 0.64997 0.10326 0.0
H731 H 0.6684 0.6271 0.11879 0.0
H732 H 0.69418 0.63847 0.12871 0.0
H733 H 0.69069 0.63575 0.09674 0.0
H734 H 0.80113 0.63425 0.05808 0.0
H735 H 0.81296 0.65011 0.03728 0.0
H736 H 0.62371 0.40652 0.87492 0.0
H737 H 0.58224 0.3926 0.85819 0.0
H738 H 0.47293 0.3993 0.906 0.0
H739 H 0.51499 0.41337 0.92308 0.0
H740 H 0.50085 0.38052 0.91187 0.0
H741 H 0.48065 0.38641 0.8139 0.0
H742 H 0.53625 0.38972 0.82168 0.0
H743 H 0.49068 0.39667 0.83456 0.0
C744 C 0.59028 0.40524 0.88134 0.0
C745 C 0.5727 0.41097 0.9004 0.0
C746 C 0.56629 0.39733 0.87156 0.0
C747 C 0.52412 0.39495 0.88058 0.0
C748 C 0.50519 0.40107 0.89857 0.0
H749 H 0.51112 0.33626 0.81479 0.0
H750 H 0.47072 0.35077 0.83085 0.0
C751 C 0.52918 0.40911 0.90825 0.0
C752 C 0.50484 0.38509 0.87429 0.0
H753 H 0.50336 0.36913 0.82609 0.0
C754 C 0.49957 0.37807 0.89308 0.0
C755 C 0.50153 0.38186 0.84987 0.0
C756 C 0.50207 0.38913 0.82892 0.0
C757 C 0.498 0.36781 0.88804 0.0
C758 C 0.50275 0.36453 0.86373 0.0
C759 C 0.50096 0.37159 0.84485 0.0
C760 C 0.52014 0.35443 0.85792 0.0
C761 C 0.49476 0.36056 0.90895 0.0
C762 C 0.56064 0.35151 0.86822 0.0
C763 C 0.58368 0.34333 0.85903 0.0
C764 C 0.56683 0.33788 0.83929 0.0
C765 C 0.5247 0.34029 0.83014 0.0
C766 C 0.50168 0.34859 0.83925 0.0
H767 H 0.4725 0.36355 0.9233 0.0
H768 H 0.48225 0.35316 0.90297 0.0
H769 H 0.52796 0.35958 0.91724 0.0
H770 H 0.57629 0.356 0.88216 0.0
H771 H 0.61603 0.34163 0.86647 0.0
H772 H 0.74788 0.83739 0.93976 0.0
H773 H 0.78973 0.85168 0.92339 0.0
H774 H 0.69478 0.85451 0.86525 0.0
H775 H 0.65273 0.8405 0.8817 0.0
H776 H 0.79552 0.85863 0.85443 0.0
H777 H 0.71749 0.87938 0.93125 0.0
H778 H 0.74763 0.86792 0.93622 0.0
H779 H 0.69423 0.86757 0.92202 0.0
C780 C 0.73706 0.84084 0.92296 0.0
C781 C 0.69708 0.83791 0.91197 0.0
C782 C 0.76084 0.84901 0.91373 0.0
C783 C 0.74514 0.85415 0.89322 0.0
C784 C 0.70751 0.8506 0.88104 0.0
H785 H 0.66427 0.89237 0.80295 0.0
H786 H 0.70952 0.88008 0.82359 0.0
C787 C 0.68347 0.84261 0.89044 0.0
C788 C 0.76209 0.86411 0.88634 0.0
H789 H 0.73041 0.88826 0.89504 0.0
C790 C 0.78309 0.8652 0.86376 0.0
C791 C 0.74684 0.8727 0.89876 0.0
C792 C 0.72536 0.87193 0.92347 0.0
C793 C 0.78387 0.87448 0.8519 0.0
C794 C 0.76166 0.8827 0.86255 0.0
C795 C 0.74681 0.88193 0.88666 0.0
C796 C 0.74218 0.89071 0.84727 0.0
C797 C 0.80489 0.87519 0.8271 0.0
C798 C 0.74511 0.90087 0.85367 0.0
C799 C 0.71879 0.908 0.84173 0.0
C800 C 0.68846 0.90498 0.8238 0.0
C801 C 0.68704 0.8949 0.81688 0.0
C802 C 0.71354 0.88787 0.82842 0.0
H803 H 0.83546 0.87058 0.82637 0.0
H804 H 0.7817 0.87219 0.81326 0.0
H805 H 0.81327 0.88302 0.82232 0.0
H806 H 0.76642 0.9032 0.86846 0.0
H807 H 0.72038 0.91574 0.84739 0.0
H808 H 0.61484 0.84188 0.36613 0.0
H809 H 0.57577 0.85678 0.37928 0.0
H810 H 0.47265 0.85101 0.32684 0.0
H811 H 0.51228 0.83594 0.31339 0.0
H812 H 0.5075 0.86937 0.32117 0.0
H813 H 0.46892 0.86489 0.41794 0.0
H814 H 0.52433 0.86059 0.41314 0.0
H815 H 0.4789 0.85428 0.39834 0.0
C816 C 0.58318 0.8436 0.35787 0.0
C817 C 0.56674 0.8378 0.33865 0.0
C818 C 0.56054 0.85208 0.36559 0.0
C819 C 0.52087 0.85497 0.3543 0.0
C820 C 0.50293 0.84886 0.336 0.0
H821 H 0.51744 0.91383 0.41782 0.0
H822 H 0.4742 0.90024 0.39956 0.0
C823 C 0.52551 0.84026 0.32839 0.0
C824 C 0.50364 0.86517 0.359 0.0
H825 H 0.49885 0.88162 0.40612 0.0
C826 C 0.5038 0.87204 0.33969 0.0
C827 C 0.49709 0.8687 0.38296 0.0
C828 C 0.49177 0.86167 0.40419 0.0
C829 C 0.50456 0.88236 0.34412 0.0
C830 C 0.50621 0.88582 0.36841 0.0
C831 C 0.4989 0.87901 0.38744 0.0
C832 C 0.52589 0.89566 0.37468 0.0
C833 C 0.50699 0.8894 0.32278 0.0
C834 C 0.56865 0.89784 0.36619 0.0
C835 C 0.59328 0.90552 0.3766 0.0
C836 C 0.57581 0.91118 0.39582 0.0
C837 C 0.53164 0.90961 0.40293 0.0
C838 C 0.50695 0.90183 0.39256 0.0
H839 H 0.48586 0.88667 0.30765 0.0
H840 H 0.49636 0.89707 0.32779 0.0
H841 H 0.54152 0.88968 0.31593 0.0
H842 H 0.58462 0.89308 0.35291 0.0
H843 H 0.62718 0.90658 0.37071 0.0
H844 H 0.73952 0.33611 0.43325 0.0
H845 H 0.78301 0.3501 0.41668 0.0
H846 H 0.68289 0.35496 0.36207 0.0
H847 H 0.63924 0.34124 0.37872 0.0
H848 H 0.78455 0.35778 0.34856 0.0
H849 H 0.71815 0.37869 0.42834 0.0
H850 H 0.74507 0.36674 0.43178 0.0
H851 H 0.6906 0.36738 0.41893 0.0
C852 C 0.72772 0.33995 0.41717 0.0
C853 C 0.68596 0.33767 0.40729 0.0
C854 C 0.75248 0.34794 0.40781 0.0
C855 C 0.73598 0.35356 0.38825 0.0
C856 C 0.69623 0.35068 0.37711 0.0
H857 H 0.65684 0.39333 0.30217 0.0
H858 H 0.70161 0.38042 0.32079 0.0
C859 C 0.67127 0.34286 0.38665 0.0
C860 C 0.75487 0.36335 0.38149 0.0
H861 H 0.72967 0.38775 0.39217 0.0
C862 C 0.77442 0.3644 0.3585 0.0
C863 C 0.74272 0.37199 0.39471 0.0
C864 C 0.72309 0.37124 0.41987 0.0
C865 C 0.77656 0.37377 0.34713 0.0
C866 C 0.75705 0.38213 0.35868 0.0
C867 C 0.74392 0.38132 0.38308 0.0
C868 C 0.7381 0.39048 0.34427 0.0
C869 C 0.79603 0.37448 0.32195 0.0
C870 C 0.7434 0.40053 0.3512 0.0
C871 C 0.71736 0.40802 0.34043 0.0
C872 C 0.68498 0.40547 0.32315 0.0
C873 C 0.68124 0.3955 0.31561 0.0
C874 C 0.70746 0.38811 0.32599 0.0
H875 H 0.82556 0.36957 0.32038 0.0
H876 H 0.77134 0.37184 0.30846 0.0
H877 H 0.80568 0.38226 0.31737 0.0
H878 H 0.76629 0.4025 0.36557 0.0
H879 H 0.72077 0.41567 0.34654 0.0
H880 H 0.39867 0.59753 0.05477 0.0
H881 H 0.42158 0.61262 0.07576 0.0
H882 H 0.52583 0.5963 0.11181 0.0
H883 H 0.50206 0.58093 0.0911 0.0
H884 H 0.48294 0.60777 0.14309 0.0
H885 H 0.52361 0.63101 0.06388 0.0
H886 H 0.46952 0.62586 0.0595 0.0
H887 H 0.51677 0.61765 0.06152 0.0
C888 C 0.42669 0.59713 0.06703 0.0
C889 C 0.44872 0.58806 0.07121 0.0
C890 C 0.44011 0.60581 0.07881 0.0
C891 C 0.47635 0.60568 0.09476 0.0
C892 C 0.49824 0.5966 0.09925 0.0
H893 H 0.50399 0.66678 0.15238 0.0
H894 H 0.52917 0.65107 0.13381 0.0
C895 C 0.48455 0.58784 0.08752 0.0
C896 C 0.48812 0.61493 0.10806 0.0
H897 H 0.49409 0.64011 0.09938 0.0
C898 C 0.48662 0.61482 0.13356 0.0
C899 C 0.49466 0.62411 0.09579 0.0
C900 C 0.50179 0.62463 0.06867 0.0
C901 C 0.48645 0.62375 0.14688 0.0
C902 C 0.48622 0.63298 0.13429 0.0
C903 C 0.49287 0.63305 0.10904 0.0
C904 C 0.47312 0.64242 0.14641 0.0
C905 C 0.48482 0.62318 0.17427 0.0
C906 C 0.43285 0.64283 0.15909 0.0
C907 C 0.41868 0.6517 0.16973 0.0
C908 C 0.44401 0.66044 0.16753 0.0
C909 C 0.48385 0.66014 0.15435 0.0
C910 C 0.49833 0.65118 0.14386 0.0
H911 H 0.50327 0.61654 0.18096 0.0
H912 H 0.49896 0.62997 0.18285 0.0
H913 H 0.44992 0.62235 0.18023 0.0
H914 H 0.41189 0.63629 0.16046 0.0
H915 H 0.38757 0.65172 0.17952 0.0
H916 H 0.28648 0.16793 0.09748 0.0
H917 H 0.2672 0.1521 0.11753 0.0
H918 H 0.29331 0.13624 0.05074 0.0
H919 H 0.31469 0.15189 0.03115 0.0
H920 H 0.2084 0.13665 0.11042 0.0
H921 H 0.38088 0.12356 0.09624 0.0
H922 H 0.36423 0.13626 0.09038 0.0
H923 H 0.35304 0.12661 0.06842 0.0
C924 C 0.28763 0.16106 0.08711 0.0
C925 C 0.30285 0.16105 0.06299 0.0
C926 C 0.27653 0.15204 0.09851 0.0
C927 C 0.27994 0.14297 0.08578 0.0
C928 C 0.29176 0.14311 0.06111 0.0
H929 H 0.26556 0.08115 0.13741 0.0
H930 H 0.25041 0.09592 0.11215 0.0
C931 C 0.30384 0.15205 0.04993 0.0
C932 C 0.27484 0.13331 0.09867 0.0
H933 H 0.33095 0.11199 0.11323 0.0
C934 C 0.23509 0.13124 0.11096 0.0
C935 C 0.3099 0.12629 0.0995 0.0
C936 C 0.35455 0.12831 0.08815 0.0
C937 C 0.22968 0.12232 0.12415 0.0
C938 C 0.26471 0.11536 0.12483 0.0
C939 C 0.30396 0.11733 0.11222 0.0
C940 C 0.26406 0.10653 0.14084 0.0
C941 C 0.18708 0.1204 0.13762 0.0
C942 C 0.27621 0.10768 0.16526 0.0
C943 C 0.28573 0.09933 0.17946 0.0
C944 C 0.2828 0.08969 0.16953 0.0
C945 C 0.26789 0.0885 0.1455 0.0
C946 C 0.25911 0.09691 0.13111 0.0
H947 H 0.16109 0.12596 0.13298 0.0
H948 H 0.17463 0.11279 0.13338 0.0
H949 H 0.19337 0.12073 0.1575 0.0
H950 H 0.28077 0.11507 0.17292 0.0
H951 H 0.29691 0.10043 0.19799 0.0
H952 H 0.37944 0.09517 0.55472 0.0
H953 H 0.39733 0.11076 0.57516 0.0
H954 H 0.50894 0.09668 0.61009 0.0
H955 H 0.49047 0.08083 0.58993 0.0
H956 H 0.46197 0.10769 0.64167 0.0
H957 H 0.49387 0.13052 0.5602 0.0
H958 H 0.44118 0.12449 0.55752 0.0
H959 H 0.4909 0.11706 0.55904 0.0
C960 C 0.40795 0.09537 0.56666 0.0
C961 C 0.43372 0.08679 0.57062 0.0
C962 C 0.41842 0.10433 0.57814 0.0
C963 C 0.45524 0.10497 0.59359 0.0
C964 C 0.48075 0.09638 0.59795 0.0
H965 H 0.49302 0.16629 0.64884 0.0
H966 H 0.51145 0.15029 0.62941 0.0
C967 C 0.4701 0.08734 0.5865 0.0
C968 C 0.46474 0.11452 0.60621 0.0
H969 H 0.46886 0.13964 0.59609 0.0
C970 C 0.46447 0.11466 0.63171 0.0
C971 C 0.4694 0.12361 0.5933 0.0
C972 C 0.4744 0.12389 0.566 0.0
C973 C 0.4648 0.12371 0.64457 0.0
C974 C 0.46403 0.13283 0.63151 0.0
C975 C 0.46834 0.13267 0.60611 0.0
C976 C 0.45425 0.14248 0.64361 0.0
C977 C 0.46488 0.12338 0.672 0.0
C978 C 0.4155 0.14347 0.65746 0.0
C979 C 0.40514 0.15251 0.6686 0.0
C980 C 0.43289 0.16084 0.66578 0.0
C981 C 0.47108 0.15998 0.65133 0.0
C982 C 0.4817 0.15085 0.64033 0.0
H983 H 0.48228 0.11662 0.67875 0.0
H984 H 0.48103 0.13009 0.67989 0.0
H985 H 0.43026 0.12303 0.67867 0.0
H986 H 0.39291 0.13724 0.6595 0.0
H987 H 0.37518 0.15298 0.67936 0.0
H988 H 0.35634 0.65191 0.54852 0.0
H989 H 0.33821 0.63661 0.57004 0.0
H990 H 0.23147 0.65166 0.60713 0.0
H991 H 0.25042 0.66725 0.5859 0.0
H992 H 0.27948 0.64104 0.63812 0.0
H993 H 0.24089 0.61678 0.56026 0.0
H994 H 0.29361 0.62255 0.5554 0.0
H995 H 0.24453 0.63018 0.55733 0.0
C996 C 0.32871 0.65198 0.56108 0.0
C997 C 0.30467 0.66078 0.56545 0.0
C998 C 0.31805 0.64317 0.57319 0.0
C999 C 0.28266 0.64289 0.58968 0.0
C1000 C 0.25853 0.65167 0.5942 0.0
H1001 H 0.2539 0.58256 0.65273 0.0
H1002 H 0.23227 0.59807 0.632 0.0
C1003 C 0.26942 0.66057 0.58213 0.0
C1004 C 0.27402 0.63358 0.60351 0.0
H1005 H 0.27062 0.60828 0.59624 0.0
C1006 C 0.27645 0.63389 0.62898 0.0
C1007 C 0.2687 0.62425 0.59175 0.0
C1008 C 0.26125 0.62344 0.56469 0.0
C1009 C 0.27785 0.62509 0.64278 0.0
C1010 C 0.27821 0.61575 0.63071 0.0
C1011 C 0.27154 0.61543 0.60547 0.0
C1012 C 0.29005 0.60637 0.64355 0.0
C1013 C 0.28015 0.62591 0.67013 0.0
C1014 C 0.33018 0.60581 0.65632 0.0
C1015 C 0.34238 0.59704 0.6682 0.0
C1016 C 0.31509 0.58856 0.66721 0.0
C1017 C 0.27551 0.589 0.65382 0.0
C1018 C 0.26307 0.59785 0.64206 0.0
H1019 H 0.26279 0.63272 0.67661 0.0
H1020 H 0.26528 0.61929 0.67915 0.0
H1021 H 0.31529 0.62652 0.6758 0.0
H1022 H 0.35236 0.61216 0.65697 0.0
H1023 H 0.37335 0.5969 0.67811 0.0
H1024 H 0.55032 0.29355 0.40489 0.0
H1025 H 0.4738 0.29153 0.39071 0.0
H1026 H 0.45391 0.32337 0.39648 0.0
H1027 H 0.52936 0.32531 0.41157 0.0
H1028 H 0.39371 0.31317 0.4223 0.0
H1029 H 0.40531 0.29714 0.32919 0.0
H1030 H 0.43497 0.29036 0.35218 0.0
H1031 H 0.45209 0.3028 0.34424 0.0
C1032 C 0.52998 0.30013 0.40221 0.0
C1033 C 0.54544 0.30958 0.40919 0.0
C1034 C 0.48628 0.29897 0.3942 0.0
C1035 C 0.4581 0.3073 0.3926 0.0
C1036 C 0.47495 0.31683 0.39775 0.0
H1037 H 0.21077 0.32523 0.34329 0.0
H1038 H 0.28252 0.32315 0.3632 0.0
C1039 C 0.51811 0.31795 0.40618 0.0
C1040 C 0.41003 0.30615 0.38814 0.0
H1041 H 0.33374 0.29887 0.34595 0.0
C1042 C 0.38065 0.30997 0.40566 0.0
C1043 C 0.39301 0.30187 0.36656 0.0
C1044 C 0.4229 0.29788 0.34685 0.0
C1045 C 0.33486 0.31004 0.40171 0.0
C1046 C 0.31808 0.30609 0.37984 0.0
C1047 C 0.34703 0.30181 0.36283 0.0
C1048 C 0.27166 0.30766 0.37263 0.0
C1049 C 0.30467 0.31464 0.42045 0.0
C1050 C 0.24136 0.29973 0.37234 0.0
C1051 C 0.19983 0.30097 0.36143 0.0
C1052 C 0.18901 0.31009 0.35028 0.0
C1053 C 0.21842 0.31816 0.35194 0.0
C1054 C 0.25935 0.31698 0.3632 0.0
H1055 H 0.3217 0.31579 0.43814 0.0
H1056 H 0.29293 0.322 0.41373 0.0
H1057 H 0.27514 0.30985 0.42335 0.0
H1058 H 0.25063 0.29248 0.37946 0.0
H1059 H 0.17787 0.29461 0.35995 0.0
H1060 H 0.0316 0.92638 0.32137 0.0
H1061 H 0.95998 0.92981 0.33984 0.0
H1062 H 0.0092 0.95781 0.36758 0.0
H1063 H 0.08192 0.95436 0.3491 0.0
H1064 H 0.95284 0.94628 0.40054 0.0
H1065 H 0.87776 0.95151 0.30965 0.0
H1066 H 0.90917 0.94015 0.31171 0.0
H1067 H 0.93681 0.95199 0.31476 0.0
C1068 C 0.0275 0.9332 0.33171 0.0
C1069 C 0.06205 0.94016 0.3336 0.0
C1070 C 0.9865 0.93518 0.34209 0.0
C1071 C 0.97909 0.94419 0.35435 0.0
C1072 C 0.01431 0.95088 0.35782 0.0
H1073 H 0.69674 0.95372 0.39009 0.0
H1074 H 0.77089 0.95756 0.37403 0.0
C1075 C 0.05576 0.94887 0.34747 0.0
C1076 C 0.93391 0.94652 0.3628 0.0
H1077 H 0.82746 0.94707 0.34215 0.0
C1078 C 0.92544 0.9467 0.38783 0.0
C1079 C 0.89836 0.94731 0.34615 0.0
C1080 C 0.90597 0.94784 0.31906 0.0
C1081 C 0.88188 0.94674 0.39662 0.0
C1082 C 0.84629 0.9464 0.37988 0.0
C1083 C 0.85483 0.94715 0.35492 0.0
C1084 C 0.80085 0.94402 0.38787 0.0
C1085 C 0.87433 0.94674 0.42375 0.0
C1086 C 0.79296 0.93492 0.3997 0.0
C1087 C 0.75108 0.93272 0.40867 0.0
C1088 C 0.71611 0.93952 0.40577 0.0
C1089 C 0.72318 0.94835 0.3925 0.0
C1090 C 0.76546 0.95058 0.38354 0.0
H1091 H 0.90229 0.95035 0.43349 0.0
H1092 H 0.84318 0.95068 0.42856 0.0
H1093 H 0.87194 0.93892 0.43027 0.0
H1094 H 0.81954 0.92961 0.40248 0.0
H1095 H 0.74646 0.9258 0.4186 0.0
H1096 H 0.56155 0.94589 0.85547 0.0
H1097 H 0.48849 0.94789 0.87458 0.0
H1098 H 0.43959 0.92274 0.83358 0.0
H1099 H 0.5119 0.92066 0.81478 0.0
H1100 H 0.41117 0.95181 0.847 0.0
H1101 H 0.39192 0.91734 0.90177 0.0
H1102 H 0.44514 0.92173 0.89134 0.0
H1103 H 0.40934 0.91493 0.87112 0.0
C1104 C 0.53551 0.94062 0.85114 0.0
C1105 C 0.54227 0.93313 0.83364 0.0
C1106 C 0.49382 0.94181 0.8619 0.0
C1107 C 0.45879 0.93542 0.85556 0.0
C1108 C 0.46631 0.92765 0.83903 0.0
H1109 H 0.17928 0.92915 0.88161 0.0
H1110 H 0.25302 0.92893 0.86284 0.0
C1111 C 0.50765 0.9265 0.82822 0.0
C1112 C 0.41326 0.93735 0.86419 0.0
H1113 H 0.32561 0.92625 0.89231 0.0
C1114 C 0.39251 0.94629 0.85718 0.0
C1115 C 0.38904 0.93009 0.87723 0.0
C1116 C 0.41011 0.92052 0.88601 0.0
C1117 C 0.34762 0.94802 0.86223 0.0
C1118 C 0.3232 0.94066 0.87488 0.0
C1119 C 0.34424 0.93181 0.88227 0.0
C1120 C 0.2763 0.94209 0.8818 0.0
C1121 C 0.32645 0.95756 0.85339 0.0
C1122 C 0.26454 0.94978 0.89789 0.0
C1123 C 0.22243 0.94996 0.9083 0.0
C1124 C 0.19164 0.94248 0.90276 0.0
C1125 C 0.20232 0.93513 0.88559 0.0
C1126 C 0.24444 0.93496 0.87509 0.0
H1127 H 0.34557 0.96097 0.83826 0.0
H1128 H 0.29202 0.95623 0.84715 0.0
H1129 H 0.32541 0.96302 0.86857 0.0
H1130 H 0.28885 0.95521 0.90377 0.0
H1131 H 0.2151 0.9555 0.9221 0.0
H1132 H 0.71703 0.32256 0.8378 0.0
H1133 H 0.78997 0.31914 0.85482 0.0
H1134 H 0.75365 0.28834 0.86606 0.0
H1135 H 0.67969 0.29178 0.84904 0.0
H1136 H 0.81112 0.29989 0.90516 0.0
H1137 H 0.87245 0.30017 0.80999 0.0
H1138 H 0.8355 0.31025 0.81743 0.0
H1139 H 0.81541 0.29762 0.81779 0.0
C1140 C 0.72405 0.31513 0.84461 0.0
C1141 C 0.69305 0.30741 0.84208 0.0
C1142 C 0.76574 0.31318 0.85417 0.0
C1143 C 0.77723 0.30346 0.86109 0.0
C1144 C 0.7452 0.29587 0.86058 0.0
H1145 H 0.06338 0.29517 0.89001 0.0
H1146 H 0.98996 0.29122 0.87299 0.0
C1147 C 0.70301 0.29786 0.85113 0.0
C1148 C 0.82388 0.30132 0.86682 0.0
H1149 H 0.9265 0.30315 0.84124 0.0
C1150 C 0.83641 0.30031 0.89119 0.0
C1151 C 0.85663 0.30176 0.84845 0.0
C1152 C 0.84444 0.30242 0.82189 0.0
C1153 C 0.88118 0.30057 0.89784 0.0
C1154 C 0.91371 0.30201 0.87964 0.0
C1155 C 0.90136 0.30215 0.85512 0.0
C1156 C 0.95937 0.3048 0.88618 0.0
C1157 C 0.89329 0.29985 0.9244 0.0
C1158 C 0.96662 0.31396 0.89776 0.0
C1159 C 0.00804 0.31622 0.90727 0.0
C1160 C 0.043 0.30938 0.90516 0.0
C1161 C 0.03691 0.30058 0.89165 0.0
C1162 C 0.99505 0.29828 0.88219 0.0
H1163 H 0.86708 0.296 0.93504 0.0
H1164 H 0.92503 0.29579 0.92685 0.0
H1165 H 0.89731 0.30749 0.93192 0.0
H1166 H 0.93959 0.31917 0.90049 0.0
H1167 H 0.01205 0.32308 0.91747 0.0
H1168 H 0.7775 0.67848 0.6852 0.0
H1169 H 0.70087 0.67793 0.67218 0.0
H1170 H 0.74164 0.68133 0.59747 0.0
H1171 H 0.81939 0.68208 0.61042 0.0
H1172 H 0.67539 0.69471 0.61235 0.0
H1173 H 0.63132 0.65594 0.63825 0.0
H1174 H 0.6568 0.66286 0.66244 0.0
H1175 H 0.68794 0.66009 0.63538 0.0
C1176 C 0.77051 0.67903 0.66592 0.0
C1177 C 0.80473 0.68037 0.64883 0.0
C1178 C 0.72654 0.67861 0.65853 0.0
C1179 C 0.71566 0.67943 0.63388 0.0
C1180 C 0.74955 0.68061 0.61661 0.0
H1181 H 0.46992 0.68389 0.55694 0.0
H1182 H 0.54638 0.68288 0.56998 0.0
C1183 C 0.79387 0.68102 0.62401 0.0
C1184 C 0.66861 0.67981 0.62662 0.0
H1185 H 0.5711 0.667 0.62996 0.0
C1186 C 0.65265 0.68862 0.61597 0.0
C1187 C 0.63901 0.67189 0.6317 0.0
C1188 C 0.65466 0.66213 0.64237 0.0
C1189 C 0.60763 0.68979 0.61057 0.0
C1190 C 0.57804 0.68188 0.61567 0.0
C1191 C 0.59392 0.67307 0.62633 0.0
C1192 C 0.5311 0.68237 0.60836 0.0
C1193 C 0.59197 0.69953 0.59976 0.0
C1194 C 0.49699 0.68215 0.62571 0.0
C1195 C 0.45264 0.6827 0.61833 0.0
C1196 C 0.44203 0.68341 0.59347 0.0
C1197 C 0.4766 0.68345 0.57627 0.0
C1198 C 0.52053 0.68291 0.58364 0.0
H1199 H 0.61592 0.70568 0.6031 0.0
H1200 H 0.58832 0.69865 0.57979 0.0
H1201 H 0.55931 0.70172 0.60733 0.0
H1202 H 0.50471 0.68166 0.64491 0.0
H1203 H 0.42685 0.6826 0.632 0.0
H1204 H 0.91863 0.05917 0.60588 0.0
H1205 H 0.99653 0.05818 0.59293 0.0
H1206 H 0.03858 0.06355 0.66671 0.0
H1207 H 0.96217 0.06448 0.67977 0.0
H1208 H 0.06518 0.07295 0.59897 0.0
H1209 H 0.10457 0.03783 0.64788 0.0
H1210 H 0.04851 0.04173 0.64158 0.0
H1211 H 0.07842 0.04706 0.6667 0.0
C1212 C 0.94454 0.06012 0.61928 0.0
C1213 C 0.93407 0.06178 0.64388 0.0
C1214 C 0.98889 0.05955 0.61189 0.0
C1215 C 0.02309 0.06057 0.62903 0.0
C1216 C 0.01265 0.06248 0.65335 0.0
H1217 H 0.30996 0.06383 0.63212 0.0
H1218 H 0.23079 0.06362 0.64253 0.0
C1219 C 0.96876 0.06305 0.66072 0.0
C1220 C 0.07007 0.05995 0.62182 0.0
H1221 H 0.16617 0.04755 0.63437 0.0
C1222 C 0.08722 0.06733 0.60642 0.0
C1223 C 0.09866 0.05265 0.63183 0.0
C1224 C 0.08159 0.04431 0.64774 0.0
C1225 C 0.13263 0.06778 0.60128 0.0
C1226 C 0.16128 0.06058 0.61161 0.0
C1227 C 0.14406 0.05311 0.62675 0.0
C1228 C 0.20897 0.0604 0.60586 0.0
C1229 C 0.1498 0.0761 0.58532 0.0
C1230 C 0.22253 0.05841 0.58205 0.0
C1231 C 0.26724 0.05851 0.5761 0.0
C1232 C 0.29954 0.06056 0.5939 0.0
C1233 C 0.28595 0.06226 0.61801 0.0
C1234 C 0.24086 0.06216 0.62395 0.0
H1235 H 0.12567 0.08233 0.58378 0.0
H1236 H 0.1815 0.07909 0.59248 0.0
H1237 H 0.156 0.07313 0.56677 0.0
H1238 H 0.19842 0.05683 0.56798 0.0
H1239 H 0.27635 0.05704 0.55738 0.0
H1240 H 0.42101 0.06499 0.10622 0.0
H1241 H 0.49965 0.06526 0.09465 0.0
H1242 H 0.53388 0.07615 0.166 0.0
H1243 H 0.45627 0.07591 0.17771 0.0
H1244 H 0.56621 0.08171 0.09754 0.0
H1245 H 0.60353 0.04935 0.15756 0.0
H1246 H 0.54805 0.05238 0.14782 0.0
H1247 H 0.57385 0.05942 0.17173 0.0
C1248 C 0.44527 0.06757 0.11929 0.0
C1249 C 0.43249 0.07028 0.14298 0.0
C1250 C 0.49007 0.0677 0.11269 0.0
C1251 C 0.52238 0.07053 0.1297 0.0
C1252 C 0.50942 0.07375 0.15283 0.0
H1253 H 0.81109 0.0705 0.13284 0.0
H1254 H 0.73243 0.07211 0.14351 0.0
C1255 C 0.46499 0.07361 0.15943 0.0
C1256 C 0.56994 0.06984 0.12384 0.0
H1257 H 0.66476 0.05763 0.13984 0.0
C1258 C 0.5878 0.07642 0.10664 0.0
C1259 C 0.59787 0.06298 0.136 0.0
C1260 C 0.57994 0.05556 0.15418 0.0
C1261 C 0.63327 0.07641 0.10147 0.0
C1262 C 0.66119 0.06951 0.11351 0.0
C1263 C 0.64327 0.06295 0.13078 0.0
C1264 C 0.70863 0.06857 0.10739 0.0
C1265 C 0.65112 0.0839 0.08344 0.0
C1266 C 0.72098 0.06583 0.08379 0.0
C1267 C 0.76547 0.06491 0.07768 0.0
C1268 C 0.79876 0.06663 0.09512 0.0
C1269 C 0.78631 0.06915 0.11899 0.0
C1270 C 0.74148 0.07009 0.12509 0.0
H1271 H 0.62855 0.0904 0.08135 0.0
H1272 H 0.68423 0.08666 0.08906 0.0
H1273 H 0.65447 0.08027 0.06539 0.0
H1274 H 0.69611 0.06435 0.07006 0.0
H1275 H 0.77366 0.06284 0.05918 0.0
H1276 H 0.95571 0.6734 0.06304 0.0
H1277 H 0.03393 0.67288 0.07344 0.0
H1278 H 0.00386 0.68337 0.14577 0.0
H1279 H 0.9247 0.68379 0.13553 0.0
H1280 H 0.08157 0.68966 0.08666 0.0
H1281 H 0.09069 0.66026 0.15784 0.0
H1282 H 0.04373 0.66157 0.13777 0.0
H1283 H 0.05019 0.66983 0.16327 0.0
C1284 C 0.96555 0.67548 0.0813 0.0
C1285 C 0.93411 0.67872 0.09845 0.0
C1286 C 0.01029 0.67517 0.08719 0.0
C1287 C 0.02463 0.67807 0.11033 0.0
C1288 C 0.9933 0.68096 0.12788 0.0
H1289 H 0.27624 0.68902 0.17579 0.0
H1290 H 0.19883 0.68749 0.16462 0.0
C1291 C 0.94818 0.68121 0.12203 0.0
C1292 C 0.07263 0.6788 0.11517 0.0
H1293 H 0.15556 0.66987 0.15116 0.0
C1294 C 0.09787 0.68529 0.10066 0.0
C1295 C 0.09362 0.67307 0.1334 0.0
C1296 C 0.06832 0.66572 0.14886 0.0
C1297 C 0.14353 0.68639 0.10427 0.0
C1298 C 0.16446 0.68073 0.12264 0.0
C1299 C 0.1393 0.67417 0.13701 0.0
C1300 C 0.2119 0.68196 0.12839 0.0
C1301 C 0.16873 0.69381 0.08894 0.0
C1302 C 0.24504 0.67945 0.11152 0.0
C1303 C 0.28981 0.68037 0.11781 0.0
C1304 C 0.30182 0.68371 0.14113 0.0
C1305 C 0.2683 0.68635 0.15772 0.0
C1306 C 0.22392 0.68547 0.15141 0.0
H1307 H 0.14627 0.699 0.07911 0.0
H1308 H 0.1917 0.69827 0.10036 0.0
H1309 H 0.18874 0.68973 0.07525 0.0
H1310 H 0.2363 0.67661 0.09371 0.0
H1311 H 0.31483 0.67822 0.10471 0.0
H1312 H 0.5695 0.79478 0.90056 0.0
H1313 H 0.49551 0.79232 0.88272 0.0
H1314 H 0.4609 0.82261 0.90134 0.0
H1315 H 0.53395 0.82506 0.91939 0.0
H1316 H 0.40962 0.80006 0.91951 0.0
H1317 H 0.42501 0.81309 0.82363 0.0
H1318 H 0.46986 0.80686 0.83927 0.0
H1319 H 0.45606 0.81949 0.84692 0.0
C1320 C 0.54649 0.80098 0.90012 0.0
C1321 C 0.55711 0.81009 0.91136 0.0
C1322 C 0.50431 0.79955 0.89015 0.0
C1323 C 0.47303 0.80728 0.891 0.0
C1324 C 0.48477 0.81658 0.90065 0.0
H1325 H 0.21852 0.8239 0.84501 0.0
H1326 H 0.29185 0.82252 0.86332 0.0
C1327 C 0.52645 0.81796 0.91086 0.0
C1328 C 0.42668 0.80559 0.88396 0.0
H1329 H 0.35276 0.81091 0.83914 0.0
C1330 C 0.39698 0.80225 0.90182 0.0
C1331 C 0.41084 0.80855 0.86099 0.0
C1332 C 0.44193 0.81217 0.84144 0.0
C1333 C 0.35116 0.80224 0.8976 0.0
C1334 C 0.33512 0.80555 0.87485 0.0
C1335 C 0.36519 0.80846 0.85666 0.0
C1336 C 0.28737 0.80659 0.8696 0.0
C1337 C 0.32027 0.79918 0.91783 0.0
C1338 C 0.25958 0.79819 0.86846 0.0
C1339 C 0.21707 0.79904 0.85854 0.0
C1340 C 0.20254 0.80825 0.84936 0.0
C1341 C 0.229 0.81676 0.85226 0.0
C1342 C 0.27098 0.81595 0.86249 0.0
H1343 H 0.3374 0.79885 0.93569 0.0
H1344 H 0.29203 0.80446 0.91923 0.0
H1345 H 0.30674 0.79165 0.91384 0.0
H1346 H 0.27184 0.79088 0.87351 0.0
H1347 H 0.19747 0.79236 0.85588 0.0
H1348 H 0.725 0.42463 0.90617 0.0
H1349 H 0.80064 0.4271 0.89195 0.0
H1350 H 0.77476 0.45852 0.88201 0.0
H1351 H 0.69806 0.45602 0.89598 0.0
H1352 H 0.83141 0.44895 0.84525 0.0
H1353 H 0.88611 0.44164 0.93976 0.0
H1354 H 0.84998 0.43213 0.92819 0.0
H1355 H 0.82949 0.44464 0.9321 0.0
C1356 C 0.73501 0.43201 0.90024 0.0
C1357 C 0.70605 0.44015 0.90221 0.0
C1358 C 0.77827 0.43343 0.89237 0.0
C1359 C 0.79345 0.44304 0.88675 0.0
C1360 C 0.76357 0.45107 0.88661 0.0
H1361 H 0.07921 0.45152 0.85733 0.0
H1362 H 0.00708 0.45497 0.87649 0.0
C1363 C 0.71982 0.44962 0.8943 0.0
C1364 C 0.84117 0.44457 0.88253 0.0
H1365 H 0.9416 0.43972 0.90848 0.0
C1366 C 0.8556 0.44719 0.85919 0.0
C1367 C 0.87258 0.44241 0.90093 0.0
C1368 C 0.8588 0.44015 0.92673 0.0
C1369 C 0.9007 0.4469 0.85325 0.0
C1370 C 0.93163 0.44386 0.87108 0.0
C1371 C 0.91759 0.44199 0.89488 0.0
C1372 C 0.97715 0.4412 0.86415 0.0
C1373 C 0.91493 0.44926 0.82759 0.0
C1374 C 0.98429 0.43212 0.85217 0.0
C1375 C 0.02497 0.43016 0.84136 0.0
C1376 C 0.05916 0.43723 0.84253 0.0
C1377 C 0.05338 0.44593 0.85645 0.0
C1378 C 0.01226 0.44794 0.86717 0.0
H1379 H 0.88869 0.45326 0.81731 0.0
H1380 H 0.94543 0.45388 0.82766 0.0
H1381 H 0.92256 0.44218 0.81791 0.0
H1382 H 0.95749 0.42682 0.8499 0.0
H1383 H 0.02875 0.42339 0.83077 0.0
H1384 H 0.51763 0.4217 0.32732 0.0
H1385 H 0.44446 0.42515 0.34406 0.0
H1386 H 0.49018 0.45367 0.37043 0.0
H1387 H 0.56422 0.45021 0.35367 0.0
H1388 H 0.42775 0.44154 0.40245 0.0
H1389 H 0.36987 0.44762 0.30787 0.0
H1390 H 0.40121 0.43634 0.31196 0.0
H1391 H 0.42755 0.44823 0.31646 0.0
C1392 C 0.51248 0.42859 0.33728 0.0
C1393 C 0.54628 0.43573 0.33908 0.0
C1394 C 0.47065 0.43057 0.34665 0.0
C1395 C 0.46187 0.43976 0.35782 0.0
C1396 C 0.49646 0.44658 0.36158 0.0
H1397 H 0.18121 0.45398 0.38879 0.0
H1398 H 0.25664 0.45642 0.37276 0.0
C1399 C 0.5387 0.44456 0.35225 0.0
C1400 C 0.41572 0.4423 0.36393 0.0
H1401 H 0.31364 0.44424 0.33771 0.0
C1402 C 0.40286 0.44237 0.38838 0.0
C1403 C 0.38353 0.44354 0.34547 0.0
C1404 C 0.39618 0.44403 0.31895 0.0
C1405 C 0.358 0.44286 0.39477 0.0
C1406 C 0.32559 0.44317 0.3762 0.0
C1407 C 0.33864 0.4439 0.35184 0.0
C1408 C 0.27848 0.44148 0.38181 0.0
C1409 C 0.34541 0.44258 0.42132 0.0
C1410 C 0.26554 0.43212 0.39069 0.0
C1411 C 0.22297 0.43073 0.39964 0.0
C1412 C 0.19251 0.43864 0.39967 0.0
C1413 C 0.2041 0.44775 0.38873 0.0
C1414 C 0.24713 0.44918 0.37984 0.0
H1415 H 0.37314 0.44507 0.43312 0.0
H1416 H 0.31612 0.44738 0.42489 0.0
H1417 H 0.33682 0.43481 0.42647 0.0
H1418 H 0.28915 0.42605 0.39186 0.0
H1419 H 0.21469 0.42361 0.40786 0.0
H1420 H 0.69025 0.79002 0.34185 0.0
H1421 H 0.76464 0.78865 0.35958 0.0
H1422 H 0.76181 0.82004 0.37716 0.0
H1423 H 0.68809 0.82143 0.35914 0.0
H1424 H 0.83226 0.80165 0.33703 0.0
H1425 H 0.82177 0.80613 0.43727 0.0
H1426 H 0.77648 0.80136 0.41919 0.0
H1427 H 0.78763 0.81453 0.41996 0.0
C1428 C 0.70472 0.79648 0.35067 0.0
C1429 C 0.68353 0.80579 0.3496 0.0
C1430 C 0.74725 0.79572 0.36052 0.0
C1431 C 0.76848 0.80424 0.3697 0.0
C1432 C 0.74566 0.81336 0.37047 0.0
H1433 H 0.0166 0.82689 0.41436 0.0
H1434 H 0.94172 0.82412 0.39914 0.0
C1435 C 0.70354 0.81414 0.3603 0.0
C1436 C 0.81642 0.80412 0.37475 0.0
H1437 H 0.89192 0.80924 0.41896 0.0
C1438 C 0.84557 0.80313 0.355 0.0
C1439 C 0.83328 0.80614 0.39813 0.0
C1440 C 0.80326 0.80703 0.41994 0.0
C1441 C 0.89125 0.80463 0.35783 0.0
C1442 C 0.90801 0.80698 0.38113 0.0
C1443 C 0.87891 0.80754 0.40104 0.0
C1444 C 0.95526 0.80928 0.38542 0.0
C1445 C 0.92079 0.80418 0.33573 0.0
C1446 C 0.98828 0.80206 0.38154 0.0
C1447 C 0.03148 0.80374 0.38978 0.0
C1448 C 0.04167 0.81256 0.40238 0.0
C1449 C 0.00943 0.82004 0.40465 0.0
C1450 C 0.96664 0.81843 0.39613 0.0
H1451 H 0.90155 0.80469 0.31855 0.0
H1452 H 0.94555 0.81031 0.33603 0.0
H1453 H 0.93891 0.79697 0.33567 0.0
H1454 H 0.98007 0.79489 0.37362 0.0
H1455 H 0.0557 0.79781 0.3882 0.0
H1456 H 0.78646 0.17723 0.18782 0.0
H1457 H 0.70923 0.17593 0.17585 0.0
H1458 H 0.74531 0.18123 0.10106 0.0
H1459 H 0.82347 0.18244 0.11286 0.0
H1460 H 0.66115 0.19114 0.15415 0.0
H1461 H 0.66226 0.15695 0.09693 0.0
H1462 H 0.70689 0.16005 0.11743 0.0
H1463 H 0.70244 0.16622 0.08851 0.0
C1464 C 0.77823 0.17804 0.16874 0.0
C1465 C 0.81119 0.18001 0.15128 0.0
C1466 C 0.73398 0.17728 0.16197 0.0
C1467 C 0.72161 0.17842 0.13761 0.0
C1468 C 0.75435 0.18016 0.11994 0.0
H1469 H 0.47915 0.18389 0.05964 0.0
H1470 H 0.55473 0.18244 0.07409 0.0
C1471 C 0.79892 0.18089 0.12671 0.0
C1472 C 0.67411 0.17845 0.13116 0.0
H1473 H 0.59618 0.16658 0.09688 0.0
C1474 C 0.64679 0.18573 0.14176 0.0
C1475 C 0.65564 0.17135 0.11509 0.0
C1476 C 0.68317 0.16314 0.10396 0.0
C1477 C 0.60161 0.18631 0.13613 0.0
C1478 C 0.58322 0.17929 0.11981 0.0
C1479 C 0.61042 0.17191 0.10949 0.0
C1480 C 0.53667 0.17996 0.11166 0.0
C1481 C 0.57434 0.19463 0.14702 0.0
C1482 C 0.50125 0.17898 0.12805 0.0
C1483 C 0.45751 0.17987 0.11986 0.0
C1484 C 0.44869 0.18167 0.09512 0.0
C1485 C 0.48448 0.1825 0.07883 0.0
C1486 C 0.52787 0.18166 0.08701 0.0
H1487 H 0.59538 0.20058 0.15506 0.0
H1488 H 0.5525 0.19805 0.13307 0.0
H1489 H 0.55306 0.19155 0.16165 0.0
H1490 H 0.50742 0.17751 0.14712 0.0
H1491 H 0.43074 0.17913 0.13283 0.0
H1492 H 0.31226 0.5626 0.13092 0.0
H1493 H 0.23308 0.56302 0.14102 0.0
H1494 H 0.20191 0.56973 0.06624 0.0
H1495 H 0.2801 0.56921 0.05592 0.0
H1496 H 0.1698 0.57857 0.1344 0.0
H1497 H 0.12706 0.54488 0.08028 0.0
H1498 H 0.18332 0.54802 0.0882 0.0
H1499 H 0.15603 0.55438 0.06361 0.0
C1500 C 0.28851 0.56418 0.11667 0.0
C1501 C 0.30248 0.56573 0.09258 0.0
C1502 C 0.24338 0.56441 0.12245 0.0
C1503 C 0.21175 0.56619 0.10423 0.0
C1504 C 0.22574 0.56809 0.08041 0.0
H1505 H 0.92132 0.56758 0.10712 0.0
H1506 H 0.99869 0.56897 0.09364 0.0
C1507 C 0.27056 0.56782 0.07461 0.0
C1508 C 0.16397 0.56608 0.10995 0.0
H1509 H 0.06721 0.55406 0.09685 0.0
C1510 C 0.14736 0.5732 0.12625 0.0
C1511 C 0.1348 0.55913 0.09904 0.0
C1512 C 0.15115 0.55111 0.08196 0.0
C1513 C 0.10218 0.57356 0.13198 0.0
C1514 C 0.07315 0.5665 0.12139 0.0
C1515 C 0.08961 0.55949 0.10477 0.0
C1516 C 0.02645 0.56572 0.12906 0.0
C1517 C 0.08583 0.5815 0.14928 0.0
C1518 C 0.01679 0.56321 0.15317 0.0
C1519 C 0.97311 0.56239 0.16085 0.0
C1520 C 0.93791 0.56401 0.14453 0.0
C1521 C 0.94762 0.56632 0.12014 0.0
C1522 C 0.9917 0.56713 0.11244 0.0
H1523 H 0.10889 0.58795 0.1501 0.0
H1524 H 0.05255 0.58424 0.14388 0.0
H1525 H 0.08334 0.57828 0.16783 0.0
H1526 H 0.04317 0.56184 0.1661 0.0
H1527 H 0.96709 0.5605 0.17972 0.0
H1528 H 0.82448 0.56249 0.63221 0.0
H1529 H 0.74551 0.56224 0.64301 0.0
H1530 H 0.71225 0.57316 0.57152 0.0
H1531 H 0.79027 0.57335 0.56054 0.0
H1532 H 0.67874 0.57757 0.64166 0.0
H1533 H 0.64317 0.54673 0.57696 0.0
H1534 H 0.69865 0.54994 0.58628 0.0
H1535 H 0.67065 0.5573 0.56366 0.0
C1536 C 0.80032 0.56495 0.61894 0.0
C1537 C 0.8135 0.56779 0.59542 0.0
C1538 C 0.75533 0.56477 0.62508 0.0
C1539 C 0.72319 0.56744 0.6078 0.0
C1540 C 0.73652 0.57082 0.58486 0.0
H1541 H 0.43401 0.56857 0.6074 0.0
H1542 H 0.51236 0.56972 0.59556 0.0
C1543 C 0.78117 0.57095 0.57868 0.0
C1544 C 0.67554 0.5665 0.61333 0.0
H1545 H 0.58122 0.5545 0.59552 0.0
C1546 C 0.65741 0.5725 0.63168 0.0
C1547 C 0.64789 0.55992 0.60011 0.0
C1548 C 0.66604 0.55303 0.58079 0.0
C1549 C 0.61205 0.57218 0.63699 0.0
C1550 C 0.58446 0.56556 0.62385 0.0
C1551 C 0.60253 0.5596 0.60541 0.0
C1552 C 0.53725 0.56432 0.63005 0.0
C1553 C 0.5939 0.57899 0.65646 0.0
C1554 C 0.52565 0.56057 0.65293 0.0
C1555 C 0.48139 0.5599 0.65967 0.0
C1556 C 0.44767 0.56291 0.6436 0.0
C1557 C 0.45923 0.56622 0.62017 0.0
C1558 C 0.50385 0.56691 0.61343 0.0
H1559 H 0.61648 0.58536 0.66015 0.0
H1560 H 0.56097 0.58197 0.6512 0.0
H1561 H 0.58993 0.5747 0.6736 0.0
H1562 H 0.55096 0.55829 0.66575 0.0
H1563 H 0.4737 0.55716 0.67773 0.0
H1564 H 0.91653 0.1877 0.63703 0.0
H1565 H 0.9951 0.18832 0.64893 0.0
H1566 H 0.03126 0.17413 0.58138 0.0
H1567 H 0.95376 0.17356 0.56938 0.0
H1568 H 0.06429 0.17264 0.65129 0.0
H1569 H 0.09664 0.20154 0.58101 0.0
H1570 H 0.04161 0.19856 0.59158 0.0
H1571 H 0.06884 0.19059 0.56995 0.0
C1572 C 0.94127 0.18456 0.625 0.0
C1573 C 0.92924 0.18073 0.60215 0.0
C1574 C 0.98598 0.18495 0.63173 0.0
C1575 C 0.01879 0.18149 0.6157 0.0
C1576 C 0.00643 0.17705 0.5937 0.0
H1577 H 0.30544 0.17982 0.6081 0.0
H1578 H 0.22572 0.17886 0.59952 0.0
C1579 C 0.96214 0.17671 0.58693 0.0
C1580 C 0.06622 0.18285 0.62111 0.0
H1581 H 0.15962 0.1942 0.59974 0.0
C1582 C 0.08516 0.17741 0.64022 0.0
C1583 C 0.09317 0.18906 0.60646 0.0
C1584 C 0.07407 0.19535 0.58622 0.0
C1585 C 0.13083 0.17782 0.64469 0.0
C1586 C 0.15785 0.18395 0.62987 0.0
C1587 C 0.13879 0.18946 0.61091 0.0
C1588 C 0.20583 0.18498 0.63429 0.0
C1589 C 0.14996 0.1715 0.66485 0.0
C1590 C 0.2207 0.18905 0.65625 0.0
C1591 C 0.2658 0.1896 0.66116 0.0
C1592 C 0.29707 0.18617 0.6441 0.0
C1593 C 0.28218 0.18251 0.62159 0.0
C1594 C 0.23676 0.18192 0.61672 0.0
H1595 H 0.12718 0.16536 0.6702 0.0
H1596 H 0.18217 0.1682 0.65935 0.0
H1597 H 0.15566 0.17625 0.68108 0.0
H1598 H 0.19735 0.19169 0.66974 0.0
H1599 H 0.27609 0.19262 0.67854 0.0
H1600 H 0.88956 0.21624 0.2088 0.0
H1601 H 0.905 0.23324 0.22231 0.0
H1602 H 0.03157 0.23226 0.18604 0.0
H1603 H 0.01555 0.21532 0.17171 0.0
H1604 H 0.96908 0.23799 0.25256 0.0
H1605 H 0.99148 0.25985 0.16794 0.0
H1606 H 0.96702 0.24755 0.16804 0.0
H1607 H 0.02624 0.24899 0.16885 0.0
C1608 C 0.92031 0.21973 0.20324 0.0
C1609 C 0.95144 0.21444 0.18924 0.0
C1610 C 0.92909 0.22944 0.211 0.0
C1611 C 0.96931 0.23407 0.2051 0.0
C1612 C -0.00015 0.22895 0.19036 0.0
H1613 H 0.12013 0.2822 0.26498 0.0
H1614 H 0.09131 0.26735 0.24463 0.0
C1615 C 0.99077 0.21925 0.18226 0.0
C1616 C 0.98093 0.24377 0.21653 0.0
H1617 H 0.01858 0.26734 0.20472 0.0
C1618 C 0.97927 0.24445 0.24204 0.0
C1619 C 0.99431 0.2522 0.20283 0.0
C1620 C 0.99446 0.25216 0.17539 0.0
C1621 C 0.99173 0.25321 0.25422 0.0
C1622 C 0.00623 0.2615 0.24055 0.0
C1623 C 0.00738 0.26093 0.21508 0.0
C1624 C 0.02279 0.27063 0.25258 0.0
C1625 C 0.99066 0.25347 0.28165 0.0
C1626 C 0.9936 0.27737 0.26377 0.0
C1627 C 0.00995 0.28591 0.27541 0.0
C1628 C 0.05572 0.28777 0.27611 0.0
C1629 C 0.08471 0.28096 0.26489 0.0
C1630 C 0.06835 0.2725 0.25314 0.0
H1631 H 0.98267 0.24607 0.28965 0.0
H1632 H 0.02314 0.25599 0.28883 0.0
H1633 H 0.96532 0.25892 0.28775 0.0
H1634 H 0.95826 0.27602 0.26344 0.0
H1635 H 0.98683 0.29103 0.28382 0.0
H1636 H 0.13879 0.96592 0.2532 0.0
H1637 H 0.16652 0.98157 0.23646 0.0
H1638 H 0.30004 0.97288 0.25427 0.0
H1639 H 0.27246 0.95706 0.27118 0.0
H1640 H 0.21792 0.99601 0.26363 0.0
H1641 H 0.30349 0.98188 0.18076 0.0
H1642 H 0.2615 0.97474 0.19642 0.0
H1643 H 0.31591 0.9758 0.20917 0.0
C1644 C 0.17412 0.96727 0.25346 0.0
C1645 C 0.20347 0.96025 0.26353 0.0
C1646 C 0.18987 0.97623 0.24388 0.0
C1647 C 0.23527 0.97833 0.24397 0.0
C1648 C 0.26488 0.97132 0.25378 0.0
H1649 H 0.34268 0.03793 0.22264 0.0
H1650 H 0.32924 0.02093 0.23672 0.0
C1651 C 0.24908 0.96232 0.26351 0.0
C1652 C 0.25084 0.98809 0.23477 0.0
H1653 H 0.3065 -0.00073 0.18802 0.0
C1654 C 0.23754 0.99673 0.24719 0.0
C1655 C 0.276 0.98897 0.2132 0.0
C1656 C 0.28997 0.97988 0.19891 0.0
C1657 C 0.24852 0.00626 0.23855 0.0
C1658 C 0.27385 0.00716 0.21703 0.0
C1659 C 0.28729 0.99852 0.20459 0.0
C1660 C 0.2856 0.01707 0.20702 0.0
C1661 C 0.23202 0.01532 0.25218 0.0
C1662 C 0.26662 0.0204 0.18519 0.0
C1663 C 0.27421 0.03015 0.17699 0.0
C1664 C 0.30108 0.0367 0.19049 0.0
C1665 C 0.32152 0.03314 0.21183 0.0
C1666 C 0.31388 0.02342 0.21997 0.0
H1667 H 0.20559 0.01338 0.26542 0.0
H1668 H 0.25989 0.01872 0.26237 0.0
H1669 H 0.21896 0.02102 0.23936 0.0
H1670 H 0.24475 0.01557 0.17493 0.0
H1671 H 0.25809 0.03261 0.16045 0.0
H1672 H 0.94194 0.03759 0.01495 0.0
H1673 H 0.95601 0.02031 0.0039 0.0
H1674 H 0.96359 0.0123 0.07983 0.0
H1675 H 0.95139 0.02984 0.09108 0.0
H1676 H 0.02689 0.00363 0.05661 0.0
H1677 H 0.87582 0.99697 0.00321 0.0
H1678 H 0.90384 0.00767 0.99119 0.0
H1679 H 0.88251 0.00796 0.02185 0.0
C1680 C 0.94624 0.03216 0.02936 0.0
C1681 C 0.94523 0.03508 0.05392 0.0
C1682 C 0.95384 0.02223 0.023 0.0
C1683 C 0.95941 0.0149 0.041 0.0
C1684 C 0.95881 0.0178 0.0656 0.0
H1685 H 0.98624 0.95351 0.98384 0.0
H1686 H 0.95594 0.96801 0.00568 0.0
C1687 C 0.95197 0.02781 0.07202 0.0
C1688 C 0.96894 0.00441 0.03382 0.0
H1689 H 0.9389 0.98641 0.99303 0.0
C1690 C 0.00712 -0.0002 0.04305 0.0
C1691 C 0.9426 -0.00079 0.01666 0.0
C1692 C 0.89865 0.00318 0.00793 0.0
C1693 C 0.02129 0.99048 0.03436 0.0
C1694 C 0.99763 0.98582 0.01522 0.0
C1695 C 0.95774 0.99008 0.00725 0.0
C1696 C 0.01534 0.97696 0.00216 0.0
C1697 C 0.06173 0.98578 0.04573 0.0
C1698 C 0.05818 0.97726 0.99234 0.0
C1699 C 0.0756 0.96899 0.98028 0.0
C1700 C 0.05014 0.96031 0.97715 0.0
C1701 C 0.00656 0.96011 0.98604 0.0
C1702 C 0.98933 0.96837 -0.00144 0.0
H1703 H 0.06514 0.98804 0.06508 0.0
H1704 H 0.0605 0.9775 0.0448 0.0
H1705 H 0.09172 0.98841 0.03599 0.0
H1706 H 0.07829 0.98392 0.99395 0.0
H1707 H 0.10905 0.96942 0.97328 0.0
H1708 H 0.35841 0.21464 0.01938 0.0
H1709 H 0.34101 0.23144 0.0054 0.0
H1710 H 0.24223 0.23424 0.06158 0.0
H1711 H 0.25964 0.21737 0.07598 0.0
H1712 H 0.25816 0.23686 0.98812 0.0
H1713 H 0.30949 0.26103 0.06518 0.0
H1714 H 0.3286 0.24832 0.06175 0.0
H1715 H 0.27418 0.25078 0.07347 0.0
C1716 C 0.33338 0.21884 0.02908 0.0
C1717 C 0.31024 0.2146 0.04878 0.0
C1718 C 0.32355 0.22846 0.02103 0.0
C1719 C 0.2906 0.23411 0.03254 0.0
C1720 C 0.26835 0.23007 0.0527 0.0
H1721 H 0.12748 0.28063 0.97565 0.0
H1722 H 0.16061 0.26545 0.99202 0.0
C1723 C 0.2782 0.2204 0.06083 0.0
C1724 C 0.27692 0.2438 0.02194 0.0
H1725 H 0.26613 0.2687 0.03407 0.0
C1726 C 0.26025 0.24383 -0.00189 0.0
C1727 C 0.28008 0.25289 0.03492 0.0
C1728 C 0.29942 0.25332 0.06018 0.0
C1729 C 0.24547 0.25267 0.98713 0.0
C1730 C 0.24706 0.26169 0.00043 0.0
C1731 C 0.26489 0.26174 0.02399 0.0
C1732 C 0.22775 0.271 0.99059 0.0
C1733 C 0.22794 0.25229 0.96145 0.0
C1734 C 0.25463 0.27919 0.98462 0.0
C1735 C 0.23577 0.28792 0.97511 0.0
C1736 C 0.18974 0.28858 0.97175 0.0
C1737 C 0.16306 0.28036 0.97796 0.0
C1738 C 0.1819 0.27166 0.98727 0.0
H1739 H 0.23866 0.24541 0.95182 0.0
H1740 H 0.19123 0.25237 0.96192 0.0
H1741 H 0.23912 0.2589 0.95088 0.0
H1742 H 0.29014 0.27879 0.98715 0.0
H1743 H 0.25708 0.29415 0.97061 0.0
H1744 H 0.00285 0.71546 0.66944 0.0
H1745 H 0.02087 0.73216 0.68503 0.0
H1746 H 0.90714 0.73105 0.73229 0.0
H1747 H 0.88913 0.71444 0.71716 0.0
H1748 H 0.97099 0.75085 0.68957 0.0
H1749 H 0.01505 0.73374 0.77851 0.0
H1750 H 0.00821 0.72645 0.75116 0.0
H1751 H 0.96056 0.73082 0.76756 0.0
C1752 C 0.98127 0.71885 0.68284 0.0
C1753 C 0.94497 0.71355 0.69233 0.0
C1754 C 0.99161 0.72838 0.69172 0.0
C1755 C 0.96575 0.73273 0.71011 0.0
C1756 C 0.92793 0.72774 0.71841 0.0
H1757 H 0.99724 0.79265 0.77369 0.0
H1758 H 0.96513 0.7777 0.75455 0.0
C1759 C 0.91772 0.71823 0.70969 0.0
C1760 C 0.98001 0.7421 0.72204 0.0
H1761 H 0.01708 0.75133 0.77622 0.0
C1762 C 0.98094 0.75099 0.70852 0.0
C1763 C 0.99331 0.74221 0.74672 0.0
C1764 C 0.99467 0.73279 0.76185 0.0
C1765 C 0.99482 0.76002 0.71912 0.0
C1766 C 0.00768 0.76012 0.74386 0.0
C1767 C 0.00666 0.75123 0.75733 0.0
C1768 C 0.02593 0.76917 0.75564 0.0
C1769 C 0.99689 0.76932 0.70368 0.0
C1770 C 0.07027 0.76919 0.76308 0.0
C1771 C 0.0885 0.77763 0.774 0.0
C1772 C 0.06267 0.78622 0.77789 0.0
C1773 C 0.01789 0.78613 0.77094 0.0
C1774 C 0.99965 0.77765 0.75985 0.0
H1775 H 0.99283 0.76764 0.68401 0.0
H1776 H 0.97006 0.7745 0.70924 0.0
H1777 H 0.02893 0.77323 0.70638 0.0
H1778 H 0.091 0.7627 0.76013 0.0
H1779 H 0.12306 0.77744 0.7792 0.0
H1780 H 0.61653 0.96358 0.76183 0.0
H1781 H 0.64258 0.97957 0.74615 0.0
H1782 H 0.77744 0.97091 0.76076 0.0
H1783 H 0.75157 0.95476 0.77647 0.0
H1784 H 0.69332 0.99416 0.771 0.0
H1785 H 0.77799 0.97982 0.68819 0.0
H1786 H 0.73841 0.97248 0.70511 0.0
H1787 H 0.7936 0.97409 0.71652 0.0
C1788 C 0.65178 0.96504 0.76171 0.0
C1789 C 0.68204 0.95788 0.77033 0.0
C1790 C 0.66657 0.97419 0.75274 0.0
C1791 C 0.7119 0.97637 0.75203 0.0
C1792 C 0.74232 0.9693 0.76081 0.0
H1793 H 0.82285 0.03545 0.73022 0.0
H1794 H 0.80412 0.01886 0.74522 0.0
C1795 C 0.7275 0.96011 0.7699 0.0
C1796 C 0.72677 0.98615 0.74247 0.0
H1797 H 0.78296 0.99718 0.69572 0.0
C1798 C 0.71306 0.99483 0.7546 0.0
C1799 C 0.75201 0.98697 0.7209 0.0
C1800 C 0.76618 0.97787 0.70673 0.0
C1801 C 0.72403 0.00434 0.74577 0.0
C1802 C 0.7498 0.00517 0.72439 0.0
C1803 C 0.76337 0.9965 0.71217 0.0
C1804 C 0.76282 0.01503 0.7145 0.0
C1805 C 0.70722 0.01344 0.75911 0.0
C1806 C 0.7467 0.01827 0.69189 0.0
C1807 C 0.75739 0.02779 0.68314 0.0
C1808 C 0.78463 0.0342 0.69682 0.0
C1809 C 0.80156 0.03078 0.7192 0.0
C1810 C 0.79081 0.02129 0.7279 0.0
H1811 H 0.67975 0.01156 0.77175 0.0
H1812 H 0.73458 0.0167 0.76997 0.0
H1813 H 0.6955 0.01921 0.74612 0.0
H1814 H 0.72515 0.0135 0.68126 0.0
H1815 H 0.74393 0.03015 0.66581 0.0
H1816 H 0.62886 0.78527 0.00033 0.0
H1817 H 0.65359 0.76989 0.01975 0.0
H1818 H 0.78427 0.77413 0.98988 0.0
H1819 H 0.7599 0.78977 0.97079 0.0
H1820 H 0.68383 0.75325 -0.00201 0.0
H1821 H 0.81208 0.76811 0.06051 0.0
H1822 H 0.77267 0.77607 0.04525 0.0
H1823 H 0.82043 0.77148 0.02924 0.0
C1824 C 0.66299 0.78299 -0.002 0.0
C1825 C 0.69249 0.78874 0.98404 0.0
C1826 C 0.67707 0.77419 0.00915 0.0
C1827 C 0.7209 0.77092 0.00657 0.0
C1828 C 0.75055 0.77663 0.99261 0.0
H1829 H 0.84811 0.71485 0.03687 0.0
H1830 H 0.82944 0.7319 0.0249 0.0
C1831 C 0.73653 0.78552 0.98156 0.0
C1832 C 0.73448 0.76126 0.01747 0.0
H1833 H 0.80793 0.75039 0.05667 0.0
C1834 C 0.71074 0.75265 0.01097 0.0
C1835 C 0.76961 0.76049 0.03442 0.0
C1836 C 0.79494 0.76954 0.04298 0.0
C1837 C 0.72155 0.74328 0.02064 0.0
C1838 C 0.75686 0.7425 0.03736 0.0
C1839 C 0.78071 0.75107 0.04392 0.0
C1840 C 0.7706 0.7327 0.04715 0.0
C1841 C 0.69581 0.7342 0.01258 0.0
C1842 C 0.74422 0.72764 0.06416 0.0
C1843 C 0.75488 0.71788 0.0712 0.0
C1844 C 0.79187 0.71303 0.06111 0.0
C1845 C 0.81919 0.71833 0.04486 0.0
C1846 C 0.80872 0.72809 0.03804 0.0
H1847 H 0.67318 0.73589 -0.00281 0.0
H1848 H 0.71878 0.72815 0.00699 0.0
H1849 H 0.67575 0.73138 0.02803 0.0
H1850 H 0.71469 0.73113 0.07142 0.0
H1851 H 0.73315 0.714 0.08371 0.0
H1852 H 0.34161 0.53621 0.72593 0.0
H1853 H 0.32505 0.51953 0.74082 0.0
H1854 H 0.23258 0.51522 0.68202 0.0
H1855 H 0.24955 0.53197 0.66654 0.0
H1856 H 0.24535 0.51284 0.75662 0.0
H1857 H 0.30544 0.48951 0.67998 0.0
H1858 H 0.3198 0.50254 0.68316 0.0
H1859 H 0.26665 0.49902 0.67122 0.0
C1860 C 0.31791 0.53173 0.71596 0.0
C1861 C 0.29682 0.53547 0.695 0.0
C1862 C 0.30858 0.52217 0.72453 0.0
C1863 C 0.278 0.51609 0.7124 0.0
C1864 C 0.257 0.51972 0.69137 0.0
H1865 H 0.12937 0.46731 0.77077 0.0
H1866 H 0.15751 0.483 0.75459 0.0
C1867 C 0.26651 0.52932 0.68265 0.0
C1868 C 0.26636 0.50622 0.72281 0.0
H1869 H 0.26353 0.48121 0.71069 0.0
C1870 C 0.24958 0.50592 0.74661 0.0
C1871 C 0.27252 0.4972 0.70987 0.0
C1872 C 0.29248 0.49703 0.68472 0.0
C1873 C 0.23776 0.49686 0.75761 0.0
C1874 C 0.24219 0.48789 0.74432 0.0
C1875 C 0.26003 0.48813 0.72076 0.0
C1876 C 0.22594 0.47828 0.75414 0.0
C1877 C 0.22059 0.49698 0.7834 0.0
C1878 C 0.25514 0.47035 0.75889 0.0
C1879 C 0.23912 0.4613 0.76822 0.0
C1880 C 0.19363 0.46006 0.77264 0.0
C1881 C 0.16463 0.46802 0.76766 0.0
C1882 C 0.18062 0.47702 0.75848 0.0
H1883 H 0.23036 0.5039 0.79314 0.0
H1884 H 0.1839 0.49663 0.78309 0.0
H1885 H 0.23298 0.49043 0.79377 0.0
H1886 H 0.29027 0.4712 0.75553 0.0
H1887 H 0.26218 0.45529 0.77177 0.0
H1888 H 0.9866 0.45645 0.46896 0.0
H1889 H 0.96012 0.47185 0.48848 0.0
H1890 H 0.09465 0.48207 0.49605 0.0
H1891 H 0.12141 0.46677 0.47681 0.0
H1892 H 0.99436 0.4805 0.53879 0.0
H1893 H 0.01817 0.50406 0.45634 0.0
H1894 H 0.00977 0.49072 0.45463 0.0
H1895 H 0.0622 0.4956 0.46425 0.0
C1896 C 0.01048 0.46199 0.47478 0.0
C1897 C 0.05606 0.46042 0.47127 0.0
C1898 C 0.99534 0.47073 0.48601 0.0
C1899 C 0.02554 0.47804 0.49363 0.0
C1900 C 0.07094 0.47649 0.49023 0.0
H1901 H 0.00697 0.53232 0.57942 0.0
H1902 H 0.02308 0.51531 0.56534 0.0
C1903 C 0.0861 0.46775 0.47921 0.0
C1904 C 0.00993 0.48748 0.50458 0.0
H1905 H -0.00013 0.51237 0.49281 0.0
C1906 C 0.99525 0.48748 0.52879 0.0
C1907 C 0.01115 0.49651 0.49135 0.0
C1908 C 0.02589 0.4968 0.46513 0.0
C1909 C 0.98226 0.49639 0.54028 0.0
C1910 C 0.98441 0.50547 0.52718 0.0
C1911 C 0.99847 0.5054 0.50284 0.0
C1912 C 0.97155 0.51517 0.53799 0.0
C1913 C 0.96597 0.49603 0.56619 0.0
C1914 C 0.93713 0.52067 0.52742 0.0
C1915 C 0.92809 0.53035 0.53525 0.0
C1916 C 0.95342 0.53479 0.55382 0.0
C1917 C 0.98677 0.52911 0.56514 0.0
C1918 C 0.9959 0.51938 0.55719 0.0
H1919 H 0.95705 0.48832 0.57183 0.0
H1920 H 0.99248 0.49876 0.57847 0.0
H1921 H 0.93667 0.50094 0.56861 0.0
H1922 H 0.91798 0.51755 0.51259 0.0
H1923 H 0.90189 0.53445 0.52623 0.0
H1924 H 0.23089 0.7151 0.56727 0.0
H1925 H 0.21154 0.73172 0.5517 0.0
H1926 H 0.33492 0.73285 0.51234 0.0
H1927 H 0.35374 0.71621 0.5271 0.0
H1928 H 0.2499 0.75017 0.55403 0.0
H1929 H 0.24673 0.73704 0.45834 0.0
H1930 H 0.25001 0.72856 0.48376 0.0
H1931 H 0.29883 0.73487 0.47303 0.0
C1932 C 0.25401 0.71894 0.55548 0.0
C1933 C 0.2935 0.71429 0.54811 0.0
C1934 C 0.24291 0.72842 0.54656 0.0
C1935 C 0.27126 0.7334 0.53032 0.0
C1936 C 0.3119 0.72901 0.52421 0.0
H1937 H 0.25096 0.79139 0.45712 0.0
H1938 H 0.27951 0.77589 0.47532 0.0
C1939 C 0.32271 0.71952 0.53279 0.0
C1940 C 0.25795 0.74303 0.51919 0.0
H1941 H 0.2401 0.75452 0.46451 0.0
C1942 C 0.24773 0.75111 0.53447 0.0
C1943 C 0.25492 0.74424 0.49362 0.0
C1944 C 0.26276 0.73569 0.47623 0.0
C1945 C 0.2349 0.76039 0.52484 0.0
C1946 C 0.2323 0.76158 0.49935 0.0
C1947 C 0.24276 0.75356 0.48405 0.0
C1948 C 0.21565 0.7709 0.48829 0.0
C1949 C 0.22403 0.76887 0.54187 0.0
C1950 C 0.17037 0.77307 0.48927 0.0
C1951 C 0.15401 0.78179 0.47875 0.0
C1952 C 0.18269 0.78856 0.46712 0.0
C1953 C 0.22811 0.78633 0.46595 0.0
C1954 C 0.24444 0.77751 0.47635 0.0
H1955 H 0.23452 0.76727 0.56085 0.0
H1956 H 0.24024 0.77586 0.53567 0.0
H1957 H 0.18774 0.77016 0.5418 0.0
H1958 H 0.14767 0.76799 0.4982 0.0
H1959 H 0.11885 0.78329 0.48001 0.0
H1960 H 0.61635 0.46501 0.26597 0.0
H1961 H 0.64253 0.48047 0.24746 0.0
H1962 H 0.77692 0.46974 0.2511 0.0
H1963 H 0.75088 0.45412 0.26972 0.0
H1964 H 0.70526 0.49414 0.26789 0.0
H1965 H 0.75845 0.47868 0.17859 0.0
H1966 H 0.72116 0.47211 0.1987 0.0
H1967 H 0.7793 0.47246 0.20527 0.0
C1968 C 0.65152 0.4659 0.26284 0.0
C1969 C 0.6816 0.45833 0.26927 0.0
C1970 C 0.66637 0.47475 0.25224 0.0
C1971 C 0.71152 0.47618 0.24765 0.0
C1972 C 0.74183 0.46869 0.25419 0.0
H1973 H 0.83954 0.53238 0.21873 0.0
H1974 H 0.81902 0.51576 0.23262 0.0
C1975 C 0.72697 0.45982 0.26496 0.0
C1976 C 0.72653 0.48569 0.23671 0.0
H1977 H 0.77215 0.49587 0.18552 0.0
C1978 C 0.71995 0.49452 0.24991 0.0
C1979 C 0.74507 0.48614 0.21312 0.0
C1980 C 0.75122 0.47687 0.19791 0.0
C1981 C 0.73191 0.50382 0.24024 0.0
C1982 C 0.75133 0.50427 0.21686 0.0
C1983 C 0.75742 0.49546 0.20349 0.0
C1984 C 0.76632 0.51388 0.20646 0.0
C1985 C 0.7233 0.51312 0.25503 0.0
C1986 C 0.74441 0.51817 0.18651 0.0
C1987 C 0.75608 0.52773 0.17838 0.0
C1988 C 0.78988 0.53312 0.19013 0.0
C1989 C 0.81297 0.52854 0.2094 0.0
C1990 C 0.80135 0.51902 0.21742 0.0
H1991 H 0.69936 0.51174 0.26999 0.0
H1992 H 0.75482 0.51572 0.26323 0.0
H1993 H 0.71031 0.51922 0.24333 0.0
H1994 H 0.71733 0.51426 0.17779 0.0
H1995 H 0.73773 0.53102 0.16347 0.0
H1996 H 0.72615 0.21426 0.57568 0.0
H1997 H 0.7094 0.23125 0.56175 0.0
H1998 H 0.83398 0.23227 0.52355 0.0
H1999 H 0.85037 0.21528 0.53674 0.0
H2000 H 0.75099 0.24951 0.56611 0.0
H2001 H 0.74657 0.23764 0.4694 0.0
H2002 H 0.74816 0.22881 0.49417 0.0
H2003 H 0.79803 0.23492 0.48425 0.0
C2004 C 0.75014 0.21815 0.56452 0.0
C2005 C 0.78925 0.21337 0.55701 0.0
C2006 C 0.74052 0.22784 0.55655 0.0
C2007 C 0.76995 0.23291 0.54109 0.0
C2008 C 0.81021 0.22838 0.53485 0.0
H2009 H 0.75294 0.29025 0.46543 0.0
H2010 H 0.7804 0.27483 0.48439 0.0
C2011 C 0.8196 0.21868 0.54253 0.0
C2012 C 0.75793 0.24277 0.53074 0.0
H2013 H 0.74084 0.255 0.47699 0.0
C2014 C 0.74873 0.25071 0.54664 0.0
C2015 C 0.75493 0.24431 0.50529 0.0
C2016 C 0.76201 0.23595 0.48727 0.0
C2017 C 0.73688 0.26017 0.53774 0.0
C2018 C 0.73392 0.26169 0.51235 0.0
C2019 C 0.74356 0.2538 0.49645 0.0
C2020 C 0.71827 0.27123 0.50187 0.0
C2021 C 0.72776 0.26851 0.5555 0.0
C2022 C 0.67425 0.2742 0.50527 0.0
C2023 C 0.65845 0.2829 0.49435 0.0
C2024 C 0.68643 0.28881 0.47984 0.0
C2025 C 0.73067 0.28586 0.47656 0.0
C2026 C 0.74638 0.27708 0.48737 0.0
H2027 H 0.74128 0.26684 0.57385 0.0
H2028 H 0.74219 0.27565 0.54894 0.0
H2029 H 0.69146 0.26955 0.55722 0.0
H2030 H 0.65188 0.26968 0.51606 0.0
H2031 H 0.62419 0.28498 0.49723 0.0
H2032 H 0.49106 0.29569 0.75842 0.0
H2033 H 0.46259 0.28108 0.73643 0.0
H2034 H 0.58479 0.26541 0.75058 0.0
H2035 H 0.61387 0.28007 0.77138 0.0
H2036 H 0.56115 0.26295 0.70502 0.0
H2037 H 0.41558 0.25565 0.7642 0.0
H2038 H 0.41595 0.26776 0.75022 0.0
H2039 H 0.45773 0.26458 0.77221 0.0
C2040 C 0.51158 0.28909 0.75691 0.0
C2041 C 0.55458 0.28898 0.76661 0.0
C2042 C 0.49527 0.28074 0.74444 0.0
C2043 C 0.52134 0.27209 0.74208 0.0
C2044 C 0.5641 0.272 0.75204 0.0
H2045 H 0.45596 0.21127 0.72422 0.0
H2046 H 0.47275 0.22834 0.73621 0.0
C2047 C 0.58064 0.28037 0.76401 0.0
C2048 C 0.50503 0.26307 0.72917 0.0
H2049 H 0.42621 0.24484 0.73103 0.0
C2050 C 0.5315 0.25901 0.71061 0.0
C2051 C 0.46633 0.25794 0.73649 0.0
C2052 C 0.43741 0.26163 0.757 0.0
C2053 C 0.52166 0.24973 0.70003 0.0
C2054 C 0.48329 0.24454 0.70758 0.0
C2055 C 0.4556 0.24884 0.72526 0.0
C2056 C 0.4736 0.23418 0.69949 0.0
C2057 C 0.55384 0.24536 0.68192 0.0
C2058 C 0.46875 0.23173 0.67476 0.0
C2059 C 0.46 0.22186 0.66776 0.0
C2060 C 0.45491 0.21436 0.68545 0.0
C2061 C 0.45947 0.21688 0.71014 0.0
C2062 C 0.46894 0.22665 0.71705 0.0
H2063 H 0.58648 0.24917 0.68253 0.0
H2064 H 0.55909 0.23727 0.68534 0.0
H2065 H 0.5403 0.24625 0.66329 0.0
H2066 H 0.47122 0.23745 0.6609 0.0
H2067 H 0.45613 0.22015 0.64863 0.0
H2068 H 0.48981 0.02968 0.58384 0.0
H2069 H 0.51212 0.01286 0.57088 0.0
H2070 H 0.45304 0.01792 0.50061 0.0
H2071 H 0.4306 0.03461 0.51314 0.0
H2072 H 0.45203 0.99638 0.54765 0.0
H2073 H 0.59028 0.01075 0.49064 0.0
H2074 H 0.56726 0.01779 0.51568 0.0
H2075 H 0.53776 0.01696 0.48743 0.0
C2076 C 0.48142 0.0272 0.56567 0.0
C2077 C 0.45861 0.03354 0.54952 0.0
C2078 C 0.49403 0.01759 0.55836 0.0
C2079 C 0.4843 0.01423 0.5348 0.0
C2080 C 0.46093 0.02043 0.51884 0.0
H2081 H 0.50363 0.95696 0.46131 0.0
H2082 H 0.47682 0.97235 0.48059 0.0
C2083 C 0.44817 0.02998 0.5261 0.0
C2084 C 0.49994 0.00439 0.52625 0.0
H2085 H 0.57278 0.99363 0.48683 0.0
C2086 C 0.47861 0.99573 0.53449 0.0
C2087 C 0.53465 0.00364 0.50916 0.0
C2088 C 0.55917 0.01276 0.50025 0.0
C2089 C 0.49076 0.98627 0.52565 0.0
C2090 C 0.52476 0.98554 0.50805 0.0
C2091 C 0.54652 0.99422 0.50021 0.0
C2092 C 0.53933 0.97587 0.49782 0.0
C2093 C 0.46751 0.97713 0.53533 0.0
C2094 C 0.58331 0.97282 0.50096 0.0
C2095 C 0.59871 0.96413 0.48986 0.0
C2096 C 0.57044 0.95832 0.4753 0.0
C2097 C 0.52611 0.96128 0.47246 0.0
C2098 C 0.5107 0.97002 0.48359 0.0
H2099 H 0.44966 0.97872 0.55257 0.0
H2100 H 0.44296 0.97453 0.52173 0.0
H2101 H 0.49142 0.97096 0.53854 0.0
H2102 H 0.60594 0.97724 0.5118 0.0
H2103 H 0.633 0.96204 0.4925 0.0
H2104 H 0.48812 0.79521 0.26067 0.0
H2105 H 0.45874 0.78088 0.23795 0.0
H2106 H 0.57563 0.76389 0.25603 0.0
H2107 H 0.60567 0.77823 0.27768 0.0
H2108 H 0.55667 0.76199 0.20937 0.0
H2109 H 0.40392 0.75575 0.26365 0.0
H2110 H 0.40835 0.76792 0.25018 0.0
H2111 H 0.44693 0.76418 0.27337 0.0
C2112 C 0.50722 0.78837 0.25991 0.0
C2113 C 0.5491 0.78781 0.27093 0.0
C2114 C 0.49039 0.78018 0.24701 0.0
C2115 C 0.51479 0.77126 0.24547 0.0
C2116 C 0.55628 0.7707 0.25685 0.0
H2117 H 0.44507 0.71104 0.22506 0.0
H2118 H 0.46032 0.72812 0.23746 0.0
C2119 C 0.57335 0.77889 0.2693 0.0
C2120 C 0.49825 0.76247 0.23177 0.0
H2121 H 0.41658 0.74488 0.23081 0.0
C2122 C 0.52588 0.75827 0.21394 0.0
C2123 C 0.45805 0.75765 0.23775 0.0
C2124 C 0.42771 0.76153 0.25741 0.0
C2125 C 0.51572 0.74911 0.20287 0.0
C2126 C 0.47589 0.74419 0.20914 0.0
C2127 C 0.44708 0.74867 0.22601 0.0
C2128 C 0.46585 0.7339 0.20079 0.0
C2129 C 0.54909 0.74454 0.18571 0.0
C2130 C 0.46382 0.73141 0.17596 0.0
C2131 C 0.45601 0.72152 0.16876 0.0
C2132 C 0.44897 0.71405 0.1863 0.0
C2133 C 0.45015 0.71663 0.21107 0.0
C2134 C 0.45874 0.72641 0.21821 0.0
H2135 H 0.58208 0.74814 0.1873 0.0
H2136 H 0.55301 0.73642 0.18926 0.0
H2137 H 0.53751 0.74552 0.16671 0.0
H2138 H 0.46815 0.7371 0.16217 0.0
H2139 H 0.45474 0.71976 0.14955 0.0
H2140 H 0.49299 0.45585 0.96674 0.0
H2141 H 0.46273 0.47117 0.98496 0.0
H2142 H 0.59507 0.48178 -0.00137 0.0
H2143 H 0.62552 0.46659 0.98068 0.0
H2144 H 0.48589 0.48004 0.03575 0.0
H2145 H 0.52688 0.50355 0.9554 0.0
H2146 H 0.52031 0.49016 0.95344 0.0
H2147 H 0.56995 0.49537 0.96609 0.0
C2148 C 0.51557 0.46144 0.97368 0.0
C2149 C 0.56162 0.46004 0.97218 0.0
C2150 C 0.49827 0.47015 0.98414 0.0
C2151 C 0.52679 0.47757 0.99299 0.0
C2152 C 0.57263 0.47613 0.99178 0.0
H2153 H 0.49563 0.53111 0.07956 0.0
H2154 H 0.51227 0.51418 0.06526 0.0
C2155 C 0.58991 0.46744 0.98151 0.0
C2156 C 0.50915 0.48702 0.00288 0.0
H2157 H 0.504 0.51198 0.99103 0.0
C2158 C 0.48943 0.48703 0.02598 0.0
C2159 C 0.51373 0.49606 0.98993 0.0
C2160 C 0.53356 0.49635 0.96475 0.0
C2161 C 0.475 0.49598 0.03676 0.0
C2162 C 0.48095 0.50508 0.02411 0.0
C2163 C 0.49975 0.50499 0.00076 0.0
C2164 C 0.46775 0.51485 0.03446 0.0
C2165 C 0.45328 0.49562 0.06144 0.0
C2166 C 0.43735 0.52083 0.02187 0.0
C2167 C 0.42815 0.53049 0.0298 0.0
C2168 C 0.44927 0.53443 0.05052 0.0
C2169 C 0.47873 0.52831 0.06359 0.0
C2170 C 0.48806 0.51861 0.05553 0.0
H2171 H 0.44124 0.48799 0.06589 0.0
H2172 H 0.47775 0.49782 0.07549 0.0
H2173 H 0.425 0.5009 0.0624 0.0
H2174 H 0.42138 0.51807 0.00554 0.0
H2175 H 0.405 0.53494 0.01935 0.0
H2176 H 0.189 0.33076 0.22467 0.0
H2177 H 0.18478 0.33093 0.18042 0.0
H2178 H 0.06624 0.31304 0.1831 0.0
H2179 H 0.07034 0.31268 0.22753 0.0
H2180 H 0.1311 0.30619 0.14986 0.0
H2181 H 0.09569 0.34665 0.13871 0.0
H2182 H 0.14324 0.34394 0.15717 0.0
H2183 H 0.08918 0.34023 0.16736 0.0
C2184 C 0.16182 0.3269 0.21594 0.0
C2185 C 0.12986 0.32174 0.22968 0.0
C2186 C 0.15942 0.32705 0.19065 0.0
C2187 C 0.12494 0.32211 0.17864 0.0
C2188 C 0.09298 0.31694 0.19217 0.0
H2189 H 0.04612 0.32817 0.02965 0.0
H2190 H 0.05267 0.32804 0.07372 0.0
C2191 C 0.09531 0.31678 0.21752 0.0
C2192 C 0.12292 0.32215 0.15188 0.0
H2193 H 0.11303 0.33758 0.10288 0.0
C2194 C 0.12702 0.31303 0.13952 0.0
C2195 C 0.11729 0.3311 0.13862 0.0
C2196 C 0.11069 0.34103 0.1511 0.0
C2197 C 0.12593 0.31264 0.11406 0.0
C2198 C 0.12141 0.32163 0.10079 0.0
C2199 C 0.11703 0.33073 0.11318 0.0
C2200 C 0.11855 0.32172 0.07402 0.0
C2201 C 0.12861 0.3026 0.10163 0.0
C2202 C 0.15381 0.31833 0.05962 0.0
C2203 C 0.15017 0.31834 0.03429 0.0
C2204 C 0.11133 0.32184 0.02304 0.0
C2205 C 0.07654 0.32543 0.03764 0.0
C2206 C 0.08016 0.32536 0.06286 0.0
H2207 H 0.12158 0.29637 0.1144 0.0
H2208 H 0.10495 0.30218 0.08621 0.0
H2209 H 0.16249 0.30153 0.0943 0.0
H2210 H 0.18407 0.31568 0.06797 0.0
H2211 H 0.17762 0.31556 0.02358 0.0
H2212 H 0.16682 0.90958 0.01591 0.0
H2213 H 0.16594 0.90714 0.05992 0.0
H2214 H 0.08607 0.93365 0.06823 0.0
H2215 H 0.08561 0.93597 0.02418 0.0
H2216 H 0.20086 0.91949 0.09246 0.0
H2217 H 0.02273 0.91464 0.11269 0.0
H2218 H 0.04446 0.91395 0.08216 0.0
H2219 H 0.03333 0.92589 0.09598 0.0
C2220 C 0.1484 0.91479 0.02708 0.0
C2221 C 0.12629 0.92297 0.01661 0.0
C2222 C 0.14796 0.91339 0.05221 0.0
C2223 C 0.12562 0.92015 0.06732 0.0
C2224 C 0.10261 0.92819 0.05688 0.0
H2225 H 0.18166 0.935 0.21607 0.0
H2226 H 0.182 0.93324 0.17187 0.0
C2227 C 0.10254 0.92954 0.03169 0.0
C2228 C 0.12957 0.91927 0.09404 0.0
H2229 H 0.06955 0.91867 0.14651 0.0
C2230 C 0.17215 0.91918 0.10428 0.0
C2231 C 0.09212 0.91876 0.1094 0.0
C2232 C 0.04562 0.91821 0.09948 0.0
C2233 C 0.17831 0.91886 0.12953 0.0
C2234 C 0.14084 0.91891 0.1449 0.0
C2235 C 0.09827 0.91872 0.13466 0.0
C2236 C 0.14475 0.91942 0.17167 0.0
C2237 C 0.22484 0.91843 0.13943 0.0
C2238 C 0.12362 0.91225 0.18619 0.0
C2239 C 0.12283 0.91331 0.21142 0.0
C2240 C 0.1433 0.92156 0.22256 0.0
C2241 C 0.16604 0.92851 0.20804 0.0
C2242 C 0.16638 0.92749 0.18278 0.0
H2243 H 0.24821 0.91525 0.12588 0.0
H2244 H 0.23612 0.92612 0.14374 0.0
H2245 H 0.22651 0.91388 0.15629 0.0
H2246 H 0.10671 0.90597 0.17795 0.0
H2247 H 0.10517 0.90782 0.22212 0.0
H2248 H 0.96612 0.68635 0.78047 0.0
H2249 H 0.95696 0.68813 0.82462 0.0
H2250 H 0.81538 0.6899 0.81544 0.0
H2251 H 0.82417 0.68838 0.77161 0.0
H2252 H 0.84683 0.70374 0.84791 0.0
H2253 H 0.91136 0.66574 0.86822 0.0
H2254 H 0.9488 0.67358 0.85152 0.0
H2255 H 0.8976 0.66972 0.83779 0.0
C2256 C 0.93312 0.68716 0.78792 0.0
C2257 C 0.89587 0.68714 0.77266 0.0
C2258 C 0.92793 0.68813 0.81308 0.0
C2259 C 0.88543 0.68898 0.82322 0.0
C2260 C 0.84841 0.68922 0.80793 0.0
H2261 H 0.77216 0.68603 0.96795 0.0
H2262 H 0.78271 0.68759 0.92376 0.0
C2263 C 0.85355 0.68832 0.78289 0.0
C2264 C 0.87892 0.68938 0.84979 0.0
H2265 H 0.89294 0.67591 0.90187 0.0
C2266 C 0.85691 0.69767 0.85975 0.0
C2267 C 0.89173 0.68138 0.86503 0.0
C2268 C 0.91332 0.67205 0.85514 0.0
C2269 C 0.84773 0.6982 0.8847 0.0
C2270 C 0.86086 0.69024 0.89986 0.0
C2271 C 0.883 0.68198 0.88999 0.0
C2272 C 0.85308 0.69039 0.92624 0.0
C2273 C 0.82455 0.70726 0.89485 0.0
C2274 C 0.8891 0.69156 0.94193 0.0
C2275 C 0.88324 0.6907 0.96693 0.0
C2276 C 0.84126 0.68855 0.97665 0.0
C2277 C 0.80483 0.68768 0.96092 0.0
C2278 C 0.81076 0.68859 0.93578 0.0
H2279 H 0.82101 0.71329 0.8811 0.0
H2280 H 0.79108 0.7051 0.90128 0.0
H2281 H 0.84308 0.71022 0.91073 0.0
H2282 H 0.92196 0.69292 0.93476 0.0
H2283 H 0.91197 0.69145 0.97857 0.0
H2284 H 0.77914 0.06585 0.77791 0.0
H2285 H 0.79137 0.06584 0.82215 0.0
H2286 H 0.93197 0.06315 0.81055 0.0
H2287 H 0.92031 0.06308 0.7667 0.0
H2288 H 0.8451 0.04933 0.84864 0.0
H2289 H 0.91003 0.08808 0.85786 0.0
H2290 H 0.87398 0.08439 0.83321 0.0
H2291 H 0.93092 0.08061 0.83315 0.0
C2292 C 0.81259 0.06529 0.78485 0.0
C2293 C 0.84873 0.06445 0.76892 0.0
C2294 C 0.8195 0.06529 0.81001 0.0
C2295 C 0.86258 0.06458 0.81937 0.0
C2296 C 0.89859 0.06379 0.80353 0.0
H2297 H 0.97023 0.06593 0.96667 0.0
H2298 H 0.96311 0.06536 0.92213 0.0
C2299 C 0.89175 0.06371 0.77851 0.0
C2300 C 0.87027 0.06431 0.84575 0.0
H2301 H 0.91256 0.07785 0.89281 0.0
C2302 C 0.85965 0.05556 0.8584 0.0
C2303 C 0.89004 0.0724 0.85808 0.0
C2304 C 0.90179 0.08195 0.84501 0.0
C2305 C 0.86835 0.05467 0.88332 0.0
C2306 C 0.88713 0.06287 0.89586 0.0
C2307 C 0.8983 0.07158 0.88308 0.0
C2308 C 0.89237 0.06281 0.92253 0.0
C2309 C 0.85787 0.04494 0.89591 0.0
C2310 C 0.85495 0.06167 0.93727 0.0
C2311 C 0.85893 0.06193 0.96244 0.0
C2312 C 0.90037 0.06349 0.97341 0.0
C2313 C 0.93795 0.06469 0.95867 0.0
C2314 C 0.93392 0.06437 0.93332 0.0
H2315 H 0.85754 0.0386 0.88286 0.0
H2316 H 0.88221 0.04328 0.9105 0.0
H2317 H 0.82451 0.04543 0.90425 0.0
H2318 H 0.82245 0.06073 0.92928 0.0
H2319 H 0.82923 0.06107 0.97328 0.0
H2320 H 0.21803 0.82272 0.72037 0.0
H2321 H 0.21214 0.82303 0.6762 0.0
H2322 H 0.07789 0.81229 0.68082 0.0
H2323 H 0.08346 0.8118 0.72522 0.0
H2324 H 0.13116 0.80261 0.64506 0.0
H2325 H 0.13952 0.84398 0.63856 0.0
H2326 H 0.18403 0.83838 0.65538 0.0
H2327 H 0.1284 0.83755 0.66678 0.0
C2328 C 0.18713 0.82044 0.71209 0.0
C2329 C 0.15101 0.81734 0.72638 0.0
C2330 C 0.18387 0.82064 0.68684 0.0
C2331 C 0.1444 0.81784 0.6754 0.0
C2332 C 0.10855 0.81453 0.68945 0.0
H2333 H 0.06259 0.83063 0.52922 0.0
H2334 H 0.07143 0.82922 0.57311 0.0
C2335 C 0.11178 0.81429 0.71478 0.0
C2336 C 0.14052 0.81848 0.64874 0.0
H2337 H 0.14332 0.83497 0.60153 0.0
C2338 C 0.13371 0.80967 0.63548 0.0
C2339 C 0.14352 0.82773 0.63648 0.0
C2340 C 0.14887 0.83747 0.65 0.0
C2341 C 0.13021 0.80986 0.61005 0.0
C2342 C 0.13425 0.8191 0.59777 0.0
C2343 C 0.14071 0.82791 0.61108 0.0
C2344 C 0.12975 0.81989 0.57116 0.0
C2345 C 0.12133 0.80025 0.5966 0.0
C2346 C 0.16016 0.81522 0.55561 0.0
C2347 C 0.15525 0.816 0.53042 0.0
C2348 C 0.11994 0.8215 0.52046 0.0
C2349 C 0.09011 0.82632 0.53622 0.0
C2350 C 0.09505 0.82552 0.56132 0.0
H2351 H 0.10939 0.79426 0.60898 0.0
H2352 H 0.09638 0.8014 0.58204 0.0
H2353 H 0.1524 0.79763 0.58793 0.0
H2354 H 0.18763 0.81099 0.56295 0.0
H2355 H 0.17882 0.81219 0.51881 0.0
H2356 H 0.04852 0.42114 0.7159 0.0
H2357 H 0.05313 0.42057 0.67178 0.0
H2358 H 0.18715 0.43155 0.67473 0.0
H2359 H 0.1828 0.43233 0.71921 0.0
H2360 H 0.13409 0.44108 0.63993 0.0
H2361 H 0.12212 0.39987 0.63243 0.0
H2362 H 0.07824 0.40529 0.65003 0.0
H2363 H 0.13438 0.40612 0.66073 0.0
C2364 C 0.07917 0.4234 0.70729 0.0
C2365 C 0.1155 0.42669 0.72114 0.0
C2366 C 0.08172 0.42302 0.68205 0.0
C2367 C 0.12074 0.42582 0.67014 0.0
C2368 C 0.15689 0.42928 0.68373 0.0
H2369 H 0.17586 0.41403 0.51854 0.0
H2370 H 0.17559 0.41441 0.56285 0.0
C2371 C 0.15433 0.42971 0.70909 0.0
C2372 C 0.12315 0.42525 0.64341 0.0
H2373 H 0.11124 0.40915 0.59584 0.0
C2374 C 0.12947 0.4341 0.63023 0.0
C2375 C 0.11759 0.4161 0.63095 0.0
C2376 C 0.11314 0.40629 0.64425 0.0
C2377 C 0.12917 0.43409 0.60474 0.0
C2378 C 0.12151 0.425 0.59231 0.0
C2379 C 0.1164 0.41612 0.6055 0.0
C2380 C 0.1199 0.4245 0.56555 0.0
C2381 C 0.13752 0.44375 0.59137 0.0
C2382 C 0.08775 0.42982 0.5525 0.0
C2383 C 0.08776 0.42965 0.52712 0.0
C2384 C 0.11982 0.42409 0.51444 0.0
C2385 C 0.15079 0.41843 0.52769 0.0
C2386 C 0.15078 0.41864 0.55302 0.0
H2387 H 0.15385 0.44938 0.6032 0.0
H2388 H 0.15855 0.4425 0.57509 0.0
H2389 H 0.10547 0.44691 0.58521 0.0
H2390 H 0.063 0.43421 0.56195 0.0
H2391 H 0.06335 0.43407 0.5175 0.0
H2392 H 0.97638 0.18546 0.28101 0.0
H2393 H 0.9678 0.18688 0.32536 0.0
H2394 H 0.83103 0.19517 0.31594 0.0
H2395 H 0.83903 0.19378 0.27194 0.0
H2396 H 0.91262 0.20606 0.35477 0.0
H2397 H 0.85452 0.16654 0.35884 0.0
H2398 H 0.89509 0.17057 0.33678 0.0
H2399 H 0.83847 0.17431 0.33351 0.0
C2400 C 0.94472 0.18772 0.28842 0.0
C2401 C 0.90827 0.18941 0.27309 0.0
C2402 C 0.93993 0.18854 0.31365 0.0
C2403 C 0.89878 0.1911 0.32364 0.0
C2404 C 0.86297 0.1932 0.30838 0.0
H2405 H 0.781 0.1855 0.46628 0.0
H2406 H 0.79407 0.18761 0.42253 0.0
C2407 C 0.86764 0.19236 0.28329 0.0
C2408 C 0.89167 0.19083 0.35005 0.0
H2409 H 0.85176 0.17585 0.39506 0.0
C2410 C 0.89963 0.19946 0.36373 0.0
C2411 C 0.87414 0.18223 0.36131 0.0
C2412 C 0.86502 0.17284 0.347 0.0
C2413 C 0.89012 0.19973 0.38869 0.0
C2414 C 0.87278 0.19108 0.40003 0.0
C2415 C 0.86485 0.18246 0.38623 0.0
C2416 C 0.86408 0.19065 0.4264 0.0
C2417 C 0.89784 0.20928 0.4026 0.0
C2418 C 0.89912 0.19166 0.44286 0.0
C2419 C 0.89179 0.19046 0.46769 0.0
C2420 C 0.8493 0.18816 0.47648 0.0
C2421 C 0.81404 0.18728 0.46 0.0
C2422 C 0.82144 0.18848 0.43508 0.0
H2423 H 0.89939 0.21585 0.39028 0.0
H2424 H 0.87132 0.21054 0.41625 0.0
H2425 H 0.92987 0.20877 0.41238 0.0
H2426 H 0.93242 0.1931 0.43645 0.0
H2427 H 0.91969 0.19117 0.47994 0.0
H2428 H 0.97484 0.56627 0.46395 0.0
H2429 H 0.96502 0.56471 0.41972 0.0
H2430 H 0.8323 0.55378 0.43082 0.0
H2431 H 0.84167 0.55529 0.47468 0.0
H2432 H 0.88585 0.54301 0.39497 0.0
H2433 H 0.87935 0.58426 0.38206 0.0
H2434 H 0.92613 0.57936 0.39844 0.0
H2435 H 0.87181 0.57846 0.41142 0.0
C2436 C 0.9438 0.56345 0.45691 0.0
C2437 C 0.90887 0.561 0.47267 0.0
C2438 C 0.93821 0.56259 0.43174 0.0
C2439 C 0.89778 0.55924 0.42219 0.0
C2440 C 0.86364 0.55642 0.43794 0.0
H2441 H 0.78454 0.56625 0.27832 0.0
H2442 H 0.79574 0.56514 0.32251 0.0
C2443 C 0.86906 0.55732 0.46296 0.0
C2444 C 0.8898 0.55906 0.39579 0.0
H2445 H 0.87217 0.57427 0.34699 0.0
C2446 C 0.88307 0.54982 0.38439 0.0
C2447 C 0.88538 0.568 0.38234 0.0
C2448 C 0.8907 0.57811 0.39411 0.0
C2449 C 0.87245 0.54928 0.35961 0.0
C2450 C 0.8687 0.55821 0.3461 0.0
C2451 C 0.87503 0.56745 0.35755 0.0
C2452 C 0.8601 0.55814 0.31976 0.0
C2453 C 0.86481 0.5392 0.3481 0.0
C2454 C 0.89255 0.55453 0.30387 0.0
C2455 C 0.88641 0.55521 0.27884 0.0
C2456 C 0.84768 0.5595 0.26929 0.0
C2457 C 0.81462 0.56288 0.28524 0.0
C2458 C 0.82098 0.56227 0.31038 0.0
H2459 H 0.85932 0.53328 0.36195 0.0
H2460 H 0.83583 0.53944 0.33569 0.0
H2461 H 0.89427 0.53712 0.33717 0.0
H2462 H 0.92317 0.55144 0.31085 0.0
H2463 H 0.91242 0.5525 0.26698 0.0
H2464 H 0.57177 0.33629 0.52511 0.0
H2465 H 0.57733 0.33709 0.56923 0.0
H2466 H 0.69284 0.31818 0.56719 0.0
H2467 H 0.68712 0.31712 0.52293 0.0
H2468 H 0.62996 0.3116 0.5992 0.0
H2469 H 0.66235 0.35192 0.61342 0.0
H2470 H 0.61464 0.34961 0.59482 0.0
H2471 H 0.66857 0.34596 0.58416 0.0
C2472 C 0.59884 0.33241 0.53393 0.0
C2473 C 0.62899 0.32663 0.52043 0.0
C2474 C 0.60207 0.33294 0.55918 0.0
C2475 C 0.63579 0.3278 0.57139 0.0
C2476 C 0.66669 0.32223 0.55801 0.0
H2477 H 0.69644 0.33241 0.72428 0.0
H2478 H 0.69565 0.3334 0.68008 0.0
C2479 C 0.66342 0.32167 0.53272 0.0
C2480 C 0.63665 0.32762 0.59823 0.0
H2481 H 0.63979 0.3426 0.64834 0.0
C2482 C 0.63246 0.31837 0.60999 0.0
C2483 C 0.6402 0.33645 0.61216 0.0
C2484 C 0.64713 0.34654 0.60051 0.0
C2485 C 0.63103 0.31771 0.6354 0.0
C2486 C 0.63279 0.32659 0.64931 0.0
C2487 C 0.63776 0.33583 0.63756 0.0
C2488 C 0.63153 0.32641 0.67615 0.0
C2489 C 0.62842 0.30753 0.64709 0.0
C2490 C 0.59514 0.32237 0.68858 0.0
C2491 C 0.59552 0.32172 0.71393 0.0
C2492 C 0.63215 0.32522 0.72723 0.0
C2493 C 0.66769 0.32963 0.71467 0.0
C2494 C 0.66736 0.33021 0.68937 0.0
H2495 H 0.63892 0.30152 0.63437 0.0
H2496 H 0.64945 0.30715 0.66363 0.0
H2497 H 0.5937 0.30601 0.65252 0.0
H2498 H 0.5667 0.31961 0.67866 0.0
H2499 H 0.56749 0.31834 0.72303 0.0
H2500 H 0.67091 0.90741 0.51487 0.0
H2501 H 0.66904 0.90648 0.55921 0.0
H2502 H 0.58073 0.93178 0.56142 0.0
H2503 H 0.58167 0.93268 0.51708 0.0
H2504 H 0.69824 0.92142 0.58944 0.0
H2505 H 0.52234 0.91238 0.6083 0.0
H2506 H 0.54668 0.91097 0.57851 0.0
H2507 H 0.52969 0.92309 0.5891 0.0
C2508 C 0.65036 0.91266 0.52475 0.0
C2509 C 0.62647 0.92013 0.51245 0.0
C2510 C 0.64946 0.91213 0.55006 0.0
C2511 C 0.62466 0.91903 0.56352 0.0
C2512 C 0.59947 0.92627 0.55132 0.0
H2513 H 0.66257 0.93546 0.71509 0.0
H2514 H 0.66674 0.93471 0.6706 0.0
C2515 C 0.60008 0.92677 0.52597 0.0
C2516 C 0.62769 0.91909 0.59031 0.0
H2517 H 0.56614 0.91742 0.64205 0.0
C2518 C 0.66945 0.92048 0.601 0.0
C2519 C 0.59006 0.91783 0.60522 0.0
C2520 C 0.54471 0.91589 0.59474 0.0
C2521 C 0.67458 0.92068 0.62634 0.0
C2522 C 0.63677 0.91965 0.64124 0.0
C2523 C 0.59506 0.91824 0.63052 0.0
C2524 C 0.6394 0.91979 0.66806 0.0
C2525 C 0.7204 0.92182 0.63688 0.0
C2526 C 0.62295 0.91165 0.68127 0.0
C2527 C 0.61994 0.91212 0.7065 0.0
C2528 C 0.63359 0.92073 0.719 0.0
C2529 C 0.65219 0.9287 0.70589 0.0
C2530 C 0.65467 0.92827 0.68052 0.0
H2531 H 0.74642 0.91985 0.62343 0.0
H2532 H 0.72552 0.92972 0.64233 0.0
H2533 H 0.72466 0.91706 0.65326 0.0
H2534 H 0.61116 0.90503 0.67197 0.0
H2535 H 0.60582 0.90583 0.71618 0.0
H2536 H 0.42069 0.68964 0.47017 0.0
H2537 H 0.42942 0.69001 0.4261 0.0
H2538 H 0.2896 0.68477 0.41717 0.0
H2539 H 0.28035 0.68433 0.46156 0.0
H2540 H 0.39958 0.67295 0.39389 0.0
H2541 H 0.32539 0.71015 0.37361 0.0
H2542 H 0.34798 0.70709 0.40313 0.0
H2543 H 0.2959 0.70193 0.3939 0.0
C2544 C 0.39164 0.68863 0.4589 0.0
C2545 C 0.34979 0.68693 0.46928 0.0
C2546 C 0.39678 0.68884 0.43376 0.0
C2547 C 0.36015 0.68745 0.4186 0.0
C2548 C 0.31812 0.68593 0.42876 0.0
H2549 H 0.32553 0.68639 0.26401 0.0
H2550 H 0.31778 0.68691 0.30803 0.0
C2551 C 0.31293 0.68566 0.45402 0.0
C2552 C 0.36663 0.68718 0.39212 0.0
H2553 H 0.3495 0.70053 0.34023 0.0
C2554 C 0.38871 0.67896 0.38206 0.0
C2555 C 0.35235 0.69507 0.37703 0.0
C2556 C 0.32926 0.70412 0.38733 0.0
C2557 C 0.39627 0.67831 0.35698 0.0
C2558 C 0.3823 0.68624 0.34182 0.0
C2559 C 0.36035 0.69449 0.35198 0.0
C2560 C 0.38804 0.68591 0.31518 0.0
C2561 C 0.41794 0.66903 0.34689 0.0
C2562 C 0.43028 0.68525 0.30464 0.0
C2563 C 0.43487 0.68485 0.27935 0.0
C2564 C 0.39727 0.68525 0.26438 0.0
C2565 C 0.35517 0.68607 0.27506 0.0
C2566 C 0.35063 0.68639 0.30022 0.0
H2567 H 0.41643 0.66271 0.35996 0.0
H2568 H 0.40199 0.66669 0.32962 0.0
H2569 H 0.45331 0.67062 0.3431 0.0
H2570 H 0.45962 0.68509 0.31594 0.0
H2571 H 0.46769 0.68429 0.27155 0.0
H2572 H 0.3306 0.05735 0.47161 0.0
H2573 H 0.32278 0.05798 0.42757 0.0
H2574 H 0.45841 0.06757 0.42073 0.0
H2575 H 0.46674 0.067 0.46521 0.0
H2576 H 0.34152 0.07643 0.39832 0.0
H2577 H 0.43957 0.04272 0.373 0.0
H2578 H 0.41567 0.04426 0.4029 0.0
H2579 H 0.4634 0.0514 0.39436 0.0
C2580 C 0.35898 0.05954 0.46081 0.0
C2581 C 0.39933 0.06215 0.47184 0.0
C2582 C 0.35435 0.0599 0.43567 0.0
C2583 C 0.39001 0.0628 0.42109 0.0
C2584 C 0.43067 0.06525 0.43186 0.0
H2585 H 0.41618 0.06753 0.26586 0.0
H2586 H 0.42715 0.06688 0.30964 0.0
C2587 C 0.43534 0.06493 0.45716 0.0
C2588 C 0.38362 0.06355 0.39464 0.0
H2589 H 0.40746 0.05195 0.3411 0.0
C2590 C 0.35597 0.07111 0.38571 0.0
C2591 C 0.40258 0.05657 0.37851 0.0
C2592 C 0.43183 0.04822 0.38753 0.0
C2593 C 0.34699 0.07196 0.3608 0.0
C2594 C 0.36534 0.06487 0.34463 0.0
C2595 C 0.39323 0.05732 0.35362 0.0
C2596 C 0.35759 0.06536 0.31815 0.0
C2597 C 0.3188 0.08053 0.352 0.0
C2598 C 0.3147 0.06466 0.30843 0.0
C2599 C 0.30818 0.06512 0.28326 0.0
C2600 C 0.34458 0.06615 0.26759 0.0
C2601 C 0.38742 0.06672 0.27746 0.0
C2602 C 0.39382 0.06634 0.30248 0.0
H2603 H 0.31703 0.08664 0.36565 0.0
H2604 H 0.33186 0.08364 0.3347 0.0
H2605 H 0.28464 0.07782 0.34868 0.0
H2606 H 0.28639 0.06368 0.32027 0.0
H2607 H 0.27487 0.0646 0.2761 0.0
H2608 H 0.57897 0.83605 0.02925 0.0
H2609 H 0.58351 0.83648 0.07348 0.0
H2610 H 0.69938 0.81769 0.07128 0.0
H2611 H 0.69478 0.81703 0.02697 0.0
H2612 H 0.6346 0.81072 0.10211 0.0
H2613 H 0.66803 0.85084 0.11938 0.0
H2614 H 0.62103 0.84868 0.10012 0.0
H2615 H 0.67536 0.84517 0.08986 0.0
C2616 C 0.60591 0.83213 0.03808 0.0
C2617 C 0.63647 0.82648 0.02452 0.0
C2618 C 0.60854 0.83244 0.06338 0.0
C2619 C 0.64204 0.82721 0.07556 0.0
C2620 C 0.6734 0.82181 0.06212 0.0
H2621 H 0.70255 0.82948 0.22879 0.0
H2622 H 0.70238 0.83092 0.18461 0.0
C2623 C 0.67074 0.82147 0.0368 0.0
C2624 C 0.64222 0.82672 0.10236 0.0
H2625 H 0.64629 0.84104 0.15359 0.0
C2626 C 0.63745 0.81734 0.11341 0.0
C2627 C 0.64615 0.83537 0.11693 0.0
C2628 C 0.65335 0.84558 0.106 0.0
C2629 C 0.63599 0.81636 0.13875 0.0
C2630 C 0.63847 0.82505 0.15332 0.0
C2631 C 0.64385 0.83442 0.14229 0.0
C2632 C 0.6372 0.82451 0.18011 0.0
C2633 C 0.63257 0.80605 0.14969 0.0
C2634 C 0.60014 0.82062 0.19218 0.0
C2635 C 0.60014 0.81972 0.21748 0.0
C2636 C 0.63708 0.82281 0.23111 0.0
C2637 C 0.67355 0.82701 0.21891 0.0
C2638 C 0.67356 0.82785 0.19365 0.0
H2639 H 0.64224 0.80016 0.13648 0.0
H2640 H 0.65382 0.80536 0.16608 0.0
H2641 H 0.5978 0.80464 0.15521 0.0
H2642 H 0.57138 0.81819 0.18202 0.0
H2643 H 0.5714 0.81651 0.22628 0.0
H2644 H 0.56736 0.43171 0.0169 0.0
H2645 H 0.56351 0.43101 0.06131 0.0
H2646 H 0.6858 0.41441 0.06317 0.0
H2647 H 0.68953 0.41482 0.01898 0.0
H2648 H 0.62434 0.4069 0.09428 0.0
H2649 H 0.64107 0.44793 0.10582 0.0
H2650 H 0.59523 0.44427 0.08705 0.0
H2651 H 0.65083 0.44175 0.07714 0.0
C2652 C 0.5932 0.42782 0.02673 0.0
C2653 C 0.62891 0.42338 0.01436 0.0
C2654 C 0.59113 0.42751 0.0521 0.0
C2655 C 0.62491 0.42285 0.06544 0.0
C2656 C 0.6596 0.4181 0.05315 0.0
H2657 H 0.67802 0.4312 0.21962 0.0
H2658 H 0.68393 0.43057 0.17524 0.0
C2659 C 0.6616 0.41835 0.02785 0.0
C2660 C 0.62459 0.42296 0.09227 0.0
H2661 H 0.62587 0.43849 0.14144 0.0
C2662 C 0.62476 0.4138 0.10462 0.0
C2663 C 0.62611 0.43199 0.10561 0.0
C2664 C 0.62875 0.44205 0.09327 0.0
C2665 C 0.62555 0.4134 0.13006 0.0
C2666 C 0.62515 0.42243 0.1434 0.0
C2667 C 0.62586 0.4316 0.13108 0.0
C2668 C 0.62254 0.42251 0.17018 0.0
C2669 C 0.62735 0.40334 0.1424 0.0
C2670 C 0.58595 0.41825 0.18186 0.0
C2671 C 0.58257 0.41854 0.2071 0.0
C2672 C 0.61553 0.4232 0.22115 0.0
C2673 C 0.65218 0.4275 0.20936 0.0
C2674 C 0.65558 0.42718 0.18403 0.0
H2675 H 0.64064 0.39749 0.13006 0.0
H2676 H 0.64819 0.4036 0.15903 0.0
H2677 H 0.59339 0.40109 0.14779 0.0
H2678 H 0.55961 0.41483 0.17141 0.0
H2679 H 0.55369 0.41522 0.21551 0.0
H2680 H 0.47323 0.18226 0.76997 0.0
H2681 H 0.46891 0.18255 0.81467 0.0
H2682 H 0.32992 0.1896 0.81045 0.0
H2683 H 0.33373 0.18939 0.76621 0.0
H2684 H 0.42194 0.20094 0.84493 0.0
H2685 H 0.35405 0.16243 0.85437 0.0
H2686 H 0.38996 0.16597 0.82951 0.0
H2687 H 0.33362 0.17015 0.82996 0.0
C2688 C 0.44186 0.18389 0.77862 0.0
C2689 C 0.40383 0.18578 0.76465 0.0
C2690 C 0.43948 0.18406 0.80404 0.0
C2691 C 0.39904 0.18604 0.81557 0.0
C2692 C 0.36128 0.18801 0.8017 0.0
H2693 H 0.2927 0.18505 0.96119 0.0
H2694 H 0.30354 0.1856 0.91699 0.0
C2695 C 0.36363 0.1879 0.77645 0.0
C2696 C 0.39549 0.18607 0.8422 0.0
H2697 H 0.35504 0.17248 0.88965 0.0
C2698 C 0.4078 0.1947 0.85486 0.0
C2699 C 0.37635 0.17795 0.85473 0.0
C2700 C 0.36281 0.16855 0.84159 0.0
C2701 C 0.40066 0.19551 0.87997 0.0
C2702 C 0.38149 0.18737 0.89258 0.0
C2703 C 0.36954 0.17871 0.87985 0.0
C2704 C 0.37454 0.18759 0.91911 0.0
C2705 C 0.41249 0.20514 0.89263 0.0
C2706 C 0.41087 0.1885 0.93475 0.0
C2707 C 0.40478 0.18823 0.95983 0.0
C2708 C 0.36226 0.18694 0.96973 0.0
C2709 C 0.32579 0.18608 0.95405 0.0
C2710 C 0.33194 0.18638 0.92887 0.0
H2711 H 0.41501 0.21146 0.8796 0.0
H2712 H 0.38761 0.20706 0.90675 0.0
H2713 H 0.44509 0.20428 0.90167 0.0
H2714 H 0.44409 0.18921 0.92754 0.0
H2715 H 0.4336 0.18886 0.97144 0.0
H2716 H 0.45958 0.57603 0.96813 0.0
H2717 H 0.44959 0.57754 0.92399 0.0
H2718 H 0.35513 0.55335 0.92569 0.0
H2719 H 0.36294 0.5523 0.96983 0.0
H2720 H 0.46181 0.56636 0.88672 0.0
H2721 H 0.28258 0.57378 0.89234 0.0
H2722 H 0.3173 0.5734 0.91898 0.0
H2723 H 0.295 0.56203 0.90633 0.0
C2724 C 0.43698 0.57101 0.95893 0.0
C2725 C 0.4116 0.56414 0.97217 0.0
C2726 C 0.43114 0.5719 0.93381 0.0
C2727 C 0.40043 0.56579 0.92167 0.0
C2728 C 0.37752 0.55844 0.9348 0.0
H2729 H 0.39908 0.55286 0.7691 0.0
H2730 H 0.41009 0.55358 0.81304 0.0
C2731 C 0.3824 0.55775 0.95992 0.0
C2732 C 0.39229 0.56704 0.8953 0.0
H2733 H 0.30969 0.56849 0.85319 0.0
C2734 C 0.42858 0.56696 0.8794 0.0
C2735 C 0.34903 0.56816 0.88575 0.0
C2736 C 0.3089 0.56947 0.90181 0.0
C2737 C 0.42267 0.5675 0.85416 0.0
C2738 C 0.37916 0.56762 0.84457 0.0
C2739 C 0.343 0.56817 0.8605 0.0
C2740 C 0.37038 0.5669 0.81813 0.0
C2741 C 0.46324 0.56806 0.83819 0.0
C2742 C 0.34185 0.57372 0.80662 0.0
C2743 C 0.33406 0.57305 0.78162 0.0
C2744 C 0.35537 0.56568 0.76783 0.0
C2745 C 0.38283 0.5587 0.77941 0.0
C2746 C 0.38958 0.55919 0.80443 0.0
H2747 H 0.49129 0.57163 0.84794 0.0
H2748 H 0.47377 0.56038 0.83321 0.0
H2749 H 0.45674 0.57234 0.82128 0.0
H2750 H 0.32625 0.57967 0.81688 0.0
H2751 H 0.31283 0.57852 0.77295 0.0
loop_
_geom_bond_atom_site_label_1
_geom_bond_atom_site_label_2
_geom_bond_distance
_geom_bond_site_symmetry_2
_ccdc_geom_bond_type
Co0 O1 2.216 . S
Co0 O2 2.091 . S
Co0 O4 2.004 . S
Co0 O10 2.021 . S
Co0 O12 2.137 . S
Co0 O13 2.244 . S
O1 Co0 2.216 . S
O1 C8 1.247 . S
O2 Co0 2.091 . S
O2 C8 1.261 . S
C3 O12 1.247 . S
C3 O13 1.272 . S
O4 Co0 2.004 . S
O4 C9 1.259 . S
Co5 O6 2.061 . S
Co5 O11 2.052 . S
Co5 O13 2.135 . S
O6 Co5 2.061 . S
O6 C9 1.235 . S
C7 O10 1.238 . S
C7 O11 1.241 . S
C8 O1 1.247 . S
C8 O2 1.261 . S
C9 O4 1.259 . S
C9 O6 1.235 . S
O10 Co0 2.021 . S
O10 C7 1.238 . S
O11 Co5 2.052 . S
O11 C7 1.241 . S
O12 Co0 2.137 . S
O12 C3 1.247 . S
O13 Co0 2.244 . S
O13 C3 1.272 . S
O13 Co5 2.135 . S
Co14 O15 2.216 . S
Co14 O16 2.091 . S
Co14 O18 2.004 . S
Co14 O24 2.021 . S
Co14 O26 2.137 . S
Co14 O27 2.244 . S
O15 Co14 2.216 . S
O15 C22 1.247 . S
O16 Co14 2.091 . S
O16 C22 1.261 . S
C17 O26 1.247 . S
C17 O27 1.272 . S
O18 Co14 2.004 . S
O18 C23 1.259 . S
Co19 O20 2.061 . S
Co19 O25 2.052 . S
Co19 O27 2.135 . S
O20 Co19 2.061 . S
O20 C23 1.235 . S
C21 O24 1.238 . S
C21 O25 1.241 . S
C22 O15 1.247 . S
C22 O16 1.261 . S
C23 O18 1.259 . S
C23 O20 1.235 . S
O24 Co14 2.021 . S
O24 C21 1.238 . S
O25 Co19 2.052 . S
O25 C21 1.241 . S
O26 Co14 2.137 . S
O26 C17 1.247 . S
O27 Co14 2.244 . S
O27 C17 1.272 . S
O27 Co19 2.135 . S
Co28 O29 2.216 . S
Co28 O30 2.091 . S
Co28 O32 2.004 . S
Co28 O38 2.021 . S
Co28 O40 2.137 . S
Co28 O41 2.244 . S
O29 Co28 2.216 . S
O29 C36 1.247 . S
O30 Co28 2.091 . S
O30 C36 1.261 . S
C31 O40 1.247 . S
C31 O41 1.272 . S
O32 Co28 2.004 . S
O32 C37 1.259 . S
Co33 O34 2.061 . S
Co33 O39 2.052 1_556 S
Co33 O41 2.135 . S
O34 Co33 2.061 . S
O34 C37 1.235 . S
C35 O38 1.238 1_554 S
C35 O39 1.241 . S
C36 O29 1.247 . S
C36 O30 1.261 . S
C37 O32 1.259 . S
C37 O34 1.235 . S
O38 Co28 2.021 . S
O38 C35 1.238 1_556 S
O39 Co33 2.052 1_554 S
O39 C35 1.241 . S
O40 Co28 2.137 . S
O40 C31 1.247 . S
O41 Co28 2.244 . S
O41 C31 1.272 . S
O41 Co33 2.135 . S
Co42 O43 2.216 . S
Co42 O44 2.091 . S
Co42 O46 2.004 . S
Co42 O52 2.021 . S
Co42 O54 2.137 . S
Co42 O55 2.244 . S
O43 Co42 2.216 . S
O43 C50 1.247 . S
O44 Co42 2.091 . S
O44 C50 1.261 . S
C45 O54 1.247 . S
C45 O55 1.272 . S
O46 Co42 2.004 . S
O46 C51 1.259 . S
Co47 O48 2.061 . S
Co47 O53 2.052 1_556 S
Co47 O55 2.135 . S
O48 Co47 2.061 . S
O48 C51 1.235 . S
C49 O52 1.238 1_554 S
C49 O53 1.241 . S
C50 O43 1.247 . S
C50 O44 1.261 . S
C51 O46 1.259 . S
C51 O48 1.235 . S
O52 Co42 2.021 . S
O52 C49 1.238 1_556 S
O53 Co47 2.052 1_554 S
O53 C49 1.241 . S
O54 Co42 2.137 . S
O54 C45 1.247 . S
O55 Co42 2.244 . S
O55 C45 1.272 . S
O55 Co47 2.135 . S
Co56 O57 2.216 . S
Co56 O58 2.091 . S
Co56 O60 2.004 . S
Co56 O66 2.021 . S
Co56 O68 2.137 . S
Co56 O69 2.244 . S
O57 Co56 2.216 . S
O57 C64 1.247 . S
O58 Co56 2.091 . S
O58 C64 1.261 . S
C59 O68 1.247 . S
C59 O69 1.272 . S
O60 Co56 2.004 . S
O60 C65 1.259 . S
Co61 O62 2.061 . S
Co61 O67 2.052 . S
Co61 O69 2.135 . S
O62 Co61 2.061 . S
O62 C65 1.235 . S
C63 O66 1.238 . S
C63 O67 1.241 . S
C64 O57 1.247 . S
C64 O58 1.261 . S
C65 O60 1.259 . S
C65 O62 1.235 . S
O66 Co56 2.021 . S
O66 C63 1.238 . S
O67 Co61 2.052 . S
O67 C63 1.241 . S
O68 Co56 2.137 . S
O68 C59 1.247 . S
O69 Co56 2.244 . S
O69 C59 1.272 . S
O69 Co61 2.135 . S
Co70 O71 2.216 . S
Co70 O72 2.091 . S
Co70 O74 2.004 . S
Co70 O80 2.021 . S
Co70 O82 2.137 . S
Co70 O83 2.244 . S
O71 Co70 2.216 . S
O71 C78 1.247 . S
O72 Co70 2.091 . S
O72 C78 1.261 . S
C73 O82 1.247 . S
C73 O83 1.272 . S
O74 Co70 2.004 . S
O74 C79 1.259 . S
Co75 O76 2.061 . S
Co75 O81 2.052 . S
Co75 O83 2.135 . S
O76 Co75 2.061 . S
O76 C79 1.235 . S
C77 O80 1.238 . S
C77 O81 1.241 . S
C78 O71 1.247 . S
C78 O72 1.261 . S
C79 O74 1.259 . S
C79 O76 1.235 . S
O80 Co70 2.021 . S
O80 C77 1.238 . S
O81 Co75 2.052 . S
O81 C77 1.241 . S
O82 Co70 2.137 . S
O82 C73 1.247 . S
O83 Co70 2.244 . S
O83 C73 1.272 . S
O83 Co75 2.135 . S
Co84 O85 2.216 . S
Co84 O86 2.091 1_554 S
Co84 O88 2.004 . S
Co84 O94 2.021 . S
Co84 O96 2.137 . S
Co84 O97 2.244 . S
O85 Co84 2.216 . S
O85 C92 1.247 1_554 S
O86 Co84 2.091 1_556 S
O86 C92 1.261 . S
C87 O96 1.247 . S
C87 O97 1.272 . S
O88 Co84 2.004 . S
O88 C93 1.259 . S
Co89 O90 2.061 . S
Co89 O95 2.052 . S
Co89 O97 2.135 . S
O90 Co89 2.061 . S
O90 C93 1.235 . S
C91 O94 1.238 . S
C91 O95 1.241 . S
C92 O85 1.247 1_556 S
C92 O86 1.261 . S
C93 O88 1.259 . S
C93 O90 1.235 . S
O94 Co84 2.021 . S
O94 C91 1.238 . S
O95 Co89 2.052 . S
O95 C91 1.241 . S
O96 Co84 2.137 . S
O96 C87 1.247 . S
O97 Co84 2.244 . S
O97 C87 1.272 . S
O97 Co89 2.135 . S
Co98 O99 2.216 . S
Co98 O100 2.091 1_554 S
Co98 O102 2.004 . S
Co98 O108 2.021 . S
Co98 O110 2.137 . S
Co98 O111 2.244 . S
O99 Co98 2.216 . S
O99 C106 1.247 1_554 S
O100 Co98 2.091 1_556 S
O100 C106 1.261 . S
C101 O110 1.247 . S
C101 O111 1.272 . S
O102 Co98 2.004 . S
O102 C107 1.259 . S
Co103 O104 2.061 . S
Co103 O109 2.052 . S
Co103 O111 2.135 . S
O104 Co103 2.061 . S
O104 C107 1.235 . S
C105 O108 1.238 . S
C105 O109 1.241 . S
C106 O99 1.247 1_556 S
C106 O100 1.261 . S
C107 O102 1.259 . S
C107 O104 1.235 . S
O108 Co98 2.021 . S
O108 C105 1.238 . S
O109 Co103 2.052 . S
O109 C105 1.241 . S
O110 Co98 2.137 . S
O110 C101 1.247 . S
O111 Co98 2.244 . S
O111 C101 1.272 . S
O111 Co103 2.135 . S
Co112 O113 2.216 . S
Co112 O114 2.091 . S
Co112 O116 2.004 . S
Co112 O122 2.021 . S
Co112 O124 2.137 . S
Co112 O125 2.244 . S
O113 Co112 2.216 . S
O113 C120 1.247 . S
O114 Co112 2.091 . S
O114 C120 1.261 . S
C115 O124 1.247 . S
C115 O125 1.272 . S
O116 Co112 2.004 . S
O116 C121 1.259 . S
Co117 O118 2.061 . S
Co117 O123 2.052 . S
Co117 O125 2.135 . S
O118 Co117 2.061 . S
O118 C121 1.235 . S
C119 O122 1.238 . S
C119 O123 1.241 . S
C120 O113 1.247 . S
C120 O114 1.261 . S
C121 O116 1.259 . S
C121 O118 1.235 . S
O122 Co112 2.021 . S
O122 C119 1.238 . S
O123 Co117 2.052 . S
O123 C119 1.241 . S
O124 Co112 2.137 . S
O124 C115 1.247 . S
O125 Co112 2.244 . S
O125 C115 1.272 . S
O125 Co117 2.135 . S
Co126 O127 2.216 . S
Co126 O128 2.091 . S
Co126 O130 2.004 . S
Co126 O136 2.021 . S
Co126 O138 2.137 . S
Co126 O139 2.244 . S
O127 Co126 2.216 . S
O127 C134 1.247 . S
O128 Co126 2.091 . S
O128 C134 1.261 . S
C129 O138 1.247 . S
C129 O139 1.272 . S
O130 Co126 2.004 . S
O130 C135 1.259 . S
Co131 O132 2.061 . S
Co131 O137 2.052 . S
Co131 O139 2.135 . S
O132 Co131 2.061 . S
O132 C135 1.235 . S
C133 O136 1.238 . S
C133 O137 1.241 . S
C134 O127 1.247 . S
C134 O128 1.261 . S
C135 O130 1.259 . S
C135 O132 1.235 . S
O136 Co126 2.021 . S
O136 C133 1.238 . S
O137 Co131 2.052 . S
O137 C133 1.241 . S
O138 Co126 2.137 . S
O138 C129 1.247 . S
O139 Co126 2.244 . S
O139 C129 1.272 . S
O139 Co131 2.135 . S
Co140 O141 2.216 . S
Co140 O142 2.091 . S
Co140 O144 2.004 . S
Co140 O150 2.021 . S
Co140 O152 2.137 . S
Co140 O153 2.244 . S
O141 Co140 2.216 . S
O141 C148 1.247 . S
O142 Co140 2.091 . S
O142 C148 1.261 . S
C143 O152 1.247 . S
C143 O153 1.272 . S
O144 Co140 2.004 . S
O144 C149 1.259 . S
Co145 O146 2.061 . S
Co145 O151 2.052 . S
Co145 O153 2.135 . S
O146 Co145 2.061 . S
O146 C149 1.235 . S
C147 O150 1.238 . S
C147 O151 1.241 . S
C148 O141 1.247 . S
C148 O142 1.261 . S
C149 O144 1.259 . S
C149 O146 1.235 . S
O150 Co140 2.021 . S
O150 C147 1.238 . S
O151 Co145 2.052 . S
O151 C147 1.241 . S
O152 Co140 2.137 . S
O152 C143 1.247 . S
O153 Co140 2.244 . S
O153 C143 1.272 . S
O153 Co145 2.135 . S
Co154 O155 2.216 . S
Co154 O156 2.091 . S
Co154 O158 2.004 . S
Co154 O164 2.021 . S
Co154 O166 2.137 . S
Co154 O167 2.244 . S
O155 Co154 2.216 . S
O155 C162 1.247 . S
O156 Co154 2.091 . S
O156 C162 1.261 . S
C157 O166 1.247 . S
C157 O167 1.272 . S
O158 Co154 2.004 . S
O158 C163 1.259 . S
Co159 O160 2.061 . S
Co159 O165 2.052 . S
Co159 O167 2.135 . S
O160 Co159 2.061 . S
O160 C163 1.235 . S
C161 O164 1.238 . S
C161 O165 1.241 . S
C162 O155 1.247 . S
C162 O156 1.261 . S
C163 O158 1.259 . S
C163 O160 1.235 . S
O164 Co154 2.021 . S
O164 C161 1.238 . S
O165 Co159 2.052 . S
O165 C161 1.241 . S
O166 Co154 2.137 . S
O166 C157 1.247 . S
O167 Co154 2.244 . S
O167 C157 1.272 . S
O167 Co159 2.135 . S
Co168 O169 2.216 . S
Co168 O170 2.091 . S
Co168 O172 2.004 . S
Co168 O178 2.021 . S
Co168 O180 2.137 . S
Co168 O181 2.244 . S
O169 Co168 2.216 . S
O169 C176 1.247 . S
O170 Co168 2.091 . S
O170 C176 1.261 . S
C171 O180 1.247 . S
C171 O181 1.272 . S
O172 Co168 2.004 . S
O172 C177 1.259 . S
Co173 O174 2.061 . S
Co173 O179 2.052 . S
Co173 O181 2.135 . S
O174 Co173 2.061 . S
O174 C177 1.235 . S
C175 O178 1.238 . S
C175 O179 1.241 . S
C176 O169 1.247 . S
C176 O170 1.261 . S
C177 O172 1.259 . S
C177 O174 1.235 . S
O178 Co168 2.021 . S
O178 C175 1.238 . S
O179 Co173 2.052 . S
O179 C175 1.241 . S
O180 Co168 2.137 . S
O180 C171 1.247 . S
O181 Co168 2.244 . S
O181 C171 1.272 . S
O181 Co173 2.135 . S
Co182 O183 2.216 . S
Co182 O184 2.091 . S
Co182 O186 2.004 . S
Co182 O192 2.021 . S
Co182 O194 2.137 . S
Co182 O195 2.244 . S
O183 Co182 2.216 . S
O183 C190 1.247 . S
O184 Co182 2.091 . S
O184 C190 1.261 . S
C185 O194 1.247 . S
C185 O195 1.272 . S
O186 Co182 2.004 . S
O186 C191 1.259 . S
Co187 O188 2.061 . S
Co187 O193 2.052 . S
Co187 O195 2.135 . S
O188 Co187 2.061 . S
O188 C191 1.235 . S
C189 O192 1.238 . S
C189 O193 1.241 . S
C190 O183 1.247 . S
C190 O184 1.261 . S
C191 O186 1.259 . S
C191 O188 1.235 . S
O192 Co182 2.021 . S
O192 C189 1.238 . S
O193 Co187 2.052 . S
O193 C189 1.241 . S
O194 Co182 2.137 . S
O194 C185 1.247 . S
O195 Co182 2.244 . S
O195 C185 1.272 . S
O195 Co187 2.135 . S
Co196 O197 2.216 . S
Co196 O198 2.091 . S
Co196 O200 2.004 . S
Co196 O206 2.021 . S
Co196 O208 2.137 . S
Co196 O209 2.244 . S
O197 Co196 2.216 . S
O197 C204 1.247 . S
O198 Co196 2.091 . S
O198 C204 1.261 . S
C199 O208 1.247 . S
C199 O209 1.272 . S
O200 Co196 2.004 . S
O200 C205 1.259 . S
Co201 O202 2.061 . S
Co201 O207 2.052 . S
Co201 O209 2.135 . S
O202 Co201 2.061 . S
O202 C205 1.235 . S
C203 O206 1.238 . S
C203 O207 1.241 . S
C204 O197 1.247 . S
C204 O198 1.261 . S
C205 O200 1.259 . S
C205 O202 1.235 . S
O206 Co196 2.021 . S
O206 C203 1.238 . S
O207 Co201 2.052 . S
O207 C203 1.241 . S
O208 Co196 2.137 . S
O208 C199 1.247 . S
O209 Co196 2.244 . S
O209 C199 1.272 . S
O209 Co201 2.135 . S
Co210 O211 2.216 . S
Co210 O212 2.091 . S
Co210 O214 2.004 . S
Co210 O220 2.021 . S
Co210 O222 2.137 . S
Co210 O223 2.244 . S
O211 Co210 2.216 . S
O211 C218 1.247 . S
O212 Co210 2.091 . S
O212 C218 1.261 . S
C213 O222 1.247 . S
C213 O223 1.272 . S
O214 Co210 2.004 . S
O214 C219 1.259 . S
Co215 O216 2.061 . S
Co215 O221 2.052 . S
Co215 O223 2.135 . S
O216 Co215 2.061 . S
O216 C219 1.235 . S
C217 O220 1.238 . S
C217 O221 1.241 . S
C218 O211 1.247 . S
C218 O212 1.261 . S
C219 O214 1.259 . S
C219 O216 1.235 . S
O220 Co210 2.021 . S
O220 C217 1.238 . S
O221 Co215 2.052 . S
O221 C217 1.241 . S
O222 Co210 2.137 . S
O222 C213 1.247 . S
O223 Co210 2.244 . S
O223 C213 1.272 . S
O223 Co215 2.135 . S
Co224 O225 2.216 . S
Co224 O226 2.091 . S
Co224 O228 2.004 . S
Co224 O234 2.021 . S
Co224 O236 2.137 . S
Co224 O237 2.244 . S
O225 Co224 2.216 . S
O225 C232 1.247 . S
O226 Co224 2.091 . S
O226 C232 1.261 . S
C227 O236 1.247 . S
C227 O237 1.272 . S
O228 Co224 2.004 . S
O228 C233 1.259 . S
Co229 O230 2.061 . S
Co229 O235 2.052 . S
Co229 O237 2.135 . S
O230 Co229 2.061 . S
O230 C233 1.235 . S
C231 O234 1.238 . S
C231 O235 1.241 . S
C232 O225 1.247 . S
C232 O226 1.261 . S
C233 O228 1.259 . S
C233 O230 1.235 . S
O234 Co224 2.021 . S
O234 C231 1.238 . S
O235 Co229 2.052 . S
O235 C231 1.241 . S
O236 Co224 2.137 . S
O236 C227 1.247 . S
O237 Co224 2.244 . S
O237 C227 1.272 . S
O237 Co229 2.135 . S
Co238 O239 2.216 . S
Co238 O240 2.091 . S
Co238 O242 2.004 . S
Co238 O248 2.021 . S
Co238 O250 2.137 . S
Co238 O251 2.244 . S
O239 Co238 2.216 . S
O239 C246 1.247 . S
O240 Co238 2.091 . S
O240 C246 1.261 . S
C241 O250 1.247 . S
C241 O251 1.272 . S
O242 Co238 2.004 . S
O242 C247 1.259 . S
Co243 O244 2.061 . S
Co243 O249 2.052 . S
Co243 O251 2.135 . S
O244 Co243 2.061 . S
O244 C247 1.235 . S
C245 O248 1.238 . S
C245 O249 1.241 . S
C246 O239 1.247 . S
C246 O240 1.261 . S
C247 O242 1.259 . S
C247 O244 1.235 . S
O248 Co238 2.021 . S
O248 C245 1.238 . S
O249 Co243 2.052 . S
O249 C245 1.241 . S
O250 Co238 2.137 . S
O250 C241 1.247 . S
O251 Co238 2.244 . S
O251 C241 1.272 . S
O251 Co243 2.135 . S
Co252 O253 2.216 . S
Co252 O254 2.091 . S
Co252 O256 2.004 . S
Co252 O262 2.021 . S
Co252 O264 2.137 . S
Co252 O265 2.244 . S
O253 Co252 2.216 . S
O253 C260 1.247 . S
O254 Co252 2.091 . S
O254 C260 1.261 . S
C255 O264 1.247 . S
C255 O265 1.272 . S
O256 Co252 2.004 . S
O256 C261 1.259 . S
Co257 O258 2.061 . S
Co257 O263 2.052 . S
Co257 O265 2.135 . S
O258 Co257 2.061 . S
O258 C261 1.235 . S
C259 O262 1.238 . S
C259 O263 1.241 . S
C260 O253 1.247 . S
C260 O254 1.261 . S
C261 O256 1.259 . S
C261 O258 1.235 . S
O262 Co252 2.021 . S
O262 C259 1.238 . S
O263 Co257 2.052 . S
O263 C259 1.241 . S
O264 Co252 2.137 . S
O264 C255 1.247 . S
O265 Co252 2.244 . S
O265 C255 1.272 . S
O265 Co257 2.135 . S
Co266 O267 2.216 . S
Co266 O268 2.091 . S
Co266 O270 2.004 . S
Co266 O276 2.021 . S
Co266 O278 2.137 . S
Co266 O279 2.244 . S
O267 Co266 2.216 . S
O267 C274 1.247 . S
O268 Co266 2.091 . S
O268 C274 1.261 . S
C269 O278 1.247 . S
C269 O279 1.272 . S
O270 Co266 2.004 . S
O270 C275 1.259 . S
Co271 O272 2.061 . S
Co271 O277 2.052 . S
Co271 O279 2.135 . S
O272 Co271 2.061 . S
O272 C275 1.235 . S
C273 O276 1.238 . S
C273 O277 1.241 . S
C274 O267 1.247 . S
C274 O268 1.261 . S
C275 O270 1.259 . S
C275 O272 1.235 . S
O276 Co266 2.021 . S
O276 C273 1.238 . S
O277 Co271 2.052 . S
O277 C273 1.241 . S
O278 Co266 2.137 . S
O278 C269 1.247 . S
O279 Co266 2.244 . S
O279 C269 1.272 . S
O279 Co271 2.135 . S
Co280 O281 2.216 . S
Co280 O282 2.091 . S
Co280 O284 2.004 . S
Co280 O290 2.021 . S
Co280 O292 2.137 . S
Co280 O293 2.244 . S
O281 Co280 2.216 . S
O281 C288 1.247 . S
O282 Co280 2.091 . S
O282 C288 1.261 . S
C283 O292 1.247 . S
C283 O293 1.272 . S
O284 Co280 2.004 . S
O284 C289 1.259 . S
Co285 O286 2.061 . S
Co285 O291 2.052 . S
Co285 O293 2.135 . S
O286 Co285 2.061 . S
O286 C289 1.235 . S
C287 O290 1.238 . S
C287 O291 1.241 . S
C288 O281 1.247 . S
C288 O282 1.261 . S
C289 O284 1.259 . S
C289 O286 1.235 . S
O290 Co280 2.021 . S
O290 C287 1.238 . S
O291 Co285 2.052 . S
O291 C287 1.241 . S
O292 Co280 2.137 . S
O292 C283 1.247 . S
O293 Co280 2.244 . S
O293 C283 1.272 . S
O293 Co285 2.135 . S
Co294 O295 2.216 . S
Co294 O296 2.091 . S
Co294 O298 2.004 . S
Co294 O304 2.021 . S
Co294 O306 2.137 . S
Co294 O307 2.244 . S
O295 Co294 2.216 . S
O295 C302 1.247 . S
O296 Co294 2.091 . S
O296 C302 1.261 . S
C297 O306 1.247 . S
C297 O307 1.272 . S
O298 Co294 2.004 . S
O298 C303 1.259 . S
Co299 O300 2.061 . S
Co299 O305 2.052 . S
Co299 O307 2.135 . S
O300 Co299 2.061 . S
O300 C303 1.235 . S
C301 O304 1.238 . S
C301 O305 1.241 . S
C302 O295 1.247 . S
C302 O296 1.261 . S
C303 O298 1.259 . S
C303 O300 1.235 . S
O304 Co294 2.021 . S
O304 C301 1.238 . S
O305 Co299 2.052 . S
O305 C301 1.241 . S
O306 Co294 2.137 . S
O306 C297 1.247 . S
O307 Co294 2.244 . S
O307 C297 1.272 . S
O307 Co299 2.135 . S
Co308 O309 2.216 . S
Co308 O310 2.091 . S
Co308 O312 2.004 . S
Co308 O318 2.021 . S
Co308 O320 2.137 . S
Co308 O321 2.244 . S
O309 Co308 2.216 . S
O309 C316 1.247 . S
O310 Co308 2.091 . S
O310 C316 1.261 . S
C311 O320 1.247 . S
C311 O321 1.272 . S
O312 Co308 2.004 . S
O312 C317 1.259 . S
Co313 O314 2.061 . S
Co313 O319 2.052 . S
Co313 O321 2.135 . S
O314 Co313 2.061 . S
O314 C317 1.235 . S
C315 O318 1.238 . S
C315 O319 1.241 . S
C316 O309 1.247 . S
C316 O310 1.261 . S
C317 O312 1.259 . S
C317 O314 1.235 . S
O318 Co308 2.021 . S
O318 C315 1.238 . S
O319 Co313 2.052 . S
O319 C315 1.241 . S
O320 Co308 2.137 . S
O320 C311 1.247 . S
O321 Co308 2.244 . S
O321 C311 1.272 . S
O321 Co313 2.135 . S
Co322 O323 2.216 . S
Co322 O324 2.091 . S
Co322 O326 2.004 . S
Co322 O332 2.021 . S
Co322 O334 2.137 . S
Co322 O335 2.244 . S
O323 Co322 2.216 . S
O323 C330 1.247 . S
O324 Co322 2.091 . S
O324 C330 1.261 . S
C325 O334 1.247 . S
C325 O335 1.272 . S
O326 Co322 2.004 . S
O326 C331 1.259 . S
Co327 O328 2.061 . S
Co327 O333 2.052 . S
Co327 O335 2.135 . S
O328 Co327 2.061 . S
O328 C331 1.235 . S
C329 O332 1.238 . S
C329 O333 1.241 . S
C330 O323 1.247 . S
C330 O324 1.261 . S
C331 O326 1.259 . S
C331 O328 1.235 . S
O332 Co322 2.021 . S
O332 C329 1.238 . S
O333 Co327 2.052 . S
O333 C329 1.241 . S
O334 Co322 2.137 . S
O334 C325 1.247 . S
O335 Co322 2.244 . S
O335 C325 1.272 . S
O335 Co327 2.135 . S
Co336 O337 2.216 . S
Co336 O338 2.091 . S
Co336 O340 2.004 . S
Co336 O346 2.021 . S
Co336 O348 2.137 . S
Co336 O349 2.244 . S
O337 Co336 2.216 . S
O337 C344 1.247 . S
O338 Co336 2.091 . S
O338 C344 1.261 . S
C339 O348 1.247 . S
C339 O349 1.272 . S
O340 Co336 2.004 . S
O340 C345 1.259 . S
Co341 O342 2.061 . S
Co341 O347 2.052 . S
Co341 O349 2.135 . S
O342 Co341 2.061 . S
O342 C345 1.235 . S
C343 O346 1.238 . S
C343 O347 1.241 . S
C344 O337 1.247 . S
C344 O338 1.261 . S
C345 O340 1.259 . S
C345 O342 1.235 . S
O346 Co336 2.021 . S
O346 C343 1.238 . S
O347 Co341 2.052 . S
O347 C343 1.241 . S
O348 Co336 2.137 . S
O348 C339 1.247 . S
O349 Co336 2.244 . S
O349 C339 1.272 . S
O349 Co341 2.135 . S
Co350 O351 2.216 . S
Co350 O352 2.091 . S
Co350 O354 2.004 . S
Co350 O360 2.021 . S
Co350 O362 2.137 . S
Co350 O363 2.244 . S
O351 Co350 2.216 . S
O351 C358 1.247 . S
O352 Co350 2.091 . S
O352 C358 1.261 . S
C353 O362 1.247 . S
C353 O363 1.272 . S
O354 Co350 2.004 . S
O354 C359 1.259 . S
Co355 O356 2.061 . S
Co355 O361 2.052 . S
Co355 O363 2.135 . S
O356 Co355 2.061 . S
O356 C359 1.235 . S
C357 O360 1.238 . S
C357 O361 1.241 . S
C358 O351 1.247 . S
C358 O352 1.261 . S
C359 O354 1.259 . S
C359 O356 1.235 . S
O360 Co350 2.021 . S
O360 C357 1.238 . S
O361 Co355 2.052 . S
O361 C357 1.241 . S
O362 Co350 2.137 . S
O362 C353 1.247 . S
O363 Co350 2.244 . S
O363 C353 1.272 . S
O363 Co355 2.135 . S
Co364 O365 2.216 . S
Co364 O366 2.091 . S
Co364 O368 2.004 . S
Co364 O374 2.021 . S
Co364 O376 2.137 . S
Co364 O377 2.244 . S
O365 Co364 2.216 . S
O365 C372 1.247 . S
O366 Co364 2.091 . S
O366 C372 1.261 . S
C367 O376 1.247 . S
C367 O377 1.272 . S
O368 Co364 2.004 . S
O368 C373 1.259 . S
Co369 O370 2.061 . S
Co369 O375 2.052 1_556 S
Co369 O377 2.135 . S
O370 Co369 2.061 . S
O370 C373 1.235 . S
C371 O374 1.238 1_554 S
C371 O375 1.241 . S
C372 O365 1.247 . S
C372 O366 1.261 . S
C373 O368 1.259 . S
C373 O370 1.235 . S
O374 Co364 2.021 . S
O374 C371 1.238 1_556 S
O375 Co369 2.052 1_554 S
O375 C371 1.241 . S
O376 Co364 2.137 . S
O376 C367 1.247 . S
O377 Co364 2.244 . S
O377 C367 1.272 . S
O377 Co369 2.135 . S
Co378 O379 2.216 . S
Co378 O380 2.091 . S
Co378 O382 2.004 . S
Co378 O388 2.021 . S
Co378 O390 2.137 . S
Co378 O391 2.244 . S
O379 Co378 2.216 . S
O379 C386 1.247 . S
O380 Co378 2.091 . S
O380 C386 1.261 . S
C381 O390 1.247 . S
C381 O391 1.272 . S
O382 Co378 2.004 . S
O382 C387 1.259 . S
Co383 O384 2.061 . S
Co383 O389 2.052 1_556 S
Co383 O391 2.135 . S
O384 Co383 2.061 . S
O384 C387 1.235 . S
C385 O388 1.238 1_554 S
C385 O389 1.241 . S
C386 O379 1.247 . S
C386 O380 1.261 . S
C387 O382 1.259 . S
C387 O384 1.235 . S
O388 Co378 2.021 . S
O388 C385 1.238 1_556 S
O389 Co383 2.052 1_554 S
O389 C385 1.241 . S
O390 Co378 2.137 . S
O390 C381 1.247 . S
O391 Co378 2.244 . S
O391 C381 1.272 . S
O391 Co383 2.135 . S
Co392 O393 2.216 . S
Co392 O394 2.091 . S
Co392 O396 2.004 . S
Co392 O402 2.021 . S
Co392 O404 2.137 . S
Co392 O405 2.244 . S
O393 Co392 2.216 . S
O393 C400 1.247 . S
O394 Co392 2.091 . S
O394 C400 1.261 . S
C395 O404 1.247 . S
C395 O405 1.272 . S
O396 Co392 2.004 . S
O396 C401 1.259 . S
Co397 O398 2.061 . S
Co397 O403 2.052 . S
Co397 O405 2.135 . S
O398 Co397 2.061 . S
O398 C401 1.235 . S
C399 O402 1.238 . S
C399 O403 1.241 . S
C400 O393 1.247 . S
C400 O394 1.261 . S
C401 O396 1.259 . S
C401 O398 1.235 . S
O402 Co392 2.021 . S
O402 C399 1.238 . S
O403 Co397 2.052 . S
O403 C399 1.241 . S
O404 Co392 2.137 . S
O404 C395 1.247 . S
O405 Co392 2.244 . S
O405 C395 1.272 . S
O405 Co397 2.135 . S
Co406 O407 2.216 . S
Co406 O408 2.091 . S
Co406 O410 2.004 . S
Co406 O416 2.021 . S
Co406 O418 2.137 . S
Co406 O419 2.244 . S
O407 Co406 2.216 . S
O407 C414 1.247 . S
O408 Co406 2.091 . S
O408 C414 1.261 . S
C409 O418 1.247 . S
C409 O419 1.272 . S
O410 Co406 2.004 . S
O410 C415 1.259 . S
Co411 O412 2.061 . S
Co411 O417 2.052 . S
Co411 O419 2.135 . S
O412 Co411 2.061 . S
O412 C415 1.235 . S
C413 O416 1.238 . S
C413 O417 1.241 . S
C414 O407 1.247 . S
C414 O408 1.261 . S
C415 O410 1.259 . S
C415 O412 1.235 . S
O416 Co406 2.021 . S
O416 C413 1.238 . S
O417 Co411 2.052 . S
O417 C413 1.241 . S
O418 Co406 2.137 . S
O418 C409 1.247 . S
O419 Co406 2.244 . S
O419 C409 1.272 . S
O419 Co411 2.135 . S
Co420 O421 2.216 . S
Co420 O422 2.091 1_554 S
Co420 O424 2.004 . S
Co420 O430 2.021 . S
Co420 O432 2.137 . S
Co420 O433 2.244 . S
O421 Co420 2.216 . S
O421 C428 1.247 1_554 S
O422 Co420 2.091 1_556 S
O422 C428 1.261 . S
C423 O432 1.247 . S
C423 O433 1.272 . S
O424 Co420 2.004 . S
O424 C429 1.259 . S
Co425 O426 2.061 . S
Co425 O431 2.052 . S
Co425 O433 2.135 . S
O426 Co425 2.061 . S
O426 C429 1.235 . S
C427 O430 1.238 . S
C427 O431 1.241 . S
C428 O421 1.247 1_556 S
C428 O422 1.261 . S
C429 O424 1.259 . S
C429 O426 1.235 . S
O430 Co420 2.021 . S
O430 C427 1.238 . S
O431 Co425 2.052 . S
O431 C427 1.241 . S
O432 Co420 2.137 . S
O432 C423 1.247 . S
O433 Co420 2.244 . S
O433 C423 1.272 . S
O433 Co425 2.135 . S
Co434 O435 2.216 . S
Co434 O436 2.091 1_554 S
Co434 O438 2.004 . S
Co434 O444 2.021 . S
Co434 O446 2.137 . S
Co434 O447 2.244 . S
O435 Co434 2.216 . S
O435 C442 1.247 1_554 S
O436 Co434 2.091 1_556 S
O436 C442 1.261 . S
C437 O446 1.247 . S
C437 O447 1.272 . S
O438 Co434 2.004 . S
O438 C443 1.259 . S
Co439 O440 2.061 . S
Co439 O445 2.052 . S
Co439 O447 2.135 . S
O440 Co439 2.061 . S
O440 C443 1.235 . S
C441 O444 1.238 . S
C441 O445 1.241 . S
C442 O435 1.247 1_556 S
C442 O436 1.261 . S
C443 O438 1.259 . S
C443 O440 1.235 . S
O444 Co434 2.021 . S
O444 C441 1.238 . S
O445 Co439 2.052 . S
O445 C441 1.241 . S
O446 Co434 2.137 . S
O446 C437 1.247 . S
O447 Co434 2.244 . S
O447 C437 1.272 . S
O447 Co439 2.135 . S
H448 C456 0.929 . S
H449 C458 0.930 . S
H450 C460 0.930 . S
H451 C463 0.929 . S
H452 C466 0.930 . S
H453 C468 0.960 . S
H454 C468 0.960 . S
H455 C468 0.960 . S
C456 H448 0.929 . S
C456 C457 1.377 . S
C456 C458 1.384 . S
C457 C456 1.377 . S
C457 C463 1.390 . S
C458 H449 0.930 . S
C458 C456 1.384 . S
C458 C459 1.372 . S
C459 C458 1.372 . S
C459 C460 1.400 . S
C459 C464 1.490 . S
C460 H450 0.930 . S
C460 C459 1.400 . S
C460 C463 1.386 . S
H461 C477 0.930 . S
H462 C478 0.931 . S
C463 H451 0.929 . S
C463 C457 1.390 . S
C463 C460 1.386 . S
C464 C459 1.490 . S
C464 C466 1.395 . S
C464 C467 1.403 . S
H465 C471 0.930 . S
C466 H452 0.930 . S
C466 C464 1.395 . S
C466 C469 1.403 . S
C467 C464 1.403 . S
C467 C468 1.524 . S
C467 C471 1.400 . S
C468 H453 0.960 . S
C468 H454 0.960 . S
C468 H455 0.960 . S
C468 C467 1.524 . S
C469 C466 1.403 . S
C469 C470 1.392 . S
C469 C473 1.495 1_455 S
C470 C469 1.392 . S
C470 C471 1.385 . S
C470 C472 1.478 . S
C471 H465 0.930 . S
C471 C467 1.400 . S
C471 C470 1.385 . S
C472 C470 1.478 . S
C472 C474 1.381 . S
C472 C478 1.383 . S
C473 C469 1.495 1_655 S
C473 H479 0.959 . S
C473 H480 0.961 . S
C473 H481 0.960 . S
C474 C472 1.381 . S
C474 C475 1.394 . S
C474 H482 0.930 . S
C475 C474 1.394 . S
C475 C476 1.383 . S
C475 H483 0.929 . S
C476 C475 1.383 . S
C476 C477 1.377 . S
C477 H461 0.930 . S
C477 C476 1.377 . S
C477 C478 1.379 . S
C478 H462 0.931 . S
C478 C472 1.383 . S
C478 C477 1.379 . S
H479 C473 0.959 . S
H480 C473 0.961 . S
H481 C473 0.960 . S
H482 C474 0.930 . S
H483 C475 0.929 . S
H484 C492 0.929 . S
H485 C494 0.930 . S
H486 C496 0.930 . S
H487 C499 0.929 . S
H488 C502 0.930 . S
H489 C504 0.960 . S
H490 C504 0.960 . S
H491 C504 0.960 . S
C492 H484 0.929 . S
C492 C493 1.377 . S
C492 C494 1.384 . S
C493 C492 1.377 . S
C493 C499 1.390 . S
C494 H485 0.930 . S
C494 C492 1.384 . S
C494 C495 1.372 . S
C495 C494 1.372 . S
C495 C496 1.400 . S
C495 C500 1.490 . S
C496 H486 0.930 . S
C496 C495 1.400 . S
C496 C499 1.386 . S
H497 C513 0.930 . S
H498 C514 0.931 . S
C499 H487 0.929 . S
C499 C493 1.390 . S
C499 C496 1.386 . S
C500 C495 1.490 . S
C500 C502 1.395 . S
C500 C503 1.403 . S
H501 C507 0.930 . S
C502 H488 0.930 . S
C502 C500 1.395 . S
C502 C505 1.403 . S
C503 C500 1.403 . S
C503 C504 1.524 . S
C503 C507 1.400 . S
C504 H489 0.960 . S
C504 H490 0.960 . S
C504 H491 0.960 . S
C504 C503 1.524 . S
C505 C502 1.403 . S
C505 C506 1.392 . S
C505 C509 1.495 . S
C506 C505 1.392 . S
C506 C507 1.385 . S
C506 C508 1.478 . S
C507 H501 0.930 . S
C507 C503 1.400 . S
C507 C506 1.385 . S
C508 C506 1.478 . S
C508 C510 1.381 . S
C508 C514 1.383 . S
C509 C505 1.495 . S
C509 H515 0.959 . S
C509 H516 0.961 . S
C509 H517 0.960 . S
C510 C508 1.381 . S
C510 C511 1.394 . S
C510 H518 0.930 . S
C511 C510 1.394 . S
C511 C512 1.383 . S
C511 H519 0.929 . S
C512 C511 1.383 . S
C512 C513 1.377 . S
C513 H497 0.930 . S
C513 C512 1.377 . S
C513 C514 1.379 . S
C514 H498 0.931 . S
C514 C508 1.383 . S
C514 C513 1.379 . S
H515 C509 0.959 . S
H516 C509 0.961 . S
H517 C509 0.960 . S
H518 C510 0.930 . S
H519 C511 0.929 . S
H520 C528 0.929 . S
H521 C530 0.930 . S
H522 C532 0.930 . S
H523 C535 0.929 . S
H524 C538 0.930 . S
H525 C540 0.960 . S
H526 C540 0.960 . S
H527 C540 0.960 . S
C528 H520 0.929 . S
C528 C529 1.377 . S
C528 C530 1.384 . S
C529 C528 1.377 . S
C529 C535 1.390 . S
C530 H521 0.930 . S
C530 C528 1.384 . S
C530 C531 1.372 . S
C531 C530 1.372 . S
C531 C532 1.400 . S
C531 C536 1.490 . S
C532 H522 0.930 . S
C532 C531 1.400 . S
C532 C535 1.386 . S
H533 C549 0.930 . S
H534 C550 0.931 . S
C535 H523 0.929 . S
C535 C529 1.390 . S
C535 C532 1.386 . S
C536 C531 1.490 . S
C536 C538 1.395 . S
C536 C539 1.403 . S
H537 C543 0.930 . S
C538 H524 0.930 . S
C538 C536 1.395 . S
C538 C541 1.403 . S
C539 C536 1.403 . S
C539 C540 1.524 1_455 S
C539 C543 1.400 . S
C540 H525 0.960 . S
C540 H526 0.960 . S
C540 H527 0.960 . S
C540 C539 1.524 1_655 S
C541 C538 1.403 . S
C541 C542 1.392 . S
C541 C545 1.495 . S
C542 C541 1.392 . S
C542 C543 1.385 . S
C542 C544 1.478 . S
C543 H537 0.930 . S
C543 C539 1.400 . S
C543 C542 1.385 . S
C544 C542 1.478 . S
C544 C546 1.381 . S
C544 C550 1.383 . S
C545 C541 1.495 . S
C545 H551 0.959 . S
C545 H552 0.961 . S
C545 H553 0.960 . S
C546 C544 1.381 . S
C546 C547 1.394 . S
C546 H554 0.930 . S
C547 C546 1.394 . S
C547 C548 1.383 . S
C547 H555 0.929 . S
C548 C547 1.383 . S
C548 C549 1.377 . S
C549 H533 0.930 . S
C549 C548 1.377 . S
C549 C550 1.379 . S
C550 H534 0.931 . S
C550 C544 1.383 . S
C550 C549 1.379 . S
H551 C545 0.959 . S
H552 C545 0.961 . S
H553 C545 0.960 . S
H554 C546 0.930 . S
H555 C547 0.929 . S
H556 C564 0.929 . S
H557 C566 0.930 . S
H558 C568 0.930 . S
H559 C571 0.929 . S
H560 C574 0.930 . S
H561 C576 0.960 . S
H562 C576 0.960 . S
H563 C576 0.960 . S
C564 H556 0.929 . S
C564 C565 1.377 . S
C564 C566 1.384 . S
C565 C564 1.377 . S
C565 C571 1.390 . S
C566 H557 0.930 . S
C566 C564 1.384 . S
C566 C567 1.372 . S
C567 C566 1.372 . S
C567 C568 1.400 . S
C567 C572 1.490 . S
C568 H558 0.930 . S
C568 C567 1.400 . S
C568 C571 1.386 . S
H569 C585 0.930 . S
H570 C586 0.931 . S
C571 H559 0.929 . S
C571 C565 1.390 . S
C571 C568 1.386 . S
C572 C567 1.490 . S
C572 C574 1.395 . S
C572 C575 1.403 . S
H573 C579 0.930 . S
C574 H560 0.930 . S
C574 C572 1.395 . S
C574 C577 1.403 . S
C575 C572 1.403 . S
C575 C576 1.524 . S
C575 C579 1.400 . S
C576 H561 0.960 . S
C576 H562 0.960 . S
C576 H563 0.960 . S
C576 C575 1.524 . S
C577 C574 1.403 . S
C577 C578 1.392 . S
C577 C581 1.495 . S
C578 C577 1.392 . S
C578 C579 1.385 . S
C578 C580 1.478 . S
C579 H573 0.930 . S
C579 C575 1.400 . S
C579 C578 1.385 . S
C580 C578 1.478 . S
C580 C582 1.381 . S
C580 C586 1.383 . S
C581 C577 1.495 . S
C581 H587 0.959 . S
C581 H588 0.961 . S
C581 H589 0.960 . S
C582 C580 1.381 . S
C582 C583 1.394 . S
C582 H590 0.930 . S
C583 C582 1.394 . S
C583 C584 1.383 . S
C583 H591 0.929 . S
C584 C583 1.383 . S
C584 C585 1.377 . S
C585 H569 0.930 . S
C585 C584 1.377 . S
C585 C586 1.379 . S
C586 H570 0.931 . S
C586 C580 1.383 . S
C586 C585 1.379 . S
H587 C581 0.959 . S
H588 C581 0.961 . S
H589 C581 0.960 . S
H590 C582 0.930 . S
H591 C583 0.929 . S
H592 C600 0.929 . S
H593 C602 0.930 . S
H594 C604 0.930 . S
H595 C607 0.929 . S
H596 C610 0.930 . S
H597 C612 0.960 . S
H598 C612 0.960 . S
H599 C612 0.960 . S
C600 H592 0.929 . S
C600 C601 1.377 . S
C600 C602 1.384 . S
C601 C600 1.377 . S
C601 C607 1.390 . S
C602 H593 0.930 . S
C602 C600 1.384 . S
C602 C603 1.372 . S
C603 C602 1.372 . S
C603 C604 1.400 . S
C603 C608 1.490 . S
C604 H594 0.930 . S
C604 C603 1.400 . S
C604 C607 1.386 . S
H605 C621 0.930 . S
H606 C622 0.931 . S
C607 H595 0.929 . S
C607 C601 1.390 . S
C607 C604 1.386 . S
C608 C603 1.490 . S
C608 C610 1.395 . S
C608 C611 1.403 . S
H609 C615 0.930 . S
C610 H596 0.930 . S
C610 C608 1.395 . S
C610 C613 1.403 . S
C611 C608 1.403 . S
C611 C612 1.524 . S
C611 C615 1.400 . S
C612 H597 0.960 . S
C612 H598 0.960 . S
C612 H599 0.960 . S
C612 C611 1.524 . S
C613 C610 1.403 . S
C613 C614 1.392 . S
C613 C617 1.495 1_655 S
C614 C613 1.392 . S
C614 C615 1.385 . S
C614 C616 1.478 . S
C615 H609 0.930 . S
C615 C611 1.400 . S
C615 C614 1.385 . S
C616 C614 1.478 . S
C616 C618 1.381 . S
C616 C622 1.383 . S
C617 C613 1.495 1_455 S
C617 H623 0.959 . S
C617 H624 0.961 . S
C617 H625 0.960 1_455 S
C618 C616 1.381 . S
C618 C619 1.394 . S
C618 H626 0.930 . S
C619 C618 1.394 . S
C619 C620 1.383 . S
C619 H627 0.929 . S
C620 C619 1.383 . S
C620 C621 1.377 . S
C621 H605 0.930 . S
C621 C620 1.377 . S
C621 C622 1.379 . S
C622 H606 0.931 . S
C622 C616 1.383 . S
C622 C621 1.379 . S
H623 C617 0.959 . S
H624 C617 0.961 . S
H625 C617 0.960 1_655 S
H626 C618 0.930 . S
H627 C619 0.929 . S
H628 C636 0.929 . S
H629 C638 0.930 . S
H630 C640 0.930 . S
H631 C643 0.929 . S
H632 C646 0.930 . S
H633 C648 0.960 . S
H634 C648 0.960 . S
H635 C648 0.960 . S
C636 H628 0.929 . S
C636 C637 1.377 . S
C636 C638 1.384 . S
C637 C636 1.377 . S
C637 C643 1.390 . S
C638 H629 0.930 . S
C638 C636 1.384 . S
C638 C639 1.372 . S
C639 C638 1.372 . S
C639 C640 1.400 . S
C639 C644 1.490 . S
C640 H630 0.930 . S
C640 C639 1.400 . S
C640 C643 1.386 . S
H641 C657 0.930 . S
H642 C658 0.931 . S
C643 H631 0.929 . S
C643 C637 1.390 . S
C643 C640 1.386 . S
C644 C639 1.490 . S
C644 C646 1.395 . S
C644 C647 1.403 . S
H645 C651 0.930 . S
C646 H632 0.930 . S
C646 C644 1.395 . S
C646 C649 1.403 . S
C647 C644 1.403 . S
C647 C648 1.524 . S
C647 C651 1.400 . S
C648 H633 0.960 . S
C648 H634 0.960 . S
C648 H635 0.960 . S
C648 C647 1.524 . S
C649 C646 1.403 . S
C649 C650 1.392 . S
C649 C653 1.495 . S
C650 C649 1.392 . S
C650 C651 1.385 . S
C650 C652 1.478 . S
C651 H645 0.930 . S
C651 C647 1.400 . S
C651 C650 1.385 . S
C652 C650 1.478 . S
C652 C654 1.381 . S
C652 C658 1.383 . S
C653 C649 1.495 . S
C653 H659 0.959 . S
C653 H660 0.961 . S
C653 H661 0.960 . S
C654 C652 1.381 . S
C654 C655 1.394 . S
C654 H662 0.930 . S
C655 C654 1.394 . S
C655 C656 1.383 . S
C655 H663 0.929 . S
C656 C655 1.383 . S
C656 C657 1.377 . S
C657 H641 0.930 . S
C657 C656 1.377 . S
C657 C658 1.379 . S
C658 H642 0.931 . S
C658 C652 1.383 . S
C658 C657 1.379 . S
H659 C653 0.959 . S
H660 C653 0.961 . S
H661 C653 0.960 . S
H662 C654 0.930 . S
H663 C655 0.929 . S
H664 C672 0.929 . S
H665 C674 0.930 . S
H666 C676 0.930 . S
H667 C679 0.929 . S
H668 C682 0.930 . S
H669 C684 0.960 . S
H670 C684 0.960 . S
H671 C684 0.960 . S
C672 H664 0.929 . S
C672 C673 1.377 . S
C672 C674 1.384 . S
C673 C672 1.377 . S
C673 C679 1.390 . S
C674 H665 0.930 . S
C674 C672 1.384 . S
C674 C675 1.372 . S
C675 C674 1.372 . S
C675 C676 1.400 . S
C675 C680 1.490 . S
C676 H666 0.930 . S
C676 C675 1.400 . S
C676 C679 1.386 . S
H677 C693 0.930 . S
H678 C694 0.931 . S
C679 H667 0.929 . S
C679 C673 1.390 . S
C679 C676 1.386 . S
C680 C675 1.490 . S
C680 C682 1.395 . S
C680 C683 1.403 . S
H681 C687 0.930 . S
C682 H668 0.930 . S
C682 C680 1.395 . S
C682 C685 1.403 . S
C683 C680 1.403 . S
C683 C684 1.524 . S
C683 C687 1.400 . S
C684 H669 0.960 . S
C684 H670 0.960 . S
C684 H671 0.960 . S
C684 C683 1.524 . S
C685 C682 1.403 . S
C685 C686 1.392 . S
C685 C689 1.495 1_655 S
C686 C685 1.392 . S
C686 C687 1.385 . S
C686 C688 1.478 . S
C687 H681 0.930 . S
C687 C683 1.400 . S
C687 C686 1.385 . S
C688 C686 1.478 . S
C688 C690 1.381 . S
C688 C694 1.383 . S
C689 C685 1.495 1_455 S
C689 H695 0.959 . S
C689 H696 0.961 . S
C689 H697 0.960 . S
C690 C688 1.381 . S
C690 C691 1.394 . S
C690 H698 0.930 . S
C691 C690 1.394 . S
C691 C692 1.383 . S
C691 H699 0.929 . S
C692 C691 1.383 . S
C692 C693 1.377 . S
C693 H677 0.930 . S
C693 C692 1.377 . S
C693 C694 1.379 . S
C694 H678 0.931 . S
C694 C688 1.383 . S
C694 C693 1.379 . S
H695 C689 0.959 . S
H696 C689 0.961 . S
H697 C689 0.960 . S
H698 C690 0.930 . S
H699 C691 0.929 . S
H700 C708 0.929 . S
H701 C710 0.930 . S
H702 C712 0.930 . S
H703 C715 0.929 . S
H704 C718 0.930 . S
H705 C720 0.960 . S
H706 C720 0.960 . S
H707 C720 0.960 . S
C708 H700 0.929 . S
C708 C709 1.377 . S
C708 C710 1.384 . S
C709 C708 1.377 . S
C709 C715 1.390 . S
C710 H701 0.930 . S
C710 C708 1.384 . S
C710 C711 1.372 . S
C711 C710 1.372 . S
C711 C712 1.400 . S
C711 C716 1.490 . S
C712 H702 0.930 . S
C712 C711 1.400 . S
C712 C715 1.386 . S
H713 C729 0.930 . S
H714 C730 0.931 . S
C715 H703 0.929 . S
C715 C709 1.390 . S
C715 C712 1.386 . S
C716 C711 1.490 . S
C716 C718 1.395 . S
C716 C719 1.403 . S
H717 C723 0.930 . S
C718 H704 0.930 . S
C718 C716 1.395 . S
C718 C721 1.403 . S
C719 C716 1.403 . S
C719 C720 1.524 . S
C719 C723 1.400 . S
C720 H705 0.960 . S
C720 H706 0.960 . S
C720 H707 0.960 . S
C720 C719 1.524 . S
C721 C718 1.403 . S
C721 C722 1.392 . S
C721 C725 1.495 . S
C722 C721 1.392 . S
C722 C723 1.385 . S
C722 C724 1.478 . S
C723 H717 0.930 . S
C723 C719 1.400 . S
C723 C722 1.385 . S
C724 C722 1.478 . S
C724 C726 1.381 . S
C724 C730 1.383 . S
C725 C721 1.495 . S
C725 H731 0.959 . S
C725 H732 0.961 . S
C725 H733 0.960 . S
C726 C724 1.381 . S
C726 C727 1.394 . S
C726 H734 0.930 . S
C727 C726 1.394 . S
C727 C728 1.383 . S
C727 H735 0.929 . S
C728 C727 1.383 . S
C728 C729 1.377 . S
C729 H713 0.930 . S
C729 C728 1.377 . S
C729 C730 1.379 . S
C730 H714 0.931 . S
C730 C724 1.383 . S
C730 C729 1.379 . S
H731 C725 0.959 . S
H732 C725 0.961 . S
H733 C725 0.960 . S
H734 C726 0.930 . S
H735 C727 0.929 . S
H736 C744 0.929 . S
H737 C746 0.930 . S
H738 C748 0.930 . S
H739 C751 0.929 . S
H740 C754 0.930 . S
H741 C756 0.960 . S
H742 C756 0.960 . S
H743 C756 0.960 . S
C744 H736 0.929 . S
C744 C745 1.377 . S
C744 C746 1.384 . S
C745 C744 1.377 . S
C745 C751 1.390 . S
C746 H737 0.930 . S
C746 C744 1.384 . S
C746 C747 1.372 . S
C747 C746 1.372 . S
C747 C748 1.400 . S
C747 C752 1.490 . S
C748 H738 0.930 . S
C748 C747 1.400 . S
C748 C751 1.386 . S
H749 C765 0.930 . S
H750 C766 0.931 . S
C751 H739 0.929 . S
C751 C745 1.390 . S
C751 C748 1.386 . S
C752 C747 1.490 . S
C752 C754 1.395 . S
C752 C755 1.403 . S
H753 C759 0.930 . S
C754 H740 0.930 . S
C754 C752 1.395 . S
C754 C757 1.403 . S
C755 C752 1.403 . S
C755 C756 1.524 . S
C755 C759 1.400 . S
C756 H741 0.960 . S
C756 H742 0.960 . S
C756 H743 0.960 . S
C756 C755 1.524 . S
C757 C754 1.403 . S
C757 C758 1.392 . S
C757 C761 1.495 . S
C758 C757 1.392 . S
C758 C759 1.385 . S
C758 C760 1.478 . S
C759 H753 0.930 . S
C759 C755 1.400 . S
C759 C758 1.385 . S
C760 C758 1.478 . S
C760 C762 1.381 . S
C760 C766 1.383 . S
C761 C757 1.495 . S
C761 H767 0.959 . S
C761 H768 0.961 . S
C761 H769 0.960 . S
C762 C760 1.381 . S
C762 C763 1.394 . S
C762 H770 0.930 . S
C763 C762 1.394 . S
C763 C764 1.383 . S
C763 H771 0.929 . S
C764 C763 1.383 . S
C764 C765 1.377 . S
C765 H749 0.930 . S
C765 C764 1.377 . S
C765 C766 1.379 . S
C766 H750 0.931 . S
C766 C760 1.383 . S
C766 C765 1.379 . S
H767 C761 0.959 . S
H768 C761 0.961 . S
H769 C761 0.960 . S
H770 C762 0.930 . S
H771 C763 0.929 . S
H772 C780 0.929 . S
H773 C782 0.930 . S
H774 C784 0.930 . S
H775 C787 0.929 . S
H776 C790 0.930 . S
H777 C792 0.960 . S
H778 C792 0.960 . S
H779 C792 0.960 . S
C780 H772 0.929 . S
C780 C781 1.377 . S
C780 C782 1.384 . S
C781 C780 1.377 . S
C781 C787 1.390 . S
C782 H773 0.930 . S
C782 C780 1.384 . S
C782 C783 1.372 . S
C783 C782 1.372 . S
C783 C784 1.400 . S
C783 C788 1.490 . S
C784 H774 0.930 . S
C784 C783 1.400 . S
C784 C787 1.386 . S
H785 C801 0.930 . S
H786 C802 0.931 . S
C787 H775 0.929 . S
C787 C781 1.390 . S
C787 C784 1.386 . S
C788 C783 1.490 . S
C788 C790 1.395 . S
C788 C791 1.403 . S
H789 C795 0.930 . S
C790 H776 0.930 . S
C790 C788 1.395 . S
C790 C793 1.403 . S
C791 C788 1.403 . S
C791 C792 1.524 . S
C791 C795 1.400 . S
C792 H777 0.960 . S
C792 H778 0.960 . S
C792 H779 0.960 . S
C792 C791 1.524 . S
C793 C790 1.403 . S
C793 C794 1.392 . S
C793 C797 1.495 . S
C794 C793 1.392 . S
C794 C795 1.385 . S
C794 C796 1.478 . S
C795 H789 0.930 . S
C795 C791 1.400 . S
C795 C794 1.385 . S
C796 C794 1.478 . S
C796 C798 1.381 . S
C796 C802 1.383 . S
C797 C793 1.495 . S
C797 H803 0.959 . S
C797 H804 0.961 . S
C797 H805 0.960 . S
C798 C796 1.381 . S
C798 C799 1.394 . S
C798 H806 0.930 . S
C799 C798 1.394 . S
C799 C800 1.383 . S
C799 H807 0.929 . S
C800 C799 1.383 . S
C800 C801 1.377 . S
C801 H785 0.930 . S
C801 C800 1.377 . S
C801 C802 1.379 . S
C802 H786 0.931 . S
C802 C796 1.383 . S
C802 C801 1.379 . S
H803 C797 0.959 . S
H804 C797 0.961 . S
H805 C797 0.960 . S
H806 C798 0.930 . S
H807 C799 0.929 . S
H808 C816 0.929 . S
H809 C818 0.930 . S
H810 C820 0.930 . S
H811 C823 0.929 . S
H812 C826 0.930 . S
H813 C828 0.960 . S
H814 C828 0.960 . S
H815 C828 0.960 . S
C816 H808 0.929 . S
C816 C817 1.377 . S
C816 C818 1.384 . S
C817 C816 1.377 . S
C817 C823 1.390 . S
C818 H809 0.930 . S
C818 C816 1.384 . S
C818 C819 1.372 . S
C819 C818 1.372 . S
C819 C820 1.400 . S
C819 C824 1.490 . S
C820 H810 0.930 . S
C820 C819 1.400 . S
C820 C823 1.386 . S
H821 C837 0.930 . S
H822 C838 0.931 . S
C823 H811 0.929 . S
C823 C817 1.390 . S
C823 C820 1.386 . S
C824 C819 1.490 . S
C824 C826 1.395 . S
C824 C827 1.403 . S
H825 C831 0.930 . S
C826 H812 0.930 . S
C826 C824 1.395 . S
C826 C829 1.403 . S
C827 C824 1.403 . S
C827 C828 1.524 . S
C827 C831 1.400 . S
C828 H813 0.960 . S
C828 H814 0.960 . S
C828 H815 0.960 . S
C828 C827 1.524 . S
C829 C826 1.403 . S
C829 C830 1.392 . S
C829 C833 1.495 . S
C830 C829 1.392 . S
C830 C831 1.385 . S
C830 C832 1.478 . S
C831 H825 0.930 . S
C831 C827 1.400 . S
C831 C830 1.385 . S
C832 C830 1.478 . S
C832 C834 1.381 . S
C832 C838 1.383 . S
C833 C829 1.495 . S
C833 H839 0.959 . S
C833 H840 0.961 . S
C833 H841 0.960 . S
C834 C832 1.381 . S
C834 C835 1.394 . S
C834 H842 0.930 . S
C835 C834 1.394 . S
C835 C836 1.383 . S
C835 H843 0.929 . S
C836 C835 1.383 . S
C836 C837 1.377 . S
C837 H821 0.930 . S
C837 C836 1.377 . S
C837 C838 1.379 . S
C838 H822 0.931 . S
C838 C832 1.383 . S
C838 C837 1.379 . S
H839 C833 0.959 . S
H840 C833 0.961 . S
H841 C833 0.960 . S
H842 C834 0.930 . S
H843 C835 0.929 . S
H844 C852 0.929 . S
H845 C854 0.930 . S
H846 C856 0.930 . S
H847 C859 0.929 . S
H848 C862 0.930 . S
H849 C864 0.960 . S
H850 C864 0.960 . S
H851 C864 0.960 . S
C852 H844 0.929 . S
C852 C853 1.377 . S
C852 C854 1.384 . S
C853 C852 1.377 . S
C853 C859 1.390 . S
C854 H845 0.930 . S
C854 C852 1.384 . S
C854 C855 1.372 . S
C855 C854 1.372 . S
C855 C856 1.400 . S
C855 C860 1.490 . S
C856 H846 0.930 . S
C856 C855 1.400 . S
C856 C859 1.386 . S
H857 C873 0.930 . S
H858 C874 0.931 . S
C859 H847 0.929 . S
C859 C853 1.390 . S
C859 C856 1.386 . S
C860 C855 1.490 . S
C860 C862 1.395 . S
C860 C863 1.403 . S
H861 C867 0.930 . S
C862 H848 0.930 . S
C862 C860 1.395 . S
C862 C865 1.403 . S
C863 C860 1.403 . S
C863 C864 1.524 . S
C863 C867 1.400 . S
C864 H849 0.960 . S
C864 H850 0.960 . S
C864 H851 0.960 . S
C864 C863 1.524 . S
C865 C862 1.403 . S
C865 C866 1.392 . S
C865 C869 1.495 . S
C866 C865 1.392 . S
C866 C867 1.385 . S
C866 C868 1.478 . S
C867 H861 0.930 . S
C867 C863 1.400 . S
C867 C866 1.385 . S
C868 C866 1.478 . S
C868 C870 1.381 . S
C868 C874 1.383 . S
C869 C865 1.495 . S
C869 H875 0.959 . S
C869 H876 0.961 . S
C869 H877 0.960 . S
C870 C868 1.381 . S
C870 C871 1.394 . S
C870 H878 0.930 . S
C871 C870 1.394 . S
C871 C872 1.383 . S
C871 H879 0.929 . S
C872 C871 1.383 . S
C872 C873 1.377 . S
C873 H857 0.930 . S
C873 C872 1.377 . S
C873 C874 1.379 . S
C874 H858 0.931 . S
C874 C868 1.383 . S
C874 C873 1.379 . S
H875 C869 0.959 . S
H876 C869 0.961 . S
H877 C869 0.960 . S
H878 C870 0.930 . S
H879 C871 0.929 . S
H880 C888 0.929 . S
H881 C890 0.930 . S
H882 C892 0.930 . S
H883 C895 0.929 . S
H884 C898 0.930 . S
H885 C900 0.960 . S
H886 C900 0.960 . S
H887 C900 0.960 . S
C888 H880 0.929 . S
C888 C889 1.377 . S
C888 C890 1.384 . S
C889 C888 1.377 . S
C889 C895 1.390 . S
C890 H881 0.930 . S
C890 C888 1.384 . S
C890 C891 1.372 . S
C891 C890 1.372 . S
C891 C892 1.400 . S
C891 C896 1.490 . S
C892 H882 0.930 . S
C892 C891 1.400 . S
C892 C895 1.386 . S
H893 C909 0.930 . S
H894 C910 0.931 . S
C895 H883 0.929 . S
C895 C889 1.390 . S
C895 C892 1.386 . S
C896 C891 1.490 . S
C896 C898 1.395 . S
C896 C899 1.403 . S
H897 C903 0.930 . S
C898 H884 0.930 . S
C898 C896 1.395 . S
C898 C901 1.403 . S
C899 C896 1.403 . S
C899 C900 1.524 . S
C899 C903 1.400 . S
C900 H885 0.960 . S
C900 H886 0.960 . S
C900 H887 0.960 . S
C900 C899 1.524 . S
C901 C898 1.403 . S
C901 C902 1.392 . S
C901 C905 1.495 . S
C902 C901 1.392 . S
C902 C903 1.385 . S
C902 C904 1.478 . S
C903 H897 0.930 . S
C903 C899 1.400 . S
C903 C902 1.385 . S
C904 C902 1.478 . S
C904 C906 1.381 . S
C904 C910 1.383 . S
C905 C901 1.495 . S
C905 H911 0.959 . S
C905 H912 0.961 . S
C905 H913 0.960 . S
C906 C904 1.381 . S
C906 C907 1.394 . S
C906 H914 0.930 . S
C907 C906 1.394 . S
C907 C908 1.383 . S
C907 H915 0.929 . S
C908 C907 1.383 . S
C908 C909 1.377 . S
C909 H893 0.930 . S
C909 C908 1.377 . S
C909 C910 1.379 . S
C910 H894 0.931 . S
C910 C904 1.383 . S
C910 C909 1.379 . S
H911 C905 0.959 . S
H912 C905 0.961 . S
H913 C905 0.960 . S
H914 C906 0.930 . S
H915 C907 0.929 . S
H916 C924 0.929 . S
H917 C926 0.930 . S
H918 C928 0.930 . S
H919 C931 0.929 . S
H920 C934 0.930 . S
H921 C936 0.960 . S
H922 C936 0.960 . S
H923 C936 0.960 . S
C924 H916 0.929 . S
C924 C925 1.377 . S
C924 C926 1.384 . S
C925 C924 1.377 . S
C925 C931 1.390 . S
C926 H917 0.930 . S
C926 C924 1.384 . S
C926 C927 1.372 . S
C927 C926 1.372 . S
C927 C928 1.400 . S
C927 C932 1.490 . S
C928 H918 0.930 . S
C928 C927 1.400 . S
C928 C931 1.386 . S
H929 C945 0.930 . S
H930 C946 0.931 . S
C931 H919 0.929 . S
C931 C925 1.390 . S
C931 C928 1.386 . S
C932 C927 1.490 . S
C932 C934 1.395 . S
C932 C935 1.403 . S
H933 C939 0.930 . S
C934 H920 0.930 . S
C934 C932 1.395 . S
C934 C937 1.403 . S
C935 C932 1.403 . S
C935 C936 1.524 . S
C935 C939 1.400 . S
C936 H921 0.960 . S
C936 H922 0.960 . S
C936 H923 0.960 . S
C936 C935 1.524 . S
C937 C934 1.403 . S
C937 C938 1.392 . S
C937 C941 1.495 . S
C938 C937 1.392 . S
C938 C939 1.385 . S
C938 C940 1.478 . S
C939 H933 0.930 . S
C939 C935 1.400 . S
C939 C938 1.385 . S
C940 C938 1.478 . S
C940 C942 1.381 . S
C940 C946 1.383 . S
C941 C937 1.495 . S
C941 H947 0.959 . S
C941 H948 0.961 . S
C941 H949 0.960 . S
C942 C940 1.381 . S
C942 C943 1.394 . S
C942 H950 0.930 . S
C943 C942 1.394 . S
C943 C944 1.383 . S
C943 H951 0.929 . S
C944 C943 1.383 . S
C944 C945 1.377 . S
C945 H929 0.930 . S
C945 C944 1.377 . S
C945 C946 1.379 . S
C946 H930 0.931 . S
C946 C940 1.383 . S
C946 C945 1.379 . S
H947 C941 0.959 . S
H948 C941 0.961 . S
H949 C941 0.960 . S
H950 C942 0.930 . S
H951 C943 0.929 . S
H952 C960 0.929 . S
H953 C962 0.930 . S
H954 C964 0.930 . S
H955 C967 0.929 . S
H956 C970 0.930 . S
H957 C972 0.960 . S
H958 C972 0.960 . S
H959 C972 0.960 . S
C960 H952 0.929 . S
C960 C961 1.377 . S
C960 C962 1.384 . S
C961 C960 1.377 . S
C961 C967 1.390 . S
C962 H953 0.930 . S
C962 C960 1.384 . S
C962 C963 1.372 . S
C963 C962 1.372 . S
C963 C964 1.400 . S
C963 C968 1.490 . S
C964 H954 0.930 . S
C964 C963 1.400 . S
C964 C967 1.386 . S
H965 C981 0.930 . S
H966 C982 0.931 . S
C967 H955 0.929 . S
C967 C961 1.390 . S
C967 C964 1.386 . S
C968 C963 1.490 . S
C968 C970 1.395 . S
C968 C971 1.403 . S
H969 C975 0.930 . S
C970 H956 0.930 . S
C970 C968 1.395 . S
C970 C973 1.403 . S
C971 C968 1.403 . S
C971 C972 1.524 . S
C971 C975 1.400 . S
C972 H957 0.960 . S
C972 H958 0.960 . S
C972 H959 0.960 . S
C972 C971 1.524 . S
C973 C970 1.403 . S
C973 C974 1.392 . S
C973 C977 1.495 . S
C974 C973 1.392 . S
C974 C975 1.385 . S
C974 C976 1.478 . S
C975 H969 0.930 . S
C975 C971 1.400 . S
C975 C974 1.385 . S
C976 C974 1.478 . S
C976 C978 1.381 . S
C976 C982 1.383 . S
C977 C973 1.495 . S
C977 H983 0.959 . S
C977 H984 0.961 . S
C977 H985 0.960 . S
C978 C976 1.381 . S
C978 C979 1.394 . S
C978 H986 0.930 . S
C979 C978 1.394 . S
C979 C980 1.383 . S
C979 H987 0.929 . S
C980 C979 1.383 . S
C980 C981 1.377 . S
C981 H965 0.930 . S
C981 C980 1.377 . S
C981 C982 1.379 . S
C982 H966 0.931 . S
C982 C976 1.383 . S
C982 C981 1.379 . S
H983 C977 0.959 . S
H984 C977 0.961 . S
H985 C977 0.960 . S
H986 C978 0.930 . S
H987 C979 0.929 . S
H988 C996 0.929 . S
H989 C998 0.930 . S
H990 C1000 0.930 . S
H991 C1003 0.929 . S
H992 C1006 0.930 . S
H993 C1008 0.960 . S
H994 C1008 0.960 . S
H995 C1008 0.960 . S
C996 H988 0.929 . S
C996 C997 1.377 . S
C996 C998 1.384 . S
C997 C996 1.377 . S
C997 C1003 1.390 . S
C998 H989 0.930 . S
C998 C996 1.384 . S
C998 C999 1.372 . S
C999 C998 1.372 . S
C999 C1000 1.400 . S
C999 C1004 1.490 . S
C1000 H990 0.930 . S
C1000 C999 1.400 . S
C1000 C1003 1.386 . S
H1001 C1017 0.930 . S
H1002 C1018 0.931 . S
C1003 H991 0.929 . S
C1003 C997 1.390 . S
C1003 C1000 1.386 . S
C1004 C999 1.490 . S
C1004 C1006 1.395 . S
C1004 C1007 1.403 . S
H1005 C1011 0.930 . S
C1006 H992 0.930 . S
C1006 C1004 1.395 . S
C1006 C1009 1.403 . S
C1007 C1004 1.403 . S
C1007 C1008 1.524 . S
C1007 C1011 1.400 . S
C1008 H993 0.960 . S
C1008 H994 0.960 . S
C1008 H995 0.960 . S
C1008 C1007 1.524 . S
C1009 C1006 1.403 . S
C1009 C1010 1.392 . S
C1009 C1013 1.495 . S
C1010 C1009 1.392 . S
C1010 C1011 1.385 . S
C1010 C1012 1.478 . S
C1011 H1005 0.930 . S
C1011 C1007 1.400 . S
C1011 C1010 1.385 . S
C1012 C1010 1.478 . S
C1012 C1014 1.381 . S
C1012 C1018 1.383 . S
C1013 C1009 1.495 . S
C1013 H1019 0.959 . S
C1013 H1020 0.961 . S
C1013 H1021 0.960 . S
C1014 C1012 1.381 . S
C1014 C1015 1.394 . S
C1014 H1022 0.930 . S
C1015 C1014 1.394 . S
C1015 C1016 1.383 . S
C1015 H1023 0.929 . S
C1016 C1015 1.383 . S
C1016 C1017 1.377 . S
C1017 H1001 0.930 . S
C1017 C1016 1.377 . S
C1017 C1018 1.379 . S
C1018 H1002 0.931 . S
C1018 C1012 1.383 . S
C1018 C1017 1.379 . S
H1019 C1013 0.959 . S
H1020 C1013 0.961 . S
H1021 C1013 0.960 . S
H1022 C1014 0.930 . S
H1023 C1015 0.929 . S
H1024 C1032 0.929 . S
H1025 C1034 0.930 . S
H1026 C1036 0.930 . S
H1027 C1039 0.929 . S
H1028 C1042 0.930 . S
H1029 C1044 0.960 . S
H1030 C1044 0.960 . S
H1031 C1044 0.960 . S
C1032 H1024 0.929 . S
C1032 C1033 1.377 . S
C1032 C1034 1.384 . S
C1033 C1032 1.377 . S
C1033 C1039 1.390 . S
C1034 H1025 0.930 . S
C1034 C1032 1.384 . S
C1034 C1035 1.372 . S
C1035 C1034 1.372 . S
C1035 C1036 1.400 . S
C1035 C1040 1.490 . S
C1036 H1026 0.930 . S
C1036 C1035 1.400 . S
C1036 C1039 1.386 . S
H1037 C1053 0.930 . S
H1038 C1054 0.931 . S
C1039 H1027 0.929 . S
C1039 C1033 1.390 . S
C1039 C1036 1.386 . S
C1040 C1035 1.490 . S
C1040 C1042 1.395 . S
C1040 C1043 1.403 . S
H1041 C1047 0.930 . S
C1042 H1028 0.930 . S
C1042 C1040 1.395 . S
C1042 C1045 1.403 . S
C1043 C1040 1.403 . S
C1043 C1044 1.524 . S
C1043 C1047 1.400 . S
C1044 H1029 0.960 . S
C1044 H1030 0.960 . S
C1044 H1031 0.960 . S
C1044 C1043 1.524 . S
C1045 C1042 1.403 . S
C1045 C1046 1.392 . S
C1045 C1049 1.495 . S
C1046 C1045 1.392 . S
C1046 C1047 1.385 . S
C1046 C1048 1.478 . S
C1047 H1041 0.930 . S
C1047 C1043 1.400 . S
C1047 C1046 1.385 . S
C1048 C1046 1.478 . S
C1048 C1050 1.381 . S
C1048 C1054 1.383 . S
C1049 C1045 1.495 . S
C1049 H1055 0.959 . S
C1049 H1056 0.961 . S
C1049 H1057 0.960 . S
C1050 C1048 1.381 . S
C1050 C1051 1.394 . S
C1050 H1058 0.930 . S
C1051 C1050 1.394 . S
C1051 C1052 1.383 . S
C1051 H1059 0.929 . S
C1052 C1051 1.383 . S
C1052 C1053 1.377 . S
C1053 H1037 0.930 . S
C1053 C1052 1.377 . S
C1053 C1054 1.379 . S
C1054 H1038 0.931 . S
C1054 C1048 1.383 . S
C1054 C1053 1.379 . S
H1055 C1049 0.959 . S
H1056 C1049 0.961 . S
H1057 C1049 0.960 . S
H1058 C1050 0.930 . S
H1059 C1051 0.929 . S
H1060 C1068 0.929 . S
H1061 C1070 0.930 . S
H1062 C1072 0.930 . S
H1063 C1075 0.929 . S
H1064 C1078 0.930 . S
H1065 C1080 0.960 . S
H1066 C1080 0.960 . S
H1067 C1080 0.960 . S
C1068 H1060 0.929 . S
C1068 C1069 1.377 . S
C1068 C1070 1.384 1_455 S
C1069 C1068 1.377 . S
C1069 C1075 1.390 . S
C1070 H1061 0.930 . S
C1070 C1068 1.384 1_655 S
C1070 C1071 1.372 . S
C1071 C1070 1.372 . S
C1071 C1072 1.400 . S
C1071 C1076 1.490 . S
C1072 H1062 0.930 . S
C1072 C1071 1.400 . S
C1072 C1075 1.386 1_655 S
H1073 C1089 0.930 . S
H1074 C1090 0.931 . S
C1075 H1063 0.929 . S
C1075 C1069 1.390 . S
C1075 C1072 1.386 1_455 S
C1076 C1071 1.490 . S
C1076 C1078 1.395 . S
C1076 C1079 1.403 . S
H1077 C1083 0.930 . S
C1078 H1064 0.930 . S
C1078 C1076 1.395 . S
C1078 C1081 1.403 . S
C1079 C1076 1.403 . S
C1079 C1080 1.524 . S
C1079 C1083 1.400 . S
C1080 H1065 0.960 . S
C1080 H1066 0.960 . S
C1080 H1067 0.960 . S
C1080 C1079 1.524 . S
C1081 C1078 1.403 . S
C1081 C1082 1.392 . S
C1081 C1085 1.495 . S
C1082 C1081 1.392 . S
C1082 C1083 1.385 . S
C1082 C1084 1.478 . S
C1083 H1077 0.930 . S
C1083 C1079 1.400 . S
C1083 C1082 1.385 . S
C1084 C1082 1.478 . S
C1084 C1086 1.381 . S
C1084 C1090 1.383 . S
C1085 C1081 1.495 . S
C1085 H1091 0.959 . S
C1085 H1092 0.961 . S
C1085 H1093 0.960 . S
C1086 C1084 1.381 . S
C1086 C1087 1.394 . S
C1086 H1094 0.930 . S
C1087 C1086 1.394 . S
C1087 C1088 1.383 . S
C1087 H1095 0.929 . S
C1088 C1087 1.383 . S
C1088 C1089 1.377 . S
C1089 H1073 0.930 . S
C1089 C1088 1.377 . S
C1089 C1090 1.379 . S
C1090 H1074 0.931 . S
C1090 C1084 1.383 . S
C1090 C1089 1.379 . S
H1091 C1085 0.959 . S
H1092 C1085 0.961 . S
H1093 C1085 0.960 . S
H1094 C1086 0.930 . S
H1095 C1087 0.929 . S
H1096 C1104 0.929 . S
H1097 C1106 0.930 . S
H1098 C1108 0.930 . S
H1099 C1111 0.929 . S
H1100 C1114 0.930 . S
H1101 C1116 0.960 . S
H1102 C1116 0.960 . S
H1103 C1116 0.960 . S
C1104 H1096 0.929 . S
C1104 C1105 1.377 . S
C1104 C1106 1.384 . S
C1105 C1104 1.377 . S
C1105 C1111 1.390 . S
C1106 H1097 0.930 . S
C1106 C1104 1.384 . S
C1106 C1107 1.372 . S
C1107 C1106 1.372 . S
C1107 C1108 1.400 . S
C1107 C1112 1.490 . S
C1108 H1098 0.930 . S
C1108 C1107 1.400 . S
C1108 C1111 1.386 . S
H1109 C1125 0.930 . S
H1110 C1126 0.931 . S
C1111 H1099 0.929 . S
C1111 C1105 1.390 . S
C1111 C1108 1.386 . S
C1112 C1107 1.490 . S
C1112 C1114 1.395 . S
C1112 C1115 1.403 . S
H1113 C1119 0.930 . S
C1114 H1100 0.930 . S
C1114 C1112 1.395 . S
C1114 C1117 1.403 . S
C1115 C1112 1.403 . S
C1115 C1116 1.524 . S
C1115 C1119 1.400 . S
C1116 H1101 0.960 . S
C1116 H1102 0.960 . S
C1116 H1103 0.960 . S
C1116 C1115 1.524 . S
C1117 C1114 1.403 . S
C1117 C1118 1.392 . S
C1117 C1121 1.495 . S
C1118 C1117 1.392 . S
C1118 C1119 1.385 . S
C1118 C1120 1.478 . S
C1119 H1113 0.930 . S
C1119 C1115 1.400 . S
C1119 C1118 1.385 . S
C1120 C1118 1.478 . S
C1120 C1122 1.381 . S
C1120 C1126 1.383 . S
C1121 C1117 1.495 . S
C1121 H1127 0.959 . S
C1121 H1128 0.961 . S
C1121 H1129 0.960 . S
C1122 C1120 1.381 . S
C1122 C1123 1.394 . S
C1122 H1130 0.930 . S
C1123 C1122 1.394 . S
C1123 C1124 1.383 . S
C1123 H1131 0.929 . S
C1124 C1123 1.383 . S
C1124 C1125 1.377 . S
C1125 H1109 0.930 . S
C1125 C1124 1.377 . S
C1125 C1126 1.379 . S
C1126 H1110 0.931 . S
C1126 C1120 1.383 . S
C1126 C1125 1.379 . S
H1127 C1121 0.959 . S
H1128 C1121 0.961 . S
H1129 C1121 0.960 . S
H1130 C1122 0.930 . S
H1131 C1123 0.929 . S
H1132 C1140 0.929 . S
H1133 C1142 0.930 . S
H1134 C1144 0.930 . S
H1135 C1147 0.929 . S
H1136 C1150 0.930 . S
H1137 C1152 0.960 . S
H1138 C1152 0.960 . S
H1139 C1152 0.960 . S
C1140 H1132 0.929 . S
C1140 C1141 1.377 . S
C1140 C1142 1.384 . S
C1141 C1140 1.377 . S
C1141 C1147 1.390 . S
C1142 H1133 0.930 . S
C1142 C1140 1.384 . S
C1142 C1143 1.372 . S
C1143 C1142 1.372 . S
C1143 C1144 1.400 . S
C1143 C1148 1.490 . S
C1144 H1134 0.930 . S
C1144 C1143 1.400 . S
C1144 C1147 1.386 . S
H1145 C1161 0.930 . S
H1146 C1162 0.931 . S
C1147 H1135 0.929 . S
C1147 C1141 1.390 . S
C1147 C1144 1.386 . S
C1148 C1143 1.490 . S
C1148 C1150 1.395 . S
C1148 C1151 1.403 . S
H1149 C1155 0.930 . S
C1150 H1136 0.930 . S
C1150 C1148 1.395 . S
C1150 C1153 1.403 . S
C1151 C1148 1.403 . S
C1151 C1152 1.524 . S
C1151 C1155 1.400 . S
C1152 H1137 0.960 . S
C1152 H1138 0.960 . S
C1152 H1139 0.960 . S
C1152 C1151 1.524 . S
C1153 C1150 1.403 . S
C1153 C1154 1.392 . S
C1153 C1157 1.495 . S
C1154 C1153 1.392 . S
C1154 C1155 1.385 . S
C1154 C1156 1.478 . S
C1155 H1149 0.930 . S
C1155 C1151 1.400 . S
C1155 C1154 1.385 . S
C1156 C1154 1.478 . S
C1156 C1158 1.381 . S
C1156 C1162 1.383 . S
C1157 C1153 1.495 . S
C1157 H1163 0.959 . S
C1157 H1164 0.961 . S
C1157 H1165 0.960 . S
C1158 C1156 1.381 . S
C1158 C1159 1.394 1_655 S
C1158 H1166 0.930 . S
C1159 C1158 1.394 1_455 S
C1159 C1160 1.383 . S
C1159 H1167 0.929 . S
C1160 C1159 1.383 . S
C1160 C1161 1.377 . S
C1161 H1145 0.930 . S
C1161 C1160 1.377 . S
C1161 C1162 1.379 1_455 S
C1162 H1146 0.931 . S
C1162 C1156 1.383 . S
C1162 C1161 1.379 1_655 S
H1163 C1157 0.959 . S
H1164 C1157 0.961 . S
H1165 C1157 0.960 . S
H1166 C1158 0.930 . S
H1167 C1159 0.929 . S
H1168 C1176 0.929 . S
H1169 C1178 0.930 . S
H1170 C1180 0.930 . S
H1171 C1183 0.929 . S
H1172 C1186 0.930 . S
H1173 C1188 0.960 . S
H1174 C1188 0.960 . S
H1175 C1188 0.960 . S
C1176 H1168 0.929 . S
C1176 C1177 1.377 . S
C1176 C1178 1.384 . S
C1177 C1176 1.377 . S
C1177 C1183 1.390 . S
C1178 H1169 0.930 . S
C1178 C1176 1.384 . S
C1178 C1179 1.372 . S
C1179 C1178 1.372 . S
C1179 C1180 1.400 . S
C1179 C1184 1.490 . S
C1180 H1170 0.930 . S
C1180 C1179 1.400 . S
C1180 C1183 1.386 . S
H1181 C1197 0.930 . S
H1182 C1198 0.931 . S
C1183 H1171 0.929 . S
C1183 C1177 1.390 . S
C1183 C1180 1.386 . S
C1184 C1179 1.490 . S
C1184 C1186 1.395 . S
C1184 C1187 1.403 . S
H1185 C1191 0.930 . S
C1186 H1172 0.930 . S
C1186 C1184 1.395 . S
C1186 C1189 1.403 . S
C1187 C1184 1.403 . S
C1187 C1188 1.524 . S
C1187 C1191 1.400 . S
C1188 H1173 0.960 . S
C1188 H1174 0.960 . S
C1188 H1175 0.960 . S
C1188 C1187 1.524 . S
C1189 C1186 1.403 . S
C1189 C1190 1.392 . S
C1189 C1193 1.495 . S
C1190 C1189 1.392 . S
C1190 C1191 1.385 . S
C1190 C1192 1.478 . S
C1191 H1185 0.930 . S
C1191 C1187 1.400 . S
C1191 C1190 1.385 . S
C1192 C1190 1.478 . S
C1192 C1194 1.381 . S
C1192 C1198 1.383 . S
C1193 C1189 1.495 . S
C1193 H1199 0.959 . S
C1193 H1200 0.961 . S
C1193 H1201 0.960 . S
C1194 C1192 1.381 . S
C1194 C1195 1.394 . S
C1194 H1202 0.930 . S
C1195 C1194 1.394 . S
C1195 C1196 1.383 . S
C1195 H1203 0.929 . S
C1196 C1195 1.383 . S
C1196 C1197 1.377 . S
C1197 H1181 0.930 . S
C1197 C1196 1.377 . S
C1197 C1198 1.379 . S
C1198 H1182 0.931 . S
C1198 C1192 1.383 . S
C1198 C1197 1.379 . S
H1199 C1193 0.959 . S
H1200 C1193 0.961 . S
H1201 C1193 0.960 . S
H1202 C1194 0.930 . S
H1203 C1195 0.929 . S
H1204 C1212 0.929 . S
H1205 C1214 0.930 1_455 S
H1206 C1216 0.930 . S
H1207 C1219 0.929 . S
H1208 C1222 0.930 . S
H1209 C1224 0.960 . S
H1210 C1224 0.960 . S
H1211 C1224 0.960 . S
C1212 H1204 0.929 . S
C1212 C1213 1.377 . S
C1212 C1214 1.388 . S
C1213 C1212 1.377 . S
C1213 C1219 1.390 . S
C1214 H1205 0.930 1_655 S
C1214 C1212 1.388 . S
C1214 C1215 1.368 1_655 S
C1215 C1214 1.368 1_455 S
C1215 C1216 1.400 . S
C1215 C1220 1.490 . S
C1216 H1206 0.930 . S
C1216 C1215 1.400 . S
C1216 C1219 1.386 1_455 S
H1217 C1233 0.930 . S
H1218 C1234 0.931 . S
C1219 H1207 0.929 . S
C1219 C1213 1.390 . S
C1219 C1216 1.386 1_655 S
C1220 C1215 1.490 . S
C1220 C1222 1.395 . S
C1220 C1223 1.403 . S
H1221 C1227 0.930 . S
C1222 H1208 0.930 . S
C1222 C1220 1.395 . S
C1222 C1225 1.403 . S
C1223 C1220 1.403 . S
C1223 C1224 1.524 . S
C1223 C1227 1.400 . S
C1224 H1209 0.960 . S
C1224 H1210 0.960 . S
C1224 H1211 0.960 . S
C1224 C1223 1.524 . S
C1225 C1222 1.403 . S
C1225 C1226 1.392 . S
C1225 C1229 1.495 . S
C1226 C1225 1.392 . S
C1226 C1227 1.385 . S
C1226 C1228 1.478 . S
C1227 H1221 0.930 . S
C1227 C1223 1.400 . S
C1227 C1226 1.385 . S
C1228 C1226 1.478 . S
C1228 C1230 1.381 . S
C1228 C1234 1.383 . S
C1229 C1225 1.495 . S
C1229 H1235 0.959 . S
C1229 H1236 0.961 . S
C1229 H1237 0.960 . S
C1230 C1228 1.381 . S
C1230 C1231 1.394 . S
C1230 H1238 0.930 . S
C1231 C1230 1.394 . S
C1231 C1232 1.383 . S
C1231 H1239 0.929 . S
C1232 C1231 1.383 . S
C1232 C1233 1.377 . S
C1233 H1217 0.930 . S
C1233 C1232 1.377 . S
C1233 C1234 1.379 . S
C1234 H1218 0.931 . S
C1234 C1228 1.383 . S
C1234 C1233 1.379 . S
H1235 C1229 0.959 . S
H1236 C1229 0.961 . S
H1237 C1229 0.960 . S
H1238 C1230 0.930 . S
H1239 C1231 0.929 . S
H1240 C1248 0.929 . S
H1241 C1250 0.930 . S
H1242 C1252 0.930 . S
H1243 C1255 0.929 . S
H1244 C1258 0.930 . S
H1245 C1260 0.960 . S
H1246 C1260 0.960 . S
H1247 C1260 0.960 . S
C1248 H1240 0.929 . S
C1248 C1249 1.377 . S
C1248 C1250 1.384 . S
C1249 C1248 1.377 . S
C1249 C1255 1.390 . S
C1250 H1241 0.930 . S
C1250 C1248 1.384 . S
C1250 C1251 1.372 . S
C1251 C1250 1.372 . S
C1251 C1252 1.400 . S
C1251 C1256 1.490 . S
C1252 H1242 0.930 . S
C1252 C1251 1.400 . S
C1252 C1255 1.386 . S
H1253 C1269 0.930 . S
H1254 C1270 0.931 . S
C1255 H1243 0.929 . S
C1255 C1249 1.390 . S
C1255 C1252 1.386 . S
C1256 C1251 1.490 . S
C1256 C1258 1.395 . S
C1256 C1259 1.403 . S
H1257 C1263 0.930 . S
C1258 H1244 0.930 . S
C1258 C1256 1.395 . S
C1258 C1261 1.403 . S
C1259 C1256 1.403 . S
C1259 C1260 1.524 . S
C1259 C1263 1.400 . S
C1260 H1245 0.960 . S
C1260 H1246 0.960 . S
C1260 H1247 0.960 . S
C1260 C1259 1.524 . S
C1261 C1258 1.403 . S
C1261 C1262 1.392 . S
C1261 C1265 1.495 . S
C1262 C1261 1.392 . S
C1262 C1263 1.385 . S
C1262 C1264 1.478 . S
C1263 H1257 0.930 . S
C1263 C1259 1.400 . S
C1263 C1262 1.385 . S
C1264 C1262 1.478 . S
C1264 C1266 1.381 . S
C1264 C1270 1.383 . S
C1265 C1261 1.495 . S
C1265 H1271 0.959 . S
C1265 H1272 0.961 . S
C1265 H1273 0.960 . S
C1266 C1264 1.381 . S
C1266 C1267 1.394 . S
C1266 H1274 0.930 . S
C1267 C1266 1.394 . S
C1267 C1268 1.383 . S
C1267 H1275 0.929 . S
C1268 C1267 1.383 . S
C1268 C1269 1.377 . S
C1269 H1253 0.930 . S
C1269 C1268 1.377 . S
C1269 C1270 1.379 . S
C1270 H1254 0.931 . S
C1270 C1264 1.383 . S
C1270 C1269 1.379 . S
H1271 C1265 0.959 . S
H1272 C1265 0.961 . S
H1273 C1265 0.960 . S
H1274 C1266 0.930 . S
H1275 C1267 0.929 . S
H1276 C1284 0.929 . S
H1277 C1286 0.930 . S
H1278 C1288 0.930 . S
H1279 C1291 0.929 . S
H1280 C1294 0.930 . S
H1281 C1296 0.960 . S
H1282 C1296 0.960 . S
H1283 C1296 0.960 . S
C1284 H1276 0.929 . S
C1284 C1285 1.377 . S
C1284 C1286 1.384 1_655 S
C1285 C1284 1.377 . S
C1285 C1291 1.390 . S
C1286 H1277 0.930 . S
C1286 C1284 1.384 1_455 S
C1286 C1287 1.372 . S
C1287 C1286 1.372 . S
C1287 C1288 1.400 . S
C1287 C1292 1.490 . S
C1288 H1278 0.930 . S
C1288 C1287 1.400 . S
C1288 C1291 1.386 1_455 S
H1289 C1305 0.930 . S
H1290 C1306 0.931 . S
C1291 H1279 0.929 . S
C1291 C1285 1.390 . S
C1291 C1288 1.386 1_655 S
C1292 C1287 1.490 . S
C1292 C1294 1.395 . S
C1292 C1295 1.403 . S
H1293 C1299 0.930 . S
C1294 H1280 0.930 . S
C1294 C1292 1.395 . S
C1294 C1297 1.403 . S
C1295 C1292 1.403 . S
C1295 C1296 1.524 . S
C1295 C1299 1.400 . S
C1296 H1281 0.960 . S
C1296 H1282 0.960 . S
C1296 H1283 0.960 . S
C1296 C1295 1.524 . S
C1297 C1294 1.403 . S
C1297 C1298 1.392 . S
C1297 C1301 1.495 . S
C1298 C1297 1.392 . S
C1298 C1299 1.385 . S
C1298 C1300 1.478 . S
C1299 H1293 0.930 . S
C1299 C1295 1.400 . S
C1299 C1298 1.385 . S
C1300 C1298 1.478 . S
C1300 C1302 1.381 . S
C1300 C1306 1.383 . S
C1301 C1297 1.495 . S
C1301 H1307 0.959 . S
C1301 H1308 0.961 . S
C1301 H1309 0.960 . S
C1302 C1300 1.381 . S
C1302 C1303 1.394 . S
C1302 H1310 0.930 . S
C1303 C1302 1.394 . S
C1303 C1304 1.383 . S
C1303 H1311 0.929 . S
C1304 C1303 1.383 . S
C1304 C1305 1.377 . S
C1305 H1289 0.930 . S
C1305 C1304 1.377 . S
C1305 C1306 1.379 . S
C1306 H1290 0.931 . S
C1306 C1300 1.383 . S
C1306 C1305 1.379 . S
H1307 C1301 0.959 . S
H1308 C1301 0.961 . S
H1309 C1301 0.960 . S
H1310 C1302 0.930 . S
H1311 C1303 0.929 . S
H1312 C1320 0.929 . S
H1313 C1322 0.930 . S
H1314 C1324 0.930 . S
H1315 C1327 0.929 . S
H1316 C1330 0.930 . S
H1317 C1332 0.960 . S
H1318 C1332 0.960 . S
H1319 C1332 0.960 . S
C1320 H1312 0.929 . S
C1320 C1321 1.377 . S
C1320 C1322 1.384 . S
C1321 C1320 1.377 . S
C1321 C1327 1.390 . S
C1322 H1313 0.930 . S
C1322 C1320 1.384 . S
C1322 C1323 1.372 . S
C1323 C1322 1.372 . S
C1323 C1324 1.400 . S
C1323 C1328 1.490 . S
C1324 H1314 0.930 . S
C1324 C1323 1.400 . S
C1324 C1327 1.386 . S
H1325 C1341 0.930 . S
H1326 C1342 0.931 . S
C1327 H1315 0.929 . S
C1327 C1321 1.390 . S
C1327 C1324 1.386 . S
C1328 C1323 1.490 . S
C1328 C1330 1.395 . S
C1328 C1331 1.403 . S
H1329 C1335 0.930 . S
C1330 H1316 0.930 . S
C1330 C1328 1.395 . S
C1330 C1333 1.403 . S
C1331 C1328 1.403 . S
C1331 C1332 1.524 . S
C1331 C1335 1.400 . S
C1332 H1317 0.960 . S
C1332 H1318 0.960 . S
C1332 H1319 0.960 . S
C1332 C1331 1.524 . S
C1333 C1330 1.403 . S
C1333 C1334 1.392 . S
C1333 C1337 1.495 . S
C1334 C1333 1.392 . S
C1334 C1335 1.385 . S
C1334 C1336 1.478 . S
C1335 H1329 0.930 . S
C1335 C1331 1.400 . S
C1335 C1334 1.385 . S
C1336 C1334 1.478 . S
C1336 C1338 1.381 . S
C1336 C1342 1.383 . S
C1337 C1333 1.495 . S
C1337 H1343 0.959 . S
C1337 H1344 0.961 . S
C1337 H1345 0.960 . S
C1338 C1336 1.381 . S
C1338 C1339 1.394 . S
C1338 H1346 0.930 . S
C1339 C1338 1.394 . S
C1339 C1340 1.383 . S
C1339 H1347 0.929 . S
C1340 C1339 1.383 . S
C1340 C1341 1.377 . S
C1341 H1325 0.930 . S
C1341 C1340 1.377 . S
C1341 C1342 1.379 . S
C1342 H1326 0.931 . S
C1342 C1336 1.383 . S
C1342 C1341 1.379 . S
H1343 C1337 0.959 . S
H1344 C1337 0.961 . S
H1345 C1337 0.960 . S
H1346 C1338 0.930 . S
H1347 C1339 0.929 . S
H1348 C1356 0.929 . S
H1349 C1358 0.930 . S
H1350 C1360 0.930 . S
H1351 C1363 0.929 . S
H1352 C1366 0.930 . S
H1353 C1368 0.960 . S
H1354 C1368 0.960 . S
H1355 C1368 0.960 . S
C1356 H1348 0.929 . S
C1356 C1357 1.377 . S
C1356 C1358 1.384 . S
C1357 C1356 1.377 . S
C1357 C1363 1.390 . S
C1358 H1349 0.930 . S
C1358 C1356 1.384 . S
C1358 C1359 1.372 . S
C1359 C1358 1.372 . S
C1359 C1360 1.400 . S
C1359 C1364 1.490 . S
C1360 H1350 0.930 . S
C1360 C1359 1.400 . S
C1360 C1363 1.386 . S
H1361 C1377 0.930 . S
H1362 C1378 0.931 . S
C1363 H1351 0.929 . S
C1363 C1357 1.390 . S
C1363 C1360 1.386 . S
C1364 C1359 1.490 . S
C1364 C1366 1.395 . S
C1364 C1367 1.403 . S
H1365 C1371 0.930 . S
C1366 H1352 0.930 . S
C1366 C1364 1.395 . S
C1366 C1369 1.403 . S
C1367 C1364 1.403 . S
C1367 C1368 1.524 . S
C1367 C1371 1.400 . S
C1368 H1353 0.960 . S
C1368 H1354 0.960 . S
C1368 H1355 0.960 . S
C1368 C1367 1.524 . S
C1369 C1366 1.403 . S
C1369 C1370 1.392 . S
C1369 C1373 1.495 . S
C1370 C1369 1.392 . S
C1370 C1371 1.385 . S
C1370 C1372 1.478 . S
C1371 H1365 0.930 . S
C1371 C1367 1.400 . S
C1371 C1370 1.385 . S
C1372 C1370 1.478 . S
C1372 C1374 1.381 . S
C1372 C1378 1.383 . S
C1373 C1369 1.495 . S
C1373 H1379 0.959 . S
C1373 H1380 0.961 . S
C1373 H1381 0.960 . S
C1374 C1372 1.381 . S
C1374 C1375 1.394 1_655 S
C1374 H1382 0.930 . S
C1375 C1374 1.394 1_455 S
C1375 C1376 1.383 . S
C1375 H1383 0.929 . S
C1376 C1375 1.383 . S
C1376 C1377 1.377 . S
C1377 H1361 0.930 . S
C1377 C1376 1.377 . S
C1377 C1378 1.379 1_455 S
C1378 H1362 0.931 . S
C1378 C1372 1.383 . S
C1378 C1377 1.379 1_655 S
H1379 C1373 0.959 . S
H1380 C1373 0.961 . S
H1381 C1373 0.960 . S
H1382 C1374 0.930 . S
H1383 C1375 0.929 . S
H1384 C1392 0.929 . S
H1385 C1394 0.930 . S
H1386 C1396 0.930 . S
H1387 C1399 0.929 . S
H1388 C1402 0.930 . S
H1389 C1404 0.960 . S
H1390 C1404 0.960 . S
H1391 C1404 0.960 . S
C1392 H1384 0.929 . S
C1392 C1393 1.377 . S
C1392 C1394 1.384 . S
C1393 C1392 1.377 . S
C1393 C1399 1.390 . S
C1394 H1385 0.930 . S
C1394 C1392 1.384 . S
C1394 C1395 1.372 . S
C1395 C1394 1.372 . S
C1395 C1396 1.400 . S
C1395 C1400 1.490 . S
C1396 H1386 0.930 . S
C1396 C1395 1.400 . S
C1396 C1399 1.386 . S
H1397 C1413 0.930 . S
H1398 C1414 0.931 . S
C1399 H1387 0.929 . S
C1399 C1393 1.390 . S
C1399 C1396 1.386 . S
C1400 C1395 1.490 . S
C1400 C1402 1.395 . S
C1400 C1403 1.403 . S
H1401 C1407 0.930 . S
C1402 H1388 0.930 . S
C1402 C1400 1.395 . S
C1402 C1405 1.403 . S
C1403 C1400 1.403 . S
C1403 C1404 1.524 . S
C1403 C1407 1.400 . S
C1404 H1389 0.960 . S
C1404 H1390 0.960 . S
C1404 H1391 0.960 . S
C1404 C1403 1.524 . S
C1405 C1402 1.403 . S
C1405 C1406 1.392 . S
C1405 C1409 1.495 . S
C1406 C1405 1.392 . S
C1406 C1407 1.385 . S
C1406 C1408 1.478 . S
C1407 H1401 0.930 . S
C1407 C1403 1.400 . S
C1407 C1406 1.385 . S
C1408 C1406 1.478 . S
C1408 C1410 1.381 . S
C1408 C1414 1.383 . S
C1409 C1405 1.495 . S
C1409 H1415 0.959 . S
C1409 H1416 0.961 . S
C1409 H1417 0.960 . S
C1410 C1408 1.381 . S
C1410 C1411 1.394 . S
C1410 H1418 0.930 . S
C1411 C1410 1.394 . S
C1411 C1412 1.383 . S
C1411 H1419 0.929 . S
C1412 C1411 1.383 . S
C1412 C1413 1.377 . S
C1413 H1397 0.930 . S
C1413 C1412 1.377 . S
C1413 C1414 1.379 . S
C1414 H1398 0.931 . S
C1414 C1408 1.383 . S
C1414 C1413 1.379 . S
H1415 C1409 0.959 . S
H1416 C1409 0.961 . S
H1417 C1409 0.960 . S
H1418 C1410 0.930 . S
H1419 C1411 0.929 . S
H1420 C1428 0.929 . S
H1421 C1430 0.930 . S
H1422 C1432 0.930 . S
H1423 C1435 0.929 . S
H1424 C1438 0.930 . S
H1425 C1440 0.960 . S
H1426 C1440 0.960 . S
H1427 C1440 0.960 . S
C1428 H1420 0.929 . S
C1428 C1429 1.377 . S
C1428 C1430 1.384 . S
C1429 C1428 1.377 . S
C1429 C1435 1.390 . S
C1430 H1421 0.930 . S
C1430 C1428 1.384 . S
C1430 C1431 1.372 . S
C1431 C1430 1.372 . S
C1431 C1432 1.400 . S
C1431 C1436 1.490 . S
C1432 H1422 0.930 . S
C1432 C1431 1.400 . S
C1432 C1435 1.386 . S
H1433 C1449 0.930 . S
H1434 C1450 0.931 . S
C1435 H1423 0.929 . S
C1435 C1429 1.390 . S
C1435 C1432 1.386 . S
C1436 C1431 1.490 . S
C1436 C1438 1.395 . S
C1436 C1439 1.403 . S
H1437 C1443 0.930 . S
C1438 H1424 0.930 . S
C1438 C1436 1.395 . S
C1438 C1441 1.403 . S
C1439 C1436 1.403 . S
C1439 C1440 1.524 . S
C1439 C1443 1.400 . S
C1440 H1425 0.960 . S
C1440 H1426 0.960 . S
C1440 H1427 0.960 . S
C1440 C1439 1.524 . S
C1441 C1438 1.403 . S
C1441 C1442 1.392 . S
C1441 C1445 1.495 . S
C1442 C1441 1.392 . S
C1442 C1443 1.385 . S
C1442 C1444 1.478 . S
C1443 H1437 0.930 . S
C1443 C1439 1.400 . S
C1443 C1442 1.385 . S
C1444 C1442 1.478 . S
C1444 C1446 1.381 . S
C1444 C1450 1.383 . S
C1445 C1441 1.495 . S
C1445 H1451 0.959 . S
C1445 H1452 0.961 . S
C1445 H1453 0.960 . S
C1446 C1444 1.381 . S
C1446 C1447 1.394 1_655 S
C1446 H1454 0.930 . S
C1447 C1446 1.394 1_455 S
C1447 C1448 1.383 . S
C1447 H1455 0.929 . S
C1448 C1447 1.383 . S
C1448 C1449 1.377 . S
C1449 H1433 0.930 . S
C1449 C1448 1.377 . S
C1449 C1450 1.379 1_455 S
C1450 H1434 0.931 . S
C1450 C1444 1.383 . S
C1450 C1449 1.379 1_655 S
H1451 C1445 0.959 . S
H1452 C1445 0.961 . S
H1453 C1445 0.960 . S
H1454 C1446 0.930 . S
H1455 C1447 0.929 . S
H1456 C1464 0.929 . S
H1457 C1466 0.930 . S
H1458 C1468 0.930 . S
H1459 C1471 0.929 . S
H1460 C1474 0.930 . S
H1461 C1476 0.960 . S
H1462 C1476 0.960 . S
H1463 C1476 0.960 . S
C1464 H1456 0.929 . S
C1464 C1465 1.377 . S
C1464 C1466 1.384 . S
C1465 C1464 1.377 . S
C1465 C1471 1.390 . S
C1466 H1457 0.930 . S
C1466 C1464 1.384 . S
C1466 C1467 1.372 . S
C1467 C1466 1.372 . S
C1467 C1468 1.400 . S
C1467 C1472 1.490 . S
C1468 H1458 0.930 . S
C1468 C1467 1.400 . S
C1468 C1471 1.386 . S
H1469 C1485 0.930 . S
H1470 C1486 0.931 . S
C1471 H1459 0.929 . S
C1471 C1465 1.390 . S
C1471 C1468 1.386 . S
C1472 C1467 1.490 . S
C1472 C1474 1.395 . S
C1472 C1475 1.403 . S
H1473 C1479 0.930 . S
C1474 H1460 0.930 . S
C1474 C1472 1.395 . S
C1474 C1477 1.403 . S
C1475 C1472 1.403 . S
C1475 C1476 1.524 . S
C1475 C1479 1.400 . S
C1476 H1461 0.960 . S
C1476 H1462 0.960 . S
C1476 H1463 0.960 . S
C1476 C1475 1.524 . S
C1477 C1474 1.403 . S
C1477 C1478 1.392 . S
C1477 C1481 1.495 . S
C1478 C1477 1.392 . S
C1478 C1479 1.385 . S
C1478 C1480 1.478 . S
C1479 H1473 0.930 . S
C1479 C1475 1.400 . S
C1479 C1478 1.385 . S
C1480 C1478 1.478 . S
C1480 C1482 1.381 . S
C1480 C1486 1.383 . S
C1481 C1477 1.495 . S
C1481 H1487 0.959 . S
C1481 H1488 0.961 . S
C1481 H1489 0.960 . S
C1482 C1480 1.381 . S
C1482 C1483 1.394 . S
C1482 H1490 0.930 . S
C1483 C1482 1.394 . S
C1483 C1484 1.383 . S
C1483 H1491 0.929 . S
C1484 C1483 1.383 . S
C1484 C1485 1.377 . S
C1485 H1469 0.930 . S
C1485 C1484 1.377 . S
C1485 C1486 1.379 . S
C1486 H1470 0.931 . S
C1486 C1480 1.383 . S
C1486 C1485 1.379 . S
H1487 C1481 0.959 . S
H1488 C1481 0.961 . S
H1489 C1481 0.960 . S
H1490 C1482 0.930 . S
H1491 C1483 0.929 . S
H1492 C1500 0.929 . S
H1493 C1502 0.930 . S
H1494 C1504 0.930 . S
H1495 C1507 0.929 . S
H1496 C1510 0.930 . S
H1497 C1512 0.960 . S
H1498 C1512 0.960 . S
H1499 C1512 0.960 . S
C1500 H1492 0.929 . S
C1500 C1501 1.377 . S
C1500 C1502 1.384 . S
C1501 C1500 1.377 . S
C1501 C1507 1.390 . S
C1502 H1493 0.930 . S
C1502 C1500 1.384 . S
C1502 C1503 1.372 . S
C1503 C1502 1.372 . S
C1503 C1504 1.400 . S
C1503 C1508 1.490 . S
C1504 H1494 0.930 . S
C1504 C1503 1.400 . S
C1504 C1507 1.386 . S
H1505 C1521 0.930 . S
H1506 C1522 0.931 . S
C1507 H1495 0.929 . S
C1507 C1501 1.390 . S
C1507 C1504 1.386 . S
C1508 C1503 1.490 . S
C1508 C1510 1.395 . S
C1508 C1511 1.403 . S
H1509 C1515 0.930 . S
C1510 H1496 0.930 . S
C1510 C1508 1.395 . S
C1510 C1513 1.403 . S
C1511 C1508 1.403 . S
C1511 C1512 1.524 . S
C1511 C1515 1.400 . S
C1512 H1497 0.960 . S
C1512 H1498 0.960 . S
C1512 H1499 0.960 . S
C1512 C1511 1.524 . S
C1513 C1510 1.403 . S
C1513 C1514 1.392 . S
C1513 C1517 1.495 . S
C1514 C1513 1.392 . S
C1514 C1515 1.385 . S
C1514 C1516 1.478 . S
C1515 H1509 0.930 . S
C1515 C1511 1.400 . S
C1515 C1514 1.385 . S
C1516 C1514 1.478 . S
C1516 C1518 1.381 . S
C1516 C1522 1.383 . S
C1517 C1513 1.495 . S
C1517 H1523 0.959 . S
C1517 H1524 0.961 . S
C1517 H1525 0.960 . S
C1518 C1516 1.381 . S
C1518 C1519 1.394 1_455 S
C1518 H1526 0.930 . S
C1519 C1518 1.394 1_655 S
C1519 C1520 1.383 . S
C1519 H1527 0.929 . S
C1520 C1519 1.383 . S
C1520 C1521 1.377 . S
C1521 H1505 0.930 . S
C1521 C1520 1.377 . S
C1521 C1522 1.379 1_655 S
C1522 H1506 0.931 . S
C1522 C1516 1.383 . S
C1522 C1521 1.379 1_455 S
H1523 C1517 0.959 . S
H1524 C1517 0.961 . S
H1525 C1517 0.960 . S
H1526 C1518 0.930 . S
H1527 C1519 0.929 . S
H1528 C1536 0.929 . S
H1529 C1538 0.930 . S
H1530 C1540 0.930 . S
H1531 C1543 0.929 . S
H1532 C1546 0.930 . S
H1533 C1548 0.960 . S
H1534 C1548 0.960 . S
H1535 C1548 0.960 . S
C1536 H1528 0.929 . S
C1536 C1537 1.377 . S
C1536 C1538 1.384 . S
C1537 C1536 1.377 . S
C1537 C1543 1.390 . S
C1538 H1529 0.930 . S
C1538 C1536 1.384 . S
C1538 C1539 1.372 . S
C1539 C1538 1.372 . S
C1539 C1540 1.400 . S
C1539 C1544 1.490 . S
C1540 H1530 0.930 . S
C1540 C1539 1.400 . S
C1540 C1543 1.386 . S
H1541 C1557 0.930 . S
H1542 C1558 0.931 . S
C1543 H1531 0.929 . S
C1543 C1537 1.390 . S
C1543 C1540 1.386 . S
C1544 C1539 1.490 . S
C1544 C1546 1.395 . S
C1544 C1547 1.403 . S
H1545 C1551 0.930 . S
C1546 H1532 0.930 . S
C1546 C1544 1.395 . S
C1546 C1549 1.403 . S
C1547 C1544 1.403 . S
C1547 C1548 1.524 . S
C1547 C1551 1.400 . S
C1548 H1533 0.960 . S
C1548 H1534 0.960 . S
C1548 H1535 0.960 . S
C1548 C1547 1.524 . S
C1549 C1546 1.403 . S
C1549 C1550 1.392 . S
C1549 C1553 1.495 . S
C1550 C1549 1.392 . S
C1550 C1551 1.385 . S
C1550 C1552 1.478 . S
C1551 H1545 0.930 . S
C1551 C1547 1.400 . S
C1551 C1550 1.385 . S
C1552 C1550 1.478 . S
C1552 C1554 1.381 . S
C1552 C1558 1.383 . S
C1553 C1549 1.495 . S
C1553 H1559 0.959 . S
C1553 H1560 0.961 . S
C1553 H1561 0.960 . S
C1554 C1552 1.381 . S
C1554 C1555 1.394 . S
C1554 H1562 0.930 . S
C1555 C1554 1.394 . S
C1555 C1556 1.383 . S
C1555 H1563 0.929 . S
C1556 C1555 1.383 . S
C1556 C1557 1.377 . S
C1557 H1541 0.930 . S
C1557 C1556 1.377 . S
C1557 C1558 1.379 . S
C1558 H1542 0.931 . S
C1558 C1552 1.383 . S
C1558 C1557 1.379 . S
H1559 C1553 0.959 . S
H1560 C1553 0.961 . S
H1561 C1553 0.960 . S
H1562 C1554 0.930 . S
H1563 C1555 0.929 . S
H1564 C1572 0.929 . S
H1565 C1574 0.930 . S
H1566 C1576 0.930 . S
H1567 C1579 0.929 . S
H1568 C1582 0.930 . S
H1569 C1584 0.960 . S
H1570 C1584 0.960 . S
H1571 C1584 0.960 . S
C1572 H1564 0.929 . S
C1572 C1573 1.377 . S
C1572 C1574 1.384 1_655 S
C1573 C1572 1.377 . S
C1573 C1579 1.390 . S
C1574 H1565 0.930 . S
C1574 C1572 1.384 1_455 S
C1574 C1575 1.372 . S
C1575 C1574 1.372 . S
C1575 C1576 1.400 . S
C1575 C1580 1.490 . S
C1576 H1566 0.930 . S
C1576 C1575 1.400 . S
C1576 C1579 1.386 1_455 S
H1577 C1593 0.930 . S
H1578 C1594 0.931 . S
C1579 H1567 0.929 . S
C1579 C1573 1.390 . S
C1579 C1576 1.386 1_655 S
C1580 C1575 1.490 . S
C1580 C1582 1.395 . S
C1580 C1583 1.403 . S
H1581 C1587 0.930 . S
C1582 H1568 0.930 . S
C1582 C1580 1.395 . S
C1582 C1585 1.403 . S
C1583 C1580 1.403 . S
C1583 C1584 1.524 . S
C1583 C1587 1.400 . S
C1584 H1569 0.960 . S
C1584 H1570 0.960 . S
C1584 H1571 0.960 . S
C1584 C1583 1.524 . S
C1585 C1582 1.403 . S
C1585 C1586 1.392 . S
C1585 C1589 1.495 . S
C1586 C1585 1.392 . S
C1586 C1587 1.385 . S
C1586 C1588 1.478 . S
C1587 H1581 0.930 . S
C1587 C1583 1.400 . S
C1587 C1586 1.385 . S
C1588 C1586 1.478 . S
C1588 C1590 1.381 . S
C1588 C1594 1.383 . S
C1589 C1585 1.495 . S
C1589 H1595 0.959 . S
C1589 H1596 0.961 . S
C1589 H1597 0.960 . S
C1590 C1588 1.381 . S
C1590 C1591 1.394 . S
C1590 H1598 0.930 . S
C1591 C1590 1.394 . S
C1591 C1592 1.383 . S
C1591 H1599 0.929 . S
C1592 C1591 1.383 . S
C1592 C1593 1.377 . S
C1593 H1577 0.930 . S
C1593 C1592 1.377 . S
C1593 C1594 1.379 . S
C1594 H1578 0.931 . S
C1594 C1588 1.383 . S
C1594 C1593 1.379 . S
H1595 C1589 0.959 . S
H1596 C1589 0.961 . S
H1597 C1589 0.960 . S
H1598 C1590 0.930 . S
H1599 C1591 0.929 . S
H1600 C1608 0.929 . S
H1601 C1610 0.930 . S
H1602 C1612 0.930 . S
H1603 C1615 0.929 1_455 S
H1604 C1618 0.930 . S
H1605 C1620 0.960 . S
H1606 C1620 0.960 . S
H1607 C1620 0.960 . S
C1608 H1600 0.929 . S
C1608 C1609 1.377 . S
C1608 C1610 1.384 . S
C1609 C1608 1.377 . S
C1609 C1615 1.390 . S
C1610 H1601 0.930 . S
C1610 C1608 1.384 . S
C1610 C1611 1.372 . S
C1611 C1610 1.372 . S
C1611 C1612 1.400 1_655 S
C1611 C1616 1.490 . S
C1612 H1602 0.930 . S
C1612 C1611 1.400 1_455 S
C1612 C1615 1.386 1_455 S
H1613 C1629 0.930 . S
H1614 C1630 0.931 . S
C1615 H1603 0.929 1_655 S
C1615 C1609 1.390 . S
C1615 C1612 1.386 1_655 S
C1616 C1611 1.490 . S
C1616 C1618 1.395 . S
C1616 C1619 1.403 1_655 S
H1617 C1623 0.930 . S
C1618 H1604 0.930 . S
C1618 C1616 1.395 . S
C1618 C1621 1.403 . S
C1619 C1616 1.403 1_455 S
C1619 C1620 1.524 . S
C1619 C1623 1.400 . S
C1620 H1605 0.960 . S
C1620 H1606 0.960 . S
C1620 H1607 0.960 . S
C1620 C1619 1.524 . S
C1621 C1618 1.403 . S
C1621 C1622 1.392 1_655 S
C1621 C1625 1.495 . S
C1622 C1621 1.392 1_455 S
C1622 C1623 1.385 . S
C1622 C1624 1.478 . S
C1623 H1617 0.930 . S
C1623 C1619 1.400 . S
C1623 C1622 1.385 . S
C1624 C1622 1.478 . S
C1624 C1626 1.381 1_455 S
C1624 C1630 1.383 . S
C1625 C1621 1.495 . S
C1625 H1631 0.959 . S
C1625 H1632 0.961 . S
C1625 H1633 0.960 . S
C1626 C1624 1.381 1_655 S
C1626 C1627 1.394 1_655 S
C1626 H1634 0.930 . S
C1627 C1626 1.394 1_455 S
C1627 C1628 1.383 . S
C1627 H1635 0.929 1_455 S
C1628 C1627 1.383 . S
C1628 C1629 1.377 . S
C1629 H1613 0.930 . S
C1629 C1628 1.377 . S
C1629 C1630 1.379 . S
C1630 H1614 0.931 . S
C1630 C1624 1.383 . S
C1630 C1629 1.379 . S
H1631 C1625 0.959 . S
H1632 C1625 0.961 . S
H1633 C1625 0.960 . S
H1634 C1626 0.930 . S
H1635 C1627 0.929 1_655 S
H1636 C1644 0.929 . S
H1637 C1646 0.930 . S
H1638 C1648 0.930 . S
H1639 C1651 0.929 . S
H1640 C1654 0.930 . S
H1641 C1656 0.960 . S
H1642 C1656 0.960 . S
H1643 C1656 0.960 . S
C1644 H1636 0.929 . S
C1644 C1645 1.377 . S
C1644 C1646 1.384 . S
C1645 C1644 1.377 . S
C1645 C1651 1.390 . S
C1646 H1637 0.930 . S
C1646 C1644 1.384 . S
C1646 C1647 1.372 . S
C1647 C1646 1.372 . S
C1647 C1648 1.400 . S
C1647 C1652 1.490 . S
C1648 H1638 0.930 . S
C1648 C1647 1.400 . S
C1648 C1651 1.386 . S
H1649 C1665 0.930 . S
H1650 C1666 0.931 . S
C1651 H1639 0.929 . S
C1651 C1645 1.390 . S
C1651 C1648 1.386 . S
C1652 C1647 1.490 . S
C1652 C1654 1.395 1_565 S
C1652 C1655 1.403 . S
H1653 C1659 0.930 . S
C1654 H1640 0.930 . S
C1654 C1652 1.395 1_545 S
C1654 C1657 1.403 . S
C1655 C1652 1.403 . S
C1655 C1656 1.524 . S
C1655 C1659 1.400 1_565 S
C1656 H1641 0.960 . S
C1656 H1642 0.960 . S
C1656 H1643 0.960 . S
C1656 C1655 1.524 . S
C1657 C1654 1.403 . S
C1657 C1658 1.392 . S
C1657 C1661 1.495 . S
C1658 C1657 1.392 . S
C1658 C1659 1.385 . S
C1658 C1660 1.478 . S
C1659 H1653 0.930 . S
C1659 C1655 1.400 1_545 S
C1659 C1658 1.385 . S
C1660 C1658 1.478 . S
C1660 C1662 1.381 . S
C1660 C1666 1.383 . S
C1661 C1657 1.495 . S
C1661 H1667 0.959 . S
C1661 H1668 0.961 . S
C1661 H1669 0.960 . S
C1662 C1660 1.381 . S
C1662 C1663 1.394 . S
C1662 H1670 0.930 . S
C1663 C1662 1.394 . S
C1663 C1664 1.383 . S
C1663 H1671 0.929 . S
C1664 C1663 1.383 . S
C1664 C1665 1.377 . S
C1665 H1649 0.930 . S
C1665 C1664 1.377 . S
C1665 C1666 1.379 . S
C1666 H1650 0.931 . S
C1666 C1660 1.383 . S
C1666 C1665 1.379 . S
H1667 C1661 0.959 . S
H1668 C1661 0.961 . S
H1669 C1661 0.960 . S
H1670 C1662 0.930 . S
H1671 C1663 0.929 . S
H1672 C1680 0.929 . S
H1673 C1682 0.930 1_456 S
H1674 C1684 0.930 . S
H1675 C1687 0.929 . S
H1676 C1690 0.930 . S
H1677 C1692 0.960 . S
H1678 C1692 0.960 . S
H1679 C1692 0.960 1_554 S
C1680 H1672 0.929 . S
C1680 C1681 1.377 . S
C1680 C1682 1.384 . S
C1681 C1680 1.377 . S
C1681 C1687 1.390 . S
C1682 H1673 0.930 1_654 S
C1682 C1680 1.384 . S
C1682 C1683 1.372 . S
C1683 C1682 1.372 . S
C1683 C1684 1.400 . S
C1683 C1688 1.490 . S
C1684 H1674 0.930 . S
C1684 C1683 1.400 . S
C1684 C1687 1.386 . S
H1685 C1701 0.930 . S
H1686 C1702 0.931 1_554 S
C1687 H1675 0.929 . S
C1687 C1681 1.390 . S
C1687 C1684 1.386 . S
C1688 C1683 1.490 . S
C1688 C1690 1.395 1_655 S
C1688 C1691 1.401 . S
H1689 C1695 0.930 . S
C1690 H1676 0.930 . S
C1690 C1688 1.395 1_455 S
C1690 C1693 1.487 . S
C1691 C1688 1.401 . S
C1691 C1692 1.524 1_554 S
C1691 C1695 1.401 1_544 S
C1692 H1677 0.960 . S
C1692 H1678 0.960 . S
C1692 H1679 0.960 1_556 S
C1692 C1691 1.524 1_556 S
C1693 C1690 1.487 . S
C1693 C1694 1.326 1_544 S
C1693 C1697 1.485 1_545 S
C1694 C1693 1.326 1_566 S
C1694 C1695 1.385 1_455 S
C1694 C1696 1.478 . S
C1695 H1689 0.930 . S
C1695 C1691 1.401 1_566 S
C1695 C1694 1.385 1_655 S
C1696 C1694 1.478 . S
C1696 C1698 1.381 . S
C1696 C1702 1.383 . S
C1697 C1693 1.485 1_565 S
C1697 H1703 0.959 1_565 S
C1697 H1704 0.961 . S
C1697 H1705 0.960 1_554 S
C1698 C1696 1.381 . S
C1698 C1699 1.394 . S
C1698 H1706 0.930 . S
C1699 C1698 1.394 . S
C1699 C1700 1.383 . S
C1699 H1707 0.929 . S
C1700 C1699 1.383 . S
C1700 C1701 1.377 . S
C1701 H1685 0.930 . S
C1701 C1700 1.377 . S
C1701 C1702 1.379 . S
C1702 H1686 0.931 1_556 S
C1702 C1696 1.383 . S
C1702 C1701 1.379 . S
H1703 C1697 0.959 1_545 S
H1704 C1697 0.961 . S
H1705 C1697 0.960 1_556 S
H1706 C1698 0.930 . S
H1707 C1699 0.929 . S
H1708 C1716 0.929 . S
H1709 C1718 0.930 1_556 S
H1710 C1720 0.930 . S
H1711 C1723 0.929 . S
H1712 C1726 0.930 . S
H1713 C1728 0.960 . S
H1714 C1728 0.960 . S
H1715 C1728 0.960 . S
C1716 H1708 0.929 . S
C1716 C1717 1.377 . S
C1716 C1718 1.384 . S
C1717 C1716 1.377 . S
C1717 C1723 1.390 . S
C1718 H1709 0.930 1_554 S
C1718 C1716 1.384 . S
C1718 C1719 1.372 . S
C1719 C1718 1.372 . S
C1719 C1720 1.400 . S
C1719 C1724 1.490 . S
C1720 H1710 0.930 . S
C1720 C1719 1.400 . S
C1720 C1723 1.386 . S
H1721 C1737 0.930 . S
H1722 C1738 0.931 1_554 S
C1723 H1711 0.929 . S
C1723 C1717 1.390 . S
C1723 C1720 1.386 . S
C1724 C1719 1.490 . S
C1724 C1726 1.395 1_554 S
C1724 C1727 1.403 . S
H1725 C1731 0.930 . S
C1726 H1712 0.930 . S
C1726 C1724 1.395 1_556 S
C1726 C1729 1.403 . S
C1727 C1724 1.403 . S
C1727 C1728 1.524 . S
C1727 C1731 1.400 . S
C1728 H1713 0.960 . S
C1728 H1714 0.960 . S
C1728 H1715 0.960 . S
C1728 C1727 1.524 . S
C1729 C1726 1.403 . S
C1729 C1730 1.392 . S
C1729 C1733 1.495 . S
C1730 C1729 1.392 . S
C1730 C1731 1.385 1_556 S
C1730 C1732 1.478 . S
C1731 H1725 0.930 . S
C1731 C1727 1.400 . S
C1731 C1730 1.385 1_554 S
C1732 C1730 1.478 . S
C1732 C1734 1.381 . S
C1732 C1738 1.383 . S
C1733 C1729 1.495 . S
C1733 H1739 0.959 . S
C1733 H1740 0.961 . S
C1733 H1741 0.960 . S
C1734 C1732 1.381 . S
C1734 C1735 1.394 . S
C1734 H1742 0.930 . S
C1735 C1734 1.394 . S
C1735 C1736 1.383 . S
C1735 H1743 0.929 . S
C1736 C1735 1.383 . S
C1736 C1737 1.377 . S
C1737 H1721 0.930 . S
C1737 C1736 1.377 . S
C1737 C1738 1.379 . S
C1738 H1722 0.931 1_556 S
C1738 C1732 1.383 . S
C1738 C1737 1.379 . S
H1739 C1733 0.959 . S
H1740 C1733 0.961 . S
H1741 C1733 0.960 . S
H1742 C1734 0.930 . S
H1743 C1735 0.929 . S
H1744 C1752 0.929 1_455 S
H1745 C1754 0.930 . S
H1746 C1756 0.930 . S
H1747 C1759 0.929 . S
H1748 C1762 0.930 . S
H1749 C1764 0.960 . S
H1750 C1764 0.960 . S
H1751 C1764 0.960 . S
C1752 H1744 0.929 1_655 S
C1752 C1753 1.377 . S
C1752 C1754 1.384 1_655 S
C1753 C1752 1.377 . S
C1753 C1759 1.390 . S
C1754 H1745 0.930 . S
C1754 C1752 1.384 1_455 S
C1754 C1755 1.372 1_455 S
C1755 C1754 1.372 1_655 S
C1755 C1756 1.400 . S
C1755 C1760 1.490 . S
C1756 H1746 0.930 . S
C1756 C1755 1.400 . S
C1756 C1759 1.386 . S
H1757 C1773 0.930 1_655 S
H1758 C1774 0.931 . S
C1759 H1747 0.929 . S
C1759 C1753 1.390 . S
C1759 C1756 1.386 . S
C1760 C1755 1.490 . S
C1760 C1762 1.395 1_655 S
C1760 C1763 1.403 . S
H1761 C1767 0.930 . S
C1762 H1748 0.930 . S
C1762 C1760 1.395 1_455 S
C1762 C1765 1.403 . S
C1763 C1760 1.403 . S
C1763 C1764 1.524 . S
C1763 C1767 1.400 . S
C1764 H1749 0.960 . S
C1764 H1750 0.960 . S
C1764 H1751 0.960 . S
C1764 C1763 1.524 . S
C1765 C1762 1.403 . S
C1765 C1766 1.392 . S
C1765 C1769 1.495 . S
C1766 C1765 1.392 . S
C1766 C1767 1.385 1_455 S
C1766 C1768 1.478 . S
C1767 H1761 0.930 . S
C1767 C1763 1.400 . S
C1767 C1766 1.385 1_655 S
C1768 C1766 1.478 . S
C1768 C1770 1.381 . S
C1768 C1774 1.383 1_455 S
C1769 C1765 1.495 . S
C1769 H1775 0.959 . S
C1769 H1776 0.961 . S
C1769 H1777 0.960 . S
C1770 C1768 1.381 . S
C1770 C1771 1.394 . S
C1770 H1778 0.930 . S
C1771 C1770 1.394 . S
C1771 C1772 1.383 . S
C1771 H1779 0.929 . S
C1772 C1771 1.383 . S
C1772 C1773 1.377 . S
C1773 H1757 0.930 1_455 S
C1773 C1772 1.377 . S
C1773 C1774 1.379 1_455 S
C1774 H1758 0.931 . S
C1774 C1768 1.383 1_655 S
C1774 C1773 1.379 1_655 S
H1775 C1769 0.959 . S
H1776 C1769 0.961 . S
H1777 C1769 0.960 . S
H1778 C1770 0.930 . S
H1779 C1771 0.929 . S
H1780 C1788 0.929 . S
H1781 C1790 0.930 . S
H1782 C1792 0.930 . S
H1783 C1795 0.929 . S
H1784 C1798 0.930 . S
H1785 C1800 0.960 . S
H1786 C1800 0.960 . S
H1787 C1800 0.960 . S
C1788 H1780 0.929 . S
C1788 C1789 1.377 . S
C1788 C1790 1.384 . S
C1789 C1788 1.377 . S
C1789 C1795 1.390 . S
C1790 H1781 0.930 . S
C1790 C1788 1.384 . S
C1790 C1791 1.372 . S
C1791 C1790 1.372 . S
C1791 C1792 1.400 . S
C1791 C1796 1.490 . S
C1792 H1782 0.930 . S
C1792 C1791 1.400 . S
C1792 C1795 1.386 . S
H1793 C1809 0.930 . S
H1794 C1810 0.931 . S
C1795 H1783 0.929 . S
C1795 C1789 1.390 . S
C1795 C1792 1.386 . S
C1796 C1791 1.490 . S
C1796 C1798 1.395 1_565 S
C1796 C1799 1.403 . S
H1797 C1803 0.930 . S
C1798 H1784 0.930 . S
C1798 C1796 1.395 1_545 S
C1798 C1801 1.403 . S
C1799 C1796 1.403 . S
C1799 C1800 1.524 . S
C1799 C1803 1.400 1_565 S
C1800 H1785 0.960 . S
C1800 H1786 0.960 . S
C1800 H1787 0.960 . S
C1800 C1799 1.524 . S
C1801 C1798 1.403 . S
C1801 C1802 1.392 . S
C1801 C1805 1.495 . S
C1802 C1801 1.392 . S
C1802 C1803 1.385 . S
C1802 C1804 1.478 . S
C1803 H1797 0.930 . S
C1803 C1799 1.400 1_545 S
C1803 C1802 1.385 . S
C1804 C1802 1.478 . S
C1804 C1806 1.381 . S
C1804 C1810 1.383 . S
C1805 C1801 1.495 . S
C1805 H1811 0.959 . S
C1805 H1812 0.961 . S
C1805 H1813 0.960 . S
C1806 C1804 1.381 . S
C1806 C1807 1.394 . S
C1806 H1814 0.930 . S
C1807 C1806 1.394 . S
C1807 C1808 1.383 . S
C1807 H1815 0.929 . S
C1808 C1807 1.383 . S
C1808 C1809 1.377 . S
C1809 H1793 0.930 . S
C1809 C1808 1.377 . S
C1809 C1810 1.379 . S
C1810 H1794 0.931 . S
C1810 C1804 1.383 . S
C1810 C1809 1.379 . S
H1811 C1805 0.959 . S
H1812 C1805 0.961 . S
H1813 C1805 0.960 . S
H1814 C1806 0.930 . S
H1815 C1807 0.929 . S
H1816 C1824 0.929 . S
H1817 C1826 0.930 1_554 S
H1818 C1828 0.930 . S
H1819 C1831 0.929 . S
H1820 C1834 0.930 . S
H1821 C1836 0.968 . S
H1822 C1836 0.975 . S
H1823 C1836 0.938 1_556 S
C1824 H1816 0.929 . S
C1824 C1825 1.377 . S
C1824 C1826 1.384 . S
C1825 C1824 1.377 . S
C1825 C1831 1.390 . S
C1826 H1817 0.930 1_556 S
C1826 C1824 1.384 . S
C1826 C1827 1.372 . S
C1827 C1826 1.372 . S
C1827 C1828 1.400 . S
C1827 C1832 1.490 . S
C1828 H1818 0.930 . S
C1828 C1827 1.400 . S
C1828 C1831 1.386 . S
H1829 C1845 0.930 . S
H1830 C1846 0.931 1_556 S
C1831 H1819 0.929 . S
C1831 C1825 1.390 . S
C1831 C1828 1.386 . S
C1832 C1827 1.490 . S
C1832 C1834 1.395 . S
C1832 C1835 1.395 1_556 S
H1833 C1839 0.930 . S
C1834 H1820 0.930 . S
C1834 C1832 1.395 . S
C1834 C1837 1.403 1_556 S
C1835 C1832 1.395 1_554 S
C1835 C1836 1.524 . S
C1835 C1839 1.409 . S
C1836 H1821 0.968 . S
C1836 H1822 0.975 . S
C1836 H1823 0.938 1_554 S
C1836 C1835 1.524 . S
C1837 C1834 1.403 1_554 S
C1837 C1838 1.392 . S
C1837 C1841 1.495 . S
C1838 C1837 1.392 . S
C1838 C1839 1.385 . S
C1838 C1840 1.478 . S
C1839 H1833 0.930 . S
C1839 C1835 1.409 . S
C1839 C1838 1.385 . S
C1840 C1838 1.478 . S
C1840 C1842 1.381 . S
C1840 C1846 1.383 . S
C1841 C1837 1.495 . S
C1841 H1847 0.959 1_554 S
C1841 H1848 0.961 1_554 S
C1841 H1849 0.960 . S
C1842 C1840 1.381 . S
C1842 C1843 1.394 . S
C1842 H1850 0.930 . S
C1843 C1842 1.394 . S
C1843 C1844 1.383 . S
C1843 H1851 0.929 . S
C1844 C1843 1.383 . S
C1844 C1845 1.377 . S
C1845 H1829 0.930 . S
C1845 C1844 1.377 . S
C1845 C1846 1.379 . S
C1846 H1830 0.931 1_554 S
C1846 C1840 1.383 . S
C1846 C1845 1.379 . S
H1847 C1841 0.959 1_556 S
H1848 C1841 0.961 1_556 S
H1849 C1841 0.960 . S
H1850 C1842 0.930 . S
H1851 C1843 0.929 . S
H1852 C1860 0.929 . S
H1853 C1862 0.930 . S
H1854 C1864 0.930 . S
H1855 C1867 0.929 . S
H1856 C1870 0.930 . S
H1857 C1872 0.960 . S
H1858 C1872 0.960 . S
H1859 C1872 0.960 . S
C1860 H1852 0.929 . S
C1860 C1861 1.377 . S
C1860 C1862 1.384 . S
C1861 C1860 1.377 . S
C1861 C1867 1.390 . S
C1862 H1853 0.930 . S
C1862 C1860 1.384 . S
C1862 C1863 1.372 . S
C1863 C1862 1.372 . S
C1863 C1864 1.400 . S
C1863 C1868 1.490 . S
C1864 H1854 0.930 . S
C1864 C1863 1.400 . S
C1864 C1867 1.386 . S
H1865 C1881 0.930 . S
H1866 C1882 0.931 . S
C1867 H1855 0.929 . S
C1867 C1861 1.390 . S
C1867 C1864 1.386 . S
C1868 C1863 1.490 . S
C1868 C1870 1.395 . S
C1868 C1871 1.403 . S
H1869 C1875 0.930 . S
C1870 H1856 0.930 . S
C1870 C1868 1.395 . S
C1870 C1873 1.403 . S
C1871 C1868 1.403 . S
C1871 C1872 1.524 . S
C1871 C1875 1.400 . S
C1872 H1857 0.960 . S
C1872 H1858 0.960 . S
C1872 H1859 0.960 . S
C1872 C1871 1.524 . S
C1873 C1870 1.403 . S
C1873 C1874 1.392 . S
C1873 C1877 1.495 . S
C1874 C1873 1.392 . S
C1874 C1875 1.385 . S
C1874 C1876 1.478 . S
C1875 H1869 0.930 . S
C1875 C1871 1.400 . S
C1875 C1874 1.385 . S
C1876 C1874 1.478 . S
C1876 C1878 1.381 . S
C1876 C1882 1.383 . S
C1877 C1873 1.495 . S
C1877 H1883 0.959 . S
C1877 H1884 0.961 . S
C1877 H1885 0.960 . S
C1878 C1876 1.381 . S
C1878 C1879 1.394 . S
C1878 H1886 0.930 . S
C1879 C1878 1.394 . S
C1879 C1880 1.383 . S
C1879 H1887 0.929 . S
C1880 C1879 1.383 . S
C1880 C1881 1.377 . S
C1881 H1865 0.930 . S
C1881 C1880 1.377 . S
C1881 C1882 1.379 . S
C1882 H1866 0.931 . S
C1882 C1876 1.383 . S
C1882 C1881 1.379 . S
H1883 C1877 0.959 . S
H1884 C1877 0.961 . S
H1885 C1877 0.960 . S
H1886 C1878 0.930 . S
H1887 C1879 0.929 . S
H1888 C1896 0.929 1_655 S
H1889 C1898 0.930 . S
H1890 C1900 0.930 . S
H1891 C1903 0.929 . S
H1892 C1906 0.930 . S
H1893 C1908 0.960 . S
H1894 C1908 0.960 . S
H1895 C1908 0.960 1_455 S
C1896 H1888 0.929 1_455 S
C1896 C1897 1.377 . S
C1896 C1898 1.384 1_455 S
C1897 C1896 1.377 . S
C1897 C1903 1.390 . S
C1898 H1889 0.930 . S
C1898 C1896 1.384 1_655 S
C1898 C1899 1.372 1_655 S
C1899 C1898 1.372 1_455 S
C1899 C1900 1.400 . S
C1899 C1904 1.490 . S
C1900 H1890 0.930 . S
C1900 C1899 1.400 . S
C1900 C1903 1.386 . S
H1901 C1917 0.930 1_455 S
H1902 C1918 0.938 . S
C1903 H1891 0.929 . S
C1903 C1897 1.390 . S
C1903 C1900 1.386 . S
C1904 C1899 1.490 . S
C1904 C1906 1.395 . S
C1904 C1907 1.403 1_455 S
H1905 C1911 0.930 . S
C1906 H1892 0.930 . S
C1906 C1904 1.395 . S
C1906 C1909 1.403 1_455 S
C1907 C1904 1.403 1_655 S
C1907 C1908 1.524 . S
C1907 C1911 1.400 . S
C1908 H1893 0.960 . S
C1908 H1894 0.960 . S
C1908 H1895 0.960 1_655 S
C1908 C1907 1.524 . S
C1909 C1906 1.403 1_655 S
C1909 C1910 1.392 . S
C1909 C1913 1.495 1_655 S
C1910 C1909 1.392 . S
C1910 C1911 1.385 . S
C1910 C1912 1.478 . S
C1911 H1905 0.930 . S
C1911 C1907 1.400 . S
C1911 C1910 1.385 . S
C1912 C1910 1.478 . S
C1912 C1914 1.381 . S
C1912 C1918 1.378 1_655 S
C1913 C1909 1.495 1_455 S
C1913 H1919 0.959 . S
C1913 H1920 0.960 . S
C1913 H1921 0.961 1_455 S
C1914 C1912 1.381 . S
C1914 C1915 1.394 . S
C1914 H1922 0.930 . S
C1915 C1914 1.394 . S
C1915 C1916 1.383 . S
C1915 H1923 0.929 . S
C1916 C1915 1.383 . S
C1916 C1917 1.377 . S
C1917 H1901 0.930 1_655 S
C1917 C1916 1.377 . S
C1917 C1918 1.377 1_655 S
C1918 H1902 0.938 . S
C1918 C1912 1.378 1_455 S
C1918 C1917 1.377 1_455 S
H1919 C1913 0.959 . S
H1920 C1913 0.960 . S
H1921 C1913 0.961 1_655 S
H1922 C1914 0.930 . S
H1923 C1915 0.929 . S
H1924 C1932 0.929 . S
H1925 C1934 0.930 . S
H1926 C1936 0.930 . S
H1927 C1939 0.929 . S
H1928 C1942 0.930 . S
H1929 C1944 0.960 . S
H1930 C1944 0.960 . S
H1931 C1944 0.960 . S
C1932 H1924 0.929 . S
C1932 C1933 1.377 . S
C1932 C1934 1.384 . S
C1933 C1932 1.377 . S
C1933 C1939 1.390 . S
C1934 H1925 0.930 . S
C1934 C1932 1.384 . S
C1934 C1935 1.372 . S
C1935 C1934 1.372 . S
C1935 C1936 1.400 . S
C1935 C1940 1.490 . S
C1936 H1926 0.930 . S
C1936 C1935 1.400 . S
C1936 C1939 1.386 . S
H1937 C1953 0.930 . S
H1938 C1954 0.931 . S
C1939 H1927 0.929 . S
C1939 C1933 1.390 . S
C1939 C1936 1.386 . S
C1940 C1935 1.490 . S
C1940 C1942 1.395 . S
C1940 C1943 1.403 . S
H1941 C1947 0.930 . S
C1942 H1928 0.930 . S
C1942 C1940 1.395 . S
C1942 C1945 1.403 . S
C1943 C1940 1.403 . S
C1943 C1944 1.524 . S
C1943 C1947 1.400 . S
C1944 H1929 0.960 . S
C1944 H1930 0.960 . S
C1944 H1931 0.960 . S
C1944 C1943 1.524 . S
C1945 C1942 1.403 . S
C1945 C1946 1.392 . S
C1945 C1949 1.495 . S
C1946 C1945 1.392 . S
C1946 C1947 1.385 . S
C1946 C1948 1.478 . S
C1947 H1941 0.930 . S
C1947 C1943 1.400 . S
C1947 C1946 1.385 . S
C1948 C1946 1.478 . S
C1948 C1950 1.381 . S
C1948 C1954 1.383 . S
C1949 C1945 1.495 . S
C1949 H1955 0.959 . S
C1949 H1956 0.961 . S
C1949 H1957 0.960 . S
C1950 C1948 1.381 . S
C1950 C1951 1.394 . S
C1950 H1958 0.930 . S
C1951 C1950 1.394 . S
C1951 C1952 1.383 . S
C1951 H1959 0.929 . S
C1952 C1951 1.383 . S
C1952 C1953 1.377 . S
C1953 H1937 0.930 . S
C1953 C1952 1.377 . S
C1953 C1954 1.379 . S
C1954 H1938 0.931 . S
C1954 C1948 1.383 . S
C1954 C1953 1.379 . S
H1955 C1949 0.959 . S
H1956 C1949 0.961 . S
H1957 C1949 0.960 . S
H1958 C1950 0.930 . S
H1959 C1951 0.929 . S
H1960 C1968 0.929 . S
H1961 C1970 0.930 . S
H1962 C1972 0.930 . S
H1963 C1975 0.929 . S
H1964 C1978 0.930 . S
H1965 C1980 0.960 . S
H1966 C1980 0.960 . S
H1967 C1980 0.960 . S
C1968 H1960 0.929 . S
C1968 C1969 1.377 . S
C1968 C1970 1.384 . S
C1969 C1968 1.377 . S
C1969 C1975 1.390 . S
C1970 H1961 0.930 . S
C1970 C1968 1.384 . S
C1970 C1971 1.372 . S
C1971 C1970 1.372 . S
C1971 C1972 1.400 . S
C1971 C1976 1.490 . S
C1972 H1962 0.930 . S
C1972 C1971 1.400 . S
C1972 C1975 1.386 . S
H1973 C1989 0.930 . S
H1974 C1990 0.931 . S
C1975 H1963 0.929 . S
C1975 C1969 1.390 . S
C1975 C1972 1.386 . S
C1976 C1971 1.490 . S
C1976 C1978 1.395 . S
C1976 C1979 1.403 . S
H1977 C1983 0.930 . S
C1978 H1964 0.930 . S
C1978 C1976 1.395 . S
C1978 C1981 1.403 . S
C1979 C1976 1.403 . S
C1979 C1980 1.524 . S
C1979 C1983 1.400 . S
C1980 H1965 0.960 . S
C1980 H1966 0.960 . S
C1980 H1967 0.960 . S
C1980 C1979 1.524 . S
C1981 C1978 1.403 . S
C1981 C1982 1.392 . S
C1981 C1985 1.495 . S
C1982 C1981 1.392 . S
C1982 C1983 1.385 . S
C1982 C1984 1.478 . S
C1983 H1977 0.930 . S
C1983 C1979 1.400 . S
C1983 C1982 1.385 . S
C1984 C1982 1.478 . S
C1984 C1986 1.381 . S
C1984 C1990 1.383 . S
C1985 C1981 1.495 . S
C1985 H1991 0.959 . S
C1985 H1992 0.961 . S
C1985 H1993 0.960 . S
C1986 C1984 1.381 . S
C1986 C1987 1.394 . S
C1986 H1994 0.930 . S
C1987 C1986 1.394 . S
C1987 C1988 1.383 . S
C1987 H1995 0.929 . S
C1988 C1987 1.383 . S
C1988 C1989 1.377 . S
C1989 H1973 0.930 . S
C1989 C1988 1.377 . S
C1989 C1990 1.379 . S
C1990 H1974 0.931 . S
C1990 C1984 1.383 . S
C1990 C1989 1.379 . S
H1991 C1985 0.959 . S
H1992 C1985 0.961 . S
H1993 C1985 0.960 . S
H1994 C1986 0.930 . S
H1995 C1987 0.929 . S
H1996 C2004 0.929 . S
H1997 C2006 0.930 . S
H1998 C2008 0.930 . S
H1999 C2011 0.929 . S
H2000 C2014 0.930 . S
H2001 C2016 0.960 . S
H2002 C2016 0.960 . S
H2003 C2016 0.960 . S
C2004 H1996 0.929 . S
C2004 C2005 1.377 . S
C2004 C2006 1.384 . S
C2005 C2004 1.377 . S
C2005 C2011 1.390 . S
C2006 H1997 0.930 . S
C2006 C2004 1.384 . S
C2006 C2007 1.372 . S
C2007 C2006 1.372 . S
C2007 C2008 1.400 . S
C2007 C2012 1.490 . S
C2008 H1998 0.930 . S
C2008 C2007 1.400 . S
C2008 C2011 1.386 . S
H2009 C2025 0.930 . S
H2010 C2026 0.931 . S
C2011 H1999 0.929 . S
C2011 C2005 1.390 . S
C2011 C2008 1.386 . S
C2012 C2007 1.490 . S
C2012 C2014 1.395 . S
C2012 C2015 1.403 . S
H2013 C2019 0.930 . S
C2014 H2000 0.930 . S
C2014 C2012 1.395 . S
C2014 C2017 1.403 . S
C2015 C2012 1.403 . S
C2015 C2016 1.524 . S
C2015 C2019 1.400 . S
C2016 H2001 0.960 . S
C2016 H2002 0.960 . S
C2016 H2003 0.960 . S
C2016 C2015 1.524 . S
C2017 C2014 1.403 . S
C2017 C2018 1.392 . S
C2017 C2021 1.495 . S
C2018 C2017 1.392 . S
C2018 C2019 1.385 . S
C2018 C2020 1.478 . S
C2019 H2013 0.930 . S
C2019 C2015 1.400 . S
C2019 C2018 1.385 . S
C2020 C2018 1.478 . S
C2020 C2022 1.381 . S
C2020 C2026 1.383 . S
C2021 C2017 1.495 . S
C2021 H2027 0.959 . S
C2021 H2028 0.961 . S
C2021 H2029 0.960 . S
C2022 C2020 1.381 . S
C2022 C2023 1.394 . S
C2022 H2030 0.930 . S
C2023 C2022 1.394 . S
C2023 C2024 1.383 . S
C2023 H2031 0.929 . S
C2024 C2023 1.383 . S
C2024 C2025 1.377 . S
C2025 H2009 0.930 . S
C2025 C2024 1.377 . S
C2025 C2026 1.379 . S
C2026 H2010 0.931 . S
C2026 C2020 1.383 . S
C2026 C2025 1.379 . S
H2027 C2021 0.959 . S
H2028 C2021 0.961 . S
H2029 C2021 0.960 . S
H2030 C2022 0.930 . S
H2031 C2023 0.929 . S
H2032 C2040 0.929 . S
H2033 C2042 0.930 . S
H2034 C2044 0.930 . S
H2035 C2047 0.929 . S
H2036 C2050 0.930 . S
H2037 C2052 0.960 . S
H2038 C2052 0.960 . S
H2039 C2052 0.960 . S
C2040 H2032 0.929 . S
C2040 C2041 1.377 . S
C2040 C2042 1.384 . S
C2041 C2040 1.377 . S
C2041 C2047 1.390 . S
C2042 H2033 0.930 . S
C2042 C2040 1.384 . S
C2042 C2043 1.372 . S
C2043 C2042 1.372 . S
C2043 C2044 1.400 . S
C2043 C2048 1.490 . S
C2044 H2034 0.930 . S
C2044 C2043 1.400 . S
C2044 C2047 1.386 . S
H2045 C2061 0.930 . S
H2046 C2062 0.931 . S
C2047 H2035 0.929 . S
C2047 C2041 1.390 . S
C2047 C2044 1.386 . S
C2048 C2043 1.490 . S
C2048 C2050 1.395 . S
C2048 C2051 1.403 . S
H2049 C2055 0.930 . S
C2050 H2036 0.930 . S
C2050 C2048 1.395 . S
C2050 C2053 1.403 . S
C2051 C2048 1.403 . S
C2051 C2052 1.524 . S
C2051 C2055 1.400 . S
C2052 H2037 0.960 . S
C2052 H2038 0.960 . S
C2052 H2039 0.960 . S
C2052 C2051 1.524 . S
C2053 C2050 1.403 . S
C2053 C2054 1.392 . S
C2053 C2057 1.495 . S
C2054 C2053 1.392 . S
C2054 C2055 1.385 . S
C2054 C2056 1.478 . S
C2055 H2049 0.930 . S
C2055 C2051 1.400 . S
C2055 C2054 1.385 . S
C2056 C2054 1.478 . S
C2056 C2058 1.381 . S
C2056 C2062 1.383 . S
C2057 C2053 1.495 . S
C2057 H2063 0.959 . S
C2057 H2064 0.961 . S
C2057 H2065 0.960 . S
C2058 C2056 1.381 . S
C2058 C2059 1.394 . S
C2058 H2066 0.930 . S
C2059 C2058 1.394 . S
C2059 C2060 1.383 . S
C2059 H2067 0.929 . S
C2060 C2059 1.383 . S
C2060 C2061 1.377 . S
C2061 H2045 0.930 . S
C2061 C2060 1.377 . S
C2061 C2062 1.379 . S
C2062 H2046 0.931 . S
C2062 C2056 1.383 . S
C2062 C2061 1.379 . S
H2063 C2057 0.959 . S
H2064 C2057 0.961 . S
H2065 C2057 0.960 . S
H2066 C2058 0.930 . S
H2067 C2059 0.929 . S
H2068 C2076 0.929 . S
H2069 C2078 0.930 . S
H2070 C2080 0.930 . S
H2071 C2083 0.929 . S
H2072 C2086 0.930 . S
H2073 C2088 0.960 . S
H2074 C2088 0.960 . S
H2075 C2088 0.960 . S
C2076 H2068 0.929 . S
C2076 C2077 1.377 . S
C2076 C2078 1.384 . S
C2077 C2076 1.377 . S
C2077 C2083 1.390 . S
C2078 H2069 0.930 . S
C2078 C2076 1.384 . S
C2078 C2079 1.372 . S
C2079 C2078 1.372 . S
C2079 C2080 1.400 . S
C2079 C2084 1.490 . S
C2080 H2070 0.930 . S
C2080 C2079 1.400 . S
C2080 C2083 1.386 . S
H2081 C2097 0.930 . S
H2082 C2098 0.931 . S
C2083 H2071 0.929 . S
C2083 C2077 1.390 . S
C2083 C2080 1.386 . S
C2084 C2079 1.490 . S
C2084 C2086 1.395 . S
C2084 C2087 1.403 . S
H2085 C2091 0.918 1_565 S
C2086 H2072 0.930 . S
C2086 C2084 1.395 . S
C2086 C2089 1.403 1_545 S
C2087 C2084 1.403 . S
C2087 C2088 1.524 . S
C2087 C2091 1.431 . S
C2088 H2073 0.960 . S
C2088 H2074 0.960 . S
C2088 H2075 0.960 . S
C2088 C2087 1.524 . S
C2089 C2086 1.403 1_565 S
C2089 C2090 1.392 . S
C2089 C2093 1.495 . S
C2090 C2089 1.392 . S
C2090 C2091 1.359 1_565 S
C2090 C2092 1.478 . S
C2091 H2085 0.918 1_545 S
C2091 C2087 1.431 . S
C2091 C2090 1.359 1_545 S
C2092 C2090 1.478 . S
C2092 C2094 1.381 . S
C2092 C2098 1.383 . S
C2093 C2089 1.495 . S
C2093 H2099 0.959 . S
C2093 H2100 0.961 . S
C2093 H2101 0.960 . S
C2094 C2092 1.381 . S
C2094 C2095 1.394 . S
C2094 H2102 0.930 . S
C2095 C2094 1.394 . S
C2095 C2096 1.383 . S
C2095 H2103 0.929 . S
C2096 C2095 1.383 . S
C2096 C2097 1.377 . S
C2097 H2081 0.930 . S
C2097 C2096 1.377 . S
C2097 C2098 1.379 . S
C2098 H2082 0.931 . S
C2098 C2092 1.383 . S
C2098 C2097 1.379 . S
H2099 C2093 0.959 . S
H2100 C2093 0.961 . S
H2101 C2093 0.960 . S
H2102 C2094 0.930 . S
H2103 C2095 0.929 . S
H2104 C2112 0.929 . S
H2105 C2114 0.930 . S
H2106 C2116 0.930 . S
H2107 C2119 0.929 . S
H2108 C2122 0.930 . S
H2109 C2124 0.960 . S
H2110 C2124 0.960 . S
H2111 C2124 0.960 . S
C2112 H2104 0.929 . S
C2112 C2113 1.377 . S
C2112 C2114 1.384 . S
C2113 C2112 1.377 . S
C2113 C2119 1.390 . S
C2114 H2105 0.930 . S
C2114 C2112 1.384 . S
C2114 C2115 1.372 . S
C2115 C2114 1.372 . S
C2115 C2116 1.400 . S
C2115 C2120 1.490 . S
C2116 H2106 0.930 . S
C2116 C2115 1.400 . S
C2116 C2119 1.386 . S
H2117 C2133 0.930 . S
H2118 C2134 0.931 . S
C2119 H2107 0.929 . S
C2119 C2113 1.390 . S
C2119 C2116 1.386 . S
C2120 C2115 1.490 . S
C2120 C2122 1.395 . S
C2120 C2123 1.403 . S
H2121 C2127 0.930 . S
C2122 H2108 0.930 . S
C2122 C2120 1.395 . S
C2122 C2125 1.403 . S
C2123 C2120 1.403 . S
C2123 C2124 1.524 . S
C2123 C2127 1.400 . S
C2124 H2109 0.960 . S
C2124 H2110 0.960 . S
C2124 H2111 0.960 . S
C2124 C2123 1.524 . S
C2125 C2122 1.403 . S
C2125 C2126 1.392 . S
C2125 C2129 1.495 . S
C2126 C2125 1.392 . S
C2126 C2127 1.385 . S
C2126 C2128 1.478 . S
C2127 H2121 0.930 . S
C2127 C2123 1.400 . S
C2127 C2126 1.385 . S
C2128 C2126 1.478 . S
C2128 C2130 1.381 . S
C2128 C2134 1.383 . S
C2129 C2125 1.495 . S
C2129 H2135 0.959 . S
C2129 H2136 0.961 . S
C2129 H2137 0.960 . S
C2130 C2128 1.381 . S
C2130 C2131 1.394 . S
C2130 H2138 0.930 . S
C2131 C2130 1.394 . S
C2131 C2132 1.383 . S
C2131 H2139 0.929 . S
C2132 C2131 1.383 . S
C2132 C2133 1.377 . S
C2133 H2117 0.930 . S
C2133 C2132 1.377 . S
C2133 C2134 1.379 . S
C2134 H2118 0.931 . S
C2134 C2128 1.383 . S
C2134 C2133 1.379 . S
H2135 C2129 0.959 . S
H2136 C2129 0.961 . S
H2137 C2129 0.960 . S
H2138 C2130 0.930 . S
H2139 C2131 0.929 . S
H2140 C2148 0.929 . S
H2141 C2150 0.930 . S
H2142 C2152 0.930 . S
H2143 C2155 0.929 . S
H2144 C2158 0.930 . S
H2145 C2160 0.960 . S
H2146 C2160 0.960 . S
H2147 C2160 0.960 . S
C2148 H2140 0.929 . S
C2148 C2149 1.377 . S
C2148 C2150 1.384 . S
C2149 C2148 1.377 . S
C2149 C2155 1.390 . S
C2150 H2141 0.930 . S
C2150 C2148 1.384 . S
C2150 C2151 1.372 . S
C2151 C2150 1.372 . S
C2151 C2152 1.400 . S
C2151 C2156 1.490 . S
C2152 H2142 0.930 . S
C2152 C2151 1.400 . S
C2152 C2155 1.386 . S
H2153 C2169 0.930 . S
H2154 C2170 0.931 . S
C2155 H2143 0.929 . S
C2155 C2149 1.390 . S
C2155 C2152 1.386 . S
C2156 C2151 1.490 . S
C2156 C2158 1.395 1_556 S
C2156 C2159 1.403 . S
H2157 C2163 0.930 . S
C2158 H2144 0.930 . S
C2158 C2156 1.395 1_554 S
C2158 C2161 1.403 . S
C2159 C2156 1.403 . S
C2159 C2160 1.524 . S
C2159 C2163 1.400 . S
C2160 H2145 0.960 . S
C2160 H2146 0.960 . S
C2160 H2147 0.960 . S
C2160 C2159 1.524 . S
C2161 C2158 1.403 . S
C2161 C2162 1.392 . S
C2161 C2165 1.495 . S
C2162 C2161 1.392 . S
C2162 C2163 1.385 1_554 S
C2162 C2164 1.478 . S
C2163 H2157 0.930 . S
C2163 C2159 1.400 . S
C2163 C2162 1.385 1_556 S
C2164 C2162 1.478 . S
C2164 C2166 1.381 . S
C2164 C2170 1.383 . S
C2165 C2161 1.495 . S
C2165 H2171 0.959 . S
C2165 H2172 0.961 . S
C2165 H2173 0.960 . S
C2166 C2164 1.381 . S
C2166 C2167 1.394 . S
C2166 H2174 0.930 . S
C2167 C2166 1.394 . S
C2167 C2168 1.383 . S
C2167 H2175 0.929 . S
C2168 C2167 1.383 . S
C2168 C2169 1.377 . S
C2169 H2153 0.930 . S
C2169 C2168 1.377 . S
C2169 C2170 1.379 . S
C2170 H2154 0.931 . S
C2170 C2164 1.383 . S
C2170 C2169 1.379 . S
H2171 C2165 0.959 . S
H2172 C2165 0.961 . S
H2173 C2165 0.960 . S
H2174 C2166 0.930 . S
H2175 C2167 0.929 . S
H2176 C2184 0.929 . S
H2177 C2186 0.930 . S
H2178 C2188 0.930 . S
H2179 C2191 0.929 . S
H2180 C2194 0.930 . S
H2181 C2196 0.960 . S
H2182 C2196 0.960 . S
H2183 C2196 0.960 . S
C2184 H2176 0.929 . S
C2184 C2185 1.377 . S
C2184 C2186 1.384 . S
C2185 C2184 1.377 . S
C2185 C2191 1.390 . S
C2186 H2177 0.930 . S
C2186 C2184 1.384 . S
C2186 C2187 1.372 . S
C2187 C2186 1.372 . S
C2187 C2188 1.400 . S
C2187 C2192 1.490 . S
C2188 H2178 0.930 . S
C2188 C2187 1.400 . S
C2188 C2191 1.386 . S
H2189 C2205 0.930 . S
H2190 C2206 0.931 . S
C2191 H2179 0.929 . S
C2191 C2185 1.390 . S
C2191 C2188 1.386 . S
C2192 C2187 1.490 . S
C2192 C2194 1.395 . S
C2192 C2195 1.403 . S
H2193 C2199 0.930 . S
C2194 H2180 0.930 . S
C2194 C2192 1.395 . S
C2194 C2197 1.403 . S
C2195 C2192 1.403 . S
C2195 C2196 1.524 . S
C2195 C2199 1.400 . S
C2196 H2181 0.960 . S
C2196 H2182 0.960 . S
C2196 H2183 0.960 . S
C2196 C2195 1.524 . S
C2197 C2194 1.403 . S
C2197 C2198 1.392 . S
C2197 C2201 1.495 . S
C2198 C2197 1.392 . S
C2198 C2199 1.385 . S
C2198 C2200 1.478 . S
C2199 H2193 0.930 . S
C2199 C2195 1.400 . S
C2199 C2198 1.385 . S
C2200 C2198 1.478 . S
C2200 C2202 1.381 . S
C2200 C2206 1.383 . S
C2201 C2197 1.495 . S
C2201 H2207 0.959 . S
C2201 H2208 0.961 . S
C2201 H2209 0.960 . S
C2202 C2200 1.381 . S
C2202 C2203 1.394 . S
C2202 H2210 0.930 . S
C2203 C2202 1.394 . S
C2203 C2204 1.383 . S
C2203 H2211 0.929 . S
C2204 C2203 1.383 . S
C2204 C2205 1.377 . S
C2205 H2189 0.930 . S
C2205 C2204 1.377 . S
C2205 C2206 1.379 . S
C2206 H2190 0.931 . S
C2206 C2200 1.383 . S
C2206 C2205 1.379 . S
H2207 C2201 0.959 . S
H2208 C2201 0.961 . S
H2209 C2201 0.960 . S
H2210 C2202 0.930 . S
H2211 C2203 0.929 . S
H2212 C2220 0.929 . S
H2213 C2222 0.930 . S
H2214 C2224 0.930 . S
H2215 C2227 0.929 . S
H2216 C2230 0.930 . S
H2217 C2232 0.960 . S
H2218 C2232 0.960 . S
H2219 C2232 0.960 . S
C2220 H2212 0.929 . S
C2220 C2221 1.377 . S
C2220 C2222 1.384 . S
C2221 C2220 1.377 . S
C2221 C2227 1.390 . S
C2222 H2213 0.930 . S
C2222 C2220 1.384 . S
C2222 C2223 1.372 . S
C2223 C2222 1.372 . S
C2223 C2224 1.400 . S
C2223 C2228 1.490 . S
C2224 H2214 0.930 . S
C2224 C2223 1.400 . S
C2224 C2227 1.386 . S
H2225 C2241 0.930 . S
H2226 C2242 0.931 . S
C2227 H2215 0.929 . S
C2227 C2221 1.390 . S
C2227 C2224 1.386 . S
C2228 C2223 1.490 . S
C2228 C2230 1.395 . S
C2228 C2231 1.403 . S
H2229 C2235 0.930 . S
C2230 H2216 0.930 . S
C2230 C2228 1.395 . S
C2230 C2233 1.403 . S
C2231 C2228 1.403 . S
C2231 C2232 1.524 . S
C2231 C2235 1.400 . S
C2232 H2217 0.960 . S
C2232 H2218 0.960 . S
C2232 H2219 0.960 . S
C2232 C2231 1.524 . S
C2233 C2230 1.403 . S
C2233 C2234 1.392 . S
C2233 C2237 1.495 . S
C2234 C2233 1.392 . S
C2234 C2235 1.385 . S
C2234 C2236 1.478 . S
C2235 H2229 0.930 . S
C2235 C2231 1.400 . S
C2235 C2234 1.385 . S
C2236 C2234 1.478 . S
C2236 C2238 1.381 . S
C2236 C2242 1.383 . S
C2237 C2233 1.495 . S
C2237 H2243 0.959 . S
C2237 H2244 0.961 . S
C2237 H2245 0.960 . S
C2238 C2236 1.381 . S
C2238 C2239 1.394 . S
C2238 H2246 0.930 . S
C2239 C2238 1.394 . S
C2239 C2240 1.383 . S
C2239 H2247 0.929 . S
C2240 C2239 1.383 . S
C2240 C2241 1.377 . S
C2241 H2225 0.930 . S
C2241 C2240 1.377 . S
C2241 C2242 1.379 . S
C2242 H2226 0.931 . S
C2242 C2236 1.383 . S
C2242 C2241 1.379 . S
H2243 C2237 0.959 . S
H2244 C2237 0.961 . S
H2245 C2237 0.960 . S
H2246 C2238 0.930 . S
H2247 C2239 0.929 . S
H2248 C2256 0.929 . S
H2249 C2258 0.930 . S
H2250 C2260 0.930 . S
H2251 C2263 0.929 . S
H2252 C2266 0.930 . S
H2253 C2268 0.960 . S
H2254 C2268 0.960 . S
H2255 C2268 0.960 . S
C2256 H2248 0.929 . S
C2256 C2257 1.377 . S
C2256 C2258 1.384 . S
C2257 C2256 1.377 . S
C2257 C2263 1.390 . S
C2258 H2249 0.930 . S
C2258 C2256 1.384 . S
C2258 C2259 1.372 . S
C2259 C2258 1.372 . S
C2259 C2260 1.400 . S
C2259 C2264 1.490 . S
C2260 H2250 0.930 . S
C2260 C2259 1.400 . S
C2260 C2263 1.386 . S
H2261 C2277 0.930 . S
H2262 C2278 0.931 . S
C2263 H2251 0.929 . S
C2263 C2257 1.390 . S
C2263 C2260 1.386 . S
C2264 C2259 1.490 . S
C2264 C2266 1.395 . S
C2264 C2267 1.403 . S
H2265 C2271 0.930 . S
C2266 H2252 0.930 . S
C2266 C2264 1.395 . S
C2266 C2269 1.403 . S
C2267 C2264 1.403 . S
C2267 C2268 1.524 . S
C2267 C2271 1.400 . S
C2268 H2253 0.960 . S
C2268 H2254 0.960 . S
C2268 H2255 0.960 . S
C2268 C2267 1.524 . S
C2269 C2266 1.403 . S
C2269 C2270 1.392 . S
C2269 C2273 1.495 . S
C2270 C2269 1.392 . S
C2270 C2271 1.385 . S
C2270 C2272 1.478 . S
C2271 H2265 0.930 . S
C2271 C2267 1.400 . S
C2271 C2270 1.385 . S
C2272 C2270 1.478 . S
C2272 C2274 1.381 . S
C2272 C2278 1.383 . S
C2273 C2269 1.495 . S
C2273 H2279 0.959 . S
C2273 H2280 0.961 . S
C2273 H2281 0.960 . S
C2274 C2272 1.381 . S
C2274 C2275 1.394 . S
C2274 H2282 0.930 . S
C2275 C2274 1.394 . S
C2275 C2276 1.383 . S
C2275 H2283 0.929 . S
C2276 C2275 1.383 . S
C2276 C2277 1.377 . S
C2277 H2261 0.930 . S
C2277 C2276 1.377 . S
C2277 C2278 1.379 . S
C2278 H2262 0.931 . S
C2278 C2272 1.383 . S
C2278 C2277 1.379 . S
H2279 C2273 0.959 . S
H2280 C2273 0.961 . S
H2281 C2273 0.960 . S
H2282 C2274 0.930 . S
H2283 C2275 0.929 . S
H2284 C2292 0.929 . S
H2285 C2294 0.930 . S
H2286 C2296 0.930 . S
H2287 C2299 0.929 . S
H2288 C2302 0.930 . S
H2289 C2304 0.960 . S
H2290 C2304 0.960 . S
H2291 C2304 0.960 . S
C2292 H2284 0.929 . S
C2292 C2293 1.377 . S
C2292 C2294 1.384 . S
C2293 C2292 1.377 . S
C2293 C2299 1.390 . S
C2294 H2285 0.930 . S
C2294 C2292 1.384 . S
C2294 C2295 1.372 . S
C2295 C2294 1.372 . S
C2295 C2296 1.400 . S
C2295 C2300 1.490 . S
C2296 H2286 0.930 . S
C2296 C2295 1.400 . S
C2296 C2299 1.386 . S
H2297 C2313 0.930 . S
H2298 C2314 0.931 . S
C2299 H2287 0.929 . S
C2299 C2293 1.390 . S
C2299 C2296 1.386 . S
C2300 C2295 1.490 . S
C2300 C2302 1.395 . S
C2300 C2303 1.403 . S
H2301 C2307 0.930 . S
C2302 H2288 0.930 . S
C2302 C2300 1.395 . S
C2302 C2305 1.403 . S
C2303 C2300 1.403 . S
C2303 C2304 1.524 . S
C2303 C2307 1.400 . S
C2304 H2289 0.960 . S
C2304 H2290 0.960 . S
C2304 H2291 0.960 . S
C2304 C2303 1.524 . S
C2305 C2302 1.403 . S
C2305 C2306 1.392 . S
C2305 C2309 1.495 . S
C2306 C2305 1.392 . S
C2306 C2307 1.385 . S
C2306 C2308 1.478 . S
C2307 H2301 0.930 . S
C2307 C2303 1.400 . S
C2307 C2306 1.385 . S
C2308 C2306 1.478 . S
C2308 C2310 1.381 . S
C2308 C2314 1.383 . S
C2309 C2305 1.495 . S
C2309 H2315 0.959 . S
C2309 H2316 0.961 . S
C2309 H2317 0.960 . S
C2310 C2308 1.381 . S
C2310 C2311 1.394 . S
C2310 H2318 0.930 . S
C2311 C2310 1.394 . S
C2311 C2312 1.383 . S
C2311 H2319 0.929 . S
C2312 C2311 1.383 . S
C2312 C2313 1.377 . S
C2313 H2297 0.930 . S
C2313 C2312 1.377 . S
C2313 C2314 1.379 . S
C2314 H2298 0.931 . S
C2314 C2308 1.383 . S
C2314 C2313 1.379 . S
H2315 C2309 0.959 . S
H2316 C2309 0.961 . S
H2317 C2309 0.960 . S
H2318 C2310 0.930 . S
H2319 C2311 0.929 . S
H2320 C2328 0.929 . S
H2321 C2330 0.930 . S
H2322 C2332 0.930 . S
H2323 C2335 0.929 . S
H2324 C2338 0.930 . S
H2325 C2340 0.960 . S
H2326 C2340 0.960 . S
H2327 C2340 0.960 . S
C2328 H2320 0.929 . S
C2328 C2329 1.377 . S
C2328 C2330 1.384 . S
C2329 C2328 1.377 . S
C2329 C2335 1.390 . S
C2330 H2321 0.930 . S
C2330 C2328 1.384 . S
C2330 C2331 1.372 . S
C2331 C2330 1.372 . S
C2331 C2332 1.400 . S
C2331 C2336 1.490 . S
C2332 H2322 0.930 . S
C2332 C2331 1.400 . S
C2332 C2335 1.386 . S
H2333 C2349 0.930 . S
H2334 C2350 0.931 . S
C2335 H2323 0.929 . S
C2335 C2329 1.390 . S
C2335 C2332 1.386 . S
C2336 C2331 1.490 . S
C2336 C2338 1.395 . S
C2336 C2339 1.403 . S
H2337 C2343 0.930 . S
C2338 H2324 0.930 . S
C2338 C2336 1.395 . S
C2338 C2341 1.403 . S
C2339 C2336 1.403 . S
C2339 C2340 1.524 . S
C2339 C2343 1.400 . S
C2340 H2325 0.960 . S
C2340 H2326 0.960 . S
C2340 H2327 0.960 . S
C2340 C2339 1.524 . S
C2341 C2338 1.403 . S
C2341 C2342 1.392 . S
C2341 C2345 1.495 . S
C2342 C2341 1.392 . S
C2342 C2343 1.385 . S
C2342 C2344 1.478 . S
C2343 H2337 0.930 . S
C2343 C2339 1.400 . S
C2343 C2342 1.385 . S
C2344 C2342 1.478 . S
C2344 C2346 1.381 . S
C2344 C2350 1.383 . S
C2345 C2341 1.495 . S
C2345 H2351 0.959 . S
C2345 H2352 0.961 . S
C2345 H2353 0.960 . S
C2346 C2344 1.381 . S
C2346 C2347 1.394 . S
C2346 H2354 0.930 . S
C2347 C2346 1.394 . S
C2347 C2348 1.383 . S
C2347 H2355 0.929 . S
C2348 C2347 1.383 . S
C2348 C2349 1.377 . S
C2349 H2333 0.930 . S
C2349 C2348 1.377 . S
C2349 C2350 1.379 . S
C2350 H2334 0.931 . S
C2350 C2344 1.383 . S
C2350 C2349 1.379 . S
H2351 C2345 0.959 . S
H2352 C2345 0.961 . S
H2353 C2345 0.960 . S
H2354 C2346 0.930 . S
H2355 C2347 0.929 . S
H2356 C2364 0.929 . S
H2357 C2366 0.930 . S
H2358 C2368 0.930 . S
H2359 C2371 0.929 . S
H2360 C2374 0.930 . S
H2361 C2376 0.960 . S
H2362 C2376 0.960 . S
H2363 C2376 0.960 . S
C2364 H2356 0.929 . S
C2364 C2365 1.377 . S
C2364 C2366 1.384 . S
C2365 C2364 1.377 . S
C2365 C2371 1.390 . S
C2366 H2357 0.930 . S
C2366 C2364 1.384 . S
C2366 C2367 1.372 . S
C2367 C2366 1.372 . S
C2367 C2368 1.400 . S
C2367 C2372 1.490 . S
C2368 H2358 0.930 . S
C2368 C2367 1.400 . S
C2368 C2371 1.386 . S
H2369 C2385 0.930 . S
H2370 C2386 0.931 . S
C2371 H2359 0.929 . S
C2371 C2365 1.390 . S
C2371 C2368 1.386 . S
C2372 C2367 1.490 . S
C2372 C2374 1.395 . S
C2372 C2375 1.403 . S
H2373 C2379 0.930 . S
C2374 H2360 0.930 . S
C2374 C2372 1.395 . S
C2374 C2377 1.403 . S
C2375 C2372 1.403 . S
C2375 C2376 1.524 . S
C2375 C2379 1.400 . S
C2376 H2361 0.960 . S
C2376 H2362 0.960 . S
C2376 H2363 0.960 . S
C2376 C2375 1.524 . S
C2377 C2374 1.403 . S
C2377 C2378 1.392 . S
C2377 C2381 1.495 . S
C2378 C2377 1.392 . S
C2378 C2379 1.385 . S
C2378 C2380 1.478 . S
C2379 H2373 0.930 . S
C2379 C2375 1.400 . S
C2379 C2378 1.385 . S
C2380 C2378 1.478 . S
C2380 C2382 1.381 . S
C2380 C2386 1.383 . S
C2381 C2377 1.495 . S
C2381 H2387 0.959 . S
C2381 H2388 0.961 . S
C2381 H2389 0.960 . S
C2382 C2380 1.381 . S
C2382 C2383 1.394 . S
C2382 H2390 0.930 . S
C2383 C2382 1.394 . S
C2383 C2384 1.383 . S
C2383 H2391 0.929 . S
C2384 C2383 1.383 . S
C2384 C2385 1.377 . S
C2385 H2369 0.930 . S
C2385 C2384 1.377 . S
C2385 C2386 1.379 . S
C2386 H2370 0.931 . S
C2386 C2380 1.383 . S
C2386 C2385 1.379 . S
H2387 C2381 0.959 . S
H2388 C2381 0.961 . S
H2389 C2381 0.960 . S
H2390 C2382 0.930 . S
H2391 C2383 0.929 . S
H2392 C2400 0.929 . S
H2393 C2402 0.930 . S
H2394 C2404 0.930 . S
H2395 C2407 0.929 . S
H2396 C2410 0.930 . S
H2397 C2412 0.960 . S
H2398 C2412 0.960 . S
H2399 C2412 0.960 . S
C2400 H2392 0.929 . S
C2400 C2401 1.377 . S
C2400 C2402 1.384 . S
C2401 C2400 1.377 . S
C2401 C2407 1.390 . S
C2402 H2393 0.930 . S
C2402 C2400 1.384 . S
C2402 C2403 1.372 . S
C2403 C2402 1.372 . S
C2403 C2404 1.400 . S
C2403 C2408 1.490 . S
C2404 H2394 0.930 . S
C2404 C2403 1.400 . S
C2404 C2407 1.386 . S
H2405 C2421 0.930 . S
H2406 C2422 0.931 . S
C2407 H2395 0.929 . S
C2407 C2401 1.390 . S
C2407 C2404 1.386 . S
C2408 C2403 1.490 . S
C2408 C2410 1.395 . S
C2408 C2411 1.403 . S
H2409 C2415 0.930 . S
C2410 H2396 0.930 . S
C2410 C2408 1.395 . S
C2410 C2413 1.403 . S
C2411 C2408 1.403 . S
C2411 C2412 1.524 . S
C2411 C2415 1.400 . S
C2412 H2397 0.960 . S
C2412 H2398 0.960 . S
C2412 H2399 0.960 . S
C2412 C2411 1.524 . S
C2413 C2410 1.403 . S
C2413 C2414 1.392 . S
C2413 C2417 1.495 . S
C2414 C2413 1.392 . S
C2414 C2415 1.385 . S
C2414 C2416 1.478 . S
C2415 H2409 0.930 . S
C2415 C2411 1.400 . S
C2415 C2414 1.385 . S
C2416 C2414 1.478 . S
C2416 C2418 1.381 . S
C2416 C2422 1.383 . S
C2417 C2413 1.495 . S
C2417 H2423 0.959 . S
C2417 H2424 0.961 . S
C2417 H2425 0.960 . S
C2418 C2416 1.381 . S
C2418 C2419 1.394 . S
C2418 H2426 0.930 . S
C2419 C2418 1.394 . S
C2419 C2420 1.383 . S
C2419 H2427 0.929 . S
C2420 C2419 1.383 . S
C2420 C2421 1.377 . S
C2421 H2405 0.930 . S
C2421 C2420 1.377 . S
C2421 C2422 1.379 . S
C2422 H2406 0.931 . S
C2422 C2416 1.383 . S
C2422 C2421 1.379 . S
H2423 C2417 0.959 . S
H2424 C2417 0.961 . S
H2425 C2417 0.960 . S
H2426 C2418 0.930 . S
H2427 C2419 0.929 . S
H2428 C2436 0.929 . S
H2429 C2438 0.930 . S
H2430 C2440 0.930 . S
H2431 C2443 0.929 . S
H2432 C2446 0.930 . S
H2433 C2448 0.960 . S
H2434 C2448 0.960 . S
H2435 C2448 0.960 . S
C2436 H2428 0.929 . S
C2436 C2437 1.377 . S
C2436 C2438 1.384 . S
C2437 C2436 1.377 . S
C2437 C2443 1.390 . S
C2438 H2429 0.930 . S
C2438 C2436 1.384 . S
C2438 C2439 1.372 . S
C2439 C2438 1.372 . S
C2439 C2440 1.400 . S
C2439 C2444 1.490 . S
C2440 H2430 0.930 . S
C2440 C2439 1.400 . S
C2440 C2443 1.386 . S
H2441 C2457 0.930 . S
H2442 C2458 0.931 . S
C2443 H2431 0.929 . S
C2443 C2437 1.390 . S
C2443 C2440 1.386 . S
C2444 C2439 1.490 . S
C2444 C2446 1.395 . S
C2444 C2447 1.403 . S
H2445 C2451 0.930 . S
C2446 H2432 0.930 . S
C2446 C2444 1.395 . S
C2446 C2449 1.403 . S
C2447 C2444 1.403 . S
C2447 C2448 1.524 . S
C2447 C2451 1.400 . S
C2448 H2433 0.960 . S
C2448 H2434 0.960 . S
C2448 H2435 0.960 . S
C2448 C2447 1.524 . S
C2449 C2446 1.403 . S
C2449 C2450 1.392 . S
C2449 C2453 1.495 . S
C2450 C2449 1.392 . S
C2450 C2451 1.385 . S
C2450 C2452 1.478 . S
C2451 H2445 0.930 . S
C2451 C2447 1.400 . S
C2451 C2450 1.385 . S
C2452 C2450 1.478 . S
C2452 C2454 1.381 . S
C2452 C2458 1.383 . S
C2453 C2449 1.495 . S
C2453 H2459 0.959 . S
C2453 H2460 0.961 . S
C2453 H2461 0.960 . S
C2454 C2452 1.381 . S
C2454 C2455 1.394 . S
C2454 H2462 0.930 . S
C2455 C2454 1.394 . S
C2455 C2456 1.383 . S
C2455 H2463 0.929 . S
C2456 C2455 1.383 . S
C2456 C2457 1.377 . S
C2457 H2441 0.930 . S
C2457 C2456 1.377 . S
C2457 C2458 1.379 . S
C2458 H2442 0.931 . S
C2458 C2452 1.383 . S
C2458 C2457 1.379 . S
H2459 C2453 0.959 . S
H2460 C2453 0.961 . S
H2461 C2453 0.960 . S
H2462 C2454 0.930 . S
H2463 C2455 0.929 . S
H2464 C2472 0.929 . S
H2465 C2474 0.930 . S
H2466 C2476 0.930 . S
H2467 C2479 0.929 . S
H2468 C2482 0.930 . S
H2469 C2484 0.960 . S
H2470 C2484 0.960 . S
H2471 C2484 0.960 . S
C2472 H2464 0.929 . S
C2472 C2473 1.377 . S
C2472 C2474 1.384 . S
C2473 C2472 1.377 . S
C2473 C2479 1.390 . S
C2474 H2465 0.930 . S
C2474 C2472 1.384 . S
C2474 C2475 1.372 . S
C2475 C2474 1.372 . S
C2475 C2476 1.400 . S
C2475 C2480 1.490 . S
C2476 H2466 0.930 . S
C2476 C2475 1.400 . S
C2476 C2479 1.386 . S
H2477 C2493 0.930 . S
H2478 C2494 0.931 . S
C2479 H2467 0.929 . S
C2479 C2473 1.390 . S
C2479 C2476 1.386 . S
C2480 C2475 1.490 . S
C2480 C2482 1.395 . S
C2480 C2483 1.403 . S
H2481 C2487 0.930 . S
C2482 H2468 0.930 . S
C2482 C2480 1.395 . S
C2482 C2485 1.403 . S
C2483 C2480 1.403 . S
C2483 C2484 1.524 . S
C2483 C2487 1.400 . S
C2484 H2469 0.960 . S
C2484 H2470 0.960 . S
C2484 H2471 0.960 . S
C2484 C2483 1.524 . S
C2485 C2482 1.403 . S
C2485 C2486 1.392 . S
C2485 C2489 1.495 . S
C2486 C2485 1.392 . S
C2486 C2487 1.385 . S
C2486 C2488 1.478 . S
C2487 H2481 0.930 . S
C2487 C2483 1.400 . S
C2487 C2486 1.385 . S
C2488 C2486 1.478 . S
C2488 C2490 1.381 . S
C2488 C2494 1.383 . S
C2489 C2485 1.495 . S
C2489 H2495 0.959 . S
C2489 H2496 0.961 . S
C2489 H2497 0.960 . S
C2490 C2488 1.381 . S
C2490 C2491 1.394 . S
C2490 H2498 0.930 . S
C2491 C2490 1.394 . S
C2491 C2492 1.383 . S
C2491 H2499 0.929 . S
C2492 C2491 1.383 . S
C2492 C2493 1.377 . S
C2493 H2477 0.930 . S
C2493 C2492 1.377 . S
C2493 C2494 1.379 . S
C2494 H2478 0.931 . S
C2494 C2488 1.383 . S
C2494 C2493 1.379 . S
H2495 C2489 0.959 . S
H2496 C2489 0.961 . S
H2497 C2489 0.960 . S
H2498 C2490 0.930 . S
H2499 C2491 0.929 . S
H2500 C2508 0.929 . S
H2501 C2510 0.930 . S
H2502 C2512 0.930 . S
H2503 C2515 0.929 . S
H2504 C2518 0.930 . S
H2505 C2520 0.960 . S
H2506 C2520 0.960 . S
H2507 C2520 0.960 . S
C2508 H2500 0.929 . S
C2508 C2509 1.377 . S
C2508 C2510 1.384 . S
C2509 C2508 1.377 . S
C2509 C2515 1.390 . S
C2510 H2501 0.930 . S
C2510 C2508 1.384 . S
C2510 C2511 1.372 . S
C2511 C2510 1.372 . S
C2511 C2512 1.400 . S
C2511 C2516 1.490 . S
C2512 H2502 0.930 . S
C2512 C2511 1.400 . S
C2512 C2515 1.386 . S
H2513 C2529 0.930 . S
H2514 C2530 0.931 . S
C2515 H2503 0.929 . S
C2515 C2509 1.390 . S
C2515 C2512 1.386 . S
C2516 C2511 1.490 . S
C2516 C2518 1.395 . S
C2516 C2519 1.403 . S
H2517 C2523 0.930 . S
C2518 H2504 0.930 . S
C2518 C2516 1.395 . S
C2518 C2521 1.403 . S
C2519 C2516 1.403 . S
C2519 C2520 1.524 . S
C2519 C2523 1.400 . S
C2520 H2505 0.960 . S
C2520 H2506 0.960 . S
C2520 H2507 0.960 . S
C2520 C2519 1.524 . S
C2521 C2518 1.403 . S
C2521 C2522 1.392 . S
C2521 C2525 1.495 . S
C2522 C2521 1.392 . S
C2522 C2523 1.385 . S
C2522 C2524 1.478 . S
C2523 H2517 0.930 . S
C2523 C2519 1.400 . S
C2523 C2522 1.385 . S
C2524 C2522 1.478 . S
C2524 C2526 1.381 . S
C2524 C2530 1.383 . S
C2525 C2521 1.495 . S
C2525 H2531 0.959 . S
C2525 H2532 0.961 . S
C2525 H2533 0.960 . S
C2526 C2524 1.381 . S
C2526 C2527 1.394 . S
C2526 H2534 0.930 . S
C2527 C2526 1.394 . S
C2527 C2528 1.383 . S
C2527 H2535 0.929 . S
C2528 C2527 1.383 . S
C2528 C2529 1.377 . S
C2529 H2513 0.930 . S
C2529 C2528 1.377 . S
C2529 C2530 1.379 . S
C2530 H2514 0.931 . S
C2530 C2524 1.383 . S
C2530 C2529 1.379 . S
H2531 C2525 0.959 . S
H2532 C2525 0.961 . S
H2533 C2525 0.960 . S
H2534 C2526 0.930 . S
H2535 C2527 0.929 . S
H2536 C2544 0.929 . S
H2537 C2546 0.930 . S
H2538 C2548 0.930 . S
H2539 C2551 0.929 . S
H2540 C2554 0.930 . S
H2541 C2556 0.960 . S
H2542 C2556 0.960 . S
H2543 C2556 0.960 . S
C2544 H2536 0.929 . S
C2544 C2545 1.377 . S
C2544 C2546 1.384 . S
C2545 C2544 1.377 . S
C2545 C2551 1.390 . S
C2546 H2537 0.930 . S
C2546 C2544 1.384 . S
C2546 C2547 1.372 . S
C2547 C2546 1.372 . S
C2547 C2548 1.400 . S
C2547 C2552 1.490 . S
C2548 H2538 0.930 . S
C2548 C2547 1.400 . S
C2548 C2551 1.386 . S
H2549 C2565 0.930 . S
H2550 C2566 0.931 . S
C2551 H2539 0.929 . S
C2551 C2545 1.390 . S
C2551 C2548 1.386 . S
C2552 C2547 1.490 . S
C2552 C2554 1.395 . S
C2552 C2555 1.403 . S
H2553 C2559 0.930 . S
C2554 H2540 0.930 . S
C2554 C2552 1.395 . S
C2554 C2557 1.403 . S
C2555 C2552 1.403 . S
C2555 C2556 1.524 . S
C2555 C2559 1.400 . S
C2556 H2541 0.960 . S
C2556 H2542 0.960 . S
C2556 H2543 0.960 . S
C2556 C2555 1.524 . S
C2557 C2554 1.403 . S
C2557 C2558 1.392 . S
C2557 C2561 1.495 . S
C2558 C2557 1.392 . S
C2558 C2559 1.385 . S
C2558 C2560 1.478 . S
C2559 H2553 0.930 . S
C2559 C2555 1.400 . S
C2559 C2558 1.385 . S
C2560 C2558 1.478 . S
C2560 C2562 1.381 . S
C2560 C2566 1.383 . S
C2561 C2557 1.495 . S
C2561 H2567 0.959 . S
C2561 H2568 0.961 . S
C2561 H2569 0.960 . S
C2562 C2560 1.381 . S
C2562 C2563 1.394 . S
C2562 H2570 0.930 . S
C2563 C2562 1.394 . S
C2563 C2564 1.383 . S
C2563 H2571 0.929 . S
C2564 C2563 1.383 . S
C2564 C2565 1.377 . S
C2565 H2549 0.930 . S
C2565 C2564 1.377 . S
C2565 C2566 1.379 . S
C2566 H2550 0.931 . S
C2566 C2560 1.383 . S
C2566 C2565 1.379 . S
H2567 C2561 0.959 . S
H2568 C2561 0.961 . S
H2569 C2561 0.960 . S
H2570 C2562 0.930 . S
H2571 C2563 0.929 . S
H2572 C2580 0.929 . S
H2573 C2582 0.930 . S
H2574 C2584 0.930 . S
H2575 C2587 0.929 . S
H2576 C2590 0.930 . S
H2577 C2592 0.960 . S
H2578 C2592 0.960 . S
H2579 C2592 0.960 . S
C2580 H2572 0.929 . S
C2580 C2581 1.377 . S
C2580 C2582 1.384 . S
C2581 C2580 1.377 . S
C2581 C2587 1.390 . S
C2582 H2573 0.930 . S
C2582 C2580 1.384 . S
C2582 C2583 1.372 . S
C2583 C2582 1.372 . S
C2583 C2584 1.400 . S
C2583 C2588 1.490 . S
C2584 H2574 0.930 . S
C2584 C2583 1.400 . S
C2584 C2587 1.386 . S
H2585 C2601 0.930 . S
H2586 C2602 0.931 . S
C2587 H2575 0.929 . S
C2587 C2581 1.390 . S
C2587 C2584 1.386 . S
C2588 C2583 1.490 . S
C2588 C2590 1.395 . S
C2588 C2591 1.403 . S
H2589 C2595 0.930 . S
C2590 H2576 0.930 . S
C2590 C2588 1.395 . S
C2590 C2593 1.403 . S
C2591 C2588 1.403 . S
C2591 C2592 1.524 . S
C2591 C2595 1.400 . S
C2592 H2577 0.960 . S
C2592 H2578 0.960 . S
C2592 H2579 0.960 . S
C2592 C2591 1.524 . S
C2593 C2590 1.403 . S
C2593 C2594 1.392 . S
C2593 C2597 1.495 . S
C2594 C2593 1.392 . S
C2594 C2595 1.385 . S
C2594 C2596 1.478 . S
C2595 H2589 0.930 . S
C2595 C2591 1.400 . S
C2595 C2594 1.385 . S
C2596 C2594 1.478 . S
C2596 C2598 1.381 . S
C2596 C2602 1.383 . S
C2597 C2593 1.495 . S
C2597 H2603 0.959 . S
C2597 H2604 0.961 . S
C2597 H2605 0.960 . S
C2598 C2596 1.381 . S
C2598 C2599 1.394 . S
C2598 H2606 0.930 . S
C2599 C2598 1.394 . S
C2599 C2600 1.383 . S
C2599 H2607 0.929 . S
C2600 C2599 1.383 . S
C2600 C2601 1.377 . S
C2601 H2585 0.930 . S
C2601 C2600 1.377 . S
C2601 C2602 1.379 . S
C2602 H2586 0.931 . S
C2602 C2596 1.383 . S
C2602 C2601 1.379 . S
H2603 C2597 0.959 . S
H2604 C2597 0.961 . S
H2605 C2597 0.960 . S
H2606 C2598 0.930 . S
H2607 C2599 0.929 . S
H2608 C2616 0.929 . S
H2609 C2618 0.930 . S
H2610 C2620 0.930 . S
H2611 C2623 0.929 . S
H2612 C2626 0.930 . S
H2613 C2628 0.960 . S
H2614 C2628 0.960 . S
H2615 C2628 0.960 . S
C2616 H2608 0.929 . S
C2616 C2617 1.377 . S
C2616 C2618 1.384 . S
C2617 C2616 1.377 . S
C2617 C2623 1.390 . S
C2618 H2609 0.930 . S
C2618 C2616 1.384 . S
C2618 C2619 1.372 . S
C2619 C2618 1.372 . S
C2619 C2620 1.400 . S
C2619 C2624 1.490 . S
C2620 H2610 0.930 . S
C2620 C2619 1.400 . S
C2620 C2623 1.386 . S
H2621 C2637 0.930 . S
H2622 C2638 0.931 . S
C2623 H2611 0.929 . S
C2623 C2617 1.390 . S
C2623 C2620 1.386 . S
C2624 C2619 1.490 . S
C2624 C2626 1.395 . S
C2624 C2627 1.403 . S
H2625 C2631 0.930 . S
C2626 H2612 0.930 . S
C2626 C2624 1.395 . S
C2626 C2629 1.403 . S
C2627 C2624 1.403 . S
C2627 C2628 1.524 . S
C2627 C2631 1.400 . S
C2628 H2613 0.960 . S
C2628 H2614 0.960 . S
C2628 H2615 0.960 . S
C2628 C2627 1.524 . S
C2629 C2626 1.403 . S
C2629 C2630 1.392 . S
C2629 C2633 1.495 . S
C2630 C2629 1.392 . S
C2630 C2631 1.385 . S
C2630 C2632 1.478 . S
C2631 H2625 0.930 . S
C2631 C2627 1.400 . S
C2631 C2630 1.385 . S
C2632 C2630 1.478 . S
C2632 C2634 1.381 . S
C2632 C2638 1.383 . S
C2633 C2629 1.495 . S
C2633 H2639 0.959 . S
C2633 H2640 0.961 . S
C2633 H2641 0.960 . S
C2634 C2632 1.381 . S
C2634 C2635 1.394 . S
C2634 H2642 0.930 . S
C2635 C2634 1.394 . S
C2635 C2636 1.383 . S
C2635 H2643 0.929 . S
C2636 C2635 1.383 . S
C2636 C2637 1.377 . S
C2637 H2621 0.930 . S
C2637 C2636 1.377 . S
C2637 C2638 1.379 . S
C2638 H2622 0.931 . S
C2638 C2632 1.383 . S
C2638 C2637 1.379 . S
H2639 C2633 0.959 . S
H2640 C2633 0.961 . S
H2641 C2633 0.960 . S
H2642 C2634 0.930 . S
H2643 C2635 0.929 . S
H2644 C2652 0.929 . S
H2645 C2654 0.930 . S
H2646 C2656 0.930 . S
H2647 C2659 0.929 . S
H2648 C2662 0.930 . S
H2649 C2664 0.960 . S
H2650 C2664 0.960 . S
H2651 C2664 0.960 . S
C2652 H2644 0.929 . S
C2652 C2653 1.377 . S
C2652 C2654 1.384 . S
C2653 C2652 1.377 . S
C2653 C2659 1.390 . S
C2654 H2645 0.930 . S
C2654 C2652 1.384 . S
C2654 C2655 1.372 . S
C2655 C2654 1.372 . S
C2655 C2656 1.400 . S
C2655 C2660 1.490 . S
C2656 H2646 0.930 . S
C2656 C2655 1.400 . S
C2656 C2659 1.386 . S
H2657 C2673 0.930 . S
H2658 C2674 0.931 . S
C2659 H2647 0.929 . S
C2659 C2653 1.390 . S
C2659 C2656 1.386 . S
C2660 C2655 1.490 . S
C2660 C2662 1.395 . S
C2660 C2663 1.403 . S
H2661 C2667 0.930 . S
C2662 H2648 0.930 . S
C2662 C2660 1.395 . S
C2662 C2665 1.403 . S
C2663 C2660 1.403 . S
C2663 C2664 1.524 . S
C2663 C2667 1.400 . S
C2664 H2649 0.960 . S
C2664 H2650 0.960 . S
C2664 H2651 0.960 . S
C2664 C2663 1.524 . S
C2665 C2662 1.403 . S
C2665 C2666 1.392 . S
C2665 C2669 1.495 . S
C2666 C2665 1.392 . S
C2666 C2667 1.385 . S
C2666 C2668 1.478 . S
C2667 H2661 0.930 . S
C2667 C2663 1.400 . S
C2667 C2666 1.385 . S
C2668 C2666 1.478 . S
C2668 C2670 1.381 . S
C2668 C2674 1.383 . S
C2669 C2665 1.495 . S
C2669 H2675 0.959 . S
C2669 H2676 0.961 . S
C2669 H2677 0.960 . S
C2670 C2668 1.381 . S
C2670 C2671 1.394 . S
C2670 H2678 0.930 . S
C2671 C2670 1.394 . S
C2671 C2672 1.383 . S
C2671 H2679 0.929 . S
C2672 C2671 1.383 . S
C2672 C2673 1.377 . S
C2673 H2657 0.930 . S
C2673 C2672 1.377 . S
C2673 C2674 1.379 . S
C2674 H2658 0.931 . S
C2674 C2668 1.383 . S
C2674 C2673 1.379 . S
H2675 C2669 0.959 . S
H2676 C2669 0.961 . S
H2677 C2669 0.960 . S
H2678 C2670 0.930 . S
H2679 C2671 0.929 . S
H2680 C2688 0.929 . S
H2681 C2690 0.930 . S
H2682 C2692 0.930 . S
H2683 C2695 0.929 . S
H2684 C2698 0.930 . S
H2685 C2700 0.960 . S
H2686 C2700 0.960 . S
H2687 C2700 0.960 . S
C2688 H2680 0.929 . S
C2688 C2689 1.377 . S
C2688 C2690 1.384 . S
C2689 C2688 1.377 . S
C2689 C2695 1.390 . S
C2690 H2681 0.930 . S
C2690 C2688 1.384 . S
C2690 C2691 1.372 . S
C2691 C2690 1.372 . S
C2691 C2692 1.400 . S
C2691 C2696 1.490 . S
C2692 H2682 0.930 . S
C2692 C2691 1.400 . S
C2692 C2695 1.386 . S
H2693 C2709 0.930 . S
H2694 C2710 0.931 . S
C2695 H2683 0.929 . S
C2695 C2689 1.390 . S
C2695 C2692 1.386 . S
C2696 C2691 1.490 . S
C2696 C2698 1.395 . S
C2696 C2699 1.403 . S
H2697 C2703 0.930 . S
C2698 H2684 0.930 . S
C2698 C2696 1.395 . S
C2698 C2701 1.403 . S
C2699 C2696 1.403 . S
C2699 C2700 1.524 . S
C2699 C2703 1.400 . S
C2700 H2685 0.960 . S
C2700 H2686 0.960 . S
C2700 H2687 0.960 . S
C2700 C2699 1.524 . S
C2701 C2698 1.403 . S
C2701 C2702 1.392 . S
C2701 C2705 1.495 . S
C2702 C2701 1.392 . S
C2702 C2703 1.385 . S
C2702 C2704 1.478 . S
C2703 H2697 0.930 . S
C2703 C2699 1.400 . S
C2703 C2702 1.385 . S
C2704 C2702 1.478 . S
C2704 C2706 1.381 . S
C2704 C2710 1.383 . S
C2705 C2701 1.495 . S
C2705 H2711 0.959 . S
C2705 H2712 0.961 . S
C2705 H2713 0.960 . S
C2706 C2704 1.381 . S
C2706 C2707 1.394 . S
C2706 H2714 0.930 . S
C2707 C2706 1.394 . S
C2707 C2708 1.383 . S
C2707 H2715 0.929 . S
C2708 C2707 1.383 . S
C2708 C2709 1.377 . S
C2709 H2693 0.930 . S
C2709 C2708 1.377 . S
C2709 C2710 1.379 . S
C2710 H2694 0.931 . S
C2710 C2704 1.383 . S
C2710 C2709 1.379 . S
H2711 C2705 0.959 . S
H2712 C2705 0.961 . S
H2713 C2705 0.960 . S
H2714 C2706 0.930 . S
H2715 C2707 0.929 . S
H2716 C2724 0.929 . S
H2717 C2726 0.930 . S
H2718 C2728 0.930 . S
H2719 C2731 0.929 . S
H2720 C2734 0.930 . S
H2721 C2736 0.960 . S
H2722 C2736 0.960 . S
H2723 C2736 0.960 . S
C2724 H2716 0.929 . S
C2724 C2725 1.377 . S
C2724 C2726 1.384 . S
C2725 C2724 1.377 . S
C2725 C2731 1.390 . S
C2726 H2717 0.930 . S
C2726 C2724 1.384 . S
C2726 C2727 1.372 . S
C2727 C2726 1.372 . S
C2727 C2728 1.400 . S
C2727 C2732 1.490 . S
C2728 H2718 0.930 . S
C2728 C2727 1.400 . S
C2728 C2731 1.386 . S
H2729 C2745 0.930 . S
H2730 C2746 0.931 . S
C2731 H2719 0.929 . S
C2731 C2725 1.390 . S
C2731 C2728 1.386 . S
C2732 C2727 1.490 . S
C2732 C2734 1.395 . S
C2732 C2735 1.403 . S
H2733 C2739 0.930 . S
C2734 H2720 0.930 . S
C2734 C2732 1.395 . S
C2734 C2737 1.403 . S
C2735 C2732 1.403 . S
C2735 C2736 1.524 . S
C2735 C2739 1.400 . S
C2736 H2721 0.960 . S
C2736 H2722 0.960 . S
C2736 H2723 0.960 . S
C2736 C2735 1.524 . S
C2737 C2734 1.403 . S
C2737 C2738 1.392 . S
C2737 C2741 1.495 . S
C2738 C2737 1.392 . S
C2738 C2739 1.385 . S
C2738 C2740 1.478 . S
C2739 H2733 0.930 . S
C2739 C2735 1.400 . S
C2739 C2738 1.385 . S
C2740 C2738 1.478 . S
C2740 C2742 1.381 . S
C2740 C2746 1.383 . S
C2741 C2737 1.495 . S
C2741 H2747 0.959 . S
C2741 H2748 0.961 . S
C2741 H2749 0.960 . S
C2742 C2740 1.381 . S
C2742 C2743 1.394 . S
C2742 H2750 0.930 . S
C2743 C2742 1.394 . S
C2743 C2744 1.383 . S
C2743 H2751 0.929 . S
C2744 C2743 1.383 . S
C2744 C2745 1.377 . S
C2745 H2729 0.930 . S
C2745 C2744 1.377 . S
C2745 C2746 1.379 . S
C2746 H2730 0.931 . S
C2746 C2740 1.383 . S
C2746 C2745 1.379 . S
H2747 C2741 0.959 . S
H2748 C2741 0.961 . S
H2749 C2741 0.960 . S
H2750 C2742 0.930 . S
H2751 C2743 0.929 . S
C457 C149 1.207 . S
C476 C9 1.236 . S
C493 C23 1.210 . S
C512 C163 1.229 . S
C529 C37 1.210 . S
C548 C121 1.173 . S
C565 C135 1.215 . S
C584 C51 1.197 . S
C601 C199 1.104 . S
C620 C59 1.129 . S
C637 C73 1.110 . S
C656 C213 1.124 . S
C673 C171 1.104 . S
C692 C87 1.131 . S
C709 C185 1.108 . S
C728 C101 1.128 . S
C745 C373 1.203 . S
C764 C233 1.193 . S
C781 C387 1.205 . S
C800 C247 1.237 . S
C817 C345 1.204 . S
C836 C261 1.189 . S
C853 C275 1.208 . S
C872 C359 1.235 . S
C889 C423 1.105 . S
C908 C283 1.097 . S
C925 C437 1.103 . S
C944 C297 1.127 . S
C961 C311 1.109 . S
C980 C395 1.083 . S
C997 C325 1.104 . S
C1016 C409 1.110 . S
C1033 C269 1.351 . S
C1052 C3 1.345 . S
C1069 C17 1.349 . S
C1088 C255 1.345 . S
C1105 C241 1.350 . S
C1124 C31 1.353 . S
C1141 C227 1.349 . S
C1160 C45 1.348 . S
C1177 C65 1.139 . S
C1196 C331 1.146 . S
C1213 C79 1.139 . S
C1232 C317 1.127 . S
C1249 C303 1.139 . S
C1268 C93 1.132 . S
C1285 C107 1.135 . S
C1304 C289 1.139 . S
C1321 C381 1.351 . S
C1340 C115 1.351 . S
C1357 C367 1.349 . S
C1376 C129 1.348 . S
C1393 C353 1.349 . S
C1412 C143 1.346 . S
C1429 C339 1.351 . S
C1448 C157 1.347 . S
C1465 C177 1.134 . S
C1484 C443 1.133 . S
C1501 C429 1.140 . S
C1520 C191 1.138 . S
C1537 C205 1.140 . S
C1556 C415 1.140 . S
C1573 C219 1.140 . S
C1592 C401 1.139 . S
C1609 C175 1.279 . S
C1628 C8 1.282 . S
C1645 C22 1.261 . S
C1664 C301 1.280 . S
C1681 C91 1.277 . S
C1700 C36 1.248 . S
C1717 C441 1.276 . S
C1736 C50 1.267 . S
C1753 C63 1.280 . S
C1772 C120 1.244 . S
C1789 C246 1.261 . S
C1808 C77 1.280 . S
C1825 C386 1.261 . S
C1844 C105 1.282 . S
C1861 C413 1.278 . S
C1880 C134 1.280 . S
C1897 C148 1.267 . S
C1916 C203 1.277 . S
C1933 C329 1.278 . S
C1952 C162 1.244 . S
C1969 C358 1.262 . S
C1988 C189 1.275 . S
C2005 C217 1.278 . S
C2024 C274 1.242 . S
C2041 C232 1.266 . S
C2060 C399 1.283 . S
C2077 C315 1.279 . S
C2096 C260 1.263 . S
C2113 C344 1.268 . S
C2132 C287 1.279 . S
C2149 C372 1.268 . S
C2168 C427 1.271 . S
C2185 C7 0.975 . S
C2204 C49 1.002 . S
C2221 C35 0.984 . S
C2240 C21 1.009 . S
C2257 C64 0.731 . S
C2276 C106 0.734 . S
C2293 C78 0.728 . S
C2312 C92 0.688 . S
C2329 C119 0.973 . S
C2348 C161 0.969 . S
C2365 C133 0.973 . S
C2384 C147 0.972 . S
C2401 C176 0.732 . S
C2420 C218 0.705 . S
C2437 C204 0.732 . S
C2456 C190 0.715 . S
C2473 C273 0.974 . S
C2492 C231 0.994 . S
C2509 C259 0.979 . S
C2528 C245 1.012 . S
C2545 C330 0.720 . S
C2564 C288 0.759 . S
C2581 C316 0.722 . S
C2600 C302 0.761 . S
C2617 C385 0.974 . S
C2636 C343 0.996 . S
C2653 C371 0.986 . S
C2672 C357 0.965 . S
C2689 C400 0.732 . S
C2708 C442 0.702 . S
C2725 C428 0.722 . S
C2744 C414 0.693 . S
