# Generated by pormake.
# Topology swf, (7)-cn, num edge types: 1
# Building blocks:
#     Node 0, Type 0, BuildingBlock: NUHQUE_clean_sbu_2, # of connection points: 7
#     Node 1, Type 0, BuildingBlock: NUHQUE_clean_sbu_2, # of connection points: 7
#     Node 2, Type 0, BuildingBlock: NUHQUE_clean_sbu_2, # of connection points: 7
#     Node 3, Type 0, BuildingBlock: NUHQUE_clean_sbu_2, # of connection points: 7
#     Node 4, Type 0, BuildingBlock: NUHQUE_clean_sbu_2, # of connection points: 7
#     Node 5, Type 0, BuildingBlock: NUHQUE_clean_sbu_2, # of connection points: 7
#     Node 6, Type 0, BuildingBlock: NUHQUE_clean_sbu_2, # of connection points: 7
#     Node 7, Type 0, BuildingBlock: NUHQUE_clean_sbu_2, # of connection points: 7
#     Node 8, Type 0, BuildingBlock: NUHQUE_clean_sbu_2, # of connection points: 7
#     Node 9, Type 0, BuildingBlock: NUHQUE_clean_sbu_2, # of connection points: 7
#     Node 10, Type 0, BuildingBlock: NUHQUE_clean_sbu_2, # of connection points: 7
#     Node 11, Type 0, BuildingBlock: NUHQUE_clean_sbu_2, # of connection points: 7
#     Edge 12, Type (0, 0), BuildingBlock: XIVTED_clean_linker_0, # of connection points: 2
#     Edge 13, Type (0, 0), BuildingBlock: XIVTED_clean_linker_0, # of connection points: 2
#     Edge 14, Type (0, 0), BuildingBlock: XIVTED_clean_linker_0, # of connection points: 2
#     Edge 15, Type (0, 0), BuildingBlock: XIVTED_clean_linker_0, # of connection points: 2
#     Edge 16, Type (0, 0), BuildingBlock: XIVTED_clean_linker_0, # of connection points: 2
#     Edge 17, Type (0, 0), BuildingBlock: XIVTED_clean_linker_0, # of connection points: 2
#     Edge 18, Type (0, 0), BuildingBlock: XIVTED_clean_linker_0, # of connection points: 2
#     Edge 19, Type (0, 0), BuildingBlock: XIVTED_clean_linker_0, # of connection points: 2
#     Edge 20, Type (0, 0), BuildingBlock: XIVTED_clean_linker_0, # of connection points: 2
#     Edge 21, Type (0, 0), BuildingBlock: XIVTED_clean_linker_0, # of connection points: 2
#     Edge 22, Type (0, 0), BuildingBlock: XIVTED_clean_linker_0, # of connection points: 2
#     Edge 23, Type (0, 0), BuildingBlock: XIVTED_clean_linker_0, # of connection points: 2
#     Edge 24, Type (0, 0), BuildingBlock: XIVTED_clean_linker_0, # of connection points: 2
#     Edge 25, Type (0, 0), BuildingBlock: XIVTED_clean_linker_0, # of connection points: 2
#     Edge 26, Type (0, 0), BuildingBlock: XIVTED_clean_linker_0, # of connection points: 2
#     Edge 27, Type (0, 0), BuildingBlock: XIVTED_clean_linker_0, # of connection points: 2
#     Edge 28, Type (0, 0), BuildingBlock: XIVTED_clean_linker_0, # of connection points: 2
#     Edge 29, Type (0, 0), BuildingBlock: XIVTED_clean_linker_0, # of connection points: 2
#     Edge 30, Type (0, 0), BuildingBlock: XIVTED_clean_linker_0, # of connection points: 2
#     Edge 31, Type (0, 0), BuildingBlock: XIVTED_clean_linker_0, # of connection points: 2
#     Edge 32, Type (0, 0), BuildingBlock: XIVTED_clean_linker_0, # of connection points: 2
#     Edge 33, Type (0, 0), BuildingBlock: XIVTED_clean_linker_0, # of connection points: 2
#     Edge 34, Type (0, 0), BuildingBlock: XIVTED_clean_linker_0, # of connection points: 2
#     Edge 35, Type (0, 0), BuildingBlock: XIVTED_clean_linker_0, # of connection points: 2
#     Edge 36, Type (0, 0), BuildingBlock: XIVTED_clean_linker_0, # of connection points: 2
#     Edge 37, Type (0, 0), BuildingBlock: XIVTED_clean_linker_0, # of connection points: 2
#     Edge 38, Type (0, 0), BuildingBlock: XIVTED_clean_linker_0, # of connection points: 2
#     Edge 39, Type (0, 0), BuildingBlock: XIVTED_clean_linker_0, # of connection points: 2
#     Edge 40, Type (0, 0), BuildingBlock: XIVTED_clean_linker_0, # of connection points: 2
#     Edge 41, Type (0, 0), BuildingBlock: XIVTED_clean_linker_0, # of connection points: 2
#     Edge 42, Type (0, 0), BuildingBlock: XIVTED_clean_linker_0, # of connection points: 2
#     Edge 43, Type (0, 0), BuildingBlock: XIVTED_clean_linker_0, # of connection points: 2
#     Edge 44, Type (0, 0), BuildingBlock: XIVTED_clean_linker_0, # of connection points: 2
#     Edge 45, Type (0, 0), BuildingBlock: XIVTED_clean_linker_0, # of connection points: 2
#     Edge 46, Type (0, 0), BuildingBlock: XIVTED_clean_linker_0, # of connection points: 2
#     Edge 47, Type (0, 0), BuildingBlock: XIVTED_clean_linker_0, # of connection points: 2
#     Edge 48, Type (0, 0), BuildingBlock: XIVTED_clean_linker_0, # of connection points: 2
#     Edge 49, Type (0, 0), BuildingBlock: XIVTED_clean_linker_0, # of connection points: 2
#     Edge 50, Type (0, 0), BuildingBlock: XIVTED_clean_linker_0, # of connection points: 2
#     Edge 51, Type (0, 0), BuildingBlock: XIVTED_clean_linker_0, # of connection points: 2
#     Edge 52, Type (0, 0), BuildingBlock: XIVTED_clean_linker_0, # of connection points: 2
#     Edge 53, Type (0, 0), BuildingBlock: XIVTED_clean_linker_0, # of connection points: 2
# Relax obj value: 0.261
# Max RMSD: 0.208
# Mean RMSD: 0.208
data_MOF--net-swf--node1-NUHQUE_clean_sbu_2--edge1-XIVTED_clean_linker_0
_symmetry_space_group_name_H-M    P1
_symmetry_Int_Tables_number       1
_symmetry_cell_setting            triclinic
loop_
_symmetry_equiv_pos_as_xyz
'x, y, z'
_cell_length_a     67.586689
_cell_length_b     67.743488
_cell_length_c     22.183387
_cell_angle_alpha  90.264547
_cell_angle_beta   89.98121
_cell_angle_gamma 120.15674
loop_
_atom_site_label
_atom_site_type_symbol
_atom_site_fract_x
_atom_site_fract_y
_atom_site_fract_z
_atom_type_partial_charge
O0 O 0.54053 0.12849 0.9636 0.0
Tb1 Tb 0.50933 0.10776 1.01247 0.0
Eu2 Eu 0.46857 0.10659 0.09049 0.0
C3 C 0.5449 0.14752 0.93695 0.0
O4 O 0.52922 0.15353 0.93476 0.0
C5 C 0.4622 0.08278 0.96048 0.0
O6 O 0.4388 0.0807 0.14417 0.0
C7 C 0.46589 0.14278 0.06581 0.0
C8 C 0.43937 0.08107 0.20328 0.0
O9 O 0.45584 0.09892 0.23124 0.0
C10 C 0.51811 0.12022 0.14912 0.0
C11 C 0.4708 0.16687 0.07087 0.0
C12 C 0.47216 0.17859 1.01727 0.0
C13 C 0.47385 0.20021 1.01838 0.0
C14 C 0.47473 0.2103 0.0748 0.0
C15 C 0.4737 0.19925 0.12958 0.0
C16 C 0.47155 0.17732 0.12691 0.0
O17 O 0.48192 0.10133 0.9495 0.0
O18 O 0.45481 0.07934 1.01647 0.0
O19 O 0.51338 0.07909 0.98683 0.0
O20 O 0.492 0.07584 0.06188 0.0
C21 C 0.49941 0.06534 0.02746 0.0
O22 O 0.49585 0.11048 0.15774 0.0
O23 O 0.52666 0.12654 0.09462 0.0
O24 O 0.45359 0.12797 0.10778 0.0
O25 O 0.48016 0.13793 0.03764 0.0
H26 H 0.4708 0.17029 0.97433 0.0
H27 H 0.4759 0.22683 0.07595 0.0
H28 H 0.47039 0.16833 0.1682 0.0
O29 O 0.45058 0.53537 1.01924 0.0
Tb30 Tb 0.44055 0.50015 0.03505 0.0
Eu31 Eu 0.38051 0.47091 0.09217 0.0
C32 C 0.43475 0.54124 1.01939 0.0
O33 O 0.4134 0.52558 0.02978 0.0
C34 C 0.40084 0.46195 0.9723 0.0
O35 O 0.37956 0.44571 0.15872 0.0
C36 C 0.34137 0.46941 0.08322 0.0
C37 C 0.37839 0.44886 0.21667 0.0
O38 O 0.3765 0.46629 0.23514 0.0
C39 C 0.42743 0.50971 0.16055 0.0
C40 C 0.31881 0.46858 0.08119 0.0
C41 C 0.309 0.46929 0.02566 0.0
C42 C 0.28793 0.46898 1.02342 0.0
C43 C 0.27687 0.4681 0.07816 0.0
C44 C 0.28641 0.46785 0.13451 0.0
C45 C 0.30732 0.46781 0.13524 0.0
O46 O 0.41138 0.48417 0.97602 0.0
O47 O 0.38685 0.45096 1.01701 0.0
O48 O 0.47107 0.5053 0.98765 0.0
O49 O 0.44946 0.47343 0.03075 0.0
C50 C 0.46758 0.48483 0.99758 0.0
O51 O 0.40634 0.50385 0.14328 0.0
O52 O 0.43873 0.50122 0.1327 0.0
O53 O 0.3463 0.45956 0.12698 0.0
O54 O 0.35763 0.47969 0.04256 0.0
H55 H 0.31792 0.47029 0.98418 0.0
H56 H 0.26038 0.4671 0.07683 0.0
H57 H 0.31509 0.46789 0.178 0.0
O58 O 0.92305 0.44064 1.0233 0.0
Tb59 Tb 0.94986 0.43265 0.03701 0.0
Eu60 Eu 0.92237 0.37334 0.09221 0.0
C61 C 0.90169 0.42389 1.02097 0.0
O62 O 0.8972 0.40279 0.028 0.0
C63 C 0.95188 0.39531 0.97264 0.0
O64 O 0.94761 0.37245 0.15581 0.0
C65 C 0.88765 0.33258 0.07139 0.0
C66 C 0.94632 0.37428 0.21438 0.0
O67 O 0.92886 0.37513 0.23749 0.0
C68 C 0.92764 0.41835 0.16251 0.0
C69 C 0.86352 0.31308 0.07499 0.0
C70 C 0.85187 0.30276 1.02078 0.0
C71 C 0.83036 0.28248 1.02085 0.0
C72 C 0.82039 0.27279 0.07675 0.0
C73 C 0.83161 0.28242 0.13188 0.0
C74 C 0.8532 0.30276 0.13043 0.0
O75 O 0.93919 0.40479 0.97433 0.0
O76 O 0.9502 0.38271 1.01948 0.0
O77 O 0.97407 0.46412 0.99123 0.0
O78 O 0.98621 0.44397 0.03365 0.0
C79 C 0.99193 0.46198 1.00115 0.0
O80 O 0.91296 0.39696 0.14596 0.0
O81 O 0.94738 0.42992 0.13458 0.0
O82 O 0.90128 0.33771 0.11842 0.0
O83 O 0.89295 0.3501 0.0358 0.0
H84 H 0.86015 0.31003 0.97821 0.0
H85 H 0.80358 0.25765 0.0774 0.0
H86 H 0.86232 0.31005 0.17221 0.0
O87 O 0.50222 0.87223 0.9857 0.0
Tb88 Tb 0.51992 0.90465 0.03255 0.0
Eu89 Eu 0.56689 0.91944 0.10351 0.0
C90 C 0.51169 0.8674 0.94061 0.0
O91 O 0.53381 0.88035 0.93176 0.0
C92 C 0.56778 0.94459 0.97879 0.0
O93 O 0.59214 0.93659 0.1785 0.0
C94 C 0.56446 0.88126 0.07107 0.0
C95 C 0.60901 0.95767 0.17238 0.0
O96 O 0.61305 0.96723 0.11901 0.0
C97 C 0.51955 0.90353 0.17182 0.0
C98 C 0.56147 0.85798 0.07727 0.0
C99 C 0.56024 0.84613 1.02383 0.0
C100 C 0.55959 0.82502 0.02499 0.0
C101 C 0.55974 0.8156 0.08139 0.0
C102 C 0.56108 0.82701 0.13606 0.0
C103 C 0.56188 0.84835 0.13342 0.0
O104 O 0.54721 0.92681 0.96848 0.0
O105 O 0.57832 0.94658 0.03041 0.0
O106 O 0.49163 0.90814 0.99783 0.0
O107 O 0.51286 0.93021 0.06855 0.0
C108 C 0.49508 0.92456 0.03474 0.0
O109 O 0.54148 0.91867 0.17176 0.0
O110 O 0.5106 0.89055 0.12381 0.0
O111 O 0.58325 0.89899 0.09196 0.0
O112 O 0.54663 0.88425 0.06917 0.0
H113 H 0.5607 0.8539 0.98086 0.0
H114 H 0.55844 0.79901 0.08273 0.0
H115 H 0.56341 0.8577 0.17457 0.0
O116 O 0.65278 0.51498 0.03911 0.0
Tb117 Tb 0.61911 0.50985 1.01634 0.0
Eu118 Eu 0.65667 0.55292 0.08834 0.0
C119 C 0.66278 0.50552 1.00963 0.0
O120 O 0.68229 0.50815 0.02921 0.0
C121 C 0.62531 0.55785 0.98018 0.0
O122 O 0.65337 0.57812 0.1466 0.0
C123 C 0.70007 0.56559 0.0758 0.0
C124 C 0.63284 0.57549 0.15095 0.0
O125 O 0.61598 0.55871 0.12092 0.0
C126 C 0.61348 0.50792 0.15124 0.0
C127 C 0.71902 0.56014 0.07861 0.0
C128 C 0.72879 0.55824 0.02414 0.0
C129 C 0.74839 0.5559 1.02365 0.0
C130 C 0.75822 0.55544 0.07924 0.0
C131 C 0.74911 0.55747 0.13463 0.0
C132 C 0.72933 0.55966 0.13377 0.0
O133 O 0.61223 0.53556 0.9806 0.0
O134 O 0.64436 0.56812 1.01297 0.0
O135 O 0.59367 0.47371 1.00774 0.0
O136 O 0.60615 0.4935 0.92909 0.0
C137 C 0.59133 0.47341 0.94943 0.0
O138 O 0.63606 0.52168 0.15169 0.0
O139 O 0.6022 0.50564 0.10133 0.0
O140 O 0.69134 0.56844 0.12585 0.0
O141 O 0.685 0.55672 0.03185 0.0
H142 H 0.72117 0.55884 0.98173 0.0
H143 H 0.77339 0.55387 0.07944 0.0
H144 H 0.72251 0.56184 0.17587 0.0
O145 O 0.15079 0.647 0.04133 0.0
Tb146 Tb 0.12208 0.61335 1.01881 0.0
Eu147 Eu 0.11701 0.65085 0.09099 0.0
C148 C 0.17063 0.65657 1.01359 0.0
O149 O 0.18735 0.67636 0.03242 0.0
C150 C 0.07956 0.6189 0.98528 0.0
O151 O 0.08895 0.64724 0.15159 0.0
C152 C 0.14761 0.69415 0.07658 0.0
C153 C 0.07227 0.62629 0.16049 0.0
O154 O 0.07284 0.60956 0.13191 0.0
C155 C 0.11968 0.60816 0.15389 0.0
C156 C 0.17211 0.71316 0.0788 0.0
C157 C 0.18359 0.72295 0.02418 0.0
C158 C 0.2056 0.74262 1.02344 0.0
C159 C 0.21613 0.75242 0.07907 0.0
C160 C 0.2052 0.74322 0.13457 0.0
C161 C 0.18319 0.72344 0.13382 0.0
O162 O 0.08882 0.60591 0.98563 0.0
O163 O 0.08865 0.63811 1.0173 0.0
O164 O 0.125 0.60087 0.9305 0.0
O165 O 0.13223 0.58768 1.00796 0.0
C166 C 0.12984 0.58563 0.94961 0.0
O167 O 0.12831 0.63067 0.15412 0.0
O168 O 0.11043 0.59669 0.10425 0.0
O169 O 0.13625 0.68571 0.12696 0.0
O170 O 0.14122 0.67886 0.03319 0.0
H171 H 0.17513 0.71529 0.98189 0.0
H172 H 0.23289 0.76763 0.07928 0.0
H173 H 0.17435 0.71659 0.17601 0.0
O174 O 0.88768 0.48095 0.67275 0.0
Tb175 Tb 0.91292 0.50692 0.61511 0.0
Eu176 Eu 0.91887 0.55581 0.56397 0.0
C177 C 0.87329 0.48496 0.7028 0.0
O178 O 0.87398 0.50452 0.69542 0.0
C179 C 0.94528 0.55365 0.68768 0.0
O180 O 0.94545 0.58285 0.50482 0.0
C181 C 0.88261 0.55858 0.58708 0.0
C182 C 0.96473 0.58254 0.50458 0.0
O183 O 0.96664 0.56858 0.54185 0.0
C184 C 0.90062 0.50959 0.48766 0.0
C185 C 0.85964 0.55652 0.58139 0.0
C186 C 0.84817 0.55595 0.63496 0.0
C187 C 0.82704 0.55535 0.63386 0.0
C188 C 0.81721 0.55487 0.57753 0.0
C189 C 0.82797 0.55502 0.52276 0.0
C190 C 0.84951 0.55614 0.52528 0.0
O191 O 0.93209 0.53115 0.68823 0.0
O192 O 0.94358 0.56618 0.64454 0.0
O193 O 0.92647 0.48432 0.59713 0.0
O194 O 0.94222 0.51749 0.55691 0.0
C195 C 0.94223 0.49834 0.56006 0.0
O196 O 0.91535 0.53159 0.48763 0.0
O197 O 0.89039 0.5007 0.5389 0.0
O198 O 0.90018 0.57425 0.55647 0.0
O199 O 0.88459 0.54093 0.60338 0.0
H200 H 0.85617 0.55669 0.67792 0.0
H201 H 0.80099 0.55445 0.5764 0.0
H202 H 0.85823 0.55645 0.48403 0.0
O203 O 0.44246 0.9129 0.66155 0.0
Tb204 Tb 0.43141 0.93686 0.63925 0.0
Eu205 Eu 0.37639 0.9137 0.56158 0.0
C206 C 0.42785 0.89095 0.66698 0.0
O207 O 0.40584 0.88326 0.66033 0.0
C208 C 0.39385 0.94265 0.68291 0.0
O209 O 0.37506 0.93829 0.49686 0.0
C210 C 0.33571 0.87908 0.58322 0.0
C211 C 0.37958 0.93861 0.43925 0.0
O212 O 0.38321 0.92277 0.41652 0.0
C213 C 0.42333 0.91775 0.50589 0.0
C214 C 0.3167 0.8547 0.58081 0.0
C215 C 0.30647 0.8435 0.63528 0.0
C216 C 0.28646 0.82178 0.63556 0.0
C217 C 0.27695 0.81115 0.5798 0.0
C218 C 0.28678 0.82171 0.52437 0.0
C219 C 0.30671 0.84361 0.5256 0.0
O220 O 0.40085 0.92798 0.68952 0.0
O221 O 0.38564 0.94279 0.62941 0.0
O222 O 0.45828 0.96152 0.69868 0.0
O223 O 0.44362 0.9732 0.63263 0.0
C224 C 0.45786 0.97922 0.67756 0.0
O225 O 0.40088 0.90438 0.51301 0.0
O226 O 0.43543 0.93531 0.54203 0.0
O227 O 0.34093 0.89165 0.53427 0.0
O228 O 0.35312 0.88548 0.62056 0.0
H229 H 0.31355 0.85224 0.67768 0.0
H230 H 0.26151 0.79458 0.57965 0.0
H231 H 0.31435 0.85214 0.48362 0.0
O232 O 0.54715 0.43414 0.65814 0.0
Tb233 Tb 0.51608 0.41668 0.60655 0.0
Eu234 Eu 0.47156 0.36935 0.56002 0.0
C235 C 0.55283 0.42165 0.69078 0.0
O236 O 0.53939 0.39936 0.69071 0.0
C237 C 0.47269 0.39641 0.6877 0.0
O238 O 0.44323 0.36667 0.50018 0.0
C239 C 0.46963 0.33073 0.58314 0.0
C240 C 0.43397 0.37927 0.51294 0.0
O241 O 0.44005 0.39151 0.56255 0.0
C242 C 0.5189 0.39875 0.48799 0.0
C243 C 0.47214 0.3101 0.57713 0.0
C244 C 0.47346 0.29961 0.63049 0.0
C245 C 0.47417 0.27916 0.62922 0.0
C246 C 0.47384 0.2694 0.57268 0.0
C247 C 0.47258 0.27942 0.51812 0.0
C248 C 0.47177 0.29995 0.52096 0.0
O249 O 0.49519 0.40683 0.68757 0.0
O250 O 0.4606 0.38232 0.64328 0.0
O251 O 0.52527 0.44919 0.56565 0.0
O252 O 0.49115 0.42108 0.55501 0.0
C253 C 0.50531 0.44222 0.541 0.0
O254 O 0.49654 0.38953 0.48385 0.0
O255 O 0.52733 0.40048 0.54211 0.0
O256 O 0.45383 0.3322 0.55204 0.0
O257 O 0.48698 0.35061 0.60024 0.0
H258 H 0.47381 0.30747 0.67346 0.0
H259 H 0.47439 0.25371 0.57111 0.0
H260 H 0.47038 0.30774 0.47984 0.0
O261 O 0.12783 0.54074 0.66339 0.0
Tb262 Tb 0.11388 0.51036 0.60895 0.0
Eu263 Eu 0.11581 0.46635 0.56063 0.0
C264 C 0.14488 0.54512 0.69966 0.0
O265 O 0.15258 0.53078 0.70191 0.0
C266 C 0.08808 0.46601 0.68408 0.0
O267 O 0.08865 0.4362 0.51019 0.0
C268 C 0.15104 0.4622 0.58834 0.0
C269 C 0.08957 0.43468 0.45142 0.0
O270 O 0.10833 0.44915 0.4229 0.0
C271 C 0.13493 0.514 0.49005 0.0
C272 C 0.17481 0.46615 0.58263 0.0
C273 C 0.1868 0.46772 0.6361 0.0
C274 C 0.20821 0.46886 0.63491 0.0
C275 C 0.21775 0.46879 0.57849 0.0
C276 C 0.20621 0.46704 0.52389 0.0
C277 C 0.18466 0.46584 0.52653 0.0
O278 O 0.10192 0.48825 0.68757 0.0
O279 O 0.089 0.45442 0.63691 0.0
O280 O 0.09119 0.52084 0.57022 0.0
O281 O 0.08465 0.48689 0.55394 0.0
C282 C 0.07816 0.50159 0.5424 0.0
O283 O 0.12183 0.49171 0.48479 0.0
O284 O 0.14144 0.52219 0.5446 0.0
O285 O 0.1354 0.44907 0.54863 0.0
O286 O 0.14745 0.47795 0.61271 0.0
H287 H 0.17887 0.46708 0.67908 0.0
H288 H 0.23452 0.47041 0.57704 0.0
H289 H 0.17526 0.46397 0.48532 0.0
O290 O 0.64309 0.14144 0.64408 0.0
Tb291 Tb 0.61205 0.10891 0.63738 0.0
Eu292 Eu 0.65618 0.1131 0.56677 0.0
C293 C 0.65256 0.14792 0.69753 0.0
O294 O 0.65451 0.1328 0.73002 0.0
C295 C 0.62683 0.07371 0.67059 0.0
O296 O 0.65795 0.08699 0.50812 0.0
C297 C 0.69685 0.14957 0.57132 0.0
C298 C 0.6402 0.06628 0.50456 0.0
O299 O 0.62187 0.06112 0.53645 0.0
C300 C 0.61078 0.11055 0.49926 0.0
C301 C 0.72014 0.17045 0.57329 0.0
C302 C 0.73012 0.18104 0.62887 0.0
C303 C 0.75133 0.20171 0.63116 0.0
C304 C 0.76237 0.21171 0.57641 0.0
C305 C 0.75264 0.20189 0.52007 0.0
C306 C 0.73162 0.18099 0.51926 0.0
O307 O 0.60953 0.07672 0.65904 0.0
O308 O 0.64751 0.08808 0.64834 0.0
O309 O 0.59628 0.10619 0.72514 0.0
O310 O 0.58393 0.11559 0.64947 0.0
C311 C 0.58132 0.11158 0.70705 0.0
O312 O 0.63339 0.11982 0.50069 0.0
O313 O 0.59857 0.1007 0.54726 0.0
O314 O 0.69052 0.13415 0.52836 0.0
O315 O 0.68152 0.14453 0.61352 0.0
H316 H 0.72111 0.17337 0.67036 0.0
H317 H 0.77893 0.22717 0.57766 0.0
H318 H 0.72363 0.17338 0.47649 0.0
O319 O 0.4897 0.61518 0.67144 0.0
Tb320 Tb 0.51402 0.61341 0.61205 0.0
Eu321 Eu 0.56354 0.65724 0.56288 0.0
C322 C 0.49618 0.63333 0.70551 0.0
O323 O 0.51722 0.65051 0.70098 0.0
C324 C 0.56118 0.62728 0.68323 0.0
O325 O 0.58993 0.65908 0.49884 0.0
C326 C 0.56469 0.69541 0.58663 0.0
C327 C 0.58879 0.63927 0.49272 0.0
O328 O 0.57505 0.62264 0.52874 0.0
C329 C 0.51792 0.62887 0.485 0.0
C330 C 0.56251 0.71616 0.5808 0.0
C331 C 0.5613 0.7267 0.63436 0.0
C332 C 0.56034 0.74699 0.63352 0.0
C333 C 0.56023 0.7565 0.57724 0.0
C334 C 0.56092 0.74618 0.52232 0.0
C335 C 0.56235 0.72597 0.52476 0.0
O336 O 0.53857 0.61717 0.6827 0.0
O337 O 0.57391 0.64253 0.64202 0.0
O338 O 0.48945 0.57738 0.59643 0.0
O339 O 0.52202 0.5931 0.55222 0.0
C340 C 0.5023 0.57452 0.55754 0.0
O341 O 0.53993 0.6362 0.48591 0.0
O342 O 0.50876 0.6302 0.53582 0.0
O343 O 0.58172 0.6945 0.56037 0.0
O344 O 0.54667 0.6753 0.59834 0.0
H345 H 0.56114 0.71896 0.67715 0.0
H346 H 0.56031 0.77252 0.57627 0.0
H347 H 0.56305 0.71774 0.4835 0.0
H348 H 0.41353 0.03803 0.15694 0.0
H349 H 0.3822 0.97803 0.47897 0.0
H350 H 0.433 0.07536 0.32532 0.0
H351 H 0.38607 0.94454 0.31695 0.0
H352 H 0.3926 0.01229 0.4206 0.0
H353 H 0.39506 1.00229 0.21308 0.0
C354 C 0.41354 0.03875 0.20573 0.0
C355 C 0.42495 0.05974 0.23658 0.0
C356 C 0.39096 0.99737 0.39778 0.0
C357 C 0.40388 0.01887 0.3008 0.0
C358 C 0.38494 0.97775 0.43094 0.0
C359 C 0.38342 0.95841 0.4028 0.0
C360 C 0.39527 0.99762 0.33591 0.0
C361 C 0.38719 0.9591 0.34048 0.0
C362 C 0.40313 0.01832 0.23764 0.0
C363 C 0.42451 0.05957 0.29978 0.0
N364 N 0.39303 0.97846 0.30907 0.0
N365 N 0.41424 0.03942 0.32986 0.0
H366 H 0.37454 0.44882 0.33926 0.0
H367 H 0.429 0.36963 0.39138 0.0
H368 H 0.38967 0.41599 0.19365 0.0
H369 H 0.40754 0.39818 0.53416 0.0
H370 H 0.41119 0.38291 0.31786 0.0
H371 H 0.3834 0.42729 0.41125 0.0
C372 C 0.37952 0.43692 0.32242 0.0
C373 C 0.38153 0.43432 0.26043 0.0
C374 C 0.41009 0.38592 0.36539 0.0
C375 C 0.39188 0.40969 0.34259 0.0
C376 C 0.42012 0.37823 0.40732 0.0
C377 C 0.4199 0.383 0.46881 0.0
C378 C 0.39987 0.39845 0.3854 0.0
C379 C 0.40833 0.39434 0.48708 0.0
C380 C 0.38457 0.42459 0.36355 0.0
C381 C 0.38797 0.41857 0.24114 0.0
N382 N 0.399 0.40188 0.44556 0.0
N383 N 0.39316 0.40701 0.28212 0.0
H384 H 0.08446 0.42575 0.33015 0.0
H385 H 0.95082 0.37977 0.33728 0.0
H386 H 0.04599 0.41148 0.49549 0.0
H387 H 0.98657 0.37796 0.1778 0.0
H388 H 0.98522 0.3903 0.39689 0.0
H389 H 0.04851 0.40699 0.27372 0.0
C390 C 0.06846 0.41835 0.35464 0.0
C391 C 0.06824 0.42027 0.41753 0.0
C392 C 0.9854 0.3873 0.34895 0.0
C393 C 0.02708 0.39914 0.35335 0.0
C394 C 0.96579 0.38132 0.31493 0.0
C395 C 0.96587 0.37814 0.25244 0.0
C396 C 1.00525 0.39033 0.3201 0.0
C397 C 0.98574 0.38035 0.22582 0.0
C398 C 0.04794 0.40767 0.32244 0.0
C399 C 0.04699 0.41039 0.44699 0.0
N400 N 1.00469 0.38655 0.25968 0.0
N401 N 0.02727 0.40052 0.41457 0.0
H402 H 0.59751 0.94563 0.29016 0.0
H403 H 0.66897 0.07433 0.40932 0.0
H404 H 0.64338 1.00236 0.17826 0.0
H405 H 0.61108 0.02022 0.50205 0.0
H406 H 0.66587 0.04674 0.33285 0.0
H407 H 0.60897 0.97135 0.37679 0.0
C408 C 0.61036 0.9634 0.28397 0.0
C409 C 0.61929 0.97192 0.22665 0.0
C410 C 0.65403 0.04089 0.37033 0.0
C411 C 0.6323 1.00146 0.32566 0.0
C412 C 0.65581 0.05659 0.41403 0.0
C413 C 0.64008 0.04955 0.46165 0.0
C414 C 0.63655 0.018 0.37473 0.0
C415 C 0.62337 0.02639 0.4656 0.0
C416 C 0.61678 0.9781 0.33346 0.0
C417 C 0.6359 0.99511 0.22151 0.0
N418 N 0.62197 1.01146 0.4225 0.0
N419 N 0.64169 1.00915 0.2703 0.0
H420 H 0.66285 0.60984 0.22649 0.0
H421 H 0.56317 0.6027 0.42331 0.0
H422 H 0.59196 0.57292 0.17106 0.0
H423 H 0.6305 0.66225 0.43537 0.0
H424 H 0.57462 0.59077 0.33282 0.0
H425 H 0.65293 0.62924 0.30451 0.0
C426 C 0.6453 0.60604 0.23018 0.0
C427 C 0.62811 0.58948 0.19298 0.0
C428 C 0.58692 0.60655 0.35474 0.0
C429 C 0.6168 0.61138 0.28161 0.0
C430 C 0.58044 0.61326 0.40664 0.0
C431 C 0.59606 0.63331 0.43677 0.0
C432 C 0.60936 0.61973 0.3334 0.0
C433 C 0.61809 0.64662 0.41308 0.0
C434 C 0.63971 0.61716 0.27446 0.0
C435 C 0.6057 0.58531 0.1993 0.0
N436 N 0.62431 0.63938 0.36292 0.0
N437 N 0.60066 0.59596 0.24333 0.0
H438 H 0.96749 0.61258 0.41644 0.0
H439 H 0.0454 0.58546 0.21384 0.0
H440 H 1.00067 0.57648 0.48224 0.0
H441 H 0.05998 0.65528 0.21405 0.0
H442 H 0.01933 0.57738 0.29801 0.0
H443 H 0.99375 0.62543 0.32925 0.0
C444 C 0.9804 0.60763 0.41302 0.0
C445 C 0.98181 0.59333 0.45636 0.0
C446 C 0.02812 0.59442 0.2792 0.0
C447 C 1.011 0.60732 0.35733 0.0
C448 C 0.04289 0.59904 0.23106 0.0
C449 C 0.05497 0.62112 0.20736 0.0
C450 C 0.02507 0.61187 0.30317 0.0
C451 C 0.05107 0.63807 0.2316 0.0
C452 C 0.99526 0.61493 0.36354 0.0
C453 C 0.99882 0.58738 0.44992 0.0
N454 N 0.03633 0.63309 0.27851 0.0
N455 N 1.01247 0.59409 0.40084 0.0
H456 H 0.58798 0.03219 0.66983 0.0
H457 H 0.61076 0.98428 0.97884 0.0
H458 H 0.65242 0.06863 0.76355 0.0
H459 H 0.55038 0.94763 0.86852 0.0
H460 H 0.6271 0.01469 0.90234 0.0
H461 H 0.57525 1.001 0.74156 0.0
C462 C 0.59969 0.03356 0.70511 0.0
C463 C 0.62149 0.0533 0.70968 0.0
C464 C 0.61034 0.99993 0.89469 0.0
C465 C 0.60648 0.01706 0.79477 0.0
C466 C 0.60092 0.98243 0.93854 0.0
C467 C 0.57898 0.96299 0.93086 0.0
C468 C 0.59781 0.99832 0.84225 0.0
C469 C 0.56729 0.962 0.87721 0.0
C470 C 0.59229 0.01562 0.74657 0.0
C471 C 0.63563 0.05378 0.75719 0.0
N472 N 0.57672 0.97924 0.83577 0.0
N473 N 0.62784 0.03614 0.79799 0.0
H474 H 0.58137 0.54482 0.94904 0.0
H475 H 0.6076 0.64279 0.70538 0.0
H476 H 0.65011 0.60033 0.92136 0.0
H477 H 0.54037 0.59446 0.7711 0.0
H478 H 0.62424 0.62814 0.77973 0.0
H479 H 0.5671 0.56297 0.88111 0.0
C480 C 0.5936 0.56095 0.92889 0.0
C481 C 0.61714 0.57088 0.9417 0.0
C482 C 0.60586 0.62088 0.77812 0.0
C483 C 0.60051 0.59208 0.86128 0.0
C484 C 0.59627 0.62928 0.73552 0.0
C485 C 0.57234 0.62005 0.73125 0.0
C486 C 0.59153 0.60283 0.81683 0.0
C487 C 0.55882 0.60238 0.77193 0.0
C488 C 0.58532 0.5714 0.88976 0.0
C489 C 0.63184 0.59197 0.91363 0.0
N490 N 0.56849 0.59441 0.81207 0.0
N491 N 0.62336 0.60169 0.87451 0.0
H492 H 0.04802 0.57485 0.95675 0.0
H493 H 0.97674 0.59994 0.70818 0.0
H494 H 0.06193 0.64335 0.92485 0.0
H495 H 0.9566 0.53321 0.77827 0.0
H496 H 1.00808 0.6168 0.78297 0.0
H497 H 1.01529 0.56025 0.88887 0.0
C498 C 0.04418 0.58695 0.93576 0.0
C499 C 0.05807 0.61053 0.94735 0.0
C500 C 0.99668 0.59849 0.78226 0.0
C501 C 0.01994 0.59352 0.86695 0.0
C502 C 0.97864 0.58877 0.73942 0.0
C503 C 0.96359 0.56491 0.73626 0.0
C504 C 1.0001 0.58436 0.82231 0.0
C505 C 0.96741 0.5516 0.7783 0.0
C506 C 0.02529 0.57849 0.89664 0.0
C507 C 0.05179 0.62507 0.91814 0.0
N508 N 0.98514 0.5614 0.81865 0.0
N509 N 0.03343 0.6164 0.87905 0.0
H510 H 0.46327 0.08263 0.83442 0.0
H511 H 0.40867 0.947 0.80052 0.0
H512 H 0.4381 0.03706 0.98616 0.0
H513 H 0.40111 0.98613 0.65912 0.0
H514 H 0.42532 0.98107 0.86563 0.0
H515 H 0.44628 0.04906 0.76624 0.0
C516 C 0.45418 0.06567 0.85353 0.0
C517 C 0.45187 0.06291 0.91654 0.0
C518 C 0.41992 0.98221 0.82045 0.0
C519 C 0.43306 0.02418 0.83836 0.0
C520 C 0.41035 0.96268 0.7831 0.0
C521 C 0.40308 0.96335 0.72405 0.0
C522 C 0.42284 1.00302 0.79879 0.0
C523 C 0.40607 0.98449 0.70436 0.0
C524 C 0.4445 0.04647 0.81449 0.0
C525 C 0.44007 0.04029 0.93817 0.0
N526 N 0.41582 1.00338 0.74123 0.0
N527 N 0.43141 0.02202 0.89955 0.0
H528 H 0.42666 0.3748 0.72142 0.0
H529 H 0.43646 0.48265 0.89233 0.0
H530 H 0.49181 0.43445 0.76125 0.0
H531 H 0.3861 0.41556 0.95331 0.0
H532 H 0.45334 0.46551 0.82855 0.0
H533 H 0.40825 0.38908 0.79178 0.0
C534 C 0.43718 0.39072 0.74521 0.0
C535 C 0.46101 0.40322 0.73514 0.0
C536 C 0.43854 0.45447 0.85564 0.0
C537 C 0.43972 0.42012 0.8146 0.0
C538 C 0.42874 0.46426 0.89225 0.0
C539 C 0.40983 0.45071 0.92955 0.0
C540 C 0.42909 0.43067 0.85383 0.0
C541 C 0.40073 0.42685 0.92609 0.0
C542 C 0.4266 0.39888 0.78542 0.0
C543 C 0.47351 0.42394 0.76735 0.0
N544 N 0.41029 0.41763 0.8888 0.0
N545 N 0.46276 0.43179 0.80446 0.0
H546 H 0.06244 0.41999 0.71534 0.0
H547 H 0.96679 0.43136 0.89439 0.0
H548 H 0.07001 0.48554 0.75864 0.0
H549 H 0.98309 0.38035 0.95076 0.0
H550 H 1.00046 0.44807 0.82921 0.0
H551 H 0.03004 0.402 0.78667 0.0
C552 C 0.05748 0.43066 0.73994 0.0
C553 C 0.06933 0.45448 0.73072 0.0
C554 C 0.99667 0.43316 0.85558 0.0
C555 C 0.03154 0.43372 0.81143 0.0
C556 C 0.9773 0.42347 0.893 0.0
C557 C 0.97192 0.4044 0.92934 0.0
C558 C 1.0107 0.42339 0.85188 0.0
C559 C 0.98645 0.39509 0.92429 0.0
C560 C 0.03895 0.42034 0.78077 0.0
C561 C 0.06176 0.46722 0.76411 0.0
N562 N 1.00495 0.4045 0.8861 0.0
N563 N 0.04333 0.45674 0.80186 0.0
H564 H 0.47608 0.93359 0.9383 0.0
H565 H 0.47688 0.03566 0.11858 0.0
H566 H 0.48707 0.94441 0.12995 0.0
H567 H 0.50026 0.0393 0.93576 0.0
H568 H 0.46351 0.99458 0.11891 0.0
H569 H 0.46661 0.96416 0.93469 0.0
C570 C 0.47563 0.94184 0.97982 0.0
C571 C 0.48288 0.93718 0.03422 0.0
C572 C 0.47121 1.00439 0.0785 0.0
C573 C 0.47214 0.97155 0.03057 0.0
C574 C 0.47902 0.02772 0.07851 0.0
C575 C 0.49038 0.04076 0.02789 0.0
C576 C 0.47454 0.99423 0.02716 0.0
C577 C 0.49227 0.02982 0.97639 0.0
C578 C 0.47033 0.95923 0.97775 0.0
C579 C 0.48204 0.9481 0.08699 0.0
N580 N 0.48461 1.00712 0.9775 0.0
N581 N 0.47714 0.96513 0.08379 0.0
H582 H 0.46282 0.44298 1.01787 0.0
H583 H 0.57695 0.48022 0.84041 0.0
H584 H 0.50069 0.50386 0.91165 0.0
H585 H 0.55409 0.43512 0.99322 0.0
H586 H 0.53836 0.47409 0.82876 0.0
H587 H 0.48631 0.42804 0.97584 0.0
C588 C 0.47599 0.45311 0.9854 0.0
C589 C 0.48051 0.47503 0.96981 0.0
C590 C 0.54156 0.4648 0.86339 0.0
C591 C 0.50682 0.45783 0.92049 0.0
C592 C 0.56355 0.46806 0.86964 0.0
C593 C 0.56891 0.45928 0.92029 0.0
C594 C 0.52514 0.45256 0.90779 0.0
C595 C 0.55079 0.44305 0.95526 0.0
C596 C 0.48916 0.44447 0.96095 0.0
C597 C 0.49722 0.48719 0.92626 0.0
N598 N 0.52978 0.4409 0.95003 0.0
N599 N 0.51 0.47856 0.90368 0.0
H600 H 0.13093 0.54815 0.98983 0.0
H601 H 1.00405 0.49437 0.91424 0.0
H602 H 0.10626 0.57145 0.8432 0.0
H603 H 0.03057 0.45988 1.02139 0.0
H604 H 0.04199 0.51797 0.87046 0.0
H605 H 0.09738 0.51028 0.97962 0.0
C606 C 0.11901 0.54501 0.95341 0.0
C607 C 0.1205 0.5632 0.91992 0.0
C608 C 0.03951 0.50502 0.90286 0.0
C609 C 0.08178 0.52038 0.90953 0.0
C610 C 1.01792 0.4918 0.92849 0.0
C611 C 1.01449 0.4758 0.97295 0.0
C612 C 0.05788 0.50251 0.92284 0.0
C613 C 0.03276 0.47256 0.98845 0.0
C614 C 0.0996 0.5234 0.9481 0.0
C615 C 0.10507 0.55805 0.87209 0.0
N616 N 0.05381 0.48614 0.96435 0.0
N617 N 0.08565 0.53732 0.87011 0.0
H618 H 0.97243 0.52479 0.47434 0.0
H619 H 0.04045 0.46001 0.52099 0.0
H620 H 0.94715 0.46085 0.56769 0.0
H621 H 0.06958 0.53197 0.48712 0.0
H622 H 1.00286 0.45381 0.49028 0.0
H623 H 1.00327 0.52023 0.43205 0.0
C624 C 0.97322 0.50961 0.48517 0.0
C625 C 0.958 0.49362 0.52648 0.0
C626 C 1.01765 0.47082 0.4877 0.0
C627 C 0.99295 0.48833 0.47849 0.0
C628 C 0.039 0.47436 0.50524 0.0
C629 C 0.05764 0.49664 0.50871 0.0
C630 C 1.01531 0.48974 0.47359 0.0
C631 C 0.05525 0.51464 0.48695 0.0
C632 C 0.99065 0.50693 0.46063 0.0
C633 C 0.95914 0.4739 0.53751 0.0
N634 N 0.03428 0.51087 0.47131 0.0
N635 N 0.97676 0.47204 0.51474 0.0
H636 H 0.45675 0.01671 0.63937 0.0
H637 H 0.5681 0.09158 0.81762 0.0
H638 H 0.48484 0.99351 0.77808 0.0
H639 H 0.54452 0.11404 0.66662 0.0
H640 H 0.52877 0.06181 0.83729 0.0
H641 H 0.47946 0.05563 0.67813 0.0
C642 C 0.46766 0.01985 0.67824 0.0
C643 C 0.46984 1.00221 0.70402 0.0
C644 C 0.53204 0.07376 0.80114 0.0
C645 C 0.49564 0.04651 0.7489 0.0
C646 C 0.5545 0.09092 0.79024 0.0
C647 C 0.55952 0.10419 0.7381 0.0
C648 C 0.51497 0.06993 0.75885 0.0
C649 C 0.54134 0.10327 0.70557 0.0
C650 C 0.4804 0.042 0.70081 0.0
C651 C 0.48343 1.0069 0.7556 0.0
N652 N 0.51981 0.08569 0.71491 0.0
N653 N 0.49622 0.02873 0.77567 0.0
H654 H 0.52508 0.56921 0.46426 0.0
H655 H 0.46298 0.4374 0.52821 0.0
H656 H 0.46503 0.53221 0.57484 0.0
H657 H 0.53382 0.48054 0.47975 0.0
H658 H 0.45547 0.46788 0.49862 0.0
H659 H 0.51917 0.53305 0.42381 0.0
C660 C 0.51043 0.55343 0.47926 0.0
C661 C 0.49606 0.55341 0.52477 0.0
C662 C 0.47247 0.47033 0.4926 0.0
C663 C 0.48925 0.5123 0.47895 0.0
C664 C 0.47675 0.45302 0.50949 0.0
C665 C 0.4992 0.45706 0.50839 0.0
C666 C 0.4908 0.49148 0.47441 0.0
C667 C 0.51644 0.47725 0.48303 0.0
C668 C 0.50695 0.53287 0.45579 0.0
C669 C 0.47687 0.53273 0.54115 0.0
N670 N 0.51197 0.49396 0.46797 0.0
N671 N 0.47431 0.51283 0.51932 0.0
H672 H 0.56515 0.13733 0.15024 0.0
H673 H 0.56467 0.09304 0.48648 0.0
H674 H 0.50605 0.10564 0.2661 0.0
H675 H 0.62755 0.13212 0.38767 0.0
H676 H 0.54361 0.09684 0.40322 0.0
H677 H 0.58856 0.1356 0.23292 0.0
C678 C 0.55707 0.13025 0.1931 0.0
C679 C 0.5334 0.12173 0.20071 0.0
C680 C 0.56201 0.10465 0.39929 0.0
C681 C 0.56031 0.11935 0.29587 0.0
C682 C 0.57422 0.10244 0.4472 0.0
C683 C 0.5982 0.1123 0.44502 0.0
C684 C 0.57352 0.1168 0.34741 0.0
C685 C 0.60916 0.12418 0.39193 0.0
C686 C 0.57051 0.12919 0.24033 0.0
C687 C 0.52411 0.11258 0.25752 0.0
N688 N 0.59679 0.12608 0.34543 0.0
N689 N 0.53745 0.11156 0.30224 0.0
H690 H 0.47283 0.5305 0.19107 0.0
H691 H 0.47049 0.60509 0.4714 0.0
H692 H 0.41082 0.52959 0.24232 0.0
H693 H 0.532 0.61476 0.38576 0.0
H694 H 0.44768 0.57632 0.3938 0.0
H695 H 0.49368 0.5594 0.26781 0.0
C696 C 0.46344 0.53625 0.21854 0.0
C697 C 0.43981 0.52731 0.2095 0.0
C698 C 0.46617 0.58488 0.39182 0.0
C699 C 0.46413 0.5611 0.2992 0.0
C700 C 0.47927 0.60142 0.4361 0.0
C701 C 0.50338 0.61273 0.43538 0.0
C702 C 0.47716 0.57925 0.34656 0.0
C703 C 0.51357 0.60683 0.38853 0.0
C704 C 0.47552 0.55298 0.26256 0.0
C705 C 0.42896 0.53586 0.24714 0.0
N706 N 0.50052 0.59058 0.34674 0.0
N707 N 0.44113 0.55214 0.29028 0.0
H708 H 0.95133 0.46389 0.19012 0.0
H709 H 0.877 0.46212 0.47578 0.0
H710 H 0.89182 0.4015 0.24704 0.0
H711 H 0.92775 0.52312 0.38655 0.0
H712 H 0.88233 0.43902 0.39799 0.0
H713 H 0.94353 0.48476 0.26682 0.0
C714 C 0.93657 0.45441 0.21883 0.0
C715 C 0.92229 0.43065 0.21136 0.0
C716 C 0.89214 0.45746 0.39525 0.0
C717 C 0.91311 0.45507 0.30126 0.0
C718 C 0.88905 0.47073 0.43965 0.0
C719 C 0.90175 0.4948 0.438 0.0
C720 C 0.90828 0.46822 0.34887 0.0
C721 C 0.91734 0.50474 0.39009 0.0
C722 C 0.93207 0.46652 0.26289 0.0
C723 C 0.90337 0.41973 0.25059 0.0
N724 N 0.92018 0.49153 0.3482 0.0
N725 N 0.8994 0.43196 0.29381 0.0
H726 H 0.40656 0.88774 0.407 0.0
H727 H 0.53303 0.9275 0.27851 0.0
H728 H 0.46971 0.93872 0.48919 0.0
H729 H 0.47202 0.87948 0.18251 0.0
H730 H 0.50927 0.92984 0.35783 0.0
H731 H 0.42904 0.88278 0.32655 0.0
C732 C 0.42506 0.89786 0.40845 0.0
C733 C 0.43605 0.91376 0.45553 0.0
C734 C 0.50094 0.91865 0.31971 0.0
C735 C 0.46205 0.90803 0.36318 0.0
C736 C 0.5146 0.91723 0.27416 0.0
C737 C 0.50471 0.90316 0.22326 0.0
C738 C 0.4769 0.90598 0.31522 0.0
C739 C 0.48056 0.89044 0.22084 0.0
C740 C 0.43792 0.89502 0.36232 0.0
C741 C 0.46019 0.92633 0.45426 0.0
N742 N 0.46756 0.89218 0.26582 0.0
N743 N 0.47217 0.92318 0.40943 0.0
H744 H 0.56612 0.42705 0.48651 0.0
H745 H 0.56718 0.47961 0.16063 0.0
H746 H 0.50646 0.40542 0.3748 0.0
H747 H 0.62925 0.50086 0.26167 0.0
H748 H 0.54533 0.45317 0.24059 0.0
H749 H 0.58973 0.45398 0.40734 0.0
C750 C 0.55794 0.4277 0.44518 0.0
C751 C 0.53408 0.41361 0.43771 0.0
C752 C 0.56371 0.46356 0.24572 0.0
C753 C 0.56126 0.44496 0.34651 0.0
C754 C 0.57636 0.47886 0.19975 0.0
C755 C 0.60035 0.49273 0.2036 0.0
C756 C 0.57482 0.46173 0.29712 0.0
C757 C 0.61087 0.49068 0.25624 0.0
C758 C 0.5715 0.44324 0.39999 0.0
C759 C 0.52468 0.41564 0.38304 0.0
N760 N 0.59811 0.47551 0.30067 0.0
N761 N 0.53817 0.43092 0.34013 0.0
H762 H 0.1021 0.56208 0.1631 0.0
H763 H 0.15329 0.56108 0.49028 0.0
H764 H 0.14264 0.62413 0.26476 0.0
H765 H 0.11666 0.50195 0.37567 0.0
H766 H 0.14991 0.58469 0.41136 0.0
H767 H 0.10697 0.54049 0.24294 0.0
C768 C 0.11204 0.57132 0.20232 0.0
C769 C 0.122 0.59524 0.20631 0.0
C770 C 0.14276 0.56659 0.40332 0.0
C771 C 0.12779 0.56996 0.29984 0.0
C772 C 0.14479 0.55303 0.44837 0.0
C773 C 0.13542 0.52931 0.44001 0.0
C774 C 0.13114 0.55647 0.34913 0.0
C775 C 0.12436 0.52006 0.38463 0.0
C776 C 0.11485 0.55881 0.24825 0.0
C777 C 0.13459 0.60581 0.25917 0.0
N778 N 0.1225 0.53353 0.34194 0.0
N779 N 0.13713 0.59316 0.3036 0.0
H780 H 0.4039 0.84936 0.72322 0.0
H781 H 0.4655 0.83797 0.94307 0.0
H782 H 0.47097 0.89802 0.65689 0.0
H783 H 0.52315 0.86723 0.82208 0.0
H784 H 0.44023 0.83176 0.85881 0.0
H785 H 0.42049 0.82927 0.77527 0.0
C786 C 0.42206 0.8556 0.71889 0.0
C787 C 0.43627 0.87585 0.68769 0.0
C788 C 0.45822 0.83863 0.84963 0.0
C789 C 0.45545 0.85341 0.7481 0.0
C790 C 0.47276 0.84222 0.89821 0.0
C791 C 0.49657 0.85418 0.88996 0.0
C792 C 0.46771 0.84722 0.79267 0.0
C793 C 0.50495 0.85869 0.83082 0.0
C794 C 0.43158 0.84423 0.74906 0.0
C795 C 0.45954 0.8829 0.68227 0.0
N796 N 0.4906 0.85597 0.78463 0.0
N797 N 0.46845 0.87192 0.71302 0.0
H798 H 0.56532 0.40186 0.77861 0.0
H799 H 0.66461 0.52211 0.89826 0.0
H800 H 0.58667 0.4663 0.69116 0.0
H801 H 0.63803 0.45953 0.99821 0.0
H802 H 0.64273 0.50024 0.80979 0.0
H803 H 0.59753 0.42118 0.84834 0.0
C804 C 0.57695 0.42002 0.7736 0.0
C805 C 0.57322 0.43258 0.7296 0.0
C806 C 0.64195 0.49121 0.85068 0.0
C807 C 0.61006 0.45469 0.80872 0.0
C808 C 0.65436 0.50367 0.90089 0.0
C809 C 0.65249 0.49242 0.955 0.0
C810 C 0.62737 0.46748 0.85559 0.0
C811 C 0.63943 0.46862 0.95695 0.0
C812 C 0.59534 0.43102 0.81332 0.0
C813 C 0.5888 0.45603 0.72494 0.0
N814 N 0.62696 0.45687 0.90801 0.0
N815 N 0.60646 0.46637 0.76439 0.0
H816 H 0.17451 0.55537 0.79417 0.0
H817 H 0.15919 0.65941 0.89897 0.0
H818 H 0.13704 0.58078 0.69487 0.0
H819 H 0.18954 0.62957 1.00972 0.0
H820 H 0.15957 0.63678 0.81302 0.0
H821 H 0.18768 0.58762 0.86392 0.0
C822 C 0.1693 0.56788 0.78663 0.0
C823 C 0.15448 0.56531 0.73918 0.0
C824 C 0.16652 0.63542 0.85577 0.0
C825 C 0.16956 0.60219 0.81821 0.0
C826 C 0.16625 0.64828 0.90454 0.0
C827 C 0.17388 0.64573 0.96086 0.0
C828 C 0.17415 0.61977 0.86424 0.0
C829 C 0.1832 0.63152 0.96664 0.0
C830 C 0.17685 0.58629 0.82633 0.0
C831 C 0.14825 0.58199 0.73133 0.0
N832 N 0.18276 0.6187 0.91891 0.0
N833 N 0.15569 0.59964 0.77077 0.0
H834 H 0.63278 0.17196 0.65498 0.0
H835 H 0.55586 0.17568 0.83864 0.0
H836 H 0.66389 0.16277 0.81412 0.0
H837 H 0.58487 0.15085 0.97048 0.0
H838 H 0.59144 0.19162 0.78108 0.0
H839 H 0.61283 0.18565 0.71728 0.0
C840 C 0.63608 0.17361 0.70306 0.0
C841 C 0.64896 0.16495 0.72987 0.0
C842 C 0.5902 0.18285 0.8227 0.0
C843 C 0.62608 0.1807 0.8021 0.0
C844 C 0.5699 0.17392 0.8558 0.0
C845 C 0.56725 0.16123 0.90791 0.0
C846 C 0.60769 0.17879 0.84213 0.0
C847 C 0.58599 0.15983 0.9292 0.0
C848 C 0.62456 0.1815 0.73903 0.0
C849 C 0.65327 0.16831 0.79188 0.0
N850 N 0.60525 0.16816 0.89576 0.0
N851 N 0.64127 0.17527 0.82617 0.0
H852 H 0.45003 0.60678 0.71736 0.0
H853 H 0.40509 0.55398 0.97456 0.0
H854 H 0.51078 0.65471 0.81454 0.0
H855 H 0.4767 0.57958 1.01049 0.0
H856 H 0.41555 0.58699 0.91012 0.0
H857 H 0.43006 0.59296 0.81245 0.0
C858 C 0.45888 0.61501 0.75881 0.0
C859 C 0.48223 0.63132 0.75846 0.0
C860 C 0.42892 0.58558 0.93308 0.0
C861 C 0.45967 0.61549 0.86763 0.0
C862 C 0.42299 0.56683 0.9701 0.0
C863 C 0.44017 0.56364 0.99562 0.0
C864 C 0.45213 0.60098 0.92165 0.0
C865 C 0.46299 0.58102 0.98968 0.0
C866 C 0.44741 0.60724 0.81336 0.0
C867 C 0.49285 0.64171 0.81309 0.0
N868 N 0.46836 0.59876 0.95223 0.0
N869 N 0.48172 0.63299 0.86583 0.0
H870 H 0.90082 0.46358 0.02681 0.0
H871 H 0.85882 0.49646 0.8055 0.0
H872 H 0.86294 0.39457 0.95883 0.0
H873 H 0.86055 0.4403 0.71829 0.0
H874 H 0.85169 0.47659 0.90188 0.0
H875 H 0.87903 0.47411 0.96057 0.0
C876 C 0.88733 0.45047 0.99931 0.0
C877 C 0.88412 0.4284 0.99672 0.0
C878 C 0.85311 0.46841 0.86137 0.0
C879 C 0.85915 0.44025 0.92039 0.0
C880 C 0.85698 0.47963 0.80629 0.0
C881 C 0.86125 0.47036 0.75459 0.0
C882 C 0.85372 0.44801 0.86411 0.0
C883 C 0.85819 0.44836 0.75774 0.0
C884 C 0.87464 0.4564 0.9618 0.0
C885 C 0.86623 0.41193 0.96118 0.0
N886 N 0.85512 0.43812 0.812 0.0
N887 N 0.85495 0.41839 0.92263 0.0
H888 H 0.4498 0.17964 0.23496 0.0
H889 H 0.49417 0.29916 0.41053 0.0
H890 H 0.49842 0.24508 0.16023 0.0
H891 H 0.44958 0.23342 0.49001 0.0
H892 H 0.4947 0.27981 0.31721 0.0
H893 H 0.44919 0.19896 0.32802 0.0
C894 C 0.46052 0.19802 0.238 0.0
C895 C 0.47408 0.2106 0.18876 0.0
C896 C 0.4848 0.26961 0.35509 0.0
C897 C 0.47311 0.23307 0.29585 0.0
C898 C 0.48434 0.2807 0.40841 0.0
C899 C 0.47197 0.26804 0.45896 0.0
C900 C 0.47269 0.24558 0.35166 0.0
C901 C 0.45975 0.24404 0.45303 0.0
C902 C 0.46 0.2091 0.29123 0.0
C903 C 0.4873 0.23452 0.19598 0.0
N904 N 0.46045 0.23369 0.40079 0.0
N905 N 0.48641 0.24487 0.24802 0.0
H906 H 0.22966 0.44445 0.49852 0.0
H907 H 0.26245 0.49015 0.15892 0.0
H908 H 0.20711 0.48702 0.41412 0.0
H909 H 0.28292 0.44577 0.24251 0.0
H910 H 0.24215 0.48914 0.25103 0.0
H911 H 0.24903 0.44477 0.40537 0.0
C912 C 0.2288 0.45398 0.46053 0.0
C913 C 0.2168 0.46596 0.46502 0.0
C914 C 0.25105 0.4796 0.2493 0.0
C915 C 0.23904 0.46615 0.35672 0.0
C916 C 0.26262 0.48003 0.19634 0.0
C917 C 0.27445 0.46788 0.19203 0.0
C918 C 0.25122 0.46697 0.29917 0.0
C919 C 0.27432 0.4556 0.24326 0.0
C920 C 0.23984 0.45404 0.407 0.0
C921 C 0.21599 0.47745 0.41318 0.0
N922 N 0.26292 0.45545 0.2943 0.0
N923 N 0.22701 0.47735 0.36156 0.0
H924 H 0.77625 0.2482 0.49713 0.0
H925 H 0.808 0.23623 0.15506 0.0
H926 H 0.75577 0.18349 0.41084 0.0
H927 H 0.8305 0.30114 0.24252 0.0
H928 H 0.78881 0.21685 0.24786 0.0
H929 H 0.79605 0.26773 0.405 0.0
C930 C 0.77599 0.238 0.45909 0.0
C931 C 0.76433 0.21398 0.46264 0.0
C932 C 0.79794 0.23533 0.24694 0.0
C933 C 0.78694 0.23658 0.3555 0.0
C934 C 0.80886 0.2465 0.19362 0.0
C935 C 0.82082 0.27052 0.19016 0.0
C936 C 0.79884 0.24809 0.29801 0.0
C937 C 0.82166 0.28267 0.24267 0.0
C938 C 0.78726 0.24926 0.40613 0.0
C939 C 0.76428 0.20194 0.41067 0.0
N940 N 0.81077 0.27137 0.29408 0.0
N941 N 0.7754 0.21332 0.35962 0.0
H942 H 0.54013 0.82558 0.24478 0.0
H943 H 0.58392 0.74957 0.41552 0.0
H944 H 0.58388 0.80382 0.16237 0.0
H945 H 0.53681 0.76788 0.49367 0.0
H946 H 0.58434 0.76943 0.3229 0.0
H947 H 0.53986 0.80577 0.33746 0.0
C948 C 0.54983 0.81683 0.24612 0.0
C949 C 0.56187 0.81634 0.19494 0.0
C950 C 0.57392 0.76911 0.36037 0.0
C951 C 0.56145 0.79323 0.30149 0.0
C952 C 0.57352 0.75757 0.41334 0.0
C953 C 0.56047 0.75706 0.4634 0.0
C954 C 0.56117 0.78034 0.35688 0.0
C955 C 0.54757 0.76809 0.45725 0.0
C956 C 0.54952 0.80532 0.29907 0.0
C957 C 0.57395 0.80442 0.19988 0.0
N958 N 0.54832 0.77925 0.40549 0.0
N959 N 0.57339 0.7934 0.25175 0.0
H960 H 0.78199 0.53051 0.49452 0.0
H961 H 0.79541 0.57933 0.1586 0.0
H962 H 0.84727 0.57769 0.41569 0.0
H963 H 0.73012 0.53681 0.24363 0.0
H964 H 0.81461 0.57816 0.25071 0.0
H965 H 0.763 0.53174 0.4023 0.0
C966 C 0.79243 0.54124 0.458 0.0
C967 C 0.81643 0.55426 0.46387 0.0
C968 C 0.79609 0.56908 0.24939 0.0
C969 C 0.79445 0.55542 0.35649 0.0
C970 C 0.78503 0.56964 0.19651 0.0
C971 C 0.76096 0.55796 0.19262 0.0
C972 C 0.78313 0.55671 0.29946 0.0
C973 C 0.74864 0.54617 0.24421 0.0
C974 C 0.78147 0.54183 0.405 0.0
C975 C 0.82882 0.56726 0.41369 0.0
N976 N 0.75982 0.54576 0.2951 0.0
N977 N 0.81772 0.56756 0.36247 0.0
H978 H 0.22982 0.78937 0.15953 0.0
H979 H 0.26519 0.7757 0.49592 0.0
H980 H 0.20703 0.72407 0.24305 0.0
H981 H 0.28232 0.84066 0.4182 0.0
H982 H 0.24492 0.75671 0.40324 0.0
H983 H 0.25 0.80833 0.25239 0.0
C984 C 0.2291 0.77894 0.19723 0.0
C985 C 0.21673 0.75494 0.19273 0.0
C986 C 0.25313 0.77512 0.40635 0.0
C987 C 0.23991 0.77683 0.30048 0.0
C988 C 0.26469 0.78607 0.45962 0.0
C989 C 0.27553 0.80999 0.46582 0.0
C990 C 0.25234 0.78803 0.35801 0.0
C991 C 0.27455 0.82229 0.41594 0.0
C992 C 0.24059 0.78986 0.25058 0.0
C993 C 0.21616 0.74254 0.2441 0.0
N994 N 0.26319 0.81121 0.36453 0.0
N995 N 0.22763 0.75358 0.29546 0.0
H996 H 0.53658 0.76942 0.65892 0.0
H997 H 0.58198 0.80128 1.00017 0.0
H998 H 0.58283 0.75087 0.74091 0.0
H999 H 0.53723 0.82165 0.91751 0.0
H1000 H 0.58181 0.78217 0.90639 0.0
H1001 H 0.53638 0.78834 0.75289 0.0
C1002 C 0.5468 0.76937 0.69641 0.0
C1003 C 0.55977 0.75842 0.69133 0.0
C1004 C 0.572 0.79079 0.90869 0.0
C1005 C 0.55934 0.77999 0.80022 0.0
C1006 C 0.57194 0.80163 0.96259 0.0
C1007 C 0.5595 0.81313 0.96744 0.0
C1008 C 0.55954 0.79134 0.85862 0.0
C1009 C 0.54727 0.81326 0.91618 0.0
C1010 C 0.54655 0.78011 0.75037 0.0
C1011 C 0.57229 0.75871 0.74241 0.0
N1012 N 0.54759 0.80256 0.86422 0.0
N1013 N 0.57177 0.76928 0.79437 0.0
H1014 H 0.80408 0.57849 0.65901 0.0
H1015 H 0.76872 0.53032 0.9959 0.0
H1016 H 0.82325 0.5328 0.74063 0.0
H1017 H 0.75322 0.57922 0.91756 0.0
H1018 H 0.78794 0.53035 0.90251 0.0
H1019 H 0.78454 0.57809 0.75212 0.0
C1020 C 0.8041 0.56823 0.69628 0.0
C1021 C 0.81534 0.55556 0.69134 0.0
C1022 C 0.7803 0.54105 0.90566 0.0
C1023 C 0.79299 0.55524 0.79923 0.0
C1024 C 0.76936 0.54114 0.95929 0.0
C1025 C 0.75925 0.55486 0.96534 0.0
C1026 C 0.78121 0.55471 0.85704 0.0
C1027 C 0.7604 0.56811 0.91529 0.0
C1028 C 0.793 0.56814 0.74976 0.0
C1029 C 0.81505 0.54302 0.74212 0.0
N1030 N 0.77115 0.56773 0.86362 0.0
N1031 N 0.80405 0.54313 0.79361 0.0
H1032 H 0.30614 0.82025 0.74355 0.0
H1033 H 0.18642 0.74664 0.91719 0.0
H1034 H 0.24026 0.79739 0.66126 0.0
H1035 H 0.25176 0.76405 0.99513 0.0
H1036 H 0.20589 0.76555 0.82403 0.0
H1037 H 0.28677 0.80105 0.83701 0.0
C1038 C 0.28763 0.8113 0.74501 0.0
C1039 C 0.27493 0.81043 0.69376 0.0
C1040 C 0.21599 0.76522 0.86148 0.0
C1041 C 0.25248 0.78811 0.8013 0.0
C1042 C 0.20482 0.7542 0.91485 0.0
C1043 C 0.2173 0.75357 0.96491 0.0
C1044 C 0.23997 0.77591 0.8575 0.0
C1045 C 0.24127 0.76427 0.95861 0.0
C1046 C 0.27654 0.80019 0.79845 0.0
C1047 C 0.25089 0.79829 0.69883 0.0
N1048 N 0.25174 0.77496 0.90628 0.0
N1049 N 0.24054 0.7877 0.7513 0.0
H1050 H 0.4975 0.2562 0.65374 0.0
H1051 H 0.45217 0.22466 0.99449 0.0
H1052 H 0.45203 0.27565 0.73696 0.0
H1053 H 0.49524 0.20245 0.91003 0.0
H1054 H 0.45263 0.24396 0.90132 0.0
H1055 H 0.49725 0.23685 0.74682 0.0
C1056 C 0.48736 0.25637 0.69131 0.0
C1057 C 0.47473 0.2677 0.68677 0.0
C1058 C 0.46201 0.23489 0.90305 0.0
C1059 C 0.47465 0.2456 0.79473 0.0
C1060 C 0.4619 0.22394 0.95662 0.0
C1061 C 0.47383 0.21192 0.96085 0.0
C1062 C 0.47415 0.23397 0.85267 0.0
C1063 C 0.48564 0.21129 0.90919 0.0
C1064 C 0.48735 0.24537 0.74477 0.0
C1065 C 0.46232 0.26754 0.73801 0.0
N1066 N 0.48554 0.22216 0.85758 0.0
N1067 N 0.46259 0.25671 0.78946 0.0
H1068 H 0.21095 0.49113 0.74212 0.0
H1069 H 0.28666 0.44776 0.91529 0.0
H1070 H 0.23317 0.4477 0.65991 0.0
H1071 H 0.26464 0.49157 0.99606 0.0
H1072 H 0.2679 0.44806 0.82105 0.0
H1073 H 0.2305 0.49142 0.8352 0.0
C1074 C 0.21984 0.48157 0.74348 0.0
C1075 C 0.22033 0.46942 0.69242 0.0
C1076 C 0.26718 0.45761 0.85941 0.0
C1077 C 0.24315 0.46989 0.79964 0.0
C1078 C 0.27806 0.45759 0.91331 0.0
C1079 C 0.27725 0.46957 0.96438 0.0
C1080 C 0.25534 0.46974 0.85603 0.0
C1081 C 0.26548 0.48172 0.95864 0.0
C1082 C 0.23116 0.48186 0.79676 0.0
C1083 C 0.23252 0.45764 0.69736 0.0
N1084 N 0.25503 0.48146 0.90583 0.0
N1085 N 0.24335 0.45816 0.74973 0.0
H1086 H 0.75214 0.18212 0.73982 0.0
H1087 H 0.82837 0.30188 0.91306 0.0
H1088 H 0.77504 0.2478 0.65818 0.0
H1089 H 0.80544 0.23628 0.99526 0.0
H1090 H 0.80901 0.28238 0.81958 0.0
H1091 H 0.77082 0.20152 0.8341 0.0
C1092 C 0.76093 0.20059 0.74159 0.0
C1093 C 0.76201 0.21321 0.69023 0.0
C1094 C 0.80816 0.27224 0.85812 0.0
C1095 C 0.78384 0.23571 0.7987 0.0
C1096 C 0.81937 0.2834 0.91162 0.0
C1097 C 0.81858 0.27085 0.96283 0.0
C1098 C 0.79599 0.24823 0.8552 0.0
C1099 C 0.80629 0.24684 0.95774 0.0
C1100 C 0.77177 0.21169 0.79553 0.0
C1101 C 0.774 0.2372 0.69579 0.0
N1102 N 0.79557 0.2364 0.90522 0.0
N1103 N 0.7844 0.24758 0.74865 0.0
loop_
_geom_bond_atom_site_label_1
_geom_bond_atom_site_label_2
_geom_bond_distance
_geom_bond_site_symmetry_2
_ccdc_geom_bond_type
O0 Tb1 2.292 . S
O0 C3 1.255 . S
Tb1 O0 2.292 . S
Tb1 O17 2.326 . S
Tb1 O19 2.500 . S
Tb1 O20 2.473 1_556 S
Tb1 O23 2.324 1_556 S
Eu2 O6 2.292 . S
Eu2 C7 2.852 . S
Eu2 O18 2.324 1_554 S
Eu2 O22 2.326 . S
Eu2 O24 2.500 . S
Eu2 O25 2.473 . S
C3 O0 1.255 . S
C3 O4 1.247 . S
O4 C3 1.247 . S
C5 O17 1.242 . S
C5 O18 1.258 . S
O6 Eu2 2.292 . S
O6 C8 1.255 . S
C7 Eu2 2.852 . S
C7 C11 1.503 . S
C7 O24 1.273 . S
C7 O25 1.257 . S
C8 O6 1.255 . S
C8 O9 1.247 . S
O9 C8 1.247 . S
C10 O22 1.242 . S
C10 O23 1.258 . S
C11 C7 1.503 . S
C11 C12 1.379 . S
C11 C16 1.392 . S
C12 C11 1.379 . S
C12 C13 1.404 . S
C12 H26 0.929 1_554 S
C13 C12 1.404 . S
C13 C14 1.389 . S
C14 C13 1.389 . S
C14 C15 1.399 . S
C14 H27 0.931 . S
C15 C14 1.399 . S
C15 C16 1.390 . S
C16 C11 1.392 . S
C16 C15 1.390 . S
C16 H28 0.929 . S
O17 Tb1 2.326 . S
O17 C5 1.242 . S
O18 Eu2 2.324 1_556 S
O18 C5 1.258 . S
O19 Tb1 2.500 . S
O19 C21 1.273 . S
O20 Tb1 2.473 1_554 S
O20 C21 1.257 1_554 S
C21 O19 1.273 . S
C21 O20 1.257 1_556 S
O22 Eu2 2.326 . S
O22 C10 1.242 . S
O23 Tb1 2.324 1_554 S
O23 C10 1.258 . S
O24 Eu2 2.500 . S
O24 C7 1.273 . S
O25 Eu2 2.473 . S
O25 C7 1.257 . S
H26 C12 0.929 1_556 S
H27 C14 0.931 . S
H28 C16 0.929 . S
O29 Tb30 2.292 . S
O29 C32 1.255 . S
Tb30 O29 2.292 . S
Tb30 O46 2.326 . S
Tb30 O48 2.500 . S
Tb30 O49 2.473 1_556 S
Tb30 O52 2.324 1_556 S
Eu31 O35 2.292 . S
Eu31 C36 2.852 . S
Eu31 O47 2.324 1_554 S
Eu31 O51 2.326 . S
Eu31 O53 2.500 . S
Eu31 O54 2.473 . S
C32 O29 1.255 . S
C32 O33 1.247 . S
O33 C32 1.247 . S
C34 O46 1.242 . S
C34 O47 1.258 . S
O35 Eu31 2.292 . S
O35 C37 1.255 . S
C36 Eu31 2.852 . S
C36 C40 1.503 . S
C36 O53 1.273 . S
C36 O54 1.257 . S
C37 O35 1.255 . S
C37 O38 1.247 . S
O38 C37 1.247 . S
C39 O51 1.242 . S
C39 O52 1.258 . S
C40 C36 1.503 . S
C40 C41 1.379 . S
C40 C45 1.392 . S
C41 C40 1.379 . S
C41 C42 1.404 . S
C41 H55 0.929 1_554 S
C42 C41 1.404 . S
C42 C43 1.389 . S
C43 C42 1.389 . S
C43 C44 1.399 . S
C43 H56 0.931 . S
C44 C43 1.399 . S
C44 C45 1.390 . S
C45 C40 1.392 . S
C45 C44 1.390 . S
C45 H57 0.929 . S
O46 Tb30 2.326 . S
O46 C34 1.242 . S
O47 Eu31 2.324 1_556 S
O47 C34 1.258 . S
O48 Tb30 2.500 . S
O48 C50 1.273 . S
O49 Tb30 2.473 1_554 S
O49 C50 1.257 1_554 S
C50 O48 1.273 . S
C50 O49 1.257 1_556 S
O51 Eu31 2.326 . S
O51 C39 1.242 . S
O52 Tb30 2.324 1_554 S
O52 C39 1.258 . S
O53 Eu31 2.500 . S
O53 C36 1.273 . S
O54 Eu31 2.473 . S
O54 C36 1.257 . S
H55 C41 0.929 1_556 S
H56 C43 0.931 . S
H57 C45 0.929 . S
O58 Tb59 2.292 . S
O58 C61 1.255 . S
Tb59 O58 2.292 . S
Tb59 O75 2.326 . S
Tb59 O77 2.500 . S
Tb59 O78 2.473 1_556 S
Tb59 O81 2.324 1_556 S
Eu60 O64 2.292 . S
Eu60 C65 2.852 . S
Eu60 O76 2.324 1_554 S
Eu60 O80 2.326 . S
Eu60 O82 2.500 . S
Eu60 O83 2.473 . S
C61 O58 1.255 . S
C61 O62 1.247 . S
O62 C61 1.247 . S
C63 O75 1.242 . S
C63 O76 1.258 . S
O64 Eu60 2.292 . S
O64 C66 1.255 . S
C65 Eu60 2.852 . S
C65 C69 1.503 . S
C65 O82 1.273 . S
C65 O83 1.257 . S
C66 O64 1.255 . S
C66 O67 1.247 . S
O67 C66 1.247 . S
C68 O80 1.242 . S
C68 O81 1.258 . S
C69 C65 1.503 . S
C69 C70 1.379 . S
C69 C74 1.392 . S
C70 C69 1.379 . S
C70 C71 1.404 . S
C70 H84 0.929 1_554 S
C71 C70 1.404 . S
C71 C72 1.389 . S
C72 C71 1.389 . S
C72 C73 1.399 . S
C72 H85 0.931 . S
C73 C72 1.399 . S
C73 C74 1.390 . S
C74 C69 1.392 . S
C74 C73 1.390 . S
C74 H86 0.929 . S
O75 Tb59 2.326 . S
O75 C63 1.242 . S
O76 Eu60 2.324 1_556 S
O76 C63 1.258 . S
O77 Tb59 2.500 . S
O77 C79 1.273 . S
O78 Tb59 2.473 1_554 S
O78 C79 1.257 1_554 S
C79 O77 1.273 . S
C79 O78 1.257 1_556 S
O80 Eu60 2.326 . S
O80 C68 1.242 . S
O81 Tb59 2.324 1_554 S
O81 C68 1.258 . S
O82 Eu60 2.500 . S
O82 C65 1.273 . S
O83 Eu60 2.473 . S
O83 C65 1.257 . S
H84 C70 0.929 1_556 S
H85 C72 0.931 . S
H86 C74 0.929 . S
O87 Tb88 2.292 . S
O87 C90 1.255 . S
Tb88 O87 2.292 . S
Tb88 O104 2.326 . S
Tb88 O106 2.500 . S
Tb88 O107 2.473 1_556 S
Tb88 O110 2.324 1_556 S
Eu89 O93 2.292 . S
Eu89 C94 2.852 . S
Eu89 O105 2.324 1_554 S
Eu89 O109 2.326 . S
Eu89 O111 2.500 . S
Eu89 O112 2.473 . S
C90 O87 1.255 . S
C90 O91 1.247 . S
O91 C90 1.247 . S
C92 O104 1.242 . S
C92 O105 1.258 . S
O93 Eu89 2.292 . S
O93 C95 1.255 . S
C94 Eu89 2.852 . S
C94 C98 1.503 . S
C94 O111 1.273 . S
C94 O112 1.257 . S
C95 O93 1.255 . S
C95 O96 1.247 . S
O96 C95 1.247 . S
C97 O109 1.242 . S
C97 O110 1.258 . S
C98 C94 1.503 . S
C98 C99 1.379 . S
C98 C103 1.392 . S
C99 C98 1.379 . S
C99 C100 1.404 . S
C99 H113 0.929 1_554 S
C100 C99 1.404 . S
C100 C101 1.389 . S
C101 C100 1.389 . S
C101 C102 1.399 . S
C101 H114 0.931 . S
C102 C101 1.399 . S
C102 C103 1.390 . S
C103 C98 1.392 . S
C103 C102 1.390 . S
C103 H115 0.929 . S
O104 Tb88 2.326 . S
O104 C92 1.242 . S
O105 Eu89 2.324 1_556 S
O105 C92 1.258 . S
O106 Tb88 2.500 . S
O106 C108 1.273 . S
O107 Tb88 2.473 1_554 S
O107 C108 1.257 1_554 S
C108 O106 1.273 . S
C108 O107 1.257 1_556 S
O109 Eu89 2.326 . S
O109 C97 1.242 . S
O110 Tb88 2.324 1_554 S
O110 C97 1.258 . S
O111 Eu89 2.500 . S
O111 C94 1.273 . S
O112 Eu89 2.473 . S
O112 C94 1.257 . S
H113 C99 0.929 1_556 S
H114 C101 0.931 . S
H115 C103 0.929 . S
O116 Tb117 2.292 . S
O116 C119 1.255 . S
Tb117 O116 2.292 . S
Tb117 O133 2.326 . S
Tb117 O135 2.500 . S
Tb117 O136 2.473 1_556 S
Tb117 O139 2.324 1_556 S
Eu118 O122 2.292 . S
Eu118 C123 2.852 . S
Eu118 O134 2.324 1_554 S
Eu118 O138 2.326 . S
Eu118 O140 2.500 . S
Eu118 O141 2.473 . S
C119 O116 1.255 . S
C119 O120 1.247 . S
O120 C119 1.247 . S
C121 O133 1.242 . S
C121 O134 1.258 . S
O122 Eu118 2.292 . S
O122 C124 1.255 . S
C123 Eu118 2.852 . S
C123 C127 1.503 . S
C123 O140 1.273 . S
C123 O141 1.257 . S
C124 O122 1.255 . S
C124 O125 1.247 . S
O125 C124 1.247 . S
C126 O138 1.242 . S
C126 O139 1.258 . S
C127 C123 1.503 . S
C127 C128 1.379 . S
C127 C132 1.392 . S
C128 C127 1.379 . S
C128 C129 1.404 . S
C128 H142 0.929 1_554 S
C129 C128 1.404 . S
C129 C130 1.389 . S
C130 C129 1.389 . S
C130 C131 1.399 . S
C130 H143 0.931 . S
C131 C130 1.399 . S
C131 C132 1.390 . S
C132 C127 1.392 . S
C132 C131 1.390 . S
C132 H144 0.929 . S
O133 Tb117 2.326 . S
O133 C121 1.242 . S
O134 Eu118 2.324 1_556 S
O134 C121 1.258 . S
O135 Tb117 2.500 . S
O135 C137 1.273 . S
O136 Tb117 2.473 1_554 S
O136 C137 1.257 1_554 S
C137 O135 1.273 . S
C137 O136 1.257 1_556 S
O138 Eu118 2.326 . S
O138 C126 1.242 . S
O139 Tb117 2.324 1_554 S
O139 C126 1.258 . S
O140 Eu118 2.500 . S
O140 C123 1.273 . S
O141 Eu118 2.473 . S
O141 C123 1.257 . S
H142 C128 0.929 1_556 S
H143 C130 0.931 . S
H144 C132 0.929 . S
O145 Tb146 2.292 . S
O145 C148 1.255 . S
Tb146 O145 2.292 . S
Tb146 O162 2.326 . S
Tb146 O164 2.500 . S
Tb146 O165 2.473 1_556 S
Tb146 O168 2.324 1_556 S
Eu147 O151 2.292 . S
Eu147 C152 2.852 . S
Eu147 O163 2.324 1_554 S
Eu147 O167 2.326 . S
Eu147 O169 2.500 . S
Eu147 O170 2.473 . S
C148 O145 1.255 . S
C148 O149 1.247 . S
O149 C148 1.247 . S
C150 O162 1.242 . S
C150 O163 1.258 . S
O151 Eu147 2.292 . S
O151 C153 1.255 . S
C152 Eu147 2.852 . S
C152 C156 1.503 . S
C152 O169 1.273 . S
C152 O170 1.257 . S
C153 O151 1.255 . S
C153 O154 1.247 . S
O154 C153 1.247 . S
C155 O167 1.242 . S
C155 O168 1.258 . S
C156 C152 1.503 . S
C156 C157 1.379 . S
C156 C161 1.392 . S
C157 C156 1.379 . S
C157 C158 1.404 . S
C157 H171 0.929 1_554 S
C158 C157 1.404 . S
C158 C159 1.389 . S
C159 C158 1.389 . S
C159 C160 1.399 . S
C159 H172 0.931 . S
C160 C159 1.399 . S
C160 C161 1.390 . S
C161 C156 1.392 . S
C161 C160 1.390 . S
C161 H173 0.929 . S
O162 Tb146 2.326 . S
O162 C150 1.242 . S
O163 Eu147 2.324 1_556 S
O163 C150 1.258 . S
O164 Tb146 2.500 . S
O164 C166 1.273 . S
O165 Tb146 2.473 1_554 S
O165 C166 1.257 1_554 S
C166 O164 1.273 . S
C166 O165 1.257 1_556 S
O167 Eu147 2.326 . S
O167 C155 1.242 . S
O168 Tb146 2.324 1_554 S
O168 C155 1.258 . S
O169 Eu147 2.500 . S
O169 C152 1.273 . S
O170 Eu147 2.473 . S
O170 C152 1.257 . S
H171 C157 0.929 1_556 S
H172 C159 0.931 . S
H173 C161 0.929 . S
O174 Tb175 2.292 . S
O174 C177 1.255 . S
Tb175 O174 2.292 . S
Tb175 O191 2.326 . S
Tb175 O193 2.500 . S
Tb175 O194 2.473 . S
Tb175 O197 2.324 . S
Eu176 O180 2.292 . S
Eu176 C181 2.852 . S
Eu176 O192 2.324 . S
Eu176 O196 2.326 . S
Eu176 O198 2.500 . S
Eu176 O199 2.473 . S
C177 O174 1.255 . S
C177 O178 1.247 . S
O178 C177 1.247 . S
C179 O191 1.242 . S
C179 O192 1.258 . S
O180 Eu176 2.292 . S
O180 C182 1.255 . S
C181 Eu176 2.852 . S
C181 C185 1.503 . S
C181 O198 1.273 . S
C181 O199 1.257 . S
C182 O180 1.255 . S
C182 O183 1.247 . S
O183 C182 1.247 . S
C184 O196 1.242 . S
C184 O197 1.258 . S
C185 C181 1.503 . S
C185 C186 1.379 . S
C185 C190 1.392 . S
C186 C185 1.379 . S
C186 C187 1.404 . S
C186 H200 0.929 . S
C187 C186 1.404 . S
C187 C188 1.389 . S
C188 C187 1.389 . S
C188 C189 1.399 . S
C188 H201 0.931 . S
C189 C188 1.399 . S
C189 C190 1.390 . S
C190 C185 1.392 . S
C190 C189 1.390 . S
C190 H202 0.929 . S
O191 Tb175 2.326 . S
O191 C179 1.242 . S
O192 Eu176 2.324 . S
O192 C179 1.258 . S
O193 Tb175 2.500 . S
O193 C195 1.273 . S
O194 Tb175 2.473 . S
O194 C195 1.257 . S
C195 O193 1.273 . S
C195 O194 1.257 . S
O196 Eu176 2.326 . S
O196 C184 1.242 . S
O197 Tb175 2.324 . S
O197 C184 1.258 . S
O198 Eu176 2.500 . S
O198 C181 1.273 . S
O199 Eu176 2.473 . S
O199 C181 1.257 . S
H200 C186 0.929 . S
H201 C188 0.931 . S
H202 C190 0.929 . S
O203 Tb204 2.292 . S
O203 C206 1.255 . S
Tb204 O203 2.292 . S
Tb204 O220 2.326 . S
Tb204 O222 2.500 . S
Tb204 O223 2.473 . S
Tb204 O226 2.324 . S
Eu205 O209 2.292 . S
Eu205 C210 2.852 . S
Eu205 O221 2.324 . S
Eu205 O225 2.326 . S
Eu205 O227 2.500 . S
Eu205 O228 2.473 . S
C206 O203 1.255 . S
C206 O207 1.247 . S
O207 C206 1.247 . S
C208 O220 1.242 . S
C208 O221 1.258 . S
O209 Eu205 2.292 . S
O209 C211 1.255 . S
C210 Eu205 2.852 . S
C210 C214 1.503 . S
C210 O227 1.273 . S
C210 O228 1.257 . S
C211 O209 1.255 . S
C211 O212 1.247 . S
O212 C211 1.247 . S
C213 O225 1.242 . S
C213 O226 1.258 . S
C214 C210 1.503 . S
C214 C215 1.379 . S
C214 C219 1.392 . S
C215 C214 1.379 . S
C215 C216 1.404 . S
C215 H229 0.929 . S
C216 C215 1.404 . S
C216 C217 1.389 . S
C217 C216 1.389 . S
C217 C218 1.399 . S
C217 H230 0.931 . S
C218 C217 1.399 . S
C218 C219 1.390 . S
C219 C214 1.392 . S
C219 C218 1.390 . S
C219 H231 0.929 . S
O220 Tb204 2.326 . S
O220 C208 1.242 . S
O221 Eu205 2.324 . S
O221 C208 1.258 . S
O222 Tb204 2.500 . S
O222 C224 1.273 . S
O223 Tb204 2.473 . S
O223 C224 1.257 . S
C224 O222 1.273 . S
C224 O223 1.257 . S
O225 Eu205 2.326 . S
O225 C213 1.242 . S
O226 Tb204 2.324 . S
O226 C213 1.258 . S
O227 Eu205 2.500 . S
O227 C210 1.273 . S
O228 Eu205 2.473 . S
O228 C210 1.257 . S
H229 C215 0.929 . S
H230 C217 0.931 . S
H231 C219 0.929 . S
O232 Tb233 2.292 . S
O232 C235 1.255 . S
Tb233 O232 2.292 . S
Tb233 O249 2.326 . S
Tb233 O251 2.500 . S
Tb233 O252 2.473 . S
Tb233 O255 2.324 . S
Eu234 O238 2.292 . S
Eu234 C239 2.852 . S
Eu234 O250 2.324 . S
Eu234 O254 2.326 . S
Eu234 O256 2.500 . S
Eu234 O257 2.473 . S
C235 O232 1.255 . S
C235 O236 1.247 . S
O236 C235 1.247 . S
C237 O249 1.242 . S
C237 O250 1.258 . S
O238 Eu234 2.292 . S
O238 C240 1.255 . S
C239 Eu234 2.852 . S
C239 C243 1.503 . S
C239 O256 1.273 . S
C239 O257 1.257 . S
C240 O238 1.255 . S
C240 O241 1.247 . S
O241 C240 1.247 . S
C242 O254 1.242 . S
C242 O255 1.258 . S
C243 C239 1.503 . S
C243 C244 1.379 . S
C243 C248 1.392 . S
C244 C243 1.379 . S
C244 C245 1.404 . S
C244 H258 0.929 . S
C245 C244 1.404 . S
C245 C246 1.389 . S
C246 C245 1.389 . S
C246 C247 1.399 . S
C246 H259 0.931 . S
C247 C246 1.399 . S
C247 C248 1.390 . S
C248 C243 1.392 . S
C248 C247 1.390 . S
C248 H260 0.929 . S
O249 Tb233 2.326 . S
O249 C237 1.242 . S
O250 Eu234 2.324 . S
O250 C237 1.258 . S
O251 Tb233 2.500 . S
O251 C253 1.273 . S
O252 Tb233 2.473 . S
O252 C253 1.257 . S
C253 O251 1.273 . S
C253 O252 1.257 . S
O254 Eu234 2.326 . S
O254 C242 1.242 . S
O255 Tb233 2.324 . S
O255 C242 1.258 . S
O256 Eu234 2.500 . S
O256 C239 1.273 . S
O257 Eu234 2.473 . S
O257 C239 1.257 . S
H258 C244 0.929 . S
H259 C246 0.931 . S
H260 C248 0.929 . S
O261 Tb262 2.292 . S
O261 C264 1.255 . S
Tb262 O261 2.292 . S
Tb262 O278 2.326 . S
Tb262 O280 2.500 . S
Tb262 O281 2.473 . S
Tb262 O284 2.324 . S
Eu263 O267 2.292 . S
Eu263 C268 2.852 . S
Eu263 O279 2.324 . S
Eu263 O283 2.326 . S
Eu263 O285 2.500 . S
Eu263 O286 2.473 . S
C264 O261 1.255 . S
C264 O265 1.247 . S
O265 C264 1.247 . S
C266 O278 1.242 . S
C266 O279 1.258 . S
O267 Eu263 2.292 . S
O267 C269 1.255 . S
C268 Eu263 2.852 . S
C268 C272 1.503 . S
C268 O285 1.273 . S
C268 O286 1.257 . S
C269 O267 1.255 . S
C269 O270 1.247 . S
O270 C269 1.247 . S
C271 O283 1.242 . S
C271 O284 1.258 . S
C272 C268 1.503 . S
C272 C273 1.379 . S
C272 C277 1.392 . S
C273 C272 1.379 . S
C273 C274 1.404 . S
C273 H287 0.929 . S
C274 C273 1.404 . S
C274 C275 1.389 . S
C275 C274 1.389 . S
C275 C276 1.399 . S
C275 H288 0.931 . S
C276 C275 1.399 . S
C276 C277 1.390 . S
C277 C272 1.392 . S
C277 C276 1.390 . S
C277 H289 0.929 . S
O278 Tb262 2.326 . S
O278 C266 1.242 . S
O279 Eu263 2.324 . S
O279 C266 1.258 . S
O280 Tb262 2.500 . S
O280 C282 1.273 . S
O281 Tb262 2.473 . S
O281 C282 1.257 . S
C282 O280 1.273 . S
C282 O281 1.257 . S
O283 Eu263 2.326 . S
O283 C271 1.242 . S
O284 Tb262 2.324 . S
O284 C271 1.258 . S
O285 Eu263 2.500 . S
O285 C268 1.273 . S
O286 Eu263 2.473 . S
O286 C268 1.257 . S
H287 C273 0.929 . S
H288 C275 0.931 . S
H289 C277 0.929 . S
O290 Tb291 2.292 . S
O290 C293 1.255 . S
Tb291 O290 2.292 . S
Tb291 O307 2.326 . S
Tb291 O309 2.500 . S
Tb291 O310 2.473 . S
Tb291 O313 2.324 . S
Eu292 O296 2.292 . S
Eu292 C297 2.852 . S
Eu292 O308 2.324 . S
Eu292 O312 2.326 . S
Eu292 O314 2.500 . S
Eu292 O315 2.473 . S
C293 O290 1.255 . S
C293 O294 1.247 . S
O294 C293 1.247 . S
C295 O307 1.242 . S
C295 O308 1.258 . S
O296 Eu292 2.292 . S
O296 C298 1.255 . S
C297 Eu292 2.852 . S
C297 C301 1.503 . S
C297 O314 1.273 . S
C297 O315 1.257 . S
C298 O296 1.255 . S
C298 O299 1.247 . S
O299 C298 1.247 . S
C300 O312 1.242 . S
C300 O313 1.258 . S
C301 C297 1.503 . S
C301 C302 1.379 . S
C301 C306 1.392 . S
C302 C301 1.379 . S
C302 C303 1.404 . S
C302 H316 0.929 . S
C303 C302 1.404 . S
C303 C304 1.389 . S
C304 C303 1.389 . S
C304 C305 1.399 . S
C304 H317 0.931 . S
C305 C304 1.399 . S
C305 C306 1.390 . S
C306 C301 1.392 . S
C306 C305 1.390 . S
C306 H318 0.929 . S
O307 Tb291 2.326 . S
O307 C295 1.242 . S
O308 Eu292 2.324 . S
O308 C295 1.258 . S
O309 Tb291 2.500 . S
O309 C311 1.273 . S
O310 Tb291 2.473 . S
O310 C311 1.257 . S
C311 O309 1.273 . S
C311 O310 1.257 . S
O312 Eu292 2.326 . S
O312 C300 1.242 . S
O313 Tb291 2.324 . S
O313 C300 1.258 . S
O314 Eu292 2.500 . S
O314 C297 1.273 . S
O315 Eu292 2.473 . S
O315 C297 1.257 . S
H316 C302 0.929 . S
H317 C304 0.931 . S
H318 C306 0.929 . S
O319 Tb320 2.292 . S
O319 C322 1.255 . S
Tb320 O319 2.292 . S
Tb320 O336 2.326 . S
Tb320 O338 2.500 . S
Tb320 O339 2.473 . S
Tb320 O342 2.324 . S
Eu321 O325 2.292 . S
Eu321 C326 2.852 . S
Eu321 O337 2.324 . S
Eu321 O341 2.326 . S
Eu321 O343 2.500 . S
Eu321 O344 2.473 . S
C322 O319 1.255 . S
C322 O323 1.247 . S
O323 C322 1.247 . S
C324 O336 1.242 . S
C324 O337 1.258 . S
O325 Eu321 2.292 . S
O325 C327 1.255 . S
C326 Eu321 2.852 . S
C326 C330 1.503 . S
C326 O343 1.273 . S
C326 O344 1.257 . S
C327 O325 1.255 . S
C327 O328 1.247 . S
O328 C327 1.247 . S
C329 O341 1.242 . S
C329 O342 1.258 . S
C330 C326 1.503 . S
C330 C331 1.379 . S
C330 C335 1.392 . S
C331 C330 1.379 . S
C331 C332 1.404 . S
C331 H345 0.929 . S
C332 C331 1.404 . S
C332 C333 1.389 . S
C333 C332 1.389 . S
C333 C334 1.399 . S
C333 H346 0.931 . S
C334 C333 1.399 . S
C334 C335 1.390 . S
C335 C330 1.392 . S
C335 C334 1.390 . S
C335 H347 0.929 . S
O336 Tb320 2.326 . S
O336 C324 1.242 . S
O337 Eu321 2.324 . S
O337 C324 1.258 . S
O338 Tb320 2.500 . S
O338 C340 1.273 . S
O339 Tb320 2.473 . S
O339 C340 1.257 . S
C340 O338 1.273 . S
C340 O339 1.257 . S
O341 Eu321 2.326 . S
O341 C329 1.242 . S
O342 Tb320 2.324 . S
O342 C329 1.258 . S
O343 Eu321 2.500 . S
O343 C326 1.273 . S
O344 Eu321 2.473 . S
O344 C326 1.257 . S
H345 C331 0.929 . S
H346 C333 0.931 . S
H347 C335 0.929 . S
H348 C354 0.930 . S
H349 C358 0.930 . S
H350 C363 0.929 . S
H351 C361 0.929 . S
H352 C356 0.929 . S
H353 C362 0.929 . S
C354 H348 0.930 . S
C354 C355 1.367 . S
C354 C362 1.378 . S
C355 C354 1.367 . S
C355 C363 1.433 . S
C356 H352 0.929 . S
C356 C358 1.378 . S
C356 C360 1.350 . S
C357 C360 1.463 1_545 S
C357 C362 1.350 . S
C357 N365 1.427 . S
C358 H349 0.930 . S
C358 C356 1.378 . S
C358 C359 1.367 . S
C359 C358 1.367 . S
C359 C361 1.433 . S
C360 C356 1.350 . S
C360 C357 1.463 1_565 S
C360 N364 1.427 . S
C361 H351 0.929 . S
C361 C359 1.433 . S
C361 N364 1.384 . S
C362 H353 0.929 . S
C362 C354 1.378 . S
C362 C357 1.350 . S
C363 H350 0.929 . S
C363 C355 1.433 . S
C363 N365 1.384 . S
N364 C360 1.427 . S
N364 C361 1.384 . S
N365 C357 1.427 . S
N365 C363 1.384 . S
H366 C372 0.930 . S
H367 C376 0.930 . S
H368 C381 0.929 . S
H369 C379 0.929 . S
H370 C374 0.929 . S
H371 C380 0.929 . S
C372 H366 0.930 . S
C372 C373 1.367 . S
C372 C380 1.378 . S
C373 C372 1.367 . S
C373 C381 1.433 . S
C374 H370 0.929 . S
C374 C376 1.378 . S
C374 C378 1.350 . S
C375 C378 1.463 . S
C375 C380 1.350 . S
C375 N383 1.427 . S
C376 H367 0.930 . S
C376 C374 1.378 . S
C376 C377 1.367 . S
C377 C376 1.367 . S
C377 C379 1.433 . S
C378 C374 1.350 . S
C378 C375 1.463 . S
C378 N382 1.427 . S
C379 H369 0.929 . S
C379 C377 1.433 . S
C379 N382 1.384 . S
C380 H371 0.929 . S
C380 C372 1.378 . S
C380 C375 1.350 . S
C381 H368 0.929 . S
C381 C373 1.433 . S
C381 N383 1.384 . S
N382 C378 1.427 . S
N382 C379 1.384 . S
N383 C375 1.427 . S
N383 C381 1.384 . S
H384 C390 0.930 . S
H385 C394 0.930 . S
H386 C399 0.929 . S
H387 C397 0.929 . S
H388 C392 0.929 . S
H389 C398 0.929 . S
C390 H384 0.930 . S
C390 C391 1.367 . S
C390 C398 1.378 . S
C391 C390 1.367 . S
C391 C399 1.433 . S
C392 H388 0.929 . S
C392 C394 1.378 . S
C392 C396 1.350 . S
C393 C396 1.463 1_455 S
C393 C398 1.350 . S
C393 N401 1.427 . S
C394 H385 0.930 . S
C394 C392 1.378 . S
C394 C395 1.367 . S
C395 C394 1.367 . S
C395 C397 1.433 . S
C396 C392 1.350 . S
C396 C393 1.463 1_655 S
C396 N400 1.427 . S
C397 H387 0.929 . S
C397 C395 1.433 . S
C397 N400 1.384 . S
C398 H389 0.929 . S
C398 C390 1.378 . S
C398 C393 1.350 . S
C399 H386 0.929 . S
C399 C391 1.433 . S
C399 N401 1.384 . S
N400 C396 1.427 . S
N400 C397 1.384 . S
N401 C393 1.427 . S
N401 C399 1.384 . S
H402 C408 0.930 . S
H403 C412 0.930 . S
H404 C417 0.929 . S
H405 C415 0.929 . S
H406 C410 0.929 . S
H407 C416 0.929 . S
C408 H402 0.930 . S
C408 C409 1.367 . S
C408 C416 1.378 . S
C409 C408 1.367 . S
C409 C417 1.433 . S
C410 H406 0.929 . S
C410 C412 1.378 . S
C410 C414 1.350 . S
C411 C414 1.463 1_565 S
C411 C416 1.350 . S
C411 N419 1.427 . S
C412 H403 0.930 . S
C412 C410 1.378 . S
C412 C413 1.367 . S
C413 C412 1.367 . S
C413 C415 1.433 . S
C414 C410 1.350 . S
C414 C411 1.463 1_545 S
C414 N418 1.427 . S
C415 H405 0.929 . S
C415 C413 1.433 . S
C415 N418 1.384 . S
C416 H407 0.929 . S
C416 C408 1.378 . S
C416 C411 1.350 . S
C417 H404 0.929 . S
C417 C409 1.433 . S
C417 N419 1.384 . S
N418 C414 1.427 . S
N418 C415 1.384 . S
N419 C411 1.427 . S
N419 C417 1.384 . S
H420 C426 0.930 . S
H421 C430 0.930 . S
H422 C435 0.929 . S
H423 C433 0.929 . S
H424 C428 0.929 . S
H425 C434 0.929 . S
C426 H420 0.930 . S
C426 C427 1.367 . S
C426 C434 1.378 . S
C427 C426 1.367 . S
C427 C435 1.433 . S
C428 H424 0.929 . S
C428 C430 1.378 . S
C428 C432 1.350 . S
C429 C432 1.463 . S
C429 C434 1.350 . S
C429 N437 1.427 . S
C430 H421 0.930 . S
C430 C428 1.378 . S
C430 C431 1.367 . S
C431 C430 1.367 . S
C431 C433 1.433 . S
C432 C428 1.350 . S
C432 C429 1.463 . S
C432 N436 1.427 . S
C433 H423 0.929 . S
C433 C431 1.433 . S
C433 N436 1.384 . S
C434 H425 0.929 . S
C434 C426 1.378 . S
C434 C429 1.350 . S
C435 H422 0.929 . S
C435 C427 1.433 . S
C435 N437 1.384 . S
N436 C432 1.427 . S
N436 C433 1.384 . S
N437 C429 1.427 . S
N437 C435 1.384 . S
H438 C444 0.930 . S
H439 C448 0.930 . S
H440 C453 0.929 . S
H441 C451 0.929 . S
H442 C446 0.929 . S
H443 C452 0.929 . S
C444 H438 0.930 . S
C444 C445 1.367 . S
C444 C452 1.378 . S
C445 C444 1.367 . S
C445 C453 1.433 . S
C446 H442 0.929 . S
C446 C448 1.378 . S
C446 C450 1.350 . S
C447 C450 1.463 1_655 S
C447 C452 1.350 . S
C447 N455 1.427 . S
C448 H439 0.930 . S
C448 C446 1.378 . S
C448 C449 1.367 . S
C449 C448 1.367 . S
C449 C451 1.433 . S
C450 C446 1.350 . S
C450 C447 1.463 1_455 S
C450 N454 1.427 . S
C451 H441 0.929 . S
C451 C449 1.433 . S
C451 N454 1.384 . S
C452 H443 0.929 . S
C452 C444 1.378 . S
C452 C447 1.350 . S
C453 H440 0.929 . S
C453 C445 1.433 . S
C453 N455 1.384 . S
N454 C450 1.427 . S
N454 C451 1.384 . S
N455 C447 1.427 . S
N455 C453 1.384 . S
H456 C462 0.930 . S
H457 C466 0.930 . S
H458 C471 0.929 . S
H459 C469 0.929 . S
H460 C464 0.929 1_545 S
H461 C470 0.929 1_565 S
C462 H456 0.930 . S
C462 C463 1.367 . S
C462 C470 1.378 . S
C463 C462 1.367 . S
C463 C471 1.433 . S
C464 H460 0.929 1_565 S
C464 C466 1.378 . S
C464 C468 1.350 . S
C465 C468 1.463 1_545 S
C465 C470 1.350 . S
C465 N473 1.427 . S
C466 H457 0.930 . S
C466 C464 1.378 . S
C466 C467 1.367 . S
C467 C466 1.367 . S
C467 C469 1.433 . S
C468 C464 1.350 . S
C468 C465 1.463 1_565 S
C468 N472 1.427 . S
C469 H459 0.929 . S
C469 C467 1.433 . S
C469 N472 1.384 . S
C470 H461 0.929 1_545 S
C470 C462 1.378 . S
C470 C465 1.350 . S
C471 H458 0.929 . S
C471 C463 1.433 . S
C471 N473 1.384 . S
N472 C468 1.427 . S
N472 C469 1.384 . S
N473 C465 1.427 . S
N473 C471 1.384 . S
H474 C480 0.930 . S
H475 C484 0.930 . S
H476 C489 0.929 . S
H477 C487 0.929 . S
H478 C482 0.929 . S
H479 C488 0.929 . S
C480 H474 0.930 . S
C480 C481 1.367 . S
C480 C488 1.378 . S
C481 C480 1.367 . S
C481 C489 1.433 . S
C482 H478 0.929 . S
C482 C484 1.378 . S
C482 C486 1.350 . S
C483 C486 1.463 . S
C483 C488 1.350 . S
C483 N491 1.427 . S
C484 H475 0.930 . S
C484 C482 1.378 . S
C484 C485 1.367 . S
C485 C484 1.367 . S
C485 C487 1.433 . S
C486 C482 1.350 . S
C486 C483 1.463 . S
C486 N490 1.427 . S
C487 H477 0.929 . S
C487 C485 1.433 . S
C487 N490 1.384 . S
C488 H479 0.929 . S
C488 C480 1.378 . S
C488 C483 1.350 . S
C489 H476 0.929 . S
C489 C481 1.433 . S
C489 N491 1.384 . S
N490 C486 1.427 . S
N490 C487 1.384 . S
N491 C483 1.427 . S
N491 C489 1.384 . S
H492 C498 0.930 . S
H493 C502 0.930 . S
H494 C507 0.929 . S
H495 C505 0.929 . S
H496 C500 0.929 1_455 S
H497 C506 0.929 1_655 S
C498 H492 0.930 . S
C498 C499 1.367 . S
C498 C506 1.378 . S
C499 C498 1.367 . S
C499 C507 1.433 . S
C500 H496 0.929 1_655 S
C500 C502 1.378 . S
C500 C504 1.350 . S
C501 C504 1.463 1_455 S
C501 C506 1.350 . S
C501 N509 1.427 . S
C502 H493 0.930 . S
C502 C500 1.378 . S
C502 C503 1.367 . S
C503 C502 1.367 . S
C503 C505 1.433 . S
C504 C500 1.350 . S
C504 C501 1.463 1_655 S
C504 N508 1.427 . S
C505 H495 0.929 . S
C505 C503 1.433 . S
C505 N508 1.384 . S
C506 H497 0.929 1_455 S
C506 C498 1.378 . S
C506 C501 1.350 . S
C507 H494 0.929 . S
C507 C499 1.433 . S
C507 N509 1.384 . S
N508 C504 1.427 . S
N508 C505 1.384 . S
N509 C501 1.427 . S
N509 C507 1.384 . S
H510 C516 0.930 . S
H511 C520 0.930 . S
H512 C525 0.929 . S
H513 C523 0.929 . S
H514 C518 0.929 . S
H515 C524 0.929 . S
C516 H510 0.930 . S
C516 C517 1.367 . S
C516 C524 1.378 . S
C517 C516 1.367 . S
C517 C525 1.433 . S
C518 H514 0.929 . S
C518 C520 1.378 . S
C518 C522 1.350 . S
C519 C522 1.463 1_545 S
C519 C524 1.350 . S
C519 N527 1.427 . S
C520 H511 0.930 . S
C520 C518 1.378 . S
C520 C521 1.367 . S
C521 C520 1.367 . S
C521 C523 1.433 . S
C522 C518 1.350 . S
C522 C519 1.463 1_565 S
C522 N526 1.427 . S
C523 H513 0.929 . S
C523 C521 1.433 . S
C523 N526 1.384 . S
C524 H515 0.929 . S
C524 C516 1.378 . S
C524 C519 1.350 . S
C525 H512 0.929 . S
C525 C517 1.433 . S
C525 N527 1.384 . S
N526 C522 1.427 . S
N526 C523 1.384 . S
N527 C519 1.427 . S
N527 C525 1.384 . S
H528 C534 0.930 . S
H529 C538 0.930 . S
H530 C543 0.929 . S
H531 C541 0.929 . S
H532 C536 0.929 . S
H533 C542 0.929 . S
C534 H528 0.930 . S
C534 C535 1.367 . S
C534 C542 1.378 . S
C535 C534 1.367 . S
C535 C543 1.433 . S
C536 H532 0.929 . S
C536 C538 1.378 . S
C536 C540 1.350 . S
C537 C540 1.463 . S
C537 C542 1.350 . S
C537 N545 1.427 . S
C538 H529 0.930 . S
C538 C536 1.378 . S
C538 C539 1.367 . S
C539 C538 1.367 . S
C539 C541 1.433 . S
C540 C536 1.350 . S
C540 C537 1.463 . S
C540 N544 1.427 . S
C541 H531 0.929 . S
C541 C539 1.433 . S
C541 N544 1.384 . S
C542 H533 0.929 . S
C542 C534 1.378 . S
C542 C537 1.350 . S
C543 H530 0.929 . S
C543 C535 1.433 . S
C543 N545 1.384 . S
N544 C540 1.427 . S
N544 C541 1.384 . S
N545 C537 1.427 . S
N545 C543 1.384 . S
H546 C552 0.930 . S
H547 C556 0.930 . S
H548 C561 0.929 . S
H549 C559 0.929 . S
H550 C554 0.929 . S
H551 C560 0.929 . S
C552 H546 0.930 . S
C552 C553 1.367 . S
C552 C560 1.378 . S
C553 C552 1.367 . S
C553 C561 1.433 . S
C554 H550 0.929 . S
C554 C556 1.378 . S
C554 C558 1.350 . S
C555 C558 1.463 1_455 S
C555 C560 1.350 . S
C555 N563 1.427 . S
C556 H547 0.930 . S
C556 C554 1.378 . S
C556 C557 1.367 . S
C557 C556 1.367 . S
C557 C559 1.433 . S
C558 C554 1.350 . S
C558 C555 1.463 1_655 S
C558 N562 1.427 . S
C559 H549 0.929 . S
C559 C557 1.433 . S
C559 N562 1.384 . S
C560 H551 0.929 . S
C560 C552 1.378 . S
C560 C555 1.350 . S
C561 H548 0.929 . S
C561 C553 1.433 . S
C561 N563 1.384 . S
N562 C558 1.427 . S
N562 C559 1.384 . S
N563 C555 1.427 . S
N563 C561 1.384 . S
H564 C570 0.930 . S
H565 C574 0.930 . S
H566 C579 0.929 . S
H567 C577 0.929 . S
H568 C572 0.929 . S
H569 C578 0.929 . S
C570 H564 0.930 . S
C570 C571 1.367 . S
C570 C578 1.378 . S
C571 C570 1.367 . S
C571 C579 1.433 1_556 S
C572 H568 0.929 . S
C572 C574 1.378 . S
C572 C576 1.350 1_554 S
C573 C576 1.463 1_565 S
C573 C578 1.350 . S
C573 N581 1.427 1_556 S
C574 H565 0.930 . S
C574 C572 1.378 . S
C574 C575 1.367 1_554 S
C575 C574 1.367 1_556 S
C575 C577 1.433 . S
C576 C572 1.350 1_556 S
C576 C573 1.463 1_545 S
C576 N580 1.427 . S
C577 H567 0.929 . S
C577 C575 1.433 . S
C577 N580 1.384 . S
C578 H569 0.929 . S
C578 C570 1.378 . S
C578 C573 1.350 . S
C579 H566 0.929 . S
C579 C571 1.433 1_554 S
C579 N581 1.384 . S
N580 C576 1.427 . S
N580 C577 1.384 . S
N581 C573 1.427 1_554 S
N581 C579 1.384 . S
H582 C588 0.930 . S
H583 C592 0.930 . S
H584 C597 0.929 . S
H585 C595 0.929 . S
H586 C590 0.929 . S
H587 C596 0.929 . S
C588 H582 0.930 . S
C588 C589 1.367 1_554 S
C588 C596 1.378 . S
C589 C588 1.367 1_556 S
C589 C597 1.433 . S
C590 H586 0.929 . S
C590 C592 1.378 . S
C590 C594 1.350 . S
C591 C594 1.463 . S
C591 C596 1.350 1_556 S
C591 N599 1.427 . S
C592 H583 0.930 . S
C592 C590 1.378 . S
C592 C593 1.367 . S
C593 C592 1.367 . S
C593 C595 1.433 1_556 S
C594 C590 1.350 . S
C594 C591 1.463 . S
C594 N598 1.427 1_556 S
C595 H585 0.929 . S
C595 C593 1.433 1_554 S
C595 N598 1.384 . S
C596 H587 0.929 . S
C596 C588 1.378 . S
C596 C591 1.350 1_554 S
C597 H584 0.929 . S
C597 C589 1.433 . S
C597 N599 1.384 . S
N598 C594 1.427 1_554 S
N598 C595 1.384 . S
N599 C591 1.427 . S
N599 C597 1.384 . S
H600 C606 0.930 . S
H601 C610 0.930 . S
H602 C615 0.929 . S
H603 C613 0.929 . S
H604 C608 0.929 . S
H605 C614 0.929 . S
C606 H600 0.930 . S
C606 C607 1.367 1_554 S
C606 C614 1.378 . S
C607 C606 1.367 1_556 S
C607 C615 1.433 . S
C608 H604 0.929 . S
C608 C610 1.378 . S
C608 C612 1.350 . S
C609 C612 1.463 1_455 S
C609 C614 1.350 1_556 S
C609 N617 1.427 . S
C610 H601 0.930 . S
C610 C608 1.378 . S
C610 C611 1.367 . S
C611 C610 1.367 . S
C611 C613 1.433 1_556 S
C612 C608 1.350 . S
C612 C609 1.463 1_655 S
C612 N616 1.427 1_556 S
C613 H603 0.929 . S
C613 C611 1.433 1_554 S
C613 N616 1.384 . S
C614 H605 0.929 . S
C614 C606 1.378 . S
C614 C609 1.350 1_554 S
C615 H602 0.929 . S
C615 C607 1.433 . S
C615 N617 1.384 . S
N616 C612 1.427 1_554 S
N616 C613 1.384 . S
N617 C609 1.427 . S
N617 C615 1.384 . S
H618 C624 0.930 . S
H619 C628 0.930 . S
H620 C633 0.929 . S
H621 C631 0.929 . S
H622 C626 0.929 1_655 S
H623 C632 0.929 1_455 S
C624 H618 0.930 . S
C624 C625 1.367 . S
C624 C632 1.378 . S
C625 C624 1.367 . S
C625 C633 1.433 . S
C626 H622 0.929 1_455 S
C626 C628 1.378 . S
C626 C630 1.350 . S
C627 C630 1.463 1_655 S
C627 C632 1.350 . S
C627 N635 1.427 . S
C628 H619 0.930 . S
C628 C626 1.378 . S
C628 C629 1.367 . S
C629 C628 1.367 . S
C629 C631 1.433 . S
C630 C626 1.350 . S
C630 C627 1.463 1_455 S
C630 N634 1.427 . S
C631 H621 0.929 . S
C631 C629 1.433 . S
C631 N634 1.384 . S
C632 H623 0.929 1_655 S
C632 C624 1.378 . S
C632 C627 1.350 . S
C633 H620 0.929 . S
C633 C625 1.433 . S
C633 N635 1.384 . S
N634 C630 1.427 . S
N634 C631 1.384 . S
N635 C627 1.427 . S
N635 C633 1.384 . S
H636 C642 0.930 . S
H637 C646 0.930 . S
H638 C651 0.929 . S
H639 C649 0.929 . S
H640 C644 0.929 . S
H641 C650 0.929 . S
C642 H636 0.930 . S
C642 C643 1.367 . S
C642 C650 1.378 . S
C643 C642 1.367 . S
C643 C651 1.433 . S
C644 H640 0.929 . S
C644 C646 1.378 . S
C644 C648 1.350 . S
C645 C648 1.463 1_565 S
C645 C650 1.350 . S
C645 N653 1.427 . S
C646 H637 0.930 . S
C646 C644 1.378 . S
C646 C647 1.367 . S
C647 C646 1.367 . S
C647 C649 1.433 . S
C648 C644 1.350 . S
C648 C645 1.463 1_545 S
C648 N652 1.427 . S
C649 H639 0.929 . S
C649 C647 1.433 . S
C649 N652 1.384 . S
C650 H641 0.929 . S
C650 C642 1.378 . S
C650 C645 1.350 . S
C651 H638 0.929 . S
C651 C643 1.433 . S
C651 N653 1.384 . S
N652 C648 1.427 . S
N652 C649 1.384 . S
N653 C645 1.427 . S
N653 C651 1.384 . S
H654 C660 0.930 . S
H655 C664 0.930 . S
H656 C669 0.929 . S
H657 C667 0.929 . S
H658 C662 0.929 . S
H659 C668 0.929 . S
C660 H654 0.930 . S
C660 C661 1.367 . S
C660 C668 1.378 . S
C661 C660 1.367 . S
C661 C669 1.433 . S
C662 H658 0.929 . S
C662 C664 1.378 . S
C662 C666 1.350 . S
C663 C666 1.463 . S
C663 C668 1.350 . S
C663 N671 1.427 . S
C664 H655 0.930 . S
C664 C662 1.378 . S
C664 C665 1.367 . S
C665 C664 1.367 . S
C665 C667 1.433 . S
C666 C662 1.350 . S
C666 C663 1.463 . S
C666 N670 1.427 . S
C667 H657 0.929 . S
C667 C665 1.433 . S
C667 N670 1.384 . S
C668 H659 0.929 . S
C668 C660 1.378 . S
C668 C663 1.350 . S
C669 H656 0.929 . S
C669 C661 1.433 . S
C669 N671 1.384 . S
N670 C666 1.427 . S
N670 C667 1.384 . S
N671 C663 1.427 . S
N671 C669 1.384 . S
H672 C678 0.930 . S
H673 C682 0.930 . S
H674 C687 0.929 . S
H675 C685 0.929 . S
H676 C680 0.929 . S
H677 C686 0.929 . S
C678 H672 0.930 . S
C678 C679 1.367 . S
C678 C686 1.378 . S
C679 C678 1.367 . S
C679 C687 1.433 . S
C680 H676 0.929 . S
C680 C682 1.378 . S
C680 C684 1.350 . S
C681 C684 1.463 . S
C681 C686 1.350 . S
C681 N689 1.427 . S
C682 H673 0.930 . S
C682 C680 1.378 . S
C682 C683 1.367 . S
C683 C682 1.367 . S
C683 C685 1.433 . S
C684 C680 1.350 . S
C684 C681 1.463 . S
C684 N688 1.427 . S
C685 H675 0.929 . S
C685 C683 1.433 . S
C685 N688 1.384 . S
C686 H677 0.929 . S
C686 C678 1.378 . S
C686 C681 1.350 . S
C687 H674 0.929 . S
C687 C679 1.433 . S
C687 N689 1.384 . S
N688 C684 1.427 . S
N688 C685 1.384 . S
N689 C681 1.427 . S
N689 C687 1.384 . S
H690 C696 0.930 . S
H691 C700 0.930 . S
H692 C705 0.929 . S
H693 C703 0.929 . S
H694 C698 0.929 . S
H695 C704 0.929 . S
C696 H690 0.930 . S
C696 C697 1.367 . S
C696 C704 1.378 . S
C697 C696 1.367 . S
C697 C705 1.433 . S
C698 H694 0.929 . S
C698 C700 1.378 . S
C698 C702 1.350 . S
C699 C702 1.463 . S
C699 C704 1.350 . S
C699 N707 1.427 . S
C700 H691 0.930 . S
C700 C698 1.378 . S
C700 C701 1.367 . S
C701 C700 1.367 . S
C701 C703 1.433 . S
C702 C698 1.350 . S
C702 C699 1.463 . S
C702 N706 1.427 . S
C703 H693 0.929 . S
C703 C701 1.433 . S
C703 N706 1.384 . S
C704 H695 0.929 . S
C704 C696 1.378 . S
C704 C699 1.350 . S
C705 H692 0.929 . S
C705 C697 1.433 . S
C705 N707 1.384 . S
N706 C702 1.427 . S
N706 C703 1.384 . S
N707 C699 1.427 . S
N707 C705 1.384 . S
H708 C714 0.930 . S
H709 C718 0.930 . S
H710 C723 0.929 . S
H711 C721 0.929 . S
H712 C716 0.929 . S
H713 C722 0.929 . S
C714 H708 0.930 . S
C714 C715 1.367 . S
C714 C722 1.378 . S
C715 C714 1.367 . S
C715 C723 1.433 . S
C716 H712 0.929 . S
C716 C718 1.378 . S
C716 C720 1.350 . S
C717 C720 1.463 . S
C717 C722 1.350 . S
C717 N725 1.427 . S
C718 H709 0.930 . S
C718 C716 1.378 . S
C718 C719 1.367 . S
C719 C718 1.367 . S
C719 C721 1.433 . S
C720 C716 1.350 . S
C720 C717 1.463 . S
C720 N724 1.427 . S
C721 H711 0.929 . S
C721 C719 1.433 . S
C721 N724 1.384 . S
C722 H713 0.929 . S
C722 C714 1.378 . S
C722 C717 1.350 . S
C723 H710 0.929 . S
C723 C715 1.433 . S
C723 N725 1.384 . S
N724 C720 1.427 . S
N724 C721 1.384 . S
N725 C717 1.427 . S
N725 C723 1.384 . S
H726 C732 0.930 . S
H727 C736 0.930 . S
H728 C741 0.929 . S
H729 C739 0.929 . S
H730 C734 0.929 . S
H731 C740 0.929 . S
C732 H726 0.930 . S
C732 C733 1.367 . S
C732 C740 1.378 . S
C733 C732 1.367 . S
C733 C741 1.433 . S
C734 H730 0.929 . S
C734 C736 1.378 . S
C734 C738 1.350 . S
C735 C738 1.463 . S
C735 C740 1.350 . S
C735 N743 1.427 . S
C736 H727 0.930 . S
C736 C734 1.378 . S
C736 C737 1.367 . S
C737 C736 1.367 . S
C737 C739 1.433 . S
C738 C734 1.350 . S
C738 C735 1.463 . S
C738 N742 1.427 . S
C739 H729 0.929 . S
C739 C737 1.433 . S
C739 N742 1.384 . S
C740 H731 0.929 . S
C740 C732 1.378 . S
C740 C735 1.350 . S
C741 H728 0.929 . S
C741 C733 1.433 . S
C741 N743 1.384 . S
N742 C738 1.427 . S
N742 C739 1.384 . S
N743 C735 1.427 . S
N743 C741 1.384 . S
H744 C750 0.930 . S
H745 C754 0.930 . S
H746 C759 0.929 . S
H747 C757 0.929 . S
H748 C752 0.929 . S
H749 C758 0.929 . S
C750 H744 0.930 . S
C750 C751 1.367 . S
C750 C758 1.378 . S
C751 C750 1.367 . S
C751 C759 1.433 . S
C752 H748 0.929 . S
C752 C754 1.378 . S
C752 C756 1.350 . S
C753 C756 1.463 . S
C753 C758 1.350 . S
C753 N761 1.427 . S
C754 H745 0.930 . S
C754 C752 1.378 . S
C754 C755 1.367 . S
C755 C754 1.367 . S
C755 C757 1.433 . S
C756 C752 1.350 . S
C756 C753 1.463 . S
C756 N760 1.427 . S
C757 H747 0.929 . S
C757 C755 1.433 . S
C757 N760 1.384 . S
C758 H749 0.929 . S
C758 C750 1.378 . S
C758 C753 1.350 . S
C759 H746 0.929 . S
C759 C751 1.433 . S
C759 N761 1.384 . S
N760 C756 1.427 . S
N760 C757 1.384 . S
N761 C753 1.427 . S
N761 C759 1.384 . S
H762 C768 0.930 . S
H763 C772 0.930 . S
H764 C777 0.929 . S
H765 C775 0.929 . S
H766 C770 0.929 . S
H767 C776 0.929 . S
C768 H762 0.930 . S
C768 C769 1.367 . S
C768 C776 1.378 . S
C769 C768 1.367 . S
C769 C777 1.433 . S
C770 H766 0.929 . S
C770 C772 1.378 . S
C770 C774 1.350 . S
C771 C774 1.463 . S
C771 C776 1.350 . S
C771 N779 1.427 . S
C772 H763 0.930 . S
C772 C770 1.378 . S
C772 C773 1.367 . S
C773 C772 1.367 . S
C773 C775 1.433 . S
C774 C770 1.350 . S
C774 C771 1.463 . S
C774 N778 1.427 . S
C775 H765 0.929 . S
C775 C773 1.433 . S
C775 N778 1.384 . S
C776 H767 0.929 . S
C776 C768 1.378 . S
C776 C771 1.350 . S
C777 H764 0.929 . S
C777 C769 1.433 . S
C777 N779 1.384 . S
N778 C774 1.427 . S
N778 C775 1.384 . S
N779 C771 1.427 . S
N779 C777 1.384 . S
H780 C786 0.930 . S
H781 C790 0.930 . S
H782 C795 0.929 . S
H783 C793 0.929 . S
H784 C788 0.929 . S
H785 C794 0.929 . S
C786 H780 0.930 . S
C786 C787 1.367 . S
C786 C794 1.378 . S
C787 C786 1.367 . S
C787 C795 1.433 . S
C788 H784 0.929 . S
C788 C790 1.378 . S
C788 C792 1.350 . S
C789 C792 1.463 . S
C789 C794 1.350 . S
C789 N797 1.427 . S
C790 H781 0.930 . S
C790 C788 1.378 . S
C790 C791 1.367 . S
C791 C790 1.367 . S
C791 C793 1.433 . S
C792 C788 1.350 . S
C792 C789 1.463 . S
C792 N796 1.427 . S
C793 H783 0.929 . S
C793 C791 1.433 . S
C793 N796 1.384 . S
C794 H785 0.929 . S
C794 C786 1.378 . S
C794 C789 1.350 . S
C795 H782 0.929 . S
C795 C787 1.433 . S
C795 N797 1.384 . S
N796 C792 1.427 . S
N796 C793 1.384 . S
N797 C789 1.427 . S
N797 C795 1.384 . S
H798 C804 0.930 . S
H799 C808 0.930 . S
H800 C813 0.929 . S
H801 C811 0.929 . S
H802 C806 0.929 . S
H803 C812 0.929 . S
C804 H798 0.930 . S
C804 C805 1.367 . S
C804 C812 1.378 . S
C805 C804 1.367 . S
C805 C813 1.433 . S
C806 H802 0.929 . S
C806 C808 1.378 . S
C806 C810 1.350 . S
C807 C810 1.463 . S
C807 C812 1.350 . S
C807 N815 1.427 . S
C808 H799 0.930 . S
C808 C806 1.378 . S
C808 C809 1.367 . S
C809 C808 1.367 . S
C809 C811 1.433 . S
C810 C806 1.350 . S
C810 C807 1.463 . S
C810 N814 1.427 . S
C811 H801 0.929 . S
C811 C809 1.433 . S
C811 N814 1.384 . S
C812 H803 0.929 . S
C812 C804 1.378 . S
C812 C807 1.350 . S
C813 H800 0.929 . S
C813 C805 1.433 . S
C813 N815 1.384 . S
N814 C810 1.427 . S
N814 C811 1.384 . S
N815 C807 1.427 . S
N815 C813 1.384 . S
H816 C822 0.930 . S
H817 C826 0.930 . S
H818 C831 0.929 . S
H819 C829 0.929 . S
H820 C824 0.929 . S
H821 C830 0.929 . S
C822 H816 0.930 . S
C822 C823 1.367 . S
C822 C830 1.378 . S
C823 C822 1.367 . S
C823 C831 1.433 . S
C824 H820 0.929 . S
C824 C826 1.378 . S
C824 C828 1.350 . S
C825 C828 1.463 . S
C825 C830 1.350 . S
C825 N833 1.427 . S
C826 H817 0.930 . S
C826 C824 1.378 . S
C826 C827 1.367 . S
C827 C826 1.367 . S
C827 C829 1.433 . S
C828 C824 1.350 . S
C828 C825 1.463 . S
C828 N832 1.427 . S
C829 H819 0.929 . S
C829 C827 1.433 . S
C829 N832 1.384 . S
C830 H821 0.929 . S
C830 C822 1.378 . S
C830 C825 1.350 . S
C831 H818 0.929 . S
C831 C823 1.433 . S
C831 N833 1.384 . S
N832 C828 1.427 . S
N832 C829 1.384 . S
N833 C825 1.427 . S
N833 C831 1.384 . S
H834 C840 0.930 . S
H835 C844 0.930 . S
H836 C849 0.929 . S
H837 C847 0.929 . S
H838 C842 0.929 . S
H839 C848 0.929 . S
C840 H834 0.930 . S
C840 C841 1.367 . S
C840 C848 1.378 . S
C841 C840 1.367 . S
C841 C849 1.433 . S
C842 H838 0.929 . S
C842 C844 1.378 . S
C842 C846 1.350 . S
C843 C846 1.463 . S
C843 C848 1.350 . S
C843 N851 1.427 . S
C844 H835 0.930 . S
C844 C842 1.378 . S
C844 C845 1.367 . S
C845 C844 1.367 . S
C845 C847 1.433 . S
C846 C842 1.350 . S
C846 C843 1.463 . S
C846 N850 1.427 . S
C847 H837 0.929 . S
C847 C845 1.433 . S
C847 N850 1.384 . S
C848 H839 0.929 . S
C848 C840 1.378 . S
C848 C843 1.350 . S
C849 H836 0.929 . S
C849 C841 1.433 . S
C849 N851 1.384 . S
N850 C846 1.427 . S
N850 C847 1.384 . S
N851 C843 1.427 . S
N851 C849 1.384 . S
H852 C858 0.930 . S
H853 C862 0.930 . S
H854 C867 0.929 . S
H855 C865 0.929 . S
H856 C860 0.929 . S
H857 C866 0.929 . S
C858 H852 0.930 . S
C858 C859 1.367 . S
C858 C866 1.378 . S
C859 C858 1.367 . S
C859 C867 1.433 . S
C860 H856 0.929 . S
C860 C862 1.378 . S
C860 C864 1.350 . S
C861 C864 1.463 . S
C861 C866 1.350 . S
C861 N869 1.427 . S
C862 H853 0.930 . S
C862 C860 1.378 . S
C862 C863 1.367 . S
C863 C862 1.367 . S
C863 C865 1.433 . S
C864 C860 1.350 . S
C864 C861 1.463 . S
C864 N868 1.427 . S
C865 H855 0.929 . S
C865 C863 1.433 . S
C865 N868 1.384 . S
C866 H857 0.929 . S
C866 C858 1.378 . S
C866 C861 1.350 . S
C867 H854 0.929 . S
C867 C859 1.433 . S
C867 N869 1.384 . S
N868 C864 1.427 . S
N868 C865 1.384 . S
N869 C861 1.427 . S
N869 C867 1.384 . S
H870 C876 0.930 . S
H871 C880 0.930 . S
H872 C885 0.929 . S
H873 C883 0.929 . S
H874 C878 0.929 . S
H875 C884 0.929 . S
C876 H870 0.930 . S
C876 C877 1.367 . S
C876 C884 1.378 . S
C877 C876 1.367 . S
C877 C885 1.433 . S
C878 H874 0.929 . S
C878 C880 1.378 . S
C878 C882 1.350 . S
C879 C882 1.463 . S
C879 C884 1.350 . S
C879 N887 1.427 . S
C880 H871 0.930 . S
C880 C878 1.378 . S
C880 C881 1.367 . S
C881 C880 1.367 . S
C881 C883 1.433 . S
C882 C878 1.350 . S
C882 C879 1.463 . S
C882 N886 1.427 . S
C883 H873 0.929 . S
C883 C881 1.433 . S
C883 N886 1.384 . S
C884 H875 0.929 . S
C884 C876 1.378 . S
C884 C879 1.350 . S
C885 H872 0.929 . S
C885 C877 1.433 . S
C885 N887 1.384 . S
N886 C882 1.427 . S
N886 C883 1.384 . S
N887 C879 1.427 . S
N887 C885 1.384 . S
H888 C894 0.930 . S
H889 C898 0.930 . S
H890 C903 0.929 . S
H891 C901 0.929 . S
H892 C896 0.929 . S
H893 C902 0.929 . S
C894 H888 0.930 . S
C894 C895 1.367 . S
C894 C902 1.378 . S
C895 C894 1.367 . S
C895 C903 1.433 . S
C896 H892 0.929 . S
C896 C898 1.378 . S
C896 C900 1.350 . S
C897 C900 1.463 . S
C897 C902 1.350 . S
C897 N905 1.427 . S
C898 H889 0.930 . S
C898 C896 1.378 . S
C898 C899 1.367 . S
C899 C898 1.367 . S
C899 C901 1.433 . S
C900 C896 1.350 . S
C900 C897 1.463 . S
C900 N904 1.427 . S
C901 H891 0.929 . S
C901 C899 1.433 . S
C901 N904 1.384 . S
C902 H893 0.929 . S
C902 C894 1.378 . S
C902 C897 1.350 . S
C903 H890 0.929 . S
C903 C895 1.433 . S
C903 N905 1.384 . S
N904 C900 1.427 . S
N904 C901 1.384 . S
N905 C897 1.427 . S
N905 C903 1.384 . S
H906 C912 0.930 . S
H907 C916 0.930 . S
H908 C921 0.929 . S
H909 C919 0.929 . S
H910 C914 0.929 . S
H911 C920 0.929 . S
C912 H906 0.930 . S
C912 C913 1.367 . S
C912 C920 1.378 . S
C913 C912 1.367 . S
C913 C921 1.433 . S
C914 H910 0.929 . S
C914 C916 1.378 . S
C914 C918 1.350 . S
C915 C918 1.463 . S
C915 C920 1.350 . S
C915 N923 1.427 . S
C916 H907 0.930 . S
C916 C914 1.378 . S
C916 C917 1.367 . S
C917 C916 1.367 . S
C917 C919 1.433 . S
C918 C914 1.350 . S
C918 C915 1.463 . S
C918 N922 1.427 . S
C919 H909 0.929 . S
C919 C917 1.433 . S
C919 N922 1.384 . S
C920 H911 0.929 . S
C920 C912 1.378 . S
C920 C915 1.350 . S
C921 H908 0.929 . S
C921 C913 1.433 . S
C921 N923 1.384 . S
N922 C918 1.427 . S
N922 C919 1.384 . S
N923 C915 1.427 . S
N923 C921 1.384 . S
H924 C930 0.930 . S
H925 C934 0.930 . S
H926 C939 0.929 . S
H927 C937 0.929 . S
H928 C932 0.929 . S
H929 C938 0.929 . S
C930 H924 0.930 . S
C930 C931 1.367 . S
C930 C938 1.378 . S
C931 C930 1.367 . S
C931 C939 1.433 . S
C932 H928 0.929 . S
C932 C934 1.378 . S
C932 C936 1.350 . S
C933 C936 1.463 . S
C933 C938 1.350 . S
C933 N941 1.427 . S
C934 H925 0.930 . S
C934 C932 1.378 . S
C934 C935 1.367 . S
C935 C934 1.367 . S
C935 C937 1.433 . S
C936 C932 1.350 . S
C936 C933 1.463 . S
C936 N940 1.427 . S
C937 H927 0.929 . S
C937 C935 1.433 . S
C937 N940 1.384 . S
C938 H929 0.929 . S
C938 C930 1.378 . S
C938 C933 1.350 . S
C939 H926 0.929 . S
C939 C931 1.433 . S
C939 N941 1.384 . S
N940 C936 1.427 . S
N940 C937 1.384 . S
N941 C933 1.427 . S
N941 C939 1.384 . S
H942 C948 0.930 . S
H943 C952 0.930 . S
H944 C957 0.929 . S
H945 C955 0.929 . S
H946 C950 0.929 . S
H947 C956 0.929 . S
C948 H942 0.930 . S
C948 C949 1.367 . S
C948 C956 1.378 . S
C949 C948 1.367 . S
C949 C957 1.433 . S
C950 H946 0.929 . S
C950 C952 1.378 . S
C950 C954 1.350 . S
C951 C954 1.463 . S
C951 C956 1.350 . S
C951 N959 1.427 . S
C952 H943 0.930 . S
C952 C950 1.378 . S
C952 C953 1.367 . S
C953 C952 1.367 . S
C953 C955 1.433 . S
C954 C950 1.350 . S
C954 C951 1.463 . S
C954 N958 1.427 . S
C955 H945 0.929 . S
C955 C953 1.433 . S
C955 N958 1.384 . S
C956 H947 0.929 . S
C956 C948 1.378 . S
C956 C951 1.350 . S
C957 H944 0.929 . S
C957 C949 1.433 . S
C957 N959 1.384 . S
N958 C954 1.427 . S
N958 C955 1.384 . S
N959 C951 1.427 . S
N959 C957 1.384 . S
H960 C966 0.930 . S
H961 C970 0.930 . S
H962 C975 0.929 . S
H963 C973 0.929 . S
H964 C968 0.929 . S
H965 C974 0.929 . S
C966 H960 0.930 . S
C966 C967 1.367 . S
C966 C974 1.378 . S
C967 C966 1.367 . S
C967 C975 1.433 . S
C968 H964 0.929 . S
C968 C970 1.378 . S
C968 C972 1.350 . S
C969 C972 1.463 . S
C969 C974 1.350 . S
C969 N977 1.427 . S
C970 H961 0.930 . S
C970 C968 1.378 . S
C970 C971 1.367 . S
C971 C970 1.367 . S
C971 C973 1.433 . S
C972 C968 1.350 . S
C972 C969 1.463 . S
C972 N976 1.427 . S
C973 H963 0.929 . S
C973 C971 1.433 . S
C973 N976 1.384 . S
C974 H965 0.929 . S
C974 C966 1.378 . S
C974 C969 1.350 . S
C975 H962 0.929 . S
C975 C967 1.433 . S
C975 N977 1.384 . S
N976 C972 1.427 . S
N976 C973 1.384 . S
N977 C969 1.427 . S
N977 C975 1.384 . S
H978 C984 0.930 . S
H979 C988 0.930 . S
H980 C993 0.929 . S
H981 C991 0.929 . S
H982 C986 0.929 . S
H983 C992 0.929 . S
C984 H978 0.930 . S
C984 C985 1.367 . S
C984 C992 1.378 . S
C985 C984 1.367 . S
C985 C993 1.433 . S
C986 H982 0.929 . S
C986 C988 1.378 . S
C986 C990 1.350 . S
C987 C990 1.463 . S
C987 C992 1.350 . S
C987 N995 1.427 . S
C988 H979 0.930 . S
C988 C986 1.378 . S
C988 C989 1.367 . S
C989 C988 1.367 . S
C989 C991 1.433 . S
C990 C986 1.350 . S
C990 C987 1.463 . S
C990 N994 1.427 . S
C991 H981 0.929 . S
C991 C989 1.433 . S
C991 N994 1.384 . S
C992 H983 0.929 . S
C992 C984 1.378 . S
C992 C987 1.350 . S
C993 H980 0.929 . S
C993 C985 1.433 . S
C993 N995 1.384 . S
N994 C990 1.427 . S
N994 C991 1.384 . S
N995 C987 1.427 . S
N995 C993 1.384 . S
H996 C1002 0.930 . S
H997 C1006 0.930 . S
H998 C1011 0.929 . S
H999 C1009 0.929 . S
H1000 C1004 0.929 . S
H1001 C1010 0.929 . S
C1002 H996 0.930 . S
C1002 C1003 1.367 . S
C1002 C1010 1.378 . S
C1003 C1002 1.367 . S
C1003 C1011 1.433 . S
C1004 H1000 0.929 . S
C1004 C1006 1.378 . S
C1004 C1008 1.350 . S
C1005 C1008 1.463 . S
C1005 C1010 1.350 . S
C1005 N1013 1.427 . S
C1006 H997 0.930 . S
C1006 C1004 1.378 . S
C1006 C1007 1.367 . S
C1007 C1006 1.367 . S
C1007 C1009 1.433 . S
C1008 C1004 1.350 . S
C1008 C1005 1.463 . S
C1008 N1012 1.427 . S
C1009 H999 0.929 . S
C1009 C1007 1.433 . S
C1009 N1012 1.384 . S
C1010 H1001 0.929 . S
C1010 C1002 1.378 . S
C1010 C1005 1.350 . S
C1011 H998 0.929 . S
C1011 C1003 1.433 . S
C1011 N1013 1.384 . S
N1012 C1008 1.427 . S
N1012 C1009 1.384 . S
N1013 C1005 1.427 . S
N1013 C1011 1.384 . S
H1014 C1020 0.930 . S
H1015 C1024 0.930 . S
H1016 C1029 0.929 . S
H1017 C1027 0.929 . S
H1018 C1022 0.929 . S
H1019 C1028 0.929 . S
C1020 H1014 0.930 . S
C1020 C1021 1.367 . S
C1020 C1028 1.378 . S
C1021 C1020 1.367 . S
C1021 C1029 1.433 . S
C1022 H1018 0.929 . S
C1022 C1024 1.378 . S
C1022 C1026 1.350 . S
C1023 C1026 1.463 . S
C1023 C1028 1.350 . S
C1023 N1031 1.427 . S
C1024 H1015 0.930 . S
C1024 C1022 1.378 . S
C1024 C1025 1.367 . S
C1025 C1024 1.367 . S
C1025 C1027 1.433 . S
C1026 C1022 1.350 . S
C1026 C1023 1.463 . S
C1026 N1030 1.427 . S
C1027 H1017 0.929 . S
C1027 C1025 1.433 . S
C1027 N1030 1.384 . S
C1028 H1019 0.929 . S
C1028 C1020 1.378 . S
C1028 C1023 1.350 . S
C1029 H1016 0.929 . S
C1029 C1021 1.433 . S
C1029 N1031 1.384 . S
N1030 C1026 1.427 . S
N1030 C1027 1.384 . S
N1031 C1023 1.427 . S
N1031 C1029 1.384 . S
H1032 C1038 0.930 . S
H1033 C1042 0.930 . S
H1034 C1047 0.929 . S
H1035 C1045 0.929 . S
H1036 C1040 0.929 . S
H1037 C1046 0.929 . S
C1038 H1032 0.930 . S
C1038 C1039 1.367 . S
C1038 C1046 1.378 . S
C1039 C1038 1.367 . S
C1039 C1047 1.433 . S
C1040 H1036 0.929 . S
C1040 C1042 1.378 . S
C1040 C1044 1.350 . S
C1041 C1044 1.463 . S
C1041 C1046 1.350 . S
C1041 N1049 1.427 . S
C1042 H1033 0.930 . S
C1042 C1040 1.378 . S
C1042 C1043 1.367 . S
C1043 C1042 1.367 . S
C1043 C1045 1.433 . S
C1044 C1040 1.350 . S
C1044 C1041 1.463 . S
C1044 N1048 1.427 . S
C1045 H1035 0.929 . S
C1045 C1043 1.433 . S
C1045 N1048 1.384 . S
C1046 H1037 0.929 . S
C1046 C1038 1.378 . S
C1046 C1041 1.350 . S
C1047 H1034 0.929 . S
C1047 C1039 1.433 . S
C1047 N1049 1.384 . S
N1048 C1044 1.427 . S
N1048 C1045 1.384 . S
N1049 C1041 1.427 . S
N1049 C1047 1.384 . S
H1050 C1056 0.930 . S
H1051 C1060 0.930 . S
H1052 C1065 0.929 . S
H1053 C1063 0.929 . S
H1054 C1058 0.929 . S
H1055 C1064 0.929 . S
C1056 H1050 0.930 . S
C1056 C1057 1.367 . S
C1056 C1064 1.378 . S
C1057 C1056 1.367 . S
C1057 C1065 1.433 . S
C1058 H1054 0.929 . S
C1058 C1060 1.378 . S
C1058 C1062 1.350 . S
C1059 C1062 1.463 . S
C1059 C1064 1.350 . S
C1059 N1067 1.427 . S
C1060 H1051 0.930 . S
C1060 C1058 1.378 . S
C1060 C1061 1.367 . S
C1061 C1060 1.367 . S
C1061 C1063 1.433 . S
C1062 C1058 1.350 . S
C1062 C1059 1.463 . S
C1062 N1066 1.427 . S
C1063 H1053 0.929 . S
C1063 C1061 1.433 . S
C1063 N1066 1.384 . S
C1064 H1055 0.929 . S
C1064 C1056 1.378 . S
C1064 C1059 1.350 . S
C1065 H1052 0.929 . S
C1065 C1057 1.433 . S
C1065 N1067 1.384 . S
N1066 C1062 1.427 . S
N1066 C1063 1.384 . S
N1067 C1059 1.427 . S
N1067 C1065 1.384 . S
H1068 C1074 0.930 . S
H1069 C1078 0.930 . S
H1070 C1083 0.929 . S
H1071 C1081 0.929 . S
H1072 C1076 0.929 . S
H1073 C1082 0.929 . S
C1074 H1068 0.930 . S
C1074 C1075 1.367 . S
C1074 C1082 1.378 . S
C1075 C1074 1.367 . S
C1075 C1083 1.433 . S
C1076 H1072 0.929 . S
C1076 C1078 1.378 . S
C1076 C1080 1.350 . S
C1077 C1080 1.463 . S
C1077 C1082 1.350 . S
C1077 N1085 1.427 . S
C1078 H1069 0.930 . S
C1078 C1076 1.378 . S
C1078 C1079 1.367 . S
C1079 C1078 1.367 . S
C1079 C1081 1.433 . S
C1080 C1076 1.350 . S
C1080 C1077 1.463 . S
C1080 N1084 1.427 . S
C1081 H1071 0.929 . S
C1081 C1079 1.433 . S
C1081 N1084 1.384 . S
C1082 H1073 0.929 . S
C1082 C1074 1.378 . S
C1082 C1077 1.350 . S
C1083 H1070 0.929 . S
C1083 C1075 1.433 . S
C1083 N1085 1.384 . S
N1084 C1080 1.427 . S
N1084 C1081 1.384 . S
N1085 C1077 1.427 . S
N1085 C1083 1.384 . S
H1086 C1092 0.930 . S
H1087 C1096 0.930 . S
H1088 C1101 0.929 . S
H1089 C1099 0.929 . S
H1090 C1094 0.929 . S
H1091 C1100 0.929 . S
C1092 H1086 0.930 . S
C1092 C1093 1.367 . S
C1092 C1100 1.378 . S
C1093 C1092 1.367 . S
C1093 C1101 1.433 . S
C1094 H1090 0.929 . S
C1094 C1096 1.378 . S
C1094 C1098 1.350 . S
C1095 C1098 1.463 . S
C1095 C1100 1.350 . S
C1095 N1103 1.427 . S
C1096 H1087 0.930 . S
C1096 C1094 1.378 . S
C1096 C1097 1.367 . S
C1097 C1096 1.367 . S
C1097 C1099 1.433 . S
C1098 C1094 1.350 . S
C1098 C1095 1.463 . S
C1098 N1102 1.427 . S
C1099 H1089 0.929 . S
C1099 C1097 1.433 . S
C1099 N1102 1.384 . S
C1100 H1091 0.929 . S
C1100 C1092 1.378 . S
C1100 C1095 1.350 . S
C1101 H1088 0.929 . S
C1101 C1093 1.433 . S
C1101 N1103 1.384 . S
N1102 C1098 1.427 . S
N1102 C1099 1.384 . S
N1103 C1095 1.427 . S
N1103 C1101 1.384 . S
C355 C8 0.773 . S
C359 C211 0.791 . S
C373 C37 0.819 . S
C377 C240 0.814 . S
C391 C269 0.802 . S
C395 C66 0.817 . S
C409 C95 0.788 . S
C413 C298 0.809 . S
C427 C124 0.803 . S
C431 C327 0.781 . S
C445 C182 0.806 . S
C449 C153 0.785 . S
C463 C295 1.534 . S
C467 C92 1.532 . S
C481 C121 1.531 . S
C485 C324 1.531 . S
C499 C150 1.532 . S
C503 C179 1.531 . S
C517 C5 1.544 . S
C521 C208 1.544 . S
C535 C237 1.538 . S
C539 C34 1.536 . S
C553 C266 1.540 . S
C557 C63 1.538 . S
C571 C108 0.416 . S
C575 C21 0.420 . S
C589 C50 0.451 . S
C593 C137 0.448 . S
C607 C166 0.418 . S
C611 C79 0.414 . S
C625 C195 0.451 . S
C629 C282 0.448 . S
C643 C224 0.442 . S
C647 C311 0.439 . S
C661 C340 0.451 . S
C665 C253 0.448 . S
C679 C10 2.702 . S
C683 C300 2.706 . S
C697 C39 2.703 . S
C701 C329 2.703 . S
C715 C68 2.707 . S
C719 C184 2.703 . S
C733 C213 2.713 . S
C737 C97 2.707 . S
C751 C242 2.704 . S
C755 C126 2.703 . S
C769 C155 2.703 . S
C773 C271 2.708 . S
C787 C206 0.648 . S
C791 C90 0.643 . S
C805 C235 0.669 . S
C809 C119 0.671 . S
C823 C264 0.668 . S
C827 C148 0.670 . S
C841 C293 0.622 . S
C845 C3 0.626 . S
C859 C322 0.658 . S
C863 C32 0.662 . S
C877 C61 0.658 . S
C881 C177 0.662 . S
C895 C15 2.399 . S
C899 C247 2.398 . S
C913 C276 2.398 . S
C917 C44 2.397 . S
C931 C305 2.397 . S
C935 C73 2.398 . S
C949 C102 2.398 . S
C953 C334 2.399 . S
C967 C189 2.397 . S
C971 C131 2.399 . S
C985 C160 2.399 . S
C989 C218 2.397 . S
C1003 C332 3.006 . S
C1007 C100 2.999 1_556 S
C1021 C187 2.999 . S
C1025 C129 3.006 1_556 S
C1039 C216 3.007 . S
C1043 C158 3.000 1_556 S
C1057 C245 3.007 . S
C1061 C13 2.999 1_556 S
C1075 C274 3.008 . S
C1079 C42 3.000 1_556 S
C1093 C303 3.002 . S
C1097 C71 3.008 1_556 S
