# Generated by pormake.
# Topology lcs-f, (3)-cn, num edge types: 1
# Building blocks:
#     Node 0, Type 0, BuildingBlock: OLANEW_clean_sbu_2, # of connection points: 3
#     Node 1, Type 0, BuildingBlock: OLANEW_clean_sbu_2, # of connection points: 3
#     Node 2, Type 0, BuildingBlock: OLANEW_clean_sbu_2, # of connection points: 3
#     Node 3, Type 0, BuildingBlock: OLANEW_clean_sbu_2, # of connection points: 3
#     Node 4, Type 0, BuildingBlock: OLANEW_clean_sbu_2, # of connection points: 3
#     Node 5, Type 0, BuildingBlock: OLANEW_clean_sbu_2, # of connection points: 3
#     Node 6, Type 0, BuildingBlock: OLANEW_clean_sbu_2, # of connection points: 3
#     Node 7, Type 0, BuildingBlock: OLANEW_clean_sbu_2, # of connection points: 3
#     Node 8, Type 0, BuildingBlock: OLANEW_clean_sbu_2, # of connection points: 3
#     Node 9, Type 0, BuildingBlock: OLANEW_clean_sbu_2, # of connection points: 3
#     Node 10, Type 0, BuildingBlock: OLANEW_clean_sbu_2, # of connection points: 3
#     Node 11, Type 0, BuildingBlock: OLANEW_clean_sbu_2, # of connection points: 3
#     Node 12, Type 0, BuildingBlock: OLANEW_clean_sbu_2, # of connection points: 3
#     Node 13, Type 0, BuildingBlock: OLANEW_clean_sbu_2, # of connection points: 3
#     Node 14, Type 0, BuildingBlock: OLANEW_clean_sbu_2, # of connection points: 3
#     Node 15, Type 0, BuildingBlock: OLANEW_clean_sbu_2, # of connection points: 3
#     Node 16, Type 0, BuildingBlock: OLANEW_clean_sbu_2, # of connection points: 3
#     Node 17, Type 0, BuildingBlock: OLANEW_clean_sbu_2, # of connection points: 3
#     Node 18, Type 0, BuildingBlock: OLANEW_clean_sbu_2, # of connection points: 3
#     Node 19, Type 0, BuildingBlock: OLANEW_clean_sbu_2, # of connection points: 3
#     Node 20, Type 0, BuildingBlock: OLANEW_clean_sbu_2, # of connection points: 3
#     Node 21, Type 0, BuildingBlock: OLANEW_clean_sbu_2, # of connection points: 3
#     Node 22, Type 0, BuildingBlock: OLANEW_clean_sbu_2, # of connection points: 3
#     Node 23, Type 0, BuildingBlock: OLANEW_clean_sbu_2, # of connection points: 3
#     Node 24, Type 0, BuildingBlock: OLANEW_clean_sbu_2, # of connection points: 3
#     Node 25, Type 0, BuildingBlock: OLANEW_clean_sbu_2, # of connection points: 3
#     Node 26, Type 0, BuildingBlock: OLANEW_clean_sbu_2, # of connection points: 3
#     Node 27, Type 0, BuildingBlock: OLANEW_clean_sbu_2, # of connection points: 3
#     Node 28, Type 0, BuildingBlock: OLANEW_clean_sbu_2, # of connection points: 3
#     Node 29, Type 0, BuildingBlock: OLANEW_clean_sbu_2, # of connection points: 3
#     Node 30, Type 0, BuildingBlock: OLANEW_clean_sbu_2, # of connection points: 3
#     Node 31, Type 0, BuildingBlock: OLANEW_clean_sbu_2, # of connection points: 3
#     Node 32, Type 0, BuildingBlock: OLANEW_clean_sbu_2, # of connection points: 3
#     Node 33, Type 0, BuildingBlock: OLANEW_clean_sbu_2, # of connection points: 3
#     Node 34, Type 0, BuildingBlock: OLANEW_clean_sbu_2, # of connection points: 3
#     Node 35, Type 0, BuildingBlock: OLANEW_clean_sbu_2, # of connection points: 3
#     Node 36, Type 0, BuildingBlock: OLANEW_clean_sbu_2, # of connection points: 3
#     Node 37, Type 0, BuildingBlock: OLANEW_clean_sbu_2, # of connection points: 3
#     Node 38, Type 0, BuildingBlock: OLANEW_clean_sbu_2, # of connection points: 3
#     Node 39, Type 0, BuildingBlock: OLANEW_clean_sbu_2, # of connection points: 3
#     Node 40, Type 0, BuildingBlock: OLANEW_clean_sbu_2, # of connection points: 3
#     Node 41, Type 0, BuildingBlock: OLANEW_clean_sbu_2, # of connection points: 3
#     Node 42, Type 0, BuildingBlock: OLANEW_clean_sbu_2, # of connection points: 3
#     Node 43, Type 0, BuildingBlock: OLANEW_clean_sbu_2, # of connection points: 3
#     Node 44, Type 0, BuildingBlock: OLANEW_clean_sbu_2, # of connection points: 3
#     Node 45, Type 0, BuildingBlock: OLANEW_clean_sbu_2, # of connection points: 3
#     Node 46, Type 0, BuildingBlock: OLANEW_clean_sbu_2, # of connection points: 3
#     Node 47, Type 0, BuildingBlock: OLANEW_clean_sbu_2, # of connection points: 3
#     Node 48, Type 0, BuildingBlock: OLANEW_clean_sbu_2, # of connection points: 3
#     Node 49, Type 0, BuildingBlock: OLANEW_clean_sbu_2, # of connection points: 3
#     Node 50, Type 0, BuildingBlock: OLANEW_clean_sbu_2, # of connection points: 3
#     Node 51, Type 0, BuildingBlock: OLANEW_clean_sbu_2, # of connection points: 3
#     Node 52, Type 0, BuildingBlock: OLANEW_clean_sbu_2, # of connection points: 3
#     Node 53, Type 0, BuildingBlock: OLANEW_clean_sbu_2, # of connection points: 3
#     Node 54, Type 0, BuildingBlock: OLANEW_clean_sbu_2, # of connection points: 3
#     Node 55, Type 0, BuildingBlock: OLANEW_clean_sbu_2, # of connection points: 3
#     Node 56, Type 0, BuildingBlock: OLANEW_clean_sbu_2, # of connection points: 3
#     Node 57, Type 0, BuildingBlock: OLANEW_clean_sbu_2, # of connection points: 3
#     Node 58, Type 0, BuildingBlock: OLANEW_clean_sbu_2, # of connection points: 3
#     Node 59, Type 0, BuildingBlock: OLANEW_clean_sbu_2, # of connection points: 3
#     Node 60, Type 0, BuildingBlock: OLANEW_clean_sbu_2, # of connection points: 3
#     Node 61, Type 0, BuildingBlock: OLANEW_clean_sbu_2, # of connection points: 3
#     Node 62, Type 0, BuildingBlock: OLANEW_clean_sbu_2, # of connection points: 3
#     Node 63, Type 0, BuildingBlock: OLANEW_clean_sbu_2, # of connection points: 3
#     Node 64, Type 0, BuildingBlock: OLANEW_clean_sbu_2, # of connection points: 3
#     Node 65, Type 0, BuildingBlock: OLANEW_clean_sbu_2, # of connection points: 3
#     Node 66, Type 0, BuildingBlock: OLANEW_clean_sbu_2, # of connection points: 3
#     Node 67, Type 0, BuildingBlock: OLANEW_clean_sbu_2, # of connection points: 3
#     Node 68, Type 0, BuildingBlock: OLANEW_clean_sbu_2, # of connection points: 3
#     Node 69, Type 0, BuildingBlock: OLANEW_clean_sbu_2, # of connection points: 3
#     Node 70, Type 0, BuildingBlock: OLANEW_clean_sbu_2, # of connection points: 3
#     Node 71, Type 0, BuildingBlock: OLANEW_clean_sbu_2, # of connection points: 3
#     Node 72, Type 0, BuildingBlock: OLANEW_clean_sbu_2, # of connection points: 3
#     Node 73, Type 0, BuildingBlock: OLANEW_clean_sbu_2, # of connection points: 3
#     Node 74, Type 0, BuildingBlock: OLANEW_clean_sbu_2, # of connection points: 3
#     Node 75, Type 0, BuildingBlock: OLANEW_clean_sbu_2, # of connection points: 3
#     Node 76, Type 0, BuildingBlock: OLANEW_clean_sbu_2, # of connection points: 3
#     Node 77, Type 0, BuildingBlock: OLANEW_clean_sbu_2, # of connection points: 3
#     Node 78, Type 0, BuildingBlock: OLANEW_clean_sbu_2, # of connection points: 3
#     Node 79, Type 0, BuildingBlock: OLANEW_clean_sbu_2, # of connection points: 3
#     Node 80, Type 0, BuildingBlock: OLANEW_clean_sbu_2, # of connection points: 3
#     Node 81, Type 0, BuildingBlock: OLANEW_clean_sbu_2, # of connection points: 3
#     Node 82, Type 0, BuildingBlock: OLANEW_clean_sbu_2, # of connection points: 3
#     Node 83, Type 0, BuildingBlock: OLANEW_clean_sbu_2, # of connection points: 3
#     Node 84, Type 0, BuildingBlock: OLANEW_clean_sbu_2, # of connection points: 3
#     Node 85, Type 0, BuildingBlock: OLANEW_clean_sbu_2, # of connection points: 3
#     Node 86, Type 0, BuildingBlock: OLANEW_clean_sbu_2, # of connection points: 3
#     Node 87, Type 0, BuildingBlock: OLANEW_clean_sbu_2, # of connection points: 3
#     Node 88, Type 0, BuildingBlock: OLANEW_clean_sbu_2, # of connection points: 3
#     Node 89, Type 0, BuildingBlock: OLANEW_clean_sbu_2, # of connection points: 3
#     Node 90, Type 0, BuildingBlock: OLANEW_clean_sbu_2, # of connection points: 3
#     Node 91, Type 0, BuildingBlock: OLANEW_clean_sbu_2, # of connection points: 3
#     Node 92, Type 0, BuildingBlock: OLANEW_clean_sbu_2, # of connection points: 3
#     Node 93, Type 0, BuildingBlock: OLANEW_clean_sbu_2, # of connection points: 3
#     Node 94, Type 0, BuildingBlock: OLANEW_clean_sbu_2, # of connection points: 3
#     Node 95, Type 0, BuildingBlock: OLANEW_clean_sbu_2, # of connection points: 3
#     Edge 96, Type (0, 0), BuildingBlock: AJUNOK_clean_linker_0, # of connection points: 2
#     Edge 97, Type (0, 0), BuildingBlock: AJUNOK_clean_linker_0, # of connection points: 2
#     Edge 98, Type (0, 0), BuildingBlock: AJUNOK_clean_linker_0, # of connection points: 2
#     Edge 99, Type (0, 0), BuildingBlock: AJUNOK_clean_linker_0, # of connection points: 2
#     Edge 100, Type (0, 0), BuildingBlock: AJUNOK_clean_linker_0, # of connection points: 2
#     Edge 101, Type (0, 0), BuildingBlock: AJUNOK_clean_linker_0, # of connection points: 2
#     Edge 102, Type (0, 0), BuildingBlock: AJUNOK_clean_linker_0, # of connection points: 2
#     Edge 103, Type (0, 0), BuildingBlock: AJUNOK_clean_linker_0, # of connection points: 2
#     Edge 104, Type (0, 0), BuildingBlock: AJUNOK_clean_linker_0, # of connection points: 2
#     Edge 105, Type (0, 0), BuildingBlock: AJUNOK_clean_linker_0, # of connection points: 2
#     Edge 106, Type (0, 0), BuildingBlock: AJUNOK_clean_linker_0, # of connection points: 2
#     Edge 107, Type (0, 0), BuildingBlock: AJUNOK_clean_linker_0, # of connection points: 2
#     Edge 108, Type (0, 0), BuildingBlock: AJUNOK_clean_linker_0, # of connection points: 2
#     Edge 109, Type (0, 0), BuildingBlock: AJUNOK_clean_linker_0, # of connection points: 2
#     Edge 110, Type (0, 0), BuildingBlock: AJUNOK_clean_linker_0, # of connection points: 2
#     Edge 111, Type (0, 0), BuildingBlock: AJUNOK_clean_linker_0, # of connection points: 2
#     Edge 112, Type (0, 0), BuildingBlock: AJUNOK_clean_linker_0, # of connection points: 2
#     Edge 113, Type (0, 0), BuildingBlock: AJUNOK_clean_linker_0, # of connection points: 2
#     Edge 114, Type (0, 0), BuildingBlock: AJUNOK_clean_linker_0, # of connection points: 2
#     Edge 115, Type (0, 0), BuildingBlock: AJUNOK_clean_linker_0, # of connection points: 2
#     Edge 116, Type (0, 0), BuildingBlock: AJUNOK_clean_linker_0, # of connection points: 2
#     Edge 117, Type (0, 0), BuildingBlock: AJUNOK_clean_linker_0, # of connection points: 2
#     Edge 118, Type (0, 0), BuildingBlock: AJUNOK_clean_linker_0, # of connection points: 2
#     Edge 119, Type (0, 0), BuildingBlock: AJUNOK_clean_linker_0, # of connection points: 2
#     Edge 120, Type (0, 0), BuildingBlock: AJUNOK_clean_linker_0, # of connection points: 2
#     Edge 121, Type (0, 0), BuildingBlock: AJUNOK_clean_linker_0, # of connection points: 2
#     Edge 122, Type (0, 0), BuildingBlock: AJUNOK_clean_linker_0, # of connection points: 2
#     Edge 123, Type (0, 0), BuildingBlock: AJUNOK_clean_linker_0, # of connection points: 2
#     Edge 124, Type (0, 0), BuildingBlock: AJUNOK_clean_linker_0, # of connection points: 2
#     Edge 125, Type (0, 0), BuildingBlock: AJUNOK_clean_linker_0, # of connection points: 2
#     Edge 126, Type (0, 0), BuildingBlock: AJUNOK_clean_linker_0, # of connection points: 2
#     Edge 127, Type (0, 0), BuildingBlock: AJUNOK_clean_linker_0, # of connection points: 2
#     Edge 128, Type (0, 0), BuildingBlock: AJUNOK_clean_linker_0, # of connection points: 2
#     Edge 129, Type (0, 0), BuildingBlock: AJUNOK_clean_linker_0, # of connection points: 2
#     Edge 130, Type (0, 0), BuildingBlock: AJUNOK_clean_linker_0, # of connection points: 2
#     Edge 131, Type (0, 0), BuildingBlock: AJUNOK_clean_linker_0, # of connection points: 2
#     Edge 132, Type (0, 0), BuildingBlock: AJUNOK_clean_linker_0, # of connection points: 2
#     Edge 133, Type (0, 0), BuildingBlock: AJUNOK_clean_linker_0, # of connection points: 2
#     Edge 134, Type (0, 0), BuildingBlock: AJUNOK_clean_linker_0, # of connection points: 2
#     Edge 135, Type (0, 0), BuildingBlock: AJUNOK_clean_linker_0, # of connection points: 2
#     Edge 136, Type (0, 0), BuildingBlock: AJUNOK_clean_linker_0, # of connection points: 2
#     Edge 137, Type (0, 0), BuildingBlock: AJUNOK_clean_linker_0, # of connection points: 2
#     Edge 138, Type (0, 0), BuildingBlock: AJUNOK_clean_linker_0, # of connection points: 2
#     Edge 139, Type (0, 0), BuildingBlock: AJUNOK_clean_linker_0, # of connection points: 2
#     Edge 140, Type (0, 0), BuildingBlock: AJUNOK_clean_linker_0, # of connection points: 2
#     Edge 141, Type (0, 0), BuildingBlock: AJUNOK_clean_linker_0, # of connection points: 2
#     Edge 142, Type (0, 0), BuildingBlock: AJUNOK_clean_linker_0, # of connection points: 2
#     Edge 143, Type (0, 0), BuildingBlock: AJUNOK_clean_linker_0, # of connection points: 2
#     Edge 144, Type (0, 0), BuildingBlock: AJUNOK_clean_linker_0, # of connection points: 2
#     Edge 145, Type (0, 0), BuildingBlock: AJUNOK_clean_linker_0, # of connection points: 2
#     Edge 146, Type (0, 0), BuildingBlock: AJUNOK_clean_linker_0, # of connection points: 2
#     Edge 147, Type (0, 0), BuildingBlock: AJUNOK_clean_linker_0, # of connection points: 2
#     Edge 148, Type (0, 0), BuildingBlock: AJUNOK_clean_linker_0, # of connection points: 2
#     Edge 149, Type (0, 0), BuildingBlock: AJUNOK_clean_linker_0, # of connection points: 2
#     Edge 150, Type (0, 0), BuildingBlock: AJUNOK_clean_linker_0, # of connection points: 2
#     Edge 151, Type (0, 0), BuildingBlock: AJUNOK_clean_linker_0, # of connection points: 2
#     Edge 152, Type (0, 0), BuildingBlock: AJUNOK_clean_linker_0, # of connection points: 2
#     Edge 153, Type (0, 0), BuildingBlock: AJUNOK_clean_linker_0, # of connection points: 2
#     Edge 154, Type (0, 0), BuildingBlock: AJUNOK_clean_linker_0, # of connection points: 2
#     Edge 155, Type (0, 0), BuildingBlock: AJUNOK_clean_linker_0, # of connection points: 2
#     Edge 156, Type (0, 0), BuildingBlock: AJUNOK_clean_linker_0, # of connection points: 2
#     Edge 157, Type (0, 0), BuildingBlock: AJUNOK_clean_linker_0, # of connection points: 2
#     Edge 158, Type (0, 0), BuildingBlock: AJUNOK_clean_linker_0, # of connection points: 2
#     Edge 159, Type (0, 0), BuildingBlock: AJUNOK_clean_linker_0, # of connection points: 2
#     Edge 160, Type (0, 0), BuildingBlock: AJUNOK_clean_linker_0, # of connection points: 2
#     Edge 161, Type (0, 0), BuildingBlock: AJUNOK_clean_linker_0, # of connection points: 2
#     Edge 162, Type (0, 0), BuildingBlock: AJUNOK_clean_linker_0, # of connection points: 2
#     Edge 163, Type (0, 0), BuildingBlock: AJUNOK_clean_linker_0, # of connection points: 2
#     Edge 164, Type (0, 0), BuildingBlock: AJUNOK_clean_linker_0, # of connection points: 2
#     Edge 165, Type (0, 0), BuildingBlock: AJUNOK_clean_linker_0, # of connection points: 2
#     Edge 166, Type (0, 0), BuildingBlock: AJUNOK_clean_linker_0, # of connection points: 2
#     Edge 167, Type (0, 0), BuildingBlock: AJUNOK_clean_linker_0, # of connection points: 2
#     Edge 168, Type (0, 0), BuildingBlock: AJUNOK_clean_linker_0, # of connection points: 2
#     Edge 169, Type (0, 0), BuildingBlock: AJUNOK_clean_linker_0, # of connection points: 2
#     Edge 170, Type (0, 0), BuildingBlock: AJUNOK_clean_linker_0, # of connection points: 2
#     Edge 171, Type (0, 0), BuildingBlock: AJUNOK_clean_linker_0, # of connection points: 2
#     Edge 172, Type (0, 0), BuildingBlock: AJUNOK_clean_linker_0, # of connection points: 2
#     Edge 173, Type (0, 0), BuildingBlock: AJUNOK_clean_linker_0, # of connection points: 2
#     Edge 174, Type (0, 0), BuildingBlock: AJUNOK_clean_linker_0, # of connection points: 2
#     Edge 175, Type (0, 0), BuildingBlock: AJUNOK_clean_linker_0, # of connection points: 2
#     Edge 176, Type (0, 0), BuildingBlock: AJUNOK_clean_linker_0, # of connection points: 2
#     Edge 177, Type (0, 0), BuildingBlock: AJUNOK_clean_linker_0, # of connection points: 2
#     Edge 178, Type (0, 0), BuildingBlock: AJUNOK_clean_linker_0, # of connection points: 2
#     Edge 179, Type (0, 0), BuildingBlock: AJUNOK_clean_linker_0, # of connection points: 2
#     Edge 180, Type (0, 0), BuildingBlock: AJUNOK_clean_linker_0, # of connection points: 2
#     Edge 181, Type (0, 0), BuildingBlock: AJUNOK_clean_linker_0, # of connection points: 2
#     Edge 182, Type (0, 0), BuildingBlock: AJUNOK_clean_linker_0, # of connection points: 2
#     Edge 183, Type (0, 0), BuildingBlock: AJUNOK_clean_linker_0, # of connection points: 2
#     Edge 184, Type (0, 0), BuildingBlock: AJUNOK_clean_linker_0, # of connection points: 2
#     Edge 185, Type (0, 0), BuildingBlock: AJUNOK_clean_linker_0, # of connection points: 2
#     Edge 186, Type (0, 0), BuildingBlock: AJUNOK_clean_linker_0, # of connection points: 2
#     Edge 187, Type (0, 0), BuildingBlock: AJUNOK_clean_linker_0, # of connection points: 2
#     Edge 188, Type (0, 0), BuildingBlock: AJUNOK_clean_linker_0, # of connection points: 2
#     Edge 189, Type (0, 0), BuildingBlock: AJUNOK_clean_linker_0, # of connection points: 2
#     Edge 190, Type (0, 0), BuildingBlock: AJUNOK_clean_linker_0, # of connection points: 2
#     Edge 191, Type (0, 0), BuildingBlock: AJUNOK_clean_linker_0, # of connection points: 2
#     Edge 192, Type (0, 0), BuildingBlock: AJUNOK_clean_linker_0, # of connection points: 2
#     Edge 193, Type (0, 0), BuildingBlock: AJUNOK_clean_linker_0, # of connection points: 2
#     Edge 194, Type (0, 0), BuildingBlock: AJUNOK_clean_linker_0, # of connection points: 2
#     Edge 195, Type (0, 0), BuildingBlock: AJUNOK_clean_linker_0, # of connection points: 2
#     Edge 196, Type (0, 0), BuildingBlock: AJUNOK_clean_linker_0, # of connection points: 2
#     Edge 197, Type (0, 0), BuildingBlock: AJUNOK_clean_linker_0, # of connection points: 2
#     Edge 198, Type (0, 0), BuildingBlock: AJUNOK_clean_linker_0, # of connection points: 2
#     Edge 199, Type (0, 0), BuildingBlock: AJUNOK_clean_linker_0, # of connection points: 2
#     Edge 200, Type (0, 0), BuildingBlock: AJUNOK_clean_linker_0, # of connection points: 2
#     Edge 201, Type (0, 0), BuildingBlock: AJUNOK_clean_linker_0, # of connection points: 2
#     Edge 202, Type (0, 0), BuildingBlock: AJUNOK_clean_linker_0, # of connection points: 2
#     Edge 203, Type (0, 0), BuildingBlock: AJUNOK_clean_linker_0, # of connection points: 2
#     Edge 204, Type (0, 0), BuildingBlock: AJUNOK_clean_linker_0, # of connection points: 2
#     Edge 205, Type (0, 0), BuildingBlock: AJUNOK_clean_linker_0, # of connection points: 2
#     Edge 206, Type (0, 0), BuildingBlock: AJUNOK_clean_linker_0, # of connection points: 2
#     Edge 207, Type (0, 0), BuildingBlock: AJUNOK_clean_linker_0, # of connection points: 2
#     Edge 208, Type (0, 0), BuildingBlock: AJUNOK_clean_linker_0, # of connection points: 2
#     Edge 209, Type (0, 0), BuildingBlock: AJUNOK_clean_linker_0, # of connection points: 2
#     Edge 210, Type (0, 0), BuildingBlock: AJUNOK_clean_linker_0, # of connection points: 2
#     Edge 211, Type (0, 0), BuildingBlock: AJUNOK_clean_linker_0, # of connection points: 2
#     Edge 212, Type (0, 0), BuildingBlock: AJUNOK_clean_linker_0, # of connection points: 2
#     Edge 213, Type (0, 0), BuildingBlock: AJUNOK_clean_linker_0, # of connection points: 2
#     Edge 214, Type (0, 0), BuildingBlock: AJUNOK_clean_linker_0, # of connection points: 2
#     Edge 215, Type (0, 0), BuildingBlock: AJUNOK_clean_linker_0, # of connection points: 2
#     Edge 216, Type (0, 0), BuildingBlock: AJUNOK_clean_linker_0, # of connection points: 2
#     Edge 217, Type (0, 0), BuildingBlock: AJUNOK_clean_linker_0, # of connection points: 2
#     Edge 218, Type (0, 0), BuildingBlock: AJUNOK_clean_linker_0, # of connection points: 2
#     Edge 219, Type (0, 0), BuildingBlock: AJUNOK_clean_linker_0, # of connection points: 2
#     Edge 220, Type (0, 0), BuildingBlock: AJUNOK_clean_linker_0, # of connection points: 2
#     Edge 221, Type (0, 0), BuildingBlock: AJUNOK_clean_linker_0, # of connection points: 2
#     Edge 222, Type (0, 0), BuildingBlock: AJUNOK_clean_linker_0, # of connection points: 2
#     Edge 223, Type (0, 0), BuildingBlock: AJUNOK_clean_linker_0, # of connection points: 2
#     Edge 224, Type (0, 0), BuildingBlock: AJUNOK_clean_linker_0, # of connection points: 2
#     Edge 225, Type (0, 0), BuildingBlock: AJUNOK_clean_linker_0, # of connection points: 2
#     Edge 226, Type (0, 0), BuildingBlock: AJUNOK_clean_linker_0, # of connection points: 2
#     Edge 227, Type (0, 0), BuildingBlock: AJUNOK_clean_linker_0, # of connection points: 2
#     Edge 228, Type (0, 0), BuildingBlock: AJUNOK_clean_linker_0, # of connection points: 2
#     Edge 229, Type (0, 0), BuildingBlock: AJUNOK_clean_linker_0, # of connection points: 2
#     Edge 230, Type (0, 0), BuildingBlock: AJUNOK_clean_linker_0, # of connection points: 2
#     Edge 231, Type (0, 0), BuildingBlock: AJUNOK_clean_linker_0, # of connection points: 2
#     Edge 232, Type (0, 0), BuildingBlock: AJUNOK_clean_linker_0, # of connection points: 2
#     Edge 233, Type (0, 0), BuildingBlock: AJUNOK_clean_linker_0, # of connection points: 2
#     Edge 234, Type (0, 0), BuildingBlock: AJUNOK_clean_linker_0, # of connection points: 2
#     Edge 235, Type (0, 0), BuildingBlock: AJUNOK_clean_linker_0, # of connection points: 2
#     Edge 236, Type (0, 0), BuildingBlock: AJUNOK_clean_linker_0, # of connection points: 2
#     Edge 237, Type (0, 0), BuildingBlock: AJUNOK_clean_linker_0, # of connection points: 2
#     Edge 238, Type (0, 0), BuildingBlock: AJUNOK_clean_linker_0, # of connection points: 2
#     Edge 239, Type (0, 0), BuildingBlock: AJUNOK_clean_linker_0, # of connection points: 2
# Relax obj value: 0.011
# Max RMSD: 0.064
# Mean RMSD: 0.042
data_MOF--net-lcs-f--node1-OLANEW_clean_sbu_2--edge1-AJUNOK_clean_linker_0
_symmetry_space_group_name_H-M    P1
_symmetry_Int_Tables_number       1
_symmetry_cell_setting            triclinic
loop_
_symmetry_equiv_pos_as_xyz
'x, y, z'
_cell_length_a     99.213
_cell_length_b     84.988
_cell_length_c     88.453
_cell_angle_alpha  88.75
_cell_angle_beta   90.0
_cell_angle_gamma 90.0
loop_
_atom_site_label
_atom_site_type_symbol
_atom_site_fract_x
_atom_site_fract_y
_atom_site_fract_z
_atom_type_partial_charge
O0 O 0.06655 0.23282 0.37811 0.0
Cd1 Cd 0.06785 0.20865 0.39324 0.0
O2 O 0.04883 0.22657 0.39087 0.0
Cd3 Cd 0.03379 0.21871 0.40702 0.0
O4 O 0.02875 0.20015 0.39107 0.0
C5 C 0.01827 0.20485 0.38396 0.0
O6 O 0.01523 0.21977 0.38564 0.0
C7 C 0.05506 0.23691 0.38289 0.0
C8 C 0.09119 0.19082 0.39429 0.0
O9 O 0.09064 0.2021 0.38448 0.0
O10 O 0.08084 0.1884 0.40265 0.0
O11 O 0.06195 0.8178 0.62247 0.0
Cd12 Cd 0.06036 0.84554 0.61554 0.0
O13 O 0.04907 0.81817 0.60259 0.0
Cd14 Cd 0.03935 0.83231 0.58488 0.0
O15 O 0.02413 0.84272 0.59948 0.0
C16 C 0.01604 0.83129 0.60134 0.0
O17 O 0.01921 0.81805 0.59474 0.0
C18 C 0.05488 0.81023 0.61311 0.0
C19 C 0.07543 0.86583 0.63382 0.0
O20 O 0.07365 0.85129 0.6372 0.0
O21 O 0.0696 0.87121 0.62188 0.0
O22 O 0.41575 0.78642 0.91788 0.0
Cd23 Cd 0.41658 0.80748 0.93545 0.0
O24 O 0.43523 0.78854 0.92859 0.0
Cd25 Cd 0.45029 0.79691 0.94441 0.0
O26 O 0.45384 0.81725 0.92971 0.0
C27 C 0.46294 0.81128 0.92162 0.0
O28 O 0.46788 0.79746 0.92573 0.0
C29 C 0.42775 0.78144 0.91916 0.0
C30 C 0.39362 0.82519 0.93939 0.0
O31 O 0.39354 0.8147 0.92924 0.0
O32 O 0.40435 0.82689 0.94717 0.0
O33 O 0.46816 0.17722 0.1052 0.0
Cd34 Cd 0.44773 0.17693 0.12043 0.0
O35 O 0.46507 0.20035 0.11398 0.0
Cd36 Cd 0.45555 0.21853 0.12669 0.0
O37 O 0.43832 0.22016 0.11121 0.0
C38 C 0.44213 0.22731 0.09916 0.0
O39 O 0.45527 0.22692 0.09652 0.0
C40 C 0.47252 0.19119 0.10653 0.0
C41 C 0.43246 0.1499 0.12614 0.0
O42 O 0.4424 0.14927 0.11688 0.0
O43 O 0.43003 0.16293 0.13247 0.0
O44 O 0.06478 0.77026 0.12085 0.0
Cd45 Cd 0.06679 0.79336 0.10568 0.0
O46 O 0.04685 0.77325 0.10709 0.0
Cd47 Cd 0.03322 0.78398 0.091 0.0
O48 O 0.02735 0.80387 0.10505 0.0
C49 C 0.01878 0.79873 0.11465 0.0
O50 O 0.01882 0.78328 0.11679 0.0
C51 C 0.05375 0.76465 0.11607 0.0
C52 C 0.09035 0.81115 0.10545 0.0
O53 O 0.08988 0.79975 0.11513 0.0
O54 O 0.07989 0.81351 0.09724 0.0
O55 O 0.4703 0.82342 0.39669 0.0
Cd56 Cd 0.4497 0.82268 0.38193 0.0
O57 O 0.4655 0.80098 0.38743 0.0
Cd58 Cd 0.45628 0.78283 0.37375 0.0
O59 O 0.43983 0.77939 0.38995 0.0
C60 C 0.44545 0.76894 0.39818 0.0
O61 O 0.45774 0.76459 0.39436 0.0
C62 C 0.47385 0.80926 0.39495 0.0
C63 C 0.43431 0.84899 0.37491 0.0
O64 O 0.44383 0.85097 0.38449 0.0
O65 O 0.43273 0.8352 0.36984 0.0
O66 O 0.41609 0.21207 0.58483 0.0
Cd67 Cd 0.4166 0.19071 0.56835 0.0
O68 O 0.4353 0.21068 0.57301 0.0
Cd69 Cd 0.4486 0.19896 0.55751 0.0
O70 O 0.45322 0.17834 0.57338 0.0
C71 C 0.46242 0.18545 0.58041 0.0
O72 O 0.46503 0.19996 0.57559 0.0
C73 C 0.42764 0.21782 0.58213 0.0
C74 C 0.39343 0.17339 0.56478 0.0
O75 O 0.39334 0.18387 0.57494 0.0
O76 O 0.40434 0.17126 0.55742 0.0
O77 O 0.06172 0.18232 0.88105 0.0
Cd78 Cd 0.05959 0.15449 0.88745 0.0
O79 O 0.0484 0.18197 0.90059 0.0
Cd80 Cd 0.03754 0.16783 0.91758 0.0
O81 O 0.02252 0.15783 0.90228 0.0
C82 C 0.01341 0.16825 0.90293 0.0
O83 O 0.01456 0.17919 0.91311 0.0
C84 C 0.05485 0.18992 0.89054 0.0
C85 C 0.07515 0.13497 0.86892 0.0
O86 O 0.0731 0.14948 0.86574 0.0
O87 O 0.06959 0.12927 0.88091 0.0
O88 O 0.39143 0.07798 0.20492 0.0
Cd89 Cd 0.40651 0.07547 0.18369 0.0
O90 O 0.40214 0.05609 0.20661 0.0
Cd91 Cd 0.41626 0.03914 0.1977 0.0
O92 O 0.40223 0.02977 0.17947 0.0
C93 C 0.39595 0.02061 0.18854 0.0
O94 O 0.40007 0.02079 0.20265 0.0
C95 C 0.39392 0.06561 0.21256 0.0
C96 C 0.40935 0.09984 0.16221 0.0
O97 O 0.4004 0.10138 0.17251 0.0
O98 O 0.41632 0.08717 0.16241 0.0
O99 O 0.16274 0.13807 0.45685 0.0
Cd100 Cd 0.16141 0.15455 0.43536 0.0
O101 O 0.18179 0.14985 0.45292 0.0
Cd102 Cd 0.19678 0.16542 0.44348 0.0
O103 O 0.19792 0.14782 0.42605 0.0
C104 C 0.20722 0.13846 0.43032 0.0
O105 O 0.21191 0.14037 0.44411 0.0
C106 C 0.1747 0.14072 0.46124 0.0
C107 C 0.13779 0.15914 0.41935 0.0
O108 O 0.13726 0.14852 0.42984 0.0
O109 O 0.14903 0.16613 0.41726 0.0
O110 O 0.14145 0.91641 0.7073 0.0
Cd111 Cd 0.12447 0.92276 0.68897 0.0
O112 O 0.13416 0.94017 0.7077 0.0
Cd113 Cd 0.12174 0.96117 0.70559 0.0
O114 O 0.1331 0.96798 0.68536 0.0
C115 C 0.14203 0.97644 0.69143 0.0
O116 O 0.14209 0.97679 0.70632 0.0
C117 C 0.1419 0.92965 0.71356 0.0
C118 C 0.1142 0.90147 0.66887 0.0
O119 O 0.12428 0.89654 0.67673 0.0
O120 O 0.1101 0.91543 0.6711 0.0
O121 O 0.31898 0.87348 0.99595 0.0
Cd122 Cd 0.32069 0.85661 0.97522 0.0
O123 O 0.3004 0.86016 0.9939 0.0
Cd124 Cd 0.28705 0.84385 0.98299 0.0
O125 O 0.28204 0.85664 0.96204 0.0
C126 C 0.27501 0.86807 0.96663 0.0
O127 O 0.27712 0.87222 0.98073 0.0
C128 C 0.30759 0.86958 1.00138 0.0
C129 C 0.34506 0.8546 0.96018 0.0
O130 O 0.34408 0.86508 0.97026 0.0
O131 O 0.33462 0.84627 0.95748 0.0
O132 O 0.39106 0.92019 0.29637 0.0
Cd133 Cd 0.4058 0.92291 0.31733 0.0
O134 O 0.40076 0.94289 0.29349 0.0
Cd135 Cd 0.414 0.96127 0.30047 0.0
O136 O 0.39945 0.96689 0.31792 0.0
C137 C 0.39212 0.97747 0.31177 0.0
O138 O 0.39398 0.98025 0.29723 0.0
C139 C 0.39292 0.93254 0.28829 0.0
C140 C 0.40964 0.89806 0.33795 0.0
O141 O 0.40038 0.89655 0.32797 0.0
O142 O 0.41623 0.91098 0.3379 0.0
O143 O 0.32008 0.12591 0.50608 0.0
Cd144 Cd 0.32093 0.14283 0.52827 0.0
O145 O 0.30232 0.13902 0.51164 0.0
Cd146 Cd 0.28661 0.15476 0.51869 0.0
O147 O 0.28349 0.13801 0.53758 0.0
C148 C 0.27281 0.1306 0.53417 0.0
O149 O 0.26914 0.13167 0.51988 0.0
C150 C 0.30844 0.13054 0.50215 0.0
C151 C 0.34479 0.145 0.54377 0.0
O152 O 0.34341 0.13469 0.53357 0.0
O153 O 0.33481 0.15392 0.54675 0.0
O154 O 0.13951 0.08473 0.79527 0.0
Cd155 Cd 0.12356 0.07753 0.81494 0.0
O156 O 0.13134 0.06115 0.7946 0.0
Cd157 Cd 0.1199 0.03975 0.8002 0.0
O158 O 0.13158 0.03084 0.82053 0.0
C159 C 0.14197 0.0264 0.81339 0.0
O160 O 0.14289 0.03205 0.79959 0.0
C161 C 0.13861 0.07187 0.78841 0.0
C162 C 0.11366 0.09945 0.83458 0.0
O163 O 0.12346 0.10343 0.82584 0.0
O164 O 0.10915 0.08542 0.83408 0.0
O165 O 0.16131 0.86282 0.0423 0.0
Cd166 Cd 0.1607 0.84693 0.06472 0.0
O167 O 0.17978 0.85052 0.0478 0.0
Cd168 Cd 0.1958 0.83623 0.05665 0.0
O169 O 0.19766 0.85144 0.07622 0.0
C170 C 0.20439 0.86378 0.07302 0.0
O171 O 0.20338 0.86935 0.05901 0.0
C172 C 0.17317 0.85909 0.03848 0.0
C173 C 0.13717 0.84231 0.08048 0.0
O174 O 0.13702 0.853 0.07004 0.0
O175 O 0.1481 0.83466 0.08269 0.0
O176 O 0.21437 0.35497 0.08671 0.0
Cd177 Cd 0.19256 0.36627 0.08555 0.0
O178 O 0.20981 0.36433 0.06441 0.0
Cd179 Cd 0.19929 0.37476 0.04591 0.0
O180 O 0.18535 0.35448 0.04608 0.0
C181 C 0.18983 0.34422 0.03712 0.0
O182 O 0.20299 0.34451 0.03475 0.0
C183 C 0.21847 0.35857 0.07352 0.0
C184 C 0.17652 0.37087 0.11082 0.0
O185 O 0.18756 0.36344 0.11344 0.0
O186 O 0.17361 0.37383 0.09701 0.0
O187 O 0.71663 0.14509 0.91442 0.0
Cd188 Cd 0.69434 0.13177 0.91497 0.0
O189 O 0.71134 0.13652 0.93643 0.0
Cd190 Cd 0.70149 0.12329 0.95444 0.0
O191 O 0.68695 0.14231 0.95584 0.0
C192 C 0.69268 0.15044 0.96581 0.0
O193 O 0.70451 0.14551 0.9708 0.0
C194 C 0.72038 0.14288 0.92805 0.0
C195 C 0.67812 0.12743 0.88942 0.0
O196 O 0.68903 0.13547 0.88816 0.0
O197 O 0.67515 0.12156 0.90241 0.0
O198 O 0.12963 0.45231 0.17486 0.0
Cd199 Cd 0.14504 0.43052 0.17832 0.0
O200 O 0.13932 0.45496 0.1965 0.0
Cd201 Cd 0.15333 0.4471 0.21377 0.0
O202 O 0.14014 0.42843 0.22247 0.0
C203 C 0.13295 0.43653 0.23126 0.0
O204 O 0.13565 0.45166 0.23185 0.0
C205 C 0.13109 0.4604 0.18668 0.0
C206 C 0.1496 0.40885 0.15554 0.0
O207 O 0.14035 0.41922 0.15352 0.0
O208 O 0.15604 0.4088 0.16806 0.0
O209 O 0.8035 0.90904 0.45452 0.0
Cd210 Cd 0.80265 0.90083 0.42841 0.0
O211 O 0.79221 0.88718 0.45455 0.0
Cd212 Cd 0.7842 0.867 0.44297 0.0
O213 O 0.76814 0.87929 0.43095 0.0
C214 C 0.76042 0.884 0.44135 0.0
O215 O 0.76558 0.88438 0.45509 0.0
C216 C 0.79676 0.89872 0.46186 0.0
C217 C 0.81582 0.91952 0.40619 0.0
O218 O 0.8146 0.92423 0.41975 0.0
O219 O 0.81092 0.90603 0.40324 0.0
O220 O 0.88534 0.02422 0.15389 0.0
Cd221 Cd 0.86852 0.0447 0.15654 0.0
O222 O 0.87776 0.02812 0.17624 0.0
Cd223 Cd 0.8662 0.03122 0.19671 0.0
O224 O 0.87879 0.05213 0.1967 0.0
C225 C 0.88715 0.04913 0.20721 0.0
O226 O 0.88765 0.0345 0.21231 0.0
C227 C 0.88506 0.01976 0.16764 0.0
C228 C 0.85875 0.06199 0.13209 0.0
O229 O 0.86858 0.05269 0.12943 0.0
O230 O 0.85505 0.06323 0.14588 0.0
O231 O 0.30119 0.59212 0.54605 0.0
Cd232 Cd 0.3001 0.60025 0.57194 0.0
O233 O 0.29079 0.61459 0.54569 0.0
Cd234 Cd 0.28278 0.63472 0.5568 0.0
O235 O 0.2674 0.62036 0.56721 0.0
C236 C 0.2581 0.62171 0.55754 0.0
O237 O 0.26019 0.63089 0.54553 0.0
C238 C 0.29536 0.60303 0.53849 0.0
C239 C 0.31389 0.58221 0.59378 0.0
O240 O 0.31254 0.57734 0.58028 0.0
O241 O 0.30841 0.5953 0.59704 0.0
O242 O 0.12975 0.54983 0.32432 0.0
Cd243 Cd 0.14542 0.57186 0.32093 0.0
O244 O 0.1398 0.54779 0.30297 0.0
Cd245 Cd 0.15403 0.55671 0.28608 0.0
O246 O 0.14114 0.57623 0.27635 0.0
C247 C 0.1334 0.56742 0.26886 0.0
O248 O 0.13505 0.55217 0.27125 0.0
C249 C 0.13152 0.54187 0.31252 0.0
C250 C 0.14944 0.59485 0.34285 0.0
O251 O 0.1406 0.58406 0.34522 0.0
O252 O 0.15636 0.59428 0.33069 0.0
O253 O 0.38242 0.47345 0.84557 0.0
Cd254 Cd 0.36532 0.45348 0.84301 0.0
O255 O 0.375 0.47185 0.82279 0.0
Cd256 Cd 0.36368 0.46681 0.80286 0.0
O257 O 0.37403 0.44412 0.80154 0.0
C258 C 0.38572 0.44585 0.79582 0.0
O259 O 0.39194 0.45921 0.79867 0.0
C260 C 0.38223 0.47909 0.83218 0.0
C261 C 0.35644 0.43524 0.86756 0.0
O262 O 0.36604 0.4451 0.86949 0.0
O263 O 0.35131 0.43437 0.85437 0.0
O264 O 0.92257 0.79689 0.58804 0.0
Cd265 Cd 0.91778 0.82225 0.59681 0.0
O266 O 0.93615 0.80158 0.60688 0.0
Cd267 Cd 0.9439 0.81629 0.62463 0.0
O268 O 0.95467 0.83185 0.60859 0.0
C269 C 0.96514 0.82387 0.60568 0.0
O270 O 0.96654 0.8105 0.61334 0.0
C271 C 0.93199 0.7924 0.59672 0.0
C272 C 0.8964 0.83744 0.58237 0.0
O273 O 0.90071 0.82449 0.57713 0.0
O274 O 0.90248 0.84299 0.59384 0.0
O275 O 0.96554 0.16993 0.38917 0.0
Cd276 Cd 0.9436 0.16271 0.39777 0.0
O277 O 0.9635 0.18294 0.40993 0.0
Cd278 Cd 0.95077 0.18838 0.42957 0.0
O279 O 0.93588 0.20349 0.41751 0.0
C280 C 0.9413 0.2169 0.41896 0.0
O281 O 0.9513 0.21803 0.42861 0.0
C282 C 0.97058 0.17943 0.39836 0.0
C283 C 0.93032 0.14327 0.37744 0.0
O284 O 0.94136 0.15013 0.37383 0.0
O285 O 0.92546 0.14558 0.39059 0.0
O286 O 0.57397 0.23578 0.11034 0.0
Cd287 Cd 0.57752 0.20851 0.11568 0.0
O288 O 0.55898 0.22983 0.12644 0.0
Cd289 Cd 0.54829 0.21294 0.14131 0.0
O290 O 0.53803 0.19908 0.1233 0.0
C291 C 0.52659 0.20588 0.12232 0.0
O292 O 0.52363 0.2157 0.13307 0.0
C293 C 0.56421 0.24063 0.11801 0.0
C294 C 0.59897 0.19624 0.09937 0.0
O295 O 0.59405 0.20969 0.09581 0.0
O296 O 0.59359 0.18844 0.11032 0.0
O297 O 0.56206 0.81126 0.8939 0.0
Cd298 Cd 0.55338 0.83558 0.88065 0.0
O299 O 0.54149 0.81 0.88663 0.0
Cd300 Cd 0.5221 0.81343 0.87572 0.0
O301 O 0.51625 0.83122 0.89173 0.0
C302 C 0.51366 0.82408 0.90413 0.0
O303 O 0.51958 0.8103 0.90635 0.0
C304 C 0.5515 0.80295 0.89278 0.0
C305 C 0.57119 0.86078 0.8752 0.0
O306 O 0.5743 0.84909 0.88387 0.0
O307 O 0.55941 0.86089 0.8693 0.0
O308 O 0.91969 0.20352 0.9086 0.0
Cd309 Cd 0.91562 0.17818 0.89973 0.0
O310 O 0.93331 0.19818 0.89027 0.0
Cd311 Cd 0.94086 0.1827 0.87316 0.0
O312 O 0.95214 0.16726 0.89053 0.0
C313 C 0.9635 0.17319 0.88709 0.0
O314 O 0.96403 0.18167 0.87451 0.0
C315 C 0.92924 0.20778 0.90014 0.0
C316 C 0.89466 0.16254 0.91422 0.0
O317 O 0.89857 0.17565 0.9195 0.0
O318 O 0.9009 0.15735 0.90271 0.0
O319 O 0.56151 0.18591 0.60749 0.0
Cd320 Cd 0.55371 0.16257 0.62038 0.0
O321 O 0.54148 0.18994 0.6166 0.0
Cd322 Cd 0.52389 0.18149 0.62854 0.0
O323 O 0.51694 0.16582 0.61042 0.0
C324 C 0.51129 0.17643 0.60247 0.0
O325 O 0.51198 0.19094 0.60758 0.0
C326 C 0.55174 0.19523 0.6096 0.0
C327 C 0.5716 0.13783 0.62634 0.0
O328 O 0.57532 0.14898 0.61734 0.0
O329 O 0.55951 0.13834 0.63136 0.0
O330 O 0.5748 0.76275 0.38865 0.0
Cd331 Cd 0.57858 0.79051 0.38254 0.0
O332 O 0.55942 0.76963 0.3722 0.0
Cd333 Cd 0.55048 0.78853 0.35816 0.0
O334 O 0.54002 0.80201 0.37674 0.0
C335 C 0.52887 0.7946 0.37734 0.0
O336 O 0.52728 0.78397 0.36682 0.0
C337 C 0.56486 0.75892 0.38053 0.0
C338 C 0.60002 0.80255 0.39932 0.0
O339 O 0.59488 0.789 0.40179 0.0
O340 O 0.59475 0.81112 0.38881 0.0
O341 O 0.96286 0.82971 0.10768 0.0
Cd342 Cd 0.94175 0.8383 0.09961 0.0
O343 O 0.96506 0.81641 0.08643 0.0
Cd344 Cd 0.94824 0.81508 0.06978 0.0
O345 O 0.93421 0.79785 0.08018 0.0
C346 C 0.93943 0.78471 0.07697 0.0
O347 O 0.9499 0.78472 0.06781 0.0
C348 C 0.96975 0.82106 0.09912 0.0
C349 C 0.92906 0.85852 0.11975 0.0
O350 O 0.93989 0.85138 0.12374 0.0
O351 O 0.92424 0.85584 0.10666 0.0
O352 O 0.62529 0.91814 0.79974 0.0
Cd353 Cd 0.62897 0.91774 0.82632 0.0
O354 O 0.64254 0.93369 0.80318 0.0
Cd355 Cd 0.65668 0.94556 0.81818 0.0
O356 O 0.64244 0.96311 0.82742 0.0
C357 C 0.64427 0.97506 0.81877 0.0
O358 O 0.65422 0.97452 0.809 0.0
C359 C 0.6344 0.92689 0.79422 0.0
C360 C 0.61076 0.89867 0.84258 0.0
O361 O 0.60905 0.90142 0.82845 0.0
O362 O 0.62078 0.9052 0.84906 0.0
O363 O 0.81961 0.88534 0.52859 0.0
Cd364 Cd 0.82468 0.88714 0.55489 0.0
O365 O 0.80327 0.89954 0.53744 0.0
Cd366 Cd 0.79308 0.90895 0.55711 0.0
O367 O 0.78447 0.88698 0.56705 0.0
C368 C 0.77282 0.88598 0.56102 0.0
O369 O 0.76874 0.89806 0.55273 0.0
C370 C 0.80866 0.89271 0.52626 0.0
C371 C 0.84773 0.87058 0.56387 0.0
O372 O 0.84283 0.86933 0.5506 0.0
O373 O 0.84179 0.87973 0.57303 0.0
O374 O 0.88819 0.05473 0.32455 0.0
Cd375 Cd 0.9031 0.07551 0.31597 0.0
O376 O 0.89799 0.04841 0.30374 0.0
Cd377 Cd 0.91061 0.04909 0.28423 0.0
O378 O 0.89653 0.06615 0.27414 0.0
C379 C 0.88813 0.05857 0.26619 0.0
O380 O 0.88877 0.04315 0.26771 0.0
C381 C 0.89026 0.04453 0.31458 0.0
C382 C 0.90633 0.102 0.33379 0.0
O383 O 0.89741 0.09159 0.33713 0.0
O384 O 0.91361 0.09987 0.32208 0.0
O385 O 0.66898 0.16479 0.02578 0.0
Cd386 Cd 0.66261 0.15444 0.04973 0.0
O387 O 0.6795 0.14247 0.02922 0.0
Cd388 Cd 0.68438 0.12135 0.04218 0.0
O389 O 0.69632 0.13496 0.05765 0.0
C390 C 0.70732 0.13712 0.05062 0.0
O391 O 0.7079 0.13219 0.03659 0.0
C392 C 0.67701 0.15454 0.02095 0.0
C393 C 0.644 0.17168 0.06589 0.0
O394 O 0.64848 0.17733 0.05334 0.0
O395 O 0.64836 0.15829 0.07052 0.0
O396 O 0.62705 0.07934 0.69938 0.0
Cd397 Cd 0.63008 0.08001 0.67366 0.0
O398 O 0.64436 0.06266 0.70068 0.0
Cd399 Cd 0.65468 0.0543 0.68013 0.0
O400 O 0.64049 0.03493 0.67233 0.0
C401 C 0.64446 0.02404 0.68132 0.0
O402 O 0.65519 0.0276 0.68931 0.0
C403 C 0.63498 0.07057 0.70695 0.0
C404 C 0.61087 0.09862 0.65859 0.0
O405 O 0.60947 0.09546 0.67271 0.0
O406 O 0.62121 0.09306 0.65193 0.0
O407 O 0.67163 0.83166 0.47306 0.0
Cd408 Cd 0.66473 0.84243 0.44959 0.0
O409 O 0.68168 0.85431 0.4699 0.0
Cd410 Cd 0.6854 0.87623 0.45748 0.0
O411 O 0.69797 0.86388 0.4416 0.0
C412 C 0.70908 0.86359 0.4487 0.0
O413 O 0.70986 0.8715 0.46129 0.0
C414 C 0.67987 0.84176 0.47778 0.0
C415 C 0.64622 0.8249 0.43341 0.0
O416 O 0.65118 0.8187 0.44547 0.0
O417 O 0.65043 0.83859 0.4294 0.0
O418 O 0.88515 0.94585 0.17263 0.0
Cd419 Cd 0.90046 0.92509 0.18156 0.0
O420 O 0.89484 0.95114 0.1936 0.0
Cd421 Cd 0.90802 0.95158 0.21273 0.0
O422 O 0.89433 0.93398 0.22275 0.0
C423 C 0.88558 0.94107 0.23059 0.0
O424 O 0.88416 0.95623 0.22746 0.0
C425 C 0.8871 0.95566 0.18295 0.0
C426 C 0.90397 0.89912 0.16325 0.0
O427 O 0.89488 0.9094 0.16028 0.0
O428 O 0.91113 0.90084 0.17512 0.0
O429 O 0.8198 0.11713 0.9733 0.0
Cd430 Cd 0.82372 0.11422 0.94676 0.0
O431 O 0.80323 0.10282 0.96498 0.0
Cd432 Cd 0.79296 0.09184 0.94598 0.0
O433 O 0.78396 0.11355 0.93474 0.0
C434 C 0.77279 0.11493 0.94172 0.0
O435 O 0.76987 0.1033 0.95127 0.0
C436 C 0.80923 0.10923 0.97605 0.0
C437 C 0.84663 0.12987 0.93592 0.0
O438 O 0.84218 0.13223 0.94924 0.0
O439 O 0.84011 0.12035 0.92764 0.0
O440 O 0.81141 0.63683 0.92868 0.0
Cd441 Cd 0.80508 0.62075 0.90678 0.0
O442 O 0.79228 0.62573 0.93257 0.0
Cd443 Cd 0.77523 0.61057 0.93055 0.0
O444 O 0.76953 0.62924 0.91452 0.0
C445 C 0.7612 0.63764 0.92163 0.0
O446 O 0.76116 0.63588 0.93648 0.0
C447 C 0.80146 0.63461 0.93753 0.0
C448 C 0.82257 0.6184 0.8815 0.0
O449 O 0.82489 0.62805 0.8921 0.0
O450 O 0.81209 0.60971 0.88296 0.0
O451 O 0.3102 0.86414 0.07176 0.0
Cd452 Cd 0.30264 0.87979 0.09353 0.0
O453 O 0.29143 0.87639 0.06848 0.0
Cd454 Cd 0.27389 0.89126 0.07027 0.0
O455 O 0.26523 0.87494 0.08679 0.0
C456 C 0.2581 0.86694 0.07794 0.0
O457 O 0.2581 0.87107 0.06349 0.0
C458 C 0.30061 0.86782 0.0629 0.0
C459 C 0.3203 0.8829 0.11817 0.0
O460 O 0.32249 0.87295 0.10782 0.0
O461 O 0.30966 0.89134 0.11693 0.0
O462 O 0.88375 0.55035 0.8272 0.0
Cd463 Cd 0.88633 0.57683 0.82975 0.0
O464 O 0.90249 0.55102 0.81337 0.0
Cd465 Cd 0.91348 0.57185 0.80495 0.0
O466 O 0.89999 0.57984 0.78648 0.0
C467 C 0.90258 0.57117 0.7753 0.0
O468 O 0.91326 0.56205 0.77624 0.0
C469 C 0.89305 0.54344 0.82017 0.0
C470 C 0.86583 0.59038 0.84679 0.0
O471 O 0.8654 0.57561 0.84441 0.0
O472 O 0.87573 0.59824 0.84128 0.0
O473 O 0.21674 0.13405 0.5692 0.0
Cd474 Cd 0.19452 0.14261 0.5759 0.0
O475 O 0.21228 0.15356 0.55363 0.0
Cd476 Cd 0.198 0.17145 0.54514 0.0
O477 O 0.18387 0.1553 0.53376 0.0
C478 C 0.18872 0.15506 0.52047 0.0
O479 O 0.19798 0.16549 0.5168 0.0
C480 C 0.2206 0.14316 0.55857 0.0
C481 C 0.18246 0.12563 0.59979 0.0
O482 O 0.19351 0.12104 0.59387 0.0
O483 O 0.17704 0.13811 0.59423 0.0
O484 O 0.15143 0.95571 0.82866 0.0
Cd485 Cd 0.14517 0.92881 0.83133 0.0
O486 O 0.13531 0.95259 0.8122 0.0
Cd487 Cd 0.12099 0.93663 0.80173 0.0
O488 O 0.13619 0.92354 0.78817 0.0
C489 C 0.13815 0.93345 0.77742 0.0
O490 O 0.13033 0.94604 0.77768 0.0
C491 C 0.14382 0.96156 0.81853 0.0
C492 C 0.15929 0.91181 0.85356 0.0
O493 O 0.1628 0.92588 0.85006 0.0
O494 O 0.14939 0.90577 0.84646 0.0
O495 O 0.71934 0.36524 0.43116 0.0
Cd496 Cd 0.69697 0.35651 0.42431 0.0
O497 O 0.71425 0.34582 0.44599 0.0
Cd498 Cd 0.7006 0.32767 0.45535 0.0
O499 O 0.68645 0.34425 0.46629 0.0
C500 C 0.69156 0.34516 0.47943 0.0
O501 O 0.70047 0.33436 0.48331 0.0
C502 C 0.72301 0.356 0.44166 0.0
C503 C 0.68478 0.37358 0.40055 0.0
O504 O 0.69598 0.37802 0.40624 0.0
O505 O 0.67932 0.36115 0.4062 0.0
O506 O 0.88341 0.45293 0.67141 0.0
Cd507 Cd 0.88619 0.42569 0.66985 0.0
O508 O 0.90095 0.44821 0.68551 0.0
Cd509 Cd 0.91506 0.43149 0.69576 0.0
O510 O 0.90057 0.42214 0.71297 0.0
C511 C 0.90339 0.43057 0.72424 0.0
O512 O 0.91403 0.43972 0.72321 0.0
C513 C 0.89278 0.45813 0.67959 0.0
C514 C 0.86628 0.41073 0.65295 0.0
O515 O 0.86531 0.42539 0.65572 0.0
O516 O 0.87659 0.40342 0.65819 0.0
O517 O 0.65364 0.54478 0.1709 0.0
Cd518 Cd 0.64728 0.5717 0.16872 0.0
O519 O 0.63769 0.54835 0.18772 0.0
Cd520 Cd 0.62316 0.56523 0.19723 0.0
O521 O 0.63758 0.57896 0.21222 0.0
C522 C 0.64016 0.56807 0.22189 0.0
O523 O 0.63485 0.55426 0.21891 0.0
C524 C 0.6452 0.53915 0.1801 0.0
C525 C 0.66139 0.58945 0.14706 0.0
O526 O 0.66484 0.57523 0.15 0.0
O527 O 0.65145 0.59515 0.15434 0.0
O528 O 0.56748 0.73147 0.87898 0.0
Cd529 Cd 0.56928 0.70813 0.89407 0.0
O530 O 0.54987 0.7268 0.89273 0.0
Cd531 Cd 0.53662 0.71569 0.90946 0.0
O532 O 0.52963 0.69523 0.89672 0.0
C533 C 0.5218 0.70219 0.88739 0.0
O534 O 0.52416 0.71732 0.88511 0.0
C535 C 0.55614 0.73615 0.88373 0.0
C536 C 0.59222 0.68976 0.89536 0.0
O537 O 0.59233 0.70081 0.88527 0.0
O538 O 0.58169 0.68835 0.90355 0.0
O539 O 0.56405 0.31612 0.12009 0.0
Cd540 Cd 0.56202 0.34424 0.11317 0.0
O541 O 0.54991 0.31771 0.10128 0.0
Cd542 Cd 0.54115 0.33304 0.08354 0.0
O543 O 0.5249 0.3426 0.0996 0.0
C544 C 0.51617 0.33227 0.0965 0.0
O545 O 0.51901 0.32331 0.08503 0.0
C546 C 0.55748 0.30924 0.10992 0.0
C547 C 0.57695 0.36468 0.13159 0.0
O548 O 0.57572 0.35002 0.13464 0.0
O549 O 0.57113 0.37006 0.11964 0.0
O550 O 0.91863 0.28742 0.41479 0.0
Cd551 Cd 0.91899 0.30825 0.43185 0.0
O552 O 0.93831 0.28839 0.42558 0.0
Cd553 Cd 0.95272 0.29885 0.44104 0.0
O554 O 0.95685 0.32016 0.42731 0.0
C555 C 0.9622 0.31478 0.41545 0.0
O556 O 0.96099 0.29939 0.41387 0.0
C557 C 0.93031 0.28162 0.41655 0.0
C558 C 0.89577 0.32561 0.43546 0.0
O559 O 0.89564 0.31512 0.42532 0.0
O560 O 0.90672 0.32774 0.44275 0.0
O561 O 0.97158 0.67751 0.60549 0.0
Cd562 Cd 0.95068 0.67855 0.61956 0.0
O563 O 0.96878 0.70059 0.61467 0.0
Cd564 Cd 0.95913 0.71932 0.6264 0.0
O565 O 0.94378 0.72063 0.60897 0.0
C566 C 0.94842 0.73159 0.60054 0.0
O567 O 0.96042 0.73713 0.60396 0.0
C568 C 0.97637 0.69106 0.6078 0.0
C569 C 0.93516 0.65158 0.62475 0.0
O570 O 0.9454 0.65092 0.61594 0.0
O571 O 0.93273 0.66457 0.63117 0.0
O572 O 0.56937 0.26718 0.62078 0.0
Cd573 Cd 0.57006 0.29131 0.60611 0.0
O574 O 0.55133 0.27074 0.60745 0.0
Cd575 Cd 0.53631 0.28071 0.59257 0.0
O576 O 0.53098 0.30058 0.60673 0.0
C577 C 0.52231 0.2962 0.61654 0.0
O578 O 0.52252 0.28112 0.62043 0.0
C579 C 0.55841 0.26164 0.61582 0.0
C580 C 0.59305 0.31009 0.60662 0.0
O581 O 0.59233 0.29813 0.61563 0.0
O582 O 0.58333 0.31247 0.59736 0.0
O583 O 0.97126 0.32343 0.89602 0.0
Cd584 Cd 0.95067 0.32249 0.88049 0.0
O585 O 0.96636 0.30089 0.88709 0.0
Cd586 Cd 0.95869 0.28128 0.87419 0.0
O587 O 0.94274 0.28015 0.89125 0.0
C588 C 0.94658 0.26991 0.90103 0.0
O589 O 0.95928 0.26543 0.89996 0.0
C590 C 0.97481 0.30927 0.89437 0.0
C591 C 0.93549 0.34906 0.8738 0.0
O592 O 0.94505 0.35017 0.88348 0.0
O593 O 0.93343 0.33576 0.8678 0.0
O594 O 0.91824 0.71317 0.08107 0.0
Cd595 Cd 0.919 0.69244 0.06394 0.0
O596 O 0.93803 0.71324 0.07043 0.0
Cd597 Cd 0.95345 0.70334 0.05625 0.0
O598 O 0.95644 0.68243 0.07074 0.0
C599 C 0.96227 0.6873 0.08255 0.0
O600 O 0.96235 0.70276 0.08397 0.0
C601 C 0.92946 0.7199 0.07883 0.0
C602 C 0.89572 0.67514 0.06094 0.0
O603 O 0.89595 0.68615 0.07055 0.0
O604 O 0.90618 0.67274 0.05291 0.0
O605 O 0.56408 0.68201 0.37759 0.0
Cd606 Cd 0.56228 0.65471 0.38484 0.0
O607 O 0.5527 0.68303 0.39846 0.0
Cd608 Cd 0.54125 0.66914 0.41521 0.0
O609 O 0.52662 0.65794 0.40085 0.0
C610 C 0.51727 0.66793 0.40216 0.0
O611 O 0.51883 0.67932 0.41185 0.0
C612 C 0.55718 0.69013 0.38654 0.0
C613 C 0.57768 0.63563 0.36609 0.0
O614 O 0.57556 0.65014 0.36301 0.0
O615 O 0.57197 0.62963 0.37783 0.0
O616 O 0.89303 0.58058 0.70321 0.0
Cd617 Cd 0.90835 0.57795 0.68253 0.0
O618 O 0.90274 0.55793 0.7067 0.0
Cd619 Cd 0.91591 0.5395 0.69916 0.0
O620 O 0.9042 0.53189 0.67987 0.0
C621 C 0.89342 0.52567 0.68496 0.0
O622 O 0.88939 0.53025 0.69839 0.0
C623 C 0.895 0.56853 0.71166 0.0
C624 C 0.91124 0.60217 0.66083 0.0
O625 O 0.90236 0.60376 0.67122 0.0
O626 O 0.91847 0.58973 0.66124 0.0
O627 O 0.66285 0.63734 0.9579 0.0
Cd628 Cd 0.66292 0.6538 0.9354 0.0
O629 O 0.68141 0.64945 0.95223 0.0
Cd630 Cd 0.69811 0.66407 0.94433 0.0
O631 O 0.69977 0.64714 0.92634 0.0
C632 C 0.70917 0.63785 0.93046 0.0
O633 O 0.71369 0.63947 0.94436 0.0
C634 C 0.67476 0.64081 0.96165 0.0
C635 C 0.63901 0.65811 0.92012 0.0
O636 O 0.63927 0.6475 0.9306 0.0
O637 O 0.64995 0.66556 0.91721 0.0
O638 O 0.6425 0.41343 0.20516 0.0
Cd639 Cd 0.62633 0.42071 0.18541 0.0
O640 O 0.63486 0.43715 0.20371 0.0
Cd641 Cd 0.62478 0.46009 0.20192 0.0
O642 O 0.63899 0.46362 0.18354 0.0
C643 C 0.64749 0.47339 0.18854 0.0
O644 O 0.6481 0.47457 0.20334 0.0
C645 C 0.64166 0.42677 0.21113 0.0
C646 C 0.617 0.40004 0.16449 0.0
O647 O 0.62609 0.39511 0.17377 0.0
O648 O 0.61341 0.41445 0.16508 0.0
O649 O 0.82186 0.37341 0.49379 0.0
Cd650 Cd 0.82306 0.35604 0.47209 0.0
O651 O 0.80379 0.36058 0.48907 0.0
Cd652 Cd 0.78889 0.34396 0.48188 0.0
O653 O 0.78576 0.36076 0.46308 0.0
C654 C 0.77481 0.36766 0.4664 0.0
O655 O 0.77057 0.36561 0.48039 0.0
C656 C 0.81009 0.36953 0.49799 0.0
C657 C 0.84711 0.354 0.45656 0.0
O658 O 0.8457 0.36429 0.46678 0.0
O659 O 0.83711 0.34512 0.45355 0.0
O660 O 0.89451 0.42109 0.79542 0.0
Cd661 Cd 0.90896 0.42377 0.81662 0.0
O662 O 0.90422 0.4437 0.79313 0.0
Cd663 Cd 0.91715 0.46242 0.80061 0.0
O664 O 0.90488 0.47001 0.8199 0.0
C665 C 0.89455 0.47649 0.81395 0.0
O666 O 0.89254 0.47329 0.79953 0.0
C667 C 0.89665 0.43336 0.78741 0.0
C668 C 0.91209 0.39895 0.83746 0.0
O669 O 0.903 0.39746 0.8273 0.0
O670 O 0.91874 0.41184 0.83747 0.0
O671 O 0.82232 0.6274 0.00276 0.0
Cd672 Cd 0.82342 0.64376 0.02481 0.0
O673 O 0.80453 0.64064 0.00834 0.0
Cd674 Cd 0.78878 0.65612 0.01629 0.0
O675 O 0.78434 0.6424 0.03703 0.0
C676 C 0.77628 0.63157 0.03319 0.0
O677 O 0.77593 0.62894 0.01849 0.0
C678 C 0.8107 0.63217 -0.00114 0.0
C679 C 0.84708 0.64534 0.04104 0.0
O680 O 0.84643 0.6354 0.03043 0.0
O681 O 0.8365 0.65342 0.04385 0.0
O682 O 0.64341 0.58518 0.29268 0.0
Cd683 Cd 0.62658 0.57858 0.31166 0.0
O684 O 0.63687 0.56111 0.29485 0.0
Cd685 Cd 0.62574 0.53871 0.29469 0.0
O686 O 0.63568 0.5322 0.31587 0.0
C687 C 0.64709 0.52666 0.31223 0.0
O688 O 0.65153 0.53111 0.29868 0.0
C689 C 0.64335 0.57158 0.28715 0.0
C690 C 0.6172 0.60001 0.33212 0.0
O691 O 0.62671 0.60477 0.32335 0.0
O692 O 0.61362 0.58559 0.33124 0.0
O693 O 0.66505 0.36147 0.54358 0.0
Cd694 Cd 0.66358 0.34376 0.56542 0.0
O695 O 0.68385 0.34942 0.54712 0.0
Cd696 Cd 0.69701 0.33234 0.55796 0.0
O697 O 0.70023 0.34795 0.57696 0.0
C698 C 0.70981 0.3557 0.57105 0.0
O699 O 0.71374 0.35185 0.55731 0.0
C700 C 0.67712 0.35931 0.53922 0.0
C701 C 0.6399 0.34092 0.58248 0.0
O702 O 0.64023 0.35072 0.57129 0.0
O703 O 0.65041 0.33258 0.58501 0.0
O704 O 0.71806 0.85483 0.58715 0.0
Cd705 Cd 0.69565 0.86592 0.58675 0.0
O706 O 0.71336 0.86385 0.56477 0.0
Cd707 Cd 0.70202 0.8748 0.5468 0.0
O708 O 0.68856 0.85468 0.54559 0.0
C709 C 0.69485 0.84653 0.53602 0.0
O710 O 0.70638 0.8522 0.5309 0.0
C711 C 0.72204 0.85786 0.57373 0.0
C712 C 0.6799 0.87087 0.61226 0.0
O713 O 0.69064 0.86259 0.61394 0.0
O714 O 0.67711 0.87627 0.59904 0.0
O715 O 0.21594 0.64723 0.41263 0.0
Cd716 Cd 0.1932 0.63482 0.41318 0.0
O717 O 0.21007 0.6398 0.43483 0.0
Cd718 Cd 0.20061 0.62777 0.45392 0.0
O719 O 0.18615 0.64732 0.45383 0.0
C720 C 0.19129 0.65832 0.46149 0.0
O721 O 0.20455 0.65761 0.46314 0.0
C722 C 0.21948 0.64523 0.42635 0.0
C723 C 0.17654 0.63152 0.3875 0.0
O724 O 0.1877 0.6391 0.3863 0.0
O725 O 0.17374 0.62543 0.40046 0.0
O726 O 0.63229 0.95151 0.67375 0.0
Cd727 Cd 0.64705 0.9291 0.67872 0.0
O728 O 0.64257 0.95067 0.69514 0.0
Cd729 Cd 0.65561 0.94571 0.71449 0.0
O730 O 0.643 0.92639 0.72338 0.0
C731 C 0.63585 0.93438 0.73225 0.0
O732 O 0.63806 0.94966 0.73234 0.0
C733 C 0.63523 0.95849 0.68578 0.0
C734 C 0.65165 0.90682 0.65675 0.0
O735 O 0.64248 0.91712 0.65404 0.0
O736 O 0.65766 0.90733 0.66954 0.0
O737 O 0.30239 0.40278 0.95551 0.0
Cd738 Cd 0.30105 0.39452 0.92973 0.0
O739 O 0.29116 0.38082 0.95574 0.0
Cd740 Cd 0.28285 0.36042 0.94483 0.0
O741 O 0.26727 0.37506 0.93495 0.0
C742 C 0.25828 0.37523 0.94513 0.0
O743 O 0.26014 0.36612 0.95716 0.0
C744 C 0.29586 0.39239 0.96294 0.0
C745 C 0.31523 0.4124 0.90811 0.0
O746 O 0.31379 0.41759 0.92146 0.0
O747 O 0.30952 0.39936 0.90504 0.0
O748 O 0.38226 0.52391 0.65668 0.0
Cd749 Cd 0.36599 0.54395 0.6587 0.0
O750 O 0.37345 0.52719 0.67878 0.0
Cd751 Cd 0.36328 0.53071 0.69977 0.0
O752 O 0.3761 0.55168 0.6991 0.0
C753 C 0.38446 0.54944 0.70978 0.0
O754 O 0.38551 0.53502 0.71515 0.0
C755 C 0.381 0.51916 0.67028 0.0
C756 C 0.35647 0.5614 0.63473 0.0
O757 O 0.36563 0.55138 0.63152 0.0
O758 O 0.35417 0.56375 0.64871 0.0
O759 O 0.80456 0.09602 0.04464 0.0
Cd760 Cd 0.80295 0.10476 0.07061 0.0
O761 O 0.79361 0.11811 0.04497 0.0
Cd762 Cd 0.78459 0.13807 0.05583 0.0
O763 O 0.76876 0.12358 0.06598 0.0
C764 C 0.76016 0.12142 0.05559 0.0
O765 O 0.76324 0.12754 0.04217 0.0
C766 C 0.79859 0.10698 0.03739 0.0
C767 C 0.81757 0.08666 0.09152 0.0
O768 O 0.81545 0.08201 0.0781 0.0
O769 O 0.81206 0.09953 0.09549 0.0
O770 O 0.63209 0.04777 0.82517 0.0
Cd771 Cd 0.6474 0.06908 0.82186 0.0
O772 O 0.642 0.04395 0.80367 0.0
Cd773 Cd 0.65488 0.05115 0.78529 0.0
O774 O 0.64063 0.06975 0.77889 0.0
C775 C 0.63189 0.06374 0.77017 0.0
O776 O 0.63185 0.04825 0.76985 0.0
C777 C 0.63442 0.03878 0.81421 0.0
C778 C 0.65093 0.09153 0.84428 0.0
O779 O 0.64195 0.08091 0.8466 0.0
O780 O 0.65762 0.09102 0.83193 0.0
O781 O 0.88432 0.97683 0.34375 0.0
Cd782 Cd 0.86773 0.95613 0.34117 0.0
O783 O 0.87557 0.97355 0.32171 0.0
Cd784 Cd 0.86505 0.96987 0.30089 0.0
O785 O 0.87649 0.9481 0.29921 0.0
C786 C 0.88555 0.95181 0.28966 0.0
O787 O 0.88586 0.96647 0.2849 0.0
C788 C 0.88322 0.98156 0.33012 0.0
C789 C 0.85856 0.93836 0.36553 0.0
O790 O 0.86821 0.94811 0.36759 0.0
O791 O 0.85418 0.93684 0.35203 0.0
O792 O 0.4172 0.29737 0.09258 0.0
Cd793 Cd 0.41324 0.32226 0.10107 0.0
O794 O 0.43158 0.30051 0.11088 0.0
Cd795 Cd 0.44033 0.31494 0.12833 0.0
O796 O 0.4506 0.33088 0.11209 0.0
C797 C 0.46196 0.32406 0.112 0.0
O798 O 0.46424 0.31266 0.12194 0.0
C799 C 0.42656 0.29187 0.1007 0.0
C800 C 0.39206 0.33668 0.08593 0.0
O801 O 0.39652 0.32365 0.08101 0.0
O802 O 0.39766 0.34253 0.09752 0.0
O803 O 0.46269 0.67071 0.89111 0.0
Cd804 Cd 0.44072 0.66246 0.90007 0.0
O805 O 0.46008 0.68281 0.91225 0.0
Cd806 Cd 0.44737 0.68758 0.93193 0.0
O807 O 0.43278 0.703 0.91935 0.0
C808 C 0.43913 0.71594 0.9201 0.0
O809 O 0.44948 0.71611 0.92947 0.0
C810 C 0.46743 0.67996 0.90074 0.0
C811 C 0.42686 0.64305 0.88002 0.0
O812 O 0.43793 0.64982 0.87632 0.0
O813 O 0.42222 0.64536 0.89328 0.0
O814 O 0.07221 0.73806 0.61164 0.0
Cd815 Cd 0.07659 0.71052 0.61726 0.0
O816 O 0.05665 0.73116 0.62788 0.0
Cd817 Cd 0.04789 0.7125 0.64239 0.0
O818 O 0.03716 0.69868 0.6247 0.0
C819 C 0.02542 0.70472 0.62482 0.0
O820 O 0.02313 0.71546 0.63498 0.0
C821 C 0.06195 0.74178 0.61932 0.0
C822 C 0.0982 0.69812 0.60107 0.0
O823 O 0.0935 0.71177 0.59799 0.0
O824 O 0.09254 0.68991 0.61157 0.0
O825 O 0.05967 0.31215 0.39329 0.0
Cd826 Cd 0.05176 0.33624 0.3798 0.0
O827 O 0.03942 0.31021 0.38522 0.0
Cd828 Cd 0.02108 0.31441 0.37262 0.0
O829 O 0.01537 0.33109 0.38963 0.0
C830 C 0.00884 0.32179 0.3982 0.0
O831 O 0.00761 0.30701 0.39412 0.0
C832 C 0.04918 0.30367 0.39223 0.0
C833 C 0.06985 0.36119 0.37439 0.0
O834 O 0.07309 0.34985 0.3834 0.0
O835 O 0.05795 0.36096 0.36873 0.0
O836 O 0.42015 0.70373 0.41224 0.0
Cd837 Cd 0.41516 0.67841 0.40323 0.0
O838 O 0.43312 0.69928 0.39299 0.0
Cd839 Cd 0.4407 0.68348 0.37611 0.0
O840 O 0.45158 0.66747 0.39228 0.0
C841 C 0.46302 0.67376 0.39011 0.0
O842 O 0.46392 0.68468 0.37934 0.0
C843 C 0.42985 0.70816 0.40379 0.0
C844 C 0.39437 0.66236 0.41788 0.0
O845 O 0.39819 0.67568 0.42278 0.0
O846 O 0.40032 0.65689 0.40632 0.0
O847 O 0.06008 0.68951 0.10651 0.0
Cd848 Cd 0.05127 0.66549 0.11898 0.0
O849 O 0.03971 0.69055 0.11478 0.0
Cd850 Cd 0.02032 0.68798 0.12584 0.0
O851 O 0.01553 0.67163 0.10836 0.0
C852 C 0.0087 0.68045 0.09961 0.0
O853 O 0.00678 0.69515 0.10351 0.0
C854 C 0.04967 0.69777 0.10866 0.0
C855 C 0.06868 0.64043 0.12506 0.0
O856 O 0.07262 0.65167 0.11629 0.0
O857 O 0.05648 0.64087 0.12976 0.0
O858 O 0.07154 0.26204 0.89128 0.0
Cd859 Cd 0.07546 0.28969 0.88486 0.0
O860 O 0.05683 0.26903 0.87443 0.0
Cd861 Cd 0.04727 0.28709 0.85979 0.0
O862 O 0.03678 0.30138 0.87797 0.0
C863 C 0.02562 0.29401 0.8784 0.0
O864 O 0.02436 0.28304 0.86814 0.0
C865 C 0.06181 0.25816 0.88299 0.0
C866 C 0.09673 0.30245 0.90128 0.0
O867 O 0.09225 0.28866 0.90417 0.0
O868 O 0.09099 0.31064 0.89083 0.0
O869 O 0.46321 0.32792 0.61109 0.0
Cd870 Cd 0.44151 0.33618 0.60251 0.0
O871 O 0.46099 0.31557 0.5899 0.0
Cd872 Cd 0.44759 0.31115 0.57072 0.0
O873 O 0.43299 0.29559 0.58331 0.0
C874 C 0.43799 0.28254 0.57946 0.0
O875 O 0.44734 0.28288 0.56892 0.0
C876 C 0.46813 0.31884 0.60145 0.0
C877 C 0.42771 0.35553 0.62252 0.0
O878 O 0.43915 0.34952 0.62602 0.0
O879 O 0.42281 0.35248 0.60954 0.0
O880 O 0.12322 0.41946 0.2986 0.0
Cd881 Cd 0.12716 0.41887 0.3251 0.0
O882 O 0.14026 0.43545 0.3019 0.0
Cd883 Cd 0.15451 0.44685 0.31721 0.0
O884 O 0.13983 0.46434 0.32575 0.0
C885 C 0.14124 0.47597 0.31659 0.0
O886 O 0.15186 0.47587 0.30771 0.0
C887 C 0.13192 0.42876 0.29308 0.0
C888 C 0.10905 0.40038 0.34207 0.0
O889 O 0.10698 0.40316 0.32798 0.0
O890 O 0.11949 0.40652 0.34804 0.0
O891 O 0.31682 0.38166 0.02849 0.0
Cd892 Cd 0.32144 0.38504 0.05423 0.0
O893 O 0.30034 0.39658 0.03544 0.0
Cd894 Cd 0.28992 0.40771 0.05413 0.0
O895 O 0.28138 0.3862 0.06597 0.0
C896 C 0.26954 0.38541 0.06044 0.0
O897 O 0.266 0.3968 0.05094 0.0
C898 C 0.3067 0.38989 0.02482 0.0
C899 C 0.3441 0.3686 0.06439 0.0
O900 O 0.34007 0.36723 0.05077 0.0
O901 O 0.3375 0.37764 0.07306 0.0
O902 O 0.3829 0.55492 0.82875 0.0
Cd903 Cd 0.39803 0.57567 0.81907 0.0
O904 O 0.39297 0.54992 0.80782 0.0
Cd905 Cd 0.40546 0.54928 0.7878 0.0
O906 O 0.39168 0.5662 0.77706 0.0
C907 C 0.38375 0.55841 0.76876 0.0
O908 O 0.38485 0.54301 0.76994 0.0
C909 C 0.38541 0.54508 0.81861 0.0
C910 C 0.4019 0.60199 0.83676 0.0
O911 O 0.39284 0.5918 0.84018 0.0
O912 O 0.40887 0.59989 0.82481 0.0
O913 O 0.1683 0.66967 0.52818 0.0
Cd914 Cd 0.16197 0.65805 0.55141 0.0
O915 O 0.17767 0.64672 0.53127 0.0
Cd916 Cd 0.18016 0.62595 0.54605 0.0
O917 O 0.19521 0.63785 0.56283 0.0
C918 C 0.20521 0.63573 0.55416 0.0
O919 O 0.20228 0.62819 0.54176 0.0
C920 C 0.17575 0.65909 0.52311 0.0
C921 C 0.14407 0.67577 0.56781 0.0
O922 O 0.14882 0.6815 0.55542 0.0
O923 O 0.14767 0.66195 0.57201 0.0
O924 O 0.12262 0.58241 0.19972 0.0
Cd925 Cd 0.12684 0.58303 0.17358 0.0
O926 O 0.1411 0.56816 0.19745 0.0
Cd927 Cd 0.15377 0.55475 0.18184 0.0
O928 O 0.13926 0.53782 0.17345 0.0
C929 C 0.14063 0.52629 0.18272 0.0
O930 O 0.15132 0.5264 0.19152 0.0
C931 C 0.13127 0.57321 0.20548 0.0
C932 C 0.108 0.60146 0.15768 0.0
O933 O 0.10668 0.59859 0.17185 0.0
O934 O 0.11829 0.59564 0.15111 0.0
O935 O 0.16634 0.33449 0.97413 0.0
Cd936 Cd 0.16047 0.34461 0.9501 0.0
O937 O 0.17694 0.35661 0.9702 0.0
Cd938 Cd 0.18259 0.3773 0.95679 0.0
O939 O 0.19473 0.36589 0.93961 0.0
C940 C 0.20447 0.36026 0.94729 0.0
O941 O 0.20266 0.35906 0.96205 0.0
C942 C 0.1742 0.34494 0.9789 0.0
C943 C 0.14229 0.32661 0.93411 0.0
O944 O 0.14711 0.32106 0.94653 0.0
O945 O 0.14588 0.3404 0.92975 0.0
O946 O 0.38598 0.44431 0.6756 0.0
Cd947 Cd 0.40061 0.42359 0.68411 0.0
O948 O 0.39629 0.45092 0.69609 0.0
Cd949 Cd 0.40981 0.44819 0.7148 0.0
O950 O 0.39683 0.43116 0.727 0.0
C951 C 0.38985 0.44107 0.73404 0.0
O952 O 0.39257 0.45603 0.73134 0.0
C953 C 0.3882 0.45454 0.6855 0.0
C954 C 0.40348 0.39733 0.66593 0.0
O955 O 0.39427 0.4074 0.66272 0.0
O956 O 0.41072 0.39975 0.67766 0.0
O957 O 0.31751 0.61577 0.47248 0.0
Cd958 Cd 0.32232 0.61405 0.44575 0.0
O959 O 0.30088 0.60255 0.46276 0.0
Cd960 Cd 0.29144 0.59223 0.44302 0.0
O961 O 0.28272 0.61452 0.4326 0.0
C962 C 0.27162 0.61557 0.43975 0.0
O963 O 0.26901 0.60375 0.44921 0.0
C964 C 0.30641 0.60858 0.47429 0.0
C965 C 0.34577 0.62966 0.43632 0.0
O966 O 0.34102 0.63137 0.44959 0.0
O967 O 0.33931 0.62095 0.4272 0.0
O968 O 0.30934 0.13558 0.42879 0.0
Cd969 Cd 0.30278 0.11941 0.40694 0.0
O970 O 0.29009 0.12478 0.43253 0.0
Cd971 Cd 0.2729 0.10982 0.43054 0.0
O972 O 0.26736 0.12844 0.41434 0.0
C973 C 0.25923 0.13717 0.42136 0.0
O974 O 0.25937 0.13579 0.43624 0.0
C975 C 0.29932 0.13354 0.43758 0.0
C976 C 0.32034 0.11635 0.38191 0.0
O977 O 0.32271 0.12601 0.39249 0.0
O978 O 0.3096 0.10807 0.38307 0.0
O979 O 0.81217 0.3629 0.57141 0.0
Cd980 Cd 0.80535 0.37901 0.59308 0.0
O981 O 0.79299 0.37426 0.56814 0.0
Cd982 Cd 0.77572 0.38963 0.5718 0.0
O983 O 0.76591 0.37493 0.58943 0.0
C984 C 0.76217 0.36311 0.58198 0.0
O985 O 0.7679 0.36183 0.56852 0.0
C986 C 0.80215 0.36545 0.56279 0.0
C987 C 0.82341 0.38242 0.61737 0.0
O988 O 0.82566 0.37217 0.60732 0.0
O989 O 0.81243 0.39032 0.61618 0.0
O990 O 0.3809 0.04505 0.3295 0.0
Cd991 Cd 0.38345 0.07278 0.33061 0.0
O992 O 0.39856 0.0503 0.3155 0.0
Cd993 Cd 0.41228 0.06741 0.30485 0.0
O994 O 0.39802 0.07673 0.28736 0.0
C995 C 0.40069 0.06822 0.2761 0.0
O996 O 0.41139 0.05916 0.277 0.0
C997 C 0.39063 0.04019 0.32164 0.0
C998 C 0.36346 0.0879 0.34738 0.0
O999 O 0.36254 0.07324 0.34469 0.0
O1000 O 0.37371 0.09537 0.34219 0.0
O1001 O 0.71692 0.63542 0.0661 0.0
Cd1002 Cd 0.69556 0.64329 0.07327 0.0
O1003 O 0.71624 0.65465 0.0487 0.0
Cd1004 Cd 0.69806 0.66951 0.04495 0.0
O1005 O 0.6842 0.65344 0.0322 0.0
C1006 C 0.68939 0.65498 0.01915 0.0
O1007 O 0.69897 0.66573 0.01782 0.0
C1008 C 0.72242 0.64322 0.05541 0.0
C1009 C 0.68509 0.62573 0.09754 0.0
O1010 O 0.69589 0.62113 0.09107 0.0
O1011 O 0.67932 0.63815 0.09237 0.0
O1012 O 0.65201 0.45131 0.32548 0.0
Cd1013 Cd 0.64604 0.42575 0.32856 0.0
O1014 O 0.63513 0.45351 0.30895 0.0
Cd1015 Cd 0.62464 0.43165 0.30249 0.0
O1016 O 0.63948 0.42032 0.28631 0.0
C1017 C 0.63644 0.42892 0.27493 0.0
O1018 O 0.6256 0.43763 0.27657 0.0
C1019 C 0.64479 0.45952 0.31658 0.0
C1020 C 0.6606 0.40963 0.35079 0.0
O1021 O 0.66443 0.42359 0.34726 0.0
O1022 O 0.65057 0.40397 0.34366 0.0
O1023 O 0.21671 0.8666 0.93392 0.0
Cd1024 Cd 0.19459 0.85808 0.92673 0.0
O1025 O 0.21172 0.84724 0.94896 0.0
Cd1026 Cd 0.19741 0.82981 0.9578 0.0
O1027 O 0.18312 0.8466 0.96874 0.0
C1028 C 0.18751 0.84452 0.98211 0.0
O1029 O 0.19611 0.83293 0.98431 0.0
C1030 C 0.2202 0.85796 0.94511 0.0
C1031 C 0.18298 0.87581 0.90315 0.0
O1032 O 0.1942 0.87992 0.90896 0.0
O1033 O 0.17718 0.86343 0.90844 0.0
O1034 O 0.38116 0.95318 0.17184 0.0
Cd1035 Cd 0.3835 0.92545 0.17037 0.0
O1036 O 0.39846 0.94766 0.18634 0.0
Cd1037 Cd 0.4123 0.93039 0.19646 0.0
O1038 O 0.39779 0.92143 0.21373 0.0
C1039 C 0.40033 0.93003 0.22497 0.0
O1040 O 0.4112 0.93883 0.22428 0.0
C1041 C 0.39043 0.95783 0.18049 0.0
C1042 C 0.3636 0.91107 0.15276 0.0
O1043 O 0.36298 0.92572 0.15555 0.0
O1044 O 0.37338 0.90316 0.15854 0.0
O1045 O 0.15081 0.04463 0.67348 0.0
Cd1046 Cd 0.14438 0.07155 0.67139 0.0
O1047 O 0.13461 0.04848 0.68962 0.0
Cd1048 Cd 0.12035 0.06438 0.70036 0.0
O1049 O 0.13567 0.07738 0.71436 0.0
C1050 C 0.13358 0.06957 0.72651 0.0
O1051 O 0.12315 0.05998 0.72665 0.0
C1052 C 0.1429 0.03911 0.6834 0.0
C1053 C 0.15821 0.0893 0.64949 0.0
O1054 O 0.1621 0.07528 0.65268 0.0
O1055 O 0.14813 0.09459 0.65682 0.0
C1056 C 0.10165 0.16811 0.40716 0.0
C1057 C 0.10344 0.18129 0.39741 0.0
C1058 C 0.11254 0.16019 0.4139 0.0
C1059 C 0.1259 0.16495 0.41067 0.0
H1060 H 0.09152 0.16441 0.41029 0.0
H1061 H 0.11016 0.15078 0.42196 0.0
S1062 S 0.13668 0.19653 0.38342 0.0
N1063 N 0.11995 0.19755 0.38341 0.0
N1064 N 0.14043 0.18192 0.39519 0.0
C1065 C 0.1279 0.17712 0.39974 0.0
C1066 C 0.11676 0.18552 0.39323 0.0
C1067 C 0.09513 0.86713 0.65131 0.0
C1068 C 0.08539 0.87523 0.64242 0.0
C1069 C 0.10547 0.87512 0.65903 0.0
C1070 C 0.10616 0.89175 0.65831 0.0
H1071 H 0.09473 0.85439 0.65216 0.0
H1072 H 0.11257 0.86808 0.66567 0.0
S1073 S 0.08405 0.91866 0.63566 0.0
N1074 N 0.07767 0.90093 0.63295 0.0
N1075 N 0.09729 0.91575 0.64662 0.0
C1076 C 0.09694 0.89982 0.64876 0.0
C1077 C 0.0864 0.89174 0.64116 0.0
C1078 C 0.35725 0.83746 0.9431 0.0
C1079 C 0.35797 0.85009 0.95311 0.0
C1080 C 0.36873 0.82969 0.93822 0.0
C1081 C 0.38159 0.83454 0.94289 0.0
H1082 H 0.34757 0.83283 0.9396 0.0
H1083 H 0.36727 0.81947 0.93127 0.0
S1084 S 0.38978 0.86881 0.96655 0.0
N1085 N 0.37302 0.86842 0.96608 0.0
N1086 N 0.39481 0.85387 0.95636 0.0
C1087 C 0.38269 0.84788 0.95198 0.0
C1088 C 0.37088 0.85576 0.95719 0.0
C1089 C 0.42781 0.11351 0.14948 0.0
C1090 C 0.41382 0.11287 0.15202 0.0
C1091 C 0.43361 0.12439 0.13948 0.0
C1092 C 0.42568 0.13572 0.13201 0.0
H1093 H 0.4345 0.10553 0.1556 0.0
H1094 H 0.44452 0.12448 0.13849 0.0
S1095 S 0.38836 0.13902 0.13308 0.0
N1096 N 0.39177 0.12419 0.14504 0.0
N1097 N 0.40309 0.14539 0.12654 0.0
C1098 C 0.41158 0.13528 0.13399 0.0
C1099 C 0.4055 0.12383 0.14407 0.0
C1100 C 0.10116 0.83142 0.08961 0.0
C1101 C 0.10263 0.82068 0.1019 0.0
C1102 C 0.11203 0.83949 0.0832 0.0
C1103 C 0.12508 0.83731 0.08903 0.0
H1104 H 0.09145 0.8331 0.08418 0.0
H1105 H 0.10999 0.8467 0.07319 0.0
S1106 S 0.135 0.81344 0.12287 0.0
N1107 N 0.11858 0.80989 0.1209 0.0
N1108 N 0.13896 0.82597 0.10908 0.0
C1109 C 0.12675 0.82782 0.10215 0.0
C1110 C 0.11563 0.81919 0.10858 0.0
C1111 C 0.42964 0.87798 0.36915 0.0
C1112 C 0.42615 0.86195 0.36801 0.0
C1113 C 0.42345 0.88933 0.35974 0.0
C1114 C 0.41373 0.88536 0.34878 0.0
H1115 H 0.43757 0.88201 0.37663 0.0
H1116 H 0.42686 0.90142 0.36048 0.0
S1117 S 0.40105 0.84481 0.34167 0.0
N1118 N 0.41172 0.84276 0.35586 0.0
N1119 N 0.40087 0.86391 0.33751 0.0
C1120 C 0.40979 0.86944 0.3479 0.0
C1121 C 0.41582 0.8579 0.35775 0.0
C1122 C 0.35923 0.15291 0.56508 0.0
C1123 C 0.35802 0.1489 0.54979 0.0
C1124 C 0.37068 0.16096 0.57026 0.0
C1125 C 0.38118 0.16505 0.5601 0.0
H1126 H 0.35106 0.15011 0.5729 0.0
H1127 H 0.37123 0.16386 0.58215 0.0
S1128 S 0.38301 0.15628 0.51913 0.0
N1129 N 0.36841 0.14876 0.52482 0.0
N1130 N 0.3897 0.16417 0.53428 0.0
C1131 C 0.38011 0.16065 0.54489 0.0
C1132 C 0.36864 0.15236 0.53978 0.0
C1133 C 0.09319 0.11435 0.8669 0.0
C1134 C 0.0849 0.12584 0.85986 0.0
C1135 C 0.10367 0.10708 0.8589 0.0
C1136 C 0.10611 0.1108 0.84357 0.0
H1137 H 0.09169 0.11103 0.87869 0.0
H1138 H 0.10963 0.09799 0.86456 0.0
S1139 S 0.08633 0.13861 0.81941 0.0
N1140 N 0.07924 0.13969 0.83632 0.0
N1141 N 0.09898 0.12599 0.82135 0.0
C1142 C 0.09789 0.12215 0.83634 0.0
C1143 C 0.08719 0.12954 0.84445 0.0
C1144 C 0.1605 0.38389 0.14841 0.0
C1145 C 0.15391 0.39786 0.14371 0.0
C1146 C 0.16779 0.37458 0.13819 0.0
C1147 C 0.16841 0.379 0.12261 0.0
H1148 H 0.16028 0.38055 0.16035 0.0
H1149 H 0.17278 0.36415 0.14279 0.0
S1150 S 0.15137 0.41353 0.10411 0.0
N1151 N 0.14748 0.41482 0.12225 0.0
N1152 N 0.16085 0.39774 0.1031 0.0
C1153 C 0.16113 0.39254 0.1178 0.0
C1154 C 0.15385 0.40189 0.12821 0.0
C1155 C 0.67053 0.10142 0.85737 0.0
C1156 C 0.65639 0.10158 0.85634 0.0
C1157 C 0.67758 0.11151 0.8667 0.0
C1158 C 0.67074 0.12176 0.87619 0.0
H1159 H 0.6763 0.09321 0.85076 0.0
H1160 H 0.68847 0.11042 0.86713 0.0
S1161 S 0.63374 0.12842 0.87757 0.0
N1162 N 0.63554 0.11421 0.8651 0.0
N1163 N 0.64913 0.13271 0.88358 0.0
C1164 C 0.65654 0.12249 0.87533 0.0
C1165 C 0.64921 0.11238 0.86534 0.0
C1166 C 0.85043 0.92312 0.38897 0.0
C1167 C 0.84883 0.93494 0.37767 0.0
C1168 C 0.83943 0.91889 0.39829 0.0
C1169 C 0.82668 0.92596 0.39648 0.0
H1170 H 0.85983 0.91674 0.39051 0.0
H1171 H 0.84068 0.90968 0.40689 0.0
S1172 S 0.81821 0.95832 0.36887 0.0
N1173 N 0.8343 0.95448 0.36586 0.0
N1174 N 0.81339 0.94598 0.38267 0.0
C1175 C 0.82513 0.93809 0.38545 0.0
C1176 C 0.83638 0.94267 0.37629 0.0
C1177 C 0.82712 0.08016 0.11681 0.0
C1178 C 0.82797 0.07912 0.1011 0.0
C1179 C 0.83779 0.07553 0.12595 0.0
C1180 C 0.84976 0.069 0.12021 0.0
H1181 H 0.81816 0.08446 0.12238 0.0
H1182 H 0.83618 0.07657 0.13799 0.0
S1183 S 0.85664 0.06349 0.07898 0.0
N1184 N 0.84131 0.07114 0.07954 0.0
N1185 N 0.86181 0.06192 0.09685 0.0
C1186 C 0.85085 0.06773 0.10421 0.0
C1187 C 0.83975 0.07273 0.09474 0.0
C1188 C 0.3481 0.56859 0.60777 0.0
C1189 C 0.34608 0.5669 0.62364 0.0
C1190 C 0.33714 0.57252 0.59816 0.0
C1191 C 0.32411 0.57521 0.60397 0.0
H1192 H 0.35797 0.56724 0.60257 0.0
H1193 H 0.33879 0.57406 0.58606 0.0
S1194 S 0.31332 0.57056 0.64413 0.0
N1195 N 0.32965 0.56704 0.64422 0.0
N1196 N 0.30961 0.57473 0.62623 0.0
C1197 C 0.32196 0.5733 0.61958 0.0
C1198 C 0.33288 0.56916 0.62931 0.0
C1199 C 0.1656 0.5991 0.36307 0.0
C1200 C 0.15442 0.60488 0.35503 0.0
C1201 C 0.17336 0.6088 0.3721 0.0
C1202 C 0.16995 0.62454 0.37427 0.0
H1203 H 0.16874 0.587 0.36196 0.0
H1204 H 0.18193 0.60372 0.37805 0.0
S1205 S 0.14179 0.64607 0.35498 0.0
N1206 N 0.14058 0.62786 0.34874 0.0
N1207 N 0.1547 0.64612 0.36698 0.0
C1208 C 0.1587 0.63083 0.36628 0.0
C1209 C 0.15098 0.62091 0.35644 0.0
C1210 C 0.3386 0.43991 0.88575 0.0
C1211 C 0.34828 0.42937 0.88029 0.0
C1212 C 0.32751 0.43464 0.89438 0.0
C1213 C 0.32601 0.41853 0.89811 0.0
H1214 H 0.33919 0.45224 0.88229 0.0
H1215 H 0.31992 0.44318 0.89749 0.0
S1216 S 0.34826 0.38592 0.88645 0.0
N1217 N 0.35537 0.40191 0.87887 0.0
N1218 N 0.33483 0.39211 0.89566 0.0
C1219 C 0.33565 0.40789 0.89279 0.0
C1220 C 0.3468 0.41322 0.88381 0.0
C1221 C 0.86985 0.86891 0.57736 0.0
C1222 C 0.86001 0.86184 0.56829 0.0
C1223 C 0.88176 0.86094 0.58119 0.0
C1224 C 0.88428 0.84558 0.5763 0.0
H1225 H 0.8685 0.88075 0.58141 0.0
H1226 H 0.88903 0.8668 0.58832 0.0
S1227 S 0.86093 0.82147 0.55324 0.0
N1228 N 0.85303 0.83847 0.55503 0.0
N1229 N 0.87551 0.82327 0.56228 0.0
C1230 C 0.87445 0.83828 0.56722 0.0
C1231 C 0.86228 0.84649 0.56326 0.0
C1232 C 0.9148 0.10757 0.35921 0.0
C1233 C 0.91058 0.11353 0.34504 0.0
C1234 C 0.92117 0.11723 0.36974 0.0
C1235 C 0.92326 0.13332 0.36652 0.0
H1236 H 0.91384 0.09508 0.36178 0.0
H1237 H 0.92498 0.11185 0.38012 0.0
S1238 S 0.9143 0.15488 0.33103 0.0
N1239 N 0.90916 0.13661 0.32817 0.0
N1240 N 0.92085 0.15488 0.34827 0.0
C1241 C 0.91903 0.13952 0.35244 0.0
C1242 C 0.9127 0.12962 0.3416 0.0
C1243 C 0.61035 0.18996 0.07525 0.0
C1244 C 0.61065 0.19009 0.09114 0.0
C1245 C 0.62156 0.18486 0.06696 0.0
C1246 C 0.63331 0.17951 0.07441 0.0
H1247 H 0.60128 0.19358 0.06923 0.0
H1248 H 0.62082 0.18458 0.05473 0.0
S1249 S 0.63978 0.17926 0.11574 0.0
N1250 N 0.62404 0.18571 0.11399 0.0
N1251 N 0.64506 0.17578 0.09836 0.0
C1252 C 0.63385 0.17993 0.09027 0.0
C1253 C 0.62249 0.18523 0.0987 0.0
C1254 C 0.59117 0.89619 0.86015 0.0
C1255 C 0.60111 0.88887 0.85136 0.0
C1256 C 0.58158 0.88725 0.86846 0.0
C1257 C 0.58196 0.87067 0.86848 0.0
H1258 H 0.59064 0.90894 0.86025 0.0
H1259 H 0.57385 0.89338 0.87472 0.0
S1260 S 0.60539 0.84577 0.84683 0.0
N1261 N 0.61028 0.86401 0.84268 0.0
N1262 N 0.59267 0.84735 0.85879 0.0
C1263 C 0.59195 0.86328 0.85992 0.0
C1264 C 0.60143 0.87231 0.85118 0.0
C1265 C 0.87405 0.16072 0.93096 0.0
C1266 C 0.88283 0.15389 0.92038 0.0
C1267 C 0.86231 0.15281 0.93585 0.0
C1268 C 0.85897 0.13787 0.93039 0.0
H1269 H 0.87601 0.17236 0.93526 0.0
H1270 H 0.85557 0.15857 0.94366 0.0
S1271 S 0.87837 0.1152 0.90218 0.0
N1272 N 0.88719 0.13146 0.90439 0.0
N1273 N 0.86523 0.11667 0.91364 0.0
C1274 C 0.86761 0.13096 0.91978 0.0
C1275 C 0.87953 0.13896 0.91482 0.0
C1276 C 0.59512 0.12606 0.62873 0.0
C1277 C 0.58136 0.12633 0.63307 0.0
C1278 C 0.60466 0.11715 0.63717 0.0
C1279 C 0.60077 0.10813 0.65005 0.0
H1280 H 0.59865 0.13305 0.61909 0.0
H1281 H 0.61524 0.11776 0.63393 0.0
S1282 S 0.56618 0.10514 0.66619 0.0
N1283 N 0.5645 0.11661 0.65103 0.0
N1284 N 0.58236 0.10039 0.66685 0.0
C1285 C 0.58712 0.10828 0.65437 0.0
C1286 C 0.57743 0.1171 0.64577 0.0
C1287 C 0.62859 0.82767 0.41401 0.0
C1288 C 0.63497 0.81781 0.42483 0.0
C1289 C 0.61738 0.8228 0.4058 0.0
C1290 C 0.61192 0.80768 0.4081 0.0
H1291 H 0.63222 0.83955 0.41194 0.0
H1292 H 0.61309 0.83109 0.39765 0.0
S1293 S 0.62535 0.7762 0.43381 0.0
N1294 N 0.63542 0.79145 0.43667 0.0
N1295 N 0.61417 0.78228 0.42111 0.0
C1296 C 0.61832 0.79738 0.4186 0.0
C1297 C 0.62987 0.80238 0.42704 0.0
C1298 C 0.9175 0.86271 0.1443 0.0
C1299 C 0.92192 0.8689 0.13026 0.0
C1300 C 0.91094 0.87226 0.15484 0.0
C1301 C 0.90851 0.88829 0.15153 0.0
H1302 H 0.91926 0.85041 0.14715 0.0
H1303 H 0.90795 0.86709 0.16565 0.0
S1304 S 0.91913 0.91063 0.1171 0.0
N1305 N 0.92412 0.89236 0.11404 0.0
N1306 N 0.91153 0.91013 0.13375 0.0
C1307 C 0.91277 0.89458 0.13752 0.0
C1308 C 0.91958 0.88494 0.12687 0.0
C1309 C 0.85258 0.59426 0.87052 0.0
C1310 C 0.85506 0.59834 0.85528 0.0
C1311 C 0.8423 0.60161 0.87865 0.0
C1312 C 0.83387 0.61299 0.87192 0.0
H1313 H 0.85865 0.58545 0.87635 0.0
H1314 H 0.84068 0.59819 0.8904 0.0
S1315 S 0.8371 0.62882 0.83238 0.0
N1316 N 0.84914 0.61537 0.8339 0.0
N1317 N 0.82922 0.62883 0.84897 0.0
C1318 C 0.83638 0.61757 0.85667 0.0
C1319 C 0.84718 0.61029 0.84845 0.0
C1320 C 0.34458 0.89193 0.15062 0.0
C1321 C 0.35301 0.90334 0.1437 0.0
C1322 C 0.33392 0.88486 0.14255 0.0
C1323 C 0.33173 0.88879 0.12713 0.0
H1324 H 0.346 0.8889 0.16251 0.0
H1325 H 0.32736 0.87659 0.1485 0.0
S1326 S 0.35044 0.91815 0.10386 0.0
N1327 N 0.35798 0.91853 0.12061 0.0
N1328 N 0.33839 0.90478 0.10546 0.0
C1329 C 0.34013 0.9 0.12015 0.0
C1330 C 0.35069 0.90744 0.12838 0.0
C1331 C 0.18155 0.10202 0.61718 0.0
C1332 C 0.17628 0.11681 0.61271 0.0
C1333 C 0.17586 0.09323 0.62922 0.0
C1334 C 0.16464 0.09892 0.63727 0.0
H1335 H 0.19013 0.09715 0.61125 0.0
H1336 H 0.1803 0.08191 0.63217 0.0
S1337 S 0.14785 0.13767 0.63116 0.0
N1338 N 0.1598 0.13727 0.61809 0.0
N1339 N 0.14898 0.12069 0.64049 0.0
C1340 C 0.15949 0.11387 0.63316 0.0
C1341 C 0.16532 0.12283 0.62095 0.0
C1342 C 0.17514 0.89126 0.86356 0.0
C1343 C 0.16567 0.90319 0.86627 0.0
C1344 C 0.18078 0.88241 0.87563 0.0
C1345 C 0.17691 0.88509 0.89068 0.0
H1346 H 0.17827 0.88885 0.85208 0.0
H1347 H 0.18822 0.87345 0.87318 0.0
S1348 S 0.15315 0.91564 0.90371 0.0
N1349 N 0.15318 0.9178 0.88504 0.0
N1350 N 0.16355 0.90087 0.90771 0.0
C1351 C 0.16758 0.89709 0.89352 0.0
C1352 C 0.162 0.90624 0.88128 0.0
C1353 C 0.68607 0.39392 0.37967 0.0
C1354 C 0.6785 0.38244 0.38773 0.0
C1355 C 0.68035 0.40276 0.36765 0.0
C1356 C 0.66683 0.40037 0.36329 0.0
H1357 H 0.69657 0.39597 0.38255 0.0
H1358 H 0.68663 0.41127 0.36161 0.0
S1359 S 0.64293 0.37101 0.37988 0.0
N1360 N 0.65697 0.36859 0.38982 0.0
N1361 N 0.64618 0.38534 0.36751 0.0
C1362 C 0.65926 0.38871 0.37103 0.0
C1363 C 0.66509 0.37968 0.38317 0.0
C1364 C 0.83351 0.40357 0.6321 0.0
C1365 C 0.83419 0.38779 0.62781 0.0
C1366 C 0.84398 0.4108 0.63988 0.0
C1367 C 0.85565 0.4025 0.64423 0.0
H1368 H 0.82486 0.41071 0.62894 0.0
H1369 H 0.84278 0.4231 0.64246 0.0
S1370 S 0.86221 0.36008 0.63773 0.0
N1371 N 0.8473 0.36338 0.62968 0.0
N1372 N 0.86716 0.37713 0.64454 0.0
C1373 C 0.85649 0.38643 0.64052 0.0
C1374 C 0.84573 0.37899 0.63233 0.0
C1375 C 0.67094 0.59185 0.121 0.0
C1376 C 0.66806 0.59879 0.13495 0.0
C1377 C 0.67639 0.60077 0.10891 0.0
C1378 C 0.67928 0.61682 0.11044 0.0
H1379 H 0.66852 0.5796 0.11921 0.0
H1380 H 0.67801 0.59519 0.09814 0.0
S1381 S 0.67319 0.64066 0.1445 0.0
N1382 N 0.6681 0.62274 0.14951 0.0
N1383 N 0.67861 0.63949 0.12682 0.0
C1384 C 0.67634 0.62398 0.12427 0.0
C1385 C 0.67069 0.61493 0.13654 0.0
C1386 C 0.61725 0.68305 0.89438 0.0
C1387 C 0.60396 0.67955 0.89912 0.0
C1388 C 0.62819 0.67491 0.90077 0.0
C1389 C 0.62653 0.66331 0.91226 0.0
H1390 H 0.61959 0.69254 0.88638 0.0
H1391 H 0.63827 0.67849 0.89731 0.0
S1392 S 0.59349 0.64966 0.92821 0.0
N1393 N 0.58959 0.66291 0.91509 0.0
N1394 N 0.61021 0.64851 0.92791 0.0
C1395 C 0.61326 0.65923 0.91671 0.0
C1396 C 0.60205 0.66719 0.90986 0.0
C1397 C 0.6008 0.37178 0.13668 0.0
C1398 C 0.587 0.37404 0.13992 0.0
C1399 C 0.61105 0.37932 0.14499 0.0
C1400 C 0.60756 0.38929 0.15698 0.0
H1401 H 0.60356 0.36422 0.12742 0.0
H1402 H 0.62148 0.37766 0.14158 0.0
S1403 S 0.57316 0.39991 0.16963 0.0
N1404 N 0.57058 0.38773 0.15552 0.0
N1405 N 0.58968 0.40101 0.17162 0.0
C1406 C 0.59385 0.39137 0.16041 0.0
C1407 C 0.58353 0.38409 0.15175 0.0
C1408 C 0.86136 0.34564 0.43526 0.0
C1409 C 0.86035 0.35016 0.45043 0.0
C1410 C 0.87281 0.3376 0.4301 0.0
C1411 C 0.88354 0.33404 0.44013 0.0
H1412 H 0.85302 0.348 0.42755 0.0
H1413 H 0.87316 0.33427 0.41832 0.0
S1414 S 0.88599 0.34434 0.48071 0.0
N1415 N 0.87119 0.35138 0.47512 0.0
N1416 N 0.89251 0.33602 0.4657 0.0
C1417 C 0.88269 0.33899 0.45519 0.0
C1418 C 0.87119 0.34726 0.4603 0.0
C1419 C 0.92958 0.61908 0.65253 0.0
C1420 C 0.91586 0.61538 0.65109 0.0
C1421 C 0.93599 0.62951 0.64256 0.0
C1422 C 0.92881 0.63733 0.63106 0.0
H1423 H 0.93551 0.61364 0.66152 0.0
H1424 H 0.94656 0.63209 0.64444 0.0
S1425 S 0.89272 0.63131 0.62123 0.0
N1426 N 0.89519 0.61959 0.63627 0.0
N1427 N 0.90731 0.64033 0.61788 0.0
C1428 C 0.91499 0.63384 0.62917 0.0
C1429 C 0.90842 0.62268 0.6392 0.0
C1430 C 0.6232 0.32033 0.5839 0.0
C1431 C 0.6271 0.33516 0.58888 0.0
C1432 C 0.61309 0.31174 0.59114 0.0
C1433 C 0.60591 0.31788 0.60327 0.0
H1434 H 0.62839 0.31506 0.57449 0.0
H1435 H 0.61048 0.30033 0.58677 0.0
S1436 S 0.61245 0.35606 0.62161 0.0
N1437 N 0.62362 0.35555 0.60761 0.0
N1438 N 0.60352 0.33959 0.62069 0.0
C1439 C 0.60956 0.33282 0.60863 0.0
C1440 C 0.62038 0.3415 0.60147 0.0
C1441 C 0.93477 0.37692 0.86465 0.0
C1442 C 0.92799 0.36276 0.86782 0.0
C1443 C 0.9291 0.38814 0.85485 0.0
C1444 C 0.91636 0.38609 0.84807 0.0
H1445 H 0.94494 0.37906 0.86867 0.0
H1446 H 0.93521 0.39835 0.85196 0.0
S1447 S 0.8946 0.35042 0.85329 0.0
N1448 N 0.90793 0.34696 0.86409 0.0
N1449 N 0.89704 0.36811 0.84541 0.0
C1450 C 0.90921 0.37198 0.85149 0.0
C1451 C 0.91508 0.36047 0.8616 0.0
C1452 C 0.87177 0.67496 0.05413 0.0
C1453 C 0.8834 0.66646 0.05783 0.0
C1454 C 0.86049 0.66742 0.04865 0.0
C1455 C 0.86002 0.65105 0.04703 0.0
H1456 H 0.87145 0.68767 0.05457 0.0
H1457 H 0.85206 0.67476 0.04512 0.0
S1458 S 0.88872 0.62351 0.0549 0.0
N1459 N 0.89461 0.64108 0.05918 0.0
N1460 N 0.87286 0.62625 0.04923 0.0
C1461 C 0.87176 0.64213 0.05063 0.0
C1462 C 0.88353 0.65007 0.05606 0.0
C1463 C 0.58593 0.61167 0.35297 0.0
C1464 C 0.58809 0.62705 0.35767 0.0
C1465 C 0.59578 0.60383 0.34492 0.0
C1466 C 0.60844 0.6105 0.34128 0.0
H1467 H 0.57648 0.60554 0.35486 0.0
H1468 H 0.59308 0.59225 0.34111 0.0
S1469 S 0.61861 0.65151 0.35122 0.0
N1470 N 0.60325 0.64936 0.35825 0.0
N1471 N 0.62237 0.63455 0.34315 0.0
C1472 C 0.61083 0.62622 0.34593 0.0
C1473 C 0.60048 0.63437 0.35413 0.0
C1474 C 0.67064 0.89127 0.64791 0.0
C1475 C 0.65721 0.89603 0.64522 0.0
C1476 C 0.67763 0.88142 0.63827 0.0
C1477 C 0.67156 0.87618 0.62498 0.0
H1478 H 0.67615 0.89572 0.65749 0.0
H1479 H 0.6881 0.87895 0.64096 0.0
S1480 S 0.63623 0.88281 0.61259 0.0
N1481 N 0.63758 0.89318 0.62826 0.0
N1482 N 0.65111 0.87448 0.61009 0.0
C1483 C 0.65792 0.87993 0.62231 0.0
C1484 C 0.65063 0.89008 0.63222 0.0
C1485 C 0.38014 0.35384 0.06695 0.0
C1486 C 0.37973 0.3439 0.07985 0.0
C1487 C 0.36845 0.3618 0.06196 0.0
C1488 C 0.35617 0.3602 0.06988 0.0
H1489 H 0.38952 0.35561 0.06079 0.0
H1490 H 0.36905 0.36945 0.05199 0.0
S1491 S 0.34984 0.33457 0.10365 0.0
N1492 N 0.36609 0.33212 0.09993 0.0
N1493 N 0.34417 0.34742 0.0908 0.0
C1494 C 0.35568 0.35023 0.08275 0.0
C1495 C 0.36749 0.34196 0.08767 0.0
C1496 C 0.41355 0.61889 0.87364 0.0
C1497 C 0.41953 0.63327 0.86907 0.0
C1498 C 0.40683 0.60946 0.86315 0.0
C1499 C 0.40616 0.61386 0.84772 0.0
H1500 H 0.41448 0.61456 0.88522 0.0
H1501 H 0.40272 0.59821 0.86695 0.0
S1502 S 0.41865 0.65139 0.83051 0.0
N1503 N 0.42324 0.65218 0.84848 0.0
N1504 N 0.41084 0.63429 0.82868 0.0
C1505 C 0.41167 0.62847 0.84312 0.0
C1506 C 0.41838 0.63815 0.85382 0.0
C1507 C 0.1085 0.68501 0.57906 0.0
C1508 C 0.11012 0.69241 0.59299 0.0
C1509 C 0.11975 0.68066 0.57049 0.0
C1510 C 0.13293 0.68333 0.57572 0.0
H1511 H 0.09848 0.68261 0.57473 0.0
H1512 H 0.11817 0.67482 0.55985 0.0
S1513 S 0.14255 0.70352 0.61093 0.0
N1514 N 0.12581 0.70324 0.61123 0.0
N1515 N 0.1471 0.69449 0.59529 0.0
C1516 C 0.13475 0.69092 0.58953 0.0
C1517 C 0.12326 0.69559 0.59816 0.0
C1518 C 0.07649 0.38091 0.3549 0.0
C1519 C 0.08003 0.3725 0.36819 0.0
C1520 C 0.08597 0.38954 0.34649 0.0
C1521 C 0.09946 0.39072 0.35124 0.0
H1522 H 0.06627 0.38038 0.35057 0.0
H1523 H 0.08257 0.39545 0.3362 0.0
S1524 S 0.11401 0.37287 0.38641 0.0
N1525 N 0.09801 0.36705 0.3866 0.0
N1526 N 0.11594 0.3836 0.3707 0.0
C1527 C 0.10321 0.38299 0.36491 0.0
C1528 C 0.09348 0.37389 0.37348 0.0
C1529 C 0.35795 0.65358 0.42729 0.0
C1530 C 0.35834 0.63764 0.43176 0.0
C1531 C 0.36986 0.66181 0.42367 0.0
C1532 C 0.38247 0.65421 0.42412 0.0
H1533 H 0.34836 0.6597 0.42653 0.0
H1534 H 0.36915 0.67404 0.42005 0.0
S1535 S 0.38907 0.61299 0.43657 0.0
N1536 N 0.37243 0.61482 0.43763 0.0
N1537 N 0.39484 0.63021 0.43026 0.0
C1538 C 0.38305 0.63833 0.42882 0.0
C1539 C 0.37094 0.63003 0.43277 0.0
C1540 C 0.10069 0.61661 0.13426 0.0
C1541 C 0.09789 0.61101 0.14911 0.0
C1542 C 0.0911 0.62556 0.12591 0.0
C1543 C 0.07839 0.62922 0.13227 0.0
H1544 H 0.11043 0.61417 0.12916 0.0
H1545 H 0.09369 0.62947 0.11448 0.0
S1546 S 0.06572 0.61638 0.17017 0.0
N1547 N 0.08124 0.60929 0.16939 0.0
N1548 N 0.06336 0.62567 0.15383 0.0
C1549 C 0.07543 0.62322 0.14686 0.0
C1550 C 0.08515 0.61435 0.15533 0.0
C1551 C 0.10733 0.32134 0.91878 0.0
C1552 C 0.10857 0.30831 0.9094 0.0
C1553 C 0.11834 0.32649 0.92729 0.0
C1554 C 0.13096 0.31907 0.92645 0.0
H1555 H 0.09775 0.32738 0.91984 0.0
H1556 H 0.11703 0.33643 0.93463 0.0
S1557 S 0.1392 0.28396 0.90391 0.0
N1558 N 0.1231 0.28759 0.9001 0.0
N1559 N 0.14409 0.29766 0.91583 0.0
C1560 C 0.13236 0.30587 0.91724 0.0
C1561 C 0.12105 0.30045 0.90872 0.0
C1562 C 0.42235 0.3846 0.65352 0.0
C1563 C 0.40828 0.38583 0.6548 0.0
C1564 C 0.42842 0.37497 0.64298 0.0
C1565 C 0.42067 0.36596 0.6331 0.0
H1566 H 0.42887 0.39148 0.66067 0.0
H1567 H 0.43934 0.37477 0.64255 0.0
S1568 S 0.38323 0.36322 0.63243 0.0
N1569 N 0.38642 0.37616 0.64578 0.0
N1570 N 0.39808 0.35798 0.62554 0.0
C1571 C 0.40646 0.3668 0.63414 0.0
C1572 C 0.40016 0.37672 0.6451 0.0
C1573 C 0.35305 0.09693 0.37152 0.0
C1574 C 0.35268 0.09612 0.35565 0.0
C1575 C 0.34277 0.10453 0.37948 0.0
C1576 C 0.33153 0.11115 0.37206 0.0
H1577 H 0.36122 0.09156 0.37794 0.0
H1578 H 0.34328 0.10474 0.39174 0.0
S1579 S 0.32667 0.1136 0.33026 0.0
N1580 N 0.34098 0.10374 0.33252 0.0
N1581 N 0.32117 0.11751 0.34752 0.0
C1582 C 0.33114 0.11078 0.35606 0.0
C1583 C 0.34187 0.10335 0.34789 0.0
C1584 C 0.05287 0.26527 0.3731 0.0
C1585 C 0.05245 0.25378 0.38495 0.0
C1586 C 0.05191 0.28126 0.37636 0.0
C1587 C 0.05071 0.28646 0.39122 0.0
H1588 H 0.05363 0.26239 0.36123 0.0
H1589 H 0.05191 0.28995 0.36714 0.0
S1590 S 0.04901 0.26032 0.42594 0.0
N1591 N 0.05066 0.24827 0.41175 0.0
N1592 N 0.04901 0.27834 0.4182 0.0
C1593 C 0.05035 0.27506 0.40324 0.0
C1594 C 0.05114 0.25872 0.39985 0.0
C1595 C 0.98501 0.83505 0.61577 0.0
C1596 C 0.97781 0.83205 0.60244 0.0
C1597 C 0.99907 0.83508 0.61595 0.0
C1598 C 0.00166 0.83465 0.60221 0.0
H1599 H 0.97972 0.83452 0.62657 0.0
H1600 H -0.00068 0.83422 0.62697 0.0
S1601 S 0.99289 0.82863 0.56377 0.0
N1602 N 0.97934 0.82789 0.57491 0.0
N1603 N 0.00109 0.83276 0.57497 0.0
C1604 C 0.99917 0.83367 0.58854 0.0
C1605 C 0.98494 0.83134 0.58855 0.0
C1606 C 0.43138 0.73992 0.93011 0.0
C1607 C 0.43277 0.7314 0.9169 0.0
C1608 C 0.43082 0.756 0.92999 0.0
C1609 C 0.43023 0.76476 0.9166 0.0
H1610 H 0.43232 0.73426 0.94112 0.0
H1611 H 0.43078 0.76166 0.94083 0.0
S1612 S 0.43273 0.74898 0.87763 0.0
N1613 N 0.43391 0.73317 0.88899 0.0
N1614 N 0.43061 0.76426 0.8888 0.0
C1615 C 0.43076 0.75682 0.90263 0.0
C1616 C 0.43245 0.73989 0.90276 0.0
C1617 C 0.49462 0.18415 0.11593 0.0
C1618 C 0.4873 0.19389 0.10603 0.0
C1619 C 0.50809 0.18704 0.11947 0.0
C1620 C 0.51511 0.19989 0.11321 0.0
H1621 H 0.48942 0.17483 0.12212 0.0
H1622 H 0.51251 0.17998 0.12847 0.0
S1623 S 0.50176 0.22735 0.08324 0.0
N1624 N 0.4887 0.21576 0.08744 0.0
N1625 N 0.51434 0.22149 0.09443 0.0
C1626 C 0.50832 0.20928 0.10207 0.0
C1627 C 0.49432 0.20626 0.09837 0.0
C1628 C 0.04206 0.73867 0.12089 0.0
C1629 C 0.05277 0.74766 0.11485 0.0
C1630 C 0.04072 0.72288 0.11718 0.0
C1631 C 0.05033 0.71522 0.10825 0.0
H1632 H 0.0347 0.74344 0.12863 0.0
H1633 H 0.0323 0.71632 0.12194 0.0
S1634 S 0.0791 0.73537 0.08804 0.0
N1635 N 0.07224 0.74906 0.09847 0.0
N1636 N 0.07018 0.71912 0.09155 0.0
C1637 C 0.06094 0.72443 0.10167 0.0
C1638 C 0.06209 0.74065 0.10527 0.0
C1639 C 0.50504 0.79854 0.37554 0.0
C1640 C 0.51612 0.80013 0.38511 0.0
C1641 C 0.49201 0.80063 0.37988 0.0
C1642 C 0.48848 0.80545 0.39414 0.0
H1643 H 0.50611 0.7952 0.36395 0.0
H1644 H 0.48451 0.79892 0.37121 0.0
S1645 S 0.51275 0.81029 0.42626 0.0
N1646 N 0.52255 0.80553 0.41172 0.0
N1647 N 0.49702 0.81114 0.41968 0.0
C1648 C 0.49913 0.80743 0.40493 0.0
C1649 C 0.51316 0.80443 0.40048 0.0
C1650 C 0.42171 0.26084 0.58759 0.0
C1651 C 0.43495 0.26704 0.58661 0.0
C1652 C 0.4197 0.24447 0.58783 0.0
C1653 C 0.43064 0.23398 0.5866 0.0
H1654 H 0.41282 0.26827 0.58663 0.0
H1655 H 0.40944 0.23995 0.58722 0.0
S1656 S 0.46705 0.24454 0.58535 0.0
N1657 N 0.45902 0.26147 0.58663 0.0
N1658 N 0.45512 0.2309 0.5858 0.0
C1659 C 0.44385 0.23997 0.58702 0.0
C1660 C 0.44594 0.2565 0.58747 0.0
C1661 C 0.99617 0.15491 0.90112 0.0
C1662 C 0.00029 0.16688 0.89573 0.0
C1663 C 0.98198 0.15708 0.90104 0.0
C1664 C 0.97645 0.17156 0.8955 0.0
H1665 H 1.00055 0.14436 0.90629 0.0
H1666 H 0.97573 0.14754 0.90554 0.0
S1667 S 0.99525 0.20675 0.88157 0.0
N1668 N 0.00235 0.19307 0.88431 0.0
N1669 N 0.9811 0.19867 0.88774 0.0
C1670 C 0.98542 0.18394 0.89195 0.0
C1671 C 0.99934 0.18104 0.89028 0.0
C1672 C 0.39694 0.08171 0.25145 0.0
C1673 C 0.39363 0.0692 0.26136 0.0
C1674 C 0.39589 0.08018 0.23581 0.0
C1675 C 0.39173 0.06613 0.22921 0.0
H1676 H 0.40196 0.09212 0.2555 0.0
H1677 H 0.39976 0.08968 0.22864 0.0
S1678 S 0.38025 0.03018 0.25037 0.0
N1679 N 0.38481 0.04252 0.26371 0.0
N1680 N 0.38258 0.03969 0.23397 0.0
C1681 C 0.38728 0.05373 0.23892 0.0
C1682 C 0.3883 0.05535 0.25507 0.0
C1683 C 0.16831 0.14762 0.48641 0.0
C1684 C 0.17742 0.13939 0.47746 0.0
C1685 C 0.1711 0.15076 0.50146 0.0
C1686 C 0.18315 0.14559 0.50823 0.0
H1687 H 0.15951 0.1531 0.48122 0.0
H1688 H 0.16446 0.15885 0.50708 0.0
S1689 S 0.20908 0.11998 0.49087 0.0
N1690 N 0.19807 0.12347 0.477 0.0
N1691 N 0.20342 0.12958 0.50571 0.0
C1692 C 0.19185 0.13588 0.49985 0.0
C1693 C 0.18903 0.13273 0.48429 0.0
C1694 C 0.13184 0.93097 0.73734 0.0
C1695 C 0.14404 0.92961 0.72994 0.0
C1696 C 0.13077 0.92949 0.75255 0.0
C1697 C 0.14196 0.92836 0.76202 0.0
H1698 H 0.1225 0.93302 0.73129 0.0
H1699 H 0.12069 0.93103 0.75687 0.0
S1700 S 0.17749 0.92191 0.74839 0.0
N1701 N 0.1684 0.92395 0.73263 0.0
N1702 N 0.1668 0.92412 0.76276 0.0
C1703 C 0.15499 0.92647 0.75508 0.0
C1704 C 0.15592 0.92651 0.73866 0.0
C1705 C 0.29432 0.87653 0.02172 0.0
C1706 C 0.30566 0.86997 0.01463 0.0
C1707 C 0.29222 0.87398 0.03723 0.0
C1708 C 0.30166 0.86575 0.0463 0.0
H1709 H 0.28712 0.8839 0.01561 0.0
H1710 H 0.28336 0.87908 0.0424 0.0
S1711 S 0.33176 0.84413 0.03169 0.0
N1712 N 0.3255 0.85356 0.01679 0.0
N1713 N 0.32183 0.84875 0.04608 0.0
C1714 C 0.31273 0.85844 0.03903 0.0
C1715 C 0.31474 0.86091 0.02319 0.0
C1716 C 0.39752 0.91669 0.24974 0.0
C1717 C 0.39332 0.92873 0.23974 0.0
C1718 C 0.39628 0.91813 0.26535 0.0
C1719 C 0.39086 0.93157 0.27184 0.0
H1720 H 0.40328 0.90682 0.24577 0.0
H1721 H 0.40084 0.90916 0.27259 0.0
S1722 S 0.37685 0.96613 0.25069 0.0
N1723 N 0.38245 0.95436 0.23734 0.0
N1724 N 0.38001 0.95706 0.26709 0.0
C1725 C 0.38579 0.94358 0.26212 0.0
C1726 C 0.38702 0.94206 0.24598 0.0
C1727 C 0.30824 0.12121 0.46029 0.0
C1728 C 0.30137 0.13418 0.45406 0.0
C1729 C 0.3097 0.11907 0.47594 0.0
C1730 C 0.30438 0.13021 0.48604 0.0
H1731 H 0.31243 0.11257 0.4527 0.0
H1732 H 0.31514 0.10865 0.4798 0.0
S1733 S 0.28651 0.1672 0.47591 0.0
N1734 N 0.28992 0.15919 0.45936 0.0
N1735 N 0.2922 0.15463 0.48881 0.0
C1736 C 0.29729 0.14315 0.47996 0.0
C1737 C 0.296 0.14551 0.46395 0.0
C1738 C 0.14697 0.08406 0.76389 0.0
C1739 C 0.14344 0.07053 0.77268 0.0
C1740 C 0.14598 0.08392 0.74786 0.0
C1741 C 0.14182 0.06996 0.7406 0.0
H1742 H 0.14921 0.09507 0.76947 0.0
H1743 H 0.14743 0.09494 0.7416 0.0
S1744 S 0.13553 0.03079 0.75857 0.0
N1745 N 0.13845 0.04264 0.77266 0.0
N1746 N 0.13789 0.04183 0.74328 0.0
C1747 C 0.14115 0.05598 0.74934 0.0
C1748 C 0.14154 0.05635 0.76528 0.0
C1749 C 0.17113 0.85969 0.99921 0.0
C1750 C 0.18428 0.85439 0.99538 0.0
C1751 C 0.1679 0.86355 0.01126 0.0
C1752 C 0.17767 0.86154 0.02279 0.0
H1753 H 0.16283 0.85968 0.99116 0.0
H1754 H 0.15751 0.86625 0.01434 0.0
S1755 S 0.21353 0.85019 0.01816 0.0
N1756 N 0.20714 0.85019 0.00096 0.0
N1757 N 0.20106 0.85599 0.02909 0.0
C1758 C 0.19097 0.85812 0.01876 0.0
C1759 C 0.1942 0.8549 0.00353 0.0
C1760 C 0.24984 0.36996 0.05237 0.0
C1761 C 0.25918 0.37295 0.06404 0.0
C1762 C 0.23713 0.36333 0.05524 0.0
C1763 C 0.23308 0.3595 0.07004 0.0
H1764 H 0.25187 0.37416 0.04094 0.0
H1765 H 0.23003 0.36241 0.04594 0.0
S1766 S 0.25479 0.35957 0.10427 0.0
N1767 N 0.26437 0.36776 0.09083 0.0
N1768 N 0.24032 0.35507 0.09608 0.0
C1769 C 0.24287 0.36001 0.0816 0.0
C1770 C 0.25598 0.36687 0.07869 0.0
C1771 C 0.75914 0.14119 0.93635 0.0
C1772 C 0.76099 0.12444 0.93577 0.0
C1773 C 0.74603 0.14806 0.93356 0.0
C1774 C 0.73467 0.13819 0.93069 0.0
H1775 H 0.76745 0.14899 0.93932 0.0
H1776 H 0.74482 0.16083 0.93399 0.0
S1777 S 0.7345 0.09502 0.92726 0.0
N1778 N 0.75031 0.09943 0.93111 0.0
N1779 N 0.72654 0.11197 0.92669 0.0
C1780 C 0.7368 0.12211 0.9298 0.0
C1781 C 0.74969 0.11537 0.93214 0.0
C1782 C 0.14177 0.49991 0.17311 0.0
C1783 C 0.13396 0.51087 0.18077 0.0
C1784 C 0.13997 0.48387 0.17522 0.0
C1785 C 0.1301 0.47764 0.18484 0.0
H1786 H 0.15048 0.50362 0.16662 0.0
H1787 H 0.14711 0.47606 0.16992 0.0
S1788 S 0.10598 0.50111 0.20773 0.0
N1789 N 0.1154 0.51448 0.19872 0.0
N1790 N 0.1115 0.48366 0.20225 0.0
C1791 C 0.1215 0.48823 0.1925 0.0
C1792 C 0.12354 0.50501 0.19047 0.0
C1793 C 0.72365 0.87714 0.43222 0.0
C1794 C 0.72151 0.863 0.44046 0.0
C1795 C 0.736 0.88499 0.4332 0.0
C1796 C 0.74693 0.87751 0.44066 0.0
H1797 H 0.71496 0.88369 0.42786 0.0
H1798 H 0.73644 0.8971 0.42893 0.0
S1799 S 0.74687 0.84004 0.46289 0.0
N1800 N 0.73118 0.84211 0.45658 0.0
N1801 N 0.75522 0.85516 0.45556 0.0
C1802 C 0.74521 0.86265 0.44759 0.0
C1803 C 0.73241 0.85542 0.44776 0.0
C1804 C 0.87533 0.99746 0.17637 0.0
C1805 C 0.88695 0.00298 0.17137 0.0
C1806 C 0.87481 0.98153 0.18006 0.0
C1807 C 0.88652 0.97229 0.17892 0.0
H1808 H 0.86582 0.00251 0.17724 0.0
H1809 H 0.86514 0.97697 0.18381 0.0
S1810 S 0.92017 0.98391 0.16474 0.0
N1811 N 0.91123 1.00052 0.16408 0.0
N1812 N 0.90981 0.97023 0.17134 0.0
C1813 C 0.89842 0.97898 0.17331 0.0
C1814 C 0.89904 0.99532 0.16937 0.0
C1815 C 0.2271 0.62913 0.54606 0.0
C1816 C 0.22005 0.63662 0.55775 0.0
C1817 C 0.23614 0.61754 0.54947 0.0
C1818 C 0.24425 0.61963 0.56201 0.0
H1819 H 0.22352 0.62878 0.53448 0.0
H1820 H 0.2394 0.61071 0.53988 0.0
S1821 S 0.23821 0.64641 0.59372 0.0
N1822 N 0.22453 0.64853 0.58282 0.0
N1823 N 0.24765 0.63294 0.58568 0.0
C1824 C 0.23973 0.62947 0.57358 0.0
C1825 C 0.22719 0.63792 0.57184 0.0
C1826 C 0.14114 0.50216 0.32711 0.0
C1827 C 0.13429 0.49125 0.31831 0.0
C1828 C 0.13925 0.51824 0.32509 0.0
C1829 C 0.13044 0.52452 0.31423 0.0
H1830 H 0.14927 0.49847 0.33451 0.0
H1831 H 0.14571 0.52608 0.33135 0.0
S1832 S 0.10884 0.50105 0.28841 0.0
N1833 N 0.11757 0.48768 0.29827 0.0
N1834 N 0.11355 0.51847 0.29478 0.0
C1835 C 0.12267 0.51391 0.30557 0.0
C1836 C 0.12474 0.49714 0.30759 0.0
C1837 C 0.3927 0.51805 0.81519 0.0
C1838 C 0.38304 0.52813 0.82143 0.0
C1839 C 0.3936 0.50227 0.81963 0.0
C1840 C 0.38423 0.49588 0.82998 0.0
H1841 H 0.40016 0.52266 0.80728 0.0
H1842 H 0.40176 0.49542 0.81495 0.0
S1843 S 0.35637 0.51593 0.84947 0.0
N1844 N 0.36341 0.5299 0.83862 0.0
N1845 N 0.36524 0.49988 0.84659 0.0
C1846 C 0.3745 0.50553 0.8364 0.0
C1847 C 0.37362 0.52172 0.83207 0.0
C1848 C 0.94379 0.76993 0.58494 0.0
C1849 C 0.93579 0.77594 0.59666 0.0
C1850 C 0.94519 0.75364 0.58342 0.0
C1851 C 0.93925 0.74322 0.59415 0.0
H1852 H 0.9495 0.77773 0.57742 0.0
H1853 H 0.95296 0.74936 0.57579 0.0
S1854 S 0.91693 0.75343 0.6261 0.0
N1855 N 0.92129 0.77051 0.61825 0.0
N1856 N 0.92388 0.73992 0.61545 0.0
C1857 C 0.93006 0.74914 0.60469 0.0
C1858 C 0.92886 0.76558 0.60639 0.0
C1859 C 0.99419 0.18929 0.40495 0.0
C1860 C 0.98392 0.18676 0.39421 0.0
C1861 C 0.00288 0.19213 0.40043 0.0
C1862 C 0.00648 0.19446 0.38526 0.0
H1863 H 0.99249 0.18894 0.41699 0.0
H1864 H 0.01027 0.19459 0.40915 0.0
S1865 S 0.98828 0.18803 0.35221 0.0
N1866 N 0.97864 0.18521 0.36729 0.0
N1867 N -0.00119 0.19297 0.35881 0.0
C1868 C 1.00105 0.19223 0.37405 0.0
C1869 C 0.98756 0.18807 0.37866 0.0
C1870 C 0.54968 0.28308 0.12267 0.0
C1871 C 0.55624 0.29153 0.11068 0.0
C1872 C 0.55134 0.26645 0.1249 0.0
C1873 C 0.56 0.25776 0.11545 0.0
H1874 H 0.54348 0.28942 0.13058 0.0
H1875 H 0.54608 0.26062 0.13423 0.0
S1876 S 0.57891 0.27438 0.08203 0.0
N1877 N 0.57128 0.28977 0.08924 0.0
N1878 N 0.57434 0.25929 0.09287 0.0
C1879 C 0.56617 0.26627 0.10319 0.0
C1880 C 0.56438 0.28289 0.10099 0.0
C1881 C 0.47884 0.83238 0.91972 0.0
C1882 C 0.47157 0.82073 0.91203 0.0
C1883 C 0.4929 0.83345 0.91799 0.0
C1884 C 0.49935 0.82391 0.90727 0.0
H1885 H 0.47402 0.83862 0.92891 0.0
H1886 H 0.49852 0.841 0.92558 0.0
S1887 S 0.48475 0.79183 0.88482 0.0
N1888 N 0.47182 0.79963 0.89382 0.0
N1889 N 0.49774 0.80295 0.88915 0.0
C1890 C 0.49184 0.81354 0.8985 0.0
C1891 C 0.47786 0.81209 0.90065 0.0
C1892 C 0.93575 0.23305 0.88864 0.0
C1893 C 0.9344 0.22376 0.9017 0.0
C1894 C 0.93591 0.24918 0.88941 0.0
C1895 C 0.93743 0.25672 0.90324 0.0
H1896 H 0.93634 0.22811 0.87753 0.0
H1897 H 0.93774 0.25546 0.87879 0.0
S1898 S 0.93301 0.23762 0.94139 0.0
N1899 N 0.93199 0.22309 0.92927 0.0
N1900 N 0.93617 0.25377 0.93104 0.0
C1901 C 0.93628 0.24769 0.91687 0.0
C1902 C 0.9342 0.2311 0.91595 0.0
C1903 C 0.48222 0.18955 0.59392 0.0
C1904 C 0.47256 0.17809 0.59086 0.0
C1905 C 0.49452 0.18741 0.58718 0.0
C1906 C 0.50069 0.17321 0.59116 0.0
H1907 H 0.47952 0.20175 0.59564 0.0
H1908 H 0.50029 0.19817 0.58556 0.0
S1909 S 0.48163 0.13539 0.59376 0.0
N1910 N 0.46971 0.14909 0.59158 0.0
N1911 N 0.49637 0.14474 0.59392 0.0
C1912 C 0.49201 0.15984 0.59205 0.0
C1913 C 0.47755 0.16226 0.59081 0.0
C1914 C 0.55066 0.73544 0.38994 0.0
C1915 C 0.56075 0.74196 0.38023 0.0
C1916 C 0.54926 0.71878 0.39225 0.0
C1917 C 0.5582 0.70806 0.38515 0.0
H1918 H 0.54408 0.74324 0.39613 0.0
H1919 H 0.54116 0.7144 0.39949 0.0
S1920 S 0.5858 0.71944 0.35828 0.0
N1921 N 0.57935 0.7364 0.36347 0.0
N1922 N 0.5769 0.70587 0.3674 0.0
C1923 C 0.56799 0.71476 0.37525 0.0
C1924 C 0.56928 0.73143 0.37294 0.0
C1925 C 1.00221 0.79802 0.10187 0.0
C1926 C 0.00515 0.80565 0.11288 0.0
C1927 C 0.9894 0.80277 0.09766 0.0
C1928 C 0.98339 0.81604 0.10403 0.0
H1929 H 0.00186 0.78802 0.09615 0.0
H1930 H 0.98446 0.79556 0.08938 0.0
S1931 S 0.99753 0.84032 0.13471 0.0
N1932 N 0.00493 0.82705 0.13152 0.0
N1933 N 0.98527 0.83661 0.12262 0.0
C1934 C 0.99051 0.82398 0.11542 0.0
C1935 C -0.00082 0.81882 0.1201 0.0
C1936 C 0.62364 0.93881 0.75506 0.0
C1937 C 0.62995 0.92752 0.74609 0.0
C1938 C 0.6271 0.94014 0.7703 0.0
C1939 C 0.63502 0.92852 0.77767 0.0
H1940 H 0.61861 0.94878 0.74956 0.0
H1941 H 0.62355 0.95044 0.77611 0.0
S1942 S 0.64742 0.89168 0.76067 0.0
N1943 N 0.64089 0.90181 0.74619 0.0
N1944 N 0.64529 0.90268 0.77572 0.0
C1945 C 0.63898 0.91537 0.76932 0.0
C1946 C 0.63641 0.91479 0.75344 0.0
C1947 C 0.81388 0.8933 0.4991 0.0
C1948 C 0.80396 0.89511 0.51027 0.0
C1949 C 0.81106 0.89469 0.48378 0.0
C1950 C 0.79805 0.89766 0.4785 0.0
H1951 H 0.82422 0.89068 0.50214 0.0
H1952 H 0.81929 0.8932 0.47586 0.0
S1953 S 0.76735 0.90211 0.5025 0.0
N1954 N 0.77975 0.89908 0.51488 0.0
N1955 N 0.7744 0.90204 0.48545 0.0
C1956 C 0.78753 0.89932 0.48928 0.0
C1957 C 0.79049 0.89795 0.50532 0.0
C1958 C 0.90024 0.06009 0.22779 0.0
C1959 C 0.88849 0.06066 0.21892 0.0
C1960 C 0.89953 0.0625 0.24316 0.0
C1961 C 0.88707 0.06408 0.25049 0.0
H1962 H 0.90972 0.05538 0.2237 0.0
H1963 H 0.9086 0.06009 0.24977 0.0
S1964 S 0.85338 0.06796 0.23122 0.0
N1965 N 0.86446 0.06606 0.21747 0.0
N1966 N 0.86231 0.06716 0.24718 0.0
C1967 C 0.8751 0.06558 0.24163 0.0
C1968 C 0.87619 0.06499 0.22557 0.0
C1969 C 0.69245 0.16762 0.98693 0.0
C1970 C 0.68465 0.15891 0.97671 0.0
C1971 C 0.69073 0.16518 -0.00055 0.0
C1972 C 0.68046 0.15515 0.005 0.0
H1973 H 0.70159 0.1735 0.98291 0.0
H1974 H 0.69798 0.17053 0.007 0.0
S1975 S 0.65454 0.13461 0.98583 0.0
N1976 N 0.66435 0.14329 0.97301 0.0
N1977 N 0.66069 0.13945 -0.00065 0.0
C1978 C 0.67152 0.14843 0.99794 0.0
C1979 C 0.67323 0.15083 0.98215 0.0
C1980 C 0.64452 0.06691 0.73253 0.0
C1981 C 0.6332 0.0694 0.72331 0.0
C1982 C 0.6437 0.06906 0.74788 0.0
C1983 C 0.63125 0.07098 0.75511 0.0
H1984 H 0.65428 0.06343 0.7282 0.0
H1985 H 0.65272 0.06654 0.75448 0.0
S1986 S 0.59825 0.07857 0.73559 0.0
N1987 N 0.60914 0.07529 0.72185 0.0
N1988 N 0.6069 0.07632 0.75164 0.0
C1989 C 0.61943 0.07295 0.74614 0.0
C1990 C 0.62059 0.07245 0.73004 0.0
C1991 C 0.67522 0.84837 0.50363 0.0
C1992 C 0.6838 0.84075 0.49361 0.0
C1993 C 0.67634 0.84595 0.51915 0.0
C1994 C 0.68731 0.83749 0.52516 0.0
H1995 H 0.66752 0.8564 0.49944 0.0
H1996 H 0.67034 0.85348 0.52628 0.0
S1997 S 0.71171 0.81319 0.50404 0.0
N1998 N 0.7023 0.82186 0.49072 0.0
N1999 N 0.70553 0.81901 0.52041 0.0
C2000 C 0.69507 0.82819 0.51543 0.0
C2001 C 0.6935 0.83002 0.49943 0.0
C2002 C 0.87629 0.93219 0.25636 0.0
C2003 C 0.88683 0.93753 0.2467 0.0
C2004 C 0.87806 0.93275 0.27208 0.0
C2005 C 0.88922 0.94077 0.27814 0.0
H2006 H 0.86648 0.92835 0.25225 0.0
H2007 H 0.86954 0.92974 0.27941 0.0
S2008 S 0.91883 0.95698 0.25685 0.0
N2009 N 0.90911 0.94897 0.24407 0.0
N2010 N 0.91102 0.95351 0.27316 0.0
C2011 C 0.90007 0.94508 0.26858 0.0
C2012 C 0.89891 0.94301 0.25288 0.0
C2013 C 0.79815 0.09403 0.01187 0.0
C2014 C 0.79882 0.10773 0.02063 0.0
C2015 C 0.80042 0.09462 0.99912 0.0
C2016 C 0.80364 0.10897 0.99168 0.0
H2017 H 0.79621 0.08266 0.01726 0.0
H2018 H 0.80032 0.08381 0.99282 0.0
S2019 S 0.80493 0.14839 0.00636 0.0
N2020 N 0.80145 0.13608 0.02054 0.0
N2021 N 0.80636 0.13729 0.99426 0.0
C2022 C 0.80376 0.12275 1.00033 0.0
C2023 C 0.80102 0.12219 0.01315 0.0
C2024 C 0.73986 0.65168 0.91552 0.0
C2025 C 0.74779 0.63797 0.91524 0.0
C2026 C 0.72593 0.65039 0.91609 0.0
C2027 C 0.71982 0.63577 0.91947 0.0
H2028 H 0.74404 0.66338 0.91702 0.0
H2029 H 0.72034 0.66124 0.91786 0.0
S2030 S 0.73706 0.59653 0.91989 0.0
N2031 N 0.74886 0.60948 0.91548 0.0
N2032 N 0.72304 0.60701 0.92203 0.0
C2033 C 0.72764 0.62184 0.91875 0.0
C2034 C 0.74157 0.62313 0.91538 0.0
C2035 C 0.23793 0.86883 0.09278 0.0
C2036 C 0.24591 0.85939 0.08332 0.0
C2037 C 0.22422 0.87113 0.08949 0.0
C2038 C 0.2182 0.86218 0.07803 0.0
H2039 H 0.2428 0.87664 0.10074 0.0
H2040 H 0.21885 0.88043 0.09531 0.0
S2041 S 0.23465 0.83629 0.05043 0.0
N2042 N 0.24679 0.84155 0.06211 0.0
N2043 N 0.22087 0.84391 0.0576 0.0
C2044 C 0.22583 0.85131 0.06996 0.0
C2045 C 0.23971 0.84972 0.07266 0.0
C2046 C 0.89978 0.51895 0.80792 0.0
C2047 C 0.89278 0.52636 0.81951 0.0
C2048 C 0.90008 0.50286 0.80729 0.0
C2049 C 0.89283 0.49321 0.81741 0.0
H2050 H 0.90525 0.52527 0.79907 0.0
H2051 H 0.90627 0.49786 0.79852 0.0
S2052 S 0.87302 0.50757 0.85065 0.0
N2053 N 0.87909 0.52359 0.84224 0.0
N2054 N 0.87827 0.49259 0.84034 0.0
C2055 C 0.88546 0.50037 0.82933 0.0
C2056 C 0.88572 0.51718 0.83034 0.0
C2057 C 0.23846 0.12429 0.5509 0.0
C2058 C 0.23405 0.14014 0.55163 0.0
C2059 C 0.25187 0.12042 0.54708 0.0
C2060 C 0.26142 0.1325 0.54446 0.0
H2061 H 0.23137 0.11477 0.55319 0.0
H2062 H 0.25447 0.10804 0.54575 0.0
S2063 S 0.2553 0.17533 0.54245 0.0
N2064 N 0.24046 0.16766 0.54727 0.0
N2065 N 0.26576 0.16036 0.54191 0.0
C2066 C 0.25733 0.14818 0.54564 0.0
C2067 C 0.24358 0.1521 0.54845 0.0
C2068 C 0.14554 0.00205 0.8299 0.0
C2069 C 0.14755 0.01033 0.81607 0.0
C2070 C 0.14415 0.98746 0.82995 0.0
C2071 C 0.14388 0.97889 0.81647 0.0
H2072 H 0.14473 0.00799 0.84065 0.0
H2073 H 0.14262 0.98128 0.84069 0.0
S2074 S 0.14998 0.99585 0.77767 0.0
N2075 N 0.15318 0.00835 0.7893 0.0
N2076 N 0.14565 0.98067 0.78874 0.0
C2077 C 0.14675 0.98703 0.80273 0.0
C2078 C 0.15011 0.00148 0.80298 0.0
C2079 C 0.75366 0.37867 0.45516 0.0
C2080 C 0.76388 0.36711 0.45533 0.0
C2081 C 0.74026 0.37456 0.45154 0.0
C2082 C 0.73656 0.35879 0.44854 0.0
H2083 H 0.75582 0.39072 0.45841 0.0
H2084 H 0.73266 0.3838 0.45117 0.0
S2085 S 0.76025 0.32482 0.44741 0.0
N2086 N 0.76989 0.34002 0.45115 0.0
N2087 N 0.74473 0.33195 0.44571 0.0
C2088 C 0.74691 0.34745 0.44833 0.0
C2089 C 0.76057 0.35183 0.45108 0.0
C2090 C 0.88574 0.48471 0.67137 0.0
C2091 C 0.89343 0.47537 0.68171 0.0
C2092 C 0.88523 0.50109 0.67212 0.0
C2093 C 0.89294 0.5087 0.68315 0.0
H2094 H 0.87994 0.47922 0.66249 0.0
H2095 H 0.87874 0.50737 0.66406 0.0
S2096 S 0.91272 0.49079 0.71458 0.0
N2097 N 0.90705 0.47555 0.705 0.0
N2098 N 0.90741 0.50653 0.70514 0.0
C2099 C 0.90043 0.49975 0.69369 0.0
C2100 C 0.90043 0.48303 0.6934 0.0
C2101 C 0.65863 0.51427 0.18286 0.0
C2102 C 0.64592 0.52195 0.18362 0.0
C2103 C 0.6596 0.49785 0.18165 0.0
C2104 C 0.64776 0.48868 0.18094 0.0
H2105 H 0.66792 0.52106 0.18324 0.0
H2106 H 0.66956 0.49235 0.18227 0.0
S2107 S 0.61242 0.50214 0.18482 0.0
N2108 N 0.62155 0.51843 0.18553 0.0
N2109 N 0.6233 0.488 0.18149 0.0
C2110 C 0.63514 0.49621 0.18094 0.0
C2111 C 0.6342 0.51266 0.18324 0.0
C2112 C 0.5498 0.76373 0.8747 0.0
C2113 C 0.55455 0.75299 0.88582 0.0
C2114 C 0.54863 0.77963 0.87803 0.0
C2115 C 0.55246 0.78556 0.89209 0.0
H2116 H 0.54677 0.76032 0.86345 0.0
H2117 H 0.54482 0.78768 0.86934 0.0
S2118 S 0.56496 0.76073 0.92499 0.0
N2119 N 0.56274 0.74834 0.91116 0.0
N2120 N 0.56088 0.77838 0.91782 0.0
C2121 C 0.55738 0.77471 0.90339 0.0
C2122 C 0.55832 0.7584 0.89998 0.0
C2123 C 0.49471 0.34349 0.10889 0.0
C2124 C 0.50228 0.33088 0.10281 0.0
C2125 C 0.48042 0.3428 0.10894 0.0
C2126 C 0.47358 0.32957 0.10342 0.0
H2127 H 0.49951 0.3538 0.11358 0.0
H2128 H 0.47459 0.35204 0.11422 0.0
S2129 S 0.48869 0.29388 0.08695 0.0
N2130 N 0.50154 0.30417 0.09321 0.0
N2131 N 0.47524 0.30462 0.0907 0.0
C2132 C 0.48106 0.31748 0.097 0.0
C2133 C 0.49524 0.31738 0.0982 0.0
C2134 C 0.9407 0.24125 0.40276 0.0
C2135 C 0.93475 0.23166 0.41428 0.0
C2136 C 0.93916 0.2578 0.40278 0.0
C2137 C 0.93175 0.26479 0.41451 0.0
H2138 H 0.94724 0.23606 0.39433 0.0
H2139 H 0.94398 0.26495 0.39394 0.0
S2140 S 0.91365 0.2451 0.44613 0.0
N2141 N 0.92069 0.2306 0.43676 0.0
N2142 N 0.91788 0.26137 0.43681 0.0
C2143 C 0.9253 0.25531 0.42532 0.0
C2144 C 0.92669 0.23878 0.42518 0.0
C2145 C 0.00458 0.71272 0.61167 0.0
C2146 C 0.01391 0.7005 0.61464 0.0
C2147 C 0.99574 0.70973 0.60762 0.0
C2148 C 0.99104 0.69428 0.60627 0.0
H2149 H 0.00731 0.72476 0.61403 0.0
H2150 H 0.98879 0.71957 0.60671 0.0
S2151 S 0.0074 0.65807 0.60743 0.0
N2152 N 0.01804 0.67221 0.61226 0.0
N2153 N 0.99729 0.66676 0.60416 0.0
C2154 C 1.00062 0.68201 0.60672 0.0
C2155 C 0.00983 0.68502 0.61107 0.0
C2156 C 0.5448 0.23878 0.60829 0.0
C2157 C 0.55577 0.24459 0.61659 0.0
C2158 C 0.54412 0.22291 0.60441 0.0
C2159 C 0.55405 0.21221 0.60959 0.0
H2160 H 0.53704 0.24679 0.60412 0.0
H2161 H 0.53596 0.21925 0.5971 0.0
S2162 S 0.58424 0.22088 0.6327 0.0
N2163 N 0.57633 0.23798 0.63082 0.0
N2164 N 0.57502 0.2082 0.6233 0.0
C2165 C 0.56488 0.21775 0.61814 0.0
C2166 C 0.56558 0.23384 0.62212 0.0
C2167 C 0.00161 0.29624 0.87674 0.0
C2168 C 0.01268 0.2994 0.88595 0.0
C2169 C 0.99312 0.29847 0.8808 0.0
C2170 C 0.98945 0.30508 0.8943 0.0
H2171 H 0.00269 0.29176 0.86554 0.0
H2172 H 0.98574 0.29566 0.87231 0.0
S2173 S 0.00896 0.314 0.92572 0.0
N2174 N 0.0189 0.30791 0.9118 0.0
N2175 N 0.99782 0.31374 0.91908 0.0
C2176 C 1.00005 0.30845 0.90482 0.0
C2177 C 0.00958 0.30532 0.90075 0.0
C2178 C 0.9439 0.74261 0.08632 0.0
C2179 C 0.93113 0.73636 0.08302 0.0
C2180 C 0.9457 0.75888 0.08688 0.0
C2181 C 0.93508 0.76942 0.08348 0.0
H2182 H 0.95272 0.7351 0.08754 0.0
H2183 H 0.95592 0.76333 0.08797 0.0
S2184 S 0.89944 0.75832 0.07529 0.0
N2185 N 0.9074 0.74144 0.07798 0.0
N2186 N 0.91095 0.77219 0.0779 0.0
C2187 C 0.92198 0.76325 0.08142 0.0
C2188 C 0.92006 0.74661 0.08138 0.0
C2189 C 0.48446 0.68291 0.39712 0.0
C2190 C 0.47562 0.67007 0.39843 0.0
C2191 C 0.49769 0.68075 0.39312 0.0
C2192 C 0.5039 0.66624 0.39569 0.0
H2193 H 0.48069 0.69485 0.39589 0.0
H2194 H 0.50355 0.69127 0.39055 0.0
S2195 S 0.48699 0.62886 0.40683 0.0
N2196 N 0.47439 0.64169 0.40479 0.0
N2197 N 0.50105 0.63861 0.40265 0.0
C2198 C 0.49582 0.65307 0.39932 0.0
C2199 C 0.48141 0.65484 0.40052 0.0
C2200 C 0.88671 0.56019 0.73811 0.0
C2201 C 0.89388 0.57041 0.72812 0.0
C2202 C 0.88803 0.56182 0.75401 0.0
C2203 C 0.89649 0.57358 0.76014 0.0
H2204 H 0.88044 0.55075 0.73381 0.0
H2205 H 0.8832 0.5532 0.76149 0.0
S2206 S 0.9176 0.60204 0.73824 0.0
N2207 N 0.90955 0.59202 0.72528 0.0
N2208 N 0.9121 0.59495 0.7547 0.0
C2209 C 0.9031 0.58395 0.75006 0.0
C2210 C 0.90179 0.58232 0.73417 0.0
C2211 C 0.69299 0.6517 0.99558 0.0
C2212 C 0.68517 0.64661 0.00497 0.0
C2213 C 0.69035 0.64774 0.98108 0.0
C2214 C 0.67932 0.63866 0.97745 0.0
H2215 H 0.70097 0.66021 0.99634 0.0
H2216 H 0.69635 0.65375 0.97256 0.0
S2217 S 0.6578 0.61602 0.00193 0.0
N2218 N 0.66746 0.62724 0.01276 0.0
N2219 N 0.66218 0.62022 0.98723 0.0
C2220 C 0.67204 0.63114 0.98947 0.0
C2221 C 0.67487 0.6351 0.00199 0.0
C2222 C 0.65219 0.41729 0.23638 0.0
C2223 C 0.64525 0.42879 0.2273 0.0
C2224 C 0.65113 0.41747 0.25256 0.0
C2225 C 0.64318 0.42942 0.25958 0.0
H2226 H 0.65783 0.40787 0.23099 0.0
H2227 H 0.65608 0.40806 0.25908 0.0
S2228 S 0.62666 0.46391 0.24041 0.0
N2229 N 0.63278 0.45315 0.22694 0.0
N2230 N 0.63213 0.45486 0.25576 0.0
C2231 C 0.63881 0.44211 0.2503 0.0
C2232 C 0.63939 0.44145 0.23451 0.0
C2233 C 0.80425 0.37989 0.53919 0.0
C2234 C 0.80385 0.36495 0.54617 0.0
C2235 C 0.80606 0.38194 0.5236 0.0
C2236 C 0.80719 0.36872 0.51427 0.0
H2237 H 0.80335 0.3902 0.54619 0.0
H2238 H 0.80645 0.39398 0.5193 0.0
S2239 S 0.80818 0.32681 0.52599 0.0
N2240 N 0.80581 0.33627 0.54207 0.0
N2241 N 0.80891 0.34055 0.51261 0.0
C2242 C 0.8071 0.35369 0.52096 0.0
C2243 C 0.80553 0.35151 0.53695 0.0
C2244 C 0.89819 0.41693 0.74867 0.0
C2245 C 0.89619 0.42997 0.7389 0.0
C2246 C 0.89702 0.41833 0.76433 0.0
C2247 C 0.89405 0.43276 0.77098 0.0
H2248 H 0.90225 0.40602 0.74457 0.0
H2249 H 0.89996 0.40837 0.77147 0.0
S2250 S 0.88643 0.47026 0.75017 0.0
N2251 N 0.88989 0.45757 0.73676 0.0
N2252 N 0.88767 0.46029 0.76647 0.0
C2253 C 0.891 0.44577 0.76139 0.0
C2254 C 0.89204 0.44426 0.74528 0.0
C2255 C 0.81162 0.62336 0.96009 0.0
C2256 C 0.80356 0.63541 0.95399 0.0
C2257 C 0.8131 0.62112 0.97573 0.0
C2258 C 0.8067 0.63136 0.98592 0.0
H2259 H 0.81671 0.61544 0.95245 0.0
H2260 H 0.81947 0.61143 0.97952 0.0
S2261 S 0.78533 0.66582 0.97614 0.0
N2262 N 0.78971 0.65863 0.95952 0.0
N2263 N 0.79202 0.65382 0.98895 0.0
C2264 C 0.79836 0.64331 0.97999 0.0
C2265 C 0.797 0.64576 0.96399 0.0
C2266 C 0.65535 0.57726 0.26154 0.0
C2267 C 0.64488 0.57025 0.2706 0.0
C2268 C 0.65433 0.57731 0.24534 0.0
C2269 C 0.64241 0.57115 0.23831 0.0
H2270 H 0.66432 0.5823 0.26685 0.0
H2271 H 0.66287 0.58186 0.2387 0.0
S2272 S 0.61324 0.55148 0.2576 0.0
N2273 N 0.62353 0.55651 0.27115 0.0
N2274 N 0.62073 0.55821 0.24221 0.0
C2275 C 0.63236 0.56459 0.2477 0.0
C2276 C 0.63383 0.56365 0.26343 0.0
C2277 C 0.67432 0.34639 0.51593 0.0
C2278 C 0.67955 0.35961 0.52285 0.0
C2279 C 0.67674 0.34337 0.5009 0.0
C2280 C 0.68484 0.35323 0.49193 0.0
H2281 H 0.66886 0.33763 0.52258 0.0
H2282 H 0.67339 0.33212 0.49686 0.0
S2283 S 0.69961 0.39147 0.50367 0.0
N2284 N 0.69202 0.38448 0.5192 0.0
N2285 N 0.69729 0.37815 0.49045 0.0
C2286 C 0.68979 0.36731 0.49832 0.0
C2287 C 0.68702 0.37068 0.51397 0.0
C2288 C 0.74504 0.86448 0.58228 0.0
C2289 C 0.73671 0.8594 0.57048 0.0
C2290 C 0.75773 0.87142 0.57944 0.0
C2291 C 0.76276 0.87327 0.5646 0.0
H2292 H 0.74106 0.86458 0.5937 0.0
H2293 H 0.76286 0.87675 0.58883 0.0
S2294 S 0.74685 0.85687 0.53012 0.0
N2295 N 0.73574 0.85301 0.54374 0.0
N2296 N 0.75956 0.86621 0.53822 0.0
C2297 C 0.75525 0.86628 0.55285 0.0
C2298 C 0.74225 0.85924 0.55579 0.0
C2299 C 0.24542 0.64955 0.43131 0.0
C2300 C 0.23363 0.64005 0.42939 0.0
C2301 C 0.25838 0.64224 0.43408 0.0
C2302 C 0.25966 0.62536 0.43445 0.0
H2303 H 0.24463 0.6624 0.43117 0.0
H2304 H 0.26699 0.64985 0.43643 0.0
S2305 S 0.2315 0.59671 0.43081 0.0
N2306 N 0.22431 0.614 0.42871 0.0
N2307 N 0.24765 0.60061 0.433 0.0
C2308 C 0.24781 0.61663 0.43232 0.0
C2309 C 0.23511 0.62384 0.43 0.0
C2310 C 0.62859 -3e-05 0.67397 0.0
C2311 C 0.63854 0.00753 0.68322 0.0
C2312 C 0.62647 0.98516 0.6757 0.0
C2313 C 0.63378 0.97591 0.68657 0.0
H2314 H 0.62307 0.0063 0.66505 0.0
H2315 H 0.61938 0.97938 0.66813 0.0
S2316 S 0.65918 0.98985 0.71403 0.0
N2317 N 0.65402 0.00378 0.70449 0.0
N2318 N 0.64975 0.97585 0.7072 0.0
C2319 C 0.64227 0.98366 0.69649 0.0
C2320 C 0.6448 0.99996 0.69485 0.0
C2321 C 0.2401 0.36358 0.93244 0.0
C2322 C 0.24444 0.37671 0.9405 0.0
C2323 C 0.2271 0.35761 0.93448 0.0
C2324 C 0.21768 0.36618 0.94298 0.0
H2325 H 0.24758 0.3563 0.92683 0.0
H2326 H 0.22512 0.34593 0.93018 0.0
S2327 S 0.22374 0.40127 0.96612 0.0
N2328 N 0.23862 0.39718 0.95852 0.0
N2329 N 0.2131 0.38857 0.95882 0.0
C2330 C 0.22157 0.38025 0.94979 0.0
C2331 C 0.2352 0.38513 0.9493 0.0
C2332 C 0.38547 0.47616 0.66719 0.0
C2333 C 0.38493 0.471 0.68236 0.0
C2334 C 0.38632 0.49208 0.66344 0.0
C2335 C 0.38542 0.50339 0.67474 0.0
H2336 H 0.38569 0.46778 0.65812 0.0
H2337 H 0.38682 0.49546 0.65153 0.0
S2338 S 0.38233 0.49625 0.71604 0.0
N2339 N 0.38243 0.47847 0.70876 0.0
N2340 N 0.38434 0.50857 0.70151 0.0
C2341 C 0.38498 0.49843 0.68993 0.0
C2342 C 0.38422 0.48218 0.69382 0.0
C2343 C 0.7431 0.13974 0.06072 0.0
C2344 C 0.74619 0.12369 0.06 0.0
C2345 C 0.73 0.14496 0.059 0.0
C2346 C 0.71939 0.13403 0.05918 0.0
H2347 H 0.75114 0.14846 0.06006 0.0
H2348 H 0.72871 0.15734 0.05606 0.0
S2349 S 0.72098 0.09082 0.05804 0.0
N2350 N 0.73704 0.09664 0.05798 0.0
N2351 N 0.71202 0.10692 0.06031 0.0
C2352 C 0.72206 0.11791 0.06109 0.0
C2353 C 0.73558 0.11242 0.06004 0.0
C2354 C 0.62849 0.01138 0.80531 0.0
C2355 C 0.63293 0.02167 0.81661 0.0
C2356 C 0.63067 0.99675 0.80718 0.0
C2357 C 0.6371 0.99024 0.82021 0.0
H2358 H 0.62407 0.01593 0.79481 0.0
H2359 H 0.62813 0.98918 0.79784 0.0
S2360 S 0.65027 0.01097 0.85244 0.0
N2361 N 0.64354 0.02441 0.84105 0.0
N2362 N 0.64774 0.99571 0.84432 0.0
C2363 C 0.64081 1.00049 0.83174 0.0
C2364 C 0.63848 0.01524 0.82994 0.0
C2365 C 0.89008 0.00676 0.33652 0.0
C2366 C 0.88785 0.99731 0.32543 0.0
C2367 C 0.88937 0.02275 0.33285 0.0
C2368 C 0.88722 0.02801 0.31788 0.0
H2369 H 0.89204 0.00338 0.34822 0.0
H2370 H 0.89108 0.03114 0.34171 0.0
S2371 S 0.882 0.00289 0.28447 0.0
N2372 N 0.88494 0.99233 0.29882 0.0
N2373 N 0.8827 0.02064 0.29177 0.0
C2374 C 0.8853 0.01688 0.30655 0.0
C2375 C 0.88605 0.0006 0.31036 0.0
C2376 C 0.44304 0.25314 0.10793 0.0
C2377 C 0.43662 0.24316 0.09784 0.0
C2378 C 0.44098 0.26906 0.10763 0.0
C2379 C 0.43081 0.2756 0.09852 0.0
H2380 H 0.45032 0.24855 0.11607 0.0
H2381 H 0.44729 0.27584 0.11503 0.0
S2382 S 0.41001 0.25523 0.06966 0.0
N2383 N 0.41968 0.24112 0.07724 0.0
N2384 N 0.41419 0.27144 0.07849 0.0
C2385 C 0.42389 0.2659 0.08818 0.0
C2386 C 0.42686 0.24946 0.08757 0.0
C2387 C 0.50351 0.6811 0.88592 0.0
C2388 C 0.50743 0.697 0.88732 0.0
C2389 C 0.49068 0.67607 0.89104 0.0
C2390 C 0.4814 0.68634 0.89799 0.0
H2391 H 0.51017 0.67237 0.88099 0.0
H2392 H 0.48794 0.66379 0.88981 0.0
S2393 S 0.48704 0.72939 0.90303 0.0
N2394 N 0.50038 0.72338 0.89367 0.0
N2395 N 0.47751 0.71351 0.90564 0.0
C2396 C 0.48513 0.70238 0.89883 0.0
C2397 C 0.49773 0.70772 0.89257 0.0
C2398 C 0.06641 0.78563 0.62081 0.0
C2399 C 0.05488 0.79247 0.61415 0.0
C2400 C 0.0678 0.76943 0.62326 0.0
C2401 C 0.05774 0.75873 0.61931 0.0
H2402 H 0.07474 0.79298 0.62422 0.0
H2403 H 0.07725 0.76516 0.62797 0.0
S2404 S 0.02436 0.76982 0.60256 0.0
N2405 N 0.03215 0.78696 0.60455 0.0
N2406 N 0.03509 0.75602 0.60853 0.0
C2407 C 0.04573 0.76509 0.61275 0.0
C2408 C 0.04422 0.78202 0.6103 0.0
C2409 C 0.99896 0.31545 0.41828 0.0
C2410 C -0.0012 0.32751 0.4086 0.0
C2411 C 0.98566 0.31147 0.41847 0.0
C2412 C 0.97569 0.32099 0.41181 0.0
H2413 H 0.00104 0.30591 0.42176 0.0
H2414 H 0.98341 0.30013 0.42367 0.0
S2415 S 0.98273 0.35897 0.39056 0.0
N2416 N 0.99777 0.35181 0.39511 0.0
N2417 N 0.97144 0.34615 0.39749 0.0
C2418 C 0.97979 0.33531 0.40423 0.0
C2419 C 0.99399 0.33853 0.40294 0.0
C2420 C 0.44436 0.73018 0.41169 0.0
C2421 C 0.43312 0.72482 0.40359 0.0
C2422 C 0.44588 0.7462 0.4144 0.0
C2423 C 0.4376 0.75727 0.40674 0.0
H2424 H 0.45235 0.72226 0.41545 0.0
H2425 H 0.45556 0.75001 0.41891 0.0
S2426 S 0.40558 0.74882 0.38664 0.0
N2427 N 0.41204 0.73135 0.39093 0.0
N2428 N 0.41619 0.76185 0.39366 0.0
C2429 C 0.42551 0.75206 0.4002 0.0
C2430 C 0.4234 0.73568 0.39846 0.0
C2431 C 0.98532 0.68675 0.07627 0.0
C2432 C 0.97536 0.67991 0.08552 0.0
C2433 C 0.99874 0.68393 0.07864 0.0
C2434 C -0.00173 0.67384 0.09042 0.0
H2435 H 0.9829 0.69618 0.06826 0.0
H2436 H 0.00086 0.69281 0.0738 0.0
S2437 S 0.98175 0.64993 0.11664 0.0
N2438 N 0.97073 0.66065 0.10656 0.0
N2439 N 0.99679 0.65433 0.10965 0.0
C2440 C 0.99325 0.66472 0.09835 0.0
C2441 C 0.9792 0.66829 0.09665 0.0
C2442 C 0.05911 0.23098 0.87265 0.0
C2443 C 0.05662 0.24153 0.88433 0.0
C2444 C 0.05789 0.21457 0.87495 0.0
C2445 C 0.05411 0.20762 0.88898 0.0
H2446 H 0.06293 0.23533 0.86186 0.0
H2447 H 0.06049 0.20714 0.86561 0.0
S2448 S 0.04716 0.23001 0.9239 0.0
N2449 N 0.05089 0.2438 0.91102 0.0
N2450 N 0.04797 0.21299 0.91514 0.0
C2451 C 0.05134 0.21801 0.9009 0.0
C2452 C 0.05286 0.23486 0.89862 0.0
C2453 C 0.50242 0.31468 0.62084 0.0
C2454 C 0.50875 0.30231 0.61326 0.0
C2455 C 0.48946 0.31959 0.61626 0.0
C2456 C 0.48211 0.3123 0.60449 0.0
H2457 H 0.50719 0.32078 0.63017 0.0
H2458 H 0.48511 0.3295 0.62206 0.0
S2459 S 0.49534 0.27854 0.58221 0.0
N2460 N 0.50775 0.28313 0.59367 0.0
N2461 N 0.48282 0.29084 0.5861 0.0
C2462 C 0.48852 0.2995 0.5972 0.0
C2463 C 0.50195 0.29505 0.60144 0.0
C2464 C 0.13777 0.4194 0.26787 0.0
C2465 C 0.13192 0.43127 0.27657 0.0
C2466 C 0.13497 0.41816 0.25241 0.0
C2467 C 0.12706 0.4296 0.24498 0.0
H2468 H 0.14446 0.4108 0.27309 0.0
H2469 H 0.14048 0.40955 0.24593 0.0
S2470 S 0.10757 0.46162 0.26238 0.0
N2471 N 0.11608 0.45338 0.27667 0.0
N2472 N 0.11118 0.45112 0.24739 0.0
C2473 C 0.11958 0.44009 0.25374 0.0
C2474 C 0.12245 0.44146 0.26948 0.0
C2475 C 0.2901 0.3963 0.0027 0.0
C2476 C 0.30279 0.3909 0.00836 0.0
C2477 C 0.28767 0.39664 0.98992 0.0
C2478 C 0.29749 0.3914 0.97951 0.0
H2479 H 0.28222 0.40009 0.01037 0.0
H2480 H 0.27813 0.40138 0.98577 0.0
S2481 S 0.33208 0.3774 0.9881 0.0
N2482 N 0.32508 0.38091 0.00162 0.0
N2483 N 0.32016 0.38183 0.97568 0.0
C2484 C 0.30994 0.38628 0.98501 0.0
C2485 C 0.31266 0.38583 1.00077 0.0
C2486 C 0.39609 0.56212 0.73068 0.0
C2487 C 0.38442 0.56078 0.72171 0.0
C2488 C 0.39494 0.56479 0.74601 0.0
C2489 C 0.38234 0.56433 0.75324 0.0
H2490 H 0.4061 0.55908 0.72666 0.0
H2491 H 0.40416 0.56408 0.75272 0.0
S2492 S 0.34869 0.56162 0.73391 0.0
N2493 N 0.35997 0.56155 0.72022 0.0
N2494 N 0.35755 0.56286 0.74984 0.0
C2495 C 0.37042 0.56358 0.74431 0.0
C2496 C 0.37166 0.56289 0.7283 0.0
C2497 C 0.18641 0.64703 0.48502 0.0
C2498 C 0.18446 0.66044 0.47586 0.0
C2499 C 0.18598 0.6476 0.50046 0.0
C2500 C 0.18069 0.66075 0.50747 0.0
H2501 H 0.19016 0.63622 0.4803 0.0
H2502 H 0.18949 0.63729 0.5066 0.0
S2503 S 0.17197 0.6994 0.48909 0.0
N2504 N 0.17737 0.68843 0.47494 0.0
N2505 N 0.17303 0.68805 0.50448 0.0
C2506 C 0.17792 0.67451 0.49857 0.0
C2507 C 0.18019 0.67465 0.48257 0.0
C2508 C 0.12514 0.55903 0.24486 0.0
C2509 C 0.12753 0.57216 0.25392 0.0
C2510 C 0.12937 0.55891 0.22992 0.0
C2511 C 0.13234 0.57303 0.22217 0.0
H2512 H 0.12273 0.54765 0.24994 0.0
H2513 H 0.12979 0.54753 0.22464 0.0
S2514 S 0.12979 0.61311 0.23777 0.0
N2515 N 0.12819 0.60121 0.25287 0.0
N2516 N 0.13197 0.60155 0.22318 0.0
C2517 C 0.13133 0.58716 0.2302 0.0
C2518 C 0.12927 0.5869 0.24628 0.0
C2519 C 0.17877 0.32961 0.01577 0.0
C2520 C 0.18235 0.34369 0.02301 0.0
C2521 C 0.17653 0.33005 7e-05 0.0
C2522 C 0.17892 0.34394 0.99453 0.0
H2523 H 0.17755 0.31841 0.02193 0.0
H2524 H 0.17311 0.31935 0.99773 0.0
S2525 S 0.19065 0.38248 0.00569 0.0
N2526 N 0.18754 0.37147 0.02076 0.0
N2527 N 0.18718 0.37102 0.9944 0.0
C2528 C 0.18311 0.35761 -0.00134 0.0
C2529 C 0.18362 0.3577 0.0145 0.0
C2530 C 0.38936 0.42542 0.75807 0.0
C2531 C 0.38351 0.43728 0.74862 0.0
C2532 C 0.39082 0.42793 0.77374 0.0
C2533 C 0.38571 0.44199 0.7799 0.0
H2534 H 0.39399 0.41507 0.75316 0.0
H2535 H 0.39649 0.41936 0.78057 0.0
S2536 S 0.36988 0.47598 0.7598 0.0
N2537 N 0.37168 0.46241 0.74691 0.0
N2538 N 0.37531 0.46748 0.77553 0.0
C2539 C 0.37906 0.453 0.77061 0.0
C2540 C 0.37712 0.45021 0.75522 0.0
C2541 C 0.3088 0.59604 0.49937 0.0
C2542 C 0.30114 0.60592 0.48984 0.0
C2543 C 0.30616 0.59462 0.51485 0.0
C2544 C 0.29597 0.6034 0.52173 0.0
H2545 H 0.31744 0.58984 0.49494 0.0
H2546 H 0.31275 0.58715 0.52164 0.0
S2547 S 0.27301 0.63187 0.50214 0.0
N2548 N 0.28297 0.62543 0.48849 0.0
N2549 N 0.27772 0.62239 0.51784 0.0
C2550 C 0.28792 0.61336 0.51241 0.0
C2551 C 0.29064 0.61481 0.49641 0.0
C2552 C 0.2379 0.15118 0.41466 0.0
C2553 C 0.24572 0.13737 0.4152 0.0
C2554 C 0.22394 0.15005 0.41514 0.0
C2555 C 0.21771 0.13569 0.4193 0.0
H2556 H 0.24217 0.16293 0.41544 0.0
H2557 H 0.21839 0.16105 0.41621 0.0
S2558 S 0.23467 0.09637 0.42222 0.0
N2559 N 0.24657 0.10891 0.41709 0.0
N2560 N 0.22072 0.10711 0.42357 0.0
C2561 C 0.22543 0.12167 0.4194 0.0
C2562 C 0.23939 0.12261 0.41611 0.0
C2563 C 0.74134 0.36666 0.56967 0.0
C2564 C 0.74757 0.35991 0.58238 0.0
C2565 C 0.72846 0.37222 0.57034 0.0
C2566 C 0.71949 0.36443 0.58007 0.0
H2567 H 0.7466 0.36888 0.5591 0.0
H2568 H 0.72511 0.37709 0.55953 0.0
S2569 S 0.72853 0.34317 0.61577 0.0
N2570 N 0.74334 0.34703 0.60748 0.0
N2571 N 0.71678 0.35077 0.60443 0.0
C2572 C 0.72474 0.3571 0.59329 0.0
C2573 C 0.73912 0.35503 0.59479 0.0
C2574 C 0.37826 1.00082 0.31622 0.0
C2575 C 0.38959 0.99161 0.32022 0.0
C2576 C 0.37901 0.01548 0.31554 0.0
C2577 C 0.3913 0.02319 0.3188 0.0
H2578 H 0.36888 0.99539 0.31253 0.0
H2579 H 0.37009 0.0223 0.31253 0.0
S2580 S 0.4234 0.00367 0.33056 0.0
N2581 N 0.41283 0.99095 0.32872 0.0
N2582 N 0.41484 0.01999 0.32655 0.0
C2583 C 0.40245 0.01397 0.32336 0.0
C2584 C 0.40146 0.99912 0.32476 0.0
C2585 C 0.75446 0.64312 0.03269 0.0
C2586 C 0.76284 0.63239 0.04033 0.0
C2587 C 0.74141 0.64601 0.03717 0.0
C2588 C 0.7361 0.63889 0.05035 0.0
H2589 H 0.75815 0.64958 0.02283 0.0
H2590 H 0.73575 0.65409 0.02997 0.0
S2591 S 0.75281 0.60852 0.0748 0.0
N2592 N 0.76435 0.61307 0.06172 0.0
N2593 N 0.73958 0.61971 0.07085 0.0
C2594 C 0.74411 0.62774 0.05834 0.0
C2595 C 0.75761 0.62425 0.05337 0.0
C2596 C 0.64117 0.50136 0.30397 0.0
C2597 C 0.64806 0.5097 0.31502 0.0
C2598 C 0.64105 0.48525 0.30388 0.0
C2599 C 0.64692 0.47651 0.31577 0.0
H2600 H 0.63578 0.50753 0.29496 0.0
H2601 H 0.63608 0.48002 0.2943 0.0
S2602 S 0.66689 0.49176 0.34794 0.0
N2603 N 0.66207 0.5078 0.33824 0.0
N2604 N 0.66045 0.47675 0.33883 0.0
C2605 C 0.65406 0.48441 0.32717 0.0
C2606 C 0.65482 0.50124 0.32685 0.0
C2607 C 0.25671 0.87184 0.9466 0.0
C2608 C 0.26077 0.86811 0.96156 0.0
C2609 C 0.24357 0.86806 0.94181 0.0
C2610 C 0.23405 0.86036 0.95143 0.0
H2611 H 0.26345 0.87756 0.93841 0.0
H2612 H 0.24084 0.87087 0.93014 0.0
S2613 S 0.24029 0.84894 0.99185 0.0
N2614 N 0.25435 0.8576 0.98622 0.0
N2615 N 0.23005 0.8496 0.97699 0.0
C2616 C 0.238 0.85711 0.96655 0.0
C2617 C 0.25123 0.86142 0.97158 0.0
C2618 C 0.39171 0.98449 0.16945 0.0
C2619 C 0.39166 0.9749 0.18268 0.0
C2620 C 0.39011 -0.00083 0.17003 0.0
C2621 C 0.38828 0.00633 0.18416 0.0
H2622 H 0.39286 0.97902 0.15854 0.0
H2623 H 0.39093 0.00599 0.15953 0.0
S2624 S 0.38486 0.98896 0.22155 0.0
N2625 N 0.38892 0.97441 0.21021 0.0
N2626 N 0.38187 0.00257 0.21044 0.0
C2627 C 0.38527 0.99832 0.19668 0.0
C2628 C 0.38857 0.98202 0.1965 0.0
C2629 C 0.15558 0.99986 0.69254 0.0
C2630 C 0.14699 0.99066 0.68366 0.0
C2631 C 0.15274 0.01418 0.69414 0.0
C2632 C 0.14259 0.02187 0.68546 0.0
H2633 H 0.16233 0.99402 0.70062 0.0
H2634 H 0.15861 0.02035 0.70251 0.0
S2635 S 0.122 0.00382 0.65532 0.0
N2636 N 0.13085 0.99068 0.66291 0.0
N2637 N 0.12676 0.01958 0.66461 0.0
C2638 C 0.13575 0.01306 0.67455 0.0
C2639 C 0.13827 0.99834 0.67343 0.0
loop_
_geom_bond_atom_site_label_1
_geom_bond_atom_site_label_2
_geom_bond_distance
_geom_bond_site_symmetry_2
_ccdc_geom_bond_type
O0 Cd1 2.300 . S
O0 C7 1.275 . S
Cd1 O0 2.300 . S
Cd1 O9 2.381 . S
Cd1 O10 2.378 . S
O2 Cd3 2.385 . S
O2 C7 1.255 . S
Cd3 O2 2.385 . S
Cd3 O4 2.317 . S
O4 Cd3 2.317 . S
O4 C5 1.232 . S
C5 O4 1.232 . S
C5 O6 1.218 . S
O6 C5 1.218 . S
C7 O0 1.275 . S
C7 O2 1.255 . S
C8 O9 1.258 . S
C8 O10 1.256 . S
O9 Cd1 2.381 . S
O9 C8 1.258 . S
O10 Cd1 2.378 . S
O10 C8 1.256 . S
O11 Cd12 2.300 . S
O11 C18 1.275 . S
Cd12 O11 2.300 . S
Cd12 O20 2.381 . S
Cd12 O21 2.378 . S
O13 Cd14 2.385 . S
O13 C18 1.255 . S
Cd14 O13 2.385 . S
Cd14 O15 2.317 . S
O15 Cd14 2.317 . S
O15 C16 1.232 . S
C16 O15 1.232 . S
C16 O17 1.218 . S
O17 C16 1.218 . S
C18 O11 1.275 . S
C18 O13 1.255 . S
C19 O20 1.258 . S
C19 O21 1.256 . S
O20 Cd12 2.381 . S
O20 C19 1.258 . S
O21 Cd12 2.378 . S
O21 C19 1.256 . S
O22 Cd23 2.300 . S
O22 C29 1.275 . S
Cd23 O22 2.300 . S
Cd23 O31 2.381 . S
Cd23 O32 2.378 . S
O24 Cd25 2.385 . S
O24 C29 1.255 . S
Cd25 O24 2.385 . S
Cd25 O26 2.317 . S
O26 Cd25 2.317 . S
O26 C27 1.232 . S
C27 O26 1.232 . S
C27 O28 1.218 . S
O28 C27 1.218 . S
C29 O22 1.275 . S
C29 O24 1.255 . S
C30 O31 1.258 . S
C30 O32 1.256 . S
O31 Cd23 2.381 . S
O31 C30 1.258 . S
O32 Cd23 2.378 . S
O32 C30 1.256 . S
O33 Cd34 2.300 . S
O33 C40 1.275 . S
Cd34 O33 2.300 . S
Cd34 O42 2.381 . S
Cd34 O43 2.378 . S
O35 Cd36 2.385 . S
O35 C40 1.255 . S
Cd36 O35 2.385 . S
Cd36 O37 2.317 . S
O37 Cd36 2.317 . S
O37 C38 1.232 . S
C38 O37 1.232 . S
C38 O39 1.218 . S
O39 C38 1.218 . S
C40 O33 1.275 . S
C40 O35 1.255 . S
C41 O42 1.258 . S
C41 O43 1.256 . S
O42 Cd34 2.381 . S
O42 C41 1.258 . S
O43 Cd34 2.378 . S
O43 C41 1.256 . S
O44 Cd45 2.300 . S
O44 C51 1.275 . S
Cd45 O44 2.300 . S
Cd45 O53 2.381 . S
Cd45 O54 2.378 . S
O46 Cd47 2.385 . S
O46 C51 1.255 . S
Cd47 O46 2.385 . S
Cd47 O48 2.317 . S
O48 Cd47 2.317 . S
O48 C49 1.232 . S
C49 O48 1.232 . S
C49 O50 1.218 . S
O50 C49 1.218 . S
C51 O44 1.275 . S
C51 O46 1.255 . S
C52 O53 1.258 . S
C52 O54 1.256 . S
O53 Cd45 2.381 . S
O53 C52 1.258 . S
O54 Cd45 2.378 . S
O54 C52 1.256 . S
O55 Cd56 2.300 . S
O55 C62 1.275 . S
Cd56 O55 2.300 . S
Cd56 O64 2.381 . S
Cd56 O65 2.378 . S
O57 Cd58 2.385 . S
O57 C62 1.255 . S
Cd58 O57 2.385 . S
Cd58 O59 2.317 . S
O59 Cd58 2.317 . S
O59 C60 1.232 . S
C60 O59 1.232 . S
C60 O61 1.218 . S
O61 C60 1.218 . S
C62 O55 1.275 . S
C62 O57 1.255 . S
C63 O64 1.258 . S
C63 O65 1.256 . S
O64 Cd56 2.381 . S
O64 C63 1.258 . S
O65 Cd56 2.378 . S
O65 C63 1.256 . S
O66 Cd67 2.300 . S
O66 C73 1.275 . S
Cd67 O66 2.300 . S
Cd67 O75 2.381 . S
Cd67 O76 2.378 . S
O68 Cd69 2.385 . S
O68 C73 1.255 . S
Cd69 O68 2.385 . S
Cd69 O70 2.317 . S
O70 Cd69 2.317 . S
O70 C71 1.232 . S
C71 O70 1.232 . S
C71 O72 1.218 . S
O72 C71 1.218 . S
C73 O66 1.275 . S
C73 O68 1.255 . S
C74 O75 1.258 . S
C74 O76 1.256 . S
O75 Cd67 2.381 . S
O75 C74 1.258 . S
O76 Cd67 2.378 . S
O76 C74 1.256 . S
O77 Cd78 2.300 . S
O77 C84 1.275 . S
Cd78 O77 2.300 . S
Cd78 O86 2.381 . S
Cd78 O87 2.378 . S
O79 Cd80 2.385 . S
O79 C84 1.255 . S
Cd80 O79 2.385 . S
Cd80 O81 2.317 . S
O81 Cd80 2.317 . S
O81 C82 1.232 . S
C82 O81 1.232 . S
C82 O83 1.218 . S
O83 C82 1.218 . S
C84 O77 1.275 . S
C84 O79 1.255 . S
C85 O86 1.258 . S
C85 O87 1.256 . S
O86 Cd78 2.381 . S
O86 C85 1.258 . S
O87 Cd78 2.378 . S
O87 C85 1.256 . S
O88 Cd89 2.300 . S
O88 C95 1.275 . S
Cd89 O88 2.300 . S
Cd89 O97 2.381 . S
Cd89 O98 2.378 . S
O90 Cd91 2.385 . S
O90 C95 1.255 . S
Cd91 O90 2.385 . S
Cd91 O92 2.317 . S
O92 Cd91 2.317 . S
O92 C93 1.232 . S
C93 O92 1.232 . S
C93 O94 1.218 . S
O94 C93 1.218 . S
C95 O88 1.275 . S
C95 O90 1.255 . S
C96 O97 1.258 . S
C96 O98 1.256 . S
O97 Cd89 2.381 . S
O97 C96 1.258 . S
O98 Cd89 2.378 . S
O98 C96 1.256 . S
O99 Cd100 2.300 . S
O99 C106 1.275 . S
Cd100 O99 2.300 . S
Cd100 O108 2.381 . S
Cd100 O109 2.378 . S
O101 Cd102 2.385 . S
O101 C106 1.255 . S
Cd102 O101 2.385 . S
Cd102 O103 2.317 . S
O103 Cd102 2.317 . S
O103 C104 1.232 . S
C104 O103 1.232 . S
C104 O105 1.218 . S
O105 C104 1.218 . S
C106 O99 1.275 . S
C106 O101 1.255 . S
C107 O108 1.258 . S
C107 O109 1.256 . S
O108 Cd100 2.381 . S
O108 C107 1.258 . S
O109 Cd100 2.378 . S
O109 C107 1.256 . S
O110 Cd111 2.300 . S
O110 C117 1.275 . S
Cd111 O110 2.300 . S
Cd111 O119 2.381 . S
Cd111 O120 2.378 . S
O112 Cd113 2.385 . S
O112 C117 1.255 . S
Cd113 O112 2.385 . S
Cd113 O114 2.317 . S
O114 Cd113 2.317 . S
O114 C115 1.232 . S
C115 O114 1.232 . S
C115 O116 1.218 . S
O116 C115 1.218 . S
C117 O110 1.275 . S
C117 O112 1.255 . S
C118 O119 1.258 . S
C118 O120 1.256 . S
O119 Cd111 2.381 . S
O119 C118 1.258 . S
O120 Cd111 2.378 . S
O120 C118 1.256 . S
O121 Cd122 2.300 . S
O121 C128 1.275 . S
Cd122 O121 2.300 . S
Cd122 O130 2.381 . S
Cd122 O131 2.378 . S
O123 Cd124 2.385 . S
O123 C128 1.255 . S
Cd124 O123 2.385 . S
Cd124 O125 2.317 . S
O125 Cd124 2.317 . S
O125 C126 1.232 . S
C126 O125 1.232 . S
C126 O127 1.218 . S
O127 C126 1.218 . S
C128 O121 1.275 . S
C128 O123 1.255 . S
C129 O130 1.258 . S
C129 O131 1.256 . S
O130 Cd122 2.381 . S
O130 C129 1.258 . S
O131 Cd122 2.378 . S
O131 C129 1.256 . S
O132 Cd133 2.300 . S
O132 C139 1.275 . S
Cd133 O132 2.300 . S
Cd133 O141 2.381 . S
Cd133 O142 2.378 . S
O134 Cd135 2.385 . S
O134 C139 1.255 . S
Cd135 O134 2.385 . S
Cd135 O136 2.317 . S
O136 Cd135 2.317 . S
O136 C137 1.232 . S
C137 O136 1.232 . S
C137 O138 1.218 . S
O138 C137 1.218 . S
C139 O132 1.275 . S
C139 O134 1.255 . S
C140 O141 1.258 . S
C140 O142 1.256 . S
O141 Cd133 2.381 . S
O141 C140 1.258 . S
O142 Cd133 2.378 . S
O142 C140 1.256 . S
O143 Cd144 2.300 . S
O143 C150 1.275 . S
Cd144 O143 2.300 . S
Cd144 O152 2.381 . S
Cd144 O153 2.378 . S
O145 Cd146 2.385 . S
O145 C150 1.255 . S
Cd146 O145 2.385 . S
Cd146 O147 2.317 . S
O147 Cd146 2.317 . S
O147 C148 1.232 . S
C148 O147 1.232 . S
C148 O149 1.218 . S
O149 C148 1.218 . S
C150 O143 1.275 . S
C150 O145 1.255 . S
C151 O152 1.258 . S
C151 O153 1.256 . S
O152 Cd144 2.381 . S
O152 C151 1.258 . S
O153 Cd144 2.378 . S
O153 C151 1.256 . S
O154 Cd155 2.300 . S
O154 C161 1.275 . S
Cd155 O154 2.300 . S
Cd155 O163 2.381 . S
Cd155 O164 2.378 . S
O156 Cd157 2.385 . S
O156 C161 1.255 . S
Cd157 O156 2.385 . S
Cd157 O158 2.317 . S
O158 Cd157 2.317 . S
O158 C159 1.232 . S
C159 O158 1.232 . S
C159 O160 1.218 . S
O160 C159 1.218 . S
C161 O154 1.275 . S
C161 O156 1.255 . S
C162 O163 1.258 . S
C162 O164 1.256 . S
O163 Cd155 2.381 . S
O163 C162 1.258 . S
O164 Cd155 2.378 . S
O164 C162 1.256 . S
O165 Cd166 2.300 . S
O165 C172 1.275 . S
Cd166 O165 2.300 . S
Cd166 O174 2.381 . S
Cd166 O175 2.378 . S
O167 Cd168 2.385 . S
O167 C172 1.255 . S
Cd168 O167 2.385 . S
Cd168 O169 2.317 . S
O169 Cd168 2.317 . S
O169 C170 1.232 . S
C170 O169 1.232 . S
C170 O171 1.218 . S
O171 C170 1.218 . S
C172 O165 1.275 . S
C172 O167 1.255 . S
C173 O174 1.258 . S
C173 O175 1.256 . S
O174 Cd166 2.381 . S
O174 C173 1.258 . S
O175 Cd166 2.378 . S
O175 C173 1.256 . S
O176 Cd177 2.300 . S
O176 C183 1.275 . S
Cd177 O176 2.300 . S
Cd177 O185 2.381 . S
Cd177 O186 2.378 . S
O178 Cd179 2.385 . S
O178 C183 1.255 . S
Cd179 O178 2.385 . S
Cd179 O180 2.317 . S
O180 Cd179 2.317 . S
O180 C181 1.232 . S
C181 O180 1.232 . S
C181 O182 1.218 . S
O182 C181 1.218 . S
C183 O176 1.275 . S
C183 O178 1.255 . S
C184 O185 1.258 . S
C184 O186 1.256 . S
O185 Cd177 2.381 . S
O185 C184 1.258 . S
O186 Cd177 2.378 . S
O186 C184 1.256 . S
O187 Cd188 2.300 . S
O187 C194 1.275 . S
Cd188 O187 2.300 . S
Cd188 O196 2.381 . S
Cd188 O197 2.378 . S
O189 Cd190 2.385 . S
O189 C194 1.255 . S
Cd190 O189 2.385 . S
Cd190 O191 2.317 . S
O191 Cd190 2.317 . S
O191 C192 1.232 . S
C192 O191 1.232 . S
C192 O193 1.218 . S
O193 C192 1.218 . S
C194 O187 1.275 . S
C194 O189 1.255 . S
C195 O196 1.258 . S
C195 O197 1.256 . S
O196 Cd188 2.381 . S
O196 C195 1.258 . S
O197 Cd188 2.378 . S
O197 C195 1.256 . S
O198 Cd199 2.300 . S
O198 C205 1.275 . S
Cd199 O198 2.300 . S
Cd199 O207 2.381 . S
Cd199 O208 2.378 . S
O200 Cd201 2.385 . S
O200 C205 1.255 . S
Cd201 O200 2.385 . S
Cd201 O202 2.317 . S
O202 Cd201 2.317 . S
O202 C203 1.232 . S
C203 O202 1.232 . S
C203 O204 1.218 . S
O204 C203 1.218 . S
C205 O198 1.275 . S
C205 O200 1.255 . S
C206 O207 1.258 . S
C206 O208 1.256 . S
O207 Cd199 2.381 . S
O207 C206 1.258 . S
O208 Cd199 2.378 . S
O208 C206 1.256 . S
O209 Cd210 2.300 . S
O209 C216 1.275 . S
Cd210 O209 2.300 . S
Cd210 O218 2.381 . S
Cd210 O219 2.378 . S
O211 Cd212 2.385 . S
O211 C216 1.255 . S
Cd212 O211 2.385 . S
Cd212 O213 2.317 . S
O213 Cd212 2.317 . S
O213 C214 1.232 . S
C214 O213 1.232 . S
C214 O215 1.218 . S
O215 C214 1.218 . S
C216 O209 1.275 . S
C216 O211 1.255 . S
C217 O218 1.258 . S
C217 O219 1.256 . S
O218 Cd210 2.381 . S
O218 C217 1.258 . S
O219 Cd210 2.378 . S
O219 C217 1.256 . S
O220 Cd221 2.300 . S
O220 C227 1.275 . S
Cd221 O220 2.300 . S
Cd221 O229 2.381 . S
Cd221 O230 2.378 . S
O222 Cd223 2.385 . S
O222 C227 1.255 . S
Cd223 O222 2.385 . S
Cd223 O224 2.317 . S
O224 Cd223 2.317 . S
O224 C225 1.232 . S
C225 O224 1.232 . S
C225 O226 1.218 . S
O226 C225 1.218 . S
C227 O220 1.275 . S
C227 O222 1.255 . S
C228 O229 1.258 . S
C228 O230 1.256 . S
O229 Cd221 2.381 . S
O229 C228 1.258 . S
O230 Cd221 2.378 . S
O230 C228 1.256 . S
O231 Cd232 2.300 . S
O231 C238 1.275 . S
Cd232 O231 2.300 . S
Cd232 O240 2.381 . S
Cd232 O241 2.378 . S
O233 Cd234 2.385 . S
O233 C238 1.255 . S
Cd234 O233 2.385 . S
Cd234 O235 2.317 . S
O235 Cd234 2.317 . S
O235 C236 1.232 . S
C236 O235 1.232 . S
C236 O237 1.218 . S
O237 C236 1.218 . S
C238 O231 1.275 . S
C238 O233 1.255 . S
C239 O240 1.258 . S
C239 O241 1.256 . S
O240 Cd232 2.381 . S
O240 C239 1.258 . S
O241 Cd232 2.378 . S
O241 C239 1.256 . S
O242 Cd243 2.300 . S
O242 C249 1.275 . S
Cd243 O242 2.300 . S
Cd243 O251 2.381 . S
Cd243 O252 2.378 . S
O244 Cd245 2.385 . S
O244 C249 1.255 . S
Cd245 O244 2.385 . S
Cd245 O246 2.317 . S
O246 Cd245 2.317 . S
O246 C247 1.232 . S
C247 O246 1.232 . S
C247 O248 1.218 . S
O248 C247 1.218 . S
C249 O242 1.275 . S
C249 O244 1.255 . S
C250 O251 1.258 . S
C250 O252 1.256 . S
O251 Cd243 2.381 . S
O251 C250 1.258 . S
O252 Cd243 2.378 . S
O252 C250 1.256 . S
O253 Cd254 2.300 . S
O253 C260 1.275 . S
Cd254 O253 2.300 . S
Cd254 O262 2.381 . S
Cd254 O263 2.378 . S
O255 Cd256 2.385 . S
O255 C260 1.255 . S
Cd256 O255 2.385 . S
Cd256 O257 2.317 . S
O257 Cd256 2.317 . S
O257 C258 1.232 . S
C258 O257 1.232 . S
C258 O259 1.218 . S
O259 C258 1.218 . S
C260 O253 1.275 . S
C260 O255 1.255 . S
C261 O262 1.258 . S
C261 O263 1.256 . S
O262 Cd254 2.381 . S
O262 C261 1.258 . S
O263 Cd254 2.378 . S
O263 C261 1.256 . S
O264 Cd265 2.300 . S
O264 C271 1.275 . S
Cd265 O264 2.300 . S
Cd265 O273 2.381 . S
Cd265 O274 2.378 . S
O266 Cd267 2.385 . S
O266 C271 1.255 . S
Cd267 O266 2.385 . S
Cd267 O268 2.317 . S
O268 Cd267 2.317 . S
O268 C269 1.232 . S
C269 O268 1.232 . S
C269 O270 1.218 . S
O270 C269 1.218 . S
C271 O264 1.275 . S
C271 O266 1.255 . S
C272 O273 1.258 . S
C272 O274 1.256 . S
O273 Cd265 2.381 . S
O273 C272 1.258 . S
O274 Cd265 2.378 . S
O274 C272 1.256 . S
O275 Cd276 2.300 . S
O275 C282 1.275 . S
Cd276 O275 2.300 . S
Cd276 O284 2.381 . S
Cd276 O285 2.378 . S
O277 Cd278 2.385 . S
O277 C282 1.255 . S
Cd278 O277 2.385 . S
Cd278 O279 2.317 . S
O279 Cd278 2.317 . S
O279 C280 1.232 . S
C280 O279 1.232 . S
C280 O281 1.218 . S
O281 C280 1.218 . S
C282 O275 1.275 . S
C282 O277 1.255 . S
C283 O284 1.258 . S
C283 O285 1.256 . S
O284 Cd276 2.381 . S
O284 C283 1.258 . S
O285 Cd276 2.378 . S
O285 C283 1.256 . S
O286 Cd287 2.300 . S
O286 C293 1.275 . S
Cd287 O286 2.300 . S
Cd287 O295 2.381 . S
Cd287 O296 2.378 . S
O288 Cd289 2.385 . S
O288 C293 1.255 . S
Cd289 O288 2.385 . S
Cd289 O290 2.317 . S
O290 Cd289 2.317 . S
O290 C291 1.232 . S
C291 O290 1.232 . S
C291 O292 1.218 . S
O292 C291 1.218 . S
C293 O286 1.275 . S
C293 O288 1.255 . S
C294 O295 1.258 . S
C294 O296 1.256 . S
O295 Cd287 2.381 . S
O295 C294 1.258 . S
O296 Cd287 2.378 . S
O296 C294 1.256 . S
O297 Cd298 2.300 . S
O297 C304 1.275 . S
Cd298 O297 2.300 . S
Cd298 O306 2.381 . S
Cd298 O307 2.378 . S
O299 Cd300 2.385 . S
O299 C304 1.255 . S
Cd300 O299 2.385 . S
Cd300 O301 2.317 . S
O301 Cd300 2.317 . S
O301 C302 1.232 . S
C302 O301 1.232 . S
C302 O303 1.218 . S
O303 C302 1.218 . S
C304 O297 1.275 . S
C304 O299 1.255 . S
C305 O306 1.258 . S
C305 O307 1.256 . S
O306 Cd298 2.381 . S
O306 C305 1.258 . S
O307 Cd298 2.378 . S
O307 C305 1.256 . S
O308 Cd309 2.300 . S
O308 C315 1.275 . S
Cd309 O308 2.300 . S
Cd309 O317 2.381 . S
Cd309 O318 2.378 . S
O310 Cd311 2.385 . S
O310 C315 1.255 . S
Cd311 O310 2.385 . S
Cd311 O312 2.317 . S
O312 Cd311 2.317 . S
O312 C313 1.232 . S
C313 O312 1.232 . S
C313 O314 1.218 . S
O314 C313 1.218 . S
C315 O308 1.275 . S
C315 O310 1.255 . S
C316 O317 1.258 . S
C316 O318 1.256 . S
O317 Cd309 2.381 . S
O317 C316 1.258 . S
O318 Cd309 2.378 . S
O318 C316 1.256 . S
O319 Cd320 2.300 . S
O319 C326 1.275 . S
Cd320 O319 2.300 . S
Cd320 O328 2.381 . S
Cd320 O329 2.378 . S
O321 Cd322 2.385 . S
O321 C326 1.255 . S
Cd322 O321 2.385 . S
Cd322 O323 2.317 . S
O323 Cd322 2.317 . S
O323 C324 1.232 . S
C324 O323 1.232 . S
C324 O325 1.218 . S
O325 C324 1.218 . S
C326 O319 1.275 . S
C326 O321 1.255 . S
C327 O328 1.258 . S
C327 O329 1.256 . S
O328 Cd320 2.381 . S
O328 C327 1.258 . S
O329 Cd320 2.378 . S
O329 C327 1.256 . S
O330 Cd331 2.300 . S
O330 C337 1.275 . S
Cd331 O330 2.300 . S
Cd331 O339 2.381 . S
Cd331 O340 2.378 . S
O332 Cd333 2.385 . S
O332 C337 1.255 . S
Cd333 O332 2.385 . S
Cd333 O334 2.317 . S
O334 Cd333 2.317 . S
O334 C335 1.232 . S
C335 O334 1.232 . S
C335 O336 1.218 . S
O336 C335 1.218 . S
C337 O330 1.275 . S
C337 O332 1.255 . S
C338 O339 1.258 . S
C338 O340 1.256 . S
O339 Cd331 2.381 . S
O339 C338 1.258 . S
O340 Cd331 2.378 . S
O340 C338 1.256 . S
O341 Cd342 2.300 . S
O341 C348 1.275 . S
Cd342 O341 2.300 . S
Cd342 O350 2.381 . S
Cd342 O351 2.378 . S
O343 Cd344 2.385 . S
O343 C348 1.255 . S
Cd344 O343 2.385 . S
Cd344 O345 2.317 . S
O345 Cd344 2.317 . S
O345 C346 1.232 . S
C346 O345 1.232 . S
C346 O347 1.218 . S
O347 C346 1.218 . S
C348 O341 1.275 . S
C348 O343 1.255 . S
C349 O350 1.258 . S
C349 O351 1.256 . S
O350 Cd342 2.381 . S
O350 C349 1.258 . S
O351 Cd342 2.378 . S
O351 C349 1.256 . S
O352 Cd353 2.300 . S
O352 C359 1.275 . S
Cd353 O352 2.300 . S
Cd353 O361 2.381 . S
Cd353 O362 2.378 . S
O354 Cd355 2.385 . S
O354 C359 1.255 . S
Cd355 O354 2.385 . S
Cd355 O356 2.317 . S
O356 Cd355 2.317 . S
O356 C357 1.232 . S
C357 O356 1.232 . S
C357 O358 1.218 . S
O358 C357 1.218 . S
C359 O352 1.275 . S
C359 O354 1.255 . S
C360 O361 1.258 . S
C360 O362 1.256 . S
O361 Cd353 2.381 . S
O361 C360 1.258 . S
O362 Cd353 2.378 . S
O362 C360 1.256 . S
O363 Cd364 2.300 . S
O363 C370 1.275 . S
Cd364 O363 2.300 . S
Cd364 O372 2.381 . S
Cd364 O373 2.378 . S
O365 Cd366 2.385 . S
O365 C370 1.255 . S
Cd366 O365 2.385 . S
Cd366 O367 2.317 . S
O367 Cd366 2.317 . S
O367 C368 1.232 . S
C368 O367 1.232 . S
C368 O369 1.218 . S
O369 C368 1.218 . S
C370 O363 1.275 . S
C370 O365 1.255 . S
C371 O372 1.258 . S
C371 O373 1.256 . S
O372 Cd364 2.381 . S
O372 C371 1.258 . S
O373 Cd364 2.378 . S
O373 C371 1.256 . S
O374 Cd375 2.300 . S
O374 C381 1.275 . S
Cd375 O374 2.300 . S
Cd375 O383 2.381 . S
Cd375 O384 2.378 . S
O376 Cd377 2.385 . S
O376 C381 1.255 . S
Cd377 O376 2.385 . S
Cd377 O378 2.317 . S
O378 Cd377 2.317 . S
O378 C379 1.232 . S
C379 O378 1.232 . S
C379 O380 1.218 . S
O380 C379 1.218 . S
C381 O374 1.275 . S
C381 O376 1.255 . S
C382 O383 1.258 . S
C382 O384 1.256 . S
O383 Cd375 2.381 . S
O383 C382 1.258 . S
O384 Cd375 2.378 . S
O384 C382 1.256 . S
O385 Cd386 2.300 . S
O385 C392 1.275 . S
Cd386 O385 2.300 . S
Cd386 O394 2.381 . S
Cd386 O395 2.378 . S
O387 Cd388 2.385 . S
O387 C392 1.255 . S
Cd388 O387 2.385 . S
Cd388 O389 2.317 . S
O389 Cd388 2.317 . S
O389 C390 1.232 . S
C390 O389 1.232 . S
C390 O391 1.218 . S
O391 C390 1.218 . S
C392 O385 1.275 . S
C392 O387 1.255 . S
C393 O394 1.258 . S
C393 O395 1.256 . S
O394 Cd386 2.381 . S
O394 C393 1.258 . S
O395 Cd386 2.378 . S
O395 C393 1.256 . S
O396 Cd397 2.300 . S
O396 C403 1.275 . S
Cd397 O396 2.300 . S
Cd397 O405 2.381 . S
Cd397 O406 2.378 . S
O398 Cd399 2.385 . S
O398 C403 1.255 . S
Cd399 O398 2.385 . S
Cd399 O400 2.317 . S
O400 Cd399 2.317 . S
O400 C401 1.232 . S
C401 O400 1.232 . S
C401 O402 1.218 . S
O402 C401 1.218 . S
C403 O396 1.275 . S
C403 O398 1.255 . S
C404 O405 1.258 . S
C404 O406 1.256 . S
O405 Cd397 2.381 . S
O405 C404 1.258 . S
O406 Cd397 2.378 . S
O406 C404 1.256 . S
O407 Cd408 2.300 . S
O407 C414 1.275 . S
Cd408 O407 2.300 . S
Cd408 O416 2.381 . S
Cd408 O417 2.378 . S
O409 Cd410 2.385 . S
O409 C414 1.255 . S
Cd410 O409 2.385 . S
Cd410 O411 2.317 . S
O411 Cd410 2.317 . S
O411 C412 1.232 . S
C412 O411 1.232 . S
C412 O413 1.218 . S
O413 C412 1.218 . S
C414 O407 1.275 . S
C414 O409 1.255 . S
C415 O416 1.258 . S
C415 O417 1.256 . S
O416 Cd408 2.381 . S
O416 C415 1.258 . S
O417 Cd408 2.378 . S
O417 C415 1.256 . S
O418 Cd419 2.300 . S
O418 C425 1.275 . S
Cd419 O418 2.300 . S
Cd419 O427 2.381 . S
Cd419 O428 2.378 . S
O420 Cd421 2.385 . S
O420 C425 1.255 . S
Cd421 O420 2.385 . S
Cd421 O422 2.317 . S
O422 Cd421 2.317 . S
O422 C423 1.232 . S
C423 O422 1.232 . S
C423 O424 1.218 . S
O424 C423 1.218 . S
C425 O418 1.275 . S
C425 O420 1.255 . S
C426 O427 1.258 . S
C426 O428 1.256 . S
O427 Cd419 2.381 . S
O427 C426 1.258 . S
O428 Cd419 2.378 . S
O428 C426 1.256 . S
O429 Cd430 2.300 . S
O429 C436 1.275 . S
Cd430 O429 2.300 . S
Cd430 O438 2.381 . S
Cd430 O439 2.378 . S
O431 Cd432 2.385 . S
O431 C436 1.255 . S
Cd432 O431 2.385 . S
Cd432 O433 2.317 . S
O433 Cd432 2.317 . S
O433 C434 1.232 . S
C434 O433 1.232 . S
C434 O435 1.218 . S
O435 C434 1.218 . S
C436 O429 1.275 . S
C436 O431 1.255 . S
C437 O438 1.258 . S
C437 O439 1.256 . S
O438 Cd430 2.381 . S
O438 C437 1.258 . S
O439 Cd430 2.378 . S
O439 C437 1.256 . S
O440 Cd441 2.300 . S
O440 C447 1.275 . S
Cd441 O440 2.300 . S
Cd441 O449 2.381 . S
Cd441 O450 2.378 . S
O442 Cd443 2.385 . S
O442 C447 1.255 . S
Cd443 O442 2.385 . S
Cd443 O444 2.317 . S
O444 Cd443 2.317 . S
O444 C445 1.232 . S
C445 O444 1.232 . S
C445 O446 1.218 . S
O446 C445 1.218 . S
C447 O440 1.275 . S
C447 O442 1.255 . S
C448 O449 1.258 . S
C448 O450 1.256 . S
O449 Cd441 2.381 . S
O449 C448 1.258 . S
O450 Cd441 2.378 . S
O450 C448 1.256 . S
O451 Cd452 2.300 . S
O451 C458 1.275 . S
Cd452 O451 2.300 . S
Cd452 O460 2.381 . S
Cd452 O461 2.378 . S
O453 Cd454 2.385 . S
O453 C458 1.255 . S
Cd454 O453 2.385 . S
Cd454 O455 2.317 . S
O455 Cd454 2.317 . S
O455 C456 1.232 . S
C456 O455 1.232 . S
C456 O457 1.218 . S
O457 C456 1.218 . S
C458 O451 1.275 . S
C458 O453 1.255 . S
C459 O460 1.258 . S
C459 O461 1.256 . S
O460 Cd452 2.381 . S
O460 C459 1.258 . S
O461 Cd452 2.378 . S
O461 C459 1.256 . S
O462 Cd463 2.300 . S
O462 C469 1.275 . S
Cd463 O462 2.300 . S
Cd463 O471 2.381 . S
Cd463 O472 2.378 . S
O464 Cd465 2.385 . S
O464 C469 1.255 . S
Cd465 O464 2.385 . S
Cd465 O466 2.317 . S
O466 Cd465 2.317 . S
O466 C467 1.232 . S
C467 O466 1.232 . S
C467 O468 1.218 . S
O468 C467 1.218 . S
C469 O462 1.275 . S
C469 O464 1.255 . S
C470 O471 1.258 . S
C470 O472 1.256 . S
O471 Cd463 2.381 . S
O471 C470 1.258 . S
O472 Cd463 2.378 . S
O472 C470 1.256 . S
O473 Cd474 2.300 . S
O473 C480 1.275 . S
Cd474 O473 2.300 . S
Cd474 O482 2.381 . S
Cd474 O483 2.378 . S
O475 Cd476 2.385 . S
O475 C480 1.255 . S
Cd476 O475 2.385 . S
Cd476 O477 2.317 . S
O477 Cd476 2.317 . S
O477 C478 1.232 . S
C478 O477 1.232 . S
C478 O479 1.218 . S
O479 C478 1.218 . S
C480 O473 1.275 . S
C480 O475 1.255 . S
C481 O482 1.258 . S
C481 O483 1.256 . S
O482 Cd474 2.381 . S
O482 C481 1.258 . S
O483 Cd474 2.378 . S
O483 C481 1.256 . S
O484 Cd485 2.300 . S
O484 C491 1.275 . S
Cd485 O484 2.300 . S
Cd485 O493 2.381 . S
Cd485 O494 2.378 . S
O486 Cd487 2.385 . S
O486 C491 1.255 . S
Cd487 O486 2.385 . S
Cd487 O488 2.317 . S
O488 Cd487 2.317 . S
O488 C489 1.232 . S
C489 O488 1.232 . S
C489 O490 1.218 . S
O490 C489 1.218 . S
C491 O484 1.275 . S
C491 O486 1.255 . S
C492 O493 1.258 . S
C492 O494 1.256 . S
O493 Cd485 2.381 . S
O493 C492 1.258 . S
O494 Cd485 2.378 . S
O494 C492 1.256 . S
O495 Cd496 2.300 . S
O495 C502 1.275 . S
Cd496 O495 2.300 . S
Cd496 O504 2.381 . S
Cd496 O505 2.378 . S
O497 Cd498 2.385 . S
O497 C502 1.255 . S
Cd498 O497 2.385 . S
Cd498 O499 2.317 . S
O499 Cd498 2.317 . S
O499 C500 1.232 . S
C500 O499 1.232 . S
C500 O501 1.218 . S
O501 C500 1.218 . S
C502 O495 1.275 . S
C502 O497 1.255 . S
C503 O504 1.258 . S
C503 O505 1.256 . S
O504 Cd496 2.381 . S
O504 C503 1.258 . S
O505 Cd496 2.378 . S
O505 C503 1.256 . S
O506 Cd507 2.300 . S
O506 C513 1.275 . S
Cd507 O506 2.300 . S
Cd507 O515 2.381 . S
Cd507 O516 2.378 . S
O508 Cd509 2.385 . S
O508 C513 1.255 . S
Cd509 O508 2.385 . S
Cd509 O510 2.317 . S
O510 Cd509 2.317 . S
O510 C511 1.232 . S
C511 O510 1.232 . S
C511 O512 1.218 . S
O512 C511 1.218 . S
C513 O506 1.275 . S
C513 O508 1.255 . S
C514 O515 1.258 . S
C514 O516 1.256 . S
O515 Cd507 2.381 . S
O515 C514 1.258 . S
O516 Cd507 2.378 . S
O516 C514 1.256 . S
O517 Cd518 2.300 . S
O517 C524 1.275 . S
Cd518 O517 2.300 . S
Cd518 O526 2.381 . S
Cd518 O527 2.378 . S
O519 Cd520 2.385 . S
O519 C524 1.255 . S
Cd520 O519 2.385 . S
Cd520 O521 2.317 . S
O521 Cd520 2.317 . S
O521 C522 1.232 . S
C522 O521 1.232 . S
C522 O523 1.218 . S
O523 C522 1.218 . S
C524 O517 1.275 . S
C524 O519 1.255 . S
C525 O526 1.258 . S
C525 O527 1.256 . S
O526 Cd518 2.381 . S
O526 C525 1.258 . S
O527 Cd518 2.378 . S
O527 C525 1.256 . S
O528 Cd529 2.300 . S
O528 C535 1.275 . S
Cd529 O528 2.300 . S
Cd529 O537 2.381 . S
Cd529 O538 2.378 . S
O530 Cd531 2.385 . S
O530 C535 1.255 . S
Cd531 O530 2.385 . S
Cd531 O532 2.317 . S
O532 Cd531 2.317 . S
O532 C533 1.232 . S
C533 O532 1.232 . S
C533 O534 1.218 . S
O534 C533 1.218 . S
C535 O528 1.275 . S
C535 O530 1.255 . S
C536 O537 1.258 . S
C536 O538 1.256 . S
O537 Cd529 2.381 . S
O537 C536 1.258 . S
O538 Cd529 2.378 . S
O538 C536 1.256 . S
O539 Cd540 2.300 . S
O539 C546 1.275 . S
Cd540 O539 2.300 . S
Cd540 O548 2.381 . S
Cd540 O549 2.378 . S
O541 Cd542 2.385 . S
O541 C546 1.255 . S
Cd542 O541 2.385 . S
Cd542 O543 2.317 . S
O543 Cd542 2.317 . S
O543 C544 1.232 . S
C544 O543 1.232 . S
C544 O545 1.218 . S
O545 C544 1.218 . S
C546 O539 1.275 . S
C546 O541 1.255 . S
C547 O548 1.258 . S
C547 O549 1.256 . S
O548 Cd540 2.381 . S
O548 C547 1.258 . S
O549 Cd540 2.378 . S
O549 C547 1.256 . S
O550 Cd551 2.300 . S
O550 C557 1.275 . S
Cd551 O550 2.300 . S
Cd551 O559 2.381 . S
Cd551 O560 2.378 . S
O552 Cd553 2.385 . S
O552 C557 1.255 . S
Cd553 O552 2.385 . S
Cd553 O554 2.317 . S
O554 Cd553 2.317 . S
O554 C555 1.232 . S
C555 O554 1.232 . S
C555 O556 1.218 . S
O556 C555 1.218 . S
C557 O550 1.275 . S
C557 O552 1.255 . S
C558 O559 1.258 . S
C558 O560 1.256 . S
O559 Cd551 2.381 . S
O559 C558 1.258 . S
O560 Cd551 2.378 . S
O560 C558 1.256 . S
O561 Cd562 2.300 . S
O561 C568 1.275 . S
Cd562 O561 2.300 . S
Cd562 O570 2.381 . S
Cd562 O571 2.378 . S
O563 Cd564 2.385 . S
O563 C568 1.255 . S
Cd564 O563 2.385 . S
Cd564 O565 2.317 . S
O565 Cd564 2.317 . S
O565 C566 1.232 . S
C566 O565 1.232 . S
C566 O567 1.218 . S
O567 C566 1.218 . S
C568 O561 1.275 . S
C568 O563 1.255 . S
C569 O570 1.258 . S
C569 O571 1.256 . S
O570 Cd562 2.381 . S
O570 C569 1.258 . S
O571 Cd562 2.378 . S
O571 C569 1.256 . S
O572 Cd573 2.300 . S
O572 C579 1.275 . S
Cd573 O572 2.300 . S
Cd573 O581 2.381 . S
Cd573 O582 2.378 . S
O574 Cd575 2.385 . S
O574 C579 1.255 . S
Cd575 O574 2.385 . S
Cd575 O576 2.317 . S
O576 Cd575 2.317 . S
O576 C577 1.232 . S
C577 O576 1.232 . S
C577 O578 1.218 . S
O578 C577 1.218 . S
C579 O572 1.275 . S
C579 O574 1.255 . S
C580 O581 1.258 . S
C580 O582 1.256 . S
O581 Cd573 2.381 . S
O581 C580 1.258 . S
O582 Cd573 2.378 . S
O582 C580 1.256 . S
O583 Cd584 2.300 . S
O583 C590 1.275 . S
Cd584 O583 2.300 . S
Cd584 O592 2.381 . S
Cd584 O593 2.378 . S
O585 Cd586 2.385 . S
O585 C590 1.255 . S
Cd586 O585 2.385 . S
Cd586 O587 2.317 . S
O587 Cd586 2.317 . S
O587 C588 1.232 . S
C588 O587 1.232 . S
C588 O589 1.218 . S
O589 C588 1.218 . S
C590 O583 1.275 . S
C590 O585 1.255 . S
C591 O592 1.258 . S
C591 O593 1.256 . S
O592 Cd584 2.381 . S
O592 C591 1.258 . S
O593 Cd584 2.378 . S
O593 C591 1.256 . S
O594 Cd595 2.300 . S
O594 C601 1.275 . S
Cd595 O594 2.300 . S
Cd595 O603 2.381 . S
Cd595 O604 2.378 . S
O596 Cd597 2.385 . S
O596 C601 1.255 . S
Cd597 O596 2.385 . S
Cd597 O598 2.317 . S
O598 Cd597 2.317 . S
O598 C599 1.232 . S
C599 O598 1.232 . S
C599 O600 1.218 . S
O600 C599 1.218 . S
C601 O594 1.275 . S
C601 O596 1.255 . S
C602 O603 1.258 . S
C602 O604 1.256 . S
O603 Cd595 2.381 . S
O603 C602 1.258 . S
O604 Cd595 2.378 . S
O604 C602 1.256 . S
O605 Cd606 2.300 . S
O605 C612 1.275 . S
Cd606 O605 2.300 . S
Cd606 O614 2.381 . S
Cd606 O615 2.378 . S
O607 Cd608 2.385 . S
O607 C612 1.255 . S
Cd608 O607 2.385 . S
Cd608 O609 2.317 . S
O609 Cd608 2.317 . S
O609 C610 1.232 . S
C610 O609 1.232 . S
C610 O611 1.218 . S
O611 C610 1.218 . S
C612 O605 1.275 . S
C612 O607 1.255 . S
C613 O614 1.258 . S
C613 O615 1.256 . S
O614 Cd606 2.381 . S
O614 C613 1.258 . S
O615 Cd606 2.378 . S
O615 C613 1.256 . S
O616 Cd617 2.300 . S
O616 C623 1.275 . S
Cd617 O616 2.300 . S
Cd617 O625 2.381 . S
Cd617 O626 2.378 . S
O618 Cd619 2.385 . S
O618 C623 1.255 . S
Cd619 O618 2.385 . S
Cd619 O620 2.317 . S
O620 Cd619 2.317 . S
O620 C621 1.232 . S
C621 O620 1.232 . S
C621 O622 1.218 . S
O622 C621 1.218 . S
C623 O616 1.275 . S
C623 O618 1.255 . S
C624 O625 1.258 . S
C624 O626 1.256 . S
O625 Cd617 2.381 . S
O625 C624 1.258 . S
O626 Cd617 2.378 . S
O626 C624 1.256 . S
O627 Cd628 2.300 . S
O627 C634 1.275 . S
Cd628 O627 2.300 . S
Cd628 O636 2.381 . S
Cd628 O637 2.378 . S
O629 Cd630 2.385 . S
O629 C634 1.255 . S
Cd630 O629 2.385 . S
Cd630 O631 2.317 . S
O631 Cd630 2.317 . S
O631 C632 1.232 . S
C632 O631 1.232 . S
C632 O633 1.218 . S
O633 C632 1.218 . S
C634 O627 1.275 . S
C634 O629 1.255 . S
C635 O636 1.258 . S
C635 O637 1.256 . S
O636 Cd628 2.381 . S
O636 C635 1.258 . S
O637 Cd628 2.378 . S
O637 C635 1.256 . S
O638 Cd639 2.300 . S
O638 C645 1.275 . S
Cd639 O638 2.300 . S
Cd639 O647 2.381 . S
Cd639 O648 2.378 . S
O640 Cd641 2.385 . S
O640 C645 1.255 . S
Cd641 O640 2.385 . S
Cd641 O642 2.317 . S
O642 Cd641 2.317 . S
O642 C643 1.232 . S
C643 O642 1.232 . S
C643 O644 1.218 . S
O644 C643 1.218 . S
C645 O638 1.275 . S
C645 O640 1.255 . S
C646 O647 1.258 . S
C646 O648 1.256 . S
O647 Cd639 2.381 . S
O647 C646 1.258 . S
O648 Cd639 2.378 . S
O648 C646 1.256 . S
O649 Cd650 2.300 . S
O649 C656 1.275 . S
Cd650 O649 2.300 . S
Cd650 O658 2.381 . S
Cd650 O659 2.378 . S
O651 Cd652 2.385 . S
O651 C656 1.255 . S
Cd652 O651 2.385 . S
Cd652 O653 2.317 . S
O653 Cd652 2.317 . S
O653 C654 1.232 . S
C654 O653 1.232 . S
C654 O655 1.218 . S
O655 C654 1.218 . S
C656 O649 1.275 . S
C656 O651 1.255 . S
C657 O658 1.258 . S
C657 O659 1.256 . S
O658 Cd650 2.381 . S
O658 C657 1.258 . S
O659 Cd650 2.378 . S
O659 C657 1.256 . S
O660 Cd661 2.300 . S
O660 C667 1.275 . S
Cd661 O660 2.300 . S
Cd661 O669 2.381 . S
Cd661 O670 2.378 . S
O662 Cd663 2.385 . S
O662 C667 1.255 . S
Cd663 O662 2.385 . S
Cd663 O664 2.317 . S
O664 Cd663 2.317 . S
O664 C665 1.232 . S
C665 O664 1.232 . S
C665 O666 1.218 . S
O666 C665 1.218 . S
C667 O660 1.275 . S
C667 O662 1.255 . S
C668 O669 1.258 . S
C668 O670 1.256 . S
O669 Cd661 2.381 . S
O669 C668 1.258 . S
O670 Cd661 2.378 . S
O670 C668 1.256 . S
O671 Cd672 2.300 . S
O671 C678 1.275 . S
Cd672 O671 2.300 . S
Cd672 O680 2.381 . S
Cd672 O681 2.378 . S
O673 Cd674 2.385 . S
O673 C678 1.255 . S
Cd674 O673 2.385 . S
Cd674 O675 2.317 . S
O675 Cd674 2.317 . S
O675 C676 1.232 . S
C676 O675 1.232 . S
C676 O677 1.218 . S
O677 C676 1.218 . S
C678 O671 1.275 . S
C678 O673 1.255 . S
C679 O680 1.258 . S
C679 O681 1.256 . S
O680 Cd672 2.381 . S
O680 C679 1.258 . S
O681 Cd672 2.378 . S
O681 C679 1.256 . S
O682 Cd683 2.300 . S
O682 C689 1.275 . S
Cd683 O682 2.300 . S
Cd683 O691 2.381 . S
Cd683 O692 2.378 . S
O684 Cd685 2.385 . S
O684 C689 1.255 . S
Cd685 O684 2.385 . S
Cd685 O686 2.317 . S
O686 Cd685 2.317 . S
O686 C687 1.232 . S
C687 O686 1.232 . S
C687 O688 1.218 . S
O688 C687 1.218 . S
C689 O682 1.275 . S
C689 O684 1.255 . S
C690 O691 1.258 . S
C690 O692 1.256 . S
O691 Cd683 2.381 . S
O691 C690 1.258 . S
O692 Cd683 2.378 . S
O692 C690 1.256 . S
O693 Cd694 2.300 . S
O693 C700 1.275 . S
Cd694 O693 2.300 . S
Cd694 O702 2.381 . S
Cd694 O703 2.378 . S
O695 Cd696 2.385 . S
O695 C700 1.255 . S
Cd696 O695 2.385 . S
Cd696 O697 2.317 . S
O697 Cd696 2.317 . S
O697 C698 1.232 . S
C698 O697 1.232 . S
C698 O699 1.218 . S
O699 C698 1.218 . S
C700 O693 1.275 . S
C700 O695 1.255 . S
C701 O702 1.258 . S
C701 O703 1.256 . S
O702 Cd694 2.381 . S
O702 C701 1.258 . S
O703 Cd694 2.378 . S
O703 C701 1.256 . S
O704 Cd705 2.300 . S
O704 C711 1.275 . S
Cd705 O704 2.300 . S
Cd705 O713 2.381 . S
Cd705 O714 2.378 . S
O706 Cd707 2.385 . S
O706 C711 1.255 . S
Cd707 O706 2.385 . S
Cd707 O708 2.317 . S
O708 Cd707 2.317 . S
O708 C709 1.232 . S
C709 O708 1.232 . S
C709 O710 1.218 . S
O710 C709 1.218 . S
C711 O704 1.275 . S
C711 O706 1.255 . S
C712 O713 1.258 . S
C712 O714 1.256 . S
O713 Cd705 2.381 . S
O713 C712 1.258 . S
O714 Cd705 2.378 . S
O714 C712 1.256 . S
O715 Cd716 2.300 . S
O715 C722 1.275 . S
Cd716 O715 2.300 . S
Cd716 O724 2.381 . S
Cd716 O725 2.378 . S
O717 Cd718 2.385 . S
O717 C722 1.255 . S
Cd718 O717 2.385 . S
Cd718 O719 2.317 . S
O719 Cd718 2.317 . S
O719 C720 1.232 . S
C720 O719 1.232 . S
C720 O721 1.218 . S
O721 C720 1.218 . S
C722 O715 1.275 . S
C722 O717 1.255 . S
C723 O724 1.258 . S
C723 O725 1.256 . S
O724 Cd716 2.381 . S
O724 C723 1.258 . S
O725 Cd716 2.378 . S
O725 C723 1.256 . S
O726 Cd727 2.300 . S
O726 C733 1.275 . S
Cd727 O726 2.300 . S
Cd727 O735 2.381 . S
Cd727 O736 2.378 . S
O728 Cd729 2.385 . S
O728 C733 1.255 . S
Cd729 O728 2.385 . S
Cd729 O730 2.317 . S
O730 Cd729 2.317 . S
O730 C731 1.232 . S
C731 O730 1.232 . S
C731 O732 1.218 . S
O732 C731 1.218 . S
C733 O726 1.275 . S
C733 O728 1.255 . S
C734 O735 1.258 . S
C734 O736 1.256 . S
O735 Cd727 2.381 . S
O735 C734 1.258 . S
O736 Cd727 2.378 . S
O736 C734 1.256 . S
O737 Cd738 2.300 . S
O737 C744 1.275 . S
Cd738 O737 2.300 . S
Cd738 O746 2.381 . S
Cd738 O747 2.378 . S
O739 Cd740 2.385 . S
O739 C744 1.255 . S
Cd740 O739 2.385 . S
Cd740 O741 2.317 . S
O741 Cd740 2.317 . S
O741 C742 1.232 . S
C742 O741 1.232 . S
C742 O743 1.218 . S
O743 C742 1.218 . S
C744 O737 1.275 . S
C744 O739 1.255 . S
C745 O746 1.258 . S
C745 O747 1.256 . S
O746 Cd738 2.381 . S
O746 C745 1.258 . S
O747 Cd738 2.378 . S
O747 C745 1.256 . S
O748 Cd749 2.300 . S
O748 C755 1.275 . S
Cd749 O748 2.300 . S
Cd749 O757 2.381 . S
Cd749 O758 2.378 . S
O750 Cd751 2.385 . S
O750 C755 1.255 . S
Cd751 O750 2.385 . S
Cd751 O752 2.317 . S
O752 Cd751 2.317 . S
O752 C753 1.232 . S
C753 O752 1.232 . S
C753 O754 1.218 . S
O754 C753 1.218 . S
C755 O748 1.275 . S
C755 O750 1.255 . S
C756 O757 1.258 . S
C756 O758 1.256 . S
O757 Cd749 2.381 . S
O757 C756 1.258 . S
O758 Cd749 2.378 . S
O758 C756 1.256 . S
O759 Cd760 2.300 . S
O759 C766 1.275 . S
Cd760 O759 2.300 . S
Cd760 O768 2.381 . S
Cd760 O769 2.378 . S
O761 Cd762 2.385 . S
O761 C766 1.255 . S
Cd762 O761 2.385 . S
Cd762 O763 2.317 . S
O763 Cd762 2.317 . S
O763 C764 1.232 . S
C764 O763 1.232 . S
C764 O765 1.218 . S
O765 C764 1.218 . S
C766 O759 1.275 . S
C766 O761 1.255 . S
C767 O768 1.258 . S
C767 O769 1.256 . S
O768 Cd760 2.381 . S
O768 C767 1.258 . S
O769 Cd760 2.378 . S
O769 C767 1.256 . S
O770 Cd771 2.300 . S
O770 C777 1.275 . S
Cd771 O770 2.300 . S
Cd771 O779 2.381 . S
Cd771 O780 2.378 . S
O772 Cd773 2.385 . S
O772 C777 1.255 . S
Cd773 O772 2.385 . S
Cd773 O774 2.317 . S
O774 Cd773 2.317 . S
O774 C775 1.232 . S
C775 O774 1.232 . S
C775 O776 1.218 . S
O776 C775 1.218 . S
C777 O770 1.275 . S
C777 O772 1.255 . S
C778 O779 1.258 . S
C778 O780 1.256 . S
O779 Cd771 2.381 . S
O779 C778 1.258 . S
O780 Cd771 2.378 . S
O780 C778 1.256 . S
O781 Cd782 2.300 . S
O781 C788 1.275 . S
Cd782 O781 2.300 . S
Cd782 O790 2.381 . S
Cd782 O791 2.378 . S
O783 Cd784 2.385 . S
O783 C788 1.255 . S
Cd784 O783 2.385 . S
Cd784 O785 2.317 . S
O785 Cd784 2.317 . S
O785 C786 1.232 . S
C786 O785 1.232 . S
C786 O787 1.218 . S
O787 C786 1.218 . S
C788 O781 1.275 . S
C788 O783 1.255 . S
C789 O790 1.258 . S
C789 O791 1.256 . S
O790 Cd782 2.381 . S
O790 C789 1.258 . S
O791 Cd782 2.378 . S
O791 C789 1.256 . S
O792 Cd793 2.300 . S
O792 C799 1.275 . S
Cd793 O792 2.300 . S
Cd793 O801 2.381 . S
Cd793 O802 2.378 . S
O794 Cd795 2.385 . S
O794 C799 1.255 . S
Cd795 O794 2.385 . S
Cd795 O796 2.317 . S
O796 Cd795 2.317 . S
O796 C797 1.232 . S
C797 O796 1.232 . S
C797 O798 1.218 . S
O798 C797 1.218 . S
C799 O792 1.275 . S
C799 O794 1.255 . S
C800 O801 1.258 . S
C800 O802 1.256 . S
O801 Cd793 2.381 . S
O801 C800 1.258 . S
O802 Cd793 2.378 . S
O802 C800 1.256 . S
O803 Cd804 2.300 . S
O803 C810 1.275 . S
Cd804 O803 2.300 . S
Cd804 O812 2.381 . S
Cd804 O813 2.378 . S
O805 Cd806 2.385 . S
O805 C810 1.255 . S
Cd806 O805 2.385 . S
Cd806 O807 2.317 . S
O807 Cd806 2.317 . S
O807 C808 1.232 . S
C808 O807 1.232 . S
C808 O809 1.218 . S
O809 C808 1.218 . S
C810 O803 1.275 . S
C810 O805 1.255 . S
C811 O812 1.258 . S
C811 O813 1.256 . S
O812 Cd804 2.381 . S
O812 C811 1.258 . S
O813 Cd804 2.378 . S
O813 C811 1.256 . S
O814 Cd815 2.300 . S
O814 C821 1.275 . S
Cd815 O814 2.300 . S
Cd815 O823 2.381 . S
Cd815 O824 2.378 . S
O816 Cd817 2.385 . S
O816 C821 1.255 . S
Cd817 O816 2.385 . S
Cd817 O818 2.317 . S
O818 Cd817 2.317 . S
O818 C819 1.232 . S
C819 O818 1.232 . S
C819 O820 1.218 . S
O820 C819 1.218 . S
C821 O814 1.275 . S
C821 O816 1.255 . S
C822 O823 1.258 . S
C822 O824 1.256 . S
O823 Cd815 2.381 . S
O823 C822 1.258 . S
O824 Cd815 2.378 . S
O824 C822 1.256 . S
O825 Cd826 2.300 . S
O825 C832 1.275 . S
Cd826 O825 2.300 . S
Cd826 O834 2.381 . S
Cd826 O835 2.378 . S
O827 Cd828 2.385 . S
O827 C832 1.255 . S
Cd828 O827 2.385 . S
Cd828 O829 2.317 . S
O829 Cd828 2.317 . S
O829 C830 1.232 . S
C830 O829 1.232 . S
C830 O831 1.218 . S
O831 C830 1.218 . S
C832 O825 1.275 . S
C832 O827 1.255 . S
C833 O834 1.258 . S
C833 O835 1.256 . S
O834 Cd826 2.381 . S
O834 C833 1.258 . S
O835 Cd826 2.378 . S
O835 C833 1.256 . S
O836 Cd837 2.300 . S
O836 C843 1.275 . S
Cd837 O836 2.300 . S
Cd837 O845 2.381 . S
Cd837 O846 2.378 . S
O838 Cd839 2.385 . S
O838 C843 1.255 . S
Cd839 O838 2.385 . S
Cd839 O840 2.317 . S
O840 Cd839 2.317 . S
O840 C841 1.232 . S
C841 O840 1.232 . S
C841 O842 1.218 . S
O842 C841 1.218 . S
C843 O836 1.275 . S
C843 O838 1.255 . S
C844 O845 1.258 . S
C844 O846 1.256 . S
O845 Cd837 2.381 . S
O845 C844 1.258 . S
O846 Cd837 2.378 . S
O846 C844 1.256 . S
O847 Cd848 2.300 . S
O847 C854 1.275 . S
Cd848 O847 2.300 . S
Cd848 O856 2.381 . S
Cd848 O857 2.378 . S
O849 Cd850 2.385 . S
O849 C854 1.255 . S
Cd850 O849 2.385 . S
Cd850 O851 2.317 . S
O851 Cd850 2.317 . S
O851 C852 1.232 . S
C852 O851 1.232 . S
C852 O853 1.218 . S
O853 C852 1.218 . S
C854 O847 1.275 . S
C854 O849 1.255 . S
C855 O856 1.258 . S
C855 O857 1.256 . S
O856 Cd848 2.381 . S
O856 C855 1.258 . S
O857 Cd848 2.378 . S
O857 C855 1.256 . S
O858 Cd859 2.300 . S
O858 C865 1.275 . S
Cd859 O858 2.300 . S
Cd859 O867 2.381 . S
Cd859 O868 2.378 . S
O860 Cd861 2.385 . S
O860 C865 1.255 . S
Cd861 O860 2.385 . S
Cd861 O862 2.317 . S
O862 Cd861 2.317 . S
O862 C863 1.232 . S
C863 O862 1.232 . S
C863 O864 1.218 . S
O864 C863 1.218 . S
C865 O858 1.275 . S
C865 O860 1.255 . S
C866 O867 1.258 . S
C866 O868 1.256 . S
O867 Cd859 2.381 . S
O867 C866 1.258 . S
O868 Cd859 2.378 . S
O868 C866 1.256 . S
O869 Cd870 2.300 . S
O869 C876 1.275 . S
Cd870 O869 2.300 . S
Cd870 O878 2.381 . S
Cd870 O879 2.378 . S
O871 Cd872 2.385 . S
O871 C876 1.255 . S
Cd872 O871 2.385 . S
Cd872 O873 2.317 . S
O873 Cd872 2.317 . S
O873 C874 1.232 . S
C874 O873 1.232 . S
C874 O875 1.218 . S
O875 C874 1.218 . S
C876 O869 1.275 . S
C876 O871 1.255 . S
C877 O878 1.258 . S
C877 O879 1.256 . S
O878 Cd870 2.381 . S
O878 C877 1.258 . S
O879 Cd870 2.378 . S
O879 C877 1.256 . S
O880 Cd881 2.300 . S
O880 C887 1.275 . S
Cd881 O880 2.300 . S
Cd881 O889 2.381 . S
Cd881 O890 2.378 . S
O882 Cd883 2.385 . S
O882 C887 1.255 . S
Cd883 O882 2.385 . S
Cd883 O884 2.317 . S
O884 Cd883 2.317 . S
O884 C885 1.232 . S
C885 O884 1.232 . S
C885 O886 1.218 . S
O886 C885 1.218 . S
C887 O880 1.275 . S
C887 O882 1.255 . S
C888 O889 1.258 . S
C888 O890 1.256 . S
O889 Cd881 2.381 . S
O889 C888 1.258 . S
O890 Cd881 2.378 . S
O890 C888 1.256 . S
O891 Cd892 2.300 . S
O891 C898 1.275 . S
Cd892 O891 2.300 . S
Cd892 O900 2.381 . S
Cd892 O901 2.378 . S
O893 Cd894 2.385 . S
O893 C898 1.255 . S
Cd894 O893 2.385 . S
Cd894 O895 2.317 . S
O895 Cd894 2.317 . S
O895 C896 1.232 . S
C896 O895 1.232 . S
C896 O897 1.218 . S
O897 C896 1.218 . S
C898 O891 1.275 . S
C898 O893 1.255 . S
C899 O900 1.258 . S
C899 O901 1.256 . S
O900 Cd892 2.381 . S
O900 C899 1.258 . S
O901 Cd892 2.378 . S
O901 C899 1.256 . S
O902 Cd903 2.300 . S
O902 C909 1.275 . S
Cd903 O902 2.300 . S
Cd903 O911 2.381 . S
Cd903 O912 2.378 . S
O904 Cd905 2.385 . S
O904 C909 1.255 . S
Cd905 O904 2.385 . S
Cd905 O906 2.317 . S
O906 Cd905 2.317 . S
O906 C907 1.232 . S
C907 O906 1.232 . S
C907 O908 1.218 . S
O908 C907 1.218 . S
C909 O902 1.275 . S
C909 O904 1.255 . S
C910 O911 1.258 . S
C910 O912 1.256 . S
O911 Cd903 2.381 . S
O911 C910 1.258 . S
O912 Cd903 2.378 . S
O912 C910 1.256 . S
O913 Cd914 2.300 . S
O913 C920 1.275 . S
Cd914 O913 2.300 . S
Cd914 O922 2.381 . S
Cd914 O923 2.378 . S
O915 Cd916 2.385 . S
O915 C920 1.255 . S
Cd916 O915 2.385 . S
Cd916 O917 2.317 . S
O917 Cd916 2.317 . S
O917 C918 1.232 . S
C918 O917 1.232 . S
C918 O919 1.218 . S
O919 C918 1.218 . S
C920 O913 1.275 . S
C920 O915 1.255 . S
C921 O922 1.258 . S
C921 O923 1.256 . S
O922 Cd914 2.381 . S
O922 C921 1.258 . S
O923 Cd914 2.378 . S
O923 C921 1.256 . S
O924 Cd925 2.300 . S
O924 C931 1.275 . S
Cd925 O924 2.300 . S
Cd925 O933 2.381 . S
Cd925 O934 2.378 . S
O926 Cd927 2.385 . S
O926 C931 1.255 . S
Cd927 O926 2.385 . S
Cd927 O928 2.317 . S
O928 Cd927 2.317 . S
O928 C929 1.232 . S
C929 O928 1.232 . S
C929 O930 1.218 . S
O930 C929 1.218 . S
C931 O924 1.275 . S
C931 O926 1.255 . S
C932 O933 1.258 . S
C932 O934 1.256 . S
O933 Cd925 2.381 . S
O933 C932 1.258 . S
O934 Cd925 2.378 . S
O934 C932 1.256 . S
O935 Cd936 2.300 . S
O935 C942 1.275 . S
Cd936 O935 2.300 . S
Cd936 O944 2.381 . S
Cd936 O945 2.378 . S
O937 Cd938 2.385 . S
O937 C942 1.255 . S
Cd938 O937 2.385 . S
Cd938 O939 2.317 . S
O939 Cd938 2.317 . S
O939 C940 1.232 . S
C940 O939 1.232 . S
C940 O941 1.218 . S
O941 C940 1.218 . S
C942 O935 1.275 . S
C942 O937 1.255 . S
C943 O944 1.258 . S
C943 O945 1.256 . S
O944 Cd936 2.381 . S
O944 C943 1.258 . S
O945 Cd936 2.378 . S
O945 C943 1.256 . S
O946 Cd947 2.300 . S
O946 C953 1.275 . S
Cd947 O946 2.300 . S
Cd947 O955 2.381 . S
Cd947 O956 2.378 . S
O948 Cd949 2.385 . S
O948 C953 1.255 . S
Cd949 O948 2.385 . S
Cd949 O950 2.317 . S
O950 Cd949 2.317 . S
O950 C951 1.232 . S
C951 O950 1.232 . S
C951 O952 1.218 . S
O952 C951 1.218 . S
C953 O946 1.275 . S
C953 O948 1.255 . S
C954 O955 1.258 . S
C954 O956 1.256 . S
O955 Cd947 2.381 . S
O955 C954 1.258 . S
O956 Cd947 2.378 . S
O956 C954 1.256 . S
O957 Cd958 2.300 . S
O957 C964 1.275 . S
Cd958 O957 2.300 . S
Cd958 O966 2.381 . S
Cd958 O967 2.378 . S
O959 Cd960 2.385 . S
O959 C964 1.255 . S
Cd960 O959 2.385 . S
Cd960 O961 2.317 . S
O961 Cd960 2.317 . S
O961 C962 1.232 . S
C962 O961 1.232 . S
C962 O963 1.218 . S
O963 C962 1.218 . S
C964 O957 1.275 . S
C964 O959 1.255 . S
C965 O966 1.258 . S
C965 O967 1.256 . S
O966 Cd958 2.381 . S
O966 C965 1.258 . S
O967 Cd958 2.378 . S
O967 C965 1.256 . S
O968 Cd969 2.300 . S
O968 C975 1.275 . S
Cd969 O968 2.300 . S
Cd969 O977 2.381 . S
Cd969 O978 2.378 . S
O970 Cd971 2.385 . S
O970 C975 1.255 . S
Cd971 O970 2.385 . S
Cd971 O972 2.317 . S
O972 Cd971 2.317 . S
O972 C973 1.232 . S
C973 O972 1.232 . S
C973 O974 1.218 . S
O974 C973 1.218 . S
C975 O968 1.275 . S
C975 O970 1.255 . S
C976 O977 1.258 . S
C976 O978 1.256 . S
O977 Cd969 2.381 . S
O977 C976 1.258 . S
O978 Cd969 2.378 . S
O978 C976 1.256 . S
O979 Cd980 2.300 . S
O979 C986 1.275 . S
Cd980 O979 2.300 . S
Cd980 O988 2.381 . S
Cd980 O989 2.378 . S
O981 Cd982 2.385 . S
O981 C986 1.255 . S
Cd982 O981 2.385 . S
Cd982 O983 2.317 . S
O983 Cd982 2.317 . S
O983 C984 1.232 . S
C984 O983 1.232 . S
C984 O985 1.218 . S
O985 C984 1.218 . S
C986 O979 1.275 . S
C986 O981 1.255 . S
C987 O988 1.258 . S
C987 O989 1.256 . S
O988 Cd980 2.381 . S
O988 C987 1.258 . S
O989 Cd980 2.378 . S
O989 C987 1.256 . S
O990 Cd991 2.300 . S
O990 C997 1.275 . S
Cd991 O990 2.300 . S
Cd991 O999 2.381 . S
Cd991 O1000 2.378 . S
O992 Cd993 2.385 . S
O992 C997 1.255 . S
Cd993 O992 2.385 . S
Cd993 O994 2.317 . S
O994 Cd993 2.317 . S
O994 C995 1.232 . S
C995 O994 1.232 . S
C995 O996 1.218 . S
O996 C995 1.218 . S
C997 O990 1.275 . S
C997 O992 1.255 . S
C998 O999 1.258 . S
C998 O1000 1.256 . S
O999 Cd991 2.381 . S
O999 C998 1.258 . S
O1000 Cd991 2.378 . S
O1000 C998 1.256 . S
O1001 Cd1002 2.300 . S
O1001 C1008 1.275 . S
Cd1002 O1001 2.300 . S
Cd1002 O1010 2.381 . S
Cd1002 O1011 2.378 . S
O1003 Cd1004 2.385 . S
O1003 C1008 1.255 . S
Cd1004 O1003 2.385 . S
Cd1004 O1005 2.317 . S
O1005 Cd1004 2.317 . S
O1005 C1006 1.232 . S
C1006 O1005 1.232 . S
C1006 O1007 1.218 . S
O1007 C1006 1.218 . S
C1008 O1001 1.275 . S
C1008 O1003 1.255 . S
C1009 O1010 1.258 . S
C1009 O1011 1.256 . S
O1010 Cd1002 2.381 . S
O1010 C1009 1.258 . S
O1011 Cd1002 2.378 . S
O1011 C1009 1.256 . S
O1012 Cd1013 2.300 . S
O1012 C1019 1.275 . S
Cd1013 O1012 2.300 . S
Cd1013 O1021 2.381 . S
Cd1013 O1022 2.378 . S
O1014 Cd1015 2.385 . S
O1014 C1019 1.255 . S
Cd1015 O1014 2.385 . S
Cd1015 O1016 2.317 . S
O1016 Cd1015 2.317 . S
O1016 C1017 1.232 . S
C1017 O1016 1.232 . S
C1017 O1018 1.218 . S
O1018 C1017 1.218 . S
C1019 O1012 1.275 . S
C1019 O1014 1.255 . S
C1020 O1021 1.258 . S
C1020 O1022 1.256 . S
O1021 Cd1013 2.381 . S
O1021 C1020 1.258 . S
O1022 Cd1013 2.378 . S
O1022 C1020 1.256 . S
O1023 Cd1024 2.300 . S
O1023 C1030 1.275 . S
Cd1024 O1023 2.300 . S
Cd1024 O1032 2.381 . S
Cd1024 O1033 2.378 . S
O1025 Cd1026 2.385 . S
O1025 C1030 1.255 . S
Cd1026 O1025 2.385 . S
Cd1026 O1027 2.317 . S
O1027 Cd1026 2.317 . S
O1027 C1028 1.232 . S
C1028 O1027 1.232 . S
C1028 O1029 1.218 . S
O1029 C1028 1.218 . S
C1030 O1023 1.275 . S
C1030 O1025 1.255 . S
C1031 O1032 1.258 . S
C1031 O1033 1.256 . S
O1032 Cd1024 2.381 . S
O1032 C1031 1.258 . S
O1033 Cd1024 2.378 . S
O1033 C1031 1.256 . S
O1034 Cd1035 2.300 . S
O1034 C1041 1.275 . S
Cd1035 O1034 2.300 . S
Cd1035 O1043 2.381 . S
Cd1035 O1044 2.378 . S
O1036 Cd1037 2.385 . S
O1036 C1041 1.255 . S
Cd1037 O1036 2.385 . S
Cd1037 O1038 2.317 . S
O1038 Cd1037 2.317 . S
O1038 C1039 1.232 . S
C1039 O1038 1.232 . S
C1039 O1040 1.218 . S
O1040 C1039 1.218 . S
C1041 O1034 1.275 . S
C1041 O1036 1.255 . S
C1042 O1043 1.258 . S
C1042 O1044 1.256 . S
O1043 Cd1035 2.381 . S
O1043 C1042 1.258 . S
O1044 Cd1035 2.378 . S
O1044 C1042 1.256 . S
O1045 Cd1046 2.300 . S
O1045 C1052 1.275 . S
Cd1046 O1045 2.300 . S
Cd1046 O1054 2.381 . S
Cd1046 O1055 2.378 . S
O1047 Cd1048 2.385 . S
O1047 C1052 1.255 . S
Cd1048 O1047 2.385 . S
Cd1048 O1049 2.317 . S
O1049 Cd1048 2.317 . S
O1049 C1050 1.232 . S
C1050 O1049 1.232 . S
C1050 O1051 1.218 . S
O1051 C1050 1.218 . S
C1052 O1045 1.275 . S
C1052 O1047 1.255 . S
C1053 O1054 1.258 . S
C1053 O1055 1.256 . S
O1054 Cd1046 2.381 . S
O1054 C1053 1.258 . S
O1055 Cd1046 2.378 . S
O1055 C1053 1.256 . S
C1056 C1057 1.369 . S
C1056 C1058 1.419 . S
C1056 H1060 0.930 . S
C1057 C1056 1.369 . S
C1057 C1066 1.429 . S
C1058 C1056 1.419 . S
C1058 C1059 1.363 . S
C1058 H1061 0.929 . S
C1059 C1058 1.363 . S
C1059 C1065 1.428 . S
H1060 C1056 0.930 . S
H1061 C1058 0.929 . S
S1062 N1063 1.613 . S
S1062 N1064 1.610 . S
N1063 S1062 1.613 . S
N1063 C1066 1.350 . S
N1064 S1062 1.610 . S
N1064 C1065 1.351 . S
C1065 C1059 1.428 . S
C1065 N1064 1.351 . S
C1065 C1066 1.434 . S
C1066 C1057 1.429 . S
C1066 N1063 1.350 . S
C1066 C1065 1.434 . S
C1067 C1068 1.369 . S
C1067 C1069 1.419 . S
C1067 H1071 0.930 . S
C1068 C1067 1.369 . S
C1068 C1077 1.429 . S
C1069 C1067 1.419 . S
C1069 C1070 1.363 . S
C1069 H1072 0.929 . S
C1070 C1069 1.363 . S
C1070 C1076 1.428 . S
H1071 C1067 0.930 . S
H1072 C1069 0.929 . S
S1073 N1074 1.613 . S
S1073 N1075 1.610 . S
N1074 S1073 1.613 . S
N1074 C1077 1.350 . S
N1075 S1073 1.610 . S
N1075 C1076 1.351 . S
C1076 C1070 1.428 . S
C1076 N1075 1.351 . S
C1076 C1077 1.434 . S
C1077 C1068 1.429 . S
C1077 N1074 1.350 . S
C1077 C1076 1.434 . S
C1078 C1079 1.369 . S
C1078 C1080 1.419 . S
C1078 H1082 0.930 . S
C1079 C1078 1.369 . S
C1079 C1088 1.429 . S
C1080 C1078 1.419 . S
C1080 C1081 1.363 . S
C1080 H1083 0.929 . S
C1081 C1080 1.363 . S
C1081 C1087 1.428 . S
H1082 C1078 0.930 . S
H1083 C1080 0.929 . S
S1084 N1085 1.613 . S
S1084 N1086 1.610 . S
N1085 S1084 1.613 . S
N1085 C1088 1.350 . S
N1086 S1084 1.610 . S
N1086 C1087 1.351 . S
C1087 C1081 1.428 . S
C1087 N1086 1.351 . S
C1087 C1088 1.434 . S
C1088 C1079 1.429 . S
C1088 N1085 1.350 . S
C1088 C1087 1.434 . S
C1089 C1090 1.369 . S
C1089 C1091 1.419 . S
C1089 H1093 0.930 . S
C1090 C1089 1.369 . S
C1090 C1099 1.429 . S
C1091 C1089 1.419 . S
C1091 C1092 1.363 . S
C1091 H1094 0.929 . S
C1092 C1091 1.363 . S
C1092 C1098 1.428 . S
H1093 C1089 0.930 . S
H1094 C1091 0.929 . S
S1095 N1096 1.613 . S
S1095 N1097 1.610 . S
N1096 S1095 1.613 . S
N1096 C1099 1.350 . S
N1097 S1095 1.610 . S
N1097 C1098 1.351 . S
C1098 C1092 1.428 . S
C1098 N1097 1.351 . S
C1098 C1099 1.434 . S
C1099 C1090 1.429 . S
C1099 N1096 1.350 . S
C1099 C1098 1.434 . S
C1100 C1101 1.369 . S
C1100 C1102 1.419 . S
C1100 H1104 0.930 . S
C1101 C1100 1.369 . S
C1101 C1110 1.429 . S
C1102 C1100 1.419 . S
C1102 C1103 1.363 . S
C1102 H1105 0.929 . S
C1103 C1102 1.363 . S
C1103 C1109 1.428 . S
H1104 C1100 0.930 . S
H1105 C1102 0.929 . S
S1106 N1107 1.613 . S
S1106 N1108 1.610 . S
N1107 S1106 1.613 . S
N1107 C1110 1.350 . S
N1108 S1106 1.610 . S
N1108 C1109 1.351 . S
C1109 C1103 1.428 . S
C1109 N1108 1.351 . S
C1109 C1110 1.434 . S
C1110 C1101 1.429 . S
C1110 N1107 1.350 . S
C1110 C1109 1.434 . S
C1111 C1112 1.369 . S
C1111 C1113 1.419 . S
C1111 H1115 0.930 . S
C1112 C1111 1.369 . S
C1112 C1121 1.429 . S
C1113 C1111 1.419 . S
C1113 C1114 1.363 . S
C1113 H1116 0.929 . S
C1114 C1113 1.363 . S
C1114 C1120 1.428 . S
H1115 C1111 0.930 . S
H1116 C1113 0.929 . S
S1117 N1118 1.613 . S
S1117 N1119 1.610 . S
N1118 S1117 1.613 . S
N1118 C1121 1.350 . S
N1119 S1117 1.610 . S
N1119 C1120 1.351 . S
C1120 C1114 1.428 . S
C1120 N1119 1.351 . S
C1120 C1121 1.434 . S
C1121 C1112 1.429 . S
C1121 N1118 1.350 . S
C1121 C1120 1.434 . S
C1122 C1123 1.369 . S
C1122 C1124 1.419 . S
C1122 H1126 0.930 . S
C1123 C1122 1.369 . S
C1123 C1132 1.429 . S
C1124 C1122 1.419 . S
C1124 C1125 1.363 . S
C1124 H1127 0.929 . S
C1125 C1124 1.363 . S
C1125 C1131 1.428 . S
H1126 C1122 0.930 . S
H1127 C1124 0.929 . S
S1128 N1129 1.613 . S
S1128 N1130 1.610 . S
N1129 S1128 1.613 . S
N1129 C1132 1.350 . S
N1130 S1128 1.610 . S
N1130 C1131 1.351 . S
C1131 C1125 1.428 . S
C1131 N1130 1.351 . S
C1131 C1132 1.434 . S
C1132 C1123 1.429 . S
C1132 N1129 1.350 . S
C1132 C1131 1.434 . S
C1133 C1134 1.369 . S
C1133 C1135 1.419 . S
C1133 H1137 0.930 . S
C1134 C1133 1.369 . S
C1134 C1143 1.429 . S
C1135 C1133 1.419 . S
C1135 C1136 1.363 . S
C1135 H1138 0.929 . S
C1136 C1135 1.363 . S
C1136 C1142 1.428 . S
H1137 C1133 0.930 . S
H1138 C1135 0.929 . S
S1139 N1140 1.613 . S
S1139 N1141 1.610 . S
N1140 S1139 1.613 . S
N1140 C1143 1.350 . S
N1141 S1139 1.610 . S
N1141 C1142 1.351 . S
C1142 C1136 1.428 . S
C1142 N1141 1.351 . S
C1142 C1143 1.434 . S
C1143 C1134 1.429 . S
C1143 N1140 1.350 . S
C1143 C1142 1.434 . S
C1144 C1145 1.369 . S
C1144 C1146 1.419 . S
C1144 H1148 0.930 . S
C1145 C1144 1.369 . S
C1145 C1154 1.429 . S
C1146 C1144 1.419 . S
C1146 C1147 1.363 . S
C1146 H1149 0.929 . S
C1147 C1146 1.363 . S
C1147 C1153 1.428 . S
H1148 C1144 0.930 . S
H1149 C1146 0.929 . S
S1150 N1151 1.613 . S
S1150 N1152 1.610 . S
N1151 S1150 1.613 . S
N1151 C1154 1.350 . S
N1152 S1150 1.610 . S
N1152 C1153 1.351 . S
C1153 C1147 1.428 . S
C1153 N1152 1.351 . S
C1153 C1154 1.434 . S
C1154 C1145 1.429 . S
C1154 N1151 1.350 . S
C1154 C1153 1.434 . S
C1155 C1156 1.369 . S
C1155 C1157 1.419 . S
C1155 H1159 0.930 . S
C1156 C1155 1.369 . S
C1156 C1165 1.429 . S
C1157 C1155 1.419 . S
C1157 C1158 1.363 . S
C1157 H1160 0.929 . S
C1158 C1157 1.363 . S
C1158 C1164 1.428 . S
H1159 C1155 0.930 . S
H1160 C1157 0.929 . S
S1161 N1162 1.613 . S
S1161 N1163 1.610 . S
N1162 S1161 1.613 . S
N1162 C1165 1.350 . S
N1163 S1161 1.610 . S
N1163 C1164 1.351 . S
C1164 C1158 1.428 . S
C1164 N1163 1.351 . S
C1164 C1165 1.434 . S
C1165 C1156 1.429 . S
C1165 N1162 1.350 . S
C1165 C1164 1.434 . S
C1166 C1167 1.369 . S
C1166 C1168 1.419 . S
C1166 H1170 0.930 . S
C1167 C1166 1.369 . S
C1167 C1176 1.429 . S
C1168 C1166 1.419 . S
C1168 C1169 1.363 . S
C1168 H1171 0.929 . S
C1169 C1168 1.363 . S
C1169 C1175 1.428 . S
H1170 C1166 0.930 . S
H1171 C1168 0.929 . S
S1172 N1173 1.613 . S
S1172 N1174 1.610 . S
N1173 S1172 1.613 . S
N1173 C1176 1.350 . S
N1174 S1172 1.610 . S
N1174 C1175 1.351 . S
C1175 C1169 1.428 . S
C1175 N1174 1.351 . S
C1175 C1176 1.434 . S
C1176 C1167 1.429 . S
C1176 N1173 1.350 . S
C1176 C1175 1.434 . S
C1177 C1178 1.369 . S
C1177 C1179 1.419 . S
C1177 H1181 0.930 . S
C1178 C1177 1.369 . S
C1178 C1187 1.429 . S
C1179 C1177 1.419 . S
C1179 C1180 1.363 . S
C1179 H1182 0.929 . S
C1180 C1179 1.363 . S
C1180 C1186 1.428 . S
H1181 C1177 0.930 . S
H1182 C1179 0.929 . S
S1183 N1184 1.613 . S
S1183 N1185 1.610 . S
N1184 S1183 1.613 . S
N1184 C1187 1.350 . S
N1185 S1183 1.610 . S
N1185 C1186 1.351 . S
C1186 C1180 1.428 . S
C1186 N1185 1.351 . S
C1186 C1187 1.434 . S
C1187 C1178 1.429 . S
C1187 N1184 1.350 . S
C1187 C1186 1.434 . S
C1188 C1189 1.369 . S
C1188 C1190 1.419 . S
C1188 H1192 0.930 . S
C1189 C1188 1.369 . S
C1189 C1198 1.429 . S
C1190 C1188 1.419 . S
C1190 C1191 1.363 . S
C1190 H1193 0.929 . S
C1191 C1190 1.363 . S
C1191 C1197 1.428 . S
H1192 C1188 0.930 . S
H1193 C1190 0.929 . S
S1194 N1195 1.613 . S
S1194 N1196 1.610 . S
N1195 S1194 1.613 . S
N1195 C1198 1.350 . S
N1196 S1194 1.610 . S
N1196 C1197 1.351 . S
C1197 C1191 1.428 . S
C1197 N1196 1.351 . S
C1197 C1198 1.434 . S
C1198 C1189 1.429 . S
C1198 N1195 1.350 . S
C1198 C1197 1.434 . S
C1199 C1200 1.369 . S
C1199 C1201 1.419 . S
C1199 H1203 0.930 . S
C1200 C1199 1.369 . S
C1200 C1209 1.429 . S
C1201 C1199 1.419 . S
C1201 C1202 1.363 . S
C1201 H1204 0.929 . S
C1202 C1201 1.363 . S
C1202 C1208 1.428 . S
H1203 C1199 0.930 . S
H1204 C1201 0.929 . S
S1205 N1206 1.613 . S
S1205 N1207 1.610 . S
N1206 S1205 1.613 . S
N1206 C1209 1.350 . S
N1207 S1205 1.610 . S
N1207 C1208 1.351 . S
C1208 C1202 1.428 . S
C1208 N1207 1.351 . S
C1208 C1209 1.434 . S
C1209 C1200 1.429 . S
C1209 N1206 1.350 . S
C1209 C1208 1.434 . S
C1210 C1211 1.369 . S
C1210 C1212 1.419 . S
C1210 H1214 0.930 . S
C1211 C1210 1.369 . S
C1211 C1220 1.429 . S
C1212 C1210 1.419 . S
C1212 C1213 1.363 . S
C1212 H1215 0.929 . S
C1213 C1212 1.363 . S
C1213 C1219 1.428 . S
H1214 C1210 0.930 . S
H1215 C1212 0.929 . S
S1216 N1217 1.613 . S
S1216 N1218 1.610 . S
N1217 S1216 1.613 . S
N1217 C1220 1.350 . S
N1218 S1216 1.610 . S
N1218 C1219 1.351 . S
C1219 C1213 1.428 . S
C1219 N1218 1.351 . S
C1219 C1220 1.434 . S
C1220 C1211 1.429 . S
C1220 N1217 1.350 . S
C1220 C1219 1.434 . S
C1221 C1222 1.369 . S
C1221 C1223 1.419 . S
C1221 H1225 0.930 . S
C1222 C1221 1.369 . S
C1222 C1231 1.429 . S
C1223 C1221 1.419 . S
C1223 C1224 1.363 . S
C1223 H1226 0.929 . S
C1224 C1223 1.363 . S
C1224 C1230 1.428 . S
H1225 C1221 0.930 . S
H1226 C1223 0.929 . S
S1227 N1228 1.613 . S
S1227 N1229 1.610 . S
N1228 S1227 1.613 . S
N1228 C1231 1.350 . S
N1229 S1227 1.610 . S
N1229 C1230 1.351 . S
C1230 C1224 1.428 . S
C1230 N1229 1.351 . S
C1230 C1231 1.434 . S
C1231 C1222 1.429 . S
C1231 N1228 1.350 . S
C1231 C1230 1.434 . S
C1232 C1233 1.369 . S
C1232 C1234 1.419 . S
C1232 H1236 0.930 . S
C1233 C1232 1.369 . S
C1233 C1242 1.429 . S
C1234 C1232 1.419 . S
C1234 C1235 1.363 . S
C1234 H1237 0.929 . S
C1235 C1234 1.363 . S
C1235 C1241 1.428 . S
H1236 C1232 0.930 . S
H1237 C1234 0.929 . S
S1238 N1239 1.613 . S
S1238 N1240 1.610 . S
N1239 S1238 1.613 . S
N1239 C1242 1.350 . S
N1240 S1238 1.610 . S
N1240 C1241 1.351 . S
C1241 C1235 1.428 . S
C1241 N1240 1.351 . S
C1241 C1242 1.434 . S
C1242 C1233 1.429 . S
C1242 N1239 1.350 . S
C1242 C1241 1.434 . S
C1243 C1244 1.369 . S
C1243 C1245 1.419 . S
C1243 H1247 0.930 . S
C1244 C1243 1.369 . S
C1244 C1253 1.429 . S
C1245 C1243 1.419 . S
C1245 C1246 1.363 . S
C1245 H1248 0.929 . S
C1246 C1245 1.363 . S
C1246 C1252 1.428 . S
H1247 C1243 0.930 . S
H1248 C1245 0.929 . S
S1249 N1250 1.613 . S
S1249 N1251 1.610 . S
N1250 S1249 1.613 . S
N1250 C1253 1.350 . S
N1251 S1249 1.610 . S
N1251 C1252 1.351 . S
C1252 C1246 1.428 . S
C1252 N1251 1.351 . S
C1252 C1253 1.434 . S
C1253 C1244 1.429 . S
C1253 N1250 1.350 . S
C1253 C1252 1.434 . S
C1254 C1255 1.369 . S
C1254 C1256 1.419 . S
C1254 H1258 0.930 . S
C1255 C1254 1.369 . S
C1255 C1264 1.429 . S
C1256 C1254 1.419 . S
C1256 C1257 1.363 . S
C1256 H1259 0.929 . S
C1257 C1256 1.363 . S
C1257 C1263 1.428 . S
H1258 C1254 0.930 . S
H1259 C1256 0.929 . S
S1260 N1261 1.613 . S
S1260 N1262 1.610 . S
N1261 S1260 1.613 . S
N1261 C1264 1.350 . S
N1262 S1260 1.610 . S
N1262 C1263 1.351 . S
C1263 C1257 1.428 . S
C1263 N1262 1.351 . S
C1263 C1264 1.434 . S
C1264 C1255 1.429 . S
C1264 N1261 1.350 . S
C1264 C1263 1.434 . S
C1265 C1266 1.369 . S
C1265 C1267 1.419 . S
C1265 H1269 0.930 . S
C1266 C1265 1.369 . S
C1266 C1275 1.429 . S
C1267 C1265 1.419 . S
C1267 C1268 1.363 . S
C1267 H1270 0.929 . S
C1268 C1267 1.363 . S
C1268 C1274 1.428 . S
H1269 C1265 0.930 . S
H1270 C1267 0.929 . S
S1271 N1272 1.613 . S
S1271 N1273 1.610 . S
N1272 S1271 1.613 . S
N1272 C1275 1.350 . S
N1273 S1271 1.610 . S
N1273 C1274 1.351 . S
C1274 C1268 1.428 . S
C1274 N1273 1.351 . S
C1274 C1275 1.434 . S
C1275 C1266 1.429 . S
C1275 N1272 1.350 . S
C1275 C1274 1.434 . S
C1276 C1277 1.369 . S
C1276 C1278 1.419 . S
C1276 H1280 0.930 . S
C1277 C1276 1.369 . S
C1277 C1286 1.429 . S
C1278 C1276 1.419 . S
C1278 C1279 1.363 . S
C1278 H1281 0.929 . S
C1279 C1278 1.363 . S
C1279 C1285 1.428 . S
H1280 C1276 0.930 . S
H1281 C1278 0.929 . S
S1282 N1283 1.613 . S
S1282 N1284 1.610 . S
N1283 S1282 1.613 . S
N1283 C1286 1.350 . S
N1284 S1282 1.610 . S
N1284 C1285 1.351 . S
C1285 C1279 1.428 . S
C1285 N1284 1.351 . S
C1285 C1286 1.434 . S
C1286 C1277 1.429 . S
C1286 N1283 1.350 . S
C1286 C1285 1.434 . S
C1287 C1288 1.369 . S
C1287 C1289 1.419 . S
C1287 H1291 0.930 . S
C1288 C1287 1.369 . S
C1288 C1297 1.429 . S
C1289 C1287 1.419 . S
C1289 C1290 1.363 . S
C1289 H1292 0.929 . S
C1290 C1289 1.363 . S
C1290 C1296 1.428 . S
H1291 C1287 0.930 . S
H1292 C1289 0.929 . S
S1293 N1294 1.613 . S
S1293 N1295 1.610 . S
N1294 S1293 1.613 . S
N1294 C1297 1.350 . S
N1295 S1293 1.610 . S
N1295 C1296 1.351 . S
C1296 C1290 1.428 . S
C1296 N1295 1.351 . S
C1296 C1297 1.434 . S
C1297 C1288 1.429 . S
C1297 N1294 1.350 . S
C1297 C1296 1.434 . S
C1298 C1299 1.369 . S
C1298 C1300 1.419 . S
C1298 H1302 0.930 . S
C1299 C1298 1.369 . S
C1299 C1308 1.429 . S
C1300 C1298 1.419 . S
C1300 C1301 1.363 . S
C1300 H1303 0.929 . S
C1301 C1300 1.363 . S
C1301 C1307 1.428 . S
H1302 C1298 0.930 . S
H1303 C1300 0.929 . S
S1304 N1305 1.613 . S
S1304 N1306 1.610 . S
N1305 S1304 1.613 . S
N1305 C1308 1.350 . S
N1306 S1304 1.610 . S
N1306 C1307 1.351 . S
C1307 C1301 1.428 . S
C1307 N1306 1.351 . S
C1307 C1308 1.434 . S
C1308 C1299 1.429 . S
C1308 N1305 1.350 . S
C1308 C1307 1.434 . S
C1309 C1310 1.369 . S
C1309 C1311 1.419 . S
C1309 H1313 0.930 . S
C1310 C1309 1.369 . S
C1310 C1319 1.429 . S
C1311 C1309 1.419 . S
C1311 C1312 1.363 . S
C1311 H1314 0.929 . S
C1312 C1311 1.363 . S
C1312 C1318 1.428 . S
H1313 C1309 0.930 . S
H1314 C1311 0.929 . S
S1315 N1316 1.613 . S
S1315 N1317 1.610 . S
N1316 S1315 1.613 . S
N1316 C1319 1.350 . S
N1317 S1315 1.610 . S
N1317 C1318 1.351 . S
C1318 C1312 1.428 . S
C1318 N1317 1.351 . S
C1318 C1319 1.434 . S
C1319 C1310 1.429 . S
C1319 N1316 1.350 . S
C1319 C1318 1.434 . S
C1320 C1321 1.369 . S
C1320 C1322 1.419 . S
C1320 H1324 0.930 . S
C1321 C1320 1.369 . S
C1321 C1330 1.429 . S
C1322 C1320 1.419 . S
C1322 C1323 1.363 . S
C1322 H1325 0.929 . S
C1323 C1322 1.363 . S
C1323 C1329 1.428 . S
H1324 C1320 0.930 . S
H1325 C1322 0.929 . S
S1326 N1327 1.613 . S
S1326 N1328 1.610 . S
N1327 S1326 1.613 . S
N1327 C1330 1.350 . S
N1328 S1326 1.610 . S
N1328 C1329 1.351 . S
C1329 C1323 1.428 . S
C1329 N1328 1.351 . S
C1329 C1330 1.434 . S
C1330 C1321 1.429 . S
C1330 N1327 1.350 . S
C1330 C1329 1.434 . S
C1331 C1332 1.369 . S
C1331 C1333 1.419 . S
C1331 H1335 0.930 . S
C1332 C1331 1.369 . S
C1332 C1341 1.429 . S
C1333 C1331 1.419 . S
C1333 C1334 1.363 . S
C1333 H1336 0.929 . S
C1334 C1333 1.363 . S
C1334 C1340 1.428 . S
H1335 C1331 0.930 . S
H1336 C1333 0.929 . S
S1337 N1338 1.613 . S
S1337 N1339 1.610 . S
N1338 S1337 1.613 . S
N1338 C1341 1.350 . S
N1339 S1337 1.610 . S
N1339 C1340 1.351 . S
C1340 C1334 1.428 . S
C1340 N1339 1.351 . S
C1340 C1341 1.434 . S
C1341 C1332 1.429 . S
C1341 N1338 1.350 . S
C1341 C1340 1.434 . S
C1342 C1343 1.369 . S
C1342 C1344 1.419 . S
C1342 H1346 0.930 . S
C1343 C1342 1.369 . S
C1343 C1352 1.429 . S
C1344 C1342 1.419 . S
C1344 C1345 1.363 . S
C1344 H1347 0.929 . S
C1345 C1344 1.363 . S
C1345 C1351 1.428 . S
H1346 C1342 0.930 . S
H1347 C1344 0.929 . S
S1348 N1349 1.613 . S
S1348 N1350 1.610 . S
N1349 S1348 1.613 . S
N1349 C1352 1.350 . S
N1350 S1348 1.610 . S
N1350 C1351 1.351 . S
C1351 C1345 1.428 . S
C1351 N1350 1.351 . S
C1351 C1352 1.434 . S
C1352 C1343 1.429 . S
C1352 N1349 1.350 . S
C1352 C1351 1.434 . S
C1353 C1354 1.369 . S
C1353 C1355 1.419 . S
C1353 H1357 0.930 . S
C1354 C1353 1.369 . S
C1354 C1363 1.429 . S
C1355 C1353 1.419 . S
C1355 C1356 1.363 . S
C1355 H1358 0.929 . S
C1356 C1355 1.363 . S
C1356 C1362 1.428 . S
H1357 C1353 0.930 . S
H1358 C1355 0.929 . S
S1359 N1360 1.613 . S
S1359 N1361 1.610 . S
N1360 S1359 1.613 . S
N1360 C1363 1.350 . S
N1361 S1359 1.610 . S
N1361 C1362 1.351 . S
C1362 C1356 1.428 . S
C1362 N1361 1.351 . S
C1362 C1363 1.434 . S
C1363 C1354 1.429 . S
C1363 N1360 1.350 . S
C1363 C1362 1.434 . S
C1364 C1365 1.369 . S
C1364 C1366 1.419 . S
C1364 H1368 0.930 . S
C1365 C1364 1.369 . S
C1365 C1374 1.429 . S
C1366 C1364 1.419 . S
C1366 C1367 1.363 . S
C1366 H1369 0.929 . S
C1367 C1366 1.363 . S
C1367 C1373 1.428 . S
H1368 C1364 0.930 . S
H1369 C1366 0.929 . S
S1370 N1371 1.613 . S
S1370 N1372 1.610 . S
N1371 S1370 1.613 . S
N1371 C1374 1.350 . S
N1372 S1370 1.610 . S
N1372 C1373 1.351 . S
C1373 C1367 1.428 . S
C1373 N1372 1.351 . S
C1373 C1374 1.434 . S
C1374 C1365 1.429 . S
C1374 N1371 1.350 . S
C1374 C1373 1.434 . S
C1375 C1376 1.369 . S
C1375 C1377 1.419 . S
C1375 H1379 0.930 . S
C1376 C1375 1.369 . S
C1376 C1385 1.429 . S
C1377 C1375 1.419 . S
C1377 C1378 1.363 . S
C1377 H1380 0.929 . S
C1378 C1377 1.363 . S
C1378 C1384 1.428 . S
H1379 C1375 0.930 . S
H1380 C1377 0.929 . S
S1381 N1382 1.613 . S
S1381 N1383 1.610 . S
N1382 S1381 1.613 . S
N1382 C1385 1.350 . S
N1383 S1381 1.610 . S
N1383 C1384 1.351 . S
C1384 C1378 1.428 . S
C1384 N1383 1.351 . S
C1384 C1385 1.434 . S
C1385 C1376 1.429 . S
C1385 N1382 1.350 . S
C1385 C1384 1.434 . S
C1386 C1387 1.369 . S
C1386 C1388 1.419 . S
C1386 H1390 0.930 . S
C1387 C1386 1.369 . S
C1387 C1396 1.429 . S
C1388 C1386 1.419 . S
C1388 C1389 1.363 . S
C1388 H1391 0.929 . S
C1389 C1388 1.363 . S
C1389 C1395 1.428 . S
H1390 C1386 0.930 . S
H1391 C1388 0.929 . S
S1392 N1393 1.613 . S
S1392 N1394 1.610 . S
N1393 S1392 1.613 . S
N1393 C1396 1.350 . S
N1394 S1392 1.610 . S
N1394 C1395 1.351 . S
C1395 C1389 1.428 . S
C1395 N1394 1.351 . S
C1395 C1396 1.434 . S
C1396 C1387 1.429 . S
C1396 N1393 1.350 . S
C1396 C1395 1.434 . S
C1397 C1398 1.369 . S
C1397 C1399 1.419 . S
C1397 H1401 0.930 . S
C1398 C1397 1.369 . S
C1398 C1407 1.429 . S
C1399 C1397 1.419 . S
C1399 C1400 1.363 . S
C1399 H1402 0.929 . S
C1400 C1399 1.363 . S
C1400 C1406 1.428 . S
H1401 C1397 0.930 . S
H1402 C1399 0.929 . S
S1403 N1404 1.613 . S
S1403 N1405 1.610 . S
N1404 S1403 1.613 . S
N1404 C1407 1.350 . S
N1405 S1403 1.610 . S
N1405 C1406 1.351 . S
C1406 C1400 1.428 . S
C1406 N1405 1.351 . S
C1406 C1407 1.434 . S
C1407 C1398 1.429 . S
C1407 N1404 1.350 . S
C1407 C1406 1.434 . S
C1408 C1409 1.369 . S
C1408 C1410 1.419 . S
C1408 H1412 0.930 . S
C1409 C1408 1.369 . S
C1409 C1418 1.429 . S
C1410 C1408 1.419 . S
C1410 C1411 1.363 . S
C1410 H1413 0.929 . S
C1411 C1410 1.363 . S
C1411 C1417 1.428 . S
H1412 C1408 0.930 . S
H1413 C1410 0.929 . S
S1414 N1415 1.613 . S
S1414 N1416 1.610 . S
N1415 S1414 1.613 . S
N1415 C1418 1.350 . S
N1416 S1414 1.610 . S
N1416 C1417 1.351 . S
C1417 C1411 1.428 . S
C1417 N1416 1.351 . S
C1417 C1418 1.434 . S
C1418 C1409 1.429 . S
C1418 N1415 1.350 . S
C1418 C1417 1.434 . S
C1419 C1420 1.369 . S
C1419 C1421 1.419 . S
C1419 H1423 0.930 . S
C1420 C1419 1.369 . S
C1420 C1429 1.429 . S
C1421 C1419 1.419 . S
C1421 C1422 1.363 . S
C1421 H1424 0.929 . S
C1422 C1421 1.363 . S
C1422 C1428 1.428 . S
H1423 C1419 0.930 . S
H1424 C1421 0.929 . S
S1425 N1426 1.613 . S
S1425 N1427 1.610 . S
N1426 S1425 1.613 . S
N1426 C1429 1.350 . S
N1427 S1425 1.610 . S
N1427 C1428 1.351 . S
C1428 C1422 1.428 . S
C1428 N1427 1.351 . S
C1428 C1429 1.434 . S
C1429 C1420 1.429 . S
C1429 N1426 1.350 . S
C1429 C1428 1.434 . S
C1430 C1431 1.369 . S
C1430 C1432 1.419 . S
C1430 H1434 0.930 . S
C1431 C1430 1.369 . S
C1431 C1440 1.429 . S
C1432 C1430 1.419 . S
C1432 C1433 1.363 . S
C1432 H1435 0.929 . S
C1433 C1432 1.363 . S
C1433 C1439 1.428 . S
H1434 C1430 0.930 . S
H1435 C1432 0.929 . S
S1436 N1437 1.613 . S
S1436 N1438 1.610 . S
N1437 S1436 1.613 . S
N1437 C1440 1.350 . S
N1438 S1436 1.610 . S
N1438 C1439 1.351 . S
C1439 C1433 1.428 . S
C1439 N1438 1.351 . S
C1439 C1440 1.434 . S
C1440 C1431 1.429 . S
C1440 N1437 1.350 . S
C1440 C1439 1.434 . S
C1441 C1442 1.369 . S
C1441 C1443 1.419 . S
C1441 H1445 0.930 . S
C1442 C1441 1.369 . S
C1442 C1451 1.429 . S
C1443 C1441 1.419 . S
C1443 C1444 1.363 . S
C1443 H1446 0.929 . S
C1444 C1443 1.363 . S
C1444 C1450 1.428 . S
H1445 C1441 0.930 . S
H1446 C1443 0.929 . S
S1447 N1448 1.613 . S
S1447 N1449 1.610 . S
N1448 S1447 1.613 . S
N1448 C1451 1.350 . S
N1449 S1447 1.610 . S
N1449 C1450 1.351 . S
C1450 C1444 1.428 . S
C1450 N1449 1.351 . S
C1450 C1451 1.434 . S
C1451 C1442 1.429 . S
C1451 N1448 1.350 . S
C1451 C1450 1.434 . S
C1452 C1453 1.369 . S
C1452 C1454 1.419 . S
C1452 H1456 0.930 . S
C1453 C1452 1.369 . S
C1453 C1462 1.429 . S
C1454 C1452 1.419 . S
C1454 C1455 1.363 . S
C1454 H1457 0.929 . S
C1455 C1454 1.363 . S
C1455 C1461 1.428 . S
H1456 C1452 0.930 . S
H1457 C1454 0.929 . S
S1458 N1459 1.613 . S
S1458 N1460 1.610 . S
N1459 S1458 1.613 . S
N1459 C1462 1.350 . S
N1460 S1458 1.610 . S
N1460 C1461 1.351 . S
C1461 C1455 1.428 . S
C1461 N1460 1.351 . S
C1461 C1462 1.434 . S
C1462 C1453 1.429 . S
C1462 N1459 1.350 . S
C1462 C1461 1.434 . S
C1463 C1464 1.369 . S
C1463 C1465 1.419 . S
C1463 H1467 0.930 . S
C1464 C1463 1.369 . S
C1464 C1473 1.429 . S
C1465 C1463 1.419 . S
C1465 C1466 1.363 . S
C1465 H1468 0.929 . S
C1466 C1465 1.363 . S
C1466 C1472 1.428 . S
H1467 C1463 0.930 . S
H1468 C1465 0.929 . S
S1469 N1470 1.613 . S
S1469 N1471 1.610 . S
N1470 S1469 1.613 . S
N1470 C1473 1.350 . S
N1471 S1469 1.610 . S
N1471 C1472 1.351 . S
C1472 C1466 1.428 . S
C1472 N1471 1.351 . S
C1472 C1473 1.434 . S
C1473 C1464 1.429 . S
C1473 N1470 1.350 . S
C1473 C1472 1.434 . S
C1474 C1475 1.369 . S
C1474 C1476 1.419 . S
C1474 H1478 0.930 . S
C1475 C1474 1.369 . S
C1475 C1484 1.429 . S
C1476 C1474 1.419 . S
C1476 C1477 1.363 . S
C1476 H1479 0.929 . S
C1477 C1476 1.363 . S
C1477 C1483 1.428 . S
H1478 C1474 0.930 . S
H1479 C1476 0.929 . S
S1480 N1481 1.613 . S
S1480 N1482 1.610 . S
N1481 S1480 1.613 . S
N1481 C1484 1.350 . S
N1482 S1480 1.610 . S
N1482 C1483 1.351 . S
C1483 C1477 1.428 . S
C1483 N1482 1.351 . S
C1483 C1484 1.434 . S
C1484 C1475 1.429 . S
C1484 N1481 1.350 . S
C1484 C1483 1.434 . S
C1485 C1486 1.369 . S
C1485 C1487 1.419 . S
C1485 H1489 0.930 . S
C1486 C1485 1.369 . S
C1486 C1495 1.429 . S
C1487 C1485 1.419 . S
C1487 C1488 1.363 . S
C1487 H1490 0.929 . S
C1488 C1487 1.363 . S
C1488 C1494 1.428 . S
H1489 C1485 0.930 . S
H1490 C1487 0.929 . S
S1491 N1492 1.613 . S
S1491 N1493 1.610 . S
N1492 S1491 1.613 . S
N1492 C1495 1.350 . S
N1493 S1491 1.610 . S
N1493 C1494 1.351 . S
C1494 C1488 1.428 . S
C1494 N1493 1.351 . S
C1494 C1495 1.434 . S
C1495 C1486 1.429 . S
C1495 N1492 1.350 . S
C1495 C1494 1.434 . S
C1496 C1497 1.369 . S
C1496 C1498 1.419 . S
C1496 H1500 0.930 . S
C1497 C1496 1.369 . S
C1497 C1506 1.429 . S
C1498 C1496 1.419 . S
C1498 C1499 1.363 . S
C1498 H1501 0.929 . S
C1499 C1498 1.363 . S
C1499 C1505 1.428 . S
H1500 C1496 0.930 . S
H1501 C1498 0.929 . S
S1502 N1503 1.613 . S
S1502 N1504 1.610 . S
N1503 S1502 1.613 . S
N1503 C1506 1.350 . S
N1504 S1502 1.610 . S
N1504 C1505 1.351 . S
C1505 C1499 1.428 . S
C1505 N1504 1.351 . S
C1505 C1506 1.434 . S
C1506 C1497 1.429 . S
C1506 N1503 1.350 . S
C1506 C1505 1.434 . S
C1507 C1508 1.369 . S
C1507 C1509 1.419 . S
C1507 H1511 0.930 . S
C1508 C1507 1.369 . S
C1508 C1517 1.429 . S
C1509 C1507 1.419 . S
C1509 C1510 1.363 . S
C1509 H1512 0.929 . S
C1510 C1509 1.363 . S
C1510 C1516 1.428 . S
H1511 C1507 0.930 . S
H1512 C1509 0.929 . S
S1513 N1514 1.613 . S
S1513 N1515 1.610 . S
N1514 S1513 1.613 . S
N1514 C1517 1.350 . S
N1515 S1513 1.610 . S
N1515 C1516 1.351 . S
C1516 C1510 1.428 . S
C1516 N1515 1.351 . S
C1516 C1517 1.434 . S
C1517 C1508 1.429 . S
C1517 N1514 1.350 . S
C1517 C1516 1.434 . S
C1518 C1519 1.369 . S
C1518 C1520 1.419 . S
C1518 H1522 0.930 . S
C1519 C1518 1.369 . S
C1519 C1528 1.429 . S
C1520 C1518 1.419 . S
C1520 C1521 1.363 . S
C1520 H1523 0.929 . S
C1521 C1520 1.363 . S
C1521 C1527 1.428 . S
H1522 C1518 0.930 . S
H1523 C1520 0.929 . S
S1524 N1525 1.613 . S
S1524 N1526 1.610 . S
N1525 S1524 1.613 . S
N1525 C1528 1.350 . S
N1526 S1524 1.610 . S
N1526 C1527 1.351 . S
C1527 C1521 1.428 . S
C1527 N1526 1.351 . S
C1527 C1528 1.434 . S
C1528 C1519 1.429 . S
C1528 N1525 1.350 . S
C1528 C1527 1.434 . S
C1529 C1530 1.369 . S
C1529 C1531 1.419 . S
C1529 H1533 0.930 . S
C1530 C1529 1.369 . S
C1530 C1539 1.429 . S
C1531 C1529 1.419 . S
C1531 C1532 1.363 . S
C1531 H1534 0.929 . S
C1532 C1531 1.363 . S
C1532 C1538 1.428 . S
H1533 C1529 0.930 . S
H1534 C1531 0.929 . S
S1535 N1536 1.613 . S
S1535 N1537 1.610 . S
N1536 S1535 1.613 . S
N1536 C1539 1.350 . S
N1537 S1535 1.610 . S
N1537 C1538 1.351 . S
C1538 C1532 1.428 . S
C1538 N1537 1.351 . S
C1538 C1539 1.434 . S
C1539 C1530 1.429 . S
C1539 N1536 1.350 . S
C1539 C1538 1.434 . S
C1540 C1541 1.369 . S
C1540 C1542 1.419 . S
C1540 H1544 0.930 . S
C1541 C1540 1.369 . S
C1541 C1550 1.429 . S
C1542 C1540 1.419 . S
C1542 C1543 1.363 . S
C1542 H1545 0.929 . S
C1543 C1542 1.363 . S
C1543 C1549 1.428 . S
H1544 C1540 0.930 . S
H1545 C1542 0.929 . S
S1546 N1547 1.613 . S
S1546 N1548 1.610 . S
N1547 S1546 1.613 . S
N1547 C1550 1.350 . S
N1548 S1546 1.610 . S
N1548 C1549 1.351 . S
C1549 C1543 1.428 . S
C1549 N1548 1.351 . S
C1549 C1550 1.434 . S
C1550 C1541 1.429 . S
C1550 N1547 1.350 . S
C1550 C1549 1.434 . S
C1551 C1552 1.369 . S
C1551 C1553 1.419 . S
C1551 H1555 0.930 . S
C1552 C1551 1.369 . S
C1552 C1561 1.429 . S
C1553 C1551 1.419 . S
C1553 C1554 1.363 . S
C1553 H1556 0.929 . S
C1554 C1553 1.363 . S
C1554 C1560 1.428 . S
H1555 C1551 0.930 . S
H1556 C1553 0.929 . S
S1557 N1558 1.613 . S
S1557 N1559 1.610 . S
N1558 S1557 1.613 . S
N1558 C1561 1.350 . S
N1559 S1557 1.610 . S
N1559 C1560 1.351 . S
C1560 C1554 1.428 . S
C1560 N1559 1.351 . S
C1560 C1561 1.434 . S
C1561 C1552 1.429 . S
C1561 N1558 1.350 . S
C1561 C1560 1.434 . S
C1562 C1563 1.369 . S
C1562 C1564 1.419 . S
C1562 H1566 0.930 . S
C1563 C1562 1.369 . S
C1563 C1572 1.429 . S
C1564 C1562 1.419 . S
C1564 C1565 1.363 . S
C1564 H1567 0.929 . S
C1565 C1564 1.363 . S
C1565 C1571 1.428 . S
H1566 C1562 0.930 . S
H1567 C1564 0.929 . S
S1568 N1569 1.613 . S
S1568 N1570 1.610 . S
N1569 S1568 1.613 . S
N1569 C1572 1.350 . S
N1570 S1568 1.610 . S
N1570 C1571 1.351 . S
C1571 C1565 1.428 . S
C1571 N1570 1.351 . S
C1571 C1572 1.434 . S
C1572 C1563 1.429 . S
C1572 N1569 1.350 . S
C1572 C1571 1.434 . S
C1573 C1574 1.369 . S
C1573 C1575 1.419 . S
C1573 H1577 0.930 . S
C1574 C1573 1.369 . S
C1574 C1583 1.429 . S
C1575 C1573 1.419 . S
C1575 C1576 1.363 . S
C1575 H1578 0.929 . S
C1576 C1575 1.363 . S
C1576 C1582 1.428 . S
H1577 C1573 0.930 . S
H1578 C1575 0.929 . S
S1579 N1580 1.613 . S
S1579 N1581 1.610 . S
N1580 S1579 1.613 . S
N1580 C1583 1.350 . S
N1581 S1579 1.610 . S
N1581 C1582 1.351 . S
C1582 C1576 1.428 . S
C1582 N1581 1.351 . S
C1582 C1583 1.434 . S
C1583 C1574 1.429 . S
C1583 N1580 1.350 . S
C1583 C1582 1.434 . S
C1584 C1585 1.369 . S
C1584 C1586 1.419 . S
C1584 H1588 0.930 . S
C1585 C1584 1.369 . S
C1585 C1594 1.429 . S
C1586 C1584 1.419 . S
C1586 C1587 1.363 . S
C1586 H1589 0.929 . S
C1587 C1586 1.363 . S
C1587 C1593 1.428 . S
H1588 C1584 0.930 . S
H1589 C1586 0.929 . S
S1590 N1591 1.613 . S
S1590 N1592 1.610 . S
N1591 S1590 1.613 . S
N1591 C1594 1.350 . S
N1592 S1590 1.610 . S
N1592 C1593 1.351 . S
C1593 C1587 1.428 . S
C1593 N1592 1.351 . S
C1593 C1594 1.434 . S
C1594 C1585 1.429 . S
C1594 N1591 1.350 . S
C1594 C1593 1.434 . S
C1595 C1596 1.369 . S
C1595 C1597 1.419 . S
C1595 H1599 0.930 . S
C1596 C1595 1.369 . S
C1596 C1605 1.429 . S
C1597 C1595 1.419 . S
C1597 C1598 1.363 1_655 S
C1597 H1600 0.929 . S
C1598 C1597 1.363 1_455 S
C1598 C1604 1.428 1_455 S
H1599 C1595 0.930 . S
H1600 C1597 0.929 . S
S1601 N1602 1.613 . S
S1601 N1603 1.610 1_655 S
N1602 S1601 1.613 . S
N1602 C1605 1.350 . S
N1603 S1601 1.610 1_455 S
N1603 C1604 1.351 1_455 S
C1604 C1598 1.428 1_655 S
C1604 N1603 1.351 1_655 S
C1604 C1605 1.434 . S
C1605 C1596 1.429 . S
C1605 N1602 1.350 . S
C1605 C1604 1.434 . S
C1606 C1607 1.369 . S
C1606 C1608 1.419 . S
C1606 H1610 0.930 . S
C1607 C1606 1.369 . S
C1607 C1616 1.429 . S
C1608 C1606 1.419 . S
C1608 C1609 1.363 . S
C1608 H1611 0.929 . S
C1609 C1608 1.363 . S
C1609 C1615 1.428 . S
H1610 C1606 0.930 . S
H1611 C1608 0.929 . S
S1612 N1613 1.613 . S
S1612 N1614 1.610 . S
N1613 S1612 1.613 . S
N1613 C1616 1.350 . S
N1614 S1612 1.610 . S
N1614 C1615 1.351 . S
C1615 C1609 1.428 . S
C1615 N1614 1.351 . S
C1615 C1616 1.434 . S
C1616 C1607 1.429 . S
C1616 N1613 1.350 . S
C1616 C1615 1.434 . S
C1617 C1618 1.369 . S
C1617 C1619 1.419 . S
C1617 H1621 0.930 . S
C1618 C1617 1.369 . S
C1618 C1627 1.429 . S
C1619 C1617 1.419 . S
C1619 C1620 1.363 . S
C1619 H1622 0.929 . S
C1620 C1619 1.363 . S
C1620 C1626 1.428 . S
H1621 C1617 0.930 . S
H1622 C1619 0.929 . S
S1623 N1624 1.613 . S
S1623 N1625 1.610 . S
N1624 S1623 1.613 . S
N1624 C1627 1.350 . S
N1625 S1623 1.610 . S
N1625 C1626 1.351 . S
C1626 C1620 1.428 . S
C1626 N1625 1.351 . S
C1626 C1627 1.434 . S
C1627 C1618 1.429 . S
C1627 N1624 1.350 . S
C1627 C1626 1.434 . S
C1628 C1629 1.369 . S
C1628 C1630 1.419 . S
C1628 H1632 0.930 . S
C1629 C1628 1.369 . S
C1629 C1638 1.429 . S
C1630 C1628 1.419 . S
C1630 C1631 1.363 . S
C1630 H1633 0.929 . S
C1631 C1630 1.363 . S
C1631 C1637 1.428 . S
H1632 C1628 0.930 . S
H1633 C1630 0.929 . S
S1634 N1635 1.613 . S
S1634 N1636 1.610 . S
N1635 S1634 1.613 . S
N1635 C1638 1.350 . S
N1636 S1634 1.610 . S
N1636 C1637 1.351 . S
C1637 C1631 1.428 . S
C1637 N1636 1.351 . S
C1637 C1638 1.434 . S
C1638 C1629 1.429 . S
C1638 N1635 1.350 . S
C1638 C1637 1.434 . S
C1639 C1640 1.369 . S
C1639 C1641 1.419 . S
C1639 H1643 0.930 . S
C1640 C1639 1.369 . S
C1640 C1649 1.429 . S
C1641 C1639 1.419 . S
C1641 C1642 1.363 . S
C1641 H1644 0.929 . S
C1642 C1641 1.363 . S
C1642 C1648 1.428 . S
H1643 C1639 0.930 . S
H1644 C1641 0.929 . S
S1645 N1646 1.613 . S
S1645 N1647 1.610 . S
N1646 S1645 1.613 . S
N1646 C1649 1.350 . S
N1647 S1645 1.610 . S
N1647 C1648 1.351 . S
C1648 C1642 1.428 . S
C1648 N1647 1.351 . S
C1648 C1649 1.434 . S
C1649 C1640 1.429 . S
C1649 N1646 1.350 . S
C1649 C1648 1.434 . S
C1650 C1651 1.369 . S
C1650 C1652 1.419 . S
C1650 H1654 0.930 . S
C1651 C1650 1.369 . S
C1651 C1660 1.429 . S
C1652 C1650 1.419 . S
C1652 C1653 1.363 . S
C1652 H1655 0.929 . S
C1653 C1652 1.363 . S
C1653 C1659 1.428 . S
H1654 C1650 0.930 . S
H1655 C1652 0.929 . S
S1656 N1657 1.613 . S
S1656 N1658 1.610 . S
N1657 S1656 1.613 . S
N1657 C1660 1.350 . S
N1658 S1656 1.610 . S
N1658 C1659 1.351 . S
C1659 C1653 1.428 . S
C1659 N1658 1.351 . S
C1659 C1660 1.434 . S
C1660 C1651 1.429 . S
C1660 N1657 1.350 . S
C1660 C1659 1.434 . S
C1661 C1662 1.369 1_655 S
C1661 C1663 1.419 . S
C1661 H1665 0.930 . S
C1662 C1661 1.369 1_455 S
C1662 C1671 1.429 1_455 S
C1663 C1661 1.419 . S
C1663 C1664 1.363 . S
C1663 H1666 0.929 . S
C1664 C1663 1.363 . S
C1664 C1670 1.428 . S
H1665 C1661 0.930 . S
H1666 C1663 0.929 . S
S1667 N1668 1.613 1_655 S
S1667 N1669 1.610 . S
N1668 S1667 1.613 1_455 S
N1668 C1671 1.350 1_455 S
N1669 S1667 1.610 . S
N1669 C1670 1.351 . S
C1670 C1664 1.428 . S
C1670 N1669 1.351 . S
C1670 C1671 1.434 . S
C1671 C1662 1.429 1_655 S
C1671 N1668 1.350 1_655 S
C1671 C1670 1.434 . S
C1672 C1673 1.369 . S
C1672 C1674 1.419 . S
C1672 H1676 0.930 . S
C1673 C1672 1.369 . S
C1673 C1682 1.429 . S
C1674 C1672 1.419 . S
C1674 C1675 1.363 . S
C1674 H1677 0.929 . S
C1675 C1674 1.363 . S
C1675 C1681 1.428 . S
H1676 C1672 0.930 . S
H1677 C1674 0.929 . S
S1678 N1679 1.613 . S
S1678 N1680 1.610 . S
N1679 S1678 1.613 . S
N1679 C1682 1.350 . S
N1680 S1678 1.610 . S
N1680 C1681 1.351 . S
C1681 C1675 1.428 . S
C1681 N1680 1.351 . S
C1681 C1682 1.434 . S
C1682 C1673 1.429 . S
C1682 N1679 1.350 . S
C1682 C1681 1.434 . S
C1683 C1684 1.369 . S
C1683 C1685 1.419 . S
C1683 H1687 0.930 . S
C1684 C1683 1.369 . S
C1684 C1693 1.429 . S
C1685 C1683 1.419 . S
C1685 C1686 1.363 . S
C1685 H1688 0.929 . S
C1686 C1685 1.363 . S
C1686 C1692 1.428 . S
H1687 C1683 0.930 . S
H1688 C1685 0.929 . S
S1689 N1690 1.613 . S
S1689 N1691 1.610 . S
N1690 S1689 1.613 . S
N1690 C1693 1.350 . S
N1691 S1689 1.610 . S
N1691 C1692 1.351 . S
C1692 C1686 1.428 . S
C1692 N1691 1.351 . S
C1692 C1693 1.434 . S
C1693 C1684 1.429 . S
C1693 N1690 1.350 . S
C1693 C1692 1.434 . S
C1694 C1695 1.369 . S
C1694 C1696 1.419 . S
C1694 H1698 0.930 . S
C1695 C1694 1.369 . S
C1695 C1704 1.429 . S
C1696 C1694 1.419 . S
C1696 C1697 1.363 . S
C1696 H1699 0.929 . S
C1697 C1696 1.363 . S
C1697 C1703 1.428 . S
H1698 C1694 0.930 . S
H1699 C1696 0.929 . S
S1700 N1701 1.613 . S
S1700 N1702 1.610 . S
N1701 S1700 1.613 . S
N1701 C1704 1.350 . S
N1702 S1700 1.610 . S
N1702 C1703 1.351 . S
C1703 C1697 1.428 . S
C1703 N1702 1.351 . S
C1703 C1704 1.434 . S
C1704 C1695 1.429 . S
C1704 N1701 1.350 . S
C1704 C1703 1.434 . S
C1705 C1706 1.369 . S
C1705 C1707 1.419 . S
C1705 H1709 0.930 . S
C1706 C1705 1.369 . S
C1706 C1715 1.429 . S
C1707 C1705 1.419 . S
C1707 C1708 1.363 . S
C1707 H1710 0.929 . S
C1708 C1707 1.363 . S
C1708 C1714 1.428 . S
H1709 C1705 0.930 . S
H1710 C1707 0.929 . S
S1711 N1712 1.613 . S
S1711 N1713 1.610 . S
N1712 S1711 1.613 . S
N1712 C1715 1.350 . S
N1713 S1711 1.610 . S
N1713 C1714 1.351 . S
C1714 C1708 1.428 . S
C1714 N1713 1.351 . S
C1714 C1715 1.434 . S
C1715 C1706 1.429 . S
C1715 N1712 1.350 . S
C1715 C1714 1.434 . S
C1716 C1717 1.369 . S
C1716 C1718 1.419 . S
C1716 H1720 0.930 . S
C1717 C1716 1.369 . S
C1717 C1726 1.429 . S
C1718 C1716 1.419 . S
C1718 C1719 1.363 . S
C1718 H1721 0.929 . S
C1719 C1718 1.363 . S
C1719 C1725 1.428 . S
H1720 C1716 0.930 . S
H1721 C1718 0.929 . S
S1722 N1723 1.613 . S
S1722 N1724 1.610 . S
N1723 S1722 1.613 . S
N1723 C1726 1.350 . S
N1724 S1722 1.610 . S
N1724 C1725 1.351 . S
C1725 C1719 1.428 . S
C1725 N1724 1.351 . S
C1725 C1726 1.434 . S
C1726 C1717 1.429 . S
C1726 N1723 1.350 . S
C1726 C1725 1.434 . S
C1727 C1728 1.369 . S
C1727 C1729 1.419 . S
C1727 H1731 0.930 . S
C1728 C1727 1.369 . S
C1728 C1737 1.429 . S
C1729 C1727 1.419 . S
C1729 C1730 1.363 . S
C1729 H1732 0.929 . S
C1730 C1729 1.363 . S
C1730 C1736 1.428 . S
H1731 C1727 0.930 . S
H1732 C1729 0.929 . S
S1733 N1734 1.613 . S
S1733 N1735 1.610 . S
N1734 S1733 1.613 . S
N1734 C1737 1.350 . S
N1735 S1733 1.610 . S
N1735 C1736 1.351 . S
C1736 C1730 1.428 . S
C1736 N1735 1.351 . S
C1736 C1737 1.434 . S
C1737 C1728 1.429 . S
C1737 N1734 1.350 . S
C1737 C1736 1.434 . S
C1738 C1739 1.369 . S
C1738 C1740 1.419 . S
C1738 H1742 0.930 . S
C1739 C1738 1.369 . S
C1739 C1748 1.429 . S
C1740 C1738 1.419 . S
C1740 C1741 1.363 . S
C1740 H1743 0.929 . S
C1741 C1740 1.363 . S
C1741 C1747 1.428 . S
H1742 C1738 0.930 . S
H1743 C1740 0.929 . S
S1744 N1745 1.613 . S
S1744 N1746 1.610 . S
N1745 S1744 1.613 . S
N1745 C1748 1.350 . S
N1746 S1744 1.610 . S
N1746 C1747 1.351 . S
C1747 C1741 1.428 . S
C1747 N1746 1.351 . S
C1747 C1748 1.434 . S
C1748 C1739 1.429 . S
C1748 N1745 1.350 . S
C1748 C1747 1.434 . S
C1749 C1750 1.369 . S
C1749 C1751 1.419 1_556 S
C1749 H1753 0.930 . S
C1750 C1749 1.369 . S
C1750 C1759 1.429 1_556 S
C1751 C1749 1.419 1_554 S
C1751 C1752 1.363 . S
C1751 H1754 0.929 . S
C1752 C1751 1.363 . S
C1752 C1758 1.428 . S
H1753 C1749 0.930 . S
H1754 C1751 0.929 . S
S1755 N1756 1.613 . S
S1755 N1757 1.610 . S
N1756 S1755 1.613 . S
N1756 C1759 1.350 . S
N1757 S1755 1.610 . S
N1757 C1758 1.351 . S
C1758 C1752 1.428 . S
C1758 N1757 1.351 . S
C1758 C1759 1.434 . S
C1759 C1750 1.429 1_554 S
C1759 N1756 1.350 . S
C1759 C1758 1.434 . S
C1760 C1761 1.369 . S
C1760 C1762 1.419 . S
C1760 H1764 0.930 . S
C1761 C1760 1.369 . S
C1761 C1770 1.429 . S
C1762 C1760 1.419 . S
C1762 C1763 1.363 . S
C1762 H1765 0.929 . S
C1763 C1762 1.363 . S
C1763 C1769 1.428 . S
H1764 C1760 0.930 . S
H1765 C1762 0.929 . S
S1766 N1767 1.613 . S
S1766 N1768 1.610 . S
N1767 S1766 1.613 . S
N1767 C1770 1.350 . S
N1768 S1766 1.610 . S
N1768 C1769 1.351 . S
C1769 C1763 1.428 . S
C1769 N1768 1.351 . S
C1769 C1770 1.434 . S
C1770 C1761 1.429 . S
C1770 N1767 1.350 . S
C1770 C1769 1.434 . S
C1771 C1772 1.369 . S
C1771 C1773 1.419 . S
C1771 H1775 0.930 . S
C1772 C1771 1.369 . S
C1772 C1781 1.429 . S
C1773 C1771 1.419 . S
C1773 C1774 1.363 . S
C1773 H1776 0.929 . S
C1774 C1773 1.363 . S
C1774 C1780 1.428 . S
H1775 C1771 0.930 . S
H1776 C1773 0.929 . S
S1777 N1778 1.613 . S
S1777 N1779 1.610 . S
N1778 S1777 1.613 . S
N1778 C1781 1.350 . S
N1779 S1777 1.610 . S
N1779 C1780 1.351 . S
C1780 C1774 1.428 . S
C1780 N1779 1.351 . S
C1780 C1781 1.434 . S
C1781 C1772 1.429 . S
C1781 N1778 1.350 . S
C1781 C1780 1.434 . S
C1782 C1783 1.369 . S
C1782 C1784 1.419 . S
C1782 H1786 0.930 . S
C1783 C1782 1.369 . S
C1783 C1792 1.429 . S
C1784 C1782 1.419 . S
C1784 C1785 1.363 . S
C1784 H1787 0.929 . S
C1785 C1784 1.363 . S
C1785 C1791 1.428 . S
H1786 C1782 0.930 . S
H1787 C1784 0.929 . S
S1788 N1789 1.613 . S
S1788 N1790 1.610 . S
N1789 S1788 1.613 . S
N1789 C1792 1.350 . S
N1790 S1788 1.610 . S
N1790 C1791 1.351 . S
C1791 C1785 1.428 . S
C1791 N1790 1.351 . S
C1791 C1792 1.434 . S
C1792 C1783 1.429 . S
C1792 N1789 1.350 . S
C1792 C1791 1.434 . S
C1793 C1794 1.369 . S
C1793 C1795 1.419 . S
C1793 H1797 0.930 . S
C1794 C1793 1.369 . S
C1794 C1803 1.429 . S
C1795 C1793 1.419 . S
C1795 C1796 1.363 . S
C1795 H1798 0.929 . S
C1796 C1795 1.363 . S
C1796 C1802 1.428 . S
H1797 C1793 0.930 . S
H1798 C1795 0.929 . S
S1799 N1800 1.613 . S
S1799 N1801 1.610 . S
N1800 S1799 1.613 . S
N1800 C1803 1.350 . S
N1801 S1799 1.610 . S
N1801 C1802 1.351 . S
C1802 C1796 1.428 . S
C1802 N1801 1.351 . S
C1802 C1803 1.434 . S
C1803 C1794 1.429 . S
C1803 N1800 1.350 . S
C1803 C1802 1.434 . S
C1804 C1805 1.369 1_565 S
C1804 C1806 1.419 . S
C1804 H1808 0.930 1_565 S
C1805 C1804 1.369 1_545 S
C1805 C1814 1.429 1_545 S
C1806 C1804 1.419 . S
C1806 C1807 1.363 . S
C1806 H1809 0.929 . S
C1807 C1806 1.363 . S
C1807 C1813 1.428 . S
H1808 C1804 0.930 1_545 S
H1809 C1806 0.929 . S
S1810 N1811 1.613 . S
S1810 N1812 1.610 . S
N1811 S1810 1.613 . S
N1811 C1814 1.350 . S
N1812 S1810 1.610 . S
N1812 C1813 1.351 . S
C1813 C1807 1.428 . S
C1813 N1812 1.351 . S
C1813 C1814 1.434 . S
C1814 C1805 1.429 1_565 S
C1814 N1811 1.350 . S
C1814 C1813 1.434 . S
C1815 C1816 1.369 . S
C1815 C1817 1.419 . S
C1815 H1819 0.930 . S
C1816 C1815 1.369 . S
C1816 C1825 1.429 . S
C1817 C1815 1.419 . S
C1817 C1818 1.363 . S
C1817 H1820 0.929 . S
C1818 C1817 1.363 . S
C1818 C1824 1.428 . S
H1819 C1815 0.930 . S
H1820 C1817 0.929 . S
S1821 N1822 1.613 . S
S1821 N1823 1.610 . S
N1822 S1821 1.613 . S
N1822 C1825 1.350 . S
N1823 S1821 1.610 . S
N1823 C1824 1.351 . S
C1824 C1818 1.428 . S
C1824 N1823 1.351 . S
C1824 C1825 1.434 . S
C1825 C1816 1.429 . S
C1825 N1822 1.350 . S
C1825 C1824 1.434 . S
C1826 C1827 1.369 . S
C1826 C1828 1.419 . S
C1826 H1830 0.930 . S
C1827 C1826 1.369 . S
C1827 C1836 1.429 . S
C1828 C1826 1.419 . S
C1828 C1829 1.363 . S
C1828 H1831 0.929 . S
C1829 C1828 1.363 . S
C1829 C1835 1.428 . S
H1830 C1826 0.930 . S
H1831 C1828 0.929 . S
S1832 N1833 1.613 . S
S1832 N1834 1.610 . S
N1833 S1832 1.613 . S
N1833 C1836 1.350 . S
N1834 S1832 1.610 . S
N1834 C1835 1.351 . S
C1835 C1829 1.428 . S
C1835 N1834 1.351 . S
C1835 C1836 1.434 . S
C1836 C1827 1.429 . S
C1836 N1833 1.350 . S
C1836 C1835 1.434 . S
C1837 C1838 1.369 . S
C1837 C1839 1.419 . S
C1837 H1841 0.930 . S
C1838 C1837 1.369 . S
C1838 C1847 1.429 . S
C1839 C1837 1.419 . S
C1839 C1840 1.363 . S
C1839 H1842 0.929 . S
C1840 C1839 1.363 . S
C1840 C1846 1.428 . S
H1841 C1837 0.930 . S
H1842 C1839 0.929 . S
S1843 N1844 1.613 . S
S1843 N1845 1.610 . S
N1844 S1843 1.613 . S
N1844 C1847 1.350 . S
N1845 S1843 1.610 . S
N1845 C1846 1.351 . S
C1846 C1840 1.428 . S
C1846 N1845 1.351 . S
C1846 C1847 1.434 . S
C1847 C1838 1.429 . S
C1847 N1844 1.350 . S
C1847 C1846 1.434 . S
C1848 C1849 1.369 . S
C1848 C1850 1.419 . S
C1848 H1852 0.930 . S
C1849 C1848 1.369 . S
C1849 C1858 1.429 . S
C1850 C1848 1.419 . S
C1850 C1851 1.363 . S
C1850 H1853 0.929 . S
C1851 C1850 1.363 . S
C1851 C1857 1.428 . S
H1852 C1848 0.930 . S
H1853 C1850 0.929 . S
S1854 N1855 1.613 . S
S1854 N1856 1.610 . S
N1855 S1854 1.613 . S
N1855 C1858 1.350 . S
N1856 S1854 1.610 . S
N1856 C1857 1.351 . S
C1857 C1851 1.428 . S
C1857 N1856 1.351 . S
C1857 C1858 1.434 . S
C1858 C1849 1.429 . S
C1858 N1855 1.350 . S
C1858 C1857 1.434 . S
C1859 C1860 1.369 . S
C1859 C1861 1.419 1_655 S
C1859 H1863 0.930 . S
C1860 C1859 1.369 . S
C1860 C1869 1.429 . S
C1861 C1859 1.419 1_455 S
C1861 C1862 1.363 . S
C1861 H1864 0.929 . S
C1862 C1861 1.363 . S
C1862 C1868 1.428 1_455 S
H1863 C1859 0.930 . S
H1864 C1861 0.929 . S
S1865 N1866 1.613 . S
S1865 N1867 1.663 . S
N1866 S1865 1.613 . S
N1866 C1869 1.350 . S
N1867 S1865 1.663 . S
N1867 C1868 1.356 . S
C1868 C1862 1.428 1_655 S
C1868 N1867 1.356 . S
C1868 C1869 1.434 . S
C1869 C1860 1.429 . S
C1869 N1866 1.350 . S
C1869 C1868 1.434 . S
C1870 C1871 1.369 . S
C1870 C1872 1.419 . S
C1870 H1874 0.930 . S
C1871 C1870 1.369 . S
C1871 C1880 1.429 . S
C1872 C1870 1.419 . S
C1872 C1873 1.363 . S
C1872 H1875 0.929 . S
C1873 C1872 1.363 . S
C1873 C1879 1.428 . S
H1874 C1870 0.930 . S
H1875 C1872 0.929 . S
S1876 N1877 1.613 . S
S1876 N1878 1.610 . S
N1877 S1876 1.613 . S
N1877 C1880 1.350 . S
N1878 S1876 1.610 . S
N1878 C1879 1.351 . S
C1879 C1873 1.428 . S
C1879 N1878 1.351 . S
C1879 C1880 1.434 . S
C1880 C1871 1.429 . S
C1880 N1877 1.350 . S
C1880 C1879 1.434 . S
C1881 C1882 1.369 . S
C1881 C1883 1.419 . S
C1881 H1885 0.930 . S
C1882 C1881 1.369 . S
C1882 C1891 1.429 . S
C1883 C1881 1.419 . S
C1883 C1884 1.363 . S
C1883 H1886 0.929 . S
C1884 C1883 1.363 . S
C1884 C1890 1.428 . S
H1885 C1881 0.930 . S
H1886 C1883 0.929 . S
S1887 N1888 1.613 . S
S1887 N1889 1.610 . S
N1888 S1887 1.613 . S
N1888 C1891 1.350 . S
N1889 S1887 1.610 . S
N1889 C1890 1.351 . S
C1890 C1884 1.428 . S
C1890 N1889 1.351 . S
C1890 C1891 1.434 . S
C1891 C1882 1.429 . S
C1891 N1888 1.350 . S
C1891 C1890 1.434 . S
C1892 C1893 1.369 . S
C1892 C1894 1.419 . S
C1892 H1896 0.930 . S
C1893 C1892 1.369 . S
C1893 C1902 1.429 . S
C1894 C1892 1.419 . S
C1894 C1895 1.363 . S
C1894 H1897 0.929 . S
C1895 C1894 1.363 . S
C1895 C1901 1.428 . S
H1896 C1892 0.930 . S
H1897 C1894 0.929 . S
S1898 N1899 1.613 . S
S1898 N1900 1.610 . S
N1899 S1898 1.613 . S
N1899 C1902 1.350 . S
N1900 S1898 1.610 . S
N1900 C1901 1.351 . S
C1901 C1895 1.428 . S
C1901 N1900 1.351 . S
C1901 C1902 1.434 . S
C1902 C1893 1.429 . S
C1902 N1899 1.350 . S
C1902 C1901 1.434 . S
C1903 C1904 1.369 . S
C1903 C1905 1.419 . S
C1903 H1907 0.930 . S
C1904 C1903 1.369 . S
C1904 C1913 1.429 . S
C1905 C1903 1.419 . S
C1905 C1906 1.363 . S
C1905 H1908 0.929 . S
C1906 C1905 1.363 . S
C1906 C1912 1.428 . S
H1907 C1903 0.930 . S
H1908 C1905 0.929 . S
S1909 N1910 1.613 . S
S1909 N1911 1.610 . S
N1910 S1909 1.613 . S
N1910 C1913 1.350 . S
N1911 S1909 1.610 . S
N1911 C1912 1.351 . S
C1912 C1906 1.428 . S
C1912 N1911 1.351 . S
C1912 C1913 1.434 . S
C1913 C1904 1.429 . S
C1913 N1910 1.350 . S
C1913 C1912 1.434 . S
C1914 C1915 1.369 . S
C1914 C1916 1.419 . S
C1914 H1918 0.930 . S
C1915 C1914 1.369 . S
C1915 C1924 1.429 . S
C1916 C1914 1.419 . S
C1916 C1917 1.363 . S
C1916 H1919 0.929 . S
C1917 C1916 1.363 . S
C1917 C1923 1.428 . S
H1918 C1914 0.930 . S
H1919 C1916 0.929 . S
S1920 N1921 1.613 . S
S1920 N1922 1.610 . S
N1921 S1920 1.613 . S
N1921 C1924 1.350 . S
N1922 S1920 1.610 . S
N1922 C1923 1.351 . S
C1923 C1917 1.428 . S
C1923 N1922 1.351 . S
C1923 C1924 1.434 . S
C1924 C1915 1.429 . S
C1924 N1921 1.350 . S
C1924 C1923 1.434 . S
C1925 C1926 1.369 . S
C1925 C1927 1.419 1_455 S
C1925 H1929 0.930 . S
C1926 C1925 1.369 . S
C1926 C1935 1.429 . S
C1927 C1925 1.419 1_655 S
C1927 C1928 1.363 . S
C1927 H1930 0.929 . S
C1928 C1927 1.363 . S
C1928 C1934 1.428 . S
H1929 C1925 0.930 . S
H1930 C1927 0.929 . S
S1931 N1932 1.613 1_655 S
S1931 N1933 1.610 . S
N1932 S1931 1.613 1_455 S
N1932 C1935 1.350 . S
N1933 S1931 1.610 . S
N1933 C1934 1.351 . S
C1934 C1928 1.428 . S
C1934 N1933 1.351 . S
C1934 C1935 1.434 1_655 S
C1935 C1926 1.429 . S
C1935 N1932 1.350 . S
C1935 C1934 1.434 1_455 S
C1936 C1937 1.369 . S
C1936 C1938 1.419 . S
C1936 H1940 0.930 . S
C1937 C1936 1.369 . S
C1937 C1946 1.429 . S
C1938 C1936 1.419 . S
C1938 C1939 1.363 . S
C1938 H1941 0.929 . S
C1939 C1938 1.363 . S
C1939 C1945 1.428 . S
H1940 C1936 0.930 . S
H1941 C1938 0.929 . S
S1942 N1943 1.613 . S
S1942 N1944 1.610 . S
N1943 S1942 1.613 . S
N1943 C1946 1.350 . S
N1944 S1942 1.610 . S
N1944 C1945 1.351 . S
C1945 C1939 1.428 . S
C1945 N1944 1.351 . S
C1945 C1946 1.434 . S
C1946 C1937 1.429 . S
C1946 N1943 1.350 . S
C1946 C1945 1.434 . S
C1947 C1948 1.369 . S
C1947 C1949 1.419 . S
C1947 H1951 0.930 . S
C1948 C1947 1.369 . S
C1948 C1957 1.429 . S
C1949 C1947 1.419 . S
C1949 C1950 1.363 . S
C1949 H1952 0.929 . S
C1950 C1949 1.363 . S
C1950 C1956 1.428 . S
H1951 C1947 0.930 . S
H1952 C1949 0.929 . S
S1953 N1954 1.613 . S
S1953 N1955 1.610 . S
N1954 S1953 1.613 . S
N1954 C1957 1.350 . S
N1955 S1953 1.610 . S
N1955 C1956 1.351 . S
C1956 C1950 1.428 . S
C1956 N1955 1.351 . S
C1956 C1957 1.434 . S
C1957 C1948 1.429 . S
C1957 N1954 1.350 . S
C1957 C1956 1.434 . S
C1958 C1959 1.369 . S
C1958 C1960 1.419 . S
C1958 H1962 0.930 . S
C1959 C1958 1.369 . S
C1959 C1968 1.429 . S
C1960 C1958 1.419 . S
C1960 C1961 1.363 . S
C1960 H1963 0.929 . S
C1961 C1960 1.363 . S
C1961 C1967 1.428 . S
H1962 C1958 0.930 . S
H1963 C1960 0.929 . S
S1964 N1965 1.613 . S
S1964 N1966 1.610 . S
N1965 S1964 1.613 . S
N1965 C1968 1.350 . S
N1966 S1964 1.610 . S
N1966 C1967 1.351 . S
C1967 C1961 1.428 . S
C1967 N1966 1.351 . S
C1967 C1968 1.434 . S
C1968 C1959 1.429 . S
C1968 N1965 1.350 . S
C1968 C1967 1.434 . S
C1969 C1970 1.369 . S
C1969 C1971 1.394 1_556 S
C1969 H1973 0.930 . S
C1970 C1969 1.369 . S
C1970 C1979 1.429 . S
C1971 C1969 1.394 1_554 S
C1971 C1972 1.373 . S
C1971 H1974 0.945 . S
C1972 C1971 1.373 . S
C1972 C1978 1.428 1_554 S
H1973 C1969 0.930 . S
H1974 C1971 0.945 . S
S1975 N1976 1.613 . S
S1975 N1977 1.606 . S
N1976 S1975 1.613 . S
N1976 C1979 1.350 . S
N1977 S1975 1.606 . S
N1977 C1978 1.350 . S
C1978 C1972 1.428 1_556 S
C1978 N1977 1.350 . S
C1978 C1979 1.434 . S
C1979 C1970 1.429 . S
C1979 N1976 1.350 . S
C1979 C1978 1.434 . S
C1980 C1981 1.369 . S
C1980 C1982 1.419 . S
C1980 H1984 0.930 . S
C1981 C1980 1.369 . S
C1981 C1990 1.429 . S
C1982 C1980 1.419 . S
C1982 C1983 1.363 . S
C1982 H1985 0.929 . S
C1983 C1982 1.363 . S
C1983 C1989 1.428 . S
H1984 C1980 0.930 . S
H1985 C1982 0.929 . S
S1986 N1987 1.613 . S
S1986 N1988 1.610 . S
N1987 S1986 1.613 . S
N1987 C1990 1.350 . S
N1988 S1986 1.610 . S
N1988 C1989 1.351 . S
C1989 C1983 1.428 . S
C1989 N1988 1.351 . S
C1989 C1990 1.434 . S
C1990 C1981 1.429 . S
C1990 N1987 1.350 . S
C1990 C1989 1.434 . S
C1991 C1992 1.369 . S
C1991 C1993 1.419 . S
C1991 H1995 0.930 . S
C1992 C1991 1.369 . S
C1992 C2001 1.429 . S
C1993 C1991 1.419 . S
C1993 C1994 1.363 . S
C1993 H1996 0.929 . S
C1994 C1993 1.363 . S
C1994 C2000 1.428 . S
H1995 C1991 0.930 . S
H1996 C1993 0.929 . S
S1997 N1998 1.613 . S
S1997 N1999 1.610 . S
N1998 S1997 1.613 . S
N1998 C2001 1.350 . S
N1999 S1997 1.610 . S
N1999 C2000 1.351 . S
C2000 C1994 1.428 . S
C2000 N1999 1.351 . S
C2000 C2001 1.434 . S
C2001 C1992 1.429 . S
C2001 N1998 1.350 . S
C2001 C2000 1.434 . S
C2002 C2003 1.369 . S
C2002 C2004 1.419 . S
C2002 H2006 0.930 . S
C2003 C2002 1.369 . S
C2003 C2012 1.429 . S
C2004 C2002 1.419 . S
C2004 C2005 1.363 . S
C2004 H2007 0.929 . S
C2005 C2004 1.363 . S
C2005 C2011 1.428 . S
H2006 C2002 0.930 . S
H2007 C2004 0.929 . S
S2008 N2009 1.613 . S
S2008 N2010 1.610 . S
N2009 S2008 1.613 . S
N2009 C2012 1.350 . S
N2010 S2008 1.610 . S
N2010 C2011 1.351 . S
C2011 C2005 1.428 . S
C2011 N2010 1.351 . S
C2011 C2012 1.434 . S
C2012 C2003 1.429 . S
C2012 N2009 1.350 . S
C2012 C2011 1.434 . S
C2013 C2014 1.369 . S
C2013 C2015 1.419 1_554 S
C2013 H2017 0.930 . S
C2014 C2013 1.369 . S
C2014 C2023 1.429 . S
C2015 C2013 1.419 1_556 S
C2015 C2016 1.363 . S
C2015 H2018 0.929 . S
C2016 C2015 1.363 . S
C2016 C2022 1.475 . S
H2017 C2013 0.930 . S
H2018 C2015 0.929 . S
S2019 N2020 1.613 . S
S2019 N2021 1.610 1_554 S
N2020 S2019 1.613 . S
N2020 C2023 1.350 . S
N2021 S2019 1.610 1_556 S
N2021 C2022 1.378 . S
C2022 C2016 1.475 . S
C2022 N2021 1.378 . S
C2022 C2023 1.357 1_556 S
C2023 C2014 1.429 . S
C2023 N2020 1.350 . S
C2023 C2022 1.357 1_554 S
C2024 C2025 1.369 . S
C2024 C2026 1.419 . S
C2024 H2028 0.930 . S
C2025 C2024 1.369 . S
C2025 C2034 1.429 . S
C2026 C2024 1.419 . S
C2026 C2027 1.363 . S
C2026 H2029 0.929 . S
C2027 C2026 1.363 . S
C2027 C2033 1.428 . S
H2028 C2024 0.930 . S
H2029 C2026 0.929 . S
S2030 N2031 1.613 . S
S2030 N2032 1.610 . S
N2031 S2030 1.613 . S
N2031 C2034 1.350 . S
N2032 S2030 1.610 . S
N2032 C2033 1.351 . S
C2033 C2027 1.428 . S
C2033 N2032 1.351 . S
C2033 C2034 1.434 . S
C2034 C2025 1.429 . S
C2034 N2031 1.350 . S
C2034 C2033 1.434 . S
C2035 C2036 1.369 . S
C2035 C2037 1.419 . S
C2035 H2039 0.930 . S
C2036 C2035 1.369 . S
C2036 C2045 1.429 . S
C2037 C2035 1.419 . S
C2037 C2038 1.363 . S
C2037 H2040 0.929 . S
C2038 C2037 1.363 . S
C2038 C2044 1.428 . S
H2039 C2035 0.930 . S
H2040 C2037 0.929 . S
S2041 N2042 1.613 . S
S2041 N2043 1.610 . S
N2042 S2041 1.613 . S
N2042 C2045 1.350 . S
N2043 S2041 1.610 . S
N2043 C2044 1.351 . S
C2044 C2038 1.428 . S
C2044 N2043 1.351 . S
C2044 C2045 1.434 . S
C2045 C2036 1.429 . S
C2045 N2042 1.350 . S
C2045 C2044 1.434 . S
C2046 C2047 1.369 . S
C2046 C2048 1.419 . S
C2046 H2050 0.930 . S
C2047 C2046 1.369 . S
C2047 C2056 1.429 . S
C2048 C2046 1.419 . S
C2048 C2049 1.363 . S
C2048 H2051 0.929 . S
C2049 C2048 1.363 . S
C2049 C2055 1.428 . S
H2050 C2046 0.930 . S
H2051 C2048 0.929 . S
S2052 N2053 1.613 . S
S2052 N2054 1.610 . S
N2053 S2052 1.613 . S
N2053 C2056 1.350 . S
N2054 S2052 1.610 . S
N2054 C2055 1.351 . S
C2055 C2049 1.428 . S
C2055 N2054 1.351 . S
C2055 C2056 1.434 . S
C2056 C2047 1.429 . S
C2056 N2053 1.350 . S
C2056 C2055 1.434 . S
C2057 C2058 1.369 . S
C2057 C2059 1.419 . S
C2057 H2061 0.930 . S
C2058 C2057 1.369 . S
C2058 C2067 1.429 . S
C2059 C2057 1.419 . S
C2059 C2060 1.363 . S
C2059 H2062 0.929 . S
C2060 C2059 1.363 . S
C2060 C2066 1.428 . S
H2061 C2057 0.930 . S
H2062 C2059 0.929 . S
S2063 N2064 1.613 . S
S2063 N2065 1.610 . S
N2064 S2063 1.613 . S
N2064 C2067 1.350 . S
N2065 S2063 1.610 . S
N2065 C2066 1.351 . S
C2066 C2060 1.428 . S
C2066 N2065 1.351 . S
C2066 C2067 1.434 . S
C2067 C2058 1.429 . S
C2067 N2064 1.350 . S
C2067 C2066 1.434 . S
C2068 C2069 1.369 . S
C2068 C2070 1.419 1_545 S
C2068 H2072 0.930 . S
C2069 C2068 1.369 . S
C2069 C2078 1.429 . S
C2070 C2068 1.419 1_565 S
C2070 C2071 1.363 . S
C2070 H2073 0.929 . S
C2071 C2070 1.363 . S
C2071 C2077 1.428 . S
H2072 C2068 0.930 . S
H2073 C2070 0.929 . S
S2074 N2075 1.564 1_565 S
S2074 N2076 1.666 . S
N2075 S2074 1.564 1_545 S
N2075 C2078 1.350 . S
N2076 S2074 1.666 . S
N2076 C2077 1.351 . S
C2077 C2071 1.428 . S
C2077 N2076 1.351 . S
C2077 C2078 1.434 1_565 S
C2078 C2069 1.429 . S
C2078 N2075 1.350 . S
C2078 C2077 1.434 1_545 S
C2079 C2080 1.369 . S
C2079 C2081 1.419 . S
C2079 H2083 0.930 . S
C2080 C2079 1.369 . S
C2080 C2089 1.429 . S
C2081 C2079 1.419 . S
C2081 C2082 1.363 . S
C2081 H2084 0.929 . S
C2082 C2081 1.363 . S
C2082 C2088 1.428 . S
H2083 C2079 0.930 . S
H2084 C2081 0.929 . S
S2085 N2086 1.613 . S
S2085 N2087 1.610 . S
N2086 S2085 1.613 . S
N2086 C2089 1.350 . S
N2087 S2085 1.610 . S
N2087 C2088 1.351 . S
C2088 C2082 1.428 . S
C2088 N2087 1.351 . S
C2088 C2089 1.434 . S
C2089 C2080 1.429 . S
C2089 N2086 1.350 . S
C2089 C2088 1.434 . S
C2090 C2091 1.369 . S
C2090 C2092 1.419 . S
C2090 H2094 0.930 . S
C2091 C2090 1.369 . S
C2091 C2100 1.429 . S
C2092 C2090 1.419 . S
C2092 C2093 1.363 . S
C2092 H2095 0.929 . S
C2093 C2092 1.363 . S
C2093 C2099 1.428 . S
H2094 C2090 0.930 . S
H2095 C2092 0.929 . S
S2096 N2097 1.613 . S
S2096 N2098 1.610 . S
N2097 S2096 1.613 . S
N2097 C2100 1.350 . S
N2098 S2096 1.610 . S
N2098 C2099 1.351 . S
C2099 C2093 1.428 . S
C2099 N2098 1.351 . S
C2099 C2100 1.434 . S
C2100 C2091 1.429 . S
C2100 N2097 1.350 . S
C2100 C2099 1.434 . S
C2101 C2102 1.369 . S
C2101 C2103 1.419 . S
C2101 H2105 0.930 . S
C2102 C2101 1.369 . S
C2102 C2111 1.429 . S
C2103 C2101 1.419 . S
C2103 C2104 1.363 . S
C2103 H2106 0.929 . S
C2104 C2103 1.363 . S
C2104 C2110 1.428 . S
H2105 C2101 0.930 . S
H2106 C2103 0.929 . S
S2107 N2108 1.613 . S
S2107 N2109 1.610 . S
N2108 S2107 1.613 . S
N2108 C2111 1.350 . S
N2109 S2107 1.610 . S
N2109 C2110 1.351 . S
C2110 C2104 1.428 . S
C2110 N2109 1.351 . S
C2110 C2111 1.434 . S
C2111 C2102 1.429 . S
C2111 N2108 1.350 . S
C2111 C2110 1.434 . S
C2112 C2113 1.369 . S
C2112 C2114 1.419 . S
C2112 H2116 0.930 . S
C2113 C2112 1.369 . S
C2113 C2122 1.429 . S
C2114 C2112 1.419 . S
C2114 C2115 1.363 . S
C2114 H2117 0.929 . S
C2115 C2114 1.363 . S
C2115 C2121 1.428 . S
H2116 C2112 0.930 . S
H2117 C2114 0.929 . S
S2118 N2119 1.613 . S
S2118 N2120 1.610 . S
N2119 S2118 1.613 . S
N2119 C2122 1.350 . S
N2120 S2118 1.610 . S
N2120 C2121 1.351 . S
C2121 C2115 1.428 . S
C2121 N2120 1.351 . S
C2121 C2122 1.434 . S
C2122 C2113 1.429 . S
C2122 N2119 1.350 . S
C2122 C2121 1.434 . S
C2123 C2124 1.369 . S
C2123 C2125 1.419 . S
C2123 H2127 0.930 . S
C2124 C2123 1.369 . S
C2124 C2133 1.429 . S
C2125 C2123 1.419 . S
C2125 C2126 1.363 . S
C2125 H2128 0.929 . S
C2126 C2125 1.363 . S
C2126 C2132 1.428 . S
H2127 C2123 0.930 . S
H2128 C2125 0.929 . S
S2129 N2130 1.613 . S
S2129 N2131 1.610 . S
N2130 S2129 1.613 . S
N2130 C2133 1.350 . S
N2131 S2129 1.610 . S
N2131 C2132 1.351 . S
C2132 C2126 1.428 . S
C2132 N2131 1.351 . S
C2132 C2133 1.434 . S
C2133 C2124 1.429 . S
C2133 N2130 1.350 . S
C2133 C2132 1.434 . S
C2134 C2135 1.369 . S
C2134 C2136 1.419 . S
C2134 H2138 0.930 . S
C2135 C2134 1.369 . S
C2135 C2144 1.429 . S
C2136 C2134 1.419 . S
C2136 C2137 1.363 . S
C2136 H2139 0.929 . S
C2137 C2136 1.363 . S
C2137 C2143 1.428 . S
H2138 C2134 0.930 . S
H2139 C2136 0.929 . S
S2140 N2141 1.613 . S
S2140 N2142 1.610 . S
N2141 S2140 1.613 . S
N2141 C2144 1.350 . S
N2142 S2140 1.610 . S
N2142 C2143 1.351 . S
C2143 C2137 1.428 . S
C2143 N2142 1.351 . S
C2143 C2144 1.434 . S
C2144 C2135 1.429 . S
C2144 N2141 1.350 . S
C2144 C2143 1.434 . S
C2145 C2146 1.369 . S
C2145 C2147 1.419 1_455 S
C2145 H2149 0.930 . S
C2146 C2145 1.369 . S
C2146 C2155 1.429 . S
C2147 C2145 1.419 1_655 S
C2147 C2148 1.363 . S
C2147 H2150 0.929 . S
C2148 C2147 1.363 . S
C2148 C2154 1.428 . S
H2149 C2145 0.930 . S
H2150 C2147 0.929 . S
S2151 N2152 1.613 . S
S2151 N2153 1.610 1_455 S
N2152 S2151 1.613 . S
N2152 C2155 1.350 . S
N2153 S2151 1.610 1_655 S
N2153 C2154 1.351 . S
C2154 C2148 1.428 . S
C2154 N2153 1.351 . S
C2154 C2155 1.434 1_655 S
C2155 C2146 1.429 . S
C2155 N2152 1.350 . S
C2155 C2154 1.434 1_455 S
C2156 C2157 1.369 . S
C2156 C2158 1.419 . S
C2156 H2160 0.930 . S
C2157 C2156 1.369 . S
C2157 C2166 1.429 . S
C2158 C2156 1.419 . S
C2158 C2159 1.363 . S
C2158 H2161 0.929 . S
C2159 C2158 1.363 . S
C2159 C2165 1.428 . S
H2160 C2156 0.930 . S
H2161 C2158 0.929 . S
S2162 N2163 1.613 . S
S2162 N2164 1.610 . S
N2163 S2162 1.613 . S
N2163 C2166 1.350 . S
N2164 S2162 1.610 . S
N2164 C2165 1.351 . S
C2165 C2159 1.428 . S
C2165 N2164 1.351 . S
C2165 C2166 1.434 . S
C2166 C2157 1.429 . S
C2166 N2163 1.350 . S
C2166 C2165 1.434 . S
C2167 C2168 1.369 . S
C2167 C2169 1.419 1_455 S
C2167 H2171 0.930 . S
C2168 C2167 1.369 . S
C2168 C2177 1.429 . S
C2169 C2167 1.419 1_655 S
C2169 C2170 1.363 . S
C2169 H2172 0.929 . S
C2170 C2169 1.363 . S
C2170 C2176 1.428 . S
H2171 C2167 0.930 . S
H2172 C2169 0.929 . S
S2173 N2174 1.613 . S
S2173 N2175 1.610 1_455 S
N2174 S2173 1.613 . S
N2174 C2177 1.350 . S
N2175 S2173 1.610 1_655 S
N2175 C2176 1.351 . S
C2176 C2170 1.428 . S
C2176 N2175 1.351 . S
C2176 C2177 1.434 1_655 S
C2177 C2168 1.429 . S
C2177 N2174 1.350 . S
C2177 C2176 1.434 1_455 S
C2178 C2179 1.369 . S
C2178 C2180 1.419 . S
C2178 H2182 0.930 . S
C2179 C2178 1.369 . S
C2179 C2188 1.429 . S
C2180 C2178 1.419 . S
C2180 C2181 1.363 . S
C2180 H2183 0.929 . S
C2181 C2180 1.363 . S
C2181 C2187 1.428 . S
H2182 C2178 0.930 . S
H2183 C2180 0.929 . S
S2184 N2185 1.613 . S
S2184 N2186 1.610 . S
N2185 S2184 1.613 . S
N2185 C2188 1.350 . S
N2186 S2184 1.610 . S
N2186 C2187 1.351 . S
C2187 C2181 1.428 . S
C2187 N2186 1.351 . S
C2187 C2188 1.434 . S
C2188 C2179 1.429 . S
C2188 N2185 1.350 . S
C2188 C2187 1.434 . S
C2189 C2190 1.369 . S
C2189 C2191 1.419 . S
C2189 H2193 0.930 . S
C2190 C2189 1.369 . S
C2190 C2199 1.429 . S
C2191 C2189 1.419 . S
C2191 C2192 1.363 . S
C2191 H2194 0.929 . S
C2192 C2191 1.363 . S
C2192 C2198 1.428 . S
H2193 C2189 0.930 . S
H2194 C2191 0.929 . S
S2195 N2196 1.613 . S
S2195 N2197 1.610 . S
N2196 S2195 1.613 . S
N2196 C2199 1.350 . S
N2197 S2195 1.610 . S
N2197 C2198 1.351 . S
C2198 C2192 1.428 . S
C2198 N2197 1.351 . S
C2198 C2199 1.434 . S
C2199 C2190 1.429 . S
C2199 N2196 1.350 . S
C2199 C2198 1.434 . S
C2200 C2201 1.369 . S
C2200 C2202 1.419 . S
C2200 H2204 0.930 . S
C2201 C2200 1.369 . S
C2201 C2210 1.429 . S
C2202 C2200 1.419 . S
C2202 C2203 1.363 . S
C2202 H2205 0.929 . S
C2203 C2202 1.363 . S
C2203 C2209 1.428 . S
H2204 C2200 0.930 . S
H2205 C2202 0.929 . S
S2206 N2207 1.613 . S
S2206 N2208 1.610 . S
N2207 S2206 1.613 . S
N2207 C2210 1.350 . S
N2208 S2206 1.610 . S
N2208 C2209 1.351 . S
C2209 C2203 1.428 . S
C2209 N2208 1.351 . S
C2209 C2210 1.434 . S
C2210 C2201 1.429 . S
C2210 N2207 1.350 . S
C2210 C2209 1.434 . S
C2211 C2212 1.369 1_556 S
C2211 C2213 1.419 . S
C2211 H2215 0.930 . S
C2212 C2211 1.369 1_554 S
C2212 C2221 1.429 . S
C2213 C2211 1.419 . S
C2213 C2214 1.363 . S
C2213 H2216 0.929 . S
C2214 C2213 1.363 . S
C2214 C2220 1.428 . S
H2215 C2211 0.930 . S
H2216 C2213 0.929 . S
S2217 N2218 1.613 . S
S2217 N2219 1.610 1_554 S
N2218 S2217 1.613 . S
N2218 C2221 1.350 . S
N2219 S2217 1.610 1_556 S
N2219 C2220 1.351 . S
C2220 C2214 1.428 . S
C2220 N2219 1.351 . S
C2220 C2221 1.434 1_556 S
C2221 C2212 1.429 . S
C2221 N2218 1.350 . S
C2221 C2220 1.434 1_554 S
C2222 C2223 1.369 . S
C2222 C2224 1.419 . S
C2222 H2226 0.930 . S
C2223 C2222 1.369 . S
C2223 C2232 1.429 . S
C2224 C2222 1.419 . S
C2224 C2225 1.363 . S
C2224 H2227 0.929 . S
C2225 C2224 1.363 . S
C2225 C2231 1.428 . S
H2226 C2222 0.930 . S
H2227 C2224 0.929 . S
S2228 N2229 1.613 . S
S2228 N2230 1.610 . S
N2229 S2228 1.613 . S
N2229 C2232 1.350 . S
N2230 S2228 1.610 . S
N2230 C2231 1.351 . S
C2231 C2225 1.428 . S
C2231 N2230 1.351 . S
C2231 C2232 1.434 . S
C2232 C2223 1.429 . S
C2232 N2229 1.350 . S
C2232 C2231 1.434 . S
C2233 C2234 1.369 . S
C2233 C2235 1.419 . S
C2233 H2237 0.930 . S
C2234 C2233 1.369 . S
C2234 C2243 1.429 . S
C2235 C2233 1.419 . S
C2235 C2236 1.363 . S
C2235 H2238 0.929 . S
C2236 C2235 1.363 . S
C2236 C2242 1.428 . S
H2237 C2233 0.930 . S
H2238 C2235 0.929 . S
S2239 N2240 1.613 . S
S2239 N2241 1.610 . S
N2240 S2239 1.613 . S
N2240 C2243 1.350 . S
N2241 S2239 1.610 . S
N2241 C2242 1.351 . S
C2242 C2236 1.428 . S
C2242 N2241 1.351 . S
C2242 C2243 1.434 . S
C2243 C2234 1.429 . S
C2243 N2240 1.350 . S
C2243 C2242 1.434 . S
C2244 C2245 1.369 . S
C2244 C2246 1.419 . S
C2244 H2248 0.930 . S
C2245 C2244 1.369 . S
C2245 C2254 1.429 . S
C2246 C2244 1.419 . S
C2246 C2247 1.363 . S
C2246 H2249 0.929 . S
C2247 C2246 1.363 . S
C2247 C2253 1.428 . S
H2248 C2244 0.930 . S
H2249 C2246 0.929 . S
S2250 N2251 1.613 . S
S2250 N2252 1.610 . S
N2251 S2250 1.613 . S
N2251 C2254 1.350 . S
N2252 S2250 1.610 . S
N2252 C2253 1.351 . S
C2253 C2247 1.428 . S
C2253 N2252 1.351 . S
C2253 C2254 1.434 . S
C2254 C2245 1.429 . S
C2254 N2251 1.350 . S
C2254 C2253 1.434 . S
C2255 C2256 1.369 . S
C2255 C2257 1.419 . S
C2255 H2259 0.930 . S
C2256 C2255 1.369 . S
C2256 C2265 1.429 . S
C2257 C2255 1.419 . S
C2257 C2258 1.363 . S
C2257 H2260 0.929 . S
C2258 C2257 1.363 . S
C2258 C2264 1.428 . S
H2259 C2255 0.930 . S
H2260 C2257 0.929 . S
S2261 N2262 1.613 . S
S2261 N2263 1.610 . S
N2262 S2261 1.613 . S
N2262 C2265 1.350 . S
N2263 S2261 1.610 . S
N2263 C2264 1.351 . S
C2264 C2258 1.428 . S
C2264 N2263 1.351 . S
C2264 C2265 1.434 . S
C2265 C2256 1.429 . S
C2265 N2262 1.350 . S
C2265 C2264 1.434 . S
C2266 C2267 1.369 . S
C2266 C2268 1.419 . S
C2266 H2270 0.930 . S
C2267 C2266 1.369 . S
C2267 C2276 1.429 . S
C2268 C2266 1.419 . S
C2268 C2269 1.363 . S
C2268 H2271 0.929 . S
C2269 C2268 1.363 . S
C2269 C2275 1.428 . S
H2270 C2266 0.930 . S
H2271 C2268 0.929 . S
S2272 N2273 1.613 . S
S2272 N2274 1.610 . S
N2273 S2272 1.613 . S
N2273 C2276 1.350 . S
N2274 S2272 1.610 . S
N2274 C2275 1.351 . S
C2275 C2269 1.428 . S
C2275 N2274 1.351 . S
C2275 C2276 1.434 . S
C2276 C2267 1.429 . S
C2276 N2273 1.350 . S
C2276 C2275 1.434 . S
C2277 C2278 1.369 . S
C2277 C2279 1.419 . S
C2277 H2281 0.930 . S
C2278 C2277 1.369 . S
C2278 C2287 1.429 . S
C2279 C2277 1.419 . S
C2279 C2280 1.363 . S
C2279 H2282 0.929 . S
C2280 C2279 1.363 . S
C2280 C2286 1.428 . S
H2281 C2277 0.930 . S
H2282 C2279 0.929 . S
S2283 N2284 1.613 . S
S2283 N2285 1.610 . S
N2284 S2283 1.613 . S
N2284 C2287 1.350 . S
N2285 S2283 1.610 . S
N2285 C2286 1.351 . S
C2286 C2280 1.428 . S
C2286 N2285 1.351 . S
C2286 C2287 1.434 . S
C2287 C2278 1.429 . S
C2287 N2284 1.350 . S
C2287 C2286 1.434 . S
C2288 C2289 1.369 . S
C2288 C2290 1.419 . S
C2288 H2292 0.930 . S
C2289 C2288 1.369 . S
C2289 C2298 1.429 . S
C2290 C2288 1.419 . S
C2290 C2291 1.363 . S
C2290 H2293 0.929 . S
C2291 C2290 1.363 . S
C2291 C2297 1.428 . S
H2292 C2288 0.930 . S
H2293 C2290 0.929 . S
S2294 N2295 1.613 . S
S2294 N2296 1.610 . S
N2295 S2294 1.613 . S
N2295 C2298 1.350 . S
N2296 S2294 1.610 . S
N2296 C2297 1.351 . S
C2297 C2291 1.428 . S
C2297 N2296 1.351 . S
C2297 C2298 1.434 . S
C2298 C2289 1.429 . S
C2298 N2295 1.350 . S
C2298 C2297 1.434 . S
C2299 C2300 1.369 . S
C2299 C2301 1.419 . S
C2299 H2303 0.930 . S
C2300 C2299 1.369 . S
C2300 C2309 1.429 . S
C2301 C2299 1.419 . S
C2301 C2302 1.363 . S
C2301 H2304 0.929 . S
C2302 C2301 1.363 . S
C2302 C2308 1.428 . S
H2303 C2299 0.930 . S
H2304 C2301 0.929 . S
S2305 N2306 1.613 . S
S2305 N2307 1.610 . S
N2306 S2305 1.613 . S
N2306 C2309 1.350 . S
N2307 S2305 1.610 . S
N2307 C2308 1.351 . S
C2308 C2302 1.428 . S
C2308 N2307 1.351 . S
C2308 C2309 1.434 . S
C2309 C2300 1.429 . S
C2309 N2306 1.350 . S
C2309 C2308 1.434 . S
C2310 C2311 1.376 . S
C2310 C2312 1.406 1_545 S
C2310 H2314 0.936 . S
C2311 C2310 1.376 . S
C2311 C2320 1.403 1_545 S
C2312 C2310 1.406 1_565 S
C2312 C2313 1.363 . S
C2312 H2315 0.929 . S
C2313 C2312 1.363 . S
C2313 C2319 1.428 . S
H2314 C2310 0.936 . S
H2315 C2312 0.929 . S
S2316 N2317 1.613 1_565 S
S2316 N2318 1.610 . S
N2317 S2316 1.613 1_545 S
N2317 C2320 1.333 1_545 S
N2318 S2316 1.610 . S
N2318 C2319 1.351 . S
C2319 C2313 1.428 . S
C2319 N2318 1.351 . S
C2319 C2320 1.483 . S
C2320 C2311 1.403 1_565 S
C2320 N2317 1.333 1_565 S
C2320 C2319 1.483 . S
C2321 C2322 1.369 . S
C2321 C2323 1.419 . S
C2321 H2325 0.930 . S
C2322 C2321 1.369 . S
C2322 C2331 1.429 . S
C2323 C2321 1.419 . S
C2323 C2324 1.363 . S
C2323 H2326 0.929 . S
C2324 C2323 1.363 . S
C2324 C2330 1.428 . S
H2325 C2321 0.930 . S
H2326 C2323 0.929 . S
S2327 N2328 1.613 . S
S2327 N2329 1.610 . S
N2328 S2327 1.613 . S
N2328 C2331 1.350 . S
N2329 S2327 1.610 . S
N2329 C2330 1.351 . S
C2330 C2324 1.428 . S
C2330 N2329 1.351 . S
C2330 C2331 1.434 . S
C2331 C2322 1.429 . S
C2331 N2328 1.350 . S
C2331 C2330 1.434 . S
C2332 C2333 1.369 . S
C2332 C2334 1.419 . S
C2332 H2336 0.930 . S
C2333 C2332 1.369 . S
C2333 C2342 1.429 . S
C2334 C2332 1.419 . S
C2334 C2335 1.363 . S
C2334 H2337 0.929 . S
C2335 C2334 1.363 . S
C2335 C2341 1.428 . S
H2336 C2332 0.930 . S
H2337 C2334 0.929 . S
S2338 N2339 1.613 . S
S2338 N2340 1.610 . S
N2339 S2338 1.613 . S
N2339 C2342 1.350 . S
N2340 S2338 1.610 . S
N2340 C2341 1.351 . S
C2341 C2335 1.428 . S
C2341 N2340 1.351 . S
C2341 C2342 1.434 . S
C2342 C2333 1.429 . S
C2342 N2339 1.350 . S
C2342 C2341 1.434 . S
C2343 C2344 1.369 . S
C2343 C2345 1.419 . S
C2343 H2347 0.930 . S
C2344 C2343 1.369 . S
C2344 C2353 1.429 . S
C2345 C2343 1.419 . S
C2345 C2346 1.363 . S
C2345 H2348 0.929 . S
C2346 C2345 1.363 . S
C2346 C2352 1.428 . S
H2347 C2343 0.930 . S
H2348 C2345 0.929 . S
S2349 N2350 1.613 . S
S2349 N2351 1.610 . S
N2350 S2349 1.613 . S
N2350 C2353 1.350 . S
N2351 S2349 1.610 . S
N2351 C2352 1.351 . S
C2352 C2346 1.428 . S
C2352 N2351 1.351 . S
C2352 C2353 1.434 . S
C2353 C2344 1.429 . S
C2353 N2350 1.350 . S
C2353 C2352 1.434 . S
C2354 C2355 1.369 . S
C2354 C2356 1.419 1_545 S
C2354 H2358 0.930 . S
C2355 C2354 1.369 . S
C2355 C2364 1.429 . S
C2356 C2354 1.419 1_565 S
C2356 C2357 1.363 . S
C2356 H2359 0.929 . S
C2357 C2356 1.363 . S
C2357 C2363 1.413 1_565 S
H2358 C2354 0.930 . S
H2359 C2356 0.929 . S
S2360 N2361 1.613 . S
S2360 N2362 1.610 1_545 S
N2361 S2360 1.613 . S
N2361 C2364 1.350 . S
N2362 S2360 1.610 1_565 S
N2362 C2363 1.346 1_565 S
C2363 C2357 1.413 1_545 S
C2363 N2362 1.346 1_545 S
C2363 C2364 1.457 . S
C2364 C2355 1.429 . S
C2364 N2361 1.350 . S
C2364 C2363 1.457 . S
C2365 C2366 1.369 1_545 S
C2365 C2367 1.419 . S
C2365 H2369 0.930 . S
C2366 C2365 1.369 1_565 S
C2366 C2375 1.411 1_565 S
C2367 C2365 1.419 . S
C2367 C2368 1.363 . S
C2367 H2370 0.929 . S
C2368 C2367 1.363 . S
C2368 C2374 1.428 . S
H2369 C2365 0.930 . S
H2370 C2367 0.929 . S
S2371 N2372 1.613 1_545 S
S2371 N2373 1.610 . S
N2372 S2371 1.613 1_565 S
N2372 C2375 1.306 1_565 S
N2373 S2371 1.610 . S
N2373 C2374 1.351 . S
C2374 C2368 1.428 . S
C2374 N2373 1.351 . S
C2374 C2375 1.503 . S
C2375 C2366 1.411 1_545 S
C2375 N2372 1.306 1_545 S
C2375 C2374 1.503 . S
C2376 C2377 1.369 . S
C2376 C2378 1.419 . S
C2376 H2380 0.930 . S
C2377 C2376 1.369 . S
C2377 C2386 1.429 . S
C2378 C2376 1.419 . S
C2378 C2379 1.363 . S
C2378 H2381 0.929 . S
C2379 C2378 1.363 . S
C2379 C2385 1.428 . S
H2380 C2376 0.930 . S
H2381 C2378 0.929 . S
S2382 N2383 1.613 . S
S2382 N2384 1.610 . S
N2383 S2382 1.613 . S
N2383 C2386 1.350 . S
N2384 S2382 1.610 . S
N2384 C2385 1.351 . S
C2385 C2379 1.428 . S
C2385 N2384 1.351 . S
C2385 C2386 1.434 . S
C2386 C2377 1.429 . S
C2386 N2383 1.350 . S
C2386 C2385 1.434 . S
C2387 C2388 1.369 . S
C2387 C2389 1.419 . S
C2387 H2391 0.930 . S
C2388 C2387 1.369 . S
C2388 C2397 1.429 . S
C2389 C2387 1.419 . S
C2389 C2390 1.363 . S
C2389 H2392 0.929 . S
C2390 C2389 1.363 . S
C2390 C2396 1.428 . S
H2391 C2387 0.930 . S
H2392 C2389 0.929 . S
S2393 N2394 1.613 . S
S2393 N2395 1.610 . S
N2394 S2393 1.613 . S
N2394 C2397 1.350 . S
N2395 S2393 1.610 . S
N2395 C2396 1.351 . S
C2396 C2390 1.428 . S
C2396 N2395 1.351 . S
C2396 C2397 1.434 . S
C2397 C2388 1.429 . S
C2397 N2394 1.350 . S
C2397 C2396 1.434 . S
C2398 C2399 1.369 . S
C2398 C2400 1.419 . S
C2398 H2402 0.930 . S
C2399 C2398 1.369 . S
C2399 C2408 1.429 . S
C2400 C2398 1.419 . S
C2400 C2401 1.363 . S
C2400 H2403 0.929 . S
C2401 C2400 1.363 . S
C2401 C2407 1.428 . S
H2402 C2398 0.930 . S
H2403 C2400 0.929 . S
S2404 N2405 1.613 . S
S2404 N2406 1.610 . S
N2405 S2404 1.613 . S
N2405 C2408 1.350 . S
N2406 S2404 1.610 . S
N2406 C2407 1.351 . S
C2407 C2401 1.428 . S
C2407 N2406 1.351 . S
C2407 C2408 1.434 . S
C2408 C2399 1.429 . S
C2408 N2405 1.350 . S
C2408 C2407 1.434 . S
C2409 C2410 1.335 1_655 S
C2409 C2411 1.419 . S
C2409 H2413 0.904 1_655 S
C2410 C2409 1.335 1_455 S
C2410 C2419 1.377 1_455 S
C2411 C2409 1.419 . S
C2411 C2412 1.363 . S
C2411 H2414 0.929 . S
C2412 C2411 1.363 . S
C2412 C2418 1.428 . S
H2413 C2409 0.904 1_455 S
H2414 C2411 0.929 . S
S2415 N2416 1.613 . S
S2415 N2417 1.610 . S
N2416 S2415 1.613 . S
N2416 C2419 1.350 . S
N2417 S2415 1.610 . S
N2417 C2418 1.351 . S
C2418 C2412 1.428 . S
C2418 N2417 1.351 . S
C2418 C2419 1.434 . S
C2419 C2410 1.377 1_655 S
C2419 N2416 1.350 . S
C2419 C2418 1.434 . S
C2420 C2421 1.369 . S
C2420 C2422 1.419 . S
C2420 H2424 0.930 . S
C2421 C2420 1.369 . S
C2421 C2430 1.429 . S
C2422 C2420 1.419 . S
C2422 C2423 1.363 . S
C2422 H2425 0.929 . S
C2423 C2422 1.363 . S
C2423 C2429 1.428 . S
H2424 C2420 0.930 . S
H2425 C2422 0.929 . S
S2426 N2427 1.613 . S
S2426 N2428 1.610 . S
N2427 S2426 1.613 . S
N2427 C2430 1.350 . S
N2428 S2426 1.610 . S
N2428 C2429 1.351 . S
C2429 C2423 1.428 . S
C2429 N2428 1.351 . S
C2429 C2430 1.434 . S
C2430 C2421 1.429 . S
C2430 N2427 1.350 . S
C2430 C2429 1.434 . S
C2431 C2432 1.369 . S
C2431 C2433 1.419 . S
C2431 H2435 0.930 . S
C2432 C2431 1.369 . S
C2432 C2441 1.429 . S
C2433 C2431 1.419 . S
C2433 C2434 1.345 1_655 S
C2433 H2436 0.914 1_655 S
C2434 C2433 1.345 1_455 S
C2434 C2440 1.400 1_455 S
H2435 C2431 0.930 . S
H2436 C2433 0.914 1_455 S
S2437 N2438 1.613 . S
S2437 N2439 1.610 . S
N2438 S2437 1.613 . S
N2438 C2441 1.350 . S
N2439 S2437 1.610 . S
N2439 C2440 1.351 . S
C2440 C2434 1.400 1_655 S
C2440 N2439 1.351 . S
C2440 C2441 1.434 . S
C2441 C2432 1.429 . S
C2441 N2438 1.350 . S
C2441 C2440 1.434 . S
C2442 C2443 1.369 . S
C2442 C2444 1.419 . S
C2442 H2446 0.930 . S
C2443 C2442 1.369 . S
C2443 C2452 1.429 . S
C2444 C2442 1.419 . S
C2444 C2445 1.363 . S
C2444 H2447 0.929 . S
C2445 C2444 1.363 . S
C2445 C2451 1.428 . S
H2446 C2442 0.930 . S
H2447 C2444 0.929 . S
S2448 N2449 1.613 . S
S2448 N2450 1.610 . S
N2449 S2448 1.613 . S
N2449 C2452 1.350 . S
N2450 S2448 1.610 . S
N2450 C2451 1.351 . S
C2451 C2445 1.428 . S
C2451 N2450 1.351 . S
C2451 C2452 1.434 . S
C2452 C2443 1.429 . S
C2452 N2449 1.350 . S
C2452 C2451 1.434 . S
C2453 C2454 1.369 . S
C2453 C2455 1.419 . S
C2453 H2457 0.930 . S
C2454 C2453 1.369 . S
C2454 C2463 1.429 . S
C2455 C2453 1.419 . S
C2455 C2456 1.363 . S
C2455 H2458 0.929 . S
C2456 C2455 1.363 . S
C2456 C2462 1.428 . S
H2457 C2453 0.930 . S
H2458 C2455 0.929 . S
S2459 N2460 1.613 . S
S2459 N2461 1.610 . S
N2460 S2459 1.613 . S
N2460 C2463 1.350 . S
N2461 S2459 1.610 . S
N2461 C2462 1.351 . S
C2462 C2456 1.428 . S
C2462 N2461 1.351 . S
C2462 C2463 1.434 . S
C2463 C2454 1.429 . S
C2463 N2460 1.350 . S
C2463 C2462 1.434 . S
C2464 C2465 1.369 . S
C2464 C2466 1.419 . S
C2464 H2468 0.930 . S
C2465 C2464 1.369 . S
C2465 C2474 1.429 . S
C2466 C2464 1.419 . S
C2466 C2467 1.363 . S
C2466 H2469 0.929 . S
C2467 C2466 1.363 . S
C2467 C2473 1.428 . S
H2468 C2464 0.930 . S
H2469 C2466 0.929 . S
S2470 N2471 1.613 . S
S2470 N2472 1.610 . S
N2471 S2470 1.613 . S
N2471 C2474 1.350 . S
N2472 S2470 1.610 . S
N2472 C2473 1.351 . S
C2473 C2467 1.428 . S
C2473 N2472 1.351 . S
C2473 C2474 1.434 . S
C2474 C2465 1.429 . S
C2474 N2471 1.350 . S
C2474 C2473 1.434 . S
C2475 C2476 1.369 . S
C2475 C2477 1.419 1_554 S
C2475 H2479 0.930 . S
C2476 C2475 1.369 . S
C2476 C2485 1.408 1_554 S
C2477 C2475 1.419 1_556 S
C2477 C2478 1.363 . S
C2477 H2480 0.929 . S
C2478 C2477 1.363 . S
C2478 C2484 1.428 . S
H2479 C2475 0.930 . S
H2480 C2477 0.929 . S
S2481 N2482 1.613 1_556 S
S2481 N2483 1.610 . S
N2482 S2481 1.613 1_554 S
N2482 C2485 1.343 1_554 S
N2483 S2481 1.610 . S
N2483 C2484 1.351 . S
C2484 C2478 1.428 . S
C2484 N2483 1.351 . S
C2484 C2485 1.465 . S
C2485 C2476 1.408 1_556 S
C2485 N2482 1.343 1_556 S
C2485 C2484 1.465 . S
C2486 C2487 1.369 . S
C2486 C2488 1.419 . S
C2486 H2490 0.930 . S
C2487 C2486 1.369 . S
C2487 C2496 1.429 . S
C2488 C2486 1.419 . S
C2488 C2489 1.363 . S
C2488 H2491 0.929 . S
C2489 C2488 1.363 . S
C2489 C2495 1.428 . S
H2490 C2486 0.930 . S
H2491 C2488 0.929 . S
S2492 N2493 1.613 . S
S2492 N2494 1.610 . S
N2493 S2492 1.613 . S
N2493 C2496 1.350 . S
N2494 S2492 1.610 . S
N2494 C2495 1.351 . S
C2495 C2489 1.428 . S
C2495 N2494 1.351 . S
C2495 C2496 1.434 . S
C2496 C2487 1.429 . S
C2496 N2493 1.350 . S
C2496 C2495 1.434 . S
C2497 C2498 1.369 . S
C2497 C2499 1.419 . S
C2497 H2501 0.930 . S
C2498 C2497 1.369 . S
C2498 C2507 1.429 . S
C2499 C2497 1.419 . S
C2499 C2500 1.363 . S
C2499 H2502 0.929 . S
C2500 C2499 1.363 . S
C2500 C2506 1.428 . S
H2501 C2497 0.930 . S
H2502 C2499 0.929 . S
S2503 N2504 1.613 . S
S2503 N2505 1.610 . S
N2504 S2503 1.613 . S
N2504 C2507 1.350 . S
N2505 S2503 1.610 . S
N2505 C2506 1.351 . S
C2506 C2500 1.428 . S
C2506 N2505 1.351 . S
C2506 C2507 1.434 . S
C2507 C2498 1.429 . S
C2507 N2504 1.350 . S
C2507 C2506 1.434 . S
C2508 C2509 1.369 . S
C2508 C2510 1.419 . S
C2508 H2512 0.930 . S
C2509 C2508 1.369 . S
C2509 C2518 1.429 . S
C2510 C2508 1.419 . S
C2510 C2511 1.363 . S
C2510 H2513 0.929 . S
C2511 C2510 1.363 . S
C2511 C2517 1.428 . S
H2512 C2508 0.930 . S
H2513 C2510 0.929 . S
S2514 N2515 1.613 . S
S2514 N2516 1.610 . S
N2515 S2514 1.613 . S
N2515 C2518 1.350 . S
N2516 S2514 1.610 . S
N2516 C2517 1.351 . S
C2517 C2511 1.428 . S
C2517 N2516 1.351 . S
C2517 C2518 1.434 . S
C2518 C2509 1.429 . S
C2518 N2515 1.350 . S
C2518 C2517 1.434 . S
C2519 C2520 1.369 . S
C2519 C2521 1.419 . S
C2519 H2523 0.930 . S
C2520 C2519 1.369 . S
C2520 C2529 1.429 . S
C2521 C2519 1.419 . S
C2521 C2522 1.363 1_554 S
C2521 H2524 0.929 1_554 S
C2522 C2521 1.363 1_556 S
C2522 C2528 1.428 1_556 S
H2523 C2519 0.930 . S
H2524 C2521 0.929 1_556 S
S2525 N2526 1.613 . S
S2525 N2527 1.610 1_554 S
N2526 S2525 1.613 . S
N2526 C2529 1.350 . S
N2527 S2525 1.610 1_556 S
N2527 C2528 1.351 1_556 S
C2528 C2522 1.428 1_554 S
C2528 N2527 1.351 1_554 S
C2528 C2529 1.434 . S
C2529 C2520 1.429 . S
C2529 N2526 1.350 . S
C2529 C2528 1.434 . S
C2530 C2531 1.369 . S
C2530 C2532 1.419 . S
C2530 H2534 0.930 . S
C2531 C2530 1.369 . S
C2531 C2540 1.429 . S
C2532 C2530 1.419 . S
C2532 C2533 1.363 . S
C2532 H2535 0.929 . S
C2533 C2532 1.363 . S
C2533 C2539 1.428 . S
H2534 C2530 0.930 . S
H2535 C2532 0.929 . S
S2536 N2537 1.613 . S
S2536 N2538 1.610 . S
N2537 S2536 1.613 . S
N2537 C2540 1.350 . S
N2538 S2536 1.610 . S
N2538 C2539 1.351 . S
C2539 C2533 1.428 . S
C2539 N2538 1.351 . S
C2539 C2540 1.434 . S
C2540 C2531 1.429 . S
C2540 N2537 1.350 . S
C2540 C2539 1.434 . S
C2541 C2542 1.369 . S
C2541 C2543 1.419 . S
C2541 H2545 0.930 . S
C2542 C2541 1.369 . S
C2542 C2551 1.429 . S
C2543 C2541 1.419 . S
C2543 C2544 1.363 . S
C2543 H2546 0.929 . S
C2544 C2543 1.363 . S
C2544 C2550 1.428 . S
H2545 C2541 0.930 . S
H2546 C2543 0.929 . S
S2547 N2548 1.613 . S
S2547 N2549 1.610 . S
N2548 S2547 1.613 . S
N2548 C2551 1.350 . S
N2549 S2547 1.610 . S
N2549 C2550 1.351 . S
C2550 C2544 1.428 . S
C2550 N2549 1.351 . S
C2550 C2551 1.434 . S
C2551 C2542 1.429 . S
C2551 N2548 1.350 . S
C2551 C2550 1.434 . S
C2552 C2553 1.369 . S
C2552 C2554 1.419 . S
C2552 H2556 0.930 . S
C2553 C2552 1.369 . S
C2553 C2562 1.429 . S
C2554 C2552 1.419 . S
C2554 C2555 1.363 . S
C2554 H2557 0.929 . S
C2555 C2554 1.363 . S
C2555 C2561 1.428 . S
H2556 C2552 0.930 . S
H2557 C2554 0.929 . S
S2558 N2559 1.613 . S
S2558 N2560 1.610 . S
N2559 S2558 1.613 . S
N2559 C2562 1.350 . S
N2560 S2558 1.610 . S
N2560 C2561 1.351 . S
C2561 C2555 1.428 . S
C2561 N2560 1.351 . S
C2561 C2562 1.434 . S
C2562 C2553 1.429 . S
C2562 N2559 1.350 . S
C2562 C2561 1.434 . S
C2563 C2564 1.369 . S
C2563 C2565 1.419 . S
C2563 H2567 0.930 . S
C2564 C2563 1.369 . S
C2564 C2573 1.429 . S
C2565 C2563 1.419 . S
C2565 C2566 1.363 . S
C2565 H2568 0.929 . S
C2566 C2565 1.363 . S
C2566 C2572 1.428 . S
H2567 C2563 0.930 . S
H2568 C2565 0.929 . S
S2569 N2570 1.613 . S
S2569 N2571 1.610 . S
N2570 S2569 1.613 . S
N2570 C2573 1.350 . S
N2571 S2569 1.610 . S
N2571 C2572 1.351 . S
C2572 C2566 1.428 . S
C2572 N2571 1.351 . S
C2572 C2573 1.434 . S
C2573 C2564 1.429 . S
C2573 N2570 1.350 . S
C2573 C2572 1.434 . S
C2574 C2575 1.380 . S
C2574 C2576 1.401 1_565 S
C2574 H2578 0.937 . S
C2575 C2574 1.380 . S
C2575 C2584 1.429 . S
C2576 C2574 1.401 1_545 S
C2576 C2577 1.363 . S
C2576 H2579 0.929 . S
C2577 C2576 1.363 . S
C2577 C2583 1.428 . S
H2578 C2574 0.937 . S
H2579 C2576 0.929 . S
S2580 N2581 1.613 1_545 S
S2580 N2582 1.610 . S
N2581 S2580 1.613 1_565 S
N2581 C2584 1.350 . S
N2582 S2580 1.610 . S
N2582 C2583 1.351 . S
C2583 C2577 1.428 . S
C2583 N2582 1.351 . S
C2583 C2584 1.434 1_545 S
C2584 C2575 1.429 . S
C2584 N2581 1.350 . S
C2584 C2583 1.434 1_565 S
C2585 C2586 1.369 . S
C2585 C2587 1.419 . S
C2585 H2589 0.930 . S
C2586 C2585 1.369 . S
C2586 C2595 1.429 . S
C2587 C2585 1.419 . S
C2587 C2588 1.363 . S
C2587 H2590 0.929 . S
C2588 C2587 1.363 . S
C2588 C2594 1.428 . S
H2589 C2585 0.930 . S
H2590 C2587 0.929 . S
S2591 N2592 1.613 . S
S2591 N2593 1.610 . S
N2592 S2591 1.613 . S
N2592 C2595 1.350 . S
N2593 S2591 1.610 . S
N2593 C2594 1.351 . S
C2594 C2588 1.428 . S
C2594 N2593 1.351 . S
C2594 C2595 1.434 . S
C2595 C2586 1.429 . S
C2595 N2592 1.350 . S
C2595 C2594 1.434 . S
C2596 C2597 1.369 . S
C2596 C2598 1.419 . S
C2596 H2600 0.930 . S
C2597 C2596 1.369 . S
C2597 C2606 1.429 . S
C2598 C2596 1.419 . S
C2598 C2599 1.363 . S
C2598 H2601 0.929 . S
C2599 C2598 1.363 . S
C2599 C2605 1.428 . S
H2600 C2596 0.930 . S
H2601 C2598 0.929 . S
S2602 N2603 1.613 . S
S2602 N2604 1.610 . S
N2603 S2602 1.613 . S
N2603 C2606 1.350 . S
N2604 S2602 1.610 . S
N2604 C2605 1.351 . S
C2605 C2599 1.428 . S
C2605 N2604 1.351 . S
C2605 C2606 1.434 . S
C2606 C2597 1.429 . S
C2606 N2603 1.350 . S
C2606 C2605 1.434 . S
C2607 C2608 1.369 . S
C2607 C2609 1.419 . S
C2607 H2611 0.930 . S
C2608 C2607 1.369 . S
C2608 C2617 1.429 . S
C2609 C2607 1.419 . S
C2609 C2610 1.363 . S
C2609 H2612 0.929 . S
C2610 C2609 1.363 . S
C2610 C2616 1.428 . S
H2611 C2607 0.930 . S
H2612 C2609 0.929 . S
S2613 N2614 1.613 . S
S2613 N2615 1.610 . S
N2614 S2613 1.613 . S
N2614 C2617 1.350 . S
N2615 S2613 1.610 . S
N2615 C2616 1.351 . S
C2616 C2610 1.428 . S
C2616 N2615 1.351 . S
C2616 C2617 1.434 . S
C2617 C2608 1.429 . S
C2617 N2614 1.350 . S
C2617 C2616 1.434 . S
C2618 C2619 1.369 . S
C2618 C2620 1.426 1_565 S
C2618 H2622 0.930 . S
C2619 C2618 1.369 . S
C2619 C2628 1.429 . S
C2620 C2618 1.426 1_545 S
C2620 C2621 1.359 . S
C2620 H2623 0.926 . S
C2621 C2620 1.359 . S
C2621 C2627 1.417 1_545 S
H2622 C2618 0.930 . S
H2623 C2620 0.926 . S
S2624 N2625 1.613 . S
S2624 N2626 1.610 1_565 S
N2625 S2624 1.613 . S
N2625 C2628 1.350 . S
N2626 S2624 1.610 1_545 S
N2626 C2627 1.342 1_545 S
C2627 C2621 1.417 1_565 S
C2627 N2626 1.342 1_565 S
C2627 C2628 1.457 . S
C2628 C2619 1.429 . S
C2628 N2625 1.350 . S
C2628 C2627 1.457 . S
C2629 C2630 1.369 . S
C2629 C2631 1.419 1_565 S
C2629 H2633 0.930 . S
C2630 C2629 1.369 . S
C2630 C2639 1.429 . S
C2631 C2629 1.419 1_545 S
C2631 C2632 1.363 . S
C2631 H2634 0.929 . S
C2632 C2631 1.363 . S
C2632 C2638 1.428 . S
H2633 C2629 0.930 . S
H2634 C2631 0.929 . S
S2635 N2636 1.613 1_545 S
S2635 N2637 1.610 . S
N2636 S2635 1.613 1_565 S
N2636 C2639 1.350 . S
N2637 S2635 1.610 . S
N2637 C2638 1.351 . S
C2638 C2632 1.428 . S
C2638 N2637 1.351 . S
C2638 C2639 1.434 1_545 S
C2639 C2630 1.429 . S
C2639 N2636 1.350 . S
C2639 C2638 1.434 1_565 S
C1057 C8 1.528 . S
C1059 C107 1.529 . S
C1068 C19 1.625 . S
C1070 C118 1.576 . S
C1079 C129 1.456 . S
C1081 C30 1.488 . S
C1090 C96 1.552 . S
C1092 C41 1.522 . S
C1101 C52 1.534 . S
C1103 C173 1.535 . S
C1112 C63 1.524 . S
C1114 C140 1.556 . S
C1123 C151 1.452 . S
C1125 C74 1.485 . S
C1134 C85 1.638 . S
C1136 C162 1.587 . S
C1145 C206 1.590 . S
C1147 C184 1.558 . S
C1156 C778 1.591 . S
C1158 C195 1.562 . S
C1167 C789 1.540 . S
C1169 C217 1.587 . S
C1178 C767 1.581 . S
C1180 C228 1.538 . S
C1189 C756 1.539 . S
C1191 C239 1.586 . S
C1200 C250 1.596 . S
C1202 C723 1.571 . S
C1211 C261 1.537 . S
C1213 C745 1.579 . S
C1222 C371 1.553 . S
C1224 C272 1.545 . S
C1233 C382 1.562 . S
C1235 C283 1.592 . S
C1244 C294 1.539 . S
C1246 C393 1.530 . S
C1255 C360 1.626 . S
C1257 C305 1.581 . S
C1266 C316 1.549 . S
C1268 C437 1.555 . S
C1277 C327 1.585 . S
C1279 C404 1.630 . S
C1288 C415 1.537 . S
C1290 C338 1.547 . S
C1299 C349 1.606 . S
C1301 C426 1.566 . S
C1310 C470 1.648 . S
C1312 C448 1.608 . S
C1321 C1042 1.648 . S
C1323 C459 1.603 . S
C1332 C481 1.567 . S
C1334 C1053 1.565 . S
C1343 C492 1.563 . S
C1345 C1031 1.564 . S
C1354 C503 1.566 . S
C1356 C1020 1.565 . S
C1365 C987 1.605 . S
C1367 C514 1.645 . S
C1376 C525 1.563 . S
C1378 C1009 1.565 . S
C1387 C536 1.527 . S
C1389 C635 1.537 . S
C1398 C547 1.639 . S
C1400 C646 1.585 . S
C1409 C657 1.452 . S
C1411 C558 1.484 . S
C1420 C624 1.557 . S
C1422 C569 1.530 . S
C1431 C701 1.533 . S
C1433 C580 1.527 . S
C1442 C591 1.518 . S
C1444 C668 1.552 . S
C1453 C602 1.487 . S
C1455 C679 1.455 . S
C1464 C613 1.623 . S
C1466 C690 1.580 . S
C1475 C734 1.599 . S
C1477 C712 1.568 . S
C1486 C800 1.550 . S
C1488 C899 1.555 . S
C1497 C811 1.605 . S
C1499 C910 1.570 . S
C1508 C822 1.546 . S
C1510 C921 1.535 . S
C1519 C833 1.591 . S
C1521 C888 1.631 . S
C1530 C965 1.554 . S
C1532 C844 1.546 . S
C1541 C932 1.625 . S
C1543 C855 1.583 . S
C1552 C866 1.538 . S
C1554 C943 1.531 . S
C1563 C954 1.565 . S
C1565 C877 1.593 . S
C1574 C998 1.643 . S
C1576 C976 1.604 . S
C1585 C7 1.554 . S
C1587 C832 1.582 . S
C1596 C269 1.260 . S
C1598 C16 1.294 . S
C1607 C808 1.457 . S
C1609 C29 1.466 . S
C1618 C40 1.613 . S
C1620 C291 1.666 . S
C1629 C51 1.548 . S
C1631 C854 1.580 . S
C1640 C335 1.676 . S
C1642 C62 1.617 . S
C1651 C874 1.453 . S
C1653 C73 1.460 . S
C1662 C82 1.340 . S
C1664 C313 1.300 . S
C1673 C995 1.588 . S
C1675 C95 1.556 . S
C1684 C106 1.467 . S
C1686 C478 1.514 . S
C1695 C117 1.446 . S
C1697 C489 1.436 . S
C1706 C128 1.549 1_554 S
C1708 C458 1.575 . S
C1717 C1039 1.602 . S
C1719 C139 1.562 . S
C1728 C975 1.576 . S
C1730 C150 1.548 . S
C1739 C161 1.445 . S
C1741 C1050 1.440 . S
C1750 C1028 1.513 . S
C1752 C172 1.462 . S
C1761 C896 1.731 . S
C1763 C183 1.642 . S
C1772 C434 1.725 . S
C1774 C194 1.637 . S
C1783 C929 1.611 . S
C1785 C205 1.553 . S
C1794 C412 1.146 . S
C1796 C214 1.154 . S
C1805 C227 1.470 . S
C1807 C425 1.499 . S
C1816 C918 1.154 . S
C1818 C236 1.155 . S
C1827 C885 1.619 . S
C1829 C249 1.557 . S
C1838 C909 1.505 . S
C1840 C260 1.462 . S
C1849 C271 1.496 . S
C1851 C566 1.138 . S
C1860 C282 1.756 . S
C1862 C5 1.362 . S
C1871 C546 1.668 . S
C1873 C293 1.657 . S
C1882 C27 1.164 . S
C1884 C302 1.119 . S
C1893 C315 1.513 . S
C1895 C588 1.154 . S
C1904 C71 1.175 . S
C1906 C324 1.126 . S
C1915 C337 1.653 . S
C1917 C612 1.661 . S
C1926 C49 1.365 . S
C1928 C348 1.758 . S
C1937 C731 1.227 . S
C1939 C359 1.584 . S
C1948 C370 1.588 . S
C1950 C216 1.567 . S
C1959 C225 1.237 . S
C1961 C379 1.336 . S
C1970 C192 1.142 . S
C1972 C392 1.513 . S
C1981 C403 1.580 . S
C1983 C775 1.230 . S
C1992 C414 1.512 . S
C1994 C709 1.146 . S
C2003 C423 1.321 . S
C2005 C786 1.257 . S
C2014 C766 1.565 . S
C2016 C436 1.578 . S
C2025 C445 1.162 . S
C2027 C632 1.152 . S
C2036 C456 1.167 . S
C2038 C170 1.137 . S
C2047 C469 1.559 . S
C2049 C665 1.250 . S
C2058 C480 1.717 . S
C2060 C148 1.319 . S
C2069 C159 1.221 . S
C2071 C491 1.646 . S
C2080 C654 1.322 . S
C2082 C502 1.714 . S
C2091 C513 1.572 . S
C2093 C621 1.236 . S
C2102 C524 1.645 . S
C2104 C643 1.223 . S
C2113 C535 1.549 . S
C2115 C304 1.581 . S
C2124 C544 1.336 . S
C2126 C797 1.306 . S
C2135 C280 1.457 . S
C2137 C557 1.457 . S
C2146 C819 1.675 . S
C2148 C568 1.613 . S
C2157 C579 1.557 . S
C2159 C326 1.576 . S
C2168 C863 1.668 . S
C2170 C590 1.612 . S
C2179 C601 1.457 . S
C2181 C346 1.453 . S
C2190 C841 1.262 . S
C2192 C610 1.298 . S
C2201 C623 1.554 . S
C2203 C467 1.600 . S
C2212 C1006 1.523 . S
C2214 C634 1.467 . S
C2223 C645 1.442 . S
C2225 C1017 1.438 . S
C2234 C986 1.575 . S
C2236 C656 1.547 . S
C2245 C511 1.588 . S
C2247 C667 1.555 . S
C2256 C447 1.578 . S
C2258 C678 1.551 1_556 S
C2267 C689 1.437 . S
C2269 C522 1.426 . S
C2278 C700 1.468 . S
C2280 C500 1.516 . S
C2289 C711 1.649 . S
C2291 C368 1.738 . S
C2300 C722 1.639 . S
C2302 C962 1.733 . S
C2311 C401 1.614 . S
C2313 C733 1.551 . S
C2322 C742 1.185 . S
C2324 C940 1.155 . S
C2333 C953 1.500 . S
C2335 C755 1.450 . S
C2344 C764 1.189 . S
C2346 C390 1.153 . S
C2355 C777 1.544 . S
C2357 C357 1.609 . S
C2366 C788 1.454 . S
C2368 C381 1.497 . S
C2377 C38 1.157 . S
C2379 C799 1.513 . S
C2388 C533 1.347 . S
C2390 C810 1.762 . S
C2399 C18 1.665 . S
C2401 C821 1.656 . S
C2410 C830 1.195 . S
C2412 C555 1.172 . S
C2421 C843 1.495 . S
C2423 C60 1.141 . S
C2432 C599 1.177 . S
C2434 C852 1.155 . S
C2443 C865 1.657 . S
C2445 C84 1.668 . S
C2454 C577 1.345 . S
C2456 C876 1.761 . S
C2465 C887 1.583 . S
C2467 C203 1.225 . S
C2476 C898 1.575 . S
C2478 C744 1.563 . S
C2487 C753 1.247 . S
C2489 C907 1.337 . S
C2498 C720 1.152 . S
C2500 C920 1.510 . S
C2509 C247 1.230 . S
C2511 C931 1.584 . S
C2520 C181 1.130 . S
C2522 C942 1.515 . S
C2531 C951 1.324 . S
C2533 C258 1.234 . S
C2542 C964 1.587 . S
C2544 C238 1.565 . S
C2553 C973 1.157 . S
C2555 C104 1.151 . S
C2564 C984 1.175 . S
C2566 C698 1.141 . S
C2575 C137 1.239 . S
C2577 C997 1.569 . S
C2586 C676 1.337 . S
C2588 C1008 1.714 . S
C2597 C687 1.241 . S
C2599 C1019 1.640 . S
C2608 C126 1.318 . S
C2610 C1030 1.717 . S
C2619 C1041 1.563 . S
C2621 C93 1.242 . S
C2630 C115 1.235 . S
C2632 C1052 1.640 . S
