# Generated by pormake.
# Topology lhb, (8)-cn, num edge types: 1
# Building blocks:
#     Node 0, Type 0, BuildingBlock: TAGTUT_clean_sbu_1, # of connection points: 8
#     Node 1, Type 0, BuildingBlock: TAGTUT_clean_sbu_1, # of connection points: 8
#     Node 2, Type 0, BuildingBlock: TAGTUT_clean_sbu_1, # of connection points: 8
#     Node 3, Type 0, BuildingBlock: TAGTUT_clean_sbu_1, # of connection points: 8
#     Node 4, Type 0, BuildingBlock: TAGTUT_clean_sbu_1, # of connection points: 8
#     Node 5, Type 0, BuildingBlock: TAGTUT_clean_sbu_1, # of connection points: 8
#     Node 6, Type 0, BuildingBlock: TAGTUT_clean_sbu_1, # of connection points: 8
#     Node 7, Type 0, BuildingBlock: TAGTUT_clean_sbu_1, # of connection points: 8
#     Edge 8, Type (0, 0), BuildingBlock: ZUJKAS_clean_linker_0, # of connection points: 2
#     Edge 9, Type (0, 0), BuildingBlock: ZUJKAS_clean_linker_0, # of connection points: 2
#     Edge 10, Type (0, 0), BuildingBlock: ZUJKAS_clean_linker_0, # of connection points: 2
#     Edge 11, Type (0, 0), BuildingBlock: ZUJKAS_clean_linker_0, # of connection points: 2
#     Edge 12, Type (0, 0), BuildingBlock: ZUJKAS_clean_linker_0, # of connection points: 2
#     Edge 13, Type (0, 0), BuildingBlock: ZUJKAS_clean_linker_0, # of connection points: 2
#     Edge 14, Type (0, 0), BuildingBlock: ZUJKAS_clean_linker_0, # of connection points: 2
#     Edge 15, Type (0, 0), BuildingBlock: ZUJKAS_clean_linker_0, # of connection points: 2
#     Edge 16, Type (0, 0), BuildingBlock: ZUJKAS_clean_linker_0, # of connection points: 2
#     Edge 17, Type (0, 0), BuildingBlock: ZUJKAS_clean_linker_0, # of connection points: 2
#     Edge 18, Type (0, 0), BuildingBlock: ZUJKAS_clean_linker_0, # of connection points: 2
#     Edge 19, Type (0, 0), BuildingBlock: ZUJKAS_clean_linker_0, # of connection points: 2
#     Edge 20, Type (0, 0), BuildingBlock: ZUJKAS_clean_linker_0, # of connection points: 2
#     Edge 21, Type (0, 0), BuildingBlock: ZUJKAS_clean_linker_0, # of connection points: 2
#     Edge 22, Type (0, 0), BuildingBlock: ZUJKAS_clean_linker_0, # of connection points: 2
#     Edge 23, Type (0, 0), BuildingBlock: ZUJKAS_clean_linker_0, # of connection points: 2
#     Edge 24, Type (0, 0), BuildingBlock: ZUJKAS_clean_linker_0, # of connection points: 2
#     Edge 25, Type (0, 0), BuildingBlock: ZUJKAS_clean_linker_0, # of connection points: 2
#     Edge 26, Type (0, 0), BuildingBlock: ZUJKAS_clean_linker_0, # of connection points: 2
#     Edge 27, Type (0, 0), BuildingBlock: ZUJKAS_clean_linker_0, # of connection points: 2
#     Edge 28, Type (0, 0), BuildingBlock: ZUJKAS_clean_linker_0, # of connection points: 2
#     Edge 29, Type (0, 0), BuildingBlock: ZUJKAS_clean_linker_0, # of connection points: 2
#     Edge 30, Type (0, 0), BuildingBlock: ZUJKAS_clean_linker_0, # of connection points: 2
#     Edge 31, Type (0, 0), BuildingBlock: ZUJKAS_clean_linker_0, # of connection points: 2
#     Edge 32, Type (0, 0), BuildingBlock: ZUJKAS_clean_linker_0, # of connection points: 2
#     Edge 33, Type (0, 0), BuildingBlock: ZUJKAS_clean_linker_0, # of connection points: 2
#     Edge 34, Type (0, 0), BuildingBlock: ZUJKAS_clean_linker_0, # of connection points: 2
#     Edge 35, Type (0, 0), BuildingBlock: ZUJKAS_clean_linker_0, # of connection points: 2
#     Edge 36, Type (0, 0), BuildingBlock: ZUJKAS_clean_linker_0, # of connection points: 2
#     Edge 37, Type (0, 0), BuildingBlock: ZUJKAS_clean_linker_0, # of connection points: 2
#     Edge 38, Type (0, 0), BuildingBlock: ZUJKAS_clean_linker_0, # of connection points: 2
#     Edge 39, Type (0, 0), BuildingBlock: ZUJKAS_clean_linker_0, # of connection points: 2
# Relax obj value: 0.070
# Max RMSD: 0.161
# Mean RMSD: 0.161
data_MOF--net-lhb--node1-TAGTUT_clean_sbu_1--edge1-ZUJKAS_clean_linker_0
_symmetry_space_group_name_H-M    P1
_symmetry_Int_Tables_number       1
_symmetry_cell_setting            triclinic
loop_
_symmetry_equiv_pos_as_xyz
'x, y, z'
_cell_length_a     41.830593
_cell_length_b     18.613531
_cell_length_c     74.971828
_cell_angle_alpha  95.243004
_cell_angle_beta   90.17877
_cell_angle_gamma 90.043984
loop_
_atom_site_label
_atom_site_type_symbol
_atom_site_fract_x
_atom_site_fract_y
_atom_site_fract_z
_atom_type_partial_charge
C0 C 0.05485 0.05354 0.06762 0.0
C1 C 0.08545 0.07678 0.01377 0.0
C2 C 0.95914 0.1491 1.006 0.0
Mg3 Mg 0.05237 0.9542 0.03179 0.0
O4 O 0.01426 0.00319 0.02868 0.0
Mg5 Mg 0.01268 0.11011 0.03301 0.0
Mg6 Mg 0.98919 -0.00769 1.0058 0.0
O7 O 0.96313 0.98129 0.98331 0.0
Mg8 Mg 0.92258 0.02295 0.98316 0.0
Mg9 Mg 0.96462 0.87406 0.97778 0.0
C10 C 0.00747 0.82807 0.01369 0.0
C11 C 0.03538 0.94144 0.97215 0.0
O12 O 0.03856 0.1 0.05984 0.0
O13 O 0.06208 -0.00836 0.0597 0.0
O14 O 0.06279 0.11971 0.01941 0.0
O15 O 0.08471 0.00921 0.01568 0.0
O16 O 0.03169 0.84753 0.02366 0.0
O17 O 0.991 0.87307 1.00555 0.0
C18 C 0.94319 0.03747 0.03984 0.0
O19 O 0.94656 -0.00153 0.02493 0.0
O20 O 0.96409 0.08513 0.04542 0.0
O21 O 0.94063 0.89644 0.95017 0.0
O22 O 0.91482 0.00288 0.95507 0.0
O23 O 0.91446 0.85317 0.98986 0.0
C24 C 0.92403 0.94854 0.94464 0.0
O25 O 0.89018 0.95845 0.99658 0.0
O26 O 0.93404 0.1257 0.99746 0.0
C27 C 0.89081 0.8901 0.99645 0.0
O28 O 0.98503 0.11239 0.00648 0.0
O29 O 0.03315 0.98332 0.98671 0.0
O30 O 0.01308 0.89783 0.96666 0.0
C31 C 0.34528 0.23414 0.19526 0.0
C32 C 0.37531 0.15528 0.24569 0.0
C33 C 0.24747 0.10865 0.2538 0.0
Mg34 Mg 0.34848 0.29735 0.23511 0.0
O35 O 0.30696 0.25931 0.23448 0.0
Mg36 Mg 0.30149 0.1553 0.22606 0.0
Mg37 Mg 0.28183 0.26277 0.25706 0.0
O38 O 0.25688 0.26792 0.27998 0.0
Mg39 Mg 0.21536 0.23207 0.28057 0.0
Mg40 Mg 0.26301 0.37365 0.28712 0.0
C41 C 0.31314 0.42418 0.25777 0.0
C42 C 0.32905 0.28334 0.29158 0.0
O43 O 0.32652 0.18379 0.19965 0.0
O44 O 0.35646 0.28299 0.20676 0.0
O45 O 0.35114 0.12399 0.23776 0.0
O46 O 0.37776 0.22376 0.24793 0.0
O47 O 0.33763 0.40342 0.24837 0.0
O48 O 0.29048 0.38084 0.26091 0.0
C49 C 0.23309 0.23582 0.22318 0.0
O50 O 0.23781 0.27192 0.23841 0.0
O51 O 0.25339 0.19039 0.21612 0.0
O52 O 0.23586 0.35578 0.31306 0.0
O53 O 0.20631 0.25453 0.30917 0.0
O54 O 0.21451 0.40605 0.27419 0.0
C55 C 0.21673 0.30975 0.31905 0.0
O56 O 0.18683 0.30471 0.26715 0.0
O57 O 0.22433 0.13109 0.26415 0.0
C58 C 0.19006 0.37272 0.26716 0.0
O59 O 0.27368 0.14394 0.25266 0.0
O60 O 0.32447 0.25096 0.2759 0.0
O61 O 0.3099 0.33246 0.29834 0.0
C62 C 0.84325 0.76434 0.19799 0.0
C63 C 0.87986 0.67073 0.24562 0.0
C64 C 0.75688 0.57951 0.25473 0.0
Mg65 Mg 0.84284 0.80786 0.23894 0.0
O66 O 0.80521 0.75382 0.23706 0.0
Mg67 Mg 0.8068 0.65356 0.22544 0.0
Mg68 Mg 0.77899 0.73782 0.25826 0.0
O69 O 0.75109 0.72381 0.27975 0.0
Mg70 Mg 0.71071 0.67788 0.27712 0.0
Mg71 Mg 0.75233 0.82578 0.29104 0.0
C72 C 0.80069 0.90817 0.26606 0.0
C73 C 0.82256 0.75068 0.29439 0.0
O74 O 0.82952 0.70431 0.20073 0.0
O75 O 0.85002 0.81235 0.2108 0.0
O76 O 0.85777 0.63397 0.23708 0.0
O77 O 0.87784 0.73895 0.249 0.0
O78 O 0.82591 0.89982 0.25636 0.0
O79 O 0.77958 0.85822 0.26647 0.0
C80 C 0.7344 0.71408 0.22228 0.0
O81 O 0.73554 0.74312 0.23851 0.0
O82 O 0.7578 0.6777 0.21526 0.0
O83 O 0.72589 0.78162 0.3143 0.0
O84 O 0.70235 0.67475 0.30604 0.0
O85 O 0.70319 0.85736 0.27904 0.0
C86 C 0.70988 0.72613 0.31803 0.0
O87 O 0.67768 0.75582 0.26914 0.0
O88 O 0.7292 0.60833 0.25402 0.0
C89 C 0.67913 0.82426 0.27158 0.0
O90 O 0.78175 0.61623 0.25126 0.0
O91 O 0.82103 0.7284 0.27771 0.0
O92 O 0.80034 0.78949 0.30205 0.0
C93 C 0.05122 0.5413 0.57162 0.0
C94 C 0.082 0.59323 0.51944 0.0
C95 C 0.96613 0.6478 0.50333 0.0
Mg96 Mg 0.05443 0.45603 0.53386 0.0
O97 O 0.0135 0.49321 0.53184 0.0
Mg98 Mg 0.00804 0.60033 0.5376 0.0
Mg99 Mg 0.98947 0.48313 0.50839 0.0
O100 O 0.96522 0.47627 0.48539 0.0
Mg101 Mg 0.92494 0.52079 0.48492 0.0
Mg102 Mg 0.9684 0.37073 0.47895 0.0
C103 C 0.02127 0.32844 0.50819 0.0
C104 C 0.03874 0.44165 0.47547 0.0
O105 O 0.03309 0.58703 0.56467 0.0
O106 O 0.06155 0.48406 0.56254 0.0
O107 O 0.05749 0.62838 0.52563 0.0
O108 O 0.08455 0.52535 0.52019 0.0
O109 O 0.04451 0.35268 0.51837 0.0
O110 O 0.99528 0.3637 0.50626 0.0
C111 C 0.94076 0.51352 0.54191 0.0
O112 O 0.94588 0.47905 0.52658 0.0
O113 O 0.9599 0.56315 0.54852 0.0
O114 O 0.94436 0.39439 0.45138 0.0
O115 O 0.91619 0.49708 0.45695 0.0
O116 O 0.91831 0.35079 0.49117 0.0
C117 C 0.9263 0.44473 0.4462 0.0
O118 O 0.8935 0.4553 0.49907 0.0
O119 O 0.94119 0.62981 0.49394 0.0
C120 C 0.89463 0.38647 0.49829 0.0
O121 O 0.98357 0.60108 0.51013 0.0
O122 O 0.03428 0.48302 0.48997 0.0
O123 O 0.01755 0.39669 0.469 0.0
C124 C 0.35221 0.72365 0.69698 0.0
C125 C 0.38012 0.62052 0.74533 0.0
C126 C 0.25282 0.56905 0.75129 0.0
Mg127 Mg 0.35379 0.76834 0.73782 0.0
O128 O 0.31228 0.7313 0.73575 0.0
Mg129 Mg 0.30751 0.63017 0.72476 0.0
Mg130 Mg 0.28543 0.72628 0.75753 0.0
O131 O 0.25914 0.72214 0.77978 0.0
Mg132 Mg 0.21768 0.68518 0.7792 0.0
Mg133 Mg 0.26578 0.82424 0.79008 0.0
C134 C 0.31934 0.88368 0.76473 0.0
C135 C 0.33126 0.72983 0.79272 0.0
O136 O 0.33454 0.6692 0.6999 0.0
O137 O 0.36206 0.76915 0.70968 0.0
O138 O 0.35601 0.5914 0.73684 0.0
O139 O 0.3828 0.6887 0.74831 0.0
O140 O 0.34393 0.8653 0.75517 0.0
O141 O 0.29444 0.84359 0.76496 0.0
C142 C 0.23979 0.71452 0.72203 0.0
O143 O 0.24251 0.74276 0.73831 0.0
O144 O 0.261 0.67235 0.71457 0.0
O145 O 0.23803 0.7948 0.81471 0.0
O146 O 0.20783 0.69598 0.80804 0.0
O147 O 0.21748 0.86327 0.77786 0.0
C148 C 0.21855 0.74664 0.81929 0.0
O149 O 0.18975 0.76495 0.76775 0.0
O150 O 0.22905 0.58736 0.76166 0.0
C151 C 0.19297 0.83334 0.76991 0.0
O152 O 0.27747 0.60943 0.75013 0.0
O153 O 0.32701 0.70503 0.77634 0.0
O154 O 0.31218 0.77659 0.80059 0.0
C155 C 0.85097 0.21023 0.69647 0.0
C156 C 0.88498 0.14671 0.74775 0.0
C157 C 0.7598 0.06234 0.75472 0.0
Mg158 Mg 0.84911 0.27713 0.73596 0.0
O159 O 0.8106 0.22522 0.73522 0.0
Mg160 Mg 0.81198 0.12057 0.72739 0.0
Mg161 Mg 0.78549 0.22243 0.75768 0.0
O162 O 0.76079 0.22277 0.78071 0.0
Mg163 Mg 0.72178 0.17569 0.78226 0.0
Mg164 Mg 0.76177 0.32964 0.78779 0.0
C165 C 0.80394 0.3927 0.75616 0.0
C166 C 0.83236 0.25708 0.79198 0.0
O167 O 0.83544 0.15476 0.70089 0.0
O168 O 0.85869 0.26292 0.70785 0.0
O169 O 0.86295 0.10691 0.74001 0.0
O170 O 0.88297 0.2154 0.74937 0.0
O171 O 0.82991 0.37995 0.74734 0.0
O172 O 0.78602 0.34202 0.76078 0.0
C173 C 0.73933 0.17953 0.72339 0.0
O174 O 0.74109 0.21557 0.73884 0.0
O175 O 0.76258 0.14152 0.71664 0.0
O176 O 0.73824 0.30493 0.81427 0.0
O177 O 0.71449 0.1959 0.81117 0.0
O178 O 0.71089 0.34853 0.77588 0.0
C179 C 0.72269 0.25388 0.82076 0.0
O180 O 0.68785 0.24076 0.76978 0.0
O181 O 0.73579 0.07947 0.76499 0.0
C182 C 0.68752 0.30916 0.76962 0.0
O183 O 0.78477 0.10213 0.75396 0.0
O184 O 0.82885 0.22426 0.7763 0.0
O185 O 0.81125 0.30154 0.79875 0.0
C186 C 0.55218 -0.00968 0.57162 0.0
C187 C 0.59258 0.04725 0.5222 0.0
C188 C 0.47429 0.1472 0.50865 0.0
Mg189 Mg 0.55252 0.91701 0.53258 0.0
O190 O 0.51634 0.9743 0.53074 0.0
Mg191 Mg 0.51843 0.07958 0.53902 0.0
Mg192 Mg 0.49221 0.98281 0.50808 0.0
O193 O 0.46596 -0.00664 0.48622 0.0
Mg194 Mg 0.42694 0.04398 0.48992 0.0
Mg195 Mg 0.46204 0.89043 0.47674 0.0
C196 C 0.50909 0.81256 0.50498 0.0
C197 C 0.53669 0.93593 0.47353 0.0
O198 O 0.5395 0.04526 0.56523 0.0
O199 O 0.55794 0.93146 0.56179 0.0
O200 O 0.56985 0.08893 0.52811 0.0
O201 O 0.59028 0.97859 0.52168 0.0
O202 O 0.53345 0.82296 0.51555 0.0
O203 O 0.48812 0.86182 0.50307 0.0
C204 C 0.44564 0.02189 0.54231 0.0
O205 O 0.44853 -0.01114 0.52666 0.0
O206 O 0.46801 0.06234 0.54926 0.0
O207 O 0.439 0.93896 0.45175 0.0
O208 O 0.41947 0.0484 0.4617 0.0
O209 O 0.41136 0.87267 0.48842 0.0
C210 C 0.42575 -0.00039 0.44895 0.0
O211 O 0.39117 0.97711 0.49986 0.0
O212 O 0.44544 0.12577 0.50986 0.0
C213 C 0.3891 0.90908 0.49663 0.0
O214 O 0.49738 0.10497 0.51176 0.0
O215 O 0.53629 0.96983 0.48925 0.0
O216 O 0.51191 0.90509 0.46634 0.0
C217 C 0.54701 0.56361 0.07008 0.0
C218 C 0.58058 0.58866 0.01645 0.0
C219 C 0.45559 0.64267 1.00196 0.0
Mg220 Mg 0.5509 0.46161 0.03466 0.0
O221 O 0.51283 0.50488 0.02895 0.0
Mg222 Mg 0.5058 0.6097 0.03385 0.0
Mg223 Mg 0.48973 0.48716 1.00535 0.0
O224 O 0.46552 0.47071 0.98229 0.0
Mg225 Mg 0.42405 0.50615 0.98065 0.0
Mg226 Mg 0.47072 0.36407 0.97747 0.0
C227 C 0.50649 0.33273 0.01789 0.0
C228 C 0.53871 0.44567 0.97244 0.0
O229 O 0.52973 0.60673 0.06177 0.0
O230 O 0.55695 0.50347 0.06243 0.0
O231 O 0.55649 0.62865 0.02152 0.0
O232 O 0.58177 0.5212 0.01866 0.0
O233 O 0.52815 0.35611 0.02919 0.0
O234 O 0.49765 0.36861 1.00501 0.0
C235 C 0.44014 0.51723 0.03855 0.0
O236 O 0.44614 0.48142 0.02349 0.0
O237 O 0.45824 0.56922 0.04495 0.0
O238 O 0.44648 0.37716 0.94939 0.0
O239 O 0.41712 0.47891 0.95269 0.0
O240 O 0.42121 0.33692 0.98962 0.0
C241 C 0.42822 0.42448 0.94301 0.0
O242 O 0.39382 0.43945 0.99487 0.0
O243 O 0.43271 0.61531 0.99211 0.0
C244 C 0.39645 0.3716 0.99561 0.0
O245 O 0.48004 0.60611 0.00628 0.0
O246 O 0.53447 0.48775 0.98686 0.0
O247 O 0.5184 0.39722 0.9668 0.0
H248 H 0.03968 0.17445 0.08943 0.0
H249 H 0.0631 0.21564 0.11842 0.0
H250 H 0.12015 0.02241 0.11683 0.0
H251 H 0.09707 0.98068 0.08763 0.0
H252 H 0.06648 0.15292 0.15178 0.0
H253 H 0.18582 0.18976 0.1216 0.0
H254 H 0.14988 0.17696 0.1083 0.0
H255 H 0.16909 0.10107 0.11698 0.0
C256 C 0.05706 0.14025 0.09524 0.0
C257 C 0.06677 0.0745 0.08605 0.0
C258 C 0.07032 0.16391 0.11187 0.0
C259 C 0.09367 0.12264 0.11962 0.0
C260 C 0.10248 0.05558 0.11091 0.0
H261 H 0.18382 0.14289 0.22177 0.0
H262 H 0.14401 0.12749 0.19778 0.0
C263 C 0.08916 0.03168 0.09426 0.0
C264 C 0.10989 0.1515 0.13638 0.0
H265 H 0.1829 0.20404 0.15326 0.0
C266 C 0.09191 0.16446 0.15214 0.0
C267 C 0.1429 0.16805 0.13668 0.0
C268 C 0.16308 0.15896 0.11997 0.0
C269 C 0.10638 0.19115 0.16837 0.0
C270 C 0.13966 0.20467 0.16881 0.0
C271 C 0.15736 0.19381 0.15291 0.0
C272 C 0.15742 0.22442 0.18572 0.0
C273 C 0.08598 0.20466 0.18488 0.0
C274 C 0.1775 0.28532 0.1873 0.0
C275 C 0.2002 0.29421 0.20108 0.0
C276 C 0.20304 0.24226 0.21339 0.0
C277 C 0.18139 0.18449 0.21264 0.0
C278 C 0.15868 0.17566 0.19892 0.0
H279 H 0.06056 0.21357 0.18134 0.0
H280 H 0.08702 0.15677 0.19266 0.0
H281 H 0.09468 0.25215 0.1936 0.0
H282 H 0.1771 0.32324 0.17716 0.0
H283 H 0.21725 0.33811 0.20119 0.0
H284 H 0.90147 0.92347 0.03553 0.0
H285 H 0.87142 0.87173 0.05909 0.0
H286 H 0.89993 0.04986 0.09663 0.0
H287 H 0.92941 0.10277 0.07312 0.0
H288 H 0.90224 0.82699 0.08782 0.0
H289 H 0.80872 0.02123 0.11163 0.0
H290 H 0.8281 0.02446 0.09022 0.0
H291 H 0.84669 0.06516 0.11039 0.0
C292 C 0.90036 0.95324 0.0486 0.0
C293 C 0.91814 0.01716 0.05243 0.0
C294 C 0.88328 0.9232 0.06211 0.0
C295 C 0.88336 0.95683 0.07965 0.0
C296 C 0.899 0.02345 0.08315 0.0
H297 H 0.87567 0.88061 0.18762 0.0
H298 H 0.88154 0.91774 0.15752 0.0
C299 C 0.91604 0.05357 0.06967 0.0
C300 C 0.87147 0.91804 0.09476 0.0
H301 H 0.82816 0.94215 0.13334 0.0
C302 C 0.88541 0.85125 0.09756 0.0
C303 C 0.84948 0.94958 0.10745 0.0
C304 C 0.83215 0.01871 0.10466 0.0
C305 C 0.87969 0.81782 0.11331 0.0
C306 C 0.85935 0.85187 0.1265 0.0
C307 C 0.84397 0.91645 0.12324 0.0
C308 C 0.8564 0.82581 0.14451 0.0
C309 C 0.89693 0.74871 0.11626 0.0
C310 C 0.84065 0.761 0.14715 0.0
C311 C 0.83724 0.73922 0.16447 0.0
C312 C 0.84946 0.78214 0.1794 0.0
C313 C 0.86584 0.84615 0.17652 0.0
C314 C 0.86916 0.86774 0.1593 0.0
H315 H 0.91462 0.73344 0.10556 0.0
H316 H 0.9095 0.75411 0.12939 0.0
H317 H 0.8793 0.70427 0.11653 0.0
H318 H 0.83045 0.72812 0.13588 0.0
H319 H 0.82431 0.68991 0.1662 0.0
H320 H 0.07365 0.32623 0.46373 0.0
H321 H 0.11537 0.32075 0.44108 0.0
H322 H 0.11246 0.5524 0.44103 0.0
H323 H 0.07066 0.5581 0.46424 0.0
H324 H 0.09815 0.4715 0.40754 0.0
H325 H 0.21044 0.3755 0.43654 0.0
H326 H 0.17584 0.32633 0.4427 0.0
H327 H 0.17942 0.42074 0.45004 0.0
C328 C 0.08282 0.37625 0.45942 0.0
C329 C 0.06909 0.44256 0.46566 0.0
C330 C 0.10674 0.37309 0.44651 0.0
C331 C 0.11715 0.43613 0.43944 0.0
C332 C 0.10491 0.5032 0.44646 0.0
H333 H 0.2421 0.40348 0.34551 0.0
H334 H 0.21999 0.43822 0.37517 0.0
C335 C 0.0812 0.5065 0.45972 0.0
C336 C 0.13636 0.42926 0.42281 0.0
H337 H 0.20379 0.34998 0.40457 0.0
C338 C 0.12156 0.4464 0.40692 0.0
C339 C 0.16681 0.39623 0.42204 0.0
C340 C 0.18422 0.37921 0.43877 0.0
C341 C 0.13565 0.42782 0.39019 0.0
C342 C 0.16516 0.39072 0.38934 0.0
C343 C 0.18086 0.37727 0.40527 0.0
C344 C 0.17979 0.36515 0.37196 0.0
C345 C 0.11857 0.44669 0.37349 0.0
C346 C 0.16496 0.31093 0.36055 0.0
C347 C 0.17761 0.29049 0.34358 0.0
C348 C 0.20522 0.32433 0.33772 0.0
C349 C 0.22064 0.37669 0.34952 0.0
C350 C 0.20811 0.39662 0.3665 0.0
H351 H 0.10005 0.48875 0.37653 0.0
H352 H 0.13576 0.46614 0.36373 0.0
H353 H 0.10661 0.39773 0.36704 0.0
H354 H 0.14324 0.28542 0.36467 0.0
H355 H 0.16516 0.25004 0.33486 0.0
H356 H 0.84022 0.79904 0.32854 0.0
H357 H 0.86895 0.73095 0.34986 0.0
H358 H 0.88696 0.56075 0.30818 0.0
H359 H 0.85853 0.62889 0.28664 0.0
H360 H 0.85271 0.5193 0.33922 0.0
H361 H 0.96354 0.67124 0.35832 0.0
H362 H 0.92842 0.72657 0.35775 0.0
H363 H 0.94284 0.67933 0.33738 0.0
C364 C 0.8512 0.74827 0.32374 0.0
C365 C 0.84693 0.71944 0.30588 0.0
C366 C 0.86768 0.70939 0.33595 0.0
C367 C 0.88012 0.6408 0.33061 0.0
C368 C 0.87767 0.61373 0.31256 0.0
H369 H 0.96461 0.40789 0.4171 0.0
H370 H 0.95603 0.44144 0.38641 0.0
C371 C 0.86154 0.65306 0.30024 0.0
C372 C 0.89162 0.5943 0.34438 0.0
H373 H 0.9444 0.59038 0.37914 0.0
C374 C 0.87318 0.5339 0.34772 0.0
C375 C 0.9184 0.61305 0.35539 0.0
C376 C 0.93967 0.67572 0.35197 0.0
C377 C 0.87957 0.49476 0.36249 0.0
C378 C 0.90506 0.51642 0.37419 0.0
C379 C 0.92481 0.57382 0.37017 0.0
C380 C 0.909 0.48656 0.39178 0.0
C381 C 0.85826 0.43212 0.36589 0.0
C382 C 0.88522 0.4995 0.40481 0.0
C383 C 0.89007 0.48069 0.4222 0.0
C384 C 0.91881 0.44828 0.42698 0.0
C385 C 0.94202 0.43169 0.41371 0.0
C386 C 0.93727 0.45144 0.39625 0.0
H387 H 0.84559 0.41054 0.35354 0.0
H388 H 0.87225 0.388 0.37119 0.0
H389 H 0.83995 0.45046 0.37597 0.0
H390 H 0.86345 0.52752 0.40177 0.0
H391 H 0.87185 0.49458 0.43216 0.0
H392 H 0.10101 0.48195 0.58917 0.0
H393 H 0.12202 0.52138 0.61892 0.0
H394 H 0.04649 0.67871 0.62654 0.0
H395 H 0.02582 0.6409 0.59667 0.0
H396 H 0.10226 0.73962 0.6344 0.0
H397 H 0.0947 0.4907 0.66894 0.0
H398 H 0.11579 0.47478 0.64818 0.0
H399 H 0.07424 0.50032 0.64805 0.0
C400 C 0.0885 0.52399 0.59729 0.0
C401 C 0.06178 0.55833 0.59047 0.0
C402 C 0.10044 0.54628 0.61438 0.0
C403 C 0.0856 0.60246 0.62513 0.0
C404 C 0.05832 0.63517 0.61856 0.0
H405 H 0.17705 0.69648 0.7307 0.0
H406 H 0.13217 0.68301 0.70931 0.0
C407 C 0.04654 0.6134 0.60144 0.0
C408 C 0.10023 0.63138 0.64245 0.0
H409 H 0.13291 0.58016 0.6811 0.0
C410 C 0.1084 0.70492 0.64476 0.0
C411 C 0.10764 0.58688 0.65622 0.0
C412 C 0.09729 0.50899 0.65531 0.0
C413 C 0.12567 0.73386 0.65983 0.0
C414 C 0.13565 0.68781 0.67278 0.0
C415 C 0.12555 0.61549 0.67111 0.0
C416 C 0.16008 0.71046 0.6866 0.0
C417 C 0.13371 0.81321 0.66151 0.0
C418 C 0.19029 0.73247 0.68109 0.0
C419 C 0.21559 0.74052 0.69324 0.0
C420 C 0.21128 0.72684 0.71118 0.0
C421 C 0.18067 0.70929 0.71705 0.0
C422 C 0.1552 0.70074 0.70479 0.0
H423 H 0.1151 0.84461 0.65502 0.0
H424 H 0.13612 0.83495 0.67575 0.0
H425 H 0.15667 0.8214 0.65461 0.0
H426 H 0.19496 0.73857 0.66711 0.0
H427 H 0.23914 0.75291 0.68835 0.0
H428 H 0.81479 0.16296 0.66718 0.0
H429 H 0.82042 0.1996 0.63662 0.0
H430 H 0.90658 0.31586 0.65249 0.0
H431 H 0.90091 0.28066 0.68293 0.0
H432 H 0.82623 0.36196 0.63054 0.0
H433 H 0.92554 0.18753 0.60315 0.0
H434 H 0.89931 0.1619 0.62063 0.0
H435 H 0.93062 0.2265 0.62585 0.0
C436 C 0.83538 0.19465 0.66399 0.0
C437 C 0.85748 0.2188 0.6774 0.0
C438 C 0.83839 0.21601 0.64661 0.0
C439 C 0.86391 0.26036 0.64236 0.0
C440 C 0.88683 0.2813 0.6555 0.0
H441 H 0.92164 0.57071 0.5752 0.0
H442 H 0.89433 0.50618 0.59766 0.0
C443 C 0.88358 0.26105 0.67286 0.0
C444 C 0.86583 0.28983 0.62472 0.0
H445 H 0.91439 0.29274 0.58836 0.0
C446 C 0.84506 0.34597 0.62109 0.0
C447 C 0.89031 0.26863 0.61244 0.0
C448 C 0.91265 0.20745 0.61556 0.0
C449 C 0.84936 0.38423 0.60594 0.0
C450 C 0.87513 0.36593 0.59426 0.0
C451 C 0.89467 0.30693 0.59735 0.0
C452 C 0.88442 0.41085 0.57975 0.0
C453 C 0.82683 0.44499 0.60279 0.0
C454 C 0.88699 0.37974 0.56206 0.0
C455 C 0.90267 0.41649 0.54918 0.0
C456 C 0.91638 0.48487 0.55378 0.0
C457 C 0.91139 0.51826 0.57116 0.0
C458 C 0.89564 0.48146 0.58403 0.0
H459 H 0.80355 0.43877 0.60959 0.0
H460 H 0.83762 0.49685 0.6083 0.0
H461 H 0.82246 0.44789 0.58826 0.0
H462 H 0.87858 0.32522 0.55848 0.0
H463 H 0.90629 0.38856 0.53606 0.0
H464 H 0.16162 0.70049 0.83249 0.0
H465 H 0.13916 0.73558 0.86224 0.0
H466 H 0.22686 0.84586 0.87803 0.0
H467 H 0.24916 0.81233 0.8484 0.0
H468 H 0.1581 0.72046 0.89823 0.0
H469 H 0.15976 0.00691 0.88271 0.0
H470 H 0.16617 0.9329 0.86584 0.0
H471 H 0.19776 0.962 0.88113 0.0
C472 C 0.17631 0.73089 0.84243 0.0
C473 C 0.20695 0.75456 0.83802 0.0
C474 C 0.16345 0.75108 0.8594 0.0
C475 C 0.1811 0.79481 0.87218 0.0
C476 C 0.21256 0.81363 0.86823 0.0
H477 H 0.09772 0.90991 0.97953 0.0
H478 H 0.13967 0.88064 0.95697 0.0
C479 C 0.22528 0.79414 0.8513 0.0
C480 C 0.16586 0.82519 0.88906 0.0
H481 H 0.14047 0.98373 0.91104 0.0
C482 C 0.15451 0.77803 0.90116 0.0
C483 C 0.16108 0.90042 0.89276 0.0
C484 C 0.17156 0.95363 0.87989 0.0
C485 C 0.13786 0.80396 0.9167 0.0
C486 C 0.1328 0.87911 0.92028 0.0
C487 C 0.14487 0.92632 0.9084 0.0
C488 C 0.11075 0.90841 0.93459 0.0
C489 C 0.12437 0.75057 0.92867 0.0
C490 C 0.08151 0.93752 0.9296 0.0
C491 C 0.05794 0.95452 0.94236 0.0
C492 C 0.0633 0.94372 0.9604 0.0
C493 C 0.09338 0.91987 0.96572 0.0
C494 C 0.11708 0.90223 0.95283 0.0
H495 H 0.12667 0.69397 0.92268 0.0
H496 H 0.13735 0.75566 0.94166 0.0
H497 H 0.09872 0.76201 0.93145 0.0
H498 H 0.07615 0.94286 0.91563 0.0
H499 H 0.03474 0.97204 0.93797 0.0
H500 H 0.8734 0.14353 0.78488 0.0
H501 H 0.9016 0.07828 0.80684 0.0
H502 H 0.87393 0.24046 0.84864 0.0
H503 H 0.8463 0.30737 0.82668 0.0
H504 H 0.93675 0.17569 0.85325 0.0
H505 H 0.83867 0.97544 0.83924 0.0
H506 H 0.86258 -0.00337 0.82053 0.0
H507 H 0.83719 0.06444 0.83155 0.0
C508 C 0.87442 0.16725 0.79857 0.0
C509 C 0.8572 0.23054 0.80397 0.0
C510 C 0.89031 0.12924 0.81117 0.0
C511 C 0.88914 0.15362 0.82941 0.0
C512 C 0.8749 0.22046 0.83462 0.0
H513 H 0.87133 0.00103 0.92936 0.0
H514 H 0.86655 0.03675 0.89893 0.0
C515 C 0.8591 0.25872 0.82201 0.0
C516 C 0.89855 0.10568 0.84327 0.0
H517 H 0.8729 0.95815 0.86322 0.0
C518 C 0.92329 0.12726 0.85525 0.0
C519 C 0.88064 0.04289 0.8459 0.0
C520 C 0.85313 0.01836 0.83374 0.0
C521 C 0.92987 0.08911 0.87019 0.0
C522 C 0.91123 0.02781 0.87313 0.0
C523 C 0.88734 0.00465 0.86077 0.0
C524 C 0.91271 -0.0054 0.89033 0.0
C525 C 0.95537 0.11697 0.88332 0.0
C526 C 0.93964 0.9559 0.89529 0.0
C527 C 0.94223 0.93436 0.9127 0.0
C528 C 0.91805 0.95212 0.92532 0.0
C529 C 0.89028 -0.0134 0.91988 0.0
C530 C 0.88757 0.00721 0.90253 0.0
H531 H 0.96575 0.16892 0.8799 0.0
H532 H 0.94534 0.1247 0.89706 0.0
H533 H 0.97492 0.07674 0.88343 0.0
H534 H 0.95918 0.94517 0.88598 0.0
H535 H 0.96405 0.90865 0.91662 0.0
H536 H 0.73305 0.22693 0.69084 0.0
H537 H 0.69141 0.19145 0.66891 0.0
H538 H 0.63998 0.08556 0.70894 0.0
H539 H 0.681 0.12532 0.73124 0.0
H540 H 0.68325 0.05175 0.65907 0.0
H541 H 0.56699 0.16997 0.6822 0.0
H542 H 0.60475 0.20299 0.69136 0.0
H543 H 0.58788 0.12116 0.69823 0.0
C544 C 0.71204 0.19914 0.69513 0.0
C545 C 0.70997 0.17899 0.71264 0.0
C546 C 0.68844 0.17816 0.68258 0.0
C547 C 0.66267 0.13521 0.68719 0.0
C548 C 0.65936 0.11941 0.70509 0.0
H549 H 0.57807 0.88852 0.59211 0.0
H550 H 0.60041 0.91001 0.62246 0.0
C551 C 0.68277 0.14202 0.71782 0.0
C552 C 0.64224 0.10003 0.67267 0.0
H553 H 0.56608 0.08795 0.65619 0.0
C554 C 0.65758 0.05945 0.65847 0.0
C555 C 0.60875 0.10943 0.67201 0.0
C556 C 0.59105 0.15368 0.68668 0.0
C557 C 0.6408 0.03165 0.64315 0.0
C558 C 0.60733 0.04207 0.64228 0.0
C559 C 0.59168 0.07951 0.65691 0.0
C560 C 0.58914 0.02408 0.62538 0.0
C561 C 0.65956 -0.00448 0.62765 0.0
C562 C 0.5736 0.07969 0.61742 0.0
C563 C 0.56032 0.06729 0.60036 0.0
C564 C 0.56248 -0.00105 0.59068 0.0
C565 C 0.5764 0.94199 0.59907 0.0
C566 C 0.58933 0.95433 0.61637 0.0
H567 H 0.68564 0.00593 0.62909 0.0
H568 H 0.65583 0.93633 0.627 0.0
H569 H 0.65151 0.01456 0.61476 0.0
H570 H 0.573 0.13388 0.62406 0.0
H571 H 0.54956 0.11255 0.59448 0.0
H572 H 0.43218 0.07859 0.57638 0.0
H573 H 0.40334 0.01794 0.59883 0.0
H574 H 0.37156 0.85454 0.55815 0.0
H575 H 0.40128 0.9137 0.53558 0.0
H576 H 0.34277 0.96733 0.60557 0.0
H577 H 0.42823 0.74083 0.58991 0.0
H578 H 0.43277 0.82667 0.58085 0.0
H579 H 0.40298 0.76372 0.57186 0.0
C580 C 0.41836 0.0309 0.57204 0.0
C581 C 0.41974 0.00018 0.5542 0.0
C582 C 0.40184 -0.00383 0.58495 0.0
C583 C 0.38622 0.93039 0.58027 0.0
C584 C 0.38425 0.90419 0.56213 0.0
H585 H 0.32703 0.65746 0.66561 0.0
H586 H 0.33128 0.69898 0.63551 0.0
C587 C 0.40097 0.9387 0.54919 0.0
C588 C 0.37574 0.88616 0.5947 0.0
H589 H 0.39624 0.7361 0.61532 0.0
C590 C 0.35396 0.91605 0.6075 0.0
C591 C 0.39058 0.81934 0.59729 0.0
C592 C 0.41511 0.78571 0.58436 0.0
C593 C 0.34767 0.88255 0.62316 0.0
C594 C 0.36364 0.8178 0.62609 0.0
C595 C 0.38401 0.78567 0.6129 0.0
C596 C 0.36265 0.78833 0.64375 0.0
C597 C 0.32505 0.91809 0.63689 0.0
C598 C 0.37983 0.82336 0.65806 0.0
C599 C 0.37778 0.7996 0.67513 0.0
C600 C 0.35835 0.7403 0.67829 0.0
C601 C 0.34227 0.70315 0.66368 0.0
C602 C 0.34449 0.72697 0.6465 0.0
H603 H 0.30986 0.95931 0.63118 0.0
H604 H 0.3094 0.87721 0.64236 0.0
H605 H 0.33909 0.94504 0.64818 0.0
H606 H 0.39429 0.87031 0.6561 0.0
H607 H 0.39066 0.82943 0.68597 0.0
H608 H 0.53807 0.47602 0.93824 0.0
H609 H 0.58061 0.45139 0.91638 0.0
H610 H 0.64483 0.40049 0.95859 0.0
H611 H 0.60158 0.42415 0.98061 0.0
H612 H 0.64199 0.49829 0.91112 0.0
H613 H 0.63938 0.21082 0.92617 0.0
H614 H 0.60976 0.27521 0.93477 0.0
H615 H 0.64908 0.27651 0.94448 0.0
C616 C 0.56162 0.4621 0.94292 0.0
C617 C 0.56681 0.4527 0.96105 0.0
C618 C 0.58587 0.44766 0.93043 0.0
C619 C 0.61571 0.42273 0.93579 0.0
C620 C 0.62179 0.41859 0.95414 0.0
H621 H 0.75202 0.3378 0.84759 0.0
H622 H 0.73109 0.37472 0.8774 0.0
C623 C 0.59735 0.4333 0.96673 0.0
C624 C 0.63868 0.39509 0.92174 0.0
H625 H 0.66963 0.23852 0.90143 0.0
C626 C 0.64857 0.44176 0.90916 0.0
C627 C 0.64665 0.32093 0.91904 0.0
C628 C 0.63556 0.26758 0.93171 0.0
C629 C 0.66512 0.41605 0.89361 0.0
C630 C 0.67278 0.34172 0.89079 0.0
C631 C 0.66387 0.29542 0.90368 0.0
C632 C 0.68799 0.31062 0.87394 0.0
C633 C 0.67258 0.46813 0.87988 0.0
C634 C 0.67177 0.25849 0.86252 0.0
C635 C 0.684 0.23611 0.84554 0.0
C636 C 0.71252 0.26605 0.83969 0.0
C637 C 0.7297 0.31463 0.85162 0.0
C638 C 0.71771 0.33612 0.86863 0.0
H639 H 0.6584 0.5186 0.88208 0.0
H640 H 0.69826 0.48298 0.88082 0.0
H641 H 0.66774 0.4433 0.8661 0.0
H642 H 0.64888 0.23765 0.86641 0.0
H643 H 0.67024 0.19867 0.83665 0.0
H644 H 0.37376 0.46237 0.92669 0.0
H645 H 0.36767 0.48887 0.8956 0.0
H646 H 0.46373 0.41442 0.88433 0.0
H647 H 0.46987 0.38697 0.91564 0.0
H648 H 0.45118 0.5584 0.87623 0.0
H649 H 0.35861 0.37146 0.84655 0.0
H650 H 0.34757 0.41163 0.86833 0.0
H651 H 0.38178 0.35297 0.86601 0.0
C652 C 0.3932 0.44926 0.91745 0.0
C653 C 0.42222 0.42229 0.92354 0.0
C654 C 0.38968 0.46428 0.89966 0.0
C655 C 0.41516 0.45319 0.8876 0.0
C656 C 0.44368 0.42276 0.89339 0.0
H657 H 0.36434 0.60465 0.78387 0.0
H658 H 0.3936 0.5332 0.80428 0.0
C659 C 0.44707 0.40659 0.91122 0.0
C660 C 0.41291 0.48265 0.8699 0.0
H661 H 0.36316 0.48609 0.83386 0.0
C662 C 0.43248 0.54145 0.8667 0.0
C663 C 0.38877 0.46017 0.85738 0.0
C664 C 0.36819 0.39509 0.85963 0.0
C665 C 0.42682 0.58185 0.85206 0.0
C666 C 0.4008 0.56326 0.84047 0.0
C667 C 0.38294 0.50091 0.84285 0.0
C668 C 0.38916 0.61189 0.82721 0.0
C669 C 0.44804 0.64558 0.8495 0.0
C670 C 0.37782 0.68091 0.83316 0.0
C671 C 0.36112 0.72204 0.82153 0.0
C672 C 0.35528 0.69482 0.8037 0.0
C673 C 0.36858 0.62769 0.79746 0.0
C674 C 0.38518 0.58643 0.80914 0.0
H675 H 0.47219 0.6385 0.85529 0.0
H676 H 0.45055 0.65395 0.83509 0.0
H677 H 0.43735 0.69491 0.85649 0.0
H678 H 0.3801 0.70123 0.84712 0.0
H679 H 0.35121 0.77335 0.82681 0.0
H680 H 0.52411 0.67618 0.09268 0.0
H681 H 0.54285 0.71638 0.12291 0.0
H682 H 0.61112 0.54228 0.12014 0.0
H683 H 0.59199 0.50053 0.09019 0.0
H684 H 0.58301 0.56253 0.15309 0.0
H685 H 0.62591 0.82469 0.13188 0.0
H686 H 0.58404 0.80652 0.12861 0.0
H687 H 0.61299 0.75188 0.11598 0.0
C688 C 0.54299 0.64613 0.09854 0.0
C689 C 0.55677 0.58548 0.08888 0.0
C690 C 0.55376 0.66943 0.11582 0.0
C691 C 0.57883 0.63324 0.12369 0.0
C692 C 0.5918 0.57123 0.11434 0.0
H693 H 0.73549 0.72143 0.18666 0.0
H694 H 0.69088 0.71409 0.16586 0.0
C695 C 0.58086 0.5475 0.09716 0.0
C696 C 0.5929 0.66113 0.14124 0.0
H697 H 0.63783 0.79957 0.16115 0.0
C698 C 0.59453 0.61489 0.15502 0.0
C699 C 0.60787 0.72962 0.14373 0.0
C700 C 0.60792 0.78101 0.12926 0.0
C701 C 0.61238 0.63329 0.17071 0.0
C702 C 0.6286 0.70029 0.1728 0.0
C703 C 0.62513 0.74853 0.15957 0.0
C704 C 0.65447 0.71438 0.1863 0.0
C705 C 0.61571 0.57873 0.18429 0.0
C706 C 0.64891 0.71955 0.2049 0.0
C707 C 0.67477 0.72388 0.21702 0.0
C708 C 0.70633 0.72247 0.21059 0.0
C709 C 0.71147 0.72157 0.19205 0.0
C710 C 0.68593 0.7177 0.1801 0.0
H711 H 0.60405 0.52652 0.1798 0.0
H712 H 0.64136 0.56859 0.18698 0.0
H713 H 0.60455 0.60027 0.19709 0.0
H714 H 0.62475 0.71819 0.21 0.0
H715 H 0.67016 0.72469 0.23124 0.0
H716 H 0.39549 0.30297 0.18132 0.0
H717 H 0.40162 0.33425 0.1506 0.0
H718 H 0.31551 0.21697 0.13516 0.0
H719 H 0.30918 0.18478 0.16604 0.0
H720 H 0.40149 0.23717 0.11564 0.0
H721 H 0.30298 0.43886 0.12441 0.0
H722 H 0.32382 0.40778 0.14339 0.0
H723 H 0.29655 0.34879 0.13071 0.0
C724 C 0.37812 0.28267 0.17135 0.0
C725 C 0.35178 0.24163 0.17612 0.0
C726 C 0.38167 0.30063 0.15381 0.0
C727 C 0.35882 0.2786 0.14073 0.0
C728 C 0.33326 0.2348 0.14516 0.0
H729 H 0.40627 0.39123 0.03292 0.0
H730 H 0.37799 0.32911 0.05536 0.0
C731 C 0.32984 0.21605 0.16274 0.0
C732 C 0.36132 0.3055 0.12283 0.0
H733 H 0.33453 0.44013 0.09857 0.0
C734 C 0.38648 0.28046 0.11165 0.0
C735 C 0.34178 0.36237 0.11787 0.0
C736 C 0.31475 0.3916 0.12967 0.0
C737 C 0.39355 0.31292 0.09595 0.0
C738 C 0.37472 0.37171 0.09129 0.0
C739 C 0.34873 0.39481 0.10212 0.0
C740 C 0.38429 0.41502 0.07653 0.0
C741 C 0.42223 0.28662 0.08506 0.0
C742 C 0.39494 0.48619 0.0806 0.0
C743 C 0.41054 0.52267 0.06765 0.0
C744 C 0.41588 0.4884 0.05041 0.0
C745 C 0.40244 0.41964 0.04596 0.0
C746 C 0.3866 0.38348 0.05887 0.0
H747 H 0.4374 0.24948 0.09221 0.0
H748 H 0.41392 0.25703 0.07238 0.0
H749 H 0.4372 0.33267 0.08163 0.0
H750 H 0.39317 0.51174 0.09414 0.0
H751 H 0.42038 0.57565 0.07155 0.0
H752 H 0.57204 0.81582 0.47249 0.0
H753 H 0.60913 0.77388 0.44869 0.0
H754 H 0.60368 0.98137 0.42745 0.0
H755 H 0.56566 0.02252 0.45111 0.0
H756 H 0.58736 0.87451 0.40303 0.0
H757 H 0.70074 0.79955 0.43471 0.0
H758 H 0.66658 0.75894 0.44415 0.0
H759 H 0.67105 0.85554 0.44657 0.0
C760 C 0.58007 0.8535 0.46324 0.0
C761 C 0.56672 0.9228 0.46377 0.0
C762 C 0.60122 0.82946 0.4496 0.0
C763 C 0.60946 0.87455 0.43632 0.0
C764 C 0.5978 0.94576 0.43761 0.0
H765 H 0.73612 0.79833 0.34753 0.0
H766 H 0.71172 0.82376 0.37679 0.0
C767 C 0.57643 0.96965 0.45122 0.0
C768 C 0.62605 0.84418 0.41981 0.0
H769 H 0.69234 0.75154 0.40432 0.0
C770 C 0.61044 0.84807 0.40332 0.0
C771 C 0.65606 0.8093 0.42018 0.0
C772 C 0.67473 0.80613 0.43734 0.0
C773 C 0.624 0.81861 0.38719 0.0
C774 C 0.65366 0.78216 0.38757 0.0
C775 C 0.6693 0.77814 0.40407 0.0
C776 C 0.67044 0.75565 0.3708 0.0
C777 C 0.60689 0.82912 0.36985 0.0
C778 C 0.65619 0.70575 0.35791 0.0
C779 C 0.67008 0.69132 0.34093 0.0
C780 C 0.69845 0.72643 0.33672 0.0
C781 C 0.71394 0.77126 0.35023 0.0
C782 C 0.70009 0.78572 0.36704 0.0
H783 H 0.58831 0.87178 0.37164 0.0
H784 H 0.62399 0.84392 0.35949 0.0
H785 H 0.59491 0.77801 0.36482 0.0
H786 H 0.63366 0.68045 0.3607 0.0
H787 H 0.65767 0.65631 0.33085 0.0
H788 H 0.40055 0.12384 0.43819 0.0
H789 H 0.39481 0.15818 0.40781 0.0
H790 H 0.4322 0.952 0.38679 0.0
H791 H 0.43815 0.91647 0.41737 0.0
H792 H 0.44739 0.1604 0.38145 0.0
H793 H 0.34553 0.97999 0.35928 0.0
H794 H 0.35418 0.00343 0.38271 0.0
H795 H 0.37961 0.94166 0.36967 0.0
C796 C 0.40733 0.08516 0.42718 0.0
C797 C 0.41976 0.01712 0.4303 0.0
C798 C 0.40416 0.1052 0.4098 0.0
C799 C 0.4131 0.05771 0.39509 0.0
C800 C 0.42501 -0.01075 0.398 0.0
H801 H 0.36133 0.15507 0.28673 0.0
H802 H 0.39073 0.096 0.30953 0.0
C803 C 0.42833 0.96906 0.41548 0.0
C804 C 0.40995 0.08134 0.37684 0.0
H805 H 0.36141 0.06572 0.34007 0.0
C806 C 0.42896 0.13898 0.37224 0.0
C807 C 0.38614 0.05276 0.36482 0.0
C808 C 0.365 -0.00879 0.36926 0.0
C809 C 0.42379 0.17101 0.35623 0.0
C810 C 0.39851 0.14569 0.34476 0.0
C811 C 0.38079 0.08518 0.34888 0.0
C812 C 0.38723 0.18619 0.32978 0.0
C813 C 0.44503 0.23263 0.35197 0.0
C814 C 0.37649 0.25748 0.33337 0.0
C815 C 0.35991 0.29162 0.32033 0.0
C816 C 0.35343 0.2549 0.30348 0.0
C817 C 0.36613 0.18526 0.2995 0.0
C818 C 0.38277 0.15112 0.31257 0.0
H819 H 0.4692 0.22783 0.35793 0.0
H820 H 0.44751 0.235 0.33729 0.0
H821 H 0.43449 0.28419 0.3578 0.0
H822 H 0.37902 0.28522 0.34663 0.0
H823 H 0.35045 0.34517 0.32387 0.0
H824 H 0.94451 0.79944 0.01587 0.0
H825 H 0.92027 0.69357 0.02712 0.0
H826 H 0.01353 0.59572 0.02983 0.0
H827 H 0.03801 0.70274 0.01894 0.0
H828 H 0.91886 0.56103 0.01357 0.0
H829 H 0.97949 0.56405 0.07856 0.0
H830 H 0.97911 0.64176 0.06574 0.0
H831 H 0.0092 0.57268 0.06175 0.0
C832 C 0.95974 0.75441 0.01832 0.0
C833 C 0.99306 0.75822 0.01616 0.0
C834 C 0.94593 0.69489 0.02519 0.0
C835 C 0.96526 0.63838 0.02997 0.0
C836 C 0.99838 0.64044 0.02696 0.0
H837 H 0.00496 0.24905 0.01523 0.0
H838 H 0.9963 0.36871 0.03069 0.0
C839 C 0.01226 0.70046 0.02031 0.0
C840 C 0.95083 0.57325 0.03619 0.0
H841 H 0.96938 0.44132 0.06295 0.0
C842 C 0.92875 0.5356 0.02482 0.0
C843 C 0.96291 0.54157 0.05125 0.0
C844 C 0.98368 0.58281 0.06511 0.0
C845 C 0.92279 0.4626 0.02624 0.0
C846 C 0.93938 0.42758 0.03948 0.0
C847 C 0.95727 0.46826 0.05262 0.0
C848 C 0.94626 0.35026 0.03629 0.0
C849 C 0.90233 0.42186 0.01205 0.0
C850 C 0.92151 0.29954 0.03536 0.0
C851 C 0.9262 0.23233 0.02602 0.0
C852 C 0.95589 0.215 0.01799 0.0
C853 C 0.98174 0.26225 0.02099 0.0
C854 C 0.97687 0.32998 0.03002 0.0
H855 H 0.89191 0.45773 1.0025 0.0
H856 H 0.91678 0.37982 1.00432 0.0
H857 H 0.88237 0.39476 0.01848 0.0
H858 H 0.89796 0.31405 0.04046 0.0
H859 H 0.90623 0.19513 0.02441 0.0
H860 H 0.34971 0.53556 0.24783 0.0
H861 H 0.3292 0.65538 0.2436 0.0
H862 H 0.2419 0.60592 0.27051 0.0
H863 H 0.26296 0.4893 0.27588 0.0
H864 H 0.27762 0.66257 0.22216 0.0
H865 H 0.25352 0.81076 0.28839 0.0
H866 H 0.27812 0.73107 0.286 0.0
H867 H 0.2352 0.72338 0.28598 0.0
C868 C 0.32679 0.55144 0.2536 0.0
C869 C 0.30735 0.50184 0.26157 0.0
C870 C 0.31499 0.61957 0.251 0.0
C871 C 0.28382 0.63845 0.2564 0.0
C872 C 0.26607 0.59246 0.2663 0.0
H873 H 0.19203 0.03355 0.24714 0.0
H874 H 0.18858 0.90566 0.2371 0.0
C875 C 0.27813 0.52521 0.26923 0.0
C876 C 0.26841 0.70139 0.24972 0.0
H877 H 0.23145 0.859 0.26315 0.0
C878 C 0.26745 0.70567 0.23109 0.0
C879 C 0.25437 0.75597 0.26141 0.0
C880 C 0.25558 0.75545 0.28155 0.0
C881 C 0.25451 0.76594 0.2239 0.0
C882 C 0.242 0.82202 0.23565 0.0
C883 C 0.24065 0.81493 0.25413 0.0
C884 C 0.23869 0.89544 0.23042 0.0
C885 C 0.25575 0.77111 0.20397 0.0
C886 C 0.2673 0.93277 0.22816 0.0
C887 C 0.26969 0.00508 0.23447 0.0
C888 C 0.24321 0.04046 0.24263 0.0
C889 C 0.21316 0.00643 0.2416 0.0
C890 C 0.21088 0.93388 0.23541 0.0
H891 H 0.2557 0.71673 0.1965 0.0
H892 H 0.23524 0.80268 0.19941 0.0
H893 H 0.27816 0.79886 0.20065 0.0
H894 H 0.28905 0.90384 0.22433 0.0
H895 H 0.29302 0.03031 0.23472 0.0
H896 H 0.75209 0.94865 0.28971 0.0
H897 H 0.74245 0.06756 0.30482 0.0
H898 H 0.82756 0.14696 0.28084 0.0
H899 H 0.83896 0.0269 0.26696 0.0
H900 H 0.81633 0.21877 0.31344 0.0
H901 H 0.70474 0.20181 0.27206 0.0
H902 H 0.70846 0.14034 0.28901 0.0
H903 H 0.7344 0.13173 0.26983 0.0
C904 C 0.76944 -0.00971 0.28812 0.0
C905 C 0.79616 0.97781 0.27691 0.0
C906 C 0.76369 0.05873 0.2967 0.0
C907 C 0.78379 0.11642 0.29356 0.0
C908 C 0.81165 0.10315 0.28344 0.0
H909 H 0.80976 0.49931 0.25982 0.0
H910 H 0.81438 0.39909 0.27835 0.0
C911 C 0.81791 0.03443 0.2753 0.0
C912 C 0.77377 0.19192 0.29795 0.0
H913 H 0.72313 0.31462 0.28227 0.0
C914 C 0.79546 0.23992 0.30708 0.0
C915 C 0.74624 0.21928 0.28986 0.0
C916 C 0.72216 0.17093 0.27956 0.0
C917 C 0.7922 0.31467 0.30662 0.0
C918 C 0.76667 0.34137 0.29681 0.0
C919 C 0.74286 0.29387 0.2897 0.0
C920 C 0.76736 0.41371 0.29023 0.0
C921 C 0.81711 0.36388 0.31572 0.0
C922 C 0.73954 0.45577 0.29081 0.0
C923 C 0.7364 0.51143 0.27971 0.0
C924 C 0.76132 0.52678 0.26806 0.0
C925 C 0.79015 0.48856 0.26862 0.0
C926 C 0.79305 0.43206 0.27949 0.0
H927 H 0.82681 0.34047 0.32771 0.0
H928 H 0.83734 0.36959 0.30642 0.0
H929 H 0.80723 0.41829 0.31976 0.0
H930 H 0.71935 0.44209 0.29887 0.0
H931 H 0.71394 0.54027 0.27978 0.0
H932 H 0.02858 0.67007 0.49805 0.0
H933 H 0.05382 0.77724 0.48843 0.0
H934 H 0.96291 0.88716 0.49134 0.0
H935 H 0.93709 0.77819 0.50077 0.0
H936 H 0.99852 0.89973 0.459 0.0
H937 H 0.07348 0.95949 0.52039 0.0
H938 H 0.07734 0.87216 0.50828 0.0
H939 H 0.04081 0.89613 0.51984 0.0
C940 C 0.01414 0.71796 0.49741 0.0
C941 C 0.9811 0.71718 0.50092 0.0
C942 C 0.02855 0.77861 0.49156 0.0
C943 C 0.01024 0.83977 0.48934 0.0
C944 C 0.9773 0.83982 0.49299 0.0
H945 H 0.97586 0.23809 0.493 0.0
H946 H 0.98431 0.11793 0.47842 0.0
C947 C 0.96269 0.77843 0.49862 0.0
C948 C 0.02538 0.90489 0.48369 0.0
H949 H 0.06936 0.04812 0.50076 0.0
C950 C 0.01458 0.93189 0.46788 0.0
C951 C 0.04746 0.94475 0.49492 0.0
C952 C 0.06046 0.91711 0.51184 0.0
C953 C 0.02223 0.00208 0.46418 0.0
C954 C 0.0403 0.04581 0.47685 0.0
C955 C 0.05501 0.01482 0.49117 0.0
C956 C 0.03616 0.12458 0.47902 0.0
C957 C 0.00884 0.03056 0.44752 0.0
C958 C 0.06239 0.16919 0.4838 0.0
C959 C 0.0575 0.23695 0.49283 0.0
C960 C 0.02632 0.26125 0.49683 0.0
C961 C 1.00012 0.22001 0.49026 0.0
C962 C 0.005 0.15182 0.48154 0.0
H963 H 0.01035 -0.01139 0.43603 0.0
H964 H 0.98316 0.04371 0.44959 0.0
H965 H 0.0217 0.07965 0.44409 0.0
H966 H 0.08658 0.14907 0.48201 0.0
H967 H 0.07814 0.26901 0.49728 0.0
H968 H 0.36568 -0.01289 0.76545 0.0
H969 H 0.35439 0.11517 0.76691 0.0
H970 H 0.25903 0.07677 0.7856 0.0
H971 H 0.26963 0.94851 0.78366 0.0
H972 H 0.26376 0.10469 0.74951 0.0
H973 H 0.33037 0.30915 0.79366 0.0
H974 H 0.35478 0.23663 0.78392 0.0
H975 H 0.32386 0.2181 0.79945 0.0
C976 C 0.34277 0.00601 0.77068 0.0
C977 C 0.3179 0.95752 0.77345 0.0
C978 C 0.33652 0.07958 0.77175 0.0
C979 C 0.30562 0.10453 0.77589 0.0
C980 C 0.28292 0.05777 0.78217 0.0
H981 H 0.20632 0.46622 0.75127 0.0
H982 H 0.21748 0.33805 0.74996 0.0
C983 C 0.28902 0.98417 0.78092 0.0
C984 C 0.2945 0.16889 0.76793 0.0
H985 H 0.30798 0.34808 0.76684 0.0
C986 C 0.27306 0.15827 0.75343 0.0
C987 C 0.30746 0.2376 0.77281 0.0
C988 C 0.3302 0.25135 0.78841 0.0
C989 C 0.26426 0.21516 0.74356 0.0
C990 C 0.27721 0.28383 0.74845 0.0
C991 C 0.29868 0.29448 0.76293 0.0
C992 C 0.26598 0.34811 0.74051 0.0
C993 C 0.24146 0.20152 0.72799 0.0
C994 C 0.28856 0.39441 0.73393 0.0
C995 C 0.28249 0.46802 0.73499 0.0
C996 C 0.25385 0.49505 0.74271 0.0
C997 C 0.22905 0.44693 0.74586 0.0
C998 C 0.23522 0.37337 0.74489 0.0
H999 H 0.24096 0.14361 0.72285 0.0
H1000 H 0.21697 0.21717 0.73246 0.0
H1001 H 0.24803 0.2342 0.71688 0.0
H1002 H 0.31233 0.37513 0.73033 0.0
H1003 H 0.30177 0.50355 0.73195 0.0
H1004 H 0.83449 0.52177 0.75556 0.0
H1005 H 0.81104 0.63084 0.74508 0.0
H1006 H 0.7181 0.52948 0.74253 0.0
H1007 H 0.74098 0.4221 0.75346 0.0
H1008 H 0.78028 0.63024 0.71137 0.0
H1009 H 0.69875 0.72577 0.76744 0.0
H1010 H 0.7295 0.65991 0.77023 0.0
H1011 H 0.69402 0.6347 0.75763 0.0
C1012 C 0.80889 0.52408 0.75346 0.0
C1013 C 0.78952 0.46403 0.75557 0.0
C1014 C 0.79562 0.58563 0.74722 0.0
C1015 C 0.76297 0.58739 0.74289 0.0
C1016 C 0.74325 0.52927 0.746 0.0
H1017 H 0.705 0.0128 0.73866 0.0
H1018 H 0.69667 0.89458 0.7226 0.0
C1019 C 0.75638 0.46828 0.75251 0.0
C1020 C 0.75015 0.64974 0.73463 0.0
H1021 H 0.70777 0.80238 0.74534 0.0
C1022 C 0.76389 0.66758 0.71855 0.0
C1023 C 0.72766 0.69628 0.7436 0.0
C1024 C 0.71164 0.6787 0.76071 0.0
C1025 C 0.75896 0.73554 0.7125 0.0
C1026 C 0.7403 0.78615 0.72299 0.0
C1027 C 0.72258 0.76383 0.73742 0.0
C1028 C 0.74651 0.86409 0.72334 0.0
C1029 C 0.77587 0.75457 0.69585 0.0
C1030 C 0.77773 0.88846 0.72758 0.0
C1031 C 0.78257 0.95629 0.73664 0.0
C1032 C 0.75618 -0.00065 0.74174 0.0
C1033 C 0.7256 0.97914 0.73532 0.0
C1034 C 0.72086 0.91222 0.72586 0.0
H1035 H 0.77521 0.70816 0.68542 0.0
H1036 H 0.76499 0.80231 0.69034 0.0
H1037 H 0.80138 0.76629 0.69904 0.0
H1038 H 0.79793 0.85214 0.72601 0.0
H1039 H 0.80643 0.97178 0.74117 0.0
H1040 H 0.46371 0.77024 0.47946 0.0
H1041 H 0.45931 0.65509 0.46181 0.0
H1042 H 0.54152 0.5777 0.48916 0.0
H1043 H 0.54848 0.6959 0.50536 0.0
H1044 H 0.53749 0.51422 0.45511 0.0
H1045 H 0.41863 0.50697 0.48884 0.0
H1046 H 0.42406 0.5739 0.4734 0.0
H1047 H 0.44619 0.57996 0.49412 0.0
C1048 C 0.48173 0.7303 0.48125 0.0
C1049 C 0.50651 0.743 0.49388 0.0
C1050 C 0.47889 0.6638 0.47124 0.0
C1051 C 0.49958 0.60738 0.47448 0.0
C1052 C 0.52525 0.62065 0.48642 0.0
H1053 H 0.52675 0.23114 0.50627 0.0
H1054 H 0.53333 0.3297 0.4873 0.0
C1055 C 0.52888 0.68804 0.49591 0.0
C1056 C 0.49187 0.53208 0.46809 0.0
H1057 H 0.44088 0.39933 0.478 0.0
C1058 C 0.51598 0.48897 0.45965 0.0
C1059 C 0.46343 0.49942 0.47366 0.0
C1060 C 0.43664 0.54212 0.48308 0.0
C1061 C 0.51408 0.41355 0.45866 0.0
C1062 C 0.4875 0.38135 0.46631 0.0
C1063 C 0.46146 0.42429 0.47231 0.0
C1064 C 0.48901 0.30866 0.47262 0.0
C1065 C 0.54148 0.36936 0.45059 0.0
C1066 C 0.46232 0.26308 0.47045 0.0
C1067 C 0.4579 0.20893 0.48183 0.0
C1068 C 0.48054 0.19841 0.49526 0.0
C1069 C 0.50883 0.23891 0.49616 0.0
C1070 C 0.5129 0.29422 0.48503 0.0
H1071 H 0.55137 0.39438 0.43889 0.0
H1072 H 0.56094 0.36807 0.46065 0.0
H1073 H 0.53405 0.31313 0.44628 0.0
H1074 H 0.44355 0.27351 0.46103 0.0
H1075 H 0.43611 0.17747 0.48057 0.0
H1076 H 0.44129 0.75837 0.98446 0.0
H1077 H 0.4315 0.88149 0.99759 0.0
H1078 H 0.4449 0.81207 0.05052 0.0
H1079 H 0.45764 0.69139 0.03728 0.0
H1080 H 0.38966 0.94761 0.02116 0.0
H1081 H 0.51315 0.95903 0.0501 0.0
H1082 H 0.50007 0.88382 0.03511 0.0
H1083 H 0.48645 0.89364 0.05796 0.0
C1084 C 0.4426 0.77006 0.99887 0.0
C1085 C 0.45117 0.71638 0.00988 0.0
C1086 C 0.43644 0.83971 0.00637 0.0
C1087 C 0.43786 0.85583 0.02502 0.0
C1088 C 0.4445 0.80105 0.03609 0.0
H1089 H 0.49442 0.29314 0.0508 0.0
H1090 H 0.46328 0.1904 0.05865 0.0
C1091 C 0.45193 0.73213 0.02851 0.0
C1092 C 0.43649 0.93168 0.03232 0.0
H1093 H 0.48693 0.06609 0.04785 0.0
C1094 C 0.41055 0.97376 0.02744 0.0
C1095 C 0.46351 0.96525 0.04089 0.0
C1096 C 0.49245 0.92342 0.04626 0.0
C1097 C 0.41266 0.04909 0.02889 0.0
C1098 C 0.44126 0.08188 0.03542 0.0
C1099 C 0.46513 0.04029 0.04265 0.0
C1100 C 0.45071 0.15441 0.03129 0.0
C1101 C 0.38532 0.09243 0.02228 0.0
C1102 C 0.45341 0.16873 0.01325 0.0
C1103 C 0.47155 0.2271 0.00867 0.0
C1104 C 0.48765 0.27044 0.02207 0.0
C1105 C 0.48328 0.25852 0.04014 0.0
C1106 C 0.46479 0.2012 0.04471 0.0
H1107 H 0.36204 0.06677 0.02495 0.0
H1108 H 0.38539 0.14867 0.02868 0.0
H1109 H 0.38736 0.09403 0.00757 0.0
H1110 H 0.44343 0.13205 1.00263 0.0
H1111 H 0.47404 0.23654 0.9947 0.0
H1112 H 0.38345 0.22651 0.98986 0.0
H1113 H 0.33113 0.16917 0.99284 0.0
H1114 H 0.29313 0.36985 0.01714 0.0
H1115 H 0.34496 0.42756 0.0142 0.0
H1116 H 0.2853 0.15934 0.0226 0.0
H1117 H 0.24163 0.32425 0.96941 0.0
H1118 H 0.28362 0.3117 0.97385 0.0
H1119 H 0.26057 0.37464 0.98813 0.0
C1120 C 0.36416 0.25797 0.99622 0.0
C1121 C 0.36811 0.33207 1.00137 0.0
C1122 C 0.33428 0.22519 0.99785 0.0
C1123 C 0.30814 0.26606 1.00469 0.0
C1124 C 0.31287 0.338 0.01141 0.0
H1125 H 0.10525 0.21784 0.01705 0.0
H1126 H 0.15974 0.26153 0.01317 0.0
C1127 C 0.34255 0.37077 0.00976 0.0
C1128 C 0.27537 0.23596 1.00353 0.0
H1129 H 0.20256 0.25846 0.98403 0.0
C1130 C 0.26723 0.18041 0.01408 0.0
C1131 C 0.25197 0.26369 0.99233 0.0
C1132 C 0.25983 0.32144 0.98015 0.0
C1133 C 0.23584 0.1535 0.01422 0.0
C1134 C 0.21229 0.18204 1.00321 0.0
C1135 C 0.22065 0.23677 0.99244 0.0
C1136 C 0.1786 0.15735 1.0032 0.0
C1137 C 0.2279 0.09652 0.0266 0.0
C1138 C 0.17084 0.08526 0.99793 0.0
C1139 C 0.13975 0.06014 1.00009 0.0
C1140 C 0.11578 0.10684 0.00747 0.0
C1141 C 0.12308 0.1804 0.01135 0.0
C1142 C 0.15427 0.20539 0.00924 0.0
H1143 H 0.24657 0.09259 0.03704 0.0
H1144 H 0.20459 0.10799 0.0333 0.0
H1145 H 0.22612 0.04328 0.01869 0.0
H1146 H 0.18909 0.04777 0.99276 0.0
H1147 H 0.13493 0.00332 0.99678 0.0
H1148 H 0.87515 0.74669 0.99022 0.0
H1149 H 0.82218 0.69311 0.99353 0.0
H1150 H 0.78724 0.89628 0.0181 0.0
H1151 H 0.83982 0.95036 0.01483 0.0
H1152 H 0.77907 0.68505 0.02392 0.0
H1153 H 0.73145 0.85232 0.97216 0.0
H1154 H 0.77372 0.83912 0.97553 0.0
H1155 H 0.75183 0.90154 0.99056 0.0
C1156 C 0.85638 0.77958 0.99667 0.0
C1157 C 0.86152 0.85321 1.00192 0.0
C1158 C 0.82612 0.74894 0.99848 0.0
C1159 C 0.80068 0.79144 1.00558 0.0
C1160 C 0.80642 0.86318 0.01217 0.0
H1161 H 0.59766 0.73161 0.02029 0.0
H1162 H 0.6512 0.78093 0.01626 0.0
C1163 C 0.83655 0.89384 0.01035 0.0
C1164 C 0.76773 0.76232 1.00522 0.0
H1165 H 0.69376 0.78387 0.98699 0.0
C1166 C 0.76042 0.70626 0.01579 0.0
C1167 C 0.74354 0.7903 0.99457 0.0
C1168 C 0.75045 0.84874 0.98243 0.0
C1169 C 0.72926 0.67851 0.01635 0.0
C1170 C 0.70501 0.70664 1.00573 0.0
C1171 C 0.7124 0.76246 0.99509 0.0
C1172 C 0.67176 0.67918 1.00575 0.0
C1173 C 0.72238 0.62063 0.02866 0.0
C1174 C 0.66525 0.60667 1.00023 0.0
C1175 C 0.63479 0.57838 1.00252 0.0
C1176 C 0.61014 0.62227 0.01021 0.0
C1177 C 0.61606 0.69633 0.01433 0.0
C1178 C 0.64669 0.72453 0.01213 0.0
H1179 H 0.74126 0.61797 0.03903 0.0
H1180 H 0.699 0.63005 0.03545 0.0
H1181 H 0.72137 0.56743 0.02069 0.0
H1182 H 0.68407 0.57123 0.99482 0.0
H1183 H 0.63102 0.52127 0.99905 0.0
H1184 H 0.17266 0.5121 0.2776 0.0
H1185 H 0.12017 0.56628 0.27294 0.0
H1186 H 0.09269 0.37877 0.23822 0.0
H1187 H 0.14474 0.32409 0.24292 0.0
H1188 H 0.08213 0.59534 0.24205 0.0
H1189 H 0.02898 0.38393 0.28058 0.0
H1190 H 0.07141 0.4015 0.28028 0.0
H1191 H 0.05258 0.35014 0.26167 0.0
C1192 C 0.15575 0.48335 0.2686 0.0
C1193 C 0.16254 0.41336 0.26089 0.0
C1194 C 0.12574 0.51416 0.26603 0.0
C1195 C 0.10233 0.47547 0.25567 0.0
C1196 C 0.11018 0.4086 0.24664 0.0
H1197 H 0.90116 0.53568 0.23347 0.0
H1198 H 0.95517 0.4876 0.23668 0.0
C1199 C 0.13998 0.37765 0.24927 0.0
C1200 C 0.06902 0.50212 0.25536 0.0
H1201 H 0.99282 0.46137 0.26733 0.0
C1202 C 0.0626 0.56634 0.24763 0.0
C1203 C 0.04365 0.46406 0.26272 0.0
C1204 C 0.04941 0.39641 0.27193 0.0
C1205 C 0.03126 0.59275 0.24668 0.0
C1206 C 0.00588 0.55446 0.25396 0.0
C1207 C 0.01234 0.49041 0.26175 0.0
C1208 C 0.97243 0.58018 0.25354 0.0
C1209 C 0.02545 0.66055 0.23755 0.0
C1210 C 0.96392 0.64646 0.26265 0.0
C1211 C 0.93316 0.67394 0.26089 0.0
C1212 C 0.91025 0.63547 0.25003 0.0
C1213 C 0.91823 0.56678 0.24188 0.0
C1214 C 0.94911 0.53937 0.24364 0.0
H1215 H 0.04594 0.6735 0.229 0.0
H1216 H 0.00354 0.65532 0.22912 0.0
H1217 H 0.02203 0.70654 0.24786 0.0
H1218 H 0.98136 0.67785 0.27075 0.0
H1219 H 0.92769 0.72653 0.26758 0.0
H1220 H 0.37014 0.77007 0.48649 0.0
H1221 H 0.31679 0.7185 0.48971 0.0
H1222 H 0.28599 0.91541 0.5194 0.0
H1223 H 0.33901 0.96757 0.51625 0.0
H1224 H 0.27885 0.70029 0.52096 0.0
H1225 H 0.22274 0.88807 0.47655 0.0
H1226 H 0.26543 0.87438 0.47751 0.0
H1227 H 0.24571 0.9303 0.49492 0.0
C1228 C 0.35217 0.8021 0.49392 0.0
C1229 C 0.35874 0.87336 0.50088 0.0
C1230 C 0.32168 0.77263 0.49568 0.0
C1231 C 0.2973 0.81392 0.50438 0.0
C1232 C 0.30428 0.8834 0.51224 0.0
H1233 H 0.09699 0.73673 0.52618 0.0
H1234 H 0.14889 0.79279 0.5212 0.0
C1235 C 0.33468 0.9129 0.5105 0.0
C1236 C 0.26439 0.78492 0.50497 0.0
H1237 H 0.18783 0.8115 0.49094 0.0
C1238 C 0.25895 0.72432 0.51434 0.0
C1239 C 0.23852 0.81676 0.49637 0.0
C1240 C 0.24328 0.88063 0.48563 0.0
C1241 C 0.22818 0.69522 0.51559 0.0
C1242 C 0.20231 0.72665 0.50686 0.0
C1243 C 0.20772 0.78747 0.49755 0.0
C1244 C 0.16954 0.69673 0.50738 0.0
C1245 C 0.22352 0.63201 0.52658 0.0
C1246 C 0.16344 0.62566 0.50034 0.0
C1247 C 0.13399 0.59352 0.50321 0.0
C1248 C 0.10998 0.63214 0.51306 0.0
C1249 C 0.1151 0.70543 0.51868 0.0
C1250 C 0.14476 0.73745 0.51589 0.0
H1251 H 0.24369 0.62654 0.53604 0.0
H1252 H 0.20095 0.63747 0.53435 0.0
H1253 H 0.22215 0.58158 0.51749 0.0
H1254 H 0.18195 0.59403 0.49326 0.0
H1255 H 0.13055 0.53738 0.49838 0.0
H1256 H 0.84023 0.44279 0.51422 0.0
H1257 H 0.79075 0.37902 0.5196 0.0
H1258 H 0.83519 0.17682 0.50125 0.0
H1259 H 0.88478 0.24024 0.49552 0.0
H1260 H 0.77836 0.19961 0.48403 0.0
H1261 H 0.76293 0.24963 0.55748 0.0
H1262 H 0.76976 0.33067 0.54681 0.0
H1263 H 0.80059 0.26327 0.54657 0.0
C1264 C 0.83974 0.38461 0.51159 0.0
C1265 C 0.86644 0.34677 0.50426 0.0
C1266 C 0.81143 0.34815 0.5148 0.0
C1267 C 0.80933 0.27312 0.51092 0.0
C1268 C 0.83634 0.23477 0.50435 0.0
H1269 H 0.64714 0.97755 0.51004 0.0
H1270 H 0.69997 0.03049 0.50648 0.0
C1271 C 0.86469 0.27116 0.50113 0.0
C1272 C 0.77819 0.23588 0.51215 0.0
H1273 H 0.71677 0.20816 0.5406 0.0
C1274 C 0.76503 0.20072 0.49644 0.0
C1275 C 0.76082 0.23772 0.52833 0.0
C1276 C 0.77436 0.27174 0.54579 0.0
C1277 C 0.73454 0.16916 0.49636 0.0
C1278 C 0.71694 0.17218 0.51247 0.0
C1279 C 0.73027 0.2064 0.52824 0.0
C1280 C 0.68455 0.14048 0.51328 0.0
C1281 C 0.72098 0.13473 0.47895 0.0
C1282 C 0.65836 0.18484 0.51818 0.0
C1283 C 0.62811 0.15485 0.52024 0.0
C1284 C 0.62354 0.07969 0.5176 0.0
C1285 C 0.64973 0.03561 0.51215 0.0
C1286 C 0.67996 0.06575 0.51006 0.0
H1287 H 0.73426 0.15126 0.46718 0.0
H1288 H 0.72264 0.07519 0.47882 0.0
H1289 H 0.69539 0.14906 0.47753 0.0
H1290 H 0.66144 0.24269 0.5207 0.0
H1291 H 0.60856 0.19051 0.52445 0.0
H1292 H 0.93242 0.21026 0.76887 0.0
H1293 H 0.98583 0.163 0.77389 0.0
H1294 H 0.96027 0.96229 0.74394 0.0
H1295 H 0.90651 0.00876 0.73901 0.0
H1296 H 0.99656 0.94492 0.77475 0.0
H1297 H 0.05261 0.1451 0.73386 0.0
H1298 H 0.02867 0.18318 0.75219 0.0
H1299 H 0.01004 0.12921 0.73394 0.0
C1300 C 0.93799 0.15573 0.76349 0.0
C1301 C 0.91528 0.11365 0.7533 0.0
C1302 C 0.96863 0.12902 0.76628 0.0
C1303 C 0.9773 0.05998 0.75884 0.0
C1304 C 0.95415 0.01612 0.74962 0.0
H1305 H 0.14378 0.79184 0.74739 0.0
H1306 H 0.09278 0.85277 0.74453 0.0
C1307 C 0.92339 0.04267 0.74688 0.0
C1308 C 0.01071 0.03412 0.76021 0.0
H1309 H 0.08759 0.0675 0.74784 0.0
C1310 C 0.01644 0.97176 0.76889 0.0
C1311 C 0.03667 0.06939 0.75257 0.0
C1312 C 0.0318 0.13508 0.74248 0.0
C1313 C 0.04742 0.94365 0.77014 0.0
C1314 C 0.07327 0.97819 0.76226 0.0
C1315 C 0.0677 0.04129 0.75386 0.0
C1316 C 0.1059 0.94713 0.76199 0.0
C1317 C 0.05229 0.87721 0.77995 0.0
C1318 C 0.13089 0.98206 0.77189 0.0
C1319 C 0.16043 0.94749 0.77344 0.0
C1320 C 0.16526 0.87748 0.76511 0.0
C1321 C 0.14086 0.84537 0.75412 0.0
C1322 C 0.11155 0.87992 0.75255 0.0
H1323 H 0.03189 0.86792 0.78892 0.0
H1324 H 0.05444 0.82936 0.77005 0.0
H1325 H 0.07459 0.88157 0.78806 0.0
H1326 H 0.12702 0.03439 0.77913 0.0
H1327 H 0.17868 0.97369 0.78202 0.0
H1328 H 0.63947 0.24498 0.74923 0.0
H1329 H 0.5867 0.29421 0.74361 0.0
H1330 H 0.61442 0.49747 0.77167 0.0
H1331 H 0.66761 0.44907 0.77702 0.0
H1332 H 0.54374 0.33869 0.76901 0.0
H1333 H 0.571 0.56396 0.72806 0.0
H1334 H 0.59985 0.49488 0.73185 0.0
H1335 H 0.59338 0.56908 0.74858 0.0
C1336 C 0.63458 0.30066 0.75393 0.0
C1337 C 0.65773 0.34303 0.76367 0.0
C1338 C 0.60433 0.32863 0.75073 0.0
C1339 C 0.59654 0.39957 0.75716 0.0
C1340 C 0.62001 0.44298 0.76628 0.0
H1341 H 0.42755 0.65948 0.76921 0.0
H1342 H 0.47856 0.59882 0.77259 0.0
C1343 C 0.65043 0.4152 0.76937 0.0
C1344 C 0.56325 0.42612 0.75548 0.0
H1345 H 0.51879 0.56314 0.74091 0.0
C1346 C 0.53824 0.38737 0.76269 0.0
C1347 C 0.55605 0.48954 0.74721 0.0
C1348 C 0.58145 0.53138 0.73832 0.0
C1349 C 0.50643 0.41151 0.76232 0.0
C1350 C 0.49946 0.4758 0.75447 0.0
C1351 C 0.5243 0.51396 0.74702 0.0
C1352 C 0.46672 0.50612 0.75427 0.0
C1353 C 0.48059 0.36949 0.77077 0.0
C1354 C 0.44268 0.47275 0.7433 0.0
C1355 C 0.41328 0.50739 0.74131 0.0
C1356 C 0.4077 0.57614 0.75017 0.0
C1357 C 0.43117 0.60696 0.76202 0.0
C1358 C 0.46039 0.57245 0.76397 0.0
H1359 H 0.49056 0.327 0.77866 0.0
H1360 H 0.46547 0.40625 0.77967 0.0
H1361 H 0.46494 0.3432 0.7601 0.0
H1362 H 0.44722 0.42167 0.73561 0.0
H1363 H 0.39577 0.48234 0.73205 0.0
H1364 H 0.62596 0.82057 0.29111 0.0
H1365 H 0.57433 0.87613 0.2858 0.0
H1366 H 0.61334 0.96893 0.23983 0.0
H1367 H 0.6658 0.91507 0.24569 0.0
H1368 H 0.57546 0.0629 0.25843 0.0
H1369 H 0.51166 0.80295 0.24811 0.0
H1370 H 0.53101 0.8116 0.26955 0.0
H1371 H 0.55466 0.80845 0.24942 0.0
C1372 C 0.6235 0.85349 0.27998 0.0
C1373 C 0.64955 0.86395 0.26879 0.0
C1374 C 0.59396 0.88446 0.27682 0.0
C1375 C 0.58965 0.92487 0.2621 0.0
C1376 C 0.61604 0.93726 0.25117 0.0
H1377 H 0.39642 0.02958 0.22823 0.0
H1378 H 0.44866 0.97337 0.23155 0.0
C1379 C 0.64592 0.90692 0.25451 0.0
C1380 C 0.55757 0.95445 0.25843 0.0
H1381 H 0.4787 0.90784 0.25472 0.0
C1382 C 0.55432 0.02895 0.25741 0.0
C1383 C 0.53003 0.90997 0.25664 0.0
C1384 C 0.53206 0.82875 0.25578 0.0
C1385 C 0.52421 0.06053 0.25535 0.0
C1386 C 0.49639 0.01673 0.25506 0.0
C1387 C 0.49982 0.94184 0.25538 0.0
C1388 C 0.46361 0.04723 0.25405 0.0
C1389 C 0.52278 0.14029 0.25316 0.0
C1390 C 0.45389 0.10535 0.26609 0.0
C1391 C 0.42437 0.13854 0.26393 0.0
C1392 C 0.4034 0.11234 0.25016 0.0
C1393 C 0.41198 0.05055 0.23905 0.0
C1394 C 0.44194 0.01866 0.24088 0.0
H1395 H 0.54548 0.15974 0.24761 0.0
H1396 H 0.50288 0.15328 0.24417 0.0
H1397 H 0.51917 0.17047 0.26646 0.0
H1398 H 0.46951 0.1265 0.27685 0.0
H1399 H 0.41832 0.18597 0.27272 0.0
loop_
_geom_bond_atom_site_label_1
_geom_bond_atom_site_label_2
_geom_bond_distance
_geom_bond_site_symmetry_2
_ccdc_geom_bond_type
C0 O12 1.241 1_565 S
C0 O13 1.280 . S
C1 O14 1.277 . S
C1 O15 1.245 . S
C2 O26 1.239 1_554 S
C2 O28 1.306 1_655 S
Mg3 O4 1.926 . S
Mg3 O13 1.984 . S
Mg3 O15 1.988 1_565 S
Mg3 O16 2.061 . S
O4 Mg3 1.926 . S
O4 Mg5 1.986 1_565 S
O4 Mg6 1.916 1_565 S
Mg5 O4 1.986 1_545 S
Mg5 O12 2.042 . S
Mg5 O14 2.041 . S
Mg5 O20 2.038 1_455 S
Mg5 O28 2.238 . S
Mg6 O4 1.916 1_545 S
Mg6 O7 1.918 1_454 S
Mg6 O17 2.095 1_544 S
Mg6 O19 2.077 1_445 S
Mg6 O28 2.121 . S
Mg6 O29 2.080 1_554 S
O7 Mg6 1.918 1_656 S
O7 Mg8 1.926 . S
O7 Mg9 1.986 1_545 S
Mg8 O7 1.926 . S
Mg8 O22 1.984 . S
Mg8 O25 1.988 1_545 S
Mg8 O26 2.061 . S
Mg9 O7 1.986 1_565 S
Mg9 O17 2.225 1_655 S
Mg9 O21 2.042 . S
Mg9 O23 2.041 . S
Mg9 O30 2.038 1_655 S
C10 O16 1.247 . S
C10 O17 1.304 1_554 S
C11 O29 1.245 1_565 S
C11 O30 1.274 . S
O12 C0 1.241 1_545 S
O12 Mg5 2.042 . S
O13 C0 1.280 . S
O13 Mg3 1.984 . S
O14 C1 1.277 . S
O14 Mg5 2.041 . S
O15 C1 1.245 . S
O15 Mg3 1.988 1_545 S
O16 Mg3 2.061 . S
O16 C10 1.247 . S
O17 Mg6 2.095 1_566 S
O17 Mg9 2.225 1_455 S
O17 C10 1.304 1_556 S
C18 O19 1.245 1_545 S
C18 O20 1.274 . S
O19 Mg6 2.077 1_665 S
O19 C18 1.245 1_565 S
O20 Mg5 2.038 1_655 S
O20 C18 1.274 . S
O21 Mg9 2.042 . S
O21 C24 1.241 1_565 S
O22 Mg8 1.984 . S
O22 C24 1.280 . S
O23 Mg9 2.041 . S
O23 C27 1.277 . S
C24 O21 1.241 1_545 S
C24 O22 1.280 . S
O25 Mg8 1.988 1_565 S
O25 C27 1.245 . S
O26 C2 1.239 1_556 S
O26 Mg8 2.061 . S
C27 O23 1.277 . S
C27 O25 1.245 . S
O28 C2 1.306 1_455 S
O28 Mg5 2.238 . S
O28 Mg6 2.121 . S
O29 Mg6 2.080 1_556 S
O29 C11 1.245 1_545 S
O30 Mg9 2.038 1_455 S
O30 C11 1.274 . S
C31 O43 1.241 . S
C31 O44 1.280 . S
C32 O45 1.277 . S
C32 O46 1.245 . S
C33 O57 1.247 . S
C33 O59 1.289 . S
Mg34 O35 1.926 . S
Mg34 O44 1.984 . S
Mg34 O46 1.988 . S
Mg34 O47 2.061 . S
O35 Mg34 1.926 . S
O35 Mg36 1.986 . S
O35 Mg37 1.917 . S
Mg36 O35 1.986 . S
Mg36 O43 2.042 . S
Mg36 O45 2.041 . S
Mg36 O51 2.038 . S
Mg36 O59 2.238 . S
Mg37 O35 1.917 . S
Mg37 O38 1.917 . S
Mg37 O48 2.106 . S
Mg37 O50 2.079 . S
Mg37 O59 2.106 . S
Mg37 O60 2.079 . S
O38 Mg37 1.917 . S
O38 Mg39 1.926 . S
O38 Mg40 1.986 . S
Mg39 O38 1.926 . S
Mg39 O53 1.984 . S
Mg39 O56 1.988 . S
Mg39 O57 2.061 . S
Mg40 O38 1.986 . S
Mg40 O48 2.238 . S
Mg40 O52 2.042 . S
Mg40 O54 2.041 . S
Mg40 O61 2.038 . S
C41 O47 1.247 . S
C41 O48 1.289 . S
C42 O60 1.245 . S
C42 O61 1.274 . S
O43 C31 1.241 . S
O43 Mg36 2.042 . S
O44 C31 1.280 . S
O44 Mg34 1.984 . S
O45 C32 1.277 . S
O45 Mg36 2.041 . S
O46 C32 1.245 . S
O46 Mg34 1.988 . S
O47 Mg34 2.061 . S
O47 C41 1.247 . S
O48 Mg37 2.106 . S
O48 Mg40 2.238 . S
O48 C41 1.289 . S
C49 O50 1.245 . S
C49 O51 1.274 . S
O50 Mg37 2.079 . S
O50 C49 1.245 . S
O51 Mg36 2.038 . S
O51 C49 1.274 . S
O52 Mg40 2.042 . S
O52 C55 1.241 . S
O53 Mg39 1.984 . S
O53 C55 1.280 . S
O54 Mg40 2.041 . S
O54 C58 1.277 . S
C55 O52 1.241 . S
C55 O53 1.280 . S
O56 Mg39 1.988 . S
O56 C58 1.245 . S
O57 C33 1.247 . S
O57 Mg39 2.061 . S
C58 O54 1.277 . S
C58 O56 1.245 . S
O59 C33 1.289 . S
O59 Mg36 2.238 . S
O59 Mg37 2.106 . S
O60 Mg37 2.079 . S
O60 C42 1.245 . S
O61 Mg40 2.038 . S
O61 C42 1.274 . S
C62 O74 1.241 . S
C62 O75 1.280 . S
C63 O76 1.277 . S
C63 O77 1.245 . S
C64 O88 1.247 . S
C64 O90 1.289 . S
Mg65 O66 1.926 . S
Mg65 O75 1.984 . S
Mg65 O77 1.988 . S
Mg65 O78 2.061 . S
O66 Mg65 1.926 . S
O66 Mg67 1.986 . S
O66 Mg68 1.917 . S
Mg67 O66 1.986 . S
Mg67 O74 2.042 . S
Mg67 O76 2.041 . S
Mg67 O82 2.038 . S
Mg67 O90 2.238 . S
Mg68 O66 1.917 . S
Mg68 O69 1.917 . S
Mg68 O79 2.106 . S
Mg68 O81 2.079 . S
Mg68 O90 2.106 . S
Mg68 O91 2.079 . S
O69 Mg68 1.917 . S
O69 Mg70 1.926 . S
O69 Mg71 1.986 . S
Mg70 O69 1.926 . S
Mg70 O84 1.984 . S
Mg70 O87 1.988 . S
Mg70 O88 2.061 . S
Mg71 O69 1.986 . S
Mg71 O79 2.238 . S
Mg71 O83 2.042 . S
Mg71 O85 2.041 . S
Mg71 O92 2.038 . S
C72 O78 1.247 . S
C72 O79 1.289 . S
C73 O91 1.245 . S
C73 O92 1.274 . S
O74 C62 1.241 . S
O74 Mg67 2.042 . S
O75 C62 1.280 . S
O75 Mg65 1.984 . S
O76 C63 1.277 . S
O76 Mg67 2.041 . S
O77 C63 1.245 . S
O77 Mg65 1.988 . S
O78 Mg65 2.061 . S
O78 C72 1.247 . S
O79 Mg68 2.106 . S
O79 Mg71 2.238 . S
O79 C72 1.289 . S
C80 O81 1.245 . S
C80 O82 1.274 . S
O81 Mg68 2.079 . S
O81 C80 1.245 . S
O82 Mg67 2.038 . S
O82 C80 1.274 . S
O83 Mg71 2.042 . S
O83 C86 1.241 . S
O84 Mg70 1.984 . S
O84 C86 1.280 . S
O85 Mg71 2.041 . S
O85 C89 1.277 . S
C86 O83 1.241 . S
C86 O84 1.280 . S
O87 Mg70 1.988 . S
O87 C89 1.245 . S
O88 C64 1.247 . S
O88 Mg70 2.061 . S
C89 O85 1.277 . S
C89 O87 1.245 . S
O90 C64 1.289 . S
O90 Mg67 2.238 . S
O90 Mg68 2.106 . S
O91 Mg68 2.079 . S
O91 C73 1.245 . S
O92 Mg71 2.038 . S
O92 C73 1.274 . S
C93 O105 1.241 . S
C93 O106 1.280 . S
C94 O107 1.277 . S
C94 O108 1.245 . S
C95 O119 1.247 . S
C95 O121 1.289 1_655 S
Mg96 O97 1.926 . S
Mg96 O106 1.984 . S
Mg96 O108 1.988 . S
Mg96 O109 2.061 . S
O97 Mg96 1.926 . S
O97 Mg98 1.986 . S
O97 Mg99 1.917 . S
Mg98 O97 1.986 . S
Mg98 O105 2.042 . S
Mg98 O107 2.041 . S
Mg98 O113 2.038 1_455 S
Mg98 O121 2.238 . S
Mg99 O97 1.917 . S
Mg99 O100 1.917 1_455 S
Mg99 O110 2.109 . S
Mg99 O112 2.079 1_455 S
Mg99 O121 2.106 . S
Mg99 O122 2.079 . S
O100 Mg99 1.917 1_655 S
O100 Mg101 1.926 . S
O100 Mg102 1.986 . S
Mg101 O100 1.926 . S
Mg101 O115 1.984 . S
Mg101 O118 1.988 . S
Mg101 O119 2.061 . S
Mg102 O100 1.986 . S
Mg102 O110 2.225 1_655 S
Mg102 O114 2.042 . S
Mg102 O116 2.041 . S
Mg102 O123 2.038 1_655 S
C103 O109 1.247 . S
C103 O110 1.303 . S
C104 O122 1.245 . S
C104 O123 1.274 . S
O105 C93 1.241 . S
O105 Mg98 2.042 . S
O106 C93 1.280 . S
O106 Mg96 1.984 . S
O107 C94 1.277 . S
O107 Mg98 2.041 . S
O108 C94 1.245 . S
O108 Mg96 1.988 . S
O109 Mg96 2.061 . S
O109 C103 1.247 . S
O110 Mg99 2.109 . S
O110 Mg102 2.225 1_455 S
O110 C103 1.303 . S
C111 O112 1.245 . S
C111 O113 1.274 . S
O112 Mg99 2.079 1_655 S
O112 C111 1.245 . S
O113 Mg98 2.038 1_655 S
O113 C111 1.274 . S
O114 Mg102 2.042 . S
O114 C117 1.241 . S
O115 Mg101 1.984 . S
O115 C117 1.280 . S
O116 Mg102 2.041 . S
O116 C120 1.277 . S
C117 O114 1.241 . S
C117 O115 1.280 . S
O118 Mg101 1.988 . S
O118 C120 1.245 . S
O119 C95 1.247 . S
O119 Mg101 2.061 . S
C120 O116 1.277 . S
C120 O118 1.245 . S
O121 C95 1.289 1_455 S
O121 Mg98 2.238 . S
O121 Mg99 2.106 . S
O122 Mg99 2.079 . S
O122 C104 1.245 . S
O123 Mg102 2.038 1_455 S
O123 C104 1.274 . S
C124 O136 1.241 . S
C124 O137 1.280 . S
C125 O138 1.277 . S
C125 O139 1.245 . S
C126 O150 1.247 . S
C126 O152 1.289 . S
Mg127 O128 1.926 . S
Mg127 O137 1.984 . S
Mg127 O139 1.988 . S
Mg127 O140 2.061 . S
O128 Mg127 1.926 . S
O128 Mg129 1.986 . S
O128 Mg130 1.917 . S
Mg129 O128 1.986 . S
Mg129 O136 2.042 . S
Mg129 O138 2.041 . S
Mg129 O144 2.038 . S
Mg129 O152 2.238 . S
Mg130 O128 1.917 . S
Mg130 O131 1.917 . S
Mg130 O141 2.106 . S
Mg130 O143 2.079 . S
Mg130 O152 2.106 . S
Mg130 O153 2.079 . S
O131 Mg130 1.917 . S
O131 Mg132 1.926 . S
O131 Mg133 1.986 . S
Mg132 O131 1.926 . S
Mg132 O146 1.984 . S
Mg132 O149 1.988 . S
Mg132 O150 2.061 . S
Mg133 O131 1.986 . S
Mg133 O141 2.238 . S
Mg133 O145 2.042 . S
Mg133 O147 2.041 . S
Mg133 O154 2.038 . S
C134 O140 1.247 . S
C134 O141 1.289 . S
C135 O153 1.245 . S
C135 O154 1.274 . S
O136 C124 1.241 . S
O136 Mg129 2.042 . S
O137 C124 1.280 . S
O137 Mg127 1.984 . S
O138 C125 1.277 . S
O138 Mg129 2.041 . S
O139 C125 1.245 . S
O139 Mg127 1.988 . S
O140 Mg127 2.061 . S
O140 C134 1.247 . S
O141 Mg130 2.106 . S
O141 Mg133 2.238 . S
O141 C134 1.289 . S
C142 O143 1.245 . S
C142 O144 1.274 . S
O143 Mg130 2.079 . S
O143 C142 1.245 . S
O144 Mg129 2.038 . S
O144 C142 1.274 . S
O145 Mg133 2.042 . S
O145 C148 1.241 . S
O146 Mg132 1.984 . S
O146 C148 1.280 . S
O147 Mg133 2.041 . S
O147 C151 1.277 . S
C148 O145 1.241 . S
C148 O146 1.280 . S
O149 Mg132 1.988 . S
O149 C151 1.245 . S
O150 C126 1.247 . S
O150 Mg132 2.061 . S
C151 O147 1.277 . S
C151 O149 1.245 . S
O152 C126 1.289 . S
O152 Mg129 2.238 . S
O152 Mg130 2.106 . S
O153 Mg130 2.079 . S
O153 C135 1.245 . S
O154 Mg133 2.038 . S
O154 C135 1.274 . S
C155 O167 1.241 . S
C155 O168 1.280 . S
C156 O169 1.277 . S
C156 O170 1.245 . S
C157 O181 1.247 . S
C157 O183 1.289 . S
Mg158 O159 1.926 . S
Mg158 O168 1.984 . S
Mg158 O170 1.988 . S
Mg158 O171 2.061 . S
O159 Mg158 1.926 . S
O159 Mg160 1.986 . S
O159 Mg161 1.917 . S
Mg160 O159 1.986 . S
Mg160 O167 2.042 . S
Mg160 O169 2.041 . S
Mg160 O175 2.038 . S
Mg160 O183 2.238 . S
Mg161 O159 1.917 . S
Mg161 O162 1.917 . S
Mg161 O172 2.106 . S
Mg161 O174 2.079 . S
Mg161 O183 2.106 . S
Mg161 O184 2.079 . S
O162 Mg161 1.917 . S
O162 Mg163 1.926 . S
O162 Mg164 1.986 . S
Mg163 O162 1.926 . S
Mg163 O177 1.984 . S
Mg163 O180 1.988 . S
Mg163 O181 2.061 . S
Mg164 O162 1.986 . S
Mg164 O172 2.238 . S
Mg164 O176 2.042 . S
Mg164 O178 2.041 . S
Mg164 O185 2.038 . S
C165 O171 1.247 . S
C165 O172 1.289 . S
C166 O184 1.245 . S
C166 O185 1.274 . S
O167 C155 1.241 . S
O167 Mg160 2.042 . S
O168 C155 1.280 . S
O168 Mg158 1.984 . S
O169 C156 1.277 . S
O169 Mg160 2.041 . S
O170 C156 1.245 . S
O170 Mg158 1.988 . S
O171 Mg158 2.061 . S
O171 C165 1.247 . S
O172 Mg161 2.106 . S
O172 Mg164 2.238 . S
O172 C165 1.289 . S
C173 O174 1.245 . S
C173 O175 1.274 . S
O174 Mg161 2.079 . S
O174 C173 1.245 . S
O175 Mg160 2.038 . S
O175 C173 1.274 . S
O176 Mg164 2.042 . S
O176 C179 1.241 . S
O177 Mg163 1.984 . S
O177 C179 1.280 . S
O178 Mg164 2.041 . S
O178 C182 1.277 . S
C179 O176 1.241 . S
C179 O177 1.280 . S
O180 Mg163 1.988 . S
O180 C182 1.245 . S
O181 C157 1.247 . S
O181 Mg163 2.061 . S
C182 O178 1.277 . S
C182 O180 1.245 . S
O183 C157 1.289 . S
O183 Mg160 2.238 . S
O183 Mg161 2.106 . S
O184 Mg161 2.079 . S
O184 C166 1.245 . S
O185 Mg164 2.038 . S
O185 C166 1.274 . S
C186 O198 1.241 1_565 S
C186 O199 1.280 . S
C187 O200 1.277 . S
C187 O201 1.245 . S
C188 O212 1.247 . S
C188 O214 1.289 . S
Mg189 O190 1.926 . S
Mg189 O199 1.984 . S
Mg189 O201 1.988 1_565 S
Mg189 O202 2.061 . S
O190 Mg189 1.926 . S
O190 Mg191 1.986 1_565 S
O190 Mg192 1.916 1_565 S
Mg191 O190 1.986 1_545 S
Mg191 O198 2.042 . S
Mg191 O200 2.041 . S
Mg191 O206 2.038 . S
Mg191 O214 2.238 . S
Mg192 O190 1.916 1_545 S
Mg192 O193 1.918 . S
Mg192 O203 2.094 1_545 S
Mg192 O205 2.077 1_545 S
Mg192 O214 2.119 . S
Mg192 O215 2.080 . S
O193 Mg192 1.918 . S
O193 Mg194 1.926 . S
O193 Mg195 1.986 1_545 S
Mg194 O193 1.926 . S
Mg194 O208 1.984 . S
Mg194 O211 1.988 1_545 S
Mg194 O212 2.061 . S
Mg195 O193 1.986 1_565 S
Mg195 O203 2.238 . S
Mg195 O207 2.042 . S
Mg195 O209 2.041 . S
Mg195 O216 2.038 . S
C196 O202 1.247 . S
C196 O203 1.289 . S
C197 O215 1.245 1_565 S
C197 O216 1.274 . S
O198 C186 1.241 1_545 S
O198 Mg191 2.042 . S
O199 C186 1.280 . S
O199 Mg189 1.984 . S
O200 C187 1.277 . S
O200 Mg191 2.041 . S
O201 C187 1.245 . S
O201 Mg189 1.988 1_545 S
O202 Mg189 2.061 . S
O202 C196 1.247 . S
O203 Mg192 2.094 1_565 S
O203 Mg195 2.238 . S
O203 C196 1.289 . S
C204 O205 1.245 1_545 S
C204 O206 1.274 . S
O205 Mg192 2.077 1_565 S
O205 C204 1.245 1_565 S
O206 Mg191 2.038 . S
O206 C204 1.274 . S
O207 Mg195 2.042 . S
O207 C210 1.241 1_565 S
O208 Mg194 1.984 . S
O208 C210 1.280 . S
O209 Mg195 2.041 . S
O209 C213 1.277 . S
C210 O207 1.241 1_545 S
C210 O208 1.280 . S
O211 Mg194 1.988 1_565 S
O211 C213 1.245 . S
O212 C188 1.247 . S
O212 Mg194 2.061 . S
C213 O209 1.277 . S
C213 O211 1.245 . S
O214 C188 1.289 . S
O214 Mg191 2.238 . S
O214 Mg192 2.119 . S
O215 Mg192 2.080 . S
O215 C197 1.245 1_545 S
O216 Mg195 2.038 . S
O216 C197 1.274 . S
C217 O229 1.241 . S
C217 O230 1.280 . S
C218 O231 1.277 . S
C218 O232 1.245 . S
C219 O243 1.239 1_554 S
C219 O245 1.306 . S
Mg220 O221 1.926 . S
Mg220 O230 1.984 . S
Mg220 O232 1.988 . S
Mg220 O233 2.061 . S
O221 Mg220 1.926 . S
O221 Mg222 1.986 . S
O221 Mg223 1.917 . S
Mg222 O221 1.986 . S
Mg222 O229 2.042 . S
Mg222 O231 2.041 . S
Mg222 O237 2.038 . S
Mg222 O245 2.238 . S
Mg223 O221 1.917 . S
Mg223 O224 1.917 1_554 S
Mg223 O234 2.106 1_554 S
Mg223 O236 2.079 . S
Mg223 O245 2.106 . S
Mg223 O246 2.079 1_554 S
O224 Mg223 1.917 1_556 S
O224 Mg225 1.926 . S
O224 Mg226 1.986 . S
Mg225 O224 1.926 . S
Mg225 O239 1.984 . S
Mg225 O242 1.988 . S
Mg225 O243 2.061 . S
Mg226 O224 1.986 . S
Mg226 O234 2.238 . S
Mg226 O238 2.042 . S
Mg226 O240 2.041 . S
Mg226 O247 2.038 . S
C227 O233 1.247 . S
C227 O234 1.289 1_554 S
C228 O246 1.245 . S
C228 O247 1.274 . S
O229 C217 1.241 . S
O229 Mg222 2.042 . S
O230 C217 1.280 . S
O230 Mg220 1.984 . S
O231 C218 1.277 . S
O231 Mg222 2.041 . S
O232 C218 1.245 . S
O232 Mg220 1.988 . S
O233 Mg220 2.061 . S
O233 C227 1.247 . S
O234 Mg223 2.106 1_556 S
O234 Mg226 2.238 . S
O234 C227 1.289 1_556 S
C235 O236 1.245 . S
C235 O237 1.274 . S
O236 Mg223 2.079 . S
O236 C235 1.245 . S
O237 Mg222 2.038 . S
O237 C235 1.274 . S
O238 Mg226 2.042 . S
O238 C241 1.241 . S
O239 Mg225 1.984 . S
O239 C241 1.280 . S
O240 Mg226 2.041 . S
O240 C244 1.277 . S
C241 O238 1.241 . S
C241 O239 1.280 . S
O242 Mg225 1.988 . S
O242 C244 1.245 . S
O243 C219 1.239 1_556 S
O243 Mg225 2.061 . S
C244 O240 1.277 . S
C244 O242 1.245 . S
O245 C219 1.306 . S
O245 Mg222 2.238 . S
O245 Mg223 2.106 . S
O246 Mg223 2.079 1_556 S
O246 C228 1.245 . S
O247 Mg226 2.038 . S
O247 C228 1.274 . S
H248 C256 0.929 . S
H249 C258 0.930 . S
H250 C260 0.930 . S
H251 C263 0.929 . S
H252 C266 0.930 . S
H253 C268 0.960 . S
H254 C268 0.960 . S
H255 C268 0.960 . S
C256 H248 0.929 . S
C256 C257 1.377 1_545 S
C256 C258 1.384 . S
C257 C256 1.377 1_565 S
C257 C263 1.390 . S
C258 H249 0.930 . S
C258 C256 1.384 . S
C258 C259 1.372 . S
C259 C258 1.372 . S
C259 C260 1.400 1_545 S
C259 C264 1.490 . S
C260 H250 0.930 . S
C260 C259 1.400 1_565 S
C260 C263 1.386 . S
H261 C277 0.930 . S
H262 C278 0.931 . S
C263 H251 0.929 . S
C263 C257 1.390 . S
C263 C260 1.386 . S
C264 C259 1.490 . S
C264 C266 1.395 . S
C264 C267 1.403 . S
H265 C271 0.930 . S
C266 H252 0.930 . S
C266 C264 1.395 . S
C266 C269 1.403 . S
C267 C264 1.403 . S
C267 C268 1.524 . S
C267 C271 1.400 . S
C268 H253 0.960 . S
C268 H254 0.960 . S
C268 H255 0.960 . S
C268 C267 1.524 . S
C269 C266 1.403 . S
C269 C270 1.392 . S
C269 C273 1.495 . S
C270 C269 1.392 . S
C270 C271 1.385 . S
C270 C272 1.478 . S
C271 H265 0.930 . S
C271 C267 1.400 . S
C271 C270 1.385 . S
C272 C270 1.478 . S
C272 C274 1.381 . S
C272 C278 1.383 . S
C273 C269 1.495 . S
C273 H279 0.959 . S
C273 H280 0.961 . S
C273 H281 0.960 . S
C274 C272 1.381 . S
C274 C275 1.394 . S
C274 H282 0.930 . S
C275 C274 1.394 . S
C275 C276 1.383 . S
C275 H283 0.929 . S
C276 C275 1.383 . S
C276 C277 1.377 . S
C277 H261 0.930 . S
C277 C276 1.377 . S
C277 C278 1.379 . S
C278 H262 0.931 . S
C278 C272 1.383 . S
C278 C277 1.379 . S
H279 C273 0.959 . S
H280 C273 0.961 . S
H281 C273 0.960 . S
H282 C274 0.930 . S
H283 C275 0.929 . S
H284 C292 0.929 . S
H285 C294 0.930 . S
H286 C296 0.930 . S
H287 C299 0.929 . S
H288 C302 0.930 . S
H289 C304 0.960 . S
H290 C304 0.960 . S
H291 C304 0.960 . S
C292 H284 0.929 . S
C292 C293 1.377 . S
C292 C294 1.384 . S
C293 C292 1.377 . S
C293 C299 1.390 1_565 S
C294 H285 0.930 . S
C294 C292 1.384 . S
C294 C295 1.372 . S
C295 C294 1.372 . S
C295 C296 1.400 . S
C295 C300 1.490 . S
C296 H286 0.930 . S
C296 C295 1.400 . S
C296 C299 1.386 1_565 S
H297 C313 0.930 . S
H298 C314 0.931 . S
C299 H287 0.929 . S
C299 C293 1.390 1_545 S
C299 C296 1.386 1_545 S
C300 C295 1.490 . S
C300 C302 1.395 . S
C300 C303 1.403 . S
H301 C307 0.930 . S
C302 H288 0.930 . S
C302 C300 1.395 . S
C302 C305 1.403 . S
C303 C300 1.403 . S
C303 C304 1.524 1_565 S
C303 C307 1.400 . S
C304 H289 0.960 . S
C304 H290 0.960 . S
C304 H291 0.960 . S
C304 C303 1.524 1_545 S
C305 C302 1.403 . S
C305 C306 1.392 . S
C305 C309 1.495 . S
C306 C305 1.392 . S
C306 C307 1.385 . S
C306 C308 1.478 . S
C307 H301 0.930 . S
C307 C303 1.400 . S
C307 C306 1.385 . S
C308 C306 1.478 . S
C308 C310 1.381 . S
C308 C314 1.383 . S
C309 C305 1.495 . S
C309 H315 0.959 . S
C309 H316 0.961 . S
C309 H317 0.960 . S
C310 C308 1.381 . S
C310 C311 1.394 . S
C310 H318 0.930 . S
C311 C310 1.394 . S
C311 C312 1.383 . S
C311 H319 0.929 . S
C312 C311 1.383 . S
C312 C313 1.377 . S
C313 H297 0.930 . S
C313 C312 1.377 . S
C313 C314 1.379 . S
C314 H298 0.931 . S
C314 C308 1.383 . S
C314 C313 1.379 . S
H315 C309 0.959 . S
H316 C309 0.961 . S
H317 C309 0.960 . S
H318 C310 0.930 . S
H319 C311 0.929 . S
H320 C328 0.929 . S
H321 C330 0.930 . S
H322 C332 0.930 . S
H323 C335 0.929 . S
H324 C338 0.930 . S
H325 C340 0.960 . S
H326 C340 0.960 . S
H327 C340 0.960 . S
C328 H320 0.929 . S
C328 C329 1.377 . S
C328 C330 1.384 . S
C329 C328 1.377 . S
C329 C335 1.390 . S
C330 H321 0.930 . S
C330 C328 1.384 . S
C330 C331 1.372 . S
C331 C330 1.372 . S
C331 C332 1.400 . S
C331 C336 1.490 . S
C332 H322 0.930 . S
C332 C331 1.400 . S
C332 C335 1.386 . S
H333 C349 0.930 . S
H334 C350 0.931 . S
C335 H323 0.929 . S
C335 C329 1.390 . S
C335 C332 1.386 . S
C336 C331 1.490 . S
C336 C338 1.395 . S
C336 C339 1.403 . S
H337 C343 0.930 . S
C338 H324 0.930 . S
C338 C336 1.395 . S
C338 C341 1.403 . S
C339 C336 1.403 . S
C339 C340 1.524 . S
C339 C343 1.400 . S
C340 H325 0.960 . S
C340 H326 0.960 . S
C340 H327 0.960 . S
C340 C339 1.524 . S
C341 C338 1.403 . S
C341 C342 1.392 . S
C341 C345 1.495 . S
C342 C341 1.392 . S
C342 C343 1.385 . S
C342 C344 1.478 . S
C343 H337 0.930 . S
C343 C339 1.400 . S
C343 C342 1.385 . S
C344 C342 1.478 . S
C344 C346 1.381 . S
C344 C350 1.383 . S
C345 C341 1.495 . S
C345 H351 0.959 . S
C345 H352 0.961 . S
C345 H353 0.960 . S
C346 C344 1.381 . S
C346 C347 1.394 . S
C346 H354 0.930 . S
C347 C346 1.394 . S
C347 C348 1.383 . S
C347 H355 0.929 . S
C348 C347 1.383 . S
C348 C349 1.377 . S
C349 H333 0.930 . S
C349 C348 1.377 . S
C349 C350 1.379 . S
C350 H334 0.931 . S
C350 C344 1.383 . S
C350 C349 1.379 . S
H351 C345 0.959 . S
H352 C345 0.961 . S
H353 C345 0.960 . S
H354 C346 0.930 . S
H355 C347 0.929 . S
H356 C364 0.929 . S
H357 C366 0.930 . S
H358 C368 0.930 . S
H359 C371 0.929 . S
H360 C374 0.930 . S
H361 C376 0.960 . S
H362 C376 0.960 . S
H363 C376 0.960 . S
C364 H356 0.929 . S
C364 C365 1.377 . S
C364 C366 1.384 . S
C365 C364 1.377 . S
C365 C371 1.390 . S
C366 H357 0.930 . S
C366 C364 1.384 . S
C366 C367 1.372 . S
C367 C366 1.372 . S
C367 C368 1.400 . S
C367 C372 1.490 . S
C368 H358 0.930 . S
C368 C367 1.400 . S
C368 C371 1.386 . S
H369 C385 0.930 . S
H370 C386 0.931 . S
C371 H359 0.929 . S
C371 C365 1.390 . S
C371 C368 1.386 . S
C372 C367 1.490 . S
C372 C374 1.395 . S
C372 C375 1.403 . S
H373 C379 0.930 . S
C374 H360 0.930 . S
C374 C372 1.395 . S
C374 C377 1.403 . S
C375 C372 1.403 . S
C375 C376 1.524 . S
C375 C379 1.400 . S
C376 H361 0.960 . S
C376 H362 0.960 . S
C376 H363 0.960 . S
C376 C375 1.524 . S
C377 C374 1.403 . S
C377 C378 1.392 . S
C377 C381 1.495 . S
C378 C377 1.392 . S
C378 C379 1.385 . S
C378 C380 1.478 . S
C379 H373 0.930 . S
C379 C375 1.400 . S
C379 C378 1.385 . S
C380 C378 1.478 . S
C380 C382 1.381 . S
C380 C386 1.383 . S
C381 C377 1.495 . S
C381 H387 0.959 . S
C381 H388 0.961 . S
C381 H389 0.960 . S
C382 C380 1.381 . S
C382 C383 1.394 . S
C382 H390 0.930 . S
C383 C382 1.394 . S
C383 C384 1.383 . S
C383 H391 0.929 . S
C384 C383 1.383 . S
C384 C385 1.377 . S
C385 H369 0.930 . S
C385 C384 1.377 . S
C385 C386 1.379 . S
C386 H370 0.931 . S
C386 C380 1.383 . S
C386 C385 1.379 . S
H387 C381 0.959 . S
H388 C381 0.961 . S
H389 C381 0.960 . S
H390 C382 0.930 . S
H391 C383 0.929 . S
H392 C400 0.929 . S
H393 C402 0.930 . S
H394 C404 0.930 . S
H395 C407 0.929 . S
H396 C410 0.930 . S
H397 C412 0.960 . S
H398 C412 0.960 . S
H399 C412 0.960 . S
C400 H392 0.929 . S
C400 C401 1.377 . S
C400 C402 1.384 . S
C401 C400 1.377 . S
C401 C407 1.390 . S
C402 H393 0.930 . S
C402 C400 1.384 . S
C402 C403 1.372 . S
C403 C402 1.372 . S
C403 C404 1.400 . S
C403 C408 1.490 . S
C404 H394 0.930 . S
C404 C403 1.400 . S
C404 C407 1.386 . S
H405 C421 0.930 . S
H406 C422 0.931 . S
C407 H395 0.929 . S
C407 C401 1.390 . S
C407 C404 1.386 . S
C408 C403 1.490 . S
C408 C410 1.395 . S
C408 C411 1.403 . S
H409 C415 0.930 . S
C410 H396 0.930 . S
C410 C408 1.395 . S
C410 C413 1.403 . S
C411 C408 1.403 . S
C411 C412 1.524 . S
C411 C415 1.400 . S
C412 H397 0.960 . S
C412 H398 0.960 . S
C412 H399 0.960 . S
C412 C411 1.524 . S
C413 C410 1.403 . S
C413 C414 1.392 . S
C413 C417 1.495 . S
C414 C413 1.392 . S
C414 C415 1.385 . S
C414 C416 1.478 . S
C415 H409 0.930 . S
C415 C411 1.400 . S
C415 C414 1.385 . S
C416 C414 1.478 . S
C416 C418 1.381 . S
C416 C422 1.383 . S
C417 C413 1.495 . S
C417 H423 0.959 . S
C417 H424 0.961 . S
C417 H425 0.960 . S
C418 C416 1.381 . S
C418 C419 1.394 . S
C418 H426 0.930 . S
C419 C418 1.394 . S
C419 C420 1.383 . S
C419 H427 0.929 . S
C420 C419 1.383 . S
C420 C421 1.377 . S
C421 H405 0.930 . S
C421 C420 1.377 . S
C421 C422 1.379 . S
C422 H406 0.931 . S
C422 C416 1.383 . S
C422 C421 1.379 . S
H423 C417 0.959 . S
H424 C417 0.961 . S
H425 C417 0.960 . S
H426 C418 0.930 . S
H427 C419 0.929 . S
H428 C436 0.929 . S
H429 C438 0.930 . S
H430 C440 0.930 . S
H431 C443 0.929 . S
H432 C446 0.930 . S
H433 C448 0.960 . S
H434 C448 0.960 . S
H435 C448 0.960 . S
C436 H428 0.929 . S
C436 C437 1.377 . S
C436 C438 1.384 . S
C437 C436 1.377 . S
C437 C443 1.390 . S
C438 H429 0.930 . S
C438 C436 1.384 . S
C438 C439 1.372 . S
C439 C438 1.372 . S
C439 C440 1.400 . S
C439 C444 1.490 . S
C440 H430 0.930 . S
C440 C439 1.400 . S
C440 C443 1.386 . S
H441 C457 0.930 . S
H442 C458 0.931 . S
C443 H431 0.929 . S
C443 C437 1.390 . S
C443 C440 1.386 . S
C444 C439 1.490 . S
C444 C446 1.395 . S
C444 C447 1.403 . S
H445 C451 0.930 . S
C446 H432 0.930 . S
C446 C444 1.395 . S
C446 C449 1.403 . S
C447 C444 1.403 . S
C447 C448 1.524 . S
C447 C451 1.400 . S
C448 H433 0.960 . S
C448 H434 0.960 . S
C448 H435 0.960 . S
C448 C447 1.524 . S
C449 C446 1.403 . S
C449 C450 1.392 . S
C449 C453 1.495 . S
C450 C449 1.392 . S
C450 C451 1.385 . S
C450 C452 1.478 . S
C451 H445 0.930 . S
C451 C447 1.400 . S
C451 C450 1.385 . S
C452 C450 1.478 . S
C452 C454 1.381 . S
C452 C458 1.383 . S
C453 C449 1.495 . S
C453 H459 0.959 . S
C453 H460 0.961 . S
C453 H461 0.960 . S
C454 C452 1.381 . S
C454 C455 1.394 . S
C454 H462 0.930 . S
C455 C454 1.394 . S
C455 C456 1.383 . S
C455 H463 0.929 . S
C456 C455 1.383 . S
C456 C457 1.377 . S
C457 H441 0.930 . S
C457 C456 1.377 . S
C457 C458 1.379 . S
C458 H442 0.931 . S
C458 C452 1.383 . S
C458 C457 1.379 . S
H459 C453 0.959 . S
H460 C453 0.961 . S
H461 C453 0.960 . S
H462 C454 0.930 . S
H463 C455 0.929 . S
H464 C472 0.929 . S
H465 C474 0.930 . S
H466 C476 0.930 . S
H467 C479 0.929 . S
H468 C482 0.930 . S
H469 C484 0.960 . S
H470 C484 0.960 . S
H471 C484 0.960 . S
C472 H464 0.929 . S
C472 C473 1.377 . S
C472 C474 1.384 . S
C473 C472 1.377 . S
C473 C479 1.390 . S
C474 H465 0.930 . S
C474 C472 1.384 . S
C474 C475 1.372 . S
C475 C474 1.372 . S
C475 C476 1.400 . S
C475 C480 1.490 . S
C476 H466 0.930 . S
C476 C475 1.400 . S
C476 C479 1.386 . S
H477 C493 0.930 . S
H478 C494 0.931 . S
C479 H467 0.929 . S
C479 C473 1.390 . S
C479 C476 1.386 . S
C480 C475 1.490 . S
C480 C482 1.395 . S
C480 C483 1.403 . S
H481 C487 0.930 . S
C482 H468 0.930 . S
C482 C480 1.395 . S
C482 C485 1.403 . S
C483 C480 1.403 . S
C483 C484 1.524 . S
C483 C487 1.400 . S
C484 H469 0.960 . S
C484 H470 0.960 . S
C484 H471 0.960 . S
C484 C483 1.524 . S
C485 C482 1.403 . S
C485 C486 1.392 . S
C485 C489 1.495 . S
C486 C485 1.392 . S
C486 C487 1.385 . S
C486 C488 1.478 . S
C487 H481 0.930 . S
C487 C483 1.400 . S
C487 C486 1.385 . S
C488 C486 1.478 . S
C488 C490 1.381 . S
C488 C494 1.383 . S
C489 C485 1.495 . S
C489 H495 0.959 . S
C489 H496 0.961 . S
C489 H497 0.960 . S
C490 C488 1.381 . S
C490 C491 1.394 1_565 S
C490 H498 0.930 . S
C491 C490 1.394 1_545 S
C491 C492 1.383 1_545 S
C491 H499 0.929 . S
C492 C491 1.383 1_565 S
C492 C493 1.377 . S
C493 H477 0.930 . S
C493 C492 1.377 . S
C493 C494 1.379 . S
C494 H478 0.931 . S
C494 C488 1.383 . S
C494 C493 1.379 . S
H495 C489 0.959 . S
H496 C489 0.961 . S
H497 C489 0.960 . S
H498 C490 0.930 . S
H499 C491 0.929 . S
H500 C508 0.929 . S
H501 C510 0.930 . S
H502 C512 0.930 . S
H503 C515 0.929 . S
H504 C518 0.930 . S
H505 C520 0.960 . S
H506 C520 0.960 . S
H507 C520 0.960 . S
C508 H500 0.929 . S
C508 C509 1.377 . S
C508 C510 1.384 . S
C509 C508 1.377 . S
C509 C515 1.390 . S
C510 H501 0.930 . S
C510 C508 1.384 . S
C510 C511 1.372 . S
C511 C510 1.372 . S
C511 C512 1.400 . S
C511 C516 1.490 . S
C512 H502 0.930 . S
C512 C511 1.400 . S
C512 C515 1.386 . S
H513 C529 0.930 . S
H514 C530 0.931 . S
C515 H503 0.929 . S
C515 C509 1.390 . S
C515 C512 1.386 . S
C516 C511 1.490 . S
C516 C518 1.395 . S
C516 C519 1.403 . S
H517 C523 0.930 . S
C518 H504 0.930 . S
C518 C516 1.395 . S
C518 C521 1.403 . S
C519 C516 1.403 . S
C519 C520 1.524 . S
C519 C523 1.400 . S
C520 H505 0.960 . S
C520 H506 0.960 . S
C520 H507 0.960 . S
C520 C519 1.524 . S
C521 C518 1.403 . S
C521 C522 1.392 . S
C521 C525 1.495 . S
C522 C521 1.392 . S
C522 C523 1.385 . S
C522 C524 1.478 . S
C523 H517 0.930 . S
C523 C519 1.400 . S
C523 C522 1.385 . S
C524 C522 1.478 . S
C524 C526 1.381 . S
C524 C530 1.383 . S
C525 C521 1.495 . S
C525 H531 0.959 . S
C525 H532 0.961 . S
C525 H533 0.960 . S
C526 C524 1.381 . S
C526 C527 1.394 . S
C526 H534 0.930 . S
C527 C526 1.394 . S
C527 C528 1.383 . S
C527 H535 0.929 1_545 S
C528 C527 1.383 . S
C528 C529 1.377 . S
C529 H513 0.930 . S
C529 C528 1.377 . S
C529 C530 1.379 . S
C530 H514 0.931 . S
C530 C524 1.383 . S
C530 C529 1.379 . S
H531 C525 0.959 . S
H532 C525 0.961 . S
H533 C525 0.960 . S
H534 C526 0.930 . S
H535 C527 0.929 1_565 S
H536 C544 0.929 . S
H537 C546 0.930 . S
H538 C548 0.930 . S
H539 C551 0.929 . S
H540 C554 0.930 . S
H541 C556 0.960 . S
H542 C556 0.960 . S
H543 C556 0.960 . S
C544 H536 0.929 . S
C544 C545 1.377 . S
C544 C546 1.384 . S
C545 C544 1.377 . S
C545 C551 1.390 . S
C546 H537 0.930 . S
C546 C544 1.384 . S
C546 C547 1.372 . S
C547 C546 1.372 . S
C547 C548 1.400 . S
C547 C552 1.490 . S
C548 H538 0.930 . S
C548 C547 1.400 . S
C548 C551 1.386 . S
H549 C565 0.930 . S
H550 C566 0.931 . S
C551 H539 0.929 . S
C551 C545 1.390 . S
C551 C548 1.386 . S
C552 C547 1.490 . S
C552 C554 1.395 . S
C552 C555 1.403 . S
H553 C559 0.930 . S
C554 H540 0.930 . S
C554 C552 1.395 . S
C554 C557 1.403 . S
C555 C552 1.403 . S
C555 C556 1.524 . S
C555 C559 1.400 . S
C556 H541 0.960 . S
C556 H542 0.960 . S
C556 H543 0.960 . S
C556 C555 1.524 . S
C557 C554 1.403 . S
C557 C558 1.392 . S
C557 C561 1.495 . S
C558 C557 1.392 . S
C558 C559 1.385 . S
C558 C560 1.478 . S
C559 H553 0.930 . S
C559 C555 1.400 . S
C559 C558 1.385 . S
C560 C558 1.478 . S
C560 C562 1.381 . S
C560 C566 1.383 1_545 S
C561 C557 1.495 . S
C561 H567 0.959 . S
C561 H568 0.961 . S
C561 H569 0.960 . S
C562 C560 1.381 . S
C562 C563 1.394 . S
C562 H570 0.930 . S
C563 C562 1.394 . S
C563 C564 1.383 1_545 S
C563 H571 0.929 . S
C564 C563 1.383 1_565 S
C564 C565 1.377 . S
C565 H549 0.930 . S
C565 C564 1.377 . S
C565 C566 1.379 . S
C566 H550 0.931 . S
C566 C560 1.383 1_565 S
C566 C565 1.379 . S
H567 C561 0.959 . S
H568 C561 0.961 . S
H569 C561 0.960 . S
H570 C562 0.930 . S
H571 C563 0.929 . S
H572 C580 0.929 . S
H573 C582 0.930 . S
H574 C584 0.930 . S
H575 C587 0.929 . S
H576 C590 0.930 1_545 S
H577 C592 0.960 . S
H578 C592 0.960 . S
H579 C592 0.960 . S
C580 H572 0.929 . S
C580 C581 1.377 1_545 S
C580 C582 1.384 . S
C581 C580 1.377 1_565 S
C581 C587 1.390 . S
C582 H573 0.930 . S
C582 C580 1.384 . S
C582 C583 1.372 1_545 S
C583 C582 1.372 1_565 S
C583 C584 1.400 . S
C583 C588 1.490 . S
C584 H574 0.930 . S
C584 C583 1.400 . S
C584 C587 1.386 . S
H585 C601 0.930 . S
H586 C602 0.931 . S
C587 H575 0.929 . S
C587 C581 1.390 . S
C587 C584 1.386 . S
C588 C583 1.490 . S
C588 C590 1.395 . S
C588 C591 1.403 . S
H589 C595 0.930 . S
C590 H576 0.930 1_565 S
C590 C588 1.395 . S
C590 C593 1.403 . S
C591 C588 1.403 . S
C591 C592 1.524 . S
C591 C595 1.400 . S
C592 H577 0.960 . S
C592 H578 0.960 . S
C592 H579 0.960 . S
C592 C591 1.524 . S
C593 C590 1.403 . S
C593 C594 1.392 . S
C593 C597 1.495 1_565 S
C594 C593 1.392 . S
C594 C595 1.385 . S
C594 C596 1.478 . S
C595 H589 0.930 . S
C595 C591 1.400 . S
C595 C594 1.385 . S
C596 C594 1.478 . S
C596 C598 1.381 . S
C596 C602 1.383 . S
C597 C593 1.495 1_545 S
C597 H603 0.959 . S
C597 H604 0.961 1_545 S
C597 H605 0.960 . S
C598 C596 1.381 . S
C598 C599 1.394 . S
C598 H606 0.930 . S
C599 C598 1.394 . S
C599 C600 1.383 . S
C599 H607 0.929 . S
C600 C599 1.383 . S
C600 C601 1.377 . S
C601 H585 0.930 . S
C601 C600 1.377 . S
C601 C602 1.379 . S
C602 H586 0.931 . S
C602 C596 1.383 . S
C602 C601 1.379 . S
H603 C597 0.959 . S
H604 C597 0.961 1_565 S
H605 C597 0.960 . S
H606 C598 0.930 . S
H607 C599 0.929 . S
H608 C616 0.929 . S
H609 C618 0.930 . S
H610 C620 0.930 . S
H611 C623 0.929 . S
H612 C626 0.930 . S
H613 C628 0.960 . S
H614 C628 0.960 . S
H615 C628 0.960 . S
C616 H608 0.929 . S
C616 C617 1.377 . S
C616 C618 1.384 . S
C617 C616 1.377 . S
C617 C623 1.390 . S
C618 H609 0.930 . S
C618 C616 1.384 . S
C618 C619 1.372 . S
C619 C618 1.372 . S
C619 C620 1.400 . S
C619 C624 1.490 . S
C620 H610 0.930 . S
C620 C619 1.400 . S
C620 C623 1.386 . S
H621 C637 0.930 . S
H622 C638 0.931 . S
C623 H611 0.929 . S
C623 C617 1.390 . S
C623 C620 1.386 . S
C624 C619 1.490 . S
C624 C626 1.395 . S
C624 C627 1.403 . S
H625 C631 0.930 . S
C626 H612 0.930 . S
C626 C624 1.395 . S
C626 C629 1.403 . S
C627 C624 1.403 . S
C627 C628 1.524 . S
C627 C631 1.400 . S
C628 H613 0.960 . S
C628 H614 0.960 . S
C628 H615 0.960 . S
C628 C627 1.524 . S
C629 C626 1.403 . S
C629 C630 1.392 . S
C629 C633 1.495 . S
C630 C629 1.392 . S
C630 C631 1.385 . S
C630 C632 1.478 . S
C631 H625 0.930 . S
C631 C627 1.400 . S
C631 C630 1.385 . S
C632 C630 1.478 . S
C632 C634 1.381 . S
C632 C638 1.383 . S
C633 C629 1.495 . S
C633 H639 0.959 . S
C633 H640 0.961 . S
C633 H641 0.960 . S
C634 C632 1.381 . S
C634 C635 1.394 . S
C634 H642 0.930 . S
C635 C634 1.394 . S
C635 C636 1.383 . S
C635 H643 0.929 . S
C636 C635 1.383 . S
C636 C637 1.377 . S
C637 H621 0.930 . S
C637 C636 1.377 . S
C637 C638 1.379 . S
C638 H622 0.931 . S
C638 C632 1.383 . S
C638 C637 1.379 . S
H639 C633 0.959 . S
H640 C633 0.961 . S
H641 C633 0.960 . S
H642 C634 0.930 . S
H643 C635 0.929 . S
H644 C652 0.929 . S
H645 C654 0.930 . S
H646 C656 0.930 . S
H647 C659 0.929 . S
H648 C662 0.930 . S
H649 C664 0.960 . S
H650 C664 0.960 . S
H651 C664 0.960 . S
C652 H644 0.929 . S
C652 C653 1.377 . S
C652 C654 1.384 . S
C653 C652 1.377 . S
C653 C659 1.390 . S
C654 H645 0.930 . S
C654 C652 1.384 . S
C654 C655 1.372 . S
C655 C654 1.372 . S
C655 C656 1.400 . S
C655 C660 1.490 . S
C656 H646 0.930 . S
C656 C655 1.400 . S
C656 C659 1.386 . S
H657 C673 0.930 . S
H658 C674 0.931 . S
C659 H647 0.929 . S
C659 C653 1.390 . S
C659 C656 1.386 . S
C660 C655 1.490 . S
C660 C662 1.395 . S
C660 C663 1.403 . S
H661 C667 0.930 . S
C662 H648 0.930 . S
C662 C660 1.395 . S
C662 C665 1.403 . S
C663 C660 1.403 . S
C663 C664 1.524 . S
C663 C667 1.400 . S
C664 H649 0.960 . S
C664 H650 0.960 . S
C664 H651 0.960 . S
C664 C663 1.524 . S
C665 C662 1.403 . S
C665 C666 1.392 . S
C665 C669 1.495 . S
C666 C665 1.392 . S
C666 C667 1.385 . S
C666 C668 1.478 . S
C667 H661 0.930 . S
C667 C663 1.400 . S
C667 C666 1.385 . S
C668 C666 1.478 . S
C668 C670 1.381 . S
C668 C674 1.383 . S
C669 C665 1.495 . S
C669 H675 0.959 . S
C669 H676 0.961 . S
C669 H677 0.960 . S
C670 C668 1.381 . S
C670 C671 1.394 . S
C670 H678 0.930 . S
C671 C670 1.394 . S
C671 C672 1.383 . S
C671 H679 0.929 . S
C672 C671 1.383 . S
C672 C673 1.377 . S
C673 H657 0.930 . S
C673 C672 1.377 . S
C673 C674 1.379 . S
C674 H658 0.931 . S
C674 C668 1.383 . S
C674 C673 1.379 . S
H675 C669 0.959 . S
H676 C669 0.961 . S
H677 C669 0.960 . S
H678 C670 0.930 . S
H679 C671 0.929 . S
H680 C688 0.929 . S
H681 C690 0.930 . S
H682 C692 0.930 . S
H683 C695 0.929 . S
H684 C698 0.930 . S
H685 C700 0.960 . S
H686 C700 0.960 . S
H687 C700 0.960 . S
C688 H680 0.929 . S
C688 C689 1.377 . S
C688 C690 1.384 . S
C689 C688 1.377 . S
C689 C695 1.390 . S
C690 H681 0.930 . S
C690 C688 1.384 . S
C690 C691 1.372 . S
C691 C690 1.372 . S
C691 C692 1.400 . S
C691 C696 1.490 . S
C692 H682 0.930 . S
C692 C691 1.400 . S
C692 C695 1.386 . S
H693 C709 0.930 . S
H694 C710 0.931 . S
C695 H683 0.929 . S
C695 C689 1.390 . S
C695 C692 1.386 . S
C696 C691 1.490 . S
C696 C698 1.395 . S
C696 C699 1.403 . S
H697 C703 0.930 . S
C698 H684 0.930 . S
C698 C696 1.395 . S
C698 C701 1.403 . S
C699 C696 1.403 . S
C699 C700 1.524 . S
C699 C703 1.400 . S
C700 H685 0.960 . S
C700 H686 0.960 . S
C700 H687 0.960 . S
C700 C699 1.524 . S
C701 C698 1.403 . S
C701 C702 1.392 . S
C701 C705 1.495 . S
C702 C701 1.392 . S
C702 C703 1.385 . S
C702 C704 1.478 . S
C703 H697 0.930 . S
C703 C699 1.400 . S
C703 C702 1.385 . S
C704 C702 1.478 . S
C704 C706 1.381 . S
C704 C710 1.383 . S
C705 C701 1.495 . S
C705 H711 0.959 . S
C705 H712 0.961 . S
C705 H713 0.960 . S
C706 C704 1.381 . S
C706 C707 1.394 . S
C706 H714 0.930 . S
C707 C706 1.394 . S
C707 C708 1.383 . S
C707 H715 0.929 . S
C708 C707 1.383 . S
C708 C709 1.377 . S
C709 H693 0.930 . S
C709 C708 1.377 . S
C709 C710 1.379 . S
C710 H694 0.931 . S
C710 C704 1.383 . S
C710 C709 1.379 . S
H711 C705 0.959 . S
H712 C705 0.961 . S
H713 C705 0.960 . S
H714 C706 0.930 . S
H715 C707 0.929 . S
H716 C724 0.929 . S
H717 C726 0.930 . S
H718 C728 0.930 . S
H719 C731 0.929 . S
H720 C734 0.930 . S
H721 C736 0.960 . S
H722 C736 0.960 . S
H723 C736 0.960 . S
C724 H716 0.929 . S
C724 C725 1.377 . S
C724 C726 1.384 . S
C725 C724 1.377 . S
C725 C731 1.390 . S
C726 H717 0.930 . S
C726 C724 1.384 . S
C726 C727 1.372 . S
C727 C726 1.372 . S
C727 C728 1.400 . S
C727 C732 1.490 . S
C728 H718 0.930 . S
C728 C727 1.400 . S
C728 C731 1.386 . S
H729 C745 0.930 . S
H730 C746 0.931 . S
C731 H719 0.929 . S
C731 C725 1.390 . S
C731 C728 1.386 . S
C732 C727 1.490 . S
C732 C734 1.395 . S
C732 C735 1.403 . S
H733 C739 0.930 . S
C734 H720 0.930 . S
C734 C732 1.395 . S
C734 C737 1.403 . S
C735 C732 1.403 . S
C735 C736 1.524 . S
C735 C739 1.400 . S
C736 H721 0.960 . S
C736 H722 0.960 . S
C736 H723 0.960 . S
C736 C735 1.524 . S
C737 C734 1.403 . S
C737 C738 1.392 . S
C737 C741 1.495 . S
C738 C737 1.392 . S
C738 C739 1.385 . S
C738 C740 1.478 . S
C739 H733 0.930 . S
C739 C735 1.400 . S
C739 C738 1.385 . S
C740 C738 1.478 . S
C740 C742 1.381 . S
C740 C746 1.383 . S
C741 C737 1.495 . S
C741 H747 0.959 . S
C741 H748 0.961 . S
C741 H749 0.960 . S
C742 C740 1.381 . S
C742 C743 1.394 . S
C742 H750 0.930 . S
C743 C742 1.394 . S
C743 C744 1.383 . S
C743 H751 0.929 . S
C744 C743 1.383 . S
C744 C745 1.377 . S
C745 H729 0.930 . S
C745 C744 1.377 . S
C745 C746 1.379 . S
C746 H730 0.931 . S
C746 C740 1.383 . S
C746 C745 1.379 . S
H747 C741 0.959 . S
H748 C741 0.961 . S
H749 C741 0.960 . S
H750 C742 0.930 . S
H751 C743 0.929 . S
H752 C760 0.929 . S
H753 C762 0.930 . S
H754 C764 0.930 1_545 S
H755 C767 0.929 . S
H756 C770 0.930 . S
H757 C772 0.960 . S
H758 C772 0.960 . S
H759 C772 0.960 . S
C760 H752 0.929 . S
C760 C761 1.377 . S
C760 C762 1.384 . S
C761 C760 1.377 . S
C761 C767 1.390 1_565 S
C762 H753 0.930 . S
C762 C760 1.384 . S
C762 C763 1.372 . S
C763 C762 1.372 . S
C763 C764 1.400 . S
C763 C768 1.490 . S
C764 H754 0.930 1_565 S
C764 C763 1.400 . S
C764 C767 1.386 1_565 S
H765 C781 0.930 . S
H766 C782 0.931 . S
C767 H755 0.929 . S
C767 C761 1.390 1_545 S
C767 C764 1.386 1_545 S
C768 C763 1.490 . S
C768 C770 1.395 . S
C768 C771 1.403 . S
H769 C775 0.930 . S
C770 H756 0.930 . S
C770 C768 1.395 . S
C770 C773 1.403 . S
C771 C768 1.403 . S
C771 C772 1.524 . S
C771 C775 1.400 . S
C772 H757 0.960 . S
C772 H758 0.960 . S
C772 H759 0.960 . S
C772 C771 1.524 . S
C773 C770 1.403 . S
C773 C774 1.392 . S
C773 C777 1.495 . S
C774 C773 1.392 . S
C774 C775 1.385 . S
C774 C776 1.478 . S
C775 H769 0.930 . S
C775 C771 1.400 . S
C775 C774 1.385 . S
C776 C774 1.478 . S
C776 C778 1.381 . S
C776 C782 1.383 . S
C777 C773 1.495 . S
C777 H783 0.959 . S
C777 H784 0.961 . S
C777 H785 0.960 . S
C778 C776 1.381 . S
C778 C779 1.394 . S
C778 H786 0.930 . S
C779 C778 1.394 . S
C779 C780 1.383 . S
C779 H787 0.929 . S
C780 C779 1.383 . S
C780 C781 1.377 . S
C781 H765 0.930 . S
C781 C780 1.377 . S
C781 C782 1.379 . S
C782 H766 0.931 . S
C782 C776 1.383 . S
C782 C781 1.379 . S
H783 C777 0.959 . S
H784 C777 0.961 . S
H785 C777 0.960 . S
H786 C778 0.930 . S
H787 C779 0.929 . S
H788 C796 0.929 . S
H789 C798 0.930 . S
H790 C800 0.930 . S
H791 C803 0.929 . S
H792 C806 0.930 . S
H793 C808 0.960 1_565 S
H794 C808 0.960 1_565 S
H795 C808 0.960 . S
C796 H788 0.929 . S
C796 C797 1.377 . S
C796 C798 1.384 . S
C797 C796 1.377 . S
C797 C803 1.390 . S
C798 H789 0.930 . S
C798 C796 1.384 . S
C798 C799 1.372 . S
C799 C798 1.372 . S
C799 C800 1.400 . S
C799 C804 1.490 . S
C800 H790 0.930 . S
C800 C799 1.400 . S
C800 C803 1.386 . S
H801 C817 0.930 . S
H802 C818 0.931 . S
C803 H791 0.929 . S
C803 C797 1.390 . S
C803 C800 1.386 . S
C804 C799 1.490 . S
C804 C806 1.395 . S
C804 C807 1.403 . S
H805 C811 0.930 . S
C806 H792 0.930 . S
C806 C804 1.395 . S
C806 C809 1.403 . S
C807 C804 1.403 . S
C807 C808 1.524 . S
C807 C811 1.400 . S
C808 H793 0.960 1_545 S
C808 H794 0.960 1_545 S
C808 H795 0.960 . S
C808 C807 1.524 . S
C809 C806 1.403 . S
C809 C810 1.392 . S
C809 C813 1.495 . S
C810 C809 1.392 . S
C810 C811 1.385 . S
C810 C812 1.478 . S
C811 H805 0.930 . S
C811 C807 1.400 . S
C811 C810 1.385 . S
C812 C810 1.478 . S
C812 C814 1.381 . S
C812 C818 1.383 . S
C813 C809 1.495 . S
C813 H819 0.959 . S
C813 H820 0.961 . S
C813 H821 0.960 . S
C814 C812 1.381 . S
C814 C815 1.394 . S
C814 H822 0.930 . S
C815 C814 1.394 . S
C815 C816 1.383 . S
C815 H823 0.929 . S
C816 C815 1.383 . S
C816 C817 1.377 . S
C817 H801 0.930 . S
C817 C816 1.377 . S
C817 C818 1.379 . S
C818 H802 0.931 . S
C818 C812 1.383 . S
C818 C817 1.379 . S
H819 C813 0.959 . S
H820 C813 0.961 . S
H821 C813 0.960 . S
H822 C814 0.930 . S
H823 C815 0.929 . S
H824 C832 0.929 . S
H825 C834 0.930 . S
H826 C836 0.930 . S
H827 C839 0.929 . S
H828 C842 0.930 . S
H829 C844 0.960 . S
H830 C844 0.960 . S
H831 C844 0.960 . S
C832 H824 0.929 . S
C832 C833 1.377 1_655 S
C832 C834 1.384 . S
C833 C832 1.377 1_455 S
C833 C839 1.390 1_554 S
C834 H825 0.930 . S
C834 C832 1.384 . S
C834 C835 1.372 1_655 S
C835 C834 1.372 1_455 S
C835 C836 1.400 1_554 S
C835 C840 1.490 . S
C836 H826 0.930 . S
C836 C835 1.400 1_556 S
C836 C839 1.386 . S
H837 C853 0.930 . S
H838 C854 0.931 . S
C839 H827 0.929 . S
C839 C833 1.390 1_556 S
C839 C836 1.386 . S
C840 C835 1.490 . S
C840 C842 1.395 1_454 S
C840 C843 1.403 . S
H841 C847 0.930 . S
C842 H828 0.930 . S
C842 C840 1.395 1_656 S
C842 C845 1.403 . S
C843 C840 1.403 . S
C843 C844 1.524 . S
C843 C847 1.400 . S
C844 H829 0.960 . S
C844 H830 0.960 . S
C844 H831 0.960 . S
C844 C843 1.524 . S
C845 C842 1.403 . S
C845 C846 1.406 . S
C845 C849 1.495 . S
C846 C845 1.406 . S
C846 C847 1.372 1_656 S
C846 C848 1.477 . S
C847 H841 0.930 . S
C847 C843 1.400 . S
C847 C846 1.372 1_454 S
C848 C846 1.477 . S
C848 C850 1.381 1_556 S
C848 C854 1.383 1_655 S
C849 C845 1.495 . S
C849 H855 0.959 . S
C849 H856 0.961 . S
C849 H857 0.960 . S
C850 C848 1.381 1_554 S
C850 C851 1.394 . S
C850 H858 0.930 . S
C851 C850 1.394 . S
C851 C852 1.383 1_554 S
C851 H859 0.929 . S
C852 C851 1.383 1_556 S
C852 C853 1.377 1_655 S
C853 H837 0.930 . S
C853 C852 1.377 1_455 S
C853 C854 1.379 . S
C854 H838 0.931 . S
C854 C848 1.383 1_455 S
C854 C853 1.379 . S
H855 C849 0.959 . S
H856 C849 0.961 . S
H857 C849 0.960 . S
H858 C850 0.930 . S
H859 C851 0.929 . S
H860 C868 0.929 . S
H861 C870 0.930 . S
H862 C872 0.930 . S
H863 C875 0.929 . S
H864 C878 0.930 . S
H865 C880 0.960 . S
H866 C880 0.960 . S
H867 C880 0.960 . S
C868 H860 0.929 . S
C868 C869 1.377 . S
C868 C870 1.384 . S
C869 C868 1.377 . S
C869 C875 1.390 . S
C870 H861 0.930 . S
C870 C868 1.384 . S
C870 C871 1.372 . S
C871 C870 1.372 . S
C871 C872 1.400 . S
C871 C876 1.490 . S
C872 H862 0.930 . S
C872 C871 1.400 . S
C872 C875 1.386 . S
H873 C889 0.930 . S
H874 C890 0.931 . S
C875 H863 0.929 . S
C875 C869 1.390 . S
C875 C872 1.386 . S
C876 C871 1.490 . S
C876 C878 1.395 . S
C876 C879 1.403 . S
H877 C883 0.930 . S
C878 H864 0.930 . S
C878 C876 1.395 . S
C878 C881 1.403 . S
C879 C876 1.403 . S
C879 C880 1.524 . S
C879 C883 1.400 . S
C880 H865 0.960 . S
C880 H866 0.960 . S
C880 H867 0.960 . S
C880 C879 1.524 . S
C881 C878 1.403 . S
C881 C882 1.392 . S
C881 C885 1.495 . S
C882 C881 1.392 . S
C882 C883 1.385 . S
C882 C884 1.478 . S
C883 H877 0.930 . S
C883 C879 1.400 . S
C883 C882 1.385 . S
C884 C882 1.478 . S
C884 C886 1.381 . S
C884 C890 1.383 . S
C885 C881 1.495 . S
C885 H891 0.959 . S
C885 H892 0.961 . S
C885 H893 0.960 . S
C886 C884 1.381 . S
C886 C887 1.394 1_565 S
C886 H894 0.930 . S
C887 C886 1.394 1_545 S
C887 C888 1.383 . S
C887 H895 0.929 . S
C888 C887 1.383 . S
C888 C889 1.377 . S
C889 H873 0.930 . S
C889 C888 1.377 . S
C889 C890 1.379 1_545 S
C890 H874 0.931 . S
C890 C884 1.383 . S
C890 C889 1.379 1_565 S
H891 C885 0.959 . S
H892 C885 0.961 . S
H893 C885 0.960 . S
H894 C886 0.930 . S
H895 C887 0.929 . S
H896 C904 0.929 . S
H897 C906 0.930 . S
H898 C908 0.930 . S
H899 C911 0.929 . S
H900 C914 0.930 . S
H901 C916 0.960 . S
H902 C916 0.960 . S
H903 C916 0.960 . S
C904 H896 0.929 . S
C904 C905 1.377 . S
C904 C906 1.384 1_565 S
C905 C904 1.377 . S
C905 C911 1.390 . S
C906 H897 0.930 . S
C906 C904 1.384 1_545 S
C906 C907 1.372 . S
C907 C906 1.372 . S
C907 C908 1.400 . S
C907 C912 1.490 . S
C908 H898 0.930 . S
C908 C907 1.400 . S
C908 C911 1.386 1_545 S
H909 C925 0.930 . S
H910 C926 0.931 . S
C911 H899 0.929 . S
C911 C905 1.390 . S
C911 C908 1.386 1_565 S
C912 C907 1.490 . S
C912 C914 1.395 . S
C912 C915 1.403 . S
H913 C919 0.930 . S
C914 H900 0.930 . S
C914 C912 1.395 . S
C914 C917 1.403 . S
C915 C912 1.403 . S
C915 C916 1.524 . S
C915 C919 1.400 . S
C916 H901 0.960 . S
C916 H902 0.960 . S
C916 H903 0.960 . S
C916 C915 1.524 . S
C917 C914 1.403 . S
C917 C918 1.392 . S
C917 C921 1.495 . S
C918 C917 1.392 . S
C918 C919 1.385 . S
C918 C920 1.478 . S
C919 H913 0.930 . S
C919 C915 1.400 . S
C919 C918 1.385 . S
C920 C918 1.478 . S
C920 C922 1.381 . S
C920 C926 1.383 . S
C921 C917 1.495 . S
C921 H927 0.959 . S
C921 H928 0.961 . S
C921 H929 0.960 . S
C922 C920 1.381 . S
C922 C923 1.394 . S
C922 H930 0.930 . S
C923 C922 1.394 . S
C923 C924 1.383 . S
C923 H931 0.929 . S
C924 C923 1.383 . S
C924 C925 1.377 . S
C925 H909 0.930 . S
C925 C924 1.377 . S
C925 C926 1.379 . S
C926 H910 0.931 . S
C926 C920 1.383 . S
C926 C925 1.379 . S
H927 C921 0.959 . S
H928 C921 0.961 . S
H929 C921 0.960 . S
H930 C922 0.930 . S
H931 C923 0.929 . S
H932 C940 0.929 . S
H933 C942 0.930 . S
H934 C944 0.930 . S
H935 C947 0.929 . S
H936 C950 0.930 . S
H937 C952 0.960 . S
H938 C952 0.960 . S
H939 C952 0.960 . S
C940 H932 0.929 . S
C940 C941 1.369 1_655 S
C940 C942 1.384 . S
C941 C940 1.369 1_455 S
C941 C947 1.401 . S
C942 H933 0.930 . S
C942 C940 1.384 . S
C942 C943 1.372 1_655 S
C943 C942 1.372 1_455 S
C943 C944 1.400 . S
C943 C948 1.490 . S
C944 H934 0.930 . S
C944 C943 1.400 . S
C944 C947 1.386 . S
H945 C961 0.930 . S
H946 C962 0.931 . S
C947 H935 0.929 . S
C947 C941 1.401 . S
C947 C944 1.386 . S
C948 C943 1.490 . S
C948 C950 1.395 1_455 S
C948 C951 1.403 . S
H949 C955 0.930 . S
C950 H936 0.930 . S
C950 C948 1.395 1_655 S
C950 C953 1.403 1_565 S
C951 C948 1.403 . S
C951 C952 1.524 . S
C951 C955 1.400 1_565 S
C952 H937 0.960 . S
C952 H938 0.960 . S
C952 H939 0.960 . S
C952 C951 1.524 . S
C953 C950 1.403 1_545 S
C953 C954 1.392 1_655 S
C953 C957 1.495 . S
C954 C953 1.392 1_455 S
C954 C955 1.385 . S
C954 C956 1.478 . S
C955 H949 0.930 . S
C955 C951 1.400 1_545 S
C955 C954 1.385 . S
C956 C954 1.478 . S
C956 C958 1.381 1_455 S
C956 C962 1.383 . S
C957 C953 1.495 . S
C957 H963 0.959 . S
C957 H964 0.961 . S
C957 H965 0.960 . S
C958 C956 1.381 1_655 S
C958 C959 1.392 1_655 S
C958 H966 0.930 . S
C959 C958 1.392 1_455 S
C959 C960 1.389 . S
C959 H967 0.926 1_455 S
C960 C959 1.389 . S
C960 C961 1.377 . S
C961 H945 0.930 . S
C961 C960 1.377 . S
C961 C962 1.379 . S
C962 H946 0.931 . S
C962 C956 1.383 . S
C962 C961 1.379 . S
H963 C957 0.959 . S
H964 C957 0.961 . S
H965 C957 0.960 . S
H966 C958 0.930 . S
H967 C959 0.926 1_655 S
H968 C976 0.929 . S
H969 C978 0.930 . S
H970 C980 0.930 . S
H971 C983 0.929 . S
H972 C986 0.930 . S
H973 C988 0.960 . S
H974 C988 0.960 . S
H975 C988 0.960 . S
C976 H968 0.929 . S
C976 C977 1.377 . S
C976 C978 1.384 1_565 S
C977 C976 1.377 . S
C977 C983 1.390 . S
C978 H969 0.930 . S
C978 C976 1.384 1_545 S
C978 C979 1.372 . S
C979 C978 1.372 . S
C979 C980 1.400 . S
C979 C984 1.490 . S
C980 H970 0.930 . S
C980 C979 1.400 . S
C980 C983 1.386 1_545 S
H981 C997 0.930 . S
H982 C998 0.931 . S
C983 H971 0.929 . S
C983 C977 1.390 . S
C983 C980 1.386 1_565 S
C984 C979 1.490 . S
C984 C986 1.395 . S
C984 C987 1.403 . S
H985 C991 0.930 . S
C986 H972 0.930 . S
C986 C984 1.395 . S
C986 C989 1.403 . S
C987 C984 1.403 . S
C987 C988 1.524 . S
C987 C991 1.400 . S
C988 H973 0.960 . S
C988 H974 0.960 . S
C988 H975 0.960 . S
C988 C987 1.524 . S
C989 C986 1.403 . S
C989 C990 1.392 . S
C989 C993 1.495 . S
C990 C989 1.392 . S
C990 C991 1.385 . S
C990 C992 1.478 . S
C991 H985 0.930 . S
C991 C987 1.400 . S
C991 C990 1.385 . S
C992 C990 1.478 . S
C992 C994 1.381 . S
C992 C998 1.383 . S
C993 C989 1.495 . S
C993 H999 0.959 . S
C993 H1000 0.961 . S
C993 H1001 0.960 . S
C994 C992 1.381 . S
C994 C995 1.394 . S
C994 H1002 0.930 . S
C995 C994 1.394 . S
C995 C996 1.383 . S
C995 H1003 0.929 . S
C996 C995 1.383 . S
C996 C997 1.377 . S
C997 H981 0.930 . S
C997 C996 1.377 . S
C997 C998 1.379 . S
C998 H982 0.931 . S
C998 C992 1.383 . S
C998 C997 1.379 . S
H999 C993 0.959 . S
H1000 C993 0.961 . S
H1001 C993 0.960 . S
H1002 C994 0.930 . S
H1003 C995 0.929 . S
H1004 C1012 0.929 . S
H1005 C1014 0.930 . S
H1006 C1016 0.930 . S
H1007 C1019 0.929 . S
H1008 C1022 0.930 . S
H1009 C1024 0.960 . S
H1010 C1024 0.960 . S
H1011 C1024 0.960 . S
C1012 H1004 0.929 . S
C1012 C1013 1.377 . S
C1012 C1014 1.384 . S
C1013 C1012 1.377 . S
C1013 C1019 1.390 . S
C1014 H1005 0.930 . S
C1014 C1012 1.384 . S
C1014 C1015 1.372 . S
C1015 C1014 1.372 . S
C1015 C1016 1.400 . S
C1015 C1020 1.490 . S
C1016 H1006 0.930 . S
C1016 C1015 1.400 . S
C1016 C1019 1.386 . S
H1017 C1033 0.930 . S
H1018 C1034 0.931 . S
C1019 H1007 0.929 . S
C1019 C1013 1.390 . S
C1019 C1016 1.386 . S
C1020 C1015 1.490 . S
C1020 C1022 1.395 . S
C1020 C1023 1.403 . S
H1021 C1027 0.930 . S
C1022 H1008 0.930 . S
C1022 C1020 1.395 . S
C1022 C1025 1.403 . S
C1023 C1020 1.403 . S
C1023 C1024 1.524 . S
C1023 C1027 1.400 . S
C1024 H1009 0.960 . S
C1024 H1010 0.960 . S
C1024 H1011 0.960 . S
C1024 C1023 1.524 . S
C1025 C1022 1.403 . S
C1025 C1026 1.392 . S
C1025 C1029 1.495 . S
C1026 C1025 1.392 . S
C1026 C1027 1.385 . S
C1026 C1028 1.478 . S
C1027 H1021 0.930 . S
C1027 C1023 1.400 . S
C1027 C1026 1.385 . S
C1028 C1026 1.478 . S
C1028 C1030 1.381 . S
C1028 C1034 1.383 . S
C1029 C1025 1.495 . S
C1029 H1035 0.959 . S
C1029 H1036 0.961 . S
C1029 H1037 0.960 . S
C1030 C1028 1.381 . S
C1030 C1031 1.394 1_565 S
C1030 H1038 0.930 . S
C1031 C1030 1.394 1_545 S
C1031 C1032 1.383 . S
C1031 H1039 0.929 . S
C1032 C1031 1.383 . S
C1032 C1033 1.377 . S
C1033 H1017 0.930 . S
C1033 C1032 1.377 . S
C1033 C1034 1.379 1_545 S
C1034 H1018 0.931 . S
C1034 C1028 1.383 . S
C1034 C1033 1.379 1_565 S
H1035 C1029 0.959 . S
H1036 C1029 0.961 . S
H1037 C1029 0.960 . S
H1038 C1030 0.930 . S
H1039 C1031 0.929 . S
H1040 C1048 0.929 . S
H1041 C1050 0.930 . S
H1042 C1052 0.930 . S
H1043 C1055 0.929 . S
H1044 C1058 0.930 . S
H1045 C1060 0.960 . S
H1046 C1060 0.960 . S
H1047 C1060 0.960 . S
C1048 H1040 0.929 . S
C1048 C1049 1.377 . S
C1048 C1050 1.384 . S
C1049 C1048 1.377 . S
C1049 C1055 1.390 . S
C1050 H1041 0.930 . S
C1050 C1048 1.384 . S
C1050 C1051 1.372 . S
C1051 C1050 1.372 . S
C1051 C1052 1.400 . S
C1051 C1056 1.490 . S
C1052 H1042 0.930 . S
C1052 C1051 1.400 . S
C1052 C1055 1.386 . S
H1053 C1069 0.930 . S
H1054 C1070 0.931 . S
C1055 H1043 0.929 . S
C1055 C1049 1.390 . S
C1055 C1052 1.386 . S
C1056 C1051 1.490 . S
C1056 C1058 1.395 . S
C1056 C1059 1.403 . S
H1057 C1063 0.930 . S
C1058 H1044 0.930 . S
C1058 C1056 1.395 . S
C1058 C1061 1.403 . S
C1059 C1056 1.403 . S
C1059 C1060 1.524 . S
C1059 C1063 1.400 . S
C1060 H1045 0.960 . S
C1060 H1046 0.960 . S
C1060 H1047 0.960 . S
C1060 C1059 1.524 . S
C1061 C1058 1.403 . S
C1061 C1062 1.392 . S
C1061 C1065 1.495 . S
C1062 C1061 1.392 . S
C1062 C1063 1.385 . S
C1062 C1064 1.478 . S
C1063 H1057 0.930 . S
C1063 C1059 1.400 . S
C1063 C1062 1.385 . S
C1064 C1062 1.478 . S
C1064 C1066 1.381 . S
C1064 C1070 1.383 . S
C1065 C1061 1.495 . S
C1065 H1071 0.959 . S
C1065 H1072 0.961 . S
C1065 H1073 0.960 . S
C1066 C1064 1.381 . S
C1066 C1067 1.394 . S
C1066 H1074 0.930 . S
C1067 C1066 1.394 . S
C1067 C1068 1.383 . S
C1067 H1075 0.929 . S
C1068 C1067 1.383 . S
C1068 C1069 1.377 . S
C1069 H1053 0.930 . S
C1069 C1068 1.377 . S
C1069 C1070 1.379 . S
C1070 H1054 0.931 . S
C1070 C1064 1.383 . S
C1070 C1069 1.379 . S
H1071 C1065 0.959 . S
H1072 C1065 0.961 . S
H1073 C1065 0.960 . S
H1074 C1066 0.930 . S
H1075 C1067 0.929 . S
H1076 C1084 0.929 . S
H1077 C1086 0.930 . S
H1078 C1088 0.930 . S
H1079 C1091 0.929 . S
H1080 C1094 0.930 . S
H1081 C1096 0.960 . S
H1082 C1096 0.960 1_556 S
H1083 C1096 0.960 . S
C1084 H1076 0.929 . S
C1084 C1085 1.377 . S
C1084 C1086 1.384 . S
C1085 C1084 1.377 . S
C1085 C1091 1.390 1_556 S
C1086 H1077 0.930 . S
C1086 C1084 1.384 . S
C1086 C1087 1.416 . S
C1087 C1086 1.416 . S
C1087 C1088 1.353 1_556 S
C1087 C1092 1.492 . S
C1088 H1078 0.930 . S
C1088 C1087 1.353 1_554 S
C1088 C1091 1.386 . S
H1089 C1105 0.930 . S
H1090 C1106 0.931 . S
C1091 H1079 0.929 . S
C1091 C1085 1.390 1_554 S
C1091 C1088 1.386 . S
C1092 C1087 1.492 . S
C1092 C1094 1.398 . S
C1092 C1095 1.401 1_556 S
H1093 C1099 0.930 . S
C1094 H1080 0.930 . S
C1094 C1092 1.398 . S
C1094 C1097 1.403 1_565 S
C1095 C1092 1.401 1_554 S
C1095 C1096 1.524 . S
C1095 C1099 1.400 1_565 S
C1096 H1081 0.960 . S
C1096 H1082 0.960 1_554 S
C1096 H1083 0.960 . S
C1096 C1095 1.524 . S
C1097 C1094 1.403 1_545 S
C1097 C1098 1.388 1_556 S
C1097 C1101 1.495 . S
C1098 C1097 1.388 1_554 S
C1098 C1099 1.393 . S
C1098 C1100 1.477 . S
C1099 H1093 0.930 . S
C1099 C1095 1.400 1_545 S
C1099 C1098 1.393 . S
C1100 C1098 1.477 . S
C1100 C1102 1.381 1_554 S
C1100 C1106 1.383 . S
C1101 C1097 1.495 . S
C1101 H1107 0.959 . S
C1101 H1108 0.961 1_556 S
C1101 H1109 0.960 . S
C1102 C1100 1.381 1_556 S
C1102 C1103 1.394 . S
C1102 H1110 0.930 . S
C1103 C1102 1.394 . S
C1103 C1104 1.383 1_556 S
C1103 H1111 0.929 . S
C1104 C1103 1.383 1_554 S
C1104 C1105 1.377 . S
C1105 H1089 0.930 . S
C1105 C1104 1.377 . S
C1105 C1106 1.379 . S
C1106 H1090 0.931 . S
C1106 C1100 1.383 . S
C1106 C1105 1.379 . S
H1107 C1101 0.959 . S
H1108 C1101 0.961 1_554 S
H1109 C1101 0.960 . S
H1110 C1102 0.930 . S
H1111 C1103 0.929 . S
H1112 C1120 0.929 . S
H1113 C1122 0.930 . S
H1114 C1124 0.930 . S
H1115 C1127 0.929 . S
H1116 C1130 0.930 . S
H1117 C1132 0.960 . S
H1118 C1132 0.960 . S
H1119 C1132 0.960 1_554 S
C1120 H1112 0.929 . S
C1120 C1121 1.377 . S
C1120 C1122 1.384 . S
C1121 C1120 1.377 . S
C1121 C1127 1.390 1_556 S
C1122 H1113 0.930 . S
C1122 C1120 1.384 . S
C1122 C1123 1.372 . S
C1123 C1122 1.372 . S
C1123 C1124 1.400 1_556 S
C1123 C1128 1.492 . S
C1124 H1114 0.930 . S
C1124 C1123 1.400 1_554 S
C1124 C1127 1.386 . S
H1125 C1141 0.930 . S
H1126 C1142 0.931 . S
C1127 H1115 0.929 . S
C1127 C1121 1.390 1_554 S
C1127 C1124 1.386 . S
C1128 C1123 1.492 . S
C1128 C1130 1.389 1_556 S
C1128 C1131 1.407 . S
H1129 C1135 0.930 . S
C1130 H1116 0.930 . S
C1130 C1128 1.389 1_554 S
C1130 C1133 1.403 . S
C1131 C1128 1.407 . S
C1131 C1132 1.524 . S
C1131 C1135 1.400 . S
C1132 H1117 0.960 . S
C1132 H1118 0.960 . S
C1132 H1119 0.960 1_556 S
C1132 C1131 1.524 . S
C1133 C1130 1.403 . S
C1133 C1134 1.392 . S
C1133 C1137 1.495 . S
C1134 C1133 1.392 . S
C1134 C1135 1.385 1_554 S
C1134 C1136 1.478 . S
C1135 H1129 0.930 . S
C1135 C1131 1.400 . S
C1135 C1134 1.385 1_556 S
C1136 C1134 1.478 . S
C1136 C1138 1.381 1_554 S
C1136 C1142 1.383 . S
C1137 C1133 1.495 . S
C1137 H1143 0.959 . S
C1137 H1144 0.961 . S
C1137 H1145 0.960 1_554 S
C1138 C1136 1.381 1_556 S
C1138 C1139 1.394 . S
C1138 H1146 0.930 . S
C1139 C1138 1.394 . S
C1139 C1140 1.383 1_556 S
C1139 H1147 0.929 . S
C1140 C1139 1.383 1_554 S
C1140 C1141 1.377 . S
C1141 H1125 0.930 . S
C1141 C1140 1.377 . S
C1141 C1142 1.379 . S
C1142 H1126 0.931 . S
C1142 C1136 1.383 . S
C1142 C1141 1.379 . S
H1143 C1137 0.959 . S
H1144 C1137 0.961 . S
H1145 C1137 0.960 1_556 S
H1146 C1138 0.930 . S
H1147 C1139 0.929 . S
H1148 C1156 0.929 . S
H1149 C1158 0.930 . S
H1150 C1160 0.930 . S
H1151 C1163 0.929 . S
H1152 C1166 0.930 . S
H1153 C1168 0.960 . S
H1154 C1168 0.960 . S
H1155 C1168 0.960 . S
C1156 H1148 0.929 . S
C1156 C1157 1.377 . S
C1156 C1158 1.384 . S
C1157 C1156 1.377 . S
C1157 C1163 1.390 1_556 S
C1158 H1149 0.930 . S
C1158 C1156 1.384 . S
C1158 C1159 1.372 . S
C1159 C1158 1.372 . S
C1159 C1160 1.400 1_556 S
C1159 C1164 1.489 1_556 S
C1160 H1150 0.930 . S
C1160 C1159 1.400 1_554 S
C1160 C1163 1.386 . S
H1161 C1177 0.930 . S
H1162 C1178 0.931 . S
C1163 H1151 0.929 . S
C1163 C1157 1.390 1_554 S
C1163 C1160 1.386 . S
C1164 C1159 1.489 1_554 S
C1164 C1166 1.401 . S
C1164 C1167 1.397 1_554 S
H1165 C1171 0.930 . S
C1166 H1152 0.930 . S
C1166 C1164 1.401 . S
C1166 C1169 1.403 . S
C1167 C1164 1.397 1_556 S
C1167 C1168 1.524 . S
C1167 C1171 1.400 . S
C1168 H1153 0.960 . S
C1168 H1154 0.960 . S
C1168 H1155 0.960 . S
C1168 C1167 1.524 . S
C1169 C1166 1.403 . S
C1169 C1170 1.392 . S
C1169 C1173 1.495 . S
C1170 C1169 1.392 . S
C1170 C1171 1.385 1_554 S
C1170 C1172 1.478 . S
C1171 H1165 0.930 . S
C1171 C1167 1.400 . S
C1171 C1170 1.385 1_556 S
C1172 C1170 1.478 . S
C1172 C1174 1.381 1_554 S
C1172 C1178 1.383 . S
C1173 C1169 1.495 . S
C1173 H1179 0.959 . S
C1173 H1180 0.961 . S
C1173 H1181 0.960 . S
C1174 C1172 1.381 1_556 S
C1174 C1175 1.394 . S
C1174 H1182 0.930 . S
C1175 C1174 1.394 . S
C1175 C1176 1.383 1_556 S
C1175 H1183 0.929 . S
C1176 C1175 1.383 1_554 S
C1176 C1177 1.377 . S
C1177 H1161 0.930 . S
C1177 C1176 1.377 . S
C1177 C1178 1.379 . S
C1178 H1162 0.931 . S
C1178 C1172 1.383 . S
C1178 C1177 1.379 . S
H1179 C1173 0.959 . S
H1180 C1173 0.961 . S
H1181 C1173 0.960 . S
H1182 C1174 0.930 . S
H1183 C1175 0.929 . S
H1184 C1192 0.929 . S
H1185 C1194 0.930 . S
H1186 C1196 0.930 . S
H1187 C1199 0.929 . S
H1188 C1202 0.930 . S
H1189 C1204 0.960 1_655 S
H1190 C1204 0.960 . S
H1191 C1204 0.960 . S
C1192 H1184 0.929 . S
C1192 C1193 1.377 . S
C1192 C1194 1.384 . S
C1193 C1192 1.377 . S
C1193 C1199 1.390 . S
C1194 H1185 0.930 . S
C1194 C1192 1.384 . S
C1194 C1195 1.372 . S
C1195 C1194 1.372 . S
C1195 C1196 1.400 . S
C1195 C1200 1.490 . S
C1196 H1186 0.930 . S
C1196 C1195 1.400 . S
C1196 C1199 1.386 . S
H1197 C1213 0.930 . S
H1198 C1214 0.931 . S
C1199 H1187 0.929 . S
C1199 C1193 1.390 . S
C1199 C1196 1.386 . S
C1200 C1195 1.490 . S
C1200 C1202 1.395 . S
C1200 C1203 1.403 . S
H1201 C1207 0.930 . S
C1202 H1188 0.930 . S
C1202 C1200 1.395 . S
C1202 C1205 1.403 . S
C1203 C1200 1.403 . S
C1203 C1204 1.524 . S
C1203 C1207 1.400 1_455 S
C1204 H1189 0.960 1_455 S
C1204 H1190 0.960 . S
C1204 H1191 0.960 . S
C1204 C1203 1.524 . S
C1205 C1202 1.403 . S
C1205 C1206 1.392 1_455 S
C1205 C1209 1.495 . S
C1206 C1205 1.392 1_655 S
C1206 C1207 1.385 . S
C1206 C1208 1.478 . S
C1207 H1201 0.930 . S
C1207 C1203 1.400 1_655 S
C1207 C1206 1.385 . S
C1208 C1206 1.478 . S
C1208 C1210 1.381 . S
C1208 C1214 1.383 . S
C1209 C1205 1.495 . S
C1209 H1215 0.959 . S
C1209 H1216 0.961 1_455 S
C1209 H1217 0.960 1_455 S
C1210 C1208 1.381 . S
C1210 C1211 1.394 . S
C1210 H1218 0.930 . S
C1211 C1210 1.394 . S
C1211 C1212 1.383 . S
C1211 H1219 0.929 . S
C1212 C1211 1.383 . S
C1212 C1213 1.377 . S
C1213 H1197 0.930 . S
C1213 C1212 1.377 . S
C1213 C1214 1.379 . S
C1214 H1198 0.931 . S
C1214 C1208 1.383 . S
C1214 C1213 1.379 . S
H1215 C1209 0.959 . S
H1216 C1209 0.961 1_655 S
H1217 C1209 0.960 1_655 S
H1218 C1210 0.930 . S
H1219 C1211 0.929 . S
H1220 C1228 0.929 . S
H1221 C1230 0.930 . S
H1222 C1232 0.930 . S
H1223 C1235 0.929 . S
H1224 C1238 0.930 . S
H1225 C1240 0.960 . S
H1226 C1240 0.960 . S
H1227 C1240 0.960 . S
C1228 H1220 0.929 . S
C1228 C1229 1.377 . S
C1228 C1230 1.384 . S
C1229 C1228 1.377 . S
C1229 C1235 1.390 . S
C1230 H1221 0.930 . S
C1230 C1228 1.384 . S
C1230 C1231 1.372 . S
C1231 C1230 1.372 . S
C1231 C1232 1.400 . S
C1231 C1236 1.490 . S
C1232 H1222 0.930 . S
C1232 C1231 1.400 . S
C1232 C1235 1.386 . S
H1233 C1249 0.930 . S
H1234 C1250 0.931 . S
C1235 H1223 0.929 . S
C1235 C1229 1.390 . S
C1235 C1232 1.386 . S
C1236 C1231 1.490 . S
C1236 C1238 1.395 . S
C1236 C1239 1.403 . S
H1237 C1243 0.930 . S
C1238 H1224 0.930 . S
C1238 C1236 1.395 . S
C1238 C1241 1.403 . S
C1239 C1236 1.403 . S
C1239 C1240 1.524 . S
C1239 C1243 1.400 . S
C1240 H1225 0.960 . S
C1240 H1226 0.960 . S
C1240 H1227 0.960 . S
C1240 C1239 1.524 . S
C1241 C1238 1.403 . S
C1241 C1242 1.392 . S
C1241 C1245 1.495 . S
C1242 C1241 1.392 . S
C1242 C1243 1.385 . S
C1242 C1244 1.478 . S
C1243 H1237 0.930 . S
C1243 C1239 1.400 . S
C1243 C1242 1.385 . S
C1244 C1242 1.478 . S
C1244 C1246 1.381 . S
C1244 C1250 1.383 . S
C1245 C1241 1.495 . S
C1245 H1251 0.959 . S
C1245 H1252 0.961 . S
C1245 H1253 0.960 . S
C1246 C1244 1.381 . S
C1246 C1247 1.394 . S
C1246 H1254 0.930 . S
C1247 C1246 1.394 . S
C1247 C1248 1.383 . S
C1247 H1255 0.929 . S
C1248 C1247 1.383 . S
C1248 C1249 1.377 . S
C1249 H1233 0.930 . S
C1249 C1248 1.377 . S
C1249 C1250 1.379 . S
C1250 H1234 0.931 . S
C1250 C1244 1.383 . S
C1250 C1249 1.379 . S
H1251 C1245 0.959 . S
H1252 C1245 0.961 . S
H1253 C1245 0.960 . S
H1254 C1246 0.930 . S
H1255 C1247 0.929 . S
H1256 C1264 0.929 . S
H1257 C1266 0.930 . S
H1258 C1268 0.930 . S
H1259 C1271 0.929 . S
H1260 C1274 0.930 . S
H1261 C1276 0.960 . S
H1262 C1276 0.960 . S
H1263 C1276 0.960 . S
C1264 H1256 0.929 . S
C1264 C1265 1.377 . S
C1264 C1266 1.384 . S
C1265 C1264 1.377 . S
C1265 C1271 1.390 . S
C1266 H1257 0.930 . S
C1266 C1264 1.384 . S
C1266 C1267 1.372 . S
C1267 C1266 1.372 . S
C1267 C1268 1.400 . S
C1267 C1272 1.490 . S
C1268 H1258 0.930 . S
C1268 C1267 1.400 . S
C1268 C1271 1.386 . S
H1269 C1285 0.930 . S
H1270 C1286 0.931 . S
C1271 H1259 0.929 . S
C1271 C1265 1.390 . S
C1271 C1268 1.386 . S
C1272 C1267 1.490 . S
C1272 C1274 1.395 . S
C1272 C1275 1.403 . S
H1273 C1279 0.930 . S
C1274 H1260 0.930 . S
C1274 C1272 1.395 . S
C1274 C1277 1.403 . S
C1275 C1272 1.403 . S
C1275 C1276 1.524 . S
C1275 C1279 1.400 . S
C1276 H1261 0.960 . S
C1276 H1262 0.960 . S
C1276 H1263 0.960 . S
C1276 C1275 1.524 . S
C1277 C1274 1.403 . S
C1277 C1278 1.392 . S
C1277 C1281 1.495 . S
C1278 C1277 1.392 . S
C1278 C1279 1.385 . S
C1278 C1280 1.478 . S
C1279 H1273 0.930 . S
C1279 C1275 1.400 . S
C1279 C1278 1.385 . S
C1280 C1278 1.478 . S
C1280 C1282 1.381 . S
C1280 C1286 1.383 . S
C1281 C1277 1.495 . S
C1281 H1287 0.959 . S
C1281 H1288 0.961 . S
C1281 H1289 0.960 . S
C1282 C1280 1.381 . S
C1282 C1283 1.394 . S
C1282 H1290 0.930 . S
C1283 C1282 1.394 . S
C1283 C1284 1.383 . S
C1283 H1291 0.929 . S
C1284 C1283 1.383 . S
C1284 C1285 1.377 . S
C1285 H1269 0.930 . S
C1285 C1284 1.377 . S
C1285 C1286 1.379 . S
C1286 H1270 0.931 . S
C1286 C1280 1.383 . S
C1286 C1285 1.379 . S
H1287 C1281 0.959 . S
H1288 C1281 0.961 . S
H1289 C1281 0.960 . S
H1290 C1282 0.930 . S
H1291 C1283 0.929 . S
H1292 C1300 0.929 . S
H1293 C1302 0.930 . S
H1294 C1304 0.930 . S
H1295 C1307 0.929 . S
H1296 C1310 0.930 . S
H1297 C1312 0.960 . S
H1298 C1312 0.960 1_655 S
H1299 C1312 0.960 1_655 S
C1300 H1292 0.929 . S
C1300 C1301 1.377 . S
C1300 C1302 1.384 . S
C1301 C1300 1.377 . S
C1301 C1307 1.390 . S
C1302 H1293 0.930 . S
C1302 C1300 1.384 . S
C1302 C1303 1.372 . S
C1303 C1302 1.372 . S
C1303 C1304 1.400 . S
C1303 C1308 1.490 . S
C1304 H1294 0.930 . S
C1304 C1303 1.400 . S
C1304 C1307 1.386 . S
H1305 C1321 0.930 . S
H1306 C1322 0.931 . S
C1307 H1295 0.929 . S
C1307 C1301 1.390 . S
C1307 C1304 1.386 . S
C1308 C1303 1.490 . S
C1308 C1310 1.395 1_545 S
C1308 C1311 1.403 1_655 S
H1309 C1315 0.930 . S
C1310 H1296 0.930 . S
C1310 C1308 1.395 1_565 S
C1310 C1313 1.403 1_655 S
C1311 C1308 1.403 1_455 S
C1311 C1312 1.524 . S
C1311 C1315 1.400 . S
C1312 H1297 0.960 . S
C1312 H1298 0.960 1_455 S
C1312 H1299 0.960 1_455 S
C1312 C1311 1.524 . S
C1313 C1310 1.403 1_455 S
C1313 C1314 1.392 . S
C1313 C1317 1.495 . S
C1314 C1313 1.392 . S
C1314 C1315 1.385 1_565 S
C1314 C1316 1.478 . S
C1315 H1309 0.930 . S
C1315 C1311 1.400 . S
C1315 C1314 1.385 1_545 S
C1316 C1314 1.478 . S
C1316 C1318 1.381 . S
C1316 C1322 1.383 . S
C1317 C1313 1.495 . S
C1317 H1323 0.959 1_455 S
C1317 H1324 0.961 . S
C1317 H1325 0.960 . S
C1318 C1316 1.381 . S
C1318 C1319 1.394 . S
C1318 H1326 0.930 . S
C1319 C1318 1.394 . S
C1319 C1320 1.383 . S
C1319 H1327 0.929 . S
C1320 C1319 1.383 . S
C1320 C1321 1.377 . S
C1321 H1305 0.930 . S
C1321 C1320 1.377 . S
C1321 C1322 1.379 . S
C1322 H1306 0.931 . S
C1322 C1316 1.383 . S
C1322 C1321 1.379 . S
H1323 C1317 0.959 1_655 S
H1324 C1317 0.961 . S
H1325 C1317 0.960 . S
H1326 C1318 0.930 . S
H1327 C1319 0.929 . S
H1328 C1336 0.929 . S
H1329 C1338 0.930 . S
H1330 C1340 0.930 . S
H1331 C1343 0.929 . S
H1332 C1346 0.930 . S
H1333 C1348 0.960 . S
H1334 C1348 0.960 . S
H1335 C1348 0.960 . S
C1336 H1328 0.929 . S
C1336 C1337 1.377 . S
C1336 C1338 1.384 . S
C1337 C1336 1.377 . S
C1337 C1343 1.390 . S
C1338 H1329 0.930 . S
C1338 C1336 1.384 . S
C1338 C1339 1.372 . S
C1339 C1338 1.372 . S
C1339 C1340 1.400 . S
C1339 C1344 1.490 . S
C1340 H1330 0.930 . S
C1340 C1339 1.400 . S
C1340 C1343 1.386 . S
H1341 C1357 0.930 . S
H1342 C1358 0.931 . S
C1343 H1331 0.929 . S
C1343 C1337 1.390 . S
C1343 C1340 1.386 . S
C1344 C1339 1.490 . S
C1344 C1346 1.395 . S
C1344 C1347 1.403 . S
H1345 C1351 0.930 . S
C1346 H1332 0.930 . S
C1346 C1344 1.395 . S
C1346 C1349 1.403 . S
C1347 C1344 1.403 . S
C1347 C1348 1.524 . S
C1347 C1351 1.400 . S
C1348 H1333 0.960 . S
C1348 H1334 0.960 . S
C1348 H1335 0.960 . S
C1348 C1347 1.524 . S
C1349 C1346 1.403 . S
C1349 C1350 1.392 . S
C1349 C1353 1.495 . S
C1350 C1349 1.392 . S
C1350 C1351 1.385 . S
C1350 C1352 1.478 . S
C1351 H1345 0.930 . S
C1351 C1347 1.400 . S
C1351 C1350 1.385 . S
C1352 C1350 1.478 . S
C1352 C1354 1.381 . S
C1352 C1358 1.383 . S
C1353 C1349 1.495 . S
C1353 H1359 0.959 . S
C1353 H1360 0.961 . S
C1353 H1361 0.960 . S
C1354 C1352 1.381 . S
C1354 C1355 1.394 . S
C1354 H1362 0.930 . S
C1355 C1354 1.394 . S
C1355 C1356 1.383 . S
C1355 H1363 0.929 . S
C1356 C1355 1.383 . S
C1356 C1357 1.377 . S
C1357 H1341 0.930 . S
C1357 C1356 1.377 . S
C1357 C1358 1.379 . S
C1358 H1342 0.931 . S
C1358 C1352 1.383 . S
C1358 C1357 1.379 . S
H1359 C1353 0.959 . S
H1360 C1353 0.961 . S
H1361 C1353 0.960 . S
H1362 C1354 0.930 . S
H1363 C1355 0.929 . S
H1364 C1372 0.929 . S
H1365 C1374 0.930 . S
H1366 C1376 0.930 . S
H1367 C1379 0.929 . S
H1368 C1382 0.930 . S
H1369 C1384 0.960 . S
H1370 C1384 0.960 . S
H1371 C1384 0.960 . S
C1372 H1364 0.929 . S
C1372 C1373 1.377 . S
C1372 C1374 1.384 . S
C1373 C1372 1.377 . S
C1373 C1379 1.390 . S
C1374 H1365 0.930 . S
C1374 C1372 1.384 . S
C1374 C1375 1.372 . S
C1375 C1374 1.372 . S
C1375 C1376 1.400 . S
C1375 C1380 1.490 . S
C1376 H1366 0.930 . S
C1376 C1375 1.400 . S
C1376 C1379 1.386 . S
H1377 C1393 0.930 . S
H1378 C1394 0.931 . S
C1379 H1367 0.929 . S
C1379 C1373 1.390 . S
C1379 C1376 1.386 . S
C1380 C1375 1.490 . S
C1380 C1382 1.395 1_565 S
C1380 C1383 1.403 . S
H1381 C1387 0.930 . S
C1382 H1368 0.930 . S
C1382 C1380 1.395 1_545 S
C1382 C1385 1.403 . S
C1383 C1380 1.403 . S
C1383 C1384 1.524 . S
C1383 C1387 1.400 . S
C1384 H1369 0.960 . S
C1384 H1370 0.960 . S
C1384 H1371 0.960 . S
C1384 C1383 1.524 . S
C1385 C1382 1.403 . S
C1385 C1386 1.392 . S
C1385 C1389 1.495 . S
C1386 C1385 1.392 . S
C1386 C1387 1.385 1_545 S
C1386 C1388 1.478 . S
C1387 H1381 0.930 . S
C1387 C1383 1.400 . S
C1387 C1386 1.385 1_565 S
C1388 C1386 1.478 . S
C1388 C1390 1.381 . S
C1388 C1394 1.383 . S
C1389 C1385 1.495 . S
C1389 H1395 0.959 . S
C1389 H1396 0.961 . S
C1389 H1397 0.960 . S
C1390 C1388 1.381 . S
C1390 C1391 1.394 . S
C1390 H1398 0.930 . S
C1391 C1390 1.394 . S
C1391 C1392 1.383 . S
C1391 H1399 0.929 . S
C1392 C1391 1.383 . S
C1392 C1393 1.377 . S
C1393 H1377 0.930 . S
C1393 C1392 1.377 . S
C1393 C1394 1.379 . S
C1394 H1378 0.931 . S
C1394 C1388 1.383 . S
C1394 C1393 1.379 . S
H1395 C1389 0.959 . S
H1396 C1389 0.961 . S
H1397 C1389 0.960 . S
H1398 C1390 0.930 . S
H1399 C1391 0.929 . S
C257 C0 1.495 . S
C276 C49 1.546 . S
C293 C18 1.820 1_565 S
C312 C62 1.797 . S
C329 C104 1.530 . S
C348 C55 1.477 . S
C365 C73 1.818 . S
C384 C117 1.781 . S
C401 C93 1.502 . S
C420 C142 1.559 . S
C437 C155 1.803 . S
C456 C111 1.820 . S
C473 C148 1.497 . S
C492 C11 1.507 . S
C509 C166 1.817 . S
C528 C24 1.812 . S
C545 C173 1.541 . S
C564 C186 1.483 . S
C581 C204 1.814 1_565 S
C600 C124 1.804 . S
C617 C228 1.528 . S
C636 C179 1.464 . S
C653 C241 1.798 . S
C672 C135 1.813 . S
C689 C217 1.498 . S
C708 C80 1.518 . S
C725 C31 1.799 . S
C744 C235 1.807 . S
C761 C197 1.532 . S
C780 C86 1.491 . S
C797 C210 1.800 . S
C816 C42 1.808 . S
C833 C10 0.500 . S
C852 C2 0.451 1_556 S
C869 C41 0.481 . S
C888 C33 0.460 . S
C905 C72 0.506 . S
C924 C64 0.517 . S
C941 C95 0.487 1_455 S
C960 C103 0.548 . S
C977 C134 0.487 . S
C996 C126 0.434 . S
C1013 C165 0.483 . S
C1032 C157 0.507 . S
C1049 C196 0.506 . S
C1068 C188 0.529 . S
C1085 C219 0.492 1_556 S
C1104 C227 0.548 . S
C1121 C244 1.522 . S
C1140 C1 1.505 . S
C1157 C27 1.523 . S
C1176 C218 1.501 . S
C1193 C58 1.521 . S
C1212 C63 1.511 . S
C1229 C213 1.523 . S
C1248 C94 1.501 . S
C1265 C120 1.522 . S
C1284 C187 1.527 . S
C1301 C156 1.526 . S
C1320 C151 1.505 . S
C1337 C182 1.529 . S
C1356 C125 1.522 . S
C1373 C89 1.522 . S
C1392 C32 1.528 . S
