# Generated by pormake.
# Topology oof, (8)-cn, num edge types: 1
# Building blocks:
#     Node 0, Type 0, BuildingBlock: LIZSOE_clean_sbu_0, # of connection points: 8
#     Node 1, Type 0, BuildingBlock: LIZSOE_clean_sbu_0, # of connection points: 8
#     Node 2, Type 0, BuildingBlock: LIZSOE_clean_sbu_0, # of connection points: 8
#     Node 3, Type 0, BuildingBlock: LIZSOE_clean_sbu_0, # of connection points: 8
#     Edge 4, Type (0, 0), BuildingBlock: MIFKUJ_clean_linker_0, # of connection points: 2
#     Edge 5, Type (0, 0), BuildingBlock: MIFKUJ_clean_linker_0, # of connection points: 2
#     Edge 6, Type (0, 0), BuildingBlock: MIFKUJ_clean_linker_0, # of connection points: 2
#     Edge 7, Type (0, 0), BuildingBlock: MIFKUJ_clean_linker_0, # of connection points: 2
#     Edge 8, Type (0, 0), BuildingBlock: MIFKUJ_clean_linker_0, # of connection points: 2
#     Edge 9, Type (0, 0), BuildingBlock: MIFKUJ_clean_linker_0, # of connection points: 2
#     Edge 10, Type (0, 0), BuildingBlock: MIFKUJ_clean_linker_0, # of connection points: 2
#     Edge 11, Type (0, 0), BuildingBlock: MIFKUJ_clean_linker_0, # of connection points: 2
#     Edge 12, Type (0, 0), BuildingBlock: MIFKUJ_clean_linker_0, # of connection points: 2
#     Edge 13, Type (0, 0), BuildingBlock: MIFKUJ_clean_linker_0, # of connection points: 2
#     Edge 14, Type (0, 0), BuildingBlock: MIFKUJ_clean_linker_0, # of connection points: 2
#     Edge 15, Type (0, 0), BuildingBlock: MIFKUJ_clean_linker_0, # of connection points: 2
#     Edge 16, Type (0, 0), BuildingBlock: MIFKUJ_clean_linker_0, # of connection points: 2
#     Edge 17, Type (0, 0), BuildingBlock: MIFKUJ_clean_linker_0, # of connection points: 2
#     Edge 18, Type (0, 0), BuildingBlock: MIFKUJ_clean_linker_0, # of connection points: 2
#     Edge 19, Type (0, 0), BuildingBlock: MIFKUJ_clean_linker_0, # of connection points: 2
# Relax obj value: 0.078
# Max RMSD: 0.204
# Mean RMSD: 0.201
data_MOF--net-oof--node1-LIZSOE_clean_sbu_0--edge1-MIFKUJ_clean_linker_0
_symmetry_space_group_name_H-M    P1
_symmetry_Int_Tables_number       1
_symmetry_cell_setting            triclinic
loop_
_symmetry_equiv_pos_as_xyz
'x, y, z'
_cell_length_a     19.730648
_cell_length_b     56.853555
_cell_length_c     28.050482
_cell_angle_alpha  90.052564
_cell_angle_beta   114.46052
_cell_angle_gamma 88.676972
loop_
_atom_site_label
_atom_site_type_symbol
_atom_site_fract_x
_atom_site_fract_y
_atom_site_fract_z
_atom_type_partial_charge
Co0 Co 0.01772 0.15098 0.16364 0.0
N1 N 0.06869 0.14909 0.12177 0.0
C2 C 0.14009 0.15423 0.13313 0.0
N3 N 0.08858 0.14537 0.04906 0.0
C4 C 0.03848 0.1439 0.07043 0.0
C5 C 0.15236 0.15199 0.08854 0.0
Co6 Co 0.95629 0.12399 0.3694 0.0
N7 N 0.9326 0.13193 0.4255 0.0
N8 N 0.93168 0.13639 0.50491 0.0
C9 C 0.86088 0.1359 0.46888 0.0
C10 C 0.86156 0.13314 0.42057 0.0
C11 C 0.97459 0.13402 0.47778 0.0
Co12 Co 0.97906 0.13482 0.26211 0.0
C13 C 0.03014 0.10181 0.36103 0.0
H14 H 0.81282 0.13082 0.3844 0.0
O15 O 0.9686 0.15549 0.20096 0.0
O16 O 0.00513 0.16425 0.30563 0.0
O17 O 0.08871 0.12835 0.28636 0.0
O18 O 0.95856 0.10607 0.21508 0.0
O19 O 0.99761 0.11905 0.15486 0.0
O20 O 0.00873 0.15147 0.38082 0.0
O21 O 0.981 0.11348 0.3205 0.0
O22 O 0.86848 0.13914 0.32174 0.0
O23 O 0.10658 0.14413 0.22057 0.0
O24 O 0.03196 0.18135 0.17617 0.0
O25 O 0.86961 0.14086 0.24188 0.0
O26 O 0.04189 0.10957 0.40726 0.0
C27 C 0.1313 0.13478 0.26542 0.0
C28 C 0.05797 0.13081 0.5027 0.0
H29 H 0.08307 0.1401 0.47949 0.0
H30 H 0.08362 0.13723 0.54331 0.0
H31 H 0.07234 0.11176 0.50402 0.0
C32 C 0.02257 0.16685 0.3542 0.0
C33 C 0.97342 0.10292 0.17475 0.0
H34 H 0.18024 0.15979 0.17099 0.0
H35 H 0.94758 0.12056 0.03723 0.0
H36 H 0.93554 0.14771 1.00106 0.0
H37 H 0.92531 0.14731 0.06238 0.0
C38 C 0.95685 0.13977 0.04086 0.0
C39 C 0.9836 0.17746 0.19563 0.0
C40 C 0.83699 0.14377 0.27279 0.0
H41 H 0.20425 0.1551 0.08532 0.0
H42 H 0.81201 0.13645 0.4773 0.0
Co43 Co 0.03375 0.89667 0.64871 0.0
N44 N 0.04912 0.88572 0.59219 0.0
C45 C 0.05614 0.86348 0.57784 0.0
N46 N 0.06689 0.88671 0.51835 0.0
C47 C 0.05768 0.89944 0.55612 0.0
C48 C 0.06633 0.86404 0.53224 0.0
Co49 Co 1.0014 0.87791 0.86898 0.0
N50 N 0.95876 0.88231 0.9157 0.0
N51 N 0.94455 0.88991 0.98939 0.0
C52 C 0.88011 0.88164 0.95369 0.0
C53 C 0.88893 0.87698 0.90856 0.0
C54 C 0.99166 0.88995 0.96544 0.0
Co55 Co 0.02301 0.88973 0.7613 0.0
C56 C 0.02643 0.84971 0.83661 0.0
H57 H 0.84753 0.86959 0.87325 0.0
O58 O 0.0155 0.90941 0.69849 0.0
O59 O 0.05232 0.91958 0.80494 0.0
O60 O 0.1301 0.88183 0.77581 0.0
O61 O 0.98722 0.85945 0.72119 0.0
O62 O 0.9791 0.87047 0.64415 0.0
O63 O 0.02598 0.90954 0.87317 0.0
O64 O 0.0412 0.87111 0.82691 0.0
O65 O 0.90989 0.88518 0.81599 0.0
O66 O 0.12165 0.88162 0.69356 0.0
O67 O 0.94845 0.91145 0.61163 0.0
O68 O 0.9151 0.89747 0.74297 0.0
O69 O 0.98197 0.84749 0.85999 0.0
C70 C 0.15747 0.87747 0.74232 0.0
C71 C 0.07269 0.89545 0.99155 0.0
H72 H 0.10331 0.88732 0.97 0.0
H73 H 0.07876 0.9148 0.99162 0.0
H74 H 0.09725 0.88912 0.03279 0.0
C75 C 0.04648 0.92442 0.84813 0.0
C76 C 0.96431 0.85611 0.67223 0.0
H77 H 0.05375 0.84785 0.59899 0.0
H78 H 0.00772 0.93378 0.54538 0.0
H79 H 0.09726 0.93248 0.54138 0.0
H80 H 0.09173 0.92997 0.60394 0.0
C81 C 0.06431 0.9255 0.56184 0.0
C82 C 0.96413 0.92039 0.65766 0.0
C83 C 0.8786 0.89314 0.76994 0.0
H84 H 0.07099 0.84892 0.5102 0.0
H85 H 0.83056 0.87875 0.96023 0.0
Co86 Co 0.51243 0.65402 0.15698 0.0
N87 N 0.55096 0.65237 0.1077 0.0
C88 C 0.61818 0.64442 0.11196 0.0
N89 N 0.55493 0.6545 0.02937 0.0
C90 C 0.51328 0.65833 0.05686 0.0
C91 C 0.62052 0.64562 0.06408 0.0
Co92 Co 0.50321 0.62159 0.37706 0.0
N93 N 0.48256 0.62729 0.43552 0.0
N94 N 0.4812 0.6387 0.51139 0.0
C95 C 0.41351 0.63099 0.48075 0.0
C96 C 0.4147 0.62362 0.4348 0.0
C97 C 0.52281 0.63615 0.48373 0.0
Co98 Co 0.50081 0.6369 0.2652 0.0
C99 C 0.55647 0.60732 0.37579 0.0
H100 H 0.36847 0.61579 0.40314 0.0
O101 O 0.47315 0.65825 0.2014 0.0
O102 O 0.52442 0.66658 0.30668 0.0
O103 O 0.60835 0.63407 0.2819 0.0
O104 O 0.48024 0.6079 0.21855 0.0
O105 O 0.48986 0.62258 0.14722 0.0
O106 O 0.51322 0.65425 0.3763 0.0
O107 O 0.52386 0.61377 0.3254 0.0
O108 O 0.40223 0.62491 0.33222 0.0
O109 O 0.60701 0.64645 0.20743 0.0
O110 O 0.53154 0.68394 0.17141 0.0
O111 O 0.39326 0.63916 0.25475 0.0
O112 O 0.6026 0.62039 0.4122 0.0
C113 C 0.64149 0.63875 0.2534 0.0
C114 C 0.60357 0.64226 0.50443 0.0
H115 H 0.61499 0.65233 0.47493 0.0
H116 H 0.62072 0.65289 0.54055 0.0
H117 H 0.63794 0.62577 0.51364 0.0
C118 C 0.52422 0.67067 0.35078 0.0
C119 C 0.47847 0.60564 0.17228 0.0
H120 H 0.66308 0.63803 0.14715 0.0
H121 H 0.39859 0.65589 0.04255 0.0
H122 H 0.41353 0.67323 0.99389 0.0
H123 H 0.43541 0.68464 0.05843 0.0
C124 C 0.43572 0.66861 0.03595 0.0
C125 C 0.48646 0.68022 0.1937 0.0
C126 C 0.36409 0.63262 0.28583 0.0
H127 H 0.66692 0.64018 0.05517 0.0
H128 H 0.36743 0.62996 0.4918 0.0
Co129 Co 0.51353 0.3834 0.65447 0.0
N130 N 0.53125 0.36777 0.60326 0.0
C131 C 0.56854 0.34733 0.60505 0.0
N132 N 0.53791 0.3624 0.52643 0.0
C133 C 0.51169 0.37623 0.55442 0.0
C134 C 0.57453 0.34435 0.55827 0.0
Co135 Co 0.50256 0.37786 0.88195 0.0
N136 N 0.46678 0.38462 0.93141 0.0
N137 N 0.46713 0.39289 1.00945 0.0
C138 C 0.39634 0.38957 0.97524 0.0
C139 C 0.39625 0.3843 0.92744 0.0
C140 C 0.50886 0.38963 0.98195 0.0
Co141 Co 0.5146 0.3851 0.76906 0.0
C142 C 0.52146 0.34817 0.8509 0.0
H143 H 0.34797 0.37972 0.8927 0.0
O144 O 0.49713 0.40152 0.70055 0.0
O145 O 0.53778 0.41702 0.80539 0.0
O146 O 0.62143 0.38023 0.78371 0.0
O147 O 0.48574 0.35289 0.73502 0.0
O148 O 0.44428 0.36157 0.65039 0.0
O149 O 0.52591 0.40893 0.88003 0.0
O150 O 0.5379 0.3688 0.83808 0.0
O151 O 0.40786 0.38421 0.83008 0.0
O152 O 0.59523 0.36508 0.7059 0.0
O153 O 0.57688 0.4052 0.66187 0.0
O154 O 0.4059 0.39036 0.75167 0.0
O155 O 0.4828 0.34769 0.87888 0.0
C156 C 0.64209 0.36946 0.75214 0.0
C157 C 0.59212 0.39061 1.0044 0.0
H158 H 0.6113 0.39513 0.97365 0.0
H159 H 0.61271 0.40359 0.03655 0.0
H160 H 0.61626 0.37302 0.02044 0.0
C161 C 0.53898 0.42311 0.85008 0.0
C162 C 0.44419 0.34866 0.68695 0.0
H163 H 0.58991 0.33529 0.63797 0.0
H164 H 0.4065 0.39381 0.51456 0.0
H165 H 0.48146 0.40736 0.5053 0.0
H166 H 0.47247 0.41042 0.56696 0.0
C167 C 0.46605 0.3984 0.53436 0.0
C168 C 0.54261 0.41451 0.68837 0.0
C169 C 0.37296 0.38907 0.78203 0.0
H170 H 0.60284 0.32998 0.5481 0.0
H171 H 0.34856 0.38978 0.98489 0.0
H172 H 0.00684 0.11222 0.98081 0.0
H173 H 0.98106 0.10955 0.88813 0.0
H174 H 0.12691 0.16742 0.90464 0.0
H175 H 0.1467 0.17156 0.99604 0.0
H176 H 0.00874 0.1739 0.82142 0.0
H177 H 0.17106 0.10592 0.8956 0.0
H178 H 0.2085 0.06847 0.94502 0.0
H179 H 0.00896 0.03672 0.83633 0.0
H180 H 0.96959 0.07409 0.78678 0.0
H181 H 0.02956 0.16451 0.57782 0.0
H182 H 0.06312 0.1638 0.67206 0.0
H183 H 0.91022 0.10758 0.65096 0.0
H184 H 0.8808 0.1072 0.5571 0.0
H185 H 0.03055 0.0995 0.7358 0.0
H186 H 0.86625 0.16649 0.66352 0.0
H187 H 0.82459 0.20364 0.61336 0.0
H188 H 0.02391 0.23683 0.7183 0.0
H189 H 0.06734 0.19977 0.76859 0.0
C190 C 0.03194 0.12471 0.96436 0.0
C191 C 0.07712 0.14253 0.99529 0.0
C192 C 0.01853 0.12284 0.91159 0.0
C193 C 0.05265 0.13813 0.88936 0.0
C194 C 0.09973 0.15545 0.92076 0.0
C195 C 0.11156 0.15769 0.9731 0.0
C196 C 0.0373 0.13686 0.83297 0.0
C197 C 0.01479 0.15767 0.80299 0.0
C198 C 0.04255 0.11553 0.80837 0.0
C199 C 0.06706 0.09291 0.83772 0.0
C200 C 0.13493 0.091 0.8824 0.0
C201 C 0.15649 0.06978 0.91045 0.0
C202 C 0.11106 0.05025 0.89388 0.0
C203 C 0.04404 0.05187 0.84916 0.0
C204 C 0.02209 0.07307 0.82108 0.0
C205 C 0.00457 0.15167 0.59357 0.0
C206 C 0.95356 0.13568 0.56054 0.0
C207 C 0.02294 0.15145 0.64726 0.0
C208 C 0.98842 0.13581 0.66848 0.0
C209 C 0.93773 0.11971 0.63548 0.0
C210 C 0.92052 0.11964 0.58198 0.0
C211 C 1.00345 0.1366 0.72478 0.0
C212 C 0.02522 0.11571 0.75453 0.0
C213 C 0.99719 0.15782 0.74923 0.0
C214 C 0.97038 0.18027 0.71954 0.0
C215 C 0.90139 0.18167 0.67573 0.0
C216 C 0.87746 0.20272 0.64727 0.0
C217 C 0.92166 0.22257 0.66253 0.0
C218 C 0.98976 0.22144 0.70645 0.0
C219 C 0.01405 0.20042 0.73497 0.0
H220 H 0.9031 0.23883 0.64039 0.0
H221 H 0.12791 0.03382 0.91554 0.0
H222 H 0.98585 0.92285 0.45609 0.0
H223 H 0.9767 0.93295 0.36936 0.0
H224 H 0.13511 0.87709 0.38152 0.0
H225 H 0.14842 0.86806 0.47022 0.0
H226 H 0.1516 0.91103 0.32537 0.0
H227 H 0.94064 0.86902 0.32695 0.0
H228 H 0.83473 0.86351 0.35068 0.0
H229 H 0.73442 0.92869 0.27373 0.0
H230 H 0.84025 0.93467 0.25006 0.0
H231 H 0.90818 0.86312 0.05332 0.0
H232 H 0.93498 0.87041 0.14507 0.0
H233 H 0.0407 0.93521 0.1383 0.0
H234 H 0.01421 0.92769 0.04605 0.0
H235 H 0.89232 0.90432 0.19117 0.0
H236 H 0.18488 0.94273 0.26272 0.0
H237 H 0.29149 0.94259 0.23818 0.0
H238 H 0.23028 0.87485 0.16739 0.0
H239 H 0.12422 0.87443 0.19228 0.0
C240 C 0.02131 0.91341 0.44139 0.0
C241 C 0.06845 0.89475 0.47019 0.0
C242 C 0.01522 0.919 0.39136 0.0
C243 C 0.05424 0.90554 0.36851 0.0
C244 C 0.10443 0.88776 0.3983 0.0
C245 C 0.11147 0.88243 0.44871 0.0
C246 C 0.03642 0.90787 0.31191 0.0
C247 C 0.09484 0.90985 0.29599 0.0
C248 C 0.96244 0.90608 0.27348 0.0
C249 C 0.89856 0.9024 0.28723 0.0
C250 C 0.89611 0.88221 0.31532 0.0
C251 C 0.83614 0.879 0.32875 0.0
C252 C 0.77798 0.89577 0.31384 0.0
C253 C 0.77957 0.91574 0.28533 0.0
C254 C 0.83949 0.91904 0.27187 0.0
C255 C 0.93699 0.87892 0.07148 0.0
C256 C 0.96023 0.89466 0.04315 0.0
C257 C 0.95208 0.88313 0.12373 0.0
C258 C 0.99019 0.90328 0.14857 0.0
C259 C 0.01215 0.91938 0.12003 0.0
C260 C 0.99739 0.91505 0.0676 0.0
C261 C 0.00761 0.90682 0.20467 0.0
C262 C 0.94895 0.90609 0.22046 0.0
C263 C 0.08151 0.90894 0.24284 0.0
C264 C 0.1461 0.90873 0.22875 0.0
C265 C 0.1944 0.92779 0.24209 0.0
C266 C 0.25472 0.9278 0.22813 0.0
C267 C 0.26748 0.90877 0.20107 0.0
C268 C 0.22021 0.88962 0.18818 0.0
C269 C 0.15998 0.88949 0.20219 0.0
H270 H 0.3141 0.90884 0.1902 0.0
H271 H 0.7316 0.89327 0.32428 0.0
H272 H 0.43127 0.64249 0.94435 0.0
H273 H 0.41391 0.64562 0.8528 0.0
H274 H 0.63057 0.67641 0.90337 0.0
H275 H 0.64452 0.67508 0.99328 0.0
H276 H 0.5506 0.69478 0.81761 0.0
H277 H 0.60108 0.61597 0.88414 0.0
H278 H 0.58081 0.57964 0.92398 0.0
H279 H 0.3696 0.5715 0.79346 0.0
H280 H 0.38809 0.60802 0.75325 0.0
H281 H 0.58059 0.61595 0.59558 0.0
H282 H 0.60053 0.62299 0.68685 0.0
H283 H 0.44678 0.68259 0.6362 0.0
H284 H 0.4285 0.67561 0.54536 0.0
H285 H 0.49665 0.61928 0.72181 0.0
H286 H 0.49935 0.72305 0.73906 0.0
H287 H 0.55829 0.75661 0.71683 0.0
H288 H 0.71876 0.70981 0.69784 0.0
H289 H 0.66264 0.67604 0.72147 0.0
C290 C 0.47321 0.65095 0.93536 0.0
C291 C 0.53855 0.65905 0.97552 0.0
C292 C 0.46401 0.65235 0.88333 0.0
C293 C 0.52151 0.66093 0.8714 0.0
C294 C 0.58523 0.66986 0.91145 0.0
C295 C 0.59346 0.66897 0.9629 0.0
C296 C 0.51957 0.65873 0.81847 0.0
C297 C 0.53805 0.67836 0.79632 0.0
C298 C 0.50673 0.63695 0.79209 0.0
C299 C 0.49556 0.61489 0.81599 0.0
C300 C 0.55007 0.60652 0.86411 0.0
C301 C 0.53893 0.58589 0.88676 0.0
C302 C 0.47387 0.5733 0.86134 0.0
C303 C 0.4199 0.5813 0.81316 0.0
C304 C 0.43066 0.60196 0.79043 0.0
C305 C 0.55331 0.63094 0.60469 0.0
C306 C 0.5035 0.6454 0.56455 0.0
C307 C 0.56396 0.63482 0.65631 0.0
C308 C 0.52491 0.65325 0.668 0.0
C309 C 0.47789 0.66841 0.62795 0.0
C310 C 0.46722 0.66445 0.5764 0.0
C311 C 0.52764 0.65537 0.72104 0.0
C312 C 0.50866 0.63577 0.7429 0.0
C313 C 0.54475 0.67675 0.74869 0.0
C314 C 0.57586 0.69691 0.73129 0.0
C315 C 0.54698 0.71988 0.72991 0.0
C316 C 0.58004 0.73896 0.71721 0.0
C317 C 0.64193 0.73533 0.70575 0.0
C318 C 0.67059 0.71259 0.70651 0.0
C319 C 0.63809 0.69345 0.71947 0.0
H320 H 0.6682 0.75016 0.69687 0.0
H321 H 0.46537 0.55732 0.87892 0.0
H322 H 0.56752 0.36527 0.08473 0.0
H323 H 0.59007 0.36465 0.17722 0.0
H324 H 0.43873 0.42413 0.15094 0.0
H325 H 0.41684 0.4249 0.05803 0.0
H326 H 0.56918 0.42294 0.25321 0.0
H327 H 0.36408 0.37584 0.13894 0.0
H328 H 0.31004 0.34647 0.06941 0.0
H329 H 0.46969 0.29438 0.16459 0.0
H330 H 0.52547 0.3236 0.23439 0.0
H331 H 0.41288 0.36725 0.43814 0.0
H332 H 0.40493 0.37625 0.35018 0.0
H333 H 0.64496 0.37631 0.41208 0.0
H334 H 0.65242 0.36724 0.49986 0.0
H335 H 0.46484 0.35017 0.29098 0.0
H336 H 0.68821 0.42115 0.34785 0.0
H337 H 0.74183 0.45145 0.41535 0.0
H338 H 0.53634 0.45745 0.4333 0.0
H339 H 0.48151 0.42723 0.36591 0.0
C340 C 0.54165 0.3788 0.09919 0.0
C341 C 0.49107 0.39529 0.06481 0.0
C342 C 0.55415 0.37835 0.15183 0.0
C343 C 0.51579 0.39429 0.17055 0.0
C344 C 0.46912 0.41181 0.13708 0.0
C345 C 0.45635 0.41217 0.08429 0.0
C346 C 0.51553 0.39033 0.22234 0.0
C347 C 0.5466 0.40706 0.26168 0.0
C348 C 0.48465 0.36978 0.23265 0.0
C349 C 0.44925 0.35194 0.19169 0.0
C350 C 0.38782 0.35814 0.14495 0.0
C351 C 0.3569 0.34153 0.10549 0.0
C352 C 0.3865 0.31858 0.11255 0.0
C353 C 0.44685 0.31217 0.15919 0.0
C354 C 0.47808 0.32874 0.19873 0.0
C355 C 0.46354 0.36921 0.43251 0.0
C356 C 0.53318 0.36669 0.47496 0.0
C357 C 0.45912 0.37427 0.38266 0.0
C358 C 0.52438 0.37713 0.37503 0.0
C359 C 0.59408 0.37438 0.41748 0.0
C360 C 0.5984 0.36906 0.46719 0.0
C361 C 0.51965 0.3826 0.3224 0.0
C362 C 0.48749 0.36609 0.28272 0.0
C363 C 0.54884 0.40347 0.31179 0.0
C364 C 0.58102 0.4218 0.35209 0.0
C365 C 0.65445 0.42897 0.36613 0.0
C366 C 0.68511 0.44609 0.40447 0.0
C367 C 0.64264 0.45629 0.42874 0.0
C368 C 0.56937 0.44942 0.41473 0.0
C369 C 0.53854 0.43225 0.37657 0.0
H370 H 0.66649 0.46957 0.45826 0.0
H371 H 0.36263 0.30576 0.08191 0.0
H372 H 0.72451 0.11902 0.20163 0.0
H373 H 0.59885 0.1177 0.19869 0.0
H374 H 0.64485 0.17822 0.29928 0.0
H375 H 0.77092 0.17897 0.30349 0.0
H376 H 0.60872 0.14327 0.34265 0.0
H377 H 0.50679 0.17797 0.17154 0.0
H378 H 0.48073 0.18304 0.07827 0.0
H379 H 0.37922 0.11549 0.04438 0.0
H380 H 0.40596 0.10978 0.13764 0.0
H381 H 0.23981 0.16264 0.3297 0.0
H382 H 0.36637 0.1626 0.3339 0.0
H383 H 0.32665 0.09675 0.2514 0.0
H384 H 0.20016 0.09688 0.2471 0.0
H385 H 0.35905 0.13282 0.19897 0.0
H386 H 0.46073 0.09884 0.37092 0.0
H387 H 0.48343 0.09493 0.46385 0.0
H388 H 0.58193 0.16296 0.49514 0.0
H389 H 0.5588 0.16746 0.40218 0.0
C390 C 0.7062 0.13277 0.2207 0.0
C391 C 0.75681 0.14922 0.2524 0.0
C392 C 0.63456 0.1319 0.21944 0.0
C393 C 0.61256 0.14771 0.24931 0.0
C394 C 0.66071 0.16571 0.27633 0.0
C395 C 0.73235 0.16637 0.27812 0.0
C396 C 0.54504 0.1435 0.25883 0.0
C397 C 0.55388 0.14141 0.3111 0.0
C398 C 0.47394 0.14015 0.21782 0.0
C399 C 0.4594 0.1433 0.16184 0.0
C400 C 0.47986 0.16404 0.14438 0.0
C401 C 0.46476 0.16706 0.09144 0.0
C402 C 0.42861 0.14956 0.05546 0.0
C403 C 0.40743 0.129 0.07232 0.0
C404 C 0.42259 0.12586 0.12523 0.0
C405 C 0.25989 0.1475 0.31539 0.0
C406 C 0.21133 0.12949 0.28921 0.0
C407 C 0.3318 0.1476 0.31719 0.0
C408 C 0.35551 0.12977 0.29244 0.0
C409 C 0.30923 0.11069 0.27051 0.0
C410 C 0.23759 0.11055 0.26894 0.0
C411 C 0.423 0.13286 0.28256 0.0
C412 C 0.41408 0.13469 0.23032 0.0
C413 C 0.49389 0.13614 0.32351 0.0
C414 C 0.50729 0.13359 0.3794 0.0
C415 C 0.48651 0.11309 0.39747 0.0
C416 C 0.49963 0.11074 0.4502 0.0
C417 C 0.53391 0.12871 0.48535 0.0
C418 C 0.55527 0.14906 0.46786 0.0
C419 C 0.54222 0.15151 0.41515 0.0
H420 H 0.54409 0.12685 0.52617 0.0
H421 H 0.41681 0.15196 1.01447 0.0
H422 H 0.76512 0.8764 0.68175 0.0
H423 H 0.63474 0.87368 0.67051 0.0
H424 H 0.68614 0.91435 0.81036 0.0
H425 H 0.81299 0.91855 0.81924 0.0
H426 H 0.59565 0.85122 0.73742 0.0
H427 H 0.54232 0.94074 0.81797 0.0
H428 H 0.56796 0.98268 0.81295 0.0
H429 H 0.57849 0.97141 0.66478 0.0
H430 H 0.55166 0.92948 0.66843 0.0
H431 H 0.27858 0.89256 0.82749 0.0
H432 H 0.40622 0.8928 0.83333 0.0
H433 H 0.33898 0.8497 0.69526 0.0
H434 H 0.21383 0.84858 0.69097 0.0
H435 H 0.43368 0.91396 0.76098 0.0
H436 H 0.47284 0.8258 0.6756 0.0
H437 H 0.4466 0.78385 0.67975 0.0
H438 H 0.46392 0.79266 0.83644 0.0
H439 H 0.48993 0.83474 0.83303 0.0
C440 C 0.74692 0.88593 0.708 0.0
C441 C 0.7983 0.89805 0.75086 0.0
C442 C 0.67309 0.88398 0.70224 0.0
C443 C 0.65044 0.89399 0.73941 0.0
C444 C 0.70118 0.90721 0.78021 0.0
C445 C 0.77379 0.90955 0.78532 0.0
C446 C 0.57743 0.88865 0.74003 0.0
C447 C 0.55935 0.86497 0.74139 0.0
C448 C 0.53122 0.90652 0.747 0.0
C449 C 0.54531 0.9319 0.74364 0.0
C450 C 0.54944 0.94724 0.78408 0.0
C451 C 0.5643 0.97101 0.78152 0.0
C452 C 0.57501 0.97969 0.73864 0.0
C453 C 0.57042 0.96465 0.69806 0.0
C454 C 0.55541 0.94086 0.70037 0.0
C455 C 0.29237 0.88209 0.80031 0.0
C456 C 0.23648 0.87065 0.75868 0.0
C457 C 0.36497 0.88249 0.80313 0.0
C458 C 0.38238 0.87139 0.76453 0.0
C459 C 0.32794 0.85808 0.72608 0.0
C460 C 0.25605 0.8575 0.72358 0.0
C461 C 0.45262 0.87654 0.75935 0.0
C462 C 0.46989 0.90021 0.75687 0.0
C463 C 0.4978 0.85869 0.75114 0.0
C464 C 0.48341 0.83337 0.75403 0.0
C465 C 0.47169 0.81873 0.71107 0.0
C466 C 0.45651 0.79496 0.71322 0.0
C467 C 0.45389 0.78556 0.75841 0.0
C468 C 0.46599 0.79996 0.80146 0.0
C469 C 0.48063 0.8238 0.79936 0.0
H470 H 0.4424 0.76712 0.76005 0.0
H471 H 0.58681 0.99809 0.73684 0.0
H472 H 0.74423 0.6619 0.33512 0.0
H473 H 0.87423 0.66735 0.3484 0.0
H474 H 0.84666 0.61754 0.22623 0.0
H475 H 0.71916 0.61085 0.21543 0.0
H476 H 1.00031 0.64536 0.36851 0.0
H477 H 0.89713 0.64615 0.13498 0.0
H478 H 0.78961 0.66315 0.05978 0.0
H479 H 0.73023 0.70577 0.16367 0.0
H480 H 0.83855 0.68981 0.23918 0.0
H481 H 0.27757 0.60324 0.3093 0.0
H482 H 0.15851 0.61307 0.31174 0.0
H483 H 0.1512 0.6797 0.2359 0.0
H484 H 0.27268 0.66998 0.23432 0.0
H485 H 0.0164 0.6616 0.19964 0.0
H486 H 0.18628 0.68246 0.35637 0.0
H487 H 0.28747 0.68877 0.44319 0.0
H488 H 0.2122 0.6315 0.50668 0.0
H489 H 0.11253 0.624 0.4198 0.0
C490 C 0.76734 0.65146 0.31283 0.0
C491 C 0.72226 0.63639 0.27347 0.0
C492 C 0.84071 0.6549 0.31975 0.0
C493 C 0.86815 0.64378 0.28645 0.0
C494 C 0.82536 0.62687 0.25106 0.0
C495 C 0.75298 0.62301 0.24504 0.0
C496 C 0.93934 0.65062 0.28577 0.0
C497 C 0.00444 0.6487 0.33178 0.0
C498 C 0.94318 0.65779 0.23868 0.0
C499 C 0.87588 0.66651 0.19299 0.0
C500 C 0.86133 0.65918 0.14185 0.0
C501 C 0.80037 0.66875 0.09909 0.0
C502 C 0.75339 0.68559 0.10702 0.0
C503 C 0.76673 0.69274 0.15763 0.0
C504 C 0.82788 0.68342 0.2004 0.0
C505 C 0.24986 0.61979 0.29209 0.0
C506 C 0.28412 0.63592 0.27177 0.0
C507 C 0.18244 0.62553 0.2942 0.0
C508 C 0.14748 0.64742 0.27563 0.0
C509 C 0.17822 0.66286 0.25121 0.0
C510 C 0.24671 0.65716 0.24952 0.0
C511 C 0.07812 0.65334 0.2815 0.0
C512 C 0.01286 0.65806 0.23651 0.0
C513 C 0.07433 0.65098 0.33064 0.0
C514 C 0.14136 0.65266 0.38111 0.0
C515 C 0.19226 0.67074 0.38836 0.0
C516 C 0.24918 0.67465 0.43778 0.0
C517 C 0.25541 0.66078 0.48051 0.0
C518 C 0.20663 0.6424 0.47358 0.0
C519 C 0.15019 0.63821 0.42413 0.0
H520 H 0.29844 0.66412 0.51898 0.0
H521 H 0.70655 0.69315 0.07407 0.0
H522 H 0.70469 0.34143 0.7015 0.0
H523 H 0.82695 0.34508 0.70189 0.0
H524 H 0.88656 0.39371 0.83031 0.0
H525 H 0.76115 0.39132 0.82746 0.0
H526 H 0.91818 0.41174 0.7578 0.0
H527 H 0.96579 0.33496 0.83963 0.0
H528 H 0.94226 0.29313 0.84873 0.0
H529 H 0.95227 0.27816 0.70167 0.0
H530 H 0.97513 0.31991 0.69145 0.0
H531 H 0.30279 0.41545 0.82747 0.0
H532 H 0.17437 0.41209 0.81599 0.0
H533 H 0.13065 0.36693 0.68322 0.0
H534 H 0.26191 0.36939 0.69687 0.0
H535 H 0.08691 0.34724 0.75032 0.0
H536 H 0.04564 0.42378 0.67098 0.0
H537 H 0.07449 0.46529 0.66418 0.0
H538 H 0.05547 0.48051 0.80816 0.0
H539 H 0.02724 0.43905 0.81613 0.0
C540 C 0.74376 0.35272 0.73025 0.0
C541 C 0.72226 0.36645 0.76363 0.0
C542 C 0.81445 0.35459 0.73086 0.0
C543 C 0.86648 0.36969 0.76612 0.0
C544 C 0.84725 0.38205 0.80244 0.0
C545 C 0.77578 0.38045 0.80124 0.0
C546 C 0.93779 0.37418 0.76175 0.0
C547 C 0.9556 0.39761 0.75703 0.0
C548 C 0.98528 0.35577 0.75837 0.0
C549 C 0.97156 0.33062 0.76459 0.0
C550 C 0.96247 0.32278 0.80907 0.0
C551 C 0.94939 0.29906 0.81447 0.0
C552 C 0.94568 0.28299 0.77577 0.0
C553 C 0.95519 0.2906 0.73164 0.0
C554 C 0.96832 0.31428 0.72606 0.0
C555 C 0.26511 0.4054 0.79485 0.0
C556 C 0.2919 0.3927 0.76307 0.0
C557 C 0.1915 0.40358 0.78808 0.0
C558 C 0.14226 0.38945 0.7484 0.0
C559 C 0.16758 0.378 0.71403 0.0
C560 C 0.2421 0.37966 0.72127 0.0
C561 C 0.06771 0.38477 0.74724 0.0
C562 C 0.04916 0.36133 0.75078 0.0
C563 C 0.01959 0.40315 0.74965 0.0
C564 C 0.03457 0.42826 0.74422 0.0
C565 C 0.04779 0.43596 0.70127 0.0
C566 C 0.06402 0.45949 0.6972 0.0
C567 C 0.06687 0.47552 0.73574 0.0
C568 C 0.05309 0.46808 0.77828 0.0
C569 C 0.0368 0.44458 0.78253 0.0
H570 H 0.07972 0.4937 0.73263 0.0
H571 H 0.93557 0.26464 0.78001 0.0
H572 H 0.4866 0.302 0.70346 0.0
H573 H 0.41262 0.26908 0.65249 0.0
H574 H 0.22324 0.31636 0.57863 0.0
H575 H 0.29679 0.34894 0.62902 0.0
H576 H 0.17675 0.27398 0.59185 0.0
H577 H 0.33256 0.30471 0.51385 0.0
H578 H 0.44869 0.31687 0.50936 0.0
H579 H 0.54454 0.24766 0.55827 0.0
H580 H 0.42783 0.23498 0.56193 0.0
H581 H 0.98278 0.21376 0.34866 0.0
H582 H 0.05269 0.24435 0.41109 0.0
H583 H 0.2318 0.19402 0.48944 0.0
H584 H 0.16223 0.16374 0.42781 0.0
H585 H 0.28292 0.23693 0.47685 0.0
H586 H 0.10159 0.20612 0.53296 0.0
H587 H 0.97485 0.19752 0.52383 0.0
H588 H 0.91871 0.27126 0.51024 0.0
H589 H 0.04376 0.28037 0.51673 0.0
C590 C 0.42833 0.30504 0.67794 0.0
C591 C 0.39694 0.32787 0.67057 0.0
C592 C 0.38634 0.28635 0.6483 0.0
C593 C 0.31252 0.2903 0.61104 0.0
C594 C 0.27979 0.31279 0.607 0.0
C595 C 0.32176 0.33139 0.63608 0.0
C596 C 0.27154 0.27192 0.57253 0.0
C597 C 0.19977 0.26591 0.56656 0.0
C598 C 0.30121 0.26142 0.53932 0.0
C599 C 0.3721 0.26902 0.53882 0.0
C600 C 0.37871 0.29217 0.52409 0.0
C601 C 0.44455 0.29913 0.52156 0.0
C602 C 0.50442 0.28312 0.53408 0.0
C603 C 0.49825 0.26006 0.54879 0.0
C604 C 0.43214 0.25294 0.55085 0.0
C605 C 0.03786 0.20955 0.37847 0.0
C606 C 0.06785 0.18661 0.38327 0.0
C607 C 0.07733 0.22686 0.41443 0.0
C608 C 0.14715 0.22137 0.45538 0.0
C609 C 0.17814 0.19868 0.45836 0.0
C610 C 0.13859 0.18144 0.42301 0.0
C611 C 0.18806 0.23885 0.49612 0.0
C612 C 0.25995 0.24474 0.50245 0.0
C613 C 0.15748 0.24954 0.52878 0.0
C614 C 0.08207 0.24393 0.52474 0.0
C615 C 0.06205 0.22052 0.52735 0.0
C616 C 0.99053 0.21554 0.52279 0.0
C617 C 0.93902 0.23381 0.51677 0.0
C618 C 0.95868 0.25712 0.51492 0.0
C619 C 0.02977 0.2622 0.51881 0.0
H620 H 0.88385 0.22989 0.51353 0.0
H621 H 0.55539 0.28852 0.53203 0.0
H622 H 0.48626 0.30205 0.84203 0.0
H623 H 0.56551 0.27158 0.9019 0.0
H624 H 0.75239 0.31757 0.94969 0.0
H625 H 0.67322 0.34804 0.88943 0.0
H626 H 0.79895 0.27166 0.95762 0.0
H627 H 0.64299 0.31845 1.01289 0.0
H628 H 0.52618 0.33686 1.0084 0.0
H629 H 0.43917 0.26873 1.01213 0.0
H630 H 0.55466 0.24981 1.01502 0.0
H631 H 1.00358 0.22453 0.2073 0.0
H632 H 0.92029 0.25394 0.14636 0.0
H633 H 0.7485 0.20265 0.08603 0.0
H634 H 0.83207 0.17301 0.14665 0.0
H635 H 0.69484 0.25156 0.08574 0.0
H636 H 0.85808 0.20591 0.02796 0.0
H637 H 0.98012 0.19018 0.03654 0.0
H638 H 0.06022 0.26027 0.04571 0.0
H639 H 0.93872 0.27651 0.0375 0.0
C640 C 0.54525 0.30518 0.86297 0.0
C641 C 0.57315 0.32756 0.86107 0.0
C642 C 0.5903 0.28788 0.8981 0.0
C643 C 0.66434 0.29257 0.93195 0.0
C644 C 0.69518 0.31361 0.92464 0.0
C645 C 0.64999 0.33095 0.88935 0.0
C646 C 0.70622 0.2769 0.97835 0.0
C647 C 0.77625 0.26745 0.98572 0.0
C648 C 0.67713 0.27136 1.01555 0.0
C649 C 0.60727 0.28267 1.0135 0.0
C650 C 0.59868 0.30735 1.01214 0.0
C651 C 0.53274 0.3179 1.00998 0.0
C652 C 0.47532 0.30399 1.00999 0.0
C653 C 0.48367 0.27948 1.01204 0.0
C654 C 0.54932 0.26883 1.01383 0.0
C655 C 0.94671 0.21982 0.18311 0.0
C656 C 0.92491 0.19631 0.18179 0.0
C657 C 0.89943 0.2366 0.14759 0.0
C658 C 0.82884 0.23035 0.11045 0.0
C659 C 0.803 0.20784 0.11393 0.0
C660 C 0.85063 0.19094 0.14933 0.0
C661 C 0.78679 0.24612 0.06439 0.0
C662 C 0.71702 0.25568 0.05731 0.0
C663 C 0.81669 0.25216 0.02802 0.0
C664 C 0.88956 0.24241 0.03265 0.0
C665 C 0.90188 0.21797 0.03221 0.0
C666 C 0.97093 0.20895 0.03696 0.0
C667 C 0.028 0.22417 0.04195 0.0
C668 C 0.01602 0.24849 0.04196 0.0
C669 C 0.94704 0.25762 0.03716 0.0
H670 H 0.08139 0.21711 0.04563 0.0
H671 H 0.42443 0.3122 1.00848 0.0
H672 H 0.58365 0.7083 0.32016 0.0
H673 H 0.64775 0.74156 0.37434 0.0
H674 H 0.59246 0.71656 0.49881 0.0
H675 H 0.52233 0.68501 0.44315 0.0
H676 H 0.5957 0.76022 0.50582 0.0
H677 H 0.77246 0.70372 0.48047 0.0
H678 H 0.82962 0.68277 0.4285 0.0
H679 H 0.86702 0.74871 0.36993 0.0
H680 H 0.80957 0.76997 0.42096 0.0
H681 H 0.90364 0.8208 0.71093 0.0
H682 H 0.82053 0.7894 0.65952 0.0
H683 H 0.83465 0.81551 0.51972 0.0
H684 H 0.91514 0.84608 0.56907 0.0
H685 H 0.85537 0.76972 0.52648 0.0
H686 H 0.68705 0.82683 0.54592 0.0
H687 H 0.63158 0.85156 0.59314 0.0
H688 H 0.57343 0.7898 0.6545 0.0
H689 H 0.62934 0.76464 0.60773 0.0
C690 C 0.58357 0.71026 0.35855 0.0
C691 C 0.54987 0.69345 0.37787 0.0
C692 C 0.62146 0.7291 0.39002 0.0
C693 C 0.62863 0.73105 0.44205 0.0
C694 C 0.58956 0.71538 0.45946 0.0
C695 C 0.54984 0.69708 0.42755 0.0
C696 C 0.67905 0.74847 0.47943 0.0
C697 C 0.65282 0.76202 0.51073 0.0
C698 C 0.75339 0.75146 0.48553 0.0
C699 C 0.78637 0.73839 0.45426 0.0
C700 C 0.79248 0.71369 0.45623 0.0
C701 C 0.82495 0.70179 0.42695 0.0
C702 C 0.85189 0.71445 0.39598 0.0
C703 C 0.84613 0.73896 0.39394 0.0
C704 C 0.81369 0.75092 0.423 0.0
C705 C 0.88942 0.81961 0.66936 0.0
C706 C 0.91748 0.83588 0.64466 0.0
C707 C 0.84157 0.80179 0.63995 0.0
C708 C 0.82142 0.80004 0.5856 0.0
C709 C 0.8497 0.81624 0.56149 0.0
C710 C 0.89648 0.83381 0.59029 0.0
C711 C 0.77194 0.78147 0.5524 0.0
C712 C 0.7985 0.76765 0.52203 0.0
C713 C 0.69772 0.77873 0.5464 0.0
C714 C 0.66419 0.79384 0.57449 0.0
C715 C 0.66353 0.8185 0.57012 0.0
C716 C 0.63171 0.8326 0.59663 0.0
C717 C 0.59963 0.82226 0.62724 0.0
C718 C 0.59882 0.79778 0.63109 0.0
C719 C 0.63061 0.78359 0.60462 0.0
H720 H 0.57496 0.83322 0.64765 0.0
H721 H 0.87767 0.7054 0.37368 0.0
H722 H 0.34801 0.67368 0.11896 0.0
H723 H 0.27449 0.70412 0.05606 0.0
H724 H 0.41143 0.75751 0.15678 0.0
H725 H 0.48867 0.72686 0.21834 0.0
H726 H 0.22753 0.76412 0.08965 0.0
H727 H 0.46807 0.75389 0.09046 0.0
H728 H 0.57949 0.73451 0.08838 0.0
H729 H 0.44758 0.70718 0.93602 0.0
H730 H 0.33414 0.725 0.93883 0.0
H731 H 0.17617 0.85488 0.88988 0.0
H732 H 0.25926 0.82577 0.95246 0.0
H733 H 0.09252 0.77321 0.8882 0.0
H734 H 0.00837 0.80239 0.82644 0.0
H735 H 0.30053 0.76939 0.94052 0.0
H736 H 0.05418 0.77559 0.96562 0.0
H737 H 0.95654 0.80321 0.96709 0.0
H738 H 0.12429 0.84803 0.07228 0.0
H739 H 0.22279 0.82089 0.07035 0.0
C740 C 0.36028 0.69196 0.12922 0.0
C741 C 0.42391 0.69779 0.17423 0.0
C742 C 0.31898 0.70936 0.09253 0.0
C743 C 0.33863 0.73308 0.10091 0.0
C744 C 0.3959 0.73929 0.14902 0.0
C745 C 0.43912 0.72178 0.18484 0.0
C746 C 0.30304 0.75081 0.05774 0.0
C747 C 0.24374 0.76514 0.0572 0.0
C748 C 0.32492 0.75278 1.01556 0.0
C749 C 0.39188 0.74018 1.01572 0.0
C750 C 0.46203 0.74294 0.05748 0.0
C751 C 0.52577 0.73236 0.056 0.0
C752 C 0.52056 0.71952 1.01224 0.0
C753 C 0.45148 0.71705 0.97003 0.0
C754 C 0.38727 0.72715 0.97185 0.0
C755 C 0.15862 0.83682 0.88697 0.0
C756 C 0.08553 0.83096 0.85275 0.0
C757 C 0.20592 0.82025 0.92347 0.0
C758 C 0.18153 0.79743 0.92579 0.0
C759 C 0.11225 0.79077 0.88753 0.0
C760 C 0.06459 0.80738 0.85154 0.0
C761 C 0.22354 0.78163 0.97165 0.0
C762 C 0.28415 0.76792 0.97282 0.0
C763 C 0.20449 0.78061 1.01499 0.0
C764 C 0.14551 0.79632 0.0177 0.0
C765 C 0.07006 0.79137 0.98891 0.0
C766 C 0.01466 0.80696 0.98969 0.0
C767 C 0.03423 0.8274 0.0196 0.0
C768 C 0.10923 0.83226 0.04893 0.0
C769 C 0.16483 0.8168 0.04798 0.0
H770 H 0.99129 0.83942 0.02012 0.0
H771 H 0.57019 0.71167 1.01094 0.0
H772 H 0.06347 0.06387 0.20816 0.0
H773 H 0.07938 0.03388 0.15023 0.0
H774 H 0.88767 0.06308 0.02062 0.0
H775 H 0.87116 0.09251 0.07867 0.0
H776 H 0.89131 0.01784 1.00942 0.0
H777 H 0.06933 0.07859 0.04735 0.0
H778 H 0.17198 0.10381 0.102 0.0
H779 H 0.31676 0.04319 0.15961 0.0
H780 H 0.21455 0.01741 0.10619 0.0
H781 H 0.96474 0.96477 0.8086 0.0
H782 H 0.95378 0.99764 0.86213 0.0
H783 H 0.13927 0.96853 0.99616 0.0
H784 H 0.15103 0.93621 0.94252 0.0
H785 H 0.13876 0.01506 1.00289 0.0
H786 H 0.95277 0.95466 0.96765 0.0
H787 H 0.84626 0.93059 0.91338 0.0
H788 H 0.71536 0.99323 0.84666 0.0
H789 H 0.82095 0.01765 0.9007 0.0
C790 C 0.02247 0.06299 0.16798 0.0
C791 C 0.96476 0.08007 0.14823 0.0
C792 C 0.0326 0.04623 0.13451 0.0
C793 C 0.98583 0.04651 0.08054 0.0
C794 C 0.92473 0.06243 0.06188 0.0
C795 C 0.91457 0.07906 0.09529 0.0
C796 C 1.00223 0.03129 0.04281 0.0
C797 C 0.94527 0.01751 1.00771 0.0
C798 C 0.07272 0.0306 0.04039 0.0
C799 C 0.13398 0.04604 0.07313 0.0
C800 C 0.12281 0.07059 0.07203 0.0
C801 C 0.18095 0.085 0.10272 0.0
C802 C 0.2508 0.07516 0.13419 0.0
C803 C 0.2626 0.05081 0.13523 0.0
C804 C 0.20457 0.03627 0.10479 0.0
C805 C 0.00567 0.96617 0.84869 0.0
C806 C 0.05955 0.94815 0.87119 0.0
C807 C 0.99844 0.98469 0.87966 0.0
C808 C 0.04441 0.98529 0.93374 0.0
C809 C 0.10283 0.96853 0.95477 0.0
C810 C 0.1101 0.95014 0.92389 0.0
C811 C 0.02781 1.00162 0.96966 0.0
C812 C 0.08476 0.01556 1.00449 0.0
C813 C 0.95709 1.0027 0.97154 0.0
C814 C 0.8948 0.98795 0.93787 0.0
C815 C 0.90142 0.96327 0.94115 0.0
C816 C 0.84115 0.94957 0.91054 0.0
C817 C 0.77412 0.96038 0.87657 0.0
C818 C 0.76725 0.98489 0.87299 0.0
C819 C 0.82719 0.99866 0.90366 0.0
H820 H 0.7273 0.94984 0.85319 0.0
H821 H 0.29581 0.08641 0.15758 0.0
H822 H 0.14307 0.06973 0.40873 0.0
H823 H 0.12893 0.03743 0.46118 0.0
H824 H 0.89033 0.04468 0.37986 0.0
H825 H 0.90431 0.0765 0.32652 0.0
H826 H 0.94144 0.05246 0.48748 0.0
H827 H 0.97209 0.99513 0.37447 0.0
H828 H 0.02951 0.97399 0.32331 0.0
H829 H 0.22193 0.95688 0.46443 0.0
H830 H 0.1667 0.97849 0.51645 0.0
H831 H 0.84825 0.95067 0.60379 0.0
H832 H 0.86131 0.98412 0.55366 0.0
H833 H 0.09896 0.98095 0.64321 0.0
H834 H 0.08595 0.94801 0.69445 0.0
H835 H 0.05065 0.97205 0.53326 0.0
H836 H 0.0196 0.02961 0.64518 0.0
H837 H 0.96183 0.05054 0.69644 0.0
H838 H 0.76582 0.0653 0.55591 0.0
H839 H 0.82202 0.04419 0.50379 0.0
C840 C 0.08775 0.06329 0.39925 0.0
C841 C 0.02496 0.07588 0.36337 0.0
C842 C 0.07957 0.04512 0.43027 0.0
C843 C 0.00845 0.03902 0.42567 0.0
C844 C 0.94583 0.04927 0.38482 0.0
C845 C 0.95403 0.06714 0.35321 0.0
C846 C 0.99975 0.02441 0.46717 0.0
C847 C 0.9639 0.03462 0.4967 0.0
C848 C 0.03135 1.00146 0.48071 0.0
C849 C 0.06571 0.98888 0.44937 0.0
C850 C 0.02728 0.98728 0.3946 0.0
C851 C 0.05942 0.97518 0.3654 0.0
C852 C 0.12962 0.96429 0.39055 0.0
C853 C 0.16775 0.96545 0.44496 0.0
C854 C 0.1361 0.97768 0.47432 0.0
C855 C 0.90275 0.95815 0.61542 0.0
C856 C 0.96596 0.94645 0.65322 0.0
C857 C 0.91038 0.97707 0.58591 0.0
C858 C 0.98135 0.98476 0.59363 0.0
C859 C 0.0436 0.97525 0.63606 0.0
C860 C 0.03583 0.95662 0.66626 0.0
C861 C 0.991 0.9997 0.55288 0.0
C862 C 0.02736 0.98967 0.52365 0.0
C863 C 0.95937 0.02264 0.53937 0.0
C864 C 0.92462 0.03496 0.57063 0.0
C865 C 0.96374 0.03701 0.62524 0.0
C866 C 0.93138 0.04898 0.65446 0.0
C867 C 0.85996 0.05906 0.62949 0.0
C868 C 0.82096 0.05734 0.57522 0.0
C869 C 0.8531 0.0454 0.54581 0.0
H870 H 0.83504 0.06835 0.65217 0.0
H871 H 0.15418 0.95481 0.36791 0.0
H872 H 0.56194 0.56493 0.20671 0.0
H873 H 0.57364 0.53375 0.14951 0.0
H874 H 0.39055 0.56559 0.01796 0.0
H875 H 0.37795 0.59613 0.07504 0.0
H876 H 0.38613 0.52003 1.00674 0.0
H877 H 0.58085 0.57772 0.04799 0.0
H878 H 0.68852 0.59995 0.10789 0.0
H879 H 0.81036 0.53545 0.16971 0.0
H880 H 0.70363 0.51275 0.11031 0.0
H881 H 0.45325 0.46269 0.80795 0.0
H882 H 0.44306 0.49628 0.85999 0.0
H883 H 0.63534 0.46959 0.99291 0.0
H884 H 0.64733 0.43703 0.94037 0.0
H885 H 0.63431 0.51374 1.00188 0.0
H886 H 0.44099 0.45591 0.96899 0.0
H887 H 0.33309 0.43239 0.91456 0.0
H888 H 0.21025 0.49533 0.84089 0.0
H889 H 0.31712 0.51931 0.89538 0.0
C890 C 0.52194 0.56451 0.16619 0.0
C891 C 0.46824 0.58273 0.14551 0.0
C892 C 0.52966 0.54701 0.13316 0.0
C893 C 0.48432 0.54763 0.07888 0.0
C894 C 0.4266 0.56468 0.05941 0.0
C895 C 0.41886 0.58203 0.09226 0.0
C896 C 0.49914 0.53175 0.04147 0.0
C897 C 0.44032 0.51885 1.00546 0.0
C898 C 0.56989 0.52986 0.03977 0.0
C899 C 0.63409 0.54355 0.07508 0.0
C900 C 0.63048 0.56828 0.07455 0.0
C901 C 0.69129 0.58097 0.10836 0.0
C902 C 0.75594 0.56916 0.14272 0.0
C903 C 0.76018 0.54459 0.14315 0.0
C904 C 0.69967 0.5318 0.10935 0.0
C905 C 0.4958 0.46485 0.84726 0.0
C906 C 0.55177 0.44743 0.86983 0.0
C907 C 0.48883 0.4837 0.8776 0.0
C908 C 0.53674 0.48511 0.93127 0.0
C909 C 0.59712 0.469 0.95194 0.0
C910 C 0.60459 0.45046 0.92158 0.0
C911 C 0.52139 0.50179 0.96732 0.0
C912 C 0.58005 0.51493 1.00302 0.0
C913 C 0.45065 0.50374 0.96912 0.0
C914 C 0.38714 0.48935 0.93576 0.0
C915 C 0.39111 0.46471 0.94094 0.0
C916 C 0.33012 0.45131 0.9102 0.0
C917 C 0.2651 0.46233 0.87405 0.0
C918 C 0.26071 0.48682 0.8688 0.0
C919 C 0.32131 0.50033 0.89973 0.0
H920 H 0.21798 0.45193 0.85028 0.0
H921 H 0.80283 0.57904 0.16889 0.0
H922 H 0.41149 0.43675 0.62823 0.0
H923 H 0.404 0.46943 0.56944 0.0
H924 H 0.63765 0.4817 0.6583 0.0
H925 H 0.64544 0.44858 0.71602 0.0
H926 H 0.42752 0.5144 0.56384 0.0
H927 H 0.72356 0.49154 0.57775 0.0
H928 H 0.81136 0.45751 0.59867 0.0
H929 H 0.62949 0.41026 0.55691 0.0
H930 H 0.54063 0.4441 0.53538 0.0
H931 H 0.6638 0.58229 0.45536 0.0
H932 H 0.64591 0.54985 0.50475 0.0
H933 H 0.42059 0.5433 0.38895 0.0
H934 H 0.43693 0.57713 0.34047 0.0
H935 H 0.61276 0.50488 0.48772 0.0
H936 H 0.33395 0.53207 0.42396 0.0
H937 H 0.23704 0.56319 0.40663 0.0
H938 H 0.37437 0.59708 0.55011 0.0
H939 H 0.47402 0.56714 0.56604 0.0
C940 C 0.46021 0.44732 0.63727 0.0
C941 C 0.52901 0.44006 0.67714 0.0
C942 C 0.4563 0.46577 0.60275 0.0
C943 C 0.52095 0.47753 0.60785 0.0
C944 C 0.58733 0.47247 0.65221 0.0
C945 C 0.59135 0.45391 0.6863 0.0
C946 C 0.52048 0.49353 0.56502 0.0
C947 C 0.46763 0.51208 0.54687 0.0
C948 C 0.57223 0.49066 0.54209 0.0
C949 C 0.62552 0.4703 0.55547 0.0
C950 C 0.70232 0.47389 0.57304 0.0
C951 C 0.75226 0.45465 0.58499 0.0
C952 C 0.72598 0.43174 0.57927 0.0
C953 C 0.64972 0.42802 0.56155 0.0
C954 C 0.59962 0.4472 0.54962 0.0
C955 C 0.61047 0.57379 0.43961 0.0
C956 C 0.55164 0.58262 0.39378 0.0
C957 C 0.60012 0.55522 0.46839 0.0
C958 C 0.53074 0.54458 0.45238 0.0
C959 C 0.47355 0.55189 0.40409 0.0
C960 C 0.48368 0.57082 0.37527 0.0
C961 C 0.52064 0.52607 0.48716 0.0
C962 C 0.57211 0.50702 0.50423 0.0
C963 C 0.46702 0.52825 0.50856 0.0
C964 C 0.41223 0.54793 0.49508 0.0
C965 C 0.34444 0.54669 0.45065 0.0
C966 C 0.28904 0.56408 0.44112 0.0
C967 C 0.2999 0.58226 0.47687 0.0
C968 C 0.3665 0.58323 0.52192 0.0
C969 C 0.42294 0.56631 0.53074 0.0
H970 H 0.25639 0.59542 0.4699 0.0
H971 H 0.76469 0.41688 0.58849 0.0
loop_
_geom_bond_atom_site_label_1
_geom_bond_atom_site_label_2
_geom_bond_distance
_geom_bond_site_symmetry_2
_ccdc_geom_bond_type
Co0 N1 2.034 . S
Co0 O15 2.262 1_455 S
Co0 O19 1.958 1_455 S
Co0 O23 1.950 . S
Co0 O24 2.057 1_455 S
N1 Co0 2.034 . S
N1 C2 1.366 . S
N1 C4 1.332 . S
C2 N1 1.366 . S
C2 C5 1.377 1_554 S
C2 H34 0.931 1_455 S
N3 C4 1.346 . S
N3 C5 1.337 1_554 S
C4 N1 1.332 . S
C4 N3 1.346 . S
C4 C38 1.361 . S
C5 C2 1.377 1_556 S
C5 N3 1.337 1_556 S
C5 H41 0.930 . S
Co6 N7 2.034 . S
Co6 O20 1.950 1_655 S
Co6 O21 2.262 1_655 S
Co6 O22 1.958 . S
Co6 O26 2.057 1_655 S
N7 Co6 2.034 . S
N7 C10 1.366 . S
N7 C11 1.332 . S
N8 C9 1.337 . S
N8 C11 1.346 . S
C9 N8 1.337 . S
C9 C10 1.377 . S
C9 H42 0.930 . S
C10 N7 1.366 . S
C10 C9 1.377 . S
C10 H14 0.931 . S
C11 N7 1.332 . S
C11 N8 1.346 . S
C11 C28 1.361 1_655 S
Co12 O15 2.097 . S
Co12 O16 2.065 1_655 S
Co12 O17 2.065 1_655 S
Co12 O18 2.042 . S
Co12 O21 2.097 1_655 S
Co12 O25 2.042 . S
C13 O21 1.253 . S
C13 O26 1.263 . S
H14 C10 0.931 . S
O15 Co0 2.262 1_655 S
O15 Co12 2.097 . S
O15 C39 1.253 . S
O16 Co12 2.065 1_455 S
O16 C32 1.221 . S
O17 Co12 2.065 1_455 S
O17 C27 1.221 . S
O18 Co12 2.042 . S
O18 C33 1.237 . S
O19 Co0 1.958 1_655 S
O19 C33 1.278 . S
O20 Co6 1.950 1_455 S
O20 C32 1.277 . S
O21 Co6 2.262 1_455 S
O21 Co12 2.097 1_455 S
O21 C13 1.253 . S
O22 Co6 1.958 . S
O22 C40 1.278 . S
O23 Co0 1.950 . S
O23 C27 1.277 . S
O24 Co0 2.057 1_655 S
O24 C39 1.263 . S
O25 Co12 2.042 . S
O25 C40 1.237 . S
O26 Co6 2.057 1_455 S
O26 C13 1.263 . S
C27 O17 1.221 . S
C27 O23 1.277 . S
C28 C11 1.361 1_455 S
C28 H29 0.960 . S
C28 H30 0.961 . S
C28 H31 0.961 . S
H29 C28 0.960 . S
H30 C28 0.961 . S
H31 C28 0.961 . S
C32 O16 1.221 . S
C32 O20 1.277 . S
C33 O18 1.237 . S
C33 O19 1.278 . S
H34 C2 0.931 1_655 S
H35 C38 0.961 . S
H36 C38 0.961 . S
H37 C38 0.960 . S
C38 C4 1.361 . S
C38 H35 0.961 . S
C38 H36 0.961 . S
C38 H37 0.960 . S
C39 O15 1.253 . S
C39 O24 1.263 . S
C40 O22 1.278 . S
C40 O25 1.237 . S
H41 C5 0.930 . S
H42 C9 0.930 . S
Co43 N44 2.034 . S
Co43 O58 2.262 1_455 S
Co43 O62 1.958 1_455 S
Co43 O66 1.950 . S
Co43 O67 2.057 1_455 S
N44 Co43 2.034 . S
N44 C45 1.366 . S
N44 C47 1.332 . S
C45 N44 1.366 . S
C45 C48 1.377 . S
C45 H77 0.931 1_455 S
N46 C47 1.346 . S
N46 C48 1.337 . S
C47 N44 1.332 . S
C47 N46 1.346 . S
C47 C81 1.361 . S
C48 C45 1.377 . S
C48 N46 1.337 . S
C48 H84 0.930 . S
Co49 N50 2.034 . S
Co49 O63 1.950 1_655 S
Co49 O64 2.262 1_655 S
Co49 O65 1.958 . S
Co49 O69 2.057 1_655 S
N50 Co49 2.034 . S
N50 C53 1.366 . S
N50 C54 1.332 . S
N51 C52 1.337 . S
N51 C54 1.346 . S
C52 N51 1.337 . S
C52 C53 1.377 . S
C52 H85 0.930 . S
C53 N50 1.366 . S
C53 C52 1.377 . S
C53 H57 0.931 . S
C54 N50 1.332 . S
C54 N51 1.346 . S
C54 C71 1.361 1_655 S
Co55 O58 2.097 . S
Co55 O59 2.065 1_655 S
Co55 O60 2.065 1_655 S
Co55 O61 2.042 . S
Co55 O64 2.097 1_655 S
Co55 O68 2.042 . S
C56 O64 1.253 . S
C56 O69 1.263 . S
H57 C53 0.931 . S
O58 Co43 2.262 1_655 S
O58 Co55 2.097 . S
O58 C82 1.253 . S
O59 Co55 2.065 1_455 S
O59 C75 1.221 . S
O60 Co55 2.065 1_455 S
O60 C70 1.221 . S
O61 Co55 2.042 . S
O61 C76 1.237 . S
O62 Co43 1.958 1_655 S
O62 C76 1.278 . S
O63 Co49 1.950 1_455 S
O63 C75 1.277 . S
O64 Co49 2.262 1_455 S
O64 Co55 2.097 1_455 S
O64 C56 1.253 . S
O65 Co49 1.958 . S
O65 C83 1.278 . S
O66 Co43 1.950 . S
O66 C70 1.277 . S
O67 Co43 2.057 1_655 S
O67 C82 1.263 . S
O68 Co55 2.042 . S
O68 C83 1.237 . S
O69 Co49 2.057 1_455 S
O69 C56 1.263 . S
C70 O60 1.221 . S
C70 O66 1.277 . S
C71 C54 1.361 1_455 S
C71 H72 0.960 . S
C71 H73 0.961 1_556 S
C71 H74 0.961 1_556 S
H72 C71 0.960 . S
H73 C71 0.961 1_554 S
H74 C71 0.961 1_554 S
C75 O59 1.221 . S
C75 O63 1.277 . S
C76 O61 1.237 . S
C76 O62 1.278 . S
H77 C45 0.931 1_655 S
H78 C81 0.961 . S
H79 C81 0.961 . S
H80 C81 0.960 . S
C81 C47 1.361 . S
C81 H78 0.961 . S
C81 H79 0.961 . S
C81 H80 0.960 . S
C82 O58 1.253 . S
C82 O67 1.263 . S
C83 O65 1.278 . S
C83 O68 1.237 . S
H84 C48 0.930 . S
H85 C52 0.930 . S
Co86 N87 2.034 . S
Co86 O101 2.262 . S
Co86 O105 1.958 . S
Co86 O109 1.950 . S
Co86 O110 2.057 . S
N87 Co86 2.034 . S
N87 C88 1.366 . S
N87 C90 1.332 . S
C88 N87 1.366 . S
C88 C91 1.377 1_554 S
C88 H120 0.931 . S
N89 C90 1.346 . S
N89 C91 1.337 1_554 S
C90 N87 1.332 . S
C90 N89 1.346 . S
C90 C124 1.361 . S
C91 C88 1.377 1_556 S
C91 N89 1.337 1_556 S
C91 H127 0.930 . S
Co92 N93 2.034 . S
Co92 O106 1.950 . S
Co92 O107 2.262 . S
Co92 O108 1.958 . S
Co92 O112 2.057 . S
N93 Co92 2.034 . S
N93 C96 1.366 . S
N93 C97 1.332 . S
N94 C95 1.337 . S
N94 C97 1.346 . S
C95 N94 1.337 . S
C95 C96 1.377 . S
C95 H128 0.930 . S
C96 N93 1.366 . S
C96 C95 1.377 . S
C96 H100 0.931 . S
C97 N93 1.332 . S
C97 N94 1.346 . S
C97 C114 1.361 . S
Co98 O101 2.097 . S
Co98 O102 2.065 . S
Co98 O103 2.065 . S
Co98 O104 2.042 . S
Co98 O107 2.097 . S
Co98 O111 2.042 . S
C99 O107 1.253 . S
C99 O112 1.263 . S
H100 C96 0.931 . S
O101 Co86 2.262 . S
O101 Co98 2.097 . S
O101 C125 1.253 . S
O102 Co98 2.065 . S
O102 C118 1.221 . S
O103 Co98 2.065 . S
O103 C113 1.221 . S
O104 Co98 2.042 . S
O104 C119 1.237 . S
O105 Co86 1.958 . S
O105 C119 1.278 . S
O106 Co92 1.950 . S
O106 C118 1.277 . S
O107 Co92 2.262 . S
O107 Co98 2.097 . S
O107 C99 1.253 . S
O108 Co92 1.958 . S
O108 C126 1.278 . S
O109 Co86 1.950 . S
O109 C113 1.277 . S
O110 Co86 2.057 . S
O110 C125 1.263 . S
O111 Co98 2.042 . S
O111 C126 1.237 . S
O112 Co92 2.057 . S
O112 C99 1.263 . S
C113 O103 1.221 . S
C113 O109 1.277 . S
C114 C97 1.361 . S
C114 H115 0.960 . S
C114 H116 0.961 . S
C114 H117 0.961 . S
H115 C114 0.960 . S
H116 C114 0.961 . S
H117 C114 0.961 . S
C118 O102 1.221 . S
C118 O106 1.277 . S
C119 O104 1.237 . S
C119 O105 1.278 . S
H120 C88 0.931 . S
H121 C124 0.961 . S
H122 C124 0.961 . S
H123 C124 0.960 . S
C124 C90 1.361 . S
C124 H121 0.961 . S
C124 H122 0.961 . S
C124 H123 0.960 . S
C125 O101 1.253 . S
C125 O110 1.263 . S
C126 O108 1.278 . S
C126 O111 1.237 . S
H127 C91 0.930 . S
H128 C95 0.930 . S
Co129 N130 2.034 . S
Co129 O144 2.262 . S
Co129 O148 1.958 . S
Co129 O152 1.950 . S
Co129 O153 2.057 . S
N130 Co129 2.034 . S
N130 C131 1.366 . S
N130 C133 1.332 . S
C131 N130 1.366 . S
C131 C134 1.377 . S
C131 H163 0.931 . S
N132 C133 1.346 . S
N132 C134 1.337 . S
C133 N130 1.332 . S
C133 N132 1.346 . S
C133 C167 1.361 . S
C134 C131 1.377 . S
C134 N132 1.337 . S
C134 H170 0.930 . S
Co135 N136 2.034 . S
Co135 O149 1.950 . S
Co135 O150 2.262 . S
Co135 O151 1.958 . S
Co135 O155 2.057 . S
N136 Co135 2.034 . S
N136 C139 1.366 . S
N136 C140 1.332 . S
N137 C138 1.337 . S
N137 C140 1.346 . S
C138 N137 1.337 . S
C138 C139 1.377 . S
C138 H171 0.930 . S
C139 N136 1.366 . S
C139 C138 1.377 . S
C139 H143 0.931 . S
C140 N136 1.332 . S
C140 N137 1.346 . S
C140 C157 1.361 . S
Co141 O144 2.097 . S
Co141 O145 2.065 . S
Co141 O146 2.065 . S
Co141 O147 2.042 . S
Co141 O150 2.097 . S
Co141 O154 2.042 . S
C142 O150 1.253 . S
C142 O155 1.263 . S
H143 C139 0.931 . S
O144 Co129 2.262 . S
O144 Co141 2.097 . S
O144 C168 1.253 . S
O145 Co141 2.065 . S
O145 C161 1.221 . S
O146 Co141 2.065 . S
O146 C156 1.221 . S
O147 Co141 2.042 . S
O147 C162 1.237 . S
O148 Co129 1.958 . S
O148 C162 1.278 . S
O149 Co135 1.950 . S
O149 C161 1.277 . S
O150 Co135 2.262 . S
O150 Co141 2.097 . S
O150 C142 1.253 . S
O151 Co135 1.958 . S
O151 C169 1.278 . S
O152 Co129 1.950 . S
O152 C156 1.277 . S
O153 Co129 2.057 . S
O153 C168 1.263 . S
O154 Co141 2.042 . S
O154 C169 1.237 . S
O155 Co135 2.057 . S
O155 C142 1.263 . S
C156 O146 1.221 . S
C156 O152 1.277 . S
C157 C140 1.361 . S
C157 H158 0.960 . S
C157 H159 0.961 1_556 S
C157 H160 0.961 1_556 S
H158 C157 0.960 . S
H159 C157 0.961 1_554 S
H160 C157 0.961 1_554 S
C161 O145 1.221 . S
C161 O149 1.277 . S
C162 O147 1.237 . S
C162 O148 1.278 . S
H163 C131 0.931 . S
H164 C167 0.961 . S
H165 C167 0.961 . S
H166 C167 0.960 . S
C167 C133 1.361 . S
C167 H164 0.961 . S
C167 H165 0.961 . S
C167 H166 0.960 . S
C168 O144 1.253 . S
C168 O153 1.263 . S
C169 O151 1.278 . S
C169 O154 1.237 . S
H170 C134 0.930 . S
H171 C138 0.930 . S
H172 C190 0.951 1_655 S
H173 C192 0.951 1_655 S
H174 C194 0.950 . S
H175 C195 0.950 . S
H176 C197 0.950 . S
H177 C200 0.950 . S
H178 C201 0.950 . S
H179 C203 0.950 . S
H180 C204 0.950 . S
H181 C205 0.951 . S
H182 C207 0.951 . S
H183 C209 0.950 . S
H184 C210 0.950 . S
H185 C212 0.951 1_655 S
H186 C215 0.950 . S
H187 C216 0.950 . S
H188 C218 0.950 . S
H189 C219 0.950 . S
C190 H172 0.951 1_455 S
C190 C191 1.366 . S
C190 C192 1.388 . S
C191 C190 1.366 . S
C191 C195 1.385 . S
C192 H173 0.951 1_455 S
C192 C190 1.388 . S
C192 C193 1.366 . S
C193 C192 1.366 . S
C193 C194 1.414 . S
C193 C196 1.499 . S
C194 H174 0.950 . S
C194 C193 1.414 . S
C194 C195 1.374 . S
C195 H175 0.950 . S
C195 C191 1.385 . S
C195 C194 1.374 . S
C196 C193 1.499 . S
C196 C197 1.373 . S
C196 C198 1.389 . S
C197 H176 0.950 . S
C197 C196 1.373 . S
C197 C213 1.377 . S
C198 C196 1.389 . S
C198 C199 1.524 . S
C198 C212 1.377 . S
C199 C198 1.524 . S
C199 C200 1.397 . S
C199 C204 1.363 1_455 S
C200 H177 0.950 . S
C200 C199 1.397 . S
C200 C201 1.334 . S
C201 H178 0.950 . S
C201 C200 1.334 . S
C201 C202 1.287 . S
C202 C201 1.287 . S
C202 C203 1.524 1_455 S
C202 H221 0.913 . S
C203 H179 0.950 . S
C203 C202 1.524 1_655 S
C203 C204 1.415 . S
C204 H180 0.950 . S
C204 C199 1.363 1_655 S
C204 C203 1.415 . S
C205 H181 0.951 . S
C205 C206 1.366 1_455 S
C205 C207 1.388 . S
C206 C205 1.366 1_655 S
C206 C210 1.385 . S
C207 H182 0.951 . S
C207 C205 1.388 . S
C207 C208 1.366 1_455 S
C208 C207 1.366 1_655 S
C208 C209 1.414 . S
C208 C211 1.499 1_655 S
C209 H183 0.950 . S
C209 C208 1.414 . S
C209 C210 1.374 . S
C210 H184 0.950 . S
C210 C206 1.385 . S
C210 C209 1.374 . S
C211 C208 1.499 1_455 S
C211 C212 1.373 . S
C211 C213 1.389 . S
C212 H185 0.951 1_455 S
C212 C198 1.377 . S
C212 C211 1.373 . S
C213 C197 1.377 . S
C213 C211 1.389 . S
C213 C214 1.524 . S
C214 C213 1.524 . S
C214 C215 1.397 1_455 S
C214 C219 1.363 . S
C215 H186 0.950 . S
C215 C214 1.397 1_655 S
C215 C216 1.334 . S
C216 H187 0.950 . S
C216 C215 1.334 . S
C216 C217 1.287 . S
C217 C216 1.287 . S
C217 C218 1.524 1_655 S
C217 H220 0.999 . S
C218 H188 0.950 . S
C218 C217 1.524 1_455 S
C218 C219 1.415 . S
C219 H189 0.950 . S
C219 C214 1.363 . S
C219 C218 1.415 . S
H220 C217 0.999 . S
H221 C202 0.913 . S
H222 C240 0.951 . S
H223 C242 0.951 . S
H224 C244 0.950 . S
H225 C245 0.950 . S
H226 C247 0.950 . S
H227 C250 0.950 . S
H228 C251 0.950 . S
H229 C253 0.950 . S
H230 C254 0.950 . S
H231 C255 0.951 . S
H232 C257 0.951 . S
H233 C259 0.950 . S
H234 C260 0.950 . S
H235 C262 0.950 . S
H236 C265 0.950 . S
H237 C266 0.950 . S
H238 C268 0.950 . S
H239 C269 0.950 . S
C240 H222 0.951 . S
C240 C241 1.366 . S
C240 C242 1.388 . S
C241 C240 1.366 . S
C241 C245 1.385 . S
C242 H223 0.951 . S
C242 C240 1.388 . S
C242 C243 1.366 . S
C243 C242 1.366 . S
C243 C244 1.414 . S
C243 C246 1.499 . S
C244 H224 0.950 . S
C244 C243 1.414 . S
C244 C245 1.374 . S
C245 H225 0.950 . S
C245 C241 1.385 . S
C245 C244 1.374 . S
C246 C243 1.499 . S
C246 C247 1.373 . S
C246 C248 1.389 1_455 S
C247 H226 0.950 . S
C247 C246 1.373 . S
C247 C263 1.377 . S
C248 C246 1.389 1_655 S
C248 C249 1.524 . S
C248 C262 1.377 . S
C249 C248 1.524 . S
C249 C250 1.397 . S
C249 C254 1.363 . S
C250 H227 0.950 . S
C250 C249 1.397 . S
C250 C251 1.334 . S
C251 H228 0.950 . S
C251 C250 1.334 . S
C251 C252 1.287 . S
C252 C251 1.287 . S
C252 C253 1.524 . S
C252 H271 0.913 . S
C253 H229 0.950 . S
C253 C252 1.524 . S
C253 C254 1.415 . S
C254 H230 0.950 . S
C254 C249 1.363 . S
C254 C253 1.415 . S
C255 H231 0.951 . S
C255 C256 1.366 . S
C255 C257 1.388 1_655 S
C256 C255 1.366 . S
C256 C260 1.385 . S
C257 H232 0.951 . S
C257 C255 1.388 1_455 S
C257 C258 1.366 1_455 S
C258 C257 1.366 1_655 S
C258 C259 1.414 . S
C258 C261 1.499 1_655 S
C259 H233 0.950 . S
C259 C258 1.414 . S
C259 C260 1.374 . S
C260 H234 0.950 . S
C260 C256 1.385 . S
C260 C259 1.374 . S
C261 C258 1.499 1_455 S
C261 C262 1.373 1_455 S
C261 C263 1.389 . S
C262 H235 0.950 . S
C262 C248 1.377 . S
C262 C261 1.373 1_655 S
C263 C247 1.377 . S
C263 C261 1.389 . S
C263 C264 1.524 . S
C264 C263 1.524 . S
C264 C265 1.397 . S
C264 C269 1.363 . S
C265 H236 0.950 . S
C265 C264 1.397 . S
C265 C266 1.334 . S
C266 H237 0.950 . S
C266 C265 1.334 . S
C266 C267 1.287 . S
C267 C266 1.287 . S
C267 C268 1.524 . S
C267 H270 0.999 . S
C268 H238 0.950 . S
C268 C267 1.524 . S
C268 C269 1.415 . S
C269 H239 0.950 . S
C269 C264 1.363 . S
C269 C268 1.415 . S
H270 C267 0.999 . S
H271 C252 0.913 . S
H272 C290 0.951 . S
H273 C292 0.951 . S
H274 C294 0.950 . S
H275 C295 0.950 . S
H276 C297 0.950 . S
H277 C300 0.950 . S
H278 C301 0.950 . S
H279 C303 0.950 . S
H280 C304 0.950 . S
H281 C305 0.951 . S
H282 C307 0.951 . S
H283 C309 0.950 . S
H284 C310 0.950 . S
H285 C312 0.950 . S
H286 C315 0.950 . S
H287 C316 0.950 . S
H288 C318 0.950 . S
H289 C319 0.950 . S
C290 H272 0.951 . S
C290 C291 1.366 . S
C290 C292 1.388 . S
C291 C290 1.366 . S
C291 C295 1.385 . S
C292 H273 0.951 . S
C292 C290 1.388 . S
C292 C293 1.366 . S
C293 C292 1.366 . S
C293 C294 1.414 . S
C293 C296 1.499 . S
C294 H274 0.950 . S
C294 C293 1.414 . S
C294 C295 1.374 . S
C295 H275 0.950 . S
C295 C291 1.385 . S
C295 C294 1.374 . S
C296 C293 1.499 . S
C296 C297 1.373 . S
C296 C298 1.389 . S
C297 H276 0.950 . S
C297 C296 1.373 . S
C297 C313 1.377 . S
C298 C296 1.389 . S
C298 C299 1.524 . S
C298 C312 1.377 . S
C299 C298 1.524 . S
C299 C300 1.397 . S
C299 C304 1.363 . S
C300 H277 0.950 . S
C300 C299 1.397 . S
C300 C301 1.334 . S
C301 H278 0.950 . S
C301 C300 1.334 . S
C301 C302 1.287 . S
C302 C301 1.287 . S
C302 C303 1.524 . S
C302 H321 0.913 . S
C303 H279 0.950 . S
C303 C302 1.524 . S
C303 C304 1.415 . S
C304 H280 0.950 . S
C304 C299 1.363 . S
C304 C303 1.415 . S
C305 H281 0.951 . S
C305 C306 1.366 . S
C305 C307 1.388 . S
C306 C305 1.366 . S
C306 C310 1.385 . S
C307 H282 0.951 . S
C307 C305 1.388 . S
C307 C308 1.366 . S
C308 C307 1.366 . S
C308 C309 1.414 . S
C308 C311 1.499 . S
C309 H283 0.950 . S
C309 C308 1.414 . S
C309 C310 1.374 . S
C310 H284 0.950 . S
C310 C306 1.385 . S
C310 C309 1.374 . S
C311 C308 1.499 . S
C311 C312 1.373 . S
C311 C313 1.389 . S
C312 H285 0.950 . S
C312 C298 1.377 . S
C312 C311 1.373 . S
C313 C297 1.377 . S
C313 C311 1.389 . S
C313 C314 1.524 . S
C314 C313 1.524 . S
C314 C315 1.397 . S
C314 C319 1.363 . S
C315 H286 0.950 . S
C315 C314 1.397 . S
C315 C316 1.334 . S
C316 H287 0.950 . S
C316 C315 1.334 . S
C316 C317 1.287 . S
C317 C316 1.287 . S
C317 C318 1.524 . S
C317 H320 0.999 . S
C318 H288 0.950 . S
C318 C317 1.524 . S
C318 C319 1.415 . S
C319 H289 0.950 . S
C319 C314 1.363 . S
C319 C318 1.415 . S
H320 C317 0.999 . S
H321 C302 0.913 . S
H322 C340 0.951 . S
H323 C342 0.951 . S
H324 C344 0.950 . S
H325 C345 0.950 . S
H326 C347 0.950 . S
H327 C350 0.950 . S
H328 C351 0.950 . S
H329 C353 0.950 . S
H330 C354 0.950 . S
H331 C355 0.951 . S
H332 C357 0.951 . S
H333 C359 0.950 . S
H334 C360 0.950 . S
H335 C362 0.950 . S
H336 C365 0.950 . S
H337 C366 0.950 . S
H338 C368 0.950 . S
H339 C369 0.950 . S
C340 H322 0.951 . S
C340 C341 1.366 . S
C340 C342 1.388 . S
C341 C340 1.366 . S
C341 C345 1.385 . S
C342 H323 0.951 . S
C342 C340 1.388 . S
C342 C343 1.366 . S
C343 C342 1.366 . S
C343 C344 1.414 . S
C343 C346 1.499 . S
C344 H324 0.950 . S
C344 C343 1.414 . S
C344 C345 1.374 . S
C345 H325 0.950 . S
C345 C341 1.385 . S
C345 C344 1.374 . S
C346 C343 1.499 . S
C346 C347 1.373 . S
C346 C348 1.389 . S
C347 H326 0.950 . S
C347 C346 1.373 . S
C347 C363 1.377 . S
C348 C346 1.389 . S
C348 C349 1.524 . S
C348 C362 1.377 . S
C349 C348 1.524 . S
C349 C350 1.397 . S
C349 C354 1.363 . S
C350 H327 0.950 . S
C350 C349 1.397 . S
C350 C351 1.334 . S
C351 H328 0.950 . S
C351 C350 1.334 . S
C351 C352 1.287 . S
C352 C351 1.287 . S
C352 C353 1.524 . S
C352 H371 0.913 . S
C353 H329 0.950 . S
C353 C352 1.524 . S
C353 C354 1.415 . S
C354 H330 0.950 . S
C354 C349 1.363 . S
C354 C353 1.415 . S
C355 H331 0.951 . S
C355 C356 1.366 . S
C355 C357 1.388 . S
C356 C355 1.366 . S
C356 C360 1.385 . S
C357 H332 0.951 . S
C357 C355 1.388 . S
C357 C358 1.366 . S
C358 C357 1.366 . S
C358 C359 1.414 . S
C358 C361 1.499 . S
C359 H333 0.950 . S
C359 C358 1.414 . S
C359 C360 1.374 . S
C360 H334 0.950 . S
C360 C356 1.385 . S
C360 C359 1.374 . S
C361 C358 1.499 . S
C361 C362 1.373 . S
C361 C363 1.389 . S
C362 H335 0.950 . S
C362 C348 1.377 . S
C362 C361 1.373 . S
C363 C347 1.377 . S
C363 C361 1.389 . S
C363 C364 1.524 . S
C364 C363 1.524 . S
C364 C365 1.397 . S
C364 C369 1.363 . S
C365 H336 0.950 . S
C365 C364 1.397 . S
C365 C366 1.334 . S
C366 H337 0.950 . S
C366 C365 1.334 . S
C366 C367 1.287 . S
C367 C366 1.287 . S
C367 C368 1.524 . S
C367 H370 0.999 . S
C368 H338 0.950 . S
C368 C367 1.524 . S
C368 C369 1.415 . S
C369 H339 0.950 . S
C369 C364 1.363 . S
C369 C368 1.415 . S
H370 C367 0.999 . S
H371 C352 0.913 . S
H372 C390 0.951 . S
H373 C392 0.951 . S
H374 C394 0.950 . S
H375 C395 0.950 . S
H376 C397 0.950 . S
H377 C400 0.950 . S
H378 C401 0.950 . S
H379 C403 0.950 . S
H380 C404 0.950 . S
H381 C405 0.951 . S
H382 C407 0.951 . S
H383 C409 0.950 . S
H384 C410 0.950 . S
H385 C412 0.950 . S
H386 C415 0.950 . S
H387 C416 0.950 . S
H388 C418 0.950 . S
H389 C419 0.950 . S
C390 H372 0.951 . S
C390 C391 1.366 . S
C390 C392 1.388 . S
C391 C390 1.366 . S
C391 C395 1.385 . S
C392 H373 0.951 . S
C392 C390 1.388 . S
C392 C393 1.366 . S
C393 C392 1.366 . S
C393 C394 1.414 . S
C393 C396 1.499 . S
C394 H374 0.950 . S
C394 C393 1.414 . S
C394 C395 1.374 . S
C395 H375 0.950 . S
C395 C391 1.385 . S
C395 C394 1.374 . S
C396 C393 1.499 . S
C396 C397 1.373 . S
C396 C398 1.389 . S
C397 H376 0.950 . S
C397 C396 1.373 . S
C397 C413 1.377 . S
C398 C396 1.389 . S
C398 C399 1.524 . S
C398 C412 1.377 . S
C399 C398 1.524 . S
C399 C400 1.397 . S
C399 C404 1.363 . S
C400 H377 0.950 . S
C400 C399 1.397 . S
C400 C401 1.334 . S
C401 H378 0.950 . S
C401 C400 1.334 . S
C401 C402 1.287 . S
C402 C401 1.287 . S
C402 C403 1.524 . S
C402 H421 0.913 . S
C403 H379 0.950 . S
C403 C402 1.524 . S
C403 C404 1.415 . S
C404 H380 0.950 . S
C404 C399 1.363 . S
C404 C403 1.415 . S
C405 H381 0.951 . S
C405 C406 1.366 . S
C405 C407 1.388 . S
C406 C405 1.366 . S
C406 C410 1.385 . S
C407 H382 0.951 . S
C407 C405 1.388 . S
C407 C408 1.366 . S
C408 C407 1.366 . S
C408 C409 1.414 . S
C408 C411 1.499 . S
C409 H383 0.950 . S
C409 C408 1.414 . S
C409 C410 1.374 . S
C410 H384 0.950 . S
C410 C406 1.385 . S
C410 C409 1.374 . S
C411 C408 1.499 . S
C411 C412 1.373 . S
C411 C413 1.389 . S
C412 H385 0.950 . S
C412 C398 1.377 . S
C412 C411 1.373 . S
C413 C397 1.377 . S
C413 C411 1.389 . S
C413 C414 1.524 . S
C414 C413 1.524 . S
C414 C415 1.397 . S
C414 C419 1.363 . S
C415 H386 0.950 . S
C415 C414 1.397 . S
C415 C416 1.334 . S
C416 H387 0.950 . S
C416 C415 1.334 . S
C416 C417 1.287 . S
C417 C416 1.287 . S
C417 C418 1.524 . S
C417 H420 0.999 . S
C418 H388 0.950 . S
C418 C417 1.524 . S
C418 C419 1.415 . S
C419 H389 0.950 . S
C419 C414 1.363 . S
C419 C418 1.415 . S
H420 C417 0.999 . S
H421 C402 0.913 . S
H422 C440 0.951 . S
H423 C442 0.951 . S
H424 C444 0.950 . S
H425 C445 0.950 . S
H426 C447 0.950 . S
H427 C450 0.950 . S
H428 C451 0.950 . S
H429 C453 0.950 . S
H430 C454 0.950 . S
H431 C455 0.951 . S
H432 C457 0.951 . S
H433 C459 0.950 . S
H434 C460 0.950 . S
H435 C462 0.950 . S
H436 C465 0.950 . S
H437 C466 0.950 . S
H438 C468 0.950 . S
H439 C469 0.950 . S
C440 H422 0.951 . S
C440 C441 1.366 . S
C440 C442 1.388 . S
C441 C440 1.366 . S
C441 C445 1.385 . S
C442 H423 0.951 . S
C442 C440 1.388 . S
C442 C443 1.366 . S
C443 C442 1.366 . S
C443 C444 1.414 . S
C443 C446 1.499 . S
C444 H424 0.950 . S
C444 C443 1.414 . S
C444 C445 1.374 . S
C445 H425 0.950 . S
C445 C441 1.385 . S
C445 C444 1.374 . S
C446 C443 1.499 . S
C446 C447 1.373 . S
C446 C448 1.389 . S
C447 H426 0.950 . S
C447 C446 1.373 . S
C447 C463 1.377 . S
C448 C446 1.389 . S
C448 C449 1.524 . S
C448 C462 1.377 . S
C449 C448 1.524 . S
C449 C450 1.397 . S
C449 C454 1.363 . S
C450 H427 0.950 . S
C450 C449 1.397 . S
C450 C451 1.334 . S
C451 H428 0.950 . S
C451 C450 1.334 . S
C451 C452 1.287 . S
C452 C451 1.287 . S
C452 C453 1.524 . S
C452 H471 0.913 . S
C453 H429 0.950 . S
C453 C452 1.524 . S
C453 C454 1.415 . S
C454 H430 0.950 . S
C454 C449 1.363 . S
C454 C453 1.415 . S
C455 H431 0.951 . S
C455 C456 1.366 . S
C455 C457 1.388 . S
C456 C455 1.366 . S
C456 C460 1.385 . S
C457 H432 0.951 . S
C457 C455 1.388 . S
C457 C458 1.366 . S
C458 C457 1.366 . S
C458 C459 1.414 . S
C458 C461 1.499 . S
C459 H433 0.950 . S
C459 C458 1.414 . S
C459 C460 1.374 . S
C460 H434 0.950 . S
C460 C456 1.385 . S
C460 C459 1.374 . S
C461 C458 1.499 . S
C461 C462 1.373 . S
C461 C463 1.389 . S
C462 H435 0.950 . S
C462 C448 1.377 . S
C462 C461 1.373 . S
C463 C447 1.377 . S
C463 C461 1.389 . S
C463 C464 1.524 . S
C464 C463 1.524 . S
C464 C465 1.397 . S
C464 C469 1.363 . S
C465 H436 0.950 . S
C465 C464 1.397 . S
C465 C466 1.334 . S
C466 H437 0.950 . S
C466 C465 1.334 . S
C466 C467 1.287 . S
C467 C466 1.287 . S
C467 C468 1.524 . S
C467 H470 0.999 . S
C468 H438 0.950 . S
C468 C467 1.524 . S
C468 C469 1.415 . S
C469 H439 0.950 . S
C469 C464 1.363 . S
C469 C468 1.415 . S
H470 C467 0.999 . S
H471 C452 0.913 . S
H472 C490 0.951 . S
H473 C492 0.951 . S
H474 C494 0.950 . S
H475 C495 0.950 . S
H476 C497 0.950 . S
H477 C500 0.950 . S
H478 C501 0.950 . S
H479 C503 0.950 . S
H480 C504 0.950 . S
H481 C505 0.951 . S
H482 C507 0.951 . S
H483 C509 0.950 . S
H484 C510 0.950 . S
H485 C512 0.956 . S
H486 C515 0.950 . S
H487 C516 0.950 . S
H488 C518 0.950 . S
H489 C519 0.950 . S
C490 H472 0.951 . S
C490 C491 1.366 . S
C490 C492 1.388 . S
C491 C490 1.366 . S
C491 C495 1.385 . S
C492 H473 0.951 . S
C492 C490 1.388 . S
C492 C493 1.366 . S
C493 C492 1.366 . S
C493 C494 1.414 . S
C493 C496 1.499 . S
C494 H474 0.950 . S
C494 C493 1.414 . S
C494 C495 1.374 . S
C495 H475 0.950 . S
C495 C491 1.385 . S
C495 C494 1.374 . S
C496 C493 1.499 . S
C496 C497 1.373 . S
C496 C498 1.389 . S
C497 H476 0.950 . S
C497 C496 1.373 . S
C497 C513 1.377 1_655 S
C498 C496 1.389 . S
C498 C499 1.524 . S
C498 C512 1.365 1_655 S
C499 C498 1.524 . S
C499 C500 1.397 . S
C499 C504 1.363 . S
C500 H477 0.950 . S
C500 C499 1.397 . S
C500 C501 1.334 . S
C501 H478 0.950 . S
C501 C500 1.334 . S
C501 C502 1.287 . S
C502 C501 1.287 . S
C502 C503 1.524 . S
C502 H521 0.913 . S
C503 H479 0.950 . S
C503 C502 1.524 . S
C503 C504 1.415 . S
C504 H480 0.950 . S
C504 C499 1.363 . S
C504 C503 1.415 . S
C505 H481 0.951 . S
C505 C506 1.366 . S
C505 C507 1.388 . S
C506 C505 1.366 . S
C506 C510 1.385 . S
C507 H482 0.951 . S
C507 C505 1.388 . S
C507 C508 1.366 . S
C508 C507 1.366 . S
C508 C509 1.414 . S
C508 C511 1.499 . S
C509 H483 0.950 . S
C509 C508 1.414 . S
C509 C510 1.374 . S
C510 H484 0.950 . S
C510 C506 1.385 . S
C510 C509 1.374 . S
C511 C508 1.499 . S
C511 C512 1.379 . S
C511 C513 1.389 . S
C512 H485 0.956 . S
C512 C498 1.365 1_455 S
C512 C511 1.379 . S
C513 C497 1.377 1_455 S
C513 C511 1.389 . S
C513 C514 1.524 . S
C514 C513 1.524 . S
C514 C515 1.397 . S
C514 C519 1.363 . S
C515 H486 0.950 . S
C515 C514 1.397 . S
C515 C516 1.334 . S
C516 H487 0.950 . S
C516 C515 1.334 . S
C516 C517 1.287 . S
C517 C516 1.287 . S
C517 C518 1.524 . S
C517 H520 0.999 . S
C518 H488 0.950 . S
C518 C517 1.524 . S
C518 C519 1.415 . S
C519 H489 0.950 . S
C519 C514 1.363 . S
C519 C518 1.415 . S
H520 C517 0.999 . S
H521 C502 0.913 . S
H522 C540 0.951 . S
H523 C542 0.951 . S
H524 C544 0.950 . S
H525 C545 0.950 . S
H526 C547 0.950 . S
H527 C550 0.950 . S
H528 C551 0.950 . S
H529 C553 0.950 . S
H530 C554 0.950 . S
H531 C555 0.951 . S
H532 C557 0.951 . S
H533 C559 0.950 . S
H534 C560 0.950 . S
H535 C562 0.950 . S
H536 C565 0.950 . S
H537 C566 0.950 . S
H538 C568 0.950 . S
H539 C569 0.950 . S
C540 H522 0.951 . S
C540 C541 1.366 . S
C540 C542 1.388 . S
C541 C540 1.366 . S
C541 C545 1.385 . S
C542 H523 0.951 . S
C542 C540 1.388 . S
C542 C543 1.366 . S
C543 C542 1.366 . S
C543 C544 1.414 . S
C543 C546 1.499 . S
C544 H524 0.950 . S
C544 C543 1.414 . S
C544 C545 1.374 . S
C545 H525 0.950 . S
C545 C541 1.385 . S
C545 C544 1.374 . S
C546 C543 1.499 . S
C546 C547 1.373 . S
C546 C548 1.389 . S
C547 H526 0.950 . S
C547 C546 1.373 . S
C547 C563 1.377 1_655 S
C548 C546 1.389 . S
C548 C549 1.524 . S
C548 C562 1.377 1_655 S
C549 C548 1.524 . S
C549 C550 1.397 . S
C549 C554 1.363 . S
C550 H527 0.950 . S
C550 C549 1.397 . S
C550 C551 1.334 . S
C551 H528 0.950 . S
C551 C550 1.334 . S
C551 C552 1.287 . S
C552 C551 1.287 . S
C552 C553 1.524 . S
C552 H571 0.913 . S
C553 H529 0.950 . S
C553 C552 1.524 . S
C553 C554 1.415 . S
C554 H530 0.950 . S
C554 C549 1.363 . S
C554 C553 1.415 . S
C555 H531 0.951 . S
C555 C556 1.366 . S
C555 C557 1.388 . S
C556 C555 1.366 . S
C556 C560 1.385 . S
C557 H532 0.951 . S
C557 C555 1.388 . S
C557 C558 1.366 . S
C558 C557 1.366 . S
C558 C559 1.414 . S
C558 C561 1.499 . S
C559 H533 0.950 . S
C559 C558 1.414 . S
C559 C560 1.374 . S
C560 H534 0.950 . S
C560 C556 1.385 . S
C560 C559 1.374 . S
C561 C558 1.499 . S
C561 C562 1.373 . S
C561 C563 1.389 . S
C562 H535 0.950 . S
C562 C548 1.377 1_455 S
C562 C561 1.373 . S
C563 C547 1.377 1_455 S
C563 C561 1.389 . S
C563 C564 1.524 . S
C564 C563 1.524 . S
C564 C565 1.397 . S
C564 C569 1.363 . S
C565 H536 0.950 . S
C565 C564 1.397 . S
C565 C566 1.334 . S
C566 H537 0.950 . S
C566 C565 1.334 . S
C566 C567 1.287 . S
C567 C566 1.287 . S
C567 C568 1.524 . S
C567 H570 0.999 . S
C568 H538 0.950 . S
C568 C567 1.524 . S
C568 C569 1.415 . S
C569 H539 0.950 . S
C569 C564 1.363 . S
C569 C568 1.415 . S
H570 C567 0.999 . S
H571 C552 0.913 . S
H572 C590 0.951 . S
H573 C592 0.951 . S
H574 C594 0.950 . S
H575 C595 0.950 . S
H576 C597 0.950 . S
H577 C600 0.950 . S
H578 C601 0.950 . S
H579 C603 0.950 . S
H580 C604 0.950 . S
H581 C605 0.951 1_655 S
H582 C607 0.951 . S
H583 C609 0.950 . S
H584 C610 0.950 . S
H585 C612 0.950 . S
H586 C615 0.950 . S
H587 C616 0.950 . S
H588 C618 0.950 1_655 S
H589 C619 0.950 . S
C590 H572 0.951 . S
C590 C591 1.366 . S
C590 C592 1.388 . S
C591 C590 1.366 . S
C591 C595 1.385 . S
C592 H573 0.951 . S
C592 C590 1.388 . S
C592 C593 1.366 . S
C593 C592 1.366 . S
C593 C594 1.414 . S
C593 C596 1.499 . S
C594 H574 0.950 . S
C594 C593 1.414 . S
C594 C595 1.374 . S
C595 H575 0.950 . S
C595 C591 1.385 . S
C595 C594 1.374 . S
C596 C593 1.499 . S
C596 C597 1.373 . S
C596 C598 1.389 . S
C597 H576 0.950 . S
C597 C596 1.373 . S
C597 C613 1.377 . S
C598 C596 1.389 . S
C598 C599 1.524 . S
C598 C612 1.377 . S
C599 C598 1.524 . S
C599 C600 1.397 . S
C599 C604 1.363 . S
C600 H577 0.950 . S
C600 C599 1.397 . S
C600 C601 1.334 . S
C601 H578 0.950 . S
C601 C600 1.334 . S
C601 C602 1.287 . S
C602 C601 1.287 . S
C602 C603 1.524 . S
C602 H621 0.913 . S
C603 H579 0.950 . S
C603 C602 1.524 . S
C603 C604 1.415 . S
C604 H580 0.950 . S
C604 C599 1.363 . S
C604 C603 1.415 . S
C605 H581 0.951 1_455 S
C605 C606 1.366 . S
C605 C607 1.388 . S
C606 C605 1.366 . S
C606 C610 1.385 . S
C607 H582 0.951 . S
C607 C605 1.388 . S
C607 C608 1.366 . S
C608 C607 1.366 . S
C608 C609 1.414 . S
C608 C611 1.499 . S
C609 H583 0.950 . S
C609 C608 1.414 . S
C609 C610 1.374 . S
C610 H584 0.950 . S
C610 C606 1.385 . S
C610 C609 1.374 . S
C611 C608 1.499 . S
C611 C612 1.373 . S
C611 C613 1.389 . S
C612 H585 0.950 . S
C612 C598 1.377 . S
C612 C611 1.373 . S
C613 C597 1.377 . S
C613 C611 1.389 . S
C613 C614 1.524 . S
C614 C613 1.524 . S
C614 C615 1.397 . S
C614 C619 1.363 . S
C615 H586 0.950 . S
C615 C614 1.397 . S
C615 C616 1.334 . S
C616 H587 0.950 . S
C616 C615 1.334 . S
C616 C617 1.287 . S
C617 C616 1.287 . S
C617 C618 1.524 . S
C617 H620 0.999 1_455 S
C618 H588 0.950 1_455 S
C618 C617 1.524 . S
C618 C619 1.415 . S
C619 H589 0.950 . S
C619 C614 1.363 . S
C619 C618 1.415 . S
H620 C617 0.999 1_655 S
H621 C602 0.913 . S
H622 C640 0.951 . S
H623 C642 0.951 . S
H624 C644 0.950 . S
H625 C645 0.950 . S
H626 C647 0.950 . S
H627 C650 0.950 . S
H628 C651 0.950 . S
H629 C653 0.950 . S
H630 C654 0.950 . S
H631 C655 0.951 . S
H632 C657 0.951 . S
H633 C659 0.950 . S
H634 C660 0.950 . S
H635 C662 0.950 . S
H636 C665 0.950 . S
H637 C666 0.966 . S
H638 C668 0.950 . S
H639 C669 0.950 . S
C640 H622 0.951 . S
C640 C641 1.366 . S
C640 C642 1.388 . S
C641 C640 1.366 . S
C641 C645 1.385 . S
C642 H623 0.951 . S
C642 C640 1.388 . S
C642 C643 1.366 . S
C643 C642 1.366 . S
C643 C644 1.414 . S
C643 C646 1.499 . S
C644 H624 0.950 . S
C644 C643 1.414 . S
C644 C645 1.374 . S
C645 H625 0.950 . S
C645 C641 1.385 . S
C645 C644 1.374 . S
C646 C643 1.499 . S
C646 C647 1.373 1_556 S
C646 C648 1.389 . S
C647 H626 0.950 . S
C647 C646 1.373 1_554 S
C647 C663 1.377 . S
C648 C646 1.389 . S
C648 C649 1.524 . S
C648 C662 1.377 . S
C649 C648 1.524 . S
C649 C650 1.397 . S
C649 C654 1.363 . S
C650 H627 0.950 . S
C650 C649 1.397 . S
C650 C651 1.334 . S
C651 H628 0.950 . S
C651 C650 1.334 . S
C651 C652 1.287 . S
C652 C651 1.287 . S
C652 C653 1.524 . S
C652 H671 0.913 . S
C653 H629 0.950 . S
C653 C652 1.524 . S
C653 C654 1.415 . S
C654 H630 0.950 . S
C654 C649 1.363 . S
C654 C653 1.415 . S
C655 H631 0.951 . S
C655 C656 1.366 . S
C655 C657 1.388 . S
C656 C655 1.366 . S
C656 C660 1.385 . S
C657 H632 0.951 . S
C657 C655 1.388 . S
C657 C658 1.366 . S
C658 C657 1.366 . S
C658 C659 1.414 . S
C658 C661 1.499 . S
C659 H633 0.950 . S
C659 C658 1.414 . S
C659 C660 1.374 . S
C660 H634 0.950 . S
C660 C656 1.385 . S
C660 C659 1.374 . S
C661 C658 1.499 . S
C661 C662 1.373 1_554 S
C661 C663 1.389 . S
C662 H635 0.950 . S
C662 C648 1.377 . S
C662 C661 1.373 1_556 S
C663 C647 1.377 . S
C663 C661 1.389 . S
C663 C664 1.524 . S
C664 C663 1.524 . S
C664 C665 1.397 . S
C664 C669 1.363 . S
C665 H636 0.950 . S
C665 C664 1.397 . S
C665 C666 1.325 1_655 S
C666 H637 0.966 . S
C666 C665 1.325 1_455 S
C666 C667 1.280 1_455 S
C667 C666 1.280 1_655 S
C667 C668 1.524 . S
C667 H670 0.999 1_655 S
C668 H638 0.950 . S
C668 C667 1.524 . S
C668 C669 1.415 . S
C669 H639 0.950 . S
C669 C664 1.363 . S
C669 C668 1.415 . S
H670 C667 0.999 1_455 S
H671 C652 0.913 . S
H672 C690 0.951 . S
H673 C692 0.951 . S
H674 C694 0.950 . S
H675 C695 0.950 . S
H676 C697 0.950 . S
H677 C700 0.950 . S
H678 C701 0.950 . S
H679 C703 0.950 . S
H680 C704 0.950 . S
H681 C705 0.951 . S
H682 C707 0.951 . S
H683 C709 0.950 . S
H684 C710 0.950 . S
H685 C712 0.950 . S
H686 C715 0.950 . S
H687 C716 0.950 . S
H688 C718 0.950 . S
H689 C719 0.950 . S
C690 H672 0.951 . S
C690 C691 1.366 . S
C690 C692 1.388 . S
C691 C690 1.366 . S
C691 C695 1.385 . S
C692 H673 0.951 . S
C692 C690 1.388 . S
C692 C693 1.366 . S
C693 C692 1.366 . S
C693 C694 1.414 . S
C693 C696 1.499 . S
C694 H674 0.950 . S
C694 C693 1.414 . S
C694 C695 1.374 . S
C695 H675 0.950 . S
C695 C691 1.385 . S
C695 C694 1.374 . S
C696 C693 1.499 . S
C696 C697 1.373 . S
C696 C698 1.389 . S
C697 H676 0.950 . S
C697 C696 1.373 . S
C697 C713 1.377 . S
C698 C696 1.389 . S
C698 C699 1.524 . S
C698 C712 1.377 . S
C699 C698 1.524 . S
C699 C700 1.397 . S
C699 C704 1.363 . S
C700 H677 0.950 . S
C700 C699 1.397 . S
C700 C701 1.334 . S
C701 H678 0.950 . S
C701 C700 1.334 . S
C701 C702 1.287 . S
C702 C701 1.287 . S
C702 C703 1.524 . S
C702 H721 0.913 . S
C703 H679 0.950 . S
C703 C702 1.524 . S
C703 C704 1.415 . S
C704 H680 0.950 . S
C704 C699 1.363 . S
C704 C703 1.415 . S
C705 H681 0.951 . S
C705 C706 1.366 . S
C705 C707 1.388 . S
C706 C705 1.366 . S
C706 C710 1.385 . S
C707 H682 0.951 . S
C707 C705 1.388 . S
C707 C708 1.366 . S
C708 C707 1.366 . S
C708 C709 1.414 . S
C708 C711 1.499 . S
C709 H683 0.950 . S
C709 C708 1.414 . S
C709 C710 1.374 . S
C710 H684 0.950 . S
C710 C706 1.385 . S
C710 C709 1.374 . S
C711 C708 1.499 . S
C711 C712 1.373 . S
C711 C713 1.389 . S
C712 H685 0.950 . S
C712 C698 1.377 . S
C712 C711 1.373 . S
C713 C697 1.377 . S
C713 C711 1.389 . S
C713 C714 1.524 . S
C714 C713 1.524 . S
C714 C715 1.397 . S
C714 C719 1.363 . S
C715 H686 0.950 . S
C715 C714 1.397 . S
C715 C716 1.334 . S
C716 H687 0.950 . S
C716 C715 1.334 . S
C716 C717 1.287 . S
C717 C716 1.287 . S
C717 C718 1.524 . S
C717 H720 0.999 . S
C718 H688 0.950 . S
C718 C717 1.524 . S
C718 C719 1.415 . S
C719 H689 0.950 . S
C719 C714 1.363 . S
C719 C718 1.415 . S
H720 C717 0.999 . S
H721 C702 0.913 . S
H722 C740 0.951 . S
H723 C742 0.951 . S
H724 C744 0.950 . S
H725 C745 0.950 . S
H726 C747 0.950 . S
H727 C750 0.950 . S
H728 C751 0.950 . S
H729 C753 0.950 . S
H730 C754 0.950 . S
H731 C755 0.951 . S
H732 C757 0.951 . S
H733 C759 0.950 . S
H734 C760 0.950 . S
H735 C762 0.950 . S
H736 C765 0.950 . S
H737 C766 0.950 . S
H738 C768 0.950 . S
H739 C769 0.950 . S
C740 H722 0.951 . S
C740 C741 1.366 . S
C740 C742 1.388 . S
C741 C740 1.366 . S
C741 C745 1.385 . S
C742 H723 0.951 . S
C742 C740 1.388 . S
C742 C743 1.366 . S
C743 C742 1.366 . S
C743 C744 1.414 . S
C743 C746 1.499 . S
C744 H724 0.950 . S
C744 C743 1.414 . S
C744 C745 1.374 . S
C745 H725 0.950 . S
C745 C741 1.385 . S
C745 C744 1.374 . S
C746 C743 1.499 . S
C746 C747 1.373 . S
C746 C748 1.389 1_554 S
C747 H726 0.950 . S
C747 C746 1.373 . S
C747 C763 1.383 . S
C748 C746 1.389 1_556 S
C748 C749 1.524 . S
C748 C762 1.377 . S
C749 C748 1.524 . S
C749 C750 1.397 1_556 S
C749 C754 1.363 . S
C750 H727 0.950 . S
C750 C749 1.397 1_554 S
C750 C751 1.334 . S
C751 H728 0.950 . S
C751 C750 1.334 . S
C751 C752 1.290 . S
C752 C751 1.290 . S
C752 C753 1.522 1_554 S
C752 H771 0.912 . S
C753 H729 0.950 . S
C753 C752 1.522 1_556 S
C753 C754 1.415 . S
C754 H730 0.950 . S
C754 C749 1.363 . S
C754 C753 1.415 . S
C755 H731 0.951 . S
C755 C756 1.366 . S
C755 C757 1.388 . S
C756 C755 1.366 . S
C756 C760 1.385 . S
C757 H732 0.951 . S
C757 C755 1.388 . S
C757 C758 1.366 . S
C758 C757 1.366 . S
C758 C759 1.414 . S
C758 C761 1.499 . S
C759 H733 0.950 . S
C759 C758 1.414 . S
C759 C760 1.374 . S
C760 H734 0.950 . S
C760 C756 1.385 . S
C760 C759 1.374 . S
C761 C758 1.499 . S
C761 C762 1.373 . S
C761 C763 1.377 1_556 S
C762 H735 0.950 . S
C762 C748 1.377 . S
C762 C761 1.373 . S
C763 C747 1.383 . S
C763 C761 1.377 1_554 S
C763 C764 1.530 . S
C764 C763 1.530 . S
C764 C765 1.397 1_554 S
C764 C769 1.363 . S
C765 H736 0.950 . S
C765 C764 1.397 1_556 S
C765 C766 1.334 1_455 S
C766 H737 0.950 . S
C766 C765 1.334 1_655 S
C766 C767 1.287 . S
C767 C766 1.287 . S
C767 C768 1.524 1_656 S
C767 H770 1.010 . S
C768 H738 0.950 . S
C768 C767 1.524 1_454 S
C768 C769 1.415 . S
C769 H739 0.950 . S
C769 C764 1.363 . S
C769 C768 1.415 . S
H770 C767 1.010 . S
H771 C752 0.912 . S
H772 C790 0.951 . S
H773 C792 0.951 . S
H774 C794 0.950 . S
H775 C795 0.950 . S
H776 C797 0.950 . S
H777 C800 0.950 . S
H778 C801 0.950 . S
H779 C803 0.950 . S
H780 C804 0.950 1_554 S
H781 C805 0.951 . S
H782 C807 0.951 . S
H783 C809 0.950 . S
H784 C810 0.950 . S
H785 C812 0.950 . S
H786 C815 0.950 . S
H787 C816 0.950 . S
H788 C818 0.950 . S
H789 C819 0.950 . S
C790 H772 0.951 . S
C790 C791 1.366 1_455 S
C790 C792 1.388 . S
C791 C790 1.366 1_655 S
C791 C795 1.385 . S
C792 H773 0.951 . S
C792 C790 1.388 . S
C792 C793 1.366 1_455 S
C793 C792 1.366 1_655 S
C793 C794 1.414 . S
C793 C796 1.499 . S
C794 H774 0.950 . S
C794 C793 1.414 . S
C794 C795 1.374 . S
C795 H775 0.950 . S
C795 C791 1.385 . S
C795 C794 1.374 . S
C796 C793 1.499 . S
C796 C797 1.373 1_545 S
C796 C798 1.389 1_654 S
C797 H776 0.950 . S
C797 C796 1.373 1_565 S
C797 C813 1.377 1_554 S
C798 C796 1.389 1_456 S
C798 C799 1.524 . S
C798 C812 1.377 . S
C799 C798 1.524 . S
C799 C800 1.397 1_455 S
C799 C804 1.363 . S
C800 H777 0.950 . S
C800 C799 1.397 1_655 S
C800 C801 1.334 . S
C801 H778 0.950 . S
C801 C800 1.334 . S
C801 C802 1.287 1_655 S
C802 C801 1.287 1_455 S
C802 C803 1.524 . S
C802 H821 0.913 . S
C803 H779 0.950 . S
C803 C802 1.524 . S
C803 C804 1.415 . S
C804 H780 0.950 1_556 S
C804 C799 1.363 . S
C804 C803 1.415 . S
C805 H781 0.951 . S
C805 C806 1.366 1_655 S
C805 C807 1.388 . S
C806 C805 1.366 1_455 S
C806 C810 1.385 . S
C807 H782 0.951 . S
C807 C805 1.388 . S
C807 C808 1.366 1_655 S
C808 C807 1.366 1_455 S
C808 C809 1.414 . S
C808 C811 1.499 . S
C809 H783 0.950 . S
C809 C808 1.414 . S
C809 C810 1.374 . S
C810 H784 0.950 . S
C810 C806 1.385 . S
C810 C809 1.374 . S
C811 C808 1.499 . S
C811 C812 1.373 1_565 S
C811 C813 1.389 1_455 S
C812 H785 0.950 . S
C812 C798 1.377 . S
C812 C811 1.373 1_545 S
C813 C797 1.377 1_556 S
C813 C811 1.389 1_655 S
C813 C814 1.524 1_556 S
C814 C813 1.524 1_554 S
C814 C815 1.397 1_655 S
C814 C819 1.370 1_554 S
C815 H786 0.950 . S
C815 C814 1.397 1_455 S
C815 C816 1.334 . S
C816 H787 0.950 . S
C816 C815 1.334 . S
C816 C817 1.287 1_455 S
C817 C816 1.287 1_655 S
C817 C818 1.524 . S
C817 H820 0.999 . S
C818 H788 0.950 . S
C818 C817 1.524 . S
C818 C819 1.409 1_554 S
C819 H789 0.950 . S
C819 C814 1.370 1_556 S
C819 C818 1.409 1_556 S
H820 C817 0.999 . S
H821 C802 0.913 . S
H822 C840 0.951 . S
H823 C842 0.951 . S
H824 C844 0.950 . S
H825 C845 0.950 . S
H826 C847 0.950 . S
H827 C850 0.950 1_545 S
H828 C851 0.950 . S
H829 C853 0.950 . S
H830 C854 0.950 . S
H831 C855 0.951 . S
H832 C857 0.951 . S
H833 C859 0.950 . S
H834 C860 0.950 . S
H835 C862 0.950 . S
H836 C865 0.950 1_565 S
H837 C866 0.950 . S
H838 C868 0.950 . S
H839 C869 0.950 . S
C840 H822 0.951 . S
C840 C841 1.366 . S
C840 C842 1.388 . S
C841 C840 1.366 . S
C841 C845 1.385 1_455 S
C842 H823 0.951 . S
C842 C840 1.388 . S
C842 C843 1.366 . S
C843 C842 1.366 . S
C843 C844 1.414 1_455 S
C843 C846 1.499 . S
C844 H824 0.950 . S
C844 C843 1.414 1_655 S
C844 C845 1.374 . S
C845 H825 0.950 . S
C845 C841 1.385 1_655 S
C845 C844 1.374 . S
C846 C843 1.499 . S
C846 C847 1.373 . S
C846 C848 1.389 1_545 S
C847 H826 0.950 . S
C847 C846 1.373 . S
C847 C863 1.377 1_455 S
C848 C846 1.389 1_565 S
C848 C849 1.523 . S
C848 C862 1.377 1_455 S
C849 C848 1.523 . S
C849 C850 1.395 1_455 S
C849 C854 1.365 . S
C850 H827 0.950 1_565 S
C850 C849 1.395 1_655 S
C850 C851 1.334 . S
C851 H828 0.950 . S
C851 C850 1.334 . S
C851 C852 1.287 . S
C852 C851 1.287 . S
C852 C853 1.524 1_655 S
C852 H871 0.913 . S
C853 H829 0.950 . S
C853 C852 1.524 1_455 S
C853 C854 1.415 . S
C854 H830 0.950 . S
C854 C849 1.365 . S
C854 C853 1.415 . S
C855 H831 0.951 . S
C855 C856 1.366 . S
C855 C857 1.388 . S
C856 C855 1.366 . S
C856 C860 1.385 1_655 S
C857 H832 0.951 . S
C857 C855 1.388 . S
C857 C858 1.366 . S
C858 C857 1.366 . S
C858 C859 1.414 1_655 S
C858 C861 1.499 . S
C859 H833 0.950 . S
C859 C858 1.414 1_455 S
C859 C860 1.374 . S
C860 H834 0.950 . S
C860 C856 1.385 1_455 S
C860 C859 1.374 . S
C861 C858 1.499 . S
C861 C862 1.373 . S
C861 C863 1.389 1_565 S
C862 H835 0.950 . S
C862 C848 1.377 1_655 S
C862 C861 1.373 . S
C863 C847 1.377 1_655 S
C863 C861 1.389 1_545 S
C863 C864 1.530 1_655 S
C864 C863 1.530 1_455 S
C864 C865 1.403 . S
C864 C869 1.353 1_455 S
C865 H836 0.950 1_545 S
C865 C864 1.403 . S
C865 C866 1.334 . S
C866 H837 0.950 . S
C866 C865 1.334 . S
C866 C867 1.287 . S
C867 C866 1.287 . S
C867 C868 1.524 1_455 S
C867 H870 0.999 . S
C868 H838 0.950 . S
C868 C867 1.524 1_655 S
C868 C869 1.415 . S
C869 H839 0.950 . S
C869 C864 1.353 1_655 S
C869 C868 1.415 . S
H870 C867 0.999 . S
H871 C852 0.913 . S
H872 C890 0.951 . S
H873 C892 0.951 . S
H874 C894 0.950 . S
H875 C895 0.950 . S
H876 C897 0.957 . S
H877 C900 0.950 . S
H878 C901 0.950 . S
H879 C903 0.950 . S
H880 C904 0.950 . S
H881 C905 0.951 . S
H882 C907 0.951 . S
H883 C909 0.950 . S
H884 C910 0.950 . S
H885 C912 0.950 . S
H886 C915 0.950 . S
H887 C916 0.950 . S
H888 C918 0.950 . S
H889 C919 0.950 . S
C890 H872 0.951 . S
C890 C891 1.366 . S
C890 C892 1.388 . S
C891 C890 1.366 . S
C891 C895 1.385 . S
C892 H873 0.951 . S
C892 C890 1.388 . S
C892 C893 1.366 . S
C893 C892 1.366 . S
C893 C894 1.414 . S
C893 C896 1.499 . S
C894 H874 0.950 . S
C894 C893 1.414 . S
C894 C895 1.374 . S
C895 H875 0.950 . S
C895 C891 1.385 . S
C895 C894 1.374 . S
C896 C893 1.499 . S
C896 C897 1.377 . S
C896 C898 1.389 . S
C897 H876 0.957 . S
C897 C896 1.377 . S
C897 C913 1.367 1_554 S
C898 C896 1.389 . S
C898 C899 1.524 . S
C898 C912 1.377 1_554 S
C899 C898 1.524 . S
C899 C900 1.397 . S
C899 C904 1.363 . S
C900 H877 0.950 . S
C900 C899 1.397 . S
C900 C901 1.334 . S
C901 H878 0.950 . S
C901 C900 1.334 . S
C901 C902 1.287 . S
C902 C901 1.287 . S
C902 C903 1.524 . S
C902 H921 0.913 . S
C903 H879 0.950 . S
C903 C902 1.524 . S
C903 C904 1.415 . S
C904 H880 0.950 . S
C904 C899 1.363 . S
C904 C903 1.415 . S
C905 H881 0.951 . S
C905 C906 1.366 . S
C905 C907 1.388 . S
C906 C905 1.366 . S
C906 C910 1.385 . S
C907 H882 0.951 . S
C907 C905 1.388 . S
C907 C908 1.366 . S
C908 C907 1.366 . S
C908 C909 1.414 . S
C908 C911 1.499 . S
C909 H883 0.950 . S
C909 C908 1.414 . S
C909 C910 1.374 . S
C910 H884 0.950 . S
C910 C906 1.385 . S
C910 C909 1.374 . S
C911 C908 1.499 . S
C911 C912 1.373 . S
C911 C913 1.389 . S
C912 H885 0.950 . S
C912 C898 1.377 1_556 S
C912 C911 1.373 . S
C913 C897 1.367 1_556 S
C913 C911 1.389 . S
C913 C914 1.524 . S
C914 C913 1.524 . S
C914 C915 1.397 . S
C914 C919 1.363 . S
C915 H886 0.950 . S
C915 C914 1.397 . S
C915 C916 1.334 . S
C916 H887 0.950 . S
C916 C915 1.334 . S
C916 C917 1.287 . S
C917 C916 1.287 . S
C917 C918 1.524 . S
C917 H920 0.999 . S
C918 H888 0.950 . S
C918 C917 1.524 . S
C918 C919 1.415 . S
C919 H889 0.950 . S
C919 C914 1.363 . S
C919 C918 1.415 . S
H920 C917 0.999 . S
H921 C902 0.913 . S
H922 C940 0.951 . S
H923 C942 0.951 . S
H924 C944 0.950 . S
H925 C945 0.950 . S
H926 C947 0.950 . S
H927 C950 0.950 . S
H928 C951 0.950 . S
H929 C953 0.950 . S
H930 C954 0.950 . S
H931 C955 0.951 . S
H932 C957 0.951 . S
H933 C959 0.950 . S
H934 C960 0.950 . S
H935 C962 0.950 . S
H936 C965 0.950 . S
H937 C966 0.950 . S
H938 C968 0.950 . S
H939 C969 0.950 . S
C940 H922 0.951 . S
C940 C941 1.366 . S
C940 C942 1.388 . S
C941 C940 1.366 . S
C941 C945 1.385 . S
C942 H923 0.951 . S
C942 C940 1.388 . S
C942 C943 1.366 . S
C943 C942 1.366 . S
C943 C944 1.414 . S
C943 C946 1.499 . S
C944 H924 0.950 . S
C944 C943 1.414 . S
C944 C945 1.374 . S
C945 H925 0.950 . S
C945 C941 1.385 . S
C945 C944 1.374 . S
C946 C943 1.499 . S
C946 C947 1.373 . S
C946 C948 1.389 . S
C947 H926 0.950 . S
C947 C946 1.373 . S
C947 C963 1.377 . S
C948 C946 1.389 . S
C948 C949 1.524 . S
C948 C962 1.377 . S
C949 C948 1.524 . S
C949 C950 1.397 . S
C949 C954 1.363 . S
C950 H927 0.950 . S
C950 C949 1.397 . S
C950 C951 1.334 . S
C951 H928 0.950 . S
C951 C950 1.334 . S
C951 C952 1.287 . S
C952 C951 1.287 . S
C952 C953 1.524 . S
C952 H971 0.913 . S
C953 H929 0.950 . S
C953 C952 1.524 . S
C953 C954 1.415 . S
C954 H930 0.950 . S
C954 C949 1.363 . S
C954 C953 1.415 . S
C955 H931 0.951 . S
C955 C956 1.366 . S
C955 C957 1.388 . S
C956 C955 1.366 . S
C956 C960 1.385 . S
C957 H932 0.951 . S
C957 C955 1.388 . S
C957 C958 1.366 . S
C958 C957 1.366 . S
C958 C959 1.414 . S
C958 C961 1.499 . S
C959 H933 0.950 . S
C959 C958 1.414 . S
C959 C960 1.374 . S
C960 H934 0.950 . S
C960 C956 1.385 . S
C960 C959 1.374 . S
C961 C958 1.499 . S
C961 C962 1.373 . S
C961 C963 1.389 . S
C962 H935 0.950 . S
C962 C948 1.377 . S
C962 C961 1.373 . S
C963 C947 1.377 . S
C963 C961 1.389 . S
C963 C964 1.524 . S
C964 C963 1.524 . S
C964 C965 1.397 . S
C964 C969 1.363 . S
C965 H936 0.950 . S
C965 C964 1.397 . S
C965 C966 1.334 . S
C966 H937 0.950 . S
C966 C965 1.334 . S
C966 C967 1.287 . S
C967 C966 1.287 . S
C967 C968 1.524 . S
C967 H970 0.999 . S
C968 H938 0.950 . S
C968 C967 1.524 . S
C968 C969 1.415 . S
C969 H939 0.950 . S
C969 C964 1.363 . S
C969 C968 1.415 . S
H970 C967 0.999 . S
H971 C952 0.913 . S
C191 N3 1.329 1_556 S
C206 N8 1.374 . S
C241 N46 1.336 . S
C256 N51 1.383 1_554 S
C291 N89 1.329 1_556 S
C306 N94 1.374 . S
C341 N137 1.384 1_554 S
C356 N132 1.336 . S
C391 C40 1.081 . S
C406 C27 1.082 . S
C441 C83 1.081 . S
C456 C70 1.082 . S
C491 C113 1.083 . S
C506 C126 1.082 . S
C541 C156 1.082 . S
C556 C169 1.081 . S
C591 C162 1.401 . S
C606 C32 1.408 . S
C641 C142 1.464 . S
C656 C39 1.459 . S
C691 C118 1.407 . S
C706 C76 1.400 . S
C741 C125 1.459 . S
C756 C56 1.465 . S
C791 C33 1.625 . S
C806 C75 1.601 . S
C841 C13 1.700 . S
C856 C82 1.727 . S
C891 C119 1.625 . S
C906 C161 1.601 . S
C941 C168 1.728 . S
C956 C99 1.701 . S
