# Generated by pormake.
# Topology sxc, (6)-cn, num edge types: 1
# Building blocks:
#     Node 0, Type 0, BuildingBlock: KUMJIN_clean_sbu_1, # of connection points: 6
#     Node 1, Type 0, BuildingBlock: KUMJIN_clean_sbu_1, # of connection points: 6
#     Node 2, Type 0, BuildingBlock: KUMJIN_clean_sbu_1, # of connection points: 6
#     Edge 3, Type (0, 0), BuildingBlock: FUNLAD_clean_linker_1, # of connection points: 2
#     Edge 4, Type (0, 0), BuildingBlock: FUNLAD_clean_linker_1, # of connection points: 2
#     Edge 5, Type (0, 0), BuildingBlock: FUNLAD_clean_linker_1, # of connection points: 2
#     Edge 6, Type (0, 0), BuildingBlock: FUNLAD_clean_linker_1, # of connection points: 2
#     Edge 7, Type (0, 0), BuildingBlock: FUNLAD_clean_linker_1, # of connection points: 2
#     Edge 8, Type (0, 0), BuildingBlock: FUNLAD_clean_linker_1, # of connection points: 2
#     Edge 9, Type (0, 0), BuildingBlock: FUNLAD_clean_linker_1, # of connection points: 2
#     Edge 10, Type (0, 0), BuildingBlock: FUNLAD_clean_linker_1, # of connection points: 2
#     Edge 11, Type (0, 0), BuildingBlock: FUNLAD_clean_linker_1, # of connection points: 2
# Relax obj value: 0.244
# Max RMSD: 0.158
# Mean RMSD: 0.115
data_MOF--net-sxc--node1-KUMJIN_clean_sbu_1--edge1-FUNLAD_clean_linker_1
_symmetry_space_group_name_H-M    P1
_symmetry_Int_Tables_number       1
_symmetry_cell_setting            triclinic
loop_
_symmetry_equiv_pos_as_xyz
'x, y, z'
_cell_length_a     16.588244
_cell_length_b     18.462006
_cell_length_c     46.273692
_cell_angle_alpha  109.26423
_cell_angle_beta   98.893723
_cell_angle_gamma 98.615701
loop_
_atom_site_label
_atom_site_type_symbol
_atom_site_fract_x
_atom_site_fract_y
_atom_site_fract_z
_atom_type_partial_charge
Eu0 Eu 0.93864 0.14079 -0.00102 0.0
C1 C 0.30747 0.11942 0.05434 0.0
N2 N 0.25323 0.16644 0.06379 0.0
C3 C 0.3192 0.19827 0.11776 0.0
C4 C 0.36984 0.11037 0.07665 0.0
C5 C 0.26055 0.20782 0.09497 0.0
C6 C 0.37398 0.1492 0.1086 0.0
C7 C 0.36347 1.03875 0.01226 0.0
C8 C 0.30414 0.08346 0.02225 0.0
C9 C 0.42536 1.03017 0.03453 0.0
C10 C 0.4283 0.06554 0.06657 0.0
Eu11 Eu 0.17165 0.19102 0.0228 0.0
N12 N 0.24529 0.09445 0.00088 0.0
C13 C 0.36057 1.0057 0.98011 0.0
C14 C 0.24251 1.06249 0.96954 0.0
C15 C 0.29969 1.01741 0.95869 0.0
H16 H 0.2255 0.25267 0.10243 0.0
H17 H 0.29805 0.99329 0.93383 0.0
H18 H 0.90119 0.0963 0.91983 0.0
H19 H 0.81405 0.33836 0.0885 0.0
H20 H 0.19885 0.07419 0.95285 0.0
H21 H 0.40577 0.97195 0.97161 0.0
H22 H 0.91635 0.26103 0.06928 0.0
H23 H 0.32434 0.23132 0.14237 0.0
H24 H 0.47193 0.99687 0.02722 0.0
H25 H 0.47713 1.05904 0.08343 0.0
H26 H 0.79985 0.11549 0.88013 0.0
H27 H 0.4211 0.1438 0.12635 0.0
H28 H 0.70328 0.35635 0.05074 0.0
N29 N 0.86376 0.17227 0.95866 0.0
C30 C 0.80664 0.21593 0.96805 0.0
C31 C 0.80259 0.14583 0.90474 0.0
C32 C 0.74471 0.22539 0.94574 0.0
C33 C 0.86195 0.13685 0.92749 0.0
C34 C 0.74383 0.19032 0.91385 0.0
N35 N 0.86675 0.23817 0.02135 0.0
C36 C 0.87035 0.27052 0.0527 0.0
C37 C 0.74695 0.2918 0.01005 0.0
C38 C 0.80767 0.24902 6e-05 0.0
C39 C 0.74942 0.32392 0.04221 0.0
C40 C 0.81192 0.31397 0.06361 0.0
H41 H 0.69671 0.19551 0.89605 0.0
H42 H 0.63503 0.27357 0.93887 0.0
H43 H 0.63687 0.33148 0.99504 0.0
O44 O 0.82824 0.09619 0.01269 0.0
O45 O 0.98449 0.27994 0.00416 0.0
O46 O 0.12776 0.30471 0.01658 0.0
O47 O 0.84087 1.04449 0.96379 0.0
O48 O 0.98385 0.14498 0.04837 0.0
O49 O 0.1044 0.23619 0.0619 0.0
O50 O 0.2816 0.23398 0.00773 0.0
O51 O 0.12652 1.0515 0.01748 0.0
O52 O 0.98297 1.02779 0.00621 0.0
O53 O 0.26652 0.29158 0.05595 0.0
O54 O 0.12059 0.18506 0.97337 0.0
O55 O 1.00844 0.08719 0.96191 0.0
C56 C 0.05829 0.33184 0.01055 0.0
C57 C 0.71586 0.99186 0.97778 0.0
C58 C 0.62246 0.90772 0.99427 0.0
C59 C 0.56236 0.89055 0.96668 0.0
C60 C 0.65698 0.97291 0.94974 0.0
C61 C 0.57997 0.9226 0.94435 0.0
C62 C 0.69882 0.95881 -0.00012 0.0
C63 C 1.04729 0.1938 0.06963 0.0
C64 C 0.7953 1.04599 0.98441 0.0
C65 C 0.68379 0.26706 0.95576 0.0
C66 C 0.68477 0.29997 0.98776 0.0
C67 C 0.05257 1.00012 0.01176 0.0
C68 C 0.39256 0.34174 0.04264 0.0
C69 C 0.48768 0.42712 0.02732 0.0
C70 C 0.54595 0.44462 0.0554 0.0
C71 C 0.44954 0.36111 0.07119 0.0
C72 C 0.41143 0.375 0.0208 0.0
C73 C 0.52653 0.41212 0.07739 0.0
C74 C 0.06184 0.12886 0.95262 0.0
C75 C 0.31301 0.28746 0.03551 0.0
H76 H 0.50354 0.84951 0.9618 0.0
H77 H 0.67019 0.9976 0.9323 0.0
H78 H 0.5343 0.9077 0.92275 0.0
H79 H 0.74558 0.9712 0.02106 0.0
H80 H 0.60459 0.48642 0.06094 0.0
H81 H 0.4348 0.33628 0.08843 0.0
H82 H 0.366 0.36237 -0.00075 0.0
H83 H 0.57065 0.42736 0.09941 0.0
Eu84 Eu 1.04111 0.09111 0.32855 0.0
C85 C 0.29862 0.39218 0.41556 0.0
N86 N 0.22979 0.34652 0.41836 0.0
C87 C 0.29213 0.37452 0.47224 0.0
C88 C 0.36873 0.42735 0.44084 0.0
C89 C 0.2248 0.33939 0.44647 0.0
C90 C 0.36501 0.41735 0.46929 0.0
C91 C 0.37026 0.45048 0.38388 0.0
C92 C 0.29806 0.40683 0.38781 0.0
C93 C 0.44053 0.48397 0.40881 0.0
C94 C 0.43898 0.47395 0.43743 0.0
Eu95 Eu 0.11197 0.31077 0.37693 0.0
N96 N 0.22742 0.37742 0.36451 0.0
C97 C 0.36953 0.45979 0.35504 0.0
C98 C 0.2255 0.38912 0.3368 0.0
C99 C 0.29695 0.42874 0.33139 0.0
H100 H 0.16721 0.31114 0.4498 0.0
H101 H 0.29554 0.43647 0.30914 0.0
H102 H 0.98865 0.08959 0.25548 0.0
H103 H 0.85065 0.96737 0.39504 0.0
H104 H 0.16928 0.36865 0.31879 0.0
H105 H 0.42432 0.49159 0.35093 0.0
H106 H 0.97854 1.03452 0.38606 0.0
H107 H 0.28656 0.37118 0.4947 0.0
H108 H 0.49609 0.51855 0.40635 0.0
H109 H 0.49273 0.50214 0.45677 0.0
H110 H 0.86848 1.0371 0.21062 0.0
H111 H 0.41683 0.44481 0.48944 0.0
H112 H 0.72427 0.91019 0.35233 0.0
N113 N 0.92457 1.05389 0.28625 0.0
C114 C 0.85499 1.00834 0.28854 0.0
C115 C 0.86303 1.03005 0.23261 0.0
C116 C 0.78534 0.97425 0.26302 0.0
C117 C 0.93053 1.06211 0.25842 0.0
C118 C 0.78976 0.98646 0.23499 0.0
N119 N 0.92367 1.02353 0.33983 0.0
C120 C 0.92346 1.0129 0.36764 0.0
C121 C 0.78102 0.95008 0.31963 0.0
C122 C 0.85401 0.99359 0.31613 0.0
C123 C 0.77979 0.94159 0.34849 0.0
C124 C 0.85112 0.97366 0.37265 0.0
H125 H 0.73788 0.96074 0.21481 0.0
H126 H 0.66095 0.90011 0.24643 0.0
H127 H 0.6555 0.88214 0.29647 0.0
O128 O 1.03546 0.96602 0.31359 0.0
O129 O 0.93161 0.14835 0.34575 0.0
O130 O 0.97251 0.27729 0.35138 0.0
O131 O 0.09365 1.03237 0.28872 0.0
O132 O 0.10255 0.11134 0.37906 0.0
O133 O 0.06091 0.22575 0.39876 0.0
O134 O 0.11761 0.43579 0.39183 0.0
O135 O 0.22024 0.25251 0.35908 0.0
O136 O 0.17947 0.12525 0.3552 0.0
O137 O 0.06408 0.37042 0.41794 0.0
O138 O 1.04689 0.29002 0.32723 0.0
O139 O 0.08873 0.17608 0.30557 0.0
C140 C 0.91314 0.21744 0.34887 0.0
C141 C 0.15266 0.92977 0.29545 0.0
C142 C 0.23686 0.88269 0.3298 0.0
C143 C 0.25466 0.82773 0.30358 0.0
C144 C 0.16746 0.87317 0.26919 0.0
C145 C 0.22174 0.82456 0.27335 0.0
C146 C 0.1961 0.94045 0.32546 0.0
C147 C 0.09194 0.1684 0.40317 0.0
C148 C 0.08025 0.96546 0.2927 0.0
C149 C 0.71442 0.92747 0.26593 0.0
C150 C 0.71163 0.91662 0.29433 0.0
C151 C 0.23893 0.18406 0.35699 0.0
C152 C 1.00303 0.47262 0.41196 0.0
C153 C 0.91688 0.52089 0.37868 0.0
C154 C 0.90122 0.57597 0.40538 0.0
C155 C 0.99049 0.52935 0.43869 0.0
C156 C 0.95715 0.46226 0.38235 0.0
C157 C 0.93619 0.57857 0.43533 0.0
C158 C 0.05771 0.23506 0.30257 0.0
C159 C 0.07579 0.43697 0.41362 0.0
H160 H 0.28646 0.78237 0.3062 0.0
H161 H 0.13418 0.86407 0.24578 0.0
H162 H 0.2321 0.77967 0.25315 0.0
H163 H 0.18372 0.98376 0.34565 0.0
H164 H 0.86973 0.62193 0.40328 0.0
H165 H 1.02564 0.53821 0.4618 0.0
H166 H 0.96774 0.41883 0.36178 0.0
H167 H 0.92759 0.62359 0.45588 0.0
Eu168 Eu 0.17942 0.19245 0.69544 0.0
C169 C 0.19815 0.8579 0.60885 0.0
N170 N 0.14922 0.9079 0.60419 0.0
C171 C 0.1516 0.86303 0.54949 0.0
C172 C 0.22609 0.8087 0.58367 0.0
C173 C 0.12512 0.91058 0.57503 0.0
C174 C 0.20216 0.8118 0.55379 0.0
C175 C 0.27367 0.80632 0.64434 0.0
C176 C 0.22145 0.85647 0.63904 0.0
C177 C 0.30048 0.75674 0.61916 0.0
C178 C 0.27665 0.7578 0.58896 0.0
Eu179 Eu 0.09597 0.9728 0.64781 0.0
N180 N 0.19482 0.90532 0.66325 0.0
C181 C 0.29743 0.80723 0.67484 0.0
C182 C 0.21647 0.90496 0.69286 0.0
C183 C 0.26877 0.85677 0.69916 0.0
H184 H 0.08202 0.94641 0.57107 0.0
H185 H 0.28584 0.85692 0.72272 0.0
H186 H 0.20556 0.23872 0.77348 0.0
H187 H 0.98879 0.29951 0.61678 0.0
H188 H 0.19229 0.93988 0.71166 0.0
H189 H 0.33743 0.76953 0.67982 0.0
H190 H 0.09054 0.2272 0.63049 0.0
H191 H 0.13163 0.8648 0.52637 0.0
H192 H 0.33996 0.71741 0.62282 0.0
H193 H 0.29806 0.7192 0.56983 0.0
H194 H 0.15435 0.32335 0.81716 0.0
H195 H 0.22194 0.77453 0.53385 0.0
H196 H 0.92624 0.38058 0.65762 0.0
N197 N 0.12894 0.26455 0.73849 0.0
C198 C 0.07463 0.30873 0.73221 0.0
C199 C 0.13084 0.3192 0.79338 0.0
C200 C 1.04479 0.35869 0.7566 0.0
C201 C 0.15892 0.27068 0.76856 0.0
C202 C 0.07323 0.36311 0.78737 0.0
N203 N 0.0794 0.25688 0.67799 0.0
C204 C 0.06035 0.25708 0.64824 0.0
C205 C 0.99264 0.35016 0.69458 0.0
C206 C 1.04904 0.30467 0.70131 0.0
C207 C 0.96927 0.34645 0.66368 0.0
C208 C 1.00395 0.30034 0.64051 0.0
H209 H 0.05198 0.40108 0.80671 0.0
H210 H 0.96509 0.44212 0.7682 0.0
H211 H 0.91924 0.43439 0.71402 0.0
O212 O 0.24081 0.29457 0.68893 0.0
O213 O 1.03897 0.14883 0.69395 0.0
O214 O 0.98455 1.03457 0.65106 0.0
O215 O 0.27921 0.27837 0.73387 0.0
O216 O 0.19421 0.14859 0.64489 0.0
O217 O 0.0755 1.05377 0.62146 0.0
O218 O 1.02911 0.87094 0.65372 0.0
O219 O 0.23767 1.01438 0.65092 0.0
O220 O 0.29268 0.13288 0.69163 0.0
O221 O 1.00298 0.88527 0.60794 0.0
O222 O 0.08159 1.01301 0.69888 0.0
O223 O 0.19615 0.11296 0.72264 0.0
C224 C 0.97404 0.09623 0.6736 0.0
C225 C 0.34867 0.39485 0.72725 0.0
C226 C 0.43353 0.48551 0.71162 0.0
C227 C 0.45264 0.54097 0.74226 0.0
C228 C 0.36836 0.44864 0.75822 0.0
C229 C 0.42082 0.52196 0.7657 0.0
C230 C 0.38295 0.41266 0.70429 0.0
C231 C 0.13891 0.10204 0.61968 0.0
C232 C 0.28698 0.3228 0.71732 0.0
C233 C 0.98846 0.40343 0.74972 0.0
C234 C 0.96234 0.39901 0.71885 0.0
C235 C 0.30275 0.06884 0.67015 0.0
C236 C 0.92878 0.76802 0.61216 0.0
C237 C 0.83986 0.67086 0.62335 0.0
C238 C 0.82421 0.61995 0.59204 0.0
C239 C 0.91263 0.71866 0.58053 0.0
C240 C 0.89118 0.74453 0.63329 0.0
C241 C 0.86002 0.64438 0.57051 0.0
C242 C 0.13354 0.06367 0.72443 0.0
C243 C 0.98928 0.84155 0.62439 0.0
H244 H 0.49367 0.59764 0.74808 0.0
H245 H 0.34157 0.43488 0.77619 0.0
H246 H 0.43613 0.56418 0.78947 0.0
H247 H 0.36919 0.37034 0.68042 0.0
H248 H 0.78274 0.56269 0.58422 0.0
H249 H 0.94202 0.73664 0.56393 0.0
H250 H 0.90229 0.78318 0.65767 0.0
H251 H 0.8474 0.60571 0.54621 0.0
H252 H 0.13481 0.44032 0.00615 0.0
C253 C 0.07197 0.42262 0.00893 0.0
H254 H 0.96522 0.47169 0.01677 0.0
H255 H 1.03838 0.84874 0.0636 0.0
H256 H 1.0082 0.81933 0.10886 0.0
H257 H 0.99342 0.68641 0.10962 0.0
H258 H 1.01113 0.57886 0.06597 0.0
C259 C 1.02634 0.48615 0.01195 0.0
C260 C 1.04807 0.57895 0.01198 0.0
C261 C 1.03523 0.6473 0.0366 0.0
C262 C 1.04297 0.72924 0.03592 0.0
C263 C 1.03254 0.78869 0.06252 0.0
C264 C 1.01508 0.7727 0.08857 0.0
C265 C 1.00682 0.69727 0.08906 0.0
C266 C 1.0166 0.63572 0.06367 0.0
H267 H 0.97692 0.89243 0.01712 0.0
C268 C 1.03911 0.90934 0.0136 0.0
H269 H 0.14437 0.85887 0.00452 0.0
H270 H 0.07514 0.48252 0.95924 0.0
H271 H 0.1081 0.51088 0.91435 0.0
H272 H 0.121 0.64387 0.91294 0.0
H273 H 0.10021 0.75141 0.95598 0.0
C274 C 0.08404 0.84501 0.01002 0.0
C275 C 0.0627 0.75214 0.01014 0.0
C276 C 0.07586 0.68362 0.98555 0.0
C277 C 0.06841 0.60182 0.98634 0.0
C278 C 0.08038 0.54234 0.96009 0.0
C279 C 0.09929 0.55795 0.93419 0.0
C280 C 0.10667 0.63317 0.93341 0.0
C281 C 0.09513 0.69479 0.95848 0.0
H282 H 0.33855 0.11477 0.35853 0.0
C283 C 0.32908 0.1707 0.35729 0.0
H284 H 0.38835 0.27719 0.35501 0.0
H285 H 0.77552 0.31354 0.39807 0.0
H286 H 0.74606 0.42204 0.43812 0.0
H287 H 0.60167 0.4317 0.4417 0.0
H288 H 0.48428 0.33301 0.40467 0.0
C289 C 0.39762 0.22054 0.35543 0.0
C290 C 0.48859 0.20633 0.35515 0.0
C291 C 0.55937 0.26362 0.37665 0.0
C292 C 0.64503 0.25761 0.3747 0.0
C293 C 0.71071 0.31561 0.39756 0.0
C294 C 0.69464 0.37812 0.421 0.0
C295 C 0.61308 0.38368 0.42295 0.0
C296 C 0.54631 0.32714 0.40133 0.0
H297 H 0.81314 0.2865 0.34783 0.0
C298 C 0.82292 0.23038 0.34875 0.0
H299 H 0.76441 0.12334 0.35078 0.0
H300 H 0.37675 0.08591 0.30839 0.0
H301 H 0.40621 0.97671 0.26867 0.0
H302 H 0.55061 0.96703 0.26508 0.0
H303 H 0.66794 0.06652 0.3017 0.0
C304 C 0.75473 0.18002 0.35054 0.0
C305 C 0.66369 0.19383 0.35102 0.0
C306 C 0.5929 0.13632 0.32962 0.0
C307 C 0.50725 0.14232 0.33157 0.0
C308 C 0.44157 0.08394 0.30887 0.0
C309 C 0.45763 1.02101 0.28562 0.0
C310 C 0.53919 1.01545 0.28367 0.0
C311 C 0.60595 0.07245 0.30507 0.0
H312 H 0.79702 0.59083 0.64587 0.0
C313 C 0.79747 0.64935 0.64522 0.0
H314 H 0.73486 0.7444 0.65356 0.0
H315 H 0.51719 0.38956 0.6152 0.0
H316 H 0.49821 0.40011 0.56322 0.0
H317 H 0.55288 0.52557 0.55742 0.0
H318 H 0.62937 0.63992 0.60326 0.0
C319 C 0.74132 0.68942 0.6566 0.0
C320 C 0.67232 0.64322 0.66313 0.0
C321 C 0.62031 0.58082 0.63682 0.0
C322 C 0.58637 0.51034 0.64022 0.0
C323 C 0.54189 0.44528 0.6134 0.0
C324 C 0.53108 0.45067 0.58371 0.0
C325 C 0.56218 0.52119 0.58042 0.0
C326 C 0.60606 0.58597 0.60668 0.0
H327 H 0.47079 0.55832 0.68557 0.0
C328 C 0.47154 0.5014 0.68774 0.0
H329 H 0.53576 0.40789 0.68166 0.0
H330 H 0.75086 0.76044 0.71828 0.0
H331 H 0.76939 0.75014 0.7703 0.0
H332 H 0.71557 0.62443 0.77608 0.0
H333 H 0.64036 0.50967 0.73022 0.0
C334 C 0.52783 0.46065 0.67694 0.0
C335 C 0.59712 0.50629 0.67031 0.0
C336 C 0.64926 0.56869 0.69661 0.0
C337 C 0.6829 0.63927 0.69323 0.0
C338 C 0.72662 0.7046 0.72008 0.0
C339 C 0.73711 0.69937 0.74979 0.0
C340 C 0.70653 0.6287 0.75308 0.0
C341 C 0.6634 0.56366 0.72678 0.0
H342 H 0.88442 0.16822 0.69308 0.0
C343 C 0.88649 0.11048 0.67718 0.0
H344 H 0.81295 0.9984 0.64876 0.0
H345 H 0.48644 1.00226 0.70466 0.0
H346 H 0.55248 0.91735 0.72622 0.0
H347 H 0.69579 0.90283 0.72176 0.0
H348 H 0.77484 0.97348 0.69578 0.0
C349 C 0.8114 1.05764 0.66335 0.0
C350 C 0.72432 0.07335 0.66856 0.0
C351 C 0.67616 1.03126 0.68336 0.0
C352 C 0.59164 1.03944 0.68584 0.0
C353 C 0.54903 0.9977 0.70166 0.0
C354 C 0.58642 0.94886 0.71426 0.0
C355 C 0.66719 0.94065 0.71173 0.0
C356 C 0.71176 0.98128 0.69661 0.0
H357 H 0.39136 0.99473 0.65131 0.0
C358 C 0.39 1.05362 0.66637 0.0
H359 H 0.46447 0.16666 0.69253 0.0
H360 H 0.78973 0.15939 0.6368 0.0
H361 H 0.72294 0.24246 0.61434 0.0
H362 H 0.57947 0.25678 0.6186 0.0
H363 H 0.50093 0.18773 0.64523 0.0
C364 C 0.46547 0.10647 0.67891 0.0
C365 C 0.55205 0.08956 0.67331 0.0
C366 C 0.60001 0.13101 0.65821 0.0
C367 C 0.68453 0.12286 0.65578 0.0
C368 C 0.727 0.16388 0.63969 0.0
C369 C 0.68924 0.21168 0.62659 0.0
C370 C 0.60838 0.21978 0.62901 0.0
C371 C 0.56411 0.18011 0.64453 0.0
H372 H 0.54568 0.85131 0.01829 0.0
C373 C 0.60873 0.8628 0.01446 0.0
H374 H 0.71821 0.81846 0.0099 0.0
H375 H 0.47845 0.59714 0.06583 0.0
H376 H 0.56293 0.6843 0.11675 0.0
H377 H 0.67469 0.79451 0.12107 0.0
H378 H 0.70057 0.8193 0.07429 0.0
C379 C 0.65831 0.81297 0.01669 0.0
C380 C 0.61599 0.73461 0.01413 0.0
C381 C 0.60316 0.72072 0.0414 0.0
C382 C 0.54165 0.65558 0.03874 0.0
C383 C 0.52691 0.64431 0.06647 0.0
C384 C 0.5745 0.69423 0.09582 0.0
C385 C 0.63711 0.7565 0.09826 0.0
C386 C 0.65107 0.77035 0.0714 0.0
H387 H 0.56577 0.48425 0.00387 0.0
C388 C 0.50264 0.47326 0.00767 0.0
H389 H 0.39433 0.5192 0.0129 0.0
H390 H 0.63516 0.73957 0.95692 0.0
H391 H 0.55034 0.65276 0.90601 0.0
H392 H 0.4382 0.54288 0.90171 0.0
H393 H 0.41236 0.51799 0.94846 0.0
C394 C 0.45411 0.52422 0.006 0.0
C395 C 0.49724 0.60237 0.00861 0.0
C396 C 0.51011 0.61627 0.98135 0.0
C397 C 0.57174 0.68128 0.98401 0.0
C398 C 0.58655 0.69253 0.95628 0.0
C399 C 0.53878 0.64281 0.92694 0.0
C400 C 0.47596 0.58071 0.92451 0.0
C401 C 0.46201 0.56682 0.95136 0.0
H402 H 0.88621 0.5877 0.34911 0.0
C403 C 0.92037 0.54277 0.35079 0.0
H404 H 1.02782 0.49889 0.3407 0.0
H405 H 1.05089 0.83564 0.3163 0.0
H406 H 0.97635 0.75637 0.26288 0.0
H407 H 0.93356 0.61207 0.24672 0.0
H408 H 0.96289 0.54815 0.28446 0.0
C409 C 0.99203 0.54331 0.34034 0.0
C410 C 1.0432 0.62111 0.34578 0.0
C411 C 1.02799 0.65635 0.32341 0.0
C412 C 0.05808 0.73803 0.33208 0.0
C413 C 1.0358 0.77315 0.31001 0.0
C414 C 0.99154 0.72817 0.27953 0.0
C415 C 0.96689 0.64715 0.27052 0.0
C416 C 0.98367 0.61134 0.29231 0.0
H417 H 0.26725 0.81733 0.35998 0.0
C418 C 0.23266 0.86166 0.35785 0.0
H419 H 0.12428 0.90465 0.36715 0.0
H420 H 0.10278 0.5678 0.39154 0.0
H421 H 0.1779 0.64674 0.44494 0.0
H422 H 0.22048 0.79107 0.46124 0.0
H423 H 0.19051 0.8553 0.42363 0.0
C424 C 0.16039 0.86066 0.36786 0.0
C425 C 0.10963 0.78259 0.36233 0.0
C426 C 0.12508 0.74725 0.38466 0.0
C427 C 0.09505 0.66557 0.37597 0.0
C428 C 0.11776 0.63028 0.39792 0.0
C429 C 0.16236 0.67508 0.42837 0.0
C430 C 0.1869 0.75612 0.43745 0.0
C431 C 0.16972 0.7921 0.41574 0.0
H432 H 0.99736 0.27773 0.26709 0.0
C433 C 1.04399 0.24513 0.27171 0.0
H434 H 0.13295 0.18229 0.25467 0.0
H435 H 0.98403 0.06389 0.10986 0.0
H436 H 0.99085 0.94398 0.11904 0.0
H437 H 1.03444 0.94478 0.17272 0.0
H438 H 0.0693 0.06642 0.21742 0.0
C439 C 0.08596 0.21394 0.24942 0.0
C440 C 0.06589 0.2145 0.2166 0.0
C441 C 1.04815 0.14242 0.19044 0.0
C442 C 1.02549 0.14146 0.15924 0.0
C443 C 1.00434 0.06848 0.13388 0.0
C444 C 1.00762 0.99871 0.13885 0.0
C445 C 1.0317 0.9994 0.16904 0.0
C446 C 1.05146 0.07005 0.19459 0.0
H447 H 0.11708 0.18319 0.11221 0.0
C448 C 0.05965 0.19588 0.10244 0.0
H449 H 0.9466 0.22675 0.11253 0.0
H450 H 0.11474 0.36506 0.25987 0.0
H451 H 0.10692 0.48493 0.25015 0.0
H452 H 0.05977 0.48183 0.19645 0.0
H453 H 1.02128 0.35835 0.15202 0.0
C454 C 1.00412 0.21151 0.12081 0.0
C455 C 1.02284 0.21236 0.1538 0.0
C456 C 1.04165 0.28438 0.17977 0.0
C457 C 0.06525 0.2858 0.21104 0.0
C458 C 0.09079 0.35959 0.236 0.0
C459 C 0.088 0.42922 0.23067 0.0
C460 C 0.06174 0.42748 0.20042 0.0
C461 C 1.03959 0.35619 0.17515 0.0
H462 H 1.05086 0.19103 0.44763 0.0
C463 C 0.08983 0.15867 0.43365 0.0
H464 H 0.17698 0.08572 0.43316 0.0
H465 H 0.19653 0.24197 0.58499 0.0
H466 H 0.31443 0.33168 0.58192 0.0
H467 H 0.35062 0.3193 0.5311 0.0
H468 H 0.26478 0.22005 0.48251 0.0
C469 C 0.1349 0.11666 0.44577 0.0
C470 C 0.12639 0.11194 0.47696 0.0
C471 C 0.17913 0.16753 0.50512 0.0
C472 C 0.1629 0.17014 0.53481 0.0
C473 C 0.21058 0.23251 0.56215 0.0
C474 C 0.27759 0.28543 0.56067 0.0
C475 C 0.29746 0.27886 0.53198 0.0
C476 C 0.248 0.2217 0.50437 0.0
H477 H 0.21267 0.11011 0.58482 0.0
C478 C 0.14985 0.10568 0.58908 0.0
H479 H 1.02457 0.10531 0.57246 0.0
H480 H 1.01785 0.99439 0.42794 0.0
H481 H 0.9027 0.90108 0.43083 0.0
H482 H 0.8763 0.90261 0.48197 0.0
H483 H 0.96528 0.99616 0.53042 0.0
C484 C 0.08672 0.10826 0.56757 0.0
C485 C 0.0986 0.11226 0.53652 0.0
C486 C 1.04599 1.05645 0.50827 0.0
C487 C 0.06023 1.0562 0.47861 0.0
C488 C 1.00791 0.99882 0.45092 0.0
C489 C 0.9421 0.94448 0.45227 0.0
C490 C 0.92746 0.94516 0.48107 0.0
C491 C 0.97905 0.99965 0.50879 0.0
H492 H 0.0898 0.13331 0.76513 0.0
C493 C 0.11025 0.0793 0.75525 0.0
H494 H 0.14257 0.98105 0.76341 0.0
H495 H 0.24895 0.12795 0.91065 0.0
H496 H 0.37545 0.09335 0.89558 0.0
H497 H 0.38429 1.04607 0.83996 0.0
H498 H 0.26658 1.03215 0.79905 0.0
C499 C 0.11961 1.03428 0.7727 0.0
C500 C 0.11264 1.06255 0.80662 0.0
C501 C 0.18257 0.07091 0.83049 0.0
C502 C 0.17826 0.09976 0.86278 0.0
C503 C 0.24888 0.10681 0.88587 0.0
C504 C 0.32205 0.08727 0.87757 0.0
C505 C 0.32694 1.06056 0.84625 0.0
C506 C 0.25846 1.05249 0.82293 0.0
H507 H 1.0265 1.04619 0.9033 0.0
C508 C 0.06171 0.10453 0.91852 0.0
H509 H 0.13728 0.20952 0.92049 0.0
H510 H 0.96261 1.04633 0.76786 0.0
H511 H 0.84224 0.09466 0.78352 0.0
H512 H 0.84156 0.15838 0.83937 0.0
H513 H 0.96028 0.17053 0.88017 0.0
C514 C 0.10145 0.15111 0.90567 0.0
C515 C 0.10477 0.12164 0.87157 0.0
C516 C 1.03596 0.11626 0.84794 0.0
C517 C 1.03871 0.08437 0.81551 0.0
C518 C 0.96639 0.07466 0.79268 0.0
C519 C 0.89631 0.10128 0.80136 0.0
C520 C 0.89572 0.13662 0.83286 0.0
C521 C 0.96408 0.14322 0.85599 0.0
loop_
_geom_bond_atom_site_label_1
_geom_bond_atom_site_label_2
_geom_bond_distance
_geom_bond_site_symmetry_2
_ccdc_geom_bond_type
Eu0 N29 2.600 . S
Eu0 N35 2.562 1_556 S
Eu0 O44 2.462 1_546 S
Eu0 O45 2.373 1_556 S
Eu0 O47 2.432 1_545 S
Eu0 O48 2.291 1_556 S
Eu0 O52 2.341 1_545 S
Eu0 O55 2.372 . S
Eu0 C64 2.787 1_545 S
C1 N2 1.365 . S
C1 C4 1.405 . S
C1 C8 1.448 . S
N2 C1 1.365 . S
N2 C5 1.319 . S
N2 Eu11 2.600 . S
C3 C5 1.397 . S
C3 C6 1.367 . S
C3 H23 0.931 . S
C4 C1 1.405 . S
C4 C6 1.403 . S
C4 C10 1.439 . S
C5 N2 1.319 . S
C5 C3 1.397 . S
C5 H16 0.930 . S
C6 C3 1.367 . S
C6 C4 1.403 . S
C6 H27 0.929 . S
C7 C8 1.430 . S
C7 C9 1.387 . S
C7 C13 1.404 1_554 S
C8 C1 1.448 . S
C8 C7 1.430 . S
C8 N12 1.351 . S
C9 C7 1.387 . S
C9 C10 1.374 . S
C9 H24 0.931 1_545 S
C10 C4 1.439 . S
C10 C9 1.374 . S
C10 H25 0.931 . S
Eu11 N2 2.600 . S
Eu11 N12 2.562 . S
Eu11 O46 2.335 . S
Eu11 O49 2.372 . S
Eu11 O50 2.462 . S
Eu11 O51 2.373 . S
Eu11 O53 2.432 . S
Eu11 O54 2.291 1_554 S
Eu11 C75 2.787 . S
N12 C8 1.351 . S
N12 Eu11 2.562 . S
N12 C14 1.325 1_554 S
C13 C7 1.404 1_556 S
C13 C15 1.366 . S
C13 H21 0.930 1_545 S
C14 N12 1.325 1_556 S
C14 C15 1.416 . S
C14 H20 0.929 . S
C15 C13 1.366 . S
C15 C14 1.416 . S
C15 H17 0.930 . S
H16 C5 0.930 . S
H17 C15 0.930 . S
H18 C33 0.930 . S
H19 C40 0.930 . S
H20 C14 0.929 . S
H21 C13 0.930 1_565 S
H22 C36 0.929 . S
H23 C3 0.931 . S
H24 C9 0.931 1_565 S
H25 C10 0.931 . S
H26 C31 0.931 . S
H27 C6 0.929 . S
H28 C39 0.930 . S
N29 Eu0 2.600 . S
N29 C30 1.365 . S
N29 C33 1.319 . S
C30 N29 1.365 . S
C30 C32 1.405 . S
C30 C38 1.448 . S
C31 H26 0.931 . S
C31 C33 1.397 . S
C31 C34 1.367 . S
C32 C30 1.405 . S
C32 C34 1.403 . S
C32 C65 1.439 . S
C33 H18 0.930 . S
C33 N29 1.319 . S
C33 C31 1.397 . S
C34 C31 1.367 . S
C34 C32 1.403 . S
C34 H41 0.929 . S
N35 Eu0 2.562 1_554 S
N35 C36 1.325 . S
N35 C38 1.351 1_554 S
C36 H22 0.929 . S
C36 N35 1.325 . S
C36 C40 1.416 . S
C37 C38 1.430 1_554 S
C37 C39 1.404 . S
C37 C66 1.387 1_554 S
C38 C30 1.448 . S
C38 N35 1.351 1_556 S
C38 C37 1.430 1_556 S
C39 H28 0.930 . S
C39 C37 1.404 . S
C39 C40 1.366 . S
C40 H19 0.930 . S
C40 C36 1.416 . S
C40 C39 1.366 . S
H41 C34 0.929 . S
H42 C65 0.931 . S
H43 C66 0.931 . S
O44 Eu0 2.462 1_564 S
O44 C64 1.252 1_554 S
O45 Eu0 2.373 1_554 S
O45 C56 1.249 . S
O46 Eu11 2.335 . S
O46 C56 1.264 1_455 S
O47 Eu0 2.432 1_565 S
O47 C64 1.268 . S
O48 Eu0 2.291 1_554 S
O48 C63 1.255 . S
O49 Eu11 2.372 . S
O49 C63 1.257 1_455 S
O50 Eu11 2.462 . S
O50 C75 1.252 . S
O51 Eu11 2.373 . S
O51 C67 1.249 1_545 S
O52 Eu0 2.341 1_565 S
O52 C67 1.259 1_656 S
O53 Eu11 2.432 . S
O53 C75 1.268 . S
O54 Eu11 2.291 1_556 S
O54 C74 1.255 . S
O55 Eu0 2.372 . S
O55 C74 1.257 1_655 S
C56 O45 1.249 . S
C56 O46 1.264 1_655 S
C57 C60 1.382 . S
C57 C62 1.390 1_556 S
C57 C64 1.506 . S
C58 C59 1.398 1_554 S
C58 C62 1.392 . S
C59 C58 1.398 1_556 S
C59 C61 1.372 . S
C59 H76 0.931 . S
C60 C57 1.382 . S
C60 C61 1.390 . S
C60 H77 0.931 . S
C61 C59 1.372 . S
C61 C60 1.390 . S
C61 H78 0.929 . S
C62 C57 1.390 1_554 S
C62 C58 1.392 . S
C62 H79 0.930 . S
C63 O48 1.255 . S
C63 O49 1.257 1_655 S
C64 Eu0 2.787 1_565 S
C64 O44 1.252 1_556 S
C64 O47 1.268 . S
C64 C57 1.506 . S
C65 C32 1.439 . S
C65 H42 0.931 . S
C65 C66 1.374 . S
C66 C37 1.387 1_556 S
C66 H43 0.931 . S
C66 C65 1.374 . S
C67 O51 1.249 1_565 S
C67 O52 1.259 1_454 S
C68 C71 1.382 . S
C68 C72 1.390 . S
C68 C75 1.506 . S
C69 C70 1.398 . S
C69 C72 1.392 . S
C70 C69 1.398 . S
C70 C73 1.372 . S
C70 H80 0.931 . S
C71 C68 1.382 . S
C71 C73 1.390 . S
C71 H81 0.931 . S
C72 C68 1.390 . S
C72 C69 1.392 . S
C72 H82 0.930 1_554 S
C73 C70 1.372 . S
C73 C71 1.390 . S
C73 H83 0.929 . S
C74 O54 1.255 . S
C74 O55 1.257 1_455 S
C75 Eu11 2.787 . S
C75 O50 1.252 . S
C75 O53 1.268 . S
C75 C68 1.506 . S
H76 C59 0.931 . S
H77 C60 0.931 . S
H78 C61 0.929 . S
H79 C62 0.930 . S
H80 C70 0.931 . S
H81 C71 0.931 . S
H82 C72 0.930 1_556 S
H83 C73 0.929 . S
Eu84 N113 2.600 1_545 S
Eu84 N119 2.562 1_545 S
Eu84 O128 2.462 1_645 S
Eu84 O129 2.373 . S
Eu84 O131 2.432 1_645 S
Eu84 O132 2.291 . S
Eu84 O136 2.335 1_655 S
Eu84 O139 2.372 1_655 S
Eu84 C148 2.787 1_645 S
C85 N86 1.365 . S
C85 C88 1.405 . S
C85 C92 1.448 . S
N86 C85 1.365 . S
N86 C89 1.319 . S
N86 Eu95 2.600 . S
C87 C89 1.397 . S
C87 C90 1.367 . S
C87 H107 0.931 . S
C88 C85 1.405 . S
C88 C90 1.403 . S
C88 C94 1.439 . S
C89 N86 1.319 . S
C89 C87 1.397 . S
C89 H100 0.930 . S
C90 C87 1.367 . S
C90 C88 1.403 . S
C90 H111 0.929 . S
C91 C92 1.430 . S
C91 C93 1.387 . S
C91 C97 1.404 . S
C92 C85 1.448 . S
C92 C91 1.430 . S
C92 N96 1.351 . S
C93 C91 1.387 . S
C93 C94 1.374 . S
C93 H108 0.931 . S
C94 C88 1.439 . S
C94 C93 1.374 . S
C94 H109 0.931 . S
Eu95 N86 2.600 . S
Eu95 N96 2.562 . S
Eu95 O130 2.335 1_455 S
Eu95 O133 2.372 . S
Eu95 O134 2.462 . S
Eu95 O135 2.373 . S
Eu95 O137 2.432 . S
Eu95 O138 2.291 . S
Eu95 C159 2.787 . S
N96 C92 1.351 . S
N96 Eu95 2.562 . S
N96 C98 1.325 . S
C97 C91 1.404 . S
C97 C99 1.366 . S
C97 H105 0.930 . S
C98 N96 1.325 . S
C98 C99 1.416 . S
C98 H104 0.929 . S
C99 C97 1.366 . S
C99 C98 1.416 . S
C99 H101 0.930 . S
H100 C89 0.930 . S
H101 C99 0.930 . S
H102 C117 0.930 . S
H103 C124 0.930 . S
H104 C98 0.929 . S
H105 C97 0.930 . S
H106 C120 0.929 . S
H107 C87 0.931 . S
H108 C93 0.931 . S
H109 C94 0.931 . S
H110 C115 0.931 . S
H111 C90 0.929 . S
H112 C123 0.930 . S
N113 Eu84 2.600 1_565 S
N113 C114 1.365 . S
N113 C117 1.319 . S
C114 N113 1.365 . S
C114 C116 1.405 . S
C114 C122 1.448 . S
C115 H110 0.931 . S
C115 C117 1.397 . S
C115 C118 1.367 . S
C116 C114 1.405 . S
C116 C118 1.403 . S
C116 C149 1.439 . S
C117 H102 0.930 . S
C117 N113 1.319 . S
C117 C115 1.397 . S
C118 C115 1.367 . S
C118 C116 1.403 . S
C118 H125 0.929 . S
N119 Eu84 2.562 1_565 S
N119 C120 1.325 . S
N119 C122 1.351 . S
C120 H106 0.929 . S
C120 N119 1.325 . S
C120 C124 1.416 . S
C121 C122 1.430 . S
C121 C123 1.404 . S
C121 C150 1.387 . S
C122 C114 1.448 . S
C122 N119 1.351 . S
C122 C121 1.430 . S
C123 H112 0.930 . S
C123 C121 1.404 . S
C123 C124 1.366 . S
C124 H103 0.930 . S
C124 C120 1.416 . S
C124 C123 1.366 . S
H125 C118 0.929 . S
H126 C149 0.931 . S
H127 C150 0.931 . S
O128 Eu84 2.462 1_465 S
O128 C148 1.252 . S
O129 Eu84 2.373 . S
O129 C140 1.249 . S
O130 Eu95 2.335 1_655 S
O130 C140 1.264 . S
O131 Eu84 2.432 1_465 S
O131 C148 1.268 . S
O132 Eu84 2.291 . S
O132 C147 1.255 1_655 S
O133 Eu95 2.372 . S
O133 C147 1.257 . S
O134 Eu95 2.462 . S
O134 C159 1.252 . S
O135 Eu95 2.373 . S
O135 C151 1.249 . S
O136 Eu84 2.335 1_455 S
O136 C151 1.264 . S
O137 Eu95 2.432 . S
O137 C159 1.268 . S
O138 Eu95 2.291 . S
O138 C158 1.255 . S
O139 Eu84 2.372 1_455 S
O139 C158 1.257 . S
C140 O129 1.249 . S
C140 O130 1.264 . S
C141 C144 1.382 . S
C141 C146 1.390 . S
C141 C148 1.506 . S
C142 C143 1.398 . S
C142 C146 1.392 . S
C143 C142 1.398 . S
C143 C145 1.372 . S
C143 H160 0.931 . S
C144 C141 1.382 . S
C144 C145 1.390 . S
C144 H161 0.931 . S
C145 C143 1.372 . S
C145 C144 1.390 . S
C145 H162 0.929 . S
C146 C141 1.390 . S
C146 C142 1.392 . S
C146 H163 0.930 . S
C147 O132 1.255 1_455 S
C147 O133 1.257 . S
C148 Eu84 2.787 1_465 S
C148 O128 1.252 . S
C148 O131 1.268 . S
C148 C141 1.506 . S
C149 C116 1.439 . S
C149 H126 0.931 . S
C149 C150 1.374 . S
C150 C121 1.387 . S
C150 H127 0.931 . S
C150 C149 1.374 . S
C151 O135 1.249 . S
C151 O136 1.264 . S
C152 C155 1.382 . S
C152 C156 1.390 1_455 S
C152 C159 1.506 . S
C153 C154 1.398 . S
C153 C156 1.392 . S
C154 C153 1.398 . S
C154 C157 1.372 1_655 S
C154 H164 0.931 . S
C155 C152 1.382 . S
C155 C157 1.390 . S
C155 H165 0.931 . S
C156 C152 1.390 1_655 S
C156 C153 1.392 . S
C156 H166 0.930 . S
C157 C154 1.372 1_455 S
C157 C155 1.390 . S
C157 H167 0.929 . S
C158 O138 1.255 . S
C158 O139 1.257 . S
C159 Eu95 2.787 . S
C159 O134 1.252 . S
C159 O137 1.268 . S
C159 C152 1.506 . S
H160 C143 0.931 . S
H161 C144 0.931 . S
H162 C145 0.929 . S
H163 C146 0.930 . S
H164 C154 0.931 . S
H165 C155 0.931 . S
H166 C156 0.930 . S
H167 C157 0.929 . S
Eu168 N197 2.600 . S
Eu168 N203 2.562 . S
Eu168 O212 2.462 . S
Eu168 O213 2.373 1_455 S
Eu168 O215 2.432 . S
Eu168 O216 2.291 . S
Eu168 O220 2.335 . S
Eu168 O223 2.372 . S
Eu168 C232 2.787 . S
C169 N170 1.365 . S
C169 C172 1.405 . S
C169 C176 1.448 . S
N170 C169 1.365 . S
N170 C173 1.319 . S
N170 Eu179 2.600 . S
C171 C173 1.397 . S
C171 C174 1.367 . S
C171 H191 0.931 . S
C172 C169 1.405 . S
C172 C174 1.403 . S
C172 C178 1.439 . S
C173 N170 1.319 . S
C173 C171 1.397 . S
C173 H184 0.930 . S
C174 C171 1.367 . S
C174 C172 1.403 . S
C174 H195 0.929 . S
C175 C176 1.430 . S
C175 C177 1.387 . S
C175 C181 1.404 . S
C176 C169 1.448 . S
C176 C175 1.430 . S
C176 N180 1.351 . S
C177 C175 1.387 . S
C177 C178 1.374 . S
C177 H192 0.931 . S
C178 C172 1.439 . S
C178 C177 1.374 . S
C178 H193 0.931 . S
Eu179 N170 2.600 . S
Eu179 N180 2.562 . S
Eu179 O214 2.335 1_455 S
Eu179 O217 2.372 . S
Eu179 O218 2.462 1_455 S
Eu179 O219 2.373 . S
Eu179 O221 2.432 1_455 S
Eu179 O222 2.291 . S
Eu179 C243 2.787 1_455 S
N180 C176 1.351 . S
N180 Eu179 2.562 . S
N180 C182 1.325 . S
C181 C175 1.404 . S
C181 C183 1.366 . S
C181 H189 0.930 . S
C182 N180 1.325 . S
C182 C183 1.416 . S
C182 H188 0.929 . S
C183 C181 1.366 . S
C183 C182 1.416 . S
C183 H185 0.930 . S
H184 C173 0.930 . S
H185 C183 0.930 . S
H186 C201 0.930 . S
H187 C208 0.930 . S
H188 C182 0.929 . S
H189 C181 0.930 . S
H190 C204 0.929 . S
H191 C171 0.931 . S
H192 C177 0.931 . S
H193 C178 0.931 . S
H194 C199 0.931 . S
H195 C174 0.929 . S
H196 C207 0.930 . S
N197 Eu168 2.600 . S
N197 C198 1.365 . S
N197 C201 1.319 . S
C198 N197 1.365 . S
C198 C200 1.405 . S
C198 C206 1.448 . S
C199 H194 0.931 . S
C199 C201 1.397 . S
C199 C202 1.367 . S
C200 C198 1.405 . S
C200 C202 1.403 . S
C200 C233 1.439 1_455 S
C201 H186 0.930 . S
C201 N197 1.319 . S
C201 C199 1.397 . S
C202 C199 1.367 . S
C202 C200 1.403 . S
C202 H209 0.929 . S
N203 Eu168 2.562 . S
N203 C204 1.325 . S
N203 C206 1.351 . S
C204 H190 0.929 . S
C204 N203 1.325 . S
C204 C208 1.416 1_455 S
C205 C206 1.430 1_655 S
C205 C207 1.404 . S
C205 C234 1.387 . S
C206 C198 1.448 . S
C206 N203 1.351 . S
C206 C205 1.430 1_455 S
C207 H196 0.930 . S
C207 C205 1.404 . S
C207 C208 1.366 . S
C208 H187 0.930 . S
C208 C204 1.416 1_655 S
C208 C207 1.366 . S
H209 C202 0.929 . S
H210 C233 0.931 . S
H211 C234 0.931 . S
O212 Eu168 2.462 . S
O212 C232 1.252 . S
O213 Eu168 2.373 1_655 S
O213 C224 1.249 . S
O214 Eu179 2.335 1_655 S
O214 C224 1.264 1_565 S
O215 Eu168 2.432 . S
O215 C232 1.268 . S
O216 Eu168 2.291 . S
O216 C231 1.255 . S
O217 Eu179 2.372 . S
O217 C231 1.257 1_565 S
O218 Eu179 2.462 1_655 S
O218 C243 1.252 . S
O219 Eu179 2.373 . S
O219 C235 1.249 1_565 S
O220 Eu168 2.335 . S
O220 C235 1.264 . S
O221 Eu179 2.432 1_655 S
O221 C243 1.268 . S
O222 Eu179 2.291 . S
O222 C242 1.255 1_565 S
O223 Eu168 2.372 . S
O223 C242 1.257 . S
C224 O213 1.249 . S
C224 O214 1.264 1_545 S
C225 C228 1.382 . S
C225 C230 1.390 . S
C225 C232 1.506 . S
C226 C227 1.398 . S
C226 C230 1.392 . S
C227 C226 1.398 . S
C227 C229 1.372 . S
C227 H244 0.931 . S
C228 C225 1.382 . S
C228 C229 1.390 . S
C228 H245 0.931 . S
C229 C227 1.372 . S
C229 C228 1.390 . S
C229 H246 0.929 . S
C230 C225 1.390 . S
C230 C226 1.392 . S
C230 H247 0.930 . S
C231 O216 1.255 . S
C231 O217 1.257 1_545 S
C232 Eu168 2.787 . S
C232 O212 1.252 . S
C232 O215 1.268 . S
C232 C225 1.506 . S
C233 C200 1.439 1_655 S
C233 H210 0.931 . S
C233 C234 1.374 . S
C234 C205 1.387 . S
C234 H211 0.931 . S
C234 C233 1.374 . S
C235 O219 1.249 1_545 S
C235 O220 1.264 . S
C236 C239 1.382 . S
C236 C240 1.390 . S
C236 C243 1.506 . S
C237 C238 1.398 . S
C237 C240 1.392 . S
C238 C237 1.398 . S
C238 C241 1.372 . S
C238 H248 0.931 . S
C239 C236 1.382 . S
C239 C241 1.390 . S
C239 H249 0.931 . S
C240 C236 1.390 . S
C240 C237 1.392 . S
C240 H250 0.930 . S
C241 C238 1.372 . S
C241 C239 1.390 . S
C241 H251 0.929 . S
C242 O222 1.255 1_545 S
C242 O223 1.257 . S
C243 Eu179 2.787 1_655 S
C243 O218 1.252 . S
C243 O221 1.268 . S
C243 C236 1.506 . S
H244 C227 0.931 . S
H245 C228 0.931 . S
H246 C229 0.929 . S
H247 C230 0.930 . S
H248 C238 0.931 . S
H249 C239 0.931 . S
H250 C240 0.930 . S
H251 C241 0.929 . S
H252 C253 0.953 . S
C253 H252 0.953 . S
C253 C259 1.263 1_455 S
H254 C259 0.950 . S
H255 C263 0.949 . S
H256 C264 0.950 . S
H257 C265 0.951 . S
H258 C266 0.951 . S
C259 C253 1.263 1_655 S
C259 H254 0.950 . S
C259 C260 1.478 . S
C260 C259 1.478 . S
C260 C261 1.397 . S
C260 C277 1.394 1_654 S
C261 C260 1.397 . S
C261 C262 1.438 1_655 S
C261 C266 1.429 . S
C262 C261 1.438 1_455 S
C262 C263 1.428 . S
C262 C275 1.394 . S
C263 H255 0.949 . S
C263 C262 1.428 . S
C263 C264 1.345 1_455 S
C264 H256 0.950 . S
C264 C263 1.345 1_655 S
C264 C265 1.424 . S
C265 H257 0.951 . S
C265 C264 1.424 . S
C265 C266 1.347 . S
C266 H258 0.951 . S
C266 C261 1.429 . S
C266 C265 1.347 . S
H267 C268 0.951 1_655 S
C268 H267 0.951 1_455 S
C268 C274 1.265 . S
H269 C274 0.950 . S
H270 C278 0.949 1_655 S
H271 C279 0.950 . S
H272 C280 0.951 . S
H273 C281 0.951 . S
C274 C268 1.265 . S
C274 H269 0.950 . S
C274 C275 1.478 . S
C275 C262 1.394 . S
C275 C274 1.478 . S
C275 C276 1.397 1_554 S
C276 C275 1.397 1_556 S
C276 C277 1.438 . S
C276 C281 1.429 . S
C277 C260 1.394 1_456 S
C277 C276 1.438 . S
C277 C278 1.428 . S
C278 H270 0.949 1_455 S
C278 C277 1.428 . S
C278 C279 1.345 . S
C279 H271 0.950 . S
C279 C278 1.345 . S
C279 C280 1.424 . S
C280 H272 0.951 . S
C280 C279 1.424 . S
C280 C281 1.347 . S
C281 H273 0.951 . S
C281 C276 1.429 . S
C281 C280 1.347 . S
H282 C283 0.951 . S
C283 H282 0.951 . S
C283 C289 1.265 . S
H284 C289 0.950 . S
H285 C293 0.949 . S
H286 C294 0.950 . S
H287 C295 0.951 . S
H288 C296 0.951 . S
C289 C283 1.265 . S
C289 H284 0.950 . S
C289 C290 1.478 . S
C290 C289 1.478 . S
C290 C291 1.397 . S
C290 C307 1.394 . S
C291 C290 1.397 . S
C291 C292 1.438 . S
C291 C296 1.429 . S
C292 C291 1.438 . S
C292 C293 1.428 . S
C292 C305 1.394 . S
C293 H285 0.949 . S
C293 C292 1.428 . S
C293 C294 1.345 . S
C294 H286 0.950 . S
C294 C293 1.345 . S
C294 C295 1.424 . S
C295 H287 0.951 . S
C295 C294 1.424 . S
C295 C296 1.347 . S
C296 H288 0.951 . S
C296 C291 1.429 . S
C296 C295 1.347 . S
H297 C298 0.951 . S
C298 H297 0.951 . S
C298 C304 1.265 . S
H299 C304 0.950 . S
H300 C308 0.949 . S
H301 C309 0.950 . S
H302 C310 0.951 . S
H303 C311 0.951 . S
C304 C298 1.265 . S
C304 H299 0.950 . S
C304 C305 1.478 . S
C305 C292 1.394 . S
C305 C304 1.478 . S
C305 C306 1.397 . S
C306 C305 1.397 . S
C306 C307 1.438 . S
C306 C311 1.429 . S
C307 C290 1.394 . S
C307 C306 1.438 . S
C307 C308 1.428 . S
C308 H300 0.949 . S
C308 C307 1.428 . S
C308 C309 1.345 1_545 S
C309 H301 0.950 . S
C309 C308 1.345 1_565 S
C309 C310 1.424 . S
C310 H302 0.951 . S
C310 C309 1.424 . S
C310 C311 1.347 1_565 S
C311 H303 0.951 . S
C311 C306 1.429 . S
C311 C310 1.347 1_545 S
H312 C313 0.951 . S
C313 H312 0.951 . S
C313 C319 1.265 . S
H314 C319 0.950 . S
H315 C323 0.949 . S
H316 C324 0.950 . S
H317 C325 0.951 . S
H318 C326 0.951 . S
C319 C313 1.265 . S
C319 H314 0.950 . S
C319 C320 1.478 . S
C320 C319 1.478 . S
C320 C321 1.397 . S
C320 C337 1.394 . S
C321 C320 1.397 . S
C321 C322 1.438 . S
C321 C326 1.429 . S
C322 C321 1.438 . S
C322 C323 1.428 . S
C322 C335 1.394 . S
C323 H315 0.949 . S
C323 C322 1.428 . S
C323 C324 1.345 . S
C324 H316 0.950 . S
C324 C323 1.345 . S
C324 C325 1.424 . S
C325 H317 0.951 . S
C325 C324 1.424 . S
C325 C326 1.347 . S
C326 H318 0.951 . S
C326 C321 1.429 . S
C326 C325 1.347 . S
H327 C328 0.951 . S
C328 H327 0.951 . S
C328 C334 1.265 . S
H329 C334 0.950 . S
H330 C338 0.949 . S
H331 C339 0.950 . S
H332 C340 0.951 . S
H333 C341 0.951 . S
C334 C328 1.265 . S
C334 H329 0.950 . S
C334 C335 1.478 . S
C335 C322 1.394 . S
C335 C334 1.478 . S
C335 C336 1.397 . S
C336 C335 1.397 . S
C336 C337 1.438 . S
C336 C341 1.429 . S
C337 C320 1.394 . S
C337 C336 1.438 . S
C337 C338 1.428 . S
C338 H330 0.949 . S
C338 C337 1.428 . S
C338 C339 1.345 . S
C339 H331 0.950 . S
C339 C338 1.345 . S
C339 C340 1.424 . S
C340 H332 0.951 . S
C340 C339 1.424 . S
C340 C341 1.347 . S
C341 H333 0.951 . S
C341 C336 1.429 . S
C341 C340 1.347 . S
H342 C343 0.951 . S
C343 H342 0.951 . S
C343 C349 1.265 1_545 S
H344 C349 0.950 . S
H345 C353 0.949 . S
H346 C354 0.950 . S
H347 C355 0.951 . S
H348 C356 0.951 . S
C349 C343 1.265 1_565 S
C349 H344 0.950 . S
C349 C350 1.481 . S
C350 C349 1.481 . S
C350 C351 1.400 . S
C350 C367 1.388 1_565 S
C351 C350 1.400 . S
C351 C352 1.438 . S
C351 C356 1.429 . S
C352 C351 1.438 . S
C352 C353 1.428 . S
C352 C365 1.394 1_565 S
C353 H345 0.949 . S
C353 C352 1.428 . S
C353 C354 1.345 . S
C354 H346 0.950 . S
C354 C353 1.345 . S
C354 C355 1.424 . S
C355 H347 0.951 . S
C355 C354 1.424 . S
C355 C356 1.347 . S
C356 H348 0.951 . S
C356 C351 1.429 . S
C356 C355 1.347 . S
H357 C358 0.935 1_565 S
C358 H357 0.935 1_545 S
C358 C364 1.272 . S
H359 C364 0.950 . S
H360 C368 0.949 . S
H361 C369 0.950 . S
H362 C370 0.951 . S
H363 C371 0.951 . S
C364 C358 1.272 . S
C364 H359 0.950 . S
C364 C365 1.478 . S
C365 C352 1.394 1_545 S
C365 C364 1.478 . S
C365 C366 1.397 . S
C366 C365 1.397 . S
C366 C367 1.438 . S
C366 C371 1.429 . S
C367 C350 1.388 1_545 S
C367 C366 1.438 . S
C367 C368 1.428 . S
C368 H360 0.949 . S
C368 C367 1.428 . S
C368 C369 1.345 . S
C369 H361 0.950 . S
C369 C368 1.345 . S
C369 C370 1.424 . S
C370 H362 0.951 . S
C370 C369 1.424 . S
C370 C371 1.347 . S
C371 H363 0.951 . S
C371 C366 1.429 . S
C371 C370 1.347 . S
H372 C373 0.951 . S
C373 H372 0.951 . S
C373 C379 1.265 . S
H374 C379 0.950 . S
H375 C383 0.949 . S
H376 C384 0.950 . S
H377 C385 0.951 . S
H378 C386 0.951 . S
C379 C373 1.265 . S
C379 H374 0.950 . S
C379 C380 1.478 . S
C380 C379 1.478 . S
C380 C381 1.397 . S
C380 C397 1.394 1_554 S
C381 C380 1.397 . S
C381 C382 1.438 . S
C381 C386 1.429 . S
C382 C381 1.438 . S
C382 C383 1.428 . S
C382 C395 1.394 . S
C383 H375 0.949 . S
C383 C382 1.428 . S
C383 C384 1.345 . S
C384 H376 0.950 . S
C384 C383 1.345 . S
C384 C385 1.424 . S
C385 H377 0.951 . S
C385 C384 1.424 . S
C385 C386 1.347 . S
C386 H378 0.951 . S
C386 C381 1.429 . S
C386 C385 1.347 . S
H387 C388 0.952 . S
C388 H387 0.952 . S
C388 C394 1.258 1_554 S
H389 C394 0.951 . S
H390 C398 0.949 . S
H391 C399 0.950 . S
H392 C400 0.951 . S
H393 C401 0.951 . S
C394 C388 1.258 1_556 S
C394 H389 0.951 . S
C394 C395 1.481 1_556 S
C395 C382 1.394 . S
C395 C394 1.481 1_554 S
C395 C396 1.397 1_554 S
C396 C395 1.397 1_556 S
C396 C397 1.438 . S
C396 C401 1.429 . S
C397 C380 1.394 1_556 S
C397 C396 1.438 . S
C397 C398 1.428 . S
C398 H390 0.949 . S
C398 C397 1.428 . S
C398 C399 1.345 . S
C399 H391 0.950 . S
C399 C398 1.345 . S
C399 C400 1.424 . S
C400 H392 0.951 . S
C400 C399 1.424 . S
C400 C401 1.347 . S
C401 H393 0.951 . S
C401 C396 1.429 . S
C401 C400 1.347 . S
H402 C403 0.951 . S
C403 H402 0.951 . S
C403 C409 1.265 . S
H404 C409 0.950 1_455 S
H405 C413 0.949 . S
H406 C414 0.950 . S
H407 C415 0.951 . S
H408 C416 0.951 . S
C409 C403 1.265 . S
C409 H404 0.950 1_655 S
C409 C410 1.478 1_655 S
C410 C409 1.478 1_455 S
C410 C411 1.397 1_455 S
C410 C427 1.394 . S
C411 C410 1.397 1_655 S
C411 C412 1.438 1_655 S
C411 C416 1.429 . S
C412 C411 1.438 1_455 S
C412 C413 1.428 . S
C412 C425 1.394 . S
C413 H405 0.949 . S
C413 C412 1.428 . S
C413 C414 1.345 1_455 S
C414 H406 0.950 . S
C414 C413 1.345 1_655 S
C414 C415 1.424 . S
C415 H407 0.951 . S
C415 C414 1.424 . S
C415 C416 1.347 . S
C416 H408 0.951 . S
C416 C411 1.429 . S
C416 C415 1.347 . S
H417 C418 0.951 . S
C418 H417 0.951 . S
C418 C424 1.265 . S
H419 C424 0.950 . S
H420 C428 0.949 . S
H421 C429 0.950 . S
H422 C430 0.951 . S
H423 C431 0.951 . S
C424 C418 1.265 . S
C424 H419 0.950 . S
C424 C425 1.478 . S
C425 C412 1.394 . S
C425 C424 1.478 . S
C425 C426 1.397 . S
C426 C425 1.397 . S
C426 C427 1.438 . S
C426 C431 1.429 . S
C427 C410 1.394 . S
C427 C426 1.438 . S
C427 C428 1.428 . S
C428 H420 0.949 . S
C428 C427 1.428 . S
C428 C429 1.345 . S
C429 H421 0.950 . S
C429 C428 1.345 . S
C429 C430 1.424 . S
C430 H422 0.951 . S
C430 C429 1.424 . S
C430 C431 1.347 . S
C431 H423 0.951 . S
C431 C426 1.429 . S
C431 C430 1.347 . S
H432 C433 0.951 1_655 S
C433 H432 0.951 1_455 S
C433 C439 1.265 . S
H434 C439 0.950 . S
H435 C443 0.949 . S
H436 C444 0.950 . S
H437 C445 0.951 . S
H438 C446 0.951 . S
C439 C433 1.265 . S
C439 H434 0.950 . S
C439 C440 1.478 . S
C440 C439 1.478 . S
C440 C441 1.397 . S
C440 C457 1.394 . S
C441 C440 1.397 . S
C441 C442 1.438 1_455 S
C441 C446 1.429 . S
C442 C441 1.438 1_655 S
C442 C443 1.428 . S
C442 C455 1.394 . S
C443 H435 0.949 . S
C443 C442 1.428 . S
C443 C444 1.345 1_545 S
C444 H436 0.950 . S
C444 C443 1.345 1_565 S
C444 C445 1.424 . S
C445 H437 0.951 . S
C445 C444 1.424 . S
C445 C446 1.347 1_665 S
C446 H438 0.951 . S
C446 C441 1.429 . S
C446 C445 1.347 1_445 S
H447 C448 0.951 1_455 S
C448 H447 0.951 1_655 S
C448 C454 1.265 . S
H449 C454 0.950 . S
H450 C458 0.949 . S
H451 C459 0.950 . S
H452 C460 0.951 . S
H453 C461 0.951 . S
C454 C448 1.265 . S
C454 H449 0.950 . S
C454 C455 1.478 . S
C455 C442 1.394 . S
C455 C454 1.478 . S
C455 C456 1.397 . S
C456 C455 1.397 . S
C456 C457 1.438 1_655 S
C456 C461 1.429 . S
C457 C440 1.394 . S
C457 C456 1.438 1_455 S
C457 C458 1.428 . S
C458 H450 0.949 . S
C458 C457 1.428 . S
C458 C459 1.345 . S
C459 H451 0.950 . S
C459 C458 1.345 . S
C459 C460 1.424 . S
C460 H452 0.951 . S
C460 C459 1.424 . S
C460 C461 1.347 1_455 S
C461 H453 0.951 . S
C461 C456 1.429 . S
C461 C460 1.347 1_655 S
H462 C463 0.951 1_655 S
C463 H462 0.951 1_455 S
C463 C469 1.265 . S
H464 C469 0.950 . S
H465 C473 0.949 . S
H466 C474 0.950 . S
H467 C475 0.951 . S
H468 C476 0.951 . S
C469 C463 1.265 . S
C469 H464 0.950 . S
C469 C470 1.478 . S
C470 C469 1.478 . S
C470 C471 1.397 . S
C470 C487 1.394 . S
C471 C470 1.397 . S
C471 C472 1.438 . S
C471 C476 1.429 . S
C472 C471 1.438 . S
C472 C473 1.428 . S
C472 C485 1.394 . S
C473 H465 0.949 . S
C473 C472 1.428 . S
C473 C474 1.345 . S
C474 H466 0.950 . S
C474 C473 1.345 . S
C474 C475 1.424 . S
C475 H467 0.951 . S
C475 C474 1.424 . S
C475 C476 1.347 . S
C476 H468 0.951 . S
C476 C471 1.429 . S
C476 C475 1.347 . S
H477 C478 0.951 . S
C478 H477 0.951 . S
C478 C484 1.265 . S
H479 C484 0.950 1_655 S
H480 C488 0.949 . S
H481 C489 0.950 . S
H482 C490 0.951 . S
H483 C491 0.951 . S
C484 C478 1.265 . S
C484 H479 0.950 1_455 S
C484 C485 1.478 . S
C485 C472 1.394 . S
C485 C484 1.478 . S
C485 C486 1.397 1_455 S
C486 C485 1.397 1_655 S
C486 C487 1.438 1_655 S
C486 C491 1.429 1_545 S
C487 C470 1.394 . S
C487 C486 1.438 1_455 S
C487 C488 1.428 1_445 S
C488 H480 0.949 . S
C488 C487 1.428 1_665 S
C488 C489 1.345 . S
C489 H481 0.950 . S
C489 C488 1.345 . S
C489 C490 1.424 . S
C490 H482 0.951 . S
C490 C489 1.424 . S
C490 C491 1.347 . S
C491 H483 0.951 . S
C491 C486 1.429 1_565 S
C491 C490 1.347 . S
H492 C493 0.951 . S
C493 H492 0.951 . S
C493 C499 1.265 1_545 S
H494 C499 0.950 . S
H495 C503 0.949 . S
H496 C504 0.950 . S
H497 C505 0.955 . S
H498 C506 0.951 1_565 S
C499 C493 1.265 1_565 S
C499 H494 0.950 . S
C499 C500 1.478 1_565 S
C500 C499 1.478 1_545 S
C500 C501 1.397 . S
C500 C517 1.394 1_455 S
C501 C500 1.397 . S
C501 C502 1.438 . S
C501 C506 1.429 . S
C502 C501 1.438 . S
C502 C503 1.428 . S
C502 C515 1.394 . S
C503 H495 0.949 . S
C503 C502 1.428 . S
C503 C504 1.345 . S
C504 H496 0.950 . S
C504 C503 1.345 . S
C504 C505 1.424 . S
C505 H497 0.955 . S
C505 C504 1.424 . S
C505 C506 1.347 . S
C506 H498 0.951 1_545 S
C506 C501 1.429 . S
C506 C505 1.347 . S
H507 C508 0.951 . S
C508 H507 0.951 . S
C508 C514 1.265 . S
H509 C514 0.950 . S
H510 C518 0.949 . S
H511 C519 0.950 . S
H512 C520 0.951 . S
H513 C521 0.951 . S
C514 C508 1.265 . S
C514 H509 0.950 . S
C514 C515 1.478 . S
C515 C502 1.394 . S
C515 C514 1.478 . S
C515 C516 1.397 1_455 S
C516 C515 1.397 1_655 S
C516 C517 1.438 . S
C516 C521 1.429 . S
C517 C500 1.394 1_655 S
C517 C516 1.438 . S
C517 C518 1.428 . S
C518 H510 0.949 . S
C518 C517 1.428 . S
C518 C519 1.345 . S
C519 H511 0.950 . S
C519 C518 1.345 . S
C519 C520 1.424 . S
C520 H512 0.951 . S
C520 C519 1.424 . S
C520 C521 1.347 . S
C521 H513 0.951 . S
C521 C516 1.429 . S
C521 C520 1.347 . S
C253 C56 4.251 1_455 S
C268 C67 4.251 . S
C283 C151 2.587 . S
C298 C140 2.587 . S
C313 C237 0.742 . S
C328 C226 0.742 . S
C343 C224 2.553 . S
C358 C235 2.559 . S
C373 C58 0.785 . S
C388 C69 0.791 . S
C403 C153 1.251 . S
C418 C142 1.251 . S
C433 C158 1.536 . S
C448 C63 1.504 . S
C463 C147 1.577 . S
C478 C231 1.597 . S
C493 C242 1.528 . S
C508 C74 1.541 . S
