# Generated by pormake.
# Topology und, (4)-cn, num edge types: 1
# Building blocks:
#     Node 0, Type 0, BuildingBlock: GALJAG_clean_sbu_0, # of connection points: 4
#     Node 1, Type 0, BuildingBlock: GALJAG_clean_sbu_0, # of connection points: 4
#     Node 2, Type 0, BuildingBlock: GALJAG_clean_sbu_0, # of connection points: 4
#     Node 3, Type 0, BuildingBlock: GALJAG_clean_sbu_0, # of connection points: 4
#     Node 4, Type 0, BuildingBlock: GALJAG_clean_sbu_0, # of connection points: 4
#     Node 5, Type 0, BuildingBlock: GALJAG_clean_sbu_0, # of connection points: 4
#     Node 6, Type 0, BuildingBlock: GALJAG_clean_sbu_0, # of connection points: 4
#     Node 7, Type 0, BuildingBlock: GALJAG_clean_sbu_0, # of connection points: 4
#     Node 8, Type 0, BuildingBlock: GALJAG_clean_sbu_0, # of connection points: 4
#     Node 9, Type 0, BuildingBlock: GALJAG_clean_sbu_0, # of connection points: 4
#     Node 10, Type 0, BuildingBlock: GALJAG_clean_sbu_0, # of connection points: 4
#     Node 11, Type 0, BuildingBlock: GALJAG_clean_sbu_0, # of connection points: 4
#     Node 12, Type 0, BuildingBlock: GALJAG_clean_sbu_0, # of connection points: 4
#     Node 13, Type 0, BuildingBlock: GALJAG_clean_sbu_0, # of connection points: 4
#     Node 14, Type 0, BuildingBlock: GALJAG_clean_sbu_0, # of connection points: 4
#     Node 15, Type 0, BuildingBlock: GALJAG_clean_sbu_0, # of connection points: 4
#     Edge 16, Type (0, 0), BuildingBlock: EZIPEK_clean_linker_0, # of connection points: 2
#     Edge 17, Type (0, 0), BuildingBlock: EZIPEK_clean_linker_0, # of connection points: 2
#     Edge 18, Type (0, 0), BuildingBlock: EZIPEK_clean_linker_0, # of connection points: 2
#     Edge 19, Type (0, 0), BuildingBlock: EZIPEK_clean_linker_0, # of connection points: 2
#     Edge 20, Type (0, 0), BuildingBlock: EZIPEK_clean_linker_0, # of connection points: 2
#     Edge 21, Type (0, 0), BuildingBlock: EZIPEK_clean_linker_0, # of connection points: 2
#     Edge 22, Type (0, 0), BuildingBlock: EZIPEK_clean_linker_0, # of connection points: 2
#     Edge 23, Type (0, 0), BuildingBlock: EZIPEK_clean_linker_0, # of connection points: 2
#     Edge 24, Type (0, 0), BuildingBlock: EZIPEK_clean_linker_0, # of connection points: 2
#     Edge 25, Type (0, 0), BuildingBlock: EZIPEK_clean_linker_0, # of connection points: 2
#     Edge 26, Type (0, 0), BuildingBlock: EZIPEK_clean_linker_0, # of connection points: 2
#     Edge 27, Type (0, 0), BuildingBlock: EZIPEK_clean_linker_0, # of connection points: 2
#     Edge 28, Type (0, 0), BuildingBlock: EZIPEK_clean_linker_0, # of connection points: 2
#     Edge 29, Type (0, 0), BuildingBlock: EZIPEK_clean_linker_0, # of connection points: 2
#     Edge 30, Type (0, 0), BuildingBlock: EZIPEK_clean_linker_0, # of connection points: 2
#     Edge 31, Type (0, 0), BuildingBlock: EZIPEK_clean_linker_0, # of connection points: 2
#     Edge 32, Type (0, 0), BuildingBlock: EZIPEK_clean_linker_0, # of connection points: 2
#     Edge 33, Type (0, 0), BuildingBlock: EZIPEK_clean_linker_0, # of connection points: 2
#     Edge 34, Type (0, 0), BuildingBlock: EZIPEK_clean_linker_0, # of connection points: 2
#     Edge 35, Type (0, 0), BuildingBlock: EZIPEK_clean_linker_0, # of connection points: 2
#     Edge 36, Type (0, 0), BuildingBlock: EZIPEK_clean_linker_0, # of connection points: 2
#     Edge 37, Type (0, 0), BuildingBlock: EZIPEK_clean_linker_0, # of connection points: 2
#     Edge 38, Type (0, 0), BuildingBlock: EZIPEK_clean_linker_0, # of connection points: 2
#     Edge 39, Type (0, 0), BuildingBlock: EZIPEK_clean_linker_0, # of connection points: 2
#     Edge 40, Type (0, 0), BuildingBlock: EZIPEK_clean_linker_0, # of connection points: 2
#     Edge 41, Type (0, 0), BuildingBlock: EZIPEK_clean_linker_0, # of connection points: 2
#     Edge 42, Type (0, 0), BuildingBlock: EZIPEK_clean_linker_0, # of connection points: 2
#     Edge 43, Type (0, 0), BuildingBlock: EZIPEK_clean_linker_0, # of connection points: 2
#     Edge 44, Type (0, 0), BuildingBlock: EZIPEK_clean_linker_0, # of connection points: 2
#     Edge 45, Type (0, 0), BuildingBlock: EZIPEK_clean_linker_0, # of connection points: 2
#     Edge 46, Type (0, 0), BuildingBlock: EZIPEK_clean_linker_0, # of connection points: 2
#     Edge 47, Type (0, 0), BuildingBlock: EZIPEK_clean_linker_0, # of connection points: 2
# Relax obj value: 0.013
# Max RMSD: 0.034
# Mean RMSD: 0.034
data_MOF--net-und--node1-GALJAG_clean_sbu_0--edge1-EZIPEK_clean_linker_0
_symmetry_space_group_name_H-M    P1
_symmetry_Int_Tables_number       1
_symmetry_cell_setting            triclinic
loop_
_symmetry_equiv_pos_as_xyz
'x, y, z'
_cell_length_a     46.252435
_cell_length_b     46.253856
_cell_length_c     14.878485
_cell_angle_alpha  90.006538
_cell_angle_beta   90.01733
_cell_angle_gamma 89.987414
loop_
_atom_site_label
_atom_site_type_symbol
_atom_site_fract_x
_atom_site_fract_y
_atom_site_fract_z
_atom_type_partial_charge
In0 In 0.25067 0.33985 0.99234 0.0
O1 O 0.20611 0.3608 0.98266 0.0
O2 O 0.23381 0.37338 0.09053 0.0
C3 C 0.25274 0.30088 0.85924 0.0
C4 C 0.29149 0.37742 0.93751 0.0
C5 C 0.248 0.29985 0.12213 0.0
O6 O 0.23175 0.31828 0.86711 0.0
O7 O 0.273 0.30435 0.91482 0.0
O8 O 0.26912 0.31716 0.11633 0.0
O9 O 0.22806 0.30361 0.06563 0.0
C10 C 0.20971 0.37639 0.05169 0.0
O11 O 0.29594 0.3595 0.00027 0.0
O12 O 0.26658 0.37629 0.90304 0.0
In13 In 0.91239 1.00064 0.24782 0.0
O14 O 0.88758 0.04321 0.26044 0.0
O15 O 0.88183 0.01824 0.14137 0.0
C16 C 0.95234 0.00325 0.37764 0.0
C17 C 0.87499 0.96076 0.30987 0.0
C18 C 0.95294 0.99775 0.11961 0.0
O19 O 0.93708 0.02498 0.35716 0.0
O20 O 0.94631 0.98021 0.33635 0.0
O21 O 0.93681 0.97642 0.13737 0.0
O22 O 0.94794 0.02044 0.16383 0.0
C23 C 0.87528 0.0407 0.18497 0.0
O24 O 0.88767 0.95803 0.23508 0.0
O25 O 0.88127 0.98337 0.35308 0.0
In26 In 0.25052 0.66278 0.50028 0.0
O27 O 0.29392 0.63971 0.48723 0.0
O28 O 0.2671 0.62951 0.59976 0.0
C29 C 0.25012 0.70286 0.37019 0.0
C30 C 0.20996 0.62554 0.44206 0.0
C31 C 0.25164 0.70212 0.6321 0.0
O32 O 0.27194 0.68695 0.38376 0.0
O33 O 0.22851 0.69775 0.41909 0.0
O34 O 0.22952 0.68669 0.61773 0.0
O35 O 0.27327 0.69663 0.58359 0.0
C36 C 0.2905 0.62511 0.55832 0.0
O37 O 0.20633 0.64108 0.51111 0.0
O38 O 0.2339 0.6289 0.40268 0.0
In39 In 0.59094 0.00126 0.74673 0.0
O40 O 0.6134 0.04482 0.73147 0.0
O41 O 0.62611 0.01738 0.84005 0.0
C42 C 0.55126 0.00163 0.61471 0.0
C43 C 0.62891 0.96086 0.69339 0.0
C44 C 0.55142 0.00158 0.87916 0.0
O45 O 0.56289 0.02462 0.64302 0.0
O46 O 0.56109 0.9787 0.64836 0.0
O47 O 0.5625 0.97837 0.8504 0.0
O48 O 0.56175 0.02433 0.84581 0.0
C49 C 0.6294 0.04121 0.79969 0.0
O50 O 0.61296 0.95743 0.76179 0.0
O51 O 0.62578 0.98471 0.65301 0.0
In52 In 0.75151 0.66203 0.00262 0.0
O53 O 0.70602 0.64282 0.00033 0.0
O54 O 0.73633 0.62559 0.09383 0.0
C55 C 0.75069 0.70173 0.87135 0.0
C56 C 0.79185 0.62506 0.94115 0.0
C57 C 0.75299 0.70131 0.1353 0.0
O58 O 0.73004 0.68414 0.88195 0.0
O59 O 0.77182 0.69838 0.92357 0.0
O60 O 0.77464 0.68569 0.11707 0.0
O61 O 0.73042 0.69574 0.09116 0.0
C62 C 0.711 0.62476 0.06223 0.0
O63 O 0.79569 0.64033 0.01064 0.0
O64 O 0.76775 0.62857 0.90268 0.0
In65 In 0.09006 1.00107 0.74698 0.0
O66 O 0.11151 0.04535 0.75913 0.0
O67 O 0.12368 0.01805 0.64957 0.0
C68 C 0.05007 0.99899 0.87709 0.0
C69 C 0.1275 0.96084 0.80617 0.0
C70 C 0.0511 0.00204 0.61423 0.0
O71 O 0.06604 0.02093 0.86626 0.0
O72 O 0.05508 0.97806 0.8252 0.0
O73 O 0.06862 0.98121 0.62328 0.0
O74 O 0.05434 0.02265 0.66869 0.0
C75 C 0.12691 0.04188 0.68972 0.0
O76 O 0.11095 0.95644 0.73984 0.0
O77 O 0.12508 0.98543 0.84223 0.0
In78 In 0.75226 0.33974 0.48947 0.0
O79 O 0.70716 0.35968 0.49628 0.0
O80 O 0.7363 0.37549 0.39693 0.0
C81 C 0.75285 0.29973 0.61978 0.0
C82 C 0.79255 0.3766 0.55155 0.0
C83 C 0.75268 0.30078 0.35615 0.0
O84 O 0.73144 0.31638 0.60853 0.0
O85 O 0.77403 0.30412 0.56842 0.0
O86 O 0.77363 0.31791 0.36848 0.0
O87 O 0.73129 0.30452 0.40723 0.0
C88 C 0.7115 0.37705 0.43203 0.0
O89 O 0.79669 0.36097 0.48299 0.0
O90 O 0.7682 0.37352 0.5887 0.0
In91 In 0.41212 0.00245 0.24656 0.0
O92 O 0.38983 0.95873 0.26231 0.0
O93 O 0.37711 0.98598 0.1534 0.0
C94 C 0.45185 0.00235 0.37825 0.0
C95 C 0.3737 0.04244 0.29806 0.0
C96 C 0.45195 0.00251 0.11509 0.0
O97 O 0.44022 0.97929 0.35037 0.0
O98 O 0.44198 0.02524 0.34433 0.0
O99 O 0.44103 0.02565 0.14492 0.0
O100 O 0.44135 0.97966 0.14695 0.0
C101 C 0.37387 0.96219 0.19394 0.0
O102 O 0.38835 0.04513 0.22665 0.0
O103 O 0.37838 0.01971 0.34292 0.0
In104 In 0.7523 0.83972 0.50138 0.0
O105 O 0.70723 0.85965 0.49773 0.0
O106 O 0.73691 0.875 0.59635 0.0
C107 C 0.75232 0.80101 0.36795 0.0
C108 C 0.79258 0.87689 0.44249 0.0
C109 C 0.75185 0.79935 0.63061 0.0
O110 O 0.73176 0.81879 0.37789 0.0
O111 O 0.77316 0.80392 0.42172 0.0
O112 O 0.77376 0.81511 0.61685 0.0
O113 O 0.7301 0.80489 0.58263 0.0
C114 C 0.71193 0.87672 0.56249 0.0
O115 O 0.79628 0.86182 0.51249 0.0
O116 O 0.7688 0.87319 0.40255 0.0
In117 In 0.41166 0.50287 0.7531 0.0
O118 O 0.38778 0.54591 0.764 0.0
O119 O 0.37919 0.51912 0.65024 0.0
C120 C 0.45155 0.50501 0.88395 0.0
C121 C 0.37491 0.46192 0.81195 0.0
C122 C 0.45117 0.50172 0.62187 0.0
O123 O 0.4353 0.52632 0.86705 0.0
O124 O 0.44687 0.48266 0.83791 0.0
O125 O 0.43538 0.48009 0.63887 0.0
O126 O 0.44585 0.52413 0.6672 0.0
C127 C 0.37395 0.54238 0.69151 0.0
O128 O 0.39098 0.45822 0.74425 0.0
O129 O 0.37748 0.48618 0.85 0.0
In130 In 0.75326 0.16202 0.99079 0.0
O131 O 0.79723 0.13986 0.98169 0.0
O132 O 0.76923 0.12843 0.09023 0.0
C133 C 0.75381 0.20211 0.86064 0.0
C134 C 0.71284 0.12506 0.92969 0.0
C135 C 0.75289 0.20083 0.12402 0.0
O136 O 0.77529 0.18577 0.87452 0.0
O137 O 0.73204 0.19738 0.90922 0.0
O138 O 0.73181 0.1839 0.11108 0.0
O139 O 0.77437 0.19703 0.07331 0.0
C140 C 0.79319 0.12473 0.05134 0.0
O141 O 0.70818 0.14212 0.99449 0.0
O142 O 0.73779 0.12678 0.89571 0.0
In143 In 0.09024 0.5008 0.24855 0.0
O144 O 0.10941 0.45533 0.24958 0.0
O145 O 0.12596 0.4856 0.15479 0.0
C146 C 0.05127 0.50071 0.382 0.0
C147 C 0.12718 0.54132 0.30986 0.0
C148 C 0.05089 0.50083 0.11603 0.0
O149 O 0.06873 0.47993 0.37103 0.0
O150 O 0.0545 0.52168 0.329 0.0
O151 O 0.06838 0.52161 0.12644 0.0
O152 O 0.05425 0.47992 0.16916 0.0
C153 C 0.12698 0.46026 0.18627 0.0
O154 O 0.10934 0.5463 0.24729 0.0
O155 O 0.12632 0.51595 0.34111 0.0
In156 In 0.24984 0.16215 0.49288 0.0
O157 O 0.29273 0.13776 0.50169 0.0
O158 O 0.26635 0.13101 0.3861 0.0
C159 C 0.25342 0.20184 0.62332 0.0
C160 C 0.21026 0.12478 0.55705 0.0
C161 C 0.24629 0.20289 0.36529 0.0
O162 O 0.27478 0.18608 0.60266 0.0
O163 O 0.23027 0.19645 0.58181 0.0
O164 O 0.22486 0.18719 0.3854 0.0
O165 O 0.2694 0.19731 0.40668 0.0
C166 C 0.28938 0.12492 0.4274 0.0
O167 O 0.20725 0.1373 0.48209 0.0
O168 O 0.23298 0.13123 0.59944 0.0
In169 In 0.58945 0.50195 0.25433 0.0
O170 O 0.6097 0.45699 0.24489 0.0
O171 O 0.62489 0.48555 0.34689 0.0
C172 C 0.54916 0.50412 0.1251 0.0
C173 C 0.62648 0.54216 0.19335 0.0
C174 C 0.55055 0.50146 0.38758 0.0
O175 O 0.56531 0.48226 0.13505 0.0
O176 O 0.55422 0.52501 0.17717 0.0
O177 O 0.56844 0.52197 0.37874 0.0
O178 O 0.55352 0.48085 0.33299 0.0
C179 C 0.62679 0.46103 0.31011 0.0
O180 O 0.61081 0.54627 0.26184 0.0
O181 O 0.62331 0.5179 0.15563 0.0
In182 In 0.25131 0.84026 -8e-05 0.0
O183 O 0.20653 0.86083 0.00448 0.0
O184 O 0.23599 0.87545 0.90413 0.0
C185 C 0.24888 0.80084 0.13203 0.0
C186 C 0.29097 0.87795 0.06217 0.0
C187 C 0.2542 0.80122 0.86655 0.0
O188 O 0.22736 0.81646 0.11262 0.0
O189 O 0.27152 0.80594 0.0881 0.0
O190 O 0.27602 0.81574 0.89039 0.0
O191 O 0.23095 0.80758 0.90583 0.0
C192 C 0.21116 0.87762 0.93897 0.0
O193 O 0.29571 0.8616 0.99569 0.0
O194 O 0.26624 0.87525 0.09711 0.0
In195 In 0.91222 0.50084 0.7483 0.0
O196 O 0.89269 0.54617 0.74541 0.0
O197 O 0.87631 0.51608 0.8411 0.0
C198 C 0.95168 0.50055 0.61616 0.0
C199 C 0.8753 0.46038 0.68666 0.0
C200 C 0.9513 0.50107 0.88159 0.0
O201 O 0.9344 0.5215 0.62661 0.0
O202 O 0.94804 0.4796 0.669 0.0
O203 O 0.93401 0.48016 0.87069 0.0
O204 O 0.94783 0.52202 0.82866 0.0
C205 C 0.87507 0.54128 0.80865 0.0
O206 O 0.89272 0.45549 0.75045 0.0
O207 O 0.8766 0.4856 0.65433 0.0
C208 C 0.24807 0.24658 0.15013 0.0
C209 C 0.24744 0.27518 0.18512 0.0
C210 C 0.24481 0.25623 0.33853 0.0
C211 C 0.2443 0.22769 0.30317 0.0
N212 N 0.24077 0.19532 0.1769 0.0
N213 N 0.24121 0.30781 0.30978 0.0
C214 C 0.24434 0.22277 0.20932 0.0
C215 C 0.24484 0.2802 0.27868 0.0
N216 N 0.25371 0.24217 0.0609 0.0
N217 N 0.24531 0.26034 0.42952 0.0
H218 H 0.24152 0.32588 0.26789 0.0
H219 H 0.23597 0.31286 0.37595 0.0
H220 H 0.24263 0.2435 0.47527 0.0
H221 H 0.24949 0.28014 0.46009 0.0
H222 H 0.2574 0.22193 0.03261 0.0
H223 H 0.25723 0.259 0.01573 0.0
H224 H 0.23736 0.19059 0.10933 0.0
H225 H 0.23898 0.17726 0.21848 0.0
C226 C 0.97757 0.9851 0.51455 0.0
C227 C 0.97691 0.00455 0.441 0.0
C228 C 0.02493 0.02283 0.48207 0.0
C229 C 0.02658 0.0016 0.55067 0.0
N230 N 0.00602 0.96039 0.62752 0.0
N231 N 0.00138 0.0391 0.3458 0.0
C232 C 0.00343 0.98197 0.56515 0.0
C233 C 1.00087 0.02286 0.42262 0.0
N234 N 0.95293 0.97067 0.53866 0.0
N235 N 0.0464 0.04299 0.47372 0.0
H236 H 0.9843 0.03994 0.30025 0.0
H237 H 0.01965 0.05001 0.32303 0.0
H238 H 0.06547 0.04237 0.51112 0.0
H239 H 0.04467 0.06128 0.43324 0.0
H240 H 0.95097 0.95857 0.59732 0.0
H241 H 0.93338 0.973 0.50441 0.0
H242 H 0.99142 0.94337 0.6333 0.0
H243 H 0.02374 0.95825 0.6702 0.0
C244 C 0.23641 0.75251 0.67003 0.0
C245 C 0.25169 0.72701 0.69415 0.0
C246 C 0.26969 0.7506 0.83062 0.0
C247 C 0.25578 0.77657 0.80366 0.0
N248 N 0.23096 0.80425 0.69074 0.0
N249 N 0.28591 0.70248 0.78973 0.0
C250 C 0.24047 0.77806 0.72143 0.0
C251 C 0.26935 0.72632 0.77203 0.0
N252 N 0.21802 0.75234 0.59801 0.0
N253 N 0.28207 0.74869 0.9139 0.0
H254 H 0.28488 0.68358 0.75159 0.0
H255 H 0.3019 0.70196 0.83899 0.0
H256 H 0.28339 0.76611 0.95813 0.0
H257 H 0.28925 0.72938 0.94205 0.0
H258 H 0.20387 0.76919 0.5832 0.0
H259 H 0.21535 0.73455 0.55594 0.0
H260 H 0.22217 0.80749 0.62713 0.0
H261 H 0.23457 0.82344 0.72576 0.0
C262 C 0.50335 0.98849 0.0831 0.0
C263 C 0.47726 0.00201 0.05411 0.0
C264 C 0.50006 0.01566 0.91144 0.0
C265 C 0.52619 0.00221 0.94046 0.0
N266 N 0.55283 0.97443 0.04955 0.0
N267 N 0.45087 0.03033 0.94573 0.0
C268 C 0.52781 0.98816 0.02501 0.0
C269 C 0.47571 0.01621 0.96982 0.0
N270 N 0.50534 0.97764 0.16857 0.0
N271 N 0.49788 0.02617 0.82562 0.0
H272 H 0.43162 0.02875 0.98182 0.0
H273 H 0.44938 0.04469 0.89213 0.0
H274 H 0.51487 0.02626 0.77981 0.0
H275 H 0.47866 0.03293 0.7961 0.0
H276 H 0.52441 0.97054 0.19817 0.0
H277 H 0.48824 0.97744 0.21403 0.0
H278 H 0.55457 0.9603 0.10364 0.0
H279 H 0.57208 0.97624 0.01359 0.0
C280 C 0.24077 0.74827 0.15956 0.0
C281 C 0.24726 0.77614 0.19435 0.0
C282 C 0.25678 0.75569 0.34314 0.0
C283 C 0.25047 0.72777 0.30834 0.0
N284 N 0.23882 0.69628 0.18489 0.0
N285 N 0.25784 0.80771 0.31845 0.0
C286 C 0.24304 0.72372 0.21682 0.0
C287 C 0.25427 0.78023 0.28606 0.0
N288 N 0.2317 0.74562 0.07234 0.0
N289 N 0.26616 0.75844 0.42997 0.0
H290 H 0.25626 0.82602 0.27782 0.0
H291 H 0.26057 0.81281 0.38596 0.0
H292 H 0.26842 0.74089 0.47326 0.0
H293 H 0.27342 0.77762 0.45851 0.0
H294 H 0.2248 0.72644 0.04297 0.0
H295 H 0.22956 0.76323 0.02916 0.0
H296 H 0.23536 0.69112 0.11777 0.0
H297 H 0.24019 0.67797 0.22563 0.0
C298 C 0.47512 0.98886 0.52459 0.0
C299 C 0.4771 0.00258 0.43959 0.0
C300 C 0.52797 0.01523 0.4685 0.0
C301 C 0.52599 0.0015 0.55347 0.0
N302 N 0.49714 0.97861 0.66896 0.0
N303 N 0.50597 0.02546 0.3241 0.0
C304 C 0.49952 0.98887 0.5829 0.0
C305 C 0.50357 0.01522 0.41017 0.0
N306 N 0.44982 0.97573 0.54939 0.0
N307 N 0.55327 0.02836 0.44374 0.0
H308 H 0.48894 0.02591 0.27841 0.0
H309 H 0.52531 0.0317 0.29433 0.0
H310 H 0.57247 0.02627 0.47987 0.0
H311 H 0.55527 0.04235 0.38938 0.0
H312 H 0.44783 0.96173 0.60372 0.0
H313 H 0.43061 0.97785 0.51334 0.0
H314 H 0.47779 0.97238 0.69876 0.0
H315 H 0.51417 0.97812 0.71462 0.0
C316 C 0.23547 0.22721 0.76016 0.0
C317 C 0.25522 0.22618 0.68747 0.0
C318 C 0.27441 0.2737 0.73003 0.0
C319 C 0.25262 0.27599 0.79684 0.0
N320 N 0.2108 0.25605 0.87219 0.0
N321 N 0.29113 0.24976 0.59498 0.0
C322 C 0.23256 0.25314 0.81058 0.0
C323 C 0.27428 0.24965 0.67054 0.0
N324 N 0.2205 0.20283 0.78364 0.0
N325 N 0.29529 0.29452 0.72345 0.0
H326 H 0.29192 0.23267 0.54948 0.0
H327 H 0.30263 0.26777 0.57301 0.0
H328 H 0.29507 0.31345 0.76143 0.0
H329 H 0.31382 0.29228 0.68436 0.0
H330 H 0.20809 0.20108 0.84173 0.0
H331 H 0.2227 0.18323 0.74961 0.0
H332 H 0.19348 0.24177 0.87712 0.0
H333 H 0.20888 0.27368 0.91528 0.0
C334 C 0.03023 0.9978 0.03361 0.0
C335 C 0.02528 0.99855 0.93963 0.0
C336 C 0.97275 0.99606 0.96335 0.0
C337 C 0.97769 0.99599 0.05725 0.0
N338 N 0.01011 0.99166 0.18327 0.0
N339 N 0.99261 0.00226 0.81365 0.0
C340 C 0.00619 0.99563 0.09292 0.0
C341 C 0.99673 0.99841 0.90397 0.0
N342 N 0.05791 0.99947 0.06574 0.0
N343 N 0.94512 0.99356 0.93132 0.0
H344 H 0.00958 0.00483 0.7684 0.0
H345 H 0.97255 0.00509 0.78337 0.0
H346 H 0.92703 0.99289 0.97308 0.0
H347 H 0.93996 0.99031 0.86405 0.0
H348 H 0.0632 0.00209 0.13316 0.0
H349 H 0.07604 0.99963 0.02408 0.0
H350 H 0.03008 0.98892 0.21414 0.0
H351 H 0.99296 0.98895 0.22788 0.0
C352 C 0.74783 0.75486 0.84447 0.0
C353 C 0.74945 0.72642 0.80876 0.0
C354 C 0.75171 0.74586 0.65598 0.0
C355 C 0.75217 0.77433 0.69222 0.0
N356 N 0.75403 0.80636 0.81982 0.0
N357 N 0.75615 0.69426 0.68325 0.0
C358 C 0.75136 0.77895 0.78626 0.0
C359 C 0.75205 0.72171 0.71512 0.0
N360 N 0.74159 0.75876 0.93353 0.0
N361 N 0.75098 0.74193 0.56492 0.0
H362 H 0.75598 0.67605 0.72459 0.0
H363 H 0.76156 0.68952 0.61699 0.0
H364 H 0.75323 0.75884 0.51929 0.0
H365 H 0.74681 0.72215 0.53418 0.0
H366 H 0.73732 0.7788 0.96243 0.0
H367 H 0.73812 0.74162 0.97766 0.0
H368 H 0.75696 0.81091 0.88773 0.0
H369 H 0.75532 0.82466 0.77907 0.0
C370 C 0.77365 0.25303 0.31044 0.0
C371 C 0.75384 0.27595 0.29357 0.0
C372 C 0.73203 0.24851 0.16968 0.0
C373 C 0.75172 0.22555 0.18677 0.0
N374 N 0.79268 0.20613 0.26656 0.0
N375 N 0.71222 0.29474 0.21547 0.0
C376 C 0.77294 0.2279 0.25528 0.0
C377 C 0.73247 0.27342 0.22556 0.0
N378 N 0.7918 0.25447 0.38305 0.0
N379 N 0.71424 0.24737 0.09616 0.0
H380 H 0.71321 0.31436 0.24969 0.0
H381 H 0.6936 0.29263 0.17676 0.0
H382 H 0.7129 0.22959 0.05348 0.0
H383 H 0.70221 0.26481 0.07271 0.0
H384 H 0.80421 0.23728 0.40622 0.0
H385 H 0.79327 0.27241 0.42505 0.0
H386 H 0.81116 0.20782 0.30603 0.0
H387 H 0.79127 0.18634 0.2332 0.0
C388 C 0.75554 0.25546 0.83484 0.0
C389 C 0.75471 0.227 0.79864 0.0
C390 C 0.7515 0.24641 0.64594 0.0
C391 C 0.7524 0.27487 0.68201 0.0
N392 N 0.75267 0.30732 0.8085 0.0
N393 N 0.75534 0.19465 0.67195 0.0
C394 C 0.75361 0.27964 0.77598 0.0
C395 C 0.75376 0.22226 0.70469 0.0
N396 N 0.75973 0.25919 0.92518 0.0
N397 N 0.74676 0.24258 0.55591 0.0
H398 H 0.75573 0.17643 0.71324 0.0
H399 H 0.75801 0.18957 0.60438 0.0
H400 H 0.74413 0.25972 0.51131 0.0
H401 H 0.7432 0.22265 0.52552 0.0
H402 H 0.7628 0.27905 0.95637 0.0
H403 H 0.76216 0.24198 0.96964 0.0
H404 H 0.75055 0.31261 0.87607 0.0
H405 H 0.7526 0.3255 0.76705 0.0
C406 C 0.73457 0.7275 0.27035 0.0
C407 C 0.75419 0.72627 0.19733 0.0
C408 C 0.77256 0.77447 0.23584 0.0
C409 C 0.75135 0.77654 0.30436 0.0
N410 N 0.70973 0.75673 0.38099 0.0
N411 N 0.78882 0.75015 0.10096 0.0
C412 C 0.73148 0.75365 0.31942 0.0
C413 C 0.77254 0.75009 0.17769 0.0
N414 N 0.71997 0.70312 0.29557 0.0
N415 N 0.7928 0.79583 0.22643 0.0
H416 H 0.78976 0.73275 0.05665 0.0
H417 H 0.79972 0.76828 0.07711 0.0
H418 H 0.79218 0.81512 0.26274 0.0
H419 H 0.81108 0.79384 0.18608 0.0
H420 H 0.70777 0.70152 0.35412 0.0
H421 H 0.72236 0.68344 0.26233 0.0
H422 H 0.6926 0.74227 0.38703 0.0
H423 H 0.70756 0.7747 0.4226 0.0
C424 C 0.52896 0.505 0.96901 0.0
C425 C 0.52421 0.50454 0.06308 0.0
C426 C 0.47159 0.5067 0.0401 0.0
C427 C 0.47637 0.50667 0.94613 0.0
N428 N 0.50863 0.51109 0.81971 0.0
N429 N 0.4918 0.50147 0.18985 0.0
C430 C 0.50482 0.50708 0.91008 0.0
C431 C 0.49571 0.50479 0.09924 0.0
N432 N 0.55656 0.50314 0.93635 0.0
N433 N 0.44395 0.50884 0.07237 0.0
H434 H 0.50886 0.49927 0.23496 0.0
H435 H 0.47183 0.4989 0.22084 0.0
H436 H 0.4258 0.50909 0.03079 0.0
H437 H 0.43876 0.512 0.13963 0.0
H438 H 0.56163 0.50004 0.86895 0.0
H439 H 0.57481 0.50322 0.97755 0.0
H440 H 0.52856 0.51408 0.78884 0.0
H441 H 0.49144 0.51371 0.7752 0.0
C442 C 0.00375 0.47974 0.42895 0.0
C443 C 0.02658 0.49965 0.44505 0.0
C444 C 0.99945 0.52121 0.57009 0.0
C445 C 0.97657 0.50136 0.5538 0.0
N446 N 0.95793 0.45944 0.47692 0.0
N447 N 0.04537 0.5414 0.52239 0.0
C448 C 0.97904 0.47996 0.48584 0.0
C449 C 0.02417 0.52097 0.51325 0.0
N450 N 0.00477 0.462 0.35533 0.0
N451 N 0.99843 0.53891 0.64379 0.0
H452 H 0.06472 0.54074 0.48661 0.0
H453 H 0.04336 0.55988 0.56174 0.0
H454 H 0.98084 0.53989 0.68733 0.0
H455 H 0.01578 0.55124 0.66636 0.0
H456 H 0.98742 0.44968 0.33276 0.0
H457 H 0.02239 0.46095 0.3119 0.0
H458 H 0.96002 0.44092 0.43778 0.0
H459 H 0.9386 0.46003 0.51278 0.0
C460 C 0.02361 0.48038 0.98536 0.0
C461 C 0.02611 0.50181 0.05324 0.0
C462 C 0.97859 0.52156 0.01229 0.0
C463 C 0.9761 0.50015 0.94434 0.0
N464 N 0.99793 0.4625 0.85466 0.0
N465 N 0.00441 0.5396 0.14259 0.0
C466 C 0.99893 0.48022 0.92833 0.0
C467 C 0.00332 0.52178 0.06916 0.0
N468 N 0.04467 0.45979 0.97669 0.0
N469 N 0.95745 0.54206 0.02119 0.0
H470 H 0.02203 0.5406 0.18607 0.0
H471 H 0.98712 0.55205 0.16497 0.0
H472 H 0.9381 0.54143 0.9854 0.0
H473 H 0.95951 0.56059 0.06034 0.0
H474 H 0.04253 0.44125 0.93766 0.0
H475 H 0.06398 0.46034 0.01267 0.0
H476 H 0.0153 0.45016 0.83223 0.0
H477 H 0.98036 0.46152 0.81099 0.0
C478 C 0.47755 0.52068 0.48793 0.0
C479 C 0.47599 0.50056 0.55957 0.0
C480 C 0.52317 0.4806 0.51735 0.0
C481 C 0.52587 0.50234 0.45059 0.0
N482 N 0.50699 0.54487 0.37636 0.0
N483 N 0.49908 0.46446 0.65263 0.0
C484 C 0.50354 0.52306 0.43751 0.0
C485 C 0.49918 0.4812 0.5768 0.0
N486 N 0.45361 0.53649 0.46535 0.0
N487 N 0.54351 0.45924 0.5238 0.0
H488 H 0.48205 0.46408 0.69837 0.0
H489 H 0.51694 0.45274 0.67471 0.0
H490 H 0.56243 0.45906 0.4859 0.0
H491 H 0.54082 0.44072 0.56272 0.0
H492 H 0.45216 0.54922 0.40787 0.0
H493 H 0.43402 0.53485 0.49974 0.0
H494 H 0.49318 0.56259 0.37187 0.0
H495 H 0.52461 0.5464 0.33309 0.0
C496 C 0.15136 0.43464 0.05732 0.0
C497 C 0.14745 0.43809 0.15151 0.0
C498 C 0.18044 0.39749 0.17783 0.0
C499 C 0.18749 0.39693 0.08501 0.0
N500 N 0.18395 0.41973 0.93915 0.0
N501 N 0.16393 0.42681 0.30191 0.0
C502 C 0.17411 0.41677 0.02528 0.0
C503 C 0.16349 0.42059 0.21211 0.0
N504 N 0.13279 0.44746 -0.00195 0.0
N505 N 0.18901 0.37547 0.23299 0.0
H506 H 0.15331 0.44455 0.32978 0.0
H507 H 0.17755 0.4163 0.34715 0.0
H508 H 0.20024 0.3574 0.20977 0.0
H509 H 0.18211 0.37358 0.29941 0.0
H510 H 0.13307 0.44316 0.92929 0.0
H511 H 0.11515 0.45986 0.01814 0.0
H512 H 0.17679 0.43601 0.89615 0.0
H513 H 0.20139 0.40807 0.91358 0.0
C514 C 0.8067 0.92801 0.41034 0.0
C515 C 0.81405 0.89826 0.41081 0.0
C516 C 0.8624 0.9098 0.35377 0.0
C517 C 0.85404 0.9392 0.34454 0.0
N518 N 0.8166 0.97562 0.3505 0.0
N519 N 0.84693 0.85998 0.37008 0.0
C520 C 0.82575 0.94817 0.36938 0.0
C521 C 0.84139 0.88888 0.37908 0.0
N522 N 0.78193 0.93716 0.4518 0.0
N523 N 0.89069 0.90202 0.34242 0.0
H524 H 0.83209 0.84401 0.38804 0.0
H525 H 0.86518 0.85189 0.33777 0.0
H526 H 0.90692 0.91677 0.32613 0.0
H527 H 0.8986 0.88151 0.35753 0.0
H528 H 0.77702 0.95886 0.46249 0.0
H529 H 0.76745 0.92309 0.48302 0.0
H530 H 0.79521 0.98231 0.35729 0.0
H531 H 0.82973 0.99115 0.32049 0.0
C532 C 0.3404 0.61329 0.6137 0.0
C533 C 0.31214 0.60395 0.59071 0.0
C534 C 0.32363 0.55502 0.64284 0.0
C535 C 0.35268 0.5637 0.65771 0.0
N536 N 0.39016 0.59964 0.64193 0.0
N537 N 0.27826 0.56497 0.56753 0.0
C538 C 0.3615 0.59246 0.63904 0.0
C539 C 0.30412 0.57453 0.60089 0.0
N540 N 0.3468 0.64215 0.61492 0.0
N541 N 0.31435 0.52857 0.67215 0.0
H542 H 0.26352 0.57849 0.53508 0.0
H543 H 0.2726 0.5432 0.56438 0.0
H544 H 0.32779 0.51384 0.7049 0.0
H545 H 0.29272 0.52232 0.67178 0.0
H546 H 0.36604 0.65041 0.64069 0.0
H547 H 0.33188 0.65813 0.59775 0.0
H548 H 0.39816 0.61941 0.61957 0.0
H549 H 0.40635 0.58491 0.65887 0.0
C550 C 0.67472 0.08725 0.95775 0.0
C551 C 0.69082 0.1043 0.89624 0.0
C552 C 0.6687 0.07793 0.7709 0.0
C553 C 0.65005 0.06352 0.83205 0.0
N554 N 0.6304 0.06086 0.98253 0.0
N555 N 0.69741 0.12068 0.74324 0.0
C556 C 0.65159 0.07003 0.92523 0.0
C557 C 0.68617 0.10108 0.80239 0.0
N558 N 0.68224 0.08623 0.04653 0.0
N559 N 0.67092 0.06879 0.68383 0.0
H560 H 0.70906 0.13884 0.76351 0.0
H561 H 0.69233 0.12069 0.67498 0.0
H562 H 0.6597 0.051 0.65869 0.0
H563 H 0.68632 0.0769 0.63938 0.0
H564 H 0.67275 0.07191 0.09189 0.0
H565 H 0.70005 0.09712 0.07287 0.0
H566 H 0.62933 0.06738 0.04953 0.0
H567 H 0.61209 0.04967 0.96108 0.0
C568 C 0.16343 0.58113 0.28291 0.0
C569 C 0.14777 0.56348 0.34401 0.0
C570 C 0.17503 0.58469 0.46921 0.0
C571 C 0.18791 0.60474 0.40921 0.0
N572 N 0.1886 0.62641 0.26145 0.0
N573 N 0.13401 0.55378 0.49806 0.0
C574 C 0.18042 0.60428 0.31671 0.0
C575 C 0.1522 0.56677 0.43805 0.0
N576 N 0.16347 0.57503 0.19303 0.0
N577 N 0.18541 0.58161 0.55471 0.0
H578 H 0.11625 0.54144 0.47868 0.0
H579 H 0.1347 0.55792 0.56689 0.0
H580 H 0.20294 0.59332 0.57946 0.0
H581 H 0.1786 0.5652 0.59778 0.0
H582 H 0.17681 0.58567 0.14732 0.0
H583 H 0.15283 0.55726 0.16542 0.0
H584 H 0.18133 0.62835 0.1954 0.0
H585 H 0.19989 0.64449 0.28428 0.0
C586 C 0.66798 0.92382 0.72183 0.0
C587 C 0.64935 0.93837 0.66088 0.0
C588 C 0.6738 0.91459 0.53486 0.0
C589 C 0.68993 0.89747 0.59615 0.0
N590 N 0.69658 0.88094 0.74898 0.0
N591 N 0.62954 0.94117 0.51058 0.0
C592 C 0.68535 0.90063 0.69005 0.0
C593 C 0.65076 0.93188 0.56766 0.0
N594 N 0.67031 0.93288 0.80895 0.0
N595 N 0.68121 0.91561 0.446 0.0
H596 H 0.61131 0.95243 0.53229 0.0
H597 H 0.62838 0.9347 0.44356 0.0
H598 H 0.69895 0.90464 0.41945 0.0
H599 H 0.67172 0.92997 0.40077 0.0
H600 H 0.68572 0.92467 0.85324 0.0
H601 H 0.65918 0.95069 0.83433 0.0
H602 H 0.69155 0.88089 0.81726 0.0
H603 H 0.70818 0.86276 0.7285 0.0
C604 C 0.33532 0.4259 0.78224 0.0
C605 C 0.35425 0.43965 0.84393 0.0
C606 C 0.33017 0.41464 0.96839 0.0
C607 C 0.31373 0.39827 0.90578 0.0
N608 N 0.30637 0.38364 0.75129 0.0
N609 N 0.37414 0.4417 0.99405 0.0
C610 C 0.31795 0.40251 0.81209 0.0
C611 C 0.35301 0.43245 0.93662 0.0
N612 N 0.33272 0.43596 0.69623 0.0
N613 N 0.32316 0.41452 0.05762 0.0
H614 H 0.39194 0.45378 0.97308 0.0
H615 H 0.37564 0.43469 0.06046 0.0
H616 H 0.30565 0.40309 0.08366 0.0
H617 H 0.33276 0.42834 0.10421 0.0
H618 H 0.31705 0.42841 0.65169 0.0
H619 H 0.34389 0.45396 0.67236 0.0
H620 H 0.31124 0.38429 0.68293 0.0
H621 H 0.29457 0.36543 0.76994 0.0
C622 C 0.80715 0.07357 0.08378 0.0
C623 C 0.81451 0.10332 0.08373 0.0
C624 C 0.86277 0.09171 0.14154 0.0
C625 C 0.8544 0.06229 0.15013 0.0
N626 N 0.81702 0.02586 0.14297 0.0
N627 N 0.84732 0.14154 0.12543 0.0
C628 C 0.82616 0.05335 0.12472 0.0
C629 C 0.8418 0.11266 0.11604 0.0
N630 N 0.78244 0.06448 0.04187 0.0
N631 N 0.89103 0.09946 0.15373 0.0
H632 H 0.8325 0.15754 0.10747 0.0
H633 H 0.86554 0.14961 0.15807 0.0
H634 H 0.9072 0.0847 0.17041 0.0
H635 H 0.89898 0.11999 0.13905 0.0
H636 H 0.77753 0.0428 0.03086 0.0
H637 H 0.76799 0.07859 0.01062 0.0
H638 H 0.79564 0.01917 0.13583 0.0
H639 H 0.83015 0.01027 0.17275 0.0
C640 C 0.82727 0.58461 0.96783 0.0
C641 C 0.81377 0.60423 0.90762 0.0
C642 C 0.83808 0.58044 0.78127 0.0
C643 C 0.85435 0.56335 0.84248 0.0
N644 N 0.86902 0.55466 0.99629 0.0
N645 N 0.81197 0.62515 0.75884 0.0
C646 C 0.8503 0.56701 0.93649 0.0
C647 C 0.82081 0.60344 0.81477 0.0
N648 N 0.81728 0.5816 0.05378 0.0
N649 N 0.83779 0.57392 0.69168 0.0
H650 H 0.80045 0.64315 0.78122 0.0
H651 H 0.81888 0.62688 0.69238 0.0
H652 H 0.84872 0.55628 0.66442 0.0
H653 H 0.82403 0.58408 0.64603 0.0
H654 H 0.82463 0.56549 0.09714 0.0
H655 H 0.79951 0.5929 0.07867 0.0
H656 H 0.86859 0.55915 0.06493 0.0
H657 H 0.88691 0.54255 0.97669 0.0
C658 C 0.19802 0.07559 0.61777 0.0
C659 C 0.18889 0.1038 0.59268 0.0
C660 C 0.13864 0.09091 0.62743 0.0
C661 C 0.14816 0.06359 0.65896 0.0
N662 N 0.18724 0.03176 0.70046 0.0
N663 N 0.15156 0.14029 0.59092 0.0
C664 C 0.17796 0.05644 0.65875 0.0
C665 C 0.15945 0.11203 0.60213 0.0
N666 N 0.22553 0.06657 0.59905 0.0
N667 N 0.10972 0.09632 0.61848 0.0
H668 H 0.16624 0.15658 0.57469 0.0
H669 H 0.13102 0.14811 0.60615 0.0
H670 H 0.09381 0.08141 0.63641 0.0
H671 H 0.10153 0.11457 0.58628 0.0
H672 H 0.23232 0.04522 0.60592 0.0
H673 H 0.24102 0.07978 0.56917 0.0
H674 H 0.20897 0.02699 0.71129 0.0
H675 H 0.17325 0.01724 0.73183 0.0
C676 C 0.68376 0.40141 0.30742 0.0
C677 C 0.68934 0.39807 0.40078 0.0
C678 C 0.65084 0.43285 0.4341 0.0
C679 C 0.6479 0.43891 0.34092 0.0
N680 N 0.66685 0.43345 0.19039 0.0
N681 N 0.68265 0.41611 0.55193 0.0
C682 C 0.66577 0.42441 0.2778 0.0
C683 C 0.67409 0.41527 0.46401 0.0
N684 N 0.69471 0.38209 0.2469 0.0
N685 N 0.63092 0.44299 0.49412 0.0
H686 H 0.70052 0.40483 0.57629 0.0
H687 H 0.674 0.43055 0.59849 0.0
H688 H 0.61302 0.45521 0.4751 0.0
H689 H 0.63049 0.43667 0.56134 0.0
H690 H 0.68877 0.38189 0.17932 0.0
H691 H 0.70726 0.3644 0.26557 0.0
H692 H 0.68176 0.42543 0.14418 0.0
H693 H 0.65521 0.45112 0.16631 0.0
C694 C 0.33469 0.92525 0.22214 0.0
C695 C 0.35334 0.93979 0.16134 0.0
C696 C 0.32872 0.91627 0.03521 0.0
C697 C 0.3127 0.89897 0.09629 0.0
N698 N 0.30639 0.8822 0.24908 0.0
N699 N 0.37306 0.94265 0.01096 0.0
C700 C 0.31737 0.90204 0.19024 0.0
C701 C 0.35184 0.93341 0.06807 0.0
N702 N 0.33235 0.93429 0.30927 0.0
N703 N 0.32112 0.91761 0.94653 0.0
H704 H 0.39139 0.95375 0.03267 0.0
H705 H 0.37412 0.93625 0.94385 0.0
H706 H 0.30321 0.90692 0.92005 0.0
H707 H 0.3306 0.93206 0.90159 0.0
H708 H 0.31694 0.92604 0.35346 0.0
H709 H 0.34345 0.95212 0.33465 0.0
H710 H 0.31148 0.88216 0.31734 0.0
H711 H 0.29505 0.86388 0.22852 0.0
C712 C 0.82108 0.39823 0.67876 0.0
C713 C 0.81444 0.39737 0.58564 0.0
C714 C 0.85103 0.43459 0.55794 0.0
C715 C 0.85471 0.4383 0.6521 0.0
N716 N 0.83763 0.42779 0.80234 0.0
N717 N 0.81859 0.41974 0.43931 0.0
C718 C 0.83824 0.42123 0.71279 0.0
C719 C 0.82818 0.4169 0.52578 0.0
N720 N 0.81195 0.3766 0.7345 0.0
N721 N 0.86992 0.44698 0.49882 0.0
H722 H 0.80102 0.40829 0.4137 0.0
H723 H 0.82606 0.43581 0.39605 0.0
H724 H 0.88764 0.45923 0.51904 0.0
H725 H 0.86979 0.44246 0.43019 0.0
H726 H 0.8186 0.37488 0.80123 0.0
H727 H 0.80041 0.35865 0.71184 0.0
H728 H 0.82371 0.41767 0.84753 0.0
H729 H 0.84846 0.44544 0.82993 0.0
C730 C 0.30223 0.07535 0.37083 0.0
C731 C 0.31083 0.1041 0.39128 0.0
C732 C 0.36103 0.09216 0.3529 0.0
C733 C 0.35205 0.06406 0.32692 0.0
N734 N 0.31363 0.03039 0.29481 0.0
N735 N 0.34701 0.14162 0.38439 0.0
C736 C 0.32249 0.05606 0.33125 0.0
C737 C 0.33987 0.11302 0.37756 0.0
N738 N 0.27507 0.06603 0.39263 0.0
N739 N 0.38985 0.0986 0.3574 0.0
H740 H 0.33203 0.15767 0.40048 0.0
H741 H 0.36709 0.14986 0.36585 0.0
H742 H 0.40602 0.08395 0.3396 0.0
H743 H 0.39784 0.11758 0.38571 0.0
H744 H 0.26873 0.04445 0.38954 0.0
H745 H 0.25941 0.0794 0.42092 0.0
H746 H 0.29199 0.02473 0.2869 0.0
H747 H 0.32781 0.01573 0.26485 0.0
C748 C 0.64841 0.57101 0.0674 0.0
C749 C 0.6475 0.56393 0.1602 0.0
C750 C 0.68514 0.59991 0.18969 0.0
C751 C 0.68881 0.60411 0.09574 0.0
N752 N 0.678 0.58811 0.94458 0.0
N753 N 0.66997 0.56704 0.30665 0.0
C754 C 0.67154 0.58817 0.03422 0.0
C755 C 0.66721 0.57711 0.22069 0.0
N756 N 0.62671 0.56229 0.01124 0.0
N757 N 0.69777 0.61834 0.24973 0.0
H758 H 0.6583 0.54949 0.3314 0.0
H759 H 0.68614 0.57408 0.35026 0.0
H760 H 0.71012 0.63606 0.23021 0.0
H761 H 0.69333 0.61789 0.31839 0.0
H762 H 0.62501 0.56928 0.94486 0.0
H763 H 0.60872 0.55071 0.03333 0.0
H764 H 0.66774 0.57456 0.89858 0.0
H765 H 0.69567 0.59904 0.91754 0.0
C766 C 0.18399 0.90089 0.81137 0.0
C767 C 0.18912 0.89836 0.90517 0.0
C768 C 0.15032 0.93327 0.93341 0.0
C769 C 0.14826 0.93886 0.83977 0.0
N770 N 0.16837 0.9323 0.69109 0.0
N771 N 0.1813 0.91747 0.05459 0.0
C772 C 0.16653 0.92387 0.77894 0.0
C773 C 0.17342 0.916 0.96617 0.0
N774 N 0.1947 0.8807 0.75323 0.0
N775 N 0.12966 0.94343 0.991 0.0
H776 H 0.19902 0.90643 0.08093 0.0
H777 H 0.1722 0.93219 0.09948 0.0
H778 H 0.11153 0.95491 0.96951 0.0
H779 H 0.12883 0.93761 0.05863 0.0
H780 H 0.18929 0.88017 0.68524 0.0
H781 H 0.20616 0.86259 0.77466 0.0
H782 H 0.18353 0.92374 0.64659 0.0
H783 H 0.15713 0.94995 0.66509 0.0
loop_
_geom_bond_atom_site_label_1
_geom_bond_atom_site_label_2
_geom_bond_distance
_geom_bond_site_symmetry_2
_ccdc_geom_bond_type
In0 O1 2.294 1_554 S
In0 O2 2.326 . S
In0 O6 2.266 1_554 S
In0 O7 2.326 1_554 S
In0 O8 2.266 . S
In0 O9 2.326 . S
In0 O11 2.294 . S
In0 O12 2.326 1_554 S
O1 In0 2.294 1_556 S
O1 C10 1.240 1_556 S
O2 In0 2.326 . S
O2 C10 1.252 . S
C3 O6 1.252 . S
C3 O7 1.260 . S
C4 O11 1.240 1_556 S
C4 O12 1.252 . S
C5 O8 1.252 . S
C5 O9 1.260 . S
O6 In0 2.266 1_556 S
O6 C3 1.252 . S
O7 In0 2.326 1_556 S
O7 C3 1.260 . S
O8 In0 2.266 . S
O8 C5 1.252 . S
O9 In0 2.326 . S
O9 C5 1.260 . S
C10 O1 1.240 1_554 S
C10 O2 1.252 . S
O11 In0 2.294 . S
O11 C4 1.240 1_554 S
O12 In0 2.326 1_556 S
O12 C4 1.252 . S
In13 O14 2.294 . S
In13 O15 2.326 . S
In13 O19 2.266 . S
In13 O20 2.326 1_545 S
In13 O21 2.266 1_545 S
In13 O22 2.326 . S
In13 O24 2.294 1_545 S
In13 O25 2.326 1_545 S
O14 In13 2.294 . S
O14 C23 1.240 . S
O15 In13 2.326 . S
O15 C23 1.252 . S
C16 O19 1.253 . S
C16 O20 1.259 1_545 S
C17 O24 1.240 . S
C17 O25 1.252 . S
C18 O21 1.253 1_545 S
C18 O22 1.259 . S
O19 In13 2.266 . S
O19 C16 1.253 . S
O20 In13 2.326 1_565 S
O20 C16 1.259 1_565 S
O21 In13 2.266 1_565 S
O21 C18 1.253 1_565 S
O22 In13 2.326 . S
O22 C18 1.259 . S
C23 O14 1.240 . S
C23 O15 1.252 . S
O24 In13 2.294 1_565 S
O24 C17 1.240 . S
O25 In13 2.326 1_565 S
O25 C17 1.252 . S
In26 O27 2.294 . S
In26 O28 2.326 . S
In26 O32 2.266 . S
In26 O33 2.326 . S
In26 O34 2.266 . S
In26 O35 2.326 . S
In26 O37 2.294 . S
In26 O38 2.326 . S
O27 In26 2.294 . S
O27 C36 1.240 . S
O28 In26 2.326 . S
O28 C36 1.252 . S
C29 O32 1.252 . S
C29 O33 1.260 . S
C30 O37 1.240 . S
C30 O38 1.252 . S
C31 O34 1.252 . S
C31 O35 1.260 . S
O32 In26 2.266 . S
O32 C29 1.252 . S
O33 In26 2.326 . S
O33 C29 1.260 . S
O34 In26 2.266 . S
O34 C31 1.252 . S
O35 In26 2.326 . S
O35 C31 1.260 . S
C36 O27 1.240 . S
C36 O28 1.252 . S
O37 In26 2.294 . S
O37 C30 1.240 . S
O38 In26 2.326 . S
O38 C30 1.252 . S
In39 O40 2.294 . S
In39 O41 2.326 . S
In39 O45 2.266 . S
In39 O46 2.326 1_545 S
In39 O47 2.266 1_545 S
In39 O48 2.326 . S
In39 O50 2.294 1_545 S
In39 O51 2.326 1_545 S
O40 In39 2.294 . S
O40 C49 1.240 . S
O41 In39 2.326 . S
O41 C49 1.252 . S
C42 O45 1.253 . S
C42 O46 1.259 1_545 S
C43 O50 1.240 . S
C43 O51 1.252 . S
C44 O47 1.253 1_545 S
C44 O48 1.259 . S
O45 In39 2.266 . S
O45 C42 1.253 . S
O46 In39 2.326 1_565 S
O46 C42 1.259 1_565 S
O47 In39 2.266 1_565 S
O47 C44 1.253 1_565 S
O48 In39 2.326 . S
O48 C44 1.259 . S
C49 O40 1.240 . S
C49 O41 1.252 . S
O50 In39 2.294 1_565 S
O50 C43 1.240 . S
O51 In39 2.326 1_565 S
O51 C43 1.252 . S
In52 O53 2.294 1_554 S
In52 O54 2.326 . S
In52 O58 2.266 1_554 S
In52 O59 2.326 1_554 S
In52 O60 2.266 . S
In52 O61 2.326 . S
In52 O63 2.294 . S
In52 O64 2.326 1_554 S
O53 In52 2.294 1_556 S
O53 C62 1.240 1_556 S
O54 In52 2.326 . S
O54 C62 1.252 . S
C55 O58 1.252 . S
C55 O59 1.260 . S
C56 O63 1.240 1_556 S
C56 O64 1.252 . S
C57 O60 1.252 . S
C57 O61 1.260 . S
O58 In52 2.266 1_556 S
O58 C55 1.252 . S
O59 In52 2.326 1_556 S
O59 C55 1.260 . S
O60 In52 2.266 . S
O60 C57 1.252 . S
O61 In52 2.326 . S
O61 C57 1.260 . S
C62 O53 1.240 1_554 S
C62 O54 1.252 . S
O63 In52 2.294 . S
O63 C56 1.240 1_554 S
O64 In52 2.326 1_556 S
O64 C56 1.252 . S
In65 O66 2.294 . S
In65 O67 2.326 . S
In65 O71 2.266 . S
In65 O72 2.326 1_545 S
In65 O73 2.266 1_545 S
In65 O74 2.326 . S
In65 O76 2.294 1_545 S
In65 O77 2.326 1_545 S
O66 In65 2.294 . S
O66 C75 1.240 . S
O67 In65 2.326 . S
O67 C75 1.252 . S
C68 O71 1.253 . S
C68 O72 1.259 1_545 S
C69 O76 1.240 . S
C69 O77 1.252 . S
C70 O73 1.253 1_545 S
C70 O74 1.259 . S
O71 In65 2.266 . S
O71 C68 1.253 . S
O72 In65 2.326 1_565 S
O72 C68 1.259 1_565 S
O73 In65 2.266 1_565 S
O73 C70 1.253 1_565 S
O74 In65 2.326 . S
O74 C70 1.259 . S
C75 O66 1.240 . S
C75 O67 1.252 . S
O76 In65 2.294 1_565 S
O76 C69 1.240 . S
O77 In65 2.326 1_565 S
O77 C69 1.252 . S
In78 O79 2.294 . S
In78 O80 2.326 . S
In78 O84 2.266 . S
In78 O85 2.326 . S
In78 O86 2.266 . S
In78 O87 2.326 . S
In78 O89 2.294 . S
In78 O90 2.326 . S
O79 In78 2.294 . S
O79 C88 1.240 . S
O80 In78 2.326 . S
O80 C88 1.252 . S
C81 O84 1.252 . S
C81 O85 1.260 . S
C82 O89 1.240 . S
C82 O90 1.252 . S
C83 O86 1.252 . S
C83 O87 1.260 . S
O84 In78 2.266 . S
O84 C81 1.252 . S
O85 In78 2.326 . S
O85 C81 1.260 . S
O86 In78 2.266 . S
O86 C83 1.252 . S
O87 In78 2.326 . S
O87 C83 1.260 . S
C88 O79 1.240 . S
C88 O80 1.252 . S
O89 In78 2.294 . S
O89 C82 1.240 . S
O90 In78 2.326 . S
O90 C82 1.252 . S
In91 O92 2.294 1_545 S
In91 O93 2.326 1_545 S
In91 O97 2.266 1_545 S
In91 O98 2.326 . S
In91 O99 2.266 . S
In91 O100 2.326 1_545 S
In91 O102 2.294 . S
In91 O103 2.326 . S
O92 In91 2.294 1_565 S
O92 C101 1.240 . S
O93 In91 2.326 1_565 S
O93 C101 1.252 . S
C94 O97 1.253 1_545 S
C94 O98 1.259 . S
C95 O102 1.240 . S
C95 O103 1.252 . S
C96 O99 1.253 . S
C96 O100 1.259 1_545 S
O97 In91 2.266 1_565 S
O97 C94 1.253 1_565 S
O98 In91 2.326 . S
O98 C94 1.259 . S
O99 In91 2.266 . S
O99 C96 1.253 . S
O100 In91 2.326 1_565 S
O100 C96 1.259 1_565 S
C101 O92 1.240 . S
C101 O93 1.252 . S
O102 In91 2.294 . S
O102 C95 1.240 . S
O103 In91 2.326 . S
O103 C95 1.252 . S
In104 O105 2.294 . S
In104 O106 2.326 . S
In104 O110 2.266 . S
In104 O111 2.326 . S
In104 O112 2.266 . S
In104 O113 2.326 . S
In104 O115 2.294 . S
In104 O116 2.326 . S
O105 In104 2.294 . S
O105 C114 1.240 . S
O106 In104 2.326 . S
O106 C114 1.252 . S
C107 O110 1.252 . S
C107 O111 1.260 . S
C108 O115 1.240 . S
C108 O116 1.252 . S
C109 O112 1.252 . S
C109 O113 1.260 . S
O110 In104 2.266 . S
O110 C107 1.252 . S
O111 In104 2.326 . S
O111 C107 1.260 . S
O112 In104 2.266 . S
O112 C109 1.252 . S
O113 In104 2.326 . S
O113 C109 1.260 . S
C114 O105 1.240 . S
C114 O106 1.252 . S
O115 In104 2.294 . S
O115 C108 1.240 . S
O116 In104 2.326 . S
O116 C108 1.252 . S
In117 O118 2.294 . S
In117 O119 2.326 . S
In117 O123 2.266 . S
In117 O124 2.326 . S
In117 O125 2.266 . S
In117 O126 2.326 . S
In117 O128 2.294 . S
In117 O129 2.326 . S
O118 In117 2.294 . S
O118 C127 1.240 . S
O119 In117 2.326 . S
O119 C127 1.252 . S
C120 O123 1.252 . S
C120 O124 1.260 . S
C121 O128 1.240 . S
C121 O129 1.252 . S
C122 O125 1.252 . S
C122 O126 1.260 . S
O123 In117 2.266 . S
O123 C120 1.252 . S
O124 In117 2.326 . S
O124 C120 1.260 . S
O125 In117 2.266 . S
O125 C122 1.252 . S
O126 In117 2.326 . S
O126 C122 1.260 . S
C127 O118 1.240 . S
C127 O119 1.252 . S
O128 In117 2.294 . S
O128 C121 1.240 . S
O129 In117 2.326 . S
O129 C121 1.252 . S
In130 O131 2.294 1_554 S
In130 O132 2.326 . S
In130 O136 2.266 1_554 S
In130 O137 2.326 1_554 S
In130 O138 2.266 . S
In130 O139 2.326 . S
In130 O141 2.294 . S
In130 O142 2.326 1_554 S
O131 In130 2.294 1_556 S
O131 C140 1.240 1_556 S
O132 In130 2.326 . S
O132 C140 1.252 . S
C133 O136 1.252 . S
C133 O137 1.260 . S
C134 O141 1.240 1_556 S
C134 O142 1.252 . S
C135 O138 1.252 . S
C135 O139 1.260 . S
O136 In130 2.266 1_556 S
O136 C133 1.252 . S
O137 In130 2.326 1_556 S
O137 C133 1.260 . S
O138 In130 2.266 . S
O138 C135 1.252 . S
O139 In130 2.326 . S
O139 C135 1.260 . S
C140 O131 1.240 1_554 S
C140 O132 1.252 . S
O141 In130 2.294 . S
O141 C134 1.240 1_554 S
O142 In130 2.326 1_556 S
O142 C134 1.252 . S
In143 O144 2.294 . S
In143 O145 2.326 . S
In143 O149 2.266 . S
In143 O150 2.326 . S
In143 O151 2.266 . S
In143 O152 2.326 . S
In143 O154 2.294 . S
In143 O155 2.326 . S
O144 In143 2.294 . S
O144 C153 1.240 . S
O145 In143 2.326 . S
O145 C153 1.252 . S
C146 O149 1.252 . S
C146 O150 1.260 . S
C147 O154 1.240 . S
C147 O155 1.252 . S
C148 O151 1.252 . S
C148 O152 1.260 . S
O149 In143 2.266 . S
O149 C146 1.252 . S
O150 In143 2.326 . S
O150 C146 1.260 . S
O151 In143 2.266 . S
O151 C148 1.252 . S
O152 In143 2.326 . S
O152 C148 1.260 . S
C153 O144 1.240 . S
C153 O145 1.252 . S
O154 In143 2.294 . S
O154 C147 1.240 . S
O155 In143 2.326 . S
O155 C147 1.252 . S
In156 O157 2.294 . S
In156 O158 2.326 . S
In156 O162 2.266 . S
In156 O163 2.326 . S
In156 O164 2.266 . S
In156 O165 2.326 . S
In156 O167 2.294 . S
In156 O168 2.326 . S
O157 In156 2.294 . S
O157 C166 1.240 . S
O158 In156 2.326 . S
O158 C166 1.252 . S
C159 O162 1.252 . S
C159 O163 1.260 . S
C160 O167 1.240 . S
C160 O168 1.252 . S
C161 O164 1.252 . S
C161 O165 1.260 . S
O162 In156 2.266 . S
O162 C159 1.252 . S
O163 In156 2.326 . S
O163 C159 1.260 . S
O164 In156 2.266 . S
O164 C161 1.252 . S
O165 In156 2.326 . S
O165 C161 1.260 . S
C166 O157 1.240 . S
C166 O158 1.252 . S
O167 In156 2.294 . S
O167 C160 1.240 . S
O168 In156 2.326 . S
O168 C160 1.252 . S
In169 O170 2.294 . S
In169 O171 2.326 . S
In169 O175 2.266 . S
In169 O176 2.326 . S
In169 O177 2.266 . S
In169 O178 2.326 . S
In169 O180 2.294 . S
In169 O181 2.326 . S
O170 In169 2.294 . S
O170 C179 1.240 . S
O171 In169 2.326 . S
O171 C179 1.252 . S
C172 O175 1.252 . S
C172 O176 1.260 . S
C173 O180 1.240 . S
C173 O181 1.252 . S
C174 O177 1.252 . S
C174 O178 1.260 . S
O175 In169 2.266 . S
O175 C172 1.252 . S
O176 In169 2.326 . S
O176 C172 1.260 . S
O177 In169 2.266 . S
O177 C174 1.252 . S
O178 In169 2.326 . S
O178 C174 1.260 . S
C179 O170 1.240 . S
C179 O171 1.252 . S
O180 In169 2.294 . S
O180 C173 1.240 . S
O181 In169 2.326 . S
O181 C173 1.252 . S
In182 O183 2.294 . S
In182 O184 2.326 1_554 S
In182 O188 2.266 . S
In182 O189 2.326 . S
In182 O190 2.266 1_554 S
In182 O191 2.326 1_554 S
In182 O193 2.294 1_554 S
In182 O194 2.326 . S
O183 In182 2.294 . S
O183 C192 1.240 1_554 S
O184 In182 2.326 1_556 S
O184 C192 1.252 . S
C185 O188 1.252 . S
C185 O189 1.260 . S
C186 O193 1.240 1_554 S
C186 O194 1.252 . S
C187 O190 1.252 . S
C187 O191 1.260 . S
O188 In182 2.266 . S
O188 C185 1.252 . S
O189 In182 2.326 . S
O189 C185 1.260 . S
O190 In182 2.266 1_556 S
O190 C187 1.252 . S
O191 In182 2.326 1_556 S
O191 C187 1.260 . S
C192 O183 1.240 1_556 S
C192 O184 1.252 . S
O193 In182 2.294 1_556 S
O193 C186 1.240 1_556 S
O194 In182 2.326 . S
O194 C186 1.252 . S
In195 O196 2.294 . S
In195 O197 2.326 . S
In195 O201 2.266 . S
In195 O202 2.326 . S
In195 O203 2.266 . S
In195 O204 2.326 . S
In195 O206 2.294 . S
In195 O207 2.326 . S
O196 In195 2.294 . S
O196 C205 1.240 . S
O197 In195 2.326 . S
O197 C205 1.252 . S
C198 O201 1.252 . S
C198 O202 1.260 . S
C199 O206 1.240 . S
C199 O207 1.252 . S
C200 O203 1.252 . S
C200 O204 1.260 . S
O201 In195 2.266 . S
O201 C198 1.252 . S
O202 In195 2.326 . S
O202 C198 1.260 . S
O203 In195 2.266 . S
O203 C200 1.252 . S
O204 In195 2.326 . S
O204 C200 1.260 . S
C205 O196 1.240 . S
C205 O197 1.252 . S
O206 In195 2.294 . S
O206 C199 1.240 . S
O207 In195 2.326 . S
O207 C199 1.252 . S
C208 C209 1.363 . S
C208 C214 1.379 . S
C208 N216 1.356 . S
C209 C208 1.363 . S
C209 C215 1.363 . S
C210 C211 1.363 . S
C210 C215 1.379 . S
C210 N217 1.356 . S
C211 C210 1.363 . S
C211 C214 1.363 . S
N212 C214 1.356 . S
N212 H224 0.984 . S
N212 H225 0.985 . S
N213 C215 1.356 . S
N213 H218 0.984 . S
N213 H219 0.985 . S
C214 C208 1.379 . S
C214 C211 1.363 . S
C214 N212 1.356 . S
C215 C209 1.363 . S
C215 C210 1.379 . S
C215 N213 1.356 . S
N216 C208 1.356 . S
N216 H222 0.984 . S
N216 H223 0.984 . S
N217 C210 1.356 . S
N217 H220 0.984 . S
N217 H221 0.985 . S
H218 N213 0.984 . S
H219 N213 0.985 . S
H220 N217 0.984 . S
H221 N217 0.985 . S
H222 N216 0.984 . S
H223 N216 0.984 . S
H224 N212 0.984 . S
H225 N212 0.985 . S
C226 C227 1.349 1_565 S
C226 C232 1.379 1_655 S
C226 N234 1.356 . S
C227 C226 1.349 1_545 S
C227 C233 1.377 . S
C228 C229 1.355 1_545 S
C228 C233 1.379 1_455 S
C228 N235 1.356 . S
C229 C228 1.355 1_565 S
C229 C232 1.370 . S
N230 C232 1.356 . S
N230 H242 0.984 1_455 S
N230 H243 0.985 . S
N231 C233 1.356 . S
N231 H236 0.984 . S
N231 H237 0.985 1_655 S
C232 C226 1.379 1_455 S
C232 C229 1.370 . S
C232 N230 1.356 . S
C233 C227 1.377 . S
C233 C228 1.379 1_655 S
C233 N231 1.356 . S
N234 C226 1.356 . S
N234 H240 0.984 . S
N234 H241 0.984 . S
N235 C228 1.356 . S
N235 H238 0.984 . S
N235 H239 0.985 . S
H236 N231 0.984 . S
H237 N231 0.985 1_455 S
H238 N235 0.984 . S
H239 N235 0.985 . S
H240 N234 0.984 . S
H241 N234 0.984 . S
H242 N230 0.984 1_655 S
H243 N230 0.985 . S
C244 C245 1.363 . S
C244 C250 1.379 . S
C244 N252 1.356 . S
C245 C244 1.363 . S
C245 C251 1.363 . S
C246 C247 1.363 . S
C246 C251 1.379 . S
C246 N253 1.356 . S
C247 C246 1.363 . S
C247 C250 1.363 . S
N248 C250 1.356 . S
N248 H260 0.984 . S
N248 H261 0.985 . S
N249 C251 1.356 . S
N249 H254 0.984 . S
N249 H255 0.985 . S
C250 C244 1.379 . S
C250 C247 1.363 . S
C250 N248 1.356 . S
C251 C245 1.363 . S
C251 C246 1.379 . S
C251 N249 1.356 . S
N252 C244 1.356 . S
N252 H258 0.984 . S
N252 H259 0.984 . S
N253 C246 1.356 . S
N253 H256 0.984 . S
N253 H257 0.985 . S
H254 N249 0.984 . S
H255 N249 0.985 . S
H256 N253 0.984 . S
H257 N253 0.985 . S
H258 N252 0.984 . S
H259 N252 0.984 . S
H260 N248 0.984 . S
H261 N248 0.985 . S
C262 C263 1.347 1_565 S
C262 C268 1.379 1_554 S
C262 N270 1.356 . S
C263 C262 1.347 1_545 S
C263 C269 1.379 . S
C264 C265 1.354 1_545 S
C264 C269 1.379 1_556 S
C264 N271 1.356 . S
C265 C264 1.354 1_565 S
C265 C268 1.372 . S
N266 C268 1.356 . S
N266 H278 0.984 . S
N266 H279 0.985 . S
N267 C269 1.356 . S
N267 H272 0.984 . S
N267 H273 0.985 . S
C268 C262 1.379 1_556 S
C268 C265 1.372 . S
C268 N266 1.356 . S
C269 C263 1.379 . S
C269 C264 1.379 1_554 S
C269 N267 1.356 . S
N270 C262 1.356 . S
N270 H276 0.984 . S
N270 H277 0.984 . S
N271 C264 1.356 . S
N271 H274 0.984 . S
N271 H275 0.985 . S
H272 N267 0.984 . S
H273 N267 0.985 . S
H274 N271 0.984 . S
H275 N271 0.985 . S
H276 N270 0.984 . S
H277 N270 0.984 . S
H278 N266 0.984 . S
H279 N266 0.985 . S
C280 C281 1.363 . S
C280 C286 1.379 . S
C280 N288 1.356 . S
C281 C280 1.363 . S
C281 C287 1.363 . S
C282 C283 1.363 . S
C282 C287 1.379 . S
C282 N289 1.356 . S
C283 C282 1.363 . S
C283 C286 1.363 . S
N284 C286 1.356 . S
N284 H296 0.984 . S
N284 H297 0.985 . S
N285 C287 1.356 . S
N285 H290 0.984 . S
N285 H291 0.985 . S
C286 C280 1.379 . S
C286 C283 1.363 . S
C286 N284 1.356 . S
C287 C281 1.363 . S
C287 C282 1.379 . S
C287 N285 1.356 . S
N288 C280 1.356 . S
N288 H294 0.984 . S
N288 H295 0.984 . S
N289 C282 1.356 . S
N289 H292 0.984 . S
N289 H293 0.985 . S
H290 N285 0.984 . S
H291 N285 0.985 . S
H292 N289 0.984 . S
H293 N289 0.985 . S
H294 N288 0.984 . S
H295 N288 0.984 . S
H296 N284 0.984 . S
H297 N284 0.985 . S
C298 C299 1.370 . S
C298 C304 1.379 . S
C298 N306 1.356 . S
C299 C298 1.370 . S
C299 C305 1.355 1_565 S
C300 C301 1.377 . S
C300 C305 1.379 . S
C300 N307 1.356 . S
C301 C300 1.377 . S
C301 C304 1.349 1_545 S
N302 C304 1.356 . S
N302 H314 0.984 . S
N302 H315 0.985 . S
N303 C305 1.356 . S
N303 H308 0.984 . S
N303 H309 0.985 . S
C304 C298 1.379 . S
C304 C301 1.349 1_565 S
C304 N302 1.356 . S
C305 C299 1.355 1_545 S
C305 C300 1.379 . S
C305 N303 1.356 . S
N306 C298 1.356 . S
N306 H312 0.984 . S
N306 H313 0.984 . S
N307 C300 1.356 . S
N307 H310 0.984 . S
N307 H311 0.985 . S
H308 N303 0.984 . S
H309 N303 0.985 . S
H310 N307 0.984 . S
H311 N307 0.985 . S
H312 N306 0.984 . S
H313 N306 0.984 . S
H314 N302 0.984 . S
H315 N302 0.985 . S
C316 C317 1.363 . S
C316 C322 1.379 . S
C316 N324 1.356 . S
C317 C316 1.363 . S
C317 C323 1.363 . S
C318 C319 1.363 . S
C318 C323 1.379 . S
C318 N325 1.356 . S
C319 C318 1.363 . S
C319 C322 1.363 . S
N320 C322 1.356 . S
N320 H332 0.984 . S
N320 H333 0.985 . S
N321 C323 1.356 . S
N321 H326 0.984 . S
N321 H327 0.985 . S
C322 C316 1.379 . S
C322 C319 1.363 . S
C322 N320 1.356 . S
C323 C317 1.363 . S
C323 C318 1.379 . S
C323 N321 1.356 . S
N324 C316 1.356 . S
N324 H330 0.984 . S
N324 H331 0.984 . S
N325 C318 1.356 . S
N325 H328 0.984 . S
N325 H329 0.985 . S
H326 N321 0.984 . S
H327 N321 0.985 . S
H328 N325 0.984 . S
H329 N325 0.985 . S
H330 N324 0.984 . S
H331 N324 0.984 . S
H332 N320 0.984 . S
H333 N320 0.985 . S
C334 C335 1.377 1_554 S
C334 C340 1.379 1_455 S
C334 N342 1.356 1_554 S
C335 C334 1.377 1_556 S
C335 C341 1.349 1_545 S
C336 C337 1.370 1_556 S
C336 C341 1.379 1_655 S
C336 N343 1.356 1_556 S
C337 C336 1.370 1_554 S
C337 C340 1.356 1_565 S
N338 C340 1.356 . S
N338 H350 0.984 1_655 S
N338 H351 0.985 . S
N339 C341 1.356 . S
N339 H344 0.984 . S
N339 H345 0.984 1_455 S
C340 C334 1.379 1_655 S
C340 C337 1.356 1_545 S
C340 N338 1.356 . S
C341 C335 1.349 1_565 S
C341 C336 1.379 1_455 S
C341 N339 1.356 . S
N342 C334 1.356 1_556 S
N342 H348 0.984 1_556 S
N342 H349 0.984 . S
N343 C336 1.356 1_554 S
N343 H346 0.984 . S
N343 H347 0.985 1_554 S
H344 N339 0.984 . S
H345 N339 0.984 1_655 S
H346 N343 0.984 . S
H347 N343 0.985 1_556 S
H348 N342 0.984 1_554 S
H349 N342 0.984 . S
H350 N338 0.984 1_455 S
H351 N338 0.985 . S
C352 C353 1.363 . S
C352 C358 1.379 . S
C352 N360 1.356 . S
C353 C352 1.363 . S
C353 C359 1.363 . S
C354 C355 1.363 . S
C354 C359 1.379 . S
C354 N361 1.356 . S
C355 C354 1.363 . S
C355 C358 1.363 . S
N356 C358 1.356 . S
N356 H368 0.984 . S
N356 H369 0.985 . S
N357 C359 1.356 . S
N357 H362 0.984 . S
N357 H363 0.985 . S
C358 C352 1.379 . S
C358 C355 1.363 . S
C358 N356 1.356 . S
C359 C353 1.363 . S
C359 C354 1.379 . S
C359 N357 1.356 . S
N360 C352 1.356 . S
N360 H366 0.984 . S
N360 H367 0.984 . S
N361 C354 1.356 . S
N361 H364 0.984 . S
N361 H365 0.985 . S
H362 N357 0.984 . S
H363 N357 0.985 . S
H364 N361 0.984 . S
H365 N361 0.985 . S
H366 N360 0.984 . S
H367 N360 0.984 . S
H368 N356 0.984 . S
H369 N356 0.985 . S
C370 C371 1.363 . S
C370 C376 1.379 . S
C370 N378 1.356 . S
C371 C370 1.363 . S
C371 C377 1.363 . S
C372 C373 1.363 . S
C372 C377 1.379 . S
C372 N379 1.356 . S
C373 C372 1.363 . S
C373 C376 1.363 . S
N374 C376 1.356 . S
N374 H386 0.984 . S
N374 H387 0.985 . S
N375 C377 1.356 . S
N375 H380 0.984 . S
N375 H381 0.985 . S
C376 C370 1.379 . S
C376 C373 1.363 . S
C376 N374 1.356 . S
C377 C371 1.363 . S
C377 C372 1.379 . S
C377 N375 1.356 . S
N378 C370 1.356 . S
N378 H384 0.984 . S
N378 H385 0.984 . S
N379 C372 1.356 . S
N379 H382 0.984 . S
N379 H383 0.985 . S
H380 N375 0.984 . S
H381 N375 0.985 . S
H382 N379 0.984 . S
H383 N379 0.985 . S
H384 N378 0.984 . S
H385 N378 0.984 . S
H386 N374 0.984 . S
H387 N374 0.985 . S
C388 C389 1.363 . S
C388 C394 1.379 . S
C388 N396 1.356 . S
C389 C388 1.363 . S
C389 C395 1.363 . S
C390 C391 1.363 . S
C390 C395 1.379 . S
C390 N397 1.356 . S
C391 C390 1.363 . S
C391 C394 1.363 . S
N392 C394 1.356 . S
N392 H404 0.984 . S
N392 H405 0.985 . S
N393 C395 1.356 . S
N393 H398 0.984 . S
N393 H399 0.985 . S
C394 C388 1.379 . S
C394 C391 1.363 . S
C394 N392 1.356 . S
C395 C389 1.363 . S
C395 C390 1.379 . S
C395 N393 1.356 . S
N396 C388 1.356 . S
N396 H402 0.984 . S
N396 H403 0.984 . S
N397 C390 1.356 . S
N397 H400 0.984 . S
N397 H401 0.985 . S
H398 N393 0.984 . S
H399 N393 0.985 . S
H400 N397 0.984 . S
H401 N397 0.985 . S
H402 N396 0.984 . S
H403 N396 0.984 . S
H404 N392 0.984 . S
H405 N392 0.985 . S
C406 C407 1.363 . S
C406 C412 1.379 . S
C406 N414 1.356 . S
C407 C406 1.363 . S
C407 C413 1.363 . S
C408 C409 1.363 . S
C408 C413 1.379 . S
C408 N415 1.356 . S
C409 C408 1.363 . S
C409 C412 1.363 . S
N410 C412 1.356 . S
N410 H422 0.984 . S
N410 H423 0.985 . S
N411 C413 1.356 . S
N411 H416 0.984 . S
N411 H417 0.985 . S
C412 C406 1.379 . S
C412 C409 1.363 . S
C412 N410 1.356 . S
C413 C407 1.363 . S
C413 C408 1.379 . S
C413 N411 1.356 . S
N414 C406 1.356 . S
N414 H420 0.984 . S
N414 H421 0.984 . S
N415 C408 1.356 . S
N415 H418 0.984 . S
N415 H419 0.985 . S
H416 N411 0.984 . S
H417 N411 0.985 . S
H418 N415 0.984 . S
H419 N415 0.985 . S
H420 N414 0.984 . S
H421 N414 0.984 . S
H422 N410 0.984 . S
H423 N410 0.985 . S
C424 C425 1.363 1_556 S
C424 C430 1.379 . S
C424 N432 1.356 1_556 S
C425 C424 1.363 1_554 S
C425 C431 1.363 . S
C426 C427 1.363 1_554 S
C426 C431 1.379 . S
C426 N433 1.356 1_554 S
C427 C426 1.363 1_556 S
C427 C430 1.363 . S
N428 C430 1.356 . S
N428 H440 0.984 . S
N428 H441 0.985 . S
N429 C431 1.356 . S
N429 H434 0.984 . S
N429 H435 0.985 . S
C430 C424 1.379 . S
C430 C427 1.363 . S
C430 N428 1.356 . S
C431 C425 1.363 . S
C431 C426 1.379 . S
C431 N429 1.356 . S
N432 C424 1.356 1_554 S
N432 H438 0.984 1_554 S
N432 H439 0.984 . S
N433 C426 1.356 1_556 S
N433 H436 0.984 . S
N433 H437 0.985 1_556 S
H434 N429 0.984 . S
H435 N429 0.985 . S
H436 N433 0.984 . S
H437 N433 0.985 1_554 S
H438 N432 0.984 1_556 S
H439 N432 0.984 . S
H440 N428 0.984 . S
H441 N428 0.985 . S
C442 C443 1.363 . S
C442 C448 1.379 1_455 S
C442 N450 1.356 . S
C443 C442 1.363 . S
C443 C449 1.363 . S
C444 C445 1.363 . S
C444 C449 1.379 1_655 S
C444 N451 1.356 . S
C445 C444 1.363 . S
C445 C448 1.363 . S
N446 C448 1.356 . S
N446 H458 0.984 . S
N446 H459 0.985 . S
N447 C449 1.356 . S
N447 H452 0.984 . S
N447 H453 0.985 . S
C448 C442 1.379 1_655 S
C448 C445 1.363 . S
C448 N446 1.356 . S
C449 C443 1.363 . S
C449 C444 1.379 1_455 S
C449 N447 1.356 . S
N450 C442 1.356 . S
N450 H456 0.982 . S
N450 H457 0.984 . S
N451 C444 1.356 . S
N451 H454 0.984 . S
N451 H455 0.982 . S
H452 N447 0.984 . S
H453 N447 0.985 . S
H454 N451 0.984 . S
H455 N451 0.982 . S
H456 N450 0.982 . S
H457 N450 0.984 . S
H458 N446 0.984 . S
H459 N446 0.985 . S
C460 C461 1.363 1_556 S
C460 C466 1.379 1_455 S
C460 N468 1.356 1_556 S
C461 C460 1.363 1_554 S
C461 C467 1.363 . S
C462 C463 1.363 1_554 S
C462 C467 1.379 1_655 S
C462 N469 1.356 1_554 S
C463 C462 1.363 1_556 S
C463 C466 1.363 . S
N464 C466 1.356 . S
N464 H476 0.989 . S
N464 H477 0.985 . S
N465 C467 1.356 . S
N465 H470 0.984 . S
N465 H471 0.989 . S
C466 C460 1.379 1_655 S
C466 C463 1.363 . S
C466 N464 1.356 . S
C467 C461 1.363 . S
C467 C462 1.379 1_455 S
C467 N465 1.356 . S
N468 C460 1.356 1_554 S
N468 H474 0.984 1_554 S
N468 H475 0.984 . S
N469 C462 1.356 1_556 S
N469 H472 0.984 . S
N469 H473 0.985 1_556 S
H470 N465 0.984 . S
H471 N465 0.989 . S
H472 N469 0.984 . S
H473 N469 0.985 1_554 S
H474 N468 0.984 1_556 S
H475 N468 0.984 . S
H476 N464 0.989 . S
H477 N464 0.985 . S
C478 C479 1.363 . S
C478 C484 1.379 . S
C478 N486 1.356 . S
C479 C478 1.363 . S
C479 C485 1.363 . S
C480 C481 1.363 . S
C480 C485 1.379 . S
C480 N487 1.356 . S
C481 C480 1.363 . S
C481 C484 1.363 . S
N482 C484 1.356 . S
N482 H494 0.984 . S
N482 H495 0.985 . S
N483 C485 1.356 . S
N483 H488 0.984 . S
N483 H489 0.985 . S
C484 C478 1.379 . S
C484 C481 1.363 . S
C484 N482 1.356 . S
C485 C479 1.363 . S
C485 C480 1.379 . S
C485 N483 1.356 . S
N486 C478 1.356 . S
N486 H492 0.984 . S
N486 H493 0.984 . S
N487 C480 1.356 . S
N487 H490 0.984 . S
N487 H491 0.985 . S
H488 N483 0.984 . S
H489 N483 0.985 . S
H490 N487 0.984 . S
H491 N487 0.985 . S
H492 N486 0.984 . S
H493 N486 0.984 . S
H494 N482 0.984 . S
H495 N482 0.985 . S
C496 C497 1.363 . S
C496 C502 1.379 . S
C496 N504 1.356 . S
C497 C496 1.363 . S
C497 C503 1.363 . S
C498 C499 1.363 . S
C498 C503 1.379 . S
C498 N505 1.356 . S
C499 C498 1.363 . S
C499 C502 1.363 . S
N500 C502 1.356 1_556 S
N500 H512 0.984 . S
N500 H513 0.985 . S
N501 C503 1.356 . S
N501 H506 0.984 . S
N501 H507 0.985 . S
C502 C496 1.379 . S
C502 C499 1.363 . S
C502 N500 1.356 1_554 S
C503 C497 1.363 . S
C503 C498 1.379 . S
C503 N501 1.356 . S
N504 C496 1.356 . S
N504 H510 0.984 1_554 S
N504 H511 0.984 . S
N505 C498 1.356 . S
N505 H508 0.984 . S
N505 H509 0.985 . S
H506 N501 0.984 . S
H507 N501 0.985 . S
H508 N505 0.984 . S
H509 N505 0.985 . S
H510 N504 0.984 1_556 S
H511 N504 0.984 . S
H512 N500 0.984 . S
H513 N500 0.985 . S
C514 C515 1.363 . S
C514 C520 1.379 . S
C514 N522 1.356 . S
C515 C514 1.363 . S
C515 C521 1.363 . S
C516 C517 1.363 . S
C516 C521 1.379 . S
C516 N523 1.356 . S
C517 C516 1.363 . S
C517 C520 1.363 . S
N518 C520 1.356 . S
N518 H530 0.984 . S
N518 H531 0.985 . S
N519 C521 1.356 . S
N519 H524 0.984 . S
N519 H525 0.985 . S
C520 C514 1.379 . S
C520 C517 1.363 . S
C520 N518 1.356 . S
C521 C515 1.363 . S
C521 C516 1.379 . S
C521 N519 1.356 . S
N522 C514 1.356 . S
N522 H528 0.984 . S
N522 H529 0.984 . S
N523 C516 1.356 . S
N523 H526 0.984 . S
N523 H527 0.985 . S
H524 N519 0.984 . S
H525 N519 0.985 . S
H526 N523 0.984 . S
H527 N523 0.985 . S
H528 N522 0.984 . S
H529 N522 0.984 . S
H530 N518 0.984 . S
H531 N518 0.985 . S
C532 C533 1.363 . S
C532 C538 1.379 . S
C532 N540 1.356 . S
C533 C532 1.363 . S
C533 C539 1.363 . S
C534 C535 1.363 . S
C534 C539 1.379 . S
C534 N541 1.356 . S
C535 C534 1.363 . S
C535 C538 1.363 . S
N536 C538 1.356 . S
N536 H548 0.984 . S
N536 H549 0.985 . S
N537 C539 1.356 . S
N537 H542 0.984 . S
N537 H543 0.985 . S
C538 C532 1.379 . S
C538 C535 1.363 . S
C538 N536 1.356 . S
C539 C533 1.363 . S
C539 C534 1.379 . S
C539 N537 1.356 . S
N540 C532 1.356 . S
N540 H546 0.984 . S
N540 H547 0.984 . S
N541 C534 1.356 . S
N541 H544 0.984 . S
N541 H545 0.985 . S
H542 N537 0.984 . S
H543 N537 0.985 . S
H544 N541 0.984 . S
H545 N541 0.985 . S
H546 N540 0.984 . S
H547 N540 0.984 . S
H548 N536 0.984 . S
H549 N536 0.985 . S
C550 C551 1.363 . S
C550 C556 1.379 . S
C550 N558 1.356 1_556 S
C551 C550 1.363 . S
C551 C557 1.363 . S
C552 C553 1.363 . S
C552 C557 1.379 . S
C552 N559 1.356 . S
C553 C552 1.363 . S
C553 C556 1.363 . S
N554 C556 1.356 . S
N554 H566 0.984 1_556 S
N554 H567 0.985 . S
N555 C557 1.356 . S
N555 H560 0.984 . S
N555 H561 0.985 . S
C556 C550 1.379 . S
C556 C553 1.363 . S
C556 N554 1.356 . S
C557 C551 1.363 . S
C557 C552 1.379 . S
C557 N555 1.356 . S
N558 C550 1.356 1_554 S
N558 H564 0.984 . S
N558 H565 0.984 . S
N559 C552 1.356 . S
N559 H562 0.984 . S
N559 H563 0.985 . S
H560 N555 0.984 . S
H561 N555 0.985 . S
H562 N559 0.984 . S
H563 N559 0.985 . S
H564 N558 0.984 . S
H565 N558 0.984 . S
H566 N554 0.984 1_554 S
H567 N554 0.985 . S
C568 C569 1.363 . S
C568 C574 1.379 . S
C568 N576 1.356 . S
C569 C568 1.363 . S
C569 C575 1.363 . S
C570 C571 1.363 . S
C570 C575 1.379 . S
C570 N577 1.356 . S
C571 C570 1.363 . S
C571 C574 1.363 . S
N572 C574 1.356 . S
N572 H584 0.984 . S
N572 H585 0.985 . S
N573 C575 1.356 . S
N573 H578 0.984 . S
N573 H579 0.985 . S
C574 C568 1.379 . S
C574 C571 1.363 . S
C574 N572 1.356 . S
C575 C569 1.363 . S
C575 C570 1.379 . S
C575 N573 1.356 . S
N576 C568 1.356 . S
N576 H582 0.984 . S
N576 H583 0.984 . S
N577 C570 1.356 . S
N577 H580 0.984 . S
N577 H581 0.985 . S
H578 N573 0.984 . S
H579 N573 0.985 . S
H580 N577 0.984 . S
H581 N577 0.985 . S
H582 N576 0.984 . S
H583 N576 0.984 . S
H584 N572 0.984 . S
H585 N572 0.985 . S
C586 C587 1.363 . S
C586 C592 1.379 . S
C586 N594 1.356 . S
C587 C586 1.363 . S
C587 C593 1.363 . S
C588 C589 1.363 . S
C588 C593 1.379 . S
C588 N595 1.356 . S
C589 C588 1.363 . S
C589 C592 1.363 . S
N590 C592 1.356 . S
N590 H602 0.984 . S
N590 H603 0.985 . S
N591 C593 1.356 . S
N591 H596 0.984 . S
N591 H597 0.985 . S
C592 C586 1.379 . S
C592 C589 1.363 . S
C592 N590 1.356 . S
C593 C587 1.363 . S
C593 C588 1.379 . S
C593 N591 1.356 . S
N594 C586 1.356 . S
N594 H600 0.984 . S
N594 H601 0.984 . S
N595 C588 1.356 . S
N595 H598 0.984 . S
N595 H599 0.985 . S
H596 N591 0.984 . S
H597 N591 0.985 . S
H598 N595 0.984 . S
H599 N595 0.985 . S
H600 N594 0.984 . S
H601 N594 0.984 . S
H602 N590 0.984 . S
H603 N590 0.985 . S
C604 C605 1.363 . S
C604 C610 1.379 . S
C604 N612 1.356 . S
C605 C604 1.363 . S
C605 C611 1.363 . S
C606 C607 1.363 . S
C606 C611 1.379 . S
C606 N613 1.356 1_556 S
C607 C606 1.363 . S
C607 C610 1.363 . S
N608 C610 1.356 . S
N608 H620 0.984 . S
N608 H621 0.985 . S
N609 C611 1.356 . S
N609 H614 0.984 . S
N609 H615 0.985 1_556 S
C610 C604 1.379 . S
C610 C607 1.363 . S
C610 N608 1.356 . S
C611 C605 1.363 . S
C611 C606 1.379 . S
C611 N609 1.356 . S
N612 C604 1.356 . S
N612 H618 0.984 . S
N612 H619 0.984 . S
N613 C606 1.356 1_554 S
N613 H616 0.984 . S
N613 H617 0.985 . S
H614 N609 0.984 . S
H615 N609 0.985 1_554 S
H616 N613 0.984 . S
H617 N613 0.985 . S
H618 N612 0.984 . S
H619 N612 0.984 . S
H620 N608 0.984 . S
H621 N608 0.985 . S
C622 C623 1.363 . S
C622 C628 1.379 . S
C622 N630 1.356 . S
C623 C622 1.363 . S
C623 C629 1.363 . S
C624 C625 1.363 . S
C624 C629 1.379 . S
C624 N631 1.356 . S
C625 C624 1.363 . S
C625 C628 1.363 . S
N626 C628 1.356 . S
N626 H638 0.984 . S
N626 H639 0.985 . S
N627 C629 1.356 . S
N627 H632 0.984 . S
N627 H633 0.985 . S
C628 C622 1.379 . S
C628 C625 1.363 . S
C628 N626 1.356 . S
C629 C623 1.363 . S
C629 C624 1.379 . S
C629 N627 1.356 . S
N630 C622 1.356 . S
N630 H636 0.984 1_554 S
N630 H637 0.983 1_554 S
N631 C624 1.356 . S
N631 H634 0.984 . S
N631 H635 0.985 . S
H632 N627 0.984 . S
H633 N627 0.985 . S
H634 N631 0.984 . S
H635 N631 0.985 . S
H636 N630 0.984 1_556 S
H637 N630 0.983 1_556 S
H638 N626 0.984 . S
H639 N626 0.985 . S
C640 C641 1.363 . S
C640 C646 1.379 . S
C640 N648 1.356 1_556 S
C641 C640 1.363 . S
C641 C647 1.363 . S
C642 C643 1.363 . S
C642 C647 1.379 . S
C642 N649 1.356 . S
C643 C642 1.363 . S
C643 C646 1.363 . S
N644 C646 1.356 . S
N644 H656 0.984 1_556 S
N644 H657 0.985 . S
N645 C647 1.356 . S
N645 H650 0.984 . S
N645 H651 0.985 . S
C646 C640 1.379 . S
C646 C643 1.363 . S
C646 N644 1.356 . S
C647 C641 1.363 . S
C647 C642 1.379 . S
C647 N645 1.356 . S
N648 C640 1.356 1_554 S
N648 H654 0.984 . S
N648 H655 0.984 . S
N649 C642 1.356 . S
N649 H652 0.984 . S
N649 H653 0.985 . S
H650 N645 0.984 . S
H651 N645 0.985 . S
H652 N649 0.984 . S
H653 N649 0.985 . S
H654 N648 0.984 . S
H655 N648 0.984 . S
H656 N644 0.984 1_554 S
H657 N644 0.985 . S
C658 C659 1.363 . S
C658 C664 1.379 . S
C658 N666 1.356 . S
C659 C658 1.363 . S
C659 C665 1.363 . S
C660 C661 1.363 . S
C660 C665 1.379 . S
C660 N667 1.356 . S
C661 C660 1.363 . S
C661 C664 1.363 . S
N662 C664 1.356 . S
N662 H674 0.984 . S
N662 H675 0.985 . S
N663 C665 1.356 . S
N663 H668 0.984 . S
N663 H669 0.985 . S
C664 C658 1.379 . S
C664 C661 1.363 . S
C664 N662 1.356 . S
C665 C659 1.363 . S
C665 C660 1.379 . S
C665 N663 1.356 . S
N666 C658 1.356 . S
N666 H672 0.984 . S
N666 H673 0.984 . S
N667 C660 1.356 . S
N667 H670 0.984 . S
N667 H671 0.985 . S
H668 N663 0.984 . S
H669 N663 0.985 . S
H670 N667 0.984 . S
H671 N667 0.985 . S
H672 N666 0.984 . S
H673 N666 0.984 . S
H674 N662 0.984 . S
H675 N662 0.985 . S
C676 C677 1.363 . S
C676 C682 1.379 . S
C676 N684 1.356 . S
C677 C676 1.363 . S
C677 C683 1.363 . S
C678 C679 1.363 . S
C678 C683 1.379 . S
C678 N685 1.356 . S
C679 C678 1.363 . S
C679 C682 1.363 . S
N680 C682 1.356 . S
N680 H692 0.984 . S
N680 H693 0.985 . S
N681 C683 1.356 . S
N681 H686 0.984 . S
N681 H687 0.985 . S
C682 C676 1.379 . S
C682 C679 1.363 . S
C682 N680 1.356 . S
C683 C677 1.363 . S
C683 C678 1.379 . S
C683 N681 1.356 . S
N684 C676 1.356 . S
N684 H690 0.984 . S
N684 H691 0.984 . S
N685 C678 1.356 . S
N685 H688 0.984 . S
N685 H689 0.985 . S
H686 N681 0.984 . S
H687 N681 0.985 . S
H688 N685 0.984 . S
H689 N685 0.985 . S
H690 N684 0.984 . S
H691 N684 0.984 . S
H692 N680 0.984 . S
H693 N680 0.985 . S
C694 C695 1.363 . S
C694 C700 1.379 . S
C694 N702 1.356 . S
C695 C694 1.363 . S
C695 C701 1.363 . S
C696 C697 1.363 . S
C696 C701 1.379 . S
C696 N703 1.356 1_554 S
C697 C696 1.363 . S
C697 C700 1.363 . S
N698 C700 1.356 . S
N698 H710 0.984 . S
N698 H711 0.985 . S
N699 C701 1.356 . S
N699 H704 0.984 . S
N699 H705 0.985 1_554 S
C700 C694 1.379 . S
C700 C697 1.363 . S
C700 N698 1.356 . S
C701 C695 1.363 . S
C701 C696 1.379 . S
C701 N699 1.356 . S
N702 C694 1.356 . S
N702 H708 0.984 . S
N702 H709 0.984 . S
N703 C696 1.356 1_556 S
N703 H706 0.984 . S
N703 H707 0.985 . S
H704 N699 0.984 . S
H705 N699 0.985 1_556 S
H706 N703 0.984 . S
H707 N703 0.985 . S
H708 N702 0.984 . S
H709 N702 0.984 . S
H710 N698 0.984 . S
H711 N698 0.985 . S
C712 C713 1.363 . S
C712 C718 1.379 . S
C712 N720 1.356 . S
C713 C712 1.363 . S
C713 C719 1.363 . S
C714 C715 1.363 . S
C714 C719 1.379 . S
C714 N721 1.356 . S
C715 C714 1.363 . S
C715 C718 1.363 . S
N716 C718 1.356 . S
N716 H728 0.984 . S
N716 H729 0.985 . S
N717 C719 1.356 . S
N717 H722 0.984 . S
N717 H723 0.985 . S
C718 C712 1.379 . S
C718 C715 1.363 . S
C718 N716 1.356 . S
C719 C713 1.363 . S
C719 C714 1.379 . S
C719 N717 1.356 . S
N720 C712 1.356 . S
N720 H726 0.984 . S
N720 H727 0.984 . S
N721 C714 1.356 . S
N721 H724 0.984 . S
N721 H725 0.985 . S
H722 N717 0.984 . S
H723 N717 0.985 . S
H724 N721 0.984 . S
H725 N721 0.985 . S
H726 N720 0.984 . S
H727 N720 0.984 . S
H728 N716 0.984 . S
H729 N716 0.985 . S
C730 C731 1.363 . S
C730 C736 1.379 . S
C730 N738 1.356 . S
C731 C730 1.363 . S
C731 C737 1.363 . S
C732 C733 1.363 . S
C732 C737 1.379 . S
C732 N739 1.356 . S
C733 C732 1.363 . S
C733 C736 1.363 . S
N734 C736 1.356 . S
N734 H746 0.984 . S
N734 H747 0.985 . S
N735 C737 1.356 . S
N735 H740 0.984 . S
N735 H741 0.985 . S
C736 C730 1.379 . S
C736 C733 1.363 . S
C736 N734 1.356 . S
C737 C731 1.363 . S
C737 C732 1.379 . S
C737 N735 1.356 . S
N738 C730 1.356 . S
N738 H744 0.984 . S
N738 H745 0.984 . S
N739 C732 1.356 . S
N739 H742 0.984 . S
N739 H743 0.985 . S
H740 N735 0.984 . S
H741 N735 0.985 . S
H742 N739 0.984 . S
H743 N739 0.985 . S
H744 N738 0.984 . S
H745 N738 0.984 . S
H746 N734 0.984 . S
H747 N734 0.985 . S
C748 C749 1.363 . S
C748 C754 1.379 . S
C748 N756 1.356 . S
C749 C748 1.363 . S
C749 C755 1.363 . S
C750 C751 1.363 . S
C750 C755 1.379 . S
C750 N757 1.356 . S
C751 C750 1.363 . S
C751 C754 1.363 . S
N752 C754 1.356 1_556 S
N752 H764 0.984 . S
N752 H765 0.985 . S
N753 C755 1.356 . S
N753 H758 0.984 . S
N753 H759 0.985 . S
C754 C748 1.379 . S
C754 C751 1.363 . S
C754 N752 1.356 1_554 S
C755 C749 1.363 . S
C755 C750 1.379 . S
C755 N753 1.356 . S
N756 C748 1.356 . S
N756 H762 0.984 . S
N756 H763 0.984 . S
N757 C750 1.356 . S
N757 H760 0.984 . S
N757 H761 0.985 . S
H758 N753 0.984 . S
H759 N753 0.985 . S
H760 N757 0.984 . S
H761 N757 0.985 . S
H762 N756 0.984 . S
H763 N756 0.984 . S
H764 N752 0.984 . S
H765 N752 0.985 . S
C766 C767 1.363 . S
C766 C772 1.379 . S
C766 N774 1.356 . S
C767 C766 1.363 . S
C767 C773 1.363 . S
C768 C769 1.363 . S
C768 C773 1.379 . S
C768 N775 1.356 . S
C769 C768 1.363 . S
C769 C772 1.363 . S
N770 C772 1.356 . S
N770 H782 0.984 . S
N770 H783 0.985 . S
N771 C773 1.356 1_554 S
N771 H776 0.984 . S
N771 H777 0.985 . S
C772 C766 1.379 . S
C772 C769 1.363 . S
C772 N770 1.356 . S
C773 C767 1.363 . S
C773 C768 1.379 . S
C773 N771 1.356 1_556 S
N774 C766 1.356 . S
N774 H780 0.984 . S
N774 H781 0.984 . S
N775 C768 1.356 . S
N775 H778 0.984 . S
N775 H779 0.985 1_556 S
H776 N771 0.984 . S
H777 N771 0.985 . S
H778 N775 0.984 . S
H779 N775 0.985 1_554 S
H780 N774 0.984 . S
H781 N774 0.984 . S
H782 N770 0.984 . S
H783 N770 0.985 . S
C209 C5 1.475 . S
C211 C161 1.474 . S
C227 C16 1.474 . S
C229 C70 1.475 1_565 S
C245 C31 1.475 . S
C247 C187 1.476 . S
C263 C96 1.475 . S
C265 C44 1.475 1_565 S
C281 C185 1.475 . S
C283 C29 1.474 . S
C299 C94 1.475 1_565 S
C301 C42 1.474 . S
C317 C159 1.475 . S
C319 C3 1.476 . S
C335 C68 1.475 . S
C337 C18 1.475 1_565 S
C353 C55 1.475 . S
C355 C109 1.476 . S
C371 C83 1.475 . S
C373 C135 1.474 . S
C389 C133 1.475 . S
C391 C81 1.476 . S
C407 C57 1.475 . S
C409 C107 1.474 . S
C425 C172 1.475 . S
C427 C120 1.475 . S
C443 C146 1.475 . S
C445 C198 1.475 . S
C461 C148 1.475 . S
C463 C200 1.475 . S
C479 C122 1.475 . S
C481 C174 1.475 . S
C497 C153 1.544 . S
C499 C10 1.543 . S
C515 C108 1.544 . S
C517 C17 1.546 . S
C533 C36 1.544 . S
C535 C127 1.544 . S
C551 C134 1.544 . S
C553 C49 1.541 . S
C569 C147 1.544 . S
C571 C30 1.544 . S
C587 C43 1.544 . S
C589 C114 1.546 . S
C605 C121 1.544 . S
C607 C4 1.544 . S
C623 C140 1.544 . S
C625 C23 1.540 . S
C641 C56 1.544 . S
C643 C205 1.544 . S
C659 C160 1.544 . S
C661 C75 1.541 . S
C677 C88 1.544 . S
C679 C179 1.544 . S
C695 C101 1.544 . S
C697 C186 1.546 . S
C713 C82 1.544 . S
C715 C199 1.544 . S
C731 C166 1.544 . S
C733 C95 1.541 . S
C749 C173 1.544 . S
C751 C62 1.543 . S
C767 C192 1.544 . S
C769 C69 1.547 . S
