# Generated by pormake.
# Topology wgc, (5)-cn, num edge types: 1
# Building blocks:
#     Node 0, Type 0, BuildingBlock: XOMCOT_clean_sbu_0, # of connection points: 5
#     Node 1, Type 0, BuildingBlock: XOMCOT_clean_sbu_0, # of connection points: 5
#     Node 2, Type 0, BuildingBlock: XOMCOT_clean_sbu_0, # of connection points: 5
#     Node 3, Type 0, BuildingBlock: XOMCOT_clean_sbu_0, # of connection points: 5
#     Node 4, Type 0, BuildingBlock: XOMCOT_clean_sbu_0, # of connection points: 5
#     Node 5, Type 0, BuildingBlock: XOMCOT_clean_sbu_0, # of connection points: 5
#     Node 6, Type 0, BuildingBlock: XOMCOT_clean_sbu_0, # of connection points: 5
#     Node 7, Type 0, BuildingBlock: XOMCOT_clean_sbu_0, # of connection points: 5
#     Node 8, Type 0, BuildingBlock: XOMCOT_clean_sbu_0, # of connection points: 5
#     Node 9, Type 0, BuildingBlock: XOMCOT_clean_sbu_0, # of connection points: 5
#     Node 10, Type 0, BuildingBlock: XOMCOT_clean_sbu_0, # of connection points: 5
#     Node 11, Type 0, BuildingBlock: XOMCOT_clean_sbu_0, # of connection points: 5
#     Node 12, Type 0, BuildingBlock: XOMCOT_clean_sbu_0, # of connection points: 5
#     Node 13, Type 0, BuildingBlock: XOMCOT_clean_sbu_0, # of connection points: 5
#     Node 14, Type 0, BuildingBlock: XOMCOT_clean_sbu_0, # of connection points: 5
#     Node 15, Type 0, BuildingBlock: XOMCOT_clean_sbu_0, # of connection points: 5
#     Edge 16, Type (0, 0), BuildingBlock: KIFKEQ_clean_linker_1, # of connection points: 2
#     Edge 17, Type (0, 0), BuildingBlock: KIFKEQ_clean_linker_1, # of connection points: 2
#     Edge 18, Type (0, 0), BuildingBlock: KIFKEQ_clean_linker_1, # of connection points: 2
#     Edge 19, Type (0, 0), BuildingBlock: KIFKEQ_clean_linker_1, # of connection points: 2
#     Edge 20, Type (0, 0), BuildingBlock: KIFKEQ_clean_linker_1, # of connection points: 2
#     Edge 21, Type (0, 0), BuildingBlock: KIFKEQ_clean_linker_1, # of connection points: 2
#     Edge 22, Type (0, 0), BuildingBlock: KIFKEQ_clean_linker_1, # of connection points: 2
#     Edge 23, Type (0, 0), BuildingBlock: KIFKEQ_clean_linker_1, # of connection points: 2
#     Edge 24, Type (0, 0), BuildingBlock: KIFKEQ_clean_linker_1, # of connection points: 2
#     Edge 25, Type (0, 0), BuildingBlock: KIFKEQ_clean_linker_1, # of connection points: 2
#     Edge 26, Type (0, 0), BuildingBlock: KIFKEQ_clean_linker_1, # of connection points: 2
#     Edge 27, Type (0, 0), BuildingBlock: KIFKEQ_clean_linker_1, # of connection points: 2
#     Edge 28, Type (0, 0), BuildingBlock: KIFKEQ_clean_linker_1, # of connection points: 2
#     Edge 29, Type (0, 0), BuildingBlock: KIFKEQ_clean_linker_1, # of connection points: 2
#     Edge 30, Type (0, 0), BuildingBlock: KIFKEQ_clean_linker_1, # of connection points: 2
#     Edge 31, Type (0, 0), BuildingBlock: KIFKEQ_clean_linker_1, # of connection points: 2
#     Edge 32, Type (0, 0), BuildingBlock: KIFKEQ_clean_linker_1, # of connection points: 2
#     Edge 33, Type (0, 0), BuildingBlock: KIFKEQ_clean_linker_1, # of connection points: 2
#     Edge 34, Type (0, 0), BuildingBlock: KIFKEQ_clean_linker_1, # of connection points: 2
#     Edge 35, Type (0, 0), BuildingBlock: KIFKEQ_clean_linker_1, # of connection points: 2
#     Edge 36, Type (0, 0), BuildingBlock: KIFKEQ_clean_linker_1, # of connection points: 2
#     Edge 37, Type (0, 0), BuildingBlock: KIFKEQ_clean_linker_1, # of connection points: 2
#     Edge 38, Type (0, 0), BuildingBlock: KIFKEQ_clean_linker_1, # of connection points: 2
#     Edge 39, Type (0, 0), BuildingBlock: KIFKEQ_clean_linker_1, # of connection points: 2
#     Edge 40, Type (0, 0), BuildingBlock: KIFKEQ_clean_linker_1, # of connection points: 2
#     Edge 41, Type (0, 0), BuildingBlock: KIFKEQ_clean_linker_1, # of connection points: 2
#     Edge 42, Type (0, 0), BuildingBlock: KIFKEQ_clean_linker_1, # of connection points: 2
#     Edge 43, Type (0, 0), BuildingBlock: KIFKEQ_clean_linker_1, # of connection points: 2
#     Edge 44, Type (0, 0), BuildingBlock: KIFKEQ_clean_linker_1, # of connection points: 2
#     Edge 45, Type (0, 0), BuildingBlock: KIFKEQ_clean_linker_1, # of connection points: 2
#     Edge 46, Type (0, 0), BuildingBlock: KIFKEQ_clean_linker_1, # of connection points: 2
#     Edge 47, Type (0, 0), BuildingBlock: KIFKEQ_clean_linker_1, # of connection points: 2
#     Edge 48, Type (0, 0), BuildingBlock: KIFKEQ_clean_linker_1, # of connection points: 2
#     Edge 49, Type (0, 0), BuildingBlock: KIFKEQ_clean_linker_1, # of connection points: 2
#     Edge 50, Type (0, 0), BuildingBlock: KIFKEQ_clean_linker_1, # of connection points: 2
#     Edge 51, Type (0, 0), BuildingBlock: KIFKEQ_clean_linker_1, # of connection points: 2
#     Edge 52, Type (0, 0), BuildingBlock: KIFKEQ_clean_linker_1, # of connection points: 2
#     Edge 53, Type (0, 0), BuildingBlock: KIFKEQ_clean_linker_1, # of connection points: 2
#     Edge 54, Type (0, 0), BuildingBlock: KIFKEQ_clean_linker_1, # of connection points: 2
#     Edge 55, Type (0, 0), BuildingBlock: KIFKEQ_clean_linker_1, # of connection points: 2
# Relax obj value: 0.140
# Max RMSD: 0.153
# Mean RMSD: 0.152
data_MOF--net-wgc--node1-XOMCOT_clean_sbu_0--edge1-KIFKEQ_clean_linker_1
_symmetry_space_group_name_H-M    P1
_symmetry_Int_Tables_number       1
_symmetry_cell_setting            triclinic
loop_
_symmetry_equiv_pos_as_xyz
'x, y, z'
_cell_length_a     37.16026
_cell_length_b     37.187719
_cell_length_c     60.597529
_cell_angle_alpha  90.00958
_cell_angle_beta   89.982844
_cell_angle_gamma 89.964668
loop_
_atom_site_label
_atom_site_type_symbol
_atom_site_fract_x
_atom_site_fract_y
_atom_site_fract_z
_atom_type_partial_charge
Co0 Co 0.28978 0.11821 0.99496 0.0
C1 C 0.22196 0.15597 0.98473 0.0
C2 C 0.21814 0.09941 0.97795 0.0
C3 C 0.18582 0.1154 0.97262 0.0
N4 N 0.2406 0.12489 0.9856 0.0
N5 N 0.18826 0.15095 0.97695 0.0
H6 H 0.23293 0.18171 0.98962 0.0
H7 H 0.22477 0.07119 0.97645 0.0
C8 C 0.28579 0.04346 0.00917 0.0
O9 O 0.31289 0.03822 0.99565 0.0
N10 N 0.33936 0.11109 0.00488 0.0
C11 C 0.35048 0.11476 0.02598 0.0
C12 C 0.38462 0.10134 0.02804 0.0
C13 C 0.3674 0.09499 0.99441 0.0
N14 N 0.39519 0.08837 0.00833 0.0
C15 C 0.29863 0.18267 0.0202 0.0
C16 C 0.25355 0.16358 0.05459 0.0
C17 C 0.27282 0.19599 0.0561 0.0
C18 C 0.29493 0.20576 0.03826 0.0
C19 C 0.2576 0.14152 0.03609 0.0
N20 N 0.28092 0.15057 0.01958 0.0
H21 H 0.31662 0.19002 0.00694 0.0
H22 H 0.24224 0.11693 0.03528 0.0
H23 H 0.33423 0.12416 0.03957 0.0
H24 H 0.36643 0.08549 0.97754 0.0
O25 O 0.30437 0.15277 0.97269 0.0
O26 O 0.29933 0.09403 0.96751 0.0
O27 O 0.27414 0.07525 0.01248 0.0
C28 C 0.30481 0.12566 0.95906 0.0
H29 H 0.16207 0.10172 0.96661 0.0
H30 H 0.39974 0.09943 0.04326 0.0
H31 H 0.23617 0.15462 0.06782 0.0
H32 H 0.30961 0.23089 0.03825 0.0
Co33 Co 0.10429 0.72088 0.02129 0.0
C34 C 0.13425 0.79408 0.02004 0.0
C35 C 0.07747 0.79464 0.02669 0.0
C36 C 0.09025 0.82934 0.02808 0.0
N37 N 0.10511 0.7727 0.02164 0.0
N38 N 0.12592 0.82885 0.02391 0.0
H39 H 0.1612 0.78414 0.01705 0.0
H40 H 0.05022 0.78586 0.02988 0.0
C41 C 0.04052 0.7122 0.98921 0.0
O42 O 0.05783 0.69224 0.97481 0.0
N43 N 0.10312 0.66835 0.02154 0.0
C44 C 0.13034 0.64627 0.02738 0.0
C45 C 0.1184 0.6113 0.02716 0.0
C46 C 0.07453 0.64623 0.0187 0.0
N47 N 0.08327 0.61118 0.02164 0.0
C48 C 0.16378 0.70543 0.99237 0.0
C49 C 0.13776 0.74138 0.95581 0.0
C50 C 0.17079 0.72316 0.954 0.0
C51 C 0.18397 0.70567 0.9729 0.0
C52 C 0.1187 0.7409 0.97576 0.0
N53 N 0.13082 0.7215 0.99342 0.0
H54 H 0.17528 0.6931 0.00679 0.0
H55 H 0.09418 0.75637 0.977 0.0
H56 H 0.15683 0.65477 0.0325 0.0
H57 H 0.04764 0.65545 0.01511 0.0
O58 O 0.1441 0.72138 0.04225 0.0
O59 O 0.08613 0.72123 0.05088 0.0
O60 O 0.05586 0.72354 0.00669 0.0
C61 C 0.11932 0.72291 0.0575 0.0
H62 H 0.07459 0.85302 0.03206 0.0
H63 H 0.13412 0.58791 0.03163 0.0
H64 H 0.12641 0.75578 0.94194 0.0
H65 H 0.2101 0.69281 0.9729 0.0
Co66 Co 0.71488 0.8936 0.98718 0.0
C67 C 0.78488 0.85658 0.98492 0.0
C68 C 0.79035 0.91324 0.97897 0.0
C69 C 0.82342 0.89716 0.97607 0.0
N70 N 0.76633 0.88776 0.98457 0.0
N71 N 0.81991 0.8615 0.97974 0.0
H72 H 0.7726 0.8307 0.98808 0.0
H73 H 0.78406 0.94136 0.97652 0.0
C74 C 0.71538 0.95914 0.01813 0.0
O75 O 0.69562 0.94399 0.03351 0.0
N76 N 0.66269 0.89959 0.98902 0.0
C77 C 0.63802 0.87403 0.98434 0.0
C78 C 0.60422 0.88874 0.98519 0.0
C79 C 0.64314 0.93013 0.99167 0.0
N80 N 0.60733 0.924 0.98982 0.0
C81 C 0.69729 0.83772 0.01806 0.0
C82 C 0.74241 0.86003 0.0516 0.0
C83 C 0.72158 0.82896 0.05478 0.0
C84 C 0.69892 0.8179 0.03758 0.0
C85 C 0.73992 0.87913 0.03172 0.0
N86 N 0.71654 0.86866 0.01552 0.0
H87 H 0.68131 0.82734 0.00475 0.0
H88 H 0.75742 0.90194 0.02919 0.0
H89 H 0.64387 0.84675 0.97943 0.0
H90 H 0.65462 0.95643 0.99435 0.0
O91 O 0.70926 0.85271 0.96747 0.0
O92 O 0.71315 0.90995 0.95732 0.0
O93 O 0.72349 0.94232 1.00049 0.0
C94 C 0.7108 0.87637 0.95161 0.0
H95 H 0.84809 0.91071 0.97153 0.0
H96 H 0.57928 0.87481 0.98175 0.0
H97 H 0.76119 0.86899 0.0641 0.0
H98 H 0.68255 0.79394 0.03908 0.0
Co99 Co 0.89503 0.28663 0.01567 0.0
C100 C 0.86071 0.21545 0.01859 0.0
C101 C 0.91723 0.21244 0.02573 0.0
C102 C 0.90227 0.17889 0.02883 0.0
N103 N 0.89112 0.23521 0.01927 0.0
N104 N 0.86671 0.18086 0.02438 0.0
H105 H 0.83453 0.22656 0.01474 0.0
H106 H 0.94498 0.21991 0.02857 0.0
C107 C 0.9618 0.29249 0.98635 0.0
O108 O 0.94693 0.31549 0.97265 0.0
N109 N 0.89888 0.33867 0.01253 0.0
C110 C 0.87143 0.36232 0.01128 0.0
C111 C 0.88497 0.39665 0.01096 0.0
C112 C 0.92883 0.35934 0.01383 0.0
N113 N 0.92111 0.39491 0.01246 0.0
C114 C 0.83559 0.29436 0.98588 0.0
C115 C 0.86755 0.26267 0.94962 0.0
C116 C 0.8332 0.27794 0.94721 0.0
C117 C 0.81686 0.29289 0.96596 0.0
C118 C 0.88511 0.26431 0.97001 0.0
N119 N 0.87017 0.2823 0.98742 0.0
H120 H 0.8218 0.30457 1.0002 0.0
H121 H 0.91056 0.25068 0.97171 0.0
H122 H 0.84324 0.3557 0.01173 0.0
H123 H 0.95563 0.34863 0.01605 0.0
O124 O 0.85408 0.29205 0.03539 0.0
O125 O 0.91145 0.29068 0.04546 0.0
O126 O 0.94412 0.27944 1.0025 0.0
C127 C 0.87783 0.29206 0.05122 0.0
H128 H 0.91652 0.15495 0.034 0.0
H129 H 0.86916 0.42109 0.01058 0.0
H130 H 0.88103 0.24983 0.93588 0.0
H131 H 0.78955 0.30301 0.96541 0.0
Co132 Co 0.28648 0.39463 0.2683 0.0
C133 C 0.21645 0.35831 0.27255 0.0
C134 C 0.21251 0.41439 0.28067 0.0
C135 C 0.17952 0.39849 0.28429 0.0
N136 N 0.23549 0.38914 0.27327 0.0
N137 N 0.18208 0.36322 0.27921 0.0
H138 H 0.22791 0.33261 0.26798 0.0
H139 H 0.21947 0.44219 0.28372 0.0
C140 C 0.29022 0.46223 0.24005 0.0
O141 O 0.3139 0.44831 0.22639 0.0
N142 N 0.33803 0.40044 0.26377 0.0
C143 C 0.36233 0.37488 0.25857 0.0
C144 C 0.39607 0.38997 0.2582 0.0
C145 C 0.35772 0.4306 0.26712 0.0
N146 N 0.39331 0.42506 0.26357 0.0
C147 C 0.29181 0.3354 0.23801 0.0
C148 C 0.25856 0.36835 0.20262 0.0
C149 C 0.27231 0.33357 0.19994 0.0
C150 C 0.2883 0.31671 0.21813 0.0
C151 C 0.26205 0.38579 0.22295 0.0
N152 N 0.28067 0.37027 0.23993 0.0
H153 H 0.30317 0.32149 0.25198 0.0
H154 H 0.24893 0.4114 0.22499 0.0
H155 H 0.35666 0.34688 0.25578 0.0
H156 H 0.34625 0.45587 0.2725 0.0
O157 O 0.29455 0.35348 0.28751 0.0
O158 O 0.29212 0.41047 0.29815 0.0
O159 O 0.27706 0.44371 0.2558 0.0
C160 C 0.29471 0.37681 0.30358 0.0
H161 H 0.15552 0.41193 0.29016 0.0
H162 H 0.42073 0.37594 0.25419 0.0
H163 H 0.24452 0.38165 0.18925 0.0
H164 H 0.29839 0.28945 0.21693 0.0
Co165 Co 0.39449 0.71131 0.75019 0.0
C166 C 0.3585 0.78133 0.7441 0.0
C167 C 0.41569 0.78499 0.73934 0.0
C168 C 0.4006 0.81791 0.73465 0.0
N169 N 0.38928 0.76221 0.74526 0.0
N170 N 0.36468 0.81551 0.7376 0.0
H171 H 0.33209 0.77007 0.74709 0.0
H172 H 0.4438 0.77785 0.73784 0.0
C173 C 0.4707 0.71062 0.76193 0.0
O174 O 0.47415 0.68691 0.74604 0.0
N175 N 0.40037 0.65971 0.75525 0.0
C176 C 0.39452 0.64197 0.77437 0.0
C177 C 0.40668 0.60721 0.77236 0.0
C178 C 0.41656 0.63519 0.74197 0.0
N179 N 0.42088 0.60307 0.75208 0.0
C180 C 0.33062 0.70061 0.77605 0.0
C181 C 0.35412 0.73631 0.81342 0.0
C182 C 0.32007 0.7201 0.81371 0.0
C183 C 0.30813 0.70257 0.79456 0.0
C184 C 0.37553 0.73424 0.79448 0.0
N185 N 0.36414 0.71564 0.77632 0.0
H186 H 0.32145 0.68624 0.76161 0.0
H187 H 0.40118 0.7478 0.79453 0.0
H188 H 0.38433 0.65374 0.78942 0.0
H189 H 0.42686 0.64109 0.72567 0.0
O190 O 0.35781 0.70291 0.72786 0.0
O191 O 0.41629 0.70745 0.72148 0.0
O192 O 0.4394 0.72142 0.76754 0.0
C193 C 0.38397 0.70433 0.71356 0.0
H194 H 0.41495 0.84173 0.72937 0.0
H195 H 0.40759 0.58734 0.78541 0.0
H196 H 0.36402 0.75081 0.82769 0.0
H197 H 0.28201 0.68968 0.7941 0.0
Co198 Co 0.71377 0.61392 0.26235 0.0
C199 C 0.78771 0.64385 0.26499 0.0
C200 C 0.78696 0.58701 0.27086 0.0
C201 C 0.82155 0.59927 0.27389 0.0
N202 N 0.76575 0.61491 0.26511 0.0
N203 N 0.82194 0.635 0.27019 0.0
H204 H 0.77872 0.67109 0.2623 0.0
H205 H 0.77783 0.5598 0.27354 0.0
C206 C 0.715 0.5355 0.25515 0.0
O207 O 0.70459 0.53252 0.27576 0.0
N208 N 0.6616 0.613 0.25975 0.0
C209 C 0.64034 0.64093 0.25415 0.0
C210 C 0.60497 0.62973 0.25408 0.0
C211 C 0.63871 0.58535 0.26335 0.0
N212 N 0.604 0.59476 0.25992 0.0
C213 C 0.72033 0.67755 0.23571 0.0
C214 C 0.71524 0.64451 0.19502 0.0
C215 C 0.71963 0.68197 0.19578 0.0
C216 C 0.72208 0.69841 0.21655 0.0
C217 C 0.71357 0.6246 0.21458 0.0
N218 N 0.71666 0.64102 0.2347 0.0
H219 H 0.72152 0.69107 0.25144 0.0
H220 H 0.7093 0.59606 0.21319 0.0
H221 H 0.64975 0.66777 0.25051 0.0
H222 H 0.64692 0.55878 0.26818 0.0
O223 O 0.71087 0.65337 0.28353 0.0
O224 O 0.71075 0.59566 0.29197 0.0
O225 O 0.71851 0.56654 0.24636 0.0
C226 C 0.71111 0.62868 0.29873 0.0
H227 H 0.84456 0.58318 0.27865 0.0
H228 H 0.58174 0.64622 0.25037 0.0
H229 H 0.71328 0.6305 0.17939 0.0
H230 H 0.72459 0.72731 0.21807 0.0
Co231 Co 0.61822 0.28999 0.74149 0.0
C232 C 0.6566 0.22157 0.73422 0.0
C233 C 0.59974 0.21603 0.72882 0.0
C234 C 0.61612 0.1836 0.7243 0.0
N235 N 0.62518 0.23966 0.73507 0.0
N236 N 0.65185 0.18715 0.7277 0.0
H237 H 0.68243 0.2336 0.73787 0.0
H238 H 0.57137 0.22208 0.7274 0.0
C239 C 0.54239 0.28711 0.75404 0.0
O240 O 0.53725 0.31022 0.73799 0.0
N241 N 0.61067 0.34091 0.74815 0.0
C242 C 0.61699 0.35741 0.76764 0.0
C243 C 0.60378 0.39189 0.76686 0.0
C244 C 0.59289 0.36582 0.73594 0.0
N245 N 0.58835 0.39706 0.74703 0.0
C246 C 0.68182 0.30114 0.76742 0.0
C247 C 0.65997 0.26086 0.8034 0.0
C248 C 0.69292 0.27906 0.80438 0.0
C249 C 0.70421 0.29877 0.78592 0.0
C250 C 0.63865 0.26354 0.78454 0.0
N251 N 0.64904 0.28457 0.76719 0.0
H252 H 0.69023 0.31727 0.75352 0.0
H253 H 0.61383 0.24855 0.78401 0.0
H254 H 0.62827 0.34493 0.78215 0.0
H255 H 0.58185 0.36082 0.71972 0.0
O256 O 0.65425 0.30128 0.71935 0.0
O257 O 0.59581 0.29536 0.71311 0.0
O258 O 0.57426 0.27738 0.759 0.0
C259 C 0.62793 0.30011 0.70518 0.0
H260 H 0.60265 0.15918 0.71919 0.0
H261 H 0.60315 0.41081 0.78044 0.0
H262 H 0.65078 0.2446 0.81712 0.0
H263 H 0.72955 0.31314 0.78604 0.0
Co264 Co 0.79145 0.61708 0.48924 0.0
C265 C 0.72309 0.65656 0.48249 0.0
C266 C 0.71686 0.59976 0.4775 0.0
C267 C 0.6844 0.61629 0.47335 0.0
N268 N 0.74098 0.62501 0.48336 0.0
N269 N 0.68837 0.65201 0.47649 0.0
H270 H 0.7354 0.68238 0.48565 0.0
H271 H 0.72258 0.57132 0.4761 0.0
C272 C 0.79292 0.54558 0.51443 0.0
O273 O 0.8279 0.54557 0.51718 0.0
N274 N 0.84263 0.60921 0.49481 0.0
C275 C 0.8637 0.62676 0.50941 0.0
C276 C 0.89784 0.61273 0.50858 0.0
C277 C 0.86482 0.585 0.48502 0.0
N278 N 0.89865 0.58631 0.49336 0.0
C279 C 0.79369 0.68291 0.51407 0.0
C280 C 0.77574 0.65412 0.55462 0.0
C281 C 0.78324 0.69097 0.55323 0.0
C282 C 0.79186 0.70541 0.53254 0.0
C283 C 0.77764 0.6326 0.53577 0.0
N284 N 0.78719 0.64682 0.51579 0.0
H285 H 0.80108 0.69458 0.49842 0.0
H286 H 0.77143 0.60458 0.53769 0.0
H287 H 0.85523 0.64783 0.52046 0.0
H288 H 0.85609 0.56605 0.47259 0.0
O289 O 0.80295 0.65363 0.46743 0.0
O290 O 0.79595 0.59557 0.46056 0.0
O291 O 0.77687 0.57194 0.50521 0.0
C292 C 0.80101 0.62781 0.45295 0.0
H293 H 0.65968 0.60292 0.46869 0.0
H294 H 0.91999 0.62051 0.51913 0.0
H295 H 0.76824 0.64193 0.57018 0.0
H296 H 0.79807 0.7337 0.53069 0.0
Co297 Co 0.6101 0.22224 0.51303 0.0
C298 C 0.64181 0.2945 0.5164 0.0
C299 C 0.58447 0.29591 0.52082 0.0
C300 C 0.59785 0.33009 0.52385 0.0
N301 N 0.61207 0.27378 0.51611 0.0
N302 N 0.63392 0.32912 0.52113 0.0
H303 H 0.66873 0.28412 0.51398 0.0
H304 H 0.5567 0.28765 0.52248 0.0
C305 C 0.54532 0.21519 0.48185 0.0
O306 O 0.56149 0.19372 0.46777 0.0
N307 N 0.60781 0.17009 0.51039 0.0
C308 C 0.63566 0.14682 0.51081 0.0
C309 C 0.62262 0.11227 0.51061 0.0
C310 C 0.57808 0.14905 0.51077 0.0
N311 N 0.58637 0.11356 0.51053 0.0
C312 C 0.67191 0.21508 0.48497 0.0
C313 C 0.64317 0.24814 0.44817 0.0
C314 C 0.67824 0.23431 0.44701 0.0
C315 C 0.69277 0.21822 0.46591 0.0
C316 C 0.62339 0.24483 0.46773 0.0
N317 N 0.63701 0.22656 0.48545 0.0
H318 H 0.68437 0.20427 0.49956 0.0
H319 H 0.5975 0.25783 0.46869 0.0
H320 H 0.66362 0.15392 0.51244 0.0
H321 H 0.55096 0.15946 0.5117 0.0
O322 O 0.64973 0.21868 0.53389 0.0
O323 O 0.59172 0.21867 0.54247 0.0
O324 O 0.56176 0.22763 0.49864 0.0
C325 C 0.62493 0.21862 0.54912 0.0
H326 H 0.58218 0.35376 0.52781 0.0
H327 H 0.63872 0.08806 0.51151 0.0
H328 H 0.63145 0.26215 0.43424 0.0
H329 H 0.72004 0.20792 0.46596 0.0
Co330 Co 0.21633 0.3897 0.49341 0.0
C331 C 0.28671 0.35363 0.48585 0.0
C332 C 0.29192 0.411 0.48589 0.0
C333 C 0.32499 0.39616 0.48116 0.0
N334 N 0.26792 0.38432 0.48913 0.0
N335 N 0.32166 0.36007 0.48116 0.0
H336 H 0.27495 0.32713 0.48582 0.0
H337 H 0.28584 0.43937 0.48622 0.0
C338 C 0.22161 0.46804 0.50064 0.0
O339 O 0.20766 0.47166 0.48091 0.0
N340 N 0.16449 0.39501 0.49738 0.0
C341 C 0.14268 0.37328 0.50914 0.0
C342 C 0.10811 0.38645 0.50826 0.0
C343 C 0.1424 0.42049 0.48895 0.0
N344 N 0.10782 0.4163 0.49558 0.0
C345 C 0.22482 0.32716 0.52093 0.0
C346 C 0.21529 0.3616 0.56095 0.0
C347 C 0.22212 0.32457 0.56081 0.0
C348 C 0.22696 0.30733 0.54049 0.0
C349 C 0.2141 0.38059 0.54105 0.0
N350 N 0.21941 0.3635 0.52131 0.0
H351 H 0.22664 0.31299 0.50547 0.0
H352 H 0.20773 0.40885 0.54173 0.0
H353 H 0.15107 0.34943 0.51793 0.0
H354 H 0.15115 0.44114 0.47774 0.0
O355 O 0.20845 0.35009 0.47291 0.0
O356 O 0.21273 0.4075 0.46377 0.0
O357 O 0.22588 0.43675 0.50893 0.0
C358 C 0.20965 0.37436 0.45744 0.0
H359 H 0.34958 0.41087 0.47799 0.0
H360 H 0.0852 0.37508 0.51676 0.0
H361 H 0.21093 0.37579 0.57633 0.0
H362 H 0.2313 0.27855 0.53968 0.0
Co363 Co 0.4019 0.7883 0.52162 0.0
C364 C 0.37142 0.71548 0.52084 0.0
C365 C 0.42674 0.71473 0.53109 0.0
C366 C 0.41312 0.68031 0.53268 0.0
N367 N 0.4005 0.73659 0.52365 0.0
N368 N 0.37841 0.68097 0.52618 0.0
H369 H 0.34531 0.72543 0.5158 0.0
H370 H 0.4535 0.72341 0.53565 0.0
C371 C 0.46543 0.79613 0.48973 0.0
O372 O 0.44781 0.81664 0.47577 0.0
N373 N 0.40337 0.84074 0.5202 0.0
C374 C 0.3757 0.86339 0.52409 0.0
C375 C 0.38791 0.89823 0.52332 0.0
C376 C 0.43243 0.86245 0.51807 0.0
N377 N 0.42362 0.89774 0.51944 0.0
C378 C 0.34216 0.79994 0.49214 0.0
C379 C 0.37 0.76237 0.45666 0.0
C380 C 0.33629 0.77885 0.45449 0.0
C381 C 0.32212 0.7973 0.47268 0.0
C382 C 0.38884 0.76511 0.47658 0.0
N383 N 0.37576 0.7853 0.49368 0.0
H384 H 0.33004 0.81285 0.50618 0.0
H385 H 0.41368 0.75034 0.47834 0.0
H386 H 0.34866 0.85548 0.52839 0.0
H387 H 0.45963 0.85277 0.51612 0.0
O388 O 0.36188 0.78986 0.5424 0.0
O389 O 0.41978 0.7905 0.55122 0.0
O390 O 0.4504 0.7842 0.50718 0.0
C391 C 0.38652 0.78956 0.55775 0.0
H392 H 0.42753 0.65668 0.53825 0.0
H393 H 0.37187 0.92202 0.52635 0.0
H394 H 0.38129 0.74668 0.44328 0.0
H395 H 0.29575 0.80968 0.47188 0.0
Co396 Co 0.79136 0.89742 0.76306 0.0
C397 C 0.71917 0.86478 0.76492 0.0
C398 C 0.71798 0.92079 0.77358 0.0
C399 C 0.68409 0.90666 0.77666 0.0
N400 N 0.73983 0.89449 0.76624 0.0
N401 N 0.68495 0.87148 0.77123 0.0
H402 H 0.72938 0.83851 0.76044 0.0
H403 H 0.72642 0.94798 0.77723 0.0
C404 C 0.79857 0.96457 0.73437 0.0
O405 O 0.82128 0.94954 0.72055 0.0
N406 N 0.84348 0.90082 0.76048 0.0
C407 C 0.8673 0.8735 0.75913 0.0
C408 C 0.90161 0.88713 0.76003 0.0
C409 C 0.86394 0.93064 0.76308 0.0
N410 N 0.89957 0.92307 0.76248 0.0
C411 C 0.79986 0.83911 0.73259 0.0
C412 C 0.76744 0.87136 0.69669 0.0
C413 C 0.78335 0.83741 0.69398 0.0
C414 C 0.79882 0.82094 0.71249 0.0
C415 C 0.76916 0.88863 0.71721 0.0
N416 N 0.78736 0.87347 0.73448 0.0
H417 H 0.81008 0.82502 0.74678 0.0
H418 H 0.75542 0.91398 0.71917 0.0
H419 H 0.86082 0.84531 0.75886 0.0
H420 H 0.853 0.95722 0.76581 0.0
O421 O 0.79578 0.85573 0.78221 0.0
O422 O 0.79501 0.91267 0.79313 0.0
O423 O 0.78519 0.9469 0.75041 0.0
C424 C 0.79589 0.87883 0.79839 0.0
H425 H 0.66072 0.92105 0.78266 0.0
H426 H 0.92618 0.87148 0.75993 0.0
H427 H 0.7541 0.88466 0.68306 0.0
H428 H 0.80954 0.79389 0.71156 0.0
Co429 Co 0.89492 0.21477 0.24083 0.0
C430 C 0.861 0.28625 0.23842 0.0
C431 C 0.91607 0.28767 0.22769 0.0
C432 C 0.90119 0.32125 0.2246 0.0
N433 N 0.89081 0.26589 0.23636 0.0
N434 N 0.86663 0.32021 0.23138 0.0
H435 H 0.83538 0.2761 0.2442 0.0
H436 H 0.94308 0.27941 0.22336 0.0
C437 C 0.9612 0.21202 0.27096 0.0
O438 O 0.94682 0.18961 0.2852 0.0
N439 N 0.89943 0.16302 0.24475 0.0
C440 C 0.87237 0.13892 0.2458 0.0
C441 C 0.88658 0.10488 0.24675 0.0
C442 C 0.92983 0.14292 0.24418 0.0
N443 N 0.92272 0.10732 0.24581 0.0
C444 C 0.83415 0.20763 0.26958 0.0
C445 C 0.86284 0.24221 0.30583 0.0
C446 C 0.82814 0.22746 0.30751 0.0
C447 C 0.81366 0.21076 0.28877 0.0
C448 C 0.88233 0.2388 0.28612 0.0
N449 N 0.86875 0.21981 0.26868 0.0
H450 H 0.8215 0.19633 0.25519 0.0
H451 H 0.90794 0.25221 0.28487 0.0
H452 H 0.84409 0.14501 0.24489 0.0
H453 H 0.95657 0.15402 0.24242 0.0
O454 O 0.85469 0.20816 0.22075 0.0
O455 O 0.91227 0.20971 0.21122 0.0
O456 O 0.94341 0.22337 0.25438 0.0
C457 C 0.87881 0.20785 0.20515 0.0
H458 H 0.91469 0.34461 0.21789 0.0
H459 H 0.87133 0.08011 0.24737 0.0
H460 H 0.87502 0.25622 0.31959 0.0
H461 H 0.78629 0.20078 0.28867 0.0
Co462 Co 0.22299 0.1057 0.76582 0.0
C463 C 0.2967 0.13604 0.76993 0.0
C464 C 0.29684 0.07842 0.77004 0.0
C465 C 0.33159 0.09023 0.77292 0.0
N466 N 0.27501 0.10715 0.76781 0.0
N467 N 0.33147 0.12651 0.77285 0.0
H468 H 0.28732 0.16345 0.76972 0.0
H469 H 0.28804 0.05072 0.77028 0.0
C470 C 0.21017 0.03335 0.7418 0.0
O471 O 0.17494 0.03463 0.74226 0.0
N472 N 0.17072 0.10438 0.76439 0.0
C473 C 0.14911 0.12866 0.75451 0.0
C474 C 0.11395 0.11792 0.75685 0.0
C475 C 0.1481 0.08011 0.77353 0.0
N476 N 0.11323 0.08713 0.76861 0.0
C477 C 0.23123 0.17055 0.74028 0.0
C478 C 0.2167 0.14052 0.69953 0.0
C479 C 0.22482 0.1772 0.70074 0.0
C480 C 0.23224 0.19223 0.72142 0.0
C481 C 0.21673 0.11965 0.7187 0.0
N482 N 0.22447 0.1345 0.7388 0.0
H483 H 0.2351 0.18306 0.75615 0.0
H484 H 0.20941 0.09183 0.71714 0.0
H485 H 0.15802 0.15239 0.74582 0.0
H486 H 0.15719 0.05702 0.78287 0.0
O487 O 0.22017 0.14336 0.78799 0.0
O488 O 0.22193 0.08484 0.79482 0.0
O489 O 0.22931 0.05942 0.74888 0.0
C490 C 0.22198 0.11749 0.80246 0.0
H491 H 0.35494 0.07334 0.77545 0.0
H492 H 0.09086 0.13106 0.74954 0.0
H493 H 0.21041 0.12801 0.68385 0.0
H494 H 0.23776 0.2207 0.72308 0.0
Co495 Co 0.11788 0.79101 0.24972 0.0
C496 C 0.15405 0.7223 0.24018 0.0
C497 C 0.09754 0.71966 0.23295 0.0
C498 C 0.113 0.68705 0.2277 0.0
N499 N 0.12334 0.74154 0.24083 0.0
N500 N 0.14851 0.68878 0.23231 0.0
H501 H 0.17996 0.7328 0.24515 0.0
H502 H 0.06952 0.72694 0.23111 0.0
C503 C 0.04187 0.78907 0.26198 0.0
O504 O 0.03808 0.81551 0.24784 0.0
N505 N 0.11208 0.84109 0.25905 0.0
C506 C 0.11864 0.85382 0.27954 0.0
C507 C 0.10597 0.88827 0.28121 0.0
C508 C 0.09509 0.86857 0.24858 0.0
N509 N 0.09052 0.89748 0.26193 0.0
C510 C 0.18237 0.79633 0.2755 0.0
C511 C 0.15821 0.757 0.31131 0.0
C512 C 0.192 0.77362 0.3125 0.0
C513 C 0.20445 0.79268 0.29407 0.0
C514 C 0.13722 0.76076 0.29231 0.0
N515 N 0.14876 0.78147 0.27507 0.0
H516 H 0.19167 0.81239 0.2618 0.0
H517 H 0.11154 0.74731 0.29173 0.0
H518 H 0.12969 0.83873 0.29315 0.0
H519 H 0.08371 0.86654 0.2322 0.0
O520 O 0.15409 0.80399 0.22795 0.0
O521 O 0.09552 0.80081 0.2217 0.0
O522 O 0.07325 0.77715 0.26641 0.0
C523 C 0.12771 0.80524 0.21382 0.0
H524 H 0.09901 0.66365 0.22145 0.0
H525 H 0.10647 0.9046 0.29599 0.0
H526 H 0.14801 0.74135 0.32503 0.0
H527 H 0.23042 0.80588 0.29433 0.0
H528 H 0.28245 0.18532 0.93653 0.0
H529 H 0.31915 0.0762 0.92732 0.0
H530 H 0.26146 0.18685 0.89829 0.0
H531 H 0.29916 0.07795 0.88908 0.0
H532 H 0.24964 0.1786 0.82126 0.0
H533 H 0.27489 0.18431 0.85845 0.0
H534 H 0.23935 0.07647 0.8735 0.0
H535 H 0.215 0.07061 0.83646 0.0
C536 C 0.28729 0.16216 0.9261 0.0
C537 C 0.30227 0.13055 0.93492 0.0
C538 C 0.27503 0.16295 0.90421 0.0
C539 C 0.27771 0.13217 0.8908 0.0
C540 C 0.29563 0.10174 0.89917 0.0
C541 C 0.30757 0.10088 0.92099 0.0
C542 C 0.24658 0.15647 0.83273 0.0
C543 C 0.23043 0.12411 0.82595 0.0
C544 C 0.26124 0.15965 0.85397 0.0
C545 C 0.25997 0.13052 0.86878 0.0
C546 C 0.24186 0.09903 0.86231 0.0
C547 C 0.22744 0.09581 0.84115 0.0
H548 H 0.07478 0.71441 0.0924 0.0
H549 H 0.18083 0.75257 0.07511 0.0
H550 H 0.08158 0.73907 0.12925 0.0
H551 H 0.18761 0.77779 0.1124 0.0
H552 H 0.18799 0.78213 0.19194 0.0
H553 H 0.19054 0.76188 0.15346 0.0
H554 H 0.08262 0.80156 0.14318 0.0
H555 H 0.0799 0.82115 0.18148 0.0
C556 C 0.09981 0.72769 0.09658 0.0
C557 C 0.12718 0.73171 0.08081 0.0
C558 C 0.10356 0.74219 0.11766 0.0
C559 C 0.13473 0.76127 0.12356 0.0
C560 C 0.16317 0.76344 0.10827 0.0
C561 C 0.15939 0.74882 0.087 0.0
C562 C 0.16532 0.78761 0.18121 0.0
C563 C 0.13362 0.80299 0.18973 0.0
C564 C 0.16671 0.7758 0.15922 0.0
C565 C 0.13642 0.77925 0.14548 0.0
C566 C 0.10604 0.79761 0.15354 0.0
C567 C 0.10461 0.80921 0.17542 0.0
H568 H 0.69394 0.9166 0.9161 0.0
H569 H 0.74064 0.8147 0.93482 0.0
H570 H 0.71733 0.90923 0.87886 0.0
H571 H 0.76426 0.80734 0.89712 0.0
H572 H 0.81276 0.91777 0.8345 0.0
H573 H 0.78927 0.90917 0.87162 0.0
H574 H 0.74187 0.80827 0.85191 0.0
H575 H 0.76557 0.81685 0.81436 0.0
C576 C 0.70833 0.89212 0.91205 0.0
C577 C 0.71579 0.86639 0.92832 0.0
C578 C 0.72186 0.888 0.8908 0.0
C579 C 0.74319 0.85812 0.8854 0.0
C580 C 0.74796 0.83065 0.90102 0.0
C581 C 0.73428 0.83477 0.92246 0.0
C582 C 0.79823 0.89324 0.83819 0.0
C583 C 0.79067 0.86816 0.82156 0.0
C584 C 0.78465 0.88843 0.85938 0.0
C585 C 0.76319 0.85847 0.86435 0.0
C586 C 0.75828 0.83162 0.84835 0.0
C587 C 0.77199 0.83646 0.82697 0.0
H588 H 0.91816 0.30931 0.08668 0.0
H589 H 0.81671 0.26139 0.0682 0.0
H590 H 0.91144 0.28571 0.12389 0.0
H591 H 0.80999 0.23755 0.10584 0.0
H592 H 0.92117 0.1933 0.17002 0.0
H593 H 0.91369 0.21627 0.13271 0.0
H594 H 0.80881 0.25763 0.14982 0.0
H595 H 0.81625 0.23446 0.18754 0.0
C596 C 0.89392 0.29457 0.09077 0.0
C597 C 0.86812 0.28691 0.07456 0.0
C598 C 0.89021 0.28084 0.112 0.0
C599 C 0.86066 0.2591 0.11746 0.0
C600 C 0.8331 0.25409 0.10191 0.0
C601 C 0.83683 0.26793 0.08049 0.0
C602 C 0.89608 0.20641 0.16571 0.0
C603 C 0.86947 0.21244 0.1817 0.0
C604 C 0.89192 0.21976 0.14442 0.0
C605 C 0.86108 0.23945 0.13866 0.0
C606 C 0.8329 0.24269 0.15398 0.0
C607 C 0.8371 0.22925 0.17546 0.0
H608 H 0.26504 0.31503 0.32027 0.0
H609 H 0.31238 0.41641 0.3393 0.0
H610 H 0.24145 0.30749 0.35791 0.0
H611 H 0.28904 0.40886 0.37654 0.0
H612 H 0.23677 0.31219 0.43953 0.0
H613 H 0.26084 0.30561 0.40191 0.0
H614 H 0.21975 0.41077 0.38539 0.0
H615 H 0.19588 0.41734 0.42257 0.0
C616 C 0.27159 0.33494 0.33268 0.0
C617 C 0.29029 0.36645 0.32689 0.0
C618 C 0.25787 0.33074 0.35412 0.0
C619 C 0.26273 0.35804 0.36986 0.0
C620 C 0.28429 0.38779 0.36453 0.0
C621 C 0.2979 0.39197 0.34328 0.0
C622 C 0.23179 0.33326 0.42757 0.0
C623 C 0.21471 0.36541 0.43395 0.0
C624 C 0.24579 0.32959 0.40616 0.0
C625 C 0.24288 0.35808 0.39104 0.0
C626 C 0.22303 0.38875 0.39693 0.0
C627 C 0.20911 0.39238 0.41814 0.0
H628 H 0.32229 0.72679 0.69278 0.0
H629 H 0.43221 0.69473 0.68058 0.0
H630 H 0.31776 0.74919 0.65477 0.0
H631 H 0.42759 0.71659 0.64286 0.0
H632 H 0.32656 0.75749 0.57562 0.0
H633 H 0.3212 0.73317 0.61321 0.0
H634 H 0.4239 0.78011 0.62988 0.0
H635 H 0.42933 0.80389 0.59268 0.0
C636 C 0.34505 0.72349 0.6818 0.0
C637 C 0.37772 0.70927 0.68967 0.0
C638 C 0.3425 0.73649 0.6601 0.0
C639 C 0.37261 0.73549 0.64605 0.0
C640 C 0.40423 0.71864 0.65349 0.0
C641 C 0.40678 0.70578 0.67504 0.0
C642 C 0.34743 0.76339 0.58756 0.0
C643 C 0.37849 0.78237 0.58121 0.0
C644 C 0.34447 0.74929 0.609 0.0
C645 C 0.37259 0.75393 0.62428 0.0
C646 C 0.40227 0.7752 0.61829 0.0
C647 C 0.40521 0.78915 0.59703 0.0
H648 H 0.77944 0.69025 0.43293 0.0
H649 H 0.81031 0.58045 0.41949 0.0
H650 H 0.75573 0.69573 0.3953 0.0
H651 H 0.78718 0.58602 0.38209 0.0
H652 H 0.69742 0.58554 0.3336 0.0
H653 H 0.72291 0.59026 0.37043 0.0
H654 H 0.7696 0.69296 0.35358 0.0
H655 H 0.74355 0.68834 0.31643 0.0
C656 C 0.78232 0.66776 0.42171 0.0
C657 C 0.79646 0.63481 0.42915 0.0
C658 C 0.76853 0.67083 0.40024 0.0
C659 C 0.76871 0.64098 0.386 0.0
C660 C 0.78575 0.60916 0.39292 0.0
C661 C 0.79936 0.60608 0.41426 0.0
C662 C 0.7124 0.60954 0.33788 0.0
C663 C 0.71866 0.63647 0.32214 0.0
C664 C 0.72736 0.61206 0.35889 0.0
C665 C 0.74912 0.64149 0.36465 0.0
C666 C 0.75314 0.66986 0.34951 0.0
C667 C 0.73801 0.66735 0.32834 0.0
H668 H 0.58189 0.2037 0.58388 0.0
H669 H 0.68508 0.24956 0.56716 0.0
H670 H 0.5874 0.22698 0.62121 0.0
H671 H 0.69047 0.27344 0.60481 0.0
H672 H 0.68964 0.27912 0.68407 0.0
H673 H 0.69395 0.25745 0.64593 0.0
H674 H 0.58396 0.29008 0.63456 0.0
H675 H 0.57953 0.31112 0.67249 0.0
C676 C 0.60611 0.21818 0.58835 0.0
C677 C 0.63294 0.225 0.57262 0.0
C678 C 0.6091 0.23187 0.60965 0.0
C679 C 0.63888 0.25293 0.61572 0.0
C680 C 0.66711 0.25751 0.60051 0.0
C681 C 0.66414 0.24363 0.57906 0.0
C682 C 0.66682 0.28266 0.67317 0.0
C683 C 0.63413 0.29651 0.68124 0.0
C684 C 0.66923 0.27005 0.65141 0.0
C685 C 0.63898 0.27117 0.6375 0.0
C686 C 0.6074 0.28791 0.64511 0.0
C687 C 0.60497 0.30033 0.66675 0.0
H688 H 0.30787 0.9737 0.01181 0.0
H689 H 0.21595 0.04233 0.02327 0.0
H690 H 0.27068 0.92088 0.01844 0.0
H691 H 0.17836 0.98961 0.02899 0.0
H692 H 0.1217 0.88771 0.05007 0.0
H693 H 0.16254 0.93904 0.05053 0.0
H694 H 0.2257 0.88954 0.99882 0.0
H695 H 0.18539 0.83796 0.99895 0.0
C696 C 0.27977 0.97749 0.01598 0.0
C697 C 0.26481 0.01214 0.01689 0.0
C698 C 0.25834 0.9472 0.01957 0.0
C699 C 0.22129 0.95083 0.02385 0.0
C700 C 0.20679 0.98566 0.02591 0.0
C701 C 0.22836 0.01598 0.0226 0.0
C702 C 0.14432 0.88793 0.03881 0.0
C703 C 0.15031 0.85892 0.02441 0.0
C704 C 0.16775 0.91733 0.03906 0.0
C705 C 0.19752 0.91858 0.02473 0.0
C706 C 0.20356 0.8893 0.01044 0.0
C707 C 0.18036 0.85976 0.0104 0.0
H708 H 0.00741 0.72723 0.94968 0.0
H709 H 0.99003 0.72596 0.02011 0.0
H710 H 0.94959 0.75834 0.94472 0.0
H711 H 0.93302 0.75686 0.01529 0.0
H712 H 0.82286 0.79779 1.00143 0.0
H713 H 0.8718 0.75405 1.00071 0.0
H714 H 0.92941 0.8204 0.95411 0.0
H715 H 0.88002 0.86355 0.95432 0.0
C716 C 0.99084 0.73276 0.964 0.0
C717 C 1.00322 0.72438 0.98527 0.0
C718 C 0.95796 0.75083 0.96121 0.0
C719 C 0.9368 0.76025 0.97963 0.0
C720 C 0.94837 0.74974 1.00072 0.0
C721 C 0.98119 0.73219 1.0035 0.0
C722 C 0.84563 0.80273 0.99072 0.0
C723 C 0.84768 0.83445 0.97816 0.0
C724 C 0.87378 0.77775 0.99039 0.0
C725 C 0.90461 0.78382 0.97744 0.0
C726 C 0.90595 0.81473 0.96412 0.0
C727 C 0.87785 0.83977 0.96451 0.0
H728 H 0.73138 0.99492 0.05671 0.0
H729 H 0.73449 0.00551 0.98578 0.0
H730 H 0.76424 0.05198 0.06026 0.0
H731 H 0.76705 0.06177 0.98926 0.0
H732 H 0.80477 0.17445 1.00109 0.0
H733 H 0.76239 0.12439 1.00191 0.0
H734 H 0.82728 0.07158 0.05134 0.0
H735 H 0.8692 0.12209 0.05092 0.0
C736 C 0.73846 0.00973 0.04195 0.0
C737 C 0.73051 0.99568 0.02099 0.0
C738 C 0.75749 0.04219 0.04395 0.0
C739 C 0.76834 0.06137 0.02503 0.0
C740 C 0.75882 0.04797 0.00417 0.0
C741 C 0.74032 0.01553 1.00218 0.0
C742 C 0.80971 0.15248 0.01239 0.0
C743 C 0.84062 0.15217 0.02577 0.0
C744 C 0.78553 0.12366 0.01277 0.0
C745 C 0.79154 0.0939 0.02663 0.0
C746 C 0.8217 0.0942 0.04062 0.0
C747 C 0.84601 0.12293 0.04014 0.0
H748 H 0.13184 0.15059 0.94857 0.0
H749 H 0.17997 0.21102 1.00177 0.0
H750 H 0.08019 0.19131 0.94877 0.0
H751 H 0.12882 0.25209 1.00162 0.0
H752 H 0.00761 0.26985 0.018 0.0
H753 H 0.06576 0.24102 0.01339 0.0
H754 H 0.05846 0.25559 0.94282 0.0
H755 H 0.99957 0.28491 0.94752 0.0
C756 C 0.13159 0.17278 0.96013 0.0
C757 C 0.15983 0.17727 0.97533 0.0
C758 C 0.10222 0.19636 0.96005 0.0
C759 C 0.10037 0.22479 0.97528 0.0
C760 C 0.12938 0.23025 0.98979 0.0
C761 C 0.15881 0.20684 0.98978 0.0
C762 C 0.01858 0.26741 1.00149 0.0
C763 C 0.999 0.27947 0.98309 0.0
C764 C 0.05206 0.2511 0.99887 0.0
C765 C 0.06672 0.24603 0.97775 0.0
C766 C 0.0477 0.25904 0.9593 0.0
C767 C 0.0142 0.27599 0.96197 0.0
H768 H 0.14782 0.63292 0.20352 0.0
H769 H 0.20813 0.67937 0.25734 0.0
H770 H 0.18831 0.58105 0.20337 0.0
H771 H 0.24889 0.62802 0.25687 0.0
H772 H 0.26578 0.5064 0.27203 0.0
H773 H 0.23662 0.56446 0.26791 0.0
H774 H 0.25342 0.55989 0.19744 0.0
H775 H 0.28315 0.50113 0.20164 0.0
C776 C 0.16991 0.63224 0.21515 0.0
C777 C 0.17448 0.66008 0.23062 0.0
C778 C 0.19335 0.60278 0.21487 0.0
C779 C 0.22165 0.60044 0.23017 0.0
C780 C 0.22715 0.629 0.24498 0.0
C781 C 0.20391 0.65853 0.24516 0.0
C782 C 0.26372 0.51794 0.25566 0.0
C783 C 0.27657 0.49921 0.23713 0.0
C784 C 0.24722 0.55135 0.25333 0.0
C785 C 0.24276 0.56674 0.23236 0.0
C786 C 0.25644 0.54853 0.21379 0.0
C787 C 0.2736 0.51511 0.21619 0.0
H788 H 0.67286 0.81437 0.74475 0.0
H789 H 0.63115 0.87106 0.80134 0.0
H790 H 0.62213 0.77302 0.7462 0.0
H791 H 0.58088 0.82906 0.80342 0.0
H792 H 0.47386 0.77759 0.78047 0.0
H793 H 0.52712 0.81483 0.78498 0.0
H794 H 0.59418 0.72545 0.76507 0.0
H795 H 0.54063 0.6888 0.75959 0.0
C796 C 0.65308 0.81758 0.75772 0.0
C797 C 0.6558 0.84608 0.7728 0.0
C798 C 0.62403 0.79375 0.75868 0.0
C799 C 0.59722 0.79754 0.77497 0.0
C800 C 0.60055 0.82562 0.79041 0.0
C801 C 0.62938 0.84971 0.78925 0.0
C802 C 0.50003 0.76566 0.77751 0.0
C803 C 0.50301 0.73036 0.76945 0.0
C804 C 0.5307 0.78705 0.78012 0.0
C805 C 0.5651 0.77344 0.77503 0.0
C806 C 0.56813 0.73722 0.76854 0.0
C807 C 0.53744 0.71604 0.76563 0.0
H808 H 0.86065 0.37302 0.2009 0.0
H809 H 0.81499 0.33309 0.26153 0.0
H810 H 0.81857 0.42351 0.20139 0.0
H811 H 0.77406 0.384 0.26277 0.0
H812 H 0.69106 0.46687 0.25838 0.0
H813 H 0.72377 0.4125 0.24835 0.0
H814 H 0.80828 0.47769 0.21988 0.0
H815 H 0.77421 0.53176 0.22873 0.0
C816 C 0.84165 0.37522 0.21438 0.0
C817 C 0.84108 0.34927 0.23122 0.0
C818 C 0.81756 0.40415 0.21471 0.0
C819 C 0.79272 0.40806 0.2321 0.0
C820 C 0.79203 0.38165 0.24878 0.0
C821 C 0.81569 0.35249 0.24822 0.0
C822 C 0.71611 0.46937 0.24935 0.0
C823 C 0.73023 0.50339 0.2444 0.0
C824 C 0.73516 0.43827 0.24386 0.0
C825 C 0.76927 0.44054 0.23385 0.0
C826 C 0.78209 0.47466 0.22747 0.0
C827 C 0.76256 0.50578 0.23253 0.0
H828 H 0.40111 0.11077 0.76359 0.0
H829 H 0.33171 0.19612 0.78676 0.0
H830 H 0.45208 0.1516 0.76435 0.0
H831 H 0.38285 0.23716 0.78719 0.0
H832 H 0.47123 0.30325 0.74916 0.0
H833 H 0.42009 0.26501 0.75804 0.0
H834 H 0.49164 0.18795 0.78838 0.0
H835 H 0.543 0.22603 0.77926 0.0
C836 C 0.39675 0.13803 0.76922 0.0
C837 C 0.3621 0.15013 0.7749 0.0
C838 C 0.42607 0.16147 0.76969 0.0
C839 C 0.42148 0.19764 0.77579 0.0
C840 C 0.38712 0.20953 0.78216 0.0
C841 C 0.35778 0.18602 0.78179 0.0
C842 C 0.47603 0.2785 0.7581 0.0
C843 C 0.51122 0.26749 0.76326 0.0
C844 C 0.44667 0.25665 0.7633 0.0
C845 C 0.45189 0.22327 0.77368 0.0
C846 C 0.48686 0.21331 0.78008 0.0
C847 C 0.51624 0.23526 0.775 0.0
H848 H 0.81658 0.47707 0.52319 0.0
H849 H 0.72009 0.54153 0.51841 0.0
H850 H 0.77962 0.42312 0.52786 0.0
H851 H 0.68348 0.48795 0.52267 0.0
H852 H 0.62535 0.3892 0.54594 0.0
H853 H 0.66572 0.44064 0.5481 0.0
H854 H 0.7396 0.38771 0.50364 0.0
H855 H 0.69915 0.33622 0.50147 0.0
C856 C 0.78757 0.47982 0.52347 0.0
C857 C 0.77129 0.51355 0.52029 0.0
C858 C 0.76641 0.4489 0.52595 0.0
C859 C 0.72861 0.45121 0.5255 0.0
C860 C 0.71248 0.4852 0.52331 0.0
C861 C 0.73353 0.51595 0.52072 0.0
C862 C 0.65012 0.38854 0.53656 0.0
C863 C 0.65877 0.35871 0.52332 0.0
C864 C 0.67335 0.41798 0.53788 0.0
C865 C 0.70581 0.41837 0.52596 0.0
C866 C 0.71503 0.38809 0.51326 0.0
C867 C 0.69178 0.35859 0.51195 0.0
H868 H 0.51162 0.23409 0.44315 0.0
H869 H 0.4953 0.22482 0.51342 0.0
H870 H 0.45313 0.26474 0.43975 0.0
H871 H 0.43744 0.25486 0.51012 0.0
H872 H 0.3256 0.29272 0.49799 0.0
H873 H 0.3757 0.25061 0.49465 0.0
H874 H 0.43202 0.32613 0.45302 0.0
H875 H 0.38157 0.36799 0.456 0.0
C876 C 0.49509 0.23772 0.45771 0.0
C877 C 0.50786 0.2272 0.47853 0.0
C878 C 0.46186 0.25548 0.45583 0.0
C879 C 0.44072 0.26227 0.47469 0.0
C880 C 0.45279 0.24974 0.49525 0.0
C881 C 0.48603 0.23266 0.49716 0.0
C882 C 0.34831 0.30005 0.48775 0.0
C883 C 0.34975 0.33391 0.47747 0.0
C884 C 0.37709 0.27599 0.48593 0.0
C885 C 0.40789 0.28511 0.47366 0.0
C886 C 0.40857 0.31819 0.46245 0.0
C887 C 0.37987 0.34238 0.46441 0.0
H888 H 0.32706 0.66969 0.49568 0.0
H889 H 0.37381 0.62531 0.55479 0.0
H890 H 0.28614 0.61893 0.49328 0.0
H891 H 0.33163 0.57499 0.55324 0.0
H892 H 0.28262 0.46947 0.52575 0.0
H893 H 0.319 0.52209 0.53427 0.0
H894 H 0.23581 0.59075 0.50738 0.0
H895 H 0.20081 0.53782 0.49756 0.0
C896 C 0.32806 0.64925 0.50838 0.0
C897 C 0.35362 0.6513 0.52535 0.0
C898 C 0.3044 0.62018 0.50717 0.0
C899 C 0.30517 0.5927 0.52318 0.0
C900 C 0.33047 0.59521 0.54042 0.0
C901 C 0.35463 0.62405 0.54137 0.0
C902 C 0.27187 0.49589 0.52209 0.0
C903 C 0.23916 0.49961 0.51073 0.0
C904 C 0.29272 0.5262 0.527 0.0
C905 C 0.28086 0.56089 0.52107 0.0
C906 C 0.24654 0.56452 0.51148 0.0
C907 C 0.22618 0.53422 0.5061 0.0
H908 H 0.49818 0.78442 0.44967 0.0
H909 H 0.51633 0.78025 0.51999 0.0
H910 H 0.55668 0.75519 0.4435 0.0
H911 H 0.57408 0.75133 0.51395 0.0
H912 H 0.68498 0.71525 0.49868 0.0
H913 H 0.63515 0.75796 0.49885 0.0
H914 H 0.57857 0.69262 0.45128 0.0
H915 H 0.62883 0.65043 0.45063 0.0
C916 C 0.51501 0.77805 0.46373 0.0
C917 C 0.5027 0.78437 0.48529 0.0
C918 C 0.5483 0.76111 0.46024 0.0
C919 C 0.56995 0.75085 0.47825 0.0
C920 C 0.55834 0.75919 0.4997 0.0
C921 C 0.52508 0.77556 0.50317 0.0
C922 C 0.66231 0.71039 0.48788 0.0
C923 C 0.6607 0.67913 0.47487 0.0
C924 C 0.63365 0.73476 0.48808 0.0
C925 C 0.60279 0.72854 0.47521 0.0
C926 C 0.60203 0.69834 0.46127 0.0
C927 C 0.63064 0.67388 0.46114 0.0
H928 H 0.78776 1.00145 0.69558 0.0
H929 H 0.77971 0.0113 0.76639 0.0
H930 H 0.75733 0.05984 0.69142 0.0
H931 H 0.74979 0.06901 0.76233 0.0
H932 H 0.71427 0.18173 0.75058 0.0
H933 H 0.75714 0.13201 0.74958 0.0
H934 H 0.69332 0.07959 0.6995 0.0
H935 H 0.65083 0.1297 0.70016 0.0
C936 C 0.78027 0.01647 0.7102 0.0
C937 C 0.7859 1.00187 0.73129 0.0
C938 C 0.76266 0.04966 0.70784 0.0
C939 C 0.75112 0.06897 0.72656 0.0
C940 C 0.75865 0.05508 0.7476 0.0
C941 C 0.77561 0.02188 0.74992 0.0
C942 C 0.70976 0.15999 0.73903 0.0
C943 C 0.67888 0.15948 0.72564 0.0
C944 C 0.73422 0.13141 0.73854 0.0
C945 C 0.72851 0.10179 0.72454 0.0
C946 C 0.69863 0.10214 0.71034 0.0
C947 C 0.67402 0.13061 0.71094 0.0
H948 H 0.12448 0.36297 0.30678 0.0
H949 H 0.17583 0.30266 0.25463 0.0
H950 H 0.07443 0.32046 0.30678 0.0
H951 H 0.12626 0.25972 0.25501 0.0
H952 H 0.00663 0.23412 0.23896 0.0
H953 H 0.06316 0.26607 0.24304 0.0
H954 H 0.05539 0.25624 0.31391 0.0
H955 H 0.99806 0.22387 0.30974 0.0
C956 C 0.12523 0.34053 0.29542 0.0
C957 C 0.15397 0.33651 0.2805 0.0
C958 C 0.09678 0.31587 0.29565 0.0
C959 C 0.09632 0.28678 0.28085 0.0
C960 C 0.1257 0.28202 0.26651 0.0
C961 C 0.15422 0.30653 0.26637 0.0
C962 C 0.01719 0.23826 0.25544 0.0
C963 C 0.99785 0.22665 0.27405 0.0
C964 C 0.04976 0.25639 0.25776 0.0
C965 C 0.06378 0.26375 0.27879 0.0
C966 C 0.0451 0.2511 0.29748 0.0
C967 C 0.01251 0.23238 0.29512 0.0
H968 H 0.30208 0.82547 0.75963 0.0
H969 H 0.3681 0.86905 0.70753 0.0
H970 H 0.261 0.87643 0.75616 0.0
H971 H 0.32684 0.9196 0.70367 0.0
H972 H 0.28033 0.02647 0.72983 0.0
H973 H 0.31448 0.97139 0.72563 0.0
H974 H 0.21723 0.9092 0.73409 0.0
H975 H 0.18294 0.96486 0.73901 0.0
C976 C 0.3074 0.8456 0.74716 0.0
C977 C 0.3386 0.84362 0.73412 0.0
C978 C 0.28379 0.87474 0.74507 0.0
C979 C 0.29078 0.90235 0.72977 0.0
C980 C 0.32104 0.89925 0.71595 0.0
C981 C 0.34473 0.87033 0.71818 0.0
C982 C 0.26606 1.0011 0.73052 0.0
C983 C 0.22898 1.00004 0.73504 0.0
C984 C 0.28565 0.96941 0.72792 0.0
C985 C 0.26869 0.93576 0.72967 0.0
C986 C 0.23119 0.93468 0.73296 0.0
C987 C 0.21148 0.96656 0.73555 0.0
H988 H 0.03785 0.71927 0.27601 0.0
H989 H 0.97264 0.81309 0.26315 0.0
H990 H 0.98365 0.68317 0.28028 0.0
H991 H 0.91834 0.77746 0.26834 0.0
H992 H 0.8342 0.69508 0.24631 0.0
H993 H 0.88684 0.73389 0.24788 0.0
H994 H 0.93106 0.66827 0.30018 0.0
H995 H 0.87866 0.62892 0.29803 0.0
C996 C 0.01191 0.73242 0.27475 0.0
C997 C 0.00951 0.76896 0.26905 0.0
C998 C 0.98072 0.7117 0.27721 0.0
C999 C 0.94643 0.72719 0.27431 0.0
C1000 C 0.9442 0.76434 0.27009 0.0
C1001 C 0.97535 0.78489 0.26734 0.0
C1002 C 0.85501 0.68921 0.25827 0.0
C1003 C 0.85238 0.65885 0.27194 0.0
C1004 C 0.88521 0.71155 0.25929 0.0
C1005 C 0.91338 0.70437 0.27421 0.0
C1006 C 0.91028 0.67436 0.28823 0.0
C1007 C 0.88023 0.65179 0.28703 0.0
H1008 H 0.43594 0.08321 0.9711 0.0
H1009 H 0.42487 0.04206 0.03734 0.0
H1010 H 0.48927 0.04466 0.96569 0.0
H1011 H 0.47752 0.00443 0.03211 0.0
H1012 H 0.54121 0.90965 0.00568 0.0
H1013 H 0.49029 0.95047 0.00855 0.0
H1014 H 0.55493 0.0365 0.98186 0.0
H1015 H 0.60637 0.99506 0.97876 0.0
C1016 C 0.44489 0.06604 0.98444 0.0
C1017 C 0.42635 0.06589 0.00467 0.0
C1018 C 0.47549 0.04427 0.98144 0.0
C1019 C 0.48754 0.02153 0.99849 0.0
C1020 C 0.46884 0.02147 0.01861 0.0
C1021 C 0.43878 0.04333 0.02167 0.0
C1022 C 0.54461 0.93718 1.00028 0.0
C1023 C 0.57785 0.94908 0.99199 0.0
C1024 C 0.51546 0.96064 1.00204 0.0
C1025 C 0.51859 0.99671 0.99545 0.0
C1026 C 0.55169 0.00877 0.98693 0.0
C1027 C 0.58119 0.98521 0.98539 0.0
H1028 H 0.0104 0.60875 0.02635 0.0
H1029 H 0.10334 0.54233 0.01313 0.0
H1030 H 0.97186 0.55592 0.02397 0.0
H1031 H 0.06482 0.48956 0.01081 0.0
H1032 H 0.98782 0.39785 0.03109 0.0
H1033 H 0.02743 0.45016 0.03328 0.0
H1034 H 0.94943 0.5131 0.99722 0.0
H1035 H 0.9101 0.46109 0.99502 0.0
C1036 C 0.02266 0.58302 0.02275 0.0
C1037 C 0.06012 0.57999 0.01999 0.0
C1038 C 1.00051 0.55262 0.0214 0.0
C1039 C 0.0152 0.51836 0.01723 0.0
C1040 C 0.05262 0.51535 0.01442 0.0
C1041 C 0.07474 0.54572 0.01575 0.0
C1042 C 0.97928 0.42273 0.02346 0.0
C1043 C 0.94552 0.4252 0.01307 0.0
C1044 C 1.00199 0.45279 0.02472 0.0
C1045 C 0.99152 0.48603 0.0156 0.0
C1046 C 0.95807 0.48824 0.00487 0.0
C1047 C 0.93546 0.45829 1.00361 0.0
H1048 H 0.54146 0.60006 0.23703 0.0
H1049 H 0.59507 0.53788 0.28736 0.0
H1050 H 0.48944 0.56026 0.23927 0.0
H1051 H 0.54292 0.4985 0.29001 0.0
H1052 H 0.46414 0.41068 0.27027 0.0
H1053 H 0.51383 0.45273 0.2699 0.0
H1054 H 0.43927 0.5407 0.26086 0.0
H1055 H 0.38935 0.49806 0.26003 0.0
C1056 C 0.54195 0.57817 0.24879 0.0
C1057 C 0.5726 0.57203 0.26189 0.0
C1058 C 0.51202 0.55535 0.25015 0.0
C1059 C 0.51185 0.5259 0.26475 0.0
C1060 C 0.54225 0.52035 0.27821 0.0
C1061 C 0.57224 0.54298 0.27672 0.0
C1062 C 0.45816 0.4389 0.26801 0.0
C1063 C 0.42252 0.45075 0.26496 0.0
C1064 C 0.4868 0.46323 0.26813 0.0
C1065 C 0.48079 0.5003 0.26537 0.0
C1066 C 0.44508 0.51234 0.26275 0.0
C1067 C 0.41632 0.48788 0.26255 0.0
H1068 H 0.60207 0.4669 0.75498 0.0
H1069 H 0.52328 0.39519 0.72696 0.0
H1070 H 0.56023 0.51728 0.75098 0.0
H1071 H 0.48104 0.44557 0.72308 0.0
H1072 H 0.40772 0.53282 0.75944 0.0
H1073 H 0.44885 0.48252 0.75289 0.0
H1074 H 0.52522 0.55526 0.72311 0.0
H1075 H 0.48383 0.60553 0.72959 0.0
C1076 C 0.576 0.46216 0.74756 0.0
C1077 C 0.5659 0.42724 0.74127 0.0
C1078 C 0.5521 0.49096 0.74516 0.0
C1079 C 0.51729 0.48537 0.73677 0.0
C1080 C 0.50765 0.45065 0.72967 0.0
C1081 C 0.53187 0.42191 0.73171 0.0
C1082 C 0.433 0.53785 0.75109 0.0
C1083 C 0.44259 0.57303 0.74504 0.0
C1084 C 0.45646 0.50908 0.74723 0.0
C1085 C 0.49033 0.51496 0.73755 0.0
C1086 C 0.49935 0.54995 0.73067 0.0
C1087 C 0.47557 0.57866 0.73421 0.0
H1088 H 0.96945 0.60106 0.49885 0.0
H1089 H 0.89645 0.51724 0.47831 0.0
H1090 H 0.01942 0.55933 0.49673 0.0
H1091 H 0.94701 0.47565 0.47493 0.0
H1092 H 0.0365 0.40158 0.50165 0.0
H1093 H 0.9863 0.44273 0.49809 0.0
H1094 H 0.05847 0.52535 0.47463 0.0
H1095 H 0.10909 0.48497 0.47954 0.0
C1096 C 0.96406 0.57377 0.49364 0.0
C1097 C 0.9287 0.56251 0.48908 0.0
C1098 C 0.99295 0.54982 0.49211 0.0
C1099 C 0.98749 0.51384 0.48576 0.0
C1100 C 0.95229 0.50294 0.48024 0.0
C1101 C 0.92326 0.52696 0.48189 0.0
C1102 C 0.04195 0.42852 0.49586 0.0
C1103 C 0.07738 0.43977 0.49126 0.0
C1104 C 0.01283 0.45211 0.49347 0.0
C1105 C 0.0181 0.48764 0.4862 0.0
C1106 C 0.05329 0.49846 0.48069 0.0
C1107 C 0.08248 0.47497 0.48327 0.0
H1108 H 0.51785 0.1114 0.52654 0.0
H1109 H 0.59982 0.04607 0.49572 0.0
H1110 H 0.47838 0.05908 0.5286 0.0
H1111 H 0.56052 0.99395 0.49781 0.0
H1112 H 0.49585 0.90043 0.5271 0.0
H1113 H 0.53482 0.95298 0.5247 0.0
H1114 H 0.44385 0.01818 0.50555 0.0
H1115 H 0.40496 0.96575 0.50787 0.0
C1116 C 0.52739 0.08605 0.52001 0.0
C1117 C 0.56222 0.08305 0.5111 0.0
C1118 C 0.50474 0.05597 0.52121 0.0
C1119 C 0.51633 0.02215 0.5135 0.0
C1120 C 0.55094 0.01933 0.50433 0.0
C1121 C 0.57352 0.04933 0.50312 0.0
C1122 C 0.48415 0.92584 0.52219 0.0
C1123 C 0.4471 0.92868 0.51778 0.0
C1124 C 0.50654 0.95606 0.52083 0.0
C1125 C 0.4925 0.98993 0.51499 0.0
C1126 C 0.45551 0.99272 0.51048 0.0
C1127 C 0.43316 0.96254 0.51182 0.0
H1128 H 0.9012 0.98683 0.78457 0.0
H1129 H 0.96628 0.91479 0.74545 0.0
H1130 H 0.95293 0.02676 0.78909 0.0
H1131 H 0.01759 0.95454 0.7497 0.0
H1132 H 0.11283 0.01471 0.77513 0.0
H1133 H 0.06058 0.97541 0.77602 0.0
H1134 H 0.99069 0.06756 0.7689 0.0
H1135 H 0.04286 0.10702 0.76917 0.0
C1136 C 0.92642 0.97964 0.77679 0.0
C1137 C 0.9296 0.94746 0.76475 0.0
C1138 C 0.95613 1.0025 0.7794 0.0
C1139 C 0.98965 0.99376 0.76995 0.0
C1140 C 0.99257 0.96176 0.75772 0.0
C1141 C 0.96302 0.93895 0.75519 0.0
C1142 C 0.08637 0.02677 0.77428 0.0
C1143 C 0.08226 0.06415 0.77184 0.0
C1144 C 0.05631 0.00411 0.77447 0.0
C1145 C 0.02133 0.01819 0.77215 0.0
C1146 C 0.01713 0.05569 0.77078 0.0
C1147 C 0.04717 0.07835 0.77068 0.0
H1148 H 0.913 0.0442 0.26689 0.0
H1149 H 0.98932 0.10293 0.22708 0.0
H1150 H 0.95433 0.99371 0.26886 0.0
H1151 H 0.03142 0.05204 0.22942 0.0
H1152 H 0.07709 0.93225 0.22317 0.0
H1153 H 0.03718 0.98444 0.21778 0.0
H1154 H 0.01321 0.98482 0.28747 0.0
H1155 H 0.0518 0.93312 0.29273 0.0
C1156 C 0.93854 0.04626 0.2584 0.0
C1157 C 0.94779 0.07766 0.24681 0.0
C1158 C 0.96238 0.01737 0.25968 0.0
C1159 C 0.99621 0.01893 0.24938 0.0
C1160 C 0.00545 0.05002 0.23743 0.0
C1161 C 0.98154 0.07926 0.2363 0.0
C1162 C 0.06322 0.94359 0.23726 0.0
C1163 C 0.06789 0.92859 0.25838 0.0
C1164 C 0.04065 0.97357 0.23422 0.0
C1165 C 0.02196 0.98862 0.25221 0.0
C1166 C 0.02694 0.97369 0.27325 0.0
C1167 C 0.04949 0.94418 0.27629 0.0
H1168 H 0.29154 0.35938 0.15954 0.0
H1169 H 0.24783 0.26558 0.19178 0.0
H1170 H 0.29019 0.32768 0.1241 0.0
H1171 H 0.2461 0.23402 0.15629 0.0
H1172 H 0.21481 0.20702 0.08374 0.0
H1173 H 0.21332 0.24076 0.11826 0.0
H1174 H 0.32418 0.27146 0.1089 0.0
H1175 H 0.32657 0.23638 0.07501 0.0
C1176 C 0.28132 0.33212 0.15898 0.0
C1177 C 0.26987 0.31487 0.17837 0.0
C1178 C 0.28074 0.31396 0.13876 0.0
C1179 C 0.26805 0.27843 0.13749 0.0
C1180 C 0.2558 0.26147 0.1568 0.0
C1181 C 0.25701 0.2794 0.17709 0.0
C1182 C 0.23907 0.22056 0.08907 0.0
C1183 C 0.27088 0.21867 0.07645 0.0
C1184 C 0.23807 0.24006 0.10881 0.0
C1185 C 0.26862 0.2587 0.11621 0.0
C1186 C 0.30011 0.25765 0.10344 0.0
C1187 C 0.30134 0.23766 0.08391 0.0
H1188 H 0.34067 0.70432 0.85582 0.0
H1189 H 0.24867 0.73767 0.81747 0.0
H1190 H 0.30389 0.70513 0.8893 0.0
H1191 H 0.21186 0.73879 0.85109 0.0
H1192 H 0.17552 0.77613 0.92207 0.0
H1193 H 0.21014 0.77507 0.88785 0.0
H1194 H 0.24959 0.66917 0.90387 0.0
H1195 H 0.21383 0.66918 0.93753 0.0
C1196 C 0.31262 0.71201 0.85458 0.0
C1197 C 0.29755 0.72095 0.83402 0.0
C1198 C 0.29152 0.71224 0.87372 0.0
C1199 C 0.25499 0.72199 0.87281 0.0
C1200 C 0.23998 0.73134 0.8523 0.0
C1201 C 0.26095 0.73048 0.83306 0.0
C1202 C 0.19098 0.75227 0.91822 0.0
C1203 C 0.19175 0.72278 0.93284 0.0
C1204 C 0.21099 0.75181 0.8986 0.0
C1205 C 0.23272 0.72213 0.89324 0.0
C1206 C 0.23348 0.69264 0.90771 0.0
C1207 C 0.21306 0.69282 0.92712 0.0
H1208 H 0.7219 0.75565 0.05937 0.0
H1209 H 0.72655 0.85384 0.09737 0.0
H1210 H 0.72228 0.72067 0.09331 0.0
H1211 H 0.72718 0.81867 0.13143 0.0
H1212 H 0.76216 0.74057 0.1867 0.0
H1213 H 0.76401 0.77631 0.15294 0.0
H1214 H 0.68209 0.70854 0.12428 0.0
H1215 H 0.67996 0.67305 0.15801 0.0
C1216 C 0.72278 0.76984 0.07497 0.0
C1217 C 0.72382 0.80765 0.07559 0.0
C1218 C 0.72302 0.74973 0.09446 0.0
C1219 C 0.72445 0.76683 0.11513 0.0
C1220 C 0.72637 0.80461 0.11579 0.0
C1221 C 0.72605 0.82478 0.09625 0.0
C1222 C 0.7443 0.73346 0.17328 0.0
C1223 C 0.72098 0.70378 0.17512 0.0
C1224 C 0.7454 0.75396 0.15391 0.0
C1225 C 0.7233 0.74525 0.13585 0.0
C1226 C 0.69995 0.71564 0.13771 0.0
C1227 C 0.69877 0.69522 0.15707 0.0
H1228 H 0.66956 0.29136 0.84621 0.0
H1229 H 0.76504 0.26547 0.80882 0.0
H1230 H 0.70475 0.2909 0.88025 0.0
H1231 H 0.80037 0.26482 0.84306 0.0
H1232 H 0.83422 0.22615 0.91457 0.0
H1233 H 0.80203 0.22674 0.87942 0.0
H1234 H 0.75603 0.32988 0.89579 0.0
H1235 H 0.78914 0.33028 0.93042 0.0
C1236 C 0.69806 0.28537 0.84532 0.0
C1237 C 0.7146 0.2784 0.82491 0.0
C1238 C 0.71822 0.28535 0.86475 0.0
C1239 C 0.75526 0.27788 0.86425 0.0
C1240 C 0.77181 0.27049 0.84388 0.0
C1241 C 0.7517 0.27109 0.82434 0.0
C1242 C 0.81777 0.24927 0.91057 0.0
C1243 C 0.81418 0.27806 0.92553 0.0
C1244 C 0.79924 0.24949 0.89045 0.0
C1245 C 0.7764 0.27824 0.88499 0.0
C1246 C 0.77308 0.30713 0.89974 0.0
C1247 C 0.79192 0.30719 0.91967 0.0
H1248 H 0.81026 0.67455 0.59387 0.0
H1249 H 0.75579 0.7591 0.55819 0.0
H1250 H 0.80973 0.71134 0.62709 0.0
H1251 H 0.75617 0.7965 0.59142 0.0
H1252 H 0.72894 0.8331 0.66329 0.0
H1253 H 0.72891 0.7992 0.62869 0.0
H1254 H 0.83835 0.76564 0.64107 0.0
H1255 H 0.83841 0.7994 0.67548 0.0
C1256 C 0.79806 0.70098 0.59313 0.0
C1257 C 0.78296 0.71383 0.57338 0.0
C1258 C 0.79813 0.72226 0.61212 0.0
C1259 C 0.78307 0.75695 0.6119 0.0
C1260 C 0.76778 0.76981 0.59218 0.0
C1261 C 0.76787 0.74853 0.5731 0.0
C1262 C 0.75312 0.81884 0.65847 0.0
C1263 C 0.78355 0.81866 0.67227 0.0
C1264 C 0.7531 0.79942 0.63865 0.0
C1265 C 0.7835 0.7794 0.63223 0.0
C1266 C 0.81421 0.78011 0.64575 0.0
C1267 C 0.81424 0.79947 0.66549 0.0
H1268 H 0.7817 0.1774 0.32456 0.0
H1269 H 0.82576 0.28279 0.33789 0.0
H1270 H 0.74486 0.18172 0.35763 0.0
H1271 H 0.78957 0.28636 0.37149 0.0
H1272 H 0.74865 0.2547 0.44231 0.0
H1273 H 0.78492 0.25457 0.4086 0.0
H1274 H 0.69256 0.21898 0.37134 0.0
H1275 H 0.65635 0.21892 0.40505 0.0
C1276 C 0.78342 0.20164 0.3344 0.0
C1277 C 0.80666 0.22986 0.32832 0.0
C1278 C 0.7623 0.20403 0.35342 0.0
C1279 C 0.76413 0.23446 0.36708 0.0
C1280 C 0.78775 0.26246 0.36134 0.0
C1281 C 0.80864 0.26029 0.34211 0.0
C1282 C 0.7361 0.24693 0.4269 0.0
C1283 C 0.69969 0.23663 0.42634 0.0
C1284 C 0.75679 0.24712 0.40759 0.0
C1285 C 0.74164 0.23659 0.38735 0.0
C1286 C 0.70507 0.2269 0.38673 0.0
C1287 C 0.68427 0.22715 0.40598 0.0
H1288 H 0.1715 0.18279 0.67008 0.0
H1289 H 0.27756 0.22228 0.68596 0.0
H1290 H 0.17114 0.21946 0.63649 0.0
H1291 H 0.27747 0.25851 0.65209 0.0
H1292 H 0.274 0.27784 0.57482 0.0
H1293 H 0.27511 0.24306 0.60921 0.0
H1294 H 0.17302 0.28921 0.628 0.0
H1295 H 0.1722 0.32442 0.59382 0.0
C1296 C 0.19475 0.19925 0.66631 0.0
C1297 C 0.22456 0.19975 0.68056 0.0
C1298 C 0.19446 0.22032 0.6472 0.0
C1299 C 0.22429 0.24175 0.64173 0.0
C1300 C 0.25422 0.24209 0.6559 0.0
C1301 C 0.25419 0.22157 0.67528 0.0
C1302 C 0.25188 0.28054 0.58635 0.0
C1303 C 0.22304 0.30381 0.58171 0.0
C1304 C 0.25261 0.26085 0.60603 0.0
C1305 C 0.22414 0.26349 0.62121 0.0
C1306 C 0.19522 0.28661 0.61652 0.0
C1307 C 0.19485 0.30685 0.59706 0.0
H1308 H 0.26607 0.75916 0.44914 0.0
H1309 H 0.35996 0.79245 0.41266 0.0
H1310 H 0.23183 0.75541 0.41495 0.0
H1311 H 0.32549 0.7906 0.37844 0.0
H1312 H 0.26318 0.75636 0.31754 0.0
H1313 H 0.29816 0.75526 0.35164 0.0
H1314 H 0.20401 0.78956 0.38804 0.0
H1315 H 0.16902 0.78874 0.35412 0.0
C1316 C 0.27925 0.76602 0.43376 0.0
C1317 C 0.31563 0.77618 0.43356 0.0
C1318 C 0.25959 0.7641 0.4141 0.0
C1319 C 0.27562 0.77294 0.39373 0.0
C1320 C 0.3122 0.78295 0.39362 0.0
C1321 C 0.33201 0.78424 0.41327 0.0
C1322 C 0.25008 0.76348 0.33291 0.0
C1323 C 0.21337 0.77243 0.33322 0.0
C1324 C 0.27014 0.76311 0.35249 0.0
C1325 C 0.25412 0.77234 0.37282 0.0
C1326 C 0.2173 0.78146 0.37294 0.0
C1327 C 0.19717 0.78119 0.35345 0.0
loop_
_geom_bond_atom_site_label_1
_geom_bond_atom_site_label_2
_geom_bond_distance
_geom_bond_site_symmetry_2
_ccdc_geom_bond_type
Co0 N4 2.148 . S
Co0 N10 2.128 . S
Co0 N20 2.194 1_556 S
Co0 O25 2.351 . S
Co0 O26 2.155 . S
Co0 O27 2.096 . S
C1 N4 1.301 . S
C1 N5 1.328 . S
C1 H6 0.930 . S
C2 C3 1.333 . S
C2 N4 1.317 . S
C2 H7 0.939 . S
C3 C2 1.333 . S
C3 N5 1.350 . S
C3 H29 0.931 . S
N4 Co0 2.148 . S
N4 C1 1.301 . S
N4 C2 1.317 . S
N5 C1 1.328 . S
N5 C3 1.350 . S
H6 C1 0.930 . S
H7 C2 0.939 . S
C8 O9 1.224 . S
C8 O27 1.247 1_554 S
O9 C8 1.224 . S
N10 Co0 2.128 . S
N10 C11 1.355 . S
N10 C13 1.311 . S
C11 N10 1.355 . S
C11 C12 1.363 . S
C11 H23 0.929 . S
C12 C11 1.363 . S
C12 N14 1.375 . S
C12 H30 0.930 1_556 S
C13 N10 1.311 . S
C13 N14 1.347 . S
C13 H24 0.929 . S
N14 C12 1.375 . S
N14 C13 1.347 . S
C15 C18 1.365 . S
C15 N20 1.328 . S
C15 H21 0.929 . S
C16 C17 1.362 . S
C16 C19 1.378 . S
C16 H31 0.929 . S
C17 C16 1.362 . S
C17 C18 1.366 . S
C18 C15 1.365 . S
C18 C17 1.366 . S
C18 H32 0.930 . S
C19 C16 1.378 . S
C19 N20 1.315 . S
C19 H22 0.930 . S
N20 Co0 2.194 1_554 S
N20 C15 1.328 . S
N20 C19 1.315 . S
H21 C15 0.929 . S
H22 C19 0.930 . S
H23 C11 0.929 . S
H24 C13 0.929 . S
O25 Co0 2.351 . S
O25 C28 1.244 . S
O26 Co0 2.155 . S
O26 C28 1.240 . S
O27 Co0 2.096 . S
O27 C8 1.247 1_556 S
C28 O25 1.244 . S
C28 O26 1.240 . S
H29 C3 0.931 . S
H30 C12 0.930 1_554 S
H31 C16 0.929 . S
H32 C18 0.930 . S
Co33 N37 2.148 . S
Co33 N43 2.128 . S
Co33 N53 2.194 1_554 S
Co33 O58 2.351 . S
Co33 O59 2.155 . S
Co33 O60 2.096 . S
C34 N37 1.301 . S
C34 N38 1.328 . S
C34 H39 0.930 . S
C35 C36 1.333 . S
C35 N37 1.317 . S
C35 H40 0.939 . S
C36 C35 1.333 . S
C36 N38 1.350 . S
C36 H62 0.931 . S
N37 Co33 2.148 . S
N37 C34 1.301 . S
N37 C35 1.317 . S
N38 C34 1.328 . S
N38 C36 1.350 . S
H39 C34 0.930 . S
H40 C35 0.939 . S
C41 O42 1.224 . S
C41 O60 1.247 1_556 S
O42 C41 1.224 . S
N43 Co33 2.128 . S
N43 C44 1.355 . S
N43 C46 1.311 . S
C44 N43 1.355 . S
C44 C45 1.363 . S
C44 H56 0.929 . S
C45 C44 1.363 . S
C45 N47 1.375 . S
C45 H63 0.930 1_554 S
C46 N43 1.311 . S
C46 N47 1.347 . S
C46 H57 0.929 . S
N47 C45 1.375 . S
N47 C46 1.347 . S
C48 C51 1.365 . S
C48 N53 1.328 . S
C48 H54 0.929 . S
C49 C50 1.362 . S
C49 C52 1.378 . S
C49 H64 0.929 . S
C50 C49 1.362 . S
C50 C51 1.366 . S
C51 C48 1.365 . S
C51 C50 1.366 . S
C51 H65 0.930 . S
C52 C49 1.378 . S
C52 N53 1.315 . S
C52 H55 0.930 . S
N53 Co33 2.194 1_556 S
N53 C48 1.328 . S
N53 C52 1.315 . S
H54 C48 0.929 . S
H55 C52 0.930 . S
H56 C44 0.929 . S
H57 C46 0.929 . S
O58 Co33 2.351 . S
O58 C61 1.244 . S
O59 Co33 2.155 . S
O59 C61 1.240 . S
O60 Co33 2.096 . S
O60 C41 1.247 1_554 S
C61 O58 1.244 . S
C61 O59 1.240 . S
H62 C36 0.931 . S
H63 C45 0.930 1_556 S
H64 C49 0.929 . S
H65 C51 0.930 . S
Co66 N70 2.148 . S
Co66 N76 2.128 . S
Co66 N86 2.194 1_556 S
Co66 O91 2.351 . S
Co66 O92 2.155 . S
Co66 O93 2.096 . S
C67 N70 1.301 . S
C67 N71 1.328 . S
C67 H72 0.930 . S
C68 C69 1.333 . S
C68 N70 1.317 . S
C68 H73 0.939 . S
C69 C68 1.333 . S
C69 N71 1.350 . S
C69 H95 0.931 . S
N70 Co66 2.148 . S
N70 C67 1.301 . S
N70 C68 1.317 . S
N71 C67 1.328 . S
N71 C69 1.350 . S
H72 C67 0.930 . S
H73 C68 0.939 . S
C74 O75 1.224 . S
C74 O93 1.247 1_554 S
O75 C74 1.224 . S
N76 Co66 2.128 . S
N76 C77 1.355 . S
N76 C79 1.311 . S
C77 N76 1.355 . S
C77 C78 1.363 . S
C77 H89 0.929 . S
C78 C77 1.363 . S
C78 N80 1.375 . S
C78 H96 0.930 1_556 S
C79 N76 1.311 . S
C79 N80 1.347 . S
C79 H90 0.929 . S
N80 C78 1.375 . S
N80 C79 1.347 . S
C81 C84 1.365 . S
C81 N86 1.328 . S
C81 H87 0.929 . S
C82 C83 1.362 . S
C82 C85 1.378 . S
C82 H97 0.929 . S
C83 C82 1.362 . S
C83 C84 1.366 . S
C84 C81 1.365 . S
C84 C83 1.366 . S
C84 H98 0.930 . S
C85 C82 1.378 . S
C85 N86 1.315 . S
C85 H88 0.930 . S
N86 Co66 2.194 1_554 S
N86 C81 1.328 . S
N86 C85 1.315 . S
H87 C81 0.929 . S
H88 C85 0.930 . S
H89 C77 0.929 . S
H90 C79 0.929 . S
O91 Co66 2.351 . S
O91 C94 1.244 . S
O92 Co66 2.155 . S
O92 C94 1.240 . S
O93 Co66 2.096 . S
O93 C74 1.247 1_556 S
C94 O91 1.244 . S
C94 O92 1.240 . S
H95 C69 0.931 . S
H96 C78 0.930 1_554 S
H97 C82 0.929 . S
H98 C84 0.930 . S
Co99 N103 2.148 . S
Co99 N109 2.128 . S
Co99 N119 2.194 1_554 S
Co99 O124 2.351 . S
Co99 O125 2.155 . S
Co99 O126 2.096 . S
C100 N103 1.301 . S
C100 N104 1.328 . S
C100 H105 0.930 . S
C101 C102 1.333 . S
C101 N103 1.317 . S
C101 H106 0.939 . S
C102 C101 1.333 . S
C102 N104 1.350 . S
C102 H128 0.931 . S
N103 Co99 2.148 . S
N103 C100 1.301 . S
N103 C101 1.317 . S
N104 C100 1.328 . S
N104 C102 1.350 . S
H105 C100 0.930 . S
H106 C101 0.939 . S
C107 O108 1.224 . S
C107 O126 1.247 1_556 S
O108 C107 1.224 . S
N109 Co99 2.128 . S
N109 C110 1.355 . S
N109 C112 1.311 . S
C110 N109 1.355 . S
C110 C111 1.363 . S
C110 H122 0.929 . S
C111 C110 1.363 . S
C111 N113 1.375 . S
C111 H129 0.930 1_554 S
C112 N109 1.311 . S
C112 N113 1.347 . S
C112 H123 0.929 . S
N113 C111 1.375 . S
N113 C112 1.347 . S
C114 C117 1.365 . S
C114 N119 1.328 . S
C114 H120 0.929 . S
C115 C116 1.362 . S
C115 C118 1.378 . S
C115 H130 0.929 . S
C116 C115 1.362 . S
C116 C117 1.366 . S
C117 C114 1.365 . S
C117 C116 1.366 . S
C117 H131 0.930 . S
C118 C115 1.378 . S
C118 N119 1.315 . S
C118 H121 0.930 . S
N119 Co99 2.194 1_556 S
N119 C114 1.328 . S
N119 C118 1.315 . S
H120 C114 0.929 . S
H121 C118 0.930 . S
H122 C110 0.929 . S
H123 C112 0.929 . S
O124 Co99 2.351 . S
O124 C127 1.244 . S
O125 Co99 2.155 . S
O125 C127 1.240 . S
O126 Co99 2.096 . S
O126 C107 1.247 1_554 S
C127 O124 1.244 . S
C127 O125 1.240 . S
H128 C102 0.931 . S
H129 C111 0.930 1_556 S
H130 C115 0.929 . S
H131 C117 0.930 . S
Co132 N136 2.148 . S
Co132 N142 2.128 . S
Co132 N152 2.194 . S
Co132 O157 2.351 . S
Co132 O158 2.155 . S
Co132 O159 2.096 . S
C133 N136 1.301 . S
C133 N137 1.328 . S
C133 H138 0.930 . S
C134 C135 1.333 . S
C134 N136 1.317 . S
C134 H139 0.930 . S
C135 C134 1.333 . S
C135 N137 1.350 . S
C135 H161 0.931 . S
N136 Co132 2.148 . S
N136 C133 1.301 . S
N136 C134 1.317 . S
N137 C133 1.328 . S
N137 C135 1.350 . S
H138 C133 0.930 . S
H139 C134 0.930 . S
C140 O141 1.224 . S
C140 O159 1.247 . S
O141 C140 1.224 . S
N142 Co132 2.128 . S
N142 C143 1.355 . S
N142 C145 1.311 . S
C143 N142 1.355 . S
C143 C144 1.363 . S
C143 H155 0.929 . S
C144 C143 1.363 . S
C144 N146 1.375 . S
C144 H162 0.931 . S
C145 N142 1.311 . S
C145 N146 1.347 . S
C145 H156 0.929 . S
N146 C144 1.375 . S
N146 C145 1.347 . S
C147 C150 1.365 . S
C147 N152 1.328 . S
C147 H153 0.929 . S
C148 C149 1.362 . S
C148 C151 1.378 . S
C148 H163 0.929 . S
C149 C148 1.362 . S
C149 C150 1.366 . S
C150 C147 1.365 . S
C150 C149 1.366 . S
C150 H164 0.930 . S
C151 C148 1.378 . S
C151 N152 1.315 . S
C151 H154 0.930 . S
N152 Co132 2.194 . S
N152 C147 1.328 . S
N152 C151 1.315 . S
H153 C147 0.929 . S
H154 C151 0.930 . S
H155 C143 0.929 . S
H156 C145 0.929 . S
O157 Co132 2.351 . S
O157 C160 1.244 . S
O158 Co132 2.155 . S
O158 C160 1.240 . S
O159 Co132 2.096 . S
O159 C140 1.247 . S
C160 O157 1.244 . S
C160 O158 1.240 . S
H161 C135 0.931 . S
H162 C144 0.931 . S
H163 C148 0.929 . S
H164 C150 0.930 . S
Co165 N169 2.148 . S
Co165 N175 2.128 . S
Co165 N185 2.194 . S
Co165 O190 2.351 . S
Co165 O191 2.155 . S
Co165 O192 2.096 . S
C166 N169 1.301 . S
C166 N170 1.328 . S
C166 H171 0.930 . S
C167 C168 1.333 . S
C167 N169 1.317 . S
C167 H172 0.930 . S
C168 C167 1.333 . S
C168 N170 1.350 . S
C168 H194 0.931 . S
N169 Co165 2.148 . S
N169 C166 1.301 . S
N169 C167 1.317 . S
N170 C166 1.328 . S
N170 C168 1.350 . S
H171 C166 0.930 . S
H172 C167 0.930 . S
C173 O174 1.224 . S
C173 O192 1.247 . S
O174 C173 1.224 . S
N175 Co165 2.128 . S
N175 C176 1.355 . S
N175 C178 1.311 . S
C176 N175 1.355 . S
C176 C177 1.363 . S
C176 H188 0.929 . S
C177 C176 1.363 . S
C177 N179 1.375 . S
C177 H195 0.931 . S
C178 N175 1.311 . S
C178 N179 1.347 . S
C178 H189 0.929 . S
N179 C177 1.375 . S
N179 C178 1.347 . S
C180 C183 1.365 . S
C180 N185 1.328 . S
C180 H186 0.929 . S
C181 C182 1.362 . S
C181 C184 1.378 . S
C181 H196 0.929 . S
C182 C181 1.362 . S
C182 C183 1.366 . S
C183 C180 1.365 . S
C183 C182 1.366 . S
C183 H197 0.930 . S
C184 C181 1.378 . S
C184 N185 1.315 . S
C184 H187 0.930 . S
N185 Co165 2.194 . S
N185 C180 1.328 . S
N185 C184 1.315 . S
H186 C180 0.929 . S
H187 C184 0.930 . S
H188 C176 0.929 . S
H189 C178 0.929 . S
O190 Co165 2.351 . S
O190 C193 1.244 . S
O191 Co165 2.155 . S
O191 C193 1.240 . S
O192 Co165 2.096 . S
O192 C173 1.247 . S
C193 O190 1.244 . S
C193 O191 1.240 . S
H194 C168 0.931 . S
H195 C177 0.931 . S
H196 C181 0.929 . S
H197 C183 0.930 . S
Co198 N202 2.148 . S
Co198 N208 2.128 . S
Co198 N218 2.194 . S
Co198 O223 2.351 . S
Co198 O224 2.155 . S
Co198 O225 2.096 . S
C199 N202 1.301 . S
C199 N203 1.328 . S
C199 H204 0.930 . S
C200 C201 1.333 . S
C200 N202 1.317 . S
C200 H205 0.930 . S
C201 C200 1.333 . S
C201 N203 1.350 . S
C201 H227 0.931 . S
N202 Co198 2.148 . S
N202 C199 1.301 . S
N202 C200 1.317 . S
N203 C199 1.328 . S
N203 C201 1.350 . S
H204 C199 0.930 . S
H205 C200 0.930 . S
C206 O207 1.224 . S
C206 O225 1.247 . S
O207 C206 1.224 . S
N208 Co198 2.128 . S
N208 C209 1.355 . S
N208 C211 1.311 . S
C209 N208 1.355 . S
C209 C210 1.363 . S
C209 H221 0.929 . S
C210 C209 1.363 . S
C210 N212 1.375 . S
C210 H228 0.931 . S
C211 N208 1.311 . S
C211 N212 1.347 . S
C211 H222 0.929 . S
N212 C210 1.375 . S
N212 C211 1.347 . S
C213 C216 1.365 . S
C213 N218 1.328 . S
C213 H219 0.929 . S
C214 C215 1.362 . S
C214 C217 1.378 . S
C214 H229 0.929 . S
C215 C214 1.362 . S
C215 C216 1.366 . S
C216 C213 1.365 . S
C216 C215 1.366 . S
C216 H230 0.930 . S
C217 C214 1.378 . S
C217 N218 1.315 . S
C217 H220 0.930 . S
N218 Co198 2.194 . S
N218 C213 1.328 . S
N218 C217 1.315 . S
H219 C213 0.929 . S
H220 C217 0.930 . S
H221 C209 0.929 . S
H222 C211 0.929 . S
O223 Co198 2.351 . S
O223 C226 1.244 . S
O224 Co198 2.155 . S
O224 C226 1.240 . S
O225 Co198 2.096 . S
O225 C206 1.247 . S
C226 O223 1.244 . S
C226 O224 1.240 . S
H227 C201 0.931 . S
H228 C210 0.931 . S
H229 C214 0.929 . S
H230 C216 0.930 . S
Co231 N235 2.148 . S
Co231 N241 2.128 . S
Co231 N251 2.194 . S
Co231 O256 2.351 . S
Co231 O257 2.155 . S
Co231 O258 2.096 . S
C232 N235 1.301 . S
C232 N236 1.328 . S
C232 H237 0.930 . S
C233 C234 1.333 . S
C233 N235 1.317 . S
C233 H238 0.930 . S
C234 C233 1.333 . S
C234 N236 1.350 . S
C234 H260 0.931 . S
N235 Co231 2.148 . S
N235 C232 1.301 . S
N235 C233 1.317 . S
N236 C232 1.328 . S
N236 C234 1.350 . S
H237 C232 0.930 . S
H238 C233 0.930 . S
C239 O240 1.224 . S
C239 O258 1.247 . S
O240 C239 1.224 . S
N241 Co231 2.128 . S
N241 C242 1.355 . S
N241 C244 1.311 . S
C242 N241 1.355 . S
C242 C243 1.363 . S
C242 H254 0.929 . S
C243 C242 1.363 . S
C243 N245 1.375 . S
C243 H261 0.931 . S
C244 N241 1.311 . S
C244 N245 1.347 . S
C244 H255 0.929 . S
N245 C243 1.375 . S
N245 C244 1.347 . S
C246 C249 1.365 . S
C246 N251 1.328 . S
C246 H252 0.929 . S
C247 C248 1.362 . S
C247 C250 1.378 . S
C247 H262 0.929 . S
C248 C247 1.362 . S
C248 C249 1.366 . S
C249 C246 1.365 . S
C249 C248 1.366 . S
C249 H263 0.930 . S
C250 C247 1.378 . S
C250 N251 1.315 . S
C250 H253 0.930 . S
N251 Co231 2.194 . S
N251 C246 1.328 . S
N251 C250 1.315 . S
H252 C246 0.929 . S
H253 C250 0.930 . S
H254 C242 0.929 . S
H255 C244 0.929 . S
O256 Co231 2.351 . S
O256 C259 1.244 . S
O257 Co231 2.155 . S
O257 C259 1.240 . S
O258 Co231 2.096 . S
O258 C239 1.247 . S
C259 O256 1.244 . S
C259 O257 1.240 . S
H260 C234 0.931 . S
H261 C243 0.931 . S
H262 C247 0.929 . S
H263 C249 0.930 . S
Co264 N268 2.148 . S
Co264 N274 2.128 . S
Co264 N284 2.194 . S
Co264 O289 2.351 . S
Co264 O290 2.155 . S
Co264 O291 2.096 . S
C265 N268 1.301 . S
C265 N269 1.328 . S
C265 H270 0.930 . S
C266 C267 1.333 . S
C266 N268 1.317 . S
C266 H271 0.930 . S
C267 C266 1.333 . S
C267 N269 1.350 . S
C267 H293 0.931 . S
N268 Co264 2.148 . S
N268 C265 1.301 . S
N268 C266 1.317 . S
N269 C265 1.328 . S
N269 C267 1.350 . S
H270 C265 0.930 . S
H271 C266 0.930 . S
C272 O273 1.224 . S
C272 O291 1.247 . S
O273 C272 1.224 . S
N274 Co264 2.128 . S
N274 C275 1.355 . S
N274 C277 1.311 . S
C275 N274 1.355 . S
C275 C276 1.363 . S
C275 H287 0.929 . S
C276 C275 1.363 . S
C276 N278 1.375 . S
C276 H294 0.931 . S
C277 N274 1.311 . S
C277 N278 1.347 . S
C277 H288 0.929 . S
N278 C276 1.375 . S
N278 C277 1.347 . S
C279 C282 1.365 . S
C279 N284 1.328 . S
C279 H285 0.929 . S
C280 C281 1.362 . S
C280 C283 1.378 . S
C280 H295 0.929 . S
C281 C280 1.362 . S
C281 C282 1.366 . S
C282 C279 1.365 . S
C282 C281 1.366 . S
C282 H296 0.930 . S
C283 C280 1.378 . S
C283 N284 1.315 . S
C283 H286 0.930 . S
N284 Co264 2.194 . S
N284 C279 1.328 . S
N284 C283 1.315 . S
H285 C279 0.929 . S
H286 C283 0.930 . S
H287 C275 0.929 . S
H288 C277 0.929 . S
O289 Co264 2.351 . S
O289 C292 1.244 . S
O290 Co264 2.155 . S
O290 C292 1.240 . S
O291 Co264 2.096 . S
O291 C272 1.247 . S
C292 O289 1.244 . S
C292 O290 1.240 . S
H293 C267 0.931 . S
H294 C276 0.931 . S
H295 C280 0.929 . S
H296 C282 0.930 . S
Co297 N301 2.148 . S
Co297 N307 2.128 . S
Co297 N317 2.194 . S
Co297 O322 2.351 . S
Co297 O323 2.155 . S
Co297 O324 2.096 . S
C298 N301 1.301 . S
C298 N302 1.328 . S
C298 H303 0.930 . S
C299 C300 1.333 . S
C299 N301 1.317 . S
C299 H304 0.930 . S
C300 C299 1.333 . S
C300 N302 1.350 . S
C300 H326 0.931 . S
N301 Co297 2.148 . S
N301 C298 1.301 . S
N301 C299 1.317 . S
N302 C298 1.328 . S
N302 C300 1.350 . S
H303 C298 0.930 . S
H304 C299 0.930 . S
C305 O306 1.224 . S
C305 O324 1.247 . S
O306 C305 1.224 . S
N307 Co297 2.128 . S
N307 C308 1.355 . S
N307 C310 1.311 . S
C308 N307 1.355 . S
C308 C309 1.363 . S
C308 H320 0.929 . S
C309 C308 1.363 . S
C309 N311 1.375 . S
C309 H327 0.931 . S
C310 N307 1.311 . S
C310 N311 1.347 . S
C310 H321 0.929 . S
N311 C309 1.375 . S
N311 C310 1.347 . S
C312 C315 1.365 . S
C312 N317 1.328 . S
C312 H318 0.929 . S
C313 C314 1.362 . S
C313 C316 1.378 . S
C313 H328 0.929 . S
C314 C313 1.362 . S
C314 C315 1.366 . S
C315 C312 1.365 . S
C315 C314 1.366 . S
C315 H329 0.930 . S
C316 C313 1.378 . S
C316 N317 1.315 . S
C316 H319 0.930 . S
N317 Co297 2.194 . S
N317 C312 1.328 . S
N317 C316 1.315 . S
H318 C312 0.929 . S
H319 C316 0.930 . S
H320 C308 0.929 . S
H321 C310 0.929 . S
O322 Co297 2.351 . S
O322 C325 1.244 . S
O323 Co297 2.155 . S
O323 C325 1.240 . S
O324 Co297 2.096 . S
O324 C305 1.247 . S
C325 O322 1.244 . S
C325 O323 1.240 . S
H326 C300 0.931 . S
H327 C309 0.931 . S
H328 C313 0.929 . S
H329 C315 0.930 . S
Co330 N334 2.148 . S
Co330 N340 2.128 . S
Co330 N350 2.194 . S
Co330 O355 2.351 . S
Co330 O356 2.155 . S
Co330 O357 2.096 . S
C331 N334 1.301 . S
C331 N335 1.328 . S
C331 H336 0.930 . S
C332 C333 1.333 . S
C332 N334 1.317 . S
C332 H337 0.930 . S
C333 C332 1.333 . S
C333 N335 1.350 . S
C333 H359 0.931 . S
N334 Co330 2.148 . S
N334 C331 1.301 . S
N334 C332 1.317 . S
N335 C331 1.328 . S
N335 C333 1.350 . S
H336 C331 0.930 . S
H337 C332 0.930 . S
C338 O339 1.224 . S
C338 O357 1.247 . S
O339 C338 1.224 . S
N340 Co330 2.128 . S
N340 C341 1.355 . S
N340 C343 1.311 . S
C341 N340 1.355 . S
C341 C342 1.363 . S
C341 H353 0.929 . S
C342 C341 1.363 . S
C342 N344 1.375 . S
C342 H360 0.931 . S
C343 N340 1.311 . S
C343 N344 1.347 . S
C343 H354 0.929 . S
N344 C342 1.375 . S
N344 C343 1.347 . S
C345 C348 1.365 . S
C345 N350 1.328 . S
C345 H351 0.929 . S
C346 C347 1.362 . S
C346 C349 1.378 . S
C346 H361 0.929 . S
C347 C346 1.362 . S
C347 C348 1.366 . S
C348 C345 1.365 . S
C348 C347 1.366 . S
C348 H362 0.930 . S
C349 C346 1.378 . S
C349 N350 1.315 . S
C349 H352 0.930 . S
N350 Co330 2.194 . S
N350 C345 1.328 . S
N350 C349 1.315 . S
H351 C345 0.929 . S
H352 C349 0.930 . S
H353 C341 0.929 . S
H354 C343 0.929 . S
O355 Co330 2.351 . S
O355 C358 1.244 . S
O356 Co330 2.155 . S
O356 C358 1.240 . S
O357 Co330 2.096 . S
O357 C338 1.247 . S
C358 O355 1.244 . S
C358 O356 1.240 . S
H359 C333 0.931 . S
H360 C342 0.931 . S
H361 C346 0.929 . S
H362 C348 0.930 . S
Co363 N367 2.148 . S
Co363 N373 2.128 . S
Co363 N383 2.194 . S
Co363 O388 2.351 . S
Co363 O389 2.155 . S
Co363 O390 2.096 . S
C364 N367 1.301 . S
C364 N368 1.328 . S
C364 H369 0.930 . S
C365 C366 1.333 . S
C365 N367 1.317 . S
C365 H370 0.930 . S
C366 C365 1.333 . S
C366 N368 1.350 . S
C366 H392 0.931 . S
N367 Co363 2.148 . S
N367 C364 1.301 . S
N367 C365 1.317 . S
N368 C364 1.328 . S
N368 C366 1.350 . S
H369 C364 0.930 . S
H370 C365 0.930 . S
C371 O372 1.224 . S
C371 O390 1.247 . S
O372 C371 1.224 . S
N373 Co363 2.128 . S
N373 C374 1.355 . S
N373 C376 1.311 . S
C374 N373 1.355 . S
C374 C375 1.363 . S
C374 H386 0.929 . S
C375 C374 1.363 . S
C375 N377 1.375 . S
C375 H393 0.931 . S
C376 N373 1.311 . S
C376 N377 1.347 . S
C376 H387 0.929 . S
N377 C375 1.375 . S
N377 C376 1.347 . S
C378 C381 1.365 . S
C378 N383 1.328 . S
C378 H384 0.929 . S
C379 C380 1.362 . S
C379 C382 1.378 . S
C379 H394 0.929 . S
C380 C379 1.362 . S
C380 C381 1.366 . S
C381 C378 1.365 . S
C381 C380 1.366 . S
C381 H395 0.930 . S
C382 C379 1.378 . S
C382 N383 1.315 . S
C382 H385 0.930 . S
N383 Co363 2.194 . S
N383 C378 1.328 . S
N383 C382 1.315 . S
H384 C378 0.929 . S
H385 C382 0.930 . S
H386 C374 0.929 . S
H387 C376 0.929 . S
O388 Co363 2.351 . S
O388 C391 1.244 . S
O389 Co363 2.155 . S
O389 C391 1.240 . S
O390 Co363 2.096 . S
O390 C371 1.247 . S
C391 O388 1.244 . S
C391 O389 1.240 . S
H392 C366 0.931 . S
H393 C375 0.931 . S
H394 C379 0.929 . S
H395 C381 0.930 . S
Co396 N400 2.148 . S
Co396 N406 2.128 . S
Co396 N416 2.194 . S
Co396 O421 2.351 . S
Co396 O422 2.155 . S
Co396 O423 2.096 . S
C397 N400 1.301 . S
C397 N401 1.328 . S
C397 H402 0.930 . S
C398 C399 1.333 . S
C398 N400 1.317 . S
C398 H403 0.930 . S
C399 C398 1.333 . S
C399 N401 1.350 . S
C399 H425 0.931 . S
N400 Co396 2.148 . S
N400 C397 1.301 . S
N400 C398 1.317 . S
N401 C397 1.328 . S
N401 C399 1.350 . S
H402 C397 0.930 . S
H403 C398 0.930 . S
C404 O405 1.224 . S
C404 O423 1.247 . S
O405 C404 1.224 . S
N406 Co396 2.128 . S
N406 C407 1.355 . S
N406 C409 1.311 . S
C407 N406 1.355 . S
C407 C408 1.363 . S
C407 H419 0.929 . S
C408 C407 1.363 . S
C408 N410 1.375 . S
C408 H426 0.931 . S
C409 N406 1.311 . S
C409 N410 1.347 . S
C409 H420 0.929 . S
N410 C408 1.375 . S
N410 C409 1.347 . S
C411 C414 1.365 . S
C411 N416 1.328 . S
C411 H417 0.929 . S
C412 C413 1.362 . S
C412 C415 1.378 . S
C412 H427 0.929 . S
C413 C412 1.362 . S
C413 C414 1.366 . S
C414 C411 1.365 . S
C414 C413 1.366 . S
C414 H428 0.930 . S
C415 C412 1.378 . S
C415 N416 1.315 . S
C415 H418 0.930 . S
N416 Co396 2.194 . S
N416 C411 1.328 . S
N416 C415 1.315 . S
H417 C411 0.929 . S
H418 C415 0.930 . S
H419 C407 0.929 . S
H420 C409 0.929 . S
O421 Co396 2.351 . S
O421 C424 1.244 . S
O422 Co396 2.155 . S
O422 C424 1.240 . S
O423 Co396 2.096 . S
O423 C404 1.247 . S
C424 O421 1.244 . S
C424 O422 1.240 . S
H425 C399 0.931 . S
H426 C408 0.931 . S
H427 C412 0.929 . S
H428 C414 0.930 . S
Co429 N433 2.148 . S
Co429 N439 2.128 . S
Co429 N449 2.194 . S
Co429 O454 2.351 . S
Co429 O455 2.155 . S
Co429 O456 2.096 . S
C430 N433 1.301 . S
C430 N434 1.328 . S
C430 H435 0.930 . S
C431 C432 1.333 . S
C431 N433 1.317 . S
C431 H436 0.930 . S
C432 C431 1.333 . S
C432 N434 1.350 . S
C432 H458 0.931 . S
N433 Co429 2.148 . S
N433 C430 1.301 . S
N433 C431 1.317 . S
N434 C430 1.328 . S
N434 C432 1.350 . S
H435 C430 0.930 . S
H436 C431 0.930 . S
C437 O438 1.224 . S
C437 O456 1.247 . S
O438 C437 1.224 . S
N439 Co429 2.128 . S
N439 C440 1.355 . S
N439 C442 1.311 . S
C440 N439 1.355 . S
C440 C441 1.363 . S
C440 H452 0.929 . S
C441 C440 1.363 . S
C441 N443 1.375 . S
C441 H459 0.931 . S
C442 N439 1.311 . S
C442 N443 1.347 . S
C442 H453 0.929 . S
N443 C441 1.375 . S
N443 C442 1.347 . S
C444 C447 1.365 . S
C444 N449 1.328 . S
C444 H450 0.929 . S
C445 C446 1.362 . S
C445 C448 1.378 . S
C445 H460 0.929 . S
C446 C445 1.362 . S
C446 C447 1.366 . S
C447 C444 1.365 . S
C447 C446 1.366 . S
C447 H461 0.930 . S
C448 C445 1.378 . S
C448 N449 1.315 . S
C448 H451 0.930 . S
N449 Co429 2.194 . S
N449 C444 1.328 . S
N449 C448 1.315 . S
H450 C444 0.929 . S
H451 C448 0.930 . S
H452 C440 0.929 . S
H453 C442 0.929 . S
O454 Co429 2.351 . S
O454 C457 1.244 . S
O455 Co429 2.155 . S
O455 C457 1.240 . S
O456 Co429 2.096 . S
O456 C437 1.247 . S
C457 O454 1.244 . S
C457 O455 1.240 . S
H458 C432 0.931 . S
H459 C441 0.931 . S
H460 C445 0.929 . S
H461 C447 0.930 . S
Co462 N466 2.148 . S
Co462 N472 2.128 . S
Co462 N482 2.194 . S
Co462 O487 2.351 . S
Co462 O488 2.155 . S
Co462 O489 2.096 . S
C463 N466 1.301 . S
C463 N467 1.328 . S
C463 H468 0.930 . S
C464 C465 1.333 . S
C464 N466 1.317 . S
C464 H469 0.930 . S
C465 C464 1.333 . S
C465 N467 1.350 . S
C465 H491 0.931 . S
N466 Co462 2.148 . S
N466 C463 1.301 . S
N466 C464 1.317 . S
N467 C463 1.328 . S
N467 C465 1.350 . S
H468 C463 0.930 . S
H469 C464 0.930 . S
C470 O471 1.224 . S
C470 O489 1.247 . S
O471 C470 1.224 . S
N472 Co462 2.128 . S
N472 C473 1.355 . S
N472 C475 1.311 . S
C473 N472 1.355 . S
C473 C474 1.363 . S
C473 H485 0.929 . S
C474 C473 1.363 . S
C474 N476 1.375 . S
C474 H492 0.931 . S
C475 N472 1.311 . S
C475 N476 1.347 . S
C475 H486 0.929 . S
N476 C474 1.375 . S
N476 C475 1.347 . S
C477 C480 1.365 . S
C477 N482 1.328 . S
C477 H483 0.929 . S
C478 C479 1.362 . S
C478 C481 1.378 . S
C478 H493 0.929 . S
C479 C478 1.362 . S
C479 C480 1.366 . S
C480 C477 1.365 . S
C480 C479 1.366 . S
C480 H494 0.930 . S
C481 C478 1.378 . S
C481 N482 1.315 . S
C481 H484 0.930 . S
N482 Co462 2.194 . S
N482 C477 1.328 . S
N482 C481 1.315 . S
H483 C477 0.929 . S
H484 C481 0.930 . S
H485 C473 0.929 . S
H486 C475 0.929 . S
O487 Co462 2.351 . S
O487 C490 1.244 . S
O488 Co462 2.155 . S
O488 C490 1.240 . S
O489 Co462 2.096 . S
O489 C470 1.247 . S
C490 O487 1.244 . S
C490 O488 1.240 . S
H491 C465 0.931 . S
H492 C474 0.931 . S
H493 C478 0.929 . S
H494 C480 0.930 . S
Co495 N499 2.148 . S
Co495 N505 2.128 . S
Co495 N515 2.194 . S
Co495 O520 2.351 . S
Co495 O521 2.155 . S
Co495 O522 2.096 . S
C496 N499 1.301 . S
C496 N500 1.328 . S
C496 H501 0.930 . S
C497 C498 1.333 . S
C497 N499 1.317 . S
C497 H502 0.930 . S
C498 C497 1.333 . S
C498 N500 1.350 . S
C498 H524 0.931 . S
N499 Co495 2.148 . S
N499 C496 1.301 . S
N499 C497 1.317 . S
N500 C496 1.328 . S
N500 C498 1.350 . S
H501 C496 0.930 . S
H502 C497 0.930 . S
C503 O504 1.224 . S
C503 O522 1.247 . S
O504 C503 1.224 . S
N505 Co495 2.128 . S
N505 C506 1.355 . S
N505 C508 1.311 . S
C506 N505 1.355 . S
C506 C507 1.363 . S
C506 H518 0.929 . S
C507 C506 1.363 . S
C507 N509 1.375 . S
C507 H525 0.931 . S
C508 N505 1.311 . S
C508 N509 1.347 . S
C508 H519 0.929 . S
N509 C507 1.375 . S
N509 C508 1.347 . S
C510 C513 1.365 . S
C510 N515 1.328 . S
C510 H516 0.929 . S
C511 C512 1.362 . S
C511 C514 1.378 . S
C511 H526 0.929 . S
C512 C511 1.362 . S
C512 C513 1.366 . S
C513 C510 1.365 . S
C513 C512 1.366 . S
C513 H527 0.930 . S
C514 C511 1.378 . S
C514 N515 1.315 . S
C514 H517 0.930 . S
N515 Co495 2.194 . S
N515 C510 1.328 . S
N515 C514 1.315 . S
H516 C510 0.929 . S
H517 C514 0.930 . S
H518 C506 0.929 . S
H519 C508 0.929 . S
O520 Co495 2.351 . S
O520 C523 1.244 . S
O521 Co495 2.155 . S
O521 C523 1.240 . S
O522 Co495 2.096 . S
O522 C503 1.247 . S
C523 O520 1.244 . S
C523 O521 1.240 . S
H524 C498 0.931 . S
H525 C507 0.931 . S
H526 C511 0.929 . S
H527 C513 0.930 . S
H528 C536 0.950 . S
H529 C541 0.950 . S
H530 C538 0.950 . S
H531 C540 0.950 . S
H532 C542 0.950 . S
H533 C544 0.950 . S
H534 C546 0.950 . S
H535 C547 0.950 . S
C536 H528 0.950 . S
C536 C537 1.386 . S
C536 C538 1.391 . S
C537 C536 1.386 . S
C537 C541 1.393 . S
C538 H530 0.950 . S
C538 C536 1.391 . S
C538 C539 1.400 . S
C539 C538 1.400 . S
C539 C540 1.398 . S
C539 C545 1.491 . S
C540 H531 0.950 . S
C540 C539 1.398 . S
C540 C541 1.391 . S
C541 H529 0.950 . S
C541 C537 1.393 . S
C541 C540 1.391 . S
C542 H532 0.950 . S
C542 C543 1.386 . S
C542 C544 1.391 . S
C543 C542 1.386 . S
C543 C547 1.393 . S
C544 H533 0.950 . S
C544 C542 1.391 . S
C544 C545 1.400 . S
C545 C539 1.491 . S
C545 C544 1.400 . S
C545 C546 1.398 . S
C546 H534 0.950 . S
C546 C545 1.398 . S
C546 C547 1.391 . S
C547 H535 0.950 . S
C547 C543 1.393 . S
C547 C546 1.391 . S
H548 C556 0.950 . S
H549 C561 0.950 . S
H550 C558 0.950 . S
H551 C560 0.950 . S
H552 C562 0.950 . S
H553 C564 0.950 . S
H554 C566 0.950 . S
H555 C567 0.950 . S
C556 H548 0.950 . S
C556 C557 1.386 . S
C556 C558 1.391 . S
C557 C556 1.386 . S
C557 C561 1.393 . S
C558 H550 0.950 . S
C558 C556 1.391 . S
C558 C559 1.400 . S
C559 C558 1.400 . S
C559 C560 1.398 . S
C559 C565 1.491 . S
C560 H551 0.950 . S
C560 C559 1.398 . S
C560 C561 1.391 . S
C561 H549 0.950 . S
C561 C557 1.393 . S
C561 C560 1.391 . S
C562 H552 0.950 . S
C562 C563 1.386 . S
C562 C564 1.391 . S
C563 C562 1.386 . S
C563 C567 1.393 . S
C564 H553 0.950 . S
C564 C562 1.391 . S
C564 C565 1.400 . S
C565 C559 1.491 . S
C565 C564 1.400 . S
C565 C566 1.398 . S
C566 H554 0.950 . S
C566 C565 1.398 . S
C566 C567 1.391 . S
C567 H555 0.950 . S
C567 C563 1.393 . S
C567 C566 1.391 . S
H568 C576 0.950 . S
H569 C581 0.950 . S
H570 C578 0.950 . S
H571 C580 0.950 . S
H572 C582 0.950 . S
H573 C584 0.950 . S
H574 C586 0.950 . S
H575 C587 0.950 . S
C576 H568 0.950 . S
C576 C577 1.386 . S
C576 C578 1.391 . S
C577 C576 1.386 . S
C577 C581 1.393 . S
C578 H570 0.950 . S
C578 C576 1.391 . S
C578 C579 1.400 . S
C579 C578 1.400 . S
C579 C580 1.398 . S
C579 C585 1.491 . S
C580 H571 0.950 . S
C580 C579 1.398 . S
C580 C581 1.391 . S
C581 H569 0.950 . S
C581 C577 1.393 . S
C581 C580 1.391 . S
C582 H572 0.950 . S
C582 C583 1.386 . S
C582 C584 1.391 . S
C583 C582 1.386 . S
C583 C587 1.393 . S
C584 H573 0.950 . S
C584 C582 1.391 . S
C584 C585 1.400 . S
C585 C579 1.491 . S
C585 C584 1.400 . S
C585 C586 1.398 . S
C586 H574 0.950 . S
C586 C585 1.398 . S
C586 C587 1.391 . S
C587 H575 0.950 . S
C587 C583 1.393 . S
C587 C586 1.391 . S
H588 C596 0.950 . S
H589 C601 0.950 . S
H590 C598 0.950 . S
H591 C600 0.950 . S
H592 C602 0.950 . S
H593 C604 0.950 . S
H594 C606 0.950 . S
H595 C607 0.950 . S
C596 H588 0.950 . S
C596 C597 1.386 . S
C596 C598 1.391 . S
C597 C596 1.386 . S
C597 C601 1.393 . S
C598 H590 0.950 . S
C598 C596 1.391 . S
C598 C599 1.400 . S
C599 C598 1.400 . S
C599 C600 1.398 . S
C599 C605 1.491 . S
C600 H591 0.950 . S
C600 C599 1.398 . S
C600 C601 1.391 . S
C601 H589 0.950 . S
C601 C597 1.393 . S
C601 C600 1.391 . S
C602 H592 0.950 . S
C602 C603 1.386 . S
C602 C604 1.391 . S
C603 C602 1.386 . S
C603 C607 1.393 . S
C604 H593 0.950 . S
C604 C602 1.391 . S
C604 C605 1.400 . S
C605 C599 1.491 . S
C605 C604 1.400 . S
C605 C606 1.398 . S
C606 H594 0.950 . S
C606 C605 1.398 . S
C606 C607 1.391 . S
C607 H595 0.950 . S
C607 C603 1.393 . S
C607 C606 1.391 . S
H608 C616 0.950 . S
H609 C621 0.950 . S
H610 C618 0.950 . S
H611 C620 0.950 . S
H612 C622 0.950 . S
H613 C624 0.950 . S
H614 C626 0.950 . S
H615 C627 0.950 . S
C616 H608 0.950 . S
C616 C617 1.386 . S
C616 C618 1.391 . S
C617 C616 1.386 . S
C617 C621 1.393 . S
C618 H610 0.950 . S
C618 C616 1.391 . S
C618 C619 1.400 . S
C619 C618 1.400 . S
C619 C620 1.398 . S
C619 C625 1.491 . S
C620 H611 0.950 . S
C620 C619 1.398 . S
C620 C621 1.391 . S
C621 H609 0.950 . S
C621 C617 1.393 . S
C621 C620 1.391 . S
C622 H612 0.950 . S
C622 C623 1.386 . S
C622 C624 1.391 . S
C623 C622 1.386 . S
C623 C627 1.393 . S
C624 H613 0.950 . S
C624 C622 1.391 . S
C624 C625 1.400 . S
C625 C619 1.491 . S
C625 C624 1.400 . S
C625 C626 1.398 . S
C626 H614 0.950 . S
C626 C625 1.398 . S
C626 C627 1.391 . S
C627 H615 0.950 . S
C627 C623 1.393 . S
C627 C626 1.391 . S
H628 C636 0.950 . S
H629 C641 0.950 . S
H630 C638 0.950 . S
H631 C640 0.950 . S
H632 C642 0.950 . S
H633 C644 0.950 . S
H634 C646 0.950 . S
H635 C647 0.950 . S
C636 H628 0.950 . S
C636 C637 1.386 . S
C636 C638 1.391 . S
C637 C636 1.386 . S
C637 C641 1.393 . S
C638 H630 0.950 . S
C638 C636 1.391 . S
C638 C639 1.400 . S
C639 C638 1.400 . S
C639 C640 1.398 . S
C639 C645 1.491 . S
C640 H631 0.950 . S
C640 C639 1.398 . S
C640 C641 1.391 . S
C641 H629 0.950 . S
C641 C637 1.393 . S
C641 C640 1.391 . S
C642 H632 0.950 . S
C642 C643 1.386 . S
C642 C644 1.391 . S
C643 C642 1.386 . S
C643 C647 1.393 . S
C644 H633 0.950 . S
C644 C642 1.391 . S
C644 C645 1.400 . S
C645 C639 1.491 . S
C645 C644 1.400 . S
C645 C646 1.398 . S
C646 H634 0.950 . S
C646 C645 1.398 . S
C646 C647 1.391 . S
C647 H635 0.950 . S
C647 C643 1.393 . S
C647 C646 1.391 . S
H648 C656 0.950 . S
H649 C661 0.950 . S
H650 C658 0.950 . S
H651 C660 0.950 . S
H652 C662 0.950 . S
H653 C664 0.950 . S
H654 C666 0.950 . S
H655 C667 0.950 . S
C656 H648 0.950 . S
C656 C657 1.386 . S
C656 C658 1.391 . S
C657 C656 1.386 . S
C657 C661 1.393 . S
C658 H650 0.950 . S
C658 C656 1.391 . S
C658 C659 1.400 . S
C659 C658 1.400 . S
C659 C660 1.398 . S
C659 C665 1.491 . S
C660 H651 0.950 . S
C660 C659 1.398 . S
C660 C661 1.391 . S
C661 H649 0.950 . S
C661 C657 1.393 . S
C661 C660 1.391 . S
C662 H652 0.950 . S
C662 C663 1.386 . S
C662 C664 1.391 . S
C663 C662 1.386 . S
C663 C667 1.393 . S
C664 H653 0.950 . S
C664 C662 1.391 . S
C664 C665 1.400 . S
C665 C659 1.491 . S
C665 C664 1.400 . S
C665 C666 1.398 . S
C666 H654 0.950 . S
C666 C665 1.398 . S
C666 C667 1.391 . S
C667 H655 0.950 . S
C667 C663 1.393 . S
C667 C666 1.391 . S
H668 C676 0.950 . S
H669 C681 0.950 . S
H670 C678 0.950 . S
H671 C680 0.950 . S
H672 C682 0.950 . S
H673 C684 0.950 . S
H674 C686 0.950 . S
H675 C687 0.950 . S
C676 H668 0.950 . S
C676 C677 1.386 . S
C676 C678 1.391 . S
C677 C676 1.386 . S
C677 C681 1.393 . S
C678 H670 0.950 . S
C678 C676 1.391 . S
C678 C679 1.400 . S
C679 C678 1.400 . S
C679 C680 1.398 . S
C679 C685 1.491 . S
C680 H671 0.950 . S
C680 C679 1.398 . S
C680 C681 1.391 . S
C681 H669 0.950 . S
C681 C677 1.393 . S
C681 C680 1.391 . S
C682 H672 0.950 . S
C682 C683 1.386 . S
C682 C684 1.391 . S
C683 C682 1.386 . S
C683 C687 1.393 . S
C684 H673 0.950 . S
C684 C682 1.391 . S
C684 C685 1.400 . S
C685 C679 1.491 . S
C685 C684 1.400 . S
C685 C686 1.398 . S
C686 H674 0.950 . S
C686 C685 1.398 . S
C686 C687 1.391 . S
C687 H675 0.950 . S
C687 C683 1.393 . S
C687 C686 1.391 . S
H688 C696 0.950 . S
H689 C701 0.950 . S
H690 C698 0.950 . S
H691 C700 0.950 . S
H692 C702 0.950 . S
H693 C704 0.950 . S
H694 C706 0.950 . S
H695 C707 0.950 . S
C696 H688 0.950 . S
C696 C697 1.386 1_556 S
C696 C698 1.391 1_545 S
C697 C696 1.386 1_554 S
C697 C701 1.393 . S
C698 H690 0.950 . S
C698 C696 1.391 1_565 S
C698 C699 1.400 1_556 S
C699 C698 1.400 1_554 S
C699 C700 1.398 . S
C699 C705 1.491 . S
C700 H691 0.950 . S
C700 C699 1.398 . S
C700 C701 1.391 1_565 S
C701 H689 0.950 . S
C701 C697 1.393 . S
C701 C700 1.391 1_545 S
C702 H692 0.950 . S
C702 C703 1.386 . S
C702 C704 1.391 . S
C703 C702 1.386 . S
C703 C707 1.393 1_554 S
C704 H693 0.950 . S
C704 C702 1.391 . S
C704 C705 1.400 . S
C705 C699 1.491 . S
C705 C704 1.400 . S
C705 C706 1.398 1_554 S
C706 H694 0.950 . S
C706 C705 1.398 1_556 S
C706 C707 1.391 . S
C707 H695 0.950 . S
C707 C703 1.393 1_556 S
C707 C706 1.391 . S
H708 C716 0.950 . S
H709 C721 0.950 . S
H710 C718 0.950 . S
H711 C720 0.950 . S
H712 C722 0.950 . S
H713 C724 0.950 . S
H714 C726 0.950 . S
H715 C727 0.950 . S
C716 H708 0.950 . S
C716 C717 1.386 . S
C716 C718 1.391 1_455 S
C717 C716 1.386 . S
C717 C721 1.393 1_556 S
C718 H710 0.950 . S
C718 C716 1.391 1_655 S
C718 C719 1.400 . S
C719 C718 1.400 . S
C719 C720 1.398 1_556 S
C719 C725 1.491 . S
C720 H711 0.950 . S
C720 C719 1.398 1_554 S
C720 C721 1.391 1_655 S
C721 H709 0.950 . S
C721 C717 1.393 1_554 S
C721 C720 1.391 1_455 S
C722 H712 0.950 . S
C722 C723 1.386 1_554 S
C722 C724 1.391 . S
C723 C722 1.386 1_556 S
C723 C727 1.393 . S
C724 H713 0.950 . S
C724 C722 1.391 . S
C724 C725 1.400 1_554 S
C725 C719 1.491 . S
C725 C724 1.400 1_556 S
C725 C726 1.398 . S
C726 H714 0.950 . S
C726 C725 1.398 . S
C726 C727 1.391 . S
C727 H715 0.950 . S
C727 C723 1.393 . S
C727 C726 1.391 . S
H728 C736 0.950 . S
H729 C741 0.950 . S
H730 C738 0.950 . S
H731 C740 0.950 . S
H732 C742 0.950 . S
H733 C744 0.950 . S
H734 C746 0.950 . S
H735 C747 0.950 . S
C736 H728 0.950 . S
C736 C737 1.386 . S
C736 C738 1.391 1_565 S
C737 C736 1.386 . S
C737 C741 1.393 1_554 S
C738 H730 0.950 . S
C738 C736 1.391 1_545 S
C738 C739 1.400 . S
C739 C738 1.400 . S
C739 C740 1.398 1_554 S
C739 C745 1.491 . S
C740 H731 0.950 . S
C740 C739 1.398 1_556 S
C740 C741 1.391 1_545 S
C741 H729 0.950 . S
C741 C737 1.393 1_556 S
C741 C740 1.391 1_565 S
C742 H732 0.950 . S
C742 C743 1.386 1_556 S
C742 C744 1.391 . S
C743 C742 1.386 1_554 S
C743 C747 1.393 . S
C744 H733 0.950 . S
C744 C742 1.391 . S
C744 C745 1.400 1_556 S
C745 C739 1.491 . S
C745 C744 1.400 1_554 S
C745 C746 1.398 . S
C746 H734 0.950 . S
C746 C745 1.398 . S
C746 C747 1.391 . S
C747 H735 0.950 . S
C747 C743 1.393 . S
C747 C746 1.391 . S
H748 C756 0.950 . S
H749 C761 0.950 . S
H750 C758 0.950 . S
H751 C760 0.950 . S
H752 C762 0.950 . S
H753 C764 0.950 . S
H754 C766 0.950 . S
H755 C767 0.950 . S
C756 H748 0.950 . S
C756 C757 1.386 . S
C756 C758 1.391 . S
C757 C756 1.386 . S
C757 C761 1.393 1_556 S
C758 H750 0.950 . S
C758 C756 1.391 . S
C758 C759 1.400 . S
C759 C758 1.400 . S
C759 C760 1.398 1_556 S
C759 C765 1.491 . S
C760 H751 0.950 . S
C760 C759 1.398 1_554 S
C760 C761 1.391 . S
C761 H749 0.950 . S
C761 C757 1.393 1_554 S
C761 C760 1.391 . S
C762 H752 0.950 . S
C762 C763 1.386 1_554 S
C762 C764 1.391 1_655 S
C763 C762 1.386 1_556 S
C763 C767 1.393 . S
C764 H753 0.950 . S
C764 C762 1.391 1_455 S
C764 C765 1.400 1_554 S
C765 C759 1.491 . S
C765 C764 1.400 1_556 S
C765 C766 1.398 . S
C766 H754 0.950 . S
C766 C765 1.398 . S
C766 C767 1.391 1_455 S
C767 H755 0.950 . S
C767 C763 1.393 . S
C767 C766 1.391 1_655 S
H768 C776 0.950 . S
H769 C781 0.950 . S
H770 C778 0.950 . S
H771 C780 0.950 . S
H772 C782 0.950 . S
H773 C784 0.950 . S
H774 C786 0.950 . S
H775 C787 0.950 . S
C776 H768 0.950 . S
C776 C777 1.386 . S
C776 C778 1.391 . S
C777 C776 1.386 . S
C777 C781 1.393 . S
C778 H770 0.950 . S
C778 C776 1.391 . S
C778 C779 1.400 . S
C779 C778 1.400 . S
C779 C780 1.398 . S
C779 C785 1.491 . S
C780 H771 0.950 . S
C780 C779 1.398 . S
C780 C781 1.391 . S
C781 H769 0.950 . S
C781 C777 1.393 . S
C781 C780 1.391 . S
C782 H772 0.950 . S
C782 C783 1.386 . S
C782 C784 1.391 . S
C783 C782 1.386 . S
C783 C787 1.393 . S
C784 H773 0.950 . S
C784 C782 1.391 . S
C784 C785 1.400 . S
C785 C779 1.491 . S
C785 C784 1.400 . S
C785 C786 1.398 . S
C786 H774 0.950 . S
C786 C785 1.398 . S
C786 C787 1.391 . S
C787 H775 0.950 . S
C787 C783 1.393 . S
C787 C786 1.391 . S
H788 C796 0.950 . S
H789 C801 0.950 . S
H790 C798 0.950 . S
H791 C800 0.950 . S
H792 C802 0.950 . S
H793 C804 0.950 . S
H794 C806 0.950 . S
H795 C807 0.950 . S
C796 H788 0.950 . S
C796 C797 1.386 . S
C796 C798 1.391 . S
C797 C796 1.386 . S
C797 C801 1.393 . S
C798 H790 0.950 . S
C798 C796 1.391 . S
C798 C799 1.400 . S
C799 C798 1.400 . S
C799 C800 1.398 . S
C799 C805 1.491 . S
C800 H791 0.950 . S
C800 C799 1.398 . S
C800 C801 1.391 . S
C801 H789 0.950 . S
C801 C797 1.393 . S
C801 C800 1.391 . S
C802 H792 0.950 . S
C802 C803 1.386 . S
C802 C804 1.391 . S
C803 C802 1.386 . S
C803 C807 1.393 . S
C804 H793 0.950 . S
C804 C802 1.391 . S
C804 C805 1.400 . S
C805 C799 1.491 . S
C805 C804 1.400 . S
C805 C806 1.398 . S
C806 H794 0.950 . S
C806 C805 1.398 . S
C806 C807 1.391 . S
C807 H795 0.950 . S
C807 C803 1.393 . S
C807 C806 1.391 . S
H808 C816 0.950 . S
H809 C821 0.950 . S
H810 C818 0.950 . S
H811 C820 0.950 . S
H812 C822 0.950 . S
H813 C824 0.950 . S
H814 C826 0.950 . S
H815 C827 0.950 . S
C816 H808 0.950 . S
C816 C817 1.386 . S
C816 C818 1.391 . S
C817 C816 1.386 . S
C817 C821 1.393 . S
C818 H810 0.950 . S
C818 C816 1.391 . S
C818 C819 1.400 . S
C819 C818 1.400 . S
C819 C820 1.398 . S
C819 C825 1.491 . S
C820 H811 0.950 . S
C820 C819 1.398 . S
C820 C821 1.391 . S
C821 H809 0.950 . S
C821 C817 1.393 . S
C821 C820 1.391 . S
C822 H812 0.950 . S
C822 C823 1.386 . S
C822 C824 1.391 . S
C823 C822 1.386 . S
C823 C827 1.393 . S
C824 H813 0.950 . S
C824 C822 1.391 . S
C824 C825 1.400 . S
C825 C819 1.491 . S
C825 C824 1.400 . S
C825 C826 1.398 . S
C826 H814 0.950 . S
C826 C825 1.398 . S
C826 C827 1.391 . S
C827 H815 0.950 . S
C827 C823 1.393 . S
C827 C826 1.391 . S
H828 C836 0.950 . S
H829 C841 0.950 . S
H830 C838 0.950 . S
H831 C840 0.950 . S
H832 C842 0.950 . S
H833 C844 0.950 . S
H834 C846 0.950 . S
H835 C847 0.950 . S
C836 H828 0.950 . S
C836 C837 1.386 . S
C836 C838 1.391 . S
C837 C836 1.386 . S
C837 C841 1.393 . S
C838 H830 0.950 . S
C838 C836 1.391 . S
C838 C839 1.400 . S
C839 C838 1.400 . S
C839 C840 1.398 . S
C839 C845 1.491 . S
C840 H831 0.950 . S
C840 C839 1.398 . S
C840 C841 1.391 . S
C841 H829 0.950 . S
C841 C837 1.393 . S
C841 C840 1.391 . S
C842 H832 0.950 . S
C842 C843 1.386 . S
C842 C844 1.391 . S
C843 C842 1.386 . S
C843 C847 1.393 . S
C844 H833 0.950 . S
C844 C842 1.391 . S
C844 C845 1.400 . S
C845 C839 1.491 . S
C845 C844 1.400 . S
C845 C846 1.398 . S
C846 H834 0.950 . S
C846 C845 1.398 . S
C846 C847 1.391 . S
C847 H835 0.950 . S
C847 C843 1.393 . S
C847 C846 1.391 . S
H848 C856 0.950 . S
H849 C861 0.950 . S
H850 C858 0.950 . S
H851 C860 0.950 . S
H852 C862 0.950 . S
H853 C864 0.950 . S
H854 C866 0.950 . S
H855 C867 0.950 . S
C856 H848 0.950 . S
C856 C857 1.386 . S
C856 C858 1.391 . S
C857 C856 1.386 . S
C857 C861 1.393 . S
C858 H850 0.950 . S
C858 C856 1.391 . S
C858 C859 1.400 . S
C859 C858 1.400 . S
C859 C860 1.398 . S
C859 C865 1.491 . S
C860 H851 0.950 . S
C860 C859 1.398 . S
C860 C861 1.391 . S
C861 H849 0.950 . S
C861 C857 1.393 . S
C861 C860 1.391 . S
C862 H852 0.950 . S
C862 C863 1.386 . S
C862 C864 1.391 . S
C863 C862 1.386 . S
C863 C867 1.393 . S
C864 H853 0.950 . S
C864 C862 1.391 . S
C864 C865 1.400 . S
C865 C859 1.491 . S
C865 C864 1.400 . S
C865 C866 1.398 . S
C866 H854 0.950 . S
C866 C865 1.398 . S
C866 C867 1.391 . S
C867 H855 0.950 . S
C867 C863 1.393 . S
C867 C866 1.391 . S
H868 C876 0.950 . S
H869 C881 0.950 . S
H870 C878 0.950 . S
H871 C880 0.950 . S
H872 C882 0.950 . S
H873 C884 0.950 . S
H874 C886 0.950 . S
H875 C887 0.950 . S
C876 H868 0.950 . S
C876 C877 1.386 . S
C876 C878 1.391 . S
C877 C876 1.386 . S
C877 C881 1.393 . S
C878 H870 0.950 . S
C878 C876 1.391 . S
C878 C879 1.400 . S
C879 C878 1.400 . S
C879 C880 1.398 . S
C879 C885 1.491 . S
C880 H871 0.950 . S
C880 C879 1.398 . S
C880 C881 1.391 . S
C881 H869 0.950 . S
C881 C877 1.393 . S
C881 C880 1.391 . S
C882 H872 0.950 . S
C882 C883 1.386 . S
C882 C884 1.391 . S
C883 C882 1.386 . S
C883 C887 1.393 . S
C884 H873 0.950 . S
C884 C882 1.391 . S
C884 C885 1.400 . S
C885 C879 1.491 . S
C885 C884 1.400 . S
C885 C886 1.398 . S
C886 H874 0.950 . S
C886 C885 1.398 . S
C886 C887 1.391 . S
C887 H875 0.950 . S
C887 C883 1.393 . S
C887 C886 1.391 . S
H888 C896 0.950 . S
H889 C901 0.950 . S
H890 C898 0.950 . S
H891 C900 0.950 . S
H892 C902 0.950 . S
H893 C904 0.950 . S
H894 C906 0.950 . S
H895 C907 0.950 . S
C896 H888 0.950 . S
C896 C897 1.386 . S
C896 C898 1.391 . S
C897 C896 1.386 . S
C897 C901 1.393 . S
C898 H890 0.950 . S
C898 C896 1.391 . S
C898 C899 1.400 . S
C899 C898 1.400 . S
C899 C900 1.398 . S
C899 C905 1.491 . S
C900 H891 0.950 . S
C900 C899 1.398 . S
C900 C901 1.391 . S
C901 H889 0.950 . S
C901 C897 1.393 . S
C901 C900 1.391 . S
C902 H892 0.950 . S
C902 C903 1.386 . S
C902 C904 1.391 . S
C903 C902 1.386 . S
C903 C907 1.393 . S
C904 H893 0.950 . S
C904 C902 1.391 . S
C904 C905 1.400 . S
C905 C899 1.491 . S
C905 C904 1.400 . S
C905 C906 1.398 . S
C906 H894 0.950 . S
C906 C905 1.398 . S
C906 C907 1.391 . S
C907 H895 0.950 . S
C907 C903 1.393 . S
C907 C906 1.391 . S
H908 C916 0.950 . S
H909 C921 0.950 . S
H910 C918 0.950 . S
H911 C920 0.950 . S
H912 C922 0.950 . S
H913 C924 0.950 . S
H914 C926 0.950 . S
H915 C927 0.950 . S
C916 H908 0.950 . S
C916 C917 1.386 . S
C916 C918 1.391 . S
C917 C916 1.386 . S
C917 C921 1.393 . S
C918 H910 0.950 . S
C918 C916 1.391 . S
C918 C919 1.400 . S
C919 C918 1.400 . S
C919 C920 1.398 . S
C919 C925 1.491 . S
C920 H911 0.950 . S
C920 C919 1.398 . S
C920 C921 1.391 . S
C921 H909 0.950 . S
C921 C917 1.393 . S
C921 C920 1.391 . S
C922 H912 0.950 . S
C922 C923 1.386 . S
C922 C924 1.391 . S
C923 C922 1.386 . S
C923 C927 1.393 . S
C924 H913 0.950 . S
C924 C922 1.391 . S
C924 C925 1.400 . S
C925 C919 1.491 . S
C925 C924 1.400 . S
C925 C926 1.398 . S
C926 H914 0.950 . S
C926 C925 1.398 . S
C926 C927 1.391 . S
C927 H915 0.950 . S
C927 C923 1.393 . S
C927 C926 1.391 . S
H928 C936 0.950 . S
H929 C941 0.950 . S
H930 C938 0.950 . S
H931 C940 0.950 . S
H932 C942 0.950 . S
H933 C944 0.950 . S
H934 C946 0.950 . S
H935 C947 0.950 . S
C936 H928 0.950 . S
C936 C937 1.386 . S
C936 C938 1.391 1_565 S
C937 C936 1.386 . S
C937 C941 1.393 . S
C938 H930 0.950 . S
C938 C936 1.391 1_545 S
C938 C939 1.400 . S
C939 C938 1.400 . S
C939 C940 1.398 . S
C939 C945 1.491 . S
C940 H931 0.950 . S
C940 C939 1.398 . S
C940 C941 1.391 1_545 S
C941 H929 0.950 . S
C941 C937 1.393 . S
C941 C940 1.391 1_565 S
C942 H932 0.950 . S
C942 C943 1.386 . S
C942 C944 1.391 . S
C943 C942 1.386 . S
C943 C947 1.393 . S
C944 H933 0.950 . S
C944 C942 1.391 . S
C944 C945 1.400 . S
C945 C939 1.491 . S
C945 C944 1.400 . S
C945 C946 1.398 . S
C946 H934 0.950 . S
C946 C945 1.398 . S
C946 C947 1.391 . S
C947 H935 0.950 . S
C947 C943 1.393 . S
C947 C946 1.391 . S
H948 C956 0.950 . S
H949 C961 0.950 . S
H950 C958 0.950 . S
H951 C960 0.950 . S
H952 C962 0.950 . S
H953 C964 0.950 . S
H954 C966 0.950 . S
H955 C967 0.950 . S
C956 H948 0.950 . S
C956 C957 1.386 . S
C956 C958 1.391 . S
C957 C956 1.386 . S
C957 C961 1.393 . S
C958 H950 0.950 . S
C958 C956 1.391 . S
C958 C959 1.400 . S
C959 C958 1.400 . S
C959 C960 1.398 . S
C959 C965 1.491 . S
C960 H951 0.950 . S
C960 C959 1.398 . S
C960 C961 1.391 . S
C961 H949 0.950 . S
C961 C957 1.393 . S
C961 C960 1.391 . S
C962 H952 0.950 . S
C962 C963 1.386 . S
C962 C964 1.391 1_655 S
C963 C962 1.386 . S
C963 C967 1.393 . S
C964 H953 0.950 . S
C964 C962 1.391 1_455 S
C964 C965 1.400 . S
C965 C959 1.491 . S
C965 C964 1.400 . S
C965 C966 1.398 . S
C966 H954 0.950 . S
C966 C965 1.398 . S
C966 C967 1.391 1_455 S
C967 H955 0.950 . S
C967 C963 1.393 . S
C967 C966 1.391 1_655 S
H968 C976 0.950 . S
H969 C981 0.950 . S
H970 C978 0.950 . S
H971 C980 0.950 . S
H972 C982 0.950 . S
H973 C984 0.950 . S
H974 C986 0.950 . S
H975 C987 0.954 . S
C976 H968 0.950 . S
C976 C977 1.386 . S
C976 C978 1.391 . S
C977 C976 1.386 . S
C977 C981 1.393 . S
C978 H970 0.950 . S
C978 C976 1.391 . S
C978 C979 1.400 . S
C979 C978 1.400 . S
C979 C980 1.398 . S
C979 C985 1.491 . S
C980 H971 0.950 . S
C980 C979 1.398 . S
C980 C981 1.391 . S
C981 H969 0.950 . S
C981 C977 1.393 . S
C981 C980 1.391 . S
C982 H972 0.950 . S
C982 C983 1.386 . S
C982 C984 1.391 1_545 S
C983 C982 1.386 . S
C983 C987 1.412 . S
C984 H973 0.950 . S
C984 C982 1.391 1_565 S
C984 C985 1.400 . S
C985 C979 1.491 . S
C985 C984 1.400 . S
C985 C986 1.398 . S
C986 H974 0.950 . S
C986 C985 1.398 . S
C986 C987 1.367 1_565 S
C987 H975 0.954 . S
C987 C983 1.412 . S
C987 C986 1.367 1_545 S
H988 C996 0.950 . S
H989 C1001 0.955 . S
H990 C998 0.950 . S
H991 C1000 0.950 . S
H992 C1002 0.950 . S
H993 C1004 0.950 . S
H994 C1006 0.950 . S
H995 C1007 0.950 . S
C996 H988 0.950 . S
C996 C997 1.386 . S
C996 C998 1.391 1_455 S
C997 C996 1.386 . S
C997 C1001 1.414 . S
C998 H990 0.950 . S
C998 C996 1.391 1_655 S
C998 C999 1.400 . S
C999 C998 1.400 . S
C999 C1000 1.398 . S
C999 C1005 1.491 . S
C1000 H991 0.950 . S
C1000 C999 1.398 . S
C1000 C1001 1.364 1_655 S
C1001 H989 0.955 . S
C1001 C997 1.414 . S
C1001 C1000 1.364 1_455 S
C1002 H992 0.950 . S
C1002 C1003 1.386 . S
C1002 C1004 1.391 . S
C1003 C1002 1.386 . S
C1003 C1007 1.393 . S
C1004 H993 0.950 . S
C1004 C1002 1.391 . S
C1004 C1005 1.400 . S
C1005 C999 1.491 . S
C1005 C1004 1.400 . S
C1005 C1006 1.398 . S
C1006 H994 0.950 . S
C1006 C1005 1.398 . S
C1006 C1007 1.391 . S
C1007 H995 0.950 . S
C1007 C1003 1.393 . S
C1007 C1006 1.391 . S
H1008 C1016 0.950 . S
H1009 C1021 0.950 . S
H1010 C1018 0.950 . S
H1011 C1020 0.950 . S
H1012 C1022 0.950 . S
H1013 C1024 0.950 . S
H1014 C1026 0.950 . S
H1015 C1027 0.950 . S
C1016 H1008 0.950 . S
C1016 C1017 1.386 . S
C1016 C1018 1.391 . S
C1017 C1016 1.386 . S
C1017 C1021 1.393 1_556 S
C1018 H1010 0.950 . S
C1018 C1016 1.391 . S
C1018 C1019 1.400 . S
C1019 C1018 1.400 . S
C1019 C1020 1.398 1_556 S
C1019 C1025 1.491 1_545 S
C1020 H1011 0.950 . S
C1020 C1019 1.398 1_554 S
C1020 C1021 1.391 . S
C1021 H1009 0.950 . S
C1021 C1017 1.393 1_554 S
C1021 C1020 1.391 . S
C1022 H1012 0.950 . S
C1022 C1023 1.386 1_554 S
C1022 C1024 1.391 . S
C1023 C1022 1.386 1_556 S
C1023 C1027 1.393 . S
C1024 H1013 0.950 . S
C1024 C1022 1.391 . S
C1024 C1025 1.400 1_554 S
C1025 C1019 1.491 1_565 S
C1025 C1024 1.400 1_556 S
C1025 C1026 1.398 . S
C1026 H1014 0.950 . S
C1026 C1025 1.398 . S
C1026 C1027 1.391 . S
C1027 H1015 0.950 . S
C1027 C1023 1.393 . S
C1027 C1026 1.391 . S
H1028 C1036 0.950 . S
H1029 C1041 0.950 . S
H1030 C1038 0.950 1_655 S
H1031 C1040 0.950 . S
H1032 C1042 0.950 . S
H1033 C1044 0.950 1_455 S
H1034 C1046 0.950 . S
H1035 C1047 0.950 . S
C1036 H1028 0.950 . S
C1036 C1037 1.386 1_556 S
C1036 C1038 1.391 . S
C1037 C1036 1.386 1_554 S
C1037 C1041 1.393 . S
C1038 H1030 0.950 1_455 S
C1038 C1036 1.391 . S
C1038 C1039 1.400 1_556 S
C1039 C1038 1.400 1_554 S
C1039 C1040 1.398 . S
C1039 C1045 1.491 1_455 S
C1040 H1031 0.950 . S
C1040 C1039 1.398 . S
C1040 C1041 1.391 . S
C1041 H1029 0.950 . S
C1041 C1037 1.393 . S
C1041 C1040 1.391 . S
C1042 H1032 0.950 . S
C1042 C1043 1.386 . S
C1042 C1044 1.391 . S
C1043 C1042 1.386 . S
C1043 C1047 1.393 1_554 S
C1044 H1033 0.950 1_655 S
C1044 C1042 1.391 . S
C1044 C1045 1.400 . S
C1045 C1039 1.491 1_655 S
C1045 C1044 1.400 . S
C1045 C1046 1.398 1_554 S
C1046 H1034 0.950 . S
C1046 C1045 1.398 1_556 S
C1046 C1047 1.391 . S
C1047 H1035 0.950 . S
C1047 C1043 1.393 1_556 S
C1047 C1046 1.391 . S
H1048 C1056 0.950 . S
H1049 C1061 0.950 . S
H1050 C1058 0.950 . S
H1051 C1060 0.950 . S
H1052 C1062 0.950 . S
H1053 C1064 0.950 . S
H1054 C1066 0.950 . S
H1055 C1067 0.950 . S
C1056 H1048 0.950 . S
C1056 C1057 1.386 . S
C1056 C1058 1.391 . S
C1057 C1056 1.386 . S
C1057 C1061 1.393 . S
C1058 H1050 0.950 . S
C1058 C1056 1.391 . S
C1058 C1059 1.400 . S
C1059 C1058 1.400 . S
C1059 C1060 1.398 . S
C1059 C1065 1.491 . S
C1060 H1051 0.950 . S
C1060 C1059 1.398 . S
C1060 C1061 1.391 . S
C1061 H1049 0.950 . S
C1061 C1057 1.393 . S
C1061 C1060 1.391 . S
C1062 H1052 0.950 . S
C1062 C1063 1.386 . S
C1062 C1064 1.391 . S
C1063 C1062 1.386 . S
C1063 C1067 1.393 . S
C1064 H1053 0.950 . S
C1064 C1062 1.391 . S
C1064 C1065 1.400 . S
C1065 C1059 1.491 . S
C1065 C1064 1.400 . S
C1065 C1066 1.398 . S
C1066 H1054 0.950 . S
C1066 C1065 1.398 . S
C1066 C1067 1.391 . S
C1067 H1055 0.950 . S
C1067 C1063 1.393 . S
C1067 C1066 1.391 . S
H1068 C1076 0.950 . S
H1069 C1081 0.950 . S
H1070 C1078 0.950 . S
H1071 C1080 0.950 . S
H1072 C1082 0.950 . S
H1073 C1084 0.950 . S
H1074 C1086 0.950 . S
H1075 C1087 0.950 . S
C1076 H1068 0.950 . S
C1076 C1077 1.386 . S
C1076 C1078 1.391 . S
C1077 C1076 1.386 . S
C1077 C1081 1.393 . S
C1078 H1070 0.950 . S
C1078 C1076 1.391 . S
C1078 C1079 1.400 . S
C1079 C1078 1.400 . S
C1079 C1080 1.398 . S
C1079 C1085 1.491 . S
C1080 H1071 0.950 . S
C1080 C1079 1.398 . S
C1080 C1081 1.391 . S
C1081 H1069 0.950 . S
C1081 C1077 1.393 . S
C1081 C1080 1.391 . S
C1082 H1072 0.950 . S
C1082 C1083 1.386 . S
C1082 C1084 1.391 . S
C1083 C1082 1.386 . S
C1083 C1087 1.393 . S
C1084 H1073 0.950 . S
C1084 C1082 1.391 . S
C1084 C1085 1.400 . S
C1085 C1079 1.491 . S
C1085 C1084 1.400 . S
C1085 C1086 1.398 . S
C1086 H1074 0.950 . S
C1086 C1085 1.398 . S
C1086 C1087 1.391 . S
C1087 H1075 0.950 . S
C1087 C1083 1.393 . S
C1087 C1086 1.391 . S
H1088 C1096 0.950 . S
H1089 C1101 0.950 . S
H1090 C1098 0.950 1_455 S
H1091 C1100 0.950 . S
H1092 C1102 0.950 . S
H1093 C1104 0.950 1_655 S
H1094 C1106 0.950 . S
H1095 C1107 0.950 . S
C1096 H1088 0.950 . S
C1096 C1097 1.386 . S
C1096 C1098 1.391 . S
C1097 C1096 1.386 . S
C1097 C1101 1.393 . S
C1098 H1090 0.950 1_655 S
C1098 C1096 1.391 . S
C1098 C1099 1.400 . S
C1099 C1098 1.400 . S
C1099 C1100 1.398 . S
C1099 C1105 1.491 1_655 S
C1100 H1091 0.950 . S
C1100 C1099 1.398 . S
C1100 C1101 1.391 . S
C1101 H1089 0.950 . S
C1101 C1097 1.393 . S
C1101 C1100 1.391 . S
C1102 H1092 0.950 . S
C1102 C1103 1.386 . S
C1102 C1104 1.391 . S
C1103 C1102 1.386 . S
C1103 C1107 1.393 . S
C1104 H1093 0.950 1_455 S
C1104 C1102 1.391 . S
C1104 C1105 1.400 . S
C1105 C1099 1.491 1_455 S
C1105 C1104 1.400 . S
C1105 C1106 1.398 . S
C1106 H1094 0.950 . S
C1106 C1105 1.398 . S
C1106 C1107 1.391 . S
C1107 H1095 0.950 . S
C1107 C1103 1.393 . S
C1107 C1106 1.391 . S
H1108 C1116 0.950 . S
H1109 C1121 0.950 . S
H1110 C1118 0.950 . S
H1111 C1120 0.950 1_565 S
H1112 C1122 0.950 . S
H1113 C1124 0.950 . S
H1114 C1126 0.950 1_545 S
H1115 C1127 0.950 . S
C1116 H1108 0.950 . S
C1116 C1117 1.386 . S
C1116 C1118 1.391 . S
C1117 C1116 1.386 . S
C1117 C1121 1.393 . S
C1118 H1110 0.950 . S
C1118 C1116 1.391 . S
C1118 C1119 1.400 . S
C1119 C1118 1.400 . S
C1119 C1120 1.398 . S
C1119 C1125 1.491 1_545 S
C1120 H1111 0.950 1_545 S
C1120 C1119 1.398 . S
C1120 C1121 1.391 . S
C1121 H1109 0.950 . S
C1121 C1117 1.393 . S
C1121 C1120 1.391 . S
C1122 H1112 0.950 . S
C1122 C1123 1.386 . S
C1122 C1124 1.391 . S
C1123 C1122 1.386 . S
C1123 C1127 1.393 . S
C1124 H1113 0.950 . S
C1124 C1122 1.391 . S
C1124 C1125 1.400 . S
C1125 C1119 1.491 1_565 S
C1125 C1124 1.400 . S
C1125 C1126 1.398 . S
C1126 H1114 0.950 1_565 S
C1126 C1125 1.398 . S
C1126 C1127 1.391 . S
C1127 H1115 0.950 . S
C1127 C1123 1.393 . S
C1127 C1126 1.391 . S
H1128 C1136 0.950 . S
H1129 C1141 0.950 . S
H1130 C1138 0.929 1_545 S
H1131 C1140 0.950 1_455 S
H1132 C1142 0.950 . S
H1133 C1144 0.929 1_565 S
H1134 C1146 0.950 1_655 S
H1135 C1147 0.950 . S
C1136 H1128 0.950 . S
C1136 C1137 1.386 . S
C1136 C1138 1.405 . S
C1137 C1136 1.386 . S
C1137 C1141 1.393 . S
C1138 H1130 0.929 1_565 S
C1138 C1136 1.405 . S
C1138 C1139 1.407 . S
C1139 C1138 1.407 . S
C1139 C1140 1.398 . S
C1139 C1145 1.491 1_665 S
C1140 H1131 0.950 1_655 S
C1140 C1139 1.398 . S
C1140 C1141 1.391 . S
C1141 H1129 0.950 . S
C1141 C1137 1.393 . S
C1141 C1140 1.391 . S
C1142 H1132 0.950 . S
C1142 C1143 1.386 . S
C1142 C1144 1.405 . S
C1143 C1142 1.386 . S
C1143 C1147 1.393 . S
C1144 H1133 0.929 1_545 S
C1144 C1142 1.405 . S
C1144 C1145 1.407 . S
C1145 C1139 1.491 1_445 S
C1145 C1144 1.407 . S
C1145 C1146 1.398 . S
C1146 H1134 0.950 1_455 S
C1146 C1145 1.398 . S
C1146 C1147 1.391 . S
C1147 H1135 0.950 . S
C1147 C1143 1.393 . S
C1147 C1146 1.391 . S
H1148 C1156 0.950 . S
H1149 C1161 0.950 . S
H1150 C1158 0.950 . S
H1151 C1160 0.950 . S
H1152 C1162 0.950 . S
H1153 C1164 0.950 . S
H1154 C1166 0.950 . S
H1155 C1167 0.950 . S
C1156 H1148 0.950 . S
C1156 C1157 1.386 . S
C1156 C1158 1.391 . S
C1157 C1156 1.386 . S
C1157 C1161 1.393 . S
C1158 H1150 0.950 . S
C1158 C1156 1.391 . S
C1158 C1159 1.400 . S
C1159 C1158 1.400 . S
C1159 C1160 1.398 . S
C1159 C1165 1.491 1_645 S
C1160 H1151 0.950 . S
C1160 C1159 1.398 . S
C1160 C1161 1.391 . S
C1161 H1149 0.950 . S
C1161 C1157 1.393 . S
C1161 C1160 1.391 . S
C1162 H1152 0.950 . S
C1162 C1163 1.386 . S
C1162 C1164 1.391 . S
C1163 C1162 1.386 . S
C1163 C1167 1.393 . S
C1164 H1153 0.950 . S
C1164 C1162 1.391 . S
C1164 C1165 1.400 . S
C1165 C1159 1.491 1_465 S
C1165 C1164 1.400 . S
C1165 C1166 1.398 . S
C1166 H1154 0.950 . S
C1166 C1165 1.398 . S
C1166 C1167 1.391 . S
C1167 H1155 0.950 . S
C1167 C1163 1.393 . S
C1167 C1166 1.391 . S
H1168 C1176 0.950 . S
H1169 C1181 0.950 . S
H1170 C1178 0.950 . S
H1171 C1180 0.950 . S
H1172 C1182 0.950 . S
H1173 C1184 0.950 . S
H1174 C1186 0.950 . S
H1175 C1187 0.950 . S
C1176 H1168 0.950 . S
C1176 C1177 1.386 . S
C1176 C1178 1.391 . S
C1177 C1176 1.386 . S
C1177 C1181 1.393 . S
C1178 H1170 0.950 . S
C1178 C1176 1.391 . S
C1178 C1179 1.400 . S
C1179 C1178 1.400 . S
C1179 C1180 1.398 . S
C1179 C1185 1.491 . S
C1180 H1171 0.950 . S
C1180 C1179 1.398 . S
C1180 C1181 1.391 . S
C1181 H1169 0.950 . S
C1181 C1177 1.393 . S
C1181 C1180 1.391 . S
C1182 H1172 0.950 . S
C1182 C1183 1.386 . S
C1182 C1184 1.391 . S
C1183 C1182 1.386 . S
C1183 C1187 1.393 . S
C1184 H1173 0.950 . S
C1184 C1182 1.391 . S
C1184 C1185 1.400 . S
C1185 C1179 1.491 . S
C1185 C1184 1.400 . S
C1185 C1186 1.398 . S
C1186 H1174 0.950 . S
C1186 C1185 1.398 . S
C1186 C1187 1.391 . S
C1187 H1175 0.950 . S
C1187 C1183 1.393 . S
C1187 C1186 1.391 . S
H1188 C1196 0.950 . S
H1189 C1201 0.950 . S
H1190 C1198 0.950 . S
H1191 C1200 0.950 . S
H1192 C1202 0.950 . S
H1193 C1204 0.950 . S
H1194 C1206 0.950 . S
H1195 C1207 0.950 . S
C1196 H1188 0.950 . S
C1196 C1197 1.386 . S
C1196 C1198 1.391 . S
C1197 C1196 1.386 . S
C1197 C1201 1.393 . S
C1198 H1190 0.950 . S
C1198 C1196 1.391 . S
C1198 C1199 1.400 . S
C1199 C1198 1.400 . S
C1199 C1200 1.398 . S
C1199 C1205 1.491 . S
C1200 H1191 0.950 . S
C1200 C1199 1.398 . S
C1200 C1201 1.391 . S
C1201 H1189 0.950 . S
C1201 C1197 1.393 . S
C1201 C1200 1.391 . S
C1202 H1192 0.950 . S
C1202 C1203 1.386 . S
C1202 C1204 1.391 . S
C1203 C1202 1.386 . S
C1203 C1207 1.393 . S
C1204 H1193 0.950 . S
C1204 C1202 1.391 . S
C1204 C1205 1.400 . S
C1205 C1199 1.491 . S
C1205 C1204 1.400 . S
C1205 C1206 1.398 . S
C1206 H1194 0.950 . S
C1206 C1205 1.398 . S
C1206 C1207 1.391 . S
C1207 H1195 0.950 . S
C1207 C1203 1.393 . S
C1207 C1206 1.391 . S
H1208 C1216 0.950 . S
H1209 C1221 0.950 . S
H1210 C1218 0.950 . S
H1211 C1220 0.950 . S
H1212 C1222 0.950 . S
H1213 C1224 0.950 . S
H1214 C1226 0.950 . S
H1215 C1227 0.950 . S
C1216 H1208 0.950 . S
C1216 C1217 1.386 . S
C1216 C1218 1.391 . S
C1217 C1216 1.386 . S
C1217 C1221 1.393 . S
C1218 H1210 0.950 . S
C1218 C1216 1.391 . S
C1218 C1219 1.400 . S
C1219 C1218 1.400 . S
C1219 C1220 1.398 . S
C1219 C1225 1.491 . S
C1220 H1211 0.950 . S
C1220 C1219 1.398 . S
C1220 C1221 1.391 . S
C1221 H1209 0.950 . S
C1221 C1217 1.393 . S
C1221 C1220 1.391 . S
C1222 H1212 0.950 . S
C1222 C1223 1.386 . S
C1222 C1224 1.391 . S
C1223 C1222 1.386 . S
C1223 C1227 1.393 . S
C1224 H1213 0.950 . S
C1224 C1222 1.391 . S
C1224 C1225 1.400 . S
C1225 C1219 1.491 . S
C1225 C1224 1.400 . S
C1225 C1226 1.398 . S
C1226 H1214 0.950 . S
C1226 C1225 1.398 . S
C1226 C1227 1.391 . S
C1227 H1215 0.950 . S
C1227 C1223 1.393 . S
C1227 C1226 1.391 . S
H1228 C1236 0.950 . S
H1229 C1241 0.950 . S
H1230 C1238 0.950 . S
H1231 C1240 0.950 . S
H1232 C1242 0.950 . S
H1233 C1244 0.950 . S
H1234 C1246 0.950 . S
H1235 C1247 0.950 . S
C1236 H1228 0.950 . S
C1236 C1237 1.386 . S
C1236 C1238 1.391 . S
C1237 C1236 1.386 . S
C1237 C1241 1.393 . S
C1238 H1230 0.950 . S
C1238 C1236 1.391 . S
C1238 C1239 1.400 . S
C1239 C1238 1.400 . S
C1239 C1240 1.398 . S
C1239 C1245 1.491 . S
C1240 H1231 0.950 . S
C1240 C1239 1.398 . S
C1240 C1241 1.391 . S
C1241 H1229 0.950 . S
C1241 C1237 1.393 . S
C1241 C1240 1.391 . S
C1242 H1232 0.950 . S
C1242 C1243 1.386 . S
C1242 C1244 1.391 . S
C1243 C1242 1.386 . S
C1243 C1247 1.393 . S
C1244 H1233 0.950 . S
C1244 C1242 1.391 . S
C1244 C1245 1.400 . S
C1245 C1239 1.491 . S
C1245 C1244 1.400 . S
C1245 C1246 1.398 . S
C1246 H1234 0.950 . S
C1246 C1245 1.398 . S
C1246 C1247 1.391 . S
C1247 H1235 0.950 . S
C1247 C1243 1.393 . S
C1247 C1246 1.391 . S
H1248 C1256 0.950 . S
H1249 C1261 0.950 . S
H1250 C1258 0.950 . S
H1251 C1260 0.950 . S
H1252 C1262 0.950 . S
H1253 C1264 0.950 . S
H1254 C1266 0.950 . S
H1255 C1267 0.950 . S
C1256 H1248 0.950 . S
C1256 C1257 1.386 . S
C1256 C1258 1.391 . S
C1257 C1256 1.386 . S
C1257 C1261 1.393 . S
C1258 H1250 0.950 . S
C1258 C1256 1.391 . S
C1258 C1259 1.400 . S
C1259 C1258 1.400 . S
C1259 C1260 1.398 . S
C1259 C1265 1.491 . S
C1260 H1251 0.950 . S
C1260 C1259 1.398 . S
C1260 C1261 1.391 . S
C1261 H1249 0.950 . S
C1261 C1257 1.393 . S
C1261 C1260 1.391 . S
C1262 H1252 0.950 . S
C1262 C1263 1.386 . S
C1262 C1264 1.391 . S
C1263 C1262 1.386 . S
C1263 C1267 1.393 . S
C1264 H1253 0.950 . S
C1264 C1262 1.391 . S
C1264 C1265 1.400 . S
C1265 C1259 1.491 . S
C1265 C1264 1.400 . S
C1265 C1266 1.398 . S
C1266 H1254 0.950 . S
C1266 C1265 1.398 . S
C1266 C1267 1.391 . S
C1267 H1255 0.950 . S
C1267 C1263 1.393 . S
C1267 C1266 1.391 . S
H1268 C1276 0.950 . S
H1269 C1281 0.950 . S
H1270 C1278 0.950 . S
H1271 C1280 0.950 . S
H1272 C1282 0.950 . S
H1273 C1284 0.950 . S
H1274 C1286 0.950 . S
H1275 C1287 0.950 . S
C1276 H1268 0.950 . S
C1276 C1277 1.386 . S
C1276 C1278 1.391 . S
C1277 C1276 1.386 . S
C1277 C1281 1.393 . S
C1278 H1270 0.950 . S
C1278 C1276 1.391 . S
C1278 C1279 1.400 . S
C1279 C1278 1.400 . S
C1279 C1280 1.398 . S
C1279 C1285 1.491 . S
C1280 H1271 0.950 . S
C1280 C1279 1.398 . S
C1280 C1281 1.391 . S
C1281 H1269 0.950 . S
C1281 C1277 1.393 . S
C1281 C1280 1.391 . S
C1282 H1272 0.950 . S
C1282 C1283 1.386 . S
C1282 C1284 1.391 . S
C1283 C1282 1.386 . S
C1283 C1287 1.393 . S
C1284 H1273 0.950 . S
C1284 C1282 1.391 . S
C1284 C1285 1.400 . S
C1285 C1279 1.491 . S
C1285 C1284 1.400 . S
C1285 C1286 1.398 . S
C1286 H1274 0.950 . S
C1286 C1285 1.398 . S
C1286 C1287 1.391 . S
C1287 H1275 0.950 . S
C1287 C1283 1.393 . S
C1287 C1286 1.391 . S
H1288 C1296 0.950 . S
H1289 C1301 0.950 . S
H1290 C1298 0.950 . S
H1291 C1300 0.950 . S
H1292 C1302 0.950 . S
H1293 C1304 0.950 . S
H1294 C1306 0.950 . S
H1295 C1307 0.950 . S
C1296 H1288 0.950 . S
C1296 C1297 1.386 . S
C1296 C1298 1.391 . S
C1297 C1296 1.386 . S
C1297 C1301 1.393 . S
C1298 H1290 0.950 . S
C1298 C1296 1.391 . S
C1298 C1299 1.400 . S
C1299 C1298 1.400 . S
C1299 C1300 1.398 . S
C1299 C1305 1.491 . S
C1300 H1291 0.950 . S
C1300 C1299 1.398 . S
C1300 C1301 1.391 . S
C1301 H1289 0.950 . S
C1301 C1297 1.393 . S
C1301 C1300 1.391 . S
C1302 H1292 0.950 . S
C1302 C1303 1.386 . S
C1302 C1304 1.391 . S
C1303 C1302 1.386 . S
C1303 C1307 1.393 . S
C1304 H1293 0.950 . S
C1304 C1302 1.391 . S
C1304 C1305 1.400 . S
C1305 C1299 1.491 . S
C1305 C1304 1.400 . S
C1305 C1306 1.398 . S
C1306 H1294 0.950 . S
C1306 C1305 1.398 . S
C1306 C1307 1.391 . S
C1307 H1295 0.950 . S
C1307 C1303 1.393 . S
C1307 C1306 1.391 . S
H1308 C1316 0.950 . S
H1309 C1321 0.950 . S
H1310 C1318 0.950 . S
H1311 C1320 0.950 . S
H1312 C1322 0.950 . S
H1313 C1324 0.950 . S
H1314 C1326 0.950 . S
H1315 C1327 0.950 . S
C1316 H1308 0.950 . S
C1316 C1317 1.386 . S
C1316 C1318 1.391 . S
C1317 C1316 1.386 . S
C1317 C1321 1.393 . S
C1318 H1310 0.950 . S
C1318 C1316 1.391 . S
C1318 C1319 1.400 . S
C1319 C1318 1.400 . S
C1319 C1320 1.398 . S
C1319 C1325 1.491 . S
C1320 H1311 0.950 . S
C1320 C1319 1.398 . S
C1320 C1321 1.391 . S
C1321 H1309 0.950 . S
C1321 C1317 1.393 . S
C1321 C1320 1.391 . S
C1322 H1312 0.950 . S
C1322 C1323 1.386 . S
C1322 C1324 1.391 . S
C1323 C1322 1.386 . S
C1323 C1327 1.393 . S
C1324 H1313 0.950 . S
C1324 C1322 1.391 . S
C1324 C1325 1.400 . S
C1325 C1319 1.491 . S
C1325 C1324 1.400 . S
C1325 C1326 1.398 . S
C1326 H1314 0.950 . S
C1326 C1325 1.398 . S
C1326 C1327 1.391 . S
C1327 H1315 0.950 . S
C1327 C1323 1.393 . S
C1327 C1326 1.391 . S
C537 C28 1.381 . S
C543 C490 1.366 . S
C557 C61 1.371 . S
C563 C523 1.386 . S
C577 C94 1.361 . S
C583 C424 1.388 . S
C597 C127 1.369 . S
C603 C457 1.360 . S
C617 C160 1.305 . S
C623 C358 1.278 . S
C637 C193 1.284 . S
C643 C391 1.306 . S
C657 C292 1.295 . S
C663 C226 1.308 . S
C677 C325 1.295 . S
C683 C259 1.307 . S
C697 C8 1.421 . S
C703 N38 1.370 . S
C717 C41 1.421 . S
C723 N71 1.369 . S
C737 C74 1.415 . S
C743 N104 1.393 . S
C757 N5 1.374 . S
C763 C107 1.418 . S
C777 N500 1.395 . S
C783 C140 1.422 . S
C797 N401 1.387 . S
C803 C173 1.424 . S
C817 N434 1.393 . S
C823 C206 1.422 . S
C837 N467 1.384 . S
C843 C239 1.424 . S
C857 C272 1.437 . S
C863 N302 1.382 . S
C877 C305 1.437 . S
C883 N335 1.381 . S
C897 N368 1.382 . S
C903 C338 1.437 . S
C917 C371 1.437 . S
C923 N269 1.381 . S
C937 C404 1.428 . S
C943 N236 1.401 . S
C957 N137 1.381 . S
C963 C437 1.432 . S
C977 N170 1.383 . S
C983 C470 1.432 . S
C997 C503 1.433 . S
C1003 N203 1.376 . S
C1017 N14 1.685 . S
C1023 N80 1.684 . S
C1037 N47 1.687 . S
C1043 N113 1.684 . S
C1057 N212 1.731 . S
C1063 N146 1.729 . S
C1077 N245 1.725 . S
C1083 N179 1.727 . S
C1097 N278 1.698 . S
C1103 N344 1.695 . S
C1117 N311 1.699 . S
C1123 N377 1.696 . S
C1137 N410 1.732 . S
C1143 N476 1.735 . S
C1157 N443 1.729 . S
C1163 N509 1.729 . S
C1177 C149 1.157 . S
C1183 C17 1.146 . S
C1197 C182 1.133 . S
C1203 C50 1.149 . S
C1217 C83 1.137 . S
C1223 C215 1.150 . S
C1237 C248 1.131 . S
C1243 C116 1.146 . S
C1257 C281 1.227 . S
C1263 C413 1.226 . S
C1277 C446 1.214 . S
C1283 C314 1.206 . S
C1297 C479 1.224 . S
C1303 C347 1.228 . S
C1317 C380 1.225 . S
C1323 C512 1.205 . S
