# Generated by pormake.
# Topology lon, (4)-cn, num edge types: 1
# Building blocks:
#     Node 0, Type 0, BuildingBlock: UXUYUI_clean_sbu_0, # of connection points: 4
#     Node 1, Type 0, BuildingBlock: UXUYUI_clean_sbu_0, # of connection points: 4
#     Node 2, Type 0, BuildingBlock: UXUYUI_clean_sbu_0, # of connection points: 4
#     Node 3, Type 0, BuildingBlock: UXUYUI_clean_sbu_0, # of connection points: 4
#     Edge 4, Type (0, 0), BuildingBlock: FUNLAD_clean_linker_0, # of connection points: 2
#     Edge 5, Type (0, 0), BuildingBlock: FUNLAD_clean_linker_0, # of connection points: 2
#     Edge 6, Type (0, 0), BuildingBlock: FUNLAD_clean_linker_0, # of connection points: 2
#     Edge 7, Type (0, 0), BuildingBlock: FUNLAD_clean_linker_0, # of connection points: 2
#     Edge 8, Type (0, 0), BuildingBlock: FUNLAD_clean_linker_0, # of connection points: 2
#     Edge 9, Type (0, 0), BuildingBlock: FUNLAD_clean_linker_0, # of connection points: 2
#     Edge 10, Type (0, 0), BuildingBlock: FUNLAD_clean_linker_0, # of connection points: 2
#     Edge 11, Type (0, 0), BuildingBlock: FUNLAD_clean_linker_0, # of connection points: 2
# Relax obj value: 0.000
# Max RMSD: 0.004
# Mean RMSD: 0.003
data_MOF--net-lon--node1-UXUYUI_clean_sbu_0--edge1-FUNLAD_clean_linker_0
_symmetry_space_group_name_H-M    P1
_symmetry_Int_Tables_number       1
_symmetry_cell_setting            triclinic
loop_
_symmetry_equiv_pos_as_xyz
'x, y, z'
_cell_length_a     40.60933
_cell_length_b     40.593492
_cell_length_c     66.297843
_cell_angle_alpha  90.151858
_cell_angle_beta   90.201198
_cell_angle_gamma 120.04915
loop_
_atom_site_label
_atom_site_type_symbol
_atom_site_fract_x
_atom_site_fract_y
_atom_site_fract_z
_atom_type_partial_charge
Li0 Li 0.34386 0.67365 0.0911 0.0
Li1 Li 0.36331 0.65156 0.06138 0.0
Li2 Li 0.36332 0.71397 0.06173 0.0
Li3 Li 0.30281 0.65302 0.05976 0.0
C4 C 0.41875 0.70827 0.09396 0.0
N5 N 0.46573 0.72698 0.12736 0.0
C6 C 0.4364 0.6872 0.09858 0.0
C7 C 0.42533 0.73912 0.10617 0.0
C8 C 0.46 0.69706 0.11557 0.0
C9 C 0.44906 0.74803 0.12304 0.0
C10 C 0.29946 0.58396 0.07732 0.0
C11 C 0.26329 0.52439 0.05947 0.0
N12 N 0.26416 0.50542 0.07615 0.0
C13 C 0.29955 0.56382 0.09438 0.0
C14 C 0.28082 0.56405 0.05979 0.0
C15 C 0.28174 0.52416 0.09345 0.0
C16 C 0.32949 0.69104 0.13066 0.0
N17 N 0.34336 0.67211 0.11992 0.0
C18 C 0.35774 0.65012 0.1503 0.0
C19 C 0.35722 0.65179 0.12928 0.0
C20 C 0.34366 0.6694 0.16186 0.0
C21 C 0.32943 0.69013 0.15175 0.0
H22 H 0.31831 0.70671 0.12286 0.0
H23 H 0.36814 0.63705 0.12038 0.0
C24 C 0.40855 0.63626 0.03473 0.0
N25 N 0.38873 0.62541 0.05227 0.0
C26 C 0.4262 0.61669 0.02736 0.0
C27 C 0.40393 0.57606 0.05662 0.0
C28 C 0.3867 0.59639 0.0634 0.0
C29 C 0.42373 0.58587 0.03826 0.0
H30 H 0.41024 0.65984 0.02631 0.0
H31 H 0.37189 0.5891 0.07762 0.0
C32 C 0.3105 0.72728 0.07754 0.0
N33 N 0.29969 0.7892 0.07565 0.0
C34 C 0.28159 0.72586 0.0654 0.0
C35 C 0.33363 0.76001 0.08889 0.0
C36 C 0.27664 0.75751 0.06462 0.0
C37 C 0.32781 0.79108 0.08766 0.0
C38 C 0.33848 0.6644 0.02034 0.0
C39 C 0.3409 0.69096 1.00617 0.0
C40 C 0.32919 0.6279 0.01391 0.0
C41 C 0.33327 0.68034 0.98588 0.0
C42 C 0.32181 0.61838 0.99349 0.0
N43 N 0.32393 0.64456 0.98001 0.0
C44 C 0.42573 0.78921 0.05756 0.0
C45 C 0.36943 0.77758 0.0406 0.0
C46 C 0.4445 0.82713 0.05125 0.0
N47 N 0.38879 0.76541 0.05229 0.0
C48 C 0.38696 0.81528 0.03409 0.0
C49 C 0.42499 0.84067 0.03945 0.0
H50 H 0.44061 0.77881 0.06673 0.0
H51 H 0.34024 0.75803 0.0364 0.0
C52 C 0.22377 0.60499 0.06324 0.0
N53 N 0.2515 0.62706 0.04993 0.0
C54 C 0.18579 0.58429 0.05696 0.0
C55 C 0.20552 0.60956 0.02343 0.0
C56 C 0.24302 0.63012 0.0304 0.0
C57 C 0.17637 0.58614 0.03676 0.0
H58 H 0.23129 0.6032 0.0787 0.0
H59 H 0.26521 0.64848 0.02019 0.0
O60 O 0.39502 0.69862 0.07761 0.0
O61 O 0.31677 0.62284 0.07802 0.0
O62 O 0.31604 0.69674 0.07831 0.0
O63 O 0.3458 0.6744 0.04029 0.0
H64 H 0.43171 0.66333 0.08925 0.0
H65 H 0.41197 0.75576 0.10277 0.0
H66 H 0.47368 0.68088 0.1194 0.0
H67 H 0.45417 0.77165 0.13272 0.0
H68 H 0.24883 0.50868 0.04597 0.0
H69 H 0.31334 0.57862 0.10817 0.0
H70 H 0.27942 0.57892 0.04665 0.0
H71 H 0.28183 0.50827 0.1065 0.0
H72 H 0.36948 0.63424 0.1574 0.0
H73 H 0.31784 0.70502 0.16002 0.0
H74 H 0.44097 0.62516 0.01309 0.0
H75 H 0.40203 0.55312 0.06577 0.0
H76 H 0.26337 0.70073 0.05656 0.0
H77 H 0.35606 0.76155 0.09838 0.0
H78 H 0.25452 0.7569 0.05522 0.0
H79 H 0.34568 0.8167 0.09625 0.0
H80 H 0.34844 0.71944 0.01077 0.0
H81 H 0.32821 0.60725 0.02449 0.0
H82 H 0.33483 0.70057 0.97479 0.0
H83 H 0.31456 0.59022 0.98834 0.0
H84 H 0.47375 0.84578 0.05585 0.0
H85 H 0.37102 0.82434 0.02478 0.0
H86 H 0.16414 0.56641 0.06769 0.0
H87 H 0.19932 0.61223 0.00781 0.0
Li88 Li 0.65741 0.36116 0.56079 0.0
Li89 Li 0.7182 0.36185 0.56237 0.0
Li90 Li 0.65721 0.30163 0.56134 0.0
Li91 Li 0.67754 0.3422 0.59154 0.0
C92 C 0.67419 0.3558 0.52309 0.0
N93 N 0.66299 0.38729 0.48869 0.0
C94 C 0.7048 0.38741 0.51417 0.0
C95 C 0.63793 0.34007 0.51446 0.0
C96 C 0.69855 0.40292 0.49678 0.0
C97 C 0.63283 0.35647 0.4971 0.0
C98 C 0.70847 0.41593 0.59425 0.0
C99 C 0.74291 0.44681 0.62471 0.0
N100 N 0.71838 0.45982 0.62812 0.0
C101 C 0.68365 0.42966 0.59802 0.0
C102 C 0.73843 0.42464 0.60765 0.0
C103 C 0.68915 0.45182 0.61523 0.0
C104 C 0.59517 0.37319 0.55287 0.0
N105 N 0.63326 0.38794 0.55069 0.0
C106 C 0.63882 0.44274 0.53412 0.0
C107 C 0.65522 0.42218 0.54172 0.0
C108 C 0.59944 0.42824 0.53605 0.0
C109 C 0.5776 0.39294 0.54563 0.0
H110 H 0.57847 0.34628 0.56041 0.0
H111 H 0.68555 0.43347 0.54043 0.0
C112 C 0.78099 0.37036 0.53945 0.0
N113 N 0.76975 0.38753 0.55325 0.0
C114 C 0.81881 0.38821 0.53307 0.0
C115 C 0.83249 0.44158 0.55474 0.0
C116 C 0.79448 0.42262 0.56076 0.0
C117 C 0.84525 0.4243 0.54081 0.0
H118 H 0.76061 0.34259 0.53355 0.0
H119 H 0.78468 0.43598 0.57141 0.0
C120 C 0.59419 0.28335 0.58062 0.0
N121 N 0.52968 0.21278 0.58463 0.0
C122 C 0.58807 0.26255 0.59835 0.0
C123 C 0.56742 0.26837 0.56497 0.0
C124 C 0.55526 0.22692 0.60008 0.0
C125 C 0.53504 0.23259 0.56727 0.0
C126 C 0.73262 0.31097 0.57785 0.0
C127 C 0.7319 0.28327 0.56499 0.0
C128 C 0.76577 0.33495 0.58871 0.0
C129 C 0.76447 0.2801 0.56316 0.0
C130 C 0.79777 0.33093 0.58642 0.0
N131 N 0.79646 0.30382 0.57381 0.0
C132 C 0.62119 0.24108 0.53269 0.0
C133 C 0.6242 0.22222 0.56612 0.0
C134 C 0.60181 0.20312 0.52627 0.0
N135 N 0.63168 0.24982 0.55234 0.0
C136 C 0.60472 0.18391 0.56039 0.0
C137 C 0.59316 0.1739 0.54022 0.0
H138 H 0.62776 0.26355 0.522 0.0
H139 H 0.63333 0.23004 0.5816 0.0
C140 C 0.65101 0.35089 0.62945 0.0
N141 N 0.67577 0.34233 0.62035 0.0
C142 C 0.64935 0.3519 0.65047 0.0
C143 C 0.69827 0.33469 0.65238 0.0
C144 C 0.69898 0.33402 0.63132 0.0
C145 C 0.67325 0.3438 0.66226 0.0
H146 H 0.63256 0.35696 0.62033 0.0
H147 H 0.71813 0.32695 0.62374 0.0
O148 O 0.67962 0.34059 0.5403 0.0
O149 O 0.70302 0.39341 0.57775 0.0
O150 O 0.62655 0.31789 0.57844 0.0
O151 O 0.70123 0.31496 0.57958 0.0
H152 H 0.73303 0.40006 0.52068 0.0
H153 H 0.61386 0.31583 0.52128 0.0
H154 H 0.72194 0.42748 0.48975 0.0
H155 H 0.60487 0.34478 0.49035 0.0
H156 H 0.76578 0.45352 0.63529 0.0
H157 H 0.66016 0.42299 0.5879 0.0
H158 H 0.75763 0.41386 0.60509 0.0
H159 H 0.67007 0.46252 0.61838 0.0
H160 H 0.65682 0.46955 0.52666 0.0
H161 H 0.54732 0.38092 0.54783 0.0
H162 H 0.82732 0.3736 0.52245 0.0
H163 H 0.85158 0.46967 0.5608 0.0
H164 H 0.60861 0.27357 0.61055 0.0
H165 H 0.5719 0.28393 0.55108 0.0
H166 H 0.55024 0.21042 0.61368 0.0
H167 H 0.51423 0.22052 0.55523 0.0
H168 H 0.70662 0.26465 0.55636 0.0
H169 H 0.76702 0.3569 0.59851 0.0
H170 H 0.76436 0.25888 0.55322 0.0
H171 H 0.8237 0.34949 0.59461 0.0
H172 H 0.59321 0.19671 0.51061 0.0
H173 H 0.59921 0.16241 0.57159 0.0
H174 H 0.62918 0.35845 0.65739 0.0
H175 H 0.71747 0.3286 0.66082 0.0
Li176 Li 0.36299 0.71415 0.45136 0.0
Li177 Li 0.34459 0.6746 0.42066 0.0
Li178 Li 0.30294 0.6547 0.45168 0.0
Li179 Li 0.36159 0.65099 0.45131 0.0
C180 C 0.31576 0.7313 0.43158 0.0
N181 N 0.31299 0.79765 0.42778 0.0
C182 C 0.32522 0.75091 0.41329 0.0
C183 C 0.30439 0.74517 0.44785 0.0
C184 C 0.32375 0.78446 0.41169 0.0
C185 C 0.30333 0.77884 0.44566 0.0
C186 C 0.42483 0.7067 0.42359 0.0
C187 C 0.46321 0.68744 0.40479 0.0
N188 N 0.48714 0.72434 0.39969 0.0
C189 C 0.45017 0.7445 0.41842 0.0
C190 C 0.4317 0.67799 0.41694 0.0
C191 C 0.48134 0.75281 0.40622 0.0
C192 C 0.395 0.774 0.48059 0.0
N193 N 0.38991 0.7659 0.46052 0.0
C194 C 0.42311 0.83219 0.45255 0.0
C195 C 0.40366 0.79406 0.44655 0.0
C196 C 0.42888 0.8416 0.47318 0.0
C197 C 0.41446 0.81182 0.48729 0.0
H198 H 0.38413 0.75109 0.49141 0.0
H199 H 0.39936 0.78691 0.43068 0.0
C200 C 0.31683 0.64608 0.38136 0.0
N201 N 0.3451 0.67572 0.39178 0.0
C202 C 0.31608 0.64648 0.36028 0.0
C203 C 0.37302 0.70831 0.36102 0.0
C204 C 0.37273 0.70664 0.38206 0.0
C205 C 0.34443 0.67795 0.34981 0.0
H206 H 0.29461 0.62223 0.38943 0.0
H207 H 0.39418 0.73039 0.39063 0.0
C208 C 0.32485 0.66222 0.4902 0.0
N209 N 0.28423 0.63743 0.52565 0.0
C210 C 0.32185 0.63055 0.50018 0.0
C211 C 0.30763 0.68159 0.49839 0.0
C212 C 0.30109 0.61839 0.51805 0.0
C213 C 0.28707 0.66851 0.51628 0.0
C214 C 0.3095 0.58937 0.42624 0.0
C215 C 0.27881 0.55541 0.43322 0.0
C216 C 0.33327 0.58812 0.41144 0.0
C217 C 0.27299 0.52074 0.42564 0.0
C218 C 0.3265 0.5529 0.40421 0.0
N219 N 0.2968 0.52021 0.41143 0.0
C220 C 0.22848 0.64356 0.45592 0.0
C221 C 0.23821 0.5971 0.47203 0.0
C222 C 0.19063 0.62527 0.46224 0.0
N223 N 0.25142 0.62935 0.46092 0.0
C224 C 0.20055 0.57785 0.47865 0.0
C225 C 0.17609 0.59181 0.47373 0.0
H226 H 0.23947 0.669 0.4469 0.0
H227 H 0.25686 0.58609 0.47561 0.0
C228 C 0.42371 0.64335 0.46494 0.0
N229 N 0.38566 0.62382 0.46114 0.0
C230 C 0.44217 0.6244 0.47211 0.0
C231 C 0.38185 0.56569 0.47167 0.0
C232 C 0.36459 0.58579 0.46457 0.0
C233 C 0.42121 0.58495 0.47555 0.0
H234 H 0.43975 0.67372 0.46243 0.0
H235 H 0.33426 0.57101 0.46203 0.0
O236 O 0.31747 0.69864 0.43351 0.0
O237 O 0.39411 0.6981 0.43553 0.0
O238 O 0.34467 0.67426 0.47255 0.0
O239 O 0.3157 0.62357 0.43363 0.0
H240 H 0.33375 0.74044 0.4005 0.0
H241 H 0.29666 0.73021 0.46204 0.0
H242 H 0.3312 0.80003 0.39766 0.0
H243 H 0.29483 0.79002 0.45817 0.0
H244 H 0.46875 0.66545 0.3995 0.0
H245 H 0.44572 0.76719 0.42365 0.0
H246 H 0.41325 0.64878 0.42132 0.0
H247 H 0.50096 0.78191 0.40197 0.0
H248 H 0.43313 0.85405 0.44111 0.0
H249 H 0.41866 0.81764 0.50332 0.0
H250 H 0.29307 0.62276 0.3523 0.0
H251 H 0.39551 0.73309 0.35361 0.0
H252 H 0.33518 0.61537 0.49414 0.0
H253 H 0.31002 0.70637 0.491 0.0
H254 H 0.29834 0.59379 0.52587 0.0
H255 H 0.27341 0.6831 0.52272 0.0
H256 H 0.25978 0.55576 0.44446 0.0
H257 H 0.35634 0.61403 0.40536 0.0
H258 H 0.24953 0.49426 0.43103 0.0
H259 H 0.34476 0.55157 0.39279 0.0
H260 H 0.17303 0.63736 0.45826 0.0
H261 H 0.19053 0.55187 0.48718 0.0
H262 H 0.47242 0.64061 0.47522 0.0
H263 H 0.36449 0.5353 0.47392 0.0
Li264 Li 0.65595 0.29741 0.9502 0.0
Li265 Li 0.65481 0.35745 0.95159 0.0
Li266 Li 0.67617 0.33729 0.92065 0.0
Li267 Li 0.71757 0.36064 0.95074 0.0
C268 C 0.58968 0.28149 0.93355 0.0
N269 N 0.51834 0.21727 0.9345 0.0
C270 C 0.5607 0.2814 0.9449 0.0
C271 C 0.5823 0.24908 0.92251 0.0
C272 C 0.52483 0.24861 0.94521 0.0
C273 C 0.54608 0.21685 0.92325 0.0
C274 C 0.67775 0.34757 0.99127 0.0
C275 C 0.70566 0.39349 0.0183 0.0
N276 N 0.6795 0.36795 0.03126 0.0
C277 C 0.6515 0.3216 1.00493 0.0
C278 C 0.70535 0.38366 0.99806 0.0
C279 C 0.6527 0.33251 0.02505 0.0
C280 C 0.64769 0.22446 0.95519 0.0
N281 N 0.63178 0.24607 0.95978 0.0
C282 C 0.58153 0.19422 0.97764 0.0
C283 C 0.59948 0.23183 0.97092 0.0
C284 C 0.59714 0.17104 0.97303 0.0
C285 C 0.6308 0.18675 0.96168 0.0
H286 H 0.67365 0.23656 0.94655 0.0
H287 H 0.58747 0.24961 0.97449 0.0
C288 C 0.629 0.4101 0.94918 0.0
N289 N 0.62868 0.38271 0.96109 0.0
C290 C 0.61184 0.43067 0.95565 0.0
C291 C 0.5929 0.39349 0.9862 0.0
C292 C 0.61055 0.37372 0.97915 0.0
C293 C 0.59373 0.42271 0.97449 0.0
H294 H 0.64292 0.41619 0.93468 0.0
H295 H 0.60971 0.35119 0.98812 0.0
C296 C 0.7193 0.3055 0.9187 0.0
N297 N 0.75132 0.28948 0.88615 0.0
C298 C 0.75807 0.32849 0.91468 0.0
C299 C 0.6969 0.27412 0.90632 0.0
C300 C 0.7737 0.31996 0.89812 0.0
C301 C 0.71359 0.26659 0.88988 0.0
C302 C 0.72031 0.42712 0.93381 0.0
C303 C 0.73894 0.44676 0.91635 0.0
C304 C 0.72314 0.4475 0.95137 0.0
C305 C 0.76066 0.48646 0.91688 0.0
C306 C 0.74508 0.48718 0.95129 0.0
N307 N 0.76329 0.50568 0.9342 0.0
C308 C 0.64373 0.31812 0.88133 0.0
C309 C 0.71073 0.35788 0.88217 0.0
C310 C 0.64387 0.31746 0.86025 0.0
N311 N 0.67688 0.3379 0.89181 0.0
C312 C 0.71224 0.35787 0.86113 0.0
C313 C 0.6785 0.33737 0.84986 0.0
H314 H 0.61715 0.30271 0.88933 0.0
H315 H 0.73666 0.37368 0.89085 0.0
C316 C 0.77711 0.37256 0.97708 0.0
N317 N 0.76872 0.38711 0.96068 0.0
C318 C 0.8138 0.39113 0.98532 0.0
C319 C 0.83269 0.43909 0.9595 0.0
C320 C 0.79577 0.41939 0.95164 0.0
C321 C 0.84203 0.42507 0.97662 0.0
H322 H 0.75512 0.34667 0.98387 0.0
H323 H 0.78887 0.42984 0.93828 0.0
O324 O 0.62506 0.31321 0.9332 0.0
O325 O 0.67702 0.33721 0.97153 0.0
O326 O 0.70336 0.31378 0.93465 0.0
O327 O 0.69908 0.38821 0.93354 0.0
H328 H 0.56588 0.30629 0.95344 0.0
H329 H 0.60439 0.24871 0.91364 0.0
H330 H 0.50217 0.24806 0.954 0.0
H331 H 0.54003 0.19147 0.91491 0.0
H332 H 0.72682 0.42137 0.02372 0.0
H333 H 0.63023 0.2934 1.00005 0.0
H334 H 0.72665 0.40377 0.98793 0.0
H335 H 0.63235 0.31278 0.03573 0.0
H336 H 0.55543 0.18332 0.98613 0.0
H337 H 0.6443 0.17029 0.95806 0.0
H338 H 0.61254 0.45243 0.94594 0.0
H339 H 0.57938 0.38642 1.00083 0.0
H340 H 0.77582 0.35284 0.92415 0.0
H341 H 0.66689 0.25599 0.90926 0.0
H342 H 0.80362 0.33763 0.89475 0.0
H343 H 0.69653 0.24257 0.88007 0.0
H344 H 0.73677 0.43153 0.90255 0.0
H345 H 0.70813 0.43293 0.96484 0.0
H346 H 0.77539 0.50199 0.9035 0.0
H347 H 0.74751 0.50327 0.9648 0.0
H348 H 0.61722 0.30102 0.8522 0.0
H349 H 0.7395 0.37404 0.85376 0.0
H350 H 0.81982 0.37946 0.99858 0.0
H351 H 0.85383 0.4648 0.95213 0.0
C352 C 0.35313 0.70022 0.19602 0.0
C353 C 0.34369 0.66772 0.1843 0.0
C354 C 0.35352 0.69868 0.2171 0.0
C355 C 0.34418 0.66442 0.22699 0.0
C356 C 0.33504 0.63209 0.21524 0.0
C357 C 0.33464 0.63363 0.19418 0.0
C358 C 0.34479 0.66134 0.24938 0.0
C359 C 0.34197 0.68553 0.26231 0.0
C360 C 0.34268 0.6825 0.2847 0.0
C361 C 0.35173 0.71483 0.29644 0.0
C362 C 0.35246 0.71341 0.31749 0.0
C363 C 0.34381 0.67944 0.32738 0.0
H364 H 0.32537 0.62238 0.28627 0.0
C365 C 0.33428 0.64689 0.31568 0.0
C366 C 0.33362 0.64833 0.2946 0.0
H367 H 0.32757 0.62029 0.32281 0.0
H368 H 0.36101 0.72714 0.18889 0.0
H369 H 0.36202 0.72466 0.22545 0.0
H370 H 0.3279 0.60536 0.22238 0.0
H371 H 0.32683 0.60793 0.18566 0.0
H372 H 0.34732 0.63778 0.25525 0.0
H373 H 0.33943 0.70908 0.25642 0.0
H374 H 0.3584 0.74143 0.28929 0.0
H375 H 0.35925 0.73884 0.32603 0.0
C376 C 0.6749 0.31723 0.69626 0.0
C377 C 0.67202 0.34469 0.68469 0.0
C378 C 0.67372 0.31801 0.71733 0.0
C379 C 0.66984 0.34649 0.72737 0.0
C380 C 0.6665 0.37361 0.71581 0.0
C381 C 0.66775 0.37287 0.69474 0.0
C382 C 0.66786 0.34807 0.74976 0.0
C383 C 0.68307 0.33319 0.76238 0.0
C384 C 0.68142 0.335 0.78477 0.0
C385 C 0.70867 0.33181 0.79637 0.0
C386 C 0.70787 0.3328 0.81744 0.0
C387 C 0.67947 0.3366 0.82744 0.0
H388 H 0.63056 0.33992 0.78645 0.0
C389 C 0.65187 0.33934 0.81585 0.0
C390 C 0.65276 0.33849 0.79477 0.0
H391 H 0.62968 0.34241 0.82308 0.0
H392 H 0.67735 0.29461 0.68902 0.0
H393 H 0.67504 0.29577 0.7256 0.0
H394 H 0.66324 0.39572 0.7231 0.0
H395 H 0.66583 0.39469 0.68634 0.0
H396 H 0.65498 0.36373 0.75594 0.0
H397 H 0.69908 0.3207 0.75619 0.0
H398 H 0.7308 0.32863 0.78912 0.0
H399 H 0.72918 0.32999 0.82591 0.0
C400 C 0.47709 0.58234 0.02107 0.0
C401 C 0.44135 0.56386 0.03049 0.0
C402 C 0.49348 0.56153 0.0137 0.0
C403 C 0.47453 0.52163 0.01568 0.0
C404 C 0.43865 0.50322 0.02489 0.0
C405 C 0.42231 0.52402 0.03227 0.0
C406 C 0.49042 0.49796 0.00793 0.0
C407 C 0.5276 0.51161 1.00397 0.0
C408 C 0.5433 0.48774 0.99632 0.0
C409 C 0.57844 0.50568 0.98635 0.0
C410 C 0.59462 0.4846 0.97915 0.0
C411 C 0.57618 0.44499 0.98193 0.0
H412 H 0.49843 0.43316 0.00737 0.0
C413 C 0.54119 0.42701 0.99209 0.0
C414 C 0.52495 0.44809 0.99925 0.0
H415 H 0.52617 0.39653 0.99443 0.0
H416 H 0.49261 0.61301 0.01952 0.0
H417 H 0.52063 0.57695 0.00622 0.0
H418 H 0.42316 0.47254 0.02645 0.0
H419 H 0.39444 0.50876 0.0391 0.0
H420 H 0.47036 0.46792 1.00563 0.0
H421 H 0.54774 0.54164 1.00616 0.0
H422 H 0.59347 0.53619 0.98406 0.0
H423 H 0.62192 0.49947 0.9717 0.0
C424 C 0.12532 0.55429 0.49935 0.0
C425 C 0.13557 0.57132 0.48023 0.0
C426 C 0.08721 0.53471 0.50534 0.0
C427 C 0.05834 0.53196 0.49238 0.0
C428 C 0.06863 0.54873 0.47323 0.0
C429 C 0.10669 0.5682 0.46723 0.0
C430 C 0.01721 0.51113 0.49788 0.0
C431 C 1.00426 0.50197 0.51694 0.0
C432 C 0.96314 0.48171 0.52242 0.0
C433 C 0.95324 0.48332 0.54253 0.0
C434 C 0.91515 0.46473 0.54848 0.0
C435 C 0.88585 0.44383 0.53445 0.0
H436 H 0.93998 0.45716 0.4929 0.0
C437 C 0.8957 0.44173 0.51436 0.0
C438 C 0.93384 0.46026 0.50842 0.0
H439 H 0.8739 0.42604 0.50312 0.0
H440 H 0.14681 0.55627 0.5098 0.0
H441 H 0.08074 0.52142 0.52001 0.0
H442 H 0.0471 0.54677 0.46281 0.0
H443 H 0.11337 0.58029 0.45225 0.0
H444 H 0.99705 0.50469 0.48565 0.0
H445 H 0.02446 0.5111 0.52935 0.0
H446 H 0.9751 0.49916 0.55374 0.0
H447 H 0.90874 0.46638 0.56416 0.0
C448 C 0.5618 0.12079 0.99925 0.0
C449 C 0.57855 0.13084 0.98005 0.0
C450 C 0.54449 0.08308 1.00587 0.0
C451 C 0.54341 0.05444 0.9934 0.0
C452 C 0.56051 0.06454 0.97434 0.0
C453 C 0.57766 0.10218 0.96768 0.0
C454 C 0.52594 0.0141 0.99998 0.0
C455 C 0.49782 0.99822 0.01369 0.0
C456 C 0.47986 0.9577 0.02 0.0
C457 C 0.44256 0.93961 0.02745 0.0
C458 C 0.42474 0.90167 0.03366 0.0
C459 C 0.44403 0.88103 0.03283 0.0
H460 H 0.52852 0.95039 0.01426 0.0
C461 C 0.48162 0.89929 0.0257 0.0
C462 C 0.49937 0.93719 0.01935 0.0
H463 H 0.49723 0.88415 0.02484 0.0
H464 H 0.56269 0.14221 0.00937 0.0
H465 H 0.53279 0.07676 0.02093 0.0
H466 H 0.5603 0.04313 0.96445 0.0
H467 H 0.58985 0.10872 0.95272 0.0
H468 H 0.53532 0.99649 0.99242 0.0
H469 H 0.4859 0.01482 0.01981 0.0
H470 H 0.427 0.95482 0.02835 0.0
H471 H 0.39597 0.88863 0.03938 0.0
C472 C 0.54496 0.43092 0.51936 0.0
C473 C 0.58138 0.44994 0.52828 0.0
C474 C 0.52798 0.45129 0.51215 0.0
C475 C 0.54702 0.49124 0.5137 0.0
C476 C 0.58357 0.51026 0.52232 0.0
C477 C 0.60044 0.48991 0.52966 0.0
C478 C 0.53021 0.51401 0.50594 0.0
C479 C 0.49243 0.50053 0.50483 0.0
C480 C 0.47543 0.52337 0.49743 0.0
C481 C 0.43898 0.51403 0.50403 0.0
C482 C 0.42163 0.53421 0.49714 0.0
C483 C 0.44012 0.564 0.48322 0.0
H484 H 0.52164 0.56047 0.47755 0.0
C485 C 0.47658 0.57322 0.4765 0.0
C486 C 0.49403 0.55315 0.48349 0.0
H487 H 0.49135 0.59544 0.46547 0.0
H488 H 0.52976 0.40027 0.5176 0.0
H489 H 0.50031 0.43564 0.50499 0.0
H490 H 0.59898 0.54101 0.52362 0.0
H491 H 0.62829 0.50557 0.53665 0.0
H492 H 0.54978 0.54349 0.50209 0.0
H493 H 0.47298 0.47228 0.51054 0.0
H494 H 0.42392 0.49115 0.5147 0.0
H495 H 0.3938 0.52661 0.50289 0.0
C496 C 0.10659 0.56282 0.04052 0.0
C497 C 0.13645 0.56354 0.02952 0.0
C498 C 0.06905 0.54187 0.03349 0.0
C499 C 0.06064 0.52096 0.01536 0.0
C500 C 0.09042 0.52107 1.00463 0.0
C501 C 0.12797 0.54242 0.01151 0.0
C502 C 0.02113 0.49803 0.00751 0.0
C503 C 0.99437 0.50793 0.01033 0.0
C504 C 0.95537 0.48595 1.00167 0.0
C505 C 0.93598 0.50524 0.99648 0.0
C506 C 0.89933 0.48552 0.98822 0.0
C507 C 0.88098 0.44591 0.98536 0.0
H508 H 0.95063 0.43028 1.00328 0.0
C509 C 0.90004 0.42642 0.99094 0.0
C510 C 0.93692 0.44622 0.99896 0.0
H511 H 0.88659 0.39589 0.9889 0.0
H512 H 0.11231 0.57883 0.05445 0.0
H513 H 0.04668 0.54165 0.04242 0.0
H514 H 0.08468 0.50491 0.99075 0.0
H515 H 0.15037 0.54204 1.00286 0.0
H516 H 0.01473 0.4737 0.99799 0.0
H517 H 1.00191 0.53441 0.01809 0.0
H518 H 0.94939 0.53576 0.99861 0.0
H519 H 0.88513 0.50122 0.98431 0.0
C520 C 0.5812 0.12194 0.51549 0.0
C521 C 0.57237 0.13326 0.53378 0.0
C522 C 0.56189 0.0837 0.50949 0.0
C523 C 0.53291 0.05579 0.52159 0.0
C524 C 0.52434 0.06721 0.53993 0.0
C525 C 0.54374 0.10541 0.54595 0.0
C526 C 0.51157 0.01454 0.51605 0.0
C527 C 0.51077 1.00088 0.49736 0.0
C528 C 0.48962 0.95964 0.49199 0.0
C529 C 0.50107 0.94747 0.47492 0.0
C530 C 0.48169 0.90926 0.46898 0.0
C531 C 0.44997 0.88217 0.47984 0.0
H532 H 0.44723 0.94087 0.51574 0.0
C533 C 0.43834 0.89433 0.49689 0.0
C534 C 0.45784 0.93261 0.50289 0.0
H535 H 0.41358 0.87442 0.50538 0.0
H536 H 0.60363 0.14257 0.50596 0.0
H537 H 0.57052 0.07641 0.49557 0.0
H538 H 0.50235 0.04648 0.54964 0.0
H539 H 0.53599 0.1132 0.56005 0.0
H540 H 0.4958 0.99476 0.52803 0.0
H541 H 0.52665 0.02033 0.48531 0.0
H542 H 0.52533 0.9676 0.46618 0.0
H543 H 0.49183 0.90092 0.45593 0.0
loop_
_geom_bond_atom_site_label_1
_geom_bond_atom_site_label_2
_geom_bond_distance
_geom_bond_site_symmetry_2
_ccdc_geom_bond_type
Li0 N17 1.990 . S
Li0 O60 1.956 . S
Li0 O61 1.970 . S
Li0 O62 1.961 . S
Li1 N25 1.990 . S
Li1 O60 1.970 . S
Li1 O61 1.956 . S
Li1 O63 1.961 . S
Li2 N47 1.990 . S
Li2 O60 1.961 . S
Li2 O62 1.956 . S
Li2 O63 1.970 . S
Li3 N53 1.990 . S
Li3 O61 1.961 . S
Li3 O62 1.970 . S
Li3 O63 1.956 . S
C4 C6 1.348 . S
C4 C7 1.356 . S
C4 O60 1.325 . S
N5 C8 1.314 . S
N5 C9 1.279 . S
C6 C4 1.348 . S
C6 C8 1.353 . S
C6 H64 0.929 . S
C7 C4 1.356 . S
C7 C9 1.358 . S
C7 H65 0.930 . S
C8 N5 1.314 . S
C8 C6 1.353 . S
C8 H66 0.930 . S
C9 N5 1.279 . S
C9 C7 1.358 . S
C9 H67 0.930 . S
C10 C13 1.348 . S
C10 C14 1.356 . S
C10 O61 1.325 . S
C11 N12 1.279 . S
C11 C14 1.358 . S
C11 H68 0.930 . S
N12 C11 1.279 . S
N12 C15 1.314 . S
C13 C10 1.348 . S
C13 C15 1.353 . S
C13 H69 0.929 . S
C14 C10 1.356 . S
C14 C11 1.358 . S
C14 H70 0.930 . S
C15 N12 1.314 . S
C15 C13 1.353 . S
C15 H71 0.930 . S
C16 N17 1.314 . S
C16 C21 1.353 . S
C16 H22 0.930 . S
N17 Li0 1.990 . S
N17 C16 1.314 . S
N17 C19 1.279 . S
C18 C19 1.358 . S
C18 C20 1.356 . S
C18 H72 0.930 . S
C19 N17 1.279 . S
C19 C18 1.358 . S
C19 H23 0.930 . S
C20 C18 1.356 . S
C20 C21 1.348 . S
C21 C16 1.353 . S
C21 C20 1.348 . S
C21 H73 0.929 . S
H22 C16 0.930 . S
H23 C19 0.930 . S
C24 N25 1.314 . S
C24 C26 1.353 . S
C24 H30 0.930 . S
N25 Li1 1.990 . S
N25 C24 1.314 . S
N25 C28 1.279 . S
C26 C24 1.353 . S
C26 C29 1.348 . S
C26 H74 0.929 . S
C27 C28 1.358 . S
C27 C29 1.356 . S
C27 H75 0.930 . S
C28 N25 1.279 . S
C28 C27 1.358 . S
C28 H31 0.930 . S
C29 C26 1.348 . S
C29 C27 1.356 . S
H30 C24 0.930 . S
H31 C28 0.930 . S
C32 C34 1.348 . S
C32 C35 1.356 . S
C32 O62 1.325 . S
N33 C36 1.314 . S
N33 C37 1.279 . S
C34 C32 1.348 . S
C34 C36 1.353 . S
C34 H76 0.929 . S
C35 C32 1.356 . S
C35 C37 1.358 . S
C35 H77 0.930 . S
C36 N33 1.314 . S
C36 C34 1.353 . S
C36 H78 0.930 . S
C37 N33 1.279 . S
C37 C35 1.358 . S
C37 H79 0.930 . S
C38 C39 1.348 . S
C38 C40 1.356 . S
C38 O63 1.325 . S
C39 C38 1.348 . S
C39 C41 1.353 1_554 S
C39 H80 0.929 . S
C40 C38 1.356 . S
C40 C42 1.358 1_554 S
C40 H81 0.930 . S
C41 C39 1.353 1_556 S
C41 N43 1.314 . S
C41 H82 0.930 . S
C42 C40 1.358 1_556 S
C42 N43 1.279 . S
C42 H83 0.930 . S
N43 C41 1.314 . S
N43 C42 1.279 . S
C44 C46 1.353 . S
C44 N47 1.314 . S
C44 H50 0.930 . S
C45 N47 1.279 . S
C45 C48 1.358 . S
C45 H51 0.930 . S
C46 C44 1.353 . S
C46 C49 1.348 . S
C46 H84 0.929 . S
N47 Li2 1.990 . S
N47 C44 1.314 . S
N47 C45 1.279 . S
C48 C45 1.358 . S
C48 C49 1.356 . S
C48 H85 0.930 . S
C49 C46 1.348 . S
C49 C48 1.356 . S
H50 C44 0.930 . S
H51 C45 0.930 . S
C52 N53 1.314 . S
C52 C54 1.353 . S
C52 H58 0.930 . S
N53 Li3 1.990 . S
N53 C52 1.314 . S
N53 C56 1.279 . S
C54 C52 1.353 . S
C54 C57 1.348 . S
C54 H86 0.929 . S
C55 C56 1.358 . S
C55 C57 1.356 . S
C55 H87 0.930 . S
C56 N53 1.279 . S
C56 C55 1.358 . S
C56 H59 0.930 . S
C57 C54 1.348 . S
C57 C55 1.356 . S
H58 C52 0.930 . S
H59 C56 0.930 . S
O60 Li0 1.956 . S
O60 Li1 1.970 . S
O60 Li2 1.961 . S
O60 C4 1.325 . S
O61 Li0 1.970 . S
O61 Li1 1.956 . S
O61 Li3 1.961 . S
O61 C10 1.325 . S
O62 Li0 1.961 . S
O62 Li2 1.956 . S
O62 Li3 1.970 . S
O62 C32 1.325 . S
O63 Li1 1.961 . S
O63 Li2 1.970 . S
O63 Li3 1.956 . S
O63 C38 1.325 . S
H64 C6 0.929 . S
H65 C7 0.930 . S
H66 C8 0.930 . S
H67 C9 0.930 . S
H68 C11 0.930 . S
H69 C13 0.929 . S
H70 C14 0.930 . S
H71 C15 0.930 . S
H72 C18 0.930 . S
H73 C21 0.929 . S
H74 C26 0.929 . S
H75 C27 0.930 . S
H76 C34 0.929 . S
H77 C35 0.930 . S
H78 C36 0.930 . S
H79 C37 0.930 . S
H80 C39 0.929 . S
H81 C40 0.930 . S
H82 C41 0.930 . S
H83 C42 0.930 . S
H84 C46 0.929 . S
H85 C48 0.930 . S
H86 C54 0.929 . S
H87 C55 0.930 . S
Li88 N105 1.990 . S
Li88 O148 1.956 . S
Li88 O149 1.970 . S
Li88 O150 1.961 . S
Li89 N113 1.990 . S
Li89 O148 1.970 . S
Li89 O149 1.956 . S
Li89 O151 1.961 . S
Li90 N135 1.990 . S
Li90 O148 1.961 . S
Li90 O150 1.956 . S
Li90 O151 1.970 . S
Li91 N141 1.990 . S
Li91 O149 1.961 . S
Li91 O150 1.970 . S
Li91 O151 1.956 . S
C92 C94 1.348 . S
C92 C95 1.356 . S
C92 O148 1.325 . S
N93 C96 1.314 . S
N93 C97 1.279 . S
C94 C92 1.348 . S
C94 C96 1.353 . S
C94 H152 0.929 . S
C95 C92 1.356 . S
C95 C97 1.358 . S
C95 H153 0.930 . S
C96 N93 1.314 . S
C96 C94 1.353 . S
C96 H154 0.930 . S
C97 N93 1.279 . S
C97 C95 1.358 . S
C97 H155 0.930 . S
C98 C101 1.348 . S
C98 C102 1.356 . S
C98 O149 1.325 . S
C99 N100 1.279 . S
C99 C102 1.358 . S
C99 H156 0.930 . S
N100 C99 1.279 . S
N100 C103 1.314 . S
C101 C98 1.348 . S
C101 C103 1.353 . S
C101 H157 0.929 . S
C102 C98 1.356 . S
C102 C99 1.358 . S
C102 H158 0.930 . S
C103 N100 1.314 . S
C103 C101 1.353 . S
C103 H159 0.930 . S
C104 N105 1.314 . S
C104 C109 1.353 . S
C104 H110 0.930 . S
N105 Li88 1.990 . S
N105 C104 1.314 . S
N105 C107 1.279 . S
C106 C107 1.358 . S
C106 C108 1.356 . S
C106 H160 0.930 . S
C107 N105 1.279 . S
C107 C106 1.358 . S
C107 H111 0.930 . S
C108 C106 1.356 . S
C108 C109 1.348 . S
C109 C104 1.353 . S
C109 C108 1.348 . S
C109 H161 0.929 . S
H110 C104 0.930 . S
H111 C107 0.930 . S
C112 N113 1.314 . S
C112 C114 1.353 . S
C112 H118 0.930 . S
N113 Li89 1.990 . S
N113 C112 1.314 . S
N113 C116 1.279 . S
C114 C112 1.353 . S
C114 C117 1.348 . S
C114 H162 0.929 . S
C115 C116 1.358 . S
C115 C117 1.356 . S
C115 H163 0.930 . S
C116 N113 1.279 . S
C116 C115 1.358 . S
C116 H119 0.930 . S
C117 C114 1.348 . S
C117 C115 1.356 . S
H118 C112 0.930 . S
H119 C116 0.930 . S
C120 C122 1.348 . S
C120 C123 1.356 . S
C120 O150 1.325 . S
N121 C124 1.314 . S
N121 C125 1.279 . S
C122 C120 1.348 . S
C122 C124 1.353 . S
C122 H164 0.929 . S
C123 C120 1.356 . S
C123 C125 1.358 . S
C123 H165 0.930 . S
C124 N121 1.314 . S
C124 C122 1.353 . S
C124 H166 0.930 . S
C125 N121 1.279 . S
C125 C123 1.358 . S
C125 H167 0.930 . S
C126 C127 1.348 . S
C126 C128 1.356 . S
C126 O151 1.325 . S
C127 C126 1.348 . S
C127 C129 1.353 . S
C127 H168 0.929 . S
C128 C126 1.356 . S
C128 C130 1.358 . S
C128 H169 0.930 . S
C129 C127 1.353 . S
C129 N131 1.314 . S
C129 H170 0.930 . S
C130 C128 1.358 . S
C130 N131 1.279 . S
C130 H171 0.930 . S
N131 C129 1.314 . S
N131 C130 1.279 . S
C132 C134 1.353 . S
C132 N135 1.314 . S
C132 H138 0.930 . S
C133 N135 1.279 . S
C133 C136 1.358 . S
C133 H139 0.930 . S
C134 C132 1.353 . S
C134 C137 1.348 . S
C134 H172 0.929 . S
N135 Li90 1.990 . S
N135 C132 1.314 . S
N135 C133 1.279 . S
C136 C133 1.358 . S
C136 C137 1.356 . S
C136 H173 0.930 . S
C137 C134 1.348 . S
C137 C136 1.356 . S
H138 C132 0.930 . S
H139 C133 0.930 . S
C140 N141 1.314 . S
C140 C142 1.353 . S
C140 H146 0.930 . S
N141 Li91 1.990 . S
N141 C140 1.314 . S
N141 C144 1.279 . S
C142 C140 1.353 . S
C142 C145 1.348 . S
C142 H174 0.929 . S
C143 C144 1.358 . S
C143 C145 1.356 . S
C143 H175 0.930 . S
C144 N141 1.279 . S
C144 C143 1.358 . S
C144 H147 0.930 . S
C145 C142 1.348 . S
C145 C143 1.356 . S
H146 C140 0.930 . S
H147 C144 0.930 . S
O148 Li88 1.956 . S
O148 Li89 1.970 . S
O148 Li90 1.961 . S
O148 C92 1.325 . S
O149 Li88 1.970 . S
O149 Li89 1.956 . S
O149 Li91 1.961 . S
O149 C98 1.325 . S
O150 Li88 1.961 . S
O150 Li90 1.956 . S
O150 Li91 1.970 . S
O150 C120 1.325 . S
O151 Li89 1.961 . S
O151 Li90 1.970 . S
O151 Li91 1.956 . S
O151 C126 1.325 . S
H152 C94 0.929 . S
H153 C95 0.930 . S
H154 C96 0.930 . S
H155 C97 0.930 . S
H156 C99 0.930 . S
H157 C101 0.929 . S
H158 C102 0.930 . S
H159 C103 0.930 . S
H160 C106 0.930 . S
H161 C109 0.929 . S
H162 C114 0.929 . S
H163 C115 0.930 . S
H164 C122 0.929 . S
H165 C123 0.930 . S
H166 C124 0.930 . S
H167 C125 0.930 . S
H168 C127 0.929 . S
H169 C128 0.930 . S
H170 C129 0.930 . S
H171 C130 0.930 . S
H172 C134 0.929 . S
H173 C136 0.930 . S
H174 C142 0.929 . S
H175 C143 0.930 . S
Li176 N193 1.990 . S
Li176 O236 1.956 . S
Li176 O237 1.970 . S
Li176 O238 1.961 . S
Li177 N201 1.990 . S
Li177 O236 1.970 . S
Li177 O237 1.956 . S
Li177 O239 1.961 . S
Li178 N223 1.990 . S
Li178 O236 1.961 . S
Li178 O238 1.956 . S
Li178 O239 1.970 . S
Li179 N229 1.990 . S
Li179 O237 1.961 . S
Li179 O238 1.970 . S
Li179 O239 1.956 . S
C180 C182 1.348 . S
C180 C183 1.356 . S
C180 O236 1.325 . S
N181 C184 1.314 . S
N181 C185 1.279 . S
C182 C180 1.348 . S
C182 C184 1.353 . S
C182 H240 0.929 . S
C183 C180 1.356 . S
C183 C185 1.358 . S
C183 H241 0.930 . S
C184 N181 1.314 . S
C184 C182 1.353 . S
C184 H242 0.930 . S
C185 N181 1.279 . S
C185 C183 1.358 . S
C185 H243 0.930 . S
C186 C189 1.348 . S
C186 C190 1.356 . S
C186 O237 1.325 . S
C187 N188 1.279 . S
C187 C190 1.358 . S
C187 H244 0.930 . S
N188 C187 1.279 . S
N188 C191 1.314 . S
C189 C186 1.348 . S
C189 C191 1.353 . S
C189 H245 0.929 . S
C190 C186 1.356 . S
C190 C187 1.358 . S
C190 H246 0.930 . S
C191 N188 1.314 . S
C191 C189 1.353 . S
C191 H247 0.930 . S
C192 N193 1.314 . S
C192 C197 1.353 . S
C192 H198 0.930 . S
N193 Li176 1.990 . S
N193 C192 1.314 . S
N193 C195 1.279 . S
C194 C195 1.358 . S
C194 C196 1.356 . S
C194 H248 0.930 . S
C195 N193 1.279 . S
C195 C194 1.358 . S
C195 H199 0.930 . S
C196 C194 1.356 . S
C196 C197 1.348 . S
C197 C192 1.353 . S
C197 C196 1.348 . S
C197 H249 0.929 . S
H198 C192 0.930 . S
H199 C195 0.930 . S
C200 N201 1.314 . S
C200 C202 1.353 . S
C200 H206 0.930 . S
N201 Li177 1.990 . S
N201 C200 1.314 . S
N201 C204 1.279 . S
C202 C200 1.353 . S
C202 C205 1.348 . S
C202 H250 0.929 . S
C203 C204 1.358 . S
C203 C205 1.356 . S
C203 H251 0.930 . S
C204 N201 1.279 . S
C204 C203 1.358 . S
C204 H207 0.930 . S
C205 C202 1.348 . S
C205 C203 1.356 . S
H206 C200 0.930 . S
H207 C204 0.930 . S
C208 C210 1.348 . S
C208 C211 1.356 . S
C208 O238 1.325 . S
N209 C212 1.314 . S
N209 C213 1.279 . S
C210 C208 1.348 . S
C210 C212 1.353 . S
C210 H252 0.929 . S
C211 C208 1.356 . S
C211 C213 1.358 . S
C211 H253 0.930 . S
C212 N209 1.314 . S
C212 C210 1.353 . S
C212 H254 0.930 . S
C213 N209 1.279 . S
C213 C211 1.358 . S
C213 H255 0.930 . S
C214 C215 1.348 . S
C214 C216 1.356 . S
C214 O239 1.325 . S
C215 C214 1.348 . S
C215 C217 1.353 . S
C215 H256 0.929 . S
C216 C214 1.356 . S
C216 C218 1.358 . S
C216 H257 0.930 . S
C217 C215 1.353 . S
C217 N219 1.314 . S
C217 H258 0.930 . S
C218 C216 1.358 . S
C218 N219 1.279 . S
C218 H259 0.930 . S
N219 C217 1.314 . S
N219 C218 1.279 . S
C220 C222 1.353 . S
C220 N223 1.314 . S
C220 H226 0.930 . S
C221 N223 1.279 . S
C221 C224 1.358 . S
C221 H227 0.930 . S
C222 C220 1.353 . S
C222 C225 1.348 . S
C222 H260 0.929 . S
N223 Li178 1.990 . S
N223 C220 1.314 . S
N223 C221 1.279 . S
C224 C221 1.358 . S
C224 C225 1.356 . S
C224 H261 0.930 . S
C225 C222 1.348 . S
C225 C224 1.356 . S
H226 C220 0.930 . S
H227 C221 0.930 . S
C228 N229 1.314 . S
C228 C230 1.353 . S
C228 H234 0.930 . S
N229 Li179 1.990 . S
N229 C228 1.314 . S
N229 C232 1.279 . S
C230 C228 1.353 . S
C230 C233 1.348 . S
C230 H262 0.929 . S
C231 C232 1.358 . S
C231 C233 1.356 . S
C231 H263 0.930 . S
C232 N229 1.279 . S
C232 C231 1.358 . S
C232 H235 0.930 . S
C233 C230 1.348 . S
C233 C231 1.356 . S
H234 C228 0.930 . S
H235 C232 0.930 . S
O236 Li176 1.956 . S
O236 Li177 1.970 . S
O236 Li178 1.961 . S
O236 C180 1.325 . S
O237 Li176 1.970 . S
O237 Li177 1.956 . S
O237 Li179 1.961 . S
O237 C186 1.325 . S
O238 Li176 1.961 . S
O238 Li178 1.956 . S
O238 Li179 1.970 . S
O238 C208 1.325 . S
O239 Li177 1.961 . S
O239 Li178 1.970 . S
O239 Li179 1.956 . S
O239 C214 1.325 . S
H240 C182 0.929 . S
H241 C183 0.930 . S
H242 C184 0.930 . S
H243 C185 0.930 . S
H244 C187 0.930 . S
H245 C189 0.929 . S
H246 C190 0.930 . S
H247 C191 0.930 . S
H248 C194 0.930 . S
H249 C197 0.929 . S
H250 C202 0.929 . S
H251 C203 0.930 . S
H252 C210 0.929 . S
H253 C211 0.930 . S
H254 C212 0.930 . S
H255 C213 0.930 . S
H256 C215 0.929 . S
H257 C216 0.930 . S
H258 C217 0.930 . S
H259 C218 0.930 . S
H260 C222 0.929 . S
H261 C224 0.930 . S
H262 C230 0.929 . S
H263 C231 0.930 . S
Li264 N281 1.990 . S
Li264 O324 1.956 . S
Li264 O325 1.970 . S
Li264 O326 1.961 . S
Li265 N289 1.990 . S
Li265 O324 1.970 . S
Li265 O325 1.956 . S
Li265 O327 1.961 . S
Li266 N311 1.990 . S
Li266 O324 1.961 . S
Li266 O326 1.956 . S
Li266 O327 1.970 . S
Li267 N317 1.990 . S
Li267 O325 1.961 . S
Li267 O326 1.970 . S
Li267 O327 1.956 . S
C268 C270 1.348 . S
C268 C271 1.356 . S
C268 O324 1.325 . S
N269 C272 1.314 . S
N269 C273 1.279 . S
C270 C268 1.348 . S
C270 C272 1.353 . S
C270 H328 0.929 . S
C271 C268 1.356 . S
C271 C273 1.358 . S
C271 H329 0.930 . S
C272 N269 1.314 . S
C272 C270 1.353 . S
C272 H330 0.930 . S
C273 N269 1.279 . S
C273 C271 1.358 . S
C273 H331 0.930 . S
C274 C277 1.348 . S
C274 C278 1.356 . S
C274 O325 1.325 . S
C275 N276 1.279 . S
C275 C278 1.358 1_554 S
C275 H332 0.930 . S
N276 C275 1.279 . S
N276 C279 1.314 . S
C277 C274 1.348 . S
C277 C279 1.353 1_556 S
C277 H333 0.929 . S
C278 C274 1.356 . S
C278 C275 1.358 1_556 S
C278 H334 0.930 . S
C279 N276 1.314 . S
C279 C277 1.353 1_554 S
C279 H335 0.930 . S
C280 N281 1.314 . S
C280 C285 1.353 . S
C280 H286 0.930 . S
N281 Li264 1.990 . S
N281 C280 1.314 . S
N281 C283 1.279 . S
C282 C283 1.358 . S
C282 C284 1.356 . S
C282 H336 0.930 . S
C283 N281 1.279 . S
C283 C282 1.358 . S
C283 H287 0.930 . S
C284 C282 1.356 . S
C284 C285 1.348 . S
C285 C280 1.353 . S
C285 C284 1.348 . S
C285 H337 0.929 . S
H286 C280 0.930 . S
H287 C283 0.930 . S
C288 N289 1.314 . S
C288 C290 1.353 . S
C288 H294 0.930 . S
N289 Li265 1.990 . S
N289 C288 1.314 . S
N289 C292 1.279 . S
C290 C288 1.353 . S
C290 C293 1.348 . S
C290 H338 0.929 . S
C291 C292 1.358 . S
C291 C293 1.356 . S
C291 H339 0.930 . S
C292 N289 1.279 . S
C292 C291 1.358 . S
C292 H295 0.930 . S
C293 C290 1.348 . S
C293 C291 1.356 . S
H294 C288 0.930 . S
H295 C292 0.930 . S
C296 C298 1.348 . S
C296 C299 1.356 . S
C296 O326 1.325 . S
N297 C300 1.314 . S
N297 C301 1.279 . S
C298 C296 1.348 . S
C298 C300 1.353 . S
C298 H340 0.929 . S
C299 C296 1.356 . S
C299 C301 1.358 . S
C299 H341 0.930 . S
C300 N297 1.314 . S
C300 C298 1.353 . S
C300 H342 0.930 . S
C301 N297 1.279 . S
C301 C299 1.358 . S
C301 H343 0.930 . S
C302 C303 1.348 . S
C302 C304 1.356 . S
C302 O327 1.325 . S
C303 C302 1.348 . S
C303 C305 1.353 . S
C303 H344 0.929 . S
C304 C302 1.356 . S
C304 C306 1.358 . S
C304 H345 0.930 . S
C305 C303 1.353 . S
C305 N307 1.314 . S
C305 H346 0.930 . S
C306 C304 1.358 . S
C306 N307 1.279 . S
C306 H347 0.930 . S
N307 C305 1.314 . S
N307 C306 1.279 . S
C308 C310 1.353 . S
C308 N311 1.314 . S
C308 H314 0.930 . S
C309 N311 1.279 . S
C309 C312 1.358 . S
C309 H315 0.930 . S
C310 C308 1.353 . S
C310 C313 1.348 . S
C310 H348 0.929 . S
N311 Li266 1.990 . S
N311 C308 1.314 . S
N311 C309 1.279 . S
C312 C309 1.358 . S
C312 C313 1.356 . S
C312 H349 0.930 . S
C313 C310 1.348 . S
C313 C312 1.356 . S
H314 C308 0.930 . S
H315 C309 0.930 . S
C316 N317 1.314 . S
C316 C318 1.353 . S
C316 H322 0.930 . S
N317 Li267 1.990 . S
N317 C316 1.314 . S
N317 C320 1.279 . S
C318 C316 1.353 . S
C318 C321 1.348 . S
C318 H350 0.929 . S
C319 C320 1.358 . S
C319 C321 1.356 . S
C319 H351 0.930 . S
C320 N317 1.279 . S
C320 C319 1.358 . S
C320 H323 0.930 . S
C321 C318 1.348 . S
C321 C319 1.356 . S
H322 C316 0.930 . S
H323 C320 0.930 . S
O324 Li264 1.956 . S
O324 Li265 1.970 . S
O324 Li266 1.961 . S
O324 C268 1.325 . S
O325 Li264 1.970 . S
O325 Li265 1.956 . S
O325 Li267 1.961 . S
O325 C274 1.325 . S
O326 Li264 1.961 . S
O326 Li266 1.956 . S
O326 Li267 1.970 . S
O326 C296 1.325 . S
O327 Li265 1.961 . S
O327 Li266 1.970 . S
O327 Li267 1.956 . S
O327 C302 1.325 . S
H328 C270 0.929 . S
H329 C271 0.930 . S
H330 C272 0.930 . S
H331 C273 0.930 . S
H332 C275 0.930 . S
H333 C277 0.929 . S
H334 C278 0.930 . S
H335 C279 0.930 . S
H336 C282 0.930 . S
H337 C285 0.929 . S
H338 C290 0.929 . S
H339 C291 0.930 . S
H340 C298 0.929 . S
H341 C299 0.930 . S
H342 C300 0.930 . S
H343 C301 0.930 . S
H344 C303 0.929 . S
H345 C304 0.930 . S
H346 C305 0.930 . S
H347 C306 0.930 . S
H348 C310 0.929 . S
H349 C312 0.930 . S
H350 C318 0.929 . S
H351 C319 0.930 . S
C352 C353 1.386 . S
C352 C354 1.383 . S
C352 H368 0.951 . S
C353 C352 1.386 . S
C353 C357 1.383 . S
C354 C352 1.383 . S
C354 C355 1.402 . S
C354 H369 0.951 . S
C355 C354 1.402 . S
C355 C356 1.375 . S
C355 C358 1.481 . S
C356 C355 1.375 . S
C356 C357 1.367 . S
C356 H370 0.951 . S
C357 C353 1.383 . S
C357 C356 1.367 . S
C357 H371 0.950 . S
C358 C355 1.481 . S
C358 C359 1.297 . S
C358 H372 0.950 . S
C359 C358 1.297 . S
C359 C360 1.479 . S
C359 H373 0.950 . S
C360 C359 1.479 . S
C360 C361 1.375 . S
C360 C366 1.404 . S
C361 C360 1.375 . S
C361 C362 1.369 . S
C361 H374 0.950 . S
C362 C361 1.369 . S
C362 C363 1.392 . S
C362 H375 0.951 . S
C363 C362 1.392 . S
C363 C365 1.384 . S
H364 C366 0.949 . S
C365 C363 1.384 . S
C365 C366 1.385 . S
C365 H367 0.950 . S
C366 C360 1.404 . S
C366 H364 0.949 . S
C366 C365 1.385 . S
H367 C365 0.950 . S
H368 C352 0.951 . S
H369 C354 0.951 . S
H370 C356 0.951 . S
H371 C357 0.950 . S
H372 C358 0.950 . S
H373 C359 0.950 . S
H374 C361 0.950 . S
H375 C362 0.951 . S
C376 C377 1.386 . S
C376 C378 1.383 . S
C376 H392 0.951 . S
C377 C376 1.386 . S
C377 C381 1.383 . S
C378 C376 1.383 . S
C378 C379 1.402 . S
C378 H393 0.951 . S
C379 C378 1.402 . S
C379 C380 1.375 . S
C379 C382 1.481 . S
C380 C379 1.375 . S
C380 C381 1.367 . S
C380 H394 0.951 . S
C381 C377 1.383 . S
C381 C380 1.367 . S
C381 H395 0.950 . S
C382 C379 1.481 . S
C382 C383 1.297 . S
C382 H396 0.950 . S
C383 C382 1.297 . S
C383 C384 1.479 . S
C383 H397 0.950 . S
C384 C383 1.479 . S
C384 C385 1.375 . S
C384 C390 1.404 . S
C385 C384 1.375 . S
C385 C386 1.369 . S
C385 H398 0.950 . S
C386 C385 1.369 . S
C386 C387 1.392 . S
C386 H399 0.951 . S
C387 C386 1.392 . S
C387 C389 1.384 . S
H388 C390 0.949 . S
C389 C387 1.384 . S
C389 C390 1.385 . S
C389 H391 0.950 . S
C390 C384 1.404 . S
C390 H388 0.949 . S
C390 C389 1.385 . S
H391 C389 0.950 . S
H392 C376 0.951 . S
H393 C378 0.951 . S
H394 C380 0.951 . S
H395 C381 0.950 . S
H396 C382 0.950 . S
H397 C383 0.950 . S
H398 C385 0.950 . S
H399 C386 0.951 . S
C400 C401 1.386 . S
C400 C402 1.383 . S
C400 H416 0.951 . S
C401 C400 1.386 . S
C401 C405 1.383 . S
C402 C400 1.383 . S
C402 C403 1.402 . S
C402 H417 0.951 . S
C403 C402 1.402 . S
C403 C404 1.375 . S
C403 C406 1.481 . S
C404 C403 1.375 . S
C404 C405 1.367 . S
C404 H418 0.951 . S
C405 C401 1.383 . S
C405 C404 1.367 . S
C405 H419 0.950 . S
C406 C403 1.481 . S
C406 C407 1.297 . S
C406 H420 0.950 . S
C407 C406 1.297 . S
C407 C408 1.479 1_554 S
C407 H421 0.950 . S
C408 C407 1.479 1_556 S
C408 C409 1.375 . S
C408 C414 1.404 . S
C409 C408 1.375 . S
C409 C410 1.369 . S
C409 H422 0.950 . S
C410 C409 1.369 . S
C410 C411 1.392 . S
C410 H423 0.951 . S
C411 C410 1.392 . S
C411 C413 1.384 . S
H412 C414 0.949 . S
C413 C411 1.384 . S
C413 C414 1.385 . S
C413 H415 0.950 . S
C414 C408 1.404 . S
C414 H412 0.949 . S
C414 C413 1.385 . S
H415 C413 0.950 . S
H416 C400 0.951 . S
H417 C402 0.951 . S
H418 C404 0.951 . S
H419 C405 0.950 . S
H420 C406 0.950 . S
H421 C407 0.950 . S
H422 C409 0.950 . S
H423 C410 0.951 . S
C424 C425 1.386 . S
C424 C426 1.383 . S
C424 H440 0.951 . S
C425 C424 1.386 . S
C425 C429 1.383 . S
C426 C424 1.383 . S
C426 C427 1.402 . S
C426 H441 0.951 . S
C427 C426 1.402 . S
C427 C428 1.375 . S
C427 C430 1.481 . S
C428 C427 1.375 . S
C428 C429 1.367 . S
C428 H442 0.951 . S
C429 C425 1.383 . S
C429 C428 1.367 . S
C429 H443 0.950 . S
C430 C427 1.481 . S
C430 C431 1.297 1_455 S
C430 H444 0.950 1_455 S
C431 C430 1.297 1_655 S
C431 C432 1.479 . S
C431 H445 0.950 1_655 S
C432 C431 1.479 . S
C432 C433 1.375 . S
C432 C438 1.404 . S
C433 C432 1.375 . S
C433 C434 1.369 . S
C433 H446 0.950 . S
C434 C433 1.369 . S
C434 C435 1.392 . S
C434 H447 0.951 . S
C435 C434 1.392 . S
C435 C437 1.384 . S
H436 C438 0.949 . S
C437 C435 1.384 . S
C437 C438 1.385 . S
C437 H439 0.950 . S
C438 C432 1.404 . S
C438 H436 0.949 . S
C438 C437 1.385 . S
H439 C437 0.950 . S
H440 C424 0.951 . S
H441 C426 0.951 . S
H442 C428 0.951 . S
H443 C429 0.950 . S
H444 C430 0.950 1_655 S
H445 C431 0.950 1_455 S
H446 C433 0.950 . S
H447 C434 0.951 . S
C448 C449 1.386 . S
C448 C450 1.383 . S
C448 H464 0.951 . S
C449 C448 1.386 . S
C449 C453 1.383 . S
C450 C448 1.383 . S
C450 C451 1.402 . S
C450 H465 0.951 1_556 S
C451 C450 1.402 . S
C451 C452 1.375 . S
C451 C454 1.481 . S
C452 C451 1.375 . S
C452 C453 1.367 . S
C452 H466 0.951 . S
C453 C449 1.383 . S
C453 C452 1.367 . S
C453 H467 0.950 . S
C454 C451 1.481 . S
C454 C455 1.327 1_545 S
C454 H468 0.950 1_545 S
C455 C454 1.327 1_565 S
C455 C456 1.467 1_556 S
C455 H469 0.940 1_556 S
C456 C455 1.467 1_554 S
C456 C457 1.375 . S
C456 C462 1.404 1_554 S
C457 C456 1.375 . S
C457 C458 1.369 . S
C457 H470 0.950 . S
C458 C457 1.369 . S
C458 C459 1.392 . S
C458 H471 0.951 . S
C459 C458 1.392 . S
C459 C461 1.384 . S
H460 C462 0.949 . S
C461 C459 1.384 . S
C461 C462 1.385 1_554 S
C461 H463 0.950 1_554 S
C462 C456 1.404 1_556 S
C462 H460 0.949 . S
C462 C461 1.385 1_556 S
H463 C461 0.950 1_556 S
H464 C448 0.951 . S
H465 C450 0.951 1_554 S
H466 C452 0.951 . S
H467 C453 0.950 . S
H468 C454 0.950 1_565 S
H469 C455 0.940 1_554 S
H470 C457 0.950 . S
H471 C458 0.951 . S
C472 C473 1.386 . S
C472 C474 1.383 . S
C472 H488 0.951 . S
C473 C472 1.386 . S
C473 C477 1.383 . S
C474 C472 1.383 . S
C474 C475 1.402 . S
C474 H489 0.951 . S
C475 C474 1.402 . S
C475 C476 1.375 . S
C475 C478 1.481 . S
C476 C475 1.375 . S
C476 C477 1.367 . S
C476 H490 0.951 . S
C477 C473 1.383 . S
C477 C476 1.367 . S
C477 H491 0.950 . S
C478 C475 1.481 . S
C478 C479 1.297 . S
C478 H492 0.950 . S
C479 C478 1.297 . S
C479 C480 1.479 . S
C479 H493 0.950 . S
C480 C479 1.479 . S
C480 C481 1.375 . S
C480 C486 1.404 . S
C481 C480 1.375 . S
C481 C482 1.369 . S
C481 H494 0.950 . S
C482 C481 1.369 . S
C482 C483 1.392 . S
C482 H495 0.951 . S
C483 C482 1.392 . S
C483 C485 1.384 . S
H484 C486 0.949 . S
C485 C483 1.384 . S
C485 C486 1.385 . S
C485 H487 0.950 . S
C486 C480 1.404 . S
C486 H484 0.949 . S
C486 C485 1.385 . S
H487 C485 0.950 . S
H488 C472 0.951 . S
H489 C474 0.951 . S
H490 C476 0.951 . S
H491 C477 0.950 . S
H492 C478 0.950 . S
H493 C479 0.950 . S
H494 C481 0.950 . S
H495 C482 0.951 . S
C496 C497 1.386 . S
C496 C498 1.383 . S
C496 H512 0.951 . S
C497 C496 1.386 . S
C497 C501 1.383 . S
C498 C496 1.383 . S
C498 C499 1.402 . S
C498 H513 0.951 . S
C499 C498 1.402 . S
C499 C500 1.375 . S
C499 C502 1.481 1_554 S
C500 C499 1.375 . S
C500 C501 1.367 . S
C500 H514 0.951 1_554 S
C501 C497 1.383 . S
C501 C500 1.367 . S
C501 H515 0.950 . S
C502 C499 1.481 1_556 S
C502 C503 1.297 1_455 S
C502 H516 0.950 . S
C503 C502 1.297 1_655 S
C503 C504 1.479 . S
C503 H517 0.950 . S
C504 C503 1.479 . S
C504 C505 1.375 . S
C504 C510 1.404 . S
C505 C504 1.375 . S
C505 C506 1.369 . S
C505 H518 0.950 . S
C506 C505 1.369 . S
C506 C507 1.392 . S
C506 H519 0.951 . S
C507 C506 1.392 . S
C507 C509 1.384 . S
H508 C510 0.949 . S
C509 C507 1.384 . S
C509 C510 1.385 . S
C509 H511 0.950 . S
C510 C504 1.404 . S
C510 H508 0.949 . S
C510 C509 1.385 . S
H511 C509 0.950 . S
H512 C496 0.951 . S
H513 C498 0.951 . S
H514 C500 0.951 1_556 S
H515 C501 0.950 . S
H516 C502 0.950 . S
H517 C503 0.950 . S
H518 C505 0.950 . S
H519 C506 0.951 . S
C520 C521 1.386 . S
C520 C522 1.383 . S
C520 H536 0.951 . S
C521 C520 1.386 . S
C521 C525 1.383 . S
C522 C520 1.383 . S
C522 C523 1.402 . S
C522 H537 0.951 . S
C523 C522 1.402 . S
C523 C524 1.375 . S
C523 C526 1.481 . S
C524 C523 1.375 . S
C524 C525 1.367 . S
C524 H538 0.951 . S
C525 C521 1.383 . S
C525 C524 1.367 . S
C525 H539 0.950 . S
C526 C523 1.481 . S
C526 C527 1.297 1_545 S
C526 H540 0.950 1_545 S
C527 C526 1.297 1_565 S
C527 C528 1.479 . S
C527 H541 0.951 . S
C528 C527 1.479 . S
C528 C529 1.375 . S
C528 C534 1.404 . S
C529 C528 1.375 . S
C529 C530 1.369 . S
C529 H542 0.950 . S
C530 C529 1.369 . S
C530 C531 1.392 . S
C530 H543 0.951 . S
C531 C530 1.392 . S
C531 C533 1.384 . S
H532 C534 0.949 . S
C533 C531 1.384 . S
C533 C534 1.385 . S
C533 H535 0.950 . S
C534 C528 1.404 . S
C534 H532 0.949 . S
C534 C533 1.385 . S
H535 C533 0.950 . S
H536 C520 0.951 . S
H537 C522 0.951 . S
H538 C524 0.951 . S
H539 C525 0.950 . S
H540 C526 0.950 1_565 S
H541 C527 0.951 . S
H542 C529 0.950 . S
H543 C530 0.951 . S
C353 C20 1.498 . S
C363 C205 1.490 . S
C377 C145 1.495 . S
C387 C313 1.487 . S
C401 C29 1.488 . S
C411 C293 1.478 . S
C425 C225 1.503 . S
C435 C117 1.493 . S
C449 C284 1.507 . S
C459 C49 1.503 . S
C473 C108 1.503 . S
C483 C233 1.497 . S
C497 C57 1.487 . S
C507 C321 1.480 . S
C521 C137 1.483 . S
C531 C196 1.478 . S
