# Generated by pormake.
# Topology bsn, (6)-cn, num edge types: 1
# Building blocks:
#     Node 0, Type 0, BuildingBlock: PAMTOO_clean_sbu_0, # of connection points: 6
#     Node 1, Type 0, BuildingBlock: PAMTOO_clean_sbu_0, # of connection points: 6
#     Node 2, Type 0, BuildingBlock: PAMTOO_clean_sbu_0, # of connection points: 6
#     Node 3, Type 0, BuildingBlock: PAMTOO_clean_sbu_0, # of connection points: 6
#     Edge 4, Type (0, 0), BuildingBlock: FUNLAD_clean_linker_0, # of connection points: 2
#     Edge 5, Type (0, 0), BuildingBlock: FUNLAD_clean_linker_0, # of connection points: 2
#     Edge 6, Type (0, 0), BuildingBlock: FUNLAD_clean_linker_0, # of connection points: 2
#     Edge 7, Type (0, 0), BuildingBlock: FUNLAD_clean_linker_0, # of connection points: 2
#     Edge 8, Type (0, 0), BuildingBlock: FUNLAD_clean_linker_0, # of connection points: 2
#     Edge 9, Type (0, 0), BuildingBlock: FUNLAD_clean_linker_0, # of connection points: 2
#     Edge 10, Type (0, 0), BuildingBlock: FUNLAD_clean_linker_0, # of connection points: 2
#     Edge 11, Type (0, 0), BuildingBlock: FUNLAD_clean_linker_0, # of connection points: 2
#     Edge 12, Type (0, 0), BuildingBlock: FUNLAD_clean_linker_0, # of connection points: 2
#     Edge 13, Type (0, 0), BuildingBlock: FUNLAD_clean_linker_0, # of connection points: 2
#     Edge 14, Type (0, 0), BuildingBlock: FUNLAD_clean_linker_0, # of connection points: 2
#     Edge 15, Type (0, 0), BuildingBlock: FUNLAD_clean_linker_0, # of connection points: 2
# Relax obj value: 0.041
# Max RMSD: 0.150
# Mean RMSD: 0.150
data_MOF--net-bsn--node1-PAMTOO_clean_sbu_0--edge1-FUNLAD_clean_linker_0
_symmetry_space_group_name_H-M    P1
_symmetry_Int_Tables_number       1
_symmetry_cell_setting            triclinic
loop_
_symmetry_equiv_pos_as_xyz
'x, y, z'
_cell_length_a     55.88674
_cell_length_b     34.220815
_cell_length_c     16.753613
_cell_angle_alpha  84.155674
_cell_angle_beta   97.307877
_cell_angle_gamma 118.16468
loop_
_atom_site_label
_atom_site_type_symbol
_atom_site_fract_x
_atom_site_fract_y
_atom_site_fract_z
_atom_type_partial_charge
Dy0 Dy 0.10199 0.29073 0.32672 0.0
Dy1 Dy 0.03359 0.24476 0.31405 0.0
C2 C 0.06683 0.26468 0.16729 0.0
O3 O 0.09174 0.34061 0.36914 0.0
O4 O 0.04989 0.31801 0.29778 0.0
O5 O 0.1368 0.31587 0.25797 0.0
O6 O 0.14286 0.32096 0.38743 0.0
O7 O 0.0488 0.25552 0.44338 0.0
O8 O 0.08945 0.25359 0.44278 0.0
O9 O 0.04227 0.18742 0.33934 0.0
O10 O 0.08751 0.21817 0.31202 0.0
O11 O 0.99447 0.21122 0.36362 0.0
O12 O 0.99686 0.22942 0.23589 0.0
C13 C 0.07076 0.34723 0.34138 0.0
O14 O 0.08396 0.30014 0.20527 0.0
O15 O 0.04699 0.23308 0.20456 0.0
C16 C 0.17567 0.31261 0.32316 0.0
C17 C 0.2164 0.28743 0.30867 0.0
C18 C 0.18915 0.2551 0.31633 0.0
C19 C 0.16898 0.26759 0.32338 0.0
C20 C 0.20283 0.34486 0.31784 0.0
C21 C 0.223 0.33247 0.31073 0.0
C22 C 0.1544 0.32669 0.32121 0.0
C23 C 0.06886 0.2487 0.48003 0.0
C24 C 0.06402 0.18374 0.32804 0.0
C25 C 0.95909 0.22429 0.29299 0.0
C26 C 0.91648 0.24745 0.27827 0.0
C27 C 0.94255 0.27644 0.31314 0.0
C28 C 0.96379 0.26502 0.32007 0.0
C29 C 0.93306 0.19508 0.25986 0.0
C30 C 0.91196 0.20648 0.25254 0.0
C31 C 0.98104 0.21207 0.29434 0.0
H32 H 0.18334 0.22011 0.31609 0.0
H33 H 0.14807 0.24218 0.32713 0.0
H34 H 0.20835 0.3798 0.31679 0.0
H35 H 0.24359 0.35834 0.30386 0.0
H36 H 0.94668 0.30834 0.33307 0.0
H37 H 0.98388 0.28813 0.34531 0.0
H38 H 0.92911 0.16354 0.23855 0.0
H39 H 0.89205 0.18315 0.22661 0.0
Dy40 Dy 0.09646 0.77483 0.57319 0.0
Dy41 Dy 1.02843 0.72234 0.5877 0.0
C42 C 0.05393 0.72989 0.42712 0.0
O43 O 0.08388 0.82571 0.5922 0.0
O44 O 0.03995 0.79087 0.53516 0.0
O45 O 0.13072 0.79094 0.50596 0.0
O46 O 0.13687 0.82225 0.61829 0.0
O47 O 0.05108 0.75043 0.70435 0.0
O48 O 0.08939 0.7437 0.69534 0.0
O49 O 0.03979 0.66688 0.59853 0.0
O50 O 0.08578 0.70345 0.57602 0.0
O51 O 0.99439 0.68429 0.6594 0.0
O52 O 0.98763 0.70745 0.53745 0.0
C53 C 0.06213 0.82717 0.55568 0.0
O54 O 0.07412 0.7676 0.45161 0.0
O55 O 0.035 0.70332 0.47357 0.0
C56 C 0.17206 0.80872 0.58566 0.0
C57 C 0.21786 0.79469 0.63217 0.0
C58 C 0.2199 0.8305 0.57898 0.0
C59 C 0.1972 0.83743 0.55603 0.0
C60 C 0.16976 0.77277 0.63837 0.0
C61 C 0.19249 0.76586 0.66159 0.0
C62 C 0.14845 0.81656 0.56065 0.0
C63 C 0.0714 0.74364 0.73806 0.0
C64 C 0.06298 0.66709 0.58867 0.0
C65 C 0.9569 0.69972 0.62984 0.0
C66 C 0.91788 0.72216 0.67461 0.0
C67 C 0.94599 0.74965 0.69308 0.0
C68 C 0.96533 0.73858 0.6707 0.0
C69 C 0.92899 0.67217 0.61177 0.0
C70 C 0.90969 0.68321 0.63385 0.0
C71 C 0.97669 0.6876 0.6039 0.0
H72 H 0.23917 0.85362 0.55598 0.0
H73 H 0.1993 0.86534 0.51525 0.0
H74 H 0.1504 0.75009 0.66143 0.0
H75 H 0.19012 0.73766 0.70181 0.0
H76 H 0.95308 0.78012 0.72359 0.0
H77 H 0.98683 0.76045 0.68475 0.0
H78 H 0.92208 0.64203 0.58028 0.0
H79 H 0.88828 0.66092 0.61963 0.0
Dy80 Dy 0.61424 0.80051 0.84965 0.0
Dy81 Dy 0.54746 0.75856 0.87297 0.0
C82 C 0.57033 0.76936 0.70775 0.0
O83 O 0.60701 0.85528 0.88533 0.0
O84 O 0.56292 0.82904 0.82945 0.0
O85 O 0.64289 0.8115 0.76463 0.0
O86 O 0.65769 0.83805 0.88323 0.0
O87 O 0.57081 0.77711 -0.00682 0.0
O88 O 0.61111 0.77652 -0.02238 0.0
O89 O 0.55808 0.70504 0.91821 0.0
O90 O 0.5962 0.72612 0.85016 0.0
O91 O 0.51577 0.75931 0.93326 0.0
O92 O 0.50519 0.71337 0.83937 0.0
C93 C 0.58543 0.86105 0.86175 0.0
O94 O 0.59008 0.80565 0.73751 0.0
O95 O 0.5521 0.74091 0.75418 0.0
C96 C 0.686 0.81921 0.81754 0.0
C97 C 0.72733 0.79512 0.80459 0.0
C98 C 0.70091 0.76265 0.82155 0.0
C99 C 0.68043 0.77458 0.8279 0.0
C100 C 0.71241 0.85174 0.80293 0.0
C101 C 0.73287 0.8399 0.79655 0.0
C102 C 0.66422 0.83224 0.81487 0.0
C103 C 0.59294 0.77424 0.0229 0.0
C104 C 0.57635 0.69666 0.8923 0.0
C105 C 0.47327 0.73787 0.85805 0.0
C106 C 0.42892 0.75465 0.80368 0.0
C107 C 0.42609 0.72081 0.86277 0.0
C108 C 0.44806 0.71255 0.88962 0.0
C109 C 0.47632 0.77156 0.79877 0.0
C110 C 0.45428 0.77982 0.77161 0.0
C111 C 0.49613 0.72904 0.88928 0.0
H112 H 0.69596 0.72793 0.82921 0.0
H113 H 0.66013 0.74891 0.8391 0.0
H114 H 0.71705 0.88633 0.79407 0.0
H115 H 0.75277 0.86579 0.78237 0.0
H116 H 0.40679 0.70038 0.88787 0.0
H117 H 0.44537 0.6864 0.93539 0.0
H118 H 0.49575 0.79158 0.77406 0.0
H119 H 0.45721 0.80638 0.72661 0.0
Dy120 Dy 0.58513 0.27045 0.0782 0.0
Dy121 Dy 0.5172 0.21585 0.09101 0.0
C122 C 0.54336 0.22759 0.92977 0.0
O123 O 0.57144 0.319 0.10294 0.0
O124 O 0.52815 0.28476 0.04175 0.0
O125 O 0.61997 0.29054 0.01128 0.0
O126 O 0.62509 0.31738 0.1277 0.0
O127 O 0.53944 0.24183 0.2093 0.0
O128 O 0.5779 0.23608 0.19783 0.0
O129 O 0.52936 0.16137 0.098 0.0
O130 O 0.57516 0.19975 0.07375 0.0
O131 O 0.48309 0.1761 0.16153 0.0
O132 O 0.47632 0.20019 0.04036 0.0
C133 C 0.54996 0.32081 0.06518 0.0
O134 O 0.56315 0.26517 0.9563 0.0
O135 O 0.5245 0.19968 -0.02471 0.0
C136 C 0.66103 0.30696 0.09168 0.0
C137 C 0.70713 0.29311 0.13222 0.0
C138 C 0.68072 0.25828 0.14177 0.0
C139 C 0.65786 0.26517 0.12173 0.0
C140 C 0.68723 0.34185 0.08278 0.0
C141 C 0.71009 0.33505 0.10286 0.0
C142 C 0.63723 0.31451 0.06861 0.0
C143 C 0.55984 0.23488 0.24165 0.0
C144 C 0.55267 0.16268 0.08561 0.0
C145 C 0.44542 0.19116 0.13306 0.0
C146 C 0.40629 0.21293 0.17904 0.0
C147 C 0.43417 0.23807 0.20426 0.0
C148 C 0.45358 0.22736 0.18125 0.0
C149 C 0.41771 0.16594 0.10821 0.0
C150 C 0.39835 0.17666 0.13088 0.0
C151 C 0.46536 0.17961 0.10637 0.0
H152 H 0.67772 0.22574 0.16508 0.0
H153 H 0.63773 0.23788 0.12929 0.0
H154 H 0.69 0.37431 0.05953 0.0
H155 H 0.73004 0.36242 0.09369 0.0
H156 H 0.44106 0.26649 0.2406 0.0
H157 H 0.47492 0.24747 0.20057 0.0
H158 H 0.41102 0.1379 0.07095 0.0
H159 H 0.37708 0.1562 0.11125 0.0
C160 C 0.08942 0.41609 0.41951 0.0
C161 C 0.06915 0.38638 0.36549 0.0
C162 C 0.08639 0.45032 0.44846 0.0
C163 C 0.06288 0.45542 0.42427 0.0
C164 C 0.04315 0.42665 0.36816 0.0
C165 C 0.04615 0.39248 0.33933 0.0
C166 C 0.05834 0.49072 0.4541 0.0
C167 C 0.07119 0.51234 0.52194 0.0
C168 C 0.06745 0.54937 0.54693 0.0
C169 C 0.08984 0.58485 0.58494 0.0
C170 C 0.08794 0.6223 0.60216 0.0
C171 C 0.06338 0.62459 0.58347 0.0
H172 H 1.02452 0.52313 0.50507 0.0
C173 C 0.04039 0.58784 0.55057 0.0
C174 C 0.04242 0.55058 0.53203 0.0
H175 H 1.02122 0.58875 0.53539 0.0
H176 H 0.10746 0.41252 0.44062 0.0
H177 H 0.10262 0.47264 0.48928 0.0
H178 H 1.02501 0.43006 0.34757 0.0
H179 H 0.0301 0.37031 0.29768 0.0
H180 H 0.04367 0.49917 0.41816 0.0
H181 H 0.08615 0.50483 0.55823 0.0
H182 H 0.10923 0.58447 0.59805 0.0
H183 H 0.10597 0.65006 0.62802 0.0
C184 C 0.77626 0.80892 0.81787 0.0
C185 C 0.74868 0.78239 0.79141 0.0
C186 C 0.79644 0.79839 0.80107 0.0
C187 C 0.78955 0.76075 0.75764 0.0
C188 C 0.76195 0.73407 0.73207 0.0
C189 C 0.74182 0.74462 0.74877 0.0
C190 C 0.81027 0.74901 0.7343 0.0
C191 C 0.83647 0.76611 0.76638 0.0
C192 C 0.85692 0.75433 0.74115 0.0
C193 C 0.88028 0.76189 0.79354 0.0
C194 C 0.90008 0.75172 0.77206 0.0
C195 C 0.89712 0.7339 0.69724 0.0
H196 H 0.83716 0.73242 0.62189 0.0
C197 C 0.87397 0.72704 0.64418 0.0
C198 C 0.8542 0.73725 0.66558 0.0
H199 H 0.87131 0.71437 0.58527 0.0
H200 H 0.78233 0.83809 0.85137 0.0
H201 H 0.81737 0.82054 0.82084 0.0
H202 H 0.75591 0.70508 0.698 0.0
H203 H 0.72092 0.72378 0.72612 0.0
H204 H 0.80316 0.72403 0.68983 0.0
H205 H 0.84323 0.78843 0.81534 0.0
H206 H 0.88314 0.77535 0.85183 0.0
H207 H 0.91751 0.75718 0.81474 0.0
C208 C 0.57308 0.40306 0.0756 0.0
C209 C 0.55169 0.36474 0.04151 0.0
C210 C 0.57632 0.445 0.04817 0.0
C211 C 0.55827 0.44947 -0.01414 0.0
C212 C 0.53686 0.41124 0.95195 0.0
C213 C 0.53341 0.36919 -0.01996 0.0
C214 C 0.56176 0.49364 0.95407 0.0
C215 C 0.5713 0.5282 0.00154 0.0
C216 C 0.57314 0.57153 0.97164 0.0
C217 C 0.56643 0.59458 0.02169 0.0
C218 C 0.56736 0.63512 -0.0049 0.0
C219 C 0.57577 0.65398 0.91874 0.0
H220 H 0.58765 0.57365 0.85629 0.0
C221 C 0.58342 0.63177 0.86941 0.0
C222 C 0.58181 0.59046 0.89533 0.0
H223 H 0.59012 0.6459 0.81051 0.0
H224 H 0.58762 0.40075 0.12265 0.0
H225 H 0.59343 0.47387 0.07436 0.0
H226 H 0.52277 0.41391 0.90363 0.0
H227 H 0.5169 0.3403 0.95194 0.0
H228 H 0.55461 0.49699 0.89154 0.0
H229 H 0.57565 0.52361 0.0659 0.0
H230 H 0.55997 0.58079 0.08098 0.0
H231 H 0.56178 0.652 0.03481 0.0
C232 C 0.87705 0.2511 0.19446 0.0
C233 C 0.89399 0.2597 0.26697 0.0
C234 C 0.85497 0.26024 0.18446 0.0
C235 C 0.84908 0.27786 0.2472 0.0
C236 C 0.86659 0.28797 0.31863 0.0
C237 C 0.8888 0.27892 0.32855 0.0
C238 C 0.8252 0.28676 0.23932 0.0
C239 C 0.80248 0.26425 0.19019 0.0
C240 C 0.77819 0.27217 0.17994 0.0
C241 C 0.75372 0.23989 0.14283 0.0
C242 C 0.73063 0.24637 0.12854 0.0
C243 C 0.73144 0.28553 0.15063 0.0
H244 H 0.7975 0.33761 0.22956 0.0
C245 C 0.75587 0.31784 0.18814 0.0
C246 C 0.77901 0.31136 0.20248 0.0
H247 H 0.75715 0.34829 0.20639 0.0
H248 H 0.88096 0.23744 0.14502 0.0
H249 H 0.8428 0.25382 0.1271 0.0
H250 H 0.86278 0.3021 0.36756 0.0
H251 H 0.90147 0.28591 0.38514 0.0
H252 H 0.82605 0.31098 0.27812 0.0
H253 H 0.80101 0.23737 0.15723 0.0
H254 H 0.75249 0.20955 0.12407 0.0
H255 H 0.71233 0.2211 0.09834 0.0
C256 C 0.36385 0.22202 0.14649 0.0
C257 C 0.3855 0.22438 0.20232 0.0
C258 C 0.34404 0.232 0.16832 0.0
C259 C 0.34521 0.24429 0.24704 0.0
C260 C 0.36711 0.24738 0.30235 0.0
C261 C 0.38696 0.23748 0.28044 0.0
C262 C 0.32463 0.25556 0.27296 0.0
C263 C 0.29923 0.24177 0.2358 0.0
C264 C 0.27839 0.25308 0.25973 0.0
C265 C 0.25131 0.22962 0.22638 0.0
C266 C 0.23119 0.24009 0.24355 0.0
C267 C 0.23758 0.27455 0.29455 0.0
H268 H 0.30536 0.30704 0.33756 0.0
C269 C 0.26462 0.29781 0.32874 0.0
C270 C 0.2848 0.28737 0.31145 0.0
H271 H 0.2703 0.32434 0.36875 0.0
H272 H 0.36241 0.21309 0.08523 0.0
H273 H 0.32822 0.23079 0.12264 0.0
H274 H 0.36877 0.25712 0.36317 0.0
H275 H 0.40322 0.23939 0.32521 0.0
H276 H 0.33056 0.27452 0.3265 0.0
H277 H 0.29282 0.21992 0.18615 0.0
H278 H 0.24568 0.20328 0.18588 0.0
H279 H 0.21076 0.22191 0.21487 0.0
C280 C 0.38837 0.76255 0.83208 0.0
C281 C 0.40544 0.76349 0.77626 0.0
C282 C 0.36579 0.76946 0.80656 0.0
C283 C 0.35959 0.7772 0.72425 0.0
C284 C 0.37704 0.77924 0.66873 0.0
C285 C 0.39966 0.77233 0.69431 0.0
C286 C 0.33562 0.78442 0.69428 0.0
C287 C 0.31309 0.769 0.73415 0.0
C288 C 0.28894 0.77598 0.70548 0.0
C289 C 0.27047 0.7696 0.76121 0.0
C290 C 0.24743 0.77548 0.73752 0.0
C291 C 0.24216 0.78772 0.65718 0.0
H292 H 0.2965 0.79148 0.57891 0.0
C293 C 0.26041 0.79356 0.60102 0.0
C294 C 0.28346 0.78763 0.62467 0.0
H295 H 0.25665 0.8021 0.53829 0.0
H296 H 0.39263 0.75695 0.8959 0.0
H297 H 0.35362 0.76941 0.85189 0.0
H298 H 0.37295 0.78555 0.60507 0.0
H299 H 0.41229 0.77306 0.64965 0.0
H300 H 0.33669 0.80251 0.63671 0.0
H301 H 0.31213 0.75053 0.79131 0.0
H302 H 0.27401 0.7604 0.82374 0.0
H303 H 0.23396 0.77111 0.78254 0.0
C304 C 0.56036 0.90441 0.8713 0.0
C305 C 0.58499 0.90189 0.88152 0.0
C306 C 0.55886 0.94014 0.89945 0.0
C307 C 0.58199 0.97424 0.93842 0.0
C308 C 0.6069 0.97289 0.94499 0.0
C309 C 0.60837 0.93691 0.91744 0.0
C310 C 0.58097 0.01201 0.97143 0.0
C311 C 0.55846 0.00864 -0.00024 0.0
C312 C 0.55713 0.04669 0.03094 0.0
C313 C 0.53166 0.04571 0.02988 0.0
C314 C 0.52985 0.0825 0.0522 0.0
C315 C 0.55354 0.1209 0.0762 0.0
H316 H 0.60048 0.08542 0.06615 0.0
C317 C 0.57882 0.12074 0.08229 0.0
C318 C 0.5806 0.08401 0.06046 0.0
H319 H 0.59743 0.14954 0.10207 0.0
H320 H 0.54195 0.87817 0.84347 0.0
H321 H 0.53955 0.94088 0.89046 0.0
H322 H 0.62512 0.99914 -0.02637 0.0
H323 H 0.62767 0.9361 0.92601 0.0
H324 H 0.59963 0.04322 -0.02672 0.0
H325 H 0.53992 0.97718 -0.00219 0.0
H326 H 0.51319 0.01709 0.0087 0.0
H327 H 0.51008 0.08161 0.04682 0.0
C328 C 0.04357 0.87399 0.47464 0.0
C329 C 0.06358 0.87089 0.5308 0.0
C330 C 0.04609 0.91537 0.44561 0.0
C331 C 0.06857 0.95479 0.47311 0.0
C332 C 0.0883 0.95147 0.53025 0.0
C333 C 0.0859 0.91008 0.55868 0.0
C334 C 0.07256 0.99991 0.44377 0.0
C335 C 0.05366 0.00793 0.39745 0.0
C336 C 0.05727 0.05329 0.3741 0.0
C337 C 0.03393 0.05922 0.35846 0.0
C338 C 0.0362 0.10146 0.34113 0.0
C339 C 0.06193 0.13885 0.33805 0.0
H340 H 0.10149 0.08692 0.37637 0.0
C341 C 0.08534 0.13281 0.34967 0.0
C342 C 0.08306 0.09039 0.36756 0.0
H343 H 0.10545 0.16091 0.34711 0.0
H344 H 1.02627 0.84443 0.45122 0.0
H345 H 0.03052 0.91569 0.40066 0.0
H346 H 0.10584 0.98107 0.55268 0.0
H347 H 0.10172 0.90887 0.6019 0.0
H348 H 0.09159 0.02783 0.46457 0.0
H349 H 0.03382 0.98081 0.3806 0.0
H350 H 1.01381 0.03118 0.36195 0.0
H351 H 1.0177 0.10479 0.33153 0.0
C352 C 0.06056 0.21202 0.06574 0.0
C353 C 0.07342 0.25563 0.09164 0.0
C354 C 0.0668 0.20273 -0.00532 0.0
C355 C 0.08562 0.23709 0.94751 0.0
C356 C 0.09957 0.28023 -0.02454 0.0
C357 C 0.09349 0.2895 0.04716 0.0
C358 C 0.08878 0.23009 0.86512 0.0
C359 C 0.06722 0.20277 0.81752 0.0
C360 C 0.06701 0.20853 0.72949 0.0
C361 C 0.09043 0.22025 0.69056 0.0
C362 C 0.0909 0.23282 0.60893 0.0
C363 C 0.06798 0.23386 0.56531 0.0
H364 H 1.02531 0.19777 0.71412 0.0
C365 C 0.04412 0.21984 0.60351 0.0
C366 C 0.0436 0.20691 0.68498 0.0
H367 H 1.02598 0.21942 0.57094 0.0
H368 H 0.04562 0.18492 0.10025 0.0
H369 H 0.05642 0.16884 -0.02407 0.0
H370 H 0.11427 0.30714 0.94003 0.0
H371 H 0.10406 0.32323 0.06679 0.0
H372 H 0.1074 0.25385 0.83891 0.0
H373 H 0.04769 0.18241 0.84186 0.0
H374 H 0.10855 0.22079 0.72352 0.0
H375 H 0.10943 0.2427 0.58065 0.0
C376 C 0.05065 0.72036 0.86822 0.0
C377 C 0.07319 0.73295 0.82467 0.0
C378 C 0.05195 0.70836 0.94978 0.0
C379 C 0.07587 0.70881 -0.01095 0.0
C380 C 0.09843 0.72162 0.94565 0.0
C381 C 0.09704 0.73319 0.86376 0.0
C382 C 0.07892 0.70245 0.07702 0.0
C383 C 0.05757 0.67631 0.11927 0.0
C384 C 0.05711 0.68409 0.20393 0.0
C385 C 0.03182 0.67235 0.23178 0.0
C386 C 0.03062 0.68703 0.30503 0.0
C387 C 0.05476 0.71411 0.3505 0.0
H388 H 0.101 0.71573 0.23647 0.0
C389 C 0.07996 0.72354 0.32542 0.0
C390 C 0.08116 0.70798 0.25343 0.0
H391 H 0.09878 0.74267 0.3618 0.0
H392 H 0.03199 0.71972 0.83942 0.0
H393 H 0.03455 0.7004 -0.01765 0.0
H394 H 0.11722 0.72311 -0.02465 0.0
H395 H 0.11474 0.74279 0.83139 0.0
H396 H 0.09858 0.72437 0.10657 0.0
H397 H 0.03836 0.65406 0.08742 0.0
H398 H 1.01299 0.65359 0.19513 0.0
H399 H 1.01094 0.67847 0.32478 0.0
C400 C 0.57317 0.74924 0.1539 0.0
C401 C 0.59579 0.76392 0.10963 0.0
C402 C 0.57512 0.73862 0.23564 0.0
C403 C 0.59979 0.74231 0.2753 0.0
C404 C 0.62241 0.75657 0.23107 0.0
C405 C 0.62037 0.76689 0.14844 0.0
C406 C 0.6032 0.73831 0.36398 0.0
C407 C 0.58167 0.71546 0.40728 0.0
C408 C 0.58061 0.72838 0.4876 0.0
C409 C 0.55918 0.69935 0.53341 0.0
C410 C 0.55528 0.71297 0.60415 0.0
C411 C 0.5727 0.75603 0.62982 0.0
H412 H 0.61399 0.79575 0.47829 0.0
C413 C 0.59404 0.78514 0.58382 0.0
C414 C 0.59795 0.77157 0.5134 0.0
H415 H 0.6078 0.81856 0.60207 0.0
H416 H 0.55385 0.74617 0.12572 0.0
H417 H 0.55749 0.72954 0.26784 0.0
H418 H 0.64177 0.76053 0.26074 0.0
H419 H 0.6381 0.77795 0.11545 0.0
H420 H 0.62309 0.75963 0.39339 0.0
H421 H 0.56271 0.69043 0.37878 0.0
H422 H 0.54519 0.66629 0.5138 0.0
H423 H 0.53875 0.68967 0.63883 0.0
C424 C 0.53986 0.2116 0.37293 0.0
C425 C 0.56202 0.2238 0.328 0.0
C426 C 0.54175 0.20034 0.45465 0.0
C427 C 0.56591 0.20111 0.49275 0.0
C428 C 0.58802 0.21314 0.44777 0.0
C429 C 0.58603 0.22401 0.36571 0.0
C430 C 0.56975 0.19632 0.5809 0.0
C431 C 0.54867 0.17175 0.62505 0.0
C432 C 0.54839 0.18191 0.70839 0.0
C433 C 0.52296 0.16712 0.738 0.0
C434 C 0.5212 0.18234 0.80989 0.0
C435 C 0.54485 0.21296 0.85262 0.0
H436 H 0.59232 0.22119 0.73629 0.0
C437 C 0.57035 0.22623 0.82531 0.0
C438 C 0.57219 0.21035 0.75449 0.0
H439 H 0.58896 0.24836 0.85936 0.0
H440 H 0.52108 0.21098 0.34521 0.0
H441 H 0.52468 0.19297 0.48826 0.0
H442 H 0.60697 0.21484 0.47645 0.0
H443 H 0.60345 0.2333 0.33225 0.0
H444 H 0.58972 0.21833 0.60847 0.0
H445 H 0.52936 0.14864 0.59486 0.0
H446 H 0.50432 0.14506 0.70397 0.0
H447 H 0.50134 0.17088 0.83117 0.0
loop_
_geom_bond_atom_site_label_1
_geom_bond_atom_site_label_2
_geom_bond_distance
_geom_bond_site_symmetry_2
_ccdc_geom_bond_type
Dy0 O3 2.307 . S
Dy0 O5 2.395 . S
Dy0 O6 2.379 . S
Dy0 O8 2.339 . S
Dy0 O10 2.298 . S
Dy0 O14 2.275 . S
Dy0 C22 2.738 . S
Dy1 O4 2.298 . S
Dy1 O7 2.275 . S
Dy1 O9 2.307 . S
Dy1 O11 2.395 1_455 S
Dy1 O12 2.379 1_455 S
Dy1 O15 2.339 . S
Dy1 C31 2.738 1_455 S
C2 O14 1.254 . S
C2 O15 1.257 . S
O3 Dy0 2.307 . S
O3 C13 1.266 . S
O4 Dy1 2.298 . S
O4 C13 1.236 . S
O5 Dy0 2.395 . S
O5 C22 1.255 . S
O6 Dy0 2.379 . S
O6 C22 1.249 . S
O7 Dy1 2.275 . S
O7 C23 1.254 . S
O8 Dy0 2.339 . S
O8 C23 1.257 . S
O9 Dy1 2.307 . S
O9 C24 1.266 . S
O10 Dy0 2.298 . S
O10 C24 1.236 . S
O11 Dy1 2.395 1_655 S
O11 C31 1.255 . S
O12 Dy1 2.379 1_655 S
O12 C31 1.249 . S
C13 O3 1.266 . S
C13 O4 1.236 . S
O14 Dy0 2.275 . S
O14 C2 1.254 . S
O15 Dy1 2.339 . S
O15 C2 1.257 . S
C16 C19 1.344 . S
C16 C20 1.328 . S
C16 C22 1.516 . S
C17 C18 1.304 . S
C17 C21 1.323 . S
C18 C17 1.304 . S
C18 C19 1.371 . S
C18 H32 0.930 . S
C19 C16 1.344 . S
C19 C18 1.371 . S
C19 H33 0.931 . S
C20 C16 1.328 . S
C20 C21 1.433 . S
C20 H34 0.931 . S
C21 C17 1.323 . S
C21 C20 1.433 . S
C21 H35 0.933 . S
C22 Dy0 2.738 . S
C22 O5 1.255 . S
C22 O6 1.249 . S
C22 C16 1.516 . S
C23 O7 1.254 . S
C23 O8 1.257 . S
C24 O9 1.266 . S
C24 O10 1.236 . S
C25 C28 1.344 . S
C25 C29 1.328 . S
C25 C31 1.516 . S
C26 C27 1.304 . S
C26 C30 1.323 . S
C27 C26 1.304 . S
C27 C28 1.371 . S
C27 H36 0.930 . S
C28 C25 1.344 . S
C28 C27 1.371 . S
C28 H37 0.931 . S
C29 C25 1.328 . S
C29 C30 1.433 . S
C29 H38 0.931 . S
C30 C26 1.323 . S
C30 C29 1.433 . S
C30 H39 0.933 . S
C31 Dy1 2.738 1_655 S
C31 O11 1.255 . S
C31 O12 1.249 . S
C31 C25 1.516 . S
H32 C18 0.930 . S
H33 C19 0.931 . S
H34 C20 0.931 . S
H35 C21 0.933 . S
H36 C27 0.930 . S
H37 C28 0.931 . S
H38 C29 0.931 . S
H39 C30 0.933 . S
Dy40 O43 2.307 . S
Dy40 O45 2.395 . S
Dy40 O46 2.379 . S
Dy40 O48 2.339 . S
Dy40 O50 2.298 . S
Dy40 O54 2.275 . S
Dy40 C62 2.738 . S
Dy41 O44 2.298 1_655 S
Dy41 O47 2.275 1_655 S
Dy41 O49 2.307 1_655 S
Dy41 O51 2.395 . S
Dy41 O52 2.379 . S
Dy41 O55 2.339 1_655 S
Dy41 C71 2.738 . S
C42 O54 1.254 . S
C42 O55 1.257 . S
O43 Dy40 2.307 . S
O43 C53 1.266 . S
O44 Dy41 2.298 1_455 S
O44 C53 1.236 . S
O45 Dy40 2.395 . S
O45 C62 1.255 . S
O46 Dy40 2.379 . S
O46 C62 1.249 . S
O47 Dy41 2.275 1_455 S
O47 C63 1.254 . S
O48 Dy40 2.339 . S
O48 C63 1.257 . S
O49 Dy41 2.307 1_455 S
O49 C64 1.266 . S
O50 Dy40 2.298 . S
O50 C64 1.236 . S
O51 Dy41 2.395 . S
O51 C71 1.255 . S
O52 Dy41 2.379 . S
O52 C71 1.249 . S
C53 O43 1.266 . S
C53 O44 1.236 . S
O54 Dy40 2.275 . S
O54 C42 1.254 . S
O55 Dy41 2.339 1_455 S
O55 C42 1.257 . S
C56 C59 1.344 . S
C56 C60 1.328 . S
C56 C62 1.516 . S
C57 C58 1.304 . S
C57 C61 1.323 . S
C58 C57 1.304 . S
C58 C59 1.371 . S
C58 H72 0.930 . S
C59 C56 1.344 . S
C59 C58 1.371 . S
C59 H73 0.931 . S
C60 C56 1.328 . S
C60 C61 1.433 . S
C60 H74 0.931 . S
C61 C57 1.323 . S
C61 C60 1.433 . S
C61 H75 0.933 . S
C62 Dy40 2.738 . S
C62 O45 1.255 . S
C62 O46 1.249 . S
C62 C56 1.516 . S
C63 O47 1.254 . S
C63 O48 1.257 . S
C64 O49 1.266 . S
C64 O50 1.236 . S
C65 C68 1.344 . S
C65 C69 1.328 . S
C65 C71 1.516 . S
C66 C67 1.304 . S
C66 C70 1.323 . S
C67 C66 1.304 . S
C67 C68 1.371 . S
C67 H76 0.930 . S
C68 C65 1.344 . S
C68 C67 1.371 . S
C68 H77 0.931 . S
C69 C65 1.328 . S
C69 C70 1.433 . S
C69 H78 0.931 . S
C70 C66 1.323 . S
C70 C69 1.433 . S
C70 H79 0.933 . S
C71 Dy41 2.738 . S
C71 O51 1.255 . S
C71 O52 1.249 . S
C71 C65 1.516 . S
H72 C58 0.930 . S
H73 C59 0.931 . S
H74 C60 0.931 . S
H75 C61 0.933 . S
H76 C67 0.930 . S
H77 C68 0.931 . S
H78 C69 0.931 . S
H79 C70 0.933 . S
Dy80 O83 2.307 . S
Dy80 O85 2.395 . S
Dy80 O86 2.379 . S
Dy80 O88 2.339 1_556 S
Dy80 O90 2.298 . S
Dy80 O94 2.275 . S
Dy80 C102 2.738 . S
Dy81 O84 2.298 . S
Dy81 O87 2.275 . S
Dy81 O89 2.307 . S
Dy81 O91 2.395 . S
Dy81 O92 2.379 . S
Dy81 O95 2.339 . S
Dy81 C111 2.738 . S
C82 O94 1.254 . S
C82 O95 1.257 . S
O83 Dy80 2.307 . S
O83 C93 1.266 . S
O84 Dy81 2.298 . S
O84 C93 1.236 . S
O85 Dy80 2.395 . S
O85 C102 1.255 . S
O86 Dy80 2.379 . S
O86 C102 1.249 . S
O87 Dy81 2.275 . S
O87 C103 1.254 1_556 S
O88 Dy80 2.339 1_554 S
O88 C103 1.257 . S
O89 Dy81 2.307 . S
O89 C104 1.266 . S
O90 Dy80 2.298 . S
O90 C104 1.236 . S
O91 Dy81 2.395 . S
O91 C111 1.255 . S
O92 Dy81 2.379 . S
O92 C111 1.249 . S
C93 O83 1.266 . S
C93 O84 1.236 . S
O94 Dy80 2.275 . S
O94 C82 1.254 . S
O95 Dy81 2.339 . S
O95 C82 1.257 . S
C96 C99 1.344 . S
C96 C100 1.328 . S
C96 C102 1.516 . S
C97 C98 1.304 . S
C97 C101 1.323 . S
C98 C97 1.304 . S
C98 C99 1.371 . S
C98 H112 0.930 . S
C99 C96 1.344 . S
C99 C98 1.371 . S
C99 H113 0.931 . S
C100 C96 1.328 . S
C100 C101 1.433 . S
C100 H114 0.931 1_556 S
C101 C97 1.323 . S
C101 C100 1.433 . S
C101 H115 0.933 . S
C102 Dy80 2.738 . S
C102 O85 1.255 . S
C102 O86 1.249 . S
C102 C96 1.516 . S
C103 O87 1.254 1_554 S
C103 O88 1.257 . S
C104 O89 1.266 . S
C104 O90 1.236 . S
C105 C108 1.344 . S
C105 C109 1.328 . S
C105 C111 1.516 . S
C106 C107 1.304 . S
C106 C110 1.323 . S
C107 C106 1.304 . S
C107 C108 1.371 . S
C107 H116 0.930 . S
C108 C105 1.344 . S
C108 C107 1.371 . S
C108 H117 0.931 . S
C109 C105 1.328 . S
C109 C110 1.433 . S
C109 H118 0.931 . S
C110 C106 1.323 . S
C110 C109 1.433 . S
C110 H119 0.933 . S
C111 Dy81 2.738 . S
C111 O91 1.255 . S
C111 O92 1.249 . S
C111 C105 1.516 . S
H112 C98 0.930 . S
H113 C99 0.931 . S
H114 C100 0.931 1_554 S
H115 C101 0.933 . S
H116 C107 0.930 . S
H117 C108 0.931 . S
H118 C109 0.931 . S
H119 C110 0.933 . S
Dy120 O123 2.307 . S
Dy120 O125 2.395 . S
Dy120 O126 2.379 . S
Dy120 O128 2.339 . S
Dy120 O130 2.298 . S
Dy120 O134 2.275 . S
Dy120 C142 2.738 . S
Dy121 O124 2.298 . S
Dy121 O127 2.275 . S
Dy121 O129 2.307 . S
Dy121 O131 2.395 . S
Dy121 O132 2.379 . S
Dy121 O135 2.339 1_554 S
Dy121 C151 2.738 . S
C122 O134 1.254 1_556 S
C122 O135 1.257 . S
O123 Dy120 2.307 . S
O123 C133 1.266 . S
O124 Dy121 2.298 . S
O124 C133 1.236 . S
O125 Dy120 2.395 . S
O125 C142 1.255 . S
O126 Dy120 2.379 . S
O126 C142 1.249 . S
O127 Dy121 2.275 . S
O127 C143 1.254 . S
O128 Dy120 2.339 . S
O128 C143 1.257 . S
O129 Dy121 2.307 . S
O129 C144 1.266 . S
O130 Dy120 2.298 . S
O130 C144 1.236 . S
O131 Dy121 2.395 . S
O131 C151 1.255 . S
O132 Dy121 2.379 . S
O132 C151 1.249 . S
C133 O123 1.266 . S
C133 O124 1.236 . S
O134 Dy120 2.275 . S
O134 C122 1.254 1_554 S
O135 Dy121 2.339 1_556 S
O135 C122 1.257 . S
C136 C139 1.344 . S
C136 C140 1.328 . S
C136 C142 1.516 . S
C137 C138 1.304 . S
C137 C141 1.323 . S
C138 C137 1.304 . S
C138 C139 1.371 . S
C138 H152 0.930 . S
C139 C136 1.344 . S
C139 C138 1.371 . S
C139 H153 0.931 . S
C140 C136 1.328 . S
C140 C141 1.433 . S
C140 H154 0.931 . S
C141 C137 1.323 . S
C141 C140 1.433 . S
C141 H155 0.933 . S
C142 Dy120 2.738 . S
C142 O125 1.255 . S
C142 O126 1.249 . S
C142 C136 1.516 . S
C143 O127 1.254 . S
C143 O128 1.257 . S
C144 O129 1.266 . S
C144 O130 1.236 . S
C145 C148 1.344 . S
C145 C149 1.328 . S
C145 C151 1.516 . S
C146 C147 1.304 . S
C146 C150 1.323 . S
C147 C146 1.304 . S
C147 C148 1.371 . S
C147 H156 0.930 . S
C148 C145 1.344 . S
C148 C147 1.371 . S
C148 H157 0.931 . S
C149 C145 1.328 . S
C149 C150 1.433 . S
C149 H158 0.933 . S
C150 C146 1.323 . S
C150 C149 1.433 . S
C150 H159 0.933 . S
C151 Dy121 2.738 . S
C151 O131 1.255 . S
C151 O132 1.249 . S
C151 C145 1.516 . S
H152 C138 0.930 . S
H153 C139 0.931 . S
H154 C140 0.931 . S
H155 C141 0.933 . S
H156 C147 0.930 . S
H157 C148 0.931 . S
H158 C149 0.933 . S
H159 C150 0.933 . S
C160 C161 1.386 . S
C160 C162 1.383 . S
C160 H176 0.951 . S
C161 C160 1.386 . S
C161 C165 1.383 . S
C162 C160 1.383 . S
C162 C163 1.402 . S
C162 H177 0.951 . S
C163 C162 1.402 . S
C163 C164 1.375 . S
C163 C166 1.481 . S
C164 C163 1.375 . S
C164 C165 1.367 . S
C164 H178 0.951 . S
C165 C161 1.383 . S
C165 C164 1.367 . S
C165 H179 0.950 . S
C166 C163 1.481 . S
C166 C167 1.297 . S
C166 H180 0.950 . S
C167 C166 1.297 . S
C167 C168 1.479 . S
C167 H181 0.950 . S
C168 C167 1.479 . S
C168 C169 1.375 . S
C168 C174 1.404 . S
C169 C168 1.375 . S
C169 C170 1.369 . S
C169 H182 0.950 . S
C170 C169 1.369 . S
C170 C171 1.392 . S
C170 H183 0.951 . S
C171 C170 1.392 . S
C171 C173 1.384 . S
H172 C174 0.949 . S
C173 C171 1.384 . S
C173 C174 1.385 . S
C173 H175 0.950 . S
C174 C168 1.404 . S
C174 H172 0.949 . S
C174 C173 1.385 . S
H175 C173 0.950 . S
H176 C160 0.951 . S
H177 C162 0.951 . S
H178 C164 0.951 . S
H179 C165 0.950 . S
H180 C166 0.950 . S
H181 C167 0.950 . S
H182 C169 0.950 . S
H183 C170 0.951 . S
C184 C185 1.386 . S
C184 C186 1.383 . S
C184 H200 0.951 . S
C185 C184 1.386 . S
C185 C189 1.383 . S
C186 C184 1.383 . S
C186 C187 1.402 . S
C186 H201 0.951 . S
C187 C186 1.402 . S
C187 C188 1.375 . S
C187 C190 1.481 . S
C188 C187 1.375 . S
C188 C189 1.367 . S
C188 H202 0.951 . S
C189 C185 1.383 . S
C189 C188 1.367 . S
C189 H203 0.950 . S
C190 C187 1.481 . S
C190 C191 1.297 . S
C190 H204 0.950 . S
C191 C190 1.297 . S
C191 C192 1.479 . S
C191 H205 0.950 . S
C192 C191 1.479 . S
C192 C193 1.375 . S
C192 C198 1.404 . S
C193 C192 1.375 . S
C193 C194 1.369 . S
C193 H206 0.950 . S
C194 C193 1.369 . S
C194 C195 1.392 . S
C194 H207 0.951 . S
C195 C194 1.392 . S
C195 C197 1.384 . S
H196 C198 0.949 . S
C197 C195 1.384 . S
C197 C198 1.385 . S
C197 H199 0.950 . S
C198 C192 1.404 . S
C198 H196 0.949 . S
C198 C197 1.385 . S
H199 C197 0.950 . S
H200 C184 0.951 . S
H201 C186 0.951 . S
H202 C188 0.951 . S
H203 C189 0.950 . S
H204 C190 0.950 . S
H205 C191 0.950 . S
H206 C193 0.950 . S
H207 C194 0.951 . S
C208 C209 1.386 . S
C208 C210 1.383 . S
C208 H224 0.951 . S
C209 C208 1.386 . S
C209 C213 1.383 . S
C210 C208 1.383 . S
C210 C211 1.402 . S
C210 H225 0.951 . S
C211 C210 1.402 . S
C211 C212 1.375 1_554 S
C211 C214 1.481 1_554 S
C212 C211 1.375 1_556 S
C212 C213 1.367 1_556 S
C212 H226 0.951 . S
C213 C209 1.383 . S
C213 C212 1.367 1_554 S
C213 H227 0.950 1_554 S
C214 C211 1.481 1_556 S
C214 C215 1.297 . S
C214 H228 0.950 . S
C215 C214 1.297 . S
C215 C216 1.479 . S
C215 H229 0.950 1_556 S
C216 C215 1.479 . S
C216 C217 1.375 1_556 S
C216 C222 1.404 . S
C217 C216 1.375 1_554 S
C217 C218 1.369 1_554 S
C217 H230 0.950 . S
C218 C217 1.369 1_556 S
C218 C219 1.392 . S
C218 H231 0.951 1_556 S
C219 C218 1.392 . S
C219 C221 1.384 . S
H220 C222 0.949 . S
C221 C219 1.384 . S
C221 C222 1.385 . S
C221 H223 0.950 . S
C222 C216 1.404 . S
C222 H220 0.949 . S
C222 C221 1.385 . S
H223 C221 0.950 . S
H224 C208 0.951 . S
H225 C210 0.951 . S
H226 C212 0.951 . S
H227 C213 0.950 1_556 S
H228 C214 0.950 . S
H229 C215 0.950 1_554 S
H230 C217 0.950 . S
H231 C218 0.951 1_554 S
C232 C233 1.386 . S
C232 C234 1.383 . S
C232 H248 0.951 . S
C233 C232 1.386 . S
C233 C237 1.383 . S
C234 C232 1.383 . S
C234 C235 1.402 . S
C234 H249 0.951 . S
C235 C234 1.402 . S
C235 C236 1.375 . S
C235 C238 1.481 . S
C236 C235 1.375 . S
C236 C237 1.367 . S
C236 H250 0.951 . S
C237 C233 1.383 . S
C237 C236 1.367 . S
C237 H251 0.950 . S
C238 C235 1.481 . S
C238 C239 1.297 . S
C238 H252 0.950 . S
C239 C238 1.297 . S
C239 C240 1.479 . S
C239 H253 0.950 . S
C240 C239 1.479 . S
C240 C241 1.375 . S
C240 C246 1.404 . S
C241 C240 1.375 . S
C241 C242 1.369 . S
C241 H254 0.950 . S
C242 C241 1.369 . S
C242 C243 1.392 . S
C242 H255 0.951 . S
C243 C242 1.392 . S
C243 C245 1.384 . S
H244 C246 0.949 . S
C245 C243 1.384 . S
C245 C246 1.385 . S
C245 H247 0.950 . S
C246 C240 1.404 . S
C246 H244 0.949 . S
C246 C245 1.385 . S
H247 C245 0.950 . S
H248 C232 0.951 . S
H249 C234 0.951 . S
H250 C236 0.951 . S
H251 C237 0.950 . S
H252 C238 0.950 . S
H253 C239 0.950 . S
H254 C241 0.950 . S
H255 C242 0.951 . S
C256 C257 1.386 . S
C256 C258 1.383 . S
C256 H272 0.951 . S
C257 C256 1.386 . S
C257 C261 1.383 . S
C258 C256 1.383 . S
C258 C259 1.402 . S
C258 H273 0.951 . S
C259 C258 1.402 . S
C259 C260 1.375 . S
C259 C262 1.481 . S
C260 C259 1.375 . S
C260 C261 1.367 . S
C260 H274 0.951 . S
C261 C257 1.383 . S
C261 C260 1.367 . S
C261 H275 0.950 . S
C262 C259 1.481 . S
C262 C263 1.297 . S
C262 H276 0.950 . S
C263 C262 1.297 . S
C263 C264 1.479 . S
C263 H277 0.950 . S
C264 C263 1.479 . S
C264 C265 1.375 . S
C264 C270 1.404 . S
C265 C264 1.375 . S
C265 C266 1.369 . S
C265 H278 0.950 . S
C266 C265 1.369 . S
C266 C267 1.392 . S
C266 H279 0.951 . S
C267 C266 1.392 . S
C267 C269 1.384 . S
H268 C270 0.949 . S
C269 C267 1.384 . S
C269 C270 1.385 . S
C269 H271 0.950 . S
C270 C264 1.404 . S
C270 H268 0.949 . S
C270 C269 1.385 . S
H271 C269 0.950 . S
H272 C256 0.951 . S
H273 C258 0.951 . S
H274 C260 0.951 . S
H275 C261 0.950 . S
H276 C262 0.950 . S
H277 C263 0.950 . S
H278 C265 0.950 . S
H279 C266 0.951 . S
C280 C281 1.386 . S
C280 C282 1.383 . S
C280 H296 0.951 . S
C281 C280 1.386 . S
C281 C285 1.383 . S
C282 C280 1.383 . S
C282 C283 1.402 . S
C282 H297 0.951 . S
C283 C282 1.402 . S
C283 C284 1.375 . S
C283 C286 1.481 . S
C284 C283 1.375 . S
C284 C285 1.367 . S
C284 H298 0.951 . S
C285 C281 1.383 . S
C285 C284 1.367 . S
C285 H299 0.950 . S
C286 C283 1.481 . S
C286 C287 1.297 . S
C286 H300 0.950 . S
C287 C286 1.297 . S
C287 C288 1.479 . S
C287 H301 0.950 . S
C288 C287 1.479 . S
C288 C289 1.375 . S
C288 C294 1.404 . S
C289 C288 1.375 . S
C289 C290 1.369 . S
C289 H302 0.950 . S
C290 C289 1.369 . S
C290 C291 1.392 . S
C290 H303 0.951 . S
C291 C290 1.392 . S
C291 C293 1.384 . S
H292 C294 0.949 . S
C293 C291 1.384 . S
C293 C294 1.385 . S
C293 H295 0.950 . S
C294 C288 1.404 . S
C294 H292 0.949 . S
C294 C293 1.385 . S
H295 C293 0.950 . S
H296 C280 0.951 . S
H297 C282 0.951 . S
H298 C284 0.951 . S
H299 C285 0.950 . S
H300 C286 0.950 . S
H301 C287 0.950 . S
H302 C289 0.950 . S
H303 C290 0.951 . S
C304 C305 1.386 . S
C304 C306 1.383 . S
C304 H320 0.951 . S
C305 C304 1.386 . S
C305 C309 1.383 . S
C306 C304 1.383 . S
C306 C307 1.402 . S
C306 H321 0.951 . S
C307 C306 1.402 . S
C307 C308 1.375 1_556 S
C307 C310 1.481 1_556 S
C308 C307 1.375 1_554 S
C308 C309 1.367 1_554 S
C308 H322 0.951 . S
C309 C305 1.383 . S
C309 C308 1.367 1_556 S
C309 H323 0.950 1_556 S
C310 C307 1.481 1_554 S
C310 C311 1.289 1_565 S
C310 H324 0.950 . S
C311 C310 1.289 1_545 S
C311 C312 1.488 . S
C311 H325 0.950 1_544 S
C312 C311 1.488 . S
C312 C313 1.375 1_554 S
C312 C318 1.404 . S
C313 C312 1.375 1_556 S
C313 C314 1.369 1_556 S
C313 H326 0.950 . S
C314 C313 1.369 1_554 S
C314 C315 1.392 . S
C314 H327 0.951 1_554 S
C315 C314 1.392 . S
C315 C317 1.384 . S
H316 C318 0.949 . S
C317 C315 1.384 . S
C317 C318 1.385 . S
C317 H319 0.950 . S
C318 C312 1.404 . S
C318 H316 0.949 . S
C318 C317 1.385 . S
H319 C317 0.950 . S
H320 C304 0.951 . S
H321 C306 0.951 . S
H322 C308 0.951 . S
H323 C309 0.950 1_554 S
H324 C310 0.950 . S
H325 C311 0.950 1_566 S
H326 C313 0.950 . S
H327 C314 0.951 1_556 S
C328 C329 1.386 . S
C328 C330 1.383 . S
C328 H344 0.951 . S
C329 C328 1.386 . S
C329 C333 1.383 . S
C330 C328 1.383 . S
C330 C331 1.402 . S
C330 H345 0.951 . S
C331 C330 1.402 . S
C331 C332 1.375 . S
C331 C334 1.481 . S
C332 C331 1.375 . S
C332 C333 1.367 . S
C332 H346 0.951 . S
C333 C329 1.383 . S
C333 C332 1.367 . S
C333 H347 0.950 . S
C334 C331 1.481 . S
C334 C335 1.297 1_565 S
C334 H348 0.950 1_565 S
C335 C334 1.297 1_545 S
C335 C336 1.479 . S
C335 H349 0.950 1_545 S
C336 C335 1.479 . S
C336 C337 1.375 . S
C336 C342 1.404 . S
C337 C336 1.375 . S
C337 C338 1.369 . S
C337 H350 0.950 . S
C338 C337 1.369 . S
C338 C339 1.392 . S
C338 H351 0.951 . S
C339 C338 1.392 . S
C339 C341 1.384 . S
H340 C342 0.949 . S
C341 C339 1.384 . S
C341 C342 1.385 . S
C341 H343 0.950 . S
C342 C336 1.404 . S
C342 H340 0.949 . S
C342 C341 1.385 . S
H343 C341 0.950 . S
H344 C328 0.951 . S
H345 C330 0.951 . S
H346 C332 0.951 . S
H347 C333 0.950 . S
H348 C334 0.950 1_545 S
H349 C335 0.950 1_565 S
H350 C337 0.950 . S
H351 C338 0.951 . S
C352 C353 1.386 . S
C352 C354 1.383 . S
C352 H368 0.951 . S
C353 C352 1.386 . S
C353 C357 1.383 . S
C354 C352 1.383 . S
C354 C355 1.402 1_554 S
C354 H369 0.951 . S
C355 C354 1.402 1_556 S
C355 C356 1.375 1_556 S
C355 C358 1.481 . S
C356 C355 1.375 1_554 S
C356 C357 1.367 . S
C356 H370 0.951 . S
C357 C353 1.383 . S
C357 C356 1.367 . S
C357 H371 0.950 . S
C358 C355 1.481 . S
C358 C359 1.297 . S
C358 H372 0.950 . S
C359 C358 1.297 . S
C359 C360 1.479 . S
C359 H373 0.950 . S
C360 C359 1.479 . S
C360 C361 1.375 . S
C360 C366 1.404 . S
C361 C360 1.375 . S
C361 C362 1.369 . S
C361 H374 0.950 . S
C362 C361 1.369 . S
C362 C363 1.392 . S
C362 H375 0.951 . S
C363 C362 1.392 . S
C363 C365 1.384 . S
H364 C366 0.949 . S
C365 C363 1.384 . S
C365 C366 1.385 . S
C365 H367 0.950 . S
C366 C360 1.404 . S
C366 H364 0.949 . S
C366 C365 1.385 . S
H367 C365 0.950 . S
H368 C352 0.951 . S
H369 C354 0.951 . S
H370 C356 0.951 . S
H371 C357 0.950 . S
H372 C358 0.950 . S
H373 C359 0.950 . S
H374 C361 0.950 . S
H375 C362 0.951 . S
C376 C377 1.386 . S
C376 C378 1.383 . S
C376 H392 0.951 . S
C377 C376 1.386 . S
C377 C381 1.383 . S
C378 C376 1.383 . S
C378 C379 1.402 1_556 S
C378 H393 0.951 1_556 S
C379 C378 1.402 1_554 S
C379 C380 1.375 1_554 S
C379 C382 1.481 . S
C380 C379 1.375 1_556 S
C380 C381 1.367 . S
C380 H394 0.951 . S
C381 C377 1.383 . S
C381 C380 1.367 . S
C381 H395 0.950 . S
C382 C379 1.481 . S
C382 C383 1.297 . S
C382 H396 0.950 . S
C383 C382 1.297 . S
C383 C384 1.479 . S
C383 H397 0.950 . S
C384 C383 1.479 . S
C384 C385 1.375 . S
C384 C390 1.404 . S
C385 C384 1.375 . S
C385 C386 1.369 . S
C385 H398 0.950 . S
C386 C385 1.369 . S
C386 C387 1.392 . S
C386 H399 0.951 . S
C387 C386 1.392 . S
C387 C389 1.384 . S
H388 C390 0.949 . S
C389 C387 1.384 . S
C389 C390 1.385 . S
C389 H391 0.950 . S
C390 C384 1.404 . S
C390 H388 0.949 . S
C390 C389 1.385 . S
H391 C389 0.950 . S
H392 C376 0.951 . S
H393 C378 0.951 1_554 S
H394 C380 0.951 . S
H395 C381 0.950 . S
H396 C382 0.950 . S
H397 C383 0.950 . S
H398 C385 0.950 . S
H399 C386 0.951 . S
C400 C401 1.386 . S
C400 C402 1.383 . S
C400 H416 0.951 . S
C401 C400 1.386 . S
C401 C405 1.383 . S
C402 C400 1.383 . S
C402 C403 1.402 . S
C402 H417 0.951 . S
C403 C402 1.402 . S
C403 C404 1.375 . S
C403 C406 1.481 . S
C404 C403 1.375 . S
C404 C405 1.367 . S
C404 H418 0.951 . S
C405 C401 1.383 . S
C405 C404 1.367 . S
C405 H419 0.950 . S
C406 C403 1.481 . S
C406 C407 1.297 . S
C406 H420 0.950 . S
C407 C406 1.297 . S
C407 C408 1.479 . S
C407 H421 0.950 . S
C408 C407 1.479 . S
C408 C409 1.375 . S
C408 C414 1.404 . S
C409 C408 1.375 . S
C409 C410 1.369 . S
C409 H422 0.950 . S
C410 C409 1.369 . S
C410 C411 1.392 . S
C410 H423 0.951 . S
C411 C410 1.392 . S
C411 C413 1.384 . S
H412 C414 0.949 . S
C413 C411 1.384 . S
C413 C414 1.385 . S
C413 H415 0.950 . S
C414 C408 1.404 . S
C414 H412 0.949 . S
C414 C413 1.385 . S
H415 C413 0.950 . S
H416 C400 0.951 . S
H417 C402 0.951 . S
H418 C404 0.951 . S
H419 C405 0.950 . S
H420 C406 0.950 . S
H421 C407 0.950 . S
H422 C409 0.950 . S
H423 C410 0.951 . S
C424 C425 1.386 . S
C424 C426 1.383 . S
C424 H440 0.951 . S
C425 C424 1.386 . S
C425 C429 1.383 . S
C426 C424 1.383 . S
C426 C427 1.402 . S
C426 H441 0.951 . S
C427 C426 1.402 . S
C427 C428 1.375 . S
C427 C430 1.481 . S
C428 C427 1.375 . S
C428 C429 1.367 . S
C428 H442 0.951 . S
C429 C425 1.383 . S
C429 C428 1.367 . S
C429 H443 0.950 . S
C430 C427 1.481 . S
C430 C431 1.297 . S
C430 H444 0.950 . S
C431 C430 1.297 . S
C431 C432 1.479 . S
C431 H445 0.950 . S
C432 C431 1.479 . S
C432 C433 1.375 . S
C432 C438 1.404 . S
C433 C432 1.375 . S
C433 C434 1.369 . S
C433 H446 0.950 . S
C434 C433 1.369 . S
C434 C435 1.392 . S
C434 H447 0.951 . S
C435 C434 1.392 . S
C435 C437 1.384 . S
H436 C438 0.949 . S
C437 C435 1.384 . S
C437 C438 1.385 . S
C437 H439 0.950 . S
C438 C432 1.404 . S
C438 H436 0.949 . S
C438 C437 1.385 . S
H439 C437 0.950 . S
H440 C424 0.951 . S
H441 C426 0.951 . S
H442 C428 0.951 . S
H443 C429 0.950 . S
H444 C430 0.950 . S
H445 C431 0.950 . S
H446 C433 0.950 . S
H447 C434 0.951 . S
C161 C13 1.932 . S
C171 C64 1.900 . S
C185 C97 1.930 . S
C195 C66 1.933 . S
C209 C133 1.553 . S
C219 C104 1.588 . S
C233 C26 1.618 . S
C243 C137 1.617 . S
C257 C146 1.945 . S
C267 C17 1.910 . S
C281 C106 1.600 . S
C291 C57 1.626 . S
C305 C93 1.914 . S
C315 C144 1.921 . S
C329 C53 1.601 . S
C339 C24 1.557 . S
C353 C2 0.786 . S
C363 C23 0.881 . S
C377 C63 0.772 . S
C387 C42 0.870 . S
C401 C103 0.769 . S
C411 C82 0.849 . S
C425 C143 0.811 . S
C435 C122 0.751 . S
