# Generated by pormake.
# Topology sxg, (6)-cn, num edge types: 1
# Building blocks:
#     Node 0, Type 0, BuildingBlock: MIFKUJ_clean_sbu_0, # of connection points: 6
#     Node 1, Type 0, BuildingBlock: MIFKUJ_clean_sbu_0, # of connection points: 6
#     Node 2, Type 0, BuildingBlock: MIFKUJ_clean_sbu_0, # of connection points: 6
#     Node 3, Type 0, BuildingBlock: MIFKUJ_clean_sbu_0, # of connection points: 6
#     Node 4, Type 0, BuildingBlock: MIFKUJ_clean_sbu_0, # of connection points: 6
#     Node 5, Type 0, BuildingBlock: MIFKUJ_clean_sbu_0, # of connection points: 6
#     Node 6, Type 0, BuildingBlock: MIFKUJ_clean_sbu_0, # of connection points: 6
#     Node 7, Type 0, BuildingBlock: MIFKUJ_clean_sbu_0, # of connection points: 6
#     Node 8, Type 0, BuildingBlock: MIFKUJ_clean_sbu_0, # of connection points: 6
#     Node 9, Type 0, BuildingBlock: MIFKUJ_clean_sbu_0, # of connection points: 6
#     Node 10, Type 0, BuildingBlock: MIFKUJ_clean_sbu_0, # of connection points: 6
#     Node 11, Type 0, BuildingBlock: MIFKUJ_clean_sbu_0, # of connection points: 6
#     Node 12, Type 0, BuildingBlock: MIFKUJ_clean_sbu_0, # of connection points: 6
#     Node 13, Type 0, BuildingBlock: MIFKUJ_clean_sbu_0, # of connection points: 6
#     Node 14, Type 0, BuildingBlock: MIFKUJ_clean_sbu_0, # of connection points: 6
#     Node 15, Type 0, BuildingBlock: MIFKUJ_clean_sbu_0, # of connection points: 6
#     Node 16, Type 0, BuildingBlock: MIFKUJ_clean_sbu_0, # of connection points: 6
#     Node 17, Type 0, BuildingBlock: MIFKUJ_clean_sbu_0, # of connection points: 6
#     Node 18, Type 0, BuildingBlock: MIFKUJ_clean_sbu_0, # of connection points: 6
#     Node 19, Type 0, BuildingBlock: MIFKUJ_clean_sbu_0, # of connection points: 6
#     Node 20, Type 0, BuildingBlock: MIFKUJ_clean_sbu_0, # of connection points: 6
#     Node 21, Type 0, BuildingBlock: MIFKUJ_clean_sbu_0, # of connection points: 6
#     Node 22, Type 0, BuildingBlock: MIFKUJ_clean_sbu_0, # of connection points: 6
#     Node 23, Type 0, BuildingBlock: MIFKUJ_clean_sbu_0, # of connection points: 6
#     Edge 24, Type (0, 0), BuildingBlock: MIFKUJ_clean_linker_0, # of connection points: 2
#     Edge 25, Type (0, 0), BuildingBlock: MIFKUJ_clean_linker_0, # of connection points: 2
#     Edge 26, Type (0, 0), BuildingBlock: MIFKUJ_clean_linker_0, # of connection points: 2
#     Edge 27, Type (0, 0), BuildingBlock: MIFKUJ_clean_linker_0, # of connection points: 2
#     Edge 28, Type (0, 0), BuildingBlock: MIFKUJ_clean_linker_0, # of connection points: 2
#     Edge 29, Type (0, 0), BuildingBlock: MIFKUJ_clean_linker_0, # of connection points: 2
#     Edge 30, Type (0, 0), BuildingBlock: MIFKUJ_clean_linker_0, # of connection points: 2
#     Edge 31, Type (0, 0), BuildingBlock: MIFKUJ_clean_linker_0, # of connection points: 2
#     Edge 32, Type (0, 0), BuildingBlock: MIFKUJ_clean_linker_0, # of connection points: 2
#     Edge 33, Type (0, 0), BuildingBlock: MIFKUJ_clean_linker_0, # of connection points: 2
#     Edge 34, Type (0, 0), BuildingBlock: MIFKUJ_clean_linker_0, # of connection points: 2
#     Edge 35, Type (0, 0), BuildingBlock: MIFKUJ_clean_linker_0, # of connection points: 2
#     Edge 36, Type (0, 0), BuildingBlock: MIFKUJ_clean_linker_0, # of connection points: 2
#     Edge 37, Type (0, 0), BuildingBlock: MIFKUJ_clean_linker_0, # of connection points: 2
#     Edge 38, Type (0, 0), BuildingBlock: MIFKUJ_clean_linker_0, # of connection points: 2
#     Edge 39, Type (0, 0), BuildingBlock: MIFKUJ_clean_linker_0, # of connection points: 2
#     Edge 40, Type (0, 0), BuildingBlock: MIFKUJ_clean_linker_0, # of connection points: 2
#     Edge 41, Type (0, 0), BuildingBlock: MIFKUJ_clean_linker_0, # of connection points: 2
#     Edge 42, Type (0, 0), BuildingBlock: MIFKUJ_clean_linker_0, # of connection points: 2
#     Edge 43, Type (0, 0), BuildingBlock: MIFKUJ_clean_linker_0, # of connection points: 2
#     Edge 44, Type (0, 0), BuildingBlock: MIFKUJ_clean_linker_0, # of connection points: 2
#     Edge 45, Type (0, 0), BuildingBlock: MIFKUJ_clean_linker_0, # of connection points: 2
#     Edge 46, Type (0, 0), BuildingBlock: MIFKUJ_clean_linker_0, # of connection points: 2
#     Edge 47, Type (0, 0), BuildingBlock: MIFKUJ_clean_linker_0, # of connection points: 2
#     Edge 48, Type (0, 0), BuildingBlock: MIFKUJ_clean_linker_0, # of connection points: 2
#     Edge 49, Type (0, 0), BuildingBlock: MIFKUJ_clean_linker_0, # of connection points: 2
#     Edge 50, Type (0, 0), BuildingBlock: MIFKUJ_clean_linker_0, # of connection points: 2
#     Edge 51, Type (0, 0), BuildingBlock: MIFKUJ_clean_linker_0, # of connection points: 2
#     Edge 52, Type (0, 0), BuildingBlock: MIFKUJ_clean_linker_0, # of connection points: 2
#     Edge 53, Type (0, 0), BuildingBlock: MIFKUJ_clean_linker_0, # of connection points: 2
#     Edge 54, Type (0, 0), BuildingBlock: MIFKUJ_clean_linker_0, # of connection points: 2
#     Edge 55, Type (0, 0), BuildingBlock: MIFKUJ_clean_linker_0, # of connection points: 2
#     Edge 56, Type (0, 0), BuildingBlock: MIFKUJ_clean_linker_0, # of connection points: 2
#     Edge 57, Type (0, 0), BuildingBlock: MIFKUJ_clean_linker_0, # of connection points: 2
#     Edge 58, Type (0, 0), BuildingBlock: MIFKUJ_clean_linker_0, # of connection points: 2
#     Edge 59, Type (0, 0), BuildingBlock: MIFKUJ_clean_linker_0, # of connection points: 2
#     Edge 60, Type (0, 0), BuildingBlock: MIFKUJ_clean_linker_0, # of connection points: 2
#     Edge 61, Type (0, 0), BuildingBlock: MIFKUJ_clean_linker_0, # of connection points: 2
#     Edge 62, Type (0, 0), BuildingBlock: MIFKUJ_clean_linker_0, # of connection points: 2
#     Edge 63, Type (0, 0), BuildingBlock: MIFKUJ_clean_linker_0, # of connection points: 2
#     Edge 64, Type (0, 0), BuildingBlock: MIFKUJ_clean_linker_0, # of connection points: 2
#     Edge 65, Type (0, 0), BuildingBlock: MIFKUJ_clean_linker_0, # of connection points: 2
#     Edge 66, Type (0, 0), BuildingBlock: MIFKUJ_clean_linker_0, # of connection points: 2
#     Edge 67, Type (0, 0), BuildingBlock: MIFKUJ_clean_linker_0, # of connection points: 2
#     Edge 68, Type (0, 0), BuildingBlock: MIFKUJ_clean_linker_0, # of connection points: 2
#     Edge 69, Type (0, 0), BuildingBlock: MIFKUJ_clean_linker_0, # of connection points: 2
#     Edge 70, Type (0, 0), BuildingBlock: MIFKUJ_clean_linker_0, # of connection points: 2
#     Edge 71, Type (0, 0), BuildingBlock: MIFKUJ_clean_linker_0, # of connection points: 2
#     Edge 72, Type (0, 0), BuildingBlock: MIFKUJ_clean_linker_0, # of connection points: 2
#     Edge 73, Type (0, 0), BuildingBlock: MIFKUJ_clean_linker_0, # of connection points: 2
#     Edge 74, Type (0, 0), BuildingBlock: MIFKUJ_clean_linker_0, # of connection points: 2
#     Edge 75, Type (0, 0), BuildingBlock: MIFKUJ_clean_linker_0, # of connection points: 2
#     Edge 76, Type (0, 0), BuildingBlock: MIFKUJ_clean_linker_0, # of connection points: 2
#     Edge 77, Type (0, 0), BuildingBlock: MIFKUJ_clean_linker_0, # of connection points: 2
#     Edge 78, Type (0, 0), BuildingBlock: MIFKUJ_clean_linker_0, # of connection points: 2
#     Edge 79, Type (0, 0), BuildingBlock: MIFKUJ_clean_linker_0, # of connection points: 2
#     Edge 80, Type (0, 0), BuildingBlock: MIFKUJ_clean_linker_0, # of connection points: 2
#     Edge 81, Type (0, 0), BuildingBlock: MIFKUJ_clean_linker_0, # of connection points: 2
#     Edge 82, Type (0, 0), BuildingBlock: MIFKUJ_clean_linker_0, # of connection points: 2
#     Edge 83, Type (0, 0), BuildingBlock: MIFKUJ_clean_linker_0, # of connection points: 2
#     Edge 84, Type (0, 0), BuildingBlock: MIFKUJ_clean_linker_0, # of connection points: 2
#     Edge 85, Type (0, 0), BuildingBlock: MIFKUJ_clean_linker_0, # of connection points: 2
#     Edge 86, Type (0, 0), BuildingBlock: MIFKUJ_clean_linker_0, # of connection points: 2
#     Edge 87, Type (0, 0), BuildingBlock: MIFKUJ_clean_linker_0, # of connection points: 2
#     Edge 88, Type (0, 0), BuildingBlock: MIFKUJ_clean_linker_0, # of connection points: 2
#     Edge 89, Type (0, 0), BuildingBlock: MIFKUJ_clean_linker_0, # of connection points: 2
#     Edge 90, Type (0, 0), BuildingBlock: MIFKUJ_clean_linker_0, # of connection points: 2
#     Edge 91, Type (0, 0), BuildingBlock: MIFKUJ_clean_linker_0, # of connection points: 2
#     Edge 92, Type (0, 0), BuildingBlock: MIFKUJ_clean_linker_0, # of connection points: 2
#     Edge 93, Type (0, 0), BuildingBlock: MIFKUJ_clean_linker_0, # of connection points: 2
#     Edge 94, Type (0, 0), BuildingBlock: MIFKUJ_clean_linker_0, # of connection points: 2
#     Edge 95, Type (0, 0), BuildingBlock: MIFKUJ_clean_linker_0, # of connection points: 2
# Relax obj value: 0.180
# Max RMSD: 0.251
# Mean RMSD: 0.251
data_MOF--net-sxg--node1-MIFKUJ_clean_sbu_0--edge1-MIFKUJ_clean_linker_0
_symmetry_space_group_name_H-M    P1
_symmetry_Int_Tables_number       1
_symmetry_cell_setting            triclinic
loop_
_symmetry_equiv_pos_as_xyz
'x, y, z'
_cell_length_a     59.746185
_cell_length_b     59.803558
_cell_length_c     59.739415
_cell_angle_alpha  89.929679
_cell_angle_beta   89.968361
_cell_angle_gamma 90.029395
loop_
_atom_site_label
_atom_site_type_symbol
_atom_site_fract_x
_atom_site_fract_y
_atom_site_fract_z
_atom_type_partial_charge
Zn0 Zn 0.02778 0.27515 0.24699 0.0
Zn1 Zn 0.99284 0.31432 0.24573 0.0
C2 C 0.04877 0.27143 0.20375 0.0
O3 O 0.03752 0.25255 0.20337 0.0
C4 C 0.98038 0.30332 0.29123 0.0
O5 O 0.99333 0.3205 0.29568 0.0
O6 O 0.04259 0.24711 0.25722 0.0
O7 O 0.03482 0.29831 0.27101 0.0
O8 O 0.02131 0.32767 0.25342 0.0
C9 C 0.06383 0.2476 0.25738 0.0
O10 O 0.07421 0.26628 0.25223 0.0
O11 O 0.046 0.2847 0.22012 0.0
C12 C 0.95138 0.33673 0.24506 0.0
O13 O 0.94459 0.31724 0.2525 0.0
O14 O 0.9718 0.33968 0.24009 0.0
O15 O 0.99483 0.29767 0.21768 0.0
O16 O 0.99658 0.26625 0.23626 0.0
O17 O 0.97914 0.29626 0.2712 0.0
C18 C 0.03541 0.31913 0.26662 0.0
C19 C 0.98885 0.27759 0.22006 0.0
Zn20 Zn 0.46744 0.72186 0.75184 0.0
Zn21 Zn 0.50098 0.67961 0.7493 0.0
C22 C 0.44783 0.71925 0.70759 0.0
O23 O 0.46185 0.73553 0.70295 0.0
C24 C 0.51832 0.68777 0.79153 0.0
O25 O 0.50858 0.66832 0.79453 0.0
O26 O 0.45213 0.75121 0.76057 0.0
O27 O 0.46174 0.69973 0.77742 0.0
O28 O 0.47229 0.66876 0.76017 0.0
C29 C 0.43083 0.75052 0.76193 0.0
O30 O 0.4207 0.73127 0.75879 0.0
O31 O 0.44803 0.71039 0.72691 0.0
C32 C 0.5382 0.65457 0.73206 0.0
O33 O 0.5402 0.67234 0.71927 0.0
O34 O 0.52179 0.65326 0.74554 0.0
O35 O 0.49854 0.6958 0.72072 0.0
O36 O 0.49855 0.72826 0.73795 0.0
O37 O 0.51643 0.69758 0.77278 0.0
C38 C 0.46034 0.67864 0.7746 0.0
C39 C 0.50428 0.71615 0.72135 0.0
Zn40 Zn 0.52941 0.22 0.745 0.0
Zn41 Zn 0.49543 0.18004 0.74691 0.0
C42 C 0.55107 0.22141 0.78673 0.0
O43 O 0.54046 0.24065 0.78656 0.0
C44 C 0.47911 0.18791 0.70335 0.0
O45 O 0.48995 0.16907 0.70023 0.0
O46 O 0.54566 0.24823 0.73736 0.0
O47 O 0.53319 0.19924 0.71861 0.0
O48 O 0.52453 0.16846 0.73694 0.0
C49 C 0.56244 0.24813 0.72429 0.0
O50 O 0.56795 0.22966 0.71379 0.0
O51 O 0.54814 0.20802 0.77048 0.0
C52 C 0.45449 0.15956 0.75398 0.0
O53 O 0.44918 0.18086 0.75382 0.0
O54 O 0.47491 0.15407 0.75184 0.0
O55 O 0.49601 0.19705 0.77537 0.0
O56 O 0.49891 0.2289 0.75722 0.0
O57 O 0.48022 0.19743 0.72232 0.0
C58 C 0.53561 0.17841 0.72186 0.0
C59 C 0.49208 0.21778 0.774 0.0
Zn60 Zn 0.96691 0.77129 0.246 0.0
Zn61 Zn 0.00348 0.81343 0.24691 0.0
C62 C 0.94533 0.77185 0.28847 0.0
O63 O 0.95646 0.75295 0.28992 0.0
C64 C 0.02143 0.80473 0.20475 0.0
O65 O 0.00896 0.82232 0.20056 0.0
O66 O 0.95138 0.74229 0.23826 0.0
O67 O 0.96337 0.79121 0.21909 0.0
O68 O 0.97499 0.8233 0.23356 0.0
C69 C 0.93022 0.74334 0.236 0.0
O70 O 0.92028 0.76278 0.23825 0.0
O71 O 0.94801 0.78399 0.27117 0.0
C72 C 0.03976 0.83906 0.26524 0.0
O73 O 0.04273 0.82054 0.27669 0.0
O74 O 0.02303 0.84056 0.25217 0.0
O75 O 6e-05 0.79642 0.2753 0.0
O76 O 0.99771 0.76409 0.25783 0.0
O77 O 0.02122 0.79624 0.22425 0.0
C78 C 0.96302 0.81243 0.2198 0.0
C79 C 0.00403 0.77564 0.27447 0.0
Zn80 Zn 0.24384 0.03566 0.27304 0.0
Zn81 Zn 0.24989 0.98463 0.31661 0.0
C82 C 0.20354 0.05793 0.29039 0.0
O83 O 0.19854 0.03913 0.30063 0.0
C84 C 0.29138 0.97247 0.29481 0.0
O85 O 0.29802 0.99266 0.30033 0.0
O86 O 0.2642 0.0482 0.24876 0.0
O87 O 0.25773 0.02952 0.30298 0.0
O88 O 0.26644 0.00919 0.33203 0.0
C89 C 0.26604 0.0694 0.2481 0.0
O90 O 0.25791 0.0813 0.26467 0.0
O91 O 0.22104 0.05919 0.27844 0.0
C92 C 0.23582 0.94302 0.33508 0.0
O93 O 0.23938 0.93666 0.31434 0.0
O94 O 0.23801 0.96357 0.3401 0.0
O95 O 0.22578 -0.00083 0.29814 0.0
O96 O 0.2271 0.00802 0.26276 0.0
O97 O 0.27122 0.96678 0.29828 0.0
C98 C 0.26683 0.02795 0.32208 0.0
C99 C 0.22152 0.99418 0.27796 0.0
Zn100 Zn 0.24578 0.96649 0.77647 0.0
Zn101 Zn 0.24588 0.00395 0.817 0.0
C102 C 0.28865 0.94371 0.77874 0.0
O103 O 0.29373 0.95773 0.76261 0.0
C104 C 0.20418 0.0243 0.81316 0.0
O105 O 0.20529 0.01938 0.83456 0.0
O106 O 0.23527 0.95185 0.74837 0.0
O107 O 0.2198 0.96568 0.79829 0.0
O108 O 0.23921 0.97403 0.8283 0.0
C109 C 0.23263 0.9308 0.74936 0.0
O110 O 0.23501 0.92057 0.76869 0.0
O111 O 0.26952 0.94491 0.78799 0.0
C112 C 0.25475 0.04476 0.83688 0.0
O113 O 0.2552 0.04978 0.81546 0.0
O114 O 0.25126 0.02461 0.84269 0.0
O115 O 0.27415 0.00491 0.80022 0.0
O116 O 0.26058 0.9958 0.76709 0.0
O117 O 0.21978 0.01773 0.80026 0.0
C118 C 0.22514 0.96168 0.81846 0.0
C119 C 0.2751 0.00557 0.77913 0.0
Zn120 Zn 0.74199 0.4622 0.72584 0.0
Zn121 Zn 0.75249 0.50601 0.68006 0.0
C122 C 0.69797 0.44318 0.7319 0.0
O123 O 0.6972 0.45575 0.7499 0.0
C124 C 0.79448 0.52245 0.68567 0.0
O125 O 0.7943 0.51464 0.66512 0.0
O126 O 0.75915 0.44663 0.75038 0.0
O127 O 0.75722 0.46201 0.69648 0.0
O128 O 0.7662 0.47923 0.66565 0.0
C129 C 0.75921 0.42538 0.74957 0.0
O130 O 0.75036 0.41541 0.7321 0.0
O131 O 0.71516 0.44375 0.71951 0.0
C132 C 0.74439 0.54877 0.66249 0.0
O133 O 0.74956 0.5539 0.68322 0.0
O134 O 0.7436 0.52834 0.65671 0.0
O135 O 0.72542 0.49825 0.6987 0.0
O136 O 0.73102 0.49277 0.73444 0.0
O137 O 0.77708 0.52014 0.6977 0.0
C138 C 0.76698 0.46185 0.67771 0.0
C139 C 0.72366 0.50509 0.71874 0.0
Zn140 Zn 0.74699 0.53003 0.22334 0.0
Zn141 Zn 0.74749 0.49666 0.1801 0.0
C142 C 0.79053 0.55032 0.21894 0.0
O143 O 0.79597 0.53522 0.23397 0.0
C144 C 0.70605 0.47795 0.1908 0.0
O145 O 0.70085 0.48977 0.17302 0.0
O146 O 0.74025 0.54379 0.25341 0.0
O147 O 0.71966 0.53498 0.20349 0.0
O148 O 0.73313 0.52431 0.17056 0.0
C149 C 0.73175 0.56327 0.25312 0.0
O150 O 0.72726 0.57285 0.23389 0.0
O151 O 0.77077 0.55055 0.21112 0.0
C152 C 0.75607 0.45644 0.15811 0.0
O153 O 0.75585 0.44987 0.17907 0.0
O154 O 0.75337 0.477 0.15348 0.0
O155 O 0.77594 0.50172 0.19555 0.0
O156 O 0.76018 0.4989 0.2284 0.0
O157 O 0.72579 0.47888 0.19856 0.0
C158 C 0.7195 0.53567 0.18217 0.0
C159 C 0.77518 0.49272 0.21466 0.0
Zn160 Zn 0.27421 0.25022 0.03228 0.0
Zn161 Zn 0.31322 0.2496 0.99164 0.0
C162 C 0.26972 0.21079 0.05734 0.0
O163 O 0.24956 0.21322 0.0489 0.0
C164 C 0.3061 0.29308 0.9769 0.0
O165 O 0.32571 0.2945 0.98674 0.0
O166 O 0.24602 0.26057 0.04791 0.0
O167 O 0.29746 0.27478 0.03521 0.0
O168 O 0.32631 0.25721 0.02047 0.0
C169 C 0.24675 0.26827 0.06774 0.0
O170 O 0.26627 0.27126 0.07737 0.0
O171 O 0.28491 0.22454 0.0516 0.0
C172 C 0.33369 0.24123 0.94982 0.0
O173 O 0.31253 0.23923 0.94416 0.0
O174 O 0.33859 0.24516 0.97013 0.0
O175 O 0.29659 0.22133 0.99316 0.0
O176 O 0.26455 0.23724 0.00222 0.0
O177 O 0.2954 0.27476 0.97811 0.0
C178 C 0.31819 0.26996 0.03527 0.0
C179 C 0.27546 0.22122 0.9935 0.0
Zn180 Zn 0.76952 0.24718 0.96634 0.0
Zn181 Zn 0.81362 0.24535 0.00349 0.0
C182 C 0.78324 0.29156 0.94575 0.0
O183 O 0.78076 0.30173 0.96503 0.0
C184 C 0.81094 0.2072 0.02838 0.0
O185 O 0.83195 0.20821 0.02199 0.0
O186 O 0.73996 0.23827 0.95211 0.0
O187 O 0.791 0.22066 0.96169 0.0
O188 O 0.82332 0.23223 0.97586 0.0
C189 C 0.74134 0.2313 0.932 0.0
O190 O 0.76119 0.22923 0.92282 0.0
O191 O 0.78 0.27061 0.94424 0.0
C192 C 0.83721 0.26129 0.04065 0.0
O193 O 0.81657 0.26572 0.04674 0.0
O194 O 0.8408 0.25279 0.02154 0.0
O195 O 0.79797 0.27353 -0.0017 0.0
O196 O 0.76345 0.26158 0.99724 0.0
O197 O 0.79728 0.22203 0.02155 0.0
C198 C 0.81235 0.22016 0.9624 0.0
C199 C 0.77814 0.27463 0.00542 0.0
Zn200 Zn 0.72271 0.75128 0.46384 0.0
Zn201 Zn 0.6818 0.74891 0.50184 0.0
C202 C 0.72703 0.71123 0.44012 0.0
O203 O 0.74651 0.7128 0.4502 0.0
C204 C 0.69337 0.79093 0.51907 0.0
O205 O 0.67565 0.79591 0.50706 0.0
O206 O 0.75159 0.76116 0.44877 0.0
O207 O 0.69977 0.77611 0.45971 0.0
O208 O 0.6692 0.76166 0.47491 0.0
C209 C 0.75057 0.76839 0.42873 0.0
O210 O 0.73086 0.77088 0.41931 0.0
O211 O 0.71231 0.72604 0.44402 0.0
C212 C 0.66266 0.73964 0.54402 0.0
O213 O 0.68397 0.74083 0.5493 0.0
O214 O 0.65696 0.74146 0.52359 0.0
O215 O 0.69693 0.72121 0.49318 0.0
O216 O 0.72982 0.73714 0.49435 0.0
O217 O 0.70106 0.77114 0.51843 0.0
C218 C 0.67858 0.77374 0.46023 0.0
C219 C 0.71714 0.72073 0.49915 0.0
Zn220 Zn 0.22242 0.74798 0.54201 0.0
Zn221 Zn 0.18321 0.74224 0.48774 0.0
C222 C 0.20257 0.78738 0.56183 0.0
O223 O 0.20163 0.795 0.54123 0.0
C224 C 0.19529 0.70027 0.47184 0.0
O225 O 0.17849 0.69494 0.48495 0.0
O226 O 0.24855 0.7318 0.55557 0.0
O227 O 0.19936 0.72922 0.52707 0.0
O228 O 0.16659 0.72686 0.51225 0.0
C229 C 0.24909 0.72941 0.5767 0.0
O230 O 0.23118 0.73431 0.58847 0.0
O231 O 0.20929 0.76758 0.56538 0.0
C232 C 0.16474 0.75612 0.4465 0.0
O233 O 0.18504 0.7515 0.43951 0.0
O234 O 0.16021 0.75445 0.46716 0.0
O235 O 0.2012 0.76657 0.50257 0.0
O236 O 0.23467 0.76747 0.51704 0.0
O237 O 0.2018 0.72042 0.47088 0.0
C238 C 0.17856 0.72568 0.52966 0.0
C239 C 0.22187 0.77095 0.50039 0.0
Zn240 Zn 0.00339 0.68241 0.74652 0.0
Zn241 Zn 0.96743 0.72551 0.74581 0.0
C242 C 0.01998 0.68955 0.70161 0.0
O243 O 0.00557 0.67387 0.69625 0.0
C244 C 0.94513 0.7261 0.78708 0.0
O245 O 0.95526 0.74561 0.78696 0.0
O246 O 0.02168 0.6549 0.75313 0.0
O247 O 0.00492 0.70118 0.77391 0.0
O248 O 0.9976 0.73425 0.75887 0.0
C249 C 0.04191 0.65975 0.75755 0.0
O250 O 0.04776 0.6809 0.75805 0.0
O251 O 0.02063 0.6969 0.72154 0.0
C252 C 0.9298 0.75233 0.73488 0.0
O253 O 0.92017 0.73277 0.73771 0.0
O254 O 0.95097 0.75377 0.73688 0.0
O255 O 0.96503 0.70469 0.7194 0.0
O256 O 0.97306 0.67337 0.73722 0.0
O257 O 0.9487 0.71275 0.77093 0.0
C258 C 0.00718 0.72225 0.77361 0.0
C259 C 0.96171 0.68401 0.72283 0.0
Zn260 Zn 0.49459 0.31529 0.2498 0.0
Zn261 Zn 0.52979 0.27436 0.24694 0.0
C262 C 0.47921 0.30518 0.20587 0.0
O263 O 0.49126 0.32292 0.2011 0.0
C264 C 0.55105 0.27795 0.29166 0.0
O265 O 0.53506 0.26472 0.29887 0.0
O266 O 0.47289 0.34034 0.25553 0.0
O267 O 0.49784 0.29899 0.2781 0.0
O268 O 0.49903 0.26693 0.26034 0.0
C269 C 0.4525 0.33431 0.25647 0.0
O270 O 0.44751 0.31296 0.25537 0.0
O271 O 0.4794 0.29737 0.22566 0.0
C272 C 0.56489 0.24645 0.2332 0.0
O273 O 0.57511 0.26579 0.23527 0.0
O274 O 0.54387 0.24552 0.23652 0.0
O275 O 0.53443 0.29692 0.22188 0.0
O276 O 0.52294 0.32739 0.23937 0.0
O277 O 0.55108 0.2844 0.27139 0.0
C278 C 0.49273 0.27855 0.27698 0.0
C279 C 0.53565 0.31789 0.22532 0.0
Zn280 Zn 0.50227 0.81271 0.24503 0.0
Zn281 Zn 0.46588 0.77178 0.24974 0.0
C282 C 0.51903 0.80327 0.2883 0.0
O283 O 0.50709 0.82109 0.29289 0.0
C284 C 0.44417 0.77354 0.2071 0.0
O285 O 0.45667 0.75579 0.20378 0.0
O286 O 0.52291 0.83917 0.23912 0.0
O287 O 0.49883 0.79528 0.2172 0.0
O288 O 0.49622 0.76386 0.23628 0.0
C289 C 0.54374 0.83474 0.23918 0.0
O290 O 0.55014 0.8138 0.24073 0.0
O291 O 0.51857 0.79516 0.26866 0.0
C292 C 0.43113 0.74347 0.26712 0.0
O293 O 0.42226 0.76299 0.27183 0.0
O294 O 0.4505 0.74279 0.25828 0.0
O295 O 0.46329 0.79343 0.27567 0.0
O296 O 0.47384 0.82373 0.2571 0.0
O297 O 0.44578 0.78402 0.22551 0.0
C298 C 0.50254 0.77454 0.21899 0.0
C299 C 0.46251 0.81447 0.27251 0.0
Zn300 Zn 0.98879 0.18293 0.75032 0.0
Zn301 Zn 0.03719 0.22444 0.74721 0.0
C302 C 0.97509 0.19421 0.79435 0.0
O303 O 0.98907 0.17804 0.79935 0.0
C304 C 0.05562 0.2109 0.70404 0.0
O305 O 0.03654 0.21806 0.69589 0.0
O306 O 0.96793 0.15899 0.74002 0.0
O307 O -0.00119 0.20133 0.72454 0.0
O308 O 0.0096 0.23584 0.73051 0.0
C309 C 0.94736 0.16152 0.74446 0.0
O310 O 0.94039 0.18021 0.7535 0.0
O311 O 0.9736 0.20082 0.77421 0.0
C312 C 0.07408 0.25084 0.76211 0.0
O313 O 0.08511 0.23398 0.75342 0.0
O314 O 0.05281 0.25045 0.76229 0.0
O315 O 0.02771 0.20125 0.76952 0.0
O316 O 0.01543 0.16783 0.7617 0.0
O317 O 0.05875 0.21109 0.72507 0.0
C318 C 0.9951 0.22212 0.72309 0.0
C319 C 0.03143 0.18043 0.76739 0.0
Zn320 Zn 0.7453 0.00064 0.68095 0.0
Zn321 Zn 0.74542 0.96576 0.72233 0.0
C322 C 0.70363 0.01684 0.69067 0.0
O323 O 0.70152 0.00815 0.67059 0.0
C324 C 0.79074 0.94632 0.71813 0.0
O325 O 0.79723 0.96256 0.7314 0.0
O326 O 0.74929 0.02207 0.65541 0.0
O327 O 0.77413 0.99636 0.69549 0.0
O328 O 0.75873 0.99673 0.72869 0.0
C329 C 0.75599 0.04183 0.65943 0.0
O330 O 0.76118 0.04744 0.68004 0.0
O331 O 0.72231 0.01508 0.70063 0.0
C332 C 0.73517 0.93067 0.752 0.0
O333 O 0.74072 0.91942 0.73399 0.0
O334 O 0.73543 0.95194 0.75155 0.0
O335 O 0.71946 0.96028 0.70084 0.0
O336 O 0.73392 0.97276 0.66912 0.0
O337 O 0.77047 0.94543 0.71171 0.0
C338 C 0.77388 0.00351 0.71534 0.0
C339 C 0.72061 0.96002 0.67956 0.0
Zn340 Zn 0.75437 0.98943 0.1803 0.0
Zn341 Zn 0.74759 0.03395 0.22421 0.0
C342 C 0.79589 0.97311 0.19089 0.0
O343 O 0.79968 0.98437 0.17238 0.0
C344 C 0.70424 0.05321 0.21227 0.0
O345 O 0.69602 0.03427 0.21976 0.0
O346 O 0.74756 0.96894 0.15532 0.0
O347 O 0.72607 -0.00218 0.19629 0.0
O348 O 0.73112 0.00494 0.23209 0.0
C349 C 0.73475 0.95226 0.15796 0.0
O350 O 0.72468 0.94924 0.17729 0.0
O351 O 0.77645 0.9735 0.19941 0.0
C352 C 0.762 0.07006 0.25161 0.0
O353 O 0.75557 0.08109 0.23374 0.0
O354 O 0.76105 0.04879 0.25171 0.0
O355 O 0.77092 0.02626 0.20171 0.0
O356 O 0.76707 0.01648 0.16698 0.0
O357 O 0.72533 0.05592 0.21147 0.0
C358 C 0.7227 0.99283 0.21666 0.0
C359 C 0.77082 0.03165 0.18116 0.0
Zn360 Zn 0.24935 0.49677 0.31463 0.0
Zn361 Zn 0.24598 0.5291 0.27213 0.0
C362 C 0.2096 0.47545 0.3105 0.0
O363 O 0.21047 0.48201 0.33145 0.0
C364 C 0.28727 0.55212 0.27126 0.0
O365 O 0.28872 0.54004 0.25296 0.0
O366 O 0.25701 0.47553 0.34003 0.0
O367 O 0.27704 0.50326 0.29813 0.0
O368 O 0.26068 0.49881 0.26583 0.0
C369 C 0.25857 0.4551 0.33428 0.0
O370 O 0.25726 0.44994 0.31295 0.0
O371 O 0.22553 0.48054 0.29732 0.0
C372 C 0.23141 0.56394 0.24341 0.0
O373 O 0.23119 0.57447 0.26265 0.0
O374 O 0.23707 0.54344 0.24274 0.0
O375 O 0.21925 0.53204 0.29311 0.0
O376 O 0.23509 0.52367 0.32565 0.0
O377 O 0.27009 0.54991 0.28363 0.0
C378 C 0.27709 0.49486 0.27877 0.0
C379 C 0.21982 0.53321 0.3144 0.0
Zn380 Zn 0.24639 0.50091 0.8127 0.0
Zn381 Zn 0.25014 0.46804 0.77004 0.0
C382 C 0.28968 0.51828 0.80495 0.0
O383 O 0.29413 0.50477 0.8217 0.0
C384 C 0.20885 0.44622 0.76722 0.0
O385 O 0.21026 0.45583 0.74747 0.0
O386 O 0.24014 0.52001 0.8398 0.0
O387 O 0.21873 0.49908 0.79431 0.0
O388 O 0.23842 0.49933 0.76316 0.0
C389 C 0.23291 0.53964 0.83593 0.0
O390 O 0.22814 0.54528 0.81521 0.0
O391 O 0.27005 0.51873 0.79683 0.0
C392 C 0.26535 0.43242 0.74231 0.0
O393 O 0.269 0.42385 0.76222 0.0
O394 O 0.25799 0.45235 0.74088 0.0
O395 O 0.27577 0.46242 0.79145 0.0
O396 O 0.25833 0.47176 0.82278 0.0
O397 O 0.22413 0.44995 0.78151 0.0
C398 C 0.22089 0.50469 0.77398 0.0
C399 C 0.2729 0.46033 0.81244 0.0
Zn400 Zn 0.68417 0.74444 0.00437 0.0
Zn401 Zn 0.72395 0.74605 0.96377 0.0
C402 C 0.69495 0.70153 0.01918 0.0
O403 O 0.67675 0.69783 0.00743 0.0
C404 C 0.72698 0.7858 0.9398 0.0
O405 O 0.74691 0.78419 0.94897 0.0
O406 O 0.65953 0.75073 0.02629 0.0
O407 O 0.69904 0.77281 0.99759 0.0
O408 O 0.73283 0.7593 0.99425 0.0
C409 C 0.66439 0.75095 0.047 0.0
O410 O 0.68515 0.74722 0.05321 0.0
O411 O 0.70346 0.72101 0.01905 0.0
C412 C 0.7521 0.72582 0.9296 0.0
O413 O 0.7329 0.71834 0.92199 0.0
O414 O 0.75249 0.737 0.94771 0.0
O415 O 0.70105 0.72086 0.96005 0.0
O416 O 0.6709 0.73409 0.97691 0.0
O417 O 0.71225 0.77136 0.94482 0.0
C418 C 0.7194 0.77326 0.00298 0.0
C419 C 0.67988 0.72337 0.96105 0.0
Zn420 Zn 0.18283 0.74638 0.99411 0.0
Zn421 Zn 0.22443 0.74849 0.0292 0.0
C422 C 0.18408 0.7888 0.97646 0.0
O423 O 0.16378 0.78717 0.98478 0.0
C424 C 0.22841 0.70859 0.05325 0.0
O425 O 0.24823 0.71045 0.04388 0.0
O426 O 0.15583 0.74132 0.97447 0.0
O427 O 0.20134 0.71902 0.99176 0.0
O428 O 0.23368 0.73541 -0.00116 0.0
C429 C 0.16027 0.73932 0.95377 0.0
O430 O 0.18126 0.73974 0.9473 0.0
O431 O 0.19783 0.77296 0.97993 0.0
C432 C 0.25157 0.76258 0.06583 0.0
O433 O 0.23204 0.7611 0.07582 0.0
O434 O 0.25277 0.75858 0.04493 0.0
O435 O 0.20204 0.77389 0.03311 0.0
O436 O 0.17201 0.75439 0.02409 0.0
O437 O 0.21347 0.72289 0.04837 0.0
C438 C 0.22237 0.72005 0.9894 0.0
C439 C 0.18114 0.77017 0.03488 0.0
Zn440 Zn 0.31629 0.24615 0.49461 0.0
Zn441 Zn 0.2753 0.24787 0.52847 0.0
C442 C 0.30414 0.20339 0.47733 0.0
O443 O 0.32059 0.19729 0.49055 0.0
C444 C 0.27499 0.29121 0.54872 0.0
O445 O 0.25721 0.29307 0.53591 0.0
O446 O 0.34204 0.25106 0.47399 0.0
O447 O 0.30198 0.27582 0.49788 0.0
O448 O 0.26898 0.26015 0.49697 0.0
C449 C 0.33607 0.25442 0.45387 0.0
O450 O 0.31465 0.25589 0.44913 0.0
O451 O 0.29758 0.22361 0.47753 0.0
C452 C 0.247 0.23745 0.56398 0.0
O453 O 0.26653 0.23943 0.57388 0.0
O454 O 0.24588 0.24013 0.54288 0.0
O455 O 0.29552 0.22133 0.53568 0.0
O456 O 0.32788 0.23349 0.5225 0.0
O457 O 0.28667 0.27349 0.54751 0.0
C458 C 0.28182 0.27621 0.49153 0.0
C459 C 0.31681 0.22113 0.5357 0.0
Zn460 Zn 0.81631 0.2507 0.50315 0.0
Zn461 Zn 0.7738 0.24859 0.46706 0.0
C462 C 0.81099 0.29348 0.51905 0.0
O463 O 0.83105 0.29377 0.51002 0.0
C464 C 0.77019 0.20687 0.44626 0.0
O465 O 0.75065 0.20868 0.4562 0.0
O466 O 0.84242 0.2458 0.52413 0.0
O467 O 0.79988 0.2223 0.50304 0.0
O468 O 0.76608 0.23616 0.49803 0.0
C469 C 0.83727 0.24444 0.54475 0.0
O470 O 0.81622 0.2468 0.55063 0.0
O471 O 0.79908 0.27601 0.51685 0.0
C472 C 0.74573 0.25852 0.43007 0.0
O473 O 0.76493 0.25468 0.42006 0.0
O474 O 0.74491 0.2576 0.45136 0.0
O475 O 0.79593 0.27389 0.46088 0.0
O476 O 0.82756 0.25947 0.47374 0.0
O477 O 0.78469 0.2221 0.44933 0.0
C478 C 0.77907 0.22172 0.50676 0.0
C479 C 0.81718 0.27223 0.46037 0.0
H480 H 0.0385 0.36406 0.26219 0.0
H481 H 0.07084 0.38745 0.26941 0.0
H482 H 0.10644 0.33075 0.2963 0.0
H483 H 0.07391 0.30668 0.28867 0.0
H484 H 0.10805 0.37277 0.32181 0.0
H485 H 0.12281 0.34513 0.24738 0.0
H486 H 0.11256 0.33611 0.20849 0.0
H487 H 0.09605 0.40491 0.1963 0.0
H488 H 0.10614 0.41435 0.23523 0.0
H489 H 0.20765 0.43433 0.32787 0.0
H490 H 0.18001 0.40525 0.32034 0.0
H491 H 0.14629 0.44956 0.27416 0.0
H492 H 0.17529 0.47807 0.28054 0.0
H493 H 0.14549 0.41039 0.25782 0.0
H494 H 0.12746 0.43893 0.33057 0.0
H495 H 0.13227 0.44939 0.37021 0.0
H496 H 0.14951 0.38161 0.38652 0.0
H497 H 0.14502 0.37079 0.34694 0.0
C498 C 0.05309 0.35644 0.26978 0.0
C499 C 0.05376 0.33343 0.27465 0.0
C500 C 0.07159 0.36986 0.27376 0.0
C501 C 0.09105 0.36063 0.28283 0.0
C502 C 0.09152 0.33797 0.28896 0.0
C503 C 0.07294 0.32435 0.28477 0.0
C504 C 0.11063 0.37513 0.28604 0.0
C505 C 0.11672 0.38065 0.30791 0.0
C506 C 0.12102 0.38596 0.26774 0.0
C507 C 0.11516 0.38042 0.24424 0.0
C508 C 0.11691 0.35832 0.23644 0.0
C509 C 0.11116 0.35314 0.21437 0.0
C510 C 0.10363 0.36991 0.19991 0.0
C511 C 0.10191 0.39194 0.2075 0.0
C512 C 0.10772 0.39723 0.22955 0.0
C513 C 0.19456 0.43756 0.31578 0.0
C514 C 0.19356 0.45807 0.30452 0.0
C515 C 0.17858 0.42115 0.31175 0.0
C516 C 0.16073 0.42538 0.29711 0.0
C517 C 0.1599 0.44592 0.28557 0.0
C518 C 0.17638 0.46215 0.28914 0.0
C519 C 0.14307 0.40833 0.29382 0.0
C520 C 0.1372 0.40237 0.27186 0.0
C521 C 0.1325 0.39742 0.31211 0.0
C522 C 0.13619 0.40412 0.33574 0.0
C523 C 0.13256 0.42632 0.34256 0.0
C524 C 0.13515 0.43229 0.36503 0.0
C525 C 0.14126 0.41619 0.38086 0.0
C526 C 0.14483 0.39408 0.37424 0.0
C527 C 0.14226 0.38802 0.3518 0.0
H528 H 0.14317 0.42083 0.39826 0.0
H529 H 0.09916 0.36584 0.18284 0.0
H530 H 0.2814 0.56237 0.79828 0.0
H531 H 0.3091 0.59238 0.79619 0.0
H532 H 0.36221 0.54336 0.79622 0.0
H533 H 0.33446 0.51346 0.79989 0.0
H534 H 0.37207 0.57282 0.82447 0.0
H535 H 0.34708 0.57715 0.74813 0.0
H536 H 0.31918 0.58003 0.71784 0.0
H537 H 0.29728 0.64338 0.7435 0.0
H538 H 0.32498 0.64082 0.77404 0.0
H539 H 0.46232 0.63449 0.78323 0.0
H540 H 0.43125 0.61011 0.79229 0.0
H541 H 0.38833 0.66748 0.8012 0.0
H542 H 0.4196 0.69225 0.79102 0.0
H543 H 0.37081 0.63737 0.77229 0.0
H544 H 0.40309 0.63244 0.84648 0.0
H545 H 0.43528 0.6278 0.87193 0.0
H546 H 0.44774 0.56249 0.84491 0.0
H547 H 0.41576 0.56679 0.8192 0.0
C548 C 0.29899 0.55806 0.79731 0.0
C549 C 0.30593 0.53571 0.79911 0.0
C550 C 0.31482 0.57521 0.7961 0.0
C551 C 0.33781 0.57019 0.79592 0.0
C552 C 0.34461 0.54769 0.79653 0.0
C553 C 0.3288 0.53062 0.79842 0.0
C554 C 0.35483 0.58827 0.79672 0.0
C555 C 0.37183 0.58683 0.81292 0.0
C556 C 0.35432 0.60689 0.78206 0.0
C557 C 0.3379 0.60866 0.76352 0.0
C558 C 0.33622 0.59163 0.74738 0.0
C559 C 0.32046 0.59321 0.73017 0.0
C560 C 0.30634 0.61178 0.72886 0.0
C561 C 0.30812 0.62893 0.74463 0.0
C562 C 0.3239 0.62747 0.76185 0.0
C563 C 0.44642 0.64201 0.78765 0.0
C564 C 0.44327 0.66523 0.7862 0.0
C565 C 0.42867 0.62802 0.79299 0.0
C566 C 0.40748 0.63695 0.79759 0.0
C567 C 0.4046 0.66029 0.79774 0.0
C568 C 0.42247 0.67441 0.79216 0.0
C569 C 0.38816 0.62161 0.79971 0.0
C570 C 0.37071 0.62356 0.78409 0.0
C571 C 0.38863 0.6031 0.81445 0.0
C572 C 0.40698 0.59994 0.83093 0.0
C573 C 0.41265 0.61706 0.84603 0.0
C574 C 0.43088 0.6145 0.86047 0.0
C575 C 0.44354 0.59487 0.86004 0.0
C576 C 0.43788 0.57766 0.84528 0.0
C577 C 0.41964 0.58011 0.83083 0.0
H578 H 0.45773 0.59298 0.87113 0.0
H579 H 0.29414 0.61297 0.71553 0.0
H580 H 0.53473 0.14316 0.6936 0.0
H581 H 0.5655 0.11669 0.68794 0.0
H582 H 0.60929 0.15954 0.72624 0.0
H583 H 0.57891 0.18652 0.73063 0.0
H584 H 0.63308 0.13832 0.69775 0.0
H585 H 0.57727 0.11756 0.75077 0.0
H586 H 0.53916 0.10961 0.76452 0.0
H587 H 0.53336 0.05516 0.71811 0.0
H588 H 0.57129 0.06304 0.70376 0.0
H589 H 0.70625 0.04819 0.72412 0.0
H590 H 0.67799 0.07664 0.73296 0.0
H591 H 0.63273 0.04647 0.68552 0.0
H592 H 0.66052 0.01804 0.67687 0.0
H593 H 0.61115 0.06233 0.7231 0.0
H594 H 0.67115 0.08592 0.67193 0.0
H595 H 0.71076 0.09442 0.66409 0.0
H596 H 0.70982 0.1463 0.7137 0.0
H597 H 0.67057 0.13727 0.72274 0.0
C598 C 0.55126 0.14728 0.69983 0.0
C599 C 0.55474 0.16673 0.71236 0.0
C600 C 0.5687 0.1321 0.69689 0.0
C601 C 0.58943 0.1358 0.70739 0.0
C602 C 0.59341 0.15627 0.71815 0.0
C603 C 0.57613 0.17173 0.72053 0.0
C604 C 0.60599 0.1175 0.7093 0.0
C605 C 0.62834 0.12177 0.7035 0.0
C606 C 0.59985 0.09601 0.71726 0.0
C607 C 0.57708 0.09103 0.72604 0.0
C608 C 0.56782 0.10397 0.74339 0.0
C609 C 0.54625 0.09949 0.75129 0.0
C610 C 0.53383 0.08192 0.74216 0.0
C611 C 0.54299 0.06878 0.72514 0.0
C612 C 0.56453 0.07326 0.71711 0.0
C613 C 0.69004 0.04731 0.71605 0.0
C614 C 0.68566 0.03116 0.69953 0.0
C615 C 0.67399 0.06359 0.72106 0.0
C616 C 0.65351 0.06384 0.70953 0.0
C617 C 0.6485 0.04662 0.69447 0.0
C618 C 0.66446 0.03046 0.68946 0.0
C619 C 0.63806 0.08304 0.71103 0.0
C620 C 0.61588 0.07895 0.71752 0.0
C621 C 0.64455 0.10486 0.7044 0.0
C622 C 0.66799 0.1106 0.69833 0.0
C623 C 0.67947 0.09889 0.68144 0.0
C624 C 0.70191 0.10372 0.67687 0.0
C625 C 0.71284 0.1208 0.68848 0.0
C626 C 0.70138 0.133 0.70478 0.0
C627 C 0.67908 0.12791 0.70976 0.0
H628 H 0.73013 0.12469 0.68472 0.0
H629 H 0.51713 0.07847 0.7483 0.0
H630 H 0.91949 0.80084 0.21667 0.0
H631 H 0.88887 0.82688 0.21036 0.0
H632 H 0.93628 0.87765 0.19017 0.0
H633 H 0.96706 0.85189 0.19804 0.0
H634 H 0.91297 0.89168 0.22363 0.0
H635 H 0.8942 0.85558 0.15395 0.0
H636 H 0.88622 0.82276 0.13029 0.0
H637 H 0.82947 0.80649 0.17132 0.0
H638 H 0.83722 0.83913 0.19535 0.0
H639 H 0.84051 0.97492 0.18344 0.0
H640 H 0.86769 0.9453 0.19023 0.0
H641 H 0.81668 0.90545 0.22232 0.0
H642 H 0.78924 0.93525 0.21568 0.0
H643 H 0.83924 0.88402 0.18632 0.0
H644 H 0.85697 0.92296 0.25384 0.0
H645 H 0.86593 0.95577 0.27714 0.0
H646 H 0.92585 0.967 0.23903 0.0
H647 H 0.91711 0.93443 0.2153 0.0
C648 C 0.92327 0.81724 0.21001 0.0
C649 C 0.94545 0.8246 0.20806 0.0
C650 C 0.90576 0.83215 0.20638 0.0
C651 C 0.91033 0.85428 0.19999 0.0
C652 C 0.93246 0.86071 0.19538 0.0
C653 C 0.94998 0.84601 0.19967 0.0
C654 C 0.89272 0.87148 0.20157 0.0
C655 C 0.897 0.89019 0.21512 0.0
C656 C 0.87153 0.86892 0.1914 0.0
C657 C 0.86635 0.84975 0.17651 0.0
C658 C 0.88004 0.84498 0.15795 0.0
C659 C 0.87556 0.82641 0.14447 0.0
C660 C 0.85737 0.81253 0.14932 0.0
C661 C 0.84354 0.81727 0.16758 0.0
C662 C 0.84793 0.83584 0.1811 0.0
C663 C 0.8352 0.96008 0.19241 0.0
C664 C 0.81282 0.95728 0.19895 0.0
C665 C 0.85072 0.94322 0.1963 0.0
C666 C 0.84407 0.92328 0.20671 0.0
C667 C 0.822 0.9208 0.21425 0.0
C668 C 0.80645 0.93784 0.21059 0.0
C669 C 0.85991 0.9045 0.20765 0.0
C670 C 0.85524 0.88542 0.1948 0.0
C671 C 0.88086 0.90678 0.21828 0.0
C672 C 0.88629 0.92631 0.23267 0.0
C673 C 0.87198 0.93251 0.25031 0.0
C674 C 0.87704 0.95105 0.26363 0.0
C675 C 0.89642 0.96348 0.25954 0.0
C676 C 0.91083 0.95735 0.24218 0.0
C677 C 0.90585 0.93883 0.22881 0.0
H678 H 0.9003 0.97784 0.26985 0.0
H679 H 0.85397 0.79813 0.1389 0.0
H680 H 0.29412 0.1593 0.48081 0.0
H681 H 0.28851 0.13281 0.45021 0.0
H682 H 0.29599 0.18642 0.40225 0.0
H683 H 0.29975 0.21317 0.43306 0.0
H684 H 0.26875 0.15923 0.38517 0.0
H685 H 0.34095 0.14782 0.4177 0.0
H686 H 0.36997 0.14043 0.44613 0.0
H687 H 0.33868 0.07783 0.46244 0.0
H688 H 0.30934 0.08496 0.43435 0.0
H689 H 0.2842 0.06713 0.30577 0.0
H690 H 0.29304 0.10102 0.3275 0.0
H691 H 0.27032 0.06807 0.3877 0.0
H692 H 0.26228 0.03436 0.36644 0.0
H693 H 0.31205 0.08875 0.39173 0.0
H694 H 0.23573 0.10672 0.36201 0.0
H695 H 0.21352 0.10904 0.32724 0.0
H696 H 0.25981 0.15706 0.30044 0.0
H697 H 0.28233 0.15492 0.33505 0.0
C698 C 0.29401 0.16543 0.46373 0.0
C699 C 0.29725 0.18819 0.45924 0.0
C700 C 0.29116 0.15028 0.4462 0.0
C701 C 0.29268 0.15741 0.42378 0.0
C702 C 0.29491 0.18039 0.41932 0.0
C703 C 0.29698 0.19569 0.43693 0.0
C704 C 0.29261 0.14074 0.40525 0.0
C705 C 0.27848 0.144 0.38659 0.0
C706 C 0.30566 0.12093 0.40648 0.0
C707 C 0.32283 0.11705 0.42403 0.0
C708 C 0.34012 0.1326 0.42752 0.0
C709 C 0.35667 0.12842 0.44354 0.0
C710 C 0.35614 0.1087 0.45611 0.0
C711 C 0.33906 0.09312 0.45272 0.0
C712 C 0.32248 0.09722 0.43675 0.0
C713 C 0.28133 0.06722 0.32367 0.0
C714 C 0.27301 0.04812 0.33458 0.0
C715 C 0.28623 0.08652 0.33599 0.0
C716 C 0.28235 0.08692 0.35918 0.0
C717 C 0.27371 0.06793 0.36988 0.0
C718 C 0.26922 0.04867 0.35774 0.0
C719 C 0.28734 0.10677 0.37295 0.0
C720 C 0.30259 0.1042 0.39046 0.0
C721 C 0.27575 0.12715 0.3704 0.0
C722 C 0.26062 0.13074 0.3511 0.0
C723 C 0.241 0.11796 0.34879 0.0
C724 C 0.2285 0.11906 0.32903 0.0
C725 C 0.23541 0.13301 0.31155 0.0
C726 C 0.25457 0.14618 0.31395 0.0
C727 C 0.26714 0.14512 0.33368 0.0
H728 H 0.22576 0.13387 0.29626 0.0
H729 H 0.369 0.10547 0.46845 0.0
H730 H 0.18417 0.94203 0.82403 0.0
H731 H 0.17625 0.90927 0.84782 0.0
H732 H 0.2471 0.90072 0.85931 0.0
H733 H 0.2549 0.93304 0.83573 0.0
H734 H 0.22689 0.86133 0.8568 0.0
H735 H 0.21659 0.93149 0.89391 0.0
H736 H 0.20041 0.96904 0.89906 0.0
H737 H 0.13487 0.94033 0.90575 0.0
H738 H 0.1506 0.90258 0.90014 0.0
H739 H 0.22518 0.80263 0.96119 0.0
H740 H 0.23258 0.83053 0.93194 0.0
H741 H 0.16153 0.84142 0.92454 0.0
H742 H 0.15417 0.8146 0.95422 0.0
H743 H 0.18177 0.87941 0.92408 0.0
H744 H 0.1958 0.80735 0.88745 0.0
H745 H 0.21517 0.77144 0.88118 0.0
H746 H 0.278 0.80584 0.87523 0.0
H747 H 0.25907 0.84189 0.88172 0.0
C748 C 0.19794 0.93269 0.83122 0.0
C749 C 0.22005 0.94003 0.82855 0.0
C750 C 0.19346 0.91414 0.84481 0.0
C751 C 0.21112 0.90291 0.85561 0.0
C752 C 0.23326 0.90922 0.85124 0.0
C753 C 0.23768 0.92773 0.83792 0.0
C754 C 0.20683 0.88622 0.87329 0.0
C755 C 0.21703 0.86521 0.87155 0.0
C756 C 0.1942 0.89154 0.89258 0.0
C757 C 0.18474 0.91421 0.8963 0.0
C758 C 0.1987 0.93318 0.89628 0.0
C759 C 0.18961 0.95451 0.89929 0.0
C760 C 0.16662 0.95707 0.90265 0.0
C761 C 0.15267 0.93831 0.90308 0.0
C762 C 0.16166 0.91694 0.89996 0.0
C763 C 0.21122 0.81119 0.95342 0.0
C764 C 0.18913 0.80653 0.96004 0.0
C765 C 0.21543 0.82694 0.93659 0.0
C766 C 0.19757 0.83779 0.92576 0.0
C767 C 0.17558 0.83331 0.93264 0.0
C768 C 0.1714 0.81797 0.94968 0.0
C769 C 0.20145 0.85411 0.90748 0.0
C770 C 0.19136 0.87528 0.90922 0.0
C771 C 0.21466 0.84909 0.88843 0.0
C772 C 0.22604 0.82728 0.88532 0.0
C773 C 0.21378 0.80722 0.88505 0.0
C774 C 0.22467 0.78685 0.8814 0.0
C775 C 0.2478 0.78635 0.87787 0.0
C776 C 0.2601 0.80623 0.87801 0.0
C777 C 0.2493 0.82662 0.88168 0.0
H778 H 0.25618 0.77058 0.87496 0.0
H779 H 0.15961 0.9736 0.90499 0.0
H780 H 0.77287 0.29618 0.54454 0.0
H781 H 0.76532 0.32283 0.57473 0.0
H782 H 0.82716 0.35708 0.56 0.0
H783 H 0.8348 0.33072 0.52987 0.0
H784 H 0.8236 0.34694 0.60424 0.0
H785 H 0.77956 0.38068 0.54701 0.0
H786 H 0.75082 0.38491 0.51774 0.0
H787 H 0.69935 0.36944 0.5655 0.0
H788 H 0.72784 0.36469 0.59501 0.0
H789 H 0.80294 0.45616 0.65062 0.0
H790 H 0.81202 0.42259 0.62894 0.0
H791 H 0.75757 0.38732 0.66068 0.0
H792 H 0.74891 0.42059 0.68298 0.0
H793 H 0.75614 0.39468 0.61135 0.0
H794 H 0.80288 0.36581 0.66971 0.0
H795 H 0.83299 0.36788 0.69783 0.0
H796 H 0.88118 0.38008 0.6459 0.0
H797 H 0.85131 0.37843 0.61746 0.0
C798 C 0.78466 0.30962 0.54748 0.0
C799 C 0.8045 0.31126 0.53491 0.0
C800 C 0.78034 0.32479 0.56475 0.0
C801 C 0.7958 0.34177 0.56967 0.0
C802 C 0.81515 0.34394 0.55658 0.0
C803 C 0.8194 0.32892 0.53928 0.0
C804 C 0.79235 0.35677 0.58901 0.0
C805 C 0.8089 0.35747 0.60574 0.0
C806 C 0.77299 0.37018 0.59111 0.0
C807 C 0.7559 0.37188 0.57314 0.0
C808 C 0.76216 0.37775 0.5512 0.0
C809 C 0.7459 0.38036 0.53458 0.0
C810 C 0.72329 0.37733 0.53973 0.0
C811 C 0.71689 0.37167 0.56151 0.0
C812 C 0.73309 0.36899 0.57818 0.0
C813 C 0.7934 0.441 0.65342 0.0
C814 C 0.77518 0.44084 0.66821 0.0
C815 C 0.79864 0.42188 0.64117 0.0
C816 C 0.7854 0.40263 0.64328 0.0
C817 C 0.76802 0.40204 0.65904 0.0
C818 C 0.76313 0.42098 0.67172 0.0
C819 C 0.78734 0.38486 0.62639 0.0
C820 C 0.77058 0.38374 0.61003 0.0
C821 C 0.80669 0.37152 0.62441 0.0
C822 C 0.82479 0.37218 0.64145 0.0
C823 C 0.81987 0.36912 0.66428 0.0
C824 C 0.8369 0.37017 0.68028 0.0
C825 C 0.85898 0.37416 0.67366 0.0
C826 C 0.86407 0.377 0.651 0.0
C827 C 0.84709 0.37597 0.63493 0.0
H828 H 0.87214 0.37501 0.68608 0.0
H829 H 0.71072 0.37947 0.52687 0.0
H830 H 0.71417 0.57903 0.19392 0.0
H831 H 0.70749 0.60919 0.16749 0.0
H832 H 0.68964 0.56102 0.11676 0.0
H833 H 0.69733 0.53069 0.14309 0.0
H834 H 0.72452 0.58549 0.10422 0.0
H835 H 0.65037 0.60274 0.13321 0.0
H836 H 0.62472 0.60838 0.16511 0.0
H837 H 0.66562 0.66249 0.18872 0.0
H838 H 0.69162 0.657 0.15703 0.0
H839 H 0.68896 0.65668 0.01698 0.0
H840 H 0.69354 0.62966 0.04731 0.0
H841 H 0.71997 0.68151 0.0899 0.0
H842 H 0.71575 0.7087 0.05937 0.0
H843 H 0.68341 0.65731 0.10855 0.0
H844 H 0.75448 0.64295 0.07587 0.0
H845 H 0.78177 0.63505 0.04595 0.0
H846 H 0.74815 0.57335 0.03115 0.0
H847 H 0.72045 0.58101 0.0608 0.0
C848 C 0.70771 0.57492 0.17754 0.0
C849 C 0.70648 0.55266 0.17039 0.0
C850 C 0.70397 0.5922 0.16235 0.0
C851 C 0.69833 0.58731 0.14008 0.0
C852 C 0.69425 0.56509 0.13381 0.0
C853 C 0.69841 0.54782 0.14888 0.0
C854 C 0.70024 0.60475 0.12268 0.0
C855 C 0.71517 0.60103 0.10493 0.0
C856 C 0.68896 0.62538 0.12434 0.0
C857 C 0.67278 0.62962 0.14267 0.0
C858 C 0.65379 0.61593 0.14514 0.0
C859 C 0.63924 0.61905 0.16321 0.0
C860 C 0.6435 0.63583 0.17889 0.0
C861 C 0.66232 0.64953 0.17653 0.0
C862 C 0.67695 0.64644 0.15851 0.0
C863 C 0.69627 0.66221 0.03261 0.0
C864 C 0.70201 0.68474 0.03582 0.0
C865 C 0.69885 0.64679 0.04992 0.0
C866 C 0.70701 0.65366 0.07081 0.0
C867 C 0.71363 0.67596 0.07386 0.0
C868 C 0.71139 0.69138 0.05637 0.0
C869 C 0.70696 0.63769 0.08969 0.0
C870 C 0.69259 0.64174 0.10788 0.0
C871 C 0.71876 0.61727 0.08845 0.0
C872 C 0.73524 0.61269 0.07041 0.0
C873 C 0.75276 0.62781 0.06608 0.0
C874 C 0.76834 0.62335 0.04921 0.0
C875 C 0.76666 0.60375 0.03661 0.0
C876 C 0.74941 0.58854 0.0409 0.0
C877 C 0.73378 0.59293 0.05776 0.0
H878 H 0.77874 0.60032 0.02356 0.0
H879 H 0.63225 0.63819 0.1929 0.0
H880 H 0.36251 0.26154 0.03957 0.0
H881 H 0.38543 0.2659 0.07269 0.0
H882 H 0.32983 0.29572 0.10777 0.0
H883 H 0.30643 0.29154 0.07424 0.0
H884 H 0.36957 0.31826 0.11308 0.0
H885 H 0.34393 0.24371 0.12017 0.0
H886 H 0.33518 0.20548 0.1078 0.0
H887 H 0.40484 0.19305 0.09549 0.0
H888 H 0.41405 0.23144 0.10737 0.0
H889 H 0.43496 0.30375 0.21476 0.0
H890 H 0.40439 0.29837 0.18802 0.0
H891 H 0.45247 0.28641 0.13553 0.0
H892 H 0.48324 0.29314 0.16212 0.0
H893 H 0.4114 0.25351 0.14394 0.0
H894 H 0.43539 0.32928 0.12875 0.0
H895 H 0.44364 0.36914 0.13501 0.0
H896 H 0.37665 0.37961 0.15883 0.0
H897 H 0.36814 0.33963 0.15316 0.0
C898 C 0.35504 0.26915 0.05423 0.0
C899 C 0.3325 0.27589 0.05441 0.0
C900 C 0.36815 0.2714 0.07323 0.0
C901 C 0.35906 0.28043 0.0928 0.0
C902 C 0.33693 0.28828 0.09285 0.0
C903 C 0.32366 0.28599 0.07371 0.0
C904 C 0.37344 0.28253 0.11267 0.0
C905 C 0.37828 0.30408 0.12034 0.0
C906 C 0.38507 0.2639 0.12155 0.0
C907 C 0.37968 0.24059 0.11463 0.0
C908 C 0.3574 0.23294 0.11464 0.0
C909 C 0.35235 0.21121 0.10768 0.0
C910 C 0.36942 0.19682 0.10084 0.0
C911 C 0.39162 0.20419 0.10087 0.0
C912 C 0.39677 0.22595 0.10774 0.0
C913 C 0.43897 0.29974 0.19759 0.0
C914 C 0.46133 0.29863 0.19043 0.0
C915 C 0.42155 0.29683 0.18236 0.0
C916 C 0.4263 0.29217 0.15991 0.0
C917 C 0.44862 0.29014 0.15285 0.0
C918 C 0.46609 0.29384 0.16796 0.0
C919 C 0.40789 0.28934 0.14384 0.0
C920 C 0.40227 0.26761 0.13706 0.0
C921 C 0.39559 0.3078 0.13564 0.0
C922 C 0.40134 0.33129 0.14114 0.0
C923 C 0.42262 0.3399 0.13595 0.0
C924 C 0.42728 0.36258 0.1392 0.0
C925 C 0.41074 0.37687 0.14746 0.0
C926 C 0.38951 0.36849 0.15258 0.0
C927 C 0.38478 0.34581 0.14942 0.0
H928 H 0.41432 0.39446 0.14976 0.0
H929 H 0.36545 0.17998 0.09554 0.0
H930 H 0.85554 0.20698 0.96462 0.0
H931 H 0.88049 0.2028 0.93268 0.0
H932 H 0.82395 0.2049 0.88788 0.0
H933 H 0.79872 0.20932 0.91991 0.0
H934 H 0.85966 0.17386 0.8767 0.0
H935 H 0.84812 0.25135 0.89319 0.0
H936 H 0.84593 0.28549 0.91619 0.0
H937 H 0.91475 0.27754 0.93525 0.0
H938 H 0.9173 0.24322 0.91255 0.0
H939 H 0.93267 0.20863 0.78548 0.0
H940 H 0.90173 0.21128 0.81217 0.0
H941 H 0.94719 0.19742 0.86646 0.0
H942 H 0.97806 0.19332 0.83972 0.0
H943 H 0.91319 0.23695 0.86921 0.0
H944 H 0.92396 0.15833 0.85554 0.0
H945 H 0.92551 0.12213 0.8361 0.0
H946 H 0.85743 0.13018 0.81489 0.0
H947 H 0.85585 0.16714 0.83298 0.0
C948 C 0.84831 0.20593 0.94801 0.0
C949 C 0.82527 0.20923 0.94461 0.0
C950 C 0.8626 0.20375 0.92983 0.0
C951 C 0.85399 0.2045 0.90809 0.0
C952 C 0.83079 0.20484 0.90467 0.0
C953 C 0.81641 0.20717 0.92295 0.0
C954 C 0.86953 0.20605 0.88915 0.0
C955 C 0.87105 0.18785 0.8746 0.0
C956 C 0.88452 0.22425 0.88703 0.0
C957 C 0.88283 0.24455 0.9013 0.0
C958 C 0.86271 0.25671 0.9025 0.0
C959 C 0.86143 0.27615 0.91542 0.0
C960 C 0.88017 0.28365 0.92721 0.0
C961 C 0.90024 0.27171 0.92612 0.0
C962 C 0.90162 0.25227 0.9132 0.0
C963 C 0.93614 0.20628 0.8031 0.0
C964 C 0.9577 0.20046 0.81057 0.0
C965 C 0.91844 0.20772 0.81824 0.0
C966 C 0.92228 0.2041 0.84105 0.0
C967 C 0.94403 0.19995 0.84877 0.0
C968 C 0.96159 0.19774 0.83357 0.0
C969 C 0.90359 0.20451 0.85697 0.0
C970 C 0.90149 0.22317 0.87093 0.0
C971 C 0.88809 0.18668 0.85857 0.0
C972 C 0.89001 0.16588 0.84516 0.0
C973 C 0.90961 0.15288 0.84597 0.0
C974 C 0.91044 0.13213 0.83527 0.0
C975 C 0.89163 0.12395 0.82409 0.0
C976 C 0.87208 0.1367 0.82321 0.0
C977 C 0.87127 0.15763 0.83356 0.0
H978 H 0.89213 0.10762 0.81632 0.0
H979 H 0.87917 0.29874 0.93716 0.0
H980 H 0.56267 0.79585 0.27867 0.0
H981 H 0.59337 0.79315 0.30529 0.0
H982 H 0.54583 0.79218 0.35986 0.0
H983 H 0.51521 0.79713 0.3331 0.0
H984 H 0.57553 0.81874 0.37053 0.0
H985 H 0.57932 0.74416 0.34099 0.0
H986 H 0.58176 0.71498 0.31194 0.0
H987 H 0.64476 0.74164 0.28985 0.0
H988 H 0.64261 0.7711 0.31866 0.0
H989 H 0.63406 0.76738 0.45509 0.0
H990 H 0.61198 0.77381 0.42184 0.0
H991 H 0.66891 0.80368 0.38894 0.0
H992 H 0.69183 0.79676 0.42248 0.0
H993 H 0.64015 0.76696 0.36446 0.0
H994 H 0.63515 0.83881 0.40252 0.0
H995 H 0.63192 0.85883 0.43845 0.0
H996 H 0.56795 0.82826 0.45023 0.0
H997 H 0.57094 0.80781 0.41452 0.0
C998 C 0.55879 0.79464 0.29632 0.0
C999 C 0.53667 0.79658 0.30394 0.0
C1000 C 0.57636 0.793 0.31157 0.0
C1001 C 0.57201 0.79224 0.33466 0.0
C1002 C 0.54969 0.79293 0.34215 0.0
C1003 C 0.53218 0.79549 0.32692 0.0
C1004 C 0.59063 0.79222 0.35107 0.0
C1005 C 0.58958 0.80735 0.36906 0.0
C1006 C 0.60931 0.7777 0.34914 0.0
C1007 C 0.61065 0.76001 0.33179 0.0
C1008 C 0.59361 0.74391 0.32982 0.0
C1009 C 0.59496 0.72729 0.31343 0.0
C1010 C 0.61334 0.72653 0.29898 0.0
C1011 C 0.63047 0.74232 0.30098 0.0
C1012 C 0.62922 0.75895 0.31736 0.0
C1013 C 0.64202 0.77554 0.44098 0.0
C1014 C 0.66478 0.78153 0.44142 0.0
C1015 C 0.62936 0.77902 0.42193 0.0
C1016 C 0.63896 0.78902 0.40308 0.0
C1017 C 0.66144 0.79568 0.40341 0.0
C1018 C 0.67435 0.79199 0.4226 0.0
C1019 C 0.62456 0.79308 0.38363 0.0
C1020 C 0.62635 0.77873 0.36523 0.0
C1021 C 0.60616 0.80771 0.38554 0.0
C1022 C 0.60319 0.82192 0.40573 0.0
C1023 C 0.6203 0.83653 0.41267 0.0
C1024 C 0.61856 0.84786 0.43306 0.0
C1025 C 0.59972 0.84485 0.44659 0.0
C1026 C 0.58249 0.83065 0.43968 0.0
C1027 C 0.58415 0.81925 0.41932 0.0
H1028 H 0.59849 0.8535 0.46245 0.0
H1029 H 0.61436 0.71365 0.28631 0.0
H1030 H 0.13591 0.7377 0.53753 0.0
H1031 H 0.11436 0.73258 0.57126 0.0
H1032 H 0.17294 0.70799 0.60561 0.0
H1033 H 0.19489 0.7122 0.57075 0.0
H1034 H 0.13484 0.68153 0.61211 0.0
H1035 H 0.15229 0.7597 0.61876 0.0
H1036 H 0.15702 0.79725 0.60231 0.0
H1037 H 0.08731 0.79908 0.58526 0.0
H1038 H 0.08209 0.76151 0.60146 0.0
H1039 H 0.06417 0.68942 0.71111 0.0
H1040 H 0.09538 0.69608 0.68524 0.0
H1041 H 0.0485 0.70856 0.6318 0.0
H1042 H 0.01715 0.70087 0.65748 0.0
H1043 H 0.0861 0.74245 0.64053 0.0
H1044 H 0.06927 0.66523 0.62612 0.0
H1045 H 0.06293 0.62552 0.63516 0.0
H1046 H 0.12951 0.62055 0.66171 0.0
H1047 H 0.13611 0.66043 0.6532 0.0
C1048 C 0.14445 0.73139 0.55223 0.0
C1049 C 0.16717 0.72543 0.55154 0.0
C1050 C 0.13206 0.72862 0.57162 0.0
C1051 C 0.1421 0.72033 0.59109 0.0
C1052 C 0.16496 0.71466 0.59077 0.0
C1053 C 0.17751 0.71729 0.57103 0.0
C1054 C 0.12785 0.71685 0.61107 0.0
C1055 C 0.1247 0.69495 0.61893 0.0
C1056 C 0.11411 0.73431 0.61932 0.0
C1057 C 0.1168 0.75773 0.61136 0.0
C1058 C 0.13794 0.76813 0.61158 0.0
C1059 C 0.14075 0.78935 0.60216 0.0
C1060 C 0.12255 0.80043 0.59254 0.0
C1061 C 0.10141 0.79046 0.59266 0.0
C1062 C 0.09848 0.76923 0.60206 0.0
C1063 C 0.06057 0.69374 0.69386 0.0
C1064 C 0.03838 0.69494 0.68621 0.0
C1065 C 0.07836 0.69738 0.67914 0.0
C1066 C 0.07416 0.70279 0.65672 0.0
C1067 C 0.05197 0.70437 0.64911 0.0
C1068 C 0.03416 0.70004 0.66369 0.0
C1069 C 0.09297 0.70713 0.6413 0.0
C1070 C 0.09683 0.72918 0.63435 0.0
C1071 C 0.10715 0.68978 0.6337 0.0
C1072 C 0.10302 0.66598 0.63947 0.0
C1073 C 0.08242 0.65581 0.63428 0.0
C1074 C 0.07882 0.63323 0.63919 0.0
C1075 C 0.09576 0.62055 0.64912 0.0
C1076 C 0.11636 0.63043 0.65411 0.0
C1077 C 0.12004 0.65303 0.64926 0.0
H1078 H 0.09297 0.60305 0.65285 0.0
H1079 H 0.12481 0.81681 0.58516 0.0
H1080 H 0.95859 0.65536 0.68805 0.0
H1081 H 0.92717 0.62989 0.68088 0.0
H1082 H 0.88915 0.6619 0.73328 0.0
H1083 H 0.9205 0.68735 0.74033 0.0
H1084 H 0.89596 0.61564 0.73915 0.0
H1085 H 0.87024 0.66662 0.68268 0.0
H1086 H 0.87441 0.69074 0.64943 0.0
H1087 H 0.89261 0.63373 0.60979 0.0
H1088 H 0.88886 0.60929 0.64288 0.0
H1089 H 0.79577 0.55115 0.72131 0.0
H1090 H 0.82426 0.57973 0.72843 0.0
H1091 H 0.86334 0.55487 0.67304 0.0
H1092 H 0.83507 0.5264 0.66579 0.0
H1093 H 0.85436 0.59922 0.66926 0.0
H1094 H 0.88175 0.54834 0.72437 0.0
H1095 H 0.88058 0.52347 0.75726 0.0
H1096 H 0.8622 0.57884 0.79907 0.0
H1097 H 0.86284 0.60402 0.76633 0.0
C1098 C 0.94313 0.65745 0.69731 0.0
C1099 C 0.94153 0.6734 0.71436 0.0
C1100 C 0.92531 0.64293 0.69332 0.0
C1101 C 0.90595 0.64412 0.7066 0.0
C1102 C 0.90395 0.66088 0.72285 0.0
C1103 C 0.92168 0.67551 0.72667 0.0
C1104 C 0.88911 0.62622 0.70534 0.0
C1105 C 0.88645 0.61225 0.72405 0.0
C1106 C 0.87749 0.62154 0.68535 0.0
C1107 C 0.87944 0.63615 0.66532 0.0
C1108 C 0.87529 0.65924 0.66691 0.0
C1109 C 0.87754 0.67297 0.64808 0.0
C1110 C 0.88381 0.66378 0.62753 0.0
C1111 C 0.88776 0.64083 0.62573 0.0
C1112 C 0.88554 0.62702 0.64451 0.0
C1113 C 0.8107 0.55146 0.71102 0.0
C1114 C 0.81312 0.53677 0.69284 0.0
C1115 C 0.82691 0.56778 0.71508 0.0
C1116 C 0.84572 0.56945 0.70109 0.0
C1117 C 0.84879 0.55392 0.68384 0.0
C1118 C 0.83265 0.53767 0.67978 0.0
C1119 C 0.8612 0.58852 0.70308 0.0
C1120 C 0.86364 0.6027 0.68447 0.0
C1121 C 0.87281 0.59322 0.72311 0.0
C1122 C 0.87201 0.57803 0.7428 0.0
C1123 C 0.87715 0.55518 0.74051 0.0
C1124 C 0.87665 0.54103 0.75915 0.0
C1125 C 0.87123 0.54955 0.78023 0.0
C1126 C 0.86632 0.57225 0.78272 0.0
C1127 C 0.86674 0.58647 0.76412 0.0
H1128 H 0.8709 0.53857 0.79465 0.0
H1129 H 0.88558 0.67444 0.61298 0.0
H1130 H 0.57604 0.30382 0.20852 0.0
H1131 H 0.60815 0.32796 0.1996 0.0
H1132 H 0.56717 0.38627 0.21126 0.0
H1133 H 0.53533 0.36255 0.2195 0.0
H1134 H 0.59284 0.39286 0.17714 0.0
H1135 H 0.60137 0.36322 0.25244 0.0
H1136 H 0.60662 0.33395 0.28115 0.0
H1137 H 0.66717 0.31275 0.24881 0.0
H1138 H 0.66217 0.34175 0.2198 0.0
H1139 H 0.6625 0.48251 0.20219 0.0
H1140 H 0.63527 0.45233 0.2073 0.0
H1141 H 0.6877 0.40357 0.19757 0.0
H1142 H 0.71514 0.43379 0.19431 0.0
H1143 H 0.65952 0.38811 0.22633 0.0
H1144 H 0.64994 0.4235 0.15262 0.0
H1145 H 0.64226 0.45493 0.12687 0.0
H1146 H 0.58009 0.46777 0.16059 0.0
H1147 H 0.58745 0.43654 0.18655 0.0
C1148 C 0.57385 0.32179 0.20855 0.0
C1149 C 0.55337 0.33139 0.21499 0.0
C1150 C 0.5922 0.33551 0.20372 0.0
C1151 C 0.59009 0.35885 0.20526 0.0
C1152 C 0.56919 0.3683 0.2101 0.0
C1153 C 0.551 0.35472 0.21483 0.0
C1154 C 0.60949 0.37391 0.20284 0.0
C1155 C 0.60746 0.39182 0.18789 0.0
C1156 C 0.62862 0.37231 0.2167 0.0
C1157 C 0.63124 0.35446 0.23378 0.0
C1158 C 0.61566 0.35215 0.25131 0.0
C1159 C 0.61863 0.33566 0.26767 0.0
C1160 C 0.63719 0.32149 0.26675 0.0
C1161 C 0.65279 0.32372 0.24946 0.0
C1162 C 0.6499 0.34018 0.23306 0.0
C1163 C 0.66818 0.46531 0.20181 0.0
C1164 C 0.69073 0.4603 0.19798 0.0
C1165 C 0.65265 0.4481 0.20436 0.0
C1166 C 0.65932 0.42569 0.20192 0.0
C1167 C 0.68213 0.42072 0.19931 0.0
C1168 C 0.69779 0.43795 0.19754 0.0
C1169 C 0.64246 0.40756 0.20115 0.0
C1170 C 0.6451 0.38897 0.21533 0.0
C1171 C 0.62345 0.40882 0.18704 0.0
C1172 C 0.61932 0.42777 0.17156 0.0
C1173 C 0.63471 0.43312 0.15459 0.0
C1174 C 0.63038 0.45087 0.13994 0.0
C1175 C 0.61072 0.46334 0.14211 0.0
C1176 C 0.59531 0.4581 0.15891 0.0
C1177 C 0.59953 0.44036 0.17355 0.0
H1178 H 0.6074 0.47706 0.13074 0.0
H1179 H 0.63959 0.30888 0.2795 0.0
H1180 H 0.4648 0.85916 0.27801 0.0
H1181 H 0.43419 0.88363 0.28809 0.0
H1182 H 0.39356 0.82642 0.3054 0.0
H1183 H 0.42431 0.80152 0.29454 0.0
H1184 H 0.37443 0.85258 0.27373 0.0
H1185 H 0.40839 0.86588 0.34553 0.0
H1186 H 0.4411 0.87349 0.36952 0.0
H1187 H 0.4514 0.93629 0.33616 0.0
H1188 H 0.41891 0.92897 0.31182 0.0
H1189 H 0.28469 0.92742 0.29522 0.0
H1190 H 0.3132 0.89849 0.29553 0.0
H1191 H 0.36429 0.94837 0.28441 0.0
H1192 H 0.33578 0.97771 0.28503 0.0
H1193 H 0.37578 0.92287 0.31767 0.0
H1194 H 0.34772 0.90997 0.24391 0.0
H1195 H 0.31963 0.90266 0.2146 0.0
H1196 H 0.30245 0.84041 0.24611 0.0
H1197 H 0.33017 0.84752 0.27586 0.0
C1198 C 0.44957 0.85174 0.28452 0.0
C1199 C 0.44664 0.82846 0.28494 0.0
C1200 C 0.43212 0.86579 0.2905 0.0
C1201 C 0.41161 0.85683 0.29749 0.0
C1202 C 0.40931 0.83359 0.29998 0.0
C1203 C 0.42687 0.81942 0.29386 0.0
C1204 C 0.39199 0.8717 0.29874 0.0
C1205 C 0.3743 0.86765 0.28384 0.0
C1206 C 0.39252 0.89176 0.31119 0.0
C1207 C 0.41115 0.89688 0.32687 0.0
C1208 C 0.41758 0.88135 0.34336 0.0
C1209 C 0.43612 0.88559 0.35699 0.0
C1210 C 0.44831 0.90537 0.35437 0.0
C1211 C 0.4419 0.92101 0.33822 0.0
C1212 C 0.42336 0.91687 0.32456 0.0
C1213 C 0.30192 0.93226 0.29238 0.0
C1214 C 0.30802 0.95489 0.29023 0.0
C1215 C 0.31823 0.91564 0.29254 0.0
C1216 C 0.34086 0.92127 0.29 0.0
C1217 C 0.34689 0.94372 0.28658 0.0
C1218 C 0.3306 0.96043 0.28676 0.0
C1219 C 0.35832 0.90394 0.29238 0.0
C1220 C 0.37556 0.90757 0.30795 0.0
C1221 C 0.35766 0.8837 0.28013 0.0
C1222 C 0.34083 0.87945 0.26232 0.0
C1223 C 0.33778 0.89484 0.24475 0.0
C1224 C 0.32195 0.8907 0.22802 0.0
C1225 C 0.3092 0.87112 0.22854 0.0
C1226 C 0.31229 0.8556 0.24576 0.0
C1227 C 0.32806 0.85968 0.26257 0.0
H1228 H 0.29698 0.86794 0.21555 0.0
H1229 H 0.46274 0.90856 0.36484 0.0
H1230 H 0.17296 0.02306 0.77955 0.0
H1231 H 0.14602 0.05265 0.76991 0.0
H1232 H 0.175 0.09522 0.82057 0.0
H1233 H 0.20085 0.06532 0.83092 0.0
H1234 H 0.1318 0.09653 0.8237 0.0
H1235 H 0.1838 0.10104 0.75901 0.0
H1236 H 0.20241 0.08563 0.72548 0.0
H1237 H 0.1385 0.06857 0.6974 0.0
H1238 H 0.11956 0.08376 0.73076 0.0
H1239 H 0.06642 0.19167 0.79504 0.0
H1240 H 0.10026 0.16898 0.80138 0.0
H1241 H 0.0795 0.124 0.74877 0.0
H1242 H 0.04673 0.14676 0.74202 0.0
H1243 H 0.12086 0.12635 0.74705 0.0
H1244 H 0.06766 0.11567 0.80595 0.0
H1245 H 0.04342 0.12543 0.83788 0.0
H1246 H 0.10092 0.14609 0.87565 0.0
H1247 H 0.12551 0.13679 0.84377 0.0
C1248 C 0.17353 0.03883 0.78843 0.0
C1249 C 0.18879 0.04204 0.80596 0.0
C1250 C 0.15829 0.05578 0.78287 0.0
C1251 C 0.15867 0.07637 0.7943 0.0
C1252 C 0.1743 0.07954 0.81154 0.0
C1253 C 0.18907 0.06249 0.81742 0.0
C1254 C 0.14231 0.09442 0.78922 0.0
C1255 C 0.12966 0.10331 0.80698 0.0
C1256 C 0.13875 0.10264 0.76729 0.0
C1257 C 0.15032 0.09337 0.74743 0.0
C1258 C 0.17376 0.09387 0.74573 0.0
C1259 C 0.18435 0.08521 0.72674 0.0
C1260 C 0.17165 0.07607 0.70935 0.0
C1261 C 0.14833 0.07559 0.71089 0.0
C1262 C 0.13767 0.08427 0.7298 0.0
C1263 C 0.06961 0.17731 0.78448 0.0
C1264 C 0.05394 0.17069 0.76831 0.0
C1265 C 0.08872 0.16422 0.78825 0.0
C1266 C 0.09215 0.14445 0.77591 0.0
C1267 C 0.07726 0.13904 0.75862 0.0
C1268 C 0.05844 0.15204 0.75483 0.0
C1269 C 0.11022 0.12836 0.78146 0.0
C1270 C 0.12321 0.11984 0.76385 0.0
C1271 C 0.11322 0.11968 0.80332 0.0
C1272 C 0.0984 0.12588 0.82231 0.0
C1273 C 0.07512 0.12256 0.82095 0.0
C1274 C 0.06132 0.12796 0.83906 0.0
C1275 C 0.07062 0.13646 0.85875 0.0
C1276 C 0.09374 0.13958 0.86036 0.0
C1277 C 0.10761 0.13428 0.84226 0.0
H1278 H 0.05991 0.14055 0.87278 0.0
H1279 H 0.17989 0.0694 0.69467 0.0
H1280 H 0.70951 0.96234 0.63591 0.0
H1281 H 0.70128 0.93099 0.61165 0.0
H1282 H 0.69694 0.8873 0.6691 0.0
H1283 H 0.70632 0.91883 0.69366 0.0
H1284 H 0.72654 0.87252 0.63829 0.0
H1285 H 0.65009 0.89866 0.6356 0.0
H1286 H 0.62265 0.92928 0.63223 0.0
H1287 H 0.64675 0.94415 0.56615 0.0
H1288 H 0.67446 0.91376 0.56918 0.0
H1289 H 0.70376 0.78183 0.56255 0.0
H1290 H 0.7064 0.80906 0.593 0.0
H1291 H 0.70185 0.8629 0.54496 0.0
H1292 H 0.6979 0.83567 0.51476 0.0
H1293 H 0.67299 0.86971 0.57502 0.0
H1294 H 0.75039 0.84927 0.57665 0.0
H1295 H 0.78398 0.82556 0.57987 0.0
H1296 H 0.76411 0.80567 0.64603 0.0
H1297 H 0.73015 0.82891 0.64307 0.0
C1298 C 0.7062 0.94619 0.64347 0.0
C1299 C 0.70887 0.94286 0.66657 0.0
C1300 C 0.70133 0.92827 0.62958 0.0
C1301 C 0.69841 0.90681 0.63858 0.0
C1302 C 0.69915 0.90378 0.66189 0.0
C1303 C 0.70427 0.92179 0.67588 0.0
C1304 C 0.69743 0.88746 0.62327 0.0
C1305 C 0.71446 0.8714 0.62477 0.0
C1306 C 0.68225 0.88681 0.60517 0.0
C1307 C 0.66431 0.90384 0.6026 0.0
C1308 C 0.64944 0.90836 0.62029 0.0
C1309 C 0.63389 0.92573 0.61847 0.0
C1310 C 0.63295 0.93864 0.59898 0.0
C1311 C 0.64744 0.93408 0.5812 0.0
C1312 C 0.66301 0.91672 0.58292 0.0
C1313 C 0.70398 0.79949 0.5585 0.0
C1314 C 0.70067 0.80677 0.53638 0.0
C1315 C 0.70547 0.81505 0.57591 0.0
C1316 C 0.70422 0.83808 0.57133 0.0
C1317 C 0.70256 0.84524 0.54897 0.0
C1318 C 0.70051 0.82972 0.5317 0.0
C1319 C 0.70245 0.85472 0.58968 0.0
C1320 C 0.68483 0.87031 0.58876 0.0
C1321 C 0.71749 0.85525 0.60802 0.0
C1322 C 0.73747 0.84054 0.60946 0.0
C1323 C 0.75297 0.83956 0.59175 0.0
C1324 C 0.77213 0.82626 0.59356 0.0
C1325 C 0.77612 0.81403 0.6131 0.0
C1326 C 0.76095 0.81507 0.63087 0.0
C1327 C 0.74172 0.82828 0.62911 0.0
H1328 H 0.791 0.80382 0.6145 0.0
H1329 H 0.62101 0.95219 0.59767 0.0
H1330 H 0.83416 0.19651 0.06538 0.0
H1331 H 0.82487 0.16857 0.09363 0.0
H1332 H 0.76477 0.15167 0.05718 0.0
H1333 H 0.77346 0.18093 0.02953 0.0
H1334 H 0.75534 0.1517 0.09849 0.0
H1335 H 0.81443 0.11787 0.05726 0.0
H1336 H 0.85138 0.1143 0.03921 0.0
H1337 H 0.88367 0.12187 0.10293 0.0
H1338 H 0.84693 0.12579 0.12135 0.0
H1339 H 0.74079 0.04755 0.15195 0.0
H1340 H 0.74575 0.08006 0.12832 0.0
H1341 H 0.80236 0.10066 0.16825 0.0
H1342 H 0.7981 0.06683 0.1914 0.0
H1343 H 0.81299 0.09823 0.12509 0.0
H1344 H 0.75124 0.13444 0.16478 0.0
H1345 H 0.71355 0.13309 0.18137 0.0
H1346 H 0.6857 0.11482 0.1177 0.0
H1347 H 0.72331 0.11659 0.1006 0.0
C1348 C 0.81894 0.18683 0.06347 0.0
C1349 C 0.80451 0.19068 0.04537 0.0
C1350 C 0.81374 0.17072 0.07949 0.0
C1351 C 0.79443 0.15753 0.07726 0.0
C1352 C 0.77982 0.16156 0.05921 0.0
C1353 C 0.78473 0.17822 0.04347 0.0
C1354 C 0.78929 0.14009 0.09422 0.0
C1355 C 0.76794 0.1399 0.10408 0.0
C1356 C 0.8057 0.12467 0.10174 0.0
C1357 C 0.82788 0.12237 0.09067 0.0
C1358 C 0.8294 0.11897 0.06741 0.0
C1359 C 0.85032 0.11684 0.05712 0.0
C1360 C 0.86986 0.11793 0.06991 0.0
C1361 C 0.86852 0.12107 0.09304 0.0
C1362 C 0.84765 0.12322 0.10342 0.0
C1363 C 0.75382 0.05943 0.15618 0.0
C1364 C 0.76917 0.05476 0.17332 0.0
C1365 C 0.75658 0.07813 0.14271 0.0
C1366 C 0.77432 0.09297 0.14656 0.0
C1367 C 0.78853 0.0894 0.16502 0.0
C1368 C 0.78593 0.07033 0.17842 0.0
C1369 C 0.77941 0.11044 0.1297 0.0
C1370 C 0.80062 0.11035 0.11964 0.0
C1371 C 0.76279 0.12522 0.12165 0.0
C1372 C 0.74002 0.1257 0.13145 0.0
C1373 C 0.73704 0.1303 0.15431 0.0
C1374 C 0.71569 0.12941 0.1638 0.0
C1375 C 0.6972 0.12372 0.15066 0.0
C1376 C 0.70001 0.11927 0.12787 0.0
C1377 C 0.72131 0.12042 0.11821 0.0
H1378 H 0.68071 0.12281 0.15814 0.0
H1379 H 0.88604 0.11628 0.06191 0.0
H1380 H 0.19349 0.65532 0.47546 0.0
H1381 H 0.19823 0.62836 0.44528 0.0
H1382 H 0.21791 0.68143 0.40038 0.0
H1383 H 0.21335 0.70867 0.43071 0.0
H1384 H 0.18063 0.65434 0.38584 0.0
H1385 H 0.25569 0.64616 0.41187 0.0
H1386 H 0.28518 0.64156 0.44034 0.0
H1387 H 0.25766 0.57794 0.4592 0.0
H1388 H 0.22777 0.58229 0.43108 0.0
H1389 H 0.20882 0.5749 0.30064 0.0
H1390 H 0.2015 0.60572 0.32619 0.0
H1391 H 0.19226 0.55876 0.3804 0.0
H1392 H 0.2006 0.52794 0.35496 0.0
H1393 H 0.22717 0.58569 0.38751 0.0
H1394 H 0.15034 0.59502 0.36523 0.0
H1395 H 0.12069 0.59816 0.33671 0.0
H1396 H 0.15101 0.65812 0.31121 0.0
H1397 H 0.181 0.65522 0.33949 0.0
C1398 C 0.19939 0.66116 0.45932 0.0
C1399 C 0.20297 0.68398 0.4553 0.0
C1400 C 0.20208 0.64579 0.44215 0.0
C1401 C 0.20829 0.65306 0.42073 0.0
C1402 C 0.21306 0.67568 0.41689 0.0
C1403 C 0.21064 0.6911 0.43422 0.0
C1404 C 0.20777 0.63702 0.4022 0.0
C1405 C 0.19108 0.63951 0.38584 0.0
C1406 C 0.22108 0.61757 0.40278 0.0
C1407 C 0.23937 0.61463 0.41941 0.0
C1408 C 0.25583 0.63124 0.42217 0.0
C1409 C 0.27264 0.62867 0.43824 0.0
C1410 C 0.27327 0.60949 0.4516 0.0
C1411 C 0.25715 0.59279 0.44884 0.0
C1412 C 0.24028 0.59528 0.4328 0.0
C1413 C 0.20415 0.57113 0.31773 0.0
C1414 C 0.20577 0.5493 0.32611 0.0
C1415 C 0.20001 0.58875 0.33235 0.0
C1416 C 0.19683 0.58444 0.35523 0.0
C1417 C 0.19506 0.56233 0.36283 0.0
C1418 C 0.19962 0.54478 0.34831 0.0
C1419 C 0.1995 0.6026 0.37157 0.0
C1420 C 0.21675 0.60056 0.3874 0.0
C1421 C 0.18661 0.62233 0.37059 0.0
C1422 C 0.16795 0.62486 0.35441 0.0
C1423 C 0.15068 0.60889 0.35354 0.0
C1424 C 0.13383 0.6106 0.33741 0.0
C1425 C 0.13399 0.62831 0.32213 0.0
C1426 C 0.15091 0.64443 0.32307 0.0
C1427 C 0.1678 0.64279 0.33919 0.0
H1428 H 0.12099 0.62955 0.30958 0.0
H1429 H 0.28627 0.60755 0.46406 0.0
H1430 H 0.27538 0.29065 0.94283 0.0
H1431 H 0.26909 0.31863 0.91341 0.0
H1432 H 0.31503 0.36351 0.9463 0.0
H1433 H 0.3213 0.33584 0.97565 0.0
H1434 H 0.27781 0.38504 0.92944 0.0
H1435 H 0.33005 0.32687 0.90676 0.0
H1436 H 0.34066 0.28831 0.89702 0.0
H1437 H 0.29452 0.28906 0.84199 0.0
H1438 H 0.28247 0.32708 0.85229 0.0
H1439 H 0.30195 0.46298 0.84713 0.0
H1440 H 0.31 0.43288 0.87385 0.0
H1441 H 0.27241 0.38677 0.83287 0.0
H1442 H 0.26538 0.41655 0.80581 0.0
H1443 H 0.30366 0.36496 0.85313 0.0
H1444 H 0.24812 0.41802 0.87485 0.0
H1445 H 0.23306 0.45551 0.88299 0.0
H1446 H 0.28008 0.4631 0.93677 0.0
H1447 H 0.2958 0.42584 0.92863 0.0
C1448 C 0.28372 0.30669 0.94404 0.0
C1449 C 0.29898 0.31102 0.96145 0.0
C1450 C 0.28023 0.32257 0.92716 0.0
C1451 C 0.29191 0.34295 0.92752 0.0
C1452 C 0.30596 0.34782 0.94566 0.0
C1453 C 0.30955 0.33198 0.9624 0.0
C1454 C 0.29084 0.3588 0.90851 0.0
C1455 C 0.28357 0.3807 0.91278 0.0
C1456 C 0.29774 0.35284 0.88659 0.0
C1457 C 0.30505 0.32981 0.88059 0.0
C1458 C 0.32182 0.31872 0.89285 0.0
C1459 C 0.32813 0.29693 0.88719 0.0
C1460 C 0.31836 0.28628 0.86885 0.0
C1461 C 0.30206 0.29731 0.85624 0.0
C1462 C 0.29535 0.31892 0.8621 0.0
C1463 C 0.29633 0.44615 0.84347 0.0
C1464 C 0.28331 0.44183 0.82446 0.0
C1465 C 0.30067 0.42906 0.85878 0.0
C1466 C 0.2912 0.40776 0.85567 0.0
C1467 C 0.27982 0.40307 0.83566 0.0
C1468 C 0.27594 0.42003 0.82012 0.0
C1469 C 0.29087 0.39122 0.87414 0.0
C1470 C 0.29781 0.36925 0.86977 0.0
C1471 C 0.28299 0.39686 0.89579 0.0
C1472 C 0.27331 0.41918 0.90097 0.0
C1473 C 0.25536 0.42773 0.88832 0.0
C1474 C 0.24671 0.44895 0.89293 0.0
C1475 C 0.25564 0.4617 0.91035 0.0
C1476 C 0.27322 0.45323 0.92324 0.0
C1477 C 0.28202 0.43205 0.91863 0.0
H1478 H 0.24892 0.47812 0.9139 0.0
H1479 H 0.32344 0.26948 0.8644 0.0
H1480 H 0.56166 0.67805 0.78559 0.0
H1481 H 0.59256 0.68494 0.81171 0.0
H1482 H 0.54685 0.71768 0.85703 0.0
H1483 H 0.51577 0.71042 0.83093 0.0
H1484 H 0.58781 0.74067 0.85107 0.0
H1485 H 0.56059 0.66769 0.8689 0.0
H1486 H 0.54995 0.62809 0.86484 0.0
H1487 H 0.61659 0.61207 0.84324 0.0
H1488 H 0.62755 0.65168 0.84683 0.0
H1489 H 0.6358 0.73282 0.95636 0.0
H1490 H 0.61309 0.72906 0.92312 0.0
H1491 H 0.66816 0.69782 0.88847 0.0
H1492 H 0.69147 0.70152 0.92214 0.0
H1493 H 0.62742 0.67583 0.88455 0.0
H1494 H 0.6551 0.74991 0.87617 0.0
H1495 H 0.66415 0.78811 0.88845 0.0
H1496 H 0.59439 0.80195 0.89833 0.0
H1497 H 0.58486 0.76356 0.88678 0.0
C1498 C 0.55838 0.68696 0.80104 0.0
C1499 C 0.53665 0.69397 0.80638 0.0
C1500 C 0.57591 0.69077 0.81591 0.0
C1501 C 0.57189 0.70174 0.83624 0.0
C1502 C 0.5502 0.70926 0.84134 0.0
C1503 C 0.53256 0.70516 0.82654 0.0
C1504 C 0.59025 0.70475 0.85242 0.0
C1505 C 0.59646 0.72655 0.8585 0.0
C1506 C 0.60177 0.68623 0.8616 0.0
C1507 C 0.59475 0.66276 0.85765 0.0
C1508 C 0.57285 0.65583 0.8628 0.0
C1509 C 0.56679 0.63334 0.86073 0.0
C1510 C 0.58254 0.61759 0.85366 0.0
C1511 C 0.60437 0.6243 0.84859 0.0
C1512 C 0.61049 0.64678 0.8506 0.0
C1513 C 0.64323 0.72498 0.94181 0.0
C1514 C 0.66561 0.71766 0.94182 0.0
C1515 C 0.63023 0.72314 0.92271 0.0
C1516 C 0.63923 0.71386 0.90324 0.0
C1517 C 0.66119 0.7055 0.90333 0.0
C1518 C 0.67439 0.70749 0.92254 0.0
C1519 C 0.6248 0.71165 0.88346 0.0
C1520 C 0.61925 0.69 0.87666 0.0
C1521 C 0.61362 0.73031 0.87407 0.0
C1522 C 0.61925 0.75368 0.88066 0.0
C1523 C 0.64165 0.76097 0.88118 0.0
C1524 C 0.64689 0.78268 0.88808 0.0
C1525 C 0.62988 0.79747 0.89418 0.0
C1526 C 0.60756 0.79051 0.89353 0.0
C1527 C 0.60223 0.76874 0.88682 0.0
H1528 H 0.63399 0.81431 0.89937 0.0
H1529 H 0.57787 0.60016 0.85223 0.0
H1530 H 0.01685 0.80508 0.15969 0.0
H1531 H 0.0464 0.79951 0.13182 0.0
H1532 H 0.09355 0.78498 0.18451 0.0
H1533 H 0.06381 0.78987 0.21251 0.0
H1534 H 0.1058 0.82092 0.15195 0.0
H1535 H 0.0825 0.74443 0.15601 0.0
H1536 H 0.0562 0.71267 0.15572 0.0
H1537 H 0.03619 0.7294 0.08875 0.0
H1538 H 0.06209 0.76153 0.08876 0.0
H1539 H 0.19311 0.78394 0.07677 0.0
H1540 H 0.16708 0.79336 0.10701 0.0
H1541 H 0.11232 0.79311 0.05989 0.0
H1542 H 0.13814 0.78293 0.02992 0.0
H1543 H 0.10589 0.76345 0.09219 0.0
H1544 H 0.12685 0.84096 0.08831 0.0
H1545 H 0.15355 0.87241 0.08739 0.0
H1546 H 0.17794 0.85403 0.15245 0.0
H1547 H 0.15149 0.82232 0.15368 0.0
C1548 C 0.03341 0.8002 0.16525 0.0
C1549 C 0.03812 0.79778 0.18813 0.0
C1550 C 0.05023 0.7971 0.14939 0.0
C1551 C 0.07207 0.79198 0.15623 0.0
C1552 C 0.07673 0.78895 0.17903 0.0
C1553 C 0.05975 0.79153 0.19491 0.0
C1554 C 0.09011 0.79099 0.13943 0.0
C1555 C 0.10613 0.80818 0.13905 0.0
C1556 C 0.09002 0.77465 0.12241 0.0
C1557 C 0.07406 0.75559 0.12251 0.0
C1558 C 0.07228 0.74154 0.14133 0.0
C1559 C 0.05749 0.72341 0.14118 0.0
C1560 C 0.04448 0.71906 0.12226 0.0
C1561 C 0.04624 0.73282 0.10342 0.0
C1562 C 0.06098 0.75099 0.10349 0.0
C1563 C 0.17565 0.78664 0.07281 0.0
C1564 C 0.16746 0.78231 0.05124 0.0
C1565 C 0.16079 0.79204 0.09007 0.0
C1566 C 0.13773 0.7936 0.08571 0.0
C1567 C 0.13001 0.79168 0.06363 0.0
C1568 C 0.14475 0.78593 0.04655 0.0
C1569 C 0.12135 0.79372 0.10426 0.0
C1570 C 0.10566 0.77625 0.10506 0.0
C1571 C 0.12168 0.80989 0.12149 0.0
C1572 C 0.13734 0.82915 0.12099 0.0
C1573 C 0.138 0.84354 0.10236 0.0
C1574 C 0.15306 0.86144 0.1018 0.0
C1575 C 0.16747 0.86518 0.11982 0.0
C1576 C 0.16677 0.8511 0.1385 0.0
C1577 C 0.15171 0.83319 0.13916 0.0
H1578 H 0.17916 0.87901 0.11933 0.0
H1579 H 0.03308 0.70499 0.12217 0.0
H1580 H 0.48109 0.18199 0.65837 0.0
H1581 H 0.45102 0.18825 0.63126 0.0
H1582 H 0.40911 0.21489 0.68362 0.0
H1583 H 0.43941 0.20919 0.71079 0.0
H1584 H 0.38981 0.17841 0.65723 0.0
H1585 H 0.42371 0.25003 0.64841 0.0
H1586 H 0.45371 0.2777 0.64232 0.0
H1587 H 0.46792 0.2489 0.57807 0.0
H1588 H 0.43822 0.22083 0.5839 0.0
H1589 H 0.30502 0.21572 0.57942 0.0
H1590 H 0.33096 0.20766 0.61003 0.0
H1591 H 0.38265 0.19196 0.56205 0.0
H1592 H 0.35699 0.20076 0.53149 0.0
H1593 H 0.39492 0.22529 0.58888 0.0
H1594 H 0.36261 0.15187 0.59901 0.0
H1595 H 0.33069 0.12613 0.60381 0.0
H1596 H 0.31216 0.15967 0.66456 0.0
H1597 H 0.34392 0.18572 0.66004 0.0
C1598 C 0.46565 0.18964 0.66398 0.0
C1599 C 0.46256 0.19517 0.6866 0.0
C1600 C 0.44851 0.19317 0.64853 0.0
C1601 C 0.42788 0.2019 0.65554 0.0
C1602 C 0.42494 0.20809 0.67798 0.0
C1603 C 0.44229 0.20502 0.69338 0.0
C1604 C 0.40914 0.20322 0.63948 0.0
C1605 C 0.3907 0.1889 0.64242 0.0
C1606 C 0.41059 0.21664 0.62007 0.0
C1607 C 0.4289 0.23312 0.61674 0.0
C1608 C 0.43343 0.24939 0.63311 0.0
C1609 C 0.45033 0.26521 0.62967 0.0
C1610 C 0.46276 0.26501 0.60985 0.0
C1611 C 0.45831 0.249 0.59343 0.0
C1612 C 0.44143 0.23314 0.5968 0.0
C1613 C 0.32164 0.20971 0.57545 0.0
C1614 C 0.32919 0.20916 0.55321 0.0
C1615 C 0.33648 0.20514 0.59295 0.0
C1616 C 0.35883 0.19952 0.58829 0.0
C1617 C 0.36556 0.19657 0.56599 0.0
C1618 C 0.35088 0.20146 0.54857 0.0
C1619 C 0.37594 0.19992 0.60618 0.0
C1620 C 0.394 0.21474 0.60365 0.0
C1621 C 0.37411 0.18697 0.62588 0.0
C1622 C 0.35556 0.17081 0.62913 0.0
C1623 C 0.3517 0.15377 0.61338 0.0
C1624 C 0.33365 0.13913 0.61604 0.0
C1625 C 0.31938 0.14129 0.63445 0.0
C1626 C 0.32324 0.15801 0.65032 0.0
C1627 C 0.34131 0.17268 0.64775 0.0
H1628 H 0.30536 0.13 0.63644 0.0
H1629 H 0.4758 0.2773 0.6072 0.0
H1630 H 0.80395 0.2821 0.4176 0.0
H1631 H 0.82899 0.29097 0.3862 0.0
H1632 H 0.88476 0.29488 0.43195 0.0
H1633 H 0.85995 0.2864 0.46312 0.0
H1634 H 0.88916 0.32458 0.39958 0.0
H1635 H 0.87059 0.24579 0.40597 0.0
H1636 H 0.84389 0.21431 0.40693 0.0
H1637 H 0.82176 0.23066 0.34054 0.0
H1638 H 0.84812 0.26247 0.33931 0.0
H1639 H 0.98484 0.30309 0.33659 0.0
H1640 H 0.95508 0.29837 0.36428 0.0
H1641 H 0.90777 0.28545 0.31124 0.0
H1642 H 0.93794 0.28782 0.28382 0.0
H1643 H 0.89533 0.26293 0.34442 0.0
H1644 H 0.91754 0.34171 0.33881 0.0
H1645 H 0.94373 0.3736 0.34097 0.0
H1646 H 0.95974 0.35628 0.40889 0.0
H1647 H 0.93375 0.32428 0.40708 0.0
C1648 C 0.82142 0.28559 0.42095 0.0
C1649 C 0.83019 0.28319 0.44263 0.0
C1650 C 0.83571 0.29045 0.40303 0.0
C1651 C 0.8588 0.29298 0.40673 0.0
C1652 C 0.86705 0.29277 0.42869 0.0
C1653 C 0.85287 0.28786 0.44648 0.0
C1654 C 0.87498 0.29366 0.388 0.0
C1655 C 0.89054 0.31113 0.38747 0.0
C1656 C 0.87656 0.27616 0.37215 0.0
C1657 C 0.86118 0.25664 0.37262 0.0
C1658 C 0.85997 0.24273 0.39161 0.0
C1659 C 0.84489 0.22484 0.39221 0.0
C1660 C 0.8311 0.22053 0.37383 0.0
C1661 C 0.83243 0.23405 0.35477 0.0
C1662 C 0.84744 0.25201 0.35411 0.0
C1663 C 0.96818 0.29871 0.33094 0.0
C1664 C 0.96363 0.29626 0.30803 0.0
C1665 C 0.95107 0.29638 0.34673 0.0
C1666 C 0.92886 0.2927 0.33983 0.0
C1667 C 0.92463 0.2887 0.31705 0.0
C1668 C 0.94193 0.29013 0.30133 0.0
C1669 C 0.91 0.2938 0.35614 0.0
C1670 C 0.89385 0.27663 0.35621 0.0
C1671 C 0.90802 0.31146 0.37187 0.0
C1672 C 0.92383 0.33055 0.37274 0.0
C1673 C 0.92675 0.34466 0.35414 0.0
C1674 C 0.94153 0.36277 0.35533 0.0
C1675 C 0.95342 0.36694 0.37504 0.0
C1676 C 0.95053 0.35304 0.39363 0.0
C1677 C 0.93576 0.33496 0.39255 0.0
H1678 H 0.96484 0.38096 0.37592 0.0
H1679 H 0.81941 0.20671 0.37431 0.0
H1680 H 0.21087 0.09897 0.27243 0.0
H1681 H 0.18573 0.13079 0.27203 0.0
H1682 H 0.13742 0.09359 0.31081 0.0
H1683 H 0.16268 0.06123 0.31121 0.0
H1684 H 0.11918 0.11218 0.27366 0.0
H1685 H 0.16203 0.14074 0.3359 0.0
H1686 H 0.19468 0.15269 0.35821 0.0
H1687 H 0.21676 0.19463 0.30414 0.0
H1688 H 0.18411 0.18311 0.28163 0.0
H1689 H 0.04978 0.20988 0.27906 0.0
H1690 H 0.07191 0.17643 0.28733 0.0
H1691 H 0.12869 0.20567 0.25344 0.0
H1692 H 0.10694 0.23932 0.24581 0.0
H1693 H 0.14049 0.19005 0.29251 0.0
H1694 H 0.09695 0.16251 0.23059 0.0
H1695 H 0.06245 0.15353 0.2098 0.0
H1696 H 0.04152 0.1096 0.26272 0.0
H1697 H 0.07575 0.11856 0.28399 0.0
C1698 C 0.19502 0.09753 0.28113 0.0
C1699 C 0.1887 0.07753 0.29178 0.0
C1700 C 0.18074 0.11586 0.28105 0.0
C1701 C 0.15987 0.11464 0.29166 0.0
C1702 C 0.15359 0.09487 0.3027 0.0
C1703 C 0.16799 0.07643 0.30288 0.0
C1704 C 0.14398 0.13333 0.28906 0.0
C1705 C 0.12355 0.12918 0.27824 0.0
C1706 C 0.15008 0.15552 0.2944 0.0
C1707 C 0.17068 0.16102 0.30709 0.0
C1708 C 0.17396 0.15236 0.32872 0.0
C1709 C 0.19232 0.15925 0.34148 0.0
C1710 C 0.20764 0.17459 0.33269 0.0
C1711 C 0.20476 0.18292 0.31102 0.0
C1712 C 0.1863 0.17627 0.29828 0.0
C1713 C 0.06696 0.20908 0.27334 0.0
C1714 C 0.07675 0.22721 0.262 0.0
C1715 C 0.07952 0.18994 0.27792 0.0
C1716 C 0.10187 0.18852 0.27084 0.0
C1717 C 0.11148 0.20648 0.25913 0.0
C1718 C 0.09907 0.2257 0.25484 0.0
C1719 C 0.11582 0.16901 0.27677 0.0
C1720 C 0.13593 0.17304 0.28815 0.0
C1721 C 0.10942 0.14678 0.27181 0.0
C1722 C 0.08879 0.14144 0.25902 0.0
C1723 C 0.08489 0.15111 0.2379 0.0
C1724 C 0.0654 0.14598 0.226 0.0
C1725 C 0.04977 0.13107 0.23497 0.0
C1726 C 0.05362 0.12119 0.25582 0.0
C1727 C 0.07306 0.12628 0.2678 0.0
H1728 H 0.0347 0.12712 0.22573 0.0
H1729 H 0.2219 0.17981 0.34257 0.0
H1730 H 0.33327 0.9442 0.78782 0.0
H1731 H 0.35847 0.91198 0.79026 0.0
H1732 H 0.30253 0.86767 0.77871 0.0
H1733 H 0.27722 0.89979 0.7784 0.0
H1734 H 0.32839 0.84715 0.80389 0.0
H1735 H 0.34266 0.88815 0.73558 0.0
H1736 H 0.35241 0.92152 0.71329 0.0
H1737 H 0.41576 0.92593 0.74694 0.0
H1738 H 0.40626 0.89273 0.76961 0.0
H1739 H 0.38582 0.7553 0.75662 0.0
H1740 H 0.363 0.78843 0.76288 0.0
H1741 H 0.42171 0.82519 0.78315 0.0
H1742 H 0.44492 0.79202 0.7762 0.0
H1743 H 0.39635 0.84994 0.75625 0.0
H1744 H 0.38165 0.80462 0.82154 0.0
H1745 H 0.37064 0.76998 0.84112 0.0
H1746 H 0.30609 0.77224 0.80967 0.0
H1747 H 0.31682 0.8067 0.78963 0.0
C1748 C 0.32641 0.9275 0.7863 0.0
C1749 C 0.30339 0.92439 0.78295 0.0
C1750 C 0.34083 0.90907 0.78739 0.0
C1751 C 0.33267 0.88724 0.78386 0.0
C1752 C 0.30943 0.8842 0.78139 0.0
C1753 C 0.29492 0.90258 0.78119 0.0
C1754 C 0.34824 0.8677 0.78183 0.0
C1755 C 0.34311 0.84777 0.79328 0.0
C1756 C 0.36781 0.86837 0.76832 0.0
C1757 C 0.37367 0.88809 0.75442 0.0
C1758 C 0.35863 0.89629 0.73827 0.0
C1759 C 0.36411 0.91518 0.72558 0.0
C1760 C 0.38467 0.92588 0.72874 0.0
C1761 C 0.39983 0.91765 0.74453 0.0
C1762 C 0.39442 0.89879 0.75729 0.0
C1763 C 0.39395 0.77037 0.76253 0.0
C1764 C 0.41723 0.77092 0.76608 0.0
C1765 C 0.3808 0.78933 0.76621 0.0
C1766 C 0.39048 0.80927 0.77398 0.0
C1767 C 0.41379 0.80998 0.7773 0.0
C1768 C 0.42705 0.79101 0.77336 0.0
C1769 C 0.37629 0.82943 0.77805 0.0
C1770 C 0.3817 0.84943 0.76698 0.0
C1771 C 0.35674 0.82866 0.79152 0.0
C1772 C 0.35011 0.80819 0.80397 0.0
C1773 C 0.36515 0.79768 0.81872 0.0
C1774 C 0.35895 0.77807 0.8299 0.0
C1775 C 0.3377 0.7689 0.82661 0.0
C1776 C 0.32255 0.77935 0.81219 0.0
C1777 C 0.32867 0.79894 0.80094 0.0
H1778 H 0.33295 0.7537 0.83526 0.0
H1779 H 0.38887 0.94051 0.71892 0.0
H1780 H 0.69235 0.41848 0.69397 0.0
H1781 H 0.66813 0.38587 0.68925 0.0
H1782 H 0.64113 0.39613 0.75542 0.0
H1783 H 0.66519 0.42886 0.76029 0.0
H1784 H 0.66065 0.35365 0.74783 0.0
H1785 H 0.6098 0.40522 0.71262 0.0
H1786 H 0.59728 0.43314 0.68499 0.0
H1787 H 0.60887 0.38641 0.63175 0.0
H1788 H 0.622 0.35834 0.65901 0.0
H1789 H 0.56773 0.28055 0.75562 0.0
H1790 H 0.59279 0.31284 0.75402 0.0
H1791 H 0.61514 0.29267 0.68841 0.0
H1792 H 0.59041 0.25988 0.69012 0.0
H1793 H 0.60093 0.33833 0.69231 0.0
H1794 H 0.64931 0.28604 0.7268 0.0
H1795 H 0.66341 0.25793 0.75345 0.0
H1796 H 0.65827 0.3054 0.80704 0.0
H1797 H 0.64352 0.33365 0.78087 0.0
C1798 C 0.68093 0.41406 0.70736 0.0
C1799 C 0.6808 0.42605 0.72763 0.0
C1800 C 0.66708 0.39549 0.70457 0.0
C1801 C 0.653 0.38864 0.72203 0.0
C1802 C 0.65199 0.40124 0.7418 0.0
C1803 C 0.66566 0.41994 0.74453 0.0
C1804 C 0.64112 0.36709 0.72072 0.0
C1805 C 0.64733 0.35034 0.73594 0.0
C1806 C 0.62465 0.36263 0.70435 0.0
C1807 C 0.61726 0.37976 0.68788 0.0
C1808 C 0.61005 0.40098 0.69501 0.0
C1809 C 0.60276 0.41683 0.6794 0.0
C1810 C 0.60237 0.41159 0.65662 0.0
C1811 C 0.60926 0.39048 0.6494 0.0
C1812 C 0.61666 0.3746 0.66492 0.0
C1813 C 0.57794 0.28302 0.74083 0.0
C1814 C 0.57703 0.26789 0.72288 0.0
C1815 C 0.59237 0.30131 0.74004 0.0
C1816 C 0.60584 0.30494 0.72118 0.0
C1817 C 0.60489 0.28998 0.70314 0.0
C1818 C 0.59078 0.27137 0.70412 0.0
C1819 C 0.6199 0.32515 0.71997 0.0
C1820 C 0.61428 0.34159 0.70417 0.0
C1821 C 0.63704 0.32929 0.73575 0.0
C1822 C 0.64492 0.31194 0.75182 0.0
C1823 C 0.65074 0.2904 0.74432 0.0
C1824 C 0.65895 0.27444 0.75936 0.0
C1825 C 0.66165 0.27984 0.78194 0.0
C1826 C 0.65609 0.3012 0.78955 0.0
C1827 C 0.64776 0.31719 0.77462 0.0
H1828 H 0.66813 0.2675 0.79353 0.0
H1829 H 0.59664 0.42385 0.64458 0.0
H1830 H 0.78002 0.59256 0.20527 0.0
H1831 H 0.805 0.62482 0.2037 0.0
H1832 H 0.86117 0.58218 0.21939 0.0
H1833 H 0.83598 0.55007 0.22211 0.0
H1834 H 0.8613 0.61524 0.24608 0.0
H1835 H 0.85273 0.6101 0.16597 0.0
H1836 H 0.83242 0.60826 0.13008 0.0
H1837 H 0.80134 0.67146 0.1439 0.0
H1838 H 0.82128 0.67359 0.17998 0.0
H1839 H 0.94435 0.69973 0.2346 0.0
H1840 H 0.92141 0.66636 0.22831 0.0
H1841 H 0.86269 0.70774 0.22146 0.0
H1842 H 0.88542 0.7411 0.22763 0.0
H1843 H 0.86462 0.6755 0.18912 0.0
H1844 H 0.87099 0.68005 0.26902 0.0
H1845 H 0.89028 0.6826 0.30541 0.0
H1846 H 0.92428 0.62076 0.29221 0.0
H1847 H 0.9054 0.61799 0.25559 0.0
C1848 C 0.79778 0.59 0.20791 0.0
C1849 C 0.80608 0.56885 0.21398 0.0
C1850 C 0.8121 0.60847 0.20689 0.0
C1851 C 0.83507 0.60601 0.21131 0.0
C1852 C 0.84351 0.58457 0.21604 0.0
C1853 C 0.82913 0.56621 0.21754 0.0
C1854 C 0.84984 0.62593 0.21354 0.0
C1855 C 0.86238 0.62813 0.23333 0.0
C1856 C 0.85058 0.6433 0.19739 0.0
C1857 C 0.83838 0.6419 0.17578 0.0
C1858 C 0.84143 0.62352 0.16145 0.0
C1859 C 0.83001 0.62245 0.14104 0.0
C1860 C 0.81556 0.63971 0.13474 0.0
C1861 C 0.81252 0.6581 0.14881 0.0
C1862 C 0.8239 0.65926 0.16922 0.0
C1863 C 0.92657 0.70172 0.23167 0.0
C1864 C 0.91671 0.72306 0.23163 0.0
C1865 C 0.91348 0.68265 0.22816 0.0
C1866 C 0.89033 0.68458 0.22455 0.0
C1867 C 0.88053 0.70588 0.22417 0.0
C1868 C 0.89356 0.72492 0.22777 0.0
C1869 C 0.87625 0.66441 0.22137 0.0
C1870 C 0.86372 0.66234 0.2016 0.0
C1871 C 0.87539 0.64716 0.23754 0.0
C1872 C 0.887 0.64896 0.25943 0.0
C1873 C 0.88277 0.66712 0.27376 0.0
C1874 C 0.89358 0.66858 0.29446 0.0
C1875 C 0.90855 0.65189 0.30109 0.0
C1876 C 0.91271 0.6337 0.28704 0.0
C1877 C 0.90196 0.63217 0.26631 0.0
H1878 H 0.91688 0.65304 0.31713 0.0
H1879 H 0.80675 0.63885 0.11893 0.0
H1880 H 0.23865 0.09774 0.22657 0.0
H1881 H 0.24495 0.11682 0.19088 0.0
H1882 H 0.31013 0.0863 0.1858 0.0
H1883 H 0.30344 0.06629 0.22142 0.0
H1884 H 0.30572 0.13717 0.18003 0.0
H1885 H 0.27725 0.06717 0.15249 0.0
H1886 H 0.25081 0.0356 0.1501 0.0
H1887 H 0.19784 0.08068 0.13226 0.0
H1888 H 0.2238 0.11259 0.135 0.0
H1889 H 0.30986 0.19414 0.07286 0.0
H1890 H 0.3153 0.16655 0.10297 0.0
H1891 H 0.24376 0.1632 0.11254 0.0
H1892 H 0.2383 0.18976 0.0823 0.0
H1893 H 0.259 0.12362 0.11288 0.0
H1894 H 0.28116 0.19287 0.14727 0.0
H1895 H 0.3029 0.22694 0.15544 0.0
H1896 H 0.36218 0.18747 0.1647 0.0
H1897 H 0.34088 0.15317 0.15618 0.0
C1898 C 0.25431 0.09505 0.2178 0.0
C1899 C 0.27062 0.08066 0.22665 0.0
C1900 C 0.25783 0.10586 0.19741 0.0
C1901 C 0.27793 0.10286 0.18569 0.0
C1902 C 0.29445 0.08868 0.19459 0.0
C1903 C 0.29065 0.07731 0.21482 0.0
C1904 C 0.28159 0.11544 0.16462 0.0
C1905 C 0.296 0.13396 0.16504 0.0
C1906 C 0.26825 0.11155 0.1455 0.0
C1907 C 0.2525 0.09234 0.14414 0.0
C1908 C 0.25991 0.07041 0.14832 0.0
C1909 C 0.24501 0.05243 0.14685 0.0
C1910 C 0.22265 0.05613 0.14107 0.0
C1911 C 0.21515 0.07783 0.13676 0.0
C1912 C 0.22996 0.09587 0.13826 0.0
C1913 C 0.29536 0.18737 0.08139 0.0
C1914 C 0.27364 0.19397 0.0751 0.0
C1915 C 0.29848 0.17173 0.09866 0.0
C1916 C 0.27995 0.16281 0.11015 0.0
C1917 C 0.25835 0.1696 0.10386 0.0
C1918 C 0.25523 0.18484 0.0865 0.0
C1919 C 0.28246 0.1461 0.1285 0.0
C1920 C 0.26922 0.12668 0.12757 0.0
C1921 C 0.29629 0.14966 0.14746 0.0
C1922 C 0.30948 0.17045 0.15073 0.0
C1923 C 0.29891 0.19147 0.15063 0.0
C1924 C 0.31113 0.21082 0.15549 0.0
C1925 C 0.33387 0.20935 0.16072 0.0
C1926 C 0.34454 0.18857 0.16076 0.0
C1927 C 0.33242 0.16918 0.15583 0.0
H1928 H 0.34327 0.22433 0.1646 0.0
H1929 H 0.21116 0.04219 0.1399 0.0
H1930 H 0.2393 0.8862 0.74368 0.0
H1931 H 0.23441 0.8645 0.70943 0.0
H1932 H 0.21326 0.92395 0.67438 0.0
H1933 H 0.2183 0.94592 0.70864 0.0
H1934 H 0.18486 0.88758 0.66825 0.0
H1935 H 0.26242 0.90436 0.66316 0.0
H1936 H 0.30177 0.90742 0.67514 0.0
H1937 H 0.30533 0.83616 0.68305 0.0
H1938 H 0.26585 0.83267 0.67154 0.0
H1939 H 0.19237 0.83196 0.56088 0.0
H1940 H 0.19612 0.8585 0.59185 0.0
H1941 H 0.21349 0.80446 0.63642 0.0
H1942 H 0.20955 0.77781 0.60584 0.0
H1943 H 0.24503 0.84133 0.63462 0.0
H1944 H 0.16596 0.82629 0.64762 0.0
H1945 H 0.12638 0.82295 0.63636 0.0
H1946 H 0.12729 0.89046 0.61183 0.0
H1947 H 0.16675 0.89438 0.62354 0.0
C1948 C 0.23354 0.89466 0.72871 0.0
C1949 C 0.22904 0.91772 0.72882 0.0
C1950 C 0.23097 0.88229 0.70913 0.0
C1951 C 0.2237 0.89272 0.68941 0.0
C1952 C 0.219 0.91569 0.68947 0.0
C1953 C 0.22186 0.92817 0.70901 0.0
C1954 C 0.21998 0.87927 0.66908 0.0
C1955 C 0.19812 0.87782 0.66062 0.0
C1956 C 0.23727 0.86627 0.65945 0.0
C1957 C 0.261 0.86829 0.66673 0.0
C1958 C 0.27147 0.88935 0.66773 0.0
C1959 C 0.29384 0.89116 0.67438 0.0
C1960 C 0.30602 0.87201 0.67993 0.0
C1961 C 0.29586 0.85099 0.6788 0.0
C1962 C 0.27348 0.84909 0.6722 0.0
C1963 C 0.19655 0.82568 0.57737 0.0
C1964 C 0.20088 0.80285 0.58088 0.0
C1965 C 0.19873 0.84084 0.59498 0.0
C1966 C 0.20532 0.83334 0.61622 0.0
C1967 C 0.20861 0.81048 0.62002 0.0
C1968 C 0.20625 0.79531 0.60254 0.0
C1969 C 0.20991 0.84939 0.63428 0.0
C1970 C 0.23192 0.85134 0.6422 0.0
C1971 C 0.19287 0.86285 0.64342 0.0
C1972 C 0.16927 0.86057 0.63627 0.0
C1973 C 0.15771 0.84039 0.63975 0.0
C1974 C 0.1353 0.83842 0.63337 0.0
C1975 C 0.12439 0.8564 0.62318 0.0
C1976 C 0.13578 0.87652 0.61965 0.0
C1977 C 0.15812 0.87869 0.62631 0.0
H1978 H 0.10708 0.85477 0.6181 0.0
H1979 H 0.32333 0.87345 0.68506 0.0
H1980 H 0.74724 0.38255 0.759 0.0
H1981 H 0.75463 0.36147 0.79319 0.0
H1982 H 0.79317 0.4166 0.8192 0.0
H1983 H 0.78548 0.43814 0.78499 0.0
H1984 H 0.81312 0.37265 0.82525 0.0
H1985 H 0.74466 0.41179 0.83905 0.0
H1986 H 0.70625 0.42493 0.83174 0.0
H1987 H 0.68277 0.35707 0.8306 0.0
H1988 H 0.72112 0.34349 0.83758 0.0
H1989 H 0.80246 0.33285 0.94113 0.0
H1990 H 0.80292 0.3563 0.90729 0.0
H1991 H 0.76964 0.30396 0.87052 0.0
H1992 H 0.76974 0.28026 0.90385 0.0
H1993 H 0.74833 0.34932 0.87179 0.0
H1994 H 0.81665 0.31005 0.85625 0.0
H1995 H 0.85479 0.2965 0.86411 0.0
H1996 H 0.87833 0.36419 0.86868 0.0
H1997 H 0.84017 0.37817 0.86135 0.0
C1998 C 0.75751 0.39015 0.77185 0.0
C1999 C 0.76576 0.41204 0.76934 0.0
C2000 C 0.76161 0.37811 0.79142 0.0
C2001 C 0.77426 0.38758 0.80875 0.0
C2002 C 0.7833 0.40907 0.806 0.0
C2003 C 0.77888 0.42133 0.78651 0.0
C2004 C 0.77743 0.37504 0.82986 0.0
C2005 C 0.79904 0.36786 0.83568 0.0
C2006 C 0.75893 0.36852 0.84316 0.0
C2007 C 0.73586 0.37661 0.83858 0.0
C2008 C 0.73137 0.39965 0.83697 0.0
C2009 C 0.70958 0.40718 0.83296 0.0
C2010 C 0.69209 0.39185 0.83065 0.0
C2011 C 0.69634 0.36894 0.83237 0.0
C2012 C 0.7181 0.36131 0.83636 0.0
C2013 C 0.79561 0.32626 0.92571 0.0
C2014 C 0.78602 0.30481 0.9251 0.0
C2015 C 0.79591 0.33961 0.90645 0.0
C2016 C 0.78624 0.33179 0.88655 0.0
C2017 C 0.7772 0.31019 0.88577 0.0
C2018 C 0.77736 0.29668 0.9048 0.0
C2019 C 0.78393 0.34667 0.86696 0.0
C2020 C 0.76244 0.3543 0.86147 0.0
C2021 C 0.80251 0.35353 0.85401 0.0
C2022 C 0.82544 0.34517 0.85863 0.0
C2023 C 0.82987 0.32207 0.85928 0.0
C2024 C 0.85152 0.3143 0.86356 0.0
C2025 C 0.86896 0.32948 0.86699 0.0
C2026 C 0.86479 0.35245 0.8661 0.0
C2027 C 0.84314 0.36031 0.8619 0.0
H2028 H 0.88571 0.32343 0.87027 0.0
H2029 H 0.67523 0.39772 0.82757 0.0
H2030 H 0.76314 0.57546 0.28341 0.0
H2031 H 0.75784 0.59924 0.31635 0.0
H2032 H 0.687 0.60281 0.3024 0.0
H2033 H 0.6927 0.58023 0.26855 0.0
H2034 H 0.70129 0.64214 0.31404 0.0
H2035 H 0.71102 0.56815 0.34484 0.0
H2036 H 0.73082 0.53226 0.3495 0.0
H2037 H 0.78814 0.56675 0.37567 0.0
H2038 H 0.76888 0.60287 0.3708 0.0
H2039 H 0.68783 0.69969 0.4188 0.0
H2040 H 0.68313 0.67192 0.38893 0.0
H2041 H 0.75373 0.65685 0.39215 0.0
H2042 H 0.75825 0.68357 0.42233 0.0
H2043 H 0.73262 0.62031 0.38773 0.0
H2044 H 0.72772 0.69306 0.35149 0.0
H2045 H 0.71129 0.73026 0.34452 0.0
H2046 H 0.64852 0.69979 0.32735 0.0
H2047 H 0.66452 0.6624 0.33445 0.0
C2048 C 0.74645 0.58115 0.28762 0.0
C2049 C 0.72822 0.5758 0.27389 0.0
C2050 C 0.74338 0.59468 0.30642 0.0
C2051 C 0.72189 0.60238 0.31224 0.0
C2052 C 0.70369 0.59699 0.29837 0.0
C2053 C 0.70689 0.584 0.27919 0.0
C2054 C 0.71856 0.61641 0.33252 0.0
C2055 C 0.7078 0.6372 0.33026 0.0
C2056 C 0.72727 0.61012 0.35365 0.0
C2057 C 0.7385 0.58825 0.35737 0.0
C2058 C 0.72786 0.56809 0.35156 0.0
C2059 C 0.73901 0.5477 0.3542 0.0
C2060 C 0.76073 0.54723 0.36285 0.0
C2061 C 0.77132 0.56714 0.36897 0.0
C2062 C 0.76028 0.58757 0.3663 0.0
C2063 C 0.70226 0.69026 0.41322 0.0
C2064 C 0.72342 0.69383 0.42291 0.0
C2065 C 0.69959 0.6745 0.39606 0.0
C2066 C 0.71814 0.66244 0.38803 0.0
C2067 C 0.73912 0.66582 0.39804 0.0
C2068 C 0.74171 0.6812 0.41532 0.0
C2069 C 0.7163 0.64647 0.36903 0.0
C2070 C 0.72584 0.62515 0.37159 0.0
C2071 C 0.70684 0.65246 0.34811 0.0
C2072 C 0.69723 0.67495 0.34383 0.0
C2073 C 0.71036 0.6943 0.3464 0.0
C2074 C 0.70114 0.71542 0.34239 0.0
C2075 C 0.67885 0.71739 0.33559 0.0
C2076 C 0.66576 0.69824 0.33268 0.0
C2077 C 0.6749 0.67708 0.33669 0.0
H2078 H 0.67175 0.73376 0.33253 0.0
H2079 H 0.76935 0.53144 0.36484 0.0
H2080 H 0.24032 0.29479 0.10441 0.0
H2081 H 0.2062 0.29865 0.12676 0.0
H2082 H 0.17257 0.25156 0.08356 0.0
H2083 H 0.20625 0.24856 0.0606 0.0
H2084 H 0.14531 0.28307 0.09242 0.0
H2085 H 0.19383 0.23779 0.13844 0.0
H2086 H 0.22852 0.22871 0.15891 0.0
H2087 H 0.2205 0.28747 0.19935 0.0
H2088 H 0.18584 0.297 0.17899 0.0
H2089 H 0.05714 0.2487 0.16502 0.0
H2090 H 0.09009 0.2518 0.14095 0.0
H2091 H 0.11534 0.30541 0.18195 0.0
H2092 H 0.08241 0.30245 0.20621 0.0
H2093 H 0.14679 0.27332 0.17486 0.0
H2094 H 0.09651 0.31677 0.12935 0.0
H2095 H 0.0616 0.32453 0.10872 0.0
H2096 H 0.07272 0.26686 0.06744 0.0
H2097 H 0.10762 0.25868 0.08793 0.0
C2098 C 0.22557 0.2854 0.09962 0.0
C2099 C 0.22591 0.27145 0.08071 0.0
C2100 C 0.20612 0.28745 0.11252 0.0
C2101 C 0.18683 0.27509 0.10714 0.0
C2102 C 0.18716 0.26132 0.08809 0.0
C2103 C 0.20643 0.25963 0.07494 0.0
C2104 C 0.16621 0.27655 0.12111 0.0
C2105 C 0.14567 0.28066 0.11042 0.0
C2106 C 0.1666 0.27398 0.14471 0.0
C2107 C 0.18737 0.26822 0.15704 0.0
C2108 C 0.19954 0.24884 0.15161 0.0
C2109 C 0.21918 0.2436 0.16322 0.0
C2110 C 0.22674 0.25754 0.18038 0.0
C2111 C 0.21463 0.2767 0.18604 0.0
C2112 C 0.19498 0.28201 0.1745 0.0
C2113 C 0.06952 0.2614 0.16874 0.0
C2114 C 0.06714 0.27531 0.18753 0.0
C2115 C 0.08833 0.26319 0.15492 0.0
C2116 C 0.10515 0.27891 0.15962 0.0
C2117 C 0.10254 0.29321 0.17804 0.0
C2118 C 0.08364 0.29156 0.19179 0.0
C2119 C 0.126 0.27953 0.14607 0.0
C2120 C 0.14654 0.27582 0.15687 0.0
C2121 C 0.1256 0.2822 0.12256 0.0
C2122 C 0.10459 0.28703 0.11027 0.0
C2123 C 0.09142 0.30566 0.11597 0.0
C2124 C 0.07166 0.31016 0.10427 0.0
C2125 C 0.06492 0.29617 0.08681 0.0
C2126 C 0.07796 0.27768 0.08097 0.0
C2127 C 0.09775 0.27314 0.09259 0.0
H2128 H 0.04962 0.29968 0.07778 0.0
H2129 H 0.24195 0.25346 0.18932 0.0
H2130 H 0.73768 0.20422 0.89559 0.0
H2131 H 0.70509 0.19877 0.87154 0.0
H2132 H 0.66741 0.24507 0.91219 0.0
H2133 H 0.69969 0.24957 0.93698 0.0
H2134 H 0.64203 0.21286 0.90291 0.0
H2135 H 0.69071 0.25793 0.85668 0.0
H2136 H 0.72514 0.26808 0.83621 0.0
H2137 H 0.72078 0.20744 0.79804 0.0
H2138 H 0.6864 0.19687 0.81839 0.0
H2139 H 0.55736 0.24393 0.82578 0.0
H2140 H 0.58883 0.24079 0.85157 0.0
H2141 H 0.61574 0.18649 0.81247 0.0
H2142 H 0.58423 0.18966 0.78635 0.0
H2143 H 0.64669 0.21894 0.82026 0.0
H2144 H 0.595 0.17664 0.86533 0.0
H2145 H 0.55968 0.16896 0.88534 0.0
H2146 H 0.56905 0.22788 0.92528 0.0
H2147 H 0.60431 0.23601 0.90538 0.0
C2148 C 0.72237 0.21312 0.89947 0.0
C2149 C 0.72117 0.22723 0.91824 0.0
C2150 C 0.70379 0.21019 0.88553 0.0
C2151 C 0.6838 0.22183 0.88968 0.0
C2152 C 0.68259 0.23584 0.90856 0.0
C2153 C 0.70101 0.23839 0.92279 0.0
C2154 C 0.66391 0.21898 0.87485 0.0
C2155 C 0.64308 0.21449 0.88485 0.0
C2156 C 0.66521 0.22036 0.85117 0.0
C2157 C 0.68616 0.22648 0.83927 0.0
C2158 C 0.69722 0.24666 0.84408 0.0
C2159 C 0.71668 0.25252 0.83244 0.0
C2160 C 0.72518 0.23838 0.81589 0.0
C2161 C 0.7142 0.21836 0.8109 0.0
C2162 C 0.69472 0.21244 0.82246 0.0
C2163 C 0.56977 0.23106 0.82283 0.0
C2164 C 0.56835 0.21712 0.80396 0.0
C2165 C 0.58771 0.22921 0.83768 0.0
C2166 C 0.60461 0.21333 0.83404 0.0
C2167 C 0.60286 0.19883 0.81562 0.0
C2168 C 0.5848 0.2006 0.80079 0.0
C2169 C 0.62491 0.21327 0.84842 0.0
C2170 C 0.64577 0.21716 0.83832 0.0
C2171 C 0.6236 0.21171 0.87201 0.0
C2172 C 0.60222 0.20701 0.88375 0.0
C2173 C 0.58943 0.18806 0.87825 0.0
C2174 C 0.56945 0.18359 0.88961 0.0
C2175 C 0.56211 0.19794 0.90654 0.0
C2176 C 0.57475 0.21678 0.91216 0.0
C2177 C 0.59475 0.2213 0.90088 0.0
H2178 H 0.54665 0.19445 0.91533 0.0
H2179 H 0.74024 0.24295 0.8069 0.0
H2180 H 0.75514 0.79267 0.39022 0.0
H2181 H 0.78863 0.79701 0.36709 0.0
H2182 H 0.82563 0.75525 0.41297 0.0
H2183 H 0.79243 0.75173 0.43665 0.0
H2184 H 0.85087 0.7874 0.4015 0.0
H2185 H 0.80499 0.73666 0.35945 0.0
H2186 H 0.77114 0.72341 0.33988 0.0
H2187 H 0.77481 0.77933 0.29488 0.0
H2188 H 0.80854 0.79305 0.31434 0.0
H2189 H 0.93892 0.75238 0.32924 0.0
H2190 H 0.90672 0.75648 0.35406 0.0
H2191 H 0.87892 0.80638 0.30993 0.0
H2192 H 0.91115 0.80227 0.28487 0.0
H2193 H 0.84894 0.77318 0.31977 0.0
H2194 H 0.89785 0.82147 0.36214 0.0
H2195 H 0.9324 0.83193 0.38217 0.0
H2196 H 0.92392 0.77617 0.42673 0.0
H2197 H 0.88941 0.76529 0.40687 0.0
C2198 C 0.77047 0.78454 0.39544 0.0
C2199 C 0.77116 0.77192 0.41532 0.0
C2200 C 0.78958 0.78686 0.38208 0.0
C2201 C 0.80968 0.77614 0.38799 0.0
C2202 C 0.81041 0.76373 0.40799 0.0
C2203 C 0.79141 0.76174 0.42157 0.0
C2204 C 0.83003 0.77804 0.37359 0.0
C2205 C 0.85043 0.78403 0.38367 0.0
C2206 C 0.82953 0.77415 0.35017 0.0
C2207 C 0.80913 0.76603 0.33854 0.0
C2208 C 0.79846 0.74624 0.34551 0.0
C2209 C 0.77933 0.73861 0.3344 0.0
C2210 C 0.77079 0.75056 0.3162 0.0
C2211 C 0.78141 0.77012 0.30901 0.0
C2212 C 0.80055 0.77782 0.32006 0.0
C2213 C 0.92615 0.76451 0.32498 0.0
C2214 C 0.92756 0.77691 0.30502 0.0
C2215 C 0.90777 0.76691 0.33926 0.0
C2216 C 0.8904 0.78179 0.33392 0.0
C2217 C 0.89213 0.7948 0.3144 0.0
C2218 C 0.91062 0.79252 0.30015 0.0
C2219 C 0.86969 0.78229 0.34777 0.0
C2220 C 0.84926 0.77673 0.33758 0.0
C2221 C 0.87023 0.7861 0.37114 0.0
C2222 C 0.89113 0.79249 0.38291 0.0
C2223 C 0.90345 0.81134 0.37609 0.0
C2224 C 0.923 0.81738 0.38746 0.0
C2225 C 0.93037 0.8047 0.40568 0.0
C2226 C 0.9182 0.78598 0.41261 0.0
C2227 C 0.89862 0.7799 0.40134 0.0
H2228 H 0.9455 0.80941 0.41446 0.0
H2229 H 0.75597 0.74463 0.30763 0.0
H2230 H 0.40575 0.70582 0.71821 0.0
H2231 H 0.37364 0.70355 0.69332 0.0
H2232 H 0.41636 0.71808 0.63675 0.0
H2233 H 0.44837 0.72195 0.66206 0.0
H2234 H 0.3829 0.74315 0.63433 0.0
H2235 H 0.38816 0.66348 0.64804 0.0
H2236 H 0.38977 0.62863 0.67018 0.0
H2237 H 0.32727 0.64516 0.70153 0.0
H2238 H 0.32538 0.68008 0.67984 0.0
H2239 H 0.29104 0.7268 0.55824 0.0
H2240 H 0.32667 0.7228 0.5781 0.0
H2241 H 0.29125 0.71883 0.64092 0.0
H2242 H 0.25567 0.72271 0.6213 0.0
H2243 H 0.32244 0.68644 0.63679 0.0
H2244 H 0.31783 0.76608 0.62609 0.0
H2245 H 0.31517 0.80167 0.60537 0.0
H2246 H 0.37561 0.78606 0.56978 0.0
H2247 H 0.37849 0.75023 0.59007 0.0
C2248 C 0.40837 0.70808 0.7004 0.0
C2249 C 0.42948 0.71411 0.692 0.0
C2250 C 0.38999 0.7066 0.6861 0.0
C2251 C 0.39251 0.71028 0.663 0.0
C2252 C 0.41392 0.71518 0.65449 0.0
C2253 C 0.43221 0.71733 0.6689 0.0
C2254 C 0.37254 0.71143 0.64818 0.0
C2255 C 0.36996 0.73041 0.63448 0.0
C2256 C 0.35519 0.69528 0.6489 0.0
C2257 C 0.35672 0.67447 0.66238 0.0
C2258 C 0.37487 0.65975 0.6598 0.0
C2259 C 0.37579 0.63994 0.67226 0.0
C2260 C 0.35865 0.63466 0.6873 0.0
C2261 C 0.34055 0.6492 0.68992 0.0
C2262 C 0.33953 0.66898 0.67753 0.0
C2263 C 0.29083 0.72485 0.57627 0.0
C2264 C 0.27051 0.72493 0.5882 0.0
C2265 C 0.31121 0.72281 0.58758 0.0
C2266 C 0.31157 0.72074 0.61097 0.0
C2267 C 0.29131 0.72044 0.62285 0.0
C2268 C 0.27099 0.72259 0.6116 0.0
C2269 C 0.33293 0.71806 0.6232 0.0
C2270 C 0.33567 0.69887 0.63639 0.0
C2271 C 0.35033 0.73405 0.62211 0.0
C2272 C 0.34816 0.75527 0.60935 0.0
C2273 C 0.33038 0.77007 0.61361 0.0
C2274 C 0.32888 0.79034 0.60201 0.0
C2275 C 0.34515 0.79608 0.5862 0.0
C2276 C 0.36297 0.78157 0.58197 0.0
C2277 C 0.36454 0.76127 0.59352 0.0
H2278 H 0.344 0.81181 0.57728 0.0
H2279 H 0.35936 0.61931 0.6969 0.0
H2280 H 0.77885 0.90285 0.71193 0.0
H2281 H 0.80358 0.87028 0.71153 0.0
H2282 H 0.86118 0.91362 0.71451 0.0
H2283 H 0.83643 0.94641 0.71577 0.0
H2284 H 0.86227 0.87205 0.68289 0.0
H2285 H 0.85041 0.8971 0.75894 0.0
H2286 H 0.82704 0.90921 0.79069 0.0
H2287 H 0.79281 0.84609 0.79021 0.0
H2288 H 0.81567 0.83376 0.75807 0.0
H2289 H 0.94374 0.79453 0.72342 0.0
H2290 H 0.92041 0.8277 0.71751 0.0
H2291 H 0.86121 0.78872 0.73127 0.0
H2292 H 0.88433 0.75556 0.73714 0.0
H2293 H 0.86106 0.82859 0.75376 0.0
H2294 H 0.87253 0.80274 0.67898 0.0
H2295 H 0.89478 0.78995 0.64668 0.0
H2296 H 0.92861 0.85327 0.64427 0.0
H2297 H 0.90677 0.86635 0.6768 0.0
C2298 C 0.79678 0.9055 0.71208 0.0
C2299 C 0.80575 0.92714 0.71406 0.0
C2300 C 0.81086 0.88687 0.71186 0.0
C2301 C 0.83414 0.8896 0.7131 0.0
C2302 C 0.84323 0.91124 0.71354 0.0
C2303 C 0.82911 0.9299 0.71434 0.0
C2304 C 0.84868 0.86982 0.71619 0.0
C2305 C 0.8623 0.86269 0.69845 0.0
C2306 C 0.84818 0.85739 0.73635 0.0
C2307 C 0.83455 0.86463 0.75585 0.0
C2308 C 0.83771 0.8859 0.7654 0.0
C2309 C 0.82459 0.89278 0.78351 0.0
C2310 C 0.80839 0.87846 0.79242 0.0
C2311 C 0.80533 0.85719 0.78326 0.0
C2312 C 0.81836 0.85024 0.76508 0.0
C2313 C 0.92575 0.79302 0.72511 0.0
C2314 C 0.9159 0.7724 0.73069 0.0
C2315 C 0.91244 0.81196 0.72167 0.0
C2316 C 0.88905 0.81065 0.72384 0.0
C2317 C 0.87921 0.79012 0.72951 0.0
C2318 C 0.89247 0.77115 0.73277 0.0
C2319 C 0.87486 0.83075 0.72048 0.0
C2320 C 0.86117 0.83793 0.73818 0.0
C2321 C 0.87522 0.84312 0.70024 0.0
C2322 C 0.88818 0.83545 0.68049 0.0
C2323 C 0.88484 0.81389 0.67168 0.0
C2324 C 0.89735 0.80659 0.65331 0.0
C2325 C 0.91314 0.82077 0.64347 0.0
C2326 C 0.91639 0.8423 0.65193 0.0
C2327 C 0.90393 0.84967 0.67033 0.0
H2328 H 0.92283 0.81508 0.62926 0.0
H2329 H 0.79827 0.88381 0.80646 0.0
H2330 H 0.71547 0.09735 0.21354 0.0
H2331 H 0.6899 0.12911 0.21544 0.0
H2332 H 0.63367 0.08489 0.20613 0.0
H2333 H 0.65915 0.05277 0.2049 0.0
H2334 H 0.63043 0.12561 0.18181 0.0
H2335 H 0.6446 0.09926 0.25536 0.0
H2336 H 0.66753 0.08684 0.28728 0.0
H2337 H 0.69678 0.15214 0.29218 0.0
H2338 H 0.67467 0.16485 0.25969 0.0
H2339 H 0.54953 0.2042 0.22386 0.0
H2340 H 0.57197 0.17031 0.21828 0.0
H2341 H 0.63243 0.20858 0.22771 0.0
H2342 H 0.61028 0.2424 0.23318 0.0
H2343 H 0.6315 0.16899 0.2526 0.0
H2344 H 0.61813 0.19369 0.17657 0.0
H2345 H 0.5946 0.20483 0.14454 0.0
H2346 H 0.56168 0.14101 0.14607 0.0
H2347 H 0.58483 0.12959 0.17831 0.0
C2348 C 0.69771 0.09437 0.21149 0.0
C2349 C 0.68927 0.07256 0.20924 0.0
C2350 C 0.68314 0.11254 0.21265 0.0
C2351 C 0.65996 0.10926 0.21111 0.0
C2352 C 0.65154 0.08769 0.20738 0.0
C2353 C 0.66609 0.06941 0.2067 0.0
C2354 C 0.64458 0.12825 0.21483 0.0
C2355 C 0.63039 0.13492 0.19738 0.0
C2356 C 0.64476 0.14039 0.23516 0.0
C2357 C 0.65815 0.13293 0.25481 0.0
C2358 C 0.65616 0.11093 0.26299 0.0
C2359 C 0.66904 0.10383 0.2812 0.0
C2360 C 0.68375 0.11867 0.29163 0.0
C2361 C 0.68555 0.14065 0.28392 0.0
C2362 C 0.67286 0.1478 0.26558 0.0
C2363 C 0.56761 0.2054 0.22463 0.0
C2364 C 0.57812 0.22599 0.22889 0.0
C2365 C 0.58038 0.18605 0.22142 0.0
C2366 C 0.60385 0.18699 0.22254 0.0
C2367 C 0.61434 0.20751 0.22681 0.0
C2368 C 0.60163 0.22684 0.22981 0.0
C2369 C 0.61758 0.16661 0.21943 0.0
C2370 C 0.63146 0.15963 0.23706 0.0
C2371 C 0.61693 0.15404 0.19939 0.0
C2372 C 0.60302 0.16089 0.18001 0.0
C2373 C 0.60573 0.18211 0.1702 0.0
C2374 C 0.5925 0.18846 0.15198 0.0
C2375 C 0.57661 0.17367 0.14332 0.0
C2376 C 0.57396 0.15246 0.15282 0.0
C2377 C 0.58714 0.14604 0.17106 0.0
H2378 H 0.56638 0.17861 0.12921 0.0
H2379 H 0.69366 0.11318 0.30577 0.0
H2380 H 0.39582 0.73709 0.29541 0.0
H2381 H 0.37249 0.70357 0.29927 0.0
H2382 H 0.41237 0.67008 0.24937 0.0
H2383 H 0.4361 0.70337 0.24576 0.0
H2384 H 0.36405 0.66815 0.24273 0.0
H2385 H 0.42021 0.65404 0.2987 0.0
H2386 H 0.44324 0.66414 0.33139 0.0
H2387 H 0.38396 0.67114 0.37144 0.0
H2388 H 0.36053 0.66139 0.33885 0.0
H2389 H 0.32704 0.5583 0.24994 0.0
H2390 H 0.35251 0.58997 0.25337 0.0
H2391 H 0.31147 0.61758 0.30588 0.0
H2392 H 0.28575 0.58571 0.30263 0.0
H2393 H 0.35911 0.62342 0.31267 0.0
H2394 H 0.30279 0.63719 0.25727 0.0
H2395 H 0.27944 0.62756 0.22463 0.0
H2396 H 0.3383 0.62219 0.18371 0.0
H2397 H 0.36203 0.63145 0.21621 0.0
C2398 C 0.39974 0.72252 0.2854 0.0
C2399 C 0.41787 0.72281 0.27037 0.0
C2400 C 0.3864 0.7034 0.28763 0.0
C2401 C 0.39074 0.68438 0.27462 0.0
C2402 C 0.40879 0.68461 0.25957 0.0
C2403 C 0.4224 0.70357 0.25764 0.0
C2404 C 0.3762 0.66434 0.27645 0.0
C2405 C 0.36316 0.65823 0.25793 0.0
C2406 C 0.37458 0.65182 0.29651 0.0
C2407 C 0.3886 0.65721 0.31628 0.0
C2408 C 0.41207 0.65789 0.31444 0.0
C2409 C 0.4252 0.66352 0.33295 0.0
C2410 C 0.41507 0.66834 0.35347 0.0
C2411 C 0.39178 0.66743 0.35552 0.0
C2412 C 0.37856 0.66182 0.33704 0.0
C2413 C 0.32353 0.57091 0.26246 0.0
C2414 C 0.30418 0.56965 0.27578 0.0
C2415 C 0.33815 0.58899 0.26441 0.0
C2416 C 0.3337 0.60627 0.27964 0.0
C2417 C 0.31518 0.60442 0.294 0.0
C2418 C 0.30048 0.58624 0.29207 0.0
C2419 C 0.34722 0.62707 0.27882 0.0
C2420 C 0.35996 0.63339 0.29752 0.0
C2421 C 0.34847 0.63995 0.25895 0.0
C2422 C 0.33421 0.63487 0.23922 0.0
C2423 C 0.31077 0.63383 0.24134 0.0
C2424 C 0.29746 0.62845 0.22287 0.0
C2425 C 0.30739 0.62424 0.20212 0.0
C2426 C 0.33064 0.62546 0.1998 0.0
C2427 C 0.34403 0.6308 0.21823 0.0
H2428 H 0.29708 0.62009 0.18783 0.0
H2429 H 0.42526 0.67273 0.36778 0.0
H2430 H 0.09855 0.2742 0.73265 0.0
H2431 H 0.1196 0.30853 0.73912 0.0
H2432 H 0.09884 0.30827 0.80838 0.0
H2433 H 0.07626 0.27447 0.80132 0.0
H2434 H 0.09945 0.34942 0.79369 0.0
H2435 H 0.15251 0.28962 0.79055 0.0
H2436 H 0.17006 0.25593 0.7745 0.0
H2437 H 0.18806 0.29289 0.7155 0.0
H2438 H 0.17031 0.32669 0.731 0.0
H2439 H 0.19524 0.42819 0.80733 0.0
H2440 H 0.17009 0.39598 0.81271 0.0
H2441 H 0.16045 0.39183 0.74132 0.0
H2442 H 0.18483 0.42402 0.73584 0.0
H2443 H 0.17751 0.3516 0.7654 0.0
H2444 H 0.12099 0.40974 0.76694 0.0
H2445 H 0.10183 0.44298 0.78189 0.0
H2446 H 0.09027 0.40887 0.84411 0.0
H2447 H 0.10991 0.37556 0.82972 0.0
C2448 C 0.09843 0.28157 0.74922 0.0
C2449 C 0.0861 0.27176 0.76657 0.0
C2450 C 0.11059 0.30107 0.75298 0.0
C2451 C 0.11149 0.31061 0.77445 0.0
C2452 C 0.09862 0.30109 0.79175 0.0
C2453 C 0.08581 0.28184 0.78777 0.0
C2454 C 0.12605 0.33037 0.77849 0.0
C2455 C 0.11669 0.34974 0.78798 0.0
C2456 C 0.14858 0.33086 0.77098 0.0
C2457 C 0.15998 0.3107 0.76195 0.0
C2458 C 0.16017 0.29056 0.77414 0.0
C2459 C 0.17013 0.27143 0.76512 0.0
C2460 C 0.18014 0.27226 0.74399 0.0
C2461 C 0.18031 0.29226 0.73187 0.0
C2462 C 0.17033 0.31142 0.74079 0.0
C2463 C 0.1874 0.42061 0.79286 0.0
C2464 C 0.19197 0.42862 0.77117 0.0
C2465 C 0.17306 0.4023 0.79597 0.0
C2466 C 0.16347 0.39164 0.77739 0.0
C2467 C 0.16764 0.39995 0.75584 0.0
C2468 C 0.18153 0.4184 0.75277 0.0
C2469 C 0.15061 0.37068 0.77977 0.0
C2470 C 0.16044 0.35105 0.77162 0.0
C2471 C 0.12866 0.37 0.78858 0.0
C2472 C 0.11736 0.39027 0.7974 0.0
C2473 C 0.11477 0.40944 0.78396 0.0
C2474 C 0.10373 0.42828 0.7923 0.0
C2475 C 0.09494 0.42808 0.81398 0.0
C2476 C 0.09718 0.40904 0.82736 0.0
C2477 C 0.1083 0.39019 0.81913 0.0
H2478 H 0.08632 0.44265 0.82037 0.0
H2479 H 0.18778 0.25742 0.73701 0.0
H2480 H 0.68703 0.80302 0.9244 0.0
H2481 H 0.68198 0.83005 0.89366 0.0
H2482 H 0.75344 0.83046 0.88269 0.0
H2483 H 0.75851 0.8046 0.91355 0.0
H2484 H 0.7399 0.87051 0.88363 0.0
H2485 H 0.7138 0.80265 0.84835 0.0
H2486 H 0.69002 0.77005 0.83975 0.0
H2487 H 0.63308 0.81305 0.83178 0.0
H2488 H 0.65644 0.84591 0.84062 0.0
H2489 H 0.76109 0.89894 0.77076 0.0
H2490 H 0.75355 0.8774 0.80487 0.0
H2491 H 0.69101 0.91238 0.81342 0.0
H2492 H 0.69896 0.93467 0.77955 0.0
H2493 H 0.69242 0.86005 0.81643 0.0
H2494 H 0.72418 0.92829 0.84625 0.0
H2495 H 0.75243 0.95832 0.84795 0.0
H2496 H 0.80368 0.90992 0.86173 0.0
H2497 H 0.77582 0.87956 0.85967 0.0
C2498 C 0.70158 0.80904 0.9154 0.0
C2499 C 0.7232 0.80201 0.92155 0.0
C2500 C 0.69868 0.82432 0.89776 0.0
C2501 C 0.71734 0.83234 0.88583 0.0
C2502 C 0.73878 0.8248 0.89178 0.0
C2503 C 0.74169 0.81002 0.90951 0.0
C2504 C 0.71532 0.84934 0.86778 0.0
C2505 C 0.72947 0.8681 0.86897 0.0
C2506 C 0.70124 0.84668 0.84885 0.0
C2507 C 0.68682 0.82674 0.84549 0.0
C2508 C 0.69613 0.80514 0.84516 0.0
C2509 C 0.68276 0.78662 0.84005 0.0
C2510 C 0.6601 0.7895 0.83507 0.0
C2511 C 0.65066 0.81086 0.83553 0.0
C2512 C 0.66394 0.82942 0.84064 0.0
C2513 C 0.74581 0.90208 0.78002 0.0
C2514 C 0.73064 0.91846 0.77282 0.0
C2515 C 0.74151 0.8898 0.7994 0.0
C2516 C 0.72175 0.89336 0.81155 0.0
C2517 C 0.70635 0.90949 0.8042 0.0
C2518 C 0.71095 0.92225 0.78506 0.0
C2519 C 0.71767 0.88028 0.83213 0.0
C2520 C 0.70235 0.86252 0.83143 0.0
C2521 C 0.73115 0.88333 0.85125 0.0
C2522 C 0.7479 0.90163 0.85266 0.0
C2523 C 0.7415 0.92403 0.84944 0.0
C2524 C 0.75744 0.94111 0.85051 0.0
C2525 C 0.77984 0.93603 0.85492 0.0
C2526 C 0.78633 0.91384 0.85831 0.0
C2527 C 0.77046 0.89669 0.85721 0.0
H2528 H 0.79215 0.94928 0.85576 0.0
H2529 H 0.64981 0.77516 0.83103 0.0
H2530 H 0.73264 0.09625 0.27334 0.0
H2531 H 0.739 0.11851 0.30697 0.0
H2532 H 0.80754 0.09559 0.30923 0.0
H2533 H 0.80052 0.07198 0.27625 0.0
H2534 H 0.7936 0.09747 0.34909 0.0
H2535 H 0.78973 0.14922 0.28903 0.0
H2536 H 0.77482 0.16859 0.25581 0.0
H2537 H 0.71811 0.19095 0.2938 0.0
H2538 H 0.73214 0.17101 0.32704 0.0
H2539 H 0.80969 0.19216 0.42786 0.0
H2540 H 0.814 0.16702 0.39552 0.0
H2541 H 0.74231 0.15943 0.39204 0.0
H2542 H 0.7379 0.18378 0.42438 0.0
H2543 H 0.76575 0.17551 0.35159 0.0
H2544 H 0.76914 0.11886 0.41023 0.0
H2545 H 0.78588 0.10046 0.44314 0.0
H2546 H 0.84695 0.0901 0.4067 0.0
H2547 H 0.83074 0.10891 0.3737 0.0
C2548 C 0.749 0.09589 0.28118 0.0
C2549 C 0.76613 0.08252 0.27238 0.0
C2550 C 0.75273 0.10879 0.30025 0.0
C2551 C 0.77398 0.10934 0.31036 0.0
C2552 C 0.79105 0.09561 0.3017 0.0
C2553 C 0.78709 0.08214 0.28291 0.0
C2554 C 0.77803 0.12399 0.33013 0.0
C2555 C 0.78787 0.11467 0.34941 0.0
C2556 C 0.77066 0.14656 0.3307 0.0
C2557 C 0.76196 0.15839 0.31056 0.0
C2558 C 0.77394 0.15802 0.29027 0.0
C2559 C 0.76561 0.1691 0.2714 0.0
C2560 C 0.7455 0.18092 0.27267 0.0
C2561 C 0.73367 0.18174 0.29282 0.0
C2562 C 0.74176 0.17046 0.31167 0.0
C2563 C 0.79493 0.18476 0.4204 0.0
C2564 C 0.77346 0.1899 0.42864 0.0
C2565 C 0.79741 0.17044 0.402 0.0
C2566 C 0.77845 0.16147 0.39146 0.0
C2567 C 0.75713 0.16617 0.40003 0.0
C2568 C 0.75466 0.18003 0.41858 0.0
C2569 C 0.78024 0.14858 0.37044 0.0
C2570 C 0.77171 0.15838 0.35093 0.0
C2571 C 0.78906 0.12669 0.3696 0.0
C2572 C 0.79884 0.11566 0.38959 0.0
C2573 C 0.78625 0.11299 0.40932 0.0
C2574 C 0.79562 0.10241 0.42798 0.0
C2575 C 0.8175 0.09421 0.42705 0.0
C2576 C 0.83004 0.09654 0.40744 0.0
C2577 C 0.82077 0.10718 0.38876 0.0
H2578 H 0.8247 0.08597 0.44149 0.0
H2579 H 0.7391 0.18952 0.25806 0.0
H2580 H 0.26031 0.68565 0.07581 0.0
H2581 H 0.25551 0.66002 0.10697 0.0
H2582 H 0.18385 0.66811 0.10321 0.0
H2583 H 0.18866 0.69483 0.07221 0.0
H2584 H 0.19777 0.66805 0.14621 0.0
H2585 H 0.2085 0.6193 0.08387 0.0
H2586 H 0.22672 0.60668 0.04907 0.0
H2587 H 0.28871 0.59776 0.0843 0.0
H2588 H 0.2709 0.61051 0.11929 0.0
H2589 H 0.19181 0.57706 0.22534 0.0
H2590 H 0.18629 0.60019 0.19169 0.0
H2591 H 0.25789 0.6037 0.18255 0.0
H2592 H 0.26328 0.58019 0.21579 0.0
H2593 H 0.23729 0.59512 0.14382 0.0
H2594 H 0.22745 0.64829 0.20465 0.0
H2595 H 0.20971 0.66224 0.23923 0.0
H2596 H 0.14567 0.66271 0.20665 0.0
H2597 H 0.16303 0.64863 0.17191 0.0
C2598 C 0.24347 0.68188 0.0814 0.0
C2599 C 0.22484 0.69206 0.07134 0.0
C2600 C 0.24075 0.66715 0.09925 0.0
C2601 C 0.2193 0.66169 0.10715 0.0
C2602 C 0.20056 0.67194 0.0973 0.0
C2603 C 0.20332 0.68709 0.07954 0.0
C2604 C 0.21693 0.64535 0.12579 0.0
C2605 C 0.20596 0.65188 0.14554 0.0
C2606 C 0.22777 0.62432 0.12503 0.0
C2607 C 0.23836 0.61588 0.10419 0.0
C2608 C 0.22602 0.61465 0.08419 0.0
C2609 C 0.23628 0.60748 0.06443 0.0
C2610 C 0.25886 0.60142 0.06446 0.0
C2611 C 0.27121 0.60241 0.0843 0.0
C2612 C 0.26102 0.60954 0.10412 0.0
C2613 C 0.20626 0.58267 0.21591 0.0
C2614 C 0.22791 0.57669 0.22272 0.0
C2615 C 0.20314 0.59599 0.19687 0.0
C2616 C 0.22169 0.60381 0.18466 0.0
C2617 C 0.24334 0.59776 0.19161 0.0
C2618 C 0.24642 0.58431 0.21049 0.0
C2619 C 0.21881 0.6181 0.16449 0.0
C2620 C 0.22873 0.6111 0.14439 0.0
C2621 C 0.2069 0.63859 0.16497 0.0
C2622 C 0.19649 0.6472 0.18577 0.0
C2623 C 0.20956 0.65125 0.20491 0.0
C2624 C 0.19959 0.65921 0.22453 0.0
C2625 C 0.17657 0.66329 0.22516 0.0
C2626 C 0.16349 0.65952 0.20615 0.0
C2627 C 0.17339 0.65159 0.18648 0.0
H2628 H 0.16887 0.66943 0.24037 0.0
H2629 H 0.26678 0.59595 0.04912 0.0
H2630 H 0.24739 0.43865 0.70057 0.0
H2631 H 0.25074 0.41389 0.66803 0.0
H2632 H 0.29298 0.36946 0.70607 0.0
H2633 H 0.28945 0.3939 0.73872 0.0
H2634 H 0.30993 0.3793 0.66352 0.0
H2635 H 0.24289 0.35292 0.69706 0.0
H2636 H 0.20498 0.35406 0.71337 0.0
H2637 H 0.17876 0.37936 0.65142 0.0
H2638 H 0.21658 0.37869 0.63483 0.0
H2639 H 0.30302 0.28751 0.58494 0.0
H2640 H 0.3046 0.31222 0.61755 0.0
H2641 H 0.25747 0.35684 0.58597 0.0
H2642 H 0.25561 0.33216 0.55351 0.0
H2643 H 0.24382 0.34502 0.627 0.0
H2644 H 0.313 0.37098 0.59399 0.0
H2645 H 0.35143 0.3683 0.57917 0.0
H2646 H 0.37409 0.34131 0.6418 0.0
H2647 H 0.33573 0.34353 0.65691 0.0
C2648 C 0.2575 0.42368 0.70195 0.0
C2649 C 0.26825 0.41829 0.72217 0.0
C2650 C 0.25926 0.40947 0.68342 0.0
C2651 C 0.27202 0.38979 0.68469 0.0
C2652 C 0.28305 0.38456 0.70474 0.0
C2653 C 0.28101 0.39855 0.72337 0.0
C2654 C 0.27421 0.37491 0.66494 0.0
C2655 C 0.29553 0.37155 0.65565 0.0
C2656 C 0.25537 0.36496 0.65466 0.0
C2657 C 0.23267 0.36608 0.6648 0.0
C2658 C 0.22911 0.35905 0.68701 0.0
C2659 C 0.20761 0.35952 0.69628 0.0
C2660 C 0.18949 0.36687 0.68347 0.0
C2661 C 0.19283 0.37374 0.66135 0.0
C2662 C 0.21429 0.37331 0.652 0.0
C2663 C 0.29335 0.30282 0.58474 0.0
C2664 C 0.27901 0.30776 0.56672 0.0
C2665 C 0.2943 0.31696 0.60341 0.0
C2666 C 0.28108 0.33637 0.60427 0.0
C2667 C 0.26769 0.34188 0.58576 0.0
C2668 C 0.26668 0.32776 0.56718 0.0
C2669 C 0.27951 0.3499 0.62509 0.0
C2670 C 0.25825 0.35284 0.63476 0.0
C2671 C 0.29847 0.3592 0.63585 0.0
C2672 C 0.3214 0.35716 0.62648 0.0
C2673 C 0.3261 0.36419 0.60451 0.0
C2674 C 0.3479 0.36283 0.59608 0.0
C2675 C 0.36517 0.35458 0.60951 0.0
C2676 C 0.36069 0.34765 0.6314 0.0
C2677 C 0.33892 0.34896 0.6399 0.0
H2678 H 0.38205 0.35361 0.60297 0.0
H2679 H 0.17286 0.36718 0.69066 0.0
H2680 H 0.91704 0.68969 0.78978 0.0
H2681 H 0.8853 0.68472 0.81537 0.0
H2682 H 0.90122 0.74752 0.84713 0.0
H2683 H 0.93314 0.75219 0.82232 0.0
H2684 H 0.88915 0.71931 0.87744 0.0
H2685 H 0.86036 0.74091 0.80486 0.0
H2686 H 0.85394 0.73671 0.7643 0.0
H2687 H 0.82057 0.67413 0.77578 0.0
H2688 H 0.82712 0.67777 0.8164 0.0
H2689 H 0.78836 0.75339 0.92801 0.0
H2690 H 0.8215 0.74983 0.90436 0.0
H2691 H 0.79573 0.68798 0.87748 0.0
H2692 H 0.76184 0.69229 0.9002 0.0
H2693 H 0.81315 0.71045 0.84534 0.0
H2694 H 0.83947 0.69196 0.9195 0.0
H2695 H 0.84509 0.6987 0.95984 0.0
H2696 H 0.88285 0.75799 0.94499 0.0
H2697 H 0.87717 0.75183 0.90459 0.0
C2698 C 0.91394 0.70225 0.80246 0.0
C2699 C 0.92752 0.72143 0.8039 0.0
C2700 C 0.8957 0.69947 0.81697 0.0
C2701 C 0.89057 0.71596 0.83294 0.0
C2702 C 0.90473 0.73459 0.83494 0.0
C2703 C 0.92299 0.73727 0.82065 0.0
C2704 C 0.87016 0.71455 0.84719 0.0
C2705 C 0.87252 0.71747 0.87039 0.0
C2706 C 0.84844 0.71165 0.8381 0.0
C2707 C 0.8445 0.70947 0.81366 0.0
C2708 C 0.85183 0.72615 0.79872 0.0
C2709 C 0.84815 0.72388 0.77572 0.0
C2710 C 0.83694 0.70512 0.76746 0.0
C2711 C 0.82932 0.68862 0.7822 0.0
C2712 C 0.83302 0.69077 0.80521 0.0
C2713 C 0.78987 0.73893 0.91721 0.0
C2714 C 0.7727 0.72293 0.91618 0.0
C2715 C 0.80889 0.73684 0.90372 0.0
C2716 C 0.81153 0.71828 0.88951 0.0
C2717 C 0.79424 0.70237 0.88838 0.0
C2718 C 0.77493 0.70477 0.90145 0.0
C2719 C 0.8321 0.71572 0.87558 0.0
C2720 C 0.82978 0.71198 0.85246 0.0
C2721 C 0.85388 0.71812 0.88469 0.0
C2722 C 0.85778 0.72148 0.909 0.0
C2723 C 0.84891 0.70647 0.92484 0.0
C2724 C 0.85209 0.71021 0.94772 0.0
C2725 C 0.86429 0.72878 0.95497 0.0
C2726 C 0.8734 0.74362 0.93936 0.0
C2727 C 0.87022 0.74 0.91647 0.0
H2728 H 0.8667 0.73165 0.97269 0.0
H2729 H 0.83408 0.7034 0.74966 0.0
H2730 H 0.25395 0.77554 0.10959 0.0
H2731 H 0.28751 0.78123 0.13226 0.0
H2732 H 0.3289 0.76536 0.0753 0.0
H2733 H 0.29536 0.7596 0.05244 0.0
H2734 H 0.34128 0.74264 0.11403 0.0
H2735 H 0.3239 0.81831 0.09198 0.0
H2736 H 0.29895 0.8509 0.08807 0.0
H2737 H 0.29103 0.85381 0.15945 0.0
H2738 H 0.31565 0.82098 0.16377 0.0
H2739 H 0.44432 0.76655 0.16216 0.0
H2740 H 0.41265 0.76999 0.13648 0.0
H2741 H 0.37154 0.79494 0.19037 0.0
H2742 H 0.40358 0.79264 0.21583 0.0
H2743 H 0.35883 0.81387 0.15284 0.0
H2744 H 0.37267 0.73856 0.17616 0.0
H2745 H 0.39578 0.70497 0.18234 0.0
H2746 H 0.40776 0.69987 0.11164 0.0
H2747 H 0.38497 0.73365 0.10508 0.0
C2748 C 0.27018 0.77341 0.1018 0.0
C2749 C 0.27197 0.76719 0.07916 0.0
C2750 C 0.28935 0.77673 0.11479 0.0
C2751 C 0.31071 0.77389 0.10542 0.0
C2752 C 0.31257 0.7677 0.08283 0.0
C2753 C 0.29339 0.76452 0.06977 0.0
C2754 C 0.33108 0.77674 0.11937 0.0
C2755 C 0.34533 0.75832 0.12221 0.0
C2756 C 0.33588 0.79697 0.13071 0.0
C2757 C 0.32148 0.81704 0.12818 0.0
C2758 C 0.31673 0.8258 0.10684 0.0
C2759 C 0.30265 0.84433 0.10455 0.0
C2760 C 0.29336 0.85438 0.12349 0.0
C2761 C 0.29821 0.84598 0.14478 0.0
C2762 C 0.31225 0.82743 0.14716 0.0
C2763 C 0.42864 0.77319 0.16839 0.0
C2764 C 0.42628 0.77904 0.191 0.0
C2765 C 0.41052 0.77506 0.15374 0.0
C2766 C 0.38948 0.78204 0.16163 0.0
C2767 C 0.38752 0.78934 0.1839 0.0
C2768 C 0.40584 0.78799 0.19845 0.0
C2769 C 0.36924 0.77982 0.14726 0.0
C2770 C 0.35491 0.79825 0.14451 0.0
C2771 C 0.36405 0.75943 0.13633 0.0
C2772 C 0.37725 0.73874 0.14015 0.0
C2773 C 0.38029 0.73032 0.16194 0.0
C2774 C 0.39335 0.71125 0.16551 0.0
C2775 C 0.40327 0.70032 0.1474 0.0
C2776 C 0.40008 0.70837 0.12566 0.0
C2777 C 0.38707 0.72747 0.122 0.0
H2778 H 0.41341 0.68558 0.15019 0.0
H2779 H 0.28244 0.8687 0.12168 0.0
H2780 H 0.2038 0.23224 0.54938 0.0
H2781 H 0.17063 0.22446 0.5722 0.0
H2782 H 0.21144 0.2244 0.63177 0.0
H2783 H 0.2446 0.23187 0.60916 0.0
H2784 H 0.18303 0.18984 0.63206 0.0
H2785 H 0.17899 0.2688 0.61942 0.0
H2786 H 0.17782 0.30393 0.5978 0.0
H2787 H 0.11802 0.28196 0.56458 0.0
H2788 H 0.119 0.24655 0.5858 0.0
H2789 H 0.09961 0.20585 0.7153 0.0
H2790 H 0.13157 0.20635 0.69002 0.0
H2791 H 0.08694 0.20715 0.63323 0.0
H2792 H 0.05476 0.20745 0.65851 0.0
H2793 H 0.11669 0.23963 0.63028 0.0
H2794 H 0.1204 0.16067 0.64675 0.0
H2795 H 0.12125 0.12827 0.67234 0.0
H2796 H 0.18211 0.15258 0.70174 0.0
H2797 H 0.1815 0.18528 0.67652 0.0
C2798 C 0.2057 0.23053 0.56733 0.0
C2799 C 0.22682 0.23265 0.57745 0.0
C2800 C 0.18674 0.22617 0.58035 0.0
C2801 C 0.18859 0.22397 0.60369 0.0
C2802 C 0.20966 0.22595 0.61378 0.0
C2803 C 0.22859 0.23029 0.60081 0.0
C2804 C 0.16859 0.2196 0.61767 0.0
C2805 C 0.16855 0.20078 0.63177 0.0
C2806 C 0.14964 0.23376 0.61709 0.0
C2807 C 0.14926 0.25487 0.60397 0.0
C2808 C 0.16574 0.27134 0.60731 0.0
C2809 C 0.16507 0.29134 0.59518 0.0
C2810 C 0.14791 0.29514 0.57976 0.0
C2811 C 0.13135 0.27897 0.57648 0.0
C2812 C 0.13195 0.25893 0.58856 0.0
C2813 C 0.09655 0.20569 0.69743 0.0
C2814 C 0.07466 0.20684 0.68888 0.0
C2815 C 0.11488 0.20587 0.68298 0.0
C2816 C 0.11165 0.20669 0.65972 0.0
C2817 C 0.08979 0.20658 0.65113 0.0
C2818 C 0.07143 0.20667 0.66559 0.0
C2819 C 0.13098 0.20974 0.64449 0.0
C2820 C 0.13098 0.22844 0.63027 0.0
C2821 C 0.14997 0.19563 0.64522 0.0
C2822 C 0.15083 0.17551 0.6598 0.0
C2823 C 0.13394 0.15914 0.6587 0.0
C2824 C 0.13438 0.14073 0.67315 0.0
C2825 C 0.15169 0.13842 0.68869 0.0
C2826 C 0.16871 0.15441 0.6897 0.0
C2827 C 0.16835 0.17286 0.67529 0.0
H2828 H 0.15193 0.12425 0.69996 0.0
H2829 H 0.1474 0.31065 0.57041 0.0
H2830 H 0.55271 0.28589 0.3366 0.0
H2831 H 0.58635 0.28691 0.36032 0.0
H2832 H 0.62773 0.27698 0.30205 0.0
H2833 H 0.59441 0.27726 0.2782 0.0
H2834 H 0.6331 0.2449 0.33806 0.0
H2835 H 0.63298 0.32313 0.32348 0.0
H2836 H 0.61809 0.36148 0.32147 0.0
H2837 H 0.60792 0.3616 0.39263 0.0
H2838 H 0.62239 0.32303 0.39503 0.0
H2839 H 0.74132 0.25405 0.38492 0.0
H2840 H 0.70794 0.25975 0.36217 0.0
H2841 H 0.67049 0.27769 0.4212 0.0
H2842 H 0.70403 0.27198 0.44426 0.0
H2843 H 0.6626 0.30642 0.38524 0.0
H2844 H 0.66395 0.22722 0.3989 0.0
H2845 H 0.68009 0.18929 0.3996 0.0
H2846 H 0.68886 0.19133 0.32829 0.0
H2847 H 0.67316 0.22947 0.3272 0.0
C2848 C 0.56906 0.28451 0.32887 0.0
C2849 C 0.57104 0.28157 0.30563 0.0
C2850 C 0.5882 0.2851 0.34237 0.0
C2851 C 0.60949 0.2821 0.33287 0.0
C2852 C 0.61147 0.27961 0.30961 0.0
C2853 C 0.59244 0.27979 0.29604 0.0
C2854 C 0.62946 0.27946 0.34732 0.0
C2855 C 0.63975 0.2584 0.34819 0.0
C2856 C 0.63772 0.29702 0.36082 0.0
C2857 C 0.62847 0.32002 0.35939 0.0
C2858 C 0.62726 0.33118 0.33867 0.0
C2859 C 0.61897 0.353 0.33747 0.0
C2860 C 0.61199 0.36394 0.3569 0.0
C2861 C 0.61328 0.35308 0.37758 0.0
C2862 C 0.62153 0.33123 0.37887 0.0
C2863 C 0.72604 0.25928 0.39313 0.0
C2864 C 0.72536 0.26254 0.41645 0.0
C2865 C 0.70692 0.26244 0.38008 0.0
C2866 C 0.68666 0.26894 0.39 0.0
C2867 C 0.68595 0.27262 0.41321 0.0
C2868 C 0.7051 0.26929 0.42637 0.0
C2869 C 0.66629 0.2718 0.376 0.0
C2870 C 0.6559 0.29287 0.37521 0.0
C2871 C 0.658 0.25428 0.36238 0.0
C2872 C 0.66761 0.23136 0.36302 0.0
C2873 C 0.66955 0.2197 0.38339 0.0
C2874 C 0.67858 0.19814 0.38385 0.0
C2875 C 0.68558 0.18795 0.36401 0.0
C2876 C 0.6835 0.19928 0.34365 0.0
C2877 C 0.67453 0.22087 0.34311 0.0
H2878 H 0.69257 0.17125 0.3644 0.0
H2879 H 0.60564 0.38087 0.35595 0.0
H2880 H 0.95276 0.30108 0.20788 0.0
H2881 H 0.92619 0.29198 0.17862 0.0
H2882 H 0.95724 0.22735 0.17023 0.0
H2883 H 0.98439 0.23665 0.19994 0.0
H2884 H 0.95421 0.25329 0.1309 0.0
H2885 H 0.90439 0.22972 0.18981 0.0
H2886 H 0.88613 0.23446 0.22654 0.0
H2887 H 0.85493 0.29494 0.20358 0.0
H2888 H 0.8732 0.29073 0.16681 0.0
H2889 H 0.87346 0.2341 0.04444 0.0
H2890 H 0.89988 0.23262 0.07561 0.0
H2891 H 0.86832 0.29058 0.10498 0.0
H2892 H 0.84112 0.29127 0.07442 0.0
H2893 H 0.87168 0.26094 0.1348 0.0
H2894 H 0.92261 0.29003 0.08032 0.0
H2895 H 0.94441 0.29245 0.04535 0.0
H2896 H 0.97628 0.22991 0.06049 0.0
H2897 H 0.95436 0.22688 0.09536 0.0
C2898 C 0.95359 0.28469 0.20023 0.0
C2899 C 0.97054 0.26953 0.206 0.0
C2900 C 0.93834 0.27947 0.18358 0.0
C2901 C 0.93968 0.25895 0.17242 0.0
C2902 C 0.95594 0.24322 0.17884 0.0
C2903 C 0.97125 0.24843 0.19581 0.0
C2904 C 0.92551 0.25548 0.15254 0.0
C2905 C 0.93609 0.25426 0.13162 0.0
C2906 C 0.90203 0.25788 0.15372 0.0
C2907 C 0.89017 0.25987 0.17551 0.0
C2908 C 0.89363 0.24403 0.19259 0.0
C2909 C 0.88329 0.24664 0.21343 0.0
C2910 C 0.86938 0.26499 0.21739 0.0
C2911 C 0.86567 0.28071 0.20048 0.0
C2912 C 0.87596 0.27817 0.1796 0.0
C2913 C 0.87249 0.24677 0.05735 0.0
C2914 C 0.8553 0.26276 0.05718 0.0
C2915 C 0.88762 0.24594 0.07513 0.0
C2916 C 0.88613 0.26149 0.09266 0.0
C2917 C 0.86967 0.27826 0.09176 0.0
C2918 C 0.85422 0.27873 0.0743 0.0
C2919 C 0.90036 0.25926 0.11285 0.0
C2920 C 0.88975 0.25942 0.13386 0.0
C2921 C 0.9239 0.25662 0.11169 0.0
C2922 C 0.93654 0.25805 0.09031 0.0
C2923 C 0.93401 0.27661 0.07604 0.0
C2924 C 0.94645 0.27813 0.05627 0.0
C2925 C 0.96165 0.2613 0.05065 0.0
C2926 C 0.96444 0.2429 0.06481 0.0
C2927 C 0.95199 0.24126 0.08457 0.0
H2928 H 0.97132 0.26254 0.03537 0.0
H2929 H 0.86147 0.26702 0.23356 0.0
H2930 H 0.66716 0.75406 0.58679 0.0
H2931 H 0.63914 0.75381 0.61644 0.0
H2932 H 0.59179 0.72259 0.57175 0.0
H2933 H 0.61969 0.7237 0.54155 0.0
H2934 H 0.57102 0.75292 0.59569 0.0
H2935 H 0.61884 0.69178 0.61282 0.0
H2936 H 0.65463 0.67211 0.61883 0.0
H2937 H 0.66982 0.71574 0.6738 0.0
H2938 H 0.63415 0.73576 0.66803 0.0
H2939 H 0.50181 0.70373 0.67819 0.0
H2940 H 0.52826 0.71204 0.6483 0.0
H2941 H 0.56521 0.75529 0.69268 0.0
H2942 H 0.53846 0.74691 0.72302 0.0
H2943 H 0.59109 0.72091 0.66973 0.0
H2944 H 0.53787 0.77943 0.65174 0.0
H2945 H 0.49899 0.79213 0.64619 0.0
H2946 H 0.49116 0.74574 0.59196 0.0
H2947 H 0.52995 0.73262 0.59732 0.0
C2948 C 0.65082 0.74701 0.58329 0.0
C2949 C 0.64565 0.73868 0.56193 0.0
C2950 C 0.6348 0.74688 0.60027 0.0
C2951 C 0.61345 0.73784 0.59649 0.0
C2952 C 0.60815 0.72965 0.57508 0.0
C2953 C 0.6241 0.73019 0.55788 0.0
C2954 C 0.59689 0.73677 0.61504 0.0
C2955 C 0.57541 0.74581 0.61181 0.0
C2956 C 0.60253 0.72751 0.63615 0.0
C2957 C 0.62391 0.7154 0.63987 0.0
C2958 C 0.62987 0.69726 0.62612 0.0
C2959 C 0.65011 0.68602 0.62949 0.0
C2960 C 0.66451 0.69271 0.64665 0.0
C2961 C 0.65865 0.71059 0.66051 0.0
C2962 C 0.6384 0.72185 0.65723 0.0
C2963 C 0.51534 0.71533 0.6815 0.0
C2964 C 0.51816 0.72469 0.70287 0.0
C2965 C 0.53041 0.72008 0.6644 0.0
C2966 C 0.54864 0.73428 0.66829 0.0
C2967 C 0.55117 0.7443 0.68941 0.0
C2968 C 0.53584 0.7397 0.70661 0.0
C2969 C 0.56552 0.73737 0.65042 0.0
C2970 C 0.58696 0.72845 0.65372 0.0
C2971 C 0.5596 0.74609 0.62922 0.0
C2972 C 0.53683 0.75506 0.62492 0.0
C2973 C 0.52788 0.77199 0.63858 0.0
C2974 C 0.50585 0.77923 0.6355 0.0
C2975 C 0.49261 0.76974 0.61874 0.0
C2976 C 0.50145 0.75311 0.6049 0.0
C2977 C 0.5235 0.74583 0.6079 0.0
H2978 H 0.47551 0.77526 0.61647 0.0
H2979 H 0.68019 0.68401 0.64922 0.0
H2980 H 0.37823 0.25092 0.95449 0.0
H2981 H 0.40724 0.24945 0.92557 0.0
H2982 H 0.3582 0.22741 0.87743 0.0
H2983 H 0.32916 0.22874 0.90617 0.0
H2984 H 0.39618 0.20248 0.87567 0.0
H2985 H 0.37693 0.28135 0.87724 0.0
H2986 H 0.37244 0.31917 0.89325 0.0
H2987 H 0.44168 0.31981 0.9122 0.0
H2988 H 0.44655 0.28197 0.89652 0.0
H2989 H 0.44716 0.221 0.77176 0.0
H2990 H 0.42192 0.22679 0.8036 0.0
H2991 H 0.4786 0.2414 0.84587 0.0
H2992 H 0.5039 0.23478 0.81417 0.0
H2993 H 0.44029 0.26916 0.85314 0.0
H2994 H 0.46097 0.19264 0.84752 0.0
H2995 H 0.46667 0.1565 0.82863 0.0
H2996 H 0.39601 0.15099 0.81692 0.0
H2997 H 0.38989 0.18744 0.83524 0.0
C2998 C 0.37364 0.24569 0.93775 0.0
C2999 C 0.35141 0.2399 0.93261 0.0
C3000 C 0.39021 0.24499 0.92124 0.0
C3001 C 0.38482 0.23847 0.89934 0.0
C3002 C 0.36269 0.23248 0.89424 0.0
C3003 C 0.34611 0.23329 0.91068 0.0
C3004 C 0.40219 0.23751 0.88169 0.0
C3005 C 0.40567 0.2171 0.87059 0.0
C3006 C 0.41517 0.25641 0.87568 0.0
C3007 C 0.41196 0.27866 0.88612 0.0
C3008 C 0.39107 0.2894 0.8852 0.0
C3009 C 0.38848 0.31087 0.89412 0.0
C3010 C 0.40669 0.32178 0.90389 0.0
C3011 C 0.42755 0.31128 0.90474 0.0
C3012 C 0.43024 0.28984 0.89585 0.0
C3013 C 0.45409 0.226 0.78773 0.0
C3014 C 0.47728 0.2276 0.7907 0.0
C3015 C 0.43975 0.22917 0.80586 0.0
C3016 C 0.44852 0.23415 0.82706 0.0
C3017 C 0.47162 0.23747 0.82961 0.0
C3018 C 0.48599 0.2339 0.81154 0.0
C3019 C 0.43368 0.23441 0.84676 0.0
C3020 C 0.43086 0.25453 0.85835 0.0
C3021 C 0.42143 0.21521 0.85329 0.0
C3022 C 0.425 0.19304 0.84251 0.0
C3023 C 0.44664 0.1839 0.84069 0.0
C3024 C 0.44996 0.16332 0.83011 0.0
C3025 C 0.43172 0.1515 0.8215 0.0
C3026 C 0.41013 0.16021 0.82354 0.0
C3027 C 0.40673 0.18085 0.83402 0.0
H3028 H 0.43432 0.13558 0.81328 0.0
H3029 H 0.40466 0.33843 0.91068 0.0
H3030 H 0.16914 0.76605 0.40233 0.0
H3031 H 0.13939 0.76809 0.37442 0.0
H3032 H 0.08998 0.75601 0.42574 0.0
H3033 H 0.11969 0.75395 0.45388 0.0
H3034 H 0.08499 0.72857 0.38777 0.0
H3035 H 0.09178 0.80579 0.40567 0.0
H3036 H 0.11197 0.84092 0.41331 0.0
H3037 H 0.13812 0.841 0.34633 0.0
H3038 H 0.11831 0.80569 0.33837 0.0
H3039 H 0.99376 0.76345 0.31658 0.0
H3040 H 0.02052 0.75724 0.34707 0.0
H3041 H 0.07523 0.76379 0.30029 0.0
H3042 H 0.04837 0.76949 0.26969 0.0
H3043 H 0.07516 0.79435 0.33795 0.0
H3044 H 0.06986 0.71528 0.32161 0.0
H3045 H 0.04824 0.68095 0.3141 0.0
H3046 H 0.01717 0.68585 0.37874 0.0
H3047 H 0.03853 0.72033 0.38656 0.0
C3048 C 0.15194 0.76407 0.40772 0.0
C3049 C 0.14671 0.75985 0.43022 0.0
C3050 C 0.135 0.76524 0.39179 0.0
C3051 C 0.1126 0.76219 0.39813 0.0
C3052 C 0.10723 0.75835 0.42063 0.0
C3053 C 0.12418 0.75737 0.43664 0.0
C3054 C 0.09499 0.76259 0.38095 0.0
C3055 C 0.08254 0.74305 0.3771 0.0
C3056 C 0.0921 0.78145 0.36698 0.0
C3057 C 0.10369 0.80297 0.37148 0.0
C3058 C 0.10195 0.81322 0.3926 0.0
C3059 C 0.11331 0.83318 0.39699 0.0
C3060 C 0.12638 0.84316 0.38034 0.0
C3061 C 0.12801 0.83324 0.35923 0.0
C3062 C 0.11668 0.81327 0.35475 0.0
C3063 C 0.01147 0.76264 0.31279 0.0
C3064 C 0.01924 0.76647 0.29101 0.0
C3065 C 0.02668 0.75926 0.33012 0.0
C3066 C 0.04971 0.76014 0.32578 0.0
C3067 C 0.05745 0.76301 0.3038 0.0
C3068 C 0.04222 0.76603 0.28641 0.0
C3069 C 0.06564 0.76019 0.34447 0.0
C3070 C 0.0776 0.7799 0.34869 0.0
C3071 C 0.0679 0.74161 0.35886 0.0
C3072 C 0.0557 0.72042 0.35462 0.0
C3073 C 0.05839 0.70905 0.3342 0.0
C3074 C 0.04619 0.68957 0.32989 0.0
C3075 C 0.03131 0.68125 0.34592 0.0
C3076 C 0.02871 0.69232 0.36635 0.0
C3077 C 0.04091 0.71179 0.37076 0.0
H3078 H 0.02182 0.66621 0.34252 0.0
H3079 H 0.13521 0.85858 0.38379 0.0
H3080 H 0.20122 0.98392 0.23799 0.0
H3081 H 0.17091 0.95685 0.23201 0.0
H3082 H 0.17523 0.93652 0.30114 0.0
H3083 H 0.20438 0.96419 0.30751 0.0
H3084 H 0.17077 0.90021 0.26812 0.0
H3085 H 0.13819 0.97049 0.29215 0.0
H3086 H 0.13327 0.0113 0.28894 0.0
H3087 H 0.10701 0.00332 0.22253 0.0
H3088 H 0.11214 0.96242 0.22523 0.0
H3089 H 0.07171 0.84584 0.29702 0.0
H3090 H 0.10276 0.87235 0.29594 0.0
H3091 H 0.07913 0.89784 0.23261 0.0
H3092 H 0.04743 0.87185 0.23406 0.0
H3093 H 0.09444 0.93127 0.25744 0.0
H3094 H 0.1242 0.85984 0.23503 0.0
H3095 H 0.13069 0.81924 0.23853 0.0
H3096 H 0.16305 0.82943 0.30188 0.0
H3097 H 0.15671 0.87008 0.29877 0.0
C3098 C 0.19594 0.97344 0.25181 0.0
C3099 C 0.20547 0.97598 0.27319 0.0
C3100 C 0.17865 0.95802 0.24836 0.0
C3101 C 0.17097 0.9447 0.26615 0.0
C3102 C 0.18112 0.9465 0.28717 0.0
C3103 C 0.19793 0.96223 0.29074 0.0
C3104 C 0.15123 0.93006 0.26357 0.0
C3105 C 0.15406 0.90693 0.26579 0.0
C3106 C 0.12957 0.93895 0.26022 0.0
C3107 C 0.12575 0.96343 0.2588 0.0
C3108 C 0.13149 0.97744 0.27681 0.0
C3109 C 0.12866 0.00059 0.27509 0.0
C3110 C 0.11988 0.0099 0.25552 0.0
C3111 C 0.11383 0.99607 0.23767 0.0
C3112 C 0.11669 0.9729 0.23929 0.0
C3113 C 0.07298 0.85724 0.28298 0.0
C3114 C 0.05719 0.85666 0.26558 0.0
C3115 C 0.09084 0.87229 0.28228 0.0
C3116 C 0.09366 0.8867 0.26388 0.0
C3117 C 0.07741 0.88679 0.2469 0.0
C3118 C 0.05929 0.87194 0.24776 0.0
C3119 C 0.11384 0.90121 0.26228 0.0
C3120 C 0.11113 0.92439 0.25934 0.0
C3121 C 0.13569 0.89236 0.26496 0.0
C3122 C 0.13988 0.86797 0.26671 0.0
C3123 C 0.13265 0.8534 0.24972 0.0
C3124 C 0.13633 0.83039 0.25163 0.0
C3125 C 0.14725 0.82176 0.27043 0.0
C3126 C 0.15462 0.83613 0.28732 0.0
C3127 C 0.15106 0.85917 0.28545 0.0
H3128 H 0.15003 0.80393 0.2719 0.0
H3129 H 0.11773 0.02783 0.2542 0.0
H3130 H 0.45909 0.11395 0.75332 0.0
H3131 H 0.42911 0.08602 0.75487 0.0
H3132 H 0.38002 0.13878 0.75875 0.0
H3133 H 0.40971 0.16665 0.75761 0.0
H3134 H 0.37243 0.10744 0.78934 0.0
H3135 H 0.38946 0.10873 0.7099 0.0
H3136 H 0.41217 0.1044 0.67569 0.0
H3137 H 0.42628 0.03622 0.69334 0.0
H3138 H 0.40389 0.04024 0.72779 0.0
H3139 H 0.27225 0.04905 0.76776 0.0
H3140 H 0.30403 0.07443 0.7618 0.0
H3141 H 0.34939 0.01838 0.76486 0.0
H3142 H 0.31775 0.99319 0.77136 0.0
H3143 H 0.36009 0.0494 0.73139 0.0
H3144 H 0.34365 0.04637 0.80909 0.0
H3145 H 0.32207 0.04877 0.84417 0.0
H3146 H 0.30841 0.11807 0.83143 0.0
H3147 H 0.32959 0.11603 0.79599 0.0
C3148 C 0.44189 0.11956 0.75453 0.0
C3149 C 0.43674 0.14248 0.75535 0.0
C3150 C 0.4248 0.10361 0.75524 0.0
C3151 C 0.40236 0.11037 0.75664 0.0
C3152 C 0.39725 0.13323 0.7576 0.0
C3153 C 0.41425 0.14913 0.75695 0.0
C3154 C 0.38406 0.09379 0.75806 0.0
C3155 C 0.36952 0.09497 0.77648 0.0
C3156 C 0.3809 0.07693 0.74175 0.0
C3157 C 0.39526 0.0749 0.72159 0.0
C3158 C 0.39768 0.09293 0.70666 0.0
C3159 C 0.41042 0.09049 0.68717 0.0
C3160 C 0.42073 0.07007 0.68238 0.0
C3161 C 0.41835 0.05205 0.69709 0.0
C3162 C 0.40564 0.0544 0.7166 0.0
C3163 C 0.28897 0.04218 0.76631 0.0
C3164 C 0.2927 0.01924 0.76928 0.0
C3165 C 0.30704 0.05663 0.76322 0.0
C3166 C 0.32896 0.04819 0.7631 0.0
C3167 C 0.33255 0.0251 0.76482 0.0
C3168 C 0.31451 0.01072 0.76822 0.0
C3169 C 0.34821 0.06355 0.76226 0.0
C3170 C 0.36299 0.06198 0.74414 0.0
C3171 C 0.35175 0.0799 0.77896 0.0
C3172 C 0.338 0.08095 0.79968 0.0
C3173 C 0.33574 0.06204 0.81353 0.0
C3174 C 0.32368 0.06336 0.83355 0.0
C3175 C 0.31395 0.08356 0.84001 0.0
C3176 C 0.31602 0.10244 0.82638 0.0
C3177 C 0.32803 0.1012 0.80631 0.0
H3178 H 0.3049 0.08455 0.85564 0.0
H3179 H 0.4305 0.0682 0.66724 0.0
H3180 H 0.70526 0.53457 0.6893 0.0
H3181 H 0.67587 0.56188 0.69646 0.0
H3182 H 0.67593 0.54396 0.76641 0.0
H3183 H 0.70571 0.51667 0.75945 0.0
H3184 H 0.63372 0.54225 0.74642 0.0
H3185 H 0.69553 0.59213 0.75098 0.0
H3186 H 0.73044 0.6102 0.73854 0.0
H3187 H 0.69637 0.63812 0.68179 0.0
H3188 H 0.66131 0.61984 0.69362 0.0
H3189 H 0.54923 0.62595 0.76611 0.0
H3190 H 0.58183 0.60121 0.76811 0.0
H3191 H 0.60024 0.6202 0.70082 0.0
H3192 H 0.56827 0.64553 0.69913 0.0
H3193 H 0.635 0.62257 0.72593 0.0
H3194 H 0.57637 0.56759 0.71646 0.0
H3195 H 0.54213 0.54639 0.72554 0.0
H3196 H 0.57036 0.52694 0.7887 0.0
H3197 H 0.60463 0.54833 0.78017 0.0
C3198 C 0.69939 0.53672 0.70631 0.0
C3199 C 0.70783 0.52342 0.72379 0.0
C3200 C 0.68258 0.55237 0.71036 0.0
C3201 C 0.67378 0.55497 0.73197 0.0
C3202 C 0.68255 0.54219 0.74962 0.0
C3203 C 0.69961 0.52668 0.74562 0.0
C3204 C 0.65425 0.56977 0.73556 0.0
C3205 C 0.63404 0.55995 0.74239 0.0
C3206 C 0.65472 0.59271 0.72979 0.0
C3207 C 0.67579 0.60419 0.72297 0.0
C3208 C 0.69549 0.60186 0.73568 0.0
C3209 C 0.71533 0.6122 0.72877 0.0
C3210 C 0.71567 0.62516 0.7093 0.0
C3211 C 0.69612 0.62796 0.6968 0.0
C3212 C 0.67626 0.6176 0.70361 0.0
C3213 C 0.56008 0.62457 0.75164 0.0
C3214 C 0.55622 0.63766 0.73244 0.0
C3215 C 0.5787 0.6104 0.75279 0.0
C3216 C 0.59351 0.60873 0.73458 0.0
C3217 C 0.58919 0.62129 0.71516 0.0
C3218 C 0.57085 0.6357 0.71416 0.0
C3219 C 0.61415 0.59486 0.73588 0.0
C3220 C 0.63466 0.60493 0.73017 0.0
C3221 C 0.61391 0.57206 0.74237 0.0
C3222 C 0.59294 0.55988 0.74782 0.0
C3223 C 0.57516 0.55907 0.73242 0.0
C3224 C 0.55577 0.54695 0.73744 0.0
C3225 C 0.55403 0.53541 0.75772 0.0
C3226 C 0.57169 0.53596 0.77303 0.0
C3227 C 0.59109 0.54809 0.76812 0.0
H3228 H 0.53904 0.52597 0.76153 0.0
H3229 H 0.73105 0.63312 0.70396 0.0
H3230 H 0.94299 0.36377 0.20956 0.0
H3231 H 0.91305 0.39163 0.20666 0.0
H3232 H 0.89533 0.37956 0.27579 0.0
H3233 H 0.92421 0.35068 0.27807 0.0
H3234 H 0.8602 0.37746 0.25229 0.0
H3235 H 0.92115 0.43089 0.25492 0.0
H3236 H 0.95636 0.44927 0.24355 0.0
H3237 H 0.92996 0.46015 0.1776 0.0
H3238 H 0.8947 0.44165 0.18848 0.0
H3239 H 0.78458 0.47322 0.25532 0.0
H3240 H 0.81366 0.44504 0.26273 0.0
H3241 H 0.82892 0.44226 0.1922 0.0
H3242 H 0.80047 0.47018 0.1847 0.0
H3243 H 0.86512 0.45319 0.2189 0.0
H3244 H 0.8064 0.39824 0.21419 0.0
H3245 H 0.77057 0.38018 0.22395 0.0
H3246 H 0.79257 0.37225 0.29191 0.0
H3247 H 0.82846 0.39049 0.2826 0.0
C3248 C 0.93281 0.36741 0.22412 0.0
C3249 C 0.93555 0.35522 0.24396 0.0
C3250 C 0.91588 0.3834 0.22256 0.0
C3251 C 0.90206 0.38785 0.2411 0.0
C3252 C 0.90569 0.37633 0.26126 0.0
C3253 C 0.92212 0.3599 0.26258 0.0
C3254 C 0.88241 0.4027 0.23891 0.0
C3255 C 0.86141 0.39423 0.24542 0.0
C3256 C 0.88381 0.42426 0.22922 0.0
C3257 C 0.90535 0.43469 0.22249 0.0
C3258 C 0.92294 0.43698 0.23793 0.0
C3259 C 0.94289 0.44749 0.23158 0.0
C3260 C 0.94541 0.45583 0.20986 0.0
C3261 C 0.928 0.45366 0.19441 0.0
C3262 C 0.90803 0.44319 0.20067 0.0
C3263 C 0.79396 0.46632 0.24143 0.0
C3264 C 0.7906 0.47419 0.21953 0.0
C3265 C 0.81042 0.45021 0.24566 0.0
C3266 C 0.82343 0.44183 0.22797 0.0
C3267 C 0.81913 0.44873 0.20603 0.0
C3268 C 0.80292 0.46478 0.20184 0.0
C3269 C 0.84322 0.42788 0.23226 0.0
C3270 C 0.86414 0.43653 0.22608 0.0
C3271 C 0.84174 0.40649 0.24204 0.0
C3272 C 0.81997 0.39604 0.24778 0.0
C3273 C 0.80348 0.39292 0.23128 0.0
C3274 C 0.7832 0.38256 0.23671 0.0
C3275 C 0.77926 0.37516 0.25856 0.0
C3276 C 0.79562 0.37805 0.27501 0.0
C3277 C 0.81593 0.38838 0.26967 0.0
H3278 H 0.76357 0.36711 0.26272 0.0
H3279 H 0.96084 0.46401 0.205 0.0
H3280 H 0.26683 0.22493 0.94961 0.0
H3281 H 0.2607 0.19374 0.92393 0.0
H3282 H 0.25557 0.14851 0.98013 0.0
H3283 H 0.26261 0.1798 0.00578 0.0
H3284 H 0.28515 0.13389 0.94977 0.0
H3285 H 0.20984 0.16253 0.94751 0.0
H3286 H 0.18228 0.19293 0.94339 0.0
H3287 H 0.20451 0.20449 0.876 0.0
H3288 H 0.2325 0.17445 0.87985 0.0
H3289 H 0.25676 0.04011 0.88236 0.0
H3290 H 0.25816 0.06989 0.91026 0.0
H3291 H 0.2591 0.11929 0.85752 0.0
H3292 H 0.25699 0.08967 0.82959 0.0
H3293 H 0.23017 0.13082 0.88766 0.0
H3294 H 0.30724 0.10763 0.88985 0.0
H3295 H 0.33833 0.08063 0.89288 0.0
H3296 H 0.31587 0.06167 0.95851 0.0
H3297 H 0.28444 0.0883 0.95567 0.0
C3298 C 0.26346 0.20845 0.9564 0.0
C3299 C 0.26455 0.20462 0.97949 0.0
C3300 C 0.26012 0.19064 0.94179 0.0
C3301 C 0.2575 0.16883 0.95015 0.0
C3302 C 0.25747 0.16523 0.97338 0.0
C3303 C 0.2611 0.18305 0.98799 0.0
C3304 C 0.25651 0.1497 0.93455 0.0
C3305 C 0.27284 0.13293 0.93645 0.0
C3306 C 0.24098 0.14898 0.91674 0.0
C3307 C 0.22334 0.16627 0.91401 0.0
C3308 C 0.20887 0.17157 0.93182 0.0
C3309 C 0.1932 0.18877 0.92955 0.0
C3310 C 0.19166 0.20065 0.90945 0.0
C3311 C 0.20571 0.19527 0.89155 0.0
C3312 C 0.22147 0.17813 0.89376 0.0
C3313 C 0.25735 0.05732 0.87672 0.0
C3314 C 0.25677 0.06256 0.8538 0.0
C3315 C 0.25832 0.07432 0.89268 0.0
C3316 C 0.25895 0.09682 0.88597 0.0
C3317 C 0.25858 0.10205 0.86307 0.0
C3318 C 0.25744 0.08509 0.84713 0.0
C3319 C 0.25887 0.11498 0.90278 0.0
C3320 C 0.24234 0.13159 0.90111 0.0
C3321 C 0.27445 0.11575 0.9206 0.0
C3322 C 0.29331 0.0997 0.92239 0.0
C3323 C 0.3088 0.0975 0.9048 0.0
C3324 C 0.32651 0.08232 0.90651 0.0
C3325 C 0.32903 0.06938 0.92585 0.0
C3326 C 0.31387 0.07166 0.94353 0.0
C3327 C 0.29611 0.0868 0.94187 0.0
H3328 H 0.34275 0.05765 0.92716 0.0
H3329 H 0.17957 0.21401 0.90775 0.0
H3330 H 0.73744 0.28474 0.02526 0.0
H3331 H 0.73028 0.31472 0.05265 0.0
H3332 H 0.8 0.33337 0.05044 0.0
H3333 H 0.80715 0.30441 0.02325 0.0
H3334 H 0.78415 0.33235 0.09327 0.0
H3335 H 0.76513 0.36186 0.02103 0.0
H3336 H 0.74514 0.36124 0.98496 0.0
H3337 H 0.68222 0.36606 0.01939 0.0
H3338 H 0.70187 0.36626 0.05576 0.0
H3339 H 0.79073 0.44424 0.13142 0.0
H3340 H 0.7915 0.41246 0.10527 0.0
H3341 H 0.72204 0.39886 0.11977 0.0
H3342 H 0.72141 0.43037 0.14611 0.0
H3343 H 0.73449 0.39564 0.07269 0.0
H3344 H 0.75767 0.37017 0.14621 0.0
H3345 H 0.7809 0.37153 0.18029 0.0
H3346 H 0.84001 0.36065 0.1409 0.0
H3347 H 0.81718 0.35967 0.1065 0.0
C3348 C 0.75117 0.29524 0.0307 0.0
C3349 C 0.77283 0.29211 0.02209 0.0
C3350 C 0.7471 0.31226 0.04635 0.0
C3351 C 0.76469 0.32613 0.0536 0.0
C3352 C 0.78626 0.32272 0.04526 0.0
C3353 C 0.79024 0.30613 0.02956 0.0
C3354 C 0.76089 0.34519 0.06888 0.0
C3355 C 0.77326 0.34618 0.08882 0.0
C3356 C 0.74679 0.3632 0.06293 0.0
C3357 C 0.73494 0.36379 0.04112 0.0
C3358 C 0.74702 0.36263 0.02093 0.0
C3359 C 0.73576 0.36236 0.00043 0.0
C3360 C 0.71242 0.36353 -0.00011 0.0
C3361 C 0.7003 0.36509 0.01985 0.0
C3362 C 0.71149 0.36529 0.04041 0.0
C3363 C 0.77561 0.43464 0.12861 0.0
C3364 C 0.75599 0.43958 0.14044 0.0
C3365 C 0.77604 0.41655 0.11383 0.0
C3366 C 0.75683 0.40334 0.11073 0.0
C3367 C 0.73697 0.40893 0.12191 0.0
C3368 C 0.73663 0.42681 0.13689 0.0
C3369 C 0.75784 0.38282 0.09702 0.0
C3370 C 0.74505 0.38163 0.07735 0.0
C3371 C 0.77199 0.3648 0.10297 0.0
C3372 C 0.78571 0.36508 0.12372 0.0
C3373 C 0.77564 0.36827 0.14478 0.0
C3374 C 0.78873 0.36895 0.16416 0.0
C3375 C 0.81192 0.36625 0.16276 0.0
C3376 C 0.82205 0.36279 0.14196 0.0
C3377 C 0.80904 0.36216 0.12251 0.0
H3378 H 0.82202 0.36679 0.17779 0.0
H3379 H 0.70372 0.36329 0.984 0.0
H3380 H 0.74965 0.72129 0.53178 0.0
H3381 H 0.75538 0.69245 0.56066 0.0
H3382 H 0.70432 0.65162 0.52997 0.0
H3383 H 0.69855 0.67999 0.50152 0.0
H3384 H 0.69774 0.65421 0.5736 0.0
H3385 H 0.75738 0.63967 0.52306 0.0
H3386 H 0.78999 0.65036 0.50018 0.0
H3387 H 0.82721 0.66553 0.55974 0.0
H3388 H 0.79455 0.65547 0.583 0.0
H3389 H 0.72141 0.54684 0.62301 0.0
H3390 H 0.71785 0.57668 0.59495 0.0
H3391 H 0.75822 0.62015 0.63599 0.0
H3392 H 0.76145 0.59072 0.66423 0.0
H3393 H 0.77055 0.61713 0.58826 0.0
H3394 H 0.70602 0.62558 0.63774 0.0
H3395 H 0.67127 0.61234 0.65553 0.0
H3396 H 0.6407 0.6042 0.59115 0.0
H3397 H 0.67558 0.6164 0.57279 0.0
C3398 C 0.74002 0.70596 0.53108 0.0
C3399 C 0.72367 0.70281 0.51455 0.0
C3400 C 0.74314 0.68964 0.5476 0.0
C3401 C 0.73007 0.67006 0.54747 0.0
C3402 C 0.71432 0.66673 0.53052 0.0
C3403 C 0.71119 0.68289 0.5142 0.0
C3404 C 0.73268 0.65268 0.56476 0.0
C3405 C 0.71362 0.64599 0.57675 0.0
C3406 C 0.75339 0.642 0.56862 0.0
C3407 C 0.77342 0.64707 0.55479 0.0
C3408 C 0.77247 0.64541 0.5313 0.0
C3409 C 0.79095 0.65139 0.51825 0.0
C3410 C 0.81064 0.6587 0.5285 0.0
C3411 C 0.81192 0.65992 0.55183 0.0
C3412 C 0.79341 0.6541 0.56496 0.0
C3413 C 0.72946 0.56279 0.62601 0.0
C3414 C 0.7416 0.56658 0.64577 0.0
C3415 C 0.72743 0.57974 0.61003 0.0
C3416 C 0.73782 0.60048 0.61353 0.0
C3417 C 0.75015 0.60419 0.63309 0.0
C3418 C 0.75182 0.58745 0.64923 0.0
C3419 C 0.73556 0.61861 0.59701 0.0
C3420 C 0.75471 0.62544 0.58518 0.0
C3421 C 0.71467 0.6288 0.59261 0.0
C3422 C 0.69363 0.62162 0.60384 0.0
C3423 C 0.69205 0.62067 0.62732 0.0
C3424 C 0.67228 0.6134 0.63753 0.0
C3425 C 0.6538 0.60747 0.62453 0.0
C3426 C 0.65504 0.60875 0.60123 0.0
C3427 C 0.67484 0.61576 0.5909 0.0
H3428 H 0.63851 0.6019 0.63252 0.0
H3429 H 0.82493 0.66335 0.51837 0.0
H3430 H 0.22151 0.76611 0.45543 0.0
H3431 H 0.22523 0.79594 0.42737 0.0
H3432 H 0.24017 0.84313 0.47993 0.0
H3433 H 0.23592 0.81333 0.50789 0.0
H3434 H 0.20743 0.85822 0.45273 0.0
H3435 H 0.27994 0.82615 0.44459 0.0
H3436 H 0.30807 0.79669 0.43837 0.0
H3437 H 0.28147 0.78465 0.37273 0.0
H3438 H 0.25283 0.8137 0.37872 0.0
H3439 H 0.23814 0.94856 0.38046 0.0
H3440 H 0.23634 0.91939 0.4091 0.0
H3441 H 0.22298 0.8701 0.35812 0.0
H3442 H 0.22525 0.89908 0.32936 0.0
H3443 H 0.25577 0.85668 0.38525 0.0
H3444 H 0.18234 0.88873 0.39453 0.0
H3445 H 0.1555 0.91936 0.401 0.0
H3446 H 0.18523 0.93235 0.4651 0.0
H3447 H 0.21253 0.90207 0.45885 0.0
C3448 C 0.22571 0.78285 0.46079 0.0
C3449 C 0.22826 0.78762 0.48358 0.0
C3450 C 0.22803 0.7998 0.44486 0.0
C3451 C 0.23295 0.82176 0.4516 0.0
C3452 C 0.23634 0.82631 0.4744 0.0
C3453 C 0.23412 0.80931 0.4903 0.0
C3454 C 0.23317 0.8402 0.43505 0.0
C3455 C 0.21823 0.85806 0.43812 0.0
C3456 C 0.24694 0.83968 0.41579 0.0
C3457 C 0.26401 0.82196 0.41223 0.0
C3458 C 0.27988 0.81704 0.42893 0.0
C3459 C 0.29596 0.80043 0.42542 0.0
C3460 C 0.29651 0.78875 0.4052 0.0
C3461 C 0.28099 0.79367 0.38842 0.0
C3462 C 0.26481 0.8102 0.39187 0.0
C3463 C 0.23448 0.93157 0.37539 0.0
C3464 C 0.23192 0.92609 0.35265 0.0
C3465 C 0.23344 0.91491 0.39178 0.0
C3466 C 0.22947 0.89257 0.38574 0.0
C3467 C 0.22618 0.88721 0.36313 0.0
C3468 C 0.22739 0.90381 0.34673 0.0
C3469 C 0.22988 0.87458 0.40281 0.0
C3470 C 0.24495 0.85681 0.39985 0.0
C3471 C 0.21631 0.87523 0.42222 0.0
C3472 C 0.19967 0.89327 0.4261 0.0
C3473 C 0.18329 0.89823 0.40993 0.0
C3474 C 0.16797 0.91552 0.41356 0.0
C3475 C 0.16871 0.92784 0.43341 0.0
C3476 C 0.18471 0.92283 0.44971 0.0
C3477 C 0.20011 0.9056 0.44613 0.0
H3478 H 0.15684 0.94122 0.43619 0.0
H3479 H 0.30901 0.77594 0.4025 0.0
H3480 H 0.05215 0.72039 0.77423 0.0
H3481 H 0.07604 0.72628 0.80693 0.0
H3482 H 0.0193 0.75123 0.84395 0.0
H3483 H 0.9952 0.74483 0.81117 0.0
H3484 H 0.06371 0.77438 0.8508 0.0
H3485 H 0.02905 0.69999 0.85628 0.0
H3486 H 0.0176 0.6644 0.83875 0.0
H3487 H 0.08545 0.65227 0.81847 0.0
H3488 H 0.09739 0.68745 0.83643 0.0
H3489 H 0.11715 0.75448 0.957 0.0
H3490 H 0.08867 0.75463 0.92732 0.0
H3491 H 0.13481 0.72138 0.8829 0.0
H3492 H 0.16331 0.72151 0.9122 0.0
H3493 H 0.09221 0.70284 0.88198 0.0
H3494 H 0.12834 0.77389 0.87749 0.0
H3495 H 0.14186 0.81089 0.88955 0.0
H3496 H 0.07428 0.83182 0.90208 0.0
H3497 H 0.06037 0.79471 0.89062 0.0
C3498 C 0.04494 0.72761 0.78918 0.0
C3499 C 0.02198 0.73215 0.79037 0.0
C3500 C 0.05853 0.73095 0.8078 0.0
C3501 C 0.04928 0.73885 0.82786 0.0
C3502 C 0.02665 0.74508 0.82856 0.0
C3503 C 0.01298 0.7416 0.80987 0.0
C3504 C 0.06293 0.73853 0.84843 0.0
C3505 C 0.06957 0.75881 0.85805 0.0
C3506 C 0.07096 0.71813 0.85728 0.0
C3507 C 0.06409 0.6963 0.8477 0.0
C3508 C 0.04154 0.68961 0.84825 0.0
C3509 C 0.03499 0.66947 0.83831 0.0
C3510 C 0.05082 0.65599 0.82763 0.0
C3511 C 0.07327 0.66255 0.82702 0.0
C3512 C 0.07996 0.6825 0.83721 0.0
C3513 C 0.12107 0.74701 0.94096 0.0
C3514 C 0.14238 0.73796 0.93685 0.0
C3515 C 0.10488 0.74723 0.92403 0.0
C3516 C 0.10973 0.7381 0.90293 0.0
C3517 C 0.13077 0.72849 0.89908 0.0
C3518 C 0.14703 0.72862 0.9158 0.0
C3519 C 0.09313 0.73882 0.88459 0.0
C3520 C 0.08598 0.7185 0.87524 0.0
C3521 C 0.08494 0.75927 0.87583 0.0
C3522 C 0.09333 0.78131 0.88361 0.0
C3523 C 0.11637 0.78621 0.88322 0.0
C3524 C 0.12411 0.80725 0.88986 0.0
C3525 C 0.10895 0.82366 0.89668 0.0
C3526 C 0.08602 0.81905 0.8969 0.0
C3527 C 0.0782 0.79799 0.89038 0.0
H3528 H 0.11497 0.83998 0.9017 0.0
H3529 H 0.04571 0.64052 0.81974 0.0
H3530 H 0.45622 0.25134 0.27287 0.0
H3531 H 0.42901 0.24277 0.30269 0.0
H3532 H 0.47063 0.27737 0.35048 0.0
H3533 H 0.49739 0.28618 0.32093 0.0
H3534 H 0.45296 0.23756 0.36678 0.0
H3535 H 0.42942 0.30565 0.32967 0.0
H3536 H 0.41868 0.32839 0.29699 0.0
H3537 H 0.36454 0.28333 0.28294 0.0
H3538 H 0.37491 0.26035 0.31571 0.0
H3539 H 0.38029 0.26563 0.45638 0.0
H3540 H 0.40754 0.2658 0.42575 0.0
H3541 H 0.35649 0.24234 0.38029 0.0
H3542 H 0.32908 0.24329 0.41051 0.0
H3543 H 0.37839 0.27356 0.3612 0.0
H3544 H 0.40097 0.20759 0.40297 0.0
H3545 H 0.41399 0.18574 0.43553 0.0
H3546 H 0.47184 0.22799 0.4412 0.0
H3547 H 0.45906 0.2502 0.40885 0.0
C3548 C 0.45972 0.25651 0.28989 0.0
C3549 C 0.47877 0.26929 0.29481 0.0
C3550 C 0.44417 0.25183 0.30677 0.0
C3551 C 0.44786 0.25964 0.32863 0.0
C3552 C 0.46757 0.27123 0.33369 0.0
C3553 C 0.4828 0.2762 0.31686 0.0
C3554 C 0.4308 0.25704 0.34621 0.0
C3555 C 0.4366 0.24537 0.36567 0.0
C3556 C 0.40956 0.26723 0.34449 0.0
C3557 C 0.40318 0.28108 0.32489 0.0
C3558 C 0.41537 0.30047 0.31948 0.0
C3559 C 0.40934 0.31341 0.30094 0.0
C3560 C 0.39117 0.3071 0.28765 0.0
C3561 C 0.37876 0.28805 0.29311 0.0
C3562 C 0.38465 0.27511 0.31172 0.0
C3563 C 0.37498 0.26054 0.43982 0.0
C3564 C 0.35264 0.25456 0.43571 0.0
C3565 C 0.39056 0.26043 0.42239 0.0
C3566 C 0.38415 0.25368 0.40078 0.0
C3567 C 0.36182 0.24761 0.39679 0.0
C3568 C 0.34617 0.2482 0.41406 0.0
C3569 C 0.40037 0.25381 0.38204 0.0
C3570 C 0.3945 0.26526 0.36233 0.0
C3571 C 0.42169 0.24358 0.38367 0.0
C3572 C 0.42894 0.23066 0.4036 0.0
C3573 C 0.41634 0.21235 0.41131 0.0
C3574 C 0.42372 0.19986 0.42969 0.0
C3575 C 0.44371 0.2055 0.44045 0.0
C3576 C 0.45635 0.22365 0.43288 0.0
C3577 C 0.44906 0.23617 0.41452 0.0
H3578 H 0.44942 0.19577 0.45463 0.0
H3579 H 0.38649 0.31715 0.27332 0.0
H3580 H 0.6704 0.75927 0.09139 0.0
H3581 H 0.64159 0.76279 0.12016 0.0
H3582 H 0.59022 0.75475 0.0701 0.0
H3583 H 0.619 0.75144 0.04106 0.0
H3584 H 0.58005 0.78764 0.10281 0.0
H3585 H 0.60297 0.71038 0.09912 0.0
H3586 H 0.63089 0.68001 0.0982 0.0
H3587 H 0.65573 0.70029 0.16247 0.0
H3588 H 0.62806 0.73093 0.16371 0.0
H3589 H 0.4927 0.76356 0.17648 0.0
H3590 H 0.51979 0.75695 0.14647 0.0
H3591 H 0.57364 0.75967 0.19459 0.0
H3592 H 0.54634 0.76539 0.22475 0.0
H3593 H 0.58182 0.72928 0.16206 0.0
H3594 H 0.55952 0.80657 0.16619 0.0
H3595 H 0.5319 0.83718 0.16776 0.0
H3596 H 0.50607 0.8177 0.1036 0.0
H3597 H 0.53345 0.78685 0.10175 0.0
C3598 C 0.65298 0.75839 0.08645 0.0
C3599 C 0.64694 0.75479 0.06402 0.0
C3600 C 0.63657 0.76045 0.1029 0.0
C3601 C 0.61386 0.75874 0.09723 0.0
C3602 C 0.6077 0.75612 0.07474 0.0
C3603 C 0.62414 0.75414 0.05822 0.0
C3604 C 0.59672 0.75811 0.11502 0.0
C3605 C 0.58021 0.77474 0.1156 0.0
C3606 C 0.59725 0.74153 0.1319 0.0
C3607 C 0.61361 0.72298 0.13142 0.0
C3608 C 0.61446 0.70841 0.113 0.0
C3609 C 0.63019 0.69116 0.11243 0.0
C3610 C 0.64503 0.68832 0.13024 0.0
C3611 C 0.64417 0.70258 0.14872 0.0
C3612 C 0.62846 0.71985 0.14938 0.0
C3613 C 0.51024 0.76178 0.18066 0.0
C3614 C 0.51762 0.76456 0.20273 0.0
C3615 C 0.52569 0.75834 0.16356 0.0
C3616 C 0.54868 0.75836 0.16832 0.0
C3617 C 0.55594 0.75965 0.19063 0.0
C3618 C 0.54042 0.76274 0.20781 0.0
C3619 C 0.56514 0.7588 0.14993 0.0
C3620 C 0.58156 0.74216 0.14925 0.0
C3621 C 0.56456 0.77549 0.13308 0.0
C3622 C 0.54843 0.79434 0.13389 0.0
C3623 C 0.5479 0.80878 0.15245 0.0
C3624 C 0.5323 0.82618 0.15339 0.0
C3625 C 0.51722 0.82936 0.1358 0.0
C3626 C 0.51777 0.81521 0.11721 0.0
C3627 C 0.53336 0.7978 0.11618 0.0
H3628 H 0.50512 0.84281 0.13657 0.0
H3629 H 0.65717 0.67508 0.12968 0.0
H3630 H 0.83071 0.22903 0.58701 0.0
H3631 H 0.85827 0.22543 0.6169 0.0
H3632 H 0.91011 0.2484 0.5721 0.0
H3633 H 0.88256 0.25142 0.54177 0.0
H3634 H 0.92541 0.21534 0.59884 0.0
H3635 H 0.88586 0.28475 0.6099 0.0
H3636 H 0.8526 0.30883 0.61418 0.0
H3637 H 0.83194 0.27077 0.67159 0.0
H3638 H 0.86501 0.24638 0.66756 0.0
H3639 H 0.00054 0.24918 0.68659 0.0
H3640 H 0.97386 0.25347 0.65549 0.0
H3641 H 0.92519 0.21443 0.69185 0.0
H3642 H 0.95199 0.20956 0.72248 0.0
H3643 H 0.90936 0.25655 0.66916 0.0
H3644 H 0.94801 0.18671 0.6576 0.0
H3645 H 0.98153 0.16293 0.65418 0.0
H3646 H 0.00399 0.20196 0.59813 0.0
H3647 H 0.97071 0.2262 0.60144 0.0
C3648 C 0.848 0.23323 0.58347 0.0
C3649 C 0.85445 0.24082 0.56215 0.0
C3650 C 0.86373 0.2312 0.60059 0.0
C3651 C 0.88615 0.23716 0.59689 0.0
C3652 C 0.89285 0.24385 0.57535 0.0
C3653 C 0.87712 0.24561 0.55807 0.0
C3654 C 0.90228 0.23724 0.61579 0.0
C3655 C 0.92205 0.22464 0.61405 0.0
C3656 C 0.89773 0.24902 0.63586 0.0
C3657 C 0.87783 0.26366 0.63833 0.0
C3658 C 0.87416 0.28145 0.62336 0.0
C3659 C 0.85536 0.29517 0.62576 0.0
C3660 C 0.84016 0.29131 0.64312 0.0
C3661 C 0.84374 0.27374 0.65815 0.0
C3662 C 0.86253 0.26 0.65585 0.0
C3663 C 0.98394 0.24206 0.6881 0.0
C3664 C 0.97809 0.2292 0.70689 0.0
C3665 C 0.96885 0.24431 0.67033 0.0
C3666 C 0.9477 0.23411 0.67143 0.0
C3667 C 0.94144 0.22239 0.69075 0.0
C3668 C 0.95666 0.21971 0.70822 0.0
C3669 C 0.93236 0.2348 0.65208 0.0
C3670 C 0.91273 0.24745 0.65382 0.0
C3671 C 0.93706 0.22308 0.63209 0.0
C3672 C 0.95702 0.20847 0.62996 0.0
C3673 C 0.96021 0.19038 0.6447 0.0
C3674 C 0.97914 0.17678 0.64275 0.0
C3675 C 0.99493 0.18098 0.62601 0.0
C3676 C 0.99177 0.19876 0.61113 0.0
C3677 C 0.97287 0.21243 0.61302 0.0
H3678 H 0.00957 0.17044 0.62452 0.0
H3679 H 0.82562 0.30196 0.64495 0.0
H3680 H 0.80302 0.02425 0.68775 0.0
H3681 H 0.83284 0.04975 0.69753 0.0
H3682 H 0.81383 0.04601 0.7671 0.0
H3683 H 0.78316 0.02017 0.75737 0.0
H3684 H 0.82472 0.0913 0.74715 0.0
H3685 H 0.85487 0.01645 0.7546 0.0
H3686 H 0.85915 0.97799 0.74039 0.0
H3687 H 0.89266 0.00295 0.68188 0.0
H3688 H 0.88822 0.04161 0.69553 0.0
H3689 H 0.92054 0.14784 0.77772 0.0
H3690 H 0.89336 0.1174 0.77671 0.0
H3691 H 0.91285 0.10201 0.70892 0.0
H3692 H 0.94106 0.13201 0.71025 0.0
H3693 H 0.9019 0.06443 0.7317 0.0
H3694 H 0.87056 0.13655 0.71912 0.0
H3695 H 0.86432 0.17637 0.72761 0.0
H3696 H 0.83064 0.15845 0.78855 0.0
H3697 H 0.83698 0.11846 0.78057 0.0
C3698 C 0.80497 0.0288 0.70519 0.0
C3699 C 0.79092 0.01996 0.72189 0.0
C3700 C 0.82203 0.04343 0.71068 0.0
C3701 C 0.82563 0.04932 0.73299 0.0
C3702 C 0.81121 0.04138 0.74977 0.0
C3703 C 0.79385 0.02666 0.74423 0.0
C3704 C 0.84521 0.0631 0.73832 0.0
C3705 C 0.84167 0.08536 0.74445 0.0
C3706 C 0.86707 0.05533 0.73359 0.0
C3707 C 0.87119 0.03197 0.72611 0.0
C3708 C 0.86317 0.01375 0.73871 0.0
C3709 C 0.86558 0.99191 0.73073 0.0
C3710 C 0.87616 0.98803 0.71024 0.0
C3711 C 0.8845 0.00598 0.69777 0.0
C3712 C 0.88208 0.02787 0.70565 0.0
C3713 C 0.91915 0.13777 0.76271 0.0
C3714 C 0.93233 0.14235 0.74386 0.0
C3715 C 0.90382 0.12036 0.76223 0.0
C3716 C 0.90086 0.10784 0.74266 0.0
C3717 C 0.9149 0.11158 0.72416 0.0
C3718 C 0.93078 0.12874 0.72484 0.0
C3719 C 0.88149 0.0927 0.74089 0.0
C3720 C 0.88505 0.07028 0.73507 0.0
C3721 C 0.8595 0.10048 0.74524 0.0
C3722 C 0.85459 0.12449 0.74945 0.0
C3723 C 0.86192 0.14108 0.7344 0.0
C3724 C 0.85837 0.16369 0.73911 0.0
C3725 C 0.84719 0.16994 0.75867 0.0
C3726 C 0.83935 0.15358 0.77344 0.0
C3727 C 0.84292 0.13094 0.76882 0.0
H3728 H 0.84453 0.18746 0.76234 0.0
H3729 H 0.8779 0.97112 0.70404 0.0
H3730 H 0.68483 0.98709 0.19265 0.0
H3731 H 0.6547 0.96036 0.1993 0.0
H3732 H 0.68898 0.93589 0.25792 0.0
H3733 H 0.71931 0.96321 0.25156 0.0
H3734 H 0.67038 0.90212 0.22295 0.0
H3735 H 0.65038 0.96445 0.27039 0.0
H3736 H 0.64584 0.00497 0.27638 0.0
H3737 H 0.59551 0.0073 0.22517 0.0
H3738 H 0.60009 0.96681 0.21854 0.0
H3739 H 0.58348 0.83399 0.2608 0.0
H3740 H 0.61296 0.8622 0.26028 0.0
H3741 H 0.57255 0.90383 0.21725 0.0
H3742 H 0.54233 0.8759 0.21876 0.0
H3743 H 0.59511 0.92945 0.24525 0.0
H3744 H 0.61447 0.86923 0.1964 0.0
H3745 H 0.62038 0.82978 0.18601 0.0
H3746 H 0.67256 0.82426 0.23511 0.0
H3747 H 0.66671 0.8636 0.24605 0.0
C3748 C 0.68595 0.97609 0.20703 0.0
C3749 C 0.70427 0.97728 0.22174 0.0
C3750 C 0.66876 0.96082 0.21075 0.0
C3751 C 0.66969 0.94624 0.22906 0.0
C3752 C 0.68808 0.94709 0.24369 0.0
C3753 C 0.70519 0.96276 0.24019 0.0
C3754 C 0.65092 0.93062 0.233 0.0
C3755 C 0.65402 0.90791 0.2283 0.0
C3756 C 0.62947 0.93854 0.23902 0.0
C3757 C 0.62565 0.9626 0.2439 0.0
C3758 C 0.63838 0.9736 0.26036 0.0
C3759 C 0.63583 0.99657 0.26385 0.0
C3760 C 0.62042 0.00871 0.25114 0.0
C3761 C 0.60744 -0.00214 0.235 0.0
C3762 C 0.60998 0.97489 0.23139 0.0
C3763 C 0.58083 0.84921 0.2513 0.0
C3764 C 0.5608 0.85262 0.23948 0.0
C3765 C 0.59771 0.86532 0.25099 0.0
C3766 C 0.59529 0.8849 0.23821 0.0
C3767 C 0.57489 0.8888 0.22711 0.0
C3768 C 0.55768 0.87283 0.22788 0.0
C3769 C 0.61452 0.90057 0.23562 0.0
C3770 C 0.61148 0.92343 0.24025 0.0
C3771 C 0.63604 0.89283 0.22915 0.0
C3772 C 0.64001 0.86932 0.22219 0.0
C3773 C 0.62714 0.85958 0.20505 0.0
C3774 C 0.63047 0.83723 0.19907 0.0
C3775 C 0.64679 0.8245 0.20993 0.0
C3776 C 0.6599 0.83413 0.22673 0.0
C3777 C 0.65659 0.85646 0.23282 0.0
H3778 H 0.64932 0.80719 0.2053 0.0
H3779 H 0.61853 0.02651 0.25381 0.0
H3780 H 0.45154 0.37355 0.27964 0.0
H3781 H 0.42043 0.40043 0.28149 0.0
H3782 H 0.38208 0.35948 0.23619 0.0
H3783 H 0.41271 0.33228 0.23486 0.0
H3784 H 0.3878 0.41228 0.22803 0.0
H3785 H 0.35468 0.35469 0.28173 0.0
H3786 H 0.35699 0.33004 0.31491 0.0
H3787 H 0.38689 0.3832 0.35278 0.0
H3788 H 0.38409 0.40831 0.32002 0.0
H3789 H 0.28037 0.46666 0.24236 0.0
H3790 H 0.30968 0.43845 0.2359 0.0
H3791 H 0.34317 0.45935 0.29635 0.0
H3792 H 0.31448 0.4871 0.30288 0.0
H3793 H 0.33866 0.41491 0.29499 0.0
H3794 H 0.36268 0.47461 0.24753 0.0
H3795 H 0.35751 0.50256 0.21765 0.0
H3796 H 0.34868 0.45005 0.16949 0.0
H3797 H 0.35331 0.42173 0.19924 0.0
C3798 C 0.43649 0.37041 0.27003 0.0
C3799 C 0.43442 0.35094 0.25713 0.0
C3800 C 0.4188 0.38566 0.27113 0.0
C3801 C 0.39912 0.38182 0.25892 0.0
C3802 C 0.3972 0.36262 0.24569 0.0
C3803 C 0.41464 0.34715 0.24499 0.0
C3804 C 0.38038 0.39773 0.26023 0.0
C3805 C 0.37683 0.41275 0.24249 0.0
C3806 C 0.36652 0.39857 0.2793 0.0
C3807 C 0.36945 0.3832 0.29845 0.0
C3808 C 0.36191 0.36101 0.2971 0.0
C3809 C 0.36317 0.34702 0.31584 0.0
C3810 C 0.37229 0.35497 0.33585 0.0
C3811 C 0.37995 0.37701 0.33724 0.0
C3812 C 0.37841 0.39116 0.31865 0.0
C3813 C 0.29412 0.46529 0.25409 0.0
C3814 C 0.29506 0.47899 0.27315 0.0
C3815 C 0.31077 0.44921 0.25043 0.0
C3816 C 0.32846 0.44681 0.26577 0.0
C3817 C 0.32954 0.46079 0.28447 0.0
C3818 C 0.31311 0.47672 0.28809 0.0
C3819 C 0.34598 0.42968 0.26285 0.0
C3820 C 0.34939 0.4144 0.28033 0.0
C3821 C 0.35998 0.42909 0.24377 0.0
C3822 C 0.35806 0.44603 0.22567 0.0
C3823 C 0.35948 0.469 0.2306 0.0
C3824 C 0.35665 0.48492 0.21369 0.0
C3825 C 0.35269 0.47808 0.1917 0.0
C3826 C 0.35169 0.45531 0.18656 0.0
C3827 C 0.35441 0.43931 0.20344 0.0
H3828 H 0.35046 0.49043 0.17863 0.0
H3829 H 0.37332 0.34408 0.3503 0.0
H3830 H 0.17837 0.49429 0.7636 0.0
H3831 H 0.14767 0.52083 0.75759 0.0
H3832 H 0.19463 0.57561 0.76008 0.0
H3833 H 0.22548 0.54892 0.76548 0.0
H3834 H 0.15756 0.57647 0.79231 0.0
H3835 H 0.17111 0.56925 0.71297 0.0
H3836 H 0.17796 0.54663 0.67916 0.0
H3837 H 0.11409 0.51466 0.68729 0.0
H3838 H 0.10695 0.53699 0.72129 0.0
H3839 H 0.0854 0.66592 0.7691 0.0
H3840 H 0.11505 0.63818 0.77053 0.0
H3841 H 0.06768 0.58632 0.7539 0.0
H3842 H 0.03768 0.61431 0.75201 0.0
H3843 H 0.10461 0.58285 0.72863 0.0
H3844 H 0.09039 0.5875 0.80715 0.0
H3845 H 0.08388 0.60504 0.84394 0.0
H3846 H 0.14766 0.63791 0.83988 0.0
H3847 H 0.15459 0.62048 0.80308 0.0
C3848 C 0.18214 0.51195 0.76194 0.0
C3849 C 0.20411 0.51972 0.76457 0.0
C3850 C 0.16468 0.52705 0.75867 0.0
C3851 C 0.16897 0.5501 0.75846 0.0
C3852 C 0.19109 0.55784 0.76013 0.0
C3853 C 0.20865 0.54267 0.76296 0.0
C3854 C 0.15008 0.56599 0.75867 0.0
C3855 C 0.14619 0.57826 0.77826 0.0
C3856 C 0.13482 0.56737 0.74071 0.0
C3857 C 0.13853 0.55472 0.7197 0.0
C3858 C 0.15853 0.55738 0.70755 0.0
C3859 C 0.16247 0.54462 0.68836 0.0
C3860 C 0.14648 0.5292 0.6811 0.0
C3861 C 0.12645 0.52663 0.69293 0.0
C3862 C 0.12242 0.53939 0.71212 0.0
C3863 C 0.08116 0.6486 0.76591 0.0
C3864 C 0.05919 0.64232 0.76036 0.0
C3865 C 0.09816 0.63272 0.76688 0.0
C3866 C 0.09357 0.61014 0.7625 0.0
C3867 C 0.07156 0.60367 0.75735 0.0
C3868 C 0.05445 0.61964 0.75637 0.0
C3869 C 0.11214 0.59372 0.76225 0.0
C3870 C 0.11597 0.58123 0.74269 0.0
C3871 C 0.1272 0.59183 0.78044 0.0
C3872 C 0.12293 0.60281 0.8023 0.0
C3873 C 0.10296 0.59858 0.81404 0.0
C3874 C 0.09926 0.60838 0.83496 0.0
C3875 C 0.11536 0.62255 0.84426 0.0
C3876 C 0.13522 0.6269 0.83267 0.0
C3877 C 0.13909 0.61699 0.81183 0.0
H3878 H 0.11242 0.63021 0.8604 0.0
H3879 H 0.1496 0.51925 0.6663 0.0
H3880 H 0.75928 0.79572 0.00874 0.0
H3881 H 0.76556 0.82703 0.03483 0.0
H3882 H 0.70011 0.81599 0.06354 0.0
H3883 H 0.69338 0.78643 0.03697 0.0
H3884 H 0.70373 0.8572 0.05162 0.0
H3885 H 0.74913 0.80438 0.0926 0.0
H3886 H 0.77969 0.77701 0.09691 0.0
H3887 H 0.82779 0.82724 0.07872 0.0
H3888 H 0.79744 0.85487 0.07407 0.0
H3889 H 0.70506 0.91766 0.15459 0.0
H3890 H 0.70521 0.88776 0.12654 0.0
H3891 H 0.76218 0.91807 0.09412 0.0
H3892 H 0.76199 0.94813 0.12172 0.0
H3893 H 0.76591 0.87011 0.10503 0.0
H3894 H 0.71789 0.92344 0.06721 0.0
H3895 H 0.6858 0.94925 0.06449 0.0
H3896 H 0.64066 0.89541 0.0796 0.0
H3897 H 0.67252 0.86931 0.08257 0.0
C3898 C 0.74657 0.79978 0.02101 0.0
C3899 C 0.7259 0.78864 0.02097 0.0
C3900 C 0.75011 0.8176 0.03585 0.0
C3901 C 0.73317 0.82392 0.05097 0.0
C3902 C 0.71329 0.81161 0.05186 0.0
C3903 C 0.70958 0.79445 0.03683 0.0
C3904 C 0.73485 0.84432 0.06476 0.0
C3905 C 0.71729 0.8599 0.0634 0.0
C3906 C 0.75274 0.84809 0.07973 0.0
C3907 C 0.77101 0.83161 0.08276 0.0
C3908 C 0.76621 0.80954 0.08938 0.0
C3909 C 0.78349 0.79399 0.09191 0.0
C3910 C 0.80566 0.80036 0.08803 0.0
C3911 C 0.8106 0.82232 0.08169 0.0
C3912 C 0.79337 0.83794 0.07913 0.0
C3913 C 0.71747 0.91804 0.14137 0.0
C3914 C 0.73352 0.93516 0.14034 0.0
C3915 C 0.71754 0.90101 0.12542 0.0
C3916 C 0.73379 0.90082 0.10846 0.0
C3917 C 0.74962 0.918 0.10721 0.0
C3918 C 0.74937 0.93518 0.12291 0.0
C3919 C 0.7345 0.88239 0.09224 0.0
C3920 C 0.75252 0.86736 0.09307 0.0
C3921 C 0.7168 0.87881 0.07708 0.0
C3922 C 0.69761 0.89447 0.07528 0.0
C3923 C 0.70114 0.91715 0.07011 0.0
C3924 C 0.68298 0.93181 0.06847 0.0
C3925 C 0.66121 0.92398 0.07191 0.0
C3926 C 0.65754 0.90145 0.07694 0.0
C3927 C 0.67563 0.88671 0.07856 0.0
H3928 H 0.64718 0.93536 0.07064 0.0
H3929 H 0.81902 0.7883 0.08998 0.0
H3930 H 0.21401 0.58106 0.83405 0.0
H3931 H 0.2168 0.611 0.86165 0.0
H3932 H 0.25426 0.56754 0.90545 0.0
H3933 H 0.25122 0.53726 0.87798 0.0
H3934 H 0.22325 0.59307 0.92831 0.0
H3935 H 0.28218 0.60644 0.87406 0.0
H3936 H 0.29713 0.61128 0.83584 0.0
H3937 H 0.25287 0.66683 0.82514 0.0
H3938 H 0.23757 0.66222 0.86325 0.0
H3939 H 0.24828 0.68394 -0.00054 0.0
H3940 H 0.25617 0.65235 0.97433 0.0
H3941 H 0.2252 0.68824 0.91977 0.0
H3942 H 0.21848 0.71991 0.94452 0.0
H3943 H 0.25762 0.66462 0.90385 0.0
H3944 H 0.19569 0.65053 0.95368 0.0
H3945 H 0.17743 0.64677 0.99054 0.0
H3946 H 0.22262 0.59371 0.00795 0.0
H3947 H 0.24136 0.5974 0.9713 0.0
C3948 C 0.22269 0.57777 0.84963 0.0
C3949 C 0.23254 0.55683 0.85375 0.0
C3950 C 0.22437 0.59495 0.86535 0.0
C3951 C 0.23618 0.59166 0.8854 0.0
C3952 C 0.24521 0.57049 0.89001 0.0
C3953 C 0.24343 0.5532 0.87432 0.0
C3954 C 0.23942 0.61053 0.90121 0.0
C3955 C 0.23116 0.60857 0.92313 0.0
C3956 C 0.24926 0.63094 0.89428 0.0
C3957 C 0.25869 0.63392 0.87147 0.0
C3958 C 0.2756 0.61963 0.86352 0.0
C3959 C 0.28414 0.62235 0.84188 0.0
C3960 C 0.27594 0.63934 0.82806 0.0
C3961 C 0.25923 0.65369 0.83587 0.0
C3962 C 0.25066 0.65107 0.8575 0.0
C3963 C 0.24402 0.68529 0.98188 0.0
C3964 C 0.23273 0.70419 0.97381 0.0
C3965 C 0.24821 0.66717 0.96762 0.0
C3966 C 0.24075 0.66766 0.94526 0.0
C3967 C 0.23101 0.68733 0.93693 0.0
C3968 C 0.22707 0.70542 0.95108 0.0
C3969 C 0.24119 0.64733 0.93093 0.0
C3970 C 0.25008 0.649 0.90923 0.0
C3971 C 0.23148 0.62683 0.93792 0.0
C3972 C 0.2201 0.62442 0.95987 0.0
C3973 C 0.20182 0.63817 0.96544 0.0
C3974 C 0.19138 0.63604 0.98629 0.0
C3975 C 0.19892 0.62008 0.00163 0.0
C3976 C 0.21685 0.60613 0.9961 0.0
C3977 C 0.22738 0.60822 0.97528 0.0
H3978 H 0.19083 0.61847 0.01777 0.0
H3979 H 0.28256 0.64138 0.81131 0.0
H3980 H 0.29963 0.31764 0.4897 0.0
H3981 H 0.29091 0.34754 0.46343 0.0
H3982 H 0.23922 0.30686 0.43379 0.0
H3983 H 0.24789 0.27653 0.4604 0.0
H3984 H 0.27232 0.32731 0.40301 0.0
H3985 H 0.22183 0.34842 0.46278 0.0
H3986 H 0.21438 0.35425 0.50297 0.0
H3987 H 0.26467 0.40552 0.50511 0.0
H3988 H 0.27259 0.39982 0.46497 0.0
H3989 H 0.2422 0.41312 0.32959 0.0
H3990 H 0.24084 0.38345 0.35737 0.0
H3991 H 0.27564 0.42572 0.40447 0.0
H3992 H 0.27504 0.45642 0.37715 0.0
H3993 H 0.24781 0.40299 0.42667 0.0
H3994 H 0.30231 0.38168 0.37196 0.0
H3995 H 0.31714 0.37432 0.33411 0.0
H3996 H 0.26749 0.32332 0.32433 0.0
H3997 H 0.25228 0.33048 0.36207 0.0
C3998 C 0.28624 0.31508 0.47775 0.0
C3999 C 0.27444 0.29476 0.47704 0.0
C4000 C 0.28126 0.33221 0.46279 0.0
C4001 C 0.26441 0.3294 0.44676 0.0
C4002 C 0.25227 0.30928 0.44613 0.0
C4003 C 0.2571 0.2921 0.46138 0.0
C4004 C 0.26035 0.34744 0.43029 0.0
C4005 C 0.26641 0.34373 0.40796 0.0
C4006 C 0.2537 0.36905 0.43716 0.0
C4007 C 0.24779 0.3737 0.46085 0.0
C4008 C 0.23124 0.36099 0.4718 0.0
C4009 C 0.22697 0.36424 0.49459 0.0
C4010 C 0.23905 0.38024 0.50659 0.0
C4011 C 0.25529 0.39316 0.49578 0.0
C4012 C 0.25963 0.38999 0.47299 0.0
C4013 C 0.24945 0.41618 0.34591 0.0
C4014 C 0.25884 0.43706 0.35118 0.0
C4015 C 0.24884 0.39908 0.36177 0.0
C4016 C 0.25873 0.40198 0.38289 0.0
C4017 C 0.26796 0.42296 0.38829 0.0
C4018 C 0.26777 0.44045 0.37265 0.0
C4019 C 0.25974 0.38298 0.39905 0.0
C4020 C 0.2533 0.38652 0.42143 0.0
C4021 C 0.26676 0.3613 0.39238 0.0
C4022 C 0.27603 0.35676 0.36976 0.0
C4023 C 0.2945 0.36897 0.36169 0.0
C4024 C 0.30298 0.36482 0.34027 0.0
C4025 C 0.29323 0.34841 0.32681 0.0
C4026 C 0.27502 0.33604 0.33477 0.0
C4027 C 0.26649 0.3401 0.35619 0.0
H4028 H 0.2998 0.34524 0.31023 0.0
H4029 H 0.23583 0.38262 0.52426 0.0
H4030 H 0.79746 0.20953 0.54575 0.0
H4031 H 0.78998 0.17604 0.56733 0.0
H4032 H 0.73639 0.15874 0.5221 0.0
H4033 H 0.74334 0.19342 0.50076 0.0
H4034 H 0.72633 0.14978 0.5659 0.0
H4035 H 0.7871 0.13334 0.51687 0.0
H4036 H 0.82308 0.14091 0.49809 0.0
H4037 H 0.85681 0.14002 0.56152 0.0
H4038 H 0.82101 0.1328 0.58075 0.0
H4039 H 0.7325 0.04168 0.62033 0.0
H4040 H 0.73286 0.07021 0.59084 0.0
H4041 H 0.78142 0.10829 0.6282 0.0
H4042 H 0.78083 0.08006 0.65798 0.0
H4043 H 0.79191 0.10119 0.58123 0.0
H4044 H 0.73192 0.13848 0.62621 0.0
H4045 H 0.69594 0.14095 0.64642 0.0
H4046 H 0.66323 0.10541 0.59328 0.0
H4047 H 0.69888 0.10372 0.57229 0.0
C4048 C 0.78368 0.19898 0.54073 0.0
C4049 C 0.77091 0.20406 0.52171 0.0
C4050 C 0.77966 0.17962 0.55284 0.0
C4051 C 0.76323 0.16451 0.54579 0.0
C4052 C 0.74943 0.17009 0.52755 0.0
C4053 C 0.75322 0.1899 0.51554 0.0
C4054 C 0.76081 0.1431 0.5579 0.0
C4055 C 0.74047 0.13872 0.56865 0.0
C4056 C 0.7795 0.12903 0.5619 0.0
C4057 C 0.80128 0.13253 0.55028 0.0
C4058 C 0.80217 0.13479 0.52684 0.0
C4059 C 0.82254 0.13905 0.51611 0.0
C4060 C 0.84221 0.14095 0.5286 0.0
C4061 C 0.84156 0.1385 0.55185 0.0
C4062 C 0.82123 0.13427 0.56268 0.0
C4063 C 0.7433 0.05611 0.62222 0.0
C4064 C 0.75669 0.05866 0.64139 0.0
C4065 C 0.74337 0.07242 0.60545 0.0
C4066 C 0.75709 0.09132 0.60745 0.0
C4067 C 0.77069 0.09379 0.62643 0.0
C4068 C 0.77032 0.0777 0.6434 0.0
C4069 C 0.75761 0.10839 0.58959 0.0
C4070 C 0.77761 0.11181 0.57777 0.0
C4071 C 0.73877 0.12175 0.5847 0.0
C4072 C 0.71801 0.12055 0.59799 0.0
C4073 C 0.71708 0.13093 0.61903 0.0
C4074 C 0.69675 0.13237 0.63051 0.0
C4075 C 0.67739 0.123 0.62133 0.0
C4076 C 0.67828 0.11246 0.60047 0.0
C4077 C 0.69849 0.1114 0.5887 0.0
H4078 H 0.66169 0.12408 0.6303 0.0
H4079 H 0.85795 0.14431 0.52027 0.0
loop_
_geom_bond_atom_site_label_1
_geom_bond_atom_site_label_2
_geom_bond_distance
_geom_bond_site_symmetry_2
_ccdc_geom_bond_type
Zn0 O6 1.969 . S
Zn0 O7 1.965 . S
Zn0 O11 2.024 . S
Zn0 O16 1.969 . S
Zn1 O8 1.969 1_655 S
Zn1 O14 1.969 . S
Zn1 O15 1.965 . S
Zn1 O17 2.024 . S
C2 O3 1.229 . S
C2 O11 1.058 . S
O3 C2 1.229 . S
C4 O5 1.229 . S
C4 O17 1.058 . S
O5 C4 1.229 . S
O6 Zn0 1.969 . S
O6 C9 1.267 . S
O7 Zn0 1.965 . S
O7 C18 1.260 . S
O8 Zn1 1.969 1_455 S
O8 C18 1.258 . S
C9 O6 1.267 . S
C9 O10 1.228 . S
O10 C9 1.228 . S
O11 Zn0 2.024 . S
O11 C2 1.058 . S
C12 O13 1.228 . S
C12 O14 1.267 . S
O13 C12 1.228 . S
O14 Zn1 1.969 . S
O14 C12 1.267 . S
O15 Zn1 1.965 . S
O15 C19 1.260 . S
O16 Zn0 1.969 . S
O16 C19 1.258 1_455 S
O17 Zn1 2.024 . S
O17 C4 1.058 . S
C18 O7 1.260 . S
C18 O8 1.258 . S
C19 O15 1.260 . S
C19 O16 1.258 1_655 S
Zn20 O26 1.969 . S
Zn20 O27 1.965 . S
Zn20 O31 2.024 . S
Zn20 O36 1.969 . S
Zn21 O28 1.969 . S
Zn21 O34 1.969 . S
Zn21 O35 1.965 . S
Zn21 O37 2.024 . S
C22 O23 1.229 . S
C22 O31 1.058 . S
O23 C22 1.229 . S
C24 O25 1.229 . S
C24 O37 1.058 . S
O25 C24 1.229 . S
O26 Zn20 1.969 . S
O26 C29 1.267 . S
O27 Zn20 1.965 . S
O27 C38 1.260 . S
O28 Zn21 1.969 . S
O28 C38 1.258 . S
C29 O26 1.267 . S
C29 O30 1.228 . S
O30 C29 1.228 . S
O31 Zn20 2.024 . S
O31 C22 1.058 . S
C32 O33 1.228 . S
C32 O34 1.267 . S
O33 C32 1.228 . S
O34 Zn21 1.969 . S
O34 C32 1.267 . S
O35 Zn21 1.965 . S
O35 C39 1.260 . S
O36 Zn20 1.969 . S
O36 C39 1.258 . S
O37 Zn21 2.024 . S
O37 C24 1.058 . S
C38 O27 1.260 . S
C38 O28 1.258 . S
C39 O35 1.260 . S
C39 O36 1.258 . S
Zn40 O46 1.969 . S
Zn40 O47 1.965 . S
Zn40 O51 2.024 . S
Zn40 O56 1.969 . S
Zn41 O48 1.969 . S
Zn41 O54 1.969 . S
Zn41 O55 1.965 . S
Zn41 O57 2.024 . S
C42 O43 1.229 . S
C42 O51 1.058 . S
O43 C42 1.229 . S
C44 O45 1.229 . S
C44 O57 1.058 . S
O45 C44 1.229 . S
O46 Zn40 1.969 . S
O46 C49 1.267 . S
O47 Zn40 1.965 . S
O47 C58 1.260 . S
O48 Zn41 1.969 . S
O48 C58 1.258 . S
C49 O46 1.267 . S
C49 O50 1.228 . S
O50 C49 1.228 . S
O51 Zn40 2.024 . S
O51 C42 1.058 . S
C52 O53 1.228 . S
C52 O54 1.267 . S
O53 C52 1.228 . S
O54 Zn41 1.969 . S
O54 C52 1.267 . S
O55 Zn41 1.965 . S
O55 C59 1.260 . S
O56 Zn40 1.969 . S
O56 C59 1.258 . S
O57 Zn41 2.024 . S
O57 C44 1.058 . S
C58 O47 1.260 . S
C58 O48 1.258 . S
C59 O55 1.260 . S
C59 O56 1.258 . S
Zn60 O66 1.969 . S
Zn60 O67 1.965 . S
Zn60 O71 2.024 . S
Zn60 O76 1.969 . S
Zn61 O68 1.969 1_455 S
Zn61 O74 1.969 . S
Zn61 O75 1.965 . S
Zn61 O77 2.024 . S
C62 O63 1.229 . S
C62 O71 1.058 . S
O63 C62 1.229 . S
C64 O65 1.229 . S
C64 O77 1.058 . S
O65 C64 1.229 . S
O66 Zn60 1.969 . S
O66 C69 1.267 . S
O67 Zn60 1.965 . S
O67 C78 1.260 . S
O68 Zn61 1.969 1_655 S
O68 C78 1.258 . S
C69 O66 1.267 . S
C69 O70 1.228 . S
O70 C69 1.228 . S
O71 Zn60 2.024 . S
O71 C62 1.058 . S
C72 O73 1.228 . S
C72 O74 1.267 . S
O73 C72 1.228 . S
O74 Zn61 1.969 . S
O74 C72 1.267 . S
O75 Zn61 1.965 . S
O75 C79 1.260 . S
O76 Zn60 1.969 . S
O76 C79 1.258 1_655 S
O77 Zn61 2.024 . S
O77 C64 1.058 . S
C78 O67 1.260 . S
C78 O68 1.258 . S
C79 O75 1.260 . S
C79 O76 1.258 1_455 S
Zn80 O86 1.969 . S
Zn80 O87 1.965 . S
Zn80 O91 2.024 . S
Zn80 O96 1.969 . S
Zn81 O88 1.969 1_565 S
Zn81 O94 1.969 . S
Zn81 O95 1.965 . S
Zn81 O97 2.024 . S
C82 O83 1.229 . S
C82 O91 1.058 . S
O83 C82 1.229 . S
C84 O85 1.229 . S
C84 O97 1.058 . S
O85 C84 1.229 . S
O86 Zn80 1.969 . S
O86 C89 1.267 . S
O87 Zn80 1.965 . S
O87 C98 1.260 . S
O88 Zn81 1.969 1_545 S
O88 C98 1.258 . S
C89 O86 1.267 . S
C89 O90 1.228 . S
O90 C89 1.228 . S
O91 Zn80 2.024 . S
O91 C82 1.058 . S
C92 O93 1.228 . S
C92 O94 1.267 . S
O93 C92 1.228 . S
O94 Zn81 1.969 . S
O94 C92 1.267 . S
O95 Zn81 1.965 . S
O95 C99 1.260 . S
O96 Zn80 1.969 . S
O96 C99 1.258 1_545 S
O97 Zn81 2.024 . S
O97 C84 1.058 . S
C98 O87 1.260 . S
C98 O88 1.258 . S
C99 O95 1.260 . S
C99 O96 1.258 1_565 S
Zn100 O106 1.969 . S
Zn100 O107 1.965 . S
Zn100 O111 2.024 . S
Zn100 O116 1.969 . S
Zn101 O108 1.969 1_545 S
Zn101 O114 1.969 . S
Zn101 O115 1.965 . S
Zn101 O117 2.024 . S
C102 O103 1.229 . S
C102 O111 1.058 . S
O103 C102 1.229 . S
C104 O105 1.229 . S
C104 O117 1.058 . S
O105 C104 1.229 . S
O106 Zn100 1.969 . S
O106 C109 1.267 . S
O107 Zn100 1.965 . S
O107 C118 1.260 . S
O108 Zn101 1.969 1_565 S
O108 C118 1.258 . S
C109 O106 1.267 . S
C109 O110 1.228 . S
O110 C109 1.228 . S
O111 Zn100 2.024 . S
O111 C102 1.058 . S
C112 O113 1.228 . S
C112 O114 1.267 . S
O113 C112 1.228 . S
O114 Zn101 1.969 . S
O114 C112 1.267 . S
O115 Zn101 1.965 . S
O115 C119 1.260 . S
O116 Zn100 1.969 . S
O116 C119 1.258 1_565 S
O117 Zn101 2.024 . S
O117 C104 1.058 . S
C118 O107 1.260 . S
C118 O108 1.258 . S
C119 O115 1.260 . S
C119 O116 1.258 1_545 S
Zn120 O126 1.969 . S
Zn120 O127 1.965 . S
Zn120 O131 2.024 . S
Zn120 O136 1.969 . S
Zn121 O128 1.969 . S
Zn121 O134 1.969 . S
Zn121 O135 1.965 . S
Zn121 O137 2.024 . S
C122 O123 1.229 . S
C122 O131 1.058 . S
O123 C122 1.229 . S
C124 O125 1.229 . S
C124 O137 1.058 . S
O125 C124 1.229 . S
O126 Zn120 1.969 . S
O126 C129 1.267 . S
O127 Zn120 1.965 . S
O127 C138 1.260 . S
O128 Zn121 1.969 . S
O128 C138 1.258 . S
C129 O126 1.267 . S
C129 O130 1.228 . S
O130 C129 1.228 . S
O131 Zn120 2.024 . S
O131 C122 1.058 . S
C132 O133 1.228 . S
C132 O134 1.267 . S
O133 C132 1.228 . S
O134 Zn121 1.969 . S
O134 C132 1.267 . S
O135 Zn121 1.965 . S
O135 C139 1.260 . S
O136 Zn120 1.969 . S
O136 C139 1.258 . S
O137 Zn121 2.024 . S
O137 C124 1.058 . S
C138 O127 1.260 . S
C138 O128 1.258 . S
C139 O135 1.260 . S
C139 O136 1.258 . S
Zn140 O146 1.969 . S
Zn140 O147 1.965 . S
Zn140 O151 2.024 . S
Zn140 O156 1.969 . S
Zn141 O148 1.969 . S
Zn141 O154 1.969 . S
Zn141 O155 1.965 . S
Zn141 O157 2.024 . S
C142 O143 1.229 . S
C142 O151 1.058 . S
O143 C142 1.229 . S
C144 O145 1.229 . S
C144 O157 1.058 . S
O145 C144 1.229 . S
O146 Zn140 1.969 . S
O146 C149 1.267 . S
O147 Zn140 1.965 . S
O147 C158 1.260 . S
O148 Zn141 1.969 . S
O148 C158 1.258 . S
C149 O146 1.267 . S
C149 O150 1.228 . S
O150 C149 1.228 . S
O151 Zn140 2.024 . S
O151 C142 1.058 . S
C152 O153 1.228 . S
C152 O154 1.267 . S
O153 C152 1.228 . S
O154 Zn141 1.969 . S
O154 C152 1.267 . S
O155 Zn141 1.965 . S
O155 C159 1.260 . S
O156 Zn140 1.969 . S
O156 C159 1.258 . S
O157 Zn141 2.024 . S
O157 C144 1.058 . S
C158 O147 1.260 . S
C158 O148 1.258 . S
C159 O155 1.260 . S
C159 O156 1.258 . S
Zn160 O166 1.969 . S
Zn160 O167 1.965 . S
Zn160 O171 2.024 . S
Zn160 O176 1.969 . S
Zn161 O168 1.969 1_556 S
Zn161 O174 1.969 . S
Zn161 O175 1.965 . S
Zn161 O177 2.024 . S
C162 O163 1.229 . S
C162 O171 1.058 . S
O163 C162 1.229 . S
C164 O165 1.229 . S
C164 O177 1.058 . S
O165 C164 1.229 . S
O166 Zn160 1.969 . S
O166 C169 1.267 . S
O167 Zn160 1.965 . S
O167 C178 1.260 . S
O168 Zn161 1.969 1_554 S
O168 C178 1.258 . S
C169 O166 1.267 . S
C169 O170 1.228 . S
O170 C169 1.228 . S
O171 Zn160 2.024 . S
O171 C162 1.058 . S
C172 O173 1.228 . S
C172 O174 1.267 . S
O173 C172 1.228 . S
O174 Zn161 1.969 . S
O174 C172 1.267 . S
O175 Zn161 1.965 . S
O175 C179 1.260 . S
O176 Zn160 1.969 . S
O176 C179 1.258 1_554 S
O177 Zn161 2.024 . S
O177 C164 1.058 . S
C178 O167 1.260 . S
C178 O168 1.258 . S
C179 O175 1.260 . S
C179 O176 1.258 1_556 S
Zn180 O186 1.969 . S
Zn180 O187 1.965 . S
Zn180 O191 2.024 . S
Zn180 O196 1.969 . S
Zn181 O188 1.969 1_554 S
Zn181 O194 1.969 . S
Zn181 O195 1.965 . S
Zn181 O197 2.024 . S
C182 O183 1.229 . S
C182 O191 1.058 . S
O183 C182 1.229 . S
C184 O185 1.229 . S
C184 O197 1.058 . S
O185 C184 1.229 . S
O186 Zn180 1.969 . S
O186 C189 1.267 . S
O187 Zn180 1.965 . S
O187 C198 1.260 . S
O188 Zn181 1.969 1_556 S
O188 C198 1.258 . S
C189 O186 1.267 . S
C189 O190 1.228 . S
O190 C189 1.228 . S
O191 Zn180 2.024 . S
O191 C182 1.058 . S
C192 O193 1.228 . S
C192 O194 1.267 . S
O193 C192 1.228 . S
O194 Zn181 1.969 . S
O194 C192 1.267 . S
O195 Zn181 1.965 . S
O195 C199 1.260 . S
O196 Zn180 1.969 . S
O196 C199 1.258 1_556 S
O197 Zn181 2.024 . S
O197 C184 1.058 . S
C198 O187 1.260 . S
C198 O188 1.258 . S
C199 O195 1.260 . S
C199 O196 1.258 1_554 S
Zn200 O206 1.969 . S
Zn200 O207 1.965 . S
Zn200 O211 2.024 . S
Zn200 O216 1.969 . S
Zn201 O208 1.969 . S
Zn201 O214 1.969 . S
Zn201 O215 1.965 . S
Zn201 O217 2.024 . S
C202 O203 1.229 . S
C202 O211 1.058 . S
O203 C202 1.229 . S
C204 O205 1.229 . S
C204 O217 1.058 . S
O205 C204 1.229 . S
O206 Zn200 1.969 . S
O206 C209 1.267 . S
O207 Zn200 1.965 . S
O207 C218 1.260 . S
O208 Zn201 1.969 . S
O208 C218 1.258 . S
C209 O206 1.267 . S
C209 O210 1.228 . S
O210 C209 1.228 . S
O211 Zn200 2.024 . S
O211 C202 1.058 . S
C212 O213 1.228 . S
C212 O214 1.267 . S
O213 C212 1.228 . S
O214 Zn201 1.969 . S
O214 C212 1.267 . S
O215 Zn201 1.965 . S
O215 C219 1.260 . S
O216 Zn200 1.969 . S
O216 C219 1.258 . S
O217 Zn201 2.024 . S
O217 C204 1.058 . S
C218 O207 1.260 . S
C218 O208 1.258 . S
C219 O215 1.260 . S
C219 O216 1.258 . S
Zn220 O226 1.969 . S
Zn220 O227 1.965 . S
Zn220 O231 2.024 . S
Zn220 O236 1.969 . S
Zn221 O228 1.969 . S
Zn221 O234 1.969 . S
Zn221 O235 1.965 . S
Zn221 O237 2.024 . S
C222 O223 1.229 . S
C222 O231 1.058 . S
O223 C222 1.229 . S
C224 O225 1.229 . S
C224 O237 1.058 . S
O225 C224 1.229 . S
O226 Zn220 1.969 . S
O226 C229 1.267 . S
O227 Zn220 1.965 . S
O227 C238 1.260 . S
O228 Zn221 1.969 . S
O228 C238 1.258 . S
C229 O226 1.267 . S
C229 O230 1.228 . S
O230 C229 1.228 . S
O231 Zn220 2.024 . S
O231 C222 1.058 . S
C232 O233 1.228 . S
C232 O234 1.267 . S
O233 C232 1.228 . S
O234 Zn221 1.969 . S
O234 C232 1.267 . S
O235 Zn221 1.965 . S
O235 C239 1.260 . S
O236 Zn220 1.969 . S
O236 C239 1.258 . S
O237 Zn221 2.024 . S
O237 C224 1.058 . S
C238 O227 1.260 . S
C238 O228 1.258 . S
C239 O235 1.260 . S
C239 O236 1.258 . S
Zn240 O246 1.969 . S
Zn240 O247 1.965 . S
Zn240 O251 2.024 . S
Zn240 O256 1.969 1_455 S
Zn241 O248 1.969 . S
Zn241 O254 1.969 . S
Zn241 O255 1.965 . S
Zn241 O257 2.024 . S
C242 O243 1.229 . S
C242 O251 1.058 . S
O243 C242 1.229 . S
C244 O245 1.229 . S
C244 O257 1.058 . S
O245 C244 1.229 . S
O246 Zn240 1.969 . S
O246 C249 1.267 . S
O247 Zn240 1.965 . S
O247 C258 1.260 . S
O248 Zn241 1.969 . S
O248 C258 1.258 1_655 S
C249 O246 1.267 . S
C249 O250 1.228 . S
O250 C249 1.228 . S
O251 Zn240 2.024 . S
O251 C242 1.058 . S
C252 O253 1.228 . S
C252 O254 1.267 . S
O253 C252 1.228 . S
O254 Zn241 1.969 . S
O254 C252 1.267 . S
O255 Zn241 1.965 . S
O255 C259 1.260 . S
O256 Zn240 1.969 1_655 S
O256 C259 1.258 . S
O257 Zn241 2.024 . S
O257 C244 1.058 . S
C258 O247 1.260 . S
C258 O248 1.258 1_455 S
C259 O255 1.260 . S
C259 O256 1.258 . S
Zn260 O266 1.969 . S
Zn260 O267 1.965 . S
Zn260 O271 2.024 . S
Zn260 O276 1.969 . S
Zn261 O268 1.969 . S
Zn261 O274 1.969 . S
Zn261 O275 1.965 . S
Zn261 O277 2.024 . S
C262 O263 1.229 . S
C262 O271 1.058 . S
O263 C262 1.229 . S
C264 O265 1.229 . S
C264 O277 1.058 . S
O265 C264 1.229 . S
O266 Zn260 1.969 . S
O266 C269 1.267 . S
O267 Zn260 1.965 . S
O267 C278 1.260 . S
O268 Zn261 1.969 . S
O268 C278 1.258 . S
C269 O266 1.267 . S
C269 O270 1.228 . S
O270 C269 1.228 . S
O271 Zn260 2.024 . S
O271 C262 1.058 . S
C272 O273 1.228 . S
C272 O274 1.267 . S
O273 C272 1.228 . S
O274 Zn261 1.969 . S
O274 C272 1.267 . S
O275 Zn261 1.965 . S
O275 C279 1.260 . S
O276 Zn260 1.969 . S
O276 C279 1.258 . S
O277 Zn261 2.024 . S
O277 C264 1.058 . S
C278 O267 1.260 . S
C278 O268 1.258 . S
C279 O275 1.260 . S
C279 O276 1.258 . S
Zn280 O286 1.969 . S
Zn280 O287 1.965 . S
Zn280 O291 2.024 . S
Zn280 O296 1.969 . S
Zn281 O288 1.969 . S
Zn281 O294 1.969 . S
Zn281 O295 1.965 . S
Zn281 O297 2.024 . S
C282 O283 1.229 . S
C282 O291 1.058 . S
O283 C282 1.229 . S
C284 O285 1.229 . S
C284 O297 1.058 . S
O285 C284 1.229 . S
O286 Zn280 1.969 . S
O286 C289 1.267 . S
O287 Zn280 1.965 . S
O287 C298 1.260 . S
O288 Zn281 1.969 . S
O288 C298 1.258 . S
C289 O286 1.267 . S
C289 O290 1.228 . S
O290 C289 1.228 . S
O291 Zn280 2.024 . S
O291 C282 1.058 . S
C292 O293 1.228 . S
C292 O294 1.267 . S
O293 C292 1.228 . S
O294 Zn281 1.969 . S
O294 C292 1.267 . S
O295 Zn281 1.965 . S
O295 C299 1.260 . S
O296 Zn280 1.969 . S
O296 C299 1.258 . S
O297 Zn281 2.024 . S
O297 C284 1.058 . S
C298 O287 1.260 . S
C298 O288 1.258 . S
C299 O295 1.260 . S
C299 O296 1.258 . S
Zn300 O306 1.969 . S
Zn300 O307 1.965 . S
Zn300 O311 2.024 . S
Zn300 O316 1.969 1_655 S
Zn301 O308 1.969 . S
Zn301 O314 1.969 . S
Zn301 O315 1.965 . S
Zn301 O317 2.024 . S
C302 O303 1.229 . S
C302 O311 1.058 . S
O303 C302 1.229 . S
C304 O305 1.229 . S
C304 O317 1.058 . S
O305 C304 1.229 . S
O306 Zn300 1.969 . S
O306 C309 1.267 . S
O307 Zn300 1.965 . S
O307 C318 1.260 . S
O308 Zn301 1.969 . S
O308 C318 1.258 1_455 S
C309 O306 1.267 . S
C309 O310 1.228 . S
O310 C309 1.228 . S
O311 Zn300 2.024 . S
O311 C302 1.058 . S
C312 O313 1.228 . S
C312 O314 1.267 . S
O313 C312 1.228 . S
O314 Zn301 1.969 . S
O314 C312 1.267 . S
O315 Zn301 1.965 . S
O315 C319 1.260 . S
O316 Zn300 1.969 1_455 S
O316 C319 1.258 . S
O317 Zn301 2.024 . S
O317 C304 1.058 . S
C318 O307 1.260 . S
C318 O308 1.258 1_655 S
C319 O315 1.260 . S
C319 O316 1.258 . S
Zn320 O326 1.969 . S
Zn320 O327 1.965 . S
Zn320 O331 2.024 . S
Zn320 O336 1.969 1_545 S
Zn321 O328 1.969 . S
Zn321 O334 1.969 . S
Zn321 O335 1.965 . S
Zn321 O337 2.024 . S
C322 O323 1.229 . S
C322 O331 1.058 . S
O323 C322 1.229 . S
C324 O325 1.229 . S
C324 O337 1.058 . S
O325 C324 1.229 . S
O326 Zn320 1.969 . S
O326 C329 1.267 . S
O327 Zn320 1.965 . S
O327 C338 1.260 . S
O328 Zn321 1.969 . S
O328 C338 1.258 1_565 S
C329 O326 1.267 . S
C329 O330 1.228 . S
O330 C329 1.228 . S
O331 Zn320 2.024 . S
O331 C322 1.058 . S
C332 O333 1.228 . S
C332 O334 1.267 . S
O333 C332 1.228 . S
O334 Zn321 1.969 . S
O334 C332 1.267 . S
O335 Zn321 1.965 . S
O335 C339 1.260 . S
O336 Zn320 1.969 1_565 S
O336 C339 1.258 . S
O337 Zn321 2.024 . S
O337 C324 1.058 . S
C338 O327 1.260 . S
C338 O328 1.258 1_545 S
C339 O335 1.260 . S
C339 O336 1.258 . S
Zn340 O346 1.969 . S
Zn340 O347 1.965 . S
Zn340 O351 2.024 . S
Zn340 O356 1.969 1_565 S
Zn341 O348 1.969 . S
Zn341 O354 1.969 . S
Zn341 O355 1.965 . S
Zn341 O357 2.024 . S
C342 O343 1.229 . S
C342 O351 1.058 . S
O343 C342 1.229 . S
C344 O345 1.229 . S
C344 O357 1.058 . S
O345 C344 1.229 . S
O346 Zn340 1.969 . S
O346 C349 1.267 . S
O347 Zn340 1.965 . S
O347 C358 1.260 . S
O348 Zn341 1.969 . S
O348 C358 1.258 1_545 S
C349 O346 1.267 . S
C349 O350 1.228 . S
O350 C349 1.228 . S
O351 Zn340 2.024 . S
O351 C342 1.058 . S
C352 O353 1.228 . S
C352 O354 1.267 . S
O353 C352 1.228 . S
O354 Zn341 1.969 . S
O354 C352 1.267 . S
O355 Zn341 1.965 . S
O355 C359 1.260 . S
O356 Zn340 1.969 1_545 S
O356 C359 1.258 . S
O357 Zn341 2.024 . S
O357 C344 1.058 . S
C358 O347 1.260 . S
C358 O348 1.258 1_565 S
C359 O355 1.260 . S
C359 O356 1.258 . S
Zn360 O366 1.969 . S
Zn360 O367 1.965 . S
Zn360 O371 2.024 . S
Zn360 O376 1.969 . S
Zn361 O368 1.969 . S
Zn361 O374 1.969 . S
Zn361 O375 1.965 . S
Zn361 O377 2.024 . S
C362 O363 1.229 . S
C362 O371 1.058 . S
O363 C362 1.229 . S
C364 O365 1.229 . S
C364 O377 1.058 . S
O365 C364 1.229 . S
O366 Zn360 1.969 . S
O366 C369 1.267 . S
O367 Zn360 1.965 . S
O367 C378 1.260 . S
O368 Zn361 1.969 . S
O368 C378 1.258 . S
C369 O366 1.267 . S
C369 O370 1.228 . S
O370 C369 1.228 . S
O371 Zn360 2.024 . S
O371 C362 1.058 . S
C372 O373 1.228 . S
C372 O374 1.267 . S
O373 C372 1.228 . S
O374 Zn361 1.969 . S
O374 C372 1.267 . S
O375 Zn361 1.965 . S
O375 C379 1.260 . S
O376 Zn360 1.969 . S
O376 C379 1.258 . S
O377 Zn361 2.024 . S
O377 C364 1.058 . S
C378 O367 1.260 . S
C378 O368 1.258 . S
C379 O375 1.260 . S
C379 O376 1.258 . S
Zn380 O386 1.969 . S
Zn380 O387 1.965 . S
Zn380 O391 2.024 . S
Zn380 O396 1.969 . S
Zn381 O388 1.969 . S
Zn381 O394 1.969 . S
Zn381 O395 1.965 . S
Zn381 O397 2.024 . S
C382 O383 1.229 . S
C382 O391 1.058 . S
O383 C382 1.229 . S
C384 O385 1.229 . S
C384 O397 1.058 . S
O385 C384 1.229 . S
O386 Zn380 1.969 . S
O386 C389 1.267 . S
O387 Zn380 1.965 . S
O387 C398 1.260 . S
O388 Zn381 1.969 . S
O388 C398 1.258 . S
C389 O386 1.267 . S
C389 O390 1.228 . S
O390 C389 1.228 . S
O391 Zn380 2.024 . S
O391 C382 1.058 . S
C392 O393 1.228 . S
C392 O394 1.267 . S
O393 C392 1.228 . S
O394 Zn381 1.969 . S
O394 C392 1.267 . S
O395 Zn381 1.965 . S
O395 C399 1.260 . S
O396 Zn380 1.969 . S
O396 C399 1.258 . S
O397 Zn381 2.024 . S
O397 C384 1.058 . S
C398 O387 1.260 . S
C398 O388 1.258 . S
C399 O395 1.260 . S
C399 O396 1.258 . S
Zn400 O406 1.969 . S
Zn400 O407 1.965 . S
Zn400 O411 2.024 . S
Zn400 O416 1.969 1_554 S
Zn401 O408 1.969 . S
Zn401 O414 1.969 . S
Zn401 O415 1.965 . S
Zn401 O417 2.024 . S
C402 O403 1.229 . S
C402 O411 1.058 . S
O403 C402 1.229 . S
C404 O405 1.229 . S
C404 O417 1.058 . S
O405 C404 1.229 . S
O406 Zn400 1.969 . S
O406 C409 1.267 . S
O407 Zn400 1.965 . S
O407 C418 1.260 . S
O408 Zn401 1.969 . S
O408 C418 1.258 1_556 S
C409 O406 1.267 . S
C409 O410 1.228 . S
O410 C409 1.228 . S
O411 Zn400 2.024 . S
O411 C402 1.058 . S
C412 O413 1.228 . S
C412 O414 1.267 . S
O413 C412 1.228 . S
O414 Zn401 1.969 . S
O414 C412 1.267 . S
O415 Zn401 1.965 . S
O415 C419 1.260 . S
O416 Zn400 1.969 1_556 S
O416 C419 1.258 . S
O417 Zn401 2.024 . S
O417 C404 1.058 . S
C418 O407 1.260 . S
C418 O408 1.258 1_554 S
C419 O415 1.260 . S
C419 O416 1.258 . S
Zn420 O426 1.969 . S
Zn420 O427 1.965 . S
Zn420 O431 2.024 . S
Zn420 O436 1.969 1_556 S
Zn421 O428 1.969 . S
Zn421 O434 1.969 . S
Zn421 O435 1.965 . S
Zn421 O437 2.024 . S
C422 O423 1.229 . S
C422 O431 1.058 . S
O423 C422 1.229 . S
C424 O425 1.229 . S
C424 O437 1.058 . S
O425 C424 1.229 . S
O426 Zn420 1.969 . S
O426 C429 1.267 . S
O427 Zn420 1.965 . S
O427 C438 1.260 . S
O428 Zn421 1.969 . S
O428 C438 1.258 1_554 S
C429 O426 1.267 . S
C429 O430 1.228 . S
O430 C429 1.228 . S
O431 Zn420 2.024 . S
O431 C422 1.058 . S
C432 O433 1.228 . S
C432 O434 1.267 . S
O433 C432 1.228 . S
O434 Zn421 1.969 . S
O434 C432 1.267 . S
O435 Zn421 1.965 . S
O435 C439 1.260 . S
O436 Zn420 1.969 1_554 S
O436 C439 1.258 . S
O437 Zn421 2.024 . S
O437 C424 1.058 . S
C438 O427 1.260 . S
C438 O428 1.258 1_556 S
C439 O435 1.260 . S
C439 O436 1.258 . S
Zn440 O446 1.969 . S
Zn440 O447 1.965 . S
Zn440 O451 2.024 . S
Zn440 O456 1.969 . S
Zn441 O448 1.969 . S
Zn441 O454 1.969 . S
Zn441 O455 1.965 . S
Zn441 O457 2.024 . S
C442 O443 1.229 . S
C442 O451 1.058 . S
O443 C442 1.229 . S
C444 O445 1.229 . S
C444 O457 1.058 . S
O445 C444 1.229 . S
O446 Zn440 1.969 . S
O446 C449 1.267 . S
O447 Zn440 1.965 . S
O447 C458 1.260 . S
O448 Zn441 1.969 . S
O448 C458 1.258 . S
C449 O446 1.267 . S
C449 O450 1.228 . S
O450 C449 1.228 . S
O451 Zn440 2.024 . S
O451 C442 1.058 . S
C452 O453 1.228 . S
C452 O454 1.267 . S
O453 C452 1.228 . S
O454 Zn441 1.969 . S
O454 C452 1.267 . S
O455 Zn441 1.965 . S
O455 C459 1.260 . S
O456 Zn440 1.969 . S
O456 C459 1.258 . S
O457 Zn441 2.024 . S
O457 C444 1.058 . S
C458 O447 1.260 . S
C458 O448 1.258 . S
C459 O455 1.260 . S
C459 O456 1.258 . S
Zn460 O466 1.969 . S
Zn460 O467 1.965 . S
Zn460 O471 2.024 . S
Zn460 O476 1.969 . S
Zn461 O468 1.969 . S
Zn461 O474 1.969 . S
Zn461 O475 1.965 . S
Zn461 O477 2.024 . S
C462 O463 1.229 . S
C462 O471 1.058 . S
O463 C462 1.229 . S
C464 O465 1.229 . S
C464 O477 1.058 . S
O465 C464 1.229 . S
O466 Zn460 1.969 . S
O466 C469 1.267 . S
O467 Zn460 1.965 . S
O467 C478 1.260 . S
O468 Zn461 1.969 . S
O468 C478 1.258 . S
C469 O466 1.267 . S
C469 O470 1.228 . S
O470 C469 1.228 . S
O471 Zn460 2.024 . S
O471 C462 1.058 . S
C472 O473 1.228 . S
C472 O474 1.267 . S
O473 C472 1.228 . S
O474 Zn461 1.969 . S
O474 C472 1.267 . S
O475 Zn461 1.965 . S
O475 C479 1.260 . S
O476 Zn460 1.969 . S
O476 C479 1.258 . S
O477 Zn461 2.024 . S
O477 C464 1.058 . S
C478 O467 1.260 . S
C478 O468 1.258 . S
C479 O475 1.260 . S
C479 O476 1.258 . S
H480 C498 0.951 . S
H481 C500 0.951 . S
H482 C502 0.950 . S
H483 C503 0.950 . S
H484 C505 0.950 . S
H485 C508 0.950 . S
H486 C509 0.950 . S
H487 C511 0.950 . S
H488 C512 0.950 . S
H489 C513 0.951 . S
H490 C515 0.951 . S
H491 C517 0.950 . S
H492 C518 0.950 . S
H493 C520 0.950 . S
H494 C523 0.950 . S
H495 C524 0.950 . S
H496 C526 0.950 . S
H497 C527 0.950 . S
C498 H480 0.951 . S
C498 C499 1.366 . S
C498 C500 1.388 . S
C499 C498 1.366 . S
C499 C503 1.385 . S
C500 H481 0.951 . S
C500 C498 1.388 . S
C500 C501 1.366 . S
C501 C500 1.366 . S
C501 C502 1.414 . S
C501 C504 1.499 . S
C502 H482 0.950 . S
C502 C501 1.414 . S
C502 C503 1.374 . S
C503 H483 0.950 . S
C503 C499 1.385 . S
C503 C502 1.374 . S
C504 C501 1.499 . S
C504 C505 1.373 . S
C504 C506 1.389 . S
C505 H484 0.950 . S
C505 C504 1.373 . S
C505 C521 1.377 . S
C506 C504 1.389 . S
C506 C507 1.524 . S
C506 C520 1.377 . S
C507 C506 1.524 . S
C507 C508 1.397 . S
C507 C512 1.363 . S
C508 H485 0.950 . S
C508 C507 1.397 . S
C508 C509 1.334 . S
C509 H486 0.950 . S
C509 C508 1.334 . S
C509 C510 1.287 . S
C510 C509 1.287 . S
C510 C511 1.524 . S
C510 H529 0.913 . S
C511 H487 0.950 . S
C511 C510 1.524 . S
C511 C512 1.415 . S
C512 H488 0.950 . S
C512 C507 1.363 . S
C512 C511 1.415 . S
C513 H489 0.951 . S
C513 C514 1.366 . S
C513 C515 1.388 . S
C514 C513 1.366 . S
C514 C518 1.385 . S
C515 H490 0.951 . S
C515 C513 1.388 . S
C515 C516 1.366 . S
C516 C515 1.366 . S
C516 C517 1.414 . S
C516 C519 1.499 . S
C517 H491 0.950 . S
C517 C516 1.414 . S
C517 C518 1.374 . S
C518 H492 0.950 . S
C518 C514 1.385 . S
C518 C517 1.374 . S
C519 C516 1.499 . S
C519 C520 1.373 . S
C519 C521 1.389 . S
C520 H493 0.950 . S
C520 C506 1.377 . S
C520 C519 1.373 . S
C521 C505 1.377 . S
C521 C519 1.389 . S
C521 C522 1.524 . S
C522 C521 1.524 . S
C522 C523 1.397 . S
C522 C527 1.363 . S
C523 H494 0.950 . S
C523 C522 1.397 . S
C523 C524 1.334 . S
C524 H495 0.950 . S
C524 C523 1.334 . S
C524 C525 1.287 . S
C525 C524 1.287 . S
C525 C526 1.524 . S
C525 H528 0.999 . S
C526 H496 0.950 . S
C526 C525 1.524 . S
C526 C527 1.415 . S
C527 H497 0.950 . S
C527 C522 1.363 . S
C527 C526 1.415 . S
H528 C525 0.999 . S
H529 C510 0.913 . S
H530 C548 0.951 . S
H531 C550 0.951 . S
H532 C552 0.950 . S
H533 C553 0.950 . S
H534 C555 0.950 . S
H535 C558 0.950 . S
H536 C559 0.950 . S
H537 C561 0.950 . S
H538 C562 0.950 . S
H539 C563 0.951 . S
H540 C565 0.951 . S
H541 C567 0.950 . S
H542 C568 0.950 . S
H543 C570 0.950 . S
H544 C573 0.950 . S
H545 C574 0.950 . S
H546 C576 0.950 . S
H547 C577 0.950 . S
C548 H530 0.951 . S
C548 C549 1.366 . S
C548 C550 1.388 . S
C549 C548 1.366 . S
C549 C553 1.385 . S
C550 H531 0.951 . S
C550 C548 1.388 . S
C550 C551 1.366 . S
C551 C550 1.366 . S
C551 C552 1.414 . S
C551 C554 1.499 . S
C552 H532 0.950 . S
C552 C551 1.414 . S
C552 C553 1.374 . S
C553 H533 0.950 . S
C553 C549 1.385 . S
C553 C552 1.374 . S
C554 C551 1.499 . S
C554 C555 1.373 . S
C554 C556 1.389 . S
C555 H534 0.950 . S
C555 C554 1.373 . S
C555 C571 1.377 . S
C556 C554 1.389 . S
C556 C557 1.524 . S
C556 C570 1.377 . S
C557 C556 1.524 . S
C557 C558 1.397 . S
C557 C562 1.363 . S
C558 H535 0.950 . S
C558 C557 1.397 . S
C558 C559 1.334 . S
C559 H536 0.950 . S
C559 C558 1.334 . S
C559 C560 1.287 . S
C560 C559 1.287 . S
C560 C561 1.524 . S
C560 H579 0.913 . S
C561 H537 0.950 . S
C561 C560 1.524 . S
C561 C562 1.415 . S
C562 H538 0.950 . S
C562 C557 1.363 . S
C562 C561 1.415 . S
C563 H539 0.951 . S
C563 C564 1.366 . S
C563 C565 1.388 . S
C564 C563 1.366 . S
C564 C568 1.385 . S
C565 H540 0.951 . S
C565 C563 1.388 . S
C565 C566 1.366 . S
C566 C565 1.366 . S
C566 C567 1.414 . S
C566 C569 1.499 . S
C567 H541 0.950 . S
C567 C566 1.414 . S
C567 C568 1.374 . S
C568 H542 0.950 . S
C568 C564 1.385 . S
C568 C567 1.374 . S
C569 C566 1.499 . S
C569 C570 1.373 . S
C569 C571 1.389 . S
C570 H543 0.950 . S
C570 C556 1.377 . S
C570 C569 1.373 . S
C571 C555 1.377 . S
C571 C569 1.389 . S
C571 C572 1.524 . S
C572 C571 1.524 . S
C572 C573 1.397 . S
C572 C577 1.363 . S
C573 H544 0.950 . S
C573 C572 1.397 . S
C573 C574 1.334 . S
C574 H545 0.950 . S
C574 C573 1.334 . S
C574 C575 1.287 . S
C575 C574 1.287 . S
C575 C576 1.524 . S
C575 H578 0.999 . S
C576 H546 0.950 . S
C576 C575 1.524 . S
C576 C577 1.415 . S
C577 H547 0.950 . S
C577 C572 1.363 . S
C577 C576 1.415 . S
H578 C575 0.999 . S
H579 C560 0.913 . S
H580 C598 0.951 . S
H581 C600 0.951 . S
H582 C602 0.950 . S
H583 C603 0.950 . S
H584 C605 0.950 . S
H585 C608 0.950 . S
H586 C609 0.950 . S
H587 C611 0.950 . S
H588 C612 0.950 . S
H589 C613 0.951 . S
H590 C615 0.951 . S
H591 C617 0.950 . S
H592 C618 0.950 . S
H593 C620 0.950 . S
H594 C623 0.950 . S
H595 C624 0.950 . S
H596 C626 0.950 . S
H597 C627 0.950 . S
C598 H580 0.951 . S
C598 C599 1.366 . S
C598 C600 1.388 . S
C599 C598 1.366 . S
C599 C603 1.385 . S
C600 H581 0.951 . S
C600 C598 1.388 . S
C600 C601 1.366 . S
C601 C600 1.366 . S
C601 C602 1.414 . S
C601 C604 1.499 . S
C602 H582 0.950 . S
C602 C601 1.414 . S
C602 C603 1.374 . S
C603 H583 0.950 . S
C603 C599 1.385 . S
C603 C602 1.374 . S
C604 C601 1.499 . S
C604 C605 1.373 . S
C604 C606 1.389 . S
C605 H584 0.950 . S
C605 C604 1.373 . S
C605 C621 1.377 . S
C606 C604 1.389 . S
C606 C607 1.524 . S
C606 C620 1.377 . S
C607 C606 1.524 . S
C607 C608 1.397 . S
C607 C612 1.363 . S
C608 H585 0.950 . S
C608 C607 1.397 . S
C608 C609 1.334 . S
C609 H586 0.950 . S
C609 C608 1.334 . S
C609 C610 1.287 . S
C610 C609 1.287 . S
C610 C611 1.524 . S
C610 H629 0.913 . S
C611 H587 0.950 . S
C611 C610 1.524 . S
C611 C612 1.415 . S
C612 H588 0.950 . S
C612 C607 1.363 . S
C612 C611 1.415 . S
C613 H589 0.951 . S
C613 C614 1.366 . S
C613 C615 1.388 . S
C614 C613 1.366 . S
C614 C618 1.385 . S
C615 H590 0.951 . S
C615 C613 1.388 . S
C615 C616 1.366 . S
C616 C615 1.366 . S
C616 C617 1.414 . S
C616 C619 1.499 . S
C617 H591 0.950 . S
C617 C616 1.414 . S
C617 C618 1.374 . S
C618 H592 0.950 . S
C618 C614 1.385 . S
C618 C617 1.374 . S
C619 C616 1.499 . S
C619 C620 1.373 . S
C619 C621 1.389 . S
C620 H593 0.950 . S
C620 C606 1.377 . S
C620 C619 1.373 . S
C621 C605 1.377 . S
C621 C619 1.389 . S
C621 C622 1.524 . S
C622 C621 1.524 . S
C622 C623 1.397 . S
C622 C627 1.363 . S
C623 H594 0.950 . S
C623 C622 1.397 . S
C623 C624 1.334 . S
C624 H595 0.950 . S
C624 C623 1.334 . S
C624 C625 1.287 . S
C625 C624 1.287 . S
C625 C626 1.524 . S
C625 H628 0.999 . S
C626 H596 0.950 . S
C626 C625 1.524 . S
C626 C627 1.415 . S
C627 H597 0.950 . S
C627 C622 1.363 . S
C627 C626 1.415 . S
H628 C625 0.999 . S
H629 C610 0.913 . S
H630 C648 0.951 . S
H631 C650 0.951 . S
H632 C652 0.950 . S
H633 C653 0.950 . S
H634 C655 0.950 . S
H635 C658 0.950 . S
H636 C659 0.950 . S
H637 C661 0.950 . S
H638 C662 0.950 . S
H639 C663 0.951 . S
H640 C665 0.951 . S
H641 C667 0.950 . S
H642 C668 0.950 . S
H643 C670 0.950 . S
H644 C673 0.950 . S
H645 C674 0.950 . S
H646 C676 0.950 . S
H647 C677 0.950 . S
C648 H630 0.951 . S
C648 C649 1.366 . S
C648 C650 1.388 . S
C649 C648 1.366 . S
C649 C653 1.385 . S
C650 H631 0.951 . S
C650 C648 1.388 . S
C650 C651 1.366 . S
C651 C650 1.366 . S
C651 C652 1.414 . S
C651 C654 1.499 . S
C652 H632 0.950 . S
C652 C651 1.414 . S
C652 C653 1.374 . S
C653 H633 0.950 . S
C653 C649 1.385 . S
C653 C652 1.374 . S
C654 C651 1.499 . S
C654 C655 1.373 . S
C654 C656 1.389 . S
C655 H634 0.950 . S
C655 C654 1.373 . S
C655 C671 1.377 . S
C656 C654 1.389 . S
C656 C657 1.524 . S
C656 C670 1.377 . S
C657 C656 1.524 . S
C657 C658 1.397 . S
C657 C662 1.363 . S
C658 H635 0.950 . S
C658 C657 1.397 . S
C658 C659 1.334 . S
C659 H636 0.950 . S
C659 C658 1.334 . S
C659 C660 1.287 . S
C660 C659 1.287 . S
C660 C661 1.524 . S
C660 H679 0.913 . S
C661 H637 0.950 . S
C661 C660 1.524 . S
C661 C662 1.415 . S
C662 H638 0.950 . S
C662 C657 1.363 . S
C662 C661 1.415 . S
C663 H639 0.951 . S
C663 C664 1.366 . S
C663 C665 1.388 . S
C664 C663 1.366 . S
C664 C668 1.385 . S
C665 H640 0.951 . S
C665 C663 1.388 . S
C665 C666 1.366 . S
C666 C665 1.366 . S
C666 C667 1.414 . S
C666 C669 1.499 . S
C667 H641 0.950 . S
C667 C666 1.414 . S
C667 C668 1.374 . S
C668 H642 0.950 . S
C668 C664 1.385 . S
C668 C667 1.374 . S
C669 C666 1.499 . S
C669 C670 1.373 . S
C669 C671 1.389 . S
C670 H643 0.950 . S
C670 C656 1.377 . S
C670 C669 1.373 . S
C671 C655 1.377 . S
C671 C669 1.389 . S
C671 C672 1.524 . S
C672 C671 1.524 . S
C672 C673 1.397 . S
C672 C677 1.363 . S
C673 H644 0.950 . S
C673 C672 1.397 . S
C673 C674 1.334 . S
C674 H645 0.950 . S
C674 C673 1.334 . S
C674 C675 1.287 . S
C675 C674 1.287 . S
C675 C676 1.524 . S
C675 H678 0.999 . S
C676 H646 0.950 . S
C676 C675 1.524 . S
C676 C677 1.415 . S
C677 H647 0.950 . S
C677 C672 1.363 . S
C677 C676 1.415 . S
H678 C675 0.999 . S
H679 C660 0.913 . S
H680 C698 0.951 . S
H681 C700 0.951 . S
H682 C702 0.950 . S
H683 C703 0.950 . S
H684 C705 0.950 . S
H685 C708 0.950 . S
H686 C709 0.950 . S
H687 C711 0.950 . S
H688 C712 0.950 . S
H689 C713 0.951 . S
H690 C715 0.951 . S
H691 C717 0.950 . S
H692 C718 0.950 . S
H693 C720 0.950 . S
H694 C723 0.950 . S
H695 C724 0.950 . S
H696 C726 0.950 . S
H697 C727 0.950 . S
C698 H680 0.951 . S
C698 C699 1.366 . S
C698 C700 1.388 . S
C699 C698 1.366 . S
C699 C703 1.385 . S
C700 H681 0.951 . S
C700 C698 1.388 . S
C700 C701 1.366 . S
C701 C700 1.366 . S
C701 C702 1.414 . S
C701 C704 1.499 . S
C702 H682 0.950 . S
C702 C701 1.414 . S
C702 C703 1.374 . S
C703 H683 0.950 . S
C703 C699 1.385 . S
C703 C702 1.374 . S
C704 C701 1.499 . S
C704 C705 1.373 . S
C704 C706 1.389 . S
C705 H684 0.950 . S
C705 C704 1.373 . S
C705 C721 1.377 . S
C706 C704 1.389 . S
C706 C707 1.524 . S
C706 C720 1.377 . S
C707 C706 1.524 . S
C707 C708 1.397 . S
C707 C712 1.363 . S
C708 H685 0.950 . S
C708 C707 1.397 . S
C708 C709 1.334 . S
C709 H686 0.950 . S
C709 C708 1.334 . S
C709 C710 1.287 . S
C710 C709 1.287 . S
C710 C711 1.524 . S
C710 H729 0.913 . S
C711 H687 0.950 . S
C711 C710 1.524 . S
C711 C712 1.415 . S
C712 H688 0.950 . S
C712 C707 1.363 . S
C712 C711 1.415 . S
C713 H689 0.951 . S
C713 C714 1.366 . S
C713 C715 1.388 . S
C714 C713 1.366 . S
C714 C718 1.385 . S
C715 H690 0.951 . S
C715 C713 1.388 . S
C715 C716 1.366 . S
C716 C715 1.366 . S
C716 C717 1.414 . S
C716 C719 1.499 . S
C717 H691 0.950 . S
C717 C716 1.414 . S
C717 C718 1.374 . S
C718 H692 0.950 . S
C718 C714 1.385 . S
C718 C717 1.374 . S
C719 C716 1.499 . S
C719 C720 1.373 . S
C719 C721 1.389 . S
C720 H693 0.950 . S
C720 C706 1.377 . S
C720 C719 1.373 . S
C721 C705 1.377 . S
C721 C719 1.389 . S
C721 C722 1.524 . S
C722 C721 1.524 . S
C722 C723 1.397 . S
C722 C727 1.363 . S
C723 H694 0.950 . S
C723 C722 1.397 . S
C723 C724 1.334 . S
C724 H695 0.950 . S
C724 C723 1.334 . S
C724 C725 1.287 . S
C725 C724 1.287 . S
C725 C726 1.524 . S
C725 H728 0.999 . S
C726 H696 0.950 . S
C726 C725 1.524 . S
C726 C727 1.415 . S
C727 H697 0.950 . S
C727 C722 1.363 . S
C727 C726 1.415 . S
H728 C725 0.999 . S
H729 C710 0.913 . S
H730 C748 0.951 . S
H731 C750 0.951 . S
H732 C752 0.950 . S
H733 C753 0.950 . S
H734 C755 0.950 . S
H735 C758 0.950 . S
H736 C759 0.950 . S
H737 C761 0.950 . S
H738 C762 0.950 . S
H739 C763 0.951 . S
H740 C765 0.951 . S
H741 C767 0.950 . S
H742 C768 0.950 . S
H743 C770 0.950 . S
H744 C773 0.950 . S
H745 C774 0.950 . S
H746 C776 0.950 . S
H747 C777 0.950 . S
C748 H730 0.951 . S
C748 C749 1.366 . S
C748 C750 1.388 . S
C749 C748 1.366 . S
C749 C753 1.385 . S
C750 H731 0.951 . S
C750 C748 1.388 . S
C750 C751 1.366 . S
C751 C750 1.366 . S
C751 C752 1.414 . S
C751 C754 1.499 . S
C752 H732 0.950 . S
C752 C751 1.414 . S
C752 C753 1.374 . S
C753 H733 0.950 . S
C753 C749 1.385 . S
C753 C752 1.374 . S
C754 C751 1.499 . S
C754 C755 1.373 . S
C754 C756 1.389 . S
C755 H734 0.950 . S
C755 C754 1.373 . S
C755 C771 1.377 . S
C756 C754 1.389 . S
C756 C757 1.524 . S
C756 C770 1.377 . S
C757 C756 1.524 . S
C757 C758 1.397 . S
C757 C762 1.363 . S
C758 H735 0.950 . S
C758 C757 1.397 . S
C758 C759 1.334 . S
C759 H736 0.950 . S
C759 C758 1.334 . S
C759 C760 1.287 . S
C760 C759 1.287 . S
C760 C761 1.524 . S
C760 H779 0.913 . S
C761 H737 0.950 . S
C761 C760 1.524 . S
C761 C762 1.415 . S
C762 H738 0.950 . S
C762 C757 1.363 . S
C762 C761 1.415 . S
C763 H739 0.951 . S
C763 C764 1.366 . S
C763 C765 1.388 . S
C764 C763 1.366 . S
C764 C768 1.385 . S
C765 H740 0.951 . S
C765 C763 1.388 . S
C765 C766 1.366 . S
C766 C765 1.366 . S
C766 C767 1.414 . S
C766 C769 1.499 . S
C767 H741 0.950 . S
C767 C766 1.414 . S
C767 C768 1.374 . S
C768 H742 0.950 . S
C768 C764 1.385 . S
C768 C767 1.374 . S
C769 C766 1.499 . S
C769 C770 1.373 . S
C769 C771 1.389 . S
C770 H743 0.950 . S
C770 C756 1.377 . S
C770 C769 1.373 . S
C771 C755 1.377 . S
C771 C769 1.389 . S
C771 C772 1.524 . S
C772 C771 1.524 . S
C772 C773 1.397 . S
C772 C777 1.363 . S
C773 H744 0.950 . S
C773 C772 1.397 . S
C773 C774 1.334 . S
C774 H745 0.950 . S
C774 C773 1.334 . S
C774 C775 1.287 . S
C775 C774 1.287 . S
C775 C776 1.524 . S
C775 H778 0.999 . S
C776 H746 0.950 . S
C776 C775 1.524 . S
C776 C777 1.415 . S
C777 H747 0.950 . S
C777 C772 1.363 . S
C777 C776 1.415 . S
H778 C775 0.999 . S
H779 C760 0.913 . S
H780 C798 0.951 . S
H781 C800 0.951 . S
H782 C802 0.950 . S
H783 C803 0.950 . S
H784 C805 0.950 . S
H785 C808 0.950 . S
H786 C809 0.950 . S
H787 C811 0.950 . S
H788 C812 0.950 . S
H789 C813 0.951 . S
H790 C815 0.951 . S
H791 C817 0.950 . S
H792 C818 0.950 . S
H793 C820 0.950 . S
H794 C823 0.950 . S
H795 C824 0.950 . S
H796 C826 0.950 . S
H797 C827 0.950 . S
C798 H780 0.951 . S
C798 C799 1.366 . S
C798 C800 1.388 . S
C799 C798 1.366 . S
C799 C803 1.385 . S
C800 H781 0.951 . S
C800 C798 1.388 . S
C800 C801 1.366 . S
C801 C800 1.366 . S
C801 C802 1.414 . S
C801 C804 1.499 . S
C802 H782 0.950 . S
C802 C801 1.414 . S
C802 C803 1.374 . S
C803 H783 0.950 . S
C803 C799 1.385 . S
C803 C802 1.374 . S
C804 C801 1.499 . S
C804 C805 1.373 . S
C804 C806 1.389 . S
C805 H784 0.950 . S
C805 C804 1.373 . S
C805 C821 1.377 . S
C806 C804 1.389 . S
C806 C807 1.524 . S
C806 C820 1.377 . S
C807 C806 1.524 . S
C807 C808 1.397 . S
C807 C812 1.363 . S
C808 H785 0.950 . S
C808 C807 1.397 . S
C808 C809 1.334 . S
C809 H786 0.950 . S
C809 C808 1.334 . S
C809 C810 1.287 . S
C810 C809 1.287 . S
C810 C811 1.524 . S
C810 H829 0.913 . S
C811 H787 0.950 . S
C811 C810 1.524 . S
C811 C812 1.415 . S
C812 H788 0.950 . S
C812 C807 1.363 . S
C812 C811 1.415 . S
C813 H789 0.951 . S
C813 C814 1.366 . S
C813 C815 1.388 . S
C814 C813 1.366 . S
C814 C818 1.385 . S
C815 H790 0.951 . S
C815 C813 1.388 . S
C815 C816 1.366 . S
C816 C815 1.366 . S
C816 C817 1.414 . S
C816 C819 1.499 . S
C817 H791 0.950 . S
C817 C816 1.414 . S
C817 C818 1.374 . S
C818 H792 0.950 . S
C818 C814 1.385 . S
C818 C817 1.374 . S
C819 C816 1.499 . S
C819 C820 1.373 . S
C819 C821 1.389 . S
C820 H793 0.950 . S
C820 C806 1.377 . S
C820 C819 1.373 . S
C821 C805 1.377 . S
C821 C819 1.389 . S
C821 C822 1.524 . S
C822 C821 1.524 . S
C822 C823 1.397 . S
C822 C827 1.363 . S
C823 H794 0.950 . S
C823 C822 1.397 . S
C823 C824 1.334 . S
C824 H795 0.950 . S
C824 C823 1.334 . S
C824 C825 1.287 . S
C825 C824 1.287 . S
C825 C826 1.524 . S
C825 H828 0.999 . S
C826 H796 0.950 . S
C826 C825 1.524 . S
C826 C827 1.415 . S
C827 H797 0.950 . S
C827 C822 1.363 . S
C827 C826 1.415 . S
H828 C825 0.999 . S
H829 C810 0.913 . S
H830 C848 0.951 . S
H831 C850 0.951 . S
H832 C852 0.950 . S
H833 C853 0.950 . S
H834 C855 0.950 . S
H835 C858 0.950 . S
H836 C859 0.950 . S
H837 C861 0.950 . S
H838 C862 0.950 . S
H839 C863 0.951 . S
H840 C865 0.951 . S
H841 C867 0.950 . S
H842 C868 0.950 . S
H843 C870 0.950 . S
H844 C873 0.950 . S
H845 C874 0.950 . S
H846 C876 0.950 . S
H847 C877 0.950 . S
C848 H830 0.951 . S
C848 C849 1.366 . S
C848 C850 1.388 . S
C849 C848 1.366 . S
C849 C853 1.385 . S
C850 H831 0.951 . S
C850 C848 1.388 . S
C850 C851 1.366 . S
C851 C850 1.366 . S
C851 C852 1.414 . S
C851 C854 1.499 . S
C852 H832 0.950 . S
C852 C851 1.414 . S
C852 C853 1.374 . S
C853 H833 0.950 . S
C853 C849 1.385 . S
C853 C852 1.374 . S
C854 C851 1.499 . S
C854 C855 1.373 . S
C854 C856 1.389 . S
C855 H834 0.950 . S
C855 C854 1.373 . S
C855 C871 1.377 . S
C856 C854 1.389 . S
C856 C857 1.524 . S
C856 C870 1.377 . S
C857 C856 1.524 . S
C857 C858 1.397 . S
C857 C862 1.363 . S
C858 H835 0.950 . S
C858 C857 1.397 . S
C858 C859 1.334 . S
C859 H836 0.950 . S
C859 C858 1.334 . S
C859 C860 1.287 . S
C860 C859 1.287 . S
C860 C861 1.524 . S
C860 H879 0.913 . S
C861 H837 0.950 . S
C861 C860 1.524 . S
C861 C862 1.415 . S
C862 H838 0.950 . S
C862 C857 1.363 . S
C862 C861 1.415 . S
C863 H839 0.951 . S
C863 C864 1.366 . S
C863 C865 1.388 . S
C864 C863 1.366 . S
C864 C868 1.385 . S
C865 H840 0.951 . S
C865 C863 1.388 . S
C865 C866 1.366 . S
C866 C865 1.366 . S
C866 C867 1.414 . S
C866 C869 1.499 . S
C867 H841 0.950 . S
C867 C866 1.414 . S
C867 C868 1.374 . S
C868 H842 0.950 . S
C868 C864 1.385 . S
C868 C867 1.374 . S
C869 C866 1.499 . S
C869 C870 1.373 . S
C869 C871 1.389 . S
C870 H843 0.950 . S
C870 C856 1.377 . S
C870 C869 1.373 . S
C871 C855 1.377 . S
C871 C869 1.389 . S
C871 C872 1.524 . S
C872 C871 1.524 . S
C872 C873 1.397 . S
C872 C877 1.363 . S
C873 H844 0.950 . S
C873 C872 1.397 . S
C873 C874 1.334 . S
C874 H845 0.950 . S
C874 C873 1.334 . S
C874 C875 1.287 . S
C875 C874 1.287 . S
C875 C876 1.524 . S
C875 H878 0.999 . S
C876 H846 0.950 . S
C876 C875 1.524 . S
C876 C877 1.415 . S
C877 H847 0.950 . S
C877 C872 1.363 . S
C877 C876 1.415 . S
H878 C875 0.999 . S
H879 C860 0.913 . S
H880 C898 0.951 . S
H881 C900 0.951 . S
H882 C902 0.950 . S
H883 C903 0.950 . S
H884 C905 0.950 . S
H885 C908 0.950 . S
H886 C909 0.950 . S
H887 C911 0.950 . S
H888 C912 0.950 . S
H889 C913 0.951 . S
H890 C915 0.951 . S
H891 C917 0.950 . S
H892 C918 0.950 . S
H893 C920 0.950 . S
H894 C923 0.950 . S
H895 C924 0.950 . S
H896 C926 0.950 . S
H897 C927 0.950 . S
C898 H880 0.951 . S
C898 C899 1.366 . S
C898 C900 1.388 . S
C899 C898 1.366 . S
C899 C903 1.385 . S
C900 H881 0.951 . S
C900 C898 1.388 . S
C900 C901 1.366 . S
C901 C900 1.366 . S
C901 C902 1.414 . S
C901 C904 1.499 . S
C902 H882 0.950 . S
C902 C901 1.414 . S
C902 C903 1.374 . S
C903 H883 0.950 . S
C903 C899 1.385 . S
C903 C902 1.374 . S
C904 C901 1.499 . S
C904 C905 1.373 . S
C904 C906 1.389 . S
C905 H884 0.950 . S
C905 C904 1.373 . S
C905 C921 1.377 . S
C906 C904 1.389 . S
C906 C907 1.524 . S
C906 C920 1.377 . S
C907 C906 1.524 . S
C907 C908 1.397 . S
C907 C912 1.363 . S
C908 H885 0.950 . S
C908 C907 1.397 . S
C908 C909 1.334 . S
C909 H886 0.950 . S
C909 C908 1.334 . S
C909 C910 1.287 . S
C910 C909 1.287 . S
C910 C911 1.524 . S
C910 H929 0.913 . S
C911 H887 0.950 . S
C911 C910 1.524 . S
C911 C912 1.415 . S
C912 H888 0.950 . S
C912 C907 1.363 . S
C912 C911 1.415 . S
C913 H889 0.951 . S
C913 C914 1.366 . S
C913 C915 1.388 . S
C914 C913 1.366 . S
C914 C918 1.385 . S
C915 H890 0.951 . S
C915 C913 1.388 . S
C915 C916 1.366 . S
C916 C915 1.366 . S
C916 C917 1.414 . S
C916 C919 1.499 . S
C917 H891 0.950 . S
C917 C916 1.414 . S
C917 C918 1.374 . S
C918 H892 0.950 . S
C918 C914 1.385 . S
C918 C917 1.374 . S
C919 C916 1.499 . S
C919 C920 1.373 . S
C919 C921 1.389 . S
C920 H893 0.950 . S
C920 C906 1.377 . S
C920 C919 1.373 . S
C921 C905 1.377 . S
C921 C919 1.389 . S
C921 C922 1.524 . S
C922 C921 1.524 . S
C922 C923 1.397 . S
C922 C927 1.363 . S
C923 H894 0.950 . S
C923 C922 1.397 . S
C923 C924 1.334 . S
C924 H895 0.950 . S
C924 C923 1.334 . S
C924 C925 1.287 . S
C925 C924 1.287 . S
C925 C926 1.524 . S
C925 H928 0.999 . S
C926 H896 0.950 . S
C926 C925 1.524 . S
C926 C927 1.415 . S
C927 H897 0.950 . S
C927 C922 1.363 . S
C927 C926 1.415 . S
H928 C925 0.999 . S
H929 C910 0.913 . S
H930 C948 0.951 . S
H931 C950 0.951 . S
H932 C952 0.950 . S
H933 C953 0.950 . S
H934 C955 0.950 . S
H935 C958 0.950 . S
H936 C959 0.950 . S
H937 C961 0.950 . S
H938 C962 0.950 . S
H939 C963 0.951 . S
H940 C965 0.951 . S
H941 C967 0.950 . S
H942 C968 0.950 . S
H943 C970 0.950 . S
H944 C973 0.950 . S
H945 C974 0.950 . S
H946 C976 0.950 . S
H947 C977 0.950 . S
C948 H930 0.951 . S
C948 C949 1.366 . S
C948 C950 1.388 . S
C949 C948 1.366 . S
C949 C953 1.385 . S
C950 H931 0.951 . S
C950 C948 1.388 . S
C950 C951 1.366 . S
C951 C950 1.366 . S
C951 C952 1.414 . S
C951 C954 1.499 . S
C952 H932 0.950 . S
C952 C951 1.414 . S
C952 C953 1.374 . S
C953 H933 0.950 . S
C953 C949 1.385 . S
C953 C952 1.374 . S
C954 C951 1.499 . S
C954 C955 1.373 . S
C954 C956 1.389 . S
C955 H934 0.950 . S
C955 C954 1.373 . S
C955 C971 1.377 . S
C956 C954 1.389 . S
C956 C957 1.524 . S
C956 C970 1.377 . S
C957 C956 1.524 . S
C957 C958 1.397 . S
C957 C962 1.363 . S
C958 H935 0.950 . S
C958 C957 1.397 . S
C958 C959 1.334 . S
C959 H936 0.950 . S
C959 C958 1.334 . S
C959 C960 1.287 . S
C960 C959 1.287 . S
C960 C961 1.524 . S
C960 H979 0.913 . S
C961 H937 0.950 . S
C961 C960 1.524 . S
C961 C962 1.415 . S
C962 H938 0.950 . S
C962 C957 1.363 . S
C962 C961 1.415 . S
C963 H939 0.951 . S
C963 C964 1.366 . S
C963 C965 1.388 . S
C964 C963 1.366 . S
C964 C968 1.385 . S
C965 H940 0.951 . S
C965 C963 1.388 . S
C965 C966 1.366 . S
C966 C965 1.366 . S
C966 C967 1.414 . S
C966 C969 1.499 . S
C967 H941 0.950 . S
C967 C966 1.414 . S
C967 C968 1.374 . S
C968 H942 0.950 . S
C968 C964 1.385 . S
C968 C967 1.374 . S
C969 C966 1.499 . S
C969 C970 1.373 . S
C969 C971 1.389 . S
C970 H943 0.950 . S
C970 C956 1.377 . S
C970 C969 1.373 . S
C971 C955 1.377 . S
C971 C969 1.389 . S
C971 C972 1.524 . S
C972 C971 1.524 . S
C972 C973 1.397 . S
C972 C977 1.363 . S
C973 H944 0.950 . S
C973 C972 1.397 . S
C973 C974 1.334 . S
C974 H945 0.950 . S
C974 C973 1.334 . S
C974 C975 1.287 . S
C975 C974 1.287 . S
C975 C976 1.524 . S
C975 H978 0.999 . S
C976 H946 0.950 . S
C976 C975 1.524 . S
C976 C977 1.415 . S
C977 H947 0.950 . S
C977 C972 1.363 . S
C977 C976 1.415 . S
H978 C975 0.999 . S
H979 C960 0.913 . S
H980 C998 0.951 . S
H981 C1000 0.951 . S
H982 C1002 0.950 . S
H983 C1003 0.950 . S
H984 C1005 0.950 . S
H985 C1008 0.950 . S
H986 C1009 0.950 . S
H987 C1011 0.950 . S
H988 C1012 0.950 . S
H989 C1013 0.951 . S
H990 C1015 0.951 . S
H991 C1017 0.950 . S
H992 C1018 0.950 . S
H993 C1020 0.950 . S
H994 C1023 0.950 . S
H995 C1024 0.950 . S
H996 C1026 0.950 . S
H997 C1027 0.950 . S
C998 H980 0.951 . S
C998 C999 1.366 . S
C998 C1000 1.388 . S
C999 C998 1.366 . S
C999 C1003 1.385 . S
C1000 H981 0.951 . S
C1000 C998 1.388 . S
C1000 C1001 1.366 . S
C1001 C1000 1.366 . S
C1001 C1002 1.414 . S
C1001 C1004 1.499 . S
C1002 H982 0.950 . S
C1002 C1001 1.414 . S
C1002 C1003 1.374 . S
C1003 H983 0.950 . S
C1003 C999 1.385 . S
C1003 C1002 1.374 . S
C1004 C1001 1.499 . S
C1004 C1005 1.373 . S
C1004 C1006 1.389 . S
C1005 H984 0.950 . S
C1005 C1004 1.373 . S
C1005 C1021 1.377 . S
C1006 C1004 1.389 . S
C1006 C1007 1.524 . S
C1006 C1020 1.377 . S
C1007 C1006 1.524 . S
C1007 C1008 1.397 . S
C1007 C1012 1.363 . S
C1008 H985 0.950 . S
C1008 C1007 1.397 . S
C1008 C1009 1.334 . S
C1009 H986 0.950 . S
C1009 C1008 1.334 . S
C1009 C1010 1.287 . S
C1010 C1009 1.287 . S
C1010 C1011 1.524 . S
C1010 H1029 0.913 . S
C1011 H987 0.950 . S
C1011 C1010 1.524 . S
C1011 C1012 1.415 . S
C1012 H988 0.950 . S
C1012 C1007 1.363 . S
C1012 C1011 1.415 . S
C1013 H989 0.951 . S
C1013 C1014 1.366 . S
C1013 C1015 1.388 . S
C1014 C1013 1.366 . S
C1014 C1018 1.385 . S
C1015 H990 0.951 . S
C1015 C1013 1.388 . S
C1015 C1016 1.366 . S
C1016 C1015 1.366 . S
C1016 C1017 1.414 . S
C1016 C1019 1.499 . S
C1017 H991 0.950 . S
C1017 C1016 1.414 . S
C1017 C1018 1.374 . S
C1018 H992 0.950 . S
C1018 C1014 1.385 . S
C1018 C1017 1.374 . S
C1019 C1016 1.499 . S
C1019 C1020 1.373 . S
C1019 C1021 1.389 . S
C1020 H993 0.950 . S
C1020 C1006 1.377 . S
C1020 C1019 1.373 . S
C1021 C1005 1.377 . S
C1021 C1019 1.389 . S
C1021 C1022 1.524 . S
C1022 C1021 1.524 . S
C1022 C1023 1.397 . S
C1022 C1027 1.363 . S
C1023 H994 0.950 . S
C1023 C1022 1.397 . S
C1023 C1024 1.334 . S
C1024 H995 0.950 . S
C1024 C1023 1.334 . S
C1024 C1025 1.287 . S
C1025 C1024 1.287 . S
C1025 C1026 1.524 . S
C1025 H1028 0.999 . S
C1026 H996 0.950 . S
C1026 C1025 1.524 . S
C1026 C1027 1.415 . S
C1027 H997 0.950 . S
C1027 C1022 1.363 . S
C1027 C1026 1.415 . S
H1028 C1025 0.999 . S
H1029 C1010 0.913 . S
H1030 C1048 0.951 . S
H1031 C1050 0.951 . S
H1032 C1052 0.950 . S
H1033 C1053 0.950 . S
H1034 C1055 0.950 . S
H1035 C1058 0.950 . S
H1036 C1059 0.950 . S
H1037 C1061 0.950 . S
H1038 C1062 0.950 . S
H1039 C1063 0.951 . S
H1040 C1065 0.951 . S
H1041 C1067 0.950 . S
H1042 C1068 0.950 . S
H1043 C1070 0.950 . S
H1044 C1073 0.950 . S
H1045 C1074 0.950 . S
H1046 C1076 0.950 . S
H1047 C1077 0.950 . S
C1048 H1030 0.951 . S
C1048 C1049 1.366 . S
C1048 C1050 1.388 . S
C1049 C1048 1.366 . S
C1049 C1053 1.385 . S
C1050 H1031 0.951 . S
C1050 C1048 1.388 . S
C1050 C1051 1.366 . S
C1051 C1050 1.366 . S
C1051 C1052 1.414 . S
C1051 C1054 1.499 . S
C1052 H1032 0.950 . S
C1052 C1051 1.414 . S
C1052 C1053 1.374 . S
C1053 H1033 0.950 . S
C1053 C1049 1.385 . S
C1053 C1052 1.374 . S
C1054 C1051 1.499 . S
C1054 C1055 1.373 . S
C1054 C1056 1.389 . S
C1055 H1034 0.950 . S
C1055 C1054 1.373 . S
C1055 C1071 1.377 . S
C1056 C1054 1.389 . S
C1056 C1057 1.524 . S
C1056 C1070 1.377 . S
C1057 C1056 1.524 . S
C1057 C1058 1.397 . S
C1057 C1062 1.363 . S
C1058 H1035 0.950 . S
C1058 C1057 1.397 . S
C1058 C1059 1.334 . S
C1059 H1036 0.950 . S
C1059 C1058 1.334 . S
C1059 C1060 1.287 . S
C1060 C1059 1.287 . S
C1060 C1061 1.524 . S
C1060 H1079 0.913 . S
C1061 H1037 0.950 . S
C1061 C1060 1.524 . S
C1061 C1062 1.415 . S
C1062 H1038 0.950 . S
C1062 C1057 1.363 . S
C1062 C1061 1.415 . S
C1063 H1039 0.951 . S
C1063 C1064 1.366 . S
C1063 C1065 1.388 . S
C1064 C1063 1.366 . S
C1064 C1068 1.385 . S
C1065 H1040 0.951 . S
C1065 C1063 1.388 . S
C1065 C1066 1.366 . S
C1066 C1065 1.366 . S
C1066 C1067 1.414 . S
C1066 C1069 1.499 . S
C1067 H1041 0.950 . S
C1067 C1066 1.414 . S
C1067 C1068 1.374 . S
C1068 H1042 0.950 . S
C1068 C1064 1.385 . S
C1068 C1067 1.374 . S
C1069 C1066 1.499 . S
C1069 C1070 1.373 . S
C1069 C1071 1.389 . S
C1070 H1043 0.950 . S
C1070 C1056 1.377 . S
C1070 C1069 1.373 . S
C1071 C1055 1.377 . S
C1071 C1069 1.389 . S
C1071 C1072 1.524 . S
C1072 C1071 1.524 . S
C1072 C1073 1.397 . S
C1072 C1077 1.363 . S
C1073 H1044 0.950 . S
C1073 C1072 1.397 . S
C1073 C1074 1.334 . S
C1074 H1045 0.950 . S
C1074 C1073 1.334 . S
C1074 C1075 1.287 . S
C1075 C1074 1.287 . S
C1075 C1076 1.524 . S
C1075 H1078 0.999 . S
C1076 H1046 0.950 . S
C1076 C1075 1.524 . S
C1076 C1077 1.415 . S
C1077 H1047 0.950 . S
C1077 C1072 1.363 . S
C1077 C1076 1.415 . S
H1078 C1075 0.999 . S
H1079 C1060 0.913 . S
H1080 C1098 0.951 . S
H1081 C1100 0.951 . S
H1082 C1102 0.950 . S
H1083 C1103 0.950 . S
H1084 C1105 0.950 . S
H1085 C1108 0.950 . S
H1086 C1109 0.950 . S
H1087 C1111 0.950 . S
H1088 C1112 0.950 . S
H1089 C1113 0.951 . S
H1090 C1115 0.951 . S
H1091 C1117 0.950 . S
H1092 C1118 0.950 . S
H1093 C1120 0.950 . S
H1094 C1123 0.950 . S
H1095 C1124 0.950 . S
H1096 C1126 0.950 . S
H1097 C1127 0.950 . S
C1098 H1080 0.951 . S
C1098 C1099 1.366 . S
C1098 C1100 1.388 . S
C1099 C1098 1.366 . S
C1099 C1103 1.385 . S
C1100 H1081 0.951 . S
C1100 C1098 1.388 . S
C1100 C1101 1.366 . S
C1101 C1100 1.366 . S
C1101 C1102 1.414 . S
C1101 C1104 1.499 . S
C1102 H1082 0.950 . S
C1102 C1101 1.414 . S
C1102 C1103 1.374 . S
C1103 H1083 0.950 . S
C1103 C1099 1.385 . S
C1103 C1102 1.374 . S
C1104 C1101 1.499 . S
C1104 C1105 1.373 . S
C1104 C1106 1.389 . S
C1105 H1084 0.950 . S
C1105 C1104 1.373 . S
C1105 C1121 1.377 . S
C1106 C1104 1.389 . S
C1106 C1107 1.524 . S
C1106 C1120 1.377 . S
C1107 C1106 1.524 . S
C1107 C1108 1.397 . S
C1107 C1112 1.363 . S
C1108 H1085 0.950 . S
C1108 C1107 1.397 . S
C1108 C1109 1.334 . S
C1109 H1086 0.950 . S
C1109 C1108 1.334 . S
C1109 C1110 1.287 . S
C1110 C1109 1.287 . S
C1110 C1111 1.524 . S
C1110 H1129 0.913 . S
C1111 H1087 0.950 . S
C1111 C1110 1.524 . S
C1111 C1112 1.415 . S
C1112 H1088 0.950 . S
C1112 C1107 1.363 . S
C1112 C1111 1.415 . S
C1113 H1089 0.951 . S
C1113 C1114 1.366 . S
C1113 C1115 1.388 . S
C1114 C1113 1.366 . S
C1114 C1118 1.385 . S
C1115 H1090 0.951 . S
C1115 C1113 1.388 . S
C1115 C1116 1.366 . S
C1116 C1115 1.366 . S
C1116 C1117 1.414 . S
C1116 C1119 1.499 . S
C1117 H1091 0.950 . S
C1117 C1116 1.414 . S
C1117 C1118 1.374 . S
C1118 H1092 0.950 . S
C1118 C1114 1.385 . S
C1118 C1117 1.374 . S
C1119 C1116 1.499 . S
C1119 C1120 1.373 . S
C1119 C1121 1.389 . S
C1120 H1093 0.950 . S
C1120 C1106 1.377 . S
C1120 C1119 1.373 . S
C1121 C1105 1.377 . S
C1121 C1119 1.389 . S
C1121 C1122 1.524 . S
C1122 C1121 1.524 . S
C1122 C1123 1.397 . S
C1122 C1127 1.363 . S
C1123 H1094 0.950 . S
C1123 C1122 1.397 . S
C1123 C1124 1.334 . S
C1124 H1095 0.950 . S
C1124 C1123 1.334 . S
C1124 C1125 1.287 . S
C1125 C1124 1.287 . S
C1125 C1126 1.524 . S
C1125 H1128 0.999 . S
C1126 H1096 0.950 . S
C1126 C1125 1.524 . S
C1126 C1127 1.415 . S
C1127 H1097 0.950 . S
C1127 C1122 1.363 . S
C1127 C1126 1.415 . S
H1128 C1125 0.999 . S
H1129 C1110 0.913 . S
H1130 C1148 0.951 . S
H1131 C1150 0.951 . S
H1132 C1152 0.950 . S
H1133 C1153 0.950 . S
H1134 C1155 0.950 . S
H1135 C1158 0.950 . S
H1136 C1159 0.950 . S
H1137 C1161 0.950 . S
H1138 C1162 0.950 . S
H1139 C1163 0.951 . S
H1140 C1165 0.951 . S
H1141 C1167 0.950 . S
H1142 C1168 0.950 . S
H1143 C1170 0.950 . S
H1144 C1173 0.950 . S
H1145 C1174 0.950 . S
H1146 C1176 0.950 . S
H1147 C1177 0.950 . S
C1148 H1130 0.951 . S
C1148 C1149 1.366 . S
C1148 C1150 1.388 . S
C1149 C1148 1.366 . S
C1149 C1153 1.385 . S
C1150 H1131 0.951 . S
C1150 C1148 1.388 . S
C1150 C1151 1.366 . S
C1151 C1150 1.366 . S
C1151 C1152 1.414 . S
C1151 C1154 1.499 . S
C1152 H1132 0.950 . S
C1152 C1151 1.414 . S
C1152 C1153 1.374 . S
C1153 H1133 0.950 . S
C1153 C1149 1.385 . S
C1153 C1152 1.374 . S
C1154 C1151 1.499 . S
C1154 C1155 1.373 . S
C1154 C1156 1.389 . S
C1155 H1134 0.950 . S
C1155 C1154 1.373 . S
C1155 C1171 1.377 . S
C1156 C1154 1.389 . S
C1156 C1157 1.524 . S
C1156 C1170 1.377 . S
C1157 C1156 1.524 . S
C1157 C1158 1.397 . S
C1157 C1162 1.363 . S
C1158 H1135 0.950 . S
C1158 C1157 1.397 . S
C1158 C1159 1.334 . S
C1159 H1136 0.950 . S
C1159 C1158 1.334 . S
C1159 C1160 1.287 . S
C1160 C1159 1.287 . S
C1160 C1161 1.524 . S
C1160 H1179 0.913 . S
C1161 H1137 0.950 . S
C1161 C1160 1.524 . S
C1161 C1162 1.415 . S
C1162 H1138 0.950 . S
C1162 C1157 1.363 . S
C1162 C1161 1.415 . S
C1163 H1139 0.951 . S
C1163 C1164 1.366 . S
C1163 C1165 1.388 . S
C1164 C1163 1.366 . S
C1164 C1168 1.385 . S
C1165 H1140 0.951 . S
C1165 C1163 1.388 . S
C1165 C1166 1.366 . S
C1166 C1165 1.366 . S
C1166 C1167 1.414 . S
C1166 C1169 1.499 . S
C1167 H1141 0.950 . S
C1167 C1166 1.414 . S
C1167 C1168 1.374 . S
C1168 H1142 0.950 . S
C1168 C1164 1.385 . S
C1168 C1167 1.374 . S
C1169 C1166 1.499 . S
C1169 C1170 1.373 . S
C1169 C1171 1.389 . S
C1170 H1143 0.950 . S
C1170 C1156 1.377 . S
C1170 C1169 1.373 . S
C1171 C1155 1.377 . S
C1171 C1169 1.389 . S
C1171 C1172 1.524 . S
C1172 C1171 1.524 . S
C1172 C1173 1.397 . S
C1172 C1177 1.363 . S
C1173 H1144 0.950 . S
C1173 C1172 1.397 . S
C1173 C1174 1.334 . S
C1174 H1145 0.950 . S
C1174 C1173 1.334 . S
C1174 C1175 1.287 . S
C1175 C1174 1.287 . S
C1175 C1176 1.524 . S
C1175 H1178 0.999 . S
C1176 H1146 0.950 . S
C1176 C1175 1.524 . S
C1176 C1177 1.415 . S
C1177 H1147 0.950 . S
C1177 C1172 1.363 . S
C1177 C1176 1.415 . S
H1178 C1175 0.999 . S
H1179 C1160 0.913 . S
H1180 C1198 0.951 . S
H1181 C1200 0.951 . S
H1182 C1202 0.950 . S
H1183 C1203 0.950 . S
H1184 C1205 0.950 . S
H1185 C1208 0.950 . S
H1186 C1209 0.950 . S
H1187 C1211 0.950 . S
H1188 C1212 0.950 . S
H1189 C1213 0.951 . S
H1190 C1215 0.951 . S
H1191 C1217 0.950 . S
H1192 C1218 0.950 . S
H1193 C1220 0.950 . S
H1194 C1223 0.950 . S
H1195 C1224 0.950 . S
H1196 C1226 0.950 . S
H1197 C1227 0.950 . S
C1198 H1180 0.951 . S
C1198 C1199 1.366 . S
C1198 C1200 1.388 . S
C1199 C1198 1.366 . S
C1199 C1203 1.385 . S
C1200 H1181 0.951 . S
C1200 C1198 1.388 . S
C1200 C1201 1.366 . S
C1201 C1200 1.366 . S
C1201 C1202 1.414 . S
C1201 C1204 1.499 . S
C1202 H1182 0.950 . S
C1202 C1201 1.414 . S
C1202 C1203 1.374 . S
C1203 H1183 0.950 . S
C1203 C1199 1.385 . S
C1203 C1202 1.374 . S
C1204 C1201 1.499 . S
C1204 C1205 1.373 . S
C1204 C1206 1.389 . S
C1205 H1184 0.950 . S
C1205 C1204 1.373 . S
C1205 C1221 1.377 . S
C1206 C1204 1.389 . S
C1206 C1207 1.524 . S
C1206 C1220 1.377 . S
C1207 C1206 1.524 . S
C1207 C1208 1.397 . S
C1207 C1212 1.363 . S
C1208 H1185 0.950 . S
C1208 C1207 1.397 . S
C1208 C1209 1.334 . S
C1209 H1186 0.950 . S
C1209 C1208 1.334 . S
C1209 C1210 1.287 . S
C1210 C1209 1.287 . S
C1210 C1211 1.524 . S
C1210 H1229 0.913 . S
C1211 H1187 0.950 . S
C1211 C1210 1.524 . S
C1211 C1212 1.415 . S
C1212 H1188 0.950 . S
C1212 C1207 1.363 . S
C1212 C1211 1.415 . S
C1213 H1189 0.951 . S
C1213 C1214 1.366 . S
C1213 C1215 1.388 . S
C1214 C1213 1.366 . S
C1214 C1218 1.385 . S
C1215 H1190 0.951 . S
C1215 C1213 1.388 . S
C1215 C1216 1.366 . S
C1216 C1215 1.366 . S
C1216 C1217 1.414 . S
C1216 C1219 1.499 . S
C1217 H1191 0.950 . S
C1217 C1216 1.414 . S
C1217 C1218 1.374 . S
C1218 H1192 0.950 . S
C1218 C1214 1.385 . S
C1218 C1217 1.374 . S
C1219 C1216 1.499 . S
C1219 C1220 1.373 . S
C1219 C1221 1.389 . S
C1220 H1193 0.950 . S
C1220 C1206 1.377 . S
C1220 C1219 1.373 . S
C1221 C1205 1.377 . S
C1221 C1219 1.389 . S
C1221 C1222 1.524 . S
C1222 C1221 1.524 . S
C1222 C1223 1.397 . S
C1222 C1227 1.363 . S
C1223 H1194 0.950 . S
C1223 C1222 1.397 . S
C1223 C1224 1.334 . S
C1224 H1195 0.950 . S
C1224 C1223 1.334 . S
C1224 C1225 1.287 . S
C1225 C1224 1.287 . S
C1225 C1226 1.524 . S
C1225 H1228 0.999 . S
C1226 H1196 0.950 . S
C1226 C1225 1.524 . S
C1226 C1227 1.415 . S
C1227 H1197 0.950 . S
C1227 C1222 1.363 . S
C1227 C1226 1.415 . S
H1228 C1225 0.999 . S
H1229 C1210 0.913 . S
H1230 C1248 0.951 . S
H1231 C1250 0.951 . S
H1232 C1252 0.950 . S
H1233 C1253 0.950 . S
H1234 C1255 0.950 . S
H1235 C1258 0.950 . S
H1236 C1259 0.950 . S
H1237 C1261 0.950 . S
H1238 C1262 0.950 . S
H1239 C1263 0.951 . S
H1240 C1265 0.951 . S
H1241 C1267 0.950 . S
H1242 C1268 0.950 . S
H1243 C1270 0.950 . S
H1244 C1273 0.950 . S
H1245 C1274 0.950 . S
H1246 C1276 0.950 . S
H1247 C1277 0.950 . S
C1248 H1230 0.951 . S
C1248 C1249 1.366 . S
C1248 C1250 1.388 . S
C1249 C1248 1.366 . S
C1249 C1253 1.385 . S
C1250 H1231 0.951 . S
C1250 C1248 1.388 . S
C1250 C1251 1.366 . S
C1251 C1250 1.366 . S
C1251 C1252 1.414 . S
C1251 C1254 1.499 . S
C1252 H1232 0.950 . S
C1252 C1251 1.414 . S
C1252 C1253 1.374 . S
C1253 H1233 0.950 . S
C1253 C1249 1.385 . S
C1253 C1252 1.374 . S
C1254 C1251 1.499 . S
C1254 C1255 1.373 . S
C1254 C1256 1.389 . S
C1255 H1234 0.950 . S
C1255 C1254 1.373 . S
C1255 C1271 1.377 . S
C1256 C1254 1.389 . S
C1256 C1257 1.524 . S
C1256 C1270 1.377 . S
C1257 C1256 1.524 . S
C1257 C1258 1.397 . S
C1257 C1262 1.363 . S
C1258 H1235 0.950 . S
C1258 C1257 1.397 . S
C1258 C1259 1.334 . S
C1259 H1236 0.950 . S
C1259 C1258 1.334 . S
C1259 C1260 1.287 . S
C1260 C1259 1.287 . S
C1260 C1261 1.524 . S
C1260 H1279 0.913 . S
C1261 H1237 0.950 . S
C1261 C1260 1.524 . S
C1261 C1262 1.415 . S
C1262 H1238 0.950 . S
C1262 C1257 1.363 . S
C1262 C1261 1.415 . S
C1263 H1239 0.951 . S
C1263 C1264 1.366 . S
C1263 C1265 1.388 . S
C1264 C1263 1.366 . S
C1264 C1268 1.385 . S
C1265 H1240 0.951 . S
C1265 C1263 1.388 . S
C1265 C1266 1.366 . S
C1266 C1265 1.366 . S
C1266 C1267 1.414 . S
C1266 C1269 1.499 . S
C1267 H1241 0.950 . S
C1267 C1266 1.414 . S
C1267 C1268 1.374 . S
C1268 H1242 0.950 . S
C1268 C1264 1.385 . S
C1268 C1267 1.374 . S
C1269 C1266 1.499 . S
C1269 C1270 1.373 . S
C1269 C1271 1.389 . S
C1270 H1243 0.950 . S
C1270 C1256 1.377 . S
C1270 C1269 1.373 . S
C1271 C1255 1.377 . S
C1271 C1269 1.389 . S
C1271 C1272 1.524 . S
C1272 C1271 1.524 . S
C1272 C1273 1.397 . S
C1272 C1277 1.363 . S
C1273 H1244 0.950 . S
C1273 C1272 1.397 . S
C1273 C1274 1.334 . S
C1274 H1245 0.950 . S
C1274 C1273 1.334 . S
C1274 C1275 1.287 . S
C1275 C1274 1.287 . S
C1275 C1276 1.524 . S
C1275 H1278 0.999 . S
C1276 H1246 0.950 . S
C1276 C1275 1.524 . S
C1276 C1277 1.415 . S
C1277 H1247 0.950 . S
C1277 C1272 1.363 . S
C1277 C1276 1.415 . S
H1278 C1275 0.999 . S
H1279 C1260 0.913 . S
H1280 C1298 0.951 . S
H1281 C1300 0.951 . S
H1282 C1302 0.950 . S
H1283 C1303 0.950 . S
H1284 C1305 0.950 . S
H1285 C1308 0.950 . S
H1286 C1309 0.950 . S
H1287 C1311 0.950 . S
H1288 C1312 0.950 . S
H1289 C1313 0.951 . S
H1290 C1315 0.951 . S
H1291 C1317 0.950 . S
H1292 C1318 0.950 . S
H1293 C1320 0.950 . S
H1294 C1323 0.950 . S
H1295 C1324 0.950 . S
H1296 C1326 0.950 . S
H1297 C1327 0.950 . S
C1298 H1280 0.951 . S
C1298 C1299 1.366 . S
C1298 C1300 1.388 . S
C1299 C1298 1.366 . S
C1299 C1303 1.385 . S
C1300 H1281 0.951 . S
C1300 C1298 1.388 . S
C1300 C1301 1.366 . S
C1301 C1300 1.366 . S
C1301 C1302 1.414 . S
C1301 C1304 1.499 . S
C1302 H1282 0.950 . S
C1302 C1301 1.414 . S
C1302 C1303 1.374 . S
C1303 H1283 0.950 . S
C1303 C1299 1.385 . S
C1303 C1302 1.374 . S
C1304 C1301 1.499 . S
C1304 C1305 1.373 . S
C1304 C1306 1.389 . S
C1305 H1284 0.950 . S
C1305 C1304 1.373 . S
C1305 C1321 1.377 . S
C1306 C1304 1.389 . S
C1306 C1307 1.524 . S
C1306 C1320 1.377 . S
C1307 C1306 1.524 . S
C1307 C1308 1.397 . S
C1307 C1312 1.363 . S
C1308 H1285 0.950 . S
C1308 C1307 1.397 . S
C1308 C1309 1.334 . S
C1309 H1286 0.950 . S
C1309 C1308 1.334 . S
C1309 C1310 1.287 . S
C1310 C1309 1.287 . S
C1310 C1311 1.524 . S
C1310 H1329 0.913 . S
C1311 H1287 0.950 . S
C1311 C1310 1.524 . S
C1311 C1312 1.415 . S
C1312 H1288 0.950 . S
C1312 C1307 1.363 . S
C1312 C1311 1.415 . S
C1313 H1289 0.951 . S
C1313 C1314 1.366 . S
C1313 C1315 1.388 . S
C1314 C1313 1.366 . S
C1314 C1318 1.385 . S
C1315 H1290 0.951 . S
C1315 C1313 1.388 . S
C1315 C1316 1.366 . S
C1316 C1315 1.366 . S
C1316 C1317 1.414 . S
C1316 C1319 1.499 . S
C1317 H1291 0.950 . S
C1317 C1316 1.414 . S
C1317 C1318 1.374 . S
C1318 H1292 0.950 . S
C1318 C1314 1.385 . S
C1318 C1317 1.374 . S
C1319 C1316 1.499 . S
C1319 C1320 1.373 . S
C1319 C1321 1.389 . S
C1320 H1293 0.950 . S
C1320 C1306 1.377 . S
C1320 C1319 1.373 . S
C1321 C1305 1.377 . S
C1321 C1319 1.389 . S
C1321 C1322 1.524 . S
C1322 C1321 1.524 . S
C1322 C1323 1.397 . S
C1322 C1327 1.363 . S
C1323 H1294 0.950 . S
C1323 C1322 1.397 . S
C1323 C1324 1.334 . S
C1324 H1295 0.950 . S
C1324 C1323 1.334 . S
C1324 C1325 1.287 . S
C1325 C1324 1.287 . S
C1325 C1326 1.524 . S
C1325 H1328 0.999 . S
C1326 H1296 0.950 . S
C1326 C1325 1.524 . S
C1326 C1327 1.415 . S
C1327 H1297 0.950 . S
C1327 C1322 1.363 . S
C1327 C1326 1.415 . S
H1328 C1325 0.999 . S
H1329 C1310 0.913 . S
H1330 C1348 0.951 . S
H1331 C1350 0.951 . S
H1332 C1352 0.950 . S
H1333 C1353 0.950 . S
H1334 C1355 0.950 . S
H1335 C1358 0.950 . S
H1336 C1359 0.950 . S
H1337 C1361 0.950 . S
H1338 C1362 0.950 . S
H1339 C1363 0.951 . S
H1340 C1365 0.951 . S
H1341 C1367 0.950 . S
H1342 C1368 0.950 . S
H1343 C1370 0.950 . S
H1344 C1373 0.950 . S
H1345 C1374 0.950 . S
H1346 C1376 0.950 . S
H1347 C1377 0.950 . S
C1348 H1330 0.951 . S
C1348 C1349 1.366 . S
C1348 C1350 1.388 . S
C1349 C1348 1.366 . S
C1349 C1353 1.385 . S
C1350 H1331 0.951 . S
C1350 C1348 1.388 . S
C1350 C1351 1.366 . S
C1351 C1350 1.366 . S
C1351 C1352 1.414 . S
C1351 C1354 1.499 . S
C1352 H1332 0.950 . S
C1352 C1351 1.414 . S
C1352 C1353 1.374 . S
C1353 H1333 0.950 . S
C1353 C1349 1.385 . S
C1353 C1352 1.374 . S
C1354 C1351 1.499 . S
C1354 C1355 1.373 . S
C1354 C1356 1.389 . S
C1355 H1334 0.950 . S
C1355 C1354 1.373 . S
C1355 C1371 1.377 . S
C1356 C1354 1.389 . S
C1356 C1357 1.524 . S
C1356 C1370 1.377 . S
C1357 C1356 1.524 . S
C1357 C1358 1.397 . S
C1357 C1362 1.363 . S
C1358 H1335 0.950 . S
C1358 C1357 1.397 . S
C1358 C1359 1.334 . S
C1359 H1336 0.950 . S
C1359 C1358 1.334 . S
C1359 C1360 1.287 . S
C1360 C1359 1.287 . S
C1360 C1361 1.524 . S
C1360 H1379 0.913 . S
C1361 H1337 0.950 . S
C1361 C1360 1.524 . S
C1361 C1362 1.415 . S
C1362 H1338 0.950 . S
C1362 C1357 1.363 . S
C1362 C1361 1.415 . S
C1363 H1339 0.951 . S
C1363 C1364 1.366 . S
C1363 C1365 1.388 . S
C1364 C1363 1.366 . S
C1364 C1368 1.385 . S
C1365 H1340 0.951 . S
C1365 C1363 1.388 . S
C1365 C1366 1.366 . S
C1366 C1365 1.366 . S
C1366 C1367 1.414 . S
C1366 C1369 1.499 . S
C1367 H1341 0.950 . S
C1367 C1366 1.414 . S
C1367 C1368 1.374 . S
C1368 H1342 0.950 . S
C1368 C1364 1.385 . S
C1368 C1367 1.374 . S
C1369 C1366 1.499 . S
C1369 C1370 1.373 . S
C1369 C1371 1.389 . S
C1370 H1343 0.950 . S
C1370 C1356 1.377 . S
C1370 C1369 1.373 . S
C1371 C1355 1.377 . S
C1371 C1369 1.389 . S
C1371 C1372 1.524 . S
C1372 C1371 1.524 . S
C1372 C1373 1.397 . S
C1372 C1377 1.363 . S
C1373 H1344 0.950 . S
C1373 C1372 1.397 . S
C1373 C1374 1.334 . S
C1374 H1345 0.950 . S
C1374 C1373 1.334 . S
C1374 C1375 1.287 . S
C1375 C1374 1.287 . S
C1375 C1376 1.524 . S
C1375 H1378 0.999 . S
C1376 H1346 0.950 . S
C1376 C1375 1.524 . S
C1376 C1377 1.415 . S
C1377 H1347 0.950 . S
C1377 C1372 1.363 . S
C1377 C1376 1.415 . S
H1378 C1375 0.999 . S
H1379 C1360 0.913 . S
H1380 C1398 0.951 . S
H1381 C1400 0.951 . S
H1382 C1402 0.950 . S
H1383 C1403 0.950 . S
H1384 C1405 0.950 . S
H1385 C1408 0.950 . S
H1386 C1409 0.950 . S
H1387 C1411 0.950 . S
H1388 C1412 0.950 . S
H1389 C1413 0.951 . S
H1390 C1415 0.951 . S
H1391 C1417 0.950 . S
H1392 C1418 0.950 . S
H1393 C1420 0.950 . S
H1394 C1423 0.950 . S
H1395 C1424 0.950 . S
H1396 C1426 0.950 . S
H1397 C1427 0.950 . S
C1398 H1380 0.951 . S
C1398 C1399 1.366 . S
C1398 C1400 1.388 . S
C1399 C1398 1.366 . S
C1399 C1403 1.385 . S
C1400 H1381 0.951 . S
C1400 C1398 1.388 . S
C1400 C1401 1.366 . S
C1401 C1400 1.366 . S
C1401 C1402 1.414 . S
C1401 C1404 1.499 . S
C1402 H1382 0.950 . S
C1402 C1401 1.414 . S
C1402 C1403 1.374 . S
C1403 H1383 0.950 . S
C1403 C1399 1.385 . S
C1403 C1402 1.374 . S
C1404 C1401 1.499 . S
C1404 C1405 1.373 . S
C1404 C1406 1.389 . S
C1405 H1384 0.950 . S
C1405 C1404 1.373 . S
C1405 C1421 1.377 . S
C1406 C1404 1.389 . S
C1406 C1407 1.524 . S
C1406 C1420 1.377 . S
C1407 C1406 1.524 . S
C1407 C1408 1.397 . S
C1407 C1412 1.363 . S
C1408 H1385 0.950 . S
C1408 C1407 1.397 . S
C1408 C1409 1.334 . S
C1409 H1386 0.950 . S
C1409 C1408 1.334 . S
C1409 C1410 1.287 . S
C1410 C1409 1.287 . S
C1410 C1411 1.524 . S
C1410 H1429 0.913 . S
C1411 H1387 0.950 . S
C1411 C1410 1.524 . S
C1411 C1412 1.415 . S
C1412 H1388 0.950 . S
C1412 C1407 1.363 . S
C1412 C1411 1.415 . S
C1413 H1389 0.951 . S
C1413 C1414 1.366 . S
C1413 C1415 1.388 . S
C1414 C1413 1.366 . S
C1414 C1418 1.385 . S
C1415 H1390 0.951 . S
C1415 C1413 1.388 . S
C1415 C1416 1.366 . S
C1416 C1415 1.366 . S
C1416 C1417 1.414 . S
C1416 C1419 1.499 . S
C1417 H1391 0.950 . S
C1417 C1416 1.414 . S
C1417 C1418 1.374 . S
C1418 H1392 0.950 . S
C1418 C1414 1.385 . S
C1418 C1417 1.374 . S
C1419 C1416 1.499 . S
C1419 C1420 1.373 . S
C1419 C1421 1.389 . S
C1420 H1393 0.950 . S
C1420 C1406 1.377 . S
C1420 C1419 1.373 . S
C1421 C1405 1.377 . S
C1421 C1419 1.389 . S
C1421 C1422 1.524 . S
C1422 C1421 1.524 . S
C1422 C1423 1.397 . S
C1422 C1427 1.363 . S
C1423 H1394 0.950 . S
C1423 C1422 1.397 . S
C1423 C1424 1.334 . S
C1424 H1395 0.950 . S
C1424 C1423 1.334 . S
C1424 C1425 1.287 . S
C1425 C1424 1.287 . S
C1425 C1426 1.524 . S
C1425 H1428 0.999 . S
C1426 H1396 0.950 . S
C1426 C1425 1.524 . S
C1426 C1427 1.415 . S
C1427 H1397 0.950 . S
C1427 C1422 1.363 . S
C1427 C1426 1.415 . S
H1428 C1425 0.999 . S
H1429 C1410 0.913 . S
H1430 C1448 0.951 . S
H1431 C1450 0.951 . S
H1432 C1452 0.950 . S
H1433 C1453 0.950 . S
H1434 C1455 0.950 . S
H1435 C1458 0.950 . S
H1436 C1459 0.950 . S
H1437 C1461 0.950 . S
H1438 C1462 0.950 . S
H1439 C1463 0.951 . S
H1440 C1465 0.951 . S
H1441 C1467 0.950 . S
H1442 C1468 0.950 . S
H1443 C1470 0.950 . S
H1444 C1473 0.950 . S
H1445 C1474 0.950 . S
H1446 C1476 0.950 . S
H1447 C1477 0.950 . S
C1448 H1430 0.951 . S
C1448 C1449 1.366 . S
C1448 C1450 1.388 . S
C1449 C1448 1.366 . S
C1449 C1453 1.385 . S
C1450 H1431 0.951 . S
C1450 C1448 1.388 . S
C1450 C1451 1.366 . S
C1451 C1450 1.366 . S
C1451 C1452 1.414 . S
C1451 C1454 1.499 . S
C1452 H1432 0.950 . S
C1452 C1451 1.414 . S
C1452 C1453 1.374 . S
C1453 H1433 0.950 . S
C1453 C1449 1.385 . S
C1453 C1452 1.374 . S
C1454 C1451 1.499 . S
C1454 C1455 1.373 . S
C1454 C1456 1.389 . S
C1455 H1434 0.950 . S
C1455 C1454 1.373 . S
C1455 C1471 1.377 . S
C1456 C1454 1.389 . S
C1456 C1457 1.524 . S
C1456 C1470 1.377 . S
C1457 C1456 1.524 . S
C1457 C1458 1.397 . S
C1457 C1462 1.363 . S
C1458 H1435 0.950 . S
C1458 C1457 1.397 . S
C1458 C1459 1.334 . S
C1459 H1436 0.950 . S
C1459 C1458 1.334 . S
C1459 C1460 1.287 . S
C1460 C1459 1.287 . S
C1460 C1461 1.524 . S
C1460 H1479 0.913 . S
C1461 H1437 0.950 . S
C1461 C1460 1.524 . S
C1461 C1462 1.415 . S
C1462 H1438 0.950 . S
C1462 C1457 1.363 . S
C1462 C1461 1.415 . S
C1463 H1439 0.951 . S
C1463 C1464 1.366 . S
C1463 C1465 1.388 . S
C1464 C1463 1.366 . S
C1464 C1468 1.385 . S
C1465 H1440 0.951 . S
C1465 C1463 1.388 . S
C1465 C1466 1.366 . S
C1466 C1465 1.366 . S
C1466 C1467 1.414 . S
C1466 C1469 1.499 . S
C1467 H1441 0.950 . S
C1467 C1466 1.414 . S
C1467 C1468 1.374 . S
C1468 H1442 0.950 . S
C1468 C1464 1.385 . S
C1468 C1467 1.374 . S
C1469 C1466 1.499 . S
C1469 C1470 1.373 . S
C1469 C1471 1.389 . S
C1470 H1443 0.950 . S
C1470 C1456 1.377 . S
C1470 C1469 1.373 . S
C1471 C1455 1.377 . S
C1471 C1469 1.389 . S
C1471 C1472 1.524 . S
C1472 C1471 1.524 . S
C1472 C1473 1.397 . S
C1472 C1477 1.363 . S
C1473 H1444 0.950 . S
C1473 C1472 1.397 . S
C1473 C1474 1.334 . S
C1474 H1445 0.950 . S
C1474 C1473 1.334 . S
C1474 C1475 1.287 . S
C1475 C1474 1.287 . S
C1475 C1476 1.524 . S
C1475 H1478 0.999 . S
C1476 H1446 0.950 . S
C1476 C1475 1.524 . S
C1476 C1477 1.415 . S
C1477 H1447 0.950 . S
C1477 C1472 1.363 . S
C1477 C1476 1.415 . S
H1478 C1475 0.999 . S
H1479 C1460 0.913 . S
H1480 C1498 0.951 . S
H1481 C1500 0.951 . S
H1482 C1502 0.950 . S
H1483 C1503 0.950 . S
H1484 C1505 0.950 . S
H1485 C1508 0.950 . S
H1486 C1509 0.950 . S
H1487 C1511 0.950 . S
H1488 C1512 0.950 . S
H1489 C1513 0.951 . S
H1490 C1515 0.951 . S
H1491 C1517 0.950 . S
H1492 C1518 0.950 . S
H1493 C1520 0.950 . S
H1494 C1523 0.950 . S
H1495 C1524 0.950 . S
H1496 C1526 0.950 . S
H1497 C1527 0.950 . S
C1498 H1480 0.951 . S
C1498 C1499 1.366 . S
C1498 C1500 1.388 . S
C1499 C1498 1.366 . S
C1499 C1503 1.385 . S
C1500 H1481 0.951 . S
C1500 C1498 1.388 . S
C1500 C1501 1.366 . S
C1501 C1500 1.366 . S
C1501 C1502 1.414 . S
C1501 C1504 1.499 . S
C1502 H1482 0.950 . S
C1502 C1501 1.414 . S
C1502 C1503 1.374 . S
C1503 H1483 0.950 . S
C1503 C1499 1.385 . S
C1503 C1502 1.374 . S
C1504 C1501 1.499 . S
C1504 C1505 1.373 . S
C1504 C1506 1.389 . S
C1505 H1484 0.950 . S
C1505 C1504 1.373 . S
C1505 C1521 1.377 . S
C1506 C1504 1.389 . S
C1506 C1507 1.524 . S
C1506 C1520 1.377 . S
C1507 C1506 1.524 . S
C1507 C1508 1.397 . S
C1507 C1512 1.363 . S
C1508 H1485 0.950 . S
C1508 C1507 1.397 . S
C1508 C1509 1.334 . S
C1509 H1486 0.950 . S
C1509 C1508 1.334 . S
C1509 C1510 1.287 . S
C1510 C1509 1.287 . S
C1510 C1511 1.524 . S
C1510 H1529 0.913 . S
C1511 H1487 0.950 . S
C1511 C1510 1.524 . S
C1511 C1512 1.415 . S
C1512 H1488 0.950 . S
C1512 C1507 1.363 . S
C1512 C1511 1.415 . S
C1513 H1489 0.951 . S
C1513 C1514 1.366 . S
C1513 C1515 1.388 . S
C1514 C1513 1.366 . S
C1514 C1518 1.385 . S
C1515 H1490 0.951 . S
C1515 C1513 1.388 . S
C1515 C1516 1.366 . S
C1516 C1515 1.366 . S
C1516 C1517 1.414 . S
C1516 C1519 1.499 . S
C1517 H1491 0.950 . S
C1517 C1516 1.414 . S
C1517 C1518 1.374 . S
C1518 H1492 0.950 . S
C1518 C1514 1.385 . S
C1518 C1517 1.374 . S
C1519 C1516 1.499 . S
C1519 C1520 1.373 . S
C1519 C1521 1.389 . S
C1520 H1493 0.950 . S
C1520 C1506 1.377 . S
C1520 C1519 1.373 . S
C1521 C1505 1.377 . S
C1521 C1519 1.389 . S
C1521 C1522 1.524 . S
C1522 C1521 1.524 . S
C1522 C1523 1.397 . S
C1522 C1527 1.363 . S
C1523 H1494 0.950 . S
C1523 C1522 1.397 . S
C1523 C1524 1.334 . S
C1524 H1495 0.950 . S
C1524 C1523 1.334 . S
C1524 C1525 1.287 . S
C1525 C1524 1.287 . S
C1525 C1526 1.524 . S
C1525 H1528 0.999 . S
C1526 H1496 0.950 . S
C1526 C1525 1.524 . S
C1526 C1527 1.415 . S
C1527 H1497 0.950 . S
C1527 C1522 1.363 . S
C1527 C1526 1.415 . S
H1528 C1525 0.999 . S
H1529 C1510 0.913 . S
H1530 C1548 0.951 . S
H1531 C1550 0.951 . S
H1532 C1552 0.950 . S
H1533 C1553 0.950 . S
H1534 C1555 0.950 . S
H1535 C1558 0.950 . S
H1536 C1559 0.950 . S
H1537 C1561 0.950 . S
H1538 C1562 0.950 . S
H1539 C1563 0.951 . S
H1540 C1565 0.951 . S
H1541 C1567 0.950 . S
H1542 C1568 0.950 . S
H1543 C1570 0.950 . S
H1544 C1573 0.950 . S
H1545 C1574 0.950 . S
H1546 C1576 0.950 . S
H1547 C1577 0.950 . S
C1548 H1530 0.951 . S
C1548 C1549 1.366 . S
C1548 C1550 1.388 . S
C1549 C1548 1.366 . S
C1549 C1553 1.385 . S
C1550 H1531 0.951 . S
C1550 C1548 1.388 . S
C1550 C1551 1.366 . S
C1551 C1550 1.366 . S
C1551 C1552 1.414 . S
C1551 C1554 1.499 . S
C1552 H1532 0.950 . S
C1552 C1551 1.414 . S
C1552 C1553 1.374 . S
C1553 H1533 0.950 . S
C1553 C1549 1.385 . S
C1553 C1552 1.374 . S
C1554 C1551 1.499 . S
C1554 C1555 1.373 . S
C1554 C1556 1.389 . S
C1555 H1534 0.950 . S
C1555 C1554 1.373 . S
C1555 C1571 1.377 . S
C1556 C1554 1.389 . S
C1556 C1557 1.524 . S
C1556 C1570 1.377 . S
C1557 C1556 1.524 . S
C1557 C1558 1.397 . S
C1557 C1562 1.363 . S
C1558 H1535 0.950 . S
C1558 C1557 1.397 . S
C1558 C1559 1.334 . S
C1559 H1536 0.950 . S
C1559 C1558 1.334 . S
C1559 C1560 1.287 . S
C1560 C1559 1.287 . S
C1560 C1561 1.524 . S
C1560 H1579 0.913 . S
C1561 H1537 0.950 . S
C1561 C1560 1.524 . S
C1561 C1562 1.415 . S
C1562 H1538 0.950 . S
C1562 C1557 1.363 . S
C1562 C1561 1.415 . S
C1563 H1539 0.951 . S
C1563 C1564 1.366 . S
C1563 C1565 1.388 . S
C1564 C1563 1.366 . S
C1564 C1568 1.385 . S
C1565 H1540 0.951 . S
C1565 C1563 1.388 . S
C1565 C1566 1.366 . S
C1566 C1565 1.366 . S
C1566 C1567 1.414 . S
C1566 C1569 1.499 . S
C1567 H1541 0.950 . S
C1567 C1566 1.414 . S
C1567 C1568 1.374 . S
C1568 H1542 0.950 . S
C1568 C1564 1.385 . S
C1568 C1567 1.374 . S
C1569 C1566 1.499 . S
C1569 C1570 1.373 . S
C1569 C1571 1.389 . S
C1570 H1543 0.950 . S
C1570 C1556 1.377 . S
C1570 C1569 1.373 . S
C1571 C1555 1.377 . S
C1571 C1569 1.389 . S
C1571 C1572 1.524 . S
C1572 C1571 1.524 . S
C1572 C1573 1.397 . S
C1572 C1577 1.363 . S
C1573 H1544 0.950 . S
C1573 C1572 1.397 . S
C1573 C1574 1.334 . S
C1574 H1545 0.950 . S
C1574 C1573 1.334 . S
C1574 C1575 1.287 . S
C1575 C1574 1.287 . S
C1575 C1576 1.524 . S
C1575 H1578 0.999 . S
C1576 H1546 0.950 . S
C1576 C1575 1.524 . S
C1576 C1577 1.415 . S
C1577 H1547 0.950 . S
C1577 C1572 1.363 . S
C1577 C1576 1.415 . S
H1578 C1575 0.999 . S
H1579 C1560 0.913 . S
H1580 C1598 0.951 . S
H1581 C1600 0.951 . S
H1582 C1602 0.950 . S
H1583 C1603 0.950 . S
H1584 C1605 0.950 . S
H1585 C1608 0.950 . S
H1586 C1609 0.950 . S
H1587 C1611 0.950 . S
H1588 C1612 0.950 . S
H1589 C1613 0.951 . S
H1590 C1615 0.951 . S
H1591 C1617 0.950 . S
H1592 C1618 0.950 . S
H1593 C1620 0.950 . S
H1594 C1623 0.950 . S
H1595 C1624 0.950 . S
H1596 C1626 0.950 . S
H1597 C1627 0.950 . S
C1598 H1580 0.951 . S
C1598 C1599 1.366 . S
C1598 C1600 1.388 . S
C1599 C1598 1.366 . S
C1599 C1603 1.385 . S
C1600 H1581 0.951 . S
C1600 C1598 1.388 . S
C1600 C1601 1.366 . S
C1601 C1600 1.366 . S
C1601 C1602 1.414 . S
C1601 C1604 1.499 . S
C1602 H1582 0.950 . S
C1602 C1601 1.414 . S
C1602 C1603 1.374 . S
C1603 H1583 0.950 . S
C1603 C1599 1.385 . S
C1603 C1602 1.374 . S
C1604 C1601 1.499 . S
C1604 C1605 1.373 . S
C1604 C1606 1.389 . S
C1605 H1584 0.950 . S
C1605 C1604 1.373 . S
C1605 C1621 1.377 . S
C1606 C1604 1.389 . S
C1606 C1607 1.524 . S
C1606 C1620 1.377 . S
C1607 C1606 1.524 . S
C1607 C1608 1.397 . S
C1607 C1612 1.363 . S
C1608 H1585 0.950 . S
C1608 C1607 1.397 . S
C1608 C1609 1.334 . S
C1609 H1586 0.950 . S
C1609 C1608 1.334 . S
C1609 C1610 1.287 . S
C1610 C1609 1.287 . S
C1610 C1611 1.524 . S
C1610 H1629 0.913 . S
C1611 H1587 0.950 . S
C1611 C1610 1.524 . S
C1611 C1612 1.415 . S
C1612 H1588 0.950 . S
C1612 C1607 1.363 . S
C1612 C1611 1.415 . S
C1613 H1589 0.951 . S
C1613 C1614 1.366 . S
C1613 C1615 1.388 . S
C1614 C1613 1.366 . S
C1614 C1618 1.385 . S
C1615 H1590 0.951 . S
C1615 C1613 1.388 . S
C1615 C1616 1.366 . S
C1616 C1615 1.366 . S
C1616 C1617 1.414 . S
C1616 C1619 1.499 . S
C1617 H1591 0.950 . S
C1617 C1616 1.414 . S
C1617 C1618 1.374 . S
C1618 H1592 0.950 . S
C1618 C1614 1.385 . S
C1618 C1617 1.374 . S
C1619 C1616 1.499 . S
C1619 C1620 1.373 . S
C1619 C1621 1.389 . S
C1620 H1593 0.950 . S
C1620 C1606 1.377 . S
C1620 C1619 1.373 . S
C1621 C1605 1.377 . S
C1621 C1619 1.389 . S
C1621 C1622 1.524 . S
C1622 C1621 1.524 . S
C1622 C1623 1.397 . S
C1622 C1627 1.363 . S
C1623 H1594 0.950 . S
C1623 C1622 1.397 . S
C1623 C1624 1.334 . S
C1624 H1595 0.950 . S
C1624 C1623 1.334 . S
C1624 C1625 1.287 . S
C1625 C1624 1.287 . S
C1625 C1626 1.524 . S
C1625 H1628 0.999 . S
C1626 H1596 0.950 . S
C1626 C1625 1.524 . S
C1626 C1627 1.415 . S
C1627 H1597 0.950 . S
C1627 C1622 1.363 . S
C1627 C1626 1.415 . S
H1628 C1625 0.999 . S
H1629 C1610 0.913 . S
H1630 C1648 0.951 . S
H1631 C1650 0.951 . S
H1632 C1652 0.950 . S
H1633 C1653 0.950 . S
H1634 C1655 0.950 . S
H1635 C1658 0.950 . S
H1636 C1659 0.950 . S
H1637 C1661 0.950 . S
H1638 C1662 0.950 . S
H1639 C1663 0.951 . S
H1640 C1665 0.951 . S
H1641 C1667 0.950 . S
H1642 C1668 0.950 . S
H1643 C1670 0.950 . S
H1644 C1673 0.950 . S
H1645 C1674 0.950 . S
H1646 C1676 0.950 . S
H1647 C1677 0.950 . S
C1648 H1630 0.951 . S
C1648 C1649 1.366 . S
C1648 C1650 1.388 . S
C1649 C1648 1.366 . S
C1649 C1653 1.385 . S
C1650 H1631 0.951 . S
C1650 C1648 1.388 . S
C1650 C1651 1.366 . S
C1651 C1650 1.366 . S
C1651 C1652 1.414 . S
C1651 C1654 1.499 . S
C1652 H1632 0.950 . S
C1652 C1651 1.414 . S
C1652 C1653 1.374 . S
C1653 H1633 0.950 . S
C1653 C1649 1.385 . S
C1653 C1652 1.374 . S
C1654 C1651 1.499 . S
C1654 C1655 1.373 . S
C1654 C1656 1.389 . S
C1655 H1634 0.950 . S
C1655 C1654 1.373 . S
C1655 C1671 1.377 . S
C1656 C1654 1.389 . S
C1656 C1657 1.524 . S
C1656 C1670 1.377 . S
C1657 C1656 1.524 . S
C1657 C1658 1.397 . S
C1657 C1662 1.363 . S
C1658 H1635 0.950 . S
C1658 C1657 1.397 . S
C1658 C1659 1.334 . S
C1659 H1636 0.950 . S
C1659 C1658 1.334 . S
C1659 C1660 1.287 . S
C1660 C1659 1.287 . S
C1660 C1661 1.524 . S
C1660 H1679 0.913 . S
C1661 H1637 0.950 . S
C1661 C1660 1.524 . S
C1661 C1662 1.415 . S
C1662 H1638 0.950 . S
C1662 C1657 1.363 . S
C1662 C1661 1.415 . S
C1663 H1639 0.951 . S
C1663 C1664 1.366 . S
C1663 C1665 1.388 . S
C1664 C1663 1.366 . S
C1664 C1668 1.385 . S
C1665 H1640 0.951 . S
C1665 C1663 1.388 . S
C1665 C1666 1.366 . S
C1666 C1665 1.366 . S
C1666 C1667 1.414 . S
C1666 C1669 1.499 . S
C1667 H1641 0.950 . S
C1667 C1666 1.414 . S
C1667 C1668 1.374 . S
C1668 H1642 0.950 . S
C1668 C1664 1.385 . S
C1668 C1667 1.374 . S
C1669 C1666 1.499 . S
C1669 C1670 1.373 . S
C1669 C1671 1.389 . S
C1670 H1643 0.950 . S
C1670 C1656 1.377 . S
C1670 C1669 1.373 . S
C1671 C1655 1.377 . S
C1671 C1669 1.389 . S
C1671 C1672 1.524 . S
C1672 C1671 1.524 . S
C1672 C1673 1.397 . S
C1672 C1677 1.363 . S
C1673 H1644 0.950 . S
C1673 C1672 1.397 . S
C1673 C1674 1.334 . S
C1674 H1645 0.950 . S
C1674 C1673 1.334 . S
C1674 C1675 1.287 . S
C1675 C1674 1.287 . S
C1675 C1676 1.524 . S
C1675 H1678 0.999 . S
C1676 H1646 0.950 . S
C1676 C1675 1.524 . S
C1676 C1677 1.415 . S
C1677 H1647 0.950 . S
C1677 C1672 1.363 . S
C1677 C1676 1.415 . S
H1678 C1675 0.999 . S
H1679 C1660 0.913 . S
H1680 C1698 0.951 . S
H1681 C1700 0.951 . S
H1682 C1702 0.950 . S
H1683 C1703 0.950 . S
H1684 C1705 0.950 . S
H1685 C1708 0.950 . S
H1686 C1709 0.950 . S
H1687 C1711 0.950 . S
H1688 C1712 0.950 . S
H1689 C1713 0.951 . S
H1690 C1715 0.951 . S
H1691 C1717 0.950 . S
H1692 C1718 0.950 . S
H1693 C1720 0.950 . S
H1694 C1723 0.950 . S
H1695 C1724 0.950 . S
H1696 C1726 0.950 . S
H1697 C1727 0.950 . S
C1698 H1680 0.951 . S
C1698 C1699 1.366 . S
C1698 C1700 1.388 . S
C1699 C1698 1.366 . S
C1699 C1703 1.385 . S
C1700 H1681 0.951 . S
C1700 C1698 1.388 . S
C1700 C1701 1.366 . S
C1701 C1700 1.366 . S
C1701 C1702 1.414 . S
C1701 C1704 1.499 . S
C1702 H1682 0.950 . S
C1702 C1701 1.414 . S
C1702 C1703 1.374 . S
C1703 H1683 0.950 . S
C1703 C1699 1.385 . S
C1703 C1702 1.374 . S
C1704 C1701 1.499 . S
C1704 C1705 1.373 . S
C1704 C1706 1.389 . S
C1705 H1684 0.950 . S
C1705 C1704 1.373 . S
C1705 C1721 1.377 . S
C1706 C1704 1.389 . S
C1706 C1707 1.524 . S
C1706 C1720 1.377 . S
C1707 C1706 1.524 . S
C1707 C1708 1.397 . S
C1707 C1712 1.363 . S
C1708 H1685 0.950 . S
C1708 C1707 1.397 . S
C1708 C1709 1.334 . S
C1709 H1686 0.950 . S
C1709 C1708 1.334 . S
C1709 C1710 1.287 . S
C1710 C1709 1.287 . S
C1710 C1711 1.524 . S
C1710 H1729 0.913 . S
C1711 H1687 0.950 . S
C1711 C1710 1.524 . S
C1711 C1712 1.415 . S
C1712 H1688 0.950 . S
C1712 C1707 1.363 . S
C1712 C1711 1.415 . S
C1713 H1689 0.951 . S
C1713 C1714 1.366 . S
C1713 C1715 1.388 . S
C1714 C1713 1.366 . S
C1714 C1718 1.385 . S
C1715 H1690 0.951 . S
C1715 C1713 1.388 . S
C1715 C1716 1.366 . S
C1716 C1715 1.366 . S
C1716 C1717 1.414 . S
C1716 C1719 1.499 . S
C1717 H1691 0.950 . S
C1717 C1716 1.414 . S
C1717 C1718 1.374 . S
C1718 H1692 0.950 . S
C1718 C1714 1.385 . S
C1718 C1717 1.374 . S
C1719 C1716 1.499 . S
C1719 C1720 1.373 . S
C1719 C1721 1.389 . S
C1720 H1693 0.950 . S
C1720 C1706 1.377 . S
C1720 C1719 1.373 . S
C1721 C1705 1.377 . S
C1721 C1719 1.389 . S
C1721 C1722 1.524 . S
C1722 C1721 1.524 . S
C1722 C1723 1.397 . S
C1722 C1727 1.363 . S
C1723 H1694 0.950 . S
C1723 C1722 1.397 . S
C1723 C1724 1.334 . S
C1724 H1695 0.950 . S
C1724 C1723 1.334 . S
C1724 C1725 1.287 . S
C1725 C1724 1.287 . S
C1725 C1726 1.524 . S
C1725 H1728 0.999 . S
C1726 H1696 0.950 . S
C1726 C1725 1.524 . S
C1726 C1727 1.415 . S
C1727 H1697 0.950 . S
C1727 C1722 1.363 . S
C1727 C1726 1.415 . S
H1728 C1725 0.999 . S
H1729 C1710 0.913 . S
H1730 C1748 0.951 . S
H1731 C1750 0.951 . S
H1732 C1752 0.950 . S
H1733 C1753 0.950 . S
H1734 C1755 0.950 . S
H1735 C1758 0.950 . S
H1736 C1759 0.950 . S
H1737 C1761 0.950 . S
H1738 C1762 0.950 . S
H1739 C1763 0.951 . S
H1740 C1765 0.951 . S
H1741 C1767 0.950 . S
H1742 C1768 0.950 . S
H1743 C1770 0.950 . S
H1744 C1773 0.950 . S
H1745 C1774 0.950 . S
H1746 C1776 0.950 . S
H1747 C1777 0.950 . S
C1748 H1730 0.951 . S
C1748 C1749 1.366 . S
C1748 C1750 1.388 . S
C1749 C1748 1.366 . S
C1749 C1753 1.385 . S
C1750 H1731 0.951 . S
C1750 C1748 1.388 . S
C1750 C1751 1.366 . S
C1751 C1750 1.366 . S
C1751 C1752 1.414 . S
C1751 C1754 1.499 . S
C1752 H1732 0.950 . S
C1752 C1751 1.414 . S
C1752 C1753 1.374 . S
C1753 H1733 0.950 . S
C1753 C1749 1.385 . S
C1753 C1752 1.374 . S
C1754 C1751 1.499 . S
C1754 C1755 1.373 . S
C1754 C1756 1.389 . S
C1755 H1734 0.950 . S
C1755 C1754 1.373 . S
C1755 C1771 1.377 . S
C1756 C1754 1.389 . S
C1756 C1757 1.524 . S
C1756 C1770 1.377 . S
C1757 C1756 1.524 . S
C1757 C1758 1.397 . S
C1757 C1762 1.363 . S
C1758 H1735 0.950 . S
C1758 C1757 1.397 . S
C1758 C1759 1.334 . S
C1759 H1736 0.950 . S
C1759 C1758 1.334 . S
C1759 C1760 1.287 . S
C1760 C1759 1.287 . S
C1760 C1761 1.524 . S
C1760 H1779 0.913 . S
C1761 H1737 0.950 . S
C1761 C1760 1.524 . S
C1761 C1762 1.415 . S
C1762 H1738 0.950 . S
C1762 C1757 1.363 . S
C1762 C1761 1.415 . S
C1763 H1739 0.951 . S
C1763 C1764 1.366 . S
C1763 C1765 1.388 . S
C1764 C1763 1.366 . S
C1764 C1768 1.385 . S
C1765 H1740 0.951 . S
C1765 C1763 1.388 . S
C1765 C1766 1.366 . S
C1766 C1765 1.366 . S
C1766 C1767 1.414 . S
C1766 C1769 1.499 . S
C1767 H1741 0.950 . S
C1767 C1766 1.414 . S
C1767 C1768 1.374 . S
C1768 H1742 0.950 . S
C1768 C1764 1.385 . S
C1768 C1767 1.374 . S
C1769 C1766 1.499 . S
C1769 C1770 1.373 . S
C1769 C1771 1.389 . S
C1770 H1743 0.950 . S
C1770 C1756 1.377 . S
C1770 C1769 1.373 . S
C1771 C1755 1.377 . S
C1771 C1769 1.389 . S
C1771 C1772 1.524 . S
C1772 C1771 1.524 . S
C1772 C1773 1.397 . S
C1772 C1777 1.363 . S
C1773 H1744 0.950 . S
C1773 C1772 1.397 . S
C1773 C1774 1.334 . S
C1774 H1745 0.950 . S
C1774 C1773 1.334 . S
C1774 C1775 1.287 . S
C1775 C1774 1.287 . S
C1775 C1776 1.524 . S
C1775 H1778 0.999 . S
C1776 H1746 0.950 . S
C1776 C1775 1.524 . S
C1776 C1777 1.415 . S
C1777 H1747 0.950 . S
C1777 C1772 1.363 . S
C1777 C1776 1.415 . S
H1778 C1775 0.999 . S
H1779 C1760 0.913 . S
H1780 C1798 0.951 . S
H1781 C1800 0.951 . S
H1782 C1802 0.950 . S
H1783 C1803 0.950 . S
H1784 C1805 0.950 . S
H1785 C1808 0.950 . S
H1786 C1809 0.950 . S
H1787 C1811 0.950 . S
H1788 C1812 0.950 . S
H1789 C1813 0.951 . S
H1790 C1815 0.951 . S
H1791 C1817 0.950 . S
H1792 C1818 0.950 . S
H1793 C1820 0.950 . S
H1794 C1823 0.950 . S
H1795 C1824 0.950 . S
H1796 C1826 0.950 . S
H1797 C1827 0.950 . S
C1798 H1780 0.951 . S
C1798 C1799 1.366 . S
C1798 C1800 1.388 . S
C1799 C1798 1.366 . S
C1799 C1803 1.385 . S
C1800 H1781 0.951 . S
C1800 C1798 1.388 . S
C1800 C1801 1.366 . S
C1801 C1800 1.366 . S
C1801 C1802 1.414 . S
C1801 C1804 1.499 . S
C1802 H1782 0.950 . S
C1802 C1801 1.414 . S
C1802 C1803 1.374 . S
C1803 H1783 0.950 . S
C1803 C1799 1.385 . S
C1803 C1802 1.374 . S
C1804 C1801 1.499 . S
C1804 C1805 1.373 . S
C1804 C1806 1.389 . S
C1805 H1784 0.950 . S
C1805 C1804 1.373 . S
C1805 C1821 1.377 . S
C1806 C1804 1.389 . S
C1806 C1807 1.524 . S
C1806 C1820 1.377 . S
C1807 C1806 1.524 . S
C1807 C1808 1.397 . S
C1807 C1812 1.363 . S
C1808 H1785 0.950 . S
C1808 C1807 1.397 . S
C1808 C1809 1.334 . S
C1809 H1786 0.950 . S
C1809 C1808 1.334 . S
C1809 C1810 1.287 . S
C1810 C1809 1.287 . S
C1810 C1811 1.524 . S
C1810 H1829 0.913 . S
C1811 H1787 0.950 . S
C1811 C1810 1.524 . S
C1811 C1812 1.415 . S
C1812 H1788 0.950 . S
C1812 C1807 1.363 . S
C1812 C1811 1.415 . S
C1813 H1789 0.951 . S
C1813 C1814 1.366 . S
C1813 C1815 1.388 . S
C1814 C1813 1.366 . S
C1814 C1818 1.385 . S
C1815 H1790 0.951 . S
C1815 C1813 1.388 . S
C1815 C1816 1.366 . S
C1816 C1815 1.366 . S
C1816 C1817 1.414 . S
C1816 C1819 1.499 . S
C1817 H1791 0.950 . S
C1817 C1816 1.414 . S
C1817 C1818 1.374 . S
C1818 H1792 0.950 . S
C1818 C1814 1.385 . S
C1818 C1817 1.374 . S
C1819 C1816 1.499 . S
C1819 C1820 1.373 . S
C1819 C1821 1.389 . S
C1820 H1793 0.950 . S
C1820 C1806 1.377 . S
C1820 C1819 1.373 . S
C1821 C1805 1.377 . S
C1821 C1819 1.389 . S
C1821 C1822 1.524 . S
C1822 C1821 1.524 . S
C1822 C1823 1.397 . S
C1822 C1827 1.363 . S
C1823 H1794 0.950 . S
C1823 C1822 1.397 . S
C1823 C1824 1.334 . S
C1824 H1795 0.950 . S
C1824 C1823 1.334 . S
C1824 C1825 1.287 . S
C1825 C1824 1.287 . S
C1825 C1826 1.524 . S
C1825 H1828 0.999 . S
C1826 H1796 0.950 . S
C1826 C1825 1.524 . S
C1826 C1827 1.415 . S
C1827 H1797 0.950 . S
C1827 C1822 1.363 . S
C1827 C1826 1.415 . S
H1828 C1825 0.999 . S
H1829 C1810 0.913 . S
H1830 C1848 0.951 . S
H1831 C1850 0.951 . S
H1832 C1852 0.950 . S
H1833 C1853 0.950 . S
H1834 C1855 0.950 . S
H1835 C1858 0.950 . S
H1836 C1859 0.950 . S
H1837 C1861 0.950 . S
H1838 C1862 0.950 . S
H1839 C1863 0.951 . S
H1840 C1865 0.951 . S
H1841 C1867 0.950 . S
H1842 C1868 0.950 . S
H1843 C1870 0.950 . S
H1844 C1873 0.950 . S
H1845 C1874 0.950 . S
H1846 C1876 0.950 . S
H1847 C1877 0.950 . S
C1848 H1830 0.951 . S
C1848 C1849 1.366 . S
C1848 C1850 1.388 . S
C1849 C1848 1.366 . S
C1849 C1853 1.385 . S
C1850 H1831 0.951 . S
C1850 C1848 1.388 . S
C1850 C1851 1.366 . S
C1851 C1850 1.366 . S
C1851 C1852 1.414 . S
C1851 C1854 1.499 . S
C1852 H1832 0.950 . S
C1852 C1851 1.414 . S
C1852 C1853 1.374 . S
C1853 H1833 0.950 . S
C1853 C1849 1.385 . S
C1853 C1852 1.374 . S
C1854 C1851 1.499 . S
C1854 C1855 1.373 . S
C1854 C1856 1.389 . S
C1855 H1834 0.950 . S
C1855 C1854 1.373 . S
C1855 C1871 1.377 . S
C1856 C1854 1.389 . S
C1856 C1857 1.524 . S
C1856 C1870 1.377 . S
C1857 C1856 1.524 . S
C1857 C1858 1.397 . S
C1857 C1862 1.363 . S
C1858 H1835 0.950 . S
C1858 C1857 1.397 . S
C1858 C1859 1.334 . S
C1859 H1836 0.950 . S
C1859 C1858 1.334 . S
C1859 C1860 1.287 . S
C1860 C1859 1.287 . S
C1860 C1861 1.524 . S
C1860 H1879 0.913 . S
C1861 H1837 0.950 . S
C1861 C1860 1.524 . S
C1861 C1862 1.415 . S
C1862 H1838 0.950 . S
C1862 C1857 1.363 . S
C1862 C1861 1.415 . S
C1863 H1839 0.951 . S
C1863 C1864 1.366 . S
C1863 C1865 1.388 . S
C1864 C1863 1.366 . S
C1864 C1868 1.385 . S
C1865 H1840 0.951 . S
C1865 C1863 1.388 . S
C1865 C1866 1.366 . S
C1866 C1865 1.366 . S
C1866 C1867 1.414 . S
C1866 C1869 1.499 . S
C1867 H1841 0.950 . S
C1867 C1866 1.414 . S
C1867 C1868 1.374 . S
C1868 H1842 0.950 . S
C1868 C1864 1.385 . S
C1868 C1867 1.374 . S
C1869 C1866 1.499 . S
C1869 C1870 1.373 . S
C1869 C1871 1.389 . S
C1870 H1843 0.950 . S
C1870 C1856 1.377 . S
C1870 C1869 1.373 . S
C1871 C1855 1.377 . S
C1871 C1869 1.389 . S
C1871 C1872 1.524 . S
C1872 C1871 1.524 . S
C1872 C1873 1.397 . S
C1872 C1877 1.363 . S
C1873 H1844 0.950 . S
C1873 C1872 1.397 . S
C1873 C1874 1.334 . S
C1874 H1845 0.950 . S
C1874 C1873 1.334 . S
C1874 C1875 1.287 . S
C1875 C1874 1.287 . S
C1875 C1876 1.524 . S
C1875 H1878 0.999 . S
C1876 H1846 0.950 . S
C1876 C1875 1.524 . S
C1876 C1877 1.415 . S
C1877 H1847 0.950 . S
C1877 C1872 1.363 . S
C1877 C1876 1.415 . S
H1878 C1875 0.999 . S
H1879 C1860 0.913 . S
H1880 C1898 0.951 . S
H1881 C1900 0.951 . S
H1882 C1902 0.950 . S
H1883 C1903 0.950 . S
H1884 C1905 0.950 . S
H1885 C1908 0.950 . S
H1886 C1909 0.950 . S
H1887 C1911 0.950 . S
H1888 C1912 0.950 . S
H1889 C1913 0.951 . S
H1890 C1915 0.951 . S
H1891 C1917 0.950 . S
H1892 C1918 0.950 . S
H1893 C1920 0.950 . S
H1894 C1923 0.950 . S
H1895 C1924 0.950 . S
H1896 C1926 0.950 . S
H1897 C1927 0.950 . S
C1898 H1880 0.951 . S
C1898 C1899 1.366 . S
C1898 C1900 1.388 . S
C1899 C1898 1.366 . S
C1899 C1903 1.385 . S
C1900 H1881 0.951 . S
C1900 C1898 1.388 . S
C1900 C1901 1.366 . S
C1901 C1900 1.366 . S
C1901 C1902 1.414 . S
C1901 C1904 1.499 . S
C1902 H1882 0.950 . S
C1902 C1901 1.414 . S
C1902 C1903 1.374 . S
C1903 H1883 0.950 . S
C1903 C1899 1.385 . S
C1903 C1902 1.374 . S
C1904 C1901 1.499 . S
C1904 C1905 1.373 . S
C1904 C1906 1.389 . S
C1905 H1884 0.950 . S
C1905 C1904 1.373 . S
C1905 C1921 1.377 . S
C1906 C1904 1.389 . S
C1906 C1907 1.524 . S
C1906 C1920 1.377 . S
C1907 C1906 1.524 . S
C1907 C1908 1.397 . S
C1907 C1912 1.363 . S
C1908 H1885 0.950 . S
C1908 C1907 1.397 . S
C1908 C1909 1.334 . S
C1909 H1886 0.950 . S
C1909 C1908 1.334 . S
C1909 C1910 1.287 . S
C1910 C1909 1.287 . S
C1910 C1911 1.524 . S
C1910 H1929 0.913 . S
C1911 H1887 0.950 . S
C1911 C1910 1.524 . S
C1911 C1912 1.415 . S
C1912 H1888 0.950 . S
C1912 C1907 1.363 . S
C1912 C1911 1.415 . S
C1913 H1889 0.951 . S
C1913 C1914 1.366 . S
C1913 C1915 1.388 . S
C1914 C1913 1.366 . S
C1914 C1918 1.385 . S
C1915 H1890 0.951 . S
C1915 C1913 1.388 . S
C1915 C1916 1.366 . S
C1916 C1915 1.366 . S
C1916 C1917 1.414 . S
C1916 C1919 1.499 . S
C1917 H1891 0.950 . S
C1917 C1916 1.414 . S
C1917 C1918 1.374 . S
C1918 H1892 0.950 . S
C1918 C1914 1.385 . S
C1918 C1917 1.374 . S
C1919 C1916 1.499 . S
C1919 C1920 1.373 . S
C1919 C1921 1.389 . S
C1920 H1893 0.950 . S
C1920 C1906 1.377 . S
C1920 C1919 1.373 . S
C1921 C1905 1.377 . S
C1921 C1919 1.389 . S
C1921 C1922 1.524 . S
C1922 C1921 1.524 . S
C1922 C1923 1.397 . S
C1922 C1927 1.363 . S
C1923 H1894 0.950 . S
C1923 C1922 1.397 . S
C1923 C1924 1.334 . S
C1924 H1895 0.950 . S
C1924 C1923 1.334 . S
C1924 C1925 1.287 . S
C1925 C1924 1.287 . S
C1925 C1926 1.524 . S
C1925 H1928 0.999 . S
C1926 H1896 0.950 . S
C1926 C1925 1.524 . S
C1926 C1927 1.415 . S
C1927 H1897 0.950 . S
C1927 C1922 1.363 . S
C1927 C1926 1.415 . S
H1928 C1925 0.999 . S
H1929 C1910 0.913 . S
H1930 C1948 0.951 . S
H1931 C1950 0.951 . S
H1932 C1952 0.950 . S
H1933 C1953 0.950 . S
H1934 C1955 0.950 . S
H1935 C1958 0.950 . S
H1936 C1959 0.950 . S
H1937 C1961 0.950 . S
H1938 C1962 0.950 . S
H1939 C1963 0.951 . S
H1940 C1965 0.951 . S
H1941 C1967 0.950 . S
H1942 C1968 0.950 . S
H1943 C1970 0.950 . S
H1944 C1973 0.950 . S
H1945 C1974 0.950 . S
H1946 C1976 0.950 . S
H1947 C1977 0.950 . S
C1948 H1930 0.951 . S
C1948 C1949 1.366 . S
C1948 C1950 1.388 . S
C1949 C1948 1.366 . S
C1949 C1953 1.385 . S
C1950 H1931 0.951 . S
C1950 C1948 1.388 . S
C1950 C1951 1.366 . S
C1951 C1950 1.366 . S
C1951 C1952 1.414 . S
C1951 C1954 1.499 . S
C1952 H1932 0.950 . S
C1952 C1951 1.414 . S
C1952 C1953 1.374 . S
C1953 H1933 0.950 . S
C1953 C1949 1.385 . S
C1953 C1952 1.374 . S
C1954 C1951 1.499 . S
C1954 C1955 1.373 . S
C1954 C1956 1.389 . S
C1955 H1934 0.950 . S
C1955 C1954 1.373 . S
C1955 C1971 1.377 . S
C1956 C1954 1.389 . S
C1956 C1957 1.524 . S
C1956 C1970 1.377 . S
C1957 C1956 1.524 . S
C1957 C1958 1.397 . S
C1957 C1962 1.363 . S
C1958 H1935 0.950 . S
C1958 C1957 1.397 . S
C1958 C1959 1.334 . S
C1959 H1936 0.950 . S
C1959 C1958 1.334 . S
C1959 C1960 1.287 . S
C1960 C1959 1.287 . S
C1960 C1961 1.524 . S
C1960 H1979 0.913 . S
C1961 H1937 0.950 . S
C1961 C1960 1.524 . S
C1961 C1962 1.415 . S
C1962 H1938 0.950 . S
C1962 C1957 1.363 . S
C1962 C1961 1.415 . S
C1963 H1939 0.951 . S
C1963 C1964 1.366 . S
C1963 C1965 1.388 . S
C1964 C1963 1.366 . S
C1964 C1968 1.385 . S
C1965 H1940 0.951 . S
C1965 C1963 1.388 . S
C1965 C1966 1.366 . S
C1966 C1965 1.366 . S
C1966 C1967 1.414 . S
C1966 C1969 1.499 . S
C1967 H1941 0.950 . S
C1967 C1966 1.414 . S
C1967 C1968 1.374 . S
C1968 H1942 0.950 . S
C1968 C1964 1.385 . S
C1968 C1967 1.374 . S
C1969 C1966 1.499 . S
C1969 C1970 1.373 . S
C1969 C1971 1.389 . S
C1970 H1943 0.950 . S
C1970 C1956 1.377 . S
C1970 C1969 1.373 . S
C1971 C1955 1.377 . S
C1971 C1969 1.389 . S
C1971 C1972 1.524 . S
C1972 C1971 1.524 . S
C1972 C1973 1.397 . S
C1972 C1977 1.363 . S
C1973 H1944 0.950 . S
C1973 C1972 1.397 . S
C1973 C1974 1.334 . S
C1974 H1945 0.950 . S
C1974 C1973 1.334 . S
C1974 C1975 1.287 . S
C1975 C1974 1.287 . S
C1975 C1976 1.524 . S
C1975 H1978 0.999 . S
C1976 H1946 0.950 . S
C1976 C1975 1.524 . S
C1976 C1977 1.415 . S
C1977 H1947 0.950 . S
C1977 C1972 1.363 . S
C1977 C1976 1.415 . S
H1978 C1975 0.999 . S
H1979 C1960 0.913 . S
H1980 C1998 0.951 . S
H1981 C2000 0.951 . S
H1982 C2002 0.950 . S
H1983 C2003 0.950 . S
H1984 C2005 0.950 . S
H1985 C2008 0.950 . S
H1986 C2009 0.950 . S
H1987 C2011 0.950 . S
H1988 C2012 0.950 . S
H1989 C2013 0.951 . S
H1990 C2015 0.951 . S
H1991 C2017 0.950 . S
H1992 C2018 0.950 . S
H1993 C2020 0.950 . S
H1994 C2023 0.950 . S
H1995 C2024 0.950 . S
H1996 C2026 0.950 . S
H1997 C2027 0.950 . S
C1998 H1980 0.951 . S
C1998 C1999 1.366 . S
C1998 C2000 1.388 . S
C1999 C1998 1.366 . S
C1999 C2003 1.385 . S
C2000 H1981 0.951 . S
C2000 C1998 1.388 . S
C2000 C2001 1.366 . S
C2001 C2000 1.366 . S
C2001 C2002 1.414 . S
C2001 C2004 1.499 . S
C2002 H1982 0.950 . S
C2002 C2001 1.414 . S
C2002 C2003 1.374 . S
C2003 H1983 0.950 . S
C2003 C1999 1.385 . S
C2003 C2002 1.374 . S
C2004 C2001 1.499 . S
C2004 C2005 1.373 . S
C2004 C2006 1.389 . S
C2005 H1984 0.950 . S
C2005 C2004 1.373 . S
C2005 C2021 1.377 . S
C2006 C2004 1.389 . S
C2006 C2007 1.524 . S
C2006 C2020 1.377 . S
C2007 C2006 1.524 . S
C2007 C2008 1.397 . S
C2007 C2012 1.363 . S
C2008 H1985 0.950 . S
C2008 C2007 1.397 . S
C2008 C2009 1.334 . S
C2009 H1986 0.950 . S
C2009 C2008 1.334 . S
C2009 C2010 1.287 . S
C2010 C2009 1.287 . S
C2010 C2011 1.524 . S
C2010 H2029 0.913 . S
C2011 H1987 0.950 . S
C2011 C2010 1.524 . S
C2011 C2012 1.415 . S
C2012 H1988 0.950 . S
C2012 C2007 1.363 . S
C2012 C2011 1.415 . S
C2013 H1989 0.951 . S
C2013 C2014 1.366 . S
C2013 C2015 1.388 . S
C2014 C2013 1.366 . S
C2014 C2018 1.385 . S
C2015 H1990 0.951 . S
C2015 C2013 1.388 . S
C2015 C2016 1.366 . S
C2016 C2015 1.366 . S
C2016 C2017 1.414 . S
C2016 C2019 1.499 . S
C2017 H1991 0.950 . S
C2017 C2016 1.414 . S
C2017 C2018 1.374 . S
C2018 H1992 0.950 . S
C2018 C2014 1.385 . S
C2018 C2017 1.374 . S
C2019 C2016 1.499 . S
C2019 C2020 1.373 . S
C2019 C2021 1.389 . S
C2020 H1993 0.950 . S
C2020 C2006 1.377 . S
C2020 C2019 1.373 . S
C2021 C2005 1.377 . S
C2021 C2019 1.389 . S
C2021 C2022 1.524 . S
C2022 C2021 1.524 . S
C2022 C2023 1.397 . S
C2022 C2027 1.363 . S
C2023 H1994 0.950 . S
C2023 C2022 1.397 . S
C2023 C2024 1.334 . S
C2024 H1995 0.950 . S
C2024 C2023 1.334 . S
C2024 C2025 1.287 . S
C2025 C2024 1.287 . S
C2025 C2026 1.524 . S
C2025 H2028 0.999 . S
C2026 H1996 0.950 . S
C2026 C2025 1.524 . S
C2026 C2027 1.415 . S
C2027 H1997 0.950 . S
C2027 C2022 1.363 . S
C2027 C2026 1.415 . S
H2028 C2025 0.999 . S
H2029 C2010 0.913 . S
H2030 C2048 0.951 . S
H2031 C2050 0.951 . S
H2032 C2052 0.950 . S
H2033 C2053 0.950 . S
H2034 C2055 0.950 . S
H2035 C2058 0.950 . S
H2036 C2059 0.950 . S
H2037 C2061 0.950 . S
H2038 C2062 0.950 . S
H2039 C2063 0.951 . S
H2040 C2065 0.951 . S
H2041 C2067 0.950 . S
H2042 C2068 0.950 . S
H2043 C2070 0.950 . S
H2044 C2073 0.950 . S
H2045 C2074 0.950 . S
H2046 C2076 0.950 . S
H2047 C2077 0.950 . S
C2048 H2030 0.951 . S
C2048 C2049 1.366 . S
C2048 C2050 1.388 . S
C2049 C2048 1.366 . S
C2049 C2053 1.385 . S
C2050 H2031 0.951 . S
C2050 C2048 1.388 . S
C2050 C2051 1.366 . S
C2051 C2050 1.366 . S
C2051 C2052 1.414 . S
C2051 C2054 1.499 . S
C2052 H2032 0.950 . S
C2052 C2051 1.414 . S
C2052 C2053 1.374 . S
C2053 H2033 0.950 . S
C2053 C2049 1.385 . S
C2053 C2052 1.374 . S
C2054 C2051 1.499 . S
C2054 C2055 1.373 . S
C2054 C2056 1.389 . S
C2055 H2034 0.950 . S
C2055 C2054 1.373 . S
C2055 C2071 1.377 . S
C2056 C2054 1.389 . S
C2056 C2057 1.524 . S
C2056 C2070 1.377 . S
C2057 C2056 1.524 . S
C2057 C2058 1.397 . S
C2057 C2062 1.363 . S
C2058 H2035 0.950 . S
C2058 C2057 1.397 . S
C2058 C2059 1.334 . S
C2059 H2036 0.950 . S
C2059 C2058 1.334 . S
C2059 C2060 1.287 . S
C2060 C2059 1.287 . S
C2060 C2061 1.524 . S
C2060 H2079 0.913 . S
C2061 H2037 0.950 . S
C2061 C2060 1.524 . S
C2061 C2062 1.415 . S
C2062 H2038 0.950 . S
C2062 C2057 1.363 . S
C2062 C2061 1.415 . S
C2063 H2039 0.951 . S
C2063 C2064 1.366 . S
C2063 C2065 1.388 . S
C2064 C2063 1.366 . S
C2064 C2068 1.385 . S
C2065 H2040 0.951 . S
C2065 C2063 1.388 . S
C2065 C2066 1.366 . S
C2066 C2065 1.366 . S
C2066 C2067 1.414 . S
C2066 C2069 1.499 . S
C2067 H2041 0.950 . S
C2067 C2066 1.414 . S
C2067 C2068 1.374 . S
C2068 H2042 0.950 . S
C2068 C2064 1.385 . S
C2068 C2067 1.374 . S
C2069 C2066 1.499 . S
C2069 C2070 1.373 . S
C2069 C2071 1.389 . S
C2070 H2043 0.950 . S
C2070 C2056 1.377 . S
C2070 C2069 1.373 . S
C2071 C2055 1.377 . S
C2071 C2069 1.389 . S
C2071 C2072 1.524 . S
C2072 C2071 1.524 . S
C2072 C2073 1.397 . S
C2072 C2077 1.363 . S
C2073 H2044 0.950 . S
C2073 C2072 1.397 . S
C2073 C2074 1.334 . S
C2074 H2045 0.950 . S
C2074 C2073 1.334 . S
C2074 C2075 1.287 . S
C2075 C2074 1.287 . S
C2075 C2076 1.524 . S
C2075 H2078 0.999 . S
C2076 H2046 0.950 . S
C2076 C2075 1.524 . S
C2076 C2077 1.415 . S
C2077 H2047 0.950 . S
C2077 C2072 1.363 . S
C2077 C2076 1.415 . S
H2078 C2075 0.999 . S
H2079 C2060 0.913 . S
H2080 C2098 0.951 . S
H2081 C2100 0.951 . S
H2082 C2102 0.950 . S
H2083 C2103 0.950 . S
H2084 C2105 0.950 . S
H2085 C2108 0.950 . S
H2086 C2109 0.950 . S
H2087 C2111 0.950 . S
H2088 C2112 0.950 . S
H2089 C2113 0.951 . S
H2090 C2115 0.951 . S
H2091 C2117 0.950 . S
H2092 C2118 0.950 . S
H2093 C2120 0.950 . S
H2094 C2123 0.950 . S
H2095 C2124 0.950 . S
H2096 C2126 0.950 . S
H2097 C2127 0.950 . S
C2098 H2080 0.951 . S
C2098 C2099 1.366 . S
C2098 C2100 1.388 . S
C2099 C2098 1.366 . S
C2099 C2103 1.385 . S
C2100 H2081 0.951 . S
C2100 C2098 1.388 . S
C2100 C2101 1.366 . S
C2101 C2100 1.366 . S
C2101 C2102 1.414 . S
C2101 C2104 1.499 . S
C2102 H2082 0.950 . S
C2102 C2101 1.414 . S
C2102 C2103 1.374 . S
C2103 H2083 0.950 . S
C2103 C2099 1.385 . S
C2103 C2102 1.374 . S
C2104 C2101 1.499 . S
C2104 C2105 1.373 . S
C2104 C2106 1.389 . S
C2105 H2084 0.950 . S
C2105 C2104 1.373 . S
C2105 C2121 1.377 . S
C2106 C2104 1.389 . S
C2106 C2107 1.524 . S
C2106 C2120 1.377 . S
C2107 C2106 1.524 . S
C2107 C2108 1.397 . S
C2107 C2112 1.363 . S
C2108 H2085 0.950 . S
C2108 C2107 1.397 . S
C2108 C2109 1.334 . S
C2109 H2086 0.950 . S
C2109 C2108 1.334 . S
C2109 C2110 1.287 . S
C2110 C2109 1.287 . S
C2110 C2111 1.524 . S
C2110 H2129 0.913 . S
C2111 H2087 0.950 . S
C2111 C2110 1.524 . S
C2111 C2112 1.415 . S
C2112 H2088 0.950 . S
C2112 C2107 1.363 . S
C2112 C2111 1.415 . S
C2113 H2089 0.951 . S
C2113 C2114 1.366 . S
C2113 C2115 1.388 . S
C2114 C2113 1.366 . S
C2114 C2118 1.385 . S
C2115 H2090 0.951 . S
C2115 C2113 1.388 . S
C2115 C2116 1.366 . S
C2116 C2115 1.366 . S
C2116 C2117 1.414 . S
C2116 C2119 1.499 . S
C2117 H2091 0.950 . S
C2117 C2116 1.414 . S
C2117 C2118 1.374 . S
C2118 H2092 0.950 . S
C2118 C2114 1.385 . S
C2118 C2117 1.374 . S
C2119 C2116 1.499 . S
C2119 C2120 1.373 . S
C2119 C2121 1.389 . S
C2120 H2093 0.950 . S
C2120 C2106 1.377 . S
C2120 C2119 1.373 . S
C2121 C2105 1.377 . S
C2121 C2119 1.389 . S
C2121 C2122 1.524 . S
C2122 C2121 1.524 . S
C2122 C2123 1.397 . S
C2122 C2127 1.363 . S
C2123 H2094 0.950 . S
C2123 C2122 1.397 . S
C2123 C2124 1.334 . S
C2124 H2095 0.950 . S
C2124 C2123 1.334 . S
C2124 C2125 1.287 . S
C2125 C2124 1.287 . S
C2125 C2126 1.524 . S
C2125 H2128 0.999 . S
C2126 H2096 0.950 . S
C2126 C2125 1.524 . S
C2126 C2127 1.415 . S
C2127 H2097 0.950 . S
C2127 C2122 1.363 . S
C2127 C2126 1.415 . S
H2128 C2125 0.999 . S
H2129 C2110 0.913 . S
H2130 C2148 0.951 . S
H2131 C2150 0.951 . S
H2132 C2152 0.950 . S
H2133 C2153 0.950 . S
H2134 C2155 0.950 . S
H2135 C2158 0.950 . S
H2136 C2159 0.950 . S
H2137 C2161 0.950 . S
H2138 C2162 0.950 . S
H2139 C2163 0.951 . S
H2140 C2165 0.951 . S
H2141 C2167 0.950 . S
H2142 C2168 0.950 . S
H2143 C2170 0.950 . S
H2144 C2173 0.950 . S
H2145 C2174 0.950 . S
H2146 C2176 0.950 . S
H2147 C2177 0.950 . S
C2148 H2130 0.951 . S
C2148 C2149 1.366 . S
C2148 C2150 1.388 . S
C2149 C2148 1.366 . S
C2149 C2153 1.385 . S
C2150 H2131 0.951 . S
C2150 C2148 1.388 . S
C2150 C2151 1.366 . S
C2151 C2150 1.366 . S
C2151 C2152 1.414 . S
C2151 C2154 1.499 . S
C2152 H2132 0.950 . S
C2152 C2151 1.414 . S
C2152 C2153 1.374 . S
C2153 H2133 0.950 . S
C2153 C2149 1.385 . S
C2153 C2152 1.374 . S
C2154 C2151 1.499 . S
C2154 C2155 1.373 . S
C2154 C2156 1.389 . S
C2155 H2134 0.950 . S
C2155 C2154 1.373 . S
C2155 C2171 1.377 . S
C2156 C2154 1.389 . S
C2156 C2157 1.524 . S
C2156 C2170 1.377 . S
C2157 C2156 1.524 . S
C2157 C2158 1.397 . S
C2157 C2162 1.363 . S
C2158 H2135 0.950 . S
C2158 C2157 1.397 . S
C2158 C2159 1.334 . S
C2159 H2136 0.950 . S
C2159 C2158 1.334 . S
C2159 C2160 1.287 . S
C2160 C2159 1.287 . S
C2160 C2161 1.524 . S
C2160 H2179 0.913 . S
C2161 H2137 0.950 . S
C2161 C2160 1.524 . S
C2161 C2162 1.415 . S
C2162 H2138 0.950 . S
C2162 C2157 1.363 . S
C2162 C2161 1.415 . S
C2163 H2139 0.951 . S
C2163 C2164 1.366 . S
C2163 C2165 1.388 . S
C2164 C2163 1.366 . S
C2164 C2168 1.385 . S
C2165 H2140 0.951 . S
C2165 C2163 1.388 . S
C2165 C2166 1.366 . S
C2166 C2165 1.366 . S
C2166 C2167 1.414 . S
C2166 C2169 1.499 . S
C2167 H2141 0.950 . S
C2167 C2166 1.414 . S
C2167 C2168 1.374 . S
C2168 H2142 0.950 . S
C2168 C2164 1.385 . S
C2168 C2167 1.374 . S
C2169 C2166 1.499 . S
C2169 C2170 1.373 . S
C2169 C2171 1.389 . S
C2170 H2143 0.950 . S
C2170 C2156 1.377 . S
C2170 C2169 1.373 . S
C2171 C2155 1.377 . S
C2171 C2169 1.389 . S
C2171 C2172 1.524 . S
C2172 C2171 1.524 . S
C2172 C2173 1.397 . S
C2172 C2177 1.363 . S
C2173 H2144 0.950 . S
C2173 C2172 1.397 . S
C2173 C2174 1.334 . S
C2174 H2145 0.950 . S
C2174 C2173 1.334 . S
C2174 C2175 1.287 . S
C2175 C2174 1.287 . S
C2175 C2176 1.524 . S
C2175 H2178 0.999 . S
C2176 H2146 0.950 . S
C2176 C2175 1.524 . S
C2176 C2177 1.415 . S
C2177 H2147 0.950 . S
C2177 C2172 1.363 . S
C2177 C2176 1.415 . S
H2178 C2175 0.999 . S
H2179 C2160 0.913 . S
H2180 C2198 0.951 . S
H2181 C2200 0.951 . S
H2182 C2202 0.950 . S
H2183 C2203 0.950 . S
H2184 C2205 0.950 . S
H2185 C2208 0.950 . S
H2186 C2209 0.950 . S
H2187 C2211 0.950 . S
H2188 C2212 0.950 . S
H2189 C2213 0.951 . S
H2190 C2215 0.951 . S
H2191 C2217 0.950 . S
H2192 C2218 0.950 . S
H2193 C2220 0.950 . S
H2194 C2223 0.950 . S
H2195 C2224 0.950 . S
H2196 C2226 0.950 . S
H2197 C2227 0.950 . S
C2198 H2180 0.951 . S
C2198 C2199 1.366 . S
C2198 C2200 1.388 . S
C2199 C2198 1.366 . S
C2199 C2203 1.385 . S
C2200 H2181 0.951 . S
C2200 C2198 1.388 . S
C2200 C2201 1.366 . S
C2201 C2200 1.366 . S
C2201 C2202 1.414 . S
C2201 C2204 1.499 . S
C2202 H2182 0.950 . S
C2202 C2201 1.414 . S
C2202 C2203 1.374 . S
C2203 H2183 0.950 . S
C2203 C2199 1.385 . S
C2203 C2202 1.374 . S
C2204 C2201 1.499 . S
C2204 C2205 1.373 . S
C2204 C2206 1.389 . S
C2205 H2184 0.950 . S
C2205 C2204 1.373 . S
C2205 C2221 1.377 . S
C2206 C2204 1.389 . S
C2206 C2207 1.524 . S
C2206 C2220 1.377 . S
C2207 C2206 1.524 . S
C2207 C2208 1.397 . S
C2207 C2212 1.363 . S
C2208 H2185 0.950 . S
C2208 C2207 1.397 . S
C2208 C2209 1.334 . S
C2209 H2186 0.950 . S
C2209 C2208 1.334 . S
C2209 C2210 1.287 . S
C2210 C2209 1.287 . S
C2210 C2211 1.524 . S
C2210 H2229 0.913 . S
C2211 H2187 0.950 . S
C2211 C2210 1.524 . S
C2211 C2212 1.415 . S
C2212 H2188 0.950 . S
C2212 C2207 1.363 . S
C2212 C2211 1.415 . S
C2213 H2189 0.951 . S
C2213 C2214 1.366 . S
C2213 C2215 1.388 . S
C2214 C2213 1.366 . S
C2214 C2218 1.385 . S
C2215 H2190 0.951 . S
C2215 C2213 1.388 . S
C2215 C2216 1.366 . S
C2216 C2215 1.366 . S
C2216 C2217 1.414 . S
C2216 C2219 1.499 . S
C2217 H2191 0.950 . S
C2217 C2216 1.414 . S
C2217 C2218 1.374 . S
C2218 H2192 0.950 . S
C2218 C2214 1.385 . S
C2218 C2217 1.374 . S
C2219 C2216 1.499 . S
C2219 C2220 1.373 . S
C2219 C2221 1.389 . S
C2220 H2193 0.950 . S
C2220 C2206 1.377 . S
C2220 C2219 1.373 . S
C2221 C2205 1.377 . S
C2221 C2219 1.389 . S
C2221 C2222 1.524 . S
C2222 C2221 1.524 . S
C2222 C2223 1.397 . S
C2222 C2227 1.363 . S
C2223 H2194 0.950 . S
C2223 C2222 1.397 . S
C2223 C2224 1.334 . S
C2224 H2195 0.950 . S
C2224 C2223 1.334 . S
C2224 C2225 1.287 . S
C2225 C2224 1.287 . S
C2225 C2226 1.524 . S
C2225 H2228 0.999 . S
C2226 H2196 0.950 . S
C2226 C2225 1.524 . S
C2226 C2227 1.415 . S
C2227 H2197 0.950 . S
C2227 C2222 1.363 . S
C2227 C2226 1.415 . S
H2228 C2225 0.999 . S
H2229 C2210 0.913 . S
H2230 C2248 0.951 . S
H2231 C2250 0.951 . S
H2232 C2252 0.950 . S
H2233 C2253 0.950 . S
H2234 C2255 0.950 . S
H2235 C2258 0.950 . S
H2236 C2259 0.950 . S
H2237 C2261 0.950 . S
H2238 C2262 0.950 . S
H2239 C2263 0.951 . S
H2240 C2265 0.951 . S
H2241 C2267 0.950 . S
H2242 C2268 0.950 . S
H2243 C2270 0.950 . S
H2244 C2273 0.950 . S
H2245 C2274 0.950 . S
H2246 C2276 0.950 . S
H2247 C2277 0.950 . S
C2248 H2230 0.951 . S
C2248 C2249 1.366 . S
C2248 C2250 1.388 . S
C2249 C2248 1.366 . S
C2249 C2253 1.385 . S
C2250 H2231 0.951 . S
C2250 C2248 1.388 . S
C2250 C2251 1.366 . S
C2251 C2250 1.366 . S
C2251 C2252 1.414 . S
C2251 C2254 1.499 . S
C2252 H2232 0.950 . S
C2252 C2251 1.414 . S
C2252 C2253 1.374 . S
C2253 H2233 0.950 . S
C2253 C2249 1.385 . S
C2253 C2252 1.374 . S
C2254 C2251 1.499 . S
C2254 C2255 1.373 . S
C2254 C2256 1.389 . S
C2255 H2234 0.950 . S
C2255 C2254 1.373 . S
C2255 C2271 1.377 . S
C2256 C2254 1.389 . S
C2256 C2257 1.524 . S
C2256 C2270 1.377 . S
C2257 C2256 1.524 . S
C2257 C2258 1.397 . S
C2257 C2262 1.363 . S
C2258 H2235 0.950 . S
C2258 C2257 1.397 . S
C2258 C2259 1.334 . S
C2259 H2236 0.950 . S
C2259 C2258 1.334 . S
C2259 C2260 1.287 . S
C2260 C2259 1.287 . S
C2260 C2261 1.524 . S
C2260 H2279 0.913 . S
C2261 H2237 0.950 . S
C2261 C2260 1.524 . S
C2261 C2262 1.415 . S
C2262 H2238 0.950 . S
C2262 C2257 1.363 . S
C2262 C2261 1.415 . S
C2263 H2239 0.951 . S
C2263 C2264 1.366 . S
C2263 C2265 1.388 . S
C2264 C2263 1.366 . S
C2264 C2268 1.385 . S
C2265 H2240 0.951 . S
C2265 C2263 1.388 . S
C2265 C2266 1.366 . S
C2266 C2265 1.366 . S
C2266 C2267 1.414 . S
C2266 C2269 1.499 . S
C2267 H2241 0.950 . S
C2267 C2266 1.414 . S
C2267 C2268 1.374 . S
C2268 H2242 0.950 . S
C2268 C2264 1.385 . S
C2268 C2267 1.374 . S
C2269 C2266 1.499 . S
C2269 C2270 1.373 . S
C2269 C2271 1.389 . S
C2270 H2243 0.950 . S
C2270 C2256 1.377 . S
C2270 C2269 1.373 . S
C2271 C2255 1.377 . S
C2271 C2269 1.389 . S
C2271 C2272 1.524 . S
C2272 C2271 1.524 . S
C2272 C2273 1.397 . S
C2272 C2277 1.363 . S
C2273 H2244 0.950 . S
C2273 C2272 1.397 . S
C2273 C2274 1.334 . S
C2274 H2245 0.950 . S
C2274 C2273 1.334 . S
C2274 C2275 1.287 . S
C2275 C2274 1.287 . S
C2275 C2276 1.524 . S
C2275 H2278 0.999 . S
C2276 H2246 0.950 . S
C2276 C2275 1.524 . S
C2276 C2277 1.415 . S
C2277 H2247 0.950 . S
C2277 C2272 1.363 . S
C2277 C2276 1.415 . S
H2278 C2275 0.999 . S
H2279 C2260 0.913 . S
H2280 C2298 0.951 . S
H2281 C2300 0.951 . S
H2282 C2302 0.950 . S
H2283 C2303 0.950 . S
H2284 C2305 0.950 . S
H2285 C2308 0.950 . S
H2286 C2309 0.950 . S
H2287 C2311 0.950 . S
H2288 C2312 0.950 . S
H2289 C2313 0.951 . S
H2290 C2315 0.951 . S
H2291 C2317 0.950 . S
H2292 C2318 0.950 . S
H2293 C2320 0.950 . S
H2294 C2323 0.950 . S
H2295 C2324 0.950 . S
H2296 C2326 0.950 . S
H2297 C2327 0.950 . S
C2298 H2280 0.951 . S
C2298 C2299 1.366 . S
C2298 C2300 1.388 . S
C2299 C2298 1.366 . S
C2299 C2303 1.385 . S
C2300 H2281 0.951 . S
C2300 C2298 1.388 . S
C2300 C2301 1.366 . S
C2301 C2300 1.366 . S
C2301 C2302 1.414 . S
C2301 C2304 1.499 . S
C2302 H2282 0.950 . S
C2302 C2301 1.414 . S
C2302 C2303 1.374 . S
C2303 H2283 0.950 . S
C2303 C2299 1.385 . S
C2303 C2302 1.374 . S
C2304 C2301 1.499 . S
C2304 C2305 1.373 . S
C2304 C2306 1.389 . S
C2305 H2284 0.950 . S
C2305 C2304 1.373 . S
C2305 C2321 1.377 . S
C2306 C2304 1.389 . S
C2306 C2307 1.524 . S
C2306 C2320 1.377 . S
C2307 C2306 1.524 . S
C2307 C2308 1.397 . S
C2307 C2312 1.363 . S
C2308 H2285 0.950 . S
C2308 C2307 1.397 . S
C2308 C2309 1.334 . S
C2309 H2286 0.950 . S
C2309 C2308 1.334 . S
C2309 C2310 1.287 . S
C2310 C2309 1.287 . S
C2310 C2311 1.524 . S
C2310 H2329 0.913 . S
C2311 H2287 0.950 . S
C2311 C2310 1.524 . S
C2311 C2312 1.415 . S
C2312 H2288 0.950 . S
C2312 C2307 1.363 . S
C2312 C2311 1.415 . S
C2313 H2289 0.951 . S
C2313 C2314 1.366 . S
C2313 C2315 1.388 . S
C2314 C2313 1.366 . S
C2314 C2318 1.385 . S
C2315 H2290 0.951 . S
C2315 C2313 1.388 . S
C2315 C2316 1.366 . S
C2316 C2315 1.366 . S
C2316 C2317 1.414 . S
C2316 C2319 1.499 . S
C2317 H2291 0.950 . S
C2317 C2316 1.414 . S
C2317 C2318 1.374 . S
C2318 H2292 0.950 . S
C2318 C2314 1.385 . S
C2318 C2317 1.374 . S
C2319 C2316 1.499 . S
C2319 C2320 1.373 . S
C2319 C2321 1.389 . S
C2320 H2293 0.950 . S
C2320 C2306 1.377 . S
C2320 C2319 1.373 . S
C2321 C2305 1.377 . S
C2321 C2319 1.389 . S
C2321 C2322 1.524 . S
C2322 C2321 1.524 . S
C2322 C2323 1.397 . S
C2322 C2327 1.363 . S
C2323 H2294 0.950 . S
C2323 C2322 1.397 . S
C2323 C2324 1.334 . S
C2324 H2295 0.950 . S
C2324 C2323 1.334 . S
C2324 C2325 1.287 . S
C2325 C2324 1.287 . S
C2325 C2326 1.524 . S
C2325 H2328 0.999 . S
C2326 H2296 0.950 . S
C2326 C2325 1.524 . S
C2326 C2327 1.415 . S
C2327 H2297 0.950 . S
C2327 C2322 1.363 . S
C2327 C2326 1.415 . S
H2328 C2325 0.999 . S
H2329 C2310 0.913 . S
H2330 C2348 0.951 . S
H2331 C2350 0.951 . S
H2332 C2352 0.950 . S
H2333 C2353 0.950 . S
H2334 C2355 0.950 . S
H2335 C2358 0.950 . S
H2336 C2359 0.950 . S
H2337 C2361 0.950 . S
H2338 C2362 0.950 . S
H2339 C2363 0.951 . S
H2340 C2365 0.951 . S
H2341 C2367 0.950 . S
H2342 C2368 0.950 . S
H2343 C2370 0.950 . S
H2344 C2373 0.950 . S
H2345 C2374 0.950 . S
H2346 C2376 0.950 . S
H2347 C2377 0.950 . S
C2348 H2330 0.951 . S
C2348 C2349 1.366 . S
C2348 C2350 1.388 . S
C2349 C2348 1.366 . S
C2349 C2353 1.385 . S
C2350 H2331 0.951 . S
C2350 C2348 1.388 . S
C2350 C2351 1.366 . S
C2351 C2350 1.366 . S
C2351 C2352 1.414 . S
C2351 C2354 1.499 . S
C2352 H2332 0.950 . S
C2352 C2351 1.414 . S
C2352 C2353 1.374 . S
C2353 H2333 0.950 . S
C2353 C2349 1.385 . S
C2353 C2352 1.374 . S
C2354 C2351 1.499 . S
C2354 C2355 1.373 . S
C2354 C2356 1.389 . S
C2355 H2334 0.950 . S
C2355 C2354 1.373 . S
C2355 C2371 1.377 . S
C2356 C2354 1.389 . S
C2356 C2357 1.524 . S
C2356 C2370 1.377 . S
C2357 C2356 1.524 . S
C2357 C2358 1.397 . S
C2357 C2362 1.363 . S
C2358 H2335 0.950 . S
C2358 C2357 1.397 . S
C2358 C2359 1.334 . S
C2359 H2336 0.950 . S
C2359 C2358 1.334 . S
C2359 C2360 1.287 . S
C2360 C2359 1.287 . S
C2360 C2361 1.524 . S
C2360 H2379 0.913 . S
C2361 H2337 0.950 . S
C2361 C2360 1.524 . S
C2361 C2362 1.415 . S
C2362 H2338 0.950 . S
C2362 C2357 1.363 . S
C2362 C2361 1.415 . S
C2363 H2339 0.951 . S
C2363 C2364 1.366 . S
C2363 C2365 1.388 . S
C2364 C2363 1.366 . S
C2364 C2368 1.385 . S
C2365 H2340 0.951 . S
C2365 C2363 1.388 . S
C2365 C2366 1.366 . S
C2366 C2365 1.366 . S
C2366 C2367 1.414 . S
C2366 C2369 1.499 . S
C2367 H2341 0.950 . S
C2367 C2366 1.414 . S
C2367 C2368 1.374 . S
C2368 H2342 0.950 . S
C2368 C2364 1.385 . S
C2368 C2367 1.374 . S
C2369 C2366 1.499 . S
C2369 C2370 1.373 . S
C2369 C2371 1.389 . S
C2370 H2343 0.950 . S
C2370 C2356 1.377 . S
C2370 C2369 1.373 . S
C2371 C2355 1.377 . S
C2371 C2369 1.389 . S
C2371 C2372 1.524 . S
C2372 C2371 1.524 . S
C2372 C2373 1.397 . S
C2372 C2377 1.363 . S
C2373 H2344 0.950 . S
C2373 C2372 1.397 . S
C2373 C2374 1.334 . S
C2374 H2345 0.950 . S
C2374 C2373 1.334 . S
C2374 C2375 1.287 . S
C2375 C2374 1.287 . S
C2375 C2376 1.524 . S
C2375 H2378 0.999 . S
C2376 H2346 0.950 . S
C2376 C2375 1.524 . S
C2376 C2377 1.415 . S
C2377 H2347 0.950 . S
C2377 C2372 1.363 . S
C2377 C2376 1.415 . S
H2378 C2375 0.999 . S
H2379 C2360 0.913 . S
H2380 C2398 0.951 . S
H2381 C2400 0.951 . S
H2382 C2402 0.950 . S
H2383 C2403 0.950 . S
H2384 C2405 0.950 . S
H2385 C2408 0.950 . S
H2386 C2409 0.950 . S
H2387 C2411 0.950 . S
H2388 C2412 0.950 . S
H2389 C2413 0.951 . S
H2390 C2415 0.951 . S
H2391 C2417 0.950 . S
H2392 C2418 0.950 . S
H2393 C2420 0.950 . S
H2394 C2423 0.950 . S
H2395 C2424 0.950 . S
H2396 C2426 0.950 . S
H2397 C2427 0.950 . S
C2398 H2380 0.951 . S
C2398 C2399 1.366 . S
C2398 C2400 1.388 . S
C2399 C2398 1.366 . S
C2399 C2403 1.385 . S
C2400 H2381 0.951 . S
C2400 C2398 1.388 . S
C2400 C2401 1.366 . S
C2401 C2400 1.366 . S
C2401 C2402 1.414 . S
C2401 C2404 1.499 . S
C2402 H2382 0.950 . S
C2402 C2401 1.414 . S
C2402 C2403 1.374 . S
C2403 H2383 0.950 . S
C2403 C2399 1.385 . S
C2403 C2402 1.374 . S
C2404 C2401 1.499 . S
C2404 C2405 1.373 . S
C2404 C2406 1.389 . S
C2405 H2384 0.950 . S
C2405 C2404 1.373 . S
C2405 C2421 1.377 . S
C2406 C2404 1.389 . S
C2406 C2407 1.524 . S
C2406 C2420 1.377 . S
C2407 C2406 1.524 . S
C2407 C2408 1.397 . S
C2407 C2412 1.363 . S
C2408 H2385 0.950 . S
C2408 C2407 1.397 . S
C2408 C2409 1.334 . S
C2409 H2386 0.950 . S
C2409 C2408 1.334 . S
C2409 C2410 1.287 . S
C2410 C2409 1.287 . S
C2410 C2411 1.524 . S
C2410 H2429 0.913 . S
C2411 H2387 0.950 . S
C2411 C2410 1.524 . S
C2411 C2412 1.415 . S
C2412 H2388 0.950 . S
C2412 C2407 1.363 . S
C2412 C2411 1.415 . S
C2413 H2389 0.951 . S
C2413 C2414 1.366 . S
C2413 C2415 1.388 . S
C2414 C2413 1.366 . S
C2414 C2418 1.385 . S
C2415 H2390 0.951 . S
C2415 C2413 1.388 . S
C2415 C2416 1.366 . S
C2416 C2415 1.366 . S
C2416 C2417 1.414 . S
C2416 C2419 1.499 . S
C2417 H2391 0.950 . S
C2417 C2416 1.414 . S
C2417 C2418 1.374 . S
C2418 H2392 0.950 . S
C2418 C2414 1.385 . S
C2418 C2417 1.374 . S
C2419 C2416 1.499 . S
C2419 C2420 1.373 . S
C2419 C2421 1.389 . S
C2420 H2393 0.950 . S
C2420 C2406 1.377 . S
C2420 C2419 1.373 . S
C2421 C2405 1.377 . S
C2421 C2419 1.389 . S
C2421 C2422 1.524 . S
C2422 C2421 1.524 . S
C2422 C2423 1.397 . S
C2422 C2427 1.363 . S
C2423 H2394 0.950 . S
C2423 C2422 1.397 . S
C2423 C2424 1.334 . S
C2424 H2395 0.950 . S
C2424 C2423 1.334 . S
C2424 C2425 1.287 . S
C2425 C2424 1.287 . S
C2425 C2426 1.524 . S
C2425 H2428 0.999 . S
C2426 H2396 0.950 . S
C2426 C2425 1.524 . S
C2426 C2427 1.415 . S
C2427 H2397 0.950 . S
C2427 C2422 1.363 . S
C2427 C2426 1.415 . S
H2428 C2425 0.999 . S
H2429 C2410 0.913 . S
H2430 C2448 0.951 . S
H2431 C2450 0.951 . S
H2432 C2452 0.950 . S
H2433 C2453 0.950 . S
H2434 C2455 0.950 . S
H2435 C2458 0.950 . S
H2436 C2459 0.950 . S
H2437 C2461 0.950 . S
H2438 C2462 0.950 . S
H2439 C2463 0.951 . S
H2440 C2465 0.951 . S
H2441 C2467 0.950 . S
H2442 C2468 0.950 . S
H2443 C2470 0.950 . S
H2444 C2473 0.950 . S
H2445 C2474 0.950 . S
H2446 C2476 0.950 . S
H2447 C2477 0.950 . S
C2448 H2430 0.951 . S
C2448 C2449 1.366 . S
C2448 C2450 1.388 . S
C2449 C2448 1.366 . S
C2449 C2453 1.385 . S
C2450 H2431 0.951 . S
C2450 C2448 1.388 . S
C2450 C2451 1.366 . S
C2451 C2450 1.366 . S
C2451 C2452 1.414 . S
C2451 C2454 1.499 . S
C2452 H2432 0.950 . S
C2452 C2451 1.414 . S
C2452 C2453 1.374 . S
C2453 H2433 0.950 . S
C2453 C2449 1.385 . S
C2453 C2452 1.374 . S
C2454 C2451 1.499 . S
C2454 C2455 1.373 . S
C2454 C2456 1.389 . S
C2455 H2434 0.950 . S
C2455 C2454 1.373 . S
C2455 C2471 1.377 . S
C2456 C2454 1.389 . S
C2456 C2457 1.524 . S
C2456 C2470 1.377 . S
C2457 C2456 1.524 . S
C2457 C2458 1.397 . S
C2457 C2462 1.363 . S
C2458 H2435 0.950 . S
C2458 C2457 1.397 . S
C2458 C2459 1.334 . S
C2459 H2436 0.950 . S
C2459 C2458 1.334 . S
C2459 C2460 1.287 . S
C2460 C2459 1.287 . S
C2460 C2461 1.524 . S
C2460 H2479 0.913 . S
C2461 H2437 0.950 . S
C2461 C2460 1.524 . S
C2461 C2462 1.415 . S
C2462 H2438 0.950 . S
C2462 C2457 1.363 . S
C2462 C2461 1.415 . S
C2463 H2439 0.951 . S
C2463 C2464 1.366 . S
C2463 C2465 1.388 . S
C2464 C2463 1.366 . S
C2464 C2468 1.385 . S
C2465 H2440 0.951 . S
C2465 C2463 1.388 . S
C2465 C2466 1.366 . S
C2466 C2465 1.366 . S
C2466 C2467 1.414 . S
C2466 C2469 1.499 . S
C2467 H2441 0.950 . S
C2467 C2466 1.414 . S
C2467 C2468 1.374 . S
C2468 H2442 0.950 . S
C2468 C2464 1.385 . S
C2468 C2467 1.374 . S
C2469 C2466 1.499 . S
C2469 C2470 1.373 . S
C2469 C2471 1.389 . S
C2470 H2443 0.950 . S
C2470 C2456 1.377 . S
C2470 C2469 1.373 . S
C2471 C2455 1.377 . S
C2471 C2469 1.389 . S
C2471 C2472 1.524 . S
C2472 C2471 1.524 . S
C2472 C2473 1.397 . S
C2472 C2477 1.363 . S
C2473 H2444 0.950 . S
C2473 C2472 1.397 . S
C2473 C2474 1.334 . S
C2474 H2445 0.950 . S
C2474 C2473 1.334 . S
C2474 C2475 1.287 . S
C2475 C2474 1.287 . S
C2475 C2476 1.524 . S
C2475 H2478 0.999 . S
C2476 H2446 0.950 . S
C2476 C2475 1.524 . S
C2476 C2477 1.415 . S
C2477 H2447 0.950 . S
C2477 C2472 1.363 . S
C2477 C2476 1.415 . S
H2478 C2475 0.999 . S
H2479 C2460 0.913 . S
H2480 C2498 0.951 . S
H2481 C2500 0.951 . S
H2482 C2502 0.950 . S
H2483 C2503 0.950 . S
H2484 C2505 0.950 . S
H2485 C2508 0.950 . S
H2486 C2509 0.950 . S
H2487 C2511 0.950 . S
H2488 C2512 0.950 . S
H2489 C2513 0.951 . S
H2490 C2515 0.951 . S
H2491 C2517 0.950 . S
H2492 C2518 0.950 . S
H2493 C2520 0.950 . S
H2494 C2523 0.950 . S
H2495 C2524 0.950 . S
H2496 C2526 0.950 . S
H2497 C2527 0.950 . S
C2498 H2480 0.951 . S
C2498 C2499 1.366 . S
C2498 C2500 1.388 . S
C2499 C2498 1.366 . S
C2499 C2503 1.385 . S
C2500 H2481 0.951 . S
C2500 C2498 1.388 . S
C2500 C2501 1.366 . S
C2501 C2500 1.366 . S
C2501 C2502 1.414 . S
C2501 C2504 1.499 . S
C2502 H2482 0.950 . S
C2502 C2501 1.414 . S
C2502 C2503 1.374 . S
C2503 H2483 0.950 . S
C2503 C2499 1.385 . S
C2503 C2502 1.374 . S
C2504 C2501 1.499 . S
C2504 C2505 1.373 . S
C2504 C2506 1.389 . S
C2505 H2484 0.950 . S
C2505 C2504 1.373 . S
C2505 C2521 1.377 . S
C2506 C2504 1.389 . S
C2506 C2507 1.524 . S
C2506 C2520 1.377 . S
C2507 C2506 1.524 . S
C2507 C2508 1.397 . S
C2507 C2512 1.363 . S
C2508 H2485 0.950 . S
C2508 C2507 1.397 . S
C2508 C2509 1.334 . S
C2509 H2486 0.950 . S
C2509 C2508 1.334 . S
C2509 C2510 1.287 . S
C2510 C2509 1.287 . S
C2510 C2511 1.524 . S
C2510 H2529 0.913 . S
C2511 H2487 0.950 . S
C2511 C2510 1.524 . S
C2511 C2512 1.415 . S
C2512 H2488 0.950 . S
C2512 C2507 1.363 . S
C2512 C2511 1.415 . S
C2513 H2489 0.951 . S
C2513 C2514 1.366 . S
C2513 C2515 1.388 . S
C2514 C2513 1.366 . S
C2514 C2518 1.385 . S
C2515 H2490 0.951 . S
C2515 C2513 1.388 . S
C2515 C2516 1.366 . S
C2516 C2515 1.366 . S
C2516 C2517 1.414 . S
C2516 C2519 1.499 . S
C2517 H2491 0.950 . S
C2517 C2516 1.414 . S
C2517 C2518 1.374 . S
C2518 H2492 0.950 . S
C2518 C2514 1.385 . S
C2518 C2517 1.374 . S
C2519 C2516 1.499 . S
C2519 C2520 1.373 . S
C2519 C2521 1.389 . S
C2520 H2493 0.950 . S
C2520 C2506 1.377 . S
C2520 C2519 1.373 . S
C2521 C2505 1.377 . S
C2521 C2519 1.389 . S
C2521 C2522 1.524 . S
C2522 C2521 1.524 . S
C2522 C2523 1.397 . S
C2522 C2527 1.363 . S
C2523 H2494 0.950 . S
C2523 C2522 1.397 . S
C2523 C2524 1.334 . S
C2524 H2495 0.950 . S
C2524 C2523 1.334 . S
C2524 C2525 1.287 . S
C2525 C2524 1.287 . S
C2525 C2526 1.524 . S
C2525 H2528 0.999 . S
C2526 H2496 0.950 . S
C2526 C2525 1.524 . S
C2526 C2527 1.415 . S
C2527 H2497 0.950 . S
C2527 C2522 1.363 . S
C2527 C2526 1.415 . S
H2528 C2525 0.999 . S
H2529 C2510 0.913 . S
H2530 C2548 0.951 . S
H2531 C2550 0.951 . S
H2532 C2552 0.950 . S
H2533 C2553 0.950 . S
H2534 C2555 0.950 . S
H2535 C2558 0.950 . S
H2536 C2559 0.950 . S
H2537 C2561 0.950 . S
H2538 C2562 0.950 . S
H2539 C2563 0.951 . S
H2540 C2565 0.951 . S
H2541 C2567 0.950 . S
H2542 C2568 0.950 . S
H2543 C2570 0.950 . S
H2544 C2573 0.950 . S
H2545 C2574 0.950 . S
H2546 C2576 0.950 . S
H2547 C2577 0.950 . S
C2548 H2530 0.951 . S
C2548 C2549 1.366 . S
C2548 C2550 1.388 . S
C2549 C2548 1.366 . S
C2549 C2553 1.385 . S
C2550 H2531 0.951 . S
C2550 C2548 1.388 . S
C2550 C2551 1.366 . S
C2551 C2550 1.366 . S
C2551 C2552 1.414 . S
C2551 C2554 1.499 . S
C2552 H2532 0.950 . S
C2552 C2551 1.414 . S
C2552 C2553 1.374 . S
C2553 H2533 0.950 . S
C2553 C2549 1.385 . S
C2553 C2552 1.374 . S
C2554 C2551 1.499 . S
C2554 C2555 1.373 . S
C2554 C2556 1.389 . S
C2555 H2534 0.950 . S
C2555 C2554 1.373 . S
C2555 C2571 1.377 . S
C2556 C2554 1.389 . S
C2556 C2557 1.524 . S
C2556 C2570 1.377 . S
C2557 C2556 1.524 . S
C2557 C2558 1.397 . S
C2557 C2562 1.363 . S
C2558 H2535 0.950 . S
C2558 C2557 1.397 . S
C2558 C2559 1.334 . S
C2559 H2536 0.950 . S
C2559 C2558 1.334 . S
C2559 C2560 1.287 . S
C2560 C2559 1.287 . S
C2560 C2561 1.524 . S
C2560 H2579 0.913 . S
C2561 H2537 0.950 . S
C2561 C2560 1.524 . S
C2561 C2562 1.415 . S
C2562 H2538 0.950 . S
C2562 C2557 1.363 . S
C2562 C2561 1.415 . S
C2563 H2539 0.951 . S
C2563 C2564 1.366 . S
C2563 C2565 1.388 . S
C2564 C2563 1.366 . S
C2564 C2568 1.385 . S
C2565 H2540 0.951 . S
C2565 C2563 1.388 . S
C2565 C2566 1.366 . S
C2566 C2565 1.366 . S
C2566 C2567 1.414 . S
C2566 C2569 1.499 . S
C2567 H2541 0.950 . S
C2567 C2566 1.414 . S
C2567 C2568 1.374 . S
C2568 H2542 0.950 . S
C2568 C2564 1.385 . S
C2568 C2567 1.374 . S
C2569 C2566 1.499 . S
C2569 C2570 1.373 . S
C2569 C2571 1.389 . S
C2570 H2543 0.950 . S
C2570 C2556 1.377 . S
C2570 C2569 1.373 . S
C2571 C2555 1.377 . S
C2571 C2569 1.389 . S
C2571 C2572 1.524 . S
C2572 C2571 1.524 . S
C2572 C2573 1.397 . S
C2572 C2577 1.363 . S
C2573 H2544 0.950 . S
C2573 C2572 1.397 . S
C2573 C2574 1.334 . S
C2574 H2545 0.950 . S
C2574 C2573 1.334 . S
C2574 C2575 1.287 . S
C2575 C2574 1.287 . S
C2575 C2576 1.524 . S
C2575 H2578 0.999 . S
C2576 H2546 0.950 . S
C2576 C2575 1.524 . S
C2576 C2577 1.415 . S
C2577 H2547 0.950 . S
C2577 C2572 1.363 . S
C2577 C2576 1.415 . S
H2578 C2575 0.999 . S
H2579 C2560 0.913 . S
H2580 C2598 0.951 . S
H2581 C2600 0.951 . S
H2582 C2602 0.950 . S
H2583 C2603 0.950 . S
H2584 C2605 0.950 . S
H2585 C2608 0.950 . S
H2586 C2609 0.950 . S
H2587 C2611 0.950 . S
H2588 C2612 0.950 . S
H2589 C2613 0.951 . S
H2590 C2615 0.951 . S
H2591 C2617 0.950 . S
H2592 C2618 0.950 . S
H2593 C2620 0.950 . S
H2594 C2623 0.950 . S
H2595 C2624 0.950 . S
H2596 C2626 0.950 . S
H2597 C2627 0.950 . S
C2598 H2580 0.951 . S
C2598 C2599 1.366 . S
C2598 C2600 1.388 . S
C2599 C2598 1.366 . S
C2599 C2603 1.385 . S
C2600 H2581 0.951 . S
C2600 C2598 1.388 . S
C2600 C2601 1.366 . S
C2601 C2600 1.366 . S
C2601 C2602 1.414 . S
C2601 C2604 1.499 . S
C2602 H2582 0.950 . S
C2602 C2601 1.414 . S
C2602 C2603 1.374 . S
C2603 H2583 0.950 . S
C2603 C2599 1.385 . S
C2603 C2602 1.374 . S
C2604 C2601 1.499 . S
C2604 C2605 1.373 . S
C2604 C2606 1.389 . S
C2605 H2584 0.950 . S
C2605 C2604 1.373 . S
C2605 C2621 1.377 . S
C2606 C2604 1.389 . S
C2606 C2607 1.524 . S
C2606 C2620 1.377 . S
C2607 C2606 1.524 . S
C2607 C2608 1.397 . S
C2607 C2612 1.363 . S
C2608 H2585 0.950 . S
C2608 C2607 1.397 . S
C2608 C2609 1.334 . S
C2609 H2586 0.950 . S
C2609 C2608 1.334 . S
C2609 C2610 1.287 . S
C2610 C2609 1.287 . S
C2610 C2611 1.524 . S
C2610 H2629 0.913 . S
C2611 H2587 0.950 . S
C2611 C2610 1.524 . S
C2611 C2612 1.415 . S
C2612 H2588 0.950 . S
C2612 C2607 1.363 . S
C2612 C2611 1.415 . S
C2613 H2589 0.951 . S
C2613 C2614 1.366 . S
C2613 C2615 1.388 . S
C2614 C2613 1.366 . S
C2614 C2618 1.385 . S
C2615 H2590 0.951 . S
C2615 C2613 1.388 . S
C2615 C2616 1.366 . S
C2616 C2615 1.366 . S
C2616 C2617 1.414 . S
C2616 C2619 1.499 . S
C2617 H2591 0.950 . S
C2617 C2616 1.414 . S
C2617 C2618 1.374 . S
C2618 H2592 0.950 . S
C2618 C2614 1.385 . S
C2618 C2617 1.374 . S
C2619 C2616 1.499 . S
C2619 C2620 1.373 . S
C2619 C2621 1.389 . S
C2620 H2593 0.950 . S
C2620 C2606 1.377 . S
C2620 C2619 1.373 . S
C2621 C2605 1.377 . S
C2621 C2619 1.389 . S
C2621 C2622 1.524 . S
C2622 C2621 1.524 . S
C2622 C2623 1.397 . S
C2622 C2627 1.363 . S
C2623 H2594 0.950 . S
C2623 C2622 1.397 . S
C2623 C2624 1.334 . S
C2624 H2595 0.950 . S
C2624 C2623 1.334 . S
C2624 C2625 1.287 . S
C2625 C2624 1.287 . S
C2625 C2626 1.524 . S
C2625 H2628 0.999 . S
C2626 H2596 0.950 . S
C2626 C2625 1.524 . S
C2626 C2627 1.415 . S
C2627 H2597 0.950 . S
C2627 C2622 1.363 . S
C2627 C2626 1.415 . S
H2628 C2625 0.999 . S
H2629 C2610 0.913 . S
H2630 C2648 0.951 . S
H2631 C2650 0.951 . S
H2632 C2652 0.950 . S
H2633 C2653 0.950 . S
H2634 C2655 0.950 . S
H2635 C2658 0.950 . S
H2636 C2659 0.950 . S
H2637 C2661 0.950 . S
H2638 C2662 0.950 . S
H2639 C2663 0.951 . S
H2640 C2665 0.951 . S
H2641 C2667 0.950 . S
H2642 C2668 0.950 . S
H2643 C2670 0.950 . S
H2644 C2673 0.950 . S
H2645 C2674 0.950 . S
H2646 C2676 0.950 . S
H2647 C2677 0.950 . S
C2648 H2630 0.951 . S
C2648 C2649 1.366 . S
C2648 C2650 1.388 . S
C2649 C2648 1.366 . S
C2649 C2653 1.385 . S
C2650 H2631 0.951 . S
C2650 C2648 1.388 . S
C2650 C2651 1.366 . S
C2651 C2650 1.366 . S
C2651 C2652 1.414 . S
C2651 C2654 1.499 . S
C2652 H2632 0.950 . S
C2652 C2651 1.414 . S
C2652 C2653 1.374 . S
C2653 H2633 0.950 . S
C2653 C2649 1.385 . S
C2653 C2652 1.374 . S
C2654 C2651 1.499 . S
C2654 C2655 1.373 . S
C2654 C2656 1.389 . S
C2655 H2634 0.950 . S
C2655 C2654 1.373 . S
C2655 C2671 1.377 . S
C2656 C2654 1.389 . S
C2656 C2657 1.524 . S
C2656 C2670 1.377 . S
C2657 C2656 1.524 . S
C2657 C2658 1.397 . S
C2657 C2662 1.363 . S
C2658 H2635 0.950 . S
C2658 C2657 1.397 . S
C2658 C2659 1.334 . S
C2659 H2636 0.950 . S
C2659 C2658 1.334 . S
C2659 C2660 1.287 . S
C2660 C2659 1.287 . S
C2660 C2661 1.524 . S
C2660 H2679 0.913 . S
C2661 H2637 0.950 . S
C2661 C2660 1.524 . S
C2661 C2662 1.415 . S
C2662 H2638 0.950 . S
C2662 C2657 1.363 . S
C2662 C2661 1.415 . S
C2663 H2639 0.951 . S
C2663 C2664 1.366 . S
C2663 C2665 1.388 . S
C2664 C2663 1.366 . S
C2664 C2668 1.385 . S
C2665 H2640 0.951 . S
C2665 C2663 1.388 . S
C2665 C2666 1.366 . S
C2666 C2665 1.366 . S
C2666 C2667 1.414 . S
C2666 C2669 1.499 . S
C2667 H2641 0.950 . S
C2667 C2666 1.414 . S
C2667 C2668 1.374 . S
C2668 H2642 0.950 . S
C2668 C2664 1.385 . S
C2668 C2667 1.374 . S
C2669 C2666 1.499 . S
C2669 C2670 1.373 . S
C2669 C2671 1.389 . S
C2670 H2643 0.950 . S
C2670 C2656 1.377 . S
C2670 C2669 1.373 . S
C2671 C2655 1.377 . S
C2671 C2669 1.389 . S
C2671 C2672 1.524 . S
C2672 C2671 1.524 . S
C2672 C2673 1.397 . S
C2672 C2677 1.363 . S
C2673 H2644 0.950 . S
C2673 C2672 1.397 . S
C2673 C2674 1.334 . S
C2674 H2645 0.950 . S
C2674 C2673 1.334 . S
C2674 C2675 1.287 . S
C2675 C2674 1.287 . S
C2675 C2676 1.524 . S
C2675 H2678 0.999 . S
C2676 H2646 0.950 . S
C2676 C2675 1.524 . S
C2676 C2677 1.415 . S
C2677 H2647 0.950 . S
C2677 C2672 1.363 . S
C2677 C2676 1.415 . S
H2678 C2675 0.999 . S
H2679 C2660 0.913 . S
H2680 C2698 0.951 . S
H2681 C2700 0.951 . S
H2682 C2702 0.950 . S
H2683 C2703 0.950 . S
H2684 C2705 0.950 . S
H2685 C2708 0.950 . S
H2686 C2709 0.950 . S
H2687 C2711 0.950 . S
H2688 C2712 0.950 . S
H2689 C2713 0.951 . S
H2690 C2715 0.951 . S
H2691 C2717 0.950 . S
H2692 C2718 0.950 . S
H2693 C2720 0.950 . S
H2694 C2723 0.950 . S
H2695 C2724 0.950 . S
H2696 C2726 0.950 . S
H2697 C2727 0.950 . S
C2698 H2680 0.951 . S
C2698 C2699 1.366 . S
C2698 C2700 1.388 . S
C2699 C2698 1.366 . S
C2699 C2703 1.385 . S
C2700 H2681 0.951 . S
C2700 C2698 1.388 . S
C2700 C2701 1.366 . S
C2701 C2700 1.366 . S
C2701 C2702 1.414 . S
C2701 C2704 1.499 . S
C2702 H2682 0.950 . S
C2702 C2701 1.414 . S
C2702 C2703 1.374 . S
C2703 H2683 0.950 . S
C2703 C2699 1.385 . S
C2703 C2702 1.374 . S
C2704 C2701 1.499 . S
C2704 C2705 1.373 . S
C2704 C2706 1.389 . S
C2705 H2684 0.950 . S
C2705 C2704 1.373 . S
C2705 C2721 1.377 . S
C2706 C2704 1.389 . S
C2706 C2707 1.524 . S
C2706 C2720 1.377 . S
C2707 C2706 1.524 . S
C2707 C2708 1.397 . S
C2707 C2712 1.363 . S
C2708 H2685 0.950 . S
C2708 C2707 1.397 . S
C2708 C2709 1.334 . S
C2709 H2686 0.950 . S
C2709 C2708 1.334 . S
C2709 C2710 1.287 . S
C2710 C2709 1.287 . S
C2710 C2711 1.524 . S
C2710 H2729 0.913 . S
C2711 H2687 0.950 . S
C2711 C2710 1.524 . S
C2711 C2712 1.415 . S
C2712 H2688 0.950 . S
C2712 C2707 1.363 . S
C2712 C2711 1.415 . S
C2713 H2689 0.951 . S
C2713 C2714 1.366 . S
C2713 C2715 1.388 . S
C2714 C2713 1.366 . S
C2714 C2718 1.385 . S
C2715 H2690 0.951 . S
C2715 C2713 1.388 . S
C2715 C2716 1.366 . S
C2716 C2715 1.366 . S
C2716 C2717 1.414 . S
C2716 C2719 1.499 . S
C2717 H2691 0.950 . S
C2717 C2716 1.414 . S
C2717 C2718 1.374 . S
C2718 H2692 0.950 . S
C2718 C2714 1.385 . S
C2718 C2717 1.374 . S
C2719 C2716 1.499 . S
C2719 C2720 1.373 . S
C2719 C2721 1.389 . S
C2720 H2693 0.950 . S
C2720 C2706 1.377 . S
C2720 C2719 1.373 . S
C2721 C2705 1.377 . S
C2721 C2719 1.389 . S
C2721 C2722 1.524 . S
C2722 C2721 1.524 . S
C2722 C2723 1.397 . S
C2722 C2727 1.363 . S
C2723 H2694 0.950 . S
C2723 C2722 1.397 . S
C2723 C2724 1.334 . S
C2724 H2695 0.950 . S
C2724 C2723 1.334 . S
C2724 C2725 1.287 . S
C2725 C2724 1.287 . S
C2725 C2726 1.524 . S
C2725 H2728 0.999 . S
C2726 H2696 0.950 . S
C2726 C2725 1.524 . S
C2726 C2727 1.415 . S
C2727 H2697 0.950 . S
C2727 C2722 1.363 . S
C2727 C2726 1.415 . S
H2728 C2725 0.999 . S
H2729 C2710 0.913 . S
H2730 C2748 0.951 . S
H2731 C2750 0.951 . S
H2732 C2752 0.950 . S
H2733 C2753 0.950 . S
H2734 C2755 0.950 . S
H2735 C2758 0.950 . S
H2736 C2759 0.950 . S
H2737 C2761 0.950 . S
H2738 C2762 0.950 . S
H2739 C2763 0.951 . S
H2740 C2765 0.951 . S
H2741 C2767 0.950 . S
H2742 C2768 0.950 . S
H2743 C2770 0.950 . S
H2744 C2773 0.950 . S
H2745 C2774 0.950 . S
H2746 C2776 0.950 . S
H2747 C2777 0.950 . S
C2748 H2730 0.951 . S
C2748 C2749 1.366 . S
C2748 C2750 1.388 . S
C2749 C2748 1.366 . S
C2749 C2753 1.385 . S
C2750 H2731 0.951 . S
C2750 C2748 1.388 . S
C2750 C2751 1.366 . S
C2751 C2750 1.366 . S
C2751 C2752 1.414 . S
C2751 C2754 1.499 . S
C2752 H2732 0.950 . S
C2752 C2751 1.414 . S
C2752 C2753 1.374 . S
C2753 H2733 0.950 . S
C2753 C2749 1.385 . S
C2753 C2752 1.374 . S
C2754 C2751 1.499 . S
C2754 C2755 1.373 . S
C2754 C2756 1.389 . S
C2755 H2734 0.950 . S
C2755 C2754 1.373 . S
C2755 C2771 1.377 . S
C2756 C2754 1.389 . S
C2756 C2757 1.524 . S
C2756 C2770 1.377 . S
C2757 C2756 1.524 . S
C2757 C2758 1.397 . S
C2757 C2762 1.363 . S
C2758 H2735 0.950 . S
C2758 C2757 1.397 . S
C2758 C2759 1.334 . S
C2759 H2736 0.950 . S
C2759 C2758 1.334 . S
C2759 C2760 1.287 . S
C2760 C2759 1.287 . S
C2760 C2761 1.524 . S
C2760 H2779 0.913 . S
C2761 H2737 0.950 . S
C2761 C2760 1.524 . S
C2761 C2762 1.415 . S
C2762 H2738 0.950 . S
C2762 C2757 1.363 . S
C2762 C2761 1.415 . S
C2763 H2739 0.951 . S
C2763 C2764 1.366 . S
C2763 C2765 1.388 . S
C2764 C2763 1.366 . S
C2764 C2768 1.385 . S
C2765 H2740 0.951 . S
C2765 C2763 1.388 . S
C2765 C2766 1.366 . S
C2766 C2765 1.366 . S
C2766 C2767 1.414 . S
C2766 C2769 1.499 . S
C2767 H2741 0.950 . S
C2767 C2766 1.414 . S
C2767 C2768 1.374 . S
C2768 H2742 0.950 . S
C2768 C2764 1.385 . S
C2768 C2767 1.374 . S
C2769 C2766 1.499 . S
C2769 C2770 1.373 . S
C2769 C2771 1.389 . S
C2770 H2743 0.950 . S
C2770 C2756 1.377 . S
C2770 C2769 1.373 . S
C2771 C2755 1.377 . S
C2771 C2769 1.389 . S
C2771 C2772 1.524 . S
C2772 C2771 1.524 . S
C2772 C2773 1.397 . S
C2772 C2777 1.363 . S
C2773 H2744 0.950 . S
C2773 C2772 1.397 . S
C2773 C2774 1.334 . S
C2774 H2745 0.950 . S
C2774 C2773 1.334 . S
C2774 C2775 1.287 . S
C2775 C2774 1.287 . S
C2775 C2776 1.524 . S
C2775 H2778 0.999 . S
C2776 H2746 0.950 . S
C2776 C2775 1.524 . S
C2776 C2777 1.415 . S
C2777 H2747 0.950 . S
C2777 C2772 1.363 . S
C2777 C2776 1.415 . S
H2778 C2775 0.999 . S
H2779 C2760 0.913 . S
H2780 C2798 0.951 . S
H2781 C2800 0.951 . S
H2782 C2802 0.950 . S
H2783 C2803 0.950 . S
H2784 C2805 0.950 . S
H2785 C2808 0.950 . S
H2786 C2809 0.950 . S
H2787 C2811 0.950 . S
H2788 C2812 0.950 . S
H2789 C2813 0.951 . S
H2790 C2815 0.951 . S
H2791 C2817 0.950 . S
H2792 C2818 0.950 . S
H2793 C2820 0.950 . S
H2794 C2823 0.950 . S
H2795 C2824 0.950 . S
H2796 C2826 0.950 . S
H2797 C2827 0.950 . S
C2798 H2780 0.951 . S
C2798 C2799 1.366 . S
C2798 C2800 1.388 . S
C2799 C2798 1.366 . S
C2799 C2803 1.385 . S
C2800 H2781 0.951 . S
C2800 C2798 1.388 . S
C2800 C2801 1.366 . S
C2801 C2800 1.366 . S
C2801 C2802 1.414 . S
C2801 C2804 1.499 . S
C2802 H2782 0.950 . S
C2802 C2801 1.414 . S
C2802 C2803 1.374 . S
C2803 H2783 0.950 . S
C2803 C2799 1.385 . S
C2803 C2802 1.374 . S
C2804 C2801 1.499 . S
C2804 C2805 1.373 . S
C2804 C2806 1.389 . S
C2805 H2784 0.950 . S
C2805 C2804 1.373 . S
C2805 C2821 1.377 . S
C2806 C2804 1.389 . S
C2806 C2807 1.524 . S
C2806 C2820 1.377 . S
C2807 C2806 1.524 . S
C2807 C2808 1.397 . S
C2807 C2812 1.363 . S
C2808 H2785 0.950 . S
C2808 C2807 1.397 . S
C2808 C2809 1.334 . S
C2809 H2786 0.950 . S
C2809 C2808 1.334 . S
C2809 C2810 1.287 . S
C2810 C2809 1.287 . S
C2810 C2811 1.524 . S
C2810 H2829 0.913 . S
C2811 H2787 0.950 . S
C2811 C2810 1.524 . S
C2811 C2812 1.415 . S
C2812 H2788 0.950 . S
C2812 C2807 1.363 . S
C2812 C2811 1.415 . S
C2813 H2789 0.951 . S
C2813 C2814 1.366 . S
C2813 C2815 1.388 . S
C2814 C2813 1.366 . S
C2814 C2818 1.385 . S
C2815 H2790 0.951 . S
C2815 C2813 1.388 . S
C2815 C2816 1.366 . S
C2816 C2815 1.366 . S
C2816 C2817 1.414 . S
C2816 C2819 1.499 . S
C2817 H2791 0.950 . S
C2817 C2816 1.414 . S
C2817 C2818 1.374 . S
C2818 H2792 0.950 . S
C2818 C2814 1.385 . S
C2818 C2817 1.374 . S
C2819 C2816 1.499 . S
C2819 C2820 1.373 . S
C2819 C2821 1.389 . S
C2820 H2793 0.950 . S
C2820 C2806 1.377 . S
C2820 C2819 1.373 . S
C2821 C2805 1.377 . S
C2821 C2819 1.389 . S
C2821 C2822 1.524 . S
C2822 C2821 1.524 . S
C2822 C2823 1.397 . S
C2822 C2827 1.363 . S
C2823 H2794 0.950 . S
C2823 C2822 1.397 . S
C2823 C2824 1.334 . S
C2824 H2795 0.950 . S
C2824 C2823 1.334 . S
C2824 C2825 1.287 . S
C2825 C2824 1.287 . S
C2825 C2826 1.524 . S
C2825 H2828 0.999 . S
C2826 H2796 0.950 . S
C2826 C2825 1.524 . S
C2826 C2827 1.415 . S
C2827 H2797 0.950 . S
C2827 C2822 1.363 . S
C2827 C2826 1.415 . S
H2828 C2825 0.999 . S
H2829 C2810 0.913 . S
H2830 C2848 0.951 . S
H2831 C2850 0.951 . S
H2832 C2852 0.950 . S
H2833 C2853 0.950 . S
H2834 C2855 0.950 . S
H2835 C2858 0.950 . S
H2836 C2859 0.950 . S
H2837 C2861 0.950 . S
H2838 C2862 0.950 . S
H2839 C2863 0.951 . S
H2840 C2865 0.951 . S
H2841 C2867 0.950 . S
H2842 C2868 0.950 . S
H2843 C2870 0.950 . S
H2844 C2873 0.950 . S
H2845 C2874 0.950 . S
H2846 C2876 0.950 . S
H2847 C2877 0.950 . S
C2848 H2830 0.951 . S
C2848 C2849 1.366 . S
C2848 C2850 1.388 . S
C2849 C2848 1.366 . S
C2849 C2853 1.385 . S
C2850 H2831 0.951 . S
C2850 C2848 1.388 . S
C2850 C2851 1.366 . S
C2851 C2850 1.366 . S
C2851 C2852 1.414 . S
C2851 C2854 1.499 . S
C2852 H2832 0.950 . S
C2852 C2851 1.414 . S
C2852 C2853 1.374 . S
C2853 H2833 0.950 . S
C2853 C2849 1.385 . S
C2853 C2852 1.374 . S
C2854 C2851 1.499 . S
C2854 C2855 1.373 . S
C2854 C2856 1.389 . S
C2855 H2834 0.950 . S
C2855 C2854 1.373 . S
C2855 C2871 1.377 . S
C2856 C2854 1.389 . S
C2856 C2857 1.524 . S
C2856 C2870 1.377 . S
C2857 C2856 1.524 . S
C2857 C2858 1.397 . S
C2857 C2862 1.363 . S
C2858 H2835 0.950 . S
C2858 C2857 1.397 . S
C2858 C2859 1.334 . S
C2859 H2836 0.950 . S
C2859 C2858 1.334 . S
C2859 C2860 1.287 . S
C2860 C2859 1.287 . S
C2860 C2861 1.524 . S
C2860 H2879 0.913 . S
C2861 H2837 0.950 . S
C2861 C2860 1.524 . S
C2861 C2862 1.415 . S
C2862 H2838 0.950 . S
C2862 C2857 1.363 . S
C2862 C2861 1.415 . S
C2863 H2839 0.951 . S
C2863 C2864 1.366 . S
C2863 C2865 1.388 . S
C2864 C2863 1.366 . S
C2864 C2868 1.385 . S
C2865 H2840 0.951 . S
C2865 C2863 1.388 . S
C2865 C2866 1.366 . S
C2866 C2865 1.366 . S
C2866 C2867 1.414 . S
C2866 C2869 1.499 . S
C2867 H2841 0.950 . S
C2867 C2866 1.414 . S
C2867 C2868 1.374 . S
C2868 H2842 0.950 . S
C2868 C2864 1.385 . S
C2868 C2867 1.374 . S
C2869 C2866 1.499 . S
C2869 C2870 1.373 . S
C2869 C2871 1.389 . S
C2870 H2843 0.950 . S
C2870 C2856 1.377 . S
C2870 C2869 1.373 . S
C2871 C2855 1.377 . S
C2871 C2869 1.389 . S
C2871 C2872 1.524 . S
C2872 C2871 1.524 . S
C2872 C2873 1.397 . S
C2872 C2877 1.363 . S
C2873 H2844 0.950 . S
C2873 C2872 1.397 . S
C2873 C2874 1.334 . S
C2874 H2845 0.950 . S
C2874 C2873 1.334 . S
C2874 C2875 1.287 . S
C2875 C2874 1.287 . S
C2875 C2876 1.524 . S
C2875 H2878 0.999 . S
C2876 H2846 0.950 . S
C2876 C2875 1.524 . S
C2876 C2877 1.415 . S
C2877 H2847 0.950 . S
C2877 C2872 1.363 . S
C2877 C2876 1.415 . S
H2878 C2875 0.999 . S
H2879 C2860 0.913 . S
H2880 C2898 0.951 . S
H2881 C2900 0.951 . S
H2882 C2902 0.950 . S
H2883 C2903 0.950 . S
H2884 C2905 0.950 . S
H2885 C2908 0.950 . S
H2886 C2909 0.950 . S
H2887 C2911 0.950 . S
H2888 C2912 0.950 . S
H2889 C2913 0.951 . S
H2890 C2915 0.951 . S
H2891 C2917 0.950 . S
H2892 C2918 0.950 . S
H2893 C2920 0.950 . S
H2894 C2923 0.950 . S
H2895 C2924 0.950 . S
H2896 C2926 0.950 . S
H2897 C2927 0.950 . S
C2898 H2880 0.951 . S
C2898 C2899 1.366 . S
C2898 C2900 1.388 . S
C2899 C2898 1.366 . S
C2899 C2903 1.385 . S
C2900 H2881 0.951 . S
C2900 C2898 1.388 . S
C2900 C2901 1.366 . S
C2901 C2900 1.366 . S
C2901 C2902 1.414 . S
C2901 C2904 1.499 . S
C2902 H2882 0.950 . S
C2902 C2901 1.414 . S
C2902 C2903 1.374 . S
C2903 H2883 0.950 . S
C2903 C2899 1.385 . S
C2903 C2902 1.374 . S
C2904 C2901 1.499 . S
C2904 C2905 1.373 . S
C2904 C2906 1.389 . S
C2905 H2884 0.950 . S
C2905 C2904 1.373 . S
C2905 C2921 1.377 . S
C2906 C2904 1.389 . S
C2906 C2907 1.524 . S
C2906 C2920 1.377 . S
C2907 C2906 1.524 . S
C2907 C2908 1.397 . S
C2907 C2912 1.363 . S
C2908 H2885 0.950 . S
C2908 C2907 1.397 . S
C2908 C2909 1.334 . S
C2909 H2886 0.950 . S
C2909 C2908 1.334 . S
C2909 C2910 1.287 . S
C2910 C2909 1.287 . S
C2910 C2911 1.524 . S
C2910 H2929 0.913 . S
C2911 H2887 0.950 . S
C2911 C2910 1.524 . S
C2911 C2912 1.415 . S
C2912 H2888 0.950 . S
C2912 C2907 1.363 . S
C2912 C2911 1.415 . S
C2913 H2889 0.951 . S
C2913 C2914 1.366 . S
C2913 C2915 1.388 . S
C2914 C2913 1.366 . S
C2914 C2918 1.385 . S
C2915 H2890 0.951 . S
C2915 C2913 1.388 . S
C2915 C2916 1.366 . S
C2916 C2915 1.366 . S
C2916 C2917 1.414 . S
C2916 C2919 1.499 . S
C2917 H2891 0.950 . S
C2917 C2916 1.414 . S
C2917 C2918 1.374 . S
C2918 H2892 0.950 . S
C2918 C2914 1.385 . S
C2918 C2917 1.374 . S
C2919 C2916 1.499 . S
C2919 C2920 1.373 . S
C2919 C2921 1.389 . S
C2920 H2893 0.950 . S
C2920 C2906 1.377 . S
C2920 C2919 1.373 . S
C2921 C2905 1.377 . S
C2921 C2919 1.389 . S
C2921 C2922 1.524 . S
C2922 C2921 1.524 . S
C2922 C2923 1.397 . S
C2922 C2927 1.363 . S
C2923 H2894 0.950 . S
C2923 C2922 1.397 . S
C2923 C2924 1.334 . S
C2924 H2895 0.950 . S
C2924 C2923 1.334 . S
C2924 C2925 1.287 . S
C2925 C2924 1.287 . S
C2925 C2926 1.524 . S
C2925 H2928 0.999 . S
C2926 H2896 0.950 . S
C2926 C2925 1.524 . S
C2926 C2927 1.415 . S
C2927 H2897 0.950 . S
C2927 C2922 1.363 . S
C2927 C2926 1.415 . S
H2928 C2925 0.999 . S
H2929 C2910 0.913 . S
H2930 C2948 0.951 . S
H2931 C2950 0.951 . S
H2932 C2952 0.950 . S
H2933 C2953 0.950 . S
H2934 C2955 0.950 . S
H2935 C2958 0.950 . S
H2936 C2959 0.950 . S
H2937 C2961 0.950 . S
H2938 C2962 0.950 . S
H2939 C2963 0.951 . S
H2940 C2965 0.951 . S
H2941 C2967 0.950 . S
H2942 C2968 0.950 . S
H2943 C2970 0.950 . S
H2944 C2973 0.950 . S
H2945 C2974 0.950 . S
H2946 C2976 0.950 . S
H2947 C2977 0.950 . S
C2948 H2930 0.951 . S
C2948 C2949 1.366 . S
C2948 C2950 1.388 . S
C2949 C2948 1.366 . S
C2949 C2953 1.385 . S
C2950 H2931 0.951 . S
C2950 C2948 1.388 . S
C2950 C2951 1.366 . S
C2951 C2950 1.366 . S
C2951 C2952 1.414 . S
C2951 C2954 1.499 . S
C2952 H2932 0.950 . S
C2952 C2951 1.414 . S
C2952 C2953 1.374 . S
C2953 H2933 0.950 . S
C2953 C2949 1.385 . S
C2953 C2952 1.374 . S
C2954 C2951 1.499 . S
C2954 C2955 1.373 . S
C2954 C2956 1.389 . S
C2955 H2934 0.950 . S
C2955 C2954 1.373 . S
C2955 C2971 1.377 . S
C2956 C2954 1.389 . S
C2956 C2957 1.524 . S
C2956 C2970 1.377 . S
C2957 C2956 1.524 . S
C2957 C2958 1.397 . S
C2957 C2962 1.363 . S
C2958 H2935 0.950 . S
C2958 C2957 1.397 . S
C2958 C2959 1.334 . S
C2959 H2936 0.950 . S
C2959 C2958 1.334 . S
C2959 C2960 1.287 . S
C2960 C2959 1.287 . S
C2960 C2961 1.524 . S
C2960 H2979 0.913 . S
C2961 H2937 0.950 . S
C2961 C2960 1.524 . S
C2961 C2962 1.415 . S
C2962 H2938 0.950 . S
C2962 C2957 1.363 . S
C2962 C2961 1.415 . S
C2963 H2939 0.951 . S
C2963 C2964 1.366 . S
C2963 C2965 1.388 . S
C2964 C2963 1.366 . S
C2964 C2968 1.385 . S
C2965 H2940 0.951 . S
C2965 C2963 1.388 . S
C2965 C2966 1.366 . S
C2966 C2965 1.366 . S
C2966 C2967 1.414 . S
C2966 C2969 1.499 . S
C2967 H2941 0.950 . S
C2967 C2966 1.414 . S
C2967 C2968 1.374 . S
C2968 H2942 0.950 . S
C2968 C2964 1.385 . S
C2968 C2967 1.374 . S
C2969 C2966 1.499 . S
C2969 C2970 1.373 . S
C2969 C2971 1.389 . S
C2970 H2943 0.950 . S
C2970 C2956 1.377 . S
C2970 C2969 1.373 . S
C2971 C2955 1.377 . S
C2971 C2969 1.389 . S
C2971 C2972 1.524 . S
C2972 C2971 1.524 . S
C2972 C2973 1.397 . S
C2972 C2977 1.363 . S
C2973 H2944 0.950 . S
C2973 C2972 1.397 . S
C2973 C2974 1.334 . S
C2974 H2945 0.950 . S
C2974 C2973 1.334 . S
C2974 C2975 1.287 . S
C2975 C2974 1.287 . S
C2975 C2976 1.524 . S
C2975 H2978 0.999 . S
C2976 H2946 0.950 . S
C2976 C2975 1.524 . S
C2976 C2977 1.415 . S
C2977 H2947 0.950 . S
C2977 C2972 1.363 . S
C2977 C2976 1.415 . S
H2978 C2975 0.999 . S
H2979 C2960 0.913 . S
H2980 C2998 0.951 . S
H2981 C3000 0.951 . S
H2982 C3002 0.950 . S
H2983 C3003 0.950 . S
H2984 C3005 0.950 . S
H2985 C3008 0.950 . S
H2986 C3009 0.950 . S
H2987 C3011 0.950 . S
H2988 C3012 0.950 . S
H2989 C3013 0.951 . S
H2990 C3015 0.951 . S
H2991 C3017 0.950 . S
H2992 C3018 0.950 . S
H2993 C3020 0.950 . S
H2994 C3023 0.950 . S
H2995 C3024 0.950 . S
H2996 C3026 0.950 . S
H2997 C3027 0.950 . S
C2998 H2980 0.951 . S
C2998 C2999 1.366 . S
C2998 C3000 1.388 . S
C2999 C2998 1.366 . S
C2999 C3003 1.385 . S
C3000 H2981 0.951 . S
C3000 C2998 1.388 . S
C3000 C3001 1.366 . S
C3001 C3000 1.366 . S
C3001 C3002 1.414 . S
C3001 C3004 1.499 . S
C3002 H2982 0.950 . S
C3002 C3001 1.414 . S
C3002 C3003 1.374 . S
C3003 H2983 0.950 . S
C3003 C2999 1.385 . S
C3003 C3002 1.374 . S
C3004 C3001 1.499 . S
C3004 C3005 1.373 . S
C3004 C3006 1.389 . S
C3005 H2984 0.950 . S
C3005 C3004 1.373 . S
C3005 C3021 1.377 . S
C3006 C3004 1.389 . S
C3006 C3007 1.524 . S
C3006 C3020 1.377 . S
C3007 C3006 1.524 . S
C3007 C3008 1.397 . S
C3007 C3012 1.363 . S
C3008 H2985 0.950 . S
C3008 C3007 1.397 . S
C3008 C3009 1.334 . S
C3009 H2986 0.950 . S
C3009 C3008 1.334 . S
C3009 C3010 1.287 . S
C3010 C3009 1.287 . S
C3010 C3011 1.524 . S
C3010 H3029 0.913 . S
C3011 H2987 0.950 . S
C3011 C3010 1.524 . S
C3011 C3012 1.415 . S
C3012 H2988 0.950 . S
C3012 C3007 1.363 . S
C3012 C3011 1.415 . S
C3013 H2989 0.951 . S
C3013 C3014 1.366 . S
C3013 C3015 1.388 . S
C3014 C3013 1.366 . S
C3014 C3018 1.385 . S
C3015 H2990 0.951 . S
C3015 C3013 1.388 . S
C3015 C3016 1.366 . S
C3016 C3015 1.366 . S
C3016 C3017 1.414 . S
C3016 C3019 1.499 . S
C3017 H2991 0.950 . S
C3017 C3016 1.414 . S
C3017 C3018 1.374 . S
C3018 H2992 0.950 . S
C3018 C3014 1.385 . S
C3018 C3017 1.374 . S
C3019 C3016 1.499 . S
C3019 C3020 1.373 . S
C3019 C3021 1.389 . S
C3020 H2993 0.950 . S
C3020 C3006 1.377 . S
C3020 C3019 1.373 . S
C3021 C3005 1.377 . S
C3021 C3019 1.389 . S
C3021 C3022 1.524 . S
C3022 C3021 1.524 . S
C3022 C3023 1.397 . S
C3022 C3027 1.363 . S
C3023 H2994 0.950 . S
C3023 C3022 1.397 . S
C3023 C3024 1.334 . S
C3024 H2995 0.950 . S
C3024 C3023 1.334 . S
C3024 C3025 1.287 . S
C3025 C3024 1.287 . S
C3025 C3026 1.524 . S
C3025 H3028 0.999 . S
C3026 H2996 0.950 . S
C3026 C3025 1.524 . S
C3026 C3027 1.415 . S
C3027 H2997 0.950 . S
C3027 C3022 1.363 . S
C3027 C3026 1.415 . S
H3028 C3025 0.999 . S
H3029 C3010 0.913 . S
H3030 C3048 0.951 . S
H3031 C3050 0.951 . S
H3032 C3052 0.950 . S
H3033 C3053 0.950 . S
H3034 C3055 0.950 . S
H3035 C3058 0.950 . S
H3036 C3059 0.950 . S
H3037 C3061 0.950 . S
H3038 C3062 0.950 . S
H3039 C3063 0.979 . S
H3040 C3065 0.951 . S
H3041 C3067 0.950 . S
H3042 C3068 0.950 . S
H3043 C3070 0.950 . S
H3044 C3073 0.950 . S
H3045 C3074 0.950 . S
H3046 C3076 0.950 . S
H3047 C3077 0.950 . S
C3048 H3030 0.951 . S
C3048 C3049 1.366 . S
C3048 C3050 1.388 . S
C3049 C3048 1.366 . S
C3049 C3053 1.385 . S
C3050 H3031 0.951 . S
C3050 C3048 1.388 . S
C3050 C3051 1.366 . S
C3051 C3050 1.366 . S
C3051 C3052 1.414 . S
C3051 C3054 1.499 . S
C3052 H3032 0.950 . S
C3052 C3051 1.414 . S
C3052 C3053 1.374 . S
C3053 H3033 0.950 . S
C3053 C3049 1.385 . S
C3053 C3052 1.374 . S
C3054 C3051 1.499 . S
C3054 C3055 1.373 . S
C3054 C3056 1.389 . S
C3055 H3034 0.950 . S
C3055 C3054 1.373 . S
C3055 C3071 1.377 . S
C3056 C3054 1.389 . S
C3056 C3057 1.524 . S
C3056 C3070 1.377 . S
C3057 C3056 1.524 . S
C3057 C3058 1.397 . S
C3057 C3062 1.363 . S
C3058 H3035 0.950 . S
C3058 C3057 1.397 . S
C3058 C3059 1.334 . S
C3059 H3036 0.950 . S
C3059 C3058 1.334 . S
C3059 C3060 1.287 . S
C3060 C3059 1.287 . S
C3060 C3061 1.524 . S
C3060 H3079 0.913 . S
C3061 H3037 0.950 . S
C3061 C3060 1.524 . S
C3061 C3062 1.415 . S
C3062 H3038 0.950 . S
C3062 C3057 1.363 . S
C3062 C3061 1.415 . S
C3063 H3039 0.979 . S
C3063 C3064 1.366 . S
C3063 C3065 1.388 . S
C3064 C3063 1.366 . S
C3064 C3068 1.385 . S
C3065 H3040 0.951 . S
C3065 C3063 1.388 . S
C3065 C3066 1.366 . S
C3066 C3065 1.366 . S
C3066 C3067 1.414 . S
C3066 C3069 1.499 . S
C3067 H3041 0.950 . S
C3067 C3066 1.414 . S
C3067 C3068 1.374 . S
C3068 H3042 0.950 . S
C3068 C3064 1.385 . S
C3068 C3067 1.374 . S
C3069 C3066 1.499 . S
C3069 C3070 1.373 . S
C3069 C3071 1.389 . S
C3070 H3043 0.950 . S
C3070 C3056 1.377 . S
C3070 C3069 1.373 . S
C3071 C3055 1.377 . S
C3071 C3069 1.389 . S
C3071 C3072 1.524 . S
C3072 C3071 1.524 . S
C3072 C3073 1.397 . S
C3072 C3077 1.363 . S
C3073 H3044 0.950 . S
C3073 C3072 1.397 . S
C3073 C3074 1.334 . S
C3074 H3045 0.950 . S
C3074 C3073 1.334 . S
C3074 C3075 1.287 . S
C3075 C3074 1.287 . S
C3075 C3076 1.524 . S
C3075 H3078 0.999 . S
C3076 H3046 0.950 . S
C3076 C3075 1.524 . S
C3076 C3077 1.415 . S
C3077 H3047 0.950 . S
C3077 C3072 1.363 . S
C3077 C3076 1.415 . S
H3078 C3075 0.999 . S
H3079 C3060 0.913 . S
H3080 C3098 0.951 . S
H3081 C3100 0.951 . S
H3082 C3102 0.950 . S
H3083 C3103 0.950 . S
H3084 C3105 0.950 . S
H3085 C3108 0.950 . S
H3086 C3109 0.950 . S
H3087 C3111 0.960 . S
H3088 C3112 0.950 . S
H3089 C3113 0.951 . S
H3090 C3115 0.951 . S
H3091 C3117 0.950 . S
H3092 C3118 0.950 . S
H3093 C3120 0.950 . S
H3094 C3123 0.950 . S
H3095 C3124 0.950 . S
H3096 C3126 0.950 . S
H3097 C3127 0.950 . S
C3098 H3080 0.951 . S
C3098 C3099 1.366 . S
C3098 C3100 1.388 . S
C3099 C3098 1.366 . S
C3099 C3103 1.385 . S
C3100 H3081 0.951 . S
C3100 C3098 1.388 . S
C3100 C3101 1.366 . S
C3101 C3100 1.366 . S
C3101 C3102 1.414 . S
C3101 C3104 1.499 . S
C3102 H3082 0.950 . S
C3102 C3101 1.414 . S
C3102 C3103 1.374 . S
C3103 H3083 0.950 . S
C3103 C3099 1.385 . S
C3103 C3102 1.374 . S
C3104 C3101 1.499 . S
C3104 C3105 1.373 . S
C3104 C3106 1.389 . S
C3105 H3084 0.950 . S
C3105 C3104 1.373 . S
C3105 C3121 1.377 . S
C3106 C3104 1.389 . S
C3106 C3107 1.524 . S
C3106 C3120 1.377 . S
C3107 C3106 1.524 . S
C3107 C3108 1.397 . S
C3107 C3112 1.363 . S
C3108 H3085 0.950 . S
C3108 C3107 1.397 . S
C3108 C3109 1.334 1_565 S
C3109 H3086 0.950 . S
C3109 C3108 1.334 1_545 S
C3109 C3110 1.287 . S
C3110 C3109 1.287 . S
C3110 C3111 1.535 . S
C3110 H3129 0.913 . S
C3111 H3087 0.960 . S
C3111 C3110 1.535 . S
C3111 C3112 1.393 1_545 S
C3112 H3088 0.950 . S
C3112 C3107 1.363 . S
C3112 C3111 1.393 1_565 S
C3113 H3089 0.951 . S
C3113 C3114 1.366 . S
C3113 C3115 1.388 . S
C3114 C3113 1.366 . S
C3114 C3118 1.385 . S
C3115 H3090 0.951 . S
C3115 C3113 1.388 . S
C3115 C3116 1.366 . S
C3116 C3115 1.366 . S
C3116 C3117 1.414 . S
C3116 C3119 1.499 . S
C3117 H3091 0.950 . S
C3117 C3116 1.414 . S
C3117 C3118 1.374 . S
C3118 H3092 0.950 . S
C3118 C3114 1.385 . S
C3118 C3117 1.374 . S
C3119 C3116 1.499 . S
C3119 C3120 1.373 . S
C3119 C3121 1.389 . S
C3120 H3093 0.950 . S
C3120 C3106 1.377 . S
C3120 C3119 1.373 . S
C3121 C3105 1.377 . S
C3121 C3119 1.389 . S
C3121 C3122 1.524 . S
C3122 C3121 1.524 . S
C3122 C3123 1.397 . S
C3122 C3127 1.363 . S
C3123 H3094 0.950 . S
C3123 C3122 1.397 . S
C3123 C3124 1.334 . S
C3124 H3095 0.950 . S
C3124 C3123 1.334 . S
C3124 C3125 1.287 . S
C3125 C3124 1.287 . S
C3125 C3126 1.524 . S
C3125 H3128 0.999 . S
C3126 H3096 0.950 . S
C3126 C3125 1.524 . S
C3126 C3127 1.415 . S
C3127 H3097 0.950 . S
C3127 C3122 1.363 . S
C3127 C3126 1.415 . S
H3128 C3125 0.999 . S
H3129 C3110 0.913 . S
H3130 C3148 0.951 . S
H3131 C3150 0.951 . S
H3132 C3152 0.950 . S
H3133 C3153 0.950 . S
H3134 C3155 0.950 . S
H3135 C3158 0.950 . S
H3136 C3159 0.950 . S
H3137 C3161 0.950 . S
H3138 C3162 0.950 . S
H3139 C3163 0.951 . S
H3140 C3165 0.951 . S
H3141 C3167 0.950 . S
H3142 C3168 0.931 1_565 S
H3143 C3170 0.950 . S
H3144 C3173 0.950 . S
H3145 C3174 0.950 . S
H3146 C3176 0.950 . S
H3147 C3177 0.950 . S
C3148 H3130 0.951 . S
C3148 C3149 1.366 . S
C3148 C3150 1.388 . S
C3149 C3148 1.366 . S
C3149 C3153 1.385 . S
C3150 H3131 0.951 . S
C3150 C3148 1.388 . S
C3150 C3151 1.366 . S
C3151 C3150 1.366 . S
C3151 C3152 1.414 . S
C3151 C3154 1.499 . S
C3152 H3132 0.950 . S
C3152 C3151 1.414 . S
C3152 C3153 1.374 . S
C3153 H3133 0.950 . S
C3153 C3149 1.385 . S
C3153 C3152 1.374 . S
C3154 C3151 1.499 . S
C3154 C3155 1.373 . S
C3154 C3156 1.389 . S
C3155 H3134 0.950 . S
C3155 C3154 1.373 . S
C3155 C3171 1.377 . S
C3156 C3154 1.389 . S
C3156 C3157 1.524 . S
C3156 C3170 1.377 . S
C3157 C3156 1.524 . S
C3157 C3158 1.397 . S
C3157 C3162 1.363 . S
C3158 H3135 0.950 . S
C3158 C3157 1.397 . S
C3158 C3159 1.334 . S
C3159 H3136 0.950 . S
C3159 C3158 1.334 . S
C3159 C3160 1.287 . S
C3160 C3159 1.287 . S
C3160 C3161 1.524 . S
C3160 H3179 0.913 . S
C3161 H3137 0.950 . S
C3161 C3160 1.524 . S
C3161 C3162 1.415 . S
C3162 H3138 0.950 . S
C3162 C3157 1.363 . S
C3162 C3161 1.415 . S
C3163 H3139 0.951 . S
C3163 C3164 1.366 . S
C3163 C3165 1.388 . S
C3164 C3163 1.366 . S
C3164 C3168 1.385 . S
C3165 H3140 0.951 . S
C3165 C3163 1.388 . S
C3165 C3166 1.366 . S
C3166 C3165 1.366 . S
C3166 C3167 1.414 . S
C3166 C3169 1.499 . S
C3167 H3141 0.950 . S
C3167 C3166 1.414 . S
C3167 C3168 1.374 . S
C3168 H3142 0.931 1_545 S
C3168 C3164 1.385 . S
C3168 C3167 1.374 . S
C3169 C3166 1.499 . S
C3169 C3170 1.373 . S
C3169 C3171 1.389 . S
C3170 H3143 0.950 . S
C3170 C3156 1.377 . S
C3170 C3169 1.373 . S
C3171 C3155 1.377 . S
C3171 C3169 1.389 . S
C3171 C3172 1.524 . S
C3172 C3171 1.524 . S
C3172 C3173 1.397 . S
C3172 C3177 1.363 . S
C3173 H3144 0.950 . S
C3173 C3172 1.397 . S
C3173 C3174 1.334 . S
C3174 H3145 0.950 . S
C3174 C3173 1.334 . S
C3174 C3175 1.287 . S
C3175 C3174 1.287 . S
C3175 C3176 1.524 . S
C3175 H3178 0.999 . S
C3176 H3146 0.950 . S
C3176 C3175 1.524 . S
C3176 C3177 1.415 . S
C3177 H3147 0.950 . S
C3177 C3172 1.363 . S
C3177 C3176 1.415 . S
H3178 C3175 0.999 . S
H3179 C3160 0.913 . S
H3180 C3198 0.951 . S
H3181 C3200 0.951 . S
H3182 C3202 0.950 . S
H3183 C3203 0.950 . S
H3184 C3205 0.950 . S
H3185 C3208 0.950 . S
H3186 C3209 0.950 . S
H3187 C3211 0.950 . S
H3188 C3212 0.950 . S
H3189 C3213 0.951 . S
H3190 C3215 0.951 . S
H3191 C3217 0.950 . S
H3192 C3218 0.950 . S
H3193 C3220 0.950 . S
H3194 C3223 0.950 . S
H3195 C3224 0.950 . S
H3196 C3226 0.950 . S
H3197 C3227 0.950 . S
C3198 H3180 0.951 . S
C3198 C3199 1.366 . S
C3198 C3200 1.388 . S
C3199 C3198 1.366 . S
C3199 C3203 1.385 . S
C3200 H3181 0.951 . S
C3200 C3198 1.388 . S
C3200 C3201 1.366 . S
C3201 C3200 1.366 . S
C3201 C3202 1.414 . S
C3201 C3204 1.499 . S
C3202 H3182 0.950 . S
C3202 C3201 1.414 . S
C3202 C3203 1.374 . S
C3203 H3183 0.950 . S
C3203 C3199 1.385 . S
C3203 C3202 1.374 . S
C3204 C3201 1.499 . S
C3204 C3205 1.373 . S
C3204 C3206 1.389 . S
C3205 H3184 0.950 . S
C3205 C3204 1.373 . S
C3205 C3221 1.377 . S
C3206 C3204 1.389 . S
C3206 C3207 1.524 . S
C3206 C3220 1.377 . S
C3207 C3206 1.524 . S
C3207 C3208 1.397 . S
C3207 C3212 1.363 . S
C3208 H3185 0.950 . S
C3208 C3207 1.397 . S
C3208 C3209 1.334 . S
C3209 H3186 0.950 . S
C3209 C3208 1.334 . S
C3209 C3210 1.287 . S
C3210 C3209 1.287 . S
C3210 C3211 1.524 . S
C3210 H3229 0.913 . S
C3211 H3187 0.950 . S
C3211 C3210 1.524 . S
C3211 C3212 1.415 . S
C3212 H3188 0.950 . S
C3212 C3207 1.363 . S
C3212 C3211 1.415 . S
C3213 H3189 0.951 . S
C3213 C3214 1.366 . S
C3213 C3215 1.388 . S
C3214 C3213 1.366 . S
C3214 C3218 1.385 . S
C3215 H3190 0.951 . S
C3215 C3213 1.388 . S
C3215 C3216 1.366 . S
C3216 C3215 1.366 . S
C3216 C3217 1.414 . S
C3216 C3219 1.499 . S
C3217 H3191 0.950 . S
C3217 C3216 1.414 . S
C3217 C3218 1.374 . S
C3218 H3192 0.950 . S
C3218 C3214 1.385 . S
C3218 C3217 1.374 . S
C3219 C3216 1.499 . S
C3219 C3220 1.373 . S
C3219 C3221 1.389 . S
C3220 H3193 0.950 . S
C3220 C3206 1.377 . S
C3220 C3219 1.373 . S
C3221 C3205 1.377 . S
C3221 C3219 1.389 . S
C3221 C3222 1.524 . S
C3222 C3221 1.524 . S
C3222 C3223 1.397 . S
C3222 C3227 1.363 . S
C3223 H3194 0.950 . S
C3223 C3222 1.397 . S
C3223 C3224 1.334 . S
C3224 H3195 0.950 . S
C3224 C3223 1.334 . S
C3224 C3225 1.287 . S
C3225 C3224 1.287 . S
C3225 C3226 1.524 . S
C3225 H3228 0.999 . S
C3226 H3196 0.950 . S
C3226 C3225 1.524 . S
C3226 C3227 1.415 . S
C3227 H3197 0.950 . S
C3227 C3222 1.363 . S
C3227 C3226 1.415 . S
H3228 C3225 0.999 . S
H3229 C3210 0.913 . S
H3230 C3248 0.951 . S
H3231 C3250 0.951 . S
H3232 C3252 0.950 . S
H3233 C3253 0.950 . S
H3234 C3255 0.950 . S
H3235 C3258 0.950 . S
H3236 C3259 0.950 . S
H3237 C3261 0.950 . S
H3238 C3262 0.950 . S
H3239 C3263 0.951 . S
H3240 C3265 0.951 . S
H3241 C3267 0.950 . S
H3242 C3268 0.950 . S
H3243 C3270 0.950 . S
H3244 C3273 0.950 . S
H3245 C3274 0.950 . S
H3246 C3276 0.950 . S
H3247 C3277 0.950 . S
C3248 H3230 0.951 . S
C3248 C3249 1.366 . S
C3248 C3250 1.388 . S
C3249 C3248 1.366 . S
C3249 C3253 1.385 . S
C3250 H3231 0.951 . S
C3250 C3248 1.388 . S
C3250 C3251 1.366 . S
C3251 C3250 1.366 . S
C3251 C3252 1.414 . S
C3251 C3254 1.499 . S
C3252 H3232 0.950 . S
C3252 C3251 1.414 . S
C3252 C3253 1.374 . S
C3253 H3233 0.950 . S
C3253 C3249 1.385 . S
C3253 C3252 1.374 . S
C3254 C3251 1.499 . S
C3254 C3255 1.373 . S
C3254 C3256 1.389 . S
C3255 H3234 0.950 . S
C3255 C3254 1.373 . S
C3255 C3271 1.377 . S
C3256 C3254 1.389 . S
C3256 C3257 1.524 . S
C3256 C3270 1.377 . S
C3257 C3256 1.524 . S
C3257 C3258 1.397 . S
C3257 C3262 1.363 . S
C3258 H3235 0.950 . S
C3258 C3257 1.397 . S
C3258 C3259 1.334 . S
C3259 H3236 0.950 . S
C3259 C3258 1.334 . S
C3259 C3260 1.287 . S
C3260 C3259 1.287 . S
C3260 C3261 1.524 . S
C3260 H3279 0.913 . S
C3261 H3237 0.950 . S
C3261 C3260 1.524 . S
C3261 C3262 1.415 . S
C3262 H3238 0.950 . S
C3262 C3257 1.363 . S
C3262 C3261 1.415 . S
C3263 H3239 0.951 . S
C3263 C3264 1.366 . S
C3263 C3265 1.388 . S
C3264 C3263 1.366 . S
C3264 C3268 1.385 . S
C3265 H3240 0.951 . S
C3265 C3263 1.388 . S
C3265 C3266 1.366 . S
C3266 C3265 1.366 . S
C3266 C3267 1.414 . S
C3266 C3269 1.499 . S
C3267 H3241 0.950 . S
C3267 C3266 1.414 . S
C3267 C3268 1.374 . S
C3268 H3242 0.950 . S
C3268 C3264 1.385 . S
C3268 C3267 1.374 . S
C3269 C3266 1.499 . S
C3269 C3270 1.373 . S
C3269 C3271 1.389 . S
C3270 H3243 0.950 . S
C3270 C3256 1.377 . S
C3270 C3269 1.373 . S
C3271 C3255 1.377 . S
C3271 C3269 1.389 . S
C3271 C3272 1.524 . S
C3272 C3271 1.524 . S
C3272 C3273 1.397 . S
C3272 C3277 1.363 . S
C3273 H3244 0.950 . S
C3273 C3272 1.397 . S
C3273 C3274 1.334 . S
C3274 H3245 0.950 . S
C3274 C3273 1.334 . S
C3274 C3275 1.287 . S
C3275 C3274 1.287 . S
C3275 C3276 1.524 . S
C3275 H3278 0.999 . S
C3276 H3246 0.950 . S
C3276 C3275 1.524 . S
C3276 C3277 1.415 . S
C3277 H3247 0.950 . S
C3277 C3272 1.363 . S
C3277 C3276 1.415 . S
H3278 C3275 0.999 . S
H3279 C3260 0.913 . S
H3280 C3298 0.951 . S
H3281 C3300 0.951 . S
H3282 C3302 0.950 . S
H3283 C3303 0.936 1_554 S
H3284 C3305 0.950 . S
H3285 C3308 0.950 . S
H3286 C3309 0.950 . S
H3287 C3311 0.950 . S
H3288 C3312 0.950 . S
H3289 C3313 0.951 . S
H3290 C3315 0.951 . S
H3291 C3317 0.950 . S
H3292 C3318 0.950 . S
H3293 C3320 0.950 . S
H3294 C3323 0.950 . S
H3295 C3324 0.950 . S
H3296 C3326 0.950 . S
H3297 C3327 0.950 . S
C3298 H3280 0.951 . S
C3298 C3299 1.366 . S
C3298 C3300 1.388 . S
C3299 C3298 1.366 . S
C3299 C3303 1.385 . S
C3300 H3281 0.951 . S
C3300 C3298 1.388 . S
C3300 C3301 1.366 . S
C3301 C3300 1.366 . S
C3301 C3302 1.414 . S
C3301 C3304 1.499 . S
C3302 H3282 0.950 . S
C3302 C3301 1.414 . S
C3302 C3303 1.374 . S
C3303 H3283 0.936 1_556 S
C3303 C3299 1.385 . S
C3303 C3302 1.374 . S
C3304 C3301 1.499 . S
C3304 C3305 1.373 . S
C3304 C3306 1.389 . S
C3305 H3284 0.950 . S
C3305 C3304 1.373 . S
C3305 C3321 1.377 . S
C3306 C3304 1.389 . S
C3306 C3307 1.524 . S
C3306 C3320 1.377 . S
C3307 C3306 1.524 . S
C3307 C3308 1.397 . S
C3307 C3312 1.363 . S
C3308 H3285 0.950 . S
C3308 C3307 1.397 . S
C3308 C3309 1.334 . S
C3309 H3286 0.950 . S
C3309 C3308 1.334 . S
C3309 C3310 1.287 . S
C3310 C3309 1.287 . S
C3310 C3311 1.524 . S
C3310 H3329 0.913 . S
C3311 H3287 0.950 . S
C3311 C3310 1.524 . S
C3311 C3312 1.415 . S
C3312 H3288 0.950 . S
C3312 C3307 1.363 . S
C3312 C3311 1.415 . S
C3313 H3289 0.951 . S
C3313 C3314 1.366 . S
C3313 C3315 1.388 . S
C3314 C3313 1.366 . S
C3314 C3318 1.385 . S
C3315 H3290 0.951 . S
C3315 C3313 1.388 . S
C3315 C3316 1.366 . S
C3316 C3315 1.366 . S
C3316 C3317 1.414 . S
C3316 C3319 1.499 . S
C3317 H3291 0.950 . S
C3317 C3316 1.414 . S
C3317 C3318 1.374 . S
C3318 H3292 0.950 . S
C3318 C3314 1.385 . S
C3318 C3317 1.374 . S
C3319 C3316 1.499 . S
C3319 C3320 1.373 . S
C3319 C3321 1.389 . S
C3320 H3293 0.950 . S
C3320 C3306 1.377 . S
C3320 C3319 1.373 . S
C3321 C3305 1.377 . S
C3321 C3319 1.389 . S
C3321 C3322 1.524 . S
C3322 C3321 1.524 . S
C3322 C3323 1.397 . S
C3322 C3327 1.363 . S
C3323 H3294 0.950 . S
C3323 C3322 1.397 . S
C3323 C3324 1.334 . S
C3324 H3295 0.950 . S
C3324 C3323 1.334 . S
C3324 C3325 1.287 . S
C3325 C3324 1.287 . S
C3325 C3326 1.524 . S
C3325 H3328 0.999 . S
C3326 H3296 0.950 . S
C3326 C3325 1.524 . S
C3326 C3327 1.415 . S
C3327 H3297 0.950 . S
C3327 C3322 1.363 . S
C3327 C3326 1.415 . S
H3328 C3325 0.999 . S
H3329 C3310 0.913 . S
H3330 C3348 0.951 . S
H3331 C3350 0.951 . S
H3332 C3352 0.950 . S
H3333 C3353 0.950 . S
H3334 C3355 0.950 . S
H3335 C3358 0.950 . S
H3336 C3359 0.986 . S
H3337 C3361 0.950 . S
H3338 C3362 0.950 . S
H3339 C3363 0.951 . S
H3340 C3365 0.951 . S
H3341 C3367 0.950 . S
H3342 C3368 0.950 . S
H3343 C3370 0.950 . S
H3344 C3373 0.950 . S
H3345 C3374 0.950 . S
H3346 C3376 0.950 . S
H3347 C3377 0.950 . S
C3348 H3330 0.951 . S
C3348 C3349 1.366 . S
C3348 C3350 1.388 . S
C3349 C3348 1.366 . S
C3349 C3353 1.385 . S
C3350 H3331 0.951 . S
C3350 C3348 1.388 . S
C3350 C3351 1.366 . S
C3351 C3350 1.366 . S
C3351 C3352 1.414 . S
C3351 C3354 1.499 . S
C3352 H3332 0.950 . S
C3352 C3351 1.414 . S
C3352 C3353 1.374 . S
C3353 H3333 0.950 . S
C3353 C3349 1.385 . S
C3353 C3352 1.374 . S
C3354 C3351 1.499 . S
C3354 C3355 1.373 . S
C3354 C3356 1.389 . S
C3355 H3334 0.950 . S
C3355 C3354 1.373 . S
C3355 C3371 1.377 . S
C3356 C3354 1.389 . S
C3356 C3357 1.524 . S
C3356 C3370 1.377 . S
C3357 C3356 1.524 . S
C3357 C3358 1.397 . S
C3357 C3362 1.363 . S
C3358 H3335 0.950 . S
C3358 C3357 1.397 . S
C3358 C3359 1.298 1_554 S
C3359 H3336 0.986 . S
C3359 C3358 1.298 1_556 S
C3359 C3360 1.286 . S
C3360 C3359 1.286 . S
C3360 C3361 1.510 1_556 S
C3360 H3379 0.928 . S
C3361 H3337 0.950 . S
C3361 C3360 1.510 1_554 S
C3361 C3362 1.415 . S
C3362 H3338 0.950 . S
C3362 C3357 1.363 . S
C3362 C3361 1.415 . S
C3363 H3339 0.951 . S
C3363 C3364 1.366 . S
C3363 C3365 1.388 . S
C3364 C3363 1.366 . S
C3364 C3368 1.385 . S
C3365 H3340 0.951 . S
C3365 C3363 1.388 . S
C3365 C3366 1.366 . S
C3366 C3365 1.366 . S
C3366 C3367 1.414 . S
C3366 C3369 1.499 . S
C3367 H3341 0.950 . S
C3367 C3366 1.414 . S
C3367 C3368 1.374 . S
C3368 H3342 0.950 . S
C3368 C3364 1.385 . S
C3368 C3367 1.374 . S
C3369 C3366 1.499 . S
C3369 C3370 1.373 . S
C3369 C3371 1.389 . S
C3370 H3343 0.950 . S
C3370 C3356 1.377 . S
C3370 C3369 1.373 . S
C3371 C3355 1.377 . S
C3371 C3369 1.389 . S
C3371 C3372 1.524 . S
C3372 C3371 1.524 . S
C3372 C3373 1.397 . S
C3372 C3377 1.363 . S
C3373 H3344 0.950 . S
C3373 C3372 1.397 . S
C3373 C3374 1.334 . S
C3374 H3345 0.950 . S
C3374 C3373 1.334 . S
C3374 C3375 1.287 . S
C3375 C3374 1.287 . S
C3375 C3376 1.524 . S
C3375 H3378 0.999 . S
C3376 H3346 0.950 . S
C3376 C3375 1.524 . S
C3376 C3377 1.415 . S
C3377 H3347 0.950 . S
C3377 C3372 1.363 . S
C3377 C3376 1.415 . S
H3378 C3375 0.999 . S
H3379 C3360 0.928 . S
H3380 C3398 0.951 . S
H3381 C3400 0.951 . S
H3382 C3402 0.950 . S
H3383 C3403 0.950 . S
H3384 C3405 0.950 . S
H3385 C3408 0.950 . S
H3386 C3409 0.950 . S
H3387 C3411 0.950 . S
H3388 C3412 0.950 . S
H3389 C3413 0.951 . S
H3390 C3415 0.951 . S
H3391 C3417 0.950 . S
H3392 C3418 0.950 . S
H3393 C3420 0.950 . S
H3394 C3423 0.950 . S
H3395 C3424 0.950 . S
H3396 C3426 0.950 . S
H3397 C3427 0.950 . S
C3398 H3380 0.951 . S
C3398 C3399 1.366 . S
C3398 C3400 1.388 . S
C3399 C3398 1.366 . S
C3399 C3403 1.385 . S
C3400 H3381 0.951 . S
C3400 C3398 1.388 . S
C3400 C3401 1.366 . S
C3401 C3400 1.366 . S
C3401 C3402 1.414 . S
C3401 C3404 1.499 . S
C3402 H3382 0.950 . S
C3402 C3401 1.414 . S
C3402 C3403 1.374 . S
C3403 H3383 0.950 . S
C3403 C3399 1.385 . S
C3403 C3402 1.374 . S
C3404 C3401 1.499 . S
C3404 C3405 1.373 . S
C3404 C3406 1.389 . S
C3405 H3384 0.950 . S
C3405 C3404 1.373 . S
C3405 C3421 1.377 . S
C3406 C3404 1.389 . S
C3406 C3407 1.524 . S
C3406 C3420 1.377 . S
C3407 C3406 1.524 . S
C3407 C3408 1.397 . S
C3407 C3412 1.363 . S
C3408 H3385 0.950 . S
C3408 C3407 1.397 . S
C3408 C3409 1.334 . S
C3409 H3386 0.950 . S
C3409 C3408 1.334 . S
C3409 C3410 1.287 . S
C3410 C3409 1.287 . S
C3410 C3411 1.524 . S
C3410 H3429 0.913 . S
C3411 H3387 0.950 . S
C3411 C3410 1.524 . S
C3411 C3412 1.415 . S
C3412 H3388 0.950 . S
C3412 C3407 1.363 . S
C3412 C3411 1.415 . S
C3413 H3389 0.951 . S
C3413 C3414 1.366 . S
C3413 C3415 1.388 . S
C3414 C3413 1.366 . S
C3414 C3418 1.385 . S
C3415 H3390 0.951 . S
C3415 C3413 1.388 . S
C3415 C3416 1.366 . S
C3416 C3415 1.366 . S
C3416 C3417 1.414 . S
C3416 C3419 1.499 . S
C3417 H3391 0.950 . S
C3417 C3416 1.414 . S
C3417 C3418 1.374 . S
C3418 H3392 0.950 . S
C3418 C3414 1.385 . S
C3418 C3417 1.374 . S
C3419 C3416 1.499 . S
C3419 C3420 1.373 . S
C3419 C3421 1.389 . S
C3420 H3393 0.950 . S
C3420 C3406 1.377 . S
C3420 C3419 1.373 . S
C3421 C3405 1.377 . S
C3421 C3419 1.389 . S
C3421 C3422 1.524 . S
C3422 C3421 1.524 . S
C3422 C3423 1.397 . S
C3422 C3427 1.363 . S
C3423 H3394 0.950 . S
C3423 C3422 1.397 . S
C3423 C3424 1.334 . S
C3424 H3395 0.950 . S
C3424 C3423 1.334 . S
C3424 C3425 1.287 . S
C3425 C3424 1.287 . S
C3425 C3426 1.524 . S
C3425 H3428 0.999 . S
C3426 H3396 0.950 . S
C3426 C3425 1.524 . S
C3426 C3427 1.415 . S
C3427 H3397 0.950 . S
C3427 C3422 1.363 . S
C3427 C3426 1.415 . S
H3428 C3425 0.999 . S
H3429 C3410 0.913 . S
H3430 C3448 0.951 . S
H3431 C3450 0.951 . S
H3432 C3452 0.950 . S
H3433 C3453 0.950 . S
H3434 C3455 0.950 . S
H3435 C3458 0.950 . S
H3436 C3459 0.950 . S
H3437 C3461 0.950 . S
H3438 C3462 0.950 . S
H3439 C3463 0.951 . S
H3440 C3465 0.951 . S
H3441 C3467 0.950 . S
H3442 C3468 0.950 . S
H3443 C3470 0.950 . S
H3444 C3473 0.950 . S
H3445 C3474 0.950 . S
H3446 C3476 0.950 . S
H3447 C3477 0.950 . S
C3448 H3430 0.951 . S
C3448 C3449 1.366 . S
C3448 C3450 1.388 . S
C3449 C3448 1.366 . S
C3449 C3453 1.385 . S
C3450 H3431 0.951 . S
C3450 C3448 1.388 . S
C3450 C3451 1.366 . S
C3451 C3450 1.366 . S
C3451 C3452 1.414 . S
C3451 C3454 1.499 . S
C3452 H3432 0.950 . S
C3452 C3451 1.414 . S
C3452 C3453 1.374 . S
C3453 H3433 0.950 . S
C3453 C3449 1.385 . S
C3453 C3452 1.374 . S
C3454 C3451 1.499 . S
C3454 C3455 1.373 . S
C3454 C3456 1.389 . S
C3455 H3434 0.950 . S
C3455 C3454 1.373 . S
C3455 C3471 1.377 . S
C3456 C3454 1.389 . S
C3456 C3457 1.524 . S
C3456 C3470 1.377 . S
C3457 C3456 1.524 . S
C3457 C3458 1.397 . S
C3457 C3462 1.363 . S
C3458 H3435 0.950 . S
C3458 C3457 1.397 . S
C3458 C3459 1.334 . S
C3459 H3436 0.950 . S
C3459 C3458 1.334 . S
C3459 C3460 1.287 . S
C3460 C3459 1.287 . S
C3460 C3461 1.524 . S
C3460 H3479 0.913 . S
C3461 H3437 0.950 . S
C3461 C3460 1.524 . S
C3461 C3462 1.415 . S
C3462 H3438 0.950 . S
C3462 C3457 1.363 . S
C3462 C3461 1.415 . S
C3463 H3439 0.951 . S
C3463 C3464 1.366 . S
C3463 C3465 1.388 . S
C3464 C3463 1.366 . S
C3464 C3468 1.385 . S
C3465 H3440 0.951 . S
C3465 C3463 1.388 . S
C3465 C3466 1.366 . S
C3466 C3465 1.366 . S
C3466 C3467 1.414 . S
C3466 C3469 1.499 . S
C3467 H3441 0.950 . S
C3467 C3466 1.414 . S
C3467 C3468 1.374 . S
C3468 H3442 0.950 . S
C3468 C3464 1.385 . S
C3468 C3467 1.374 . S
C3469 C3466 1.499 . S
C3469 C3470 1.373 . S
C3469 C3471 1.389 . S
C3470 H3443 0.950 . S
C3470 C3456 1.377 . S
C3470 C3469 1.373 . S
C3471 C3455 1.377 . S
C3471 C3469 1.389 . S
C3471 C3472 1.524 . S
C3472 C3471 1.524 . S
C3472 C3473 1.397 . S
C3472 C3477 1.363 . S
C3473 H3444 0.950 . S
C3473 C3472 1.397 . S
C3473 C3474 1.334 . S
C3474 H3445 0.950 . S
C3474 C3473 1.334 . S
C3474 C3475 1.287 . S
C3475 C3474 1.287 . S
C3475 C3476 1.524 . S
C3475 H3478 0.999 . S
C3476 H3446 0.950 . S
C3476 C3475 1.524 . S
C3476 C3477 1.415 . S
C3477 H3447 0.950 . S
C3477 C3472 1.363 . S
C3477 C3476 1.415 . S
H3478 C3475 0.999 . S
H3479 C3460 0.913 . S
H3480 C3498 0.951 . S
H3481 C3500 0.951 . S
H3482 C3502 0.950 . S
H3483 C3503 0.950 . S
H3484 C3505 0.950 . S
H3485 C3508 0.950 . S
H3486 C3509 0.950 . S
H3487 C3511 0.950 . S
H3488 C3512 0.950 . S
H3489 C3513 0.951 . S
H3490 C3515 0.951 . S
H3491 C3517 0.950 . S
H3492 C3518 0.950 . S
H3493 C3520 0.950 . S
H3494 C3523 0.950 . S
H3495 C3524 0.950 . S
H3496 C3526 0.950 . S
H3497 C3527 0.950 . S
C3498 H3480 0.951 . S
C3498 C3499 1.366 . S
C3498 C3500 1.388 . S
C3499 C3498 1.366 . S
C3499 C3503 1.385 . S
C3500 H3481 0.951 . S
C3500 C3498 1.388 . S
C3500 C3501 1.366 . S
C3501 C3500 1.366 . S
C3501 C3502 1.414 . S
C3501 C3504 1.499 . S
C3502 H3482 0.950 . S
C3502 C3501 1.414 . S
C3502 C3503 1.374 . S
C3503 H3483 0.950 . S
C3503 C3499 1.385 . S
C3503 C3502 1.374 . S
C3504 C3501 1.499 . S
C3504 C3505 1.373 . S
C3504 C3506 1.389 . S
C3505 H3484 0.950 . S
C3505 C3504 1.373 . S
C3505 C3521 1.377 . S
C3506 C3504 1.389 . S
C3506 C3507 1.524 . S
C3506 C3520 1.377 . S
C3507 C3506 1.524 . S
C3507 C3508 1.397 . S
C3507 C3512 1.363 . S
C3508 H3485 0.950 . S
C3508 C3507 1.397 . S
C3508 C3509 1.334 . S
C3509 H3486 0.950 . S
C3509 C3508 1.334 . S
C3509 C3510 1.287 . S
C3510 C3509 1.287 . S
C3510 C3511 1.524 . S
C3510 H3529 0.913 . S
C3511 H3487 0.950 . S
C3511 C3510 1.524 . S
C3511 C3512 1.415 . S
C3512 H3488 0.950 . S
C3512 C3507 1.363 . S
C3512 C3511 1.415 . S
C3513 H3489 0.951 . S
C3513 C3514 1.366 . S
C3513 C3515 1.388 . S
C3514 C3513 1.366 . S
C3514 C3518 1.385 . S
C3515 H3490 0.951 . S
C3515 C3513 1.388 . S
C3515 C3516 1.366 . S
C3516 C3515 1.366 . S
C3516 C3517 1.414 . S
C3516 C3519 1.499 . S
C3517 H3491 0.950 . S
C3517 C3516 1.414 . S
C3517 C3518 1.374 . S
C3518 H3492 0.950 . S
C3518 C3514 1.385 . S
C3518 C3517 1.374 . S
C3519 C3516 1.499 . S
C3519 C3520 1.373 . S
C3519 C3521 1.389 . S
C3520 H3493 0.950 . S
C3520 C3506 1.377 . S
C3520 C3519 1.373 . S
C3521 C3505 1.377 . S
C3521 C3519 1.389 . S
C3521 C3522 1.524 . S
C3522 C3521 1.524 . S
C3522 C3523 1.397 . S
C3522 C3527 1.363 . S
C3523 H3494 0.950 . S
C3523 C3522 1.397 . S
C3523 C3524 1.334 . S
C3524 H3495 0.950 . S
C3524 C3523 1.334 . S
C3524 C3525 1.287 . S
C3525 C3524 1.287 . S
C3525 C3526 1.524 . S
C3525 H3528 0.999 . S
C3526 H3496 0.950 . S
C3526 C3525 1.524 . S
C3526 C3527 1.415 . S
C3527 H3497 0.950 . S
C3527 C3522 1.363 . S
C3527 C3526 1.415 . S
H3528 C3525 0.999 . S
H3529 C3510 0.913 . S
H3530 C3548 0.951 . S
H3531 C3550 0.951 . S
H3532 C3552 0.950 . S
H3533 C3553 0.950 . S
H3534 C3555 0.950 . S
H3535 C3558 0.950 . S
H3536 C3559 0.950 . S
H3537 C3561 0.950 . S
H3538 C3562 0.950 . S
H3539 C3563 0.951 . S
H3540 C3565 0.951 . S
H3541 C3567 0.950 . S
H3542 C3568 0.950 . S
H3543 C3570 0.950 . S
H3544 C3573 0.950 . S
H3545 C3574 0.950 . S
H3546 C3576 0.950 . S
H3547 C3577 0.950 . S
C3548 H3530 0.951 . S
C3548 C3549 1.366 . S
C3548 C3550 1.388 . S
C3549 C3548 1.366 . S
C3549 C3553 1.385 . S
C3550 H3531 0.951 . S
C3550 C3548 1.388 . S
C3550 C3551 1.366 . S
C3551 C3550 1.366 . S
C3551 C3552 1.414 . S
C3551 C3554 1.499 . S
C3552 H3532 0.950 . S
C3552 C3551 1.414 . S
C3552 C3553 1.374 . S
C3553 H3533 0.950 . S
C3553 C3549 1.385 . S
C3553 C3552 1.374 . S
C3554 C3551 1.499 . S
C3554 C3555 1.373 . S
C3554 C3556 1.389 . S
C3555 H3534 0.950 . S
C3555 C3554 1.373 . S
C3555 C3571 1.377 . S
C3556 C3554 1.389 . S
C3556 C3557 1.524 . S
C3556 C3570 1.377 . S
C3557 C3556 1.524 . S
C3557 C3558 1.397 . S
C3557 C3562 1.363 . S
C3558 H3535 0.950 . S
C3558 C3557 1.397 . S
C3558 C3559 1.334 . S
C3559 H3536 0.950 . S
C3559 C3558 1.334 . S
C3559 C3560 1.287 . S
C3560 C3559 1.287 . S
C3560 C3561 1.524 . S
C3560 H3579 0.913 . S
C3561 H3537 0.950 . S
C3561 C3560 1.524 . S
C3561 C3562 1.415 . S
C3562 H3538 0.950 . S
C3562 C3557 1.363 . S
C3562 C3561 1.415 . S
C3563 H3539 0.951 . S
C3563 C3564 1.366 . S
C3563 C3565 1.388 . S
C3564 C3563 1.366 . S
C3564 C3568 1.385 . S
C3565 H3540 0.951 . S
C3565 C3563 1.388 . S
C3565 C3566 1.366 . S
C3566 C3565 1.366 . S
C3566 C3567 1.414 . S
C3566 C3569 1.499 . S
C3567 H3541 0.950 . S
C3567 C3566 1.414 . S
C3567 C3568 1.374 . S
C3568 H3542 0.950 . S
C3568 C3564 1.385 . S
C3568 C3567 1.374 . S
C3569 C3566 1.499 . S
C3569 C3570 1.373 . S
C3569 C3571 1.389 . S
C3570 H3543 0.950 . S
C3570 C3556 1.377 . S
C3570 C3569 1.373 . S
C3571 C3555 1.377 . S
C3571 C3569 1.389 . S
C3571 C3572 1.524 . S
C3572 C3571 1.524 . S
C3572 C3573 1.397 . S
C3572 C3577 1.363 . S
C3573 H3544 0.950 . S
C3573 C3572 1.397 . S
C3573 C3574 1.334 . S
C3574 H3545 0.950 . S
C3574 C3573 1.334 . S
C3574 C3575 1.287 . S
C3575 C3574 1.287 . S
C3575 C3576 1.524 . S
C3575 H3578 0.999 . S
C3576 H3546 0.950 . S
C3576 C3575 1.524 . S
C3576 C3577 1.415 . S
C3577 H3547 0.950 . S
C3577 C3572 1.363 . S
C3577 C3576 1.415 . S
H3578 C3575 0.999 . S
H3579 C3560 0.913 . S
H3580 C3598 0.951 . S
H3581 C3600 0.951 . S
H3582 C3602 0.950 . S
H3583 C3603 0.950 . S
H3584 C3605 0.950 . S
H3585 C3608 0.950 . S
H3586 C3609 0.950 . S
H3587 C3611 0.950 . S
H3588 C3612 0.950 . S
H3589 C3613 0.951 . S
H3590 C3615 0.951 . S
H3591 C3617 0.950 . S
H3592 C3618 0.950 . S
H3593 C3620 0.950 . S
H3594 C3623 0.950 . S
H3595 C3624 0.950 . S
H3596 C3626 0.950 . S
H3597 C3627 0.950 . S
C3598 H3580 0.951 . S
C3598 C3599 1.366 . S
C3598 C3600 1.388 . S
C3599 C3598 1.366 . S
C3599 C3603 1.385 . S
C3600 H3581 0.951 . S
C3600 C3598 1.388 . S
C3600 C3601 1.366 . S
C3601 C3600 1.366 . S
C3601 C3602 1.414 . S
C3601 C3604 1.499 . S
C3602 H3582 0.950 . S
C3602 C3601 1.414 . S
C3602 C3603 1.374 . S
C3603 H3583 0.950 . S
C3603 C3599 1.385 . S
C3603 C3602 1.374 . S
C3604 C3601 1.499 . S
C3604 C3605 1.373 . S
C3604 C3606 1.389 . S
C3605 H3584 0.950 . S
C3605 C3604 1.373 . S
C3605 C3621 1.377 . S
C3606 C3604 1.389 . S
C3606 C3607 1.524 . S
C3606 C3620 1.377 . S
C3607 C3606 1.524 . S
C3607 C3608 1.397 . S
C3607 C3612 1.363 . S
C3608 H3585 0.950 . S
C3608 C3607 1.397 . S
C3608 C3609 1.334 . S
C3609 H3586 0.950 . S
C3609 C3608 1.334 . S
C3609 C3610 1.287 . S
C3610 C3609 1.287 . S
C3610 C3611 1.524 . S
C3610 H3629 0.913 . S
C3611 H3587 0.950 . S
C3611 C3610 1.524 . S
C3611 C3612 1.415 . S
C3612 H3588 0.950 . S
C3612 C3607 1.363 . S
C3612 C3611 1.415 . S
C3613 H3589 0.951 . S
C3613 C3614 1.366 . S
C3613 C3615 1.388 . S
C3614 C3613 1.366 . S
C3614 C3618 1.385 . S
C3615 H3590 0.951 . S
C3615 C3613 1.388 . S
C3615 C3616 1.366 . S
C3616 C3615 1.366 . S
C3616 C3617 1.414 . S
C3616 C3619 1.499 . S
C3617 H3591 0.950 . S
C3617 C3616 1.414 . S
C3617 C3618 1.374 . S
C3618 H3592 0.950 . S
C3618 C3614 1.385 . S
C3618 C3617 1.374 . S
C3619 C3616 1.499 . S
C3619 C3620 1.373 . S
C3619 C3621 1.389 . S
C3620 H3593 0.950 . S
C3620 C3606 1.377 . S
C3620 C3619 1.373 . S
C3621 C3605 1.377 . S
C3621 C3619 1.389 . S
C3621 C3622 1.524 . S
C3622 C3621 1.524 . S
C3622 C3623 1.397 . S
C3622 C3627 1.363 . S
C3623 H3594 0.950 . S
C3623 C3622 1.397 . S
C3623 C3624 1.334 . S
C3624 H3595 0.950 . S
C3624 C3623 1.334 . S
C3624 C3625 1.287 . S
C3625 C3624 1.287 . S
C3625 C3626 1.524 . S
C3625 H3628 0.999 . S
C3626 H3596 0.950 . S
C3626 C3625 1.524 . S
C3626 C3627 1.415 . S
C3627 H3597 0.950 . S
C3627 C3622 1.363 . S
C3627 C3626 1.415 . S
H3628 C3625 0.999 . S
H3629 C3610 0.913 . S
H3630 C3648 0.951 . S
H3631 C3650 0.951 . S
H3632 C3652 0.950 . S
H3633 C3653 0.950 . S
H3634 C3655 0.950 . S
H3635 C3658 0.950 . S
H3636 C3659 0.950 . S
H3637 C3661 0.950 . S
H3638 C3662 0.950 . S
H3639 C3663 0.951 . S
H3640 C3665 0.951 . S
H3641 C3667 0.950 . S
H3642 C3668 0.950 . S
H3643 C3670 0.950 . S
H3644 C3673 0.950 . S
H3645 C3674 0.950 . S
H3646 C3676 0.950 1_455 S
H3647 C3677 0.950 . S
C3648 H3630 0.951 . S
C3648 C3649 1.366 . S
C3648 C3650 1.388 . S
C3649 C3648 1.366 . S
C3649 C3653 1.385 . S
C3650 H3631 0.951 . S
C3650 C3648 1.388 . S
C3650 C3651 1.366 . S
C3651 C3650 1.366 . S
C3651 C3652 1.414 . S
C3651 C3654 1.499 . S
C3652 H3632 0.950 . S
C3652 C3651 1.414 . S
C3652 C3653 1.374 . S
C3653 H3633 0.950 . S
C3653 C3649 1.385 . S
C3653 C3652 1.374 . S
C3654 C3651 1.499 . S
C3654 C3655 1.373 . S
C3654 C3656 1.389 . S
C3655 H3634 0.950 . S
C3655 C3654 1.373 . S
C3655 C3671 1.377 . S
C3656 C3654 1.389 . S
C3656 C3657 1.524 . S
C3656 C3670 1.377 . S
C3657 C3656 1.524 . S
C3657 C3658 1.397 . S
C3657 C3662 1.363 . S
C3658 H3635 0.950 . S
C3658 C3657 1.397 . S
C3658 C3659 1.334 . S
C3659 H3636 0.950 . S
C3659 C3658 1.334 . S
C3659 C3660 1.287 . S
C3660 C3659 1.287 . S
C3660 C3661 1.524 . S
C3660 H3679 0.913 . S
C3661 H3637 0.950 . S
C3661 C3660 1.524 . S
C3661 C3662 1.415 . S
C3662 H3638 0.950 . S
C3662 C3657 1.363 . S
C3662 C3661 1.415 . S
C3663 H3639 0.951 . S
C3663 C3664 1.366 . S
C3663 C3665 1.388 . S
C3664 C3663 1.366 . S
C3664 C3668 1.385 . S
C3665 H3640 0.951 . S
C3665 C3663 1.388 . S
C3665 C3666 1.366 . S
C3666 C3665 1.366 . S
C3666 C3667 1.414 . S
C3666 C3669 1.499 . S
C3667 H3641 0.950 . S
C3667 C3666 1.414 . S
C3667 C3668 1.374 . S
C3668 H3642 0.950 . S
C3668 C3664 1.385 . S
C3668 C3667 1.374 . S
C3669 C3666 1.499 . S
C3669 C3670 1.373 . S
C3669 C3671 1.389 . S
C3670 H3643 0.950 . S
C3670 C3656 1.377 . S
C3670 C3669 1.373 . S
C3671 C3655 1.377 . S
C3671 C3669 1.389 . S
C3671 C3672 1.524 . S
C3672 C3671 1.524 . S
C3672 C3673 1.397 . S
C3672 C3677 1.363 . S
C3673 H3644 0.950 . S
C3673 C3672 1.397 . S
C3673 C3674 1.334 . S
C3674 H3645 0.950 . S
C3674 C3673 1.334 . S
C3674 C3675 1.287 . S
C3675 C3674 1.287 . S
C3675 C3676 1.524 . S
C3675 H3678 0.999 1_655 S
C3676 H3646 0.950 1_655 S
C3676 C3675 1.524 . S
C3676 C3677 1.415 . S
C3677 H3647 0.950 . S
C3677 C3672 1.363 . S
C3677 C3676 1.415 . S
H3678 C3675 0.999 1_455 S
H3679 C3660 0.913 . S
H3680 C3698 0.951 . S
H3681 C3700 0.951 . S
H3682 C3702 0.950 . S
H3683 C3703 0.950 . S
H3684 C3705 0.950 . S
H3685 C3708 0.950 . S
H3686 C3709 0.950 . S
H3687 C3711 0.950 . S
H3688 C3712 0.950 . S
H3689 C3713 0.951 . S
H3690 C3715 0.951 . S
H3691 C3717 0.950 . S
H3692 C3718 0.950 . S
H3693 C3720 0.950 . S
H3694 C3723 0.950 . S
H3695 C3724 0.950 . S
H3696 C3726 0.950 . S
H3697 C3727 0.950 . S
C3698 H3680 0.951 . S
C3698 C3699 1.366 . S
C3698 C3700 1.388 . S
C3699 C3698 1.366 . S
C3699 C3703 1.385 . S
C3700 H3681 0.951 . S
C3700 C3698 1.388 . S
C3700 C3701 1.366 . S
C3701 C3700 1.366 . S
C3701 C3702 1.414 . S
C3701 C3704 1.499 . S
C3702 H3682 0.950 . S
C3702 C3701 1.414 . S
C3702 C3703 1.374 . S
C3703 H3683 0.950 . S
C3703 C3699 1.385 . S
C3703 C3702 1.374 . S
C3704 C3701 1.499 . S
C3704 C3705 1.373 . S
C3704 C3706 1.389 . S
C3705 H3684 0.950 . S
C3705 C3704 1.373 . S
C3705 C3721 1.377 . S
C3706 C3704 1.389 . S
C3706 C3707 1.524 . S
C3706 C3720 1.377 . S
C3707 C3706 1.524 . S
C3707 C3708 1.397 . S
C3707 C3712 1.363 . S
C3708 H3685 0.950 . S
C3708 C3707 1.397 . S
C3708 C3709 1.334 1_545 S
C3709 H3686 0.950 . S
C3709 C3708 1.334 1_565 S
C3709 C3710 1.287 . S
C3710 C3709 1.287 . S
C3710 C3711 1.524 1_565 S
C3710 H3729 0.913 . S
C3711 H3687 0.950 . S
C3711 C3710 1.524 1_545 S
C3711 C3712 1.415 . S
C3712 H3688 0.950 . S
C3712 C3707 1.363 . S
C3712 C3711 1.415 . S
C3713 H3689 0.951 . S
C3713 C3714 1.366 . S
C3713 C3715 1.388 . S
C3714 C3713 1.366 . S
C3714 C3718 1.385 . S
C3715 H3690 0.951 . S
C3715 C3713 1.388 . S
C3715 C3716 1.366 . S
C3716 C3715 1.366 . S
C3716 C3717 1.414 . S
C3716 C3719 1.499 . S
C3717 H3691 0.950 . S
C3717 C3716 1.414 . S
C3717 C3718 1.374 . S
C3718 H3692 0.950 . S
C3718 C3714 1.385 . S
C3718 C3717 1.374 . S
C3719 C3716 1.499 . S
C3719 C3720 1.373 . S
C3719 C3721 1.389 . S
C3720 H3693 0.950 . S
C3720 C3706 1.377 . S
C3720 C3719 1.373 . S
C3721 C3705 1.377 . S
C3721 C3719 1.389 . S
C3721 C3722 1.524 . S
C3722 C3721 1.524 . S
C3722 C3723 1.397 . S
C3722 C3727 1.363 . S
C3723 H3694 0.950 . S
C3723 C3722 1.397 . S
C3723 C3724 1.334 . S
C3724 H3695 0.950 . S
C3724 C3723 1.334 . S
C3724 C3725 1.287 . S
C3725 C3724 1.287 . S
C3725 C3726 1.524 . S
C3725 H3728 0.999 . S
C3726 H3696 0.950 . S
C3726 C3725 1.524 . S
C3726 C3727 1.415 . S
C3727 H3697 0.950 . S
C3727 C3722 1.363 . S
C3727 C3726 1.415 . S
H3728 C3725 0.999 . S
H3729 C3710 0.913 . S
H3730 C3748 0.951 . S
H3731 C3750 0.951 . S
H3732 C3752 0.950 . S
H3733 C3753 0.950 . S
H3734 C3755 0.950 . S
H3735 C3758 0.950 . S
H3736 C3759 0.950 1_545 S
H3737 C3761 0.950 . S
H3738 C3762 0.950 . S
H3739 C3763 0.951 . S
H3740 C3765 0.951 . S
H3741 C3767 0.950 . S
H3742 C3768 0.950 . S
H3743 C3770 0.950 . S
H3744 C3773 0.950 . S
H3745 C3774 0.950 . S
H3746 C3776 0.950 . S
H3747 C3777 0.950 . S
C3748 H3730 0.951 . S
C3748 C3749 1.366 . S
C3748 C3750 1.388 . S
C3749 C3748 1.366 . S
C3749 C3753 1.385 . S
C3750 H3731 0.951 . S
C3750 C3748 1.388 . S
C3750 C3751 1.366 . S
C3751 C3750 1.366 . S
C3751 C3752 1.414 . S
C3751 C3754 1.499 . S
C3752 H3732 0.950 . S
C3752 C3751 1.414 . S
C3752 C3753 1.374 . S
C3753 H3733 0.950 . S
C3753 C3749 1.385 . S
C3753 C3752 1.374 . S
C3754 C3751 1.499 . S
C3754 C3755 1.373 . S
C3754 C3756 1.389 . S
C3755 H3734 0.950 . S
C3755 C3754 1.373 . S
C3755 C3771 1.377 . S
C3756 C3754 1.389 . S
C3756 C3757 1.524 . S
C3756 C3770 1.377 . S
C3757 C3756 1.524 . S
C3757 C3758 1.397 . S
C3757 C3762 1.363 . S
C3758 H3735 0.950 . S
C3758 C3757 1.397 . S
C3758 C3759 1.334 . S
C3759 H3736 0.950 1_565 S
C3759 C3758 1.334 . S
C3759 C3760 1.287 1_565 S
C3760 C3759 1.287 1_545 S
C3760 C3761 1.524 . S
C3760 H3779 0.913 . S
C3761 H3737 0.950 . S
C3761 C3760 1.524 . S
C3761 C3762 1.415 1_545 S
C3762 H3738 0.950 . S
C3762 C3757 1.363 . S
C3762 C3761 1.415 1_565 S
C3763 H3739 0.951 . S
C3763 C3764 1.366 . S
C3763 C3765 1.388 . S
C3764 C3763 1.366 . S
C3764 C3768 1.385 . S
C3765 H3740 0.951 . S
C3765 C3763 1.388 . S
C3765 C3766 1.366 . S
C3766 C3765 1.366 . S
C3766 C3767 1.414 . S
C3766 C3769 1.499 . S
C3767 H3741 0.950 . S
C3767 C3766 1.414 . S
C3767 C3768 1.374 . S
C3768 H3742 0.950 . S
C3768 C3764 1.385 . S
C3768 C3767 1.374 . S
C3769 C3766 1.499 . S
C3769 C3770 1.373 . S
C3769 C3771 1.389 . S
C3770 H3743 0.950 . S
C3770 C3756 1.377 . S
C3770 C3769 1.373 . S
C3771 C3755 1.377 . S
C3771 C3769 1.389 . S
C3771 C3772 1.524 . S
C3772 C3771 1.524 . S
C3772 C3773 1.397 . S
C3772 C3777 1.363 . S
C3773 H3744 0.950 . S
C3773 C3772 1.397 . S
C3773 C3774 1.334 . S
C3774 H3745 0.950 . S
C3774 C3773 1.334 . S
C3774 C3775 1.287 . S
C3775 C3774 1.287 . S
C3775 C3776 1.524 . S
C3775 H3778 0.999 . S
C3776 H3746 0.950 . S
C3776 C3775 1.524 . S
C3776 C3777 1.415 . S
C3777 H3747 0.950 . S
C3777 C3772 1.363 . S
C3777 C3776 1.415 . S
H3778 C3775 0.999 . S
H3779 C3760 0.913 . S
H3780 C3798 0.951 . S
H3781 C3800 0.951 . S
H3782 C3802 0.950 . S
H3783 C3803 0.950 . S
H3784 C3805 0.950 . S
H3785 C3808 0.950 . S
H3786 C3809 0.950 . S
H3787 C3811 0.950 . S
H3788 C3812 0.950 . S
H3789 C3813 0.951 . S
H3790 C3815 0.951 . S
H3791 C3817 0.950 . S
H3792 C3818 0.950 . S
H3793 C3820 0.950 . S
H3794 C3823 0.950 . S
H3795 C3824 0.950 . S
H3796 C3826 0.950 . S
H3797 C3827 0.950 . S
C3798 H3780 0.951 . S
C3798 C3799 1.366 . S
C3798 C3800 1.388 . S
C3799 C3798 1.366 . S
C3799 C3803 1.385 . S
C3800 H3781 0.951 . S
C3800 C3798 1.388 . S
C3800 C3801 1.366 . S
C3801 C3800 1.366 . S
C3801 C3802 1.414 . S
C3801 C3804 1.499 . S
C3802 H3782 0.950 . S
C3802 C3801 1.414 . S
C3802 C3803 1.374 . S
C3803 H3783 0.950 . S
C3803 C3799 1.385 . S
C3803 C3802 1.374 . S
C3804 C3801 1.499 . S
C3804 C3805 1.373 . S
C3804 C3806 1.389 . S
C3805 H3784 0.950 . S
C3805 C3804 1.373 . S
C3805 C3821 1.377 . S
C3806 C3804 1.389 . S
C3806 C3807 1.524 . S
C3806 C3820 1.377 . S
C3807 C3806 1.524 . S
C3807 C3808 1.397 . S
C3807 C3812 1.363 . S
C3808 H3785 0.950 . S
C3808 C3807 1.397 . S
C3808 C3809 1.334 . S
C3809 H3786 0.950 . S
C3809 C3808 1.334 . S
C3809 C3810 1.287 . S
C3810 C3809 1.287 . S
C3810 C3811 1.524 . S
C3810 H3829 0.913 . S
C3811 H3787 0.950 . S
C3811 C3810 1.524 . S
C3811 C3812 1.415 . S
C3812 H3788 0.950 . S
C3812 C3807 1.363 . S
C3812 C3811 1.415 . S
C3813 H3789 0.951 . S
C3813 C3814 1.366 . S
C3813 C3815 1.388 . S
C3814 C3813 1.366 . S
C3814 C3818 1.385 . S
C3815 H3790 0.951 . S
C3815 C3813 1.388 . S
C3815 C3816 1.366 . S
C3816 C3815 1.366 . S
C3816 C3817 1.414 . S
C3816 C3819 1.499 . S
C3817 H3791 0.950 . S
C3817 C3816 1.414 . S
C3817 C3818 1.374 . S
C3818 H3792 0.950 . S
C3818 C3814 1.385 . S
C3818 C3817 1.374 . S
C3819 C3816 1.499 . S
C3819 C3820 1.373 . S
C3819 C3821 1.389 . S
C3820 H3793 0.950 . S
C3820 C3806 1.377 . S
C3820 C3819 1.373 . S
C3821 C3805 1.377 . S
C3821 C3819 1.389 . S
C3821 C3822 1.524 . S
C3822 C3821 1.524 . S
C3822 C3823 1.397 . S
C3822 C3827 1.363 . S
C3823 H3794 0.950 . S
C3823 C3822 1.397 . S
C3823 C3824 1.334 . S
C3824 H3795 0.950 . S
C3824 C3823 1.334 . S
C3824 C3825 1.287 . S
C3825 C3824 1.287 . S
C3825 C3826 1.524 . S
C3825 H3828 0.999 . S
C3826 H3796 0.950 . S
C3826 C3825 1.524 . S
C3826 C3827 1.415 . S
C3827 H3797 0.950 . S
C3827 C3822 1.363 . S
C3827 C3826 1.415 . S
H3828 C3825 0.999 . S
H3829 C3810 0.913 . S
H3830 C3848 0.951 . S
H3831 C3850 0.951 . S
H3832 C3852 0.950 . S
H3833 C3853 0.950 . S
H3834 C3855 0.950 . S
H3835 C3858 0.950 . S
H3836 C3859 0.950 . S
H3837 C3861 0.950 . S
H3838 C3862 0.950 . S
H3839 C3863 0.951 . S
H3840 C3865 0.951 . S
H3841 C3867 0.950 . S
H3842 C3868 0.950 . S
H3843 C3870 0.950 . S
H3844 C3873 0.950 . S
H3845 C3874 0.950 . S
H3846 C3876 0.950 . S
H3847 C3877 0.950 . S
C3848 H3830 0.951 . S
C3848 C3849 1.366 . S
C3848 C3850 1.388 . S
C3849 C3848 1.366 . S
C3849 C3853 1.385 . S
C3850 H3831 0.951 . S
C3850 C3848 1.388 . S
C3850 C3851 1.366 . S
C3851 C3850 1.366 . S
C3851 C3852 1.414 . S
C3851 C3854 1.499 . S
C3852 H3832 0.950 . S
C3852 C3851 1.414 . S
C3852 C3853 1.374 . S
C3853 H3833 0.950 . S
C3853 C3849 1.385 . S
C3853 C3852 1.374 . S
C3854 C3851 1.499 . S
C3854 C3855 1.373 . S
C3854 C3856 1.389 . S
C3855 H3834 0.950 . S
C3855 C3854 1.373 . S
C3855 C3871 1.377 . S
C3856 C3854 1.389 . S
C3856 C3857 1.524 . S
C3856 C3870 1.377 . S
C3857 C3856 1.524 . S
C3857 C3858 1.397 . S
C3857 C3862 1.363 . S
C3858 H3835 0.950 . S
C3858 C3857 1.397 . S
C3858 C3859 1.334 . S
C3859 H3836 0.950 . S
C3859 C3858 1.334 . S
C3859 C3860 1.287 . S
C3860 C3859 1.287 . S
C3860 C3861 1.524 . S
C3860 H3879 0.913 . S
C3861 H3837 0.950 . S
C3861 C3860 1.524 . S
C3861 C3862 1.415 . S
C3862 H3838 0.950 . S
C3862 C3857 1.363 . S
C3862 C3861 1.415 . S
C3863 H3839 0.951 . S
C3863 C3864 1.366 . S
C3863 C3865 1.388 . S
C3864 C3863 1.366 . S
C3864 C3868 1.385 . S
C3865 H3840 0.951 . S
C3865 C3863 1.388 . S
C3865 C3866 1.366 . S
C3866 C3865 1.366 . S
C3866 C3867 1.414 . S
C3866 C3869 1.499 . S
C3867 H3841 0.950 . S
C3867 C3866 1.414 . S
C3867 C3868 1.374 . S
C3868 H3842 0.950 . S
C3868 C3864 1.385 . S
C3868 C3867 1.374 . S
C3869 C3866 1.499 . S
C3869 C3870 1.373 . S
C3869 C3871 1.389 . S
C3870 H3843 0.950 . S
C3870 C3856 1.377 . S
C3870 C3869 1.373 . S
C3871 C3855 1.377 . S
C3871 C3869 1.389 . S
C3871 C3872 1.524 . S
C3872 C3871 1.524 . S
C3872 C3873 1.397 . S
C3872 C3877 1.363 . S
C3873 H3844 0.950 . S
C3873 C3872 1.397 . S
C3873 C3874 1.334 . S
C3874 H3845 0.950 . S
C3874 C3873 1.334 . S
C3874 C3875 1.287 . S
C3875 C3874 1.287 . S
C3875 C3876 1.524 . S
C3875 H3878 0.999 . S
C3876 H3846 0.950 . S
C3876 C3875 1.524 . S
C3876 C3877 1.415 . S
C3877 H3847 0.950 . S
C3877 C3872 1.363 . S
C3877 C3876 1.415 . S
H3878 C3875 0.999 . S
H3879 C3860 0.913 . S
H3880 C3898 0.951 . S
H3881 C3900 0.951 . S
H3882 C3902 0.950 . S
H3883 C3903 0.950 . S
H3884 C3905 0.950 . S
H3885 C3908 0.950 . S
H3886 C3909 0.950 . S
H3887 C3911 0.950 . S
H3888 C3912 0.950 . S
H3889 C3913 0.951 . S
H3890 C3915 0.951 . S
H3891 C3917 0.950 . S
H3892 C3918 0.950 . S
H3893 C3920 0.950 . S
H3894 C3923 0.950 . S
H3895 C3924 0.950 . S
H3896 C3926 0.950 . S
H3897 C3927 0.950 . S
C3898 H3880 0.951 . S
C3898 C3899 1.366 . S
C3898 C3900 1.388 . S
C3899 C3898 1.366 . S
C3899 C3903 1.385 . S
C3900 H3881 0.951 . S
C3900 C3898 1.388 . S
C3900 C3901 1.366 . S
C3901 C3900 1.366 . S
C3901 C3902 1.414 . S
C3901 C3904 1.499 . S
C3902 H3882 0.950 . S
C3902 C3901 1.414 . S
C3902 C3903 1.374 . S
C3903 H3883 0.950 . S
C3903 C3899 1.385 . S
C3903 C3902 1.374 . S
C3904 C3901 1.499 . S
C3904 C3905 1.373 . S
C3904 C3906 1.389 . S
C3905 H3884 0.950 . S
C3905 C3904 1.373 . S
C3905 C3921 1.377 . S
C3906 C3904 1.389 . S
C3906 C3907 1.524 . S
C3906 C3920 1.377 . S
C3907 C3906 1.524 . S
C3907 C3908 1.397 . S
C3907 C3912 1.363 . S
C3908 H3885 0.950 . S
C3908 C3907 1.397 . S
C3908 C3909 1.334 . S
C3909 H3886 0.950 . S
C3909 C3908 1.334 . S
C3909 C3910 1.287 . S
C3910 C3909 1.287 . S
C3910 C3911 1.524 . S
C3910 H3929 0.913 . S
C3911 H3887 0.950 . S
C3911 C3910 1.524 . S
C3911 C3912 1.415 . S
C3912 H3888 0.950 . S
C3912 C3907 1.363 . S
C3912 C3911 1.415 . S
C3913 H3889 0.951 . S
C3913 C3914 1.366 . S
C3913 C3915 1.388 . S
C3914 C3913 1.366 . S
C3914 C3918 1.385 . S
C3915 H3890 0.951 . S
C3915 C3913 1.388 . S
C3915 C3916 1.366 . S
C3916 C3915 1.366 . S
C3916 C3917 1.414 . S
C3916 C3919 1.499 . S
C3917 H3891 0.950 . S
C3917 C3916 1.414 . S
C3917 C3918 1.374 . S
C3918 H3892 0.950 . S
C3918 C3914 1.385 . S
C3918 C3917 1.374 . S
C3919 C3916 1.499 . S
C3919 C3920 1.373 . S
C3919 C3921 1.389 . S
C3920 H3893 0.950 . S
C3920 C3906 1.377 . S
C3920 C3919 1.373 . S
C3921 C3905 1.377 . S
C3921 C3919 1.389 . S
C3921 C3922 1.524 . S
C3922 C3921 1.524 . S
C3922 C3923 1.397 . S
C3922 C3927 1.363 . S
C3923 H3894 0.950 . S
C3923 C3922 1.397 . S
C3923 C3924 1.334 . S
C3924 H3895 0.950 . S
C3924 C3923 1.334 . S
C3924 C3925 1.287 . S
C3925 C3924 1.287 . S
C3925 C3926 1.524 . S
C3925 H3928 0.999 . S
C3926 H3896 0.950 . S
C3926 C3925 1.524 . S
C3926 C3927 1.415 . S
C3927 H3897 0.950 . S
C3927 C3922 1.363 . S
C3927 C3926 1.415 . S
H3928 C3925 0.999 . S
H3929 C3910 0.913 . S
H3930 C3948 0.951 . S
H3931 C3950 0.951 . S
H3932 C3952 0.950 . S
H3933 C3953 0.950 . S
H3934 C3955 0.950 . S
H3935 C3958 0.950 . S
H3936 C3959 0.950 . S
H3937 C3961 0.950 . S
H3938 C3962 0.950 . S
H3939 C3963 0.951 . S
H3940 C3965 0.951 . S
H3941 C3967 0.950 . S
H3942 C3968 0.950 . S
H3943 C3970 0.950 . S
H3944 C3973 0.950 . S
H3945 C3974 0.950 . S
H3946 C3976 0.973 . S
H3947 C3977 0.950 . S
C3948 H3930 0.951 . S
C3948 C3949 1.366 . S
C3948 C3950 1.388 . S
C3949 C3948 1.366 . S
C3949 C3953 1.385 . S
C3950 H3931 0.951 . S
C3950 C3948 1.388 . S
C3950 C3951 1.366 . S
C3951 C3950 1.366 . S
C3951 C3952 1.414 . S
C3951 C3954 1.499 . S
C3952 H3932 0.950 . S
C3952 C3951 1.414 . S
C3952 C3953 1.374 . S
C3953 H3933 0.950 . S
C3953 C3949 1.385 . S
C3953 C3952 1.374 . S
C3954 C3951 1.499 . S
C3954 C3955 1.373 . S
C3954 C3956 1.389 . S
C3955 H3934 0.950 . S
C3955 C3954 1.373 . S
C3955 C3971 1.377 . S
C3956 C3954 1.389 . S
C3956 C3957 1.524 . S
C3956 C3970 1.377 . S
C3957 C3956 1.524 . S
C3957 C3958 1.397 . S
C3957 C3962 1.363 . S
C3958 H3935 0.950 . S
C3958 C3957 1.397 . S
C3958 C3959 1.334 . S
C3959 H3936 0.950 . S
C3959 C3958 1.334 . S
C3959 C3960 1.287 . S
C3960 C3959 1.287 . S
C3960 C3961 1.524 . S
C3960 H3979 0.913 . S
C3961 H3937 0.950 . S
C3961 C3960 1.524 . S
C3961 C3962 1.415 . S
C3962 H3938 0.950 . S
C3962 C3957 1.363 . S
C3962 C3961 1.415 . S
C3963 H3939 0.951 . S
C3963 C3964 1.366 . S
C3963 C3965 1.388 . S
C3964 C3963 1.366 . S
C3964 C3968 1.385 . S
C3965 H3940 0.951 . S
C3965 C3963 1.388 . S
C3965 C3966 1.366 . S
C3966 C3965 1.366 . S
C3966 C3967 1.414 . S
C3966 C3969 1.499 . S
C3967 H3941 0.950 . S
C3967 C3966 1.414 . S
C3967 C3968 1.374 . S
C3968 H3942 0.950 . S
C3968 C3964 1.385 . S
C3968 C3967 1.374 . S
C3969 C3966 1.499 . S
C3969 C3970 1.373 . S
C3969 C3971 1.389 . S
C3970 H3943 0.950 . S
C3970 C3956 1.377 . S
C3970 C3969 1.373 . S
C3971 C3955 1.377 . S
C3971 C3969 1.389 . S
C3971 C3972 1.524 . S
C3972 C3971 1.524 . S
C3972 C3973 1.397 . S
C3972 C3977 1.363 . S
C3973 H3944 0.950 . S
C3973 C3972 1.397 . S
C3973 C3974 1.334 . S
C3974 H3945 0.950 . S
C3974 C3973 1.334 . S
C3974 C3975 1.287 1_556 S
C3975 C3974 1.287 1_554 S
C3975 C3976 1.528 . S
C3975 H3978 0.999 . S
C3976 H3946 0.973 . S
C3976 C3975 1.528 . S
C3976 C3977 1.385 1_554 S
C3977 H3947 0.950 . S
C3977 C3972 1.363 . S
C3977 C3976 1.385 1_556 S
H3978 C3975 0.999 . S
H3979 C3960 0.913 . S
H3980 C3998 0.951 . S
H3981 C4000 0.951 . S
H3982 C4002 0.950 . S
H3983 C4003 0.950 . S
H3984 C4005 0.950 . S
H3985 C4008 0.950 . S
H3986 C4009 0.950 . S
H3987 C4011 0.950 . S
H3988 C4012 0.950 . S
H3989 C4013 0.951 . S
H3990 C4015 0.951 . S
H3991 C4017 0.950 . S
H3992 C4018 0.950 . S
H3993 C4020 0.950 . S
H3994 C4023 0.950 . S
H3995 C4024 0.950 . S
H3996 C4026 0.950 . S
H3997 C4027 0.950 . S
C3998 H3980 0.951 . S
C3998 C3999 1.366 . S
C3998 C4000 1.388 . S
C3999 C3998 1.366 . S
C3999 C4003 1.385 . S
C4000 H3981 0.951 . S
C4000 C3998 1.388 . S
C4000 C4001 1.366 . S
C4001 C4000 1.366 . S
C4001 C4002 1.414 . S
C4001 C4004 1.499 . S
C4002 H3982 0.950 . S
C4002 C4001 1.414 . S
C4002 C4003 1.374 . S
C4003 H3983 0.950 . S
C4003 C3999 1.385 . S
C4003 C4002 1.374 . S
C4004 C4001 1.499 . S
C4004 C4005 1.373 . S
C4004 C4006 1.389 . S
C4005 H3984 0.950 . S
C4005 C4004 1.373 . S
C4005 C4021 1.377 . S
C4006 C4004 1.389 . S
C4006 C4007 1.524 . S
C4006 C4020 1.377 . S
C4007 C4006 1.524 . S
C4007 C4008 1.397 . S
C4007 C4012 1.363 . S
C4008 H3985 0.950 . S
C4008 C4007 1.397 . S
C4008 C4009 1.334 . S
C4009 H3986 0.950 . S
C4009 C4008 1.334 . S
C4009 C4010 1.287 . S
C4010 C4009 1.287 . S
C4010 C4011 1.524 . S
C4010 H4029 0.913 . S
C4011 H3987 0.950 . S
C4011 C4010 1.524 . S
C4011 C4012 1.415 . S
C4012 H3988 0.950 . S
C4012 C4007 1.363 . S
C4012 C4011 1.415 . S
C4013 H3989 0.951 . S
C4013 C4014 1.366 . S
C4013 C4015 1.388 . S
C4014 C4013 1.366 . S
C4014 C4018 1.385 . S
C4015 H3990 0.951 . S
C4015 C4013 1.388 . S
C4015 C4016 1.366 . S
C4016 C4015 1.366 . S
C4016 C4017 1.414 . S
C4016 C4019 1.499 . S
C4017 H3991 0.950 . S
C4017 C4016 1.414 . S
C4017 C4018 1.374 . S
C4018 H3992 0.950 . S
C4018 C4014 1.385 . S
C4018 C4017 1.374 . S
C4019 C4016 1.499 . S
C4019 C4020 1.373 . S
C4019 C4021 1.389 . S
C4020 H3993 0.950 . S
C4020 C4006 1.377 . S
C4020 C4019 1.373 . S
C4021 C4005 1.377 . S
C4021 C4019 1.389 . S
C4021 C4022 1.524 . S
C4022 C4021 1.524 . S
C4022 C4023 1.397 . S
C4022 C4027 1.363 . S
C4023 H3994 0.950 . S
C4023 C4022 1.397 . S
C4023 C4024 1.334 . S
C4024 H3995 0.950 . S
C4024 C4023 1.334 . S
C4024 C4025 1.287 . S
C4025 C4024 1.287 . S
C4025 C4026 1.524 . S
C4025 H4028 0.999 . S
C4026 H3996 0.950 . S
C4026 C4025 1.524 . S
C4026 C4027 1.415 . S
C4027 H3997 0.950 . S
C4027 C4022 1.363 . S
C4027 C4026 1.415 . S
H4028 C4025 0.999 . S
H4029 C4010 0.913 . S
H4030 C4048 0.951 . S
H4031 C4050 0.951 . S
H4032 C4052 0.950 . S
H4033 C4053 0.950 . S
H4034 C4055 0.950 . S
H4035 C4058 0.950 . S
H4036 C4059 0.950 . S
H4037 C4061 0.950 . S
H4038 C4062 0.950 . S
H4039 C4063 0.951 . S
H4040 C4065 0.951 . S
H4041 C4067 0.950 . S
H4042 C4068 0.950 . S
H4043 C4070 0.950 . S
H4044 C4073 0.950 . S
H4045 C4074 0.950 . S
H4046 C4076 0.950 . S
H4047 C4077 0.950 . S
C4048 H4030 0.951 . S
C4048 C4049 1.366 . S
C4048 C4050 1.388 . S
C4049 C4048 1.366 . S
C4049 C4053 1.385 . S
C4050 H4031 0.951 . S
C4050 C4048 1.388 . S
C4050 C4051 1.366 . S
C4051 C4050 1.366 . S
C4051 C4052 1.414 . S
C4051 C4054 1.499 . S
C4052 H4032 0.950 . S
C4052 C4051 1.414 . S
C4052 C4053 1.374 . S
C4053 H4033 0.950 . S
C4053 C4049 1.385 . S
C4053 C4052 1.374 . S
C4054 C4051 1.499 . S
C4054 C4055 1.373 . S
C4054 C4056 1.389 . S
C4055 H4034 0.950 . S
C4055 C4054 1.373 . S
C4055 C4071 1.377 . S
C4056 C4054 1.389 . S
C4056 C4057 1.524 . S
C4056 C4070 1.377 . S
C4057 C4056 1.524 . S
C4057 C4058 1.397 . S
C4057 C4062 1.363 . S
C4058 H4035 0.950 . S
C4058 C4057 1.397 . S
C4058 C4059 1.334 . S
C4059 H4036 0.950 . S
C4059 C4058 1.334 . S
C4059 C4060 1.287 . S
C4060 C4059 1.287 . S
C4060 C4061 1.524 . S
C4060 H4079 0.913 . S
C4061 H4037 0.950 . S
C4061 C4060 1.524 . S
C4061 C4062 1.415 . S
C4062 H4038 0.950 . S
C4062 C4057 1.363 . S
C4062 C4061 1.415 . S
C4063 H4039 0.951 . S
C4063 C4064 1.366 . S
C4063 C4065 1.388 . S
C4064 C4063 1.366 . S
C4064 C4068 1.385 . S
C4065 H4040 0.951 . S
C4065 C4063 1.388 . S
C4065 C4066 1.366 . S
C4066 C4065 1.366 . S
C4066 C4067 1.414 . S
C4066 C4069 1.499 . S
C4067 H4041 0.950 . S
C4067 C4066 1.414 . S
C4067 C4068 1.374 . S
C4068 H4042 0.950 . S
C4068 C4064 1.385 . S
C4068 C4067 1.374 . S
C4069 C4066 1.499 . S
C4069 C4070 1.373 . S
C4069 C4071 1.389 . S
C4070 H4043 0.950 . S
C4070 C4056 1.377 . S
C4070 C4069 1.373 . S
C4071 C4055 1.377 . S
C4071 C4069 1.389 . S
C4071 C4072 1.524 . S
C4072 C4071 1.524 . S
C4072 C4073 1.397 . S
C4072 C4077 1.363 . S
C4073 H4044 0.950 . S
C4073 C4072 1.397 . S
C4073 C4074 1.334 . S
C4074 H4045 0.950 . S
C4074 C4073 1.334 . S
C4074 C4075 1.287 . S
C4075 C4074 1.287 . S
C4075 C4076 1.524 . S
C4075 H4078 0.999 . S
C4076 H4046 0.950 . S
C4076 C4075 1.524 . S
C4076 C4077 1.415 . S
C4077 H4047 0.950 . S
C4077 C4072 1.363 . S
C4077 C4076 1.415 . S
H4078 C4075 0.999 . S
H4079 C4060 0.913 . S
C499 C18 1.109 . S
C514 C362 1.086 . S
C549 C382 1.085 . S
C564 C38 1.109 . S
C599 C58 1.110 . S
C614 C322 1.086 . S
C649 C78 1.109 . S
C664 C342 1.084 . S
C699 C442 1.085 . S
C714 C98 1.109 . S
C749 C118 1.110 . S
C764 C422 1.085 . S
C799 C462 1.084 . S
C814 C138 1.109 . S
C849 C158 1.109 . S
C864 C402 1.084 . S
C899 C178 1.109 . S
C914 C262 1.086 . S
C949 C198 1.110 . S
C964 C302 1.086 . S
C999 C282 1.085 . S
C1014 C218 1.109 . S
C1049 C238 1.109 . S
C1064 C242 1.086 . S
C1099 C259 1.109 . S
C1114 C124 1.084 . S
C1149 C279 1.109 . S
C1164 C144 1.085 . S
C1199 C299 1.109 . S
C1214 C84 1.085 . S
C1249 C104 1.085 . S
C1264 C319 1.109 . S
C1299 C339 1.109 . S
C1314 C204 1.084 . S
C1349 C184 1.085 . S
C1364 C359 1.109 . S
C1399 C224 1.084 . S
C1414 C379 1.109 . S
C1449 C164 1.086 . S
C1464 C399 1.110 . S
C1499 C24 1.086 . S
C1514 C419 1.109 . S
C1549 C64 1.084 . S
C1564 C439 1.109 . S
C1599 C44 1.084 . S
C1614 C459 1.109 . S
C1649 C479 1.109 . S
C1664 C4 1.086 . S
C1699 C82 1.328 . S
C1714 C9 1.440 . S
C1749 C102 1.328 . S
C1764 C29 1.440 . S
C1799 C122 1.327 . S
C1814 C49 1.440 . S
C1849 C142 1.327 . S
C1864 C69 1.440 . S
C1899 C89 1.440 . S
C1914 C162 1.328 . S
C1949 C109 1.440 . S
C1964 C222 1.327 . S
C1999 C129 1.440 . S
C2014 C182 1.327 . S
C2049 C149 1.440 . S
C2064 C202 1.328 . S
C2099 C169 1.440 . S
C2114 C2 1.327 . S
C2149 C189 1.440 . S
C2164 C42 1.327 . S
C2199 C209 1.440 . S
C2214 C62 1.327 . S
C2249 C22 1.327 . S
C2264 C229 1.440 . S
C2299 C324 1.329 . S
C2314 C252 1.440 . S
C2349 C344 1.329 . S
C2364 C272 1.440 . S
C2399 C292 1.440 . S
C2414 C364 1.329 . S
C2449 C312 1.440 . S
C2464 C384 1.327 . S
C2499 C404 1.328 . S
C2514 C332 1.440 . S
C2549 C352 1.440 . S
C2564 C464 1.327 . S
C2599 C424 1.328 . S
C2614 C372 1.440 . S
C2649 C392 1.440 . S
C2664 C444 1.327 . S
C2699 C244 1.328 . S
C2714 C412 1.440 . S
C2749 C432 1.440 . S
C2764 C284 1.329 . S
C2799 C452 1.440 . S
C2814 C304 1.327 . S
C2849 C264 1.327 . S
C2864 C472 1.440 . S
C2899 C19 1.484 . S
C2914 C192 1.497 . S
C2949 C212 1.498 . S
C2964 C39 1.484 . S
C2999 C172 1.498 . S
C3014 C59 1.485 . S
C3049 C232 1.498 . S
C3064 C79 1.484 . S
C3099 C99 1.485 . S
C3114 C72 1.499 . S
C3149 C52 1.498 . S
C3164 C119 1.485 . S
C3199 C139 1.484 . S
C3214 C32 1.497 . S
C3249 C12 1.497 . S
C3264 C159 1.484 . S
C3299 C179 1.484 . S
C3314 C112 1.497 . S
C3349 C199 1.485 . S
C3364 C152 1.498 . S
C3399 C219 1.484 . S
C3414 C132 1.498 . S
C3449 C239 1.484 . S
C3464 C92 1.497 . S
C3499 C258 1.485 . S
C3514 C429 1.498 . S
C3549 C278 1.484 . S
C3564 C449 1.498 . S
C3599 C409 1.498 . S
C3614 C298 1.485 . S
C3649 C469 1.499 . S
C3664 C318 1.485 . S
C3699 C338 1.485 . S
C3714 C309 1.499 . S
C3749 C358 1.484 . S
C3764 C289 1.498 . S
C3799 C269 1.498 . S
C3814 C378 1.484 . S
C3849 C398 1.484 . S
C3864 C249 1.498 . S
C3899 C418 1.484 . S
C3914 C349 1.497 . S
C3949 C389 1.499 . S
C3964 C438 1.485 . S
C3999 C458 1.484 . S
C4014 C369 1.498 . S
C4049 C478 1.485 . S
C4064 C329 1.499 . S
