# Generated by pormake.
# Topology wju, (5)-cn, num edge types: 1
# Building blocks:
#     Node 0, Type 0, BuildingBlock: XOMCOT_clean_sbu_1, # of connection points: 5
#     Node 1, Type 0, BuildingBlock: XOMCOT_clean_sbu_1, # of connection points: 5
#     Node 2, Type 0, BuildingBlock: XOMCOT_clean_sbu_1, # of connection points: 5
#     Node 3, Type 0, BuildingBlock: XOMCOT_clean_sbu_1, # of connection points: 5
#     Node 4, Type 0, BuildingBlock: XOMCOT_clean_sbu_1, # of connection points: 5
#     Node 5, Type 0, BuildingBlock: XOMCOT_clean_sbu_1, # of connection points: 5
#     Node 6, Type 0, BuildingBlock: XOMCOT_clean_sbu_1, # of connection points: 5
#     Node 7, Type 0, BuildingBlock: XOMCOT_clean_sbu_1, # of connection points: 5
#     Node 8, Type 0, BuildingBlock: XOMCOT_clean_sbu_1, # of connection points: 5
#     Node 9, Type 0, BuildingBlock: XOMCOT_clean_sbu_1, # of connection points: 5
#     Node 10, Type 0, BuildingBlock: XOMCOT_clean_sbu_1, # of connection points: 5
#     Node 11, Type 0, BuildingBlock: XOMCOT_clean_sbu_1, # of connection points: 5
#     Edge 12, Type (0, 0), BuildingBlock: OJICUG_clean_linker_0, # of connection points: 2
#     Edge 13, Type (0, 0), BuildingBlock: OJICUG_clean_linker_0, # of connection points: 2
#     Edge 14, Type (0, 0), BuildingBlock: OJICUG_clean_linker_0, # of connection points: 2
#     Edge 15, Type (0, 0), BuildingBlock: OJICUG_clean_linker_0, # of connection points: 2
#     Edge 16, Type (0, 0), BuildingBlock: OJICUG_clean_linker_0, # of connection points: 2
#     Edge 17, Type (0, 0), BuildingBlock: OJICUG_clean_linker_0, # of connection points: 2
#     Edge 18, Type (0, 0), BuildingBlock: OJICUG_clean_linker_0, # of connection points: 2
#     Edge 19, Type (0, 0), BuildingBlock: OJICUG_clean_linker_0, # of connection points: 2
#     Edge 20, Type (0, 0), BuildingBlock: OJICUG_clean_linker_0, # of connection points: 2
#     Edge 21, Type (0, 0), BuildingBlock: OJICUG_clean_linker_0, # of connection points: 2
#     Edge 22, Type (0, 0), BuildingBlock: OJICUG_clean_linker_0, # of connection points: 2
#     Edge 23, Type (0, 0), BuildingBlock: OJICUG_clean_linker_0, # of connection points: 2
#     Edge 24, Type (0, 0), BuildingBlock: OJICUG_clean_linker_0, # of connection points: 2
#     Edge 25, Type (0, 0), BuildingBlock: OJICUG_clean_linker_0, # of connection points: 2
#     Edge 26, Type (0, 0), BuildingBlock: OJICUG_clean_linker_0, # of connection points: 2
#     Edge 27, Type (0, 0), BuildingBlock: OJICUG_clean_linker_0, # of connection points: 2
#     Edge 28, Type (0, 0), BuildingBlock: OJICUG_clean_linker_0, # of connection points: 2
#     Edge 29, Type (0, 0), BuildingBlock: OJICUG_clean_linker_0, # of connection points: 2
#     Edge 30, Type (0, 0), BuildingBlock: OJICUG_clean_linker_0, # of connection points: 2
#     Edge 31, Type (0, 0), BuildingBlock: OJICUG_clean_linker_0, # of connection points: 2
#     Edge 32, Type (0, 0), BuildingBlock: OJICUG_clean_linker_0, # of connection points: 2
#     Edge 33, Type (0, 0), BuildingBlock: OJICUG_clean_linker_0, # of connection points: 2
#     Edge 34, Type (0, 0), BuildingBlock: OJICUG_clean_linker_0, # of connection points: 2
#     Edge 35, Type (0, 0), BuildingBlock: OJICUG_clean_linker_0, # of connection points: 2
#     Edge 36, Type (0, 0), BuildingBlock: OJICUG_clean_linker_0, # of connection points: 2
#     Edge 37, Type (0, 0), BuildingBlock: OJICUG_clean_linker_0, # of connection points: 2
#     Edge 38, Type (0, 0), BuildingBlock: OJICUG_clean_linker_0, # of connection points: 2
#     Edge 39, Type (0, 0), BuildingBlock: OJICUG_clean_linker_0, # of connection points: 2
#     Edge 40, Type (0, 0), BuildingBlock: OJICUG_clean_linker_0, # of connection points: 2
#     Edge 41, Type (0, 0), BuildingBlock: OJICUG_clean_linker_0, # of connection points: 2
# Relax obj value: 0.079
# Max RMSD: 0.116
# Mean RMSD: 0.116
data_MOF--net-wju--node1-XOMCOT_clean_sbu_1--edge1-OJICUG_clean_linker_0
_symmetry_space_group_name_H-M    P1
_symmetry_Int_Tables_number       1
_symmetry_cell_setting            triclinic
loop_
_symmetry_equiv_pos_as_xyz
'x, y, z'
_cell_length_a     20.835238
_cell_length_b     20.850801
_cell_length_c     78.970023
_cell_angle_alpha  90.2447
_cell_angle_beta   89.96668
_cell_angle_gamma 120.17638
loop_
_atom_site_label
_atom_site_type_symbol
_atom_site_fract_x
_atom_site_fract_y
_atom_site_fract_z
_atom_type_partial_charge
C0 C 0.16777 0.99856 0.13949 0.0
C1 C 0.17111 1.00384 0.15683 0.0
N2 N 0.24275 0.04355 0.16145 0.0
N3 N 0.23711 0.03554 0.13292 0.0
C4 C 0.2817 0.06008 0.14684 0.0
H5 H 0.11672 0.97222 0.13236 0.0
Co6 Co 0.26168 0.06373 0.10959 0.0
C7 C 0.36526 1.00588 0.09885 0.0
O8 O 0.38311 0.04663 0.08515 0.0
N9 N 0.28339 0.09177 0.08637 0.0
C10 C 0.31745 0.15767 0.06256 0.0
C11 C 0.3196 0.16112 0.07998 0.0
C12 C 0.25785 0.04729 0.07245 0.0
N13 N 0.27858 0.0859 0.05775 0.0
O14 O 0.16255 0.986 0.10268 0.0
H15 H 0.34427 0.21154 0.08744 0.0
H16 H 0.22515 0.98744 0.07316 0.0
O17 O 0.31418 1.00274 0.10873 0.0
C18 C 0.12912 0.02401 0.10168 0.0
O19 O 0.16893 0.09594 0.10425 0.0
N20 N 0.34869 0.1487 0.11649 0.0
C21 C 0.44971 0.29696 0.1221 0.0
C22 C 0.47369 0.25013 0.11549 0.0
C23 C 0.42205 0.17494 0.11307 0.0
C24 C 0.32659 0.19328 0.12406 0.0
C25 C 0.37657 0.26697 0.12748 0.0
H26 H 0.44097 0.14108 0.10721 0.0
H27 H 0.26846 0.17246 0.12659 0.0
H28 H 0.3415 0.09466 0.1463 0.0
H29 H 0.12419 0.98235 0.16537 0.0
H30 H 0.34077 0.20481 0.05413 0.0
H31 H 0.53003 0.27256 0.11096 0.0
H32 H 0.35605 0.30209 0.13229 0.0
C33 C 0.07657 0.24651 0.46679 0.0
C34 C 0.05976 0.24558 0.48359 0.0
N35 N 0.12227 0.26921 0.49275 0.0
N36 N 0.14961 0.27048 0.46504 0.0
C37 C 0.17609 0.28336 0.48115 0.0
H38 H 0.03789 0.23231 0.45641 0.0
Co39 Co 0.19382 0.28201 0.44336 0.0
C40 C 0.34466 0.41449 0.45532 0.0
O41 O 0.31933 0.46007 0.45352 0.0
N42 N 0.2382 0.29205 0.42151 0.0
C43 C 0.30253 0.35058 0.39849 0.0
C44 C 0.29478 0.35652 0.41554 0.0
C45 C 0.21366 0.24687 0.40765 0.0
N46 N 0.25101 0.28212 0.39347 0.0
O47 O 0.18472 0.18529 0.4463 0.0
H48 H 0.32433 0.40747 0.42262 0.0
H49 H 0.16531 0.19187 0.40756 0.0
O50 O 0.30065 0.34395 0.45274 0.0
C51 C 0.11679 0.14591 0.44113 0.0
O52 O 0.08614 0.18061 0.43388 0.0
N53 N 0.18074 0.36406 0.43917 0.0
C54 C 0.07215 0.4042 0.43637 0.0
C55 C 0.11951 0.4265 0.45049 0.0
C56 C 0.17219 0.40427 0.45185 0.0
C57 C 0.1416 0.3517 0.42444 0.0
C58 C 0.08691 0.37012 0.42289 0.0
H59 H 0.19768 0.41041 0.4641 0.0
H60 H 0.14164 0.31587 0.41467 0.0
H61 H 0.23388 0.30439 0.48422 0.0
H62 H 1.0051 0.22817 0.48858 0.0
H63 H 0.34069 0.39459 0.39021 0.0
H64 H 0.1122 0.45532 0.46107 0.0
H65 H 0.05181 0.35003 0.41178 0.0
C66 C 0.04717 0.20072 0.81459 0.0
C67 C 0.04266 0.20224 0.83192 0.0
N68 N 1.00602 0.23778 0.836 0.0
N69 N 1.01275 0.23451 0.80755 0.0
C70 C 0.99044 0.25878 0.82111 0.0
H71 H 0.06978 0.17164 0.80779 0.0
Co72 Co 0.9796 0.22329 0.78457 0.0
C73 C 0.02645 0.38111 0.77221 0.0
O74 O 0.97916 0.35286 0.7596 0.0
N75 N 0.94581 0.20876 0.76178 0.0
C76 C 0.87441 0.1623 0.73886 0.0
C77 C 0.87573 0.16315 0.75629 0.0
C78 C 0.98638 0.23294 0.74737 0.0
N79 N 0.94405 0.20663 0.73323 0.0
O80 O 0.06001 0.20653 0.77723 0.0
H81 H 0.82837 0.13144 0.76439 0.0
H82 H 0.04595 0.26976 0.74728 0.0
O83 O 0.0357 0.33723 0.78219 0.0
C84 C 0.02533 0.13479 0.77658 0.0
O85 O 0.95425 0.09918 0.7803 0.0
N86 N 0.89299 0.2206 0.79191 0.0
C87 C 0.74141 0.15854 0.79487 0.0
C88 C 0.78454 0.23099 0.78879 0.0
C89 C 0.86144 0.26214 0.78775 0.0
C90 C 0.85211 0.154 0.79982 0.0
C91 C 0.77625 0.1226 0.80179 0.0
H92 H 0.89283 0.31611 0.78232 0.0
H93 H 0.87735 0.12141 0.80313 0.0
H94 H 0.95697 0.2849 0.82013 0.0
H95 H 0.06158 0.1759 0.84082 0.0
H96 H 0.82562 0.13249 0.73095 0.0
H97 H 0.75857 0.26013 0.78343 0.0
H98 H 0.74432 0.06629 0.80646 0.0
C99 C 0.72762 0.78456 0.12513 0.0
C100 C 0.73926 0.78156 0.1421 0.0
N101 N 0.71773 0.82411 0.15044 0.0
N102 N 0.69889 0.82891 0.12248 0.0
C103 C 0.69388 0.85286 0.13817 0.0
H104 H 0.73873 0.75539 0.11525 0.0
Co105 Co 0.6746 0.84282 0.10034 0.0
C106 C 0.54502 0.86794 0.10716 0.0
O107 O 0.5009 0.8008 0.1014 0.0
N108 N 0.65139 0.85787 0.07764 0.0
C109 C 0.59029 0.85029 0.05378 0.0
C110 C 0.58569 0.81944 0.06934 0.0
C111 C 0.695 0.91213 0.06657 0.0
N112 N 0.65911 0.90843 0.05204 0.0
O113 O 0.77171 0.9323 0.09933 0.0
H114 H 0.53654 0.77149 0.07409 0.0
H115 H 0.75123 0.95552 0.06922 0.0
O116 O 0.61593 0.89283 0.10832 0.0
C117 C 0.80968 0.90341 0.09356 0.0
O118 O 0.77264 0.83593 0.08727 0.0
N119 N 0.59331 0.74692 0.10103 0.0
C120 C 0.53868 0.59692 0.10693 0.0
C121 C 0.52256 0.63924 0.11821 0.0
C122 C 0.5517 0.71482 0.11519 0.0
C123 C 0.6047 0.70493 0.08947 0.0
C124 C 0.57785 0.63026 0.09211 0.0
H125 H 0.54733 0.74874 0.125 0.0
H126 H 0.64231 0.73083 0.07901 0.0
H127 H 0.67182 0.88923 0.14053 0.0
H128 H 0.76278 0.75084 0.14778 0.0
H129 H 0.54626 0.83169 0.04448 0.0
H130 H 0.49191 0.61554 0.12977 0.0
H131 H 0.59386 0.60103 0.08326 0.0
C132 C 0.91564 0.69213 0.46658 0.0
C133 C 0.92272 0.69254 0.48383 0.0
N134 N 0.86365 0.69202 0.49086 0.0
N135 N 0.85208 0.69087 0.46254 0.0
C136 C 0.82163 0.69145 0.47766 0.0
H137 H 0.95469 0.69266 0.45748 0.0
Co138 Co 0.82416 0.68867 0.4398 0.0
C139 C 0.65953 0.57721 0.44034 0.0
O140 O 0.6727 0.54588 0.42749 0.0
N141 N 0.79973 0.68784 0.41586 0.0
C142 C 0.78033 0.65357 0.38854 0.0
C143 C 0.78029 0.63107 0.40468 0.0
C144 C 0.81077 0.74505 0.40559 0.0
N145 N 0.80007 0.72518 0.389 0.0
O146 O 0.84658 0.79091 0.44227 0.0
H147 H 0.76952 0.57606 0.4076 0.0
H148 H 0.82922 0.80084 0.41001 0.0
O149 O 0.71343 0.63843 0.44652 0.0
C150 C 0.91758 0.82661 0.44003 0.0
O151 O 0.94894 0.78834 0.43531 0.0
N152 N 0.81993 0.59872 0.43768 0.0
C153 C 0.85624 0.48867 0.43533 0.0
C154 C 0.79896 0.47962 0.44617 0.0
C155 C 0.78229 0.53658 0.4474 0.0
C156 C 0.87817 0.60926 0.42794 0.0
C157 C 0.89575 0.5544 0.42616 0.0
H158 H 0.74254 0.53261 0.45673 0.0
H159 H 0.91199 0.66161 0.42162 0.0
H160 H 0.76956 0.69073 0.47895 0.0
H161 H 0.96875 0.6946 0.49066 0.0
H162 H 0.76799 0.62012 0.37717 0.0
H163 H 0.77026 0.43111 0.45413 0.0
H164 H 0.94352 0.56584 0.4185 0.0
C165 C 0.29868 0.96528 0.79205 0.0
C166 C 0.30789 0.98221 0.80894 0.0
N167 N 0.25023 0.92778 0.8173 0.0
N168 N 0.23632 0.89916 0.78952 0.0
C169 C 0.20668 0.87818 0.80525 0.0
H170 H 0.33529 0.99975 0.78212 0.0
Co171 Co 0.20993 0.86155 0.76714 0.0
C172 C 0.16781 0.70036 0.77086 0.0
O173 O 0.22306 0.71556 0.76063 0.0
N174 N 0.18456 0.82719 0.74397 0.0
C175 C 0.1891 0.79102 0.7175 0.0
C176 C 0.21985 0.80378 0.73334 0.0
C177 C 0.13155 0.82727 0.73394 0.0
N178 N 0.13375 0.80626 0.71778 0.0
O179 O 0.12611 0.87814 0.76875 0.0
H180 H 0.26711 0.79807 0.73645 0.0
H181 H 0.09298 0.84416 0.73822 0.0
O182 O 0.15353 0.75228 0.77505 0.0
C183 C 0.15629 0.94733 0.76477 0.0
O184 O 0.22455 0.98026 0.75893 0.0
N185 N 0.30005 0.86351 0.76566 0.0
C186 C 0.45116 0.94212 0.77208 0.0
C187 C 0.4044 0.87936 0.78175 0.0
C188 C 0.32831 0.84107 0.77847 0.0
C189 C 0.3461 0.91934 0.75509 0.0
C190 C 0.42189 0.95879 0.75794 0.0
H191 H 0.29182 0.80093 0.78764 0.0
H192 H 0.32326 0.94049 0.74584 0.0
H193 H 0.15443 0.82827 0.8078 0.0
H194 H 0.35221 0.03234 0.81463 0.0
H195 H 0.20615 0.77148 0.70663 0.0
H196 H 0.42517 0.86442 0.79272 0.0
H197 H 0.45535 1.00752 0.75033 0.0
C198 C 0.77473 0.71665 0.58645 0.0
C199 C 0.76833 0.71719 0.56922 0.0
N200 N 0.82181 0.70766 0.56216 0.0
N201 N 0.83177 0.70641 0.59053 0.0
C202 C 0.85965 0.70103 0.57543 0.0
H203 H 0.73909 0.72257 0.59549 0.0
Co204 Co 0.85443 0.7021 0.61336 0.0
C205 C 0.90718 0.59283 0.61482 0.0
O206 O 0.86396 0.56724 0.62811 0.0
N207 N 0.87582 0.69962 0.6372 0.0
C208 C 0.86396 0.67226 0.66479 0.0
C209 C 0.82997 0.65334 0.64937 0.0
C210 C 0.93879 0.74584 0.64597 0.0
N211 N 0.93231 0.73065 0.66279 0.0
O212 O 0.93594 0.80482 0.61179 0.0
H213 H 0.77596 0.6053 0.64749 0.0
H214 H 0.98837 0.79007 0.64021 0.0
O215 O 0.91409 0.65115 0.60729 0.0
C216 C 0.90172 0.84084 0.61485 0.0
O217 O 0.83217 0.8026 0.61965 0.0
N218 N 0.76701 0.61198 0.6146 0.0
C219 C 0.62014 0.501 0.61636 0.0
C220 C 0.67036 0.48991 0.60675 0.0
C221 C 0.74438 0.54745 0.60577 0.0
C222 C 0.71665 0.62485 0.62252 0.0
C223 C 0.64383 0.56984 0.62399 0.0
H224 H 0.78213 0.54122 0.59747 0.0
H225 H 0.73377 0.6783 0.62815 0.0
H226 H 0.90683 0.69295 0.57421 0.0
H227 H 0.72616 0.72265 0.56248 0.0
H228 H 0.84107 0.64301 0.67655 0.0
H229 H 0.6522 0.43873 0.5998 0.0
H230 H 0.60563 0.58218 0.63059 0.0
C231 C 0.18895 0.04558 0.90644 0.0
C232 C 0.18744 0.03667 0.88918 0.0
N233 N 0.22233 0.99909 0.88538 0.0
N234 N 0.22416 1.01322 0.9138 0.0
C235 C 0.24599 0.9874 0.9004 0.0
H236 H 0.16174 0.0707 0.91302 0.0
Co237 Co 0.21963 0.98898 0.93743 0.0
C238 C 0.38053 0.04495 0.94861 0.0
O239 O 0.35615 1.00472 0.96237 0.0
N240 N 0.21184 0.96411 0.9609 0.0
C241 C 0.176 0.90021 0.98498 0.0
C242 C 0.17436 0.89537 0.96759 0.0
C243 C 0.23374 1.00989 0.97464 0.0
N244 N 0.21353 0.97237 0.9895 0.0
O245 O 0.20143 0.06972 0.94345 0.0
H246 H 0.14603 0.84444 0.96036 0.0
H247 H 0.2636 0.06976 0.97369 0.0
O248 O 0.33366 0.04823 0.93841 0.0
C249 C 0.12979 0.0338 0.94461 0.0
O250 O 0.09511 0.9617 0.94213 0.0
N251 N 0.21884 0.90175 0.9315 0.0
C252 C 0.16414 0.75092 0.92913 0.0
C253 C 0.23632 0.79769 0.93513 0.0
C254 C 0.26369 0.8741 0.93588 0.0
C255 C 0.1514 0.85693 0.92417 0.0
C256 C 0.12377 0.78158 0.92244 0.0
H257 H 0.31753 0.90827 0.94129 0.0
H258 H 0.11597 0.87894 0.92084 0.0
H259 H 0.27324 0.9551 0.90168 0.0
H260 H 0.16039 0.05428 0.88015 0.0
H261 H 0.15151 0.85373 0.99359 0.0
H262 H 0.26848 0.77494 0.94047 0.0
H263 H 0.06736 0.74671 0.91794 0.0
C264 C 0.35792 0.09911 0.25556 0.0
C265 C 0.35412 0.08024 0.23882 0.0
N266 N 0.33626 0.12366 0.22984 0.0
N267 N 0.34442 0.15577 0.25731 0.0
C268 C 0.32987 0.16868 0.24135 0.0
H269 H 0.3683 0.07177 0.26591 0.0
Co270 Co 0.34079 0.19451 0.27881 0.0
C271 C 0.45398 0.35795 0.2739 0.0
O272 O 0.48969 0.35165 0.28677 0.0
N273 N 0.33558 0.23069 0.30124 0.0
C274 C 0.36784 0.27428 0.32769 0.0
C275 C 0.3928 0.26653 0.31235 0.0
C276 C 0.27512 0.21587 0.31081 0.0
N277 N 0.29407 0.2422 0.32684 0.0
O278 O 0.23876 0.16853 0.27388 0.0
H279 H 0.44931 0.27983 0.31049 0.0
H280 H 0.21833 0.18351 0.30645 0.0
O281 O 0.39112 0.30138 0.26921 0.0
C282 C 0.2032 0.09817 0.2769 0.0
O283 O 0.24086 0.06914 0.28342 0.0
N284 N 0.43114 0.20236 0.28386 0.0
C285 C 0.53273 0.15534 0.28794 0.0
C286 C 0.54513 0.20939 0.27581 0.0
C287 C 0.49213 0.23063 0.27361 0.0
C288 C 0.42091 0.15306 0.29627 0.0
C289 C 0.47169 0.13021 0.2988 0.0
H290 H 0.49639 0.26373 0.26271 0.0
H291 H 0.36941 0.12611 0.30327 0.0
H292 H 0.31344 0.20894 0.23827 0.0
H293 H 0.36032 0.03539 0.2337 0.0
H294 H 0.4009 0.29743 0.33904 0.0
H295 H 0.5912 0.22942 0.26706 0.0
H296 H 0.45776 0.0864 0.30789 0.0
C297 C 0.15797 0.25759 0.59164 0.0
C298 C 0.17271 0.25402 0.57487 0.0
N299 N 0.13314 0.27593 0.56552 0.0
N300 N 0.10899 0.28162 0.59319 0.0
C301 C 0.09427 0.29181 0.577 0.0
H302 H 0.18299 0.24498 0.60214 0.0
Co303 Co 0.07748 0.29585 0.61479 0.0
C304 C 0.05721 0.4262 0.60281 0.0
O305 O 0.12764 0.47305 0.60549 0.0
N306 N 0.04433 0.30854 0.6366 0.0
C307 C 0.03546 0.36734 0.65935 0.0
C308 C 0.05312 0.37349 0.6425 0.0
C309 C 0.01992 0.26319 0.65033 0.0
N310 N 1.01529 0.29827 0.66437 0.0
O311 O 0.9898 0.19814 0.61219 0.0
H312 H 0.07662 0.42451 0.63551 0.0
H313 H 1.01096 0.20743 0.65043 0.0
O314 O 0.03133 0.35571 0.60508 0.0
C315 C 1.01876 0.15957 0.61745 0.0
O316 O 0.0837 0.19518 0.62503 0.0
N317 N 0.1728 0.37896 0.61848 0.0
C318 C 0.32058 0.41356 0.6194 0.0
C319 C 0.29397 0.4369 0.60582 0.0
C320 C 0.21953 0.4177 0.60542 0.0
C321 C 0.20172 0.36686 0.63284 0.0
C322 C 0.27443 0.38213 0.63343 0.0
H323 H 0.198 0.42389 0.59348 0.0
H324 H 0.16669 0.33314 0.64298 0.0
H325 H 0.05716 0.31202 0.57376 0.0
H326 H 0.20956 0.23586 0.57003 0.0
H327 H 0.04012 0.41144 0.66748 0.0
H328 H 0.32818 0.46422 0.59491 0.0
H329 H 0.29096 0.3621 0.64423 0.0
C330 C 0.96838 0.30444 0.92992 0.0
C331 C 0.98864 0.31566 0.91324 0.0
N332 N 0.93352 0.26171 0.90408 0.0
N333 N 0.89971 0.24459 0.93144 0.0
C334 C 0.88029 0.21841 0.91539 0.0
H335 H 1.00208 0.33792 0.9404 0.0
Co336 Co 0.85573 0.21567 0.95302 0.0
C337 C 0.69782 0.18012 0.94727 0.0
O338 O 0.71339 0.23572 0.95749 0.0
N339 N 0.8134 0.18666 0.97526 0.0
C340 C 0.75952 0.18145 1.00011 0.0
C341 C 0.78964 0.22217 0.98576 0.0
C342 C 0.79744 0.12421 0.98393 0.0
N343 N 0.7647 0.12013 0.99897 0.0
O344 O 0.86944 0.13022 0.9513 0.0
H345 H 0.79235 0.27433 0.98332 0.0
H346 H 0.80749 0.08129 0.97922 0.0
O347 O 0.74879 0.16379 0.9436 0.0
C348 C 0.93684 0.15815 0.95664 0.0
O349 O 0.96771 0.22388 0.96389 0.0
N350 N 0.86128 0.30734 0.95481 0.0
C351 C 0.94861 0.45842 0.94938 0.0
C352 C 0.88698 0.41518 0.93895 0.0
C353 C 0.84435 0.33906 0.94173 0.0
C354 C 0.91576 0.35027 0.96611 0.0
C355 C 0.9597 0.42602 0.96372 0.0
H356 H 0.80535 0.3049 0.93203 0.0
H357 H 0.93233 0.32453 0.97568 0.0
H358 H 0.82876 0.16886 0.91208 0.0
H359 H 0.04112 0.35866 0.90824 0.0
H360 H 0.7354 0.19562 1.0106 0.0
H361 H 0.87607 0.43849 0.92784 0.0
H362 H 1.00719 0.45673 0.97196 0.0
C363 C 0.77898 0.93274 0.24721 0.0
C364 C 0.77551 0.94221 0.23009 0.0
N365 N 0.75067 0.87622 0.22228 0.0
N366 N 0.7565 0.86099 0.25041 0.0
C367 C 0.74018 0.82802 0.23495 0.0
H368 H 0.79533 0.97539 0.25679 0.0
Co369 Co 0.74844 0.82115 0.2724 0.0
C370 C 0.61233 0.67078 0.26185 0.0
O371 O 0.56822 0.69622 0.26573 0.0
N372 N 0.74078 0.77963 0.29453 0.0
C373 C 0.68412 0.71801 0.31799 0.0
C374 C 0.67668 0.72416 0.30097 0.0
C375 C 0.78738 0.80519 0.30813 0.0
N376 N 0.75322 0.76944 0.32258 0.0
O377 O 0.84448 0.8287 0.26889 0.0
H378 H 0.62499 0.69392 0.29425 0.0
H379 H 0.84279 0.85295 0.3078 0.0
O380 O 0.68364 0.71365 0.2635 0.0
C381 C 0.8847 0.89764 0.27332 0.0
O382 O 0.85092 0.93043 0.28008 0.0
N383 N 0.66842 0.83656 0.27709 0.0
C384 C 0.61139 0.93064 0.28228 0.0
C385 C 0.59259 0.88624 0.26767 0.0
C386 C 0.62367 0.84139 0.26507 0.0
C387 C 0.68227 0.87615 0.29182 0.0
C388 C 0.65414 0.92246 0.2947 0.0
H389 H 0.61707 0.81625 0.25272 0.0
H390 H 0.72421 0.88195 0.30058 0.0
H391 H 0.71926 0.7694 0.2331 0.0
H392 H 0.79062 0.99418 0.22395 0.0
H393 H 0.64088 0.68058 0.32653 0.0
H394 H 0.559 0.89022 0.25774 0.0
H395 H 0.67327 0.95751 0.30586 0.0
C396 C 0.20048 0.98695 0.03696 0.0
C397 C 0.26178 0.0574 0.04052 0.0
H398 H 0.13611 0.90561 1.01815 0.0
C399 C 0.30618 0.09988 0.02684 0.0
H400 H 0.16415 0.95297 0.04702 0.0
C401 C 0.28998 0.07264 1.01017 0.0
C402 C 0.22897 1.00198 1.00664 0.0
H403 H 0.35446 0.15392 0.02901 0.0
H404 H 0.32633 0.10645 1.0001 0.0
C405 C 0.18431 0.95972 1.0203 0.0
C406 C 0.23551 0.306 0.36371 0.0
C407 C 0.23548 0.25773 0.3761 0.0
H408 H 0.25096 0.33613 0.33748 0.0
C409 C 0.23318 0.19222 0.37089 0.0
H410 H 0.23664 0.3566 0.36744 0.0
C411 C 0.24066 0.18033 0.35367 0.0
C412 C 0.24969 0.23332 0.34148 0.0
H413 H 0.23348 0.15445 0.38022 0.0
H414 H 0.2483 0.13441 0.35008 0.0
C415 C 0.24228 0.29372 0.34655 0.0
C416 C 0.92827 0.17722 0.70246 0.0
C417 C 0.96646 0.22698 0.71584 0.0
H418 H 0.91476 0.16071 0.67547 0.0
C419 C 0.02394 0.29869 0.71189 0.0
H420 H 0.88415 0.12133 0.7051 0.0
C421 C 0.0408 0.32114 0.69502 0.0
C422 C 1.00127 0.27226 0.68164 0.0
H423 H 0.05406 0.3385 0.72184 0.0
H424 H 0.0845 0.37729 0.69244 0.0
C425 C 0.94599 0.19944 0.68552 0.0
C426 C 0.78328 0.03817 1.01832 0.0
C427 C 0.73689 0.06177 1.01125 0.0
H428 H 0.7949 0.9712 0.03738 0.0
C429 C 0.66451 0.03289 1.01746 0.0
H430 H 0.8396 0.06065 1.01379 0.0
C431 C 0.63886 0.98168 0.03063 0.0
C432 C 0.68568 0.95955 0.03812 0.0
H433 H 0.62816 0.05084 1.01219 0.0
H434 H 0.58303 0.96093 0.03531 0.0
C435 C 0.75812 0.98798 0.03184 0.0
C436 C 0.73347 0.78544 0.35268 0.0
C437 C 0.77968 0.78431 0.3398 0.0
H438 H 0.70609 0.77013 0.37913 0.0
C439 C 0.84406 0.78319 0.34437 0.0
H440 H 0.68356 0.78657 0.34943 0.0
C441 C 0.85679 0.77388 0.36139 0.0
C442 C 0.80603 0.76677 0.37406 0.0
H443 H 0.88008 0.78167 0.33468 0.0
H444 H 0.90201 0.76442 0.36447 0.0
C445 C 0.74676 0.77711 0.36968 0.0
C446 C 1.01276 0.78191 0.70646 0.0
C447 C 0.08606 0.79857 0.70369 0.0
H448 H 0.90673 0.74877 0.69546 0.0
C449 C 0.11048 0.80242 0.68685 0.0
H450 H 0.99204 0.7786 0.71919 0.0
C451 C 0.06135 0.785 0.67321 0.0
C452 C 0.98676 0.76311 0.67614 0.0
H453 H 0.16713 0.81686 0.68421 0.0
H454 H 0.08061 0.78454 0.6605 0.0
C455 C 0.96375 0.76434 0.69286 0.0
C456 C 0.53509 0.98034 0.1001 0.0
C457 C 0.50939 0.91452 0.10928 0.0
H458 H 0.50984 0.05963 0.08956 0.0
C459 C 0.4377 0.88262 0.11655 0.0
H460 H 0.58871 1.00535 0.09393 0.0
C461 C 0.39177 0.91362 0.11405 0.0
C462 C 0.41545 0.97636 0.10379 0.0
H463 H 0.4154 0.83091 0.12341 0.0
H464 H 0.33631 0.88599 0.11932 0.0
C465 C 0.48875 1.01046 0.09733 0.0
C466 C 0.46388 0.4157 0.44836 0.0
C467 C 0.42786 0.45046 0.45562 0.0
H468 H 0.56458 0.42823 0.43817 0.0
C469 C 0.47199 0.52645 0.46018 0.0
H470 H 0.43243 0.35797 0.44454 0.0
C471 C 0.54848 0.56771 0.45637 0.0
C472 C 0.58291 0.53414 0.44779 0.0
H473 H 0.44637 0.55543 0.46587 0.0
H474 H 0.57927 0.62654 0.4592 0.0
C475 C 0.53999 0.45685 0.44451 0.0
C476 C 0.05065 0.5757 0.77106 0.0
C477 C 0.12422 0.62113 0.77644 0.0
H478 H 0.9629 0.46523 0.76553 0.0
C479 C 0.16276 0.58594 0.78248 0.0
H480 H 0.01999 0.60036 0.76585 0.0
C481 C 0.13014 0.5079 0.78232 0.0
C482 C 0.0586 0.46282 0.77565 0.0
H483 H 0.22031 0.61929 0.78632 0.0
H484 H 0.16277 0.48341 0.7863 0.0
C485 C 1.01856 0.49793 0.77059 0.0
C486 C 0.94043 0.42913 0.61006 0.0
C487 C 1.00905 0.46072 0.60177 0.0
H488 H 0.85514 0.44581 0.62051 0.0
C489 C 0.0395 0.53432 0.59572 0.0
H490 H 0.91563 0.3735 0.61512 0.0
C491 C 1.00504 0.57669 0.5989 0.0
C492 C 0.93948 0.5469 0.60842 0.0
H493 H 0.09263 0.56085 0.58932 0.0
H494 H 0.03204 0.6339 0.5948 0.0
C495 C 0.90642 0.47157 0.61337 0.0
C496 C 0.58298 0.17403 0.93559 0.0
C497 C 0.61824 0.13609 0.94194 0.0
H498 H 0.48074 0.1754 0.93229 0.0
C499 C 0.57296 0.06432 0.94826 0.0
H500 H 0.61636 0.23038 0.93106 0.0
C501 C 0.49555 0.0339 0.94942 0.0
C502 C 0.46069 0.07382 0.94415 0.0
H503 H 0.59785 0.03441 0.95375 0.0
H504 H 0.46315 0.98003 0.95529 0.0
C505 C 0.50517 0.14296 0.93645 0.0
C506 C 0.5719 0.47229 0.26579 0.0
C507 C 0.49321 0.43172 0.2653 0.0
H508 H 0.67178 0.57897 0.26502 0.0
C509 C 0.45636 0.46897 0.2602 0.0
H510 H 0.60241 0.44518 0.26953 0.0
C511 C 0.4968 0.54612 0.25741 0.0
C512 C 0.57494 0.58807 0.25978 0.0
H513 H 0.39628 0.44006 0.25977 0.0
H514 H 0.46585 0.57377 0.25459 0.0
C515 C 0.6122 0.54931 0.26313 0.0
C516 C 0.36023 0.0975 0.20074 0.0
C517 C 0.31842 0.11432 0.21204 0.0
H518 H 0.36914 0.06231 0.17567 0.0
C519 C 0.25414 0.11249 0.20608 0.0
H520 H 0.41011 0.09862 0.20505 0.0
C521 C 0.23004 0.09039 0.1894 0.0
C522 C 0.27041 0.07086 0.17826 0.0
H523 H 0.22061 0.12449 0.21456 0.0
H524 H 0.17923 0.08769 0.18525 0.0
C525 C 0.33691 0.07674 0.18397 0.0
C526 C 0.0723 0.27908 0.5207 0.0
C527 C 0.12811 0.27649 0.51107 0.0
H528 H 0.02945 0.2802 0.54528 0.0
C529 C 0.1879 0.27859 0.51977 0.0
H530 H 0.02611 0.27953 0.5146 0.0
C531 C 0.19045 0.28051 0.53752 0.0
C532 C 0.13299 0.27984 0.54716 0.0
H533 H 0.23206 0.27696 0.51293 0.0
H534 H 0.2376 0.28197 0.54361 0.0
C535 C 0.07457 0.28046 0.53845 0.0
C536 C 0.98208 0.30623 0.85838 0.0
C537 C 0.97868 0.24096 0.85258 0.0
H538 H 0.97006 0.36376 0.87967 0.0
C539 C 0.95088 0.17937 0.86347 0.0
H540 H 1.00311 0.35423 0.85023 0.0
C541 C 0.93006 0.1841 0.8801 0.0
C542 C 0.93807 0.25093 0.88622 0.0
H543 H 0.94668 0.12799 0.8592 0.0
H544 H 0.91207 0.13718 0.88848 0.0
C545 C 0.96294 0.31148 0.87513 0.0
C546 C 0.7239 0.78392 0.17966 0.0
C547 C 0.72105 0.83544 0.16863 0.0
H548 H 0.73648 0.75644 0.20499 0.0
C549 C 0.72449 0.89901 0.17572 0.0
H550 H 0.71974 0.73336 0.17483 0.0
C551 C 0.73289 0.91172 0.19326 0.0
C552 C 0.73829 0.86129 0.20424 0.0
H553 H 0.72249 0.93992 0.16771 0.0
H554 H 0.73539 0.96144 0.19814 0.0
C555 C 0.73265 0.79674 0.19714 0.0
C556 C 0.87929 0.66351 0.5205 0.0
C557 C 0.85112 0.6941 0.5088 0.0
H558 H 0.89179 0.64322 0.54653 0.0
C559 C 0.8138 0.72956 0.51497 0.0
H560 H 0.90765 0.63501 0.51615 0.0
C561 C 0.80541 0.73495 0.53241 0.0
C562 C 0.83334 0.7042 0.54417 0.0
H563 H 0.79267 0.7548 0.50634 0.0
H564 H 0.77775 0.76428 0.53662 0.0
C565 C 0.87048 0.66843 0.53796 0.0
C566 C 0.28978 0.97083 0.86349 0.0
C567 C 0.2255 0.97065 0.86886 0.0
H568 H 0.34769 0.95679 0.8426 0.0
C569 C 0.16543 0.94589 0.85747 0.0
H570 H 0.33673 0.9895 0.87197 0.0
C571 C 0.171 0.92548 0.84082 0.0
C572 C 0.23719 0.93063 0.83515 0.0
H573 H 0.11468 0.94404 0.86135 0.0
H574 H 0.12549 0.91029 0.83208 0.0
C575 C 0.29586 0.9519 0.84675 0.0
C576 C 0.50465 0.46849 0.09802 0.0
C577 C 0.52137 0.5207 0.11107 0.0
H578 H 0.47351 0.35717 0.09149 0.0
C579 C 0.52481 0.50036 0.12788 0.0
H580 H 0.50004 0.48143 0.08498 0.0
C581 C 0.50794 0.42815 0.1316 0.0
C582 C 0.48985 0.3763 0.11851 0.0
H583 H 0.53945 0.53968 0.1382 0.0
H584 H 0.50582 0.41183 0.14469 0.0
C585 C 0.49026 0.39745 0.10169 0.0
C586 C 0.96874 0.41035 0.4513 0.0
C587 C 1.0044 0.41046 0.43612 0.0
H588 H 0.89045 0.4342 0.46298 0.0
C589 C 0.97391 0.41562 0.42064 0.0
H590 H 0.9875 0.40212 0.46344 0.0
C591 C 0.9138 0.42682 0.42042 0.0
C592 C 0.88684 0.43901 0.43562 0.0
H593 H 0.99888 0.41615 0.4086 0.0
H594 H 0.8951 0.43606 0.40834 0.0
C595 C 0.91092 0.42564 0.45106 0.0
C596 C 0.53911 0.01481 0.79551 0.0
C597 C 0.52609 0.99735 0.77814 0.0
H598 H 0.61853 0.08174 0.81455 0.0
C599 C 0.58295 0.03852 0.76648 0.0
H600 H 0.49581 0.98557 0.80479 0.0
C601 C 0.6512 0.0958 0.77203 0.0
C602 C 0.66448 0.11192 0.78935 0.0
H603 H 0.57503 0.02604 0.75306 0.0
H604 H 0.69504 0.12499 0.76284 0.0
C605 C 0.60829 0.07108 0.8011 0.0
C606 C 0.49888 0.43232 0.60207 0.0
C607 C 0.54047 0.44767 0.61697 0.0
H608 H 0.39531 0.40722 0.59113 0.0
C609 C 0.50514 0.43611 0.63268 0.0
H610 H 0.52517 0.44054 0.5898 0.0
C611 C 0.43328 0.42368 0.63351 0.0
C612 C 0.39372 0.41758 0.61858 0.0
H613 H 0.53667 0.44758 0.64433 0.0
H614 H 0.41182 0.42486 0.6459 0.0
C615 C 0.42541 0.41629 0.60288 0.0
C616 C 0.08374 0.61776 0.92196 0.0
C617 C 0.122 0.6731 0.93414 0.0
H618 H 0.99938 0.50563 0.91728 0.0
C619 C 0.10472 0.6575 0.95133 0.0
H620 H 0.09546 0.62967 0.90861 0.0
C621 C 0.0474 0.58829 0.95627 0.0
C622 C 1.00734 0.53301 0.9441 0.0
H623 H 0.13207 0.70054 0.96085 0.0
H624 H 0.03315 0.5789 0.96957 0.0
C625 C 0.02743 0.5478 0.92692 0.0
C626 C 0.59578 0.03111 0.2693 0.0
C627 C 0.59612 0.9923 0.28376 0.0
H628 H 0.57563 0.11377 0.25922 0.0
C629 C 0.58766 0.01672 0.29979 0.0
H630 H 0.60528 0.0161 0.25679 0.0
C631 C 0.57724 0.07712 0.30128 0.0
C632 C 0.56983 0.11126 0.28674 0.0
H633 H 0.58724 0.98831 0.31126 0.0
H634 H 0.5697 0.0937 0.3138 0.0
C635 C 0.58168 0.08932 0.27074 0.0
C636 C 1.01503 0.03641 0.10308 0.0
C637 C 0.04721 0.99187 0.09953 0.0
H638 H 0.91599 0.04455 0.10416 0.0
C639 C 1.00055 0.91917 0.09392 0.0
H640 H 0.04902 0.09292 0.10756 0.0
C641 C 0.92422 0.89209 0.09178 0.0
C642 C 0.8919 0.93649 0.09538 0.0
H643 H 0.02296 0.88342 0.09105 0.0
H644 H 0.89032 0.83539 0.08742 0.0
C645 C 0.93849 1.00902 0.10115 0.0
C646 C 0.09501 0.0152 0.44377 0.0
C647 C 0.06779 0.06428 0.44346 0.0
H648 H 0.06873 0.90202 0.44296 0.0
C649 C 0.98978 0.03424 0.44362 0.0
H650 H 0.15425 0.0361 0.44364 0.0
C651 C 0.9403 0.95738 0.4432 0.0
C652 C 0.96745 0.90827 0.4425 0.0
H653 H 0.96657 0.07051 0.4436 0.0
H654 H 0.88111 0.9367 0.44278 0.0
C655 C 0.04546 0.93821 0.44323 0.0
C656 C 0.13402 0.11847 0.76793 0.0
C657 C 0.06049 0.08838 0.77334 0.0
H658 H 0.22106 0.09773 0.76085 0.0
C659 C 1.01801 1.01053 0.77578 0.0
H660 H 0.16835 0.17762 0.76591 0.0
C661 C 0.04802 0.96429 0.77298 0.0
C662 C 0.1214 0.99426 0.76751 0.0
H663 H 0.96095 0.98466 0.78 0.0
H664 H 1.01376 0.90522 0.77513 0.0
C665 C 0.16389 0.07206 0.76499 0.0
C666 C 1.01019 0.97281 0.61433 0.0
C667 C 0.93398 0.92277 0.61312 0.0
H668 H 0.09596 0.08625 0.61651 0.0
C669 C 0.88556 0.95184 0.61163 0.0
H670 H 0.04895 0.95281 0.61546 0.0
C671 C 0.91217 0.0286 0.6122 0.0
C672 C 0.98796 0.0784 0.61445 0.0
H673 H 0.82621 0.9149 0.61045 0.0
H674 H 0.87322 0.04854 0.6116 0.0
C675 C 0.0367 0.04946 0.61506 0.0
C676 C 0.06243 0.16764 0.95701 0.0
C677 C 0.98525 0.12522 0.95348 0.0
H678 H 0.16881 0.17362 0.95685 0.0
C679 C 0.95757 0.05414 0.94662 0.0
H680 H 0.08644 0.22319 0.96218 0.0
C681 C 1.00529 0.02594 0.94366 0.0
C682 C 0.08235 0.06814 0.94728 0.0
H683 H 0.89912 0.02014 0.94362 0.0
H684 H 0.98128 0.97044 0.93845 0.0
C685 C 0.11033 0.13971 0.95386 0.0
C686 C 0.09253 0.96893 0.27454 0.0
C687 C 0.1223 0.04678 0.2735 0.0
H688 H 0.99472 0.86007 0.275 0.0
C689 C 0.07344 0.07275 0.27013 0.0
H690 H 0.12852 0.94639 0.2769 0.0
C691 C 0.99675 0.02274 0.26895 0.0
C692 C 0.96661 0.94533 0.27099 0.0
H693 H 0.09396 0.13171 0.26911 0.0
H694 H 0.96041 0.04525 0.26705 0.0
C695 C 1.01572 0.91881 0.27326 0.0
loop_
_geom_bond_atom_site_label_1
_geom_bond_atom_site_label_2
_geom_bond_distance
_geom_bond_site_symmetry_2
_ccdc_geom_bond_type
C0 C1 1.351 . S
C0 N3 1.368 . S
C0 H5 0.931 . S
C1 C0 1.351 . S
C1 N2 1.373 . S
C1 H29 0.930 . S
N2 C1 1.373 . S
N2 C4 1.340 . S
N3 C0 1.368 . S
N3 C4 1.321 . S
N3 Co6 2.135 . S
C4 N2 1.340 . S
C4 N3 1.321 . S
C4 H28 0.930 . S
H5 C0 0.931 . S
Co6 N3 2.135 . S
Co6 N9 2.121 . S
Co6 O14 2.055 . S
Co6 O17 2.039 . S
Co6 N20 2.140 . S
C7 O8 1.227 . S
C7 O17 1.265 . S
O8 C7 1.227 . S
N9 Co6 2.121 . S
N9 C11 1.375 . S
N9 C12 1.313 . S
C10 C11 1.338 . S
C10 N13 1.377 . S
C10 H30 0.930 . S
C11 N9 1.375 . S
C11 C10 1.338 . S
C11 H15 0.931 . S
C12 N9 1.313 . S
C12 N13 1.344 . S
C12 H16 0.930 . S
N13 C10 1.377 . S
N13 C12 1.344 . S
O14 Co6 2.055 . S
O14 C18 1.253 . S
H15 C11 0.931 . S
H16 C12 0.930 . S
O17 Co6 2.039 . S
O17 C7 1.265 . S
C18 O14 1.253 . S
C18 O19 1.227 . S
O19 C18 1.227 . S
N20 Co6 2.140 . S
N20 C23 1.346 . S
N20 C24 1.345 . S
C21 C22 1.387 . S
C21 C25 1.391 . S
C22 C21 1.387 . S
C22 C23 1.369 . S
C22 H31 0.929 . S
C23 N20 1.346 . S
C23 C22 1.369 . S
C23 H26 0.928 . S
C24 N20 1.345 . S
C24 C25 1.371 . S
C24 H27 0.931 . S
C25 C21 1.391 . S
C25 C24 1.371 . S
C25 H32 0.930 . S
H26 C23 0.928 . S
H27 C24 0.931 . S
H28 C4 0.930 . S
H29 C1 0.930 . S
H30 C10 0.930 . S
H31 C22 0.929 . S
H32 C25 0.930 . S
C33 C34 1.351 . S
C33 N36 1.368 . S
C33 H38 0.931 . S
C34 C33 1.351 . S
C34 N35 1.373 . S
C34 H62 0.930 . S
N35 C34 1.373 . S
N35 C37 1.340 . S
N36 C33 1.368 . S
N36 C37 1.321 . S
N36 Co39 2.135 . S
C37 N35 1.340 . S
C37 N36 1.321 . S
C37 H61 0.930 . S
H38 C33 0.931 . S
Co39 N36 2.135 . S
Co39 N42 2.121 . S
Co39 O47 2.055 . S
Co39 O50 2.039 . S
Co39 N53 2.140 . S
C40 O41 1.227 . S
C40 O50 1.265 . S
O41 C40 1.227 . S
N42 Co39 2.121 . S
N42 C44 1.375 . S
N42 C45 1.313 . S
C43 C44 1.338 . S
C43 N46 1.377 . S
C43 H63 0.930 . S
C44 N42 1.375 . S
C44 C43 1.338 . S
C44 H48 0.931 . S
C45 N42 1.313 . S
C45 N46 1.344 . S
C45 H49 0.930 . S
N46 C43 1.377 . S
N46 C45 1.344 . S
O47 Co39 2.055 . S
O47 C51 1.253 . S
H48 C44 0.931 . S
H49 C45 0.930 . S
O50 Co39 2.039 . S
O50 C40 1.265 . S
C51 O47 1.253 . S
C51 O52 1.227 . S
O52 C51 1.227 . S
N53 Co39 2.140 . S
N53 C56 1.346 . S
N53 C57 1.345 . S
C54 C55 1.387 . S
C54 C58 1.391 . S
C55 C54 1.387 . S
C55 C56 1.369 . S
C55 H64 0.929 . S
C56 N53 1.346 . S
C56 C55 1.369 . S
C56 H59 0.928 . S
C57 N53 1.345 . S
C57 C58 1.371 . S
C57 H60 0.931 . S
C58 C54 1.391 . S
C58 C57 1.371 . S
C58 H65 0.930 . S
H59 C56 0.928 . S
H60 C57 0.931 . S
H61 C37 0.930 . S
H62 C34 0.930 . S
H63 C43 0.930 . S
H64 C55 0.929 . S
H65 C58 0.930 . S
C66 C67 1.351 . S
C66 N69 1.368 . S
C66 H71 0.931 . S
C67 C66 1.351 . S
C67 N68 1.373 . S
C67 H95 0.930 . S
N68 C67 1.373 . S
N68 C70 1.340 . S
N69 C66 1.368 . S
N69 C70 1.321 . S
N69 Co72 2.135 . S
C70 N68 1.340 . S
C70 N69 1.321 . S
C70 H94 0.930 . S
H71 C66 0.931 . S
Co72 N69 2.135 . S
Co72 N75 2.121 . S
Co72 O80 2.055 . S
Co72 O83 2.039 . S
Co72 N86 2.140 . S
C73 O74 1.227 . S
C73 O83 1.265 . S
O74 C73 1.227 . S
N75 Co72 2.121 . S
N75 C77 1.375 . S
N75 C78 1.313 . S
C76 C77 1.338 . S
C76 N79 1.377 . S
C76 H96 0.930 . S
C77 N75 1.375 . S
C77 C76 1.338 . S
C77 H81 0.931 . S
C78 N75 1.313 . S
C78 N79 1.344 . S
C78 H82 0.930 . S
N79 C76 1.377 . S
N79 C78 1.344 . S
O80 Co72 2.055 . S
O80 C84 1.253 . S
H81 C77 0.931 . S
H82 C78 0.930 . S
O83 Co72 2.039 . S
O83 C73 1.265 . S
C84 O80 1.253 . S
C84 O85 1.227 . S
O85 C84 1.227 . S
N86 Co72 2.140 . S
N86 C89 1.346 . S
N86 C90 1.345 . S
C87 C88 1.387 . S
C87 C91 1.391 . S
C88 C87 1.387 . S
C88 C89 1.369 . S
C88 H97 0.929 . S
C89 N86 1.346 . S
C89 C88 1.369 . S
C89 H92 0.928 . S
C90 N86 1.345 . S
C90 C91 1.371 . S
C90 H93 0.931 . S
C91 C87 1.391 . S
C91 C90 1.371 . S
C91 H98 0.930 . S
H92 C89 0.928 . S
H93 C90 0.931 . S
H94 C70 0.930 . S
H95 C67 0.930 . S
H96 C76 0.930 . S
H97 C88 0.929 . S
H98 C91 0.930 . S
C99 C100 1.351 . S
C99 N102 1.368 . S
C99 H104 0.931 . S
C100 C99 1.351 . S
C100 N101 1.373 . S
C100 H128 0.930 . S
N101 C100 1.373 . S
N101 C103 1.340 . S
N102 C99 1.368 . S
N102 C103 1.321 . S
N102 Co105 2.135 . S
C103 N101 1.340 . S
C103 N102 1.321 . S
C103 H127 0.930 . S
H104 C99 0.931 . S
Co105 N102 2.135 . S
Co105 N108 2.121 . S
Co105 O113 2.055 . S
Co105 O116 2.039 . S
Co105 N119 2.140 . S
C106 O107 1.227 . S
C106 O116 1.265 . S
O107 C106 1.227 . S
N108 Co105 2.121 . S
N108 C110 1.375 . S
N108 C111 1.313 . S
C109 C110 1.338 . S
C109 N112 1.377 . S
C109 H129 0.930 . S
C110 N108 1.375 . S
C110 C109 1.338 . S
C110 H114 0.931 . S
C111 N108 1.313 . S
C111 N112 1.344 . S
C111 H115 0.930 . S
N112 C109 1.377 . S
N112 C111 1.344 . S
O113 Co105 2.055 . S
O113 C117 1.253 . S
H114 C110 0.931 . S
H115 C111 0.930 . S
O116 Co105 2.039 . S
O116 C106 1.265 . S
C117 O113 1.253 . S
C117 O118 1.227 . S
O118 C117 1.227 . S
N119 Co105 2.140 . S
N119 C122 1.346 . S
N119 C123 1.345 . S
C120 C121 1.387 . S
C120 C124 1.391 . S
C121 C120 1.387 . S
C121 C122 1.369 . S
C121 H130 0.929 . S
C122 N119 1.346 . S
C122 C121 1.369 . S
C122 H125 0.928 . S
C123 N119 1.345 . S
C123 C124 1.371 . S
C123 H126 0.931 . S
C124 C120 1.391 . S
C124 C123 1.371 . S
C124 H131 0.930 . S
H125 C122 0.928 . S
H126 C123 0.931 . S
H127 C103 0.930 . S
H128 C100 0.930 . S
H129 C109 0.930 . S
H130 C121 0.929 . S
H131 C124 0.930 . S
C132 C133 1.351 . S
C132 N135 1.368 . S
C132 H137 0.931 . S
C133 C132 1.351 . S
C133 N134 1.373 . S
C133 H161 0.930 . S
N134 C133 1.373 . S
N134 C136 1.340 . S
N135 C132 1.368 . S
N135 C136 1.321 . S
N135 Co138 2.135 . S
C136 N134 1.340 . S
C136 N135 1.321 . S
C136 H160 0.930 . S
H137 C132 0.931 . S
Co138 N135 2.135 . S
Co138 N141 2.121 . S
Co138 O146 2.055 . S
Co138 O149 2.039 . S
Co138 N152 2.140 . S
C139 O140 1.227 . S
C139 O149 1.265 . S
O140 C139 1.227 . S
N141 Co138 2.121 . S
N141 C143 1.375 . S
N141 C144 1.313 . S
C142 C143 1.338 . S
C142 N145 1.377 . S
C142 H162 0.930 . S
C143 N141 1.375 . S
C143 C142 1.338 . S
C143 H147 0.931 . S
C144 N141 1.313 . S
C144 N145 1.344 . S
C144 H148 0.930 . S
N145 C142 1.377 . S
N145 C144 1.344 . S
O146 Co138 2.055 . S
O146 C150 1.253 . S
H147 C143 0.931 . S
H148 C144 0.930 . S
O149 Co138 2.039 . S
O149 C139 1.265 . S
C150 O146 1.253 . S
C150 O151 1.227 . S
O151 C150 1.227 . S
N152 Co138 2.140 . S
N152 C155 1.346 . S
N152 C156 1.345 . S
C153 C154 1.387 . S
C153 C157 1.391 . S
C154 C153 1.387 . S
C154 C155 1.369 . S
C154 H163 0.929 . S
C155 N152 1.346 . S
C155 C154 1.369 . S
C155 H158 0.928 . S
C156 N152 1.345 . S
C156 C157 1.371 . S
C156 H159 0.931 . S
C157 C153 1.391 . S
C157 C156 1.371 . S
C157 H164 0.930 . S
H158 C155 0.928 . S
H159 C156 0.931 . S
H160 C136 0.930 . S
H161 C133 0.930 . S
H162 C142 0.930 . S
H163 C154 0.929 . S
H164 C157 0.930 . S
C165 C166 1.351 . S
C165 N168 1.368 . S
C165 H170 0.931 . S
C166 C165 1.351 . S
C166 N167 1.373 . S
C166 H194 0.930 . S
N167 C166 1.373 . S
N167 C169 1.340 . S
N168 C165 1.368 . S
N168 C169 1.321 . S
N168 Co171 2.135 . S
C169 N167 1.340 . S
C169 N168 1.321 . S
C169 H193 0.930 . S
H170 C165 0.931 . S
Co171 N168 2.135 . S
Co171 N174 2.121 . S
Co171 O179 2.055 . S
Co171 O182 2.039 . S
Co171 N185 2.140 . S
C172 O173 1.227 . S
C172 O182 1.265 . S
O173 C172 1.227 . S
N174 Co171 2.121 . S
N174 C176 1.375 . S
N174 C177 1.313 . S
C175 C176 1.338 . S
C175 N178 1.377 . S
C175 H195 0.930 . S
C176 N174 1.375 . S
C176 C175 1.338 . S
C176 H180 0.931 . S
C177 N174 1.313 . S
C177 N178 1.344 . S
C177 H181 0.930 . S
N178 C175 1.377 . S
N178 C177 1.344 . S
O179 Co171 2.055 . S
O179 C183 1.253 . S
H180 C176 0.931 . S
H181 C177 0.930 . S
O182 Co171 2.039 . S
O182 C172 1.265 . S
C183 O179 1.253 . S
C183 O184 1.227 . S
O184 C183 1.227 . S
N185 Co171 2.140 . S
N185 C188 1.346 . S
N185 C189 1.345 . S
C186 C187 1.387 . S
C186 C190 1.391 . S
C187 C186 1.387 . S
C187 C188 1.369 . S
C187 H196 0.929 . S
C188 N185 1.346 . S
C188 C187 1.369 . S
C188 H191 0.928 . S
C189 N185 1.345 . S
C189 C190 1.371 . S
C189 H192 0.931 . S
C190 C186 1.391 . S
C190 C189 1.371 . S
C190 H197 0.930 . S
H191 C188 0.928 . S
H192 C189 0.931 . S
H193 C169 0.930 . S
H194 C166 0.930 . S
H195 C175 0.930 . S
H196 C187 0.929 . S
H197 C190 0.930 . S
C198 C199 1.351 . S
C198 N201 1.368 . S
C198 H203 0.931 . S
C199 C198 1.351 . S
C199 N200 1.373 . S
C199 H227 0.930 . S
N200 C199 1.373 . S
N200 C202 1.340 . S
N201 C198 1.368 . S
N201 C202 1.321 . S
N201 Co204 2.135 . S
C202 N200 1.340 . S
C202 N201 1.321 . S
C202 H226 0.930 . S
H203 C198 0.931 . S
Co204 N201 2.135 . S
Co204 N207 2.121 . S
Co204 O212 2.055 . S
Co204 O215 2.039 . S
Co204 N218 2.140 . S
C205 O206 1.227 . S
C205 O215 1.265 . S
O206 C205 1.227 . S
N207 Co204 2.121 . S
N207 C209 1.375 . S
N207 C210 1.313 . S
C208 C209 1.338 . S
C208 N211 1.377 . S
C208 H228 0.930 . S
C209 N207 1.375 . S
C209 C208 1.338 . S
C209 H213 0.931 . S
C210 N207 1.313 . S
C210 N211 1.344 . S
C210 H214 0.930 . S
N211 C208 1.377 . S
N211 C210 1.344 . S
O212 Co204 2.055 . S
O212 C216 1.253 . S
H213 C209 0.931 . S
H214 C210 0.930 . S
O215 Co204 2.039 . S
O215 C205 1.265 . S
C216 O212 1.253 . S
C216 O217 1.227 . S
O217 C216 1.227 . S
N218 Co204 2.140 . S
N218 C221 1.346 . S
N218 C222 1.345 . S
C219 C220 1.387 . S
C219 C223 1.391 . S
C220 C219 1.387 . S
C220 C221 1.369 . S
C220 H229 0.929 . S
C221 N218 1.346 . S
C221 C220 1.369 . S
C221 H224 0.928 . S
C222 N218 1.345 . S
C222 C223 1.371 . S
C222 H225 0.931 . S
C223 C219 1.391 . S
C223 C222 1.371 . S
C223 H230 0.930 . S
H224 C221 0.928 . S
H225 C222 0.931 . S
H226 C202 0.930 . S
H227 C199 0.930 . S
H228 C208 0.930 . S
H229 C220 0.929 . S
H230 C223 0.930 . S
C231 C232 1.351 . S
C231 N234 1.368 . S
C231 H236 0.931 . S
C232 C231 1.351 . S
C232 N233 1.373 . S
C232 H260 0.930 . S
N233 C232 1.373 . S
N233 C235 1.340 . S
N234 C231 1.368 . S
N234 C235 1.321 . S
N234 Co237 2.135 . S
C235 N233 1.340 . S
C235 N234 1.321 . S
C235 H259 0.930 . S
H236 C231 0.931 . S
Co237 N234 2.135 . S
Co237 N240 2.121 . S
Co237 O245 2.055 . S
Co237 O248 2.039 . S
Co237 N251 2.140 . S
C238 O239 1.227 . S
C238 O248 1.265 . S
O239 C238 1.227 . S
N240 Co237 2.121 . S
N240 C242 1.375 . S
N240 C243 1.313 . S
C241 C242 1.338 . S
C241 N244 1.377 . S
C241 H261 0.930 . S
C242 N240 1.375 . S
C242 C241 1.338 . S
C242 H246 0.931 . S
C243 N240 1.313 . S
C243 N244 1.344 . S
C243 H247 0.930 . S
N244 C241 1.377 . S
N244 C243 1.344 . S
O245 Co237 2.055 . S
O245 C249 1.253 . S
H246 C242 0.931 . S
H247 C243 0.930 . S
O248 Co237 2.039 . S
O248 C238 1.265 . S
C249 O245 1.253 . S
C249 O250 1.227 . S
O250 C249 1.227 . S
N251 Co237 2.140 . S
N251 C254 1.346 . S
N251 C255 1.345 . S
C252 C253 1.387 . S
C252 C256 1.391 . S
C253 C252 1.387 . S
C253 C254 1.369 . S
C253 H262 0.929 . S
C254 N251 1.346 . S
C254 C253 1.369 . S
C254 H257 0.928 . S
C255 N251 1.345 . S
C255 C256 1.371 . S
C255 H258 0.931 . S
C256 C252 1.391 . S
C256 C255 1.371 . S
C256 H263 0.930 . S
H257 C254 0.928 . S
H258 C255 0.931 . S
H259 C235 0.930 . S
H260 C232 0.930 . S
H261 C241 0.930 . S
H262 C253 0.929 . S
H263 C256 0.930 . S
C264 C265 1.351 . S
C264 N267 1.368 . S
C264 H269 0.931 . S
C265 C264 1.351 . S
C265 N266 1.373 . S
C265 H293 0.930 . S
N266 C265 1.373 . S
N266 C268 1.340 . S
N267 C264 1.368 . S
N267 C268 1.321 . S
N267 Co270 2.135 . S
C268 N266 1.340 . S
C268 N267 1.321 . S
C268 H292 0.930 . S
H269 C264 0.931 . S
Co270 N267 2.135 . S
Co270 N273 2.121 . S
Co270 O278 2.055 . S
Co270 O281 2.039 . S
Co270 N284 2.140 . S
C271 O272 1.227 . S
C271 O281 1.265 . S
O272 C271 1.227 . S
N273 Co270 2.121 . S
N273 C275 1.375 . S
N273 C276 1.313 . S
C274 C275 1.338 . S
C274 N277 1.377 . S
C274 H294 0.930 . S
C275 N273 1.375 . S
C275 C274 1.338 . S
C275 H279 0.931 . S
C276 N273 1.313 . S
C276 N277 1.344 . S
C276 H280 0.930 . S
N277 C274 1.377 . S
N277 C276 1.344 . S
O278 Co270 2.055 . S
O278 C282 1.253 . S
H279 C275 0.931 . S
H280 C276 0.930 . S
O281 Co270 2.039 . S
O281 C271 1.265 . S
C282 O278 1.253 . S
C282 O283 1.227 . S
O283 C282 1.227 . S
N284 Co270 2.140 . S
N284 C287 1.346 . S
N284 C288 1.345 . S
C285 C286 1.387 . S
C285 C289 1.391 . S
C286 C285 1.387 . S
C286 C287 1.369 . S
C286 H295 0.929 . S
C287 N284 1.346 . S
C287 C286 1.369 . S
C287 H290 0.928 . S
C288 N284 1.345 . S
C288 C289 1.371 . S
C288 H291 0.931 . S
C289 C285 1.391 . S
C289 C288 1.371 . S
C289 H296 0.930 . S
H290 C287 0.928 . S
H291 C288 0.931 . S
H292 C268 0.930 . S
H293 C265 0.930 . S
H294 C274 0.930 . S
H295 C286 0.929 . S
H296 C289 0.930 . S
C297 C298 1.351 . S
C297 N300 1.368 . S
C297 H302 0.931 . S
C298 C297 1.351 . S
C298 N299 1.373 . S
C298 H326 0.930 . S
N299 C298 1.373 . S
N299 C301 1.340 . S
N300 C297 1.368 . S
N300 C301 1.321 . S
N300 Co303 2.135 . S
C301 N299 1.340 . S
C301 N300 1.321 . S
C301 H325 0.930 . S
H302 C297 0.931 . S
Co303 N300 2.135 . S
Co303 N306 2.121 . S
Co303 O311 2.055 . S
Co303 O314 2.039 . S
Co303 N317 2.140 . S
C304 O305 1.227 . S
C304 O314 1.265 . S
O305 C304 1.227 . S
N306 Co303 2.121 . S
N306 C308 1.375 . S
N306 C309 1.313 . S
C307 C308 1.338 . S
C307 N310 1.377 . S
C307 H327 0.930 . S
C308 N306 1.375 . S
C308 C307 1.338 . S
C308 H312 0.931 . S
C309 N306 1.313 . S
C309 N310 1.344 . S
C309 H313 0.930 . S
N310 C307 1.377 . S
N310 C309 1.344 . S
O311 Co303 2.055 . S
O311 C315 1.253 . S
H312 C308 0.931 . S
H313 C309 0.930 . S
O314 Co303 2.039 . S
O314 C304 1.265 . S
C315 O311 1.253 . S
C315 O316 1.227 . S
O316 C315 1.227 . S
N317 Co303 2.140 . S
N317 C320 1.346 . S
N317 C321 1.345 . S
C318 C319 1.387 . S
C318 C322 1.391 . S
C319 C318 1.387 . S
C319 C320 1.369 . S
C319 H328 0.929 . S
C320 N317 1.346 . S
C320 C319 1.369 . S
C320 H323 0.928 . S
C321 N317 1.345 . S
C321 C322 1.371 . S
C321 H324 0.931 . S
C322 C318 1.391 . S
C322 C321 1.371 . S
C322 H329 0.930 . S
H323 C320 0.928 . S
H324 C321 0.931 . S
H325 C301 0.930 . S
H326 C298 0.930 . S
H327 C307 0.930 . S
H328 C319 0.929 . S
H329 C322 0.930 . S
C330 C331 1.351 . S
C330 N333 1.368 . S
C330 H335 0.931 . S
C331 C330 1.351 . S
C331 N332 1.373 . S
C331 H359 0.930 . S
N332 C331 1.373 . S
N332 C334 1.340 . S
N333 C330 1.368 . S
N333 C334 1.321 . S
N333 Co336 2.135 . S
C334 N332 1.340 . S
C334 N333 1.321 . S
C334 H358 0.930 . S
H335 C330 0.931 . S
Co336 N333 2.135 . S
Co336 N339 2.121 . S
Co336 O344 2.055 . S
Co336 O347 2.039 . S
Co336 N350 2.140 . S
C337 O338 1.227 . S
C337 O347 1.265 . S
O338 C337 1.227 . S
N339 Co336 2.121 . S
N339 C341 1.375 . S
N339 C342 1.313 . S
C340 C341 1.338 . S
C340 N343 1.377 . S
C340 H360 0.930 . S
C341 N339 1.375 . S
C341 C340 1.338 . S
C341 H345 0.931 . S
C342 N339 1.313 . S
C342 N343 1.344 . S
C342 H346 0.930 . S
N343 C340 1.377 . S
N343 C342 1.344 . S
O344 Co336 2.055 . S
O344 C348 1.253 . S
H345 C341 0.931 . S
H346 C342 0.930 . S
O347 Co336 2.039 . S
O347 C337 1.265 . S
C348 O344 1.253 . S
C348 O349 1.227 . S
O349 C348 1.227 . S
N350 Co336 2.140 . S
N350 C353 1.346 . S
N350 C354 1.345 . S
C351 C352 1.387 . S
C351 C355 1.391 . S
C352 C351 1.387 . S
C352 C353 1.369 . S
C352 H361 0.929 . S
C353 N350 1.346 . S
C353 C352 1.369 . S
C353 H356 0.928 . S
C354 N350 1.345 . S
C354 C355 1.371 . S
C354 H357 0.931 . S
C355 C351 1.391 . S
C355 C354 1.371 . S
C355 H362 0.930 . S
H356 C353 0.928 . S
H357 C354 0.931 . S
H358 C334 0.930 . S
H359 C331 0.930 . S
H360 C340 0.930 . S
H361 C352 0.929 . S
H362 C355 0.930 . S
C363 C364 1.351 . S
C363 N366 1.368 . S
C363 H368 0.931 . S
C364 C363 1.351 . S
C364 N365 1.373 . S
C364 H392 0.930 . S
N365 C364 1.373 . S
N365 C367 1.340 . S
N366 C363 1.368 . S
N366 C367 1.321 . S
N366 Co369 2.135 . S
C367 N365 1.340 . S
C367 N366 1.321 . S
C367 H391 0.930 . S
H368 C363 0.931 . S
Co369 N366 2.135 . S
Co369 N372 2.121 . S
Co369 O377 2.055 . S
Co369 O380 2.039 . S
Co369 N383 2.140 . S
C370 O371 1.227 . S
C370 O380 1.265 . S
O371 C370 1.227 . S
N372 Co369 2.121 . S
N372 C374 1.375 . S
N372 C375 1.313 . S
C373 C374 1.338 . S
C373 N376 1.377 . S
C373 H393 0.930 . S
C374 N372 1.375 . S
C374 C373 1.338 . S
C374 H378 0.931 . S
C375 N372 1.313 . S
C375 N376 1.344 . S
C375 H379 0.930 . S
N376 C373 1.377 . S
N376 C375 1.344 . S
O377 Co369 2.055 . S
O377 C381 1.253 . S
H378 C374 0.931 . S
H379 C375 0.930 . S
O380 Co369 2.039 . S
O380 C370 1.265 . S
C381 O377 1.253 . S
C381 O382 1.227 . S
O382 C381 1.227 . S
N383 Co369 2.140 . S
N383 C386 1.346 . S
N383 C387 1.345 . S
C384 C385 1.387 . S
C384 C388 1.391 . S
C385 C384 1.387 . S
C385 C386 1.369 . S
C385 H394 0.929 . S
C386 N383 1.346 . S
C386 C385 1.369 . S
C386 H389 0.928 . S
C387 N383 1.345 . S
C387 C388 1.371 . S
C387 H390 0.931 . S
C388 C384 1.391 . S
C388 C387 1.371 . S
C388 H395 0.930 . S
H389 C386 0.928 . S
H390 C387 0.931 . S
H391 C367 0.930 . S
H392 C364 0.930 . S
H393 C373 0.930 . S
H394 C385 0.929 . S
H395 C388 0.930 . S
C396 C397 1.387 . S
C396 H400 0.950 . S
C396 C405 1.390 1_544 S
C397 C396 1.387 . S
C397 C399 1.387 . S
H398 C405 0.950 . S
C399 C397 1.387 . S
C399 C401 1.390 1_544 S
C399 H403 0.950 . S
H400 C396 0.950 . S
C401 C399 1.390 1_566 S
C401 C402 1.387 . S
C401 H404 0.950 . S
C402 C401 1.387 . S
C402 C405 1.387 . S
H403 C399 0.950 . S
H404 C401 0.950 . S
C405 C396 1.390 1_566 S
C405 H398 0.950 . S
C405 C402 1.387 . S
C406 C407 1.387 . S
C406 H410 0.950 . S
C406 C415 1.390 . S
C407 C406 1.387 . S
C407 C409 1.387 . S
H408 C415 0.950 . S
C409 C407 1.387 . S
C409 C411 1.390 . S
C409 H413 0.950 . S
H410 C406 0.950 . S
C411 C409 1.390 . S
C411 C412 1.387 . S
C411 H414 0.950 . S
C412 C411 1.387 . S
C412 C415 1.387 . S
H413 C409 0.950 . S
H414 C411 0.950 . S
C415 C406 1.390 . S
C415 H408 0.950 . S
C415 C412 1.387 . S
C416 C417 1.387 . S
C416 H420 0.950 . S
C416 C425 1.390 . S
C417 C416 1.387 . S
C417 C419 1.387 1_655 S
H418 C425 0.950 . S
C419 C417 1.387 1_455 S
C419 C421 1.390 . S
C419 H423 0.950 . S
H420 C416 0.950 . S
C421 C419 1.390 . S
C421 C422 1.387 . S
C421 H424 0.950 . S
C422 C421 1.387 . S
C422 C425 1.387 1_455 S
H423 C419 0.950 . S
H424 C421 0.950 . S
C425 C416 1.390 . S
C425 H418 0.950 . S
C425 C422 1.387 1_655 S
C426 C427 1.387 . S
C426 H430 0.950 . S
C426 C435 1.390 1_546 S
C427 C426 1.387 . S
C427 C429 1.387 . S
H428 C435 0.950 . S
C429 C427 1.387 . S
C429 C431 1.390 1_546 S
C429 H433 0.950 . S
H430 C426 0.950 . S
C431 C429 1.390 1_564 S
C431 C432 1.387 . S
C431 H434 0.950 . S
C432 C431 1.387 . S
C432 C435 1.387 . S
H433 C429 0.950 . S
H434 C431 0.950 . S
C435 C426 1.390 1_564 S
C435 H428 0.950 . S
C435 C432 1.387 . S
C436 C437 1.387 . S
C436 H440 0.950 . S
C436 C445 1.390 . S
C437 C436 1.387 . S
C437 C439 1.387 . S
H438 C445 0.950 . S
C439 C437 1.387 . S
C439 C441 1.390 . S
C439 H443 0.950 . S
H440 C436 0.950 . S
C441 C439 1.390 . S
C441 C442 1.387 . S
C441 H444 0.950 . S
C442 C441 1.387 . S
C442 C445 1.387 . S
H443 C439 0.950 . S
H444 C441 0.950 . S
C445 C436 1.390 . S
C445 H438 0.950 . S
C445 C442 1.387 . S
C446 C447 1.387 1_655 S
C446 H450 0.950 . S
C446 C455 1.390 . S
C447 C446 1.387 1_455 S
C447 C449 1.387 . S
H448 C455 0.950 . S
C449 C447 1.387 . S
C449 C451 1.390 . S
C449 H453 0.950 . S
H450 C446 0.950 . S
C451 C449 1.390 . S
C451 C452 1.387 1_455 S
C451 H454 0.950 . S
C452 C451 1.387 1_655 S
C452 C455 1.387 . S
H453 C449 0.950 . S
H454 C451 0.950 . S
C455 C446 1.390 . S
C455 H448 0.950 . S
C455 C452 1.387 . S
C456 C457 1.387 . S
C456 H460 0.950 . S
C456 C465 1.390 1_565 S
C457 C456 1.387 . S
C457 C459 1.387 . S
H458 C465 0.950 . S
C459 C457 1.387 . S
C459 C461 1.390 1_565 S
C459 H463 0.950 . S
H460 C456 0.950 . S
C461 C459 1.390 1_545 S
C461 C462 1.387 . S
C461 H464 0.950 . S
C462 C461 1.387 . S
C462 C465 1.387 . S
H463 C459 0.950 . S
H464 C461 0.950 . S
C465 C456 1.390 1_545 S
C465 H458 0.950 . S
C465 C462 1.387 . S
C466 C467 1.387 . S
C466 H470 0.950 . S
C466 C475 1.390 . S
C467 C466 1.387 . S
C467 C469 1.387 . S
H468 C475 0.950 . S
C469 C467 1.387 . S
C469 C471 1.390 . S
C469 H473 0.950 . S
H470 C466 0.950 . S
C471 C469 1.390 . S
C471 C472 1.387 . S
C471 H474 0.950 . S
C472 C471 1.387 . S
C472 C475 1.387 . S
H473 C469 0.950 . S
H474 C471 0.950 . S
C475 C466 1.390 . S
C475 H468 0.950 . S
C475 C472 1.387 . S
C476 C477 1.387 . S
C476 H480 0.950 . S
C476 C485 1.390 1_455 S
C477 C476 1.387 . S
C477 C479 1.387 . S
H478 C485 0.950 . S
C479 C477 1.387 . S
C479 C481 1.390 1_455 S
C479 H483 0.950 . S
H480 C476 0.950 . S
C481 C479 1.390 1_655 S
C481 C482 1.387 . S
C481 H484 0.950 . S
C482 C481 1.387 . S
C482 C485 1.387 . S
H483 C479 0.950 . S
H484 C481 0.950 . S
C485 C476 1.390 1_655 S
C485 H478 0.950 . S
C485 C482 1.387 . S
C486 C487 1.387 . S
C486 H490 0.950 . S
C486 C495 1.390 1_455 S
C487 C486 1.387 . S
C487 C489 1.387 . S
H488 C495 0.950 . S
C489 C487 1.387 . S
C489 C491 1.390 1_455 S
C489 H493 0.950 . S
H490 C486 0.950 . S
C491 C489 1.390 1_655 S
C491 C492 1.387 . S
C491 H494 0.950 . S
C492 C491 1.387 . S
C492 C495 1.387 . S
H493 C489 0.950 . S
H494 C491 0.950 . S
C495 C486 1.390 1_655 S
C495 H488 0.950 . S
C495 C492 1.387 . S
C496 C497 1.387 . S
C496 H500 0.950 . S
C496 C505 1.390 1_545 S
C497 C496 1.387 . S
C497 C499 1.387 . S
H498 C505 0.950 . S
C499 C497 1.387 . S
C499 C501 1.390 1_545 S
C499 H503 0.950 . S
H500 C496 0.950 . S
C501 C499 1.390 1_565 S
C501 C502 1.387 . S
C501 H504 0.950 . S
C502 C501 1.387 . S
C502 C505 1.387 . S
H503 C499 0.950 . S
H504 C501 0.950 . S
C505 C496 1.390 1_565 S
C505 H498 0.950 . S
C505 C502 1.387 . S
C506 C507 1.387 . S
C506 H510 0.950 . S
C506 C515 1.390 . S
C507 C506 1.387 . S
C507 C509 1.387 . S
H508 C515 0.950 . S
C509 C507 1.387 . S
C509 C511 1.390 . S
C509 H513 0.950 . S
H510 C506 0.950 . S
C511 C509 1.390 . S
C511 C512 1.387 . S
C511 H514 0.950 . S
C512 C511 1.387 . S
C512 C515 1.387 . S
H513 C509 0.950 . S
H514 C511 0.950 . S
C515 C506 1.390 . S
C515 H508 0.950 . S
C515 C512 1.387 . S
C516 C517 1.387 . S
C516 H520 0.950 . S
C516 C525 1.390 . S
C517 C516 1.387 . S
C517 C519 1.387 . S
H518 C525 0.950 . S
C519 C517 1.387 . S
C519 C521 1.390 . S
C519 H523 0.950 . S
H520 C516 0.950 . S
C521 C519 1.390 . S
C521 C522 1.387 . S
C521 H524 0.950 . S
C522 C521 1.387 . S
C522 C525 1.387 . S
H523 C519 0.950 . S
H524 C521 0.950 . S
C525 C516 1.390 . S
C525 H518 0.950 . S
C525 C522 1.387 . S
C526 C527 1.387 . S
C526 H530 0.950 . S
C526 C535 1.390 . S
C527 C526 1.387 . S
C527 C529 1.387 . S
H528 C535 0.950 . S
C529 C527 1.387 . S
C529 C531 1.390 . S
C529 H533 0.950 . S
H530 C526 0.950 . S
C531 C529 1.390 . S
C531 C532 1.387 . S
C531 H534 0.950 . S
C532 C531 1.387 . S
C532 C535 1.387 . S
H533 C529 0.950 . S
H534 C531 0.950 . S
C535 C526 1.390 . S
C535 H528 0.950 . S
C535 C532 1.387 . S
C536 C537 1.387 . S
C536 H540 0.950 . S
C536 C545 1.390 . S
C537 C536 1.387 . S
C537 C539 1.387 . S
H538 C545 0.950 . S
C539 C537 1.387 . S
C539 C541 1.390 . S
C539 H543 0.950 . S
H540 C536 0.950 . S
C541 C539 1.390 . S
C541 C542 1.387 . S
C541 H544 0.950 . S
C542 C541 1.387 . S
C542 C545 1.387 . S
H543 C539 0.950 . S
H544 C541 0.950 . S
C545 C536 1.390 . S
C545 H538 0.950 . S
C545 C542 1.387 . S
C546 C547 1.387 . S
C546 H550 0.950 . S
C546 C555 1.390 . S
C547 C546 1.387 . S
C547 C549 1.387 . S
H548 C555 0.950 . S
C549 C547 1.387 . S
C549 C551 1.390 . S
C549 H553 0.950 . S
H550 C546 0.950 . S
C551 C549 1.390 . S
C551 C552 1.387 . S
C551 H554 0.950 . S
C552 C551 1.387 . S
C552 C555 1.387 . S
H553 C549 0.950 . S
H554 C551 0.950 . S
C555 C546 1.390 . S
C555 H548 0.950 . S
C555 C552 1.387 . S
C556 C557 1.387 . S
C556 H560 0.950 . S
C556 C565 1.390 . S
C557 C556 1.387 . S
C557 C559 1.387 . S
H558 C565 0.950 . S
C559 C557 1.387 . S
C559 C561 1.390 . S
C559 H563 0.950 . S
H560 C556 0.950 . S
C561 C559 1.390 . S
C561 C562 1.387 . S
C561 H564 0.950 . S
C562 C561 1.387 . S
C562 C565 1.387 . S
H563 C559 0.950 . S
H564 C561 0.950 . S
C565 C556 1.390 . S
C565 H558 0.950 . S
C565 C562 1.387 . S
C566 C567 1.387 . S
C566 H570 0.950 . S
C566 C575 1.390 . S
C567 C566 1.387 . S
C567 C569 1.387 . S
H568 C575 0.950 . S
C569 C567 1.387 . S
C569 C571 1.390 . S
C569 H573 0.950 . S
H570 C566 0.950 . S
C571 C569 1.390 . S
C571 C572 1.387 . S
C571 H574 0.950 . S
C572 C571 1.387 . S
C572 C575 1.387 . S
H573 C569 0.950 . S
H574 C571 0.950 . S
C575 C566 1.390 . S
C575 H568 0.950 . S
C575 C572 1.387 . S
C576 C577 1.387 . S
C576 H580 0.950 . S
C576 C585 1.390 . S
C577 C576 1.387 . S
C577 C579 1.387 . S
H578 C585 0.950 . S
C579 C577 1.387 . S
C579 C581 1.390 . S
C579 H583 0.950 . S
H580 C576 0.950 . S
C581 C579 1.390 . S
C581 C582 1.387 . S
C581 H584 0.950 . S
C582 C581 1.387 . S
C582 C585 1.387 . S
H583 C579 0.950 . S
H584 C581 0.950 . S
C585 C576 1.390 . S
C585 H578 0.950 . S
C585 C582 1.387 . S
C586 C587 1.387 . S
C586 H590 0.950 . S
C586 C595 1.390 1_455 S
C587 C586 1.387 . S
C587 C589 1.387 . S
H588 C595 0.950 . S
C589 C587 1.387 . S
C589 C591 1.390 1_455 S
C589 H593 0.950 . S
H590 C586 0.950 . S
C591 C589 1.390 1_655 S
C591 C592 1.387 . S
C591 H594 0.950 . S
C592 C591 1.387 . S
C592 C595 1.387 . S
H593 C589 0.950 . S
H594 C591 0.950 . S
C595 C586 1.390 1_655 S
C595 H588 0.950 . S
C595 C592 1.387 . S
C596 C597 1.387 . S
C596 H600 0.950 . S
C596 C605 1.390 1_565 S
C597 C596 1.387 . S
C597 C599 1.387 . S
H598 C605 0.950 . S
C599 C597 1.387 . S
C599 C601 1.390 1_565 S
C599 H603 0.950 . S
H600 C596 0.950 . S
C601 C599 1.390 1_545 S
C601 C602 1.387 . S
C601 H604 0.950 . S
C602 C601 1.387 . S
C602 C605 1.387 . S
H603 C599 0.950 . S
H604 C601 0.950 . S
C605 C596 1.390 1_545 S
C605 H598 0.950 . S
C605 C602 1.387 . S
C606 C607 1.387 . S
C606 H610 0.950 . S
C606 C615 1.390 . S
C607 C606 1.387 . S
C607 C609 1.387 . S
H608 C615 0.950 . S
C609 C607 1.387 . S
C609 C611 1.390 . S
C609 H613 0.950 . S
H610 C606 0.950 . S
C611 C609 1.390 . S
C611 C612 1.387 . S
C611 H614 0.950 . S
C612 C611 1.387 . S
C612 C615 1.387 . S
H613 C609 0.950 . S
H614 C611 0.950 . S
C615 C606 1.390 . S
C615 H608 0.950 . S
C615 C612 1.387 . S
C616 C617 1.387 . S
C616 H620 0.950 . S
C616 C625 1.390 1_455 S
C617 C616 1.387 . S
C617 C619 1.387 . S
H618 C625 0.950 . S
C619 C617 1.387 . S
C619 C621 1.390 1_455 S
C619 H623 0.950 . S
H620 C616 0.950 . S
C621 C619 1.390 1_655 S
C621 C622 1.387 . S
C621 H624 0.950 . S
C622 C621 1.387 . S
C622 C625 1.387 . S
H623 C619 0.950 . S
H624 C621 0.950 . S
C625 C616 1.390 1_655 S
C625 H618 0.950 . S
C625 C622 1.387 . S
C626 C627 1.387 . S
C626 H630 0.950 . S
C626 C635 1.390 1_565 S
C627 C626 1.387 . S
C627 C629 1.387 . S
H628 C635 0.950 . S
C629 C627 1.387 . S
C629 C631 1.390 1_565 S
C629 H633 0.950 . S
H630 C626 0.950 . S
C631 C629 1.390 1_545 S
C631 C632 1.387 . S
C631 H634 0.950 . S
C632 C631 1.387 . S
C632 C635 1.387 . S
H633 C629 0.950 . S
H634 C631 0.950 . S
C635 C626 1.390 1_545 S
C635 H628 0.950 . S
C635 C632 1.387 . S
C636 C637 1.387 . S
C636 H640 0.950 . S
C636 C645 1.390 1_445 S
C637 C636 1.387 . S
C637 C639 1.387 . S
H638 C645 0.950 . S
C639 C637 1.387 . S
C639 C641 1.390 1_445 S
C639 H643 0.950 . S
H640 C636 0.950 . S
C641 C639 1.390 1_665 S
C641 C642 1.387 . S
C641 H644 0.950 . S
C642 C641 1.387 . S
C642 C645 1.387 . S
H643 C639 0.950 . S
H644 C641 0.950 . S
C645 C636 1.390 1_665 S
C645 H638 0.950 . S
C645 C642 1.387 . S
C646 C647 1.387 . S
C646 H650 0.950 . S
C646 C655 1.390 1_445 S
C647 C646 1.387 . S
C647 C649 1.387 . S
H648 C655 0.950 . S
C649 C647 1.387 . S
C649 C651 1.390 1_445 S
C649 H653 0.950 . S
H650 C646 0.950 . S
C651 C649 1.390 1_665 S
C651 C652 1.387 . S
C651 H654 0.950 . S
C652 C651 1.387 . S
C652 C655 1.387 . S
H653 C649 0.950 . S
H654 C651 0.950 . S
C655 C646 1.390 1_665 S
C655 H648 0.950 . S
C655 C652 1.387 . S
C656 C657 1.387 . S
C656 H660 0.950 . S
C656 C665 1.390 1_645 S
C657 C656 1.387 . S
C657 C659 1.387 . S
H658 C665 0.950 . S
C659 C657 1.387 . S
C659 C661 1.390 1_645 S
C659 H663 0.950 . S
H660 C656 0.950 . S
C661 C659 1.390 1_465 S
C661 C662 1.387 . S
C661 H664 0.950 . S
C662 C661 1.387 . S
C662 C665 1.387 . S
H663 C659 0.950 . S
H664 C661 0.950 . S
C665 C656 1.390 1_465 S
C665 H658 0.950 . S
C665 C662 1.387 . S
C666 C667 1.387 . S
C666 H670 0.950 . S
C666 C675 1.390 1_665 S
C667 C666 1.387 . S
C667 C669 1.387 . S
H668 C675 0.950 . S
C669 C667 1.387 . S
C669 C671 1.390 1_665 S
C669 H673 0.950 . S
H670 C666 0.950 . S
C671 C669 1.390 1_445 S
C671 C672 1.387 . S
C671 H674 0.950 . S
C672 C671 1.387 . S
C672 C675 1.387 . S
H673 C669 0.950 . S
H674 C671 0.950 . S
C675 C666 1.390 1_445 S
C675 H668 0.950 . S
C675 C672 1.387 . S
C676 C677 1.387 . S
C676 H680 0.950 . S
C676 C685 1.390 1_645 S
C677 C676 1.387 . S
C677 C679 1.387 . S
H678 C685 0.950 . S
C679 C677 1.387 . S
C679 C681 1.390 1_645 S
C679 H683 0.950 . S
H680 C676 0.950 . S
C681 C679 1.390 1_465 S
C681 C682 1.387 . S
C681 H684 0.950 . S
C682 C681 1.387 . S
C682 C685 1.387 . S
H683 C679 0.950 . S
H684 C681 0.950 . S
C685 C676 1.390 1_465 S
C685 H678 0.950 . S
C685 C682 1.387 . S
C686 C687 1.387 . S
C686 H690 0.950 . S
C686 C695 1.390 1_445 S
C687 C686 1.387 . S
C687 C689 1.387 . S
H688 C695 0.950 . S
C689 C687 1.387 . S
C689 C691 1.390 1_445 S
C689 H693 0.950 . S
H690 C686 0.950 . S
C691 C689 1.390 1_665 S
C691 C692 1.387 . S
C691 H694 0.950 . S
C692 C691 1.387 . S
C692 C695 1.387 . S
H693 C689 0.950 . S
H694 C691 0.950 . S
C695 C686 1.390 1_665 S
C695 H688 0.950 . S
C695 C692 1.387 . S
C397 N13 1.529 . S
C402 N244 1.529 . S
C407 N46 1.531 . S
C412 N277 1.530 . S
C417 N79 1.530 . S
C422 N310 1.528 . S
C427 N343 1.529 . S
C432 N112 1.529 . S
C437 N376 1.531 . S
C442 N145 1.529 . S
C447 N178 1.528 . S
C452 N211 1.530 . S
C457 C106 1.766 . S
C462 C7 1.766 . S
C467 C40 1.765 . S
C472 C139 1.765 . S
C477 C172 1.765 . S
C482 C73 1.765 . S
C487 C304 1.766 . S
C492 C205 1.766 . S
C497 C337 1.764 . S
C502 C238 1.764 . S
C507 C271 1.765 . S
C512 C370 1.765 . S
C517 N266 1.502 . S
C522 N2 1.499 . S
C527 N35 1.500 . S
C532 N299 1.500 . S
C537 N68 1.500 . S
C542 N332 1.501 . S
C547 N101 1.502 . S
C552 N365 1.502 . S
C557 N134 1.502 . S
C562 N200 1.502 . S
C567 N233 1.499 . S
C572 N167 1.502 . S
C577 C120 1.207 . S
C582 C21 1.207 . S
C587 C54 1.207 . S
C592 C153 1.207 . S
C597 C186 1.207 . S
C602 C87 1.207 . S
C607 C219 1.207 . S
C612 C318 1.207 . S
C617 C252 1.207 . S
C622 C351 1.207 . S
C627 C384 1.207 . S
C632 C285 1.207 . S
C637 C18 1.305 . S
C642 C117 1.305 . S
C647 C51 1.306 . S
C652 C150 1.306 . S
C657 C84 1.305 . S
C662 C183 1.305 . S
C667 C216 1.305 . S
C672 C315 1.305 . S
C677 C348 1.305 . S
C682 C249 1.305 . S
C687 C282 1.306 . S
C692 C381 1.306 . S
