# Generated by pormake.
# Topology rkf, (6)-cn, num edge types: 1
# Building blocks:
#     Node 0, Type 0, BuildingBlock: MIFKUJ_clean_sbu_0, # of connection points: 6
#     Node 1, Type 0, BuildingBlock: MIFKUJ_clean_sbu_0, # of connection points: 6
#     Node 2, Type 0, BuildingBlock: MIFKUJ_clean_sbu_0, # of connection points: 6
#     Node 3, Type 0, BuildingBlock: MIFKUJ_clean_sbu_0, # of connection points: 6
#     Node 4, Type 0, BuildingBlock: MIFKUJ_clean_sbu_0, # of connection points: 6
#     Node 5, Type 0, BuildingBlock: MIFKUJ_clean_sbu_0, # of connection points: 6
#     Edge 6, Type (0, 0), BuildingBlock: FUNLAD_clean_linker_1, # of connection points: 2
#     Edge 7, Type (0, 0), BuildingBlock: FUNLAD_clean_linker_1, # of connection points: 2
#     Edge 8, Type (0, 0), BuildingBlock: FUNLAD_clean_linker_1, # of connection points: 2
#     Edge 9, Type (0, 0), BuildingBlock: FUNLAD_clean_linker_1, # of connection points: 2
#     Edge 10, Type (0, 0), BuildingBlock: FUNLAD_clean_linker_1, # of connection points: 2
#     Edge 11, Type (0, 0), BuildingBlock: FUNLAD_clean_linker_1, # of connection points: 2
#     Edge 12, Type (0, 0), BuildingBlock: FUNLAD_clean_linker_1, # of connection points: 2
#     Edge 13, Type (0, 0), BuildingBlock: FUNLAD_clean_linker_1, # of connection points: 2
#     Edge 14, Type (0, 0), BuildingBlock: FUNLAD_clean_linker_1, # of connection points: 2
#     Edge 15, Type (0, 0), BuildingBlock: FUNLAD_clean_linker_1, # of connection points: 2
#     Edge 16, Type (0, 0), BuildingBlock: FUNLAD_clean_linker_1, # of connection points: 2
#     Edge 17, Type (0, 0), BuildingBlock: FUNLAD_clean_linker_1, # of connection points: 2
#     Edge 18, Type (0, 0), BuildingBlock: FUNLAD_clean_linker_1, # of connection points: 2
#     Edge 19, Type (0, 0), BuildingBlock: FUNLAD_clean_linker_1, # of connection points: 2
#     Edge 20, Type (0, 0), BuildingBlock: FUNLAD_clean_linker_1, # of connection points: 2
#     Edge 21, Type (0, 0), BuildingBlock: FUNLAD_clean_linker_1, # of connection points: 2
#     Edge 22, Type (0, 0), BuildingBlock: FUNLAD_clean_linker_1, # of connection points: 2
#     Edge 23, Type (0, 0), BuildingBlock: FUNLAD_clean_linker_1, # of connection points: 2
# Relax obj value: 0.344
# Max RMSD: 0.299
# Mean RMSD: 0.299
data_MOF--net-rkf--node1-MIFKUJ_clean_sbu_0--edge1-FUNLAD_clean_linker_1
_symmetry_space_group_name_H-M    P1
_symmetry_Int_Tables_number       1
_symmetry_cell_setting            triclinic
loop_
_symmetry_equiv_pos_as_xyz
'x, y, z'
_cell_length_a     23.736931
_cell_length_b     23.642352
_cell_length_c     47.71498
_cell_angle_alpha  90.131476
_cell_angle_beta   89.961397
_cell_angle_gamma 119.77862
loop_
_atom_site_label
_atom_site_type_symbol
_atom_site_fract_x
_atom_site_fract_y
_atom_site_fract_z
_atom_type_partial_charge
Zn0 Zn 0.3055 0.11794 0.9506 0.0
Zn1 Zn 0.32213 0.10773 0.03961 0.0
C2 C 0.21465 0.97782 0.94838 0.0
O3 O 0.25697 0.97135 0.96368 0.0
C4 C 0.35526 0.15226 0.09262 0.0
O5 O 0.29493 0.13867 0.08893 0.0
O6 O 0.31374 0.1685 0.91476 0.0
O7 O 0.30742 0.17052 0.98413 0.0
O8 O 0.28983 0.169 0.02862 0.0
C9 C 0.26163 0.16893 0.90867 0.0
O10 O 0.21267 0.14221 0.92629 0.0
O11 O 0.22208 0.03424 0.94444 0.0
C12 C 0.26988 0.98772 0.06819 0.0
O13 O 0.33089 0.00313 0.06544 0.0
O14 O 0.25032 0.02279 0.05608 0.0
O15 O 0.35679 0.09603 1.00233 0.0
O16 O 0.3767 0.09458 0.95748 0.0
O17 O 0.38599 0.14749 0.07171 0.0
C18 C 0.26702 0.15112 1.00414 0.0
C19 C 0.38704 0.0855 0.98292 0.0
Zn20 Zn 0.24762 0.1957 0.39247 0.0
Zn21 Zn 0.27067 0.29794 0.33359 0.0
C22 C 0.23731 0.27928 0.43612 0.0
O23 O 0.29833 0.32271 0.43149 0.0
C24 C 0.26438 0.21953 0.2877 0.0
O25 O 0.20968 0.22011 0.28547 0.0
O26 O 0.24935 0.12222 0.41402 0.0
O27 O 0.18445 0.15841 0.36107 0.0
O28 O 0.1796 0.24505 0.34752 0.0
C29 C 0.19665 0.0773 0.42444 0.0
O30 O 0.14196 0.07599 0.41846 0.0
O31 O 0.20927 0.22833 0.42113 0.0
C32 C 0.29429 0.3769 0.2835 0.0
O33 O 0.34806 0.37416 0.28165 0.0
O34 O 0.26069 0.3572 0.30581 0.0
O35 O 0.33828 0.34627 0.36268 0.0
O36 O 0.3392 0.26212 0.38315 0.0
O37 O 0.30015 0.24647 0.30895 0.0
C38 C 0.15238 0.18443 0.35186 0.0
C39 C 0.36799 0.32104 0.37505 0.0
Zn40 Zn 0.92182 0.11383 0.63129 0.0
Zn41 Zn 0.88287 0.1471 0.72002 0.0
C42 C 0.04982 0.22919 0.62736 0.0
O43 O 0.02244 0.25971 0.6391 0.0
C44 C 0.80156 0.13564 0.76621 0.0
O45 O 0.85276 0.14426 0.78026 0.0
O46 O 0.8874 0.05463 0.59657 0.0
O47 O 0.89855 0.05873 0.66589 0.0
O48 O 0.88501 0.06655 0.71014 0.0
C49 C 0.91568 0.0218 0.59157 0.0
O50 O 0.96029 0.02629 0.60914 0.0
O51 O 0.01793 0.16745 0.62493 0.0
C52 C 0.01706 0.24577 0.74794 0.0
O53 O 0.04554 0.28108 0.72568 0.0
O54 O 0.95906 0.19874 0.74662 0.0
O55 O 0.87799 0.17972 0.6811 0.0
O56 O 0.88691 0.17774 0.63478 0.0
O57 O 0.80139 0.13098 0.73973 0.0
C58 C 0.92354 0.08347 0.6894 0.0
C59 C 0.87481 0.20046 0.65695 0.0
Zn60 Zn 0.90009 0.10573 0.07814 0.0
Zn61 Zn 0.86336 0.02089 0.99484 0.0
C62 C 0.83554 0.03428 0.12652 0.0
O63 O 0.82382 0.08275 0.12943 0.0
C64 C 0.89791 0.0894 0.94247 0.0
O65 O 0.9354 0.06333 0.94025 0.0
O66 O 0.94659 0.1867 0.1024 0.0
O67 O 0.96311 0.10367 0.05169 0.0
O68 O 0.95219 0.05897 0.0114 0.0
C69 C -0.00124 0.19429 0.11332 0.0
O70 O 0.01927 0.15385 0.10628 0.0
O71 O 0.86572 0.03168 0.10506 0.0
C72 C 0.80878 0.91581 0.95427 0.0
O73 O 0.78121 0.94821 0.94463 0.0
O74 O 0.84101 0.93422 0.97699 0.0
O75 O 0.80194 0.01817 0.02595 0.0
O76 O 0.82909 0.10418 0.05359 0.0
O77 O 0.86451 0.08 0.96453 0.0
C78 C 0.94665 0.0523 0.03771 0.0
C79 C 0.7968 0.06752 0.03303 0.0
Zn80 Zn 0.91666 0.69349 0.28803 0.0
Zn81 Zn 0.90663 0.71039 0.3745 0.0
C82 C 0.82784 0.74647 0.28188 0.0
O83 O 0.78318 0.6914 0.29272 0.0
C84 C 0.92002 0.61454 0.40846 0.0
O85 O 0.97726 0.63644 0.39685 0.0
O86 O 0.95376 0.6855 0.25086 0.0
O87 O 0.97942 0.71719 0.32183 0.0
O88 O 0.00238 0.75917 0.36372 0.0
C89 C 0.00804 0.73422 0.24411 0.0
O90 O 0.04115 0.77836 0.26328 0.0
O91 O 0.88572 0.75728 0.27896 0.0
C92 C 0.83072 0.75188 0.40816 0.0
O93 O 0.78442 0.69194 0.40326 0.0
O94 O 0.8855 0.77277 0.39617 0.0
O95 O 0.8651 0.67799 0.33695 0.0
O96 O 0.8375 0.61102 0.30173 0.0
O97 O 0.88357 0.6364 0.40043 0.0
C98 C 0.00747 0.76779 0.33728 0.0
C99 C 0.83037 0.62101 0.32742 0.0
Zn100 Zn 0.96301 0.72153 0.7265 0.0
Zn101 Zn 0.98677 0.72965 0.64051 0.0
C102 C 0.08548 0.78973 0.75384 0.0
O103 O 0.08022 0.73172 0.75332 0.0
C104 C 0.86384 0.64234 0.61352 0.0
O105 O 0.84464 0.68179 0.62344 0.0
O106 O 0.89531 0.70438 0.75662 0.0
O107 O 0.93252 0.73747 0.69002 0.0
O108 O 0.95192 0.78991 0.65105 0.0
C109 C 0.91253 0.7103 0.7822 0.0
O110 O 0.96833 0.71459 0.78847 0.0
O111 O 0.04516 0.79907 0.74005 0.0
C112 C 0.06568 0.75317 0.59074 0.0
O113 O 0.0325 0.68939 0.58888 0.0
O114 O 0.05892 0.78088 0.61237 0.0
O115 O 0.01596 0.70965 0.6777 0.0
O116 O 0.97833 0.64737 0.71471 0.0
O117 O 0.91878 0.65026 0.62077 0.0
C118 C 0.94291 0.7884 0.67732 0.0
C119 C -0.00471 0.65412 0.68893 0.0
H120 H 0.85243 0.98095 0.05784 0.0
C121 C 0.89734 0.9879 0.04904 0.0
H122 H 0.87177 0.89042 0.05779 0.0
H123 H 0.10618 -0.00458 0.96612 0.0
H124 H 0.02316 0.90139 0.94048 0.0
H125 H 0.91858 0.82611 0.96285 0.0
H126 H 0.89354 0.84828 0.01015 0.0
C127 C 0.90876 0.93743 0.04995 0.0
C128 C 0.97467 0.94831 0.04378 0.0
C129 C 0.98823 0.93404 0.01676 0.0
C130 C 0.04977 0.97534 1.00453 0.0
C131 C 0.06085 0.96392 0.97656 0.0
C132 C 0.01362 0.91044 0.96171 0.0
C133 C 0.95424 0.86848 0.9742 0.0
C134 C 0.94064 0.8811 1.0012 0.0
H135 H 0.21318 0.04377 1.00465 0.0
C136 C 0.20881 0.0871 1.0022 0.0
H137 H 0.14981 0.12939 1.00561 0.0
H138 H 0.96827 0.96939 0.0993 0.0
H139 H 0.05387 0.05564 0.12737 0.0
H140 H 0.16164 0.12857 0.10674 0.0
H141 H 0.18381 0.11625 0.05805 0.0
C142 C 0.15189 0.08443 1.00608 0.0
C143 C 0.09733 0.02855 0.02017 0.0
C144 C 0.08737 0.03413 0.04911 0.0
C145 C 0.02593 0.99255 0.06108 0.0
C146 C 0.01484 0.00052 0.08953 0.0
C147 C 0.06345 0.04939 0.10574 0.0
C148 C 0.12394 0.09062 0.09407 0.0
C149 C 0.1361 0.0831 0.06611 0.0
H150 H 0.05871 0.86977 0.3248 0.0
C151 C 0.01072 0.82767 0.32741 0.0
H152 H 0.91104 0.79184 0.3308 0.0
H153 H 0.93426 0.05568 0.36055 0.0
H154 H 0.82805 0.97655 0.37974 0.0
H155 H 0.78131 0.85889 0.37019 0.0
H156 H 0.83902 0.81958 0.34109 0.0
C157 C 0.95691 0.83265 0.32476 0.0
C158 C 0.95989 0.89522 0.31768 0.0
C159 C 0.92293 0.91582 0.33349 0.0
C160 C 0.94932 0.98318 0.33888 0.0
C161 C 0.91499 0.00439 0.35602 0.0
C162 C 0.8545 0.95971 0.36695 0.0
C163 C 0.82821 0.89339 0.3616 0.0
C164 C 0.86208 0.87131 0.34517 0.0
H165 H 0.07337 0.15958 0.32142 0.0
C166 C 0.0882 0.14261 0.33963 0.0
H167 H 0.06937 0.0646 0.36616 0.0
H168 H 0.01435 0.86962 0.27287 0.0
H169 H 0.11557 0.94837 0.24988 0.0
H170 H 0.16711 0.06499 0.26141 0.0
H171 H 0.12043 0.10358 0.29649 0.0
C172 C 0.0554 0.08027 0.34726 0.0
C173 C 0.01119 0.02772 0.32835 0.0
C174 C 0.03848 0.00786 0.30664 0.0
C175 C 0.01036 0.94081 0.30046 0.0
C176 C 0.03682 0.92036 0.27885 0.0
C177 C 0.09362 0.96489 0.26529 0.0
C178 C 0.1231 0.0306 0.27205 0.0
C179 C 0.09599 0.05211 0.29244 0.0
H180 H 0.99008 0.85466 0.71296 0.0
C181 C 0.96816 0.84993 0.69251 0.0
H182 H 0.94864 0.89552 0.65932 0.0
H183 H 0.02109 0.1251 0.75266 0.0
H184 H 0.95248 0.04435 0.78749 0.0
H185 H 0.90454 0.92677 0.77748 0.0
H186 H 0.92561 0.8896 0.73349 0.0
C187 C 0.96926 0.90103 0.68019 0.0
C188 C 0.00748 0.96806 0.69115 0.0
C189 C -0.00813 0.98705 0.71697 0.0
C190 C 0.01665 0.05422 0.72238 0.0
C191 C 0.00198 0.07409 0.74794 0.0
C192 C 0.96292 0.02841 0.76786 0.0
C193 C 0.93611 0.96225 0.76222 0.0
C194 C 0.94934 0.94148 0.7369 0.0
H195 H 0.98117 0.19194 0.68535 0.0
C196 C 0.98327 0.14859 0.69027 0.0
H197 H 0.08348 0.20542 0.69792 0.0
H198 H 0.06512 0.94827 0.64514 0.0
H199 H 0.14219 0.03216 0.61371 0.0
H200 H 0.17739 0.14819 0.62193 0.0
H201 H 0.13746 0.18116 0.66236 0.0
C202 C 0.04146 0.15676 0.69785 0.0
C203 C 0.05108 0.10006 0.70118 0.0
C204 C 0.07644 0.08246 0.67825 0.0
C205 C 0.05479 0.01586 0.67323 0.0
C206 C 0.0792 -0.0015 0.64961 0.0
C207 C 0.1234 0.04608 0.63148 0.0
C208 C 0.14341 0.11146 0.63616 0.0
C209 C 0.12011 0.12974 0.65926 0.0
H210 H 0.2952 0.21807 0.86739 0.0
C211 C 0.2543 0.19585 0.88173 0.0
H212 H 0.15684 0.1705 0.88921 0.0
H213 H 0.12648 0.35951 0.80826 0.0
H214 H 0.13434 0.41213 0.85298 0.0
H215 H 0.16745 0.37746 0.89565 0.0
H216 H 0.19281 0.28994 0.89392 0.0
C217 C 0.19726 0.19152 0.87459 0.0
C218 C 0.18639 0.21772 0.84792 0.0
C219 C 0.17286 0.26981 0.8491 0.0
C220 C 0.15339 0.28965 0.82451 0.0
C221 C 0.14017 0.3417 0.82641 0.0
C222 C 0.14492 0.3726 0.8519 0.0
C223 C 0.16358 0.35309 0.87592 0.0
C224 C 0.17775 0.30259 0.87465 0.0
H225 H 0.02572 0.22964 0.79266 0.0
C226 C 0.0538 0.25142 0.77375 0.0
H227 H 0.14534 0.28766 0.7545 0.0
H228 H 0.20277 0.11251 0.83838 0.0
H229 H 0.1927 0.05875 0.79381 0.0
H230 H 0.16543 0.09747 0.75075 0.0
H231 H 0.14645 0.18909 0.75209 0.0
C232 C 0.11753 0.27093 0.77379 0.0
C233 C 0.14729 0.25738 0.79867 0.0
C234 C 0.16344 0.20711 0.79719 0.0
C235 C 0.1815 0.18622 0.82192 0.0
C236 C 0.19133 0.13194 0.82017 0.0
C237 C 0.18542 0.10041 0.79472 0.0
C238 C 0.16986 0.12207 0.77048 0.0
C239 C 0.15899 0.17474 0.77156 0.0
H240 H 0.28902 0.38526 0.23777 0.0
C241 C 0.26301 0.38029 0.25721 0.0
H242 H 0.17265 0.35533 0.2754 0.0
H243 H 0.1372 0.36886 0.13567 0.0
H244 H 0.20369 0.48639 0.14066 0.0
H245 H 0.25143 0.53593 0.18639 0.0
H246 H 0.23294 0.46818 0.22751 0.0
C247 C 0.19966 0.36269 0.25608 0.0
C248 C 0.16208 0.33554 0.22962 0.0
C249 C 0.17298 0.37563 0.20589 0.0
C250 C 0.14472 0.34705 0.17957 0.0
C251 C 0.15702 0.38814 0.15616 0.0
C252 C 0.19512 0.45559 0.15874 0.0
C253 C 0.2221 0.48349 0.1845 0.0
C254 C 0.21144 0.44418 0.20787 0.0
H255 H 0.00663 0.26646 0.14511 0.0
C256 C 0.03032 0.24092 0.13662 0.0
H257 H 0.1061 0.21942 0.14129 0.0
H258 H 0.11857 0.24566 0.27217 0.0
H259 H 0.05047 0.12899 0.26739 0.0
H260 H 0.00933 0.0785 0.22118 0.0
H261 H 0.03234 0.14529 0.17967 0.0
C262 C 0.08365 0.24669 0.14919 0.0
C263 C 0.10622 0.27841 0.17704 0.0
C264 C 0.09262 0.23861 0.20109 0.0
C265 C 0.11888 0.26738 0.22755 0.0
C266 C 0.10224 0.22649 0.25135 0.0
C267 C 0.06303 0.15923 0.24894 0.0
C268 C 0.03945 0.1309 0.22295 0.0
C269 C 0.05326 0.16988 0.19928 0.0
H270 H 0.93118 0.95698 0.56351 0.0
C271 C 0.90272 0.98109 0.56608 0.0
H272 H 0.83194 -0.00176 0.54769 0.0
H273 H 0.88927 0.94826 0.42311 0.0
H274 H 0.90885 0.05924 0.42121 0.0
H275 H 0.90475 0.11534 0.46416 0.0
H276 H 0.88121 0.06122 0.50915 0.0
C277 C 0.85991 0.97341 0.54587 0.0
C278 C 0.8551 0.93649 0.51939 0.0
C279 C 0.86917 0.9689 0.49313 0.0
C280 C 0.87196 0.93662 0.46828 0.0
C281 C 0.88669 0.97056 0.44251 0.0
C282 C 0.89804 0.03422 0.44115 0.0
C283 C 0.89573 0.06581 0.46533 0.0
C284 C 0.88196 0.034 0.49107 0.0
H285 H 0.77166 0.7714 0.43831 0.0
C286 C 0.82072 0.79001 0.43046 0.0
H287 H 0.91952 0.85991 0.43629 0.0
H288 H 0.81313 0.85498 0.56476 0.0
H289 H 0.79111 0.74336 0.56636 0.0
H290 H 0.80031 0.68917 0.52383 0.0
H291 H 0.83261 0.74633 0.47963 0.0
C292 C 0.87011 0.84076 0.44376 0.0
C293 C 0.86009 0.87165 0.46944 0.0
C294 C 0.84272 0.83802 0.49546 0.0
C295 C 0.8393 0.87005 0.52028 0.0
C296 C 0.81938 0.83421 0.5456 0.0
C297 C 0.80583 0.7698 0.54676 0.0
C298 C 0.8109 0.73924 0.52281 0.0
C299 C 0.82925 0.77269 0.49747 0.0
H300 H 0.83885 0.84321 0.94473 0.0
C301 C 0.81527 0.86853 0.93619 0.0
H302 H 0.78071 0.89082 0.89964 0.0
H303 H -0.00887 0.86916 0.82532 0.0
H304 H 0.05141 0.98447 0.8362 0.0
H305 H 0.0108 0.03217 0.87137 0.0
H306 H 0.90968 0.96466 0.89593 0.0
C307 C 0.80229 0.864 0.90861 0.0
C308 C 0.82828 0.83359 0.88889 0.0
C309 C 0.88792 0.87352 0.87491 0.0
C310 C 0.91173 0.84577 0.85491 0.0
C311 C 0.97105 0.88722 0.84102 0.0
C312 C 0.00615 0.95367 0.84698 0.0
C313 C 0.98325 0.98053 0.86675 0.0
C314 C 0.92495 0.94122 0.88062 0.0
H315 H 0.83044 0.72102 0.79818 0.0
C316 C 0.87651 0.72472 0.80379 0.0
H317 H 0.95138 0.75718 0.83368 0.0
H318 H 0.71331 0.74388 0.91222 0.0
H319 H 0.65527 0.62728 0.90324 0.0
H320 H 0.69845 0.57823 0.86996 0.0
H321 H 0.79936 0.64534 0.84519 0.0
C322 C 0.90347 0.74949 0.82892 0.0
C323 C 0.87606 0.77793 0.84901 0.0
C324 C 0.81731 0.73777 0.86356 0.0
C325 C 0.79312 0.76582 0.8833 0.0
C326 C 0.734 0.72488 0.89724 0.0
C327 C 0.70029 0.65795 0.8923 0.0
C328 C 0.72456 0.63035 0.87352 0.0
C329 C 0.78241 0.66951 0.85931 0.0
H330 H -0.00741 0.71604 0.19837 0.0
C331 C 0.02652 0.748 0.21416 0.0
H332 H 0.11242 0.83606 0.22231 0.0
H333 H 0.1467 0.80934 0.08508 0.0
H334 H 0.13188 0.70155 0.09354 0.0
H335 H 0.10354 0.65243 0.14064 0.0
H336 H 0.08725 0.70947 0.17925 0.0
C337 C 0.08032 0.80301 0.20628 0.0
C338 C 0.09314 0.82824 0.17686 0.0
C339 C 0.1061 0.79558 0.15497 0.0
C340 C 0.12694 0.82588 0.12821 0.0
C341 C 0.13432 0.79009 0.10612 0.0
C342 C 0.12552 0.72802 0.11065 0.0
C343 C 0.1093 0.70025 0.13714 0.0
C344 C 0.09974 0.73344 0.15913 0.0
H345 H 0.25312 0.91607 0.10104 0.0
C346 C 0.23003 0.93869 0.08951 0.0
H347 H 0.14884 0.95205 0.08706 0.0
H348 H 0.05505 0.89625 0.21068 0.0
H349 H 0.08215 0.00929 0.20473 0.0
H350 H 0.1414 0.07092 0.16276 0.0
H351 H 0.16907 0.01868 0.12566 0.0
C352 C 0.171 0.92725 0.09761 0.0
C353 C 0.14075 0.89113 0.12418 0.0
C354 C 0.1278 0.92355 0.14617 0.0
C355 C 0.10017 0.89049 0.17171 0.0
C356 C 0.0814 0.92156 0.19206 0.0
C357 C 0.0958 0.98588 0.18869 0.0
C358 C 0.12858 0.02035 0.16495 0.0
C359 C 0.14381 0.9896 0.14372 0.0
H360 H 0.08284 0.76449 0.54535 0.0
C361 C 0.09573 0.7912 0.56503 0.0
H362 H 0.14229 0.88299 0.58447 0.0
H363 H 0.19488 0.91797 0.44368 0.0
H364 H 0.24215 0.84795 0.44779 0.0
H365 H 0.24724 0.80231 0.49354 0.0
H366 H 0.20335 0.82485 0.53531 0.0
C367 C 0.12966 0.85676 0.56468 0.0
C368 C 0.13941 0.89439 0.53809 0.0
C369 C 0.1692 0.88433 0.51419 0.0
C370 C 0.17005 0.91412 0.48809 0.0
C371 C 0.19549 0.899 0.46421 0.0
C372 C 0.22251 0.85862 0.46625 0.0
C373 C 0.2251 0.83267 0.49198 0.0
C374 C 0.19906 0.8454 0.51574 0.0
H375 H 0.24555 0.04479 0.45463 0.0
C376 C 0.19851 0.03453 0.44667 0.0
H377 H 0.09703 0.97965 0.4517 0.0
H378 H 0.08124 0.92815 0.57984 0.0
H379 H 0.04559 0.00711 0.57677 0.0
H380 H 0.05305 0.06357 0.53241 0.0
H381 H 0.09834 0.04234 0.49092 0.0
C382 C 0.14399 0.98847 0.45914 0.0
C383 C 0.14504 0.95745 0.48629 0.0
C384 C 0.11892 0.97068 0.51058 0.0
C385 C 0.11551 0.9388 0.53635 0.0
C386 C 0.08713 0.95186 0.55987 0.0
C387 C 0.06567 -0.00312 0.55838 0.0
C388 C 0.07001 0.02872 0.53343 0.0
C389 C 0.09599 0.01581 0.50973 0.0
H390 H 0.43144 0.04545 0.01099 0.0
C391 C 0.43527 0.06651 0.99036 0.0
H392 H 0.49086 0.10136 0.95342 0.0
H393 H 0.66518 0.07389 0.05901 0.0
H394 H 0.64061 0.14679 0.08533 0.0
H395 H 0.57569 0.19095 0.06414 0.0
H396 H 0.53209 0.15933 0.01726 0.0
C397 C 0.48658 0.08021 0.97405 0.0
C398 C 0.53885 0.06745 0.98388 0.0
C399 C 0.57042 0.09314 0.00992 0.0
C400 C 0.61411 0.07411 0.02079 0.0
C401 C 0.63664 0.09186 0.04869 0.0
C402 C 0.62223 0.13304 0.06419 0.0
C403 C 0.58531 0.15747 0.05236 0.0
C404 C 0.55978 0.13811 0.02553 0.0
H405 H 0.75355 0.12665 0.0203 0.0
C406 C 0.74577 0.07729 0.02067 0.0
H407 H 0.67958 0.97756 0.01389 0.0
H408 H 0.4866 0.00847 0.93355 0.0
H409 H 0.51885 0.94348 0.90563 0.0
H410 H 0.60584 0.92298 0.9217 0.0
H411 H 0.65997 0.96591 0.96611 0.0
C412 C 0.68794 0.02709 0.01311 0.0
C413 C 0.6341 0.03786 1.00379 0.0
C414 C 0.6044 0.01404 0.97733 0.0
C415 C 0.55572 0.02771 0.96763 0.0
C416 C 0.52486 0.0009 0.94169 0.0
C417 C 0.54282 0.96338 0.92544 0.0
C418 C 0.59172 0.95174 0.93451 0.0
C419 C 0.62236 0.97666 0.96011 0.0
H420 H 0.46273 0.32972 0.38294 0.0
C421 C 0.43884 0.3565 0.37617 0.0
H422 H 0.45088 0.44277 0.35767 0.0
H423 H 0.7456 0.48378 0.38894 0.0
H424 H 0.7133 0.4747 0.43791 0.0
H425 H 0.60395 0.45296 0.4509 0.0
H426 H 0.52522 0.43829 0.4151 0.0
C427 C 0.47416 0.41628 0.36548 0.0
C428 C 0.54284 0.44003 0.35826 0.0
C429 C 0.58875 0.45088 0.37952 0.0
C430 C 0.65278 0.46685 0.37209 0.0
C431 C 0.69695 0.47406 0.39359 0.0
C432 C 0.67904 0.46867 0.4217 0.0
C433 C 0.61729 0.45614 0.42902 0.0
C434 C 0.57243 0.44732 0.40827 0.0
H435 H 0.76203 0.59069 0.36192 0.0
C436 C 0.77823 0.57219 0.34466 0.0
H437 H 0.75799 0.49252 0.31872 0.0
H438 H 0.46501 0.41921 0.31233 0.0
H439 H 0.49853 0.43532 0.26384 0.0
H440 H 0.61188 0.4702 0.2509 0.0
H441 H 0.6916 0.48882 0.28629 0.0
C442 C 0.74154 0.51064 0.33599 0.0
C443 C 0.67183 0.47641 0.34353 0.0
C444 C 0.62564 0.46503 0.32221 0.0
C445 C 0.56084 0.44634 0.32963 0.0
C446 C 0.51531 0.4347 0.30801 0.0
C447 C 0.53381 0.44346 0.27997 0.0
C448 C 0.5975 0.46309 0.27271 0.0
C449 C 0.643 0.47374 0.29342 0.0
H450 H 0.85746 0.27445 0.67566 0.0
C451 C 0.86302 0.25556 0.65564 0.0
H452 H 0.8788 0.2732 0.61224 0.0
H453 H 0.82766 0.48645 0.68869 0.0
H454 H 0.71448 0.40135 0.69038 0.0
H455 H 0.67763 0.29616 0.66631 0.0
H456 H 0.75428 0.27573 0.64028 0.0
C457 C 0.87037 0.28981 0.63222 0.0
C458 C 0.88418 0.35798 0.63552 0.0
C459 C 0.8389 0.37027 0.64959 0.0
C460 C 0.86028 0.43071 0.6634 0.0
C461 C 0.81419 0.44101 0.67804 0.0
C462 C 0.74905 0.39269 0.67907 0.0
C463 C 0.72829 0.33346 0.66553 0.0
C464 C 0.77254 0.32216 0.65086 0.0
H465 H 0.98313 0.6045 0.64844 0.0
C466 C 0.97594 0.59698 0.67091 0.0
H467 H 0.94108 0.52843 0.70368 0.0
H468 H 0.97828 0.35559 0.60324 0.0
H469 H 0.09098 0.44059 0.60012 0.0
H470 H 0.13088 0.54327 0.62657 0.0
H471 H 0.05856 0.56168 0.65593 0.0
C472 C 0.95016 0.53669 0.68132 0.0
C473 C 0.92693 0.47879 0.66282 0.0
C474 C 0.97096 0.46908 0.64605 0.0
C475 C 0.94872 0.40902 0.63163 0.0
C476 C -0.00696 0.39987 0.61502 0.0
C477 C 0.05781 0.44834 0.61298 0.0
C478 C 0.08019 0.50619 0.6278 0.0
C479 C 0.03773 0.51644 0.64439 0.0
H480 H 0.4324 0.17516 0.12443 0.0
C481 C 0.38337 0.16628 0.12118 0.0
H482 H 0.29696 0.15298 0.1397 0.0
H483 H 0.29358 0.08051 0.2606 0.0
H484 H 0.23256 0.97109 0.24093 0.0
H485 H 0.23401 0.95284 0.19007 0.0
H486 H 0.29507 0.04389 0.15839 0.0
C487 C 0.34694 0.16487 0.14311 0.0
C488 C 0.36721 0.17193 0.173 0.0
C489 C 0.33165 0.11852 0.19116 0.0
C490 C 0.33092 0.12905 0.22045 0.0
C491 C 0.29453 0.07493 0.23811 0.0
C492 C 0.25975 0.01208 0.22711 0.0
C493 C 0.2604 0.00181 0.19845 0.0
C494 C 0.29547 0.05431 0.18053 0.0
H495 H 0.25067 0.17272 0.24679 0.0
C496 C 0.2859 0.19592 0.26354 0.0
H497 H 0.38422 0.235 0.27507 0.0
H498 H 0.45333 0.28194 0.14476 0.0
H499 H 0.52489 0.38808 0.16509 0.0
H500 H 0.525 0.40613 0.21594 0.0
H501 H 0.45331 0.31791 0.24699 0.0
C502 C 0.34709 0.20818 0.25944 0.0
C503 C 0.36537 0.19319 0.23146 0.0
C504 C 0.40961 0.24459 0.21393 0.0
C505 C 0.41005 0.23407 0.1845 0.0
C506 C 0.45154 0.28704 0.16719 0.0
C507 C 0.49285 0.34823 0.17861 0.0
C508 C 0.4929 0.35838 0.2073 0.0
C509 C 0.45146 0.30748 0.22484 0.0
H510 H 0.16447 0.23252 0.46874 0.0
C511 C 0.20536 0.27909 0.46246 0.0
H512 H 0.26901 0.37638 0.47399 0.0
H513 H 0.01784 0.19718 0.56331 0.0
H514 H 0.94595 0.1834 0.52468 0.0
H515 H 0.98982 0.23675 0.4792 0.0
H516 H 0.10635 0.30264 0.47197 0.0
C517 C 0.22759 0.33016 0.48003 0.0
C518 C 0.20145 0.32025 0.5092 0.0
C519 C 0.13334 0.2866 0.51378 0.0
C520 C 0.10814 0.25881 0.54036 0.0
C521 C 0.03986 0.22072 0.54371 0.0
C522 C -0.00209 0.21241 0.52171 0.0
C523 C 0.0226 0.24229 0.49609 0.0
C524 C 0.08946 0.27937 0.49212 0.0
H525 H 0.1259 0.3191 0.60797 0.0
C526 C 0.10692 0.26681 0.60943 0.0
H527 H 0.10258 0.18415 0.59038 0.0
H528 H 0.33482 0.39399 0.50928 0.0
H529 H 0.4058 0.41686 0.54919 0.0
H530 H 0.36127 0.37318 0.59595 0.0
H531 H 0.2449 0.30559 0.60294 0.0
C532 C 0.12379 0.23682 0.59001 0.0
C533 C 0.15111 0.26936 0.56293 0.0
C534 C 0.21875 0.30982 0.55935 0.0
C535 C 0.24421 0.33521 0.53236 0.0
C536 C 0.31238 0.37346 0.52918 0.0
C537 C 0.35385 0.3871 0.55199 0.0
C538 C 0.32879 0.36253 0.57833 0.0
C539 C 0.26203 0.32398 0.58207 0.0
H540 H 0.71221 0.1423 0.76687 0.0
C541 C 0.74809 0.13987 0.78015 0.0
H542 H 0.70256 0.14904 0.81615 0.0
H543 H 0.83011 0.99199 0.87594 0.0
H544 H 0.73885 0.89776 0.85437 0.0
H545 H 0.66651 0.91152 0.82154 0.0
H546 H 0.68553 0.01923 0.80958 0.0
C547 C 0.74232 0.14352 0.80805 0.0
C548 C 0.78492 0.13567 0.82862 0.0
C549 C 0.7722 0.0723 0.83579 0.0
C550 C 0.81317 0.06439 0.85512 0.0
C551 C 0.80002 0.00059 0.86161 0.0
C552 C 0.74789 0.9462 0.8494 0.0
C553 C 0.70723 0.95392 0.83083 0.0
C554 C 0.71886 0.01608 0.82408 0.0
H555 H 0.85173 0.13807 0.92116 0.0
C556 C 0.88379 0.11802 0.91803 0.0
H557 H 0.92848 0.08694 0.88813 0.0
H558 H 0.8259 0.26371 0.81735 0.0
H559 H 0.92162 0.35772 0.83655 0.0
H560 H -0.0073 0.34359 0.87016 0.0
H561 H 0.96831 0.23529 0.88489 0.0
C562 C 0.89977 0.11047 0.89186 0.0
C563 C 0.86547 0.11978 0.86787 0.0
C564 C 0.88016 0.18314 0.85965 0.0
C565 C 0.83958 0.19117 0.84007 0.0
C566 C 0.85528 0.25498 0.83214 0.0
C567 C 0.91003 0.30924 0.84298 0.0
C568 C 0.95001 0.30131 0.86195 0.0
C569 C 0.93536 0.23905 0.87034 0.0
H570 H 0.83933 0.95315 0.14661 0.0
C571 C 0.82236 0.98794 0.14932 0.0
H572 H 0.78033 0.02625 0.17711 0.0
H573 H 0.77036 0.74744 0.21909 0.0
H574 H 0.69591 0.6955 0.18057 0.0
H575 H 0.66238 0.75819 0.15037 0.0
H576 H 0.70515 0.87415 0.15824 0.0
C577 C 0.79558 0.99039 0.17378 0.0
C578 C 0.79477 0.94949 0.19756 0.0
C579 C 0.76558 0.88113 0.19412 0.0
C580 C 0.78191 0.84448 0.21256 0.0
C581 C 0.75731 0.77742 0.20674 0.0
C582 C 0.71473 0.74692 0.1845 0.0
C583 C 0.69605 0.78223 0.16742 0.0
C584 C 0.7212 0.84865 0.17203 0.0
H585 H 0.75787 0.77917 0.27209 0.0
C586 C 0.80819 0.79118 0.2698 0.0
H587 H 0.89841 0.85346 0.25059 0.0
H588 H 0.8476 0.07758 0.21344 0.0
H589 H 0.91006 0.1271 0.25559 0.0
H590 H 0.93308 0.06211 0.28924 0.0
H591 H 0.8943 0.94715 0.28058 0.0
C592 C 0.84784 0.84035 0.253 0.0
C593 C 0.82363 0.87587 0.23569 0.0
C594 C 0.84585 0.94258 0.24112 0.0
C595 C 0.83161 0.97968 0.22196 0.0
C596 C 0.85627 0.04682 0.22742 0.0
C597 C 0.89206 0.07584 0.2516 0.0
C598 C 0.90519 0.03929 0.27052 0.0
C599 C 0.88291 0.97355 0.26531 0.0
H600 H 0.9453 0.57697 0.44576 0.0
C601 C 0.90657 0.58148 0.43579 0.0
H602 H 0.81681 0.57855 0.44149 0.0
H603 H 0.78579 0.45908 0.56524 0.0
H604 H 0.72456 0.35572 0.54067 0.0
H605 H 0.72508 0.35103 0.48898 0.0
H606 H 0.78686 0.44964 0.46153 0.0
C607 C 0.85492 0.57222 0.45096 0.0
C608 C 0.85754 0.5736 0.48195 0.0
C609 C 0.82282 0.51549 0.49757 0.0
C610 C 0.8233 0.51809 0.52733 0.0
C611 C 0.78735 0.45956 0.54256 0.0
C612 C 0.75203 0.40006 0.52872 0.0
C613 C 0.75224 0.39742 0.49961 0.0
C614 C 0.78747 0.45431 0.4841 0.0
H615 H 0.79609 0.61249 0.57791 0.0
C616 C 0.83411 0.6061 0.58749 0.0
H617 H 0.90342 0.57587 0.58118 0.0
H618 H 0.92454 0.69542 0.45804 0.0
H619 H 0.98596 0.7981 0.48243 0.0
H620 H 0.99051 0.80214 0.53401 0.0
H621 H 0.93521 0.70359 0.56139 0.0
C622 C 0.86438 0.58139 0.57218 0.0
C623 C 0.85927 0.57865 0.54123 0.0
C624 C 0.89418 0.63703 0.52555 0.0
C625 C 0.89234 0.6346 0.49585 0.0
C626 C 0.92563 0.69386 0.48065 0.0
C627 C 0.96098 0.75342 0.49438 0.0
C628 C 0.96356 0.7557 0.5234 0.0
C629 C 0.93107 0.69846 0.5389 0.0
H630 H 0.1143 0.87788 0.77891 0.0
C631 C 0.11875 0.83433 0.77737 0.0
H632 H 0.14185 0.77061 0.79878 0.0
H633 H 0.2359 0.03626 0.88041 0.0
H634 H 0.31441 0.09694 0.84435 0.0
H635 H 0.31743 0.04361 0.80032 0.0
H636 H 0.24148 0.92902 0.79219 0.0
C637 C 0.13992 0.81552 0.79966 0.0
C638 C 0.14494 0.84605 0.82753 0.0
C639 C 0.18967 0.91301 0.83197 0.0
C640 C 0.18847 0.94336 0.85752 0.0
C641 C 0.23424 0.01033 0.86146 0.0
C642 C 0.27992 0.04587 0.84093 0.0
C643 C 0.28152 0.01589 0.81613 0.0
C644 C 0.23718 0.95025 0.81161 0.0
H645 H 0.18178 0.88363 0.92761 0.0
C646 C 0.17515 0.92595 0.92812 0.0
H647 H 0.14185 0.98103 0.90612 0.0
H648 H 0.05653 0.71465 0.8272 0.0
H649 H 0.97957 0.65362 0.86374 0.0
H650 H 0.9744 0.70788 0.90711 0.0
H651 H 0.04803 0.82344 0.91446 0.0
C652 C 0.14687 0.93775 0.90622 0.0
C653 C 0.1432 0.90634 0.87878 0.0
C654 C 0.09916 0.83928 0.87455 0.0
C655 C 0.10093 0.80866 0.84915 0.0
C656 C 0.05736 0.74097 0.84587 0.0
C657 C 0.01275 0.70517 0.86674 0.0
C658 C 0.00984 0.73569 0.89115 0.0
C659 C 0.05246 0.80196 0.89514 0.0
loop_
_geom_bond_atom_site_label_1
_geom_bond_atom_site_label_2
_geom_bond_distance
_geom_bond_site_symmetry_2
_ccdc_geom_bond_type
Zn0 O6 1.969 . S
Zn0 O7 1.965 . S
Zn0 O11 2.024 1_545 S
Zn0 O16 1.969 . S
Zn1 O8 1.969 . S
Zn1 O14 1.969 1_545 S
Zn1 O15 1.973 . S
Zn1 O17 2.024 . S
C2 O3 1.229 . S
C2 O11 1.058 . S
O3 C2 1.229 . S
C4 O5 1.229 . S
C4 O17 1.058 . S
O5 C4 1.229 . S
O6 Zn0 1.969 . S
O6 C9 1.267 . S
O7 Zn0 1.965 . S
O7 C18 1.260 1_556 S
O8 Zn1 1.969 . S
O8 C18 1.258 . S
C9 O6 1.267 . S
C9 O10 1.228 . S
O10 C9 1.228 . S
O11 Zn0 2.024 1_565 S
O11 C2 1.058 . S
C12 O13 1.228 . S
C12 O14 1.267 . S
O13 C12 1.228 . S
O14 Zn1 1.969 1_565 S
O14 C12 1.267 . S
O15 Zn1 1.973 . S
O15 C19 1.260 . S
O16 Zn0 1.969 . S
O16 C19 1.258 1_556 S
O17 Zn1 2.024 . S
O17 C4 1.058 . S
C18 O7 1.260 1_554 S
C18 O8 1.258 . S
C19 O15 1.260 . S
C19 O16 1.258 1_554 S
Zn20 O26 1.969 . S
Zn20 O27 1.965 . S
Zn20 O31 2.024 . S
Zn20 O36 1.969 . S
Zn21 O28 1.969 . S
Zn21 O34 1.969 . S
Zn21 O35 1.965 . S
Zn21 O37 2.024 . S
C22 O23 1.229 . S
C22 O31 1.058 . S
O23 C22 1.229 . S
C24 O25 1.229 . S
C24 O37 1.058 . S
O25 C24 1.229 . S
O26 Zn20 1.969 . S
O26 C29 1.267 . S
O27 Zn20 1.965 . S
O27 C38 1.260 . S
O28 Zn21 1.969 . S
O28 C38 1.258 . S
C29 O26 1.267 . S
C29 O30 1.228 . S
O30 C29 1.228 . S
O31 Zn20 2.024 . S
O31 C22 1.058 . S
C32 O33 1.228 . S
C32 O34 1.267 . S
O33 C32 1.228 . S
O34 Zn21 1.969 . S
O34 C32 1.267 . S
O35 Zn21 1.965 . S
O35 C39 1.260 . S
O36 Zn20 1.969 . S
O36 C39 1.258 . S
O37 Zn21 2.024 . S
O37 C24 1.058 . S
C38 O27 1.260 . S
C38 O28 1.258 . S
C39 O35 1.260 . S
C39 O36 1.258 . S
Zn40 O46 1.969 . S
Zn40 O47 1.965 . S
Zn40 O51 2.024 1_655 S
Zn40 O56 1.969 1_655 S
Zn41 O48 1.969 . S
Zn41 O54 1.969 . S
Zn41 O55 1.965 . S
Zn41 O57 2.024 1_455 S
C42 O43 1.229 . S
C42 O51 1.058 . S
O43 C42 1.229 . S
C44 O45 1.229 . S
C44 O57 1.058 . S
O45 C44 1.229 . S
O46 Zn40 1.969 . S
O46 C49 1.267 . S
O47 Zn40 1.965 . S
O47 C58 1.260 . S
O48 Zn41 1.969 . S
O48 C58 1.258 1_455 S
C49 O46 1.267 . S
C49 O50 1.228 . S
O50 C49 1.228 . S
O51 Zn40 2.024 1_455 S
O51 C42 1.058 . S
C52 O53 1.228 . S
C52 O54 1.267 . S
O53 C52 1.228 . S
O54 Zn41 1.969 . S
O54 C52 1.267 . S
O55 Zn41 1.965 . S
O55 C59 1.260 . S
O56 Zn40 1.969 1_455 S
O56 C59 1.258 . S
O57 Zn41 2.024 1_655 S
O57 C44 1.058 . S
C58 O47 1.260 . S
C58 O48 1.258 1_655 S
C59 O55 1.260 . S
C59 O56 1.258 . S
Zn60 O66 1.969 . S
Zn60 O67 1.965 . S
Zn60 O71 2.024 1_545 S
Zn60 O76 1.969 . S
Zn61 O68 1.969 . S
Zn61 O74 1.969 1_545 S
Zn61 O75 1.965 . S
Zn61 O77 2.024 . S
C62 O63 1.229 . S
C62 O71 1.058 . S
O63 C62 1.229 . S
C64 O65 1.229 . S
C64 O77 1.058 . S
O65 C64 1.229 . S
O66 Zn60 1.969 . S
O66 C69 1.267 . S
O67 Zn60 1.965 . S
O67 C78 1.260 . S
O68 Zn61 1.969 . S
O68 C78 1.258 1_556 S
C69 O66 1.267 . S
C69 O70 1.228 . S
O70 C69 1.228 . S
O71 Zn60 2.024 1_565 S
O71 C62 1.058 . S
C72 O73 1.228 . S
C72 O74 1.267 . S
O73 C72 1.228 . S
O74 Zn61 1.969 1_565 S
O74 C72 1.267 . S
O75 Zn61 1.965 . S
O75 C79 1.260 1_556 S
O76 Zn60 1.969 . S
O76 C79 1.258 . S
O77 Zn61 2.024 . S
O77 C64 1.058 . S
C78 O67 1.260 . S
C78 O68 1.258 1_554 S
C79 O75 1.260 1_554 S
C79 O76 1.258 . S
Zn80 O86 1.969 . S
Zn80 O87 1.965 . S
Zn80 O91 2.024 . S
Zn80 O96 1.969 . S
Zn81 O88 1.969 . S
Zn81 O94 1.969 . S
Zn81 O95 1.965 . S
Zn81 O97 2.024 . S
C82 O83 1.229 . S
C82 O91 1.058 . S
O83 C82 1.229 . S
C84 O85 1.229 . S
C84 O97 1.058 . S
O85 C84 1.229 . S
O86 Zn80 1.969 . S
O86 C89 1.267 . S
O87 Zn80 1.965 . S
O87 C98 1.260 . S
O88 Zn81 1.969 . S
O88 C98 1.258 . S
C89 O86 1.267 . S
C89 O90 1.228 . S
O90 C89 1.228 . S
O91 Zn80 2.024 . S
O91 C82 1.058 . S
C92 O93 1.228 . S
C92 O94 1.267 . S
O93 C92 1.228 . S
O94 Zn81 1.969 . S
O94 C92 1.267 . S
O95 Zn81 1.965 . S
O95 C99 1.260 . S
O96 Zn80 1.969 . S
O96 C99 1.258 . S
O97 Zn81 2.024 . S
O97 C84 1.058 . S
C98 O87 1.260 . S
C98 O88 1.258 . S
C99 O95 1.260 . S
C99 O96 1.258 . S
Zn100 O106 1.969 . S
Zn100 O107 1.965 . S
Zn100 O111 2.024 1_655 S
Zn100 O116 1.969 1_655 S
Zn101 O108 1.969 . S
Zn101 O114 1.969 . S
Zn101 O115 1.965 . S
Zn101 O117 2.024 1_455 S
C102 O103 1.229 . S
C102 O111 1.058 . S
O103 C102 1.229 . S
C104 O105 1.229 . S
C104 O117 1.058 . S
O105 C104 1.229 . S
O106 Zn100 1.969 . S
O106 C109 1.267 . S
O107 Zn100 1.965 . S
O107 C118 1.260 . S
O108 Zn101 1.969 . S
O108 C118 1.258 1_455 S
C109 O106 1.267 . S
C109 O110 1.228 . S
O110 C109 1.228 . S
O111 Zn100 2.024 1_455 S
O111 C102 1.058 . S
C112 O113 1.228 . S
C112 O114 1.267 . S
O113 C112 1.228 . S
O114 Zn101 1.969 . S
O114 C112 1.267 . S
O115 Zn101 1.965 . S
O115 C119 1.260 . S
O116 Zn100 1.969 1_455 S
O116 C119 1.258 . S
O117 Zn101 2.024 1_655 S
O117 C104 1.058 . S
C118 O107 1.260 . S
C118 O108 1.258 1_655 S
C119 O115 1.260 . S
C119 O116 1.258 . S
H120 C121 0.951 1_556 S
C121 H120 0.951 1_554 S
C121 C127 1.265 . S
H122 C127 0.950 . S
H123 C131 0.949 . S
H124 C132 0.950 . S
H125 C133 0.951 . S
H126 C134 0.951 . S
C127 C121 1.265 . S
C127 H122 0.950 . S
C127 C128 1.478 1_655 S
C128 C127 1.478 1_455 S
C128 C129 1.397 1_545 S
C128 C145 1.394 . S
C129 C128 1.397 1_565 S
C129 C130 1.438 . S
C129 C134 1.429 1_455 S
C130 C129 1.438 . S
C130 C131 1.428 . S
C130 C143 1.404 1_565 S
C131 H123 0.949 . S
C131 C130 1.428 . S
C131 C132 1.345 . S
C132 H124 0.950 . S
C132 C131 1.345 . S
C132 C133 1.424 1_455 S
C133 H125 0.951 . S
C133 C132 1.424 1_655 S
C133 C134 1.347 . S
C134 H126 0.951 . S
C134 C129 1.429 1_655 S
C134 C133 1.347 . S
H135 C136 0.951 . S
C136 H135 0.951 . S
C136 C142 1.265 1_554 S
H137 C142 0.950 . S
H138 C146 0.949 1_554 S
H139 C147 0.950 . S
H140 C148 0.951 . S
H141 C149 0.951 . S
C142 C136 1.265 1_556 S
C142 H137 0.950 . S
C142 C143 1.472 1_556 S
C143 C130 1.404 1_545 S
C143 C142 1.472 1_554 S
C143 C144 1.393 1_554 S
C144 C143 1.393 1_556 S
C144 C145 1.438 1_556 S
C144 C149 1.429 . S
C145 C128 1.394 . S
C145 C144 1.438 1_554 S
C145 C146 1.428 1_554 S
C146 H138 0.949 1_556 S
C146 C145 1.428 1_556 S
C146 C147 1.345 . S
C147 H139 0.950 . S
C147 C146 1.345 . S
C147 C148 1.424 . S
C148 H140 0.951 . S
C148 C147 1.424 . S
C148 C149 1.347 . S
C149 H141 0.951 . S
C149 C144 1.429 . S
C149 C148 1.347 . S
H150 C151 0.951 . S
C151 H150 0.951 . S
C151 C157 1.265 . S
H152 C157 0.950 . S
H153 C161 0.949 . S
H154 C162 0.950 . S
H155 C163 0.951 1_655 S
H156 C164 0.951 . S
C157 C151 1.265 . S
C157 H152 0.950 . S
C157 C158 1.491 . S
C158 C157 1.491 . S
C158 C159 1.396 1_655 S
C158 C175 1.383 1_655 S
C159 C158 1.396 1_455 S
C159 C160 1.438 1_565 S
C159 C164 1.429 1_455 S
C160 C159 1.438 1_545 S
C160 C161 1.428 . S
C160 C173 1.394 . S
C161 H153 0.949 . S
C161 C160 1.428 . S
C161 C162 1.345 . S
C162 H154 0.950 . S
C162 C161 1.345 . S
C162 C163 1.424 1_545 S
C163 H155 0.951 1_455 S
C163 C162 1.424 1_565 S
C163 C164 1.347 1_455 S
C164 H156 0.951 . S
C164 C159 1.429 1_655 S
C164 C163 1.347 1_655 S
H165 C166 0.951 . S
C166 H165 0.951 . S
C166 C172 1.265 . S
H167 C172 0.950 . S
H168 C176 0.949 1_655 S
H169 C177 0.950 . S
H170 C178 0.951 . S
H171 C179 0.951 . S
C172 C166 1.265 . S
C172 H167 0.950 . S
C172 C173 1.478 . S
C173 C160 1.394 . S
C173 C172 1.478 . S
C173 C174 1.397 1_545 S
C174 C173 1.397 1_565 S
C174 C175 1.438 . S
C174 C179 1.429 1_565 S
C175 C158 1.383 1_455 S
C175 C174 1.438 . S
C175 C176 1.428 . S
C176 H168 0.949 1_455 S
C176 C175 1.428 . S
C176 C177 1.345 . S
C177 H169 0.950 . S
C177 C176 1.345 . S
C177 C178 1.424 . S
C178 H170 0.951 . S
C178 C177 1.424 . S
C178 C179 1.347 1_565 S
C179 H171 0.951 . S
C179 C174 1.429 1_545 S
C179 C178 1.347 1_545 S
H180 C181 0.951 . S
C181 H180 0.951 . S
C181 C187 1.265 1_455 S
H182 C187 0.950 . S
H183 C191 0.949 . S
H184 C192 0.950 . S
H185 C193 0.951 . S
H186 C194 0.951 . S
C187 C181 1.265 1_655 S
C187 H182 0.950 . S
C187 C188 1.478 . S
C188 C187 1.478 . S
C188 C189 1.397 . S
C188 C205 1.394 1_655 S
C189 C188 1.397 . S
C189 C190 1.438 1_565 S
C189 C194 1.429 . S
C190 C189 1.438 1_545 S
C190 C191 1.428 . S
C190 C203 1.394 1_655 S
C191 H183 0.949 . S
C191 C190 1.428 . S
C191 C192 1.345 . S
C192 H184 0.950 . S
C192 C191 1.345 . S
C192 C193 1.424 1_545 S
C193 H185 0.951 . S
C193 C192 1.424 1_565 S
C193 C194 1.347 . S
C194 H186 0.951 . S
C194 C189 1.429 . S
C194 C193 1.347 . S
H195 C196 0.951 . S
C196 H195 0.951 . S
C196 C202 1.265 1_655 S
H197 C202 0.950 . S
H198 C206 0.949 . S
H199 C207 0.950 . S
H200 C208 0.951 . S
H201 C209 0.951 . S
C202 C196 1.265 1_455 S
C202 H197 0.950 . S
C202 C203 1.478 . S
C203 C190 1.394 1_455 S
C203 C202 1.478 . S
C203 C204 1.397 . S
C204 C203 1.397 . S
C204 C205 1.438 1_545 S
C204 C209 1.429 . S
C205 C188 1.394 1_455 S
C205 C204 1.438 1_565 S
C205 C206 1.428 . S
C206 H198 0.949 . S
C206 C205 1.428 . S
C206 C207 1.345 . S
C207 H199 0.950 . S
C207 C206 1.345 . S
C207 C208 1.424 1_565 S
C208 H200 0.951 . S
C208 C207 1.424 1_545 S
C208 C209 1.347 . S
C209 H201 0.951 . S
C209 C204 1.429 . S
C209 C208 1.347 . S
H210 C211 0.951 . S
C211 H210 0.951 . S
C211 C217 1.265 . S
H212 C217 0.950 . S
H213 C221 0.949 . S
H214 C222 0.950 . S
H215 C223 0.951 . S
H216 C224 0.951 . S
C217 C211 1.265 . S
C217 H212 0.950 . S
C217 C218 1.478 . S
C218 C217 1.478 . S
C218 C219 1.397 . S
C218 C235 1.394 . S
C219 C218 1.397 . S
C219 C220 1.438 . S
C219 C224 1.429 . S
C220 C219 1.438 . S
C220 C221 1.428 . S
C220 C233 1.394 . S
C221 H213 0.949 . S
C221 C220 1.428 . S
C221 C222 1.345 . S
C222 H214 0.950 . S
C222 C221 1.345 . S
C222 C223 1.424 . S
C223 H215 0.951 . S
C223 C222 1.424 . S
C223 C224 1.347 . S
C224 H216 0.951 . S
C224 C219 1.429 . S
C224 C223 1.347 . S
H225 C226 0.951 . S
C226 H225 0.951 . S
C226 C232 1.265 . S
H227 C232 0.950 . S
H228 C236 0.949 . S
H229 C237 0.950 . S
H230 C238 0.951 . S
H231 C239 0.951 . S
C232 C226 1.265 . S
C232 H227 0.950 . S
C232 C233 1.478 . S
C233 C220 1.394 . S
C233 C232 1.478 . S
C233 C234 1.397 . S
C234 C233 1.397 . S
C234 C235 1.438 . S
C234 C239 1.429 . S
C235 C218 1.394 . S
C235 C234 1.438 . S
C235 C236 1.428 . S
C236 H228 0.949 . S
C236 C235 1.428 . S
C236 C237 1.345 . S
C237 H229 0.950 . S
C237 C236 1.345 . S
C237 C238 1.424 . S
C238 H230 0.951 . S
C238 C237 1.424 . S
C238 C239 1.347 . S
C239 H231 0.951 . S
C239 C234 1.429 . S
C239 C238 1.347 . S
H240 C241 0.951 . S
C241 H240 0.951 . S
C241 C247 1.265 . S
H242 C247 0.950 . S
H243 C251 0.949 . S
H244 C252 0.950 . S
H245 C253 0.951 . S
H246 C254 0.951 . S
C247 C241 1.265 . S
C247 H242 0.950 . S
C247 C248 1.478 . S
C248 C247 1.478 . S
C248 C249 1.397 . S
C248 C265 1.394 . S
C249 C248 1.397 . S
C249 C250 1.438 . S
C249 C254 1.429 . S
C250 C249 1.438 . S
C250 C251 1.428 . S
C250 C263 1.394 . S
C251 H243 0.949 . S
C251 C250 1.428 . S
C251 C252 1.345 . S
C252 H244 0.950 . S
C252 C251 1.345 . S
C252 C253 1.424 . S
C253 H245 0.951 . S
C253 C252 1.424 . S
C253 C254 1.347 . S
C254 H246 0.951 . S
C254 C249 1.429 . S
C254 C253 1.347 . S
H255 C256 0.951 . S
C256 H255 0.951 . S
C256 C262 1.265 1_655 S
H257 C262 0.950 . S
H258 C266 0.949 . S
H259 C267 0.950 . S
H260 C268 0.951 1_655 S
H261 C269 0.951 1_655 S
C262 C256 1.265 1_455 S
C262 H257 0.950 . S
C262 C263 1.478 . S
C263 C250 1.394 . S
C263 C262 1.478 . S
C263 C264 1.397 . S
C264 C263 1.397 . S
C264 C265 1.438 . S
C264 C269 1.429 . S
C265 C248 1.394 . S
C265 C264 1.438 . S
C265 C266 1.428 . S
C266 H258 0.949 . S
C266 C265 1.428 . S
C266 C267 1.345 . S
C267 H259 0.950 . S
C267 C266 1.345 . S
C267 C268 1.424 . S
C268 H260 0.951 1_455 S
C268 C267 1.424 . S
C268 C269 1.347 . S
C269 H261 0.951 1_455 S
C269 C264 1.429 . S
C269 C268 1.347 . S
H270 C271 0.951 . S
C271 H270 0.951 . S
C271 C277 1.265 . S
H272 C277 0.950 . S
H273 C281 0.952 . S
H274 C282 0.950 . S
H275 C283 0.951 . S
H276 C284 0.951 . S
C277 C271 1.265 . S
C277 H272 0.950 . S
C277 C278 1.478 . S
C278 C277 1.478 . S
C278 C279 1.397 . S
C278 C295 1.394 1_545 S
C279 C278 1.397 . S
C279 C280 1.438 1_545 S
C279 C284 1.429 . S
C280 C279 1.438 1_565 S
C280 C281 1.429 . S
C280 C293 1.394 . S
C281 H273 0.952 . S
C281 C280 1.429 . S
C281 C282 1.341 1_565 S
C282 H274 0.950 . S
C282 C281 1.341 1_545 S
C282 C283 1.424 . S
C283 H275 0.951 . S
C283 C282 1.424 . S
C283 C284 1.347 . S
C284 H276 0.951 . S
C284 C279 1.429 . S
C284 C283 1.347 . S
H285 C286 0.951 . S
C286 H285 0.951 . S
C286 C292 1.265 . S
H287 C292 0.950 . S
H288 C296 0.949 . S
H289 C297 0.950 . S
H290 C298 0.951 . S
H291 C299 0.951 . S
C292 C286 1.265 . S
C292 H287 0.950 . S
C292 C293 1.478 . S
C293 C280 1.394 . S
C293 C292 1.478 . S
C293 C294 1.397 . S
C294 C293 1.397 . S
C294 C295 1.438 . S
C294 C299 1.429 . S
C295 C278 1.394 1_565 S
C295 C294 1.438 . S
C295 C296 1.428 . S
C296 H288 0.949 . S
C296 C295 1.428 . S
C296 C297 1.345 . S
C297 H289 0.950 . S
C297 C296 1.345 . S
C297 C298 1.424 . S
C298 H290 0.951 . S
C298 C297 1.424 . S
C298 C299 1.347 . S
C299 H291 0.951 . S
C299 C294 1.429 . S
C299 C298 1.347 . S
H300 C301 0.951 . S
C301 H300 0.951 . S
C301 C307 1.265 . S
H302 C307 0.950 . S
H303 C311 0.949 . S
H304 C312 0.950 . S
H305 C313 0.951 1_545 S
H306 C314 0.951 . S
C307 C301 1.265 . S
C307 H302 0.950 . S
C307 C308 1.478 . S
C308 C307 1.478 . S
C308 C309 1.397 . S
C308 C325 1.394 . S
C309 C308 1.397 . S
C309 C310 1.438 . S
C309 C314 1.429 . S
C310 C309 1.438 . S
C310 C311 1.428 . S
C310 C323 1.394 . S
C311 H303 0.949 . S
C311 C310 1.428 . S
C311 C312 1.345 . S
C312 H304 0.950 . S
C312 C311 1.345 . S
C312 C313 1.424 . S
C313 H305 0.951 1_565 S
C313 C312 1.424 . S
C313 C314 1.347 . S
C314 H306 0.951 . S
C314 C309 1.429 . S
C314 C313 1.347 . S
H315 C316 0.951 . S
C316 H315 0.951 . S
C316 C322 1.265 . S
H317 C322 0.950 . S
H318 C326 0.949 . S
H319 C327 0.950 . S
H320 C328 0.951 . S
H321 C329 0.951 . S
C322 C316 1.265 . S
C322 H317 0.950 . S
C322 C323 1.478 . S
C323 C310 1.394 . S
C323 C322 1.478 . S
C323 C324 1.397 . S
C324 C323 1.397 . S
C324 C325 1.438 . S
C324 C329 1.429 . S
C325 C308 1.394 . S
C325 C324 1.438 . S
C325 C326 1.428 . S
C326 H318 0.949 . S
C326 C325 1.428 . S
C326 C327 1.345 . S
C327 H319 0.950 . S
C327 C326 1.345 . S
C327 C328 1.424 . S
C328 H320 0.951 . S
C328 C327 1.424 . S
C328 C329 1.347 . S
C329 H321 0.951 . S
C329 C324 1.429 . S
C329 C328 1.347 . S
H330 C331 0.951 . S
C331 H330 0.951 . S
C331 C337 1.265 1_655 S
H332 C337 0.950 . S
H333 C341 0.949 . S
H334 C342 0.950 . S
H335 C343 0.951 . S
H336 C344 0.951 . S
C337 C331 1.265 1_455 S
C337 H332 0.950 . S
C337 C338 1.478 . S
C338 C337 1.478 . S
C338 C339 1.397 . S
C338 C355 1.394 . S
C339 C338 1.397 . S
C339 C340 1.438 . S
C339 C344 1.429 . S
C340 C339 1.438 . S
C340 C341 1.428 . S
C340 C353 1.394 . S
C341 H333 0.949 . S
C341 C340 1.428 . S
C341 C342 1.345 . S
C342 H334 0.950 . S
C342 C341 1.345 . S
C342 C343 1.424 . S
C343 H335 0.951 . S
C343 C342 1.424 . S
C343 C344 1.347 . S
C344 H336 0.951 . S
C344 C339 1.429 . S
C344 C343 1.347 . S
H345 C346 0.951 . S
C346 H345 0.951 . S
C346 C352 1.265 . S
H347 C352 0.950 . S
H348 C356 0.949 . S
H349 C357 0.950 . S
H350 C358 0.951 1_545 S
H351 C359 0.951 . S
C352 C346 1.265 . S
C352 H347 0.950 . S
C352 C353 1.478 . S
C353 C340 1.394 . S
C353 C352 1.478 . S
C353 C354 1.397 . S
C354 C353 1.397 . S
C354 C355 1.438 . S
C354 C359 1.429 . S
C355 C338 1.394 . S
C355 C354 1.438 . S
C355 C356 1.428 . S
C356 H348 0.949 . S
C356 C355 1.428 . S
C356 C357 1.345 . S
C357 H349 0.950 . S
C357 C356 1.345 . S
C357 C358 1.424 . S
C358 H350 0.951 1_565 S
C358 C357 1.424 . S
C358 C359 1.347 . S
C359 H351 0.951 . S
C359 C354 1.429 . S
C359 C358 1.347 . S
H360 C361 0.951 . S
C361 H360 0.951 . S
C361 C367 1.265 . S
H362 C367 0.950 . S
H363 C371 0.949 . S
H364 C372 0.950 . S
H365 C373 0.951 . S
H366 C374 0.951 . S
C367 C361 1.265 . S
C367 H362 0.950 . S
C367 C368 1.478 . S
C368 C367 1.478 . S
C368 C369 1.397 . S
C368 C385 1.394 . S
C369 C368 1.397 . S
C369 C370 1.438 . S
C369 C374 1.429 . S
C370 C369 1.438 . S
C370 C371 1.428 . S
C370 C383 1.394 . S
C371 H363 0.949 . S
C371 C370 1.428 . S
C371 C372 1.345 . S
C372 H364 0.950 . S
C372 C371 1.345 . S
C372 C373 1.424 . S
C373 H365 0.951 . S
C373 C372 1.424 . S
C373 C374 1.347 . S
C374 H366 0.951 . S
C374 C369 1.429 . S
C374 C373 1.347 . S
H375 C376 0.951 . S
C376 H375 0.951 . S
C376 C382 1.265 . S
H377 C382 0.950 . S
H378 C386 0.949 . S
H379 C387 0.950 . S
H380 C388 0.951 . S
H381 C389 0.951 . S
C382 C376 1.265 . S
C382 H377 0.950 . S
C382 C383 1.478 1_545 S
C383 C370 1.394 . S
C383 C382 1.478 1_565 S
C383 C384 1.397 1_565 S
C384 C383 1.397 1_545 S
C384 C385 1.438 1_545 S
C384 C389 1.429 . S
C385 C368 1.394 . S
C385 C384 1.438 1_565 S
C385 C386 1.428 . S
C386 H378 0.949 . S
C386 C385 1.428 . S
C386 C387 1.345 1_565 S
C387 H379 0.950 . S
C387 C386 1.345 1_545 S
C387 C388 1.424 . S
C388 H380 0.951 . S
C388 C387 1.424 . S
C388 C389 1.347 . S
C389 H381 0.951 . S
C389 C384 1.429 . S
C389 C388 1.347 . S
H390 C391 0.951 1_565 S
C391 H390 0.951 1_545 S
C391 C397 1.265 . S
H392 C397 0.950 1_556 S
H393 C401 0.949 . S
H394 C402 0.950 . S
H395 C403 0.951 . S
H396 C404 0.951 . S
C397 C391 1.265 . S
C397 H392 0.950 1_554 S
C397 C398 1.478 . S
C398 C397 1.478 . S
C398 C399 1.397 . S
C398 C415 1.394 1_544 S
C399 C398 1.397 . S
C399 C400 1.438 . S
C399 C404 1.429 . S
C400 C399 1.438 . S
C400 C401 1.428 . S
C400 C413 1.394 . S
C401 H393 0.949 . S
C401 C400 1.428 . S
C401 C402 1.345 . S
C402 H394 0.950 . S
C402 C401 1.345 . S
C402 C403 1.424 . S
C403 H395 0.951 . S
C403 C402 1.424 . S
C403 C404 1.347 . S
C404 H396 0.951 . S
C404 C399 1.429 . S
C404 C403 1.347 . S
H405 C406 0.951 1_556 S
C406 H405 0.951 1_554 S
C406 C412 1.265 . S
H407 C412 0.950 1_565 S
H408 C416 0.949 . S
H409 C417 0.950 . S
H410 C418 0.951 . S
H411 C419 0.951 . S
C412 C406 1.265 . S
C412 H407 0.950 1_545 S
C412 C413 1.478 . S
C413 C400 1.394 . S
C413 C412 1.478 . S
C413 C414 1.401 1_545 S
C414 C413 1.401 1_565 S
C414 C415 1.437 1_554 S
C414 C419 1.426 1_554 S
C415 C398 1.394 1_566 S
C415 C414 1.437 1_556 S
C415 C416 1.428 . S
C416 H408 0.949 . S
C416 C415 1.428 . S
C416 C417 1.345 . S
C417 H409 0.950 . S
C417 C416 1.345 . S
C417 C418 1.424 . S
C418 H410 0.951 . S
C418 C417 1.424 . S
C418 C419 1.347 . S
C419 H411 0.951 . S
C419 C414 1.426 1_556 S
C419 C418 1.347 . S
H420 C421 0.951 . S
C421 H420 0.951 . S
C421 C427 1.265 . S
H422 C427 0.950 . S
H423 C431 0.949 . S
H424 C432 0.950 . S
H425 C433 0.951 . S
H426 C434 0.951 . S
C427 C421 1.265 . S
C427 H422 0.950 . S
C427 C428 1.478 . S
C428 C427 1.478 . S
C428 C429 1.397 . S
C428 C445 1.394 . S
C429 C428 1.397 . S
C429 C430 1.438 . S
C429 C434 1.429 . S
C430 C429 1.438 . S
C430 C431 1.428 . S
C430 C443 1.394 . S
C431 H423 0.949 . S
C431 C430 1.428 . S
C431 C432 1.345 . S
C432 H424 0.950 . S
C432 C431 1.345 . S
C432 C433 1.424 . S
C433 H425 0.951 . S
C433 C432 1.424 . S
C433 C434 1.347 . S
C434 H426 0.951 . S
C434 C429 1.429 . S
C434 C433 1.347 . S
H435 C436 0.951 . S
C436 H435 0.951 . S
C436 C442 1.265 . S
H437 C442 0.950 . S
H438 C446 0.949 . S
H439 C447 0.950 . S
H440 C448 0.951 . S
H441 C449 0.951 . S
C442 C436 1.265 . S
C442 H437 0.950 . S
C442 C443 1.478 . S
C443 C430 1.394 . S
C443 C442 1.478 . S
C443 C444 1.397 . S
C444 C443 1.397 . S
C444 C445 1.438 . S
C444 C449 1.429 . S
C445 C428 1.394 . S
C445 C444 1.438 . S
C445 C446 1.428 . S
C446 H438 0.949 . S
C446 C445 1.428 . S
C446 C447 1.345 . S
C447 H439 0.950 . S
C447 C446 1.345 . S
C447 C448 1.424 . S
C448 H440 0.951 . S
C448 C447 1.424 . S
C448 C449 1.347 . S
C449 H441 0.951 . S
C449 C444 1.429 . S
C449 C448 1.347 . S
H450 C451 0.951 . S
C451 H450 0.951 . S
C451 C457 1.265 1_455 S
H452 C457 0.950 . S
H453 C461 0.949 . S
H454 C462 0.950 . S
H455 C463 0.951 . S
H456 C464 0.951 . S
C457 C451 1.265 1_655 S
C457 H452 0.950 . S
C457 C458 1.483 1_655 S
C458 C457 1.483 1_455 S
C458 C459 1.387 1_455 S
C458 C475 1.399 . S
C459 C458 1.387 1_655 S
C459 C460 1.438 . S
C459 C464 1.429 . S
C460 C459 1.438 . S
C460 C461 1.428 . S
C460 C473 1.394 1_655 S
C461 H453 0.949 . S
C461 C460 1.428 . S
C461 C462 1.345 . S
C462 H454 0.950 . S
C462 C461 1.345 . S
C462 C463 1.424 . S
C463 H455 0.951 . S
C463 C462 1.424 . S
C463 C464 1.347 . S
C464 H456 0.951 . S
C464 C459 1.429 . S
C464 C463 1.347 . S
H465 C466 0.951 1_655 S
C466 H465 0.951 1_455 S
C466 C472 1.265 . S
H467 C472 0.950 . S
H468 C476 0.949 . S
H469 C477 0.950 . S
H470 C478 0.951 . S
H471 C479 0.951 . S
C472 C466 1.265 . S
C472 H467 0.950 . S
C472 C473 1.478 . S
C473 C460 1.394 1_455 S
C473 C472 1.478 . S
C473 C474 1.397 . S
C474 C473 1.397 . S
C474 C475 1.438 . S
C474 C479 1.429 . S
C475 C458 1.399 . S
C475 C474 1.438 . S
C475 C476 1.428 . S
C476 H468 0.949 . S
C476 C475 1.428 . S
C476 C477 1.345 . S
C477 H469 0.950 . S
C477 C476 1.345 . S
C477 C478 1.424 . S
C478 H470 0.951 . S
C478 C477 1.424 . S
C478 C479 1.347 . S
C479 H471 0.951 . S
C479 C474 1.429 . S
C479 C478 1.347 . S
H480 C481 0.951 . S
C481 H480 0.951 . S
C481 C487 1.265 . S
H482 C487 0.950 . S
H483 C491 0.949 . S
H484 C492 0.950 . S
H485 C493 0.951 . S
H486 C494 0.951 . S
C487 C481 1.265 . S
C487 H482 0.950 . S
C487 C488 1.478 . S
C488 C487 1.478 . S
C488 C489 1.397 . S
C488 C505 1.394 . S
C489 C488 1.397 . S
C489 C490 1.438 . S
C489 C494 1.429 . S
C490 C489 1.438 . S
C490 C491 1.428 . S
C490 C503 1.394 . S
C491 H483 0.949 . S
C491 C490 1.428 . S
C491 C492 1.345 1_545 S
C492 H484 0.950 . S
C492 C491 1.345 1_565 S
C492 C493 1.424 . S
C493 H485 0.951 . S
C493 C492 1.424 . S
C493 C494 1.347 1_565 S
C494 H486 0.951 . S
C494 C489 1.429 . S
C494 C493 1.347 1_545 S
H495 C496 0.951 . S
C496 H495 0.951 . S
C496 C502 1.265 . S
H497 C502 0.950 . S
H498 C506 0.949 . S
H499 C507 0.950 . S
H500 C508 0.951 . S
H501 C509 0.951 . S
C502 C496 1.265 . S
C502 H497 0.950 . S
C502 C503 1.478 . S
C503 C490 1.394 . S
C503 C502 1.478 . S
C503 C504 1.397 . S
C504 C503 1.397 . S
C504 C505 1.438 . S
C504 C509 1.429 . S
C505 C488 1.394 . S
C505 C504 1.438 . S
C505 C506 1.428 . S
C506 H498 0.949 . S
C506 C505 1.428 . S
C506 C507 1.345 . S
C507 H499 0.950 . S
C507 C506 1.345 . S
C507 C508 1.424 . S
C508 H500 0.951 . S
C508 C507 1.424 . S
C508 C509 1.347 . S
C509 H501 0.951 . S
C509 C504 1.429 . S
C509 C508 1.347 . S
H510 C511 0.951 . S
C511 H510 0.951 . S
C511 C517 1.265 . S
H512 C517 0.950 . S
H513 C521 0.949 . S
H514 C522 0.950 1_655 S
H515 C523 0.951 1_655 S
H516 C524 0.951 . S
C517 C511 1.265 . S
C517 H512 0.950 . S
C517 C518 1.478 . S
C518 C517 1.478 . S
C518 C519 1.397 . S
C518 C535 1.394 . S
C519 C518 1.397 . S
C519 C520 1.438 . S
C519 C524 1.429 . S
C520 C519 1.438 . S
C520 C521 1.428 . S
C520 C533 1.394 . S
C521 H513 0.949 . S
C521 C520 1.428 . S
C521 C522 1.345 . S
C522 H514 0.950 1_455 S
C522 C521 1.345 . S
C522 C523 1.424 . S
C523 H515 0.951 1_455 S
C523 C522 1.424 . S
C523 C524 1.347 . S
C524 H516 0.951 . S
C524 C519 1.429 . S
C524 C523 1.347 . S
H525 C526 0.951 . S
C526 H525 0.951 . S
C526 C532 1.265 . S
H527 C532 0.950 . S
H528 C536 0.949 . S
H529 C537 0.950 . S
H530 C538 0.951 . S
H531 C539 0.951 . S
C532 C526 1.265 . S
C532 H527 0.950 . S
C532 C533 1.478 . S
C533 C520 1.394 . S
C533 C532 1.478 . S
C533 C534 1.397 . S
C534 C533 1.397 . S
C534 C535 1.438 . S
C534 C539 1.429 . S
C535 C518 1.394 . S
C535 C534 1.438 . S
C535 C536 1.428 . S
C536 H528 0.949 . S
C536 C535 1.428 . S
C536 C537 1.345 . S
C537 H529 0.950 . S
C537 C536 1.345 . S
C537 C538 1.424 . S
C538 H530 0.951 . S
C538 C537 1.424 . S
C538 C539 1.347 . S
C539 H531 0.951 . S
C539 C534 1.429 . S
C539 C538 1.347 . S
H540 C541 0.951 . S
C541 H540 0.951 . S
C541 C547 1.265 . S
H542 C547 0.950 . S
H543 C551 0.949 . S
H544 C552 0.950 . S
H545 C553 0.951 . S
H546 C554 0.951 . S
C547 C541 1.265 . S
C547 H542 0.950 . S
C547 C548 1.478 . S
C548 C547 1.478 . S
C548 C549 1.397 . S
C548 C565 1.394 . S
C549 C548 1.397 . S
C549 C550 1.438 . S
C549 C554 1.429 . S
C550 C549 1.438 . S
C550 C551 1.428 . S
C550 C563 1.394 . S
C551 H543 0.949 . S
C551 C550 1.428 . S
C551 C552 1.345 1_545 S
C552 H544 0.950 . S
C552 C551 1.345 1_565 S
C552 C553 1.424 . S
C553 H545 0.951 . S
C553 C552 1.424 . S
C553 C554 1.347 1_565 S
C554 H546 0.951 . S
C554 C549 1.429 . S
C554 C553 1.347 1_545 S
H555 C556 0.951 . S
C556 H555 0.951 . S
C556 C562 1.265 . S
H557 C562 0.950 . S
H558 C566 0.949 . S
H559 C567 0.950 . S
H560 C568 0.951 . S
H561 C569 0.951 1_455 S
C562 C556 1.265 . S
C562 H557 0.950 . S
C562 C563 1.478 . S
C563 C550 1.394 . S
C563 C562 1.478 . S
C563 C564 1.397 . S
C564 C563 1.397 . S
C564 C565 1.438 . S
C564 C569 1.429 . S
C565 C548 1.394 . S
C565 C564 1.438 . S
C565 C566 1.428 . S
C566 H558 0.949 . S
C566 C565 1.428 . S
C566 C567 1.345 1_655 S
C567 H559 0.950 . S
C567 C566 1.345 1_455 S
C567 C568 1.424 . S
C568 H560 0.951 . S
C568 C567 1.424 . S
C568 C569 1.347 1_455 S
C569 H561 0.951 1_655 S
C569 C564 1.429 . S
C569 C568 1.347 1_655 S
H570 C571 0.951 . S
C571 H570 0.951 . S
C571 C577 1.265 . S
H572 C577 0.950 . S
H573 C581 0.949 . S
H574 C582 0.950 . S
H575 C583 0.951 . S
H576 C584 0.951 . S
C577 C571 1.265 . S
C577 H572 0.950 . S
C577 C578 1.478 . S
C578 C577 1.478 . S
C578 C579 1.397 . S
C578 C595 1.394 . S
C579 C578 1.397 . S
C579 C580 1.438 . S
C579 C584 1.429 . S
C580 C579 1.438 . S
C580 C581 1.428 . S
C580 C593 1.394 . S
C581 H573 0.949 . S
C581 C580 1.428 . S
C581 C582 1.345 . S
C582 H574 0.950 . S
C582 C581 1.345 . S
C582 C583 1.424 . S
C583 H575 0.951 . S
C583 C582 1.424 . S
C583 C584 1.347 . S
C584 H576 0.951 . S
C584 C579 1.429 . S
C584 C583 1.347 . S
H585 C586 0.951 . S
C586 H585 0.951 . S
C586 C592 1.265 . S
H587 C592 0.950 . S
H588 C596 0.947 1_545 S
H589 C597 0.950 . S
H590 C598 0.951 . S
H591 C599 0.951 . S
C592 C586 1.265 . S
C592 H587 0.950 . S
C592 C593 1.478 . S
C593 C580 1.394 . S
C593 C592 1.478 . S
C593 C594 1.397 . S
C594 C593 1.397 . S
C594 C595 1.438 . S
C594 C599 1.429 . S
C595 C578 1.394 . S
C595 C594 1.438 . S
C595 C596 1.435 . S
C596 H588 0.947 1_565 S
C596 C595 1.435 . S
C596 C597 1.340 1_565 S
C597 H589 0.950 . S
C597 C596 1.340 1_545 S
C597 C598 1.424 . S
C598 H590 0.951 . S
C598 C597 1.424 . S
C598 C599 1.347 1_545 S
C599 H591 0.951 . S
C599 C594 1.429 . S
C599 C598 1.347 1_565 S
H600 C601 0.951 . S
C601 H600 0.951 . S
C601 C607 1.265 . S
H602 C607 0.950 . S
H603 C611 0.949 . S
H604 C612 0.950 . S
H605 C613 0.951 . S
H606 C614 0.951 . S
C607 C601 1.265 . S
C607 H602 0.950 . S
C607 C608 1.478 . S
C608 C607 1.478 . S
C608 C609 1.397 . S
C608 C625 1.394 . S
C609 C608 1.397 . S
C609 C610 1.438 . S
C609 C614 1.429 . S
C610 C609 1.438 . S
C610 C611 1.428 . S
C610 C623 1.394 . S
C611 H603 0.949 . S
C611 C610 1.428 . S
C611 C612 1.345 . S
C612 H604 0.950 . S
C612 C611 1.345 . S
C612 C613 1.424 . S
C613 H605 0.951 . S
C613 C612 1.424 . S
C613 C614 1.347 . S
C614 H606 0.951 . S
C614 C609 1.429 . S
C614 C613 1.347 . S
H615 C616 0.951 . S
C616 H615 0.951 . S
C616 C622 1.265 . S
H617 C622 0.950 . S
H618 C626 0.949 . S
H619 C627 0.950 . S
H620 C628 0.951 . S
H621 C629 0.951 . S
C622 C616 1.265 . S
C622 H617 0.950 . S
C622 C623 1.478 . S
C623 C610 1.394 . S
C623 C622 1.478 . S
C623 C624 1.397 . S
C624 C623 1.397 . S
C624 C625 1.438 . S
C624 C629 1.429 1_655 S
C625 C608 1.394 . S
C625 C624 1.438 . S
C625 C626 1.428 . S
C626 H618 0.949 . S
C626 C625 1.428 . S
C626 C627 1.345 1_655 S
C627 H619 0.950 . S
C627 C626 1.345 1_455 S
C627 C628 1.424 . S
C628 H620 0.951 . S
C628 C627 1.424 . S
C628 C629 1.347 . S
C629 H621 0.951 . S
C629 C624 1.429 1_455 S
C629 C628 1.347 . S
H630 C631 0.951 . S
C631 H630 0.951 . S
C631 C637 1.265 . S
H632 C637 0.950 . S
H633 C641 0.949 1_545 S
H634 C642 0.950 . S
H635 C643 0.951 . S
H636 C644 0.951 . S
C637 C631 1.265 . S
C637 H632 0.950 . S
C637 C638 1.478 . S
C638 C637 1.478 . S
C638 C639 1.397 . S
C638 C655 1.394 . S
C639 C638 1.397 . S
C639 C640 1.438 . S
C639 C644 1.429 . S
C640 C639 1.438 . S
C640 C641 1.428 . S
C640 C653 1.394 . S
C641 H633 0.949 1_565 S
C641 C640 1.428 . S
C641 C642 1.345 1_565 S
C642 H634 0.950 . S
C642 C641 1.345 1_545 S
C642 C643 1.424 . S
C643 H635 0.951 . S
C643 C642 1.424 . S
C643 C644 1.347 1_545 S
C644 H636 0.951 . S
C644 C639 1.429 . S
C644 C643 1.347 1_565 S
H645 C646 0.951 . S
C646 H645 0.951 . S
C646 C652 1.265 . S
H647 C652 0.950 . S
H648 C656 0.949 . S
H649 C657 0.950 1_655 S
H650 C658 0.951 1_655 S
H651 C659 0.951 . S
C652 C646 1.265 . S
C652 H647 0.950 . S
C652 C653 1.478 . S
C653 C640 1.394 . S
C653 C652 1.478 . S
C653 C654 1.397 . S
C654 C653 1.397 . S
C654 C655 1.438 . S
C654 C659 1.429 . S
C655 C638 1.394 . S
C655 C654 1.438 . S
C655 C656 1.428 . S
C656 H648 0.949 . S
C656 C655 1.428 . S
C656 C657 1.345 . S
C657 H649 0.950 1_455 S
C657 C656 1.345 . S
C657 C658 1.424 . S
C658 H650 0.951 1_455 S
C658 C657 1.424 . S
C658 C659 1.347 . S
C659 H651 0.951 . S
C659 C654 1.429 . S
C659 C658 1.347 . S
C121 C78 0.807 . S
C136 C18 0.808 . S
C151 C98 0.846 . S
C166 C38 0.886 . S
C181 C118 0.884 1_455 S
C196 C58 0.845 . S
C211 C9 1.673 . S
C226 C52 1.644 . S
C241 C32 1.649 . S
C256 C69 1.666 . S
C271 C49 1.547 . S
C286 C92 1.743 . S
C301 C72 1.686 . S
C316 C109 1.623 . S
C331 C89 1.589 . S
C346 C12 1.708 . S
C361 C112 1.646 . S
C376 C29 1.671 . S
C391 C19 0.918 . S
C406 C79 0.945 . S
C421 C39 0.917 . S
C436 C99 0.879 . S
C451 C59 0.884 . S
C466 C119 0.922 . S
C481 C4 1.008 . S
C496 C24 0.864 . S
C511 C22 0.981 . S
C526 C42 0.995 . S
C541 C44 0.850 . S
C556 C64 0.976 . S
C571 C62 1.039 . S
C586 C82 1.132 . S
C601 C84 1.092 . S
C616 C104 1.071 . S
C631 C102 1.001 . S
C646 C2 1.089 . S
