# Generated by pormake.
# Topology unm, (4)-cn, num edge types: 1
# Building blocks:
#     Node 0, Type 0, BuildingBlock: TATPOV_clean_sbu_0, # of connection points: 4
#     Node 1, Type 0, BuildingBlock: TATPOV_clean_sbu_0, # of connection points: 4
#     Node 2, Type 0, BuildingBlock: TATPOV_clean_sbu_0, # of connection points: 4
#     Node 3, Type 0, BuildingBlock: TATPOV_clean_sbu_0, # of connection points: 4
#     Node 4, Type 0, BuildingBlock: TATPOV_clean_sbu_0, # of connection points: 4
#     Node 5, Type 0, BuildingBlock: TATPOV_clean_sbu_0, # of connection points: 4
#     Node 6, Type 0, BuildingBlock: TATPOV_clean_sbu_0, # of connection points: 4
#     Node 7, Type 0, BuildingBlock: TATPOV_clean_sbu_0, # of connection points: 4
#     Edge 8, Type (0, 0), BuildingBlock: KIFKEQ_clean_linker_1, # of connection points: 2
#     Edge 9, Type (0, 0), BuildingBlock: KIFKEQ_clean_linker_1, # of connection points: 2
#     Edge 10, Type (0, 0), BuildingBlock: KIFKEQ_clean_linker_1, # of connection points: 2
#     Edge 11, Type (0, 0), BuildingBlock: KIFKEQ_clean_linker_1, # of connection points: 2
#     Edge 12, Type (0, 0), BuildingBlock: KIFKEQ_clean_linker_1, # of connection points: 2
#     Edge 13, Type (0, 0), BuildingBlock: KIFKEQ_clean_linker_1, # of connection points: 2
#     Edge 14, Type (0, 0), BuildingBlock: KIFKEQ_clean_linker_1, # of connection points: 2
#     Edge 15, Type (0, 0), BuildingBlock: KIFKEQ_clean_linker_1, # of connection points: 2
#     Edge 16, Type (0, 0), BuildingBlock: KIFKEQ_clean_linker_1, # of connection points: 2
#     Edge 17, Type (0, 0), BuildingBlock: KIFKEQ_clean_linker_1, # of connection points: 2
#     Edge 18, Type (0, 0), BuildingBlock: KIFKEQ_clean_linker_1, # of connection points: 2
#     Edge 19, Type (0, 0), BuildingBlock: KIFKEQ_clean_linker_1, # of connection points: 2
#     Edge 20, Type (0, 0), BuildingBlock: KIFKEQ_clean_linker_1, # of connection points: 2
#     Edge 21, Type (0, 0), BuildingBlock: KIFKEQ_clean_linker_1, # of connection points: 2
#     Edge 22, Type (0, 0), BuildingBlock: KIFKEQ_clean_linker_1, # of connection points: 2
#     Edge 23, Type (0, 0), BuildingBlock: KIFKEQ_clean_linker_1, # of connection points: 2
# Relax obj value: 0.131
# Max RMSD: 0.140
# Mean RMSD: 0.140
data_MOF--net-unm--node1-TATPOV_clean_sbu_0--edge1-KIFKEQ_clean_linker_1
_symmetry_space_group_name_H-M    P1
_symmetry_Int_Tables_number       1
_symmetry_cell_setting            triclinic
loop_
_symmetry_equiv_pos_as_xyz
'x, y, z'
_cell_length_a     26.067914
_cell_length_b     26.120473
_cell_length_c     42.844273
_cell_angle_alpha  90.161905
_cell_angle_beta   89.98048
_cell_angle_gamma 90.061841
loop_
_atom_site_label
_atom_site_type_symbol
_atom_site_fract_x
_atom_site_fract_y
_atom_site_fract_z
_atom_type_partial_charge
Zn0 Zn 0.89942 0.22262 0.12957 0.0
Zn1 Zn 0.98165 0.21206 0.16696 0.0
O2 O 0.91836 0.2027 0.19724 0.0
O3 O 0.85285 0.20148 0.1646 0.0
O4 O 0.04734 0.21059 0.19344 0.0
O5 O 0.92865 0.17215 0.09919 0.0
O6 O 0.99484 0.16017 0.13026 0.0
C7 C 0.87012 0.19849 0.19214 0.0
C8 C 0.95717 0.31437 0.13507 0.0
O9 O 0.98542 0.28521 0.15139 0.0
O10 O 0.91577 0.29761 0.12345 0.0
C11 C 0.05171 0.24166 0.21629 0.0
O12 O 0.01204 0.27003 0.22394 0.0
C13 C 0.97112 0.1506 0.10474 0.0
Zn14 Zn 0.26895 0.39797 0.62202 0.0
Zn15 Zn 0.27595 0.47666 0.66225 0.0
O16 O 0.28471 0.41056 0.69005 0.0
O17 O 0.28824 0.34788 0.65552 0.0
O18 O 0.27539 0.53775 0.69243 0.0
O19 O 0.32075 0.43123 0.59424 0.0
O20 O 0.32919 0.49534 0.62737 0.0
C21 C 0.28962 0.36291 0.68361 0.0
C22 C 0.1764 0.45465 0.62633 0.0
O23 O 0.20383 0.48137 0.64473 0.0
O24 O 0.19439 0.41438 0.61401 0.0
C25 C 0.2591 0.58089 0.68264 0.0
O26 O 0.2467 0.58531 0.65305 0.0
C27 C 0.34048 0.47399 0.60134 0.0
Zn28 Zn 0.11194 0.77687 0.1288 0.0
Zn29 Zn 0.03062 0.78691 0.16746 0.0
O30 O 0.09422 0.79767 0.19696 0.0
O31 O 0.15874 0.7991 0.16356 0.0
O32 O 0.9657 0.78828 0.19439 0.0
O33 O 0.08075 0.82695 0.09905 0.0
O34 O 0.01597 0.8385 0.13133 0.0
C35 C 0.14219 0.80248 0.19127 0.0
C36 C 0.05516 0.6846 0.13519 0.0
O37 O 0.02723 0.71364 0.15191 0.0
O38 O 0.09595 0.70164 0.12297 0.0
C39 C 0.96231 0.75932 0.21818 0.0
O40 O 0.00275 0.73279 0.22666 0.0
C41 C 0.03847 0.84827 0.10548 0.0
Zn42 Zn 0.71223 0.60144 0.63002 0.0
Zn43 Zn 0.71631 0.52147 0.67113 0.0
O44 O 0.70827 0.58694 0.69965 0.0
O45 O 0.69774 0.6495 0.66571 0.0
O46 O 0.72255 0.45908 0.69993 0.0
O47 O 0.65548 0.56592 0.60647 0.0
O48 O 0.6613 0.50004 0.63841 0.0
C49 C 0.70086 0.63438 0.69369 0.0
C50 C 0.80821 0.54817 0.62967 0.0
O51 O 0.78503 0.52107 0.6498 0.0
O52 O 0.78643 0.58677 0.61772 0.0
C53 C 0.76568 0.44889 0.71251 0.0
O54 O 0.80378 0.48128 0.70883 0.0
C55 C 0.64206 0.52115 0.61424 0.0
Zn56 Zn 0.39727 0.27938 0.40482 0.0
Zn57 Zn 0.48178 0.28666 0.36966 0.0
O58 O 0.41909 0.29617 0.33862 0.0
O59 O 0.35229 0.30317 0.36996 0.0
O60 O 0.54779 0.28706 0.34349 0.0
O61 O 0.42714 0.32794 0.43626 0.0
O62 O 0.49573 0.33724 0.40676 0.0
C63 C 0.37091 0.30329 0.3427 0.0
C64 C 0.45283 0.18604 0.40088 0.0
O65 O 0.48419 0.21434 0.38617 0.0
O66 O 0.41003 0.20334 0.41 0.0
C67 C 0.55101 0.25859 0.31936 0.0
O68 O 0.51014 0.23308 0.31031 0.0
C69 C 0.47103 0.34739 0.43184 0.0
Zn70 Zn 0.22142 0.89535 0.90155 0.0
Zn71 Zn 0.21012 0.97669 0.86394 0.0
O72 O 0.19928 0.9133 0.83403 0.0
O73 O 0.20128 0.84817 0.86661 0.0
O74 O 0.20767 0.04168 0.83715 0.0
O75 O 0.17084 0.92442 0.93199 0.0
O76 O 0.1594 0.99064 0.90107 0.0
C77 C 0.19676 0.86504 0.83907 0.0
C78 C 0.31337 0.95254 0.89522 0.0
O79 O 0.28416 0.98036 0.87863 0.0
O80 O 0.29633 0.91198 0.90757 0.0
C81 C 0.23299 0.04402 0.81175 0.0
O82 O 0.25658 0.00269 0.80171 0.0
C83 C 0.1498 0.96711 0.92658 0.0
Zn84 Zn 0.61193 0.72557 0.40619 0.0
Zn85 Zn 0.53018 0.71885 0.36833 0.0
O86 O 0.59411 0.70885 0.33877 0.0
O87 O 0.65815 0.70015 0.37197 0.0
O88 O 0.46569 0.71893 0.3412 0.0
O89 O 0.5773 0.67851 0.43677 0.0
O90 O 0.51357 0.66712 0.40375 0.0
C91 C 0.64168 0.7006 0.34419 0.0
C92 C 0.55782 0.81922 0.40086 0.0
O93 O 0.52715 0.79093 0.38552 0.0
O94 O 0.60011 0.80188 0.41072 0.0
C95 C 0.46279 0.7472 0.3171 0.0
O96 O 0.50369 0.77273 0.3082 0.0
C97 C 0.53465 0.65802 0.43007 0.0
Zn98 Zn 0.77701 0.10448 0.90909 0.0
Zn99 Zn 0.79006 0.02486 0.8697 0.0
O100 O 0.80305 0.08895 0.841 0.0
O101 O 0.79979 0.15215 0.87524 0.0
O102 O 0.79288 0.9602 0.84246 0.0
O103 O 0.82655 0.07388 0.93936 0.0
O104 O 0.84027 0.01003 0.90673 0.0
C105 C 0.80609 0.13677 0.84746 0.0
C106 C 0.68542 0.0483 0.90011 0.0
O107 O 0.71548 0.02131 0.88346 0.0
O108 O 0.7018 0.08824 0.91361 0.0
C109 C 0.76444 0.95659 0.81837 0.0
O110 O 0.7377 0.99674 0.80974 0.0
C111 C 0.84886 0.0322 0.93288 0.0
H112 H 0.93642 0.13711 0.04524 0.0
H113 H 0.06024 0.09378 0.10675 0.0
H114 H 0.97793 0.09311 1.0023 0.0
H115 H 0.10194 0.04913 0.06342 0.0
H116 H 0.1388 0.93438 0.98659 0.0
H117 H 0.09615 0.97703 0.02966 0.0
H118 H 0.04905 0.09848 0.96777 0.0
H119 H 0.09244 0.05571 0.92436 0.0
C120 C 0.97237 0.11775 0.04977 0.0
C121 C 0.99488 0.11899 0.07966 0.0
C122 C 0.99646 0.09282 0.0249 0.0
C123 C 0.04337 0.06749 0.02919 0.0
C124 C 0.06546 0.06766 0.05926 0.0
C125 C 0.04163 0.09333 0.08416 0.0
C126 C 0.119 0.96998 0.98194 0.0
C127 C 0.11898 0.99147 0.95181 0.0
C128 C 0.09485 0.99473 1.00686 0.0
C129 C 0.069 0.04123 1.00237 0.0
C130 C 0.06797 0.06231 0.9721 0.0
C131 C 0.09291 0.03786 0.94715 0.0
H132 H 0.39559 0.56404 0.60676 0.0
H133 H 0.35387 0.44578 0.54071 0.0
H134 H 0.44045 0.61002 0.5651 0.0
H135 H 0.39813 0.49123 0.49962 0.0
H136 H 0.4429 0.60646 0.42533 0.0
H137 H 0.39484 0.56515 0.46722 0.0
H138 H 0.51531 0.60382 0.53244 0.0
H139 H 0.5631 0.64477 0.49082 0.0
C140 C 0.39626 0.54767 0.58351 0.0
C141 C 0.3714 0.50099 0.57727 0.0
C142 C 0.42185 0.57403 0.55958 0.0
C143 C 0.42258 0.55457 0.52884 0.0
C144 C 0.39758 0.50801 0.52276 0.0
C145 C 0.37272 0.4815 0.5466 0.0
C146 C 0.45935 0.60561 0.44853 0.0
C147 C 0.5071 0.62861 0.45455 0.0
C148 C 0.43178 0.58198 0.47261 0.0
C149 C 0.4511 0.58109 0.50333 0.0
C150 C 0.49885 0.60414 0.50924 0.0
C151 C 0.52662 0.62717 0.48518 0.0
H152 H 0.94946 0.90457 0.10986 0.0
H153 H 0.06981 0.86231 0.04538 0.0
H154 H 0.90502 0.94928 0.06782 0.0
H155 H 0.02556 0.90643 1.00367 0.0
H156 H 0.90662 0.94416 0.9287 0.0
H157 H 0.95279 0.90125 0.97076 0.0
H158 H 0.90833 0.02157 0.03463 0.0
H159 H 0.86254 0.06416 0.99295 0.0
C160 C 0.96675 0.90531 0.08688 0.0
C161 C 0.0133 0.87993 0.08114 0.0
C162 C 0.94135 0.93103 0.06272 0.0
C163 C 0.96169 0.93157 0.03222 0.0
C164 C 0.00842 0.90651 0.02669 0.0
C165 C 0.03408 0.8815 0.05082 0.0
C166 C 0.90721 0.96167 0.95164 0.0
C167 C 0.88089 0.00766 0.95731 0.0
C168 C 0.93379 0.93717 0.9758 0.0
C169 C 0.93433 0.9579 1.00623 0.0
C170 C 0.90831 0.00407 1.0117 0.0
C171 C 0.88235 0.02878 0.98758 0.0
H172 H 0.42383 0.38606 0.48356 0.0
H173 H 0.57287 0.37245 0.44006 0.0
H174 H 0.46376 0.42262 0.52997 0.0
H175 H 0.61246 0.41047 0.48673 0.0
H176 H 0.65961 0.42423 0.59333 0.0
H177 H 0.61901 0.38211 0.54825 0.0
H178 H 0.51499 0.50894 0.53933 0.0
H179 H 0.55659 0.55233 0.58331 0.0
C180 C 0.46502 0.39163 0.48362 0.0
C181 C 0.49509 0.37653 0.45788 0.0
C182 C 0.48772 0.4127 0.51024 0.0
C183 C 0.54097 0.41945 0.51188 0.0
C184 C 0.57125 0.40522 0.48611 0.0
C185 C 0.5485 0.38416 0.45927 0.0
C186 C 0.62728 0.44258 0.5821 0.0
C187 C 0.61079 0.49127 0.59196 0.0
C188 C 0.60464 0.41885 0.5561 0.0
C189 C 0.56423 0.44285 0.54016 0.0
C190 C 0.54611 0.49011 0.55116 0.0
C191 C 0.56965 0.51457 0.57643 0.0
H192 H 0.06733 0.28482 0.27336 0.0
H193 H 0.1491 0.21725 0.19602 0.0
H194 H 0.14787 0.30308 0.29935 0.0
H195 H 0.2307 0.23791 0.22134 0.0
H196 H 0.36429 0.23549 0.29424 0.0
H197 H 0.28885 0.22025 0.26159 0.0
H198 H 0.21803 0.35635 0.2998 0.0
H199 H 0.29195 0.36905 0.33363 0.0
C200 C 0.10269 0.27409 0.26178 0.0
C201 C 0.1016 0.24952 0.2326 0.0
C202 C 0.14926 0.28521 0.27655 0.0
C203 C 0.19655 0.2731 0.26236 0.0
C204 C 0.19541 0.24772 0.23324 0.0
C205 C 0.14853 0.23583 0.21864 0.0
C206 C 0.33315 0.2629 0.29484 0.0
C207 C 0.33405 0.30357 0.31638 0.0
C208 C 0.28957 0.25407 0.27623 0.0
C209 C 0.24618 0.28617 0.27848 0.0
C210 C 0.24949 0.32947 0.29812 0.0
C211 C 0.29239 0.33752 0.31714 0.0
H212 H 0.22291 0.67651 0.66859 0.0
H213 H 0.2746 0.58453 0.74605 0.0
H214 H 0.20292 0.74651 0.70434 0.0
H215 H 0.25556 0.65492 0.78173 0.0
H216 H 0.16839 0.76493 0.8422 0.0
H217 H 0.18239 0.69812 0.80357 0.0
H218 H 0.24006 0.8108 0.73881 0.0
H219 H 0.22503 0.87826 0.7776 0.0
C220 C 0.23045 0.67129 0.69324 0.0
C221 C 0.25024 0.62462 0.70441 0.0
C222 C 0.21911 0.71165 0.71375 0.0
C223 C 0.22709 0.70643 0.74603 0.0
C224 C 0.24787 0.66008 0.7571 0.0
C225 C 0.25926 0.61975 0.73659 0.0
C226 C 0.18326 0.77573 0.81954 0.0
C227 C 0.19579 0.82705 0.8131 0.0
C228 C 0.19187 0.7372 0.79745 0.0
C229 C 0.21352 0.74868 0.76824 0.0
C230 C 0.22334 0.80044 0.76105 0.0
C231 C 0.21451 0.83924 0.78324 0.0
H232 H 0.6483 0.7638 0.29364 0.0
H233 H 0.7241 0.6378 0.339 0.0
H234 H 0.72426 0.77817 0.26138 0.0
H235 H 0.79867 0.64944 0.3056 0.0
H236 H 0.94751 0.72221 0.27679 0.0
H237 H 0.86717 0.70453 0.30321 0.0
H238 H 0.78347 0.75775 0.22243 0.0
H239 H 0.86466 0.77807 0.19669 0.0
C240 C 0.68047 0.73781 0.29576 0.0
C241 C 0.68031 0.69967 0.31881 0.0
C242 C 0.72431 0.74613 0.27734 0.0
C243 C 0.76869 0.7159 0.28126 0.0
C244 C 0.76636 0.67494 0.30257 0.0
C245 C 0.72316 0.66749 0.3214 0.0
C246 C 0.91197 0.73046 0.26472 0.0
C247 C 0.91263 0.75163 0.23465 0.0
C248 C 0.86556 0.71965 0.27974 0.0
C249 C 0.81813 0.72862 0.26491 0.0
C250 C 0.81886 0.75052 0.23486 0.0
C251 C 0.86551 0.76219 0.22001 0.0
H252 H 0.6978 0.36966 0.72294 0.0
H253 H 0.85399 0.41707 0.74051 0.0
H254 H 0.7136 0.29011 0.75152 0.0
H255 H 0.86981 0.33777 0.76843 0.0
H256 H 0.85082 0.22992 0.85308 0.0
H257 H 0.84322 0.30243 0.81804 0.0
H258 H 0.76238 0.20762 0.75149 0.0
H259 H 0.76987 0.13439 0.78711 0.0
C260 C 0.73548 0.36313 0.73278 0.0
C261 C 0.77439 0.40017 0.7297 0.0
C262 C 0.74471 0.31726 0.74888 0.0
C263 C 0.79299 0.30749 0.76236 0.0
C264 C 0.83201 0.34421 0.75872 0.0
C265 C 0.82286 0.38981 0.74265 0.0
C266 C 0.83246 0.22412 0.83066 0.0
C267 C 0.81108 0.17635 0.82285 0.0
C268 C 0.8281 0.26579 0.81049 0.0
C269 C 0.80183 0.26111 0.78198 0.0
C270 C 0.78235 0.21268 0.77345 0.0
C271 C 0.78728 0.17056 0.79361 0.0
H272 H 0.56551 0.22188 0.26052 0.0
H273 H 0.64903 0.27629 0.34097 0.0
H274 H 0.64557 0.20376 0.23395 0.0
H275 H 0.73001 0.2556 0.31498 0.0
H276 H 0.86494 0.26118 0.2432 0.0
H277 H 0.78944 0.27584 0.27591 0.0
H278 H 0.71339 0.14796 0.2312 0.0
H279 H 0.78749 0.13607 0.19742 0.0
C280 C 0.60113 0.22971 0.27265 0.0
C281 C 0.60071 0.25058 0.30289 0.0
C282 C 0.64739 0.21864 0.25752 0.0
C283 C 0.69496 0.22707 0.27235 0.0
C284 C 0.69451 0.24873 0.30256 0.0
C285 C 0.64798 0.26061 0.31755 0.0
C286 C 0.83253 0.23541 0.24111 0.0
C287 C 0.8321 0.1974 0.21784 0.0
C288 C 0.78894 0.2439 0.25977 0.0
C289 C 0.74422 0.21404 0.25584 0.0
C290 C 0.74598 0.17319 0.23428 0.0
C291 C 0.78892 0.16557 0.21523 0.0
H292 H 0.34724 0.27656 0.68494 0.0
H293 H 0.23136 0.35807 0.73675 0.0
H294 H 0.33585 0.20235 0.71836 0.0
H295 H 0.21712 0.28255 0.76927 0.0
H296 H 0.221 0.14229 0.83404 0.0
H297 H 0.24038 0.22241 0.80708 0.0
H298 H 0.2781 0.13659 0.72372 0.0
H299 H 0.26144 0.05725 0.75117 0.0
C300 C 0.31974 0.27874 0.70387 0.0
C301 C 0.29038 0.32318 0.70829 0.0
C302 C 0.31243 0.23578 0.72278 0.0
C303 C 0.27433 0.23532 0.74614 0.0
C304 C 0.24692 0.28104 0.7517 0.0
C305 C 0.25516 0.3246 0.73312 0.0
C306 C 0.23326 0.14074 0.8099 0.0
C307 C 0.23986 0.09328 0.79482 0.0
C308 C 0.24436 0.18679 0.79435 0.0
C309 C 0.26174 0.18658 0.76316 0.0
C310 C 0.2666 0.13886 0.74796 0.0
C311 C 0.25636 0.09304 0.76362 0.0
H312 H 0.44804 0.78267 0.25809 0.0
H313 H 0.36521 0.73049 0.33921 0.0
H314 H 0.36765 0.8 0.23169 0.0
H315 H 0.28408 0.75055 0.31349 0.0
H316 H 0.14853 0.74183 0.24287 0.0
H317 H 0.22461 0.72869 0.27515 0.0
H318 H 0.29944 0.8551 0.22854 0.0
H319 H 0.22473 0.86534 0.19511 0.0
C320 C 0.4125 0.77521 0.27038 0.0
C321 C 0.41315 0.7551 0.30073 0.0
C322 C 0.36609 0.78581 0.25538 0.0
C323 C 0.31869 0.77771 0.27048 0.0
C324 C 0.31943 0.75703 0.30084 0.0
C325 C 0.36605 0.74553 0.31568 0.0
C326 C 0.18083 0.76761 0.24025 0.0
C327 C 0.18077 0.80465 0.21656 0.0
C328 C 0.22473 0.76001 0.25867 0.0
C329 C 0.26924 0.7899 0.2541 0.0
C330 C 0.26701 0.82987 0.2321 0.0
C331 C 0.22375 0.83655 0.21326 0.0
H332 H 0.64018 0.71822 0.69871 0.0
H333 H 0.76694 0.64188 0.7432 0.0
H334 H 0.65398 0.79322 0.7314 0.0
H335 H 0.78333 0.71827 0.77485 0.0
H336 H 0.78386 0.85919 0.83979 0.0
H337 H 0.76362 0.778 0.814 0.0
H338 H 0.71008 0.8611 0.73318 0.0
H339 H 0.72778 0.94144 0.75958 0.0
C340 C 0.67062 0.71731 0.71592 0.0
C341 C 0.70229 0.67411 0.71849 0.0
C342 C 0.67925 0.76075 0.73436 0.0
C343 C 0.72089 0.76296 0.75531 0.0
C344 C 0.75081 0.7184 0.75915 0.0
C345 C 0.74135 0.67434 0.74109 0.0
C346 C 0.76798 0.85993 0.81643 0.0
C347 C 0.75725 0.90689 0.80181 0.0
C348 C 0.75636 0.81326 0.80156 0.0
C349 C 0.73427 0.81237 0.77151 0.0
C350 C 0.72533 0.85964 0.75665 0.0
C351 C 0.73613 0.90604 0.77167 0.0
H352 H 0.11213 0.60729 0.10959 0.0
H353 H 0.96412 0.64017 0.15065 0.0
H354 H 0.08835 0.51706 0.10508 0.0
H355 H 0.94073 0.55022 0.14618 0.0
H356 H 0.04879 0.35849 0.14977 0.0
H357 H 0.07233 0.44839 0.1454 0.0
H358 H 0.92395 0.48189 0.1056 0.0
H359 H 0.90003 0.39175 0.11003 0.0
C360 C 0.07445 0.59537 0.1174 0.0
C361 C 0.04012 0.6307 0.13066 0.0
C362 C 0.06097 0.54381 0.11489 0.0
C363 C 0.01278 0.52689 0.1253 0.0
C364 C 0.97792 0.56244 0.13767 0.0
C365 C 0.99151 0.61383 0.14044 0.0
C366 C 0.02128 0.3849 0.13986 0.0
C367 C 0.9724 0.36816 0.13045 0.0
C368 C 0.03495 0.43626 0.13714 0.0
C369 C 0.9999 0.4719 0.1252 0.0
C370 C 0.95148 0.45508 0.11509 0.0
C371 C 0.93791 0.40356 0.11755 0.0
H372 H 0.85419 0.45618 0.63752 0.0
H373 H 0.88154 0.60914 0.60292 0.0
H374 H 0.94392 0.43513 0.62949 0.0
H375 H 0.97213 0.58775 0.59485 0.0
H376 H 0.131 0.54506 0.64197 0.0
H377 H 0.04149 0.56886 0.63499 0.0
H378 H 0.01238 0.42481 0.5885 0.0
H379 H 0.10207 0.40059 0.59557 0.0
C380 C 0.87931 0.48511 0.62779 0.0
C381 C 0.86112 0.5345 0.62117 0.0
C382 C 0.93057 0.47286 0.62292 0.0
C383 C 0.9648 0.50985 0.61159 0.0
C384 C 0.94635 0.55868 0.60374 0.0
C385 C 0.89467 0.57083 0.60827 0.0
C386 C 0.10568 0.51863 0.62997 0.0
C387 C 0.12333 0.4706 0.61974 0.0
C388 C 0.0546 0.53255 0.62567 0.0
C389 C 0.02021 0.4986 0.61125 0.0
C390 C 0.03824 0.45149 0.59985 0.0
C391 C 0.08947 0.43767 0.60393 0.0
H392 H 0.39243 0.10246 0.39354 0.0
H393 H 0.54424 0.15041 0.42096 0.0
H394 H 0.41846 0.01332 0.39712 0.0
H395 H 0.56964 0.06146 0.42747 0.0
H396 H 0.61851 0.90286 0.39487 0.0
H397 H 0.59231 0.99199 0.39848 0.0
H398 H 0.43982 0.94371 0.4261 0.0
H399 H 0.46552 0.8548 0.41954 0.0
C400 C 0.43103 0.09358 0.40116 0.0
C401 C 0.46657 0.1327 0.40673 0.0
C402 C 0.44603 0.04251 0.40351 0.0
C403 C 0.49646 0.02975 0.41245 0.0
C404 C 0.53103 0.0695 0.41963 0.0
C405 C 0.51647 0.12048 0.41623 0.0
C406 C 0.57957 0.91171 0.40189 0.0
C407 C 0.5438 0.87256 0.40668 0.0
C408 C 0.56447 0.96276 0.40425 0.0
C409 C 0.51365 0.97549 0.41244 0.0
C410 C 0.47877 0.93571 0.41884 0.0
C411 C 0.49349 0.88475 0.41541 0.0
H412 H 0.35838 0.04336 0.88005 0.0
H413 H 0.39063 0.89486 0.9199 0.0
H414 H 0.44873 0.06623 0.88465 0.0
H415 H 0.4811 0.91803 0.92446 0.0
H416 H 0.6068 0.10471 0.92454 0.0
H417 H 0.51612 0.08139 0.92667 0.0
H418 H 0.55083 0.9353 0.88425 0.0
H419 H 0.64136 0.95831 0.88206 0.0
C420 C 0.38467 0.01574 0.88996 0.0
C421 C 0.3675 0.96721 0.89947 0.0
C422 C 0.43626 0.029 0.89278 0.0
C423 C 0.47165 0.99383 0.90488 0.0
C424 C 0.45447 0.94563 0.91485 0.0
C425 C 0.40276 0.93251 0.91234 0.0
C426 C 0.59513 0.06747 0.91589 0.0
C427 C 0.63111 0.03343 0.90299 0.0
C428 C 0.5433 0.05428 0.91702 0.0
C429 C 0.52672 0.00664 0.90561 0.0
C430 C 0.5628 0.97208 0.89348 0.0
C431 C 0.61451 0.98543 0.89205 0.0
loop_
_geom_bond_atom_site_label_1
_geom_bond_atom_site_label_2
_geom_bond_distance
_geom_bond_site_symmetry_2
_ccdc_geom_bond_type
Zn0 O3 2.031 . S
Zn0 O5 2.049 . S
Zn0 O10 2.067 . S
Zn1 O2 1.962 . S
Zn1 O4 1.986 . S
Zn1 O6 1.996 . S
Zn1 O9 1.943 . S
O2 Zn1 1.962 . S
O2 C7 1.254 . S
O3 Zn0 2.031 . S
O3 C7 1.269 . S
O4 Zn1 1.986 . S
O4 C11 1.262 . S
O5 Zn0 2.049 . S
O5 C13 1.260 . S
O6 Zn1 1.996 . S
O6 C13 1.257 . S
C7 O2 1.254 . S
C7 O3 1.269 . S
C8 O9 1.249 . S
C8 O10 1.270 . S
O9 Zn1 1.943 . S
O9 C8 1.249 . S
O10 Zn0 2.067 . S
O10 C8 1.270 . S
C11 O4 1.262 . S
C11 O12 1.232 . S
O12 C11 1.232 . S
C13 O5 1.260 . S
C13 O6 1.257 . S
Zn14 O17 2.031 . S
Zn14 O19 2.049 . S
Zn14 O24 2.067 . S
Zn15 O16 1.962 . S
Zn15 O18 1.986 . S
Zn15 O20 1.996 . S
Zn15 O23 1.943 . S
O16 Zn15 1.962 . S
O16 C21 1.254 . S
O17 Zn14 2.031 . S
O17 C21 1.269 . S
O18 Zn15 1.986 . S
O18 C25 1.262 . S
O19 Zn14 2.049 . S
O19 C27 1.260 . S
O20 Zn15 1.996 . S
O20 C27 1.257 . S
C21 O16 1.254 . S
C21 O17 1.269 . S
C22 O23 1.249 . S
C22 O24 1.270 . S
O23 Zn15 1.943 . S
O23 C22 1.249 . S
O24 Zn14 2.067 . S
O24 C22 1.270 . S
C25 O18 1.262 . S
C25 O26 1.232 . S
O26 C25 1.232 . S
C27 O19 1.260 . S
C27 O20 1.257 . S
Zn28 O31 2.031 . S
Zn28 O33 2.049 . S
Zn28 O38 2.067 . S
Zn29 O30 1.962 . S
Zn29 O32 1.986 . S
Zn29 O34 1.996 . S
Zn29 O37 1.943 . S
O30 Zn29 1.962 . S
O30 C35 1.254 . S
O31 Zn28 2.031 . S
O31 C35 1.269 . S
O32 Zn29 1.986 . S
O32 C39 1.262 . S
O33 Zn28 2.049 . S
O33 C41 1.260 . S
O34 Zn29 1.996 . S
O34 C41 1.257 . S
C35 O30 1.254 . S
C35 O31 1.269 . S
C36 O37 1.249 . S
C36 O38 1.270 . S
O37 Zn29 1.943 . S
O37 C36 1.249 . S
O38 Zn28 2.067 . S
O38 C36 1.270 . S
C39 O32 1.262 . S
C39 O40 1.232 . S
O40 C39 1.232 . S
C41 O33 1.260 . S
C41 O34 1.257 . S
Zn42 O45 2.031 . S
Zn42 O47 2.049 . S
Zn42 O52 2.067 . S
Zn43 O44 1.962 . S
Zn43 O46 1.986 . S
Zn43 O48 1.996 . S
Zn43 O51 1.943 . S
O44 Zn43 1.962 . S
O44 C49 1.254 . S
O45 Zn42 2.031 . S
O45 C49 1.269 . S
O46 Zn43 1.986 . S
O46 C53 1.262 . S
O47 Zn42 2.049 . S
O47 C55 1.260 . S
O48 Zn43 1.996 . S
O48 C55 1.257 . S
C49 O44 1.254 . S
C49 O45 1.269 . S
C50 O51 1.249 . S
C50 O52 1.270 . S
O51 Zn43 1.943 . S
O51 C50 1.249 . S
O52 Zn42 2.067 . S
O52 C50 1.270 . S
C53 O46 1.262 . S
C53 O54 1.232 . S
O54 C53 1.232 . S
C55 O47 1.260 . S
C55 O48 1.257 . S
Zn56 O59 2.031 . S
Zn56 O61 2.049 . S
Zn56 O66 2.067 . S
Zn57 O58 1.962 . S
Zn57 O60 1.986 . S
Zn57 O62 1.996 . S
Zn57 O65 1.943 . S
O58 Zn57 1.962 . S
O58 C63 1.254 . S
O59 Zn56 2.031 . S
O59 C63 1.269 . S
O60 Zn57 1.986 . S
O60 C67 1.262 . S
O61 Zn56 2.049 . S
O61 C69 1.260 . S
O62 Zn57 1.996 . S
O62 C69 1.257 . S
C63 O58 1.254 . S
C63 O59 1.269 . S
C64 O65 1.249 . S
C64 O66 1.270 . S
O65 Zn57 1.943 . S
O65 C64 1.249 . S
O66 Zn56 2.067 . S
O66 C64 1.270 . S
C67 O60 1.262 . S
C67 O68 1.232 . S
O68 C67 1.232 . S
C69 O61 1.260 . S
C69 O62 1.257 . S
Zn70 O73 2.031 . S
Zn70 O75 2.049 . S
Zn70 O80 2.067 . S
Zn71 O72 1.962 . S
Zn71 O74 1.986 . S
Zn71 O76 1.996 . S
Zn71 O79 1.943 . S
O72 Zn71 1.962 . S
O72 C77 1.254 . S
O73 Zn70 2.031 . S
O73 C77 1.269 . S
O74 Zn71 1.986 . S
O74 C81 1.262 . S
O75 Zn70 2.049 . S
O75 C83 1.260 . S
O76 Zn71 1.996 . S
O76 C83 1.257 . S
C77 O72 1.254 . S
C77 O73 1.269 . S
C78 O79 1.249 . S
C78 O80 1.270 . S
O79 Zn71 1.943 . S
O79 C78 1.249 . S
O80 Zn70 2.067 . S
O80 C78 1.270 . S
C81 O74 1.262 . S
C81 O82 1.232 . S
O82 C81 1.232 . S
C83 O75 1.260 . S
C83 O76 1.257 . S
Zn84 O87 2.031 . S
Zn84 O89 2.049 . S
Zn84 O94 2.067 . S
Zn85 O86 1.962 . S
Zn85 O88 1.986 . S
Zn85 O90 1.996 . S
Zn85 O93 1.943 . S
O86 Zn85 1.962 . S
O86 C91 1.254 . S
O87 Zn84 2.031 . S
O87 C91 1.269 . S
O88 Zn85 1.986 . S
O88 C95 1.262 . S
O89 Zn84 2.049 . S
O89 C97 1.260 . S
O90 Zn85 1.996 . S
O90 C97 1.257 . S
C91 O86 1.254 . S
C91 O87 1.269 . S
C92 O93 1.249 . S
C92 O94 1.270 . S
O93 Zn85 1.943 . S
O93 C92 1.249 . S
O94 Zn84 2.067 . S
O94 C92 1.270 . S
C95 O88 1.262 . S
C95 O96 1.232 . S
O96 C95 1.232 . S
C97 O89 1.260 . S
C97 O90 1.257 . S
Zn98 O101 2.031 . S
Zn98 O103 2.049 . S
Zn98 O108 2.067 . S
Zn99 O100 1.962 . S
Zn99 O102 1.986 . S
Zn99 O104 1.996 . S
Zn99 O107 1.943 . S
O100 Zn99 1.962 . S
O100 C105 1.254 . S
O101 Zn98 2.031 . S
O101 C105 1.269 . S
O102 Zn99 1.986 . S
O102 C109 1.262 . S
O103 Zn98 2.049 . S
O103 C111 1.260 . S
O104 Zn99 1.996 . S
O104 C111 1.257 . S
C105 O100 1.254 . S
C105 O101 1.269 . S
C106 O107 1.249 . S
C106 O108 1.270 . S
O107 Zn99 1.943 . S
O107 C106 1.249 . S
O108 Zn98 2.067 . S
O108 C106 1.270 . S
C109 O102 1.262 . S
C109 O110 1.232 . S
O110 C109 1.232 . S
C111 O103 1.260 . S
C111 O104 1.257 . S
H112 C120 0.950 . S
H113 C125 0.950 . S
H114 C122 0.950 . S
H115 C124 0.950 . S
H116 C126 0.950 . S
H117 C128 0.950 . S
H118 C130 0.950 . S
H119 C131 0.950 . S
C120 H112 0.950 . S
C120 C121 1.386 . S
C120 C122 1.391 . S
C121 C120 1.386 . S
C121 C125 1.393 . S
C122 H114 0.950 . S
C122 C120 1.391 . S
C122 C123 1.400 . S
C123 C122 1.400 . S
C123 C124 1.398 . S
C123 C129 1.491 1_554 S
C124 H115 0.950 . S
C124 C123 1.398 . S
C124 C125 1.391 . S
C125 H113 0.950 . S
C125 C121 1.393 . S
C125 C124 1.391 . S
C126 H116 0.950 . S
C126 C127 1.386 . S
C126 C128 1.391 . S
C127 C126 1.386 . S
C127 C131 1.393 . S
C128 H117 0.950 . S
C128 C126 1.391 . S
C128 C129 1.400 . S
C129 C123 1.491 1_556 S
C129 C128 1.400 . S
C129 C130 1.398 . S
C130 H118 0.950 . S
C130 C129 1.398 . S
C130 C131 1.391 . S
C131 H119 0.950 . S
C131 C127 1.393 . S
C131 C130 1.391 . S
H132 C140 0.950 . S
H133 C145 0.950 . S
H134 C142 0.950 . S
H135 C144 0.950 . S
H136 C146 0.950 . S
H137 C148 0.950 . S
H138 C150 0.950 . S
H139 C151 0.950 . S
C140 H132 0.950 . S
C140 C141 1.386 . S
C140 C142 1.391 . S
C141 C140 1.386 . S
C141 C145 1.393 . S
C142 H134 0.950 . S
C142 C140 1.391 . S
C142 C143 1.400 . S
C143 C142 1.400 . S
C143 C144 1.398 . S
C143 C149 1.491 . S
C144 H135 0.950 . S
C144 C143 1.398 . S
C144 C145 1.391 . S
C145 H133 0.950 . S
C145 C141 1.393 . S
C145 C144 1.391 . S
C146 H136 0.950 . S
C146 C147 1.386 . S
C146 C148 1.391 . S
C147 C146 1.386 . S
C147 C151 1.393 . S
C148 H137 0.950 . S
C148 C146 1.391 . S
C148 C149 1.400 . S
C149 C143 1.491 . S
C149 C148 1.400 . S
C149 C150 1.398 . S
C150 H138 0.950 . S
C150 C149 1.398 . S
C150 C151 1.391 . S
C151 H139 0.950 . S
C151 C147 1.393 . S
C151 C150 1.391 . S
H152 C160 0.950 . S
H153 C165 0.950 . S
H154 C162 0.950 . S
H155 C164 0.950 . S
H156 C166 0.950 . S
H157 C168 0.950 . S
H158 C170 0.950 . S
H159 C171 0.950 . S
C160 H152 0.950 . S
C160 C161 1.386 . S
C160 C162 1.391 . S
C161 C160 1.386 . S
C161 C165 1.393 . S
C162 H154 0.950 . S
C162 C160 1.391 . S
C162 C163 1.400 . S
C163 C162 1.400 . S
C163 C164 1.398 . S
C163 C169 1.491 1_554 S
C164 H155 0.950 . S
C164 C163 1.398 . S
C164 C165 1.391 . S
C165 H153 0.950 . S
C165 C161 1.393 . S
C165 C164 1.391 . S
C166 H156 0.950 . S
C166 C167 1.386 . S
C166 C168 1.391 . S
C167 C166 1.386 . S
C167 C171 1.393 . S
C168 H157 0.950 . S
C168 C166 1.391 . S
C168 C169 1.400 . S
C169 C163 1.491 1_556 S
C169 C168 1.400 . S
C169 C170 1.398 . S
C170 H158 0.950 . S
C170 C169 1.398 . S
C170 C171 1.391 . S
C171 H159 0.950 . S
C171 C167 1.393 . S
C171 C170 1.391 . S
H172 C180 0.950 . S
H173 C185 0.950 . S
H174 C182 0.950 . S
H175 C184 0.950 . S
H176 C186 0.950 . S
H177 C188 0.950 . S
H178 C190 0.950 . S
H179 C191 0.950 . S
C180 H172 0.950 . S
C180 C181 1.386 . S
C180 C182 1.391 . S
C181 C180 1.386 . S
C181 C185 1.393 . S
C182 H174 0.950 . S
C182 C180 1.391 . S
C182 C183 1.400 . S
C183 C182 1.400 . S
C183 C184 1.398 . S
C183 C189 1.491 . S
C184 H175 0.950 . S
C184 C183 1.398 . S
C184 C185 1.391 . S
C185 H173 0.950 . S
C185 C181 1.393 . S
C185 C184 1.391 . S
C186 H176 0.950 . S
C186 C187 1.386 . S
C186 C188 1.391 . S
C187 C186 1.386 . S
C187 C191 1.393 . S
C188 H177 0.950 . S
C188 C186 1.391 . S
C188 C189 1.400 . S
C189 C183 1.491 . S
C189 C188 1.400 . S
C189 C190 1.398 . S
C190 H178 0.950 . S
C190 C189 1.398 . S
C190 C191 1.391 . S
C191 H179 0.950 . S
C191 C187 1.393 . S
C191 C190 1.391 . S
H192 C200 0.950 . S
H193 C205 0.950 . S
H194 C202 0.950 . S
H195 C204 0.950 . S
H196 C206 0.950 . S
H197 C208 0.950 . S
H198 C210 0.950 . S
H199 C211 0.950 . S
C200 H192 0.950 . S
C200 C201 1.386 . S
C200 C202 1.391 . S
C201 C200 1.386 . S
C201 C205 1.393 . S
C202 H194 0.950 . S
C202 C200 1.391 . S
C202 C203 1.400 . S
C203 C202 1.400 . S
C203 C204 1.398 . S
C203 C209 1.491 . S
C204 H195 0.950 . S
C204 C203 1.398 . S
C204 C205 1.391 . S
C205 H193 0.950 . S
C205 C201 1.393 . S
C205 C204 1.391 . S
C206 H196 0.950 . S
C206 C207 1.386 . S
C206 C208 1.391 . S
C207 C206 1.386 . S
C207 C211 1.393 . S
C208 H197 0.950 . S
C208 C206 1.391 . S
C208 C209 1.400 . S
C209 C203 1.491 . S
C209 C208 1.400 . S
C209 C210 1.398 . S
C210 H198 0.950 . S
C210 C209 1.398 . S
C210 C211 1.391 . S
C211 H199 0.950 . S
C211 C207 1.393 . S
C211 C210 1.391 . S
H212 C220 0.950 . S
H213 C225 0.950 . S
H214 C222 0.950 . S
H215 C224 0.950 . S
H216 C226 0.950 . S
H217 C228 0.950 . S
H218 C230 0.950 . S
H219 C231 0.950 . S
C220 H212 0.950 . S
C220 C221 1.386 . S
C220 C222 1.391 . S
C221 C220 1.386 . S
C221 C225 1.393 . S
C222 H214 0.950 . S
C222 C220 1.391 . S
C222 C223 1.400 . S
C223 C222 1.400 . S
C223 C224 1.398 . S
C223 C229 1.491 . S
C224 H215 0.950 . S
C224 C223 1.398 . S
C224 C225 1.391 . S
C225 H213 0.950 . S
C225 C221 1.393 . S
C225 C224 1.391 . S
C226 H216 0.950 . S
C226 C227 1.386 . S
C226 C228 1.391 . S
C227 C226 1.386 . S
C227 C231 1.393 . S
C228 H217 0.950 . S
C228 C226 1.391 . S
C228 C229 1.400 . S
C229 C223 1.491 . S
C229 C228 1.400 . S
C229 C230 1.398 . S
C230 H218 0.950 . S
C230 C229 1.398 . S
C230 C231 1.391 . S
C231 H219 0.950 . S
C231 C227 1.393 . S
C231 C230 1.391 . S
H232 C240 0.950 . S
H233 C245 0.950 . S
H234 C242 0.950 . S
H235 C244 0.950 . S
H236 C246 0.950 . S
H237 C248 0.950 . S
H238 C250 0.950 . S
H239 C251 0.950 . S
C240 H232 0.950 . S
C240 C241 1.386 . S
C240 C242 1.391 . S
C241 C240 1.386 . S
C241 C245 1.393 . S
C242 H234 0.950 . S
C242 C240 1.391 . S
C242 C243 1.400 . S
C243 C242 1.400 . S
C243 C244 1.398 . S
C243 C249 1.491 . S
C244 H235 0.950 . S
C244 C243 1.398 . S
C244 C245 1.391 . S
C245 H233 0.950 . S
C245 C241 1.393 . S
C245 C244 1.391 . S
C246 H236 0.950 . S
C246 C247 1.386 . S
C246 C248 1.391 . S
C247 C246 1.386 . S
C247 C251 1.393 . S
C248 H237 0.950 . S
C248 C246 1.391 . S
C248 C249 1.400 . S
C249 C243 1.491 . S
C249 C248 1.400 . S
C249 C250 1.398 . S
C250 H238 0.950 . S
C250 C249 1.398 . S
C250 C251 1.391 . S
C251 H239 0.950 . S
C251 C247 1.393 . S
C251 C250 1.391 . S
H252 C260 0.950 . S
H253 C265 0.950 . S
H254 C262 0.950 . S
H255 C264 0.950 . S
H256 C266 0.950 . S
H257 C268 0.950 . S
H258 C270 0.950 . S
H259 C271 0.950 1_565 S
C260 H252 0.950 . S
C260 C261 1.386 . S
C260 C262 1.391 . S
C261 C260 1.386 . S
C261 C265 1.393 . S
C262 H254 0.950 . S
C262 C260 1.391 . S
C262 C263 1.400 . S
C263 C262 1.400 . S
C263 C264 1.398 . S
C263 C269 1.491 . S
C264 H255 0.950 . S
C264 C263 1.398 . S
C264 C265 1.391 . S
C265 H253 0.950 . S
C265 C261 1.393 . S
C265 C264 1.391 . S
C266 H256 0.950 . S
C266 C267 1.386 . S
C266 C268 1.391 . S
C267 C266 1.386 . S
C267 C271 1.393 . S
C268 H257 0.950 . S
C268 C266 1.391 . S
C268 C269 1.400 . S
C269 C263 1.491 . S
C269 C268 1.400 . S
C269 C270 1.398 . S
C270 H258 0.950 . S
C270 C269 1.398 . S
C270 C271 1.391 . S
C271 H259 0.950 1_545 S
C271 C267 1.393 . S
C271 C270 1.391 . S
H272 C280 0.950 . S
H273 C285 0.950 . S
H274 C282 0.950 . S
H275 C284 0.950 . S
H276 C286 0.948 . S
H277 C288 0.950 . S
H278 C290 0.950 . S
H279 C291 0.950 . S
C280 H272 0.950 . S
C280 C281 1.386 . S
C280 C282 1.391 . S
C281 C280 1.386 . S
C281 C285 1.393 . S
C282 H274 0.950 . S
C282 C280 1.391 . S
C282 C283 1.400 . S
C283 C282 1.400 . S
C283 C284 1.398 . S
C283 C289 1.491 . S
C284 H275 0.950 . S
C284 C283 1.398 . S
C284 C285 1.391 . S
C285 H273 0.950 . S
C285 C281 1.393 . S
C285 C284 1.391 . S
C286 H276 0.948 . S
C286 C287 1.386 . S
C286 C288 1.391 . S
C287 C286 1.386 . S
C287 C291 1.393 . S
C288 H277 0.950 . S
C288 C286 1.391 . S
C288 C289 1.400 . S
C289 C283 1.491 . S
C289 C288 1.400 . S
C289 C290 1.398 . S
C290 H278 0.950 . S
C290 C289 1.398 . S
C290 C291 1.391 . S
C291 H279 0.950 . S
C291 C287 1.393 . S
C291 C290 1.391 . S
H292 C300 0.950 . S
H293 C305 0.950 . S
H294 C302 0.950 . S
H295 C304 0.950 . S
H296 C306 0.950 . S
H297 C308 0.950 . S
H298 C310 0.950 . S
H299 C311 0.950 . S
C300 H292 0.950 . S
C300 C301 1.386 . S
C300 C302 1.391 . S
C301 C300 1.386 . S
C301 C305 1.393 . S
C302 H294 0.950 . S
C302 C300 1.391 . S
C302 C303 1.400 . S
C303 C302 1.400 . S
C303 C304 1.398 . S
C303 C309 1.491 . S
C304 H295 0.950 . S
C304 C303 1.398 . S
C304 C305 1.391 . S
C305 H293 0.950 . S
C305 C301 1.393 . S
C305 C304 1.391 . S
C306 H296 0.950 . S
C306 C307 1.386 . S
C306 C308 1.391 . S
C307 C306 1.386 . S
C307 C311 1.393 . S
C308 H297 0.950 . S
C308 C306 1.391 . S
C308 C309 1.400 . S
C309 C303 1.491 . S
C309 C308 1.400 . S
C309 C310 1.398 . S
C310 H298 0.950 . S
C310 C309 1.398 . S
C310 C311 1.391 . S
C311 H299 0.950 . S
C311 C307 1.393 . S
C311 C310 1.391 . S
H312 C320 0.950 . S
H313 C325 0.950 . S
H314 C322 0.950 . S
H315 C324 0.950 . S
H316 C326 0.950 1_655 S
H317 C328 0.950 . S
H318 C330 0.950 . S
H319 C331 0.950 . S
C320 H312 0.950 . S
C320 C321 1.386 . S
C320 C322 1.391 . S
C321 C320 1.386 . S
C321 C325 1.393 . S
C322 H314 0.950 . S
C322 C320 1.391 . S
C322 C323 1.400 . S
C323 C322 1.400 . S
C323 C324 1.398 . S
C323 C329 1.491 . S
C324 H315 0.950 . S
C324 C323 1.398 . S
C324 C325 1.391 . S
C325 H313 0.950 . S
C325 C321 1.393 . S
C325 C324 1.391 . S
C326 H316 0.950 1_455 S
C326 C327 1.386 . S
C326 C328 1.391 . S
C327 C326 1.386 . S
C327 C331 1.393 . S
C328 H317 0.950 . S
C328 C326 1.391 . S
C328 C329 1.400 . S
C329 C323 1.491 . S
C329 C328 1.400 . S
C329 C330 1.398 . S
C330 H318 0.950 . S
C330 C329 1.398 . S
C330 C331 1.391 . S
C331 H319 0.950 . S
C331 C327 1.393 . S
C331 C330 1.391 . S
H332 C340 0.950 . S
H333 C345 0.950 . S
H334 C342 0.950 . S
H335 C344 0.950 . S
H336 C346 0.950 . S
H337 C348 0.950 . S
H338 C350 0.950 . S
H339 C351 0.950 . S
C340 H332 0.950 . S
C340 C341 1.386 . S
C340 C342 1.391 . S
C341 C340 1.386 . S
C341 C345 1.393 . S
C342 H334 0.950 . S
C342 C340 1.391 . S
C342 C343 1.400 . S
C343 C342 1.400 . S
C343 C344 1.398 . S
C343 C349 1.491 . S
C344 H335 0.950 . S
C344 C343 1.398 . S
C344 C345 1.391 . S
C345 H333 0.950 . S
C345 C341 1.393 . S
C345 C344 1.391 . S
C346 H336 0.950 . S
C346 C347 1.386 . S
C346 C348 1.391 . S
C347 C346 1.386 . S
C347 C351 1.393 . S
C348 H337 0.950 . S
C348 C346 1.391 . S
C348 C349 1.400 . S
C349 C343 1.491 . S
C349 C348 1.400 . S
C349 C350 1.398 . S
C350 H338 0.950 . S
C350 C349 1.398 . S
C350 C351 1.391 . S
C351 H339 0.950 . S
C351 C347 1.393 . S
C351 C350 1.391 . S
H352 C360 0.950 . S
H353 C365 0.950 . S
H354 C362 0.950 . S
H355 C364 0.950 . S
H356 C366 0.950 . S
H357 C368 0.950 . S
H358 C370 0.950 . S
H359 C371 0.950 . S
C360 H352 0.950 . S
C360 C361 1.386 . S
C360 C362 1.391 . S
C361 C360 1.386 . S
C361 C365 1.393 . S
C362 H354 0.950 . S
C362 C360 1.391 . S
C362 C363 1.400 . S
C363 C362 1.400 . S
C363 C364 1.398 1_655 S
C363 C369 1.491 1_655 S
C364 H355 0.950 . S
C364 C363 1.398 1_455 S
C364 C365 1.391 1_455 S
C365 H353 0.950 . S
C365 C361 1.393 . S
C365 C364 1.391 1_655 S
C366 H356 0.950 . S
C366 C367 1.386 . S
C366 C368 1.391 . S
C367 C366 1.386 . S
C367 C371 1.393 . S
C368 H357 0.950 . S
C368 C366 1.391 . S
C368 C369 1.400 . S
C369 C363 1.491 1_455 S
C369 C368 1.400 . S
C369 C370 1.398 1_455 S
C370 H358 0.950 . S
C370 C369 1.398 1_655 S
C370 C371 1.391 1_655 S
C371 H359 0.950 . S
C371 C367 1.393 . S
C371 C370 1.391 1_455 S
H372 C380 0.950 . S
H373 C385 0.950 . S
H374 C382 0.950 . S
H375 C384 0.950 . S
H376 C386 0.950 . S
H377 C388 0.950 . S
H378 C390 0.950 . S
H379 C391 0.950 . S
C380 H372 0.950 . S
C380 C381 1.386 . S
C380 C382 1.391 . S
C381 C380 1.386 . S
C381 C385 1.393 . S
C382 H374 0.950 . S
C382 C380 1.391 . S
C382 C383 1.400 . S
C383 C382 1.400 . S
C383 C384 1.398 . S
C383 C389 1.491 1_655 S
C384 H375 0.950 . S
C384 C383 1.398 . S
C384 C385 1.391 . S
C385 H373 0.950 . S
C385 C381 1.393 . S
C385 C384 1.391 . S
C386 H376 0.950 . S
C386 C387 1.386 . S
C386 C388 1.391 . S
C387 C386 1.386 . S
C387 C391 1.393 . S
C388 H377 0.950 . S
C388 C386 1.391 . S
C388 C389 1.400 . S
C389 C383 1.491 1_455 S
C389 C388 1.400 . S
C389 C390 1.398 . S
C390 H378 0.950 . S
C390 C389 1.398 . S
C390 C391 1.391 . S
C391 H379 0.950 . S
C391 C387 1.393 . S
C391 C390 1.391 . S
H392 C400 0.950 . S
H393 C405 0.950 . S
H394 C402 0.950 . S
H395 C404 0.950 . S
H396 C406 0.950 . S
H397 C408 0.950 . S
H398 C410 0.950 . S
H399 C411 0.950 . S
C400 H392 0.950 . S
C400 C401 1.386 . S
C400 C402 1.391 . S
C401 C400 1.386 . S
C401 C405 1.393 . S
C402 H394 0.950 . S
C402 C400 1.391 . S
C402 C403 1.400 . S
C403 C402 1.400 . S
C403 C404 1.398 . S
C403 C409 1.491 1_545 S
C404 H395 0.950 . S
C404 C403 1.398 . S
C404 C405 1.391 . S
C405 H393 0.950 . S
C405 C401 1.393 . S
C405 C404 1.391 . S
C406 H396 0.950 . S
C406 C407 1.386 . S
C406 C408 1.391 . S
C407 C406 1.386 . S
C407 C411 1.393 . S
C408 H397 0.950 . S
C408 C406 1.391 . S
C408 C409 1.400 . S
C409 C403 1.491 1_565 S
C409 C408 1.400 . S
C409 C410 1.398 . S
C410 H398 0.950 . S
C410 C409 1.398 . S
C410 C411 1.391 . S
C411 H399 0.950 . S
C411 C407 1.393 . S
C411 C410 1.391 . S
H412 C420 0.950 1_565 S
H413 C425 0.950 . S
H414 C422 0.950 . S
H415 C424 0.950 . S
H416 C426 0.950 1_545 S
H417 C428 0.950 . S
H418 C430 0.950 . S
H419 C431 0.950 . S
C420 H412 0.950 1_545 S
C420 C421 1.386 . S
C420 C422 1.391 1_545 S
C421 C420 1.386 . S
C421 C425 1.393 . S
C422 H414 0.950 . S
C422 C420 1.391 1_565 S
C422 C423 1.400 1_565 S
C423 C422 1.400 1_545 S
C423 C424 1.398 . S
C423 C429 1.491 1_545 S
C424 H415 0.950 . S
C424 C423 1.398 . S
C424 C425 1.391 . S
C425 H413 0.950 . S
C425 C421 1.393 . S
C425 C424 1.391 . S
C426 H416 0.950 1_565 S
C426 C427 1.386 . S
C426 C428 1.391 1_565 S
C427 C426 1.386 . S
C427 C431 1.393 . S
C428 H417 0.950 . S
C428 C426 1.391 1_545 S
C428 C429 1.400 1_545 S
C429 C423 1.491 1_565 S
C429 C428 1.400 1_565 S
C429 C430 1.398 . S
C430 H418 0.950 . S
C430 C429 1.398 . S
C430 C431 1.391 . S
C431 H419 0.950 . S
C431 C427 1.393 . S
C431 C430 1.391 . S
C121 C13 1.314 . S
C127 C83 1.328 . S
C141 C27 1.297 . S
C147 C97 1.305 . S
C161 C41 1.321 . S
C167 C111 1.328 . S
C181 C69 1.323 . S
C187 C55 1.306 . S
C201 C11 1.460 . S
C207 C63 1.434 . S
C221 C25 1.450 . S
C227 C77 1.426 1_565 S
C241 C91 1.416 . S
C247 C39 1.452 . S
C261 C53 1.453 . S
C267 C105 1.415 1_545 S
C281 C67 1.460 . S
C287 C7 1.433 1_655 S
C301 C21 1.433 . S
C307 C81 1.452 . S
C321 C95 1.460 . S
C327 C35 1.433 1_455 S
C341 C49 1.436 . S
C347 C109 1.454 . S
C361 C36 0.811 . S
C367 C8 0.826 . S
C381 C50 0.836 . S
C387 C22 0.848 . S
C401 C64 0.848 . S
C407 C92 0.829 . S
C421 C78 0.847 . S
C427 C106 0.824 . S
