# Generated by pormake.
# Topology afw, (4)-cn, num edge types: 1
# Building blocks:
#     Node 0, Type 0, BuildingBlock: CEKHIL_clean_sbu_0, # of connection points: 4
#     Node 1, Type 0, BuildingBlock: CEKHIL_clean_sbu_0, # of connection points: 4
#     Node 2, Type 0, BuildingBlock: CEKHIL_clean_sbu_0, # of connection points: 4
#     Node 3, Type 0, BuildingBlock: CEKHIL_clean_sbu_0, # of connection points: 4
#     Node 4, Type 0, BuildingBlock: CEKHIL_clean_sbu_0, # of connection points: 4
#     Node 5, Type 0, BuildingBlock: CEKHIL_clean_sbu_0, # of connection points: 4
#     Node 6, Type 0, BuildingBlock: CEKHIL_clean_sbu_0, # of connection points: 4
#     Node 7, Type 0, BuildingBlock: CEKHIL_clean_sbu_0, # of connection points: 4
#     Node 8, Type 0, BuildingBlock: CEKHIL_clean_sbu_0, # of connection points: 4
#     Edge 9, Type (0, 0), BuildingBlock: XUDNAN_clean_linker_2, # of connection points: 2
#     Edge 10, Type (0, 0), BuildingBlock: XUDNAN_clean_linker_2, # of connection points: 2
#     Edge 11, Type (0, 0), BuildingBlock: XUDNAN_clean_linker_2, # of connection points: 2
#     Edge 12, Type (0, 0), BuildingBlock: XUDNAN_clean_linker_2, # of connection points: 2
#     Edge 13, Type (0, 0), BuildingBlock: XUDNAN_clean_linker_2, # of connection points: 2
#     Edge 14, Type (0, 0), BuildingBlock: XUDNAN_clean_linker_2, # of connection points: 2
#     Edge 15, Type (0, 0), BuildingBlock: XUDNAN_clean_linker_2, # of connection points: 2
#     Edge 16, Type (0, 0), BuildingBlock: XUDNAN_clean_linker_2, # of connection points: 2
#     Edge 17, Type (0, 0), BuildingBlock: XUDNAN_clean_linker_2, # of connection points: 2
#     Edge 18, Type (0, 0), BuildingBlock: XUDNAN_clean_linker_2, # of connection points: 2
#     Edge 19, Type (0, 0), BuildingBlock: XUDNAN_clean_linker_2, # of connection points: 2
#     Edge 20, Type (0, 0), BuildingBlock: XUDNAN_clean_linker_2, # of connection points: 2
#     Edge 21, Type (0, 0), BuildingBlock: XUDNAN_clean_linker_2, # of connection points: 2
#     Edge 22, Type (0, 0), BuildingBlock: XUDNAN_clean_linker_2, # of connection points: 2
#     Edge 23, Type (0, 0), BuildingBlock: XUDNAN_clean_linker_2, # of connection points: 2
#     Edge 24, Type (0, 0), BuildingBlock: XUDNAN_clean_linker_2, # of connection points: 2
#     Edge 25, Type (0, 0), BuildingBlock: XUDNAN_clean_linker_2, # of connection points: 2
#     Edge 26, Type (0, 0), BuildingBlock: XUDNAN_clean_linker_2, # of connection points: 2
# Relax obj value: 0.199
# Max RMSD: 0.209
# Mean RMSD: 0.200
data_MOF--net-afw--node1-CEKHIL_clean_sbu_0--edge1-XUDNAN_clean_linker_2
_symmetry_space_group_name_H-M    P1
_symmetry_Int_Tables_number       1
_symmetry_cell_setting            triclinic
loop_
_symmetry_equiv_pos_as_xyz
'x, y, z'
_cell_length_a     42.621871
_cell_length_b     43.081616
_cell_length_c     31.062438
_cell_angle_alpha  90.820544
_cell_angle_beta   90.71096
_cell_angle_gamma 120.00702
loop_
_atom_site_label
_atom_site_type_symbol
_atom_site_fract_x
_atom_site_fract_y
_atom_site_fract_z
_atom_type_partial_charge
Co0 Co 0.01611 0.22096 0.00982 0.0
O1 O 0.04318 0.26714 0.98401 0.0
O2 O 0.98656 0.22641 0.96593 0.0
C3 C 0.05979 0.20649 0.00708 0.0
O4 O 0.98058 0.16947 0.02734 0.0
Co5 Co 0.04022 0.20689 0.09834 0.0
O6 O 0.00657 0.15605 0.08193 0.0
C7 C 0.00484 0.25018 0.09524 0.0
C8 C 0.01472 0.25773 0.95974 0.0
C9 C 0.98211 0.1467 0.05264 0.0
O10 O -0.00181 0.24215 0.05484 0.0
O11 O 0.02321 0.24044 0.11856 0.0
O12 O 0.03978 0.20243 0.97324 0.0
O13 O 0.05547 0.22271 0.04 0.0
Co14 Co 0.82768 0.80737 0.02594 0.0
O15 O 0.80425 0.7566 0.03489 0.0
O16 O 0.78656 0.79276 0.06317 0.0
C17 C 0.88435 0.81761 0.03742 0.0
O18 O 0.84544 0.86107 0.02471 0.0
Co19 Co 0.88324 0.84304 0.95274 0.0
O20 O 0.89426 0.88841 0.98271 0.0
C21 C 0.80447 0.80145 0.93196 0.0
C22 C 0.78183 0.7606 0.05896 0.0
C23 C 0.8724 0.88937 0.00954 0.0
O24 O 0.7967 0.79845 0.97227 0.0
O25 O 0.83693 0.81572 0.91841 0.0
O26 O 0.86498 0.81642 0.07002 0.0
O27 O 0.86842 0.81069 0.00021 0.0
Co28 Co 0.20067 0.00977 0.01593 0.0
O29 O 0.22145 0.98136 0.99651 0.0
O30 O 0.23065 0.0318 0.96716 0.0
C31 C 0.14386 0.96435 0.02203 0.0
O32 O 0.18344 0.04562 0.02423 0.0
Co33 Co 0.16738 0.00255 0.10551 0.0
O34 O 0.15151 0.03584 0.08438 0.0
C35 C 0.24646 0.03592 0.09792 0.0
C36 C 0.23635 0.00488 0.9666 0.0
C37 C 0.16379 0.05236 0.04945 0.0
O38 O 0.24295 0.03714 0.05691 0.0
O39 O 0.21939 0.02054 0.12279 0.0
O40 O 0.15597 0.97801 0.98474 0.0
O41 O 0.16705 0.97621 0.0539 0.0
Co42 Co 0.63438 0.53098 0.33238 0.0
O43 O 0.60461 0.55086 0.34937 0.0
O44 O 0.66197 0.5721 0.37006 0.0
C45 C 0.59403 0.47335 0.34549 0.0
O46 O 0.67296 0.51691 0.32476 0.0
Co47 Co 0.61358 0.47699 0.2557 0.0
O48 O 0.65174 0.46856 0.2805 0.0
C49 C 0.64221 0.55384 0.2388 0.0
C50 C 0.63248 0.57382 0.37245 0.0
C51 C 0.6751 0.49064 0.3078 0.0
O52 O 0.64999 0.56169 0.27921 0.0
O53 O 0.62515 0.52152 0.22397 0.0
O54 O 0.61363 0.49504 0.37667 0.0
O55 O 0.59672 0.48772 0.30847 0.0
Co56 Co 0.49232 0.14213 0.3693 0.0
O57 O 0.47072 0.09218 0.38288 0.0
O58 O 0.45075 0.12835 0.40489 0.0
C59 C 0.55015 0.15689 0.3841 0.0
O60 O 0.50746 0.19483 0.36303 0.0
Co61 Co 0.54824 0.17677 0.29653 0.0
O62 O 0.55787 0.22272 0.32395 0.0
C63 C 0.46986 0.13173 0.27467 0.0
C64 C 0.44758 0.09675 0.40487 0.0
C65 C 0.53425 0.22338 0.34806 0.0
O66 O 0.46174 0.12929 0.31479 0.0
O67 O 0.50253 0.14717 0.26158 0.0
O68 O 0.52913 0.15507 0.4151 0.0
O69 O 0.5348 0.14698 0.3465 0.0
Co70 Co 0.88201 0.38245 0.35447 0.0
O71 O 0.93093 0.42102 0.36268 0.0
O72 O 0.90702 0.36928 0.39626 0.0
C73 C 0.85482 0.41573 0.35887 0.0
O74 O 0.83232 0.33749 0.35654 0.0
Co75 Co 0.83584 0.37977 0.27437 0.0
O76 O 0.79605 0.33933 0.30442 0.0
C77 C 0.89573 0.36505 0.26397 0.0
C78 C 0.93471 0.40104 0.39081 0.0
C79 C 0.80127 0.32505 0.33736 0.0
O80 O 0.89775 0.36224 0.30508 0.0
O81 O 0.87541 0.37546 0.24627 0.0
O82 O 0.86476 0.40635 0.39372 0.0
O83 O 0.86511 0.40818 0.32328 0.0
Co84 Co 0.35583 0.88544 0.67747 0.0
O85 O 0.38221 0.93201 0.65236 0.0
O86 O 0.32573 0.89081 0.63462 0.0
C87 C 0.3991 0.87045 0.67278 0.0
O88 O 0.32066 0.83391 0.69447 0.0
Co89 Co 0.38216 0.8703 0.76454 0.0
O90 O 0.3425 0.82052 0.75357 0.0
C91 C 0.34695 0.91401 0.76424 0.0
C92 C 0.35355 0.92231 0.62823 0.0
C93 C 0.31923 0.81183 0.72301 0.0
O94 O 0.33841 0.90599 0.7241 0.0
O95 O 0.3668 0.90475 0.78538 0.0
O96 O 0.37901 0.86725 0.63938 0.0
O97 O 0.39548 0.8866 0.70618 0.0
Co98 Co 0.1552 0.47292 0.69581 0.0
O99 O 0.12872 0.42245 0.7076 0.0
O100 O 0.11431 0.46218 0.73166 0.0
C101 C 0.21098 0.48125 0.71055 0.0
O102 O 0.17691 0.52722 0.69307 0.0
Co103 Co 0.21232 0.50364 0.62322 0.0
O104 O 0.22478 0.55067 0.6494 0.0
C105 C 0.13414 0.46983 0.60102 0.0
C106 C 0.10799 0.42935 0.73136 0.0
C107 C 0.20436 0.55418 0.6763 0.0
O108 O 0.12542 0.46539 0.64103 0.0
O109 O 0.16651 0.48192 0.58809 0.0
O110 O 0.19045 0.48036 0.7416 0.0
O111 O 0.1959 0.47349 0.6727 0.0
Co112 Co 0.53037 0.66589 0.67712 0.0
O113 O 0.55076 0.63855 0.65177 0.0
O114 O 0.5562 0.68877 0.62645 0.0
C115 C 0.47447 0.61961 0.68871 0.0
O116 O 0.51289 0.70091 0.68936 0.0
Co117 Co 0.50097 0.65906 0.76925 0.0
O118 O 0.48229 0.69085 0.75045 0.0
C119 C 0.58001 0.69446 0.75586 0.0
C120 C 0.56256 0.66249 0.62187 0.0
C121 C 0.49354 0.70734 0.71531 0.0
O122 O 0.57506 0.6942 0.71481 0.0
O123 O 0.55394 0.67932 0.78215 0.0
O124 O 0.48329 0.63286 0.6505 0.0
O125 O 0.50024 0.63267 0.71752 0.0
H126 H 0.13406 0.08409 0.09922 0.0
H127 H 0.17302 0.08317 0.97086 0.0
H128 H 0.15599 0.12743 0.94839 0.0
H129 H 0.05782 0.08963 0.0659 0.0
H130 H 0.06042 0.11852 0.11001 0.0
H131 H 0.078 0.08858 0.11685 0.0
H132 H 0.14073 0.14277 0.13969 0.0
H133 H 0.12325 0.17281 0.13248 0.0
H134 H 0.163 0.1801 0.10423 0.0
H135 H 0.12853 0.16581 0.9373 0.0
H136 H 0.09444 0.19822 0.93934 0.0
H137 H 0.07739 0.17845 0.07588 0.0
C138 C 0.13942 0.0935 0.06653 0.0
C139 C 0.15494 0.08014 0.03685 0.0
C140 C 0.16135 0.09309 0.9943 0.0
C141 C 0.15183 0.1183 0.9812 0.0
C142 C 0.13641 0.13073 0.01115 0.0
C143 C 0.13052 0.11906 0.05302 0.0
C144 C 0.11199 0.13552 0.07817 0.0
C145 C 0.07486 0.10632 0.09371 0.0
C146 C 0.1362 0.15922 0.11588 0.0
C147 C 0.1078 0.15772 0.04364 0.0
C148 C 0.12197 0.15441 0.00518 0.0
C149 C 0.11804 0.16928 0.96742 0.0
C150 C 0.09858 0.18752 0.96886 0.0
C151 C 0.08374 0.19109 0.00784 0.0
C152 C 0.08914 0.17673 0.04589 0.0
H153 H 0.92065 0.9401 0.06604 0.0
H154 H 0.83518 0.91821 0.97309 0.0
H155 H 0.84976 0.98152 0.97914 0.0
H156 H 0.90818 0.00724 0.1329 0.0
H157 H 0.95619 0.03404 0.14398 0.0
H158 H 0.93544 0.98611 0.1368 0.0
H159 H 0.98016 0.99459 0.07563 0.0
H160 H 0.00099 0.04204 0.08486 0.0
H161 H 0.98452 0.02322 0.03154 0.0
H162 H 0.88 0.04895 0.98729 0.0
H163 H 0.92058 0.11405 0.00056 0.0
H164 H 0.98476 0.09099 0.0904 0.0
C165 C 0.90432 0.94855 0.04821 0.0
C166 C 0.87651 0.92459 0.01966 0.0
C167 C 0.85613 0.93634 0.99574 0.0
C168 C 0.8643 0.97217 0.99891 0.0
C169 C 0.89256 0.9956 0.02665 0.0
C170 C 0.91176 0.98407 0.05156 0.0
C171 C 0.9421 0.0149 0.077 0.0
C172 C 0.93504 0.01029 0.12555 0.0
C173 C 0.97911 0.0189 0.06651 0.0
C174 C 0.93851 0.04591 0.06042 0.0
C175 C 0.90946 0.03426 0.03192 0.0
C176 C 0.90237 0.05835 0.01027 0.0
C177 C 0.92566 0.0953 0.01786 0.0
C178 C 0.95571 0.1078 0.04681 0.0
C179 C 0.96173 0.08252 0.06861 0.0
H180 H 0.93759 0.87117 0.08871 0.0
H181 H 0.91781 0.79043 0.99064 0.0
H182 H 0.98347 0.81521 0.9836 0.0
H183 H 0.00732 0.94077 0.03811 0.0
H184 H 0.03501 0.96365 0.08511 0.0
H185 H 0.98679 0.93565 0.08985 0.0
H186 H -0.00379 0.89827 0.14777 0.0
H187 H 0.04462 0.92649 0.14376 0.0
H188 H 0.02398 0.87862 0.13621 0.0
H189 H 0.04863 0.85413 0.97643 0.0
H190 H 0.11205 0.90348 0.97394 0.0
H191 H 0.09245 0.95918 0.07813 0.0
C192 C 0.94729 0.85794 0.06724 0.0
C193 C 0.92293 0.82865 0.04063 0.0
C194 C 0.93626 0.81272 0.0115 0.0
C195 C 0.97345 0.82654 0.00735 0.0
C196 C -0.00303 0.85634 0.03261 0.0
C197 C 0.98464 0.87171 0.06244 0.0
C198 C 0.0159 0.90598 0.08186 0.0
C199 C 0.01095 0.93841 0.07319 0.0
C200 C 0.02044 0.90209 0.13028 0.0
C201 C 0.04729 0.90806 0.05695 0.0
C202 C 0.03561 0.87893 0.02896 0.0
C203 C 0.05844 0.87654 0.99906 0.0
C204 C 0.09423 0.90469 0.99766 0.0
C205 C 0.10687 0.93444 0.02634 0.0
C206 C 0.08339 0.93603 0.05678 0.0
H207 H 0.80787 0.41091 0.29504 0.0
H208 H 0.84591 0.45332 0.42452 0.0
H209 H 0.8049 0.47858 0.42513 0.0
H210 H 0.797 0.48189 0.25485 0.0
H211 H 0.75572 0.45276 0.22498 0.0
H212 H 0.78863 0.43893 0.23454 0.0
H213 H 0.73953 0.38088 0.26972 0.0
H214 H 0.70638 0.39444 0.26018 0.0
H215 H 0.71425 0.3842 0.3139 0.0
H216 H 0.76127 0.50095 0.40999 0.0
H217 H 0.71435 0.51404 0.38336 0.0
H218 H 0.70222 0.45303 0.26573 0.0
C219 C 0.80772 0.42561 0.32347 0.0
C220 C 0.8303 0.43058 0.35959 0.0
C221 C 0.82885 0.44941 0.39649 0.0
C222 C 0.80574 0.46386 0.39707 0.0
C223 C 0.78385 0.45855 0.36079 0.0
C224 C 0.78425 0.43938 0.32496 0.0
C225 C 0.75694 0.43601 0.29092 0.0
C226 C 0.77571 0.45345 0.24884 0.0
C227 C 0.72754 0.39654 0.28324 0.0
C228 C 0.74168 0.45705 0.31272 0.0
C229 C 0.75766 0.46999 0.35289 0.0
C230 C 0.74845 0.49081 0.37868 0.0
C231 C 0.72196 0.49829 0.36314 0.0
C232 C 0.70474 0.48466 0.3224 0.0
C233 C 0.71486 0.4638 0.297 0.0
H234 H 0.59326 0.28941 0.36649 0.0
H235 H 0.47725 0.23467 0.34161 0.0
H236 H 0.47917 0.29301 0.34136 0.0
H237 H 0.59459 0.35924 0.43963 0.0
H238 H 0.63811 0.39341 0.42133 0.0
H239 H 0.62721 0.34724 0.42143 0.0
H240 H 0.64161 0.35046 0.34018 0.0
H241 H 0.65232 0.39649 0.34007 0.0
H242 H 0.61851 0.36434 0.30286 0.0
H243 H 0.49544 0.35733 0.3329 0.0
H244 H 0.52348 0.42343 0.32889 0.0
H245 H 0.62698 0.43604 0.36909 0.0
C246 C 0.56825 0.28982 0.36178 0.0
C247 C 0.53509 0.25775 0.35407 0.0
C248 C 0.50281 0.25905 0.348 0.0
C249 C 0.50369 0.29201 0.34757 0.0
C250 C 0.53691 0.32327 0.35446 0.0
C251 C 0.56847 0.32245 0.36262 0.0
C252 C 0.60051 0.35995 0.36954 0.0
C253 C 0.61601 0.36527 0.41574 0.0
C254 C 0.62995 0.36827 0.33616 0.0
C255 C 0.58224 0.38195 0.36238 0.0
C256 C 0.54563 0.36031 0.35322 0.0
C257 C 0.52382 0.37457 0.34127 0.0
C258 C 0.53987 0.41197 0.33893 0.0
C259 C 0.57696 0.4344 0.34958 0.0
C260 C 0.59829 0.41926 0.36183 0.0
H261 H 0.5983 0.17194 0.32056 0.0
H262 H 0.59191 0.18493 0.45831 0.0
H263 H 0.65889 0.22244 0.46318 0.0
H264 H 0.68661 0.17446 0.31916 0.0
H265 H 0.69944 0.20029 0.27084 0.0
H266 H 0.65239 0.16875 0.28007 0.0
H267 H 0.63682 0.21933 0.27083 0.0
H268 H 0.68363 0.25093 0.26168 0.0
H269 H 0.66021 0.2595 0.30402 0.0
H270 H 0.72617 0.26423 0.45088 0.0
H271 H 0.78526 0.30982 0.42223 0.0
H272 H 0.74489 0.2716 0.29229 0.0
C273 C 0.6109 0.1819 0.35201 0.0
C274 C 0.58997 0.17543 0.3891 0.0
C275 C 0.60755 0.18941 0.42951 0.0
C276 C 0.64554 0.21059 0.43256 0.0
C277 C 0.66532 0.21741 0.39491 0.0
C278 C 0.64841 0.20344 0.3554 0.0
C279 C 0.67457 0.21838 0.31888 0.0
C280 C 0.67848 0.18869 0.2959 0.0
C281 C 0.66313 0.23822 0.28702 0.0
C282 C 0.70876 0.24397 0.3437 0.0
C283 C 0.70332 0.24243 0.38761 0.0
C284 C 0.7308 0.26528 0.41662 0.0
C285 C 0.76426 0.29096 0.40015 0.0
C286 C 0.7694 0.29396 0.35515 0.0
C287 C 0.74161 0.26961 0.32685 0.0
H288 H 0.41176 0.83814 0.74102 0.0
H289 H 0.43272 0.86017 0.6054 0.0
H290 H 0.46254 0.82364 0.60318 0.0
H291 H 0.49337 0.8341 0.77041 0.0
H292 H 0.46919 0.79673 0.80534 0.0
H293 H 0.45382 0.82841 0.79774 0.0
H294 H 0.39036 0.77644 0.77397 0.0
H295 H 0.40556 0.74461 0.78106 0.0
H296 H 0.38649 0.74695 0.72991 0.0
H297 H 0.48682 0.78282 0.6143 0.0
H298 H 0.50287 0.73809 0.63697 0.0
H299 H 0.46242 0.73838 0.76471 0.0
C300 C 0.42337 0.8359 0.71119 0.0
C301 C 0.42048 0.85227 0.67347 0.0
C302 C 0.43505 0.84801 0.63466 0.0
C303 C 0.452 0.82737 0.63312 0.0
C304 C 0.45359 0.81077 0.67054 0.0
C305 C 0.43955 0.81457 0.70882 0.0
C306 C 0.44185 0.7911 0.74319 0.0
C307 C 0.466 0.81396 0.78143 0.0
C308 C 0.40381 0.76312 0.75789 0.0
C309 C 0.45946 0.7736 0.71821 0.0
C310 C 0.46624 0.78567 0.67652 0.0
C311 C 0.48184 0.77325 0.64692 0.0
C312 C 0.49086 0.74779 0.66023 0.0
C313 C 0.484 0.73468 0.70274 0.0
C314 C 0.46803 0.74784 0.73205 0.0
H315 H 0.3088 0.76637 0.65622 0.0
H316 H 0.26999 0.7718 0.78264 0.0
H317 H 0.23071 0.70568 0.78133 0.0
H318 H 0.22463 0.68704 0.61177 0.0
H319 H 0.25006 0.66951 0.58521 0.0
H320 H 0.26941 0.71724 0.59276 0.0
H321 H 0.32529 0.72066 0.63156 0.0
H322 H 0.306 0.67298 0.62474 0.0
H323 H 0.31876 0.69346 0.67783 0.0
H324 H 0.20005 0.6387 0.76877 0.0
H325 H 0.18268 0.57643 0.74764 0.0
H326 H 0.24545 0.61537 0.63178 0.0
C327 C 0.29082 0.7536 0.68271 0.0
C328 C 0.29126 0.77387 0.71892 0.0
C329 C 0.26909 0.75647 0.75422 0.0
C330 C 0.24683 0.71904 0.75374 0.0
C331 C 0.24763 0.69953 0.71798 0.0
C332 C 0.26915 0.71624 0.68314 0.0
C333 C 0.26871 0.68914 0.65124 0.0
C334 C 0.25221 0.69084 0.60766 0.0
C335 C 0.30695 0.69438 0.64607 0.0
C336 C 0.24408 0.65465 0.67383 0.0
C337 C 0.23167 0.66109 0.7119 0.0
C338 C 0.20935 0.63331 0.73883 0.0
C339 C 0.19963 0.59804 0.72659 0.0
C340 C 0.21276 0.59101 0.68815 0.0
C341 C 0.23503 0.61981 0.66144 0.0
H342 H 0.26156 0.50263 0.64794 0.0
H343 H 0.24976 0.49605 0.78659 0.0
H344 H 0.31653 0.52694 0.79595 0.0
H345 H 0.34135 0.49267 0.64091 0.0
H346 H 0.36083 0.52522 0.59918 0.0
H347 H 0.31232 0.49891 0.60363 0.0
H348 H 0.30873 0.55719 0.6086 0.0
H349 H 0.35717 0.58367 0.60432 0.0
H350 H 0.33511 0.59065 0.64953 0.0
H351 H 0.38456 0.56107 0.78978 0.0
H352 H 0.44836 0.59845 0.76933 0.0
H353 H 0.41484 0.58599 0.63468 0.0
C354 C 0.27285 0.5072 0.68031 0.0
C355 C 0.25048 0.49682 0.71658 0.0
C356 C 0.26647 0.50367 0.75838 0.0
C357 C 0.3043 0.52112 0.76397 0.0
C358 C 0.32559 0.53172 0.72742 0.0
C359 C 0.3104 0.52514 0.68643 0.0
C360 C 0.33906 0.54183 0.65258 0.0
C361 C 0.33834 0.51293 0.62229 0.0
C362 C 0.33476 0.57001 0.62729 0.0
C363 C 0.37289 0.55911 0.68091 0.0
C364 C 0.36459 0.55257 0.72393 0.0
C365 C 0.39136 0.56628 0.75621 0.0
C366 C 0.42753 0.58751 0.74423 0.0
C367 C 0.43652 0.59523 0.70041 0.0
C368 C 0.40879 0.58054 0.66842 0.0
H369 H 0.0468 0.26433 0.88359 0.0
H370 H 0.98813 0.30372 0.95777 0.0
H371 H -0.00085 0.34843 0.90164 0.0
H372 H 0.11529 0.34601 0.85165 0.0
H373 H 0.11945 0.33151 0.79837 0.0
H374 H 0.10239 0.29984 0.84101 0.0
H375 H 0.04412 0.25927 0.79553 0.0
H376 H 0.06108 0.29085 0.75253 0.0
H377 H 0.01741 0.27773 0.77469 0.0
H378 H 0.02414 0.39386 0.84188 0.0
H379 H 0.05954 0.43494 0.78399 0.0
H380 H 0.09985 0.36377 0.74814 0.0
C381 C 0.03538 0.28172 0.88718 0.0
C382 C 0.01614 0.28048 0.92423 0.0
C383 C 0.00234 0.30406 0.92894 0.0
C384 C 0.00852 0.32945 0.8973 0.0
C385 C 0.02819 0.33045 0.86116 0.0
C386 C 0.04102 0.30684 0.85579 0.0
C387 C 0.06363 0.31494 0.81593 0.0
C388 C 0.10247 0.3236 0.82745 0.0
C389 C 0.04546 0.28384 0.7827 0.0
C390 C 0.06286 0.34771 0.80051 0.0
C391 C 0.04201 0.35611 0.82667 0.0
C392 C 0.03989 0.38707 0.82069 0.0
C393 C 0.06008 0.41026 0.78771 0.0
C394 C 0.08214 0.40239 0.76119 0.0
C395 C 0.08271 0.37024 0.76723 0.0
H396 H 0.73068 0.76183 0.94378 0.0
H397 H 0.81141 0.81143 0.84508 0.0
H398 H 0.76304 0.78972 0.78956 0.0
H399 H 0.67008 0.68293 0.88125 0.0
H400 H 0.62965 0.68042 0.90221 0.0
H401 H 0.67071 0.70022 0.93464 0.0
H402 H 0.66757 0.7585 0.94381 0.0
H403 H 0.6265 0.73888 0.91142 0.0
H404 H 0.66479 0.78104 0.89669 0.0
H405 H 0.70608 0.76257 0.74427 0.0
H406 H 0.64401 0.73154 0.71276 0.0
H407 H 0.60074 0.69971 0.84077 0.0
C408 C 0.73822 0.76824 0.91055 0.0
C409 C 0.77493 0.78836 0.89898 0.0
C410 C 0.78353 0.79597 0.85495 0.0
C411 C 0.75625 0.78381 0.82303 0.0
C412 C 0.72042 0.764 0.8355 0.0
C413 C 0.7113 0.75622 0.87814 0.0
C414 C 0.67066 0.73415 0.88275 0.0
C415 C 0.65964 0.69724 0.9013 0.0
C416 C 0.65656 0.75436 0.91029 0.0
C417 C 0.65848 0.7309 0.83608 0.0
C418 C 0.68756 0.74827 0.80932 0.0
C419 C 0.68301 0.74885 0.76487 0.0
C420 C 0.64766 0.73115 0.74728 0.0
C421 C 0.6174 0.71318 0.77417 0.0
C422 C 0.62315 0.71318 0.81916 0.0
H423 H 0.33748 0.91525 0.85085 0.0
H424 H 0.32278 0.95714 0.73071 0.0
H425 H 0.29741 0.9894 0.77068 0.0
H426 H 0.25526 0.89786 0.89579 0.0
H427 H 0.27314 0.90991 0.95016 0.0
H428 H 0.29338 0.8933 0.9126 0.0
H429 H 0.35591 0.95039 0.92648 0.0
H430 H 0.33582 0.96726 0.96407 0.0
H431 H 0.36055 0.99391 0.91915 0.0
H432 H 0.27277 0.01624 0.82409 0.0
H433 H 0.24491 0.03028 0.88518 0.0
H434 H 0.27233 0.96729 0.969 0.0
C435 C 0.32942 0.93161 0.83294 0.0
C436 C 0.33239 0.93397 0.78772 0.0
C437 C 0.32079 0.95503 0.7654 0.0
C438 C 0.30657 0.97359 0.78784 0.0
C439 C 0.30393 0.97056 0.83246 0.0
C440 C 0.31474 0.94981 0.85468 0.0
C441 C 0.30664 0.94875 0.90209 0.0
C442 C 0.28054 0.91016 0.91595 0.0
C443 C 0.34183 0.96611 0.92956 0.0
C444 C 0.28875 0.97144 0.90302 0.0
C445 C 0.28822 0.98451 0.86276 0.0
C446 C 0.27306 0.00617 0.85573 0.0
C447 C 0.25743 0.0141 0.8906 0.0
C448 C 0.25644 -0.00027 0.93161 0.0
C449 C 0.27264 0.97848 0.93789 0.0
H450 H 0.39603 0.09644 0.28678 0.0
H451 H 0.47693 0.13517 0.18715 0.0
H452 H 0.42865 0.11479 0.13167 0.0
H453 H 0.32893 0.017 0.22715 0.0
H454 H 0.29116 0.02018 0.24738 0.0
H455 H 0.33213 0.03699 0.27958 0.0
H456 H 0.33655 0.09914 0.28544 0.0
H457 H 0.29575 0.08261 0.25302 0.0
H458 H 0.33678 0.1218 0.23699 0.0
H459 H 0.3723 0.09235 0.08689 0.0
H460 H 0.31074 0.06673 0.05542 0.0
H461 H 0.26616 0.0421 0.18369 0.0
C462 C 0.40363 0.10045 0.25331 0.0
C463 C 0.44039 0.1175 0.24151 0.0
C464 C 0.44904 0.12219 0.19723 0.0
C465 C 0.42181 0.11074 0.16534 0.0
C466 C 0.38599 0.0945 0.17811 0.0
C467 C 0.37676 0.08909 0.22094 0.0
C468 C 0.33609 0.07107 0.22582 0.0
C469 C 0.3212 0.03412 0.24618 0.0
C470 C 0.3257 0.0951 0.25186 0.0
C471 C 0.32405 0.06759 0.17905 0.0
C472 C 0.35329 0.08127 0.15211 0.0
C473 C 0.34911 0.08141 0.10761 0.0
C474 C 0.314 0.06688 0.09007 0.0
C475 C 0.2835 0.05237 0.11701 0.0
C476 C 0.28881 0.05291 0.16213 0.0
H477 H 0.99043 0.2552 0.18078 0.0
H478 H 0.9881 0.29547 0.05405 0.0
H479 H 0.96472 0.3325 0.08534 0.0
H480 H 0.90746 0.24755 0.21486 0.0
H481 H 0.92214 0.26103 0.27005 0.0
H482 H 0.94155 0.23964 0.23866 0.0
H483 H 0.00579 0.29342 0.25502 0.0
H484 H 0.98654 0.31506 0.28636 0.0
H485 H 0.01568 0.33808 0.24229 0.0
H486 H 0.93999 0.36326 0.1284 0.0
H487 H 0.91114 0.38382 0.18047 0.0
H488 H 0.9271 0.32322 0.28054 0.0
C489 C 0.98536 0.27214 0.15977 0.0
C490 C 0.9912 0.27252 0.11495 0.0
C491 C 0.9837 0.29459 0.0884 0.0
C492 C 0.97064 0.31592 0.10591 0.0
C493 C 0.96499 0.3148 0.15002 0.0
C494 C 0.97182 0.29338 0.17669 0.0
C495 C 0.96108 0.29568 0.2226 0.0
C496 C 0.93128 0.25878 0.2374 0.0
C497 C 0.99426 0.31151 0.25338 0.0
C498 C 0.94673 0.32137 0.21727 0.0
C499 C 0.94976 0.33227 0.17515 0.0
C500 C 0.93752 0.35502 0.16152 0.0
C501 C 0.92104 0.36645 0.19145 0.0
C502 C 0.91663 0.35504 0.23468 0.0
C503 C 0.9303 0.33266 0.24789 0.0
H504 H 0.68848 0.6271 0.25165 0.0
H505 H 0.62452 0.54644 0.15306 0.0
H506 H 0.64873 0.59242 0.09802 0.0
H507 H 0.68039 0.7013 0.20175 0.0
H508 H 0.72624 0.73454 0.21687 0.0
H509 H 0.7011 0.69608 0.24998 0.0
H510 H 0.75213 0.68035 0.24371 0.0
H511 H 0.77736 0.71866 0.21063 0.0
H512 H 0.7662 0.67463 0.1911 0.0
H513 H 0.68503 0.64417 0.05225 0.0
H514 H 0.7301 0.70044 0.01882 0.0
H515 H 0.76896 0.74974 0.14529 0.0
C516 C 0.679 0.61926 0.21863 0.0
C517 C 0.65455 0.58295 0.20694 0.0
C518 C 0.64325 0.57389 0.16315 0.0
C519 C 0.65674 0.59989 0.13146 0.0
C520 C 0.68131 0.63513 0.14384 0.0
C521 C 0.69214 0.64507 0.18634 0.0
C522 C 0.72052 0.68462 0.19023 0.0
C523 C 0.7062 0.70536 0.21626 0.0
C524 C 0.75616 0.68985 0.21008 0.0
C525 C 0.72476 0.69485 0.14316 0.0
C526 C 0.70162 0.66581 0.11708 0.0
C527 C 0.70264 0.66738 0.07229 0.0
C528 C 0.72827 0.69934 0.05359 0.0
C529 C 0.75214 0.72938 0.07956 0.0
C530 C 0.75005 0.72736 0.12489 0.0
H531 H 0.06155 0.41682 0.59324 0.0
H532 H 0.14608 0.51165 0.5328 0.0
H533 H 0.10431 0.50361 0.47302 0.0
H534 H 0.02431 0.36567 0.49465 0.0
H535 H 0.97775 0.34468 0.51075 0.0
H536 H 0.01342 0.35829 0.55083 0.0
H537 H 0.99102 0.39662 0.59055 0.0
H538 H 0.95506 0.38285 0.55082 0.0
H539 H 0.98608 0.42986 0.56137 0.0
H540 H 0.0553 0.48607 0.41965 0.0
H541 H -0.00038 0.45961 0.37459 0.0
H542 H 0.94576 0.37441 0.46619 0.0
C543 C 0.07095 0.43597 0.56758 0.0
C544 C 0.10706 0.46476 0.56749 0.0
C545 C 0.11863 0.48918 0.53323 0.0
C546 C 0.09511 0.48495 0.49916 0.0
C547 C 0.06005 0.45599 0.4995 0.0
C548 C 0.04777 0.43185 0.53263 0.0
C549 C 0.00881 0.40258 0.5238 0.0
C550 C 0.00592 0.36562 0.51977 0.0
C551 C 0.98376 0.40303 0.55871 0.0
C552 C 0.00141 0.41428 0.48074 0.0
C553 C 0.03145 0.44524 0.46761 0.0
C554 C 0.03152 0.46178 0.42943 0.0
C555 C -0.00022 0.44652 0.40404 0.0
C556 C 0.96848 0.41492 0.41677 0.0
C557 C 0.96945 0.3984 0.45545 0.0
H558 H 0.6354 0.56928 0.45883 0.0
H559 H 0.61861 0.62804 0.35786 0.0
H560 H 0.60596 0.66248 0.41284 0.0
H561 H 0.56179 0.55707 0.51885 0.0
H562 H 0.58256 0.56049 0.57093 0.0
H563 H 0.59665 0.54526 0.52477 0.0
H564 H 0.66313 0.59541 0.5391 0.0
H565 H 0.64927 0.61077 0.58551 0.0
H566 H 0.67372 0.64144 0.5434 0.0
H567 H 0.5919 0.6876 0.47797 0.0
H568 H 0.57081 0.69771 0.54734 0.0
H569 H 0.59084 0.61818 0.60594 0.0
C570 C 0.63015 0.59023 0.44863 0.0
C571 C 0.62892 0.59704 0.40456 0.0
C572 C 0.62036 0.62326 0.39172 0.0
C573 C 0.61324 0.64287 0.42267 0.0
C574 C 0.61417 0.63525 0.46606 0.0
C575 C 0.62203 0.60929 0.47904 0.0
C576 C 0.61679 0.60313 0.52701 0.0
C577 C 0.58771 0.56418 0.53588 0.0
C578 C 0.65288 0.6133 0.55012 0.0
C579 C 0.60398 0.62913 0.53889 0.0
C580 C 0.60359 0.648 0.50341 0.0
C581 C 0.59223 0.67311 0.50599 0.0
C582 C 0.58034 0.67867 0.54563 0.0
C583 C 0.57914 0.65868 0.58206 0.0
C584 C 0.59152 0.63387 0.57868 0.0
H585 H 0.3937 0.99508 0.62356 0.0
H586 H 0.31652 0.89963 0.55137 0.0
H587 H 0.32656 0.93588 0.48652 0.0
H588 H 0.36937 0.05778 0.56759 0.0
H589 H 0.4158 0.09374 0.57021 0.0
H590 H 0.39856 0.06103 0.61201 0.0
H591 H 0.45039 0.04728 0.59905 0.0
H592 H 0.46758 0.07961 0.55712 0.0
H593 H 0.45618 0.03395 0.5458 0.0
H594 H 0.35462 0.98012 0.427 0.0
H595 H 0.3928 0.03063 0.37959 0.0
H596 H 0.44671 0.09836 0.49169 0.0
C597 C 0.37814 0.98207 0.5944 0.0
C598 C 0.35433 0.94467 0.5923 0.0
C599 C 0.3346 0.92836 0.55365 0.0
C600 C 0.34021 0.94872 0.51668 0.0
C601 C 0.36482 0.98546 0.51937 0.0
C602 C 0.38274 0.00214 0.55759 0.0
C603 C 0.40918 0.04158 0.55152 0.0
C604 C 0.39752 0.06491 0.57683 0.0
C605 C 0.44812 0.05113 0.5641 0.0
C606 C 0.40487 0.0441 0.50349 0.0
C607 C 0.37911 0.01146 0.48544 0.0
C608 C 0.37386 0.00611 0.44089 0.0
C609 C 0.39562 0.03477 0.41423 0.0
C610 C 0.42164 0.06832 0.43235 0.0
C611 C 0.42588 0.07321 0.47739 0.0
loop_
_geom_bond_atom_site_label_1
_geom_bond_atom_site_label_2
_geom_bond_distance
_geom_bond_site_symmetry_2
_ccdc_geom_bond_type
Co0 O1 2.216 1_554 S
Co0 O2 2.091 1_554 S
Co0 O4 2.004 1_454 S
Co0 O10 2.021 1_455 S
Co0 O12 2.137 1_554 S
Co0 O13 2.244 . S
O1 Co0 2.216 1_556 S
O1 C8 1.247 . S
O2 Co0 2.091 1_556 S
O2 C8 1.261 . S
C3 O12 1.247 1_554 S
C3 O13 1.272 . S
O4 Co0 2.004 1_656 S
O4 C9 1.259 1_556 S
Co5 O6 2.061 1_455 S
Co5 O11 2.052 . S
Co5 O13 2.135 . S
O6 Co5 2.061 1_655 S
O6 C9 1.235 . S
C7 O10 1.238 . S
C7 O11 1.241 1_655 S
C8 O1 1.247 . S
C8 O2 1.261 . S
C9 O4 1.259 1_554 S
C9 O6 1.235 . S
O10 Co0 2.021 1_655 S
O10 C7 1.238 . S
O11 Co5 2.052 . S
O11 C7 1.241 1_455 S
O12 Co0 2.137 1_556 S
O12 C3 1.247 1_556 S
O13 Co0 2.244 . S
O13 C3 1.272 . S
O13 Co5 2.135 . S
Co14 O15 2.216 . S
Co14 O16 2.091 . S
Co14 O18 2.004 . S
Co14 O24 2.034 . S
Co14 O26 2.137 . S
Co14 O27 2.244 1_554 S
O15 Co14 2.216 . S
O15 C22 1.247 . S
O16 Co14 2.091 . S
O16 C22 1.261 . S
C17 O26 1.247 . S
C17 O27 1.272 1_554 S
O18 Co14 2.004 . S
O18 C23 1.259 . S
Co19 O20 2.061 . S
Co19 O25 2.052 . S
Co19 O27 2.135 . S
O20 Co19 2.061 . S
O20 C23 1.235 1_556 S
C21 O24 1.215 1_556 S
C21 O25 1.241 . S
C22 O15 1.247 . S
C22 O16 1.261 . S
C23 O18 1.259 . S
C23 O20 1.235 1_554 S
O24 Co14 2.034 . S
O24 C21 1.215 1_554 S
O25 Co19 2.052 . S
O25 C21 1.241 . S
O26 Co14 2.137 . S
O26 C17 1.247 . S
O27 Co14 2.244 1_556 S
O27 C17 1.272 1_556 S
O27 Co19 2.135 . S
Co28 O29 2.216 1_544 S
Co28 O30 2.091 1_554 S
Co28 O32 2.004 1_554 S
Co28 O38 2.021 . S
Co28 O40 2.137 1_544 S
Co28 O41 2.244 1_545 S
O29 Co28 2.216 1_566 S
O29 C36 1.247 . S
O30 Co28 2.091 1_556 S
O30 C36 1.261 1_545 S
C31 O40 1.247 1_554 S
C31 O41 1.272 . S
O32 Co28 2.004 1_556 S
O32 C37 1.259 1_556 S
Co33 O34 2.061 . S
Co33 O39 2.052 . S
Co33 O41 2.135 1_545 S
O34 Co33 2.061 . S
O34 C37 1.235 . S
C35 O38 1.238 . S
C35 O39 1.241 . S
C36 O29 1.247 . S
C36 O30 1.261 1_565 S
C37 O32 1.259 1_554 S
C37 O34 1.235 . S
O38 Co28 2.021 . S
O38 C35 1.238 . S
O39 Co33 2.052 . S
O39 C35 1.241 . S
O40 Co28 2.137 1_566 S
O40 C31 1.247 1_556 S
O41 Co28 2.244 1_565 S
O41 C31 1.272 . S
O41 Co33 2.135 1_565 S
Co42 O43 2.216 . S
Co42 O44 2.091 . S
Co42 O46 2.004 . S
Co42 O52 2.021 . S
Co42 O54 2.137 . S
Co42 O55 2.244 . S
O43 Co42 2.216 . S
O43 C50 1.247 . S
O44 Co42 2.091 . S
O44 C50 1.261 . S
C45 O54 1.247 . S
C45 O55 1.272 . S
O46 Co42 2.004 . S
O46 C51 1.259 . S
Co47 O48 2.061 . S
Co47 O53 2.052 . S
Co47 O55 2.135 . S
O48 Co47 2.061 . S
O48 C51 1.235 . S
C49 O52 1.238 . S
C49 O53 1.241 . S
C50 O43 1.247 . S
C50 O44 1.261 . S
C51 O46 1.259 . S
C51 O48 1.235 . S
O52 Co42 2.021 . S
O52 C49 1.238 . S
O53 Co47 2.052 . S
O53 C49 1.241 . S
O54 Co42 2.137 . S
O54 C45 1.247 . S
O55 Co42 2.244 . S
O55 C45 1.272 . S
O55 Co47 2.135 . S
Co56 O57 2.216 . S
Co56 O58 2.091 . S
Co56 O60 2.004 . S
Co56 O66 2.021 . S
Co56 O68 2.137 . S
Co56 O69 2.244 . S
O57 Co56 2.216 . S
O57 C64 1.247 . S
O58 Co56 2.091 . S
O58 C64 1.261 . S
C59 O68 1.247 . S
C59 O69 1.272 . S
O60 Co56 2.004 . S
O60 C65 1.259 . S
Co61 O62 2.061 . S
Co61 O67 2.052 . S
Co61 O69 2.135 . S
O62 Co61 2.061 . S
O62 C65 1.235 . S
C63 O66 1.238 . S
C63 O67 1.241 . S
C64 O57 1.247 . S
C64 O58 1.261 . S
C65 O60 1.259 . S
C65 O62 1.235 . S
O66 Co56 2.021 . S
O66 C63 1.238 . S
O67 Co61 2.052 . S
O67 C63 1.241 . S
O68 Co56 2.137 . S
O68 C59 1.247 . S
O69 Co56 2.244 . S
O69 C59 1.272 . S
O69 Co61 2.135 . S
Co70 O71 2.216 . S
Co70 O72 2.091 . S
Co70 O74 2.004 . S
Co70 O80 2.021 . S
Co70 O82 2.137 . S
Co70 O83 2.244 . S
O71 Co70 2.216 . S
O71 C78 1.247 . S
O72 Co70 2.091 . S
O72 C78 1.261 . S
C73 O82 1.247 . S
C73 O83 1.272 . S
O74 Co70 2.004 . S
O74 C79 1.259 . S
Co75 O76 2.061 . S
Co75 O81 2.052 . S
Co75 O83 2.135 . S
O76 Co75 2.061 . S
O76 C79 1.235 . S
C77 O80 1.238 . S
C77 O81 1.241 . S
C78 O71 1.247 . S
C78 O72 1.261 . S
C79 O74 1.259 . S
C79 O76 1.235 . S
O80 Co70 2.021 . S
O80 C77 1.238 . S
O81 Co75 2.052 . S
O81 C77 1.241 . S
O82 Co70 2.137 . S
O82 C73 1.247 . S
O83 Co70 2.244 . S
O83 C73 1.272 . S
O83 Co75 2.135 . S
Co84 O85 2.216 . S
Co84 O86 2.091 . S
Co84 O88 2.004 . S
Co84 O94 2.021 . S
Co84 O96 2.137 . S
Co84 O97 2.244 . S
O85 Co84 2.216 . S
O85 C92 1.247 . S
O86 Co84 2.091 . S
O86 C92 1.261 . S
C87 O96 1.247 . S
C87 O97 1.272 . S
O88 Co84 2.004 . S
O88 C93 1.259 . S
Co89 O90 2.061 . S
Co89 O95 2.052 . S
Co89 O97 2.135 . S
O90 Co89 2.061 . S
O90 C93 1.235 . S
C91 O94 1.238 . S
C91 O95 1.241 . S
C92 O85 1.247 . S
C92 O86 1.261 . S
C93 O88 1.259 . S
C93 O90 1.235 . S
O94 Co84 2.021 . S
O94 C91 1.238 . S
O95 Co89 2.052 . S
O95 C91 1.241 . S
O96 Co84 2.137 . S
O96 C87 1.247 . S
O97 Co84 2.244 . S
O97 C87 1.272 . S
O97 Co89 2.135 . S
Co98 O99 2.216 . S
Co98 O100 2.091 . S
Co98 O102 2.004 . S
Co98 O108 2.021 . S
Co98 O110 2.137 . S
Co98 O111 2.244 . S
O99 Co98 2.216 . S
O99 C106 1.247 . S
O100 Co98 2.091 . S
O100 C106 1.261 . S
C101 O110 1.247 . S
C101 O111 1.272 . S
O102 Co98 2.004 . S
O102 C107 1.259 . S
Co103 O104 2.061 . S
Co103 O109 2.052 . S
Co103 O111 2.135 . S
O104 Co103 2.061 . S
O104 C107 1.235 . S
C105 O108 1.238 . S
C105 O109 1.241 . S
C106 O99 1.247 . S
C106 O100 1.261 . S
C107 O102 1.259 . S
C107 O104 1.235 . S
O108 Co98 2.021 . S
O108 C105 1.238 . S
O109 Co103 2.052 . S
O109 C105 1.241 . S
O110 Co98 2.137 . S
O110 C101 1.247 . S
O111 Co98 2.244 . S
O111 C101 1.272 . S
O111 Co103 2.135 . S
Co112 O113 2.216 . S
Co112 O114 2.091 . S
Co112 O116 2.004 . S
Co112 O122 2.021 . S
Co112 O124 2.137 . S
Co112 O125 2.244 . S
O113 Co112 2.216 . S
O113 C120 1.247 . S
O114 Co112 2.091 . S
O114 C120 1.261 . S
C115 O124 1.247 . S
C115 O125 1.272 . S
O116 Co112 2.004 . S
O116 C121 1.259 . S
Co117 O118 2.061 . S
Co117 O123 2.052 . S
Co117 O125 2.135 . S
O118 Co117 2.061 . S
O118 C121 1.235 . S
C119 O122 1.238 . S
C119 O123 1.241 . S
C120 O113 1.247 . S
C120 O114 1.261 . S
C121 O116 1.259 . S
C121 O118 1.235 . S
O122 Co112 2.021 . S
O122 C119 1.238 . S
O123 Co117 2.052 . S
O123 C119 1.241 . S
O124 Co112 2.137 . S
O124 C115 1.247 . S
O125 Co112 2.244 . S
O125 C115 1.272 . S
O125 Co117 2.135 . S
H126 C138 0.930 . S
H127 C140 0.930 . S
H128 C141 0.930 . S
H129 C145 0.959 . S
H130 C145 0.959 . S
H131 C145 0.961 . S
H132 C146 0.960 . S
H133 C146 0.961 . S
H134 C146 0.959 . S
H135 C149 0.929 . S
H136 C150 0.931 . S
H137 C152 0.930 . S
C138 H126 0.930 . S
C138 C139 1.399 . S
C138 C143 1.399 . S
C139 C138 1.399 . S
C139 C140 1.376 1_554 S
C140 H127 0.930 . S
C140 C139 1.376 1_556 S
C140 C141 1.388 . S
C141 H128 0.930 . S
C141 C140 1.388 . S
C141 C142 1.390 1_556 S
C142 C141 1.390 1_554 S
C142 C143 1.394 . S
C142 C148 1.465 . S
C143 C138 1.399 . S
C143 C142 1.394 . S
C143 C144 1.516 . S
C144 C143 1.516 . S
C144 C145 1.502 . S
C144 C146 1.561 . S
C144 C147 1.526 . S
C145 H129 0.959 . S
C145 H130 0.959 . S
C145 H131 0.961 . S
C145 C144 1.502 . S
C146 H132 0.960 . S
C146 H133 0.961 . S
C146 H134 0.959 . S
C146 C144 1.561 . S
C147 C144 1.526 . S
C147 C148 1.396 . S
C147 C152 1.390 . S
C148 C142 1.465 . S
C148 C147 1.396 . S
C148 C149 1.399 1_554 S
C149 H135 0.929 . S
C149 C148 1.399 1_556 S
C149 C150 1.385 . S
C150 H136 0.931 . S
C150 C149 1.385 . S
C150 C151 1.389 1_556 S
C151 C150 1.389 1_554 S
C151 C152 1.387 . S
C152 H137 0.930 . S
C152 C147 1.390 . S
C152 C151 1.387 . S
H153 C165 0.930 . S
H154 C167 0.930 . S
H155 C168 0.930 . S
H156 C172 0.959 . S
H157 C172 0.959 . S
H158 C172 0.961 1_565 S
H159 C173 0.960 1_565 S
H160 C173 0.961 . S
H161 C173 0.959 . S
H162 C176 0.929 . S
H163 C177 0.931 . S
H164 C179 0.930 . S
C165 H153 0.930 . S
C165 C166 1.399 . S
C165 C170 1.399 . S
C166 C165 1.399 . S
C166 C167 1.376 1_554 S
C167 H154 0.930 . S
C167 C166 1.376 1_556 S
C167 C168 1.388 . S
C168 H155 0.930 . S
C168 C167 1.388 . S
C168 C169 1.390 1_556 S
C169 C168 1.390 1_554 S
C169 C170 1.394 . S
C169 C175 1.465 1_565 S
C170 C165 1.399 . S
C170 C169 1.394 . S
C170 C171 1.516 1_565 S
C171 C170 1.516 1_545 S
C171 C172 1.502 . S
C171 C173 1.561 . S
C171 C174 1.526 . S
C172 H156 0.959 . S
C172 H157 0.959 . S
C172 H158 0.961 1_545 S
C172 C171 1.502 . S
C173 H159 0.960 1_545 S
C173 H160 0.961 . S
C173 H161 0.959 . S
C173 C171 1.561 . S
C174 C171 1.526 . S
C174 C175 1.396 . S
C174 C179 1.390 . S
C175 C169 1.465 1_545 S
C175 C174 1.396 . S
C175 C176 1.399 1_554 S
C176 H162 0.929 . S
C176 C175 1.399 1_556 S
C176 C177 1.385 . S
C177 H163 0.931 . S
C177 C176 1.385 . S
C177 C178 1.389 1_556 S
C178 C177 1.389 1_554 S
C178 C179 1.387 . S
C179 H164 0.930 . S
C179 C174 1.390 . S
C179 C178 1.387 . S
H180 C192 0.930 . S
H181 C194 0.930 . S
H182 C195 0.930 . S
H183 C199 0.959 . S
H184 C199 0.959 . S
H185 C199 0.961 1_655 S
H186 C200 0.960 1_655 S
H187 C200 0.961 . S
H188 C200 0.959 . S
H189 C203 0.929 . S
H190 C204 0.931 . S
H191 C206 0.930 . S
C192 H180 0.930 . S
C192 C193 1.399 . S
C192 C197 1.399 . S
C193 C192 1.399 . S
C193 C194 1.376 1_554 S
C194 H181 0.930 . S
C194 C193 1.376 1_556 S
C194 C195 1.388 . S
C195 H182 0.930 . S
C195 C194 1.388 . S
C195 C196 1.390 1_556 S
C196 C195 1.390 1_554 S
C196 C197 1.394 . S
C196 C202 1.465 1_655 S
C197 C192 1.399 . S
C197 C196 1.394 . S
C197 C198 1.516 1_655 S
C198 C197 1.516 1_455 S
C198 C199 1.502 . S
C198 C200 1.561 . S
C198 C201 1.526 . S
C199 H183 0.959 . S
C199 H184 0.959 . S
C199 H185 0.961 1_455 S
C199 C198 1.502 . S
C200 H186 0.960 1_455 S
C200 H187 0.961 . S
C200 H188 0.959 . S
C200 C198 1.561 . S
C201 C198 1.526 . S
C201 C202 1.396 . S
C201 C206 1.390 . S
C202 C196 1.465 1_455 S
C202 C201 1.396 . S
C202 C203 1.399 1_554 S
C203 H189 0.929 . S
C203 C202 1.399 1_556 S
C203 C204 1.385 . S
C204 H190 0.931 . S
C204 C203 1.385 . S
C204 C205 1.389 1_556 S
C205 C204 1.389 1_554 S
C205 C206 1.387 . S
C206 H191 0.930 . S
C206 C201 1.390 . S
C206 C205 1.387 . S
H207 C219 0.930 . S
H208 C221 0.930 . S
H209 C222 0.930 . S
H210 C226 0.959 . S
H211 C226 0.959 . S
H212 C226 0.961 . S
H213 C227 0.960 . S
H214 C227 0.961 . S
H215 C227 0.959 . S
H216 C230 0.929 . S
H217 C231 0.931 . S
H218 C233 0.930 . S
C219 H207 0.930 . S
C219 C220 1.399 . S
C219 C224 1.399 . S
C220 C219 1.399 . S
C220 C221 1.376 . S
C221 H208 0.930 . S
C221 C220 1.376 . S
C221 C222 1.388 . S
C222 H209 0.930 . S
C222 C221 1.388 . S
C222 C223 1.390 . S
C223 C222 1.390 . S
C223 C224 1.394 . S
C223 C229 1.465 . S
C224 C219 1.399 . S
C224 C223 1.394 . S
C224 C225 1.516 . S
C225 C224 1.516 . S
C225 C226 1.502 . S
C225 C227 1.561 . S
C225 C228 1.526 . S
C226 H210 0.959 . S
C226 H211 0.959 . S
C226 H212 0.961 . S
C226 C225 1.502 . S
C227 H213 0.960 . S
C227 H214 0.961 . S
C227 H215 0.959 . S
C227 C225 1.561 . S
C228 C225 1.526 . S
C228 C229 1.396 . S
C228 C233 1.390 . S
C229 C223 1.465 . S
C229 C228 1.396 . S
C229 C230 1.399 . S
C230 H216 0.929 . S
C230 C229 1.399 . S
C230 C231 1.385 . S
C231 H217 0.931 . S
C231 C230 1.385 . S
C231 C232 1.389 . S
C232 C231 1.389 . S
C232 C233 1.387 . S
C233 H218 0.930 . S
C233 C228 1.390 . S
C233 C232 1.387 . S
H234 C246 0.930 . S
H235 C248 0.930 . S
H236 C249 0.930 . S
H237 C253 0.959 . S
H238 C253 0.959 . S
H239 C253 0.961 . S
H240 C254 0.960 . S
H241 C254 0.961 . S
H242 C254 0.959 . S
H243 C257 0.929 . S
H244 C258 0.931 . S
H245 C260 0.930 . S
C246 H234 0.930 . S
C246 C247 1.399 . S
C246 C251 1.399 . S
C247 C246 1.399 . S
C247 C248 1.376 . S
C248 H235 0.930 . S
C248 C247 1.376 . S
C248 C249 1.388 . S
C249 H236 0.930 . S
C249 C248 1.388 . S
C249 C250 1.390 . S
C250 C249 1.390 . S
C250 C251 1.394 . S
C250 C256 1.465 . S
C251 C246 1.399 . S
C251 C250 1.394 . S
C251 C252 1.516 . S
C252 C251 1.516 . S
C252 C253 1.502 . S
C252 C254 1.561 . S
C252 C255 1.526 . S
C253 H237 0.959 . S
C253 H238 0.959 . S
C253 H239 0.961 . S
C253 C252 1.502 . S
C254 H240 0.960 . S
C254 H241 0.961 . S
C254 H242 0.959 . S
C254 C252 1.561 . S
C255 C252 1.526 . S
C255 C256 1.396 . S
C255 C260 1.390 . S
C256 C250 1.465 . S
C256 C255 1.396 . S
C256 C257 1.399 . S
C257 H243 0.929 . S
C257 C256 1.399 . S
C257 C258 1.385 . S
C258 H244 0.931 . S
C258 C257 1.385 . S
C258 C259 1.389 . S
C259 C258 1.389 . S
C259 C260 1.387 . S
C260 H245 0.930 . S
C260 C255 1.390 . S
C260 C259 1.387 . S
H261 C273 0.930 . S
H262 C275 0.930 . S
H263 C276 0.930 . S
H264 C280 0.959 . S
H265 C280 0.959 . S
H266 C280 0.961 . S
H267 C281 0.960 . S
H268 C281 0.961 . S
H269 C281 0.959 . S
H270 C284 0.929 . S
H271 C285 0.931 . S
H272 C287 0.930 . S
C273 H261 0.930 . S
C273 C274 1.399 . S
C273 C278 1.399 . S
C274 C273 1.399 . S
C274 C275 1.376 . S
C275 H262 0.930 . S
C275 C274 1.376 . S
C275 C276 1.388 . S
C276 H263 0.930 . S
C276 C275 1.388 . S
C276 C277 1.390 . S
C277 C276 1.390 . S
C277 C278 1.394 . S
C277 C283 1.465 . S
C278 C273 1.399 . S
C278 C277 1.394 . S
C278 C279 1.516 . S
C279 C278 1.516 . S
C279 C280 1.502 . S
C279 C281 1.561 . S
C279 C282 1.526 . S
C280 H264 0.959 . S
C280 H265 0.959 . S
C280 H266 0.961 . S
C280 C279 1.502 . S
C281 H267 0.960 . S
C281 H268 0.961 . S
C281 H269 0.959 . S
C281 C279 1.561 . S
C282 C279 1.526 . S
C282 C283 1.396 . S
C282 C287 1.390 . S
C283 C277 1.465 . S
C283 C282 1.396 . S
C283 C284 1.399 . S
C284 H270 0.929 . S
C284 C283 1.399 . S
C284 C285 1.385 . S
C285 H271 0.931 . S
C285 C284 1.385 . S
C285 C286 1.389 . S
C286 C285 1.389 . S
C286 C287 1.387 . S
C287 H272 0.930 . S
C287 C282 1.390 . S
C287 C286 1.387 . S
H288 C300 0.930 . S
H289 C302 0.930 . S
H290 C303 0.930 . S
H291 C307 0.959 . S
H292 C307 0.959 . S
H293 C307 0.961 . S
H294 C308 0.960 . S
H295 C308 0.961 . S
H296 C308 0.959 . S
H297 C311 0.929 . S
H298 C312 0.931 . S
H299 C314 0.930 . S
C300 H288 0.930 . S
C300 C301 1.399 . S
C300 C305 1.399 . S
C301 C300 1.399 . S
C301 C302 1.376 . S
C302 H289 0.930 . S
C302 C301 1.376 . S
C302 C303 1.388 . S
C303 H290 0.930 . S
C303 C302 1.388 . S
C303 C304 1.390 . S
C304 C303 1.390 . S
C304 C305 1.394 . S
C304 C310 1.465 . S
C305 C300 1.399 . S
C305 C304 1.394 . S
C305 C306 1.516 . S
C306 C305 1.516 . S
C306 C307 1.502 . S
C306 C308 1.561 . S
C306 C309 1.526 . S
C307 H291 0.959 . S
C307 H292 0.959 . S
C307 H293 0.961 . S
C307 C306 1.502 . S
C308 H294 0.960 . S
C308 H295 0.961 . S
C308 H296 0.959 . S
C308 C306 1.561 . S
C309 C306 1.526 . S
C309 C310 1.396 . S
C309 C314 1.390 . S
C310 C304 1.465 . S
C310 C309 1.396 . S
C310 C311 1.399 . S
C311 H297 0.929 . S
C311 C310 1.399 . S
C311 C312 1.385 . S
C312 H298 0.931 . S
C312 C311 1.385 . S
C312 C313 1.389 . S
C313 C312 1.389 . S
C313 C314 1.387 . S
C314 H299 0.930 . S
C314 C309 1.390 . S
C314 C313 1.387 . S
H315 C327 0.930 . S
H316 C329 0.930 . S
H317 C330 0.930 . S
H318 C334 0.959 . S
H319 C334 0.959 . S
H320 C334 0.961 . S
H321 C335 0.960 . S
H322 C335 0.961 . S
H323 C335 0.959 . S
H324 C338 0.929 . S
H325 C339 0.931 . S
H326 C341 0.930 . S
C327 H315 0.930 . S
C327 C328 1.399 . S
C327 C332 1.399 . S
C328 C327 1.399 . S
C328 C329 1.376 . S
C329 H316 0.930 . S
C329 C328 1.376 . S
C329 C330 1.388 . S
C330 H317 0.930 . S
C330 C329 1.388 . S
C330 C331 1.390 . S
C331 C330 1.390 . S
C331 C332 1.394 . S
C331 C337 1.465 . S
C332 C327 1.399 . S
C332 C331 1.394 . S
C332 C333 1.516 . S
C333 C332 1.516 . S
C333 C334 1.502 . S
C333 C335 1.561 . S
C333 C336 1.526 . S
C334 H318 0.959 . S
C334 H319 0.959 . S
C334 H320 0.961 . S
C334 C333 1.502 . S
C335 H321 0.960 . S
C335 H322 0.961 . S
C335 H323 0.959 . S
C335 C333 1.561 . S
C336 C333 1.526 . S
C336 C337 1.396 . S
C336 C341 1.390 . S
C337 C331 1.465 . S
C337 C336 1.396 . S
C337 C338 1.399 . S
C338 H324 0.929 . S
C338 C337 1.399 . S
C338 C339 1.385 . S
C339 H325 0.931 . S
C339 C338 1.385 . S
C339 C340 1.389 . S
C340 C339 1.389 . S
C340 C341 1.387 . S
C341 H326 0.930 . S
C341 C336 1.390 . S
C341 C340 1.387 . S
H342 C354 0.930 . S
H343 C356 0.930 . S
H344 C357 0.930 . S
H345 C361 0.959 . S
H346 C361 0.959 . S
H347 C361 0.961 . S
H348 C362 0.960 . S
H349 C362 0.961 . S
H350 C362 0.959 . S
H351 C365 0.929 . S
H352 C366 0.931 . S
H353 C368 0.930 . S
C354 H342 0.930 . S
C354 C355 1.399 . S
C354 C359 1.399 . S
C355 C354 1.399 . S
C355 C356 1.376 . S
C356 H343 0.930 . S
C356 C355 1.376 . S
C356 C357 1.388 . S
C357 H344 0.930 . S
C357 C356 1.388 . S
C357 C358 1.390 . S
C358 C357 1.390 . S
C358 C359 1.394 . S
C358 C364 1.465 . S
C359 C354 1.399 . S
C359 C358 1.394 . S
C359 C360 1.516 . S
C360 C359 1.516 . S
C360 C361 1.502 . S
C360 C362 1.561 . S
C360 C363 1.526 . S
C361 H345 0.959 . S
C361 H346 0.959 . S
C361 H347 0.961 . S
C361 C360 1.502 . S
C362 H348 0.960 . S
C362 H349 0.961 . S
C362 H350 0.959 . S
C362 C360 1.561 . S
C363 C360 1.526 . S
C363 C364 1.396 . S
C363 C368 1.390 . S
C364 C358 1.465 . S
C364 C363 1.396 . S
C364 C365 1.399 . S
C365 H351 0.929 . S
C365 C364 1.399 . S
C365 C366 1.385 . S
C366 H352 0.931 . S
C366 C365 1.385 . S
C366 C367 1.389 . S
C367 C366 1.389 . S
C367 C368 1.387 . S
C368 H353 0.930 . S
C368 C363 1.390 . S
C368 C367 1.387 . S
H369 C381 0.930 . S
H370 C383 0.930 . S
H371 C384 0.930 . S
H372 C388 0.959 . S
H373 C388 0.959 . S
H374 C388 0.961 . S
H375 C389 0.960 . S
H376 C389 0.961 . S
H377 C389 0.959 . S
H378 C392 0.929 . S
H379 C393 0.931 . S
H380 C395 0.930 . S
C381 H369 0.930 . S
C381 C382 1.399 . S
C381 C386 1.399 . S
C382 C381 1.399 . S
C382 C383 1.376 . S
C383 H370 0.930 . S
C383 C382 1.376 . S
C383 C384 1.388 . S
C384 H371 0.930 . S
C384 C383 1.388 . S
C384 C385 1.390 . S
C385 C384 1.390 . S
C385 C386 1.394 . S
C385 C391 1.465 . S
C386 C381 1.399 . S
C386 C385 1.394 . S
C386 C387 1.516 . S
C387 C386 1.516 . S
C387 C388 1.502 . S
C387 C389 1.561 . S
C387 C390 1.526 . S
C388 H372 0.959 . S
C388 H373 0.959 . S
C388 H374 0.961 . S
C388 C387 1.502 . S
C389 H375 0.960 . S
C389 H376 0.961 . S
C389 H377 0.959 . S
C389 C387 1.561 . S
C390 C387 1.526 . S
C390 C391 1.396 . S
C390 C395 1.390 . S
C391 C385 1.465 . S
C391 C390 1.396 . S
C391 C392 1.399 . S
C392 H378 0.929 . S
C392 C391 1.399 . S
C392 C393 1.385 . S
C393 H379 0.931 . S
C393 C392 1.385 . S
C393 C394 1.389 . S
C394 C393 1.389 . S
C394 C395 1.387 . S
C395 H380 0.930 . S
C395 C390 1.390 . S
C395 C394 1.387 . S
H396 C408 0.930 . S
H397 C410 0.930 . S
H398 C411 0.930 . S
H399 C415 0.959 . S
H400 C415 0.959 . S
H401 C415 0.961 . S
H402 C416 0.960 . S
H403 C416 0.961 . S
H404 C416 0.959 . S
H405 C419 0.929 . S
H406 C420 0.931 . S
H407 C422 0.930 . S
C408 H396 0.930 . S
C408 C409 1.399 . S
C408 C413 1.399 . S
C409 C408 1.399 . S
C409 C410 1.376 . S
C410 H397 0.930 . S
C410 C409 1.376 . S
C410 C411 1.388 . S
C411 H398 0.930 . S
C411 C410 1.388 . S
C411 C412 1.390 . S
C412 C411 1.390 . S
C412 C413 1.394 . S
C412 C418 1.465 . S
C413 C408 1.399 . S
C413 C412 1.394 . S
C413 C414 1.516 . S
C414 C413 1.516 . S
C414 C415 1.502 . S
C414 C416 1.561 . S
C414 C417 1.526 . S
C415 H399 0.959 . S
C415 H400 0.959 . S
C415 H401 0.961 . S
C415 C414 1.502 . S
C416 H402 0.960 . S
C416 H403 0.961 . S
C416 H404 0.959 . S
C416 C414 1.561 . S
C417 C414 1.526 . S
C417 C418 1.396 . S
C417 C422 1.390 . S
C418 C412 1.465 . S
C418 C417 1.396 . S
C418 C419 1.399 . S
C419 H405 0.929 . S
C419 C418 1.399 . S
C419 C420 1.385 . S
C420 H406 0.931 . S
C420 C419 1.385 . S
C420 C421 1.389 . S
C421 C420 1.389 . S
C421 C422 1.387 . S
C422 H407 0.930 . S
C422 C417 1.390 . S
C422 C421 1.387 . S
H423 C435 0.930 . S
H424 C437 0.930 . S
H425 C438 0.930 . S
H426 C442 0.959 . S
H427 C442 0.959 1_545 S
H428 C442 0.961 1_545 S
H429 C443 0.960 . S
H430 C443 0.961 . S
H431 C443 0.959 . S
H432 C446 0.929 . S
H433 C447 0.931 . S
H434 C449 0.930 1_545 S
C435 H423 0.930 . S
C435 C436 1.399 . S
C435 C440 1.399 . S
C436 C435 1.399 . S
C436 C437 1.376 . S
C437 H424 0.930 . S
C437 C436 1.376 . S
C437 C438 1.388 . S
C438 H425 0.930 . S
C438 C437 1.388 . S
C438 C439 1.390 . S
C439 C438 1.390 . S
C439 C440 1.394 . S
C439 C445 1.465 . S
C440 C435 1.399 . S
C440 C439 1.394 . S
C440 C441 1.516 . S
C441 C440 1.516 . S
C441 C442 1.502 . S
C441 C443 1.561 1_565 S
C441 C444 1.526 . S
C442 H426 0.959 . S
C442 H427 0.959 1_565 S
C442 H428 0.961 1_565 S
C442 C441 1.502 . S
C443 H429 0.960 . S
C443 H430 0.961 . S
C443 H431 0.959 . S
C443 C441 1.561 1_545 S
C444 C441 1.526 . S
C444 C445 1.396 . S
C444 C449 1.390 . S
C445 C439 1.465 . S
C445 C444 1.396 . S
C445 C446 1.399 . S
C446 H432 0.929 . S
C446 C445 1.399 . S
C446 C447 1.385 . S
C447 H433 0.931 . S
C447 C446 1.385 . S
C447 C448 1.389 . S
C448 C447 1.389 . S
C448 C449 1.387 . S
C449 H434 0.930 1_565 S
C449 C444 1.390 . S
C449 C448 1.387 . S
H450 C462 0.930 . S
H451 C464 0.930 . S
H452 C465 0.930 . S
H453 C469 0.959 . S
H454 C469 0.959 1_565 S
H455 C469 0.961 . S
H456 C470 0.960 . S
H457 C470 0.961 . S
H458 C470 0.959 . S
H459 C473 0.929 . S
H460 C474 0.931 . S
H461 C476 0.930 . S
C462 H450 0.930 . S
C462 C463 1.399 . S
C462 C467 1.399 . S
C463 C462 1.399 . S
C463 C464 1.376 . S
C464 H451 0.930 . S
C464 C463 1.376 . S
C464 C465 1.388 . S
C465 H452 0.930 . S
C465 C464 1.388 . S
C465 C466 1.390 . S
C466 C465 1.390 . S
C466 C467 1.394 . S
C466 C472 1.465 . S
C467 C462 1.399 . S
C467 C466 1.394 . S
C467 C468 1.516 . S
C468 C467 1.516 . S
C468 C469 1.502 . S
C468 C470 1.561 . S
C468 C471 1.526 . S
C469 H453 0.959 . S
C469 H454 0.959 1_545 S
C469 H455 0.961 . S
C469 C468 1.502 . S
C470 H456 0.960 . S
C470 H457 0.961 . S
C470 H458 0.959 . S
C470 C468 1.561 . S
C471 C468 1.526 . S
C471 C472 1.396 . S
C471 C476 1.390 . S
C472 C466 1.465 . S
C472 C471 1.396 . S
C472 C473 1.399 . S
C473 H459 0.929 . S
C473 C472 1.399 . S
C473 C474 1.385 . S
C474 H460 0.931 . S
C474 C473 1.385 . S
C474 C475 1.389 . S
C475 C474 1.389 . S
C475 C476 1.387 . S
C476 H461 0.930 . S
C476 C471 1.390 . S
C476 C475 1.387 . S
H477 C489 0.930 . S
H478 C491 0.930 . S
H479 C492 0.930 . S
H480 C496 0.959 . S
H481 C496 0.959 . S
H482 C496 0.961 . S
H483 C497 0.960 . S
H484 C497 0.961 . S
H485 C497 0.959 . S
H486 C500 0.929 . S
H487 C501 0.931 . S
H488 C503 0.930 . S
C489 H477 0.930 . S
C489 C490 1.399 . S
C489 C494 1.399 . S
C490 C489 1.399 . S
C490 C491 1.376 1_655 S
C491 H478 0.930 . S
C491 C490 1.376 1_455 S
C491 C492 1.388 . S
C492 H479 0.930 . S
C492 C491 1.388 . S
C492 C493 1.390 1_455 S
C493 C492 1.390 1_655 S
C493 C494 1.394 . S
C493 C499 1.465 . S
C494 C489 1.399 . S
C494 C493 1.394 . S
C494 C495 1.516 . S
C495 C494 1.516 . S
C495 C496 1.502 . S
C495 C497 1.561 . S
C495 C498 1.526 . S
C496 H480 0.959 . S
C496 H481 0.959 . S
C496 H482 0.961 . S
C496 C495 1.502 . S
C497 H483 0.960 . S
C497 H484 0.961 . S
C497 H485 0.959 . S
C497 C495 1.561 . S
C498 C495 1.526 . S
C498 C499 1.396 . S
C498 C503 1.390 . S
C499 C493 1.465 . S
C499 C498 1.396 . S
C499 C500 1.399 . S
C500 H486 0.929 . S
C500 C499 1.399 . S
C500 C501 1.385 . S
C501 H487 0.931 . S
C501 C500 1.385 . S
C501 C502 1.389 . S
C502 C501 1.389 . S
C502 C503 1.387 . S
C503 H488 0.930 . S
C503 C498 1.390 . S
C503 C502 1.387 . S
H504 C516 0.930 . S
H505 C518 0.930 . S
H506 C519 0.930 . S
H507 C523 0.959 . S
H508 C523 0.959 . S
H509 C523 0.961 . S
H510 C524 0.960 . S
H511 C524 0.961 . S
H512 C524 0.959 . S
H513 C527 0.929 . S
H514 C528 0.931 . S
H515 C530 0.930 . S
C516 H504 0.930 . S
C516 C517 1.399 . S
C516 C521 1.399 . S
C517 C516 1.399 . S
C517 C518 1.376 . S
C518 H505 0.930 . S
C518 C517 1.376 . S
C518 C519 1.388 . S
C519 H506 0.930 . S
C519 C518 1.388 . S
C519 C520 1.390 . S
C520 C519 1.390 . S
C520 C521 1.394 . S
C520 C526 1.465 . S
C521 C516 1.399 . S
C521 C520 1.394 . S
C521 C522 1.516 . S
C522 C521 1.516 . S
C522 C523 1.502 . S
C522 C524 1.561 . S
C522 C525 1.526 . S
C523 H507 0.959 . S
C523 H508 0.959 . S
C523 H509 0.961 . S
C523 C522 1.502 . S
C524 H510 0.960 . S
C524 H511 0.961 . S
C524 H512 0.959 . S
C524 C522 1.561 . S
C525 C522 1.526 . S
C525 C526 1.396 . S
C525 C530 1.390 . S
C526 C520 1.465 . S
C526 C525 1.396 . S
C526 C527 1.399 . S
C527 H513 0.929 . S
C527 C526 1.399 . S
C527 C528 1.385 . S
C528 H514 0.931 . S
C528 C527 1.385 . S
C528 C529 1.389 . S
C529 C528 1.389 . S
C529 C530 1.387 . S
C530 H515 0.930 . S
C530 C525 1.390 . S
C530 C529 1.387 . S
H531 C543 0.930 . S
H532 C545 0.930 . S
H533 C546 0.930 . S
H534 C550 0.959 . S
H535 C550 0.959 . S
H536 C550 0.961 . S
H537 C551 0.960 . S
H538 C551 0.961 . S
H539 C551 0.959 . S
H540 C554 0.928 . S
H541 C555 0.931 . S
H542 C557 0.930 . S
C543 H531 0.930 . S
C543 C544 1.399 . S
C543 C548 1.399 . S
C544 C543 1.399 . S
C544 C545 1.376 . S
C545 H532 0.930 . S
C545 C544 1.376 . S
C545 C546 1.388 . S
C546 H533 0.930 . S
C546 C545 1.388 . S
C546 C547 1.390 . S
C547 C546 1.390 . S
C547 C548 1.394 . S
C547 C553 1.465 . S
C548 C543 1.399 . S
C548 C547 1.394 . S
C548 C549 1.516 . S
C549 C548 1.516 . S
C549 C550 1.502 . S
C549 C551 1.561 1_455 S
C549 C552 1.526 1_455 S
C550 H534 0.959 . S
C550 H535 0.959 . S
C550 H536 0.961 . S
C550 C549 1.502 . S
C551 H537 0.960 . S
C551 H538 0.961 . S
C551 H539 0.959 . S
C551 C549 1.561 1_655 S
C552 C549 1.526 1_655 S
C552 C553 1.396 1_655 S
C552 C557 1.390 . S
C553 C547 1.465 . S
C553 C552 1.396 1_455 S
C553 C554 1.405 . S
C554 H540 0.928 . S
C554 C553 1.405 . S
C554 C555 1.380 1_455 S
C555 H541 0.931 . S
C555 C554 1.380 1_655 S
C555 C556 1.389 . S
C556 C555 1.389 . S
C556 C557 1.387 . S
C557 H542 0.930 . S
C557 C552 1.390 . S
C557 C556 1.387 . S
H558 C570 0.930 . S
H559 C572 0.930 . S
H560 C573 0.930 . S
H561 C577 0.959 . S
H562 C577 0.959 . S
H563 C577 0.961 . S
H564 C578 0.960 . S
H565 C578 0.961 . S
H566 C578 0.959 . S
H567 C581 0.929 . S
H568 C582 0.931 . S
H569 C584 0.930 . S
C570 H558 0.930 . S
C570 C571 1.399 . S
C570 C575 1.399 . S
C571 C570 1.399 . S
C571 C572 1.376 . S
C572 H559 0.930 . S
C572 C571 1.376 . S
C572 C573 1.388 . S
C573 H560 0.930 . S
C573 C572 1.388 . S
C573 C574 1.390 . S
C574 C573 1.390 . S
C574 C575 1.394 . S
C574 C580 1.465 . S
C575 C570 1.399 . S
C575 C574 1.394 . S
C575 C576 1.516 . S
C576 C575 1.516 . S
C576 C577 1.502 . S
C576 C578 1.561 . S
C576 C579 1.526 . S
C577 H561 0.959 . S
C577 H562 0.959 . S
C577 H563 0.961 . S
C577 C576 1.502 . S
C578 H564 0.960 . S
C578 H565 0.961 . S
C578 H566 0.959 . S
C578 C576 1.561 . S
C579 C576 1.526 . S
C579 C580 1.396 . S
C579 C584 1.390 . S
C580 C574 1.465 . S
C580 C579 1.396 . S
C580 C581 1.399 . S
C581 H567 0.929 . S
C581 C580 1.399 . S
C581 C582 1.385 . S
C582 H568 0.931 . S
C582 C581 1.385 . S
C582 C583 1.389 . S
C583 C582 1.389 . S
C583 C584 1.387 . S
C584 H569 0.930 . S
C584 C579 1.390 . S
C584 C583 1.387 . S
H585 C597 0.930 . S
H586 C599 0.930 . S
H587 C600 0.930 . S
H588 C604 0.959 . S
H589 C604 0.959 . S
H590 C604 0.961 . S
H591 C605 0.960 . S
H592 C605 0.961 . S
H593 C605 0.959 . S
H594 C608 0.929 1_565 S
H595 C609 0.931 . S
H596 C611 0.930 . S
C597 H585 0.930 . S
C597 C598 1.399 . S
C597 C602 1.399 1_565 S
C598 C597 1.399 . S
C598 C599 1.376 . S
C599 H586 0.930 . S
C599 C598 1.376 . S
C599 C600 1.388 . S
C600 H587 0.930 . S
C600 C599 1.388 . S
C600 C601 1.390 . S
C601 C600 1.390 . S
C601 C602 1.394 1_565 S
C601 C607 1.465 1_565 S
C602 C597 1.399 1_545 S
C602 C601 1.394 1_545 S
C602 C603 1.516 . S
C603 C602 1.516 . S
C603 C604 1.502 . S
C603 C605 1.561 . S
C603 C606 1.526 . S
C604 H588 0.959 . S
C604 H589 0.959 . S
C604 H590 0.961 . S
C604 C603 1.502 . S
C605 H591 0.960 . S
C605 H592 0.961 . S
C605 H593 0.959 . S
C605 C603 1.561 . S
C606 C603 1.526 . S
C606 C607 1.396 . S
C606 C611 1.390 . S
C607 C601 1.465 1_545 S
C607 C606 1.396 . S
C607 C608 1.399 . S
C608 H594 0.929 1_545 S
C608 C607 1.399 . S
C608 C609 1.385 . S
C609 H595 0.931 . S
C609 C608 1.385 . S
C609 C610 1.389 . S
C610 C609 1.389 . S
C610 C611 1.387 . S
C611 H596 0.930 . S
C611 C606 1.390 . S
C611 C610 1.387 . S
C139 C37 1.066 . S
C151 C3 1.025 . S
C166 C23 0.966 . S
C178 C9 1.020 . S
C193 C17 1.104 . S
C205 C31 1.069 . S
C220 C73 0.987 . S
C232 C51 1.015 . S
C247 C65 0.941 . S
C259 C45 1.023 . S
C274 C59 1.001 . S
C286 C79 1.033 . S
C301 C87 0.980 . S
C313 C121 0.982 . S
C328 C93 0.904 . S
C340 C107 0.971 . S
C355 C101 0.967 . S
C367 C115 1.008 . S
C382 C8 1.390 . S
C394 C106 1.375 . S
C409 C21 1.357 . S
C421 C119 1.395 . S
C436 C91 1.365 . S
C448 C36 1.391 . S
C463 C63 1.334 . S
C475 C35 1.350 . S
C490 C7 1.376 . S
C502 C77 1.384 . S
C517 C49 1.357 . S
C529 C22 1.407 . S
C544 C105 1.352 . S
C556 C78 1.385 . S
C571 C50 1.404 . S
C583 C120 1.387 . S
C598 C92 1.402 . S
C610 C64 1.419 . S
