# Generated by pormake.
# Topology wht, (6)-cn, num edge types: 1
# Building blocks:
#     Node 0, Type 0, BuildingBlock: MIDCAF_clean_sbu_0, # of connection points: 6
#     Node 1, Type 0, BuildingBlock: MIDCAF_clean_sbu_0, # of connection points: 6
#     Node 2, Type 0, BuildingBlock: MIDCAF_clean_sbu_0, # of connection points: 6
#     Node 3, Type 0, BuildingBlock: MIDCAF_clean_sbu_0, # of connection points: 6
#     Node 4, Type 0, BuildingBlock: MIDCAF_clean_sbu_0, # of connection points: 6
#     Node 5, Type 0, BuildingBlock: MIDCAF_clean_sbu_0, # of connection points: 6
#     Node 6, Type 0, BuildingBlock: MIDCAF_clean_sbu_0, # of connection points: 6
#     Node 7, Type 0, BuildingBlock: MIDCAF_clean_sbu_0, # of connection points: 6
#     Edge 8, Type (0, 0), BuildingBlock: KIFKEQ_clean_linker_1, # of connection points: 2
#     Edge 9, Type (0, 0), BuildingBlock: KIFKEQ_clean_linker_1, # of connection points: 2
#     Edge 10, Type (0, 0), BuildingBlock: KIFKEQ_clean_linker_1, # of connection points: 2
#     Edge 11, Type (0, 0), BuildingBlock: KIFKEQ_clean_linker_1, # of connection points: 2
#     Edge 12, Type (0, 0), BuildingBlock: KIFKEQ_clean_linker_1, # of connection points: 2
#     Edge 13, Type (0, 0), BuildingBlock: KIFKEQ_clean_linker_1, # of connection points: 2
#     Edge 14, Type (0, 0), BuildingBlock: KIFKEQ_clean_linker_1, # of connection points: 2
#     Edge 15, Type (0, 0), BuildingBlock: KIFKEQ_clean_linker_1, # of connection points: 2
#     Edge 16, Type (0, 0), BuildingBlock: KIFKEQ_clean_linker_1, # of connection points: 2
#     Edge 17, Type (0, 0), BuildingBlock: KIFKEQ_clean_linker_1, # of connection points: 2
#     Edge 18, Type (0, 0), BuildingBlock: KIFKEQ_clean_linker_1, # of connection points: 2
#     Edge 19, Type (0, 0), BuildingBlock: KIFKEQ_clean_linker_1, # of connection points: 2
#     Edge 20, Type (0, 0), BuildingBlock: KIFKEQ_clean_linker_1, # of connection points: 2
#     Edge 21, Type (0, 0), BuildingBlock: KIFKEQ_clean_linker_1, # of connection points: 2
#     Edge 22, Type (0, 0), BuildingBlock: KIFKEQ_clean_linker_1, # of connection points: 2
#     Edge 23, Type (0, 0), BuildingBlock: KIFKEQ_clean_linker_1, # of connection points: 2
#     Edge 24, Type (0, 0), BuildingBlock: KIFKEQ_clean_linker_1, # of connection points: 2
#     Edge 25, Type (0, 0), BuildingBlock: KIFKEQ_clean_linker_1, # of connection points: 2
#     Edge 26, Type (0, 0), BuildingBlock: KIFKEQ_clean_linker_1, # of connection points: 2
#     Edge 27, Type (0, 0), BuildingBlock: KIFKEQ_clean_linker_1, # of connection points: 2
#     Edge 28, Type (0, 0), BuildingBlock: KIFKEQ_clean_linker_1, # of connection points: 2
#     Edge 29, Type (0, 0), BuildingBlock: KIFKEQ_clean_linker_1, # of connection points: 2
#     Edge 30, Type (0, 0), BuildingBlock: KIFKEQ_clean_linker_1, # of connection points: 2
#     Edge 31, Type (0, 0), BuildingBlock: KIFKEQ_clean_linker_1, # of connection points: 2
# Relax obj value: 0.316
# Max RMSD: 0.224
# Mean RMSD: 0.224
data_MOF--net-wht--node1-MIDCAF_clean_sbu_0--edge1-KIFKEQ_clean_linker_1
_symmetry_space_group_name_H-M    P1
_symmetry_Int_Tables_number       1
_symmetry_cell_setting            triclinic
loop_
_symmetry_equiv_pos_as_xyz
'x, y, z'
_cell_length_a     27.298756
_cell_length_b     27.308354
_cell_length_c     42.859574
_cell_angle_alpha  89.880422
_cell_angle_beta   89.869713
_cell_angle_gamma 90.129823
loop_
_atom_site_label
_atom_site_type_symbol
_atom_site_fract_x
_atom_site_fract_y
_atom_site_fract_z
_atom_type_partial_charge
Zn0 Zn 0.12542 0.16534 0.18402 0.0
Zn1 Zn 0.08061 0.30379 0.12037 0.0
Zn2 Zn 0.10378 0.23472 0.14976 0.0
C3 C 0.09411 0.22628 0.07911 0.0
C4 C -0.00184 0.2855 0.14236 0.0
O5 O 0.14756 0.27038 0.18633 0.0
O6 O 0.14997 0.20706 0.21843 0.0
C7 C 0.1673 0.13647 0.13029 0.0
O8 O 0.11811 0.20964 0.10269 0.0
O9 O 0.06965 0.26522 0.08175 0.0
O10 O 0.02052 0.32596 0.14222 0.0
O11 O 0.02336 0.24601 0.14569 0.0
O12 O 0.17176 0.12621 0.15883 0.0
O13 O 0.14142 0.17396 0.12202 0.0
O14 O 0.03496 0.21098 0.17323 0.0
O15 O 0.05818 0.13887 0.19103 0.0
C16 C 0.02493 0.1703 0.18702 0.0
O17 O 0.15075 0.30307 0.16086 0.0
O18 O 0.1355 0.34911 0.11962 0.0
C19 C 0.15747 0.25201 0.21332 0.0
C20 C 0.15982 0.34161 0.14403 0.0
Zn21 Zn 0.31321 0.6119 0.45213 0.0
Zn22 Zn 0.20409 0.58862 0.3621 0.0
Zn23 Zn 0.25618 0.596 0.4037 0.0
C24 C 0.29157 0.60785 0.33645 0.0
C25 C 0.20328 0.49968 0.37851 0.0
O26 O 0.21029 0.62698 0.4414 0.0
O27 O 0.26079 0.63414 0.48144 0.0
C28 C 0.35946 0.66036 0.40399 0.0
O29 O 0.29566 0.62616 0.36395 0.0
O30 O 0.25545 0.58098 0.33 0.0
O31 O 0.16776 0.52752 0.37229 0.0
O32 O 0.24297 0.51856 0.38953 0.0
O33 O 0.36258 0.65839 0.43338 0.0
O34 O 0.32369 0.63864 0.39001 0.0
O35 O 0.27278 0.52286 0.41759 0.0
O36 O 0.32722 0.53949 0.45432 0.0
C37 C 0.30333 0.50882 0.43828 0.0
O38 O 0.18637 0.63586 0.4124 0.0
O39 O 0.16866 0.65117 0.36329 0.0
C40 C 0.21785 0.6362 0.47054 0.0
C41 C 0.16052 0.65844 0.39182 0.0
Zn42 Zn 0.869 0.82358 0.68147 0.0
Zn43 Zn 0.8418 0.7629 0.58604 0.0
Zn44 Zn 0.87546 0.78067 0.63483 0.0
C45 C 0.89462 0.84756 0.58128 0.0
C46 C 0.92081 0.70071 0.59519 0.0
O47 O 0.87597 0.72003 0.6696 0.0
O48 O 0.85225 0.76776 0.70833 0.0
C49 C 0.79572 0.85971 0.64256 0.0
O50 O 0.9201 0.82395 0.60167 0.0
O51 O 0.85105 0.83397 0.57583 0.0
O52 O 0.90038 0.72297 0.57289 0.0
O53 O 0.906 0.70881 0.62324 0.0
O54 O 0.81847 0.87085 0.6672 0.0
O55 O 0.808 0.82117 0.62773 0.0
O56 O 0.94694 0.81839 0.63504 0.0
O57 O 0.93877 0.84321 0.68363 0.0
C58 C 0.96515 0.83783 0.65967 0.0
O59 O 0.85077 0.70296 0.63597 0.0
O60 O 0.78696 0.72513 0.60804 0.0
C61 C 0.86281 0.72565 0.69828 0.0
C62 C 0.80761 0.69338 0.62521 0.0
Zn63 Zn 0.68701 0.38416 0.93671 0.0
Zn64 Zn 0.81202 0.37997 0.86077 0.0
Zn65 Zn 0.75015 0.38566 0.89854 0.0
C66 C 0.73816 0.34161 0.8316 0.0
C67 C 0.79074 0.4759 0.85869 0.0
O68 O 0.78437 0.34823 0.93922 0.0
O69 O 0.72744 0.36854 0.97317 0.0
C70 C 0.645 0.32639 0.89467 0.0
O71 O 0.71759 0.35898 0.85619 0.0
O72 O 0.78332 0.33212 0.83197 0.0
O73 O 0.81216 0.44437 0.84237 0.0
O74 O 0.76757 0.46288 0.88363 0.0
O75 O 0.64088 0.33334 0.92359 0.0
O76 O 0.68145 0.34622 0.88001 0.0
O77 O 0.73688 0.46398 0.91141 0.0
O78 O 0.66482 0.45268 0.93381 0.0
C79 C 0.69772 0.48139 0.92411 0.0
O80 O 0.81638 0.33793 0.91286 0.0
O81 O 0.87344 0.36263 0.87981 0.0
C82 C 0.76891 0.35026 0.96764 0.0
C83 C 0.86117 0.33646 0.90266 0.0
Zn84 Zn 0.59926 0.22162 0.61193 0.0
Zn85 Zn 0.60751 0.32435 0.51887 0.0
Zn86 Zn 0.5997 0.26826 0.56785 0.0
C87 C 0.507 0.30804 0.53395 0.0
C88 C 0.65736 0.37548 0.56318 0.0
O89 O 0.6423 0.19916 0.56135 0.0
O90 O 0.66487 0.19118 0.61029 0.0
C91 C 0.50976 0.20835 0.59473 0.0
O92 O 0.52443 0.27896 0.55454 0.0
O93 O 0.53496 0.33421 0.51725 0.0
O94 O 0.65198 0.37763 0.53398 0.0
O95 O 0.6392 0.33906 0.57866 0.0
O96 O 0.54214 0.17865 0.60371 0.0
O97 O 0.52337 0.24904 0.58206 0.0
O98 O 0.62786 0.31343 0.6055 0.0
O99 O 0.58746 0.27456 0.6425 0.0
C100 C 0.61133 0.31157 0.63358 0.0
O101 O 0.6362 0.22344 0.53223 0.0
O102 O 0.63257 0.27215 0.49097 0.0
C103 C 0.66838 0.1776 0.58228 0.0
C104 C 0.64281 0.23111 0.50288 0.0
Zn105 Zn 0.28146 0.07893 0.86092 0.0
Zn106 Zn 0.14944 0.13505 0.74821 0.0
Zn107 Zn 0.24025 0.09416 0.81674 0.0
C108 C 0.20071 0.03984 0.76923 0.0
C109 C 0.12489 0.15391 0.81444 0.0
O110 O 0.31135 0.13854 0.81597 0.0
O111 O 0.31994 0.13916 0.86691 0.0
C112 C 0.28638 0.99277 0.83626 0.0
O113 O 0.22732 0.02574 0.79183 0.0
O114 O 0.19229 0.08516 0.76842 0.0
O115 O 0.11216 0.15848 0.78593 0.0
O116 O 0.16584 0.13346 0.82313 0.0
O117 O 0.31818 0.01925 0.84925 0.0
O118 O 0.24958 0.01355 0.82295 0.0
O119 O 0.19142 0.1192 0.85263 0.0
O120 O 0.22254 0.06969 0.88785 0.0
C121 C 0.189 0.09853 0.87947 0.0
O122 O 0.28715 0.13503 0.78618 0.0
O123 O 0.22344 0.14341 0.75556 0.0
C124 C 0.33327 0.15491 0.84055 0.0
C125 C 0.26902 0.1486 0.76002 0.0
Zn126 Zn 0.37953 0.66571 0.02998 0.0
Zn127 Zn 0.41088 0.80619 0.09542 0.0
Zn128 Zn 0.39371 0.73781 0.0649 0.0
C129 C 0.39659 0.7282 0.13544 0.0
C130 C 0.4958 0.79359 0.07801 0.0
O131 O 0.35163 0.77051 0.02624 0.0
O132 O 0.35207 0.70564 -0.00452 0.0
C133 C 0.33431 0.63513 0.08265 0.0
O134 O 0.37461 0.71203 0.11099 0.0
O135 O 0.42092 0.76745 0.13401 0.0
O136 O 0.4716 0.83279 0.0762 0.0
O137 O 0.47314 0.75275 0.07348 0.0
O138 O 0.33608 0.62212 0.05448 0.0
O139 O 0.35482 0.67574 0.09113 0.0
O140 O 0.46644 0.71753 0.04581 0.0
O141 O 0.44917 0.64593 0.02466 0.0
C142 C 0.48017 0.67842 0.03165 0.0
O143 O 0.34686 0.80475 0.05117 0.0
O144 O 0.35319 0.84759 0.09457 0.0
C145 C 0.34253 0.7504 -0.00034 0.0
C146 C 0.33346 0.84137 0.0684 0.0
Zn147 Zn 0.81802 0.86823 0.28089 0.0
Zn148 Zn 0.73784 0.84336 0.3691 0.0
Zn149 Zn 0.76546 0.86982 0.3237 0.0
C150 C 0.82351 0.89045 0.38268 0.0
C151 C 0.71607 0.94232 0.36721 0.0
O152 O 0.71208 0.85901 0.28546 0.0
O153 O 0.76926 0.84758 0.24989 0.0
C154 C 0.85764 0.80158 0.32117 0.0
O155 O 0.80622 0.91485 0.35926 0.0
O156 O 0.80417 0.84954 0.38958 0.0
O157 O 0.69406 0.90365 0.37574 0.0
O158 O 0.75436 0.93809 0.34971 0.0
O159 O 0.86821 0.82194 0.29555 0.0
O160 O 0.81752 0.81248 0.33475 0.0
O161 O 0.78943 0.94793 0.32324 0.0
O162 O 0.83378 0.9389 0.28046 0.0
C163 C 0.81653 0.96626 0.30146 0.0
O164 O 0.68947 0.84025 0.31969 0.0
O165 O 0.70513 0.78223 0.35373 0.0
C166 C 0.72445 0.84953 0.25715 0.0
C167 C 0.67672 0.80015 0.3334 0.0
H168 H 0.9609 0.09832 0.17228 0.0
H169 H 0.98466 0.21688 0.23672 0.0
H170 H 0.89602 0.06586 0.20599 0.0
H171 H 0.92081 0.18317 0.27133 0.0
H172 H 0.76781 0.02789 0.26402 0.0
H173 H 0.80793 0.09416 0.23522 0.0
H174 H 0.93083 0.08687 0.29799 0.0
H175 H 0.8912 0.01937 0.3262 0.0
C176 C 0.95071 0.11852 0.19303 0.0
C177 C 0.97693 0.16059 0.20161 0.0
C178 C 0.91382 0.09987 0.21242 0.0
C179 C 0.90341 0.1221 0.24124 0.0
C180 C 0.92792 0.16563 0.24914 0.0
C181 C 0.96401 0.1851 0.22923 0.0
C182 C 0.80192 0.04262 0.27292 0.0
C183 C 0.82609 0.01897 0.29763 0.0
C184 C 0.82515 0.08012 0.25615 0.0
C185 C 0.87256 0.09534 0.26426 0.0
C186 C 0.89403 0.07614 0.29146 0.0
C187 C 0.87111 0.03789 0.30789 0.0
H188 H 0.36642 0.44414 0.41281 0.0
H189 H 0.25349 0.45966 0.48248 0.0
H190 H 0.39496 0.36979 0.4384 0.0
H191 H 0.28184 0.38501 0.50843 0.0
H192 H 0.43743 0.36276 0.56212 0.0
H193 H 0.36326 0.39071 0.53617 0.0
H194 H 0.38716 0.28569 0.46243 0.0
H195 H 0.46155 0.25804 0.48866 0.0
C196 C 0.34621 0.42997 0.43269 0.0
C197 C 0.30822 0.4571 0.44597 0.0
C198 C 0.36226 0.38731 0.44733 0.0
C199 C 0.34088 0.37197 0.47568 0.0
C200 C 0.29901 0.39618 0.48673 0.0
C201 C 0.28283 0.4387 0.47193 0.0
C202 C 0.42506 0.34381 0.54138 0.0
C203 C 0.45479 0.30879 0.52706 0.0
C204 C 0.38254 0.35961 0.52647 0.0
C205 C 0.37007 0.34093 0.49691 0.0
C206 C 0.39625 0.3009 0.48501 0.0
C207 C 0.43862 0.28503 0.50002 0.0
H208 H 0.03125 0.80256 0.69979 0.0
H209 H 0.01233 0.91125 0.62789 0.0
H210 H 0.09968 0.84812 0.72101 0.0
H211 H 0.08288 0.95665 0.64817 0.0
H212 H 0.12957 0.06099 0.72683 0.0
H213 H 0.08679 0.00625 0.69235 0.0
H214 H 0.17617 0.88593 0.72465 0.0
H215 H 0.2181 0.94146 0.76065 0.0
C216 C 0.04366 0.83506 0.68751 0.0
C217 C 0.01657 0.85354 0.6623 0.0
C218 C 0.08302 0.86142 0.69973 0.0
C219 C 0.09626 0.90704 0.68697 0.0
C220 C 0.07282 0.9224 0.65925 0.0
C221 C 0.033 0.89599 0.64713 0.0
C222 C 0.14064 0.02306 0.72655 0.0
C223 C 0.17703 0.00569 0.74688 0.0
C224 C 0.11633 0.99146 0.70626 0.0
C225 C 0.1279 0.94134 0.70531 0.0
C226 C 0.16571 0.92414 0.72488 0.0
C227 C 0.18982 0.95593 0.74555 0.0
H228 H 0.52571 0.72666 -0.01555 0.0
H229 H 0.54516 0.61081 0.05163 0.0
H230 H 0.59603 0.69603 0.95447 0.0
H231 H 0.61594 0.58098 0.02245 0.0
H232 H 0.74191 0.53159 0.97026 0.0
H233 H 0.70221 0.59798 -0.00102 0.0
H234 H 0.59523 0.61182 0.92554 0.0
H235 H 0.63439 0.54483 0.89737 0.0
C236 C 0.5467 0.69627 -0.00636 0.0
C237 C 0.53075 0.6715 0.02057 0.0
C238 C 0.5866 0.67851 0.97638 0.0
C239 C 0.61164 0.63624 -0.01385 0.0
C240 C 0.59803 0.61414 0.01458 0.0
C241 C 0.55758 0.63122 0.03138 0.0
C242 C 0.7118 0.55095 0.9594 0.0
C243 C 0.69141 0.53351 0.93151 0.0
C244 C 0.68867 0.58851 0.97603 0.0
C245 C 0.64524 0.60964 0.96472 0.0
C246 C 0.6288 0.59654 0.93479 0.0
C247 C 0.65143 0.5584 0.91847 0.0
H248 H 0.13907 0.23396 0.27422 0.0
H249 H 0.20662 0.34042 0.21298 0.0
H250 H 0.15552 0.28625 0.31888 0.0
H251 H 0.22357 0.39291 0.2582 0.0
H252 H 0.28038 0.45311 0.35161 0.0
H253 H 0.27442 0.38839 0.31231 0.0
H254 H 0.11996 0.37342 0.33185 0.0
H255 H 0.12556 0.43878 0.3705 0.0
C256 C 0.15821 0.26824 0.27032 0.0
C257 C 0.17158 0.28318 0.24 0.0
C258 C 0.1674 0.29815 0.29594 0.0
C259 C 0.19099 0.34329 0.29196 0.0
C260 C 0.20575 0.35787 0.26183 0.0
C261 C 0.19569 0.32818 0.23597 0.0
C262 C 0.24559 0.43464 0.34839 0.0
C263 C 0.20339 0.45077 0.36414 0.0
C264 C 0.24209 0.39825 0.32557 0.0
C265 C 0.19664 0.37666 0.31883 0.0
C266 C 0.15543 0.3896 0.33663 0.0
C267 C 0.15869 0.42664 0.35892 0.0
H268 H 0.01163 0.72105 0.61607 0.0
H269 H 0.93096 0.62309 0.55648 0.0
H270 H 0.08696 0.70145 0.58828 0.0
H271 H 0.00658 0.6002 0.53 0.0
H272 H 0.12038 0.63363 0.45723 0.0
H273 H 0.05169 0.64046 0.49242 0.0
H274 H 0.15173 0.65386 0.57009 0.0
H275 H 0.22061 0.65135 0.53387 0.0
C276 C 0.01066 0.69304 0.59819 0.0
C277 C 0.96576 0.67338 0.58839 0.0
C278 C 0.05384 0.68199 0.58201 0.0
C279 C 0.05285 0.6504 0.55606 0.0
C280 C 0.00859 0.62623 0.54897 0.0
C281 C 0.96533 0.63834 0.56458 0.0
C282 C 0.12777 0.63971 0.48153 0.0
C283 C 0.17603 0.6435 0.49228 0.0
C284 C 0.08823 0.64213 0.50211 0.0
C285 C 0.09575 0.64693 0.53445 0.0
C286 C 0.14421 0.6506 0.54539 0.0
C287 C 0.18383 0.64918 0.52455 0.0
H288 H 0.72233 0.52334 0.82457 0.0
H289 H 0.86809 0.53611 0.86187 0.0
H290 H 0.74244 0.58406 0.78438 0.0
H291 H 0.88911 0.59517 0.82154 0.0
H292 H 0.90162 0.72523 0.7555 0.0
H293 H 0.87935 0.67276 0.79902 0.0
H294 H 0.79167 0.58365 0.7372 0.0
H295 H 0.81304 0.63816 0.69357 0.0
C296 C 0.7578 0.54121 0.82519 0.0
C297 C 0.79325 0.52622 0.84686 0.0
C298 C 0.76991 0.57478 0.80158 0.0
C299 C 0.81781 0.59372 0.79917 0.0
C300 C 0.8518 0.58175 0.82262 0.0
C301 C 0.83957 0.54848 0.84618 0.0
C302 C 0.87856 0.69364 0.75106 0.0
C303 C 0.85957 0.6853 0.72109 0.0
C304 C 0.86556 0.66363 0.77608 0.0
C305 C 0.83312 0.62423 0.77187 0.0
C306 C 0.81595 0.61432 0.74145 0.0
C307 C 0.82906 0.64468 0.71624 0.0
H308 H 0.92922 0.35693 0.13923 0.0
H309 H 0.96382 0.21258 0.10473 0.0
H310 H 0.87102 0.36789 0.09699 0.0
H311 H 0.90497 0.22337 0.06246 0.0
H312 H 0.8558 0.29772 0.96857 0.0
H313 H 0.90424 0.27535 0.01448 0.0
H314 H 0.79514 0.34146 0.07404 0.0
H315 H 0.74826 0.36499 0.02875 0.0
C316 C 0.92278 0.32668 0.12342 0.0
C317 C 0.95104 0.28389 0.12547 0.0
C318 C 0.88968 0.33308 0.09899 0.0
C319 C 0.88395 0.29677 0.07602 0.0
C320 C 0.90923 0.25233 0.07948 0.0
C321 C 0.94216 0.24576 0.10413 0.0
C322 C 0.84245 0.30763 -0.00861 0.0
C323 C 0.79847 0.3337 -0.00527 0.0
C324 C 0.86979 0.29427 0.01778 0.0
C325 C 0.85354 0.30677 0.04798 0.0
C326 C 0.80906 0.33177 0.05119 0.0
C327 C 0.78202 0.34505 0.02504 0.0
H328 H 0.71025 0.15817 0.51233 0.0
H329 H 0.60497 0.21342 0.44607 0.0
H330 H 0.72886 0.08986 0.4768 0.0
H331 H 0.62303 0.14523 0.41107 0.0
H332 H 0.6302 0.96748 0.3952 0.0
H333 H 0.61442 0.03963 0.42746 0.0
H334 H 0.76013 0.0932 0.40827 0.0
H335 H 0.77559 0.02205 0.37484 0.0
C336 C 0.69109 0.15552 0.49033 0.0
C337 C 0.65621 0.19075 0.48189 0.0
C338 C 0.70196 0.11694 0.46999 0.0
C339 C 0.67735 0.11288 0.44135 0.0
C340 C 0.64248 0.14799 0.43302 0.0
C341 C 0.63239 0.1869 0.45296 0.0
C342 C 0.6586 0.99503 0.39743 0.0
C343 C 0.70423 0.98903 0.3827 0.0
C344 C 0.64962 0.03601 0.41596 0.0
C345 C 0.68644 0.07108 0.42056 0.0
C346 C 0.73155 0.06606 0.40521 0.0
C347 C 0.74014 0.02564 0.38599 0.0
H348 H 0.36597 0.13007 0.75152 0.0
H349 H 0.24151 0.2006 0.70869 0.0
H350 H 0.41437 0.14574 0.70456 0.0
H351 H 0.29028 0.21633 0.66161 0.0
H352 H 0.4417 0.27804 0.6096 0.0
H353 H 0.37588 0.2664 0.64794 0.0
H354 H 0.40084 0.1105 0.64649 0.0
H355 H 0.46593 0.12177 0.60817 0.0
C356 C 0.34939 0.14998 0.73242 0.0
C357 C 0.30026 0.16456 0.73386 0.0
C358 C 0.37675 0.15825 0.7054 0.0
C359 C 0.3556 0.18159 0.67947 0.0
C360 C 0.30716 0.19812 0.68131 0.0
C361 C 0.27951 0.18923 0.70823 0.0
C362 C 0.4315 0.24113 0.61632 0.0
C363 C 0.45948 0.20084 0.60642 0.0
C364 C 0.39417 0.23456 0.63843 0.0
C365 C 0.38468 0.18775 0.65068 0.0
C366 C 0.40841 0.14704 0.63779 0.0
C367 C 0.4453 0.1535 0.61569 0.0
H368 H 0.2907 0.83715 -0.00148 0.0
H369 H 0.35729 0.72869 0.93881 0.0
H370 H 0.26891 0.88555 0.95227 0.0
H371 H 0.33592 0.77688 0.89308 0.0
H372 H 0.36117 0.92784 0.83771 0.0
H373 H 0.36809 0.86152 0.87567 0.0
H374 H 0.21598 0.87995 0.90057 0.0
H375 H 0.20882 0.94568 0.86191 0.0
C376 C 0.30038 0.82356 0.97566 0.0
C377 C 0.3258 0.77925 0.97241 0.0
C378 C 0.28748 0.85088 0.94918 0.0
C379 C 0.30054 0.83467 0.91911 0.0
C380 C 0.32526 0.79008 0.91593 0.0
C381 C 0.33736 0.76253 0.9422 0.0
C382 C 0.32854 0.91574 0.84997 0.0
C383 C 0.28439 0.94149 0.84667 0.0
C384 C 0.3326 0.87824 0.87201 0.0
C385 C 0.29278 0.86641 0.89146 0.0
C386 C 0.24734 0.88888 0.88609 0.0
C387 C 0.24301 0.92575 0.86352 0.0
H388 H 0.56034 0.86863 0.0844 0.0
H389 H 0.52785 0.72338 0.11877 0.0
H390 H 0.61323 0.88289 0.129 0.0
H391 H 0.58173 0.73738 0.1634 0.0
H392 H 0.63201 0.80654 0.25788 0.0
H393 H 0.58074 0.78885 0.21189 0.0
H394 H 0.68833 0.8591 0.15266 0.0
H395 H 0.73785 0.87741 0.19779 0.0
C396 C 0.56605 0.83902 0.10086 0.0
C397 C 0.54012 0.79483 0.09783 0.0
C398 C 0.59603 0.84732 0.12667 0.0
C399 C 0.60107 0.81156 0.15013 0.0
C400 C 0.57781 0.76603 0.14608 0.0
C401 C 0.54789 0.7576 0.12007 0.0
C402 C 0.64394 0.81879 0.23504 0.0
C403 C 0.68891 0.84324 0.23142 0.0
C404 C 0.61511 0.80811 0.20869 0.0
C405 C 0.63066 0.82229 0.17851 0.0
C406 C 0.67493 0.84792 0.1754 0.0
C407 C 0.70347 0.85825 0.20138 0.0
H408 H 0.15454 0.18954 0.89143 0.0
H409 H 0.1434 0.0385 0.92049 0.0
H410 H 0.11218 0.21494 0.93891 0.0
H411 H 0.10289 0.0641 0.96869 0.0
H412 H 0.03063 0.24005 0.0309 0.0
H413 H 0.03461 0.20356 0.97889 0.0
H414 H 0.15987 0.11837 0.00733 0.0
H415 H 0.15813 0.15727 0.05833 0.0
C416 C 0.14083 0.16171 0.90725 0.0
C417 C 0.15186 0.11219 0.90247 0.0
C418 C 0.11681 0.17619 0.93443 0.0
C419 C 0.10499 0.14133 0.95736 0.0
C420 C 0.11185 0.09143 0.95121 0.0
C421 C 0.13509 0.07692 0.92382 0.0
C422 C 0.05881 0.2132 0.02612 0.0
C423 C 0.09395 0.20089 0.04886 0.0
C424 C 0.06062 0.19213 -0.00347 0.0
C425 C 0.09687 0.15768 -0.01045 0.0
C426 C 0.13071 0.14395 0.01257 0.0
C427 C 0.12963 0.1659 0.04184 0.0
H428 H 0.32846 0.6615 0.15419 0.0
H429 H 0.45887 0.73757 0.18447 0.0
H430 H 0.32131 0.6232 0.20522 0.0
H431 H 0.45025 0.70093 0.23625 0.0
H432 H 0.32438 0.54509 0.29288 0.0
H433 H 0.36616 0.56678 0.24438 0.0
H434 H 0.37883 0.71646 0.27585 0.0
H435 H 0.3366 0.69474 0.32435 0.0
C436 C 0.3564 0.66874 0.17138 0.0
C437 C 0.39427 0.702 0.1653 0.0
C438 C 0.35229 0.64705 0.20064 0.0
C439 C 0.38555 0.65905 0.22442 0.0
C440 C 0.42439 0.69116 0.21815 0.0
C441 C 0.42895 0.71224 0.18867 0.0
C442 C 0.33744 0.58229 0.28971 0.0
C443 C 0.32697 0.61858 0.31184 0.0
C444 C 0.3614 0.59453 0.26216 0.0
C445 C 0.37491 0.64324 0.25644 0.0
C446 C 0.36889 0.67855 0.27994 0.0
C447 C 0.34466 0.66628 0.30754 0.0
H448 H 0.82643 0.97847 0.41396 0.0
H449 H 0.90374 0.84279 0.4019 0.0
H450 H 0.86897 0.99186 0.46329 0.0
H451 H 0.94331 0.85311 0.4514 0.0
H452 H 0.97886 0.84168 0.54645 0.0
H453 H 0.98503 0.87531 0.49381 0.0
H454 H 0.85605 0.96313 0.5115 0.0
H455 H 0.85335 0.93272 0.56415 0.0
C456 C 0.85396 0.95245 0.42125 0.0
C457 C 0.8613 0.90922 0.40429 0.0
C458 C 0.87775 0.95939 0.45001 0.0
C459 C 0.90837 0.92258 0.46268 0.0
C460 C 0.92021 0.88261 0.44333 0.0
C461 C 0.89714 0.87628 0.4146 0.0
C462 C 0.95402 0.87062 0.53958 0.0
C463 C 0.91498 0.88379 0.55912 0.0
C464 C 0.95649 0.88906 0.50896 0.0
C465 C 0.91911 0.9198 0.49716 0.0
C466 C 0.88528 0.93906 0.51877 0.0
C467 C 0.88368 0.92162 0.54942 0.0
H468 H 0.69703 0.3618 0.63802 0.0
H469 H 0.55531 0.34306 0.68136 0.0
H470 H 0.72794 0.39917 0.68563 0.0
H471 H 0.58676 0.37707 0.72943 0.0
H472 H 0.65957 0.40002 0.81914 0.0
H473 H 0.63026 0.42537 0.76795 0.0
H474 H 0.74149 0.33563 0.72455 0.0
H475 H 0.77003 0.30993 0.77528 0.0
C476 C 0.67189 0.36791 0.6572 0.0
C477 C 0.62431 0.34866 0.65659 0.0
C478 C 0.68957 0.38909 0.68447 0.0
C479 C 0.66041 0.38865 0.71156 0.0
C480 C 0.61041 0.37723 0.70911 0.0
C481 C 0.5925 0.35702 0.6817 0.0
C482 C 0.67684 0.38468 0.7986 0.0
C483 C 0.71549 0.35086 0.80117 0.0
C484 C 0.66097 0.4004 0.76939 0.0
C485 C 0.68377 0.38292 0.74227 0.0
C486 C 0.7236 0.35064 0.74497 0.0
C487 C 0.73908 0.33462 0.77405 0.0
H488 H 0.1187 0.07359 0.09185 0.0
H489 H 0.26348 0.11741 0.12028 0.0
H490 H 0.15325 0.00203 0.06506 0.0
H491 H 0.29824 0.0466 0.09351 0.0
H492 H 0.35712 0.92489 0.03802 0.0
H493 H 0.31341 0.0025 0.0437 0.0
H494 H 0.19208 0.92582 0.08636 0.0
H495 H 0.2362 0.84852 0.08074 0.0
C496 C 0.15809 0.06884 0.09135 0.0
C497 C 0.18857 0.10159 0.10755 0.0
C498 C 0.17786 0.02764 0.07629 0.0
C499 C 0.22861 0.01838 0.07702 0.0
C500 C 0.25916 0.05279 0.09191 0.0
C501 C 0.23932 0.0935 0.10727 0.0
C502 C 0.31995 0.92434 0.04695 0.0
C503 C 0.29961 0.88041 0.05825 0.0
C504 C 0.29522 0.96897 0.05076 0.0
C505 C 0.24942 0.97068 0.06591 0.0
C506 C 0.22704 0.92603 0.07437 0.0
C507 C 0.25207 0.88147 0.07083 0.0
H508 H 0.41165 0.6216 0.35589 0.0
H509 H 0.39915 0.75104 0.41266 0.0
H510 H 0.48384 0.65646 0.32991 0.0
H511 H 0.47148 0.78604 0.3869 0.0
H512 H 0.59008 0.84892 0.32456 0.0
H513 H 0.50768 0.81692 0.33565 0.0
H514 H 0.56838 0.67282 0.34996 0.0
H515 H 0.65014 0.70478 0.33929 0.0
C516 C 0.42369 0.65806 0.36223 0.0
C517 C 0.39944 0.68397 0.38592 0.0
C518 C 0.46523 0.67787 0.34755 0.0
C519 C 0.48343 0.72416 0.35623 0.0
C520 C 0.45807 0.75069 0.37929 0.0
C521 C 0.41687 0.73057 0.3942 0.0
C522 C 0.58548 0.81011 0.329 0.0
C523 C 0.62659 0.77933 0.33101 0.0
C524 C 0.5384 0.79189 0.33573 0.0
C525 C 0.53146 0.74237 0.34399 0.0
C526 C 0.57221 0.71101 0.3435 0.0
C527 C 0.61916 0.72933 0.33735 0.0
H528 H 0.63447 0.09883 0.54975 0.0
H529 H 0.75696 0.15075 0.60392 0.0
H530 H 0.66032 0.01387 0.55909 0.0
H531 H 0.78306 0.0666 0.61276 0.0
H532 H 0.75313 0.93588 0.67228 0.0
H533 H 0.72468 0.01114 0.64836 0.0
H534 H 0.73751 0.94604 0.5571 0.0
H535 H 0.7654 0.86933 0.5812 0.0
C536 C 0.66829 0.09213 0.56221 0.0
C537 C 0.69368 0.13107 0.57635 0.0
C538 C 0.6828 0.04361 0.56773 0.0
C539 C 0.72281 0.03398 0.58732 0.0
C540 C 0.75149 0.07322 0.59806 0.0
C541 C 0.73691 0.12133 0.59276 0.0
C542 C 0.74874 0.93687 0.64716 0.0
C543 C 0.76323 0.89711 0.6286 0.0
C544 C 0.73289 0.98019 0.63346 0.0
C545 C 0.73085 0.9848 0.60088 0.0
C546 C 0.73976 0.9435 0.58228 0.0
C547 C 0.75567 0.89967 0.59612 0.0
H548 H 0.35722 0.22141 0.88425 0.0
H549 H 0.40786 0.1626 0.7966 0.0
H550 H 0.43566 0.26157 0.89188 0.0
H551 H 0.48744 0.20393 0.80422 0.0
H552 H 0.60739 0.3333 0.83441 0.0
H553 H 0.53145 0.29483 0.81518 0.0
H554 H 0.51764 0.21583 0.902 0.0
H555 H 0.59251 0.25336 0.92084 0.0
C556 C 0.38476 0.21808 0.86613 0.0
C557 C 0.3762 0.18859 0.83982 0.0
C558 C 0.42989 0.24094 0.87063 0.0
C559 C 0.46807 0.23523 0.84894 0.0
C560 C 0.45865 0.20893 0.82134 0.0
C561 C 0.413 0.1856 0.81684 0.0
C562 C 0.58889 0.3067 0.84891 0.0
C563 C 0.60594 0.29687 0.87927 0.0
C564 C 0.54527 0.28484 0.83798 0.0
C565 C 0.51807 0.25305 0.85734 0.0
C566 C 0.53715 0.24088 0.88673 0.0
C567 C 0.58029 0.26235 0.89748 0.0
H568 H 0.85496 0.60537 0.63195 0.0
H569 H 0.7115 0.66878 0.62026 0.0
H570 H 0.8203 0.52367 0.62289 0.0
H571 H 0.67704 0.58779 0.61119 0.0
H572 H 0.62054 0.43317 0.60928 0.0
H573 H 0.65834 0.50607 0.63236 0.0
H574 H 0.7867 0.48424 0.57497 0.0
H575 H 0.74886 0.41113 0.55234 0.0
C576 C 0.81586 0.60174 0.62832 0.0
C577 C 0.78595 0.64353 0.62677 0.0
C578 C 0.79608 0.55502 0.62282 0.0
C579 C 0.74591 0.54915 0.61605 0.0
C580 C 0.71568 0.59075 0.61657 0.0
C581 C 0.73548 0.6373 0.62169 0.0
C582 C 0.65724 0.44354 0.60216 0.0
C583 C 0.68211 0.41638 0.57934 0.0
C584 C 0.67879 0.48539 0.6152 0.0
C585 C 0.72563 0.50109 0.60555 0.0
C586 C 0.75096 0.47288 0.58331 0.0
C587 C 0.72921 0.43125 0.57015 0.0
H588 H 0.05911 0.10445 0.85082 0.0
H589 H 0.11318 0.24894 0.82933 0.0
H590 H 0.99641 0.14003 0.88524 0.0
H591 H 0.05092 0.28476 0.86304 0.0
H592 H 0.95126 0.34856 0.92778 0.0
H593 H 0.02086 0.29625 0.9152 0.0
H594 H 0.92178 0.18765 0.87804 0.0
H595 H 0.85238 0.23935 0.89197 0.0
C596 C 0.05797 0.14377 0.85399 0.0
C597 C 0.09121 0.17412 0.83799 0.0
C598 C 0.02206 0.16418 0.87353 0.0
C599 C 0.01874 0.21533 0.87729 0.0
C600 C 0.05296 0.24525 0.86152 0.0
C601 C 0.08849 0.22489 0.84197 0.0
C602 C 0.94431 0.31214 0.91881 0.0
C603 C 0.89643 0.29788 0.91108 0.0
C604 C 0.98423 0.28254 0.91092 0.0
C605 C 0.97713 0.23845 0.89457 0.0
C606 C 0.92883 0.22134 0.89054 0.0
C607 C 0.88881 0.25077 0.89889 0.0
H608 H 0.38084 0.56996 0.1203 0.0
H609 H 0.23746 0.61921 0.09297 0.0
H610 H 0.34413 0.49838 0.14621 0.0
H611 H 0.20049 0.54831 0.11889 0.0
H612 H 0.13867 0.42603 0.17363 0.0
H613 H 0.18433 0.50273 0.16798 0.0
H614 H 0.30285 0.42409 0.12414 0.0
H615 H 0.25682 0.34757 0.12988 0.0
C616 C 0.34132 0.56633 0.12087 0.0
C617 C 0.31184 0.60051 0.10515 0.0
C618 C 0.32031 0.52512 0.1354 0.0
C619 C 0.2693 0.51735 0.13464 0.0
C620 C 0.23978 0.55329 0.12041 0.0
C621 C 0.26086 0.59407 0.10558 0.0
C622 C 0.17559 0.42485 0.16432 0.0
C623 C 0.19469 0.38062 0.15289 0.0
C624 C 0.20144 0.46894 0.16057 0.0
C625 C 0.24707 0.46986 0.14523 0.0
C626 C 0.26806 0.42485 0.13632 0.0
C627 C 0.24194 0.38078 0.13989 0.0
H628 H 0.94664 0.77727 0.29797 0.0
H629 H 0.85618 0.76122 0.38039 0.0
H630 H 0.01668 0.74728 0.32664 0.0
H631 H 0.92763 0.7301 0.40922 0.0
H632 H 0.07547 0.61697 0.40974 0.0
H633 H 0.99453 0.65177 0.39989 0.0
H634 H 0.0619 0.79003 0.3763 0.0
H635 H 0.14279 0.75529 0.38655 0.0
C636 C 0.94139 0.7667 0.32213 0.0
C637 C 0.89592 0.77263 0.33706 0.0
C638 C 0.98178 0.75004 0.33861 0.0
C639 C 0.9777 0.73823 0.37033 0.0
C640 C 0.9316 0.74005 0.38487 0.0
C641 C 0.89082 0.75737 0.36831 0.0
C642 C 0.07263 0.65573 0.40459 0.0
C643 C 0.11506 0.68396 0.39961 0.0
C644 C 0.02638 0.67545 0.3987 0.0
C645 C 0.02233 0.72326 0.38711 0.0
C646 C 0.06436 0.753 0.38528 0.0
C647 C 0.1105 0.73336 0.39137 0.0
loop_
_geom_bond_atom_site_label_1
_geom_bond_atom_site_label_2
_geom_bond_distance
_geom_bond_site_symmetry_2
_ccdc_geom_bond_type
Zn0 O6 1.920 . S
Zn0 O12 1.898 . S
Zn0 O15 1.905 . S
Zn1 O9 1.905 . S
Zn1 O10 1.898 . S
Zn1 O18 1.920 . S
Zn2 O5 2.080 . S
Zn2 O8 2.114 . S
Zn2 O11 2.120 . S
Zn2 O13 2.120 . S
Zn2 O14 2.114 . S
Zn2 O17 2.080 . S
C3 O8 1.166 . S
C3 O9 1.182 . S
C4 O10 1.167 1_655 S
C4 O11 1.299 1_655 S
O5 Zn2 2.080 . S
O5 C19 1.305 . S
O6 Zn0 1.920 . S
O6 C19 1.234 . S
C7 O12 1.167 . S
C7 O13 1.299 . S
O8 Zn2 2.114 . S
O8 C3 1.166 . S
O9 Zn1 1.905 . S
O9 C3 1.182 . S
O10 Zn1 1.898 . S
O10 C4 1.167 1_455 S
O11 Zn2 2.120 . S
O11 C4 1.299 1_455 S
O12 Zn0 1.898 . S
O12 C7 1.167 . S
O13 Zn2 2.120 . S
O13 C7 1.299 . S
O14 Zn2 2.114 . S
O14 C16 1.166 . S
O15 Zn0 1.905 . S
O15 C16 1.182 . S
C16 O14 1.166 . S
C16 O15 1.182 . S
O17 Zn2 2.080 . S
O17 C20 1.305 . S
O18 Zn1 1.920 . S
O18 C20 1.234 . S
C19 O5 1.305 . S
C19 O6 1.234 . S
C20 O17 1.305 . S
C20 O18 1.234 . S
Zn21 O27 1.920 . S
Zn21 O33 1.898 . S
Zn21 O36 1.905 . S
Zn22 O30 1.905 . S
Zn22 O31 1.898 . S
Zn22 O39 1.920 . S
Zn23 O26 2.080 . S
Zn23 O29 2.114 . S
Zn23 O32 2.120 . S
Zn23 O34 2.120 . S
Zn23 O35 2.114 . S
Zn23 O38 2.080 . S
C24 O29 1.166 . S
C24 O30 1.182 . S
C25 O31 1.167 . S
C25 O32 1.299 . S
O26 Zn23 2.080 . S
O26 C40 1.305 . S
O27 Zn21 1.920 . S
O27 C40 1.234 . S
C28 O33 1.167 . S
C28 O34 1.299 . S
O29 Zn23 2.114 . S
O29 C24 1.166 . S
O30 Zn22 1.905 . S
O30 C24 1.182 . S
O31 Zn22 1.898 . S
O31 C25 1.167 . S
O32 Zn23 2.120 . S
O32 C25 1.299 . S
O33 Zn21 1.898 . S
O33 C28 1.167 . S
O34 Zn23 2.120 . S
O34 C28 1.299 . S
O35 Zn23 2.114 . S
O35 C37 1.166 . S
O36 Zn21 1.905 . S
O36 C37 1.182 . S
C37 O35 1.166 . S
C37 O36 1.182 . S
O38 Zn23 2.080 . S
O38 C41 1.305 . S
O39 Zn22 1.920 . S
O39 C41 1.234 . S
C40 O26 1.305 . S
C40 O27 1.234 . S
C41 O38 1.305 . S
C41 O39 1.234 . S
Zn42 O48 1.920 . S
Zn42 O54 1.898 . S
Zn42 O57 1.905 . S
Zn43 O51 1.905 . S
Zn43 O52 1.898 . S
Zn43 O60 1.920 . S
Zn44 O47 2.080 . S
Zn44 O50 2.114 . S
Zn44 O53 2.120 . S
Zn44 O55 2.120 . S
Zn44 O56 2.114 . S
Zn44 O59 2.080 . S
C45 O50 1.166 . S
C45 O51 1.182 . S
C46 O52 1.167 1_455 S
C46 O53 1.299 1_455 S
O47 Zn44 2.080 . S
O47 C61 1.305 . S
O48 Zn42 1.920 . S
O48 C61 1.234 . S
C49 O54 1.167 . S
C49 O55 1.299 . S
O50 Zn44 2.114 . S
O50 C45 1.166 . S
O51 Zn43 1.905 . S
O51 C45 1.182 . S
O52 Zn43 1.898 . S
O52 C46 1.167 1_655 S
O53 Zn44 2.120 . S
O53 C46 1.299 1_655 S
O54 Zn42 1.898 . S
O54 C49 1.167 . S
O55 Zn44 2.120 . S
O55 C49 1.299 . S
O56 Zn44 2.114 . S
O56 C58 1.166 . S
O57 Zn42 1.905 . S
O57 C58 1.182 . S
C58 O56 1.166 . S
C58 O57 1.182 . S
O59 Zn44 2.080 . S
O59 C62 1.305 . S
O60 Zn43 1.920 . S
O60 C62 1.234 . S
C61 O47 1.305 . S
C61 O48 1.234 . S
C62 O59 1.305 . S
C62 O60 1.234 . S
Zn63 O69 1.920 . S
Zn63 O75 1.898 . S
Zn63 O78 1.905 . S
Zn64 O72 1.905 . S
Zn64 O73 1.898 . S
Zn64 O81 1.920 . S
Zn65 O68 2.080 . S
Zn65 O71 2.114 . S
Zn65 O74 2.120 . S
Zn65 O76 2.120 . S
Zn65 O77 2.114 . S
Zn65 O80 2.080 . S
C66 O71 1.166 . S
C66 O72 1.182 . S
C67 O73 1.167 . S
C67 O74 1.299 . S
O68 Zn65 2.080 . S
O68 C82 1.305 . S
O69 Zn63 1.920 . S
O69 C82 1.234 . S
C70 O75 1.167 . S
C70 O76 1.299 . S
O71 Zn65 2.114 . S
O71 C66 1.166 . S
O72 Zn64 1.905 . S
O72 C66 1.182 . S
O73 Zn64 1.898 . S
O73 C67 1.167 . S
O74 Zn65 2.120 . S
O74 C67 1.299 . S
O75 Zn63 1.898 . S
O75 C70 1.167 . S
O76 Zn65 2.120 . S
O76 C70 1.299 . S
O77 Zn65 2.114 . S
O77 C79 1.166 . S
O78 Zn63 1.905 . S
O78 C79 1.182 . S
C79 O77 1.166 . S
C79 O78 1.182 . S
O80 Zn65 2.080 . S
O80 C83 1.305 . S
O81 Zn64 1.920 . S
O81 C83 1.234 . S
C82 O68 1.305 . S
C82 O69 1.234 . S
C83 O80 1.305 . S
C83 O81 1.234 . S
Zn84 O90 1.920 . S
Zn84 O96 1.898 . S
Zn84 O99 1.905 . S
Zn85 O93 1.905 . S
Zn85 O94 1.898 . S
Zn85 O102 1.920 . S
Zn86 O89 2.080 . S
Zn86 O92 2.114 . S
Zn86 O95 2.120 . S
Zn86 O97 2.120 . S
Zn86 O98 2.114 . S
Zn86 O101 2.080 . S
C87 O92 1.166 . S
C87 O93 1.182 . S
C88 O94 1.167 . S
C88 O95 1.299 . S
O89 Zn86 2.080 . S
O89 C103 1.305 . S
O90 Zn84 1.920 . S
O90 C103 1.234 . S
C91 O96 1.167 . S
C91 O97 1.299 . S
O92 Zn86 2.114 . S
O92 C87 1.166 . S
O93 Zn85 1.905 . S
O93 C87 1.182 . S
O94 Zn85 1.898 . S
O94 C88 1.167 . S
O95 Zn86 2.120 . S
O95 C88 1.299 . S
O96 Zn84 1.898 . S
O96 C91 1.167 . S
O97 Zn86 2.120 . S
O97 C91 1.299 . S
O98 Zn86 2.114 . S
O98 C100 1.166 . S
O99 Zn84 1.905 . S
O99 C100 1.182 . S
C100 O98 1.166 . S
C100 O99 1.182 . S
O101 Zn86 2.080 . S
O101 C104 1.305 . S
O102 Zn85 1.920 . S
O102 C104 1.234 . S
C103 O89 1.305 . S
C103 O90 1.234 . S
C104 O101 1.305 . S
C104 O102 1.234 . S
Zn105 O111 1.920 . S
Zn105 O117 1.898 . S
Zn105 O120 1.905 . S
Zn106 O114 1.905 . S
Zn106 O115 1.898 . S
Zn106 O123 1.920 . S
Zn107 O110 2.080 . S
Zn107 O113 2.114 . S
Zn107 O116 2.120 . S
Zn107 O118 2.120 . S
Zn107 O119 2.114 . S
Zn107 O122 2.080 . S
C108 O113 1.166 . S
C108 O114 1.182 . S
C109 O115 1.167 . S
C109 O116 1.299 . S
O110 Zn107 2.080 . S
O110 C124 1.305 . S
O111 Zn105 1.920 . S
O111 C124 1.234 . S
C112 O117 1.167 1_565 S
C112 O118 1.299 1_565 S
O113 Zn107 2.114 . S
O113 C108 1.166 . S
O114 Zn106 1.905 . S
O114 C108 1.182 . S
O115 Zn106 1.898 . S
O115 C109 1.167 . S
O116 Zn107 2.120 . S
O116 C109 1.299 . S
O117 Zn105 1.898 . S
O117 C112 1.167 1_545 S
O118 Zn107 2.120 . S
O118 C112 1.299 1_545 S
O119 Zn107 2.114 . S
O119 C121 1.166 . S
O120 Zn105 1.905 . S
O120 C121 1.182 . S
C121 O119 1.166 . S
C121 O120 1.182 . S
O122 Zn107 2.080 . S
O122 C125 1.305 . S
O123 Zn106 1.920 . S
O123 C125 1.234 . S
C124 O110 1.305 . S
C124 O111 1.234 . S
C125 O122 1.305 . S
C125 O123 1.234 . S
Zn126 O132 1.920 . S
Zn126 O138 1.898 . S
Zn126 O141 1.905 . S
Zn127 O135 1.905 . S
Zn127 O136 1.898 . S
Zn127 O144 1.920 . S
Zn128 O131 2.080 . S
Zn128 O134 2.114 . S
Zn128 O137 2.120 . S
Zn128 O139 2.120 . S
Zn128 O140 2.114 . S
Zn128 O143 2.080 . S
C129 O134 1.166 . S
C129 O135 1.182 . S
C130 O136 1.167 . S
C130 O137 1.299 . S
O131 Zn128 2.080 . S
O131 C145 1.305 . S
O132 Zn126 1.920 . S
O132 C145 1.234 . S
C133 O138 1.167 . S
C133 O139 1.299 . S
O134 Zn128 2.114 . S
O134 C129 1.166 . S
O135 Zn127 1.905 . S
O135 C129 1.182 . S
O136 Zn127 1.898 . S
O136 C130 1.167 . S
O137 Zn128 2.120 . S
O137 C130 1.299 . S
O138 Zn126 1.898 . S
O138 C133 1.167 . S
O139 Zn128 2.120 . S
O139 C133 1.299 . S
O140 Zn128 2.114 . S
O140 C142 1.166 . S
O141 Zn126 1.905 . S
O141 C142 1.182 . S
C142 O140 1.166 . S
C142 O141 1.182 . S
O143 Zn128 2.080 . S
O143 C146 1.305 . S
O144 Zn127 1.920 . S
O144 C146 1.234 . S
C145 O131 1.305 . S
C145 O132 1.234 . S
C146 O143 1.305 . S
C146 O144 1.234 . S
Zn147 O153 1.920 . S
Zn147 O159 1.898 . S
Zn147 O162 1.905 . S
Zn148 O156 1.905 . S
Zn148 O157 1.898 . S
Zn148 O165 1.920 . S
Zn149 O152 2.080 . S
Zn149 O155 2.114 . S
Zn149 O158 2.120 . S
Zn149 O160 2.120 . S
Zn149 O161 2.114 . S
Zn149 O164 2.080 . S
C150 O155 1.166 . S
C150 O156 1.182 . S
C151 O157 1.167 1_545 S
C151 O158 1.299 1_545 S
O152 Zn149 2.080 . S
O152 C166 1.305 . S
O153 Zn147 1.920 . S
O153 C166 1.234 . S
C154 O159 1.167 . S
C154 O160 1.299 . S
O155 Zn149 2.114 . S
O155 C150 1.166 . S
O156 Zn148 1.905 . S
O156 C150 1.182 . S
O157 Zn148 1.898 . S
O157 C151 1.167 1_565 S
O158 Zn149 2.120 . S
O158 C151 1.299 1_565 S
O159 Zn147 1.898 . S
O159 C154 1.167 . S
O160 Zn149 2.120 . S
O160 C154 1.299 . S
O161 Zn149 2.114 . S
O161 C163 1.166 . S
O162 Zn147 1.905 . S
O162 C163 1.182 . S
C163 O161 1.166 . S
C163 O162 1.182 . S
O164 Zn149 2.080 . S
O164 C167 1.305 . S
O165 Zn148 1.920 . S
O165 C167 1.234 . S
C166 O152 1.305 . S
C166 O153 1.234 . S
C167 O164 1.305 . S
C167 O165 1.234 . S
H168 C176 0.950 1_455 S
H169 C181 0.950 . S
H170 C178 0.950 . S
H171 C180 0.950 . S
H172 C182 0.950 . S
H173 C184 0.950 . S
H174 C186 0.950 . S
H175 C187 0.950 1_565 S
C176 H168 0.950 1_655 S
C176 C177 1.386 . S
C176 C178 1.391 . S
C177 C176 1.386 . S
C177 C181 1.393 . S
C178 H170 0.950 . S
C178 C176 1.391 . S
C178 C179 1.400 . S
C179 C178 1.400 . S
C179 C180 1.398 . S
C179 C185 1.491 . S
C180 H171 0.950 . S
C180 C179 1.398 . S
C180 C181 1.391 . S
C181 H169 0.950 . S
C181 C177 1.393 . S
C181 C180 1.391 . S
C182 H172 0.950 . S
C182 C183 1.386 . S
C182 C184 1.391 . S
C183 C182 1.386 . S
C183 C187 1.393 . S
C184 H173 0.950 . S
C184 C182 1.391 . S
C184 C185 1.400 . S
C185 C179 1.491 . S
C185 C184 1.400 . S
C185 C186 1.398 . S
C186 H174 0.950 . S
C186 C185 1.398 . S
C186 C187 1.391 . S
C187 H175 0.950 1_545 S
C187 C183 1.393 . S
C187 C186 1.391 . S
H188 C196 0.950 . S
H189 C201 0.950 . S
H190 C198 0.950 . S
H191 C200 0.950 . S
H192 C202 0.950 . S
H193 C204 0.950 . S
H194 C206 0.950 . S
H195 C207 0.950 . S
C196 H188 0.950 . S
C196 C197 1.386 . S
C196 C198 1.391 . S
C197 C196 1.386 . S
C197 C201 1.393 . S
C198 H190 0.950 . S
C198 C196 1.391 . S
C198 C199 1.400 . S
C199 C198 1.400 . S
C199 C200 1.398 . S
C199 C205 1.491 . S
C200 H191 0.950 . S
C200 C199 1.398 . S
C200 C201 1.391 . S
C201 H189 0.950 . S
C201 C197 1.393 . S
C201 C200 1.391 . S
C202 H192 0.950 . S
C202 C203 1.386 . S
C202 C204 1.391 . S
C203 C202 1.386 . S
C203 C207 1.393 . S
C204 H193 0.950 . S
C204 C202 1.391 . S
C204 C205 1.400 . S
C205 C199 1.491 . S
C205 C204 1.400 . S
C205 C206 1.398 . S
C206 H194 0.950 . S
C206 C205 1.398 . S
C206 C207 1.391 . S
C207 H195 0.950 . S
C207 C203 1.393 . S
C207 C206 1.391 . S
H208 C216 0.950 . S
H209 C221 0.950 1_655 S
H210 C218 0.950 . S
H211 C220 0.950 . S
H212 C222 0.950 1_545 S
H213 C224 0.950 . S
H214 C226 0.950 . S
H215 C227 0.950 . S
C216 H208 0.950 . S
C216 C217 1.386 . S
C216 C218 1.391 . S
C217 C216 1.386 . S
C217 C221 1.393 . S
C218 H210 0.950 . S
C218 C216 1.391 . S
C218 C219 1.400 . S
C219 C218 1.400 . S
C219 C220 1.398 . S
C219 C225 1.491 . S
C220 H211 0.950 . S
C220 C219 1.398 . S
C220 C221 1.391 . S
C221 H209 0.950 1_455 S
C221 C217 1.393 . S
C221 C220 1.391 . S
C222 H212 0.950 1_565 S
C222 C223 1.386 . S
C222 C224 1.391 . S
C223 C222 1.386 . S
C223 C227 1.393 . S
C224 H213 0.950 . S
C224 C222 1.391 . S
C224 C225 1.400 . S
C225 C219 1.491 . S
C225 C224 1.400 . S
C225 C226 1.398 . S
C226 H214 0.950 . S
C226 C225 1.398 . S
C226 C227 1.391 . S
C227 H215 0.950 . S
C227 C223 1.393 . S
C227 C226 1.391 . S
H228 C236 0.950 . S
H229 C241 0.950 . S
H230 C238 0.950 1_556 S
H231 C240 0.950 . S
H232 C242 0.950 . S
H233 C244 0.950 1_554 S
H234 C246 0.950 . S
H235 C247 0.950 . S
C236 H228 0.950 . S
C236 C237 1.386 . S
C236 C238 1.391 . S
C237 C236 1.386 . S
C237 C241 1.393 . S
C238 H230 0.950 1_554 S
C238 C236 1.391 . S
C238 C239 1.400 . S
C239 C238 1.400 . S
C239 C240 1.398 . S
C239 C245 1.491 1_554 S
C240 H231 0.950 . S
C240 C239 1.398 . S
C240 C241 1.391 . S
C241 H229 0.950 . S
C241 C237 1.393 . S
C241 C240 1.391 . S
C242 H232 0.950 . S
C242 C243 1.386 . S
C242 C244 1.391 . S
C243 C242 1.386 . S
C243 C247 1.393 . S
C244 H233 0.950 1_556 S
C244 C242 1.391 . S
C244 C245 1.400 . S
C245 C239 1.491 1_556 S
C245 C244 1.400 . S
C245 C246 1.398 . S
C246 H234 0.950 . S
C246 C245 1.398 . S
C246 C247 1.391 . S
C247 H235 0.950 . S
C247 C243 1.393 . S
C247 C246 1.391 . S
H248 C256 0.950 . S
H249 C261 0.950 . S
H250 C258 0.950 . S
H251 C260 0.950 . S
H252 C262 0.950 . S
H253 C264 0.950 . S
H254 C266 0.950 . S
H255 C267 0.950 . S
C256 H248 0.950 . S
C256 C257 1.386 . S
C256 C258 1.391 . S
C257 C256 1.386 . S
C257 C261 1.393 . S
C258 H250 0.950 . S
C258 C256 1.391 . S
C258 C259 1.400 . S
C259 C258 1.400 . S
C259 C260 1.398 . S
C259 C265 1.491 . S
C260 H251 0.950 . S
C260 C259 1.398 . S
C260 C261 1.391 . S
C261 H249 0.950 . S
C261 C257 1.393 . S
C261 C260 1.391 . S
C262 H252 0.950 . S
C262 C263 1.386 . S
C262 C264 1.391 . S
C263 C262 1.386 . S
C263 C267 1.393 . S
C264 H253 0.950 . S
C264 C262 1.391 . S
C264 C265 1.400 . S
C265 C259 1.491 . S
C265 C264 1.400 . S
C265 C266 1.398 . S
C266 H254 0.950 . S
C266 C265 1.398 . S
C266 C267 1.391 . S
C267 H255 0.950 . S
C267 C263 1.393 . S
C267 C266 1.391 . S
H268 C276 0.950 . S
H269 C281 0.950 1_655 S
H270 C278 0.950 . S
H271 C280 0.950 . S
H272 C282 0.950 . S
H273 C284 0.950 . S
H274 C286 0.950 . S
H275 C287 0.950 . S
C276 H268 0.950 . S
C276 C277 1.386 . S
C276 C278 1.391 . S
C277 C276 1.386 . S
C277 C281 1.393 . S
C278 H270 0.950 . S
C278 C276 1.391 . S
C278 C279 1.400 . S
C279 C278 1.400 . S
C279 C280 1.398 . S
C279 C285 1.491 . S
C280 H271 0.950 . S
C280 C279 1.398 . S
C280 C281 1.391 . S
C281 H269 0.950 1_455 S
C281 C277 1.393 . S
C281 C280 1.391 . S
C282 H272 0.950 . S
C282 C283 1.386 . S
C282 C284 1.391 . S
C283 C282 1.386 . S
C283 C287 1.393 . S
C284 H273 0.950 . S
C284 C282 1.391 . S
C284 C285 1.400 . S
C285 C279 1.491 . S
C285 C284 1.400 . S
C285 C286 1.398 . S
C286 H274 0.950 . S
C286 C285 1.398 . S
C286 C287 1.391 . S
C287 H275 0.950 . S
C287 C283 1.393 . S
C287 C286 1.391 . S
H288 C296 0.950 . S
H289 C301 0.950 . S
H290 C298 0.950 . S
H291 C300 0.950 . S
H292 C302 0.950 . S
H293 C304 0.950 . S
H294 C306 0.950 . S
H295 C307 0.950 . S
C296 H288 0.950 . S
C296 C297 1.386 . S
C296 C298 1.391 . S
C297 C296 1.386 . S
C297 C301 1.393 . S
C298 H290 0.950 . S
C298 C296 1.391 . S
C298 C299 1.400 . S
C299 C298 1.400 . S
C299 C300 1.398 . S
C299 C305 1.491 . S
C300 H291 0.950 . S
C300 C299 1.398 . S
C300 C301 1.391 . S
C301 H289 0.950 . S
C301 C297 1.393 . S
C301 C300 1.391 . S
C302 H292 0.950 . S
C302 C303 1.386 . S
C302 C304 1.391 . S
C303 C302 1.386 . S
C303 C307 1.393 . S
C304 H293 0.950 . S
C304 C302 1.391 . S
C304 C305 1.400 . S
C305 C299 1.491 . S
C305 C304 1.400 . S
C305 C306 1.398 . S
C306 H294 0.950 . S
C306 C305 1.398 . S
C306 C307 1.391 . S
C307 H295 0.950 . S
C307 C303 1.393 . S
C307 C306 1.391 . S
H308 C316 0.950 . S
H309 C321 0.950 1_455 S
H310 C318 0.950 . S
H311 C320 0.950 . S
H312 C322 0.950 . S
H313 C324 0.950 1_556 S
H314 C326 0.950 . S
H315 C327 0.950 . S
C316 H308 0.950 . S
C316 C317 1.386 . S
C316 C318 1.391 . S
C317 C316 1.386 . S
C317 C321 1.393 . S
C318 H310 0.950 . S
C318 C316 1.391 . S
C318 C319 1.400 . S
C319 C318 1.400 . S
C319 C320 1.398 . S
C319 C325 1.491 . S
C320 H311 0.950 . S
C320 C319 1.398 . S
C320 C321 1.391 . S
C321 H309 0.950 1_655 S
C321 C317 1.393 . S
C321 C320 1.391 . S
C322 H312 0.950 . S
C322 C323 1.386 . S
C322 C324 1.391 1_556 S
C323 C322 1.386 . S
C323 C327 1.393 1_556 S
C324 H313 0.950 1_554 S
C324 C322 1.391 1_554 S
C324 C325 1.400 . S
C325 C319 1.491 . S
C325 C324 1.400 . S
C325 C326 1.398 . S
C326 H314 0.950 . S
C326 C325 1.398 . S
C326 C327 1.391 . S
C327 H315 0.950 . S
C327 C323 1.393 1_554 S
C327 C326 1.391 . S
H328 C336 0.950 . S
H329 C341 0.950 . S
H330 C338 0.950 . S
H331 C340 0.950 . S
H332 C342 0.950 . S
H333 C344 0.950 . S
H334 C346 0.950 . S
H335 C347 0.950 . S
C336 H328 0.950 . S
C336 C337 1.386 . S
C336 C338 1.391 . S
C337 C336 1.386 . S
C337 C341 1.393 . S
C338 H330 0.950 . S
C338 C336 1.391 . S
C338 C339 1.400 . S
C339 C338 1.400 . S
C339 C340 1.398 . S
C339 C345 1.491 . S
C340 H331 0.950 . S
C340 C339 1.398 . S
C340 C341 1.391 . S
C341 H329 0.950 . S
C341 C337 1.393 . S
C341 C340 1.391 . S
C342 H332 0.950 . S
C342 C343 1.386 . S
C342 C344 1.391 . S
C343 C342 1.386 . S
C343 C347 1.393 . S
C344 H333 0.950 . S
C344 C342 1.391 . S
C344 C345 1.400 . S
C345 C339 1.491 . S
C345 C344 1.400 . S
C345 C346 1.398 . S
C346 H334 0.950 . S
C346 C345 1.398 . S
C346 C347 1.391 . S
C347 H335 0.950 . S
C347 C343 1.393 . S
C347 C346 1.391 . S
H348 C356 0.950 . S
H349 C361 0.950 . S
H350 C358 0.950 . S
H351 C360 0.950 . S
H352 C362 0.950 . S
H353 C364 0.950 . S
H354 C366 0.950 . S
H355 C367 0.950 . S
C356 H348 0.950 . S
C356 C357 1.386 . S
C356 C358 1.391 . S
C357 C356 1.386 . S
C357 C361 1.393 . S
C358 H350 0.950 . S
C358 C356 1.391 . S
C358 C359 1.400 . S
C359 C358 1.400 . S
C359 C360 1.398 . S
C359 C365 1.491 . S
C360 H351 0.950 . S
C360 C359 1.398 . S
C360 C361 1.391 . S
C361 H349 0.950 . S
C361 C357 1.393 . S
C361 C360 1.391 . S
C362 H352 0.950 . S
C362 C363 1.386 . S
C362 C364 1.391 . S
C363 C362 1.386 . S
C363 C367 1.393 . S
C364 H353 0.950 . S
C364 C362 1.391 . S
C364 C365 1.400 . S
C365 C359 1.491 . S
C365 C364 1.400 . S
C365 C366 1.398 . S
C366 H354 0.950 . S
C366 C365 1.398 . S
C366 C367 1.391 . S
C367 H355 0.950 . S
C367 C363 1.393 . S
C367 C366 1.391 . S
H368 C376 0.953 . S
H369 C381 0.950 . S
H370 C378 0.950 . S
H371 C380 0.950 . S
H372 C382 0.950 1_545 S
H373 C384 0.950 . S
H374 C386 0.950 . S
H375 C387 0.950 . S
C376 H368 0.953 . S
C376 C377 1.386 1_556 S
C376 C378 1.391 . S
C377 C376 1.386 1_554 S
C377 C381 1.393 . S
C378 H370 0.950 . S
C378 C376 1.391 . S
C378 C379 1.400 . S
C379 C378 1.400 . S
C379 C380 1.398 . S
C379 C385 1.491 . S
C380 H371 0.950 . S
C380 C379 1.398 . S
C380 C381 1.391 1_556 S
C381 H369 0.950 . S
C381 C377 1.393 . S
C381 C380 1.391 1_554 S
C382 H372 0.950 1_565 S
C382 C383 1.386 . S
C382 C384 1.391 . S
C383 C382 1.386 . S
C383 C387 1.393 . S
C384 H373 0.950 . S
C384 C382 1.391 . S
C384 C385 1.400 . S
C385 C379 1.491 . S
C385 C384 1.400 . S
C385 C386 1.398 . S
C386 H374 0.950 . S
C386 C385 1.398 . S
C386 C387 1.391 . S
C387 H375 0.950 . S
C387 C383 1.393 . S
C387 C386 1.391 . S
H388 C396 0.950 . S
H389 C401 0.950 . S
H390 C398 0.950 . S
H391 C400 0.950 . S
H392 C402 0.950 . S
H393 C404 0.950 . S
H394 C406 0.950 . S
H395 C407 0.950 . S
C396 H388 0.950 . S
C396 C397 1.386 . S
C396 C398 1.391 . S
C397 C396 1.386 . S
C397 C401 1.393 . S
C398 H390 0.950 . S
C398 C396 1.391 . S
C398 C399 1.400 . S
C399 C398 1.400 . S
C399 C400 1.398 . S
C399 C405 1.491 . S
C400 H391 0.950 . S
C400 C399 1.398 . S
C400 C401 1.391 . S
C401 H389 0.950 . S
C401 C397 1.393 . S
C401 C400 1.391 . S
C402 H392 0.950 . S
C402 C403 1.386 . S
C402 C404 1.391 . S
C403 C402 1.386 . S
C403 C407 1.393 . S
C404 H393 0.950 . S
C404 C402 1.391 . S
C404 C405 1.400 . S
C405 C399 1.491 . S
C405 C404 1.400 . S
C405 C406 1.398 . S
C406 H394 0.950 . S
C406 C405 1.398 . S
C406 C407 1.391 . S
C407 H395 0.950 . S
C407 C403 1.393 . S
C407 C406 1.391 . S
H408 C416 0.950 . S
H409 C421 0.950 . S
H410 C418 0.950 . S
H411 C420 0.950 . S
H412 C422 0.950 . S
H413 C424 0.950 . S
H414 C426 0.950 . S
H415 C427 0.950 . S
C416 H408 0.950 . S
C416 C417 1.386 . S
C416 C418 1.391 . S
C417 C416 1.386 . S
C417 C421 1.393 . S
C418 H410 0.950 . S
C418 C416 1.391 . S
C418 C419 1.400 . S
C419 C418 1.400 . S
C419 C420 1.398 . S
C419 C425 1.491 1_556 S
C420 H411 0.950 . S
C420 C419 1.398 . S
C420 C421 1.391 . S
C421 H409 0.950 . S
C421 C417 1.393 . S
C421 C420 1.391 . S
C422 H412 0.950 . S
C422 C423 1.386 . S
C422 C424 1.391 . S
C423 C422 1.386 . S
C423 C427 1.393 . S
C424 H413 0.950 . S
C424 C422 1.391 . S
C424 C425 1.400 . S
C425 C419 1.491 1_554 S
C425 C424 1.400 . S
C425 C426 1.398 . S
C426 H414 0.950 . S
C426 C425 1.398 . S
C426 C427 1.391 . S
C427 H415 0.950 . S
C427 C423 1.393 . S
C427 C426 1.391 . S
H428 C436 0.950 . S
H429 C441 0.950 . S
H430 C438 0.950 . S
H431 C440 0.950 . S
H432 C442 0.950 . S
H433 C444 0.950 . S
H434 C446 0.950 . S
H435 C447 0.950 . S
C436 H428 0.950 . S
C436 C437 1.386 . S
C436 C438 1.391 . S
C437 C436 1.386 . S
C437 C441 1.393 . S
C438 H430 0.950 . S
C438 C436 1.391 . S
C438 C439 1.400 . S
C439 C438 1.400 . S
C439 C440 1.398 . S
C439 C445 1.491 . S
C440 H431 0.950 . S
C440 C439 1.398 . S
C440 C441 1.391 . S
C441 H429 0.950 . S
C441 C437 1.393 . S
C441 C440 1.391 . S
C442 H432 0.950 . S
C442 C443 1.386 . S
C442 C444 1.391 . S
C443 C442 1.386 . S
C443 C447 1.393 . S
C444 H433 0.950 . S
C444 C442 1.391 . S
C444 C445 1.400 . S
C445 C439 1.491 . S
C445 C444 1.400 . S
C445 C446 1.398 . S
C446 H434 0.950 . S
C446 C445 1.398 . S
C446 C447 1.391 . S
C447 H435 0.950 . S
C447 C443 1.393 . S
C447 C446 1.391 . S
H448 C456 0.950 . S
H449 C461 0.950 . S
H450 C458 0.950 . S
H451 C460 0.950 . S
H452 C462 0.950 . S
H453 C464 0.950 . S
H454 C466 0.950 . S
H455 C467 0.950 . S
C456 H448 0.950 . S
C456 C457 1.386 . S
C456 C458 1.391 . S
C457 C456 1.386 . S
C457 C461 1.393 . S
C458 H450 0.950 . S
C458 C456 1.391 . S
C458 C459 1.400 . S
C459 C458 1.400 . S
C459 C460 1.398 . S
C459 C465 1.491 . S
C460 H451 0.950 . S
C460 C459 1.398 . S
C460 C461 1.391 . S
C461 H449 0.950 . S
C461 C457 1.393 . S
C461 C460 1.391 . S
C462 H452 0.950 . S
C462 C463 1.386 . S
C462 C464 1.391 . S
C463 C462 1.386 . S
C463 C467 1.393 . S
C464 H453 0.950 . S
C464 C462 1.391 . S
C464 C465 1.400 . S
C465 C459 1.491 . S
C465 C464 1.400 . S
C465 C466 1.398 . S
C466 H454 0.950 . S
C466 C465 1.398 . S
C466 C467 1.391 . S
C467 H455 0.950 . S
C467 C463 1.393 . S
C467 C466 1.391 . S
H468 C476 0.950 . S
H469 C481 0.950 . S
H470 C478 0.950 . S
H471 C480 0.950 . S
H472 C482 0.950 . S
H473 C484 0.950 . S
H474 C486 0.950 . S
H475 C487 0.950 . S
C476 H468 0.950 . S
C476 C477 1.386 . S
C476 C478 1.391 . S
C477 C476 1.386 . S
C477 C481 1.393 . S
C478 H470 0.950 . S
C478 C476 1.391 . S
C478 C479 1.400 . S
C479 C478 1.400 . S
C479 C480 1.398 . S
C479 C485 1.491 . S
C480 H471 0.950 . S
C480 C479 1.398 . S
C480 C481 1.391 . S
C481 H469 0.950 . S
C481 C477 1.393 . S
C481 C480 1.391 . S
C482 H472 0.950 . S
C482 C483 1.386 . S
C482 C484 1.391 . S
C483 C482 1.386 . S
C483 C487 1.393 . S
C484 H473 0.950 . S
C484 C482 1.391 . S
C484 C485 1.400 . S
C485 C479 1.491 . S
C485 C484 1.400 . S
C485 C486 1.398 . S
C486 H474 0.950 . S
C486 C485 1.398 . S
C486 C487 1.391 . S
C487 H475 0.950 . S
C487 C483 1.393 . S
C487 C486 1.391 . S
H488 C496 0.950 . S
H489 C501 0.950 . S
H490 C498 0.950 1_565 S
H491 C500 0.950 . S
H492 C502 0.950 . S
H493 C504 0.950 . S
H494 C506 0.950 . S
H495 C507 0.950 . S
C496 H488 0.950 . S
C496 C497 1.386 . S
C496 C498 1.391 . S
C497 C496 1.386 . S
C497 C501 1.393 . S
C498 H490 0.950 1_545 S
C498 C496 1.391 . S
C498 C499 1.400 . S
C499 C498 1.400 . S
C499 C500 1.398 . S
C499 C505 1.491 1_545 S
C500 H491 0.950 . S
C500 C499 1.398 . S
C500 C501 1.391 . S
C501 H489 0.950 . S
C501 C497 1.393 . S
C501 C500 1.391 . S
C502 H492 0.950 . S
C502 C503 1.386 . S
C502 C504 1.391 . S
C503 C502 1.386 . S
C503 C507 1.393 . S
C504 H493 0.950 . S
C504 C502 1.391 . S
C504 C505 1.400 . S
C505 C499 1.491 1_565 S
C505 C504 1.400 . S
C505 C506 1.398 . S
C506 H494 0.950 . S
C506 C505 1.398 . S
C506 C507 1.391 . S
C507 H495 0.950 . S
C507 C503 1.393 . S
C507 C506 1.391 . S
H508 C516 0.950 . S
H509 C521 0.950 . S
H510 C518 0.950 . S
H511 C520 0.950 . S
H512 C522 0.950 . S
H513 C524 0.950 . S
H514 C526 0.950 . S
H515 C527 0.950 . S
C516 H508 0.950 . S
C516 C517 1.386 . S
C516 C518 1.391 . S
C517 C516 1.386 . S
C517 C521 1.393 . S
C518 H510 0.950 . S
C518 C516 1.391 . S
C518 C519 1.400 . S
C519 C518 1.400 . S
C519 C520 1.398 . S
C519 C525 1.491 . S
C520 H511 0.950 . S
C520 C519 1.398 . S
C520 C521 1.391 . S
C521 H509 0.950 . S
C521 C517 1.393 . S
C521 C520 1.391 . S
C522 H512 0.950 . S
C522 C523 1.386 . S
C522 C524 1.391 . S
C523 C522 1.386 . S
C523 C527 1.393 . S
C524 H513 0.950 . S
C524 C522 1.391 . S
C524 C525 1.400 . S
C525 C519 1.491 . S
C525 C524 1.400 . S
C525 C526 1.398 . S
C526 H514 0.950 . S
C526 C525 1.398 . S
C526 C527 1.391 . S
C527 H515 0.950 . S
C527 C523 1.393 . S
C527 C526 1.391 . S
H528 C536 0.950 . S
H529 C541 0.950 . S
H530 C538 0.943 1_565 S
H531 C540 0.950 . S
H532 C542 0.950 . S
H533 C544 0.950 1_545 S
H534 C546 0.950 . S
H535 C547 0.950 . S
C536 H528 0.950 . S
C536 C537 1.386 . S
C536 C538 1.391 . S
C537 C536 1.386 . S
C537 C541 1.393 . S
C538 H530 0.943 1_545 S
C538 C536 1.391 . S
C538 C539 1.400 . S
C539 C538 1.400 . S
C539 C540 1.398 . S
C539 C545 1.491 1_545 S
C540 H531 0.950 . S
C540 C539 1.398 . S
C540 C541 1.391 . S
C541 H529 0.950 . S
C541 C537 1.393 . S
C541 C540 1.391 . S
C542 H532 0.950 . S
C542 C543 1.386 . S
C542 C544 1.391 . S
C543 C542 1.386 . S
C543 C547 1.393 . S
C544 H533 0.950 1_565 S
C544 C542 1.391 . S
C544 C545 1.400 . S
C545 C539 1.491 1_565 S
C545 C544 1.400 . S
C545 C546 1.398 . S
C546 H534 0.950 . S
C546 C545 1.398 . S
C546 C547 1.391 . S
C547 H535 0.950 . S
C547 C543 1.393 . S
C547 C546 1.391 . S
H548 C556 0.950 . S
H549 C561 0.950 . S
H550 C558 0.950 . S
H551 C560 0.950 . S
H552 C562 0.950 . S
H553 C564 0.950 . S
H554 C566 0.950 . S
H555 C567 0.950 . S
C556 H548 0.950 . S
C556 C557 1.386 . S
C556 C558 1.391 . S
C557 C556 1.386 . S
C557 C561 1.393 . S
C558 H550 0.950 . S
C558 C556 1.391 . S
C558 C559 1.400 . S
C559 C558 1.400 . S
C559 C560 1.398 . S
C559 C565 1.491 . S
C560 H551 0.950 . S
C560 C559 1.398 . S
C560 C561 1.391 . S
C561 H549 0.950 . S
C561 C557 1.393 . S
C561 C560 1.391 . S
C562 H552 0.950 . S
C562 C563 1.386 . S
C562 C564 1.391 . S
C563 C562 1.386 . S
C563 C567 1.393 . S
C564 H553 0.950 . S
C564 C562 1.391 . S
C564 C565 1.400 . S
C565 C559 1.491 . S
C565 C564 1.400 . S
C565 C566 1.398 . S
C566 H554 0.950 . S
C566 C565 1.398 . S
C566 C567 1.391 . S
C567 H555 0.950 . S
C567 C563 1.393 . S
C567 C566 1.391 . S
H568 C576 0.950 . S
H569 C581 0.950 . S
H570 C578 0.950 . S
H571 C580 0.950 . S
H572 C582 0.950 . S
H573 C584 0.950 . S
H574 C586 0.950 . S
H575 C587 0.950 . S
C576 H568 0.950 . S
C576 C577 1.386 . S
C576 C578 1.391 . S
C577 C576 1.386 . S
C577 C581 1.393 . S
C578 H570 0.950 . S
C578 C576 1.391 . S
C578 C579 1.400 . S
C579 C578 1.400 . S
C579 C580 1.398 . S
C579 C585 1.491 . S
C580 H571 0.950 . S
C580 C579 1.398 . S
C580 C581 1.391 . S
C581 H569 0.950 . S
C581 C577 1.393 . S
C581 C580 1.391 . S
C582 H572 0.950 . S
C582 C583 1.386 . S
C582 C584 1.391 . S
C583 C582 1.386 . S
C583 C587 1.393 . S
C584 H573 0.950 . S
C584 C582 1.391 . S
C584 C585 1.400 . S
C585 C579 1.491 . S
C585 C584 1.400 . S
C585 C586 1.398 . S
C586 H574 0.950 . S
C586 C585 1.398 . S
C586 C587 1.391 . S
C587 H575 0.950 . S
C587 C583 1.393 . S
C587 C586 1.391 . S
H588 C596 0.950 . S
H589 C601 0.950 . S
H590 C598 0.950 1_655 S
H591 C600 0.950 . S
H592 C602 0.950 . S
H593 C604 0.950 1_455 S
H594 C606 0.950 . S
H595 C607 0.950 . S
C596 H588 0.950 . S
C596 C597 1.386 . S
C596 C598 1.391 . S
C597 C596 1.386 . S
C597 C601 1.393 . S
C598 H590 0.950 1_455 S
C598 C596 1.391 . S
C598 C599 1.400 . S
C599 C598 1.400 . S
C599 C600 1.398 . S
C599 C605 1.491 1_455 S
C600 H591 0.950 . S
C600 C599 1.398 . S
C600 C601 1.391 . S
C601 H589 0.950 . S
C601 C597 1.393 . S
C601 C600 1.391 . S
C602 H592 0.950 . S
C602 C603 1.386 . S
C602 C604 1.391 . S
C603 C602 1.386 . S
C603 C607 1.393 . S
C604 H593 0.950 1_655 S
C604 C602 1.391 . S
C604 C605 1.400 . S
C605 C599 1.491 1_655 S
C605 C604 1.400 . S
C605 C606 1.398 . S
C606 H594 0.950 . S
C606 C605 1.398 . S
C606 C607 1.391 . S
C607 H595 0.950 . S
C607 C603 1.393 . S
C607 C606 1.391 . S
H608 C616 0.950 . S
H609 C621 0.950 . S
H610 C618 0.950 . S
H611 C620 0.950 . S
H612 C622 0.950 . S
H613 C624 0.950 . S
H614 C626 0.950 . S
H615 C627 0.950 . S
C616 H608 0.950 . S
C616 C617 1.386 . S
C616 C618 1.391 . S
C617 C616 1.386 . S
C617 C621 1.393 . S
C618 H610 0.950 . S
C618 C616 1.391 . S
C618 C619 1.400 . S
C619 C618 1.400 . S
C619 C620 1.398 . S
C619 C625 1.491 . S
C620 H611 0.950 . S
C620 C619 1.398 . S
C620 C621 1.391 . S
C621 H609 0.950 . S
C621 C617 1.393 . S
C621 C620 1.391 . S
C622 H612 0.950 . S
C622 C623 1.386 . S
C622 C624 1.391 . S
C623 C622 1.386 . S
C623 C627 1.393 . S
C624 H613 0.950 . S
C624 C622 1.391 . S
C624 C625 1.400 . S
C625 C619 1.491 . S
C625 C624 1.400 . S
C625 C626 1.398 . S
C626 H614 0.950 . S
C626 C625 1.398 . S
C626 C627 1.391 . S
C627 H615 0.950 . S
C627 C623 1.393 . S
C627 C626 1.391 . S
H628 C636 0.950 . S
H629 C641 0.950 . S
H630 C638 0.950 1_455 S
H631 C640 0.950 . S
H632 C642 0.950 . S
H633 C644 0.950 . S
H634 C646 0.950 . S
H635 C647 0.950 . S
C636 H628 0.950 . S
C636 C637 1.386 . S
C636 C638 1.391 . S
C637 C636 1.386 . S
C637 C641 1.393 . S
C638 H630 0.950 1_655 S
C638 C636 1.391 . S
C638 C639 1.400 . S
C639 C638 1.400 . S
C639 C640 1.398 . S
C639 C645 1.491 1_655 S
C640 H631 0.950 . S
C640 C639 1.398 . S
C640 C641 1.391 . S
C641 H629 0.950 . S
C641 C637 1.393 . S
C641 C640 1.391 . S
C642 H632 0.950 . S
C642 C643 1.386 . S
C642 C644 1.391 . S
C643 C642 1.386 . S
C643 C647 1.393 . S
C644 H633 0.950 . S
C644 C642 1.391 . S
C644 C645 1.400 . S
C645 C639 1.491 1_455 S
C645 C644 1.400 . S
C645 C646 1.398 . S
C646 H634 0.950 . S
C646 C645 1.398 . S
C646 C647 1.391 . S
C647 H635 0.950 . S
C647 C643 1.393 . S
C647 C646 1.391 . S
C177 C16 0.997 1_655 S
C183 C163 0.999 1_545 S
C197 C37 1.002 . S
C203 C87 1.043 . S
C217 C58 1.044 1_455 S
C223 C108 1.056 1_565 S
C237 C142 1.037 . S
C243 C79 0.997 . S
C257 C19 1.035 . S
C263 C25 0.874 . S
C277 C46 0.908 . S
C283 C40 1.054 . S
C297 C67 0.948 . S
C303 C61 1.077 . S
C317 C4 0.899 . S
C323 C82 1.049 . S
C337 C104 1.075 . S
C343 C151 0.944 . S
C357 C125 1.047 . S
C363 C91 0.895 . S
C377 C145 1.070 . S
C383 C112 0.937 . S
C397 C130 0.875 . S
C403 C166 1.036 . S
C417 C121 0.715 . S
C423 C3 0.710 . S
C437 C129 0.695 . S
C443 C24 0.718 . S
C457 C150 0.655 . S
C463 C45 0.698 . S
C477 C100 0.712 . S
C483 C66 0.673 . S
C497 C7 1.911 . S
C503 C146 1.811 . S
C517 C28 1.911 . S
C523 C167 1.810 . S
C537 C103 1.831 . S
C543 C49 1.901 . S
C557 C124 1.822 . S
C563 C70 1.890 . S
C577 C62 1.831 . S
C583 C88 1.891 . S
C597 C109 1.910 . S
C603 C83 1.807 . S
C617 C133 1.908 . S
C623 C20 1.805 . S
C637 C154 1.900 . S
C643 C41 1.807 . S
