# Generated by pormake.
# Topology lcy-a, (4)-cn, num edge types: 1
# Building blocks:
#     Node 0, Type 0, BuildingBlock: GALJAG_clean_sbu_0, # of connection points: 4
#     Node 1, Type 0, BuildingBlock: GALJAG_clean_sbu_0, # of connection points: 4
#     Node 2, Type 0, BuildingBlock: GALJAG_clean_sbu_0, # of connection points: 4
#     Node 3, Type 0, BuildingBlock: GALJAG_clean_sbu_0, # of connection points: 4
#     Node 4, Type 0, BuildingBlock: GALJAG_clean_sbu_0, # of connection points: 4
#     Node 5, Type 0, BuildingBlock: GALJAG_clean_sbu_0, # of connection points: 4
#     Node 6, Type 0, BuildingBlock: GALJAG_clean_sbu_0, # of connection points: 4
#     Node 7, Type 0, BuildingBlock: GALJAG_clean_sbu_0, # of connection points: 4
#     Node 8, Type 0, BuildingBlock: GALJAG_clean_sbu_0, # of connection points: 4
#     Node 9, Type 0, BuildingBlock: GALJAG_clean_sbu_0, # of connection points: 4
#     Node 10, Type 0, BuildingBlock: GALJAG_clean_sbu_0, # of connection points: 4
#     Node 11, Type 0, BuildingBlock: GALJAG_clean_sbu_0, # of connection points: 4
#     Node 12, Type 0, BuildingBlock: GALJAG_clean_sbu_0, # of connection points: 4
#     Node 13, Type 0, BuildingBlock: GALJAG_clean_sbu_0, # of connection points: 4
#     Node 14, Type 0, BuildingBlock: GALJAG_clean_sbu_0, # of connection points: 4
#     Node 15, Type 0, BuildingBlock: GALJAG_clean_sbu_0, # of connection points: 4
#     Node 16, Type 0, BuildingBlock: GALJAG_clean_sbu_0, # of connection points: 4
#     Node 17, Type 0, BuildingBlock: GALJAG_clean_sbu_0, # of connection points: 4
#     Node 18, Type 0, BuildingBlock: GALJAG_clean_sbu_0, # of connection points: 4
#     Node 19, Type 0, BuildingBlock: GALJAG_clean_sbu_0, # of connection points: 4
#     Node 20, Type 0, BuildingBlock: GALJAG_clean_sbu_0, # of connection points: 4
#     Node 21, Type 0, BuildingBlock: GALJAG_clean_sbu_0, # of connection points: 4
#     Node 22, Type 0, BuildingBlock: GALJAG_clean_sbu_0, # of connection points: 4
#     Node 23, Type 0, BuildingBlock: GALJAG_clean_sbu_0, # of connection points: 4
#     Edge 24, Type (0, 0), BuildingBlock: KIFKEQ_clean_linker_1, # of connection points: 2
#     Edge 25, Type (0, 0), BuildingBlock: KIFKEQ_clean_linker_1, # of connection points: 2
#     Edge 26, Type (0, 0), BuildingBlock: KIFKEQ_clean_linker_1, # of connection points: 2
#     Edge 27, Type (0, 0), BuildingBlock: KIFKEQ_clean_linker_1, # of connection points: 2
#     Edge 28, Type (0, 0), BuildingBlock: KIFKEQ_clean_linker_1, # of connection points: 2
#     Edge 29, Type (0, 0), BuildingBlock: KIFKEQ_clean_linker_1, # of connection points: 2
#     Edge 30, Type (0, 0), BuildingBlock: KIFKEQ_clean_linker_1, # of connection points: 2
#     Edge 31, Type (0, 0), BuildingBlock: KIFKEQ_clean_linker_1, # of connection points: 2
#     Edge 32, Type (0, 0), BuildingBlock: KIFKEQ_clean_linker_1, # of connection points: 2
#     Edge 33, Type (0, 0), BuildingBlock: KIFKEQ_clean_linker_1, # of connection points: 2
#     Edge 34, Type (0, 0), BuildingBlock: KIFKEQ_clean_linker_1, # of connection points: 2
#     Edge 35, Type (0, 0), BuildingBlock: KIFKEQ_clean_linker_1, # of connection points: 2
#     Edge 36, Type (0, 0), BuildingBlock: KIFKEQ_clean_linker_1, # of connection points: 2
#     Edge 37, Type (0, 0), BuildingBlock: KIFKEQ_clean_linker_1, # of connection points: 2
#     Edge 38, Type (0, 0), BuildingBlock: KIFKEQ_clean_linker_1, # of connection points: 2
#     Edge 39, Type (0, 0), BuildingBlock: KIFKEQ_clean_linker_1, # of connection points: 2
#     Edge 40, Type (0, 0), BuildingBlock: KIFKEQ_clean_linker_1, # of connection points: 2
#     Edge 41, Type (0, 0), BuildingBlock: KIFKEQ_clean_linker_1, # of connection points: 2
#     Edge 42, Type (0, 0), BuildingBlock: KIFKEQ_clean_linker_1, # of connection points: 2
#     Edge 43, Type (0, 0), BuildingBlock: KIFKEQ_clean_linker_1, # of connection points: 2
#     Edge 44, Type (0, 0), BuildingBlock: KIFKEQ_clean_linker_1, # of connection points: 2
#     Edge 45, Type (0, 0), BuildingBlock: KIFKEQ_clean_linker_1, # of connection points: 2
#     Edge 46, Type (0, 0), BuildingBlock: KIFKEQ_clean_linker_1, # of connection points: 2
#     Edge 47, Type (0, 0), BuildingBlock: KIFKEQ_clean_linker_1, # of connection points: 2
#     Edge 48, Type (0, 0), BuildingBlock: KIFKEQ_clean_linker_1, # of connection points: 2
#     Edge 49, Type (0, 0), BuildingBlock: KIFKEQ_clean_linker_1, # of connection points: 2
#     Edge 50, Type (0, 0), BuildingBlock: KIFKEQ_clean_linker_1, # of connection points: 2
#     Edge 51, Type (0, 0), BuildingBlock: KIFKEQ_clean_linker_1, # of connection points: 2
#     Edge 52, Type (0, 0), BuildingBlock: KIFKEQ_clean_linker_1, # of connection points: 2
#     Edge 53, Type (0, 0), BuildingBlock: KIFKEQ_clean_linker_1, # of connection points: 2
#     Edge 54, Type (0, 0), BuildingBlock: KIFKEQ_clean_linker_1, # of connection points: 2
#     Edge 55, Type (0, 0), BuildingBlock: KIFKEQ_clean_linker_1, # of connection points: 2
#     Edge 56, Type (0, 0), BuildingBlock: KIFKEQ_clean_linker_1, # of connection points: 2
#     Edge 57, Type (0, 0), BuildingBlock: KIFKEQ_clean_linker_1, # of connection points: 2
#     Edge 58, Type (0, 0), BuildingBlock: KIFKEQ_clean_linker_1, # of connection points: 2
#     Edge 59, Type (0, 0), BuildingBlock: KIFKEQ_clean_linker_1, # of connection points: 2
#     Edge 60, Type (0, 0), BuildingBlock: KIFKEQ_clean_linker_1, # of connection points: 2
#     Edge 61, Type (0, 0), BuildingBlock: KIFKEQ_clean_linker_1, # of connection points: 2
#     Edge 62, Type (0, 0), BuildingBlock: KIFKEQ_clean_linker_1, # of connection points: 2
#     Edge 63, Type (0, 0), BuildingBlock: KIFKEQ_clean_linker_1, # of connection points: 2
#     Edge 64, Type (0, 0), BuildingBlock: KIFKEQ_clean_linker_1, # of connection points: 2
#     Edge 65, Type (0, 0), BuildingBlock: KIFKEQ_clean_linker_1, # of connection points: 2
#     Edge 66, Type (0, 0), BuildingBlock: KIFKEQ_clean_linker_1, # of connection points: 2
#     Edge 67, Type (0, 0), BuildingBlock: KIFKEQ_clean_linker_1, # of connection points: 2
#     Edge 68, Type (0, 0), BuildingBlock: KIFKEQ_clean_linker_1, # of connection points: 2
#     Edge 69, Type (0, 0), BuildingBlock: KIFKEQ_clean_linker_1, # of connection points: 2
#     Edge 70, Type (0, 0), BuildingBlock: KIFKEQ_clean_linker_1, # of connection points: 2
#     Edge 71, Type (0, 0), BuildingBlock: KIFKEQ_clean_linker_1, # of connection points: 2
# Relax obj value: 0.436
# Max RMSD: 0.150
# Mean RMSD: 0.150
data_MOF--net-lcy-a--node1-GALJAG_clean_sbu_0--edge1-KIFKEQ_clean_linker_1
_symmetry_space_group_name_H-M    P1
_symmetry_Int_Tables_number       1
_symmetry_cell_setting            triclinic
loop_
_symmetry_equiv_pos_as_xyz
'x, y, z'
_cell_length_a     57.205313
_cell_length_b     57.190332
_cell_length_c     57.24806
_cell_angle_alpha  90.034421
_cell_angle_beta   90.051549
_cell_angle_gamma 90.016982
loop_
_atom_site_label
_atom_site_type_symbol
_atom_site_fract_x
_atom_site_fract_y
_atom_site_fract_z
_atom_type_partial_charge
In0 In 0.19682 0.28969 0.39446 0.0
O1 O 0.23335 0.30406 0.401 0.0
O2 O 0.20429 0.32569 0.40939 0.0
C3 C 0.21532 0.24646 0.39348 0.0
C4 C 0.16173 0.28113 0.42422 0.0
C5 C 0.18871 0.30481 0.35077 0.0
O6 O 0.22186 0.26178 0.40797 0.0
O7 O 0.19918 0.25286 0.37989 0.0
O8 O 0.17777 0.31314 0.36801 0.0
O9 O 0.2034 0.28921 0.35575 0.0
C10 C 0.22621 0.32328 0.40915 0.0
O11 O 0.18122 0.28902 0.43066 0.0
O12 O 0.15955 0.27832 0.40248 0.0
In13 In 0.95306 0.94405 0.63577 0.0
O14 O 0.95516 0.90748 0.65207 0.0
O15 O 0.97655 0.9346 0.66574 0.0
C16 C 0.93535 0.93061 0.59402 0.0
C17 C 0.91941 0.96715 0.6587 0.0
C18 C 0.98815 0.97403 0.62724 0.0
O19 O 0.95695 0.93067 0.59825 0.0
O20 O 0.92279 0.93625 0.61113 0.0
O21 O 0.96971 0.97975 0.63787 0.0
O22 O 0.98882 0.95305 0.62034 0.0
C23 C 0.9701 0.91366 0.66708 0.0
O24 O 0.93189 0.97667 0.64321 0.0
O25 O 0.92357 0.94576 0.66228 0.0
In26 In 0.30201 0.70737 0.8767 0.0
O27 O 0.32601 0.70492 0.90807 0.0
O28 O 0.32751 0.73577 0.88747 0.0
C29 C 0.32299 0.68567 0.84039 0.0
C30 C 0.27323 0.68322 0.90491 0.0
C31 C 0.26846 0.73685 0.86213 0.0
O32 O 0.3142 0.70579 0.8389 0.0
O33 O 0.32207 0.67684 0.86052 0.0
O34 O 0.26636 0.71492 0.86146 0.0
O35 O 0.28807 0.74413 0.86914 0.0
C36 C 0.33422 0.72519 0.9056 0.0
O37 O 0.27999 0.70374 0.90934 0.0
O38 O 0.28122 0.67461 0.88621 0.0
In39 In 0.54113 0.03839 0.16155 0.0
O40 O 0.528 0.07288 0.17622 0.0
O41 O 0.52866 0.04339 0.19874 0.0
C42 C 0.55645 0.05872 0.1219 0.0
C43 C 0.57878 0.01332 0.17411 0.0
C44 C 0.50333 0.01176 0.15286 0.0
O45 O 0.53851 0.04602 0.12284 0.0
O46 O 0.56658 0.06175 0.14124 0.0
O47 O 0.52159 0.00375 0.16233 0.0
O48 O 0.50419 0.03319 0.14774 0.0
C49 C 0.52328 0.06455 0.19606 0.0
O50 O 0.56428 0.00618 0.15909 0.0
O51 O 0.57437 0.03321 0.18262 0.0
In52 In 0.70046 0.19637 0.60526 0.0
O53 O 0.73309 0.17333 0.60566 0.0
O54 O 0.70665 0.1657 0.58075 0.0
C55 C 0.72563 0.23508 0.61383 0.0
C56 C 0.67323 0.21279 0.57088 0.0
C57 C 0.68056 0.17941 0.64456 0.0
O58 O 0.73442 0.21644 0.60592 0.0
O59 O 0.70396 0.23413 0.61805 0.0
O60 O 0.6942 0.19671 0.64455 0.0
O61 O 0.6766 0.17088 0.62467 0.0
C62 C 0.72651 0.16068 0.58885 0.0
O63 O 0.66477 0.20324 0.58884 0.0
O64 O 0.69517 0.21403 0.57041 0.0
In65 In 0.04654 0.44133 0.85422 0.0
O66 O 0.06351 0.47661 0.84761 0.0
O67 O 0.07969 0.44632 0.83317 0.0
C68 C 0.00666 0.46471 0.86252 0.0
C69 C 0.03039 0.41137 0.82192 0.0
C70 C 0.06775 0.42927 0.89463 0.0
O71 O 0.02386 0.47373 0.85206 0.0
O72 O 0.00955 0.44375 0.86883 0.0
O73 O 0.0491 0.44087 0.89373 0.0
O74 O 0.07532 0.42265 0.87505 0.0
C75 C 0.07991 0.46828 0.83541 0.0
O76 O 0.0323 0.40558 0.84312 0.0
O77 O 0.03735 0.43167 0.81724 0.0
In78 In 0.80301 0.80652 0.09333 0.0
O79 O 0.81044 0.79524 0.05622 0.0
O80 O 0.83717 0.78992 0.08138 0.0
C81 C 0.82649 0.82837 0.12789 0.0
C82 C 0.77252 0.83702 0.07487 0.0
C83 C 0.77763 0.77089 0.11093 0.0
O84 O 0.82604 0.80644 0.12571 0.0
O85 O 0.81642 0.83933 0.11162 0.0
O86 O 0.78193 0.78928 0.12231 0.0
O87 O 0.78588 0.77057 0.09056 0.0
C88 C 0.83032 0.78695 0.06063 0.0
O89 O 0.7664 0.82121 0.08897 0.0
O90 O 0.79415 0.83776 0.07049 0.0
In91 In 0.45627 0.52682 0.32617 0.0
O92 O 0.46 0.56342 0.31099 0.0
O93 O 0.48141 0.53626 0.29736 0.0
C94 C 0.43838 0.54681 0.36497 0.0
C95 C 0.42259 0.50301 0.30352 0.0
C96 C 0.49056 0.49712 0.33845 0.0
O97 O 0.45809 0.53702 0.36448 0.0
O98 O 0.42773 0.5469 0.34569 0.0
O99 O 0.47172 0.49037 0.32912 0.0
O100 O 0.49199 0.51887 0.34187 0.0
C101 C 0.47566 0.55748 0.29666 0.0
O102 O 0.42698 0.49968 0.32488 0.0
O103 O 0.43506 0.51835 0.29381 0.0
In104 In 0.3763 0.18536 0.29255 0.0
O105 O 0.38383 0.21997 0.31091 0.0
O106 O 0.41268 0.19962 0.29924 0.0
C107 C 0.36157 0.20806 0.25387 0.0
C108 C 0.39799 0.14503 0.28261 0.0
C109 C 0.34393 0.17395 0.32475 0.0
O110 O 0.38239 0.20155 0.25671 0.0
O111 O 0.34803 0.20301 0.2705 0.0
O112 O 0.34189 0.16818 0.30356 0.0
O113 O 0.36245 0.18485 0.32957 0.0
C114 C 0.40576 0.21792 0.30939 0.0
O115 O 0.40165 0.15612 0.30128 0.0
O116 O 0.38237 0.15364 0.26966 0.0
In117 In 0.04162 0.14987 0.54871 0.0
O118 O 0.00476 0.15871 0.56078 0.0
O119 O 0.03314 0.16895 0.58253 0.0
C120 C 0.01525 0.13933 0.51121 0.0
C121 C 0.07464 0.17947 0.53337 0.0
C122 C 0.05998 0.11131 0.56875 0.0
O123 O 0.02436 0.15925 0.51392 0.0
O124 O 0.01905 0.12507 0.5276 0.0
O125 O 0.05755 0.11349 0.547 0.0
O126 O 0.05411 0.12908 0.58039 0.0
C127 C 0.01133 0.16893 0.57918 0.0
O128 O 0.05745 0.18605 0.54534 0.0
O129 O 0.07577 0.15774 0.52999 0.0
In130 In 0.08081 0.78539 0.80478 0.0
O131 O 0.06157 0.82003 0.79955 0.0
O132 O 0.05176 0.7907 0.77891 0.0
C133 C 0.11897 0.80417 0.82547 0.0
C134 C 0.05799 0.76054 0.83713 0.0
C135 C 0.09791 0.75763 0.77086 0.0
O136 O 0.11459 0.80676 0.80407 0.0
O137 O 0.10337 0.79338 0.83662 0.0
O138 O 0.08383 0.7504 0.78616 0.0
O139 O 0.10355 0.77885 0.77277 0.0
C140 C 0.04849 0.8119 0.78372 0.0
O141 O 0.07614 0.75305 0.82704 0.0
O142 O 0.05169 0.78091 0.83131 0.0
In143 In 0.43356 0.85233 0.04444 0.0
O144 O 0.45498 0.84634 0.07743 0.0
O145 O 0.45434 0.81944 0.05161 0.0
C146 C 0.46052 0.86094 0.00664 0.0
C147 C 0.39611 0.82727 0.03088 0.0
C148 C 0.42386 0.89162 0.06846 0.0
O149 O 0.46813 0.85155 0.025 0.0
O150 O 0.43916 0.86627 0.00724 0.0
O151 O 0.43544 0.89142 0.04976 0.0
O152 O 0.41644 0.87187 0.07494 0.0
C153 C 0.46188 0.82628 0.0712 0.0
O154 O 0.41034 0.82015 0.04602 0.0
O155 O 0.39981 0.84779 0.02386 0.0
In156 In 0.88371 0.30772 0.69698 0.0
O157 O 0.91573 0.33143 0.69669 0.0
O158 O 0.89288 0.33358 0.72567 0.0
C159 C 0.84839 0.32766 0.6731 0.0
C160 C 0.90874 0.27621 0.67245 0.0
C161 C 0.86199 0.27708 0.72526 0.0
O162 O 0.8493 0.32762 0.69514 0.0
O163 O 0.8663 0.31937 0.66326 0.0
O164 O 0.88265 0.28384 0.72896 0.0
O165 O 0.85243 0.28574 0.70742 0.0
C166 C 0.91175 0.3401 0.71648 0.0
O167 O 0.90709 0.27568 0.69438 0.0
O168 O 0.89782 0.29274 0.66277 0.0
In169 In 0.93383 0.62643 0.96413 0.0
O170 O 0.90148 0.6487 0.95773 0.0
O171 O 0.90773 0.6367 0.99213 0.0
C172 C 0.92447 0.58524 0.94287 0.0
C173 C 0.95853 0.65473 0.93596 0.0
C174 C 0.96514 0.62229 -0.00078 0.0
O175 O 0.93446 0.58674 0.96239 0.0
O176 O 0.91837 0.60457 0.93429 0.0
O177 O 0.96862 0.63454 0.9813 0.0
O178 O 0.94572 0.6118 -0.00043 0.0
C179 C 0.89542 0.64917 0.97884 0.0
O180 O 0.95867 0.63274 0.9336 0.0
O181 O 0.946 0.66224 0.95248 0.0
In182 In 0.60218 0.70757 0.19636 0.0
O183 O 0.59217 0.74087 0.17726 0.0
O184 O 0.57162 0.71034 0.17125 0.0
C185 C 0.6148 0.73424 0.23302 0.0
C186 C 0.57354 0.67481 0.21341 0.0
C187 C 0.64196 0.69544 0.1739 0.0
O188 O 0.60358 0.74215 0.21577 0.0
O189 O 0.61996 0.71284 0.23169 0.0
O190 O 0.63926 0.69268 0.19553 0.0
O191 O 0.62432 0.70347 0.16353 0.0
C192 C 0.57486 0.73176 0.16698 0.0
O193 O 0.58775 0.67035 0.19715 0.0
O194 O 0.5741 0.69547 0.22094 0.0
In195 In 0.54303 0.33232 0.43992 0.0
O196 O 0.51188 0.33177 0.41519 0.0
O197 O 0.53434 0.30211 0.41564 0.0
C198 C 0.51597 0.34786 0.47498 0.0
C199 C 0.57116 0.30137 0.46104 0.0
C200 C 0.56201 0.36942 0.41781 0.0
O201 O 0.5082 0.33523 0.45863 0.0
O202 O 0.53742 0.35283 0.47355 0.0
O203 O 0.55512 0.37017 0.43868 0.0
O204 O 0.56059 0.3495 0.40848 0.0
C205 C 0.51637 0.3117 0.40718 0.0
O206 O 0.57895 0.3158 0.44629 0.0
O207 O 0.54954 0.30257 0.4647 0.0
In208 In 0.28394 0.38035 0.17987 0.0
O209 O 0.30657 0.38523 0.21225 0.0
O210 O 0.30182 0.41438 0.18954 0.0
C211 C 0.24792 0.37002 0.2084 0.0
C212 C 0.26825 0.40632 0.1441 0.0
C213 C 0.30744 0.34128 0.16729 0.0
O214 O 0.25984 0.38842 0.21049 0.0
O215 O 0.25422 0.35676 0.19199 0.0
O216 O 0.28586 0.34381 0.16379 0.0
O217 O 0.31738 0.35906 0.17564 0.0
C218 C 0.31099 0.40645 0.20798 0.0
O219 O 0.28976 0.40256 0.14713 0.0
O220 O 0.25501 0.39586 0.15815 0.0
In221 In 0.77525 0.08356 0.7811 0.0
O222 O 0.78433 0.05698 0.7534 0.0
O223 O 0.8125 0.07325 0.77164 0.0
C224 C 0.73121 0.08945 0.76537 0.0
C225 C 0.76916 0.05934 0.82073 0.0
C226 C 0.79272 0.12682 0.77631 0.0
O227 O 0.74616 0.07708 0.75493 0.0
O228 O 0.73827 0.09832 0.78428 0.0
O229 O 0.79656 0.11482 0.79446 0.0
O230 O 0.78053 0.11681 0.76093 0.0
C231 C 0.80613 0.05883 0.75615 0.0
O232 O 0.77317 0.04984 0.80134 0.0
O233 O 0.76908 0.08139 0.8204 0.0
In234 In 0.15438 0.55407 0.03786 0.0
O235 O 0.15636 0.57459 0.00399 0.0
O236 O 0.17671 0.58651 0.03281 0.0
C237 C 0.14679 0.51505 0.0127 0.0
C238 C 0.18822 0.53811 0.06615 0.0
C239 C 0.11275 0.56931 0.05435 0.0
O240 O 0.15378 0.53392 0.00364 0.0
O241 O 0.14356 0.51588 0.03448 0.0
O242 O 0.11565 0.54975 0.04477 0.0
O243 O 0.13112 0.58137 0.05621 0.0
C244 C 0.17109 0.58915 0.01164 0.0
O245 O 0.19095 0.541 0.04456 0.0
O246 O 0.16849 0.54428 0.07387 0.0
In247 In 0.71981 0.89287 0.29132 0.0
O248 O 0.71427 0.92232 0.26514 0.0
O249 O 0.68932 0.89491 0.26559 0.0
C250 C 0.75778 0.87943 0.26689 0.0
C251 C 0.72931 0.9211 0.32756 0.0
C252 C 0.69643 0.85652 0.30982 0.0
O253 O 0.75698 0.89856 0.27779 0.0
O254 O 0.73951 0.86719 0.26834 0.0
O255 O 0.71793 0.85563 0.30495 0.0
O256 O 0.6871 0.87626 0.30663 0.0
C257 C 0.69562 0.9141 0.25682 0.0
O258 O 0.71262 0.92483 0.31371 0.0
O259 O 0.74035 0.90238 0.32389 0.0
In260 In 0.35207 0.46246 0.52792 0.0
O261 O 0.32068 0.45847 0.55202 0.0
O262 O 0.34426 0.48617 0.55878 0.0
C263 C 0.39228 0.44055 0.53879 0.0
C264 C 0.32849 0.4337 0.49921 0.0
C265 C 0.36094 0.49998 0.5009 0.0
O266 O 0.39099 0.45697 0.5242 0.0
O267 O 0.37315 0.43515 0.54835 0.0
O268 O 0.34813 0.48324 0.49452 0.0
O269 O 0.36942 0.49793 0.52114 0.0
C270 C 0.32545 0.47615 0.56415 0.0
O271 O 0.32229 0.45451 0.50312 0.0
O272 O 0.34676 0.42725 0.50983 0.0
In273 In 0.20983 0.59158 0.70416 0.0
O274 O 0.22093 0.58813 0.66613 0.0
O275 O 0.21023 0.55749 0.6839 0.0
C276 C 0.18769 0.63276 0.69927 0.0
C277 C 0.18309 0.56664 0.73351 0.0
C278 C 0.25123 0.59965 0.72518 0.0
O279 O 0.2063 0.63042 0.71082 0.0
O280 O 0.18026 0.61426 0.68978 0.0
O281 O 0.23335 0.59261 0.73591 0.0
O282 O 0.24832 0.60288 0.70357 0.0
C283 C 0.21808 0.56631 0.66541 0.0
O284 O 0.20456 0.56259 0.73054 0.0
O285 O 0.17494 0.58324 0.72146 0.0
In286 In 0.63067 0.96174 0.95738 0.0
O287 O 0.66413 0.95558 0.97738 0.0
O288 O 0.63831 0.92873 0.97859 0.0
C289 C 0.62223 -0.0023 0.98644 0.0
C290 C 0.65726 0.97574 0.92143 0.0
C291 C 0.59049 0.94079 0.94395 0.0
O292 O 0.62861 0.9778 0.99342 0.0
O293 O 0.61945 -0.00052 0.96465 0.0
O294 O 0.59116 0.9589 0.95639 0.0
O295 O 0.61022 0.93314 0.93788 0.0
C296 C 0.65837 0.93565 0.98485 0.0
O297 O 0.64041 0.98765 0.92903 0.0
O298 O 0.6597 0.95607 0.93091 0.0
In299 In 0.85135 0.05135 0.44479 0.0
O300 O 0.84379 0.03593 0.4091 0.0
O301 O 0.81589 0.05282 0.42655 0.0
C302 C 0.88523 0.07944 0.42829 0.0
C303 C 0.82874 0.06982 0.48171 0.0
C304 C 0.87174 0.01424 0.46552 0.0
O305 O 0.88647 0.05743 0.42756 0.0
O306 O 0.86615 0.08731 0.43609 0.0
O307 O 0.85319 0.01242 0.45379 0.0
O308 O 0.87982 0.0347 0.46691 0.0
C309 C 0.82241 0.04112 0.40913 0.0
O310 O 0.82602 0.04887 0.4754 0.0
O311 O 0.84288 0.08144 0.46943 0.0
H312 H 0.07702 0.22664 0.53965 0.0
H313 H 0.10507 0.1699 0.49833 0.0
H314 H 0.09604 0.2549 0.51374 0.0
H315 H 0.12375 0.19812 0.47247 0.0
H316 H 0.12519 0.25212 0.41537 0.0
H317 H 0.10391 0.22898 0.44416 0.0
H318 H 0.13944 0.26538 0.49993 0.0
H319 H 0.16097 0.28849 0.47116 0.0
C320 C 0.08757 0.22024 0.5253 0.0
C321 C 0.08952 0.19615 0.52085 0.0
C322 C 0.09831 0.23637 0.51051 0.0
C323 C 0.11079 0.22853 0.49097 0.0
C324 C 0.11374 0.20447 0.48723 0.0
C325 C 0.10331 0.18838 0.50216 0.0
C326 C 0.12798 0.25564 0.43376 0.0
C327 C 0.14489 0.27182 0.4411 0.0
C328 C 0.11599 0.24229 0.45017 0.0
C329 C 0.12052 0.24521 0.47409 0.0
C330 C 0.13584 0.26283 0.48152 0.0
C331 C 0.14807 0.276 0.46509 0.0
H332 H 0.007 0.92179 0.69538 0.0
H333 H 0.95274 0.87127 0.68071 0.0
H334 H 0.02179 0.89719 0.72648 0.0
H335 H 0.9671 0.84677 0.71268 0.0
H336 H 0.02282 0.7982 0.74638 0.0
H337 H 0.00054 0.82285 0.72011 0.0
H338 H 0.01391 0.88247 0.7647 0.0
H339 H 0.03718 0.85778 0.79061 0.0
C340 C -0.00188 0.90545 0.69899 0.0
C341 C 0.97887 0.89827 0.68558 0.0
C342 C 0.0064 0.89149 0.71703 0.0
C343 C -0.00453 0.87014 0.72222 0.0
C344 C 0.97598 0.86307 0.70896 0.0
C345 C 0.9678 0.877 0.69067 0.0
C346 C 0.02074 0.81651 0.75076 0.0
C347 C 0.03204 0.82623 0.77026 0.0
C348 C 0.00778 0.83061 0.73579 0.0
C349 C 0.00571 0.85466 0.74017 0.0
C350 C 0.01566 0.86405 0.76062 0.0
C351 C 0.02885 0.84996 0.7755 0.0
H352 H 0.33816 0.71088 0.9507 0.0
H353 H 0.3557 0.76755 0.904 0.0
H354 H 0.34915 0.73494 0.98405 0.0
H355 H 0.36759 0.79131 0.93724 0.0
H356 H 0.36362 0.83816 -0.00209 0.0
H357 H 0.34811 0.81151 0.96852 0.0
H358 H 0.38094 0.75336 0.00392 0.0
H359 H 0.39554 0.77985 0.03376 0.0
C360 C 0.34502 0.72826 0.94753 0.0
C361 C 0.346 0.73746 0.92481 0.0
C362 C 0.35118 0.74207 0.96665 0.0
C363 C 0.35865 0.76522 0.96331 0.0
C364 C 0.36111 0.7738 0.94043 0.0
C365 C 0.35471 0.76009 0.92135 0.0
C366 C 0.36682 0.81958 -0.0002 0.0
C367 C 0.38104 0.81108 0.01785 0.0
C368 C 0.35828 0.80437 0.9828 0.0
C369 C 0.36403 0.78048 0.98348 0.0
C370 C 0.37632 0.77169 0.00282 0.0
C371 C 0.38463 0.78688 0.01998 0.0
H372 H 0.50191 0.10649 0.19017 0.0
H373 H 0.51088 0.05019 0.23976 0.0
H374 H 0.47062 0.12257 0.21415 0.0
H375 H 0.47954 0.06656 0.26387 0.0
H376 H 0.43614 0.12723 0.30509 0.0
H377 H 0.46867 0.10651 0.2866 0.0
H378 H 0.42948 0.10265 0.22225 0.0
H379 H 0.39698 0.12312 0.24057 0.0
C380 C 0.49758 0.09787 0.20645 0.0
C381 C 0.50859 0.07698 0.21301 0.0
C382 C 0.47956 0.10693 0.22001 0.0
C383 C 0.47246 0.09539 0.24044 0.0
C384 C 0.48466 0.07556 0.24803 0.0
C385 C 0.50258 0.06631 0.2343 0.0
C386 C 0.43421 0.12128 0.28722 0.0
C387 C 0.41424 0.12708 0.27411 0.0
C388 C 0.45282 0.10955 0.27668 0.0
C389 C 0.45163 0.10366 0.25295 0.0
C390 C 0.43086 0.10754 0.24049 0.0
C391 C 0.41223 0.11905 0.25103 0.0
H392 H 0.62838 0.20137 0.55991 0.0
H393 H 0.68573 0.2461 0.53977 0.0
H394 H 0.60398 0.21903 0.52975 0.0
H395 H 0.66112 0.26485 0.51073 0.0
H396 H 0.61612 0.2883 0.45151 0.0
H397 H 0.64104 0.26293 0.47519 0.0
H398 H 0.58453 0.25428 0.5247 0.0
H399 H 0.55958 0.27826 0.50045 0.0
C400 C 0.63567 0.21506 0.54904 0.0
C401 C 0.65876 0.22258 0.55218 0.0
C402 C 0.62173 0.22525 0.53185 0.0
C403 C 0.63048 0.24356 0.51794 0.0
C404 C 0.65387 0.25057 0.5208 0.0
C405 C 0.66793 0.24 0.5376 0.0
C406 C 0.60908 0.28065 0.46733 0.0
C407 C 0.58605 0.28524 0.47425 0.0
C408 C 0.62332 0.26625 0.48095 0.0
C409 C 0.61484 0.25661 0.50194 0.0
C410 C 0.59157 0.26092 0.50845 0.0
C411 C 0.57728 0.27489 0.49465 0.0
H412 H 0.90803 0.35726 0.76056 0.0
H413 H 0.95591 0.35129 0.70249 0.0
H414 H 0.93951 0.37233 0.78495 0.0
H415 H 0.98753 0.36619 0.72707 0.0
H416 H 0.02753 0.41936 0.77531 0.0
H417 H -0.00052 0.40228 0.7482 0.0
H418 H 0.97578 0.35529 0.8023 0.0
H419 H 0.00369 0.37263 0.82961 0.0
C420 C 0.92521 0.35948 0.75293 0.0
C421 C 0.92958 0.35307 0.72968 0.0
C422 C 0.94328 0.36779 0.76697 0.0
C423 C 0.96602 0.36989 0.758 0.0
C424 C 0.97016 0.36461 0.73441 0.0
C425 C 0.95206 0.35622 0.72035 0.0
C426 C 0.01667 0.40503 0.78127 0.0
C427 C 0.01753 0.39746 0.8046 0.0
C428 C 0.00065 0.39527 0.76574 0.0
C429 C 0.98519 0.37783 0.77333 0.0
C430 C 0.98721 0.36909 0.7962 0.0
C431 C 0.00333 0.3788 0.81172 0.0
H432 H 0.81574 0.774 0.01723 0.0
H433 H 0.87013 0.76209 0.06832 0.0
H434 H 0.82852 0.73959 -0.00446 0.0
H435 H 0.88313 0.72797 0.0464 0.0
H436 H 0.88014 0.65373 0.02348 0.0
H437 H 0.86436 0.68914 0.04105 0.0
H438 H 0.8611 0.72168 0.97304 0.0
H439 H 0.87652 0.68605 0.95534 0.0
C440 C 0.83083 0.76441 0.02346 0.0
C441 C 0.84178 0.77049 0.04461 0.0
C442 C 0.83806 0.74468 0.01109 0.0
C443 C 0.85634 0.7308 0.0197 0.0
C444 C 0.8685 0.73802 0.03979 0.0
C445 C 0.86129 0.75771 0.05215 0.0
C446 C 0.87543 0.6682 0.01221 0.0
C447 C 0.87981 0.66729 0.98813 0.0
C448 C 0.86673 0.68856 0.02229 0.0
C449 C 0.86228 0.70835 0.00845 0.0
C450 C 0.8646 0.70673 0.9841 0.0
C451 C 0.87329 0.68629 0.97399 0.0
H452 H 0.56378 0.6312 0.19655 0.0
H453 H 0.54661 0.67965 0.25189 0.0
H454 H 0.53682 0.60258 0.21329 0.0
H455 H 0.52052 0.65101 0.26901 0.0
H456 H 0.46312 0.60254 0.28779 0.0
H457 H 0.4843 0.63088 0.264 0.0
H458 H 0.53581 0.57811 0.24728 0.0
H459 H 0.51415 0.5497 0.27021 0.0
C460 C 0.55428 0.63566 0.21229 0.0
C461 C 0.5573 0.6575 0.22303 0.0
C462 C 0.5389 0.61933 0.22188 0.0
C463 C 0.52651 0.62458 0.24243 0.0
C464 C 0.52941 0.64659 0.25291 0.0
C465 C 0.54456 0.66292 0.24324 0.0
C466 C 0.47881 0.59701 0.27876 0.0
C467 C 0.48719 0.5741 0.28098 0.0
C468 C 0.49097 0.6132 0.26523 0.0
C469 C 0.51184 0.60677 0.25397 0.0
C470 C 0.51965 0.58355 0.25549 0.0
C471 C 0.50736 0.56732 0.26879 0.0
H472 H 0.29299 0.4409 0.1223 0.0
H473 H 0.22309 0.41413 0.13257 0.0
H474 H 0.27668 0.47648 0.10488 0.0
H475 H 0.20696 0.44934 0.11513 0.0
H476 H 0.18292 0.52231 0.11069 0.0
H477 H 0.20526 0.49093 0.12895 0.0
H478 H 0.25278 0.49031 0.07036 0.0
H479 H 0.23069 0.52194 0.05223 0.0
C480 C 0.27422 0.44238 0.12029 0.0
C481 C 0.25925 0.42491 0.12889 0.0
C482 C 0.26492 0.46276 0.11054 0.0
C483 C 0.24059 0.46586 0.10936 0.0
C484 C 0.22578 0.44768 0.11655 0.0
C485 C 0.23501 0.42741 0.12622 0.0
C486 C 0.19853 0.51596 0.10206 0.0
C487 C 0.20486 0.52421 0.0799 0.0
C488 C 0.21116 0.49787 0.11237 0.0
C489 C 0.2303 0.48784 0.10069 0.0
C490 C 0.23799 0.49766 0.07962 0.0
C491 C 0.22534 0.51574 0.06928 0.0
H492 H 0.69946 0.95699 0.90991 0.0
H493 H 0.65552 0.01749 0.89903 0.0
H494 H 0.7315 0.97664 0.88971 0.0
H495 H 0.68727 0.03687 0.87847 0.0
H496 H 0.75064 0.07591 0.86133 0.0
H497 H 0.72565 0.05392 0.88794 0.0
H498 H 0.74154 0.99027 0.85045 0.0
H499 H 0.76692 0.01207 0.8243 0.0
C500 C 0.69654 0.97431 0.90282 0.0
C501 C 0.67506 0.98578 0.90598 0.0
C502 C 0.7149 0.98558 0.89144 0.0
C503 C 0.71201 0.00845 0.88303 0.0
C504 C 0.69021 0.0195 0.88542 0.0
C505 C 0.67192 0.00828 0.89683 0.0
C506 C 0.74941 0.05711 0.8593 0.0
C507 C 0.76025 0.04572 0.84051 0.0
C508 C 0.73493 0.04458 0.87434 0.0
C509 C 0.73115 0.02056 0.87075 0.0
C510 C 0.74403 0.0088 0.85353 0.0
C511 C 0.75853 0.0213 0.83854 0.0
H512 H 0.76736 0.91848 0.35576 0.0
H513 H 0.71188 0.96506 0.3342 0.0
H514 H 0.78765 0.95118 0.37399 0.0
H515 H 0.73238 -0.00212 0.35256 0.0
H516 H 0.77473 0.04097 0.41186 0.0
H517 H 0.74872 0.01261 0.39309 0.0
H518 H 0.80675 0.98629 0.35272 0.0
H519 H 0.8327 0.01443 0.37135 0.0
C520 C 0.75925 0.93559 0.35538 0.0
C521 C 0.73824 0.93932 0.34331 0.0
C522 C 0.77096 0.95431 0.36558 0.0
C523 C 0.7618 0.97703 0.36401 0.0
C524 C 0.73983 0.98051 0.35373 0.0
C525 C 0.72812 0.96174 0.34336 0.0
C526 C 0.78174 0.02962 0.39843 0.0
C527 C 0.80578 0.02957 0.39331 0.0
C528 C 0.76689 0.01337 0.38782 0.0
C529 C 0.776 -0.00306 0.37208 0.0
C530 C 0.79952 -0.00155 0.36532 0.0
C531 C 0.8143 0.01469 0.3758 0.0
H532 H 0.24042 0.58115 0.62623 0.0
H533 H 0.21776 0.51882 0.66241 0.0
H534 H 0.26482 0.55732 0.60072 0.0
H535 H 0.24245 0.49506 0.63708 0.0
H536 H 0.28149 0.46076 0.57427 0.0
H537 H 0.25144 0.48193 0.59609 0.0
H538 H 0.30149 0.53624 0.61208 0.0
H539 H 0.33134 0.51534 0.59018 0.0
C540 C 0.24021 0.56232 0.62835 0.0
C541 C 0.22758 0.55182 0.64651 0.0
C542 C 0.25431 0.54874 0.61392 0.0
C543 C 0.25593 0.52449 0.61743 0.0
C544 C 0.24158 0.51375 0.63413 0.0
C545 C 0.22747 0.52735 0.6486 0.0
C546 C 0.28611 0.47705 0.58277 0.0
C547 C 0.30865 0.48654 0.58047 0.0
C548 C 0.26892 0.48916 0.59512 0.0
C549 C 0.27407 0.51092 0.60522 0.0
C550 C 0.29692 0.51979 0.60386 0.0
C551 C 0.31407 0.50769 0.59161 0.0
H552 H 0.29261 0.44572 0.47053 0.0
H553 H 0.3342 0.38675 0.49277 0.0
H554 H 0.26919 0.42002 0.44597 0.0
H555 H 0.31026 0.36081 0.46877 0.0
H556 H 0.27392 0.32255 0.40972 0.0
H557 H 0.30001 0.35017 0.42925 0.0
H558 H 0.2402 0.39047 0.45179 0.0
H559 H 0.21433 0.36335 0.43173 0.0
C560 C 0.29672 0.42722 0.47016 0.0
C561 C 0.31511 0.41816 0.48364 0.0
C562 C 0.28324 0.41249 0.45618 0.0
C563 C 0.28774 0.38834 0.45554 0.0
C564 C 0.30651 0.37937 0.46865 0.0
C565 C 0.32013 0.39417 0.48252 0.0
C566 C 0.26643 0.3375 0.41863 0.0
C567 C 0.24212 0.34083 0.41926 0.0
C568 C 0.28134 0.3532 0.42994 0.0
C569 C 0.27219 0.37246 0.44216 0.0
C570 C 0.24787 0.37602 0.44227 0.0
C571 C 0.233 0.36041 0.43087 0.0
H572 H 0.88655 0.94975 0.68841 0.0
H573 H 0.91362 0.01432 0.66006 0.0
H574 H 0.859 0.97195 0.71238 0.0
H575 H 0.88619 0.03645 0.68414 0.0
H576 H 0.8532 0.06533 0.75239 0.0
H577 H 0.88056 0.04284 0.72843 0.0
H578 H 0.82385 -0.00103 0.7047 0.0
H579 H 0.79648 0.02147 0.72846 0.0
C580 C 0.88653 0.96866 0.68726 0.0
C581 C 0.90214 0.98035 0.67239 0.0
C582 C 0.87078 0.98131 0.7009 0.0
C583 C 0.87063 0.00584 0.70011 0.0
C584 C 0.88618 0.01753 0.68519 0.0
C585 C 0.90171 0.00488 0.67133 0.0
C586 C 0.84663 0.05086 0.74208 0.0
C587 C 0.82278 0.04512 0.74221 0.0
C588 C 0.86222 0.0381 0.72833 0.0
C589 C 0.85422 0.01925 0.71477 0.0
C590 C 0.83043 0.01334 0.71515 0.0
C591 C 0.8148 0.02627 0.72864 0.0
H592 H 0.25412 0.69883 0.94552 0.0
H593 H 0.25528 0.63938 0.89892 0.0
H594 H 0.22695 0.67829 0.97108 0.0
H595 H 0.22838 0.61865 0.92473 0.0
H596 H 0.16449 0.59551 0.96491 0.0
H597 H 0.18771 0.61983 0.93868 0.0
H598 H 0.22815 0.64467 -0.00253 0.0
H599 H 0.20471 0.62068 0.02369 0.0
C600 C 0.24859 0.68135 0.94077 0.0
C601 C 0.25686 0.67064 0.92029 0.0
C602 C 0.23309 0.66958 0.95544 0.0
C603 C 0.22552 0.64688 0.9499 0.0
C604 C 0.23364 0.63626 0.92929 0.0
C605 C 0.24919 0.64803 0.91462 0.0
C606 C 0.1781 0.60646 0.97225 0.0
C607 C 0.18289 0.60614 -0.00369 0.0
C608 C 0.1915 0.62022 0.95722 0.0
C609 C 0.2099 0.63395 0.96599 0.0
C610 C 0.21398 0.6344 0.9902 0.0
C611 C 0.20061 0.62062 0.00522 0.0
H612 H 0.58974 0.96877 0.16096 0.0
H613 H 0.61239 0.02543 0.20554 0.0
H614 H 0.62057 0.9439 0.17695 0.0
H615 H 0.64289 0.00055 0.22171 0.0
H616 H 0.70532 0.95617 0.23676 0.0
H617 H 0.67932 0.97994 0.21273 0.0
H618 H 0.62716 0.92533 0.21518 0.0
H619 H 0.65332 0.90141 0.23886 0.0
C620 C 0.60145 0.97596 0.17401 0.0
C621 C 0.59861 -0.00103 0.18214 0.0
C622 C 0.61901 0.9617 0.18321 0.0
C623 C 0.63409 0.97025 0.20063 0.0
C624 C 0.63174 0.99354 0.2081 0.0
C625 C 0.61416 0.00775 0.19896 0.0
C626 C 0.68845 0.9491 0.23184 0.0
C627 C 0.68122 0.92705 0.23984 0.0
C628 C 0.67354 0.96275 0.21818 0.0
C629 C 0.65113 0.95459 0.21227 0.0
C630 C 0.6444 0.93202 0.21928 0.0
C631 C 0.65932 0.91837 0.23295 0.0
H632 H 0.71435 0.1285 0.55601 0.0
H633 H 0.77307 0.15361 0.59639 0.0
H634 H 0.7405 0.10357 0.53343 0.0
H635 H 0.79929 0.12861 0.5737 0.0
H636 H 0.83523 0.11267 0.5014 0.0
H637 H 0.81125 0.13139 0.53126 0.0
H638 H 0.76836 0.06939 0.53572 0.0
H639 H 0.79239 0.0506 0.5058 0.0
C640 C 0.73279 0.12835 0.56033 0.0
C641 C 0.74174 0.1431 0.5778 0.0
C642 C 0.74774 0.11399 0.54749 0.0
C643 C 0.77192 0.1143 0.55174 0.0
C644 C 0.78072 0.12823 0.56996 0.0
C645 C 0.76572 0.14242 0.58299 0.0
C646 C 0.82086 0.10295 0.50896 0.0
C647 C 0.81554 0.08028 0.50118 0.0
C648 C 0.80725 0.11358 0.52617 0.0
C649 C 0.78796 0.10181 0.53576 0.0
C650 C 0.78307 0.07887 0.52849 0.0
C651 C 0.79683 0.06813 0.51143 0.0
H652 H 0.1368 0.57229 0.74342 0.0
H653 H 0.19714 0.53024 0.76067 0.0
H654 H 0.11299 0.54899 0.77004 0.0
H655 H 0.17345 0.50722 0.78754 0.0
H656 H 0.11587 0.45422 0.8077 0.0
H657 H 0.14158 0.47875 0.78428 0.0
H658 H 0.10808 0.54053 0.812 0.0
H659 H 0.08204 0.51592 0.83519 0.0
C660 C 0.14497 0.55817 0.753 0.0
C661 C 0.16875 0.55298 0.74991 0.0
C662 C 0.13141 0.54495 0.76836 0.0
C663 C 0.14139 0.5263 0.78087 0.0
C664 C 0.16525 0.52132 0.77794 0.0
C665 C 0.1788 0.53455 0.76262 0.0
C666 C 0.11416 0.47303 0.80897 0.0
C667 C 0.09692 0.48318 0.82316 0.0
C668 C 0.12894 0.48709 0.79565 0.0
C669 C 0.12675 0.51155 0.79624 0.0
C670 C 0.10993 0.52171 0.81097 0.0
C671 C 0.09517 0.50764 0.82434 0.0
H672 H 0.6527 0.89045 -0.00062 0.0
H673 H 0.6996 0.94953 0.00379 0.0
H674 H 0.6801 0.8671 0.02239 0.0
H675 H 0.72658 0.92652 0.02724 0.0
H676 H 0.78129 0.87023 0.04201 0.0
H677 H 0.75299 0.89426 0.02121 0.0
H678 H 0.69701 0.86318 0.06128 0.0
H679 H 0.72537 0.83869 0.08171 0.0
C680 C 0.66874 0.89848 0.00546 0.0
C681 C 0.67412 0.92171 -0.00031 0.0
C682 C 0.68436 0.88518 0.01874 0.0
C683 C 0.70557 0.89494 0.02653 0.0
C684 C 0.7106 0.91836 0.02115 0.0
C685 C 0.69508 0.93157 0.00782 0.0
C686 C 0.76297 0.86865 0.04647 0.0
C687 C 0.75552 0.85262 0.06345 0.0
C688 C 0.74674 0.88248 0.03464 0.0
C689 C 0.72274 0.88062 0.03961 0.0
C690 C 0.71534 0.86479 0.05686 0.0
C691 C 0.73159 0.85091 0.06866 0.0
H692 H 0.33693 0.39234 0.24544 0.0
H693 H 0.31833 0.45332 0.20499 0.0
H694 H 0.36285 0.41626 0.26951 0.0
H695 H 0.34359 0.47735 0.22943 0.0
H696 H 0.41274 0.5057 0.2572 0.0
H697 H 0.38476 0.48256 0.23513 0.0
H698 H 0.36388 0.44717 0.29848 0.0
H699 H 0.39252 0.47 0.32053 0.0
C700 C 0.33822 0.4109 0.24186 0.0
C701 C 0.32581 0.42097 0.22325 0.0
C702 C 0.35293 0.42462 0.25573 0.0
C703 C 0.35537 0.44869 0.25131 0.0
C704 C 0.34244 0.45879 0.23303 0.0
C705 C 0.32788 0.44506 0.21909 0.0
C706 C 0.40211 0.49304 0.26645 0.0
C707 C 0.40482 0.4896 0.29057 0.0
C708 C 0.38596 0.47988 0.25382 0.0
C709 C 0.37203 0.46306 0.26505 0.0
C710 C 0.37455 0.4598 0.28928 0.0
C711 C 0.39083 0.47294 0.30192 0.0
H712 H 0.4781 0.32955 0.38498 0.0
H713 H 0.52056 0.26734 0.39061 0.0
H714 H 0.45193 0.30924 0.35803 0.0
H715 H 0.49414 0.24686 0.36433 0.0
H716 H 0.45297 0.21945 0.30414 0.0
H717 H 0.48057 0.24449 0.3248 0.0
H718 H 0.42312 0.27853 0.36013 0.0
H719 H 0.39551 0.25397 0.33884 0.0
C720 C 0.48186 0.31156 0.38039 0.0
C721 C 0.50128 0.29997 0.38993 0.0
C722 C 0.46683 0.29991 0.36506 0.0
C723 C 0.47091 0.27642 0.35906 0.0
C724 C 0.49067 0.26505 0.36827 0.0
C725 C 0.50573 0.27673 0.38348 0.0
C726 C 0.44626 0.2325 0.3161 0.0
C727 C 0.42214 0.23467 0.32007 0.0
C728 C 0.46206 0.24675 0.32803 0.0
C729 C 0.45407 0.26331 0.34432 0.0
C730 C 0.42986 0.26611 0.34754 0.0
C731 C 0.41403 0.25196 0.33545 0.0
H732 H 0.02112 0.19033 0.62058 0.0
H733 H 0.96485 0.1766 0.57205 0.0
H734 H -0.00489 0.21493 0.64375 0.0
H735 H 0.9388 0.20112 0.59534 0.0
H736 H 0.91289 0.27214 0.62515 0.0
H737 H 0.93665 0.24403 0.60352 0.0
H738 H 0.95933 0.21304 0.66849 0.0
H739 H 0.93572 0.24122 0.69013 0.0
C740 C 0.00311 0.19233 0.61505 0.0
C741 C -0.00499 0.18165 0.59449 0.0
C742 C 0.98821 0.20633 0.62835 0.0
C743 C 0.96499 0.21003 0.62125 0.0
C744 C 0.95671 0.19879 0.60105 0.0
C745 C 0.97156 0.18465 0.58783 0.0
C746 C 0.92289 0.25927 0.63478 0.0
C747 C 0.92255 0.25891 0.65929 0.0
C748 C 0.93635 0.2431 0.62242 0.0
C749 C 0.9498 0.22636 0.63435 0.0
C750 C 0.94928 0.22588 0.65887 0.0
C751 C 0.93572 0.24195 0.67122 0.0
H752 H 0.98538 0.6433 0.89827 0.0
H753 H 0.96432 0.7016 0.94142 0.0
H754 H 0.00983 0.66942 0.87508 0.0
H755 H 0.98923 0.72756 0.91874 0.0
H756 H 0.01575 0.77061 0.85663 0.0
H757 H 0.9916 0.74501 0.88058 0.0
H758 H 0.04541 0.692 0.87824 0.0
H759 H 0.06925 0.71738 0.85372 0.0
C760 C 0.98604 0.66168 0.90281 0.0
C761 C 0.97294 0.67045 0.92158 0.0
C762 C 0.00017 0.67661 0.88967 0.0
C763 C 0.00153 0.70056 0.89513 0.0
C764 C 0.98834 0.70927 0.91389 0.0
C765 C 0.97414 0.69438 0.92694 0.0
C766 C 0.02247 0.75355 0.8614 0.0
C767 C 0.04432 0.74593 0.85329 0.0
C768 C 0.00868 0.73891 0.87518 0.0
C769 C 0.01654 0.71641 0.8812 0.0
C770 C 0.03868 0.70906 0.87354 0.0
C771 C 0.05242 0.72366 0.85967 0.0
H772 H 0.53638 0.716 0.14379 0.0
H773 H 0.57746 0.77816 0.15646 0.0
H774 H 0.50888 0.73886 0.1206 0.0
H775 H 0.55015 0.80097 0.13293 0.0
H776 H 0.48172 0.83778 0.11299 0.0
H777 H 0.50945 0.81467 0.13575 0.0
H778 H 0.50693 0.76017 0.08349 0.0
H779 H 0.47895 0.78308 0.06095 0.0
C780 C 0.53962 0.73451 0.14144 0.0
C781 C 0.55901 0.74533 0.15193 0.0
C782 C 0.52394 0.74757 0.1281 0.0
C783 C 0.52734 0.77171 0.12503 0.0
C784 C 0.54692 0.78246 0.13528 0.0
C785 C 0.56262 0.76938 0.1486 0.0
C786 C 0.48705 0.82084 0.10644 0.0
C787 C 0.47819 0.81219 0.08525 0.0
C788 C 0.50303 0.80769 0.11936 0.0
C789 C 0.51039 0.78566 0.11134 0.0
C790 C 0.50139 0.77698 0.09021 0.0
C791 C 0.48545 0.79014 0.07728 0.0
H792 H 0.17066 0.3468 0.33649 0.0
H793 H 0.20247 0.28317 0.31122 0.0
H794 H 0.17567 0.36455 0.29785 0.0
H795 H 0.20781 0.30073 0.27315 0.0
H796 H 0.2184 0.33266 0.20615 0.0
H797 H 0.19362 0.31782 0.23749 0.0
H798 H 0.21217 0.37745 0.2801 0.0
H799 H 0.23622 0.39257 0.24857 0.0
C800 C 0.1781 0.33643 0.32251 0.0
C801 C 0.1866 0.31382 0.32683 0.0
C802 C 0.18106 0.34658 0.30047 0.0
C803 C 0.19238 0.33415 0.28252 0.0
C804 C 0.19882 0.31077 0.28644 0.0
C805 C 0.196 0.30075 0.30837 0.0
C806 C 0.21667 0.34286 0.22201 0.0
C807 C 0.22963 0.36345 0.22522 0.0
C808 C 0.20249 0.33438 0.23993 0.0
C809 C 0.20127 0.34623 0.26142 0.0
C810 C 0.21257 0.36794 0.26374 0.0
C811 C 0.22658 0.37651 0.24575 0.0
H812 H 0.91517 0.01251 0.48437 0.0
H813 H 0.85258 0.97139 0.47458 0.0
H814 H 0.9311 0.98244 0.50971 0.0
H815 H 0.86862 0.94101 0.50016 0.0
H816 H 0.88961 0.93089 0.58095 0.0
H817 H 0.87482 0.94354 0.54321 0.0
H818 H 0.94485 0.94162 0.51512 0.0
H819 H 0.95975 0.92919 0.55309 0.0
C820 C 0.90503 -0.00322 0.48728 0.0
C821 C 0.88253 0.99441 0.47786 0.0
C822 C 0.91427 0.97938 0.50158 0.0
C823 C 0.9011 0.95933 0.50692 0.0
C824 C 0.87911 0.95631 0.49635 0.0
C825 C 0.86995 0.97367 0.48178 0.0
C826 C 0.90174 0.93228 0.56649 0.0
C827 C 0.92589 0.92973 0.57008 0.0
C828 C 0.89324 0.93941 0.54479 0.0
C829 C 0.90879 0.94413 0.5264 0.0
C830 C 0.93256 0.93853 0.52917 0.0
C831 C 0.94106 0.93132 0.55088 0.0
H832 H 0.26298 0.58765 0.76933 0.0
H833 H 0.28809 0.62578 0.7093 0.0
H834 H 0.29319 0.60502 0.79323 0.0
H835 H 0.31902 0.6431 0.73331 0.0
H836 H 0.3198 0.69917 0.79495 0.0
H837 H 0.31336 0.67311 0.76225 0.0
H838 H 0.33221 0.61405 0.80541 0.0
H839 H 0.33784 0.64027 0.83855 0.0
C840 C 0.27547 0.59925 0.7611 0.0
C841 C 0.27286 0.60587 0.73767 0.0
C842 C 0.29308 0.60903 0.77475 0.0
C843 C 0.30843 0.62575 0.76528 0.0
C844 C 0.30727 0.63053 0.74119 0.0
C845 C 0.2896 0.62061 0.72745 0.0
C846 C 0.32345 0.68074 0.79725 0.0
C847 C 0.3284 0.67162 0.81948 0.0
C848 C 0.31993 0.66571 0.77838 0.0
C849 C 0.32145 0.64136 0.78145 0.0
C850 C 0.3302 0.63268 0.80273 0.0
C851 C 0.33352 0.64772 0.82168 0.0
H852 H 0.53572 0.05811 0.07925 0.0
H853 H 0.60127 0.07293 0.11368 0.0
H854 H 0.55596 0.05403 0.04224 0.0
H855 H 0.62163 0.0691 0.0764 0.0
H856 H 0.63831 0.00166 0.03062 0.0
H857 H 0.62546 0.02903 0.06028 0.0
H858 H 0.58242 0.06447 0.0093 0.0
H859 H 0.59553 0.03677 0.97931 0.0
C860 C 0.55435 0.0615 0.0787 0.0
C861 C 0.56707 0.06506 0.09937 0.0
C862 C 0.56596 0.05935 0.05741 0.0
C863 C 0.59047 0.06062 0.05657 0.0
C864 C 0.60275 0.06762 0.07669 0.0
C865 C 0.5911 0.06986 0.09801 0.0
C866 C 0.62653 0.01563 0.02561 0.0
C867 C 0.61749 0.01686 0.00288 0.0
C868 C 0.61941 0.03156 0.04253 0.0
C869 C 0.60286 0.0489 0.03713 0.0
C870 C 0.59516 0.05124 0.01391 0.0
C871 C 0.60258 0.03539 -0.00318 0.0
H872 H 0.65542 0.13901 0.64917 0.0
H873 H 0.68956 0.19327 0.68908 0.0
H874 H 0.65384 0.11441 0.68395 0.0
H875 H 0.68869 0.16869 0.72344 0.0
H876 H 0.70052 0.12319 0.77969 0.0
H877 H 0.67392 0.14463 0.75416 0.0
H878 H 0.68747 0.09487 0.6989 0.0
H879 H 0.71326 0.07331 0.7245 0.0
C880 C 0.66194 0.14595 0.66554 0.0
C881 C 0.6733 0.16771 0.66632 0.0
C882 C 0.66106 0.13185 0.68545 0.0
C883 C 0.67172 0.13925 0.70634 0.0
C884 C 0.68028 0.1623 0.70773 0.0
C885 C 0.68104 0.17639 0.68789 0.0
C886 C 0.69697 0.11632 0.7624 0.0
C887 C 0.70954 0.09709 0.75374 0.0
C888 C 0.68181 0.12865 0.74775 0.0
C889 C 0.67918 0.12197 0.72423 0.0
C890 C 0.68908 0.1007 0.71683 0.0
C891 C 0.70412 0.08836 0.73148 0.0
H892 H 0.12348 0.47577 0.02662 0.0
H893 H 0.15683 0.50763 0.96691 0.0
H894 H 0.10823 0.44467 0.0015 0.0
H895 H 0.14163 0.47677 0.94193 0.0
H896 H 0.11471 0.42182 0.89841 0.0
H897 H 0.13913 0.43461 0.93106 0.0
H898 H 0.07709 0.44921 0.97148 0.0
H899 H 0.05284 0.4364 0.93904 0.0
C900 C 0.128 0.47582 0.00824 0.0
C901 C 0.14098 0.49429 -0.00142 0.0
C902 C 0.1193 0.45802 0.99391 0.0
C903 C 0.12367 0.45832 0.96976 0.0
C904 C 0.1382 0.47585 0.96051 0.0
C905 C 0.14669 0.49371 0.97477 0.0
C906 C 0.10635 0.42679 0.91465 0.0
C907 C 0.08192 0.42863 0.9161 0.0
C908 C 0.12033 0.43424 0.93326 0.0
C909 C 0.11 0.44338 0.95359 0.0
C910 C 0.08559 0.44226 0.95607 0.0
C911 C 0.07166 0.43502 0.93743 0.0
H912 H 0.76682 0.8364 0.24927 0.0
H913 H 0.79338 0.90707 0.25098 0.0
H914 H 0.79534 0.82627 0.2196 0.0
H915 H 0.82219 0.8969 0.221 0.0
H916 H 0.82109 0.87423 0.13974 0.0
H917 H 0.81394 0.88823 0.17914 0.0
H918 H 0.83645 0.82173 0.20691 0.0
H919 H 0.84328 0.80755 0.16735 0.0
C920 C 0.77916 0.84963 0.24366 0.0
C921 C 0.77767 0.87259 0.2521 0.0
C922 C 0.79573 0.84377 0.22684 0.0
C923 C 0.81104 0.86082 0.21793 0.0
C924 C 0.81058 0.88345 0.22752 0.0
C925 C 0.79411 0.88925 0.24462 0.0
C926 C 0.82553 0.86295 0.15427 0.0
C927 C 0.83194 0.83955 0.15047 0.0
C928 C 0.82151 0.87101 0.17693 0.0
C929 C 0.82393 0.85579 0.19605 0.0
C930 C 0.83391 0.83363 0.19241 0.0
C931 C 0.83791 0.82556 0.16974 0.0
H932 H 0.39439 0.5337 0.507 0.0
H933 H 0.34288 0.50831 0.45796 0.0
H934 H 0.41159 0.55795 0.47634 0.0
H935 H 0.36023 0.5317 0.4274 0.0
H936 H 0.39473 0.56522 0.37123 0.0
H937 H 0.37296 0.56608 0.40787 0.0
H938 H 0.43504 0.54388 0.44489 0.0
H939 H 0.45676 0.54394 0.40864 0.0
C940 C 0.38639 0.53378 0.48985 0.0
C941 C 0.36774 0.5187 0.48462 0.0
C942 C 0.39625 0.5476 0.47228 0.0
C943 C 0.38763 0.54642 0.44927 0.0
C944 C 0.36734 0.53323 0.44487 0.0
C945 C 0.3575 0.51953 0.46237 0.0
C946 C 0.40386 0.56136 0.38736 0.0
C947 C 0.42721 0.55381 0.38707 0.0
C948 C 0.3914 0.56178 0.40833 0.0
C949 C 0.40205 0.55438 0.42923 0.0
C950 C 0.42618 0.54969 0.42921 0.0
C951 C 0.43866 0.54948 0.40831 0.0
H952 H 0.24579 0.2251 0.42342 0.0
H953 H 0.21444 0.21866 0.35512 0.0
H954 H 0.2745 0.19534 0.41307 0.0
H955 H 0.24378 0.19044 0.34409 0.0
H956 H 0.30203 0.15138 0.31928 0.0
H957 H 0.26697 0.15764 0.34269 0.0
H958 H 0.30729 0.20018 0.39064 0.0
H959 H 0.34207 0.19262 0.36822 0.0
C960 C 0.24479 0.21695 0.40636 0.0
C961 C 0.22836 0.22458 0.38983 0.0
C962 C 0.26132 0.20001 0.40032 0.0
C963 C 0.26215 0.19102 0.37742 0.0
C964 C 0.24392 0.19679 0.3619 0.0
C965 C 0.22708 0.21325 0.36814 0.0
C966 C 0.30342 0.16136 0.33531 0.0
C967 C 0.32457 0.1721 0.34159 0.0
C968 C 0.28331 0.16512 0.34867 0.0
C969 C 0.28395 0.18014 0.36817 0.0
C970 C 0.30581 0.18852 0.37583 0.0
C971 C 0.32591 0.18438 0.36276 0.0
H972 H 0.99107 0.01822 0.64386 0.0
H973 H 0.02778 0.96809 0.60097 0.0
H974 H 0.01898 0.0481 0.63325 0.0
H975 H 0.05642 -0.00181 0.59058 0.0
H976 H 0.06186 0.06893 0.54724 0.0
H977 H 0.0528 0.03181 0.56551 0.0
H978 H 0.05755 0.0642 0.63359 0.0
H979 H 0.06565 0.10174 0.61512 0.0
C980 C 0.00544 0.01348 0.63249 0.0
C981 C 0.00702 0.99098 0.62288 0.0
C982 C 0.02172 0.03056 0.62665 0.0
C983 C 0.04002 0.02558 0.61104 0.0
C984 C 0.04242 0.00262 0.60251 0.0
C985 C 0.02605 0.98543 0.60842 0.0
C986 C 0.06183 0.06798 0.56615 0.0
C987 C 0.06362 0.08833 0.57976 0.0
C988 C 0.05674 0.04658 0.57667 0.0
C989 C 0.05365 0.04523 0.60099 0.0
C990 C 0.05908 0.06489 0.61475 0.0
C991 C 0.06386 0.08636 0.60419 0.0
H992 H 0.26882 0.78421 0.8539 0.0
H993 H 0.22296 0.72457 0.86104 0.0
H994 H 0.23447 0.80972 0.84853 0.0
H995 H 0.18919 0.74987 0.85638 0.0
H996 H 0.13307 0.79726 0.87032 0.0
H997 H 0.17276 0.78718 0.88206 0.0
H998 H 0.19826 0.80726 0.81411 0.0
H999 H 0.15851 0.81735 0.80216 0.0
C1000 C 0.25148 0.77662 0.85434 0.0
C1001 C 0.24848 0.75244 0.85773 0.0
C1002 C 0.23196 0.79117 0.85142 0.0
C1003 C 0.20935 0.78172 0.85256 0.0
C1004 C 0.20649 0.75759 0.85592 0.0
C1005 C 0.22583 0.7431 0.8583 0.0
C1006 C 0.14724 0.80055 0.85821 0.0
C1007 C 0.14265 0.80743 0.83512 0.0
C1008 C 0.16994 0.79479 0.86496 0.0
C1009 C 0.1883 0.79605 0.84878 0.0
C1010 C 0.1843 0.80617 0.82683 0.0
C1011 C 0.16153 0.81187 0.82002 0.0
H1012 H 0.49737 0.96563 0.16281 0.0
H1013 H 0.46446 0.02404 0.12807 0.0
H1014 H 0.46841 0.93933 0.14614 0.0
H1015 H 0.43519 -0.00234 0.11152 0.0
H1016 H 0.43105 0.9365 0.0552 0.0
H1017 H 0.44227 0.96864 0.08056 0.0
H1018 H 0.42747 0.92608 0.14112 0.0
H1019 H 0.41631 0.89367 0.11551 0.0
C1020 C 0.48358 0.97292 0.15207 0.0
C1021 C 0.48343 -0.00324 0.14633 0.0
C1022 C 0.4668 0.95789 0.14272 0.0
C1023 C 0.4496 0.96642 0.12738 0.0
C1024 C 0.44837 0.99059 0.12312 0.0
C1025 C 0.46513 0.00565 0.13257 0.0
C1026 C 0.42939 0.93428 0.07392 0.0
C1027 C 0.42328 0.91253 0.08343 0.0
C1028 C 0.43568 0.95276 0.08849 0.0
C1029 C 0.43613 0.94973 0.11285 0.0
C1030 C 0.42757 0.92875 0.12239 0.0
C1031 C 0.42106 0.91028 0.10775 0.0
H1032 H 0.71282 0.27603 0.63536 0.0
H1033 H 0.77077 0.24166 0.60135 0.0
H1034 H 0.73821 0.30925 0.64487 0.0
H1035 H 0.79597 0.27422 0.61101 0.0
H1036 H 0.84146 0.32925 0.62597 0.0
H1037 H 0.80652 0.31468 0.6064 0.0
H1038 H 0.77017 0.31338 0.67251 0.0
H1039 H 0.80464 0.32881 0.69179 0.0
C1040 C 0.73087 0.27572 0.62967 0.0
C1041 C 0.73994 0.25615 0.61792 0.0
C1042 C 0.74537 0.29473 0.63507 0.0
C1043 C 0.76911 0.2945 0.62863 0.0
C1044 C 0.77771 0.27533 0.61585 0.0
C1045 C 0.76332 0.25642 0.61059 0.0
C1046 C 0.82562 0.32697 0.6361 0.0
C1047 C 0.82597 0.32941 0.66049 0.0
C1048 C 0.80566 0.31842 0.62493 0.0
C1049 C 0.78593 0.31191 0.63807 0.0
C1050 C 0.78512 0.31796 0.66186 0.0
C1051 C 0.80498 0.32682 0.67298 0.0
H1052 H -0.00377 0.50906 0.84915 0.0
H1053 H 0.97031 0.45151 0.89053 0.0
H1054 H 0.96655 0.53447 0.86565 0.0
H1055 H 0.94016 0.47698 0.90692 0.0
H1056 H 0.93477 0.54171 0.95873 0.0
H1057 H 0.94633 0.50849 0.93505 0.0
H1058 H 0.92594 0.5458 0.87265 0.0
H1059 H 0.91466 0.57937 0.89651 0.0
C1060 C 0.98376 0.50169 0.86133 0.0
C1061 C 0.98586 0.47848 0.86895 0.0
C1062 C 0.96654 0.5162 0.87062 0.0
C1063 C 0.95111 0.50778 0.88778 0.0
C1064 C 0.95199 0.484 0.89393 0.0
C1065 C 0.96922 0.46944 0.88455 0.0
C1066 C 0.93202 0.54254 0.94003 0.0
C1067 C 0.92437 0.56328 0.9294 0.0
C1068 C 0.93849 0.5234 0.92641 0.0
C1069 C 0.93748 0.5247 0.90192 0.0
C1070 C 0.92729 0.54448 0.89148 0.0
C1071 C 0.92073 0.56365 0.90514 0.0
H1072 H 0.68412 0.68703 0.19456 0.0
H1073 H 0.65195 0.70191 0.1279 0.0
H1074 H 0.72225 0.69731 0.17846 0.0
H1075 H 0.68988 0.71243 0.11196 0.0
H1076 H 0.76177 0.7661 0.15536 0.0
H1077 H 0.73301 0.73825 0.16954 0.0
H1078 H 0.73132 0.70499 0.10176 0.0
H1079 H 0.76017 0.73314 0.08746 0.0
C1080 C 0.6853 0.69171 0.17626 0.0
C1081 C 0.66505 0.69427 0.16261 0.0
C1082 C 0.7071 0.69768 0.16709 0.0
C1083 C 0.70894 0.70619 0.14414 0.0
C1084 C 0.68905 0.70594 0.12971 0.0
C1085 C 0.66727 0.70004 0.13889 0.0
C1086 C 0.75559 0.75258 0.14361 0.0
C1087 C 0.76286 0.75199 0.12024 0.0
C1088 C 0.73932 0.73643 0.1518 0.0
C1089 C 0.72988 0.71944 0.13673 0.0
C1090 C 0.73822 0.71798 0.1137 0.0
C1091 C 0.75468 0.73408 0.10554 0.0
H1092 H 0.4928 0.45063 0.32919 0.0
H1093 H 0.5299 0.50652 0.36394 0.0
H1094 H 0.52033 0.42246 0.34493 0.0
H1095 H 0.55783 0.47817 0.37964 0.0
H1096 H 0.56146 0.41436 0.43346 0.0
H1097 H 0.552 0.44836 0.40992 0.0
H1098 H 0.56029 0.40723 0.34715 0.0
H1099 H 0.56929 0.37295 0.37082 0.0
C1100 C 0.50713 0.45693 0.33985 0.0
C1101 C 0.50901 0.48067 0.34566 0.0
C1102 C 0.52313 0.44082 0.34865 0.0
C1103 C 0.54132 0.44809 0.36352 0.0
C1104 C 0.54394 0.47206 0.3683 0.0
C1105 C 0.52795 0.48824 0.35936 0.0
C1106 C 0.56217 0.41277 0.41461 0.0
C1107 C 0.56538 0.39088 0.40397 0.0
C1108 C 0.55683 0.43233 0.40108 0.0
C1109 C 0.55472 0.43027 0.3767 0.0
C1110 C 0.56123 0.40914 0.36595 0.0
C1111 C 0.56653 0.38955 0.37951 0.0
H1112 H 0.38873 0.2244 0.21826 0.0
H1113 H 0.31771 0.22358 0.24381 0.0
H1114 H 0.37748 0.25229 0.18795 0.0
H1115 H 0.30654 0.25155 0.21384 0.0
H1116 H 0.28714 0.29896 0.15861 0.0
H1117 H 0.30162 0.26128 0.17235 0.0
H1118 H 0.36703 0.29368 0.19185 0.0
H1119 H 0.35274 0.33113 0.17782 0.0
C1120 C 0.37063 0.22987 0.21713 0.0
C1121 C 0.35413 0.22211 0.23358 0.0
C1122 C 0.36422 0.24582 0.19979 0.0
C1123 C 0.34117 0.2542 0.19853 0.0
C1124 C 0.32438 0.24522 0.21409 0.0
C1125 C 0.33081 0.22936 0.23145 0.0
C1126 C 0.30495 0.29783 0.16497 0.0
C1127 C 0.31864 0.31806 0.16767 0.0
C1128 C 0.31316 0.27628 0.173 0.0
C1129 C 0.33521 0.27464 0.18374 0.0
C1130 C 0.34995 0.29432 0.1837 0.0
C1131 C 0.34173 0.31585 0.17571 0.0
H1132 H 0.82117 0.15255 0.80526 0.0
H1133 H 0.78431 0.15495 0.73937 0.0
H1134 H 0.83644 0.192 0.79802 0.0
H1135 H 0.79972 0.19361 0.732 0.0
H1136 H 0.81564 0.26764 0.72745 0.0
H1137 H 0.79717 0.2335 0.74489 0.0
H1138 H 0.86429 0.2105 0.7709 0.0
H1139 H 0.88261 0.24528 0.75418 0.0
C1140 C 0.81628 0.16153 0.78934 0.0
C1141 C 0.80163 0.15071 0.77285 0.0
C1142 C 0.82502 0.18402 0.78518 0.0
C1143 C 0.8191 0.196 0.76455 0.0
C1144 C 0.8042 0.18514 0.74832 0.0
C1145 C 0.79556 0.16283 0.75244 0.0
C1146 C 0.82633 0.25553 0.73732 0.0
C1147 C 0.85055 0.2588 0.73917 0.0
C1148 C 0.81581 0.23596 0.74723 0.0
C1149 C 0.82938 0.21906 0.7588 0.0
C1150 C 0.85337 0.22324 0.76215 0.0
C1151 C 0.86387 0.24306 0.75248 0.0
H1152 H 0.96514 0.5921 0.03639 0.0
H1153 H 0.00649 0.6452 0.00223 0.0
H1154 H -0.00138 0.58207 0.06105 0.0
H1155 H 0.03984 0.63491 0.02612 0.0
H1156 H 0.10017 0.6142 0.06527 0.0
H1157 H 0.06086 0.63064 0.06204 0.0
H1158 H 0.03317 0.56135 0.04978 0.0
H1159 H 0.07203 0.54508 0.05371 0.0
C1160 C 0.98121 0.60193 0.0345 0.0
C1161 C 0.98342 0.61904 0.01707 0.0
C1162 C 0.00038 0.59619 0.04857 0.0
C1163 C 0.02204 0.60745 0.04537 0.0
C1164 C 0.02346 0.62598 0.02931 0.0
C1165 C 0.00436 0.63171 0.01534 0.0
C1166 C 0.08551 0.60247 0.06274 0.0
C1167 C 0.08916 0.57847 0.05912 0.0
C1168 C 0.06303 0.61187 0.06077 0.0
C1169 C 0.04393 0.59739 0.05506 0.0
C1170 C 0.04736 0.57307 0.05421 0.0
C1171 C 0.06975 0.56372 0.05625 0.0
H1172 H 0.7114 0.8114 0.30765 0.0
H1173 H 0.64948 0.85339 0.31776 0.0
H1174 H 0.68728 0.77819 0.29708 0.0
H1175 H 0.62515 0.81977 0.30796 0.0
H1176 H 0.60467 0.78013 0.23944 0.0
H1177 H 0.62098 0.80636 0.26841 0.0
H1178 H 0.65761 0.74851 0.30043 0.0
H1179 H 0.64153 0.72218 0.2708 0.0
C1180 C 0.69259 0.81323 0.30867 0.0
C1181 C 0.68231 0.83516 0.31275 0.0
C1182 C 0.67868 0.7941 0.30268 0.0
C1183 C 0.65429 0.79657 0.30091 0.0
C1184 C 0.64395 0.81756 0.30848 0.0
C1185 C 0.65787 0.83677 0.31425 0.0
C1186 C 0.6159 0.77292 0.25288 0.0
C1187 C 0.6222 0.74923 0.25262 0.0
C1188 C 0.62503 0.78792 0.26975 0.0
C1189 C 0.64068 0.77956 0.28678 0.0
C1190 C 0.64579 0.75551 0.28741 0.0
C1191 C 0.63661 0.74046 0.27046 0.0
H1192 H 0.39643 0.39563 0.55445 0.0
H1193 H 0.43632 0.45398 0.52799 0.0
H1194 H 0.42991 0.36982 0.54786 0.0
H1195 H 0.46953 0.42841 0.52134 0.0
H1196 H 0.52712 0.38012 0.50837 0.0
H1197 H 0.5 0.40067 0.5342 0.0
H1198 H 0.44331 0.35788 0.50836 0.0
H1199 H 0.47033 0.33731 0.48286 0.0
C1200 C 0.41261 0.40308 0.54803 0.0
C1201 C 0.41374 0.42664 0.54128 0.0
C1202 C 0.4317 0.38831 0.54417 0.0
C1203 C 0.45218 0.39703 0.53375 0.0
C1204 C 0.45406 0.42115 0.52949 0.0
C1205 C 0.43497 0.43579 0.53313 0.0
C1206 C 0.50896 0.37477 0.50866 0.0
C1207 C 0.50069 0.35748 0.4933 0.0
C1208 C 0.49347 0.3865 0.52345 0.0
C1209 C 0.46953 0.381 0.52318 0.0
C1210 C 0.46169 0.36237 0.50919 0.0
C1211 C 0.47712 0.35076 0.49435 0.0
H1212 H 0.20268 0.67537 0.71371 0.0
H1213 H 0.14208 0.63923 0.68674 0.0
H1214 H 0.17843 0.70874 0.72382 0.0
H1215 H 0.11768 0.67289 0.69671 0.0
H1216 H 0.08677 0.71219 0.76253 0.0
H1217 H 0.10695 0.68499 0.73686 0.0
H1218 H 0.15178 0.74085 0.71285 0.0
H1219 H 0.13165 0.76812 0.73886 0.0
C1220 C 0.18427 0.67487 0.70933 0.0
C1221 C 0.17415 0.65461 0.69988 0.0
C1222 C 0.17038 0.69406 0.71495 0.0
C1223 C 0.1461 0.69327 0.71134 0.0
C1224 C 0.13632 0.6738 0.69995 0.0
C1225 C 0.15028 0.65461 0.69416 0.0
C1226 C 0.10066 0.71875 0.75148 0.0
C1227 C 0.10794 0.74213 0.75296 0.0
C1228 C 0.11205 0.70323 0.73656 0.0
C1229 C 0.13101 0.71079 0.72291 0.0
C1230 C 0.13734 0.73453 0.72333 0.0
C1231 C 0.12585 0.7501 0.73821 0.0
H1232 H 0.50492 0.84599 -0.00027 0.0
H1233 H 0.45146 0.89017 0.96991 0.0
H1234 H 0.53359 0.86261 0.97337 0.0
H1235 H 0.4803 0.90678 0.94307 0.0
H1236 H 0.54641 0.95707 0.94987 0.0
H1237 H 0.51144 0.93366 0.95495 0.0
H1238 H 0.54978 0.87173 0.93486 0.0
H1239 H 0.5851 0.89535 0.93005 0.0
C1240 C 0.49918 0.85881 0.98704 0.0
C1241 C 0.47615 0.86724 0.98722 0.0
C1242 C 0.51557 0.86816 0.97169 0.0
C1243 C 0.50928 0.88623 0.95629 0.0
C1244 C 0.48569 0.89306 0.95495 0.0
C1245 C 0.46921 0.88357 0.97029 0.0
C1246 C 0.5472 0.93858 0.94581 0.0
C1247 C 0.56853 0.92789 0.94018 0.0
C1248 C 0.52706 0.92515 0.94849 0.0
C1249 C 0.52795 0.90075 0.94572 0.0
C1250 C 0.5487 0.89046 0.93745 0.0
C1251 C 0.56888 0.90397 0.93465 0.0
H1252 H 0.92838 0.06627 0.41309 0.0
H1253 H 0.89006 0.12531 0.44043 0.0
H1254 H 0.96498 0.08458 0.42497 0.0
H1255 H 0.92656 0.14337 0.45266 0.0
H1256 H -0.00448 0.16891 0.47918 0.0
H1257 H 0.96744 0.15854 0.44846 0.0
H1258 H 0.97419 0.08568 0.46729 0.0
H1259 H 0.00192 0.09598 0.49768 0.0
C1260 C 0.92782 0.08358 0.42077 0.0
C1261 C 0.90639 0.09405 0.42653 0.0
C1262 C 0.94878 0.09401 0.42765 0.0
C1263 C 0.94853 0.115 0.44042 0.0
C1264 C 0.92731 0.12711 0.44298 0.0
C1265 C 0.90634 0.11671 0.43601 0.0
C1266 C 0.99126 0.15066 0.47638 0.0
C1267 C 0.00058 0.13324 0.49097 0.0
C1268 C 0.97527 0.14476 0.45881 0.0
C1269 C 0.96871 0.12132 0.45538 0.0
C1270 C 0.97917 0.10387 0.46916 0.0
C1271 C -0.00516 0.10978 0.48681 0.0
loop_
_geom_bond_atom_site_label_1
_geom_bond_atom_site_label_2
_geom_bond_distance
_geom_bond_site_symmetry_2
_ccdc_geom_bond_type
In0 O1 2.294 . S
In0 O2 2.326 . S
In0 O6 2.266 . S
In0 O7 2.326 . S
In0 O8 2.266 . S
In0 O9 2.326 . S
In0 O11 2.294 . S
In0 O12 2.326 . S
O1 In0 2.294 . S
O1 C10 1.240 . S
O2 In0 2.326 . S
O2 C10 1.252 . S
C3 O6 1.252 . S
C3 O7 1.260 . S
C4 O11 1.240 . S
C4 O12 1.252 . S
C5 O8 1.252 . S
C5 O9 1.260 . S
O6 In0 2.266 . S
O6 C3 1.252 . S
O7 In0 2.326 . S
O7 C3 1.260 . S
O8 In0 2.266 . S
O8 C5 1.252 . S
O9 In0 2.326 . S
O9 C5 1.260 . S
C10 O1 1.240 . S
C10 O2 1.252 . S
O11 In0 2.294 . S
O11 C4 1.240 . S
O12 In0 2.326 . S
O12 C4 1.252 . S
In13 O14 2.294 . S
In13 O15 2.326 . S
In13 O19 2.266 . S
In13 O20 2.326 . S
In13 O21 2.266 . S
In13 O22 2.326 . S
In13 O24 2.294 . S
In13 O25 2.326 . S
O14 In13 2.294 . S
O14 C23 1.240 . S
O15 In13 2.326 . S
O15 C23 1.252 . S
C16 O19 1.252 . S
C16 O20 1.260 . S
C17 O24 1.240 . S
C17 O25 1.252 . S
C18 O21 1.252 . S
C18 O22 1.260 . S
O19 In13 2.266 . S
O19 C16 1.252 . S
O20 In13 2.326 . S
O20 C16 1.260 . S
O21 In13 2.266 . S
O21 C18 1.252 . S
O22 In13 2.326 . S
O22 C18 1.260 . S
C23 O14 1.240 . S
C23 O15 1.252 . S
O24 In13 2.294 . S
O24 C17 1.240 . S
O25 In13 2.326 . S
O25 C17 1.252 . S
In26 O27 2.294 . S
In26 O28 2.326 . S
In26 O32 2.266 . S
In26 O33 2.326 . S
In26 O34 2.266 . S
In26 O35 2.326 . S
In26 O37 2.294 . S
In26 O38 2.326 . S
O27 In26 2.294 . S
O27 C36 1.240 . S
O28 In26 2.326 . S
O28 C36 1.252 . S
C29 O32 1.252 . S
C29 O33 1.260 . S
C30 O37 1.240 . S
C30 O38 1.252 . S
C31 O34 1.252 . S
C31 O35 1.260 . S
O32 In26 2.266 . S
O32 C29 1.252 . S
O33 In26 2.326 . S
O33 C29 1.260 . S
O34 In26 2.266 . S
O34 C31 1.252 . S
O35 In26 2.326 . S
O35 C31 1.260 . S
C36 O27 1.240 . S
C36 O28 1.252 . S
O37 In26 2.294 . S
O37 C30 1.240 . S
O38 In26 2.326 . S
O38 C30 1.252 . S
In39 O40 2.294 . S
In39 O41 2.326 . S
In39 O45 2.266 . S
In39 O46 2.326 . S
In39 O47 2.266 . S
In39 O48 2.326 . S
In39 O50 2.294 . S
In39 O51 2.326 . S
O40 In39 2.294 . S
O40 C49 1.240 . S
O41 In39 2.326 . S
O41 C49 1.252 . S
C42 O45 1.252 . S
C42 O46 1.260 . S
C43 O50 1.240 . S
C43 O51 1.252 . S
C44 O47 1.252 . S
C44 O48 1.260 . S
O45 In39 2.266 . S
O45 C42 1.252 . S
O46 In39 2.326 . S
O46 C42 1.260 . S
O47 In39 2.266 . S
O47 C44 1.252 . S
O48 In39 2.326 . S
O48 C44 1.260 . S
C49 O40 1.240 . S
C49 O41 1.252 . S
O50 In39 2.294 . S
O50 C43 1.240 . S
O51 In39 2.326 . S
O51 C43 1.252 . S
In52 O53 2.294 . S
In52 O54 2.326 . S
In52 O58 2.266 . S
In52 O59 2.326 . S
In52 O60 2.266 . S
In52 O61 2.326 . S
In52 O63 2.294 . S
In52 O64 2.326 . S
O53 In52 2.294 . S
O53 C62 1.240 . S
O54 In52 2.326 . S
O54 C62 1.252 . S
C55 O58 1.252 . S
C55 O59 1.260 . S
C56 O63 1.240 . S
C56 O64 1.252 . S
C57 O60 1.252 . S
C57 O61 1.260 . S
O58 In52 2.266 . S
O58 C55 1.252 . S
O59 In52 2.326 . S
O59 C55 1.260 . S
O60 In52 2.266 . S
O60 C57 1.252 . S
O61 In52 2.326 . S
O61 C57 1.260 . S
C62 O53 1.240 . S
C62 O54 1.252 . S
O63 In52 2.294 . S
O63 C56 1.240 . S
O64 In52 2.326 . S
O64 C56 1.252 . S
In65 O66 2.294 . S
In65 O67 2.326 . S
In65 O71 2.266 . S
In65 O72 2.326 . S
In65 O73 2.266 . S
In65 O74 2.326 . S
In65 O76 2.294 . S
In65 O77 2.326 . S
O66 In65 2.294 . S
O66 C75 1.240 . S
O67 In65 2.326 . S
O67 C75 1.252 . S
C68 O71 1.252 . S
C68 O72 1.260 . S
C69 O76 1.240 . S
C69 O77 1.252 . S
C70 O73 1.252 . S
C70 O74 1.260 . S
O71 In65 2.266 . S
O71 C68 1.252 . S
O72 In65 2.326 . S
O72 C68 1.260 . S
O73 In65 2.266 . S
O73 C70 1.252 . S
O74 In65 2.326 . S
O74 C70 1.260 . S
C75 O66 1.240 . S
C75 O67 1.252 . S
O76 In65 2.294 . S
O76 C69 1.240 . S
O77 In65 2.326 . S
O77 C69 1.252 . S
In78 O79 2.294 . S
In78 O80 2.326 . S
In78 O84 2.266 . S
In78 O85 2.326 . S
In78 O86 2.266 . S
In78 O87 2.326 . S
In78 O89 2.294 . S
In78 O90 2.326 . S
O79 In78 2.294 . S
O79 C88 1.240 . S
O80 In78 2.326 . S
O80 C88 1.252 . S
C81 O84 1.252 . S
C81 O85 1.260 . S
C82 O89 1.240 . S
C82 O90 1.252 . S
C83 O86 1.252 . S
C83 O87 1.260 . S
O84 In78 2.266 . S
O84 C81 1.252 . S
O85 In78 2.326 . S
O85 C81 1.260 . S
O86 In78 2.266 . S
O86 C83 1.252 . S
O87 In78 2.326 . S
O87 C83 1.260 . S
C88 O79 1.240 . S
C88 O80 1.252 . S
O89 In78 2.294 . S
O89 C82 1.240 . S
O90 In78 2.326 . S
O90 C82 1.252 . S
In91 O92 2.294 . S
In91 O93 2.326 . S
In91 O97 2.266 . S
In91 O98 2.326 . S
In91 O99 2.266 . S
In91 O100 2.326 . S
In91 O102 2.294 . S
In91 O103 2.326 . S
O92 In91 2.294 . S
O92 C101 1.240 . S
O93 In91 2.326 . S
O93 C101 1.252 . S
C94 O97 1.252 . S
C94 O98 1.260 . S
C95 O102 1.240 . S
C95 O103 1.252 . S
C96 O99 1.252 . S
C96 O100 1.260 . S
O97 In91 2.266 . S
O97 C94 1.252 . S
O98 In91 2.326 . S
O98 C94 1.260 . S
O99 In91 2.266 . S
O99 C96 1.252 . S
O100 In91 2.326 . S
O100 C96 1.260 . S
C101 O92 1.240 . S
C101 O93 1.252 . S
O102 In91 2.294 . S
O102 C95 1.240 . S
O103 In91 2.326 . S
O103 C95 1.252 . S
In104 O105 2.294 . S
In104 O106 2.326 . S
In104 O110 2.266 . S
In104 O111 2.326 . S
In104 O112 2.266 . S
In104 O113 2.326 . S
In104 O115 2.294 . S
In104 O116 2.326 . S
O105 In104 2.294 . S
O105 C114 1.240 . S
O106 In104 2.326 . S
O106 C114 1.252 . S
C107 O110 1.252 . S
C107 O111 1.260 . S
C108 O115 1.240 . S
C108 O116 1.252 . S
C109 O112 1.252 . S
C109 O113 1.260 . S
O110 In104 2.266 . S
O110 C107 1.252 . S
O111 In104 2.326 . S
O111 C107 1.260 . S
O112 In104 2.266 . S
O112 C109 1.252 . S
O113 In104 2.326 . S
O113 C109 1.260 . S
C114 O105 1.240 . S
C114 O106 1.252 . S
O115 In104 2.294 . S
O115 C108 1.240 . S
O116 In104 2.326 . S
O116 C108 1.252 . S
In117 O118 2.294 . S
In117 O119 2.326 . S
In117 O123 2.266 . S
In117 O124 2.326 . S
In117 O125 2.266 . S
In117 O126 2.326 . S
In117 O128 2.294 . S
In117 O129 2.326 . S
O118 In117 2.294 . S
O118 C127 1.240 . S
O119 In117 2.326 . S
O119 C127 1.252 . S
C120 O123 1.252 . S
C120 O124 1.260 . S
C121 O128 1.240 . S
C121 O129 1.252 . S
C122 O125 1.252 . S
C122 O126 1.260 . S
O123 In117 2.266 . S
O123 C120 1.252 . S
O124 In117 2.326 . S
O124 C120 1.260 . S
O125 In117 2.266 . S
O125 C122 1.252 . S
O126 In117 2.326 . S
O126 C122 1.260 . S
C127 O118 1.240 . S
C127 O119 1.252 . S
O128 In117 2.294 . S
O128 C121 1.240 . S
O129 In117 2.326 . S
O129 C121 1.252 . S
In130 O131 2.294 . S
In130 O132 2.326 . S
In130 O136 2.266 . S
In130 O137 2.326 . S
In130 O138 2.266 . S
In130 O139 2.326 . S
In130 O141 2.294 . S
In130 O142 2.326 . S
O131 In130 2.294 . S
O131 C140 1.240 . S
O132 In130 2.326 . S
O132 C140 1.252 . S
C133 O136 1.252 . S
C133 O137 1.260 . S
C134 O141 1.240 . S
C134 O142 1.252 . S
C135 O138 1.252 . S
C135 O139 1.260 . S
O136 In130 2.266 . S
O136 C133 1.252 . S
O137 In130 2.326 . S
O137 C133 1.260 . S
O138 In130 2.266 . S
O138 C135 1.252 . S
O139 In130 2.326 . S
O139 C135 1.260 . S
C140 O131 1.240 . S
C140 O132 1.252 . S
O141 In130 2.294 . S
O141 C134 1.240 . S
O142 In130 2.326 . S
O142 C134 1.252 . S
In143 O144 2.294 . S
In143 O145 2.326 . S
In143 O149 2.266 . S
In143 O150 2.326 . S
In143 O151 2.266 . S
In143 O152 2.326 . S
In143 O154 2.294 . S
In143 O155 2.326 . S
O144 In143 2.294 . S
O144 C153 1.240 . S
O145 In143 2.326 . S
O145 C153 1.252 . S
C146 O149 1.252 . S
C146 O150 1.260 . S
C147 O154 1.240 . S
C147 O155 1.252 . S
C148 O151 1.252 . S
C148 O152 1.260 . S
O149 In143 2.266 . S
O149 C146 1.252 . S
O150 In143 2.326 . S
O150 C146 1.260 . S
O151 In143 2.266 . S
O151 C148 1.252 . S
O152 In143 2.326 . S
O152 C148 1.260 . S
C153 O144 1.240 . S
C153 O145 1.252 . S
O154 In143 2.294 . S
O154 C147 1.240 . S
O155 In143 2.326 . S
O155 C147 1.252 . S
In156 O157 2.294 . S
In156 O158 2.326 . S
In156 O162 2.266 . S
In156 O163 2.326 . S
In156 O164 2.266 . S
In156 O165 2.326 . S
In156 O167 2.294 . S
In156 O168 2.326 . S
O157 In156 2.294 . S
O157 C166 1.240 . S
O158 In156 2.326 . S
O158 C166 1.252 . S
C159 O162 1.252 . S
C159 O163 1.260 . S
C160 O167 1.240 . S
C160 O168 1.252 . S
C161 O164 1.252 . S
C161 O165 1.260 . S
O162 In156 2.266 . S
O162 C159 1.252 . S
O163 In156 2.326 . S
O163 C159 1.260 . S
O164 In156 2.266 . S
O164 C161 1.252 . S
O165 In156 2.326 . S
O165 C161 1.260 . S
C166 O157 1.240 . S
C166 O158 1.252 . S
O167 In156 2.294 . S
O167 C160 1.240 . S
O168 In156 2.326 . S
O168 C160 1.252 . S
In169 O170 2.294 . S
In169 O171 2.326 . S
In169 O175 2.266 . S
In169 O176 2.326 . S
In169 O177 2.266 . S
In169 O178 2.326 . S
In169 O180 2.294 . S
In169 O181 2.326 . S
O170 In169 2.294 . S
O170 C179 1.240 . S
O171 In169 2.326 . S
O171 C179 1.252 . S
C172 O175 1.252 . S
C172 O176 1.260 . S
C173 O180 1.240 . S
C173 O181 1.252 . S
C174 O177 1.252 . S
C174 O178 1.260 . S
O175 In169 2.266 . S
O175 C172 1.252 . S
O176 In169 2.326 . S
O176 C172 1.260 . S
O177 In169 2.266 . S
O177 C174 1.252 . S
O178 In169 2.326 . S
O178 C174 1.260 . S
C179 O170 1.240 . S
C179 O171 1.252 . S
O180 In169 2.294 . S
O180 C173 1.240 . S
O181 In169 2.326 . S
O181 C173 1.252 . S
In182 O183 2.294 . S
In182 O184 2.326 . S
In182 O188 2.266 . S
In182 O189 2.326 . S
In182 O190 2.266 . S
In182 O191 2.326 . S
In182 O193 2.294 . S
In182 O194 2.326 . S
O183 In182 2.294 . S
O183 C192 1.240 . S
O184 In182 2.326 . S
O184 C192 1.252 . S
C185 O188 1.252 . S
C185 O189 1.260 . S
C186 O193 1.240 . S
C186 O194 1.252 . S
C187 O190 1.252 . S
C187 O191 1.260 . S
O188 In182 2.266 . S
O188 C185 1.252 . S
O189 In182 2.326 . S
O189 C185 1.260 . S
O190 In182 2.266 . S
O190 C187 1.252 . S
O191 In182 2.326 . S
O191 C187 1.260 . S
C192 O183 1.240 . S
C192 O184 1.252 . S
O193 In182 2.294 . S
O193 C186 1.240 . S
O194 In182 2.326 . S
O194 C186 1.252 . S
In195 O196 2.294 . S
In195 O197 2.326 . S
In195 O201 2.266 . S
In195 O202 2.326 . S
In195 O203 2.266 . S
In195 O204 2.326 . S
In195 O206 2.294 . S
In195 O207 2.326 . S
O196 In195 2.294 . S
O196 C205 1.240 . S
O197 In195 2.326 . S
O197 C205 1.252 . S
C198 O201 1.252 . S
C198 O202 1.260 . S
C199 O206 1.240 . S
C199 O207 1.252 . S
C200 O203 1.252 . S
C200 O204 1.260 . S
O201 In195 2.266 . S
O201 C198 1.252 . S
O202 In195 2.326 . S
O202 C198 1.260 . S
O203 In195 2.266 . S
O203 C200 1.252 . S
O204 In195 2.326 . S
O204 C200 1.260 . S
C205 O196 1.240 . S
C205 O197 1.252 . S
O206 In195 2.294 . S
O206 C199 1.240 . S
O207 In195 2.326 . S
O207 C199 1.252 . S
In208 O209 2.294 . S
In208 O210 2.326 . S
In208 O214 2.266 . S
In208 O215 2.326 . S
In208 O216 2.266 . S
In208 O217 2.326 . S
In208 O219 2.294 . S
In208 O220 2.326 . S
O209 In208 2.294 . S
O209 C218 1.240 . S
O210 In208 2.326 . S
O210 C218 1.252 . S
C211 O214 1.252 . S
C211 O215 1.260 . S
C212 O219 1.240 . S
C212 O220 1.252 . S
C213 O216 1.252 . S
C213 O217 1.260 . S
O214 In208 2.266 . S
O214 C211 1.252 . S
O215 In208 2.326 . S
O215 C211 1.260 . S
O216 In208 2.266 . S
O216 C213 1.252 . S
O217 In208 2.326 . S
O217 C213 1.260 . S
C218 O209 1.240 . S
C218 O210 1.252 . S
O219 In208 2.294 . S
O219 C212 1.240 . S
O220 In208 2.326 . S
O220 C212 1.252 . S
In221 O222 2.294 . S
In221 O223 2.326 . S
In221 O227 2.266 . S
In221 O228 2.326 . S
In221 O229 2.266 . S
In221 O230 2.326 . S
In221 O232 2.294 . S
In221 O233 2.326 . S
O222 In221 2.294 . S
O222 C231 1.240 . S
O223 In221 2.326 . S
O223 C231 1.252 . S
C224 O227 1.252 . S
C224 O228 1.260 . S
C225 O232 1.240 . S
C225 O233 1.252 . S
C226 O229 1.252 . S
C226 O230 1.260 . S
O227 In221 2.266 . S
O227 C224 1.252 . S
O228 In221 2.326 . S
O228 C224 1.260 . S
O229 In221 2.266 . S
O229 C226 1.252 . S
O230 In221 2.326 . S
O230 C226 1.260 . S
C231 O222 1.240 . S
C231 O223 1.252 . S
O232 In221 2.294 . S
O232 C225 1.240 . S
O233 In221 2.326 . S
O233 C225 1.252 . S
In234 O235 2.294 . S
In234 O236 2.326 . S
In234 O240 2.266 . S
In234 O241 2.326 . S
In234 O242 2.266 . S
In234 O243 2.326 . S
In234 O245 2.294 . S
In234 O246 2.326 . S
O235 In234 2.294 . S
O235 C244 1.240 . S
O236 In234 2.326 . S
O236 C244 1.252 . S
C237 O240 1.252 . S
C237 O241 1.260 . S
C238 O245 1.240 . S
C238 O246 1.252 . S
C239 O242 1.252 . S
C239 O243 1.260 . S
O240 In234 2.266 . S
O240 C237 1.252 . S
O241 In234 2.326 . S
O241 C237 1.260 . S
O242 In234 2.266 . S
O242 C239 1.252 . S
O243 In234 2.326 . S
O243 C239 1.260 . S
C244 O235 1.240 . S
C244 O236 1.252 . S
O245 In234 2.294 . S
O245 C238 1.240 . S
O246 In234 2.326 . S
O246 C238 1.252 . S
In247 O248 2.294 . S
In247 O249 2.326 . S
In247 O253 2.266 . S
In247 O254 2.326 . S
In247 O255 2.266 . S
In247 O256 2.326 . S
In247 O258 2.294 . S
In247 O259 2.326 . S
O248 In247 2.294 . S
O248 C257 1.240 . S
O249 In247 2.326 . S
O249 C257 1.252 . S
C250 O253 1.252 . S
C250 O254 1.260 . S
C251 O258 1.240 . S
C251 O259 1.252 . S
C252 O255 1.252 . S
C252 O256 1.260 . S
O253 In247 2.266 . S
O253 C250 1.252 . S
O254 In247 2.326 . S
O254 C250 1.260 . S
O255 In247 2.266 . S
O255 C252 1.252 . S
O256 In247 2.326 . S
O256 C252 1.260 . S
C257 O248 1.240 . S
C257 O249 1.252 . S
O258 In247 2.294 . S
O258 C251 1.240 . S
O259 In247 2.326 . S
O259 C251 1.252 . S
In260 O261 2.294 . S
In260 O262 2.326 . S
In260 O266 2.266 . S
In260 O267 2.326 . S
In260 O268 2.266 . S
In260 O269 2.326 . S
In260 O271 2.294 . S
In260 O272 2.326 . S
O261 In260 2.294 . S
O261 C270 1.240 . S
O262 In260 2.326 . S
O262 C270 1.252 . S
C263 O266 1.252 . S
C263 O267 1.260 . S
C264 O271 1.240 . S
C264 O272 1.252 . S
C265 O268 1.252 . S
C265 O269 1.260 . S
O266 In260 2.266 . S
O266 C263 1.252 . S
O267 In260 2.326 . S
O267 C263 1.260 . S
O268 In260 2.266 . S
O268 C265 1.252 . S
O269 In260 2.326 . S
O269 C265 1.260 . S
C270 O261 1.240 . S
C270 O262 1.252 . S
O271 In260 2.294 . S
O271 C264 1.240 . S
O272 In260 2.326 . S
O272 C264 1.252 . S
In273 O274 2.294 . S
In273 O275 2.326 . S
In273 O279 2.266 . S
In273 O280 2.326 . S
In273 O281 2.266 . S
In273 O282 2.326 . S
In273 O284 2.294 . S
In273 O285 2.326 . S
O274 In273 2.294 . S
O274 C283 1.240 . S
O275 In273 2.326 . S
O275 C283 1.252 . S
C276 O279 1.252 . S
C276 O280 1.260 . S
C277 O284 1.240 . S
C277 O285 1.252 . S
C278 O281 1.252 . S
C278 O282 1.260 . S
O279 In273 2.266 . S
O279 C276 1.252 . S
O280 In273 2.326 . S
O280 C276 1.260 . S
O281 In273 2.266 . S
O281 C278 1.252 . S
O282 In273 2.326 . S
O282 C278 1.260 . S
C283 O274 1.240 . S
C283 O275 1.252 . S
O284 In273 2.294 . S
O284 C277 1.240 . S
O285 In273 2.326 . S
O285 C277 1.252 . S
In286 O287 2.294 . S
In286 O288 2.326 . S
In286 O292 2.266 . S
In286 O293 2.326 . S
In286 O294 2.266 . S
In286 O295 2.326 . S
In286 O297 2.294 . S
In286 O298 2.326 . S
O287 In286 2.294 . S
O287 C296 1.240 . S
O288 In286 2.326 . S
O288 C296 1.252 . S
C289 O292 1.252 . S
C289 O293 1.260 . S
C290 O297 1.240 . S
C290 O298 1.252 . S
C291 O294 1.252 . S
C291 O295 1.260 . S
O292 In286 2.266 . S
O292 C289 1.252 . S
O293 In286 2.326 . S
O293 C289 1.260 . S
O294 In286 2.266 . S
O294 C291 1.252 . S
O295 In286 2.326 . S
O295 C291 1.260 . S
C296 O287 1.240 . S
C296 O288 1.252 . S
O297 In286 2.294 . S
O297 C290 1.240 . S
O298 In286 2.326 . S
O298 C290 1.252 . S
In299 O300 2.294 . S
In299 O301 2.326 . S
In299 O305 2.266 . S
In299 O306 2.326 . S
In299 O307 2.266 . S
In299 O308 2.326 . S
In299 O310 2.294 . S
In299 O311 2.326 . S
O300 In299 2.294 . S
O300 C309 1.240 . S
O301 In299 2.326 . S
O301 C309 1.252 . S
C302 O305 1.252 . S
C302 O306 1.260 . S
C303 O310 1.240 . S
C303 O311 1.252 . S
C304 O307 1.252 . S
C304 O308 1.260 . S
O305 In299 2.266 . S
O305 C302 1.252 . S
O306 In299 2.326 . S
O306 C302 1.260 . S
O307 In299 2.266 . S
O307 C304 1.252 . S
O308 In299 2.326 . S
O308 C304 1.260 . S
C309 O300 1.240 . S
C309 O301 1.252 . S
O310 In299 2.294 . S
O310 C303 1.240 . S
O311 In299 2.326 . S
O311 C303 1.252 . S
H312 C320 0.950 . S
H313 C325 0.950 . S
H314 C322 0.950 . S
H315 C324 0.950 . S
H316 C326 0.950 . S
H317 C328 0.950 . S
H318 C330 0.950 . S
H319 C331 0.950 . S
C320 H312 0.950 . S
C320 C321 1.386 . S
C320 C322 1.391 . S
C321 C320 1.386 . S
C321 C325 1.393 . S
C322 H314 0.950 . S
C322 C320 1.391 . S
C322 C323 1.400 . S
C323 C322 1.400 . S
C323 C324 1.398 . S
C323 C329 1.491 . S
C324 H315 0.950 . S
C324 C323 1.398 . S
C324 C325 1.391 . S
C325 H313 0.950 . S
C325 C321 1.393 . S
C325 C324 1.391 . S
C326 H316 0.950 . S
C326 C327 1.386 . S
C326 C328 1.391 . S
C327 C326 1.386 . S
C327 C331 1.393 . S
C328 H317 0.950 . S
C328 C326 1.391 . S
C328 C329 1.400 . S
C329 C323 1.491 . S
C329 C328 1.400 . S
C329 C330 1.398 . S
C330 H318 0.950 . S
C330 C329 1.398 . S
C330 C331 1.391 . S
C331 H319 0.950 . S
C331 C327 1.393 . S
C331 C330 1.391 . S
H332 C340 0.950 . S
H333 C345 0.950 . S
H334 C342 0.950 . S
H335 C344 0.950 . S
H336 C346 0.950 . S
H337 C348 0.950 . S
H338 C350 0.950 . S
H339 C351 0.950 . S
C340 H332 0.950 . S
C340 C341 1.386 . S
C340 C342 1.391 1_655 S
C341 C340 1.386 . S
C341 C345 1.393 . S
C342 H334 0.950 . S
C342 C340 1.391 1_455 S
C342 C343 1.400 . S
C343 C342 1.400 . S
C343 C344 1.398 . S
C343 C349 1.491 . S
C344 H335 0.950 . S
C344 C343 1.398 . S
C344 C345 1.391 1_455 S
C345 H333 0.950 . S
C345 C341 1.393 . S
C345 C344 1.391 1_655 S
C346 H336 0.950 . S
C346 C347 1.386 . S
C346 C348 1.391 . S
C347 C346 1.386 . S
C347 C351 1.393 . S
C348 H337 0.950 . S
C348 C346 1.391 . S
C348 C349 1.400 . S
C349 C343 1.491 . S
C349 C348 1.400 . S
C349 C350 1.398 . S
C350 H338 0.950 . S
C350 C349 1.398 . S
C350 C351 1.391 . S
C351 H339 0.950 . S
C351 C347 1.393 . S
C351 C350 1.391 . S
H352 C360 0.950 . S
H353 C365 0.950 . S
H354 C362 0.950 . S
H355 C364 0.950 . S
H356 C366 0.950 . S
H357 C368 0.950 . S
H358 C370 0.950 . S
H359 C371 0.950 . S
C360 H352 0.950 . S
C360 C361 1.386 . S
C360 C362 1.391 . S
C361 C360 1.386 . S
C361 C365 1.393 . S
C362 H354 0.950 . S
C362 C360 1.391 . S
C362 C363 1.400 . S
C363 C362 1.400 . S
C363 C364 1.398 . S
C363 C369 1.491 . S
C364 H355 0.950 . S
C364 C363 1.398 . S
C364 C365 1.391 . S
C365 H353 0.950 . S
C365 C361 1.393 . S
C365 C364 1.391 . S
C366 H356 0.950 . S
C366 C367 1.386 1_556 S
C366 C368 1.391 . S
C367 C366 1.386 1_554 S
C367 C371 1.393 . S
C368 H357 0.950 . S
C368 C366 1.391 . S
C368 C369 1.400 . S
C369 C363 1.491 . S
C369 C368 1.400 . S
C369 C370 1.398 1_556 S
C370 H358 0.950 . S
C370 C369 1.398 1_554 S
C370 C371 1.391 . S
C371 H359 0.950 . S
C371 C367 1.393 . S
C371 C370 1.391 . S
H372 C380 0.950 . S
H373 C385 0.950 . S
H374 C382 0.950 . S
H375 C384 0.950 . S
H376 C386 0.950 . S
H377 C388 0.950 . S
H378 C390 0.950 . S
H379 C391 0.950 . S
C380 H372 0.950 . S
C380 C381 1.386 . S
C380 C382 1.391 . S
C381 C380 1.386 . S
C381 C385 1.393 . S
C382 H374 0.950 . S
C382 C380 1.391 . S
C382 C383 1.400 . S
C383 C382 1.400 . S
C383 C384 1.398 . S
C383 C389 1.491 . S
C384 H375 0.950 . S
C384 C383 1.398 . S
C384 C385 1.391 . S
C385 H373 0.950 . S
C385 C381 1.393 . S
C385 C384 1.391 . S
C386 H376 0.950 . S
C386 C387 1.386 . S
C386 C388 1.391 . S
C387 C386 1.386 . S
C387 C391 1.393 . S
C388 H377 0.950 . S
C388 C386 1.391 . S
C388 C389 1.400 . S
C389 C383 1.491 . S
C389 C388 1.400 . S
C389 C390 1.398 . S
C390 H378 0.950 . S
C390 C389 1.398 . S
C390 C391 1.391 . S
C391 H379 0.950 . S
C391 C387 1.393 . S
C391 C390 1.391 . S
H392 C400 0.950 . S
H393 C405 0.950 . S
H394 C402 0.950 . S
H395 C404 0.950 . S
H396 C406 0.950 . S
H397 C408 0.950 . S
H398 C410 0.950 . S
H399 C411 0.950 . S
C400 H392 0.950 . S
C400 C401 1.386 . S
C400 C402 1.391 . S
C401 C400 1.386 . S
C401 C405 1.393 . S
C402 H394 0.950 . S
C402 C400 1.391 . S
C402 C403 1.400 . S
C403 C402 1.400 . S
C403 C404 1.398 . S
C403 C409 1.491 . S
C404 H395 0.950 . S
C404 C403 1.398 . S
C404 C405 1.391 . S
C405 H393 0.950 . S
C405 C401 1.393 . S
C405 C404 1.391 . S
C406 H396 0.950 . S
C406 C407 1.386 . S
C406 C408 1.391 . S
C407 C406 1.386 . S
C407 C411 1.393 . S
C408 H397 0.950 . S
C408 C406 1.391 . S
C408 C409 1.400 . S
C409 C403 1.491 . S
C409 C408 1.400 . S
C409 C410 1.398 . S
C410 H398 0.950 . S
C410 C409 1.398 . S
C410 C411 1.391 . S
C411 H399 0.950 . S
C411 C407 1.393 . S
C411 C410 1.391 . S
H412 C420 0.950 . S
H413 C425 0.950 . S
H414 C422 0.950 . S
H415 C424 0.950 . S
H416 C426 0.950 . S
H417 C428 0.950 . S
H418 C430 0.950 . S
H419 C431 0.950 . S
C420 H412 0.950 . S
C420 C421 1.386 . S
C420 C422 1.391 . S
C421 C420 1.386 . S
C421 C425 1.393 . S
C422 H414 0.950 . S
C422 C420 1.391 . S
C422 C423 1.400 . S
C423 C422 1.400 . S
C423 C424 1.398 . S
C423 C429 1.491 . S
C424 H415 0.950 . S
C424 C423 1.398 . S
C424 C425 1.391 . S
C425 H413 0.950 . S
C425 C421 1.393 . S
C425 C424 1.391 . S
C426 H416 0.950 . S
C426 C427 1.386 . S
C426 C428 1.391 1_455 S
C427 C426 1.386 . S
C427 C431 1.393 . S
C428 H417 0.950 . S
C428 C426 1.391 1_655 S
C428 C429 1.400 . S
C429 C423 1.491 . S
C429 C428 1.400 . S
C429 C430 1.398 . S
C430 H418 0.950 . S
C430 C429 1.398 . S
C430 C431 1.391 1_655 S
C431 H419 0.950 . S
C431 C427 1.393 . S
C431 C430 1.391 1_455 S
H432 C440 0.950 . S
H433 C445 0.950 . S
H434 C442 0.950 . S
H435 C444 0.950 . S
H436 C446 0.947 1_554 S
H437 C448 0.950 . S
H438 C450 0.950 . S
H439 C451 0.950 . S
C440 H432 0.950 . S
C440 C441 1.386 . S
C440 C442 1.391 . S
C441 C440 1.386 . S
C441 C445 1.393 . S
C442 H434 0.950 . S
C442 C440 1.391 . S
C442 C443 1.400 . S
C443 C442 1.400 . S
C443 C444 1.398 . S
C443 C449 1.491 . S
C444 H435 0.950 . S
C444 C443 1.398 . S
C444 C445 1.391 . S
C445 H433 0.950 . S
C445 C441 1.393 . S
C445 C444 1.391 . S
C446 H436 0.947 1_556 S
C446 C447 1.397 . S
C446 C448 1.382 1_556 S
C447 C446 1.397 . S
C447 C451 1.393 . S
C448 H437 0.950 . S
C448 C446 1.382 1_554 S
C448 C449 1.400 . S
C449 C443 1.491 . S
C449 C448 1.400 . S
C449 C450 1.398 1_554 S
C450 H438 0.950 . S
C450 C449 1.398 1_556 S
C450 C451 1.391 . S
C451 H439 0.950 . S
C451 C447 1.393 . S
C451 C450 1.391 . S
H452 C460 0.950 . S
H453 C465 0.950 . S
H454 C462 0.950 . S
H455 C464 0.950 . S
H456 C466 0.950 . S
H457 C468 0.950 . S
H458 C470 0.950 . S
H459 C471 0.950 . S
C460 H452 0.950 . S
C460 C461 1.386 . S
C460 C462 1.391 . S
C461 C460 1.386 . S
C461 C465 1.393 . S
C462 H454 0.950 . S
C462 C460 1.391 . S
C462 C463 1.400 . S
C463 C462 1.400 . S
C463 C464 1.398 . S
C463 C469 1.491 . S
C464 H455 0.950 . S
C464 C463 1.398 . S
C464 C465 1.391 . S
C465 H453 0.950 . S
C465 C461 1.393 . S
C465 C464 1.391 . S
C466 H456 0.950 . S
C466 C467 1.386 . S
C466 C468 1.391 . S
C467 C466 1.386 . S
C467 C471 1.393 . S
C468 H457 0.950 . S
C468 C466 1.391 . S
C468 C469 1.400 . S
C469 C463 1.491 . S
C469 C468 1.400 . S
C469 C470 1.398 . S
C470 H458 0.950 . S
C470 C469 1.398 . S
C470 C471 1.391 . S
C471 H459 0.950 . S
C471 C467 1.393 . S
C471 C470 1.391 . S
H472 C480 0.950 . S
H473 C485 0.950 . S
H474 C482 0.950 . S
H475 C484 0.950 . S
H476 C486 0.950 . S
H477 C488 0.950 . S
H478 C490 0.950 . S
H479 C491 0.950 . S
C480 H472 0.950 . S
C480 C481 1.386 . S
C480 C482 1.391 . S
C481 C480 1.386 . S
C481 C485 1.393 . S
C482 H474 0.950 . S
C482 C480 1.391 . S
C482 C483 1.400 . S
C483 C482 1.400 . S
C483 C484 1.398 . S
C483 C489 1.491 . S
C484 H475 0.950 . S
C484 C483 1.398 . S
C484 C485 1.391 . S
C485 H473 0.950 . S
C485 C481 1.393 . S
C485 C484 1.391 . S
C486 H476 0.950 . S
C486 C487 1.386 . S
C486 C488 1.391 . S
C487 C486 1.386 . S
C487 C491 1.393 . S
C488 H477 0.950 . S
C488 C486 1.391 . S
C488 C489 1.400 . S
C489 C483 1.491 . S
C489 C488 1.400 . S
C489 C490 1.398 . S
C490 H478 0.950 . S
C490 C489 1.398 . S
C490 C491 1.391 . S
C491 H479 0.950 . S
C491 C487 1.393 . S
C491 C490 1.391 . S
H492 C500 0.950 . S
H493 C505 0.951 . S
H494 C502 0.950 . S
H495 C504 0.950 . S
H496 C506 0.950 . S
H497 C508 0.950 . S
H498 C510 0.950 . S
H499 C511 0.950 . S
C500 H492 0.950 . S
C500 C501 1.386 . S
C500 C502 1.391 . S
C501 C500 1.386 . S
C501 C505 1.393 . S
C502 H494 0.950 . S
C502 C500 1.391 . S
C502 C503 1.400 1_565 S
C503 C502 1.400 1_545 S
C503 C504 1.398 . S
C503 C509 1.491 . S
C504 H495 0.950 . S
C504 C503 1.398 . S
C504 C505 1.391 1_545 S
C505 H493 0.951 . S
C505 C501 1.393 . S
C505 C504 1.391 1_565 S
C506 H496 0.950 . S
C506 C507 1.386 . S
C506 C508 1.391 . S
C507 C506 1.386 . S
C507 C511 1.393 . S
C508 H497 0.950 . S
C508 C506 1.391 . S
C508 C509 1.400 . S
C509 C503 1.491 . S
C509 C508 1.400 . S
C509 C510 1.398 . S
C510 H498 0.950 . S
C510 C509 1.398 . S
C510 C511 1.391 . S
C511 H499 0.950 . S
C511 C507 1.393 . S
C511 C510 1.391 . S
H512 C520 0.950 . S
H513 C525 0.950 . S
H514 C522 0.950 . S
H515 C524 0.950 . S
H516 C526 0.950 . S
H517 C528 0.950 . S
H518 C530 0.950 . S
H519 C531 0.950 . S
C520 H512 0.950 . S
C520 C521 1.386 . S
C520 C522 1.391 . S
C521 C520 1.386 . S
C521 C525 1.393 . S
C522 H514 0.950 . S
C522 C520 1.391 . S
C522 C523 1.400 . S
C523 C522 1.400 . S
C523 C524 1.398 . S
C523 C529 1.491 . S
C524 H515 0.950 . S
C524 C523 1.398 . S
C524 C525 1.391 . S
C525 H513 0.950 . S
C525 C521 1.393 . S
C525 C524 1.391 . S
C526 H516 0.950 . S
C526 C527 1.386 . S
C526 C528 1.391 1_545 S
C527 C526 1.386 . S
C527 C531 1.393 . S
C528 H517 0.950 . S
C528 C526 1.391 1_565 S
C528 C529 1.400 . S
C529 C523 1.491 . S
C529 C528 1.400 . S
C529 C530 1.398 . S
C530 H518 0.950 . S
C530 C529 1.398 . S
C530 C531 1.391 1_565 S
C531 H519 0.950 . S
C531 C527 1.393 . S
C531 C530 1.391 1_545 S
H532 C540 0.950 . S
H533 C545 0.950 . S
H534 C542 0.950 . S
H535 C544 0.950 . S
H536 C546 0.950 . S
H537 C548 0.950 . S
H538 C550 0.950 . S
H539 C551 0.950 . S
C540 H532 0.950 . S
C540 C541 1.386 . S
C540 C542 1.391 . S
C541 C540 1.386 . S
C541 C545 1.393 . S
C542 H534 0.950 . S
C542 C540 1.391 . S
C542 C543 1.400 . S
C543 C542 1.400 . S
C543 C544 1.398 . S
C543 C549 1.491 . S
C544 H535 0.950 . S
C544 C543 1.398 . S
C544 C545 1.391 . S
C545 H533 0.950 . S
C545 C541 1.393 . S
C545 C544 1.391 . S
C546 H536 0.950 . S
C546 C547 1.386 . S
C546 C548 1.391 . S
C547 C546 1.386 . S
C547 C551 1.393 . S
C548 H537 0.950 . S
C548 C546 1.391 . S
C548 C549 1.400 . S
C549 C543 1.491 . S
C549 C548 1.400 . S
C549 C550 1.398 . S
C550 H538 0.950 . S
C550 C549 1.398 . S
C550 C551 1.391 . S
C551 H539 0.950 . S
C551 C547 1.393 . S
C551 C550 1.391 . S
H552 C560 0.950 . S
H553 C565 0.950 . S
H554 C562 0.950 . S
H555 C564 0.950 . S
H556 C566 0.950 . S
H557 C568 0.950 . S
H558 C570 0.950 . S
H559 C571 0.950 . S
C560 H552 0.950 . S
C560 C561 1.386 . S
C560 C562 1.391 . S
C561 C560 1.386 . S
C561 C565 1.393 . S
C562 H554 0.950 . S
C562 C560 1.391 . S
C562 C563 1.400 . S
C563 C562 1.400 . S
C563 C564 1.398 . S
C563 C569 1.491 . S
C564 H555 0.950 . S
C564 C563 1.398 . S
C564 C565 1.391 . S
C565 H553 0.950 . S
C565 C561 1.393 . S
C565 C564 1.391 . S
C566 H556 0.950 . S
C566 C567 1.386 . S
C566 C568 1.391 . S
C567 C566 1.386 . S
C567 C571 1.393 . S
C568 H557 0.950 . S
C568 C566 1.391 . S
C568 C569 1.400 . S
C569 C563 1.491 . S
C569 C568 1.400 . S
C569 C570 1.398 . S
C570 H558 0.950 . S
C570 C569 1.398 . S
C570 C571 1.391 . S
C571 H559 0.950 . S
C571 C567 1.393 . S
C571 C570 1.391 . S
H572 C580 0.950 . S
H573 C585 0.950 . S
H574 C582 0.950 . S
H575 C584 0.950 1_545 S
H576 C586 0.950 . S
H577 C588 0.950 . S
H578 C590 0.950 1_565 S
H579 C591 0.950 . S
C580 H572 0.950 . S
C580 C581 1.386 . S
C580 C582 1.391 . S
C581 C580 1.386 . S
C581 C585 1.393 . S
C582 H574 0.950 . S
C582 C580 1.391 . S
C582 C583 1.400 . S
C583 C582 1.400 . S
C583 C584 1.398 . S
C583 C589 1.491 1_565 S
C584 H575 0.950 1_565 S
C584 C583 1.398 . S
C584 C585 1.391 . S
C585 H573 0.950 . S
C585 C581 1.393 . S
C585 C584 1.391 . S
C586 H576 0.950 . S
C586 C587 1.386 . S
C586 C588 1.391 . S
C587 C586 1.386 . S
C587 C591 1.393 . S
C588 H577 0.950 . S
C588 C586 1.391 . S
C588 C589 1.400 . S
C589 C583 1.491 1_545 S
C589 C588 1.400 . S
C589 C590 1.398 . S
C590 H578 0.950 1_545 S
C590 C589 1.398 . S
C590 C591 1.391 . S
C591 H579 0.950 . S
C591 C587 1.393 . S
C591 C590 1.391 . S
H592 C600 0.950 . S
H593 C605 0.950 . S
H594 C602 0.950 1_554 S
H595 C604 0.950 . S
H596 C606 0.950 . S
H597 C608 0.950 . S
H598 C610 0.950 . S
H599 C611 0.950 . S
C600 H592 0.950 . S
C600 C601 1.386 . S
C600 C602 1.391 . S
C601 C600 1.386 . S
C601 C605 1.393 . S
C602 H594 0.950 1_556 S
C602 C600 1.391 . S
C602 C603 1.400 . S
C603 C602 1.400 . S
C603 C604 1.398 . S
C603 C609 1.491 1_556 S
C604 H595 0.950 . S
C604 C603 1.398 . S
C604 C605 1.391 . S
C605 H593 0.950 . S
C605 C601 1.393 . S
C605 C604 1.391 . S
C606 H596 0.950 . S
C606 C607 1.386 . S
C606 C608 1.391 1_554 S
C607 C606 1.386 . S
C607 C611 1.393 . S
C608 H597 0.950 . S
C608 C606 1.391 1_556 S
C608 C609 1.400 1_556 S
C609 C603 1.491 1_554 S
C609 C608 1.400 1_554 S
C609 C610 1.398 . S
C610 H598 0.950 . S
C610 C609 1.398 . S
C610 C611 1.391 . S
C611 H599 0.950 . S
C611 C607 1.393 . S
C611 C610 1.391 . S
H612 C620 0.950 . S
H613 C625 0.950 . S
H614 C622 0.950 . S
H615 C624 0.950 . S
H616 C626 0.950 . S
H617 C628 0.950 . S
H618 C630 0.950 . S
H619 C631 0.950 . S
C620 H612 0.950 . S
C620 C621 1.386 . S
C620 C622 1.391 . S
C621 C620 1.386 . S
C621 C625 1.393 . S
C622 H614 0.950 . S
C622 C620 1.391 . S
C622 C623 1.400 . S
C623 C622 1.400 . S
C623 C624 1.398 . S
C623 C629 1.491 1_545 S
C624 H615 0.950 . S
C624 C623 1.398 . S
C624 C625 1.391 . S
C625 H613 0.950 . S
C625 C621 1.393 . S
C625 C624 1.391 . S
C626 H616 0.950 . S
C626 C627 1.386 . S
C626 C628 1.391 . S
C627 C626 1.386 . S
C627 C631 1.393 . S
C628 H617 0.950 . S
C628 C626 1.391 . S
C628 C629 1.400 . S
C629 C623 1.491 1_565 S
C629 C628 1.400 . S
C629 C630 1.398 . S
C630 H618 0.950 . S
C630 C629 1.398 . S
C630 C631 1.391 . S
C631 H619 0.950 . S
C631 C627 1.393 . S
C631 C630 1.391 . S
H632 C640 0.950 . S
H633 C645 0.950 . S
H634 C642 0.950 . S
H635 C644 0.950 . S
H636 C646 0.950 . S
H637 C648 0.950 . S
H638 C650 0.950 . S
H639 C651 0.950 . S
C640 H632 0.950 . S
C640 C641 1.386 . S
C640 C642 1.391 . S
C641 C640 1.386 . S
C641 C645 1.393 . S
C642 H634 0.950 . S
C642 C640 1.391 . S
C642 C643 1.400 . S
C643 C642 1.400 . S
C643 C644 1.398 . S
C643 C649 1.491 . S
C644 H635 0.950 . S
C644 C643 1.398 . S
C644 C645 1.391 . S
C645 H633 0.950 . S
C645 C641 1.393 . S
C645 C644 1.391 . S
C646 H636 0.950 . S
C646 C647 1.386 . S
C646 C648 1.391 . S
C647 C646 1.386 . S
C647 C651 1.393 . S
C648 H637 0.950 . S
C648 C646 1.391 . S
C648 C649 1.400 . S
C649 C643 1.491 . S
C649 C648 1.400 . S
C649 C650 1.398 . S
C650 H638 0.950 . S
C650 C649 1.398 . S
C650 C651 1.391 . S
C651 H639 0.950 . S
C651 C647 1.393 . S
C651 C650 1.391 . S
H652 C660 0.950 . S
H653 C665 0.950 . S
H654 C662 0.950 . S
H655 C664 0.950 . S
H656 C666 0.950 . S
H657 C668 0.950 . S
H658 C670 0.950 . S
H659 C671 0.950 . S
C660 H652 0.950 . S
C660 C661 1.386 . S
C660 C662 1.391 . S
C661 C660 1.386 . S
C661 C665 1.393 . S
C662 H654 0.950 . S
C662 C660 1.391 . S
C662 C663 1.400 . S
C663 C662 1.400 . S
C663 C664 1.398 . S
C663 C669 1.491 . S
C664 H655 0.950 . S
C664 C663 1.398 . S
C664 C665 1.391 . S
C665 H653 0.950 . S
C665 C661 1.393 . S
C665 C664 1.391 . S
C666 H656 0.950 . S
C666 C667 1.386 . S
C666 C668 1.391 . S
C667 C666 1.386 . S
C667 C671 1.393 . S
C668 H657 0.950 . S
C668 C666 1.391 . S
C668 C669 1.400 . S
C669 C663 1.491 . S
C669 C668 1.400 . S
C669 C670 1.398 . S
C670 H658 0.950 . S
C670 C669 1.398 . S
C670 C671 1.391 . S
C671 H659 0.950 . S
C671 C667 1.393 . S
C671 C670 1.391 . S
H672 C680 0.950 . S
H673 C685 0.950 . S
H674 C682 0.950 1_554 S
H675 C684 0.950 . S
H676 C686 0.950 . S
H677 C688 0.950 1_556 S
H678 C690 0.950 . S
H679 C691 0.950 . S
C680 H672 0.950 . S
C680 C681 1.386 . S
C680 C682 1.391 . S
C681 C680 1.386 . S
C681 C685 1.393 . S
C682 H674 0.950 1_556 S
C682 C680 1.391 . S
C682 C683 1.400 . S
C683 C682 1.400 . S
C683 C684 1.398 . S
C683 C689 1.491 1_556 S
C684 H675 0.950 . S
C684 C683 1.398 . S
C684 C685 1.391 . S
C685 H673 0.950 . S
C685 C681 1.393 . S
C685 C684 1.391 . S
C686 H676 0.950 . S
C686 C687 1.386 . S
C686 C688 1.391 . S
C687 C686 1.386 . S
C687 C691 1.393 . S
C688 H677 0.950 1_554 S
C688 C686 1.391 . S
C688 C689 1.400 . S
C689 C683 1.491 1_554 S
C689 C688 1.400 . S
C689 C690 1.398 . S
C690 H678 0.950 . S
C690 C689 1.398 . S
C690 C691 1.391 . S
C691 H679 0.950 . S
C691 C687 1.393 . S
C691 C690 1.391 . S
H692 C700 0.950 . S
H693 C705 0.950 . S
H694 C702 0.950 . S
H695 C704 0.950 . S
H696 C706 0.950 . S
H697 C708 0.950 . S
H698 C710 0.950 . S
H699 C711 0.950 . S
C700 H692 0.950 . S
C700 C701 1.386 . S
C700 C702 1.391 . S
C701 C700 1.386 . S
C701 C705 1.393 . S
C702 H694 0.950 . S
C702 C700 1.391 . S
C702 C703 1.400 . S
C703 C702 1.400 . S
C703 C704 1.398 . S
C703 C709 1.491 . S
C704 H695 0.950 . S
C704 C703 1.398 . S
C704 C705 1.391 . S
C705 H693 0.950 . S
C705 C701 1.393 . S
C705 C704 1.391 . S
C706 H696 0.950 . S
C706 C707 1.386 . S
C706 C708 1.391 . S
C707 C706 1.386 . S
C707 C711 1.393 . S
C708 H697 0.950 . S
C708 C706 1.391 . S
C708 C709 1.400 . S
C709 C703 1.491 . S
C709 C708 1.400 . S
C709 C710 1.398 . S
C710 H698 0.950 . S
C710 C709 1.398 . S
C710 C711 1.391 . S
C711 H699 0.950 . S
C711 C707 1.393 . S
C711 C710 1.391 . S
H712 C720 0.950 . S
H713 C725 0.950 . S
H714 C722 0.950 . S
H715 C724 0.950 . S
H716 C726 0.950 . S
H717 C728 0.950 . S
H718 C730 0.950 . S
H719 C731 0.950 . S
C720 H712 0.950 . S
C720 C721 1.386 . S
C720 C722 1.391 . S
C721 C720 1.386 . S
C721 C725 1.393 . S
C722 H714 0.950 . S
C722 C720 1.391 . S
C722 C723 1.400 . S
C723 C722 1.400 . S
C723 C724 1.398 . S
C723 C729 1.491 . S
C724 H715 0.950 . S
C724 C723 1.398 . S
C724 C725 1.391 . S
C725 H713 0.950 . S
C725 C721 1.393 . S
C725 C724 1.391 . S
C726 H716 0.950 . S
C726 C727 1.386 . S
C726 C728 1.391 . S
C727 C726 1.386 . S
C727 C731 1.393 . S
C728 H717 0.950 . S
C728 C726 1.391 . S
C728 C729 1.400 . S
C729 C723 1.491 . S
C729 C728 1.400 . S
C729 C730 1.398 . S
C730 H718 0.950 . S
C730 C729 1.398 . S
C730 C731 1.391 . S
C731 H719 0.950 . S
C731 C727 1.393 . S
C731 C730 1.391 . S
H732 C740 0.950 . S
H733 C745 0.950 . S
H734 C742 0.950 1_655 S
H735 C744 0.950 . S
H736 C746 0.950 . S
H737 C748 0.943 1_455 S
H738 C750 0.950 . S
H739 C751 0.950 . S
C740 H732 0.950 . S
C740 C741 1.386 . S
C740 C742 1.391 . S
C741 C740 1.386 . S
C741 C745 1.393 . S
C742 H734 0.950 1_455 S
C742 C740 1.391 . S
C742 C743 1.400 . S
C743 C742 1.400 . S
C743 C744 1.398 . S
C743 C749 1.491 1_455 S
C744 H735 0.950 . S
C744 C743 1.398 . S
C744 C745 1.391 . S
C745 H733 0.950 . S
C745 C741 1.393 . S
C745 C744 1.391 . S
C746 H736 0.950 . S
C746 C747 1.386 . S
C746 C748 1.391 . S
C747 C746 1.386 . S
C747 C751 1.393 . S
C748 H737 0.943 1_655 S
C748 C746 1.391 . S
C748 C749 1.400 . S
C749 C743 1.491 1_655 S
C749 C748 1.400 . S
C749 C750 1.398 . S
C750 H738 0.950 . S
C750 C749 1.398 . S
C750 C751 1.391 . S
C751 H739 0.950 . S
C751 C747 1.393 . S
C751 C750 1.391 . S
H752 C760 0.950 . S
H753 C765 0.950 . S
H754 C762 0.950 . S
H755 C764 0.950 . S
H756 C766 0.950 . S
H757 C768 0.950 1_655 S
H758 C770 0.950 . S
H759 C771 0.950 . S
C760 H752 0.950 . S
C760 C761 1.386 . S
C760 C762 1.391 1_655 S
C761 C760 1.386 . S
C761 C765 1.393 . S
C762 H754 0.950 . S
C762 C760 1.391 1_455 S
C762 C763 1.400 1_455 S
C763 C762 1.400 1_655 S
C763 C764 1.398 . S
C763 C769 1.491 1_655 S
C764 H755 0.950 . S
C764 C763 1.398 . S
C764 C765 1.391 . S
C765 H753 0.950 . S
C765 C761 1.393 . S
C765 C764 1.391 . S
C766 H756 0.950 . S
C766 C767 1.386 . S
C766 C768 1.391 . S
C767 C766 1.386 . S
C767 C771 1.393 . S
C768 H757 0.950 1_455 S
C768 C766 1.391 . S
C768 C769 1.400 . S
C769 C763 1.491 1_455 S
C769 C768 1.400 . S
C769 C770 1.398 . S
C770 H758 0.950 . S
C770 C769 1.398 . S
C770 C771 1.391 . S
C771 H759 0.950 . S
C771 C767 1.393 . S
C771 C770 1.391 . S
H772 C780 0.950 . S
H773 C785 0.950 . S
H774 C782 0.950 . S
H775 C784 0.950 . S
H776 C786 0.950 . S
H777 C788 0.950 . S
H778 C790 0.950 . S
H779 C791 0.950 . S
C780 H772 0.950 . S
C780 C781 1.386 . S
C780 C782 1.391 . S
C781 C780 1.386 . S
C781 C785 1.393 . S
C782 H774 0.950 . S
C782 C780 1.391 . S
C782 C783 1.400 . S
C783 C782 1.400 . S
C783 C784 1.398 . S
C783 C789 1.491 . S
C784 H775 0.950 . S
C784 C783 1.398 . S
C784 C785 1.391 . S
C785 H773 0.950 . S
C785 C781 1.393 . S
C785 C784 1.391 . S
C786 H776 0.950 . S
C786 C787 1.386 . S
C786 C788 1.391 . S
C787 C786 1.386 . S
C787 C791 1.393 . S
C788 H777 0.950 . S
C788 C786 1.391 . S
C788 C789 1.400 . S
C789 C783 1.491 . S
C789 C788 1.400 . S
C789 C790 1.398 . S
C790 H778 0.950 . S
C790 C789 1.398 . S
C790 C791 1.391 . S
C791 H779 0.950 . S
C791 C787 1.393 . S
C791 C790 1.391 . S
H792 C800 0.950 . S
H793 C805 0.950 . S
H794 C802 0.950 . S
H795 C804 0.950 . S
H796 C806 0.950 . S
H797 C808 0.950 . S
H798 C810 0.950 . S
H799 C811 0.950 . S
C800 H792 0.950 . S
C800 C801 1.386 . S
C800 C802 1.391 . S
C801 C800 1.386 . S
C801 C805 1.393 . S
C802 H794 0.950 . S
C802 C800 1.391 . S
C802 C803 1.400 . S
C803 C802 1.400 . S
C803 C804 1.398 . S
C803 C809 1.491 . S
C804 H795 0.950 . S
C804 C803 1.398 . S
C804 C805 1.391 . S
C805 H793 0.950 . S
C805 C801 1.393 . S
C805 C804 1.391 . S
C806 H796 0.950 . S
C806 C807 1.386 . S
C806 C808 1.391 . S
C807 C806 1.386 . S
C807 C811 1.393 . S
C808 H797 0.950 . S
C808 C806 1.391 . S
C808 C809 1.400 . S
C809 C803 1.491 . S
C809 C808 1.400 . S
C809 C810 1.398 . S
C810 H798 0.950 . S
C810 C809 1.398 . S
C810 C811 1.391 . S
C811 H799 0.950 . S
C811 C807 1.393 . S
C811 C810 1.391 . S
H812 C820 0.950 . S
H813 C825 0.950 . S
H814 C822 0.944 1_545 S
H815 C824 0.950 . S
H816 C826 0.950 . S
H817 C828 0.950 . S
H818 C830 0.950 . S
H819 C831 0.950 . S
C820 H812 0.950 . S
C820 C821 1.386 . S
C820 C822 1.376 1_545 S
C821 C820 1.386 . S
C821 C825 1.393 1_545 S
C822 H814 0.944 1_565 S
C822 C820 1.376 1_565 S
C822 C823 1.423 . S
C823 C822 1.423 . S
C823 C824 1.398 . S
C823 C829 1.491 . S
C824 H815 0.950 . S
C824 C823 1.398 . S
C824 C825 1.391 . S
C825 H813 0.950 . S
C825 C821 1.393 1_565 S
C825 C824 1.391 . S
C826 H816 0.950 . S
C826 C827 1.386 . S
C826 C828 1.391 . S
C827 C826 1.386 . S
C827 C831 1.393 . S
C828 H817 0.950 . S
C828 C826 1.391 . S
C828 C829 1.400 . S
C829 C823 1.491 . S
C829 C828 1.400 . S
C829 C830 1.398 . S
C830 H818 0.950 . S
C830 C829 1.398 . S
C830 C831 1.391 . S
C831 H819 0.950 . S
C831 C827 1.393 . S
C831 C830 1.391 . S
H832 C840 0.950 . S
H833 C845 0.950 . S
H834 C842 0.950 . S
H835 C844 0.950 . S
H836 C846 0.950 . S
H837 C848 0.950 . S
H838 C850 0.950 . S
H839 C851 0.950 . S
C840 H832 0.950 . S
C840 C841 1.386 . S
C840 C842 1.391 . S
C841 C840 1.386 . S
C841 C845 1.393 . S
C842 H834 0.950 . S
C842 C840 1.391 . S
C842 C843 1.400 . S
C843 C842 1.400 . S
C843 C844 1.398 . S
C843 C849 1.491 . S
C844 H835 0.950 . S
C844 C843 1.398 . S
C844 C845 1.391 . S
C845 H833 0.950 . S
C845 C841 1.393 . S
C845 C844 1.391 . S
C846 H836 0.950 . S
C846 C847 1.386 . S
C846 C848 1.391 . S
C847 C846 1.386 . S
C847 C851 1.393 . S
C848 H837 0.950 . S
C848 C846 1.391 . S
C848 C849 1.400 . S
C849 C843 1.491 . S
C849 C848 1.400 . S
C849 C850 1.398 . S
C850 H838 0.950 . S
C850 C849 1.398 . S
C850 C851 1.391 . S
C851 H839 0.950 . S
C851 C847 1.393 . S
C851 C850 1.391 . S
H852 C860 0.950 . S
H853 C865 0.950 . S
H854 C862 0.950 . S
H855 C864 0.950 . S
H856 C866 0.950 . S
H857 C868 0.950 . S
H858 C870 0.950 . S
H859 C871 0.950 . S
C860 H852 0.950 . S
C860 C861 1.386 . S
C860 C862 1.391 . S
C861 C860 1.386 . S
C861 C865 1.393 . S
C862 H854 0.950 . S
C862 C860 1.391 . S
C862 C863 1.400 . S
C863 C862 1.400 . S
C863 C864 1.398 . S
C863 C869 1.491 . S
C864 H855 0.950 . S
C864 C863 1.398 . S
C864 C865 1.391 . S
C865 H853 0.950 . S
C865 C861 1.393 . S
C865 C864 1.391 . S
C866 H856 0.950 . S
C866 C867 1.386 1_554 S
C866 C868 1.391 . S
C867 C866 1.386 1_556 S
C867 C871 1.393 1_565 S
C868 H857 0.950 . S
C868 C866 1.391 . S
C868 C869 1.400 1_565 S
C869 C863 1.491 . S
C869 C868 1.400 1_545 S
C869 C870 1.398 . S
C870 H858 0.950 . S
C870 C869 1.398 . S
C870 C871 1.391 1_554 S
C871 H859 0.950 . S
C871 C867 1.393 1_545 S
C871 C870 1.391 1_556 S
H872 C880 0.950 . S
H873 C885 0.950 . S
H874 C882 0.950 . S
H875 C884 0.950 . S
H876 C886 0.950 . S
H877 C888 0.950 . S
H878 C890 0.950 . S
H879 C891 0.950 . S
C880 H872 0.950 . S
C880 C881 1.386 . S
C880 C882 1.391 . S
C881 C880 1.386 . S
C881 C885 1.393 . S
C882 H874 0.950 . S
C882 C880 1.391 . S
C882 C883 1.400 . S
C883 C882 1.400 . S
C883 C884 1.398 . S
C883 C889 1.491 . S
C884 H875 0.950 . S
C884 C883 1.398 . S
C884 C885 1.391 . S
C885 H873 0.950 . S
C885 C881 1.393 . S
C885 C884 1.391 . S
C886 H876 0.950 . S
C886 C887 1.386 . S
C886 C888 1.391 . S
C887 C886 1.386 . S
C887 C891 1.393 . S
C888 H877 0.950 . S
C888 C886 1.391 . S
C888 C889 1.400 . S
C889 C883 1.491 . S
C889 C888 1.400 . S
C889 C890 1.398 . S
C890 H878 0.950 . S
C890 C889 1.398 . S
C890 C891 1.391 . S
C891 H879 0.950 . S
C891 C887 1.393 . S
C891 C890 1.391 . S
H892 C900 0.950 . S
H893 C905 0.950 . S
H894 C902 0.950 . S
H895 C904 0.950 . S
H896 C906 0.950 . S
H897 C908 0.950 . S
H898 C910 0.950 . S
H899 C911 0.950 . S
C900 H892 0.950 . S
C900 C901 1.386 . S
C900 C902 1.391 1_554 S
C901 C900 1.386 . S
C901 C905 1.393 1_554 S
C902 H894 0.950 . S
C902 C900 1.391 1_556 S
C902 C903 1.400 . S
C903 C902 1.400 . S
C903 C904 1.398 . S
C903 C909 1.491 . S
C904 H895 0.950 . S
C904 C903 1.398 . S
C904 C905 1.391 . S
C905 H893 0.950 . S
C905 C901 1.393 1_556 S
C905 C904 1.391 . S
C906 H896 0.950 . S
C906 C907 1.386 . S
C906 C908 1.391 . S
C907 C906 1.386 . S
C907 C911 1.393 . S
C908 H897 0.950 . S
C908 C906 1.391 . S
C908 C909 1.400 . S
C909 C903 1.491 . S
C909 C908 1.400 . S
C909 C910 1.398 . S
C910 H898 0.950 . S
C910 C909 1.398 . S
C910 C911 1.391 . S
C911 H899 0.950 . S
C911 C907 1.393 . S
C911 C910 1.391 . S
H912 C920 0.950 . S
H913 C925 0.950 . S
H914 C922 0.950 . S
H915 C924 0.950 . S
H916 C926 0.950 . S
H917 C928 0.950 . S
H918 C930 0.950 . S
H919 C931 0.950 . S
C920 H912 0.950 . S
C920 C921 1.386 . S
C920 C922 1.391 . S
C921 C920 1.386 . S
C921 C925 1.393 . S
C922 H914 0.950 . S
C922 C920 1.391 . S
C922 C923 1.400 . S
C923 C922 1.400 . S
C923 C924 1.398 . S
C923 C929 1.491 . S
C924 H915 0.950 . S
C924 C923 1.398 . S
C924 C925 1.391 . S
C925 H913 0.950 . S
C925 C921 1.393 . S
C925 C924 1.391 . S
C926 H916 0.950 . S
C926 C927 1.386 . S
C926 C928 1.391 . S
C927 C926 1.386 . S
C927 C931 1.393 . S
C928 H917 0.950 . S
C928 C926 1.391 . S
C928 C929 1.400 . S
C929 C923 1.491 . S
C929 C928 1.400 . S
C929 C930 1.398 . S
C930 H918 0.950 . S
C930 C929 1.398 . S
C930 C931 1.391 . S
C931 H919 0.950 . S
C931 C927 1.393 . S
C931 C930 1.391 . S
H932 C940 0.950 . S
H933 C945 0.950 . S
H934 C942 0.950 . S
H935 C944 0.950 . S
H936 C946 0.950 . S
H937 C948 0.950 . S
H938 C950 0.950 . S
H939 C951 0.950 . S
C940 H932 0.950 . S
C940 C941 1.386 . S
C940 C942 1.391 . S
C941 C940 1.386 . S
C941 C945 1.393 . S
C942 H934 0.950 . S
C942 C940 1.391 . S
C942 C943 1.400 . S
C943 C942 1.400 . S
C943 C944 1.398 . S
C943 C949 1.491 . S
C944 H935 0.950 . S
C944 C943 1.398 . S
C944 C945 1.391 . S
C945 H933 0.950 . S
C945 C941 1.393 . S
C945 C944 1.391 . S
C946 H936 0.950 . S
C946 C947 1.386 . S
C946 C948 1.391 . S
C947 C946 1.386 . S
C947 C951 1.393 . S
C948 H937 0.950 . S
C948 C946 1.391 . S
C948 C949 1.400 . S
C949 C943 1.491 . S
C949 C948 1.400 . S
C949 C950 1.398 . S
C950 H938 0.950 . S
C950 C949 1.398 . S
C950 C951 1.391 . S
C951 H939 0.950 . S
C951 C947 1.393 . S
C951 C950 1.391 . S
H952 C960 0.950 . S
H953 C965 0.950 . S
H954 C962 0.950 . S
H955 C964 0.950 . S
H956 C966 0.950 . S
H957 C968 0.950 . S
H958 C970 0.950 . S
H959 C971 0.950 . S
C960 H952 0.950 . S
C960 C961 1.386 . S
C960 C962 1.391 . S
C961 C960 1.386 . S
C961 C965 1.393 . S
C962 H954 0.950 . S
C962 C960 1.391 . S
C962 C963 1.400 . S
C963 C962 1.400 . S
C963 C964 1.398 . S
C963 C969 1.491 . S
C964 H955 0.950 . S
C964 C963 1.398 . S
C964 C965 1.391 . S
C965 H953 0.950 . S
C965 C961 1.393 . S
C965 C964 1.391 . S
C966 H956 0.950 . S
C966 C967 1.386 . S
C966 C968 1.391 . S
C967 C966 1.386 . S
C967 C971 1.393 . S
C968 H957 0.950 . S
C968 C966 1.391 . S
C968 C969 1.400 . S
C969 C963 1.491 . S
C969 C968 1.400 . S
C969 C970 1.398 . S
C970 H958 0.950 . S
C970 C969 1.398 . S
C970 C971 1.391 . S
C971 H959 0.950 . S
C971 C967 1.393 . S
C971 C970 1.391 . S
H972 C980 0.950 . S
H973 C985 0.950 . S
H974 C982 0.950 . S
H975 C984 0.950 . S
H976 C986 0.950 . S
H977 C988 0.950 . S
H978 C990 0.950 . S
H979 C991 0.950 . S
C980 H972 0.950 . S
C980 C981 1.386 1_545 S
C980 C982 1.391 . S
C981 C980 1.386 1_565 S
C981 C985 1.393 1_655 S
C982 H974 0.950 . S
C982 C980 1.391 . S
C982 C983 1.400 1_655 S
C983 C982 1.400 1_455 S
C983 C984 1.398 . S
C983 C989 1.491 . S
C984 H975 0.950 . S
C984 C983 1.398 . S
C984 C985 1.391 1_545 S
C985 H973 0.950 . S
C985 C981 1.393 1_455 S
C985 C984 1.391 1_565 S
C986 H976 0.950 . S
C986 C987 1.386 . S
C986 C988 1.391 . S
C987 C986 1.386 . S
C987 C991 1.393 . S
C988 H977 0.950 . S
C988 C986 1.391 . S
C988 C989 1.400 . S
C989 C983 1.491 . S
C989 C988 1.400 . S
C989 C990 1.398 . S
C990 H978 0.950 . S
C990 C989 1.398 . S
C990 C991 1.391 . S
C991 H979 0.950 . S
C991 C987 1.393 . S
C991 C990 1.391 . S
H992 C1000 0.950 . S
H993 C1005 0.950 . S
H994 C1002 0.950 . S
H995 C1004 0.950 . S
H996 C1006 0.950 . S
H997 C1008 0.950 . S
H998 C1010 0.950 . S
H999 C1011 0.950 . S
C1000 H992 0.950 . S
C1000 C1001 1.386 . S
C1000 C1002 1.391 . S
C1001 C1000 1.386 . S
C1001 C1005 1.393 . S
C1002 H994 0.950 . S
C1002 C1000 1.391 . S
C1002 C1003 1.400 . S
C1003 C1002 1.400 . S
C1003 C1004 1.398 . S
C1003 C1009 1.491 . S
C1004 H995 0.950 . S
C1004 C1003 1.398 . S
C1004 C1005 1.391 . S
C1005 H993 0.950 . S
C1005 C1001 1.393 . S
C1005 C1004 1.391 . S
C1006 H996 0.950 . S
C1006 C1007 1.386 . S
C1006 C1008 1.391 . S
C1007 C1006 1.386 . S
C1007 C1011 1.393 . S
C1008 H997 0.950 . S
C1008 C1006 1.391 . S
C1008 C1009 1.400 . S
C1009 C1003 1.491 . S
C1009 C1008 1.400 . S
C1009 C1010 1.398 . S
C1010 H998 0.950 . S
C1010 C1009 1.398 . S
C1010 C1011 1.391 . S
C1011 H999 0.950 . S
C1011 C1007 1.393 . S
C1011 C1010 1.391 . S
H1012 C1020 0.950 . S
H1013 C1025 0.950 . S
H1014 C1022 0.950 . S
H1015 C1024 0.950 . S
H1016 C1026 0.950 . S
H1017 C1028 0.950 . S
H1018 C1030 0.950 . S
H1019 C1031 0.950 . S
C1020 H1012 0.950 . S
C1020 C1021 1.386 1_565 S
C1020 C1022 1.391 . S
C1021 C1020 1.386 1_545 S
C1021 C1025 1.393 . S
C1022 H1014 0.950 . S
C1022 C1020 1.391 . S
C1022 C1023 1.400 . S
C1023 C1022 1.400 . S
C1023 C1024 1.398 . S
C1023 C1029 1.491 . S
C1024 H1015 0.950 . S
C1024 C1023 1.398 . S
C1024 C1025 1.391 1_565 S
C1025 H1013 0.950 . S
C1025 C1021 1.393 . S
C1025 C1024 1.391 1_545 S
C1026 H1016 0.950 . S
C1026 C1027 1.386 . S
C1026 C1028 1.391 . S
C1027 C1026 1.386 . S
C1027 C1031 1.393 . S
C1028 H1017 0.950 . S
C1028 C1026 1.391 . S
C1028 C1029 1.400 . S
C1029 C1023 1.491 . S
C1029 C1028 1.400 . S
C1029 C1030 1.398 . S
C1030 H1018 0.950 . S
C1030 C1029 1.398 . S
C1030 C1031 1.391 . S
C1031 H1019 0.950 . S
C1031 C1027 1.393 . S
C1031 C1030 1.391 . S
H1032 C1040 0.950 . S
H1033 C1045 0.950 . S
H1034 C1042 0.950 . S
H1035 C1044 0.950 . S
H1036 C1046 0.950 . S
H1037 C1048 0.950 . S
H1038 C1050 0.950 . S
H1039 C1051 0.950 . S
C1040 H1032 0.950 . S
C1040 C1041 1.386 . S
C1040 C1042 1.391 . S
C1041 C1040 1.386 . S
C1041 C1045 1.393 . S
C1042 H1034 0.950 . S
C1042 C1040 1.391 . S
C1042 C1043 1.400 . S
C1043 C1042 1.400 . S
C1043 C1044 1.398 . S
C1043 C1049 1.491 . S
C1044 H1035 0.950 . S
C1044 C1043 1.398 . S
C1044 C1045 1.391 . S
C1045 H1033 0.950 . S
C1045 C1041 1.393 . S
C1045 C1044 1.391 . S
C1046 H1036 0.950 . S
C1046 C1047 1.386 . S
C1046 C1048 1.391 . S
C1047 C1046 1.386 . S
C1047 C1051 1.393 . S
C1048 H1037 0.950 . S
C1048 C1046 1.391 . S
C1048 C1049 1.400 . S
C1049 C1043 1.491 . S
C1049 C1048 1.400 . S
C1049 C1050 1.398 . S
C1050 H1038 0.950 . S
C1050 C1049 1.398 . S
C1050 C1051 1.391 . S
C1051 H1039 0.950 . S
C1051 C1047 1.393 . S
C1051 C1050 1.391 . S
H1052 C1060 0.950 . S
H1053 C1065 0.950 . S
H1054 C1062 0.951 1_455 S
H1055 C1064 0.950 . S
H1056 C1066 0.950 . S
H1057 C1068 0.950 . S
H1058 C1070 0.950 . S
H1059 C1071 0.950 . S
C1060 H1052 0.950 . S
C1060 C1061 1.386 . S
C1060 C1062 1.393 1_455 S
C1061 C1060 1.386 . S
C1061 C1065 1.393 1_455 S
C1062 H1054 0.951 1_655 S
C1062 C1060 1.393 1_655 S
C1062 C1063 1.398 . S
C1063 C1062 1.398 . S
C1063 C1064 1.398 . S
C1063 C1069 1.491 . S
C1064 H1055 0.950 . S
C1064 C1063 1.398 . S
C1064 C1065 1.391 . S
C1065 H1053 0.950 . S
C1065 C1061 1.393 1_655 S
C1065 C1064 1.391 . S
C1066 H1056 0.950 . S
C1066 C1067 1.386 . S
C1066 C1068 1.391 . S
C1067 C1066 1.386 . S
C1067 C1071 1.393 . S
C1068 H1057 0.950 . S
C1068 C1066 1.391 . S
C1068 C1069 1.400 . S
C1069 C1063 1.491 . S
C1069 C1068 1.400 . S
C1069 C1070 1.398 . S
C1070 H1058 0.950 . S
C1070 C1069 1.398 . S
C1070 C1071 1.391 . S
C1071 H1059 0.950 . S
C1071 C1067 1.393 . S
C1071 C1070 1.391 . S
H1072 C1080 0.950 . S
H1073 C1085 0.950 . S
H1074 C1082 0.950 . S
H1075 C1084 0.950 . S
H1076 C1086 0.950 . S
H1077 C1088 0.950 . S
H1078 C1090 0.950 . S
H1079 C1091 0.950 . S
C1080 H1072 0.950 . S
C1080 C1081 1.386 . S
C1080 C1082 1.391 . S
C1081 C1080 1.386 . S
C1081 C1085 1.393 . S
C1082 H1074 0.950 . S
C1082 C1080 1.391 . S
C1082 C1083 1.400 . S
C1083 C1082 1.400 . S
C1083 C1084 1.398 . S
C1083 C1089 1.491 . S
C1084 H1075 0.950 . S
C1084 C1083 1.398 . S
C1084 C1085 1.391 . S
C1085 H1073 0.950 . S
C1085 C1081 1.393 . S
C1085 C1084 1.391 . S
C1086 H1076 0.950 . S
C1086 C1087 1.386 . S
C1086 C1088 1.391 . S
C1087 C1086 1.386 . S
C1087 C1091 1.393 . S
C1088 H1077 0.950 . S
C1088 C1086 1.391 . S
C1088 C1089 1.400 . S
C1089 C1083 1.491 . S
C1089 C1088 1.400 . S
C1089 C1090 1.398 . S
C1090 H1078 0.950 . S
C1090 C1089 1.398 . S
C1090 C1091 1.391 . S
C1091 H1079 0.950 . S
C1091 C1087 1.393 . S
C1091 C1090 1.391 . S
H1092 C1100 0.950 . S
H1093 C1105 0.950 . S
H1094 C1102 0.950 . S
H1095 C1104 0.950 . S
H1096 C1106 0.950 . S
H1097 C1108 0.950 . S
H1098 C1110 0.950 . S
H1099 C1111 0.950 . S
C1100 H1092 0.950 . S
C1100 C1101 1.386 . S
C1100 C1102 1.391 . S
C1101 C1100 1.386 . S
C1101 C1105 1.393 . S
C1102 H1094 0.950 . S
C1102 C1100 1.391 . S
C1102 C1103 1.400 . S
C1103 C1102 1.400 . S
C1103 C1104 1.398 . S
C1103 C1109 1.491 . S
C1104 H1095 0.950 . S
C1104 C1103 1.398 . S
C1104 C1105 1.391 . S
C1105 H1093 0.950 . S
C1105 C1101 1.393 . S
C1105 C1104 1.391 . S
C1106 H1096 0.950 . S
C1106 C1107 1.386 . S
C1106 C1108 1.391 . S
C1107 C1106 1.386 . S
C1107 C1111 1.393 . S
C1108 H1097 0.950 . S
C1108 C1106 1.391 . S
C1108 C1109 1.400 . S
C1109 C1103 1.491 . S
C1109 C1108 1.400 . S
C1109 C1110 1.398 . S
C1110 H1098 0.950 . S
C1110 C1109 1.398 . S
C1110 C1111 1.391 . S
C1111 H1099 0.950 . S
C1111 C1107 1.393 . S
C1111 C1110 1.391 . S
H1112 C1120 0.950 . S
H1113 C1125 0.950 . S
H1114 C1122 0.950 . S
H1115 C1124 0.950 . S
H1116 C1126 0.950 . S
H1117 C1128 0.950 . S
H1118 C1130 0.950 . S
H1119 C1131 0.950 . S
C1120 H1112 0.950 . S
C1120 C1121 1.386 . S
C1120 C1122 1.391 . S
C1121 C1120 1.386 . S
C1121 C1125 1.393 . S
C1122 H1114 0.950 . S
C1122 C1120 1.391 . S
C1122 C1123 1.400 . S
C1123 C1122 1.400 . S
C1123 C1124 1.398 . S
C1123 C1129 1.491 . S
C1124 H1115 0.950 . S
C1124 C1123 1.398 . S
C1124 C1125 1.391 . S
C1125 H1113 0.950 . S
C1125 C1121 1.393 . S
C1125 C1124 1.391 . S
C1126 H1116 0.950 . S
C1126 C1127 1.386 . S
C1126 C1128 1.391 . S
C1127 C1126 1.386 . S
C1127 C1131 1.393 . S
C1128 H1117 0.950 . S
C1128 C1126 1.391 . S
C1128 C1129 1.400 . S
C1129 C1123 1.491 . S
C1129 C1128 1.400 . S
C1129 C1130 1.398 . S
C1130 H1118 0.950 . S
C1130 C1129 1.398 . S
C1130 C1131 1.391 . S
C1131 H1119 0.950 . S
C1131 C1127 1.393 . S
C1131 C1130 1.391 . S
H1132 C1140 0.950 . S
H1133 C1145 0.950 . S
H1134 C1142 0.950 . S
H1135 C1144 0.950 . S
H1136 C1146 0.950 . S
H1137 C1148 0.950 . S
H1138 C1150 0.950 . S
H1139 C1151 0.950 . S
C1140 H1132 0.950 . S
C1140 C1141 1.386 . S
C1140 C1142 1.391 . S
C1141 C1140 1.386 . S
C1141 C1145 1.393 . S
C1142 H1134 0.950 . S
C1142 C1140 1.391 . S
C1142 C1143 1.400 . S
C1143 C1142 1.400 . S
C1143 C1144 1.398 . S
C1143 C1149 1.491 . S
C1144 H1135 0.950 . S
C1144 C1143 1.398 . S
C1144 C1145 1.391 . S
C1145 H1133 0.950 . S
C1145 C1141 1.393 . S
C1145 C1144 1.391 . S
C1146 H1136 0.950 . S
C1146 C1147 1.386 . S
C1146 C1148 1.391 . S
C1147 C1146 1.386 . S
C1147 C1151 1.393 . S
C1148 H1137 0.950 . S
C1148 C1146 1.391 . S
C1148 C1149 1.400 . S
C1149 C1143 1.491 . S
C1149 C1148 1.400 . S
C1149 C1150 1.398 . S
C1150 H1138 0.950 . S
C1150 C1149 1.398 . S
C1150 C1151 1.391 . S
C1151 H1139 0.950 . S
C1151 C1147 1.393 . S
C1151 C1150 1.391 . S
H1152 C1160 0.950 . S
H1153 C1165 0.948 1_655 S
H1154 C1162 0.950 . S
H1155 C1164 0.950 . S
H1156 C1166 0.950 . S
H1157 C1168 0.950 . S
H1158 C1170 0.950 . S
H1159 C1171 0.950 . S
C1160 H1152 0.950 . S
C1160 C1161 1.386 1_554 S
C1160 C1162 1.391 1_655 S
C1161 C1160 1.386 1_556 S
C1161 C1165 1.381 1_655 S
C1162 H1154 0.950 . S
C1162 C1160 1.391 1_455 S
C1162 C1163 1.400 . S
C1163 C1162 1.400 . S
C1163 C1164 1.398 . S
C1163 C1169 1.491 . S
C1164 H1155 0.950 . S
C1164 C1163 1.398 . S
C1164 C1165 1.404 1_554 S
C1165 H1153 0.948 1_455 S
C1165 C1161 1.381 1_455 S
C1165 C1164 1.404 1_556 S
C1166 H1156 0.950 . S
C1166 C1167 1.386 . S
C1166 C1168 1.391 . S
C1167 C1166 1.386 . S
C1167 C1171 1.393 . S
C1168 H1157 0.950 . S
C1168 C1166 1.391 . S
C1168 C1169 1.400 . S
C1169 C1163 1.491 . S
C1169 C1168 1.400 . S
C1169 C1170 1.398 . S
C1170 H1158 0.950 . S
C1170 C1169 1.398 . S
C1170 C1171 1.391 . S
C1171 H1159 0.950 . S
C1171 C1167 1.393 . S
C1171 C1170 1.391 . S
H1172 C1180 0.950 . S
H1173 C1185 0.950 . S
H1174 C1182 0.950 . S
H1175 C1184 0.950 . S
H1176 C1186 0.950 . S
H1177 C1188 0.950 . S
H1178 C1190 0.950 . S
H1179 C1191 0.950 . S
C1180 H1172 0.950 . S
C1180 C1181 1.386 . S
C1180 C1182 1.391 . S
C1181 C1180 1.386 . S
C1181 C1185 1.393 . S
C1182 H1174 0.950 . S
C1182 C1180 1.391 . S
C1182 C1183 1.400 . S
C1183 C1182 1.400 . S
C1183 C1184 1.398 . S
C1183 C1189 1.491 . S
C1184 H1175 0.950 . S
C1184 C1183 1.398 . S
C1184 C1185 1.391 . S
C1185 H1173 0.950 . S
C1185 C1181 1.393 . S
C1185 C1184 1.391 . S
C1186 H1176 0.950 . S
C1186 C1187 1.386 . S
C1186 C1188 1.391 . S
C1187 C1186 1.386 . S
C1187 C1191 1.393 . S
C1188 H1177 0.950 . S
C1188 C1186 1.391 . S
C1188 C1189 1.400 . S
C1189 C1183 1.491 . S
C1189 C1188 1.400 . S
C1189 C1190 1.398 . S
C1190 H1178 0.950 . S
C1190 C1189 1.398 . S
C1190 C1191 1.391 . S
C1191 H1179 0.950 . S
C1191 C1187 1.393 . S
C1191 C1190 1.391 . S
H1192 C1200 0.950 . S
H1193 C1205 0.950 . S
H1194 C1202 0.950 . S
H1195 C1204 0.950 . S
H1196 C1206 0.950 . S
H1197 C1208 0.950 . S
H1198 C1210 0.950 . S
H1199 C1211 0.950 . S
C1200 H1192 0.950 . S
C1200 C1201 1.386 . S
C1200 C1202 1.391 . S
C1201 C1200 1.386 . S
C1201 C1205 1.393 . S
C1202 H1194 0.950 . S
C1202 C1200 1.391 . S
C1202 C1203 1.400 . S
C1203 C1202 1.400 . S
C1203 C1204 1.398 . S
C1203 C1209 1.491 . S
C1204 H1195 0.950 . S
C1204 C1203 1.398 . S
C1204 C1205 1.391 . S
C1205 H1193 0.950 . S
C1205 C1201 1.393 . S
C1205 C1204 1.391 . S
C1206 H1196 0.950 . S
C1206 C1207 1.386 . S
C1206 C1208 1.391 . S
C1207 C1206 1.386 . S
C1207 C1211 1.393 . S
C1208 H1197 0.950 . S
C1208 C1206 1.391 . S
C1208 C1209 1.400 . S
C1209 C1203 1.491 . S
C1209 C1208 1.400 . S
C1209 C1210 1.398 . S
C1210 H1198 0.950 . S
C1210 C1209 1.398 . S
C1210 C1211 1.391 . S
C1211 H1199 0.950 . S
C1211 C1207 1.393 . S
C1211 C1210 1.391 . S
H1212 C1220 0.950 . S
H1213 C1225 0.950 . S
H1214 C1222 0.950 . S
H1215 C1224 0.950 . S
H1216 C1226 0.950 . S
H1217 C1228 0.950 . S
H1218 C1230 0.950 . S
H1219 C1231 0.950 . S
C1220 H1212 0.950 . S
C1220 C1221 1.386 . S
C1220 C1222 1.391 . S
C1221 C1220 1.386 . S
C1221 C1225 1.393 . S
C1222 H1214 0.950 . S
C1222 C1220 1.391 . S
C1222 C1223 1.400 . S
C1223 C1222 1.400 . S
C1223 C1224 1.398 . S
C1223 C1229 1.491 . S
C1224 H1215 0.950 . S
C1224 C1223 1.398 . S
C1224 C1225 1.391 . S
C1225 H1213 0.950 . S
C1225 C1221 1.393 . S
C1225 C1224 1.391 . S
C1226 H1216 0.950 . S
C1226 C1227 1.386 . S
C1226 C1228 1.391 . S
C1227 C1226 1.386 . S
C1227 C1231 1.393 . S
C1228 H1217 0.950 . S
C1228 C1226 1.391 . S
C1228 C1229 1.400 . S
C1229 C1223 1.491 . S
C1229 C1228 1.400 . S
C1229 C1230 1.398 . S
C1230 H1218 0.950 . S
C1230 C1229 1.398 . S
C1230 C1231 1.391 . S
C1231 H1219 0.950 . S
C1231 C1227 1.393 . S
C1231 C1230 1.391 . S
H1232 C1240 0.950 . S
H1233 C1245 0.950 . S
H1234 C1242 0.950 . S
H1235 C1244 0.964 . S
H1236 C1246 0.950 . S
H1237 C1248 0.950 . S
H1238 C1250 0.950 . S
H1239 C1251 0.950 . S
C1240 H1232 0.950 . S
C1240 C1241 1.386 1_556 S
C1240 C1242 1.391 . S
C1241 C1240 1.386 1_554 S
C1241 C1245 1.393 . S
C1242 H1234 0.950 . S
C1242 C1240 1.391 . S
C1242 C1243 1.400 . S
C1243 C1242 1.400 . S
C1243 C1244 1.364 1_556 S
C1243 C1249 1.491 . S
C1244 H1235 0.964 . S
C1244 C1243 1.364 1_554 S
C1244 C1245 1.413 . S
C1245 H1233 0.950 . S
C1245 C1241 1.393 . S
C1245 C1244 1.413 . S
C1246 H1236 0.950 . S
C1246 C1247 1.386 . S
C1246 C1248 1.391 . S
C1247 C1246 1.386 . S
C1247 C1251 1.393 . S
C1248 H1237 0.950 . S
C1248 C1246 1.391 . S
C1248 C1249 1.400 . S
C1249 C1243 1.491 . S
C1249 C1248 1.400 . S
C1249 C1250 1.398 . S
C1250 H1238 0.950 . S
C1250 C1249 1.398 . S
C1250 C1251 1.391 . S
C1251 H1239 0.950 . S
C1251 C1247 1.393 . S
C1251 C1250 1.391 . S
H1252 C1260 0.950 . S
H1253 C1265 0.950 . S
H1254 C1262 0.950 . S
H1255 C1264 0.950 . S
H1256 C1266 0.950 . S
H1257 C1268 0.950 . S
H1258 C1270 0.950 . S
H1259 C1271 0.950 . S
C1260 H1252 0.950 . S
C1260 C1261 1.386 . S
C1260 C1262 1.391 . S
C1261 C1260 1.386 . S
C1261 C1265 1.393 . S
C1262 H1254 0.950 . S
C1262 C1260 1.391 . S
C1262 C1263 1.400 . S
C1263 C1262 1.400 . S
C1263 C1264 1.398 . S
C1263 C1269 1.491 . S
C1264 H1255 0.950 . S
C1264 C1263 1.398 . S
C1264 C1265 1.391 . S
C1265 H1253 0.950 . S
C1265 C1261 1.393 . S
C1265 C1264 1.391 . S
C1266 H1256 0.950 . S
C1266 C1267 1.387 . S
C1266 C1268 1.389 1_455 S
C1267 C1266 1.387 . S
C1267 C1271 1.393 . S
C1268 H1257 0.950 . S
C1268 C1266 1.389 1_655 S
C1268 C1269 1.400 . S
C1269 C1263 1.491 . S
C1269 C1268 1.400 . S
C1269 C1270 1.398 . S
C1270 H1258 0.950 . S
C1270 C1269 1.398 . S
C1270 C1271 1.391 1_655 S
C1271 H1259 0.950 . S
C1271 C1267 1.393 . S
C1271 C1270 1.391 1_455 S
C321 C121 1.175 . S
C327 C4 1.174 . S
C341 C23 1.173 . S
C347 C140 1.172 . S
C361 C36 1.181 . S
C367 C147 1.182 . S
C381 C49 1.158 . S
C387 C108 1.158 . S
C401 C56 1.163 . S
C407 C199 1.164 . S
C421 C166 1.167 . S
C427 C69 1.166 . S
C441 C88 1.180 . S
C447 C179 1.180 . S
C461 C186 1.171 . S
C467 C101 1.172 . S
C481 C212 1.180 . S
C487 C238 1.180 . S
C501 C290 1.181 . S
C507 C225 1.180 . S
C521 C251 1.164 . S
C527 C309 1.163 . S
C541 C283 1.158 . S
C547 C270 1.159 . S
C561 C264 1.857 . S
C567 C10 1.864 . S
C581 C17 1.857 . S
C587 C231 1.844 . S
C601 C30 1.845 . S
C607 C244 1.851 . S
C621 C43 1.845 . S
C627 C257 1.859 . S
C641 C62 1.863 . S
C647 C303 1.848 . S
C661 C277 1.862 . S
C667 C75 1.847 . S
C681 C296 1.863 . S
C687 C82 1.858 . S
C701 C218 1.859 . S
C707 C95 1.863 . S
C721 C205 1.864 . S
C727 C114 1.857 . S
C741 C127 1.864 . S
C747 C160 1.854 . S
C761 C173 1.862 . S
C767 C134 1.861 . S
C781 C192 1.845 . S
C787 C153 1.849 . S
C801 C5 1.270 . S
C807 C211 1.318 . S
C821 C304 1.296 . S
C827 C16 1.283 . S
C841 C278 1.299 . S
C847 C29 1.271 . S
C861 C42 1.285 . S
C867 C289 1.315 . S
C881 C57 1.270 . S
C887 C224 1.318 . S
C901 C237 1.303 . S
C907 C70 1.294 . S
C921 C250 1.297 . S
C927 C81 1.289 . S
C941 C265 1.310 . S
C947 C94 1.291 . S
C961 C3 1.315 . S
C967 C109 1.262 . S
C981 C18 1.303 . S
C987 C122 1.266 . S
C1001 C31 1.309 . S
C1007 C133 1.292 . S
C1021 C44 1.303 . S
C1027 C148 1.266 . S
C1041 C55 1.311 . S
C1047 C159 1.291 . S
C1061 C68 1.310 . S
C1067 C172 1.262 . S
C1081 C187 1.283 . S
C1087 C83 1.316 . S
C1101 C96 1.302 . S
C1107 C200 1.267 . S
C1121 C107 1.316 . S
C1127 C213 1.264 . S
C1141 C226 1.272 . S
C1147 C161 1.319 . S
C1161 C174 1.301 . S
C1167 C239 1.293 . S
C1181 C252 1.289 . S
C1187 C185 1.312 . S
C1201 C263 1.268 . S
C1207 C198 1.301 . S
C1221 C276 1.281 . S
C1227 C135 1.317 . S
C1241 C146 1.318 . S
C1247 C291 1.276 . S
C1261 C302 1.294 . S
C1267 C120 1.303 . S
