# Generated by pormake.
# Topology wgn, (5)-cn, num edge types: 1
# Building blocks:
#     Node 0, Type 0, BuildingBlock: BEQFEK_clean_sbu_0, # of connection points: 5
#     Node 1, Type 0, BuildingBlock: BEQFEK_clean_sbu_0, # of connection points: 5
#     Node 2, Type 0, BuildingBlock: BEQFEK_clean_sbu_0, # of connection points: 5
#     Node 3, Type 0, BuildingBlock: BEQFEK_clean_sbu_0, # of connection points: 5
#     Node 4, Type 0, BuildingBlock: BEQFEK_clean_sbu_0, # of connection points: 5
#     Node 5, Type 0, BuildingBlock: BEQFEK_clean_sbu_0, # of connection points: 5
#     Node 6, Type 0, BuildingBlock: BEQFEK_clean_sbu_0, # of connection points: 5
#     Node 7, Type 0, BuildingBlock: BEQFEK_clean_sbu_0, # of connection points: 5
#     Node 8, Type 0, BuildingBlock: BEQFEK_clean_sbu_0, # of connection points: 5
#     Node 9, Type 0, BuildingBlock: BEQFEK_clean_sbu_0, # of connection points: 5
#     Node 10, Type 0, BuildingBlock: BEQFEK_clean_sbu_0, # of connection points: 5
#     Node 11, Type 0, BuildingBlock: BEQFEK_clean_sbu_0, # of connection points: 5
#     Node 12, Type 0, BuildingBlock: BEQFEK_clean_sbu_0, # of connection points: 5
#     Node 13, Type 0, BuildingBlock: BEQFEK_clean_sbu_0, # of connection points: 5
#     Node 14, Type 0, BuildingBlock: BEQFEK_clean_sbu_0, # of connection points: 5
#     Node 15, Type 0, BuildingBlock: BEQFEK_clean_sbu_0, # of connection points: 5
#     Node 16, Type 0, BuildingBlock: BEQFEK_clean_sbu_0, # of connection points: 5
#     Node 17, Type 0, BuildingBlock: BEQFEK_clean_sbu_0, # of connection points: 5
#     Node 18, Type 0, BuildingBlock: BEQFEK_clean_sbu_0, # of connection points: 5
#     Node 19, Type 0, BuildingBlock: BEQFEK_clean_sbu_0, # of connection points: 5
#     Node 20, Type 0, BuildingBlock: BEQFEK_clean_sbu_0, # of connection points: 5
#     Node 21, Type 0, BuildingBlock: BEQFEK_clean_sbu_0, # of connection points: 5
#     Node 22, Type 0, BuildingBlock: BEQFEK_clean_sbu_0, # of connection points: 5
#     Node 23, Type 0, BuildingBlock: BEQFEK_clean_sbu_0, # of connection points: 5
#     Node 24, Type 0, BuildingBlock: BEQFEK_clean_sbu_0, # of connection points: 5
#     Node 25, Type 0, BuildingBlock: BEQFEK_clean_sbu_0, # of connection points: 5
#     Node 26, Type 0, BuildingBlock: BEQFEK_clean_sbu_0, # of connection points: 5
#     Node 27, Type 0, BuildingBlock: BEQFEK_clean_sbu_0, # of connection points: 5
#     Node 28, Type 0, BuildingBlock: BEQFEK_clean_sbu_0, # of connection points: 5
#     Node 29, Type 0, BuildingBlock: BEQFEK_clean_sbu_0, # of connection points: 5
#     Node 30, Type 0, BuildingBlock: BEQFEK_clean_sbu_0, # of connection points: 5
#     Node 31, Type 0, BuildingBlock: BEQFEK_clean_sbu_0, # of connection points: 5
#     Edge 32, Type (0, 0), BuildingBlock: OJICUG_clean_linker_0, # of connection points: 2
#     Edge 33, Type (0, 0), BuildingBlock: OJICUG_clean_linker_0, # of connection points: 2
#     Edge 34, Type (0, 0), BuildingBlock: OJICUG_clean_linker_0, # of connection points: 2
#     Edge 35, Type (0, 0), BuildingBlock: OJICUG_clean_linker_0, # of connection points: 2
#     Edge 36, Type (0, 0), BuildingBlock: OJICUG_clean_linker_0, # of connection points: 2
#     Edge 37, Type (0, 0), BuildingBlock: OJICUG_clean_linker_0, # of connection points: 2
#     Edge 38, Type (0, 0), BuildingBlock: OJICUG_clean_linker_0, # of connection points: 2
#     Edge 39, Type (0, 0), BuildingBlock: OJICUG_clean_linker_0, # of connection points: 2
#     Edge 40, Type (0, 0), BuildingBlock: OJICUG_clean_linker_0, # of connection points: 2
#     Edge 41, Type (0, 0), BuildingBlock: OJICUG_clean_linker_0, # of connection points: 2
#     Edge 42, Type (0, 0), BuildingBlock: OJICUG_clean_linker_0, # of connection points: 2
#     Edge 43, Type (0, 0), BuildingBlock: OJICUG_clean_linker_0, # of connection points: 2
#     Edge 44, Type (0, 0), BuildingBlock: OJICUG_clean_linker_0, # of connection points: 2
#     Edge 45, Type (0, 0), BuildingBlock: OJICUG_clean_linker_0, # of connection points: 2
#     Edge 46, Type (0, 0), BuildingBlock: OJICUG_clean_linker_0, # of connection points: 2
#     Edge 47, Type (0, 0), BuildingBlock: OJICUG_clean_linker_0, # of connection points: 2
#     Edge 48, Type (0, 0), BuildingBlock: OJICUG_clean_linker_0, # of connection points: 2
#     Edge 49, Type (0, 0), BuildingBlock: OJICUG_clean_linker_0, # of connection points: 2
#     Edge 50, Type (0, 0), BuildingBlock: OJICUG_clean_linker_0, # of connection points: 2
#     Edge 51, Type (0, 0), BuildingBlock: OJICUG_clean_linker_0, # of connection points: 2
#     Edge 52, Type (0, 0), BuildingBlock: OJICUG_clean_linker_0, # of connection points: 2
#     Edge 53, Type (0, 0), BuildingBlock: OJICUG_clean_linker_0, # of connection points: 2
#     Edge 54, Type (0, 0), BuildingBlock: OJICUG_clean_linker_0, # of connection points: 2
#     Edge 55, Type (0, 0), BuildingBlock: OJICUG_clean_linker_0, # of connection points: 2
#     Edge 56, Type (0, 0), BuildingBlock: OJICUG_clean_linker_0, # of connection points: 2
#     Edge 57, Type (0, 0), BuildingBlock: OJICUG_clean_linker_0, # of connection points: 2
#     Edge 58, Type (0, 0), BuildingBlock: OJICUG_clean_linker_0, # of connection points: 2
#     Edge 59, Type (0, 0), BuildingBlock: OJICUG_clean_linker_0, # of connection points: 2
#     Edge 60, Type (0, 0), BuildingBlock: OJICUG_clean_linker_0, # of connection points: 2
#     Edge 61, Type (0, 0), BuildingBlock: OJICUG_clean_linker_0, # of connection points: 2
#     Edge 62, Type (0, 0), BuildingBlock: OJICUG_clean_linker_0, # of connection points: 2
#     Edge 63, Type (0, 0), BuildingBlock: OJICUG_clean_linker_0, # of connection points: 2
#     Edge 64, Type (0, 0), BuildingBlock: OJICUG_clean_linker_0, # of connection points: 2
#     Edge 65, Type (0, 0), BuildingBlock: OJICUG_clean_linker_0, # of connection points: 2
#     Edge 66, Type (0, 0), BuildingBlock: OJICUG_clean_linker_0, # of connection points: 2
#     Edge 67, Type (0, 0), BuildingBlock: OJICUG_clean_linker_0, # of connection points: 2
#     Edge 68, Type (0, 0), BuildingBlock: OJICUG_clean_linker_0, # of connection points: 2
#     Edge 69, Type (0, 0), BuildingBlock: OJICUG_clean_linker_0, # of connection points: 2
#     Edge 70, Type (0, 0), BuildingBlock: OJICUG_clean_linker_0, # of connection points: 2
#     Edge 71, Type (0, 0), BuildingBlock: OJICUG_clean_linker_0, # of connection points: 2
#     Edge 72, Type (0, 0), BuildingBlock: OJICUG_clean_linker_0, # of connection points: 2
#     Edge 73, Type (0, 0), BuildingBlock: OJICUG_clean_linker_0, # of connection points: 2
#     Edge 74, Type (0, 0), BuildingBlock: OJICUG_clean_linker_0, # of connection points: 2
#     Edge 75, Type (0, 0), BuildingBlock: OJICUG_clean_linker_0, # of connection points: 2
#     Edge 76, Type (0, 0), BuildingBlock: OJICUG_clean_linker_0, # of connection points: 2
#     Edge 77, Type (0, 0), BuildingBlock: OJICUG_clean_linker_0, # of connection points: 2
#     Edge 78, Type (0, 0), BuildingBlock: OJICUG_clean_linker_0, # of connection points: 2
#     Edge 79, Type (0, 0), BuildingBlock: OJICUG_clean_linker_0, # of connection points: 2
#     Edge 80, Type (0, 0), BuildingBlock: OJICUG_clean_linker_0, # of connection points: 2
#     Edge 81, Type (0, 0), BuildingBlock: OJICUG_clean_linker_0, # of connection points: 2
#     Edge 82, Type (0, 0), BuildingBlock: OJICUG_clean_linker_0, # of connection points: 2
#     Edge 83, Type (0, 0), BuildingBlock: OJICUG_clean_linker_0, # of connection points: 2
#     Edge 84, Type (0, 0), BuildingBlock: OJICUG_clean_linker_0, # of connection points: 2
#     Edge 85, Type (0, 0), BuildingBlock: OJICUG_clean_linker_0, # of connection points: 2
#     Edge 86, Type (0, 0), BuildingBlock: OJICUG_clean_linker_0, # of connection points: 2
#     Edge 87, Type (0, 0), BuildingBlock: OJICUG_clean_linker_0, # of connection points: 2
#     Edge 88, Type (0, 0), BuildingBlock: OJICUG_clean_linker_0, # of connection points: 2
#     Edge 89, Type (0, 0), BuildingBlock: OJICUG_clean_linker_0, # of connection points: 2
#     Edge 90, Type (0, 0), BuildingBlock: OJICUG_clean_linker_0, # of connection points: 2
#     Edge 91, Type (0, 0), BuildingBlock: OJICUG_clean_linker_0, # of connection points: 2
#     Edge 92, Type (0, 0), BuildingBlock: OJICUG_clean_linker_0, # of connection points: 2
#     Edge 93, Type (0, 0), BuildingBlock: OJICUG_clean_linker_0, # of connection points: 2
#     Edge 94, Type (0, 0), BuildingBlock: OJICUG_clean_linker_0, # of connection points: 2
#     Edge 95, Type (0, 0), BuildingBlock: OJICUG_clean_linker_0, # of connection points: 2
#     Edge 96, Type (0, 0), BuildingBlock: OJICUG_clean_linker_0, # of connection points: 2
#     Edge 97, Type (0, 0), BuildingBlock: OJICUG_clean_linker_0, # of connection points: 2
#     Edge 98, Type (0, 0), BuildingBlock: OJICUG_clean_linker_0, # of connection points: 2
#     Edge 99, Type (0, 0), BuildingBlock: OJICUG_clean_linker_0, # of connection points: 2
#     Edge 100, Type (0, 0), BuildingBlock: OJICUG_clean_linker_0, # of connection points: 2
#     Edge 101, Type (0, 0), BuildingBlock: OJICUG_clean_linker_0, # of connection points: 2
#     Edge 102, Type (0, 0), BuildingBlock: OJICUG_clean_linker_0, # of connection points: 2
#     Edge 103, Type (0, 0), BuildingBlock: OJICUG_clean_linker_0, # of connection points: 2
#     Edge 104, Type (0, 0), BuildingBlock: OJICUG_clean_linker_0, # of connection points: 2
#     Edge 105, Type (0, 0), BuildingBlock: OJICUG_clean_linker_0, # of connection points: 2
#     Edge 106, Type (0, 0), BuildingBlock: OJICUG_clean_linker_0, # of connection points: 2
#     Edge 107, Type (0, 0), BuildingBlock: OJICUG_clean_linker_0, # of connection points: 2
#     Edge 108, Type (0, 0), BuildingBlock: OJICUG_clean_linker_0, # of connection points: 2
#     Edge 109, Type (0, 0), BuildingBlock: OJICUG_clean_linker_0, # of connection points: 2
#     Edge 110, Type (0, 0), BuildingBlock: OJICUG_clean_linker_0, # of connection points: 2
#     Edge 111, Type (0, 0), BuildingBlock: OJICUG_clean_linker_0, # of connection points: 2
# Relax obj value: 0.158
# Max RMSD: 0.134
# Mean RMSD: 0.133
data_MOF--net-wgn--node1-BEQFEK_clean_sbu_0--edge1-OJICUG_clean_linker_0
_symmetry_space_group_name_H-M    P1
_symmetry_Int_Tables_number       1
_symmetry_cell_setting            triclinic
loop_
_symmetry_equiv_pos_as_xyz
'x, y, z'
_cell_length_a     23.043325
_cell_length_b     22.973929
_cell_length_c     117.33311
_cell_angle_alpha  89.980094
_cell_angle_beta   89.970632
_cell_angle_gamma 89.988223
loop_
_atom_site_label
_atom_site_type_symbol
_atom_site_fract_x
_atom_site_fract_y
_atom_site_fract_z
_atom_type_partial_charge
Co0 Co 0.2885 0.12917 0.33818 0.0
Co1 Co 0.28599 0.1354 0.31101 0.0
C2 C 0.22174 0.22185 0.32466 0.0
O3 O 0.24112 0.20077 0.33403 0.0
O4 O 0.2297 0.19578 0.31522 0.0
C5 C 0.31935 0.13153 0.36217 0.0
O6 O 0.35308 0.17449 0.3589 0.0
C7 C 0.28843 0.18126 0.28771 0.0
C8 C 0.32528 0.10943 0.27759 0.0
C9 C 0.30586 0.1664 0.27674 0.0
N10 N 0.29508 0.13467 0.2946 0.0
N11 N 0.31833 0.0923 0.28849 0.0
C12 C 0.27586 0.24127 0.29203 0.0
H13 H 0.29217 0.24638 0.30086 0.0
H14 H 0.2283 0.24838 0.29196 0.0
H15 H 0.29675 0.27484 0.28661 0.0
C16 C 0.26711 0.00526 0.33291 0.0
N17 N 0.27251 0.06084 0.32937 0.0
N18 N 0.26841 0.06259 0.31816 0.0
C19 C 0.25725 0.00823 0.31433 0.0
C20 C 0.2572 0.96991 0.32352 0.0
C21 C 0.27734 0.98605 0.34494 0.0
H22 H 0.31651 0.00799 0.34835 0.0
H23 H 0.2396 -0.00113 0.35025 0.0
H24 H 0.28375 0.93833 0.34557 0.0
O25 O 0.36761 0.15456 0.33516 0.0
O26 O 0.36084 0.16517 0.31642 0.0
H27 H 0.2795 0.9738 0.29797 0.0
H28 H 0.20607 0.96085 0.30219 0.0
C29 C 0.24156 0.99354 0.3023 0.0
H30 H 0.22747 0.03304 0.29763 0.0
H31 H 0.33275 0.05286 0.29186 0.0
O32 O 0.28497 0.10873 0.35493 0.0
C33 C 0.38873 0.1709 0.32569 0.0
Co34 Co 0.09898 0.05045 0.58847 0.0
Co35 Co 0.08884 0.03232 0.56152 0.0
C36 C 0.0034 0.9806 0.57635 0.0
O37 O 0.02543 0.00636 0.585 0.0
O38 O 0.03049 0.97744 0.56694 0.0
C39 C 0.13384 0.02867 0.61326 0.0
O40 O 0.14771 0.97445 0.61098 0.0
C41 C 0.04307 0.02125 0.53821 0.0
C42 C 0.11095 0.06306 0.5278 0.0
C43 C 0.05608 0.03857 0.52713 0.0
N44 N 0.08874 0.03351 0.54501 0.0
N45 N 0.12885 0.05912 0.5387 0.0
C46 C 0.98475 0.00361 0.54266 0.0
H47 H 0.9759 0.02623 0.55083 0.0
H48 H 0.98469 0.956 0.54424 0.0
H49 H 0.94949 0.01452 0.5366 0.0
C50 C 0.22192 0.0285 0.58293 0.0
N51 N 0.16572 0.02932 0.57982 0.0
N52 N 0.16197 0.0189 0.56878 0.0
C53 C 0.21557 0.0073 0.56473 0.0
C54 C 0.25541 0.01407 0.57353 0.0
C55 C 0.24362 0.04964 0.59423 0.0
H56 H 0.21458 0.08399 0.5976 0.0
H57 H 0.24464 0.01276 0.60032 0.0
H58 H 0.28813 0.06771 0.5935 0.0
O59 O 0.07742 0.12736 0.58376 0.0
O60 O 0.05878 0.11004 0.56552 0.0
H61 H 0.24498 0.02224 0.54768 0.0
H62 H 0.26219 0.95176 0.55321 0.0
C63 C 0.22815 0.98594 0.55295 0.0
H64 H 0.18835 0.96804 0.54896 0.0
H65 H 0.16661 0.07774 0.54194 0.0
O66 O 0.11395 0.06107 0.60536 0.0
C67 C 0.05741 0.1432 0.57419 0.0
Co68 Co 0.18649 0.82388 0.84023 0.0
Co69 Co 0.19831 0.81546 0.8131 0.0
C70 C 0.25642 0.72999 0.82785 0.0
O71 O 0.23423 0.75187 0.8369 0.0
O72 O 0.25206 0.75535 0.81826 0.0
C73 C 0.20796 0.8617 0.8648 0.0
O74 O 0.26201 0.8755 0.86247 0.0
C75 C 0.2065 0.76896 0.78986 0.0
C76 C 0.167 0.83809 0.77939 0.0
C77 C 0.18968 0.78228 0.77878 0.0
N78 N 0.19593 0.81534 0.79661 0.0
N79 N 0.17156 0.85618 0.79028 0.0
C80 C 0.22203 0.70993 0.79432 0.0
H81 H 0.20067 0.70244 0.80266 0.0
H82 H 0.26971 0.70756 0.79548 0.0
H83 H 0.20827 0.67489 0.78842 0.0
C84 C 0.20704 0.94812 0.83465 0.0
N85 N 0.20498 0.89179 0.83147 0.0
N86 N 0.2139 0.88836 0.82037 0.0
C87 C 0.2259 0.94211 0.81635 0.0
C88 C 0.22101 0.98188 0.82524 0.0
C89 C 0.18756 0.97012 0.84604 0.0
H90 H 0.15319 0.94158 0.84955 0.0
H91 H 0.22501 0.97071 0.85196 0.0
H92 H 0.17014 0.01503 0.84538 0.0
O93 O 0.10993 0.79927 0.83593 0.0
O94 O 0.12048 0.78745 0.8173 0.0
H95 H 0.20993 0.97278 0.79942 0.0
H96 H 0.28117 0.98807 0.80468 0.0
C97 C 0.24627 0.95477 0.8045 0.0
H98 H 0.26278 0.91464 0.80037 0.0
H99 H 0.1543 0.89477 0.79348 0.0
O100 O 0.17594 0.84034 0.857 0.0
C101 C 0.09044 0.78329 0.82634 0.0
Co102 Co 0.39958 0.94757 0.08915 0.0
Co103 Co 0.41111 0.95822 0.06173 0.0
C104 C 0.50649 0.99343 0.07795 0.0
O105 O 0.47948 0.98018 0.08711 0.0
O106 O 0.4829 0.98913 0.0682 0.0
C107 C 0.37312 0.95954 0.11481 0.0
O108 O 0.38383 0.0157 0.1147 0.0
C109 C 0.45879 0.98206 0.03863 0.0
C110 C 0.39717 0.93323 0.02787 0.0
C111 C 0.44901 0.96363 0.02747 0.0
N112 N 0.41424 0.96383 0.04524 0.0
N113 N 0.37778 0.93464 0.03868 0.0
C114 C 0.51399 0.00646 0.04336 0.0
H115 H 0.53411 0.97373 0.04907 0.0
H116 H 0.50403 0.04584 0.04846 0.0
H117 H 0.54596 0.01743 0.03666 0.0
C118 C 0.28623 -0.00138 0.08366 0.0
N119 N 0.34071 0.98565 0.08042 0.0
N120 N 0.34436 0.98957 0.0692 0.0
C121 C 0.29227 0.0058 0.06504 0.0
C122 C 0.25338 0.01058 0.07405 0.0
C123 C 0.26496 -0.0051 0.09568 0.0
H124 H 0.29385 0.02098 0.10122 0.0
H125 H 0.22011 0.01189 0.09656 0.0
H126 H 0.26643 0.94895 0.09859 0.0
O127 O 0.4072 0.86927 0.08326 0.0
O128 O 0.41463 0.87473 0.06447 0.0
H129 H 0.26409 0.9636 0.04983 0.0
H130 H 0.24196 0.03811 0.05081 0.0
C131 C 0.27791 0.00758 0.05261 0.0
H132 H 0.31631 0.02151 0.04765 0.0
H133 H 0.34188 0.91178 0.04172 0.0
O134 O 0.37767 0.93033 0.10561 0.0
C135 C 0.41346 0.84527 0.07361 0.0
Co136 Co 0.28211 0.84066 0.18153 0.0
Co137 Co 0.2922 0.83227 0.20881 0.0
C138 C 0.26051 0.73053 0.19335 0.0
O139 O 0.2549 0.75846 0.18399 0.0
O140 O 0.27495 0.75562 0.20255 0.0
C141 C 0.31442 0.84356 0.15743 0.0
O142 O 0.34308 0.79588 0.15999 0.0
C143 C 0.26884 0.78699 0.23226 0.0
C144 C 0.33345 0.83767 0.24193 0.0
C145 C 0.29512 0.79139 0.24298 0.0
N146 N 0.29195 0.82777 0.22528 0.0
N147 N 0.32973 0.8584 0.23125 0.0
C148 C 0.22573 0.74234 0.22844 0.0
H149 H 0.21617 0.74632 0.21926 0.0
H150 H 0.18415 0.74935 0.23299 0.0
H151 H 0.24179 0.69793 0.23043 0.0
C152 C 0.22519 0.94938 0.18815 0.0
N153 N 0.2438 0.89586 0.19104 0.0
N154 N 0.24677 0.89209 0.20225 0.0
C155 C 0.22976 0.94299 0.20682 0.0
C156 C 0.21643 0.98142 0.19805 0.0
C157 C 0.22835 0.97244 0.17622 0.0
H158 H 0.20402 0.94305 0.17044 0.0
H159 H 0.21064 0.01701 0.17541 0.0
H160 H 0.27438 0.97311 0.17345 0.0
O161 O 0.36428 0.83927 0.18566 0.0
O162 O 0.3724 0.84493 0.20448 0.0
H163 H 0.27932 0.96484 0.22158 0.0
H164 H 0.20725 -0.00418 0.22139 0.0
C165 C 0.23338 0.9567 0.21926 0.0
H166 H 0.21764 0.91907 0.22431 0.0
H167 H 0.35592 0.89103 0.22781 0.0
O168 O 0.28261 0.86713 0.16504 0.0
C169 C 0.39508 0.84236 0.19463 0.0
Co170 Co 0.39429 0.0513 0.43164 0.0
Co171 Co 0.4036 0.03516 0.45858 0.0
C172 C 0.48891 0.98154 0.44406 0.0
O173 O 0.46713 0.00688 0.43534 0.0
O174 O 0.46163 0.97897 0.45345 0.0
C175 C 0.35794 0.02975 0.40698 0.0
O176 O 0.34082 0.97664 0.40941 0.0
C177 C 0.45017 0.02842 0.48172 0.0
C178 C 0.3812 0.06811 0.49218 0.0
C179 C 0.43716 0.04612 0.49278 0.0
N180 N 0.40351 0.03799 0.47503 0.0
N181 N 0.36276 0.06244 0.48135 0.0
C182 C 0.50896 0.01339 0.47712 0.0
H183 H 0.51559 0.03482 0.46876 0.0
H184 H 0.5118 0.96559 0.4759 0.0
H185 H 0.54413 0.02761 0.48293 0.0
C186 C 0.27109 0.03278 0.43706 0.0
N187 N 0.32714 0.03227 0.44026 0.0
N188 N 0.33036 0.02194 0.4513 0.0
C189 C 0.27641 0.01113 0.45526 0.0
C190 C 0.23702 0.01867 0.4464 0.0
C191 C 0.25017 0.05569 0.42584 0.0
H192 H 0.28073 0.08878 0.4225 0.0
H193 H 0.24695 0.01932 0.41967 0.0
H194 H 0.20666 0.07597 0.42668 0.0
O195 O 0.41646 0.12789 0.43609 0.0
O196 O 0.43477 0.1124 0.45441 0.0
H197 H 0.24553 0.02536 0.47225 0.0
H198 H 0.22939 0.95493 0.46659 0.0
C199 C 0.26312 0.98937 0.46699 0.0
H200 H 0.30276 0.97167 0.47109 0.0
H201 H 0.3241 0.07932 0.47815 0.0
O202 O 0.3801 0.0613 0.41477 0.0
C203 C 0.43653 0.1445 0.44559 0.0
Co204 Co 0.19857 0.12776 0.68249 0.0
Co205 Co 0.19157 0.14172 0.70973 0.0
C206 C 0.25954 0.22433 0.69515 0.0
O207 O 0.24485 0.20015 0.68576 0.0
O208 O 0.24597 0.20234 0.70473 0.0
C209 C 0.1717 0.12838 0.65833 0.0
O210 O 0.14311 0.17576 0.66112 0.0
C211 C 0.20159 0.18856 0.73327 0.0
C212 C 0.14003 0.13328 0.74276 0.0
C213 C 0.17665 0.18067 0.74399 0.0
N214 N 0.18198 0.14655 0.72618 0.0
N215 N 0.14444 0.1144 0.73193 0.0
C216 C 0.23426 0.24103 0.72924 0.0
H217 H 0.21325 0.25851 0.72147 0.0
H218 H 0.27938 0.2282 0.72711 0.0
H219 H 0.23482 0.27646 0.73563 0.0
C220 C 0.22315 0.00696 0.68947 0.0
N221 N 0.21547 0.06323 0.69232 0.0
N222 N 0.21125 0.06743 0.70352 0.0
C223 C 0.21603 0.01369 0.7081 0.0
C224 C 0.22273 0.97334 0.69931 0.0
C225 C 0.23049 0.98606 0.67748 0.0
H226 H 0.26048 0.01549 0.67284 0.0
H227 H 0.24828 0.94122 0.67718 0.0
H228 H 0.18781 0.98698 0.6731 0.0
O229 O 0.11831 0.1529 0.68499 0.0
O230 O 0.11659 0.16529 0.70375 0.0
H231 H 0.15976 -0.00405 0.72207 0.0
H232 H 0.22806 0.96022 0.72323 0.0
C233 C 0.2069 0.00098 0.72048 0.0
H234 H 0.22403 0.0372 0.72572 0.0
H235 H 0.1191 0.08168 0.72832 0.0
O236 O 0.20151 0.10255 0.66596 0.0
C237 C 0.09236 0.16828 0.69406 0.0
Co238 Co 0.10763 0.94804 0.93268 0.0
Co239 Co 0.10003 0.95546 0.95974 0.0
C240 C 0.01459 0.01727 0.94578 0.0
O241 O 0.03595 -0.00465 0.93666 0.0
O242 O 0.04084 0.01279 0.95528 0.0
C243 C 0.10439 0.91453 0.90886 0.0
O244 O 0.06024 0.88285 0.91228 0.0
C245 C 0.0541 0.95699 0.98301 0.0
C246 C 0.12399 0.91697 0.99317 0.0
C247 C 0.06799 0.93867 0.99398 0.0
N248 N 0.10035 0.9483 0.97616 0.0
N249 N 0.1416 0.92344 0.98229 0.0
C250 C -0.00504 0.97232 0.97864 0.0
H251 H 0.98842 0.95343 0.97004 0.0
H252 H 0.99117 0.02034 0.97804 0.0
H253 H 0.96031 0.95557 0.98433 0.0
C254 C 0.23127 0.96339 0.93799 0.0
N255 N 0.17559 0.96305 0.94148 0.0
N256 N 0.17372 0.97003 0.95262 0.0
C257 C 0.22845 0.97898 0.95642 0.0
C258 C 0.26701 0.97407 0.94729 0.0
C259 C 0.24978 0.94583 0.92624 0.0
H260 H 0.22243 0.90929 0.92321 0.0
H261 H 0.24395 0.98324 0.92037 0.0
H262 H 0.29571 0.93153 0.926 0.0
O263 O 0.08241 0.86986 0.93602 0.0
O264 O 0.06867 0.87983 0.95465 0.0
H265 H 0.2608 0.95879 0.97305 0.0
H266 H 0.27764 0.03067 0.9682 0.0
C267 C 0.24335 -0.00328 0.96833 0.0
H268 H 0.20446 0.01372 0.9728 0.0
H269 H 0.18029 0.90735 0.97894 0.0
O270 O 0.12813 0.94931 0.91592 0.0
C271 C 0.06418 0.85051 0.9455 0.0
Co272 Co 0.70113 0.85295 0.71772 0.0
Co273 Co 0.64596 0.85195 0.69304 0.0
C274 C 0.72249 0.75575 0.70109 0.0
O275 O 0.73299 0.78085 0.71053 0.0
O276 O 0.69031 0.77948 0.69364 0.0
C277 C 0.77976 0.82619 0.73579 0.0
O278 O 0.81288 0.80835 0.72738 0.0
C279 C 0.63905 0.85209 0.66794 0.0
C280 C 0.54763 0.87769 0.66526 0.0
C281 C 0.59816 0.86351 0.65946 0.0
N282 N 0.61378 0.86028 0.67815 0.0
N283 N 0.55907 0.87515 0.67648 0.0
C284 C 0.70049 0.83206 0.66654 0.0
H285 H 0.7173 0.81287 0.67451 0.0
H286 H 0.72834 0.86995 0.66443 0.0
H287 H 0.70372 0.79955 0.65957 0.0
C288 C 0.72306 0.9779 0.71017 0.0
N289 N 0.70784 0.9219 0.70819 0.0
N290 N 0.68739 0.9185 0.69771 0.0
C291 C 0.68955 0.97119 0.69271 0.0
C292 C 0.71218 0.01077 0.70038 0.0
C293 C 0.74309 0.00027 0.72146 0.0
H294 H 0.76914 0.96656 0.7259 0.0
H295 H 0.76891 0.04072 0.72039 0.0
H296 H 0.7046 0.01026 0.7268 0.0
O297 O 0.61871 0.83424 0.72058 0.0
O298 O 0.58077 0.84041 0.70323 0.0
H299 H 0.61466 0.97374 0.68199 0.0
H300 H 0.66434 0.03188 0.67928 0.0
C301 C 0.66128 0.9852 0.68154 0.0
H302 H 0.68201 0.95932 0.6747 0.0
H303 H 0.52955 0.88376 0.68301 0.0
O304 O 0.73454 0.85581 0.73347 0.0
C305 C 0.57554 0.83179 0.71387 0.0
Co306 Co 0.89668 0.95436 0.46585 0.0
Co307 Co 0.89322 0.91999 0.43967 0.0
C308 C 0.98935 0.98897 0.44835 0.0
O309 O 0.96738 0.98694 0.45831 0.0
O310 O 0.96325 0.96734 0.4398 0.0
C311 C 0.92852 0.02726 0.4846 0.0
O312 O 0.94619 0.06165 0.47635 0.0
C313 C 0.89629 0.90963 0.41456 0.0
C314 C 0.84037 0.83259 0.41191 0.0
C315 C 0.87296 0.87393 0.40623 0.0
N316 N 0.87792 0.89049 0.42477 0.0
N317 N 0.84523 0.84393 0.42312 0.0
C318 C 0.93344 0.96226 0.41286 0.0
H319 H 0.92011 -0.00297 0.41888 0.0
H320 H 0.93061 0.97848 0.40396 0.0
H321 H 0.9792 0.95071 0.41474 0.0
C322 C 0.77109 0.9801 0.46006 0.0
N323 N 0.82652 0.96761 0.45718 0.0
N324 N 0.82835 0.95785 0.44611 0.0
C325 C 0.77544 0.96619 0.44156 0.0
C326 C 0.73692 0.97945 0.45024 0.0
C327 C 0.75069 0.98834 0.47205 0.0
H328 H 0.78444 0.01112 0.4771 0.0
H329 H 0.70941 0.01325 0.47226 0.0
H330 H 0.74327 0.94501 0.47597 0.0
O331 O 0.91324 0.87064 0.46696 0.0
O332 O 0.91197 0.85098 0.44847 0.0
H333 H 0.75268 0.90672 0.42831 0.0
H334 H 0.7215 0.97716 0.42648 0.0
C335 C 0.76084 0.95394 0.42935 0.0
H336 H 0.79725 0.96738 0.42378 0.0
H337 H 0.82561 0.82031 0.42967 0.0
O338 O 0.89859 0.98249 0.48205 0.0
C339 C 0.91919 0.83527 0.45874 0.0
Co340 Co 0.76488 0.16672 0.21562 0.0
Co341 Co 0.83461 0.17591 0.19245 0.0
C342 C 0.7433 0.26094 0.19765 0.0
O343 O 0.73436 0.23695 0.2073 0.0
O344 O 0.77778 0.23833 0.19044 0.0
C345 C 0.67944 0.19365 0.23249 0.0
O346 O 0.65323 0.21919 0.2239 0.0
C347 C 0.86056 0.17457 0.16808 0.0
C348 C 0.95404 0.1531 0.16775 0.0
C349 C 0.90662 0.16364 0.1608 0.0
N350 N 0.87971 0.17048 0.17886 0.0
N351 N 0.93587 0.15869 0.17861 0.0
C352 C 0.79817 0.18299 0.16495 0.0
H353 H 0.76956 0.16872 0.17203 0.0
H354 H 0.78732 0.1584 0.15709 0.0
H355 H 0.79027 0.22992 0.16333 0.0
C356 C 0.76141 0.04027 0.2078 0.0
N357 N 0.77353 0.09742 0.20626 0.0
N358 N 0.80158 0.10307 0.19652 0.0
C359 C 0.80742 0.05046 0.19155 0.0
C360 C 0.78228 0.00871 0.19848 0.0
C361 C 0.73278 0.01607 0.2182 0.0
H362 H 0.70245 0.04854 0.22188 0.0
H363 H 0.70932 0.97517 0.21616 0.0
H364 H 0.76656 0.00615 0.22465 0.0
O365 O 0.84093 0.19344 0.221 0.0
O366 O 0.8861 0.20496 0.20441 0.0
H367 H 0.88716 0.05571 0.18231 0.0
H368 H 0.84529 0.99252 0.17888 0.0
C369 C 0.84247 0.03939 0.18102 0.0
H370 H 0.82273 0.06285 0.17374 0.0
H371 H 0.96136 0.15254 0.18587 0.0
O372 O 0.72188 0.15965 0.23042 0.0
C373 C 0.88436 0.20977 0.2152 0.0
Co374 Co 0.60271 0.05291 0.96616 0.0
Co375 Co 0.60155 0.08813 0.94017 0.0
C376 C 0.51581 0.00597 0.94841 0.0
O377 O 0.53599 0.01266 0.95844 0.0
O378 O 0.54174 0.0273 0.93977 0.0
C379 C 0.5779 0.97937 0.98524 0.0
O380 O 0.56214 0.94276 0.97722 0.0
C381 C 0.60859 0.09685 0.91515 0.0
C382 C 0.6342 0.18896 0.91296 0.0
C383 C 0.62232 0.13838 0.90701 0.0
N384 N 0.61248 0.1217 0.92548 0.0
N385 N 0.62697 0.17696 0.9241 0.0
C386 C 0.59564 0.03381 0.91326 0.0
H387 H 0.60913 0.00786 0.92079 0.0
H388 H 0.61799 0.01755 0.90551 0.0
H389 H 0.54817 0.02838 0.91209 0.0
C390 C 0.73103 0.03906 0.96043 0.0
N391 N 0.67499 0.04991 0.95767 0.0
N392 N 0.67292 0.06473 0.94683 0.0
C393 C 0.72688 0.06404 0.94239 0.0
C394 C 0.76593 0.04751 0.9508 0.0
C395 C 0.7507 0.02129 0.97206 0.0
H396 H 0.71566 -0.0027 0.97653 0.0
H397 H 0.79033 0.99394 0.97154 0.0
H398 H 0.76106 0.06093 0.97706 0.0
O399 O 0.57313 0.13334 0.96748 0.0
O400 O 0.56369 0.14856 0.94894 0.0
H401 H 0.72637 0.13081 0.92975 0.0
H402 H 0.7882 0.08466 0.92877 0.0
C403 C 0.74114 0.08521 0.93063 0.0
H404 H 0.718 0.0582 0.92426 0.0
H405 H 0.63311 0.2062 0.93079 0.0
O406 O 0.60426 0.02586 0.98239 0.0
C407 C 0.55402 0.16319 0.95919 0.0
Co408 Co 0.71671 0.11529 0.79909 0.0
Co409 Co 0.69872 0.1245 0.82537 0.0
C410 C 0.76072 0.21347 0.81565 0.0
O411 O 0.74536 0.1892 0.80635 0.0
O412 O 0.7557 0.18707 0.82511 0.0
C413 C 0.79253 0.14669 0.7811 0.0
O414 O 0.82573 0.16233 0.78967 0.0
C415 C 0.67252 0.13771 0.85006 0.0
C416 C 0.60958 0.06607 0.85238 0.0
C417 C 0.63891 0.10933 0.85825 0.0
N418 N 0.6645 0.11096 0.83998 0.0
N419 N 0.626 0.06899 0.84141 0.0
C420 C 0.70728 0.19231 0.85139 0.0
H421 H 0.7061 0.21802 0.8434 0.0
H422 H 0.7531 0.18078 0.85323 0.0
H423 H 0.69002 0.21961 0.85842 0.0
C424 C 0.73538 0.98986 0.80603 0.0
N425 N 0.73024 0.04734 0.80822 0.0
N426 N 0.729 0.05458 0.81934 0.0
C427 C 0.73747 0.00312 0.82455 0.0
C428 C 0.73967 0.9598 0.81635 0.0
C429 C 0.73168 0.96408 0.79436 0.0
H430 H 0.75143 0.99407 0.78804 0.0
H431 H 0.75353 0.92102 0.79408 0.0
H432 H 0.68533 0.95817 0.79208 0.0
O433 O 0.63381 0.13097 0.79786 0.0
O434 O 0.63423 0.15546 0.81611 0.0
H435 H 0.69806 0.97357 0.84007 0.0
H436 H 0.77533 0.96665 0.83974 0.0
C437 C 0.7387 -0.005 0.83723 0.0
H438 H 0.74472 0.03711 0.84164 0.0
H439 H 0.61148 0.04178 0.83489 0.0
O440 O 0.7474 0.11645 0.78317 0.0
C441 C 0.61063 0.15629 0.80632 0.0
Co442 Co 0.59847 0.96116 0.55287 0.0
Co443 Co 0.59969 0.90984 0.57785 0.0
C444 C 0.50295 0.98317 0.5704 0.0
O445 O 0.52622 0.98921 0.56061 0.0
O446 O 0.52828 0.95518 0.5783 0.0
C447 C 0.56624 0.03949 0.53506 0.0
O448 O 0.54441 0.06964 0.54355 0.0
C449 C 0.5954 0.89144 0.60258 0.0
C450 C 0.64625 0.81033 0.60445 0.0
C451 C 0.61624 0.8522 0.61052 0.0
N452 N 0.61254 0.8738 0.59221 0.0
N453 N 0.64211 0.8248 0.59336 0.0
C454 C 0.5627 0.94649 0.60483 0.0
H455 H 0.51577 0.93843 0.60343 0.0
H456 H 0.57685 0.98089 0.59879 0.0
H457 H 0.56905 0.96145 0.61373 0.0
C458 C 0.72287 0.98533 0.55989 0.0
N459 N 0.6674 0.96997 0.56213 0.0
N460 N 0.66448 0.9528 0.57284 0.0
C461 C 0.71668 0.95876 0.57783 0.0
C462 C 0.75583 0.97868 0.56979 0.0
C463 C 0.74467 0.00153 0.54832 0.0
H464 H 0.71131 0.02721 0.54372 0.0
H465 H 0.7857 0.02666 0.54894 0.0
H466 H 0.75302 0.96119 0.54339 0.0
O467 O 0.58287 0.87858 0.54977 0.0
O468 O 0.5851 0.84557 0.56752 0.0
H469 H 0.73467 0.88984 0.58951 0.0
H470 H 0.77157 0.95593 0.59293 0.0
C471 C 0.73043 0.93787 0.58962 0.0
H472 H 0.6951 0.95045 0.59553 0.0
H473 H 0.66048 0.80187 0.58658 0.0
O474 O 0.59926 -0.00348 0.5373 0.0
C475 C 0.5785 0.83732 0.5569 0.0
Co476 Co 0.77613 0.86475 0.30071 0.0
Co477 Co 0.84728 0.86318 0.32368 0.0
C478 C 0.75867 0.77046 0.31739 0.0
O479 O 0.73977 0.79788 0.30873 0.0
O480 O 0.79927 0.7914 0.32349 0.0
C481 C 0.69839 0.83842 0.28244 0.0
O482 O 0.66715 0.81554 0.29067 0.0
C483 C 0.8545 0.86817 0.34863 0.0
C484 C 0.94797 0.88375 0.35142 0.0
C485 C 0.8957 0.87722 0.35719 0.0
N486 N 0.88137 0.87033 0.33846 0.0
N487 N 0.93726 0.87927 0.34019 0.0
C488 C 0.79091 0.85639 0.34984 0.0
H489 H 0.77245 0.83972 0.34178 0.0
H490 H 0.76803 0.89756 0.3519 0.0
H491 H 0.78303 0.82435 0.35676 0.0
C492 C 0.76271 0.99071 0.30804 0.0
N493 N 0.77934 0.93493 0.30976 0.0
N494 N 0.80774 0.93225 0.3195 0.0
C495 C 0.81031 0.98569 0.32421 0.0
C496 C 0.78161 0.02464 0.31719 0.0
C497 C 0.73163 0.01141 0.29763 0.0
H498 H 0.70363 0.97627 0.29419 0.0
H499 H 0.70521 0.05061 0.29956 0.0
H500 H 0.7641 0.02305 0.29102 0.0
O501 O 0.85465 0.83522 0.29732 0.0
O502 O 0.90918 0.84805 0.31271 0.0
H503 H 0.89063 0.98133 0.33332 0.0
H504 H 0.85225 0.04838 0.33539 0.0
C505 C 0.84695 0.00075 0.33433 0.0
H506 H 0.82659 0.98281 0.34214 0.0
H507 H 0.96804 0.88277 0.3337 0.0
O508 O 0.74164 0.87025 0.28507 0.0
C509 C 0.90325 0.83249 0.30239 0.0
Co510 Co 0.90311 0.02464 0.05421 0.0
Co511 Co 0.90329 0.06213 0.08011 0.0
C512 C 0.00499 0.00934 0.07105 0.0
O513 O 0.98066 0.01084 0.06131 0.0
O514 O 0.97802 0.02281 0.0801 0.0
C515 C 0.94261 0.94803 0.03672 0.0
O516 O 0.96657 0.92089 0.04538 0.0
C517 C 0.91383 0.09612 0.10451 0.0
C518 C 0.83535 0.15064 0.1064 0.0
C519 C 0.88258 0.12916 0.11236 0.0
N520 N 0.88523 0.09698 0.09451 0.0
N521 N 0.83898 0.13046 0.09567 0.0
C522 C 0.97264 0.06953 0.10603 0.0
H523 H -0.00116 0.07589 0.09821 0.0
H524 H 0.96786 0.02208 0.10752 0.0
H525 H -0.00372 0.08951 0.11327 0.0
C526 C 0.78437 0.98584 0.06163 0.0
N527 N 0.83919 0.00288 0.06387 0.0
N528 N 0.84355 0.01275 0.0749 0.0
C529 C 0.79343 -0.00149 0.08008 0.0
C530 C 0.75327 0.98316 0.07184 0.0
C531 C 0.76079 0.97882 0.04984 0.0
H532 H 0.79317 0.95636 0.0444 0.0
H533 H 0.71946 0.954 0.04994 0.0
H534 H 0.75283 0.02251 0.04612 0.0
O535 O 0.90275 0.10817 0.05155 0.0
O536 O 0.91113 0.12947 0.06989 0.0
H537 H 0.75612 0.04609 0.09397 0.0
H538 H 0.75652 0.96888 0.0959 0.0
C539 C 0.78196 0.006 0.09256 0.0
H540 H 0.82311 0.0078 0.0974 0.0
H541 H 0.80979 0.13951 0.08911 0.0
O542 O 0.90669 0.98893 0.03871 0.0
C543 C 0.90963 0.14486 0.05949 0.0
Co544 Co 0.77693 0.6134 0.8371 0.0
Co545 Co 0.77245 0.63395 0.81012 0.0
C546 C 0.71601 0.71476 0.82513 0.0
O547 O 0.7388 0.69068 0.83389 0.0
O548 O 0.71385 0.68862 0.81561 0.0
C549 C 0.79922 0.61827 0.86153 0.0
O550 O 0.82169 0.66899 0.85882 0.0
C551 C 0.76788 0.69114 0.78758 0.0
C552 C 0.82278 0.63411 0.77698 0.0
C553 C 0.79215 0.68601 0.77674 0.0
N554 N 0.78204 0.64356 0.79376 0.0
N555 N 0.81573 0.61029 0.78738 0.0
C556 C 0.7423 0.74501 0.79271 0.0
H557 H 0.69518 0.73828 0.79414 0.0
H558 H 0.74891 0.78386 0.78726 0.0
H559 H 0.76323 0.75358 0.80105 0.0
C560 C 0.75234 0.49422 0.82946 0.0
N561 N 0.75654 0.55124 0.82699 0.0
N562 N 0.75608 0.558 0.81582 0.0
C563 C 0.75031 0.50529 0.81087 0.0
C564 C 0.74947 0.46291 0.81937 0.0
C565 C 0.75304 0.47043 0.84134 0.0
H566 H 0.72301 0.49605 0.84676 0.0
H567 H 0.73958 0.42408 0.84158 0.0
H568 H 0.7974 0.47471 0.84492 0.0
O569 O 0.85749 0.63279 0.8342 0.0
O570 O 0.84731 0.65946 0.81611 0.0
H571 H 0.79603 0.48341 0.79563 0.0
H572 H 0.72222 0.45974 0.7957 0.0
C573 C 0.75141 0.49553 0.79826 0.0
H574 H 0.73733 0.53534 0.79373 0.0
H575 H 0.83719 0.57326 0.79031 0.0
O576 O 0.77472 0.58834 0.85373 0.0
C577 C 0.87732 0.65582 0.82516 0.0
Co578 Co 0.59036 0.54644 0.0894 0.0
Co579 Co 0.58087 0.52533 0.06267 0.0
C580 C 0.49893 0.46829 0.07737 0.0
O581 O 0.5197 0.49601 0.08594 0.0
O582 O 0.52663 0.46558 0.06801 0.0
C583 C 0.64038 0.52527 0.11261 0.0
O584 O 0.66139 0.47621 0.10859 0.0
C585 C 0.53324 0.51993 0.0397 0.0
C586 C 0.6008 0.56194 0.02923 0.0
C587 C 0.54508 0.53938 0.02872 0.0
N588 N 0.58033 0.52907 0.04628 0.0
N589 N 0.62027 0.55487 0.03996 0.0
C590 C 0.47498 0.50382 0.0444 0.0
H591 H 0.46982 0.52164 0.05312 0.0
H592 H 0.47159 0.45571 0.04482 0.0
H593 H 0.43925 0.5209 0.03903 0.0
C594 C 0.71523 0.54181 0.08329 0.0
N595 N 0.65903 0.53382 0.08051 0.0
N596 N 0.65571 0.51914 0.06967 0.0
C597 C 0.71008 0.51221 0.06554 0.0
C598 C 0.74979 0.52733 0.074 0.0
C599 C 0.73492 0.57282 0.09383 0.0
H600 H 0.70001 0.60146 0.09712 0.0
H601 H 0.74674 0.54058 0.10046 0.0
H602 H 0.77385 0.59977 0.09204 0.0
O603 O 0.55996 0.62052 0.08499 0.0
O604 O 0.54375 0.59979 0.06677 0.0
H605 H 0.73974 0.52045 0.0483 0.0
H606 H 0.75895 0.45348 0.05507 0.0
C607 C 0.72381 0.48622 0.05416 0.0
H608 H 0.68478 0.46527 0.05045 0.0
H609 H 0.65879 0.57213 0.04314 0.0
O610 O 0.60847 0.55663 0.1062 0.0
C611 C 0.5383 0.63302 0.07536 0.0
Co612 Co 0.68898 0.36568 0.33655 0.0
Co613 Co 0.68905 0.35515 0.30936 0.0
C614 C 0.75612 0.2726 0.32314 0.0
O615 O 0.73656 0.29414 0.33246 0.0
O616 O 0.74792 0.29787 0.31363 0.0
C617 C 0.66832 0.36271 0.36122 0.0
O618 O 0.64059 0.31415 0.35891 0.0
C619 C 0.68644 0.30579 0.28624 0.0
C620 C 0.64501 0.37453 0.27598 0.0
C621 C 0.66698 0.31843 0.27529 0.0
N622 N 0.67822 0.3528 0.29296 0.0
N623 N 0.65243 0.39333 0.28677 0.0
C624 C 0.7032 0.24713 0.29071 0.0
H625 H 0.68781 0.24174 0.2996 0.0
H626 H 0.75113 0.24321 0.29054 0.0
H627 H 0.6843 0.21177 0.28545 0.0
C628 C 0.7074 0.48881 0.33037 0.0
N629 N 0.70234 0.43271 0.32718 0.0
N630 N 0.70535 0.42937 0.31597 0.0
C631 C 0.7155 0.48324 0.31177 0.0
C632 C 0.71622 0.52287 0.32075 0.0
C633 C 0.69781 0.50966 0.34231 0.0
H634 H 0.65969 0.48708 0.34602 0.0
H635 H 0.73649 0.49898 0.34754 0.0
H636 H 0.68985 0.55722 0.34266 0.0
O637 O 0.6101 0.33832 0.33414 0.0
O638 O 0.61593 0.324 0.31546 0.0
H639 H 0.69039 0.51419 0.29532 0.0
H640 H 0.76407 0.52965 0.29906 0.0
C641 C 0.72939 0.49621 0.29958 0.0
H642 H 0.74373 0.45622 0.2951 0.0
H643 H 0.63692 0.43259 0.29001 0.0
O644 O 0.69479 0.38901 0.35318 0.0
C645 C 0.58888 0.31938 0.32487 0.0
Co646 Co 0.87692 0.44972 0.58654 0.0
Co647 Co 0.88847 0.45373 0.5592 0.0
C648 C 0.97215 0.5161 0.57472 0.0
O649 O 0.94806 0.49888 0.58396 0.0
O650 O 0.94998 0.50535 0.56502 0.0
C651 C 0.8493 0.46589 0.61199 0.0
O652 O 0.85316 0.52282 0.61126 0.0
C653 C 0.93809 0.46723 0.53615 0.0
C654 C 0.88044 0.41183 0.5258 0.0
C655 C 0.9311 0.44411 0.52527 0.0
N656 N 0.89271 0.45065 0.54269 0.0
N657 N 0.8589 0.41696 0.53642 0.0
C658 C 0.99231 0.49372 0.5409 0.0
H659 H 0.00624 0.4688 0.54851 0.0
H660 H 0.98309 0.53919 0.54349 0.0
H661 H 0.02878 0.49324 0.53476 0.0
C662 C 0.75487 0.47518 0.5804 0.0
N663 N 0.81088 0.46926 0.5773 0.0
N664 N 0.81446 0.47035 0.56606 0.0
C665 C 0.76062 0.47774 0.56173 0.0
C666 C 0.72081 0.47991 0.57069 0.0
C667 C 0.73473 0.47643 0.59252 0.0
H668 H 0.76207 0.50723 0.5974 0.0
H669 H 0.68884 0.49045 0.59326 0.0
H670 H 0.73986 0.43249 0.59632 0.0
O671 O 0.9042 0.37303 0.58215 0.0
O672 O 0.91321 0.37583 0.56337 0.0
H673 H 0.73828 0.43098 0.54668 0.0
H674 H 0.70844 0.50245 0.54708 0.0
C675 C 0.74722 0.47653 0.54925 0.0
H676 H 0.78442 0.49379 0.54433 0.0
H677 H 0.82382 0.39342 0.53959 0.0
O678 O 0.85707 0.43487 0.60312 0.0
C679 C 0.9184 0.34941 0.57279 0.0
Co680 Co 0.78901 0.35381 0.68048 0.0
Co681 Co 0.78057 0.33851 0.70734 0.0
C682 C 0.71917 0.25875 0.69306 0.0
O683 O 0.74388 0.28019 0.68422 0.0
O684 O 0.71916 0.28592 0.70249 0.0
C685 C 0.81065 0.35407 0.65589 0.0
O686 O 0.83893 0.30565 0.65805 0.0
C687 C 0.7813 0.2832 0.72974 0.0
C688 C 0.82241 0.34822 0.74093 0.0
C689 C 0.8004 0.29203 0.74083 0.0
N690 N 0.78982 0.33233 0.72367 0.0
N691 N 0.81527 0.37074 0.7304 0.0
C692 C 0.76488 0.22619 0.72448 0.0
H693 H 0.78133 0.22375 0.71562 0.0
H694 H 0.71692 0.22254 0.72438 0.0
H695 H 0.78296 0.18902 0.72937 0.0
C696 C 0.77273 0.47602 0.68736 0.0
N697 N 0.77475 0.41928 0.69017 0.0
N698 N 0.76834 0.41399 0.70128 0.0
C699 C 0.75865 0.4672 0.70578 0.0
C700 C 0.76202 0.50844 0.69712 0.0
C701 C 0.78705 0.4987 0.67572 0.0
H702 H 0.82355 0.47339 0.67206 0.0
H703 H 0.74868 0.4934 0.67011 0.0
H704 H 0.79962 0.54528 0.67595 0.0
O705 O 0.8679 0.32767 0.68304 0.0
O706 O 0.85344 0.30644 0.70128 0.0
H707 H 0.77916 0.49443 0.72273 0.0
H708 H 0.70696 0.51185 0.71826 0.0
C709 C 0.74129 0.47798 0.71788 0.0
H710 H 0.72515 0.43735 0.72189 0.0
H711 H 0.83098 0.41096 0.7277 0.0
O712 O 0.78344 0.37913 0.66398 0.0
C713 C 0.88447 0.30459 0.69232 0.0
Co714 Co 0.87516 0.55217 0.93212 0.0
Co715 Co 0.89166 0.54012 0.95922 0.0
C716 C 0.97431 0.48686 0.94395 0.0
O717 O 0.95094 0.51114 0.93527 0.0
O718 O 0.94803 0.48382 0.95346 0.0
C719 C 0.84636 0.52643 0.90699 0.0
O720 O 0.85033 0.47006 0.90871 0.0
C721 C 0.94307 0.52877 0.98223 0.0
C722 C 0.88355 0.58145 0.99273 0.0
C723 C 0.93527 0.55074 0.9932 0.0
N724 N 0.89729 0.54457 0.97572 0.0
N725 N 0.86238 0.57668 0.98208 0.0
C726 C -0.00226 0.50343 0.97743 0.0
H727 H 0.0093 0.52667 0.96946 0.0
H728 H 0.99043 0.45691 0.97534 0.0
H729 H 0.03479 0.50726 0.9834 0.0
C730 C 0.75484 0.52371 0.93885 0.0
N731 N 0.81125 0.52945 0.9416 0.0
N732 N 0.81687 0.52517 0.95278 0.0
C733 C 0.76417 0.51497 0.9574 0.0
C734 C 0.72289 0.51506 0.94874 0.0
C735 C 0.73234 0.52682 0.9269 0.0
H736 H 0.75591 0.49472 0.9216 0.0
H737 H 0.68532 0.51697 0.9264 0.0
H738 H 0.7408 0.57081 0.92336 0.0
O739 O 0.89649 0.63105 0.93626 0.0
O740 O 0.91979 0.61656 0.95438 0.0
H741 H 0.73973 0.55294 0.97329 0.0
H742 H 0.71775 0.47885 0.97181 0.0
C743 C 0.75312 0.50987 0.96993 0.0
H744 H 0.79271 0.49475 0.97437 0.0
H745 H 0.82615 0.59877 0.97899 0.0
O746 O 0.85479 0.56131 0.91529 0.0
C747 C 0.91863 0.64849 0.94555 0.0
Co748 Co 0.69826 0.66969 0.17856 0.0
Co749 Co 0.71351 0.67937 0.20549 0.0
C750 C 0.77526 0.75984 0.19126 0.0
O751 O 0.7491 0.73969 0.18245 0.0
O752 O 0.77545 0.73186 0.20062 0.0
C753 C 0.72537 0.61928 0.15563 0.0
O754 O 0.77403 0.59991 0.16008 0.0
C755 C 0.71557 0.72603 0.22878 0.0
C756 C 0.67066 0.65822 0.23872 0.0
C757 C 0.69464 0.71337 0.23963 0.0
N758 N 0.70592 0.67993 0.22191 0.0
N759 N 0.67831 0.6399 0.22792 0.0
C760 C 0.73449 0.78436 0.22449 0.0
H761 H 0.72018 0.7905 0.21556 0.0
H762 H 0.78251 0.78679 0.22483 0.0
H763 H 0.71617 0.82004 0.22975 0.0
C764 C 0.70232 0.54415 0.18472 0.0
N765 N 0.70825 0.6007 0.18759 0.0
N766 N 0.71999 0.60418 0.19857 0.0
C767 C 0.72667 0.54974 0.20275 0.0
C768 C 0.71479 0.50979 0.19413 0.0
C769 C 0.67584 0.52343 0.17379 0.0
H770 H 0.6474 0.55749 0.17011 0.0
H771 H 0.71063 0.51245 0.16763 0.0
H772 H 0.64969 0.48353 0.17524 0.0
O773 O 0.62367 0.70179 0.18225 0.0
O774 O 0.64168 0.71838 0.20055 0.0
H775 H 0.71381 0.51975 0.21986 0.0
H776 H 0.78263 0.50117 0.21384 0.0
C777 C 0.74947 0.53613 0.21439 0.0
H778 H 0.76894 0.57541 0.21833 0.0
H779 H 0.66086 0.60191 0.2245 0.0
O780 O 0.69196 0.65075 0.16171 0.0
C781 C 0.61022 0.72459 0.19174 0.0
Co782 Co 0.60297 0.45212 0.43101 0.0
Co783 Co 0.58708 0.46716 0.45811 0.0
C784 C 0.50177 0.51505 0.44208 0.0
O785 O 0.52687 0.49218 0.43346 0.0
O786 O 0.52577 0.51652 0.45182 0.0
C787 C 0.63001 0.46947 0.40561 0.0
O788 O 0.62599 0.5263 0.40657 0.0
C789 C 0.53428 0.48086 0.48092 0.0
C790 C 0.59487 0.43151 0.4918 0.0
C791 C 0.54185 0.4599 0.49198 0.0
N792 N 0.58143 0.46664 0.47463 0.0
N793 N 0.61701 0.43658 0.48123 0.0
C794 C 0.47884 0.5028 0.47582 0.0
H795 H 0.46761 0.47594 0.46828 0.0
H796 H 0.48498 0.5484 0.47295 0.0
H797 H 0.44197 0.50067 0.48186 0.0
C798 C 0.72197 0.48352 0.43722 0.0
N799 N 0.66569 0.47944 0.44013 0.0
N800 N 0.66069 0.48508 0.45131 0.0
C801 C 0.71391 0.49456 0.45574 0.0
C802 C 0.7546 0.49206 0.44698 0.0
C803 C 0.74399 0.47664 0.42529 0.0
H804 H 0.72004 0.50678 0.41963 0.0
H805 H 0.79095 0.48663 0.42462 0.0
H806 H 0.73584 0.43148 0.42235 0.0
O807 O 0.58557 0.37425 0.43606 0.0
O808 O 0.56544 0.38732 0.45435 0.0
H809 H 0.74053 0.45738 0.47158 0.0
H810 H 0.7613 0.53177 0.46983 0.0
C811 C 0.72614 0.50012 0.46821 0.0
H812 H 0.68693 0.51515 0.47279 0.0
H813 H 0.65415 0.41533 0.47833 0.0
O814 O 0.62258 0.43758 0.41439 0.0
C815 C 0.56774 0.3552 0.44558 0.0
Co816 Co 0.20963 0.33133 0.21763 0.0
Co817 Co 0.1425 0.33807 0.19419 0.0
C818 C 0.20326 0.23115 0.20074 0.0
O819 O 0.22173 0.25503 0.20984 0.0
O820 O 0.17241 0.25886 0.1936 0.0
C821 C 0.29315 0.28966 0.23378 0.0
O822 O 0.31439 0.26201 0.22491 0.0
C823 C 0.11313 0.33654 0.16984 0.0
C824 C 0.04477 0.40395 0.16899 0.0
C825 C 0.07726 0.36622 0.16238 0.0
N826 N 0.10257 0.35604 0.18044 0.0
N827 N 0.0608 0.39542 0.1799 0.0
C828 C 0.16041 0.29449 0.1669 0.0
H829 H 0.19796 0.30066 0.17269 0.0
H830 H 0.17455 0.2997 0.15792 0.0
H831 H 0.14392 0.24951 0.16809 0.0
C832 C 0.24519 0.4504 0.20921 0.0
N833 N 0.22237 0.39679 0.20772 0.0
N834 N 0.2 0.39407 0.19741 0.0
C835 C 0.21063 0.44402 0.19183 0.0
C836 C 0.23763 0.48249 0.19919 0.0
C837 C 0.26665 0.4725 0.22043 0.0
H838 H 0.25187 0.44385 0.22747 0.0
H839 H 0.31479 0.47305 0.22034 0.0
H840 H 0.2512 0.51764 0.22192 0.0
O841 O 0.12879 0.32916 0.22273 0.0
O842 O 0.0833 0.33848 0.20617 0.0
H843 H 0.15075 0.46849 0.17871 0.0
H844 H 0.22483 0.48855 0.17586 0.0
C845 C 0.19649 0.45429 0.17954 0.0
H846 H 0.20271 0.41363 0.17462 0.0
H847 H 0.04499 0.41825 0.18694 0.0
O848 O 0.25443 0.32841 0.23219 0.0
C849 C 0.08249 0.33323 0.21695 0.0
Co850 Co 0.3751 0.468 0.96898 0.0
Co851 Co 0.37854 0.44565 0.94268 0.0
C852 C 0.47398 0.50403 0.95216 0.0
O853 O 0.45022 0.49327 0.96175 0.0
O854 O 0.44752 0.49483 0.94284 0.0
C855 C 0.40912 0.5407 0.98731 0.0
O856 O 0.42844 0.57345 0.97895 0.0
C857 C 0.39045 0.4146 0.91826 0.0
C858 C 0.31283 0.35909 0.91607 0.0
C859 C 0.36019 0.38152 0.91028 0.0
N860 N 0.36116 0.41283 0.92816 0.0
N861 N 0.31543 0.37883 0.92683 0.0
C862 C 0.44917 0.44171 0.91699 0.0
H863 H 0.47359 0.43812 0.92509 0.0
H864 H 0.44403 0.48856 0.91492 0.0
H865 H 0.47462 0.42017 0.91016 0.0
C866 C 0.25086 0.49505 0.96239 0.0
N867 N 0.30747 0.48591 0.95998 0.0
N868 N 0.31332 0.48393 0.94883 0.0
C869 C 0.26223 0.496 0.94382 0.0
C870 C 0.22013 0.5012 0.95219 0.0
C871 C 0.2262 0.49308 0.97417 0.0
H872 H 0.25731 0.51251 0.9803 0.0
H873 H 0.18399 0.51634 0.97456 0.0
H874 H 0.21926 0.44698 0.97664 0.0
O875 O 0.38557 0.38429 0.97033 0.0
O876 O 0.39848 0.37648 0.95171 0.0
H877 H 0.22683 0.45968 0.92847 0.0
H878 H 0.22861 0.53749 0.92878 0.0
C879 C 0.25294 0.49781 0.93118 0.0
H880 H 0.2948 0.49921 0.92657 0.0
H881 H 0.28612 0.36879 0.93332 0.0
O882 O 0.37672 0.49753 0.98493 0.0
C883 C 0.39957 0.35463 0.96166 0.0
Co884 Co 0.28034 0.62837 0.71838 0.0
Co885 Co 0.31588 0.64184 0.69269 0.0
C886 C 0.23636 0.72278 0.70147 0.0
O887 O 0.24724 0.69943 0.71107 0.0
O888 O 0.25149 0.69811 0.69223 0.0
C889 C 0.20173 0.65347 0.73644 0.0
O890 O 0.16972 0.67317 0.72802 0.0
C891 C 0.33102 0.63875 0.66772 0.0
C892 C 0.42601 0.62726 0.66632 0.0
C893 C 0.37584 0.6319 0.65989 0.0
N894 N 0.35384 0.63778 0.67826 0.0
N895 N 0.41067 0.6315 0.67735 0.0
C896 C 0.26727 0.64185 0.6654 0.0
H897 H 0.24238 0.62657 0.67293 0.0
H898 H 0.25583 0.61528 0.65783 0.0
H899 H 0.25507 0.68777 0.66371 0.0
C900 C 0.27078 0.50302 0.71088 0.0
N901 N 0.27869 0.56033 0.70883 0.0
N902 N 0.29465 0.56686 0.69812 0.0
C903 C 0.29784 0.51427 0.69307 0.0
C904 C 0.28259 0.47181 0.70093 0.0
C905 C 0.25373 0.4788 0.72223 0.0
H906 H 0.29354 0.46893 0.72718 0.0
H907 H 0.22785 0.5112 0.72706 0.0
H908 H 0.22856 0.43795 0.72119 0.0
O909 O 0.3606 0.65324 0.721 0.0
O910 O 0.3718 0.6794 0.70293 0.0
H911 H 0.36554 0.52536 0.6808 0.0
H912 H 0.32814 0.45783 0.67936 0.0
C913 C 0.32236 0.50452 0.68139 0.0
H914 H 0.29336 0.52461 0.67496 0.0
H915 H 0.43888 0.62904 0.68429 0.0
O916 O 0.24667 0.62346 0.73408 0.0
C917 C 0.3875 0.68116 0.7133 0.0
Co918 Co 0.10082 0.52735 0.46584 0.0
Co919 Co 0.09144 0.54118 0.43938 0.0
C920 C 0.00319 0.48017 0.44978 0.0
O921 O 0.0275 0.49701 0.45895 0.0
O922 O 0.02912 0.48396 0.44024 0.0
C923 C 0.07241 0.45478 0.48454 0.0
O924 O 0.05799 0.41865 0.47635 0.0
C925 C 0.07464 0.56475 0.41463 0.0
C926 C 0.14633 0.62678 0.41161 0.0
C927 C 0.10139 0.59797 0.40616 0.0
N928 N 0.10374 0.57264 0.42445 0.0
N929 N 0.1458 0.61054 0.4226 0.0
C930 C 0.01916 0.53116 0.41382 0.0
H931 H -0.00447 0.53293 0.42204 0.0
H932 H 0.02916 0.48496 0.41188 0.0
H933 H 0.99069 0.54905 0.40705 0.0
C934 C 0.225 0.50598 0.45916 0.0
N935 N 0.16805 0.51197 0.45679 0.0
N936 N 0.1615 0.51247 0.44564 0.0
C937 C 0.2131 0.50302 0.4406 0.0
C938 C 0.25562 0.50069 0.44895 0.0
C939 C 0.24969 0.5093 0.47092 0.0
H940 H 0.21929 0.48916 0.47711 0.0
H941 H 0.29261 0.48742 0.47133 0.0
H942 H 0.25518 0.55571 0.4733 0.0
O943 O 0.08492 0.61042 0.46636 0.0
O944 O 0.06078 0.6077 0.44811 0.0
H945 H 0.24417 0.54103 0.42505 0.0
H946 H 0.24991 0.46345 0.4256 0.0
C947 C 0.22207 0.50076 0.42795 0.0
H948 H 0.18033 0.49498 0.42344 0.0
H949 H 0.17428 0.6253 0.42888 0.0
O950 O 0.10042 0.50074 0.482 0.0
C951 C 0.05986 0.63267 0.45777 0.0
Co952 Co 0.20027 0.63084 0.30268 0.0
Co953 Co 0.12351 0.63147 0.32493 0.0
C954 C 0.21606 0.72237 0.32015 0.0
O955 O 0.23548 0.69597 0.3114 0.0
O956 O 0.17403 0.70151 0.3259 0.0
C957 C 0.28106 0.65882 0.28501 0.0
O958 O 0.31122 0.68097 0.29345 0.0
C959 C 0.10748 0.62879 0.34959 0.0
C960 C 0.01578 0.60222 0.35141 0.0
C961 C 0.0652 0.61566 0.35758 0.0
N962 N 0.08428 0.62322 0.33916 0.0
N963 N 0.02919 0.60818 0.34029 0.0
C964 C 0.17023 0.64146 0.35171 0.0
H965 H 0.17567 0.68891 0.35311 0.0
H966 H 0.1967 0.62868 0.3442 0.0
H967 H 0.1858 0.61814 0.35941 0.0
C968 C 0.21113 0.50416 0.30976 0.0
N969 N 0.19353 0.55972 0.31139 0.0
N970 N 0.16287 0.56184 0.32087 0.0
C971 C 0.16005 0.50825 0.32553 0.0
C972 C 0.19063 0.46973 0.31871 0.0
C973 C 0.24564 0.4843 0.2997 0.0
H974 H 0.27344 0.52023 0.29651 0.0
H975 H 0.27269 0.44598 0.30195 0.0
H976 H 0.21539 0.47148 0.29279 0.0
O977 O 0.12379 0.66255 0.29858 0.0
O978 O 0.06532 0.65061 0.31342 0.0
H979 H 0.07809 0.5088 0.33405 0.0
H980 H 0.12072 0.44536 0.33706 0.0
C981 C 0.1228 0.49293 0.33555 0.0
H982 H 0.14018 0.51441 0.34329 0.0
H983 H 0.00118 0.60042 0.33347 0.0
O984 O 0.23765 0.62656 0.2873 0.0
C985 C 0.07419 0.66655 0.3032 0.0
Co986 Co 0.08935 0.45995 0.05415 0.0
Co987 Co 0.08221 0.42492 0.08016 0.0
C988 C -0.00079 0.50672 0.07146 0.0
O989 O 0.01983 0.49842 0.0615 0.0
O990 O 0.02538 0.48759 0.08022 0.0
C991 C 0.06582 0.53518 0.03529 0.0
O992 O 0.04883 0.57055 0.04343 0.0
C993 C 0.08218 0.41098 0.10543 0.0
C994 C 0.09979 0.31665 0.10676 0.0
C995 C 0.08955 0.36589 0.11327 0.0
N996 N 0.08868 0.38913 0.09486 0.0
N997 N 0.0989 0.33271 0.09575 0.0
C998 C 0.0662 0.47294 0.10785 0.0
H999 H 0.04565 0.49353 0.10038 0.0
H1000 H 0.10611 0.49787 0.10988 0.0
H1001 H 0.03598 0.47556 0.1152 0.0
C1002 C 0.21733 0.46812 0.06093 0.0
N1003 N 0.16015 0.46105 0.06327 0.0
N1004 N 0.15519 0.44675 0.07412 0.0
C1005 C 0.20808 0.44478 0.07899 0.0
C1006 C 0.24968 0.4582 0.07085 0.0
C1007 C 0.24061 0.4823 0.04938 0.0
H1008 H 0.20796 0.50703 0.04439 0.0
H1009 H 0.28149 0.50764 0.05007 0.0
H1010 H 0.25015 0.44114 0.0448 0.0
O1011 O 0.06152 0.37955 0.05231 0.0
O1012 O 0.04476 0.36617 0.07073 0.0
H1013 H 0.2035 0.37801 0.0916 0.0
H1014 H 0.26486 0.42449 0.09335 0.0
C1015 C 0.21852 0.42364 0.0909 0.0
H1016 H 0.19319 0.45058 0.09696 0.0
H1017 H 0.10507 0.30504 0.0888 0.0
O1018 O 0.09314 0.48901 0.03802 0.0
C1019 C 0.03881 0.35085 0.06041 0.0
Co1020 Co 0.28836 0.32341 0.80496 0.0
Co1021 Co 0.34365 0.32193 0.82956 0.0
C1022 C 0.26319 0.22881 0.8223 0.0
O1023 O 0.25634 0.25277 0.8126 0.0
O1024 O 0.29426 0.2524 0.82996 0.0
C1025 C 0.20636 0.29926 0.78715 0.0
O1026 O 0.17415 0.27989 0.79558 0.0
C1027 C 0.35627 0.32753 0.85437 0.0
C1028 C 0.44749 0.35602 0.85616 0.0
C1029 C 0.39794 0.34305 0.86233 0.0
N1030 N 0.38001 0.33165 0.84396 0.0
N1031 N 0.43484 0.34758 0.84509 0.0
C1032 C 0.29351 0.31467 0.85645 0.0
H1033 H 0.26775 0.3227 0.84861 0.0
H1034 H 0.27655 0.34172 0.86355 0.0
H1035 H 0.2888 0.26819 0.85885 0.0
C1036 C 0.26761 0.44852 0.81225 0.0
N1037 N 0.28364 0.39286 0.81431 0.0
N1038 N 0.30522 0.39016 0.8247 0.0
C1039 C 0.30349 0.44328 0.82955 0.0
C1040 C 0.27949 0.48217 0.82188 0.0
C1041 C 0.24439 0.46949 0.80109 0.0
H1042 H 0.21716 0.43526 0.79711 0.0
H1043 H 0.21879 0.51004 0.80221 0.0
H1044 H 0.28131 0.47872 0.79528 0.0
O1045 O 0.37007 0.30322 0.80165 0.0
O1046 O 0.40634 0.30473 0.81915 0.0
H1047 H 0.37851 0.44497 0.84024 0.0
H1048 H 0.33118 0.50538 0.84251 0.0
C1049 C 0.33238 0.45821 0.84061 0.0
H1050 H 0.31077 0.43441 0.84764 0.0
H1051 H 0.46306 0.35468 0.83827 0.0
O1052 O 0.25275 0.32699 0.78945 0.0
C1053 C 0.4123 0.29748 0.8085 0.0
Co1054 Co 0.37672 0.54093 0.55179 0.0
Co1055 Co 0.3886 0.57119 0.57776 0.0
C1056 C 0.47065 0.49417 0.56861 0.0
O1057 O 0.44778 0.50694 0.55904 0.0
O1058 O 0.44537 0.50711 0.57791 0.0
C1059 C 0.40331 0.46626 0.53313 0.0
O1060 O 0.42139 0.43182 0.54133 0.0
C1061 C 0.38541 0.58504 0.60283 0.0
C1062 C 0.37042 0.67982 0.60426 0.0
C1063 C 0.37709 0.62967 0.61068 0.0
N1064 N 0.38331 0.60799 0.5923 0.0
N1065 N 0.37494 0.6647 0.59323 0.0
C1066 C 0.3911 0.52127 0.60514 0.0
H1067 H 0.37686 0.49576 0.59761 0.0
H1068 H 0.36515 0.50869 0.61272 0.0
H1069 H 0.43734 0.5109 0.60682 0.0
C1070 C 0.251 0.52931 0.55903 0.0
N1071 N 0.30812 0.53685 0.56119 0.0
N1072 N 0.31425 0.55017 0.57205 0.0
C1073 C 0.2617 0.55165 0.5771 0.0
C1074 C 0.21955 0.53833 0.56907 0.0
C1075 C 0.22709 0.51542 0.5475 0.0
H1076 H 0.25973 0.49142 0.54238 0.0
H1077 H 0.18666 0.48942 0.54826 0.0
H1078 H 0.21672 0.55668 0.54303 0.0
O1079 O 0.40072 0.62204 0.54981 0.0
O1080 O 0.42629 0.62912 0.56796 0.0
H1081 H 0.27022 0.61702 0.58993 0.0
H1082 H 0.2052 0.57558 0.59128 0.0
C1083 C 0.25176 0.57281 0.58903 0.0
H1084 H 0.27403 0.54343 0.59511 0.0
H1085 H 0.37128 0.69298 0.58631 0.0
O1086 O 0.37351 0.511 0.53576 0.0
C1087 C 0.42847 0.64719 0.55773 0.0
C1088 C 0.46567 0.2243 0.31514 0.0
C1089 C 0.44233 0.20552 0.32557 0.0
H1090 H 0.5292 0.27631 0.30674 0.0
C1091 C 0.4665 0.22594 0.3358 0.0
H1092 H 0.4477 0.20974 0.3071 0.0
C1093 C 0.51281 0.2649 0.3356 0.0
C1094 C 0.53596 0.28377 0.32515 0.0
H1095 H 0.449 0.2128 0.34398 0.0
H1096 H 0.53094 0.27948 0.34362 0.0
C1097 C 0.51196 0.26303 0.31493 0.0
C1098 C 0.96598 0.26614 0.56291 0.0
C1099 C 0.95032 0.29432 0.57308 0.0
H1100 H 0.0134 0.19639 0.55525 0.0
C1101 C 0.97133 0.27325 0.58351 0.0
H1102 H 0.95071 0.2818 0.55473 0.0
C1103 C 0.00809 0.22551 0.58378 0.0
C1104 C 0.02394 0.19731 0.57363 0.0
H1105 H 0.96058 0.29441 0.59149 0.0
H1106 H 0.02327 0.21024 0.59199 0.0
C1107 C 0.00238 0.21778 0.56319 0.0
C1108 C 0.95964 0.70377 0.81523 0.0
C1109 C 0.93352 0.68534 0.82543 0.0
H1110 H 0.02965 0.75021 0.80751 0.0
C1111 C 0.95855 0.70047 0.8359 0.0
H1112 H 0.94095 0.69291 0.80703 0.0
C1113 C 0.0086 0.73409 0.83617 0.0
C1114 C 0.03481 0.75255 0.82598 0.0
H1115 H 0.93884 0.6875 0.84389 0.0
H1116 H 0.0271 0.74487 0.84439 0.0
C1117 C 0.01005 0.73697 0.8155 0.0
C1118 C 0.45661 0.76079 0.06338 0.0
C1119 C 0.433 0.78461 0.07339 0.0
H1120 H 0.50989 0.69384 0.05619 0.0
C1121 C 0.43908 0.75455 0.08374 0.0
H1122 H 0.45231 0.78288 0.05526 0.0
C1123 C 0.47319 0.70498 0.0843 0.0
C1124 C 0.50072 0.68392 0.07448 0.0
H1125 H 0.42066 0.77128 0.09159 0.0
H1126 H 0.47887 0.68383 0.09248 0.0
C1127 C 0.49017 0.71044 0.06392 0.0
C1128 C 0.53961 0.78307 0.20298 0.0
C1129 C 0.5591 0.76227 0.1924 0.0
H1130 H 0.47256 0.8275 0.21198 0.0
C1131 C 0.53017 0.779 0.1824 0.0
H1132 H 0.56212 0.77221 0.2108 0.0
C1133 C 0.4796 0.81168 0.18305 0.0
C1134 C 0.45672 0.8273 0.19372 0.0
H1135 H 0.54544 0.7653 0.17409 0.0
H1136 H 0.45632 0.82086 0.17523 0.0
C1137 C 0.48878 0.8155 0.20363 0.0
C1138 C 0.51915 0.27493 0.45624 0.0
C1139 C 0.53982 0.29804 0.44592 0.0
H1140 H 0.46914 0.20781 0.46425 0.0
C1141 C 0.52693 0.2698 0.43563 0.0
H1142 H 0.52839 0.29604 0.46429 0.0
C1143 C 0.49209 0.22077 0.4356 0.0
C1144 C 0.47022 0.19833 0.44586 0.0
H1145 H 0.542 0.2866 0.42753 0.0
H1146 H 0.48273 0.20024 0.42749 0.0
C1147 C 0.48482 0.225 0.45622 0.0
C1148 C 0.0168 0.22086 0.68287 0.0
C1149 C 0.03626 0.19811 0.6933 0.0
H1150 H 0.95389 0.27385 0.67439 0.0
C1151 C 0.00531 0.21036 0.70332 0.0
H1152 H 0.04019 0.21253 0.67502 0.0
C1153 C 0.95668 0.24589 0.70298 0.0
C1154 C 0.93787 0.26987 0.69261 0.0
H1155 H 0.01932 0.19347 0.71149 0.0
H1156 H 0.93398 0.25464 0.71088 0.0
C1157 C 0.96799 0.25667 0.68253 0.0
C1158 C 0.01066 0.77282 0.95593 0.0
C1159 C 0.02917 0.7972 0.94558 0.0
H1160 H 0.95982 0.70703 0.96405 0.0
C1161 C 0.00874 0.774 0.93527 0.0
H1162 H 0.02526 0.79023 0.96402 0.0
C1163 C 0.97033 0.72741 0.93529 0.0
C1164 C 0.95226 0.70262 0.94563 0.0
H1165 H 0.02159 0.79234 0.92714 0.0
H1166 H 0.95604 0.70995 0.92719 0.0
C1167 C 0.97269 0.72571 0.95596 0.0
C1168 C 0.42538 0.78023 0.71105 0.0
C1169 C 0.42987 0.72577 0.71639 0.0
H1170 H 0.46827 0.85929 0.70666 0.0
C1171 C 0.47677 0.71424 0.72364 0.0
H1172 H 0.38869 0.79053 0.70563 0.0
C1173 C 0.52266 0.75409 0.72425 0.0
C1174 C 0.52114 0.80529 0.71765 0.0
H1175 H 0.48034 0.67271 0.72795 0.0
H1176 H 0.56166 0.74182 0.72881 0.0
C1177 C 0.47045 0.81995 0.71175 0.0
C1178 C 0.97373 0.6879 0.45155 0.0
C1179 C 0.02023 0.68213 0.45921 0.0
H1180 H 0.90306 0.73999 0.44585 0.0
C1181 C 0.02611 0.72209 0.46818 0.0
H1182 H 0.96657 0.65647 0.44481 0.0
C1183 C 0.98889 0.77015 0.46882 0.0
C1184 C 0.94543 0.77799 0.46055 0.0
H1185 H 0.06085 0.71765 0.47433 0.0
H1186 H -0.00323 0.80306 0.47525 0.0
C1187 C 0.93658 0.73513 0.45226 0.0
C1188 C 0.92622 0.3067 0.21719 0.0
C1189 C 0.92719 0.24791 0.22039 0.0
H1190 H 0.97717 0.38267 0.21404 0.0
C1191 C 0.97554 0.22503 0.22602 0.0
H1192 H 0.88878 0.32483 0.21286 0.0
C1193 C 0.02573 0.25877 0.22697 0.0
C1194 C 0.02765 0.31444 0.22197 0.0
H1195 H 0.97671 0.17961 0.22849 0.0
H1196 H 0.06508 0.23815 0.23002 0.0
C1197 C 0.97642 0.33996 0.21797 0.0
C1198 C 0.50879 0.24312 0.97089 0.0
C1199 C 0.50999 0.20836 0.96106 0.0
H1200 H 0.47069 0.3179 0.97894 0.0
C1201 C 0.46679 0.21553 0.95273 0.0
H1202 H 0.5409 0.23739 0.97754 0.0
C1203 C 0.42624 0.25972 0.95367 0.0
C1204 C 0.42821 0.29812 0.9629 0.0
H1205 H 0.4651 0.1878 0.94527 0.0
H1206 H 0.39568 0.26624 0.94676 0.0
C1207 C 0.46809 0.28826 0.97178 0.0
C1208 C 0.56468 0.24999 0.81076 0.0
C1209 C 0.56303 0.19759 0.80462 0.0
H1210 H 0.51815 0.325 0.81625 0.0
C1211 C 0.51572 0.18572 0.79748 0.0
H1212 H 0.6016 0.26103 0.81606 0.0
C1213 C 0.46752 0.22295 0.79757 0.0
C1214 C 0.46721 0.27214 0.80472 0.0
H1215 H 0.51429 0.14598 0.79252 0.0
H1216 H 0.42886 0.21044 0.79293 0.0
C1217 C 0.51739 0.28712 0.81074 0.0
C1218 C 0.56527 0.73298 0.5602 0.0
C1219 C 0.55245 0.78189 0.55356 0.0
H1220 H 0.53457 0.6527 0.56689 0.0
C1221 C 0.50317 0.78148 0.54647 0.0
H1222 H 0.60316 0.73228 0.56568 0.0
C1223 C 0.46339 0.73553 0.54718 0.0
C1224 C 0.47287 0.69058 0.55503 0.0
H1225 H 0.49231 0.81914 0.54134 0.0
H1226 H 0.42345 0.73752 0.54233 0.0
C1227 C 0.52552 0.68799 0.56102 0.0
C1228 C 0.97464 0.69152 0.29696 0.0
C1229 C 0.03274 0.70744 0.29832 0.0
H1230 H 0.88688 0.72135 0.29641 0.0
C1231 C 0.04854 0.76651 0.29809 0.0
H1232 H 0.96184 0.64617 0.2973 0.0
C1233 C 0.0058 0.80943 0.29809 0.0
C1234 C 0.9473 0.79337 0.29781 0.0
H1235 H 0.09334 0.77941 0.29935 0.0
H1236 H 0.01814 0.85448 0.29936 0.0
C1237 C 0.93206 0.73453 0.29642 0.0
C1238 C 0.97209 0.21348 0.04869 0.0
C1239 C 0.92858 0.20409 0.05691 0.0
H1240 H 0.04283 0.26835 0.04342 0.0
C1241 C 0.91558 0.24785 0.06479 0.0
H1242 H 0.98308 0.17981 0.04259 0.0
C1243 C 0.95003 0.29716 0.06538 0.0
C1244 C -0.00213 0.30363 0.05807 0.0
H1245 H 0.88204 0.24155 0.07115 0.0
H1246 H 0.9411 0.32881 0.07201 0.0
C1247 C 0.00672 0.26345 0.04925 0.0
C1248 C 0.34704 0.19173 0.25754 0.0
C1249 C 0.30637 0.20276 0.26622 0.0
H1250 H 0.37577 0.21147 0.2406 0.0
C1251 C 0.26444 0.24631 0.26442 0.0
H1252 H 0.37988 0.15844 0.25862 0.0
C1253 C 0.26279 0.27754 0.25418 0.0
C1254 C 0.30218 0.26506 0.24535 0.0
H1255 H 0.23104 0.25469 0.27069 0.0
H1256 H 0.22854 0.30923 0.25297 0.0
C1257 C 0.34497 0.22246 0.24724 0.0
C1258 C 0.94915 0.98882 0.50433 0.0
C1259 C 0.95436 0.03345 0.49616 0.0
H1260 H 0.97822 0.95444 0.52034 0.0
C1261 C 0.9907 0.08102 0.49862 0.0
H1262 H 0.92223 0.95113 0.50267 0.0
C1263 C 0.0226 0.08293 0.50876 0.0
C1264 C 0.0187 0.03763 0.51677 0.0
H1265 H -0.00395 0.1161 0.49254 0.0
H1266 H 0.05098 0.11972 0.51026 0.0
C1267 C 0.98119 0.99076 0.51449 0.0
C1268 C 0.14776 0.71679 0.75026 0.0
C1269 C 0.19451 0.67908 0.748 0.0
H1270 H 0.10981 0.77877 0.76169 0.0
C1271 C 0.23809 0.67293 0.75631 0.0
H1272 H 0.11353 0.72288 0.74405 0.0
C1273 C 0.23615 0.70554 0.7664 0.0
C1274 C 0.19028 0.74452 0.76848 0.0
H1275 H 0.27517 0.64498 0.75481 0.0
H1276 H 0.27184 0.70186 0.77235 0.0
C1277 C 0.14583 0.74925 0.76034 0.0
C1278 C 0.51692 0.01817 0.01437 0.0
C1279 C 0.4878 0.96661 0.01735 0.0
H1280 H 0.56966 0.06234 1.00204 0.0
C1281 C 0.49276 0.91808 0.01012 0.0
H1282 H 0.51247 0.05687 0.01956 0.0
C1283 C 0.52492 0.9213 1.00003 0.0
C1284 C 0.55287 0.97324 0.99686 0.0
H1285 H 0.4708 0.87772 0.01217 0.0
H1286 H 0.52629 0.88352 0.99451 0.0
C1287 C 0.54955 0.02131 1.00429 0.0
C1288 C 0.3399 0.74931 0.26064 0.0
C1289 C 0.29215 0.7521 0.25315 0.0
H1290 H 0.37443 0.7169 0.27635 0.0
C1291 C 0.2426 0.71893 0.25583 0.0
H1292 H 0.37915 0.77368 0.2589 0.0
C1293 C 0.24051 0.68514 0.26578 0.0
C1294 C 0.28747 0.68446 0.27344 0.0
H1295 H 0.20415 0.72075 0.25063 0.0
H1296 H 0.20075 0.66215 0.26778 0.0
C1297 C 0.33754 0.71619 0.27064 0.0
C1298 C 0.5155 0.00257 0.50515 0.0
C1299 C 0.47512 0.04718 0.50303 0.0
H1300 H 0.57721 0.96586 0.51676 0.0
C1301 C 0.46893 0.0918 0.51113 0.0
H1302 H 0.52026 0.96667 0.49925 0.0
C1303 C 0.50128 0.09118 0.52122 0.0
C1304 C 0.54045 0.04569 0.52351 0.0
H1305 H 0.43829 0.12687 0.50976 0.0
H1306 H 0.49402 0.12538 0.52741 0.0
C1307 C 0.54811 0.00205 0.51523 0.0
C1308 C 0.24305 0.27201 0.76772 0.0
C1309 C 0.1966 0.2764 0.77547 0.0
H1310 H 0.27433 0.23589 0.75207 0.0
C1311 C 0.143 0.25149 0.7725 0.0
H1312 H 0.28536 0.28944 0.76985 0.0
C1313 C 0.13633 0.22186 0.76215 0.0
C1314 C 0.18317 0.21613 0.75454 0.0
H1315 H 0.10651 0.25361 0.77831 0.0
H1316 H 0.09462 0.20258 0.76019 0.0
C1317 C 0.23664 0.24151 0.75747 0.0
C1318 C 0.95852 0.98335 0.01668 0.0
C1319 C 0.9679 0.94099 0.02515 0.0
H1320 H 0.98418 0.01743 1.00047 0.0
C1321 C 0.0079 0.89611 0.02295 0.0
H1322 H 0.92881 0.01912 0.01815 0.0
C1323 C 0.03918 0.89476 0.01272 0.0
C1324 C 0.03119 0.93813 1.00441 0.0
H1325 H 0.01644 0.86292 0.02929 0.0
H1326 H 0.0704 0.86016 0.0114 0.0
C1327 C 0.99019 0.98225 1.00649 0.0
C1328 C 0.83865 0.73141 0.75957 0.0
C1329 C 0.79089 0.72766 0.767 0.0
H1330 H 0.87326 0.76662 0.74409 0.0
C1331 C 0.74123 0.76104 0.76457 0.0
H1332 H 0.87759 0.70629 0.76118 0.0
C1333 C 0.73909 0.79652 0.75485 0.0
C1334 C 0.78613 0.79853 0.74719 0.0
H1335 H 0.70295 0.75786 0.76988 0.0
H1336 H 0.6993 0.81981 0.75302 0.0
C1337 C 0.83634 0.76639 0.74981 0.0
C1338 C 0.62342 0.288 0.25661 0.0
C1339 C 0.66669 0.2808 0.26494 0.0
H1340 H 0.59245 0.26493 0.24001 0.0
C1341 C 0.71118 0.24012 0.2629 0.0
H1342 H 0.5885 0.31888 0.2579 0.0
C1343 C 0.71302 0.20846 0.25269 0.0
C1344 C 0.67098 0.21743 0.24417 0.0
H1345 H 0.74626 0.23459 0.26892 0.0
H1346 H 0.74927 0.17936 0.25123 0.0
C1347 C 0.62546 0.25667 0.24638 0.0
C1348 C 0.75573 0.21013 0.75213 0.0
C1349 C 0.80106 0.25032 0.75053 0.0
H1350 H 0.7181 0.14474 0.76285 0.0
C1351 C 0.84601 0.25231 0.7586 0.0
H1352 H 0.71961 0.20844 0.74625 0.0
C1353 C 0.84507 0.21589 0.76817 0.0
C1354 C 0.79883 0.17692 0.76996 0.0
H1355 H 0.8816 0.28269 0.75761 0.0
H1356 H 0.87964 0.21988 0.77437 0.0
C1357 C 0.75479 0.17361 0.76169 0.0
C1358 C 0.73781 0.82188 0.26269 0.0
C1359 C 0.69302 0.81441 0.27072 0.0
H1360 H 0.77468 0.79466 0.2468 0.0
C1361 C 0.647 0.77664 0.26802 0.0
H1362 H 0.7744 0.84992 0.26453 0.0
C1363 C 0.64703 0.74521 0.2578 0.0
C1364 C 0.69286 0.75093 0.24997 0.0
H1365 H 0.61186 0.76961 0.274 0.0
H1366 H 0.61153 0.7155 0.25614 0.0
C1367 C 0.73791 0.79021 0.25247 0.0
C1368 C 0.43096 0.49922 1.00667 0.0
C1369 C 0.43701 0.5446 0.99869 0.0
H1370 H 0.4616 0.46077 0.02216 0.0
C1371 C 0.47638 0.58977 1.00106 0.0
H1372 H 0.4017 0.46327 1.00506 0.0
C1373 C 0.51048 0.58845 0.01091 0.0
C1374 C 0.50582 0.54216 0.01869 0.0
H1375 H 0.48238 0.62529 0.9951 0.0
H1376 H 0.54117 0.62338 0.01236 0.0
C1377 C 0.46529 0.49782 0.01651 0.0
C1378 C 0.03801 0.49863 0.50296 0.0
C1379 C 0.0433 0.4498 0.4958 0.0
H1380 H -0.00344 0.53608 0.51758 0.0
C1381 C 0.01353 0.39853 0.49873 0.0
H1382 H 0.05937 0.53922 0.50085 0.0
C1383 C 0.9781 0.3966 0.50842 0.0
C1384 C 0.97161 0.44583 0.51541 0.0
H1385 H 0.01627 0.36027 0.49337 0.0
H1386 H 0.95517 0.35664 0.51035 0.0
C1387 C 0.00206 0.49684 0.51259 0.0
C1388 C 0.00657 0.4979 1.00592 0.0
C1389 C 0.97468 0.54833 1.00326 0.0
H1390 H 0.06166 0.45451 0.01797 0.0
C1391 C 0.97759 0.59597 0.01076 0.0
H1392 H 0.00407 0.45982 1.00051 0.0
C1393 C 0.01021 0.59284 0.0208 0.0
C1394 C 0.04065 0.54183 0.02367 0.0
H1395 H 0.95366 0.63552 1.00897 0.0
H1396 H 0.00986 0.62984 0.02652 0.0
C1397 C 0.03952 0.49482 0.01597 0.0
C1398 C 0.46649 0.50877 0.50438 0.0
C1399 C 0.50066 0.45983 0.50177 0.0
H1400 H 0.40754 0.54877 0.51616 0.0
C1401 C 0.49807 0.41127 0.50904 0.0
H1402 H 0.46867 0.5475 0.49913 0.0
C1403 C 0.46344 0.41209 0.51884 0.0
C1404 C 0.4306 0.46162 0.52167 0.0
H1405 H 0.52376 0.37282 0.50728 0.0
H1406 H 0.46406 0.37452 0.52442 0.0
C1407 C 0.43148 0.5095 0.51417 0.0
C1408 C 0.28179 0.87177 0.31545 0.0
C1409 C 0.25063 0.9056 0.32332 0.0
H1410 H 0.29679 0.78703 0.30846 0.0
C1411 C 0.21298 0.87767 0.33097 0.0
H1412 H 0.31213 0.89201 0.30962 0.0
C1413 C 0.20499 0.81735 0.3305 0.0
C1414 C 0.23412 0.78357 0.32227 0.0
H1415 H 0.18828 0.90273 0.33711 0.0
H1416 H 0.17389 0.79768 0.33625 0.0
C1417 C 0.27367 0.81143 0.31492 0.0
C1418 C 0.35057 0.03503 0.56397 0.0
C1419 C 0.31942 0.00995 0.57301 0.0
H1420 H 0.4336 0.04736 0.55612 0.0
C1421 C 0.34979 0.98132 0.58172 0.0
H1422 H 0.32839 0.05888 0.55732 0.0
C1423 C 0.41002 0.97631 0.58125 0.0
C1424 C 0.44121 -0.001 0.57194 0.0
H1425 H 0.32681 0.96131 0.58876 0.0
H1426 H 0.43171 0.95214 0.58793 0.0
C1427 C 0.41093 0.02935 0.5634 0.0
C1428 C 0.26611 0.13502 0.83308 0.0
C1429 C 0.24427 0.16771 0.82389 0.0
H1430 H 0.27776 0.05063 0.84043 0.0
C1431 C 0.21172 0.13907 0.81545 0.0
H1432 H 0.29182 0.15538 0.8397 0.0
C1433 C 0.20325 0.07881 0.81596 0.0
C1434 C 0.22758 0.04601 0.82485 0.0
H1435 H 0.19423 0.16287 0.80825 0.0
H1436 H 0.17796 0.05796 0.80935 0.0
C1437 C 0.25824 0.07484 0.8335 0.0
C1438 C 0.10002 0.05126 0.06615 0.0
C1439 C 0.06823 0.00677 0.07146 0.0
H1440 H 0.18369 0.0892 0.06338 0.0
C1441 C 0.09706 0.96389 0.07774 0.0
H1442 H 0.07803 0.08551 0.06148 0.0
C1443 C 0.15755 0.96483 0.07846 0.0
C1444 C 0.18949 0.0099 0.07328 0.0
H1445 H 0.07293 0.92966 0.08197 0.0
H1446 H 0.17937 0.93034 0.08307 0.0
C1447 C 0.1602 0.05332 0.0672 0.0
C1448 C 0.16758 0.13625 0.19328 0.0
C1449 C 0.20972 0.16776 0.19937 0.0
H1450 H 0.13536 0.05214 0.18855 0.0
C1451 C 0.25384 0.13748 0.2051 0.0
H1452 H 0.13238 0.15836 0.18895 0.0
C1453 C 0.25586 0.07679 0.2047 0.0
C1454 C 0.21306 0.04541 0.1988 0.0
H1455 H 0.28666 0.16068 0.2099 0.0
H1456 H 0.29117 0.05446 0.20894 0.0
C1457 C 0.16889 0.07557 0.19312 0.0
C1458 C 0.0806 0.03349 0.45603 0.0
C1459 C 0.05106 0.00514 0.44714 0.0
H1460 H 0.16264 0.06127 0.46265 0.0
C1461 C 0.08303 0.98378 0.43783 0.0
H1462 H 0.05718 0.05031 0.46333 0.0
C1463 C 0.14331 0.98798 0.43769 0.0
C1464 C 0.17297 0.01486 0.4467 0.0
H1465 H 0.06188 0.96086 0.43092 0.0
H1466 H 0.16682 0.96867 0.43065 0.0
C1467 C 0.14104 0.03872 0.45576 0.0
C1468 C 0.26004 0.88109 0.70786 0.0
C1469 C 0.22317 0.90885 0.70009 0.0
H1470 H 0.29009 0.80073 0.71475 0.0
C1471 C 0.18788 0.87456 0.69293 0.0
H1472 H 0.28986 0.90591 0.71306 0.0
C1473 C 0.19053 0.81356 0.69341 0.0
C1474 C 0.22657 0.78621 0.7014 0.0
H1475 H 0.15881 0.8949 0.68688 0.0
H1476 H 0.16469 0.78791 0.68756 0.0
C1477 C 0.26055 0.82066 0.70872 0.0
C1478 C 0.42083 0.01126 0.93826 0.0
C1479 C 0.45421 0.98807 0.94721 0.0
H1480 H 0.33603 0.02809 0.93167 0.0
C1481 C 0.42559 0.95798 0.95602 0.0
H1482 H 0.44105 0.03598 0.93147 0.0
C1483 C 0.36495 0.95245 0.95599 0.0
C1484 C 0.33157 0.97799 0.94729 0.0
H1485 H 0.44993 0.94011 0.9631 0.0
H1486 H 0.34433 0.92848 0.96281 0.0
C1487 C 0.36036 0.00705 0.9384 0.0
C1488 C 0.67659 0.17138 0.70282 0.0
C1489 C 0.7086 0.19509 0.69369 0.0
H1490 H 0.65423 0.09461 0.71236 0.0
C1491 C 0.7416 0.15725 0.68685 0.0
H1492 H 0.65101 0.19936 0.70829 0.0
C1493 C 0.74434 0.0978 0.68935 0.0
C1494 C 0.71381 0.07463 0.69866 0.0
H1495 H 0.76782 0.17389 0.67991 0.0
H1496 H 0.77043 0.06968 0.68399 0.0
C1497 C 0.67937 0.11177 0.70531 0.0
C1498 C 0.64715 0.0182 0.4412 0.0
C1499 C 0.67296 0.98056 0.44912 0.0
H1500 H 0.56948 0.04534 0.43286 0.0
C1501 C 0.6381 0.94006 0.45491 0.0
H1502 H 0.67301 0.05045 0.43677 0.0
C1503 C 0.57827 0.93736 0.45277 0.0
C1504 C 0.55263 0.97436 0.44464 0.0
H1505 H 0.65718 0.91017 0.46099 0.0
H1506 H 0.55188 0.90714 0.4576 0.0
C1507 C 0.58799 0.0145 0.43883 0.0
C1508 C 0.81405 0.84717 0.20175 0.0
C1509 C 0.78774 0.8235 0.19193 0.0
H1510 H 0.83105 0.92383 0.21174 0.0
C1511 C 0.76166 0.86206 0.18413 0.0
H1512 H 0.83482 0.81902 0.20792 0.0
C1513 C 0.75932 0.9219 0.18639 0.0
C1514 C 0.78296 0.94482 0.19647 0.0
H1515 H 0.74022 0.84581 0.17656 0.0
H1516 H 0.73807 0.95037 0.18032 0.0
C1517 C 0.81116 0.90704 0.20405 0.0
C1518 C 0.86861 0.06865 0.95712 0.0
C1519 C 0.83008 0.04171 0.9495 0.0
H1520 H 0.9575 0.08413 0.9617 0.0
C1521 C 0.85314 0.01101 0.94017 0.0
H1522 H 0.85218 0.0931 0.96432 0.0
C1523 C 0.91312 0.00753 0.93843 0.0
C1524 C 0.95198 0.03336 0.94616 0.0
H1525 H 0.82457 0.989 0.93425 0.0
H1526 H 0.92901 0.98184 0.93135 0.0
C1527 C 0.92889 0.06435 0.9555 0.0
C1528 C 0.68512 0.86595 0.81412 0.0
C1529 C 0.73258 0.89673 0.81861 0.0
H1530 H 0.64117 0.78366 0.81299 0.0
C1531 C 0.77026 0.8683 0.82616 0.0
H1532 H 0.65484 0.88713 0.80841 0.0
C1533 C 0.76073 0.81042 0.82925 0.0
C1534 C 0.71422 0.77893 0.82456 0.0
H1535 H 0.80811 0.89037 0.82949 0.0
H1536 H 0.79225 0.78919 0.8347 0.0
C1537 C 0.67634 0.80735 0.81698 0.0
C1538 C 0.91458 0.93815 0.56721 0.0
C1539 C 0.93971 0.97238 0.57586 0.0
H1540 H 0.8365 0.91424 0.55835 0.0
C1541 C 0.90364 0.00931 0.58228 0.0
H1542 H 0.94131 0.90992 0.562 0.0
C1543 C 0.84442 0.01323 0.57989 0.0
C1544 C 0.81957 0.97943 0.57123 0.0
H1545 H 0.92157 0.03761 0.58876 0.0
H1546 H 0.81778 0.04267 0.58487 0.0
C1547 C 0.85499 0.94154 0.56494 0.0
C1548 C 0.75435 0.17126 0.33108 0.0
C1549 C 0.7736 0.21031 0.32265 0.0
H1550 H 0.74033 0.08202 0.33575 0.0
C1551 C 0.79787 0.18734 0.31257 0.0
H1552 H 0.73461 0.1871 0.33886 0.0
C1553 C 0.79954 0.12715 0.31067 0.0
C1554 C 0.77797 0.08855 0.31889 0.0
H1555 H 0.81361 0.21606 0.30594 0.0
H1556 H 0.81776 0.1108 0.30278 0.0
C1557 C 0.75654 0.11109 0.32921 0.0
C1558 C 0.66238 0.95106 0.08168 0.0
C1559 C 0.68968 0.986 0.07346 0.0
H1560 H 0.58276 0.92839 0.09 0.0
C1561 C 0.65697 0.02824 0.06767 0.0
H1562 H 0.68649 0.91771 0.08616 0.0
C1563 C 0.59763 0.0342 0.06983 0.0
C1564 C 0.57013 -0.00125 0.07796 0.0
H1565 H 0.6773 0.05678 0.0615 0.0
H1566 H 0.57281 0.06541 0.06492 0.0
C1567 C 0.60326 0.95779 0.08401 0.0
C1568 C 0.71749 0.36882 0.81077 0.0
C1569 C 0.7552 0.39911 0.81799 0.0
H1570 H 0.69221 0.28663 0.80396 0.0
C1571 C 0.79802 0.36796 0.82401 0.0
H1572 H 0.68236 0.39096 0.80645 0.0
C1573 C 0.80168 0.30728 0.82309 0.0
C1574 C 0.76426 0.27738 0.81573 0.0
H1575 H 0.82808 0.39042 0.82957 0.0
H1576 H 0.83324 0.28379 0.82815 0.0
C1577 C 0.72288 0.30886 0.80944 0.0
C1578 C 0.84443 0.54699 0.06376 0.0
C1579 C 0.81438 0.52797 0.07351 0.0
H1580 H 0.92699 0.55643 0.05546 0.0
C1581 C 0.84659 0.50919 0.08298 0.0
H1582 H 0.82114 0.56352 0.05644 0.0
C1583 C 0.90707 0.50778 0.08263 0.0
C1584 C 0.93723 0.52344 0.07266 0.0
H1585 H 0.82505 0.49329 0.09056 0.0
H1586 H 0.92985 0.49065 0.08998 0.0
C1587 C 0.90523 0.54421 0.06329 0.0
C1588 C 0.70228 0.68116 0.31173 0.0
C1589 C 0.74126 0.70886 0.31921 0.0
H1590 H 0.6635 0.60073 0.30642 0.0
C1591 C 0.76998 0.67492 0.32745 0.0
H1592 H 0.67963 0.70576 0.30523 0.0
C1593 C 0.76174 0.61473 0.32792 0.0
C1594 C 0.72403 0.58697 0.32027 0.0
H1595 H 0.80075 0.69442 0.33329 0.0
H1596 H 0.78605 0.58965 0.33411 0.0
C1597 C 0.69372 0.62084 0.31228 0.0
C1598 C 0.62875 0.52291 0.5632 0.0
C1599 C 0.65642 0.48131 0.57002 0.0
H1600 H 0.54861 0.55681 0.55699 0.0
C1601 C 0.62211 0.44184 0.57631 0.0
H1602 H 0.65353 0.55582 0.55874 0.0
C1603 C 0.56124 0.44469 0.57586 0.0
C1604 C 0.53406 0.48536 0.56873 0.0
H1605 H 0.64236 0.40916 0.58164 0.0
H1606 H 0.53559 0.4152 0.58101 0.0
C1607 C 0.56849 0.52389 0.56233 0.0
C1608 C 0.78148 0.60427 0.70674 0.0
C1609 C 0.75506 0.5724 0.69793 0.0
H1610 H 0.79284 0.68779 0.71459 0.0
C1611 C 0.72186 0.60201 0.68977 0.0
H1612 H 0.80832 0.58268 0.71301 0.0
C1613 C 0.71455 0.66211 0.69044 0.0
C1614 C 0.73922 0.69405 0.69945 0.0
H1615 H 0.70033 0.5785 0.68299 0.0
H1616 H 0.6874 0.68306 0.68411 0.0
C1617 C 0.7734 0.66456 0.70753 0.0
C1618 C 0.56394 0.55523 0.94554 0.0
C1619 C 0.53725 0.51098 0.95187 0.0
H1620 H 0.64458 0.59257 0.94003 0.0
C1621 C 0.57161 0.46837 0.95717 0.0
H1622 H 0.53804 0.58796 0.94127 0.0
C1623 C 0.63179 0.46925 0.95601 0.0
C1624 C 0.65894 0.51401 0.9499 0.0
H1625 H 0.55165 0.43278 0.9618 0.0
H1626 H 0.65685 0.43395 0.95963 0.0
C1627 C 0.62456 0.55738 0.94476 0.0
C1628 C 0.74082 0.41337 0.18564 0.0
C1629 C 0.71588 0.44511 0.19462 0.0
H1630 H 0.76679 0.3303 0.17931 0.0
C1631 C 0.69269 0.41463 0.20395 0.0
H1632 H 0.75951 0.43548 0.17837 0.0
C1633 C 0.69733 0.35386 0.20458 0.0
C1634 C 0.72501 0.32231 0.19584 0.0
H1635 H 0.67161 0.4377 0.21084 0.0
H1636 H 0.68154 0.332 0.21215 0.0
C1637 C 0.7449 0.3528 0.18619 0.0
C1638 C 0.84966 0.52918 0.45399 0.0
C1639 C 0.81824 0.48685 0.44807 0.0
H1640 H 0.93291 0.55849 0.45946 0.0
C1641 C 0.848 0.43979 0.44304 0.0
H1642 H 0.82825 0.56698 0.45755 0.0
C1643 C 0.90856 0.43614 0.44369 0.0
C1644 C 0.93959 0.47821 0.44979 0.0
H1645 H 0.82448 0.40627 0.43849 0.0
H1646 H 0.93101 0.4008 0.43946 0.0
C1647 C 0.9096 0.52436 0.45502 0.0
C1648 C 0.29412 0.57517 0.20114 0.0
C1649 C 0.24444 0.54603 0.19734 0.0
H1650 H 0.33789 0.65694 0.20271 0.0
C1651 C 0.20063 0.57807 0.19174 0.0
H1652 H 0.32868 0.55176 0.20539 0.0
C1653 C 0.20684 0.6378 0.1898 0.0
C1654 C 0.25606 0.66679 0.19379 0.0
H1655 H 0.16073 0.55738 0.18908 0.0
H1656 H 0.17219 0.66165 0.18566 0.0
C1657 C 0.29959 0.6351 0.19948 0.0
C1658 C 0.06539 0.44455 0.95218 0.0
C1659 C 0.03827 0.48295 0.94451 0.0
H1660 H 0.14437 0.42033 0.96065 0.0
C1661 C 0.07135 0.52786 0.9396 0.0
H1662 H 0.04059 0.41055 0.95633 0.0
C1663 C 0.12958 0.53526 0.94254 0.0
C1664 C 0.15674 0.49698 0.95018 0.0
H1665 H 0.0513 0.55978 0.93406 0.0
H1666 H 0.15301 0.57188 0.93901 0.0
C1667 C 0.12426 0.45115 0.9549 0.0
C1668 C 0.30888 0.36952 0.70663 0.0
C1669 C 0.2817 0.40789 0.69901 0.0
H1670 H 0.32573 0.28057 0.71108 0.0
C1671 C 0.25431 0.38498 0.68929 0.0
H1672 H 0.33125 0.38598 0.71408 0.0
C1673 C 0.25274 0.32493 0.68737 0.0
C1674 C 0.27738 0.28625 0.69528 0.0
H1675 H 0.23254 0.41355 0.68332 0.0
H1676 H 0.22853 0.30874 0.68013 0.0
C1677 C 0.30662 0.3093 0.7048 0.0
C1678 C 0.40975 0.55848 0.44954 0.0
C1679 C 0.438 0.51992 0.44207 0.0
H1680 H 0.32949 0.58281 0.45751 0.0
C1681 C 0.4057 0.47525 0.43691 0.0
H1682 H 0.43398 0.59228 0.45387 0.0
C1683 C 0.3471 0.46785 0.4395 0.0
C1684 C 0.31883 0.50616 0.44696 0.0
H1685 H 0.42668 0.44321 0.43153 0.0
H1686 H 0.32446 0.43086 0.43593 0.0
C1687 C 0.35047 0.55208 0.45185 0.0
C1688 C 0.17676 0.36684 0.31203 0.0
C1689 C 0.19563 0.40583 0.32043 0.0
H1690 H 0.16622 0.27774 0.30712 0.0
C1691 C 0.21627 0.38354 0.33083 0.0
H1692 H 0.15935 0.3829 0.30406 0.0
C1693 C 0.22017 0.32335 0.33263 0.0
C1694 C 0.20346 0.284 0.32405 0.0
H1695 H 0.23058 0.41285 0.33749 0.0
H1696 H 0.2391 0.30783 0.34052 0.0
C1697 C 0.18012 0.30664 0.31386 0.0
C1698 C 0.33773 0.48997 0.08174 0.0
C1699 C 0.31379 0.4586 0.0726 0.0
H1700 H 0.41416 0.51525 0.0908 0.0
C1701 C 0.35102 0.42539 0.06571 0.0
H1702 H 0.31012 0.51631 0.08716 0.0
C1703 C 0.41106 0.42439 0.06783 0.0
C1704 C 0.43526 0.45668 0.07689 0.0
H1705 H 0.33374 0.40014 0.0587 0.0
H1706 H 0.43881 0.39982 0.06215 0.0
C1707 C 0.39742 0.48858 0.08394 0.0
C1708 C 0.24691 0.56849 0.83313 0.0
C1709 C 0.27525 0.546 0.82349 0.0
H1710 H 0.22099 0.64437 0.84241 0.0
C1711 C 0.30358 0.58441 0.81606 0.0
H1712 H 0.22522 0.53951 0.83905 0.0
C1713 C 0.30223 0.64448 0.81809 0.0
C1714 C 0.27211 0.66737 0.82754 0.0
H1715 H 0.32689 0.568 0.80871 0.0
H1716 H 0.32311 0.67324 0.81203 0.0
C1717 C 0.24561 0.62844 0.83518 0.0
C1718 C 0.11763 0.56719 0.56371 0.0
C1719 C 0.15569 0.53701 0.57094 0.0
H1720 H 0.02906 0.5869 0.55959 0.0
C1721 C 0.13255 0.50649 0.58028 0.0
H1722 H 0.13425 0.59192 0.55656 0.0
C1723 C 0.07266 0.50509 0.58224 0.0
C1724 C 0.03425 0.53308 0.57472 0.0
H1725 H 0.16083 0.48234 0.58595 0.0
H1726 H 0.05632 0.47861 0.58917 0.0
C1727 C 0.05754 0.56516 0.56557 0.0
C1728 C 0.36097 0.1348 0.38193 0.0
C1729 C 0.3263 0.10631 0.3738 0.0
H1730 H 0.39815 0.13325 0.39863 0.0
C1731 C 0.30175 0.05216 0.3767 0.0
H1732 H 0.3807 0.17647 0.38001 0.0
C1733 C 0.31241 0.02685 0.3874 0.0
C1734 C 0.34743 0.05533 0.39549 0.0
H1735 H 0.27506 0.02881 0.37064 0.0
H1736 H 0.29301 0.98507 0.38933 0.0
C1737 C 0.37116 0.10984 0.39262 0.0
C1738 C 0.18454 0.04675 0.64407 0.0
C1739 C 0.16476 0.10318 0.64669 0.0
H1740 H 0.18989 0.97866 0.63157 0.0
C1741 C 0.13524 0.13466 0.63819 0.0
H1742 H 0.20718 0.0211 0.65041 0.0
C1743 C 0.12538 0.11043 0.62742 0.0
C1744 C 0.14437 0.05376 0.62481 0.0
H1745 H 0.11928 0.17817 0.63987 0.0
H1746 H 0.10238 0.13619 0.62114 0.0
C1747 C 0.17429 0.02226 0.63327 0.0
C1748 C 0.12621 0.85535 0.87892 0.0
C1749 C 0.18195 0.8758 0.8761 0.0
H1750 H 0.05818 0.85175 0.89132 0.0
C1751 C 0.21122 0.91124 0.88401 0.0
H1752 H 0.10216 0.82818 0.87304 0.0
C1753 C 0.18548 0.92551 0.8945 0.0
C1754 C 0.13009 0.90417 0.89738 0.0
H1755 H 0.25396 0.92824 0.88209 0.0
H1756 H 0.20946 0.9524 0.90043 0.0
C1757 C 0.1008 0.86909 0.88942 0.0
C1758 C 0.36195 0.86918 0.12676 0.0
C1759 C 0.35537 0.92978 0.12557 0.0
H1760 H 0.35459 0.79472 0.1377 0.0
C1761 C 0.33213 0.96138 0.13478 0.0
H1762 H 0.37965 0.84341 0.11985 0.0
C1763 C 0.31645 0.93314 0.14495 0.0
C1764 C 0.32482 0.87279 0.14626 0.0
H1765 H 0.32607 0.00801 0.13413 0.0
H1766 H 0.29947 0.95892 0.15192 0.0
C1767 C 0.34751 0.8412 0.137 0.0
C1768 C 0.55759 0.85029 0.62829 0.0
C1769 C 0.61162 0.85558 0.62295 0.0
H1770 H 0.51143 0.84714 0.64407 0.0
C1771 C 0.66147 0.86451 0.62951 0.0
H1772 H 0.51862 0.84367 0.62329 0.0
C1773 C 0.65742 0.86824 0.64135 0.0
C1774 C 0.60367 0.8608 0.64687 0.0
H1775 H 0.70338 0.86988 0.62545 0.0
H1776 H 0.69638 0.87831 0.64602 0.0
C1777 C 0.55368 0.85241 0.64016 0.0
C1778 C 0.93845 0.87043 0.37679 0.0
C1779 C 0.88923 0.87868 0.36983 0.0
H1780 H 0.97188 0.86335 0.39382 0.0
C1781 C 0.83542 0.88908 0.37515 0.0
H1782 H 0.98082 0.86296 0.37307 0.0
C1783 C 0.83036 0.88761 0.387 0.0
C1784 C 0.8793 0.87825 0.39381 0.0
H1785 H 0.797 0.89925 0.37034 0.0
H1786 H 0.7882 0.89447 0.39088 0.0
C1787 C 0.93358 0.87067 0.38866 0.0
C1788 C 0.8725 0.19076 0.12979 0.0
C1789 C 0.89359 0.13965 0.12464 0.0
H1790 H 0.86053 0.23859 0.14531 0.0
C1791 C 0.92068 0.09746 0.13151 0.0
H1792 H 0.85115 0.22399 0.12476 0.0
C1793 C 0.927 0.1065 0.14322 0.0
C1794 C 0.90463 0.1569 0.14833 0.0
H1795 H 0.93495 0.05641 0.12798 0.0
H1796 H 0.9471 0.0729 0.14836 0.0
C1797 C 0.87778 0.1992 0.14153 0.0
C1798 C 0.58086 0.10592 0.88844 0.0
C1799 C 0.62643 0.13124 0.89458 0.0
H1800 H 0.54858 0.08084 0.87209 0.0
C1801 C 0.67604 0.15042 0.88877 0.0
H1802 H 0.54196 0.0913 0.89277 0.0
C1803 C 0.68055 0.14339 0.87698 0.0
C1804 C 0.6345 0.1191 0.87072 0.0
H1805 H 0.71203 0.16941 0.8934 0.0
H1806 H 0.72083 0.15551 0.87291 0.0
C1807 C 0.5847 0.10021 0.87662 0.0
C1808 C 0.82602 0.6316 0.88215 0.0
C1809 C 0.80724 0.59477 0.87331 0.0
H1810 H 0.8525 0.63939 0.89959 0.0
C1811 C 0.79981 0.5352 0.87573 0.0
H1812 H 0.83223 0.67769 0.88064 0.0
C1813 C 0.81227 0.51296 0.88664 0.0
C1814 C 0.83176 0.54981 0.89544 0.0
H1815 H 0.78571 0.50546 0.86913 0.0
H1816 H 0.80683 0.46678 0.88815 0.0
C1817 C 0.83772 0.60956 0.89306 0.0
C1818 C 0.73131 0.54789 0.13937 0.0
C1819 C 0.70466 0.59661 0.14443 0.0
H1820 H 0.73147 0.48664 0.12559 0.0
C1821 C 0.65587 0.62098 0.13901 0.0
H1822 H 0.76856 0.52752 0.14334 0.0
C1823 C 0.63463 0.59757 0.12877 0.0
C1824 C 0.66103 0.54856 0.12377 0.0
H1825 H 0.63401 0.6583 0.14267 0.0
H1826 H 0.59735 0.61784 0.12479 0.0
C1827 C 0.7096 0.524 0.12923 0.0
C1828 C 0.64253 0.35633 0.38201 0.0
C1829 C 0.6631 0.38942 0.37276 0.0
H1830 H 0.61663 0.35521 0.39955 0.0
C1831 C 0.67467 0.44893 0.37453 0.0
H1832 H 0.63316 0.31043 0.38099 0.0
C1833 C 0.66419 0.47496 0.38517 0.0
C1834 C 0.64282 0.44194 0.39437 0.0
H1835 H 0.69034 0.47586 0.36762 0.0
H1836 H 0.67263 0.52105 0.38617 0.0
C1837 C 0.633 0.38209 0.39268 0.0
C1838 C 0.80421 0.44176 0.64295 0.0
C1839 C 0.81602 0.38211 0.64447 0.0
H1840 H 0.80614 0.51519 0.63161 0.0
C1841 C 0.83695 0.35016 0.6351 0.0
H1842 H 0.78831 0.46782 0.64997 0.0
C1843 C 0.84656 0.37715 0.62456 0.0
C1844 C 0.83646 0.43713 0.62311 0.0
H1845 H 0.84651 0.30419 0.63595 0.0
H1846 H 0.86319 0.35111 0.61759 0.0
C1847 C 0.81478 0.46903 0.63243 0.0
C1848 C 0.07036 0.31571 0.13183 0.0
C1849 C 0.08597 0.36672 0.1259 0.0
H1850 H 0.05561 0.27558 0.14812 0.0
C1851 C 0.09981 0.4169 0.1322 0.0
H1852 H 0.05997 0.27607 0.12727 0.0
C1853 C 0.09566 0.41683 0.14407 0.0
C1854 C 0.07972 0.36605 0.14988 0.0
H1855 H 0.11528 0.45595 0.12809 0.0
H1856 H 0.10641 0.45607 0.14873 0.0
C1857 C 0.06767 0.31528 0.14373 0.0
C1858 C 0.4106 0.40286 0.8798 0.0
C1859 C 0.39033 0.35167 0.87465 0.0
H1860 H 0.41444 0.4541 0.89494 0.0
C1861 C 0.36188 0.30978 0.88129 0.0
H1862 H 0.43198 0.43613 0.87478 0.0
C1863 C 0.35341 0.31917 0.89293 0.0
C1864 C 0.373 0.37076 0.89811 0.0
H1865 H 0.34647 0.26967 0.87751 0.0
H1866 H 0.33128 0.28606 0.89786 0.0
C1867 C 0.40121 0.41276 0.89139 0.0
C1868 C 0.33569 0.66491 0.6411 0.0
C1869 C 0.37326 0.62881 0.64731 0.0
H1870 H 0.30752 0.6931 0.62461 0.0
C1871 C 0.41137 0.59182 0.64139 0.0
H1872 H 0.30715 0.6952 0.64539 0.0
C1873 C 0.41178 0.59076 0.62948 0.0
C1874 C 0.37436 0.62705 0.62326 0.0
H1875 H 0.44128 0.56397 0.64597 0.0
H1876 H 0.44279 0.56305 0.62518 0.0
C1877 C 0.3364 0.66417 0.62919 0.0
C1878 C 0.05296 0.56248 0.37595 0.0
C1879 C 0.07171 0.61214 0.37005 0.0
H1880 H 0.05034 0.51719 0.39182 0.0
C1881 C 0.098 0.65763 0.37609 0.0
H1882 H 0.03325 0.52652 0.37141 0.0
C1883 C 0.1059 0.65334 0.38786 0.0
C1884 C 0.08819 0.6032 0.39382 0.0
H1885 H 0.1123 0.69659 0.37171 0.0
H1886 H 0.12643 0.68925 0.39227 0.0
C1887 C 0.06202 0.55758 0.3877 0.0
loop_
_geom_bond_atom_site_label_1
_geom_bond_atom_site_label_2
_geom_bond_distance
_geom_bond_site_symmetry_2
_ccdc_geom_bond_type
Co0 O3 1.970 . S
Co0 N17 1.989 . S
Co0 O25 1.967 . S
Co0 O32 1.920 . S
Co1 O4 1.966 . S
Co1 N10 2.022 . S
Co1 N18 1.993 . S
Co1 O26 1.941 . S
C2 O3 1.258 . S
C2 O4 1.263 . S
O3 Co0 1.970 . S
O3 C2 1.258 . S
O4 Co1 1.966 . S
O4 C2 1.263 . S
C5 O6 1.235 . S
C5 O32 1.289 . S
O6 C5 1.235 . S
C7 C9 1.400 . S
C7 N10 1.351 . S
C7 C12 1.501 . S
C8 C9 1.387 . S
C8 N11 1.341 . S
C9 C7 1.400 . S
C9 C8 1.387 . S
N10 Co1 2.022 . S
N10 C7 1.351 . S
N10 N11 1.365 . S
N11 C8 1.341 . S
N11 N10 1.365 . S
N11 H31 0.862 . S
C12 C7 1.501 . S
C12 H13 0.961 . S
C12 H14 0.961 . S
C12 H15 0.960 . S
H13 C12 0.961 . S
H14 C12 0.961 . S
H15 C12 0.960 . S
C16 N17 1.342 . S
C16 C20 1.401 . S
C16 C21 1.499 . S
N17 Co0 1.989 . S
N17 C16 1.342 . S
N17 N18 1.388 . S
N18 Co1 1.993 . S
N18 N17 1.388 . S
N18 C19 1.346 . S
C19 N18 1.346 . S
C19 C20 1.396 . S
C19 C29 1.510 . S
C20 C16 1.401 . S
C20 C19 1.396 . S
C21 C16 1.499 . S
C21 H22 0.959 . S
C21 H23 0.960 . S
C21 H24 0.961 . S
H22 C21 0.959 . S
H23 C21 0.960 . S
H24 C21 0.961 . S
O25 Co0 1.967 . S
O25 C33 1.258 . S
O26 Co1 1.941 . S
O26 C33 1.266 . S
H27 C29 0.959 . S
H28 C29 0.961 . S
C29 C19 1.510 . S
C29 H27 0.959 . S
C29 H28 0.961 . S
C29 H30 0.960 . S
H30 C29 0.960 . S
H31 N11 0.862 . S
O32 Co0 1.920 . S
O32 C5 1.289 . S
C33 O25 1.258 . S
C33 O26 1.266 . S
Co34 O37 1.970 1_455 S
Co34 N51 1.989 . S
Co34 O59 1.967 . S
Co34 O66 1.920 . S
Co35 O38 1.966 1_455 S
Co35 N44 2.022 . S
Co35 N52 1.993 . S
Co35 O60 1.941 . S
C36 O37 1.258 . S
C36 O38 1.263 . S
O37 Co34 1.970 1_655 S
O37 C36 1.258 . S
O38 Co35 1.966 1_655 S
O38 C36 1.263 . S
C39 O40 1.235 1_545 S
C39 O66 1.289 . S
O40 C39 1.235 1_565 S
C41 C43 1.400 . S
C41 N44 1.351 . S
C41 C46 1.501 1_445 S
C42 C43 1.387 . S
C42 N45 1.341 . S
C43 C41 1.400 . S
C43 C42 1.387 . S
N44 Co35 2.022 . S
N44 C41 1.351 . S
N44 N45 1.365 . S
N45 C42 1.341 . S
N45 N44 1.365 . S
N45 H65 0.862 . S
C46 C41 1.501 1_665 S
C46 H47 0.961 . S
C46 H48 0.961 . S
C46 H49 0.960 . S
H47 C46 0.961 . S
H48 C46 0.961 . S
H49 C46 0.960 . S
C50 N51 1.342 . S
C50 C54 1.401 . S
C50 C55 1.499 . S
N51 Co34 1.989 . S
N51 C50 1.342 . S
N51 N52 1.388 . S
N52 Co35 1.993 . S
N52 N51 1.388 . S
N52 C53 1.346 . S
C53 N52 1.346 . S
C53 C54 1.396 . S
C53 C63 1.510 . S
C54 C50 1.401 . S
C54 C53 1.396 . S
C55 C50 1.499 . S
C55 H56 0.959 . S
C55 H57 0.960 . S
C55 H58 0.961 . S
H56 C55 0.959 . S
H57 C55 0.960 . S
H58 C55 0.961 . S
O59 Co34 1.967 . S
O59 C67 1.258 . S
O60 Co35 1.941 . S
O60 C67 1.266 . S
H61 C63 0.959 . S
H62 C63 0.961 1_565 S
C63 C53 1.510 . S
C63 H61 0.959 . S
C63 H62 0.961 1_545 S
C63 H64 0.960 . S
H64 C63 0.960 . S
H65 N45 0.862 . S
O66 Co34 1.920 . S
O66 C39 1.289 . S
C67 O59 1.258 . S
C67 O60 1.266 . S
Co68 O71 1.970 . S
Co68 N85 1.989 . S
Co68 O93 1.967 . S
Co68 O100 1.920 . S
Co69 O72 1.966 . S
Co69 N78 2.022 . S
Co69 N86 1.993 . S
Co69 O94 1.941 . S
C70 O71 1.258 . S
C70 O72 1.263 . S
O71 Co68 1.970 . S
O71 C70 1.258 . S
O72 Co69 1.966 . S
O72 C70 1.263 . S
C73 O74 1.235 . S
C73 O100 1.289 . S
O74 C73 1.235 . S
C75 C77 1.400 . S
C75 N78 1.351 . S
C75 C80 1.501 . S
C76 C77 1.387 . S
C76 N79 1.341 . S
C77 C75 1.400 . S
C77 C76 1.387 . S
N78 Co69 2.022 . S
N78 C75 1.351 . S
N78 N79 1.365 . S
N79 C76 1.341 . S
N79 N78 1.365 . S
N79 H99 0.862 . S
C80 C75 1.501 . S
C80 H81 0.961 . S
C80 H82 0.961 . S
C80 H83 0.960 . S
H81 C80 0.961 . S
H82 C80 0.961 . S
H83 C80 0.960 . S
C84 N85 1.342 . S
C84 C88 1.401 . S
C84 C89 1.499 . S
N85 Co68 1.989 . S
N85 C84 1.342 . S
N85 N86 1.388 . S
N86 Co69 1.993 . S
N86 N85 1.388 . S
N86 C87 1.346 . S
C87 N86 1.346 . S
C87 C88 1.396 . S
C87 C97 1.510 . S
C88 C84 1.401 . S
C88 C87 1.396 . S
C89 C84 1.499 . S
C89 H90 0.959 . S
C89 H91 0.960 . S
C89 H92 0.961 . S
H90 C89 0.959 . S
H91 C89 0.960 . S
H92 C89 0.961 . S
O93 Co68 1.967 . S
O93 C101 1.258 . S
O94 Co69 1.941 . S
O94 C101 1.266 . S
H95 C97 0.959 . S
H96 C97 0.961 . S
C97 C87 1.510 . S
C97 H95 0.959 . S
C97 H96 0.961 . S
C97 H98 0.960 . S
H98 C97 0.960 . S
H99 N79 0.862 . S
O100 Co68 1.920 . S
O100 C73 1.289 . S
C101 O93 1.258 . S
C101 O94 1.266 . S
Co102 O105 1.970 . S
Co102 N119 1.989 . S
Co102 O127 1.967 . S
Co102 O134 1.920 . S
Co103 O106 1.966 . S
Co103 N112 2.022 . S
Co103 N120 1.993 . S
Co103 O128 1.941 . S
C104 O105 1.258 . S
C104 O106 1.263 . S
O105 Co102 1.970 . S
O105 C104 1.258 . S
O106 Co103 1.966 . S
O106 C104 1.263 . S
C107 O108 1.235 1_565 S
C107 O134 1.289 . S
O108 C107 1.235 1_545 S
C109 C111 1.400 . S
C109 N112 1.351 . S
C109 C114 1.501 1_565 S
C110 C111 1.387 . S
C110 N113 1.341 . S
C111 C109 1.400 . S
C111 C110 1.387 . S
N112 Co103 2.022 . S
N112 C109 1.351 . S
N112 N113 1.365 . S
N113 C110 1.341 . S
N113 N112 1.365 . S
N113 H133 0.862 . S
C114 C109 1.501 1_545 S
C114 H115 0.961 . S
C114 H116 0.961 . S
C114 H117 0.960 . S
H115 C114 0.961 . S
H116 C114 0.961 . S
H117 C114 0.960 . S
C118 N119 1.342 . S
C118 C122 1.401 . S
C118 C123 1.499 . S
N119 Co102 1.989 . S
N119 C118 1.342 . S
N119 N120 1.388 . S
N120 Co103 1.993 . S
N120 N119 1.388 . S
N120 C121 1.346 . S
C121 N120 1.346 . S
C121 C122 1.396 . S
C121 C131 1.510 . S
C122 C118 1.401 . S
C122 C121 1.396 . S
C123 C118 1.499 . S
C123 H124 0.959 . S
C123 H125 0.960 . S
C123 H126 0.961 . S
H124 C123 0.959 . S
H125 C123 0.960 . S
H126 C123 0.961 . S
O127 Co102 1.967 . S
O127 C135 1.258 . S
O128 Co103 1.941 . S
O128 C135 1.266 . S
H129 C131 0.959 . S
H130 C131 0.961 1_545 S
C131 C121 1.510 . S
C131 H129 0.959 . S
C131 H130 0.961 1_565 S
C131 H132 0.960 . S
H132 C131 0.960 . S
H133 N113 0.862 . S
O134 Co102 1.920 . S
O134 C107 1.289 . S
C135 O127 1.258 . S
C135 O128 1.266 . S
Co136 O139 1.970 . S
Co136 N153 1.989 . S
Co136 O161 1.967 . S
Co136 O168 1.920 . S
Co137 O140 1.966 . S
Co137 N146 2.022 . S
Co137 N154 1.993 . S
Co137 O162 1.941 . S
C138 O139 1.258 . S
C138 O140 1.263 . S
O139 Co136 1.970 . S
O139 C138 1.258 . S
O140 Co137 1.966 . S
O140 C138 1.263 . S
C141 O142 1.235 . S
C141 O168 1.289 . S
O142 C141 1.235 . S
C143 C145 1.400 . S
C143 N146 1.351 . S
C143 C148 1.501 . S
C144 C145 1.387 . S
C144 N147 1.341 . S
C145 C143 1.400 . S
C145 C144 1.387 . S
N146 Co137 2.022 . S
N146 C143 1.351 . S
N146 N147 1.365 . S
N147 C144 1.341 . S
N147 N146 1.365 . S
N147 H167 0.862 . S
C148 C143 1.501 . S
C148 H149 0.961 . S
C148 H150 0.961 . S
C148 H151 0.960 . S
H149 C148 0.961 . S
H150 C148 0.961 . S
H151 C148 0.960 . S
C152 N153 1.342 . S
C152 C156 1.401 . S
C152 C157 1.499 . S
N153 Co136 1.989 . S
N153 C152 1.342 . S
N153 N154 1.388 . S
N154 Co137 1.993 . S
N154 N153 1.388 . S
N154 C155 1.346 . S
C155 N154 1.346 . S
C155 C156 1.396 . S
C155 C165 1.510 . S
C156 C152 1.401 . S
C156 C155 1.396 . S
C157 C152 1.499 . S
C157 H158 0.959 . S
C157 H159 0.960 . S
C157 H160 0.961 . S
H158 C157 0.959 . S
H159 C157 0.960 . S
H160 C157 0.961 . S
O161 Co136 1.967 . S
O161 C169 1.258 . S
O162 Co137 1.941 . S
O162 C169 1.266 . S
H163 C165 0.959 . S
H164 C165 0.961 . S
C165 C155 1.510 . S
C165 H163 0.959 . S
C165 H164 0.961 . S
C165 H166 0.960 . S
H166 C165 0.960 . S
H167 N147 0.862 . S
O168 Co136 1.920 . S
O168 C141 1.289 . S
C169 O161 1.258 . S
C169 O162 1.266 . S
Co170 O173 1.970 . S
Co170 N187 1.989 . S
Co170 O195 1.967 . S
Co170 O202 1.920 . S
Co171 O174 1.966 . S
Co171 N180 2.022 . S
Co171 N188 1.993 . S
Co171 O196 1.941 . S
C172 O173 1.258 . S
C172 O174 1.263 . S
O173 Co170 1.970 . S
O173 C172 1.258 . S
O174 Co171 1.966 . S
O174 C172 1.263 . S
C175 O176 1.235 1_545 S
C175 O202 1.289 . S
O176 C175 1.235 1_565 S
C177 C179 1.400 . S
C177 N180 1.351 . S
C177 C182 1.501 1_545 S
C178 C179 1.387 . S
C178 N181 1.341 . S
C179 C177 1.400 . S
C179 C178 1.387 . S
N180 Co171 2.022 . S
N180 C177 1.351 . S
N180 N181 1.365 . S
N181 C178 1.341 . S
N181 N180 1.365 . S
N181 H201 0.862 . S
C182 C177 1.501 1_565 S
C182 H183 0.961 . S
C182 H184 0.961 . S
C182 H185 0.960 . S
H183 C182 0.961 . S
H184 C182 0.961 . S
H185 C182 0.960 . S
C186 N187 1.342 . S
C186 C190 1.401 . S
C186 C191 1.499 . S
N187 Co170 1.989 . S
N187 C186 1.342 . S
N187 N188 1.388 . S
N188 Co171 1.993 . S
N188 N187 1.388 . S
N188 C189 1.346 . S
C189 N188 1.346 . S
C189 C190 1.396 . S
C189 C199 1.510 . S
C190 C186 1.401 . S
C190 C189 1.396 . S
C191 C186 1.499 . S
C191 H192 0.959 . S
C191 H193 0.960 . S
C191 H194 0.961 . S
H192 C191 0.959 . S
H193 C191 0.960 . S
H194 C191 0.961 . S
O195 Co170 1.967 . S
O195 C203 1.258 . S
O196 Co171 1.941 . S
O196 C203 1.266 . S
H197 C199 0.959 . S
H198 C199 0.961 1_565 S
C199 C189 1.510 . S
C199 H197 0.959 . S
C199 H198 0.961 1_545 S
C199 H200 0.960 . S
H200 C199 0.960 . S
H201 N181 0.862 . S
O202 Co170 1.920 . S
O202 C175 1.289 . S
C203 O195 1.258 . S
C203 O196 1.266 . S
Co204 O207 1.970 . S
Co204 N221 1.989 . S
Co204 O229 1.967 . S
Co204 O236 1.920 . S
Co205 O208 1.966 . S
Co205 N214 2.022 . S
Co205 N222 1.993 . S
Co205 O230 1.941 . S
C206 O207 1.258 . S
C206 O208 1.263 . S
O207 Co204 1.970 . S
O207 C206 1.258 . S
O208 Co205 1.966 . S
O208 C206 1.263 . S
C209 O210 1.235 . S
C209 O236 1.289 . S
O210 C209 1.235 . S
C211 C213 1.400 . S
C211 N214 1.351 . S
C211 C216 1.501 . S
C212 C213 1.387 . S
C212 N215 1.341 . S
C213 C211 1.400 . S
C213 C212 1.387 . S
N214 Co205 2.022 . S
N214 C211 1.351 . S
N214 N215 1.365 . S
N215 C212 1.341 . S
N215 N214 1.365 . S
N215 H235 0.862 . S
C216 C211 1.501 . S
C216 H217 0.961 . S
C216 H218 0.961 . S
C216 H219 0.960 . S
H217 C216 0.961 . S
H218 C216 0.961 . S
H219 C216 0.960 . S
C220 N221 1.342 . S
C220 C224 1.401 . S
C220 C225 1.499 . S
N221 Co204 1.989 . S
N221 C220 1.342 . S
N221 N222 1.388 . S
N222 Co205 1.993 . S
N222 N221 1.388 . S
N222 C223 1.346 . S
C223 N222 1.346 . S
C223 C224 1.396 . S
C223 C233 1.510 . S
C224 C220 1.401 . S
C224 C223 1.396 . S
C225 C220 1.499 . S
C225 H226 0.959 . S
C225 H227 0.960 . S
C225 H228 0.961 . S
H226 C225 0.959 . S
H227 C225 0.960 . S
H228 C225 0.961 . S
O229 Co204 1.967 . S
O229 C237 1.258 . S
O230 Co205 1.941 . S
O230 C237 1.266 . S
H231 C233 0.959 . S
H232 C233 0.961 . S
C233 C223 1.510 . S
C233 H231 0.959 . S
C233 H232 0.961 . S
C233 H234 0.960 . S
H234 C233 0.960 . S
H235 N215 0.862 . S
O236 Co204 1.920 . S
O236 C209 1.289 . S
C237 O229 1.258 . S
C237 O230 1.266 . S
Co238 O241 1.970 1_455 S
Co238 N255 1.989 . S
Co238 O263 1.967 . S
Co238 O270 1.920 . S
Co239 O242 1.966 1_455 S
Co239 N248 2.022 . S
Co239 N256 1.993 . S
Co239 O264 1.941 . S
C240 O241 1.258 . S
C240 O242 1.263 . S
O241 Co238 1.970 1_655 S
O241 C240 1.258 . S
O242 Co239 1.966 1_655 S
O242 C240 1.263 . S
C243 O244 1.235 1_565 S
C243 O270 1.289 . S
O244 C243 1.235 1_545 S
C245 C247 1.400 . S
C245 N248 1.351 . S
C245 C250 1.501 1_465 S
C246 C247 1.387 . S
C246 N249 1.341 . S
C247 C245 1.400 . S
C247 C246 1.387 . S
N248 Co239 2.022 . S
N248 C245 1.351 . S
N248 N249 1.365 . S
N249 C246 1.341 . S
N249 N248 1.365 . S
N249 H269 0.862 . S
C250 C245 1.501 1_645 S
C250 H251 0.961 . S
C250 H252 0.961 . S
C250 H253 0.960 . S
H251 C250 0.961 . S
H252 C250 0.961 . S
H253 C250 0.960 . S
C254 N255 1.342 . S
C254 C258 1.401 . S
C254 C259 1.499 . S
N255 Co238 1.989 . S
N255 C254 1.342 . S
N255 N256 1.388 . S
N256 Co239 1.993 . S
N256 N255 1.388 . S
N256 C257 1.346 . S
C257 N256 1.346 . S
C257 C258 1.396 . S
C257 C267 1.510 . S
C258 C254 1.401 . S
C258 C257 1.396 . S
C259 C254 1.499 . S
C259 H260 0.959 . S
C259 H261 0.960 . S
C259 H262 0.961 . S
H260 C259 0.959 . S
H261 C259 0.960 . S
H262 C259 0.961 . S
O263 Co238 1.967 . S
O263 C271 1.258 . S
O264 Co239 1.941 . S
O264 C271 1.266 . S
H265 C267 0.959 . S
H266 C267 0.961 1_545 S
C267 C257 1.510 . S
C267 H265 0.959 . S
C267 H266 0.961 1_565 S
C267 H268 0.960 . S
H268 C267 0.960 . S
H269 N249 0.862 . S
O270 Co238 1.920 . S
O270 C243 1.289 . S
C271 O263 1.258 . S
C271 O264 1.266 . S
Co272 O275 1.970 . S
Co272 N289 1.989 . S
Co272 O297 1.967 . S
Co272 O304 1.920 . S
Co273 O276 1.966 . S
Co273 N282 2.022 . S
Co273 N290 1.993 . S
Co273 O298 1.941 . S
C274 O275 1.258 . S
C274 O276 1.263 . S
O275 Co272 1.970 . S
O275 C274 1.258 . S
O276 Co273 1.966 . S
O276 C274 1.263 . S
C277 O278 1.235 . S
C277 O304 1.289 . S
O278 C277 1.235 . S
C279 C281 1.400 . S
C279 N282 1.351 . S
C279 C284 1.501 . S
C280 C281 1.387 . S
C280 N283 1.341 . S
C281 C279 1.400 . S
C281 C280 1.387 . S
N282 Co273 2.022 . S
N282 C279 1.351 . S
N282 N283 1.365 . S
N283 C280 1.341 . S
N283 N282 1.365 . S
N283 H303 0.862 . S
C284 C279 1.501 . S
C284 H285 0.961 . S
C284 H286 0.961 . S
C284 H287 0.960 . S
H285 C284 0.961 . S
H286 C284 0.961 . S
H287 C284 0.960 . S
C288 N289 1.342 . S
C288 C292 1.401 . S
C288 C293 1.499 . S
N289 Co272 1.989 . S
N289 C288 1.342 . S
N289 N290 1.388 . S
N290 Co273 1.993 . S
N290 N289 1.388 . S
N290 C291 1.346 . S
C291 N290 1.346 . S
C291 C292 1.396 . S
C291 C301 1.510 . S
C292 C288 1.401 . S
C292 C291 1.396 . S
C293 C288 1.499 . S
C293 H294 0.959 . S
C293 H295 0.960 . S
C293 H296 0.961 . S
H294 C293 0.959 . S
H295 C293 0.960 . S
H296 C293 0.961 . S
O297 Co272 1.967 . S
O297 C305 1.258 . S
O298 Co273 1.941 . S
O298 C305 1.266 . S
H299 C301 0.959 . S
H300 C301 0.961 . S
C301 C291 1.510 . S
C301 H299 0.959 . S
C301 H300 0.961 . S
C301 H302 0.960 . S
H302 C301 0.960 . S
H303 N283 0.862 . S
O304 Co272 1.920 . S
O304 C277 1.289 . S
C305 O297 1.258 . S
C305 O298 1.266 . S
Co306 O309 1.970 1_655 S
Co306 N323 1.989 . S
Co306 O331 1.967 . S
Co306 O338 1.920 . S
Co307 O310 1.966 1_655 S
Co307 N316 2.022 . S
Co307 N324 1.993 . S
Co307 O332 1.941 . S
C308 O309 1.258 . S
C308 O310 1.263 . S
O309 Co306 1.970 1_455 S
O309 C308 1.258 . S
O310 Co307 1.966 1_455 S
O310 C308 1.263 . S
C311 O312 1.235 1_565 S
C311 O338 1.289 . S
O312 C311 1.235 1_545 S
C313 C315 1.400 . S
C313 N316 1.351 . S
C313 C318 1.501 . S
C314 C315 1.387 . S
C314 N317 1.341 . S
C315 C313 1.400 . S
C315 C314 1.387 . S
N316 Co307 2.022 . S
N316 C313 1.351 . S
N316 N317 1.365 . S
N317 C314 1.341 . S
N317 N316 1.365 . S
N317 H337 0.862 . S
C318 C313 1.501 . S
C318 H319 0.961 . S
C318 H320 0.961 1_565 S
C318 H321 0.960 1_655 S
H319 C318 0.961 . S
H320 C318 0.961 1_545 S
H321 C318 0.960 1_455 S
C322 N323 1.342 . S
C322 C326 1.401 . S
C322 C327 1.499 . S
N323 Co306 1.989 . S
N323 C322 1.342 . S
N323 N324 1.388 . S
N324 Co307 1.993 . S
N324 N323 1.388 . S
N324 C325 1.346 . S
C325 N324 1.346 . S
C325 C326 1.396 . S
C325 C335 1.510 . S
C326 C322 1.401 . S
C326 C325 1.396 . S
C327 C322 1.499 . S
C327 H328 0.959 . S
C327 H329 0.960 1_565 S
C327 H330 0.961 . S
H328 C327 0.959 . S
H329 C327 0.960 1_545 S
H330 C327 0.961 . S
O331 Co306 1.967 . S
O331 C339 1.258 . S
O332 Co307 1.941 . S
O332 C339 1.266 . S
H333 C335 0.959 . S
H334 C335 0.961 1_545 S
C335 C325 1.510 . S
C335 H333 0.959 . S
C335 H334 0.961 1_565 S
C335 H336 0.960 . S
H336 C335 0.960 . S
H337 N317 0.862 . S
O338 Co306 1.920 . S
O338 C311 1.289 . S
C339 O331 1.258 . S
C339 O332 1.266 . S
Co340 O343 1.970 . S
Co340 N357 1.989 . S
Co340 O365 1.967 . S
Co340 O372 1.920 . S
Co341 O344 1.966 . S
Co341 N350 2.022 . S
Co341 N358 1.993 . S
Co341 O366 1.941 . S
C342 O343 1.258 . S
C342 O344 1.263 . S
O343 Co340 1.970 . S
O343 C342 1.258 . S
O344 Co341 1.966 . S
O344 C342 1.263 . S
C345 O346 1.235 . S
C345 O372 1.289 . S
O346 C345 1.235 . S
C347 C349 1.400 . S
C347 N350 1.351 . S
C347 C352 1.501 . S
C348 C349 1.387 . S
C348 N351 1.341 . S
C349 C347 1.400 . S
C349 C348 1.387 . S
N350 Co341 2.022 . S
N350 C347 1.351 . S
N350 N351 1.365 . S
N351 C348 1.341 . S
N351 N350 1.365 . S
N351 H371 0.862 . S
C352 C347 1.501 . S
C352 H353 0.961 . S
C352 H354 0.961 . S
C352 H355 0.960 . S
H353 C352 0.961 . S
H354 C352 0.961 . S
H355 C352 0.960 . S
C356 N357 1.342 . S
C356 C360 1.401 . S
C356 C361 1.499 . S
N357 Co340 1.989 . S
N357 C356 1.342 . S
N357 N358 1.388 . S
N358 Co341 1.993 . S
N358 N357 1.388 . S
N358 C359 1.346 . S
C359 N358 1.346 . S
C359 C360 1.396 . S
C359 C369 1.510 . S
C360 C356 1.401 . S
C360 C359 1.396 . S
C361 C356 1.499 . S
C361 H362 0.959 . S
C361 H363 0.960 . S
C361 H364 0.961 . S
H362 C361 0.959 . S
H363 C361 0.960 . S
H364 C361 0.961 . S
O365 Co340 1.967 . S
O365 C373 1.258 . S
O366 Co341 1.941 . S
O366 C373 1.266 . S
H367 C369 0.959 . S
H368 C369 0.961 . S
C369 C359 1.510 . S
C369 H367 0.959 . S
C369 H368 0.961 . S
C369 H370 0.960 . S
H370 C369 0.960 . S
H371 N351 0.862 . S
O372 Co340 1.920 . S
O372 C345 1.289 . S
C373 O365 1.258 . S
C373 O366 1.266 . S
Co374 O377 1.970 . S
Co374 N391 1.989 . S
Co374 O399 1.967 . S
Co374 O406 1.920 . S
Co375 O378 1.966 . S
Co375 N384 2.022 . S
Co375 N392 1.993 . S
Co375 O400 1.941 . S
C376 O377 1.258 . S
C376 O378 1.263 . S
O377 Co374 1.970 . S
O377 C376 1.258 . S
O378 Co375 1.966 . S
O378 C376 1.263 . S
C379 O380 1.235 1_545 S
C379 O406 1.289 . S
O380 C379 1.235 1_565 S
C381 C383 1.400 . S
C381 N384 1.351 . S
C381 C386 1.501 . S
C382 C383 1.387 . S
C382 N385 1.341 . S
C383 C381 1.400 . S
C383 C382 1.387 . S
N384 Co375 2.022 . S
N384 C381 1.351 . S
N384 N385 1.365 . S
N385 C382 1.341 . S
N385 N384 1.365 . S
N385 H405 0.862 . S
C386 C381 1.501 . S
C386 H387 0.961 . S
C386 H388 0.961 1_545 S
C386 H389 0.960 . S
H387 C386 0.961 . S
H388 C386 0.961 1_565 S
H389 C386 0.960 . S
C390 N391 1.342 . S
C390 C394 1.401 . S
C390 C395 1.499 . S
N391 Co374 1.989 . S
N391 C390 1.342 . S
N391 N392 1.388 . S
N392 Co375 1.993 . S
N392 N391 1.388 . S
N392 C393 1.346 . S
C393 N392 1.346 . S
C393 C394 1.396 . S
C393 C403 1.510 . S
C394 C390 1.401 . S
C394 C393 1.396 . S
C395 C390 1.499 . S
C395 H396 0.959 . S
C395 H397 0.960 1_545 S
C395 H398 0.961 . S
H396 C395 0.959 . S
H397 C395 0.960 1_565 S
H398 C395 0.961 . S
O399 Co374 1.967 . S
O399 C407 1.258 . S
O400 Co375 1.941 . S
O400 C407 1.266 . S
H401 C403 0.959 . S
H402 C403 0.961 1_565 S
C403 C393 1.510 . S
C403 H401 0.959 . S
C403 H402 0.961 1_545 S
C403 H404 0.960 . S
H404 C403 0.960 . S
H405 N385 0.862 . S
O406 Co374 1.920 . S
O406 C379 1.289 . S
C407 O399 1.258 . S
C407 O400 1.266 . S
Co408 O411 1.970 . S
Co408 N425 1.989 . S
Co408 O433 1.967 . S
Co408 O440 1.920 . S
Co409 O412 1.966 . S
Co409 N418 2.022 . S
Co409 N426 1.993 . S
Co409 O434 1.941 . S
C410 O411 1.258 . S
C410 O412 1.263 . S
O411 Co408 1.970 . S
O411 C410 1.258 . S
O412 Co409 1.966 . S
O412 C410 1.263 . S
C413 O414 1.235 . S
C413 O440 1.289 . S
O414 C413 1.235 . S
C415 C417 1.400 . S
C415 N418 1.351 . S
C415 C420 1.501 . S
C416 C417 1.387 . S
C416 N419 1.341 . S
C417 C415 1.400 . S
C417 C416 1.387 . S
N418 Co409 2.022 . S
N418 C415 1.351 . S
N418 N419 1.365 . S
N419 C416 1.341 . S
N419 N418 1.365 . S
N419 H439 0.862 . S
C420 C415 1.501 . S
C420 H421 0.961 . S
C420 H422 0.961 . S
C420 H423 0.960 . S
H421 C420 0.961 . S
H422 C420 0.961 . S
H423 C420 0.960 . S
C424 N425 1.342 . S
C424 C428 1.401 . S
C424 C429 1.499 . S
N425 Co408 1.989 . S
N425 C424 1.342 . S
N425 N426 1.388 . S
N426 Co409 1.993 . S
N426 N425 1.388 . S
N426 C427 1.346 . S
C427 N426 1.346 . S
C427 C428 1.396 . S
C427 C437 1.510 . S
C428 C424 1.401 . S
C428 C427 1.396 . S
C429 C424 1.499 . S
C429 H430 0.959 . S
C429 H431 0.960 . S
C429 H432 0.961 . S
H430 C429 0.959 . S
H431 C429 0.960 . S
H432 C429 0.961 . S
O433 Co408 1.967 . S
O433 C441 1.258 . S
O434 Co409 1.941 . S
O434 C441 1.266 . S
H435 C437 0.959 . S
H436 C437 0.961 . S
C437 C427 1.510 . S
C437 H435 0.959 . S
C437 H436 0.961 . S
C437 H438 0.960 . S
H438 C437 0.960 . S
H439 N419 0.862 . S
O440 Co408 1.920 . S
O440 C413 1.289 . S
C441 O433 1.258 . S
C441 O434 1.266 . S
Co442 O445 1.970 . S
Co442 N459 1.989 . S
Co442 O467 1.967 . S
Co442 O474 1.920 . S
Co443 O446 1.966 . S
Co443 N452 2.022 . S
Co443 N460 1.993 . S
Co443 O468 1.941 . S
C444 O445 1.258 . S
C444 O446 1.263 . S
O445 Co442 1.970 . S
O445 C444 1.258 . S
O446 Co443 1.966 . S
O446 C444 1.263 . S
C447 O448 1.235 1_565 S
C447 O474 1.289 . S
O448 C447 1.235 1_545 S
C449 C451 1.400 . S
C449 N452 1.351 . S
C449 C454 1.501 . S
C450 C451 1.387 . S
C450 N453 1.341 . S
C451 C449 1.400 . S
C451 C450 1.387 . S
N452 Co443 2.022 . S
N452 C449 1.351 . S
N452 N453 1.365 . S
N453 C450 1.341 . S
N453 N452 1.365 . S
N453 H473 0.862 . S
C454 C449 1.501 . S
C454 H455 0.961 . S
C454 H456 0.961 1_565 S
C454 H457 0.960 . S
H455 C454 0.961 . S
H456 C454 0.961 1_545 S
H457 C454 0.960 . S
C458 N459 1.342 . S
C458 C462 1.401 . S
C458 C463 1.499 . S
N459 Co442 1.989 . S
N459 C458 1.342 . S
N459 N460 1.388 . S
N460 Co443 1.993 . S
N460 N459 1.388 . S
N460 C461 1.346 . S
C461 N460 1.346 . S
C461 C462 1.396 . S
C461 C471 1.510 . S
C462 C458 1.401 . S
C462 C461 1.396 . S
C463 C458 1.499 . S
C463 H464 0.959 . S
C463 H465 0.960 1_565 S
C463 H466 0.961 . S
H464 C463 0.959 . S
H465 C463 0.960 1_545 S
H466 C463 0.961 . S
O467 Co442 1.967 . S
O467 C475 1.258 . S
O468 Co443 1.941 . S
O468 C475 1.266 . S
H469 C471 0.959 . S
H470 C471 0.961 1_545 S
C471 C461 1.510 . S
C471 H469 0.959 . S
C471 H470 0.961 1_565 S
C471 H472 0.960 . S
H472 C471 0.960 . S
H473 N453 0.862 . S
O474 Co442 1.920 . S
O474 C447 1.289 . S
C475 O467 1.258 . S
C475 O468 1.266 . S
Co476 O479 1.970 . S
Co476 N493 1.989 . S
Co476 O501 1.967 . S
Co476 O508 1.920 . S
Co477 O480 1.966 . S
Co477 N486 2.022 . S
Co477 N494 1.993 . S
Co477 O502 1.941 . S
C478 O479 1.258 . S
C478 O480 1.263 . S
O479 Co476 1.970 . S
O479 C478 1.258 . S
O480 Co477 1.966 . S
O480 C478 1.263 . S
C481 O482 1.235 . S
C481 O508 1.289 . S
O482 C481 1.235 . S
C483 C485 1.400 . S
C483 N486 1.351 . S
C483 C488 1.501 . S
C484 C485 1.387 . S
C484 N487 1.341 . S
C485 C483 1.400 . S
C485 C484 1.387 . S
N486 Co477 2.022 . S
N486 C483 1.351 . S
N486 N487 1.365 . S
N487 C484 1.341 . S
N487 N486 1.365 . S
N487 H507 0.862 . S
C488 C483 1.501 . S
C488 H489 0.961 . S
C488 H490 0.961 . S
C488 H491 0.960 . S
H489 C488 0.961 . S
H490 C488 0.961 . S
H491 C488 0.960 . S
C492 N493 1.342 . S
C492 C496 1.401 . S
C492 C497 1.499 . S
N493 Co476 1.989 . S
N493 C492 1.342 . S
N493 N494 1.388 . S
N494 Co477 1.993 . S
N494 N493 1.388 . S
N494 C495 1.346 . S
C495 N494 1.346 . S
C495 C496 1.396 . S
C495 C505 1.510 . S
C496 C492 1.401 . S
C496 C495 1.396 . S
C497 C492 1.499 . S
C497 H498 0.959 . S
C497 H499 0.960 . S
C497 H500 0.961 . S
H498 C497 0.959 . S
H499 C497 0.960 . S
H500 C497 0.961 . S
O501 Co476 1.967 . S
O501 C509 1.258 . S
O502 Co477 1.941 . S
O502 C509 1.266 . S
H503 C505 0.959 . S
H504 C505 0.961 . S
C505 C495 1.510 . S
C505 H503 0.959 . S
C505 H504 0.961 . S
C505 H506 0.960 . S
H506 C505 0.960 . S
H507 N487 0.862 . S
O508 Co476 1.920 . S
O508 C481 1.289 . S
C509 O501 1.258 . S
C509 O502 1.266 . S
Co510 O513 1.970 1_655 S
Co510 N527 1.989 . S
Co510 O535 1.967 . S
Co510 O542 1.920 . S
Co511 O514 1.966 1_655 S
Co511 N520 2.022 . S
Co511 N528 1.993 . S
Co511 O536 1.941 . S
C512 O513 1.258 . S
C512 O514 1.263 . S
O513 Co510 1.970 1_455 S
O513 C512 1.258 . S
O514 Co511 1.966 1_455 S
O514 C512 1.263 . S
C515 O516 1.235 1_545 S
C515 O542 1.289 . S
O516 C515 1.235 1_565 S
C517 C519 1.400 . S
C517 N520 1.351 . S
C517 C522 1.501 . S
C518 C519 1.387 . S
C518 N521 1.341 . S
C519 C517 1.400 . S
C519 C518 1.387 . S
N520 Co511 2.022 . S
N520 C517 1.351 . S
N520 N521 1.365 . S
N521 C518 1.341 . S
N521 N520 1.365 . S
N521 H541 0.862 . S
C522 C517 1.501 . S
C522 H523 0.961 . S
C522 H524 0.961 1_545 S
C522 H525 0.960 1_655 S
H523 C522 0.961 . S
H524 C522 0.961 1_565 S
H525 C522 0.960 1_455 S
C526 N527 1.342 . S
C526 C530 1.401 . S
C526 C531 1.499 . S
N527 Co510 1.989 . S
N527 C526 1.342 . S
N527 N528 1.388 . S
N528 Co511 1.993 . S
N528 N527 1.388 . S
N528 C529 1.346 . S
C529 N528 1.346 . S
C529 C530 1.396 . S
C529 C539 1.510 . S
C530 C526 1.401 . S
C530 C529 1.396 . S
C531 C526 1.499 . S
C531 H532 0.959 . S
C531 H533 0.960 1_545 S
C531 H534 0.961 . S
H532 C531 0.959 . S
H533 C531 0.960 1_565 S
H534 C531 0.961 . S
O535 Co510 1.967 . S
O535 C543 1.258 . S
O536 Co511 1.941 . S
O536 C543 1.266 . S
H537 C539 0.959 . S
H538 C539 0.961 1_565 S
C539 C529 1.510 . S
C539 H537 0.959 . S
C539 H538 0.961 1_545 S
C539 H540 0.960 . S
H540 C539 0.960 . S
H541 N521 0.862 . S
O542 Co510 1.920 . S
O542 C515 1.289 . S
C543 O535 1.258 . S
C543 O536 1.266 . S
Co544 O547 1.970 . S
Co544 N561 1.989 . S
Co544 O569 1.967 . S
Co544 O576 1.920 . S
Co545 O548 1.966 . S
Co545 N554 2.022 . S
Co545 N562 1.993 . S
Co545 O570 1.941 . S
C546 O547 1.258 . S
C546 O548 1.263 . S
O547 Co544 1.970 . S
O547 C546 1.258 . S
O548 Co545 1.966 . S
O548 C546 1.263 . S
C549 O550 1.235 . S
C549 O576 1.289 . S
O550 C549 1.235 . S
C551 C553 1.400 . S
C551 N554 1.351 . S
C551 C556 1.501 . S
C552 C553 1.387 . S
C552 N555 1.341 . S
C553 C551 1.400 . S
C553 C552 1.387 . S
N554 Co545 2.022 . S
N554 C551 1.351 . S
N554 N555 1.365 . S
N555 C552 1.341 . S
N555 N554 1.365 . S
N555 H575 0.862 . S
C556 C551 1.501 . S
C556 H557 0.961 . S
C556 H558 0.961 . S
C556 H559 0.960 . S
H557 C556 0.961 . S
H558 C556 0.961 . S
H559 C556 0.960 . S
C560 N561 1.342 . S
C560 C564 1.401 . S
C560 C565 1.499 . S
N561 Co544 1.989 . S
N561 C560 1.342 . S
N561 N562 1.388 . S
N562 Co545 1.993 . S
N562 N561 1.388 . S
N562 C563 1.346 . S
C563 N562 1.346 . S
C563 C564 1.396 . S
C563 C573 1.510 . S
C564 C560 1.401 . S
C564 C563 1.396 . S
C565 C560 1.499 . S
C565 H566 0.959 . S
C565 H567 0.960 . S
C565 H568 0.961 . S
H566 C565 0.959 . S
H567 C565 0.960 . S
H568 C565 0.961 . S
O569 Co544 1.967 . S
O569 C577 1.258 . S
O570 Co545 1.941 . S
O570 C577 1.266 . S
H571 C573 0.959 . S
H572 C573 0.961 . S
C573 C563 1.510 . S
C573 H571 0.959 . S
C573 H572 0.961 . S
C573 H574 0.960 . S
H574 C573 0.960 . S
H575 N555 0.862 . S
O576 Co544 1.920 . S
O576 C549 1.289 . S
C577 O569 1.258 . S
C577 O570 1.266 . S
Co578 O581 1.970 . S
Co578 N595 1.989 . S
Co578 O603 1.967 . S
Co578 O610 1.920 . S
Co579 O582 1.966 . S
Co579 N588 2.022 . S
Co579 N596 1.993 . S
Co579 O604 1.941 . S
C580 O581 1.258 . S
C580 O582 1.263 . S
O581 Co578 1.970 . S
O581 C580 1.258 . S
O582 Co579 1.966 . S
O582 C580 1.263 . S
C583 O584 1.235 . S
C583 O610 1.289 . S
O584 C583 1.235 . S
C585 C587 1.400 . S
C585 N588 1.351 . S
C585 C590 1.501 . S
C586 C587 1.387 . S
C586 N589 1.341 . S
C587 C585 1.400 . S
C587 C586 1.387 . S
N588 Co579 2.022 . S
N588 C585 1.351 . S
N588 N589 1.365 . S
N589 C586 1.341 . S
N589 N588 1.365 . S
N589 H609 0.862 . S
C590 C585 1.501 . S
C590 H591 0.961 . S
C590 H592 0.961 . S
C590 H593 0.960 . S
H591 C590 0.961 . S
H592 C590 0.961 . S
H593 C590 0.960 . S
C594 N595 1.342 . S
C594 C598 1.401 . S
C594 C599 1.499 . S
N595 Co578 1.989 . S
N595 C594 1.342 . S
N595 N596 1.388 . S
N596 Co579 1.993 . S
N596 N595 1.388 . S
N596 C597 1.346 . S
C597 N596 1.346 . S
C597 C598 1.396 . S
C597 C607 1.510 . S
C598 C594 1.401 . S
C598 C597 1.396 . S
C599 C594 1.499 . S
C599 H600 0.959 . S
C599 H601 0.960 . S
C599 H602 0.961 . S
H600 C599 0.959 . S
H601 C599 0.960 . S
H602 C599 0.961 . S
O603 Co578 1.967 . S
O603 C611 1.258 . S
O604 Co579 1.941 . S
O604 C611 1.266 . S
H605 C607 0.959 . S
H606 C607 0.961 . S
C607 C597 1.510 . S
C607 H605 0.959 . S
C607 H606 0.961 . S
C607 H608 0.960 . S
H608 C607 0.960 . S
H609 N589 0.862 . S
O610 Co578 1.920 . S
O610 C583 1.289 . S
C611 O603 1.258 . S
C611 O604 1.266 . S
Co612 O615 1.970 . S
Co612 N629 1.989 . S
Co612 O637 1.967 . S
Co612 O644 1.920 . S
Co613 O616 1.966 . S
Co613 N622 2.022 . S
Co613 N630 1.993 . S
Co613 O638 1.941 . S
C614 O615 1.258 . S
C614 O616 1.263 . S
O615 Co612 1.970 . S
O615 C614 1.258 . S
O616 Co613 1.966 . S
O616 C614 1.263 . S
C617 O618 1.235 . S
C617 O644 1.289 . S
O618 C617 1.235 . S
C619 C621 1.400 . S
C619 N622 1.351 . S
C619 C624 1.501 . S
C620 C621 1.387 . S
C620 N623 1.341 . S
C621 C619 1.400 . S
C621 C620 1.387 . S
N622 Co613 2.022 . S
N622 C619 1.351 . S
N622 N623 1.365 . S
N623 C620 1.341 . S
N623 N622 1.365 . S
N623 H643 0.862 . S
C624 C619 1.501 . S
C624 H625 0.961 . S
C624 H626 0.961 . S
C624 H627 0.960 . S
H625 C624 0.961 . S
H626 C624 0.961 . S
H627 C624 0.960 . S
C628 N629 1.342 . S
C628 C632 1.401 . S
C628 C633 1.499 . S
N629 Co612 1.989 . S
N629 C628 1.342 . S
N629 N630 1.388 . S
N630 Co613 1.993 . S
N630 N629 1.388 . S
N630 C631 1.346 . S
C631 N630 1.346 . S
C631 C632 1.396 . S
C631 C641 1.510 . S
C632 C628 1.401 . S
C632 C631 1.396 . S
C633 C628 1.499 . S
C633 H634 0.959 . S
C633 H635 0.960 . S
C633 H636 0.961 . S
H634 C633 0.959 . S
H635 C633 0.960 . S
H636 C633 0.961 . S
O637 Co612 1.967 . S
O637 C645 1.258 . S
O638 Co613 1.941 . S
O638 C645 1.266 . S
H639 C641 0.959 . S
H640 C641 0.961 . S
C641 C631 1.510 . S
C641 H639 0.959 . S
C641 H640 0.961 . S
C641 H642 0.960 . S
H642 C641 0.960 . S
H643 N623 0.862 . S
O644 Co612 1.920 . S
O644 C617 1.289 . S
C645 O637 1.258 . S
C645 O638 1.266 . S
Co646 O649 1.970 1_655 S
Co646 N663 1.989 . S
Co646 O671 1.967 . S
Co646 O678 1.920 . S
Co647 O650 1.966 1_655 S
Co647 N656 2.022 . S
Co647 N664 1.993 . S
Co647 O672 1.941 . S
C648 O649 1.258 . S
C648 O650 1.263 . S
O649 Co646 1.970 1_455 S
O649 C648 1.258 . S
O650 Co647 1.966 1_455 S
O650 C648 1.263 . S
C651 O652 1.235 . S
C651 O678 1.289 . S
O652 C651 1.235 . S
C653 C655 1.400 . S
C653 N656 1.351 . S
C653 C658 1.501 1_655 S
C654 C655 1.387 . S
C654 N657 1.341 . S
C655 C653 1.400 . S
C655 C654 1.387 . S
N656 Co647 2.022 . S
N656 C653 1.351 . S
N656 N657 1.365 . S
N657 C654 1.341 . S
N657 N656 1.365 . S
N657 H677 0.862 . S
C658 C653 1.501 1_455 S
C658 H659 0.961 . S
C658 H660 0.961 . S
C658 H661 0.960 . S
H659 C658 0.961 . S
H660 C658 0.961 . S
H661 C658 0.960 . S
C662 N663 1.342 . S
C662 C666 1.401 . S
C662 C667 1.499 . S
N663 Co646 1.989 . S
N663 C662 1.342 . S
N663 N664 1.388 . S
N664 Co647 1.993 . S
N664 N663 1.388 . S
N664 C665 1.346 . S
C665 N664 1.346 . S
C665 C666 1.396 . S
C665 C675 1.510 . S
C666 C662 1.401 . S
C666 C665 1.396 . S
C667 C662 1.499 . S
C667 H668 0.959 . S
C667 H669 0.960 . S
C667 H670 0.961 . S
H668 C667 0.959 . S
H669 C667 0.960 . S
H670 C667 0.961 . S
O671 Co646 1.967 . S
O671 C679 1.258 . S
O672 Co647 1.941 . S
O672 C679 1.266 . S
H673 C675 0.959 . S
H674 C675 0.961 . S
C675 C665 1.510 . S
C675 H673 0.959 . S
C675 H674 0.961 . S
C675 H676 0.960 . S
H676 C675 0.960 . S
H677 N657 0.862 . S
O678 Co646 1.920 . S
O678 C651 1.289 . S
C679 O671 1.258 . S
C679 O672 1.266 . S
Co680 O683 1.970 . S
Co680 N697 1.989 . S
Co680 O705 1.967 . S
Co680 O712 1.920 . S
Co681 O684 1.966 . S
Co681 N690 2.022 . S
Co681 N698 1.993 . S
Co681 O706 1.941 . S
C682 O683 1.258 . S
C682 O684 1.263 . S
O683 Co680 1.970 . S
O683 C682 1.258 . S
O684 Co681 1.966 . S
O684 C682 1.263 . S
C685 O686 1.235 . S
C685 O712 1.289 . S
O686 C685 1.235 . S
C687 C689 1.400 . S
C687 N690 1.351 . S
C687 C692 1.501 . S
C688 C689 1.387 . S
C688 N691 1.341 . S
C689 C687 1.400 . S
C689 C688 1.387 . S
N690 Co681 2.022 . S
N690 C687 1.351 . S
N690 N691 1.365 . S
N691 C688 1.341 . S
N691 N690 1.365 . S
N691 H711 0.862 . S
C692 C687 1.501 . S
C692 H693 0.961 . S
C692 H694 0.961 . S
C692 H695 0.960 . S
H693 C692 0.961 . S
H694 C692 0.961 . S
H695 C692 0.960 . S
C696 N697 1.342 . S
C696 C700 1.401 . S
C696 C701 1.499 . S
N697 Co680 1.989 . S
N697 C696 1.342 . S
N697 N698 1.388 . S
N698 Co681 1.993 . S
N698 N697 1.388 . S
N698 C699 1.346 . S
C699 N698 1.346 . S
C699 C700 1.396 . S
C699 C709 1.510 . S
C700 C696 1.401 . S
C700 C699 1.396 . S
C701 C696 1.499 . S
C701 H702 0.959 . S
C701 H703 0.960 . S
C701 H704 0.961 . S
H702 C701 0.959 . S
H703 C701 0.960 . S
H704 C701 0.961 . S
O705 Co680 1.967 . S
O705 C713 1.258 . S
O706 Co681 1.941 . S
O706 C713 1.266 . S
H707 C709 0.959 . S
H708 C709 0.961 . S
C709 C699 1.510 . S
C709 H707 0.959 . S
C709 H708 0.961 . S
C709 H710 0.960 . S
H710 C709 0.960 . S
H711 N691 0.862 . S
O712 Co680 1.920 . S
O712 C685 1.289 . S
C713 O705 1.258 . S
C713 O706 1.266 . S
Co714 O717 1.970 1_655 S
Co714 N731 1.989 . S
Co714 O739 1.967 . S
Co714 O746 1.920 . S
Co715 O718 1.966 1_655 S
Co715 N724 2.022 . S
Co715 N732 1.993 . S
Co715 O740 1.941 . S
C716 O717 1.258 . S
C716 O718 1.263 . S
O717 Co714 1.970 1_455 S
O717 C716 1.258 . S
O718 Co715 1.966 1_455 S
O718 C716 1.263 . S
C719 O720 1.235 . S
C719 O746 1.289 . S
O720 C719 1.235 . S
C721 C723 1.400 . S
C721 N724 1.351 . S
C721 C726 1.501 1_655 S
C722 C723 1.387 . S
C722 N725 1.341 . S
C723 C721 1.400 . S
C723 C722 1.387 . S
N724 Co715 2.022 . S
N724 C721 1.351 . S
N724 N725 1.365 . S
N725 C722 1.341 . S
N725 N724 1.365 . S
N725 H745 0.862 . S
C726 C721 1.501 1_455 S
C726 H727 0.961 . S
C726 H728 0.961 . S
C726 H729 0.960 . S
H727 C726 0.961 . S
H728 C726 0.961 . S
H729 C726 0.960 . S
C730 N731 1.342 . S
C730 C734 1.401 . S
C730 C735 1.499 . S
N731 Co714 1.989 . S
N731 C730 1.342 . S
N731 N732 1.388 . S
N732 Co715 1.993 . S
N732 N731 1.388 . S
N732 C733 1.346 . S
C733 N732 1.346 . S
C733 C734 1.396 . S
C733 C743 1.510 . S
C734 C730 1.401 . S
C734 C733 1.396 . S
C735 C730 1.499 . S
C735 H736 0.959 . S
C735 H737 0.960 . S
C735 H738 0.961 . S
H736 C735 0.959 . S
H737 C735 0.960 . S
H738 C735 0.961 . S
O739 Co714 1.967 . S
O739 C747 1.258 . S
O740 Co715 1.941 . S
O740 C747 1.266 . S
H741 C743 0.959 . S
H742 C743 0.961 . S
C743 C733 1.510 . S
C743 H741 0.959 . S
C743 H742 0.961 . S
C743 H744 0.960 . S
H744 C743 0.960 . S
H745 N725 0.862 . S
O746 Co714 1.920 . S
O746 C719 1.289 . S
C747 O739 1.258 . S
C747 O740 1.266 . S
Co748 O751 1.970 . S
Co748 N765 1.989 . S
Co748 O773 1.967 . S
Co748 O780 1.920 . S
Co749 O752 1.966 . S
Co749 N758 2.022 . S
Co749 N766 1.993 . S
Co749 O774 1.941 . S
C750 O751 1.258 . S
C750 O752 1.263 . S
O751 Co748 1.970 . S
O751 C750 1.258 . S
O752 Co749 1.966 . S
O752 C750 1.263 . S
C753 O754 1.235 . S
C753 O780 1.289 . S
O754 C753 1.235 . S
C755 C757 1.400 . S
C755 N758 1.351 . S
C755 C760 1.501 . S
C756 C757 1.387 . S
C756 N759 1.341 . S
C757 C755 1.400 . S
C757 C756 1.387 . S
N758 Co749 2.022 . S
N758 C755 1.351 . S
N758 N759 1.365 . S
N759 C756 1.341 . S
N759 N758 1.365 . S
N759 H779 0.862 . S
C760 C755 1.501 . S
C760 H761 0.961 . S
C760 H762 0.961 . S
C760 H763 0.960 . S
H761 C760 0.961 . S
H762 C760 0.961 . S
H763 C760 0.960 . S
C764 N765 1.342 . S
C764 C768 1.401 . S
C764 C769 1.499 . S
N765 Co748 1.989 . S
N765 C764 1.342 . S
N765 N766 1.388 . S
N766 Co749 1.993 . S
N766 N765 1.388 . S
N766 C767 1.346 . S
C767 N766 1.346 . S
C767 C768 1.396 . S
C767 C777 1.510 . S
C768 C764 1.401 . S
C768 C767 1.396 . S
C769 C764 1.499 . S
C769 H770 0.959 . S
C769 H771 0.960 . S
C769 H772 0.961 . S
H770 C769 0.959 . S
H771 C769 0.960 . S
H772 C769 0.961 . S
O773 Co748 1.967 . S
O773 C781 1.258 . S
O774 Co749 1.941 . S
O774 C781 1.266 . S
H775 C777 0.959 . S
H776 C777 0.961 . S
C777 C767 1.510 . S
C777 H775 0.959 . S
C777 H776 0.961 . S
C777 H778 0.960 . S
H778 C777 0.960 . S
H779 N759 0.862 . S
O780 Co748 1.920 . S
O780 C753 1.289 . S
C781 O773 1.258 . S
C781 O774 1.266 . S
Co782 O785 1.970 . S
Co782 N799 1.989 . S
Co782 O807 1.967 . S
Co782 O814 1.920 . S
Co783 O786 1.966 . S
Co783 N792 2.022 . S
Co783 N800 1.993 . S
Co783 O808 1.941 . S
C784 O785 1.258 . S
C784 O786 1.263 . S
O785 Co782 1.970 . S
O785 C784 1.258 . S
O786 Co783 1.966 . S
O786 C784 1.263 . S
C787 O788 1.235 . S
C787 O814 1.289 . S
O788 C787 1.235 . S
C789 C791 1.400 . S
C789 N792 1.351 . S
C789 C794 1.501 . S
C790 C791 1.387 . S
C790 N793 1.341 . S
C791 C789 1.400 . S
C791 C790 1.387 . S
N792 Co783 2.022 . S
N792 C789 1.351 . S
N792 N793 1.365 . S
N793 C790 1.341 . S
N793 N792 1.365 . S
N793 H813 0.862 . S
C794 C789 1.501 . S
C794 H795 0.961 . S
C794 H796 0.961 . S
C794 H797 0.960 . S
H795 C794 0.961 . S
H796 C794 0.961 . S
H797 C794 0.960 . S
C798 N799 1.342 . S
C798 C802 1.401 . S
C798 C803 1.499 . S
N799 Co782 1.989 . S
N799 C798 1.342 . S
N799 N800 1.388 . S
N800 Co783 1.993 . S
N800 N799 1.388 . S
N800 C801 1.346 . S
C801 N800 1.346 . S
C801 C802 1.396 . S
C801 C811 1.510 . S
C802 C798 1.401 . S
C802 C801 1.396 . S
C803 C798 1.499 . S
C803 H804 0.959 . S
C803 H805 0.960 . S
C803 H806 0.961 . S
H804 C803 0.959 . S
H805 C803 0.960 . S
H806 C803 0.961 . S
O807 Co782 1.967 . S
O807 C815 1.258 . S
O808 Co783 1.941 . S
O808 C815 1.266 . S
H809 C811 0.959 . S
H810 C811 0.961 . S
C811 C801 1.510 . S
C811 H809 0.959 . S
C811 H810 0.961 . S
C811 H812 0.960 . S
H812 C811 0.960 . S
H813 N793 0.862 . S
O814 Co782 1.920 . S
O814 C787 1.289 . S
C815 O807 1.258 . S
C815 O808 1.266 . S
Co816 O819 1.970 . S
Co816 N833 1.989 . S
Co816 O841 1.967 . S
Co816 O848 1.920 . S
Co817 O820 1.966 . S
Co817 N826 2.022 . S
Co817 N834 1.993 . S
Co817 O842 1.941 . S
C818 O819 1.258 . S
C818 O820 1.263 . S
O819 Co816 1.970 . S
O819 C818 1.258 . S
O820 Co817 1.966 . S
O820 C818 1.263 . S
C821 O822 1.235 . S
C821 O848 1.289 . S
O822 C821 1.235 . S
C823 C825 1.400 . S
C823 N826 1.351 . S
C823 C828 1.501 . S
C824 C825 1.387 . S
C824 N827 1.341 . S
C825 C823 1.400 . S
C825 C824 1.387 . S
N826 Co817 2.022 . S
N826 C823 1.351 . S
N826 N827 1.365 . S
N827 C824 1.341 . S
N827 N826 1.365 . S
N827 H847 0.862 . S
C828 C823 1.501 . S
C828 H829 0.961 . S
C828 H830 0.961 . S
C828 H831 0.960 . S
H829 C828 0.961 . S
H830 C828 0.961 . S
H831 C828 0.960 . S
C832 N833 1.342 . S
C832 C836 1.401 . S
C832 C837 1.499 . S
N833 Co816 1.989 . S
N833 C832 1.342 . S
N833 N834 1.388 . S
N834 Co817 1.993 . S
N834 N833 1.388 . S
N834 C835 1.346 . S
C835 N834 1.346 . S
C835 C836 1.396 . S
C835 C845 1.510 . S
C836 C832 1.401 . S
C836 C835 1.396 . S
C837 C832 1.499 . S
C837 H838 0.959 . S
C837 H839 0.960 . S
C837 H840 0.961 . S
H838 C837 0.959 . S
H839 C837 0.960 . S
H840 C837 0.961 . S
O841 Co816 1.967 . S
O841 C849 1.258 . S
O842 Co817 1.941 . S
O842 C849 1.266 . S
H843 C845 0.959 . S
H844 C845 0.961 . S
C845 C835 1.510 . S
C845 H843 0.959 . S
C845 H844 0.961 . S
C845 H846 0.960 . S
H846 C845 0.960 . S
H847 N827 0.862 . S
O848 Co816 1.920 . S
O848 C821 1.289 . S
C849 O841 1.258 . S
C849 O842 1.266 . S
Co850 O853 1.970 . S
Co850 N867 1.989 . S
Co850 O875 1.967 . S
Co850 O882 1.920 . S
Co851 O854 1.966 . S
Co851 N860 2.022 . S
Co851 N868 1.993 . S
Co851 O876 1.941 . S
C852 O853 1.258 . S
C852 O854 1.263 . S
O853 Co850 1.970 . S
O853 C852 1.258 . S
O854 Co851 1.966 . S
O854 C852 1.263 . S
C855 O856 1.235 . S
C855 O882 1.289 . S
O856 C855 1.235 . S
C857 C859 1.400 . S
C857 N860 1.351 . S
C857 C862 1.501 . S
C858 C859 1.387 . S
C858 N861 1.341 . S
C859 C857 1.400 . S
C859 C858 1.387 . S
N860 Co851 2.022 . S
N860 C857 1.351 . S
N860 N861 1.365 . S
N861 C858 1.341 . S
N861 N860 1.365 . S
N861 H881 0.862 . S
C862 C857 1.501 . S
C862 H863 0.961 . S
C862 H864 0.961 . S
C862 H865 0.960 . S
H863 C862 0.961 . S
H864 C862 0.961 . S
H865 C862 0.960 . S
C866 N867 1.342 . S
C866 C870 1.401 . S
C866 C871 1.499 . S
N867 Co850 1.989 . S
N867 C866 1.342 . S
N867 N868 1.388 . S
N868 Co851 1.993 . S
N868 N867 1.388 . S
N868 C869 1.346 . S
C869 N868 1.346 . S
C869 C870 1.396 . S
C869 C879 1.510 . S
C870 C866 1.401 . S
C870 C869 1.396 . S
C871 C866 1.499 . S
C871 H872 0.959 . S
C871 H873 0.960 . S
C871 H874 0.961 . S
H872 C871 0.959 . S
H873 C871 0.960 . S
H874 C871 0.961 . S
O875 Co850 1.967 . S
O875 C883 1.258 . S
O876 Co851 1.941 . S
O876 C883 1.266 . S
H877 C879 0.959 . S
H878 C879 0.961 . S
C879 C869 1.510 . S
C879 H877 0.959 . S
C879 H878 0.961 . S
C879 H880 0.960 . S
H880 C879 0.960 . S
H881 N861 0.862 . S
O882 Co850 1.920 . S
O882 C855 1.289 . S
C883 O875 1.258 . S
C883 O876 1.266 . S
Co884 O887 1.970 . S
Co884 N901 1.989 . S
Co884 O909 1.967 . S
Co884 O916 1.920 . S
Co885 O888 1.966 . S
Co885 N894 2.022 . S
Co885 N902 1.993 . S
Co885 O910 1.941 . S
C886 O887 1.258 . S
C886 O888 1.263 . S
O887 Co884 1.970 . S
O887 C886 1.258 . S
O888 Co885 1.966 . S
O888 C886 1.263 . S
C889 O890 1.235 . S
C889 O916 1.289 . S
O890 C889 1.235 . S
C891 C893 1.400 . S
C891 N894 1.351 . S
C891 C896 1.501 . S
C892 C893 1.387 . S
C892 N895 1.341 . S
C893 C891 1.400 . S
C893 C892 1.387 . S
N894 Co885 2.022 . S
N894 C891 1.351 . S
N894 N895 1.365 . S
N895 C892 1.341 . S
N895 N894 1.365 . S
N895 H915 0.862 . S
C896 C891 1.501 . S
C896 H897 0.961 . S
C896 H898 0.961 . S
C896 H899 0.960 . S
H897 C896 0.961 . S
H898 C896 0.961 . S
H899 C896 0.960 . S
C900 N901 1.342 . S
C900 C904 1.401 . S
C900 C905 1.499 . S
N901 Co884 1.989 . S
N901 C900 1.342 . S
N901 N902 1.388 . S
N902 Co885 1.993 . S
N902 N901 1.388 . S
N902 C903 1.346 . S
C903 N902 1.346 . S
C903 C904 1.396 . S
C903 C913 1.510 . S
C904 C900 1.401 . S
C904 C903 1.396 . S
C905 C900 1.499 . S
C905 H906 0.959 . S
C905 H907 0.960 . S
C905 H908 0.961 . S
H906 C905 0.959 . S
H907 C905 0.960 . S
H908 C905 0.961 . S
O909 Co884 1.967 . S
O909 C917 1.258 . S
O910 Co885 1.941 . S
O910 C917 1.266 . S
H911 C913 0.959 . S
H912 C913 0.961 . S
C913 C903 1.510 . S
C913 H911 0.959 . S
C913 H912 0.961 . S
C913 H914 0.960 . S
H914 C913 0.960 . S
H915 N895 0.862 . S
O916 Co884 1.920 . S
O916 C889 1.289 . S
C917 O909 1.258 . S
C917 O910 1.266 . S
Co918 O921 1.970 1_455 S
Co918 N935 1.989 . S
Co918 O943 1.967 . S
Co918 O950 1.920 . S
Co919 O922 1.966 1_455 S
Co919 N928 2.022 . S
Co919 N936 1.993 . S
Co919 O944 1.941 . S
C920 O921 1.258 . S
C920 O922 1.263 . S
O921 Co918 1.970 1_655 S
O921 C920 1.258 . S
O922 Co919 1.966 1_655 S
O922 C920 1.263 . S
C923 O924 1.235 . S
C923 O950 1.289 . S
O924 C923 1.235 . S
C925 C927 1.400 . S
C925 N928 1.351 . S
C925 C930 1.501 . S
C926 C927 1.387 . S
C926 N929 1.341 . S
C927 C925 1.400 . S
C927 C926 1.387 . S
N928 Co919 2.022 . S
N928 C925 1.351 . S
N928 N929 1.365 . S
N929 C926 1.341 . S
N929 N928 1.365 . S
N929 H949 0.862 . S
C930 C925 1.501 . S
C930 H931 0.965 . S
C930 H932 0.961 . S
C930 H933 0.960 1_455 S
H931 C930 0.965 . S
H932 C930 0.961 . S
H933 C930 0.960 1_655 S
C934 N935 1.342 . S
C934 C938 1.401 . S
C934 C939 1.499 . S
N935 Co918 1.989 . S
N935 C934 1.342 . S
N935 N936 1.388 . S
N936 Co919 1.993 . S
N936 N935 1.388 . S
N936 C937 1.346 . S
C937 N936 1.346 . S
C937 C938 1.396 . S
C937 C947 1.510 . S
C938 C934 1.401 . S
C938 C937 1.396 . S
C939 C934 1.499 . S
C939 H940 0.959 . S
C939 H941 0.960 . S
C939 H942 0.961 . S
H940 C939 0.959 . S
H941 C939 0.960 . S
H942 C939 0.961 . S
O943 Co918 1.967 . S
O943 C951 1.258 . S
O944 Co919 1.941 . S
O944 C951 1.266 . S
H945 C947 0.959 . S
H946 C947 0.961 . S
C947 C937 1.510 . S
C947 H945 0.959 . S
C947 H946 0.961 . S
C947 H948 0.960 . S
H948 C947 0.960 . S
H949 N929 0.862 . S
O950 Co918 1.920 . S
O950 C923 1.289 . S
C951 O943 1.258 . S
C951 O944 1.266 . S
Co952 O955 1.970 . S
Co952 N969 1.989 . S
Co952 O977 1.967 . S
Co952 O984 1.920 . S
Co953 O956 1.966 . S
Co953 N962 2.022 . S
Co953 N970 1.993 . S
Co953 O978 1.941 . S
C954 O955 1.258 . S
C954 O956 1.263 . S
O955 Co952 1.970 . S
O955 C954 1.258 . S
O956 Co953 1.966 . S
O956 C954 1.263 . S
C957 O958 1.235 . S
C957 O984 1.289 . S
O958 C957 1.235 . S
C959 C961 1.400 . S
C959 N962 1.351 . S
C959 C964 1.501 . S
C960 C961 1.387 . S
C960 N963 1.341 . S
C961 C959 1.400 . S
C961 C960 1.387 . S
N962 Co953 2.022 . S
N962 C959 1.351 . S
N962 N963 1.365 . S
N963 C960 1.341 . S
N963 N962 1.365 . S
N963 H983 0.862 . S
C964 C959 1.501 . S
C964 H965 0.961 . S
C964 H966 0.961 . S
C964 H967 0.960 . S
H965 C964 0.961 . S
H966 C964 0.961 . S
H967 C964 0.960 . S
C968 N969 1.342 . S
C968 C972 1.401 . S
C968 C973 1.499 . S
N969 Co952 1.989 . S
N969 C968 1.342 . S
N969 N970 1.388 . S
N970 Co953 1.993 . S
N970 N969 1.388 . S
N970 C971 1.346 . S
C971 N970 1.346 . S
C971 C972 1.396 . S
C971 C981 1.510 . S
C972 C968 1.401 . S
C972 C971 1.396 . S
C973 C968 1.499 . S
C973 H974 0.959 . S
C973 H975 0.960 . S
C973 H976 0.961 . S
H974 C973 0.959 . S
H975 C973 0.960 . S
H976 C973 0.961 . S
O977 Co952 1.967 . S
O977 C985 1.258 . S
O978 Co953 1.941 . S
O978 C985 1.266 . S
H979 C981 0.959 . S
H980 C981 0.961 . S
C981 C971 1.510 . S
C981 H979 0.959 . S
C981 H980 0.961 . S
C981 H982 0.960 . S
H982 C981 0.960 . S
H983 N963 0.862 . S
O984 Co952 1.920 . S
O984 C957 1.289 . S
C985 O977 1.258 . S
C985 O978 1.266 . S
Co986 O989 1.970 1_455 S
Co986 N1003 1.989 . S
Co986 O1011 1.967 . S
Co986 O1018 1.920 . S
Co987 O990 1.966 1_455 S
Co987 N996 2.022 . S
Co987 N1004 1.993 . S
Co987 O1012 1.941 . S
C988 O989 1.258 . S
C988 O990 1.263 . S
O989 Co986 1.970 1_655 S
O989 C988 1.258 . S
O990 Co987 1.966 1_655 S
O990 C988 1.263 . S
C991 O992 1.235 . S
C991 O1018 1.289 . S
O992 C991 1.235 . S
C993 C995 1.400 . S
C993 N996 1.351 . S
C993 C998 1.501 . S
C994 C995 1.387 . S
C994 N997 1.341 . S
C995 C993 1.400 . S
C995 C994 1.387 . S
N996 Co987 2.022 . S
N996 C993 1.351 . S
N996 N997 1.365 . S
N997 C994 1.341 . S
N997 N996 1.365 . S
N997 H1017 0.862 . S
C998 C993 1.501 . S
C998 H999 0.965 . S
C998 H1000 0.961 . S
C998 H1001 0.960 1_455 S
H999 C998 0.965 . S
H1000 C998 0.961 . S
H1001 C998 0.960 1_655 S
C1002 N1003 1.342 . S
C1002 C1006 1.401 . S
C1002 C1007 1.499 . S
N1003 Co986 1.989 . S
N1003 C1002 1.342 . S
N1003 N1004 1.388 . S
N1004 Co987 1.993 . S
N1004 N1003 1.388 . S
N1004 C1005 1.346 . S
C1005 N1004 1.346 . S
C1005 C1006 1.396 . S
C1005 C1015 1.510 . S
C1006 C1002 1.401 . S
C1006 C1005 1.396 . S
C1007 C1002 1.499 . S
C1007 H1008 0.959 . S
C1007 H1009 0.960 . S
C1007 H1010 0.961 . S
H1008 C1007 0.959 . S
H1009 C1007 0.960 . S
H1010 C1007 0.961 . S
O1011 Co986 1.967 . S
O1011 C1019 1.258 . S
O1012 Co987 1.941 . S
O1012 C1019 1.266 . S
H1013 C1015 0.959 . S
H1014 C1015 0.961 . S
C1015 C1005 1.510 . S
C1015 H1013 0.959 . S
C1015 H1014 0.961 . S
C1015 H1016 0.960 . S
H1016 C1015 0.960 . S
H1017 N997 0.862 . S
O1018 Co986 1.920 . S
O1018 C991 1.289 . S
C1019 O1011 1.258 . S
C1019 O1012 1.266 . S
Co1020 O1023 1.970 . S
Co1020 N1037 1.989 . S
Co1020 O1045 1.967 . S
Co1020 O1052 1.920 . S
Co1021 O1024 1.966 . S
Co1021 N1030 2.022 . S
Co1021 N1038 1.993 . S
Co1021 O1046 1.941 . S
C1022 O1023 1.258 . S
C1022 O1024 1.263 . S
O1023 Co1020 1.970 . S
O1023 C1022 1.258 . S
O1024 Co1021 1.966 . S
O1024 C1022 1.263 . S
C1025 O1026 1.235 . S
C1025 O1052 1.289 . S
O1026 C1025 1.235 . S
C1027 C1029 1.400 . S
C1027 N1030 1.351 . S
C1027 C1032 1.501 . S
C1028 C1029 1.387 . S
C1028 N1031 1.341 . S
C1029 C1027 1.400 . S
C1029 C1028 1.387 . S
N1030 Co1021 2.022 . S
N1030 C1027 1.351 . S
N1030 N1031 1.365 . S
N1031 C1028 1.341 . S
N1031 N1030 1.365 . S
N1031 H1051 0.862 . S
C1032 C1027 1.501 . S
C1032 H1033 0.961 . S
C1032 H1034 0.961 . S
C1032 H1035 0.960 . S
H1033 C1032 0.961 . S
H1034 C1032 0.961 . S
H1035 C1032 0.960 . S
C1036 N1037 1.342 . S
C1036 C1040 1.401 . S
C1036 C1041 1.499 . S
N1037 Co1020 1.989 . S
N1037 C1036 1.342 . S
N1037 N1038 1.388 . S
N1038 Co1021 1.993 . S
N1038 N1037 1.388 . S
N1038 C1039 1.346 . S
C1039 N1038 1.346 . S
C1039 C1040 1.396 . S
C1039 C1049 1.510 . S
C1040 C1036 1.401 . S
C1040 C1039 1.396 . S
C1041 C1036 1.499 . S
C1041 H1042 0.959 . S
C1041 H1043 0.960 . S
C1041 H1044 0.961 . S
H1042 C1041 0.959 . S
H1043 C1041 0.960 . S
H1044 C1041 0.961 . S
O1045 Co1020 1.967 . S
O1045 C1053 1.258 . S
O1046 Co1021 1.941 . S
O1046 C1053 1.266 . S
H1047 C1049 0.959 . S
H1048 C1049 0.961 . S
C1049 C1039 1.510 . S
C1049 H1047 0.959 . S
C1049 H1048 0.961 . S
C1049 H1050 0.960 . S
H1050 C1049 0.960 . S
H1051 N1031 0.862 . S
O1052 Co1020 1.920 . S
O1052 C1025 1.289 . S
C1053 O1045 1.258 . S
C1053 O1046 1.266 . S
Co1054 O1057 1.970 . S
Co1054 N1071 1.989 . S
Co1054 O1079 1.967 . S
Co1054 O1086 1.920 . S
Co1055 O1058 1.966 . S
Co1055 N1064 2.022 . S
Co1055 N1072 1.993 . S
Co1055 O1080 1.941 . S
C1056 O1057 1.258 . S
C1056 O1058 1.263 . S
O1057 Co1054 1.970 . S
O1057 C1056 1.258 . S
O1058 Co1055 1.966 . S
O1058 C1056 1.263 . S
C1059 O1060 1.235 . S
C1059 O1086 1.289 . S
O1060 C1059 1.235 . S
C1061 C1063 1.400 . S
C1061 N1064 1.351 . S
C1061 C1066 1.501 . S
C1062 C1063 1.387 . S
C1062 N1065 1.341 . S
C1063 C1061 1.400 . S
C1063 C1062 1.387 . S
N1064 Co1055 2.022 . S
N1064 C1061 1.351 . S
N1064 N1065 1.365 . S
N1065 C1062 1.341 . S
N1065 N1064 1.365 . S
N1065 H1085 0.862 . S
C1066 C1061 1.501 . S
C1066 H1067 0.961 . S
C1066 H1068 0.961 . S
C1066 H1069 0.960 . S
H1067 C1066 0.961 . S
H1068 C1066 0.961 . S
H1069 C1066 0.960 . S
C1070 N1071 1.342 . S
C1070 C1074 1.401 . S
C1070 C1075 1.499 . S
N1071 Co1054 1.989 . S
N1071 C1070 1.342 . S
N1071 N1072 1.388 . S
N1072 Co1055 1.993 . S
N1072 N1071 1.388 . S
N1072 C1073 1.346 . S
C1073 N1072 1.346 . S
C1073 C1074 1.396 . S
C1073 C1083 1.510 . S
C1074 C1070 1.401 . S
C1074 C1073 1.396 . S
C1075 C1070 1.499 . S
C1075 H1076 0.959 . S
C1075 H1077 0.960 . S
C1075 H1078 0.961 . S
H1076 C1075 0.959 . S
H1077 C1075 0.960 . S
H1078 C1075 0.961 . S
O1079 Co1054 1.967 . S
O1079 C1087 1.258 . S
O1080 Co1055 1.941 . S
O1080 C1087 1.266 . S
H1081 C1083 0.959 . S
H1082 C1083 0.961 . S
C1083 C1073 1.510 . S
C1083 H1081 0.959 . S
C1083 H1082 0.961 . S
C1083 H1084 0.960 . S
H1084 C1083 0.960 . S
H1085 N1065 0.862 . S
O1086 Co1054 1.920 . S
O1086 C1059 1.289 . S
C1087 O1079 1.258 . S
C1087 O1080 1.266 . S
C1088 C1089 1.387 . S
C1088 H1092 0.950 . S
C1088 C1097 1.390 . S
C1089 C1088 1.387 . S
C1089 C1091 1.387 . S
H1090 C1097 0.950 . S
C1091 C1089 1.387 . S
C1091 C1093 1.390 . S
C1091 H1095 0.950 . S
H1092 C1088 0.950 . S
C1093 C1091 1.390 . S
C1093 C1094 1.387 . S
C1093 H1096 0.950 . S
C1094 C1093 1.387 . S
C1094 C1097 1.387 . S
H1095 C1091 0.950 . S
H1096 C1093 0.950 . S
C1097 C1088 1.390 . S
C1097 H1090 0.950 . S
C1097 C1094 1.387 . S
C1098 C1099 1.387 . S
C1098 H1102 0.950 . S
C1098 C1107 1.390 1_655 S
C1099 C1098 1.387 . S
C1099 C1101 1.387 . S
H1100 C1107 0.950 . S
C1101 C1099 1.387 . S
C1101 C1103 1.390 1_655 S
C1101 H1105 0.950 . S
H1102 C1098 0.950 . S
C1103 C1101 1.390 1_455 S
C1103 C1104 1.387 . S
C1103 H1106 0.950 . S
C1104 C1103 1.387 . S
C1104 C1107 1.387 . S
H1105 C1101 0.950 . S
H1106 C1103 0.950 . S
C1107 C1098 1.390 1_455 S
C1107 H1100 0.950 . S
C1107 C1104 1.387 . S
C1108 C1109 1.387 . S
C1108 H1112 0.950 . S
C1108 C1117 1.390 1_655 S
C1109 C1108 1.387 . S
C1109 C1111 1.387 . S
H1110 C1117 0.950 . S
C1111 C1109 1.387 . S
C1111 C1113 1.390 1_655 S
C1111 H1115 0.950 . S
H1112 C1108 0.950 . S
C1113 C1111 1.390 1_455 S
C1113 C1114 1.387 . S
C1113 H1116 0.950 . S
C1114 C1113 1.387 . S
C1114 C1117 1.387 . S
H1115 C1111 0.950 . S
H1116 C1113 0.950 . S
C1117 C1108 1.390 1_455 S
C1117 H1110 0.950 . S
C1117 C1114 1.387 . S
C1118 C1119 1.387 . S
C1118 H1122 0.950 . S
C1118 C1127 1.390 . S
C1119 C1118 1.387 . S
C1119 C1121 1.387 . S
H1120 C1127 0.950 . S
C1121 C1119 1.387 . S
C1121 C1123 1.390 . S
C1121 H1125 0.950 . S
H1122 C1118 0.950 . S
C1123 C1121 1.390 . S
C1123 C1124 1.387 . S
C1123 H1126 0.950 . S
C1124 C1123 1.387 . S
C1124 C1127 1.387 . S
H1125 C1121 0.950 . S
H1126 C1123 0.950 . S
C1127 C1118 1.390 . S
C1127 H1120 0.950 . S
C1127 C1124 1.387 . S
C1128 C1129 1.387 . S
C1128 H1132 0.950 . S
C1128 C1137 1.390 . S
C1129 C1128 1.387 . S
C1129 C1131 1.387 . S
H1130 C1137 0.950 . S
C1131 C1129 1.387 . S
C1131 C1133 1.390 . S
C1131 H1135 0.950 . S
H1132 C1128 0.950 . S
C1133 C1131 1.390 . S
C1133 C1134 1.387 . S
C1133 H1136 0.950 . S
C1134 C1133 1.387 . S
C1134 C1137 1.387 . S
H1135 C1131 0.950 . S
H1136 C1133 0.950 . S
C1137 C1128 1.390 . S
C1137 H1130 0.950 . S
C1137 C1134 1.387 . S
C1138 C1139 1.387 . S
C1138 H1142 0.950 . S
C1138 C1147 1.390 . S
C1139 C1138 1.387 . S
C1139 C1141 1.387 . S
H1140 C1147 0.950 . S
C1141 C1139 1.387 . S
C1141 C1143 1.390 . S
C1141 H1145 0.950 . S
H1142 C1138 0.950 . S
C1143 C1141 1.390 . S
C1143 C1144 1.387 . S
C1143 H1146 0.950 . S
C1144 C1143 1.387 . S
C1144 C1147 1.387 . S
H1145 C1141 0.950 . S
H1146 C1143 0.950 . S
C1147 C1138 1.390 . S
C1147 H1140 0.950 . S
C1147 C1144 1.387 . S
C1148 C1149 1.387 . S
C1148 H1152 0.950 . S
C1148 C1157 1.390 1_455 S
C1149 C1148 1.387 . S
C1149 C1151 1.387 . S
H1150 C1157 0.950 . S
C1151 C1149 1.387 . S
C1151 C1153 1.390 1_455 S
C1151 H1155 0.950 . S
H1152 C1148 0.950 . S
C1153 C1151 1.390 1_655 S
C1153 C1154 1.387 . S
C1153 H1156 0.950 . S
C1154 C1153 1.387 . S
C1154 C1157 1.387 . S
H1155 C1151 0.950 . S
H1156 C1153 0.950 . S
C1157 C1148 1.390 1_655 S
C1157 H1150 0.950 . S
C1157 C1154 1.387 . S
C1158 C1159 1.387 . S
C1158 H1162 0.950 . S
C1158 C1167 1.390 1_455 S
C1159 C1158 1.387 . S
C1159 C1161 1.387 . S
H1160 C1167 0.950 . S
C1161 C1159 1.387 . S
C1161 C1163 1.390 1_455 S
C1161 H1165 0.950 . S
H1162 C1158 0.950 . S
C1163 C1161 1.390 1_655 S
C1163 C1164 1.387 . S
C1163 H1166 0.950 . S
C1164 C1163 1.387 . S
C1164 C1167 1.387 . S
H1165 C1161 0.950 . S
H1166 C1163 0.950 . S
C1167 C1158 1.390 1_655 S
C1167 H1160 0.950 . S
C1167 C1164 1.387 . S
C1168 C1169 1.387 . S
C1168 H1172 0.950 . S
C1168 C1177 1.390 . S
C1169 C1168 1.387 . S
C1169 C1171 1.387 . S
H1170 C1177 0.950 . S
C1171 C1169 1.387 . S
C1171 C1173 1.390 . S
C1171 H1175 0.950 . S
H1172 C1168 0.950 . S
C1173 C1171 1.390 . S
C1173 C1174 1.387 . S
C1173 H1176 0.950 . S
C1174 C1173 1.387 . S
C1174 C1177 1.387 . S
H1175 C1171 0.950 . S
H1176 C1173 0.950 . S
C1177 C1168 1.390 . S
C1177 H1170 0.950 . S
C1177 C1174 1.387 . S
C1178 C1179 1.387 . S
C1178 H1182 0.950 . S
C1178 C1187 1.390 1_455 S
C1179 C1178 1.387 . S
C1179 C1181 1.387 . S
H1180 C1187 0.950 . S
C1181 C1179 1.387 . S
C1181 C1183 1.390 1_455 S
C1181 H1185 0.950 . S
H1182 C1178 0.950 . S
C1183 C1181 1.390 1_655 S
C1183 C1184 1.387 . S
C1183 H1186 0.950 . S
C1184 C1183 1.387 . S
C1184 C1187 1.387 . S
H1185 C1181 0.950 . S
H1186 C1183 0.950 . S
C1187 C1178 1.390 1_655 S
C1187 H1180 0.950 . S
C1187 C1184 1.387 . S
C1188 C1189 1.387 . S
C1188 H1192 0.950 . S
C1188 C1197 1.390 1_655 S
C1189 C1188 1.387 . S
C1189 C1191 1.387 . S
H1190 C1197 0.950 . S
C1191 C1189 1.387 . S
C1191 C1193 1.390 1_655 S
C1191 H1195 0.950 . S
H1192 C1188 0.950 . S
C1193 C1191 1.390 1_455 S
C1193 C1194 1.387 . S
C1193 H1196 0.950 . S
C1194 C1193 1.387 . S
C1194 C1197 1.387 . S
H1195 C1191 0.950 . S
H1196 C1193 0.950 . S
C1197 C1188 1.390 1_455 S
C1197 H1190 0.950 . S
C1197 C1194 1.387 . S
C1198 C1199 1.387 . S
C1198 H1202 0.950 . S
C1198 C1207 1.390 . S
C1199 C1198 1.387 . S
C1199 C1201 1.387 . S
H1200 C1207 0.950 . S
C1201 C1199 1.387 . S
C1201 C1203 1.390 . S
C1201 H1205 0.950 . S
H1202 C1198 0.950 . S
C1203 C1201 1.390 . S
C1203 C1204 1.387 . S
C1203 H1206 0.950 . S
C1204 C1203 1.387 . S
C1204 C1207 1.387 . S
H1205 C1201 0.950 . S
H1206 C1203 0.950 . S
C1207 C1198 1.390 . S
C1207 H1200 0.950 . S
C1207 C1204 1.387 . S
C1208 C1209 1.387 . S
C1208 H1212 0.950 . S
C1208 C1217 1.390 . S
C1209 C1208 1.387 . S
C1209 C1211 1.387 . S
H1210 C1217 0.950 . S
C1211 C1209 1.387 . S
C1211 C1213 1.390 . S
C1211 H1215 0.950 . S
H1212 C1208 0.950 . S
C1213 C1211 1.390 . S
C1213 C1214 1.387 . S
C1213 H1216 0.950 . S
C1214 C1213 1.387 . S
C1214 C1217 1.387 . S
H1215 C1211 0.950 . S
H1216 C1213 0.950 . S
C1217 C1208 1.390 . S
C1217 H1210 0.950 . S
C1217 C1214 1.387 . S
C1218 C1219 1.387 . S
C1218 H1222 0.950 . S
C1218 C1227 1.390 . S
C1219 C1218 1.387 . S
C1219 C1221 1.387 . S
H1220 C1227 0.950 . S
C1221 C1219 1.387 . S
C1221 C1223 1.390 . S
C1221 H1225 0.950 . S
H1222 C1218 0.950 . S
C1223 C1221 1.390 . S
C1223 C1224 1.387 . S
C1223 H1226 0.950 . S
C1224 C1223 1.387 . S
C1224 C1227 1.387 . S
H1225 C1221 0.950 . S
H1226 C1223 0.950 . S
C1227 C1218 1.390 . S
C1227 H1220 0.950 . S
C1227 C1224 1.387 . S
C1228 C1229 1.387 . S
C1228 H1232 0.950 . S
C1228 C1237 1.390 1_455 S
C1229 C1228 1.387 . S
C1229 C1231 1.387 . S
H1230 C1237 0.950 . S
C1231 C1229 1.387 . S
C1231 C1233 1.390 1_455 S
C1231 H1235 0.950 . S
H1232 C1228 0.950 . S
C1233 C1231 1.390 1_655 S
C1233 C1234 1.387 . S
C1233 H1236 0.950 . S
C1234 C1233 1.387 . S
C1234 C1237 1.387 . S
H1235 C1231 0.950 . S
H1236 C1233 0.950 . S
C1237 C1228 1.390 1_655 S
C1237 H1230 0.950 . S
C1237 C1234 1.387 . S
C1238 C1239 1.387 . S
C1238 H1242 0.950 . S
C1238 C1247 1.390 1_655 S
C1239 C1238 1.387 . S
C1239 C1241 1.387 . S
H1240 C1247 0.950 . S
C1241 C1239 1.387 . S
C1241 C1243 1.390 1_655 S
C1241 H1245 0.950 . S
H1242 C1238 0.950 . S
C1243 C1241 1.390 1_455 S
C1243 C1244 1.387 . S
C1243 H1246 0.950 . S
C1244 C1243 1.387 . S
C1244 C1247 1.387 . S
H1245 C1241 0.950 . S
H1246 C1243 0.950 . S
C1247 C1238 1.390 1_455 S
C1247 H1240 0.950 . S
C1247 C1244 1.387 . S
C1248 C1249 1.387 . S
C1248 H1252 0.950 . S
C1248 C1257 1.390 . S
C1249 C1248 1.387 . S
C1249 C1251 1.387 . S
H1250 C1257 0.950 . S
C1251 C1249 1.387 . S
C1251 C1253 1.390 . S
C1251 H1255 0.950 . S
H1252 C1248 0.950 . S
C1253 C1251 1.390 . S
C1253 C1254 1.387 . S
C1253 H1256 0.950 . S
C1254 C1253 1.387 . S
C1254 C1257 1.387 . S
H1255 C1251 0.950 . S
H1256 C1253 0.950 . S
C1257 C1248 1.390 . S
C1257 H1250 0.950 . S
C1257 C1254 1.387 . S
C1258 C1259 1.387 . S
C1258 H1262 0.950 . S
C1258 C1267 1.390 1_655 S
C1259 C1258 1.387 . S
C1259 C1261 1.387 1_565 S
H1260 C1267 0.950 . S
C1261 C1259 1.387 1_545 S
C1261 C1263 1.390 1_655 S
C1261 H1265 0.950 . S
H1262 C1258 0.950 . S
C1263 C1261 1.390 1_455 S
C1263 C1264 1.387 1_545 S
C1263 H1266 0.950 . S
C1264 C1263 1.387 1_565 S
C1264 C1267 1.387 . S
H1265 C1261 0.950 . S
H1266 C1263 0.950 . S
C1267 C1258 1.390 1_455 S
C1267 H1260 0.950 . S
C1267 C1264 1.387 . S
C1268 C1269 1.387 . S
C1268 H1272 0.950 . S
C1268 C1277 1.390 . S
C1269 C1268 1.387 . S
C1269 C1271 1.387 . S
H1270 C1277 0.950 . S
C1271 C1269 1.387 . S
C1271 C1273 1.390 . S
C1271 H1275 0.950 . S
H1272 C1268 0.950 . S
C1273 C1271 1.390 . S
C1273 C1274 1.387 . S
C1273 H1276 0.950 . S
C1274 C1273 1.387 . S
C1274 C1277 1.387 . S
H1275 C1271 0.950 . S
H1276 C1273 0.950 . S
C1277 C1268 1.390 . S
C1277 H1270 0.950 . S
C1277 C1274 1.387 . S
C1278 C1279 1.387 . S
C1278 H1282 0.950 . S
C1278 C1287 1.390 1_554 S
C1279 C1278 1.387 . S
C1279 C1281 1.387 1_545 S
H1280 C1287 0.950 . S
C1281 C1279 1.387 1_565 S
C1281 C1283 1.390 1_554 S
C1281 H1285 0.950 . S
H1282 C1278 0.950 . S
C1283 C1281 1.390 1_556 S
C1283 C1284 1.387 1_565 S
C1283 H1286 0.950 . S
C1284 C1283 1.387 1_545 S
C1284 C1287 1.387 . S
H1285 C1281 0.950 . S
H1286 C1283 0.950 . S
C1287 C1278 1.390 1_556 S
C1287 H1280 0.950 . S
C1287 C1284 1.387 . S
C1288 C1289 1.387 . S
C1288 H1292 0.950 . S
C1288 C1297 1.390 . S
C1289 C1288 1.387 . S
C1289 C1291 1.387 . S
H1290 C1297 0.950 . S
C1291 C1289 1.387 . S
C1291 C1293 1.390 . S
C1291 H1295 0.950 . S
H1292 C1288 0.950 . S
C1293 C1291 1.390 . S
C1293 C1294 1.387 . S
C1293 H1296 0.950 . S
C1294 C1293 1.387 . S
C1294 C1297 1.387 . S
H1295 C1291 0.950 . S
H1296 C1293 0.950 . S
C1297 C1288 1.390 . S
C1297 H1290 0.950 . S
C1297 C1294 1.387 . S
C1298 C1299 1.387 . S
C1298 H1302 0.950 . S
C1298 C1307 1.390 . S
C1299 C1298 1.387 . S
C1299 C1301 1.387 1_565 S
H1300 C1307 0.950 . S
C1301 C1299 1.387 1_545 S
C1301 C1303 1.390 . S
C1301 H1305 0.950 . S
H1302 C1298 0.950 . S
C1303 C1301 1.390 . S
C1303 C1304 1.387 1_545 S
C1303 H1306 0.950 . S
C1304 C1303 1.387 1_565 S
C1304 C1307 1.387 . S
H1305 C1301 0.950 . S
H1306 C1303 0.950 . S
C1307 C1298 1.390 . S
C1307 H1300 0.950 . S
C1307 C1304 1.387 . S
C1308 C1309 1.387 . S
C1308 H1312 0.950 . S
C1308 C1317 1.390 . S
C1309 C1308 1.387 . S
C1309 C1311 1.387 . S
H1310 C1317 0.950 . S
C1311 C1309 1.387 . S
C1311 C1313 1.390 . S
C1311 H1315 0.950 . S
H1312 C1308 0.950 . S
C1313 C1311 1.390 . S
C1313 C1314 1.387 . S
C1313 H1316 0.950 . S
C1314 C1313 1.387 . S
C1314 C1317 1.387 . S
H1315 C1311 0.950 . S
H1316 C1313 0.950 . S
C1317 C1308 1.390 . S
C1317 H1310 0.950 . S
C1317 C1314 1.387 . S
C1318 C1319 1.387 . S
C1318 H1322 0.950 . S
C1318 C1327 1.390 1_654 S
C1319 C1318 1.387 . S
C1319 C1321 1.387 1_545 S
H1320 C1327 0.950 . S
C1321 C1319 1.387 1_565 S
C1321 C1323 1.390 1_654 S
C1321 H1325 0.950 . S
H1322 C1318 0.950 . S
C1323 C1321 1.390 1_456 S
C1323 C1324 1.387 1_565 S
C1323 H1326 0.950 . S
C1324 C1323 1.387 1_545 S
C1324 C1327 1.387 . S
H1325 C1321 0.950 . S
H1326 C1323 0.950 . S
C1327 C1318 1.390 1_456 S
C1327 H1320 0.950 . S
C1327 C1324 1.387 . S
C1328 C1329 1.387 . S
C1328 H1332 0.950 . S
C1328 C1337 1.390 . S
C1329 C1328 1.387 . S
C1329 C1331 1.387 . S
H1330 C1337 0.950 . S
C1331 C1329 1.387 . S
C1331 C1333 1.390 . S
C1331 H1335 0.950 . S
H1332 C1328 0.950 . S
C1333 C1331 1.390 . S
C1333 C1334 1.387 . S
C1333 H1336 0.950 . S
C1334 C1333 1.387 . S
C1334 C1337 1.387 . S
H1335 C1331 0.950 . S
H1336 C1333 0.950 . S
C1337 C1328 1.390 . S
C1337 H1330 0.950 . S
C1337 C1334 1.387 . S
C1338 C1339 1.387 . S
C1338 H1342 0.950 . S
C1338 C1347 1.390 . S
C1339 C1338 1.387 . S
C1339 C1341 1.387 . S
H1340 C1347 0.950 . S
C1341 C1339 1.387 . S
C1341 C1343 1.390 . S
C1341 H1345 0.950 . S
H1342 C1338 0.950 . S
C1343 C1341 1.390 . S
C1343 C1344 1.387 . S
C1343 H1346 0.950 . S
C1344 C1343 1.387 . S
C1344 C1347 1.387 . S
H1345 C1341 0.950 . S
H1346 C1343 0.950 . S
C1347 C1338 1.390 . S
C1347 H1340 0.950 . S
C1347 C1344 1.387 . S
C1348 C1349 1.387 . S
C1348 H1352 0.950 . S
C1348 C1357 1.390 . S
C1349 C1348 1.387 . S
C1349 C1351 1.387 . S
H1350 C1357 0.950 . S
C1351 C1349 1.387 . S
C1351 C1353 1.390 . S
C1351 H1355 0.950 . S
H1352 C1348 0.950 . S
C1353 C1351 1.390 . S
C1353 C1354 1.387 . S
C1353 H1356 0.950 . S
C1354 C1353 1.387 . S
C1354 C1357 1.387 . S
H1355 C1351 0.950 . S
H1356 C1353 0.950 . S
C1357 C1348 1.390 . S
C1357 H1350 0.950 . S
C1357 C1354 1.387 . S
C1358 C1359 1.387 . S
C1358 H1362 0.950 . S
C1358 C1367 1.390 . S
C1359 C1358 1.387 . S
C1359 C1361 1.387 . S
H1360 C1367 0.950 . S
C1361 C1359 1.387 . S
C1361 C1363 1.390 . S
C1361 H1365 0.950 . S
H1362 C1358 0.950 . S
C1363 C1361 1.390 . S
C1363 C1364 1.387 . S
C1363 H1366 0.950 . S
C1364 C1363 1.387 . S
C1364 C1367 1.387 . S
H1365 C1361 0.950 . S
H1366 C1363 0.950 . S
C1367 C1358 1.390 . S
C1367 H1360 0.950 . S
C1367 C1364 1.387 . S
C1368 C1369 1.387 . S
C1368 H1372 0.950 . S
C1368 C1377 1.390 1_556 S
C1369 C1368 1.387 . S
C1369 C1371 1.387 . S
H1370 C1377 0.950 . S
C1371 C1369 1.387 . S
C1371 C1373 1.390 1_556 S
C1371 H1375 0.950 . S
H1372 C1368 0.950 . S
C1373 C1371 1.390 1_554 S
C1373 C1374 1.387 . S
C1373 H1376 0.950 . S
C1374 C1373 1.387 . S
C1374 C1377 1.387 . S
H1375 C1371 0.950 . S
H1376 C1373 0.950 . S
C1377 C1368 1.390 1_554 S
C1377 H1370 0.950 . S
C1377 C1374 1.387 . S
C1378 C1379 1.387 . S
C1378 H1382 0.950 . S
C1378 C1387 1.390 1_455 S
C1379 C1378 1.387 . S
C1379 C1381 1.387 . S
H1380 C1387 0.950 . S
C1381 C1379 1.387 . S
C1381 C1383 1.390 1_455 S
C1381 H1385 0.950 . S
H1382 C1378 0.950 . S
C1383 C1381 1.390 1_655 S
C1383 C1384 1.387 . S
C1383 H1386 0.950 . S
C1384 C1383 1.387 . S
C1384 C1387 1.387 . S
H1385 C1381 0.950 . S
H1386 C1383 0.950 . S
C1387 C1378 1.390 1_655 S
C1387 H1380 0.950 . S
C1387 C1384 1.387 . S
C1388 C1389 1.387 . S
C1388 H1392 0.950 . S
C1388 C1397 1.390 1_656 S
C1389 C1388 1.387 . S
C1389 C1391 1.387 . S
H1390 C1397 0.950 . S
C1391 C1389 1.387 . S
C1391 C1393 1.390 1_656 S
C1391 H1395 0.950 . S
H1392 C1388 0.950 . S
C1393 C1391 1.390 1_454 S
C1393 C1394 1.387 . S
C1393 H1396 0.950 . S
C1394 C1393 1.387 . S
C1394 C1397 1.387 . S
H1395 C1391 0.950 . S
H1396 C1393 0.950 . S
C1397 C1388 1.390 1_454 S
C1397 H1390 0.950 . S
C1397 C1394 1.387 . S
C1398 C1399 1.387 . S
C1398 H1402 0.950 . S
C1398 C1407 1.390 . S
C1399 C1398 1.387 . S
C1399 C1401 1.387 . S
H1400 C1407 0.950 . S
C1401 C1399 1.387 . S
C1401 C1403 1.390 . S
C1401 H1405 0.950 . S
H1402 C1398 0.950 . S
C1403 C1401 1.390 . S
C1403 C1404 1.387 . S
C1403 H1406 0.950 . S
C1404 C1403 1.387 . S
C1404 C1407 1.387 . S
H1405 C1401 0.950 . S
H1406 C1403 0.950 . S
C1407 C1398 1.390 . S
C1407 H1400 0.950 . S
C1407 C1404 1.387 . S
C1408 C1409 1.387 . S
C1408 H1412 0.950 . S
C1408 C1417 1.390 . S
C1409 C1408 1.387 . S
C1409 C1411 1.387 . S
H1410 C1417 0.950 . S
C1411 C1409 1.387 . S
C1411 C1413 1.390 . S
C1411 H1415 0.950 . S
H1412 C1408 0.950 . S
C1413 C1411 1.390 . S
C1413 C1414 1.387 . S
C1413 H1416 0.950 . S
C1414 C1413 1.387 . S
C1414 C1417 1.387 . S
H1415 C1411 0.950 . S
H1416 C1413 0.950 . S
C1417 C1408 1.390 . S
C1417 H1410 0.950 . S
C1417 C1414 1.387 . S
C1418 C1419 1.387 1_565 S
C1418 H1422 0.950 . S
C1418 C1427 1.390 . S
C1419 C1418 1.387 1_545 S
C1419 C1421 1.387 . S
H1420 C1427 0.950 . S
C1421 C1419 1.387 . S
C1421 C1423 1.390 . S
C1421 H1425 0.950 . S
H1422 C1418 0.950 . S
C1423 C1421 1.390 . S
C1423 C1424 1.387 1_545 S
C1423 H1426 0.950 . S
C1424 C1423 1.387 1_565 S
C1424 C1427 1.387 . S
H1425 C1421 0.950 . S
H1426 C1423 0.950 . S
C1427 C1418 1.390 . S
C1427 H1420 0.950 . S
C1427 C1424 1.387 . S
C1428 C1429 1.387 . S
C1428 H1432 0.950 . S
C1428 C1437 1.390 . S
C1429 C1428 1.387 . S
C1429 C1431 1.387 . S
H1430 C1437 0.950 . S
C1431 C1429 1.387 . S
C1431 C1433 1.390 . S
C1431 H1435 0.950 . S
H1432 C1428 0.950 . S
C1433 C1431 1.390 . S
C1433 C1434 1.387 . S
C1433 H1436 0.950 . S
C1434 C1433 1.387 . S
C1434 C1437 1.387 . S
H1435 C1431 0.950 . S
H1436 C1433 0.950 . S
C1437 C1428 1.390 . S
C1437 H1430 0.950 . S
C1437 C1434 1.387 . S
C1438 C1439 1.387 . S
C1438 H1442 0.950 . S
C1438 C1447 1.390 . S
C1439 C1438 1.387 . S
C1439 C1441 1.387 1_545 S
H1440 C1447 0.950 . S
C1441 C1439 1.387 1_565 S
C1441 C1443 1.390 . S
C1441 H1445 0.950 . S
H1442 C1438 0.950 . S
C1443 C1441 1.390 . S
C1443 C1444 1.387 . S
C1443 H1446 0.950 . S
C1444 C1443 1.387 . S
C1444 C1447 1.387 1_565 S
H1445 C1441 0.950 . S
H1446 C1443 0.950 . S
C1447 C1438 1.390 . S
C1447 H1440 0.950 . S
C1447 C1444 1.387 1_545 S
C1448 C1449 1.387 . S
C1448 H1452 0.950 . S
C1448 C1457 1.390 . S
C1449 C1448 1.387 . S
C1449 C1451 1.387 . S
H1450 C1457 0.950 . S
C1451 C1449 1.387 . S
C1451 C1453 1.390 . S
C1451 H1455 0.950 . S
H1452 C1448 0.950 . S
C1453 C1451 1.390 . S
C1453 C1454 1.387 . S
C1453 H1456 0.950 . S
C1454 C1453 1.387 . S
C1454 C1457 1.387 . S
H1455 C1451 0.950 . S
H1456 C1453 0.950 . S
C1457 C1448 1.390 . S
C1457 H1450 0.950 . S
C1457 C1454 1.387 . S
C1458 C1459 1.387 . S
C1458 H1462 0.950 . S
C1458 C1467 1.390 . S
C1459 C1458 1.387 . S
C1459 C1461 1.387 . S
H1460 C1467 0.950 . S
C1461 C1459 1.387 . S
C1461 C1463 1.390 1_565 S
C1461 H1465 0.950 . S
H1462 C1458 0.950 . S
C1463 C1461 1.390 1_545 S
C1463 C1464 1.387 . S
C1463 H1466 0.950 . S
C1464 C1463 1.387 . S
C1464 C1467 1.387 1_545 S
H1465 C1461 0.950 . S
H1466 C1463 0.950 . S
C1467 C1458 1.390 . S
C1467 H1460 0.950 . S
C1467 C1464 1.387 1_565 S
C1468 C1469 1.387 . S
C1468 H1472 0.950 . S
C1468 C1477 1.390 . S
C1469 C1468 1.387 . S
C1469 C1471 1.387 . S
H1470 C1477 0.950 . S
C1471 C1469 1.387 . S
C1471 C1473 1.390 . S
C1471 H1475 0.950 . S
H1472 C1468 0.950 . S
C1473 C1471 1.390 . S
C1473 C1474 1.387 . S
C1473 H1476 0.950 . S
C1474 C1473 1.387 . S
C1474 C1477 1.387 . S
H1475 C1471 0.950 . S
H1476 C1473 0.950 . S
C1477 C1468 1.390 . S
C1477 H1470 0.950 . S
C1477 C1474 1.387 . S
C1478 C1479 1.387 1_565 S
C1478 H1482 0.950 . S
C1478 C1487 1.390 . S
C1479 C1478 1.387 1_545 S
C1479 C1481 1.387 . S
H1480 C1487 0.950 . S
C1481 C1479 1.387 . S
C1481 C1483 1.390 . S
C1481 H1485 0.950 . S
H1482 C1478 0.950 . S
C1483 C1481 1.390 . S
C1483 C1484 1.387 1_545 S
C1483 H1486 0.950 . S
C1484 C1483 1.387 1_565 S
C1484 C1487 1.387 . S
H1485 C1481 0.950 . S
H1486 C1483 0.950 . S
C1487 C1478 1.390 . S
C1487 H1480 0.950 . S
C1487 C1484 1.387 . S
C1488 C1489 1.387 . S
C1488 H1492 0.950 . S
C1488 C1497 1.390 . S
C1489 C1488 1.387 . S
C1489 C1491 1.387 . S
H1490 C1497 0.950 . S
C1491 C1489 1.387 . S
C1491 C1493 1.390 . S
C1491 H1495 0.950 . S
H1492 C1488 0.950 . S
C1493 C1491 1.390 . S
C1493 C1494 1.387 . S
C1493 H1496 0.950 . S
C1494 C1493 1.387 . S
C1494 C1497 1.387 . S
H1495 C1491 0.950 . S
H1496 C1493 0.950 . S
C1497 C1488 1.390 . S
C1497 H1490 0.950 . S
C1497 C1494 1.387 . S
C1498 C1499 1.387 1_545 S
C1498 H1502 0.950 . S
C1498 C1507 1.390 . S
C1499 C1498 1.387 1_565 S
C1499 C1501 1.387 . S
H1500 C1507 0.950 . S
C1501 C1499 1.387 . S
C1501 C1503 1.390 . S
C1501 H1505 0.950 . S
H1502 C1498 0.950 . S
C1503 C1501 1.390 . S
C1503 C1504 1.387 1_565 S
C1503 H1506 0.950 . S
C1504 C1503 1.387 1_545 S
C1504 C1507 1.387 . S
H1505 C1501 0.950 . S
H1506 C1503 0.950 . S
C1507 C1498 1.390 . S
C1507 H1500 0.950 . S
C1507 C1504 1.387 . S
C1508 C1509 1.387 . S
C1508 H1512 0.950 . S
C1508 C1517 1.390 . S
C1509 C1508 1.387 . S
C1509 C1511 1.387 . S
H1510 C1517 0.950 . S
C1511 C1509 1.387 . S
C1511 C1513 1.390 . S
C1511 H1515 0.950 . S
H1512 C1508 0.950 . S
C1513 C1511 1.390 . S
C1513 C1514 1.387 . S
C1513 H1516 0.950 . S
C1514 C1513 1.387 . S
C1514 C1517 1.387 . S
H1515 C1511 0.950 . S
H1516 C1513 0.950 . S
C1517 C1508 1.390 . S
C1517 H1510 0.950 . S
C1517 C1514 1.387 . S
C1518 C1519 1.387 . S
C1518 H1522 0.950 . S
C1518 C1527 1.390 . S
C1519 C1518 1.387 . S
C1519 C1521 1.387 1_545 S
H1520 C1527 0.950 . S
C1521 C1519 1.387 1_565 S
C1521 C1523 1.390 . S
C1521 H1525 0.950 . S
H1522 C1518 0.950 . S
C1523 C1521 1.390 . S
C1523 C1524 1.387 . S
C1523 H1526 0.950 . S
C1524 C1523 1.387 . S
C1524 C1527 1.387 1_565 S
H1525 C1521 0.950 . S
H1526 C1523 0.950 . S
C1527 C1518 1.390 . S
C1527 H1520 0.950 . S
C1527 C1524 1.387 1_545 S
C1528 C1529 1.387 . S
C1528 H1532 0.950 . S
C1528 C1537 1.390 . S
C1529 C1528 1.387 . S
C1529 C1531 1.387 . S
H1530 C1537 0.950 . S
C1531 C1529 1.387 . S
C1531 C1533 1.390 . S
C1531 H1535 0.950 . S
H1532 C1528 0.950 . S
C1533 C1531 1.390 . S
C1533 C1534 1.387 . S
C1533 H1536 0.950 . S
C1534 C1533 1.387 . S
C1534 C1537 1.387 . S
H1535 C1531 0.950 . S
H1536 C1533 0.950 . S
C1537 C1528 1.390 . S
C1537 H1530 0.950 . S
C1537 C1534 1.387 . S
C1538 C1539 1.387 1_565 S
C1538 H1542 0.950 . S
C1538 C1547 1.390 . S
C1539 C1538 1.387 1_545 S
C1539 C1541 1.387 . S
H1540 C1547 0.950 . S
C1541 C1539 1.387 . S
C1541 C1543 1.390 . S
C1541 H1545 0.950 . S
H1542 C1538 0.950 . S
C1543 C1541 1.390 . S
C1543 C1544 1.387 1_545 S
C1543 H1546 0.950 . S
C1544 C1543 1.387 1_565 S
C1544 C1547 1.387 . S
H1545 C1541 0.950 . S
H1546 C1543 0.950 . S
C1547 C1538 1.390 . S
C1547 H1540 0.950 . S
C1547 C1544 1.387 . S
C1548 C1549 1.387 . S
C1548 H1552 0.950 . S
C1548 C1557 1.390 . S
C1549 C1548 1.387 . S
C1549 C1551 1.387 . S
H1550 C1557 0.950 . S
C1551 C1549 1.387 . S
C1551 C1553 1.390 . S
C1551 H1555 0.950 . S
H1552 C1548 0.950 . S
C1553 C1551 1.390 . S
C1553 C1554 1.387 . S
C1553 H1556 0.950 . S
C1554 C1553 1.387 . S
C1554 C1557 1.387 . S
H1555 C1551 0.950 . S
H1556 C1553 0.950 . S
C1557 C1548 1.390 . S
C1557 H1550 0.950 . S
C1557 C1554 1.387 . S
C1558 C1559 1.387 1_565 S
C1558 H1562 0.950 . S
C1558 C1567 1.390 . S
C1559 C1558 1.387 1_545 S
C1559 C1561 1.387 . S
H1560 C1567 0.950 . S
C1561 C1559 1.387 . S
C1561 C1563 1.390 . S
C1561 H1565 0.950 . S
H1562 C1558 0.950 . S
C1563 C1561 1.390 . S
C1563 C1564 1.387 1_545 S
C1563 H1566 0.950 . S
C1564 C1563 1.387 1_565 S
C1564 C1567 1.387 . S
H1565 C1561 0.950 . S
H1566 C1563 0.950 . S
C1567 C1558 1.390 . S
C1567 H1560 0.950 . S
C1567 C1564 1.387 . S
C1568 C1569 1.387 . S
C1568 H1572 0.950 . S
C1568 C1577 1.390 . S
C1569 C1568 1.387 . S
C1569 C1571 1.387 . S
H1570 C1577 0.950 . S
C1571 C1569 1.387 . S
C1571 C1573 1.390 . S
C1571 H1575 0.950 . S
H1572 C1568 0.950 . S
C1573 C1571 1.390 . S
C1573 C1574 1.387 . S
C1573 H1576 0.950 . S
C1574 C1573 1.387 . S
C1574 C1577 1.387 . S
H1575 C1571 0.950 . S
H1576 C1573 0.950 . S
C1577 C1568 1.390 . S
C1577 H1570 0.950 . S
C1577 C1574 1.387 . S
C1578 C1579 1.387 . S
C1578 H1582 0.950 . S
C1578 C1587 1.390 . S
C1579 C1578 1.387 . S
C1579 C1581 1.387 . S
H1580 C1587 0.950 . S
C1581 C1579 1.387 . S
C1581 C1583 1.390 . S
C1581 H1585 0.950 . S
H1582 C1578 0.950 . S
C1583 C1581 1.390 . S
C1583 C1584 1.387 . S
C1583 H1586 0.950 . S
C1584 C1583 1.387 . S
C1584 C1587 1.387 . S
H1585 C1581 0.950 . S
H1586 C1583 0.950 . S
C1587 C1578 1.390 . S
C1587 H1580 0.950 . S
C1587 C1584 1.387 . S
C1588 C1589 1.387 . S
C1588 H1592 0.950 . S
C1588 C1597 1.390 . S
C1589 C1588 1.387 . S
C1589 C1591 1.387 . S
H1590 C1597 0.950 . S
C1591 C1589 1.387 . S
C1591 C1593 1.390 . S
C1591 H1595 0.950 . S
H1592 C1588 0.950 . S
C1593 C1591 1.390 . S
C1593 C1594 1.387 . S
C1593 H1596 0.950 . S
C1594 C1593 1.387 . S
C1594 C1597 1.387 . S
H1595 C1591 0.950 . S
H1596 C1593 0.950 . S
C1597 C1588 1.390 . S
C1597 H1590 0.950 . S
C1597 C1594 1.387 . S
C1598 C1599 1.387 . S
C1598 H1602 0.950 . S
C1598 C1607 1.390 . S
C1599 C1598 1.387 . S
C1599 C1601 1.387 . S
H1600 C1607 0.950 . S
C1601 C1599 1.387 . S
C1601 C1603 1.390 . S
C1601 H1605 0.950 . S
H1602 C1598 0.950 . S
C1603 C1601 1.390 . S
C1603 C1604 1.387 . S
C1603 H1606 0.950 . S
C1604 C1603 1.387 . S
C1604 C1607 1.387 . S
H1605 C1601 0.950 . S
H1606 C1603 0.950 . S
C1607 C1598 1.390 . S
C1607 H1600 0.950 . S
C1607 C1604 1.387 . S
C1608 C1609 1.387 . S
C1608 H1612 0.950 . S
C1608 C1617 1.390 . S
C1609 C1608 1.387 . S
C1609 C1611 1.387 . S
H1610 C1617 0.950 . S
C1611 C1609 1.387 . S
C1611 C1613 1.390 . S
C1611 H1615 0.950 . S
H1612 C1608 0.950 . S
C1613 C1611 1.390 . S
C1613 C1614 1.387 . S
C1613 H1616 0.950 . S
C1614 C1613 1.387 . S
C1614 C1617 1.387 . S
H1615 C1611 0.950 . S
H1616 C1613 0.950 . S
C1617 C1608 1.390 . S
C1617 H1610 0.950 . S
C1617 C1614 1.387 . S
C1618 C1619 1.387 . S
C1618 H1622 0.950 . S
C1618 C1627 1.390 . S
C1619 C1618 1.387 . S
C1619 C1621 1.387 . S
H1620 C1627 0.950 . S
C1621 C1619 1.387 . S
C1621 C1623 1.390 . S
C1621 H1625 0.950 . S
H1622 C1618 0.950 . S
C1623 C1621 1.390 . S
C1623 C1624 1.387 . S
C1623 H1626 0.950 . S
C1624 C1623 1.387 . S
C1624 C1627 1.387 . S
H1625 C1621 0.950 . S
H1626 C1623 0.950 . S
C1627 C1618 1.390 . S
C1627 H1620 0.950 . S
C1627 C1624 1.387 . S
C1628 C1629 1.387 . S
C1628 H1632 0.950 . S
C1628 C1637 1.390 . S
C1629 C1628 1.387 . S
C1629 C1631 1.387 . S
H1630 C1637 0.950 . S
C1631 C1629 1.387 . S
C1631 C1633 1.390 . S
C1631 H1635 0.950 . S
H1632 C1628 0.950 . S
C1633 C1631 1.390 . S
C1633 C1634 1.387 . S
C1633 H1636 0.950 . S
C1634 C1633 1.387 . S
C1634 C1637 1.387 . S
H1635 C1631 0.950 . S
H1636 C1633 0.950 . S
C1637 C1628 1.390 . S
C1637 H1630 0.950 . S
C1637 C1634 1.387 . S
C1638 C1639 1.387 . S
C1638 H1642 0.950 . S
C1638 C1647 1.390 . S
C1639 C1638 1.387 . S
C1639 C1641 1.387 . S
H1640 C1647 0.950 . S
C1641 C1639 1.387 . S
C1641 C1643 1.390 . S
C1641 H1645 0.950 . S
H1642 C1638 0.950 . S
C1643 C1641 1.390 . S
C1643 C1644 1.387 . S
C1643 H1646 0.950 . S
C1644 C1643 1.387 . S
C1644 C1647 1.387 . S
H1645 C1641 0.950 . S
H1646 C1643 0.950 . S
C1647 C1638 1.390 . S
C1647 H1640 0.950 . S
C1647 C1644 1.387 . S
C1648 C1649 1.387 . S
C1648 H1652 0.950 . S
C1648 C1657 1.390 . S
C1649 C1648 1.387 . S
C1649 C1651 1.387 . S
H1650 C1657 0.950 . S
C1651 C1649 1.387 . S
C1651 C1653 1.390 . S
C1651 H1655 0.950 . S
H1652 C1648 0.950 . S
C1653 C1651 1.390 . S
C1653 C1654 1.387 . S
C1653 H1656 0.950 . S
C1654 C1653 1.387 . S
C1654 C1657 1.387 . S
H1655 C1651 0.950 . S
H1656 C1653 0.950 . S
C1657 C1648 1.390 . S
C1657 H1650 0.950 . S
C1657 C1654 1.387 . S
C1658 C1659 1.387 . S
C1658 H1662 0.950 . S
C1658 C1667 1.390 . S
C1659 C1658 1.387 . S
C1659 C1661 1.387 . S
H1660 C1667 0.950 . S
C1661 C1659 1.387 . S
C1661 C1663 1.390 . S
C1661 H1665 0.950 . S
H1662 C1658 0.950 . S
C1663 C1661 1.390 . S
C1663 C1664 1.387 . S
C1663 H1666 0.950 . S
C1664 C1663 1.387 . S
C1664 C1667 1.387 . S
H1665 C1661 0.950 . S
H1666 C1663 0.950 . S
C1667 C1658 1.390 . S
C1667 H1660 0.950 . S
C1667 C1664 1.387 . S
C1668 C1669 1.387 . S
C1668 H1672 0.950 . S
C1668 C1677 1.390 . S
C1669 C1668 1.387 . S
C1669 C1671 1.387 . S
H1670 C1677 0.950 . S
C1671 C1669 1.387 . S
C1671 C1673 1.390 . S
C1671 H1675 0.950 . S
H1672 C1668 0.950 . S
C1673 C1671 1.390 . S
C1673 C1674 1.387 . S
C1673 H1676 0.950 . S
C1674 C1673 1.387 . S
C1674 C1677 1.387 . S
H1675 C1671 0.950 . S
H1676 C1673 0.950 . S
C1677 C1668 1.390 . S
C1677 H1670 0.950 . S
C1677 C1674 1.387 . S
C1678 C1679 1.387 . S
C1678 H1682 0.950 . S
C1678 C1687 1.390 . S
C1679 C1678 1.387 . S
C1679 C1681 1.387 . S
H1680 C1687 0.950 . S
C1681 C1679 1.387 . S
C1681 C1683 1.390 . S
C1681 H1685 0.950 . S
H1682 C1678 0.950 . S
C1683 C1681 1.390 . S
C1683 C1684 1.387 . S
C1683 H1686 0.950 . S
C1684 C1683 1.387 . S
C1684 C1687 1.387 . S
H1685 C1681 0.950 . S
H1686 C1683 0.950 . S
C1687 C1678 1.390 . S
C1687 H1680 0.950 . S
C1687 C1684 1.387 . S
C1688 C1689 1.387 . S
C1688 H1692 0.950 . S
C1688 C1697 1.390 . S
C1689 C1688 1.387 . S
C1689 C1691 1.387 . S
H1690 C1697 0.950 . S
C1691 C1689 1.387 . S
C1691 C1693 1.390 . S
C1691 H1695 0.950 . S
H1692 C1688 0.950 . S
C1693 C1691 1.390 . S
C1693 C1694 1.387 . S
C1693 H1696 0.950 . S
C1694 C1693 1.387 . S
C1694 C1697 1.387 . S
H1695 C1691 0.950 . S
H1696 C1693 0.950 . S
C1697 C1688 1.390 . S
C1697 H1690 0.950 . S
C1697 C1694 1.387 . S
C1698 C1699 1.387 . S
C1698 H1702 0.950 . S
C1698 C1707 1.390 . S
C1699 C1698 1.387 . S
C1699 C1701 1.387 . S
H1700 C1707 0.950 . S
C1701 C1699 1.387 . S
C1701 C1703 1.390 . S
C1701 H1705 0.950 . S
H1702 C1698 0.950 . S
C1703 C1701 1.390 . S
C1703 C1704 1.387 . S
C1703 H1706 0.950 . S
C1704 C1703 1.387 . S
C1704 C1707 1.387 . S
H1705 C1701 0.950 . S
H1706 C1703 0.950 . S
C1707 C1698 1.390 . S
C1707 H1700 0.950 . S
C1707 C1704 1.387 . S
C1708 C1709 1.387 . S
C1708 H1712 0.950 . S
C1708 C1717 1.390 . S
C1709 C1708 1.387 . S
C1709 C1711 1.387 . S
H1710 C1717 0.950 . S
C1711 C1709 1.387 . S
C1711 C1713 1.390 . S
C1711 H1715 0.950 . S
H1712 C1708 0.950 . S
C1713 C1711 1.390 . S
C1713 C1714 1.387 . S
C1713 H1716 0.950 . S
C1714 C1713 1.387 . S
C1714 C1717 1.387 . S
H1715 C1711 0.950 . S
H1716 C1713 0.950 . S
C1717 C1708 1.390 . S
C1717 H1710 0.950 . S
C1717 C1714 1.387 . S
C1718 C1719 1.387 . S
C1718 H1722 0.950 . S
C1718 C1727 1.390 . S
C1719 C1718 1.387 . S
C1719 C1721 1.387 . S
H1720 C1727 0.950 . S
C1721 C1719 1.387 . S
C1721 C1723 1.390 . S
C1721 H1725 0.950 . S
H1722 C1718 0.950 . S
C1723 C1721 1.390 . S
C1723 C1724 1.387 . S
C1723 H1726 0.950 . S
C1724 C1723 1.387 . S
C1724 C1727 1.387 . S
H1725 C1721 0.950 . S
H1726 C1723 0.950 . S
C1727 C1718 1.390 . S
C1727 H1720 0.950 . S
C1727 C1724 1.387 . S
C1728 C1729 1.387 . S
C1728 H1732 0.950 . S
C1728 C1737 1.390 . S
C1729 C1728 1.387 . S
C1729 C1731 1.387 . S
H1730 C1737 0.950 . S
C1731 C1729 1.387 . S
C1731 C1733 1.390 . S
C1731 H1735 0.950 . S
H1732 C1728 0.950 . S
C1733 C1731 1.390 . S
C1733 C1734 1.387 . S
C1733 H1736 0.950 . S
C1734 C1733 1.387 . S
C1734 C1737 1.387 . S
H1735 C1731 0.950 . S
H1736 C1733 0.950 . S
C1737 C1728 1.390 . S
C1737 H1730 0.950 . S
C1737 C1734 1.387 . S
C1738 C1739 1.387 . S
C1738 H1742 0.950 . S
C1738 C1747 1.390 . S
C1739 C1738 1.387 . S
C1739 C1741 1.387 . S
H1740 C1747 0.950 . S
C1741 C1739 1.387 . S
C1741 C1743 1.390 . S
C1741 H1745 0.950 . S
H1742 C1738 0.950 . S
C1743 C1741 1.390 . S
C1743 C1744 1.387 . S
C1743 H1746 0.950 . S
C1744 C1743 1.387 . S
C1744 C1747 1.387 . S
H1745 C1741 0.950 . S
H1746 C1743 0.950 . S
C1747 C1738 1.390 . S
C1747 H1740 0.950 . S
C1747 C1744 1.387 . S
C1748 C1749 1.387 . S
C1748 H1752 0.950 . S
C1748 C1757 1.390 . S
C1749 C1748 1.387 . S
C1749 C1751 1.387 . S
H1750 C1757 0.950 . S
C1751 C1749 1.387 . S
C1751 C1753 1.390 . S
C1751 H1755 0.950 . S
H1752 C1748 0.950 . S
C1753 C1751 1.390 . S
C1753 C1754 1.387 . S
C1753 H1756 0.950 . S
C1754 C1753 1.387 . S
C1754 C1757 1.387 . S
H1755 C1751 0.950 . S
H1756 C1753 0.950 . S
C1757 C1748 1.390 . S
C1757 H1750 0.950 . S
C1757 C1754 1.387 . S
C1758 C1759 1.387 . S
C1758 H1762 0.950 . S
C1758 C1767 1.390 . S
C1759 C1758 1.387 . S
C1759 C1761 1.387 . S
H1760 C1767 0.950 . S
C1761 C1759 1.387 . S
C1761 C1763 1.390 . S
C1761 H1765 0.950 . S
H1762 C1758 0.950 . S
C1763 C1761 1.390 . S
C1763 C1764 1.387 . S
C1763 H1766 0.950 . S
C1764 C1763 1.387 . S
C1764 C1767 1.387 . S
H1765 C1761 0.950 . S
H1766 C1763 0.950 . S
C1767 C1758 1.390 . S
C1767 H1760 0.950 . S
C1767 C1764 1.387 . S
C1768 C1769 1.387 . S
C1768 H1772 0.950 . S
C1768 C1777 1.390 . S
C1769 C1768 1.387 . S
C1769 C1771 1.387 . S
H1770 C1777 0.950 . S
C1771 C1769 1.387 . S
C1771 C1773 1.390 . S
C1771 H1775 0.950 . S
H1772 C1768 0.950 . S
C1773 C1771 1.390 . S
C1773 C1774 1.387 . S
C1773 H1776 0.950 . S
C1774 C1773 1.387 . S
C1774 C1777 1.387 . S
H1775 C1771 0.950 . S
H1776 C1773 0.950 . S
C1777 C1768 1.390 . S
C1777 H1770 0.950 . S
C1777 C1774 1.387 . S
C1778 C1779 1.387 . S
C1778 H1782 0.950 . S
C1778 C1787 1.390 . S
C1779 C1778 1.387 . S
C1779 C1781 1.387 . S
H1780 C1787 0.950 . S
C1781 C1779 1.387 . S
C1781 C1783 1.390 . S
C1781 H1785 0.950 . S
H1782 C1778 0.950 . S
C1783 C1781 1.390 . S
C1783 C1784 1.387 . S
C1783 H1786 0.950 . S
C1784 C1783 1.387 . S
C1784 C1787 1.387 . S
H1785 C1781 0.950 . S
H1786 C1783 0.950 . S
C1787 C1778 1.390 . S
C1787 H1780 0.950 . S
C1787 C1784 1.387 . S
C1788 C1789 1.387 . S
C1788 H1792 0.950 . S
C1788 C1797 1.390 . S
C1789 C1788 1.387 . S
C1789 C1791 1.387 . S
H1790 C1797 0.950 . S
C1791 C1789 1.387 . S
C1791 C1793 1.390 . S
C1791 H1795 0.949 1_545 S
H1792 C1788 0.950 . S
C1793 C1791 1.390 . S
C1793 C1794 1.387 . S
C1793 H1796 0.950 . S
C1794 C1793 1.387 . S
C1794 C1797 1.387 . S
H1795 C1791 0.949 1_565 S
H1796 C1793 0.950 . S
C1797 C1788 1.390 . S
C1797 H1790 0.950 . S
C1797 C1794 1.387 . S
C1798 C1799 1.387 . S
C1798 H1802 0.950 . S
C1798 C1807 1.390 . S
C1799 C1798 1.387 . S
C1799 C1801 1.387 . S
H1800 C1807 0.950 . S
C1801 C1799 1.387 . S
C1801 C1803 1.390 . S
C1801 H1805 0.950 . S
H1802 C1798 0.950 . S
C1803 C1801 1.390 . S
C1803 C1804 1.387 . S
C1803 H1806 0.950 . S
C1804 C1803 1.387 . S
C1804 C1807 1.387 . S
H1805 C1801 0.950 . S
H1806 C1803 0.950 . S
C1807 C1798 1.390 . S
C1807 H1800 0.950 . S
C1807 C1804 1.387 . S
C1808 C1809 1.387 . S
C1808 H1812 0.950 . S
C1808 C1817 1.390 . S
C1809 C1808 1.387 . S
C1809 C1811 1.387 . S
H1810 C1817 0.950 . S
C1811 C1809 1.387 . S
C1811 C1813 1.390 . S
C1811 H1815 0.950 . S
H1812 C1808 0.950 . S
C1813 C1811 1.390 . S
C1813 C1814 1.387 . S
C1813 H1816 0.950 . S
C1814 C1813 1.387 . S
C1814 C1817 1.387 . S
H1815 C1811 0.950 . S
H1816 C1813 0.950 . S
C1817 C1808 1.390 . S
C1817 H1810 0.950 . S
C1817 C1814 1.387 . S
C1818 C1819 1.387 . S
C1818 H1822 0.950 . S
C1818 C1827 1.390 . S
C1819 C1818 1.387 . S
C1819 C1821 1.387 . S
H1820 C1827 0.950 . S
C1821 C1819 1.387 . S
C1821 C1823 1.390 . S
C1821 H1825 0.950 . S
H1822 C1818 0.950 . S
C1823 C1821 1.390 . S
C1823 C1824 1.387 . S
C1823 H1826 0.950 . S
C1824 C1823 1.387 . S
C1824 C1827 1.387 . S
H1825 C1821 0.950 . S
H1826 C1823 0.950 . S
C1827 C1818 1.390 . S
C1827 H1820 0.950 . S
C1827 C1824 1.387 . S
C1828 C1829 1.387 . S
C1828 H1832 0.950 . S
C1828 C1837 1.390 . S
C1829 C1828 1.387 . S
C1829 C1831 1.387 . S
H1830 C1837 0.950 . S
C1831 C1829 1.387 . S
C1831 C1833 1.390 . S
C1831 H1835 0.950 . S
H1832 C1828 0.950 . S
C1833 C1831 1.390 . S
C1833 C1834 1.387 . S
C1833 H1836 0.950 . S
C1834 C1833 1.387 . S
C1834 C1837 1.387 . S
H1835 C1831 0.950 . S
H1836 C1833 0.950 . S
C1837 C1828 1.390 . S
C1837 H1830 0.950 . S
C1837 C1834 1.387 . S
C1838 C1839 1.387 . S
C1838 H1842 0.950 . S
C1838 C1847 1.390 . S
C1839 C1838 1.387 . S
C1839 C1841 1.387 . S
H1840 C1847 0.950 . S
C1841 C1839 1.387 . S
C1841 C1843 1.390 . S
C1841 H1845 0.950 . S
H1842 C1838 0.950 . S
C1843 C1841 1.390 . S
C1843 C1844 1.387 . S
C1843 H1846 0.950 . S
C1844 C1843 1.387 . S
C1844 C1847 1.387 . S
H1845 C1841 0.950 . S
H1846 C1843 0.950 . S
C1847 C1838 1.390 . S
C1847 H1840 0.950 . S
C1847 C1844 1.387 . S
C1848 C1849 1.387 . S
C1848 H1852 0.950 . S
C1848 C1857 1.390 . S
C1849 C1848 1.387 . S
C1849 C1851 1.387 . S
H1850 C1857 0.950 . S
C1851 C1849 1.387 . S
C1851 C1853 1.390 . S
C1851 H1855 0.950 . S
H1852 C1848 0.950 . S
C1853 C1851 1.390 . S
C1853 C1854 1.387 . S
C1853 H1856 0.950 . S
C1854 C1853 1.387 . S
C1854 C1857 1.387 . S
H1855 C1851 0.950 . S
H1856 C1853 0.950 . S
C1857 C1848 1.390 . S
C1857 H1850 0.950 . S
C1857 C1854 1.387 . S
C1858 C1859 1.387 . S
C1858 H1862 0.950 . S
C1858 C1867 1.390 . S
C1859 C1858 1.387 . S
C1859 C1861 1.387 . S
H1860 C1867 0.950 . S
C1861 C1859 1.387 . S
C1861 C1863 1.390 . S
C1861 H1865 0.950 . S
H1862 C1858 0.950 . S
C1863 C1861 1.390 . S
C1863 C1864 1.387 . S
C1863 H1866 0.950 . S
C1864 C1863 1.387 . S
C1864 C1867 1.387 . S
H1865 C1861 0.950 . S
H1866 C1863 0.950 . S
C1867 C1858 1.390 . S
C1867 H1860 0.950 . S
C1867 C1864 1.387 . S
C1868 C1869 1.387 . S
C1868 H1872 0.950 . S
C1868 C1877 1.390 . S
C1869 C1868 1.387 . S
C1869 C1871 1.387 . S
H1870 C1877 0.950 . S
C1871 C1869 1.387 . S
C1871 C1873 1.390 . S
C1871 H1875 0.950 . S
H1872 C1868 0.950 . S
C1873 C1871 1.390 . S
C1873 C1874 1.387 . S
C1873 H1876 0.950 . S
C1874 C1873 1.387 . S
C1874 C1877 1.387 . S
H1875 C1871 0.950 . S
H1876 C1873 0.950 . S
C1877 C1868 1.390 . S
C1877 H1870 0.950 . S
C1877 C1874 1.387 . S
C1878 C1879 1.387 . S
C1878 H1882 0.950 . S
C1878 C1887 1.390 . S
C1879 C1878 1.387 . S
C1879 C1881 1.387 . S
H1880 C1887 0.950 . S
C1881 C1879 1.387 . S
C1881 C1883 1.390 . S
C1881 H1885 0.950 . S
H1882 C1878 0.950 . S
C1883 C1881 1.390 . S
C1883 C1884 1.387 . S
C1883 H1886 0.950 . S
C1884 C1883 1.387 . S
C1884 C1887 1.387 . S
H1885 C1881 0.950 . S
H1886 C1883 0.950 . S
C1887 C1878 1.390 . S
C1887 H1880 0.950 . S
C1887 C1884 1.387 . S
C1089 C33 0.445 . S
C1094 C645 0.445 . S
C1099 C679 0.445 . S
C1104 C67 0.445 . S
C1109 C577 0.445 . S
C1114 C101 0.445 . S
C1119 C135 0.445 . S
C1124 C611 0.445 . S
C1129 C781 0.445 . S
C1134 C169 0.445 . S
C1139 C815 0.445 . S
C1144 C203 0.445 . S
C1149 C237 0.437 . S
C1154 C713 0.437 . S
C1159 C271 0.445 . S
C1164 C747 0.445 . S
C1169 C917 0.480 . S
C1174 C305 0.480 . S
C1179 C951 0.480 . S
C1184 C339 0.480 . S
C1189 C373 0.480 . S
C1194 C849 0.480 . S
C1199 C407 0.474 . S
C1204 C883 0.474 . S
C1209 C441 0.480 . S
C1214 C1053 0.480 . S
C1219 C475 0.480 . S
C1224 C1087 0.480 . S
C1229 C985 0.474 . S
C1234 C509 0.474 . S
C1239 C543 0.474 . S
C1244 C1019 0.474 . S
C1249 C9 1.474 . S
C1254 C821 1.599 . S
C1259 C311 1.601 . S
C1264 C43 1.473 1_565 S
C1269 C889 1.599 . S
C1274 C77 1.475 . S
C1279 C111 1.474 1_545 S
C1284 C379 1.601 . S
C1289 C145 1.472 . S
C1294 C957 1.599 . S
C1299 C179 1.474 1_565 S
C1304 C447 1.601 . S
C1309 C1025 1.601 . S
C1314 C213 1.473 . S
C1319 C515 1.601 . S
C1324 C247 1.474 1_545 S
C1329 C553 1.474 . S
C1334 C277 1.599 . S
C1339 C621 1.474 . S
C1344 C345 1.599 . S
C1349 C689 1.475 . S
C1354 C413 1.601 . S
C1359 C481 1.601 . S
C1364 C757 1.475 . S
C1369 C855 1.601 . S
C1374 C587 1.473 . S
C1379 C923 1.601 . S
C1384 C655 1.474 . S
C1389 C723 1.474 . S
C1394 C991 1.601 . S
C1399 C791 1.473 . S
C1404 C1059 1.601 . S
C1409 C20 1.480 1_565 S
C1414 C954 1.465 . S
C1419 C54 1.481 . S
C1424 C444 1.466 . S
C1429 C1022 1.464 . S
C1434 C88 1.480 1_545 S
C1439 C512 1.465 . S
C1444 C122 1.481 . S
C1449 C818 1.464 . S
C1454 C156 1.480 1_545 S
C1459 C308 1.466 . S
C1464 C190 1.481 . S
C1469 C224 1.480 1_565 S
C1474 C886 1.465 . S
C1479 C376 1.464 . S
C1484 C258 1.480 . S
C1489 C682 1.471 . S
C1494 C292 1.487 1_545 S
C1499 C326 1.489 . S
C1504 C172 1.474 . S
C1509 C750 1.471 . S
C1514 C360 1.487 1_565 S
C1519 C394 1.487 . S
C1524 C240 1.471 . S
C1529 C428 1.487 1_565 S
C1534 C546 1.471 . S
C1539 C36 1.472 . S
C1544 C462 1.487 . S
C1549 C614 1.473 . S
C1554 C496 1.489 1_545 S
C1559 C530 1.489 . S
C1564 C104 1.474 . S
C1569 C564 1.480 . S
C1574 C410 1.465 . S
C1579 C598 1.481 . S
C1584 C988 1.465 . S
C1589 C478 1.465 . S
C1594 C632 1.480 . S
C1599 C666 1.480 . S
C1604 C1056 1.465 . S
C1609 C700 1.480 . S
C1614 C274 1.465 . S
C1619 C852 1.464 . S
C1624 C734 1.480 . S
C1629 C768 1.480 . S
C1634 C342 1.464 . S
C1639 C802 1.480 . S
C1644 C920 1.465 . S
C1649 C836 1.488 . S
C1654 C138 1.472 . S
C1659 C716 1.472 . S
C1664 C870 1.487 . S
C1669 C904 1.487 . S
C1674 C206 1.471 . S
C1679 C784 1.472 . S
C1684 C938 1.488 . S
C1689 C972 1.487 . S
C1694 C2 1.472 . S
C1699 C1006 1.489 . S
C1704 C580 1.473 . S
C1709 C1040 1.489 . S
C1714 C70 1.474 . S
C1719 C1074 1.487 . S
C1724 C648 1.472 . S
C1729 C5 2.004 . S
C1734 C175 2.004 . S
C1739 C209 2.004 . S
C1744 C39 2.005 . S
C1749 C73 2.004 . S
C1754 C243 2.004 . S
C1759 C107 2.004 . S
C1764 C141 2.004 . S
C1769 C451 1.356 . S
C1774 C281 1.356 . S
C1779 C485 1.354 . S
C1784 C315 1.356 . S
C1789 C519 1.354 . S
C1794 C349 1.356 . S
C1799 C383 1.355 . S
C1804 C417 1.353 . S
C1809 C549 2.004 . S
C1814 C719 2.004 . S
C1819 C753 2.005 . S
C1824 C583 2.005 . S
C1829 C617 2.004 . S
C1834 C787 2.003 . S
C1839 C685 2.005 . S
C1844 C651 2.005 . S
C1849 C995 1.355 . S
C1854 C825 1.356 . S
C1859 C1029 1.350 . S
C1864 C859 1.351 . S
C1869 C893 1.354 . S
C1874 C1063 1.352 . S
C1879 C961 1.350 . S
C1884 C927 1.351 . S
