# Generated by pormake.
# Topology wnh, (7)-cn, num edge types: 1
# Building blocks:
#     Node 0, Type 0, BuildingBlock: OLANEW_clean_sbu_0, # of connection points: 7
#     Node 1, Type 0, BuildingBlock: OLANEW_clean_sbu_0, # of connection points: 7
#     Node 2, Type 0, BuildingBlock: OLANEW_clean_sbu_0, # of connection points: 7
#     Node 3, Type 0, BuildingBlock: OLANEW_clean_sbu_0, # of connection points: 7
#     Node 4, Type 0, BuildingBlock: OLANEW_clean_sbu_0, # of connection points: 7
#     Node 5, Type 0, BuildingBlock: OLANEW_clean_sbu_0, # of connection points: 7
#     Node 6, Type 0, BuildingBlock: OLANEW_clean_sbu_0, # of connection points: 7
#     Node 7, Type 0, BuildingBlock: OLANEW_clean_sbu_0, # of connection points: 7
#     Node 8, Type 0, BuildingBlock: OLANEW_clean_sbu_0, # of connection points: 7
#     Node 9, Type 0, BuildingBlock: OLANEW_clean_sbu_0, # of connection points: 7
#     Node 10, Type 0, BuildingBlock: OLANEW_clean_sbu_0, # of connection points: 7
#     Node 11, Type 0, BuildingBlock: OLANEW_clean_sbu_0, # of connection points: 7
#     Node 12, Type 0, BuildingBlock: OLANEW_clean_sbu_0, # of connection points: 7
#     Node 13, Type 0, BuildingBlock: OLANEW_clean_sbu_0, # of connection points: 7
#     Node 14, Type 0, BuildingBlock: OLANEW_clean_sbu_0, # of connection points: 7
#     Node 15, Type 0, BuildingBlock: OLANEW_clean_sbu_0, # of connection points: 7
#     Node 16, Type 0, BuildingBlock: OLANEW_clean_sbu_0, # of connection points: 7
#     Node 17, Type 0, BuildingBlock: OLANEW_clean_sbu_0, # of connection points: 7
#     Node 18, Type 0, BuildingBlock: OLANEW_clean_sbu_0, # of connection points: 7
#     Node 19, Type 0, BuildingBlock: OLANEW_clean_sbu_0, # of connection points: 7
#     Node 20, Type 0, BuildingBlock: OLANEW_clean_sbu_0, # of connection points: 7
#     Node 21, Type 0, BuildingBlock: OLANEW_clean_sbu_0, # of connection points: 7
#     Node 22, Type 0, BuildingBlock: OLANEW_clean_sbu_0, # of connection points: 7
#     Node 23, Type 0, BuildingBlock: OLANEW_clean_sbu_0, # of connection points: 7
#     Node 24, Type 0, BuildingBlock: OLANEW_clean_sbu_0, # of connection points: 7
#     Node 25, Type 0, BuildingBlock: OLANEW_clean_sbu_0, # of connection points: 7
#     Node 26, Type 0, BuildingBlock: OLANEW_clean_sbu_0, # of connection points: 7
#     Node 27, Type 0, BuildingBlock: OLANEW_clean_sbu_0, # of connection points: 7
#     Node 28, Type 0, BuildingBlock: OLANEW_clean_sbu_0, # of connection points: 7
#     Node 29, Type 0, BuildingBlock: OLANEW_clean_sbu_0, # of connection points: 7
#     Node 30, Type 0, BuildingBlock: OLANEW_clean_sbu_0, # of connection points: 7
#     Node 31, Type 0, BuildingBlock: OLANEW_clean_sbu_0, # of connection points: 7
#     Node 32, Type 0, BuildingBlock: OLANEW_clean_sbu_0, # of connection points: 7
#     Node 33, Type 0, BuildingBlock: OLANEW_clean_sbu_0, # of connection points: 7
#     Node 34, Type 0, BuildingBlock: OLANEW_clean_sbu_0, # of connection points: 7
#     Node 35, Type 0, BuildingBlock: OLANEW_clean_sbu_0, # of connection points: 7
#     Edge 36, Type (0, 0), BuildingBlock: OJICUG_clean_linker_0, # of connection points: 2
#     Edge 37, Type (0, 0), BuildingBlock: OJICUG_clean_linker_0, # of connection points: 2
#     Edge 38, Type (0, 0), BuildingBlock: OJICUG_clean_linker_0, # of connection points: 2
#     Edge 39, Type (0, 0), BuildingBlock: OJICUG_clean_linker_0, # of connection points: 2
#     Edge 40, Type (0, 0), BuildingBlock: OJICUG_clean_linker_0, # of connection points: 2
#     Edge 41, Type (0, 0), BuildingBlock: OJICUG_clean_linker_0, # of connection points: 2
#     Edge 42, Type (0, 0), BuildingBlock: OJICUG_clean_linker_0, # of connection points: 2
#     Edge 43, Type (0, 0), BuildingBlock: OJICUG_clean_linker_0, # of connection points: 2
#     Edge 44, Type (0, 0), BuildingBlock: OJICUG_clean_linker_0, # of connection points: 2
#     Edge 45, Type (0, 0), BuildingBlock: OJICUG_clean_linker_0, # of connection points: 2
#     Edge 46, Type (0, 0), BuildingBlock: OJICUG_clean_linker_0, # of connection points: 2
#     Edge 47, Type (0, 0), BuildingBlock: OJICUG_clean_linker_0, # of connection points: 2
#     Edge 48, Type (0, 0), BuildingBlock: OJICUG_clean_linker_0, # of connection points: 2
#     Edge 49, Type (0, 0), BuildingBlock: OJICUG_clean_linker_0, # of connection points: 2
#     Edge 50, Type (0, 0), BuildingBlock: OJICUG_clean_linker_0, # of connection points: 2
#     Edge 51, Type (0, 0), BuildingBlock: OJICUG_clean_linker_0, # of connection points: 2
#     Edge 52, Type (0, 0), BuildingBlock: OJICUG_clean_linker_0, # of connection points: 2
#     Edge 53, Type (0, 0), BuildingBlock: OJICUG_clean_linker_0, # of connection points: 2
#     Edge 54, Type (0, 0), BuildingBlock: OJICUG_clean_linker_0, # of connection points: 2
#     Edge 55, Type (0, 0), BuildingBlock: OJICUG_clean_linker_0, # of connection points: 2
#     Edge 56, Type (0, 0), BuildingBlock: OJICUG_clean_linker_0, # of connection points: 2
#     Edge 57, Type (0, 0), BuildingBlock: OJICUG_clean_linker_0, # of connection points: 2
#     Edge 58, Type (0, 0), BuildingBlock: OJICUG_clean_linker_0, # of connection points: 2
#     Edge 59, Type (0, 0), BuildingBlock: OJICUG_clean_linker_0, # of connection points: 2
#     Edge 60, Type (0, 0), BuildingBlock: OJICUG_clean_linker_0, # of connection points: 2
#     Edge 61, Type (0, 0), BuildingBlock: OJICUG_clean_linker_0, # of connection points: 2
#     Edge 62, Type (0, 0), BuildingBlock: OJICUG_clean_linker_0, # of connection points: 2
#     Edge 63, Type (0, 0), BuildingBlock: OJICUG_clean_linker_0, # of connection points: 2
#     Edge 64, Type (0, 0), BuildingBlock: OJICUG_clean_linker_0, # of connection points: 2
#     Edge 65, Type (0, 0), BuildingBlock: OJICUG_clean_linker_0, # of connection points: 2
#     Edge 66, Type (0, 0), BuildingBlock: OJICUG_clean_linker_0, # of connection points: 2
#     Edge 67, Type (0, 0), BuildingBlock: OJICUG_clean_linker_0, # of connection points: 2
#     Edge 68, Type (0, 0), BuildingBlock: OJICUG_clean_linker_0, # of connection points: 2
#     Edge 69, Type (0, 0), BuildingBlock: OJICUG_clean_linker_0, # of connection points: 2
#     Edge 70, Type (0, 0), BuildingBlock: OJICUG_clean_linker_0, # of connection points: 2
#     Edge 71, Type (0, 0), BuildingBlock: OJICUG_clean_linker_0, # of connection points: 2
#     Edge 72, Type (0, 0), BuildingBlock: OJICUG_clean_linker_0, # of connection points: 2
#     Edge 73, Type (0, 0), BuildingBlock: OJICUG_clean_linker_0, # of connection points: 2
#     Edge 74, Type (0, 0), BuildingBlock: OJICUG_clean_linker_0, # of connection points: 2
#     Edge 75, Type (0, 0), BuildingBlock: OJICUG_clean_linker_0, # of connection points: 2
#     Edge 76, Type (0, 0), BuildingBlock: OJICUG_clean_linker_0, # of connection points: 2
#     Edge 77, Type (0, 0), BuildingBlock: OJICUG_clean_linker_0, # of connection points: 2
#     Edge 78, Type (0, 0), BuildingBlock: OJICUG_clean_linker_0, # of connection points: 2
#     Edge 79, Type (0, 0), BuildingBlock: OJICUG_clean_linker_0, # of connection points: 2
#     Edge 80, Type (0, 0), BuildingBlock: OJICUG_clean_linker_0, # of connection points: 2
#     Edge 81, Type (0, 0), BuildingBlock: OJICUG_clean_linker_0, # of connection points: 2
#     Edge 82, Type (0, 0), BuildingBlock: OJICUG_clean_linker_0, # of connection points: 2
#     Edge 83, Type (0, 0), BuildingBlock: OJICUG_clean_linker_0, # of connection points: 2
#     Edge 84, Type (0, 0), BuildingBlock: OJICUG_clean_linker_0, # of connection points: 2
#     Edge 85, Type (0, 0), BuildingBlock: OJICUG_clean_linker_0, # of connection points: 2
#     Edge 86, Type (0, 0), BuildingBlock: OJICUG_clean_linker_0, # of connection points: 2
#     Edge 87, Type (0, 0), BuildingBlock: OJICUG_clean_linker_0, # of connection points: 2
#     Edge 88, Type (0, 0), BuildingBlock: OJICUG_clean_linker_0, # of connection points: 2
#     Edge 89, Type (0, 0), BuildingBlock: OJICUG_clean_linker_0, # of connection points: 2
#     Edge 90, Type (0, 0), BuildingBlock: OJICUG_clean_linker_0, # of connection points: 2
#     Edge 91, Type (0, 0), BuildingBlock: OJICUG_clean_linker_0, # of connection points: 2
#     Edge 92, Type (0, 0), BuildingBlock: OJICUG_clean_linker_0, # of connection points: 2
#     Edge 93, Type (0, 0), BuildingBlock: OJICUG_clean_linker_0, # of connection points: 2
#     Edge 94, Type (0, 0), BuildingBlock: OJICUG_clean_linker_0, # of connection points: 2
#     Edge 95, Type (0, 0), BuildingBlock: OJICUG_clean_linker_0, # of connection points: 2
#     Edge 96, Type (0, 0), BuildingBlock: OJICUG_clean_linker_0, # of connection points: 2
#     Edge 97, Type (0, 0), BuildingBlock: OJICUG_clean_linker_0, # of connection points: 2
#     Edge 98, Type (0, 0), BuildingBlock: OJICUG_clean_linker_0, # of connection points: 2
#     Edge 99, Type (0, 0), BuildingBlock: OJICUG_clean_linker_0, # of connection points: 2
#     Edge 100, Type (0, 0), BuildingBlock: OJICUG_clean_linker_0, # of connection points: 2
#     Edge 101, Type (0, 0), BuildingBlock: OJICUG_clean_linker_0, # of connection points: 2
#     Edge 102, Type (0, 0), BuildingBlock: OJICUG_clean_linker_0, # of connection points: 2
#     Edge 103, Type (0, 0), BuildingBlock: OJICUG_clean_linker_0, # of connection points: 2
#     Edge 104, Type (0, 0), BuildingBlock: OJICUG_clean_linker_0, # of connection points: 2
#     Edge 105, Type (0, 0), BuildingBlock: OJICUG_clean_linker_0, # of connection points: 2
#     Edge 106, Type (0, 0), BuildingBlock: OJICUG_clean_linker_0, # of connection points: 2
#     Edge 107, Type (0, 0), BuildingBlock: OJICUG_clean_linker_0, # of connection points: 2
#     Edge 108, Type (0, 0), BuildingBlock: OJICUG_clean_linker_0, # of connection points: 2
#     Edge 109, Type (0, 0), BuildingBlock: OJICUG_clean_linker_0, # of connection points: 2
#     Edge 110, Type (0, 0), BuildingBlock: OJICUG_clean_linker_0, # of connection points: 2
#     Edge 111, Type (0, 0), BuildingBlock: OJICUG_clean_linker_0, # of connection points: 2
#     Edge 112, Type (0, 0), BuildingBlock: OJICUG_clean_linker_0, # of connection points: 2
#     Edge 113, Type (0, 0), BuildingBlock: OJICUG_clean_linker_0, # of connection points: 2
#     Edge 114, Type (0, 0), BuildingBlock: OJICUG_clean_linker_0, # of connection points: 2
#     Edge 115, Type (0, 0), BuildingBlock: OJICUG_clean_linker_0, # of connection points: 2
#     Edge 116, Type (0, 0), BuildingBlock: OJICUG_clean_linker_0, # of connection points: 2
#     Edge 117, Type (0, 0), BuildingBlock: OJICUG_clean_linker_0, # of connection points: 2
#     Edge 118, Type (0, 0), BuildingBlock: OJICUG_clean_linker_0, # of connection points: 2
#     Edge 119, Type (0, 0), BuildingBlock: OJICUG_clean_linker_0, # of connection points: 2
#     Edge 120, Type (0, 0), BuildingBlock: OJICUG_clean_linker_0, # of connection points: 2
#     Edge 121, Type (0, 0), BuildingBlock: OJICUG_clean_linker_0, # of connection points: 2
#     Edge 122, Type (0, 0), BuildingBlock: OJICUG_clean_linker_0, # of connection points: 2
#     Edge 123, Type (0, 0), BuildingBlock: OJICUG_clean_linker_0, # of connection points: 2
#     Edge 124, Type (0, 0), BuildingBlock: OJICUG_clean_linker_0, # of connection points: 2
#     Edge 125, Type (0, 0), BuildingBlock: OJICUG_clean_linker_0, # of connection points: 2
#     Edge 126, Type (0, 0), BuildingBlock: OJICUG_clean_linker_0, # of connection points: 2
#     Edge 127, Type (0, 0), BuildingBlock: OJICUG_clean_linker_0, # of connection points: 2
#     Edge 128, Type (0, 0), BuildingBlock: OJICUG_clean_linker_0, # of connection points: 2
#     Edge 129, Type (0, 0), BuildingBlock: OJICUG_clean_linker_0, # of connection points: 2
#     Edge 130, Type (0, 0), BuildingBlock: OJICUG_clean_linker_0, # of connection points: 2
#     Edge 131, Type (0, 0), BuildingBlock: OJICUG_clean_linker_0, # of connection points: 2
#     Edge 132, Type (0, 0), BuildingBlock: OJICUG_clean_linker_0, # of connection points: 2
#     Edge 133, Type (0, 0), BuildingBlock: OJICUG_clean_linker_0, # of connection points: 2
#     Edge 134, Type (0, 0), BuildingBlock: OJICUG_clean_linker_0, # of connection points: 2
#     Edge 135, Type (0, 0), BuildingBlock: OJICUG_clean_linker_0, # of connection points: 2
#     Edge 136, Type (0, 0), BuildingBlock: OJICUG_clean_linker_0, # of connection points: 2
#     Edge 137, Type (0, 0), BuildingBlock: OJICUG_clean_linker_0, # of connection points: 2
#     Edge 138, Type (0, 0), BuildingBlock: OJICUG_clean_linker_0, # of connection points: 2
#     Edge 139, Type (0, 0), BuildingBlock: OJICUG_clean_linker_0, # of connection points: 2
#     Edge 140, Type (0, 0), BuildingBlock: OJICUG_clean_linker_0, # of connection points: 2
#     Edge 141, Type (0, 0), BuildingBlock: OJICUG_clean_linker_0, # of connection points: 2
#     Edge 142, Type (0, 0), BuildingBlock: OJICUG_clean_linker_0, # of connection points: 2
#     Edge 143, Type (0, 0), BuildingBlock: OJICUG_clean_linker_0, # of connection points: 2
#     Edge 144, Type (0, 0), BuildingBlock: OJICUG_clean_linker_0, # of connection points: 2
#     Edge 145, Type (0, 0), BuildingBlock: OJICUG_clean_linker_0, # of connection points: 2
#     Edge 146, Type (0, 0), BuildingBlock: OJICUG_clean_linker_0, # of connection points: 2
#     Edge 147, Type (0, 0), BuildingBlock: OJICUG_clean_linker_0, # of connection points: 2
#     Edge 148, Type (0, 0), BuildingBlock: OJICUG_clean_linker_0, # of connection points: 2
#     Edge 149, Type (0, 0), BuildingBlock: OJICUG_clean_linker_0, # of connection points: 2
#     Edge 150, Type (0, 0), BuildingBlock: OJICUG_clean_linker_0, # of connection points: 2
#     Edge 151, Type (0, 0), BuildingBlock: OJICUG_clean_linker_0, # of connection points: 2
#     Edge 152, Type (0, 0), BuildingBlock: OJICUG_clean_linker_0, # of connection points: 2
#     Edge 153, Type (0, 0), BuildingBlock: OJICUG_clean_linker_0, # of connection points: 2
#     Edge 154, Type (0, 0), BuildingBlock: OJICUG_clean_linker_0, # of connection points: 2
#     Edge 155, Type (0, 0), BuildingBlock: OJICUG_clean_linker_0, # of connection points: 2
#     Edge 156, Type (0, 0), BuildingBlock: OJICUG_clean_linker_0, # of connection points: 2
#     Edge 157, Type (0, 0), BuildingBlock: OJICUG_clean_linker_0, # of connection points: 2
#     Edge 158, Type (0, 0), BuildingBlock: OJICUG_clean_linker_0, # of connection points: 2
#     Edge 159, Type (0, 0), BuildingBlock: OJICUG_clean_linker_0, # of connection points: 2
#     Edge 160, Type (0, 0), BuildingBlock: OJICUG_clean_linker_0, # of connection points: 2
#     Edge 161, Type (0, 0), BuildingBlock: OJICUG_clean_linker_0, # of connection points: 2
# Relax obj value: 0.119
# Max RMSD: 0.237
# Mean RMSD: 0.237
data_MOF--net-wnh--node1-OLANEW_clean_sbu_0--edge1-OJICUG_clean_linker_0
_symmetry_space_group_name_H-M    P1
_symmetry_Int_Tables_number       1
_symmetry_cell_setting            triclinic
loop_
_symmetry_equiv_pos_as_xyz
'x, y, z'
_cell_length_a     67.596489
_cell_length_b     67.591669
_cell_length_c     38.912721
_cell_angle_alpha  89.967059
_cell_angle_beta   90.016581
_cell_angle_gamma 119.99665
loop_
_atom_site_label
_atom_site_type_symbol
_atom_site_fract_x
_atom_site_fract_y
_atom_site_fract_z
_atom_type_partial_charge
Cd0 Cd 0.24432 0.11389 0.98479 0.0
C1 C 0.28748 0.11442 0.96178 0.0
C2 C 0.1818 0.04718 0.14256 0.0
O3 O 0.16643 0.02541 0.14553 0.0
Cd4 Cd 0.30786 0.17148 0.96319 0.0
C5 C 0.17728 0.06521 0.15416 0.0
C6 C 0.17703 0.10511 0.17225 0.0
C7 C 0.19613 0.10576 0.15716 0.0
N8 N 0.19501 0.08604 0.14911 0.0
C9 C 0.15755 0.06314 0.16926 0.0
C10 C 0.15757 0.08344 0.17834 0.0
Co11 Co 0.2206 0.0878 0.12965 0.0
C12 C 0.21811 0.12568 0.14753 0.0
O13 O 0.22267 0.1468 0.15227 0.0
C14 C 0.25502 0.13768 0.11962 0.0
C15 C 0.25855 0.14407 0.08495 0.0
C16 C 0.28068 0.15924 0.07274 0.0
C17 C 0.29915 0.1675 0.09552 0.0
C18 C 0.29559 0.16046 0.12995 0.0
C19 C 0.2734 0.14644 0.14217 0.0
C20 C 0.285 0.16286 0.03558 0.0
C21 C 0.20956 0.03918 0.11383 0.0
C22 C 0.19456 0.0227 0.0903 0.0
C23 C 0.22934 0.03895 0.12385 0.0
C24 C 0.23458 0.02321 0.1096 0.0
C25 C 0.2197 0.00694 0.08622 0.0
C26 C 0.19904 0.00594 0.07741 0.0
N27 N 0.20338 0.05448 0.12994 0.0
N28 N 0.23309 0.12063 0.13165 0.0
N29 N 0.2108 0.08721 0.08237 0.0
C30 C 0.19063 0.08736 0.07159 0.0
C31 C 0.1715 0.0672 0.06049 0.0
C32 C 0.19008 0.10778 0.07195 0.0
C33 C 0.15157 0.0672 0.05015 0.0
H34 H 0.17225 0.05158 0.06007 0.0
C35 C 0.15114 0.0878 0.05104 0.0
C36 C 0.17034 0.1082 0.06196 0.0
C37 C 0.1312 0.04579 0.03846 0.0
H38 H 0.20514 0.12338 0.07975 0.0
H39 H 0.13583 0.08796 0.04326 0.0
C40 C 0.16973 0.12986 0.06298 0.0
O41 O 0.1121 0.04593 0.02866 0.0
O42 O 0.13158 0.02789 0.0376 0.0
O43 O 0.18584 0.1472 0.0748 0.0
O44 O 0.15135 0.13056 0.05089 0.0
H45 H 0.09864 0.03217 0.02094 0.0
H46 H 0.15066 0.14452 0.05121 0.0
N47 N 0.24647 0.09005 0.11048 0.0
C48 C 0.26346 0.09426 0.13205 0.0
C49 C 0.28415 0.09784 0.11838 0.0
C50 C 0.28597 0.09715 0.08223 0.0
C51 C 0.26736 0.09289 0.06074 0.0
C52 C 0.24719 0.08934 0.07632 0.0
N53 N 0.23498 0.08882 0.17403 0.0
C54 C 0.25694 0.09348 0.16831 0.0
O55 O 0.27028 0.09412 0.19343 0.0
C56 C 0.22634 0.08667 0.06006 0.0
O57 O 0.2298 0.13765 1.00349 0.0
O58 O 0.20956 0.11287 0.96404 0.0
C59 C 0.22449 0.08059 0.20717 0.0
C60 C 0.23243 0.09531 0.23584 0.0
C61 C 0.22597 0.0865 0.26929 0.0
C62 C 0.21114 0.06308 0.27401 0.0
C63 C 0.20382 0.04808 0.24603 0.0
C64 C 0.21079 0.05694 0.2128 0.0
O65 O 0.26847 0.09598 0.96361 0.0
O66 O 0.28705 0.13199 0.97059 0.0
O67 O 0.27232 0.14723 0.015 0.0
O68 O 0.30265 0.18012 0.02342 0.0
O69 O 0.22262 0.08294 0.02593 0.0
C70 C 0.26392 0.14427 0.90329 0.0
O71 O 0.2824 0.16241 0.91206 0.0
O72 O 0.25206 0.12834 0.92479 0.0
C73 C 0.21301 0.12984 0.9828 0.0
H74 H 0.17705 0.12065 0.17902 0.0
H75 H 0.14271 0.04656 0.17394 0.0
H76 H 0.14255 0.08237 0.19002 0.0
H77 H 0.24425 0.1366 0.0674 0.0
H78 H 0.31644 0.17797 0.08599 0.0
H79 H 0.2705 0.14066 0.16864 0.0
H80 H 0.1789 0.02231 0.08313 0.0
H81 H 0.24023 0.0501 0.14379 0.0
H82 H 0.22374 0.99429 0.07688 0.0
H83 H 0.29837 0.10113 0.13487 0.0
H84 H 0.30183 0.10007 0.07088 0.0
H85 H 0.26888 0.09283 0.0331 0.0
H86 H 0.24456 0.1133 0.23215 0.0
H87 H 0.20635 0.05633 0.29987 0.0
H88 H 0.20728 0.04516 0.19195 0.0
Cd89 Cd 0.87957 0.12726 0.98586 0.0
C90 C 0.87644 0.17529 0.96874 0.0
C91 C 0.94885 0.13474 0.14193 0.0
O92 O 0.97074 0.14183 0.14552 0.0
Cd93 Cd 0.82803 0.13297 0.9678 0.0
C94 C 0.93125 0.11211 0.15391 0.0
C95 C 0.89203 0.07137 0.17211 0.0
C96 C 0.89079 0.08953 0.1571 0.0
N97 N 0.91022 0.10848 0.1491 0.0
C98 C 0.93391 0.09477 0.16893 0.0
C99 C 0.91396 0.0742 0.17809 0.0
Co100 Co 0.90768 0.1318 0.12923 0.0
C101 C 0.87052 0.09091 0.14739 0.0
O102 O 0.84959 0.07394 0.15214 0.0
C103 C 0.85755 0.11501 0.11956 0.0
C104 C 0.85098 0.11178 0.08498 0.0
C105 C 0.8352 0.11793 0.07296 0.0
C106 C 0.82669 0.12796 0.09563 0.0
C107 C 0.83407 0.13199 0.12988 0.0
C108 C 0.84854 0.12438 0.14208 0.0
C109 C 0.83095 0.118 0.03598 0.0
C110 C 0.95593 0.16976 0.11185 0.0
C111 C 0.97246 0.17101 0.08861 0.0
C112 C 0.95586 0.18982 0.12059 0.0
C113 C 0.97146 0.21058 0.10553 0.0
C114 C 0.98787 0.21173 0.08259 0.0
C115 C 0.98911 0.19204 0.075 0.0
N116 N 0.94103 0.14857 0.12907 0.0
N117 N 0.87502 0.11078 0.13154 0.0
N118 N 0.90837 0.12241 0.08212 0.0
C119 C 0.90843 0.10215 0.07162 0.0
C120 C 0.92883 0.10323 0.06179 0.0
C121 C 0.88799 0.08121 0.07085 0.0
C122 C 0.92904 0.08338 0.05156 0.0
H123 H 0.94447 0.11956 0.06222 0.0
C124 C 0.90838 0.06241 0.05111 0.0
C125 C 0.88773 0.06116 0.06066 0.0
C126 C 0.95073 0.0845 0.04131 0.0
H127 H 0.87225 0.08058 0.07802 0.0
H128 H 0.90836 0.04702 0.04325 0.0
C129 C 0.86596 0.03899 0.05992 0.0
O130 O 0.9508 0.06534 0.03163 0.0
O131 O 0.96867 0.10274 0.04154 0.0
O132 O 0.84816 0.03783 0.06942 0.0
O133 O 0.86564 0.01992 0.04872 0.0
H134 H 0.96474 0.06568 0.02485 0.0
H135 H 0.85163 0.00533 0.04793 0.0
N136 N 0.90465 0.1549 0.10964 0.0
C137 C 0.90012 0.16757 0.13092 0.0
C138 C 0.89605 0.18428 0.11691 0.0
C139 C 0.89661 0.18654 0.08071 0.0
C140 C 0.90123 0.17231 0.05954 0.0
C141 C 0.90523 0.15609 0.07548 0.0
N142 N 0.90632 0.14531 0.17346 0.0
C143 C 0.90116 0.16223 0.16728 0.0
O144 O 0.9003 0.17501 0.19207 0.0
C145 C 0.90831 0.1381 0.05957 0.0
O146 O 0.85005 0.08933 0.99908 0.0
O147 O 0.87834 0.09169 0.96921 0.0
C148 C 0.91512 0.14392 0.20662 0.0
C149 C 0.90112 0.13817 0.23608 0.0
C150 C 0.91071 0.14119 0.26914 0.0
C151 C 0.93415 0.14922 0.27261 0.0
C152 C 0.94844 0.156 0.2438 0.0
C153 C 0.93878 0.15381 0.21114 0.0
O154 O 0.88621 0.16436 0.95844 0.0
O155 O 0.86115 0.16604 0.99142 0.0
O156 O 0.84628 0.12128 0.01454 0.0
O157 O 0.81267 0.11628 0.02431 0.0
O158 O 0.91155 0.13781 0.02537 0.0
C159 C 0.85915 0.12019 0.90453 0.0
O160 O 0.8416 0.12068 0.9159 0.0
O161 O 0.87588 0.12424 0.92411 0.0
C162 C 0.85892 0.07921 0.98335 0.0
H163 H 0.87674 0.0556 0.17884 0.0
H164 H 0.95069 0.09694 0.17338 0.0
H165 H 0.91548 0.06046 0.18968 0.0
H166 H 0.85866 0.10523 0.06732 0.0
H167 H 0.81582 0.13431 0.08609 0.0
H168 H 0.85454 0.12761 0.16843 0.0
H169 H 0.97303 0.15571 0.08234 0.0
H170 H 0.94459 0.18979 0.14017 0.0
H171 H 0.00041 0.22828 0.07263 0.0
H172 H 0.8925 0.19512 0.13317 0.0
H173 H 0.89334 0.19917 0.0691 0.0
H174 H 0.90127 0.17371 0.03185 0.0
H175 H 0.88312 0.13255 0.23324 0.0
H176 H 0.94155 0.15206 0.29812 0.0
H177 H 0.94997 0.1614 0.18958 0.0
Cd178 Cd 0.86853 0.75188 0.98622 0.0
C179 C 0.82138 0.69883 0.96857 0.0
C180 C 0.86281 0.81572 0.14397 0.0
O181 O 0.85608 0.83077 0.14823 0.0
Cd182 Cd 0.86744 0.69859 0.96872 0.0
C183 C 0.8853 0.82023 0.15573 0.0
C184 C 0.92529 0.82048 0.17474 0.0
C185 C 0.90706 0.8015 0.15903 0.0
N186 N 0.88855 0.80263 0.15041 0.0
C187 C 0.90273 0.83984 0.17145 0.0
C188 C 0.92294 0.83983 0.18094 0.0
Co189 Co 0.86472 0.77692 0.13103 0.0
C190 C 0.90504 0.77952 0.14978 0.0
O191 O 0.9216 0.77498 0.15491 0.0
C192 C 0.88043 0.74264 0.12198 0.0
C193 C 0.88446 0.73961 0.08772 0.0
C194 C 0.87831 0.71777 0.07544 0.0
C195 C 0.86768 0.69899 0.09756 0.0
C196 C 0.86296 0.70202 0.13161 0.0
C197 C 0.87035 0.72401 0.14409 0.0
C198 C 0.87886 0.71405 0.03849 0.0
C199 C 0.82775 0.78876 0.11313 0.0
C200 C 0.82699 0.8048 0.09084 0.0
C201 C 0.80742 0.76859 0.12077 0.0
C202 C 0.78694 0.76403 0.1053 0.0
C203 C 0.78634 0.77992 0.08308 0.0
C204 C 0.80624 0.80091 0.07679 0.0
N205 N 0.84869 0.7943 0.1306 0.0
N206 N 0.88504 0.76445 0.13398 0.0
N207 N 0.87409 0.78632 0.08359 0.0
C208 C 0.89426 0.80659 0.07268 0.0
C209 C 0.89293 0.82551 0.06134 0.0
C210 C 0.91533 0.80737 0.07289 0.0
C211 C 0.91268 0.84548 0.05058 0.0
H212 H 0.87647 0.82455 0.06096 0.0
C213 C 0.9338 0.84611 0.05114 0.0
C214 C 0.93528 0.82708 0.06216 0.0
C215 C 0.9113 0.86564 0.03869 0.0
H216 H 0.91613 0.79254 0.08118 0.0
H217 H 0.94911 0.86141 0.04285 0.0
C218 C 0.9576 0.82776 0.06233 0.0
O219 O 0.93036 0.88478 0.02845 0.0
O220 O 0.89293 0.86507 0.03807 0.0
O221 O 0.95886 0.81127 0.07233 0.0
O222 O 0.97668 0.84662 0.05139 0.0
H223 H 0.92985 0.89811 0.02059 0.0
H224 H 0.99137 0.84739 0.05122 0.0
N225 N 0.84114 0.75086 0.11199 0.0
C226 C 0.82836 0.73398 0.13374 0.0
C227 C 0.81158 0.71305 0.12027 0.0
C228 C 0.80939 0.71083 0.08411 0.0
C229 C 0.8238 0.72928 0.06241 0.0
C230 C 0.84007 0.74971 0.07781 0.0
N231 N 0.85123 0.76272 0.17551 0.0
C232 C 0.8339 0.74076 0.16993 0.0
O233 O 0.82113 0.72755 0.19511 0.0
C234 C 0.85831 0.77037 0.06132 0.0
O235 O 0.90616 0.75856 0.99685 0.0
O236 O 0.90458 0.78609 0.97045 0.0
C237 C 0.85327 0.77336 0.20841 0.0
C238 C 0.86006 0.76584 0.23757 0.0
C239 C 0.85752 0.77265 0.2707 0.0
C240 C 0.84875 0.78742 0.27454 0.0
C241 C 0.84105 0.79428 0.24599 0.0
C242 C 0.84302 0.78677 0.21322 0.0
O243 O 0.83194 0.71978 0.95926 0.0
O244 O 0.83109 0.69217 0.98954 0.0
O245 O 0.87537 0.72619 0.01753 0.0
O246 O 0.88227 0.69866 0.02628 0.0
O247 O 0.85853 0.77354 0.02694 0.0
C248 C 0.87652 0.74085 0.90464 0.0
O249 O 0.87766 0.72369 0.91614 0.0
O250 O 0.87126 0.75263 0.92424 0.0
C251 C 0.91668 0.77812 0.98281 0.0
H252 H 0.9407 0.8204 0.18201 0.0
H253 H 0.90084 0.85458 0.17634 0.0
H254 H 0.93671 0.85475 0.19314 0.0
H255 H 0.89165 0.75407 0.0704 0.0
H256 H 0.86153 0.68189 0.08766 0.0
H257 H 0.86667 0.72656 0.17029 0.0
H258 H 0.8424 0.82081 0.08552 0.0
H259 H 0.80697 0.75686 0.13986 0.0
H260 H 0.77003 0.77635 0.07264 0.0
H261 H 0.80069 0.69891 0.13692 0.0
H262 H 0.79673 0.69477 0.07293 0.0
H263 H 0.82255 0.72743 0.03474 0.0
H264 H 0.8661 0.75381 0.23453 0.0
H265 H 0.84626 0.79208 0.30019 0.0
H266 H 0.83508 0.79008 0.19175 0.0
Cd267 Cd 0.11456 0.24367 0.5254 0.0
C268 C 0.11785 0.2949 0.54377 0.0
C269 C 0.04453 0.18166 0.36797 0.0
O270 O 0.0227 0.16659 0.36453 0.0
Cd271 Cd 0.16597 0.30078 0.54322 0.0
C272 C 0.06232 0.17694 0.35595 0.0
C273 C 0.10181 0.17634 0.33651 0.0
C274 C 0.10281 0.19521 0.35295 0.0
N275 N 0.08327 0.19425 0.36173 0.0
C276 C 0.05989 0.15744 0.33951 0.0
C277 C 0.07999 0.15727 0.3298 0.0
Co278 Co 0.08547 0.21993 0.38168 0.0
C279 C 0.12293 0.21697 0.36271 0.0
O280 O 0.14394 0.22136 0.35732 0.0
C281 C 0.13553 0.25379 0.3911 0.0
C282 C 0.14246 0.25695 0.42553 0.0
C283 C 0.15823 0.27885 0.43767 0.0
C284 C 0.16648 0.29749 0.41526 0.0
C285 C 0.15868 0.29438 0.38125 0.0
C286 C 0.14414 0.27237 0.36886 0.0
C287 C 0.16265 0.28303 0.47462 0.0
C288 C 0.03697 0.20852 0.40018 0.0
C289 C 0.02041 0.19239 0.42264 0.0
C290 C 0.03691 0.22885 0.39348 0.0
C291 C 0.02133 0.23345 0.40999 0.0
C292 C 0.00503 0.21743 0.43229 0.0
C293 C 0.00382 0.19628 0.43766 0.0
N294 N 0.05206 0.203 0.38176 0.0
N295 N 0.11821 0.23202 0.37908 0.0
N296 N 0.0851 0.20998 0.4288 0.0
C297 C 0.08513 0.18969 0.43927 0.0
C298 C 0.06491 0.17059 0.45024 0.0
C299 C 0.10552 0.18909 0.43915 0.0
C300 C 0.06481 0.15061 0.46066 0.0
H301 H 0.04934 0.17142 0.45063 0.0
C302 C 0.08539 0.15016 0.46012 0.0
C303 C 0.10588 0.16937 0.44949 0.0
C304 C 0.0433 0.13029 0.47221 0.0
H305 H 0.12115 0.20408 0.43125 0.0
H306 H 0.08549 0.13485 0.46813 0.0
C307 C 0.1276 0.16886 0.44934 0.0
O308 O 0.04334 0.11115 0.48217 0.0
O309 O 0.02544 0.13072 0.47283 0.0
O310 O 0.14533 0.1855 0.43962 0.0
O311 O 0.12794 0.15 0.45996 0.0
H312 H 0.02953 0.09772 0.48982 0.0
H313 H 0.14192 0.14934 0.46014 0.0
N314 N 0.08821 0.24594 0.40124 0.0
C315 C 0.09239 0.26302 0.37985 0.0
C316 C 0.09653 0.28383 0.39378 0.0
C317 C 0.09642 0.2857 0.42999 0.0
C318 C 0.09219 0.267 0.45128 0.0
C319 C 0.08808 0.24672 0.43543 0.0
N320 N 0.08649 0.23458 0.33756 0.0
C321 C 0.09115 0.2565 0.34352 0.0
O322 O 0.09182 0.26997 0.31857 0.0
C323 C 0.08536 0.22578 0.45141 0.0
O324 O 0.1449 0.23638 0.51261 0.0
O325 O 0.11674 0.20976 0.54181 0.0
C326 C 0.07848 0.22425 0.30433 0.0
C327 C 0.09341 0.23192 0.27584 0.0
C328 C 0.08479 0.22514 0.24233 0.0
C329 C 0.06134 0.21042 0.23751 0.0
C330 C 0.04624 0.20349 0.2653 0.0
C331 C 0.05489 0.21074 0.29849 0.0
O332 O 0.10828 0.27411 0.55365 0.0
O333 O 0.13288 0.30119 0.52062 0.0
O334 O 0.14742 0.27088 0.49611 0.0
O335 O 0.18095 0.29958 0.48626 0.0
O336 O 0.08249 0.22235 0.4857 0.0
C337 C 0.13465 0.2573 0.60701 0.0
O338 O 0.15224 0.27532 0.59566 0.0
O339 O 0.11809 0.24446 0.58727 0.0
C340 C 0.13637 0.2173 0.52806 0.0
H341 H 0.1172 0.17628 0.32902 0.0
H342 H 0.04319 0.14295 0.33419 0.0
H343 H 0.07865 0.14244 0.31702 0.0
H344 H 0.13507 0.24259 0.443 0.0
H345 H 0.17748 0.31464 0.42495 0.0
H346 H 0.13791 0.26977 0.34266 0.0
H347 H 0.01977 0.17629 0.4273 0.0
H348 H 0.04805 0.24073 0.3744 0.0
H349 H 0.99251 0.22103 0.44349 0.0
H350 H 0.09986 0.29813 0.37745 0.0
H351 H 0.09979 0.30165 0.44153 0.0
H352 H 0.09256 0.26853 0.47898 0.0
H353 H 0.11142 0.24388 0.27971 0.0
H354 H 0.05465 0.20537 0.21167 0.0
H355 H 0.04303 0.20753 0.31915 0.0
Cd356 Cd 0.7502 0.86939 0.52649 0.0
C357 C 0.69806 0.82171 0.54266 0.0
C358 C 0.81249 0.86127 0.37134 0.0
O359 O 0.82721 0.85401 0.36871 0.0
Cd360 Cd 0.69401 0.86548 0.54359 0.0
C361 C 0.81796 0.88402 0.35929 0.0
C362 C 0.82023 0.92503 0.34056 0.0
C363 C 0.80065 0.90711 0.35558 0.0
N364 N 0.80079 0.88803 0.36389 0.0
C365 C 0.83813 0.9011 0.34428 0.0
C366 C 0.83912 0.92182 0.33486 0.0
Co367 Co 0.77463 0.86494 0.38343 0.0
C368 C 0.77911 0.90609 0.36489 0.0
O369 O 0.77547 0.92324 0.35981 0.0
C370 C 0.74181 0.8824 0.39231 0.0
C371 C 0.73835 0.88572 0.42678 0.0
C372 C 0.71641 0.87979 0.43848 0.0
C373 C 0.69798 0.8699 0.41561 0.0
C374 C 0.70145 0.86579 0.38147 0.0
C375 C 0.72354 0.87317 0.36956 0.0
C376 C 0.71196 0.87976 0.47537 0.0
C377 C 0.78409 0.82657 0.4015 0.0
C378 C 0.79911 0.82529 0.42521 0.0
C379 C 0.76393 0.80656 0.39268 0.0
C380 C 0.75854 0.78581 0.40804 0.0
C381 C 0.77362 0.78462 0.43132 0.0
C382 C 0.79458 0.80426 0.439 0.0
N383 N 0.79072 0.8477 0.38388 0.0
N384 N 0.76347 0.88634 0.38073 0.0
N385 N 0.78447 0.87417 0.43069 0.0
C386 C 0.80483 0.89431 0.4415 0.0
C387 C 0.82382 0.89293 0.45232 0.0
C388 C 0.80561 0.91539 0.44182 0.0
C389 C 0.84384 0.91263 0.46307 0.0
H390 H 0.82288 0.87649 0.45231 0.0
C391 C 0.84447 0.93375 0.46303 0.0
C392 C 0.82538 0.93529 0.4525 0.0
C393 C 0.86406 0.91119 0.47443 0.0
H394 H 0.79074 0.91626 0.43398 0.0
H395 H 0.85981 0.94902 0.47128 0.0
C396 C 0.82608 0.95762 0.45281 0.0
O397 O 0.88326 0.9302 0.48462 0.0
O398 O 0.86348 0.89281 0.47467 0.0
O399 O 0.80969 0.95901 0.44268 0.0
O400 O 0.84484 0.97657 0.46431 0.0
H401 H 0.89663 0.92965 0.49214 0.0
H402 H 0.84561 0.99125 0.46483 0.0
N403 N 0.74821 0.84206 0.40269 0.0
C404 C 0.73115 0.82943 0.38116 0.0
C405 C 0.71023 0.8128 0.39489 0.0
C406 C 0.70827 0.81053 0.43106 0.0
C407 C 0.727 0.82465 0.45251 0.0
C408 C 0.74738 0.8408 0.43684 0.0
N409 N 0.75997 0.85162 0.33909 0.0
C410 C 0.73783 0.83475 0.34491 0.0
O411 O 0.72429 0.82214 0.31991 0.0
C412 C 0.76845 0.85857 0.45304 0.0
O413 O 0.75883 0.90742 0.51361 0.0
O414 O 0.78459 0.90481 0.54355 0.0
C415 C 0.7702 0.85376 0.30578 0.0
C416 C 0.76156 0.85966 0.27691 0.0
C417 C 0.76794 0.85715 0.24347 0.0
C418 C 0.78353 0.84947 0.23903 0.0
C419 C 0.7914 0.84252 0.26718 0.0
C420 C 0.78435 0.84434 0.30031 0.0
O421 O 0.7188 0.8324 0.55287 0.0
O422 O 0.69192 0.83126 0.5206 0.0
O423 O 0.7237 0.87614 0.49696 0.0
O424 O 0.69572 0.88209 0.48686 0.0
O425 O 0.77172 0.85874 0.4873 0.0
C426 C 0.7368 0.87625 0.60778 0.0
O427 O 0.71921 0.87652 0.59611 0.0
O428 O 0.74932 0.8719 0.58831 0.0
C429 C 0.77781 0.91741 0.52939 0.0
H430 H 0.82099 0.9409 0.33357 0.0
H431 H 0.85255 0.89861 0.33996 0.0
H432 H 0.8545 0.93535 0.32325 0.0
H433 H 0.75247 0.89214 0.44464 0.0
H434 H 0.68075 0.86371 0.42494 0.0
H435 H 0.72637 0.86984 0.3433 0.0
H436 H 0.81498 0.84056 0.4316 0.0
H437 H 0.75286 0.80661 0.37282 0.0
H438 H 0.76948 0.76807 0.44142 0.0
H439 H 0.69594 0.80201 0.37841 0.0
H440 H 0.69225 0.79795 0.44245 0.0
H441 H 0.72544 0.82322 0.48018 0.0
H442 H 0.74896 0.86493 0.28048 0.0
H443 H 0.78831 0.84736 0.21325 0.0
H444 H 0.78804 0.83622 0.32117 0.0
Cd445 Cd 0.12963 0.88457 0.5283 0.0
C446 C 0.17849 0.88501 0.54851 0.0
C447 C 0.13329 0.95037 0.37062 0.0
O448 O 0.13986 0.97212 0.36663 0.0
Cd449 Cd 0.14074 0.83557 0.54777 0.0
C450 C 0.11057 0.93224 0.35982 0.0
C451 C 0.07011 0.89217 0.34347 0.0
C452 C 0.08876 0.89167 0.3581 0.0
N453 N 0.10751 0.91147 0.36529 0.0
C454 C 0.09271 0.93417 0.34514 0.0
C455 C 0.07228 0.91378 0.33694 0.0
Co456 Co 0.13156 0.9099 0.38434 0.0
C457 C 0.0909 0.87186 0.36815 0.0
O458 O 0.07424 0.85069 0.36421 0.0
C459 C 0.11619 0.86022 0.39572 0.0
C460 C 0.11445 0.85468 0.43071 0.0
C461 C 0.12159 0.83964 0.44277 0.0
C462 C 0.13096 0.83075 0.41956 0.0
C463 C 0.13354 0.83712 0.38485 0.0
C464 C 0.12508 0.85092 0.37283 0.0
C465 C 0.12316 0.83638 0.47985 0.0
C466 C 0.16923 0.95848 0.39881 0.0
C467 C 0.17077 0.97485 0.42251 0.0
C468 C 0.18919 0.95868 0.38855 0.0
C469 C 0.21022 0.97436 0.40277 0.0
C470 C 0.21166 0.99054 0.42639 0.0
C471 C 0.19201 0.99149 0.43543 0.0
N472 N 0.14767 0.94314 0.38308 0.0
N473 N 0.11112 0.87709 0.38354 0.0
N474 N 0.12306 0.91122 0.43178 0.0
C475 C 0.10264 0.91071 0.44299 0.0
C476 C 0.10324 0.93086 0.453 0.0
C477 C 0.08197 0.88999 0.44389 0.0
C478 C 0.08317 0.93052 0.46353 0.0
H479 H 0.11937 0.94673 0.45241 0.0
C480 C 0.06245 0.9096 0.46393 0.0
C481 C 0.06168 0.88922 0.4541 0.0
C482 C 0.08376 0.95193 0.47402 0.0
H483 H 0.08174 0.87443 0.4368 0.0
H484 H 0.04688 0.90918 0.47186 0.0
C485 C 0.03974 0.86721 0.45443 0.0
O486 O 0.06437 0.95148 0.48385 0.0
O487 O 0.10177 0.9701 0.47386 0.0
O488 O 0.03884 0.8498 0.4436 0.0
O489 O 0.02058 0.86627 0.46665 0.0
H490 H 0.06436 0.96522 0.4908 0.0
H491 H 0.00613 0.85208 0.4672 0.0
N492 N 0.15541 0.90783 0.4031 0.0
C493 C 0.16786 0.90325 0.38143 0.0
C494 C 0.18524 0.90001 0.39487 0.0
C495 C 0.1884 0.90146 0.43093 0.0
C496 C 0.17438 0.90611 0.45254 0.0
C497 C 0.15743 0.90922 0.43717 0.0
N498 N 0.14435 0.90821 0.33966 0.0
C499 C 0.16162 0.90347 0.34528 0.0
O500 O 0.17409 0.90257 0.32002 0.0
C501 C 0.13951 0.91215 0.4537 0.0
O502 O 0.09208 0.85481 0.51411 0.0
O503 O 0.09372 0.88315 0.54296 0.0
C504 C 0.14253 0.91691 0.30663 0.0
C505 C 0.13591 0.90256 0.27758 0.0
C506 C 0.13895 0.91185 0.24434 0.0
C507 C 0.14782 0.93538 0.24016 0.0
C508 C 0.15519 0.95005 0.26858 0.0
C509 C 0.15295 0.94062 0.30152 0.0
O510 O 0.16657 0.89364 0.55897 0.0
O511 O 0.17057 0.87111 0.52383 0.0
O512 O 0.12578 0.85164 0.501 0.0
O513 O 0.12358 0.81916 0.49179 0.0
O514 O 0.13987 0.91599 0.48782 0.0
C515 C 0.12312 0.86338 0.61004 0.0
O516 O 0.12588 0.84694 0.59952 0.0
O517 O 0.12545 0.87927 0.58983 0.0
C518 C 0.08159 0.86365 0.52885 0.0
H519 H 0.05447 0.87657 0.33741 0.0
H520 H 0.0944 0.9507 0.34017 0.0
H521 H 0.05815 0.91473 0.32561 0.0
H522 H 0.10828 0.86262 0.44855 0.0
H523 H 0.1379 0.82034 0.42886 0.0
H524 H 0.12726 0.85621 0.34614 0.0
H525 H 0.15552 0.97524 0.42981 0.0
H526 H 0.18883 0.9475 0.36856 0.0
H527 H 0.22835 0.00315 0.43578 0.0
H528 H 0.19594 0.89647 0.37827 0.0
H529 H 0.20159 0.89886 0.4421 0.0
H530 H 0.1765 0.90685 0.48015 0.0
H531 H 0.12975 0.88447 0.28082 0.0
H532 H 0.15058 0.94241 0.2144 0.0
H533 H 0.16079 0.95198 0.32283 0.0
Cd534 Cd 0.75046 0.88205 0.0278 0.0
C535 C 0.70733 0.88182 0.05017 0.0
C536 C 0.81338 0.94889 0.87017 0.0
O537 O 0.82879 0.97065 0.8673 0.0
Cd538 Cd 0.68656 0.82484 0.04887 0.0
C539 C 0.81782 0.93083 0.85846 0.0
C540 C 0.81795 0.89089 0.84025 0.0
C541 C 0.79886 0.89028 0.85529 0.0
N542 N 0.80004 0.91002 0.86338 0.0
C543 C 0.83755 0.93286 0.84341 0.0
C544 C 0.83746 0.91254 0.83427 0.0
Co545 Co 0.77449 0.90832 0.88287 0.0
C546 C 0.77683 0.87038 0.86483 0.0
O547 O 0.77222 0.84925 0.86004 0.0
C548 C 0.73989 0.85843 0.89265 0.0
C549 C 0.73634 0.85196 0.92729 0.0
C550 C 0.71419 0.83683 0.93948 0.0
C551 C 0.69573 0.82866 0.91671 0.0
C552 C 0.69931 0.83581 0.88232 0.0
C553 C 0.7215 0.84979 0.87011 0.0
C554 C 0.70983 0.83326 0.97664 0.0
C555 C 0.78566 0.95689 0.89903 0.0
C556 C 0.80062 0.97324 0.92273 0.0
C557 C 0.76589 0.95719 0.8891 0.0
C558 C 0.76061 0.97282 0.90365 0.0
C559 C 0.77544 0.98892 0.92726 0.0
C560 C 0.7961 0.98988 0.93594 0.0
N561 N 0.79181 0.94162 0.88279 0.0
N562 N 0.76186 0.87546 0.88066 0.0
N563 N 0.78422 0.90871 0.93013 0.0
C564 C 0.80435 0.90846 0.94088 0.0
C565 C 0.82356 0.92859 0.95184 0.0
C566 C 0.80472 0.88795 0.9408 0.0
C567 C 0.84341 0.92847 0.96234 0.0
H568 H 0.82294 0.94427 0.95207 0.0
C569 C 0.84365 0.90777 0.96178 0.0
C570 C 0.82436 0.8874 0.95101 0.0
C571 C 0.86386 0.94986 0.97388 0.0
H572 H 0.78961 0.87238 0.93303 0.0
H573 H 0.85888 0.90751 0.96972 0.0
C574 C 0.82475 0.86562 0.95046 0.0
O575 O 0.88288 0.9496 0.98386 0.0
O576 O 0.86364 0.96783 0.97446 0.0
O577 O 0.8085 0.84824 0.93901 0.0
O578 O 0.84308 0.86485 0.96259 0.0
H579 H 0.89639 0.96334 0.9915 0.0
H580 H 0.84364 0.85082 0.96258 0.0
N581 N 0.74865 0.90612 0.90208 0.0
C582 C 0.73168 0.90201 0.88051 0.0
C583 C 0.71101 0.89843 0.8942 0.0
C584 C 0.70915 0.89901 0.93036 0.0
C585 C 0.72773 0.90316 0.95184 0.0
C586 C 0.7479 0.90671 0.93624 0.0
N587 N 0.76019 0.90754 0.8385 0.0
C588 C 0.73824 0.9029 0.84424 0.0
O589 O 0.72495 0.90241 0.81916 0.0
C590 C 0.7687 0.90924 0.95248 0.0
O591 O 0.76423 0.85746 0.00998 0.0
O592 O 0.7849 0.88244 0.04893 0.0
C593 C 0.77075 0.91602 0.80546 0.0
C594 C 0.76283 0.90147 0.7766 0.0
C595 C 0.7692 0.91049 0.74325 0.0
C596 C 0.78396 0.93393 0.73877 0.0
C597 C 0.79133 0.94878 0.76692 0.0
C598 C 0.78441 0.93973 0.80009 0.0
O599 O 0.72644 0.90017 0.04871 0.0
O600 O 0.70763 0.86425 0.04101 0.0
O601 O 0.72256 0.84891 0.99715 0.0
O602 O 0.69208 0.81611 0.98882 0.0
O603 O 0.77244 0.91292 0.98663 0.0
C604 C 0.72997 0.85224 0.10955 0.0
O605 O 0.71153 0.83408 0.10071 0.0
O606 O 0.74207 0.86797 0.08792 0.0
C607 C 0.78108 0.86519 0.03056 0.0
H608 H 0.81788 0.87533 0.83344 0.0
H609 H 0.85244 0.94942 0.83884 0.0
H610 H 0.85249 0.91356 0.82263 0.0
H611 H 0.75063 0.85934 0.94487 0.0
H612 H 0.67844 0.81823 0.92623 0.0
H613 H 0.72442 0.85565 0.84368 0.0
H614 H 0.8163 0.97362 0.92979 0.0
H615 H 0.75504 0.94617 0.86901 0.0
H616 H 0.77139 0.0015 0.93688 0.0
H617 H 0.69681 0.89522 0.87771 0.0
H618 H 0.6933 0.89608 0.94172 0.0
H619 H 0.72618 0.90312 0.97948 0.0
H620 H 0.75073 0.88345 0.78008 0.0
H621 H 0.78868 0.94081 0.71296 0.0
H622 H 0.78795 0.95141 0.8211 0.0
Cd623 Cd 0.11425 0.86822 0.02887 0.0
C624 C 0.11382 0.81899 0.04846 0.0
C625 C 0.04705 0.86266 0.87116 0.0
O626 O 0.0252 0.8556 0.86693 0.0
Cd627 Cd 0.16326 0.85775 0.0472 0.0
C628 C 0.06483 0.88548 0.8601 0.0
C629 C 0.10434 0.92637 0.84337 0.0
C630 C 0.10534 0.90809 0.85845 0.0
N631 N 0.08578 0.8891 0.86575 0.0
C632 C 0.0624 0.90294 0.84498 0.0
C633 C 0.08251 0.92358 0.83658 0.0
Co634 Co 0.08801 0.86547 0.88512 0.0
C635 C 0.12545 0.90655 0.86866 0.0
O636 O 0.14647 0.92346 0.86436 0.0
C637 C 0.13789 0.88177 0.89578 0.0
C638 C 0.14369 0.88355 0.93063 0.0
C639 C 0.1587 0.87629 0.94231 0.0
C640 C 0.16725 0.8667 0.91889 0.0
C641 C 0.16061 0.86409 0.8843 0.0
C642 C 0.14698 0.87284 0.8726 0.0
C643 C 0.16211 0.87473 0.9793 0.0
C644 C 0.03961 0.82722 0.90028 0.0
C645 C 0.02292 0.8256 0.9235 0.0
C646 C 0.03979 0.80733 0.89079 0.0
C647 C 0.02422 0.78635 0.90526 0.0
C648 C 0.00772 0.78483 0.92832 0.0
C649 C 0.00634 0.80436 0.93658 0.0
N650 N 0.05469 0.84871 0.88399 0.0
N651 N 0.12069 0.8865 0.88417 0.0
N652 N 0.08652 0.87408 0.9324 0.0
C653 C 0.08665 0.89437 0.94328 0.0
C654 C 0.06622 0.89357 0.95209 0.0
C655 C 0.10727 0.91509 0.94499 0.0
C656 C 0.06618 0.9135 0.96228 0.0
H657 H 0.05043 0.87739 0.95084 0.0
C658 C 0.08701 0.93429 0.9636 0.0
C659 C 0.10767 0.93525 0.95499 0.0
C660 C 0.04447 0.9127 0.97149 0.0
H661 H 0.12301 0.91547 0.93861 0.0
H662 H 0.08715 0.94975 0.97132 0.0
C663 C 0.1296 0.95725 0.95637 0.0
O664 O 0.04455 0.93196 0.98103 0.0
O665 O 0.02638 0.89462 0.97051 0.0
O666 O 0.14737 0.95824 0.94714 0.0
O667 O 0.13008 0.97635 0.96781 0.0
H668 H 0.03061 0.93182 0.98715 0.0
H669 H 0.14419 0.99083 0.96901 0.0
N670 N 0.09069 0.84205 0.90422 0.0
C671 C 0.09537 0.82959 0.88272 0.0
C672 C 0.09882 0.8124 0.89641 0.0
C673 C 0.0975 0.80945 0.93251 0.0
C674 C 0.09273 0.82347 0.95392 0.0
C675 C 0.08937 0.8402 0.93832 0.0
N676 N 0.09009 0.85271 0.84062 0.0
C677 C 0.09498 0.83558 0.84646 0.0
O678 O 0.09611 0.82315 0.82136 0.0
C679 C 0.08614 0.85801 0.9546 0.0
O680 O 0.14446 0.90591 0.01588 0.0
O681 O 0.11601 0.90422 0.04444 0.0
C682 C 0.08157 0.85455 0.80747 0.0
C683 C 0.09601 0.86157 0.77845 0.0
C684 C 0.08682 0.85942 0.74524 0.0
C685 C 0.06329 0.85081 0.7413 0.0
C686 C 0.0486 0.84283 0.76965 0.0
C687 C 0.05792 0.84424 0.80237 0.0
O688 O 0.10556 0.83124 0.05901 0.0
O689 O 0.12805 0.82682 0.02416 0.0
O690 O 0.14694 0.87213 1.0006 0.0
O691 O 0.17948 0.87451 0.99103 0.0
O692 O 0.08258 0.85793 0.98877 0.0
C693 C 0.1354 0.87483 0.11004 0.0
O694 O 0.15212 0.87277 0.09884 0.0
O695 O 0.11896 0.87171 0.09047 0.0
C696 C 0.13568 0.91638 0.03085 0.0
H697 H 0.11973 0.94217 0.83712 0.0
H698 H 0.0457 0.90078 0.83982 0.0
H699 H 0.08118 0.9374 0.82488 0.0
H700 H 0.13589 0.88974 0.9487 0.0
H701 H 0.17751 0.85953 0.92799 0.0
H702 H 0.14146 0.87063 0.84603 0.0
H703 H 0.02223 0.84077 0.93025 0.0
H704 H 0.05116 0.80769 0.87113 0.0
H705 H 0.99521 0.76814 0.93785 0.0
H706 H 0.10242 0.80167 0.87996 0.0
H707 H 0.10026 0.79641 0.94386 0.0
H708 H 0.09202 0.82149 0.98155 0.0
H709 H 0.11409 0.86771 0.78165 0.0
H710 H 0.05623 0.84869 0.71565 0.0
H711 H 0.04656 0.83596 0.82352 0.0
Cd712 Cd 0.12651 0.24202 0.02558 0.0
C713 C 0.1754 0.29084 0.04504 0.0
C714 C 0.13231 0.18024 0.86724 0.0
O715 O 0.13837 0.16465 0.86358 0.0
Cd716 Cd 0.13734 0.30233 0.04477 0.0
C717 C 0.10997 0.17628 0.85562 0.0
C718 C 0.07041 0.17713 0.83734 0.0
C719 C 0.08879 0.19568 0.85357 0.0
N720 N 0.10707 0.19403 0.86172 0.0
C721 C 0.09236 0.15707 0.83937 0.0
C722 C 0.07237 0.15764 0.83024 0.0
Co723 Co 0.13109 0.21918 0.88179 0.0
C724 C 0.09119 0.21769 0.86391 0.0
O725 O 0.07496 0.22273 0.85914 0.0
C726 C 0.11642 0.25412 0.89273 0.0
C727 C 0.1133 0.25738 0.92744 0.0
C728 C 0.12001 0.27939 0.93983 0.0
C729 C 0.13031 0.298 0.91732 0.0
C730 C 0.1343 0.29478 0.88302 0.0
C731 C 0.12633 0.27271 0.8705 0.0
C732 C 0.12029 0.28372 0.9769 0.0
C733 C 0.16745 0.20651 0.8986 0.0
C734 C 0.16773 0.19034 0.92115 0.0
C735 C 0.18801 0.22651 0.89123 0.0
C736 C 0.20823 0.23085 0.90732 0.0
C737 C 0.20835 0.21487 0.92988 0.0
C738 C 0.18822 0.19402 0.93589 0.0
N739 N 0.14671 0.20144 0.88097 0.0
N740 N 0.1112 0.2322 0.88022 0.0
N741 N 0.12158 0.20899 0.92882 0.0
C742 C 0.10094 0.18902 0.9392 0.0
C743 C 0.10137 0.16944 0.94957 0.0
C744 C 0.08033 0.18919 0.93951 0.0
C745 C 0.08117 0.14975 0.95981 0.0
H746 H 0.11748 0.16967 0.94961 0.0
C747 C 0.06049 0.15004 0.95962 0.0
C748 C 0.05992 0.16973 0.94955 0.0
C749 C 0.08161 0.12893 0.97081 0.0
H750 H 0.08025 0.20456 0.93216 0.0
H751 H 0.04484 0.13495 0.96743 0.0
C752 C 0.03806 0.16997 0.94962 0.0
O753 O 0.06213 0.11007 0.98058 0.0
O754 O 0.09959 0.12871 0.97114 0.0
O755 O 0.03753 0.18694 0.94005 0.0
O756 O 0.01858 0.15143 0.96024 0.0
H757 H 0.06203 0.09633 0.98787 0.0
H758 H 0.00417 0.15125 0.96055 0.0
N759 N 0.15491 0.24466 0.90151 0.0
C760 C 0.16799 0.26178 0.88031 0.0
C761 C 0.18519 0.28224 0.89444 0.0
C762 C 0.18749 0.28371 0.93064 0.0
C763 C 0.1728 0.26499 0.95172 0.0
C764 C 0.15607 0.2451 0.93569 0.0
N765 N 0.14474 0.23394 0.83773 0.0
C766 C 0.16238 0.25565 0.84392 0.0
O767 O 0.17531 0.26909 0.81906 0.0
C768 C 0.13753 0.2243 0.95148 0.0
O769 O 0.08893 0.2347 0.01164 0.0
O770 O 0.09022 0.20851 0.04239 0.0
C771 C 0.1423 0.22368 0.80439 0.0
C772 C 0.13541 0.23176 0.77596 0.0
C773 C 0.1373 0.22512 0.74237 0.0
C774 C 0.14565 0.21011 0.73738 0.0
C775 C 0.15347 0.20276 0.76511 0.0
C776 C 0.15205 0.20987 0.79839 0.0
O777 O 0.16381 0.27012 0.05501 0.0
O778 O 0.16724 0.29687 0.02073 0.0
O779 O 0.12269 0.2711 0.99836 0.0
O780 O 0.12027 0.3012 0.98857 0.0
O781 O 0.13688 0.2206 0.98569 0.0
C782 C 0.1212 0.25731 0.10746 0.0
O783 O 0.12351 0.2763 0.09672 0.0
O784 O 0.12346 0.2437 0.0873 0.0
C785 C 0.07826 0.21595 0.02794 0.0
H786 H 0.05516 0.17761 0.83038 0.0
H787 H 0.09395 0.14224 0.83381 0.0
H788 H 0.05847 0.14304 0.81763 0.0
H789 H 0.10631 0.24298 0.94486 0.0
H790 H 0.1368 0.3152 0.92703 0.0
H791 H 0.12943 0.27002 0.84404 0.0
H792 H 0.15214 0.17446 0.92625 0.0
H793 H 0.18878 0.23834 0.87202 0.0
H794 H 0.22447 0.21826 0.94084 0.0
H795 H 0.19636 0.29655 0.87826 0.0
H796 H 0.20051 0.29937 0.94234 0.0
H797 H 0.17424 0.2662 0.97942 0.0
H798 H 0.1297 0.24398 0.77991 0.0
H799 H 0.14732 0.2052 0.71146 0.0
H800 H 0.16048 0.20633 0.81902 0.0
Cd801 Cd 0.88204 0.75414 0.48735 0.0
C802 C 0.87935 0.70332 0.46893 0.0
C803 C 0.95245 0.81742 0.64295 0.0
O804 O 0.97428 0.8327 0.6456 0.0
Cd805 Cd 0.831 0.69688 0.47028 0.0
C806 C 0.93458 0.82202 0.6551 0.0
C807 C 0.89493 0.82232 0.67462 0.0
C808 C 0.89406 0.80328 0.65897 0.0
N809 N 0.91367 0.80438 0.65024 0.0
C810 C 0.93686 0.84169 0.67074 0.0
C811 C 0.91668 0.84169 0.68052 0.0
Co812 Co 0.91165 0.77871 0.63062 0.0
C813 C 0.87404 0.78127 0.6497 0.0
O814 O 0.85297 0.77669 0.65513 0.0
C815 C 0.86184 0.74427 0.62201 0.0
C816 C 0.85484 0.74078 0.58764 0.0
C817 C 0.83914 0.71877 0.57588 0.0
C818 C 0.83099 0.70031 0.59864 0.0
C819 C 0.83878 0.70371 0.63272 0.0
C820 C 0.85341 0.72589 0.64459 0.0
C821 C 0.83456 0.7144 0.53898 0.0
C822 C 0.96002 0.78971 0.61322 0.0
C823 C 0.97576 0.80451 0.58874 0.0
C824 C 0.9609 0.77029 0.6234 0.0
C825 C 0.97642 0.7651 0.60822 0.0
C826 C 0.99192 0.77976 0.58381 0.0
C827 C 0.99241 0.80019 0.57499 0.0
N828 N 0.94496 0.79587 0.63012 0.0
N829 N 0.87893 0.76624 0.63366 0.0
N830 N 0.91161 0.78835 0.58342 0.0
C831 C 0.91103 0.80835 0.57285 0.0
C832 C 0.93107 0.82783 0.5623 0.0
C833 C 0.89033 0.80834 0.57267 0.0
C834 C 0.93065 0.84754 0.55189 0.0
H835 H 0.94691 0.82751 0.5623 0.0
C836 C 0.90974 0.84736 0.55202 0.0
C837 C 0.88946 0.82779 0.56232 0.0
C838 C 0.95196 0.86827 0.54079 0.0
H839 H 0.87488 0.79312 0.58041 0.0
H840 H 0.90925 0.86246 0.54402 0.0
C841 C 0.8674 0.82765 0.56213 0.0
O842 O 0.95143 0.88716 0.53089 0.0
O843 O 0.97011 0.86839 0.54051 0.0
O844 O 0.84989 0.81079 0.57189 0.0
O845 O 0.86653 0.84617 0.55115 0.0
H846 H 0.9651 0.90085 0.52355 0.0
H847 H 0.85233 0.8464 0.55073 0.0
N848 N 0.90926 0.75282 0.61124 0.0
C849 C 0.90649 0.7363 0.63279 0.0
C850 C 0.90424 0.71615 0.61901 0.0
C851 C 0.90454 0.71427 0.58281 0.0
C852 C 0.9073 0.73239 0.56136 0.0
C853 C 0.90975 0.75211 0.57706 0.0
N854 N 0.9112 0.7645 0.67482 0.0
C855 C 0.90778 0.74298 0.66909 0.0
O856 O 0.90906 0.73052 0.69403 0.0
C857 C 0.91176 0.7727 0.56092 0.0
O858 O 0.85137 0.7609 0.50063 0.0
O859 O 0.87924 0.78775 0.47131 0.0
C860 C 0.91886 0.77509 0.70796 0.0
C861 C 0.90384 0.76711 0.73631 0.0
C862 C 0.91228 0.7739 0.76991 0.0
C863 C 0.93566 0.78883 0.77495 0.0
C864 C 0.95086 0.79605 0.74726 0.0
C865 C 0.94237 0.78897 0.71397 0.0
O866 O 0.88868 0.72402 0.45871 0.0
O867 O 0.86458 0.69716 0.49244 0.0
O868 O 0.84957 0.72668 0.51729 0.0
O869 O 0.81626 0.69774 0.52757 0.0
O870 O 0.91434 0.77599 0.52656 0.0
C871 C 0.8611 0.74066 0.40628 0.0
O872 O 0.84375 0.72256 0.41797 0.0
O873 O 0.87796 0.75348 0.42557 0.0
C874 C 0.85963 0.77997 0.48521 0.0
H875 H 0.87948 0.82229 0.68203 0.0
H876 H 0.95351 0.85645 0.67534 0.0
H877 H 0.91791 0.85666 0.69266 0.0
H878 H 0.86208 0.755 0.56991 0.0
H879 H 0.82027 0.6831 0.589 0.0
H880 H 0.85929 0.72882 0.67101 0.0
H881 H 0.97578 0.82 0.58168 0.0
H882 H 0.9505 0.7597 0.64418 0.0
H883 H 0.0045 0.77584 0.57381 0.0
H884 H 0.90237 0.7024 0.63545 0.0
H885 H 0.90265 0.69882 0.57142 0.0
H886 H 0.90733 0.73092 0.53368 0.0
H887 H 0.88593 0.75483 0.7323 0.0
H888 H 0.94223 0.79374 0.80087 0.0
H889 H 0.95435 0.7925 0.69334 0.0
Cd890 Cd 0.24562 0.12859 0.48576 0.0
C891 C 0.29722 0.17646 0.46977 0.0
C892 C 0.18248 0.13405 0.64102 0.0
O893 O 0.16763 0.1411 0.64439 0.0
Cd894 Cd 0.30241 0.13348 0.46786 0.0
C895 C 0.17733 0.1113 0.6526 0.0
C896 C 0.17568 0.07042 0.67026 0.0
C897 C 0.19523 0.08874 0.65586 0.0
N898 N 0.19481 0.10775 0.64808 0.0
C899 C 0.15718 0.0938 0.66702 0.0
C900 C 0.1565 0.07316 0.67591 0.0
Co901 Co 0.22085 0.13128 0.629 0.0
C902 C 0.21699 0.09023 0.64654 0.0
O903 O 0.2209 0.07321 0.65104 0.0
C904 C 0.25423 0.11455 0.61934 0.0
C905 C 0.25776 0.11162 0.58471 0.0
C906 C 0.27977 0.11791 0.57287 0.0
C907 C 0.29818 0.12777 0.59578 0.0
C908 C 0.29464 0.13153 0.63006 0.0
C909 C 0.2725 0.12377 0.64207 0.0
C910 C 0.2843 0.11834 0.53592 0.0
C911 C 0.21082 0.16943 0.61214 0.0
C912 C 0.19589 0.17096 0.58853 0.0
C913 C 0.23083 0.18936 0.62168 0.0
C914 C 0.23626 0.2103 0.60699 0.0
C915 C 0.22135 0.21173 0.58365 0.0
C916 C 0.2005 0.19215 0.5753 0.0
N917 N 0.20427 0.14802 0.62883 0.0
N918 N 0.23248 0.11024 0.63117 0.0
N919 N 0.21127 0.12241 0.58157 0.0
C920 C 0.19102 0.10229 0.57041 0.0
C921 C 0.17191 0.10357 0.55996 0.0
C922 C 0.19039 0.08128 0.56969 0.0
C923 C 0.15192 0.08385 0.54921 0.0
H924 H 0.17272 0.11996 0.56035 0.0
C925 C 0.15144 0.0628 0.54885 0.0
C926 C 0.17064 0.06136 0.559 0.0
C927 C 0.13155 0.08518 0.53833 0.0
H928 H 0.20534 0.08049 0.5773 0.0
H929 H 0.13612 0.04752 0.5406 0.0
C930 C 0.17008 0.0391 0.55838 0.0
O931 O 0.11236 0.06613 0.52822 0.0
O932 O 0.132 0.10349 0.53845 0.0
O933 O 0.18653 0.03776 0.56836 0.0
O934 O 0.15137 0.02014 0.54677 0.0
H935 H 0.09889 0.06661 0.52103 0.0
H936 H 0.15068 0.0055 0.54605 0.0
N937 N 0.24718 0.15458 0.61021 0.0
C938 C 0.26415 0.16703 0.63196 0.0
C939 C 0.28506 0.18392 0.61855 0.0
C940 C 0.28711 0.18659 0.58242 0.0
C941 C 0.26849 0.1726 0.56072 0.0
C942 C 0.24811 0.15618 0.57608 0.0
N943 N 0.23525 0.14434 0.67367 0.0
C944 C 0.2574 0.1613 0.66812 0.0
O945 O 0.27077 0.17385 0.69331 0.0
C946 C 0.22719 0.13842 0.55956 0.0
O947 O 0.23739 0.09076 0.49872 0.0
O948 O 0.21135 0.09308 0.46903 0.0
C949 C 0.22471 0.14272 0.70661 0.0
C950 C 0.23274 0.13685 0.73618 0.0
C951 C 0.22598 0.13977 0.76914 0.0
C952 C 0.21051 0.14775 0.77239 0.0
C953 C 0.20318 0.15464 0.74349 0.0
C954 C 0.2109 0.1526 0.71094 0.0
O955 O 0.27652 0.16582 0.45943 0.0
O956 O 0.30318 0.16684 0.49196 0.0
O957 O 0.27248 0.12199 0.51452 0.0
O958 O 0.30074 0.11643 0.52424 0.0
O959 O 0.22392 0.13866 0.52536 0.0
C960 C 0.25895 0.12183 0.40423 0.0
O961 O 0.27685 0.12202 0.41559 0.0
O962 O 0.24631 0.12586 0.42394 0.0
C963 C 0.21835 0.08063 0.48312 0.0
H964 H 0.17516 0.0546 0.67679 0.0
H965 H 0.14251 0.09591 0.67122 0.0
H966 H 0.14114 0.0593 0.68703 0.0
H967 H 0.24363 0.10521 0.56689 0.0
H968 H 0.31545 0.13424 0.58639 0.0
H969 H 0.2696 0.12681 0.66845 0.0
H970 H 0.18009 0.15576 0.58167 0.0
H971 H 0.24176 0.18908 0.64156 0.0
H972 H 0.22551 0.22839 0.57399 0.0
H973 H 0.29927 0.19459 0.63521 0.0
H974 H 0.30312 0.19936 0.57127 0.0
H975 H 0.27012 0.17431 0.53308 0.0
H976 H 0.24517 0.13128 0.73354 0.0
H977 H 0.20582 0.15053 0.79784 0.0
H978 H 0.20748 0.16032 0.68937 0.0
Cd979 Cd 0.86698 0.11497 0.48495 0.0
C980 C 0.82432 0.11545 0.46196 0.0
C981 C 0.8629 0.04785 0.64244 0.0
O982 O 0.85639 0.02608 0.64602 0.0
Cd983 Cd 0.86073 0.1724 0.46389 0.0
C984 C 0.88538 0.06592 0.65422 0.0
C985 C 0.92534 0.10587 0.67277 0.0
C986 C 0.90688 0.10646 0.65757 0.0
N987 N 0.88838 0.08672 0.6493 0.0
C988 C 0.90306 0.0639 0.66943 0.0
C989 C 0.92323 0.08423 0.67873 0.0
Co990 Co 0.86451 0.08841 0.62981 0.0
C991 C 0.90471 0.12635 0.64809 0.0
O992 O 0.92119 0.14749 0.65304 0.0
C993 C 0.87973 0.13828 0.62022 0.0
C994 C 0.8827 0.14482 0.58561 0.0
C995 C 0.87566 0.15994 0.57344 0.0
C996 C 0.86527 0.16801 0.59619 0.0
C997 C 0.86163 0.16077 0.63054 0.0
C998 C 0.86988 0.14682 0.64274 0.0
C999 C 0.87501 0.16364 0.53629 0.0
C1000 C 0.82717 0.0398 0.61354 0.0
C1001 C 0.82579 0.02341 0.58993 0.0
C1002 C 0.80711 0.03949 0.62346 0.0
C1003 C 0.7862 0.02385 0.60891 0.0
C1004 C 0.78493 0.00774 0.58533 0.0
C1005 C 0.80463 0.00678 0.57669 0.0
N1006 N 0.84861 0.05511 0.62972 0.0
N1007 N 0.88469 0.12126 0.63217 0.0
N1008 N 0.87389 0.08812 0.58254 0.0
C1009 C 0.89426 0.08835 0.57184 0.0
C1010 C 0.89332 0.06821 0.56084 0.0
C1011 C 0.91517 0.10881 0.57223 0.0
C1012 C 0.91332 0.06829 0.55062 0.0
H1013 H 0.87699 0.05256 0.5604 0.0
C1014 C 0.93429 0.08894 0.5515 0.0
C1015 C 0.93539 0.10931 0.56232 0.0
C1016 C 0.91237 0.0469 0.53908 0.0
H1017 H 0.91564 0.12438 0.58004 0.0
H1018 H 0.9498 0.08916 0.54379 0.0
C1019 C 0.9576 0.13103 0.5633 0.0
O1020 O 0.93167 0.04711 0.52942 0.0
O1021 O 0.89414 0.02896 0.53822 0.0
O1022 O 0.95873 0.14838 0.57492 0.0
O1023 O 0.97674 0.13178 0.5514 0.0
H1024 H 0.93145 0.03337 0.52181 0.0
H1025 H 0.99136 0.14577 0.55171 0.0
N1026 N 0.84085 0.09059 0.6106 0.0
C1027 C 0.82798 0.09466 0.63218 0.0
C1028 C 0.81086 0.09821 0.61851 0.0
C1029 C 0.80843 0.09767 0.58234 0.0
C1030 C 0.8229 0.09359 0.56084 0.0
C1031 C 0.83953 0.09005 0.57643 0.0
N1032 N 0.85095 0.08909 0.6742 0.0
C1033 C 0.83363 0.09373 0.66846 0.0
O1034 O 0.82076 0.09409 0.69352 0.0
C1035 C 0.85783 0.08759 0.56018 0.0
O1036 O 0.90519 0.13936 0.50348 0.0
O1037 O 0.90106 0.1145 0.46442 0.0
C1038 C 0.85272 0.08019 0.70706 0.0
C1039 C 0.85942 0.09438 0.73628 0.0
C1040 C 0.8567 0.08494 0.76934 0.0
C1041 C 0.84794 0.06139 0.77315 0.0
C1042 C 0.84038 0.04685 0.74458 0.0
C1043 C 0.84244 0.05644 0.71178 0.0
O1044 O 0.82496 0.09704 0.46346 0.0
O1045 O 0.84219 0.13295 0.47132 0.0
O1046 O 0.87214 0.14806 0.51568 0.0
O1047 O 0.87454 0.18087 0.52418 0.0
O1048 O 0.85792 0.08398 0.52602 0.0
C1049 C 0.87733 0.14529 0.40348 0.0
O1050 O 0.87694 0.16338 0.41244 0.0
O1051 O 0.87339 0.12935 0.42489 0.0
C1052 C 0.91439 0.13166 0.48304 0.0
H1053 H 0.94077 0.12143 0.67973 0.0
H1054 H 0.9014 0.04735 0.67401 0.0
H1055 H 0.9372 0.08321 0.6905 0.0
H1056 H 0.88969 0.13751 0.56806 0.0
H1057 H 0.85841 0.17844 0.58667 0.0
H1058 H 0.8669 0.14091 0.66914 0.0
H1059 H 0.84109 0.02301 0.58294 0.0
H1060 H 0.80726 0.05051 0.64352 0.0
H1061 H 0.7683 0.99515 0.57569 0.0
H1062 H 0.79984 0.10137 0.635 0.0
H1063 H 0.79548 0.10058 0.571 0.0
H1064 H 0.82139 0.09367 0.5332 0.0
H1065 H 0.86548 0.11246 0.73332 0.0
H1066 H 0.84534 0.05423 0.79881 0.0
H1067 H 0.83466 0.04522 0.69027 0.0
Cd1068 Cd 0.91156 0.44843 0.31801 0.0
C1069 C 0.95493 0.44918 0.29534 0.0
C1070 C 0.84886 0.38128 0.47534 0.0
O1071 O 0.83369 0.3595 0.47906 0.0
Cd1072 Cd 0.97481 0.5063 0.29638 0.0
C1073 C 0.84432 0.3993 0.48699 0.0
C1074 C 0.84397 0.43914 0.50507 0.0
C1075 C 0.86314 0.43983 0.49018 0.0
N1076 N 0.86207 0.42013 0.48216 0.0
C1077 C 0.82452 0.39719 0.5019 0.0
C1078 C 0.8245 0.41746 0.51097 0.0
Co1079 Co 0.8877 0.42195 0.4627 0.0
C1080 C 0.88512 0.45978 0.48062 0.0
O1081 O 0.88962 0.48089 0.48535 0.0
C1082 C 0.92208 0.47189 0.45283 0.0
C1083 C 0.92561 0.47836 0.41819 0.0
C1084 C 0.94773 0.4936 0.40602 0.0
C1085 C 0.96619 0.50184 0.42881 0.0
C1086 C 0.96264 0.49467 0.46319 0.0
C1087 C 0.94046 0.48063 0.47539 0.0
C1088 C 0.95208 0.49735 0.36888 0.0
C1089 C 0.87676 0.37328 0.44709 0.0
C1090 C 0.86182 0.35653 0.42378 0.0
C1091 C 0.89658 0.37323 0.45741 0.0
C1092 C 0.90194 0.35745 0.44366 0.0
C1093 C 0.88716 0.34098 0.42043 0.0
C1094 C 0.86645 0.33978 0.41131 0.0
N1095 N 0.87045 0.38861 0.46275 0.0
N1096 N 0.90015 0.45479 0.46482 0.0
N1097 N 0.87793 0.42145 0.41544 0.0
C1098 C 0.85766 0.42142 0.4047 0.0
C1099 C 0.83859 0.40115 0.39379 0.0
C1100 C 0.85696 0.44175 0.40497 0.0
C1101 C 0.81855 0.40096 0.38352 0.0
H1102 H 0.83947 0.38559 0.39347 0.0
C1103 C 0.81796 0.42148 0.38431 0.0
C1104 C 0.8371 0.44198 0.39506 0.0
C1105 C 0.79824 0.37943 0.37203 0.0
H1106 H 0.87197 0.45742 0.41268 0.0
H1107 H 0.80257 0.42149 0.37659 0.0
C1108 C 0.83632 0.46355 0.39597 0.0
O1109 O 0.77903 0.37938 0.3623 0.0
O1110 O 0.79876 0.36161 0.37128 0.0
O1111 O 0.85239 0.48099 0.40764 0.0
O1112 O 0.81783 0.46406 0.38395 0.0
H1113 H 0.76561 0.36555 0.35471 0.0
H1114 H 0.81701 0.47795 0.38422 0.0
N1115 N 0.9136 0.42427 0.44353 0.0
C1116 C 0.93063 0.42862 0.46508 0.0
C1117 C 0.95138 0.43239 0.45141 0.0
C1118 C 0.95324 0.43178 0.41526 0.0
C1119 C 0.93459 0.42742 0.39377 0.0
C1120 C 0.91436 0.42367 0.40936 0.0
N1121 N 0.90209 0.42295 0.50713 0.0
C1122 C 0.92411 0.4278 0.50136 0.0
O1123 O 0.93748 0.42842 0.52642 0.0
C1124 C 0.8935 0.421 0.39311 0.0
O1125 O 0.89734 0.47241 0.33695 0.0
O1126 O 0.87692 0.44776 0.29747 0.0
C1127 C 0.89155 0.41408 0.54007 0.0
C1128 C 0.89918 0.42824 0.56934 0.0
C1129 C 0.89263 0.41876 0.60242 0.0
C1130 C 0.87788 0.39521 0.6062 0.0
C1131 C 0.87074 0.38073 0.57756 0.0
C1132 C 0.8781 0.39035 0.54477 0.0
O1133 O 0.93597 0.4307 0.29743 0.0
O1134 O 0.95438 0.46679 0.30351 0.0
O1135 O 0.93948 0.48177 0.34818 0.0
O1136 O 0.96966 0.51472 0.35681 0.0
O1137 O 0.88981 0.41736 0.35895 0.0
C1138 C 0.9309 0.47861 0.23641 0.0
O1139 O 0.94923 0.49688 0.24529 0.0
O1140 O 0.91912 0.4626 0.25783 0.0
C1141 C 0.88053 0.46475 0.31632 0.0
H1142 H 0.84395 0.45467 0.51179 0.0
H1143 H 0.80965 0.3806 0.50639 0.0
H1144 H 0.80941 0.41637 0.52249 0.0
H1145 H 0.9113 0.47091 0.40064 0.0
H1146 H 0.98347 0.51236 0.41929 0.0
H1147 H 0.93755 0.47477 0.50182 0.0
H1148 H 0.84611 0.35599 0.41642 0.0
H1149 H 0.90741 0.38453 0.47726 0.0
H1150 H 0.89131 0.32834 0.41143 0.0
H1151 H 0.96563 0.43579 0.4679 0.0
H1152 H 0.96914 0.43486 0.4039 0.0
H1153 H 0.93615 0.42746 0.36614 0.0
H1154 H 0.91117 0.44634 0.56637 0.0
H1155 H 0.87339 0.38801 0.63184 0.0
H1156 H 0.87457 0.37914 0.52324 0.0
Cd1157 Cd 0.54677 0.4623 0.31585 0.0
C1158 C 0.54575 0.5112 0.29677 0.0
C1159 C 0.61445 0.46725 0.47288 0.0
O1160 O 0.63628 0.47412 0.47665 0.0
Cd1161 Cd 0.49724 0.47009 0.29783 0.0
C1162 C 0.59664 0.44455 0.48429 0.0
C1163 C 0.55709 0.40385 0.50154 0.0
C1164 C 0.55613 0.42227 0.48694 0.0
N1165 N 0.5757 0.44119 0.47941 0.0
C1166 C 0.59901 0.42693 0.49891 0.0
C1167 C 0.57889 0.40639 0.5076 0.0
Co1168 Co 0.57355 0.4649 0.46021 0.0
C1169 C 0.53604 0.42399 0.47728 0.0
O1170 O 0.51501 0.40713 0.48169 0.0
C1171 C 0.52362 0.4488 0.45028 0.0
C1172 C 0.51757 0.4466 0.41553 0.0
C1173 C 0.50246 0.4537 0.40371 0.0
C1174 C 0.49398 0.46349 0.42689 0.0
C1175 C 0.50077 0.46638 0.46144 0.0
C1176 C 0.51463 0.45793 0.47327 0.0
C1177 C 0.49898 0.45485 0.36667 0.0
C1178 C 0.62199 0.50286 0.44419 0.0
C1179 C 0.63862 0.50442 0.4209 0.0
C1180 C 0.62199 0.52281 0.45382 0.0
C1181 C 0.6377 0.5438 0.43948 0.0
C1182 C 0.65417 0.54525 0.41643 0.0
C1183 C 0.65538 0.52564 0.40803 0.0
N1184 N 0.60688 0.48139 0.46051 0.0
N1185 N 0.54083 0.44409 0.46193 0.0
N1186 N 0.57444 0.45605 0.41282 0.0
C1187 C 0.57431 0.43577 0.40188 0.0
C1188 C 0.59472 0.4366 0.39284 0.0
C1189 C 0.55371 0.41502 0.40035 0.0
C1190 C 0.59476 0.41667 0.38263 0.0
H1191 H 0.61049 0.45279 0.39396 0.0
C1192 C 0.57393 0.39587 0.38141 0.0
C1193 C 0.55329 0.39489 0.39019 0.0
C1194 C 0.61646 0.4175 0.37328 0.0
H1195 H 0.53799 0.4146 0.40702 0.0
H1196 H 0.5738 0.38042 0.3736 0.0
C1197 C 0.53136 0.37289 0.38879 0.0
O1198 O 0.61637 0.39824 0.36371 0.0
O1199 O 0.63454 0.43558 0.37418 0.0
O1200 O 0.51355 0.37195 0.39764 0.0
O1201 O 0.53092 0.35374 0.37771 0.0
H1202 H 0.63031 0.39839 0.35752 0.0
H1203 H 0.51681 0.33925 0.3765 0.0
N1204 N 0.5709 0.48838 0.44125 0.0
C1205 C 0.5664 0.5009 0.46289 0.0
C1206 C 0.56265 0.51794 0.44934 0.0
C1207 C 0.56348 0.52066 0.41322 0.0
C1208 C 0.56804 0.50657 0.39163 0.0
C1209 C 0.57173 0.49001 0.4071 0.0
N1210 N 0.57204 0.47793 0.50485 0.0
C1211 C 0.56712 0.49506 0.49912 0.0
O1212 O 0.56625 0.50761 0.52425 0.0
C1213 C 0.5747 0.47209 0.39066 0.0
O1214 O 0.51596 0.42457 0.32689 0.0
O1215 O 0.54518 0.42632 0.30064 0.0
C1216 C 0.58063 0.47605 0.53795 0.0
C1217 C 0.56656 0.47008 0.56737 0.0
C1218 C 0.57601 0.47247 0.60045 0.0
C1219 C 0.59938 0.48012 0.60391 0.0
C1220 C 0.61375 0.48713 0.5752 0.0
C1221 C 0.60424 0.48558 0.54259 0.0
O1222 O 0.55424 0.49914 0.28626 0.0
O1223 O 0.53105 0.50303 0.32042 0.0
O1224 O 0.51435 0.4576 0.34566 0.0
O1225 O 0.48124 0.45409 0.35452 0.0
O1226 O 0.57822 0.47222 0.35644 0.0
C1227 C 0.52664 0.45537 0.2344 0.0
O1228 O 0.50929 0.45633 0.2456 0.0
O1229 O 0.54326 0.45925 0.25411 0.0
C1230 C 0.52512 0.41413 0.31294 0.0
H1231 H 0.54167 0.3881 0.50792 0.0
H1232 H 0.6157 0.42889 0.50344 0.0
H1233 H 0.58019 0.39245 0.5189 0.0
H1234 H 0.52522 0.44019 0.39758 0.0
H1235 H 0.48362 0.4705 0.41762 0.0
H1236 H 0.52028 0.4604 0.49979 0.0
H1237 H 0.63917 0.48919 0.41399 0.0
H1238 H 0.61068 0.52252 0.47353 0.0
H1239 H 0.66681 0.56193 0.40704 0.0
H1240 H 0.55915 0.52868 0.46591 0.0
H1241 H 0.56045 0.53355 0.40197 0.0
H1242 H 0.56825 0.50832 0.36398 0.0
H1243 H 0.54862 0.46474 0.56454 0.0
H1244 H 0.60668 0.4825 0.62944 0.0
H1245 H 0.61552 0.49336 0.52121 0.0
Cd1246 Cd 0.53603 0.08497 0.32076 0.0
C1247 C 0.48904 0.03164 0.30358 0.0
C1248 C 0.52781 0.1476 0.47683 0.0
O1249 O 0.5206 0.16233 0.48016 0.0
Cd1250 Cd 0.53518 0.03155 0.30384 0.0
C1251 C 0.55037 0.15271 0.48926 0.0
C1252 C 0.59072 0.15409 0.50944 0.0
C1253 C 0.57287 0.13481 0.49374 0.0
N1254 N 0.55414 0.13539 0.48461 0.0
C1255 C 0.5674 0.1726 0.50494 0.0
C1256 C 0.58779 0.17316 0.51504 0.0
Co1257 Co 0.53091 0.10938 0.46494 0.0
C1258 C 0.57152 0.11306 0.48478 0.0
O1259 O 0.58841 0.10909 0.49036 0.0
C1260 C 0.5479 0.07608 0.45659 0.0
C1261 C 0.55236 0.0733 0.4224 0.0
C1262 C 0.54669 0.05159 0.41005 0.0
C1263 C 0.5361 0.03272 0.43196 0.0
C1264 C 0.53075 0.03546 0.46576 0.0
C1265 C 0.53776 0.05732 0.47845 0.0
C1266 C 0.54734 0.04789 0.37312 0.0
C1267 C 0.49312 0.11968 0.44616 0.0
C1268 C 0.49201 0.135 0.42281 0.0
C1269 C 0.47299 0.09957 0.45475 0.0
C1270 C 0.45232 0.09443 0.43938 0.0
C1271 C 0.45133 0.1097 0.41629 0.0
C1272 C 0.47107 0.13065 0.40889 0.0
N1273 N 0.51418 0.126 0.46377 0.0
N1274 N 0.55183 0.09766 0.46861 0.0
N1275 N 0.5406 0.11897 0.41768 0.0
C1276 C 0.56067 0.13943 0.40701 0.0
C1277 C 0.55905 0.15808 0.39509 0.0
C1278 C 0.58194 0.14064 0.40782 0.0
C1279 C 0.57867 0.17819 0.38438 0.0
H1280 H 0.54246 0.1568 0.39421 0.0
C1281 C 0.59999 0.17923 0.38552 0.0
C1282 C 0.60177 0.16048 0.39711 0.0
C1283 C 0.57698 0.19805 0.37188 0.0
H1284 H 0.583 0.12603 0.41653 0.0
H1285 H 0.6152 0.19462 0.37725 0.0
C1286 C 0.62428 0.16157 0.39782 0.0
O1287 O 0.59592 0.21731 0.36164 0.0
O1288 O 0.55845 0.19713 0.37075 0.0
O1289 O 0.62579 0.1453 0.40823 0.0
O1290 O 0.64325 0.18055 0.38692 0.0
H1291 H 0.5952 0.23045 0.35339 0.0
H1292 H 0.65806 0.18158 0.38708 0.0
N1293 N 0.5079 0.08308 0.4456 0.0
C1294 C 0.49507 0.06611 0.46718 0.0
C1295 C 0.47851 0.04516 0.45348 0.0
C1296 C 0.47658 0.04302 0.41729 0.0
C1297 C 0.49098 0.06161 0.39579 0.0
C1298 C 0.50702 0.08205 0.41142 0.0
N1299 N 0.51715 0.09501 0.50919 0.0
C1300 C 0.50018 0.07291 0.50344 0.0
O1301 O 0.4873 0.05958 0.52843 0.0
C1302 C 0.5251 0.10295 0.39521 0.0
O1303 O 0.57388 0.0925 0.33172 0.0
O1304 O 0.57171 0.11941 0.30437 0.0
C1305 C 0.51872 0.10559 0.54199 0.0
C1306 C 0.52557 0.09833 0.57132 0.0
C1307 C 0.52288 0.1052 0.60429 0.0
C1308 C 0.51388 0.1198 0.6078 0.0
C1309 C 0.50612 0.12646 0.57906 0.0
C1310 C 0.5082 0.11881 0.54643 0.0
O1311 O 0.49955 0.05259 0.29431 0.0
O1312 O 0.49875 0.02497 0.32456 0.0
O1313 O 0.54351 0.05975 0.35208 0.0
O1314 O 0.55076 0.03248 0.36105 0.0
O1315 O 0.52541 0.10627 0.36089 0.0
C1316 C 0.5435 0.07323 0.23938 0.0
O1317 O 0.54483 0.05621 0.25106 0.0
O1318 O 0.53836 0.08514 0.25887 0.0
C1319 C 0.58409 0.1119 0.31715 0.0
H1320 H 0.6063 0.15447 0.5171 0.0
H1321 H 0.56508 0.18713 0.50932 0.0
H1322 H 0.60127 0.18831 0.52721 0.0
H1323 H 0.55942 0.08778 0.40515 0.0
H1324 H 0.53022 0.0157 0.42194 0.0
H1325 H 0.53358 0.05963 0.50448 0.0
H1326 H 0.50734 0.1509 0.41674 0.0
H1327 H 0.47286 0.08835 0.47449 0.0
H1328 H 0.43485 0.10572 0.4061 0.0
H1329 H 0.46756 0.03095 0.46999 0.0
H1330 H 0.46409 0.02695 0.40594 0.0
H1331 H 0.48988 0.05987 0.36811 0.0
H1332 H 0.5319 0.08651 0.56852 0.0
H1333 H 0.51133 0.12453 0.63335 0.0
H1334 H 0.50028 0.12197 0.52479 0.0
Cd1335 Cd 0.7782 0.57499 0.85872 0.0
C1336 C 0.77917 0.62463 0.87704 0.0
C1337 C 0.70945 0.51146 0.70144 0.0
O1338 O 0.68778 0.4959 0.69797 0.0
Cd1339 Cd 0.82837 0.6346 0.87638 0.0
C1340 C 0.72779 0.50741 0.68982 0.0
C1341 C 0.76811 0.50818 0.67126 0.0
C1342 C 0.76836 0.52681 0.68732 0.0
N1343 N 0.74846 0.52519 0.69564 0.0
C1344 C 0.72611 0.48812 0.67375 0.0
C1345 C 0.74662 0.48865 0.66447 0.0
Co1346 Co 0.74968 0.55049 0.71532 0.0
C1347 C 0.78799 0.54893 0.6972 0.0
O1348 O 0.80925 0.554 0.69219 0.0
C1349 C 0.79921 0.58562 0.72519 0.0
C1350 C 0.80598 0.58916 0.7597 0.0
C1351 C 0.82144 0.61124 0.77155 0.0
C1352 C 0.82959 0.62967 0.7487 0.0
C1353 C 0.82202 0.62618 0.71451 0.0
C1354 C 0.80762 0.60399 0.70259 0.0
C1355 C 0.82584 0.6158 0.8085 0.0
C1356 C 0.70078 0.53798 0.7324 0.0
C1357 C 0.68482 0.52222 0.7558 0.0
C1358 C 0.69975 0.5576 0.72401 0.0
C1359 C 0.68397 0.56208 0.74009 0.0
C1360 C 0.66836 0.54652 0.76357 0.0
C1361 C 0.668 0.52592 0.77044 0.0
N1362 N 0.71635 0.53274 0.71489 0.0
N1363 N 0.78253 0.56355 0.71324 0.0
N1364 N 0.7494 0.54071 0.76253 0.0
C1365 C 0.75023 0.52087 0.77317 0.0
C1366 C 0.7303 0.50124 0.78357 0.0
C1367 C 0.77109 0.52119 0.77363 0.0
C1368 C 0.73095 0.48165 0.79402 0.0
H1369 H 0.71435 0.50134 0.78347 0.0
C1370 C 0.752 0.48212 0.79407 0.0
C1371 C 0.7722 0.50186 0.78397 0.0
C1372 C 0.70974 0.46077 0.80496 0.0
H1373 H 0.78648 0.53658 0.76614 0.0
H1374 H 0.75267 0.46712 0.80207 0.0
C1375 C 0.79439 0.5023 0.78434 0.0
O1376 O 0.71049 0.44199 0.81487 0.0
O1377 O 0.69147 0.46041 0.80509 0.0
O1378 O 0.81184 0.51931 0.77476 0.0
O1379 O 0.79547 0.48389 0.79528 0.0
H1380 H 0.69688 0.4282 0.82211 0.0
H1381 H 0.80977 0.48385 0.79581 0.0
N1382 N 0.75134 0.57606 0.73471 0.0
C1383 C 0.75417 0.59262 0.71321 0.0
C1384 C 0.75607 0.61263 0.72701 0.0
C1385 C 0.75542 0.61434 0.76319 0.0
C1386 C 0.75268 0.59621 0.7846 0.0
C1387 C 0.75059 0.57665 0.76887 0.0
N1388 N 0.75036 0.56482 0.67108 0.0
C1389 C 0.75334 0.58616 0.67689 0.0
O1390 O 0.75214 0.59865 0.65192 0.0
C1391 C 0.74881 0.55615 0.785 0.0
O1392 O 0.80861 0.56783 0.84528 0.0
O1393 O 0.78108 0.54162 0.87595 0.0
C1394 C 0.74303 0.55434 0.63779 0.0
C1395 C 0.75826 0.56252 0.60968 0.0
C1396 C 0.75009 0.5558 0.57593 0.0
C1397 C 0.72679 0.54073 0.57051 0.0
C1398 C 0.71137 0.53336 0.59793 0.0
C1399 C 0.71958 0.54039 0.63135 0.0
O1400 O 0.76992 0.60398 0.88742 0.0
O1401 O 0.79338 0.6304 0.85279 0.0
O1402 O 0.81092 0.60342 0.83023 0.0
O1403 O 0.84367 0.6331 0.81982 0.0
O1404 O 0.74613 0.5528 0.81933 0.0
C1405 C 0.79927 0.5904 0.94021 0.0
O1406 O 0.81615 0.60903 0.92888 0.0
O1407 O 0.78301 0.57688 0.92051 0.0
C1408 C 0.80052 0.54909 0.8616 0.0
H1409 H 0.78381 0.50864 0.66414 0.0
H1410 H 0.70966 0.47327 0.66839 0.0
H1411 H 0.74587 0.47399 0.65198 0.0
H1412 H 0.79876 0.57492 0.7774 0.0
H1413 H 0.84015 0.64692 0.75828 0.0
H1414 H 0.80194 0.60102 0.67608 0.0
H1415 H 0.68479 0.50653 0.76144 0.0
H1416 H 0.71028 0.56896 0.70397 0.0
H1417 H 0.65562 0.54992 0.77443 0.0
H1418 H 0.75794 0.62639 0.7106 0.0
H1419 H 0.75704 0.62967 0.77461 0.0
H1420 H 0.7524 0.59755 0.81227 0.0
H1421 H 0.77611 0.57489 0.61399 0.0
H1422 H 0.72041 0.53585 0.54449 0.0
H1423 H 0.70743 0.53677 0.65176 0.0
Cd1424 Cd 0.41626 0.19957 0.8607 0.0
C1425 C 0.36648 0.15103 0.8801 0.0
C1426 C 0.47824 0.19424 0.70336 0.0
O1427 O 0.49329 0.18742 0.70029 0.0
Cd1428 Cd 0.35767 0.19121 0.87925 0.0
C1429 C 0.48334 0.21706 0.69226 0.0
C1430 C 0.48471 0.2579 0.67511 0.0
C1431 C 0.46544 0.23967 0.69027 0.0
N1432 N 0.46603 0.22073 0.69789 0.0
C1433 C 0.50322 0.23447 0.67708 0.0
C1434 C 0.50376 0.25509 0.66849 0.0
Co1435 Co 0.4401 0.19707 0.71697 0.0
C1436 C 0.44373 0.23811 0.70015 0.0
O1437 O 0.43965 0.25503 0.69576 0.0
C1438 C 0.40657 0.21348 0.72754 0.0
C1439 C 0.40282 0.21572 0.76236 0.0
C1440 C 0.38067 0.20883 0.77424 0.0
C1441 C 0.36238 0.19913 0.7511 0.0
C1442 C 0.36613 0.19596 0.71664 0.0
C1443 C 0.38838 0.20434 0.70466 0.0
C1444 C 0.37589 0.20765 0.81125 0.0
C1445 C 0.45049 0.15921 0.73353 0.0
C1446 C 0.46575 0.15828 0.75714 0.0
C1447 C 0.43045 0.13902 0.72494 0.0
C1448 C 0.42537 0.11842 0.74054 0.0
C1449 C 0.44063 0.11759 0.76387 0.0
C1450 C 0.46147 0.13744 0.77132 0.0
N1451 N 0.45662 0.18028 0.7161 0.0
N1452 N 0.42842 0.21808 0.71569 0.0
N1453 N 0.44989 0.20561 0.76442 0.0
C1454 C 0.46997 0.2259 0.77561 0.0
C1455 C 0.48934 0.22498 0.78571 0.0
C1456 C 0.47027 0.24674 0.77641 0.0
C1457 C 0.50926 0.2449 0.79615 0.0
H1458 H 0.48882 0.20874 0.78528 0.0
C1459 C 0.50939 0.26579 0.79654 0.0
C1460 C 0.48994 0.26687 0.78671 0.0
C1461 C 0.52991 0.24397 0.80657 0.0
H1462 H 0.45511 0.24725 0.76916 0.0
H1463 H 0.52466 0.28123 0.80447 0.0
C1464 C 0.4902 0.28898 0.78716 0.0
O1465 O 0.54904 0.26321 0.81629 0.0
O1466 O 0.52977 0.22581 0.8064 0.0
O1467 O 0.47374 0.29011 0.77664 0.0
O1468 O 0.50863 0.30802 0.79921 0.0
H1469 H 0.56269 0.263 0.82317 0.0
H1470 H 0.5091 0.32256 0.79986 0.0
N1471 N 0.41388 0.17361 0.73571 0.0
C1472 C 0.39691 0.16114 0.71395 0.0
C1473 C 0.37612 0.14403 0.72734 0.0
C1474 C 0.37419 0.14112 0.76344 0.0
C1475 C 0.39283 0.15509 0.78514 0.0
C1476 C 0.41308 0.17176 0.76981 0.0
N1477 N 0.4256 0.18436 0.67233 0.0
C1478 C 0.40356 0.16715 0.67781 0.0
O1479 O 0.39018 0.15482 0.65248 0.0
C1480 C 0.43404 0.18946 0.78638 0.0
O1481 O 0.42445 0.23731 0.84708 0.0
O1482 O 0.45108 0.23518 0.87538 0.0
C1483 C 0.43609 0.18674 0.63917 0.0
C1484 C 0.42844 0.19394 0.61056 0.0
C1485 C 0.43519 0.19198 0.57708 0.0
C1486 C 0.44995 0.18327 0.57239 0.0
C1487 C 0.45692 0.17522 0.60028 0.0
C1488 C 0.44957 0.17661 0.6334 0.0
O1489 O 0.38711 0.16278 0.89041 0.0
O1490 O 0.36022 0.15927 0.85618 0.0
O1491 O 0.38817 0.20459 0.83254 0.0
O1492 O 0.35868 0.20815 0.82301 0.0
O1493 O 0.43738 0.18907 0.82054 0.0
C1494 C 0.40252 0.20697 0.94199 0.0
O1495 O 0.3839 0.20536 0.93088 0.0
O1496 O 0.41556 0.20351 0.92232 0.0
C1497 C 0.44389 0.24755 0.86155 0.0
H1498 H 0.4851 0.27366 0.66864 0.0
H1499 H 0.51773 0.23226 0.67195 0.0
H1500 H 0.51891 0.26887 0.65672 0.0
H1501 H 0.4169 0.222 0.78027 0.0
H1502 H 0.34504 0.19226 0.76041 0.0
H1503 H 0.39146 0.20174 0.67816 0.0
H1504 H 0.48154 0.17369 0.7633 0.0
H1505 H 0.4192 0.13885 0.70519 0.0
H1506 H 0.43671 0.10117 0.77426 0.0
H1507 H 0.36191 0.13334 0.71068 0.0
H1508 H 0.35827 0.12815 0.77457 0.0
H1509 H 0.3913 0.15315 0.81277 0.0
H1510 H 0.41649 0.20001 0.6143 0.0
H1511 H 0.45503 0.18159 0.5466 0.0
H1512 H 0.45268 0.16785 0.654 0.0
Cd1513 Cd 0.79364 0.21694 0.85945 0.0
C1514 C 0.84201 0.21584 0.87735 0.0
C1515 C 0.8003 0.28443 0.70223 0.0
O1516 O 0.80705 0.30629 0.69933 0.0
Cd1517 Cd 0.80296 0.16655 0.87856 0.0
C1518 C 0.77763 0.26666 0.69064 0.0
C1519 C 0.73704 0.22713 0.6729 0.0
C1520 C 0.75524 0.22614 0.68823 0.0
N1521 N 0.77408 0.2457 0.69605 0.0
C1522 C 0.76023 0.26907 0.6753 0.0
C1523 C 0.73973 0.24896 0.66639 0.0
Co1524 Co 0.79758 0.2435 0.71588 0.0
C1525 C 0.75682 0.20602 0.69834 0.0
O1526 O 0.73998 0.185 0.69383 0.0
C1527 C 0.78121 0.19355 0.72673 0.0
C1528 C 0.77851 0.18749 0.76158 0.0
C1529 C 0.78493 0.17194 0.77386 0.0
C1530 C 0.79462 0.16312 0.75109 0.0
C1531 C 0.7982 0.17004 0.71662 0.0
C1532 C 0.79039 0.18431 0.70425 0.0
C1533 C 0.78562 0.16816 0.81096 0.0
C1534 C 0.83549 0.29171 0.732 0.0
C1535 C 0.83672 0.3079 0.75583 0.0
C1536 C 0.85555 0.2918 0.7227 0.0
C1537 C 0.87632 0.30721 0.73788 0.0
C1538 C 0.87746 0.32326 0.76149 0.0
C1539 C 0.85775 0.32435 0.76962 0.0
N1540 N 0.81424 0.27678 0.71511 0.0
N1541 N 0.77672 0.21079 0.71439 0.0
N1542 N 0.78846 0.24465 0.76301 0.0
C1543 C 0.76807 0.2444 0.7737 0.0
C1544 C 0.76898 0.26457 0.78444 0.0
C1545 C 0.74724 0.22384 0.77416 0.0
C1546 C 0.74905 0.26442 0.79524 0.0
H1547 H 0.78524 0.28029 0.78435 0.0
C1548 C 0.72816 0.24367 0.79521 0.0
C1549 C 0.7271 0.22326 0.78473 0.0
C1550 C 0.74999 0.28584 0.80666 0.0
H1551 H 0.74677 0.20824 0.76661 0.0
H1552 H 0.71272 0.24339 0.80344 0.0
C1553 C 0.70502 0.20138 0.78495 0.0
O1554 O 0.73077 0.28555 0.81697 0.0
O1555 O 0.76816 0.30386 0.80686 0.0
O1556 O 0.70397 0.18385 0.77434 0.0
O1557 O 0.68591 0.20068 0.79689 0.0
H1558 H 0.731 0.2993 0.82455 0.0
H1559 H 0.67138 0.18659 0.79736 0.0
N1560 N 0.82088 0.24083 0.73542 0.0
C1561 C 0.83359 0.23634 0.71416 0.0
C1562 C 0.85067 0.23285 0.72817 0.0
C1563 C 0.85331 0.23402 0.76432 0.0
C1564 C 0.83908 0.23867 0.78546 0.0
C1565 C 0.82242 0.242 0.76954 0.0
N1566 N 0.81086 0.24189 0.67172 0.0
C1567 C 0.82795 0.23698 0.67782 0.0
O1568 O 0.84062 0.23604 0.65293 0.0
C1569 C 0.80445 0.24512 0.78545 0.0
O1570 O 0.75585 0.18771 0.84501 0.0
O1571 O 0.75798 0.21545 0.87607 0.0
C1572 C 0.80896 0.25015 0.63839 0.0
C1573 C 0.80236 0.23539 0.60978 0.0
C1574 C 0.80521 0.24419 0.57625 0.0
C1575 C 0.81401 0.26763 0.57134 0.0
C1576 C 0.8214 0.28265 0.59929 0.0
C1577 C 0.81918 0.2738 0.6326 0.0
O1578 O 0.83102 0.22549 0.88781 0.0
O1579 O 0.83308 0.20139 0.85353 0.0
O1580 O 0.78864 0.18349 0.83223 0.0
O1581 O 0.78522 0.15049 0.82279 0.0
O1582 O 0.8043 0.24868 0.81957 0.0
C1583 C 0.78769 0.19608 0.94134 0.0
O1584 O 0.78971 0.17925 0.93059 0.0
O1585 O 0.79022 0.21207 0.92119 0.0
C1586 C 0.74561 0.19626 0.86126 0.0
H1587 H 0.72134 0.21173 0.66628 0.0
H1588 H 0.76233 0.28577 0.67034 0.0
H1589 H 0.72596 0.25028 0.65452 0.0
H1590 H 0.77218 0.1954 0.77917 0.0
H1591 H 0.80109 0.15236 0.76068 0.0
H1592 H 0.7933 0.18998 0.67773 0.0
H1593 H 0.8214 0.30834 0.76248 0.0
H1594 H 0.85547 0.28075 0.70271 0.0
H1595 H 0.89401 0.33569 0.77156 0.0
H1596 H 0.86156 0.22936 0.71192 0.0
H1597 H 0.86628 0.23126 0.77593 0.0
H1598 H 0.84085 0.2393 0.81311 0.0
H1599 H 0.79627 0.21737 0.61362 0.0
H1600 H 0.81624 0.27434 0.54541 0.0
H1601 H 0.82741 0.28561 0.65342 0.0
Cd1602 Cd 0.41972 0.21674 0.35992 0.0
C1603 C 0.37202 0.21819 0.37821 0.0
C1604 C 0.48092 0.28277 0.20259 0.0
O1605 O 0.496 0.30454 0.19844 0.0
Cd1606 Cd 0.35808 0.16805 0.37922 0.0
C1607 C 0.48555 0.2647 0.19158 0.0
C1608 C 0.48615 0.22473 0.17523 0.0
C1609 C 0.46697 0.22413 0.1899 0.0
N1610 N 0.46788 0.24388 0.19696 0.0
C1611 C 0.50536 0.26672 0.17685 0.0
C1612 C 0.5055 0.24639 0.16861 0.0
Co1613 Co 0.44232 0.24218 0.21644 0.0
C1614 C 0.44515 0.20425 0.20026 0.0
O1615 O 0.44074 0.18311 0.19633 0.0
C1616 C 0.40823 0.19245 0.22801 0.0
C1617 C 0.40453 0.18679 0.26299 0.0
C1618 C 0.38236 0.17173 0.27511 0.0
C1619 C 0.36403 0.16304 0.252 0.0
C1620 C 0.36772 0.1696 0.21738 0.0
C1621 C 0.38996 0.1833 0.20523 0.0
C1622 C 0.37756 0.16837 0.31221 0.0
C1623 C 0.4529 0.29086 0.23024 0.0
C1624 C 0.46765 0.30765 0.25361 0.0
C1625 C 0.43309 0.29078 0.21951 0.0
C1626 C 0.42756 0.30652 0.23293 0.0
C1627 C 0.44216 0.32305 0.25623 0.0
C1628 C 0.46285 0.32434 0.26577 0.0
N1629 N 0.45932 0.27547 0.2151 0.0
N1630 N 0.43014 0.20939 0.2158 0.0
N1631 N 0.45258 0.24369 0.26361 0.0
C1632 C 0.47269 0.24345 0.27445 0.0
C1633 C 0.49222 0.26377 0.28393 0.0
C1634 C 0.47275 0.2228 0.27586 0.0
C1635 C 0.51207 0.26367 0.29448 0.0
H1636 H 0.49185 0.27958 0.28297 0.0
C1637 C 0.51201 0.24281 0.2954 0.0
C1638 C 0.49239 0.22226 0.28611 0.0
C1639 C 0.53285 0.28524 0.30455 0.0
H1640 H 0.45741 0.20712 0.26917 0.0
H1641 H 0.52724 0.24257 0.30338 0.0
C1642 C 0.49243 0.20031 0.28713 0.0
O1643 O 0.55187 0.28501 0.31458 0.0
O1644 O 0.53288 0.30335 0.3039 0.0
O1645 O 0.47578 0.18267 0.27722 0.0
O1646 O 0.51089 0.19967 0.29897 0.0
H1647 H 0.56559 0.29887 0.32129 0.0
H1648 H 0.51123 0.18553 0.29994 0.0
N1649 N 0.41652 0.24002 0.23568 0.0
C1650 C 0.39932 0.23541 0.21434 0.0
C1651 C 0.37888 0.23241 0.22816 0.0
C1652 C 0.37756 0.23418 0.26423 0.0
C1653 C 0.39642 0.23889 0.28547 0.0
C1654 C 0.41625 0.24167 0.26974 0.0
N1655 N 0.42742 0.24019 0.17205 0.0
C1656 C 0.40545 0.23547 0.17805 0.0
O1657 O 0.39188 0.23445 0.15304 0.0
C1658 C 0.43724 0.24464 0.28584 0.0
O1659 O 0.42784 0.18713 0.34572 0.0
O1660 O 0.45354 0.21461 0.37703 0.0
C1661 C 0.43768 0.24863 0.13882 0.0
C1662 C 0.4297 0.23423 0.10982 0.0
C1663 C 0.43617 0.24343 0.07655 0.0
C1664 C 0.4512 0.26689 0.07233 0.0
C1665 C 0.45862 0.28157 0.10073 0.0
C1666 C 0.45127 0.27225 0.13363 0.0
O1667 O 0.39265 0.22749 0.38857 0.0
O1668 O 0.36639 0.20404 0.35395 0.0
O1669 O 0.39019 0.18358 0.33344 0.0
O1670 O 0.35964 0.15136 0.32396 0.0
O1671 O 0.44098 0.24832 0.31992 0.0
C1672 C 0.40305 0.19591 0.44202 0.0
O1673 O 0.38376 0.1796 0.43153 0.0
O1674 O 0.41704 0.21131 0.42157 0.0
C1675 C 0.44652 0.19538 0.36223 0.0
H1676 H 0.48629 0.20917 0.16923 0.0
H1677 H 0.52015 0.28329 0.1719 0.0
H1678 H 0.5206 0.24741 0.15726 0.0
H1679 H 0.4187 0.19465 0.28075 0.0
H1680 H 0.3467 0.15268 0.26138 0.0
H1681 H 0.393 0.18868 0.17858 0.0
H1682 H 0.48334 0.30825 0.26129 0.0
H1683 H 0.42238 0.27936 0.19967 0.0
H1684 H 0.43789 0.33566 0.26497 0.0
H1685 H 0.36451 0.22888 0.21185 0.0
H1686 H 0.36195 0.23184 0.2757 0.0
H1687 H 0.39541 0.24003 0.31305 0.0
H1688 H 0.41755 0.2162 0.11313 0.0
H1689 H 0.45569 0.27391 0.04659 0.0
H1690 H 0.45489 0.28367 0.15485 0.0
Cd1691 Cd 0.78213 0.20191 0.36057 0.0
C1692 C 0.78304 0.1529 0.37959 0.0
C1693 C 0.71382 0.19618 0.20347 0.0
O1694 O 0.69197 0.18923 0.19963 0.0
Cd1695 Cd 0.83182 0.1932 0.37839 0.0
C1696 C 0.73161 0.21893 0.19218 0.0
C1697 C 0.77115 0.25966 0.17494 0.0
C1698 C 0.77213 0.24135 0.18989 0.0
N1699 N 0.75256 0.22244 0.19748 0.0
C1700 C 0.72921 0.23645 0.17721 0.0
C1701 C 0.74933 0.25701 0.16855 0.0
Co1702 Co 0.75475 0.19876 0.21672 0.0
C1703 C 0.79224 0.23968 0.19965 0.0
O1704 O 0.81326 0.25652 0.19516 0.0
C1705 C 0.80471 0.21488 0.22669 0.0
C1706 C 0.81099 0.21735 0.26139 0.0
C1707 C 0.82615 0.21031 0.27317 0.0
C1708 C 0.83437 0.20024 0.25008 0.0
C1709 C 0.8272 0.19688 0.21572 0.0
C1710 C 0.81342 0.20541 0.2038 0.0
C1711 C 0.82992 0.20933 0.31016 0.0
C1712 C 0.70641 0.16082 0.23284 0.0
C1713 C 0.68993 0.15938 0.25631 0.0
C1714 C 0.70644 0.14083 0.22346 0.0
C1715 C 0.69097 0.11996 0.23832 0.0
C1716 C 0.67471 0.11864 0.26168 0.0
C1717 C 0.67345 0.13825 0.26982 0.0
N1718 N 0.72144 0.1822 0.21627 0.0
N1719 N 0.78748 0.21959 0.21505 0.0
N1720 N 0.75386 0.20763 0.26408 0.0
C1721 C 0.75403 0.22793 0.27504 0.0
C1722 C 0.73366 0.22709 0.2844 0.0
C1723 C 0.77464 0.24867 0.27655 0.0
C1724 C 0.73368 0.247 0.29495 0.0
H1725 H 0.71788 0.2109 0.28334 0.0
C1726 C 0.75451 0.26778 0.29614 0.0
C1727 C 0.77512 0.26878 0.28702 0.0
C1728 C 0.71203 0.24614 0.30473 0.0
H1729 H 0.79033 0.2491 0.26968 0.0
H1730 H 0.7547 0.28321 0.30422 0.0
C1731 C 0.79707 0.29076 0.28846 0.0
O1732 O 0.71218 0.26537 0.31468 0.0
O1733 O 0.69394 0.22807 0.30387 0.0
O1734 O 0.81483 0.29172 0.27928 0.0
O1735 O 0.79757 0.30987 0.29994 0.0
H1736 H 0.69828 0.2652 0.32117 0.0
H1737 H 0.8117 0.32433 0.30119 0.0
N1738 N 0.75744 0.17531 0.23568 0.0
C1739 C 0.76186 0.16274 0.21402 0.0
C1740 C 0.76558 0.14569 0.22755 0.0
C1741 C 0.76482 0.14301 0.26369 0.0
C1742 C 0.76035 0.15715 0.28529 0.0
C1743 C 0.75667 0.17372 0.26982 0.0
N1744 N 0.7562 0.18574 0.17214 0.0
C1745 C 0.76107 0.16857 0.17779 0.0
O1746 O 0.76186 0.15601 0.15261 0.0
C1747 C 0.75372 0.19167 0.28624 0.0
O1748 O 0.81259 0.23978 0.34885 0.0
O1749 O 0.78386 0.23785 0.37686 0.0
C1750 C 0.74729 0.18744 0.13925 0.0
C1751 C 0.76154 0.19461 0.11003 0.0
C1752 C 0.75211 0.19223 0.07698 0.0
C1753 C 0.7285 0.18318 0.07333 0.0
C1754 C 0.71396 0.17505 0.10187 0.0
C1755 C 0.72356 0.1768 0.13451 0.0
O1756 O 0.77455 0.16499 0.38996 0.0
O1757 O 0.79755 0.16089 0.35566 0.0
O1758 O 0.81471 0.20654 0.33149 0.0
O1759 O 0.84761 0.20978 0.3219 0.0
O1760 O 0.7504 0.19168 0.32049 0.0
C1761 C 0.80243 0.20793 0.44192 0.0
O1762 O 0.8196 0.20668 0.43068 0.0
O1763 O 0.78598 0.2046 0.4222 0.0
C1764 C 0.80368 0.25013 0.36383 0.0
H1765 H 0.78655 0.2754 0.16848 0.0
H1766 H 0.71252 0.23438 0.17236 0.0
H1767 H 0.74801 0.27087 0.15697 0.0
H1768 H 0.80348 0.22392 0.27933 0.0
H1769 H 0.84476 0.19327 0.25937 0.0
H1770 H 0.80757 0.2027 0.17738 0.0
H1771 H 0.6893 0.17461 0.26295 0.0
H1772 H 0.71761 0.14103 0.20359 0.0
H1773 H 0.66226 0.10202 0.27155 0.0
H1774 H 0.76901 0.1349 0.21097 0.0
H1775 H 0.76784 0.1301 0.27493 0.0
H1776 H 0.76016 0.15542 0.31294 0.0
H1777 H 0.77969 0.201 0.11297 0.0
H1778 H 0.72128 0.18085 0.04775 0.0
H1779 H 0.71237 0.16854 0.15589 0.0
Cd1780 Cd 0.79316 0.57701 0.35948 0.0
C1781 C 0.84072 0.62908 0.37719 0.0
C1782 C 0.80033 0.51479 0.2012 0.0
O1783 O 0.80707 0.49971 0.19769 0.0
Cd1784 Cd 0.79657 0.63206 0.37747 0.0
C1785 C 0.77782 0.51011 0.18924 0.0
C1786 C 0.73773 0.50956 0.16989 0.0
C1787 C 0.75566 0.52844 0.18625 0.0
N1788 N 0.77423 0.52745 0.19501 0.0
C1789 C 0.76069 0.4906 0.17288 0.0
C1790 C 0.74043 0.49046 0.16322 0.0
Co1791 Co 0.79776 0.55313 0.2149 0.0
C1792 C 0.75736 0.55023 0.19595 0.0
O1793 O 0.74073 0.55463 0.19065 0.0
C1794 C 0.78161 0.58702 0.22436 0.0
C1795 C 0.77781 0.59005 0.25877 0.0
C1796 C 0.78392 0.61189 0.2711 0.0
C1797 C 0.7943 0.63064 0.24886 0.0
C1798 C 0.79886 0.62762 0.21472 0.0
C1799 C 0.79148 0.60564 0.20221 0.0
C1800 C 0.78363 0.61575 0.30811 0.0
C1801 C 0.8348 0.54161 0.23336 0.0
C1802 C 0.8352 0.52545 0.2558 0.0
C1803 C 0.8552 0.56192 0.22666 0.0
C1804 C 0.87538 0.56647 0.24315 0.0
C1805 C 0.87563 0.55042 0.26543 0.0
C1806 C 0.85567 0.5293 0.27081 0.0
N1807 N 0.81418 0.53614 0.21496 0.0
N1808 N 0.77716 0.56528 0.21224 0.0
N1809 N 0.78825 0.54324 0.2621 0.0
C1810 C 0.76796 0.52296 0.27266 0.0
C1811 C 0.76913 0.50392 0.28388 0.0
C1812 C 0.74695 0.52231 0.27243 0.0
C1813 C 0.74929 0.48397 0.29443 0.0
H1814 H 0.78554 0.50479 0.28436 0.0
C1815 C 0.72822 0.48347 0.2938 0.0
C1816 C 0.7269 0.50262 0.28293 0.0
C1817 C 0.75051 0.46371 0.30623 0.0
H1818 H 0.74627 0.53724 0.26435 0.0
H1819 H 0.71285 0.46819 0.30192 0.0
C1820 C 0.70465 0.50208 0.28272 0.0
O1821 O 0.73136 0.4446 0.3163 0.0
O1822 O 0.76883 0.46418 0.30693 0.0
O1823 O 0.70352 0.51867 0.27284 0.0
O1824 O 0.68548 0.48324 0.29349 0.0
H1825 H 0.73177 0.43121 0.3241 0.0
H1826 H 0.67084 0.48256 0.29364 0.0
N1827 N 0.82108 0.57914 0.23441 0.0
C1828 C 0.83396 0.5962 0.21299 0.0
C1829 C 0.85068 0.61701 0.22686 0.0
C1830 C 0.85272 0.6189 0.26307 0.0
C1831 C 0.83828 0.60024 0.28441 0.0
C1832 C 0.82206 0.57995 0.26861 0.0
N1833 N 0.81135 0.56775 0.17073 0.0
C1834 C 0.82863 0.58967 0.17667 0.0
O1835 O 0.84139 0.60313 0.15169 0.0
C1836 C 0.80387 0.55905 0.28467 0.0
O1837 O 0.75566 0.57038 0.34778 0.0
O1838 O 0.75691 0.54301 0.37526 0.0
C1839 C 0.80891 0.55747 0.13742 0.0
C1840 C 0.80185 0.56538 0.10898 0.0
C1841 C 0.80373 0.55874 0.0754 0.0
C1842 C 0.81228 0.54389 0.07043 0.0
C1843 C 0.82024 0.53668 0.09817 0.0
C1844 C 0.81881 0.54381 0.13144 0.0
O1845 O 0.82986 0.60827 0.38708 0.0
O1846 O 0.83141 0.63538 0.35498 0.0
O1847 O 0.7869 0.6035 0.32915 0.0
O1848 O 0.78102 0.63166 0.32029 0.0
O1849 O 0.80346 0.5556 0.31897 0.0
C1850 C 0.78591 0.589 0.44126 0.0
O1851 O 0.7856 0.60666 0.42998 0.0
O1852 O 0.79038 0.57672 0.42145 0.0
C1853 C 0.74497 0.55098 0.36229 0.0
H1854 H 0.72229 0.50954 0.16244 0.0
H1855 H 0.76287 0.47609 0.16757 0.0
H1856 H 0.7269 0.47563 0.1505 0.0
H1857 H 0.77084 0.57562 0.27613 0.0
H1858 H 0.80043 0.64774 0.25873 0.0
H1859 H 0.79509 0.60311 0.17596 0.0
H1860 H 0.81973 0.50936 0.26045 0.0
H1861 H 0.85595 0.57381 0.2076 0.0
H1862 H 0.89174 0.55398 0.27663 0.0
H1863 H 0.86164 0.63129 0.21049 0.0
H1864 H 0.86534 0.63486 0.27456 0.0
H1865 H 0.83947 0.6018 0.3121 0.0
H1866 H 0.79594 0.57746 0.11294 0.0
H1867 H 0.81393 0.53894 0.04453 0.0
H1868 H 0.82734 0.54041 0.15208 0.0
Cd1869 Cd 0.54861 0.08794 0.82104 0.0
C1870 C 0.54906 0.03952 0.80108 0.0
C1871 C 0.61678 0.14848 0.97807 0.0
O1872 O 0.63859 0.16374 0.98091 0.0
Cd1873 Cd 0.49914 0.0279 0.80196 0.0
C1874 C 0.59887 0.15305 0.99013 0.0
C1875 C 0.55915 0.15337 0.00913 0.0
C1876 C 0.55833 0.13445 0.99312 0.0
N1877 N 0.57798 0.13554 0.98467 0.0
C1878 C 0.6011 0.1726 1.00612 0.0
C1879 C 0.58089 0.17261 0.01565 0.0
Co1880 Co 0.57602 0.11005 0.96456 0.0
C1881 C 0.53832 0.11262 0.98312 0.0
O1882 O 0.51724 0.10812 0.98816 0.0
C1883 C 0.52613 0.07595 0.95424 0.0
C1884 C 0.51995 0.07271 0.91943 0.0
C1885 C 0.50449 0.05075 0.90702 0.0
C1886 C 0.49576 0.03217 0.92962 0.0
C1887 C 0.5028 0.03534 0.96401 0.0
C1888 C 0.51712 0.05738 0.97653 0.0
C1889 C 0.50065 0.04636 0.86992 0.0
C1890 C 0.62436 0.12108 0.94734 0.0
C1891 C 0.64039 0.13636 0.92358 0.0
C1892 C 0.62469 0.10113 0.95595 0.0
C1893 C 0.64012 0.09605 0.9401 0.0
C1894 C 0.65597 0.11125 0.9165 0.0
C1895 C 0.65686 0.13205 0.90909 0.0
N1896 N 0.60931 0.12703 0.96482 0.0
N1897 N 0.54324 0.09773 0.96667 0.0
N1898 N 0.57668 0.12031 0.9176 0.0
C1899 C 0.57624 0.14042 0.90725 0.0
C1900 C 0.5963 0.1598 0.8965 0.0
C1901 C 0.55561 0.14054 0.90721 0.0
C1902 C 0.59598 0.17957 0.88611 0.0
H1903 H 0.61207 0.15935 0.89625 0.0
C1904 C 0.57516 0.17956 0.88655 0.0
C1905 C 0.55484 0.16008 0.89702 0.0
C1906 C 0.61729 0.20016 0.87469 0.0
H1907 H 0.5401 0.12532 0.91482 0.0
H1908 H 0.57475 0.19472 0.87862 0.0
C1909 C 0.53289 0.16013 0.89717 0.0
O1910 O 0.61685 0.2191 0.86477 0.0
O1911 O 0.63536 0.20014 0.87414 0.0
O1912 O 0.51537 0.14337 0.90716 0.0
O1913 O 0.53211 0.17871 0.88625 0.0
H1914 H 0.63053 0.2327 0.85719 0.0
H1915 H 0.51797 0.17906 0.88606 0.0
N1916 N 0.57358 0.08426 0.94478 0.0
C1917 C 0.56942 0.0671 0.96596 0.0
C1918 C 0.56596 0.04659 0.95179 0.0
C1919 C 0.56682 0.04515 0.91558 0.0
C1920 C 0.57111 0.06398 0.89454 0.0
C1921 C 0.57442 0.08391 0.91062 0.0
N1922 N 0.57492 0.09526 0.00855 0.0
C1923 C 0.57027 0.07335 1.00238 0.0
O1924 O 0.56969 0.05985 0.0272 0.0
C1925 C 0.57714 0.10493 0.89491 0.0
O1926 O 0.51871 0.09554 0.83564 0.0
O1927 O 0.54629 0.12178 0.80505 0.0
C1928 C 0.58335 0.10563 0.04167 0.0
C1929 C 0.56868 0.0981 0.07042 0.0
C1930 C 0.57762 0.10485 0.10376 0.0
C1931 C 0.60111 0.11944 0.10824 0.0
C1932 C 0.61598 0.12631 0.08018 0.0
C1933 C 0.60703 0.11905 0.04711 0.0
O1934 O 0.55802 0.06025 0.79127 0.0
O1935 O 0.53468 0.0332 0.82518 0.0
O1936 O 0.51575 0.05898 0.84856 0.0
O1937 O 0.48318 0.02889 0.85815 0.0
O1938 O 0.58045 0.10878 0.86078 0.0
C1939 C 0.52716 0.07302 0.7395 0.0
O1940 O 0.51056 0.05404 0.75037 0.0
O1941 O 0.54331 0.08649 0.75939 0.0
C1942 C 0.52691 0.11439 0.81958 0.0
H1943 H 0.54368 0.15335 0.01632 0.0
H1944 H 0.61774 0.18726 0.01119 0.0
H1945 H 0.58208 0.18749 0.02807 0.0
H1946 H 0.52768 0.08705 0.90195 0.0
H1947 H 0.48491 0.015 0.91994 0.0
H1948 H 0.52286 0.06 1.00301 0.0
H1949 H 0.64069 0.15213 0.91749 0.0
H1950 H 0.61383 0.08994 0.97591 0.0
H1951 H 0.66841 0.10734 0.90589 0.0
H1952 H 0.56271 0.03223 0.96794 0.0
H1953 H 0.56407 0.02947 0.90384 0.0
H1954 H 0.57147 0.06285 0.86686 0.0
H1955 H 0.55063 0.08618 0.06689 0.0
H1956 H 0.60798 0.12443 0.13399 0.0
H1957 H 0.61874 0.12223 0.02625 0.0
Cd1958 Cd 0.91053 0.46146 0.81886 0.0
C1959 C 0.95999 0.50996 0.80109 0.0
C1960 C 0.84846 0.46722 0.97516 0.0
O1961 O 0.83348 0.47406 0.97889 0.0
Cd1962 Cd 0.96996 0.47047 0.8006 0.0
C1963 C 0.84365 0.44457 0.98675 0.0
C1964 C 0.84264 0.40396 1.00424 0.0
C1965 C 0.86194 0.42235 0.98941 0.0
N1966 N 0.86121 0.44121 0.98176 0.0
C1967 C 0.82374 0.427 1.0016 0.0
C1968 C 0.82338 0.4065 0.0104 0.0
Co1969 Co 0.88695 0.46484 0.96215 0.0
C1970 C 0.88371 0.42404 0.97954 0.0
O1971 O 0.88792 0.40722 0.98399 0.0
C1972 C 0.92073 0.44868 0.95188 0.0
C1973 C 0.92437 0.44619 0.9171 0.0
C1974 C 0.94647 0.45285 0.9052 0.0
C1975 C 0.96482 0.46263 0.92826 0.0
C1976 C 0.96115 0.46593 0.96269 0.0
C1977 C 0.93895 0.45782 0.97469 0.0
C1978 C 0.95116 0.45364 0.86821 0.0
C1979 C 0.87632 0.50264 0.94585 0.0
C1980 C 0.86116 0.50397 0.92247 0.0
C1981 C 0.89627 0.5227 0.95519 0.0
C1982 C 0.90142 0.54356 0.94052 0.0
C1983 C 0.8863 0.54479 0.91738 0.0
C1984 C 0.86552 0.52508 0.90921 0.0
N1985 N 0.87009 0.4813 0.9625 0.0
N1986 N 0.89889 0.44405 0.96383 0.0
N1987 N 0.87692 0.45576 0.91495 0.0
C1988 C 0.85679 0.43539 0.90419 0.0
C1989 C 0.83734 0.43621 0.89427 0.0
C1990 C 0.85663 0.41462 0.90329 0.0
C1991 C 0.81748 0.41625 0.88382 0.0
H1992 H 0.83779 0.45243 0.89481 0.0
C1993 C 0.81746 0.39542 0.88332 0.0
C1994 C 0.837 0.39444 0.89301 0.0
C1995 C 0.79677 0.41709 0.87341 0.0
H1996 H 0.87186 0.41421 0.9104 0.0
H1997 H 0.80223 0.37995 0.87537 0.0
C1998 C 0.83689 0.37241 0.89233 0.0
O1999 O 0.77772 0.39782 0.86352 0.0
O2000 O 0.79681 0.4352 0.87368 0.0
O2001 O 0.85351 0.37142 0.90239 0.0
O2002 O 0.8184 0.35329 0.88062 0.0
H2003 H 0.76405 0.39798 0.85661 0.0
H2004 H 0.81802 0.33879 0.87986 0.0
N2005 N 0.91295 0.48824 0.94284 0.0
C2006 C 0.9301 0.50087 0.96422 0.0
C2007 C 0.95075 0.51794 0.95037 0.0
C2008 C 0.95236 0.5206 0.91423 0.0
C2009 C 0.93356 0.50641 0.89294 0.0
C2010 C 0.91348 0.4898 0.90871 0.0
N2011 N 0.90173 0.47811 0.00655 0.0
C2012 C 0.92376 0.49518 1.00052 0.0
O2013 O 0.93732 0.50789 0.02544 0.0
C2014 C 0.8925 0.4718 0.89262 0.0
O2015 O 0.90225 0.42372 0.83294 0.0
O2016 O 0.87635 0.42579 0.80248 0.0
C2017 C 0.89144 0.47667 0.03965 0.0
C2018 C 0.89964 0.47091 0.06916 0.0
C2019 C 0.89305 0.47396 0.10218 0.0
C2020 C 0.87763 0.48199 0.10557 0.0
C2021 C 0.87017 0.48878 0.07672 0.0
C2022 C 0.87768 0.4866 0.0441 0.0
O2023 O 0.93937 0.49885 0.79059 0.0
O2024 O 0.9657 0.50109 0.82478 0.0
O2025 O 0.93889 0.45659 0.84672 0.0
O2026 O 0.96843 0.45316 0.85665 0.0
O2027 O 0.88896 0.4717 0.85845 0.0
C2028 C 0.92531 0.45484 0.73752 0.0
O2029 O 0.94394 0.45657 0.74879 0.0
O2030 O 0.91202 0.45799 0.75714 0.0
C2031 C 0.88333 0.41345 0.81703 0.0
H2032 H 0.84236 0.38825 0.01069 0.0
H2033 H 0.80901 0.42895 1.0062 0.0
H2034 H 0.8082 0.39258 0.02185 0.0
H2035 H 0.91024 0.43981 0.89927 0.0
H2036 H 0.98214 0.46935 0.91895 0.0
H2037 H 0.93595 0.46053 1.00118 0.0
H2038 H 0.84541 0.48866 0.91577 0.0
H2039 H 0.90738 0.52256 0.9749 0.0
H2040 H 0.89027 0.56139 0.9077 0.0
H2041 H 0.96509 0.52878 0.96673 0.0
H2042 H 0.96816 0.53353 0.90274 0.0
H2043 H 0.93483 0.50816 0.86529 0.0
H2044 H 0.91203 0.4653 0.0664 0.0
H2045 H 0.87306 0.48486 0.13106 0.0
H2046 H 0.87414 0.49423 0.02256 0.0
Cd2047 Cd 0.53172 0.4451 0.817 0.0
C2048 C 0.48926 0.44636 0.79499 0.0
C2049 C 0.52965 0.37802 0.97358 0.0
O2050 O 0.52363 0.35633 0.97636 0.0
Cd2051 Cd 0.5272 0.50343 0.79613 0.0
C2052 C 0.55209 0.39633 0.98511 0.0
C2053 C 0.5918 0.43663 1.00329 0.0
C2054 C 0.57308 0.43689 0.98846 0.0
N2055 N 0.55472 0.417 0.98036 0.0
C2056 C 0.57005 0.39464 0.99996 0.0
C2057 C 0.5901 0.41515 0.00907 0.0
Co2058 Co 0.53052 0.41824 0.96117 0.0
C2059 C 0.57046 0.45653 0.97914 0.0
O2060 O 0.58669 0.47779 0.98402 0.0
C2061 C 0.54476 0.46776 0.95188 0.0
C2062 C 0.54761 0.47449 0.91741 0.0
C2063 C 0.54058 0.4897 0.90573 0.0
C2064 C 0.53032 0.4977 0.92889 0.0
C2065 C 0.52673 0.49021 0.96316 0.0
C2066 C 0.53491 0.47606 0.97477 0.0
C2067 C 0.54006 0.49375 0.86869 0.0
C2068 C 0.49346 0.36943 0.94575 0.0
C2069 C 0.49215 0.35362 0.92114 0.0
C2070 C 0.47328 0.36827 0.9573 0.0
C2071 C 0.45229 0.35247 0.9432 0.0
C2072 C 0.45108 0.33698 0.91851 0.0
C2073 C 0.47095 0.33676 0.90838 0.0
N2074 N 0.51503 0.38497 0.96134 0.0
N2075 N 0.55027 0.45109 0.96344 0.0
N2076 N 0.53975 0.41805 0.91374 0.0
C2077 C 0.56035 0.41884 0.90281 0.0
C2078 C 0.55991 0.39894 0.89177 0.0
C2079 C 0.58104 0.43954 0.90334 0.0
C2080 C 0.58016 0.39951 0.88166 0.0
H2081 H 0.54377 0.38308 0.89129 0.0
C2082 C 0.6009 0.42039 0.88272 0.0
C2083 C 0.60151 0.44052 0.89361 0.0
C2084 C 0.57974 0.37836 0.87015 0.0
H2085 H 0.58114 0.45493 0.91116 0.0
H2086 H 0.6166 0.42098 0.87516 0.0
C2087 C 0.62348 0.46246 0.89494 0.0
O2088 O 0.5993 0.37902 0.86069 0.0
O2089 O 0.56172 0.36022 0.86914 0.0
O2090 O 0.62424 0.47954 0.90698 0.0
O2091 O 0.64283 0.46371 0.88291 0.0
H2092 H 0.59942 0.36545 0.85311 0.0
H2093 H 0.6573 0.47786 0.88343 0.0
N2094 N 0.50647 0.41986 0.94222 0.0
C2095 C 0.49274 0.42247 0.96397 0.0
C2096 C 0.47428 0.4239 0.95055 0.0
C2097 C 0.47151 0.42295 0.91444 0.0
C2098 C 0.48686 0.42036 0.89275 0.0
C2099 C 0.50472 0.41877 0.9081 0.0
N2100 N 0.51705 0.41875 1.00565 0.0
C2101 C 0.49866 0.42175 1.00017 0.0
O2102 O 0.48499 0.4203 0.02531 0.0
C2103 C 0.52335 0.41703 0.89158 0.0
O2104 O 0.56967 0.46959 0.83608 0.0
O2105 O 0.56584 0.44466 0.79728 0.0
C2106 C 0.52025 0.41136 0.03886 0.0
C2107 C 0.52654 0.42637 0.06714 0.0
C2108 C 0.52429 0.418 0.10087 0.0
C2109 C 0.51624 0.39472 0.10624 0.0
C2110 C 0.5091 0.37946 0.07858 0.0
C2111 C 0.51102 0.3879 0.04509 0.0
O2112 O 0.48942 0.42773 0.79721 0.0
O2113 O 0.50767 0.46387 0.80254 0.0
O2114 O 0.53711 0.47831 0.8477 0.0
O2115 O 0.54011 0.51131 0.85691 0.0
O2116 O 0.52351 0.41381 0.85731 0.0
C2117 C 0.54305 0.47561 0.73559 0.0
O2118 O 0.54325 0.49391 0.74506 0.0
O2119 O 0.53847 0.45922 0.75651 0.0
C2120 C 0.57901 0.46179 0.81608 0.0
H2121 H 0.60715 0.45233 0.0101 0.0
H2122 H 0.5687 0.37821 1.00441 0.0
H2123 H 0.60429 0.41439 0.02056 0.0
H2124 H 0.55461 0.46733 0.89961 0.0
H2125 H 0.52334 0.50807 0.91958 0.0
H2126 H 0.53252 0.47042 1.0013 0.0
H2127 H 0.50756 0.35378 0.91309 0.0
H2128 H 0.47344 0.3787 0.97827 0.0
H2129 H 0.43441 0.32419 0.9093 0.0
H2130 H 0.46238 0.42557 0.96721 0.0
H2131 H 0.45749 0.42416 0.9033 0.0
H2132 H 0.48486 0.41978 0.86515 0.0
H2133 H 0.5318 0.44418 0.0629 0.0
H2134 H 0.51424 0.38827 0.1323 0.0
H2135 H 0.50308 0.37586 0.02442 0.0
Cd2136 Cd 0.57525 0.78027 0.65287 0.0
C2137 C 0.62344 0.77957 0.63424 0.0
C2138 C 0.51371 0.71381 0.80955 0.0
O2139 O 0.4986 0.69203 0.81346 0.0
Cd2140 Cd 0.6362 0.82945 0.63354 0.0
C2141 C 0.50905 0.73185 0.82062 0.0
C2142 C 0.50837 0.77176 0.83712 0.0
C2143 C 0.52764 0.77241 0.8227 0.0
N2144 N 0.52676 0.75268 0.81556 0.0
C2145 C 0.48915 0.72978 0.83508 0.0
C2146 C 0.48897 0.75008 0.8434 0.0
Co2147 Co 0.5524 0.75445 0.79627 0.0
C2148 C 0.54952 0.79232 0.81263 0.0
O2149 O 0.55389 0.81344 0.81661 0.0
C2150 C 0.58651 0.80421 0.78502 0.0
C2151 C 0.59016 0.81003 0.7501 0.0
C2152 C 0.6123 0.82514 0.73797 0.0
C2153 C 0.63067 0.83374 0.761 0.0
C2154 C 0.62703 0.82703 0.79556 0.0
C2155 C 0.60481 0.81328 0.80775 0.0
C2156 C 0.61704 0.82865 0.70088 0.0
C2157 C 0.54191 0.70581 0.78228 0.0
C2158 C 0.52728 0.68907 0.75876 0.0
C2159 C 0.56165 0.70586 0.79331 0.0
C2160 C 0.56724 0.69014 0.78005 0.0
C2161 C 0.55276 0.67362 0.75663 0.0
C2162 C 0.53213 0.67236 0.74679 0.0
N2163 N 0.53539 0.72115 0.79732 0.0
N2164 N 0.5646 0.78724 0.7972 0.0
N2165 N 0.54236 0.75313 0.74902 0.0
C2166 C 0.52223 0.7533 0.73803 0.0
C2167 C 0.50284 0.73298 0.72812 0.0
C2168 C 0.52203 0.77389 0.73684 0.0
C2169 C 0.48299 0.73302 0.71736 0.0
H2170 H 0.50333 0.71723 0.7289 0.0
C2171 C 0.48292 0.75381 0.71665 0.0
C2172 C 0.5024 0.77435 0.72637 0.0
C2173 C 0.46237 0.71145 0.70685 0.0
H2174 H 0.53726 0.78957 0.74385 0.0
H2175 H 0.46769 0.754 0.70851 0.0
C2176 C 0.50221 0.79624 0.72555 0.0
O2177 O 0.44335 0.71161 0.69662 0.0
O2178 O 0.46245 0.6934 0.70732 0.0
O2179 O 0.5187 0.81385 0.73593 0.0
O2180 O 0.48381 0.79685 0.71336 0.0
H2181 H 0.42973 0.69776 0.68963 0.0
H2182 H 0.48338 0.81094 0.7125 0.0
N2183 N 0.57829 0.75667 0.77723 0.0
C2184 C 0.59541 0.76123 0.79871 0.0
C2185 C 0.61594 0.7644 0.78504 0.0
C2186 C 0.61746 0.76288 0.74896 0.0
C2187 C 0.59869 0.75823 0.72756 0.0
C2188 C 0.57874 0.75524 0.74315 0.0
N2189 N 0.56711 0.75625 0.84078 0.0
C2190 C 0.5891 0.76102 0.83495 0.0
O2191 O 0.60259 0.76196 0.86006 0.0
C2192 C 0.5578 0.75229 0.72689 0.0
O2193 O 0.56733 0.80993 0.66745 0.0
O2194 O 0.54133 0.7824 0.63654 0.0
C2195 C 0.55676 0.74782 0.87396 0.0
C2196 C 0.56489 0.76217 0.90301 0.0
C2197 C 0.55866 0.75291 0.93628 0.0
C2198 C 0.54357 0.72946 0.94049 0.0
C2199 C 0.53585 0.71484 0.91203 0.0
C2200 C 0.54304 0.72419 0.8791 0.0
O2201 O 0.6028 0.77025 0.62392 0.0
O2202 O 0.6291 0.79374 0.6585 0.0
O2203 O 0.6045 0.81345 0.67959 0.0
O2204 O 0.63478 0.84588 0.68914 0.0
O2205 O 0.55416 0.74862 0.69279 0.0
C2206 C 0.59105 0.80121 0.57093 0.0
O2207 O 0.61024 0.81766 0.5815 0.0
O2208 O 0.57727 0.78555 0.59124 0.0
C2209 C 0.54851 0.80166 0.65133 0.0
H2210 H 0.5082 0.7873 0.84316 0.0
H2211 H 0.47431 0.71319 0.83975 0.0
H2212 H 0.47381 0.74902 0.85455 0.0
H2213 H 0.57597 0.80223 0.73237 0.0
H2214 H 0.64799 0.84415 0.75158 0.0
H2215 H 0.60181 0.8078 0.83436 0.0
H2216 H 0.51165 0.68849 0.75085 0.0
H2217 H 0.57225 0.71725 0.81327 0.0
H2218 H 0.55706 0.66101 0.74804 0.0
H2219 H 0.63025 0.76791 0.80148 0.0
H2220 H 0.63316 0.76539 0.73761 0.0
H2221 H 0.59988 0.75734 0.69996 0.0
H2222 H 0.57713 0.78017 0.89972 0.0
H2223 H 0.53927 0.72241 0.96624 0.0
H2224 H 0.53924 0.71278 0.85783 0.0
Cd2225 Cd 0.21281 0.79582 0.64974 0.0
C2226 C 0.21198 0.83866 0.62786 0.0
C2227 C 0.27971 0.79846 0.80586 0.0
O2228 O 0.30146 0.80483 0.80916 0.0
Cd2229 Cd 0.15462 0.8003 0.62817 0.0
C2230 C 0.2616 0.77595 0.81751 0.0
C2231 C 0.22159 0.73582 0.83527 0.0
C2232 C 0.22106 0.75457 0.82103 0.0
N2233 N 0.24084 0.77317 0.81323 0.0
C2234 C 0.26354 0.75798 0.83175 0.0
C2235 C 0.24318 0.73773 0.8407 0.0
Co2236 Co 0.23923 0.7972 0.79411 0.0
C2237 C 0.20122 0.75686 0.81175 0.0
O2238 O 0.18006 0.74032 0.81631 0.0
C2239 C 0.18943 0.78212 0.78449 0.0
C2240 C 0.18302 0.77954 0.74983 0.0
C2241 C 0.168 0.78677 0.73792 0.0
C2242 C 0.16 0.79709 0.76096 0.0
C2243 C 0.16709 0.8003 0.79538 0.0
C2244 C 0.18085 0.79175 0.80729 0.0
C2245 C 0.1641 0.78745 0.70084 0.0
C2246 C 0.28788 0.83468 0.77844 0.0
C2247 C 0.30439 0.83646 0.75474 0.0
C2248 C 0.28813 0.85457 0.78922 0.0
C2249 C 0.30385 0.87572 0.77546 0.0
C2250 C 0.3201 0.8774 0.75182 0.0
C2251 C 0.32112 0.85785 0.74234 0.0
N2252 N 0.27252 0.81298 0.79391 0.0
N2253 N 0.20638 0.77704 0.79628 0.0
N2254 N 0.23955 0.78806 0.74672 0.0
C2255 C 0.23939 0.76777 0.73577 0.0
C2256 C 0.25963 0.76876 0.72521 0.0
C2257 C 0.21893 0.74685 0.73576 0.0
C2258 C 0.25966 0.74881 0.71506 0.0
H2259 H 0.27529 0.7851 0.72513 0.0
C2260 C 0.23902 0.72783 0.71556 0.0
C2261 C 0.21854 0.72668 0.72591 0.0
C2262 C 0.28118 0.74981 0.70409 0.0
H2263 H 0.2033 0.74634 0.74329 0.0
H2264 H 0.23889 0.71235 0.70793 0.0
C2265 C 0.19684 0.70444 0.72656 0.0
O2266 O 0.2811 0.73054 0.69461 0.0
O2267 O 0.29911 0.76805 0.70354 0.0
O2268 O 0.17938 0.70326 0.73778 0.0
O2269 O 0.19623 0.68534 0.71481 0.0
H2270 H 0.29492 0.7308 0.68736 0.0
H2271 H 0.18225 0.67071 0.71492 0.0
N2272 N 0.23713 0.82099 0.77524 0.0
C2273 C 0.23298 0.83373 0.79698 0.0
C2274 C 0.2295 0.85095 0.78354 0.0
C2275 C 0.23015 0.85361 0.74743 0.0
C2276 C 0.23428 0.83926 0.72574 0.0
C2277 C 0.23776 0.82252 0.74109 0.0
N2278 N 0.23851 0.81059 0.83876 0.0
C2279 C 0.2338 0.82788 0.83317 0.0
O2280 O 0.23342 0.84069 0.85833 0.0
C2281 C 0.24019 0.80428 0.72459 0.0
O2282 O 0.18818 0.75757 0.66801 0.0
O2283 O 0.21336 0.76177 0.62945 0.0
C2284 C 0.24744 0.80882 0.87164 0.0
C2285 C 0.23364 0.80326 0.90126 0.0
C2286 C 0.24336 0.80616 0.93417 0.0
C2287 C 0.26672 0.81383 0.93742 0.0
C2288 C 0.28091 0.82038 0.90851 0.0
C2289 C 0.27113 0.81829 0.8759 0.0
O2290 O 0.23043 0.83818 0.63052 0.0
O2291 O 0.1942 0.82027 0.63464 0.0
O2292 O 0.17955 0.79043 0.67987 0.0
O2293 O 0.14657 0.78742 0.689 0.0
O2294 O 0.24381 0.80437 0.69042 0.0
C2295 C 0.18306 0.78495 0.56808 0.0
O2296 O 0.16449 0.78427 0.57734 0.0
O2297 O 0.19934 0.78966 0.58923 0.0
C2298 C 0.19607 0.74841 0.64783 0.0
H2299 H 0.20599 0.72028 0.84178 0.0
H2300 H 0.28006 0.75945 0.83577 0.0
H2301 H 0.24414 0.72352 0.85168 0.0
H2302 H 0.19032 0.77264 0.73208 0.0
H2303 H 0.14971 0.80417 0.75167 0.0
H2304 H 0.18668 0.79442 0.83372 0.0
H2305 H 0.30482 0.82129 0.74706 0.0
H2306 H 0.27702 0.85407 0.8094 0.0
H2307 H 0.33276 0.8942 0.74284 0.0
H2308 H 0.2263 0.86188 0.80019 0.0
H2309 H 0.22729 0.86663 0.73625 0.0
H2310 H 0.2343 0.84094 0.69814 0.0
H2311 H 0.21571 0.798 0.89868 0.0
H2312 H 0.27417 0.81664 0.9629 0.0
H2313 H 0.28228 0.82563 0.85425 0.0
Cd2314 Cd 0.20185 0.41985 0.65494 0.0
C2315 C 0.15402 0.36882 0.63711 0.0
C2316 C 0.19435 0.48169 0.81097 0.0
O2317 O 0.18748 0.49671 0.81368 0.0
Cd2318 Cd 0.19558 0.36203 0.63684 0.0
C2319 C 0.21697 0.48668 0.82299 0.0
C2320 C 0.25725 0.48767 0.84255 0.0
C2321 C 0.23934 0.46856 0.82659 0.0
N2322 N 0.22067 0.46935 0.81777 0.0
C2323 C 0.23407 0.50639 0.83894 0.0
C2324 C 0.25443 0.50675 0.84873 0.0
Co2325 Co 0.19725 0.44347 0.79825 0.0
C2326 C 0.2378 0.44678 0.81716 0.0
O2327 O 0.25457 0.4426 0.82247 0.0
C2328 C 0.21374 0.40987 0.78874 0.0
C2329 C 0.21712 0.40667 0.75412 0.0
C2330 C 0.21111 0.3848 0.74195 0.0
C2331 C 0.20122 0.36622 0.76454 0.0
C2332 C 0.19696 0.36935 0.79875 0.0
C2333 C 0.20425 0.39134 0.8111 0.0
C2334 C 0.21104 0.38048 0.70495 0.0
C2335 C 0.15952 0.45383 0.78046 0.0
C2336 C 0.15854 0.46896 0.75664 0.0
C2337 C 0.13936 0.43379 0.78918 0.0
C2338 C 0.11876 0.42851 0.77344 0.0
C2339 C 0.11789 0.4436 0.74984 0.0
C2340 C 0.13767 0.46448 0.74233 0.0
N2341 N 0.18057 0.4601 0.798 0.0
N2342 N 0.21805 0.43158 0.80088 0.0
N2343 N 0.20654 0.45322 0.751 0.0
C2344 C 0.22679 0.47347 0.74021 0.0
C2345 C 0.22557 0.49241 0.72862 0.0
C2346 C 0.24786 0.47424 0.74081 0.0
C2347 C 0.2454 0.51238 0.71809 0.0
H2348 H 0.20913 0.49147 0.72789 0.0
C2349 C 0.26653 0.51301 0.71919 0.0
C2350 C 0.26791 0.49397 0.73045 0.0
C2351 C 0.24412 0.53253 0.70588 0.0
H2352 H 0.24859 0.45937 0.74909 0.0
H2353 H 0.2819 0.52832 0.71115 0.0
C2354 C 0.29024 0.4947 0.73131 0.0
O2355 O 0.26327 0.55167 0.6959 0.0
O2356 O 0.22576 0.53194 0.70474 0.0
O2357 O 0.29144 0.47826 0.74174 0.0
O2358 O 0.30941 0.51354 0.72058 0.0
H2359 H 0.26283 0.56499 0.68784 0.0
H2360 H 0.32411 0.51434 0.72087 0.0
N2361 N 0.17401 0.41729 0.77911 0.0
C2362 C 0.16127 0.40032 0.80074 0.0
C2363 C 0.14438 0.37951 0.7871 0.0
C2364 C 0.142 0.37757 0.75092 0.0
C2365 C 0.15628 0.3962 0.72938 0.0
C2366 C 0.1727 0.41647 0.74495 0.0
N2367 N 0.18388 0.42911 0.84256 0.0
C2368 C 0.16676 0.40705 0.83698 0.0
O2369 O 0.15407 0.39377 0.86214 0.0
C2370 C 0.1907 0.43742 0.7287 0.0
O2371 O 0.23963 0.42806 0.66875 0.0
O2372 O 0.23768 0.45393 0.63811 0.0
C2373 C 0.18596 0.43981 0.87541 0.0
C2374 C 0.19351 0.43278 0.90424 0.0
C2375 C 0.19152 0.43983 0.93744 0.0
C2376 C 0.18236 0.45423 0.94168 0.0
C2377 C 0.17392 0.46057 0.91353 0.0
C2378 C 0.17544 0.45301 0.88062 0.0
O2379 O 0.16497 0.38955 0.62698 0.0
O2380 O 0.16297 0.36292 0.66047 0.0
O2381 O 0.20776 0.3925 0.68346 0.0
O2382 O 0.21256 0.36379 0.69333 0.0
O2383 O 0.19087 0.44086 0.69448 0.0
C2384 C 0.20812 0.40583 0.57333 0.0
O2385 O 0.20739 0.38763 0.58452 0.0
O2386 O 0.20469 0.41882 0.59319 0.0
C2387 C 0.24997 0.4469 0.65266 0.0
H2388 H 0.27278 0.48789 0.85004 0.0
H2389 H 0.23181 0.5209 0.84384 0.0
H2390 H 0.26795 0.52176 0.86114 0.0
H2391 H 0.22371 0.42098 0.73657 0.0
H2392 H 0.19518 0.34907 0.75493 0.0
H2393 H 0.20085 0.39392 0.83744 0.0
H2394 H 0.17391 0.4848 0.75046 0.0
H2395 H 0.13918 0.4227 0.8092 0.0
H2396 H 0.10145 0.43955 0.73935 0.0
H2397 H 0.13348 0.3653 0.80362 0.0
H2398 H 0.12922 0.36163 0.7396 0.0
H2399 H 0.15476 0.39464 0.70172 0.0
H2400 H 0.19983 0.42099 0.90091 0.0
H2401 H 0.18054 0.4594 0.96733 0.0
H2402 H 0.16661 0.45577 0.85975 0.0
Cd2403 Cd 0.446 0.9088 0.1917 0.0
C2404 C 0.44671 0.95802 0.211 0.0
C2405 C 0.37734 0.84644 0.03437 0.0
O2406 O 0.35564 0.83099 0.03085 0.0
Cd2407 Cd 0.49617 0.96875 0.21007 0.0
C2408 C 0.39557 0.84225 0.02269 0.0
C2409 C 0.43573 0.84274 1.00399 0.0
C2410 C 0.43613 0.86141 0.02017 0.0
N2411 N 0.41629 0.85992 0.02856 0.0
C2412 C 0.39375 0.82293 0.00649 0.0
C2413 C 0.41418 0.82332 0.99716 0.0
Co2414 Co 0.41771 0.88529 0.04833 0.0
C2415 C 0.45587 0.88343 0.03012 0.0
O2416 O 0.47708 0.88832 0.02512 0.0
C2417 C 0.46746 0.92007 0.05856 0.0
C2418 C 0.47406 0.92341 0.09318 0.0
C2419 C 0.48956 0.94541 0.10533 0.0
C2420 C 0.49787 0.96396 0.0827 0.0
C2421 C 0.49046 0.96067 0.0485 0.0
C2422 C 0.47612 0.93859 0.03618 0.0
C2423 C 0.49389 0.94986 0.14232 0.0
C2424 C 0.36889 0.87308 0.06549 0.0
C2425 C 0.35251 0.85714 0.08829 0.0
C2426 C 0.36844 0.8931 0.05782 0.0
C2427 C 0.35269 0.89766 0.07383 0.0
C2428 C 0.33661 0.88188 0.0966 0.0
C2429 C 0.33578 0.86099 0.1029 0.0
N2430 N 0.38436 0.86774 0.0479 0.0
N2431 N 0.45058 0.89813 0.04631 0.0
N2432 N 0.41728 0.8754 0.09545 0.0
C2433 C 0.41787 0.85542 0.10605 0.0
C2434 C 0.39785 0.83596 0.11671 0.0
C2435 C 0.43858 0.85546 0.10631 0.0
C2436 C 0.39829 0.81629 0.12725 0.0
H2437 H 0.38201 0.83629 0.11676 0.0
C2438 C 0.4192 0.81647 0.12708 0.0
C2439 C 0.43947 0.83603 0.1167 0.0
C2440 C 0.37702 0.79561 0.13855 0.0
H2441 H 0.45404 0.87072 0.09867 0.0
H2442 H 0.41971 0.80139 0.13514 0.0
C2443 C 0.46153 0.83617 0.11684 0.0
O2444 O 0.37757 0.77676 0.14864 0.0
O2445 O 0.35886 0.79548 0.13885 0.0
O2446 O 0.47903 0.85303 0.10703 0.0
O2447 O 0.46241 0.81766 0.12782 0.0
H2448 H 0.36392 0.7631 0.15613 0.0
H2449 H 0.47661 0.81743 0.1282 0.0
N2450 N 0.41966 0.91098 0.06772 0.0
C2451 C 0.42367 0.92798 0.04627 0.0
C2452 C 0.4272 0.9486 0.06012 0.0
C2453 C 0.42668 0.95037 0.09631 0.0
C2454 C 0.42267 0.93176 0.11766 0.0
C2455 C 0.41921 0.91168 0.10189 0.0
N2456 N 0.41857 0.89973 1.00414 0.0
C2457 C 0.42282 0.92153 0.00996 0.0
O2458 O 0.4233 0.93483 0.98489 0.0
C2459 C 0.4169 0.89093 0.11794 0.0
O2460 O 0.47597 0.90109 0.17785 0.0
O2461 O 0.44844 0.87517 0.20885 0.0
C2462 C 0.41071 0.88922 0.97098 0.0
C2463 C 0.42576 0.89695 0.9427 0.0
C2464 C 0.41733 0.89008 0.90918 0.0
C2465 C 0.39398 0.87516 0.90402 0.0
C2466 C 0.37869 0.86813 0.93157 0.0
C2467 C 0.38714 0.87547 0.96488 0.0
O2468 O 0.43742 0.93731 0.22104 0.0
O2469 O 0.46089 0.96393 0.18669 0.0
O2470 O 0.47892 0.93747 0.16399 0.0
O2471 O 0.51162 0.96723 0.15371 0.0
O2472 O 0.41398 0.88743 0.15219 0.0
C2473 C 0.46726 0.92404 0.27311 0.0
O2474 O 0.4841 0.94276 0.26196 0.0
O2475 O 0.45099 0.9106 0.25336 0.0
C2476 C 0.46781 0.88242 0.19438 0.0
H2477 H 0.45138 0.8431 0.99682 0.0
H2478 H 0.37725 0.80816 1.00109 0.0
H2479 H 0.41331 0.80863 0.98457 0.0
H2480 H 0.46666 0.90909 0.11073 0.0
H2481 H 0.50875 0.98117 0.09224 0.0
H2482 H 0.47019 0.93587 0.0098 0.0
H2483 H 0.35215 0.84124 0.09362 0.0
H2484 H 0.37944 0.90476 0.0384 0.0
H2485 H 0.32395 0.88541 0.10744 0.0
H2486 H 0.43035 0.96283 0.04374 0.0
H2487 H 0.42955 0.96616 0.1078 0.0
H2488 H 0.4227 0.9332 0.14534 0.0
H2489 H 0.44369 0.90918 0.9467 0.0
H2490 H 0.38751 0.87015 0.87807 0.0
H2491 H 0.37513 0.87211 0.98538 0.0
Cd2492 Cd 0.08327 0.53392 0.19435 0.0
C2493 C 0.03408 0.48501 0.21419 0.0
C2494 C 0.14522 0.52914 0.03636 0.0
O2495 O 0.16018 0.52229 0.03213 0.0
Cd2496 Cd 0.02417 0.52426 0.21324 0.0
C2497 C 0.15004 0.55192 0.02548 0.0
C2498 C 0.15096 0.59263 0.00903 0.0
C2499 C 0.13177 0.57419 0.02396 0.0
N2500 N 0.13255 0.5553 0.03118 0.0
C2501 C 0.16985 0.56956 0.0105 0.0
C2502 C 0.17016 0.59012 1.00225 0.0
Co2503 Co 0.10681 0.53144 0.05033 0.0
C2504 C 0.10997 0.57236 0.03409 0.0
O2505 O 0.10568 0.58916 0.03003 0.0
C2506 C 0.07288 0.54731 0.06137 0.0
C2507 C 0.06908 0.54934 0.09624 0.0
C2508 C 0.04689 0.54218 0.10817 0.0
C2509 C 0.0286 0.53242 0.08503 0.0
C2510 C 0.03241 0.52954 0.05047 0.0
C2511 C 0.05469 0.53816 0.03847 0.0
C2512 C 0.04212 0.5409 0.1452 0.0
C2513 C 0.11746 0.49356 0.06545 0.0
C2514 C 0.13259 0.4921 0.08872 0.0
C2515 C 0.09745 0.47358 0.05603 0.0
C2516 C 0.09215 0.45267 0.07068 0.0
C2517 C 0.10717 0.45133 0.09387 0.0
C2518 C 0.12802 0.47095 0.10204 0.0
N2519 N 0.12366 0.515 0.04917 0.0
N2520 N 0.0948 0.55219 0.04942 0.0
N2521 N 0.11672 0.53999 0.09772 0.0
C2522 C 0.13679 0.56029 0.10882 0.0
C2523 C 0.15633 0.55949 0.11825 0.0
C2524 C 0.13685 0.581 0.11037 0.0
C2525 C 0.17618 0.57941 0.12887 0.0
H2526 H 0.15597 0.54333 0.11716 0.0
C2527 C 0.17608 0.60018 0.13005 0.0
C2528 C 0.15646 0.60114 0.12084 0.0
C2529 C 0.19699 0.57861 0.13872 0.0
H2530 H 0.12156 0.5814 0.10358 0.0
H2531 H 0.1913 0.61562 0.13813 0.0
C2532 C 0.15647 0.62311 0.12214 0.0
O2533 O 0.21603 0.59785 0.1487 0.0
O2534 O 0.19705 0.56055 0.13787 0.0
O2535 O 0.13984 0.62414 0.1122 0.0
O2536 O 0.17485 0.64213 0.13433 0.0
H2537 H 0.22978 0.59771 0.15524 0.0
H2538 H 0.17516 0.65658 0.13553 0.0
N2539 N 0.08078 0.5078 0.0692 0.0
C2540 C 0.06371 0.49538 0.04756 0.0
C2541 C 0.04301 0.47818 0.06108 0.0
C2542 C 0.04125 0.4752 0.09717 0.0
C2543 C 0.05994 0.48921 0.11875 0.0
C2544 C 0.0801 0.50594 0.10331 0.0
N2545 N 0.09219 0.51869 1.00569 0.0
C2546 C 0.07018 0.50147 0.01136 0.0
O2547 O 0.05674 0.48905 0.98614 0.0
C2548 C 0.10103 0.5238 0.11977 0.0
O2549 O 0.0907 0.57157 0.18131 0.0
O2550 O 0.11759 0.56996 0.20963 0.0
C2551 C 0.1027 0.52048 0.97268 0.0
C2552 C 0.09544 0.52759 0.94357 0.0
C2553 C 0.10238 0.52523 0.91042 0.0
C2554 C 0.11703 0.51631 0.90656 0.0
C2555 C 0.12362 0.50824 0.93497 0.0
C2556 C 0.11584 0.50992 0.9677 0.0
O2557 O 0.05468 0.49705 0.22451 0.0
O2558 O 0.02774 0.49296 0.18998 0.0
O2559 O 0.05464 0.53818 0.16645 0.0
O2560 O 0.02471 0.541 0.15702 0.0
O2561 O 0.10446 0.52359 0.15394 0.0
C2562 C 0.06933 0.54073 0.27568 0.0
O2563 O 0.05062 0.53892 0.26466 0.0
O2564 O 0.08246 0.53742 0.25596 0.0
C2565 C 0.11002 0.58209 0.19608 0.0
H2566 H 0.15118 0.60836 1.00288 0.0
H2567 H 0.18451 0.5676 1.00533 0.0
H2568 H 0.18525 0.60407 0.99067 0.0
H2569 H 0.08319 0.5557 0.11413 0.0
H2570 H 0.01123 0.52536 0.09435 0.0
H2571 H 0.05782 0.53579 0.01189 0.0
H2572 H 0.14843 0.50734 0.09538 0.0
H2573 H 0.08639 0.47382 0.03633 0.0
H2574 H 0.10307 0.4347 0.1036 0.0
H2575 H 0.02874 0.46749 0.04451 0.0
H2576 H 0.02539 0.46218 0.10839 0.0
H2577 H 0.05852 0.48725 0.14638 0.0
H2578 H 0.08362 0.53389 0.94666 0.0
H2579 H 0.12185 0.51403 0.88091 0.0
H2580 H 0.11886 0.50164 0.98895 0.0
Cd2581 Cd 0.46123 0.55027 0.19561 0.0
C2582 C 0.50382 0.54908 0.21782 0.0
C2583 C 0.46417 0.61827 0.03922 0.0
O2584 O 0.47018 0.63996 0.03646 0.0
Cd2585 Cd 0.46592 0.49194 0.21628 0.0
C2586 C 0.44177 0.59995 0.02754 0.0
C2587 C 0.40206 0.55962 0.00941 0.0
C2588 C 0.42082 0.55938 0.02413 0.0
N2589 N 0.4392 0.57928 0.03214 0.0
C2590 C 0.42377 0.60161 0.01282 0.0
C2591 C 0.40373 0.5811 1.00371 0.0
Co2592 Co 0.46334 0.57805 0.05154 0.0
C2593 C 0.42345 0.53975 0.03351 0.0
O2594 O 0.40723 0.51848 0.0286 0.0
C2595 C 0.4492 0.52854 0.06065 0.0
C2596 C 0.44621 0.52162 0.09504 0.0
C2597 C 0.45324 0.50639 0.10661 0.0
C2598 C 0.46366 0.49857 0.08345 0.0
C2599 C 0.46738 0.50624 0.04927 0.0
C2600 C 0.45921 0.52041 0.03774 0.0
C2601 C 0.45355 0.50209 0.14361 0.0
C2602 C 0.5005 0.62691 0.06668 0.0
C2603 C 0.50204 0.64284 0.09128 0.0
C2604 C 0.52057 0.62803 0.05469 0.0
C2605 C 0.54169 0.64387 0.06835 0.0
C2606 C 0.54314 0.65945 0.09305 0.0
C2607 C 0.52338 0.65973 0.10364 0.0
N2608 N 0.4788 0.61133 0.05148 0.0
N2609 N 0.44365 0.5452 0.04918 0.0
N2610 N 0.45388 0.57813 0.09886 0.0
C2611 C 0.43322 0.5773 0.10956 0.0
C2612 C 0.43355 0.59723 0.12007 0.0
C2613 C 0.41263 0.5565 0.10952 0.0
C2614 C 0.41328 0.5966 0.13021 0.0
H2615 H 0.44964 0.61317 0.12017 0.0
C2616 C 0.39263 0.57562 0.12969 0.0
C2617 C 0.39214 0.55545 0.11932 0.0
C2618 C 0.41359 0.61778 0.14127 0.0
H2619 H 0.41263 0.54111 0.10201 0.0
H2620 H 0.37691 0.57498 0.13731 0.0
C2621 C 0.37026 0.53338 0.11864 0.0
O2622 O 0.39402 0.61705 0.15084 0.0
O2623 O 0.43153 0.63601 0.14182 0.0
O2624 O 0.36962 0.51621 0.10728 0.0
O2625 O 0.35089 0.53213 0.13053 0.0
H2626 H 0.39383 0.63064 0.15815 0.0
H2627 H 0.33648 0.51791 0.13042 0.0
N2628 N 0.48733 0.57647 0.07077 0.0
C2629 C 0.50115 0.57388 0.04916 0.0
C2630 C 0.51952 0.57237 0.06278 0.0
C2631 C 0.52208 0.57318 0.09893 0.0
C2632 C 0.50662 0.57569 0.12046 0.0
C2633 C 0.48886 0.57738 0.10493 0.0
N2634 N 0.477 0.57762 0.0072 0.0
C2635 C 0.49537 0.57463 0.01289 0.0
O2636 O 0.50918 0.57617 0.9879 0.0
C2637 C 0.47007 0.57896 0.12124 0.0
O2638 O 0.42321 0.525 0.17694 0.0
O2639 O 0.42659 0.54953 0.21609 0.0
C2640 C 0.4739 0.58502 0.9739 0.0
C2641 C 0.46778 0.57002 0.94561 0.0
C2642 C 0.47023 0.57841 0.91185 0.0
C2643 C 0.47829 0.60168 0.90646 0.0
C2644 C 0.48524 0.61693 0.93413 0.0
C2645 C 0.48311 0.60847 0.96766 0.0
O2646 O 0.5035 0.56763 0.21564 0.0
O2647 O 0.48548 0.5315 0.21028 0.0
O2648 O 0.45626 0.51733 0.1648 0.0
O2649 O 0.4535 0.48449 0.1552 0.0
O2650 O 0.46953 0.58179 0.15557 0.0
C2651 C 0.45029 0.51998 0.27696 0.0
O2652 O 0.45 0.50165 0.26741 0.0
O2653 O 0.45485 0.53639 0.2561 0.0
C2654 C 0.41361 0.53227 0.19741 0.0
H2655 H 0.38671 0.54392 1.00268 0.0
H2656 H 0.42507 0.61804 0.0085 0.0
H2657 H 0.3895 0.58184 0.99234 0.0
H2658 H 0.43908 0.52864 0.11288 0.0
H2659 H 0.47063 0.48817 0.09271 0.0
H2660 H 0.46167 0.52615 0.01126 0.0
H2661 H 0.48671 0.64272 0.09965 0.0
H2662 H 0.52023 0.61756 0.03367 0.0
H2663 H 0.5599 0.67225 0.10194 0.0
H2664 H 0.53148 0.57071 0.04626 0.0
H2665 H 0.53603 0.5719 0.11022 0.0
H2666 H 0.50844 0.57614 0.14808 0.0
H2667 H 0.46254 0.55222 0.94988 0.0
H2668 H 0.48042 0.60813 0.88038 0.0
H2669 H 0.49087 0.6205 0.98839 0.0
Cd2670 Cd 0.08547 0.54935 0.69281 0.0
C2671 C 0.03522 0.54741 0.70959 0.0
C2672 C 0.14825 0.61708 0.53547 0.0
O2673 O 0.16328 0.63883 0.53093 0.0
Cd2674 Cd 0.02638 0.49837 0.7114 0.0
C2675 C 0.15285 0.59902 0.52444 0.0
C2676 C 0.15331 0.5591 0.50732 0.0
C2677 C 0.13429 0.55848 0.52262 0.0
N2678 N 0.1353 0.57821 0.53025 0.0
C2679 C 0.17251 0.60107 0.5091 0.0
C2680 C 0.1726 0.58076 0.50054 0.0
Co2681 Co 0.10965 0.57647 0.54951 0.0
C2682 C 0.11241 0.53859 0.53261 0.0
O2683 O 0.10794 0.51746 0.52825 0.0
C2684 C 0.07549 0.52661 0.56026 0.0
C2685 C 0.07197 0.52024 0.59495 0.0
C2686 C 0.04992 0.5047 0.6069 0.0
C2687 C 0.03149 0.49625 0.58399 0.0
C2688 C 0.03502 0.50345 0.54965 0.0
C2689 C 0.05718 0.51766 0.53757 0.0
C2690 C 0.04533 0.50057 0.6439 0.0
C2691 C 0.12108 0.62527 0.56552 0.0
C2692 C 0.13685 0.64206 0.58802 0.0
C2693 C 0.1009 0.62528 0.55736 0.0
C2694 C 0.09603 0.64103 0.57259 0.0
C2695 C 0.11164 0.65753 0.59507 0.0
C2696 C 0.13266 0.65876 0.60187 0.0
N2697 N 0.1268 0.60984 0.54862 0.0
N2698 N 0.09738 0.54367 0.54821 0.0
N2699 N 0.11945 0.57749 0.59689 0.0
C2700 C 0.13956 0.57737 0.60804 0.0
C2701 C 0.15869 0.5976 0.61891 0.0
C2702 C 0.13996 0.55687 0.60871 0.0
C2703 C 0.17848 0.5976 0.63004 0.0
H2704 H 0.15802 0.61326 0.61865 0.0
C2705 C 0.17876 0.57692 0.63023 0.0
C2706 C 0.15954 0.55643 0.61963 0.0
C2707 C 0.19881 0.6191 0.64156 0.0
H2708 H 0.12492 0.54123 0.60103 0.0
H2709 H 0.19394 0.57675 0.63872 0.0
C2710 C 0.15989 0.53463 0.62008 0.0
O2711 O 0.21779 0.61898 0.65213 0.0
O2712 O 0.19853 0.63705 0.6416 0.0
O2713 O 0.14352 0.51704 0.60942 0.0
O2714 O 0.17832 0.53408 0.63228 0.0
H2715 H 0.23123 0.63278 0.65977 0.0
H2716 H 0.17887 0.52004 0.6329 0.0
N2717 N 0.08366 0.57419 0.56844 0.0
C2718 C 0.06661 0.56965 0.54682 0.0
C2719 C 0.04585 0.56594 0.56036 0.0
C2720 C 0.044 0.56684 0.59647 0.0
C2721 C 0.06266 0.57141 0.61804 0.0
C2722 C 0.08288 0.57503 0.60256 0.0
N2723 N 0.0951 0.57492 0.50496 0.0
C2724 C 0.07312 0.57022 0.51064 0.0
O2725 O 0.05972 0.56935 0.48545 0.0
C2726 C 0.10373 0.57789 0.61897 0.0
O2727 O 0.09394 0.52003 0.67859 0.0
O2728 O 0.11947 0.54768 0.70988 0.0
C2729 C 0.1055 0.58327 0.47182 0.0
C2730 C 0.09757 0.56874 0.44297 0.0
C2731 C 0.10373 0.57782 0.4096 0.0
C2732 C 0.11851 0.60131 0.40511 0.0
C2733 C 0.12591 0.61611 0.43336 0.0
C2734 C 0.11885 0.60691 0.46641 0.0
O2735 O 0.05585 0.5572 0.72017 0.0
O2736 O 0.02965 0.53262 0.68627 0.0
O2737 O 0.05739 0.51582 0.66544 0.0
O2738 O 0.02826 0.48262 0.65542 0.0
O2739 O 0.10705 0.58122 0.65319 0.0
C2740 C 0.07078 0.52873 0.77461 0.0
O2741 O 0.05219 0.51166 0.7636 0.0
O2742 O 0.0841 0.5449 0.75461 0.0
C2743 C 0.11267 0.52852 0.695 0.0
H2744 H 0.15334 0.54355 0.50085 0.0
H2745 H 0.18721 0.61764 0.50384 0.0
H2746 H 0.18757 0.5818 0.48867 0.0
H2747 H 0.08618 0.52786 0.61266 0.0
H2748 H 0.01422 0.48551 0.59339 0.0
H2749 H 0.0601 0.52346 0.51111 0.0
H2750 H 0.15284 0.64273 0.59372 0.0
H2751 H 0.08937 0.61392 0.53816 0.0
H2752 H 0.10785 0.67015 0.60533 0.0
H2753 H 0.03158 0.56239 0.54379 0.0
H2754 H 0.02809 0.56384 0.60772 0.0
H2755 H 0.06118 0.57169 0.64568 0.0
H2756 H 0.08553 0.55071 0.44647 0.0
H2757 H 0.12272 0.60822 0.37928 0.0
H2758 H 0.12241 0.61838 0.48762 0.0
Cd2759 Cd 0.44785 0.53435 0.69677 0.0
C2760 C 0.44851 0.48522 0.71588 0.0
C2761 C 0.37989 0.5293 0.53946 0.0
O2762 O 0.35807 0.52253 0.53579 0.0
Cd2763 Cd 0.49706 0.52654 0.71436 0.0
C2764 C 0.39776 0.55191 0.52783 0.0
C2765 C 0.4374 0.59239 0.51009 0.0
C2766 C 0.43827 0.574 0.52497 0.0
N2767 N 0.41866 0.5552 0.53278 0.0
C2768 C 0.39547 0.56951 0.51295 0.0
C2769 C 0.41564 0.58995 0.50402 0.0
Co2770 Co 0.4207 0.53147 0.5522 0.0
C2771 C 0.45831 0.57217 0.53457 0.0
O2772 O 0.47937 0.5889 0.5299 0.0
C2773 C 0.4706 0.54729 0.56172 0.0
C2774 C 0.47675 0.54961 0.59642 0.0
C2775 C 0.49177 0.54241 0.60826 0.0
C2776 C 0.5001 0.53244 0.58515 0.0
C2777 C 0.49325 0.52949 0.55061 0.0
C2778 C 0.47944 0.53799 0.53877 0.0
C2779 C 0.49526 0.54136 0.6453 0.0
C2780 C 0.37225 0.49392 0.569 0.0
C2781 C 0.35584 0.49276 0.59238 0.0
C2782 C 0.37206 0.47379 0.55991 0.0
C2783 C 0.35639 0.45303 0.57489 0.0
C2784 C 0.34016 0.45197 0.59808 0.0
C2785 C 0.33915 0.47175 0.60594 0.0
N2786 N 0.38738 0.51517 0.55214 0.0
N2787 N 0.45345 0.5521 0.5501 0.0
N2788 N 0.42009 0.5406 0.59953 0.0
C2789 C 0.42049 0.56104 0.61034 0.0
C2790 C 0.40024 0.56045 0.61966 0.0
C2791 C 0.44122 0.58167 0.61167 0.0
C2792 C 0.40048 0.5805 0.63 0.0
H2793 H 0.38437 0.54434 0.61872 0.0
C2794 C 0.42143 0.60118 0.63106 0.0
C2795 C 0.44192 0.60192 0.62197 0.0
C2796 C 0.37895 0.57992 0.63971 0.0
H2797 H 0.45681 0.58192 0.60479 0.0
H2798 H 0.42179 0.61671 0.63899 0.0
C2799 C 0.46399 0.62378 0.62329 0.0
O2800 O 0.37931 0.59928 0.64945 0.0
O2801 O 0.36076 0.56194 0.63897 0.0
O2802 O 0.48168 0.62451 0.61427 0.0
O2803 O 0.4647 0.64304 0.63449 0.0
H2804 H 0.36549 0.59929 0.65588 0.0
H2805 H 0.47891 0.65744 0.63565 0.0
N2806 N 0.42324 0.50798 0.57135 0.0
C2807 C 0.42757 0.49529 0.54979 0.0
C2808 C 0.43129 0.47827 0.56346 0.0
C2809 C 0.43063 0.47573 0.59961 0.0
C2810 C 0.42626 0.49 0.62111 0.0
C2811 C 0.42258 0.50653 0.60552 0.0
N2812 N 0.42188 0.51815 0.50768 0.0
C2813 C 0.42672 0.50097 0.51352 0.0
O2814 O 0.42739 0.48825 0.48849 0.0
C2815 C 0.41983 0.52462 0.62183 0.0
O2816 O 0.47904 0.57196 0.6863 0.0
O2817 O 0.44964 0.57047 0.71158 0.0
C2818 C 0.41306 0.51981 0.47466 0.0
C2819 C 0.42705 0.52581 0.44516 0.0
C2820 C 0.41744 0.52309 0.41214 0.0
C2821 C 0.39399 0.51503 0.40879 0.0
C2822 C 0.3797 0.50798 0.4376 0.0
C2823 C 0.38938 0.50993 0.4702 0.0
O2824 O 0.44021 0.49746 0.72633 0.0
O2825 O 0.46332 0.49326 0.69237 0.0
O2826 O 0.47993 0.53879 0.66625 0.0
O2827 O 0.513 0.54215 0.65752 0.0
O2828 O 0.41644 0.52466 0.65607 0.0
C2829 C 0.46798 0.54125 0.77818 0.0
O2830 O 0.48534 0.5404 0.76678 0.0
O2831 O 0.45127 0.53729 0.75862 0.0
C2832 C 0.46985 0.58253 0.69975 0.0
H2833 H 0.45285 0.60804 0.50348 0.0
H2834 H 0.37881 0.56762 0.50838 0.0
H2835 H 0.41441 0.60387 0.49251 0.0
H2836 H 0.46922 0.55617 0.61434 0.0
H2837 H 0.51041 0.52539 0.59445 0.0
H2838 H 0.47371 0.53546 0.51228 0.0
H2839 H 0.3554 0.50811 0.59885 0.0
H2840 H 0.3832 0.47377 0.54015 0.0
H2841 H 0.32755 0.43545 0.60803 0.0
H2842 H 0.43465 0.4674 0.54696 0.0
H2843 H 0.43365 0.46285 0.61095 0.0
H2844 H 0.42619 0.4884 0.64877 0.0
H2845 H 0.44505 0.53142 0.44788 0.0
H2846 H 0.3866 0.51238 0.3833 0.0
H2847 H 0.3782 0.50221 0.49174 0.0
Cd2848 Cd 0.45904 0.91231 0.69249 0.0
C2849 C 0.50509 0.96715 0.71 0.0
C2850 C 0.46799 0.84906 0.53639 0.0
O2851 O 0.47542 0.83445 0.53407 0.0
Cd2852 Cd 0.45475 0.95978 0.70748 0.0
C2853 C 0.44542 0.84352 0.52345 0.0
C2854 C 0.40489 0.8413 0.50207 0.0
C2855 C 0.42243 0.86081 0.51778 0.0
N2856 N 0.44125 0.86063 0.52755 0.0
C2857 C 0.42872 0.82342 0.50778 0.0
C2858 C 0.40823 0.82243 0.49709 0.0
Co2859 Co 0.4641 0.88694 0.54719 0.0
C2860 C 0.42338 0.88246 0.52597 0.0
O2861 O 0.40633 0.88609 0.51974 0.0
C2862 C 0.44644 0.91975 0.55345 0.0
C2863 C 0.44142 0.92243 0.58721 0.0
C2864 C 0.44716 0.94409 0.59966 0.0
C2865 C 0.45813 0.9631 0.57815 0.0
C2866 C 0.46375 0.96042 0.54446 0.0
C2867 C 0.45691 0.93857 0.53174 0.0
C2868 C 0.44661 0.94718 0.6366 0.0
C2869 C 0.50216 0.87736 0.56761 0.0
C2870 C 0.50317 0.86219 0.59135 0.0
C2871 C 0.5223 0.89748 0.55912 0.0
C2872 C 0.54289 0.90273 0.57487 0.0
C2873 C 0.5438 0.88753 0.59821 0.0
C2874 C 0.52405 0.86658 0.60552 0.0
N2875 N 0.48125 0.87075 0.54934 0.0
N2876 N 0.44291 0.89822 0.54209 0.0
N2877 N 0.45411 0.87759 0.59452 0.0
C2878 C 0.43417 0.85701 0.6052 0.0
C2879 C 0.43608 0.83868 0.6179 0.0
C2880 C 0.41274 0.85542 0.60385 0.0
C2881 C 0.4166 0.81854 0.62888 0.0
H2882 H 0.45279 0.84025 0.61921 0.0
C2883 C 0.39514 0.81716 0.62733 0.0
C2884 C 0.39306 0.83559 0.61499 0.0
C2885 C 0.41859 0.79899 0.64211 0.0
H2886 H 0.41143 0.86974 0.59445 0.0
H2887 H 0.38005 0.80176 0.63589 0.0
C2888 C 0.37042 0.8342 0.61403 0.0
O2889 O 0.39978 0.7797 0.65261 0.0
O2890 O 0.43724 0.8002 0.64358 0.0
O2891 O 0.36868 0.85023 0.60315 0.0
O2892 O 0.35159 0.81522 0.62529 0.0
H2893 H 0.40069 0.76676 0.66132 0.0
H2894 H 0.3367 0.814 0.625 0.0
N2895 N 0.48674 0.91351 0.56654 0.0
C2896 C 0.4998 0.93032 0.54488 0.0
C2897 C 0.51629 0.95134 0.55849 0.0
C2898 C 0.51796 0.95368 0.59467 0.0
C2899 C 0.50339 0.93523 0.61626 0.0
C2900 C 0.48742 0.91471 0.60073 0.0
N2901 N 0.47812 0.90113 0.50309 0.0
C2902 C 0.49504 0.92326 0.50869 0.0
O2903 O 0.50793 0.93653 0.48365 0.0
C2904 C 0.46936 0.89383 0.61705 0.0
O2905 O 0.4215 0.90644 0.68613 0.0
O2906 O 0.4232 0.87735 0.70656 0.0
C2907 C 0.47589 0.89058 0.47011 0.0
C2908 C 0.469 0.89833 0.44132 0.0
C2909 C 0.47134 0.89173 0.40799 0.0
C2910 C 0.4801 0.87701 0.40357 0.0
C2911 C 0.48779 0.86987 0.43175 0.0
C2912 C 0.48589 0.87695 0.46483 0.0
O2913 O 0.49554 0.94582 0.71695 0.0
O2914 O 0.49412 0.9747 0.69354 0.0
O2915 O 0.45094 0.93503 0.65627 0.0
O2916 O 0.44129 0.96096 0.64987 0.0
O2917 O 0.46906 0.89064 0.65148 0.0
C2918 C 0.45061 0.92193 0.7738 0.0
O2919 O 0.44681 0.93731 0.76164 0.0
O2920 O 0.45756 0.9114 0.75456 0.0
C2921 C 0.41107 0.88599 0.69705 0.0
H2922 H 0.38925 0.84061 0.4939 0.0
H2923 H 0.43137 0.80906 0.50383 0.0
H2924 H 0.395 0.80711 0.48492 0.0
H2925 H 0.43411 0.90786 0.60431 0.0
H2926 H 0.46407 0.98006 0.58843 0.0
H2927 H 0.46146 0.93634 0.50591 0.0
H2928 H 0.48783 0.84628 0.59737 0.0
H2929 H 0.52253 0.9086 0.53912 0.0
H2930 H 0.56025 0.89157 0.60862 0.0
H2931 H 0.52741 0.96543 0.54192 0.0
H2932 H 0.53041 0.96979 0.60595 0.0
H2933 H 0.50434 0.93712 0.64393 0.0
H2934 H 0.46299 0.91036 0.44483 0.0
H2935 H 0.48211 0.87213 0.37781 0.0
H2936 H 0.49417 0.87359 0.48587 0.0
Cd2937 Cd 0.21285 0.41847 0.15418 0.0
C2938 C 0.20494 0.36415 0.13676 0.0
C2939 C 0.28391 0.48142 0.31182 0.0
O2940 O 0.30581 0.49624 0.31525 0.0
Cd2941 Cd 0.15992 0.3673 0.13729 0.0
C2942 C 0.26638 0.48643 0.32412 0.0
C2943 C 0.22731 0.48756 0.34444 0.0
C2944 C 0.22596 0.46853 0.328 0.0
N2945 N 0.24531 0.46924 0.31872 0.0
C2946 C 0.26916 0.50607 0.34056 0.0
C2947 C 0.24928 0.50652 0.35068 0.0
Co2948 Co 0.24265 0.44331 0.29892 0.0
C2949 C 0.20563 0.44681 0.31884 0.0
O2950 O 0.18474 0.4427 0.32454 0.0
C2951 C 0.1924 0.40989 0.29062 0.0
C2952 C 0.18505 0.40717 0.25655 0.0
C2953 C 0.16897 0.38551 0.24419 0.0
C2954 C 0.16064 0.36658 0.266 0.0
C2955 C 0.16866 0.36929 0.29985 0.0
C2956 C 0.18374 0.39112 0.31248 0.0
C2957 C 0.16464 0.38207 0.2073 0.0
C2958 C 0.29093 0.45433 0.2793 0.0
C2959 C 0.30751 0.47047 0.25688 0.0
C2960 C 0.29091 0.43394 0.28583 0.0
C2961 C 0.30649 0.42935 0.26931 0.0
C2962 C 0.32288 0.44543 0.24715 0.0
C2963 C 0.32414 0.46661 0.24191 0.0
N2964 N 0.27607 0.46001 0.29805 0.0
N2965 N 0.21 0.43149 0.30257 0.0
N2966 N 0.24256 0.45293 0.25164 0.0
C2967 C 0.24301 0.47344 0.24105 0.0
C2968 C 0.26332 0.49209 0.22925 0.0
C2969 C 0.22299 0.47472 0.24192 0.0
C2970 C 0.26389 0.51228 0.21876 0.0
H2971 H 0.27859 0.49074 0.22827 0.0
C2972 C 0.24366 0.51339 0.21995 0.0
C2973 C 0.22307 0.49463 0.23137 0.0
C2974 C 0.2855 0.53216 0.20648 0.0
H2975 H 0.2073 0.4601 0.25054 0.0
H2976 H 0.24391 0.52885 0.21184 0.0
C2977 C 0.2017 0.49578 0.23209 0.0
O2978 O 0.28591 0.55151 0.19647 0.0
O2979 O 0.30307 0.53117 0.20533 0.0
O2980 O 0.18385 0.47946 0.24217 0.0
O2981 O 0.20181 0.51489 0.22153 0.0
H2982 H 0.2998 0.56466 0.18837 0.0
H2983 H 0.18806 0.51597 0.22171 0.0
N2984 N 0.23945 0.41705 0.27949 0.0
C2985 C 0.23539 0.40008 0.30105 0.0
C2986 C 0.23088 0.3791 0.28732 0.0
C2987 C 0.23051 0.37693 0.25113 0.0
C2988 C 0.23462 0.39551 0.22965 0.0
C2989 C 0.23913 0.41598 0.2453 0.0
N2990 N 0.24199 0.42889 0.34307 0.0
C2991 C 0.23711 0.40687 0.33731 0.0
O2992 O 0.23646 0.39348 0.36235 0.0
C2993 C 0.24187 0.43686 0.2291 0.0
O2994 O 0.182 0.42538 0.16387 0.0
O2995 O 0.21137 0.4528 0.13779 0.0
C2996 C 0.24985 0.43927 0.37629 0.0
C2997 C 0.23487 0.4314 0.40469 0.0
C2998 C 0.24339 0.43812 0.43824 0.0
C2999 C 0.26677 0.453 0.44322 0.0
C3000 C 0.28194 0.46015 0.4155 0.0
C3001 C 0.2734 0.45296 0.38224 0.0
O3002 O 0.21607 0.38529 0.12844 0.0
O3003 O 0.1876 0.35712 0.15588 0.0
O3004 O 0.18048 0.39395 0.18652 0.0
O3005 O 0.14555 0.36737 0.19499 0.0
O3006 O 0.24469 0.44009 0.19472 0.0
C3007 C 0.1943 0.40819 0.07288 0.0
O3008 O 0.17558 0.39173 0.08459 0.0
O3009 O 0.21156 0.41943 0.09229 0.0
C3010 C 0.19124 0.44494 0.1498 0.0
H3011 H 0.21208 0.4878 0.35229 0.0
H3012 H 0.28598 0.52046 0.34558 0.0
H3013 H 0.25089 0.52146 0.36347 0.0
H3014 H 0.19244 0.4217 0.23938 0.0
H3015 H 0.14939 0.3496 0.25594 0.0
H3016 H 0.1902 0.39339 0.33852 0.0
H3017 H 0.3082 0.4866 0.25233 0.0
H3018 H 0.27975 0.42203 0.30487 0.0
H3019 H 0.33541 0.44184 0.23599 0.0
H3020 H 0.22763 0.36488 0.30381 0.0
H3021 H 0.22685 0.36085 0.23976 0.0
H3022 H 0.23383 0.39373 0.20197 0.0
H3023 H 0.2169 0.41928 0.40073 0.0
H3024 H 0.27337 0.45797 0.46912 0.0
H3025 H 0.28533 0.45633 0.36161 0.0
Cd3026 Cd 0.57898 0.79713 0.15159 0.0
C3027 C 0.62837 0.84576 0.13215 0.0
C3028 C 0.51638 0.80107 0.30921 0.0
O3029 O 0.50131 0.80777 0.3134 0.0
Cd3030 Cd 0.638 0.80615 0.13297 0.0
C3031 C 0.51166 0.77831 0.31997 0.0
C3032 C 0.51095 0.7377 0.33639 0.0
C3033 C 0.53013 0.75624 0.32162 0.0
N3034 N 0.52923 0.77506 0.31435 0.0
C3035 C 0.49185 0.76056 0.33479 0.0
C3036 C 0.49164 0.74005 0.34301 0.0
Co3037 Co 0.555 0.79908 0.29549 0.0
C3038 C 0.55204 0.75824 0.31172 0.0
O3039 O 0.55642 0.74149 0.31576 0.0
C3040 C 0.58911 0.78342 0.28455 0.0
C3041 C 0.59283 0.78117 0.24973 0.0
C3042 C 0.615 0.78827 0.23776 0.0
C3043 C 0.63334 0.79819 0.2608 0.0
C3044 C 0.62962 0.80137 0.29528 0.0
C3045 C 0.60735 0.79278 0.30735 0.0
C3046 C 0.61971 0.78938 0.20075 0.0
C3047 C 0.54392 0.83667 0.28 0.0
C3048 C 0.52861 0.83786 0.25676 0.0
C3049 C 0.56383 0.85681 0.28921 0.0
C3050 C 0.56881 0.87761 0.27449 0.0
C3051 C 0.55358 0.87869 0.25139 0.0
C3052 C 0.53285 0.85889 0.24334 0.0
N3053 N 0.53795 0.81535 0.29651 0.0
N3054 N 0.56717 0.77847 0.29651 0.0
N3055 N 0.54536 0.79065 0.24797 0.0
C3056 C 0.52534 0.77037 0.23663 0.0
C3057 C 0.5059 0.77122 0.22671 0.0
C3058 C 0.52517 0.7496 0.23555 0.0
C3059 C 0.48605 0.75129 0.21612 0.0
H3060 H 0.50633 0.78742 0.22743 0.0
C3061 C 0.48605 0.73047 0.21541 0.0
C3062 C 0.50556 0.72946 0.2251 0.0
C3063 C 0.46532 0.75214 0.20589 0.0
H3064 H 0.54038 0.74915 0.24269 0.0
H3065 H 0.47082 0.71502 0.20736 0.0
C3066 C 0.50543 0.70742 0.22435 0.0
O3067 O 0.44626 0.73288 0.19599 0.0
O3068 O 0.46534 0.77024 0.20637 0.0
O3069 O 0.52186 0.7063 0.23504 0.0
O3070 O 0.48715 0.68843 0.21185 0.0
H3071 H 0.43256 0.73305 0.18923 0.0
H3072 H 0.48678 0.67394 0.21098 0.0
N3073 N 0.58106 0.82288 0.27696 0.0
C3074 C 0.598 0.8353 0.29879 0.0
C3075 C 0.61875 0.85257 0.28554 0.0
C3076 C 0.62071 0.85563 0.24947 0.0
C3077 C 0.60215 0.84165 0.22767 0.0
C3078 C 0.58192 0.82483 0.24287 0.0
N3079 N 0.56938 0.81172 0.34029 0.0
C3080 C 0.59136 0.82907 0.3349 0.0
O3081 O 0.60464 0.84144 0.36029 0.0
C3082 C 0.56112 0.807 0.22615 0.0
O3083 O 0.57073 0.75932 0.16492 0.0
O3084 O 0.5441 0.76158 0.13684 0.0
C3085 C 0.55872 0.8097 0.37321 0.0
C3086 C 0.566 0.80262 0.40233 0.0
C3087 C 0.55899 0.80491 0.43547 0.0
C3088 C 0.54425 0.81374 0.43929 0.0
C3089 C 0.53767 0.82178 0.41084 0.0
C3090 C 0.54548 0.82014 0.37815 0.0
O3091 O 0.60775 0.83401 0.1218 0.0
O3092 O 0.63454 0.83753 0.15621 0.0
O3093 O 0.60735 0.79234 0.17947 0.0
O3094 O 0.63703 0.7891 0.189 0.0
O3095 O 0.55781 0.80746 0.19198 0.0
C3096 C 0.59295 0.78975 0.07042 0.0
O3097 O 0.61157 0.79144 0.08167 0.0
O3098 O 0.57987 0.79329 0.0899 0.0
C3099 C 0.55127 0.74915 0.1505 0.0
H3100 H 0.51081 0.72201 0.34255 0.0
H3101 H 0.47711 0.76241 0.33987 0.0
H3102 H 0.47655 0.72602 0.35447 0.0
H3103 H 0.57869 0.77468 0.2319 0.0
H3104 H 0.65067 0.80518 0.25141 0.0
H3105 H 0.60427 0.79532 0.33388 0.0
H3106 H 0.51287 0.8225 0.25021 0.0
H3107 H 0.57505 0.85677 0.30882 0.0
H3108 H 0.55744 0.89523 0.24161 0.0
H3109 H 0.63292 0.86323 0.30228 0.0
H3110 H 0.63661 0.86871 0.23844 0.0
H3111 H 0.60372 0.84367 0.20005 0.0
H3112 H 0.57789 0.79641 0.39927 0.0
H3113 H 0.53938 0.816 0.46491 0.0
H3114 H 0.54246 0.82841 0.35688 0.0
Cd3115 Cd 0.19926 0.78073 0.15016 0.0
C3116 C 0.15694 0.78227 0.12778 0.0
C3117 C 0.19519 0.71305 0.30661 0.0
O3118 O 0.18884 0.69128 0.30941 0.0
Cd3119 Cd 0.19543 0.8394 0.12874 0.0
C3120 C 0.2177 0.73106 0.31838 0.0
C3121 C 0.25784 0.77093 0.33652 0.0
C3122 C 0.23927 0.77159 0.32189 0.0
N3123 N 0.22066 0.75188 0.31387 0.0
C3124 C 0.23548 0.72899 0.33302 0.0
C3125 C 0.25575 0.74927 0.34214 0.0
Co3126 Co 0.19682 0.75366 0.29439 0.0
C3127 C 0.23715 0.79151 0.31248 0.0
O3128 O 0.25372 0.81263 0.31727 0.0
C3129 C 0.21221 0.80354 0.28486 0.0
C3130 C 0.21505 0.81007 0.25026 0.0
C3131 C 0.20834 0.8255 0.23838 0.0
C3132 C 0.19832 0.83383 0.26138 0.0
C3133 C 0.19489 0.82667 0.29576 0.0
C3134 C 0.2028 0.81237 0.30765 0.0
C3135 C 0.20795 0.82958 0.20132 0.0
C3136 C 0.15928 0.70505 0.27841 0.0
C3137 C 0.1577 0.6886 0.25473 0.0
C3138 C 0.13929 0.70472 0.28882 0.0
C3139 C 0.11823 0.68891 0.27487 0.0
C3140 C 0.11676 0.67266 0.25138 0.0
C3141 C 0.13641 0.67175 0.24216 0.0
N3142 N 0.18082 0.72034 0.29435 0.0
N3143 N 0.21712 0.78647 0.29666 0.0
N3144 N 0.20614 0.75327 0.2471 0.0
C3145 C 0.22657 0.75362 0.23635 0.0
C3146 C 0.22573 0.73354 0.22533 0.0
C3147 C 0.24744 0.77413 0.23675 0.0
C3148 C 0.24578 0.73372 0.21508 0.0
H3149 H 0.20943 0.71783 0.2249 0.0
C3150 C 0.26671 0.75442 0.21602 0.0
C3151 C 0.26771 0.77473 0.22689 0.0
C3152 C 0.24494 0.7124 0.20347 0.0
H3153 H 0.24784 0.78967 0.24453 0.0
H3154 H 0.28225 0.75472 0.20833 0.0
C3155 C 0.28988 0.79649 0.22801 0.0
O3156 O 0.26429 0.71271 0.1938 0.0
O3157 O 0.22675 0.69442 0.20255 0.0
O3158 O 0.29095 0.81375 0.23989 0.0
O3159 O 0.30904 0.79737 0.21597 0.0
H3160 H 0.26414 0.69901 0.18613 0.0
H3161 H 0.32364 0.81139 0.21636 0.0
N3162 N 0.17319 0.75591 0.27517 0.0
C3163 C 0.16034 0.76002 0.2967 0.0
C3164 C 0.1432 0.76354 0.28302 0.0
C3165 C 0.14071 0.7629 0.24687 0.0
C3166 C 0.15516 0.75876 0.22541 0.0
C3167 C 0.17182 0.75528 0.24101 0.0
N3168 N 0.18332 0.75453 0.33876 0.0
C3169 C 0.166 0.75917 0.33296 0.0
O3170 O 0.15319 0.75969 0.35799 0.0
C3171 C 0.19009 0.75278 0.22477 0.0
O3172 O 0.23739 0.80478 0.16924 0.0
O3173 O 0.23319 0.77999 0.12998 0.0
C3174 C 0.18562 0.74646 0.37204 0.0
C3175 C 0.1912 0.76095 0.40089 0.0
C3176 C 0.18853 0.75203 0.43433 0.0
C3177 C 0.18103 0.72882 0.43888 0.0
C3178 C 0.17437 0.714 0.41075 0.0
C3179 C 0.17647 0.7229 0.37752 0.0
O3180 O 0.15706 0.76362 0.13022 0.0
O3181 O 0.17541 0.79981 0.13502 0.0
O3182 O 0.2049 0.81414 0.18031 0.0
O3183 O 0.20823 0.84725 0.18954 0.0
O3184 O 0.19026 0.74941 0.19055 0.0
C3185 C 0.21099 0.81108 0.06882 0.0
O3186 O 0.21157 0.8296 0.07811 0.0
O3187 O 0.2061 0.79469 0.08984 0.0
C3188 C 0.24654 0.797 0.14883 0.0
H3189 H 0.27338 0.78647 0.34322 0.0
H3190 H 0.23386 0.71241 0.33724 0.0
H3191 H 0.26982 0.74821 0.35344 0.0
H3192 H 0.22178 0.8026 0.23255 0.0
H3193 H 0.19171 0.84454 0.25212 0.0
H3194 H 0.19996 0.80651 0.33408 0.0
H3195 H 0.17297 0.68829 0.24724 0.0
H3196 H 0.13963 0.71584 0.30888 0.0
H3197 H 0.10002 0.65994 0.24229 0.0
H3198 H 0.1322 0.76673 0.2995 0.0
H3199 H 0.12774 0.76575 0.2355 0.0
H3200 H 0.15359 0.75873 0.19779 0.0
H3201 H 0.19621 0.77875 0.39729 0.0
H3202 H 0.1788 0.72198 0.46472 0.0
H3203 H 0.16873 0.7111 0.35656 0.0
C3204 C 0.32963 0.13225 0.95893 0.0
C3205 C 0.30816 0.11704 0.94462 0.0
H3206 H 0.36542 0.15434 0.95 0.0
C3207 C 0.30714 0.10938 0.91085 0.0
H3208 H 0.33079 0.13863 0.98484 0.0
C3209 C 0.32699 0.11871 0.89064 0.0
C3210 C 0.34819 0.13553 0.90406 0.0
H3211 H 0.29079 0.09804 0.89903 0.0
H3212 H 0.32544 0.11423 0.86366 0.0
C3213 C 0.34951 0.1412 0.939 0.0
C3214 C 0.86988 0.2025 0.88827 0.0
C3215 C 0.85741 0.21255 0.90097 0.0
H3216 H 0.88618 0.18303 0.8998 0.0
C3217 C 0.85622 0.21476 0.93666 0.0
H3218 H 0.87126 0.20072 0.86084 0.0
C3219 C 0.86488 0.20466 0.959 0.0
C3220 C 0.8749 0.1922 0.94614 0.0
H3221 H 0.84679 0.22238 0.94735 0.0
H3222 H 0.86198 0.20496 0.98633 0.0
C3223 C 0.87856 0.19243 0.91061 0.0
C3224 C 0.7924 0.66577 0.88867 0.0
C3225 C 0.78251 0.64317 0.90105 0.0
H3226 H 0.8122 0.70148 0.90051 0.0
C3227 C 0.78063 0.6396 0.93672 0.0
H3228 H 0.79393 0.6691 0.86128 0.0
C3229 C 0.79103 0.65823 0.95924 0.0
C3230 C 0.80349 0.68078 0.94657 0.0
H3231 H 0.77313 0.62249 0.94721 0.0
H3232 H 0.79113 0.65488 0.98645 0.0
C3233 C 0.80278 0.68441 0.91119 0.0
C3234 C 0.12584 0.32772 0.62575 0.0
C3235 C 0.1381 0.35039 0.61355 0.0
H3236 H 0.10931 0.29209 0.61321 0.0
C3237 C 0.13863 0.3542 0.57801 0.0
H3238 H 0.12495 0.32421 0.65305 0.0
C3239 C 0.12956 0.33571 0.55516 0.0
C3240 C 0.11977 0.31308 0.56734 0.0
H3241 H 0.14788 0.37137 0.56769 0.0
H3242 H 0.13198 0.33923 0.52784 0.0
C3243 C 0.11674 0.30923 0.60289 0.0
C3244 C 0.65713 0.79217 0.552 0.0
C3245 C 0.67966 0.8043 0.56477 0.0
H3246 H 0.62137 0.77438 0.56391 0.0
C3247 C 0.68321 0.80331 0.60012 0.0
H3248 H 0.65384 0.79245 0.5248 0.0
C3249 C 0.66453 0.79287 0.62253 0.0
C3250 C 0.64197 0.7832 0.61009 0.0
H3251 H 0.70026 0.81242 0.61086 0.0
H3252 H 0.66779 0.7941 0.64994 0.0
C3253 C 0.63845 0.78171 0.57442 0.0
C3254 C 0.21026 0.87716 0.55971 0.0
C3255 C 0.19309 0.8811 0.57285 0.0
H3256 H 0.23047 0.86108 0.56751 0.0
C3257 C 0.18621 0.87521 0.60715 0.0
H3258 H 0.21568 0.88129 0.5332 0.0
C3259 C 0.19428 0.86318 0.62639 0.0
C3260 C 0.20988 0.85744 0.61212 0.0
H3261 H 0.17286 0.87772 0.61793 0.0
H3262 H 0.187 0.85683 0.65157 0.0
C3263 C 0.21877 0.86562 0.57931 0.0
C3264 C 0.68779 0.88701 0.10115 0.0
C3265 C 0.68669 0.87923 0.06745 0.0
H3266 H 0.66956 0.88241 0.14835 0.0
C3267 C 0.66518 0.86405 0.05322 0.0
H3268 H 0.70417 0.89835 0.1129 0.0
C3269 C 0.64533 0.85525 0.07319 0.0
C3270 C 0.64672 0.86105 0.10809 0.0
H3271 H 0.66395 0.85759 0.02735 0.0
H3272 H 0.62937 0.84215 0.06227 0.0
C3273 C 0.66797 0.87783 0.1214 0.0
C3274 C 0.13081 0.77674 0.07866 0.0
C3275 C 0.13856 0.78494 0.11189 0.0
H3276 H 0.11634 0.78121 0.03223 0.0
C3277 C 0.13314 0.80071 0.12642 0.0
H3278 H 0.13514 0.76494 0.06666 0.0
C3279 C 0.122 0.8097 0.10707 0.0
C3280 C 0.11661 0.8035 0.07245 0.0
H3281 H 0.13922 0.8075 0.15191 0.0
H3282 H 0.1199 0.82325 0.11807 0.0
C3283 C 0.12009 0.78611 0.05899 0.0
C3284 C 0.20339 0.33178 0.05768 0.0
C3285 C 0.19028 0.30912 0.06963 0.0
H3286 H 0.21904 0.3674 0.06991 0.0
C3287 C 0.18779 0.3053 0.10524 0.0
H3288 H 0.2058 0.33528 0.03036 0.0
C3289 C 0.19554 0.32379 0.12794 0.0
C3290 C 0.20591 0.34641 0.11552 0.0
H3291 H 0.17787 0.28814 0.11539 0.0
H3292 H 0.19135 0.32027 0.15496 0.0
C3293 C 0.21118 0.35027 0.0804 0.0
C3294 C 0.8702 0.66992 0.3873 0.0
C3295 C 0.85775 0.64735 0.39989 0.0
H3296 H 0.88727 0.70565 0.39931 0.0
C3297 C 0.85777 0.64376 0.43541 0.0
H3298 H 0.87067 0.67324 0.35998 0.0
C3299 C 0.86739 0.6624 0.45797 0.0
C3300 C 0.87718 0.68497 0.44549 0.0
H3301 H 0.84839 0.62667 0.44603 0.0
H3302 H 0.8653 0.65907 0.48536 0.0
C3303 C 0.87983 0.68856 0.40986 0.0
C3304 C 0.33094 0.20493 0.38982 0.0
C3305 C 0.35347 0.21456 0.40233 0.0
H3306 H 0.29518 0.18556 0.40142 0.0
C3307 C 0.35696 0.21605 0.43801 0.0
H3308 H 0.32771 0.2037 0.36241 0.0
C3309 C 0.33825 0.20568 0.46038 0.0
C3310 C 0.31572 0.19366 0.44757 0.0
H3311 H 0.37402 0.22333 0.44856 0.0
H3312 H 0.3415 0.20543 0.48761 0.0
C3313 C 0.31223 0.1946 0.4122 0.0
C3314 C 0.7894 0.1425 0.43861 0.0
C3315 C 0.78545 0.13713 0.40352 0.0
H3316 H 0.805 0.13951 0.48478 0.0
C3317 C 0.78987 0.12033 0.39012 0.0
H3318 H 0.78654 0.15557 0.44963 0.0
C3319 C 0.80013 0.1108 0.4105 0.0
C3320 C 0.80644 0.11821 0.44445 0.0
H3321 H 0.78722 0.11605 0.36305 0.0
H3322 H 0.80522 0.09951 0.39871 0.0
C3323 C 0.80005 0.13333 0.45872 0.0
C3324 C 0.01705 0.47591 0.27309 0.0
C3325 C 0.01583 0.46975 0.23838 0.0
H3326 H -0.0018 0.47392 0.3185 0.0
C3327 C 0.9947 0.45265 0.22518 0.0
H3328 H 0.03292 0.48923 0.28392 0.0
C3329 C 0.9748 0.44353 0.24526 0.0
C3330 C 0.97571 0.45169 0.27866 0.0
H3331 H 0.99323 0.44779 0.19837 0.0
H3332 H 0.9585 0.43195 0.23351 0.0
C3333 C 0.99712 0.46717 0.29287 0.0
C3334 C 0.53885 0.52175 0.23829 0.0
C3335 C 0.54361 0.52729 0.27321 0.0
H3336 H 0.52232 0.52468 0.19315 0.0
C3337 C 0.53986 0.54441 0.2871 0.0
H3338 H 0.54112 0.50838 0.22697 0.0
C3339 C 0.52941 0.55408 0.26747 0.0
C3340 C 0.52221 0.54646 0.23384 0.0
H3341 H 0.54311 0.54879 0.31409 0.0
H3342 H 0.52477 0.56557 0.27975 0.0
C3343 C 0.52799 0.53105 0.21894 0.0
C3344 C 0.45885 0.99102 0.29383 0.0
C3345 C 0.47118 0.01365 0.28149 0.0
H3346 H 0.44099 0.95537 0.28124 0.0
C3347 C 0.47032 0.01752 0.24622 0.0
H3348 H 0.45907 0.98749 0.32095 0.0
C3349 C 0.45991 -0.00095 0.22344 0.0
C3350 C 0.45013 0.97637 0.23544 0.0
H3351 H 0.47962 0.03466 0.2358 0.0
H3352 H 0.46131 0.00256 0.1961 0.0
C3353 C 0.44841 0.97254 0.27105 0.0
C3354 C 0.53696 0.00703 0.71805 0.0
C3355 C 0.52467 0.9844 0.73036 0.0
H3356 H 0.55477 0.04262 0.73088 0.0
C3357 C 0.52623 0.9804 0.76538 0.0
H3358 H 0.53611 0.01062 0.69111 0.0
C3359 C 0.53685 -0.0012 0.78824 0.0
C3360 C 0.5462 0.02147 0.77647 0.0
H3361 H 0.51689 0.96325 0.77576 0.0
H3362 H 0.5357 0.99521 0.81554 0.0
C3363 C 0.54765 0.02544 0.74089 0.0
C3364 C 0.00108 0.53847 0.79056 0.0
C3365 C 0.9786 0.52584 0.77775 0.0
H3366 H 0.0369 0.55565 0.77908 0.0
C3367 C 0.97522 0.52508 0.74209 0.0
H3368 H 0.00424 0.53952 0.81799 0.0
C3369 C 0.994 0.53442 0.71978 0.0
C3370 C 0.01651 0.54472 0.73264 0.0
H3371 H 0.9582 0.51553 0.73131 0.0
H3372 H 0.99085 0.53193 0.69239 0.0
C3373 C 0.01987 0.54784 0.76826 0.0
C3374 C 0.46396 0.4417 0.74515 0.0
C3375 C 0.47099 0.44913 0.7789 0.0
H3376 H 0.45069 0.4474 0.6984 0.0
C3377 C 0.46532 0.46461 0.79381 0.0
H3378 H 0.46853 0.43017 0.73287 0.0
C3379 C 0.45475 0.47418 0.77438 0.0
C3380 C 0.45019 0.46884 0.73937 0.0
H3381 H 0.47088 0.47085 0.81969 0.0
H3382 H 0.45259 0.48761 0.78574 0.0
C3383 C 0.45379 0.45163 0.72545 0.0
C3384 C 0.18664 0.97573 0.03203 0.0
C3385 C 0.18098 0.98562 0.05921 0.0
H3386 H 0.17636 0.94606 1.00106 0.0
C3387 C 0.15857 0.97408 0.07233 0.0
H3388 H 0.20361 0.98442 0.02094 0.0
C3389 C 0.14289 0.9521 0.0609 0.0
C3390 C 0.14942 0.94131 0.03626 0.0
H3391 H 0.15367 0.98122 0.09337 0.0
H3392 H 0.12634 0.94297 0.07326 0.0
C3393 C 0.17099 0.95378 0.02062 0.0
C3394 C 0.0426 0.18877 0.0594 0.0
C3395 C 0.05342 0.20546 0.03388 0.0
H3396 H 0.0137 0.17151 0.09257 0.0
C3397 C 0.04118 0.2147 0.01784 0.0
H3398 H 0.05155 0.18129 0.07216 0.0
C3399 C 0.01944 0.20909 0.02948 0.0
C3400 C 0.00949 0.19405 0.05726 0.0
H3401 H 0.04894 0.22736 0.99768 0.0
H3402 H 0.01092 0.2174 0.01791 0.0
C3403 C 0.02084 0.18313 0.07103 0.0
C3404 C 0.80765 0.85704 0.06472 0.0
C3405 C 0.79274 0.85193 0.03675 0.0
H3406 H 0.82374 0.84472 0.09924 0.0
C3407 C 0.78577 0.83155 0.01836 0.0
H3408 H 0.81335 0.87259 0.07936 0.0
C3409 C 0.79154 0.81552 0.0299 0.0
C3410 C 0.80464 0.81969 0.05977 0.0
H3411 H 0.77449 0.8272 0.99641 0.0
H3412 H 0.78472 0.79935 0.01657 0.0
C3413 C 0.81361 0.84106 0.07608 0.0
C3414 C 0.97451 0.18126 0.48457 0.0
C3415 C 0.98348 0.17735 0.45453 0.0
H3416 H 0.94571 0.16931 0.51797 0.0
C3417 C 0.97112 0.15609 0.43788 0.0
H3418 H 0.98383 0.19733 0.49819 0.0
C3419 C 0.94919 0.14001 0.44906 0.0
C3420 C 0.93934 0.14491 0.47716 0.0
H3421 H 0.97761 0.15262 0.41457 0.0
H3422 H 0.93938 0.12458 0.43415 0.0
C3423 C 0.9527 0.16513 0.49591 0.0
C3424 C 0.80778 0.78695 0.48425 0.0
C3425 C 0.81292 0.80219 0.45673 0.0
H3426 H 0.81892 0.76839 0.51557 0.0
C3427 C 0.83521 0.81321 0.44308 0.0
H3428 H 0.79093 0.77857 0.49576 0.0
C3429 C 0.8513 0.80747 0.4545 0.0
C3430 C 0.84535 0.79055 0.47965 0.0
H3431 H 0.83975 0.82497 0.42172 0.0
H3432 H 0.86775 0.81503 0.4418 0.0
C3433 C 0.82386 0.78122 0.49566 0.0
C3434 C 0.18985 0.04527 0.45251 0.0
C3435 C 0.20694 0.05574 0.47755 0.0
H3436 H 0.17171 0.01647 0.41942 0.0
C3437 C 0.21574 0.04302 0.49329 0.0
H3438 H 0.18266 0.0546 0.4401 0.0
C3439 C 0.20949 0.02118 0.48149 0.0
C3440 C 0.19423 0.01165 0.45391 0.0
H3441 H 0.22864 0.05051 0.51317 0.0
H3442 H 0.21759 0.01231 0.49256 0.0
C3443 C 0.18355 0.02338 0.44075 0.0
C3444 C 0.80848 0.0196 0.98203 0.0
C3445 C 0.81412 0.01008 0.95433 0.0
H3446 H 0.81867 0.04895 0.01368 0.0
C3447 C 0.83644 0.02191 0.94088 0.0
H3448 H 0.79157 0.01067 0.99331 0.0
C3449 C 0.852 0.04386 0.95253 0.0
C3450 C 0.84546 0.0543 0.97774 0.0
H3451 H 0.84129 0.01503 0.91944 0.0
H3452 H 0.86844 0.05325 0.93991 0.0
C3453 C 0.82404 0.0415 0.9937 0.0
C3454 C 0.95224 0.80634 0.95222 0.0
C3455 C 0.94156 0.78928 0.97727 0.0
H3456 H 0.98128 0.82445 0.91953 0.0
C3457 C 0.95412 0.78039 0.99328 0.0
H3458 H 0.94302 0.81356 0.93956 0.0
C3459 C 0.97606 0.78665 0.98191 0.0
C3460 C 0.98586 0.80196 0.95442 0.0
H3461 H 0.94646 0.76751 0.01317 0.0
H3462 H 0.98484 0.77856 0.99335 0.0
C3463 C 0.97421 0.81261 0.94084 0.0
C3464 C 0.18637 0.13778 0.94853 0.0
C3465 C 0.20111 0.14287 0.97671 0.0
H3466 H 0.17059 0.15019 0.91358 0.0
C3467 C 0.20787 0.16316 0.99522 0.0
H3468 H 0.18083 0.12229 0.93382 0.0
C3469 C 0.20219 0.17921 0.98348 0.0
C3470 C 0.18939 0.17513 0.9533 0.0
H3471 H 0.21901 0.16749 0.01734 0.0
H3472 H 0.20893 0.19537 0.99683 0.0
C3473 C 0.1805 0.15378 0.93697 0.0
C3474 C 0.04423 0.82854 0.51776 0.0
C3475 C 0.05663 0.85005 0.5336 0.0
H3476 H 0.01368 0.79585 0.51796 0.0
C3477 C 0.04572 0.85653 0.5581 0.0
H3478 H 0.05204 0.82324 0.49825 0.0
C3479 C 0.02376 0.84078 0.56943 0.0
C3480 C 0.01236 0.81836 0.55633 0.0
H3481 H 0.05479 0.87304 0.57056 0.0
H3482 H 0.0166 0.84561 0.59054 0.0
C3483 C 0.02228 0.81282 0.52905 0.0
C3484 C 0.17193 0.21561 0.51808 0.0
C3485 C 0.15038 0.20645 0.53384 0.0
H3486 H 0.20473 0.21797 0.51851 0.0
C3487 C 0.14414 0.18947 0.55898 0.0
H3488 H 0.17709 0.22848 0.49817 0.0
C3489 C 0.16001 0.18351 0.57064 0.0
C3490 C 0.18237 0.19439 0.55728 0.0
H3491 H 0.12763 0.18203 0.57147 0.0
H3492 H 0.15528 0.17169 0.59196 0.0
C3493 C 0.18781 0.20968 0.52977 0.0
C3494 C 0.78741 0.97717 0.53047 0.0
C3495 C 0.80245 0.98658 0.55833 0.0
H3496 H 0.76826 0.94788 0.4987 0.0
C3497 C 0.81277 0.97464 0.57196 0.0
H3498 H 0.77957 0.9862 0.51905 0.0
C3499 C 0.8063 0.95266 0.56035 0.0
C3500 C 0.7894 0.94232 0.53499 0.0
H3501 H 0.82442 0.98145 0.59351 0.0
H3502 H 0.81319 0.94317 0.57311 0.0
C3503 C 0.781 0.95525 0.51882 0.0
C3504 C 0.82613 0.30763 0.40594 0.0
C3505 C 0.84859 0.31936 0.39305 0.0
H3506 H 0.79401 0.27638 0.40646 0.0
C3507 C 0.8545 0.3096 0.36596 0.0
H3508 H 0.82105 0.31467 0.42691 0.0
C3509 C 0.83902 0.28766 0.35435 0.0
C3510 C 0.81736 0.27502 0.36969 0.0
H3511 H 0.87153 0.31843 0.35507 0.0
H3512 H 0.84457 0.28007 0.33482 0.0
C3513 C 0.81062 0.28564 0.39432 0.0
C3514 C 0.70919 0.52304 0.39272 0.0
C3515 C 0.72008 0.54009 0.36773 0.0
H3516 H 0.68002 0.50513 0.42522 0.0
C3517 C 0.70778 0.54926 0.3517 0.0
H3518 H 0.71821 0.51561 0.40541 0.0
C3519 C 0.68588 0.54325 0.36297 0.0
C3520 C 0.67585 0.52789 0.39036 0.0
H3521 H 0.7156 0.56216 0.33187 0.0
H3522 H 0.67729 0.55154 0.35152 0.0
C3523 C 0.68725 0.517 0.40398 0.0
C3524 C 0.47395 0.18724 0.39368 0.0
C3525 C 0.45736 0.18134 0.368 0.0
H3526 H 0.49125 0.17565 0.4269 0.0
C3527 C 0.44849 0.16002 0.35162 0.0
H3528 H 0.48115 0.20356 0.40667 0.0
C3529 C 0.45429 0.14401 0.36313 0.0
C3530 C 0.46914 0.14905 0.39113 0.0
H3531 H 0.43593 0.15511 0.33131 0.0
H3532 H 0.44621 0.12725 0.35134 0.0
C3533 C 0.47977 0.17122 0.40519 0.0
C3534 C 0.63898 0.51141 0.81763 0.0
C3535 C 0.64809 0.50709 0.78811 0.0
H3536 H 0.60999 0.49987 0.8505 0.0
C3537 C 0.636 0.48552 0.7723 0.0
H3538 H 0.64812 0.52774 0.8306 0.0
C3539 C 0.61407 0.46954 0.78353 0.0
C3540 C 0.60398 0.47488 0.81079 0.0
H3541 H 0.64262 0.48174 0.74942 0.0
H3542 H 0.60441 0.45385 0.76911 0.0
C3543 C 0.61716 0.49538 0.82901 0.0
C3544 C 0.5022 0.14681 0.77586 0.0
C3545 C 0.47991 0.1358 0.78949 0.0
H3546 H 0.53486 0.14892 0.77516 0.0
C3547 C 0.4749 0.12102 0.81759 0.0
H3548 H 0.50662 0.15825 0.75409 0.0
C3549 C 0.49113 0.11567 0.82962 0.0
C3550 C 0.51262 0.12492 0.81364 0.0
H3551 H 0.45804 0.11266 0.82907 0.0
H3552 H 0.48628 0.10314 0.84997 0.0
C3553 C 0.51843 0.14145 0.78788 0.0
C3554 C 0.8552 0.37801 0.78621 0.0
C3555 C 0.8721 0.38856 0.81149 0.0
H3556 H 0.83743 0.34924 0.75298 0.0
C3557 C 0.88093 0.37594 0.82747 0.0
H3558 H 0.84799 0.38726 0.77358 0.0
C3559 C 0.87486 0.35412 0.81575 0.0
C3560 C 0.85978 0.34451 0.78796 0.0
H3561 H 0.8937 0.38348 0.84751 0.0
H3562 H 0.88295 0.34531 0.82709 0.0
C3563 C 0.8491 0.35616 0.77449 0.0
C3564 C 0.48978 0.37663 0.32237 0.0
C3565 C 0.51154 0.38922 0.30735 0.0
H3566 H 0.45731 0.34582 0.32146 0.0
C3567 C 0.51851 0.37853 0.28319 0.0
H3568 H 0.48408 0.38428 0.34157 0.0
C3569 C 0.50311 0.3565 0.27163 0.0
C3570 C 0.48055 0.34481 0.28413 0.0
H3571 H 0.53521 0.38776 0.27132 0.0
H3572 H 0.50837 0.34941 0.25096 0.0
C3573 C 0.47442 0.35463 0.31084 0.0
C3574 C 0.64127 0.14639 0.27426 0.0
C3575 C 0.65314 0.13601 0.28797 0.0
H3576 H 0.60993 0.14705 0.27314 0.0
C3577 C 0.64366 0.12101 0.31588 0.0
H3578 H 0.64811 0.15799 0.25264 0.0
C3579 C 0.62179 0.11475 0.32756 0.0
C3580 C 0.60897 0.12329 0.3114 0.0
H3581 H 0.65263 0.11313 0.32739 0.0
H3582 H 0.61436 0.10207 0.34776 0.0
C3583 C 0.61935 0.1401 0.28593 0.0
C3584 C 0.87554 0.49812 0.32923 0.0
C3585 C 0.86875 0.47793 0.31044 0.0
H3586 H 0.87656 0.5303 0.33149 0.0
C3587 C 0.85405 0.47304 0.28226 0.0
H3588 H 0.88666 0.50229 0.35135 0.0
C3589 C 0.8482 0.48912 0.27104 0.0
C3590 C 0.85704 0.51036 0.28772 0.0
H3591 H 0.84849 0.45764 0.26732 0.0
H3592 H 0.83828 0.48566 0.24767 0.0
C3593 C 0.86985 0.51425 0.31785 0.0
C3594 C 0.68634 0.14529 0.86242 0.0
C3595 C 0.67685 0.15042 0.89073 0.0
H3596 H 0.71555 0.15623 0.83013 0.0
C3597 C 0.6885 0.17262 0.90461 0.0
H3598 H 0.67753 0.1285 0.85075 0.0
C3599 C 0.71026 0.18856 0.89278 0.0
C3600 C 0.72072 0.18252 0.86694 0.0
H3601 H 0.68167 0.17713 0.92652 0.0
H3602 H 0.71953 0.20488 0.90574 0.0
C3603 C 0.70807 0.16122 0.85058 0.0
C3604 C 0.83641 0.54794 0.85186 0.0
C3605 C 0.81485 0.5386 0.86763 0.0
H3606 H 0.86939 0.55068 0.85231 0.0
C3607 C 0.80884 0.52176 0.89295 0.0
H3608 H 0.84142 0.56071 0.83184 0.0
C3609 C 0.8249 0.51607 0.90469 0.0
C3610 C 0.84724 0.5271 0.89124 0.0
H3611 H 0.79233 0.51418 0.90547 0.0
H3612 H 0.82032 0.50433 0.92609 0.0
C3613 C 0.85248 0.54228 0.86363 0.0
C3614 C 0.45317 0.30713 0.86234 0.0
C3615 C 0.46893 0.31688 0.88929 0.0
H3616 H 0.43325 0.27746 0.83167 0.0
C3617 C 0.47991 0.3053 0.90184 0.0
H3618 H 0.44481 0.31589 0.85174 0.0
C3619 C 0.47331 0.28327 0.89038 0.0
C3620 C 0.45562 0.27253 0.86629 0.0
H3621 H 0.49214 0.31238 0.92266 0.0
H3622 H 0.48071 0.27404 0.90246 0.0
C3623 C 0.4466 0.28515 0.85088 0.0
C3624 C 0.49184 0.64029 0.7406 0.0
C3625 C 0.51448 0.65188 0.72838 0.0
H3626 H 0.45968 0.6091 0.74074 0.0
C3627 C 0.5207 0.64194 0.70196 0.0
H3628 H 0.48651 0.64746 0.76104 0.0
C3629 C 0.50535 0.61992 0.69048 0.0
C3630 C 0.4835 0.60744 0.70525 0.0
H3631 H 0.53786 0.65067 0.69154 0.0
H3632 H 0.51111 0.61218 0.67152 0.0
C3633 C 0.47645 0.61825 0.72907 0.0
C3634 C 0.3513 0.87615 0.69715 0.0
C3635 C 0.3415 0.86038 0.72409 0.0
H3636 H 0.38112 0.89628 0.66683 0.0
C3637 C 0.35327 0.84973 0.73719 0.0
H3638 H 0.3424 0.88423 0.6861 0.0
C3639 C 0.37544 0.85657 0.72611 0.0
C3640 C 0.38613 0.87421 0.70194 0.0
H3641 H 0.34616 0.83751 0.75804 0.0
H3642 H 0.3848 0.8494 0.7385 0.0
C3643 C 0.37343 0.883 0.68615 0.0
C3644 C 0.14634 0.50498 0.73807 0.0
C3645 C 0.13583 0.48279 0.72414 0.0
H3646 H 0.14746 0.53718 0.73933 0.0
C3647 C 0.12109 0.4776 0.69597 0.0
H3648 H 0.15776 0.50952 0.75988 0.0
C3649 C 0.11517 0.49348 0.68427 0.0
C3650 C 0.12381 0.51478 0.70065 0.0
H3651 H 0.11312 0.46082 0.68428 0.0
H3652 H 0.10264 0.48846 0.66389 0.0
C3653 C 0.1404 0.52086 0.72637 0.0
C3654 C 0.28487 0.83044 0.16152 0.0
C3655 C 0.2715 0.81005 0.14315 0.0
H3656 H 0.316 0.86266 0.16325 0.0
C3657 C 0.28138 0.80481 0.11546 0.0
H3658 H 0.27787 0.83487 0.1833 0.0
C3659 C 0.30331 0.82075 0.10414 0.0
C3660 C 0.31563 0.84219 0.12026 0.0
H3661 H 0.27156 0.78923 0.10088 0.0
H3662 H 0.3098 0.81703 0.08106 0.0
C3663 C 0.30669 0.84643 0.15005 0.0
C3664 C 0.18404 0.47297 0.11831 0.0
C3665 C 0.17765 0.45619 0.14383 0.0
H3666 H 0.17311 0.49077 0.0849 0.0
C3667 C 0.15626 0.44758 0.15989 0.0
H3668 H 0.20044 0.47997 0.10559 0.0
C3669 C 0.1406 0.45376 0.14812 0.0
C3670 C 0.1461 0.46874 0.12019 0.0
H3671 H 0.15104 0.43492 0.18013 0.0
H3672 H 0.12375 0.44584 0.15958 0.0
C3673 C 0.16837 0.47918 0.10653 0.0
C3674 C 0.52154 0.71345 0.12194 0.0
C3675 C 0.53943 0.72417 0.14572 0.0
H3676 H 0.50229 0.68428 0.08992 0.0
C3677 C 0.54846 0.71147 0.16086 0.0
H3678 H 0.51412 0.72274 0.11008 0.0
C3679 C 0.54164 0.68942 0.14945 0.0
C3680 C 0.52565 0.67968 0.12279 0.0
H3681 H 0.56196 0.71913 0.17984 0.0
H3682 H 0.54999 0.6806 0.15984 0.0
C3683 C 0.5147 0.69135 0.11052 0.0
C3684 C 0.17274 0.69158 0.60331 0.0
C3685 C 0.15119 0.67918 0.61912 0.0
H3686 H 0.20421 0.72341 0.6003 0.0
C3687 C 0.14664 0.68819 0.64855 0.0
H3688 H 0.17671 0.68505 0.5805 0.0
C3689 C 0.16245 0.71007 0.66002 0.0
C3690 C 0.18299 0.72346 0.642 0.0
H3691 H 0.13032 0.67883 0.66152 0.0
H3692 H 0.1578 0.71707 0.68155 0.0
C3693 C 0.18851 0.71358 0.61461 0.0
C3694 C 0.28742 0.44923 0.66351 0.0
C3695 C 0.27486 0.45795 0.64702 0.0
H3696 H 0.31796 0.44704 0.66369 0.0
C3697 C 0.28545 0.47452 0.62127 0.0
H3698 H 0.27984 0.43671 0.68389 0.0
C3699 C 0.30729 0.48041 0.60974 0.0
C3700 C 0.31889 0.46985 0.62382 0.0
H3701 H 0.27624 0.48161 0.60822 0.0
H3702 H 0.31428 0.49185 0.58797 0.0
C3703 C 0.30921 0.45506 0.65192 0.0
C3704 C 0.54665 0.83703 0.66238 0.0
C3705 C 0.53767 0.81572 0.64593 0.0
H3706 H 0.54903 0.86984 0.66291 0.0
C3707 C 0.52097 0.80987 0.62044 0.0
H3708 H 0.55928 0.84188 0.68256 0.0
C3709 C 0.51518 0.82595 0.60912 0.0
C3710 C 0.52593 0.84812 0.62321 0.0
H3711 H 0.51368 0.79356 0.6074 0.0
H3712 H 0.50365 0.82155 0.58749 0.0
C3713 C 0.54086 0.85309 0.65109 0.0
C3714 C 0.3539 0.48186 0.19557 0.0
C3715 C 0.34457 0.48565 0.22533 0.0
H3716 H 0.38296 0.49416 0.16262 0.0
C3717 C 0.35659 0.50696 0.24194 0.0
H3718 H 0.34485 0.46576 0.18196 0.0
C3719 C 0.37848 0.52326 0.23097 0.0
C3720 C 0.38868 0.51854 0.20315 0.0
H3721 H 0.34985 0.51036 0.26504 0.0
H3722 H 0.388 0.53877 0.24583 0.0
C3723 C 0.3757 0.4982 0.18448 0.0
C3724 C 0.51976 0.87564 0.19716 0.0
C3725 C 0.51454 0.86072 0.22512 0.0
H3726 H 0.50865 0.89372 0.1647 0.0
C3727 C 0.4922 0.84976 0.23853 0.0
H3728 H 0.53667 0.88398 0.18588 0.0
C3729 C 0.4761 0.85528 0.2264 0.0
C3730 C 0.48208 0.87189 0.2007 0.0
H3731 H 0.48764 0.8382 0.26018 0.0
H3732 H 0.45959 0.84781 0.23891 0.0
C3733 C 0.50365 0.88112 0.18498 0.0
C3734 C 0.14511 0.63996 0.2369 0.0
C3735 C 0.1341 0.65142 0.22395 0.0
H3736 H 0.14627 0.60887 0.23785 0.0
C3737 C 0.11835 0.64141 0.19703 0.0
H3738 H 0.15731 0.6472 0.25773 0.0
C3739 C 0.11199 0.61942 0.18576 0.0
C3740 C 0.12123 0.60703 0.20127 0.0
H3741 H 0.10996 0.65004 0.18608 0.0
H3742 H 0.09875 0.61161 0.16642 0.0
C3743 C 0.13874 0.61794 0.22561 0.0
C3744 C 0.18676 0.98976 0.28278 0.0
C3745 C 0.1672 0.97529 0.26342 0.0
H3746 H 0.21365 0.02393 0.29223 0.0
C3747 C 0.15969 0.98507 0.23832 0.0
H3748 H 0.19346 0.98289 0.3017 0.0
C3749 C 0.17152 0.00869 0.23262 0.0
C3750 C 0.191 0.02304 0.25205 0.0
H3751 H 0.14457 0.97448 0.22318 0.0
H3752 H 0.16529 0.01579 0.21334 0.0
C3753 C 0.19845 0.01332 0.27724 0.0
C3754 C 0.00695 0.17118 0.27832 0.0
C3755 C 0.0213 0.19077 0.25913 0.0
H3756 H 0.97267 0.14445 0.28793 0.0
C3757 C 0.0117 0.19853 0.23428 0.0
H3758 H 0.01403 0.16472 0.29726 0.0
C3759 C 0.98813 0.18711 0.22901 0.0
C3760 C 0.97364 0.16752 0.24831 0.0
H3761 H 0.02238 0.21381 0.21946 0.0
H3762 H 0.98128 0.19404 0.21045 0.0
C3763 C 0.98334 0.15961 0.2729 0.0
C3764 C 0.82439 0.83657 0.28047 0.0
C3765 C 0.80456 0.83069 0.26146 0.0
H3766 H 0.85186 0.83007 0.28989 0.0
C3767 C 0.79697 0.81304 0.23714 0.0
H3768 H 0.83066 0.85027 0.29914 0.0
C3769 C 0.8089 0.80141 0.23197 0.0
C3770 C 0.82883 0.80726 0.25084 0.0
H3771 H 0.78148 0.80786 0.22258 0.0
H3772 H 0.80212 0.78744 0.21374 0.0
C3773 C 0.83647 0.82502 0.27513 0.0
C3774 C 0.80856 0.00725 0.73051 0.0
C3775 C 0.82831 0.02159 0.74957 0.0
H3776 H 0.78137 0.97318 0.72136 0.0
C3777 C 0.83585 0.01168 0.77445 0.0
H3778 H 0.80185 0.01423 0.71179 0.0
C3779 C 0.82385 0.98807 0.78023 0.0
C3780 C 0.80418 0.97385 0.76109 0.0
H3781 H 0.85111 0.02218 0.78937 0.0
H3782 H 0.83011 0.98088 0.79932 0.0
C3783 C 0.7967 0.98369 0.73613 0.0
C3784 C 0.0139 0.83961 0.74031 0.0
C3785 C 0.02342 0.83132 0.76463 0.0
H3786 H 0.98338 0.83493 0.71585 0.0
C3787 C 0.00874 0.81154 0.78343 0.0
H3788 H 0.02467 0.85492 0.72567 0.0
C3789 C 0.98519 0.8004 0.77811 0.0
C3790 C 0.97577 0.80858 0.75362 0.0
H3791 H 0.01541 0.80426 0.8017 0.0
H3792 H 0.97437 0.78499 0.79258 0.0
C3793 C 0.9903 0.82825 0.73472 0.0
C3794 C 0.19487 0.18596 0.72872 0.0
C3795 C 0.18957 0.16625 0.74786 0.0
H3796 H 0.18767 0.21292 0.71939 0.0
C3797 C 0.17187 0.15836 0.77229 0.0
H3798 H 0.20873 0.19289 0.7103 0.0
C3799 C 0.15999 0.17009 0.77777 0.0
C3800 C 0.16547 0.18982 0.75879 0.0
H3801 H 0.16721 0.14311 0.78719 0.0
H3802 H 0.14641 0.16366 0.79662 0.0
C3803 C 0.18289 0.19754 0.73404 0.0
C3804 C 0.8509 0.31753 0.56839 0.0
C3805 C 0.83357 0.30769 0.5933 0.0
H3806 H 0.87646 0.34811 0.54437 0.0
C3807 C 0.8282 0.32193 0.61257 0.0
H3808 H 0.85566 0.30702 0.55352 0.0
C3809 C 0.83997 0.34556 0.60709 0.0
C3810 C 0.85746 0.35547 0.58234 0.0
H3811 H 0.81471 0.31473 0.63157 0.0
H3812 H 0.83529 0.35607 0.62215 0.0
C3813 C 0.86275 0.34112 0.56305 0.0
C3814 C 0.67186 0.50114 0.61003 0.0
C3815 C 0.68651 0.52076 0.59113 0.0
H3816 H 0.6374 0.47469 0.61913 0.0
C3817 C 0.67724 0.5289 0.56631 0.0
H3818 H 0.67868 0.49446 0.62908 0.0
C3819 C 0.65372 0.51784 0.56083 0.0
C3820 C 0.63892 0.49822 0.57983 0.0
H3821 H 0.68815 0.54425 0.5518 0.0
H3822 H 0.64715 0.52513 0.5424 0.0
C3823 C 0.64829 0.48989 0.60432 0.0
C3824 C 0.48964 0.1689 0.61348 0.0
C3825 C 0.46993 0.16325 0.59433 0.0
H3826 H 0.51692 0.16217 0.62304 0.0
C3827 C 0.46245 0.14583 0.56962 0.0
H3828 H 0.49591 0.1825 0.63229 0.0
C3829 C 0.47428 0.13407 0.56443 0.0
C3830 C 0.49403 0.13961 0.58364 0.0
H3831 H 0.4471 0.14094 0.55482 0.0
H3832 H 0.46756 0.12025 0.54596 0.0
C3833 C 0.50163 0.15727 0.60811 0.0
C3834 C 0.48976 0.31638 0.07106 0.0
C3835 C 0.47219 0.30676 0.09572 0.0
H3836 H 0.51538 0.347 0.04652 0.0
C3837 C 0.46723 0.32136 0.11496 0.0
H3838 H 0.49415 0.30565 0.05602 0.0
C3839 C 0.4795 0.34493 0.10974 0.0
C3840 C 0.49693 0.3545 0.08497 0.0
H3841 H 0.45343 0.3146 0.1335 0.0
H3842 H 0.47492 0.35563 0.12449 0.0
C3843 C 0.50194 0.34001 0.06564 0.0
C3844 C 0.65515 0.1589 0.06712 0.0
C3845 C 0.64099 0.13908 0.08598 0.0
H3846 H 0.68921 0.18622 0.05804 0.0
C3847 C 0.65084 0.13134 0.11048 0.0
H3848 H 0.6479 0.16536 0.04846 0.0
C3849 C 0.67442 0.14307 0.11583 0.0
C3850 C 0.68872 0.16297 0.09701 0.0
H3851 H 0.64031 0.1159 0.12506 0.0
H3852 H 0.68143 0.13616 0.13416 0.0
C3853 C 0.67876 0.1708 0.07268 0.0
C3854 C 0.84968 0.53151 0.06709 0.0
C3855 C 0.83231 0.52382 0.09192 0.0
H3856 H 0.87553 0.52689 0.04333 0.0
C3857 C 0.82698 0.50419 0.11109 0.0
H3858 H 0.85436 0.54682 0.0523 0.0
C3859 C 0.83893 0.49253 0.10569 0.0
C3860 C 0.85655 0.50038 0.08114 0.0
H3861 H 0.81344 0.49779 0.13003 0.0
H3862 H 0.83436 0.47735 0.12072 0.0
C3863 C 0.86173 0.51999 0.06184 0.0
C3864 C 0.51482 0.65147 0.9029 0.0
C3865 C 0.49744 0.64192 0.92774 0.0
H3866 H 0.54086 0.68179 0.87905 0.0
C3867 C 0.49249 0.65643 0.94713 0.0
H3868 H 0.51937 0.64077 0.88809 0.0
C3869 C 0.5047 0.68006 0.94173 0.0
C3870 C 0.52222 0.68965 0.91699 0.0
H3871 H 0.47909 0.64946 0.96631 0.0
H3872 H 0.50039 0.69082 0.95685 0.0
C3873 C 0.52711 0.67504 0.89766 0.0
C3874 C 0.3443 0.86282 0.89945 0.0
C3875 C 0.35376 0.85529 0.9249 0.0
H3876 H 0.31404 0.85809 0.8747 0.0
C3877 C 0.33929 0.83574 0.94407 0.0
H3878 H 0.35506 0.87805 0.88458 0.0
C3879 C 0.31572 0.82403 0.9381 0.0
C3880 C 0.30614 0.83177 0.91301 0.0
H3881 H 0.34623 0.82943 0.96346 0.0
H3882 H 0.30498 0.80893 0.95321 0.0
C3883 C 0.32077 0.85126 0.89364 0.0
C3884 C 0.15468 0.50431 0.90556 0.0
C3885 C 0.13695 0.49635 0.92998 0.0
H3886 H 0.18034 0.49923 0.88136 0.0
C3887 C 0.13164 0.47655 0.94891 0.0
H3888 H 0.15941 0.51963 0.89081 0.0
C3889 C 0.14378 0.46512 0.94368 0.0
C3890 C 0.16135 0.47302 0.91915 0.0
H3891 H 0.11776 0.46953 0.9673 0.0
H3892 H 0.13914 0.44979 0.95839 0.0
C3893 C 0.16667 0.49268 0.90009 0.0
C3894 C 0.16799 0.67482 0.39754 0.0
C3895 C 0.1624 0.68897 0.41661 0.0
H3896 H 0.16121 0.6407 0.38843 0.0
C3897 C 0.14491 0.67906 0.44125 0.0
H3898 H 0.18151 0.68207 0.37858 0.0
C3899 C 0.13326 0.65554 0.4468 0.0
C3900 C 0.13887 0.64128 0.42796 0.0
H3901 H 0.13988 0.68949 0.45583 0.0
H3902 H 0.11946 0.64851 0.46533 0.0
C3903 C 0.15639 0.65119 0.40323 0.0
C3904 C 0.34478 0.50433 0.40848 0.0
C3905 C 0.3545 0.49641 0.43306 0.0
H3906 H 0.31411 0.49908 0.38384 0.0
C3907 C 0.34001 0.47672 0.45216 0.0
H3908 H 0.35542 0.51957 0.39359 0.0
C3909 C 0.31647 0.4652 0.4467 0.0
C3910 C 0.30686 0.47296 0.42185 0.0
H3911 H 0.34687 0.46976 0.47067 0.0
H3912 H 0.3058 0.44984 0.46136 0.0
C3913 C 0.32119 0.49264 0.40283 0.0
C3914 C 0.5178 0.86507 0.40182 0.0
C3915 C 0.50013 0.8572 0.42615 0.0
H3916 H 0.54385 0.86058 0.37857 0.0
C3917 C 0.49466 0.83752 0.44529 0.0
H3918 H 0.52262 0.88046 0.38715 0.0
C3919 C 0.5066 0.82582 0.44001 0.0
C3920 C 0.5244 0.83373 0.41573 0.0
H3921 H 0.48098 0.83105 0.46401 0.0
H3922 H 0.50179 0.81049 0.45479 0.0
C3923 C 0.52988 0.85356 0.39679 0.0
C3924 C 0.26898 0.15573 0.84074 0.0
C3925 C 0.25512 0.14167 0.86758 0.0
H3926 H 0.27064 0.1655 0.78777 0.0
C3927 C 0.23239 0.12498 0.86014 0.0
H3928 H 0.2866 0.16859 0.84549 0.0
C3929 C 0.22338 0.12322 0.82725 0.0
C3930 C 0.23696 0.13781 0.80085 0.0
H3931 H 0.2212 0.11378 0.88007 0.0
H3932 H 0.20548 0.1111 0.82276 0.0
C3933 C 0.25998 0.15373 0.80761 0.0
C3934 C 0.87806 0.11109 0.85642 0.0
C3935 C 0.86002 0.11415 0.86804 0.0
H3936 H 0.89123 0.09964 0.81555 0.0
C3937 C 0.84249 0.11036 0.84484 0.0
H3938 H 0.89191 0.11391 0.87344 0.0
C3939 C 0.84245 0.10263 0.81144 0.0
C3940 C 0.85988 0.09849 0.80069 0.0
H3941 H 0.82839 0.11262 0.85281 0.0
H3942 H 0.82815 0.09863 0.79464 0.0
C3943 C 0.87786 0.10314 0.82319 0.0
C3944 C 0.89513 0.77764 0.82438 0.0
C3945 C 0.89801 0.76361 0.80079 0.0
H3946 H 0.8859 0.78141 0.87548 0.0
C3947 C 0.89184 0.74123 0.81045 0.0
H3948 H 0.90022 0.79511 0.81766 0.0
C3949 C 0.88413 0.73346 0.8439 0.0
C3950 C 0.88227 0.74791 0.86813 0.0
H3951 H 0.89441 0.73029 0.79287 0.0
H3952 H 0.88037 0.71644 0.85108 0.0
C3953 C 0.88713 0.76981 0.85757 0.0
C3954 C 0.15024 0.25746 0.70108 0.0
C3955 C 0.13347 0.23546 0.71146 0.0
H3956 H 0.16395 0.28167 0.65976 0.0
C3957 C 0.11611 0.22158 0.68839 0.0
H3958 H 0.16411 0.26823 0.71826 0.0
C3959 C 0.116 0.22913 0.65499 0.0
C3960 C 0.13352 0.25062 0.6437 0.0
H3961 H 0.10331 0.20438 0.69567 0.0
H3962 H 0.10274 0.21761 0.63754 0.0
C3963 C 0.1503 0.26498 0.66746 0.0
C3964 C 0.7298 0.88592 0.66745 0.0
C3965 C 0.74338 0.88173 0.64449 0.0
H3966 H 0.72727 0.89777 0.71758 0.0
C3967 C 0.76404 0.88391 0.65657 0.0
H3968 H 0.71378 0.88432 0.65914 0.0
C3969 C 0.77162 0.8915 0.68998 0.0
C3970 C 0.75856 0.89668 0.71221 0.0
H3971 H 0.77492 0.88075 0.63974 0.0
H3972 H 0.78825 0.89446 0.69791 0.0
C3973 C 0.73734 0.89332 0.70103 0.0
C3974 C 0.10118 0.87911 0.68912 0.0
C3975 C 0.10062 0.86366 0.7137 0.0
H3976 H 0.10873 0.89117 0.63744 0.0
C3977 C 0.10914 0.84915 0.70492 0.0
H3978 H 0.09438 0.8902 0.69517 0.0
C3979 C 0.117 0.8493 0.67147 0.0
C3980 C 0.11661 0.86411 0.64635 0.0
H3981 H 0.10845 0.83677 0.72331 0.0
H3982 H 0.12276 0.83741 0.66505 0.0
C3983 C 0.10923 0.87946 0.65596 0.0
C3984 C 0.76073 0.87269 0.15351 0.0
C3985 C 0.73847 0.8551 0.1455 0.0
H3986 H 0.78734 0.88735 0.1913 0.0
C3987 C 0.7249 0.84034 0.17196 0.0
H3988 H 0.77169 0.88448 0.13394 0.0
C3989 C 0.73385 0.84243 0.20516 0.0
C3990 C 0.75652 0.8592 0.21238 0.0
H3991 H 0.70764 0.82678 0.16681 0.0
H3992 H 0.72355 0.83005 0.2246 0.0
C3993 C 0.76968 0.87458 0.18647 0.0
C3994 C 0.11717 0.89217 0.19161 0.0
C3995 C 0.13584 0.89807 0.21328 0.0
H3996 H 0.10224 0.87995 0.14223 0.0
C3997 C 0.15371 0.89478 0.20195 0.0
H3998 H 0.10344 0.89498 0.1997 0.0
C3999 C 0.15333 0.88651 0.16879 0.0
C4000 C 0.13506 0.88146 0.14638 0.0
H4001 H 0.16852 0.89974 0.21811 0.0
H4002 H 0.16772 0.8849 0.16034 0.0
C4003 C 0.11669 0.88379 0.1586 0.0
C4004 C 0.10857 0.22786 0.15411 0.0
C4005 C 0.11507 0.25031 0.14393 0.0
H4006 H 0.09424 0.20247 0.19372 0.0
C4007 C 0.11469 0.26536 0.16857 0.0
H4008 H 0.10869 0.21577 0.13598 0.0
C4009 C 0.1068 0.25773 0.20203 0.0
C4010 C 0.09905 0.23491 0.21129 0.0
H4011 H 0.11975 0.28279 0.16172 0.0
H4012 H 0.10538 0.26922 0.21995 0.0
C4013 C 0.1005 0.22023 0.1873 0.0
C4014 C 0.87894 0.77614 0.32453 0.0
C4015 C 0.861 0.7625 0.30214 0.0
H4016 H 0.8932 0.77988 0.37473 0.0
C4017 C 0.84385 0.74085 0.31318 0.0
H4018 H 0.89208 0.79307 0.31672 0.0
C4019 C 0.84413 0.73337 0.34669 0.0
C4020 C 0.86164 0.74741 0.36972 0.0
H4021 H 0.82956 0.73029 0.29651 0.0
H4022 H 0.83025 0.71693 0.35485 0.0
C4023 C 0.87938 0.76861 0.35785 0.0
C4024 C 0.23077 0.11259 0.35633 0.0
C4025 C 0.25209 0.11607 0.36765 0.0
H4026 H 0.20594 0.10076 0.31577 0.0
C4027 C 0.26605 0.11287 0.34409 0.0
H4028 H 0.21957 0.11493 0.37363 0.0
C4029 C 0.25831 0.1052 0.31065 0.0
C4030 C 0.23649 0.10052 0.30024 0.0
H4031 H 0.28258 0.11549 0.35182 0.0
H4032 H 0.26878 0.10157 0.29361 0.0
C4033 C 0.223 0.1047 0.32309 0.0
C4034 C 0.88912 0.12589 0.35986 0.0
C4035 C 0.8834 0.14277 0.36765 0.0
H4036 H 0.90192 0.11197 0.32218 0.0
C4037 C 0.88385 0.1571 0.34104 0.0
H4038 H 0.88892 0.11447 0.37958 0.0
C4039 C 0.89083 0.15521 0.30783 0.0
C4040 C 0.89765 0.13911 0.30077 0.0
H4041 H 0.87933 0.17011 0.34604 0.0
H4042 H 0.89217 0.1672 0.2882 0.0
C4043 C 0.89635 0.12423 0.3269 0.0
C4044 C 0.89059 0.45724 0.16011 0.0
C4045 C 0.9041 0.47202 0.13382 0.0
H4046 H 0.88841 0.44771 0.21287 0.0
C4047 C 0.92703 0.48817 0.14073 0.0
H4048 H 0.87275 0.44496 0.1555 0.0
C4049 C 0.93598 0.4902 0.17391 0.0
C4050 C 0.92218 0.47596 0.20064 0.0
H4051 H 0.93762 0.50008 0.12099 0.0
H4052 H 0.95352 0.50324 0.17878 0.0
C4053 C 0.89956 0.45904 0.19304 0.0
C4054 C 0.54569 0.43806 0.15364 0.0
C4055 C 0.52733 0.43228 0.13135 0.0
H4056 H 0.56003 0.45011 0.20337 0.0
C4057 C 0.50948 0.43584 0.14193 0.0
H4058 H 0.55939 0.43501 0.1462 0.0
C4059 C 0.50952 0.44411 0.175 0.0
C4060 C 0.52744 0.44894 0.19805 0.0
H4061 H 0.49488 0.43097 0.12535 0.0
H4062 H 0.49512 0.44587 0.1829 0.0
C4063 C 0.54585 0.44647 0.18651 0.0
C4064 C 0.55791 0.07268 0.14511 0.0
C4065 C 0.56366 0.09485 0.13491 0.0
H4066 H 0.54718 0.04842 0.18636 0.0
C4067 C 0.5608 0.10904 0.15819 0.0
H4068 H 0.56051 0.06166 0.12773 0.0
C4069 C 0.55322 0.10156 0.19165 0.0
C4070 C 0.5488 0.07989 0.20271 0.0
H4071 H 0.56561 0.12636 0.15102 0.0
H4072 H 0.55198 0.11327 0.20933 0.0
C4073 C 0.55062 0.06527 0.17878 0.0
C4074 C 0.81514 0.59848 1.00061 0.0
C4075 C 0.79861 0.58375 0.97685 0.0
H4076 H 0.82922 0.60218 0.05134 0.0
C4077 C 0.78178 0.5619 0.98807 0.0
H4078 H 0.82827 0.61545 0.99297 0.0
C4079 C 0.78232 0.55445 0.02137 0.0
C4080 C 0.79945 0.56875 0.04445 0.0
H4081 H 0.76871 0.55007 0.97065 0.0
H4082 H 0.77004 0.53705 0.02857 0.0
C4083 C 0.81552 0.59104 0.03416 0.0
C4084 C 0.43056 0.21622 0.99012 0.0
C4085 C 0.4096 0.21346 0.97835 0.0
H4086 H 0.45523 0.2276 0.03091 0.0
C4087 C 0.39618 0.2179 1.00127 0.0
H4088 H 0.44134 0.21288 0.97335 0.0
C4089 C 0.40409 0.22596 0.03453 0.0
C4090 C 0.4255 0.2297 0.04542 0.0
H4091 H 0.37996 0.21593 0.99319 0.0
H4092 H 0.39405 0.23044 0.05109 0.0
C4093 C 0.43849 0.22442 0.02319 0.0
C4094 C 0.77441 0.21248 0.98768 0.0
C4095 C 0.78152 0.19697 0.97778 0.0
H4096 H 0.75981 0.22329 0.02722 0.0
C4097 C 0.78178 0.18199 1.0027 0.0
H4098 H 0.774 0.22431 0.9693 0.0
C4099 C 0.77406 0.18182 0.03623 0.0
C4100 C 0.76578 0.19648 0.0453 0.0
H4101 H 0.78731 0.16994 0.99605 0.0
H4102 H 0.77326 0.16932 0.05445 0.0
C4103 C 0.76646 0.2121 0.02094 0.0
C4104 C 0.44017 0.21236 0.52178 0.0
C4105 C 0.42544 0.19643 0.54596 0.0
H4106 H 0.44468 0.22477 0.47033 0.0
C4107 C 0.40256 0.18151 0.53686 0.0
H4108 H 0.45796 0.22377 0.52809 0.0
C4109 C 0.3949 0.1817 0.50338 0.0
C4110 C 0.41002 0.19689 0.47855 0.0
H4111 H 0.39101 0.16876 0.55495 0.0
H4112 H 0.37742 0.16942 0.49665 0.0
C4113 C 0.43253 0.21272 0.48858 0.0
C4114 C 0.78358 0.21714 0.48991 0.0
C4115 C 0.80159 0.214 0.47841 0.0
H4116 H 0.7705 0.22888 0.53046 0.0
C4117 C 0.8191 0.2178 0.50167 0.0
H4118 H 0.76973 0.21429 0.47288 0.0
C4119 C 0.81919 0.22577 0.53496 0.0
C4120 C 0.80181 0.23006 0.54552 0.0
H4121 H 0.83317 0.21547 0.49379 0.0
H4122 H 0.83353 0.22988 0.55176 0.0
C4123 C 0.7838 0.22526 0.52301 0.0
C4124 C 0.76749 0.55226 0.52162 0.0
C4125 C 0.76452 0.56623 0.54522 0.0
H4126 H 0.77672 0.54852 0.47054 0.0
C4127 C 0.77058 0.58859 0.53553 0.0
H4128 H 0.76248 0.53481 0.52833 0.0
C4129 C 0.77827 0.59638 0.50207 0.0
C4130 C 0.78018 0.58197 0.47781 0.0
H4131 H 0.76792 0.59947 0.55309 0.0
H4132 H 0.78195 0.61337 0.49489 0.0
C4133 C 0.77543 0.5601 0.48841 0.0
C4134 C 0.51102 0.07298 0.6457 0.0
C4135 C 0.52676 0.09548 0.6359 0.0
H4136 H 0.49858 0.04816 0.68632 0.0
C4137 C 0.54349 0.10992 0.65937 0.0
H4138 H 0.49766 0.06172 0.62816 0.0
C4139 C 0.54406 0.10227 0.69252 0.0
C4140 C 0.52764 0.0801 0.70316 0.0
H4141 H 0.55553 0.12745 0.65248 0.0
H4142 H 0.55688 0.11412 0.71022 0.0
C4143 C 0.5114 0.06535 0.6791 0.0
C4144 C 0.89744 0.4455 0.68907 0.0
C4145 C 0.91844 0.44847 0.70106 0.0
H4146 H 0.87297 0.43402 0.64799 0.0
C4147 C 0.93211 0.44429 0.67826 0.0
H4148 H 0.88648 0.44863 0.70575 0.0
C4149 C 0.92442 0.4363 0.64491 0.0
C4150 C 0.90298 0.43235 0.63379 0.0
H4151 H 0.94837 0.44643 0.68651 0.0
H4152 H 0.93467 0.43204 0.62843 0.0
C4153 C 0.88973 0.43735 0.6559 0.0
C4154 C 0.55646 0.48638 0.64001 0.0
C4155 C 0.56297 0.47014 0.63222 0.0
H4156 H 0.54537 0.50116 0.67897 0.0
C4157 C 0.56149 0.45488 0.65789 0.0
H4158 H 0.55796 0.49866 0.62079 0.0
C4159 C 0.5544 0.45631 0.69108 0.0
C4160 C 0.549 0.47331 0.69957 0.0
H4161 H 0.56684 0.44252 0.65263 0.0
H4162 H 0.55407 0.44461 0.71042 0.0
C4163 C 0.54963 0.48803 0.67344 0.0
C4164 C 0.56146 0.78457 0.52448 0.0
C4165 C 0.58399 0.80035 0.53448 0.0
H4166 H 0.53604 0.77349 0.48491 0.0
C4167 C 0.5991 0.81557 0.50967 0.0
H4168 H 0.54932 0.77252 0.54274 0.0
C4169 C 0.59146 0.81572 0.47617 0.0
C4170 C 0.56859 0.80077 0.46703 0.0
H4171 H 0.61659 0.82783 0.51638 0.0
H4172 H 0.60303 0.82841 0.45804 0.0
C4173 C 0.55383 0.78492 0.49126 0.0
C4174 C 0.16968 0.77585 0.50653 0.0
C4175 C 0.18581 0.77926 0.5321 0.0
H4176 H 0.15846 0.76522 0.45467 0.0
C4177 C 0.20463 0.77672 0.52317 0.0
H4178 H 0.15508 0.77781 0.51237 0.0
C4179 C 0.20656 0.76966 0.49021 0.0
C4180 C 0.18996 0.76537 0.46524 0.0
H4181 H 0.21749 0.77929 0.54204 0.0
H4182 H 0.22043 0.76647 0.48469 0.0
C4183 C 0.17178 0.76901 0.47336 0.0
C4184 C 0.21858 0.43449 0.52587 0.0
C4185 C 0.21377 0.41263 0.53671 0.0
H4186 H 0.23142 0.45953 0.48562 0.0
C4187 C 0.21546 0.39802 0.51261 0.0
H4188 H 0.21741 0.44621 0.54359 0.0
C4189 C 0.22304 0.40562 0.47906 0.0
C4190 C 0.22916 0.42794 0.46914 0.0
H4191 H 0.21174 0.38105 0.51998 0.0
H4192 H 0.22556 0.39459 0.46158 0.0
C4193 C 0.22637 0.4421 0.49255 0.0
C4194 C 0.45006 0.88781 0.35396 0.0
C4195 C 0.46744 0.90184 0.37689 0.0
H4196 H 0.43624 0.88385 0.30346 0.0
C4197 C 0.48384 0.924 0.3666 0.0
H4198 H 0.4375 0.87052 0.36121 0.0
C4199 C 0.4835 0.93161 0.3332 0.0
C4200 C 0.46666 0.91718 0.30959 0.0
H4201 H 0.49771 0.9349 0.38372 0.0
H4202 H 0.49685 0.94847 0.32556 0.0
C4203 C 0.44955 0.89544 0.32078 0.0
C4204 C 0.1052 0.55771 0.35697 0.0
C4205 C 0.09276 0.56394 0.37874 0.0
H4206 H 0.10746 0.54523 0.30757 0.0
C4207 C 0.07166 0.56094 0.3676 0.0
H4208 H 0.1217 0.56029 0.3649 0.0
C4209 C 0.06356 0.55266 0.33452 0.0
C4210 C 0.07648 0.54731 0.31199 0.0
H4211 H 0.06206 0.56616 0.38383 0.0
H4212 H 0.04763 0.55129 0.32621 0.0
C4213 C 0.09709 0.54932 0.32403 0.0
C4214 C 0.43178 0.54062 0.35465 0.0
C4215 C 0.43046 0.52546 0.38035 0.0
H4216 H 0.43905 0.55081 0.30208 0.0
C4217 C 0.43711 0.50931 0.37259 0.0
H4218 H 0.42631 0.5529 0.3599 0.0
C4219 C 0.44391 0.50766 0.33916 0.0
C4220 C 0.44439 0.52229 0.313 0.0
H4221 H 0.43573 0.4971 0.39185 0.0
H4222 H 0.44829 0.49461 0.33363 0.0
C4223 C 0.43885 0.5392 0.32146 0.0
C4224 C 0.10744 0.54558 0.85497 0.0
C4225 C 0.09275 0.52934 0.87887 0.0
H4226 H 0.11201 0.55824 0.8036 0.0
C4227 C 0.07009 0.51396 0.86927 0.0
H4228 H 0.12509 0.55732 0.86166 0.0
C4229 C 0.06261 0.51407 0.83567 0.0
C4230 C 0.07765 0.52969 0.81118 0.0
H4231 H 0.05862 0.50097 0.88713 0.0
H4232 H 0.04531 0.50147 0.82861 0.0
C4233 C 0.09994 0.54589 0.82162 0.0
C4234 C 0.44836 0.54895 0.82689 0.0
C4235 C 0.46728 0.54762 0.81461 0.0
H4236 H 0.43436 0.55945 0.86785 0.0
C4237 C 0.48578 0.55354 0.83699 0.0
H4238 H 0.43373 0.54443 0.81056 0.0
C4239 C 0.48585 0.56178 0.87008 0.0
C4240 C 0.46743 0.56418 0.88142 0.0
H4241 H 0.5006 0.55269 0.82851 0.0
H4242 H 0.50085 0.56752 0.8861 0.0
C4243 C 0.44853 0.5573 0.85983 0.0
C4244 C 0.4428 0.92958 0.83401 0.0
C4245 C 0.44594 0.91554 0.81058 0.0
H4246 H 0.43201 0.93264 0.88464 0.0
C4247 C 0.44321 0.89459 0.8222 0.0
H4248 H 0.44496 0.94589 0.82596 0.0
C4249 C 0.43581 0.88709 0.85572 0.0
C4250 C 0.43151 0.9006 0.87843 0.0
H4251 H 0.4455 0.88338 0.80485 0.0
H4252 H 0.43215 0.87016 0.86331 0.0
C4253 C 0.43574 0.9222 0.86771 0.0
C4254 C 0.18001 0.40761 0.97839 0.0
C4255 C 0.19573 0.43013 0.96872 0.0
H4256 H 0.16702 0.38298 0.01921 0.0
C4257 C 0.21222 0.44466 0.99247 0.0
H4258 H 0.16683 0.39628 0.96064 0.0
C4259 C 0.21241 0.43711 0.02584 0.0
C4260 C 0.19578 0.41503 0.03634 0.0
H4261 H 0.22419 0.46223 0.98569 0.0
H4262 H 0.22484 0.44902 0.04393 0.0
C4263 C 0.17993 0.40014 0.012 0.0
C4264 C 0.59799 0.77604 0.01263 0.0
C4265 C 0.58594 0.78311 0.03409 0.0
H4266 H 0.59878 0.76122 0.96418 0.0
C4267 C 0.56633 0.78278 0.02096 0.0
H4268 H 0.61312 0.77604 0.02182 0.0
C4269 C 0.5583 0.77445 0.98795 0.0
C4270 C 0.56982 0.76653 0.96727 0.0
H4271 H 0.55669 0.78825 0.0366 0.0
H4272 H 0.54253 0.77326 0.97913 0.0
C4273 C 0.58994 0.76775 0.97955 0.0
C4274 C 0.22099 0.79061 0.02444 0.0
C4275 C 0.21689 0.80851 0.03292 0.0
H4276 H 0.23228 0.77567 0.98607 0.0
C4277 C 0.21875 0.82383 0.00691 0.0
H4278 H 0.21968 0.77843 0.0437 0.0
C4279 C 0.22546 0.8218 0.97361 0.0
C4280 C 0.23058 0.80456 0.96584 0.0
H4281 H 0.21554 0.83768 0.01244 0.0
H4282 H 0.22791 0.83448 0.95446 0.0
C4283 C 0.22796 0.7888 0.99136 0.0
C4284 C 0.34752 0.15922 0.16109 0.0
C4285 C 0.34858 0.16602 0.19539 0.0
H4286 H 0.32975 0.15233 0.11326 0.0
C4287 C 0.33272 0.17196 0.20768 0.0
H4288 H 0.3597 0.15469 0.15113 0.0
C4289 C 0.3159 0.17097 0.18601 0.0
C4290 C 0.31481 0.16414 0.15175 0.0
H4291 H 0.33366 0.17791 0.2338 0.0
H4292 H 0.30371 0.17549 0.19598 0.0
C4293 C 0.3307 0.15825 0.13941 0.0
C4294 C 0.82413 0.15913 0.20708 0.0
C4295 C 0.83008 0.18078 0.19402 0.0
H4296 H 0.82001 0.12624 0.19638 0.0
C4297 C 0.8361 0.18579 0.15934 0.0
H4298 H 0.81875 0.15466 0.23355 0.0
C4299 C 0.83638 0.16942 0.13805 0.0
C4300 C 0.83057 0.14784 0.15119 0.0
H4301 H 0.84061 0.20236 0.14878 0.0
H4302 H 0.8418 0.17388 0.11159 0.0
C4303 C 0.82442 0.14277 0.1858 0.0
C4304 C 0.82602 0.66605 0.13856 0.0
C4305 C 0.84712 0.68236 0.15249 0.0
H4306 H 0.79374 0.63607 0.14792 0.0
C4307 C 0.85187 0.68108 0.1872 0.0
H4308 H 0.82179 0.66712 0.11203 0.0
C4309 C 0.83576 0.66361 0.20774 0.0
C4310 C 0.81466 0.64729 0.19382 0.0
H4311 H 0.86804 0.69357 0.19838 0.0
H4312 H 0.84001 0.66254 0.23426 0.0
C4313 C 0.8099 0.64858 0.1591 0.0
C4314 C 0.15884 0.34791 0.35495 0.0
C4315 C 0.1647 0.34939 0.32016 0.0
H4316 H 0.15239 0.3291 0.40167 0.0
C4317 C 0.16923 0.33306 0.30562 0.0
H4318 H 0.15536 0.36041 0.36657 0.0
C4319 C 0.16793 0.31543 0.32571 0.0
C4320 C 0.16218 0.31401 0.36057 0.0
H4321 H 0.17437 0.33427 0.27897 0.0
H4322 H 0.17148 0.30296 0.31411 0.0
C4323 C 0.15752 0.33028 0.37503 0.0
C4324 C 0.66446 0.83899 0.30408 0.0
C4325 C 0.64867 0.81733 0.31701 0.0
H4326 H 0.69334 0.87177 0.31498 0.0
C4327 C 0.64965 0.81219 0.35165 0.0
H4328 H 0.66357 0.84357 0.27767 0.0
C4329 C 0.66631 0.82845 0.37304 0.0
C4330 C 0.68215 0.85005 0.36003 0.0
H4331 H 0.63754 0.79561 0.36211 0.0
H4332 H 0.66723 0.82392 0.39947 0.0
C4333 C 0.68115 0.85523 0.32545 0.0
C4334 C 0.1579 0.82489 0.30623 0.0
C4335 C 0.17977 0.83068 0.31796 0.0
H4336 H 0.12563 0.82172 0.31888 0.0
C4337 C 0.186 0.83768 0.35205 0.0
H4338 H 0.15258 0.81885 0.28021 0.0
C4339 C 0.17056 0.83897 0.37417 0.0
C4340 C 0.14865 0.83315 0.36248 0.0
H4341 H 0.20279 0.84208 0.36153 0.0
H4342 H 0.17594 0.84506 0.40014 0.0
C4343 C 0.14243 0.82616 0.32837 0.0
C4344 C 0.64735 0.83722 0.85174 0.0
C4345 C 0.64621 0.83054 0.81738 0.0
H4346 H 0.66522 0.84396 0.89945 0.0
C4347 C 0.66206 0.82465 0.80482 0.0
H4348 H 0.63519 0.84171 0.86191 0.0
C4349 C 0.67893 0.82557 0.8263 0.0
C4350 C 0.68008 0.83228 0.86064 0.0
H4351 H 0.66107 0.81879 0.77863 0.0
H4352 H 0.69109 0.82109 0.81614 0.0
C4353 C 0.66422 0.83813 0.87324 0.0
C4354 C 0.17015 0.85407 0.82755 0.0
C4355 C 0.16369 0.84838 0.86197 0.0
H4356 H 0.17601 0.84293 0.7792 0.0
C4357 C 0.15725 0.82638 0.87397 0.0
H4358 H 0.17502 0.87092 0.8178 0.0
C4359 C 0.15739 0.81031 0.85188 0.0
C4360 C 0.16391 0.81602 0.81749 0.0
H4361 H 0.15153 0.8214 0.9002 0.0
H4362 H 0.15252 0.79346 0.86164 0.0
C4363 C 0.1703 0.83799 0.80544 0.0
C4364 C 0.17112 0.33078 0.87512 0.0
C4365 C 0.14987 0.31435 0.86174 0.0
H4366 H 0.2031 0.361 0.86512 0.0
C4367 C 0.14459 0.31563 0.82729 0.0
H4368 H 0.17578 0.32974 0.90143 0.0
C4369 C 0.1603 0.33322 0.80652 0.0
C4370 C 0.18153 0.34967 0.81992 0.0
H4371 H 0.12829 0.30308 0.81653 0.0
H4372 H 0.15565 0.33428 0.78021 0.0
C4373 C 0.18683 0.34839 0.85435 0.0
C4374 C 0.84831 0.66529 0.6922 0.0
C4375 C 0.82661 0.64579 0.69273 0.0
H4376 H 0.86902 0.69886 0.67264 0.0
C4377 C 0.80876 0.64557 0.67392 0.0
H4378 H 0.8624 0.66584 0.70632 0.0
C4379 C 0.81249 0.66453 0.65488 0.0
C4380 C 0.83419 0.68404 0.65437 0.0
H4381 H 0.79179 0.63093 0.67442 0.0
H4382 H 0.7984 0.66397 0.64078 0.0
C4383 C 0.85205 0.68423 0.67314 0.0
C4384 C 0.34613 0.18529 0.66027 0.0
C4385 C 0.34709 0.18006 0.69486 0.0
H4386 H 0.32866 0.17361 0.61237 0.0
C4387 C 0.3314 0.15833 0.70765 0.0
H4388 H 0.35819 0.20192 0.64993 0.0
C4389 C 0.31485 0.14207 0.68616 0.0
C4390 C 0.31385 0.14732 0.65161 0.0
H4391 H 0.33229 0.1537 0.73404 0.0
H4392 H 0.30275 0.12545 0.69651 0.0
C4393 C 0.32958 0.16902 0.63877 0.0
C4394 C 0.8513 0.17078 0.6866 0.0
C4395 C 0.84587 0.16422 0.65218 0.0
H4396 H 0.84012 0.17757 0.73418 0.0
C4397 C 0.82424 0.15853 0.63938 0.0
H4398 H 0.86788 0.17513 0.69692 0.0
C4399 C 0.80828 0.15955 0.66072 0.0
C4400 C 0.81374 0.16617 0.69511 0.0
H4401 H 0.81949 0.1528 0.61311 0.0
H4402 H 0.79172 0.15527 0.65037 0.0
C4403 C 0.83534 0.17179 0.70793 0.0
C4404 C 0.01474 0.49343 0.49349 0.0
C4405 C 0.01576 0.49983 0.52798 0.0
H4406 H 0.99696 0.48694 0.44575 0.0
C4407 C -0.00023 0.50545 0.54077 0.0
H4408 H 0.02702 0.48916 0.48317 0.0
C4409 C 0.98291 0.5046 0.51934 0.0
C4410 C 0.98188 0.4982 0.48486 0.0
H4411 H 0.00068 0.51108 0.56708 0.0
H4412 H 0.97065 0.5089 0.52967 0.0
C4413 C -0.00214 0.49257 0.47207 0.0
C4414 C 0.50319 0.51978 0.49399 0.0
C4415 C 0.49662 0.51394 0.52835 0.0
H4416 H 0.50936 0.50894 0.44563 0.0
C4417 C 0.4904 0.49198 0.54025 0.0
H4418 H 0.50792 0.53662 0.48433 0.0
C4419 C 0.4908 0.47606 0.51808 0.0
C4420 C 0.49736 0.48191 0.48372 0.0
H4421 H 0.48464 0.48691 0.56645 0.0
H4422 H 0.48608 0.45923 0.52774 0.0
C4423 C 0.50359 0.50387 0.47182 0.0
C4424 C 0.47664 0.98208 0.48972 0.0
C4425 C 0.4803 0.98029 0.52472 0.0
H4426 H 0.49008 0.00117 0.44348 0.0
C4427 C 0.50101 0.99624 0.54009 0.0
H4428 H 0.46078 0.96985 0.47746 0.0
C4429 C 0.51787 0.01386 0.52065 0.0
C4430 C 0.51422 0.01563 0.48563 0.0
H4431 H 0.50439 0.99475 0.56691 0.0
H4432 H 0.53373 0.02608 0.53291 0.0
C4433 C 0.49349 -0.00031 0.47029 0.0
C4434 C 0.50329 -0.00082 0.97201 0.0
C4435 C 0.49854 0.01568 0.98529 0.0
H4436 H 0.50493 0.96892 0.98213 0.0
C4437 C 0.49183 0.01439 0.01965 0.0
H4438 H 0.50911 0.00024 0.94577 0.0
C4439 C 0.48978 0.99673 0.04045 0.0
C4440 C 0.49454 0.98024 0.02717 0.0
H4441 H 0.48815 0.027 0.03034 0.0
H4442 H 0.484 0.99568 0.06672 0.0
C4443 C 0.50123 0.98152 0.9928 0.0
C4444 C 0.99595 0.50341 0.97225 0.0
C4445 C 0.98026 0.48155 0.98457 0.0
H4446 H 0.02449 0.53621 0.9841 0.0
C4447 C 0.98124 0.47591 0.01893 0.0
H4448 H 0.99504 0.5083 0.94602 0.0
C4449 C -0.00225 0.49194 0.04073 0.0
C4450 C 0.01342 0.51382 0.02844 0.0
H4451 H 0.96917 0.45915 0.02889 0.0
H4452 H -0.00136 0.48703 0.06695 0.0
C4453 C 0.01246 0.51945 0.99406 0.0
C4454 C 0.49457 0.47655 1.00461 0.0
C4455 C 0.51189 0.49457 0.98561 0.0
H4456 H 0.46656 0.46597 0.03936 0.0
C4457 C 0.51427 0.51631 0.98728 0.0
H4458 H 0.49213 0.45957 1.0032 0.0
C4459 C 0.49958 0.51993 0.00783 0.0
C4460 C 0.48225 0.50191 0.02681 0.0
H4461 H 0.52758 0.5305 0.97303 0.0
H4462 H 0.50204 0.53692 0.00927 0.0
C4463 C 0.47987 0.48017 0.02513 0.0
loop_
_geom_bond_atom_site_label_1
_geom_bond_atom_site_label_2
_geom_bond_distance
_geom_bond_site_symmetry_2
_ccdc_geom_bond_type
Cd0 O57 2.350 1_556 S
Cd0 O58 2.277 . S
Cd0 O65 2.173 . S
Cd0 O67 2.263 1_556 S
Cd0 O69 2.366 1_556 S
Cd0 O72 2.329 . S
C1 O65 1.277 . S
C1 O66 1.230 . S
C2 O3 1.246 . S
C2 C5 1.481 . S
C2 N27 1.329 . S
O3 C2 1.246 . S
Cd4 O66 2.250 . S
Cd4 O68 2.308 1_556 S
Cd4 O71 2.352 . S
C5 C2 1.481 . S
C5 N8 1.327 . S
C5 C9 1.407 . S
C6 C7 1.346 . S
C6 C10 1.390 . S
C6 H74 0.930 . S
C7 C6 1.346 . S
C7 N8 1.342 . S
C7 C12 1.516 . S
N8 C5 1.327 . S
N8 C7 1.342 . S
N8 Co11 1.864 . S
C9 C5 1.407 . S
C9 C10 1.364 . S
C9 H75 0.930 . S
C10 C6 1.390 . S
C10 C9 1.364 . S
C10 H76 0.931 . S
Co11 N8 1.864 . S
Co11 N27 1.955 . S
Co11 N28 1.958 . S
Co11 N29 1.953 . S
Co11 N47 1.869 . S
Co11 N53 1.974 . S
C12 C7 1.516 . S
C12 O13 1.238 . S
C12 N28 1.324 . S
O13 C12 1.238 . S
C14 C15 1.394 . S
C14 C19 1.395 . S
C14 N28 1.427 . S
C15 C14 1.394 . S
C15 C16 1.380 . S
C15 H77 0.929 . S
C16 C15 1.380 . S
C16 C17 1.384 . S
C16 C20 1.495 . S
C17 C16 1.384 . S
C17 C18 1.382 . S
C17 H78 0.930 . S
C18 C17 1.382 . S
C18 C19 1.398 . S
C19 C14 1.395 . S
C19 C18 1.398 . S
C19 H79 0.930 . S
C20 C16 1.495 . S
C20 O67 1.258 . S
C20 O68 1.274 . S
C21 C22 1.385 . S
C21 C23 1.381 . S
C21 N27 1.432 . S
C22 C21 1.385 . S
C22 C26 1.388 . S
C22 H80 0.929 . S
C23 C21 1.381 . S
C23 C24 1.371 . S
C23 H81 0.932 . S
C24 C23 1.371 . S
C24 C25 1.400 . S
C25 C24 1.400 . S
C25 C26 1.351 . S
C25 H82 0.930 . S
C26 C22 1.388 . S
C26 C25 1.351 . S
N27 C2 1.329 . S
N27 Co11 1.955 . S
N27 C21 1.432 . S
N28 Co11 1.958 . S
N28 C12 1.324 . S
N28 C14 1.427 . S
N29 Co11 1.953 . S
N29 C30 1.436 . S
N29 C56 1.316 . S
C30 N29 1.436 . S
C30 C31 1.421 . S
C30 C32 1.360 . S
C31 C30 1.421 . S
C31 C33 1.379 . S
C31 H34 0.929 . S
C32 C30 1.360 . S
C32 C36 1.393 . S
C32 H38 0.931 . S
C33 C31 1.379 . S
C33 C35 1.417 . S
C33 C37 1.505 . S
H34 C31 0.929 . S
C35 C33 1.417 . S
C35 C36 1.352 . S
C35 H39 0.929 . S
C36 C32 1.393 . S
C36 C35 1.352 . S
C36 C40 1.482 . S
C37 C33 1.505 . S
C37 O41 1.259 . S
C37 O42 1.229 . S
H38 C32 0.931 . S
H39 C35 0.929 . S
C40 C36 1.482 . S
C40 O43 1.207 . S
C40 O44 1.289 . S
O41 C37 1.259 . S
O41 H45 0.822 . S
O42 C37 1.229 . S
O43 C40 1.207 . S
O44 C40 1.289 . S
O44 H46 0.819 . S
H45 O41 0.822 . S
H46 O44 0.819 . S
N47 Co11 1.869 . S
N47 C48 1.330 . S
N47 C52 1.325 . S
C48 N47 1.330 . S
C48 C49 1.359 . S
C48 C54 1.504 . S
C49 C48 1.359 . S
C49 C50 1.366 . S
C49 H83 0.929 . S
C50 C49 1.366 . S
C50 C51 1.415 . S
C50 H84 0.932 . S
C51 C50 1.415 . S
C51 C52 1.366 . S
C51 H85 0.931 . S
C52 N47 1.325 . S
C52 C51 1.366 . S
C52 C56 1.516 . S
N53 Co11 1.974 . S
N53 C54 1.309 . S
N53 C59 1.423 . S
C54 C48 1.504 . S
C54 N53 1.309 . S
C54 O55 1.258 . S
O55 C54 1.258 . S
C56 N29 1.316 . S
C56 C52 1.516 . S
C56 O69 1.263 . S
O57 Cd0 2.350 1_554 S
O57 C73 1.270 1_554 S
O58 Cd0 2.277 . S
O58 C73 1.248 . S
C59 N53 1.423 . S
C59 C60 1.370 . S
C59 C64 1.403 . S
C60 C59 1.370 . S
C60 C61 1.389 . S
C60 H86 0.931 . S
C61 C60 1.389 . S
C61 C62 1.389 . S
C62 C61 1.389 . S
C62 C63 1.379 . S
C62 H87 0.929 . S
C63 C62 1.379 . S
C63 C64 1.405 . S
C64 C59 1.403 . S
C64 C63 1.405 . S
C64 H88 0.932 . S
O65 Cd0 2.173 . S
O65 C1 1.277 . S
O66 C1 1.230 . S
O66 Cd4 2.250 . S
O67 Cd0 2.263 1_554 S
O67 C20 1.258 . S
O68 Cd4 2.308 1_554 S
O68 C20 1.274 . S
O69 Cd0 2.366 1_554 S
O69 C56 1.263 . S
C70 O71 1.235 . S
C70 O72 1.270 . S
O71 Cd4 2.352 . S
O71 C70 1.235 . S
O72 Cd0 2.329 . S
O72 C70 1.270 . S
C73 O57 1.270 1_556 S
C73 O58 1.248 . S
H74 C6 0.930 . S
H75 C9 0.930 . S
H76 C10 0.931 . S
H77 C15 0.929 . S
H78 C17 0.930 . S
H79 C19 0.930 . S
H80 C22 0.929 . S
H81 C23 0.932 . S
H82 C25 0.930 . S
H83 C49 0.929 . S
H84 C50 0.932 . S
H85 C51 0.931 . S
H86 C60 0.931 . S
H87 C62 0.929 . S
H88 C64 0.932 . S
Cd89 O146 2.350 1_556 S
Cd89 O147 2.277 . S
Cd89 O154 2.173 . S
Cd89 O156 2.263 1_556 S
Cd89 O158 2.366 1_556 S
Cd89 O161 2.329 . S
C90 O154 1.277 . S
C90 O155 1.230 . S
C91 O92 1.246 . S
C91 C94 1.481 . S
C91 N116 1.329 . S
O92 C91 1.246 . S
Cd93 O155 2.250 . S
Cd93 O157 2.308 1_556 S
Cd93 O160 2.352 . S
C94 C91 1.481 . S
C94 N97 1.327 . S
C94 C98 1.407 . S
C95 C96 1.346 . S
C95 C99 1.390 . S
C95 H163 0.930 . S
C96 C95 1.346 . S
C96 N97 1.342 . S
C96 C101 1.516 . S
N97 C94 1.327 . S
N97 C96 1.342 . S
N97 Co100 1.864 . S
C98 C94 1.407 . S
C98 C99 1.364 . S
C98 H164 0.930 . S
C99 C95 1.390 . S
C99 C98 1.364 . S
C99 H165 0.931 . S
Co100 N97 1.864 . S
Co100 N116 1.955 . S
Co100 N117 1.958 . S
Co100 N118 1.953 . S
Co100 N136 1.869 . S
Co100 N142 1.974 . S
C101 C96 1.516 . S
C101 O102 1.238 . S
C101 N117 1.324 . S
O102 C101 1.238 . S
C103 C104 1.394 . S
C103 C108 1.395 . S
C103 N117 1.427 . S
C104 C103 1.394 . S
C104 C105 1.380 . S
C104 H166 0.929 . S
C105 C104 1.380 . S
C105 C106 1.384 . S
C105 C109 1.495 . S
C106 C105 1.384 . S
C106 C107 1.382 . S
C106 H167 0.930 . S
C107 C106 1.382 . S
C107 C108 1.398 . S
C108 C103 1.395 . S
C108 C107 1.398 . S
C108 H168 0.930 . S
C109 C105 1.495 . S
C109 O156 1.258 . S
C109 O157 1.274 . S
C110 C111 1.385 . S
C110 C112 1.381 . S
C110 N116 1.432 . S
C111 C110 1.385 . S
C111 C115 1.388 . S
C111 H169 0.929 . S
C112 C110 1.381 . S
C112 C113 1.371 . S
C112 H170 0.932 . S
C113 C112 1.371 . S
C113 C114 1.400 . S
C114 C113 1.400 . S
C114 C115 1.351 . S
C114 H171 0.930 . S
C115 C111 1.388 . S
C115 C114 1.351 . S
N116 C91 1.329 . S
N116 Co100 1.955 . S
N116 C110 1.432 . S
N117 Co100 1.958 . S
N117 C101 1.324 . S
N117 C103 1.427 . S
N118 Co100 1.953 . S
N118 C119 1.436 . S
N118 C145 1.316 . S
C119 N118 1.436 . S
C119 C120 1.421 . S
C119 C121 1.360 . S
C120 C119 1.421 . S
C120 C122 1.379 . S
C120 H123 0.929 . S
C121 C119 1.360 . S
C121 C125 1.393 . S
C121 H127 0.931 . S
C122 C120 1.379 . S
C122 C124 1.417 . S
C122 C126 1.505 . S
H123 C120 0.929 . S
C124 C122 1.417 . S
C124 C125 1.352 . S
C124 H128 0.929 . S
C125 C121 1.393 . S
C125 C124 1.352 . S
C125 C129 1.482 . S
C126 C122 1.505 . S
C126 O130 1.259 . S
C126 O131 1.229 . S
H127 C121 0.931 . S
H128 C124 0.929 . S
C129 C125 1.482 . S
C129 O132 1.207 . S
C129 O133 1.289 . S
O130 C126 1.259 . S
O130 H134 0.822 . S
O131 C126 1.229 . S
O132 C129 1.207 . S
O133 C129 1.289 . S
O133 H135 0.819 . S
H134 O130 0.822 . S
H135 O133 0.819 . S
N136 Co100 1.869 . S
N136 C137 1.330 . S
N136 C141 1.325 . S
C137 N136 1.330 . S
C137 C138 1.359 . S
C137 C143 1.504 . S
C138 C137 1.359 . S
C138 C139 1.366 . S
C138 H172 0.929 . S
C139 C138 1.366 . S
C139 C140 1.415 . S
C139 H173 0.932 . S
C140 C139 1.415 . S
C140 C141 1.366 . S
C140 H174 0.931 . S
C141 N136 1.325 . S
C141 C140 1.366 . S
C141 C145 1.516 . S
N142 Co100 1.974 . S
N142 C143 1.309 . S
N142 C148 1.423 . S
C143 C137 1.504 . S
C143 N142 1.309 . S
C143 O144 1.258 . S
O144 C143 1.258 . S
C145 N118 1.316 . S
C145 C141 1.516 . S
C145 O158 1.263 . S
O146 Cd89 2.350 1_554 S
O146 C162 1.270 1_554 S
O147 Cd89 2.277 . S
O147 C162 1.248 . S
C148 N142 1.423 . S
C148 C149 1.370 . S
C148 C153 1.403 . S
C149 C148 1.370 . S
C149 C150 1.389 . S
C149 H175 0.931 . S
C150 C149 1.389 . S
C150 C151 1.389 . S
C151 C150 1.389 . S
C151 C152 1.379 . S
C151 H176 0.929 . S
C152 C151 1.379 . S
C152 C153 1.405 . S
C153 C148 1.403 . S
C153 C152 1.405 . S
C153 H177 0.932 . S
O154 Cd89 2.173 . S
O154 C90 1.277 . S
O155 C90 1.230 . S
O155 Cd93 2.250 . S
O156 Cd89 2.263 1_554 S
O156 C109 1.258 . S
O157 Cd93 2.308 1_554 S
O157 C109 1.274 . S
O158 Cd89 2.366 1_554 S
O158 C145 1.263 . S
C159 O160 1.235 . S
C159 O161 1.270 . S
O160 Cd93 2.352 . S
O160 C159 1.235 . S
O161 Cd89 2.329 . S
O161 C159 1.270 . S
C162 O146 1.270 1_556 S
C162 O147 1.248 . S
H163 C95 0.930 . S
H164 C98 0.930 . S
H165 C99 0.931 . S
H166 C104 0.929 . S
H167 C106 0.930 . S
H168 C108 0.930 . S
H169 C111 0.929 . S
H170 C112 0.932 . S
H171 C114 0.930 . S
H172 C138 0.929 . S
H173 C139 0.932 . S
H174 C140 0.931 . S
H175 C149 0.931 . S
H176 C151 0.929 . S
H177 C153 0.932 . S
Cd178 O235 2.350 1_556 S
Cd178 O236 2.277 . S
Cd178 O243 2.173 . S
Cd178 O245 2.263 1_556 S
Cd178 O247 2.366 1_556 S
Cd178 O250 2.329 . S
C179 O243 1.277 . S
C179 O244 1.230 . S
C180 O181 1.246 . S
C180 C183 1.481 . S
C180 N205 1.329 . S
O181 C180 1.246 . S
Cd182 O244 2.250 . S
Cd182 O246 2.308 1_556 S
Cd182 O249 2.352 . S
C183 C180 1.481 . S
C183 N186 1.327 . S
C183 C187 1.407 . S
C184 C185 1.346 . S
C184 C188 1.390 . S
C184 H252 0.930 . S
C185 C184 1.346 . S
C185 N186 1.342 . S
C185 C190 1.516 . S
N186 C183 1.327 . S
N186 C185 1.342 . S
N186 Co189 1.864 . S
C187 C183 1.407 . S
C187 C188 1.364 . S
C187 H253 0.930 . S
C188 C184 1.390 . S
C188 C187 1.364 . S
C188 H254 0.931 . S
Co189 N186 1.864 . S
Co189 N205 1.955 . S
Co189 N206 1.958 . S
Co189 N207 1.953 . S
Co189 N225 1.869 . S
Co189 N231 1.974 . S
C190 C185 1.516 . S
C190 O191 1.238 . S
C190 N206 1.324 . S
O191 C190 1.238 . S
C192 C193 1.394 . S
C192 C197 1.395 . S
C192 N206 1.427 . S
C193 C192 1.394 . S
C193 C194 1.380 . S
C193 H255 0.929 . S
C194 C193 1.380 . S
C194 C195 1.384 . S
C194 C198 1.495 . S
C195 C194 1.384 . S
C195 C196 1.382 . S
C195 H256 0.930 . S
C196 C195 1.382 . S
C196 C197 1.398 . S
C197 C192 1.395 . S
C197 C196 1.398 . S
C197 H257 0.930 . S
C198 C194 1.495 . S
C198 O245 1.258 . S
C198 O246 1.274 . S
C199 C200 1.385 . S
C199 C201 1.381 . S
C199 N205 1.432 . S
C200 C199 1.385 . S
C200 C204 1.388 . S
C200 H258 0.929 . S
C201 C199 1.381 . S
C201 C202 1.371 . S
C201 H259 0.932 . S
C202 C201 1.371 . S
C202 C203 1.400 . S
C203 C202 1.400 . S
C203 C204 1.351 . S
C203 H260 0.930 . S
C204 C200 1.388 . S
C204 C203 1.351 . S
N205 C180 1.329 . S
N205 Co189 1.955 . S
N205 C199 1.432 . S
N206 Co189 1.958 . S
N206 C190 1.324 . S
N206 C192 1.427 . S
N207 Co189 1.953 . S
N207 C208 1.436 . S
N207 C234 1.316 . S
C208 N207 1.436 . S
C208 C209 1.421 . S
C208 C210 1.360 . S
C209 C208 1.421 . S
C209 C211 1.379 . S
C209 H212 0.929 . S
C210 C208 1.360 . S
C210 C214 1.393 . S
C210 H216 0.931 . S
C211 C209 1.379 . S
C211 C213 1.417 . S
C211 C215 1.505 . S
H212 C209 0.929 . S
C213 C211 1.417 . S
C213 C214 1.352 . S
C213 H217 0.929 . S
C214 C210 1.393 . S
C214 C213 1.352 . S
C214 C218 1.482 . S
C215 C211 1.505 . S
C215 O219 1.259 . S
C215 O220 1.229 . S
H216 C210 0.931 . S
H217 C213 0.929 . S
C218 C214 1.482 . S
C218 O221 1.207 . S
C218 O222 1.289 . S
O219 C215 1.259 . S
O219 H223 0.822 . S
O220 C215 1.229 . S
O221 C218 1.207 . S
O222 C218 1.289 . S
O222 H224 0.819 . S
H223 O219 0.822 . S
H224 O222 0.819 . S
N225 Co189 1.869 . S
N225 C226 1.330 . S
N225 C230 1.325 . S
C226 N225 1.330 . S
C226 C227 1.359 . S
C226 C232 1.504 . S
C227 C226 1.359 . S
C227 C228 1.366 . S
C227 H261 0.929 . S
C228 C227 1.366 . S
C228 C229 1.415 . S
C228 H262 0.932 . S
C229 C228 1.415 . S
C229 C230 1.366 . S
C229 H263 0.931 . S
C230 N225 1.325 . S
C230 C229 1.366 . S
C230 C234 1.516 . S
N231 Co189 1.974 . S
N231 C232 1.309 . S
N231 C237 1.423 . S
C232 C226 1.504 . S
C232 N231 1.309 . S
C232 O233 1.258 . S
O233 C232 1.258 . S
C234 N207 1.316 . S
C234 C230 1.516 . S
C234 O247 1.263 . S
O235 Cd178 2.350 1_554 S
O235 C251 1.270 1_554 S
O236 Cd178 2.277 . S
O236 C251 1.248 . S
C237 N231 1.423 . S
C237 C238 1.370 . S
C237 C242 1.403 . S
C238 C237 1.370 . S
C238 C239 1.389 . S
C238 H264 0.931 . S
C239 C238 1.389 . S
C239 C240 1.389 . S
C240 C239 1.389 . S
C240 C241 1.379 . S
C240 H265 0.929 . S
C241 C240 1.379 . S
C241 C242 1.405 . S
C242 C237 1.403 . S
C242 C241 1.405 . S
C242 H266 0.932 . S
O243 Cd178 2.173 . S
O243 C179 1.277 . S
O244 C179 1.230 . S
O244 Cd182 2.250 . S
O245 Cd178 2.263 1_554 S
O245 C198 1.258 . S
O246 Cd182 2.308 1_554 S
O246 C198 1.274 . S
O247 Cd178 2.366 1_554 S
O247 C234 1.263 . S
C248 O249 1.235 . S
C248 O250 1.270 . S
O249 Cd182 2.352 . S
O249 C248 1.235 . S
O250 Cd178 2.329 . S
O250 C248 1.270 . S
C251 O235 1.270 1_556 S
C251 O236 1.248 . S
H252 C184 0.930 . S
H253 C187 0.930 . S
H254 C188 0.931 . S
H255 C193 0.929 . S
H256 C195 0.930 . S
H257 C197 0.930 . S
H258 C200 0.929 . S
H259 C201 0.932 . S
H260 C203 0.930 . S
H261 C227 0.929 . S
H262 C228 0.932 . S
H263 C229 0.931 . S
H264 C238 0.931 . S
H265 C240 0.929 . S
H266 C242 0.932 . S
Cd267 O324 2.350 . S
Cd267 O325 2.277 . S
Cd267 O332 2.173 . S
Cd267 O334 2.263 . S
Cd267 O336 2.366 . S
Cd267 O339 2.329 . S
C268 O332 1.277 . S
C268 O333 1.230 . S
C269 O270 1.246 . S
C269 C272 1.481 . S
C269 N294 1.329 . S
O270 C269 1.246 . S
Cd271 O333 2.250 . S
Cd271 O335 2.308 . S
Cd271 O338 2.352 . S
C272 C269 1.481 . S
C272 N275 1.327 . S
C272 C276 1.407 . S
C273 C274 1.346 . S
C273 C277 1.390 . S
C273 H341 0.930 . S
C274 C273 1.346 . S
C274 N275 1.342 . S
C274 C279 1.516 . S
N275 C272 1.327 . S
N275 C274 1.342 . S
N275 Co278 1.864 . S
C276 C272 1.407 . S
C276 C277 1.364 . S
C276 H342 0.930 . S
C277 C273 1.390 . S
C277 C276 1.364 . S
C277 H343 0.931 . S
Co278 N275 1.864 . S
Co278 N294 1.955 . S
Co278 N295 1.958 . S
Co278 N296 1.953 . S
Co278 N314 1.869 . S
Co278 N320 1.974 . S
C279 C274 1.516 . S
C279 O280 1.238 . S
C279 N295 1.324 . S
O280 C279 1.238 . S
C281 C282 1.394 . S
C281 C286 1.395 . S
C281 N295 1.427 . S
C282 C281 1.394 . S
C282 C283 1.380 . S
C282 H344 0.929 . S
C283 C282 1.380 . S
C283 C284 1.384 . S
C283 C287 1.495 . S
C284 C283 1.384 . S
C284 C285 1.382 . S
C284 H345 0.930 . S
C285 C284 1.382 . S
C285 C286 1.398 . S
C286 C281 1.395 . S
C286 C285 1.398 . S
C286 H346 0.930 . S
C287 C283 1.495 . S
C287 O334 1.258 . S
C287 O335 1.274 . S
C288 C289 1.385 . S
C288 C290 1.381 . S
C288 N294 1.432 . S
C289 C288 1.385 . S
C289 C293 1.388 . S
C289 H347 0.929 . S
C290 C288 1.381 . S
C290 C291 1.371 . S
C290 H348 0.932 . S
C291 C290 1.371 . S
C291 C292 1.400 . S
C292 C291 1.400 . S
C292 C293 1.351 . S
C292 H349 0.930 . S
C293 C289 1.388 . S
C293 C292 1.351 . S
N294 C269 1.329 . S
N294 Co278 1.955 . S
N294 C288 1.432 . S
N295 Co278 1.958 . S
N295 C279 1.324 . S
N295 C281 1.427 . S
N296 Co278 1.953 . S
N296 C297 1.436 . S
N296 C323 1.316 . S
C297 N296 1.436 . S
C297 C298 1.421 . S
C297 C299 1.360 . S
C298 C297 1.421 . S
C298 C300 1.379 . S
C298 H301 0.929 . S
C299 C297 1.360 . S
C299 C303 1.393 . S
C299 H305 0.931 . S
C300 C298 1.379 . S
C300 C302 1.417 . S
C300 C304 1.505 . S
H301 C298 0.929 . S
C302 C300 1.417 . S
C302 C303 1.352 . S
C302 H306 0.929 . S
C303 C299 1.393 . S
C303 C302 1.352 . S
C303 C307 1.482 . S
C304 C300 1.505 . S
C304 O308 1.259 . S
C304 O309 1.229 . S
H305 C299 0.931 . S
H306 C302 0.929 . S
C307 C303 1.482 . S
C307 O310 1.207 . S
C307 O311 1.289 . S
O308 C304 1.259 . S
O308 H312 0.822 . S
O309 C304 1.229 . S
O310 C307 1.207 . S
O311 C307 1.289 . S
O311 H313 0.819 . S
H312 O308 0.822 . S
H313 O311 0.819 . S
N314 Co278 1.869 . S
N314 C315 1.330 . S
N314 C319 1.325 . S
C315 N314 1.330 . S
C315 C316 1.359 . S
C315 C321 1.504 . S
C316 C315 1.359 . S
C316 C317 1.366 . S
C316 H350 0.929 . S
C317 C316 1.366 . S
C317 C318 1.415 . S
C317 H351 0.932 . S
C318 C317 1.415 . S
C318 C319 1.366 . S
C318 H352 0.931 . S
C319 N314 1.325 . S
C319 C318 1.366 . S
C319 C323 1.516 . S
N320 Co278 1.974 . S
N320 C321 1.309 . S
N320 C326 1.423 . S
C321 C315 1.504 . S
C321 N320 1.309 . S
C321 O322 1.258 . S
O322 C321 1.258 . S
C323 N296 1.316 . S
C323 C319 1.516 . S
C323 O336 1.263 . S
O324 Cd267 2.350 . S
O324 C340 1.270 . S
O325 Cd267 2.277 . S
O325 C340 1.248 . S
C326 N320 1.423 . S
C326 C327 1.370 . S
C326 C331 1.403 . S
C327 C326 1.370 . S
C327 C328 1.389 . S
C327 H353 0.931 . S
C328 C327 1.389 . S
C328 C329 1.389 . S
C329 C328 1.389 . S
C329 C330 1.379 . S
C329 H354 0.929 . S
C330 C329 1.379 . S
C330 C331 1.405 . S
C331 C326 1.403 . S
C331 C330 1.405 . S
C331 H355 0.932 . S
O332 Cd267 2.173 . S
O332 C268 1.277 . S
O333 C268 1.230 . S
O333 Cd271 2.250 . S
O334 Cd267 2.263 . S
O334 C287 1.258 . S
O335 Cd271 2.308 . S
O335 C287 1.274 . S
O336 Cd267 2.366 . S
O336 C323 1.263 . S
C337 O338 1.235 . S
C337 O339 1.270 . S
O338 Cd271 2.352 . S
O338 C337 1.235 . S
O339 Cd267 2.329 . S
O339 C337 1.270 . S
C340 O324 1.270 . S
C340 O325 1.248 . S
H341 C273 0.930 . S
H342 C276 0.930 . S
H343 C277 0.931 . S
H344 C282 0.929 . S
H345 C284 0.930 . S
H346 C286 0.930 . S
H347 C289 0.929 . S
H348 C290 0.932 . S
H349 C292 0.930 . S
H350 C316 0.929 . S
H351 C317 0.932 . S
H352 C318 0.931 . S
H353 C327 0.931 . S
H354 C329 0.929 . S
H355 C331 0.932 . S
Cd356 O413 2.350 . S
Cd356 O414 2.277 . S
Cd356 O421 2.173 . S
Cd356 O423 2.263 . S
Cd356 O425 2.366 . S
Cd356 O428 2.329 . S
C357 O421 1.277 . S
C357 O422 1.230 . S
C358 O359 1.246 . S
C358 C361 1.481 . S
C358 N383 1.329 . S
O359 C358 1.246 . S
Cd360 O422 2.250 . S
Cd360 O424 2.308 . S
Cd360 O427 2.352 . S
C361 C358 1.481 . S
C361 N364 1.327 . S
C361 C365 1.407 . S
C362 C363 1.346 . S
C362 C366 1.390 . S
C362 H430 0.930 . S
C363 C362 1.346 . S
C363 N364 1.342 . S
C363 C368 1.516 . S
N364 C361 1.327 . S
N364 C363 1.342 . S
N364 Co367 1.864 . S
C365 C361 1.407 . S
C365 C366 1.364 . S
C365 H431 0.930 . S
C366 C362 1.390 . S
C366 C365 1.364 . S
C366 H432 0.931 . S
Co367 N364 1.864 . S
Co367 N383 1.955 . S
Co367 N384 1.958 . S
Co367 N385 1.953 . S
Co367 N403 1.869 . S
Co367 N409 1.974 . S
C368 C363 1.516 . S
C368 O369 1.238 . S
C368 N384 1.324 . S
O369 C368 1.238 . S
C370 C371 1.394 . S
C370 C375 1.395 . S
C370 N384 1.427 . S
C371 C370 1.394 . S
C371 C372 1.380 . S
C371 H433 0.929 . S
C372 C371 1.380 . S
C372 C373 1.384 . S
C372 C376 1.495 . S
C373 C372 1.384 . S
C373 C374 1.382 . S
C373 H434 0.930 . S
C374 C373 1.382 . S
C374 C375 1.398 . S
C375 C370 1.395 . S
C375 C374 1.398 . S
C375 H435 0.930 . S
C376 C372 1.495 . S
C376 O423 1.258 . S
C376 O424 1.274 . S
C377 C378 1.385 . S
C377 C379 1.381 . S
C377 N383 1.432 . S
C378 C377 1.385 . S
C378 C382 1.388 . S
C378 H436 0.929 . S
C379 C377 1.381 . S
C379 C380 1.371 . S
C379 H437 0.932 . S
C380 C379 1.371 . S
C380 C381 1.400 . S
C381 C380 1.400 . S
C381 C382 1.351 . S
C381 H438 0.930 . S
C382 C378 1.388 . S
C382 C381 1.351 . S
N383 C358 1.329 . S
N383 Co367 1.955 . S
N383 C377 1.432 . S
N384 Co367 1.958 . S
N384 C368 1.324 . S
N384 C370 1.427 . S
N385 Co367 1.953 . S
N385 C386 1.436 . S
N385 C412 1.316 . S
C386 N385 1.436 . S
C386 C387 1.421 . S
C386 C388 1.360 . S
C387 C386 1.421 . S
C387 C389 1.379 . S
C387 H390 0.929 . S
C388 C386 1.360 . S
C388 C392 1.393 . S
C388 H394 0.931 . S
C389 C387 1.379 . S
C389 C391 1.417 . S
C389 C393 1.505 . S
H390 C387 0.929 . S
C391 C389 1.417 . S
C391 C392 1.352 . S
C391 H395 0.929 . S
C392 C388 1.393 . S
C392 C391 1.352 . S
C392 C396 1.482 . S
C393 C389 1.505 . S
C393 O397 1.259 . S
C393 O398 1.229 . S
H394 C388 0.931 . S
H395 C391 0.929 . S
C396 C392 1.482 . S
C396 O399 1.207 . S
C396 O400 1.289 . S
O397 C393 1.259 . S
O397 H401 0.822 . S
O398 C393 1.229 . S
O399 C396 1.207 . S
O400 C396 1.289 . S
O400 H402 0.819 . S
H401 O397 0.822 . S
H402 O400 0.819 . S
N403 Co367 1.869 . S
N403 C404 1.330 . S
N403 C408 1.325 . S
C404 N403 1.330 . S
C404 C405 1.359 . S
C404 C410 1.504 . S
C405 C404 1.359 . S
C405 C406 1.366 . S
C405 H439 0.929 . S
C406 C405 1.366 . S
C406 C407 1.415 . S
C406 H440 0.932 . S
C407 C406 1.415 . S
C407 C408 1.366 . S
C407 H441 0.931 . S
C408 N403 1.325 . S
C408 C407 1.366 . S
C408 C412 1.516 . S
N409 Co367 1.974 . S
N409 C410 1.309 . S
N409 C415 1.423 . S
C410 C404 1.504 . S
C410 N409 1.309 . S
C410 O411 1.258 . S
O411 C410 1.258 . S
C412 N385 1.316 . S
C412 C408 1.516 . S
C412 O425 1.263 . S
O413 Cd356 2.350 . S
O413 C429 1.270 . S
O414 Cd356 2.277 . S
O414 C429 1.248 . S
C415 N409 1.423 . S
C415 C416 1.370 . S
C415 C420 1.403 . S
C416 C415 1.370 . S
C416 C417 1.389 . S
C416 H442 0.931 . S
C417 C416 1.389 . S
C417 C418 1.389 . S
C418 C417 1.389 . S
C418 C419 1.379 . S
C418 H443 0.929 . S
C419 C418 1.379 . S
C419 C420 1.405 . S
C420 C415 1.403 . S
C420 C419 1.405 . S
C420 H444 0.932 . S
O421 Cd356 2.173 . S
O421 C357 1.277 . S
O422 C357 1.230 . S
O422 Cd360 2.250 . S
O423 Cd356 2.263 . S
O423 C376 1.258 . S
O424 Cd360 2.308 . S
O424 C376 1.274 . S
O425 Cd356 2.366 . S
O425 C412 1.263 . S
C426 O427 1.235 . S
C426 O428 1.270 . S
O427 Cd360 2.352 . S
O427 C426 1.235 . S
O428 Cd356 2.329 . S
O428 C426 1.270 . S
C429 O413 1.270 . S
C429 O414 1.248 . S
H430 C362 0.930 . S
H431 C365 0.930 . S
H432 C366 0.931 . S
H433 C371 0.929 . S
H434 C373 0.930 . S
H435 C375 0.930 . S
H436 C378 0.929 . S
H437 C379 0.932 . S
H438 C381 0.930 . S
H439 C405 0.929 . S
H440 C406 0.932 . S
H441 C407 0.931 . S
H442 C416 0.931 . S
H443 C418 0.929 . S
H444 C420 0.932 . S
Cd445 O502 2.350 . S
Cd445 O503 2.277 . S
Cd445 O510 2.173 . S
Cd445 O512 2.263 . S
Cd445 O514 2.366 . S
Cd445 O517 2.329 . S
C446 O510 1.277 . S
C446 O511 1.230 . S
C447 O448 1.246 . S
C447 C450 1.481 . S
C447 N472 1.329 . S
O448 C447 1.246 . S
Cd449 O511 2.250 . S
Cd449 O513 2.308 . S
Cd449 O516 2.352 . S
C450 C447 1.481 . S
C450 N453 1.327 . S
C450 C454 1.407 . S
C451 C452 1.346 . S
C451 C455 1.390 . S
C451 H519 0.930 . S
C452 C451 1.346 . S
C452 N453 1.342 . S
C452 C457 1.516 . S
N453 C450 1.327 . S
N453 C452 1.342 . S
N453 Co456 1.864 . S
C454 C450 1.407 . S
C454 C455 1.364 . S
C454 H520 0.930 . S
C455 C451 1.390 . S
C455 C454 1.364 . S
C455 H521 0.931 . S
Co456 N453 1.864 . S
Co456 N472 1.955 . S
Co456 N473 1.958 . S
Co456 N474 1.953 . S
Co456 N492 1.869 . S
Co456 N498 1.974 . S
C457 C452 1.516 . S
C457 O458 1.238 . S
C457 N473 1.324 . S
O458 C457 1.238 . S
C459 C460 1.394 . S
C459 C464 1.395 . S
C459 N473 1.427 . S
C460 C459 1.394 . S
C460 C461 1.380 . S
C460 H522 0.929 . S
C461 C460 1.380 . S
C461 C462 1.384 . S
C461 C465 1.495 . S
C462 C461 1.384 . S
C462 C463 1.382 . S
C462 H523 0.930 . S
C463 C462 1.382 . S
C463 C464 1.398 . S
C464 C459 1.395 . S
C464 C463 1.398 . S
C464 H524 0.930 . S
C465 C461 1.495 . S
C465 O512 1.258 . S
C465 O513 1.274 . S
C466 C467 1.385 . S
C466 C468 1.381 . S
C466 N472 1.432 . S
C467 C466 1.385 . S
C467 C471 1.388 . S
C467 H525 0.929 . S
C468 C466 1.381 . S
C468 C469 1.371 . S
C468 H526 0.932 . S
C469 C468 1.371 . S
C469 C470 1.400 . S
C470 C469 1.400 . S
C470 C471 1.351 . S
C470 H527 0.930 . S
C471 C467 1.388 . S
C471 C470 1.351 . S
N472 C447 1.329 . S
N472 Co456 1.955 . S
N472 C466 1.432 . S
N473 Co456 1.958 . S
N473 C457 1.324 . S
N473 C459 1.427 . S
N474 Co456 1.953 . S
N474 C475 1.436 . S
N474 C501 1.316 . S
C475 N474 1.436 . S
C475 C476 1.421 . S
C475 C477 1.360 . S
C476 C475 1.421 . S
C476 C478 1.379 . S
C476 H479 0.929 . S
C477 C475 1.360 . S
C477 C481 1.393 . S
C477 H483 0.931 . S
C478 C476 1.379 . S
C478 C480 1.417 . S
C478 C482 1.505 . S
H479 C476 0.929 . S
C480 C478 1.417 . S
C480 C481 1.352 . S
C480 H484 0.929 . S
C481 C477 1.393 . S
C481 C480 1.352 . S
C481 C485 1.482 . S
C482 C478 1.505 . S
C482 O486 1.259 . S
C482 O487 1.229 . S
H483 C477 0.931 . S
H484 C480 0.929 . S
C485 C481 1.482 . S
C485 O488 1.207 . S
C485 O489 1.289 . S
O486 C482 1.259 . S
O486 H490 0.822 . S
O487 C482 1.229 . S
O488 C485 1.207 . S
O489 C485 1.289 . S
O489 H491 0.819 . S
H490 O486 0.822 . S
H491 O489 0.819 . S
N492 Co456 1.869 . S
N492 C493 1.330 . S
N492 C497 1.325 . S
C493 N492 1.330 . S
C493 C494 1.359 . S
C493 C499 1.504 . S
C494 C493 1.359 . S
C494 C495 1.366 . S
C494 H528 0.929 . S
C495 C494 1.366 . S
C495 C496 1.415 . S
C495 H529 0.932 . S
C496 C495 1.415 . S
C496 C497 1.366 . S
C496 H530 0.931 . S
C497 N492 1.325 . S
C497 C496 1.366 . S
C497 C501 1.516 . S
N498 Co456 1.974 . S
N498 C499 1.309 . S
N498 C504 1.423 . S
C499 C493 1.504 . S
C499 N498 1.309 . S
C499 O500 1.258 . S
O500 C499 1.258 . S
C501 N474 1.316 . S
C501 C497 1.516 . S
C501 O514 1.263 . S
O502 Cd445 2.350 . S
O502 C518 1.270 . S
O503 Cd445 2.277 . S
O503 C518 1.248 . S
C504 N498 1.423 . S
C504 C505 1.370 . S
C504 C509 1.403 . S
C505 C504 1.370 . S
C505 C506 1.389 . S
C505 H531 0.931 . S
C506 C505 1.389 . S
C506 C507 1.389 . S
C507 C506 1.389 . S
C507 C508 1.379 . S
C507 H532 0.929 . S
C508 C507 1.379 . S
C508 C509 1.405 . S
C509 C504 1.403 . S
C509 C508 1.405 . S
C509 H533 0.932 . S
O510 Cd445 2.173 . S
O510 C446 1.277 . S
O511 C446 1.230 . S
O511 Cd449 2.250 . S
O512 Cd445 2.263 . S
O512 C465 1.258 . S
O513 Cd449 2.308 . S
O513 C465 1.274 . S
O514 Cd445 2.366 . S
O514 C501 1.263 . S
C515 O516 1.235 . S
C515 O517 1.270 . S
O516 Cd449 2.352 . S
O516 C515 1.235 . S
O517 Cd445 2.329 . S
O517 C515 1.270 . S
C518 O502 1.270 . S
C518 O503 1.248 . S
H519 C451 0.930 . S
H520 C454 0.930 . S
H521 C455 0.931 . S
H522 C460 0.929 . S
H523 C462 0.930 . S
H524 C464 0.930 . S
H525 C467 0.929 . S
H526 C468 0.932 . S
H527 C470 0.930 . S
H528 C494 0.929 . S
H529 C495 0.932 . S
H530 C496 0.931 . S
H531 C505 0.931 . S
H532 C507 0.929 . S
H533 C509 0.932 . S
Cd534 O591 2.350 1_554 S
Cd534 O592 2.277 . S
Cd534 O599 2.173 . S
Cd534 O601 2.263 1_554 S
Cd534 O603 2.366 1_554 S
Cd534 O606 2.329 . S
C535 O599 1.277 . S
C535 O600 1.230 . S
C536 O537 1.246 . S
C536 C539 1.481 . S
C536 N561 1.329 . S
O537 C536 1.246 . S
Cd538 O600 2.250 . S
Cd538 O602 2.308 1_554 S
Cd538 O605 2.352 . S
C539 C536 1.481 . S
C539 N542 1.327 . S
C539 C543 1.407 . S
C540 C541 1.346 . S
C540 C544 1.390 . S
C540 H608 0.930 . S
C541 C540 1.346 . S
C541 N542 1.342 . S
C541 C546 1.516 . S
N542 C539 1.327 . S
N542 C541 1.342 . S
N542 Co545 1.864 . S
C543 C539 1.407 . S
C543 C544 1.364 . S
C543 H609 0.930 . S
C544 C540 1.390 . S
C544 C543 1.364 . S
C544 H610 0.931 . S
Co545 N542 1.864 . S
Co545 N561 1.955 . S
Co545 N562 1.958 . S
Co545 N563 1.953 . S
Co545 N581 1.869 . S
Co545 N587 1.974 . S
C546 C541 1.516 . S
C546 O547 1.238 . S
C546 N562 1.324 . S
O547 C546 1.238 . S
C548 C549 1.394 . S
C548 C553 1.395 . S
C548 N562 1.427 . S
C549 C548 1.394 . S
C549 C550 1.380 . S
C549 H611 0.929 . S
C550 C549 1.380 . S
C550 C551 1.384 . S
C550 C554 1.495 . S
C551 C550 1.384 . S
C551 C552 1.382 . S
C551 H612 0.930 . S
C552 C551 1.382 . S
C552 C553 1.398 . S
C553 C548 1.395 . S
C553 C552 1.398 . S
C553 H613 0.930 . S
C554 C550 1.495 . S
C554 O601 1.258 . S
C554 O602 1.274 . S
C555 C556 1.385 . S
C555 C557 1.381 . S
C555 N561 1.432 . S
C556 C555 1.385 . S
C556 C560 1.388 . S
C556 H614 0.929 . S
C557 C555 1.381 . S
C557 C558 1.371 . S
C557 H615 0.932 . S
C558 C557 1.371 . S
C558 C559 1.400 . S
C559 C558 1.400 . S
C559 C560 1.351 . S
C559 H616 0.930 . S
C560 C556 1.388 . S
C560 C559 1.351 . S
N561 C536 1.329 . S
N561 Co545 1.955 . S
N561 C555 1.432 . S
N562 Co545 1.958 . S
N562 C546 1.324 . S
N562 C548 1.427 . S
N563 Co545 1.953 . S
N563 C564 1.436 . S
N563 C590 1.316 . S
C564 N563 1.436 . S
C564 C565 1.421 . S
C564 C566 1.360 . S
C565 C564 1.421 . S
C565 C567 1.379 . S
C565 H568 0.929 . S
C566 C564 1.360 . S
C566 C570 1.393 . S
C566 H572 0.931 . S
C567 C565 1.379 . S
C567 C569 1.417 . S
C567 C571 1.505 . S
H568 C565 0.929 . S
C569 C567 1.417 . S
C569 C570 1.352 . S
C569 H573 0.929 . S
C570 C566 1.393 . S
C570 C569 1.352 . S
C570 C574 1.482 . S
C571 C567 1.505 . S
C571 O575 1.259 . S
C571 O576 1.229 . S
H572 C566 0.931 . S
H573 C569 0.929 . S
C574 C570 1.482 . S
C574 O577 1.207 . S
C574 O578 1.289 . S
O575 C571 1.259 . S
O575 H579 0.822 . S
O576 C571 1.229 . S
O577 C574 1.207 . S
O578 C574 1.289 . S
O578 H580 0.819 . S
H579 O575 0.822 . S
H580 O578 0.819 . S
N581 Co545 1.869 . S
N581 C582 1.330 . S
N581 C586 1.325 . S
C582 N581 1.330 . S
C582 C583 1.359 . S
C582 C588 1.504 . S
C583 C582 1.359 . S
C583 C584 1.366 . S
C583 H617 0.929 . S
C584 C583 1.366 . S
C584 C585 1.415 . S
C584 H618 0.932 . S
C585 C584 1.415 . S
C585 C586 1.366 . S
C585 H619 0.931 . S
C586 N581 1.325 . S
C586 C585 1.366 . S
C586 C590 1.516 . S
N587 Co545 1.974 . S
N587 C588 1.309 . S
N587 C593 1.423 . S
C588 C582 1.504 . S
C588 N587 1.309 . S
C588 O589 1.258 . S
O589 C588 1.258 . S
C590 N563 1.316 . S
C590 C586 1.516 . S
C590 O603 1.263 . S
O591 Cd534 2.350 1_556 S
O591 C607 1.270 1_556 S
O592 Cd534 2.277 . S
O592 C607 1.248 . S
C593 N587 1.423 . S
C593 C594 1.370 . S
C593 C598 1.403 . S
C594 C593 1.370 . S
C594 C595 1.389 . S
C594 H620 0.931 . S
C595 C594 1.389 . S
C595 C596 1.389 . S
C596 C595 1.389 . S
C596 C597 1.379 . S
C596 H621 0.929 . S
C597 C596 1.379 . S
C597 C598 1.405 . S
C598 C593 1.403 . S
C598 C597 1.405 . S
C598 H622 0.932 . S
O599 Cd534 2.173 . S
O599 C535 1.277 . S
O600 C535 1.230 . S
O600 Cd538 2.250 . S
O601 Cd534 2.263 1_556 S
O601 C554 1.258 . S
O602 Cd538 2.308 1_556 S
O602 C554 1.274 . S
O603 Cd534 2.366 1_556 S
O603 C590 1.263 . S
C604 O605 1.235 . S
C604 O606 1.270 . S
O605 Cd538 2.352 . S
O605 C604 1.235 . S
O606 Cd534 2.329 . S
O606 C604 1.270 . S
C607 O591 1.270 1_554 S
C607 O592 1.248 . S
H608 C540 0.930 . S
H609 C543 0.930 . S
H610 C544 0.931 . S
H611 C549 0.929 . S
H612 C551 0.930 . S
H613 C553 0.930 . S
H614 C556 0.929 . S
H615 C557 0.932 . S
H616 C559 0.930 . S
H617 C583 0.929 . S
H618 C584 0.932 . S
H619 C585 0.931 . S
H620 C594 0.931 . S
H621 C596 0.929 . S
H622 C598 0.932 . S
Cd623 O680 2.350 1_554 S
Cd623 O681 2.277 . S
Cd623 O688 2.173 . S
Cd623 O690 2.263 1_554 S
Cd623 O692 2.366 1_554 S
Cd623 O695 2.329 . S
C624 O688 1.277 . S
C624 O689 1.230 . S
C625 O626 1.246 . S
C625 C628 1.481 . S
C625 N650 1.329 . S
O626 C625 1.246 . S
Cd627 O689 2.250 . S
Cd627 O691 2.308 1_554 S
Cd627 O694 2.352 . S
C628 C625 1.481 . S
C628 N631 1.327 . S
C628 C632 1.407 . S
C629 C630 1.346 . S
C629 C633 1.390 . S
C629 H697 0.930 . S
C630 C629 1.346 . S
C630 N631 1.342 . S
C630 C635 1.516 . S
N631 C628 1.327 . S
N631 C630 1.342 . S
N631 Co634 1.864 . S
C632 C628 1.407 . S
C632 C633 1.364 . S
C632 H698 0.930 . S
C633 C629 1.390 . S
C633 C632 1.364 . S
C633 H699 0.931 . S
Co634 N631 1.864 . S
Co634 N650 1.955 . S
Co634 N651 1.958 . S
Co634 N652 1.953 . S
Co634 N670 1.869 . S
Co634 N676 1.974 . S
C635 C630 1.516 . S
C635 O636 1.238 . S
C635 N651 1.324 . S
O636 C635 1.238 . S
C637 C638 1.394 . S
C637 C642 1.395 . S
C637 N651 1.427 . S
C638 C637 1.394 . S
C638 C639 1.380 . S
C638 H700 0.929 . S
C639 C638 1.380 . S
C639 C640 1.384 . S
C639 C643 1.495 . S
C640 C639 1.384 . S
C640 C641 1.382 . S
C640 H701 0.930 . S
C641 C640 1.382 . S
C641 C642 1.398 . S
C642 C637 1.395 . S
C642 C641 1.398 . S
C642 H702 0.930 . S
C643 C639 1.495 . S
C643 O690 1.258 . S
C643 O691 1.274 . S
C644 C645 1.385 . S
C644 C646 1.381 . S
C644 N650 1.432 . S
C645 C644 1.385 . S
C645 C649 1.388 . S
C645 H703 0.929 . S
C646 C644 1.381 . S
C646 C647 1.371 . S
C646 H704 0.932 . S
C647 C646 1.371 . S
C647 C648 1.400 . S
C648 C647 1.400 . S
C648 C649 1.351 . S
C648 H705 0.930 . S
C649 C645 1.388 . S
C649 C648 1.351 . S
N650 C625 1.329 . S
N650 Co634 1.955 . S
N650 C644 1.432 . S
N651 Co634 1.958 . S
N651 C635 1.324 . S
N651 C637 1.427 . S
N652 Co634 1.953 . S
N652 C653 1.436 . S
N652 C679 1.316 . S
C653 N652 1.436 . S
C653 C654 1.421 . S
C653 C655 1.360 . S
C654 C653 1.421 . S
C654 C656 1.379 . S
C654 H657 0.929 . S
C655 C653 1.360 . S
C655 C659 1.393 . S
C655 H661 0.931 . S
C656 C654 1.379 . S
C656 C658 1.417 . S
C656 C660 1.505 . S
H657 C654 0.929 . S
C658 C656 1.417 . S
C658 C659 1.352 . S
C658 H662 0.929 . S
C659 C655 1.393 . S
C659 C658 1.352 . S
C659 C663 1.482 . S
C660 C656 1.505 . S
C660 O664 1.259 . S
C660 O665 1.229 . S
H661 C655 0.931 . S
H662 C658 0.929 . S
C663 C659 1.482 . S
C663 O666 1.207 . S
C663 O667 1.289 . S
O664 C660 1.259 . S
O664 H668 0.822 . S
O665 C660 1.229 . S
O666 C663 1.207 . S
O667 C663 1.289 . S
O667 H669 0.819 . S
H668 O664 0.822 . S
H669 O667 0.819 . S
N670 Co634 1.869 . S
N670 C671 1.330 . S
N670 C675 1.325 . S
C671 N670 1.330 . S
C671 C672 1.359 . S
C671 C677 1.504 . S
C672 C671 1.359 . S
C672 C673 1.366 . S
C672 H706 0.929 . S
C673 C672 1.366 . S
C673 C674 1.415 . S
C673 H707 0.932 . S
C674 C673 1.415 . S
C674 C675 1.366 . S
C674 H708 0.931 . S
C675 N670 1.325 . S
C675 C674 1.366 . S
C675 C679 1.516 . S
N676 Co634 1.974 . S
N676 C677 1.309 . S
N676 C682 1.423 . S
C677 C671 1.504 . S
C677 N676 1.309 . S
C677 O678 1.258 . S
O678 C677 1.258 . S
C679 N652 1.316 . S
C679 C675 1.516 . S
C679 O692 1.263 . S
O680 Cd623 2.350 1_556 S
O680 C696 1.270 1_556 S
O681 Cd623 2.277 . S
O681 C696 1.248 . S
C682 N676 1.423 . S
C682 C683 1.370 . S
C682 C687 1.403 . S
C683 C682 1.370 . S
C683 C684 1.389 . S
C683 H709 0.931 . S
C684 C683 1.389 . S
C684 C685 1.389 . S
C685 C684 1.389 . S
C685 C686 1.379 . S
C685 H710 0.929 . S
C686 C685 1.379 . S
C686 C687 1.405 . S
C687 C682 1.403 . S
C687 C686 1.405 . S
C687 H711 0.932 . S
O688 Cd623 2.173 . S
O688 C624 1.277 . S
O689 C624 1.230 . S
O689 Cd627 2.250 . S
O690 Cd623 2.263 1_556 S
O690 C643 1.258 . S
O691 Cd627 2.308 1_556 S
O691 C643 1.274 . S
O692 Cd623 2.366 1_556 S
O692 C679 1.263 . S
C693 O694 1.235 . S
C693 O695 1.270 . S
O694 Cd627 2.352 . S
O694 C693 1.235 . S
O695 Cd623 2.329 . S
O695 C693 1.270 . S
C696 O680 1.270 1_554 S
C696 O681 1.248 . S
H697 C629 0.930 . S
H698 C632 0.930 . S
H699 C633 0.931 . S
H700 C638 0.929 . S
H701 C640 0.930 . S
H702 C642 0.930 . S
H703 C645 0.929 . S
H704 C646 0.932 . S
H705 C648 0.930 . S
H706 C672 0.929 . S
H707 C673 0.932 . S
H708 C674 0.931 . S
H709 C683 0.931 . S
H710 C685 0.929 . S
H711 C687 0.932 . S
Cd712 O769 2.350 1_554 S
Cd712 O770 2.277 . S
Cd712 O777 2.173 . S
Cd712 O779 2.263 1_554 S
Cd712 O781 2.366 1_554 S
Cd712 O784 2.329 . S
C713 O777 1.277 . S
C713 O778 1.230 . S
C714 O715 1.246 . S
C714 C717 1.481 . S
C714 N739 1.329 . S
O715 C714 1.246 . S
Cd716 O778 2.250 . S
Cd716 O780 2.308 1_554 S
Cd716 O783 2.352 . S
C717 C714 1.481 . S
C717 N720 1.327 . S
C717 C721 1.407 . S
C718 C719 1.346 . S
C718 C722 1.390 . S
C718 H786 0.930 . S
C719 C718 1.346 . S
C719 N720 1.342 . S
C719 C724 1.516 . S
N720 C717 1.327 . S
N720 C719 1.342 . S
N720 Co723 1.864 . S
C721 C717 1.407 . S
C721 C722 1.364 . S
C721 H787 0.930 . S
C722 C718 1.390 . S
C722 C721 1.364 . S
C722 H788 0.931 . S
Co723 N720 1.864 . S
Co723 N739 1.955 . S
Co723 N740 1.958 . S
Co723 N741 1.953 . S
Co723 N759 1.869 . S
Co723 N765 1.974 . S
C724 C719 1.516 . S
C724 O725 1.238 . S
C724 N740 1.324 . S
O725 C724 1.238 . S
C726 C727 1.394 . S
C726 C731 1.395 . S
C726 N740 1.427 . S
C727 C726 1.394 . S
C727 C728 1.380 . S
C727 H789 0.929 . S
C728 C727 1.380 . S
C728 C729 1.384 . S
C728 C732 1.495 . S
C729 C728 1.384 . S
C729 C730 1.382 . S
C729 H790 0.930 . S
C730 C729 1.382 . S
C730 C731 1.398 . S
C731 C726 1.395 . S
C731 C730 1.398 . S
C731 H791 0.930 . S
C732 C728 1.495 . S
C732 O779 1.258 . S
C732 O780 1.274 . S
C733 C734 1.385 . S
C733 C735 1.381 . S
C733 N739 1.432 . S
C734 C733 1.385 . S
C734 C738 1.388 . S
C734 H792 0.929 . S
C735 C733 1.381 . S
C735 C736 1.371 . S
C735 H793 0.932 . S
C736 C735 1.371 . S
C736 C737 1.400 . S
C737 C736 1.400 . S
C737 C738 1.351 . S
C737 H794 0.930 . S
C738 C734 1.388 . S
C738 C737 1.351 . S
N739 C714 1.329 . S
N739 Co723 1.955 . S
N739 C733 1.432 . S
N740 Co723 1.958 . S
N740 C724 1.324 . S
N740 C726 1.427 . S
N741 Co723 1.953 . S
N741 C742 1.436 . S
N741 C768 1.316 . S
C742 N741 1.436 . S
C742 C743 1.421 . S
C742 C744 1.360 . S
C743 C742 1.421 . S
C743 C745 1.379 . S
C743 H746 0.929 . S
C744 C742 1.360 . S
C744 C748 1.393 . S
C744 H750 0.931 . S
C745 C743 1.379 . S
C745 C747 1.417 . S
C745 C749 1.505 . S
H746 C743 0.929 . S
C747 C745 1.417 . S
C747 C748 1.352 . S
C747 H751 0.929 . S
C748 C744 1.393 . S
C748 C747 1.352 . S
C748 C752 1.482 . S
C749 C745 1.505 . S
C749 O753 1.259 . S
C749 O754 1.229 . S
H750 C744 0.931 . S
H751 C747 0.929 . S
C752 C748 1.482 . S
C752 O755 1.207 . S
C752 O756 1.289 . S
O753 C749 1.259 . S
O753 H757 0.822 . S
O754 C749 1.229 . S
O755 C752 1.207 . S
O756 C752 1.289 . S
O756 H758 0.819 . S
H757 O753 0.822 . S
H758 O756 0.819 . S
N759 Co723 1.869 . S
N759 C760 1.330 . S
N759 C764 1.325 . S
C760 N759 1.330 . S
C760 C761 1.359 . S
C760 C766 1.504 . S
C761 C760 1.359 . S
C761 C762 1.366 . S
C761 H795 0.929 . S
C762 C761 1.366 . S
C762 C763 1.415 . S
C762 H796 0.932 . S
C763 C762 1.415 . S
C763 C764 1.366 . S
C763 H797 0.931 . S
C764 N759 1.325 . S
C764 C763 1.366 . S
C764 C768 1.516 . S
N765 Co723 1.974 . S
N765 C766 1.309 . S
N765 C771 1.423 . S
C766 C760 1.504 . S
C766 N765 1.309 . S
C766 O767 1.258 . S
O767 C766 1.258 . S
C768 N741 1.316 . S
C768 C764 1.516 . S
C768 O781 1.263 . S
O769 Cd712 2.350 1_556 S
O769 C785 1.270 1_556 S
O770 Cd712 2.277 . S
O770 C785 1.248 . S
C771 N765 1.423 . S
C771 C772 1.370 . S
C771 C776 1.403 . S
C772 C771 1.370 . S
C772 C773 1.389 . S
C772 H798 0.931 . S
C773 C772 1.389 . S
C773 C774 1.389 . S
C774 C773 1.389 . S
C774 C775 1.379 . S
C774 H799 0.929 . S
C775 C774 1.379 . S
C775 C776 1.405 . S
C776 C771 1.403 . S
C776 C775 1.405 . S
C776 H800 0.932 . S
O777 Cd712 2.173 . S
O777 C713 1.277 . S
O778 C713 1.230 . S
O778 Cd716 2.250 . S
O779 Cd712 2.263 1_556 S
O779 C732 1.258 . S
O780 Cd716 2.308 1_556 S
O780 C732 1.274 . S
O781 Cd712 2.366 1_556 S
O781 C768 1.263 . S
C782 O783 1.235 . S
C782 O784 1.270 . S
O783 Cd716 2.352 . S
O783 C782 1.235 . S
O784 Cd712 2.329 . S
O784 C782 1.270 . S
C785 O769 1.270 1_554 S
C785 O770 1.248 . S
H786 C718 0.930 . S
H787 C721 0.930 . S
H788 C722 0.931 . S
H789 C727 0.929 . S
H790 C729 0.930 . S
H791 C731 0.930 . S
H792 C734 0.929 . S
H793 C735 0.932 . S
H794 C737 0.930 . S
H795 C761 0.929 . S
H796 C762 0.932 . S
H797 C763 0.931 . S
H798 C772 0.931 . S
H799 C774 0.929 . S
H800 C776 0.932 . S
Cd801 O858 2.350 . S
Cd801 O859 2.277 . S
Cd801 O866 2.173 . S
Cd801 O868 2.263 . S
Cd801 O870 2.366 . S
Cd801 O873 2.329 . S
C802 O866 1.277 . S
C802 O867 1.230 . S
C803 O804 1.246 . S
C803 C806 1.481 . S
C803 N828 1.329 . S
O804 C803 1.246 . S
Cd805 O867 2.250 . S
Cd805 O869 2.308 . S
Cd805 O872 2.352 . S
C806 C803 1.481 . S
C806 N809 1.327 . S
C806 C810 1.407 . S
C807 C808 1.346 . S
C807 C811 1.390 . S
C807 H875 0.930 . S
C808 C807 1.346 . S
C808 N809 1.342 . S
C808 C813 1.516 . S
N809 C806 1.327 . S
N809 C808 1.342 . S
N809 Co812 1.864 . S
C810 C806 1.407 . S
C810 C811 1.364 . S
C810 H876 0.930 . S
C811 C807 1.390 . S
C811 C810 1.364 . S
C811 H877 0.931 . S
Co812 N809 1.864 . S
Co812 N828 1.955 . S
Co812 N829 1.958 . S
Co812 N830 1.953 . S
Co812 N848 1.869 . S
Co812 N854 1.974 . S
C813 C808 1.516 . S
C813 O814 1.238 . S
C813 N829 1.324 . S
O814 C813 1.238 . S
C815 C816 1.394 . S
C815 C820 1.395 . S
C815 N829 1.427 . S
C816 C815 1.394 . S
C816 C817 1.380 . S
C816 H878 0.929 . S
C817 C816 1.380 . S
C817 C818 1.384 . S
C817 C821 1.495 . S
C818 C817 1.384 . S
C818 C819 1.382 . S
C818 H879 0.930 . S
C819 C818 1.382 . S
C819 C820 1.398 . S
C820 C815 1.395 . S
C820 C819 1.398 . S
C820 H880 0.930 . S
C821 C817 1.495 . S
C821 O868 1.258 . S
C821 O869 1.274 . S
C822 C823 1.385 . S
C822 C824 1.381 . S
C822 N828 1.432 . S
C823 C822 1.385 . S
C823 C827 1.388 . S
C823 H881 0.929 . S
C824 C822 1.381 . S
C824 C825 1.371 . S
C824 H882 0.932 . S
C825 C824 1.371 . S
C825 C826 1.400 . S
C826 C825 1.400 . S
C826 C827 1.351 . S
C826 H883 0.930 . S
C827 C823 1.388 . S
C827 C826 1.351 . S
N828 C803 1.329 . S
N828 Co812 1.955 . S
N828 C822 1.432 . S
N829 Co812 1.958 . S
N829 C813 1.324 . S
N829 C815 1.427 . S
N830 Co812 1.953 . S
N830 C831 1.436 . S
N830 C857 1.316 . S
C831 N830 1.436 . S
C831 C832 1.421 . S
C831 C833 1.360 . S
C832 C831 1.421 . S
C832 C834 1.379 . S
C832 H835 0.929 . S
C833 C831 1.360 . S
C833 C837 1.393 . S
C833 H839 0.931 . S
C834 C832 1.379 . S
C834 C836 1.417 . S
C834 C838 1.505 . S
H835 C832 0.929 . S
C836 C834 1.417 . S
C836 C837 1.352 . S
C836 H840 0.929 . S
C837 C833 1.393 . S
C837 C836 1.352 . S
C837 C841 1.482 . S
C838 C834 1.505 . S
C838 O842 1.259 . S
C838 O843 1.229 . S
H839 C833 0.931 . S
H840 C836 0.929 . S
C841 C837 1.482 . S
C841 O844 1.207 . S
C841 O845 1.289 . S
O842 C838 1.259 . S
O842 H846 0.822 . S
O843 C838 1.229 . S
O844 C841 1.207 . S
O845 C841 1.289 . S
O845 H847 0.819 . S
H846 O842 0.822 . S
H847 O845 0.819 . S
N848 Co812 1.869 . S
N848 C849 1.330 . S
N848 C853 1.325 . S
C849 N848 1.330 . S
C849 C850 1.359 . S
C849 C855 1.504 . S
C850 C849 1.359 . S
C850 C851 1.366 . S
C850 H884 0.929 . S
C851 C850 1.366 . S
C851 C852 1.415 . S
C851 H885 0.932 . S
C852 C851 1.415 . S
C852 C853 1.366 . S
C852 H886 0.931 . S
C853 N848 1.325 . S
C853 C852 1.366 . S
C853 C857 1.516 . S
N854 Co812 1.974 . S
N854 C855 1.309 . S
N854 C860 1.423 . S
C855 C849 1.504 . S
C855 N854 1.309 . S
C855 O856 1.258 . S
O856 C855 1.258 . S
C857 N830 1.316 . S
C857 C853 1.516 . S
C857 O870 1.263 . S
O858 Cd801 2.350 . S
O858 C874 1.270 . S
O859 Cd801 2.277 . S
O859 C874 1.248 . S
C860 N854 1.423 . S
C860 C861 1.370 . S
C860 C865 1.403 . S
C861 C860 1.370 . S
C861 C862 1.389 . S
C861 H887 0.931 . S
C862 C861 1.389 . S
C862 C863 1.389 . S
C863 C862 1.389 . S
C863 C864 1.379 . S
C863 H888 0.929 . S
C864 C863 1.379 . S
C864 C865 1.405 . S
C865 C860 1.403 . S
C865 C864 1.405 . S
C865 H889 0.932 . S
O866 Cd801 2.173 . S
O866 C802 1.277 . S
O867 C802 1.230 . S
O867 Cd805 2.250 . S
O868 Cd801 2.263 . S
O868 C821 1.258 . S
O869 Cd805 2.308 . S
O869 C821 1.274 . S
O870 Cd801 2.366 . S
O870 C857 1.263 . S
C871 O872 1.235 . S
C871 O873 1.270 . S
O872 Cd805 2.352 . S
O872 C871 1.235 . S
O873 Cd801 2.329 . S
O873 C871 1.270 . S
C874 O858 1.270 . S
C874 O859 1.248 . S
H875 C807 0.930 . S
H876 C810 0.930 . S
H877 C811 0.931 . S
H878 C816 0.929 . S
H879 C818 0.930 . S
H880 C820 0.930 . S
H881 C823 0.929 . S
H882 C824 0.932 . S
H883 C826 0.930 . S
H884 C850 0.929 . S
H885 C851 0.932 . S
H886 C852 0.931 . S
H887 C861 0.931 . S
H888 C863 0.929 . S
H889 C865 0.932 . S
Cd890 O947 2.350 . S
Cd890 O948 2.277 . S
Cd890 O955 2.173 . S
Cd890 O957 2.263 . S
Cd890 O959 2.366 . S
Cd890 O962 2.329 . S
C891 O955 1.277 . S
C891 O956 1.230 . S
C892 O893 1.246 . S
C892 C895 1.481 . S
C892 N917 1.329 . S
O893 C892 1.246 . S
Cd894 O956 2.250 . S
Cd894 O958 2.308 . S
Cd894 O961 2.352 . S
C895 C892 1.481 . S
C895 N898 1.327 . S
C895 C899 1.407 . S
C896 C897 1.346 . S
C896 C900 1.390 . S
C896 H964 0.930 . S
C897 C896 1.346 . S
C897 N898 1.342 . S
C897 C902 1.516 . S
N898 C895 1.327 . S
N898 C897 1.342 . S
N898 Co901 1.864 . S
C899 C895 1.407 . S
C899 C900 1.364 . S
C899 H965 0.930 . S
C900 C896 1.390 . S
C900 C899 1.364 . S
C900 H966 0.931 . S
Co901 N898 1.864 . S
Co901 N917 1.955 . S
Co901 N918 1.958 . S
Co901 N919 1.953 . S
Co901 N937 1.869 . S
Co901 N943 1.974 . S
C902 C897 1.516 . S
C902 O903 1.238 . S
C902 N918 1.324 . S
O903 C902 1.238 . S
C904 C905 1.394 . S
C904 C909 1.395 . S
C904 N918 1.427 . S
C905 C904 1.394 . S
C905 C906 1.380 . S
C905 H967 0.929 . S
C906 C905 1.380 . S
C906 C907 1.384 . S
C906 C910 1.495 . S
C907 C906 1.384 . S
C907 C908 1.382 . S
C907 H968 0.930 . S
C908 C907 1.382 . S
C908 C909 1.398 . S
C909 C904 1.395 . S
C909 C908 1.398 . S
C909 H969 0.930 . S
C910 C906 1.495 . S
C910 O957 1.258 . S
C910 O958 1.274 . S
C911 C912 1.385 . S
C911 C913 1.381 . S
C911 N917 1.432 . S
C912 C911 1.385 . S
C912 C916 1.388 . S
C912 H970 0.929 . S
C913 C911 1.381 . S
C913 C914 1.371 . S
C913 H971 0.932 . S
C914 C913 1.371 . S
C914 C915 1.400 . S
C915 C914 1.400 . S
C915 C916 1.351 . S
C915 H972 0.930 . S
C916 C912 1.388 . S
C916 C915 1.351 . S
N917 C892 1.329 . S
N917 Co901 1.955 . S
N917 C911 1.432 . S
N918 Co901 1.958 . S
N918 C902 1.324 . S
N918 C904 1.427 . S
N919 Co901 1.953 . S
N919 C920 1.436 . S
N919 C946 1.316 . S
C920 N919 1.436 . S
C920 C921 1.421 . S
C920 C922 1.360 . S
C921 C920 1.421 . S
C921 C923 1.379 . S
C921 H924 0.929 . S
C922 C920 1.360 . S
C922 C926 1.393 . S
C922 H928 0.931 . S
C923 C921 1.379 . S
C923 C925 1.417 . S
C923 C927 1.505 . S
H924 C921 0.929 . S
C925 C923 1.417 . S
C925 C926 1.352 . S
C925 H929 0.929 . S
C926 C922 1.393 . S
C926 C925 1.352 . S
C926 C930 1.482 . S
C927 C923 1.505 . S
C927 O931 1.259 . S
C927 O932 1.229 . S
H928 C922 0.931 . S
H929 C925 0.929 . S
C930 C926 1.482 . S
C930 O933 1.207 . S
C930 O934 1.289 . S
O931 C927 1.259 . S
O931 H935 0.822 . S
O932 C927 1.229 . S
O933 C930 1.207 . S
O934 C930 1.289 . S
O934 H936 0.819 . S
H935 O931 0.822 . S
H936 O934 0.819 . S
N937 Co901 1.869 . S
N937 C938 1.330 . S
N937 C942 1.325 . S
C938 N937 1.330 . S
C938 C939 1.359 . S
C938 C944 1.504 . S
C939 C938 1.359 . S
C939 C940 1.366 . S
C939 H973 0.929 . S
C940 C939 1.366 . S
C940 C941 1.415 . S
C940 H974 0.932 . S
C941 C940 1.415 . S
C941 C942 1.366 . S
C941 H975 0.931 . S
C942 N937 1.325 . S
C942 C941 1.366 . S
C942 C946 1.516 . S
N943 Co901 1.974 . S
N943 C944 1.309 . S
N943 C949 1.423 . S
C944 C938 1.504 . S
C944 N943 1.309 . S
C944 O945 1.258 . S
O945 C944 1.258 . S
C946 N919 1.316 . S
C946 C942 1.516 . S
C946 O959 1.263 . S
O947 Cd890 2.350 . S
O947 C963 1.270 . S
O948 Cd890 2.277 . S
O948 C963 1.248 . S
C949 N943 1.423 . S
C949 C950 1.370 . S
C949 C954 1.403 . S
C950 C949 1.370 . S
C950 C951 1.389 . S
C950 H976 0.931 . S
C951 C950 1.389 . S
C951 C952 1.389 . S
C952 C951 1.389 . S
C952 C953 1.379 . S
C952 H977 0.929 . S
C953 C952 1.379 . S
C953 C954 1.405 . S
C954 C949 1.403 . S
C954 C953 1.405 . S
C954 H978 0.932 . S
O955 Cd890 2.173 . S
O955 C891 1.277 . S
O956 C891 1.230 . S
O956 Cd894 2.250 . S
O957 Cd890 2.263 . S
O957 C910 1.258 . S
O958 Cd894 2.308 . S
O958 C910 1.274 . S
O959 Cd890 2.366 . S
O959 C946 1.263 . S
C960 O961 1.235 . S
C960 O962 1.270 . S
O961 Cd894 2.352 . S
O961 C960 1.235 . S
O962 Cd890 2.329 . S
O962 C960 1.270 . S
C963 O947 1.270 . S
C963 O948 1.248 . S
H964 C896 0.930 . S
H965 C899 0.930 . S
H966 C900 0.931 . S
H967 C905 0.929 . S
H968 C907 0.930 . S
H969 C909 0.930 . S
H970 C912 0.929 . S
H971 C913 0.932 . S
H972 C915 0.930 . S
H973 C939 0.929 . S
H974 C940 0.932 . S
H975 C941 0.931 . S
H976 C950 0.931 . S
H977 C952 0.929 . S
H978 C954 0.932 . S
Cd979 O1036 2.350 . S
Cd979 O1037 2.277 . S
Cd979 O1044 2.173 . S
Cd979 O1046 2.263 . S
Cd979 O1048 2.366 . S
Cd979 O1051 2.329 . S
C980 O1044 1.277 . S
C980 O1045 1.230 . S
C981 O982 1.246 . S
C981 C984 1.481 . S
C981 N1006 1.329 . S
O982 C981 1.246 . S
Cd983 O1045 2.250 . S
Cd983 O1047 2.308 . S
Cd983 O1050 2.352 . S
C984 C981 1.481 . S
C984 N987 1.327 . S
C984 C988 1.407 . S
C985 C986 1.346 . S
C985 C989 1.390 . S
C985 H1053 0.930 . S
C986 C985 1.346 . S
C986 N987 1.342 . S
C986 C991 1.516 . S
N987 C984 1.327 . S
N987 C986 1.342 . S
N987 Co990 1.864 . S
C988 C984 1.407 . S
C988 C989 1.364 . S
C988 H1054 0.930 . S
C989 C985 1.390 . S
C989 C988 1.364 . S
C989 H1055 0.931 . S
Co990 N987 1.864 . S
Co990 N1006 1.955 . S
Co990 N1007 1.958 . S
Co990 N1008 1.953 . S
Co990 N1026 1.869 . S
Co990 N1032 1.974 . S
C991 C986 1.516 . S
C991 O992 1.238 . S
C991 N1007 1.324 . S
O992 C991 1.238 . S
C993 C994 1.394 . S
C993 C998 1.395 . S
C993 N1007 1.427 . S
C994 C993 1.394 . S
C994 C995 1.380 . S
C994 H1056 0.929 . S
C995 C994 1.380 . S
C995 C996 1.384 . S
C995 C999 1.495 . S
C996 C995 1.384 . S
C996 C997 1.382 . S
C996 H1057 0.930 . S
C997 C996 1.382 . S
C997 C998 1.398 . S
C998 C993 1.395 . S
C998 C997 1.398 . S
C998 H1058 0.930 . S
C999 C995 1.495 . S
C999 O1046 1.258 . S
C999 O1047 1.274 . S
C1000 C1001 1.385 . S
C1000 C1002 1.381 . S
C1000 N1006 1.432 . S
C1001 C1000 1.385 . S
C1001 C1005 1.388 . S
C1001 H1059 0.929 . S
C1002 C1000 1.381 . S
C1002 C1003 1.371 . S
C1002 H1060 0.932 . S
C1003 C1002 1.371 . S
C1003 C1004 1.400 . S
C1004 C1003 1.400 . S
C1004 C1005 1.351 . S
C1004 H1061 0.930 . S
C1005 C1001 1.388 . S
C1005 C1004 1.351 . S
N1006 C981 1.329 . S
N1006 Co990 1.955 . S
N1006 C1000 1.432 . S
N1007 Co990 1.958 . S
N1007 C991 1.324 . S
N1007 C993 1.427 . S
N1008 Co990 1.953 . S
N1008 C1009 1.436 . S
N1008 C1035 1.316 . S
C1009 N1008 1.436 . S
C1009 C1010 1.421 . S
C1009 C1011 1.360 . S
C1010 C1009 1.421 . S
C1010 C1012 1.379 . S
C1010 H1013 0.929 . S
C1011 C1009 1.360 . S
C1011 C1015 1.393 . S
C1011 H1017 0.931 . S
C1012 C1010 1.379 . S
C1012 C1014 1.417 . S
C1012 C1016 1.505 . S
H1013 C1010 0.929 . S
C1014 C1012 1.417 . S
C1014 C1015 1.352 . S
C1014 H1018 0.929 . S
C1015 C1011 1.393 . S
C1015 C1014 1.352 . S
C1015 C1019 1.482 . S
C1016 C1012 1.505 . S
C1016 O1020 1.259 . S
C1016 O1021 1.229 . S
H1017 C1011 0.931 . S
H1018 C1014 0.929 . S
C1019 C1015 1.482 . S
C1019 O1022 1.207 . S
C1019 O1023 1.289 . S
O1020 C1016 1.259 . S
O1020 H1024 0.822 . S
O1021 C1016 1.229 . S
O1022 C1019 1.207 . S
O1023 C1019 1.289 . S
O1023 H1025 0.819 . S
H1024 O1020 0.822 . S
H1025 O1023 0.819 . S
N1026 Co990 1.869 . S
N1026 C1027 1.330 . S
N1026 C1031 1.325 . S
C1027 N1026 1.330 . S
C1027 C1028 1.359 . S
C1027 C1033 1.504 . S
C1028 C1027 1.359 . S
C1028 C1029 1.366 . S
C1028 H1062 0.929 . S
C1029 C1028 1.366 . S
C1029 C1030 1.415 . S
C1029 H1063 0.932 . S
C1030 C1029 1.415 . S
C1030 C1031 1.366 . S
C1030 H1064 0.931 . S
C1031 N1026 1.325 . S
C1031 C1030 1.366 . S
C1031 C1035 1.516 . S
N1032 Co990 1.974 . S
N1032 C1033 1.309 . S
N1032 C1038 1.423 . S
C1033 C1027 1.504 . S
C1033 N1032 1.309 . S
C1033 O1034 1.258 . S
O1034 C1033 1.258 . S
C1035 N1008 1.316 . S
C1035 C1031 1.516 . S
C1035 O1048 1.263 . S
O1036 Cd979 2.350 . S
O1036 C1052 1.270 . S
O1037 Cd979 2.277 . S
O1037 C1052 1.248 . S
C1038 N1032 1.423 . S
C1038 C1039 1.370 . S
C1038 C1043 1.403 . S
C1039 C1038 1.370 . S
C1039 C1040 1.389 . S
C1039 H1065 0.931 . S
C1040 C1039 1.389 . S
C1040 C1041 1.389 . S
C1041 C1040 1.389 . S
C1041 C1042 1.379 . S
C1041 H1066 0.929 . S
C1042 C1041 1.379 . S
C1042 C1043 1.405 . S
C1043 C1038 1.403 . S
C1043 C1042 1.405 . S
C1043 H1067 0.932 . S
O1044 Cd979 2.173 . S
O1044 C980 1.277 . S
O1045 C980 1.230 . S
O1045 Cd983 2.250 . S
O1046 Cd979 2.263 . S
O1046 C999 1.258 . S
O1047 Cd983 2.308 . S
O1047 C999 1.274 . S
O1048 Cd979 2.366 . S
O1048 C1035 1.263 . S
C1049 O1050 1.235 . S
C1049 O1051 1.270 . S
O1050 Cd983 2.352 . S
O1050 C1049 1.235 . S
O1051 Cd979 2.329 . S
O1051 C1049 1.270 . S
C1052 O1036 1.270 . S
C1052 O1037 1.248 . S
H1053 C985 0.930 . S
H1054 C988 0.930 . S
H1055 C989 0.931 . S
H1056 C994 0.929 . S
H1057 C996 0.930 . S
H1058 C998 0.930 . S
H1059 C1001 0.929 . S
H1060 C1002 0.932 . S
H1061 C1004 0.930 . S
H1062 C1028 0.929 . S
H1063 C1029 0.932 . S
H1064 C1030 0.931 . S
H1065 C1039 0.931 . S
H1066 C1041 0.929 . S
H1067 C1043 0.932 . S
Cd1068 O1125 2.350 . S
Cd1068 O1126 2.277 . S
Cd1068 O1133 2.173 . S
Cd1068 O1135 2.263 . S
Cd1068 O1137 2.366 . S
Cd1068 O1140 2.329 . S
C1069 O1133 1.277 . S
C1069 O1134 1.230 . S
C1070 O1071 1.246 . S
C1070 C1073 1.481 . S
C1070 N1095 1.329 . S
O1071 C1070 1.246 . S
Cd1072 O1134 2.250 . S
Cd1072 O1136 2.308 . S
Cd1072 O1139 2.352 . S
C1073 C1070 1.481 . S
C1073 N1076 1.327 . S
C1073 C1077 1.407 . S
C1074 C1075 1.346 . S
C1074 C1078 1.390 . S
C1074 H1142 0.930 . S
C1075 C1074 1.346 . S
C1075 N1076 1.342 . S
C1075 C1080 1.516 . S
N1076 C1073 1.327 . S
N1076 C1075 1.342 . S
N1076 Co1079 1.864 . S
C1077 C1073 1.407 . S
C1077 C1078 1.364 . S
C1077 H1143 0.930 . S
C1078 C1074 1.390 . S
C1078 C1077 1.364 . S
C1078 H1144 0.931 . S
Co1079 N1076 1.864 . S
Co1079 N1095 1.955 . S
Co1079 N1096 1.958 . S
Co1079 N1097 1.953 . S
Co1079 N1115 1.869 . S
Co1079 N1121 1.974 . S
C1080 C1075 1.516 . S
C1080 O1081 1.238 . S
C1080 N1096 1.324 . S
O1081 C1080 1.238 . S
C1082 C1083 1.394 . S
C1082 C1087 1.395 . S
C1082 N1096 1.427 . S
C1083 C1082 1.394 . S
C1083 C1084 1.380 . S
C1083 H1145 0.929 . S
C1084 C1083 1.380 . S
C1084 C1085 1.384 . S
C1084 C1088 1.495 . S
C1085 C1084 1.384 . S
C1085 C1086 1.382 . S
C1085 H1146 0.930 . S
C1086 C1085 1.382 . S
C1086 C1087 1.398 . S
C1087 C1082 1.395 . S
C1087 C1086 1.398 . S
C1087 H1147 0.930 . S
C1088 C1084 1.495 . S
C1088 O1135 1.258 . S
C1088 O1136 1.274 . S
C1089 C1090 1.385 . S
C1089 C1091 1.381 . S
C1089 N1095 1.432 . S
C1090 C1089 1.385 . S
C1090 C1094 1.388 . S
C1090 H1148 0.929 . S
C1091 C1089 1.381 . S
C1091 C1092 1.371 . S
C1091 H1149 0.932 . S
C1092 C1091 1.371 . S
C1092 C1093 1.400 . S
C1093 C1092 1.400 . S
C1093 C1094 1.351 . S
C1093 H1150 0.930 . S
C1094 C1090 1.388 . S
C1094 C1093 1.351 . S
N1095 C1070 1.329 . S
N1095 Co1079 1.955 . S
N1095 C1089 1.432 . S
N1096 Co1079 1.958 . S
N1096 C1080 1.324 . S
N1096 C1082 1.427 . S
N1097 Co1079 1.953 . S
N1097 C1098 1.436 . S
N1097 C1124 1.316 . S
C1098 N1097 1.436 . S
C1098 C1099 1.421 . S
C1098 C1100 1.360 . S
C1099 C1098 1.421 . S
C1099 C1101 1.379 . S
C1099 H1102 0.929 . S
C1100 C1098 1.360 . S
C1100 C1104 1.393 . S
C1100 H1106 0.931 . S
C1101 C1099 1.379 . S
C1101 C1103 1.417 . S
C1101 C1105 1.505 . S
H1102 C1099 0.929 . S
C1103 C1101 1.417 . S
C1103 C1104 1.352 . S
C1103 H1107 0.929 . S
C1104 C1100 1.393 . S
C1104 C1103 1.352 . S
C1104 C1108 1.482 . S
C1105 C1101 1.505 . S
C1105 O1109 1.259 . S
C1105 O1110 1.229 . S
H1106 C1100 0.931 . S
H1107 C1103 0.929 . S
C1108 C1104 1.482 . S
C1108 O1111 1.207 . S
C1108 O1112 1.289 . S
O1109 C1105 1.259 . S
O1109 H1113 0.822 . S
O1110 C1105 1.229 . S
O1111 C1108 1.207 . S
O1112 C1108 1.289 . S
O1112 H1114 0.819 . S
H1113 O1109 0.822 . S
H1114 O1112 0.819 . S
N1115 Co1079 1.869 . S
N1115 C1116 1.330 . S
N1115 C1120 1.325 . S
C1116 N1115 1.330 . S
C1116 C1117 1.359 . S
C1116 C1122 1.504 . S
C1117 C1116 1.359 . S
C1117 C1118 1.366 . S
C1117 H1151 0.929 . S
C1118 C1117 1.366 . S
C1118 C1119 1.415 . S
C1118 H1152 0.932 . S
C1119 C1118 1.415 . S
C1119 C1120 1.366 . S
C1119 H1153 0.931 . S
C1120 N1115 1.325 . S
C1120 C1119 1.366 . S
C1120 C1124 1.516 . S
N1121 Co1079 1.974 . S
N1121 C1122 1.309 . S
N1121 C1127 1.423 . S
C1122 C1116 1.504 . S
C1122 N1121 1.309 . S
C1122 O1123 1.258 . S
O1123 C1122 1.258 . S
C1124 N1097 1.316 . S
C1124 C1120 1.516 . S
C1124 O1137 1.263 . S
O1125 Cd1068 2.350 . S
O1125 C1141 1.270 . S
O1126 Cd1068 2.277 . S
O1126 C1141 1.248 . S
C1127 N1121 1.423 . S
C1127 C1128 1.370 . S
C1127 C1132 1.403 . S
C1128 C1127 1.370 . S
C1128 C1129 1.389 . S
C1128 H1154 0.931 . S
C1129 C1128 1.389 . S
C1129 C1130 1.389 . S
C1130 C1129 1.389 . S
C1130 C1131 1.379 . S
C1130 H1155 0.929 . S
C1131 C1130 1.379 . S
C1131 C1132 1.405 . S
C1132 C1127 1.403 . S
C1132 C1131 1.405 . S
C1132 H1156 0.932 . S
O1133 Cd1068 2.173 . S
O1133 C1069 1.277 . S
O1134 C1069 1.230 . S
O1134 Cd1072 2.250 . S
O1135 Cd1068 2.263 . S
O1135 C1088 1.258 . S
O1136 Cd1072 2.308 . S
O1136 C1088 1.274 . S
O1137 Cd1068 2.366 . S
O1137 C1124 1.263 . S
C1138 O1139 1.235 . S
C1138 O1140 1.270 . S
O1139 Cd1072 2.352 . S
O1139 C1138 1.235 . S
O1140 Cd1068 2.329 . S
O1140 C1138 1.270 . S
C1141 O1125 1.270 . S
C1141 O1126 1.248 . S
H1142 C1074 0.930 . S
H1143 C1077 0.930 . S
H1144 C1078 0.931 . S
H1145 C1083 0.929 . S
H1146 C1085 0.930 . S
H1147 C1087 0.930 . S
H1148 C1090 0.929 . S
H1149 C1091 0.932 . S
H1150 C1093 0.930 . S
H1151 C1117 0.929 . S
H1152 C1118 0.932 . S
H1153 C1119 0.931 . S
H1154 C1128 0.931 . S
H1155 C1130 0.929 . S
H1156 C1132 0.932 . S
Cd1157 O1214 2.350 . S
Cd1157 O1215 2.277 . S
Cd1157 O1222 2.173 . S
Cd1157 O1224 2.263 . S
Cd1157 O1226 2.366 . S
Cd1157 O1229 2.329 . S
C1158 O1222 1.277 . S
C1158 O1223 1.230 . S
C1159 O1160 1.246 . S
C1159 C1162 1.481 . S
C1159 N1184 1.329 . S
O1160 C1159 1.246 . S
Cd1161 O1223 2.250 . S
Cd1161 O1225 2.308 . S
Cd1161 O1228 2.352 . S
C1162 C1159 1.481 . S
C1162 N1165 1.327 . S
C1162 C1166 1.407 . S
C1163 C1164 1.346 . S
C1163 C1167 1.390 . S
C1163 H1231 0.930 . S
C1164 C1163 1.346 . S
C1164 N1165 1.342 . S
C1164 C1169 1.516 . S
N1165 C1162 1.327 . S
N1165 C1164 1.342 . S
N1165 Co1168 1.864 . S
C1166 C1162 1.407 . S
C1166 C1167 1.364 . S
C1166 H1232 0.930 . S
C1167 C1163 1.390 . S
C1167 C1166 1.364 . S
C1167 H1233 0.931 . S
Co1168 N1165 1.864 . S
Co1168 N1184 1.955 . S
Co1168 N1185 1.958 . S
Co1168 N1186 1.953 . S
Co1168 N1204 1.869 . S
Co1168 N1210 1.974 . S
C1169 C1164 1.516 . S
C1169 O1170 1.238 . S
C1169 N1185 1.324 . S
O1170 C1169 1.238 . S
C1171 C1172 1.394 . S
C1171 C1176 1.395 . S
C1171 N1185 1.427 . S
C1172 C1171 1.394 . S
C1172 C1173 1.380 . S
C1172 H1234 0.929 . S
C1173 C1172 1.380 . S
C1173 C1174 1.384 . S
C1173 C1177 1.495 . S
C1174 C1173 1.384 . S
C1174 C1175 1.382 . S
C1174 H1235 0.930 . S
C1175 C1174 1.382 . S
C1175 C1176 1.398 . S
C1176 C1171 1.395 . S
C1176 C1175 1.398 . S
C1176 H1236 0.930 . S
C1177 C1173 1.495 . S
C1177 O1224 1.258 . S
C1177 O1225 1.274 . S
C1178 C1179 1.385 . S
C1178 C1180 1.381 . S
C1178 N1184 1.432 . S
C1179 C1178 1.385 . S
C1179 C1183 1.388 . S
C1179 H1237 0.929 . S
C1180 C1178 1.381 . S
C1180 C1181 1.371 . S
C1180 H1238 0.932 . S
C1181 C1180 1.371 . S
C1181 C1182 1.400 . S
C1182 C1181 1.400 . S
C1182 C1183 1.351 . S
C1182 H1239 0.930 . S
C1183 C1179 1.388 . S
C1183 C1182 1.351 . S
N1184 C1159 1.329 . S
N1184 Co1168 1.955 . S
N1184 C1178 1.432 . S
N1185 Co1168 1.958 . S
N1185 C1169 1.324 . S
N1185 C1171 1.427 . S
N1186 Co1168 1.953 . S
N1186 C1187 1.436 . S
N1186 C1213 1.316 . S
C1187 N1186 1.436 . S
C1187 C1188 1.421 . S
C1187 C1189 1.360 . S
C1188 C1187 1.421 . S
C1188 C1190 1.379 . S
C1188 H1191 0.929 . S
C1189 C1187 1.360 . S
C1189 C1193 1.393 . S
C1189 H1195 0.931 . S
C1190 C1188 1.379 . S
C1190 C1192 1.417 . S
C1190 C1194 1.505 . S
H1191 C1188 0.929 . S
C1192 C1190 1.417 . S
C1192 C1193 1.352 . S
C1192 H1196 0.929 . S
C1193 C1189 1.393 . S
C1193 C1192 1.352 . S
C1193 C1197 1.482 . S
C1194 C1190 1.505 . S
C1194 O1198 1.259 . S
C1194 O1199 1.229 . S
H1195 C1189 0.931 . S
H1196 C1192 0.929 . S
C1197 C1193 1.482 . S
C1197 O1200 1.207 . S
C1197 O1201 1.289 . S
O1198 C1194 1.259 . S
O1198 H1202 0.822 . S
O1199 C1194 1.229 . S
O1200 C1197 1.207 . S
O1201 C1197 1.289 . S
O1201 H1203 0.819 . S
H1202 O1198 0.822 . S
H1203 O1201 0.819 . S
N1204 Co1168 1.869 . S
N1204 C1205 1.330 . S
N1204 C1209 1.325 . S
C1205 N1204 1.330 . S
C1205 C1206 1.359 . S
C1205 C1211 1.504 . S
C1206 C1205 1.359 . S
C1206 C1207 1.366 . S
C1206 H1240 0.929 . S
C1207 C1206 1.366 . S
C1207 C1208 1.415 . S
C1207 H1241 0.932 . S
C1208 C1207 1.415 . S
C1208 C1209 1.366 . S
C1208 H1242 0.931 . S
C1209 N1204 1.325 . S
C1209 C1208 1.366 . S
C1209 C1213 1.516 . S
N1210 Co1168 1.974 . S
N1210 C1211 1.309 . S
N1210 C1216 1.423 . S
C1211 C1205 1.504 . S
C1211 N1210 1.309 . S
C1211 O1212 1.258 . S
O1212 C1211 1.258 . S
C1213 N1186 1.316 . S
C1213 C1209 1.516 . S
C1213 O1226 1.263 . S
O1214 Cd1157 2.350 . S
O1214 C1230 1.270 . S
O1215 Cd1157 2.277 . S
O1215 C1230 1.248 . S
C1216 N1210 1.423 . S
C1216 C1217 1.370 . S
C1216 C1221 1.403 . S
C1217 C1216 1.370 . S
C1217 C1218 1.389 . S
C1217 H1243 0.931 . S
C1218 C1217 1.389 . S
C1218 C1219 1.389 . S
C1219 C1218 1.389 . S
C1219 C1220 1.379 . S
C1219 H1244 0.929 . S
C1220 C1219 1.379 . S
C1220 C1221 1.405 . S
C1221 C1216 1.403 . S
C1221 C1220 1.405 . S
C1221 H1245 0.932 . S
O1222 Cd1157 2.173 . S
O1222 C1158 1.277 . S
O1223 C1158 1.230 . S
O1223 Cd1161 2.250 . S
O1224 Cd1157 2.263 . S
O1224 C1177 1.258 . S
O1225 Cd1161 2.308 . S
O1225 C1177 1.274 . S
O1226 Cd1157 2.366 . S
O1226 C1213 1.263 . S
C1227 O1228 1.235 . S
C1227 O1229 1.270 . S
O1228 Cd1161 2.352 . S
O1228 C1227 1.235 . S
O1229 Cd1157 2.329 . S
O1229 C1227 1.270 . S
C1230 O1214 1.270 . S
C1230 O1215 1.248 . S
H1231 C1163 0.930 . S
H1232 C1166 0.930 . S
H1233 C1167 0.931 . S
H1234 C1172 0.929 . S
H1235 C1174 0.930 . S
H1236 C1176 0.930 . S
H1237 C1179 0.929 . S
H1238 C1180 0.932 . S
H1239 C1182 0.930 . S
H1240 C1206 0.929 . S
H1241 C1207 0.932 . S
H1242 C1208 0.931 . S
H1243 C1217 0.931 . S
H1244 C1219 0.929 . S
H1245 C1221 0.932 . S
Cd1246 O1303 2.350 . S
Cd1246 O1304 2.277 . S
Cd1246 O1311 2.173 . S
Cd1246 O1313 2.263 . S
Cd1246 O1315 2.366 . S
Cd1246 O1318 2.329 . S
C1247 O1311 1.277 . S
C1247 O1312 1.230 . S
C1248 O1249 1.246 . S
C1248 C1251 1.481 . S
C1248 N1273 1.329 . S
O1249 C1248 1.246 . S
Cd1250 O1312 2.250 . S
Cd1250 O1314 2.308 . S
Cd1250 O1317 2.352 . S
C1251 C1248 1.481 . S
C1251 N1254 1.327 . S
C1251 C1255 1.407 . S
C1252 C1253 1.346 . S
C1252 C1256 1.390 . S
C1252 H1320 0.930 . S
C1253 C1252 1.346 . S
C1253 N1254 1.342 . S
C1253 C1258 1.516 . S
N1254 C1251 1.327 . S
N1254 C1253 1.342 . S
N1254 Co1257 1.864 . S
C1255 C1251 1.407 . S
C1255 C1256 1.364 . S
C1255 H1321 0.930 . S
C1256 C1252 1.390 . S
C1256 C1255 1.364 . S
C1256 H1322 0.931 . S
Co1257 N1254 1.864 . S
Co1257 N1273 1.955 . S
Co1257 N1274 1.958 . S
Co1257 N1275 1.953 . S
Co1257 N1293 1.869 . S
Co1257 N1299 1.974 . S
C1258 C1253 1.516 . S
C1258 O1259 1.238 . S
C1258 N1274 1.324 . S
O1259 C1258 1.238 . S
C1260 C1261 1.394 . S
C1260 C1265 1.395 . S
C1260 N1274 1.427 . S
C1261 C1260 1.394 . S
C1261 C1262 1.380 . S
C1261 H1323 0.929 . S
C1262 C1261 1.380 . S
C1262 C1263 1.384 . S
C1262 C1266 1.495 . S
C1263 C1262 1.384 . S
C1263 C1264 1.382 . S
C1263 H1324 0.930 . S
C1264 C1263 1.382 . S
C1264 C1265 1.398 . S
C1265 C1260 1.395 . S
C1265 C1264 1.398 . S
C1265 H1325 0.930 . S
C1266 C1262 1.495 . S
C1266 O1313 1.258 . S
C1266 O1314 1.274 . S
C1267 C1268 1.385 . S
C1267 C1269 1.381 . S
C1267 N1273 1.432 . S
C1268 C1267 1.385 . S
C1268 C1272 1.388 . S
C1268 H1326 0.929 . S
C1269 C1267 1.381 . S
C1269 C1270 1.371 . S
C1269 H1327 0.932 . S
C1270 C1269 1.371 . S
C1270 C1271 1.400 . S
C1271 C1270 1.400 . S
C1271 C1272 1.351 . S
C1271 H1328 0.930 . S
C1272 C1268 1.388 . S
C1272 C1271 1.351 . S
N1273 C1248 1.329 . S
N1273 Co1257 1.955 . S
N1273 C1267 1.432 . S
N1274 Co1257 1.958 . S
N1274 C1258 1.324 . S
N1274 C1260 1.427 . S
N1275 Co1257 1.953 . S
N1275 C1276 1.436 . S
N1275 C1302 1.316 . S
C1276 N1275 1.436 . S
C1276 C1277 1.421 . S
C1276 C1278 1.360 . S
C1277 C1276 1.421 . S
C1277 C1279 1.379 . S
C1277 H1280 0.929 . S
C1278 C1276 1.360 . S
C1278 C1282 1.393 . S
C1278 H1284 0.931 . S
C1279 C1277 1.379 . S
C1279 C1281 1.417 . S
C1279 C1283 1.505 . S
H1280 C1277 0.929 . S
C1281 C1279 1.417 . S
C1281 C1282 1.352 . S
C1281 H1285 0.929 . S
C1282 C1278 1.393 . S
C1282 C1281 1.352 . S
C1282 C1286 1.482 . S
C1283 C1279 1.505 . S
C1283 O1287 1.259 . S
C1283 O1288 1.229 . S
H1284 C1278 0.931 . S
H1285 C1281 0.929 . S
C1286 C1282 1.482 . S
C1286 O1289 1.207 . S
C1286 O1290 1.289 . S
O1287 C1283 1.259 . S
O1287 H1291 0.822 . S
O1288 C1283 1.229 . S
O1289 C1286 1.207 . S
O1290 C1286 1.289 . S
O1290 H1292 0.819 . S
H1291 O1287 0.822 . S
H1292 O1290 0.819 . S
N1293 Co1257 1.869 . S
N1293 C1294 1.330 . S
N1293 C1298 1.325 . S
C1294 N1293 1.330 . S
C1294 C1295 1.359 . S
C1294 C1300 1.504 . S
C1295 C1294 1.359 . S
C1295 C1296 1.366 . S
C1295 H1329 0.929 . S
C1296 C1295 1.366 . S
C1296 C1297 1.415 . S
C1296 H1330 0.932 . S
C1297 C1296 1.415 . S
C1297 C1298 1.366 . S
C1297 H1331 0.931 . S
C1298 N1293 1.325 . S
C1298 C1297 1.366 . S
C1298 C1302 1.516 . S
N1299 Co1257 1.974 . S
N1299 C1300 1.309 . S
N1299 C1305 1.423 . S
C1300 C1294 1.504 . S
C1300 N1299 1.309 . S
C1300 O1301 1.258 . S
O1301 C1300 1.258 . S
C1302 N1275 1.316 . S
C1302 C1298 1.516 . S
C1302 O1315 1.263 . S
O1303 Cd1246 2.350 . S
O1303 C1319 1.270 . S
O1304 Cd1246 2.277 . S
O1304 C1319 1.248 . S
C1305 N1299 1.423 . S
C1305 C1306 1.370 . S
C1305 C1310 1.403 . S
C1306 C1305 1.370 . S
C1306 C1307 1.389 . S
C1306 H1332 0.931 . S
C1307 C1306 1.389 . S
C1307 C1308 1.389 . S
C1308 C1307 1.389 . S
C1308 C1309 1.379 . S
C1308 H1333 0.929 . S
C1309 C1308 1.379 . S
C1309 C1310 1.405 . S
C1310 C1305 1.403 . S
C1310 C1309 1.405 . S
C1310 H1334 0.932 . S
O1311 Cd1246 2.173 . S
O1311 C1247 1.277 . S
O1312 C1247 1.230 . S
O1312 Cd1250 2.250 . S
O1313 Cd1246 2.263 . S
O1313 C1266 1.258 . S
O1314 Cd1250 2.308 . S
O1314 C1266 1.274 . S
O1315 Cd1246 2.366 . S
O1315 C1302 1.263 . S
C1316 O1317 1.235 . S
C1316 O1318 1.270 . S
O1317 Cd1250 2.352 . S
O1317 C1316 1.235 . S
O1318 Cd1246 2.329 . S
O1318 C1316 1.270 . S
C1319 O1303 1.270 . S
C1319 O1304 1.248 . S
H1320 C1252 0.930 . S
H1321 C1255 0.930 . S
H1322 C1256 0.931 . S
H1323 C1261 0.929 . S
H1324 C1263 0.930 . S
H1325 C1265 0.930 . S
H1326 C1268 0.929 . S
H1327 C1269 0.932 . S
H1328 C1271 0.930 . S
H1329 C1295 0.929 . S
H1330 C1296 0.932 . S
H1331 C1297 0.931 . S
H1332 C1306 0.931 . S
H1333 C1308 0.929 . S
H1334 C1310 0.932 . S
Cd1335 O1392 2.350 . S
Cd1335 O1393 2.277 . S
Cd1335 O1400 2.173 . S
Cd1335 O1402 2.263 . S
Cd1335 O1404 2.366 . S
Cd1335 O1407 2.329 . S
C1336 O1400 1.277 . S
C1336 O1401 1.230 . S
C1337 O1338 1.246 . S
C1337 C1340 1.481 . S
C1337 N1362 1.329 . S
O1338 C1337 1.246 . S
Cd1339 O1401 2.250 . S
Cd1339 O1403 2.308 . S
Cd1339 O1406 2.352 . S
C1340 C1337 1.481 . S
C1340 N1343 1.327 . S
C1340 C1344 1.407 . S
C1341 C1342 1.346 . S
C1341 C1345 1.390 . S
C1341 H1409 0.930 . S
C1342 C1341 1.346 . S
C1342 N1343 1.342 . S
C1342 C1347 1.516 . S
N1343 C1340 1.327 . S
N1343 C1342 1.342 . S
N1343 Co1346 1.864 . S
C1344 C1340 1.407 . S
C1344 C1345 1.364 . S
C1344 H1410 0.930 . S
C1345 C1341 1.390 . S
C1345 C1344 1.364 . S
C1345 H1411 0.931 . S
Co1346 N1343 1.864 . S
Co1346 N1362 1.955 . S
Co1346 N1363 1.958 . S
Co1346 N1364 1.953 . S
Co1346 N1382 1.869 . S
Co1346 N1388 1.974 . S
C1347 C1342 1.516 . S
C1347 O1348 1.238 . S
C1347 N1363 1.324 . S
O1348 C1347 1.238 . S
C1349 C1350 1.394 . S
C1349 C1354 1.395 . S
C1349 N1363 1.427 . S
C1350 C1349 1.394 . S
C1350 C1351 1.380 . S
C1350 H1412 0.929 . S
C1351 C1350 1.380 . S
C1351 C1352 1.384 . S
C1351 C1355 1.495 . S
C1352 C1351 1.384 . S
C1352 C1353 1.382 . S
C1352 H1413 0.930 . S
C1353 C1352 1.382 . S
C1353 C1354 1.398 . S
C1354 C1349 1.395 . S
C1354 C1353 1.398 . S
C1354 H1414 0.930 . S
C1355 C1351 1.495 . S
C1355 O1402 1.258 . S
C1355 O1403 1.274 . S
C1356 C1357 1.385 . S
C1356 C1358 1.381 . S
C1356 N1362 1.432 . S
C1357 C1356 1.385 . S
C1357 C1361 1.388 . S
C1357 H1415 0.929 . S
C1358 C1356 1.381 . S
C1358 C1359 1.371 . S
C1358 H1416 0.932 . S
C1359 C1358 1.371 . S
C1359 C1360 1.400 . S
C1360 C1359 1.400 . S
C1360 C1361 1.351 . S
C1360 H1417 0.930 . S
C1361 C1357 1.388 . S
C1361 C1360 1.351 . S
N1362 C1337 1.329 . S
N1362 Co1346 1.955 . S
N1362 C1356 1.432 . S
N1363 Co1346 1.958 . S
N1363 C1347 1.324 . S
N1363 C1349 1.427 . S
N1364 Co1346 1.953 . S
N1364 C1365 1.436 . S
N1364 C1391 1.316 . S
C1365 N1364 1.436 . S
C1365 C1366 1.421 . S
C1365 C1367 1.360 . S
C1366 C1365 1.421 . S
C1366 C1368 1.379 . S
C1366 H1369 0.929 . S
C1367 C1365 1.360 . S
C1367 C1371 1.393 . S
C1367 H1373 0.931 . S
C1368 C1366 1.379 . S
C1368 C1370 1.417 . S
C1368 C1372 1.505 . S
H1369 C1366 0.929 . S
C1370 C1368 1.417 . S
C1370 C1371 1.352 . S
C1370 H1374 0.929 . S
C1371 C1367 1.393 . S
C1371 C1370 1.352 . S
C1371 C1375 1.482 . S
C1372 C1368 1.505 . S
C1372 O1376 1.259 . S
C1372 O1377 1.229 . S
H1373 C1367 0.931 . S
H1374 C1370 0.929 . S
C1375 C1371 1.482 . S
C1375 O1378 1.207 . S
C1375 O1379 1.289 . S
O1376 C1372 1.259 . S
O1376 H1380 0.822 . S
O1377 C1372 1.229 . S
O1378 C1375 1.207 . S
O1379 C1375 1.289 . S
O1379 H1381 0.819 . S
H1380 O1376 0.822 . S
H1381 O1379 0.819 . S
N1382 Co1346 1.869 . S
N1382 C1383 1.330 . S
N1382 C1387 1.325 . S
C1383 N1382 1.330 . S
C1383 C1384 1.359 . S
C1383 C1389 1.504 . S
C1384 C1383 1.359 . S
C1384 C1385 1.366 . S
C1384 H1418 0.929 . S
C1385 C1384 1.366 . S
C1385 C1386 1.415 . S
C1385 H1419 0.932 . S
C1386 C1385 1.415 . S
C1386 C1387 1.366 . S
C1386 H1420 0.931 . S
C1387 N1382 1.325 . S
C1387 C1386 1.366 . S
C1387 C1391 1.516 . S
N1388 Co1346 1.974 . S
N1388 C1389 1.309 . S
N1388 C1394 1.423 . S
C1389 C1383 1.504 . S
C1389 N1388 1.309 . S
C1389 O1390 1.258 . S
O1390 C1389 1.258 . S
C1391 N1364 1.316 . S
C1391 C1387 1.516 . S
C1391 O1404 1.263 . S
O1392 Cd1335 2.350 . S
O1392 C1408 1.270 . S
O1393 Cd1335 2.277 . S
O1393 C1408 1.248 . S
C1394 N1388 1.423 . S
C1394 C1395 1.370 . S
C1394 C1399 1.403 . S
C1395 C1394 1.370 . S
C1395 C1396 1.389 . S
C1395 H1421 0.931 . S
C1396 C1395 1.389 . S
C1396 C1397 1.389 . S
C1397 C1396 1.389 . S
C1397 C1398 1.379 . S
C1397 H1422 0.929 . S
C1398 C1397 1.379 . S
C1398 C1399 1.405 . S
C1399 C1394 1.403 . S
C1399 C1398 1.405 . S
C1399 H1423 0.932 . S
O1400 Cd1335 2.173 . S
O1400 C1336 1.277 . S
O1401 C1336 1.230 . S
O1401 Cd1339 2.250 . S
O1402 Cd1335 2.263 . S
O1402 C1355 1.258 . S
O1403 Cd1339 2.308 . S
O1403 C1355 1.274 . S
O1404 Cd1335 2.366 . S
O1404 C1391 1.263 . S
C1405 O1406 1.235 . S
C1405 O1407 1.270 . S
O1406 Cd1339 2.352 . S
O1406 C1405 1.235 . S
O1407 Cd1335 2.329 . S
O1407 C1405 1.270 . S
C1408 O1392 1.270 . S
C1408 O1393 1.248 . S
H1409 C1341 0.930 . S
H1410 C1344 0.930 . S
H1411 C1345 0.931 . S
H1412 C1350 0.929 . S
H1413 C1352 0.930 . S
H1414 C1354 0.930 . S
H1415 C1357 0.929 . S
H1416 C1358 0.932 . S
H1417 C1360 0.930 . S
H1418 C1384 0.929 . S
H1419 C1385 0.932 . S
H1420 C1386 0.931 . S
H1421 C1395 0.931 . S
H1422 C1397 0.929 . S
H1423 C1399 0.932 . S
Cd1424 O1481 2.350 . S
Cd1424 O1482 2.277 . S
Cd1424 O1489 2.173 . S
Cd1424 O1491 2.263 . S
Cd1424 O1493 2.366 . S
Cd1424 O1496 2.329 . S
C1425 O1489 1.277 . S
C1425 O1490 1.230 . S
C1426 O1427 1.246 . S
C1426 C1429 1.481 . S
C1426 N1451 1.329 . S
O1427 C1426 1.246 . S
Cd1428 O1490 2.250 . S
Cd1428 O1492 2.308 . S
Cd1428 O1495 2.352 . S
C1429 C1426 1.481 . S
C1429 N1432 1.327 . S
C1429 C1433 1.407 . S
C1430 C1431 1.346 . S
C1430 C1434 1.390 . S
C1430 H1498 0.930 . S
C1431 C1430 1.346 . S
C1431 N1432 1.342 . S
C1431 C1436 1.516 . S
N1432 C1429 1.327 . S
N1432 C1431 1.342 . S
N1432 Co1435 1.864 . S
C1433 C1429 1.407 . S
C1433 C1434 1.364 . S
C1433 H1499 0.930 . S
C1434 C1430 1.390 . S
C1434 C1433 1.364 . S
C1434 H1500 0.931 . S
Co1435 N1432 1.864 . S
Co1435 N1451 1.955 . S
Co1435 N1452 1.958 . S
Co1435 N1453 1.953 . S
Co1435 N1471 1.869 . S
Co1435 N1477 1.974 . S
C1436 C1431 1.516 . S
C1436 O1437 1.238 . S
C1436 N1452 1.324 . S
O1437 C1436 1.238 . S
C1438 C1439 1.394 . S
C1438 C1443 1.395 . S
C1438 N1452 1.427 . S
C1439 C1438 1.394 . S
C1439 C1440 1.380 . S
C1439 H1501 0.929 . S
C1440 C1439 1.380 . S
C1440 C1441 1.384 . S
C1440 C1444 1.495 . S
C1441 C1440 1.384 . S
C1441 C1442 1.382 . S
C1441 H1502 0.930 . S
C1442 C1441 1.382 . S
C1442 C1443 1.398 . S
C1443 C1438 1.395 . S
C1443 C1442 1.398 . S
C1443 H1503 0.930 . S
C1444 C1440 1.495 . S
C1444 O1491 1.258 . S
C1444 O1492 1.274 . S
C1445 C1446 1.385 . S
C1445 C1447 1.381 . S
C1445 N1451 1.432 . S
C1446 C1445 1.385 . S
C1446 C1450 1.388 . S
C1446 H1504 0.929 . S
C1447 C1445 1.381 . S
C1447 C1448 1.371 . S
C1447 H1505 0.932 . S
C1448 C1447 1.371 . S
C1448 C1449 1.400 . S
C1449 C1448 1.400 . S
C1449 C1450 1.351 . S
C1449 H1506 0.930 . S
C1450 C1446 1.388 . S
C1450 C1449 1.351 . S
N1451 C1426 1.329 . S
N1451 Co1435 1.955 . S
N1451 C1445 1.432 . S
N1452 Co1435 1.958 . S
N1452 C1436 1.324 . S
N1452 C1438 1.427 . S
N1453 Co1435 1.953 . S
N1453 C1454 1.436 . S
N1453 C1480 1.316 . S
C1454 N1453 1.436 . S
C1454 C1455 1.421 . S
C1454 C1456 1.360 . S
C1455 C1454 1.421 . S
C1455 C1457 1.379 . S
C1455 H1458 0.929 . S
C1456 C1454 1.360 . S
C1456 C1460 1.393 . S
C1456 H1462 0.931 . S
C1457 C1455 1.379 . S
C1457 C1459 1.417 . S
C1457 C1461 1.505 . S
H1458 C1455 0.929 . S
C1459 C1457 1.417 . S
C1459 C1460 1.352 . S
C1459 H1463 0.929 . S
C1460 C1456 1.393 . S
C1460 C1459 1.352 . S
C1460 C1464 1.482 . S
C1461 C1457 1.505 . S
C1461 O1465 1.259 . S
C1461 O1466 1.229 . S
H1462 C1456 0.931 . S
H1463 C1459 0.929 . S
C1464 C1460 1.482 . S
C1464 O1467 1.207 . S
C1464 O1468 1.289 . S
O1465 C1461 1.259 . S
O1465 H1469 0.822 . S
O1466 C1461 1.229 . S
O1467 C1464 1.207 . S
O1468 C1464 1.289 . S
O1468 H1470 0.819 . S
H1469 O1465 0.822 . S
H1470 O1468 0.819 . S
N1471 Co1435 1.869 . S
N1471 C1472 1.330 . S
N1471 C1476 1.325 . S
C1472 N1471 1.330 . S
C1472 C1473 1.359 . S
C1472 C1478 1.504 . S
C1473 C1472 1.359 . S
C1473 C1474 1.366 . S
C1473 H1507 0.929 . S
C1474 C1473 1.366 . S
C1474 C1475 1.415 . S
C1474 H1508 0.932 . S
C1475 C1474 1.415 . S
C1475 C1476 1.366 . S
C1475 H1509 0.931 . S
C1476 N1471 1.325 . S
C1476 C1475 1.366 . S
C1476 C1480 1.516 . S
N1477 Co1435 1.974 . S
N1477 C1478 1.309 . S
N1477 C1483 1.423 . S
C1478 C1472 1.504 . S
C1478 N1477 1.309 . S
C1478 O1479 1.258 . S
O1479 C1478 1.258 . S
C1480 N1453 1.316 . S
C1480 C1476 1.516 . S
C1480 O1493 1.263 . S
O1481 Cd1424 2.350 . S
O1481 C1497 1.270 . S
O1482 Cd1424 2.277 . S
O1482 C1497 1.248 . S
C1483 N1477 1.423 . S
C1483 C1484 1.370 . S
C1483 C1488 1.403 . S
C1484 C1483 1.370 . S
C1484 C1485 1.389 . S
C1484 H1510 0.931 . S
C1485 C1484 1.389 . S
C1485 C1486 1.389 . S
C1486 C1485 1.389 . S
C1486 C1487 1.379 . S
C1486 H1511 0.929 . S
C1487 C1486 1.379 . S
C1487 C1488 1.405 . S
C1488 C1483 1.403 . S
C1488 C1487 1.405 . S
C1488 H1512 0.932 . S
O1489 Cd1424 2.173 . S
O1489 C1425 1.277 . S
O1490 C1425 1.230 . S
O1490 Cd1428 2.250 . S
O1491 Cd1424 2.263 . S
O1491 C1444 1.258 . S
O1492 Cd1428 2.308 . S
O1492 C1444 1.274 . S
O1493 Cd1424 2.366 . S
O1493 C1480 1.263 . S
C1494 O1495 1.235 . S
C1494 O1496 1.270 . S
O1495 Cd1428 2.352 . S
O1495 C1494 1.235 . S
O1496 Cd1424 2.329 . S
O1496 C1494 1.270 . S
C1497 O1481 1.270 . S
C1497 O1482 1.248 . S
H1498 C1430 0.930 . S
H1499 C1433 0.930 . S
H1500 C1434 0.931 . S
H1501 C1439 0.929 . S
H1502 C1441 0.930 . S
H1503 C1443 0.930 . S
H1504 C1446 0.929 . S
H1505 C1447 0.932 . S
H1506 C1449 0.930 . S
H1507 C1473 0.929 . S
H1508 C1474 0.932 . S
H1509 C1475 0.931 . S
H1510 C1484 0.931 . S
H1511 C1486 0.929 . S
H1512 C1488 0.932 . S
Cd1513 O1570 2.350 . S
Cd1513 O1571 2.277 . S
Cd1513 O1578 2.173 . S
Cd1513 O1580 2.263 . S
Cd1513 O1582 2.366 . S
Cd1513 O1585 2.329 . S
C1514 O1578 1.277 . S
C1514 O1579 1.230 . S
C1515 O1516 1.246 . S
C1515 C1518 1.481 . S
C1515 N1540 1.329 . S
O1516 C1515 1.246 . S
Cd1517 O1579 2.250 . S
Cd1517 O1581 2.308 . S
Cd1517 O1584 2.352 . S
C1518 C1515 1.481 . S
C1518 N1521 1.327 . S
C1518 C1522 1.407 . S
C1519 C1520 1.346 . S
C1519 C1523 1.390 . S
C1519 H1587 0.930 . S
C1520 C1519 1.346 . S
C1520 N1521 1.342 . S
C1520 C1525 1.516 . S
N1521 C1518 1.327 . S
N1521 C1520 1.342 . S
N1521 Co1524 1.864 . S
C1522 C1518 1.407 . S
C1522 C1523 1.364 . S
C1522 H1588 0.930 . S
C1523 C1519 1.390 . S
C1523 C1522 1.364 . S
C1523 H1589 0.931 . S
Co1524 N1521 1.864 . S
Co1524 N1540 1.955 . S
Co1524 N1541 1.958 . S
Co1524 N1542 1.953 . S
Co1524 N1560 1.869 . S
Co1524 N1566 1.974 . S
C1525 C1520 1.516 . S
C1525 O1526 1.238 . S
C1525 N1541 1.324 . S
O1526 C1525 1.238 . S
C1527 C1528 1.394 . S
C1527 C1532 1.395 . S
C1527 N1541 1.427 . S
C1528 C1527 1.394 . S
C1528 C1529 1.380 . S
C1528 H1590 0.929 . S
C1529 C1528 1.380 . S
C1529 C1530 1.384 . S
C1529 C1533 1.495 . S
C1530 C1529 1.384 . S
C1530 C1531 1.382 . S
C1530 H1591 0.930 . S
C1531 C1530 1.382 . S
C1531 C1532 1.398 . S
C1532 C1527 1.395 . S
C1532 C1531 1.398 . S
C1532 H1592 0.930 . S
C1533 C1529 1.495 . S
C1533 O1580 1.258 . S
C1533 O1581 1.274 . S
C1534 C1535 1.385 . S
C1534 C1536 1.381 . S
C1534 N1540 1.432 . S
C1535 C1534 1.385 . S
C1535 C1539 1.388 . S
C1535 H1593 0.929 . S
C1536 C1534 1.381 . S
C1536 C1537 1.371 . S
C1536 H1594 0.932 . S
C1537 C1536 1.371 . S
C1537 C1538 1.400 . S
C1538 C1537 1.400 . S
C1538 C1539 1.351 . S
C1538 H1595 0.930 . S
C1539 C1535 1.388 . S
C1539 C1538 1.351 . S
N1540 C1515 1.329 . S
N1540 Co1524 1.955 . S
N1540 C1534 1.432 . S
N1541 Co1524 1.958 . S
N1541 C1525 1.324 . S
N1541 C1527 1.427 . S
N1542 Co1524 1.953 . S
N1542 C1543 1.436 . S
N1542 C1569 1.316 . S
C1543 N1542 1.436 . S
C1543 C1544 1.421 . S
C1543 C1545 1.360 . S
C1544 C1543 1.421 . S
C1544 C1546 1.379 . S
C1544 H1547 0.929 . S
C1545 C1543 1.360 . S
C1545 C1549 1.393 . S
C1545 H1551 0.931 . S
C1546 C1544 1.379 . S
C1546 C1548 1.417 . S
C1546 C1550 1.505 . S
H1547 C1544 0.929 . S
C1548 C1546 1.417 . S
C1548 C1549 1.352 . S
C1548 H1552 0.929 . S
C1549 C1545 1.393 . S
C1549 C1548 1.352 . S
C1549 C1553 1.482 . S
C1550 C1546 1.505 . S
C1550 O1554 1.259 . S
C1550 O1555 1.229 . S
H1551 C1545 0.931 . S
H1552 C1548 0.929 . S
C1553 C1549 1.482 . S
C1553 O1556 1.207 . S
C1553 O1557 1.289 . S
O1554 C1550 1.259 . S
O1554 H1558 0.822 . S
O1555 C1550 1.229 . S
O1556 C1553 1.207 . S
O1557 C1553 1.289 . S
O1557 H1559 0.819 . S
H1558 O1554 0.822 . S
H1559 O1557 0.819 . S
N1560 Co1524 1.869 . S
N1560 C1561 1.330 . S
N1560 C1565 1.325 . S
C1561 N1560 1.330 . S
C1561 C1562 1.359 . S
C1561 C1567 1.504 . S
C1562 C1561 1.359 . S
C1562 C1563 1.366 . S
C1562 H1596 0.929 . S
C1563 C1562 1.366 . S
C1563 C1564 1.415 . S
C1563 H1597 0.932 . S
C1564 C1563 1.415 . S
C1564 C1565 1.366 . S
C1564 H1598 0.931 . S
C1565 N1560 1.325 . S
C1565 C1564 1.366 . S
C1565 C1569 1.516 . S
N1566 Co1524 1.974 . S
N1566 C1567 1.309 . S
N1566 C1572 1.423 . S
C1567 C1561 1.504 . S
C1567 N1566 1.309 . S
C1567 O1568 1.258 . S
O1568 C1567 1.258 . S
C1569 N1542 1.316 . S
C1569 C1565 1.516 . S
C1569 O1582 1.263 . S
O1570 Cd1513 2.350 . S
O1570 C1586 1.270 . S
O1571 Cd1513 2.277 . S
O1571 C1586 1.248 . S
C1572 N1566 1.423 . S
C1572 C1573 1.370 . S
C1572 C1577 1.403 . S
C1573 C1572 1.370 . S
C1573 C1574 1.389 . S
C1573 H1599 0.931 . S
C1574 C1573 1.389 . S
C1574 C1575 1.389 . S
C1575 C1574 1.389 . S
C1575 C1576 1.379 . S
C1575 H1600 0.929 . S
C1576 C1575 1.379 . S
C1576 C1577 1.405 . S
C1577 C1572 1.403 . S
C1577 C1576 1.405 . S
C1577 H1601 0.932 . S
O1578 Cd1513 2.173 . S
O1578 C1514 1.277 . S
O1579 C1514 1.230 . S
O1579 Cd1517 2.250 . S
O1580 Cd1513 2.263 . S
O1580 C1533 1.258 . S
O1581 Cd1517 2.308 . S
O1581 C1533 1.274 . S
O1582 Cd1513 2.366 . S
O1582 C1569 1.263 . S
C1583 O1584 1.235 . S
C1583 O1585 1.270 . S
O1584 Cd1517 2.352 . S
O1584 C1583 1.235 . S
O1585 Cd1513 2.329 . S
O1585 C1583 1.270 . S
C1586 O1570 1.270 . S
C1586 O1571 1.248 . S
H1587 C1519 0.930 . S
H1588 C1522 0.930 . S
H1589 C1523 0.931 . S
H1590 C1528 0.929 . S
H1591 C1530 0.930 . S
H1592 C1532 0.930 . S
H1593 C1535 0.929 . S
H1594 C1536 0.932 . S
H1595 C1538 0.930 . S
H1596 C1562 0.929 . S
H1597 C1563 0.932 . S
H1598 C1564 0.931 . S
H1599 C1573 0.931 . S
H1600 C1575 0.929 . S
H1601 C1577 0.932 . S
Cd1602 O1659 2.350 . S
Cd1602 O1660 2.277 . S
Cd1602 O1667 2.173 . S
Cd1602 O1669 2.263 . S
Cd1602 O1671 2.366 . S
Cd1602 O1674 2.329 . S
C1603 O1667 1.277 . S
C1603 O1668 1.230 . S
C1604 O1605 1.246 . S
C1604 C1607 1.481 . S
C1604 N1629 1.329 . S
O1605 C1604 1.246 . S
Cd1606 O1668 2.250 . S
Cd1606 O1670 2.308 . S
Cd1606 O1673 2.352 . S
C1607 C1604 1.481 . S
C1607 N1610 1.327 . S
C1607 C1611 1.407 . S
C1608 C1609 1.346 . S
C1608 C1612 1.390 . S
C1608 H1676 0.930 . S
C1609 C1608 1.346 . S
C1609 N1610 1.342 . S
C1609 C1614 1.516 . S
N1610 C1607 1.327 . S
N1610 C1609 1.342 . S
N1610 Co1613 1.864 . S
C1611 C1607 1.407 . S
C1611 C1612 1.364 . S
C1611 H1677 0.930 . S
C1612 C1608 1.390 . S
C1612 C1611 1.364 . S
C1612 H1678 0.931 . S
Co1613 N1610 1.864 . S
Co1613 N1629 1.955 . S
Co1613 N1630 1.958 . S
Co1613 N1631 1.953 . S
Co1613 N1649 1.869 . S
Co1613 N1655 1.974 . S
C1614 C1609 1.516 . S
C1614 O1615 1.238 . S
C1614 N1630 1.324 . S
O1615 C1614 1.238 . S
C1616 C1617 1.394 . S
C1616 C1621 1.395 . S
C1616 N1630 1.427 . S
C1617 C1616 1.394 . S
C1617 C1618 1.380 . S
C1617 H1679 0.929 . S
C1618 C1617 1.380 . S
C1618 C1619 1.384 . S
C1618 C1622 1.495 . S
C1619 C1618 1.384 . S
C1619 C1620 1.382 . S
C1619 H1680 0.930 . S
C1620 C1619 1.382 . S
C1620 C1621 1.398 . S
C1621 C1616 1.395 . S
C1621 C1620 1.398 . S
C1621 H1681 0.930 . S
C1622 C1618 1.495 . S
C1622 O1669 1.258 . S
C1622 O1670 1.274 . S
C1623 C1624 1.385 . S
C1623 C1625 1.381 . S
C1623 N1629 1.432 . S
C1624 C1623 1.385 . S
C1624 C1628 1.388 . S
C1624 H1682 0.929 . S
C1625 C1623 1.381 . S
C1625 C1626 1.371 . S
C1625 H1683 0.932 . S
C1626 C1625 1.371 . S
C1626 C1627 1.400 . S
C1627 C1626 1.400 . S
C1627 C1628 1.351 . S
C1627 H1684 0.930 . S
C1628 C1624 1.388 . S
C1628 C1627 1.351 . S
N1629 C1604 1.329 . S
N1629 Co1613 1.955 . S
N1629 C1623 1.432 . S
N1630 Co1613 1.958 . S
N1630 C1614 1.324 . S
N1630 C1616 1.427 . S
N1631 Co1613 1.953 . S
N1631 C1632 1.436 . S
N1631 C1658 1.316 . S
C1632 N1631 1.436 . S
C1632 C1633 1.421 . S
C1632 C1634 1.360 . S
C1633 C1632 1.421 . S
C1633 C1635 1.379 . S
C1633 H1636 0.929 . S
C1634 C1632 1.360 . S
C1634 C1638 1.393 . S
C1634 H1640 0.931 . S
C1635 C1633 1.379 . S
C1635 C1637 1.417 . S
C1635 C1639 1.505 . S
H1636 C1633 0.929 . S
C1637 C1635 1.417 . S
C1637 C1638 1.352 . S
C1637 H1641 0.929 . S
C1638 C1634 1.393 . S
C1638 C1637 1.352 . S
C1638 C1642 1.482 . S
C1639 C1635 1.505 . S
C1639 O1643 1.259 . S
C1639 O1644 1.229 . S
H1640 C1634 0.931 . S
H1641 C1637 0.929 . S
C1642 C1638 1.482 . S
C1642 O1645 1.207 . S
C1642 O1646 1.289 . S
O1643 C1639 1.259 . S
O1643 H1647 0.822 . S
O1644 C1639 1.229 . S
O1645 C1642 1.207 . S
O1646 C1642 1.289 . S
O1646 H1648 0.819 . S
H1647 O1643 0.822 . S
H1648 O1646 0.819 . S
N1649 Co1613 1.869 . S
N1649 C1650 1.330 . S
N1649 C1654 1.325 . S
C1650 N1649 1.330 . S
C1650 C1651 1.359 . S
C1650 C1656 1.504 . S
C1651 C1650 1.359 . S
C1651 C1652 1.366 . S
C1651 H1685 0.929 . S
C1652 C1651 1.366 . S
C1652 C1653 1.415 . S
C1652 H1686 0.932 . S
C1653 C1652 1.415 . S
C1653 C1654 1.366 . S
C1653 H1687 0.931 . S
C1654 N1649 1.325 . S
C1654 C1653 1.366 . S
C1654 C1658 1.516 . S
N1655 Co1613 1.974 . S
N1655 C1656 1.309 . S
N1655 C1661 1.423 . S
C1656 C1650 1.504 . S
C1656 N1655 1.309 . S
C1656 O1657 1.258 . S
O1657 C1656 1.258 . S
C1658 N1631 1.316 . S
C1658 C1654 1.516 . S
C1658 O1671 1.263 . S
O1659 Cd1602 2.350 . S
O1659 C1675 1.270 . S
O1660 Cd1602 2.277 . S
O1660 C1675 1.248 . S
C1661 N1655 1.423 . S
C1661 C1662 1.370 . S
C1661 C1666 1.403 . S
C1662 C1661 1.370 . S
C1662 C1663 1.389 . S
C1662 H1688 0.931 . S
C1663 C1662 1.389 . S
C1663 C1664 1.389 . S
C1664 C1663 1.389 . S
C1664 C1665 1.379 . S
C1664 H1689 0.929 . S
C1665 C1664 1.379 . S
C1665 C1666 1.405 . S
C1666 C1661 1.403 . S
C1666 C1665 1.405 . S
C1666 H1690 0.932 . S
O1667 Cd1602 2.173 . S
O1667 C1603 1.277 . S
O1668 C1603 1.230 . S
O1668 Cd1606 2.250 . S
O1669 Cd1602 2.263 . S
O1669 C1622 1.258 . S
O1670 Cd1606 2.308 . S
O1670 C1622 1.274 . S
O1671 Cd1602 2.366 . S
O1671 C1658 1.263 . S
C1672 O1673 1.235 . S
C1672 O1674 1.270 . S
O1673 Cd1606 2.352 . S
O1673 C1672 1.235 . S
O1674 Cd1602 2.329 . S
O1674 C1672 1.270 . S
C1675 O1659 1.270 . S
C1675 O1660 1.248 . S
H1676 C1608 0.930 . S
H1677 C1611 0.930 . S
H1678 C1612 0.931 . S
H1679 C1617 0.929 . S
H1680 C1619 0.930 . S
H1681 C1621 0.930 . S
H1682 C1624 0.929 . S
H1683 C1625 0.932 . S
H1684 C1627 0.930 . S
H1685 C1651 0.929 . S
H1686 C1652 0.932 . S
H1687 C1653 0.931 . S
H1688 C1662 0.931 . S
H1689 C1664 0.929 . S
H1690 C1666 0.932 . S
Cd1691 O1748 2.350 . S
Cd1691 O1749 2.277 . S
Cd1691 O1756 2.173 . S
Cd1691 O1758 2.263 . S
Cd1691 O1760 2.366 . S
Cd1691 O1763 2.329 . S
C1692 O1756 1.277 . S
C1692 O1757 1.230 . S
C1693 O1694 1.246 . S
C1693 C1696 1.481 . S
C1693 N1718 1.329 . S
O1694 C1693 1.246 . S
Cd1695 O1757 2.250 . S
Cd1695 O1759 2.308 . S
Cd1695 O1762 2.352 . S
C1696 C1693 1.481 . S
C1696 N1699 1.327 . S
C1696 C1700 1.407 . S
C1697 C1698 1.346 . S
C1697 C1701 1.390 . S
C1697 H1765 0.930 . S
C1698 C1697 1.346 . S
C1698 N1699 1.342 . S
C1698 C1703 1.516 . S
N1699 C1696 1.327 . S
N1699 C1698 1.342 . S
N1699 Co1702 1.864 . S
C1700 C1696 1.407 . S
C1700 C1701 1.364 . S
C1700 H1766 0.930 . S
C1701 C1697 1.390 . S
C1701 C1700 1.364 . S
C1701 H1767 0.931 . S
Co1702 N1699 1.864 . S
Co1702 N1718 1.955 . S
Co1702 N1719 1.958 . S
Co1702 N1720 1.953 . S
Co1702 N1738 1.869 . S
Co1702 N1744 1.974 . S
C1703 C1698 1.516 . S
C1703 O1704 1.238 . S
C1703 N1719 1.324 . S
O1704 C1703 1.238 . S
C1705 C1706 1.394 . S
C1705 C1710 1.395 . S
C1705 N1719 1.427 . S
C1706 C1705 1.394 . S
C1706 C1707 1.380 . S
C1706 H1768 0.929 . S
C1707 C1706 1.380 . S
C1707 C1708 1.384 . S
C1707 C1711 1.495 . S
C1708 C1707 1.384 . S
C1708 C1709 1.382 . S
C1708 H1769 0.930 . S
C1709 C1708 1.382 . S
C1709 C1710 1.398 . S
C1710 C1705 1.395 . S
C1710 C1709 1.398 . S
C1710 H1770 0.930 . S
C1711 C1707 1.495 . S
C1711 O1758 1.258 . S
C1711 O1759 1.274 . S
C1712 C1713 1.385 . S
C1712 C1714 1.381 . S
C1712 N1718 1.432 . S
C1713 C1712 1.385 . S
C1713 C1717 1.388 . S
C1713 H1771 0.929 . S
C1714 C1712 1.381 . S
C1714 C1715 1.371 . S
C1714 H1772 0.932 . S
C1715 C1714 1.371 . S
C1715 C1716 1.400 . S
C1716 C1715 1.400 . S
C1716 C1717 1.351 . S
C1716 H1773 0.930 . S
C1717 C1713 1.388 . S
C1717 C1716 1.351 . S
N1718 C1693 1.329 . S
N1718 Co1702 1.955 . S
N1718 C1712 1.432 . S
N1719 Co1702 1.958 . S
N1719 C1703 1.324 . S
N1719 C1705 1.427 . S
N1720 Co1702 1.953 . S
N1720 C1721 1.436 . S
N1720 C1747 1.316 . S
C1721 N1720 1.436 . S
C1721 C1722 1.421 . S
C1721 C1723 1.360 . S
C1722 C1721 1.421 . S
C1722 C1724 1.379 . S
C1722 H1725 0.929 . S
C1723 C1721 1.360 . S
C1723 C1727 1.393 . S
C1723 H1729 0.931 . S
C1724 C1722 1.379 . S
C1724 C1726 1.417 . S
C1724 C1728 1.505 . S
H1725 C1722 0.929 . S
C1726 C1724 1.417 . S
C1726 C1727 1.352 . S
C1726 H1730 0.929 . S
C1727 C1723 1.393 . S
C1727 C1726 1.352 . S
C1727 C1731 1.482 . S
C1728 C1724 1.505 . S
C1728 O1732 1.259 . S
C1728 O1733 1.229 . S
H1729 C1723 0.931 . S
H1730 C1726 0.929 . S
C1731 C1727 1.482 . S
C1731 O1734 1.207 . S
C1731 O1735 1.289 . S
O1732 C1728 1.259 . S
O1732 H1736 0.822 . S
O1733 C1728 1.229 . S
O1734 C1731 1.207 . S
O1735 C1731 1.289 . S
O1735 H1737 0.819 . S
H1736 O1732 0.822 . S
H1737 O1735 0.819 . S
N1738 Co1702 1.869 . S
N1738 C1739 1.330 . S
N1738 C1743 1.325 . S
C1739 N1738 1.330 . S
C1739 C1740 1.359 . S
C1739 C1745 1.504 . S
C1740 C1739 1.359 . S
C1740 C1741 1.366 . S
C1740 H1774 0.929 . S
C1741 C1740 1.366 . S
C1741 C1742 1.415 . S
C1741 H1775 0.932 . S
C1742 C1741 1.415 . S
C1742 C1743 1.366 . S
C1742 H1776 0.931 . S
C1743 N1738 1.325 . S
C1743 C1742 1.366 . S
C1743 C1747 1.516 . S
N1744 Co1702 1.974 . S
N1744 C1745 1.309 . S
N1744 C1750 1.423 . S
C1745 C1739 1.504 . S
C1745 N1744 1.309 . S
C1745 O1746 1.258 . S
O1746 C1745 1.258 . S
C1747 N1720 1.316 . S
C1747 C1743 1.516 . S
C1747 O1760 1.263 . S
O1748 Cd1691 2.350 . S
O1748 C1764 1.270 . S
O1749 Cd1691 2.277 . S
O1749 C1764 1.248 . S
C1750 N1744 1.423 . S
C1750 C1751 1.370 . S
C1750 C1755 1.403 . S
C1751 C1750 1.370 . S
C1751 C1752 1.389 . S
C1751 H1777 0.931 . S
C1752 C1751 1.389 . S
C1752 C1753 1.389 . S
C1753 C1752 1.389 . S
C1753 C1754 1.379 . S
C1753 H1778 0.929 . S
C1754 C1753 1.379 . S
C1754 C1755 1.405 . S
C1755 C1750 1.403 . S
C1755 C1754 1.405 . S
C1755 H1779 0.932 . S
O1756 Cd1691 2.173 . S
O1756 C1692 1.277 . S
O1757 C1692 1.230 . S
O1757 Cd1695 2.250 . S
O1758 Cd1691 2.263 . S
O1758 C1711 1.258 . S
O1759 Cd1695 2.308 . S
O1759 C1711 1.274 . S
O1760 Cd1691 2.366 . S
O1760 C1747 1.263 . S
C1761 O1762 1.235 . S
C1761 O1763 1.270 . S
O1762 Cd1695 2.352 . S
O1762 C1761 1.235 . S
O1763 Cd1691 2.329 . S
O1763 C1761 1.270 . S
C1764 O1748 1.270 . S
C1764 O1749 1.248 . S
H1765 C1697 0.930 . S
H1766 C1700 0.930 . S
H1767 C1701 0.931 . S
H1768 C1706 0.929 . S
H1769 C1708 0.930 . S
H1770 C1710 0.930 . S
H1771 C1713 0.929 . S
H1772 C1714 0.932 . S
H1773 C1716 0.930 . S
H1774 C1740 0.929 . S
H1775 C1741 0.932 . S
H1776 C1742 0.931 . S
H1777 C1751 0.931 . S
H1778 C1753 0.929 . S
H1779 C1755 0.932 . S
Cd1780 O1837 2.350 . S
Cd1780 O1838 2.277 . S
Cd1780 O1845 2.173 . S
Cd1780 O1847 2.263 . S
Cd1780 O1849 2.366 . S
Cd1780 O1852 2.329 . S
C1781 O1845 1.277 . S
C1781 O1846 1.230 . S
C1782 O1783 1.246 . S
C1782 C1785 1.481 . S
C1782 N1807 1.329 . S
O1783 C1782 1.246 . S
Cd1784 O1846 2.250 . S
Cd1784 O1848 2.308 . S
Cd1784 O1851 2.352 . S
C1785 C1782 1.481 . S
C1785 N1788 1.327 . S
C1785 C1789 1.407 . S
C1786 C1787 1.346 . S
C1786 C1790 1.390 . S
C1786 H1854 0.930 . S
C1787 C1786 1.346 . S
C1787 N1788 1.342 . S
C1787 C1792 1.516 . S
N1788 C1785 1.327 . S
N1788 C1787 1.342 . S
N1788 Co1791 1.864 . S
C1789 C1785 1.407 . S
C1789 C1790 1.364 . S
C1789 H1855 0.930 . S
C1790 C1786 1.390 . S
C1790 C1789 1.364 . S
C1790 H1856 0.931 . S
Co1791 N1788 1.864 . S
Co1791 N1807 1.955 . S
Co1791 N1808 1.958 . S
Co1791 N1809 1.953 . S
Co1791 N1827 1.869 . S
Co1791 N1833 1.974 . S
C1792 C1787 1.516 . S
C1792 O1793 1.238 . S
C1792 N1808 1.324 . S
O1793 C1792 1.238 . S
C1794 C1795 1.394 . S
C1794 C1799 1.395 . S
C1794 N1808 1.427 . S
C1795 C1794 1.394 . S
C1795 C1796 1.380 . S
C1795 H1857 0.929 . S
C1796 C1795 1.380 . S
C1796 C1797 1.384 . S
C1796 C1800 1.495 . S
C1797 C1796 1.384 . S
C1797 C1798 1.382 . S
C1797 H1858 0.930 . S
C1798 C1797 1.382 . S
C1798 C1799 1.398 . S
C1799 C1794 1.395 . S
C1799 C1798 1.398 . S
C1799 H1859 0.930 . S
C1800 C1796 1.495 . S
C1800 O1847 1.258 . S
C1800 O1848 1.274 . S
C1801 C1802 1.385 . S
C1801 C1803 1.381 . S
C1801 N1807 1.432 . S
C1802 C1801 1.385 . S
C1802 C1806 1.388 . S
C1802 H1860 0.929 . S
C1803 C1801 1.381 . S
C1803 C1804 1.371 . S
C1803 H1861 0.932 . S
C1804 C1803 1.371 . S
C1804 C1805 1.400 . S
C1805 C1804 1.400 . S
C1805 C1806 1.351 . S
C1805 H1862 0.930 . S
C1806 C1802 1.388 . S
C1806 C1805 1.351 . S
N1807 C1782 1.329 . S
N1807 Co1791 1.955 . S
N1807 C1801 1.432 . S
N1808 Co1791 1.958 . S
N1808 C1792 1.324 . S
N1808 C1794 1.427 . S
N1809 Co1791 1.953 . S
N1809 C1810 1.436 . S
N1809 C1836 1.316 . S
C1810 N1809 1.436 . S
C1810 C1811 1.421 . S
C1810 C1812 1.360 . S
C1811 C1810 1.421 . S
C1811 C1813 1.379 . S
C1811 H1814 0.929 . S
C1812 C1810 1.360 . S
C1812 C1816 1.393 . S
C1812 H1818 0.931 . S
C1813 C1811 1.379 . S
C1813 C1815 1.417 . S
C1813 C1817 1.505 . S
H1814 C1811 0.929 . S
C1815 C1813 1.417 . S
C1815 C1816 1.352 . S
C1815 H1819 0.929 . S
C1816 C1812 1.393 . S
C1816 C1815 1.352 . S
C1816 C1820 1.482 . S
C1817 C1813 1.505 . S
C1817 O1821 1.259 . S
C1817 O1822 1.229 . S
H1818 C1812 0.931 . S
H1819 C1815 0.929 . S
C1820 C1816 1.482 . S
C1820 O1823 1.207 . S
C1820 O1824 1.289 . S
O1821 C1817 1.259 . S
O1821 H1825 0.822 . S
O1822 C1817 1.229 . S
O1823 C1820 1.207 . S
O1824 C1820 1.289 . S
O1824 H1826 0.819 . S
H1825 O1821 0.822 . S
H1826 O1824 0.819 . S
N1827 Co1791 1.869 . S
N1827 C1828 1.330 . S
N1827 C1832 1.325 . S
C1828 N1827 1.330 . S
C1828 C1829 1.359 . S
C1828 C1834 1.504 . S
C1829 C1828 1.359 . S
C1829 C1830 1.366 . S
C1829 H1863 0.929 . S
C1830 C1829 1.366 . S
C1830 C1831 1.415 . S
C1830 H1864 0.932 . S
C1831 C1830 1.415 . S
C1831 C1832 1.366 . S
C1831 H1865 0.931 . S
C1832 N1827 1.325 . S
C1832 C1831 1.366 . S
C1832 C1836 1.516 . S
N1833 Co1791 1.974 . S
N1833 C1834 1.309 . S
N1833 C1839 1.423 . S
C1834 C1828 1.504 . S
C1834 N1833 1.309 . S
C1834 O1835 1.258 . S
O1835 C1834 1.258 . S
C1836 N1809 1.316 . S
C1836 C1832 1.516 . S
C1836 O1849 1.263 . S
O1837 Cd1780 2.350 . S
O1837 C1853 1.270 . S
O1838 Cd1780 2.277 . S
O1838 C1853 1.248 . S
C1839 N1833 1.423 . S
C1839 C1840 1.370 . S
C1839 C1844 1.403 . S
C1840 C1839 1.370 . S
C1840 C1841 1.389 . S
C1840 H1866 0.931 . S
C1841 C1840 1.389 . S
C1841 C1842 1.389 . S
C1842 C1841 1.389 . S
C1842 C1843 1.379 . S
C1842 H1867 0.929 . S
C1843 C1842 1.379 . S
C1843 C1844 1.405 . S
C1844 C1839 1.403 . S
C1844 C1843 1.405 . S
C1844 H1868 0.932 . S
O1845 Cd1780 2.173 . S
O1845 C1781 1.277 . S
O1846 C1781 1.230 . S
O1846 Cd1784 2.250 . S
O1847 Cd1780 2.263 . S
O1847 C1800 1.258 . S
O1848 Cd1784 2.308 . S
O1848 C1800 1.274 . S
O1849 Cd1780 2.366 . S
O1849 C1836 1.263 . S
C1850 O1851 1.235 . S
C1850 O1852 1.270 . S
O1851 Cd1784 2.352 . S
O1851 C1850 1.235 . S
O1852 Cd1780 2.329 . S
O1852 C1850 1.270 . S
C1853 O1837 1.270 . S
C1853 O1838 1.248 . S
H1854 C1786 0.930 . S
H1855 C1789 0.930 . S
H1856 C1790 0.931 . S
H1857 C1795 0.929 . S
H1858 C1797 0.930 . S
H1859 C1799 0.930 . S
H1860 C1802 0.929 . S
H1861 C1803 0.932 . S
H1862 C1805 0.930 . S
H1863 C1829 0.929 . S
H1864 C1830 0.932 . S
H1865 C1831 0.931 . S
H1866 C1840 0.931 . S
H1867 C1842 0.929 . S
H1868 C1844 0.932 . S
Cd1869 O1926 2.350 . S
Cd1869 O1927 2.277 . S
Cd1869 O1934 2.173 . S
Cd1869 O1936 2.263 . S
Cd1869 O1938 2.366 . S
Cd1869 O1941 2.329 . S
C1870 O1934 1.277 . S
C1870 O1935 1.230 . S
C1871 O1872 1.246 . S
C1871 C1874 1.481 . S
C1871 N1896 1.329 . S
O1872 C1871 1.246 . S
Cd1873 O1935 2.250 . S
Cd1873 O1937 2.308 . S
Cd1873 O1940 2.352 . S
C1874 C1871 1.481 . S
C1874 N1877 1.327 . S
C1874 C1878 1.407 1_556 S
C1875 C1876 1.346 1_554 S
C1875 C1879 1.390 . S
C1875 H1943 0.930 . S
C1876 C1875 1.346 1_556 S
C1876 N1877 1.342 . S
C1876 C1881 1.516 . S
N1877 C1874 1.327 . S
N1877 C1876 1.342 . S
N1877 Co1880 1.864 . S
C1878 C1874 1.407 1_554 S
C1878 C1879 1.364 . S
C1878 H1944 0.930 . S
C1879 C1875 1.390 . S
C1879 C1878 1.364 . S
C1879 H1945 0.931 . S
Co1880 N1877 1.864 . S
Co1880 N1896 1.955 . S
Co1880 N1897 1.958 . S
Co1880 N1898 1.953 . S
Co1880 N1916 1.869 . S
Co1880 N1922 1.974 . S
C1881 C1876 1.516 . S
C1881 O1882 1.232 1_556 S
C1881 N1897 1.324 . S
O1882 C1881 1.232 1_554 S
C1883 C1884 1.394 . S
C1883 C1888 1.395 . S
C1883 N1897 1.427 . S
C1884 C1883 1.394 . S
C1884 C1885 1.380 . S
C1884 H1946 0.929 . S
C1885 C1884 1.380 . S
C1885 C1886 1.384 . S
C1885 C1889 1.495 . S
C1886 C1885 1.384 . S
C1886 C1887 1.382 . S
C1886 H1947 0.930 . S
C1887 C1886 1.382 . S
C1887 C1888 1.398 . S
C1888 C1883 1.395 . S
C1888 C1887 1.398 . S
C1888 H1948 0.930 . S
C1889 C1885 1.495 . S
C1889 O1936 1.258 . S
C1889 O1937 1.274 . S
C1890 C1891 1.385 . S
C1890 C1892 1.381 . S
C1890 N1896 1.432 . S
C1891 C1890 1.385 . S
C1891 C1895 1.388 . S
C1891 H1949 0.929 . S
C1892 C1890 1.381 . S
C1892 C1893 1.371 . S
C1892 H1950 0.932 . S
C1893 C1892 1.371 . S
C1893 C1894 1.400 . S
C1894 C1893 1.400 . S
C1894 C1895 1.351 . S
C1894 H1951 0.930 . S
C1895 C1891 1.388 . S
C1895 C1894 1.351 . S
N1896 C1871 1.329 . S
N1896 Co1880 1.955 . S
N1896 C1890 1.432 . S
N1897 Co1880 1.958 . S
N1897 C1881 1.324 . S
N1897 C1883 1.427 . S
N1898 Co1880 1.953 . S
N1898 C1899 1.436 . S
N1898 C1925 1.316 . S
C1899 N1898 1.436 . S
C1899 C1900 1.421 . S
C1899 C1901 1.360 . S
C1900 C1899 1.421 . S
C1900 C1902 1.379 . S
C1900 H1903 0.929 . S
C1901 C1899 1.360 . S
C1901 C1905 1.393 . S
C1901 H1907 0.931 . S
C1902 C1900 1.379 . S
C1902 C1904 1.417 . S
C1902 C1906 1.505 . S
H1903 C1900 0.929 . S
C1904 C1902 1.417 . S
C1904 C1905 1.352 . S
C1904 H1908 0.929 . S
C1905 C1901 1.393 . S
C1905 C1904 1.352 . S
C1905 C1909 1.482 . S
C1906 C1902 1.505 . S
C1906 O1910 1.259 . S
C1906 O1911 1.229 . S
H1907 C1901 0.931 . S
H1908 C1904 0.929 . S
C1909 C1905 1.482 . S
C1909 O1912 1.207 . S
C1909 O1913 1.289 . S
O1910 C1906 1.259 . S
O1910 H1914 0.822 . S
O1911 C1906 1.229 . S
O1912 C1909 1.207 . S
O1913 C1909 1.289 . S
O1913 H1915 0.819 . S
H1914 O1910 0.822 . S
H1915 O1913 0.819 . S
N1916 Co1880 1.869 . S
N1916 C1917 1.330 . S
N1916 C1921 1.325 . S
C1917 N1916 1.330 . S
C1917 C1918 1.359 . S
C1917 C1923 1.504 . S
C1918 C1917 1.359 . S
C1918 C1919 1.366 . S
C1918 H1952 0.929 . S
C1919 C1918 1.366 . S
C1919 C1920 1.415 . S
C1919 H1953 0.932 . S
C1920 C1919 1.415 . S
C1920 C1921 1.366 . S
C1920 H1954 0.931 . S
C1921 N1916 1.325 . S
C1921 C1920 1.366 . S
C1921 C1925 1.516 . S
N1922 Co1880 1.974 . S
N1922 C1923 1.309 . S
N1922 C1928 1.423 1_556 S
C1923 C1917 1.504 . S
C1923 N1922 1.309 . S
C1923 O1924 1.258 . S
O1924 C1923 1.258 . S
C1925 N1898 1.316 . S
C1925 C1921 1.516 . S
C1925 O1938 1.263 . S
O1926 Cd1869 2.350 . S
O1926 C1942 1.270 . S
O1927 Cd1869 2.277 . S
O1927 C1942 1.248 . S
C1928 N1922 1.423 1_554 S
C1928 C1929 1.370 . S
C1928 C1933 1.403 . S
C1929 C1928 1.370 . S
C1929 C1930 1.389 . S
C1929 H1955 0.931 . S
C1930 C1929 1.389 . S
C1930 C1931 1.389 . S
C1931 C1930 1.389 . S
C1931 C1932 1.379 . S
C1931 H1956 0.929 . S
C1932 C1931 1.379 . S
C1932 C1933 1.405 . S
C1933 C1928 1.403 . S
C1933 C1932 1.405 . S
C1933 H1957 0.932 . S
O1934 Cd1869 2.173 . S
O1934 C1870 1.277 . S
O1935 C1870 1.230 . S
O1935 Cd1873 2.250 . S
O1936 Cd1869 2.263 . S
O1936 C1889 1.258 . S
O1937 Cd1873 2.308 . S
O1937 C1889 1.274 . S
O1938 Cd1869 2.366 . S
O1938 C1925 1.263 . S
C1939 O1940 1.235 . S
C1939 O1941 1.270 . S
O1940 Cd1873 2.352 . S
O1940 C1939 1.235 . S
O1941 Cd1869 2.329 . S
O1941 C1939 1.270 . S
C1942 O1926 1.270 . S
C1942 O1927 1.248 . S
H1943 C1875 0.930 . S
H1944 C1878 0.930 . S
H1945 C1879 0.931 . S
H1946 C1884 0.929 . S
H1947 C1886 0.930 . S
H1948 C1888 0.930 . S
H1949 C1891 0.929 . S
H1950 C1892 0.932 . S
H1951 C1894 0.930 . S
H1952 C1918 0.929 . S
H1953 C1919 0.932 . S
H1954 C1920 0.931 . S
H1955 C1929 0.931 . S
H1956 C1931 0.929 . S
H1957 C1933 0.932 . S
Cd1958 O2015 2.350 . S
Cd1958 O2016 2.277 . S
Cd1958 O2023 2.173 . S
Cd1958 O2025 2.263 . S
Cd1958 O2027 2.366 . S
Cd1958 O2030 2.329 . S
C1959 O2023 1.277 . S
C1959 O2024 1.230 . S
C1960 O1961 1.246 . S
C1960 C1963 1.481 . S
C1960 N1985 1.329 . S
O1961 C1960 1.246 . S
Cd1962 O2024 2.250 . S
Cd1962 O2026 2.308 . S
Cd1962 O2029 2.352 . S
C1963 C1960 1.481 . S
C1963 N1966 1.327 . S
C1963 C1967 1.407 1_556 S
C1964 C1965 1.346 1_554 S
C1964 C1968 1.390 . S
C1964 H2032 0.930 . S
C1965 C1964 1.346 1_556 S
C1965 N1966 1.342 . S
C1965 C1970 1.516 . S
N1966 C1963 1.327 . S
N1966 C1965 1.342 . S
N1966 Co1969 1.864 . S
C1967 C1963 1.407 1_554 S
C1967 C1968 1.364 . S
C1967 H2033 0.930 . S
C1968 C1964 1.390 . S
C1968 C1967 1.364 . S
C1968 H2034 0.931 . S
Co1969 N1966 1.864 . S
Co1969 N1985 1.955 . S
Co1969 N1986 1.958 . S
Co1969 N1987 1.953 . S
Co1969 N2005 1.869 . S
Co1969 N2011 1.974 . S
C1970 C1965 1.516 . S
C1970 O1971 1.232 1_556 S
C1970 N1986 1.324 . S
O1971 C1970 1.232 1_554 S
C1972 C1973 1.394 . S
C1972 C1977 1.395 . S
C1972 N1986 1.427 . S
C1973 C1972 1.394 . S
C1973 C1974 1.380 . S
C1973 H2035 0.929 . S
C1974 C1973 1.380 . S
C1974 C1975 1.384 . S
C1974 C1978 1.495 . S
C1975 C1974 1.384 . S
C1975 C1976 1.382 . S
C1975 H2036 0.930 . S
C1976 C1975 1.382 . S
C1976 C1977 1.398 . S
C1977 C1972 1.395 . S
C1977 C1976 1.398 . S
C1977 H2037 0.930 . S
C1978 C1974 1.495 . S
C1978 O2025 1.258 . S
C1978 O2026 1.274 . S
C1979 C1980 1.385 . S
C1979 C1981 1.381 . S
C1979 N1985 1.432 . S
C1980 C1979 1.385 . S
C1980 C1984 1.388 . S
C1980 H2038 0.929 . S
C1981 C1979 1.381 . S
C1981 C1982 1.371 . S
C1981 H2039 0.932 . S
C1982 C1981 1.371 . S
C1982 C1983 1.400 . S
C1983 C1982 1.400 . S
C1983 C1984 1.351 . S
C1983 H2040 0.930 . S
C1984 C1980 1.388 . S
C1984 C1983 1.351 . S
N1985 C1960 1.329 . S
N1985 Co1969 1.955 . S
N1985 C1979 1.432 . S
N1986 Co1969 1.958 . S
N1986 C1970 1.324 . S
N1986 C1972 1.427 . S
N1987 Co1969 1.953 . S
N1987 C1988 1.436 . S
N1987 C2014 1.316 . S
C1988 N1987 1.436 . S
C1988 C1989 1.421 . S
C1988 C1990 1.360 . S
C1989 C1988 1.421 . S
C1989 C1991 1.379 . S
C1989 H1992 0.929 . S
C1990 C1988 1.360 . S
C1990 C1994 1.393 . S
C1990 H1996 0.931 . S
C1991 C1989 1.379 . S
C1991 C1993 1.417 . S
C1991 C1995 1.505 . S
H1992 C1989 0.929 . S
C1993 C1991 1.417 . S
C1993 C1994 1.352 . S
C1993 H1997 0.929 . S
C1994 C1990 1.393 . S
C1994 C1993 1.352 . S
C1994 C1998 1.482 . S
C1995 C1991 1.505 . S
C1995 O1999 1.259 . S
C1995 O2000 1.229 . S
H1996 C1990 0.931 . S
H1997 C1993 0.929 . S
C1998 C1994 1.482 . S
C1998 O2001 1.207 . S
C1998 O2002 1.289 . S
O1999 C1995 1.259 . S
O1999 H2003 0.822 . S
O2000 C1995 1.229 . S
O2001 C1998 1.207 . S
O2002 C1998 1.289 . S
O2002 H2004 0.819 . S
H2003 O1999 0.822 . S
H2004 O2002 0.819 . S
N2005 Co1969 1.869 . S
N2005 C2006 1.330 . S
N2005 C2010 1.325 . S
C2006 N2005 1.330 . S
C2006 C2007 1.359 . S
C2006 C2012 1.504 . S
C2007 C2006 1.359 . S
C2007 C2008 1.366 . S
C2007 H2041 0.929 . S
C2008 C2007 1.366 . S
C2008 C2009 1.415 . S
C2008 H2042 0.932 . S
C2009 C2008 1.415 . S
C2009 C2010 1.366 . S
C2009 H2043 0.931 . S
C2010 N2005 1.325 . S
C2010 C2009 1.366 . S
C2010 C2014 1.516 . S
N2011 Co1969 1.974 . S
N2011 C2012 1.309 . S
N2011 C2017 1.423 1_556 S
C2012 C2006 1.504 . S
C2012 N2011 1.309 . S
C2012 O2013 1.258 . S
O2013 C2012 1.258 . S
C2014 N1987 1.316 . S
C2014 C2010 1.516 . S
C2014 O2027 1.263 . S
O2015 Cd1958 2.350 . S
O2015 C2031 1.270 . S
O2016 Cd1958 2.277 . S
O2016 C2031 1.248 . S
C2017 N2011 1.423 1_554 S
C2017 C2018 1.370 . S
C2017 C2022 1.403 . S
C2018 C2017 1.370 . S
C2018 C2019 1.389 . S
C2018 H2044 0.931 . S
C2019 C2018 1.389 . S
C2019 C2020 1.389 . S
C2020 C2019 1.389 . S
C2020 C2021 1.379 . S
C2020 H2045 0.929 . S
C2021 C2020 1.379 . S
C2021 C2022 1.405 . S
C2022 C2017 1.403 . S
C2022 C2021 1.405 . S
C2022 H2046 0.932 . S
O2023 Cd1958 2.173 . S
O2023 C1959 1.277 . S
O2024 C1959 1.230 . S
O2024 Cd1962 2.250 . S
O2025 Cd1958 2.263 . S
O2025 C1978 1.258 . S
O2026 Cd1962 2.308 . S
O2026 C1978 1.274 . S
O2027 Cd1958 2.366 . S
O2027 C2014 1.263 . S
C2028 O2029 1.235 . S
C2028 O2030 1.270 . S
O2029 Cd1962 2.352 . S
O2029 C2028 1.235 . S
O2030 Cd1958 2.329 . S
O2030 C2028 1.270 . S
C2031 O2015 1.270 . S
C2031 O2016 1.248 . S
H2032 C1964 0.930 . S
H2033 C1967 0.930 . S
H2034 C1968 0.931 . S
H2035 C1973 0.929 . S
H2036 C1975 0.930 . S
H2037 C1977 0.930 . S
H2038 C1980 0.929 . S
H2039 C1981 0.932 . S
H2040 C1983 0.930 . S
H2041 C2007 0.929 . S
H2042 C2008 0.932 . S
H2043 C2009 0.931 . S
H2044 C2018 0.931 . S
H2045 C2020 0.929 . S
H2046 C2022 0.932 . S
Cd2047 O2104 2.350 . S
Cd2047 O2105 2.277 . S
Cd2047 O2112 2.173 . S
Cd2047 O2114 2.263 . S
Cd2047 O2116 2.366 . S
Cd2047 O2119 2.329 . S
C2048 O2112 1.277 . S
C2048 O2113 1.230 . S
C2049 O2050 1.246 . S
C2049 C2052 1.481 . S
C2049 N2074 1.329 . S
O2050 C2049 1.246 . S
Cd2051 O2113 2.250 . S
Cd2051 O2115 2.308 . S
Cd2051 O2118 2.352 . S
C2052 C2049 1.481 . S
C2052 N2055 1.327 . S
C2052 C2056 1.407 1_556 S
C2053 C2054 1.346 1_554 S
C2053 C2057 1.390 . S
C2053 H2121 0.930 . S
C2054 C2053 1.346 1_556 S
C2054 N2055 1.342 . S
C2054 C2059 1.516 . S
N2055 C2052 1.327 . S
N2055 C2054 1.342 . S
N2055 Co2058 1.864 . S
C2056 C2052 1.407 1_554 S
C2056 C2057 1.364 . S
C2056 H2122 0.930 . S
C2057 C2053 1.390 . S
C2057 C2056 1.364 . S
C2057 H2123 0.931 . S
Co2058 N2055 1.864 . S
Co2058 N2074 1.955 . S
Co2058 N2075 1.958 . S
Co2058 N2076 1.953 . S
Co2058 N2094 1.869 . S
Co2058 N2100 1.974 . S
C2059 C2054 1.516 . S
C2059 O2060 1.232 1_556 S
C2059 N2075 1.324 . S
O2060 C2059 1.232 1_554 S
C2061 C2062 1.394 . S
C2061 C2066 1.395 . S
C2061 N2075 1.427 . S
C2062 C2061 1.394 . S
C2062 C2063 1.380 . S
C2062 H2124 0.929 . S
C2063 C2062 1.380 . S
C2063 C2064 1.384 . S
C2063 C2067 1.495 . S
C2064 C2063 1.384 . S
C2064 C2065 1.382 . S
C2064 H2125 0.930 . S
C2065 C2064 1.382 . S
C2065 C2066 1.398 . S
C2066 C2061 1.395 . S
C2066 C2065 1.398 . S
C2066 H2126 0.930 . S
C2067 C2063 1.495 . S
C2067 O2114 1.258 . S
C2067 O2115 1.274 . S
C2068 C2069 1.385 . S
C2068 C2070 1.381 . S
C2068 N2074 1.432 . S
C2069 C2068 1.385 . S
C2069 C2073 1.388 . S
C2069 H2127 0.929 . S
C2070 C2068 1.381 . S
C2070 C2071 1.371 . S
C2070 H2128 0.932 . S
C2071 C2070 1.371 . S
C2071 C2072 1.400 . S
C2072 C2071 1.400 . S
C2072 C2073 1.351 . S
C2072 H2129 0.930 . S
C2073 C2069 1.388 . S
C2073 C2072 1.351 . S
N2074 C2049 1.329 . S
N2074 Co2058 1.955 . S
N2074 C2068 1.432 . S
N2075 Co2058 1.958 . S
N2075 C2059 1.324 . S
N2075 C2061 1.427 . S
N2076 Co2058 1.953 . S
N2076 C2077 1.436 . S
N2076 C2103 1.316 . S
C2077 N2076 1.436 . S
C2077 C2078 1.421 . S
C2077 C2079 1.360 . S
C2078 C2077 1.421 . S
C2078 C2080 1.379 . S
C2078 H2081 0.929 . S
C2079 C2077 1.360 . S
C2079 C2083 1.393 . S
C2079 H2085 0.931 . S
C2080 C2078 1.379 . S
C2080 C2082 1.417 . S
C2080 C2084 1.505 . S
H2081 C2078 0.929 . S
C2082 C2080 1.417 . S
C2082 C2083 1.352 . S
C2082 H2086 0.929 . S
C2083 C2079 1.393 . S
C2083 C2082 1.352 . S
C2083 C2087 1.482 . S
C2084 C2080 1.505 . S
C2084 O2088 1.259 . S
C2084 O2089 1.229 . S
H2085 C2079 0.931 . S
H2086 C2082 0.929 . S
C2087 C2083 1.482 . S
C2087 O2090 1.207 . S
C2087 O2091 1.289 . S
O2088 C2084 1.259 . S
O2088 H2092 0.822 . S
O2089 C2084 1.229 . S
O2090 C2087 1.207 . S
O2091 C2087 1.289 . S
O2091 H2093 0.819 . S
H2092 O2088 0.822 . S
H2093 O2091 0.819 . S
N2094 Co2058 1.869 . S
N2094 C2095 1.330 . S
N2094 C2099 1.325 . S
C2095 N2094 1.330 . S
C2095 C2096 1.359 . S
C2095 C2101 1.504 . S
C2096 C2095 1.359 . S
C2096 C2097 1.366 . S
C2096 H2130 0.929 . S
C2097 C2096 1.366 . S
C2097 C2098 1.415 . S
C2097 H2131 0.932 . S
C2098 C2097 1.415 . S
C2098 C2099 1.366 . S
C2098 H2132 0.931 . S
C2099 N2094 1.325 . S
C2099 C2098 1.366 . S
C2099 C2103 1.516 . S
N2100 Co2058 1.974 . S
N2100 C2101 1.309 . S
N2100 C2106 1.423 1_556 S
C2101 C2095 1.504 . S
C2101 N2100 1.309 . S
C2101 O2102 1.258 . S
O2102 C2101 1.258 . S
C2103 N2076 1.316 . S
C2103 C2099 1.516 . S
C2103 O2116 1.263 . S
O2104 Cd2047 2.350 . S
O2104 C2120 1.270 . S
O2105 Cd2047 2.277 . S
O2105 C2120 1.248 . S
C2106 N2100 1.423 1_554 S
C2106 C2107 1.370 . S
C2106 C2111 1.403 . S
C2107 C2106 1.370 . S
C2107 C2108 1.389 . S
C2107 H2133 0.931 . S
C2108 C2107 1.389 . S
C2108 C2109 1.389 . S
C2109 C2108 1.389 . S
C2109 C2110 1.379 . S
C2109 H2134 0.929 . S
C2110 C2109 1.379 . S
C2110 C2111 1.405 . S
C2111 C2106 1.403 . S
C2111 C2110 1.405 . S
C2111 H2135 0.932 . S
O2112 Cd2047 2.173 . S
O2112 C2048 1.277 . S
O2113 C2048 1.230 . S
O2113 Cd2051 2.250 . S
O2114 Cd2047 2.263 . S
O2114 C2067 1.258 . S
O2115 Cd2051 2.308 . S
O2115 C2067 1.274 . S
O2116 Cd2047 2.366 . S
O2116 C2103 1.263 . S
C2117 O2118 1.235 . S
C2117 O2119 1.270 . S
O2118 Cd2051 2.352 . S
O2118 C2117 1.235 . S
O2119 Cd2047 2.329 . S
O2119 C2117 1.270 . S
C2120 O2104 1.270 . S
C2120 O2105 1.248 . S
H2121 C2053 0.930 . S
H2122 C2056 0.930 . S
H2123 C2057 0.931 . S
H2124 C2062 0.929 . S
H2125 C2064 0.930 . S
H2126 C2066 0.930 . S
H2127 C2069 0.929 . S
H2128 C2070 0.932 . S
H2129 C2072 0.930 . S
H2130 C2096 0.929 . S
H2131 C2097 0.932 . S
H2132 C2098 0.931 . S
H2133 C2107 0.931 . S
H2134 C2109 0.929 . S
H2135 C2111 0.932 . S
Cd2136 O2193 2.350 . S
Cd2136 O2194 2.277 . S
Cd2136 O2201 2.173 . S
Cd2136 O2203 2.263 . S
Cd2136 O2205 2.366 . S
Cd2136 O2208 2.329 . S
C2137 O2201 1.277 . S
C2137 O2202 1.230 . S
C2138 O2139 1.246 . S
C2138 C2141 1.481 . S
C2138 N2163 1.329 . S
O2139 C2138 1.246 . S
Cd2140 O2202 2.250 . S
Cd2140 O2204 2.308 . S
Cd2140 O2207 2.352 . S
C2141 C2138 1.481 . S
C2141 N2144 1.327 . S
C2141 C2145 1.407 . S
C2142 C2143 1.346 . S
C2142 C2146 1.390 . S
C2142 H2210 0.930 . S
C2143 C2142 1.346 . S
C2143 N2144 1.342 . S
C2143 C2148 1.516 . S
N2144 C2141 1.327 . S
N2144 C2143 1.342 . S
N2144 Co2147 1.864 . S
C2145 C2141 1.407 . S
C2145 C2146 1.364 . S
C2145 H2211 0.930 . S
C2146 C2142 1.390 . S
C2146 C2145 1.364 . S
C2146 H2212 0.931 . S
Co2147 N2144 1.864 . S
Co2147 N2163 1.955 . S
Co2147 N2164 1.958 . S
Co2147 N2165 1.953 . S
Co2147 N2183 1.869 . S
Co2147 N2189 1.974 . S
C2148 C2143 1.516 . S
C2148 O2149 1.238 . S
C2148 N2164 1.324 . S
O2149 C2148 1.238 . S
C2150 C2151 1.394 . S
C2150 C2155 1.395 . S
C2150 N2164 1.427 . S
C2151 C2150 1.394 . S
C2151 C2152 1.380 . S
C2151 H2213 0.929 . S
C2152 C2151 1.380 . S
C2152 C2153 1.384 . S
C2152 C2156 1.495 . S
C2153 C2152 1.384 . S
C2153 C2154 1.382 . S
C2153 H2214 0.930 . S
C2154 C2153 1.382 . S
C2154 C2155 1.398 . S
C2155 C2150 1.395 . S
C2155 C2154 1.398 . S
C2155 H2215 0.930 . S
C2156 C2152 1.495 . S
C2156 O2203 1.258 . S
C2156 O2204 1.274 . S
C2157 C2158 1.385 . S
C2157 C2159 1.381 . S
C2157 N2163 1.432 . S
C2158 C2157 1.385 . S
C2158 C2162 1.388 . S
C2158 H2216 0.929 . S
C2159 C2157 1.381 . S
C2159 C2160 1.371 . S
C2159 H2217 0.932 . S
C2160 C2159 1.371 . S
C2160 C2161 1.400 . S
C2161 C2160 1.400 . S
C2161 C2162 1.351 . S
C2161 H2218 0.930 . S
C2162 C2158 1.388 . S
C2162 C2161 1.351 . S
N2163 C2138 1.329 . S
N2163 Co2147 1.955 . S
N2163 C2157 1.432 . S
N2164 Co2147 1.958 . S
N2164 C2148 1.324 . S
N2164 C2150 1.427 . S
N2165 Co2147 1.953 . S
N2165 C2166 1.436 . S
N2165 C2192 1.316 . S
C2166 N2165 1.436 . S
C2166 C2167 1.421 . S
C2166 C2168 1.360 . S
C2167 C2166 1.421 . S
C2167 C2169 1.379 . S
C2167 H2170 0.929 . S
C2168 C2166 1.360 . S
C2168 C2172 1.393 . S
C2168 H2174 0.931 . S
C2169 C2167 1.379 . S
C2169 C2171 1.417 . S
C2169 C2173 1.505 . S
H2170 C2167 0.929 . S
C2171 C2169 1.417 . S
C2171 C2172 1.352 . S
C2171 H2175 0.929 . S
C2172 C2168 1.393 . S
C2172 C2171 1.352 . S
C2172 C2176 1.482 . S
C2173 C2169 1.505 . S
C2173 O2177 1.259 . S
C2173 O2178 1.229 . S
H2174 C2168 0.931 . S
H2175 C2171 0.929 . S
C2176 C2172 1.482 . S
C2176 O2179 1.207 . S
C2176 O2180 1.289 . S
O2177 C2173 1.259 . S
O2177 H2181 0.822 . S
O2178 C2173 1.229 . S
O2179 C2176 1.207 . S
O2180 C2176 1.289 . S
O2180 H2182 0.819 . S
H2181 O2177 0.822 . S
H2182 O2180 0.819 . S
N2183 Co2147 1.869 . S
N2183 C2184 1.330 . S
N2183 C2188 1.325 . S
C2184 N2183 1.330 . S
C2184 C2185 1.359 . S
C2184 C2190 1.504 . S
C2185 C2184 1.359 . S
C2185 C2186 1.366 . S
C2185 H2219 0.929 . S
C2186 C2185 1.366 . S
C2186 C2187 1.415 . S
C2186 H2220 0.932 . S
C2187 C2186 1.415 . S
C2187 C2188 1.366 . S
C2187 H2221 0.931 . S
C2188 N2183 1.325 . S
C2188 C2187 1.366 . S
C2188 C2192 1.516 . S
N2189 Co2147 1.974 . S
N2189 C2190 1.309 . S
N2189 C2195 1.423 . S
C2190 C2184 1.504 . S
C2190 N2189 1.309 . S
C2190 O2191 1.258 . S
O2191 C2190 1.258 . S
C2192 N2165 1.316 . S
C2192 C2188 1.516 . S
C2192 O2205 1.263 . S
O2193 Cd2136 2.350 . S
O2193 C2209 1.270 . S
O2194 Cd2136 2.277 . S
O2194 C2209 1.248 . S
C2195 N2189 1.423 . S
C2195 C2196 1.370 . S
C2195 C2200 1.403 . S
C2196 C2195 1.370 . S
C2196 C2197 1.389 . S
C2196 H2222 0.931 . S
C2197 C2196 1.389 . S
C2197 C2198 1.389 . S
C2198 C2197 1.389 . S
C2198 C2199 1.379 . S
C2198 H2223 0.929 . S
C2199 C2198 1.379 . S
C2199 C2200 1.405 . S
C2200 C2195 1.403 . S
C2200 C2199 1.405 . S
C2200 H2224 0.932 . S
O2201 Cd2136 2.173 . S
O2201 C2137 1.277 . S
O2202 C2137 1.230 . S
O2202 Cd2140 2.250 . S
O2203 Cd2136 2.263 . S
O2203 C2156 1.258 . S
O2204 Cd2140 2.308 . S
O2204 C2156 1.274 . S
O2205 Cd2136 2.366 . S
O2205 C2192 1.263 . S
C2206 O2207 1.235 . S
C2206 O2208 1.270 . S
O2207 Cd2140 2.352 . S
O2207 C2206 1.235 . S
O2208 Cd2136 2.329 . S
O2208 C2206 1.270 . S
C2209 O2193 1.270 . S
C2209 O2194 1.248 . S
H2210 C2142 0.930 . S
H2211 C2145 0.930 . S
H2212 C2146 0.931 . S
H2213 C2151 0.929 . S
H2214 C2153 0.930 . S
H2215 C2155 0.930 . S
H2216 C2158 0.929 . S
H2217 C2159 0.932 . S
H2218 C2161 0.930 . S
H2219 C2185 0.929 . S
H2220 C2186 0.932 . S
H2221 C2187 0.931 . S
H2222 C2196 0.931 . S
H2223 C2198 0.929 . S
H2224 C2200 0.932 . S
Cd2225 O2282 2.350 . S
Cd2225 O2283 2.277 . S
Cd2225 O2290 2.173 . S
Cd2225 O2292 2.263 . S
Cd2225 O2294 2.366 . S
Cd2225 O2297 2.329 . S
C2226 O2290 1.277 . S
C2226 O2291 1.230 . S
C2227 O2228 1.246 . S
C2227 C2230 1.481 . S
C2227 N2252 1.329 . S
O2228 C2227 1.246 . S
Cd2229 O2291 2.250 . S
Cd2229 O2293 2.308 . S
Cd2229 O2296 2.352 . S
C2230 C2227 1.481 . S
C2230 N2233 1.327 . S
C2230 C2234 1.407 . S
C2231 C2232 1.346 . S
C2231 C2235 1.390 . S
C2231 H2299 0.930 . S
C2232 C2231 1.346 . S
C2232 N2233 1.342 . S
C2232 C2237 1.516 . S
N2233 C2230 1.327 . S
N2233 C2232 1.342 . S
N2233 Co2236 1.864 . S
C2234 C2230 1.407 . S
C2234 C2235 1.364 . S
C2234 H2300 0.930 . S
C2235 C2231 1.390 . S
C2235 C2234 1.364 . S
C2235 H2301 0.931 . S
Co2236 N2233 1.864 . S
Co2236 N2252 1.955 . S
Co2236 N2253 1.958 . S
Co2236 N2254 1.953 . S
Co2236 N2272 1.869 . S
Co2236 N2278 1.974 . S
C2237 C2232 1.516 . S
C2237 O2238 1.238 . S
C2237 N2253 1.324 . S
O2238 C2237 1.238 . S
C2239 C2240 1.394 . S
C2239 C2244 1.395 . S
C2239 N2253 1.427 . S
C2240 C2239 1.394 . S
C2240 C2241 1.380 . S
C2240 H2302 0.929 . S
C2241 C2240 1.380 . S
C2241 C2242 1.384 . S
C2241 C2245 1.495 . S
C2242 C2241 1.384 . S
C2242 C2243 1.382 . S
C2242 H2303 0.930 . S
C2243 C2242 1.382 . S
C2243 C2244 1.398 . S
C2244 C2239 1.395 . S
C2244 C2243 1.398 . S
C2244 H2304 0.930 . S
C2245 C2241 1.495 . S
C2245 O2292 1.258 . S
C2245 O2293 1.274 . S
C2246 C2247 1.385 . S
C2246 C2248 1.381 . S
C2246 N2252 1.432 . S
C2247 C2246 1.385 . S
C2247 C2251 1.388 . S
C2247 H2305 0.929 . S
C2248 C2246 1.381 . S
C2248 C2249 1.371 . S
C2248 H2306 0.932 . S
C2249 C2248 1.371 . S
C2249 C2250 1.400 . S
C2250 C2249 1.400 . S
C2250 C2251 1.351 . S
C2250 H2307 0.930 . S
C2251 C2247 1.388 . S
C2251 C2250 1.351 . S
N2252 C2227 1.329 . S
N2252 Co2236 1.955 . S
N2252 C2246 1.432 . S
N2253 Co2236 1.958 . S
N2253 C2237 1.324 . S
N2253 C2239 1.427 . S
N2254 Co2236 1.953 . S
N2254 C2255 1.436 . S
N2254 C2281 1.316 . S
C2255 N2254 1.436 . S
C2255 C2256 1.421 . S
C2255 C2257 1.360 . S
C2256 C2255 1.421 . S
C2256 C2258 1.379 . S
C2256 H2259 0.929 . S
C2257 C2255 1.360 . S
C2257 C2261 1.393 . S
C2257 H2263 0.931 . S
C2258 C2256 1.379 . S
C2258 C2260 1.417 . S
C2258 C2262 1.505 . S
H2259 C2256 0.929 . S
C2260 C2258 1.417 . S
C2260 C2261 1.352 . S
C2260 H2264 0.929 . S
C2261 C2257 1.393 . S
C2261 C2260 1.352 . S
C2261 C2265 1.482 . S
C2262 C2258 1.505 . S
C2262 O2266 1.259 . S
C2262 O2267 1.229 . S
H2263 C2257 0.931 . S
H2264 C2260 0.929 . S
C2265 C2261 1.482 . S
C2265 O2268 1.207 . S
C2265 O2269 1.289 . S
O2266 C2262 1.259 . S
O2266 H2270 0.822 . S
O2267 C2262 1.229 . S
O2268 C2265 1.207 . S
O2269 C2265 1.289 . S
O2269 H2271 0.819 . S
H2270 O2266 0.822 . S
H2271 O2269 0.819 . S
N2272 Co2236 1.869 . S
N2272 C2273 1.330 . S
N2272 C2277 1.325 . S
C2273 N2272 1.330 . S
C2273 C2274 1.359 . S
C2273 C2279 1.504 . S
C2274 C2273 1.359 . S
C2274 C2275 1.366 . S
C2274 H2308 0.929 . S
C2275 C2274 1.366 . S
C2275 C2276 1.415 . S
C2275 H2309 0.932 . S
C2276 C2275 1.415 . S
C2276 C2277 1.366 . S
C2276 H2310 0.931 . S
C2277 N2272 1.325 . S
C2277 C2276 1.366 . S
C2277 C2281 1.516 . S
N2278 Co2236 1.974 . S
N2278 C2279 1.309 . S
N2278 C2284 1.423 . S
C2279 C2273 1.504 . S
C2279 N2278 1.309 . S
C2279 O2280 1.258 . S
O2280 C2279 1.258 . S
C2281 N2254 1.316 . S
C2281 C2277 1.516 . S
C2281 O2294 1.263 . S
O2282 Cd2225 2.350 . S
O2282 C2298 1.270 . S
O2283 Cd2225 2.277 . S
O2283 C2298 1.248 . S
C2284 N2278 1.423 . S
C2284 C2285 1.370 . S
C2284 C2289 1.403 . S
C2285 C2284 1.370 . S
C2285 C2286 1.389 . S
C2285 H2311 0.931 . S
C2286 C2285 1.389 . S
C2286 C2287 1.389 . S
C2287 C2286 1.389 . S
C2287 C2288 1.379 . S
C2287 H2312 0.929 . S
C2288 C2287 1.379 . S
C2288 C2289 1.405 . S
C2289 C2284 1.403 . S
C2289 C2288 1.405 . S
C2289 H2313 0.932 . S
O2290 Cd2225 2.173 . S
O2290 C2226 1.277 . S
O2291 C2226 1.230 . S
O2291 Cd2229 2.250 . S
O2292 Cd2225 2.263 . S
O2292 C2245 1.258 . S
O2293 Cd2229 2.308 . S
O2293 C2245 1.274 . S
O2294 Cd2225 2.366 . S
O2294 C2281 1.263 . S
C2295 O2296 1.235 . S
C2295 O2297 1.270 . S
O2296 Cd2229 2.352 . S
O2296 C2295 1.235 . S
O2297 Cd2225 2.329 . S
O2297 C2295 1.270 . S
C2298 O2282 1.270 . S
C2298 O2283 1.248 . S
H2299 C2231 0.930 . S
H2300 C2234 0.930 . S
H2301 C2235 0.931 . S
H2302 C2240 0.929 . S
H2303 C2242 0.930 . S
H2304 C2244 0.930 . S
H2305 C2247 0.929 . S
H2306 C2248 0.932 . S
H2307 C2250 0.930 . S
H2308 C2274 0.929 . S
H2309 C2275 0.932 . S
H2310 C2276 0.931 . S
H2311 C2285 0.931 . S
H2312 C2287 0.929 . S
H2313 C2289 0.932 . S
Cd2314 O2371 2.350 . S
Cd2314 O2372 2.277 . S
Cd2314 O2379 2.173 . S
Cd2314 O2381 2.263 . S
Cd2314 O2383 2.366 . S
Cd2314 O2386 2.329 . S
C2315 O2379 1.277 . S
C2315 O2380 1.230 . S
C2316 O2317 1.246 . S
C2316 C2319 1.481 . S
C2316 N2341 1.329 . S
O2317 C2316 1.246 . S
Cd2318 O2380 2.250 . S
Cd2318 O2382 2.308 . S
Cd2318 O2385 2.352 . S
C2319 C2316 1.481 . S
C2319 N2322 1.327 . S
C2319 C2323 1.407 . S
C2320 C2321 1.346 . S
C2320 C2324 1.390 . S
C2320 H2388 0.930 . S
C2321 C2320 1.346 . S
C2321 N2322 1.342 . S
C2321 C2326 1.516 . S
N2322 C2319 1.327 . S
N2322 C2321 1.342 . S
N2322 Co2325 1.864 . S
C2323 C2319 1.407 . S
C2323 C2324 1.364 . S
C2323 H2389 0.930 . S
C2324 C2320 1.390 . S
C2324 C2323 1.364 . S
C2324 H2390 0.931 . S
Co2325 N2322 1.864 . S
Co2325 N2341 1.955 . S
Co2325 N2342 1.958 . S
Co2325 N2343 1.953 . S
Co2325 N2361 1.869 . S
Co2325 N2367 1.974 . S
C2326 C2321 1.516 . S
C2326 O2327 1.238 . S
C2326 N2342 1.324 . S
O2327 C2326 1.238 . S
C2328 C2329 1.394 . S
C2328 C2333 1.395 . S
C2328 N2342 1.427 . S
C2329 C2328 1.394 . S
C2329 C2330 1.380 . S
C2329 H2391 0.929 . S
C2330 C2329 1.380 . S
C2330 C2331 1.384 . S
C2330 C2334 1.495 . S
C2331 C2330 1.384 . S
C2331 C2332 1.382 . S
C2331 H2392 0.930 . S
C2332 C2331 1.382 . S
C2332 C2333 1.398 . S
C2333 C2328 1.395 . S
C2333 C2332 1.398 . S
C2333 H2393 0.930 . S
C2334 C2330 1.495 . S
C2334 O2381 1.258 . S
C2334 O2382 1.274 . S
C2335 C2336 1.385 . S
C2335 C2337 1.381 . S
C2335 N2341 1.432 . S
C2336 C2335 1.385 . S
C2336 C2340 1.388 . S
C2336 H2394 0.929 . S
C2337 C2335 1.381 . S
C2337 C2338 1.371 . S
C2337 H2395 0.932 . S
C2338 C2337 1.371 . S
C2338 C2339 1.400 . S
C2339 C2338 1.400 . S
C2339 C2340 1.351 . S
C2339 H2396 0.930 . S
C2340 C2336 1.388 . S
C2340 C2339 1.351 . S
N2341 C2316 1.329 . S
N2341 Co2325 1.955 . S
N2341 C2335 1.432 . S
N2342 Co2325 1.958 . S
N2342 C2326 1.324 . S
N2342 C2328 1.427 . S
N2343 Co2325 1.953 . S
N2343 C2344 1.436 . S
N2343 C2370 1.316 . S
C2344 N2343 1.436 . S
C2344 C2345 1.421 . S
C2344 C2346 1.360 . S
C2345 C2344 1.421 . S
C2345 C2347 1.379 . S
C2345 H2348 0.929 . S
C2346 C2344 1.360 . S
C2346 C2350 1.393 . S
C2346 H2352 0.931 . S
C2347 C2345 1.379 . S
C2347 C2349 1.417 . S
C2347 C2351 1.505 . S
H2348 C2345 0.929 . S
C2349 C2347 1.417 . S
C2349 C2350 1.352 . S
C2349 H2353 0.929 . S
C2350 C2346 1.393 . S
C2350 C2349 1.352 . S
C2350 C2354 1.482 . S
C2351 C2347 1.505 . S
C2351 O2355 1.259 . S
C2351 O2356 1.229 . S
H2352 C2346 0.931 . S
H2353 C2349 0.929 . S
C2354 C2350 1.482 . S
C2354 O2357 1.207 . S
C2354 O2358 1.289 . S
O2355 C2351 1.259 . S
O2355 H2359 0.822 . S
O2356 C2351 1.229 . S
O2357 C2354 1.207 . S
O2358 C2354 1.289 . S
O2358 H2360 0.819 . S
H2359 O2355 0.822 . S
H2360 O2358 0.819 . S
N2361 Co2325 1.869 . S
N2361 C2362 1.330 . S
N2361 C2366 1.325 . S
C2362 N2361 1.330 . S
C2362 C2363 1.359 . S
C2362 C2368 1.504 . S
C2363 C2362 1.359 . S
C2363 C2364 1.366 . S
C2363 H2397 0.929 . S
C2364 C2363 1.366 . S
C2364 C2365 1.415 . S
C2364 H2398 0.932 . S
C2365 C2364 1.415 . S
C2365 C2366 1.366 . S
C2365 H2399 0.931 . S
C2366 N2361 1.325 . S
C2366 C2365 1.366 . S
C2366 C2370 1.516 . S
N2367 Co2325 1.974 . S
N2367 C2368 1.309 . S
N2367 C2373 1.423 . S
C2368 C2362 1.504 . S
C2368 N2367 1.309 . S
C2368 O2369 1.258 . S
O2369 C2368 1.258 . S
C2370 N2343 1.316 . S
C2370 C2366 1.516 . S
C2370 O2383 1.263 . S
O2371 Cd2314 2.350 . S
O2371 C2387 1.270 . S
O2372 Cd2314 2.277 . S
O2372 C2387 1.248 . S
C2373 N2367 1.423 . S
C2373 C2374 1.370 . S
C2373 C2378 1.403 . S
C2374 C2373 1.370 . S
C2374 C2375 1.389 . S
C2374 H2400 0.931 . S
C2375 C2374 1.389 . S
C2375 C2376 1.389 . S
C2376 C2375 1.389 . S
C2376 C2377 1.379 . S
C2376 H2401 0.929 . S
C2377 C2376 1.379 . S
C2377 C2378 1.405 . S
C2378 C2373 1.403 . S
C2378 C2377 1.405 . S
C2378 H2402 0.932 . S
O2379 Cd2314 2.173 . S
O2379 C2315 1.277 . S
O2380 C2315 1.230 . S
O2380 Cd2318 2.250 . S
O2381 Cd2314 2.263 . S
O2381 C2334 1.258 . S
O2382 Cd2318 2.308 . S
O2382 C2334 1.274 . S
O2383 Cd2314 2.366 . S
O2383 C2370 1.263 . S
C2384 O2385 1.235 . S
C2384 O2386 1.270 . S
O2385 Cd2318 2.352 . S
O2385 C2384 1.235 . S
O2386 Cd2314 2.329 . S
O2386 C2384 1.270 . S
C2387 O2371 1.270 . S
C2387 O2372 1.248 . S
H2388 C2320 0.930 . S
H2389 C2323 0.930 . S
H2390 C2324 0.931 . S
H2391 C2329 0.929 . S
H2392 C2331 0.930 . S
H2393 C2333 0.930 . S
H2394 C2336 0.929 . S
H2395 C2337 0.932 . S
H2396 C2339 0.930 . S
H2397 C2363 0.929 . S
H2398 C2364 0.932 . S
H2399 C2365 0.931 . S
H2400 C2374 0.931 . S
H2401 C2376 0.929 . S
H2402 C2378 0.932 . S
Cd2403 O2460 2.350 . S
Cd2403 O2461 2.277 . S
Cd2403 O2468 2.173 . S
Cd2403 O2470 2.263 . S
Cd2403 O2472 2.366 . S
Cd2403 O2475 2.329 . S
C2404 O2468 1.277 . S
C2404 O2469 1.230 . S
C2405 O2406 1.246 . S
C2405 C2408 1.481 . S
C2405 N2430 1.329 . S
O2406 C2405 1.246 . S
Cd2407 O2469 2.250 . S
Cd2407 O2471 2.308 . S
Cd2407 O2474 2.352 . S
C2408 C2405 1.481 . S
C2408 N2411 1.327 . S
C2408 C2412 1.407 1_554 S
C2409 C2410 1.346 1_556 S
C2409 C2413 1.390 . S
C2409 H2477 0.930 . S
C2410 C2409 1.346 1_554 S
C2410 N2411 1.342 . S
C2410 C2415 1.516 . S
N2411 C2408 1.327 . S
N2411 C2410 1.342 . S
N2411 Co2414 1.864 . S
C2412 C2408 1.407 1_556 S
C2412 C2413 1.364 . S
C2412 H2478 0.930 . S
C2413 C2409 1.390 . S
C2413 C2412 1.364 . S
C2413 H2479 0.931 . S
Co2414 N2411 1.864 . S
Co2414 N2430 1.955 . S
Co2414 N2431 1.958 . S
Co2414 N2432 1.953 . S
Co2414 N2450 1.869 . S
Co2414 N2456 1.974 . S
C2415 C2410 1.516 . S
C2415 O2416 1.232 1_554 S
C2415 N2431 1.324 . S
O2416 C2415 1.232 1_556 S
C2417 C2418 1.394 . S
C2417 C2422 1.395 . S
C2417 N2431 1.427 . S
C2418 C2417 1.394 . S
C2418 C2419 1.380 . S
C2418 H2480 0.929 . S
C2419 C2418 1.380 . S
C2419 C2420 1.384 . S
C2419 C2423 1.495 . S
C2420 C2419 1.384 . S
C2420 C2421 1.382 . S
C2420 H2481 0.930 . S
C2421 C2420 1.382 . S
C2421 C2422 1.398 . S
C2422 C2417 1.395 . S
C2422 C2421 1.398 . S
C2422 H2482 0.930 . S
C2423 C2419 1.495 . S
C2423 O2470 1.258 . S
C2423 O2471 1.274 . S
C2424 C2425 1.385 . S
C2424 C2426 1.381 . S
C2424 N2430 1.432 . S
C2425 C2424 1.385 . S
C2425 C2429 1.388 . S
C2425 H2483 0.929 . S
C2426 C2424 1.381 . S
C2426 C2427 1.371 . S
C2426 H2484 0.932 . S
C2427 C2426 1.371 . S
C2427 C2428 1.400 . S
C2428 C2427 1.400 . S
C2428 C2429 1.351 . S
C2428 H2485 0.930 . S
C2429 C2425 1.388 . S
C2429 C2428 1.351 . S
N2430 C2405 1.329 . S
N2430 Co2414 1.955 . S
N2430 C2424 1.432 . S
N2431 Co2414 1.958 . S
N2431 C2415 1.324 . S
N2431 C2417 1.427 . S
N2432 Co2414 1.953 . S
N2432 C2433 1.436 . S
N2432 C2459 1.316 . S
C2433 N2432 1.436 . S
C2433 C2434 1.421 . S
C2433 C2435 1.360 . S
C2434 C2433 1.421 . S
C2434 C2436 1.379 . S
C2434 H2437 0.929 . S
C2435 C2433 1.360 . S
C2435 C2439 1.393 . S
C2435 H2441 0.931 . S
C2436 C2434 1.379 . S
C2436 C2438 1.417 . S
C2436 C2440 1.505 . S
H2437 C2434 0.929 . S
C2438 C2436 1.417 . S
C2438 C2439 1.352 . S
C2438 H2442 0.929 . S
C2439 C2435 1.393 . S
C2439 C2438 1.352 . S
C2439 C2443 1.482 . S
C2440 C2436 1.505 . S
C2440 O2444 1.259 . S
C2440 O2445 1.229 . S
H2441 C2435 0.931 . S
H2442 C2438 0.929 . S
C2443 C2439 1.482 . S
C2443 O2446 1.207 . S
C2443 O2447 1.289 . S
O2444 C2440 1.259 . S
O2444 H2448 0.822 . S
O2445 C2440 1.229 . S
O2446 C2443 1.207 . S
O2447 C2443 1.289 . S
O2447 H2449 0.819 . S
H2448 O2444 0.822 . S
H2449 O2447 0.819 . S
N2450 Co2414 1.869 . S
N2450 C2451 1.330 . S
N2450 C2455 1.325 . S
C2451 N2450 1.330 . S
C2451 C2452 1.359 . S
C2451 C2457 1.504 . S
C2452 C2451 1.359 . S
C2452 C2453 1.366 . S
C2452 H2486 0.929 . S
C2453 C2452 1.366 . S
C2453 C2454 1.415 . S
C2453 H2487 0.932 . S
C2454 C2453 1.415 . S
C2454 C2455 1.366 . S
C2454 H2488 0.931 . S
C2455 N2450 1.325 . S
C2455 C2454 1.366 . S
C2455 C2459 1.516 . S
N2456 Co2414 1.974 . S
N2456 C2457 1.309 . S
N2456 C2462 1.423 1_554 S
C2457 C2451 1.504 . S
C2457 N2456 1.309 . S
C2457 O2458 1.258 . S
O2458 C2457 1.258 . S
C2459 N2432 1.316 . S
C2459 C2455 1.516 . S
C2459 O2472 1.263 . S
O2460 Cd2403 2.350 . S
O2460 C2476 1.270 . S
O2461 Cd2403 2.277 . S
O2461 C2476 1.248 . S
C2462 N2456 1.423 1_556 S
C2462 C2463 1.370 . S
C2462 C2467 1.403 . S
C2463 C2462 1.370 . S
C2463 C2464 1.389 . S
C2463 H2489 0.931 . S
C2464 C2463 1.389 . S
C2464 C2465 1.389 . S
C2465 C2464 1.389 . S
C2465 C2466 1.379 . S
C2465 H2490 0.929 . S
C2466 C2465 1.379 . S
C2466 C2467 1.405 . S
C2467 C2462 1.403 . S
C2467 C2466 1.405 . S
C2467 H2491 0.932 . S
O2468 Cd2403 2.173 . S
O2468 C2404 1.277 . S
O2469 C2404 1.230 . S
O2469 Cd2407 2.250 . S
O2470 Cd2403 2.263 . S
O2470 C2423 1.258 . S
O2471 Cd2407 2.308 . S
O2471 C2423 1.274 . S
O2472 Cd2403 2.366 . S
O2472 C2459 1.263 . S
C2473 O2474 1.235 . S
C2473 O2475 1.270 . S
O2474 Cd2407 2.352 . S
O2474 C2473 1.235 . S
O2475 Cd2403 2.329 . S
O2475 C2473 1.270 . S
C2476 O2460 1.270 . S
C2476 O2461 1.248 . S
H2477 C2409 0.930 . S
H2478 C2412 0.930 . S
H2479 C2413 0.931 . S
H2480 C2418 0.929 . S
H2481 C2420 0.930 . S
H2482 C2422 0.930 . S
H2483 C2425 0.929 . S
H2484 C2426 0.932 . S
H2485 C2428 0.930 . S
H2486 C2452 0.929 . S
H2487 C2453 0.932 . S
H2488 C2454 0.931 . S
H2489 C2463 0.931 . S
H2490 C2465 0.929 . S
H2491 C2467 0.932 . S
Cd2492 O2549 2.350 . S
Cd2492 O2550 2.277 . S
Cd2492 O2557 2.173 . S
Cd2492 O2559 2.263 . S
Cd2492 O2561 2.366 . S
Cd2492 O2564 2.329 . S
C2493 O2557 1.277 . S
C2493 O2558 1.230 . S
C2494 O2495 1.246 . S
C2494 C2497 1.481 . S
C2494 N2519 1.329 . S
O2495 C2494 1.246 . S
Cd2496 O2558 2.250 . S
Cd2496 O2560 2.308 . S
Cd2496 O2563 2.352 . S
C2497 C2494 1.481 . S
C2497 N2500 1.327 . S
C2497 C2501 1.407 1_554 S
C2498 C2499 1.346 1_556 S
C2498 C2502 1.390 . S
C2498 H2566 0.930 . S
C2499 C2498 1.346 1_554 S
C2499 N2500 1.342 . S
C2499 C2504 1.516 . S
N2500 C2497 1.327 . S
N2500 C2499 1.342 . S
N2500 Co2503 1.864 . S
C2501 C2497 1.407 1_556 S
C2501 C2502 1.364 . S
C2501 H2567 0.930 . S
C2502 C2498 1.390 . S
C2502 C2501 1.364 . S
C2502 H2568 0.931 . S
Co2503 N2500 1.864 . S
Co2503 N2519 1.955 . S
Co2503 N2520 1.958 . S
Co2503 N2521 1.953 . S
Co2503 N2539 1.869 . S
Co2503 N2545 1.974 . S
C2504 C2499 1.516 . S
C2504 O2505 1.232 1_554 S
C2504 N2520 1.324 . S
O2505 C2504 1.232 1_556 S
C2506 C2507 1.394 . S
C2506 C2511 1.395 . S
C2506 N2520 1.427 . S
C2507 C2506 1.394 . S
C2507 C2508 1.380 . S
C2507 H2569 0.929 . S
C2508 C2507 1.380 . S
C2508 C2509 1.384 . S
C2508 C2512 1.495 . S
C2509 C2508 1.384 . S
C2509 C2510 1.382 . S
C2509 H2570 0.930 . S
C2510 C2509 1.382 . S
C2510 C2511 1.398 . S
C2511 C2506 1.395 . S
C2511 C2510 1.398 . S
C2511 H2571 0.930 . S
C2512 C2508 1.495 . S
C2512 O2559 1.258 . S
C2512 O2560 1.274 . S
C2513 C2514 1.385 . S
C2513 C2515 1.381 . S
C2513 N2519 1.432 . S
C2514 C2513 1.385 . S
C2514 C2518 1.388 . S
C2514 H2572 0.929 . S
C2515 C2513 1.381 . S
C2515 C2516 1.371 . S
C2515 H2573 0.932 . S
C2516 C2515 1.371 . S
C2516 C2517 1.400 . S
C2517 C2516 1.400 . S
C2517 C2518 1.351 . S
C2517 H2574 0.930 . S
C2518 C2514 1.388 . S
C2518 C2517 1.351 . S
N2519 C2494 1.329 . S
N2519 Co2503 1.955 . S
N2519 C2513 1.432 . S
N2520 Co2503 1.958 . S
N2520 C2504 1.324 . S
N2520 C2506 1.427 . S
N2521 Co2503 1.953 . S
N2521 C2522 1.436 . S
N2521 C2548 1.316 . S
C2522 N2521 1.436 . S
C2522 C2523 1.421 . S
C2522 C2524 1.360 . S
C2523 C2522 1.421 . S
C2523 C2525 1.379 . S
C2523 H2526 0.929 . S
C2524 C2522 1.360 . S
C2524 C2528 1.393 . S
C2524 H2530 0.931 . S
C2525 C2523 1.379 . S
C2525 C2527 1.417 . S
C2525 C2529 1.505 . S
H2526 C2523 0.929 . S
C2527 C2525 1.417 . S
C2527 C2528 1.352 . S
C2527 H2531 0.929 . S
C2528 C2524 1.393 . S
C2528 C2527 1.352 . S
C2528 C2532 1.482 . S
C2529 C2525 1.505 . S
C2529 O2533 1.259 . S
C2529 O2534 1.229 . S
H2530 C2524 0.931 . S
H2531 C2527 0.929 . S
C2532 C2528 1.482 . S
C2532 O2535 1.207 . S
C2532 O2536 1.289 . S
O2533 C2529 1.259 . S
O2533 H2537 0.822 . S
O2534 C2529 1.229 . S
O2535 C2532 1.207 . S
O2536 C2532 1.289 . S
O2536 H2538 0.819 . S
H2537 O2533 0.822 . S
H2538 O2536 0.819 . S
N2539 Co2503 1.869 . S
N2539 C2540 1.330 . S
N2539 C2544 1.325 . S
C2540 N2539 1.330 . S
C2540 C2541 1.359 . S
C2540 C2546 1.504 . S
C2541 C2540 1.359 . S
C2541 C2542 1.366 . S
C2541 H2575 0.929 . S
C2542 C2541 1.366 . S
C2542 C2543 1.415 . S
C2542 H2576 0.932 . S
C2543 C2542 1.415 . S
C2543 C2544 1.366 . S
C2543 H2577 0.931 . S
C2544 N2539 1.325 . S
C2544 C2543 1.366 . S
C2544 C2548 1.516 . S
N2545 Co2503 1.974 . S
N2545 C2546 1.309 . S
N2545 C2551 1.423 1_554 S
C2546 C2540 1.504 . S
C2546 N2545 1.309 . S
C2546 O2547 1.258 . S
O2547 C2546 1.258 . S
C2548 N2521 1.316 . S
C2548 C2544 1.516 . S
C2548 O2561 1.263 . S
O2549 Cd2492 2.350 . S
O2549 C2565 1.270 . S
O2550 Cd2492 2.277 . S
O2550 C2565 1.248 . S
C2551 N2545 1.423 1_556 S
C2551 C2552 1.370 . S
C2551 C2556 1.403 . S
C2552 C2551 1.370 . S
C2552 C2553 1.389 . S
C2552 H2578 0.931 . S
C2553 C2552 1.389 . S
C2553 C2554 1.389 . S
C2554 C2553 1.389 . S
C2554 C2555 1.379 . S
C2554 H2579 0.929 . S
C2555 C2554 1.379 . S
C2555 C2556 1.405 . S
C2556 C2551 1.403 . S
C2556 C2555 1.405 . S
C2556 H2580 0.932 . S
O2557 Cd2492 2.173 . S
O2557 C2493 1.277 . S
O2558 C2493 1.230 . S
O2558 Cd2496 2.250 . S
O2559 Cd2492 2.263 . S
O2559 C2512 1.258 . S
O2560 Cd2496 2.308 . S
O2560 C2512 1.274 . S
O2561 Cd2492 2.366 . S
O2561 C2548 1.263 . S
C2562 O2563 1.235 . S
C2562 O2564 1.270 . S
O2563 Cd2496 2.352 . S
O2563 C2562 1.235 . S
O2564 Cd2492 2.329 . S
O2564 C2562 1.270 . S
C2565 O2549 1.270 . S
C2565 O2550 1.248 . S
H2566 C2498 0.930 . S
H2567 C2501 0.930 . S
H2568 C2502 0.931 . S
H2569 C2507 0.929 . S
H2570 C2509 0.930 . S
H2571 C2511 0.930 . S
H2572 C2514 0.929 . S
H2573 C2515 0.932 . S
H2574 C2517 0.930 . S
H2575 C2541 0.929 . S
H2576 C2542 0.932 . S
H2577 C2543 0.931 . S
H2578 C2552 0.931 . S
H2579 C2554 0.929 . S
H2580 C2556 0.932 . S
Cd2581 O2638 2.350 . S
Cd2581 O2639 2.277 . S
Cd2581 O2646 2.173 . S
Cd2581 O2648 2.263 . S
Cd2581 O2650 2.366 . S
Cd2581 O2653 2.329 . S
C2582 O2646 1.277 . S
C2582 O2647 1.230 . S
C2583 O2584 1.246 . S
C2583 C2586 1.481 . S
C2583 N2608 1.329 . S
O2584 C2583 1.246 . S
Cd2585 O2647 2.250 . S
Cd2585 O2649 2.308 . S
Cd2585 O2652 2.352 . S
C2586 C2583 1.481 . S
C2586 N2589 1.327 . S
C2586 C2590 1.407 1_554 S
C2587 C2588 1.346 1_556 S
C2587 C2591 1.390 . S
C2587 H2655 0.930 . S
C2588 C2587 1.346 1_554 S
C2588 N2589 1.342 . S
C2588 C2593 1.516 . S
N2589 C2586 1.327 . S
N2589 C2588 1.342 . S
N2589 Co2592 1.864 . S
C2590 C2586 1.407 1_556 S
C2590 C2591 1.364 . S
C2590 H2656 0.930 . S
C2591 C2587 1.390 . S
C2591 C2590 1.364 . S
C2591 H2657 0.931 . S
Co2592 N2589 1.864 . S
Co2592 N2608 1.955 . S
Co2592 N2609 1.958 . S
Co2592 N2610 1.953 . S
Co2592 N2628 1.869 . S
Co2592 N2634 1.974 . S
C2593 C2588 1.516 . S
C2593 O2594 1.232 1_554 S
C2593 N2609 1.324 . S
O2594 C2593 1.232 1_556 S
C2595 C2596 1.394 . S
C2595 C2600 1.395 . S
C2595 N2609 1.427 . S
C2596 C2595 1.394 . S
C2596 C2597 1.380 . S
C2596 H2658 0.929 . S
C2597 C2596 1.380 . S
C2597 C2598 1.384 . S
C2597 C2601 1.495 . S
C2598 C2597 1.384 . S
C2598 C2599 1.382 . S
C2598 H2659 0.930 . S
C2599 C2598 1.382 . S
C2599 C2600 1.398 . S
C2600 C2595 1.395 . S
C2600 C2599 1.398 . S
C2600 H2660 0.930 . S
C2601 C2597 1.495 . S
C2601 O2648 1.258 . S
C2601 O2649 1.274 . S
C2602 C2603 1.385 . S
C2602 C2604 1.381 . S
C2602 N2608 1.432 . S
C2603 C2602 1.385 . S
C2603 C2607 1.388 . S
C2603 H2661 0.929 . S
C2604 C2602 1.381 . S
C2604 C2605 1.371 . S
C2604 H2662 0.932 . S
C2605 C2604 1.371 . S
C2605 C2606 1.400 . S
C2606 C2605 1.400 . S
C2606 C2607 1.351 . S
C2606 H2663 0.930 . S
C2607 C2603 1.388 . S
C2607 C2606 1.351 . S
N2608 C2583 1.329 . S
N2608 Co2592 1.955 . S
N2608 C2602 1.432 . S
N2609 Co2592 1.958 . S
N2609 C2593 1.324 . S
N2609 C2595 1.427 . S
N2610 Co2592 1.953 . S
N2610 C2611 1.436 . S
N2610 C2637 1.316 . S
C2611 N2610 1.436 . S
C2611 C2612 1.421 . S
C2611 C2613 1.360 . S
C2612 C2611 1.421 . S
C2612 C2614 1.379 . S
C2612 H2615 0.929 . S
C2613 C2611 1.360 . S
C2613 C2617 1.393 . S
C2613 H2619 0.931 . S
C2614 C2612 1.379 . S
C2614 C2616 1.417 . S
C2614 C2618 1.505 . S
H2615 C2612 0.929 . S
C2616 C2614 1.417 . S
C2616 C2617 1.352 . S
C2616 H2620 0.929 . S
C2617 C2613 1.393 . S
C2617 C2616 1.352 . S
C2617 C2621 1.482 . S
C2618 C2614 1.505 . S
C2618 O2622 1.259 . S
C2618 O2623 1.229 . S
H2619 C2613 0.931 . S
H2620 C2616 0.929 . S
C2621 C2617 1.482 . S
C2621 O2624 1.207 . S
C2621 O2625 1.289 . S
O2622 C2618 1.259 . S
O2622 H2626 0.822 . S
O2623 C2618 1.229 . S
O2624 C2621 1.207 . S
O2625 C2621 1.289 . S
O2625 H2627 0.819 . S
H2626 O2622 0.822 . S
H2627 O2625 0.819 . S
N2628 Co2592 1.869 . S
N2628 C2629 1.330 . S
N2628 C2633 1.325 . S
C2629 N2628 1.330 . S
C2629 C2630 1.359 . S
C2629 C2635 1.504 . S
C2630 C2629 1.359 . S
C2630 C2631 1.366 . S
C2630 H2664 0.929 . S
C2631 C2630 1.366 . S
C2631 C2632 1.415 . S
C2631 H2665 0.932 . S
C2632 C2631 1.415 . S
C2632 C2633 1.366 . S
C2632 H2666 0.931 . S
C2633 N2628 1.325 . S
C2633 C2632 1.366 . S
C2633 C2637 1.516 . S
N2634 Co2592 1.974 . S
N2634 C2635 1.309 . S
N2634 C2640 1.423 1_554 S
C2635 C2629 1.504 . S
C2635 N2634 1.309 . S
C2635 O2636 1.258 . S
O2636 C2635 1.258 . S
C2637 N2610 1.316 . S
C2637 C2633 1.516 . S
C2637 O2650 1.263 . S
O2638 Cd2581 2.350 . S
O2638 C2654 1.270 . S
O2639 Cd2581 2.277 . S
O2639 C2654 1.248 . S
C2640 N2634 1.423 1_556 S
C2640 C2641 1.370 . S
C2640 C2645 1.403 . S
C2641 C2640 1.370 . S
C2641 C2642 1.389 . S
C2641 H2667 0.931 . S
C2642 C2641 1.389 . S
C2642 C2643 1.389 . S
C2643 C2642 1.389 . S
C2643 C2644 1.379 . S
C2643 H2668 0.929 . S
C2644 C2643 1.379 . S
C2644 C2645 1.405 . S
C2645 C2640 1.403 . S
C2645 C2644 1.405 . S
C2645 H2669 0.932 . S
O2646 Cd2581 2.173 . S
O2646 C2582 1.277 . S
O2647 C2582 1.230 . S
O2647 Cd2585 2.250 . S
O2648 Cd2581 2.263 . S
O2648 C2601 1.258 . S
O2649 Cd2585 2.308 . S
O2649 C2601 1.274 . S
O2650 Cd2581 2.366 . S
O2650 C2637 1.263 . S
C2651 O2652 1.235 . S
C2651 O2653 1.270 . S
O2652 Cd2585 2.352 . S
O2652 C2651 1.235 . S
O2653 Cd2581 2.329 . S
O2653 C2651 1.270 . S
C2654 O2638 1.270 . S
C2654 O2639 1.248 . S
H2655 C2587 0.930 . S
H2656 C2590 0.930 . S
H2657 C2591 0.931 . S
H2658 C2596 0.929 . S
H2659 C2598 0.930 . S
H2660 C2600 0.930 . S
H2661 C2603 0.929 . S
H2662 C2604 0.932 . S
H2663 C2606 0.930 . S
H2664 C2630 0.929 . S
H2665 C2631 0.932 . S
H2666 C2632 0.931 . S
H2667 C2641 0.931 . S
H2668 C2643 0.929 . S
H2669 C2645 0.932 . S
Cd2670 O2727 2.350 . S
Cd2670 O2728 2.277 . S
Cd2670 O2735 2.173 . S
Cd2670 O2737 2.263 . S
Cd2670 O2739 2.366 . S
Cd2670 O2742 2.329 . S
C2671 O2735 1.277 . S
C2671 O2736 1.230 . S
C2672 O2673 1.246 . S
C2672 C2675 1.481 . S
C2672 N2697 1.329 . S
O2673 C2672 1.246 . S
Cd2674 O2736 2.250 . S
Cd2674 O2738 2.308 . S
Cd2674 O2741 2.352 . S
C2675 C2672 1.481 . S
C2675 N2678 1.327 . S
C2675 C2679 1.407 . S
C2676 C2677 1.346 . S
C2676 C2680 1.390 . S
C2676 H2744 0.930 . S
C2677 C2676 1.346 . S
C2677 N2678 1.342 . S
C2677 C2682 1.516 . S
N2678 C2675 1.327 . S
N2678 C2677 1.342 . S
N2678 Co2681 1.864 . S
C2679 C2675 1.407 . S
C2679 C2680 1.364 . S
C2679 H2745 0.930 . S
C2680 C2676 1.390 . S
C2680 C2679 1.364 . S
C2680 H2746 0.931 . S
Co2681 N2678 1.864 . S
Co2681 N2697 1.955 . S
Co2681 N2698 1.958 . S
Co2681 N2699 1.953 . S
Co2681 N2717 1.869 . S
Co2681 N2723 1.974 . S
C2682 C2677 1.516 . S
C2682 O2683 1.238 . S
C2682 N2698 1.324 . S
O2683 C2682 1.238 . S
C2684 C2685 1.394 . S
C2684 C2689 1.395 . S
C2684 N2698 1.427 . S
C2685 C2684 1.394 . S
C2685 C2686 1.380 . S
C2685 H2747 0.929 . S
C2686 C2685 1.380 . S
C2686 C2687 1.384 . S
C2686 C2690 1.495 . S
C2687 C2686 1.384 . S
C2687 C2688 1.382 . S
C2687 H2748 0.930 . S
C2688 C2687 1.382 . S
C2688 C2689 1.398 . S
C2689 C2684 1.395 . S
C2689 C2688 1.398 . S
C2689 H2749 0.930 . S
C2690 C2686 1.495 . S
C2690 O2737 1.258 . S
C2690 O2738 1.274 . S
C2691 C2692 1.385 . S
C2691 C2693 1.381 . S
C2691 N2697 1.432 . S
C2692 C2691 1.385 . S
C2692 C2696 1.388 . S
C2692 H2750 0.929 . S
C2693 C2691 1.381 . S
C2693 C2694 1.371 . S
C2693 H2751 0.932 . S
C2694 C2693 1.371 . S
C2694 C2695 1.400 . S
C2695 C2694 1.400 . S
C2695 C2696 1.351 . S
C2695 H2752 0.930 . S
C2696 C2692 1.388 . S
C2696 C2695 1.351 . S
N2697 C2672 1.329 . S
N2697 Co2681 1.955 . S
N2697 C2691 1.432 . S
N2698 Co2681 1.958 . S
N2698 C2682 1.324 . S
N2698 C2684 1.427 . S
N2699 Co2681 1.953 . S
N2699 C2700 1.436 . S
N2699 C2726 1.316 . S
C2700 N2699 1.436 . S
C2700 C2701 1.421 . S
C2700 C2702 1.360 . S
C2701 C2700 1.421 . S
C2701 C2703 1.379 . S
C2701 H2704 0.929 . S
C2702 C2700 1.360 . S
C2702 C2706 1.393 . S
C2702 H2708 0.931 . S
C2703 C2701 1.379 . S
C2703 C2705 1.417 . S
C2703 C2707 1.505 . S
H2704 C2701 0.929 . S
C2705 C2703 1.417 . S
C2705 C2706 1.352 . S
C2705 H2709 0.929 . S
C2706 C2702 1.393 . S
C2706 C2705 1.352 . S
C2706 C2710 1.482 . S
C2707 C2703 1.505 . S
C2707 O2711 1.259 . S
C2707 O2712 1.229 . S
H2708 C2702 0.931 . S
H2709 C2705 0.929 . S
C2710 C2706 1.482 . S
C2710 O2713 1.207 . S
C2710 O2714 1.289 . S
O2711 C2707 1.259 . S
O2711 H2715 0.822 . S
O2712 C2707 1.229 . S
O2713 C2710 1.207 . S
O2714 C2710 1.289 . S
O2714 H2716 0.819 . S
H2715 O2711 0.822 . S
H2716 O2714 0.819 . S
N2717 Co2681 1.869 . S
N2717 C2718 1.330 . S
N2717 C2722 1.325 . S
C2718 N2717 1.330 . S
C2718 C2719 1.359 . S
C2718 C2724 1.504 . S
C2719 C2718 1.359 . S
C2719 C2720 1.366 . S
C2719 H2753 0.929 . S
C2720 C2719 1.366 . S
C2720 C2721 1.415 . S
C2720 H2754 0.932 . S
C2721 C2720 1.415 . S
C2721 C2722 1.366 . S
C2721 H2755 0.931 . S
C2722 N2717 1.325 . S
C2722 C2721 1.366 . S
C2722 C2726 1.516 . S
N2723 Co2681 1.974 . S
N2723 C2724 1.309 . S
N2723 C2729 1.423 . S
C2724 C2718 1.504 . S
C2724 N2723 1.309 . S
C2724 O2725 1.258 . S
O2725 C2724 1.258 . S
C2726 N2699 1.316 . S
C2726 C2722 1.516 . S
C2726 O2739 1.263 . S
O2727 Cd2670 2.350 . S
O2727 C2743 1.270 . S
O2728 Cd2670 2.277 . S
O2728 C2743 1.248 . S
C2729 N2723 1.423 . S
C2729 C2730 1.370 . S
C2729 C2734 1.403 . S
C2730 C2729 1.370 . S
C2730 C2731 1.389 . S
C2730 H2756 0.931 . S
C2731 C2730 1.389 . S
C2731 C2732 1.389 . S
C2732 C2731 1.389 . S
C2732 C2733 1.379 . S
C2732 H2757 0.929 . S
C2733 C2732 1.379 . S
C2733 C2734 1.405 . S
C2734 C2729 1.403 . S
C2734 C2733 1.405 . S
C2734 H2758 0.932 . S
O2735 Cd2670 2.173 . S
O2735 C2671 1.277 . S
O2736 C2671 1.230 . S
O2736 Cd2674 2.250 . S
O2737 Cd2670 2.263 . S
O2737 C2690 1.258 . S
O2738 Cd2674 2.308 . S
O2738 C2690 1.274 . S
O2739 Cd2670 2.366 . S
O2739 C2726 1.263 . S
C2740 O2741 1.235 . S
C2740 O2742 1.270 . S
O2741 Cd2674 2.352 . S
O2741 C2740 1.235 . S
O2742 Cd2670 2.329 . S
O2742 C2740 1.270 . S
C2743 O2727 1.270 . S
C2743 O2728 1.248 . S
H2744 C2676 0.930 . S
H2745 C2679 0.930 . S
H2746 C2680 0.931 . S
H2747 C2685 0.929 . S
H2748 C2687 0.930 . S
H2749 C2689 0.930 . S
H2750 C2692 0.929 . S
H2751 C2693 0.932 . S
H2752 C2695 0.930 . S
H2753 C2719 0.929 . S
H2754 C2720 0.932 . S
H2755 C2721 0.931 . S
H2756 C2730 0.931 . S
H2757 C2732 0.929 . S
H2758 C2734 0.932 . S
Cd2759 O2816 2.350 . S
Cd2759 O2817 2.277 . S
Cd2759 O2824 2.173 . S
Cd2759 O2826 2.263 . S
Cd2759 O2828 2.366 . S
Cd2759 O2831 2.329 . S
C2760 O2824 1.277 . S
C2760 O2825 1.230 . S
C2761 O2762 1.246 . S
C2761 C2764 1.481 . S
C2761 N2786 1.329 . S
O2762 C2761 1.246 . S
Cd2763 O2825 2.250 . S
Cd2763 O2827 2.308 . S
Cd2763 O2830 2.352 . S
C2764 C2761 1.481 . S
C2764 N2767 1.327 . S
C2764 C2768 1.407 . S
C2765 C2766 1.346 . S
C2765 C2769 1.390 . S
C2765 H2833 0.930 . S
C2766 C2765 1.346 . S
C2766 N2767 1.342 . S
C2766 C2771 1.516 . S
N2767 C2764 1.327 . S
N2767 C2766 1.342 . S
N2767 Co2770 1.864 . S
C2768 C2764 1.407 . S
C2768 C2769 1.364 . S
C2768 H2834 0.930 . S
C2769 C2765 1.390 . S
C2769 C2768 1.364 . S
C2769 H2835 0.931 . S
Co2770 N2767 1.864 . S
Co2770 N2786 1.955 . S
Co2770 N2787 1.958 . S
Co2770 N2788 1.953 . S
Co2770 N2806 1.869 . S
Co2770 N2812 1.974 . S
C2771 C2766 1.516 . S
C2771 O2772 1.238 . S
C2771 N2787 1.324 . S
O2772 C2771 1.238 . S
C2773 C2774 1.394 . S
C2773 C2778 1.395 . S
C2773 N2787 1.427 . S
C2774 C2773 1.394 . S
C2774 C2775 1.380 . S
C2774 H2836 0.929 . S
C2775 C2774 1.380 . S
C2775 C2776 1.384 . S
C2775 C2779 1.495 . S
C2776 C2775 1.384 . S
C2776 C2777 1.382 . S
C2776 H2837 0.930 . S
C2777 C2776 1.382 . S
C2777 C2778 1.398 . S
C2778 C2773 1.395 . S
C2778 C2777 1.398 . S
C2778 H2838 0.930 . S
C2779 C2775 1.495 . S
C2779 O2826 1.258 . S
C2779 O2827 1.274 . S
C2780 C2781 1.385 . S
C2780 C2782 1.381 . S
C2780 N2786 1.432 . S
C2781 C2780 1.385 . S
C2781 C2785 1.388 . S
C2781 H2839 0.929 . S
C2782 C2780 1.381 . S
C2782 C2783 1.371 . S
C2782 H2840 0.932 . S
C2783 C2782 1.371 . S
C2783 C2784 1.400 . S
C2784 C2783 1.400 . S
C2784 C2785 1.351 . S
C2784 H2841 0.930 . S
C2785 C2781 1.388 . S
C2785 C2784 1.351 . S
N2786 C2761 1.329 . S
N2786 Co2770 1.955 . S
N2786 C2780 1.432 . S
N2787 Co2770 1.958 . S
N2787 C2771 1.324 . S
N2787 C2773 1.427 . S
N2788 Co2770 1.953 . S
N2788 C2789 1.436 . S
N2788 C2815 1.316 . S
C2789 N2788 1.436 . S
C2789 C2790 1.421 . S
C2789 C2791 1.360 . S
C2790 C2789 1.421 . S
C2790 C2792 1.379 . S
C2790 H2793 0.929 . S
C2791 C2789 1.360 . S
C2791 C2795 1.393 . S
C2791 H2797 0.931 . S
C2792 C2790 1.379 . S
C2792 C2794 1.417 . S
C2792 C2796 1.505 . S
H2793 C2790 0.929 . S
C2794 C2792 1.417 . S
C2794 C2795 1.352 . S
C2794 H2798 0.929 . S
C2795 C2791 1.393 . S
C2795 C2794 1.352 . S
C2795 C2799 1.482 . S
C2796 C2792 1.505 . S
C2796 O2800 1.259 . S
C2796 O2801 1.229 . S
H2797 C2791 0.931 . S
H2798 C2794 0.929 . S
C2799 C2795 1.482 . S
C2799 O2802 1.207 . S
C2799 O2803 1.289 . S
O2800 C2796 1.259 . S
O2800 H2804 0.822 . S
O2801 C2796 1.229 . S
O2802 C2799 1.207 . S
O2803 C2799 1.289 . S
O2803 H2805 0.819 . S
H2804 O2800 0.822 . S
H2805 O2803 0.819 . S
N2806 Co2770 1.869 . S
N2806 C2807 1.330 . S
N2806 C2811 1.325 . S
C2807 N2806 1.330 . S
C2807 C2808 1.359 . S
C2807 C2813 1.504 . S
C2808 C2807 1.359 . S
C2808 C2809 1.366 . S
C2808 H2842 0.929 . S
C2809 C2808 1.366 . S
C2809 C2810 1.415 . S
C2809 H2843 0.932 . S
C2810 C2809 1.415 . S
C2810 C2811 1.366 . S
C2810 H2844 0.931 . S
C2811 N2806 1.325 . S
C2811 C2810 1.366 . S
C2811 C2815 1.516 . S
N2812 Co2770 1.974 . S
N2812 C2813 1.309 . S
N2812 C2818 1.423 . S
C2813 C2807 1.504 . S
C2813 N2812 1.309 . S
C2813 O2814 1.258 . S
O2814 C2813 1.258 . S
C2815 N2788 1.316 . S
C2815 C2811 1.516 . S
C2815 O2828 1.263 . S
O2816 Cd2759 2.350 . S
O2816 C2832 1.270 . S
O2817 Cd2759 2.277 . S
O2817 C2832 1.248 . S
C2818 N2812 1.423 . S
C2818 C2819 1.370 . S
C2818 C2823 1.403 . S
C2819 C2818 1.370 . S
C2819 C2820 1.389 . S
C2819 H2845 0.931 . S
C2820 C2819 1.389 . S
C2820 C2821 1.389 . S
C2821 C2820 1.389 . S
C2821 C2822 1.379 . S
C2821 H2846 0.929 . S
C2822 C2821 1.379 . S
C2822 C2823 1.405 . S
C2823 C2818 1.403 . S
C2823 C2822 1.405 . S
C2823 H2847 0.932 . S
O2824 Cd2759 2.173 . S
O2824 C2760 1.277 . S
O2825 C2760 1.230 . S
O2825 Cd2763 2.250 . S
O2826 Cd2759 2.263 . S
O2826 C2779 1.258 . S
O2827 Cd2763 2.308 . S
O2827 C2779 1.274 . S
O2828 Cd2759 2.366 . S
O2828 C2815 1.263 . S
C2829 O2830 1.235 . S
C2829 O2831 1.270 . S
O2830 Cd2763 2.352 . S
O2830 C2829 1.235 . S
O2831 Cd2759 2.329 . S
O2831 C2829 1.270 . S
C2832 O2816 1.270 . S
C2832 O2817 1.248 . S
H2833 C2765 0.930 . S
H2834 C2768 0.930 . S
H2835 C2769 0.931 . S
H2836 C2774 0.929 . S
H2837 C2776 0.930 . S
H2838 C2778 0.930 . S
H2839 C2781 0.929 . S
H2840 C2782 0.932 . S
H2841 C2784 0.930 . S
H2842 C2808 0.929 . S
H2843 C2809 0.932 . S
H2844 C2810 0.931 . S
H2845 C2819 0.931 . S
H2846 C2821 0.929 . S
H2847 C2823 0.932 . S
Cd2848 O2905 2.350 . S
Cd2848 O2906 2.277 . S
Cd2848 O2913 2.173 . S
Cd2848 O2915 2.263 . S
Cd2848 O2917 2.366 . S
Cd2848 O2920 2.329 . S
C2849 O2913 1.277 . S
C2849 O2914 1.230 . S
C2850 O2851 1.246 . S
C2850 C2853 1.481 . S
C2850 N2875 1.329 . S
O2851 C2850 1.246 . S
Cd2852 O2914 2.250 . S
Cd2852 O2916 2.308 . S
Cd2852 O2919 2.352 . S
C2853 C2850 1.481 . S
C2853 N2856 1.327 . S
C2853 C2857 1.407 . S
C2854 C2855 1.346 . S
C2854 C2858 1.390 . S
C2854 H2922 0.930 . S
C2855 C2854 1.346 . S
C2855 N2856 1.342 . S
C2855 C2860 1.516 . S
N2856 C2853 1.327 . S
N2856 C2855 1.342 . S
N2856 Co2859 1.864 . S
C2857 C2853 1.407 . S
C2857 C2858 1.364 . S
C2857 H2923 0.930 . S
C2858 C2854 1.390 . S
C2858 C2857 1.364 . S
C2858 H2924 0.931 . S
Co2859 N2856 1.864 . S
Co2859 N2875 1.955 . S
Co2859 N2876 1.958 . S
Co2859 N2877 1.953 . S
Co2859 N2895 1.869 . S
Co2859 N2901 1.974 . S
C2860 C2855 1.516 . S
C2860 O2861 1.238 . S
C2860 N2876 1.324 . S
O2861 C2860 1.238 . S
C2862 C2863 1.394 . S
C2862 C2867 1.395 . S
C2862 N2876 1.427 . S
C2863 C2862 1.394 . S
C2863 C2864 1.380 . S
C2863 H2925 0.929 . S
C2864 C2863 1.380 . S
C2864 C2865 1.384 . S
C2864 C2868 1.495 . S
C2865 C2864 1.384 . S
C2865 C2866 1.382 . S
C2865 H2926 0.930 . S
C2866 C2865 1.382 . S
C2866 C2867 1.398 . S
C2867 C2862 1.395 . S
C2867 C2866 1.398 . S
C2867 H2927 0.930 . S
C2868 C2864 1.495 . S
C2868 O2915 1.258 . S
C2868 O2916 1.274 . S
C2869 C2870 1.385 . S
C2869 C2871 1.381 . S
C2869 N2875 1.432 . S
C2870 C2869 1.385 . S
C2870 C2874 1.388 . S
C2870 H2928 0.929 . S
C2871 C2869 1.381 . S
C2871 C2872 1.371 . S
C2871 H2929 0.932 . S
C2872 C2871 1.371 . S
C2872 C2873 1.400 . S
C2873 C2872 1.400 . S
C2873 C2874 1.351 . S
C2873 H2930 0.930 . S
C2874 C2870 1.388 . S
C2874 C2873 1.351 . S
N2875 C2850 1.329 . S
N2875 Co2859 1.955 . S
N2875 C2869 1.432 . S
N2876 Co2859 1.958 . S
N2876 C2860 1.324 . S
N2876 C2862 1.427 . S
N2877 Co2859 1.953 . S
N2877 C2878 1.436 . S
N2877 C2904 1.316 . S
C2878 N2877 1.436 . S
C2878 C2879 1.421 . S
C2878 C2880 1.360 . S
C2879 C2878 1.421 . S
C2879 C2881 1.379 . S
C2879 H2882 0.929 . S
C2880 C2878 1.360 . S
C2880 C2884 1.393 . S
C2880 H2886 0.931 . S
C2881 C2879 1.379 . S
C2881 C2883 1.417 . S
C2881 C2885 1.505 . S
H2882 C2879 0.929 . S
C2883 C2881 1.417 . S
C2883 C2884 1.352 . S
C2883 H2887 0.929 . S
C2884 C2880 1.393 . S
C2884 C2883 1.352 . S
C2884 C2888 1.482 . S
C2885 C2881 1.505 . S
C2885 O2889 1.259 . S
C2885 O2890 1.229 . S
H2886 C2880 0.931 . S
H2887 C2883 0.929 . S
C2888 C2884 1.482 . S
C2888 O2891 1.207 . S
C2888 O2892 1.289 . S
O2889 C2885 1.259 . S
O2889 H2893 0.822 . S
O2890 C2885 1.229 . S
O2891 C2888 1.207 . S
O2892 C2888 1.289 . S
O2892 H2894 0.819 . S
H2893 O2889 0.822 . S
H2894 O2892 0.819 . S
N2895 Co2859 1.869 . S
N2895 C2896 1.330 . S
N2895 C2900 1.325 . S
C2896 N2895 1.330 . S
C2896 C2897 1.359 . S
C2896 C2902 1.504 . S
C2897 C2896 1.359 . S
C2897 C2898 1.366 . S
C2897 H2931 0.929 . S
C2898 C2897 1.366 . S
C2898 C2899 1.415 . S
C2898 H2932 0.932 . S
C2899 C2898 1.415 . S
C2899 C2900 1.366 . S
C2899 H2933 0.931 . S
C2900 N2895 1.325 . S
C2900 C2899 1.366 . S
C2900 C2904 1.516 . S
N2901 Co2859 1.974 . S
N2901 C2902 1.309 . S
N2901 C2907 1.423 . S
C2902 C2896 1.504 . S
C2902 N2901 1.309 . S
C2902 O2903 1.258 . S
O2903 C2902 1.258 . S
C2904 N2877 1.316 . S
C2904 C2900 1.516 . S
C2904 O2917 1.263 . S
O2905 Cd2848 2.350 . S
O2905 C2921 1.270 . S
O2906 Cd2848 2.277 . S
O2906 C2921 1.248 . S
C2907 N2901 1.423 . S
C2907 C2908 1.370 . S
C2907 C2912 1.403 . S
C2908 C2907 1.370 . S
C2908 C2909 1.389 . S
C2908 H2934 0.931 . S
C2909 C2908 1.389 . S
C2909 C2910 1.389 . S
C2910 C2909 1.389 . S
C2910 C2911 1.379 . S
C2910 H2935 0.929 . S
C2911 C2910 1.379 . S
C2911 C2912 1.405 . S
C2912 C2907 1.403 . S
C2912 C2911 1.405 . S
C2912 H2936 0.932 . S
O2913 Cd2848 2.173 . S
O2913 C2849 1.277 . S
O2914 C2849 1.230 . S
O2914 Cd2852 2.250 . S
O2915 Cd2848 2.263 . S
O2915 C2868 1.258 . S
O2916 Cd2852 2.308 . S
O2916 C2868 1.274 . S
O2917 Cd2848 2.366 . S
O2917 C2904 1.263 . S
C2918 O2919 1.235 . S
C2918 O2920 1.270 . S
O2919 Cd2852 2.352 . S
O2919 C2918 1.235 . S
O2920 Cd2848 2.329 . S
O2920 C2918 1.270 . S
C2921 O2905 1.270 . S
C2921 O2906 1.248 . S
H2922 C2854 0.930 . S
H2923 C2857 0.930 . S
H2924 C2858 0.931 . S
H2925 C2863 0.929 . S
H2926 C2865 0.930 . S
H2927 C2867 0.930 . S
H2928 C2870 0.929 . S
H2929 C2871 0.932 . S
H2930 C2873 0.930 . S
H2931 C2897 0.929 . S
H2932 C2898 0.932 . S
H2933 C2899 0.931 . S
H2934 C2908 0.931 . S
H2935 C2910 0.929 . S
H2936 C2912 0.932 . S
Cd2937 O2994 2.350 . S
Cd2937 O2995 2.277 . S
Cd2937 O3002 2.173 . S
Cd2937 O3004 2.263 . S
Cd2937 O3006 2.366 . S
Cd2937 O3009 2.329 . S
C2938 O3002 1.277 . S
C2938 O3003 1.230 . S
C2939 O2940 1.246 . S
C2939 C2942 1.481 . S
C2939 N2964 1.329 . S
O2940 C2939 1.246 . S
Cd2941 O3003 2.250 . S
Cd2941 O3005 2.308 . S
Cd2941 O3008 2.352 . S
C2942 C2939 1.481 . S
C2942 N2945 1.327 . S
C2942 C2946 1.407 . S
C2943 C2944 1.346 . S
C2943 C2947 1.390 . S
C2943 H3011 0.930 . S
C2944 C2943 1.346 . S
C2944 N2945 1.342 . S
C2944 C2949 1.516 . S
N2945 C2942 1.327 . S
N2945 C2944 1.342 . S
N2945 Co2948 1.864 . S
C2946 C2942 1.407 . S
C2946 C2947 1.364 . S
C2946 H3012 0.930 . S
C2947 C2943 1.390 . S
C2947 C2946 1.364 . S
C2947 H3013 0.931 . S
Co2948 N2945 1.864 . S
Co2948 N2964 1.955 . S
Co2948 N2965 1.958 . S
Co2948 N2966 1.953 . S
Co2948 N2984 1.869 . S
Co2948 N2990 1.974 . S
C2949 C2944 1.516 . S
C2949 O2950 1.238 . S
C2949 N2965 1.324 . S
O2950 C2949 1.238 . S
C2951 C2952 1.394 . S
C2951 C2956 1.395 . S
C2951 N2965 1.427 . S
C2952 C2951 1.394 . S
C2952 C2953 1.380 . S
C2952 H3014 0.929 . S
C2953 C2952 1.380 . S
C2953 C2954 1.384 . S
C2953 C2957 1.495 . S
C2954 C2953 1.384 . S
C2954 C2955 1.382 . S
C2954 H3015 0.930 . S
C2955 C2954 1.382 . S
C2955 C2956 1.398 . S
C2956 C2951 1.395 . S
C2956 C2955 1.398 . S
C2956 H3016 0.930 . S
C2957 C2953 1.495 . S
C2957 O3004 1.258 . S
C2957 O3005 1.274 . S
C2958 C2959 1.385 . S
C2958 C2960 1.381 . S
C2958 N2964 1.432 . S
C2959 C2958 1.385 . S
C2959 C2963 1.388 . S
C2959 H3017 0.929 . S
C2960 C2958 1.381 . S
C2960 C2961 1.371 . S
C2960 H3018 0.932 . S
C2961 C2960 1.371 . S
C2961 C2962 1.400 . S
C2962 C2961 1.400 . S
C2962 C2963 1.351 . S
C2962 H3019 0.930 . S
C2963 C2959 1.388 . S
C2963 C2962 1.351 . S
N2964 C2939 1.329 . S
N2964 Co2948 1.955 . S
N2964 C2958 1.432 . S
N2965 Co2948 1.958 . S
N2965 C2949 1.324 . S
N2965 C2951 1.427 . S
N2966 Co2948 1.953 . S
N2966 C2967 1.436 . S
N2966 C2993 1.316 . S
C2967 N2966 1.436 . S
C2967 C2968 1.421 . S
C2967 C2969 1.360 . S
C2968 C2967 1.421 . S
C2968 C2970 1.379 . S
C2968 H2971 0.929 . S
C2969 C2967 1.360 . S
C2969 C2973 1.393 . S
C2969 H2975 0.931 . S
C2970 C2968 1.379 . S
C2970 C2972 1.417 . S
C2970 C2974 1.505 . S
H2971 C2968 0.929 . S
C2972 C2970 1.417 . S
C2972 C2973 1.352 . S
C2972 H2976 0.929 . S
C2973 C2969 1.393 . S
C2973 C2972 1.352 . S
C2973 C2977 1.482 . S
C2974 C2970 1.505 . S
C2974 O2978 1.259 . S
C2974 O2979 1.229 . S
H2975 C2969 0.931 . S
H2976 C2972 0.929 . S
C2977 C2973 1.482 . S
C2977 O2980 1.207 . S
C2977 O2981 1.289 . S
O2978 C2974 1.259 . S
O2978 H2982 0.822 . S
O2979 C2974 1.229 . S
O2980 C2977 1.207 . S
O2981 C2977 1.289 . S
O2981 H2983 0.819 . S
H2982 O2978 0.822 . S
H2983 O2981 0.819 . S
N2984 Co2948 1.869 . S
N2984 C2985 1.330 . S
N2984 C2989 1.325 . S
C2985 N2984 1.330 . S
C2985 C2986 1.359 . S
C2985 C2991 1.504 . S
C2986 C2985 1.359 . S
C2986 C2987 1.366 . S
C2986 H3020 0.929 . S
C2987 C2986 1.366 . S
C2987 C2988 1.415 . S
C2987 H3021 0.932 . S
C2988 C2987 1.415 . S
C2988 C2989 1.366 . S
C2988 H3022 0.931 . S
C2989 N2984 1.325 . S
C2989 C2988 1.366 . S
C2989 C2993 1.516 . S
N2990 Co2948 1.974 . S
N2990 C2991 1.309 . S
N2990 C2996 1.423 . S
C2991 C2985 1.504 . S
C2991 N2990 1.309 . S
C2991 O2992 1.258 . S
O2992 C2991 1.258 . S
C2993 N2966 1.316 . S
C2993 C2989 1.516 . S
C2993 O3006 1.263 . S
O2994 Cd2937 2.350 . S
O2994 C3010 1.270 . S
O2995 Cd2937 2.277 . S
O2995 C3010 1.248 . S
C2996 N2990 1.423 . S
C2996 C2997 1.370 . S
C2996 C3001 1.403 . S
C2997 C2996 1.370 . S
C2997 C2998 1.389 . S
C2997 H3023 0.931 . S
C2998 C2997 1.389 . S
C2998 C2999 1.389 . S
C2999 C2998 1.389 . S
C2999 C3000 1.379 . S
C2999 H3024 0.929 . S
C3000 C2999 1.379 . S
C3000 C3001 1.405 . S
C3001 C2996 1.403 . S
C3001 C3000 1.405 . S
C3001 H3025 0.932 . S
O3002 Cd2937 2.173 . S
O3002 C2938 1.277 . S
O3003 C2938 1.230 . S
O3003 Cd2941 2.250 . S
O3004 Cd2937 2.263 . S
O3004 C2957 1.258 . S
O3005 Cd2941 2.308 . S
O3005 C2957 1.274 . S
O3006 Cd2937 2.366 . S
O3006 C2993 1.263 . S
C3007 O3008 1.235 . S
C3007 O3009 1.270 . S
O3008 Cd2941 2.352 . S
O3008 C3007 1.235 . S
O3009 Cd2937 2.329 . S
O3009 C3007 1.270 . S
C3010 O2994 1.270 . S
C3010 O2995 1.248 . S
H3011 C2943 0.930 . S
H3012 C2946 0.930 . S
H3013 C2947 0.931 . S
H3014 C2952 0.929 . S
H3015 C2954 0.930 . S
H3016 C2956 0.930 . S
H3017 C2959 0.929 . S
H3018 C2960 0.932 . S
H3019 C2962 0.930 . S
H3020 C2986 0.929 . S
H3021 C2987 0.932 . S
H3022 C2988 0.931 . S
H3023 C2997 0.931 . S
H3024 C2999 0.929 . S
H3025 C3001 0.932 . S
Cd3026 O3083 2.350 . S
Cd3026 O3084 2.277 . S
Cd3026 O3091 2.173 . S
Cd3026 O3093 2.263 . S
Cd3026 O3095 2.366 . S
Cd3026 O3098 2.329 . S
C3027 O3091 1.277 . S
C3027 O3092 1.230 . S
C3028 O3029 1.246 . S
C3028 C3031 1.481 . S
C3028 N3053 1.329 . S
O3029 C3028 1.246 . S
Cd3030 O3092 2.250 . S
Cd3030 O3094 2.308 . S
Cd3030 O3097 2.352 . S
C3031 C3028 1.481 . S
C3031 N3034 1.327 . S
C3031 C3035 1.407 . S
C3032 C3033 1.346 . S
C3032 C3036 1.390 . S
C3032 H3100 0.930 . S
C3033 C3032 1.346 . S
C3033 N3034 1.342 . S
C3033 C3038 1.516 . S
N3034 C3031 1.327 . S
N3034 C3033 1.342 . S
N3034 Co3037 1.864 . S
C3035 C3031 1.407 . S
C3035 C3036 1.364 . S
C3035 H3101 0.930 . S
C3036 C3032 1.390 . S
C3036 C3035 1.364 . S
C3036 H3102 0.931 . S
Co3037 N3034 1.864 . S
Co3037 N3053 1.955 . S
Co3037 N3054 1.958 . S
Co3037 N3055 1.953 . S
Co3037 N3073 1.869 . S
Co3037 N3079 1.974 . S
C3038 C3033 1.516 . S
C3038 O3039 1.238 . S
C3038 N3054 1.324 . S
O3039 C3038 1.238 . S
C3040 C3041 1.394 . S
C3040 C3045 1.395 . S
C3040 N3054 1.427 . S
C3041 C3040 1.394 . S
C3041 C3042 1.380 . S
C3041 H3103 0.929 . S
C3042 C3041 1.380 . S
C3042 C3043 1.384 . S
C3042 C3046 1.495 . S
C3043 C3042 1.384 . S
C3043 C3044 1.382 . S
C3043 H3104 0.930 . S
C3044 C3043 1.382 . S
C3044 C3045 1.398 . S
C3045 C3040 1.395 . S
C3045 C3044 1.398 . S
C3045 H3105 0.930 . S
C3046 C3042 1.495 . S
C3046 O3093 1.258 . S
C3046 O3094 1.274 . S
C3047 C3048 1.385 . S
C3047 C3049 1.381 . S
C3047 N3053 1.432 . S
C3048 C3047 1.385 . S
C3048 C3052 1.388 . S
C3048 H3106 0.929 . S
C3049 C3047 1.381 . S
C3049 C3050 1.371 . S
C3049 H3107 0.932 . S
C3050 C3049 1.371 . S
C3050 C3051 1.400 . S
C3051 C3050 1.400 . S
C3051 C3052 1.351 . S
C3051 H3108 0.930 . S
C3052 C3048 1.388 . S
C3052 C3051 1.351 . S
N3053 C3028 1.329 . S
N3053 Co3037 1.955 . S
N3053 C3047 1.432 . S
N3054 Co3037 1.958 . S
N3054 C3038 1.324 . S
N3054 C3040 1.427 . S
N3055 Co3037 1.953 . S
N3055 C3056 1.436 . S
N3055 C3082 1.316 . S
C3056 N3055 1.436 . S
C3056 C3057 1.421 . S
C3056 C3058 1.360 . S
C3057 C3056 1.421 . S
C3057 C3059 1.379 . S
C3057 H3060 0.929 . S
C3058 C3056 1.360 . S
C3058 C3062 1.393 . S
C3058 H3064 0.931 . S
C3059 C3057 1.379 . S
C3059 C3061 1.417 . S
C3059 C3063 1.505 . S
H3060 C3057 0.929 . S
C3061 C3059 1.417 . S
C3061 C3062 1.352 . S
C3061 H3065 0.929 . S
C3062 C3058 1.393 . S
C3062 C3061 1.352 . S
C3062 C3066 1.482 . S
C3063 C3059 1.505 . S
C3063 O3067 1.259 . S
C3063 O3068 1.229 . S
H3064 C3058 0.931 . S
H3065 C3061 0.929 . S
C3066 C3062 1.482 . S
C3066 O3069 1.207 . S
C3066 O3070 1.289 . S
O3067 C3063 1.259 . S
O3067 H3071 0.822 . S
O3068 C3063 1.229 . S
O3069 C3066 1.207 . S
O3070 C3066 1.289 . S
O3070 H3072 0.819 . S
H3071 O3067 0.822 . S
H3072 O3070 0.819 . S
N3073 Co3037 1.869 . S
N3073 C3074 1.330 . S
N3073 C3078 1.325 . S
C3074 N3073 1.330 . S
C3074 C3075 1.359 . S
C3074 C3080 1.504 . S
C3075 C3074 1.359 . S
C3075 C3076 1.366 . S
C3075 H3109 0.929 . S
C3076 C3075 1.366 . S
C3076 C3077 1.415 . S
C3076 H3110 0.932 . S
C3077 C3076 1.415 . S
C3077 C3078 1.366 . S
C3077 H3111 0.931 . S
C3078 N3073 1.325 . S
C3078 C3077 1.366 . S
C3078 C3082 1.516 . S
N3079 Co3037 1.974 . S
N3079 C3080 1.309 . S
N3079 C3085 1.423 . S
C3080 C3074 1.504 . S
C3080 N3079 1.309 . S
C3080 O3081 1.258 . S
O3081 C3080 1.258 . S
C3082 N3055 1.316 . S
C3082 C3078 1.516 . S
C3082 O3095 1.263 . S
O3083 Cd3026 2.350 . S
O3083 C3099 1.270 . S
O3084 Cd3026 2.277 . S
O3084 C3099 1.248 . S
C3085 N3079 1.423 . S
C3085 C3086 1.370 . S
C3085 C3090 1.403 . S
C3086 C3085 1.370 . S
C3086 C3087 1.389 . S
C3086 H3112 0.931 . S
C3087 C3086 1.389 . S
C3087 C3088 1.389 . S
C3088 C3087 1.389 . S
C3088 C3089 1.379 . S
C3088 H3113 0.929 . S
C3089 C3088 1.379 . S
C3089 C3090 1.405 . S
C3090 C3085 1.403 . S
C3090 C3089 1.405 . S
C3090 H3114 0.932 . S
O3091 Cd3026 2.173 . S
O3091 C3027 1.277 . S
O3092 C3027 1.230 . S
O3092 Cd3030 2.250 . S
O3093 Cd3026 2.263 . S
O3093 C3046 1.258 . S
O3094 Cd3030 2.308 . S
O3094 C3046 1.274 . S
O3095 Cd3026 2.366 . S
O3095 C3082 1.263 . S
C3096 O3097 1.235 . S
C3096 O3098 1.270 . S
O3097 Cd3030 2.352 . S
O3097 C3096 1.235 . S
O3098 Cd3026 2.329 . S
O3098 C3096 1.270 . S
C3099 O3083 1.270 . S
C3099 O3084 1.248 . S
H3100 C3032 0.930 . S
H3101 C3035 0.930 . S
H3102 C3036 0.931 . S
H3103 C3041 0.929 . S
H3104 C3043 0.930 . S
H3105 C3045 0.930 . S
H3106 C3048 0.929 . S
H3107 C3049 0.932 . S
H3108 C3051 0.930 . S
H3109 C3075 0.929 . S
H3110 C3076 0.932 . S
H3111 C3077 0.931 . S
H3112 C3086 0.931 . S
H3113 C3088 0.929 . S
H3114 C3090 0.932 . S
Cd3115 O3172 2.350 . S
Cd3115 O3173 2.277 . S
Cd3115 O3180 2.173 . S
Cd3115 O3182 2.263 . S
Cd3115 O3184 2.366 . S
Cd3115 O3187 2.329 . S
C3116 O3180 1.277 . S
C3116 O3181 1.230 . S
C3117 O3118 1.246 . S
C3117 C3120 1.481 . S
C3117 N3142 1.329 . S
O3118 C3117 1.246 . S
Cd3119 O3181 2.250 . S
Cd3119 O3183 2.308 . S
Cd3119 O3186 2.352 . S
C3120 C3117 1.481 . S
C3120 N3123 1.327 . S
C3120 C3124 1.407 . S
C3121 C3122 1.346 . S
C3121 C3125 1.390 . S
C3121 H3189 0.930 . S
C3122 C3121 1.346 . S
C3122 N3123 1.342 . S
C3122 C3127 1.516 . S
N3123 C3120 1.327 . S
N3123 C3122 1.342 . S
N3123 Co3126 1.864 . S
C3124 C3120 1.407 . S
C3124 C3125 1.364 . S
C3124 H3190 0.930 . S
C3125 C3121 1.390 . S
C3125 C3124 1.364 . S
C3125 H3191 0.931 . S
Co3126 N3123 1.864 . S
Co3126 N3142 1.955 . S
Co3126 N3143 1.958 . S
Co3126 N3144 1.953 . S
Co3126 N3162 1.869 . S
Co3126 N3168 1.974 . S
C3127 C3122 1.516 . S
C3127 O3128 1.238 . S
C3127 N3143 1.324 . S
O3128 C3127 1.238 . S
C3129 C3130 1.394 . S
C3129 C3134 1.395 . S
C3129 N3143 1.427 . S
C3130 C3129 1.394 . S
C3130 C3131 1.380 . S
C3130 H3192 0.929 . S
C3131 C3130 1.380 . S
C3131 C3132 1.384 . S
C3131 C3135 1.495 . S
C3132 C3131 1.384 . S
C3132 C3133 1.382 . S
C3132 H3193 0.930 . S
C3133 C3132 1.382 . S
C3133 C3134 1.398 . S
C3134 C3129 1.395 . S
C3134 C3133 1.398 . S
C3134 H3194 0.930 . S
C3135 C3131 1.495 . S
C3135 O3182 1.258 . S
C3135 O3183 1.274 . S
C3136 C3137 1.385 . S
C3136 C3138 1.381 . S
C3136 N3142 1.432 . S
C3137 C3136 1.385 . S
C3137 C3141 1.388 . S
C3137 H3195 0.929 . S
C3138 C3136 1.381 . S
C3138 C3139 1.371 . S
C3138 H3196 0.932 . S
C3139 C3138 1.371 . S
C3139 C3140 1.400 . S
C3140 C3139 1.400 . S
C3140 C3141 1.351 . S
C3140 H3197 0.930 . S
C3141 C3137 1.388 . S
C3141 C3140 1.351 . S
N3142 C3117 1.329 . S
N3142 Co3126 1.955 . S
N3142 C3136 1.432 . S
N3143 Co3126 1.958 . S
N3143 C3127 1.324 . S
N3143 C3129 1.427 . S
N3144 Co3126 1.953 . S
N3144 C3145 1.436 . S
N3144 C3171 1.316 . S
C3145 N3144 1.436 . S
C3145 C3146 1.421 . S
C3145 C3147 1.360 . S
C3146 C3145 1.421 . S
C3146 C3148 1.379 . S
C3146 H3149 0.929 . S
C3147 C3145 1.360 . S
C3147 C3151 1.393 . S
C3147 H3153 0.931 . S
C3148 C3146 1.379 . S
C3148 C3150 1.417 . S
C3148 C3152 1.505 . S
H3149 C3146 0.929 . S
C3150 C3148 1.417 . S
C3150 C3151 1.352 . S
C3150 H3154 0.929 . S
C3151 C3147 1.393 . S
C3151 C3150 1.352 . S
C3151 C3155 1.482 . S
C3152 C3148 1.505 . S
C3152 O3156 1.259 . S
C3152 O3157 1.229 . S
H3153 C3147 0.931 . S
H3154 C3150 0.929 . S
C3155 C3151 1.482 . S
C3155 O3158 1.207 . S
C3155 O3159 1.289 . S
O3156 C3152 1.259 . S
O3156 H3160 0.822 . S
O3157 C3152 1.229 . S
O3158 C3155 1.207 . S
O3159 C3155 1.289 . S
O3159 H3161 0.819 . S
H3160 O3156 0.822 . S
H3161 O3159 0.819 . S
N3162 Co3126 1.869 . S
N3162 C3163 1.330 . S
N3162 C3167 1.325 . S
C3163 N3162 1.330 . S
C3163 C3164 1.359 . S
C3163 C3169 1.504 . S
C3164 C3163 1.359 . S
C3164 C3165 1.366 . S
C3164 H3198 0.929 . S
C3165 C3164 1.366 . S
C3165 C3166 1.415 . S
C3165 H3199 0.932 . S
C3166 C3165 1.415 . S
C3166 C3167 1.366 . S
C3166 H3200 0.931 . S
C3167 N3162 1.325 . S
C3167 C3166 1.366 . S
C3167 C3171 1.516 . S
N3168 Co3126 1.974 . S
N3168 C3169 1.309 . S
N3168 C3174 1.423 . S
C3169 C3163 1.504 . S
C3169 N3168 1.309 . S
C3169 O3170 1.258 . S
O3170 C3169 1.258 . S
C3171 N3144 1.316 . S
C3171 C3167 1.516 . S
C3171 O3184 1.263 . S
O3172 Cd3115 2.350 . S
O3172 C3188 1.270 . S
O3173 Cd3115 2.277 . S
O3173 C3188 1.248 . S
C3174 N3168 1.423 . S
C3174 C3175 1.370 . S
C3174 C3179 1.403 . S
C3175 C3174 1.370 . S
C3175 C3176 1.389 . S
C3175 H3201 0.931 . S
C3176 C3175 1.389 . S
C3176 C3177 1.389 . S
C3177 C3176 1.389 . S
C3177 C3178 1.379 . S
C3177 H3202 0.929 . S
C3178 C3177 1.379 . S
C3178 C3179 1.405 . S
C3179 C3174 1.403 . S
C3179 C3178 1.405 . S
C3179 H3203 0.932 . S
O3180 Cd3115 2.173 . S
O3180 C3116 1.277 . S
O3181 C3116 1.230 . S
O3181 Cd3119 2.250 . S
O3182 Cd3115 2.263 . S
O3182 C3135 1.258 . S
O3183 Cd3119 2.308 . S
O3183 C3135 1.274 . S
O3184 Cd3115 2.366 . S
O3184 C3171 1.263 . S
C3185 O3186 1.235 . S
C3185 O3187 1.270 . S
O3186 Cd3119 2.352 . S
O3186 C3185 1.235 . S
O3187 Cd3115 2.329 . S
O3187 C3185 1.270 . S
C3188 O3172 1.270 . S
C3188 O3173 1.248 . S
H3189 C3121 0.930 . S
H3190 C3124 0.930 . S
H3191 C3125 0.931 . S
H3192 C3130 0.929 . S
H3193 C3132 0.930 . S
H3194 C3134 0.930 . S
H3195 C3137 0.929 . S
H3196 C3138 0.932 . S
H3197 C3140 0.930 . S
H3198 C3164 0.929 . S
H3199 C3165 0.932 . S
H3200 C3166 0.931 . S
H3201 C3175 0.931 . S
H3202 C3177 0.929 . S
H3203 C3179 0.932 . S
C3204 C3205 1.387 . S
C3204 H3208 0.950 . S
C3204 C3213 1.390 . S
C3205 C3204 1.387 . S
C3205 C3207 1.387 . S
H3206 C3213 0.950 . S
C3207 C3205 1.387 . S
C3207 C3209 1.390 . S
C3207 H3211 0.950 . S
H3208 C3204 0.950 . S
C3209 C3207 1.390 . S
C3209 C3210 1.387 . S
C3209 H3212 0.950 . S
C3210 C3209 1.387 . S
C3210 C3213 1.387 . S
H3211 C3207 0.950 . S
H3212 C3209 0.950 . S
C3213 C3204 1.390 . S
C3213 H3206 0.950 . S
C3213 C3210 1.387 . S
C3214 C3215 1.387 . S
C3214 H3218 0.950 . S
C3214 C3223 1.390 . S
C3215 C3214 1.387 . S
C3215 C3217 1.387 . S
H3216 C3223 0.950 . S
C3217 C3215 1.387 . S
C3217 C3219 1.390 . S
C3217 H3221 0.950 . S
H3218 C3214 0.950 . S
C3219 C3217 1.390 . S
C3219 C3220 1.387 . S
C3219 H3222 0.950 . S
C3220 C3219 1.387 . S
C3220 C3223 1.387 . S
H3221 C3217 0.950 . S
H3222 C3219 0.950 . S
C3223 C3214 1.390 . S
C3223 H3216 0.950 . S
C3223 C3220 1.387 . S
C3224 C3225 1.387 . S
C3224 H3228 0.950 . S
C3224 C3233 1.390 . S
C3225 C3224 1.387 . S
C3225 C3227 1.387 . S
H3226 C3233 0.950 . S
C3227 C3225 1.387 . S
C3227 C3229 1.390 . S
C3227 H3231 0.950 . S
H3228 C3224 0.950 . S
C3229 C3227 1.390 . S
C3229 C3230 1.387 . S
C3229 H3232 0.950 . S
C3230 C3229 1.387 . S
C3230 C3233 1.387 . S
H3231 C3227 0.950 . S
H3232 C3229 0.950 . S
C3233 C3224 1.390 . S
C3233 H3226 0.950 . S
C3233 C3230 1.387 . S
C3234 C3235 1.387 . S
C3234 H3238 0.950 . S
C3234 C3243 1.390 . S
C3235 C3234 1.387 . S
C3235 C3237 1.387 . S
H3236 C3243 0.950 . S
C3237 C3235 1.387 . S
C3237 C3239 1.390 . S
C3237 H3241 0.950 . S
H3238 C3234 0.950 . S
C3239 C3237 1.390 . S
C3239 C3240 1.387 . S
C3239 H3242 0.950 . S
C3240 C3239 1.387 . S
C3240 C3243 1.387 . S
H3241 C3237 0.950 . S
H3242 C3239 0.950 . S
C3243 C3234 1.390 . S
C3243 H3236 0.950 . S
C3243 C3240 1.387 . S
C3244 C3245 1.387 . S
C3244 H3248 0.950 . S
C3244 C3253 1.390 . S
C3245 C3244 1.387 . S
C3245 C3247 1.387 . S
H3246 C3253 0.950 . S
C3247 C3245 1.387 . S
C3247 C3249 1.390 . S
C3247 H3251 0.950 . S
H3248 C3244 0.950 . S
C3249 C3247 1.390 . S
C3249 C3250 1.387 . S
C3249 H3252 0.950 . S
C3250 C3249 1.387 . S
C3250 C3253 1.387 . S
H3251 C3247 0.950 . S
H3252 C3249 0.950 . S
C3253 C3244 1.390 . S
C3253 H3246 0.950 . S
C3253 C3250 1.387 . S
C3254 C3255 1.387 . S
C3254 H3258 0.950 . S
C3254 C3263 1.390 . S
C3255 C3254 1.387 . S
C3255 C3257 1.387 . S
H3256 C3263 0.950 . S
C3257 C3255 1.387 . S
C3257 C3259 1.390 . S
C3257 H3261 0.950 . S
H3258 C3254 0.950 . S
C3259 C3257 1.390 . S
C3259 C3260 1.387 . S
C3259 H3262 0.950 . S
C3260 C3259 1.387 . S
C3260 C3263 1.387 . S
H3261 C3257 0.950 . S
H3262 C3259 0.950 . S
C3263 C3254 1.390 . S
C3263 H3256 0.950 . S
C3263 C3260 1.387 . S
C3264 C3265 1.387 . S
C3264 H3268 0.950 . S
C3264 C3273 1.390 . S
C3265 C3264 1.387 . S
C3265 C3267 1.387 . S
H3266 C3273 0.950 . S
C3267 C3265 1.387 . S
C3267 C3269 1.390 . S
C3267 H3271 0.950 . S
H3268 C3264 0.950 . S
C3269 C3267 1.390 . S
C3269 C3270 1.387 . S
C3269 H3272 0.950 . S
C3270 C3269 1.387 . S
C3270 C3273 1.387 . S
H3271 C3267 0.950 . S
H3272 C3269 0.950 . S
C3273 C3264 1.390 . S
C3273 H3266 0.950 . S
C3273 C3270 1.387 . S
C3274 C3275 1.387 . S
C3274 H3278 0.950 . S
C3274 C3283 1.390 . S
C3275 C3274 1.387 . S
C3275 C3277 1.387 . S
H3276 C3283 0.950 . S
C3277 C3275 1.387 . S
C3277 C3279 1.390 . S
C3277 H3281 0.950 . S
H3278 C3274 0.950 . S
C3279 C3277 1.390 . S
C3279 C3280 1.387 . S
C3279 H3282 0.950 . S
C3280 C3279 1.387 . S
C3280 C3283 1.387 . S
H3281 C3277 0.950 . S
H3282 C3279 0.950 . S
C3283 C3274 1.390 . S
C3283 H3276 0.950 . S
C3283 C3280 1.387 . S
C3284 C3285 1.387 . S
C3284 H3288 0.950 . S
C3284 C3293 1.390 . S
C3285 C3284 1.387 . S
C3285 C3287 1.387 . S
H3286 C3293 0.950 . S
C3287 C3285 1.387 . S
C3287 C3289 1.390 . S
C3287 H3291 0.950 . S
H3288 C3284 0.950 . S
C3289 C3287 1.390 . S
C3289 C3290 1.387 . S
C3289 H3292 0.950 . S
C3290 C3289 1.387 . S
C3290 C3293 1.387 . S
H3291 C3287 0.950 . S
H3292 C3289 0.950 . S
C3293 C3284 1.390 . S
C3293 H3286 0.950 . S
C3293 C3290 1.387 . S
C3294 C3295 1.387 . S
C3294 H3298 0.950 . S
C3294 C3303 1.390 . S
C3295 C3294 1.387 . S
C3295 C3297 1.387 . S
H3296 C3303 0.950 . S
C3297 C3295 1.387 . S
C3297 C3299 1.390 . S
C3297 H3301 0.950 . S
H3298 C3294 0.950 . S
C3299 C3297 1.390 . S
C3299 C3300 1.387 . S
C3299 H3302 0.950 . S
C3300 C3299 1.387 . S
C3300 C3303 1.387 . S
H3301 C3297 0.950 . S
H3302 C3299 0.950 . S
C3303 C3294 1.390 . S
C3303 H3296 0.950 . S
C3303 C3300 1.387 . S
C3304 C3305 1.387 . S
C3304 H3308 0.950 . S
C3304 C3313 1.390 . S
C3305 C3304 1.387 . S
C3305 C3307 1.387 . S
H3306 C3313 0.950 . S
C3307 C3305 1.387 . S
C3307 C3309 1.390 . S
C3307 H3311 0.950 . S
H3308 C3304 0.950 . S
C3309 C3307 1.390 . S
C3309 C3310 1.387 . S
C3309 H3312 0.950 . S
C3310 C3309 1.387 . S
C3310 C3313 1.387 . S
H3311 C3307 0.950 . S
H3312 C3309 0.950 . S
C3313 C3304 1.390 . S
C3313 H3306 0.950 . S
C3313 C3310 1.387 . S
C3314 C3315 1.387 . S
C3314 H3318 0.950 . S
C3314 C3323 1.390 . S
C3315 C3314 1.387 . S
C3315 C3317 1.387 . S
H3316 C3323 0.950 . S
C3317 C3315 1.387 . S
C3317 C3319 1.390 . S
C3317 H3321 0.950 . S
H3318 C3314 0.950 . S
C3319 C3317 1.390 . S
C3319 C3320 1.387 . S
C3319 H3322 0.950 . S
C3320 C3319 1.387 . S
C3320 C3323 1.387 . S
H3321 C3317 0.950 . S
H3322 C3319 0.950 . S
C3323 C3314 1.390 . S
C3323 H3316 0.950 . S
C3323 C3320 1.387 . S
C3324 C3325 1.387 . S
C3324 H3328 0.950 . S
C3324 C3333 1.390 1_455 S
C3325 C3324 1.387 . S
C3325 C3327 1.387 . S
H3326 C3333 0.950 . S
C3327 C3325 1.387 . S
C3327 C3329 1.390 1_455 S
C3327 H3331 0.950 . S
H3328 C3324 0.950 . S
C3329 C3327 1.390 1_655 S
C3329 C3330 1.387 . S
C3329 H3332 0.950 . S
C3330 C3329 1.387 . S
C3330 C3333 1.387 . S
H3331 C3327 0.950 . S
H3332 C3329 0.950 . S
C3333 C3324 1.390 1_655 S
C3333 H3326 0.950 . S
C3333 C3330 1.387 . S
C3334 C3335 1.387 . S
C3334 H3338 0.950 . S
C3334 C3343 1.390 . S
C3335 C3334 1.387 . S
C3335 C3337 1.387 . S
H3336 C3343 0.950 . S
C3337 C3335 1.387 . S
C3337 C3339 1.390 . S
C3337 H3341 0.950 . S
H3338 C3334 0.950 . S
C3339 C3337 1.390 . S
C3339 C3340 1.387 . S
C3339 H3342 0.950 . S
C3340 C3339 1.387 . S
C3340 C3343 1.387 . S
H3341 C3337 0.950 . S
H3342 C3339 0.950 . S
C3343 C3334 1.390 . S
C3343 H3336 0.950 . S
C3343 C3340 1.387 . S
C3344 C3345 1.387 . S
C3344 H3348 0.950 . S
C3344 C3353 1.390 1_545 S
C3345 C3344 1.387 . S
C3345 C3347 1.387 . S
H3346 C3353 0.950 . S
C3347 C3345 1.387 . S
C3347 C3349 1.390 1_545 S
C3347 H3351 0.950 . S
H3348 C3344 0.950 . S
C3349 C3347 1.390 1_565 S
C3349 C3350 1.387 . S
C3349 H3352 0.950 . S
C3350 C3349 1.387 . S
C3350 C3353 1.387 . S
H3351 C3347 0.950 . S
H3352 C3349 0.950 . S
C3353 C3344 1.390 1_565 S
C3353 H3346 0.950 . S
C3353 C3350 1.387 . S
C3354 C3355 1.387 . S
C3354 H3358 0.950 . S
C3354 C3363 1.390 1_565 S
C3355 C3354 1.387 . S
C3355 C3357 1.387 . S
H3356 C3363 0.950 . S
C3357 C3355 1.387 . S
C3357 C3359 1.390 1_565 S
C3357 H3361 0.950 . S
H3358 C3354 0.950 . S
C3359 C3357 1.390 1_545 S
C3359 C3360 1.387 . S
C3359 H3362 0.950 . S
C3360 C3359 1.387 . S
C3360 C3363 1.387 . S
H3361 C3357 0.950 . S
H3362 C3359 0.950 . S
C3363 C3354 1.390 1_545 S
C3363 H3356 0.950 . S
C3363 C3360 1.387 . S
C3364 C3365 1.396 . S
C3364 H3368 0.947 . S
C3364 C3373 1.379 1_655 S
C3365 C3364 1.396 . S
C3365 C3367 1.387 . S
H3366 C3373 0.950 . S
C3367 C3365 1.387 . S
C3367 C3369 1.379 1_655 S
C3367 H3371 0.950 . S
H3368 C3364 0.947 . S
C3369 C3367 1.379 1_455 S
C3369 C3370 1.396 . S
C3369 H3372 0.947 . S
C3370 C3369 1.396 . S
C3370 C3373 1.387 . S
H3371 C3367 0.950 . S
H3372 C3369 0.947 . S
C3373 C3364 1.379 1_455 S
C3373 H3366 0.950 . S
C3373 C3370 1.387 . S
C3374 C3375 1.387 . S
C3374 H3378 0.950 . S
C3374 C3383 1.390 . S
C3375 C3374 1.387 . S
C3375 C3377 1.387 . S
H3376 C3383 0.950 . S
C3377 C3375 1.387 . S
C3377 C3379 1.390 . S
C3377 H3381 0.950 . S
H3378 C3374 0.950 . S
C3379 C3377 1.390 . S
C3379 C3380 1.387 . S
C3379 H3382 0.950 . S
C3380 C3379 1.387 . S
C3380 C3383 1.387 . S
H3381 C3377 0.950 . S
H3382 C3379 0.950 . S
C3383 C3374 1.390 . S
C3383 H3376 0.950 . S
C3383 C3380 1.387 . S
C3384 C3385 1.387 1_556 S
C3384 H3388 0.950 . S
C3384 C3393 1.390 . S
C3385 C3384 1.387 1_554 S
C3385 C3387 1.387 . S
H3386 C3393 0.950 . S
C3387 C3385 1.387 . S
C3387 C3389 1.390 . S
C3387 H3391 0.950 . S
H3388 C3384 0.950 . S
C3389 C3387 1.390 . S
C3389 C3390 1.387 . S
C3389 H3392 0.950 . S
C3390 C3389 1.387 . S
C3390 C3393 1.387 1_554 S
H3391 C3387 0.950 . S
H3392 C3389 0.950 . S
C3393 C3384 1.390 . S
C3393 H3386 0.950 . S
C3393 C3390 1.387 1_556 S
C3394 C3395 1.387 . S
C3394 H3398 0.950 . S
C3394 C3403 1.390 . S
C3395 C3394 1.387 . S
C3395 C3397 1.387 1_554 S
H3396 C3403 0.950 . S
C3397 C3395 1.387 1_556 S
C3397 C3399 1.390 . S
C3397 H3401 0.950 . S
H3398 C3394 0.950 . S
C3399 C3397 1.390 . S
C3399 C3400 1.387 1_556 S
C3399 H3402 0.950 . S
C3400 C3399 1.387 1_554 S
C3400 C3403 1.387 . S
H3401 C3397 0.950 . S
H3402 C3399 0.950 . S
C3403 C3394 1.390 . S
C3403 H3396 0.950 . S
C3403 C3400 1.387 . S
C3404 C3405 1.387 . S
C3404 H3408 0.950 . S
C3404 C3413 1.390 . S
C3405 C3404 1.387 . S
C3405 C3407 1.387 1_554 S
H3406 C3413 0.950 . S
C3407 C3405 1.387 1_556 S
C3407 C3409 1.390 . S
C3407 H3411 0.950 . S
H3408 C3404 0.950 . S
C3409 C3407 1.390 . S
C3409 C3410 1.387 1_556 S
C3409 H3412 0.950 . S
C3410 C3409 1.387 1_554 S
C3410 C3413 1.387 . S
H3411 C3407 0.950 . S
H3412 C3409 0.950 . S
C3413 C3404 1.390 . S
C3413 H3406 0.950 . S
C3413 C3410 1.387 . S
C3414 C3415 1.387 . S
C3414 H3418 0.950 . S
C3414 C3423 1.390 . S
C3415 C3414 1.387 . S
C3415 C3417 1.387 . S
H3416 C3423 0.950 . S
C3417 C3415 1.387 . S
C3417 C3419 1.390 . S
C3417 H3421 0.950 . S
H3418 C3414 0.950 . S
C3419 C3417 1.390 . S
C3419 C3420 1.387 . S
C3419 H3422 0.950 . S
C3420 C3419 1.387 . S
C3420 C3423 1.387 . S
H3421 C3417 0.950 . S
H3422 C3419 0.950 . S
C3423 C3414 1.390 . S
C3423 H3416 0.950 . S
C3423 C3420 1.387 . S
C3424 C3425 1.387 . S
C3424 H3428 0.950 . S
C3424 C3433 1.390 . S
C3425 C3424 1.387 . S
C3425 C3427 1.387 . S
H3426 C3433 0.950 . S
C3427 C3425 1.387 . S
C3427 C3429 1.390 . S
C3427 H3431 0.950 . S
H3428 C3424 0.950 . S
C3429 C3427 1.390 . S
C3429 C3430 1.387 . S
C3429 H3432 0.950 . S
C3430 C3429 1.387 . S
C3430 C3433 1.387 . S
H3431 C3427 0.950 . S
H3432 C3429 0.950 . S
C3433 C3424 1.390 . S
C3433 H3426 0.950 . S
C3433 C3430 1.387 . S
C3434 C3435 1.387 . S
C3434 H3438 0.950 . S
C3434 C3443 1.390 . S
C3435 C3434 1.387 . S
C3435 C3437 1.387 . S
H3436 C3443 0.950 . S
C3437 C3435 1.387 . S
C3437 C3439 1.390 . S
C3437 H3441 0.950 . S
H3438 C3434 0.950 . S
C3439 C3437 1.390 . S
C3439 C3440 1.387 . S
C3439 H3442 0.950 . S
C3440 C3439 1.387 . S
C3440 C3443 1.387 . S
H3441 C3437 0.950 . S
H3442 C3439 0.950 . S
C3443 C3434 1.390 . S
C3443 H3436 0.950 . S
C3443 C3440 1.387 . S
C3444 C3445 1.387 1_554 S
C3444 H3448 0.950 . S
C3444 C3453 1.390 . S
C3445 C3444 1.387 1_556 S
C3445 C3447 1.387 . S
H3446 C3453 0.950 . S
C3447 C3445 1.387 . S
C3447 C3449 1.390 . S
C3447 H3451 0.950 . S
H3448 C3444 0.950 . S
C3449 C3447 1.390 . S
C3449 C3450 1.387 . S
C3449 H3452 0.950 . S
C3450 C3449 1.387 . S
C3450 C3453 1.387 1_556 S
H3451 C3447 0.950 . S
H3452 C3449 0.950 . S
C3453 C3444 1.390 . S
C3453 H3446 0.950 . S
C3453 C3450 1.387 1_554 S
C3454 C3455 1.387 . S
C3454 H3458 0.950 . S
C3454 C3463 1.390 . S
C3455 C3454 1.387 . S
C3455 C3457 1.387 1_556 S
H3456 C3463 0.950 . S
C3457 C3455 1.387 1_554 S
C3457 C3459 1.390 . S
C3457 H3461 0.950 . S
H3458 C3454 0.950 . S
C3459 C3457 1.390 . S
C3459 C3460 1.387 1_554 S
C3459 H3462 0.950 . S
C3460 C3459 1.387 1_556 S
C3460 C3463 1.387 . S
H3461 C3457 0.950 . S
H3462 C3459 0.950 . S
C3463 C3454 1.390 . S
C3463 H3456 0.950 . S
C3463 C3460 1.387 . S
C3464 C3465 1.387 . S
C3464 H3468 0.950 . S
C3464 C3473 1.390 . S
C3465 C3464 1.387 . S
C3465 C3467 1.387 1_556 S
H3466 C3473 0.950 . S
C3467 C3465 1.387 1_554 S
C3467 C3469 1.390 . S
C3467 H3471 0.950 . S
H3468 C3464 0.950 . S
C3469 C3467 1.390 . S
C3469 C3470 1.387 1_554 S
C3469 H3472 0.950 . S
C3470 C3469 1.387 1_556 S
C3470 C3473 1.387 . S
H3471 C3467 0.950 . S
H3472 C3469 0.950 . S
C3473 C3464 1.390 . S
C3473 H3466 0.950 . S
C3473 C3470 1.387 . S
C3474 C3475 1.387 . S
C3474 H3478 0.950 . S
C3474 C3483 1.390 . S
C3475 C3474 1.387 . S
C3475 C3477 1.387 . S
H3476 C3483 0.950 . S
C3477 C3475 1.387 . S
C3477 C3479 1.390 . S
C3477 H3481 0.950 . S
H3478 C3474 0.950 . S
C3479 C3477 1.390 . S
C3479 C3480 1.387 . S
C3479 H3482 0.950 . S
C3480 C3479 1.387 . S
C3480 C3483 1.387 . S
H3481 C3477 0.950 . S
H3482 C3479 0.950 . S
C3483 C3474 1.390 . S
C3483 H3476 0.950 . S
C3483 C3480 1.387 . S
C3484 C3485 1.387 . S
C3484 H3488 0.950 . S
C3484 C3493 1.390 . S
C3485 C3484 1.387 . S
C3485 C3487 1.387 . S
H3486 C3493 0.950 . S
C3487 C3485 1.387 . S
C3487 C3489 1.390 . S
C3487 H3491 0.950 . S
H3488 C3484 0.950 . S
C3489 C3487 1.390 . S
C3489 C3490 1.387 . S
C3489 H3492 0.950 . S
C3490 C3489 1.387 . S
C3490 C3493 1.387 . S
H3491 C3487 0.950 . S
H3492 C3489 0.950 . S
C3493 C3484 1.390 . S
C3493 H3486 0.950 . S
C3493 C3490 1.387 . S
C3494 C3495 1.387 . S
C3494 H3498 0.950 . S
C3494 C3503 1.390 . S
C3495 C3494 1.387 . S
C3495 C3497 1.387 . S
H3496 C3503 0.950 . S
C3497 C3495 1.387 . S
C3497 C3499 1.390 . S
C3497 H3501 0.950 . S
H3498 C3494 0.950 . S
C3499 C3497 1.390 . S
C3499 C3500 1.387 . S
C3499 H3502 0.950 . S
C3500 C3499 1.387 . S
C3500 C3503 1.387 . S
H3501 C3497 0.950 . S
H3502 C3499 0.950 . S
C3503 C3494 1.390 . S
C3503 H3496 0.950 . S
C3503 C3500 1.387 . S
C3504 C3505 1.387 . S
C3504 H3508 0.950 . S
C3504 C3513 1.390 . S
C3505 C3504 1.387 . S
C3505 C3507 1.387 . S
H3506 C3513 0.950 . S
C3507 C3505 1.387 . S
C3507 C3509 1.390 . S
C3507 H3511 0.950 . S
H3508 C3504 0.950 . S
C3509 C3507 1.390 . S
C3509 C3510 1.387 . S
C3509 H3512 0.950 . S
C3510 C3509 1.387 . S
C3510 C3513 1.387 . S
H3511 C3507 0.950 . S
H3512 C3509 0.950 . S
C3513 C3504 1.390 . S
C3513 H3506 0.950 . S
C3513 C3510 1.387 . S
C3514 C3515 1.387 . S
C3514 H3518 0.950 . S
C3514 C3523 1.390 . S
C3515 C3514 1.387 . S
C3515 C3517 1.387 . S
H3516 C3523 0.950 . S
C3517 C3515 1.387 . S
C3517 C3519 1.390 . S
C3517 H3521 0.950 . S
H3518 C3514 0.950 . S
C3519 C3517 1.390 . S
C3519 C3520 1.387 . S
C3519 H3522 0.950 . S
C3520 C3519 1.387 . S
C3520 C3523 1.387 . S
H3521 C3517 0.950 . S
H3522 C3519 0.950 . S
C3523 C3514 1.390 . S
C3523 H3516 0.950 . S
C3523 C3520 1.387 . S
C3524 C3525 1.387 . S
C3524 H3528 0.950 . S
C3524 C3533 1.390 . S
C3525 C3524 1.387 . S
C3525 C3527 1.387 . S
H3526 C3533 0.950 . S
C3527 C3525 1.387 . S
C3527 C3529 1.390 . S
C3527 H3531 0.950 . S
H3528 C3524 0.950 . S
C3529 C3527 1.390 . S
C3529 C3530 1.387 . S
C3529 H3532 0.950 . S
C3530 C3529 1.387 . S
C3530 C3533 1.387 . S
H3531 C3527 0.950 . S
H3532 C3529 0.950 . S
C3533 C3524 1.390 . S
C3533 H3526 0.950 . S
C3533 C3530 1.387 . S
C3534 C3535 1.387 . S
C3534 H3538 0.950 . S
C3534 C3543 1.390 . S
C3535 C3534 1.387 . S
C3535 C3537 1.387 . S
H3536 C3543 0.950 . S
C3537 C3535 1.387 . S
C3537 C3539 1.390 . S
C3537 H3541 0.950 . S
H3538 C3534 0.950 . S
C3539 C3537 1.390 . S
C3539 C3540 1.387 . S
C3539 H3542 0.950 . S
C3540 C3539 1.387 . S
C3540 C3543 1.387 . S
H3541 C3537 0.950 . S
H3542 C3539 0.950 . S
C3543 C3534 1.390 . S
C3543 H3536 0.950 . S
C3543 C3540 1.387 . S
C3544 C3545 1.387 . S
C3544 H3548 0.950 . S
C3544 C3553 1.390 . S
C3545 C3544 1.387 . S
C3545 C3547 1.387 . S
H3546 C3553 0.950 . S
C3547 C3545 1.387 . S
C3547 C3549 1.390 . S
C3547 H3551 0.950 . S
H3548 C3544 0.950 . S
C3549 C3547 1.390 . S
C3549 C3550 1.387 . S
C3549 H3552 0.950 . S
C3550 C3549 1.387 . S
C3550 C3553 1.387 . S
H3551 C3547 0.950 . S
H3552 C3549 0.950 . S
C3553 C3544 1.390 . S
C3553 H3546 0.950 . S
C3553 C3550 1.387 . S
C3554 C3555 1.387 . S
C3554 H3558 0.950 . S
C3554 C3563 1.390 . S
C3555 C3554 1.387 . S
C3555 C3557 1.387 . S
H3556 C3563 0.950 . S
C3557 C3555 1.387 . S
C3557 C3559 1.390 . S
C3557 H3561 0.950 . S
H3558 C3554 0.950 . S
C3559 C3557 1.390 . S
C3559 C3560 1.387 . S
C3559 H3562 0.950 . S
C3560 C3559 1.387 . S
C3560 C3563 1.387 . S
H3561 C3557 0.950 . S
H3562 C3559 0.950 . S
C3563 C3554 1.390 . S
C3563 H3556 0.950 . S
C3563 C3560 1.387 . S
C3564 C3565 1.387 . S
C3564 H3568 0.950 . S
C3564 C3573 1.390 . S
C3565 C3564 1.387 . S
C3565 C3567 1.387 . S
H3566 C3573 0.950 . S
C3567 C3565 1.387 . S
C3567 C3569 1.390 . S
C3567 H3571 0.950 . S
H3568 C3564 0.950 . S
C3569 C3567 1.390 . S
C3569 C3570 1.387 . S
C3569 H3572 0.950 . S
C3570 C3569 1.387 . S
C3570 C3573 1.387 . S
H3571 C3567 0.950 . S
H3572 C3569 0.950 . S
C3573 C3564 1.390 . S
C3573 H3566 0.950 . S
C3573 C3570 1.387 . S
C3574 C3575 1.387 . S
C3574 H3578 0.950 . S
C3574 C3583 1.390 . S
C3575 C3574 1.387 . S
C3575 C3577 1.387 . S
H3576 C3583 0.950 . S
C3577 C3575 1.387 . S
C3577 C3579 1.390 . S
C3577 H3581 0.950 . S
H3578 C3574 0.950 . S
C3579 C3577 1.390 . S
C3579 C3580 1.387 . S
C3579 H3582 0.950 . S
C3580 C3579 1.387 . S
C3580 C3583 1.387 . S
H3581 C3577 0.950 . S
H3582 C3579 0.950 . S
C3583 C3574 1.390 . S
C3583 H3576 0.950 . S
C3583 C3580 1.387 . S
C3584 C3585 1.387 . S
C3584 H3588 0.950 . S
C3584 C3593 1.390 . S
C3585 C3584 1.387 . S
C3585 C3587 1.387 . S
H3586 C3593 0.950 . S
C3587 C3585 1.387 . S
C3587 C3589 1.390 . S
C3587 H3591 0.950 . S
H3588 C3584 0.950 . S
C3589 C3587 1.390 . S
C3589 C3590 1.387 . S
C3589 H3592 0.950 . S
C3590 C3589 1.387 . S
C3590 C3593 1.387 . S
H3591 C3587 0.950 . S
H3592 C3589 0.950 . S
C3593 C3584 1.390 . S
C3593 H3586 0.950 . S
C3593 C3590 1.387 . S
C3594 C3595 1.387 . S
C3594 H3598 0.950 . S
C3594 C3603 1.390 . S
C3595 C3594 1.387 . S
C3595 C3597 1.387 . S
H3596 C3603 0.950 . S
C3597 C3595 1.387 . S
C3597 C3599 1.390 . S
C3597 H3601 0.950 . S
H3598 C3594 0.950 . S
C3599 C3597 1.390 . S
C3599 C3600 1.387 . S
C3599 H3602 0.950 . S
C3600 C3599 1.387 . S
C3600 C3603 1.387 . S
H3601 C3597 0.950 . S
H3602 C3599 0.950 . S
C3603 C3594 1.390 . S
C3603 H3596 0.950 . S
C3603 C3600 1.387 . S
C3604 C3605 1.387 . S
C3604 H3608 0.950 . S
C3604 C3613 1.390 . S
C3605 C3604 1.387 . S
C3605 C3607 1.387 . S
H3606 C3613 0.950 . S
C3607 C3605 1.387 . S
C3607 C3609 1.390 . S
C3607 H3611 0.950 . S
H3608 C3604 0.950 . S
C3609 C3607 1.390 . S
C3609 C3610 1.387 . S
C3609 H3612 0.950 . S
C3610 C3609 1.387 . S
C3610 C3613 1.387 . S
H3611 C3607 0.950 . S
H3612 C3609 0.950 . S
C3613 C3604 1.390 . S
C3613 H3606 0.950 . S
C3613 C3610 1.387 . S
C3614 C3615 1.387 . S
C3614 H3618 0.950 . S
C3614 C3623 1.390 . S
C3615 C3614 1.387 . S
C3615 C3617 1.387 . S
H3616 C3623 0.950 . S
C3617 C3615 1.387 . S
C3617 C3619 1.390 . S
C3617 H3621 0.950 . S
H3618 C3614 0.950 . S
C3619 C3617 1.390 . S
C3619 C3620 1.387 . S
C3619 H3622 0.950 . S
C3620 C3619 1.387 . S
C3620 C3623 1.387 . S
H3621 C3617 0.950 . S
H3622 C3619 0.950 . S
C3623 C3614 1.390 . S
C3623 H3616 0.950 . S
C3623 C3620 1.387 . S
C3624 C3625 1.387 . S
C3624 H3628 0.950 . S
C3624 C3633 1.390 . S
C3625 C3624 1.387 . S
C3625 C3627 1.387 . S
H3626 C3633 0.950 . S
C3627 C3625 1.387 . S
C3627 C3629 1.390 . S
C3627 H3631 0.950 . S
H3628 C3624 0.950 . S
C3629 C3627 1.390 . S
C3629 C3630 1.387 . S
C3629 H3632 0.950 . S
C3630 C3629 1.387 . S
C3630 C3633 1.387 . S
H3631 C3627 0.950 . S
H3632 C3629 0.950 . S
C3633 C3624 1.390 . S
C3633 H3626 0.950 . S
C3633 C3630 1.387 . S
C3634 C3635 1.387 . S
C3634 H3638 0.950 . S
C3634 C3643 1.390 . S
C3635 C3634 1.387 . S
C3635 C3637 1.387 . S
H3636 C3643 0.950 . S
C3637 C3635 1.387 . S
C3637 C3639 1.390 . S
C3637 H3641 0.950 . S
H3638 C3634 0.950 . S
C3639 C3637 1.390 . S
C3639 C3640 1.387 . S
C3639 H3642 0.950 . S
C3640 C3639 1.387 . S
C3640 C3643 1.387 . S
H3641 C3637 0.950 . S
H3642 C3639 0.950 . S
C3643 C3634 1.390 . S
C3643 H3636 0.950 . S
C3643 C3640 1.387 . S
C3644 C3645 1.387 . S
C3644 H3648 0.950 . S
C3644 C3653 1.390 . S
C3645 C3644 1.387 . S
C3645 C3647 1.387 . S
H3646 C3653 0.950 . S
C3647 C3645 1.387 . S
C3647 C3649 1.390 . S
C3647 H3651 0.950 . S
H3648 C3644 0.950 . S
C3649 C3647 1.390 . S
C3649 C3650 1.387 . S
C3649 H3652 0.950 . S
C3650 C3649 1.387 . S
C3650 C3653 1.387 . S
H3651 C3647 0.950 . S
H3652 C3649 0.950 . S
C3653 C3644 1.390 . S
C3653 H3646 0.950 . S
C3653 C3650 1.387 . S
C3654 C3655 1.387 . S
C3654 H3658 0.950 . S
C3654 C3663 1.390 . S
C3655 C3654 1.387 . S
C3655 C3657 1.387 . S
H3656 C3663 0.950 . S
C3657 C3655 1.387 . S
C3657 C3659 1.390 . S
C3657 H3661 0.950 . S
H3658 C3654 0.950 . S
C3659 C3657 1.390 . S
C3659 C3660 1.387 . S
C3659 H3662 0.950 . S
C3660 C3659 1.387 . S
C3660 C3663 1.387 . S
H3661 C3657 0.950 . S
H3662 C3659 0.950 . S
C3663 C3654 1.390 . S
C3663 H3656 0.950 . S
C3663 C3660 1.387 . S
C3664 C3665 1.387 . S
C3664 H3668 0.950 . S
C3664 C3673 1.390 . S
C3665 C3664 1.387 . S
C3665 C3667 1.387 . S
H3666 C3673 0.950 . S
C3667 C3665 1.387 . S
C3667 C3669 1.390 . S
C3667 H3671 0.950 . S
H3668 C3664 0.950 . S
C3669 C3667 1.390 . S
C3669 C3670 1.387 . S
C3669 H3672 0.950 . S
C3670 C3669 1.387 . S
C3670 C3673 1.387 . S
H3671 C3667 0.950 . S
H3672 C3669 0.950 . S
C3673 C3664 1.390 . S
C3673 H3666 0.950 . S
C3673 C3670 1.387 . S
C3674 C3675 1.387 . S
C3674 H3678 0.950 . S
C3674 C3683 1.390 . S
C3675 C3674 1.387 . S
C3675 C3677 1.387 . S
H3676 C3683 0.950 . S
C3677 C3675 1.387 . S
C3677 C3679 1.390 . S
C3677 H3681 0.950 . S
H3678 C3674 0.950 . S
C3679 C3677 1.390 . S
C3679 C3680 1.387 . S
C3679 H3682 0.950 . S
C3680 C3679 1.387 . S
C3680 C3683 1.387 . S
H3681 C3677 0.950 . S
H3682 C3679 0.950 . S
C3683 C3674 1.390 . S
C3683 H3676 0.950 . S
C3683 C3680 1.387 . S
C3684 C3685 1.387 . S
C3684 H3688 0.950 . S
C3684 C3693 1.390 . S
C3685 C3684 1.387 . S
C3685 C3687 1.387 . S
H3686 C3693 0.950 . S
C3687 C3685 1.387 . S
C3687 C3689 1.390 . S
C3687 H3691 0.950 . S
H3688 C3684 0.950 . S
C3689 C3687 1.390 . S
C3689 C3690 1.387 . S
C3689 H3692 0.950 . S
C3690 C3689 1.387 . S
C3690 C3693 1.387 . S
H3691 C3687 0.950 . S
H3692 C3689 0.950 . S
C3693 C3684 1.390 . S
C3693 H3686 0.950 . S
C3693 C3690 1.387 . S
C3694 C3695 1.387 . S
C3694 H3698 0.950 . S
C3694 C3703 1.390 . S
C3695 C3694 1.387 . S
C3695 C3697 1.387 . S
H3696 C3703 0.950 . S
C3697 C3695 1.387 . S
C3697 C3699 1.390 . S
C3697 H3701 0.950 . S
H3698 C3694 0.950 . S
C3699 C3697 1.390 . S
C3699 C3700 1.387 . S
C3699 H3702 0.950 . S
C3700 C3699 1.387 . S
C3700 C3703 1.387 . S
H3701 C3697 0.950 . S
H3702 C3699 0.950 . S
C3703 C3694 1.390 . S
C3703 H3696 0.950 . S
C3703 C3700 1.387 . S
C3704 C3705 1.387 . S
C3704 H3708 0.950 . S
C3704 C3713 1.390 . S
C3705 C3704 1.387 . S
C3705 C3707 1.387 . S
H3706 C3713 0.950 . S
C3707 C3705 1.387 . S
C3707 C3709 1.390 . S
C3707 H3711 0.950 . S
H3708 C3704 0.950 . S
C3709 C3707 1.390 . S
C3709 C3710 1.387 . S
C3709 H3712 0.950 . S
C3710 C3709 1.387 . S
C3710 C3713 1.387 . S
H3711 C3707 0.950 . S
H3712 C3709 0.950 . S
C3713 C3704 1.390 . S
C3713 H3706 0.950 . S
C3713 C3710 1.387 . S
C3714 C3715 1.387 . S
C3714 H3718 0.950 . S
C3714 C3723 1.390 . S
C3715 C3714 1.387 . S
C3715 C3717 1.387 . S
H3716 C3723 0.950 . S
C3717 C3715 1.387 . S
C3717 C3719 1.390 . S
C3717 H3721 0.950 . S
H3718 C3714 0.950 . S
C3719 C3717 1.390 . S
C3719 C3720 1.387 . S
C3719 H3722 0.950 . S
C3720 C3719 1.387 . S
C3720 C3723 1.387 . S
H3721 C3717 0.950 . S
H3722 C3719 0.950 . S
C3723 C3714 1.390 . S
C3723 H3716 0.950 . S
C3723 C3720 1.387 . S
C3724 C3725 1.387 . S
C3724 H3728 0.950 . S
C3724 C3733 1.390 . S
C3725 C3724 1.387 . S
C3725 C3727 1.387 . S
H3726 C3733 0.950 . S
C3727 C3725 1.387 . S
C3727 C3729 1.390 . S
C3727 H3731 0.950 . S
H3728 C3724 0.950 . S
C3729 C3727 1.390 . S
C3729 C3730 1.387 . S
C3729 H3732 0.950 . S
C3730 C3729 1.387 . S
C3730 C3733 1.387 . S
H3731 C3727 0.950 . S
H3732 C3729 0.950 . S
C3733 C3724 1.390 . S
C3733 H3726 0.950 . S
C3733 C3730 1.387 . S
C3734 C3735 1.387 . S
C3734 H3738 0.950 . S
C3734 C3743 1.390 . S
C3735 C3734 1.387 . S
C3735 C3737 1.387 . S
H3736 C3743 0.950 . S
C3737 C3735 1.387 . S
C3737 C3739 1.390 . S
C3737 H3741 0.950 . S
H3738 C3734 0.950 . S
C3739 C3737 1.390 . S
C3739 C3740 1.387 . S
C3739 H3742 0.950 . S
C3740 C3739 1.387 . S
C3740 C3743 1.387 . S
H3741 C3737 0.950 . S
H3742 C3739 0.950 . S
C3743 C3734 1.390 . S
C3743 H3736 0.950 . S
C3743 C3740 1.387 . S
C3744 C3745 1.387 . S
C3744 H3748 0.950 . S
C3744 C3753 1.390 1_565 S
C3745 C3744 1.387 . S
C3745 C3747 1.387 . S
H3746 C3753 0.950 . S
C3747 C3745 1.387 . S
C3747 C3749 1.390 1_565 S
C3747 H3751 0.950 . S
H3748 C3744 0.950 . S
C3749 C3747 1.390 1_545 S
C3749 C3750 1.387 . S
C3749 H3752 0.950 . S
C3750 C3749 1.387 . S
C3750 C3753 1.387 . S
H3751 C3747 0.950 . S
H3752 C3749 0.950 . S
C3753 C3744 1.390 1_545 S
C3753 H3746 0.950 . S
C3753 C3750 1.387 . S
C3754 C3755 1.387 . S
C3754 H3758 0.950 . S
C3754 C3763 1.390 1_455 S
C3755 C3754 1.387 . S
C3755 C3757 1.387 . S
H3756 C3763 0.950 . S
C3757 C3755 1.387 . S
C3757 C3759 1.390 1_455 S
C3757 H3761 0.950 . S
H3758 C3754 0.950 . S
C3759 C3757 1.390 1_655 S
C3759 C3760 1.387 . S
C3759 H3762 0.950 . S
C3760 C3759 1.387 . S
C3760 C3763 1.387 . S
H3761 C3757 0.950 . S
H3762 C3759 0.950 . S
C3763 C3754 1.390 1_655 S
C3763 H3756 0.950 . S
C3763 C3760 1.387 . S
C3764 C3765 1.387 . S
C3764 H3768 0.950 . S
C3764 C3773 1.390 . S
C3765 C3764 1.387 . S
C3765 C3767 1.387 . S
H3766 C3773 0.950 . S
C3767 C3765 1.387 . S
C3767 C3769 1.390 . S
C3767 H3771 0.950 . S
H3768 C3764 0.950 . S
C3769 C3767 1.390 . S
C3769 C3770 1.387 . S
C3769 H3772 0.950 . S
C3770 C3769 1.387 . S
C3770 C3773 1.387 . S
H3771 C3767 0.950 . S
H3772 C3769 0.950 . S
C3773 C3764 1.390 . S
C3773 H3766 0.950 . S
C3773 C3770 1.387 . S
C3774 C3775 1.387 . S
C3774 H3778 0.950 . S
C3774 C3783 1.390 1_545 S
C3775 C3774 1.387 . S
C3775 C3777 1.387 . S
H3776 C3783 0.950 . S
C3777 C3775 1.387 . S
C3777 C3779 1.390 1_545 S
C3777 H3781 0.950 . S
H3778 C3774 0.950 . S
C3779 C3777 1.390 1_565 S
C3779 C3780 1.387 . S
C3779 H3782 0.950 . S
C3780 C3779 1.387 . S
C3780 C3783 1.387 . S
H3781 C3777 0.950 . S
H3782 C3779 0.950 . S
C3783 C3774 1.390 1_565 S
C3783 H3776 0.950 . S
C3783 C3780 1.387 . S
C3784 C3785 1.387 . S
C3784 H3788 0.950 . S
C3784 C3793 1.390 1_455 S
C3785 C3784 1.387 . S
C3785 C3787 1.387 . S
H3786 C3793 0.950 . S
C3787 C3785 1.387 . S
C3787 C3789 1.390 1_455 S
C3787 H3791 0.950 . S
H3788 C3784 0.950 . S
C3789 C3787 1.390 1_655 S
C3789 C3790 1.387 . S
C3789 H3792 0.950 . S
C3790 C3789 1.387 . S
C3790 C3793 1.387 . S
H3791 C3787 0.950 . S
H3792 C3789 0.950 . S
C3793 C3784 1.390 1_655 S
C3793 H3786 0.950 . S
C3793 C3790 1.387 . S
C3794 C3795 1.387 . S
C3794 H3798 0.950 . S
C3794 C3803 1.390 . S
C3795 C3794 1.387 . S
C3795 C3797 1.387 . S
H3796 C3803 0.950 . S
C3797 C3795 1.387 . S
C3797 C3799 1.390 . S
C3797 H3801 0.950 . S
H3798 C3794 0.950 . S
C3799 C3797 1.390 . S
C3799 C3800 1.387 . S
C3799 H3802 0.950 . S
C3800 C3799 1.387 . S
C3800 C3803 1.387 . S
H3801 C3797 0.950 . S
H3802 C3799 0.950 . S
C3803 C3794 1.390 . S
C3803 H3796 0.950 . S
C3803 C3800 1.387 . S
C3804 C3805 1.387 . S
C3804 H3808 0.950 . S
C3804 C3813 1.390 . S
C3805 C3804 1.387 . S
C3805 C3807 1.387 . S
H3806 C3813 0.950 . S
C3807 C3805 1.387 . S
C3807 C3809 1.390 . S
C3807 H3811 0.950 . S
H3808 C3804 0.950 . S
C3809 C3807 1.390 . S
C3809 C3810 1.387 . S
C3809 H3812 0.950 . S
C3810 C3809 1.387 . S
C3810 C3813 1.387 . S
H3811 C3807 0.950 . S
H3812 C3809 0.950 . S
C3813 C3804 1.390 . S
C3813 H3806 0.950 . S
C3813 C3810 1.387 . S
C3814 C3815 1.387 . S
C3814 H3818 0.950 . S
C3814 C3823 1.390 . S
C3815 C3814 1.387 . S
C3815 C3817 1.387 . S
H3816 C3823 0.950 . S
C3817 C3815 1.387 . S
C3817 C3819 1.390 . S
C3817 H3821 0.950 . S
H3818 C3814 0.950 . S
C3819 C3817 1.390 . S
C3819 C3820 1.387 . S
C3819 H3822 0.950 . S
C3820 C3819 1.387 . S
C3820 C3823 1.387 . S
H3821 C3817 0.950 . S
H3822 C3819 0.950 . S
C3823 C3814 1.390 . S
C3823 H3816 0.950 . S
C3823 C3820 1.387 . S
C3824 C3825 1.387 . S
C3824 H3828 0.950 . S
C3824 C3833 1.390 . S
C3825 C3824 1.387 . S
C3825 C3827 1.387 . S
H3826 C3833 0.950 . S
C3827 C3825 1.387 . S
C3827 C3829 1.390 . S
C3827 H3831 0.950 . S
H3828 C3824 0.950 . S
C3829 C3827 1.390 . S
C3829 C3830 1.387 . S
C3829 H3832 0.950 . S
C3830 C3829 1.387 . S
C3830 C3833 1.387 . S
H3831 C3827 0.950 . S
H3832 C3829 0.950 . S
C3833 C3824 1.390 . S
C3833 H3826 0.950 . S
C3833 C3830 1.387 . S
C3834 C3835 1.387 . S
C3834 H3838 0.950 . S
C3834 C3843 1.390 . S
C3835 C3834 1.387 . S
C3835 C3837 1.387 . S
H3836 C3843 0.950 . S
C3837 C3835 1.387 . S
C3837 C3839 1.390 . S
C3837 H3841 0.950 . S
H3838 C3834 0.950 . S
C3839 C3837 1.390 . S
C3839 C3840 1.387 . S
C3839 H3842 0.950 . S
C3840 C3839 1.387 . S
C3840 C3843 1.387 . S
H3841 C3837 0.950 . S
H3842 C3839 0.950 . S
C3843 C3834 1.390 . S
C3843 H3836 0.950 . S
C3843 C3840 1.387 . S
C3844 C3845 1.387 . S
C3844 H3848 0.950 . S
C3844 C3853 1.390 . S
C3845 C3844 1.387 . S
C3845 C3847 1.387 . S
H3846 C3853 0.950 . S
C3847 C3845 1.387 . S
C3847 C3849 1.390 . S
C3847 H3851 0.950 . S
H3848 C3844 0.950 . S
C3849 C3847 1.390 . S
C3849 C3850 1.387 . S
C3849 H3852 0.950 . S
C3850 C3849 1.387 . S
C3850 C3853 1.387 . S
H3851 C3847 0.950 . S
H3852 C3849 0.950 . S
C3853 C3844 1.390 . S
C3853 H3846 0.950 . S
C3853 C3850 1.387 . S
C3854 C3855 1.387 . S
C3854 H3858 0.950 . S
C3854 C3863 1.390 . S
C3855 C3854 1.387 . S
C3855 C3857 1.387 . S
H3856 C3863 0.950 . S
C3857 C3855 1.387 . S
C3857 C3859 1.390 . S
C3857 H3861 0.950 . S
H3858 C3854 0.950 . S
C3859 C3857 1.390 . S
C3859 C3860 1.387 . S
C3859 H3862 0.950 . S
C3860 C3859 1.387 . S
C3860 C3863 1.387 . S
H3861 C3857 0.950 . S
H3862 C3859 0.950 . S
C3863 C3854 1.390 . S
C3863 H3856 0.950 . S
C3863 C3860 1.387 . S
C3864 C3865 1.387 . S
C3864 H3868 0.950 . S
C3864 C3873 1.390 . S
C3865 C3864 1.387 . S
C3865 C3867 1.387 . S
H3866 C3873 0.950 . S
C3867 C3865 1.387 . S
C3867 C3869 1.390 . S
C3867 H3871 0.950 . S
H3868 C3864 0.950 . S
C3869 C3867 1.390 . S
C3869 C3870 1.387 . S
C3869 H3872 0.950 . S
C3870 C3869 1.387 . S
C3870 C3873 1.387 . S
H3871 C3867 0.950 . S
H3872 C3869 0.950 . S
C3873 C3864 1.390 . S
C3873 H3866 0.950 . S
C3873 C3870 1.387 . S
C3874 C3875 1.387 . S
C3874 H3878 0.950 . S
C3874 C3883 1.390 . S
C3875 C3874 1.387 . S
C3875 C3877 1.387 . S
H3876 C3883 0.950 . S
C3877 C3875 1.387 . S
C3877 C3879 1.390 . S
C3877 H3881 0.950 . S
H3878 C3874 0.950 . S
C3879 C3877 1.390 . S
C3879 C3880 1.387 . S
C3879 H3882 0.950 . S
C3880 C3879 1.387 . S
C3880 C3883 1.387 . S
H3881 C3877 0.950 . S
H3882 C3879 0.950 . S
C3883 C3874 1.390 . S
C3883 H3876 0.950 . S
C3883 C3880 1.387 . S
C3884 C3885 1.387 . S
C3884 H3888 0.950 . S
C3884 C3893 1.390 . S
C3885 C3884 1.387 . S
C3885 C3887 1.387 . S
H3886 C3893 0.950 . S
C3887 C3885 1.387 . S
C3887 C3889 1.390 . S
C3887 H3891 0.950 . S
H3888 C3884 0.950 . S
C3889 C3887 1.390 . S
C3889 C3890 1.387 . S
C3889 H3892 0.950 . S
C3890 C3889 1.387 . S
C3890 C3893 1.387 . S
H3891 C3887 0.950 . S
H3892 C3889 0.950 . S
C3893 C3884 1.390 . S
C3893 H3886 0.950 . S
C3893 C3890 1.387 . S
C3894 C3895 1.387 . S
C3894 H3898 0.950 . S
C3894 C3903 1.390 . S
C3895 C3894 1.387 . S
C3895 C3897 1.387 . S
H3896 C3903 0.950 . S
C3897 C3895 1.387 . S
C3897 C3899 1.390 . S
C3897 H3901 0.950 . S
H3898 C3894 0.950 . S
C3899 C3897 1.390 . S
C3899 C3900 1.387 . S
C3899 H3902 0.950 . S
C3900 C3899 1.387 . S
C3900 C3903 1.387 . S
H3901 C3897 0.950 . S
H3902 C3899 0.950 . S
C3903 C3894 1.390 . S
C3903 H3896 0.950 . S
C3903 C3900 1.387 . S
C3904 C3905 1.387 . S
C3904 H3908 0.950 . S
C3904 C3913 1.390 . S
C3905 C3904 1.387 . S
C3905 C3907 1.387 . S
H3906 C3913 0.950 . S
C3907 C3905 1.387 . S
C3907 C3909 1.390 . S
C3907 H3911 0.950 . S
H3908 C3904 0.950 . S
C3909 C3907 1.390 . S
C3909 C3910 1.387 . S
C3909 H3912 0.950 . S
C3910 C3909 1.387 . S
C3910 C3913 1.387 . S
H3911 C3907 0.950 . S
H3912 C3909 0.950 . S
C3913 C3904 1.390 . S
C3913 H3906 0.950 . S
C3913 C3910 1.387 . S
C3914 C3915 1.387 . S
C3914 H3918 0.950 . S
C3914 C3923 1.390 . S
C3915 C3914 1.387 . S
C3915 C3917 1.387 . S
H3916 C3923 0.950 . S
C3917 C3915 1.387 . S
C3917 C3919 1.390 . S
C3917 H3921 0.950 . S
H3918 C3914 0.950 . S
C3919 C3917 1.390 . S
C3919 C3920 1.387 . S
C3919 H3922 0.950 . S
C3920 C3919 1.387 . S
C3920 C3923 1.387 . S
H3921 C3917 0.950 . S
H3922 C3919 0.950 . S
C3923 C3914 1.390 . S
C3923 H3916 0.950 . S
C3923 C3920 1.387 . S
C3924 C3925 1.387 . S
C3924 H3928 0.950 . S
C3924 C3933 1.390 . S
C3925 C3924 1.387 . S
C3925 C3927 1.387 . S
H3926 C3933 0.950 . S
C3927 C3925 1.387 . S
C3927 C3929 1.390 . S
C3927 H3931 0.950 . S
H3928 C3924 0.950 . S
C3929 C3927 1.390 . S
C3929 C3930 1.387 . S
C3929 H3932 0.950 . S
C3930 C3929 1.387 . S
C3930 C3933 1.387 . S
H3931 C3927 0.950 . S
H3932 C3929 0.950 . S
C3933 C3924 1.390 . S
C3933 H3926 0.950 . S
C3933 C3930 1.387 . S
C3934 C3935 1.387 . S
C3934 H3938 0.950 . S
C3934 C3943 1.390 . S
C3935 C3934 1.387 . S
C3935 C3937 1.387 . S
H3936 C3943 0.950 . S
C3937 C3935 1.387 . S
C3937 C3939 1.390 . S
C3937 H3941 0.950 . S
H3938 C3934 0.950 . S
C3939 C3937 1.390 . S
C3939 C3940 1.387 . S
C3939 H3942 0.950 . S
C3940 C3939 1.387 . S
C3940 C3943 1.387 . S
H3941 C3937 0.950 . S
H3942 C3939 0.950 . S
C3943 C3934 1.390 . S
C3943 H3936 0.950 . S
C3943 C3940 1.387 . S
C3944 C3945 1.387 . S
C3944 H3948 0.950 . S
C3944 C3953 1.390 . S
C3945 C3944 1.387 . S
C3945 C3947 1.387 . S
H3946 C3953 0.950 . S
C3947 C3945 1.387 . S
C3947 C3949 1.390 . S
C3947 H3951 0.950 . S
H3948 C3944 0.950 . S
C3949 C3947 1.390 . S
C3949 C3950 1.387 . S
C3949 H3952 0.950 . S
C3950 C3949 1.387 . S
C3950 C3953 1.387 . S
H3951 C3947 0.950 . S
H3952 C3949 0.950 . S
C3953 C3944 1.390 . S
C3953 H3946 0.950 . S
C3953 C3950 1.387 . S
C3954 C3955 1.387 . S
C3954 H3958 0.950 . S
C3954 C3963 1.390 . S
C3955 C3954 1.387 . S
C3955 C3957 1.387 . S
H3956 C3963 0.950 . S
C3957 C3955 1.387 . S
C3957 C3959 1.390 . S
C3957 H3961 0.950 . S
H3958 C3954 0.950 . S
C3959 C3957 1.390 . S
C3959 C3960 1.387 . S
C3959 H3962 0.950 . S
C3960 C3959 1.387 . S
C3960 C3963 1.387 . S
H3961 C3957 0.950 . S
H3962 C3959 0.950 . S
C3963 C3954 1.390 . S
C3963 H3956 0.950 . S
C3963 C3960 1.387 . S
C3964 C3965 1.387 . S
C3964 H3968 0.950 . S
C3964 C3973 1.390 . S
C3965 C3964 1.387 . S
C3965 C3967 1.387 . S
H3966 C3973 0.950 . S
C3967 C3965 1.387 . S
C3967 C3969 1.390 . S
C3967 H3971 0.950 . S
H3968 C3964 0.950 . S
C3969 C3967 1.390 . S
C3969 C3970 1.387 . S
C3969 H3972 0.950 . S
C3970 C3969 1.387 . S
C3970 C3973 1.387 . S
H3971 C3967 0.950 . S
H3972 C3969 0.950 . S
C3973 C3964 1.390 . S
C3973 H3966 0.950 . S
C3973 C3970 1.387 . S
C3974 C3975 1.387 . S
C3974 H3978 0.950 . S
C3974 C3983 1.390 . S
C3975 C3974 1.387 . S
C3975 C3977 1.387 . S
H3976 C3983 0.950 . S
C3977 C3975 1.387 . S
C3977 C3979 1.390 . S
C3977 H3981 0.950 . S
H3978 C3974 0.950 . S
C3979 C3977 1.390 . S
C3979 C3980 1.387 . S
C3979 H3982 0.950 . S
C3980 C3979 1.387 . S
C3980 C3983 1.387 . S
H3981 C3977 0.950 . S
H3982 C3979 0.950 . S
C3983 C3974 1.390 . S
C3983 H3976 0.950 . S
C3983 C3980 1.387 . S
C3984 C3985 1.387 . S
C3984 H3988 0.950 . S
C3984 C3993 1.390 . S
C3985 C3984 1.387 . S
C3985 C3987 1.387 . S
H3986 C3993 0.950 . S
C3987 C3985 1.387 . S
C3987 C3989 1.390 . S
C3987 H3991 0.950 . S
H3988 C3984 0.950 . S
C3989 C3987 1.390 . S
C3989 C3990 1.387 . S
C3989 H3992 0.950 . S
C3990 C3989 1.387 . S
C3990 C3993 1.387 . S
H3991 C3987 0.950 . S
H3992 C3989 0.950 . S
C3993 C3984 1.390 . S
C3993 H3986 0.950 . S
C3993 C3990 1.387 . S
C3994 C3995 1.387 . S
C3994 H3998 0.950 . S
C3994 C4003 1.390 . S
C3995 C3994 1.387 . S
C3995 C3997 1.387 . S
H3996 C4003 0.950 . S
C3997 C3995 1.387 . S
C3997 C3999 1.390 . S
C3997 H4001 0.950 . S
H3998 C3994 0.950 . S
C3999 C3997 1.390 . S
C3999 C4000 1.387 . S
C3999 H4002 0.950 . S
C4000 C3999 1.387 . S
C4000 C4003 1.387 . S
H4001 C3997 0.950 . S
H4002 C3999 0.950 . S
C4003 C3994 1.390 . S
C4003 H3996 0.950 . S
C4003 C4000 1.387 . S
C4004 C4005 1.387 . S
C4004 H4008 0.950 . S
C4004 C4013 1.390 . S
C4005 C4004 1.387 . S
C4005 C4007 1.387 . S
H4006 C4013 0.950 . S
C4007 C4005 1.387 . S
C4007 C4009 1.390 . S
C4007 H4011 0.950 . S
H4008 C4004 0.950 . S
C4009 C4007 1.390 . S
C4009 C4010 1.387 . S
C4009 H4012 0.950 . S
C4010 C4009 1.387 . S
C4010 C4013 1.387 . S
H4011 C4007 0.950 . S
H4012 C4009 0.950 . S
C4013 C4004 1.390 . S
C4013 H4006 0.950 . S
C4013 C4010 1.387 . S
C4014 C4015 1.387 . S
C4014 H4018 0.950 . S
C4014 C4023 1.390 . S
C4015 C4014 1.387 . S
C4015 C4017 1.387 . S
H4016 C4023 0.950 . S
C4017 C4015 1.387 . S
C4017 C4019 1.390 . S
C4017 H4021 0.950 . S
H4018 C4014 0.950 . S
C4019 C4017 1.390 . S
C4019 C4020 1.387 . S
C4019 H4022 0.950 . S
C4020 C4019 1.387 . S
C4020 C4023 1.387 . S
H4021 C4017 0.950 . S
H4022 C4019 0.950 . S
C4023 C4014 1.390 . S
C4023 H4016 0.950 . S
C4023 C4020 1.387 . S
C4024 C4025 1.387 . S
C4024 H4028 0.950 . S
C4024 C4033 1.390 . S
C4025 C4024 1.387 . S
C4025 C4027 1.387 . S
H4026 C4033 0.950 . S
C4027 C4025 1.387 . S
C4027 C4029 1.390 . S
C4027 H4031 0.950 . S
H4028 C4024 0.950 . S
C4029 C4027 1.390 . S
C4029 C4030 1.387 . S
C4029 H4032 0.950 . S
C4030 C4029 1.387 . S
C4030 C4033 1.387 . S
H4031 C4027 0.950 . S
H4032 C4029 0.950 . S
C4033 C4024 1.390 . S
C4033 H4026 0.950 . S
C4033 C4030 1.387 . S
C4034 C4035 1.387 . S
C4034 H4038 0.950 . S
C4034 C4043 1.390 . S
C4035 C4034 1.387 . S
C4035 C4037 1.387 . S
H4036 C4043 0.950 . S
C4037 C4035 1.387 . S
C4037 C4039 1.390 . S
C4037 H4041 0.950 . S
H4038 C4034 0.950 . S
C4039 C4037 1.390 . S
C4039 C4040 1.387 . S
C4039 H4042 0.950 . S
C4040 C4039 1.387 . S
C4040 C4043 1.387 . S
H4041 C4037 0.950 . S
H4042 C4039 0.950 . S
C4043 C4034 1.390 . S
C4043 H4036 0.950 . S
C4043 C4040 1.387 . S
C4044 C4045 1.387 . S
C4044 H4048 0.950 . S
C4044 C4053 1.390 . S
C4045 C4044 1.387 . S
C4045 C4047 1.387 . S
H4046 C4053 0.950 . S
C4047 C4045 1.387 . S
C4047 C4049 1.390 . S
C4047 H4051 0.950 . S
H4048 C4044 0.950 . S
C4049 C4047 1.390 . S
C4049 C4050 1.387 . S
C4049 H4052 0.950 . S
C4050 C4049 1.387 . S
C4050 C4053 1.387 . S
H4051 C4047 0.950 . S
H4052 C4049 0.950 . S
C4053 C4044 1.390 . S
C4053 H4046 0.950 . S
C4053 C4050 1.387 . S
C4054 C4055 1.387 . S
C4054 H4058 0.950 . S
C4054 C4063 1.390 . S
C4055 C4054 1.387 . S
C4055 C4057 1.387 . S
H4056 C4063 0.950 . S
C4057 C4055 1.387 . S
C4057 C4059 1.390 . S
C4057 H4061 0.950 . S
H4058 C4054 0.950 . S
C4059 C4057 1.390 . S
C4059 C4060 1.387 . S
C4059 H4062 0.950 . S
C4060 C4059 1.387 . S
C4060 C4063 1.387 . S
H4061 C4057 0.950 . S
H4062 C4059 0.950 . S
C4063 C4054 1.390 . S
C4063 H4056 0.950 . S
C4063 C4060 1.387 . S
C4064 C4065 1.387 . S
C4064 H4068 0.950 . S
C4064 C4073 1.390 . S
C4065 C4064 1.387 . S
C4065 C4067 1.387 . S
H4066 C4073 0.950 . S
C4067 C4065 1.387 . S
C4067 C4069 1.390 . S
C4067 H4071 0.950 . S
H4068 C4064 0.950 . S
C4069 C4067 1.390 . S
C4069 C4070 1.387 . S
C4069 H4072 0.950 . S
C4070 C4069 1.387 . S
C4070 C4073 1.387 . S
H4071 C4067 0.950 . S
H4072 C4069 0.950 . S
C4073 C4064 1.390 . S
C4073 H4066 0.950 . S
C4073 C4070 1.387 . S
C4074 C4075 1.387 . S
C4074 H4078 0.950 . S
C4074 C4083 1.390 1_556 S
C4075 C4074 1.387 . S
C4075 C4077 1.387 . S
H4076 C4083 0.950 . S
C4077 C4075 1.387 . S
C4077 C4079 1.390 1_556 S
C4077 H4081 0.950 . S
H4078 C4074 0.950 . S
C4079 C4077 1.390 1_554 S
C4079 C4080 1.387 . S
C4079 H4082 0.950 . S
C4080 C4079 1.387 . S
C4080 C4083 1.387 . S
H4081 C4077 0.950 . S
H4082 C4079 0.950 . S
C4083 C4074 1.390 1_554 S
C4083 H4076 0.950 . S
C4083 C4080 1.387 . S
C4084 C4085 1.387 . S
C4084 H4088 0.950 . S
C4084 C4093 1.390 1_556 S
C4085 C4084 1.387 . S
C4085 C4087 1.387 . S
H4086 C4093 0.950 . S
C4087 C4085 1.387 . S
C4087 C4089 1.390 1_556 S
C4087 H4091 0.950 . S
H4088 C4084 0.950 . S
C4089 C4087 1.390 1_554 S
C4089 C4090 1.387 . S
C4089 H4092 0.950 . S
C4090 C4089 1.387 . S
C4090 C4093 1.387 . S
H4091 C4087 0.950 . S
H4092 C4089 0.950 . S
C4093 C4084 1.390 1_554 S
C4093 H4086 0.950 . S
C4093 C4090 1.387 . S
C4094 C4095 1.387 . S
C4094 H4098 0.950 . S
C4094 C4103 1.390 1_556 S
C4095 C4094 1.387 . S
C4095 C4097 1.387 1_556 S
H4096 C4103 0.950 . S
C4097 C4095 1.387 1_554 S
C4097 C4099 1.390 . S
C4097 H4101 0.950 1_554 S
H4098 C4094 0.950 . S
C4099 C4097 1.390 . S
C4099 C4100 1.387 . S
C4099 H4102 0.950 . S
C4100 C4099 1.387 . S
C4100 C4103 1.387 . S
H4101 C4097 0.950 1_556 S
H4102 C4099 0.950 . S
C4103 C4094 1.390 1_554 S
C4103 H4096 0.950 . S
C4103 C4100 1.387 . S
C4104 C4105 1.387 . S
C4104 H4108 0.950 . S
C4104 C4113 1.390 . S
C4105 C4104 1.387 . S
C4105 C4107 1.387 . S
H4106 C4113 0.950 . S
C4107 C4105 1.387 . S
C4107 C4109 1.390 . S
C4107 H4111 0.950 . S
H4108 C4104 0.950 . S
C4109 C4107 1.390 . S
C4109 C4110 1.387 . S
C4109 H4112 0.950 . S
C4110 C4109 1.387 . S
C4110 C4113 1.387 . S
H4111 C4107 0.950 . S
H4112 C4109 0.950 . S
C4113 C4104 1.390 . S
C4113 H4106 0.950 . S
C4113 C4110 1.387 . S
C4114 C4115 1.387 . S
C4114 H4118 0.950 . S
C4114 C4123 1.390 . S
C4115 C4114 1.387 . S
C4115 C4117 1.387 . S
H4116 C4123 0.950 . S
C4117 C4115 1.387 . S
C4117 C4119 1.390 . S
C4117 H4121 0.950 . S
H4118 C4114 0.950 . S
C4119 C4117 1.390 . S
C4119 C4120 1.387 . S
C4119 H4122 0.950 . S
C4120 C4119 1.387 . S
C4120 C4123 1.387 . S
H4121 C4117 0.950 . S
H4122 C4119 0.950 . S
C4123 C4114 1.390 . S
C4123 H4116 0.950 . S
C4123 C4120 1.387 . S
C4124 C4125 1.387 . S
C4124 H4128 0.950 . S
C4124 C4133 1.390 . S
C4125 C4124 1.387 . S
C4125 C4127 1.387 . S
H4126 C4133 0.950 . S
C4127 C4125 1.387 . S
C4127 C4129 1.390 . S
C4127 H4131 0.950 . S
H4128 C4124 0.950 . S
C4129 C4127 1.390 . S
C4129 C4130 1.387 . S
C4129 H4132 0.950 . S
C4130 C4129 1.387 . S
C4130 C4133 1.387 . S
H4131 C4127 0.950 . S
H4132 C4129 0.950 . S
C4133 C4124 1.390 . S
C4133 H4126 0.950 . S
C4133 C4130 1.387 . S
C4134 C4135 1.387 . S
C4134 H4138 0.950 . S
C4134 C4143 1.390 . S
C4135 C4134 1.387 . S
C4135 C4137 1.387 . S
H4136 C4143 0.950 . S
C4137 C4135 1.387 . S
C4137 C4139 1.390 . S
C4137 H4141 0.950 . S
H4138 C4134 0.950 . S
C4139 C4137 1.390 . S
C4139 C4140 1.387 . S
C4139 H4142 0.950 . S
C4140 C4139 1.387 . S
C4140 C4143 1.387 . S
H4141 C4137 0.950 . S
H4142 C4139 0.950 . S
C4143 C4134 1.390 . S
C4143 H4136 0.950 . S
C4143 C4140 1.387 . S
C4144 C4145 1.387 . S
C4144 H4148 0.950 . S
C4144 C4153 1.390 . S
C4145 C4144 1.387 . S
C4145 C4147 1.387 . S
H4146 C4153 0.950 . S
C4147 C4145 1.387 . S
C4147 C4149 1.390 . S
C4147 H4151 0.950 . S
H4148 C4144 0.950 . S
C4149 C4147 1.390 . S
C4149 C4150 1.387 . S
C4149 H4152 0.950 . S
C4150 C4149 1.387 . S
C4150 C4153 1.387 . S
H4151 C4147 0.950 . S
H4152 C4149 0.950 . S
C4153 C4144 1.390 . S
C4153 H4146 0.950 . S
C4153 C4150 1.387 . S
C4154 C4155 1.387 . S
C4154 H4158 0.950 . S
C4154 C4163 1.390 . S
C4155 C4154 1.387 . S
C4155 C4157 1.387 . S
H4156 C4163 0.950 . S
C4157 C4155 1.387 . S
C4157 C4159 1.390 . S
C4157 H4161 0.950 . S
H4158 C4154 0.950 . S
C4159 C4157 1.390 . S
C4159 C4160 1.387 . S
C4159 H4162 0.950 . S
C4160 C4159 1.387 . S
C4160 C4163 1.387 . S
H4161 C4157 0.950 . S
H4162 C4159 0.950 . S
C4163 C4154 1.390 . S
C4163 H4156 0.950 . S
C4163 C4160 1.387 . S
C4164 C4165 1.387 . S
C4164 H4168 0.950 . S
C4164 C4173 1.390 . S
C4165 C4164 1.387 . S
C4165 C4167 1.387 . S
H4166 C4173 0.950 . S
C4167 C4165 1.387 . S
C4167 C4169 1.390 . S
C4167 H4171 0.950 . S
H4168 C4164 0.950 . S
C4169 C4167 1.390 . S
C4169 C4170 1.387 . S
C4169 H4172 0.950 . S
C4170 C4169 1.387 . S
C4170 C4173 1.387 . S
H4171 C4167 0.950 . S
H4172 C4169 0.950 . S
C4173 C4164 1.390 . S
C4173 H4166 0.950 . S
C4173 C4170 1.387 . S
C4174 C4175 1.387 . S
C4174 H4178 0.950 . S
C4174 C4183 1.390 . S
C4175 C4174 1.387 . S
C4175 C4177 1.387 . S
H4176 C4183 0.950 . S
C4177 C4175 1.387 . S
C4177 C4179 1.390 . S
C4177 H4181 0.950 . S
H4178 C4174 0.950 . S
C4179 C4177 1.390 . S
C4179 C4180 1.387 . S
C4179 H4182 0.950 . S
C4180 C4179 1.387 . S
C4180 C4183 1.387 . S
H4181 C4177 0.950 . S
H4182 C4179 0.950 . S
C4183 C4174 1.390 . S
C4183 H4176 0.950 . S
C4183 C4180 1.387 . S
C4184 C4185 1.387 . S
C4184 H4188 0.950 . S
C4184 C4193 1.390 . S
C4185 C4184 1.387 . S
C4185 C4187 1.387 . S
H4186 C4193 0.950 . S
C4187 C4185 1.387 . S
C4187 C4189 1.390 . S
C4187 H4191 0.950 . S
H4188 C4184 0.950 . S
C4189 C4187 1.390 . S
C4189 C4190 1.387 . S
C4189 H4192 0.950 . S
C4190 C4189 1.387 . S
C4190 C4193 1.387 . S
H4191 C4187 0.950 . S
H4192 C4189 0.950 . S
C4193 C4184 1.390 . S
C4193 H4186 0.950 . S
C4193 C4190 1.387 . S
C4194 C4195 1.387 . S
C4194 H4198 0.950 . S
C4194 C4203 1.390 . S
C4195 C4194 1.387 . S
C4195 C4197 1.387 . S
H4196 C4203 0.950 . S
C4197 C4195 1.387 . S
C4197 C4199 1.390 . S
C4197 H4201 0.950 . S
H4198 C4194 0.950 . S
C4199 C4197 1.390 . S
C4199 C4200 1.387 . S
C4199 H4202 0.950 . S
C4200 C4199 1.387 . S
C4200 C4203 1.387 . S
H4201 C4197 0.950 . S
H4202 C4199 0.950 . S
C4203 C4194 1.390 . S
C4203 H4196 0.950 . S
C4203 C4200 1.387 . S
C4204 C4205 1.387 . S
C4204 H4208 0.950 . S
C4204 C4213 1.390 . S
C4205 C4204 1.387 . S
C4205 C4207 1.387 . S
H4206 C4213 0.950 . S
C4207 C4205 1.387 . S
C4207 C4209 1.390 . S
C4207 H4211 0.950 . S
H4208 C4204 0.950 . S
C4209 C4207 1.390 . S
C4209 C4210 1.387 . S
C4209 H4212 0.950 . S
C4210 C4209 1.387 . S
C4210 C4213 1.387 . S
H4211 C4207 0.950 . S
H4212 C4209 0.950 . S
C4213 C4204 1.390 . S
C4213 H4206 0.950 . S
C4213 C4210 1.387 . S
C4214 C4215 1.387 . S
C4214 H4218 0.950 . S
C4214 C4223 1.390 . S
C4215 C4214 1.387 . S
C4215 C4217 1.387 . S
H4216 C4223 0.950 . S
C4217 C4215 1.387 . S
C4217 C4219 1.390 . S
C4217 H4221 0.950 . S
H4218 C4214 0.950 . S
C4219 C4217 1.390 . S
C4219 C4220 1.387 . S
C4219 H4222 0.950 . S
C4220 C4219 1.387 . S
C4220 C4223 1.387 . S
H4221 C4217 0.950 . S
H4222 C4219 0.950 . S
C4223 C4214 1.390 . S
C4223 H4216 0.950 . S
C4223 C4220 1.387 . S
C4224 C4225 1.387 . S
C4224 H4228 0.950 . S
C4224 C4233 1.390 . S
C4225 C4224 1.387 . S
C4225 C4227 1.387 . S
H4226 C4233 0.950 . S
C4227 C4225 1.387 . S
C4227 C4229 1.390 . S
C4227 H4231 0.950 . S
H4228 C4224 0.950 . S
C4229 C4227 1.390 . S
C4229 C4230 1.387 . S
C4229 H4232 0.950 . S
C4230 C4229 1.387 . S
C4230 C4233 1.387 . S
H4231 C4227 0.950 . S
H4232 C4229 0.950 . S
C4233 C4224 1.390 . S
C4233 H4226 0.950 . S
C4233 C4230 1.387 . S
C4234 C4235 1.387 . S
C4234 H4238 0.950 . S
C4234 C4243 1.390 . S
C4235 C4234 1.387 . S
C4235 C4237 1.387 . S
H4236 C4243 0.950 . S
C4237 C4235 1.387 . S
C4237 C4239 1.390 . S
C4237 H4241 0.950 . S
H4238 C4234 0.950 . S
C4239 C4237 1.390 . S
C4239 C4240 1.387 . S
C4239 H4242 0.950 . S
C4240 C4239 1.387 . S
C4240 C4243 1.387 . S
H4241 C4237 0.950 . S
H4242 C4239 0.950 . S
C4243 C4234 1.390 . S
C4243 H4236 0.950 . S
C4243 C4240 1.387 . S
C4244 C4245 1.387 . S
C4244 H4248 0.950 . S
C4244 C4253 1.390 . S
C4245 C4244 1.387 . S
C4245 C4247 1.387 . S
H4246 C4253 0.950 . S
C4247 C4245 1.387 . S
C4247 C4249 1.390 . S
C4247 H4251 0.950 . S
H4248 C4244 0.950 . S
C4249 C4247 1.390 . S
C4249 C4250 1.387 . S
C4249 H4252 0.950 . S
C4250 C4249 1.387 . S
C4250 C4253 1.387 . S
H4251 C4247 0.950 . S
H4252 C4249 0.950 . S
C4253 C4244 1.390 . S
C4253 H4246 0.950 . S
C4253 C4250 1.387 . S
C4254 C4255 1.387 . S
C4254 H4258 0.950 . S
C4254 C4263 1.404 . S
C4255 C4254 1.387 . S
C4255 C4257 1.387 . S
H4256 C4263 0.946 1_554 S
C4257 C4255 1.387 . S
C4257 C4259 1.390 1_556 S
C4257 H4261 0.950 . S
H4258 C4254 0.950 . S
C4259 C4257 1.390 1_554 S
C4259 C4260 1.387 . S
C4259 H4262 0.950 . S
C4260 C4259 1.387 . S
C4260 C4263 1.377 1_554 S
H4261 C4257 0.950 . S
H4262 C4259 0.950 . S
C4263 C4254 1.404 . S
C4263 H4256 0.946 1_556 S
C4263 C4260 1.377 1_556 S
C4264 C4265 1.387 . S
C4264 H4268 0.950 . S
C4264 C4273 1.390 1_554 S
C4265 C4264 1.387 . S
C4265 C4267 1.387 . S
H4266 C4273 0.950 . S
C4267 C4265 1.387 . S
C4267 C4269 1.390 1_554 S
C4267 H4271 0.950 . S
H4268 C4264 0.950 . S
C4269 C4267 1.390 1_556 S
C4269 C4270 1.387 . S
C4269 H4272 0.950 . S
C4270 C4269 1.387 . S
C4270 C4273 1.387 . S
H4271 C4267 0.950 . S
H4272 C4269 0.950 . S
C4273 C4264 1.390 1_556 S
C4273 H4266 0.950 . S
C4273 C4270 1.387 . S
C4274 C4275 1.387 . S
C4274 H4278 0.950 . S
C4274 C4283 1.390 1_554 S
C4275 C4274 1.387 . S
C4275 C4277 1.387 . S
H4276 C4283 0.950 . S
C4277 C4275 1.387 . S
C4277 C4279 1.390 1_554 S
C4277 H4281 0.950 . S
H4278 C4274 0.950 . S
C4279 C4277 1.390 1_556 S
C4279 C4280 1.387 . S
C4279 H4282 0.950 . S
C4280 C4279 1.387 . S
C4280 C4283 1.387 . S
H4281 C4277 0.950 . S
H4282 C4279 0.950 . S
C4283 C4274 1.390 1_556 S
C4283 H4276 0.950 . S
C4283 C4280 1.387 . S
C4284 C4285 1.387 . S
C4284 H4288 0.950 . S
C4284 C4293 1.390 . S
C4285 C4284 1.387 . S
C4285 C4287 1.387 . S
H4286 C4293 0.950 . S
C4287 C4285 1.387 . S
C4287 C4289 1.390 . S
C4287 H4291 0.950 . S
H4288 C4284 0.950 . S
C4289 C4287 1.390 . S
C4289 C4290 1.387 . S
C4289 H4292 0.950 . S
C4290 C4289 1.387 . S
C4290 C4293 1.387 . S
H4291 C4287 0.950 . S
H4292 C4289 0.950 . S
C4293 C4284 1.390 . S
C4293 H4286 0.950 . S
C4293 C4290 1.387 . S
C4294 C4295 1.387 . S
C4294 H4298 0.950 . S
C4294 C4303 1.390 . S
C4295 C4294 1.387 . S
C4295 C4297 1.387 . S
H4296 C4303 0.950 . S
C4297 C4295 1.387 . S
C4297 C4299 1.390 . S
C4297 H4301 0.950 . S
H4298 C4294 0.950 . S
C4299 C4297 1.390 . S
C4299 C4300 1.387 . S
C4299 H4302 0.950 . S
C4300 C4299 1.387 . S
C4300 C4303 1.387 . S
H4301 C4297 0.950 . S
H4302 C4299 0.950 . S
C4303 C4294 1.390 . S
C4303 H4296 0.950 . S
C4303 C4300 1.387 . S
C4304 C4305 1.387 . S
C4304 H4308 0.950 . S
C4304 C4313 1.390 . S
C4305 C4304 1.387 . S
C4305 C4307 1.387 . S
H4306 C4313 0.950 . S
C4307 C4305 1.387 . S
C4307 C4309 1.390 . S
C4307 H4311 0.950 . S
H4308 C4304 0.950 . S
C4309 C4307 1.390 . S
C4309 C4310 1.387 . S
C4309 H4312 0.950 . S
C4310 C4309 1.387 . S
C4310 C4313 1.387 . S
H4311 C4307 0.950 . S
H4312 C4309 0.950 . S
C4313 C4304 1.390 . S
C4313 H4306 0.950 . S
C4313 C4310 1.387 . S
C4314 C4315 1.387 . S
C4314 H4318 0.950 . S
C4314 C4323 1.390 . S
C4315 C4314 1.387 . S
C4315 C4317 1.387 . S
H4316 C4323 0.950 . S
C4317 C4315 1.387 . S
C4317 C4319 1.390 . S
C4317 H4321 0.950 . S
H4318 C4314 0.950 . S
C4319 C4317 1.390 . S
C4319 C4320 1.387 . S
C4319 H4322 0.950 . S
C4320 C4319 1.387 . S
C4320 C4323 1.387 . S
H4321 C4317 0.950 . S
H4322 C4319 0.950 . S
C4323 C4314 1.390 . S
C4323 H4316 0.950 . S
C4323 C4320 1.387 . S
C4324 C4325 1.387 . S
C4324 H4328 0.950 . S
C4324 C4333 1.390 . S
C4325 C4324 1.387 . S
C4325 C4327 1.387 . S
H4326 C4333 0.950 . S
C4327 C4325 1.387 . S
C4327 C4329 1.390 . S
C4327 H4331 0.950 . S
H4328 C4324 0.950 . S
C4329 C4327 1.390 . S
C4329 C4330 1.387 . S
C4329 H4332 0.950 . S
C4330 C4329 1.387 . S
C4330 C4333 1.387 . S
H4331 C4327 0.950 . S
H4332 C4329 0.950 . S
C4333 C4324 1.390 . S
C4333 H4326 0.950 . S
C4333 C4330 1.387 . S
C4334 C4335 1.387 . S
C4334 H4338 0.950 . S
C4334 C4343 1.390 . S
C4335 C4334 1.387 . S
C4335 C4337 1.387 . S
H4336 C4343 0.950 . S
C4337 C4335 1.387 . S
C4337 C4339 1.390 . S
C4337 H4341 0.950 . S
H4338 C4334 0.950 . S
C4339 C4337 1.390 . S
C4339 C4340 1.387 . S
C4339 H4342 0.950 . S
C4340 C4339 1.387 . S
C4340 C4343 1.387 . S
H4341 C4337 0.950 . S
H4342 C4339 0.950 . S
C4343 C4334 1.390 . S
C4343 H4336 0.950 . S
C4343 C4340 1.387 . S
C4344 C4345 1.387 . S
C4344 H4348 0.950 . S
C4344 C4353 1.390 . S
C4345 C4344 1.387 . S
C4345 C4347 1.387 . S
H4346 C4353 0.950 . S
C4347 C4345 1.387 . S
C4347 C4349 1.390 . S
C4347 H4351 0.950 . S
H4348 C4344 0.950 . S
C4349 C4347 1.390 . S
C4349 C4350 1.387 . S
C4349 H4352 0.950 . S
C4350 C4349 1.387 . S
C4350 C4353 1.387 . S
H4351 C4347 0.950 . S
H4352 C4349 0.950 . S
C4353 C4344 1.390 . S
C4353 H4346 0.950 . S
C4353 C4350 1.387 . S
C4354 C4355 1.387 . S
C4354 H4358 0.950 . S
C4354 C4363 1.390 . S
C4355 C4354 1.387 . S
C4355 C4357 1.387 . S
H4356 C4363 0.950 . S
C4357 C4355 1.387 . S
C4357 C4359 1.390 . S
C4357 H4361 0.950 . S
H4358 C4354 0.950 . S
C4359 C4357 1.390 . S
C4359 C4360 1.387 . S
C4359 H4362 0.950 . S
C4360 C4359 1.387 . S
C4360 C4363 1.387 . S
H4361 C4357 0.950 . S
H4362 C4359 0.950 . S
C4363 C4354 1.390 . S
C4363 H4356 0.950 . S
C4363 C4360 1.387 . S
C4364 C4365 1.387 . S
C4364 H4368 0.950 . S
C4364 C4373 1.390 . S
C4365 C4364 1.387 . S
C4365 C4367 1.387 . S
H4366 C4373 0.950 . S
C4367 C4365 1.387 . S
C4367 C4369 1.390 . S
C4367 H4371 0.950 . S
H4368 C4364 0.950 . S
C4369 C4367 1.390 . S
C4369 C4370 1.387 . S
C4369 H4372 0.950 . S
C4370 C4369 1.387 . S
C4370 C4373 1.387 . S
H4371 C4367 0.950 . S
H4372 C4369 0.950 . S
C4373 C4364 1.390 . S
C4373 H4366 0.950 . S
C4373 C4370 1.387 . S
C4374 C4375 1.387 . S
C4374 H4378 0.950 . S
C4374 C4383 1.390 . S
C4375 C4374 1.387 . S
C4375 C4377 1.387 . S
H4376 C4383 0.950 . S
C4377 C4375 1.387 . S
C4377 C4379 1.390 . S
C4377 H4381 0.950 . S
H4378 C4374 0.950 . S
C4379 C4377 1.390 . S
C4379 C4380 1.387 . S
C4379 H4382 0.950 . S
C4380 C4379 1.387 . S
C4380 C4383 1.387 . S
H4381 C4377 0.950 . S
H4382 C4379 0.950 . S
C4383 C4374 1.390 . S
C4383 H4376 0.950 . S
C4383 C4380 1.387 . S
C4384 C4385 1.387 . S
C4384 H4388 0.950 . S
C4384 C4393 1.390 . S
C4385 C4384 1.387 . S
C4385 C4387 1.387 . S
H4386 C4393 0.950 . S
C4387 C4385 1.387 . S
C4387 C4389 1.390 . S
C4387 H4391 0.950 . S
H4388 C4384 0.950 . S
C4389 C4387 1.390 . S
C4389 C4390 1.387 . S
C4389 H4392 0.950 . S
C4390 C4389 1.387 . S
C4390 C4393 1.387 . S
H4391 C4387 0.950 . S
H4392 C4389 0.950 . S
C4393 C4384 1.390 . S
C4393 H4386 0.950 . S
C4393 C4390 1.387 . S
C4394 C4395 1.387 . S
C4394 H4398 0.950 . S
C4394 C4403 1.390 . S
C4395 C4394 1.387 . S
C4395 C4397 1.387 . S
H4396 C4403 0.950 . S
C4397 C4395 1.387 . S
C4397 C4399 1.390 . S
C4397 H4401 0.950 . S
H4398 C4394 0.950 . S
C4399 C4397 1.390 . S
C4399 C4400 1.387 . S
C4399 H4402 0.950 . S
C4400 C4399 1.387 . S
C4400 C4403 1.387 . S
H4401 C4397 0.950 . S
H4402 C4399 0.950 . S
C4403 C4394 1.390 . S
C4403 H4396 0.950 . S
C4403 C4400 1.387 . S
C4404 C4405 1.387 . S
C4404 H4408 0.950 . S
C4404 C4413 1.390 1_455 S
C4405 C4404 1.387 . S
C4405 C4407 1.387 . S
H4406 C4413 0.950 . S
C4407 C4405 1.387 . S
C4407 C4409 1.390 1_455 S
C4407 H4411 0.950 . S
H4408 C4404 0.950 . S
C4409 C4407 1.390 1_655 S
C4409 C4410 1.387 . S
C4409 H4412 0.950 . S
C4410 C4409 1.387 . S
C4410 C4413 1.387 . S
H4411 C4407 0.950 . S
H4412 C4409 0.950 . S
C4413 C4404 1.390 1_655 S
C4413 H4406 0.950 . S
C4413 C4410 1.387 . S
C4414 C4415 1.387 . S
C4414 H4418 0.950 . S
C4414 C4423 1.390 . S
C4415 C4414 1.387 . S
C4415 C4417 1.387 . S
H4416 C4423 0.950 . S
C4417 C4415 1.387 . S
C4417 C4419 1.390 . S
C4417 H4421 0.950 . S
H4418 C4414 0.950 . S
C4419 C4417 1.390 . S
C4419 C4420 1.387 . S
C4419 H4422 0.950 . S
C4420 C4419 1.387 . S
C4420 C4423 1.387 . S
H4421 C4417 0.950 . S
H4422 C4419 0.950 . S
C4423 C4414 1.390 . S
C4423 H4416 0.950 . S
C4423 C4420 1.387 . S
C4424 C4425 1.387 . S
C4424 H4428 0.950 . S
C4424 C4433 1.390 1_565 S
C4425 C4424 1.387 . S
C4425 C4427 1.387 . S
H4426 C4433 0.950 . S
C4427 C4425 1.387 . S
C4427 C4429 1.390 1_565 S
C4427 H4431 0.950 . S
H4428 C4424 0.950 . S
C4429 C4427 1.390 1_545 S
C4429 C4430 1.387 . S
C4429 H4432 0.950 . S
C4430 C4429 1.387 . S
C4430 C4433 1.387 . S
H4431 C4427 0.950 . S
H4432 C4429 0.950 . S
C4433 C4424 1.390 1_545 S
C4433 H4426 0.950 . S
C4433 C4430 1.387 . S
C4434 C4435 1.387 . S
C4434 H4438 0.950 . S
C4434 C4443 1.399 1_556 S
C4435 C4434 1.387 . S
C4435 C4437 1.385 1_545 S
H4436 C4443 0.958 . S
C4437 C4435 1.385 1_565 S
C4437 C4439 1.399 1_556 S
C4437 H4441 0.958 . S
H4438 C4434 0.950 . S
C4439 C4437 1.399 1_554 S
C4439 C4440 1.387 . S
C4439 H4442 0.950 . S
C4440 C4439 1.387 . S
C4440 C4443 1.385 1_565 S
H4441 C4437 0.958 . S
H4442 C4439 0.950 . S
C4443 C4434 1.399 1_554 S
C4443 H4436 0.958 . S
C4443 C4440 1.385 1_545 S
C4444 C4445 1.387 . S
C4444 H4448 0.950 . S
C4444 C4453 1.390 1_656 S
C4445 C4444 1.387 . S
C4445 C4447 1.387 . S
H4446 C4453 0.950 . S
C4447 C4445 1.387 . S
C4447 C4449 1.390 1_656 S
C4447 H4451 0.950 . S
H4448 C4444 0.950 . S
C4449 C4447 1.390 1_454 S
C4449 C4450 1.387 . S
C4449 H4452 0.950 . S
C4450 C4449 1.387 . S
C4450 C4453 1.387 . S
H4451 C4447 0.950 . S
H4452 C4449 0.950 . S
C4453 C4444 1.390 1_454 S
C4453 H4446 0.950 . S
C4453 C4450 1.387 . S
C4454 C4455 1.362 1_554 S
C4454 H4458 0.951 . S
C4454 C4463 1.415 . S
C4455 C4454 1.362 1_556 S
C4455 C4457 1.387 . S
H4456 C4463 0.950 . S
C4457 C4455 1.387 . S
C4457 C4459 1.415 . S
C4457 H4461 0.950 . S
H4458 C4454 0.951 . S
C4459 C4457 1.415 . S
C4459 C4460 1.362 1_556 S
C4459 H4462 0.951 . S
C4460 C4459 1.362 1_554 S
C4460 C4463 1.387 . S
H4461 C4457 0.950 . S
H4462 C4459 0.951 . S
C4463 C4454 1.415 . S
C4463 H4456 0.950 . S
C4463 C4460 1.387 . S
C3205 C1 1.922 . S
C3210 C1425 1.924 . S
C3215 C1514 1.921 . S
C3220 C90 1.925 . S
C3225 C1336 1.923 . S
C3230 C179 1.923 . S
C3235 C2315 1.923 . S
C3240 C268 1.923 . S
C3245 C357 1.922 . S
C3250 C2137 1.924 . S
C3255 C446 1.922 . S
C3260 C2226 1.924 . S
C3265 C535 1.921 . S
C3270 C3027 1.925 . S
C3275 C3116 1.922 . S
C3280 C624 1.925 . S
C3285 C713 1.923 . S
C3290 C2938 1.923 . S
C3295 C1781 1.923 . S
C3300 C802 1.923 . S
C3305 C1603 1.925 . S
C3310 C891 1.921 . S
C3315 C1692 1.922 . S
C3320 C980 1.924 . S
C3325 C2493 1.924 . S
C3330 C1069 1.922 . S
C3335 C1158 1.925 . S
C3340 C2582 1.922 . S
C3345 C1247 1.923 . S
C3350 C2404 1.923 . S
C3355 C2849 1.923 . S
C3360 C1870 1.923 . S
C3365 C1959 1.925 . S
C3370 C2671 1.921 . S
C3375 C2048 1.922 . S
C3380 C2760 1.924 . S
C3385 C26 1.462 1_565 S
C3390 C696 1.589 . S
C3395 C785 1.592 . S
C3400 C115 1.460 1_455 S
C3405 C607 1.592 . S
C3410 C204 1.458 . S
C3415 C293 1.462 1_655 S
C3420 C1052 1.588 . S
C3425 C382 1.462 . S
C3430 C874 1.589 . S
C3435 C963 1.592 . S
C3440 C471 1.459 1_545 S
C3445 C560 1.460 1_545 S
C3450 C162 1.592 . S
C3455 C251 1.589 . S
C3460 C649 1.462 1_655 S
C3465 C73 1.588 . S
C3470 C738 1.462 . S
C3475 C518 1.592 . S
C3480 C827 1.459 1_455 S
C3485 C340 1.592 . S
C3490 C916 1.460 . S
C3495 C1005 1.459 1_565 S
C3500 C429 1.592 . S
C3505 C1094 1.459 . S
C3510 C1764 1.593 . S
C3515 C1853 1.593 . S
C3520 C1183 1.459 . S
C3525 C1675 1.592 . S
C3530 C1272 1.458 . S
C3535 C1361 1.462 . S
C3540 C2120 1.588 . S
C3545 C1450 1.459 . S
C3550 C1942 1.593 . S
C3555 C2031 1.592 . S
C3560 C1539 1.459 . S
C3565 C1230 1.593 . S
C3570 C1628 1.458 . S
C3575 C1717 1.462 . S
C3580 C1319 1.589 . S
C3585 C1141 1.592 . S
C3590 C1806 1.458 . S
C3595 C1895 1.459 . S
C3600 C1586 1.592 . S
C3605 C1408 1.593 . S
C3610 C1984 1.459 . S
C3615 C2073 1.459 . S
C3620 C1497 1.592 . S
C3625 C2162 1.458 . S
C3630 C2832 1.592 . S
C3635 C2251 1.462 . S
C3640 C2921 1.589 . S
C3645 C2340 1.458 . S
C3650 C2743 1.592 . S
C3655 C3188 1.588 . S
C3660 C2429 1.462 . S
C3665 C3010 1.592 . S
C3670 C2518 1.460 . S
C3675 C3099 1.592 . S
C3680 C2607 1.459 . S
C3685 C2696 1.462 . S
C3690 C2298 1.589 . S
C3695 C2387 1.593 . S
C3700 C2785 1.459 . S
C3705 C2209 1.592 . S
C3710 C2874 1.458 . S
C3715 C2963 1.459 . S
C3720 C2654 1.592 . S
C3725 C3052 1.459 . S
C3730 C2476 1.593 . S
C3735 C3141 1.462 . S
C3740 C2565 1.588 . S
C3745 C508 1.250 . S
C3750 C63 1.250 . S
C3755 C330 1.249 . S
C3760 C152 1.249 . S
C3765 C419 1.248 . S
C3770 C241 1.249 . S
C3775 C1042 1.249 . S
C3780 C597 1.249 . S
C3785 C686 1.249 . S
C3790 C864 1.250 . S
C3795 C953 1.249 . S
C3800 C775 1.248 . S
C3805 C1576 1.250 . S
C3810 C1131 1.250 . S
C3815 C1398 1.248 . S
C3820 C1220 1.249 . S
C3825 C1487 1.248 . S
C3830 C1309 1.249 . S
C3835 C1665 1.250 . S
C3840 C2110 1.250 . S
C3845 C1932 1.250 . S
C3850 C1754 1.249 . S
C3855 C1843 1.248 . S
C3860 C2021 1.249 . S
C3865 C2644 1.250 . S
C3870 C2199 1.250 . S
C3875 C2466 1.250 . S
C3880 C2288 1.249 . S
C3885 C2555 1.249 . S
C3890 C2377 1.248 . S
C3895 C3178 1.250 . S
C3900 C2733 1.250 . S
C3905 C2822 1.249 . S
C3910 C3000 1.250 . S
C3915 C2911 1.248 . S
C3920 C3089 1.249 . S
C3925 C70 2.467 . S
C3930 C951 2.242 . S
C3935 C159 2.466 . S
C3940 C1040 2.242 . S
C3945 C862 2.240 . S
C3950 C248 2.466 . S
C3955 C773 2.241 . S
C3960 C337 2.467 . S
C3965 C426 2.467 . S
C3970 C595 2.240 . S
C3975 C684 2.239 . S
C3980 C515 2.466 . S
C3985 C604 2.467 . S
C3990 C417 2.242 . S
C3995 C506 2.240 . S
C4000 C693 2.467 . S
C4005 C782 2.466 . S
C4010 C328 2.243 . S
C4015 C239 2.240 . S
C4020 C871 2.467 . S
C4025 C960 2.467 . S
C4030 C61 2.240 . S
C4035 C1049 2.467 . S
C4040 C150 2.242 . S
C4045 C2019 2.240 . S
C4050 C1138 2.466 . S
C4055 C2108 2.242 . S
C4060 C1227 2.466 . S
C4065 C1930 2.242 . S
C4070 C1316 2.467 . S
C4075 C1405 2.467 . S
C4080 C1841 2.241 . S
C4085 C1494 2.466 . S
C4090 C1663 2.242 . S
C4095 C1583 2.466 . S
C4100 C1752 2.240 . S
C4105 C1485 2.243 . S
C4110 C1672 2.466 . S
C4115 C1761 2.467 . S
C4120 C1574 2.240 . S
C4125 C1396 2.243 . S
C4130 C1850 2.466 . S
C4135 C1307 2.242 . S
C4140 C1939 2.466 . S
C4145 C2028 2.467 . S
C4150 C1129 2.240 . S
C4155 C1218 2.240 . S
C4160 C2117 2.466 . S
C4165 C2206 2.466 . S
C4170 C3087 2.241 . S
C4175 C2295 2.467 . S
C4180 C3176 2.240 . S
C4185 C2384 2.466 . S
C4190 C2998 2.241 . S
C4195 C2909 2.242 . S
C4200 C2473 2.466 . S
C4205 C2731 2.243 . S
C4210 C2562 2.466 . S
C4215 C2820 2.240 . S
C4220 C2651 2.466 . S
C4225 C2553 2.241 . S
C4230 C2740 2.467 . S
C4235 C2829 2.467 . S
C4240 C2642 2.240 . S
C4245 C2918 2.466 . S
C4250 C2464 2.242 . S
C4255 C2375 2.240 . S
C4260 C3007 2.466 . S
C4265 C3096 2.466 . S
C4270 C2197 2.243 . S
C4275 C3185 2.467 . S
C4280 C2286 2.241 . S
C4285 C1620 0.859 . S
C4290 C18 0.859 . S
C4295 C1709 0.861 . S
C4300 C107 0.861 . S
C4305 C196 0.859 . S
C4310 C1798 0.859 . S
C4315 C2955 0.859 . S
C4320 C285 0.859 . S
C4325 C3044 0.861 . S
C4330 C374 0.861 . S
C4335 C3133 0.862 . S
C4340 C463 0.862 . S
C4345 C2154 0.862 . S
C4350 C552 0.862 . S
C4355 C641 0.859 . S
C4360 C2243 0.859 . S
C4365 C730 0.862 . S
C4370 C2332 0.862 . S
C4375 C1353 0.862 . S
C4380 C819 0.862 . S
C4385 C1442 0.861 . S
C4390 C908 0.861 . S
C4395 C997 0.859 . S
C4400 C1531 0.859 . S
C4405 C2688 0.859 . S
C4410 C1086 0.859 . S
C4415 C2777 0.860 . S
C4420 C1175 0.860 . S
C4425 C2866 0.859 . S
C4430 C1264 0.859 . S
C4435 C1887 0.862 . S
C4440 C2421 0.862 . S
C4445 C1976 0.862 . S
C4450 C2510 0.862 . S
C4455 C2065 0.862 . S
C4460 C2599 0.862 . S
