# Generated by pormake.
# Topology bmn, (3)-cn, num edge types: 1
# Building blocks:
#     Node 0, Type 0, BuildingBlock: WUSLED_clean_sbu_0, # of connection points: 3
#     Node 1, Type 0, BuildingBlock: WUSLED_clean_sbu_0, # of connection points: 3
#     Node 2, Type 0, BuildingBlock: WUSLED_clean_sbu_0, # of connection points: 3
#     Node 3, Type 0, BuildingBlock: WUSLED_clean_sbu_0, # of connection points: 3
#     Node 4, Type 0, BuildingBlock: WUSLED_clean_sbu_0, # of connection points: 3
#     Node 5, Type 0, BuildingBlock: WUSLED_clean_sbu_0, # of connection points: 3
#     Node 6, Type 0, BuildingBlock: WUSLED_clean_sbu_0, # of connection points: 3
#     Node 7, Type 0, BuildingBlock: WUSLED_clean_sbu_0, # of connection points: 3
#     Node 8, Type 0, BuildingBlock: WUSLED_clean_sbu_0, # of connection points: 3
#     Node 9, Type 0, BuildingBlock: WUSLED_clean_sbu_0, # of connection points: 3
#     Node 10, Type 0, BuildingBlock: WUSLED_clean_sbu_0, # of connection points: 3
#     Node 11, Type 0, BuildingBlock: WUSLED_clean_sbu_0, # of connection points: 3
#     Node 12, Type 0, BuildingBlock: WUSLED_clean_sbu_0, # of connection points: 3
#     Node 13, Type 0, BuildingBlock: WUSLED_clean_sbu_0, # of connection points: 3
#     Node 14, Type 0, BuildingBlock: WUSLED_clean_sbu_0, # of connection points: 3
#     Node 15, Type 0, BuildingBlock: WUSLED_clean_sbu_0, # of connection points: 3
#     Node 16, Type 0, BuildingBlock: WUSLED_clean_sbu_0, # of connection points: 3
#     Node 17, Type 0, BuildingBlock: WUSLED_clean_sbu_0, # of connection points: 3
#     Node 18, Type 0, BuildingBlock: WUSLED_clean_sbu_0, # of connection points: 3
#     Node 19, Type 0, BuildingBlock: WUSLED_clean_sbu_0, # of connection points: 3
#     Node 20, Type 0, BuildingBlock: WUSLED_clean_sbu_0, # of connection points: 3
#     Node 21, Type 0, BuildingBlock: WUSLED_clean_sbu_0, # of connection points: 3
#     Node 22, Type 0, BuildingBlock: WUSLED_clean_sbu_0, # of connection points: 3
#     Node 23, Type 0, BuildingBlock: WUSLED_clean_sbu_0, # of connection points: 3
#     Edge 24, Type (0, 0), BuildingBlock: ZUJKAS_clean_linker_0, # of connection points: 2
#     Edge 25, Type (0, 0), BuildingBlock: ZUJKAS_clean_linker_0, # of connection points: 2
#     Edge 26, Type (0, 0), BuildingBlock: ZUJKAS_clean_linker_0, # of connection points: 2
#     Edge 27, Type (0, 0), BuildingBlock: ZUJKAS_clean_linker_0, # of connection points: 2
#     Edge 28, Type (0, 0), BuildingBlock: ZUJKAS_clean_linker_0, # of connection points: 2
#     Edge 29, Type (0, 0), BuildingBlock: ZUJKAS_clean_linker_0, # of connection points: 2
#     Edge 30, Type (0, 0), BuildingBlock: ZUJKAS_clean_linker_0, # of connection points: 2
#     Edge 31, Type (0, 0), BuildingBlock: ZUJKAS_clean_linker_0, # of connection points: 2
#     Edge 32, Type (0, 0), BuildingBlock: ZUJKAS_clean_linker_0, # of connection points: 2
#     Edge 33, Type (0, 0), BuildingBlock: ZUJKAS_clean_linker_0, # of connection points: 2
#     Edge 34, Type (0, 0), BuildingBlock: ZUJKAS_clean_linker_0, # of connection points: 2
#     Edge 35, Type (0, 0), BuildingBlock: ZUJKAS_clean_linker_0, # of connection points: 2
#     Edge 36, Type (0, 0), BuildingBlock: ZUJKAS_clean_linker_0, # of connection points: 2
#     Edge 37, Type (0, 0), BuildingBlock: ZUJKAS_clean_linker_0, # of connection points: 2
#     Edge 38, Type (0, 0), BuildingBlock: ZUJKAS_clean_linker_0, # of connection points: 2
#     Edge 39, Type (0, 0), BuildingBlock: ZUJKAS_clean_linker_0, # of connection points: 2
#     Edge 40, Type (0, 0), BuildingBlock: ZUJKAS_clean_linker_0, # of connection points: 2
#     Edge 41, Type (0, 0), BuildingBlock: ZUJKAS_clean_linker_0, # of connection points: 2
#     Edge 42, Type (0, 0), BuildingBlock: ZUJKAS_clean_linker_0, # of connection points: 2
#     Edge 43, Type (0, 0), BuildingBlock: ZUJKAS_clean_linker_0, # of connection points: 2
#     Edge 44, Type (0, 0), BuildingBlock: ZUJKAS_clean_linker_0, # of connection points: 2
#     Edge 45, Type (0, 0), BuildingBlock: ZUJKAS_clean_linker_0, # of connection points: 2
#     Edge 46, Type (0, 0), BuildingBlock: ZUJKAS_clean_linker_0, # of connection points: 2
#     Edge 47, Type (0, 0), BuildingBlock: ZUJKAS_clean_linker_0, # of connection points: 2
#     Edge 48, Type (0, 0), BuildingBlock: ZUJKAS_clean_linker_0, # of connection points: 2
#     Edge 49, Type (0, 0), BuildingBlock: ZUJKAS_clean_linker_0, # of connection points: 2
#     Edge 50, Type (0, 0), BuildingBlock: ZUJKAS_clean_linker_0, # of connection points: 2
#     Edge 51, Type (0, 0), BuildingBlock: ZUJKAS_clean_linker_0, # of connection points: 2
#     Edge 52, Type (0, 0), BuildingBlock: ZUJKAS_clean_linker_0, # of connection points: 2
#     Edge 53, Type (0, 0), BuildingBlock: ZUJKAS_clean_linker_0, # of connection points: 2
#     Edge 54, Type (0, 0), BuildingBlock: ZUJKAS_clean_linker_0, # of connection points: 2
#     Edge 55, Type (0, 0), BuildingBlock: ZUJKAS_clean_linker_0, # of connection points: 2
#     Edge 56, Type (0, 0), BuildingBlock: ZUJKAS_clean_linker_0, # of connection points: 2
#     Edge 57, Type (0, 0), BuildingBlock: ZUJKAS_clean_linker_0, # of connection points: 2
#     Edge 58, Type (0, 0), BuildingBlock: ZUJKAS_clean_linker_0, # of connection points: 2
#     Edge 59, Type (0, 0), BuildingBlock: ZUJKAS_clean_linker_0, # of connection points: 2
# Relax obj value: 0.188
# Max RMSD: 0.300
# Mean RMSD: 0.113
data_MOF--net-bmn--node1-WUSLED_clean_sbu_0--edge1-ZUJKAS_clean_linker_0
_symmetry_space_group_name_H-M    P1
_symmetry_Int_Tables_number       1
_symmetry_cell_setting            triclinic
loop_
_symmetry_equiv_pos_as_xyz
'x, y, z'
_cell_length_a     94.347028
_cell_length_b     94.780679
_cell_length_c     94.810129
_cell_angle_alpha  67.826575
_cell_angle_beta   68.836734
_cell_angle_gamma 68.855081
loop_
_atom_site_label
_atom_site_type_symbol
_atom_site_fract_x
_atom_site_fract_y
_atom_site_fract_z
_atom_type_partial_charge
C0 C 0.10983 0.24188 0.51368 0.0
C1 C 0.10467 0.24042 0.50228 0.0
C2 C 0.11661 0.21207 0.50933 0.0
C3 C 0.10803 0.22562 0.50012 0.0
C4 C 0.12138 0.21361 0.52102 0.0
C5 C 0.11802 0.2284 0.52315 0.0
U6 U 0.09437 0.28663 0.50126 0.0
O7 O 0.08384 0.30337 0.51562 0.0
O8 O 0.10641 0.30411 0.49767 0.0
C9 C 0.09518 0.31058 0.50822 0.0
C10 C 0.10757 0.25745 0.51519 0.0
C11 C 0.09057 0.32794 0.50394 0.0
C12 C 0.08434 0.35137 0.51207 0.0
C13 C 0.08635 0.33516 0.51584 0.0
C14 C 0.08995 0.35359 0.4844 0.0
C15 C 0.08658 0.3607 0.49627 0.0
C16 C 0.09197 0.33731 0.4882 0.0
C17 C 0.07179 0.30467 0.46877 0.0
C18 C 0.06983 0.32887 0.44715 0.0
C19 C 0.05035 0.31413 0.45636 0.0
C20 C 0.05802 0.30309 0.46773 0.0
C21 C 0.05636 0.32695 0.44568 0.0
C22 C 0.07749 0.31782 0.45861 0.0
C23 C 0.0805 0.29174 0.47964 0.0
O24 O 0.11531 0.26662 0.5029 0.0
O25 O 0.09299 0.26485 0.52085 0.0
O26 O 0.07325 0.28912 0.49475 0.0
O27 O 0.09561 0.29044 0.47656 0.0
H28 H 0.09831 0.25075 0.49486 0.0
H29 H 0.10403 0.22482 0.49114 0.0
H30 H 0.12819 0.20347 0.52816 0.0
H31 H 0.12216 0.22935 0.53195 0.0
H32 H 0.08144 0.35653 0.52151 0.0
H33 H 0.0852 0.32815 0.52805 0.0
H34 H 0.09178 0.36045 0.47212 0.0
H35 H 0.09521 0.33198 0.4788 0.0
H36 H 0.07482 0.33856 0.43906 0.0
H37 H 0.03983 0.31246 0.45576 0.0
H38 H 0.05341 0.29305 0.47547 0.0
H39 H 0.08809 0.31933 0.45919 0.0
C40 C 0.06263 0.87935 0.85324 0.0
C41 C 0.07827 0.87086 0.84842 0.0
C42 C 0.08758 0.8882 0.85453 0.0
C43 C 0.09062 0.87523 0.84907 0.0
C44 C 0.07184 0.89658 0.8595 0.0
C45 C 0.05947 0.89219 0.85883 0.0
U46 U 0.05003 0.8534 0.84086 0.0
O47 O 0.03026 0.8423 0.85154 0.0
O48 O 0.03295 0.8587 0.82764 0.0
C49 C 0.02432 0.84987 0.8393 0.0
C50 C 0.04975 0.87503 0.85195 0.0
C51 C 0.00722 0.85685 0.84264 0.0
C52 C 0.9842 0.87859 0.84714 0.0
C53 C 1.00036 0.87162 0.84561 0.0
C54 C 0.98165 0.85587 0.84326 0.0
C55 C 0.97476 0.87093 0.84561 0.0
C56 C 0.99772 0.84892 0.84179 0.0
C57 C 0.08221 0.82254 0.82233 0.0
C58 C 0.07741 0.80992 0.80709 0.0
C59 C 0.10283 0.80156 0.81259 0.0
C60 C 0.09752 0.81265 0.82099 0.0
C61 C 0.09292 0.80026 0.80532 0.0
C62 C 0.07208 0.82093 0.81557 0.0
C63 C 0.0772 0.83499 0.83008 0.0
O64 O 0.04927 0.87792 0.83741 0.0
O65 O 0.04787 0.86102 0.86097 0.0
O66 O 0.06908 0.83163 0.84492 0.0
O67 O 0.07129 0.84921 0.82172 0.0
H68 H 0.08092 0.86089 0.84407 0.0
H69 H 0.10257 0.86837 0.84538 0.0
H70 H 0.0691 0.90671 0.86362 0.0
H71 H 0.04746 0.89892 0.86252 0.0
H72 H 0.97925 0.89025 0.84885 0.0
H73 H 0.00755 0.87792 0.84628 0.0
H74 H 0.97466 0.84957 0.84225 0.0
H75 H 0.00282 0.83748 0.83954 0.0
H76 H 0.06945 0.80906 0.80177 0.0
H77 H 0.11488 0.7944 0.81131 0.0
H78 H 0.10549 0.81377 0.82613 0.0
H79 H 0.06017 0.82843 0.81658 0.0
C80 C 0.83822 0.73807 0.97143 0.0
C81 C 0.83024 0.72759 0.97256 0.0
C82 C 0.8549 0.70715 0.96966 0.0
C83 C 0.8385 0.71228 0.97164 0.0
C84 C 0.86275 0.71761 0.96898 0.0
C85 C 0.85447 0.73296 0.96982 0.0
U86 U 0.79976 0.76904 0.97877 0.0
O87 O 0.79318 0.78897 0.98847 0.0
O88 O 0.79185 0.7933 0.96449 0.0
C89 C 0.79107 0.79952 0.9751 0.0
C90 C 0.82972 0.75443 0.97148 0.0
C91 C 0.79949 0.81184 0.96907 0.0
C92 C 0.82337 0.82074 0.95513 0.0
C93 C 0.81568 0.80866 0.96166 0.0
C94 C 0.79881 0.83917 0.9637 0.0
C95 C 0.81497 0.8362 0.95589 0.0
C96 C 0.79115 0.8271 0.97019 0.0
C97 C 0.76165 0.75578 0.99368 0.0
C98 C 0.73545 0.77247 0.00152 0.0
C99 C 0.7386 0.74727 0.99823 0.0
C100 C 0.75493 0.74457 0.99418 0.0
C101 C 0.72863 0.76128 0.00193 0.0
C102 C 0.75184 0.76976 0.99739 0.0
C103 C 0.77887 0.75275 0.98895 0.0
O104 O 0.82141 0.7621 0.96104 0.0
O105 O 0.82212 0.75658 0.98547 0.0
O106 O 0.78514 0.75448 0.99833 0.0
O107 O 0.78506 0.75882 0.97392 0.0
H108 H 0.81765 0.73136 0.97384 0.0
H109 H 0.83209 0.70464 0.972 0.0
H110 H 0.87532 0.71398 0.96771 0.0
H111 H 0.86078 0.7409 0.96902 0.0
H112 H 0.83578 0.81806 0.9491 0.0
H113 H 0.8223 0.7969 0.96069 0.0
H114 H 0.79205 0.85086 0.96476 0.0
H115 H 0.77866 0.82974 0.97593 0.0
H116 H 0.72815 0.7833 0.00445 0.0
H117 H 0.7338 0.73853 0.99814 0.0
H118 H 0.76235 0.73375 0.99125 0.0
H119 H 0.75685 0.77858 0.99703 0.0
C120 C 0.56853 0.50372 0.12068 0.0
C121 C 0.58357 0.49646 0.12327 0.0
C122 C 0.58177 0.51826 0.13203 0.0
C123 C 0.59011 0.50363 0.12895 0.0
C124 C 0.56668 0.52549 0.12941 0.0
C125 C 0.5601 0.51825 0.1238 0.0
U126 U 0.57429 0.47387 0.10036 0.0
O127 O 0.55992 0.45824 0.10437 0.0
O128 O 0.56476 0.47587 0.08145 0.0
C129 C 0.55675 0.46538 0.09057 0.0
C130 C 0.56186 0.49644 0.11421 0.0
C131 C 0.53998 0.47047 0.09097 0.0
C132 C 0.51314 0.48495 0.10063 0.0
C133 C 0.52909 0.48026 0.10027 0.0
C134 C 0.51885 0.4703 0.08222 0.0
C135 C 0.50783 0.48003 0.09161 0.0
C136 C 0.53478 0.46556 0.08193 0.0
C137 C 0.61625 0.44782 0.08944 0.0
C138 C 0.62409 0.42963 0.07389 0.0
C139 C 0.64303 0.43142 0.08448 0.0
C140 C 0.63151 0.44287 0.09131 0.0
C141 C 0.6395 0.4247 0.07563 0.0
C142 C 0.61254 0.4411 0.08078 0.0
C143 C 0.60455 0.46023 0.09637 0.0
O144 O 0.56672 0.49913 0.09882 0.0
O145 O 0.56182 0.48163 0.1218 0.0
O146 O 0.59387 0.4555 0.10921 0.0
O147 O 0.59871 0.47319 0.08632 0.0
H148 H 0.59031 0.48531 0.12075 0.0
H149 H 0.60184 0.49788 0.1306 0.0
H150 H 0.55992 0.53669 0.13178 0.0
H151 H 0.5485 0.52403 0.1218 0.0
H152 H 0.50498 0.49258 0.10783 0.0
H153 H 0.53294 0.48424 0.10725 0.0
H154 H 0.51511 0.46616 0.07529 0.0
H155 H 0.54304 0.45801 0.07469 0.0
H156 H 0.62096 0.42459 0.06727 0.0
H157 H 0.65482 0.42811 0.08584 0.0
H158 H 0.63457 0.448 0.09793 0.0
H159 H 0.60076 0.44479 0.07926 0.0
C160 C 0.20164 0.74558 0.57302 0.0
C161 C 0.20497 0.75231 0.58196 0.0
C162 C 0.208 0.77547 0.55946 0.0
C163 C 0.20819 0.76707 0.57523 0.0
C164 C 0.20504 0.76847 0.55043 0.0
C165 C 0.20186 0.75365 0.55718 0.0
U166 U 0.18574 0.71681 0.61041 0.0
O167 O 0.16695 0.70524 0.61685 0.0
O168 O 0.19088 0.69092 0.61816 0.0
C169 C 0.17664 0.69104 0.61891 0.0
C170 C 0.19663 0.73086 0.58061 0.0
C171 C 0.17586 0.68134 0.61037 0.0
C172 C 0.18247 0.67427 0.58623 0.0
C173 C 0.18377 0.68318 0.59436 0.0
C174 C 0.16535 0.66159 0.61005 0.0
C175 C 0.17316 0.66342 0.59395 0.0
C176 C 0.16671 0.67047 0.61817 0.0
C177 C 0.17807 0.72823 0.64835 0.0
C178 C 0.15733 0.72693 0.67286 0.0
C179 C 0.18168 0.73158 0.67088 0.0
C180 C 0.18743 0.73064 0.65539 0.0
C181 C 0.16638 0.73023 0.67964 0.0
C182 C 0.16312 0.72594 0.65733 0.0
C183 C 0.18351 0.73 0.63126 0.0
O184 O 0.20557 0.71929 0.58919 0.0
O185 O 0.18153 0.73285 0.58765 0.0
O186 O 0.17259 0.73404 0.62389 0.0
O187 O 0.19619 0.71948 0.62638 0.0
H188 H 0.20473 0.7463 0.59426 0.0
H189 H 0.21065 0.77199 0.58244 0.0
H190 H 0.20462 0.77468 0.53832 0.0
H191 H 0.19915 0.74869 0.55017 0.0
H192 H 0.1888 0.67585 0.57391 0.0
H193 H 0.19086 0.69158 0.58813 0.0
H194 H 0.15789 0.65355 0.61632 0.0
H195 H 0.16044 0.66899 0.63051 0.0
H196 H 0.14547 0.7259 0.67925 0.0
H197 H 0.18906 0.73384 0.67586 0.0
H198 H 0.199 0.73242 0.64868 0.0
H199 H 0.15566 0.72404 0.65218 0.0
C200 C 0.4847 0.87433 0.96287 0.0
C201 C 0.48432 0.86308 0.95678 0.0
C202 C 0.4567 0.8758 0.95719 0.0
C203 C 0.47046 0.86382 0.95397 0.0
C204 C 0.45694 0.88658 0.96395 0.0
C205 C 0.4708 0.88589 0.96669 0.0
U206 U 0.52218 0.85985 0.97804 0.0
O207 O 0.54625 0.86116 0.96447 0.0
O208 O 0.53345 0.87416 0.98219 0.0
C209 C 0.54633 0.87107 0.97106 0.0
C210 C 0.49965 0.87546 0.96361 0.0
C211 C 0.55273 0.88445 0.96018 0.0
C212 C 0.55576 0.90484 0.93516 0.0
C213 C 0.54786 0.89364 0.94638 0.0
C214 C 0.57291 0.8982 0.95184 0.0
C215 C 0.56863 0.90698 0.93761 0.0
C216 C 0.56502 0.88705 0.963 0.0
C217 C 0.53563 0.82279 0.00713 0.0
C218 C 0.5588 0.82157 0.01362 0.0
C219 C 0.55379 0.79746 0.01564 0.0
C220 C 0.53993 0.80628 0.01084 0.0
C221 C 0.56358 0.80506 0.01672 0.0
C222 C 0.54504 0.83031 0.00885 0.0
C223 C 0.523 0.83239 0.99915 0.0
O224 O 0.49955 0.87759 0.97658 0.0
O225 O 0.51271 0.86577 0.95791 0.0
O226 O 0.52736 0.83402 0.98392 0.0
O227 O 0.51494 0.84576 0.00265 0.0
H228 H 0.49483 0.85402 0.95369 0.0
H229 H 0.4706 0.85524 0.94891 0.0
H230 H 0.44662 0.89608 0.96638 0.0
H231 H 0.4708 0.89481 0.97123 0.0
H232 H 0.55205 0.91155 0.92441 0.0
H233 H 0.53835 0.89177 0.94404 0.0
H234 H 0.58288 0.89934 0.95404 0.0
H235 H 0.56897 0.87997 0.97357 0.0
H236 H 0.56615 0.8279 0.01397 0.0
H237 H 0.55706 0.78476 0.01805 0.0
H238 H 0.53295 0.80027 0.00938 0.0
H239 H 0.54218 0.84306 0.00573 0.0
C240 C 0.87466 0.30728 0.92068 0.0
C241 C 0.87261 0.31595 0.93075 0.0
C242 C 0.89254 0.32908 0.91138 0.0
C243 C 0.88152 0.32669 0.92618 0.0
C244 C 0.8946 0.32032 0.90134 0.0
C245 C 0.88575 0.30948 0.90598 0.0
U246 U 0.83652 0.29601 0.944 0.0
O247 O 0.82092 0.28836 0.93747 0.0
O248 O 0.8313 0.27301 0.95721 0.0
C249 C 0.82305 0.27445 0.94792 0.0
C250 C 0.86468 0.29662 0.92509 0.0
C251 C 0.82723 0.26089 0.94191 0.0
C252 C 0.84618 0.24272 0.92716 0.0
C253 C 0.84243 0.25571 0.93273 0.0
C254 C 0.81954 0.24006 0.93986 0.0
C255 C 0.83475 0.23477 0.93064 0.0
C256 C 0.81583 0.253 0.94543 0.0
C257 C 0.80645 0.32233 0.96996 0.0
C258 C 0.77799 0.32677 0.97873 0.0
C259 C 0.79131 0.33409 0.99145 0.0
C260 C 0.80576 0.32863 0.98147 0.0
C261 C 0.77723 0.33342 0.99006 0.0
C262 C 0.79248 0.32121 0.9688 0.0
C263 C 0.82175 0.31774 0.95892 0.0
O264 O 0.86226 0.28781 0.93984 0.0
O265 O 0.85181 0.30311 0.92015 0.0
O266 O 0.82142 0.31976 0.94452 0.0
O267 O 0.8314 0.30437 0.96454 0.0
H268 H 0.86394 0.3146 0.94206 0.0
H269 H 0.87948 0.33343 0.93407 0.0
H270 H 0.90306 0.32185 0.8899 0.0
H271 H 0.88741 0.30296 0.89801 0.0
H272 H 0.85795 0.23904 0.91997 0.0
H273 H 0.85137 0.26173 0.92986 0.0
H274 H 0.81053 0.23407 0.94294 0.0
H275 H 0.80405 0.25682 0.95255 0.0
H276 H 0.76736 0.32595 0.97749 0.0
H277 H 0.79112 0.33931 0.99992 0.0
H278 H 0.8164 0.32963 0.98252 0.0
H279 H 0.79275 0.31628 0.96007 0.0
C280 C 0.97265 0.4819 0.21354 0.0
C281 C 0.9611 0.47677 0.22705 0.0
C282 C 0.94066 0.49311 0.21342 0.0
C283 C 0.94524 0.48232 0.22699 0.0
C284 C 0.95234 0.49801 0.19982 0.0
C285 C 0.96821 0.49245 0.19991 0.0
U286 U 0.00335 0.45896 0.23633 0.0
O287 O 0.02741 0.44409 0.22975 0.0
O288 O 0.02341 0.46488 0.23715 0.0
C289 C 0.0338 0.45336 0.23151 0.0
C290 C 0.98921 0.47665 0.21386 0.0
C291 C 0.0476 0.45742 0.21885 0.0
C292 C 0.06077 0.4766 0.1979 0.0
C293 C 0.04702 0.47278 0.20868 0.0
C294 C 0.07564 0.4496 0.20688 0.0
C295 C 0.07531 0.4651 0.1971 0.0
C296 C 0.06194 0.44582 0.21766 0.0
C297 C 0.99138 0.43702 0.27931 0.0
C298 C 0.01159 0.42267 0.29348 0.0
C299 C 0.98409 0.42482 0.30756 0.0
C300 C 0.97981 0.43362 0.29343 0.0
C301 C 1.00004 0.41929 0.30774 0.0
C302 C 0.00729 0.43147 0.2794 0.0
C303 C 0.9869 0.4468 0.2646 0.0
O304 O 0.99245 0.48243 0.22261 0.0
O305 O 0.99569 0.46142 0.21599 0.0
O306 O 0.99243 0.43996 0.25324 0.0
O307 O 0.98849 0.46122 0.25974 0.0
H308 H 0.96436 0.4686 0.23769 0.0
H309 H 0.93657 0.47816 0.23758 0.0
H310 H 0.94918 0.50645 0.18924 0.0
H311 H 0.97699 0.49656 0.18941 0.0
H312 H 0.06011 0.48866 0.1906 0.0
H313 H 0.03605 0.48193 0.20936 0.0
H314 H 0.08656 0.44038 0.20634 0.0
H315 H 0.06261 0.43389 0.22536 0.0
H316 H 0.02395 0.41881 0.29324 0.0
H317 H 0.97494 0.42227 0.31832 0.0
H318 H 0.96747 0.43785 0.29354 0.0
H319 H 0.01637 0.43412 0.26859 0.0
C320 C 0.51063 0.09884 0.3298 0.0
C321 C 0.49884 0.09208 0.34155 0.0
C322 C 0.50523 0.09725 0.36155 0.0
C323 C 0.49616 0.09129 0.35729 0.0
C324 C 0.51723 0.10372 0.34973 0.0
C325 C 0.51988 0.10452 0.33398 0.0
U326 U 0.4991 0.09326 0.29822 0.0
O327 O 0.49646 0.11017 0.27539 0.0
O328 O 0.51363 0.08703 0.27615 0.0
C329 C 0.50677 0.10045 0.26733 0.0
C330 C 0.5128 0.10067 0.31313 0.0
C331 C 0.50252 0.09979 0.25412 0.0
C332 C 0.511 0.09938 0.22683 0.0
C333 C 0.51458 0.09716 0.24071 0.0
C334 C 0.48318 0.10599 0.23985 0.0
C335 C 0.49527 0.10438 0.22606 0.0
C336 C 0.48677 0.10373 0.25378 0.0
C337 C 0.4656 0.07177 0.31406 0.0
C338 C 0.44124 0.07466 0.3086 0.0
C339 C 0.45401 0.0496 0.32427 0.0
C340 C 0.46602 0.05593 0.32246 0.0
C341 C 0.44122 0.05901 0.31777 0.0
C342 C 0.45332 0.081 0.30676 0.0
C343 C 0.47682 0.07869 0.31507 0.0
O344 O 0.51834 0.08751 0.30903 0.0
O345 O 0.50094 0.11047 0.30736 0.0
O346 O 0.47417 0.09415 0.31019 0.0
O347 O 0.49181 0.07123 0.31147 0.0
H348 H 0.49159 0.08763 0.3385 0.0
H349 H 0.48697 0.08605 0.36613 0.0
H350 H 0.5243 0.10857 0.35257 0.0
H351 H 0.52897 0.10985 0.32502 0.0
H352 H 0.52059 0.09775 0.2165 0.0
H353 H 0.5268 0.09409 0.24073 0.0
H354 H 0.47094 0.10989 0.23964 0.0
H355 H 0.47725 0.1058 0.26401 0.0
H356 H 0.43165 0.08216 0.30328 0.0
H357 H 0.4543 0.0376 0.33159 0.0
H358 H 0.47527 0.04863 0.32833 0.0
H359 H 0.45268 0.09327 0.30019 0.0
C360 C 0.49472 0.13063 0.58 0.0
C361 C 0.48994 0.12979 0.59606 0.0
C362 C 0.51001 0.14241 0.59207 0.0
C363 C 0.4975 0.13563 0.60204 0.0
C364 C 0.5147 0.14328 0.57595 0.0
C365 C 0.5071 0.13743 0.56997 0.0
U366 U 0.46433 0.10979 0.58696 0.0
O367 O 0.44829 0.11386 0.57297 0.0
O368 O 0.46567 0.09103 0.57788 0.0
C369 C 0.45497 0.10005 0.57015 0.0
C370 C 0.48698 0.1242 0.57379 0.0
C371 C 0.4594 0.10037 0.55353 0.0
C372 C 0.47615 0.10648 0.52686 0.0
C373 C 0.47196 0.10646 0.54261 0.0
C374 C 0.45518 0.09441 0.53285 0.0
C375 C 0.4678 0.10044 0.5218 0.0
C376 C 0.45103 0.09438 0.54858 0.0
C377 C 0.43871 0.09728 0.62869 0.0
C378 C 0.41738 0.08569 0.63445 0.0
C379 C 0.42512 0.08651 0.65583 0.0
C380 C 0.4367 0.09396 0.64488 0.0
C381 C 0.41532 0.08227 0.65076 0.0
C382 C 0.42901 0.09311 0.62351 0.0
C383 C 0.45114 0.10483 0.61736 0.0
O384 O 0.48956 0.10876 0.57873 0.0
O385 O 0.47213 0.13158 0.5742 0.0
O386 O 0.44648 0.11794 0.60677 0.0
O387 O 0.46408 0.09524 0.61139 0.0
H388 H 0.48043 0.1245 0.60398 0.0
H389 H 0.49375 0.13456 0.61455 0.0
H390 H 0.52417 0.14857 0.56792 0.0
H391 H 0.51091 0.13817 0.55753 0.0
H392 H 0.48581 0.11137 0.51861 0.0
H393 H 0.47852 0.11117 0.54627 0.0
H394 H 0.44865 0.08948 0.52941 0.0
H395 H 0.44133 0.08959 0.5569 0.0
H396 H 0.40994 0.08276 0.63014 0.0
H397 H 0.42405 0.08383 0.66827 0.0
H398 H 0.44417 0.09702 0.64906 0.0
H399 H 0.43044 0.09557 0.61101 0.0
C400 C 0.59043 0.19378 0.69481 0.0
C401 C 0.60162 0.18467 0.68498 0.0
C402 C 0.58184 0.18831 0.67214 0.0
C403 C 0.59735 0.18195 0.67373 0.0
C404 C 0.57084 0.19783 0.68173 0.0
C405 C 0.57511 0.20051 0.69297 0.0
U406 U 0.61947 0.1891 0.71695 0.0
O407 O 0.61913 0.20457 0.72964 0.0
O408 O 0.61757 0.18021 0.74233 0.0
C409 C 0.617 0.19384 0.74337 0.0
C410 C 0.59421 0.19559 0.70766 0.0
C411 C 0.60448 0.19909 0.7564 0.0
C412 C 0.5779 0.20107 0.77346 0.0
C413 C 0.5891 0.19796 0.75979 0.0
C414 C 0.59714 0.20725 0.78 0.0
C415 C 0.58191 0.20543 0.78388 0.0
C416 C 0.60833 0.20407 0.76639 0.0
C417 C 0.66268 0.17122 0.7055 0.0
C418 C 0.67682 0.1666 0.72438 0.0
C419 C 0.69043 0.15732 0.70116 0.0
C420 C 0.67649 0.16356 0.69626 0.0
C421 C 0.69063 0.15853 0.71543 0.0
C422 C 0.66299 0.17289 0.71945 0.0
C423 C 0.64763 0.17661 0.70136 0.0
O424 O 0.59916 0.18231 0.71791 0.0
O425 O 0.60233 0.20589 0.70357 0.0
O426 O 0.64127 0.19193 0.69822 0.0
O427 O 0.63753 0.16833 0.71095 0.0
H428 H 0.61353 0.17941 0.68624 0.0
H429 H 0.60614 0.17472 0.6664 0.0
H430 H 0.55875 0.20273 0.68098 0.0
H431 H 0.56632 0.20751 0.70052 0.0
H432 H 0.56621 0.19976 0.77604 0.0
H433 H 0.58591 0.19419 0.75215 0.0
H434 H 0.60067 0.2104 0.78785 0.0
H435 H 0.62016 0.20495 0.76396 0.0
H436 H 0.67667 0.16794 0.73529 0.0
H437 H 0.70088 0.1511 0.69407 0.0
H438 H 0.67641 0.16212 0.68549 0.0
H439 H 0.65242 0.17878 0.72673 0.0
C440 C 0.48388 0.20202 0.97635 0.0
C441 C 0.48013 0.21593 0.96442 0.0
C442 C 0.49808 0.20304 0.94436 0.0
C443 C 0.48719 0.21645 0.94858 0.0
C444 C 0.50167 0.18905 0.95637 0.0
C445 C 0.49463 0.18857 0.97226 0.0
U446 U 0.45424 0.22303 0.00551 0.0
O447 O 0.43807 0.21508 0.02855 0.0
O448 O 0.4556 0.22637 0.02664 0.0
C449 C 0.44457 0.21917 0.03607 0.0
C450 C 0.47656 0.20175 0.99296 0.0
C451 C 0.44821 0.20743 0.05055 0.0
C452 C 0.46395 0.18288 0.06415 0.0
C453 C 0.46026 0.19345 0.05015 0.0
C454 C 0.44343 0.20011 0.07896 0.0
C455 C 0.45569 0.18621 0.07869 0.0
C456 C 0.43974 0.2106 0.06502 0.0
C457 C 0.42971 0.26398 0.9891 0.0
C458 C 0.41107 0.2795 0.00662 0.0
C459 C 0.41638 0.2912 0.97828 0.0
C460 C 0.42693 0.27694 0.97607 0.0
C461 C 0.40846 0.29269 0.99359 0.0
C462 C 0.42163 0.26527 0.00439 0.0
C463 C 0.44163 0.24945 0.98668 0.0
O464 O 0.47938 0.212 0.99716 0.0
O465 O 0.46169 0.20151 0.99807 0.0
O466 O 0.43645 0.23675 0.9921 0.0
O467 O 0.45474 0.24703 0.99015 0.0
H468 H 0.47175 0.22641 0.96738 0.0
H469 H 0.484 0.22731 0.93962 0.0
H470 H 0.51012 0.17857 0.95348 0.0
H471 H 0.49765 0.17775 0.98134 0.0
H472 H 0.47352 0.17233 0.06354 0.0
H473 H 0.46693 0.19086 0.03902 0.0
H474 H 0.43668 0.2029 0.08998 0.0
H475 H 0.43038 0.22133 0.06553 0.0
H476 H 0.40533 0.28032 0.01855 0.0
H477 H 0.41451 0.30109 0.96802 0.0
H478 H 0.43311 0.27611 0.96419 0.0
H479 H 0.42376 0.25536 0.01458 0.0
C480 C 0.32027 0.50568 0.08803 0.0
C481 C 0.33454 0.49973 0.07802 0.0
C482 C 0.34892 0.50761 0.08929 0.0
C483 C 0.34871 0.50067 0.07864 0.0
C484 C 0.33453 0.51378 0.09918 0.0
C485 C 0.3203 0.51281 0.09856 0.0
U486 U 0.30199 0.48706 0.07328 0.0
O487 O 0.28431 0.47347 0.08497 0.0
O488 O 0.28036 0.49496 0.06536 0.0
C489 C 0.27462 0.48346 0.07637 0.0
C490 C 0.30566 0.50345 0.088 0.0
C491 C 0.25797 0.48773 0.08493 0.0
C492 C 0.2376 0.49179 0.10867 0.0
C493 C 0.25338 0.48985 0.09998 0.0
C494 C 0.23079 0.49028 0.08706 0.0
C495 C 0.22618 0.49168 0.10244 0.0
C496 C 0.24653 0.48831 0.07842 0.0
C497 C 0.33027 0.4617 0.04651 0.0
C498 C 0.32125 0.445 0.03934 0.0
C499 C 0.34907 0.44352 0.03183 0.0
C500 C 0.34578 0.45523 0.03896 0.0
C501 C 0.33687 0.43807 0.03219 0.0
C502 C 0.31797 0.45673 0.04646 0.0
C503 C 0.32721 0.47262 0.05547 0.0
O504 O 0.30204 0.50984 0.07437 0.0
O505 O 0.30436 0.48889 0.09471 0.0
O506 O 0.32252 0.46683 0.07083 0.0
O507 O 0.31906 0.48711 0.05014 0.0
H508 H 0.33475 0.49402 0.06994 0.0
H509 H 0.35954 0.49552 0.07107 0.0
H510 H 0.33427 0.5193 0.10743 0.0
H511 H 0.30938 0.51739 0.10642 0.0
H512 H 0.2344 0.49305 0.1204 0.0
H513 H 0.26205 0.48949 0.10519 0.0
H514 H 0.22237 0.48994 0.08196 0.0
H515 H 0.24988 0.48663 0.06685 0.0
H516 H 0.31159 0.44117 0.03967 0.0
H517 H 0.36125 0.43828 0.02664 0.0
H518 H 0.3554 0.45888 0.03901 0.0
H519 H 0.30591 0.46162 0.0523 0.0
C520 C 0.6986 0.58587 0.18007 0.0
C521 C 0.68442 0.59717 0.17807 0.0
C522 C 0.67554 0.57805 0.17415 0.0
C523 C 0.67295 0.59328 0.17516 0.0
C524 C 0.68985 0.56686 0.17609 0.0
C525 C 0.70123 0.57074 0.17905 0.0
U526 U 0.71876 0.61483 0.17947 0.0
O527 O 0.72994 0.61343 0.19694 0.0
O528 O 0.74392 0.61352 0.17271 0.0
C529 C 0.74401 0.61196 0.18705 0.0
C530 C 0.71088 0.58957 0.1831 0.0
C531 C 0.75672 0.59915 0.19303 0.0
C532 C 0.77402 0.57267 0.19525 0.0
C533 C 0.76089 0.58419 0.19082 0.0
C534 C 0.77848 0.59073 0.20475 0.0
C535 C 0.7831 0.5759 0.20205 0.0
C536 C 0.76542 0.60224 0.20025 0.0
C537 C 0.70594 0.65865 0.16397 0.0
C538 C 0.72029 0.67366 0.16692 0.0
C539 C 0.70541 0.68549 0.14728 0.0
C540 C 0.70069 0.67161 0.15196 0.0
C541 C 0.71552 0.68654 0.15451 0.0
C542 C 0.71563 0.65983 0.17153 0.0
C543 C 0.7028 0.64339 0.16752 0.0
O544 O 0.72099 0.59566 0.17048 0.0
O545 O 0.70619 0.59653 0.19427 0.0
O546 O 0.69906 0.6357 0.18259 0.0
O547 O 0.71332 0.63439 0.1588 0.0
H548 H 0.68222 0.60895 0.17877 0.0
H549 H 0.66203 0.60214 0.17385 0.0
H550 H 0.69238 0.55514 0.17508 0.0
H551 H 0.71217 0.56192 0.18046 0.0
H552 H 0.77719 0.5613 0.19318 0.0
H553 H 0.75423 0.58157 0.18533 0.0
H554 H 0.78533 0.59366 0.20977 0.0
H555 H 0.76238 0.61374 0.202 0.0
H556 H 0.72787 0.67415 0.17291 0.0
H557 H 0.70164 0.69514 0.1376 0.0
H558 H 0.69337 0.67083 0.14587 0.0
H559 H 0.71995 0.6499 0.18074 0.0
C560 C 0.12632 0.57511 0.4944 0.0
C561 C 0.12238 0.59141 0.49223 0.0
C562 C 0.13763 0.58716 0.51011 0.0
C563 C 0.12793 0.59737 0.50004 0.0
C564 C 0.14163 0.57081 0.51216 0.0
C565 C 0.13601 0.56485 0.50436 0.0
U566 U 0.10638 0.58278 0.46326 0.0
O567 O 0.11095 0.56983 0.44636 0.0
O568 O 0.08789 0.57372 0.46347 0.0
C569 C 0.0971 0.56676 0.45248 0.0
C570 C 0.1204 0.5689 0.4862 0.0
C571 C 0.0971 0.55029 0.45581 0.0
C572 C 0.09561 0.52436 0.474 0.0
C573 C 0.0965 0.5397 0.47097 0.0
C574 C 0.09635 0.5299 0.44665 0.0
C575 C 0.09538 0.51931 0.4619 0.0
C576 C 0.09716 0.54524 0.44367 0.0
C577 C 0.09391 0.62547 0.43887 0.0
C578 C 0.08219 0.63275 0.41729 0.0
C579 C 0.0835 0.65305 0.4261 0.0
C580 C 0.09089 0.64146 0.43747 0.0
C581 C 0.07901 0.64884 0.41591 0.0
C582 C 0.08955 0.62114 0.42872 0.0
C583 C 0.10133 0.61349 0.45115 0.0
O584 O 0.10502 0.57316 0.48861 0.0
O585 O 0.12799 0.57012 0.47131 0.0
O586 O 0.11447 0.60346 0.44618 0.0
O587 O 0.0917 0.60672 0.46377 0.0
H588 H 0.11492 0.59952 0.48454 0.0
H589 H 0.1244 0.60999 0.49836 0.0
H590 H 0.14924 0.56263 0.51966 0.0
H591 H 0.13924 0.55224 0.5061 0.0
H592 H 0.09473 0.51659 0.4859 0.0
H593 H 0.09647 0.54337 0.48051 0.0
H594 H 0.09651 0.52635 0.43699 0.0
H595 H 0.0977 0.55323 0.43187 0.0
H596 H 0.07874 0.62912 0.40973 0.0
H597 H 0.0814 0.66534 0.42521 0.0
H598 H 0.0942 0.64498 0.44522 0.0
H599 H 0.09173 0.60881 0.42973 0.0
C600 C 0.78992 0.95633 0.81644 0.0
C601 C 0.80379 0.9578 0.80441 0.0
C602 C 0.81926 0.94434 0.82375 0.0
C603 C 0.81834 0.95186 0.80803 0.0
C604 C 0.80526 0.94314 0.83577 0.0
C605 C 0.79072 0.94907 0.83213 0.0
U606 U 0.76538 0.97494 0.7866 0.0
O607 O 0.74647 0.96776 0.78499 0.0
O608 O 0.74162 0.99107 0.78796 0.0
C609 C 0.73578 0.9807 0.78738 0.0
C610 C 0.77468 0.96176 0.81269 0.0
C611 C 0.7212 0.97821 0.79942 0.0
C612 C 0.70726 0.96769 0.82651 0.0
C613 C 0.72108 0.9709 0.81536 0.0
C614 C 0.69356 0.97935 0.80589 0.0
C615 C 0.6934 0.9717 0.82185 0.0
C616 C 0.70735 0.98257 0.79478 0.0
C617 C 0.78355 0.98824 0.74295 0.0
C618 C 0.76756 0.99536 0.72495 0.0
C619 C 0.79464 0.99701 0.71468 0.0
C620 C 0.79624 0.99181 0.73008 0.0
C621 C 0.78035 0.99863 0.71195 0.0
C622 C 0.76915 0.99025 0.74032 0.0
C623 C 0.78548 0.98181 0.75907 0.0
O624 O 0.7695 0.97711 0.80703 0.0
O625 O 0.77308 0.9537 0.80497 0.0
O626 O 0.78329 0.96762 0.76641 0.0
O627 O 0.77842 0.99154 0.76788 0.0
H628 H 0.80336 0.96339 0.79222 0.0
H629 H 0.82886 0.95318 0.79852 0.0
H630 H 0.80557 0.93727 0.84796 0.0
H631 H 0.78011 0.94778 0.84154 0.0
H632 H 0.70757 0.96164 0.83868 0.0
H633 H 0.73174 0.9674 0.8191 0.0
H634 H 0.68303 0.98277 0.80197 0.0
H635 H 0.70727 0.98824 0.78251 0.0
H636 H 0.75636 0.99667 0.72324 0.0
H637 H 0.80475 0.99927 0.70491 0.0
H638 H 0.80744 0.99028 0.73193 0.0
H639 H 0.75921 0.98759 0.75016 0.0
C640 C 0.21903 0.96844 0.48388 0.0
C641 C 0.23254 0.9568 0.47944 0.0
C642 C 0.21882 0.93636 0.49601 0.0
C643 C 0.23245 0.94089 0.48547 0.0
C644 C 0.2053 0.94814 0.50035 0.0
C645 C 0.20543 0.96404 0.49433 0.0
U646 U 0.23913 0.0007 0.45612 0.0
O647 O 0.22962 0.02472 0.44222 0.0
O648 O 0.24117 0.0212 0.4601 0.0
C649 C 0.23323 0.03139 0.4499 0.0
C650 C 0.21905 0.98516 0.47766 0.0
C651 C 0.22068 0.04424 0.45542 0.0
C652 C 0.19611 0.05374 0.47345 0.0
C653 C 0.20768 0.04126 0.46818 0.0
C654 C 0.21041 0.07221 0.45314 0.0
C655 C 0.19737 0.06937 0.466 0.0
C656 C 0.22193 0.05975 0.44791 0.0
C657 C 0.2792 0.99117 0.42829 0.0
C658 C 0.29224 0.01215 0.41263 0.0
C659 C 0.30508 0.9856 0.4103 0.0
C660 C 0.2921 0.98049 0.42145 0.0
C661 C 0.30536 0.00146 0.40589 0.0
C662 C 0.27928 0.00705 0.42372 0.0
C663 C 0.26584 0.98574 0.44045 0.0
O664 O 0.22954 0.98872 0.48092 0.0
O665 O 0.21834 0.99182 0.46291 0.0
O666 O 0.25269 0.99073 0.43615 0.0
O667 O 0.26378 0.98699 0.45445 0.0
H668 H 0.24317 0.96002 0.47137 0.0
H669 H 0.24311 0.93213 0.48203 0.0
H670 H 0.19455 0.94511 0.50824 0.0
H671 H 0.19488 0.97291 0.49781 0.0
H672 H 0.18615 0.05118 0.4833 0.0
H673 H 0.20654 0.0293 0.47409 0.0
H674 H 0.21191 0.08404 0.4473 0.0
H675 H 0.23194 0.06223 0.43808 0.0
H676 H 0.292 0.02448 0.40933 0.0
H677 H 0.31507 0.97707 0.40543 0.0
H678 H 0.29221 0.96819 0.42489 0.0
H679 H 0.26936 0.01546 0.42886 0.0
C680 C 0.24895 0.9311 0.85745 0.0
C681 C 0.24393 0.93757 0.84356 0.0
C682 C 0.22156 0.92601 0.85674 0.0
C683 C 0.23036 0.93503 0.84319 0.0
C684 C 0.22666 0.91961 0.87064 0.0
C685 C 0.24024 0.92214 0.87098 0.0
U686 U 0.28285 0.95063 0.83835 0.0
O687 O 0.29331 0.96076 0.84842 0.0
O688 O 0.30781 0.94111 0.83826 0.0
C689 C 0.30707 0.95051 0.84589 0.0
C690 C 0.2632 0.93365 0.85799 0.0
C691 C 0.3149 0.94337 0.85883 0.0
C692 C 0.3272 0.9205 0.8774 0.0
C693 C 0.31796 0.92712 0.86661 0.0
C694 C 0.3298 0.94638 0.87325 0.0
C695 C 0.33353 0.93002 0.88055 0.0
C696 C 0.32062 0.95295 0.86249 0.0
C697 C 0.28794 0.97864 0.79732 0.0
C698 C 0.30812 0.99279 0.78733 0.0
C699 C 0.29494 0.99292 0.76955 0.0
C700 C 0.28588 0.98351 0.78213 0.0
C701 C 0.30619 0.99765 0.77202 0.0
C702 C 0.29913 0.98333 0.79985 0.0
C703 C 0.27888 0.96825 0.8104 0.0
O704 O 0.27635 0.92808 0.84833 0.0
O705 O 0.2618 0.94791 0.85814 0.0
O706 O 0.27174 0.97297 0.8232 0.0
O707 O 0.28623 0.95316 0.81338 0.0
H708 H 0.25049 0.9446 0.83301 0.0
H709 H 0.22666 0.94027 0.83235 0.0
H710 H 0.22029 0.91245 0.88122 0.0
H711 H 0.24398 0.91705 0.8818 0.0
H712 H 0.32991 0.90786 0.88276 0.0
H713 H 0.31366 0.91947 0.864 0.0
H714 H 0.33422 0.95408 0.87564 0.0
H715 H 0.31837 0.96552 0.85665 0.0
H716 H 0.31684 0.99602 0.78957 0.0
H717 H 0.2931 0.99657 0.75792 0.0
H718 H 0.27733 0.97994 0.77997 0.0
H719 H 0.30101 0.97953 0.81149 0.0
C720 C 0.95381 0.48816 0.88363 0.0
C721 C 0.95966 0.48357 0.86971 0.0
C722 C 0.95038 0.45974 0.88377 0.0
C723 C 0.95796 0.46945 0.86978 0.0
C724 C 0.94475 0.4644 0.89768 0.0
C725 C 0.94647 0.47845 0.89759 0.0
U726 U 0.96587 0.52735 0.86452 0.0
O727 O 0.95193 0.55086 0.86699 0.0
O728 O 0.97357 0.53954 0.87507 0.0
C729 C 0.9611 0.55162 0.8742 0.0
C730 C 0.95462 0.50325 0.88384 0.0
C731 C 0.9533 0.55763 0.88813 0.0
C732 C 0.92955 0.56814 0.90645 0.0
C733 C 0.93703 0.55989 0.8951 0.0
C734 C 0.95461 0.57113 0.90472 0.0
C735 C 0.93819 0.57428 0.91102 0.0
C736 C 0.96206 0.56294 0.89336 0.0
C737 C 0.98778 0.5429 0.82316 0.0
C738 C 0.98264 0.57089 0.80895 0.0
C739 C 0.00898 0.55605 0.81135 0.0
C740 C 0.00376 0.54233 0.81956 0.0
C741 C 0.99833 0.57063 0.80653 0.0
C742 C 0.97744 0.5572 0.8171 0.0
C743 C 0.98154 0.52952 0.83507 0.0
O744 O 0.96864 0.50425 0.88243 0.0
O745 O 0.94643 0.51594 0.87545 0.0
O746 O 0.96611 0.53231 0.83984 0.0
O747 O 0.98829 0.52198 0.84679 0.0
H748 H 0.96537 0.49097 0.85881 0.0
H749 H 0.96255 0.46615 0.8589 0.0
H750 H 0.9386 0.4574 0.90859 0.0
H751 H 0.94181 0.48188 0.90841 0.0
H752 H 0.91688 0.57045 0.91099 0.0
H753 H 0.92996 0.55591 0.89131 0.0
H754 H 0.96164 0.57545 0.9082 0.0
H755 H 0.97462 0.56135 0.88815 0.0
H756 H 0.97405 0.58187 0.80552 0.0
H757 H 0.02123 0.55536 0.80938 0.0
H758 H 0.01206 0.53146 0.82388 0.0
H759 H 0.96507 0.55813 0.81948 0.0
C760 C 0.95654 0.83412 0.79048 0.0
C761 C 0.95859 0.82275 0.80475 0.0
C762 C 0.94419 0.84267 0.81885 0.0
C763 C 0.9525 0.827 0.81882 0.0
C764 C 0.94249 0.85407 0.80445 0.0
C765 C 0.94861 0.84982 0.79038 0.0
U766 U 0.974 0.80308 0.76807 0.0
O767 O 0.96643 0.80108 0.7497 0.0
O768 O 0.99008 0.80386 0.74438 0.0
C769 C 0.97942 0.80337 0.73881 0.0
C770 C 0.96186 0.82965 0.7758 0.0
C771 C 0.977 0.81555 0.72412 0.0
C772 C 0.96826 0.84299 0.70974 0.0
C773 C 0.97153 0.83158 0.72351 0.0
C774 C 0.97613 0.82245 0.69702 0.0
C775 C 0.97035 0.83854 0.69638 0.0
C776 C 0.97941 0.81107 0.71079 0.0
C777 C 0.98575 0.75951 0.78853 0.0
C778 C 0.99447 0.74073 0.77345 0.0
C779 C 0.99107 0.7314 0.80175 0.0
C780 C 0.98649 0.74699 0.80234 0.0
C781 C 0.99496 0.72809 0.78731 0.0
C782 C 0.9899 0.75631 0.77406 0.0
C783 C 0.97991 0.77587 0.78935 0.0
O784 O 0.9771 0.82369 0.77094 0.0
O785 O 0.95337 0.82183 0.77488 0.0
O786 O 0.9659 0.7832 0.78685 0.0
O787 O 0.99007 0.78451 0.78175 0.0
H788 H 0.9646 0.81055 0.80503 0.0
H789 H 0.95385 0.8179 0.82973 0.0
H790 H 0.93632 0.86626 0.80407 0.0
H791 H 0.94693 0.85873 0.77945 0.0
H792 H 0.96401 0.85529 0.70957 0.0
H793 H 0.96957 0.83522 0.73376 0.0
H794 H 0.97766 0.8186 0.68705 0.0
H795 H 0.98353 0.79872 0.71113 0.0
H796 H 0.99756 0.7386 0.76213 0.0
H797 H 0.99111 0.72197 0.81267 0.0
H798 H 0.98323 0.74928 0.81361 0.0
H799 H 0.98937 0.76587 0.76328 0.0
C800 C 0.87614 0.85661 0.06483 0.0
C801 C 0.86749 0.85172 0.08051 0.0
C802 C 0.88496 0.85791 0.08967 0.0
C803 C 0.87184 0.85237 0.09281 0.0
C804 C 0.89348 0.86299 0.07389 0.0
C805 C 0.88911 0.86231 0.06157 0.0
U806 U 0.85025 0.84369 0.05252 0.0
O807 O 0.83945 0.85424 0.03256 0.0
O808 O 0.85567 0.83053 0.03566 0.0
C809 C 0.84713 0.84216 0.02674 0.0
C810 C 0.87188 0.85525 0.05203 0.0
C811 C 0.85467 0.84585 0.00973 0.0
C812 C 0.87327 0.8574 0.98646 0.0
C813 C 0.86571 0.85487 0.0026 0.0
C814 C 0.85864 0.84209 0.98452 0.0
C815 C 0.86998 0.85079 0.97734 0.0
C816 C 0.85107 0.83965 0.00056 0.0
C817 C 0.81921 0.82441 0.08482 0.0
C818 C 0.80374 0.81285 0.07876 0.0
C819 C 0.80091 0.81048 0.10594 0.0
C820 C 0.81207 0.81903 0.10091 0.0
C821 C 0.79674 0.80713 0.09494 0.0
C822 C 0.81489 0.82142 0.07374 0.0
C823 C 0.83171 0.83238 0.07978 0.0
O824 O 0.87468 0.84068 0.05185 0.0
O825 O 0.85794 0.86404 0.05003 0.0
O826 O 0.8285 0.84727 0.07147 0.0
O827 O 0.84584 0.82424 0.07397 0.0
H828 H 0.85743 0.84728 0.08323 0.0
H829 H 0.86488 0.8486 0.10478 0.0
H830 H 0.90372 0.86717 0.07108 0.0
H831 H 0.89596 0.86606 0.04953 0.0
H832 H 0.882 0.86412 0.98122 0.0
H833 H 0.86865 0.8597 0.00956 0.0
H834 H 0.85569 0.83707 0.97774 0.0
H835 H 0.84253 0.8327 0.00587 0.0
H836 H 0.80066 0.81064 0.06997 0.0
H837 H 0.79593 0.80607 0.11849 0.0
H838 H 0.81536 0.82117 0.10961 0.0
H839 H 0.82033 0.8255 0.06125 0.0
C840 C 0.93104 0.85974 0.24882 0.0
C841 C 0.93702 0.84594 0.24401 0.0
C842 C 0.92542 0.85947 0.22167 0.0
C843 C 0.93421 0.8458 0.23056 0.0
C844 C 0.91957 0.87329 0.22652 0.0
C845 C 0.92236 0.8734 0.23999 0.0
U846 U 0.95039 0.83999 0.28285 0.0
O847 O 0.96077 0.84979 0.29331 0.0
O848 O 0.94087 0.83943 0.30781 0.0
C849 C 0.9504 0.84711 0.30704 0.0
C850 C 0.93375 0.85999 0.26303 0.0
C851 C 0.94314 0.86015 0.3143 0.0
C852 C 0.92104 0.88158 0.32155 0.0
C853 C 0.92812 0.87014 0.31338 0.0
C854 C 0.94415 0.87351 0.33115 0.0
C855 C 0.92892 0.88327 0.33068 0.0
C856 C 0.95117 0.86207 0.32305 0.0
C857 C 0.97737 0.79899 0.28855 0.0
C858 C 0.99057 0.78865 0.3095 0.0
C859 C 0.99122 0.77126 0.29586 0.0
C860 C 0.98226 0.78395 0.28642 0.0
C861 C 0.99539 0.77345 0.30759 0.0
C862 C 0.9816 0.80128 0.30011 0.0
C863 C 0.96735 0.81218 0.27919 0.0
O864 O 0.92795 0.85018 0.27626 0.0
O865 O 0.94811 0.86004 0.26162 0.0
O866 O 0.97245 0.82498 0.27198 0.0
O867 O 0.95225 0.81513 0.28639 0.0
H868 H 0.94383 0.8353 0.25068 0.0
H869 H 0.93903 0.83503 0.22704 0.0
H870 H 0.91259 0.88395 0.22007 0.0
H871 H 0.91765 0.88414 0.24357 0.0
H872 H 0.90936 0.88902 0.32084 0.0
H873 H 0.92176 0.86889 0.3066 0.0
H874 H 0.95046 0.87432 0.33824 0.0
H875 H 0.96274 0.85443 0.32394 0.0
H876 H 0.99377 0.79083 0.31823 0.0
H877 H 0.99457 0.75969 0.2942 0.0
H878 H 0.97899 0.78197 0.27762 0.0
H879 H 0.97787 0.81283 0.30195 0.0
C880 C 0.88198 0.95817 0.48189 0.0
C881 C 0.86901 0.9647 0.47539 0.0
C882 C 0.88414 0.95313 0.45363 0.0
C883 C 0.87007 0.96216 0.46136 0.0
C884 C 0.89708 0.94674 0.46022 0.0
C885 C 0.89599 0.94925 0.4742 0.0
U886 U 0.86235 0.9768 0.51634 0.0
O887 O 0.86078 0.96549 0.54154 0.0
O888 O 0.87363 0.98381 0.52847 0.0
C889 C 0.86959 0.97331 0.54192 0.0
C890 C 0.88122 0.96024 0.49674 0.0
C891 C 0.88184 0.96393 0.55036 0.0
C892 C 0.90095 0.9394 0.55874 0.0
C893 C 0.89078 0.9488 0.54904 0.0
C894 C 0.89381 0.96047 0.57058 0.0
C895 C 0.90227 0.94502 0.56988 0.0
C896 C 0.88367 0.96981 0.56093 0.0
C897 C 0.82431 0.00609 0.52368 0.0
C898 C 0.82046 0.01767 0.54414 0.0
C899 C 0.79878 0.01092 0.54254 0.0
C900 C 0.80844 0.00581 0.52925 0.0
C901 C 0.80488 0.01633 0.55051 0.0
C902 C 0.83005 0.01259 0.53094 0.0
C903 C 0.8355 0.99689 0.51273 0.0
O904 O 0.88249 0.97396 0.49578 0.0
O905 O 0.8703 0.95514 0.50911 0.0
O906 O 0.8371 0.98159 0.51862 0.0
O907 O 0.84906 0.00054 0.50543 0.0
H908 H 0.85809 0.97167 0.4812 0.0
H909 H 0.85994 0.96733 0.45653 0.0
H910 H 0.90798 0.93949 0.45476 0.0
H911 H 0.90609 0.94408 0.4791 0.0
H912 H 0.90724 0.92753 0.55798 0.0
H913 H 0.88952 0.94407 0.54092 0.0
H914 H 0.89479 0.96524 0.57883 0.0
H915 H 0.87688 0.98148 0.56205 0.0
H916 H 0.82571 0.0215 0.55004 0.0
H917 H 0.78677 0.00992 0.54701 0.0
H918 H 0.80378 0.00073 0.52394 0.0
H919 H 0.84231 0.01274 0.52713 0.0
C920 C 0.85806 0.07229 0.87649 0.0
C921 C 0.85246 0.08763 0.86737 0.0
C922 C 0.85731 0.09863 0.88411 0.0
C923 C 0.8521 0.10068 0.87113 0.0
C924 C 0.86313 0.08319 0.89307 0.0
C925 C 0.86347 0.07013 0.88929 0.0
U926 U 0.84731 0.05627 0.85196 0.0
O927 O 0.8595 0.03567 0.8426 0.0
O928 O 0.83568 0.03757 0.85853 0.0
C929 C 0.84807 0.02871 0.85094 0.0
C930 C 0.85772 0.05862 0.87295 0.0
C931 C 0.85276 0.0119 0.85965 0.0
C932 C 0.85153 0.99062 0.88416 0.0
C933 C 0.8486 0.00675 0.87622 0.0
C934 C 0.86359 0.98456 0.85913 0.0
C935 C 0.85876 0.9793 0.8757 0.0
C936 C 0.86055 0.00068 0.8512 0.0
C937 C 0.82746 0.08604 0.81978 0.0
C938 C 0.81289 0.07932 0.80778 0.0
C939 C 0.81703 0.1055 0.79807 0.0
C940 C 0.82543 0.10122 0.8092 0.0
C941 C 0.81044 0.09468 0.7974 0.0
C942 C 0.82136 0.07502 0.81885 0.0
C943 C 0.83518 0.08217 0.83222 0.0
O944 O 0.84356 0.05705 0.87595 0.0
O945 O 0.86683 0.05662 0.85922 0.0
O946 O 0.85024 0.07482 0.82926 0.0
O947 O 0.82722 0.07622 0.8466 0.0
H948 H 0.84824 0.0895 0.85741 0.0
H949 H 0.84777 0.11239 0.86385 0.0
H950 H 0.86707 0.08121 0.90323 0.0
H951 H 0.86776 0.05836 0.89649 0.0
H952 H 0.84748 0.98705 0.8969 0.0
H953 H 0.84262 0.01516 0.88304 0.0
H954 H 0.86943 0.97621 0.85224 0.0
H955 H 0.86392 0.0044 0.83842 0.0
H956 H 0.80812 0.07067 0.80742 0.0
H957 H 0.81522 0.11746 0.79037 0.0
H958 H 0.83003 0.10987 0.8098 0.0
H959 H 0.82289 0.06321 0.8269 0.0
H960 H 0.98602 0.42505 0.33656 0.0
H961 H 0.9944 0.4108 0.36098 0.0
H962 H 0.03288 0.3791 0.33728 0.0
H963 H 0.02454 0.39317 0.31288 0.0
H964 H 0.99807 0.37892 0.37839 0.0
H965 H 0.05461 0.39543 0.35622 0.0
H966 H 0.03908 0.40531 0.34624 0.0
H967 H 0.05203 0.38656 0.3439 0.0
C968 C 0.99618 0.41495 0.33659 0.0
C969 C 0.00468 0.41031 0.32275 0.0
C970 C 0.001 0.40689 0.35052 0.0
C971 C 0.01443 0.3941 0.35083 0.0
C972 C 0.02271 0.38919 0.33717 0.0
H973 H 0.04538 0.31894 0.42751 0.0
H974 H 0.03405 0.33627 0.40552 0.0
C975 C 0.01792 0.39724 0.32325 0.0
C976 C 0.01972 0.38574 0.36549 0.0
H977 H 0.05118 0.37505 0.3805 0.0
C978 C 0.00963 0.37817 0.37891 0.0
C979 C 0.0347 0.38501 0.3662 0.0
C980 C 0.04569 0.39363 0.35243 0.0
C981 C 0.01436 0.36938 0.39287 0.0
C982 C 0.02965 0.36799 0.39331 0.0
C983 C 0.03951 0.37604 0.38008 0.0
C984 C 0.03591 0.35768 0.40713 0.0
C985 C 0.00296 0.36166 0.40701 0.0
C986 C 0.04101 0.36393 0.41515 0.0
C987 C 0.0475 0.35403 0.42779 0.0
C988 C 0.04907 0.33769 0.43256 0.0
C989 C 0.044 0.33151 0.42441 0.0
C990 C 0.03752 0.3414 0.41182 0.0
H991 H 0.99059 0.3675 0.40633 0.0
H992 H 0.00551 0.34914 0.40744 0.0
H993 H 0.00411 0.36195 0.41814 0.0
H994 H 0.03995 0.37648 0.41162 0.0
H995 H 0.0512 0.35918 0.43387 0.0
H996 H 0.16891 0.75385 0.68756 0.0
H997 H 0.15647 0.76068 0.71233 0.0
H998 H 0.13525 0.72169 0.73161 0.0
H999 H 0.14773 0.71473 0.70664 0.0
H1000 H 0.11411 0.74874 0.73677 0.0
H1001 H 0.16703 0.74026 0.75437 0.0
H1002 H 0.16795 0.75285 0.7346 0.0
H1003 H 0.16782 0.73261 0.73923 0.0
C1004 C 0.1619 0.74647 0.69716 0.0
C1005 C 0.15946 0.73363 0.69517 0.0
C1006 C 0.15479 0.7504 0.71135 0.0
C1007 C 0.1452 0.7415 0.72395 0.0
C1008 C 0.14273 0.72863 0.72207 0.0
H1009 H 0.11112 0.76972 0.81121 0.0
H1010 H 0.12265 0.75292 0.79343 0.0
C1011 C 0.14981 0.72471 0.7078 0.0
C1012 C 0.137 0.74644 0.73861 0.0
H1013 H 0.14324 0.75788 0.76547 0.0
C1014 C 0.12048 0.75047 0.74323 0.0
C1015 C 0.14528 0.74839 0.74727 0.0
C1016 C 0.163 0.74312 0.74372 0.0
C1017 C 0.11203 0.75735 0.75564 0.0
C1018 C 0.12033 0.76062 0.76336 0.0
C1019 C 0.13684 0.75563 0.7594 0.0
C1020 C 0.11225 0.77015 0.77474 0.0
C1021 C 0.09429 0.7612 0.76021 0.0
C1022 C 0.1026 0.78541 0.77014 0.0
C1023 C 0.09597 0.79497 0.78028 0.0
C1024 C 0.09903 0.78956 0.79514 0.0
C1025 C 0.10861 0.77423 0.79979 0.0
C1026 C 0.11515 0.76462 0.78968 0.0
H1027 H 0.09017 0.75315 0.75751 0.0
H1028 H 0.08933 0.76039 0.77296 0.0
H1029 H 0.08958 0.77341 0.75331 0.0
H1030 H 0.10059 0.79015 0.75849 0.0
H1031 H 0.08891 0.80683 0.77622 0.0
H1032 H 0.71061 0.74024 0.01962 0.0
H1033 H 0.6823 0.74486 0.0241 0.0
H1034 H 0.67879 0.79384 0.99801 0.0
H1035 H 0.70715 0.7892 0.99285 0.0
H1036 H 0.65661 0.76454 0.03864 0.0
H1037 H 0.65904 0.78007 0.97548 0.0
H1038 H 0.67647 0.77125 0.98267 0.0
H1039 H 0.66742 0.79211 0.97927 0.0
C1040 C 0.70385 0.75198 0.0147 0.0
C1041 C 0.71123 0.76431 0.00571 0.0
C1042 C 0.68764 0.75462 0.01739 0.0
C1043 C 0.67849 0.76962 0.01113 0.0
C1044 C 0.68569 0.78208 0.00266 0.0
H1045 H 0.57849 0.80967 0.03409 0.0
H1046 H 0.60617 0.79892 0.03411 0.0
C1047 C 0.7019 0.77945 0.9999 0.0
C1048 C 0.66144 0.77223 0.0133 0.0
H1049 H 0.63357 0.78587 0.99294 0.0
C1050 C 0.65156 0.76908 0.02866 0.0
C1051 C 0.65492 0.77782 0.00028 0.0
C1052 C 0.66503 0.78035 0.9835 0.0
C1053 C 0.63525 0.77193 0.03135 0.0
C1054 C 0.62862 0.7784 0.01831 0.0
C1055 C 0.6386 0.78102 0.00296 0.0
C1056 C 0.61136 0.78326 0.02014 0.0
C1057 C 0.62532 0.76787 0.04812 0.0
C1058 C 0.60497 0.77807 0.0123 0.0
C1059 C 0.58918 0.78447 0.01196 0.0
C1060 C 0.57944 0.79624 0.01946 0.0
C1061 C 0.58568 0.80078 0.02803 0.0
C1062 C 0.60149 0.79447 0.02824 0.0
H1063 H 0.63236 0.75835 0.05603 0.0
H1064 H 0.62077 0.77844 0.05247 0.0
H1065 H 0.61515 0.76404 0.04895 0.0
H1066 H 0.61236 0.76948 0.00591 0.0
H1067 H 0.58487 0.78083 0.00508 0.0
H1068 H 0.75051 0.35217 0.98075 0.0
H1069 H 0.72602 0.36557 0.99645 0.0
H1070 H 0.74463 0.34376 0.03728 0.0
H1071 H 0.76919 0.33039 0.02165 0.0
H1072 H 0.70397 0.35475 0.02419 0.0
H1073 H 0.73372 0.39078 0.03274 0.0
H1074 H 0.74312 0.37951 0.01863 0.0
H1075 H 0.74199 0.36989 0.03923 0.0
C1076 C 0.74931 0.35005 0.99313 0.0
C1077 C 0.76185 0.34034 0.99993 0.0
C1078 C 0.73533 0.35776 0.00207 0.0
C1079 C 0.73363 0.3559 0.01794 0.0
C1080 C 0.74585 0.34565 0.02495 0.0
H1081 H 0.66234 0.40033 0.08779 0.0
H1082 H 0.68441 0.38264 0.07421 0.0
C1083 C 0.75985 0.33801 0.01601 0.0
C1084 C 0.71933 0.36511 0.027 0.0
H1085 H 0.70693 0.39293 0.04656 0.0
C1086 C 0.70459 0.36312 0.02907 0.0
C1087 C 0.72018 0.37607 0.03329 0.0
C1088 C 0.73557 0.37934 0.03076 0.0
C1089 C 0.69069 0.37162 0.03751 0.0
C1090 C 0.69157 0.38253 0.04383 0.0
C1091 C 0.70631 0.38449 0.04177 0.0
C1092 C 0.67739 0.3923 0.0524 0.0
C1093 C 0.6752 0.36872 0.03979 0.0
C1094 C 0.66607 0.40355 0.04465 0.0
C1095 C 0.65349 0.41376 0.05234 0.0
C1096 C 0.65205 0.41297 0.0679 0.0
C1097 C 0.66321 0.4014 0.07574 0.0
C1098 C 0.67579 0.39123 0.06804 0.0
H1099 H 0.67688 0.35736 0.03774 0.0
H1100 H 0.66757 0.36863 0.05188 0.0
H1101 H 0.66896 0.37835 0.03127 0.0
H1102 H 0.66727 0.40479 0.03247 0.0
H1103 H 0.64523 0.42266 0.04589 0.0
H1104 H 0.31939 0.02072 0.40841 0.0
H1105 H 0.34263 0.02948 0.39022 0.0
H1106 H 0.34679 0.00274 0.36021 0.0
H1107 H 0.32329 0.9941 0.37827 0.0
H1108 H 0.37344 0.00907 0.38093 0.0
H1109 H 0.34814 0.0483 0.33023 0.0
H1110 H 0.33597 0.04239 0.35 0.0
H1111 H 0.34548 0.02864 0.33849 0.0
C1112 C 0.32511 0.01686 0.39784 0.0
C1113 C 0.31944 0.00679 0.39472 0.0
C1114 C 0.33843 0.0218 0.38752 0.0
C1115 C 0.3463 0.01688 0.37382 0.0
C1116 C 0.34074 0.00682 0.37064 0.0
H1117 H 0.44059 0.02945 0.32006 0.0
H1118 H 0.41776 0.01837 0.33181 0.0
C1119 C 0.32742 0.00179 0.38102 0.0
C1120 C 0.3606 0.02199 0.36323 0.0
H1121 H 0.37474 0.04605 0.3272 0.0
C1122 C 0.37381 0.01703 0.36912 0.0
C1123 C 0.36094 0.03245 0.34789 0.0
C1124 C 0.34688 0.03839 0.34122 0.0
C1125 C 0.38728 0.02247 0.36018 0.0
C1126 C 0.3876 0.03304 0.34488 0.0
C1127 C 0.37448 0.03784 0.33888 0.0
C1128 C 0.40101 0.04014 0.33556 0.0
C1129 C 0.40085 0.01737 0.36741 0.0
C1130 C 0.399 0.05619 0.33317 0.0
C1131 C 0.412 0.06255 0.32652 0.0
C1132 C 0.42725 0.05296 0.3221 0.0
C1133 C 0.42905 0.03709 0.32359 0.0
C1134 C 0.41603 0.03074 0.33026 0.0
H1135 H 0.39762 0.01144 0.38028 0.0
H1136 H 0.41079 0.00896 0.36166 0.0
H1137 H 0.40503 0.02766 0.36551 0.0
H1138 H 0.38748 0.06362 0.33719 0.0
H1139 H 0.41018 0.07475 0.32572 0.0
H1140 H 0.39598 0.08815 0.67863 0.0
H1141 H 0.3769 0.07393 0.6984 0.0
H1142 H 0.38747 0.04426 0.66895 0.0
H1143 H 0.40704 0.05797 0.6494 0.0
H1144 H 0.3502 0.06999 0.69621 0.0
H1145 H 0.3935 0.01218 0.71075 0.0
H1146 H 0.39933 0.03027 0.69949 0.0
H1147 H 0.394 0.02023 0.69019 0.0
C1148 C 0.39439 0.07848 0.67643 0.0
C1149 C 0.40317 0.07412 0.66248 0.0
C1150 C 0.38338 0.07045 0.68769 0.0
C1151 C 0.38095 0.05787 0.68527 0.0
C1152 C 0.38938 0.05373 0.6712 0.0
H1153 H 0.32092 0.99406 0.7424 0.0
H1154 H 0.33822 0.00931 0.7208 0.0
C1155 C 0.40043 0.06172 0.65995 0.0
C1156 C 0.36958 0.04913 0.69749 0.0
H1157 H 0.36656 0.0126 0.72224 0.0
C1158 C 0.35377 0.05745 0.70193 0.0
C1159 C 0.37428 0.03276 0.70494 0.0
C1160 C 0.39122 0.02334 0.70123 0.0
C1161 C 0.3425 0.04981 0.71351 0.0
C1162 C 0.34722 0.03347 0.72095 0.0
C1163 C 0.36298 0.02512 0.71645 0.0
C1164 C 0.33607 0.02484 0.73374 0.0
C1165 C 0.3256 0.05922 0.71756 0.0
C1166 C 0.32918 0.02851 0.74816 0.0
C1167 C 0.31929 0.01984 0.76051 0.0
C1168 C 0.31613 0.00731 0.75866 0.0
C1169 C 0.32295 0.00377 0.74413 0.0
C1170 C 0.33291 0.0124 0.73181 0.0
H1171 H 0.32321 0.07052 0.70823 0.0
H1172 H 0.31743 0.05235 0.71932 0.0
H1173 H 0.32305 0.06203 0.72872 0.0
H1174 H 0.33167 0.03791 0.74997 0.0
H1175 H 0.31413 0.02293 0.77151 0.0
H1176 H 0.69236 0.14063 0.74524 0.0
H1177 H 0.71556 0.129 0.75563 0.0
H1178 H 0.74447 0.14737 0.70966 0.0
H1179 H 0.72117 0.15922 0.69913 0.0
H1180 H 0.74589 0.10693 0.74336 0.0
H1181 H 0.75139 0.16415 0.74184 0.0
H1182 H 0.73318 0.16197 0.74174 0.0
H1183 H 0.74931 0.16254 0.72438 0.0
C1184 C 0.70364 0.14226 0.73734 0.0
C1185 C 0.70493 0.15097 0.7214 0.0
C1186 C 0.71688 0.13553 0.74327 0.0
C1187 C 0.73166 0.13745 0.73343 0.0
C1188 C 0.73311 0.14587 0.71744 0.0
H1189 H 0.81566 0.11244 0.76641 0.0
H1190 H 0.79812 0.12192 0.74911 0.0
C1191 C 0.71984 0.15254 0.71144 0.0
C1192 C 0.74538 0.1308 0.74018 0.0
H1193 H 0.76865 0.14104 0.7531 0.0
C1194 C 0.75101 0.11435 0.74535 0.0
C1195 C 0.75205 0.14056 0.74265 0.0
C1196 C 0.7462 0.1583 0.73746 0.0
C1197 C 0.76298 0.10737 0.75325 0.0
C1198 C 0.76914 0.11711 0.75642 0.0
C1199 C 0.76389 0.13358 0.75071 0.0
C1200 C 0.78027 0.11052 0.76649 0.0
C1201 C 0.76886 0.08962 0.75814 0.0
C1202 C 0.77604 0.10103 0.78202 0.0
C1203 C 0.78603 0.09558 0.79188 0.0
C1204 C 0.80038 0.09967 0.7865 0.0
C1205 C 0.80464 0.10915 0.77093 0.0
C1206 C 0.79466 0.11453 0.76102 0.0
H1207 H 0.76706 0.08438 0.75043 0.0
H1208 H 0.78155 0.08578 0.75776 0.0
H1209 H 0.76215 0.08486 0.77039 0.0
H1210 H 0.76479 0.09818 0.78667 0.0
H1211 H 0.78225 0.08858 0.80391 0.0
H1212 H 0.4139 0.3218 0.97782 0.0
H1213 H 0.39811 0.34692 0.98331 0.0
H1214 H 0.36414 0.32369 0.02038 0.0
H1215 H 0.37985 0.29847 0.01493 0.0
H1216 H 0.36609 0.36407 0.98414 0.0
H1217 H 0.37856 0.34381 0.04272 0.0
H1218 H 0.38941 0.33338 0.02799 0.0
H1219 H 0.36999 0.3315 0.03954 0.0
C1220 C 0.40294 0.32207 0.98696 0.0
C1221 C 0.39818 0.30812 0.99603 0.0
C1222 C 0.39396 0.33642 0.99011 0.0
C1223 C 0.3801 0.33709 0.00239 0.0
C1224 C 0.37496 0.32334 0.01104 0.0
H1225 H 0.32399 0.41289 0.04581 0.0
H1226 H 0.33227 0.38898 0.03759 0.0
C1227 C 0.38395 0.30896 0.00793 0.0
C1228 C 0.37152 0.35204 0.00661 0.0
H1229 H 0.36213 0.36933 0.03563 0.0
C1230 C 0.36513 0.36523 0.99542 0.0
C1231 C 0.37033 0.35348 0.02134 0.0
C1232 C 0.37753 0.33985 0.03357 0.0
C1233 C 0.35758 0.3799 0.99857 0.0
C1234 C 0.35666 0.38139 0.01318 0.0
C1235 C 0.36279 0.36812 0.02447 0.0
C1236 C 0.35019 0.39674 0.01681 0.0
C1237 C 0.35061 0.39362 0.98627 0.0
C1238 C 0.35738 0.40912 0.00771 0.0
C1239 C 0.35261 0.42286 0.01232 0.0
C1240 C 0.34063 0.42441 0.02618 0.0
C1241 C 0.3331 0.41219 0.03496 0.0
C1242 C 0.33787 0.39847 0.03034 0.0
H1243 H 0.34812 0.38956 0.97805 0.0
H1244 H 0.33955 0.40122 0.99182 0.0
H1245 H 0.35914 0.40088 0.97922 0.0
H1246 H 0.36711 0.40792 0.9974 0.0
H1247 H 0.35855 0.43211 0.00524 0.0
H1248 H 0.79925 0.78345 0.08368 0.0
H1249 H 0.78211 0.7658 0.09372 0.0
H1250 H 0.75235 0.79006 0.12878 0.0
H1251 H 0.76943 0.80787 0.11874 0.0
H1252 H 0.76085 0.75801 0.14134 0.0
H1253 H 0.7384 0.77281 0.08963 0.0
H1254 H 0.75948 0.76823 0.08477 0.0
H1255 H 0.7478 0.7853 0.09157 0.0
C1256 C 0.78888 0.78527 0.0933 0.0
C1257 C 0.78569 0.79711 0.10038 0.0
C1258 C 0.77907 0.77517 0.09902 0.0
C1259 C 0.76581 0.77676 0.11184 0.0
C1260 C 0.76248 0.78868 0.11882 0.0
H1261 H 0.69984 0.71785 0.14531 0.0
H1262 H 0.71061 0.74082 0.13561 0.0
C1263 C 0.77229 0.79879 0.11312 0.0
C1264 C 0.75617 0.76523 0.11867 0.0
H1265 H 0.73574 0.74823 0.10929 0.0
C1266 C 0.75518 0.75602 0.13439 0.0
C1267 C 0.7486 0.76277 0.10967 0.0
C1268 C 0.74847 0.77291 0.09302 0.0
C1269 C 0.74744 0.74394 0.14114 0.0
C1270 C 0.74072 0.74083 0.13183 0.0
C1271 C 0.74106 0.75051 0.11634 0.0
C1272 C 0.73407 0.72707 0.1377 0.0
C1273 C 0.74663 0.7345 0.15815 0.0
C1274 C 0.74377 0.71177 0.14181 0.0
C1275 C 0.73771 0.69869 0.14726 0.0
C1276 C 0.7218 0.70061 0.14868 0.0
C1277 C 0.71214 0.71597 0.14431 0.0
C1278 C 0.71825 0.72909 0.13883 0.0
H1279 H 0.74804 0.74115 0.16481 0.0
H1280 H 0.73528 0.73122 0.1641 0.0
H1281 H 0.75631 0.7235 0.15862 0.0
H1282 H 0.75612 0.70993 0.14063 0.0
H1283 H 0.74558 0.68703 0.15013 0.0
H1284 H 0.08417 0.65037 0.38505 0.0
H1285 H 0.07101 0.67116 0.36547 0.0
H1286 H 0.0423 0.69588 0.4004 0.0
H1287 H 0.05537 0.67523 0.41998 0.0
H1288 H 0.03944 0.68185 0.36564 0.0
H1289 H 0.06073 0.72988 0.36421 0.0
H1290 H 0.06913 0.70934 0.37309 0.0
H1291 H 0.05104 0.72004 0.38372 0.0
C1292 C 0.075 0.66021 0.38857 0.0
C1293 C 0.07091 0.66123 0.40403 0.0
C1294 C 0.06755 0.67209 0.37736 0.0
C1295 C 0.0559 0.68521 0.3814 0.0
C1296 C 0.05156 0.68608 0.39691 0.0
H1297 H 0.99107 0.76717 0.33928 0.0
H1298 H 0.00636 0.74539 0.35631 0.0
C1299 C 0.05903 0.67426 0.40809 0.0
C1300 C 0.04805 0.69789 0.36953 0.0
H1301 H 0.03986 0.73766 0.35207 0.0
C1302 C 0.03965 0.69403 0.36254 0.0
C1303 C 0.04841 0.71376 0.36546 0.0
C1304 C 0.05794 0.71851 0.37189 0.0
C1305 C 0.03112 0.70573 0.35201 0.0
C1306 C 0.03115 0.72164 0.34829 0.0
C1307 C 0.0398 0.72545 0.35503 0.0
C1308 C 0.02188 0.73462 0.33783 0.0
C1309 C 0.02173 0.70109 0.34534 0.0
C1310 C 0.02563 0.73582 0.32176 0.0
C1311 C 0.01699 0.74836 0.31193 0.0
C1312 C 0.00449 0.75994 0.318 0.0
C1313 C 0.00077 0.75862 0.33414 0.0
C1314 C 0.00943 0.74612 0.34393 0.0
H1315 H 0.02051 0.68888 0.35169 0.0
H1316 H 0.0098 0.70934 0.34592 0.0
H1317 H 0.02776 0.70172 0.33275 0.0
H1318 H 0.03538 0.72719 0.31678 0.0
H1319 H 0.02031 0.74914 0.29952 0.0
H1320 H 0.80407 0.03859 0.56302 0.0
H1321 H 0.79538 0.03756 0.59091 0.0
H1322 H 0.77662 0.99821 0.6021 0.0
H1323 H 0.78604 0.99854 0.57444 0.0
H1324 H 0.76784 0.03844 0.61497 0.0
H1325 H 0.81016 0.97935 0.62621 0.0
H1326 H 0.80968 0.99207 0.60657 0.0
H1327 H 0.79548 0.98066 0.61759 0.0
C1328 C 0.79797 0.02979 0.57139 0.0
C1329 C 0.7961 0.01841 0.56649 0.0
C1330 C 0.79291 0.0293 0.58732 0.0
C1331 C 0.78578 0.01751 0.59862 0.0
C1332 C 0.78248 0.00715 0.5936 0.0
H1333 H 0.76693 0.98521 0.70086 0.0
H1334 H 0.76627 0.991 0.67365 0.0
C1335 C 0.78769 0.00751 0.5777 0.0
C1336 C 0.78324 0.01513 0.61566 0.0
H1337 H 0.79468 0.98857 0.64834 0.0
C1338 C 0.77365 0.02752 0.62229 0.0
C1339 C 0.79101 0.00093 0.62515 0.0
C1340 C 0.80228 0.98754 0.61852 0.0
C1341 C 0.77151 0.02602 0.63821 0.0
C1342 C 0.77923 0.01181 0.64764 0.0
C1343 C 0.78869 0.9994 0.64106 0.0
C1344 C 0.77814 0.0096 0.66428 0.0
C1345 C 0.76096 0.03955 0.64489 0.0
C1346 C 0.78503 0.01818 0.66799 0.0
C1347 C 0.78548 0.01486 0.68353 0.0
C1348 C 0.77902 0.00293 0.69562 0.0
C1349 C 0.77182 0.99461 0.69187 0.0
C1350 C 0.77148 0.99786 0.67633 0.0
H1351 H 0.75328 0.04824 0.63718 0.0
H1352 H 0.75344 0.03517 0.65682 0.0
H1353 H 0.76832 0.04572 0.64602 0.0
H1354 H 0.79047 0.02711 0.6588 0.0
H1355 H 0.79101 0.02153 0.68607 0.0
H1356 H 0.0132 0.70149 0.80349 0.0
H1357 H 0.0179 0.67414 0.8041 0.0
H1358 H 0.99011 0.68993 0.77091 0.0
H1359 H 0.98526 0.71724 0.7703 0.0
H1360 H 0.99465 0.65873 0.81372 0.0
H1361 H 0.02904 0.65885 0.75233 0.0
H1362 H 0.02651 0.6742 0.76061 0.0
H1363 H 0.01107 0.67428 0.75367 0.0
C1364 C 0.00815 0.69914 0.79626 0.0
C1365 C 0.99885 0.71157 0.78685 0.0
C1366 C 0.01094 0.68352 0.79655 0.0
C1367 C 0.00456 0.68001 0.78737 0.0
C1368 C 0.99549 0.69238 0.77777 0.0
H1369 H 0.98925 0.59753 0.78349 0.0
H1370 H 0.99259 0.62366 0.77813 0.0
C1371 C 0.99271 0.708 0.77746 0.0
C1372 C 0.0062 0.66336 0.7889 0.0
H1373 H 0.01844 0.63666 0.76802 0.0
C1374 C 1.00003 0.65384 0.80377 0.0
C1375 C 0.01312 0.65706 0.77587 0.0
C1376 C 0.02045 0.66657 0.75974 0.0
C1377 C 1.00014 0.63834 0.8059 0.0
C1378 C 0.00694 0.63204 0.79286 0.0
C1379 C 0.01329 0.6415 0.778 0.0
C1380 C 0.0069 0.61588 0.79441 0.0
C1381 C 0.99242 0.62904 0.822 0.0
C1382 C 0.01442 0.60274 0.80482 0.0
C1383 C 0.01237 0.58784 0.80807 0.0
C1384 C 0.00289 0.58575 0.80083 0.0
C1385 C 0.99637 0.59876 0.78951 0.0
C1386 C 0.99835 0.61369 0.78634 0.0
H1387 H 0.98451 0.63679 0.82963 0.0
H1388 H 0.98548 0.62232 0.82103 0.0
H1389 H 0.00165 0.6205 0.82793 0.0
H1390 H 0.02134 0.60413 0.81094 0.0
H1391 H 0.0175 0.57817 0.81692 0.0
H1392 H 0.07813 0.51052 0.45027 0.0
H1393 H 0.07567 0.48405 0.45567 0.0
H1394 H 0.10636 0.46513 0.48654 0.0
H1395 H 0.1092 0.4915 0.48097 0.0
H1396 H 0.1006 0.4561 0.45099 0.0
H1397 H 0.06628 0.44925 0.51358 0.0
H1398 H 0.06814 0.46821 0.49974 0.0
H1399 H 0.08403 0.45515 0.50834 0.0
C1400 C 0.0845 0.50073 0.45809 0.0
C1401 C 0.09387 0.50318 0.46519 0.0
C1402 C 0.08299 0.48562 0.46122 0.0
C1403 C 0.09067 0.47269 0.47164 0.0
C1404 C 0.1001 0.47502 0.47868 0.0
H1405 H 0.1 0.37294 0.50849 0.0
H1406 H 0.1003 0.40034 0.50188 0.0
C1407 C 0.10168 0.49012 0.4755 0.0
C1408 C 0.08901 0.4567 0.47498 0.0
H1409 H 0.07569 0.42649 0.50461 0.0
C1410 C 0.09506 0.44963 0.46267 0.0
C1411 C 0.08175 0.44836 0.49023 0.0
C1412 C 0.07454 0.45564 0.50373 0.0
C1413 C 0.09452 0.43419 0.46534 0.0
C1414 C 0.08742 0.42575 0.48065 0.0
C1415 C 0.08113 0.43296 0.49288 0.0
C1416 C 0.08704 0.40917 0.48448 0.0
C1417 C 0.10206 0.42684 0.45187 0.0
C1418 C 0.07936 0.40502 0.47698 0.0
C1419 C 0.07917 0.38929 0.48075 0.0
C1420 C 0.08648 0.37749 0.49223 0.0
C1421 C 0.09403 0.38176 0.49979 0.0
C1422 C 0.09428 0.39742 0.49597 0.0
H1423 H 0.11025 0.43335 0.44206 0.0
H1424 H 0.10864 0.41435 0.45591 0.0
H1425 H 0.09275 0.4271 0.44717 0.0
H1426 H 0.07341 0.41395 0.46831 0.0
H1427 H 0.07313 0.38639 0.47484 0.0
H1428 H 0.84644 0.92771 0.80758 0.0
H1429 H 0.872 0.91633 0.81368 0.0
H1430 H 0.85293 0.93371 0.8545 0.0
H1431 H 0.82727 0.94526 0.84845 0.0
H1432 H 0.89039 0.93289 0.81656 0.0
H1433 H 0.86108 0.90552 0.87004 0.0
H1434 H 0.87424 0.88603 0.87177 0.0
H1435 H 0.86325 0.89478 0.85705 0.0
C1436 C 0.84768 0.92921 0.81781 0.0
C1437 C 0.8348 0.93741 0.82752 0.0
C1438 C 0.86227 0.92262 0.82133 0.0
C1439 C 0.86428 0.924 0.83466 0.0
C1440 C 0.85152 0.93222 0.84436 0.0
H1441 H 0.95189 0.88778 0.86537 0.0
H1442 H 0.9246 0.90168 0.86392 0.0
C1443 C 0.83688 0.93882 0.84086 0.0
C1444 C 0.87993 0.91725 0.838 0.0
H1445 H 0.90017 0.88849 0.86386 0.0
C1446 C 0.89253 0.92319 0.82691 0.0
C1447 C 0.88264 0.90464 0.85154 0.0
C1448 C 0.86967 0.89722 0.86329 0.0
C1449 C 0.90785 0.91663 0.82884 0.0
C1450 C 0.91064 0.90379 0.84217 0.0
C1451 C 0.89796 0.89829 0.85362 0.0
C1452 C 0.92685 0.89508 0.84358 0.0
C1453 C 0.921 0.92336 0.81649 0.0
C1454 C 0.93696 0.88658 0.83281 0.0
C1455 C 0.95239 0.87858 0.83368 0.0
C1456 C 0.95808 0.87898 0.8453 0.0
C1457 C 0.94787 0.8874 0.8562 0.0
C1458 C 0.9323 0.89528 0.85543 0.0
H1459 H 0.91647 0.9355 0.8093 0.0
H1460 H 0.92945 0.92362 0.82201 0.0
H1461 H 0.9275 0.9158 0.80843 0.0
H1462 H 0.93292 0.88619 0.82366 0.0
H1463 H 0.95997 0.87233 0.82503 0.0
H1464 H 0.84634 0.67923 0.985 0.0
H1465 H 0.86026 0.65358 0.97986 0.0
H1466 H 0.89745 0.67339 0.94451 0.0
H1467 H 0.88355 0.69907 0.94928 0.0
H1468 H 0.86838 0.64788 0.95032 0.0
H1469 H 0.92122 0.63238 0.97137 0.0
H1470 H 0.90348 0.64705 0.97709 0.0
H1471 H 0.91728 0.65195 0.95824 0.0
C1472 C 0.8575 0.67813 0.97615 0.0
C1473 C 0.86383 0.69123 0.96756 0.0
C1474 C 0.86547 0.66344 0.97332 0.0
C1475 C 0.87998 0.66155 0.96199 0.0
C1476 C 0.88645 0.67451 0.95358 0.0
H1477 H 0.94441 0.60167 0.90704 0.0
H1478 H 0.92978 0.62087 0.92195 0.0
C1479 C 0.87847 0.68919 0.95635 0.0
C1480 C 0.88786 0.64643 0.95797 0.0
H1481 H 0.92297 0.61852 0.95397 0.0
C1482 C 0.8802 0.64126 0.95138 0.0
C1483 C 0.90327 0.63786 0.95939 0.0
C1484 C 0.91176 0.64249 0.96705 0.0
C1485 C 0.8879 0.62826 0.94527 0.0
C1486 C 0.90357 0.62007 0.9461 0.0
C1487 C 0.91097 0.62483 0.95334 0.0
C1488 C 0.91298 0.60757 0.93813 0.0
C1489 C 0.87954 0.62396 0.93718 0.0
C1490 C 0.90859 0.59353 0.94252 0.0
C1491 C 0.91699 0.58245 0.934 0.0
C1492 C 0.93 0.58519 0.92106 0.0
C1493 C 0.93462 0.59905 0.91709 0.0
C1494 C 0.92622 0.61009 0.92555 0.0
H1495 H 0.8687 0.63327 0.93494 0.0
H1496 H 0.88741 0.62194 0.92577 0.0
H1497 H 0.87613 0.61288 0.94478 0.0
H1498 H 0.89856 0.59124 0.95238 0.0
H1499 H 0.91325 0.57181 0.93747 0.0
H1500 H 0.66686 0.55027 0.18723 0.0
H1501 H 0.64874 0.54251 0.18037 0.0
H1502 H 0.63826 0.58858 0.14749 0.0
H1503 H 0.65693 0.59623 0.15375 0.0
H1504 H 0.61703 0.55467 0.18224 0.0
H1505 H 0.65184 0.55947 0.11997 0.0
H1506 H 0.65955 0.55995 0.1346 0.0
H1507 H 0.64609 0.57718 0.12569 0.0
C1508 C 0.66083 0.55873 0.17842 0.0
C1509 C 0.66354 0.57381 0.17088 0.0
C1510 C 0.65036 0.55431 0.17462 0.0
C1511 C 0.64237 0.56486 0.16321 0.0
C1512 C 0.64455 0.58014 0.15609 0.0
H1513 H 0.58189 0.54935 0.12197 0.0
H1514 H 0.59502 0.56183 0.13025 0.0
C1515 C 0.65509 0.58455 0.15983 0.0
C1516 C 0.63203 0.55966 0.15861 0.0
H1517 H 0.62782 0.5528 0.12765 0.0
C1518 C 0.61935 0.55431 0.1703 0.0
C1519 C 0.63509 0.55919 0.14302 0.0
C1520 C 0.64895 0.56411 0.1301 0.0
C1521 C 0.60969 0.54844 0.16682 0.0
C1522 C 0.61292 0.54774 0.15129 0.0
C1523 C 0.62537 0.5534 0.13953 0.0
C1524 C 0.60404 0.54047 0.14712 0.0
C1525 C 0.5961 0.54304 0.17976 0.0
C1526 C 0.60481 0.52433 0.15386 0.0
C1527 C 0.59734 0.51719 0.14917 0.0
C1528 C 0.58898 0.52604 0.13761 0.0
C1529 C 0.58807 0.54226 0.13103 0.0
C1530 C 0.59562 0.54939 0.13569 0.0
H1531 H 0.59267 0.54816 0.18967 0.0
H1532 H 0.58569 0.54631 0.1752 0.0
H1533 H 0.5996 0.53 0.18448 0.0
H1534 H 0.61147 0.51719 0.16252 0.0
H1535 H 0.59816 0.5047 0.15454 0.0
H1536 H 0.16992 0.67375 0.56381 0.0
H1537 H 0.1658 0.6591 0.54984 0.0
H1538 H 0.16761 0.61808 0.59026 0.0
H1539 H 0.17208 0.6325 0.60424 0.0
H1540 H 0.18511 0.62893 0.54333 0.0
H1541 H 0.1245 0.62725 0.58105 0.0
H1542 H 0.13431 0.64088 0.5802 0.0
H1543 H 0.13961 0.62052 0.5912 0.0
C1544 C 0.16967 0.66154 0.56968 0.0
C1545 C 0.17126 0.65434 0.5852 0.0
C1546 C 0.16724 0.65322 0.56169 0.0
C1547 C 0.16622 0.63759 0.5691 0.0
C1548 C 0.16812 0.63023 0.58444 0.0
H1549 H 0.14034 0.57489 0.54056 0.0
H1550 H 0.14879 0.58602 0.55467 0.0
C1551 C 0.17061 0.63851 0.59243 0.0
C1552 C 0.1629 0.62911 0.56084 0.0
H1553 H 0.1348 0.61397 0.56148 0.0
C1554 C 0.17413 0.62562 0.54728 0.0
C1555 C 0.14859 0.62477 0.56609 0.0
C1556 C 0.13597 0.62861 0.58036 0.0
C1557 C 0.17147 0.61781 0.53886 0.0
C1558 C 0.15701 0.61375 0.54393 0.0
C1559 C 0.14587 0.61708 0.55761 0.0
C1560 C 0.15295 0.60648 0.53499 0.0
C1561 C 0.18426 0.61379 0.52476 0.0
C1562 C 0.15246 0.61427 0.51924 0.0
C1563 C 0.14781 0.60785 0.51109 0.0
C1564 C 0.14334 0.59358 0.51857 0.0
C1565 C 0.14392 0.58576 0.53435 0.0
C1566 C 0.14864 0.59217 0.54247 0.0
H1567 H 0.19602 0.61316 0.5254 0.0
H1568 H 0.18464 0.60235 0.52376 0.0
H1569 H 0.18193 0.62313 0.51388 0.0
H1570 H 0.1554 0.62549 0.51332 0.0
H1571 H 0.14768 0.61411 0.49892 0.0
H1572 H 0.67383 0.95906 0.81779 0.0
H1573 H 0.65072 0.95085 0.83703 0.0
H1574 H 0.65764 0.96546 0.87144 0.0
H1575 H 0.68066 0.97405 0.85211 0.0
H1576 H 0.65134 0.92779 0.86674 0.0
H1577 H 0.6102 0.98561 0.87309 0.0
H1578 H 0.62718 0.98389 0.85645 0.0
H1579 H 0.62955 0.98187 0.87514 0.0
C1580 C 0.67028 0.96081 0.82935 0.0
C1581 C 0.67903 0.96728 0.83341 0.0
C1582 C 0.65712 0.95604 0.84035 0.0
C1583 C 0.65238 0.95773 0.85557 0.0
C1584 C 0.66098 0.9643 0.85966 0.0
H1585 H 0.58213 0.92668 0.9405 0.0
H1586 H 0.60182 0.93983 0.92019 0.0
C1587 C 0.6742 0.96904 0.84867 0.0
C1588 C 0.63905 0.95166 0.86741 0.0
H1589 H 0.60204 0.96269 0.89056 0.0
C1590 C 0.64052 0.93541 0.8719 0.0
C1591 C 0.62504 0.96166 0.87417 0.0
C1592 C 0.62276 0.97926 0.86942 0.0
C1593 C 0.62841 0.92883 0.88313 0.0
C1594 C 0.61429 0.93883 0.88977 0.0
C1595 C 0.61284 0.95509 0.88536 0.0
C1596 C 0.60109 0.93247 0.90153 0.0
C1597 C 0.631 0.91115 0.88807 0.0
C1598 C 0.59373 0.92449 0.8976 0.0
C1599 C 0.58261 0.91683 0.90919 0.0
C1600 C 0.57853 0.91713 0.92491 0.0
C1601 C 0.58521 0.92599 0.92857 0.0
C1602 C 0.59639 0.93359 0.91697 0.0
H1603 H 0.6437 0.90494 0.88499 0.0
H1604 H 0.62609 0.90662 0.90097 0.0
H1605 H 0.62496 0.90817 0.88189 0.0
H1606 H 0.597 0.92374 0.88567 0.0
H1607 H 0.5778 0.91005 0.90596 0.0
H1608 H 0.89789 0.35114 0.88274 0.0
H1609 H 0.91083 0.37216 0.87507 0.0
H1610 H 0.91963 0.35552 0.92096 0.0
H1611 H 0.90692 0.33436 0.92864 0.0
H1612 H 0.90058 0.39554 0.89128 0.0
H1613 H 0.96258 0.36151 0.88996 0.0
H1614 H 0.94838 0.35351 0.88892 0.0
H1615 H 0.94834 0.35437 0.90754 0.0
C1616 C 0.90286 0.35177 0.89109 0.0
C1617 C 0.90139 0.34109 0.9063 0.0
C1618 C 0.91018 0.36382 0.88671 0.0
C1619 C 0.91634 0.36527 0.89738 0.0
C1620 C 0.91518 0.35445 0.91246 0.0
H1621 H 0.95269 0.43126 0.90653 0.0
H1622 H 0.9452 0.40843 0.90823 0.0
C1623 C 0.90778 0.34247 0.91688 0.0
C1624 C 0.92287 0.3788 0.89325 0.0
H1625 H 0.95585 0.38841 0.88957 0.0
C1626 C 0.91271 0.39404 0.89069 0.0
C1627 C 0.93867 0.37674 0.8926 0.0
C1628 C 0.95019 0.36067 0.89476 0.0
C1629 C 0.91776 0.40725 0.8881 0.0
C1630 C 0.93354 0.4052 0.88765 0.0
C1631 C 0.94379 0.38997 0.88988 0.0
C1632 C 0.93931 0.4186 0.8858 0.0
C1633 C 0.90596 0.42319 0.88656 0.0
C1634 C 0.93894 0.43173 0.8724 0.0
C1635 C 0.94301 0.44492 0.87148 0.0
C1636 C 0.94768 0.44515 0.88389 0.0
C1637 C 0.94882 0.43162 0.89691 0.0
C1638 C 0.94467 0.4185 0.89785 0.0
H1639 H 0.89365 0.42214 0.89097 0.0
H1640 H 0.90737 0.42988 0.89317 0.0
H1641 H 0.90787 0.4301 0.87395 0.0
H1642 H 0.93515 0.43193 0.8628 0.0
H1643 H 0.94195 0.45513 0.86131 0.0
H1644 H 0.92692 0.49825 0.19028 0.0
H1645 H 0.89919 0.51035 0.19018 0.0
H1646 H 0.88837 0.51445 0.23693 0.0
H1647 H 0.91608 0.50277 0.23699 0.0
H1648 H 0.87127 0.50092 0.21205 0.0
H1649 H 0.87231 0.55993 0.21009 0.0
H1650 H 0.89005 0.54478 0.20556 0.0
H1651 H 0.87921 0.54376 0.22571 0.0
C1652 C 0.91865 0.5018 0.20051 0.0
C1653 C 0.92373 0.49964 0.2136 0.0
C1654 C 0.90281 0.50859 0.20047 0.0
C1655 C 0.89181 0.51344 0.21347 0.0
C1656 C 0.89674 0.51095 0.22671 0.0
H1657 H 0.7939 0.56779 0.228 0.0
H1658 H 0.81966 0.55103 0.23196 0.0
C1659 C 0.91255 0.50415 0.22677 0.0
C1660 C 0.87524 0.52149 0.21302 0.0
H1661 H 0.84776 0.5568 0.21259 0.0
C1662 C 0.86609 0.51314 0.21217 0.0
C1663 C 0.86856 0.5374 0.21321 0.0
C1664 C 0.87803 0.54708 0.21356 0.0
C1665 C 0.85033 0.52027 0.21165 0.0
C1666 C 0.8437 0.53625 0.21167 0.0
C1667 C 0.85284 0.54453 0.21265 0.0
C1668 C 0.82751 0.54489 0.21008 0.0
C1669 C 0.84086 0.51059 0.2113 0.0
C1670 C 0.82333 0.54688 0.19654 0.0
C1671 C 0.80863 0.55645 0.19425 0.0
C1672 C 0.79791 0.56434 0.20539 0.0
C1673 C 0.80197 0.56199 0.21914 0.0
C1674 C 0.81664 0.55238 0.22145 0.0
H1675 H 0.84595 0.49775 0.21603 0.0
H1676 H 0.82845 0.5138 0.21822 0.0
H1677 H 0.84091 0.51286 0.19891 0.0
H1678 H 0.83166 0.54155 0.18742 0.0
H1679 H 0.80597 0.55823 0.18341 0.0
H1680 H 0.44821 0.10769 0.50327 0.0
H1681 H 0.45549 0.10674 0.47607 0.0
H1682 H 0.50461 0.09258 0.47513 0.0
H1683 H 0.49744 0.09304 0.5025 0.0
H1684 H 0.47401 0.12362 0.44899 0.0
H1685 H 0.50045 0.05894 0.46052 0.0
H1686 H 0.48818 0.068 0.47608 0.0
H1687 H 0.50836 0.06879 0.46764 0.0
C1688 C 0.46057 0.1042 0.49734 0.0
C1689 C 0.47224 0.10033 0.5051 0.0
C1690 C 0.4647 0.10376 0.48177 0.0
C1691 C 0.48058 0.09936 0.47367 0.0
C1692 C 0.49228 0.09573 0.48126 0.0
H1693 H 0.52633 0.09009 0.3785 0.0
H1694 H 0.5206 0.09098 0.40555 0.0
C1695 C 0.48816 0.09618 0.49685 0.0
C1696 C 0.48482 0.09882 0.4572 0.0
H1697 H 0.50275 0.07402 0.43379 0.0
C1698 C 0.48027 0.11278 0.44566 0.0
C1699 C 0.49303 0.08466 0.4529 0.0
C1700 C 0.49769 0.0692 0.46493 0.0
C1701 C 0.48381 0.11299 0.42988 0.0
C1702 C 0.49187 0.09881 0.42562 0.0
C1703 C 0.49657 0.08487 0.43712 0.0
C1704 C 0.49531 0.09815 0.40931 0.0
C1705 C 0.47909 0.12845 0.41787 0.0
C1706 C 0.48299 0.10164 0.40258 0.0
C1707 C 0.48621 0.1012 0.38714 0.0
C1708 C 0.50184 0.09719 0.37815 0.0
C1709 C 0.51417 0.09344 0.38504 0.0
C1710 C 0.51092 0.09385 0.4005 0.0
H1711 H 0.47678 0.13871 0.42211 0.0
H1712 H 0.48836 0.12948 0.40654 0.0
H1713 H 0.46812 0.12904 0.41559 0.0
H1714 H 0.47085 0.10473 0.40928 0.0
H1715 H 0.47645 0.10429 0.38216 0.0
H1716 H 0.54171 0.13901 0.58504 0.0
H1717 H 0.55528 0.14748 0.59686 0.0
H1718 H 0.51068 0.16736 0.62567 0.0
H1719 H 0.49699 0.15911 0.61382 0.0
H1720 H 0.55205 0.17809 0.59863 0.0
H1721 H 0.53619 0.13602 0.65763 0.0
H1722 H 0.53442 0.13438 0.64001 0.0
H1723 H 0.51977 0.14858 0.64964 0.0
C1724 C 0.53476 0.14536 0.59374 0.0
C1725 C 0.51826 0.14826 0.59859 0.0
C1726 C 0.54255 0.15014 0.60052 0.0
C1727 C 0.53399 0.15782 0.6123 0.0
C1728 C 0.51751 0.16116 0.61681 0.0
H1729 H 0.56235 0.20785 0.65297 0.0
H1730 H 0.55192 0.20048 0.63733 0.0
C1731 C 0.50972 0.15641 0.61005 0.0
C1732 C 0.54229 0.16203 0.62014 0.0
H1733 H 0.54811 0.15495 0.65596 0.0
C1734 C 0.55126 0.173 0.61115 0.0
C1735 C 0.5414 0.15519 0.63642 0.0
C1736 C 0.53255 0.14278 0.64649 0.0
C1737 C 0.55909 0.17761 0.61812 0.0
C1738 C 0.55775 0.17116 0.63451 0.0
C1739 C 0.54905 0.15994 0.64341 0.0
C1740 C 0.56509 0.17597 0.64282 0.0
C1741 C 0.56884 0.1892 0.60788 0.0
C1742 C 0.57588 0.16462 0.65117 0.0
C1743 C 0.58173 0.16876 0.66024 0.0
C1744 C 0.57681 0.18432 0.66124 0.0
C1745 C 0.56628 0.19574 0.65255 0.0
C1746 C 0.56044 0.19159 0.64347 0.0
H1747 H 0.57209 0.18973 0.59523 0.0
H1748 H 0.56193 0.20115 0.60906 0.0
H1749 H 0.57977 0.18605 0.61155 0.0
H1750 H 0.57953 0.15247 0.65092 0.0
H1751 H 0.58964 0.15962 0.66696 0.0
H1752 H 0.5757 0.22782 0.79855 0.0
H1753 H 0.55979 0.22804 0.82545 0.0
H1754 H 0.54709 0.1865 0.83105 0.0
H1755 H 0.56318 0.18599 0.80434 0.0
H1756 H 0.52637 0.22792 0.84075 0.0
H1757 H 0.56882 0.17446 0.86701 0.0
H1758 H 0.57388 0.1862 0.84677 0.0
H1759 H 0.562 0.17286 0.85238 0.0
C1760 C 0.56946 0.21878 0.80549 0.0
C1761 C 0.57078 0.20682 0.79936 0.0
C1762 C 0.56032 0.21897 0.8208 0.0
C1763 C 0.55247 0.20716 0.83025 0.0
C1764 C 0.55322 0.19561 0.82396 0.0
H1765 H 0.50323 0.1811 0.92959 0.0
H1766 H 0.51567 0.18248 0.90169 0.0
C1767 C 0.5623 0.19543 0.80865 0.0
C1768 C 0.5441 0.20648 0.84693 0.0
H1769 H 0.54557 0.18455 0.88461 0.0
C1770 C 0.53053 0.21847 0.85037 0.0
C1771 C 0.54961 0.1941 0.85939 0.0
C1772 C 0.56444 0.18121 0.85629 0.0
C1773 C 0.52215 0.21829 0.86604 0.0
C1774 C 0.52773 0.20596 0.87852 0.0
C1775 C 0.54129 0.19396 0.87503 0.0
C1776 C 0.51985 0.20537 0.89531 0.0
C1777 C 0.50724 0.23111 0.86906 0.0
C1778 C 0.5183 0.21767 0.90102 0.0
C1779 C 0.51121 0.21691 0.91693 0.0
C1780 C 0.5057 0.20374 0.92748 0.0
C1781 C 0.50747 0.19134 0.92178 0.0
C1782 C 0.51449 0.19215 0.90584 0.0
H1783 H 0.50222 0.23682 0.85868 0.0
H1784 H 0.4982 0.22639 0.87944 0.0
H1785 H 0.50991 0.24034 0.87145 0.0
H1786 H 0.52275 0.22778 0.89321 0.0
H1787 H 0.51028 0.22652 0.92102 0.0
H1788 H 0.45849 0.19458 0.1019 0.0
H1789 H 0.46494 0.17736 0.12663 0.0
H1790 H 0.46916 0.1366 0.11391 0.0
H1791 H 0.46272 0.15383 0.089 0.0
H1792 H 0.44898 0.15657 0.15068 0.0
H1793 H 0.51038 0.12536 0.12572 0.0
H1794 H 0.49957 0.14313 0.11412 0.0
H1795 H 0.49556 0.12456 0.11851 0.0
C1796 C 0.46073 0.18195 0.10437 0.0
C1797 C 0.46004 0.17557 0.09351 0.0
C1798 C 0.46446 0.17213 0.11849 0.0
C1799 C 0.46765 0.1557 0.12207 0.0
C1800 C 0.46702 0.14923 0.11127 0.0
H1801 H 0.4721 0.0987 0.21937 0.0
H1802 H 0.46502 0.10902 0.19417 0.0
C1803 C 0.46333 0.15908 0.09706 0.0
C1804 C 0.47134 0.14555 0.13729 0.0
H1805 H 0.50068 0.11789 0.15339 0.0
C1806 C 0.46022 0.148 0.15131 0.0
C1807 C 0.48606 0.13446 0.13803 0.0
C1808 C 0.49866 0.13175 0.12332 0.0
C1809 C 0.46358 0.14 0.16603 0.0
C1810 C 0.47836 0.129 0.16677 0.0
C1811 C 0.48932 0.12623 0.15279 0.0
C1812 C 0.48325 0.12147 0.18173 0.0
C1813 C 0.45158 0.144 0.18054 0.0
C1814 C 0.49616 0.12456 0.18293 0.0
C1815 C 0.50027 0.11862 0.19721 0.0
C1816 C 0.49157 0.1094 0.21063 0.0
C1817 C 0.47891 0.10591 0.20929 0.0
C1818 C 0.47484 0.11181 0.19492 0.0
H1819 H 0.44231 0.15503 0.17751 0.0
H1820 H 0.44576 0.13427 0.18748 0.0
H1821 H 0.45729 0.14539 0.18815 0.0
H1822 H 0.50278 0.13201 0.17292 0.0
H1823 H 0.50993 0.12175 0.19786 0.0
H1824 H 0.37487 0.51341 0.06517 0.0
H1825 H 0.40092 0.5105 0.06719 0.0
H1826 H 0.38365 0.49976 0.11782 0.0
H1827 H 0.35768 0.50196 0.11597 0.0
H1828 H 0.41171 0.5254 0.07967 0.0
H1829 H 0.42056 0.46159 0.11205 0.0
H1830 H 0.40471 0.47254 0.10264 0.0
H1831 H 0.40332 0.47426 0.12138 0.0
C1832 C 0.37661 0.51036 0.07676 0.0
C1833 C 0.36422 0.50769 0.09043 0.0
C1834 C 0.39149 0.50882 0.07788 0.0
C1835 C 0.39431 0.5046 0.09267 0.0
C1836 C 0.38181 0.50269 0.1063 0.0
H1837 H 0.4825 0.48084 0.11744 0.0
H1838 H 0.45459 0.48809 0.11821 0.0
C1839 C 0.36692 0.50415 0.1052 0.0
C1840 C 0.41047 0.50175 0.09373 0.0
H1841 H 0.44067 0.47314 0.10772 0.0
C1842 C 0.41803 0.514 0.08584 0.0
C1843 C 0.41871 0.48683 0.10176 0.0
C1844 C 0.4115 0.47299 0.10983 0.0
C1845 C 0.43362 0.51172 0.08576 0.0
C1846 C 0.44189 0.49676 0.09361 0.0
C1847 C 0.43426 0.48461 0.10175 0.0
C1848 C 0.4587 0.49323 0.09302 0.0
C1849 C 0.44109 0.52535 0.07732 0.0
C1850 C 0.47023 0.49365 0.07862 0.0
C1851 C 0.48616 0.48953 0.07813 0.0
C1852 C 0.49086 0.48487 0.09207 0.0
C1853 C 0.47925 0.48456 0.10648 0.0
C1854 C 0.46332 0.48863 0.10695 0.0
H1855 H 0.43211 0.53686 0.07551 0.0
H1856 H 0.44858 0.52546 0.08399 0.0
H1857 H 0.44867 0.52411 0.06555 0.0
H1858 H 0.46693 0.49692 0.06776 0.0
H1859 H 0.4948 0.49 0.06684 0.0
H1860 H 0.20529 0.92077 0.52613 0.0
H1861 H 0.20452 0.89312 0.53645 0.0
H1862 H 0.23127 0.88596 0.4909 0.0
H1863 H 0.23193 0.91365 0.4804 0.0
H1864 H 0.19186 0.87779 0.5251 0.0
H1865 H 0.25544 0.84972 0.5216 0.0
H1866 H 0.24657 0.8703 0.5207 0.0
H1867 H 0.25108 0.8638 0.5037 0.0
C1868 C 0.21096 0.91335 0.51827 0.0
C1869 C 0.21868 0.91945 0.50242 0.0
C1870 C 0.21058 0.89753 0.52422 0.0
C1871 C 0.21801 0.88746 0.51449 0.0
C1872 C 0.22575 0.89346 0.49869 0.0
H1873 H 0.22458 0.78893 0.52976 0.0
H1874 H 0.22693 0.81615 0.51857 0.0
C1875 C 0.22611 0.90929 0.49271 0.0
C1876 C 0.21708 0.87086 0.52075 0.0
H1877 H 0.2393 0.83267 0.52853 0.0
C1878 C 0.20222 0.86792 0.5259 0.0
C1879 C 0.23064 0.85802 0.52168 0.0
C1880 C 0.24684 0.86054 0.51676 0.0
C1881 C 0.20053 0.85246 0.53184 0.0
C1882 C 0.21406 0.83962 0.53294 0.0
C1883 C 0.22895 0.84255 0.52767 0.0
C1884 C 0.21293 0.82306 0.5398 0.0
C1885 C 0.1843 0.85004 0.53663 0.0
C1886 C 0.20451 0.81788 0.55552 0.0
C1887 C 0.20304 0.80242 0.5619 0.0
C1888 C 0.2101 0.79175 0.55273 0.0
C1889 C 0.21882 0.7969 0.53707 0.0
C1890 C 0.22027 0.8124 0.53069 0.0
H1891 H 0.17598 0.86067 0.53109 0.0
H1892 H 0.18464 0.83983 0.53334 0.0
H1893 H 0.17963 0.84763 0.54962 0.0
H1894 H 0.19899 0.82584 0.56284 0.0
H1895 H 0.1961 0.79893 0.57394 0.0
H1896 H 0.11564 0.88955 0.83222 0.0
H1897 H 0.13772 0.89665 0.83311 0.0
H1898 H 0.11147 0.90536 0.87813 0.0
H1899 H 0.08947 0.89784 0.87756 0.0
H1900 H 0.13849 0.92515 0.8354 0.0
H1901 H 0.15329 0.87463 0.88648 0.0
H1902 H 0.1407 0.87506 0.87572 0.0
H1903 H 0.13315 0.88609 0.88986 0.0
C1904 C 0.11461 0.8928 0.8424 0.0
C1905 C 0.10082 0.89298 0.85489 0.0
C1906 C 0.1272 0.89697 0.84283 0.0
C1907 C 0.12633 0.90132 0.85578 0.0
C1908 C 0.1125 0.90179 0.86814 0.0
H1909 H 0.19344 0.92646 0.87934 0.0
H1910 H 0.17006 0.9212 0.87892 0.0
C1911 C 0.09987 0.89764 0.86772 0.0
C1912 C 0.13988 0.90544 0.85624 0.0
H1913 H 0.16734 0.89405 0.87668 0.0
C1914 C 0.14482 0.91835 0.84441 0.0
C1915 C 0.14809 0.89656 0.86802 0.0
C1916 C 0.14367 0.88223 0.88068 0.0
C1917 C 0.15768 0.92272 0.84413 0.0
C1918 C 0.16599 0.91375 0.85583 0.0
C1919 C 0.16095 0.90092 0.86773 0.0
C1920 C 0.18007 0.91732 0.85584 0.0
C1921 C 0.16207 0.93707 0.83148 0.0
C1922 C 0.19353 0.91674 0.84307 0.0
C1923 C 0.20693 0.9197 0.84329 0.0
C1924 C 0.20719 0.92317 0.85636 0.0
C1925 C 0.1937 0.92367 0.86916 0.0
C1926 C 0.1803 0.92074 0.86892 0.0
H1927 H 0.15212 0.94503 0.82628 0.0
H1928 H 0.16581 0.94384 0.83621 0.0
H1929 H 0.17203 0.93324 0.82186 0.0
H1930 H 0.19377 0.91374 0.83302 0.0
H1931 H 0.2172 0.91894 0.83336 0.0
H1932 H 0.86588 0.96229 0.9042 0.0
H1933 H 0.86436 0.93519 0.91933 0.0
H1934 H 0.8529 0.93063 0.88146 0.0
H1935 H 0.85405 0.95764 0.86642 0.0
H1936 H 0.83569 0.92646 0.92754 0.0
H1937 H 0.88773 0.90302 0.89818 0.0
H1938 H 0.87769 0.909 0.88332 0.0
H1939 H 0.88441 0.8883 0.89288 0.0
C1940 C 0.86321 0.95547 0.899 0.0
C1941 C 0.86005 0.96222 0.88408 0.0
C1942 C 0.8625 0.93994 0.90761 0.0
C1943 C 0.85883 0.93083 0.90136 0.0
C1944 C 0.85622 0.93732 0.88628 0.0
H1945 H 0.80332 0.86617 0.93883 0.0
H1946 H 0.81564 0.88804 0.92686 0.0
C1947 C 0.85687 0.95281 0.8777 0.0
C1948 C 0.85532 0.91551 0.91131 0.0
H1949 H 0.86398 0.87716 0.9117 0.0
C1950 C 0.84206 0.9156 0.92426 0.0
C1951 C 0.86382 0.90131 0.90721 0.0
C1952 C 0.87925 0.90022 0.89469 0.0
C1953 C 0.83644 0.90211 0.93259 0.0
C1954 C 0.84402 0.88832 0.92753 0.0
C1955 C 0.85793 0.88789 0.91526 0.0
C1956 C 0.83704 0.87469 0.93428 0.0
C1957 C 0.82223 0.90285 0.94656 0.0
C1958 C 0.84519 0.85975 0.94196 0.0
C1959 C 0.83814 0.84717 0.94893 0.0
C1960 C 0.82282 0.84932 0.9482 0.0
C1961 C 0.81494 0.8642 0.94001 0.0
C1962 C 0.82198 0.87671 0.93311 0.0
H1963 H 0.82093 0.91207 0.95183 0.0
H1964 H 0.81148 0.9059 0.94264 0.0
H1965 H 0.82298 0.89133 0.95582 0.0
H1966 H 0.85687 0.85793 0.94281 0.0
H1967 H 0.84454 0.83588 0.95515 0.0
H1968 H 0.18323 0.07014 0.49664 0.0
H1969 H 0.16548 0.09283 0.50603 0.0
H1970 H 0.1676 0.12156 0.45795 0.0
H1971 H 0.18484 0.09886 0.4485 0.0
H1972 H 0.17313 0.12004 0.49972 0.0
H1973 H 0.12088 0.13373 0.47848 0.0
H1974 H 0.1357 0.11514 0.47942 0.0
H1975 H 0.13883 0.13227 0.46308 0.0
C1976 C 0.1796 0.08118 0.48808 0.0
C1977 C 0.18549 0.08269 0.47181 0.0
C1978 C 0.16952 0.09416 0.49346 0.0
C1979 C 0.16505 0.10885 0.4827 0.0
C1980 C 0.17061 0.11028 0.46649 0.0
H1981 H 0.12729 0.206 0.48073 0.0
H1982 H 0.13739 0.18028 0.47558 0.0
C1983 C 0.18065 0.09733 0.4611 0.0
C1984 C 0.15583 0.12301 0.48828 0.0
H1985 H 0.12347 0.15439 0.48549 0.0
C1986 C 0.16214 0.12742 0.49684 0.0
C1987 C 0.14152 0.13265 0.48446 0.0
C1988 C 0.13375 0.12813 0.47599 0.0
C1989 C 0.15489 0.14153 0.5011 0.0
C1990 C 0.14082 0.15138 0.49689 0.0
C1991 C 0.13428 0.14681 0.48867 0.0
C1992 C 0.13323 0.16687 0.5002 0.0
C1993 C 0.16269 0.14612 0.50949 0.0
C1994 C 0.12715 0.16784 0.51576 0.0
C1995 C 0.12131 0.18253 0.51876 0.0
C1996 C 0.12138 0.19652 0.50623 0.0
C1997 C 0.1269 0.19549 0.49065 0.0
C1998 C 0.13275 0.1808 0.48767 0.0
H1999 H 0.17501 0.13886 0.50903 0.0
H2000 H 0.16275 0.15874 0.50424 0.0
H2001 H 0.15599 0.1444 0.52207 0.0
H2002 H 0.12717 0.15722 0.52559 0.0
H2003 H 0.11688 0.18294 0.53089 0.0
H2004 H 0.86145 0.21026 0.92978 0.0
H2005 H 0.86736 0.18727 0.92063 0.0
H2006 H 0.82248 0.20487 0.90959 0.0
H2007 H 0.81667 0.22802 0.91829 0.0
H2008 H 0.85001 0.16468 0.93245 0.0
H2009 H 0.85339 0.19506 0.86905 0.0
H2010 H 0.85434 0.20429 0.8821 0.0
H2011 H 0.83567 0.20334 0.88203 0.0
C2012 C 0.85295 0.20935 0.92517 0.0
C2013 C 0.8386 0.22099 0.92474 0.0
C2014 C 0.8563 0.19617 0.92004 0.0
C2015 C 0.84545 0.19447 0.91424 0.0
C2016 C 0.83115 0.20608 0.91376 0.0
H2017 H 0.83328 0.12554 0.88437 0.0
H2018 H 0.83152 0.1484 0.89159 0.0
C2019 C 0.82777 0.21922 0.91891 0.0
C2020 C 0.84872 0.18027 0.90929 0.0
H2021 H 0.85162 0.16844 0.87829 0.0
C2022 C 0.85054 0.16545 0.92057 0.0
C2023 C 0.8494 0.18134 0.89378 0.0
C2024 C 0.84825 0.19684 0.88099 0.0
C2025 C 0.85244 0.15172 0.91691 0.0
C2026 C 0.85279 0.15284 0.90148 0.0
C2027 C 0.85129 0.16762 0.89012 0.0
C2028 C 0.85412 0.13892 0.89701 0.0
C2029 C 0.85346 0.13624 0.92973 0.0
C2030 C 0.8675 0.12606 0.8975 0.0
C2031 C 0.86857 0.11297 0.89332 0.0
C2032 C 0.85632 0.11255 0.88847 0.0
C2033 C 0.84301 0.12555 0.88785 0.0
C2034 C 0.84195 0.1386 0.89205 0.0
H2035 H 0.8494 0.13797 0.94166 0.0
H2036 H 0.84632 0.1294 0.92928 0.0
H2037 H 0.86589 0.12911 0.92799 0.0
H2038 H 0.87718 0.12621 0.90098 0.0
H2039 H 0.87908 0.10327 0.89369 0.0
H2040 H 0.1037 0.45524 0.20392 0.0
H2041 H 0.12829 0.46177 0.18686 0.0
H2042 H 0.10533 0.49127 0.14977 0.0
H2043 H 0.0806 0.48461 0.16674 0.0
H2044 H 0.1445 0.45633 0.15687 0.0
H2045 H 0.12742 0.51992 0.15361 0.0
H2046 H 0.11654 0.50627 0.16859 0.0
H2047 H 0.11442 0.51348 0.14883 0.0
C2048 C 0.10387 0.46302 0.1921 0.0
C2049 C 0.09018 0.46933 0.18667 0.0
C2050 C 0.11791 0.46682 0.18241 0.0
C2051 C 0.11858 0.47712 0.16714 0.0
C2052 C 0.10497 0.48351 0.16164 0.0
H2053 H 0.19856 0.50732 0.09359 0.0
H2054 H 0.17209 0.5044 0.10899 0.0
C2055 C 0.09087 0.47969 0.17134 0.0
C2056 C 0.13374 0.48058 0.15688 0.0
H2057 H 0.15284 0.50986 0.13864 0.0
C2058 C 0.14633 0.46803 0.15286 0.0
C2059 C 0.13602 0.49589 0.15162 0.0
C2060 C 0.12295 0.50969 0.15594 0.0
C2061 C 0.1612 0.47034 0.14376 0.0
C2062 C 0.16361 0.48556 0.13883 0.0
C2063 C 0.15094 0.4982 0.14254 0.0
C2064 C 0.17932 0.48841 0.12998 0.0
C2065 C 0.17416 0.45649 0.13938 0.0
C2066 C 0.19202 0.48079 0.13686 0.0
C2067 C 0.20714 0.48236 0.12809 0.0
C2068 C 0.20983 0.49166 0.11228 0.0
C2069 C 0.19692 0.49989 0.10566 0.0
C2070 C 0.18178 0.4983 0.11446 0.0
H2071 H 0.16941 0.44687 0.14046 0.0
H2072 H 0.18142 0.46014 0.12711 0.0
H2073 H 0.18194 0.45168 0.14744 0.0
H2074 H 0.1903 0.4733 0.14892 0.0
H2075 H 0.2168 0.47575 0.13353 0.0
H2076 H 0.36074 0.93748 0.87509 0.0
H2077 H 0.37941 0.92595 0.89126 0.0
H2078 H 0.35075 0.89483 0.92482 0.0
H2079 H 0.33186 0.9064 0.90864 0.0
H2080 H 0.37433 0.92499 0.92227 0.0
H2081 H 0.39468 0.86462 0.91513 0.0
H2082 H 0.3836 0.88122 0.90272 0.0
H2083 H 0.3738 0.87192 0.92245 0.0
C2084 C 0.35829 0.92829 0.88598 0.0
C2085 C 0.34475 0.92292 0.89061 0.0
C2086 C 0.36903 0.92165 0.89517 0.0
C2087 C 0.36656 0.90944 0.90916 0.0
C2088 C 0.35303 0.90405 0.91392 0.0
H2089 H 0.42561 0.88308 0.97351 0.0
H2090 H 0.40249 0.88975 0.96385 0.0
C2091 C 0.34225 0.91069 0.90467 0.0
C2092 C 0.37817 0.90264 0.91871 0.0
H2093 H 0.40604 0.86929 0.93084 0.0
C2094 C 0.38117 0.91277 0.92429 0.0
C2095 C 0.38715 0.88673 0.92119 0.0
C2096 C 0.38479 0.87547 0.91498 0.0
C2097 C 0.39316 0.90756 0.93194 0.0
C2098 C 0.40222 0.89166 0.93436 0.0
C2099 C 0.39899 0.88142 0.92909 0.0
C2100 C 0.41593 0.88588 0.94109 0.0
C2101 C 0.39651 0.91931 0.9367 0.0
C2102 C 0.43109 0.8808 0.9318 0.0
C2103 C 0.44429 0.8769 0.93731 0.0
C2104 C 0.44258 0.87799 0.95226 0.0
C2105 C 0.42732 0.88237 0.96185 0.0
C2106 C 0.41411 0.8862 0.95634 0.0
H2107 H 0.39079 0.93168 0.93097 0.0
H2108 H 0.39191 0.91723 0.94966 0.0
H2109 H 0.40937 0.91794 0.93359 0.0
H2110 H 0.43277 0.88046 0.91999 0.0
H2111 H 0.45586 0.87374 0.92955 0.0
H2112 H 0.95658 0.8334 0.84397 0.0
H2113 H 0.94336 0.83864 0.8696 0.0
H2114 H 0.90173 0.86689 0.85339 0.0
H2115 H 0.91477 0.86146 0.82792 0.0
H2116 H 0.93078 0.86442 0.87954 0.0
H2117 H 0.88346 0.83632 0.89195 0.0
H2118 H 0.90036 0.8353 0.87522 0.0
H2119 H 0.88428 0.85286 0.87462 0.0
C2120 C 0.94461 0.84072 0.84589 0.0
C2121 C 0.93669 0.84689 0.83396 0.0
C2122 C 0.93709 0.84381 0.8605 0.0
C2123 C 0.92144 0.85297 0.86355 0.0
C2124 C 0.91371 0.8596 0.85146 0.0
H2125 H 0.87586 0.87756 0.9539 0.0
H2126 H 0.88842 0.88005 0.92574 0.0
C2127 C 0.92123 0.85658 0.83683 0.0
C2128 C 0.91316 0.85497 0.87958 0.0
H2129 H 0.88196 0.84733 0.91104 0.0
C2130 C 0.92003 0.86082 0.88639 0.0
C2131 C 0.89917 0.85016 0.88857 0.0
C2132 C 0.89145 0.84318 0.88229 0.0
C2133 C 0.91355 0.8616 0.90204 0.0
C2134 C 0.89975 0.8565 0.91108 0.0
C2135 C 0.89259 0.85117 0.9041 0.0
C2136 C 0.89316 0.85523 0.92816 0.0
C2137 C 0.92187 0.8673 0.90892 0.0
C2138 C 0.89172 0.8405 0.93889 0.0
C2139 C 0.88456 0.83907 0.95487 0.0
C2140 C 0.87863 0.85237 0.96051 0.0
C2141 C 0.88046 0.86709 0.94988 0.0
C2142 C 0.88763 0.86852 0.9338 0.0
H2143 H 0.93404 0.86756 0.90156 0.0
H2144 H 0.91525 0.87947 0.90959 0.0
H2145 H 0.9224 0.85968 0.92103 0.0
H2146 H 0.89597 0.83007 0.93484 0.0
H2147 H 0.8835 0.82755 0.96281 0.0
H2148 H 0.91707 0.83638 0.21819 0.0
H2149 H 0.91123 0.8363 0.19509 0.0
H2150 H 0.91993 0.88221 0.17031 0.0
H2151 H 0.9262 0.88221 0.19321 0.0
H2152 H 0.88744 0.85849 0.18069 0.0
H2153 H 0.94675 0.85634 0.13879 0.0
H2154 H 0.94362 0.85156 0.15983 0.0
H2155 H 0.9393 0.8718 0.1482 0.0
C2156 C 0.91799 0.84635 0.20774 0.0
C2157 C 0.92216 0.85928 0.20753 0.0
C2158 C 0.91454 0.84633 0.19459 0.0
C2159 C 0.91533 0.85916 0.18093 0.0
C2160 C 0.9195 0.87207 0.18065 0.0
H2161 H 0.89496 0.881 0.09122 0.0
H2162 H 0.90228 0.88151 0.1133 0.0
C2163 C 0.92291 0.87213 0.19381 0.0
C2164 C 0.91118 0.85927 0.16722 0.0
H2165 H 0.92585 0.86024 0.12833 0.0
C2166 C 0.89584 0.85881 0.16925 0.0
C2167 C 0.92215 0.85979 0.15231 0.0
C2168 C 0.93892 0.85977 0.14961 0.0
C2169 C 0.89112 0.85902 0.15671 0.0
C2170 C 0.90213 0.85939 0.14183 0.0
C2171 C 0.91744 0.85996 0.13976 0.0
C2172 C 0.89803 0.85892 0.12834 0.0
C2173 C 0.8743 0.85914 0.15944 0.0
C2174 C 0.89352 0.84591 0.12937 0.0
C2175 C 0.88938 0.84557 0.11679 0.0
C2176 C 0.88976 0.85818 0.10287 0.0
C2177 C 0.89463 0.87105 0.10174 0.0
C2178 C 0.89876 0.87139 0.11436 0.0
H2179 H 0.86644 0.86314 0.16995 0.0
H2180 H 0.86976 0.86694 0.14902 0.0
H2181 H 0.87375 0.847 0.16149 0.0
H2182 H 0.89325 0.83598 0.1399 0.0
H2183 H 0.88601 0.83533 0.11793 0.0
H2184 H 0.8985 0.88897 0.34877 0.0
H2185 H 0.88661 0.90502 0.36723 0.0
H2186 H 0.92993 0.91818 0.35378 0.0
H2187 H 0.94172 0.90258 0.33499 0.0
H2188 H 0.89769 0.89918 0.39243 0.0
H2189 H 0.89735 0.96017 0.35446 0.0
H2190 H 0.89975 0.94442 0.34679 0.0
H2191 H 0.91625 0.94651 0.35041 0.0
C2192 C 0.90535 0.89564 0.34941 0.0
C2193 C 0.92108 0.89447 0.34044 0.0
C2194 C 0.89856 0.90474 0.36003 0.0
C2195 C 0.90732 0.91294 0.36176 0.0
C2196 C 0.92284 0.91222 0.35243 0.0
H2197 H 0.90885 0.95318 0.42725 0.0
H2198 H 0.9122 0.94467 0.40466 0.0
C2199 C 0.92963 0.90313 0.34183 0.0
C2200 C 0.90092 0.9208 0.37447 0.0
H2201 H 0.89524 0.95529 0.38187 0.0
C2202 C 0.89686 0.91152 0.39012 0.0
C2203 C 0.89992 0.93689 0.37143 0.0
C2204 C 0.9034 0.94762 0.35485 0.0
C2205 C 0.89261 0.91767 0.40285 0.0
C2206 C 0.8921 0.93363 0.39982 0.0
C2207 C 0.89564 0.94306 0.38416 0.0
C2208 C 0.88919 0.9403 0.41277 0.0
C2209 C 0.88948 0.9068 0.41942 0.0
C2210 C 0.87495 0.9411 0.4246 0.0
C2211 C 0.87305 0.94581 0.43764 0.0
C2212 C 0.88536 0.94986 0.43902 0.0
C2213 C 0.89927 0.94982 0.42671 0.0
C2214 C 0.90116 0.9451 0.41372 0.0
H2215 H 0.89351 0.89419 0.4196 0.0
H2216 H 0.89546 0.90845 0.42664 0.0
H2217 H 0.87664 0.90957 0.42507 0.0
H2218 H 0.86546 0.9377 0.42394 0.0
H2219 H 0.8622 0.94567 0.44692 0.0
H2220 H 0.98588 0.84025 0.66533 0.0
H2221 H 0.9774 0.85904 0.64194 0.0
H2222 H 0.93623 0.88254 0.67169 0.0
H2223 H 0.94446 0.86375 0.69508 0.0
H2224 H 0.94904 0.86402 0.63518 0.0
H2225 H 0.95404 0.91906 0.63863 0.0
H2226 H 0.96352 0.8997 0.64934 0.0
H2227 H 0.94293 0.90834 0.6567 0.0
C2228 C 0.97504 0.84944 0.66689 0.0
C2229 C 0.96587 0.85052 0.68208 0.0
C2230 C 0.97026 0.8602 0.65352 0.0
C2231 C 0.95632 0.87231 0.65509 0.0
C2232 C 0.94723 0.87351 0.6702 0.0
H2233 H 0.89402 0.94191 0.60137 0.0
H2234 H 0.9088 0.92424 0.62069 0.0
C2235 C 0.95196 0.86276 0.68357 0.0
C2236 C 0.95069 0.88311 0.64104 0.0
H2237 H 0.93885 0.92209 0.62171 0.0
C2238 C 0.94702 0.8767 0.63206 0.0
C2239 C 0.94809 0.89963 0.63704 0.0
C2240 C 0.95249 0.90711 0.64584 0.0
C2241 C 0.94008 0.88645 0.61962 0.0
C2242 C 0.93703 0.90301 0.61593 0.0
C2243 C 0.94118 0.90938 0.6246 0.0
C2244 C 0.92855 0.91398 0.60387 0.0
C2245 C 0.93541 0.87899 0.61103 0.0
C2246 C 0.93485 0.9142 0.58794 0.0
C2247 C 0.92641 0.92435 0.57681 0.0
C2248 C 0.91161 0.93453 0.58143 0.0
C2249 C 0.90549 0.9344 0.59737 0.0
C2250 C 0.91389 0.92426 0.60845 0.0
H2251 H 0.9356 0.86642 0.61742 0.0
H2252 H 0.92343 0.88547 0.60937 0.0
H2253 H 0.94378 0.87951 0.5992 0.0
H2254 H 0.94628 0.90655 0.58412 0.0
H2255 H 0.93151 0.92431 0.56459 0.0
loop_
_geom_bond_atom_site_label_1
_geom_bond_atom_site_label_2
_geom_bond_distance
_geom_bond_site_symmetry_2
_ccdc_geom_bond_type
C0 C1 1.264 . S
C0 C5 1.479 . S
C0 C10 1.465 . S
C1 C0 1.264 . S
C1 C3 1.339 . S
C1 H28 0.931 . S
C2 C3 1.395 . S
C2 C4 1.320 . S
C3 C1 1.339 . S
C3 C2 1.395 . S
C3 H29 0.929 . S
C4 C2 1.320 . S
C4 C5 1.405 . S
C4 H30 0.930 . S
C5 C0 1.479 . S
C5 C4 1.405 . S
C5 H31 0.931 . S
U6 O7 2.454 . S
U6 O8 2.458 . S
U6 C9 2.984 . S
U6 C10 2.847 . S
U6 C23 2.882 . S
U6 O24 2.441 . S
U6 O25 2.420 . S
U6 O26 2.455 . S
U6 O27 2.449 . S
O7 U6 2.454 . S
O7 C9 1.353 . S
O8 U6 2.458 . S
O8 C9 1.286 . S
C9 U6 2.984 . S
C9 O7 1.353 . S
C9 O8 1.286 . S
C9 C11 1.363 . S
C10 C0 1.465 . S
C10 U6 2.847 . S
C10 O24 1.249 . S
C10 O25 1.202 . S
C11 C9 1.363 . S
C11 C13 1.408 . S
C11 C16 1.342 . S
C12 C13 1.310 . S
C12 C15 1.461 . S
C12 H32 0.932 . S
C13 C11 1.408 . S
C13 C12 1.310 . S
C13 H33 0.930 . S
C14 C15 1.474 . S
C14 C16 1.285 . S
C14 H34 0.929 . S
C15 C12 1.461 . S
C15 C14 1.474 . S
C16 C11 1.342 . S
C16 C14 1.285 . S
C16 H35 0.930 . S
C17 C20 1.424 . S
C17 C22 1.245 . S
C17 C23 1.428 . S
C18 C21 1.260 . S
C18 C22 1.477 1_655 S
C18 H36 0.932 . S
C19 C20 1.384 . S
C19 C21 1.479 1_455 S
C19 H37 0.929 . S
C20 C17 1.424 . S
C20 C19 1.384 . S
C20 H38 0.928 . S
C21 C18 1.260 . S
C21 C19 1.479 1_655 S
C22 C17 1.245 . S
C22 C18 1.477 1_455 S
C22 H39 0.932 . S
C23 U6 2.882 . S
C23 C17 1.428 . S
C23 O26 1.301 . S
C23 O27 1.282 . S
O24 U6 2.441 . S
O24 C10 1.249 . S
O25 U6 2.420 . S
O25 C10 1.202 . S
O26 U6 2.455 . S
O26 C23 1.301 . S
O27 U6 2.449 . S
O27 C23 1.282 . S
H28 C1 0.931 . S
H29 C3 0.929 . S
H30 C4 0.930 . S
H31 C5 0.931 . S
H32 C12 0.932 . S
H33 C13 0.930 . S
H34 C14 0.929 . S
H35 C16 0.930 . S
H36 C18 0.932 . S
H37 C19 0.929 . S
H38 C20 0.928 . S
H39 C22 0.932 . S
C40 C41 1.264 . S
C40 C45 1.479 . S
C40 C50 1.465 . S
C41 C40 1.264 . S
C41 C43 1.339 . S
C41 H68 0.931 . S
C42 C43 1.395 . S
C42 C44 1.320 . S
C43 C41 1.339 . S
C43 C42 1.395 . S
C43 H69 0.929 . S
C44 C42 1.320 . S
C44 C45 1.405 . S
C44 H70 0.930 . S
C45 C40 1.479 . S
C45 C44 1.405 . S
C45 H71 0.931 . S
U46 O47 2.454 . S
U46 O48 2.458 . S
U46 C49 2.984 . S
U46 C50 2.847 . S
U46 C63 2.882 . S
U46 O64 2.441 . S
U46 O65 2.420 . S
U46 O66 2.455 . S
U46 O67 2.449 . S
O47 U46 2.454 . S
O47 C49 1.353 . S
O48 U46 2.458 . S
O48 C49 1.286 . S
C49 U46 2.984 . S
C49 O47 1.353 . S
C49 O48 1.286 . S
C49 C51 1.363 1_455 S
C50 C40 1.465 . S
C50 U46 2.847 . S
C50 O64 1.249 . S
C50 O65 1.202 . S
C51 C49 1.363 1_655 S
C51 C53 1.408 . S
C51 C56 1.342 . S
C52 C53 1.310 . S
C52 C55 1.461 . S
C52 H72 0.932 . S
C53 C51 1.408 . S
C53 C52 1.310 . S
C53 H73 0.930 . S
C54 C55 1.474 . S
C54 C56 1.285 . S
C54 H74 0.929 . S
C55 C52 1.461 . S
C55 C54 1.474 . S
C56 C51 1.342 . S
C56 C54 1.285 . S
C56 H75 0.930 . S
C57 C60 1.424 . S
C57 C62 1.245 . S
C57 C63 1.428 . S
C58 C61 1.260 . S
C58 C62 1.477 . S
C58 H76 0.932 . S
C59 C60 1.384 . S
C59 C61 1.479 . S
C59 H77 0.929 . S
C60 C57 1.424 . S
C60 C59 1.384 . S
C60 H78 0.928 . S
C61 C58 1.260 . S
C61 C59 1.479 . S
C62 C57 1.245 . S
C62 C58 1.477 . S
C62 H79 0.932 . S
C63 U46 2.882 . S
C63 C57 1.428 . S
C63 O66 1.301 . S
C63 O67 1.282 . S
O64 U46 2.441 . S
O64 C50 1.249 . S
O65 U46 2.420 . S
O65 C50 1.202 . S
O66 U46 2.455 . S
O66 C63 1.301 . S
O67 U46 2.449 . S
O67 C63 1.282 . S
H68 C41 0.931 . S
H69 C43 0.929 . S
H70 C44 0.930 . S
H71 C45 0.931 . S
H72 C52 0.932 . S
H73 C53 0.930 . S
H74 C54 0.929 . S
H75 C56 0.930 . S
H76 C58 0.932 . S
H77 C59 0.929 . S
H78 C60 0.928 . S
H79 C62 0.932 . S
C80 C81 1.273 1_556 S
C80 C85 1.491 . S
C80 C90 1.443 1_556 S
C81 C80 1.273 1_554 S
C81 C83 1.337 1_554 S
C81 H108 0.931 . S
C82 C83 1.396 . S
C82 C84 1.320 . S
C83 C81 1.337 1_556 S
C83 C82 1.396 . S
C83 H109 0.929 1_556 S
C84 C82 1.320 . S
C84 C85 1.405 . S
C84 H110 0.930 . S
C85 C80 1.491 . S
C85 C84 1.405 . S
C85 H111 0.931 . S
U86 O87 2.454 1_554 S
U86 O88 2.458 . S
U86 C89 2.984 1_554 S
U86 C90 2.847 . S
U86 C103 2.882 . S
U86 O104 2.441 1_554 S
U86 O105 2.420 . S
U86 O106 2.455 . S
U86 O107 2.449 . S
O87 U86 2.454 1_556 S
O87 C89 1.353 . S
O88 U86 2.458 . S
O88 C89 1.286 1_554 S
C89 U86 2.984 1_556 S
C89 O87 1.353 . S
C89 O88 1.286 1_556 S
C89 C91 1.363 . S
C90 C80 1.443 1_554 S
C90 U86 2.847 . S
C90 O104 1.249 1_554 S
C90 O105 1.202 . S
C91 C89 1.363 . S
C91 C93 1.408 . S
C91 C96 1.342 . S
C92 C93 1.310 . S
C92 C95 1.461 . S
C92 H112 0.932 . S
C93 C91 1.408 . S
C93 C92 1.310 . S
C93 H113 0.930 . S
C94 C95 1.474 . S
C94 C96 1.285 . S
C94 H114 0.929 . S
C95 C92 1.461 . S
C95 C94 1.474 . S
C96 C91 1.342 . S
C96 C94 1.285 . S
C96 H115 0.930 . S
C97 C100 1.424 . S
C97 C102 1.245 . S
C97 C103 1.428 . S
C98 C101 1.260 . S
C98 C102 1.477 . S
C98 H116 0.932 . S
C99 C100 1.384 . S
C99 C101 1.479 . S
C99 H117 0.929 . S
C100 C97 1.424 . S
C100 C99 1.384 . S
C100 H118 0.928 . S
C101 C98 1.260 . S
C101 C99 1.479 . S
C102 C97 1.245 . S
C102 C98 1.477 . S
C102 H119 0.932 . S
C103 U86 2.882 . S
C103 C97 1.428 . S
C103 O106 1.301 . S
C103 O107 1.282 . S
O104 U86 2.441 1_556 S
O104 C90 1.249 1_556 S
O105 U86 2.420 . S
O105 C90 1.202 . S
O106 U86 2.455 . S
O106 C103 1.301 . S
O107 U86 2.449 . S
O107 C103 1.282 . S
H108 C81 0.931 . S
H109 C83 0.929 1_554 S
H110 C84 0.930 . S
H111 C85 0.931 . S
H112 C92 0.932 . S
H113 C93 0.930 . S
H114 C94 0.929 . S
H115 C96 0.930 . S
H116 C98 0.932 . S
H117 C99 0.929 . S
H118 C100 0.928 . S
H119 C102 0.932 . S
C120 C121 1.264 . S
C120 C125 1.479 . S
C120 C130 1.465 . S
C121 C120 1.264 . S
C121 C123 1.339 . S
C121 H148 0.931 . S
C122 C123 1.395 . S
C122 C124 1.320 . S
C123 C121 1.339 . S
C123 C122 1.395 . S
C123 H149 0.929 . S
C124 C122 1.320 . S
C124 C125 1.405 . S
C124 H150 0.930 . S
C125 C120 1.479 . S
C125 C124 1.405 . S
C125 H151 0.931 . S
U126 O127 2.454 . S
U126 O128 2.458 . S
U126 C129 2.984 . S
U126 C130 2.847 . S
U126 C143 2.882 . S
U126 O144 2.441 . S
U126 O145 2.420 . S
U126 O146 2.455 . S
U126 O147 2.449 . S
O127 U126 2.454 . S
O127 C129 1.353 . S
O128 U126 2.458 . S
O128 C129 1.286 . S
C129 U126 2.984 . S
C129 O127 1.353 . S
C129 O128 1.286 . S
C129 C131 1.363 . S
C130 C120 1.465 . S
C130 U126 2.847 . S
C130 O144 1.249 . S
C130 O145 1.202 . S
C131 C129 1.363 . S
C131 C133 1.408 . S
C131 C136 1.342 . S
C132 C133 1.310 . S
C132 C135 1.461 . S
C132 H152 0.932 . S
C133 C131 1.408 . S
C133 C132 1.310 . S
C133 H153 0.930 . S
C134 C135 1.474 . S
C134 C136 1.285 . S
C134 H154 0.929 . S
C135 C132 1.461 . S
C135 C134 1.474 . S
C136 C131 1.342 . S
C136 C134 1.285 . S
C136 H155 0.930 . S
C137 C140 1.424 . S
C137 C142 1.245 . S
C137 C143 1.428 . S
C138 C141 1.260 . S
C138 C142 1.477 . S
C138 H156 0.932 . S
C139 C140 1.384 . S
C139 C141 1.479 . S
C139 H157 0.929 . S
C140 C137 1.424 . S
C140 C139 1.384 . S
C140 H158 0.928 . S
C141 C138 1.260 . S
C141 C139 1.479 . S
C142 C137 1.245 . S
C142 C138 1.477 . S
C142 H159 0.932 . S
C143 U126 2.882 . S
C143 C137 1.428 . S
C143 O146 1.301 . S
C143 O147 1.282 . S
O144 U126 2.441 . S
O144 C130 1.249 . S
O145 U126 2.420 . S
O145 C130 1.202 . S
O146 U126 2.455 . S
O146 C143 1.301 . S
O147 U126 2.449 . S
O147 C143 1.282 . S
H148 C121 0.931 . S
H149 C123 0.929 . S
H150 C124 0.930 . S
H151 C125 0.931 . S
H152 C132 0.932 . S
H153 C133 0.930 . S
H154 C134 0.929 . S
H155 C136 0.930 . S
H156 C138 0.932 . S
H157 C139 0.929 . S
H158 C140 0.928 . S
H159 C142 0.932 . S
C160 C161 1.264 . S
C160 C165 1.479 . S
C160 C170 1.465 . S
C161 C160 1.264 . S
C161 C163 1.339 . S
C161 H188 0.931 . S
C162 C163 1.395 . S
C162 C164 1.320 . S
C163 C161 1.339 . S
C163 C162 1.395 . S
C163 H189 0.929 . S
C164 C162 1.320 . S
C164 C165 1.405 . S
C164 H190 0.930 . S
C165 C160 1.479 . S
C165 C164 1.405 . S
C165 H191 0.931 . S
U166 O167 2.454 . S
U166 O168 2.458 . S
U166 C169 2.984 . S
U166 C170 2.847 . S
U166 C183 2.882 . S
U166 O184 2.441 . S
U166 O185 2.420 . S
U166 O186 2.455 . S
U166 O187 2.449 . S
O167 U166 2.454 . S
O167 C169 1.353 . S
O168 U166 2.458 . S
O168 C169 1.286 . S
C169 U166 2.984 . S
C169 O167 1.353 . S
C169 O168 1.286 . S
C169 C171 1.363 . S
C170 C160 1.465 . S
C170 U166 2.847 . S
C170 O184 1.249 . S
C170 O185 1.202 . S
C171 C169 1.363 . S
C171 C173 1.408 . S
C171 C176 1.342 . S
C172 C173 1.310 . S
C172 C175 1.461 . S
C172 H192 0.932 . S
C173 C171 1.408 . S
C173 C172 1.310 . S
C173 H193 0.930 . S
C174 C175 1.474 . S
C174 C176 1.285 . S
C174 H194 0.929 . S
C175 C172 1.461 . S
C175 C174 1.474 . S
C176 C171 1.342 . S
C176 C174 1.285 . S
C176 H195 0.930 . S
C177 C180 1.424 . S
C177 C182 1.245 . S
C177 C183 1.428 . S
C178 C181 1.260 . S
C178 C182 1.477 . S
C178 H196 0.932 . S
C179 C180 1.384 . S
C179 C181 1.479 . S
C179 H197 0.929 . S
C180 C177 1.424 . S
C180 C179 1.384 . S
C180 H198 0.928 . S
C181 C178 1.260 . S
C181 C179 1.479 . S
C182 C177 1.245 . S
C182 C178 1.477 . S
C182 H199 0.932 . S
C183 U166 2.882 . S
C183 C177 1.428 . S
C183 O186 1.301 . S
C183 O187 1.282 . S
O184 U166 2.441 . S
O184 C170 1.249 . S
O185 U166 2.420 . S
O185 C170 1.202 . S
O186 U166 2.455 . S
O186 C183 1.301 . S
O187 U166 2.449 . S
O187 C183 1.282 . S
H188 C161 0.931 . S
H189 C163 0.929 . S
H190 C164 0.930 . S
H191 C165 0.931 . S
H192 C172 0.932 . S
H193 C173 0.930 . S
H194 C174 0.929 . S
H195 C176 0.930 . S
H196 C178 0.932 . S
H197 C179 0.929 . S
H198 C180 0.928 . S
H199 C182 0.932 . S
C200 C201 1.264 1_556 S
C200 C205 1.479 . S
C200 C210 1.465 . S
C201 C200 1.264 1_554 S
C201 C203 1.339 . S
C201 H228 0.931 . S
C202 C203 1.395 1_556 S
C202 C204 1.320 . S
C203 C201 1.339 . S
C203 C202 1.395 1_554 S
C203 H229 0.929 . S
C204 C202 1.320 . S
C204 C205 1.405 . S
C204 H230 0.930 . S
C205 C200 1.479 . S
C205 C204 1.405 . S
C205 H231 0.931 . S
U206 O207 2.454 . S
U206 O208 2.458 . S
U206 C209 2.984 . S
U206 C210 2.847 . S
U206 C223 2.882 1_556 S
U206 O224 2.441 . S
U206 O225 2.420 . S
U206 O226 2.455 1_556 S
U206 O227 2.449 1_556 S
O207 U206 2.454 . S
O207 C209 1.353 . S
O208 U206 2.458 . S
O208 C209 1.286 . S
C209 U206 2.984 . S
C209 O207 1.353 . S
C209 O208 1.286 . S
C209 C211 1.363 . S
C210 C200 1.465 . S
C210 U206 2.847 . S
C210 O224 1.249 . S
C210 O225 1.202 . S
C211 C209 1.363 . S
C211 C213 1.408 . S
C211 C216 1.342 . S
C212 C213 1.310 . S
C212 C215 1.461 . S
C212 H232 0.932 . S
C213 C211 1.408 . S
C213 C212 1.310 . S
C213 H233 0.930 . S
C214 C215 1.474 . S
C214 C216 1.285 . S
C214 H234 0.929 . S
C215 C212 1.461 . S
C215 C214 1.474 . S
C216 C211 1.342 . S
C216 C214 1.285 . S
C216 H235 0.930 . S
C217 C220 1.424 . S
C217 C222 1.245 . S
C217 C223 1.428 . S
C218 C221 1.260 . S
C218 C222 1.477 . S
C218 H236 0.932 . S
C219 C220 1.384 . S
C219 C221 1.479 . S
C219 H237 0.929 . S
C220 C217 1.424 . S
C220 C219 1.384 . S
C220 H238 0.928 . S
C221 C218 1.260 . S
C221 C219 1.479 . S
C222 C217 1.245 . S
C222 C218 1.477 . S
C222 H239 0.932 . S
C223 U206 2.882 1_554 S
C223 C217 1.428 . S
C223 O226 1.301 . S
C223 O227 1.282 . S
O224 U206 2.441 . S
O224 C210 1.249 . S
O225 U206 2.420 . S
O225 C210 1.202 . S
O226 U206 2.455 1_554 S
O226 C223 1.301 . S
O227 U206 2.449 1_554 S
O227 C223 1.282 . S
H228 C201 0.931 . S
H229 C203 0.929 . S
H230 C204 0.930 . S
H231 C205 0.931 . S
H232 C212 0.932 . S
H233 C213 0.930 . S
H234 C214 0.929 . S
H235 C216 0.930 . S
H236 C218 0.932 . S
H237 C219 0.929 . S
H238 C220 0.928 . S
H239 C222 0.932 . S
C240 C241 1.264 . S
C240 C245 1.479 . S
C240 C250 1.465 . S
C241 C240 1.264 . S
C241 C243 1.339 . S
C241 H268 0.931 . S
C242 C243 1.395 . S
C242 C244 1.320 . S
C243 C241 1.339 . S
C243 C242 1.395 . S
C243 H269 0.929 . S
C244 C242 1.320 . S
C244 C245 1.405 . S
C244 H270 0.930 . S
C245 C240 1.479 . S
C245 C244 1.405 . S
C245 H271 0.931 . S
U246 O247 2.454 . S
U246 O248 2.458 . S
U246 C249 2.984 . S
U246 C250 2.847 . S
U246 C263 2.882 . S
U246 O264 2.441 . S
U246 O265 2.420 . S
U246 O266 2.455 . S
U246 O267 2.449 . S
O247 U246 2.454 . S
O247 C249 1.353 . S
O248 U246 2.458 . S
O248 C249 1.286 . S
C249 U246 2.984 . S
C249 O247 1.353 . S
C249 O248 1.286 . S
C249 C251 1.363 . S
C250 C240 1.465 . S
C250 U246 2.847 . S
C250 O264 1.249 . S
C250 O265 1.202 . S
C251 C249 1.363 . S
C251 C253 1.408 . S
C251 C256 1.342 . S
C252 C253 1.310 . S
C252 C255 1.461 . S
C252 H272 0.932 . S
C253 C251 1.408 . S
C253 C252 1.310 . S
C253 H273 0.930 . S
C254 C255 1.474 . S
C254 C256 1.285 . S
C254 H274 0.929 . S
C255 C252 1.461 . S
C255 C254 1.474 . S
C256 C251 1.342 . S
C256 C254 1.285 . S
C256 H275 0.930 . S
C257 C260 1.481 . S
C257 C262 1.247 . S
C257 C263 1.428 . S
C258 C261 1.260 . S
C258 C262 1.448 1_554 S
C258 H276 0.932 . S
C259 C260 1.339 1_554 S
C259 C261 1.479 . S
C259 H277 0.929 . S
C260 C257 1.481 . S
C260 C259 1.339 1_556 S
C260 H278 0.922 . S
C261 C258 1.260 . S
C261 C259 1.479 . S
C262 C257 1.247 . S
C262 C258 1.448 1_556 S
C262 H279 0.960 . S
C263 U246 2.882 . S
C263 C257 1.428 . S
C263 O266 1.301 . S
C263 O267 1.282 . S
O264 U246 2.441 . S
O264 C250 1.249 . S
O265 U246 2.420 . S
O265 C250 1.202 . S
O266 U246 2.455 . S
O266 C263 1.301 . S
O267 U246 2.449 . S
O267 C263 1.282 . S
H268 C241 0.931 . S
H269 C243 0.929 . S
H270 C244 0.930 . S
H271 C245 0.931 . S
H272 C252 0.932 . S
H273 C253 0.930 . S
H274 C254 0.929 . S
H275 C256 0.930 . S
H276 C258 0.932 . S
H277 C259 0.929 . S
H278 C260 0.922 . S
H279 C262 0.960 . S
C280 C281 1.264 . S
C280 C285 1.479 . S
C280 C290 1.465 . S
C281 C280 1.264 . S
C281 C283 1.339 . S
C281 H308 0.931 . S
C282 C283 1.395 . S
C282 C284 1.320 . S
C283 C281 1.339 . S
C283 C282 1.395 . S
C283 H309 0.929 . S
C284 C282 1.320 . S
C284 C285 1.405 . S
C284 H310 0.930 . S
C285 C280 1.479 . S
C285 C284 1.405 . S
C285 H311 0.931 . S
U286 O287 2.477 . S
U286 O288 2.511 . S
U286 C289 3.027 . S
U286 C290 2.797 1_455 S
U286 C303 2.894 . S
U286 O304 2.404 1_455 S
U286 O305 2.366 1_455 S
U286 O306 2.488 . S
U286 O307 2.435 1_455 S
O287 U286 2.477 . S
O287 C289 1.353 . S
O288 U286 2.511 . S
O288 C289 1.286 . S
C289 U286 3.027 . S
C289 O287 1.353 . S
C289 O288 1.286 . S
C289 C291 1.363 . S
C290 C280 1.465 . S
C290 U286 2.797 1_655 S
C290 O304 1.249 . S
C290 O305 1.202 . S
C291 C289 1.363 . S
C291 C293 1.408 . S
C291 C296 1.342 . S
C292 C293 1.310 . S
C292 C295 1.461 . S
C292 H312 0.932 . S
C293 C291 1.408 . S
C293 C292 1.310 . S
C293 H313 0.930 . S
C294 C295 1.474 . S
C294 C296 1.285 . S
C294 H314 0.929 . S
C295 C292 1.461 . S
C295 C294 1.474 . S
C296 C291 1.342 . S
C296 C294 1.285 . S
C296 H315 0.930 . S
C297 C300 1.424 1_455 S
C297 C302 1.245 . S
C297 C303 1.428 . S
C298 C301 1.260 . S
C298 C302 1.477 . S
C298 H316 0.932 . S
C299 C300 1.384 . S
C299 C301 1.479 1_655 S
C299 H317 0.929 . S
C300 C297 1.424 1_655 S
C300 C299 1.384 . S
C300 H318 0.928 . S
C301 C298 1.260 . S
C301 C299 1.479 1_455 S
C302 C297 1.245 . S
C302 C298 1.477 . S
C302 H319 0.932 . S
C303 U286 2.894 . S
C303 C297 1.428 . S
C303 O306 1.301 . S
C303 O307 1.282 1_455 S
O304 U286 2.404 1_655 S
O304 C290 1.249 . S
O305 U286 2.366 1_655 S
O305 C290 1.202 . S
O306 U286 2.488 . S
O306 C303 1.301 . S
O307 U286 2.435 1_655 S
O307 C303 1.282 1_655 S
H308 C281 0.931 . S
H309 C283 0.929 . S
H310 C284 0.930 . S
H311 C285 0.931 . S
H312 C292 0.932 . S
H313 C293 0.930 . S
H314 C294 0.929 . S
H315 C296 0.930 . S
H316 C298 0.932 . S
H317 C299 0.929 . S
H318 C300 0.928 . S
H319 C302 0.932 . S
C320 C321 1.264 . S
C320 C325 1.479 . S
C320 C330 1.465 . S
C321 C320 1.264 . S
C321 C323 1.339 . S
C321 H348 0.931 . S
C322 C323 1.395 . S
C322 C324 1.320 . S
C323 C321 1.339 . S
C323 C322 1.395 . S
C323 H349 0.929 . S
C324 C322 1.320 . S
C324 C325 1.405 . S
C324 H350 0.930 . S
C325 C320 1.479 . S
C325 C324 1.405 . S
C325 H351 0.931 . S
U326 O327 2.454 . S
U326 O328 2.458 . S
U326 C329 2.984 . S
U326 C330 2.847 . S
U326 C343 2.882 . S
U326 O344 2.441 . S
U326 O345 2.420 . S
U326 O346 2.455 . S
U326 O347 2.449 . S
O327 U326 2.454 . S
O327 C329 1.353 . S
O328 U326 2.458 . S
O328 C329 1.286 . S
C329 U326 2.984 . S
C329 O327 1.353 . S
C329 O328 1.286 . S
C329 C331 1.363 . S
C330 C320 1.465 . S
C330 U326 2.847 . S
C330 O344 1.249 . S
C330 O345 1.202 . S
C331 C329 1.363 . S
C331 C333 1.408 . S
C331 C336 1.342 . S
C332 C333 1.310 . S
C332 C335 1.461 . S
C332 H352 0.932 . S
C333 C331 1.408 . S
C333 C332 1.310 . S
C333 H353 0.930 . S
C334 C335 1.474 . S
C334 C336 1.285 . S
C334 H354 0.929 . S
C335 C332 1.461 . S
C335 C334 1.474 . S
C336 C331 1.342 . S
C336 C334 1.285 . S
C336 H355 0.930 . S
C337 C340 1.424 . S
C337 C342 1.245 . S
C337 C343 1.428 . S
C338 C341 1.255 1_545 S
C338 C342 1.477 . S
C338 H356 0.932 . S
C339 C340 1.384 . S
C339 C341 1.468 1_545 S
C339 H357 0.929 . S
C340 C337 1.424 . S
C340 C339 1.384 . S
C340 H358 0.928 . S
C341 C338 1.255 1_565 S
C341 C339 1.468 1_565 S
C342 C337 1.245 . S
C342 C338 1.477 . S
C342 H359 0.932 . S
C343 U326 2.882 . S
C343 C337 1.428 . S
C343 O346 1.301 . S
C343 O347 1.282 . S
O344 U326 2.441 . S
O344 C330 1.249 . S
O345 U326 2.420 . S
O345 C330 1.202 . S
O346 U326 2.455 . S
O346 C343 1.301 . S
O347 U326 2.449 . S
O347 C343 1.282 . S
H348 C321 0.931 . S
H349 C323 0.929 . S
H350 C324 0.930 . S
H351 C325 0.931 . S
H352 C332 0.932 . S
H353 C333 0.930 . S
H354 C334 0.929 . S
H355 C336 0.930 . S
H356 C338 0.932 . S
H357 C339 0.929 . S
H358 C340 0.928 . S
H359 C342 0.932 . S
C360 C361 1.264 . S
C360 C365 1.479 . S
C360 C370 1.465 . S
C361 C360 1.264 . S
C361 C363 1.339 . S
C361 H388 0.931 . S
C362 C363 1.395 . S
C362 C364 1.320 . S
C363 C361 1.339 . S
C363 C362 1.395 . S
C363 H389 0.929 . S
C364 C362 1.320 . S
C364 C365 1.405 . S
C364 H390 0.930 . S
C365 C360 1.479 . S
C365 C364 1.405 . S
C365 H391 0.931 . S
U366 O367 2.454 . S
U366 O368 2.458 . S
U366 C369 2.984 . S
U366 C370 2.847 . S
U366 C383 2.882 . S
U366 O384 2.441 . S
U366 O385 2.420 . S
U366 O386 2.455 . S
U366 O387 2.449 . S
O367 U366 2.454 . S
O367 C369 1.353 . S
O368 U366 2.458 . S
O368 C369 1.286 . S
C369 U366 2.984 . S
C369 O367 1.353 . S
C369 O368 1.286 . S
C369 C371 1.363 . S
C370 C360 1.465 . S
C370 U366 2.847 . S
C370 O384 1.249 . S
C370 O385 1.202 . S
C371 C369 1.363 . S
C371 C373 1.408 . S
C371 C376 1.342 . S
C372 C373 1.310 . S
C372 C375 1.461 . S
C372 H392 0.932 . S
C373 C371 1.408 . S
C373 C372 1.310 . S
C373 H393 0.930 . S
C374 C375 1.474 . S
C374 C376 1.285 . S
C374 H394 0.929 . S
C375 C372 1.461 . S
C375 C374 1.474 . S
C376 C371 1.342 . S
C376 C374 1.285 . S
C376 H395 0.930 . S
C377 C380 1.424 . S
C377 C382 1.245 . S
C377 C383 1.428 . S
C378 C381 1.260 . S
C378 C382 1.477 . S
C378 H396 0.932 . S
C379 C380 1.384 . S
C379 C381 1.479 . S
C379 H397 0.929 . S
C380 C377 1.424 . S
C380 C379 1.384 . S
C380 H398 0.928 . S
C381 C378 1.260 . S
C381 C379 1.479 . S
C382 C377 1.245 . S
C382 C378 1.477 . S
C382 H399 0.932 . S
C383 U366 2.882 . S
C383 C377 1.428 . S
C383 O386 1.301 . S
C383 O387 1.282 . S
O384 U366 2.441 . S
O384 C370 1.249 . S
O385 U366 2.420 . S
O385 C370 1.202 . S
O386 U366 2.455 . S
O386 C383 1.301 . S
O387 U366 2.449 . S
O387 C383 1.282 . S
H388 C361 0.931 . S
H389 C363 0.929 . S
H390 C364 0.930 . S
H391 C365 0.931 . S
H392 C372 0.932 . S
H393 C373 0.930 . S
H394 C374 0.929 . S
H395 C376 0.930 . S
H396 C378 0.932 . S
H397 C379 0.929 . S
H398 C380 0.928 . S
H399 C382 0.932 . S
C400 C401 1.264 . S
C400 C405 1.479 . S
C400 C410 1.465 . S
C401 C400 1.264 . S
C401 C403 1.339 . S
C401 H428 0.931 . S
C402 C403 1.395 . S
C402 C404 1.320 . S
C403 C401 1.339 . S
C403 C402 1.395 . S
C403 H429 0.929 . S
C404 C402 1.320 . S
C404 C405 1.405 . S
C404 H430 0.930 . S
C405 C400 1.479 . S
C405 C404 1.405 . S
C405 H431 0.931 . S
U406 O407 2.454 . S
U406 O408 2.458 . S
U406 C409 2.984 . S
U406 C410 2.847 . S
U406 C423 2.882 . S
U406 O424 2.441 . S
U406 O425 2.420 . S
U406 O426 2.455 . S
U406 O427 2.449 . S
O407 U406 2.454 . S
O407 C409 1.353 . S
O408 U406 2.458 . S
O408 C409 1.286 . S
C409 U406 2.984 . S
C409 O407 1.353 . S
C409 O408 1.286 . S
C409 C411 1.363 . S
C410 C400 1.465 . S
C410 U406 2.847 . S
C410 O424 1.249 . S
C410 O425 1.202 . S
C411 C409 1.363 . S
C411 C413 1.408 . S
C411 C416 1.342 . S
C412 C413 1.310 . S
C412 C415 1.461 . S
C412 H432 0.932 . S
C413 C411 1.408 . S
C413 C412 1.310 . S
C413 H433 0.930 . S
C414 C415 1.474 . S
C414 C416 1.285 . S
C414 H434 0.929 . S
C415 C412 1.461 . S
C415 C414 1.474 . S
C416 C411 1.342 . S
C416 C414 1.285 . S
C416 H435 0.930 . S
C417 C420 1.424 . S
C417 C422 1.245 . S
C417 C423 1.428 . S
C418 C421 1.260 . S
C418 C422 1.477 . S
C418 H436 0.932 . S
C419 C420 1.384 . S
C419 C421 1.479 . S
C419 H437 0.929 . S
C420 C417 1.424 . S
C420 C419 1.384 . S
C420 H438 0.928 . S
C421 C418 1.260 . S
C421 C419 1.479 . S
C422 C417 1.245 . S
C422 C418 1.477 . S
C422 H439 0.932 . S
C423 U406 2.882 . S
C423 C417 1.428 . S
C423 O426 1.301 . S
C423 O427 1.282 . S
O424 U406 2.441 . S
O424 C410 1.249 . S
O425 U406 2.420 . S
O425 C410 1.202 . S
O426 U406 2.455 . S
O426 C423 1.301 . S
O427 U406 2.449 . S
O427 C423 1.282 . S
H428 C401 0.931 . S
H429 C403 0.929 . S
H430 C404 0.930 . S
H431 C405 0.931 . S
H432 C412 0.932 . S
H433 C413 0.930 . S
H434 C414 0.929 . S
H435 C416 0.930 . S
H436 C418 0.932 . S
H437 C419 0.929 . S
H438 C420 0.928 . S
H439 C422 0.932 . S
C440 C441 1.264 . S
C440 C445 1.479 . S
C440 C450 1.465 . S
C441 C440 1.264 . S
C441 C443 1.339 . S
C441 H468 0.931 . S
C442 C443 1.395 . S
C442 C444 1.320 . S
C443 C441 1.339 . S
C443 C442 1.395 . S
C443 H469 0.929 . S
C444 C442 1.320 . S
C444 C445 1.405 . S
C444 H470 0.930 . S
C445 C440 1.479 . S
C445 C444 1.405 . S
C445 H471 0.931 . S
U446 O447 2.488 . S
U446 O448 2.533 . S
U446 C449 3.045 . S
U446 C450 2.777 1_554 S
U446 C463 2.897 . S
U446 O464 2.390 1_554 S
U446 O465 2.344 1_554 S
U446 O466 2.500 . S
U446 O467 2.429 1_554 S
O447 U446 2.488 . S
O447 C449 1.353 . S
O448 U446 2.533 . S
O448 C449 1.286 . S
C449 U446 3.045 . S
C449 O447 1.353 . S
C449 O448 1.286 . S
C449 C451 1.363 . S
C450 C440 1.465 . S
C450 U446 2.777 1_556 S
C450 O464 1.249 . S
C450 O465 1.202 . S
C451 C449 1.363 . S
C451 C453 1.408 . S
C451 C456 1.342 . S
C452 C453 1.310 . S
C452 C455 1.461 . S
C452 H472 0.932 . S
C453 C451 1.408 . S
C453 C452 1.310 . S
C453 H473 0.930 . S
C454 C455 1.474 . S
C454 C456 1.285 . S
C454 H474 0.929 . S
C455 C452 1.461 . S
C455 C454 1.474 . S
C456 C451 1.342 . S
C456 C454 1.285 . S
C456 H475 0.930 . S
C457 C460 1.424 1_554 S
C457 C462 1.245 . S
C457 C463 1.428 . S
C458 C461 1.260 . S
C458 C462 1.477 . S
C458 H476 0.932 . S
C459 C460 1.384 . S
C459 C461 1.479 1_556 S
C459 H477 0.929 . S
C460 C457 1.424 1_556 S
C460 C459 1.384 . S
C460 H478 0.928 . S
C461 C458 1.260 . S
C461 C459 1.479 1_554 S
C462 C457 1.245 . S
C462 C458 1.477 . S
C462 H479 0.932 . S
C463 U446 2.897 . S
C463 C457 1.428 . S
C463 O466 1.301 . S
C463 O467 1.282 1_554 S
O464 U446 2.390 1_556 S
O464 C450 1.249 . S
O465 U446 2.344 1_556 S
O465 C450 1.202 . S
O466 U446 2.500 . S
O466 C463 1.301 . S
O467 U446 2.429 1_556 S
O467 C463 1.282 1_556 S
H468 C441 0.931 . S
H469 C443 0.929 . S
H470 C444 0.930 . S
H471 C445 0.931 . S
H472 C452 0.932 . S
H473 C453 0.930 . S
H474 C454 0.929 . S
H475 C456 0.930 . S
H476 C458 0.932 . S
H477 C459 0.929 . S
H478 C460 0.928 . S
H479 C462 0.932 . S
C480 C481 1.264 . S
C480 C485 1.479 . S
C480 C490 1.465 . S
C481 C480 1.264 . S
C481 C483 1.339 . S
C481 H508 0.931 . S
C482 C483 1.395 . S
C482 C484 1.320 . S
C483 C481 1.339 . S
C483 C482 1.395 . S
C483 H509 0.929 . S
C484 C482 1.320 . S
C484 C485 1.405 . S
C484 H510 0.930 . S
C485 C480 1.479 . S
C485 C484 1.405 . S
C485 H511 0.931 . S
U486 O487 2.454 . S
U486 O488 2.458 . S
U486 C489 2.984 . S
U486 C490 2.847 . S
U486 C503 2.882 . S
U486 O504 2.441 . S
U486 O505 2.420 . S
U486 O506 2.455 . S
U486 O507 2.449 . S
O487 U486 2.454 . S
O487 C489 1.353 . S
O488 U486 2.458 . S
O488 C489 1.286 . S
C489 U486 2.984 . S
C489 O487 1.353 . S
C489 O488 1.286 . S
C489 C491 1.363 . S
C490 C480 1.465 . S
C490 U486 2.847 . S
C490 O504 1.249 . S
C490 O505 1.202 . S
C491 C489 1.363 . S
C491 C493 1.408 . S
C491 C496 1.342 . S
C492 C493 1.310 . S
C492 C495 1.461 . S
C492 H512 0.932 . S
C493 C491 1.408 . S
C493 C492 1.310 . S
C493 H513 0.930 . S
C494 C495 1.474 . S
C494 C496 1.285 . S
C494 H514 0.929 . S
C495 C492 1.461 . S
C495 C494 1.474 . S
C496 C491 1.342 . S
C496 C494 1.285 . S
C496 H515 0.930 . S
C497 C500 1.424 . S
C497 C502 1.245 . S
C497 C503 1.428 . S
C498 C501 1.260 1_554 S
C498 C502 1.477 . S
C498 H516 0.932 . S
C499 C500 1.352 1_556 S
C499 C501 1.507 . S
C499 H517 0.934 . S
C500 C497 1.424 . S
C500 C499 1.352 1_554 S
C500 H518 0.928 . S
C501 C498 1.260 1_556 S
C501 C499 1.507 . S
C502 C497 1.245 . S
C502 C498 1.477 . S
C502 H519 0.932 . S
C503 U486 2.882 . S
C503 C497 1.428 . S
C503 O506 1.301 . S
C503 O507 1.282 . S
O504 U486 2.441 . S
O504 C490 1.249 . S
O505 U486 2.420 . S
O505 C490 1.202 . S
O506 U486 2.455 . S
O506 C503 1.301 . S
O507 U486 2.449 . S
O507 C503 1.282 . S
H508 C481 0.931 . S
H509 C483 0.929 . S
H510 C484 0.930 . S
H511 C485 0.931 . S
H512 C492 0.932 . S
H513 C493 0.930 . S
H514 C494 0.929 . S
H515 C496 0.930 . S
H516 C498 0.932 . S
H517 C499 0.934 . S
H518 C500 0.928 . S
H519 C502 0.932 . S
C520 C521 1.264 . S
C520 C525 1.479 . S
C520 C530 1.465 . S
C521 C520 1.264 . S
C521 C523 1.339 . S
C521 H548 0.931 . S
C522 C523 1.395 . S
C522 C524 1.320 . S
C523 C521 1.339 . S
C523 C522 1.395 . S
C523 H549 0.929 . S
C524 C522 1.320 . S
C524 C525 1.405 . S
C524 H550 0.930 . S
C525 C520 1.479 . S
C525 C524 1.405 . S
C525 H551 0.931 . S
U526 O527 2.454 . S
U526 O528 2.458 . S
U526 C529 2.984 . S
U526 C530 2.847 . S
U526 C543 2.882 . S
U526 O544 2.441 . S
U526 O545 2.420 . S
U526 O546 2.455 . S
U526 O547 2.449 . S
O527 U526 2.454 . S
O527 C529 1.353 . S
O528 U526 2.458 . S
O528 C529 1.286 . S
C529 U526 2.984 . S
C529 O527 1.353 . S
C529 O528 1.286 . S
C529 C531 1.363 . S
C530 C520 1.465 . S
C530 U526 2.847 . S
C530 O544 1.249 . S
C530 O545 1.202 . S
C531 C529 1.363 . S
C531 C533 1.408 . S
C531 C536 1.342 . S
C532 C533 1.310 . S
C532 C535 1.461 . S
C532 H552 0.932 . S
C533 C531 1.408 . S
C533 C532 1.310 . S
C533 H553 0.930 . S
C534 C535 1.474 . S
C534 C536 1.285 . S
C534 H554 0.929 . S
C535 C532 1.461 . S
C535 C534 1.474 . S
C536 C531 1.342 . S
C536 C534 1.285 . S
C536 H555 0.930 . S
C537 C540 1.424 . S
C537 C542 1.245 . S
C537 C543 1.428 . S
C538 C541 1.260 . S
C538 C542 1.477 . S
C538 H556 0.932 . S
C539 C540 1.384 . S
C539 C541 1.479 . S
C539 H557 0.929 . S
C540 C537 1.424 . S
C540 C539 1.384 . S
C540 H558 0.928 . S
C541 C538 1.260 . S
C541 C539 1.479 . S
C542 C537 1.245 . S
C542 C538 1.477 . S
C542 H559 0.932 . S
C543 U526 2.882 . S
C543 C537 1.428 . S
C543 O546 1.301 . S
C543 O547 1.282 . S
O544 U526 2.441 . S
O544 C530 1.249 . S
O545 U526 2.420 . S
O545 C530 1.202 . S
O546 U526 2.455 . S
O546 C543 1.301 . S
O547 U526 2.449 . S
O547 C543 1.282 . S
H548 C521 0.931 . S
H549 C523 0.929 . S
H550 C524 0.930 . S
H551 C525 0.931 . S
H552 C532 0.932 . S
H553 C533 0.930 . S
H554 C534 0.929 . S
H555 C536 0.930 . S
H556 C538 0.932 . S
H557 C539 0.929 . S
H558 C540 0.928 . S
H559 C542 0.932 . S
C560 C561 1.264 . S
C560 C565 1.479 . S
C560 C570 1.465 . S
C561 C560 1.264 . S
C561 C563 1.339 . S
C561 H588 0.931 . S
C562 C563 1.395 . S
C562 C564 1.320 . S
C563 C561 1.339 . S
C563 C562 1.395 . S
C563 H589 0.929 . S
C564 C562 1.320 . S
C564 C565 1.405 . S
C564 H590 0.930 . S
C565 C560 1.479 . S
C565 C564 1.405 . S
C565 H591 0.931 . S
U566 O567 2.454 . S
U566 O568 2.458 . S
U566 C569 2.984 . S
U566 C570 2.847 . S
U566 C583 2.882 . S
U566 O584 2.441 . S
U566 O585 2.420 . S
U566 O586 2.455 . S
U566 O587 2.449 . S
O567 U566 2.454 . S
O567 C569 1.353 . S
O568 U566 2.458 . S
O568 C569 1.286 . S
C569 U566 2.984 . S
C569 O567 1.353 . S
C569 O568 1.286 . S
C569 C571 1.363 . S
C570 C560 1.465 . S
C570 U566 2.847 . S
C570 O584 1.249 . S
C570 O585 1.202 . S
C571 C569 1.363 . S
C571 C573 1.408 . S
C571 C576 1.342 . S
C572 C573 1.310 . S
C572 C575 1.461 . S
C572 H592 0.932 . S
C573 C571 1.408 . S
C573 C572 1.310 . S
C573 H593 0.930 . S
C574 C575 1.474 . S
C574 C576 1.285 . S
C574 H594 0.929 . S
C575 C572 1.461 . S
C575 C574 1.474 . S
C576 C571 1.342 . S
C576 C574 1.285 . S
C576 H595 0.930 . S
C577 C580 1.424 . S
C577 C582 1.245 . S
C577 C583 1.428 . S
C578 C581 1.260 . S
C578 C582 1.477 . S
C578 H596 0.932 . S
C579 C580 1.384 . S
C579 C581 1.479 . S
C579 H597 0.929 . S
C580 C577 1.424 . S
C580 C579 1.384 . S
C580 H598 0.928 . S
C581 C578 1.260 . S
C581 C579 1.479 . S
C582 C577 1.245 . S
C582 C578 1.477 . S
C582 H599 0.932 . S
C583 U566 2.882 . S
C583 C577 1.428 . S
C583 O586 1.301 . S
C583 O587 1.282 . S
O584 U566 2.441 . S
O584 C570 1.249 . S
O585 U566 2.420 . S
O585 C570 1.202 . S
O586 U566 2.455 . S
O586 C583 1.301 . S
O587 U566 2.449 . S
O587 C583 1.282 . S
H588 C561 0.931 . S
H589 C563 0.929 . S
H590 C564 0.930 . S
H591 C565 0.931 . S
H592 C572 0.932 . S
H593 C573 0.930 . S
H594 C574 0.929 . S
H595 C576 0.930 . S
H596 C578 0.932 . S
H597 C579 0.929 . S
H598 C580 0.928 . S
H599 C582 0.932 . S
C600 C601 1.264 . S
C600 C605 1.479 . S
C600 C610 1.465 . S
C601 C600 1.264 . S
C601 C603 1.339 . S
C601 H628 0.931 . S
C602 C603 1.395 . S
C602 C604 1.320 . S
C603 C601 1.339 . S
C603 C602 1.395 . S
C603 H629 0.929 . S
C604 C602 1.320 . S
C604 C605 1.405 . S
C604 H630 0.930 . S
C605 C600 1.479 . S
C605 C604 1.405 . S
C605 H631 0.931 . S
U606 O607 2.454 . S
U606 O608 2.458 . S
U606 C609 2.984 . S
U606 C610 2.847 . S
U606 C623 2.882 1_565 S
U606 O624 2.441 . S
U606 O625 2.420 . S
U606 O626 2.455 1_565 S
U606 O627 2.449 . S
O607 U606 2.454 . S
O607 C609 1.353 . S
O608 U606 2.458 . S
O608 C609 1.286 . S
C609 U606 2.984 . S
C609 O607 1.353 . S
C609 O608 1.286 . S
C609 C611 1.363 . S
C610 C600 1.465 . S
C610 U606 2.847 . S
C610 O624 1.249 . S
C610 O625 1.202 . S
C611 C609 1.363 . S
C611 C613 1.408 . S
C611 C616 1.342 . S
C612 C613 1.310 . S
C612 C615 1.461 . S
C612 H632 0.932 . S
C613 C611 1.408 . S
C613 C612 1.310 . S
C613 H633 0.930 . S
C614 C615 1.474 . S
C614 C616 1.285 . S
C614 H634 0.929 . S
C615 C612 1.461 . S
C615 C614 1.474 . S
C616 C611 1.342 . S
C616 C614 1.285 . S
C616 H635 0.937 . S
C617 C620 1.424 . S
C617 C622 1.245 . S
C617 C623 1.428 . S
C618 C621 1.260 . S
C618 C622 1.477 . S
C618 H636 0.932 . S
C619 C620 1.384 . S
C619 C621 1.479 . S
C619 H637 0.929 . S
C620 C617 1.424 . S
C620 C619 1.384 . S
C620 H638 0.928 . S
C621 C618 1.260 . S
C621 C619 1.479 . S
C622 C617 1.245 . S
C622 C618 1.477 . S
C622 H639 0.932 . S
C623 U606 2.882 1_545 S
C623 C617 1.428 . S
C623 O626 1.301 . S
C623 O627 1.282 1_545 S
O624 U606 2.441 . S
O624 C610 1.249 . S
O625 U606 2.420 . S
O625 C610 1.202 . S
O626 U606 2.455 1_545 S
O626 C623 1.301 . S
O627 U606 2.449 . S
O627 C623 1.282 1_565 S
H628 C601 0.931 . S
H629 C603 0.929 . S
H630 C604 0.930 . S
H631 C605 0.931 . S
H632 C612 0.932 . S
H633 C613 0.930 . S
H634 C614 0.929 . S
H635 C616 0.937 . S
H636 C618 0.932 . S
H637 C619 0.929 . S
H638 C620 0.928 . S
H639 C622 0.932 . S
C640 C641 1.264 . S
C640 C645 1.479 . S
C640 C650 1.465 . S
C641 C640 1.264 . S
C641 C643 1.339 . S
C641 H668 0.931 . S
C642 C643 1.395 . S
C642 C644 1.320 . S
C643 C641 1.339 . S
C643 C642 1.395 . S
C643 H669 0.929 . S
C644 C642 1.320 . S
C644 C645 1.405 . S
C644 H670 0.930 . S
C645 C640 1.479 . S
C645 C644 1.405 . S
C645 H671 0.931 . S
U646 O647 2.487 . S
U646 O648 2.530 . S
U646 C649 3.043 . S
U646 C650 2.779 1_545 S
U646 C663 2.897 . S
U646 O664 2.392 1_545 S
U646 O665 2.346 1_545 S
U646 O666 2.499 . S
U646 O667 2.429 1_545 S
O647 U646 2.487 . S
O647 C649 1.353 . S
O648 U646 2.530 . S
O648 C649 1.286 . S
C649 U646 3.043 . S
C649 O647 1.353 . S
C649 O648 1.286 . S
C649 C651 1.363 . S
C650 C640 1.465 . S
C650 U646 2.779 1_565 S
C650 O664 1.249 . S
C650 O665 1.202 . S
C651 C649 1.363 . S
C651 C653 1.408 . S
C651 C656 1.342 . S
C652 C653 1.310 . S
C652 C655 1.461 . S
C652 H672 0.932 . S
C653 C651 1.408 . S
C653 C652 1.310 . S
C653 H673 0.930 . S
C654 C655 1.474 . S
C654 C656 1.285 . S
C654 H674 0.929 . S
C655 C652 1.461 . S
C655 C654 1.474 . S
C656 C651 1.342 . S
C656 C654 1.285 . S
C656 H675 0.930 . S
C657 C660 1.424 1_545 S
C657 C662 1.245 . S
C657 C663 1.428 . S
C658 C661 1.260 . S
C658 C662 1.477 . S
C658 H676 0.932 . S
C659 C660 1.384 . S
C659 C661 1.479 1_565 S
C659 H677 0.929 . S
C660 C657 1.424 1_565 S
C660 C659 1.384 . S
C660 H678 0.928 . S
C661 C658 1.260 . S
C661 C659 1.479 1_545 S
C662 C657 1.245 . S
C662 C658 1.477 . S
C662 H679 0.932 . S
C663 U646 2.897 . S
C663 C657 1.428 . S
C663 O666 1.301 . S
C663 O667 1.282 1_545 S
O664 U646 2.392 1_565 S
O664 C650 1.249 . S
O665 U646 2.346 1_565 S
O665 C650 1.202 . S
O666 U646 2.499 . S
O666 C663 1.301 . S
O667 U646 2.429 1_565 S
O667 C663 1.282 1_565 S
H668 C641 0.931 . S
H669 C643 0.929 . S
H670 C644 0.930 . S
H671 C645 0.931 . S
H672 C652 0.932 . S
H673 C653 0.930 . S
H674 C654 0.929 . S
H675 C656 0.930 . S
H676 C658 0.932 . S
H677 C659 0.929 . S
H678 C660 0.928 . S
H679 C662 0.932 . S
C680 C681 1.264 . S
C680 C685 1.479 . S
C680 C690 1.465 . S
C681 C680 1.264 . S
C681 C683 1.339 . S
C681 H708 0.931 . S
C682 C683 1.395 . S
C682 C684 1.320 . S
C683 C681 1.339 . S
C683 C682 1.395 . S
C683 H709 0.929 . S
C684 C682 1.320 . S
C684 C685 1.405 . S
C684 H710 0.930 . S
C685 C680 1.479 . S
C685 C684 1.405 . S
C685 H711 0.931 . S
U686 O687 2.454 . S
U686 O688 2.458 . S
U686 C689 2.984 . S
U686 C690 2.847 . S
U686 C703 2.882 1_565 S
U686 O704 2.441 . S
U686 O705 2.420 . S
U686 O706 2.455 . S
U686 O707 2.466 . S
O687 U686 2.454 . S
O687 C689 1.353 . S
O688 U686 2.458 . S
O688 C689 1.286 . S
C689 U686 2.984 . S
C689 O687 1.353 . S
C689 O688 1.286 . S
C689 C691 1.363 . S
C690 C680 1.465 . S
C690 U686 2.847 . S
C690 O704 1.249 . S
C690 O705 1.202 . S
C691 C689 1.363 . S
C691 C693 1.408 . S
C691 C696 1.342 . S
C692 C693 1.310 . S
C692 C695 1.461 . S
C692 H712 0.932 . S
C693 C691 1.408 . S
C693 C692 1.310 . S
C693 H713 0.930 . S
C694 C695 1.474 . S
C694 C696 1.285 . S
C694 H714 0.929 . S
C695 C692 1.461 . S
C695 C694 1.474 . S
C696 C691 1.342 . S
C696 C694 1.285 . S
C696 H715 0.930 . S
C697 C700 1.424 . S
C697 C702 1.245 . S
C697 C703 1.428 . S
C698 C701 1.260 . S
C698 C702 1.477 . S
C698 H716 0.932 . S
C699 C700 1.384 . S
C699 C701 1.479 . S
C699 H717 0.929 . S
C700 C697 1.424 . S
C700 C699 1.384 . S
C700 H718 0.928 . S
C701 C698 1.260 . S
C701 C699 1.479 . S
C702 C697 1.245 . S
C702 C698 1.477 . S
C702 H719 0.932 . S
C703 U686 2.882 1_545 S
C703 C697 1.428 . S
C703 O706 1.301 1_545 S
C703 O707 1.262 1_545 S
O704 U686 2.441 . S
O704 C690 1.249 . S
O705 U686 2.420 . S
O705 C690 1.202 . S
O706 U686 2.455 . S
O706 C703 1.301 1_565 S
O707 U686 2.466 . S
O707 C703 1.262 1_565 S
H708 C681 0.931 . S
H709 C683 0.929 . S
H710 C684 0.930 . S
H711 C685 0.931 . S
H712 C692 0.932 . S
H713 C693 0.930 . S
H714 C694 0.929 . S
H715 C696 0.930 . S
H716 C698 0.932 . S
H717 C699 0.929 . S
H718 C700 0.928 . S
H719 C702 0.932 . S
C720 C721 1.258 1_655 S
C720 C725 1.479 . S
C720 C730 1.465 . S
C721 C720 1.258 1_455 S
C721 C723 1.329 . S
C721 H748 0.949 . S
C722 C723 1.395 1_655 S
C722 C724 1.320 . S
C723 C721 1.329 . S
C723 C722 1.395 1_455 S
C723 H749 0.929 . S
C724 C722 1.320 . S
C724 C725 1.405 . S
C724 H750 0.930 . S
C725 C720 1.479 . S
C725 C724 1.405 . S
C725 H751 0.931 . S
U726 O727 2.454 . S
U726 O728 2.458 . S
U726 C729 2.984 . S
U726 C730 2.847 . S
U726 C743 2.882 1_655 S
U726 O744 2.441 . S
U726 O745 2.420 . S
U726 O746 2.455 1_655 S
U726 O747 2.449 1_655 S
O727 U726 2.454 . S
O727 C729 1.353 . S
O728 U726 2.458 . S
O728 C729 1.286 . S
C729 U726 2.984 . S
C729 O727 1.353 . S
C729 O728 1.286 . S
C729 C731 1.363 . S
C730 C720 1.465 . S
C730 U726 2.847 . S
C730 O744 1.249 . S
C730 O745 1.202 . S
C731 C729 1.363 . S
C731 C733 1.408 . S
C731 C736 1.342 . S
C732 C733 1.310 . S
C732 C735 1.461 . S
C732 H752 0.932 . S
C733 C731 1.408 . S
C733 C732 1.310 . S
C733 H753 0.930 . S
C734 C735 1.474 . S
C734 C736 1.285 . S
C734 H754 0.929 . S
C735 C732 1.461 . S
C735 C734 1.474 . S
C736 C731 1.342 . S
C736 C734 1.285 . S
C736 H755 0.930 . S
C737 C740 1.424 . S
C737 C742 1.245 . S
C737 C743 1.428 . S
C738 C741 1.260 . S
C738 C742 1.477 . S
C738 H756 0.932 . S
C739 C740 1.384 . S
C739 C741 1.479 . S
C739 H757 0.929 . S
C740 C737 1.424 . S
C740 C739 1.384 . S
C740 H758 0.928 . S
C741 C738 1.260 . S
C741 C739 1.479 . S
C742 C737 1.245 . S
C742 C738 1.477 . S
C742 H759 0.932 . S
C743 U726 2.882 1_455 S
C743 C737 1.428 . S
C743 O746 1.301 . S
C743 O747 1.282 . S
O744 U726 2.441 . S
O744 C730 1.249 . S
O745 U726 2.420 . S
O745 C730 1.202 . S
O746 U726 2.455 1_455 S
O746 C743 1.301 . S
O747 U726 2.449 1_455 S
O747 C743 1.282 . S
H748 C721 0.949 . S
H749 C723 0.929 . S
H750 C724 0.930 . S
H751 C725 0.931 . S
H752 C732 0.932 . S
H753 C733 0.930 . S
H754 C734 0.929 . S
H755 C736 0.930 . S
H756 C738 0.932 . S
H757 C739 0.929 . S
H758 C740 0.928 . S
H759 C742 0.932 . S
C760 C761 1.264 . S
C760 C765 1.479 . S
C760 C770 1.465 . S
C761 C760 1.264 . S
C761 C763 1.339 . S
C761 H788 0.931 . S
C762 C763 1.395 . S
C762 C764 1.320 . S
C763 C761 1.339 . S
C763 C762 1.395 . S
C763 H789 0.929 . S
C764 C762 1.320 . S
C764 C765 1.405 . S
C764 H790 0.930 . S
C765 C760 1.479 . S
C765 C764 1.405 . S
C765 H791 0.931 . S
U766 O767 2.454 . S
U766 O768 2.458 . S
U766 C769 2.984 . S
U766 C770 2.847 . S
U766 C783 2.882 1_655 S
U766 O784 2.441 . S
U766 O785 2.420 . S
U766 O786 2.457 1_655 S
U766 O787 2.449 . S
O767 U766 2.454 . S
O767 C769 1.353 . S
O768 U766 2.458 . S
O768 C769 1.286 . S
C769 U766 2.984 . S
C769 O767 1.353 . S
C769 O768 1.286 . S
C769 C771 1.363 . S
C770 C760 1.465 . S
C770 U766 2.847 . S
C770 O784 1.249 . S
C770 O785 1.202 . S
C771 C769 1.363 . S
C771 C773 1.408 . S
C771 C776 1.342 . S
C772 C773 1.310 . S
C772 C775 1.461 . S
C772 H792 0.932 . S
C773 C771 1.408 . S
C773 C772 1.310 . S
C773 H793 0.930 . S
C774 C775 1.474 . S
C774 C776 1.285 . S
C774 H794 0.929 . S
C775 C772 1.461 . S
C775 C774 1.474 . S
C776 C771 1.342 . S
C776 C774 1.285 . S
C776 H795 0.931 . S
C777 C780 1.424 . S
C777 C782 1.245 . S
C777 C783 1.428 . S
C778 C781 1.260 . S
C778 C782 1.477 . S
C778 H796 0.932 . S
C779 C780 1.384 . S
C779 C781 1.479 . S
C779 H797 0.929 . S
C780 C777 1.424 . S
C780 C779 1.384 . S
C780 H798 0.928 . S
C781 C778 1.260 . S
C781 C779 1.479 . S
C782 C777 1.245 . S
C782 C778 1.477 . S
C782 H799 0.932 . S
C783 U766 2.882 1_455 S
C783 C777 1.428 . S
C783 O786 1.307 . S
C783 O787 1.282 1_455 S
O784 U766 2.441 . S
O784 C770 1.249 . S
O785 U766 2.420 . S
O785 C770 1.202 . S
O786 U766 2.457 1_455 S
O786 C783 1.307 . S
O787 U766 2.449 . S
O787 C783 1.282 1_655 S
H788 C761 0.931 . S
H789 C763 0.929 . S
H790 C764 0.930 . S
H791 C765 0.931 . S
H792 C772 0.932 . S
H793 C773 0.930 . S
H794 C774 0.929 . S
H795 C776 0.931 . S
H796 C778 0.932 . S
H797 C779 0.929 . S
H798 C780 0.928 . S
H799 C782 0.932 . S
C800 C801 1.264 . S
C800 C805 1.479 . S
C800 C810 1.465 . S
C801 C800 1.264 . S
C801 C803 1.339 . S
C801 H828 0.931 . S
C802 C803 1.395 . S
C802 C804 1.320 . S
C803 C801 1.339 . S
C803 C802 1.395 . S
C803 H829 0.929 . S
C804 C802 1.320 . S
C804 C805 1.405 . S
C804 H830 0.930 . S
C805 C800 1.479 . S
C805 C804 1.405 . S
C805 H831 0.931 . S
U806 O807 2.454 . S
U806 O808 2.458 . S
U806 C809 2.984 . S
U806 C810 2.847 . S
U806 C823 2.882 . S
U806 O824 2.441 . S
U806 O825 2.420 . S
U806 O826 2.455 . S
U806 O827 2.449 . S
O807 U806 2.454 . S
O807 C809 1.353 . S
O808 U806 2.458 . S
O808 C809 1.286 . S
C809 U806 2.984 . S
C809 O807 1.353 . S
C809 O808 1.286 . S
C809 C811 1.363 1_554 S
C810 C800 1.465 . S
C810 U806 2.847 . S
C810 O824 1.249 . S
C810 O825 1.202 . S
C811 C809 1.363 1_556 S
C811 C813 1.408 . S
C811 C816 1.342 . S
C812 C813 1.310 . S
C812 C815 1.461 . S
C812 H832 0.932 . S
C813 C811 1.408 . S
C813 C812 1.310 . S
C813 H833 0.930 . S
C814 C815 1.474 . S
C814 C816 1.285 . S
C814 H834 0.929 . S
C815 C812 1.461 . S
C815 C814 1.474 . S
C816 C811 1.342 . S
C816 C814 1.285 . S
C816 H835 0.930 . S
C817 C820 1.424 . S
C817 C822 1.245 . S
C817 C823 1.428 . S
C818 C821 1.260 . S
C818 C822 1.477 . S
C818 H836 0.932 . S
C819 C820 1.384 . S
C819 C821 1.479 . S
C819 H837 0.929 . S
C820 C817 1.424 . S
C820 C819 1.384 . S
C820 H838 0.928 . S
C821 C818 1.260 . S
C821 C819 1.479 . S
C822 C817 1.245 . S
C822 C818 1.477 . S
C822 H839 0.932 . S
C823 U806 2.882 . S
C823 C817 1.428 . S
C823 O826 1.301 . S
C823 O827 1.282 . S
O824 U806 2.441 . S
O824 C810 1.249 . S
O825 U806 2.420 . S
O825 C810 1.202 . S
O826 U806 2.455 . S
O826 C823 1.301 . S
O827 U806 2.449 . S
O827 C823 1.282 . S
H828 C801 0.931 . S
H829 C803 0.929 . S
H830 C804 0.930 . S
H831 C805 0.931 . S
H832 C812 0.932 . S
H833 C813 0.930 . S
H834 C814 0.929 . S
H835 C816 0.930 . S
H836 C818 0.932 . S
H837 C819 0.929 . S
H838 C820 0.928 . S
H839 C822 0.932 . S
C840 C841 1.264 . S
C840 C845 1.479 . S
C840 C850 1.465 . S
C841 C840 1.264 . S
C841 C843 1.339 . S
C841 H868 0.931 . S
C842 C843 1.395 . S
C842 C844 1.320 . S
C843 C841 1.339 . S
C843 C842 1.395 . S
C843 H869 0.929 . S
C844 C842 1.320 . S
C844 C845 1.405 . S
C844 H870 0.930 . S
C845 C840 1.479 . S
C845 C844 1.405 . S
C845 H871 0.931 . S
U846 O847 2.454 . S
U846 O848 2.458 . S
U846 C849 2.984 . S
U846 C850 2.847 . S
U846 C863 2.860 1_655 S
U846 O864 2.441 . S
U846 O865 2.420 . S
U846 O866 2.455 . S
U846 O867 2.449 . S
O847 U846 2.454 . S
O847 C849 1.353 . S
O848 U846 2.458 . S
O848 C849 1.286 . S
C849 U846 2.984 . S
C849 O847 1.353 . S
C849 O848 1.286 . S
C849 C851 1.363 . S
C850 C840 1.465 . S
C850 U846 2.847 . S
C850 O864 1.249 . S
C850 O865 1.202 . S
C851 C849 1.363 . S
C851 C853 1.408 . S
C851 C856 1.342 . S
C852 C853 1.310 . S
C852 C855 1.461 . S
C852 H872 0.932 . S
C853 C851 1.408 . S
C853 C852 1.310 . S
C853 H873 0.930 . S
C854 C855 1.474 . S
C854 C856 1.285 . S
C854 H874 0.929 . S
C855 C852 1.461 . S
C855 C854 1.474 . S
C856 C851 1.342 . S
C856 C854 1.285 . S
C856 H875 0.930 . S
C857 C860 1.424 . S
C857 C862 1.245 . S
C857 C863 1.445 . S
C858 C861 1.260 . S
C858 C862 1.477 . S
C858 H876 0.932 . S
C859 C860 1.384 . S
C859 C861 1.479 . S
C859 H877 0.929 . S
C860 C857 1.424 . S
C860 C859 1.384 . S
C860 H878 0.928 . S
C861 C858 1.260 . S
C861 C859 1.479 . S
C862 C857 1.245 . S
C862 C858 1.477 . S
C862 H879 0.932 . S
C863 U846 2.860 1_455 S
C863 C857 1.445 . S
C863 O866 1.304 1_455 S
C863 O867 1.263 1_455 S
O864 U846 2.441 . S
O864 C850 1.249 . S
O865 U846 2.420 . S
O865 C850 1.202 . S
O866 U846 2.455 . S
O866 C863 1.304 1_655 S
O867 U846 2.449 . S
O867 C863 1.263 1_655 S
H868 C841 0.931 . S
H869 C843 0.929 . S
H870 C844 0.930 . S
H871 C845 0.931 . S
H872 C852 0.932 . S
H873 C853 0.930 . S
H874 C854 0.929 . S
H875 C856 0.930 . S
H876 C858 0.932 . S
H877 C859 0.929 . S
H878 C860 0.928 . S
H879 C862 0.932 . S
C880 C881 1.264 1_565 S
C880 C885 1.479 . S
C880 C890 1.465 . S
C881 C880 1.264 1_545 S
C881 C883 1.339 . S
C881 H908 0.931 . S
C882 C883 1.395 1_565 S
C882 C884 1.320 . S
C883 C881 1.339 . S
C883 C882 1.395 1_545 S
C883 H909 0.929 . S
C884 C882 1.320 . S
C884 C885 1.405 . S
C884 H910 0.930 . S
C885 C880 1.479 . S
C885 C884 1.405 . S
C885 H911 0.931 . S
U886 O887 2.454 . S
U886 O888 2.458 . S
U886 C889 2.984 . S
U886 C890 2.847 . S
U886 C903 2.882 1_565 S
U886 O904 2.441 . S
U886 O905 2.420 . S
U886 O906 2.455 1_565 S
U886 O907 2.449 1_565 S
O887 U886 2.454 . S
O887 C889 1.353 . S
O888 U886 2.458 . S
O888 C889 1.286 . S
C889 U886 2.984 . S
C889 O887 1.353 . S
C889 O888 1.286 . S
C889 C891 1.363 . S
C890 C880 1.465 . S
C890 U886 2.847 . S
C890 O904 1.249 . S
C890 O905 1.202 . S
C891 C889 1.363 . S
C891 C893 1.408 . S
C891 C896 1.342 . S
C892 C893 1.310 . S
C892 C895 1.461 . S
C892 H912 0.932 . S
C893 C891 1.408 . S
C893 C892 1.310 . S
C893 H913 0.930 . S
C894 C895 1.474 . S
C894 C896 1.285 . S
C894 H914 0.929 . S
C895 C892 1.461 . S
C895 C894 1.474 . S
C896 C891 1.342 . S
C896 C894 1.285 . S
C896 H915 0.930 . S
C897 C900 1.424 . S
C897 C902 1.245 . S
C897 C903 1.428 . S
C898 C901 1.260 . S
C898 C902 1.477 . S
C898 H916 0.932 . S
C899 C900 1.384 . S
C899 C901 1.479 . S
C899 H917 0.929 . S
C900 C897 1.424 . S
C900 C899 1.384 . S
C900 H918 0.928 . S
C901 C898 1.260 . S
C901 C899 1.479 . S
C902 C897 1.245 . S
C902 C898 1.477 . S
C902 H919 0.932 . S
C903 U886 2.882 1_545 S
C903 C897 1.428 . S
C903 O906 1.301 . S
C903 O907 1.282 . S
O904 U886 2.441 . S
O904 C890 1.249 . S
O905 U886 2.420 . S
O905 C890 1.202 . S
O906 U886 2.455 1_545 S
O906 C903 1.301 . S
O907 U886 2.449 1_545 S
O907 C903 1.282 . S
H908 C881 0.931 . S
H909 C883 0.929 . S
H910 C884 0.930 . S
H911 C885 0.931 . S
H912 C892 0.932 . S
H913 C893 0.930 . S
H914 C894 0.929 . S
H915 C896 0.930 . S
H916 C898 0.932 . S
H917 C899 0.929 . S
H918 C900 0.928 . S
H919 C902 0.932 . S
C920 C921 1.264 . S
C920 C925 1.479 . S
C920 C930 1.465 . S
C921 C920 1.264 . S
C921 C923 1.339 . S
C921 H948 0.931 . S
C922 C923 1.395 . S
C922 C924 1.320 . S
C923 C921 1.339 . S
C923 C922 1.395 . S
C923 H949 0.929 . S
C924 C922 1.320 . S
C924 C925 1.405 . S
C924 H950 0.930 . S
C925 C920 1.479 . S
C925 C924 1.405 . S
C925 H951 0.931 . S
U926 O927 2.454 . S
U926 O928 2.458 . S
U926 C929 2.984 . S
U926 C930 2.847 . S
U926 C943 2.882 . S
U926 O944 2.441 . S
U926 O945 2.420 . S
U926 O946 2.455 . S
U926 O947 2.449 . S
O927 U926 2.454 . S
O927 C929 1.353 . S
O928 U926 2.458 . S
O928 C929 1.286 . S
C929 U926 2.984 . S
C929 O927 1.353 . S
C929 O928 1.286 . S
C929 C931 1.310 1_545 S
C930 C920 1.465 . S
C930 U926 2.847 . S
C930 O944 1.249 . S
C930 O945 1.202 . S
C931 C929 1.310 1_565 S
C931 C933 1.412 . S
C931 C936 1.390 . S
C932 C933 1.310 . S
C932 C935 1.461 . S
C932 H952 0.932 . S
C933 C931 1.412 . S
C933 C932 1.310 . S
C933 H953 0.930 . S
C934 C935 1.474 . S
C934 C936 1.285 . S
C934 H954 0.929 . S
C935 C932 1.461 . S
C935 C934 1.474 . S
C936 C931 1.390 . S
C936 C934 1.285 . S
C936 H955 0.930 . S
C937 C940 1.424 . S
C937 C942 1.245 . S
C937 C943 1.428 . S
C938 C941 1.260 . S
C938 C942 1.477 . S
C938 H956 0.932 . S
C939 C940 1.384 . S
C939 C941 1.479 . S
C939 H957 0.929 . S
C940 C937 1.424 . S
C940 C939 1.384 . S
C940 H958 0.928 . S
C941 C938 1.260 . S
C941 C939 1.479 . S
C942 C937 1.245 . S
C942 C938 1.477 . S
C942 H959 0.932 . S
C943 U926 2.882 . S
C943 C937 1.428 . S
C943 O946 1.301 . S
C943 O947 1.282 . S
O944 U926 2.441 . S
O944 C930 1.249 . S
O945 U926 2.420 . S
O945 C930 1.202 . S
O946 U926 2.455 . S
O946 C943 1.301 . S
O947 U926 2.449 . S
O947 C943 1.282 . S
H948 C921 0.931 . S
H949 C923 0.929 . S
H950 C924 0.930 . S
H951 C925 0.931 . S
H952 C932 0.932 . S
H953 C933 0.930 . S
H954 C934 0.929 . S
H955 C936 0.930 . S
H956 C938 0.932 . S
H957 C939 0.929 . S
H958 C940 0.928 . S
H959 C942 0.932 . S
H960 C968 0.929 . S
H961 C970 0.930 . S
H962 C972 0.930 . S
H963 C975 0.929 . S
H964 C978 0.930 . S
H965 C980 0.960 . S
H966 C980 0.960 . S
H967 C980 0.960 . S
C968 H960 0.929 . S
C968 C969 1.377 1_655 S
C968 C970 1.384 . S
C969 C968 1.377 1_455 S
C969 C975 1.390 . S
C970 H961 0.930 . S
C970 C968 1.384 . S
C970 C971 1.372 1_655 S
C971 C970 1.372 1_455 S
C971 C972 1.400 . S
C971 C976 1.490 . S
C972 H962 0.930 . S
C972 C971 1.400 . S
C972 C975 1.386 . S
H973 C989 0.930 . S
H974 C990 0.931 . S
C975 H963 0.929 . S
C975 C969 1.390 . S
C975 C972 1.386 . S
C976 C971 1.490 . S
C976 C978 1.395 1_455 S
C976 C979 1.403 . S
H977 C983 0.930 . S
C978 H964 0.930 . S
C978 C976 1.395 1_655 S
C978 C981 1.403 . S
C979 C976 1.403 . S
C979 C980 1.524 . S
C979 C983 1.400 . S
C980 H965 0.960 . S
C980 H966 0.960 . S
C980 H967 0.960 . S
C980 C979 1.524 . S
C981 C978 1.403 . S
C981 C982 1.392 . S
C981 C985 1.495 . S
C982 C981 1.392 . S
C982 C983 1.385 1_655 S
C982 C984 1.478 . S
C983 H977 0.930 . S
C983 C979 1.400 . S
C983 C982 1.385 1_455 S
C984 C982 1.478 . S
C984 C986 1.381 . S
C984 C990 1.383 1_655 S
C985 C981 1.495 . S
C985 H991 0.959 . S
C985 H992 0.961 . S
C985 H993 0.960 . S
C986 C984 1.381 . S
C986 C987 1.394 . S
C986 H994 0.930 . S
C987 C986 1.394 . S
C987 C988 1.383 . S
C987 H995 0.929 . S
C988 C987 1.383 . S
C988 C989 1.377 1_655 S
C989 H973 0.930 . S
C989 C988 1.377 1_455 S
C989 C990 1.379 . S
C990 H974 0.931 . S
C990 C984 1.383 1_455 S
C990 C989 1.379 . S
H991 C985 0.959 . S
H992 C985 0.961 . S
H993 C985 0.960 . S
H994 C986 0.930 . S
H995 C987 0.929 . S
H996 C1004 0.929 . S
H997 C1006 0.930 . S
H998 C1008 0.930 . S
H999 C1011 0.929 . S
H1000 C1014 0.930 . S
H1001 C1016 0.960 . S
H1002 C1016 0.960 . S
H1003 C1016 0.960 . S
C1004 H996 0.929 . S
C1004 C1005 1.377 . S
C1004 C1006 1.384 . S
C1005 C1004 1.377 . S
C1005 C1011 1.390 . S
C1006 H997 0.930 . S
C1006 C1004 1.384 . S
C1006 C1007 1.372 . S
C1007 C1006 1.372 . S
C1007 C1008 1.400 . S
C1007 C1012 1.490 . S
C1008 H998 0.930 . S
C1008 C1007 1.400 . S
C1008 C1011 1.386 . S
H1009 C1025 0.930 . S
H1010 C1026 0.931 . S
C1011 H999 0.929 . S
C1011 C1005 1.390 . S
C1011 C1008 1.386 . S
C1012 C1007 1.490 . S
C1012 C1014 1.395 . S
C1012 C1015 1.403 . S
H1013 C1019 0.930 . S
C1014 H1000 0.930 . S
C1014 C1012 1.395 . S
C1014 C1017 1.403 . S
C1015 C1012 1.403 . S
C1015 C1016 1.524 . S
C1015 C1019 1.400 . S
C1016 H1001 0.960 . S
C1016 H1002 0.960 . S
C1016 H1003 0.960 . S
C1016 C1015 1.524 . S
C1017 C1014 1.403 . S
C1017 C1018 1.392 . S
C1017 C1021 1.495 . S
C1018 C1017 1.392 . S
C1018 C1019 1.385 . S
C1018 C1020 1.478 . S
C1019 H1013 0.930 . S
C1019 C1015 1.400 . S
C1019 C1018 1.385 . S
C1020 C1018 1.478 . S
C1020 C1022 1.381 . S
C1020 C1026 1.383 . S
C1021 C1017 1.495 . S
C1021 H1027 0.959 . S
C1021 H1028 0.961 . S
C1021 H1029 0.960 . S
C1022 C1020 1.381 . S
C1022 C1023 1.394 . S
C1022 H1030 0.930 . S
C1023 C1022 1.394 . S
C1023 C1024 1.383 . S
C1023 H1031 0.929 . S
C1024 C1023 1.383 . S
C1024 C1025 1.377 . S
C1025 H1009 0.930 . S
C1025 C1024 1.377 . S
C1025 C1026 1.379 . S
C1026 H1010 0.931 . S
C1026 C1020 1.383 . S
C1026 C1025 1.379 . S
H1027 C1021 0.959 . S
H1028 C1021 0.961 . S
H1029 C1021 0.960 . S
H1030 C1022 0.930 . S
H1031 C1023 0.929 . S
H1032 C1040 0.929 . S
H1033 C1042 0.930 . S
H1034 C1044 0.930 . S
H1035 C1047 0.929 . S
H1036 C1050 0.930 . S
H1037 C1052 0.960 . S
H1038 C1052 0.960 . S
H1039 C1052 0.960 . S
C1040 H1032 0.929 . S
C1040 C1041 1.377 . S
C1040 C1042 1.384 . S
C1041 C1040 1.377 . S
C1041 C1047 1.390 . S
C1042 H1033 0.930 . S
C1042 C1040 1.384 . S
C1042 C1043 1.372 . S
C1043 C1042 1.372 . S
C1043 C1044 1.400 . S
C1043 C1048 1.490 . S
C1044 H1034 0.930 . S
C1044 C1043 1.400 . S
C1044 C1047 1.386 . S
H1045 C1061 0.930 . S
H1046 C1062 0.931 . S
C1047 H1035 0.929 . S
C1047 C1041 1.390 . S
C1047 C1044 1.386 . S
C1048 C1043 1.490 . S
C1048 C1050 1.395 . S
C1048 C1051 1.403 . S
H1049 C1055 0.930 . S
C1050 H1036 0.930 . S
C1050 C1048 1.395 . S
C1050 C1053 1.403 . S
C1051 C1048 1.403 . S
C1051 C1052 1.524 . S
C1051 C1055 1.400 . S
C1052 H1037 0.960 . S
C1052 H1038 0.960 . S
C1052 H1039 0.960 . S
C1052 C1051 1.524 . S
C1053 C1050 1.403 . S
C1053 C1054 1.392 . S
C1053 C1057 1.495 . S
C1054 C1053 1.392 . S
C1054 C1055 1.385 . S
C1054 C1056 1.478 . S
C1055 H1049 0.930 . S
C1055 C1051 1.400 . S
C1055 C1054 1.385 . S
C1056 C1054 1.478 . S
C1056 C1058 1.381 . S
C1056 C1062 1.383 . S
C1057 C1053 1.495 . S
C1057 H1063 0.959 . S
C1057 H1064 0.961 . S
C1057 H1065 0.960 . S
C1058 C1056 1.381 . S
C1058 C1059 1.394 . S
C1058 H1066 0.930 . S
C1059 C1058 1.394 . S
C1059 C1060 1.383 . S
C1059 H1067 0.929 . S
C1060 C1059 1.383 . S
C1060 C1061 1.377 . S
C1061 H1045 0.930 . S
C1061 C1060 1.377 . S
C1061 C1062 1.379 . S
C1062 H1046 0.931 . S
C1062 C1056 1.383 . S
C1062 C1061 1.379 . S
H1063 C1057 0.959 . S
H1064 C1057 0.961 . S
H1065 C1057 0.960 . S
H1066 C1058 0.930 . S
H1067 C1059 0.929 . S
H1068 C1076 0.929 . S
H1069 C1078 0.930 . S
H1070 C1080 0.930 . S
H1071 C1083 0.929 . S
H1072 C1086 0.930 . S
H1073 C1088 0.960 . S
H1074 C1088 0.960 . S
H1075 C1088 0.960 . S
C1076 H1068 0.929 . S
C1076 C1077 1.377 . S
C1076 C1078 1.384 . S
C1077 C1076 1.377 . S
C1077 C1083 1.390 . S
C1078 H1069 0.930 . S
C1078 C1076 1.384 . S
C1078 C1079 1.372 . S
C1079 C1078 1.372 . S
C1079 C1080 1.400 . S
C1079 C1084 1.490 . S
C1080 H1070 0.930 . S
C1080 C1079 1.400 . S
C1080 C1083 1.386 . S
H1081 C1097 0.930 . S
H1082 C1098 0.931 . S
C1083 H1071 0.929 . S
C1083 C1077 1.390 . S
C1083 C1080 1.386 . S
C1084 C1079 1.490 . S
C1084 C1086 1.395 . S
C1084 C1087 1.403 . S
H1085 C1091 0.930 . S
C1086 H1072 0.930 . S
C1086 C1084 1.395 . S
C1086 C1089 1.403 . S
C1087 C1084 1.403 . S
C1087 C1088 1.524 . S
C1087 C1091 1.400 . S
C1088 H1073 0.960 . S
C1088 H1074 0.960 . S
C1088 H1075 0.960 . S
C1088 C1087 1.524 . S
C1089 C1086 1.403 . S
C1089 C1090 1.392 . S
C1089 C1093 1.495 . S
C1090 C1089 1.392 . S
C1090 C1091 1.385 . S
C1090 C1092 1.478 . S
C1091 H1085 0.930 . S
C1091 C1087 1.400 . S
C1091 C1090 1.385 . S
C1092 C1090 1.478 . S
C1092 C1094 1.381 . S
C1092 C1098 1.383 . S
C1093 C1089 1.495 . S
C1093 H1099 0.959 . S
C1093 H1100 0.961 . S
C1093 H1101 0.960 . S
C1094 C1092 1.381 . S
C1094 C1095 1.394 . S
C1094 H1102 0.930 . S
C1095 C1094 1.394 . S
C1095 C1096 1.383 . S
C1095 H1103 0.929 . S
C1096 C1095 1.383 . S
C1096 C1097 1.377 . S
C1097 H1081 0.930 . S
C1097 C1096 1.377 . S
C1097 C1098 1.379 . S
C1098 H1082 0.931 . S
C1098 C1092 1.383 . S
C1098 C1097 1.379 . S
H1099 C1093 0.959 . S
H1100 C1093 0.961 . S
H1101 C1093 0.960 . S
H1102 C1094 0.930 . S
H1103 C1095 0.929 . S
H1104 C1112 0.929 . S
H1105 C1114 0.930 . S
H1106 C1116 0.930 . S
H1107 C1119 0.929 . S
H1108 C1122 0.930 . S
H1109 C1124 0.960 . S
H1110 C1124 0.960 1_545 S
H1111 C1124 0.960 . S
C1112 H1104 0.929 . S
C1112 C1113 1.377 . S
C1112 C1114 1.384 . S
C1113 C1112 1.377 . S
C1113 C1119 1.390 1_545 S
C1114 H1105 0.930 . S
C1114 C1112 1.384 . S
C1114 C1115 1.372 . S
C1115 C1114 1.372 . S
C1115 C1116 1.400 1_545 S
C1115 C1120 1.490 . S
C1116 H1106 0.930 . S
C1116 C1115 1.400 1_565 S
C1116 C1119 1.386 . S
H1117 C1133 0.930 . S
H1118 C1134 0.931 . S
C1119 H1107 0.929 . S
C1119 C1113 1.390 1_565 S
C1119 C1116 1.386 . S
C1120 C1115 1.490 . S
C1120 C1122 1.395 . S
C1120 C1123 1.403 1_545 S
H1121 C1127 0.930 . S
C1122 H1108 0.930 . S
C1122 C1120 1.395 . S
C1122 C1125 1.403 . S
C1123 C1120 1.403 1_565 S
C1123 C1124 1.524 . S
C1123 C1127 1.400 . S
C1124 H1109 0.960 . S
C1124 H1110 0.960 1_565 S
C1124 H1111 0.960 . S
C1124 C1123 1.524 . S
C1125 C1122 1.403 . S
C1125 C1126 1.380 1_545 S
C1125 C1129 1.495 . S
C1126 C1125 1.380 1_565 S
C1126 C1127 1.402 . S
C1126 C1128 1.475 . S
C1127 H1121 0.930 . S
C1127 C1123 1.400 . S
C1127 C1126 1.402 . S
C1128 C1126 1.475 . S
C1128 C1130 1.381 1_565 S
C1128 C1134 1.383 . S
C1129 C1125 1.495 . S
C1129 H1135 0.959 . S
C1129 H1136 0.961 1_545 S
C1129 H1137 0.960 . S
C1130 C1128 1.381 1_545 S
C1130 C1131 1.394 . S
C1130 H1138 0.930 . S
C1131 C1130 1.394 . S
C1131 C1132 1.383 1_545 S
C1131 H1139 0.929 . S
C1132 C1131 1.383 1_565 S
C1132 C1133 1.377 . S
C1133 H1117 0.930 . S
C1133 C1132 1.377 . S
C1133 C1134 1.379 . S
C1134 H1118 0.931 . S
C1134 C1128 1.383 . S
C1134 C1133 1.379 . S
H1135 C1129 0.959 . S
H1136 C1129 0.961 1_565 S
H1137 C1129 0.960 . S
H1138 C1130 0.930 . S
H1139 C1131 0.929 . S
H1140 C1148 0.929 . S
H1141 C1150 0.930 . S
H1142 C1152 0.930 . S
H1143 C1155 0.929 . S
H1144 C1158 0.930 . S
H1145 C1160 0.960 . S
H1146 C1160 0.960 . S
H1147 C1160 0.960 . S
C1148 H1140 0.929 . S
C1148 C1149 1.377 . S
C1148 C1150 1.384 . S
C1149 C1148 1.377 . S
C1149 C1155 1.390 . S
C1150 H1141 0.930 . S
C1150 C1148 1.384 . S
C1150 C1151 1.372 . S
C1151 C1150 1.372 . S
C1151 C1152 1.400 . S
C1151 C1156 1.490 . S
C1152 H1142 0.930 . S
C1152 C1151 1.400 . S
C1152 C1155 1.386 . S
H1153 C1169 0.930 . S
H1154 C1170 0.931 . S
C1155 H1143 0.929 . S
C1155 C1149 1.390 . S
C1155 C1152 1.386 . S
C1156 C1151 1.490 . S
C1156 C1158 1.395 . S
C1156 C1159 1.403 . S
H1157 C1163 0.930 . S
C1158 H1144 0.930 . S
C1158 C1156 1.395 . S
C1158 C1161 1.403 . S
C1159 C1156 1.403 . S
C1159 C1160 1.524 . S
C1159 C1163 1.400 . S
C1160 H1145 0.960 . S
C1160 H1146 0.960 . S
C1160 H1147 0.960 . S
C1160 C1159 1.524 . S
C1161 C1158 1.403 . S
C1161 C1162 1.392 . S
C1161 C1165 1.495 . S
C1162 C1161 1.392 . S
C1162 C1163 1.385 . S
C1162 C1164 1.478 . S
C1163 H1157 0.930 . S
C1163 C1159 1.400 . S
C1163 C1162 1.385 . S
C1164 C1162 1.478 . S
C1164 C1166 1.381 . S
C1164 C1170 1.383 . S
C1165 C1161 1.495 . S
C1165 H1171 0.959 . S
C1165 H1172 0.961 . S
C1165 H1173 0.960 . S
C1166 C1164 1.381 . S
C1166 C1167 1.394 . S
C1166 H1174 0.930 . S
C1167 C1166 1.394 . S
C1167 C1168 1.383 . S
C1167 H1175 0.929 . S
C1168 C1167 1.383 . S
C1168 C1169 1.377 . S
C1169 H1153 0.930 . S
C1169 C1168 1.377 . S
C1169 C1170 1.379 . S
C1170 H1154 0.931 . S
C1170 C1164 1.383 . S
C1170 C1169 1.379 . S
H1171 C1165 0.959 . S
H1172 C1165 0.961 . S
H1173 C1165 0.960 . S
H1174 C1166 0.930 . S
H1175 C1167 0.929 . S
H1176 C1184 0.929 . S
H1177 C1186 0.930 . S
H1178 C1188 0.930 . S
H1179 C1191 0.929 . S
H1180 C1194 0.930 . S
H1181 C1196 0.960 . S
H1182 C1196 0.960 . S
H1183 C1196 0.960 . S
C1184 H1176 0.929 . S
C1184 C1185 1.377 . S
C1184 C1186 1.384 . S
C1185 C1184 1.377 . S
C1185 C1191 1.390 . S
C1186 H1177 0.930 . S
C1186 C1184 1.384 . S
C1186 C1187 1.372 . S
C1187 C1186 1.372 . S
C1187 C1188 1.400 . S
C1187 C1192 1.490 . S
C1188 H1178 0.930 . S
C1188 C1187 1.400 . S
C1188 C1191 1.386 . S
H1189 C1205 0.930 . S
H1190 C1206 0.931 . S
C1191 H1179 0.929 . S
C1191 C1185 1.390 . S
C1191 C1188 1.386 . S
C1192 C1187 1.490 . S
C1192 C1194 1.395 . S
C1192 C1195 1.403 . S
H1193 C1199 0.930 . S
C1194 H1180 0.930 . S
C1194 C1192 1.395 . S
C1194 C1197 1.403 . S
C1195 C1192 1.403 . S
C1195 C1196 1.524 . S
C1195 C1199 1.400 . S
C1196 H1181 0.960 . S
C1196 H1182 0.960 . S
C1196 H1183 0.960 . S
C1196 C1195 1.524 . S
C1197 C1194 1.403 . S
C1197 C1198 1.392 . S
C1197 C1201 1.495 . S
C1198 C1197 1.392 . S
C1198 C1199 1.385 . S
C1198 C1200 1.478 . S
C1199 H1193 0.930 . S
C1199 C1195 1.400 . S
C1199 C1198 1.385 . S
C1200 C1198 1.478 . S
C1200 C1202 1.381 . S
C1200 C1206 1.383 . S
C1201 C1197 1.495 . S
C1201 H1207 0.959 . S
C1201 H1208 0.961 . S
C1201 H1209 0.960 . S
C1202 C1200 1.381 . S
C1202 C1203 1.394 . S
C1202 H1210 0.930 . S
C1203 C1202 1.394 . S
C1203 C1204 1.383 . S
C1203 H1211 0.929 . S
C1204 C1203 1.383 . S
C1204 C1205 1.377 . S
C1205 H1189 0.930 . S
C1205 C1204 1.377 . S
C1205 C1206 1.379 . S
C1206 H1190 0.931 . S
C1206 C1200 1.383 . S
C1206 C1205 1.379 . S
H1207 C1201 0.959 . S
H1208 C1201 0.961 . S
H1209 C1201 0.960 . S
H1210 C1202 0.930 . S
H1211 C1203 0.929 . S
H1212 C1220 0.929 . S
H1213 C1222 0.930 . S
H1214 C1224 0.930 . S
H1215 C1227 0.929 . S
H1216 C1230 0.930 . S
H1217 C1232 0.960 . S
H1218 C1232 0.960 . S
H1219 C1232 0.960 . S
C1220 H1212 0.929 . S
C1220 C1221 1.377 1_556 S
C1220 C1222 1.384 . S
C1221 C1220 1.377 1_554 S
C1221 C1227 1.390 . S
C1222 H1213 0.930 . S
C1222 C1220 1.384 . S
C1222 C1223 1.361 1_556 S
C1223 C1222 1.361 1_554 S
C1223 C1224 1.409 . S
C1223 C1228 1.492 1_554 S
C1224 H1214 0.930 . S
C1224 C1223 1.409 . S
C1224 C1227 1.386 . S
H1225 C1241 0.982 . S
H1226 C1242 0.931 . S
C1227 H1215 0.929 . S
C1227 C1221 1.390 . S
C1227 C1224 1.386 . S
C1228 C1223 1.492 1_556 S
C1228 C1230 1.395 . S
C1228 C1231 1.403 1_556 S
H1229 C1235 0.930 . S
C1230 H1216 0.930 . S
C1230 C1228 1.395 . S
C1230 C1233 1.403 . S
C1231 C1228 1.403 1_554 S
C1231 C1232 1.524 . S
C1231 C1235 1.400 . S
C1232 H1217 0.960 . S
C1232 H1218 0.960 . S
C1232 H1219 0.960 . S
C1232 C1231 1.524 . S
C1233 C1230 1.403 . S
C1233 C1234 1.392 . S
C1233 C1237 1.495 . S
C1234 C1233 1.392 . S
C1234 C1235 1.385 1_556 S
C1234 C1236 1.478 . S
C1235 H1229 0.930 . S
C1235 C1231 1.400 . S
C1235 C1234 1.385 1_554 S
C1236 C1234 1.478 . S
C1236 C1238 1.381 . S
C1236 C1242 1.383 1_556 S
C1237 C1233 1.495 . S
C1237 H1243 0.959 . S
C1237 H1244 0.961 . S
C1237 H1245 0.960 . S
C1238 C1236 1.381 . S
C1238 C1239 1.394 . S
C1238 H1246 0.930 . S
C1239 C1238 1.394 . S
C1239 C1240 1.383 . S
C1239 H1247 0.929 . S
C1240 C1239 1.383 . S
C1240 C1241 1.343 1_556 S
C1241 H1225 0.982 . S
C1241 C1240 1.343 1_554 S
C1241 C1242 1.367 . S
C1242 H1226 0.931 . S
C1242 C1236 1.383 1_554 S
C1242 C1241 1.367 . S
H1243 C1237 0.959 . S
H1244 C1237 0.961 . S
H1245 C1237 0.960 . S
H1246 C1238 0.930 . S
H1247 C1239 0.929 . S
H1248 C1256 0.929 . S
H1249 C1258 0.930 . S
H1250 C1260 0.930 . S
H1251 C1263 0.929 . S
H1252 C1266 0.930 . S
H1253 C1268 0.960 . S
H1254 C1268 0.960 . S
H1255 C1268 0.960 . S
C1256 H1248 0.929 . S
C1256 C1257 1.377 . S
C1256 C1258 1.384 . S
C1257 C1256 1.377 . S
C1257 C1263 1.390 . S
C1258 H1249 0.930 . S
C1258 C1256 1.384 . S
C1258 C1259 1.372 . S
C1259 C1258 1.372 . S
C1259 C1260 1.400 . S
C1259 C1264 1.490 . S
C1260 H1250 0.930 . S
C1260 C1259 1.400 . S
C1260 C1263 1.386 . S
H1261 C1277 0.930 . S
H1262 C1278 0.931 . S
C1263 H1251 0.929 . S
C1263 C1257 1.390 . S
C1263 C1260 1.386 . S
C1264 C1259 1.490 . S
C1264 C1266 1.395 . S
C1264 C1267 1.403 . S
H1265 C1271 0.930 . S
C1266 H1252 0.930 . S
C1266 C1264 1.395 . S
C1266 C1269 1.403 . S
C1267 C1264 1.403 . S
C1267 C1268 1.524 . S
C1267 C1271 1.400 . S
C1268 H1253 0.960 . S
C1268 H1254 0.960 . S
C1268 H1255 0.960 . S
C1268 C1267 1.524 . S
C1269 C1266 1.403 . S
C1269 C1270 1.392 . S
C1269 C1273 1.495 . S
C1270 C1269 1.392 . S
C1270 C1271 1.385 . S
C1270 C1272 1.478 . S
C1271 H1265 0.930 . S
C1271 C1267 1.400 . S
C1271 C1270 1.385 . S
C1272 C1270 1.478 . S
C1272 C1274 1.381 . S
C1272 C1278 1.383 . S
C1273 C1269 1.495 . S
C1273 H1279 0.959 . S
C1273 H1280 0.961 . S
C1273 H1281 0.960 . S
C1274 C1272 1.381 . S
C1274 C1275 1.394 . S
C1274 H1282 0.930 . S
C1275 C1274 1.394 . S
C1275 C1276 1.383 . S
C1275 H1283 0.929 . S
C1276 C1275 1.383 . S
C1276 C1277 1.377 . S
C1277 H1261 0.930 . S
C1277 C1276 1.377 . S
C1277 C1278 1.379 . S
C1278 H1262 0.931 . S
C1278 C1272 1.383 . S
C1278 C1277 1.379 . S
H1279 C1273 0.959 . S
H1280 C1273 0.961 . S
H1281 C1273 0.960 . S
H1282 C1274 0.930 . S
H1283 C1275 0.929 . S
H1284 C1292 0.929 . S
H1285 C1294 0.930 . S
H1286 C1296 0.930 . S
H1287 C1299 0.929 . S
H1288 C1302 0.930 . S
H1289 C1304 0.960 . S
H1290 C1304 0.960 . S
H1291 C1304 0.960 . S
C1292 H1284 0.929 . S
C1292 C1293 1.377 . S
C1292 C1294 1.384 . S
C1293 C1292 1.377 . S
C1293 C1299 1.390 . S
C1294 H1285 0.930 . S
C1294 C1292 1.384 . S
C1294 C1295 1.372 . S
C1295 C1294 1.372 . S
C1295 C1296 1.400 . S
C1295 C1300 1.490 . S
C1296 H1286 0.930 . S
C1296 C1295 1.400 . S
C1296 C1299 1.386 . S
H1297 C1313 0.930 . S
H1298 C1314 0.931 . S
C1299 H1287 0.929 . S
C1299 C1293 1.390 . S
C1299 C1296 1.386 . S
C1300 C1295 1.490 . S
C1300 C1302 1.395 . S
C1300 C1303 1.403 . S
H1301 C1307 0.930 . S
C1302 H1288 0.930 . S
C1302 C1300 1.395 . S
C1302 C1305 1.403 . S
C1303 C1300 1.403 . S
C1303 C1304 1.524 . S
C1303 C1307 1.400 . S
C1304 H1289 0.960 . S
C1304 H1290 0.960 . S
C1304 H1291 0.960 . S
C1304 C1303 1.524 . S
C1305 C1302 1.403 . S
C1305 C1306 1.392 . S
C1305 C1309 1.495 . S
C1306 C1305 1.392 . S
C1306 C1307 1.385 . S
C1306 C1308 1.478 . S
C1307 H1301 0.930 . S
C1307 C1303 1.400 . S
C1307 C1306 1.385 . S
C1308 C1306 1.478 . S
C1308 C1310 1.381 . S
C1308 C1314 1.383 . S
C1309 C1305 1.495 . S
C1309 H1315 0.959 . S
C1309 H1316 0.961 . S
C1309 H1317 0.960 . S
C1310 C1308 1.381 . S
C1310 C1311 1.394 . S
C1310 H1318 0.930 . S
C1311 C1310 1.394 . S
C1311 C1312 1.383 . S
C1311 H1319 0.929 . S
C1312 C1311 1.383 . S
C1312 C1313 1.377 . S
C1313 H1297 0.930 . S
C1313 C1312 1.377 . S
C1313 C1314 1.379 . S
C1314 H1298 0.931 . S
C1314 C1308 1.383 . S
C1314 C1313 1.379 . S
H1315 C1309 0.959 . S
H1316 C1309 0.961 . S
H1317 C1309 0.960 . S
H1318 C1310 0.930 . S
H1319 C1311 0.929 . S
H1320 C1328 0.929 . S
H1321 C1330 0.930 . S
H1322 C1332 0.930 . S
H1323 C1335 0.929 . S
H1324 C1338 0.930 . S
H1325 C1340 0.960 . S
H1326 C1340 0.960 . S
H1327 C1340 0.960 . S
C1328 H1320 0.929 . S
C1328 C1329 1.377 . S
C1328 C1330 1.384 . S
C1329 C1328 1.377 . S
C1329 C1335 1.390 . S
C1330 H1321 0.930 . S
C1330 C1328 1.384 . S
C1330 C1331 1.372 . S
C1331 C1330 1.372 . S
C1331 C1332 1.400 . S
C1331 C1336 1.490 . S
C1332 H1322 0.930 . S
C1332 C1331 1.400 . S
C1332 C1335 1.386 . S
H1333 C1349 0.930 . S
H1334 C1350 0.931 . S
C1335 H1323 0.929 . S
C1335 C1329 1.390 . S
C1335 C1332 1.386 . S
C1336 C1331 1.490 . S
C1336 C1338 1.395 . S
C1336 C1339 1.403 . S
H1337 C1343 0.930 . S
C1338 H1324 0.930 . S
C1338 C1336 1.395 . S
C1338 C1341 1.403 . S
C1339 C1336 1.403 . S
C1339 C1340 1.524 . S
C1339 C1343 1.400 . S
C1340 H1325 0.960 . S
C1340 H1326 0.960 . S
C1340 H1327 0.960 . S
C1340 C1339 1.524 . S
C1341 C1338 1.403 . S
C1341 C1342 1.392 . S
C1341 C1345 1.495 . S
C1342 C1341 1.392 . S
C1342 C1343 1.385 . S
C1342 C1344 1.478 . S
C1343 H1337 0.930 . S
C1343 C1339 1.400 . S
C1343 C1342 1.385 . S
C1344 C1342 1.478 . S
C1344 C1346 1.381 . S
C1344 C1350 1.383 . S
C1345 C1341 1.495 . S
C1345 H1351 0.959 . S
C1345 H1352 0.961 . S
C1345 H1353 0.960 . S
C1346 C1344 1.381 . S
C1346 C1347 1.394 . S
C1346 H1354 0.930 . S
C1347 C1346 1.394 . S
C1347 C1348 1.383 . S
C1347 H1355 0.929 . S
C1348 C1347 1.383 . S
C1348 C1349 1.377 . S
C1349 H1333 0.930 . S
C1349 C1348 1.377 . S
C1349 C1350 1.379 . S
C1350 H1334 0.931 . S
C1350 C1344 1.383 . S
C1350 C1349 1.379 . S
H1351 C1345 0.959 . S
H1352 C1345 0.961 . S
H1353 C1345 0.960 . S
H1354 C1346 0.930 . S
H1355 C1347 0.929 . S
H1356 C1364 0.929 . S
H1357 C1366 0.930 . S
H1358 C1368 0.930 . S
H1359 C1371 0.929 . S
H1360 C1374 0.930 . S
H1361 C1376 0.960 . S
H1362 C1376 0.960 . S
H1363 C1376 0.960 . S
C1364 H1356 0.929 . S
C1364 C1365 1.377 . S
C1364 C1366 1.384 . S
C1365 C1364 1.377 . S
C1365 C1371 1.390 . S
C1366 H1357 0.930 . S
C1366 C1364 1.384 . S
C1366 C1367 1.372 . S
C1367 C1366 1.372 . S
C1367 C1368 1.400 . S
C1367 C1372 1.490 . S
C1368 H1358 0.930 . S
C1368 C1367 1.400 . S
C1368 C1371 1.386 . S
H1369 C1385 0.930 . S
H1370 C1386 0.931 . S
C1371 H1359 0.929 . S
C1371 C1365 1.390 . S
C1371 C1368 1.386 . S
C1372 C1367 1.490 . S
C1372 C1374 1.395 . S
C1372 C1375 1.403 . S
H1373 C1379 0.930 . S
C1374 H1360 0.930 . S
C1374 C1372 1.395 . S
C1374 C1377 1.403 . S
C1375 C1372 1.403 . S
C1375 C1376 1.524 . S
C1375 C1379 1.400 . S
C1376 H1361 0.960 . S
C1376 H1362 0.960 . S
C1376 H1363 0.960 . S
C1376 C1375 1.524 . S
C1377 C1374 1.403 . S
C1377 C1378 1.392 . S
C1377 C1381 1.495 . S
C1378 C1377 1.392 . S
C1378 C1379 1.385 . S
C1378 C1380 1.478 . S
C1379 H1373 0.930 . S
C1379 C1375 1.400 . S
C1379 C1378 1.385 . S
C1380 C1378 1.478 . S
C1380 C1382 1.381 . S
C1380 C1386 1.383 . S
C1381 C1377 1.495 . S
C1381 H1387 0.959 . S
C1381 H1388 0.961 . S
C1381 H1389 0.960 . S
C1382 C1380 1.381 . S
C1382 C1383 1.394 . S
C1382 H1390 0.930 . S
C1383 C1382 1.394 . S
C1383 C1384 1.383 . S
C1383 H1391 0.929 . S
C1384 C1383 1.383 . S
C1384 C1385 1.377 . S
C1385 H1369 0.930 . S
C1385 C1384 1.377 . S
C1385 C1386 1.379 . S
C1386 H1370 0.931 . S
C1386 C1380 1.383 . S
C1386 C1385 1.379 . S
H1387 C1381 0.959 . S
H1388 C1381 0.961 . S
H1389 C1381 0.960 . S
H1390 C1382 0.930 . S
H1391 C1383 0.929 . S
H1392 C1400 0.929 . S
H1393 C1402 0.930 . S
H1394 C1404 0.930 . S
H1395 C1407 0.929 . S
H1396 C1410 0.930 . S
H1397 C1412 0.960 . S
H1398 C1412 0.960 . S
H1399 C1412 0.960 . S
C1400 H1392 0.929 . S
C1400 C1401 1.377 . S
C1400 C1402 1.384 . S
C1401 C1400 1.377 . S
C1401 C1407 1.390 . S
C1402 H1393 0.930 . S
C1402 C1400 1.384 . S
C1402 C1403 1.372 . S
C1403 C1402 1.372 . S
C1403 C1404 1.400 . S
C1403 C1408 1.490 . S
C1404 H1394 0.930 . S
C1404 C1403 1.400 . S
C1404 C1407 1.386 . S
H1405 C1421 0.930 . S
H1406 C1422 0.931 . S
C1407 H1395 0.929 . S
C1407 C1401 1.390 . S
C1407 C1404 1.386 . S
C1408 C1403 1.490 . S
C1408 C1410 1.395 . S
C1408 C1411 1.403 . S
H1409 C1415 0.930 . S
C1410 H1396 0.930 . S
C1410 C1408 1.395 . S
C1410 C1413 1.403 . S
C1411 C1408 1.403 . S
C1411 C1412 1.524 . S
C1411 C1415 1.400 . S
C1412 H1397 0.960 . S
C1412 H1398 0.960 . S
C1412 H1399 0.960 . S
C1412 C1411 1.524 . S
C1413 C1410 1.403 . S
C1413 C1414 1.392 . S
C1413 C1417 1.495 . S
C1414 C1413 1.392 . S
C1414 C1415 1.385 . S
C1414 C1416 1.478 . S
C1415 H1409 0.930 . S
C1415 C1411 1.400 . S
C1415 C1414 1.385 . S
C1416 C1414 1.478 . S
C1416 C1418 1.381 . S
C1416 C1422 1.383 . S
C1417 C1413 1.495 . S
C1417 H1423 0.959 . S
C1417 H1424 0.961 . S
C1417 H1425 0.960 . S
C1418 C1416 1.381 . S
C1418 C1419 1.394 . S
C1418 H1426 0.930 . S
C1419 C1418 1.394 . S
C1419 C1420 1.383 . S
C1419 H1427 0.929 . S
C1420 C1419 1.383 . S
C1420 C1421 1.377 . S
C1421 H1405 0.930 . S
C1421 C1420 1.377 . S
C1421 C1422 1.379 . S
C1422 H1406 0.931 . S
C1422 C1416 1.383 . S
C1422 C1421 1.379 . S
H1423 C1417 0.959 . S
H1424 C1417 0.961 . S
H1425 C1417 0.960 . S
H1426 C1418 0.930 . S
H1427 C1419 0.929 . S
H1428 C1436 0.929 . S
H1429 C1438 0.930 . S
H1430 C1440 0.930 . S
H1431 C1443 0.929 . S
H1432 C1446 0.930 . S
H1433 C1448 0.960 . S
H1434 C1448 0.960 . S
H1435 C1448 0.960 . S
C1436 H1428 0.929 . S
C1436 C1437 1.377 . S
C1436 C1438 1.384 . S
C1437 C1436 1.377 . S
C1437 C1443 1.390 . S
C1438 H1429 0.930 . S
C1438 C1436 1.384 . S
C1438 C1439 1.372 . S
C1439 C1438 1.372 . S
C1439 C1440 1.400 . S
C1439 C1444 1.490 . S
C1440 H1430 0.930 . S
C1440 C1439 1.400 . S
C1440 C1443 1.386 . S
H1441 C1457 0.930 . S
H1442 C1458 0.931 . S
C1443 H1431 0.929 . S
C1443 C1437 1.390 . S
C1443 C1440 1.386 . S
C1444 C1439 1.490 . S
C1444 C1446 1.395 . S
C1444 C1447 1.403 . S
H1445 C1451 0.930 . S
C1446 H1432 0.930 . S
C1446 C1444 1.395 . S
C1446 C1449 1.403 . S
C1447 C1444 1.403 . S
C1447 C1448 1.524 . S
C1447 C1451 1.400 . S
C1448 H1433 0.960 . S
C1448 H1434 0.960 . S
C1448 H1435 0.960 . S
C1448 C1447 1.524 . S
C1449 C1446 1.403 . S
C1449 C1450 1.392 . S
C1449 C1453 1.495 . S
C1450 C1449 1.392 . S
C1450 C1451 1.385 . S
C1450 C1452 1.478 . S
C1451 H1445 0.930 . S
C1451 C1447 1.400 . S
C1451 C1450 1.385 . S
C1452 C1450 1.478 . S
C1452 C1454 1.381 . S
C1452 C1458 1.383 . S
C1453 C1449 1.495 . S
C1453 H1459 0.959 . S
C1453 H1460 0.961 . S
C1453 H1461 0.960 . S
C1454 C1452 1.381 . S
C1454 C1455 1.394 . S
C1454 H1462 0.930 . S
C1455 C1454 1.394 . S
C1455 C1456 1.383 . S
C1455 H1463 0.929 . S
C1456 C1455 1.383 . S
C1456 C1457 1.377 . S
C1457 H1441 0.930 . S
C1457 C1456 1.377 . S
C1457 C1458 1.379 . S
C1458 H1442 0.931 . S
C1458 C1452 1.383 . S
C1458 C1457 1.379 . S
H1459 C1453 0.959 . S
H1460 C1453 0.961 . S
H1461 C1453 0.960 . S
H1462 C1454 0.930 . S
H1463 C1455 0.929 . S
H1464 C1472 0.929 . S
H1465 C1474 0.930 . S
H1466 C1476 0.930 . S
H1467 C1479 0.929 . S
H1468 C1482 0.930 . S
H1469 C1484 0.960 . S
H1470 C1484 0.960 . S
H1471 C1484 0.960 . S
C1472 H1464 0.929 . S
C1472 C1473 1.377 . S
C1472 C1474 1.384 . S
C1473 C1472 1.377 . S
C1473 C1479 1.390 . S
C1474 H1465 0.930 . S
C1474 C1472 1.384 . S
C1474 C1475 1.372 . S
C1475 C1474 1.372 . S
C1475 C1476 1.400 . S
C1475 C1480 1.490 . S
C1476 H1466 0.930 . S
C1476 C1475 1.400 . S
C1476 C1479 1.386 . S
H1477 C1493 0.930 . S
H1478 C1494 0.931 . S
C1479 H1467 0.929 . S
C1479 C1473 1.390 . S
C1479 C1476 1.386 . S
C1480 C1475 1.490 . S
C1480 C1482 1.395 . S
C1480 C1483 1.403 . S
H1481 C1487 0.930 . S
C1482 H1468 0.930 . S
C1482 C1480 1.395 . S
C1482 C1485 1.403 . S
C1483 C1480 1.403 . S
C1483 C1484 1.524 . S
C1483 C1487 1.400 . S
C1484 H1469 0.960 . S
C1484 H1470 0.960 . S
C1484 H1471 0.960 . S
C1484 C1483 1.524 . S
C1485 C1482 1.403 . S
C1485 C1486 1.392 . S
C1485 C1489 1.495 . S
C1486 C1485 1.392 . S
C1486 C1487 1.385 . S
C1486 C1488 1.478 . S
C1487 H1481 0.930 . S
C1487 C1483 1.400 . S
C1487 C1486 1.385 . S
C1488 C1486 1.478 . S
C1488 C1490 1.381 . S
C1488 C1494 1.383 . S
C1489 C1485 1.495 . S
C1489 H1495 0.959 . S
C1489 H1496 0.961 . S
C1489 H1497 0.960 . S
C1490 C1488 1.381 . S
C1490 C1491 1.394 . S
C1490 H1498 0.930 . S
C1491 C1490 1.394 . S
C1491 C1492 1.383 . S
C1491 H1499 0.929 . S
C1492 C1491 1.383 . S
C1492 C1493 1.377 . S
C1493 H1477 0.930 . S
C1493 C1492 1.377 . S
C1493 C1494 1.379 . S
C1494 H1478 0.931 . S
C1494 C1488 1.383 . S
C1494 C1493 1.379 . S
H1495 C1489 0.959 . S
H1496 C1489 0.961 . S
H1497 C1489 0.960 . S
H1498 C1490 0.930 . S
H1499 C1491 0.929 . S
H1500 C1508 0.929 . S
H1501 C1510 0.930 . S
H1502 C1512 0.930 . S
H1503 C1515 0.929 . S
H1504 C1518 0.930 . S
H1505 C1520 0.960 . S
H1506 C1520 0.960 . S
H1507 C1520 0.960 . S
C1508 H1500 0.929 . S
C1508 C1509 1.377 . S
C1508 C1510 1.384 . S
C1509 C1508 1.377 . S
C1509 C1515 1.390 . S
C1510 H1501 0.930 . S
C1510 C1508 1.384 . S
C1510 C1511 1.372 . S
C1511 C1510 1.372 . S
C1511 C1512 1.400 . S
C1511 C1516 1.490 . S
C1512 H1502 0.930 . S
C1512 C1511 1.400 . S
C1512 C1515 1.386 . S
H1513 C1529 0.930 . S
H1514 C1530 0.931 . S
C1515 H1503 0.929 . S
C1515 C1509 1.390 . S
C1515 C1512 1.386 . S
C1516 C1511 1.490 . S
C1516 C1518 1.395 . S
C1516 C1519 1.403 . S
H1517 C1523 0.930 . S
C1518 H1504 0.930 . S
C1518 C1516 1.395 . S
C1518 C1521 1.403 . S
C1519 C1516 1.403 . S
C1519 C1520 1.524 . S
C1519 C1523 1.400 . S
C1520 H1505 0.960 . S
C1520 H1506 0.960 . S
C1520 H1507 0.960 . S
C1520 C1519 1.524 . S
C1521 C1518 1.403 . S
C1521 C1522 1.392 . S
C1521 C1525 1.495 . S
C1522 C1521 1.392 . S
C1522 C1523 1.385 . S
C1522 C1524 1.478 . S
C1523 H1517 0.930 . S
C1523 C1519 1.400 . S
C1523 C1522 1.385 . S
C1524 C1522 1.478 . S
C1524 C1526 1.381 . S
C1524 C1530 1.383 . S
C1525 C1521 1.495 . S
C1525 H1531 0.959 . S
C1525 H1532 0.961 . S
C1525 H1533 0.960 . S
C1526 C1524 1.381 . S
C1526 C1527 1.394 . S
C1526 H1534 0.930 . S
C1527 C1526 1.394 . S
C1527 C1528 1.383 . S
C1527 H1535 0.929 . S
C1528 C1527 1.383 . S
C1528 C1529 1.377 . S
C1529 H1513 0.930 . S
C1529 C1528 1.377 . S
C1529 C1530 1.379 . S
C1530 H1514 0.931 . S
C1530 C1524 1.383 . S
C1530 C1529 1.379 . S
H1531 C1525 0.959 . S
H1532 C1525 0.961 . S
H1533 C1525 0.960 . S
H1534 C1526 0.930 . S
H1535 C1527 0.929 . S
H1536 C1544 0.929 . S
H1537 C1546 0.930 . S
H1538 C1548 0.930 . S
H1539 C1551 0.929 . S
H1540 C1554 0.930 . S
H1541 C1556 0.960 . S
H1542 C1556 0.960 . S
H1543 C1556 0.960 . S
C1544 H1536 0.929 . S
C1544 C1545 1.377 . S
C1544 C1546 1.384 . S
C1545 C1544 1.377 . S
C1545 C1551 1.390 . S
C1546 H1537 0.930 . S
C1546 C1544 1.384 . S
C1546 C1547 1.372 . S
C1547 C1546 1.372 . S
C1547 C1548 1.400 . S
C1547 C1552 1.490 . S
C1548 H1538 0.930 . S
C1548 C1547 1.400 . S
C1548 C1551 1.386 . S
H1549 C1565 0.930 . S
H1550 C1566 0.931 . S
C1551 H1539 0.929 . S
C1551 C1545 1.390 . S
C1551 C1548 1.386 . S
C1552 C1547 1.490 . S
C1552 C1554 1.395 . S
C1552 C1555 1.403 . S
H1553 C1559 0.930 . S
C1554 H1540 0.930 . S
C1554 C1552 1.395 . S
C1554 C1557 1.403 . S
C1555 C1552 1.403 . S
C1555 C1556 1.524 . S
C1555 C1559 1.400 . S
C1556 H1541 0.960 . S
C1556 H1542 0.960 . S
C1556 H1543 0.960 . S
C1556 C1555 1.524 . S
C1557 C1554 1.403 . S
C1557 C1558 1.392 . S
C1557 C1561 1.495 . S
C1558 C1557 1.392 . S
C1558 C1559 1.385 . S
C1558 C1560 1.478 . S
C1559 H1553 0.930 . S
C1559 C1555 1.400 . S
C1559 C1558 1.385 . S
C1560 C1558 1.478 . S
C1560 C1562 1.381 . S
C1560 C1566 1.383 . S
C1561 C1557 1.495 . S
C1561 H1567 0.959 . S
C1561 H1568 0.961 . S
C1561 H1569 0.960 . S
C1562 C1560 1.381 . S
C1562 C1563 1.394 . S
C1562 H1570 0.930 . S
C1563 C1562 1.394 . S
C1563 C1564 1.383 . S
C1563 H1571 0.929 . S
C1564 C1563 1.383 . S
C1564 C1565 1.377 . S
C1565 H1549 0.930 . S
C1565 C1564 1.377 . S
C1565 C1566 1.379 . S
C1566 H1550 0.931 . S
C1566 C1560 1.383 . S
C1566 C1565 1.379 . S
H1567 C1561 0.959 . S
H1568 C1561 0.961 . S
H1569 C1561 0.960 . S
H1570 C1562 0.930 . S
H1571 C1563 0.929 . S
H1572 C1580 0.929 . S
H1573 C1582 0.930 . S
H1574 C1584 0.930 . S
H1575 C1587 0.929 . S
H1576 C1590 0.930 . S
H1577 C1592 0.960 . S
H1578 C1592 0.960 . S
H1579 C1592 0.960 . S
C1580 H1572 0.929 . S
C1580 C1581 1.377 . S
C1580 C1582 1.384 . S
C1581 C1580 1.377 . S
C1581 C1587 1.390 . S
C1582 H1573 0.930 . S
C1582 C1580 1.384 . S
C1582 C1583 1.372 . S
C1583 C1582 1.372 . S
C1583 C1584 1.400 . S
C1583 C1588 1.490 . S
C1584 H1574 0.930 . S
C1584 C1583 1.400 . S
C1584 C1587 1.386 . S
H1585 C1601 0.930 . S
H1586 C1602 0.931 . S
C1587 H1575 0.929 . S
C1587 C1581 1.390 . S
C1587 C1584 1.386 . S
C1588 C1583 1.490 . S
C1588 C1590 1.395 . S
C1588 C1591 1.403 . S
H1589 C1595 0.930 . S
C1590 H1576 0.930 . S
C1590 C1588 1.395 . S
C1590 C1593 1.403 . S
C1591 C1588 1.403 . S
C1591 C1592 1.524 . S
C1591 C1595 1.400 . S
C1592 H1577 0.960 . S
C1592 H1578 0.960 . S
C1592 H1579 0.960 . S
C1592 C1591 1.524 . S
C1593 C1590 1.403 . S
C1593 C1594 1.392 . S
C1593 C1597 1.495 . S
C1594 C1593 1.392 . S
C1594 C1595 1.385 . S
C1594 C1596 1.478 . S
C1595 H1589 0.930 . S
C1595 C1591 1.400 . S
C1595 C1594 1.385 . S
C1596 C1594 1.478 . S
C1596 C1598 1.381 . S
C1596 C1602 1.383 . S
C1597 C1593 1.495 . S
C1597 H1603 0.959 . S
C1597 H1604 0.961 . S
C1597 H1605 0.960 . S
C1598 C1596 1.381 . S
C1598 C1599 1.394 . S
C1598 H1606 0.930 . S
C1599 C1598 1.394 . S
C1599 C1600 1.383 . S
C1599 H1607 0.929 . S
C1600 C1599 1.383 . S
C1600 C1601 1.377 . S
C1601 H1585 0.930 . S
C1601 C1600 1.377 . S
C1601 C1602 1.379 . S
C1602 H1586 0.931 . S
C1602 C1596 1.383 . S
C1602 C1601 1.379 . S
H1603 C1597 0.959 . S
H1604 C1597 0.961 . S
H1605 C1597 0.960 . S
H1606 C1598 0.930 . S
H1607 C1599 0.929 . S
H1608 C1616 0.929 . S
H1609 C1618 0.930 . S
H1610 C1620 0.930 . S
H1611 C1623 0.929 . S
H1612 C1626 0.930 . S
H1613 C1628 0.960 . S
H1614 C1628 0.960 . S
H1615 C1628 0.960 . S
C1616 H1608 0.929 . S
C1616 C1617 1.377 . S
C1616 C1618 1.384 . S
C1617 C1616 1.377 . S
C1617 C1623 1.390 . S
C1618 H1609 0.930 . S
C1618 C1616 1.384 . S
C1618 C1619 1.372 . S
C1619 C1618 1.372 . S
C1619 C1620 1.400 . S
C1619 C1624 1.490 . S
C1620 H1610 0.930 . S
C1620 C1619 1.400 . S
C1620 C1623 1.386 . S
H1621 C1637 0.930 . S
H1622 C1638 0.931 . S
C1623 H1611 0.929 . S
C1623 C1617 1.390 . S
C1623 C1620 1.386 . S
C1624 C1619 1.490 . S
C1624 C1626 1.395 . S
C1624 C1627 1.403 . S
H1625 C1631 0.930 . S
C1626 H1612 0.930 . S
C1626 C1624 1.395 . S
C1626 C1629 1.403 . S
C1627 C1624 1.403 . S
C1627 C1628 1.524 . S
C1627 C1631 1.400 . S
C1628 H1613 0.960 . S
C1628 H1614 0.960 . S
C1628 H1615 0.960 . S
C1628 C1627 1.524 . S
C1629 C1626 1.403 . S
C1629 C1630 1.392 . S
C1629 C1633 1.495 . S
C1630 C1629 1.392 . S
C1630 C1631 1.385 . S
C1630 C1632 1.478 . S
C1631 H1625 0.930 . S
C1631 C1627 1.400 . S
C1631 C1630 1.385 . S
C1632 C1630 1.478 . S
C1632 C1634 1.381 . S
C1632 C1638 1.383 . S
C1633 C1629 1.495 . S
C1633 H1639 0.959 . S
C1633 H1640 0.961 . S
C1633 H1641 0.960 . S
C1634 C1632 1.381 . S
C1634 C1635 1.394 . S
C1634 H1642 0.930 . S
C1635 C1634 1.394 . S
C1635 C1636 1.383 . S
C1635 H1643 0.929 . S
C1636 C1635 1.383 . S
C1636 C1637 1.377 . S
C1637 H1621 0.930 . S
C1637 C1636 1.377 . S
C1637 C1638 1.379 . S
C1638 H1622 0.931 . S
C1638 C1632 1.383 . S
C1638 C1637 1.379 . S
H1639 C1633 0.959 . S
H1640 C1633 0.961 . S
H1641 C1633 0.960 . S
H1642 C1634 0.930 . S
H1643 C1635 0.929 . S
H1644 C1652 0.929 . S
H1645 C1654 0.930 . S
H1646 C1656 0.930 . S
H1647 C1659 0.929 . S
H1648 C1662 0.930 . S
H1649 C1664 0.960 . S
H1650 C1664 0.960 . S
H1651 C1664 0.960 . S
C1652 H1644 0.929 . S
C1652 C1653 1.377 . S
C1652 C1654 1.384 . S
C1653 C1652 1.377 . S
C1653 C1659 1.390 . S
C1654 H1645 0.930 . S
C1654 C1652 1.384 . S
C1654 C1655 1.372 . S
C1655 C1654 1.372 . S
C1655 C1656 1.400 . S
C1655 C1660 1.490 . S
C1656 H1646 0.930 . S
C1656 C1655 1.400 . S
C1656 C1659 1.386 . S
H1657 C1673 0.930 . S
H1658 C1674 0.931 . S
C1659 H1647 0.929 . S
C1659 C1653 1.390 . S
C1659 C1656 1.386 . S
C1660 C1655 1.490 . S
C1660 C1662 1.395 . S
C1660 C1663 1.403 . S
H1661 C1667 0.930 . S
C1662 H1648 0.930 . S
C1662 C1660 1.395 . S
C1662 C1665 1.403 . S
C1663 C1660 1.403 . S
C1663 C1664 1.524 . S
C1663 C1667 1.400 . S
C1664 H1649 0.960 . S
C1664 H1650 0.960 . S
C1664 H1651 0.960 . S
C1664 C1663 1.524 . S
C1665 C1662 1.403 . S
C1665 C1666 1.392 . S
C1665 C1669 1.495 . S
C1666 C1665 1.392 . S
C1666 C1667 1.385 . S
C1666 C1668 1.478 . S
C1667 H1661 0.930 . S
C1667 C1663 1.400 . S
C1667 C1666 1.385 . S
C1668 C1666 1.478 . S
C1668 C1670 1.381 . S
C1668 C1674 1.383 . S
C1669 C1665 1.495 . S
C1669 H1675 0.959 . S
C1669 H1676 0.961 . S
C1669 H1677 0.960 . S
C1670 C1668 1.381 . S
C1670 C1671 1.394 . S
C1670 H1678 0.930 . S
C1671 C1670 1.394 . S
C1671 C1672 1.383 . S
C1671 H1679 0.929 . S
C1672 C1671 1.383 . S
C1672 C1673 1.377 . S
C1673 H1657 0.930 . S
C1673 C1672 1.377 . S
C1673 C1674 1.379 . S
C1674 H1658 0.931 . S
C1674 C1668 1.383 . S
C1674 C1673 1.379 . S
H1675 C1669 0.959 . S
H1676 C1669 0.961 . S
H1677 C1669 0.960 . S
H1678 C1670 0.930 . S
H1679 C1671 0.929 . S
H1680 C1688 0.929 . S
H1681 C1690 0.930 . S
H1682 C1692 0.930 . S
H1683 C1695 0.929 . S
H1684 C1698 0.930 . S
H1685 C1700 0.960 . S
H1686 C1700 0.960 . S
H1687 C1700 0.960 . S
C1688 H1680 0.929 . S
C1688 C1689 1.377 . S
C1688 C1690 1.384 . S
C1689 C1688 1.377 . S
C1689 C1695 1.390 . S
C1690 H1681 0.930 . S
C1690 C1688 1.384 . S
C1690 C1691 1.372 . S
C1691 C1690 1.372 . S
C1691 C1692 1.400 . S
C1691 C1696 1.490 . S
C1692 H1682 0.930 . S
C1692 C1691 1.400 . S
C1692 C1695 1.386 . S
H1693 C1709 0.930 . S
H1694 C1710 0.931 . S
C1695 H1683 0.929 . S
C1695 C1689 1.390 . S
C1695 C1692 1.386 . S
C1696 C1691 1.490 . S
C1696 C1698 1.395 . S
C1696 C1699 1.403 . S
H1697 C1703 0.930 . S
C1698 H1684 0.930 . S
C1698 C1696 1.395 . S
C1698 C1701 1.403 . S
C1699 C1696 1.403 . S
C1699 C1700 1.524 . S
C1699 C1703 1.400 . S
C1700 H1685 0.960 . S
C1700 H1686 0.960 . S
C1700 H1687 0.960 . S
C1700 C1699 1.524 . S
C1701 C1698 1.403 . S
C1701 C1702 1.392 . S
C1701 C1705 1.495 . S
C1702 C1701 1.392 . S
C1702 C1703 1.385 . S
C1702 C1704 1.478 . S
C1703 H1697 0.930 . S
C1703 C1699 1.400 . S
C1703 C1702 1.385 . S
C1704 C1702 1.478 . S
C1704 C1706 1.381 . S
C1704 C1710 1.383 . S
C1705 C1701 1.495 . S
C1705 H1711 0.959 . S
C1705 H1712 0.961 . S
C1705 H1713 0.960 . S
C1706 C1704 1.381 . S
C1706 C1707 1.394 . S
C1706 H1714 0.930 . S
C1707 C1706 1.394 . S
C1707 C1708 1.383 . S
C1707 H1715 0.929 . S
C1708 C1707 1.383 . S
C1708 C1709 1.377 . S
C1709 H1693 0.930 . S
C1709 C1708 1.377 . S
C1709 C1710 1.379 . S
C1710 H1694 0.931 . S
C1710 C1704 1.383 . S
C1710 C1709 1.379 . S
H1711 C1705 0.959 . S
H1712 C1705 0.961 . S
H1713 C1705 0.960 . S
H1714 C1706 0.930 . S
H1715 C1707 0.929 . S
H1716 C1724 0.929 . S
H1717 C1726 0.930 . S
H1718 C1728 0.930 . S
H1719 C1731 0.929 . S
H1720 C1734 0.930 . S
H1721 C1736 0.960 . S
H1722 C1736 0.960 . S
H1723 C1736 0.960 . S
C1724 H1716 0.929 . S
C1724 C1725 1.377 . S
C1724 C1726 1.384 . S
C1725 C1724 1.377 . S
C1725 C1731 1.390 . S
C1726 H1717 0.930 . S
C1726 C1724 1.384 . S
C1726 C1727 1.372 . S
C1727 C1726 1.372 . S
C1727 C1728 1.400 . S
C1727 C1732 1.490 . S
C1728 H1718 0.930 . S
C1728 C1727 1.400 . S
C1728 C1731 1.386 . S
H1729 C1745 0.930 . S
H1730 C1746 0.931 . S
C1731 H1719 0.929 . S
C1731 C1725 1.390 . S
C1731 C1728 1.386 . S
C1732 C1727 1.490 . S
C1732 C1734 1.395 . S
C1732 C1735 1.403 . S
H1733 C1739 0.930 . S
C1734 H1720 0.930 . S
C1734 C1732 1.395 . S
C1734 C1737 1.403 . S
C1735 C1732 1.403 . S
C1735 C1736 1.524 . S
C1735 C1739 1.400 . S
C1736 H1721 0.960 . S
C1736 H1722 0.960 . S
C1736 H1723 0.960 . S
C1736 C1735 1.524 . S
C1737 C1734 1.403 . S
C1737 C1738 1.392 . S
C1737 C1741 1.495 . S
C1738 C1737 1.392 . S
C1738 C1739 1.385 . S
C1738 C1740 1.478 . S
C1739 H1733 0.930 . S
C1739 C1735 1.400 . S
C1739 C1738 1.385 . S
C1740 C1738 1.478 . S
C1740 C1742 1.381 . S
C1740 C1746 1.383 . S
C1741 C1737 1.495 . S
C1741 H1747 0.959 . S
C1741 H1748 0.961 . S
C1741 H1749 0.960 . S
C1742 C1740 1.381 . S
C1742 C1743 1.394 . S
C1742 H1750 0.930 . S
C1743 C1742 1.394 . S
C1743 C1744 1.383 . S
C1743 H1751 0.929 . S
C1744 C1743 1.383 . S
C1744 C1745 1.377 . S
C1745 H1729 0.930 . S
C1745 C1744 1.377 . S
C1745 C1746 1.379 . S
C1746 H1730 0.931 . S
C1746 C1740 1.383 . S
C1746 C1745 1.379 . S
H1747 C1741 0.959 . S
H1748 C1741 0.961 . S
H1749 C1741 0.960 . S
H1750 C1742 0.930 . S
H1751 C1743 0.929 . S
H1752 C1760 0.929 . S
H1753 C1762 0.930 . S
H1754 C1764 0.930 . S
H1755 C1767 0.929 . S
H1756 C1770 0.930 . S
H1757 C1772 0.960 . S
H1758 C1772 0.960 . S
H1759 C1772 0.960 . S
C1760 H1752 0.929 . S
C1760 C1761 1.377 . S
C1760 C1762 1.384 . S
C1761 C1760 1.377 . S
C1761 C1767 1.390 . S
C1762 H1753 0.930 . S
C1762 C1760 1.384 . S
C1762 C1763 1.372 . S
C1763 C1762 1.372 . S
C1763 C1764 1.400 . S
C1763 C1768 1.490 . S
C1764 H1754 0.930 . S
C1764 C1763 1.400 . S
C1764 C1767 1.386 . S
H1765 C1781 0.930 . S
H1766 C1782 0.931 . S
C1767 H1755 0.929 . S
C1767 C1761 1.390 . S
C1767 C1764 1.386 . S
C1768 C1763 1.490 . S
C1768 C1770 1.395 . S
C1768 C1771 1.403 . S
H1769 C1775 0.930 . S
C1770 H1756 0.930 . S
C1770 C1768 1.395 . S
C1770 C1773 1.403 . S
C1771 C1768 1.403 . S
C1771 C1772 1.524 . S
C1771 C1775 1.400 . S
C1772 H1757 0.960 . S
C1772 H1758 0.960 . S
C1772 H1759 0.960 . S
C1772 C1771 1.524 . S
C1773 C1770 1.403 . S
C1773 C1774 1.392 . S
C1773 C1777 1.495 . S
C1774 C1773 1.392 . S
C1774 C1775 1.385 . S
C1774 C1776 1.478 . S
C1775 H1769 0.930 . S
C1775 C1771 1.400 . S
C1775 C1774 1.385 . S
C1776 C1774 1.478 . S
C1776 C1778 1.381 . S
C1776 C1782 1.383 . S
C1777 C1773 1.495 . S
C1777 H1783 0.959 . S
C1777 H1784 0.961 . S
C1777 H1785 0.960 . S
C1778 C1776 1.381 . S
C1778 C1779 1.394 . S
C1778 H1786 0.930 . S
C1779 C1778 1.394 . S
C1779 C1780 1.383 . S
C1779 H1787 0.929 . S
C1780 C1779 1.383 . S
C1780 C1781 1.377 . S
C1781 H1765 0.930 . S
C1781 C1780 1.377 . S
C1781 C1782 1.379 . S
C1782 H1766 0.931 . S
C1782 C1776 1.383 . S
C1782 C1781 1.379 . S
H1783 C1777 0.959 . S
H1784 C1777 0.961 . S
H1785 C1777 0.960 . S
H1786 C1778 0.930 . S
H1787 C1779 0.929 . S
H1788 C1796 0.929 . S
H1789 C1798 0.930 . S
H1790 C1800 0.930 . S
H1791 C1803 0.929 . S
H1792 C1806 0.930 . S
H1793 C1808 0.960 . S
H1794 C1808 0.960 . S
H1795 C1808 0.960 . S
C1796 H1788 0.929 . S
C1796 C1797 1.377 . S
C1796 C1798 1.384 . S
C1797 C1796 1.377 . S
C1797 C1803 1.390 . S
C1798 H1789 0.930 . S
C1798 C1796 1.384 . S
C1798 C1799 1.372 . S
C1799 C1798 1.372 . S
C1799 C1800 1.400 . S
C1799 C1804 1.490 . S
C1800 H1790 0.930 . S
C1800 C1799 1.400 . S
C1800 C1803 1.386 . S
H1801 C1817 0.930 . S
H1802 C1818 0.931 . S
C1803 H1791 0.929 . S
C1803 C1797 1.390 . S
C1803 C1800 1.386 . S
C1804 C1799 1.490 . S
C1804 C1806 1.395 . S
C1804 C1807 1.403 . S
H1805 C1811 0.930 . S
C1806 H1792 0.930 . S
C1806 C1804 1.395 . S
C1806 C1809 1.403 . S
C1807 C1804 1.403 . S
C1807 C1808 1.524 . S
C1807 C1811 1.400 . S
C1808 H1793 0.960 . S
C1808 H1794 0.960 . S
C1808 H1795 0.960 . S
C1808 C1807 1.524 . S
C1809 C1806 1.403 . S
C1809 C1810 1.392 . S
C1809 C1813 1.495 . S
C1810 C1809 1.392 . S
C1810 C1811 1.385 . S
C1810 C1812 1.478 . S
C1811 H1805 0.930 . S
C1811 C1807 1.400 . S
C1811 C1810 1.385 . S
C1812 C1810 1.478 . S
C1812 C1814 1.381 . S
C1812 C1818 1.383 . S
C1813 C1809 1.495 . S
C1813 H1819 0.959 . S
C1813 H1820 0.961 . S
C1813 H1821 0.960 . S
C1814 C1812 1.381 . S
C1814 C1815 1.394 . S
C1814 H1822 0.930 . S
C1815 C1814 1.394 . S
C1815 C1816 1.383 . S
C1815 H1823 0.929 . S
C1816 C1815 1.383 . S
C1816 C1817 1.377 . S
C1817 H1801 0.930 . S
C1817 C1816 1.377 . S
C1817 C1818 1.379 . S
C1818 H1802 0.931 . S
C1818 C1812 1.383 . S
C1818 C1817 1.379 . S
H1819 C1813 0.959 . S
H1820 C1813 0.961 . S
H1821 C1813 0.960 . S
H1822 C1814 0.930 . S
H1823 C1815 0.929 . S
H1824 C1832 0.929 . S
H1825 C1834 0.930 . S
H1826 C1836 0.930 . S
H1827 C1839 0.929 . S
H1828 C1842 0.930 . S
H1829 C1844 0.960 . S
H1830 C1844 0.960 . S
H1831 C1844 0.960 . S
C1832 H1824 0.929 . S
C1832 C1833 1.377 . S
C1832 C1834 1.384 . S
C1833 C1832 1.377 . S
C1833 C1839 1.390 . S
C1834 H1825 0.930 . S
C1834 C1832 1.384 . S
C1834 C1835 1.372 . S
C1835 C1834 1.372 . S
C1835 C1836 1.400 . S
C1835 C1840 1.490 . S
C1836 H1826 0.930 . S
C1836 C1835 1.400 . S
C1836 C1839 1.386 . S
H1837 C1853 0.930 . S
H1838 C1854 0.931 . S
C1839 H1827 0.929 . S
C1839 C1833 1.390 . S
C1839 C1836 1.386 . S
C1840 C1835 1.490 . S
C1840 C1842 1.395 . S
C1840 C1843 1.403 . S
H1841 C1847 0.930 . S
C1842 H1828 0.930 . S
C1842 C1840 1.395 . S
C1842 C1845 1.403 . S
C1843 C1840 1.403 . S
C1843 C1844 1.524 . S
C1843 C1847 1.400 . S
C1844 H1829 0.960 . S
C1844 H1830 0.960 . S
C1844 H1831 0.960 . S
C1844 C1843 1.524 . S
C1845 C1842 1.403 . S
C1845 C1846 1.392 . S
C1845 C1849 1.495 . S
C1846 C1845 1.392 . S
C1846 C1847 1.385 . S
C1846 C1848 1.478 . S
C1847 H1841 0.930 . S
C1847 C1843 1.400 . S
C1847 C1846 1.385 . S
C1848 C1846 1.478 . S
C1848 C1850 1.381 . S
C1848 C1854 1.383 . S
C1849 C1845 1.495 . S
C1849 H1855 0.959 . S
C1849 H1856 0.961 . S
C1849 H1857 0.960 . S
C1850 C1848 1.381 . S
C1850 C1851 1.394 . S
C1850 H1858 0.930 . S
C1851 C1850 1.394 . S
C1851 C1852 1.383 . S
C1851 H1859 0.929 . S
C1852 C1851 1.383 . S
C1852 C1853 1.377 . S
C1853 H1837 0.930 . S
C1853 C1852 1.377 . S
C1853 C1854 1.379 . S
C1854 H1838 0.931 . S
C1854 C1848 1.383 . S
C1854 C1853 1.379 . S
H1855 C1849 0.959 . S
H1856 C1849 0.961 . S
H1857 C1849 0.960 . S
H1858 C1850 0.930 . S
H1859 C1851 0.929 . S
H1860 C1868 0.929 . S
H1861 C1870 0.930 . S
H1862 C1872 0.930 . S
H1863 C1875 0.929 . S
H1864 C1878 0.930 . S
H1865 C1880 0.960 . S
H1866 C1880 0.960 . S
H1867 C1880 0.960 . S
C1868 H1860 0.929 . S
C1868 C1869 1.377 . S
C1868 C1870 1.384 . S
C1869 C1868 1.377 . S
C1869 C1875 1.390 . S
C1870 H1861 0.930 . S
C1870 C1868 1.384 . S
C1870 C1871 1.372 . S
C1871 C1870 1.372 . S
C1871 C1872 1.400 . S
C1871 C1876 1.490 . S
C1872 H1862 0.930 . S
C1872 C1871 1.400 . S
C1872 C1875 1.386 . S
H1873 C1889 0.930 . S
H1874 C1890 0.931 . S
C1875 H1863 0.929 . S
C1875 C1869 1.390 . S
C1875 C1872 1.386 . S
C1876 C1871 1.490 . S
C1876 C1878 1.395 . S
C1876 C1879 1.403 . S
H1877 C1883 0.930 . S
C1878 H1864 0.930 . S
C1878 C1876 1.395 . S
C1878 C1881 1.403 . S
C1879 C1876 1.403 . S
C1879 C1880 1.524 . S
C1879 C1883 1.400 . S
C1880 H1865 0.960 . S
C1880 H1866 0.960 . S
C1880 H1867 0.960 . S
C1880 C1879 1.524 . S
C1881 C1878 1.403 . S
C1881 C1882 1.392 . S
C1881 C1885 1.495 . S
C1882 C1881 1.392 . S
C1882 C1883 1.385 . S
C1882 C1884 1.478 . S
C1883 H1877 0.930 . S
C1883 C1879 1.400 . S
C1883 C1882 1.385 . S
C1884 C1882 1.478 . S
C1884 C1886 1.381 . S
C1884 C1890 1.383 . S
C1885 C1881 1.495 . S
C1885 H1891 0.959 . S
C1885 H1892 0.961 . S
C1885 H1893 0.960 . S
C1886 C1884 1.381 . S
C1886 C1887 1.394 . S
C1886 H1894 0.930 . S
C1887 C1886 1.394 . S
C1887 C1888 1.383 . S
C1887 H1895 0.929 . S
C1888 C1887 1.383 . S
C1888 C1889 1.377 . S
C1889 H1873 0.930 . S
C1889 C1888 1.377 . S
C1889 C1890 1.379 . S
C1890 H1874 0.931 . S
C1890 C1884 1.383 . S
C1890 C1889 1.379 . S
H1891 C1885 0.959 . S
H1892 C1885 0.961 . S
H1893 C1885 0.960 . S
H1894 C1886 0.930 . S
H1895 C1887 0.929 . S
H1896 C1904 0.929 . S
H1897 C1906 0.930 . S
H1898 C1908 0.930 . S
H1899 C1911 0.929 . S
H1900 C1914 0.930 . S
H1901 C1916 0.960 . S
H1902 C1916 0.960 . S
H1903 C1916 0.960 . S
C1904 H1896 0.929 . S
C1904 C1905 1.377 . S
C1904 C1906 1.384 . S
C1905 C1904 1.377 . S
C1905 C1911 1.390 . S
C1906 H1897 0.930 . S
C1906 C1904 1.384 . S
C1906 C1907 1.372 . S
C1907 C1906 1.372 . S
C1907 C1908 1.400 . S
C1907 C1912 1.490 . S
C1908 H1898 0.930 . S
C1908 C1907 1.400 . S
C1908 C1911 1.386 . S
H1909 C1925 0.930 . S
H1910 C1926 0.931 . S
C1911 H1899 0.929 . S
C1911 C1905 1.390 . S
C1911 C1908 1.386 . S
C1912 C1907 1.490 . S
C1912 C1914 1.395 . S
C1912 C1915 1.403 . S
H1913 C1919 0.930 . S
C1914 H1900 0.930 . S
C1914 C1912 1.395 . S
C1914 C1917 1.403 . S
C1915 C1912 1.403 . S
C1915 C1916 1.524 . S
C1915 C1919 1.400 . S
C1916 H1901 0.960 . S
C1916 H1902 0.960 . S
C1916 H1903 0.960 . S
C1916 C1915 1.524 . S
C1917 C1914 1.403 . S
C1917 C1918 1.392 . S
C1917 C1921 1.495 . S
C1918 C1917 1.392 . S
C1918 C1919 1.385 . S
C1918 C1920 1.478 . S
C1919 H1913 0.930 . S
C1919 C1915 1.400 . S
C1919 C1918 1.385 . S
C1920 C1918 1.478 . S
C1920 C1922 1.381 . S
C1920 C1926 1.383 . S
C1921 C1917 1.495 . S
C1921 H1927 0.959 . S
C1921 H1928 0.961 . S
C1921 H1929 0.960 . S
C1922 C1920 1.381 . S
C1922 C1923 1.394 . S
C1922 H1930 0.930 . S
C1923 C1922 1.394 . S
C1923 C1924 1.383 . S
C1923 H1931 0.929 . S
C1924 C1923 1.383 . S
C1924 C1925 1.377 . S
C1925 H1909 0.930 . S
C1925 C1924 1.377 . S
C1925 C1926 1.379 . S
C1926 H1910 0.931 . S
C1926 C1920 1.383 . S
C1926 C1925 1.379 . S
H1927 C1921 0.959 . S
H1928 C1921 0.961 . S
H1929 C1921 0.960 . S
H1930 C1922 0.930 . S
H1931 C1923 0.929 . S
H1932 C1940 0.929 . S
H1933 C1942 0.930 . S
H1934 C1944 0.930 . S
H1935 C1947 0.929 . S
H1936 C1950 0.930 . S
H1937 C1952 0.960 . S
H1938 C1952 0.960 . S
H1939 C1952 0.960 . S
C1940 H1932 0.929 . S
C1940 C1941 1.377 . S
C1940 C1942 1.384 . S
C1941 C1940 1.377 . S
C1941 C1947 1.390 . S
C1942 H1933 0.930 . S
C1942 C1940 1.384 . S
C1942 C1943 1.372 . S
C1943 C1942 1.372 . S
C1943 C1944 1.400 . S
C1943 C1948 1.490 . S
C1944 H1934 0.930 . S
C1944 C1943 1.400 . S
C1944 C1947 1.386 . S
H1945 C1961 0.930 . S
H1946 C1962 0.931 . S
C1947 H1935 0.929 . S
C1947 C1941 1.390 . S
C1947 C1944 1.386 . S
C1948 C1943 1.490 . S
C1948 C1950 1.395 . S
C1948 C1951 1.403 . S
H1949 C1955 0.930 . S
C1950 H1936 0.930 . S
C1950 C1948 1.395 . S
C1950 C1953 1.403 . S
C1951 C1948 1.403 . S
C1951 C1952 1.524 . S
C1951 C1955 1.400 . S
C1952 H1937 0.960 . S
C1952 H1938 0.960 . S
C1952 H1939 0.960 . S
C1952 C1951 1.524 . S
C1953 C1950 1.403 . S
C1953 C1954 1.392 . S
C1953 C1957 1.495 . S
C1954 C1953 1.392 . S
C1954 C1955 1.385 . S
C1954 C1956 1.478 . S
C1955 H1949 0.930 . S
C1955 C1951 1.400 . S
C1955 C1954 1.385 . S
C1956 C1954 1.478 . S
C1956 C1958 1.381 . S
C1956 C1962 1.383 . S
C1957 C1953 1.495 . S
C1957 H1963 0.959 . S
C1957 H1964 0.961 . S
C1957 H1965 0.960 . S
C1958 C1956 1.381 . S
C1958 C1959 1.394 . S
C1958 H1966 0.930 . S
C1959 C1958 1.394 . S
C1959 C1960 1.383 . S
C1959 H1967 0.929 . S
C1960 C1959 1.383 . S
C1960 C1961 1.377 . S
C1961 H1945 0.930 . S
C1961 C1960 1.377 . S
C1961 C1962 1.379 . S
C1962 H1946 0.931 . S
C1962 C1956 1.383 . S
C1962 C1961 1.379 . S
H1963 C1957 0.959 . S
H1964 C1957 0.961 . S
H1965 C1957 0.960 . S
H1966 C1958 0.930 . S
H1967 C1959 0.929 . S
H1968 C1976 0.929 . S
H1969 C1978 0.930 . S
H1970 C1980 0.930 . S
H1971 C1983 0.929 . S
H1972 C1986 0.930 . S
H1973 C1988 0.960 . S
H1974 C1988 0.960 . S
H1975 C1988 0.960 . S
C1976 H1968 0.929 . S
C1976 C1977 1.377 . S
C1976 C1978 1.384 . S
C1977 C1976 1.377 . S
C1977 C1983 1.390 . S
C1978 H1969 0.930 . S
C1978 C1976 1.384 . S
C1978 C1979 1.372 . S
C1979 C1978 1.372 . S
C1979 C1980 1.400 . S
C1979 C1984 1.490 . S
C1980 H1970 0.930 . S
C1980 C1979 1.400 . S
C1980 C1983 1.386 . S
H1981 C1997 0.930 . S
H1982 C1998 0.931 . S
C1983 H1971 0.929 . S
C1983 C1977 1.390 . S
C1983 C1980 1.386 . S
C1984 C1979 1.490 . S
C1984 C1986 1.395 . S
C1984 C1987 1.403 . S
H1985 C1991 0.930 . S
C1986 H1972 0.930 . S
C1986 C1984 1.395 . S
C1986 C1989 1.403 . S
C1987 C1984 1.403 . S
C1987 C1988 1.524 . S
C1987 C1991 1.400 . S
C1988 H1973 0.960 . S
C1988 H1974 0.960 . S
C1988 H1975 0.960 . S
C1988 C1987 1.524 . S
C1989 C1986 1.403 . S
C1989 C1990 1.392 . S
C1989 C1993 1.495 . S
C1990 C1989 1.392 . S
C1990 C1991 1.385 . S
C1990 C1992 1.478 . S
C1991 H1985 0.930 . S
C1991 C1987 1.400 . S
C1991 C1990 1.385 . S
C1992 C1990 1.478 . S
C1992 C1994 1.381 . S
C1992 C1998 1.383 . S
C1993 C1989 1.495 . S
C1993 H1999 0.959 . S
C1993 H2000 0.961 . S
C1993 H2001 0.960 . S
C1994 C1992 1.381 . S
C1994 C1995 1.394 . S
C1994 H2002 0.930 . S
C1995 C1994 1.394 . S
C1995 C1996 1.383 . S
C1995 H2003 0.929 . S
C1996 C1995 1.383 . S
C1996 C1997 1.377 . S
C1997 H1981 0.930 . S
C1997 C1996 1.377 . S
C1997 C1998 1.379 . S
C1998 H1982 0.931 . S
C1998 C1992 1.383 . S
C1998 C1997 1.379 . S
H1999 C1993 0.959 . S
H2000 C1993 0.961 . S
H2001 C1993 0.960 . S
H2002 C1994 0.930 . S
H2003 C1995 0.929 . S
H2004 C2012 0.929 . S
H2005 C2014 0.930 . S
H2006 C2016 0.930 . S
H2007 C2019 0.929 . S
H2008 C2022 0.930 . S
H2009 C2024 0.960 . S
H2010 C2024 0.960 . S
H2011 C2024 0.960 . S
C2012 H2004 0.929 . S
C2012 C2013 1.377 . S
C2012 C2014 1.384 . S
C2013 C2012 1.377 . S
C2013 C2019 1.390 . S
C2014 H2005 0.930 . S
C2014 C2012 1.384 . S
C2014 C2015 1.372 . S
C2015 C2014 1.372 . S
C2015 C2016 1.400 . S
C2015 C2020 1.490 . S
C2016 H2006 0.930 . S
C2016 C2015 1.400 . S
C2016 C2019 1.386 . S
H2017 C2033 0.930 . S
H2018 C2034 0.931 . S
C2019 H2007 0.929 . S
C2019 C2013 1.390 . S
C2019 C2016 1.386 . S
C2020 C2015 1.490 . S
C2020 C2022 1.395 . S
C2020 C2023 1.403 . S
H2021 C2027 0.930 . S
C2022 H2008 0.930 . S
C2022 C2020 1.395 . S
C2022 C2025 1.403 . S
C2023 C2020 1.403 . S
C2023 C2024 1.524 . S
C2023 C2027 1.400 . S
C2024 H2009 0.960 . S
C2024 H2010 0.960 . S
C2024 H2011 0.960 . S
C2024 C2023 1.524 . S
C2025 C2022 1.403 . S
C2025 C2026 1.392 . S
C2025 C2029 1.495 . S
C2026 C2025 1.392 . S
C2026 C2027 1.385 . S
C2026 C2028 1.478 . S
C2027 H2021 0.930 . S
C2027 C2023 1.400 . S
C2027 C2026 1.385 . S
C2028 C2026 1.478 . S
C2028 C2030 1.381 . S
C2028 C2034 1.383 . S
C2029 C2025 1.495 . S
C2029 H2035 0.959 . S
C2029 H2036 0.961 . S
C2029 H2037 0.960 . S
C2030 C2028 1.381 . S
C2030 C2031 1.394 . S
C2030 H2038 0.930 . S
C2031 C2030 1.394 . S
C2031 C2032 1.383 . S
C2031 H2039 0.929 . S
C2032 C2031 1.383 . S
C2032 C2033 1.377 . S
C2033 H2017 0.930 . S
C2033 C2032 1.377 . S
C2033 C2034 1.379 . S
C2034 H2018 0.931 . S
C2034 C2028 1.383 . S
C2034 C2033 1.379 . S
H2035 C2029 0.959 . S
H2036 C2029 0.961 . S
H2037 C2029 0.960 . S
H2038 C2030 0.930 . S
H2039 C2031 0.929 . S
H2040 C2048 0.929 . S
H2041 C2050 0.930 . S
H2042 C2052 0.930 . S
H2043 C2055 0.929 . S
H2044 C2058 0.930 . S
H2045 C2060 0.960 . S
H2046 C2060 0.960 . S
H2047 C2060 0.960 . S
C2048 H2040 0.929 . S
C2048 C2049 1.377 . S
C2048 C2050 1.384 . S
C2049 C2048 1.377 . S
C2049 C2055 1.390 . S
C2050 H2041 0.930 . S
C2050 C2048 1.384 . S
C2050 C2051 1.372 . S
C2051 C2050 1.372 . S
C2051 C2052 1.400 . S
C2051 C2056 1.490 . S
C2052 H2042 0.930 . S
C2052 C2051 1.400 . S
C2052 C2055 1.386 . S
H2053 C2069 0.930 . S
H2054 C2070 0.931 . S
C2055 H2043 0.929 . S
C2055 C2049 1.390 . S
C2055 C2052 1.386 . S
C2056 C2051 1.490 . S
C2056 C2058 1.395 . S
C2056 C2059 1.403 . S
H2057 C2063 0.930 . S
C2058 H2044 0.930 . S
C2058 C2056 1.395 . S
C2058 C2061 1.403 . S
C2059 C2056 1.403 . S
C2059 C2060 1.524 . S
C2059 C2063 1.400 . S
C2060 H2045 0.960 . S
C2060 H2046 0.960 . S
C2060 H2047 0.960 . S
C2060 C2059 1.524 . S
C2061 C2058 1.403 . S
C2061 C2062 1.392 . S
C2061 C2065 1.495 . S
C2062 C2061 1.392 . S
C2062 C2063 1.385 . S
C2062 C2064 1.478 . S
C2063 H2057 0.930 . S
C2063 C2059 1.400 . S
C2063 C2062 1.385 . S
C2064 C2062 1.478 . S
C2064 C2066 1.381 . S
C2064 C2070 1.383 . S
C2065 C2061 1.495 . S
C2065 H2071 0.959 . S
C2065 H2072 0.961 . S
C2065 H2073 0.960 . S
C2066 C2064 1.381 . S
C2066 C2067 1.394 . S
C2066 H2074 0.930 . S
C2067 C2066 1.394 . S
C2067 C2068 1.383 . S
C2067 H2075 0.929 . S
C2068 C2067 1.383 . S
C2068 C2069 1.377 . S
C2069 H2053 0.930 . S
C2069 C2068 1.377 . S
C2069 C2070 1.379 . S
C2070 H2054 0.931 . S
C2070 C2064 1.383 . S
C2070 C2069 1.379 . S
H2071 C2065 0.959 . S
H2072 C2065 0.961 . S
H2073 C2065 0.960 . S
H2074 C2066 0.930 . S
H2075 C2067 0.929 . S
H2076 C2084 0.929 . S
H2077 C2086 0.930 . S
H2078 C2088 0.930 . S
H2079 C2091 0.929 . S
H2080 C2094 0.930 . S
H2081 C2096 0.960 . S
H2082 C2096 0.960 . S
H2083 C2096 0.960 . S
C2084 H2076 0.929 . S
C2084 C2085 1.377 . S
C2084 C2086 1.384 . S
C2085 C2084 1.377 . S
C2085 C2091 1.390 . S
C2086 H2077 0.930 . S
C2086 C2084 1.384 . S
C2086 C2087 1.372 . S
C2087 C2086 1.372 . S
C2087 C2088 1.400 . S
C2087 C2092 1.490 . S
C2088 H2078 0.930 . S
C2088 C2087 1.400 . S
C2088 C2091 1.386 . S
H2089 C2105 0.919 1_554 S
H2090 C2106 0.931 . S
C2091 H2079 0.929 . S
C2091 C2085 1.390 . S
C2091 C2088 1.386 . S
C2092 C2087 1.490 . S
C2092 C2094 1.395 . S
C2092 C2095 1.403 . S
H2093 C2099 0.930 . S
C2094 H2080 0.930 . S
C2094 C2092 1.395 . S
C2094 C2097 1.403 . S
C2095 C2092 1.403 . S
C2095 C2096 1.524 . S
C2095 C2099 1.400 . S
C2096 H2081 0.960 . S
C2096 H2082 0.960 . S
C2096 H2083 0.960 . S
C2096 C2095 1.524 . S
C2097 C2094 1.403 . S
C2097 C2098 1.392 . S
C2097 C2101 1.495 . S
C2098 C2097 1.392 . S
C2098 C2099 1.385 . S
C2098 C2100 1.478 . S
C2099 H2093 0.930 . S
C2099 C2095 1.400 . S
C2099 C2098 1.385 . S
C2100 C2098 1.478 . S
C2100 C2102 1.381 . S
C2100 C2106 1.383 . S
C2101 C2097 1.495 . S
C2101 H2107 0.959 . S
C2101 H2108 0.961 . S
C2101 H2109 0.960 . S
C2102 C2100 1.381 . S
C2102 C2103 1.394 . S
C2102 H2110 0.930 . S
C2103 C2102 1.394 . S
C2103 C2104 1.383 . S
C2103 H2111 0.929 . S
C2104 C2103 1.383 . S
C2104 C2105 1.379 . S
C2105 H2089 0.919 1_556 S
C2105 C2104 1.379 . S
C2105 C2106 1.388 . S
C2106 H2090 0.931 . S
C2106 C2100 1.383 . S
C2106 C2105 1.388 . S
H2107 C2101 0.959 . S
H2108 C2101 0.961 . S
H2109 C2101 0.960 . S
H2110 C2102 0.930 . S
H2111 C2103 0.929 . S
H2112 C2120 0.929 . S
H2113 C2122 0.930 . S
H2114 C2124 0.930 . S
H2115 C2127 0.929 . S
H2116 C2130 0.930 . S
H2117 C2132 0.960 . S
H2118 C2132 0.960 . S
H2119 C2132 0.960 . S
C2120 H2112 0.929 . S
C2120 C2121 1.377 . S
C2120 C2122 1.384 . S
C2121 C2120 1.377 . S
C2121 C2127 1.390 . S
C2122 H2113 0.930 . S
C2122 C2120 1.384 . S
C2122 C2123 1.372 . S
C2123 C2122 1.372 . S
C2123 C2124 1.400 . S
C2123 C2128 1.490 . S
C2124 H2114 0.930 . S
C2124 C2123 1.400 . S
C2124 C2127 1.386 . S
H2125 C2141 0.930 . S
H2126 C2142 0.931 . S
C2127 H2115 0.929 . S
C2127 C2121 1.390 . S
C2127 C2124 1.386 . S
C2128 C2123 1.490 . S
C2128 C2130 1.395 . S
C2128 C2131 1.403 . S
H2129 C2135 0.930 . S
C2130 H2116 0.930 . S
C2130 C2128 1.395 . S
C2130 C2133 1.403 . S
C2131 C2128 1.403 . S
C2131 C2132 1.524 . S
C2131 C2135 1.400 . S
C2132 H2117 0.960 . S
C2132 H2118 0.960 . S
C2132 H2119 0.960 . S
C2132 C2131 1.524 . S
C2133 C2130 1.403 . S
C2133 C2134 1.392 . S
C2133 C2137 1.495 . S
C2134 C2133 1.392 . S
C2134 C2135 1.385 . S
C2134 C2136 1.478 . S
C2135 H2129 0.930 . S
C2135 C2131 1.400 . S
C2135 C2134 1.385 . S
C2136 C2134 1.478 . S
C2136 C2138 1.381 . S
C2136 C2142 1.383 . S
C2137 C2133 1.495 . S
C2137 H2143 0.959 . S
C2137 H2144 0.961 . S
C2137 H2145 0.960 . S
C2138 C2136 1.381 . S
C2138 C2139 1.394 . S
C2138 H2146 0.930 . S
C2139 C2138 1.394 . S
C2139 C2140 1.383 . S
C2139 H2147 0.929 . S
C2140 C2139 1.383 . S
C2140 C2141 1.377 . S
C2141 H2125 0.930 . S
C2141 C2140 1.377 . S
C2141 C2142 1.379 . S
C2142 H2126 0.931 . S
C2142 C2136 1.383 . S
C2142 C2141 1.379 . S
H2143 C2137 0.959 . S
H2144 C2137 0.961 . S
H2145 C2137 0.960 . S
H2146 C2138 0.930 . S
H2147 C2139 0.929 . S
H2148 C2156 0.929 . S
H2149 C2158 0.930 . S
H2150 C2160 0.930 . S
H2151 C2163 0.929 . S
H2152 C2166 0.930 . S
H2153 C2168 0.960 . S
H2154 C2168 0.960 . S
H2155 C2168 0.960 . S
C2156 H2148 0.929 . S
C2156 C2157 1.377 . S
C2156 C2158 1.384 . S
C2157 C2156 1.377 . S
C2157 C2163 1.390 . S
C2158 H2149 0.930 . S
C2158 C2156 1.384 . S
C2158 C2159 1.372 . S
C2159 C2158 1.372 . S
C2159 C2160 1.400 . S
C2159 C2164 1.490 . S
C2160 H2150 0.930 . S
C2160 C2159 1.400 . S
C2160 C2163 1.386 . S
H2161 C2177 0.930 . S
H2162 C2178 0.931 . S
C2163 H2151 0.929 . S
C2163 C2157 1.390 . S
C2163 C2160 1.386 . S
C2164 C2159 1.490 . S
C2164 C2166 1.395 . S
C2164 C2167 1.403 . S
H2165 C2171 0.930 . S
C2166 H2152 0.930 . S
C2166 C2164 1.395 . S
C2166 C2169 1.403 . S
C2167 C2164 1.403 . S
C2167 C2168 1.524 . S
C2167 C2171 1.400 . S
C2168 H2153 0.960 . S
C2168 H2154 0.960 . S
C2168 H2155 0.960 . S
C2168 C2167 1.524 . S
C2169 C2166 1.403 . S
C2169 C2170 1.392 . S
C2169 C2173 1.495 . S
C2170 C2169 1.392 . S
C2170 C2171 1.385 . S
C2170 C2172 1.478 . S
C2171 H2165 0.930 . S
C2171 C2167 1.400 . S
C2171 C2170 1.385 . S
C2172 C2170 1.478 . S
C2172 C2174 1.381 . S
C2172 C2178 1.383 . S
C2173 C2169 1.495 . S
C2173 H2179 0.959 . S
C2173 H2180 0.961 . S
C2173 H2181 0.960 . S
C2174 C2172 1.381 . S
C2174 C2175 1.394 . S
C2174 H2182 0.930 . S
C2175 C2174 1.394 . S
C2175 C2176 1.383 . S
C2175 H2183 0.929 . S
C2176 C2175 1.383 . S
C2176 C2177 1.377 . S
C2177 H2161 0.930 . S
C2177 C2176 1.377 . S
C2177 C2178 1.379 . S
C2178 H2162 0.931 . S
C2178 C2172 1.383 . S
C2178 C2177 1.379 . S
H2179 C2173 0.959 . S
H2180 C2173 0.961 . S
H2181 C2173 0.960 . S
H2182 C2174 0.930 . S
H2183 C2175 0.929 . S
H2184 C2192 0.929 . S
H2185 C2194 0.930 . S
H2186 C2196 0.930 . S
H2187 C2199 0.929 . S
H2188 C2202 0.930 . S
H2189 C2204 0.960 . S
H2190 C2204 0.960 . S
H2191 C2204 0.960 . S
C2192 H2184 0.929 . S
C2192 C2193 1.377 . S
C2192 C2194 1.384 . S
C2193 C2192 1.377 . S
C2193 C2199 1.390 . S
C2194 H2185 0.930 . S
C2194 C2192 1.384 . S
C2194 C2195 1.372 . S
C2195 C2194 1.372 . S
C2195 C2196 1.400 . S
C2195 C2200 1.490 . S
C2196 H2186 0.930 . S
C2196 C2195 1.400 . S
C2196 C2199 1.386 . S
H2197 C2213 0.930 . S
H2198 C2214 0.931 . S
C2199 H2187 0.929 . S
C2199 C2193 1.390 . S
C2199 C2196 1.386 . S
C2200 C2195 1.490 . S
C2200 C2202 1.395 . S
C2200 C2203 1.403 . S
H2201 C2207 0.930 . S
C2202 H2188 0.930 . S
C2202 C2200 1.395 . S
C2202 C2205 1.403 . S
C2203 C2200 1.403 . S
C2203 C2204 1.524 . S
C2203 C2207 1.400 . S
C2204 H2189 0.960 . S
C2204 H2190 0.960 . S
C2204 H2191 0.960 . S
C2204 C2203 1.524 . S
C2205 C2202 1.403 . S
C2205 C2206 1.392 . S
C2205 C2209 1.495 . S
C2206 C2205 1.392 . S
C2206 C2207 1.385 . S
C2206 C2208 1.478 . S
C2207 H2201 0.930 . S
C2207 C2203 1.400 . S
C2207 C2206 1.385 . S
C2208 C2206 1.478 . S
C2208 C2210 1.381 . S
C2208 C2214 1.383 . S
C2209 C2205 1.495 . S
C2209 H2215 0.959 . S
C2209 H2216 0.961 . S
C2209 H2217 0.960 . S
C2210 C2208 1.381 . S
C2210 C2211 1.394 . S
C2210 H2218 0.930 . S
C2211 C2210 1.394 . S
C2211 C2212 1.383 . S
C2211 H2219 0.929 . S
C2212 C2211 1.383 . S
C2212 C2213 1.377 . S
C2213 H2197 0.930 . S
C2213 C2212 1.377 . S
C2213 C2214 1.379 . S
C2214 H2198 0.931 . S
C2214 C2208 1.383 . S
C2214 C2213 1.379 . S
H2215 C2209 0.959 . S
H2216 C2209 0.961 . S
H2217 C2209 0.960 . S
H2218 C2210 0.930 . S
H2219 C2211 0.929 . S
H2220 C2228 0.927 1_455 S
H2221 C2230 0.930 . S
H2222 C2232 0.930 . S
H2223 C2235 0.929 . S
H2224 C2238 0.930 . S
H2225 C2240 0.960 . S
H2226 C2240 0.960 . S
H2227 C2240 0.960 . S
C2228 H2220 0.927 1_655 S
C2228 C2229 1.377 . S
C2228 C2230 1.384 . S
C2229 C2228 1.377 . S
C2229 C2235 1.390 . S
C2230 H2221 0.930 . S
C2230 C2228 1.384 . S
C2230 C2231 1.372 . S
C2231 C2230 1.372 . S
C2231 C2232 1.400 . S
C2231 C2236 1.490 . S
C2232 H2222 0.930 . S
C2232 C2231 1.400 . S
C2232 C2235 1.386 . S
H2233 C2249 0.930 . S
H2234 C2250 0.931 . S
C2235 H2223 0.929 . S
C2235 C2229 1.390 . S
C2235 C2232 1.386 . S
C2236 C2231 1.490 . S
C2236 C2238 1.395 . S
C2236 C2239 1.403 . S
H2237 C2243 0.930 . S
C2238 H2224 0.930 . S
C2238 C2236 1.395 . S
C2238 C2241 1.403 . S
C2239 C2236 1.403 . S
C2239 C2240 1.524 . S
C2239 C2243 1.400 . S
C2240 H2225 0.960 . S
C2240 H2226 0.960 . S
C2240 H2227 0.960 . S
C2240 C2239 1.524 . S
C2241 C2238 1.403 . S
C2241 C2242 1.392 . S
C2241 C2245 1.495 . S
C2242 C2241 1.392 . S
C2242 C2243 1.385 . S
C2242 C2244 1.478 . S
C2243 H2237 0.930 . S
C2243 C2239 1.400 . S
C2243 C2242 1.385 . S
C2244 C2242 1.478 . S
C2244 C2246 1.381 . S
C2244 C2250 1.383 . S
C2245 C2241 1.495 . S
C2245 H2251 0.959 . S
C2245 H2252 0.961 . S
C2245 H2253 0.960 . S
C2246 C2244 1.381 . S
C2246 C2247 1.394 . S
C2246 H2254 0.930 . S
C2247 C2246 1.394 . S
C2247 C2248 1.383 . S
C2247 H2255 0.929 . S
C2248 C2247 1.383 . S
C2248 C2249 1.377 . S
C2249 H2233 0.930 . S
C2249 C2248 1.377 . S
C2249 C2250 1.379 . S
C2250 H2234 0.931 . S
C2250 C2244 1.383 . S
C2250 C2249 1.379 . S
H2251 C2245 0.959 . S
H2252 C2245 0.961 . S
H2253 C2245 0.960 . S
H2254 C2246 0.930 . S
H2255 C2247 0.929 . S
C969 C301 0.906 . S
C988 C21 0.924 . S
C1005 C181 1.578 . S
C1024 C61 1.699 . S
C1041 C101 1.990 . S
C1060 C221 1.717 . S
C1077 C261 1.919 . S
C1096 C141 1.984 . S
C1113 C661 0.834 . S
C1132 C341 0.780 . S
C1149 C381 2.055 . S
C1168 C701 2.065 . S
C1185 C421 1.670 . S
C1204 C941 1.690 . S
C1221 C461 0.834 . S
C1240 C501 0.859 . S
C1257 C821 1.756 . S
C1276 C541 1.728 . S
C1293 C581 2.024 . S
C1312 C861 2.030 . S
C1329 C901 1.643 . S
C1348 C621 1.858 . S
C1365 C781 1.802 . S
C1384 C741 1.585 . S
C1401 C575 2.239 . S
C1420 C15 2.084 . S
C1437 C602 2.695 . S
C1456 C55 2.761 . S
C1473 C82 1.306 . S
C1492 C735 1.292 . S
C1509 C522 1.694 . S
C1528 C122 1.723 . S
C1545 C175 1.733 . S
C1564 C562 1.781 . S
C1581 C615 1.256 . S
C1600 C215 1.267 . S
C1617 C242 1.831 . S
C1636 C722 1.698 . S
C1653 C282 1.974 . S
C1672 C535 1.898 . S
C1689 C375 2.239 . S
C1708 C322 2.021 . S
C1725 C362 1.764 . S
C1744 C402 1.732 . S
C1761 C415 1.850 . S
C1780 C442 1.919 . S
C1797 C455 2.422 . S
C1816 C335 2.281 . S
C1833 C482 1.947 . S
C1852 C135 2.137 . S
C1869 C642 1.869 . S
C1888 C162 1.699 . S
C1905 C42 2.307 . S
C1924 C682 2.309 . S
C1941 C935 2.786 . S
C1960 C95 2.800 . S
C1977 C655 2.407 . S
C1996 C2 2.383 . S
C2013 C255 2.299 . S
C2032 C922 2.293 . S
C2049 C295 2.449 . S
C2068 C495 2.312 . S
C2085 C695 1.959 . S
C2104 C202 1.786 . S
C2121 C762 2.711 . S
C2140 C815 2.786 . S
C2157 C842 2.323 . S
C2176 C802 2.325 . S
C2193 C855 1.912 . S
C2212 C882 1.744 . S
C2229 C775 1.240 . S
C2248 C895 1.258 . S
