# Generated by pormake.
# Topology uoq, (4)-cn, num edge types: 1
# Building blocks:
#     Node 0, Type 0, BuildingBlock: KUFVIS_clean_sbu_0, # of connection points: 4
#     Node 1, Type 0, BuildingBlock: KUFVIS_clean_sbu_0, # of connection points: 4
#     Node 2, Type 0, BuildingBlock: KUFVIS_clean_sbu_0, # of connection points: 4
#     Node 3, Type 0, BuildingBlock: KUFVIS_clean_sbu_0, # of connection points: 4
#     Node 4, Type 0, BuildingBlock: KUFVIS_clean_sbu_0, # of connection points: 4
#     Node 5, Type 0, BuildingBlock: KUFVIS_clean_sbu_0, # of connection points: 4
#     Node 6, Type 0, BuildingBlock: KUFVIS_clean_sbu_0, # of connection points: 4
#     Node 7, Type 0, BuildingBlock: KUFVIS_clean_sbu_0, # of connection points: 4
#     Node 8, Type 0, BuildingBlock: KUFVIS_clean_sbu_0, # of connection points: 4
#     Node 9, Type 0, BuildingBlock: KUFVIS_clean_sbu_0, # of connection points: 4
#     Node 10, Type 0, BuildingBlock: KUFVIS_clean_sbu_0, # of connection points: 4
#     Node 11, Type 0, BuildingBlock: KUFVIS_clean_sbu_0, # of connection points: 4
#     Edge 12, Type (0, 0), BuildingBlock: EZIPEK_clean_linker_0, # of connection points: 2
#     Edge 13, Type (0, 0), BuildingBlock: EZIPEK_clean_linker_0, # of connection points: 2
#     Edge 14, Type (0, 0), BuildingBlock: EZIPEK_clean_linker_0, # of connection points: 2
#     Edge 15, Type (0, 0), BuildingBlock: EZIPEK_clean_linker_0, # of connection points: 2
#     Edge 16, Type (0, 0), BuildingBlock: EZIPEK_clean_linker_0, # of connection points: 2
#     Edge 17, Type (0, 0), BuildingBlock: EZIPEK_clean_linker_0, # of connection points: 2
#     Edge 18, Type (0, 0), BuildingBlock: EZIPEK_clean_linker_0, # of connection points: 2
#     Edge 19, Type (0, 0), BuildingBlock: EZIPEK_clean_linker_0, # of connection points: 2
#     Edge 20, Type (0, 0), BuildingBlock: EZIPEK_clean_linker_0, # of connection points: 2
#     Edge 21, Type (0, 0), BuildingBlock: EZIPEK_clean_linker_0, # of connection points: 2
#     Edge 22, Type (0, 0), BuildingBlock: EZIPEK_clean_linker_0, # of connection points: 2
#     Edge 23, Type (0, 0), BuildingBlock: EZIPEK_clean_linker_0, # of connection points: 2
#     Edge 24, Type (0, 0), BuildingBlock: EZIPEK_clean_linker_0, # of connection points: 2
#     Edge 25, Type (0, 0), BuildingBlock: EZIPEK_clean_linker_0, # of connection points: 2
#     Edge 26, Type (0, 0), BuildingBlock: EZIPEK_clean_linker_0, # of connection points: 2
#     Edge 27, Type (0, 0), BuildingBlock: EZIPEK_clean_linker_0, # of connection points: 2
#     Edge 28, Type (0, 0), BuildingBlock: EZIPEK_clean_linker_0, # of connection points: 2
#     Edge 29, Type (0, 0), BuildingBlock: EZIPEK_clean_linker_0, # of connection points: 2
#     Edge 30, Type (0, 0), BuildingBlock: EZIPEK_clean_linker_0, # of connection points: 2
#     Edge 31, Type (0, 0), BuildingBlock: EZIPEK_clean_linker_0, # of connection points: 2
#     Edge 32, Type (0, 0), BuildingBlock: EZIPEK_clean_linker_0, # of connection points: 2
#     Edge 33, Type (0, 0), BuildingBlock: EZIPEK_clean_linker_0, # of connection points: 2
#     Edge 34, Type (0, 0), BuildingBlock: EZIPEK_clean_linker_0, # of connection points: 2
#     Edge 35, Type (0, 0), BuildingBlock: EZIPEK_clean_linker_0, # of connection points: 2
# Relax obj value: 0.140
# Max RMSD: 0.132
# Mean RMSD: 0.132
data_MOF--net-uoq--node1-KUFVIS_clean_sbu_0--edge1-EZIPEK_clean_linker_0
_symmetry_space_group_name_H-M    P1
_symmetry_Int_Tables_number       1
_symmetry_cell_setting            triclinic
loop_
_symmetry_equiv_pos_as_xyz
'x, y, z'
_cell_length_a     43.621562
_cell_length_b     43.614853
_cell_length_c     15.965872
_cell_angle_alpha  89.67654
_cell_angle_beta   90.169945
_cell_angle_gamma 120.07439
loop_
_atom_site_label
_atom_site_type_symbol
_atom_site_fract_x
_atom_site_fract_y
_atom_site_fract_z
_atom_type_partial_charge
Mn0 Mn 0.30179 0.45396 0.25819 0.0
Mn1 Mn 0.32229 0.45206 0.46537 0.0
C2 C 0.27774 0.47132 0.36516 0.0
C3 C 0.26605 0.43332 0.13236 0.0
C4 C 0.37088 0.5097 0.34531 0.0
O5 O 0.32204 0.41954 0.25726 0.0
O6 O 0.33573 0.42466 0.39518 0.0
C7 C 0.27175 0.37561 0.49227 0.0
N8 N 0.28494 0.40998 0.51546 0.0
C9 C 0.24881 0.39216 0.63945 0.0
C10 C 0.23504 0.35659 0.61719 0.0
C11 C 0.24632 0.3483 0.54277 0.0
C12 C 0.27342 0.41825 0.58542 0.0
H13 H 0.28064 0.36908 0.43588 0.0
C14 C 0.33483 0.41239 0.32273 0.0
O15 O 0.29921 0.45748 0.13293 0.0
O16 O 0.25432 0.41868 0.20523 0.0
N17 N 0.31037 0.47705 0.54528 0.0
C18 C 0.32771 0.51246 0.56109 0.0
C19 C 0.31899 0.52523 0.63235 0.0
C20 C 0.29368 0.50132 0.68909 0.0
C21 C 0.27771 0.46485 0.67448 0.0
C22 C 0.28707 0.45375 0.60158 0.0
H23 H 0.3487 0.53072 0.521 0.0
O24 O 0.27933 0.48278 0.28925 0.0
O25 O 0.29018 0.45034 0.37695 0.0
O26 O 0.35184 0.49641 0.27996 0.0
O27 O 0.36177 0.49625 0.41865 0.0
C28 C 0.25327 0.43905 0.73005 0.0
C29 C 0.23882 0.40274 0.7127 0.0
H30 H 0.21567 0.33546 0.6565 0.0
H31 H 0.23573 0.32092 0.52484 0.0
H32 H 0.33227 0.55341 0.64434 0.0
H33 H 0.28722 0.51122 0.74437 0.0
H34 H 0.24533 0.44681 0.78619 0.0
H35 H 0.21984 0.38322 0.75576 0.0
Mn36 Mn 0.85532 0.29787 0.58849 0.0
Mn37 Mn 0.88193 0.31702 0.79361 0.0
C38 C 0.81625 0.27295 0.70029 0.0
C39 C 0.83658 0.26141 0.46593 0.0
C40 C 0.86964 0.36569 0.68141 0.0
O41 O 0.90977 0.31911 0.57917 0.0
O42 O 0.92182 0.33074 0.71755 0.0
C43 C 0.90667 0.26535 0.81397 0.0
N44 N 0.88659 0.27918 0.84082 0.0
C45 C 0.86813 0.24166 0.96313 0.0
C46 C 0.88885 0.22719 0.93703 0.0
C47 C 0.90798 0.2389 0.86174 0.0
C48 C 0.86734 0.26745 0.912 0.0
H49 H 0.92148 0.27443 0.75658 0.0
C50 C 0.93128 0.33108 0.64194 0.0
O51 O 0.8457 0.29465 0.46349 0.0
O52 O 0.84252 0.25051 0.53667 0.0
N53 N 0.8462 0.30537 0.87693 0.0
C54 C 0.82793 0.32241 0.89405 0.0
C55 C 0.80709 0.31353 0.96678 0.0
C56 C 0.80607 0.28802 0.02254 0.0
C57 C 0.82613 0.27181 1.00537 0.0
C58 C 0.84629 0.28164 0.93169 0.0
H59 H 0.82913 0.34258 0.85239 0.0
O60 O 0.80478 0.27504 0.62689 0.0
O61 O 0.84991 0.2856 0.70734 0.0
O62 O 0.86337 0.34775 0.61404 0.0
O63 O 0.87652 0.35637 0.75158 0.0
C64 C 0.827 0.24636 0.0586 0.0
C65 C 0.84791 0.23122 0.03736 0.0
H66 H 0.89009 0.20694 0.97401 0.0
H67 H 0.92389 0.22773 0.84087 0.0
H68 H 0.79199 0.32645 0.98002 0.0
H69 H 0.78994 0.28121 0.07852 0.0
H70 H 0.81153 0.23809 0.11573 0.0
H71 H 0.84805 0.21138 0.07819 0.0
Mn72 Mn 0.54822 0.84744 0.96057 0.0
Mn73 Mn 0.55476 0.87661 0.16267 0.0
C74 C 0.53753 0.81069 0.07558 0.0
C75 C 0.56848 0.83051 0.83965 0.0
C76 C 0.49126 0.85692 0.05268 0.0
O77 O 0.57836 0.90189 0.94611 0.0
O78 O 0.57784 0.91583 0.08256 0.0
C79 C 0.63251 0.90864 0.18004 0.0
N80 N 0.59919 0.88618 0.20868 0.0
C81 C 0.62201 0.87265 0.33217 0.0
C82 C 0.65657 0.89575 0.30407 0.0
C83 C 0.66183 0.91361 0.22732 0.0
C84 C 0.59385 0.86819 0.28141 0.0
H85 H 0.63664 0.9227 0.12177 0.0
C86 C 0.58657 0.92429 1.00618 0.0
O87 O 0.54216 0.8364 0.83645 0.0
O88 O 0.58545 0.83816 0.91033 0.0
N89 N 0.5338 0.84178 0.24978 0.0
C90 C 0.49883 0.82149 0.26984 0.0
C91 C 0.48902 0.8014 0.34411 0.0
C92 C 0.51525 0.80341 0.39873 0.0
C93 C 0.55106 0.82584 0.37902 0.0
C94 C 0.55922 0.84493 0.30359 0.0
H95 H 0.47848 0.82043 0.22922 0.0
O96 O 0.52398 0.79745 1.00325 0.0
O97 O 0.5566 0.84473 0.07969 0.0
O98 O 0.50372 0.85139 0.98553 0.0
O99 O 0.50811 0.8661 0.12184 0.0
C100 C 0.57897 0.83026 0.43167 0.0
C101 C 0.61442 0.85365 0.40821 0.0
H102 H 0.67925 0.89985 0.34073 0.0
H103 H 0.68841 0.93141 0.20503 0.0
H104 H 0.4613 0.7846 0.35951 0.0
H105 H 0.50759 0.78794 0.45606 0.0
H106 H 0.57348 0.81573 0.49016 0.0
H107 H 0.63569 0.85661 0.44866 0.0
Mn108 Mn 0.69416 0.54082 0.29207 0.0
Mn109 Mn 0.66977 0.54214 0.49618 0.0
C110 C 0.71817 0.52575 0.40463 0.0
C111 C 0.732 0.56224 0.17134 0.0
C112 C 0.62524 0.48297 0.37594 0.0
O113 O 0.67215 0.57364 0.28512 0.0
O114 O 0.6565 0.56923 0.42184 0.0
C115 C 0.71815 0.61881 0.52535 0.0
N116 N 0.70556 0.58444 0.54852 0.0
C117 C 0.74067 0.60235 0.67429 0.0
C118 C 0.75387 0.63791 0.65188 0.0
C119 C 0.74278 0.64616 0.57668 0.0
C120 C 0.7168 0.57623 0.61958 0.0
H121 H 0.70942 0.6253 0.46833 0.0
C122 C 0.65841 0.58111 0.34784 0.0
O123 O 0.69917 0.53731 0.16684 0.0
O124 O 0.74178 0.57768 0.24371 0.0
N125 N 0.68139 0.51748 0.57877 0.0
C126 C 0.66481 0.48197 0.59407 0.0
C127 C 0.67322 0.46927 0.66646 0.0
C128 C 0.6976 0.49325 0.72437 0.0
C129 C 0.71299 0.52973 0.70978 0.0
C130 C 0.7038 0.54079 0.63599 0.0
H131 H 0.64469 0.46351 0.55253 0.0
O132 O 0.71823 0.51418 0.3301 0.0
O133 O 0.70387 0.54525 0.41205 0.0
O134 O 0.64497 0.4967 0.31164 0.0
O135 O 0.63202 0.49744 0.44802 0.0
C136 C 0.73669 0.55553 0.76619 0.0
C137 C 0.75054 0.59182 0.74838 0.0
H138 H 0.77266 0.65908 0.69171 0.0
H139 H 0.75292 0.67354 0.55869 0.0
H140 H 0.66052 0.44106 0.67822 0.0
H141 H 0.70392 0.48337 0.78034 0.0
H142 H 0.74446 0.54778 0.82343 0.0
H143 H 0.76892 0.61143 0.79176 0.0
Mn144 Mn 0.14103 0.7114 0.61221 0.0
Mn145 Mn 0.11343 0.66807 0.8006 0.0
C146 C 0.17275 0.73645 0.73487 0.0
C147 C 0.15628 0.75338 0.49751 0.0
C148 C 0.1431 0.64441 0.66419 0.0
O149 O 0.08673 0.68207 0.59481 0.0
O150 O 0.07488 0.6527 0.71929 0.0
C151 C 0.06073 0.68656 0.86306 0.0
N152 N 0.09008 0.68369 0.87537 0.0
C153 C 0.08657 0.68859 0.02478 0.0
C154 C 0.05643 0.69186 1.01355 0.0
C155 C 0.04365 0.69116 0.93223 0.0
C156 C 0.1027 0.68455 0.9534 0.0
H157 H 0.05048 0.68528 0.80115 0.0
C158 C 0.06525 0.65968 0.64939 0.0
O159 O 0.15382 0.72281 0.49101 0.0
O160 O 0.14623 0.75875 0.57005 0.0
N161 N 0.14804 0.68096 0.88665 0.0
C162 C 0.17978 0.68212 0.88508 0.0
C163 C 0.19781 0.68559 0.96062 0.0
C164 C 0.18247 0.68689 0.03689 0.0
C165 C 0.14979 0.68582 0.03653 0.0
C166 C 0.13365 0.68337 0.95924 0.0
H167 H 0.19097 0.68014 0.82672 0.0
O168 O 0.18873 0.74001 0.66375 0.0
O169 O 0.13905 0.71385 0.73675 0.0
O170 O 0.14473 0.66622 0.60932 0.0
O171 O 0.1347 0.64523 0.73907 0.0
C172 C 0.13274 0.68748 0.10961 0.0
C173 C 0.10137 0.68929 0.10382 0.0
H174 H 0.04301 0.69512 0.06682 0.0
H175 H 0.02039 0.69363 0.92298 0.0
H176 H 0.22313 0.68664 0.96021 0.0
H177 H 0.19622 0.68916 0.09518 0.0
H178 H 0.1437 0.68749 0.1704 0.0
H179 H 0.08895 0.69142 0.16041 0.0
Mn180 Mn 0.44266 0.14506 0.93173 0.0
Mn181 Mn 0.46046 0.1222 0.12521 0.0
C182 C 0.44653 0.17722 0.05198 0.0
C183 C 0.41425 0.15674 0.81447 0.0
C184 C 0.51313 0.1509 0.98616 0.0
O185 O 0.41998 0.09077 0.92114 0.0
O186 O 0.43839 0.08164 0.04827 0.0
C187 C 0.39186 0.067 0.19636 0.0
N188 N 0.4223 0.09877 0.2033 0.0
C189 C 0.41428 0.09937 0.35264 0.0
C190 C 0.38242 0.06707 0.34633 0.0
C191 C 0.37108 0.05092 0.26773 0.0
C192 C 0.43353 0.11441 0.279 0.0
H193 H 0.38364 0.05399 0.13708 0.0
C194 C 0.42169 0.07066 0.9787 0.0
O195 O 0.44319 0.15588 0.80765 0.0
O196 O 0.39933 0.14733 0.8879 0.0
N197 N 0.48083 0.15933 0.20593 0.0
C198 C 0.50991 0.19217 0.19928 0.0
C199 C 0.52332 0.21327 0.27114 0.0
C200 C 0.50707 0.20001 0.34922 0.0
C201 C 0.47702 0.16611 0.35432 0.0
C202 C 0.46437 0.14677 0.28015 0.0
H203 H 0.5227 0.20199 0.13962 0.0
O204 O 0.45912 0.19291 0.9805 0.0
O205 O 0.43785 0.1442 0.05642 0.0
O206 O 0.49238 0.15092 0.93073 0.0
O207 O 0.5044 0.14397 0.06192 0.0
C208 C 0.45875 0.15096 0.42969 0.0
C209 C 0.42748 0.1175 0.42893 0.0
H210 H 0.36647 0.05445 0.40135 0.0
H211 H 0.34668 0.02582 0.26235 0.0
H212 H 0.54639 0.23947 0.26658 0.0
H213 H 0.51768 0.21621 0.40465 0.0
H214 H 0.46805 0.16513 0.48824 0.0
H215 H 0.41328 0.10644 0.48696 0.0
Mn216 Mn 0.56102 0.70486 0.4576 0.0
Mn217 Mn 0.56829 0.68678 0.25232 0.0
C218 C 0.54535 0.72935 0.34803 0.0
C219 C 0.57957 0.73985 0.58363 0.0
C220 C 0.50764 0.63715 0.36372 0.0
O221 O 0.59462 0.68419 0.46568 0.0
O222 O 0.59507 0.67321 0.32734 0.0
C223 C 0.64446 0.73973 0.23332 0.0
N224 N 0.61047 0.72523 0.20589 0.0
C225 C 0.62905 0.76227 0.08287 0.0
C226 C 0.66434 0.7773 0.1093 0.0
C227 C 0.67204 0.76623 0.18535 0.0
C228 C 0.60266 0.73658 0.1344 0.0
H229 H 0.65034 0.73112 0.2913 0.0
C230 C 0.60433 0.67267 0.40281 0.0
O231 O 0.55518 0.70672 0.58199 0.0
O232 O 0.59536 0.75185 0.51213 0.0
N233 N 0.5437 0.69799 0.1692 0.0
C234 C 0.50838 0.68009 0.15125 0.0
C235 C 0.4961 0.68855 0.07824 0.0
C236 C 0.52034 0.71427 0.02266 0.0
C237 C 0.55668 0.73108 0.04019 0.0
C238 C 0.56731 0.72186 0.11445 0.0
H239 H 0.48963 0.65959 0.19249 0.0
O240 O 0.53239 0.72702 0.42227 0.0
O241 O 0.56722 0.71777 0.3393 0.0
O242 O 0.51947 0.65489 0.43127 0.0
O243 O 0.52376 0.64675 0.29365 0.0
C244 C 0.58281 0.7564 0.98658 0.0
C245 C 0.61896 0.77203 1.00791 0.0
H246 H 0.68569 0.79754 0.07206 0.0
H247 H 0.69918 0.77788 0.20661 0.0
H248 H 0.46803 0.67503 0.06448 0.0
H249 H 0.51074 0.72059 0.96637 0.0
H250 H 0.57543 0.76421 0.9291 0.0
H251 H 0.63876 0.79178 0.96662 0.0
Mn252 Mn 0.84618 0.54786 0.7867 0.0
Mn253 Mn 0.87085 0.55248 0.58082 0.0
C254 C 0.80554 0.53094 0.67775 0.0
C255 C 0.83086 0.56814 0.91192 0.0
C256 C 0.86075 0.4934 0.69838 0.0
O257 O 0.90084 0.58192 0.79187 0.0
O258 O 0.91125 0.58037 0.65366 0.0
C259 C 0.8939 0.62843 0.5577 0.0
N260 N 0.87438 0.59425 0.53188 0.0
C261 C 0.85557 0.61205 0.40829 0.0
C262 C 0.87596 0.64752 0.43294 0.0
C263 C 0.89491 0.65571 0.50854 0.0
C264 C 0.85496 0.58598 0.46103 0.0
H265 H 0.90844 0.63473 0.61541 0.0
C266 C 0.92159 0.59118 0.7278 0.0
O267 O 0.83927 0.54357 0.91149 0.0
O268 O 0.83417 0.5831 0.83927 0.0
N269 N 0.83485 0.52723 0.49844 0.0
C270 C 0.81841 0.49206 0.48011 0.0
C271 C 0.79767 0.47931 0.40744 0.0
C272 C 0.79542 0.50311 0.35179 0.0
C273 C 0.81445 0.53947 0.36875 0.0
C274 C 0.83427 0.55051 0.44289 0.0
H275 H 0.82214 0.47405 0.5189 0.0
O276 O 0.79512 0.5193 0.75322 0.0
O277 O 0.83906 0.55233 0.66775 0.0
O278 O 0.85351 0.50541 0.76369 0.0
O279 O 0.86699 0.50838 0.62641 0.0
C280 C 0.81506 0.56526 0.31424 0.0
C281 C 0.83554 0.60151 0.33393 0.0
H282 H 0.877 0.66862 0.3947 0.0
H283 H 0.91045 0.68297 0.52858 0.0
H284 H 0.78408 0.45129 0.39346 0.0
H285 H 0.77964 0.49325 0.29545 0.0
H286 H 0.79984 0.55754 0.25712 0.0
H287 H 0.83547 0.62103 0.29176 0.0
Mn288 Mn 0.29093 0.85197 0.1097 0.0
Mn289 Mn 0.32896 0.87299 0.9142 0.0
C290 C 0.26071 0.81953 0.99152 0.0
C291 C 0.25192 0.84067 0.22853 0.0
C292 C 0.35428 0.84479 0.05149 0.0
O293 O 0.32339 0.90624 0.11868 0.0
O294 O 0.34966 0.91378 0.99065 0.0
C295 C 0.31611 0.92904 0.84607 0.0
N296 N 0.31401 0.89698 0.83811 0.0
C297 C 0.30315 0.89626 0.68967 0.0
C298 C 0.30452 0.92894 0.697 0.0
C299 C 0.31082 0.94528 0.77568 0.0
C300 C 0.3081 0.88112 0.76236 0.0
H301 H 0.32195 0.94212 0.9054 0.0
C302 C 0.34525 0.92556 0.06036 0.0
O303 O 0.28179 0.84153 0.23416 0.0
O304 O 0.24586 0.85001 0.15545 0.0
N305 N 0.3101 0.83565 0.83388 0.0
C306 C 0.305 0.80229 0.84017 0.0
C307 C 0.29545 0.78087 0.76855 0.0
C308 C 0.29197 0.79429 0.69103 0.0
C309 C 0.29712 0.82869 0.68638 0.0
C310 C 0.30564 0.84837 0.76036 0.0
H311 H 0.30817 0.79227 0.89943 0.0
O312 O 0.25867 0.80397 0.06259 0.0
O313 O 0.28537 0.85236 0.98558 0.0
O314 O 0.33468 0.84595 0.10808 0.0
O315 O 0.35086 0.85024 0.9754 0.0
C316 C 0.29323 0.84392 0.61183 0.0
C317 C 0.29648 0.8778 0.61337 0.0
H318 H 0.30066 0.94165 0.64274 0.0
H319 H 0.31216 0.97063 0.78183 0.0
H320 H 0.29117 0.75423 0.77285 0.0
H321 H 0.28485 0.7778 0.63581 0.0
H322 H 0.2869 0.82947 0.55343 0.0
H323 H 0.29269 0.88891 0.55605 0.0
Mn324 Mn 0.42668 0.28347 0.42648 0.0
Mn325 Mn 0.43453 0.32287 0.23512 0.0
C326 C 0.43525 0.25941 0.30445 0.0
C327 C 0.40307 0.24127 0.54162 0.0
C328 C 0.49076 0.35321 0.36587 0.0
O329 O 0.39819 0.30894 0.44595 0.0
O330 O 0.40964 0.33549 0.31784 0.0
C331 C 0.3609 0.29664 0.17722 0.0
N332 N 0.39424 0.30275 0.16316 0.0
C333 C 0.38469 0.29777 1.01403 0.0
C334 C 0.34999 0.29081 0.02708 0.0
C335 C 0.33793 0.28988 0.10915 0.0
C336 C 0.40592 0.30321 0.08446 0.0
H337 H 0.35214 0.29715 0.23966 0.0
C338 C 0.39558 0.32916 0.3906 0.0
O339 O 0.42995 0.27288 0.54811 0.0
O340 O 0.38728 0.23483 0.46923 0.0
N341 N 0.45795 0.31288 0.14824 0.0
C342 C 0.49093 0.31676 0.14774 0.0
C343 C 0.50632 0.3163 0.07097 0.0
C344 C 0.48817 0.31321 0.99574 0.0
C345 C 0.45429 0.30943 0.99828 0.0
C346 C 0.43976 0.30858 0.07665 0.0
H347 H 0.50551 0.32083 0.20539 0.0
O348 O 0.4495 0.25849 0.37538 0.0
O349 O 0.42041 0.27882 0.30197 0.0
O350 O 0.47341 0.33177 0.42455 0.0
O351 O 0.47901 0.34981 0.29259 0.0
C352 C 0.43436 0.30657 0.92629 0.0
C353 C 0.39935 0.30016 0.93403 0.0
H354 H 0.33244 0.28629 0.97461 0.0
H355 H 0.31128 0.28478 0.11977 0.0
H356 H 0.53248 0.31927 0.0696 0.0
H357 H 0.5004 0.31361 0.93648 0.0
H358 H 0.44581 0.30928 0.86486 0.0
H359 H 0.38399 0.2972 0.87815 0.0
Mn360 Mn 0.15384 0.45693 0.74848 0.0
Mn361 Mn 0.12662 0.45109 0.5438 0.0
C362 C 0.19257 0.47193 0.63559 0.0
C363 C 0.17198 0.4378 0.87105 0.0
C364 C 0.13987 0.51157 0.65709 0.0
O365 O 0.09942 0.42311 0.75786 0.0
O366 O 0.08701 0.42421 0.62016 0.0
C367 C 0.10087 0.37462 0.52074 0.0
N368 N 0.12135 0.40881 0.49496 0.0
C369 C 0.13804 0.3905 0.36955 0.0
C370 C 0.11699 0.35506 0.39463 0.0
C371 C 0.09856 0.34711 0.47096 0.0
C372 C 0.13992 0.4168 0.42273 0.0
H373 H 0.08636 0.36844 0.57863 0.0
C374 C 0.07777 0.41396 0.69544 0.0
O375 O 0.16328 0.46217 0.87371 0.0
O376 O 0.16638 0.42175 0.79961 0.0
N377 N 0.16205 0.47573 0.45998 0.0
C378 C 0.18063 0.51123 0.44384 0.0
C379 C 0.20088 0.52367 0.37028 0.0
C380 C 0.20107 0.49949 0.31285 0.0
C381 C 0.18075 0.46305 0.32919 0.0
C382 C 0.1612 0.45222 0.40376 0.0
H383 H 0.18007 0.52997 0.48681 0.0
O384 O 0.20436 0.48479 0.70932 0.0
O385 O 0.15888 0.45099 0.62912 0.0
O386 O 0.14623 0.49942 0.72411 0.0
O387 O 0.13249 0.49562 0.58699 0.0
C388 C 0.17889 0.43703 0.2741 0.0
C389 C 0.15756 0.40079 0.29433 0.0
H390 H 0.11495 0.33376 0.35603 0.0
H391 H 0.08235 0.31983 0.49097 0.0
H392 H 0.21619 0.55183 0.3577 0.0
H393 H 0.21675 0.50918 0.25623 0.0
H394 H 0.19386 0.44458 0.2162 0.0
H395 H 0.15658 0.38102 0.25206 0.0
Mn396 Mn 0.70367 0.14974 0.08366 0.0
Mn397 Mn 0.684 0.12161 0.88006 0.0
C398 C 0.7313 0.18732 0.97215 0.0
C399 C 0.73874 0.16461 0.21003 0.0
C400 C 0.63821 0.13991 0.98534 0.0
O401 O 0.67861 0.09514 0.09629 0.0
O402 O 0.66741 0.08179 0.95846 0.0
C403 C 0.73143 0.09155 0.86587 0.0
N404 N 0.71997 0.11339 0.83633 0.0
C405 C 0.75722 0.12816 0.71455 0.0
C406 C 0.76937 0.10573 0.74361 0.0
C407 C 0.75659 0.08753 0.81993 0.0
C408 C 0.73266 0.13161 0.76393 0.0
H409 H 0.72139 0.07731 0.92387 0.0
C410 C 0.66594 0.07301 0.03522 0.0
O411 O 0.70679 0.15952 0.20749 0.0
O412 O 0.74929 0.1584 0.13947 0.0
N413 N 0.69808 0.15696 0.79431 0.0
C414 C 0.68318 0.17706 0.77423 0.0
C415 C 0.69324 0.19713 0.69998 0.0
C416 C 0.71764 0.19548 0.64576 0.0
C417 C 0.73155 0.17355 0.66592 0.0
C418 C 0.72068 0.1543 0.74106 0.0
H419 H 0.66383 0.17791 0.81468 0.0
O420 O 0.72999 0.20002 0.04442 0.0
O421 O 0.71652 0.15331 0.96612 0.0
O422 O 0.65586 0.14636 0.05359 0.0
O423 O 0.64655 0.13052 0.91774 0.0
C424 C 0.75569 0.16992 0.61432 0.0
C425 C 0.76862 0.14735 0.63876 0.0
H426 H 0.78856 0.10235 0.70799 0.0
H427 H 0.76589 0.07023 0.84291 0.0
H428 H 0.68206 0.21368 0.68435 0.0
H429 H 0.7253 0.21099 0.58869 0.0
H430 H 0.76471 0.18458 0.55611 0.0
H431 H 0.78751 0.14513 0.59907 0.0
C432 C 0.38531 0.40459 0.35558 0.0
C433 C 0.35023 0.38881 0.32362 0.0
C434 C 0.34005 0.33063 0.37189 0.0
C435 C 0.37506 0.3472 0.404 0.0
N436 N 0.42567 0.39987 0.45262 0.0
N437 N 0.29297 0.33696 0.30583 0.0
C438 C 0.39571 0.38431 0.40489 0.0
C439 C 0.32719 0.35167 0.33283 0.0
N440 N 0.40856 0.43937 0.33865 0.0
N441 N 0.31978 0.29462 0.3773 0.0
H442 H 0.28384 0.35167 0.27345 0.0
H443 H 0.27356 0.31076 0.31661 0.0
H444 H 0.32869 0.27958 0.40919 0.0
H445 H 0.29505 0.27973 0.34945 0.0
H446 H 0.43533 0.45205 0.35442 0.0
H447 H 0.40127 0.45426 0.30124 0.0
H448 H 0.44093 0.42713 0.46159 0.0
H449 H 0.43321 0.38471 0.48888 0.0
C450 C 0.98927 0.33354 0.65624 0.0
C451 C 0.97028 0.35081 0.63269 0.0
C452 C 0.01872 0.407 0.68496 0.0
C453 C 0.03894 0.39067 0.70357 0.0
N454 N 0.04418 0.33853 0.70895 0.0
N455 N 0.9704 0.40488 0.6048 0.0
C456 C 0.02423 0.35377 0.69023 0.0
C457 C 0.98636 0.38795 0.6405 0.0
N458 N 0.97338 0.29772 0.64627 0.0
N459 N 0.0307 0.44091 0.71084 0.0
H460 H 0.94674 0.39113 0.5713 0.0
H461 H 0.98207 0.43235 0.60202 0.0
H462 H 0.05415 0.45488 0.74503 0.0
H463 H 0.01598 0.45366 0.70549 0.0
H464 H 0.98374 0.28227 0.66811 0.0
H465 H 0.94894 0.28336 0.61612 0.0
H466 H 0.03693 0.31251 0.69486 0.0
H467 H 0.06887 0.35272 0.73803 0.0
C468 C 0.64494 0.97977 1.00299 0.0
C469 C 0.60768 0.96306 0.99334 0.0
C470 C 0.60886 0.01722 0.03954 0.0
C471 C 0.64613 0.0342 0.04797 0.0
N472 N 0.69951 0.03133 0.05108 0.0
N473 N 0.55487 0.96695 0.98618 0.0
C474 C 0.66415 0.01526 0.03346 0.0
C475 C 0.58991 0.98229 1.00677 0.0
N476 N 0.66167 0.96154 0.98162 0.0
N477 N 0.59179 0.03463 0.0648 0.0
H478 H 0.54106 0.9417 0.95983 0.0
H479 H 0.54038 0.97996 0.98824 0.0
H480 H 0.60542 0.05996 0.09074 0.0
H481 H 0.56438 0.02326 0.06664 0.0
H482 H 0.68895 0.97204 0.98291 0.0
H483 H 0.64786 0.93593 0.95733 0.0
H484 H 0.71472 0.01918 0.04613 0.0
H485 H 0.71328 0.05681 0.07619 0.0
C486 C 0.66901 0.64317 0.34936 0.0
C487 C 0.6447 0.6062 0.34329 0.0
C488 C 0.59927 0.6145 0.41336 0.0
C489 C 0.62212 0.65152 0.41252 0.0
N490 N 0.67914 0.70189 0.38505 0.0
N491 N 0.58491 0.55804 0.35359 0.0
C492 C 0.65727 0.66605 0.38221 0.0
C493 C 0.60921 0.59247 0.37034 0.0
N494 N 0.70345 0.65601 0.32616 0.0
N495 N 0.56782 0.60055 0.45534 0.0
H496 H 0.59184 0.54216 0.31963 0.0
H497 H 0.55787 0.54669 0.365 0.0
H498 H 0.56033 0.61646 0.48783 0.0
H499 H 0.55095 0.57348 0.46444 0.0
H500 H 0.72364 0.68192 0.33609 0.0
H501 H 0.71204 0.64006 0.29825 0.0
H502 H 0.70394 0.71541 0.35686 0.0
H503 H 0.67166 0.7182 0.41589 0.0
C504 C 0.97695 0.6487 0.70429 0.0
C505 C 0.9607 0.6131 0.73286 0.0
C506 C 0.00753 0.60671 0.66678 0.0
C507 C 0.02606 0.64303 0.64452 0.0
N508 N 0.02859 0.69947 0.64247 0.0
N509 N 0.96723 0.56341 0.76644 0.0
C510 C 0.01047 0.66423 0.66213 0.0
C511 C 0.97837 0.59388 0.72204 0.0
N512 N 0.96 0.66733 0.71794 0.0
N513 N 0.01914 0.585 0.63758 0.0
H514 H 0.94787 0.55616 0.81248 0.0
H515 H 0.9801 0.54872 0.76553 0.0
H516 H 0.04036 0.59438 0.59592 0.0
H517 H 0.00567 0.5577 0.64771 0.0
H518 H 0.96789 0.69219 0.69235 0.0
H519 H 0.93691 0.6568 0.75392 0.0
H520 H 0.02108 0.7175 0.66171 0.0
H521 H 0.05187 0.71084 0.60742 0.0
C522 C 0.34508 0.98222 0.0399 0.0
C523 C 0.36428 0.96487 0.0614 0.0
C524 C 0.41724 0.01267 0.99395 0.0
C525 C 0.39925 0.03148 0.97754 0.0
N526 N 0.34604 0.03508 0.98705 0.0
N527 N 0.42008 0.96734 0.07634 0.0
C528 C 0.36289 0.01616 0.99976 0.0
C529 C 0.40099 0.98165 0.04427 0.0
N530 N 0.30936 0.96528 0.05365 0.0
N531 N 0.45023 0.02502 0.9611 0.0
H532 H 0.4083 0.94512 0.11527 0.0
H533 H 0.44752 0.97926 0.07171 0.0
H534 H 0.46168 0.0472 0.922 0.0
H535 H 0.46428 0.01156 0.96524 0.0
H536 H 0.29274 0.97379 0.02916 0.0
H537 H 0.29602 0.94165 0.08741 0.0
H538 H 0.3214 0.0281 1.01226 0.0
H539 H 0.35744 0.05878 0.95337 0.0
C540 C 0.2314 0.46069 0.94309 0.0
C541 C 0.19493 0.43454 0.93842 0.0
C542 C 0.20512 0.4021 0.05411 0.0
C543 C 0.24198 0.42847 0.0568 0.0
N544 N 0.2899 0.46995 0.96802 0.0
N545 N 0.14803 0.37727 0.98145 0.0
C546 C 0.25511 0.45407 0.99099 0.0
C547 C 0.1821 0.40422 0.99158 0.0
N548 N 0.2441 0.49199 0.90057 0.0
N549 N 0.19229 0.37429 0.10891 0.0
H550 H 0.13063 0.37878 0.9389 0.0
H551 H 0.1374 0.35284 1.01157 0.0
H552 H 0.20875 0.36806 0.14341 0.0
H553 H 0.16545 0.35682 0.11882 0.0
H554 H 0.26985 0.51302 0.90873 0.0
H555 H 0.22836 0.49813 0.86298 0.0
H556 H 0.30006 0.48694 0.91651 0.0
H557 H 0.30683 0.46135 0.9901 0.0
C558 C 0.77572 0.22437 0.40122 0.0
C559 C 0.81242 0.23544 0.4002 0.0
C560 C 0.80028 0.19298 0.28413 0.0
C561 C 0.76359 0.18303 0.28447 0.0
N562 N 0.71664 0.17593 0.37636 0.0
N563 N 0.86031 0.2314 0.33849 0.0
C564 C 0.75134 0.19485 0.35256 0.0
C565 C 0.82483 0.21975 0.3413 0.0
N566 N 0.76374 0.24256 0.44706 0.0
N567 N 0.81101 0.17469 0.23457 0.0
H568 H 0.87833 0.25046 0.37968 0.0
H569 H 0.87245 0.22401 0.29332 0.0
H570 H 0.79315 0.15161 0.2035 0.0
H571 H 0.83681 0.1794 0.23144 0.0
H572 H 0.73784 0.23774 0.44251 0.0
H573 H 0.78032 0.26486 0.48214 0.0
H574 H 0.70697 0.18185 0.42984 0.0
H575 H 0.69912 0.15112 0.35154 0.0
C576 C 0.55015 0.77125 0.77284 0.0
C577 C 0.5736 0.80848 0.77406 0.0
C578 C 0.60752 0.80115 0.65865 0.0
C579 C 0.58355 0.76363 0.65838 0.0
N580 N 0.54595 0.71472 0.74953 0.0
N581 N 0.62817 0.85836 0.72713 0.0
C582 C 0.55891 0.74914 0.7255 0.0
C583 C 0.60346 0.82327 0.71961 0.0
N584 N 0.51928 0.75644 0.8173 0.0
N585 N 0.63488 0.81563 0.60287 0.0
H586 H 0.62515 0.87508 0.76856 0.0
H587 H 0.65237 0.87066 0.69597 0.0
H588 H 0.64334 0.80052 0.57067 0.0
H589 H 0.65002 0.84265 0.59053 0.0
H590 H 0.49986 0.72985 0.81128 0.0
H591 H 0.51161 0.77107 0.85402 0.0
H592 H 0.52993 0.70372 0.80218 0.0
H593 H 0.55598 0.69926 0.72604 0.0
C594 C 0.77007 0.54094 0.10174 0.0
C595 C 0.75874 0.56631 0.10519 0.0
C596 C 0.80054 0.59885 0.98869 0.0
C597 C 0.81196 0.57322 0.98723 0.0
N598 N 0.8204 0.53348 0.07785 0.0
N599 N 0.76736 0.62271 0.0602 0.0
C600 C 0.80053 0.54824 0.05413 0.0
C601 C 0.77535 0.59637 0.0511 0.0
N602 N 0.75215 0.50965 0.14452 0.0
N603 N 0.81459 0.62628 0.93275 0.0
H604 H 0.74847 0.62091 0.10293 0.0
H605 H 0.78051 0.64697 0.02917 0.0
H606 H 0.83741 0.63307 0.89849 0.0
H607 H 0.80429 0.64289 0.92173 0.0
H608 H 0.75777 0.48922 0.13735 0.0
H609 H 0.72979 0.50276 0.18065 0.0
H610 H 0.81431 0.517 0.13016 0.0
H611 H 0.84589 0.54253 0.05497 0.0
C612 C 0.17175 0.76599 0.34522 0.0
C613 C 0.17343 0.78021 0.42565 0.0
C614 C 0.22084 0.83823 0.36843 0.0
C615 C 0.2234 0.8212 0.29489 0.0
N616 N 0.20666 0.76497 0.23068 0.0
N617 N 0.19833 0.83287 0.51089 0.0
C618 C 0.20012 0.7841 0.28767 0.0
C619 C 0.19744 0.81739 0.43636 0.0
N620 N 0.14264 0.73485 0.32301 0.0
N621 N 0.24071 0.87426 0.37322 0.0
H622 H 0.17867 0.82042 0.55595 0.0
H623 H 0.21838 0.85804 0.52786 0.0
H624 H 0.25807 0.88959 0.32557 0.0
H625 H 0.23833 0.88906 0.42101 0.0
H626 H 0.13897 0.72516 0.26225 0.0
H627 H 0.1205 0.72173 0.36187 0.0
H628 H 0.19234 0.73737 0.22942 0.0
H629 H 0.22903 0.7762 0.19279 0.0
C630 C 0.41458 0.21149 0.75606 0.0
C631 C 0.40409 0.17512 0.74736 0.0
C632 C 0.38414 0.17808 0.60239 0.0
C633 C 0.3945 0.21462 0.61352 0.0
N634 N 0.40323 0.25833 0.71582 0.0
N635 N 0.37381 0.12222 0.66511 0.0
C636 C 0.40429 0.22861 0.69525 0.0
C637 C 0.3872 0.15791 0.67123 0.0
N638 N 0.43735 0.23115 0.81817 0.0
N639 N 0.37168 0.16255 0.52655 0.0
H640 H 0.37607 0.10733 0.71363 0.0
H641 H 0.35849 0.10698 0.61515 0.0
H642 H 0.36365 0.17389 0.48035 0.0
H643 H 0.36904 0.13834 0.50953 0.0
H644 H 0.44839 0.25853 0.8217 0.0
H645 H 0.44884 0.221 0.85851 0.0
H646 H 0.40628 0.26715 0.77727 0.0
H647 H 0.3943 0.27072 0.67421 0.0
C648 C 0.21016 0.44033 0.53643 0.0
C649 C 0.21617 0.47313 0.5688 0.0
C650 C 0.2603 0.50569 0.46008 0.0
C651 C 0.25416 0.47285 0.42823 0.0
N652 N 0.2175 0.4092 0.42044 0.0
N653 N 0.24925 0.53697 0.57052 0.0
C654 C 0.22733 0.44021 0.46187 0.0
C655 C 0.24209 0.50589 0.53354 0.0
N656 N 0.18909 0.40942 0.57912 0.0
N657 N 0.28239 0.53637 0.41818 0.0
H658 H 0.23533 0.53802 0.62211 0.0
H659 H 0.27017 0.56171 0.5537 0.0
H660 H 0.29471 0.5368 0.36217 0.0
H661 H 0.28632 0.56117 0.43402 0.0
H662 H 0.18492 0.38471 0.56159 0.0
H663 H 0.17839 0.40853 0.63793 0.0
H664 H 0.19692 0.38451 0.43872 0.0
H665 H 0.22738 0.40831 0.36173 0.0
C666 C 0.76657 0.25652 0.80202 0.0
C667 C 0.7922 0.24972 0.76543 0.0
C668 C 0.77981 0.20405 0.87025 0.0
C669 C 0.75377 0.21035 0.90513 0.0
N670 N 0.7224 0.24189 0.90988 0.0
N671 N 0.81845 0.21176 0.75824 0.0
C672 C 0.74744 0.23666 0.87261 0.0
C673 C 0.79735 0.22211 0.79711 0.0
N674 N 0.76026 0.28215 0.77245 0.0
N675 N 0.78824 0.18081 0.90693 0.0
H676 H 0.83086 0.22147 0.70062 0.0
H677 H 0.83086 0.22147 0.70062 0.0
H678 H 0.77831 0.16882 0.96488 0.0
H679 H 0.80686 0.17514 0.88144 0.0
H680 H 0.77332 0.29843 0.72135 0.0
H681 H 0.77332 0.29843 0.72135 0.0
H682 H 0.71581 0.26065 0.88945 0.0
H683 H 0.71581 0.26065 0.88945 0.0
C684 C 0.57202 0.79612 0.1746 0.0
C685 C 0.53843 0.78845 0.14342 0.0
C686 C 0.50842 0.74198 0.24877 0.0
C687 C 0.54204 0.75117 0.28254 0.0
N688 N 0.60515 0.79147 0.29078 0.0
N689 N 0.47466 0.75655 0.15193 0.0
C690 C 0.57367 0.77969 0.24943 0.0
C691 C 0.50655 0.7618 0.18024 0.0
N692 N 0.60226 0.81835 0.13118 0.0
N693 N 0.47856 0.71334 0.27967 0.0
H694 H 0.47239 0.7706 0.10175 0.0
H695 H 0.45059 0.74041 0.18165 0.0
H696 H 0.47905 0.69859 0.33041 0.0
H697 H 0.4537 0.70251 0.25194 0.0
H698 H 0.62747 0.8236 0.14806 0.0
H699 H 0.60216 0.82898 0.07267 0.0
H700 H 0.62896 0.81339 0.27258 0.0
H701 H 0.60711 0.78168 0.34904 0.0
C702 C 0.76729 0.55941 0.50371 0.0
C703 C 0.74174 0.52605 0.47072 0.0
C704 C 0.75483 0.4951 0.58053 0.0
C705 C 0.78057 0.52841 0.61274 0.0
N706 N 0.80561 0.59182 0.61955 0.0
N707 N 0.71631 0.46268 0.46472 0.0
C708 C 0.78516 0.5605 0.57844 0.0
C709 C 0.73699 0.49397 0.5052 0.0
N710 N 0.77547 0.58997 0.46124 0.0
N711 N 0.74642 0.46476 0.62373 0.0
H712 H 0.70355 0.46106 0.40839 0.0
H713 H 0.71447 0.43879 0.48205 0.0
H714 H 0.75776 0.46482 0.68119 0.0
H715 H 0.72566 0.43984 0.60774 0.0
H716 H 0.79499 0.61519 0.47907 0.0
H717 H 0.76528 0.59022 0.40233 0.0
H718 H 0.80883 0.61613 0.60093 0.0
H719 H 0.81682 0.59333 0.6782 0.0
C720 C 0.21563 0.79942 0.78365 0.0
C721 C 0.18955 0.7639 0.80087 0.0
C722 C 0.19656 0.77558 0.94856 0.0
C723 C 0.23089 0.8042 0.93043 0.0
N724 N 0.24146 0.85552 0.85068 0.0
N725 N 0.14035 0.75424 0.88377 0.0
C726 C 0.23322 0.82115 0.85313 0.0
C727 C 0.17375 0.75954 0.87994 0.0
N728 N 0.21823 0.81407 0.7068 0.0
N729 N 0.18247 0.76885 0.02668 0.0
H730 H 0.12562 0.75112 0.82956 0.0
H731 H 0.12963 0.75727 0.93944 0.0
H732 H 0.19561 0.7843 0.07851 0.0
H733 H 0.19561 0.7843 0.07851 0.0
H734 H 0.23375 0.84126 0.69683 0.0
H735 H 0.20304 0.79965 0.65599 0.0
H736 H 0.24756 0.87111 0.90433 0.0
H737 H 0.24756 0.87111 0.90433 0.0
C738 C 0.42267 0.218 0.09314 0.0
C739 C 0.43233 0.19237 0.114 0.0
C740 C 0.42256 0.19804 0.26018 0.0
C741 C 0.42722 0.23178 0.24022 0.0
N742 N 0.38402 0.2347 0.15351 0.0
N743 N 0.39308 0.14165 0.19643 0.0
C744 C 0.41432 0.23342 0.16022 0.0
C745 C 0.41927 0.17599 0.19245 0.0
N746 N 0.41246 0.22051 1.01416 0.0
N747 N 0.41325 0.18414 0.33855 0.0
H748 H 0.38286 0.12578 0.14336 0.0
H749 H 0.38286 0.12578 0.14336 0.0
H750 H 0.41131 0.19799 0.38894 0.0
H751 H 0.40468 0.15757 0.35038 0.0
H752 H 0.40246 0.23719 0.99984 0.0
H753 H 0.40994 0.20298 0.96733 0.0
H754 H 0.37038 0.23611 0.20565 0.0
H755 H 0.37038 0.23611 0.20565 0.0
C756 C 0.40749 0.57449 0.37725 0.0
C757 C 0.40464 0.54405 0.3383 0.0
C758 C 0.46902 0.5735 0.32436 0.0
C759 C 0.47235 0.60425 0.36343 0.0
N760 N 0.4443 0.63575 0.41894 0.0
N761 N 0.43103 0.51993 0.24753 0.0
C762 C 0.44144 0.6052 0.38819 0.0
C763 C 0.43491 0.5451 0.30366 0.0
N764 N 0.37731 0.57406 0.40161 0.0
N765 N 0.49847 0.57086 0.30964 0.0
H766 H 0.40627 0.50042 0.22627 0.0
H767 H 0.4521 0.52099 0.21446 0.0
H768 H 0.52396 0.59076 0.32535 0.0
H769 H 0.49731 0.5476 0.2897 0.0
H770 H 0.37656 0.59297 0.43955 0.0
H771 H 0.35231 0.55354 0.38493 0.0
H772 H 0.423 0.63974 0.42853 0.0
H773 H 0.46825 0.65828 0.43266 0.0
C774 C 0.83266 0.42861 0.66422 0.0
C775 C 0.86015 0.45902 0.70396 0.0
C776 C 0.89476 0.42938 0.72034 0.0
C777 C 0.86726 0.39853 0.68146 0.0
N778 N 0.80708 0.36655 0.62903 0.0
N779 N 0.90991 0.48263 0.79742 0.0
C780 C 0.83539 0.39753 0.65631 0.0
C781 C 0.88906 0.45776 0.74016 0.0
N782 N 0.80344 0.42929 0.63626 0.0
N783 N 0.92677 0.43203 0.7366 0.0
H784 H 0.90383 0.50138 0.81925 0.0
H785 H 0.92978 0.48155 0.83139 0.0
H786 H 0.93228 0.41197 0.72268 0.0
H787 H 0.94889 0.4554 0.7564 0.0
H788 H 0.78429 0.41035 0.59708 0.0
H789 H 0.79924 0.45018 0.65015 0.0
H790 H 0.78184 0.36284 0.6197 0.0
H791 H 0.80782 0.34336 0.61996 0.0
C792 C 0.42505 0.81959 0.02661 0.0
C793 C 0.45488 0.85196 0.05353 0.0
C794 C 0.41463 0.87006 0.11313 0.0
C795 C 0.38564 0.84138 0.07278 0.0
N796 N 0.36196 0.78705 0.99615 0.0
N797 N 0.47754 0.91093 0.10915 0.0
C798 C 0.39056 0.81555 0.03115 0.0
C799 C 0.44948 0.87791 0.0936 0.0
N800 N 0.42927 0.79218 1.00021 0.0
N801 N 0.40908 0.88972 0.17088 0.0
H802 H 0.50347 0.91858 0.09235 0.0
H803 H 0.47454 0.93188 0.1301 0.0
H804 H 0.38395 0.88436 0.18881 0.0
H805 H 0.42935 0.90883 0.20777 0.0
H806 H 0.40823 0.76679 0.98901 0.0
H807 H 0.45379 0.79379 0.99498 0.0
H808 H 0.36383 0.76976 0.95457 0.0
H809 H 0.33612 0.78134 1.00828 0.0
C810 C 0.58933 0.41699 0.40215 0.0
C811 C 0.592 0.44836 0.36757 0.0
C812 C 0.52791 0.41842 0.35166 0.0
C813 C 0.52496 0.38618 0.38073 0.0
N814 N 0.55331 0.35323 0.42265 0.0
N815 N 0.5653 0.47452 0.28334 0.0
C816 C 0.5558 0.38501 0.4038 0.0
C817 C 0.56171 0.44783 0.33476 0.0
N818 N 0.61911 0.41765 0.43104 0.0
N819 N 0.49821 0.42099 0.34044 0.0
H820 H 0.59 0.49476 0.26356 0.0
H821 H 0.54411 0.47406 0.25186 0.0
H822 H 0.47283 0.39994 0.35226 0.0
H823 H 0.49904 0.44485 0.32747 0.0
H824 H 0.61891 0.39733 0.46598 0.0
H825 H 0.64423 0.43957 0.42211 0.0
H826 H 0.57512 0.34988 0.43113 0.0
H827 H 0.52922 0.32951 0.42521 0.0
C828 C 0.11902 0.58426 0.60437 0.0
C829 C 0.14781 0.61413 0.64168 0.0
C830 C 0.17392 0.57775 0.68261 0.0
C831 C 0.14216 0.54681 0.65734 0.0
N832 N 0.08233 0.52053 0.604 0.0
N833 N 0.20404 0.64094 0.71137 0.0
C834 C 0.11424 0.5501 0.62021 0.0
C835 C 0.17577 0.61129 0.67904 0.0
N836 N 0.09633 0.5886 0.55324 0.0
N837 N 0.2028 0.57542 0.70659 0.0
H838 H 0.20778 0.66622 0.70043 0.0
H839 H 0.22308 0.64051 0.75006 0.0
H840 H 0.20263 0.55156 0.71167 0.0
H841 H 0.2278 0.59731 0.71634 0.0
H842 H 0.07676 0.56819 0.51763 0.0
H843 H 0.09951 0.61341 0.53945 0.0
H844 H 0.05984 0.52145 0.58593 0.0
H845 H 0.07722 0.49494 0.61654 0.0
C846 C 0.57497 0.11771 0.94464 0.0
C847 C 0.60685 0.14476 0.98101 0.0
C848 C 0.57909 0.1813 0.99979 0.0
C849 C 0.54755 0.15419 0.96311 0.0
N850 N 0.52034 0.10308 0.87361 0.0
N851 N 0.64218 0.20622 0.02159 0.0
C852 C 0.54717 0.1246 0.92635 0.0
C853 C 0.60984 0.17779 1.00255 0.0
N854 N 0.57035 0.0847 0.93157 0.0
N855 N 0.57943 0.21039 0.032 0.0
H856 H 0.66549 0.20514 0.02213 0.0
H857 H 0.6465 0.23177 0.0296 0.0
H858 H 0.5586 0.21526 0.02192 0.0
H859 H 0.5997 0.22892 0.06976 0.0
H860 H 0.54617 0.06303 0.91405 0.0
H861 H 0.5895 0.07794 0.94637 0.0
H862 H 0.52061 0.0831 0.83868 0.0
H863 H 0.49978 0.10763 0.85767 0.0
loop_
_geom_bond_atom_site_label_1
_geom_bond_atom_site_label_2
_geom_bond_distance
_geom_bond_site_symmetry_2
_ccdc_geom_bond_type
Mn0 O5 2.095 . S
Mn0 O15 2.162 . S
Mn0 O16 2.297 . S
Mn0 O24 2.385 . S
Mn0 O25 2.209 . S
Mn0 O26 2.094 . S
Mn1 O6 2.121 . S
Mn1 N8 2.257 . S
Mn1 N17 2.282 . S
Mn1 O25 2.215 . S
Mn1 O27 2.117 . S
C2 O24 1.234 . S
C2 O25 1.283 . S
C3 O15 1.281 . S
C3 O16 1.236 . S
C4 O26 1.240 . S
C4 O27 1.264 . S
O5 Mn0 2.095 . S
O5 C14 1.250 . S
O6 Mn1 2.121 . S
O6 C14 1.258 . S
C7 N8 1.326 . S
C7 C11 1.460 . S
C7 H13 0.929 . S
N8 Mn1 2.257 . S
N8 C7 1.326 . S
N8 C12 1.362 . S
C9 C10 1.258 . S
C9 C12 1.431 . S
C9 C29 1.449 . S
C10 C9 1.258 . S
C10 C11 1.477 . S
C10 H30 0.931 . S
C11 C7 1.460 . S
C11 C10 1.477 . S
C11 H31 0.930 . S
C12 N8 1.362 . S
C12 C9 1.431 . S
C12 C22 1.476 . S
H13 C7 0.929 . S
C14 O5 1.250 . S
C14 O6 1.258 . S
O15 Mn0 2.162 . S
O15 C3 1.281 . S
O16 Mn0 2.297 . S
O16 C3 1.236 . S
N17 Mn1 2.282 . S
N17 C18 1.328 . S
N17 C22 1.318 . S
C18 N17 1.328 . S
C18 C19 1.457 . S
C18 H23 0.929 . S
C19 C18 1.457 . S
C19 C20 1.291 . S
C19 H32 0.931 . S
C20 C19 1.291 . S
C20 C21 1.373 . S
C20 H33 0.929 . S
C21 C20 1.373 . S
C21 C22 1.396 . S
C21 C28 1.403 . S
C22 C12 1.476 . S
C22 N17 1.318 . S
C22 C21 1.396 . S
H23 C18 0.929 . S
O24 Mn0 2.385 . S
O24 C2 1.234 . S
O25 Mn0 2.209 . S
O25 Mn1 2.215 . S
O25 C2 1.283 . S
O26 Mn0 2.094 . S
O26 C4 1.240 . S
O27 Mn1 2.117 . S
O27 C4 1.264 . S
C28 C21 1.403 . S
C28 C29 1.399 . S
C28 H34 0.929 . S
C29 C9 1.449 . S
C29 C28 1.399 . S
C29 H35 0.930 . S
H30 C10 0.931 . S
H31 C11 0.930 . S
H32 C19 0.931 . S
H33 C20 0.929 . S
H34 C28 0.929 . S
H35 C29 0.930 . S
Mn36 O41 2.095 . S
Mn36 O51 2.162 . S
Mn36 O52 2.297 . S
Mn36 O60 2.385 . S
Mn36 O61 2.209 . S
Mn36 O62 2.094 . S
Mn37 O42 2.121 . S
Mn37 N44 2.257 . S
Mn37 N53 2.282 . S
Mn37 O61 2.215 . S
Mn37 O63 2.117 . S
C38 O60 1.234 . S
C38 O61 1.283 . S
C39 O51 1.281 . S
C39 O52 1.236 . S
C40 O62 1.240 . S
C40 O63 1.264 . S
O41 Mn36 2.095 . S
O41 C50 1.250 . S
O42 Mn37 2.121 . S
O42 C50 1.258 . S
C43 N44 1.326 . S
C43 C47 1.460 . S
C43 H49 0.929 . S
N44 Mn37 2.257 . S
N44 C43 1.326 . S
N44 C48 1.362 . S
C45 C46 1.258 . S
C45 C48 1.431 1_554 S
C45 C65 1.449 . S
C46 C45 1.258 . S
C46 C47 1.477 1_554 S
C46 H66 0.931 . S
C47 C43 1.460 . S
C47 C46 1.477 1_556 S
C47 H67 0.930 . S
C48 N44 1.362 . S
C48 C45 1.431 1_556 S
C48 C58 1.476 . S
H49 C43 0.929 . S
C50 O41 1.250 . S
C50 O42 1.258 . S
O51 Mn36 2.162 . S
O51 C39 1.281 . S
O52 Mn36 2.297 . S
O52 C39 1.236 . S
N53 Mn37 2.282 . S
N53 C54 1.328 . S
N53 C58 1.318 . S
C54 N53 1.328 . S
C54 C55 1.457 . S
C54 H59 0.929 . S
C55 C54 1.457 . S
C55 C56 1.291 1_556 S
C55 H68 0.931 . S
C56 C55 1.291 1_554 S
C56 C57 1.373 . S
C56 H69 0.929 . S
C57 C56 1.373 . S
C57 C58 1.396 1_554 S
C57 C64 1.403 . S
C58 C48 1.476 . S
C58 N53 1.318 . S
C58 C57 1.396 1_556 S
H59 C54 0.929 . S
O60 Mn36 2.385 . S
O60 C38 1.234 . S
O61 Mn36 2.209 . S
O61 Mn37 2.215 . S
O61 C38 1.283 . S
O62 Mn36 2.094 . S
O62 C40 1.240 . S
O63 Mn37 2.117 . S
O63 C40 1.264 . S
C64 C57 1.403 . S
C64 C65 1.399 . S
C64 H70 0.929 . S
C65 C45 1.449 . S
C65 C64 1.399 . S
C65 H71 0.930 . S
H66 C46 0.931 . S
H67 C47 0.930 . S
H68 C55 0.931 . S
H69 C56 0.929 . S
H70 C64 0.929 . S
H71 C65 0.930 . S
Mn72 O77 2.095 . S
Mn72 O87 2.162 . S
Mn72 O88 2.297 . S
Mn72 O96 2.385 . S
Mn72 O97 2.209 1_556 S
Mn72 O98 2.094 . S
Mn73 O78 2.121 . S
Mn73 N80 2.257 . S
Mn73 N89 2.282 . S
Mn73 O97 2.215 . S
Mn73 O99 2.117 . S
C74 O96 1.234 1_554 S
C74 O97 1.283 . S
C75 O87 1.281 . S
C75 O88 1.236 . S
C76 O98 1.234 1_554 S
C76 O99 1.270 . S
O77 Mn72 2.095 . S
O77 C86 1.250 . S
O78 Mn73 2.121 . S
O78 C86 1.258 1_554 S
C79 N80 1.326 . S
C79 C83 1.460 . S
C79 H85 0.929 . S
N80 Mn73 2.257 . S
N80 C79 1.326 . S
N80 C84 1.362 . S
C81 C82 1.258 . S
C81 C84 1.431 . S
C81 C101 1.449 . S
C82 C81 1.258 . S
C82 C83 1.477 . S
C82 H102 0.931 . S
C83 C79 1.460 . S
C83 C82 1.477 . S
C83 H103 0.930 . S
C84 N80 1.362 . S
C84 C81 1.431 . S
C84 C94 1.476 . S
H85 C79 0.929 . S
C86 O77 1.250 . S
C86 O78 1.258 1_556 S
O87 Mn72 2.162 . S
O87 C75 1.281 . S
O88 Mn72 2.297 . S
O88 C75 1.236 . S
N89 Mn73 2.282 . S
N89 C90 1.328 . S
N89 C94 1.318 . S
C90 N89 1.328 . S
C90 C91 1.457 . S
C90 H95 0.929 . S
C91 C90 1.457 . S
C91 C92 1.291 . S
C91 H104 0.931 . S
C92 C91 1.291 . S
C92 C93 1.373 . S
C92 H105 0.929 . S
C93 C92 1.373 . S
C93 C94 1.396 . S
C93 C100 1.403 . S
C94 C84 1.476 . S
C94 N89 1.318 . S
C94 C93 1.396 . S
H95 C90 0.929 . S
O96 Mn72 2.385 . S
O96 C74 1.234 1_556 S
O97 Mn72 2.209 1_554 S
O97 Mn73 2.215 . S
O97 C74 1.283 . S
O98 Mn72 2.094 . S
O98 C76 1.234 1_556 S
O99 Mn73 2.117 . S
O99 C76 1.270 . S
C100 C93 1.403 . S
C100 C101 1.399 . S
C100 H106 0.929 . S
C101 C81 1.449 . S
C101 C100 1.399 . S
C101 H107 0.930 . S
H102 C82 0.931 . S
H103 C83 0.930 . S
H104 C91 0.931 . S
H105 C92 0.929 . S
H106 C100 0.929 . S
H107 C101 0.930 . S
Mn108 O113 2.095 . S
Mn108 O123 2.162 . S
Mn108 O124 2.297 . S
Mn108 O132 2.385 . S
Mn108 O133 2.209 . S
Mn108 O134 2.094 . S
Mn109 O114 2.121 . S
Mn109 N116 2.257 . S
Mn109 N125 2.282 . S
Mn109 O133 2.215 . S
Mn109 O135 2.117 . S
C110 O132 1.234 . S
C110 O133 1.283 . S
C111 O123 1.281 . S
C111 O124 1.236 . S
C112 O134 1.240 . S
C112 O135 1.264 . S
O113 Mn108 2.095 . S
O113 C122 1.250 . S
O114 Mn109 2.121 . S
O114 C122 1.258 . S
C115 N116 1.326 . S
C115 C119 1.460 . S
C115 H121 0.929 . S
N116 Mn109 2.257 . S
N116 C115 1.326 . S
N116 C120 1.362 . S
C117 C118 1.258 . S
C117 C120 1.431 . S
C117 C137 1.449 . S
C118 C117 1.258 . S
C118 C119 1.477 . S
C118 H138 0.931 . S
C119 C115 1.460 . S
C119 C118 1.477 . S
C119 H139 0.930 . S
C120 N116 1.362 . S
C120 C117 1.431 . S
C120 C130 1.476 . S
H121 C115 0.929 . S
C122 O113 1.250 . S
C122 O114 1.258 . S
O123 Mn108 2.162 . S
O123 C111 1.281 . S
O124 Mn108 2.297 . S
O124 C111 1.236 . S
N125 Mn109 2.282 . S
N125 C126 1.328 . S
N125 C130 1.318 . S
C126 N125 1.328 . S
C126 C127 1.457 . S
C126 H131 0.929 . S
C127 C126 1.457 . S
C127 C128 1.291 . S
C127 H140 0.931 . S
C128 C127 1.291 . S
C128 C129 1.373 . S
C128 H141 0.929 . S
C129 C128 1.373 . S
C129 C130 1.396 . S
C129 C136 1.403 . S
C130 C120 1.476 . S
C130 N125 1.318 . S
C130 C129 1.396 . S
H131 C126 0.929 . S
O132 Mn108 2.385 . S
O132 C110 1.234 . S
O133 Mn108 2.209 . S
O133 Mn109 2.215 . S
O133 C110 1.283 . S
O134 Mn108 2.094 . S
O134 C112 1.240 . S
O135 Mn109 2.117 . S
O135 C112 1.264 . S
C136 C129 1.403 . S
C136 C137 1.399 . S
C136 H142 0.929 . S
C137 C117 1.449 . S
C137 C136 1.399 . S
C137 H143 0.930 . S
H138 C118 0.931 . S
H139 C119 0.930 . S
H140 C127 0.931 . S
H141 C128 0.929 . S
H142 C136 0.929 . S
H143 C137 0.930 . S
Mn144 O149 2.095 . S
Mn144 O159 2.162 . S
Mn144 O160 2.297 . S
Mn144 O168 2.385 . S
Mn144 O169 2.209 . S
Mn144 O170 2.094 . S
Mn145 O150 2.121 . S
Mn145 N152 2.257 . S
Mn145 N161 2.282 . S
Mn145 O169 2.215 . S
Mn145 O171 2.117 . S
C146 O168 1.234 . S
C146 O169 1.283 . S
C147 O159 1.281 . S
C147 O160 1.236 . S
C148 O170 1.240 . S
C148 O171 1.264 . S
O149 Mn144 2.095 . S
O149 C158 1.250 . S
O150 Mn145 2.121 . S
O150 C158 1.258 . S
C151 N152 1.326 . S
C151 C155 1.460 . S
C151 H157 0.929 . S
N152 Mn145 2.257 . S
N152 C151 1.326 . S
N152 C156 1.362 . S
C153 C154 1.258 . S
C153 C156 1.431 1_554 S
C153 C173 1.449 . S
C154 C153 1.258 . S
C154 C155 1.477 1_554 S
C154 H174 0.931 . S
C155 C151 1.460 . S
C155 C154 1.477 1_556 S
C155 H175 0.930 . S
C156 N152 1.362 . S
C156 C153 1.431 1_556 S
C156 C166 1.476 . S
H157 C151 0.929 . S
C158 O149 1.250 . S
C158 O150 1.258 . S
O159 Mn144 2.162 . S
O159 C147 1.281 . S
O160 Mn144 2.297 . S
O160 C147 1.236 . S
N161 Mn145 2.282 . S
N161 C162 1.328 . S
N161 C166 1.318 . S
C162 N161 1.328 . S
C162 C163 1.457 . S
C162 H167 0.929 . S
C163 C162 1.457 . S
C163 C164 1.291 1_556 S
C163 H176 0.931 . S
C164 C163 1.291 1_554 S
C164 C165 1.373 . S
C164 H177 0.929 . S
C165 C164 1.373 . S
C165 C166 1.396 1_554 S
C165 C172 1.403 . S
C166 C156 1.476 . S
C166 N161 1.318 . S
C166 C165 1.396 1_556 S
H167 C162 0.929 . S
O168 Mn144 2.385 . S
O168 C146 1.234 . S
O169 Mn144 2.209 . S
O169 Mn145 2.215 . S
O169 C146 1.283 . S
O170 Mn144 2.094 . S
O170 C148 1.240 . S
O171 Mn145 2.117 . S
O171 C148 1.264 . S
C172 C165 1.403 . S
C172 C173 1.399 . S
C172 H178 0.929 . S
C173 C153 1.449 . S
C173 C172 1.399 . S
C173 H179 0.930 . S
H174 C154 0.931 . S
H175 C155 0.930 . S
H176 C163 0.931 . S
H177 C164 0.929 . S
H178 C172 0.929 . S
H179 C173 0.930 . S
Mn180 O185 2.095 . S
Mn180 O195 2.162 . S
Mn180 O196 2.297 . S
Mn180 O204 2.385 . S
Mn180 O205 2.209 1_556 S
Mn180 O206 2.094 . S
Mn181 O186 2.121 . S
Mn181 N188 2.257 . S
Mn181 N197 2.282 . S
Mn181 O205 2.215 . S
Mn181 O207 2.117 . S
C182 O204 1.234 1_554 S
C182 O205 1.283 . S
C183 O195 1.281 . S
C183 O196 1.236 . S
C184 O206 1.234 1_554 S
C184 O207 1.270 . S
O185 Mn180 2.095 . S
O185 C194 1.250 . S
O186 Mn181 2.121 . S
O186 C194 1.258 1_554 S
C187 N188 1.326 . S
C187 C191 1.460 . S
C187 H193 0.929 . S
N188 Mn181 2.257 . S
N188 C187 1.326 . S
N188 C192 1.362 . S
C189 C190 1.258 . S
C189 C192 1.431 . S
C189 C209 1.449 . S
C190 C189 1.258 . S
C190 C191 1.477 . S
C190 H210 0.931 . S
C191 C187 1.460 . S
C191 C190 1.477 . S
C191 H211 0.930 . S
C192 N188 1.362 . S
C192 C189 1.431 . S
C192 C202 1.476 . S
H193 C187 0.929 . S
C194 O185 1.250 . S
C194 O186 1.258 1_556 S
O195 Mn180 2.162 . S
O195 C183 1.281 . S
O196 Mn180 2.297 . S
O196 C183 1.236 . S
N197 Mn181 2.282 . S
N197 C198 1.328 . S
N197 C202 1.318 . S
C198 N197 1.328 . S
C198 C199 1.457 . S
C198 H203 0.929 . S
C199 C198 1.457 . S
C199 C200 1.291 . S
C199 H212 0.931 . S
C200 C199 1.291 . S
C200 C201 1.373 . S
C200 H213 0.929 . S
C201 C200 1.373 . S
C201 C202 1.396 . S
C201 C208 1.403 . S
C202 C192 1.476 . S
C202 N197 1.318 . S
C202 C201 1.396 . S
H203 C198 0.929 . S
O204 Mn180 2.385 . S
O204 C182 1.234 1_556 S
O205 Mn180 2.209 1_554 S
O205 Mn181 2.215 . S
O205 C182 1.283 . S
O206 Mn180 2.094 . S
O206 C184 1.234 1_556 S
O207 Mn181 2.117 . S
O207 C184 1.270 . S
C208 C201 1.403 . S
C208 C209 1.399 . S
C208 H214 0.929 . S
C209 C189 1.449 . S
C209 C208 1.399 . S
C209 H215 0.930 . S
H210 C190 0.931 . S
H211 C191 0.930 . S
H212 C199 0.931 . S
H213 C200 0.929 . S
H214 C208 0.929 . S
H215 C209 0.930 . S
Mn216 O221 2.095 . S
Mn216 O231 2.162 . S
Mn216 O232 2.297 . S
Mn216 O240 2.385 . S
Mn216 O241 2.209 . S
Mn216 O242 2.094 . S
Mn217 O222 2.121 . S
Mn217 N224 2.257 . S
Mn217 N233 2.282 . S
Mn217 O241 2.215 . S
Mn217 O243 2.117 . S
C218 O240 1.234 . S
C218 O241 1.283 . S
C219 O231 1.281 . S
C219 O232 1.236 . S
C220 O242 1.240 . S
C220 O243 1.264 . S
O221 Mn216 2.095 . S
O221 C230 1.250 . S
O222 Mn217 2.121 . S
O222 C230 1.258 . S
C223 N224 1.326 . S
C223 C227 1.460 . S
C223 H229 0.929 . S
N224 Mn217 2.257 . S
N224 C223 1.326 . S
N224 C228 1.362 . S
C225 C226 1.258 . S
C225 C228 1.431 1_556 S
C225 C245 1.449 . S
C226 C225 1.258 . S
C226 C227 1.477 1_556 S
C226 H246 0.931 . S
C227 C223 1.460 . S
C227 C226 1.477 1_554 S
C227 H247 0.930 . S
C228 N224 1.362 . S
C228 C225 1.431 1_554 S
C228 C238 1.476 . S
H229 C223 0.929 . S
C230 O221 1.250 . S
C230 O222 1.258 . S
O231 Mn216 2.162 . S
O231 C219 1.281 . S
O232 Mn216 2.297 . S
O232 C219 1.236 . S
N233 Mn217 2.282 . S
N233 C234 1.328 . S
N233 C238 1.318 . S
C234 N233 1.328 . S
C234 C235 1.457 . S
C234 H239 0.929 . S
C235 C234 1.457 . S
C235 C236 1.291 1_554 S
C235 H248 0.931 . S
C236 C235 1.291 1_556 S
C236 C237 1.373 . S
C236 H249 0.929 . S
C237 C236 1.373 . S
C237 C238 1.396 1_556 S
C237 C244 1.403 . S
C238 C228 1.476 . S
C238 N233 1.318 . S
C238 C237 1.396 1_554 S
H239 C234 0.929 . S
O240 Mn216 2.385 . S
O240 C218 1.234 . S
O241 Mn216 2.209 . S
O241 Mn217 2.215 . S
O241 C218 1.283 . S
O242 Mn216 2.094 . S
O242 C220 1.240 . S
O243 Mn217 2.117 . S
O243 C220 1.264 . S
C244 C237 1.403 . S
C244 C245 1.399 . S
C244 H250 0.929 . S
C245 C225 1.449 . S
C245 C244 1.399 . S
C245 H251 0.930 . S
H246 C226 0.931 . S
H247 C227 0.930 . S
H248 C235 0.931 . S
H249 C236 0.929 . S
H250 C244 0.929 . S
H251 C245 0.930 . S
Mn252 O257 2.095 . S
Mn252 O267 2.162 . S
Mn252 O268 2.297 . S
Mn252 O276 2.385 . S
Mn252 O277 2.209 . S
Mn252 O278 2.094 . S
Mn253 O258 2.121 . S
Mn253 N260 2.257 . S
Mn253 N269 2.282 . S
Mn253 O277 2.215 . S
Mn253 O279 2.117 . S
C254 O276 1.234 . S
C254 O277 1.283 . S
C255 O267 1.281 . S
C255 O268 1.236 . S
C256 O278 1.240 . S
C256 O279 1.264 . S
O257 Mn252 2.095 . S
O257 C266 1.250 . S
O258 Mn253 2.121 . S
O258 C266 1.258 . S
C259 N260 1.326 . S
C259 C263 1.460 . S
C259 H265 0.929 . S
N260 Mn253 2.257 . S
N260 C259 1.326 . S
N260 C264 1.362 . S
C261 C262 1.258 . S
C261 C264 1.431 . S
C261 C281 1.449 . S
C262 C261 1.258 . S
C262 C263 1.477 . S
C262 H282 0.931 . S
C263 C259 1.460 . S
C263 C262 1.477 . S
C263 H283 0.930 . S
C264 N260 1.362 . S
C264 C261 1.431 . S
C264 C274 1.476 . S
H265 C259 0.929 . S
C266 O257 1.250 . S
C266 O258 1.258 . S
O267 Mn252 2.162 . S
O267 C255 1.281 . S
O268 Mn252 2.297 . S
O268 C255 1.236 . S
N269 Mn253 2.282 . S
N269 C270 1.328 . S
N269 C274 1.318 . S
C270 N269 1.328 . S
C270 C271 1.457 . S
C270 H275 0.929 . S
C271 C270 1.457 . S
C271 C272 1.291 . S
C271 H284 0.931 . S
C272 C271 1.291 . S
C272 C273 1.373 . S
C272 H285 0.929 . S
C273 C272 1.373 . S
C273 C274 1.396 . S
C273 C280 1.403 . S
C274 C264 1.476 . S
C274 N269 1.318 . S
C274 C273 1.396 . S
H275 C270 0.929 . S
O276 Mn252 2.385 . S
O276 C254 1.234 . S
O277 Mn252 2.209 . S
O277 Mn253 2.215 . S
O277 C254 1.283 . S
O278 Mn252 2.094 . S
O278 C256 1.240 . S
O279 Mn253 2.117 . S
O279 C256 1.264 . S
C280 C273 1.403 . S
C280 C281 1.399 . S
C280 H286 0.929 . S
C281 C261 1.449 . S
C281 C280 1.399 . S
C281 H287 0.930 . S
H282 C262 0.931 . S
H283 C263 0.930 . S
H284 C271 0.931 . S
H285 C272 0.929 . S
H286 C280 0.929 . S
H287 C281 0.930 . S
Mn288 O293 2.095 . S
Mn288 O303 2.162 . S
Mn288 O304 2.297 . S
Mn288 O312 2.385 . S
Mn288 O313 2.209 1_554 S
Mn288 O314 2.094 . S
Mn289 O294 2.121 . S
Mn289 N296 2.257 . S
Mn289 N305 2.282 . S
Mn289 O313 2.215 . S
Mn289 O315 2.117 . S
C290 O312 1.234 1_556 S
C290 O313 1.283 . S
C291 O303 1.281 . S
C291 O304 1.236 . S
C292 O314 1.234 1_556 S
C292 O315 1.271 . S
O293 Mn288 2.095 . S
O293 C302 1.250 . S
O294 Mn289 2.121 . S
O294 C302 1.258 1_556 S
C295 N296 1.326 . S
C295 C299 1.460 . S
C295 H301 0.929 . S
N296 Mn289 2.257 . S
N296 C295 1.326 . S
N296 C300 1.362 . S
C297 C298 1.258 . S
C297 C300 1.431 . S
C297 C317 1.449 . S
C298 C297 1.258 . S
C298 C299 1.477 . S
C298 H318 0.931 . S
C299 C295 1.460 . S
C299 C298 1.477 . S
C299 H319 0.930 . S
C300 N296 1.362 . S
C300 C297 1.431 . S
C300 C310 1.476 . S
H301 C295 0.929 . S
C302 O293 1.250 . S
C302 O294 1.258 1_554 S
O303 Mn288 2.162 . S
O303 C291 1.281 . S
O304 Mn288 2.297 . S
O304 C291 1.236 . S
N305 Mn289 2.282 . S
N305 C306 1.328 . S
N305 C310 1.318 . S
C306 N305 1.328 . S
C306 C307 1.457 . S
C306 H311 0.929 . S
C307 C306 1.457 . S
C307 C308 1.291 . S
C307 H320 0.931 . S
C308 C307 1.291 . S
C308 C309 1.373 . S
C308 H321 0.929 . S
C309 C308 1.373 . S
C309 C310 1.396 . S
C309 C316 1.403 . S
C310 C300 1.476 . S
C310 N305 1.318 . S
C310 C309 1.396 . S
H311 C306 0.929 . S
O312 Mn288 2.385 . S
O312 C290 1.234 1_554 S
O313 Mn288 2.209 1_556 S
O313 Mn289 2.215 . S
O313 C290 1.283 . S
O314 Mn288 2.094 . S
O314 C292 1.234 1_554 S
O315 Mn289 2.117 . S
O315 C292 1.271 . S
C316 C309 1.403 . S
C316 C317 1.399 . S
C316 H322 0.929 . S
C317 C297 1.449 . S
C317 C316 1.399 . S
C317 H323 0.930 . S
H318 C298 0.931 . S
H319 C299 0.930 . S
H320 C307 0.931 . S
H321 C308 0.929 . S
H322 C316 0.929 . S
H323 C317 0.930 . S
Mn324 O329 2.095 . S
Mn324 O339 2.162 . S
Mn324 O340 2.297 . S
Mn324 O348 2.385 . S
Mn324 O349 2.209 . S
Mn324 O350 2.094 . S
Mn325 O330 2.121 . S
Mn325 N332 2.257 . S
Mn325 N341 2.282 . S
Mn325 O349 2.215 . S
Mn325 O351 2.117 . S
C326 O348 1.234 . S
C326 O349 1.283 . S
C327 O339 1.281 . S
C327 O340 1.236 . S
C328 O350 1.240 . S
C328 O351 1.264 . S
O329 Mn324 2.095 . S
O329 C338 1.250 . S
O330 Mn325 2.121 . S
O330 C338 1.258 . S
C331 N332 1.326 . S
C331 C335 1.460 . S
C331 H337 0.929 . S
N332 Mn325 2.257 . S
N332 C331 1.326 . S
N332 C336 1.362 . S
C333 C334 1.258 . S
C333 C336 1.431 1_556 S
C333 C353 1.449 . S
C334 C333 1.258 . S
C334 C335 1.477 1_556 S
C334 H354 0.931 . S
C335 C331 1.460 . S
C335 C334 1.477 1_554 S
C335 H355 0.930 . S
C336 N332 1.362 . S
C336 C333 1.431 1_554 S
C336 C346 1.476 . S
H337 C331 0.929 . S
C338 O329 1.250 . S
C338 O330 1.258 . S
O339 Mn324 2.162 . S
O339 C327 1.281 . S
O340 Mn324 2.297 . S
O340 C327 1.236 . S
N341 Mn325 2.282 . S
N341 C342 1.328 . S
N341 C346 1.318 . S
C342 N341 1.328 . S
C342 C343 1.457 . S
C342 H347 0.929 . S
C343 C342 1.457 . S
C343 C344 1.291 1_554 S
C343 H356 0.931 . S
C344 C343 1.291 1_556 S
C344 C345 1.373 . S
C344 H357 0.929 . S
C345 C344 1.373 . S
C345 C346 1.396 1_556 S
C345 C352 1.403 . S
C346 C336 1.476 . S
C346 N341 1.318 . S
C346 C345 1.396 1_554 S
H347 C342 0.929 . S
O348 Mn324 2.385 . S
O348 C326 1.234 . S
O349 Mn324 2.209 . S
O349 Mn325 2.215 . S
O349 C326 1.283 . S
O350 Mn324 2.094 . S
O350 C328 1.240 . S
O351 Mn325 2.117 . S
O351 C328 1.264 . S
C352 C345 1.403 . S
C352 C353 1.399 . S
C352 H358 0.929 . S
C353 C333 1.449 . S
C353 C352 1.399 . S
C353 H359 0.930 . S
H354 C334 0.931 . S
H355 C335 0.930 . S
H356 C343 0.931 . S
H357 C344 0.929 . S
H358 C352 0.929 . S
H359 C353 0.930 . S
Mn360 O365 2.095 . S
Mn360 O375 2.162 . S
Mn360 O376 2.297 . S
Mn360 O384 2.385 . S
Mn360 O385 2.209 . S
Mn360 O386 2.094 . S
Mn361 O366 2.121 . S
Mn361 N368 2.257 . S
Mn361 N377 2.282 . S
Mn361 O385 2.215 . S
Mn361 O387 2.117 . S
C362 O384 1.234 . S
C362 O385 1.283 . S
C363 O375 1.281 . S
C363 O376 1.236 . S
C364 O386 1.240 . S
C364 O387 1.264 . S
O365 Mn360 2.095 . S
O365 C374 1.250 . S
O366 Mn361 2.121 . S
O366 C374 1.258 . S
C367 N368 1.326 . S
C367 C371 1.460 . S
C367 H373 0.929 . S
N368 Mn361 2.257 . S
N368 C367 1.326 . S
N368 C372 1.362 . S
C369 C370 1.258 . S
C369 C372 1.431 . S
C369 C389 1.449 . S
C370 C369 1.258 . S
C370 C371 1.477 . S
C370 H390 0.931 . S
C371 C367 1.460 . S
C371 C370 1.477 . S
C371 H391 0.930 . S
C372 N368 1.362 . S
C372 C369 1.431 . S
C372 C382 1.476 . S
H373 C367 0.929 . S
C374 O365 1.250 . S
C374 O366 1.258 . S
O375 Mn360 2.162 . S
O375 C363 1.281 . S
O376 Mn360 2.297 . S
O376 C363 1.236 . S
N377 Mn361 2.282 . S
N377 C378 1.328 . S
N377 C382 1.318 . S
C378 N377 1.328 . S
C378 C379 1.457 . S
C378 H383 0.929 . S
C379 C378 1.457 . S
C379 C380 1.291 . S
C379 H392 0.931 . S
C380 C379 1.291 . S
C380 C381 1.373 . S
C380 H393 0.929 . S
C381 C380 1.373 . S
C381 C382 1.396 . S
C381 C388 1.403 . S
C382 C372 1.476 . S
C382 N377 1.318 . S
C382 C381 1.396 . S
H383 C378 0.929 . S
O384 Mn360 2.385 . S
O384 C362 1.234 . S
O385 Mn360 2.209 . S
O385 Mn361 2.215 . S
O385 C362 1.283 . S
O386 Mn360 2.094 . S
O386 C364 1.240 . S
O387 Mn361 2.117 . S
O387 C364 1.264 . S
C388 C381 1.403 . S
C388 C389 1.399 . S
C388 H394 0.929 . S
C389 C369 1.449 . S
C389 C388 1.399 . S
C389 H395 0.930 . S
H390 C370 0.931 . S
H391 C371 0.930 . S
H392 C379 0.931 . S
H393 C380 0.929 . S
H394 C388 0.929 . S
H395 C389 0.930 . S
Mn396 O401 2.095 . S
Mn396 O411 2.162 . S
Mn396 O412 2.297 . S
Mn396 O420 2.385 . S
Mn396 O421 2.209 1_554 S
Mn396 O422 2.094 . S
Mn397 O402 2.121 . S
Mn397 N404 2.257 . S
Mn397 N413 2.282 . S
Mn397 O421 2.215 . S
Mn397 O423 2.117 . S
C398 O420 1.234 1_556 S
C398 O421 1.283 . S
C399 O411 1.281 . S
C399 O412 1.236 . S
C400 O422 1.234 1_556 S
C400 O423 1.271 . S
O401 Mn396 2.095 . S
O401 C410 1.250 . S
O402 Mn397 2.121 . S
O402 C410 1.258 1_556 S
C403 N404 1.326 . S
C403 C407 1.460 . S
C403 H409 0.929 . S
N404 Mn397 2.257 . S
N404 C403 1.326 . S
N404 C408 1.362 . S
C405 C406 1.258 . S
C405 C408 1.431 . S
C405 C425 1.449 . S
C406 C405 1.258 . S
C406 C407 1.477 . S
C406 H426 0.931 . S
C407 C403 1.460 . S
C407 C406 1.477 . S
C407 H427 0.930 . S
C408 N404 1.362 . S
C408 C405 1.431 . S
C408 C418 1.476 . S
H409 C403 0.929 . S
C410 O401 1.250 . S
C410 O402 1.258 1_554 S
O411 Mn396 2.162 . S
O411 C399 1.281 . S
O412 Mn396 2.297 . S
O412 C399 1.236 . S
N413 Mn397 2.282 . S
N413 C414 1.328 . S
N413 C418 1.318 . S
C414 N413 1.328 . S
C414 C415 1.457 . S
C414 H419 0.929 . S
C415 C414 1.457 . S
C415 C416 1.291 . S
C415 H428 0.931 . S
C416 C415 1.291 . S
C416 C417 1.373 . S
C416 H429 0.929 . S
C417 C416 1.373 . S
C417 C418 1.396 . S
C417 C424 1.403 . S
C418 C408 1.476 . S
C418 N413 1.318 . S
C418 C417 1.396 . S
H419 C414 0.929 . S
O420 Mn396 2.385 . S
O420 C398 1.234 1_554 S
O421 Mn396 2.209 1_556 S
O421 Mn397 2.215 . S
O421 C398 1.283 . S
O422 Mn396 2.094 . S
O422 C400 1.234 1_554 S
O423 Mn397 2.117 . S
O423 C400 1.271 . S
C424 C417 1.403 . S
C424 C425 1.399 . S
C424 H430 0.929 . S
C425 C405 1.449 . S
C425 C424 1.399 . S
C425 H431 0.930 . S
H426 C406 0.931 . S
H427 C407 0.930 . S
H428 C415 0.931 . S
H429 C416 0.929 . S
H430 C424 0.929 . S
H431 C425 0.930 . S
C432 C433 1.363 . S
C432 C438 1.379 . S
C432 N440 1.356 . S
C433 C432 1.363 . S
C433 C439 1.363 . S
C434 C435 1.363 . S
C434 C439 1.379 . S
C434 N441 1.356 . S
C435 C434 1.363 . S
C435 C438 1.363 . S
N436 C438 1.356 . S
N436 H448 0.984 . S
N436 H449 0.985 . S
N437 C439 1.356 . S
N437 H442 0.984 . S
N437 H443 0.985 . S
C438 C432 1.379 . S
C438 C435 1.363 . S
C438 N436 1.356 . S
C439 C433 1.363 . S
C439 C434 1.379 . S
C439 N437 1.356 . S
N440 C432 1.356 . S
N440 H446 0.984 . S
N440 H447 0.984 . S
N441 C434 1.356 . S
N441 H444 0.984 . S
N441 H445 0.985 . S
H442 N437 0.984 . S
H443 N437 0.985 . S
H444 N441 0.984 . S
H445 N441 0.985 . S
H446 N440 0.984 . S
H447 N440 0.984 . S
H448 N436 0.984 . S
H449 N436 0.985 . S
C450 C451 1.363 . S
C450 C456 1.379 1_655 S
C450 N458 1.356 . S
C451 C450 1.363 . S
C451 C457 1.363 . S
C452 C453 1.363 . S
C452 C457 1.379 1_455 S
C452 N459 1.356 . S
C453 C452 1.363 . S
C453 C456 1.363 . S
N454 C456 1.356 . S
N454 H466 0.984 . S
N454 H467 0.985 . S
N455 C457 1.356 . S
N455 H460 0.984 . S
N455 H461 0.985 . S
C456 C450 1.379 1_455 S
C456 C453 1.363 . S
C456 N454 1.356 . S
C457 C451 1.363 . S
C457 C452 1.379 1_655 S
C457 N455 1.356 . S
N458 C450 1.356 . S
N458 H464 0.984 . S
N458 H465 0.984 . S
N459 C452 1.356 . S
N459 H462 0.984 . S
N459 H463 0.985 . S
H460 N455 0.984 . S
H461 N455 0.985 . S
H462 N459 0.984 . S
H463 N459 0.985 . S
H464 N458 0.984 . S
H465 N458 0.984 . S
H466 N454 0.984 . S
H467 N454 0.985 . S
C468 C469 1.363 . S
C468 C474 1.379 1_565 S
C468 N476 1.356 . S
C469 C468 1.363 . S
C469 C475 1.363 1_556 S
C470 C471 1.363 . S
C470 C475 1.379 1_545 S
C470 N477 1.356 . S
C471 C470 1.363 . S
C471 C474 1.363 1_554 S
N472 C474 1.356 . S
N472 H484 0.984 . S
N472 H485 0.985 . S
N473 C475 1.356 . S
N473 H478 0.984 . S
N473 H479 0.985 . S
C474 C468 1.379 1_545 S
C474 C471 1.363 1_556 S
C474 N472 1.356 . S
C475 C469 1.363 1_554 S
C475 C470 1.379 1_565 S
C475 N473 1.356 . S
N476 C468 1.356 . S
N476 H482 0.984 . S
N476 H483 0.984 . S
N477 C470 1.356 . S
N477 H480 0.984 . S
N477 H481 0.985 . S
H478 N473 0.984 . S
H479 N473 0.985 . S
H480 N477 0.984 . S
H481 N477 0.985 . S
H482 N476 0.984 . S
H483 N476 0.984 . S
H484 N472 0.984 . S
H485 N472 0.985 . S
C486 C487 1.363 . S
C486 C492 1.379 . S
C486 N494 1.356 . S
C487 C486 1.363 . S
C487 C493 1.363 . S
C488 C489 1.363 . S
C488 C493 1.379 . S
C488 N495 1.356 . S
C489 C488 1.363 . S
C489 C492 1.363 . S
N490 C492 1.356 . S
N490 H502 0.984 . S
N490 H503 0.985 . S
N491 C493 1.356 . S
N491 H496 0.984 . S
N491 H497 0.985 . S
C492 C486 1.379 . S
C492 C489 1.363 . S
C492 N490 1.356 . S
C493 C487 1.363 . S
C493 C488 1.379 . S
C493 N491 1.356 . S
N494 C486 1.356 . S
N494 H500 0.984 . S
N494 H501 0.984 . S
N495 C488 1.356 . S
N495 H498 0.984 . S
N495 H499 0.985 . S
H496 N491 0.984 . S
H497 N491 0.985 . S
H498 N495 0.984 . S
H499 N495 0.985 . S
H500 N494 0.984 . S
H501 N494 0.984 . S
H502 N490 0.984 . S
H503 N490 0.985 . S
C504 C505 1.363 . S
C504 C510 1.379 1_655 S
C504 N512 1.356 . S
C505 C504 1.363 . S
C505 C511 1.363 . S
C506 C507 1.363 . S
C506 C511 1.379 1_455 S
C506 N513 1.356 . S
C507 C506 1.363 . S
C507 C510 1.363 . S
N508 C510 1.356 . S
N508 H520 0.984 . S
N508 H521 0.985 . S
N509 C511 1.356 . S
N509 H514 0.984 . S
N509 H515 0.985 . S
C510 C504 1.379 1_455 S
C510 C507 1.363 . S
C510 N508 1.356 . S
C511 C505 1.363 . S
C511 C506 1.379 1_655 S
C511 N509 1.356 . S
N512 C504 1.356 . S
N512 H518 0.984 . S
N512 H519 0.984 . S
N513 C506 1.356 . S
N513 H516 0.984 . S
N513 H517 0.985 . S
H514 N509 0.984 . S
H515 N509 0.985 . S
H516 N513 0.984 . S
H517 N513 0.985 . S
H518 N512 0.984 . S
H519 N512 0.984 . S
H520 N508 0.984 . S
H521 N508 0.985 . S
C522 C523 1.363 . S
C522 C528 1.379 1_565 S
C522 N530 1.356 . S
C523 C522 1.363 . S
C523 C529 1.363 1_554 S
C524 C525 1.363 . S
C524 C529 1.379 1_545 S
C524 N531 1.356 . S
C525 C524 1.363 . S
C525 C528 1.363 1_556 S
N526 C528 1.356 . S
N526 H538 0.984 . S
N526 H539 0.985 . S
N527 C529 1.356 . S
N527 H532 0.984 . S
N527 H533 0.985 . S
C528 C522 1.379 1_545 S
C528 C525 1.363 1_554 S
C528 N526 1.356 . S
C529 C523 1.363 1_556 S
C529 C524 1.379 1_565 S
C529 N527 1.356 . S
N530 C522 1.356 . S
N530 H536 0.984 . S
N530 H537 0.984 . S
N531 C524 1.356 . S
N531 H534 0.984 . S
N531 H535 0.985 . S
H532 N527 0.984 . S
H533 N527 0.985 . S
H534 N531 0.984 . S
H535 N531 0.985 . S
H536 N530 0.984 . S
H537 N530 0.984 . S
H538 N526 0.984 . S
H539 N526 0.985 . S
C540 C541 1.363 . S
C540 C546 1.379 1_556 S
C540 N548 1.356 . S
C541 C540 1.363 . S
C541 C547 1.363 . S
C542 C543 1.363 . S
C542 C547 1.379 1_554 S
C542 N549 1.356 . S
C543 C542 1.363 . S
C543 C546 1.363 . S
N544 C546 1.356 . S
N544 H556 0.991 . S
N544 H557 0.985 . S
N545 C547 1.356 . S
N545 H550 0.984 . S
N545 H551 0.991 . S
C546 C540 1.379 1_554 S
C546 C543 1.363 . S
C546 N544 1.356 . S
C547 C541 1.363 . S
C547 C542 1.379 1_556 S
C547 N545 1.356 . S
N548 C540 1.356 . S
N548 H554 0.984 . S
N548 H555 0.984 . S
N549 C542 1.356 . S
N549 H552 0.984 . S
N549 H553 0.985 . S
H550 N545 0.984 . S
H551 N545 0.991 . S
H552 N549 0.984 . S
H553 N549 0.985 . S
H554 N548 0.984 . S
H555 N548 0.984 . S
H556 N544 0.991 . S
H557 N544 0.985 . S
C558 C559 1.363 . S
C558 C564 1.379 . S
C558 N566 1.356 . S
C559 C558 1.363 . S
C559 C565 1.363 . S
C560 C561 1.363 . S
C560 C565 1.379 . S
C560 N567 1.356 . S
C561 C560 1.363 . S
C561 C564 1.363 . S
N562 C564 1.356 . S
N562 H574 0.984 . S
N562 H575 0.985 . S
N563 C565 1.356 . S
N563 H568 0.984 . S
N563 H569 0.985 . S
C564 C558 1.379 . S
C564 C561 1.363 . S
C564 N562 1.356 . S
C565 C559 1.363 . S
C565 C560 1.379 . S
C565 N563 1.356 . S
N566 C558 1.356 . S
N566 H572 0.984 . S
N566 H573 0.984 . S
N567 C560 1.356 . S
N567 H570 0.984 . S
N567 H571 0.985 . S
H568 N563 0.984 . S
H569 N563 0.985 . S
H570 N567 0.984 . S
H571 N567 0.985 . S
H572 N566 0.984 . S
H573 N566 0.984 . S
H574 N562 0.984 . S
H575 N562 0.985 . S
C576 C577 1.363 . S
C576 C582 1.379 . S
C576 N584 1.356 . S
C577 C576 1.363 . S
C577 C583 1.363 . S
C578 C579 1.363 . S
C578 C583 1.379 . S
C578 N585 1.356 . S
C579 C578 1.363 . S
C579 C582 1.363 . S
N580 C582 1.356 . S
N580 H592 0.984 . S
N580 H593 0.985 . S
N581 C583 1.356 . S
N581 H586 0.984 . S
N581 H587 0.985 . S
C582 C576 1.379 . S
C582 C579 1.363 . S
C582 N580 1.356 . S
C583 C577 1.363 . S
C583 C578 1.379 . S
C583 N581 1.356 . S
N584 C576 1.356 . S
N584 H590 0.984 . S
N584 H591 0.984 . S
N585 C578 1.356 . S
N585 H588 0.984 . S
N585 H589 0.985 . S
H586 N581 0.984 . S
H587 N581 0.985 . S
H588 N585 0.984 . S
H589 N585 0.985 . S
H590 N584 0.984 . S
H591 N584 0.984 . S
H592 N580 0.984 . S
H593 N580 0.985 . S
C594 C595 1.363 . S
C594 C600 1.379 1_554 S
C594 N602 1.356 . S
C595 C594 1.363 . S
C595 C601 1.363 . S
C596 C597 1.363 . S
C596 C601 1.379 1_556 S
C596 N603 1.356 . S
C597 C596 1.363 . S
C597 C600 1.363 . S
N598 C600 1.356 . S
N598 H610 0.991 . S
N598 H611 0.985 . S
N599 C601 1.356 . S
N599 H604 0.984 . S
N599 H605 0.991 . S
C600 C594 1.379 1_556 S
C600 C597 1.363 . S
C600 N598 1.356 . S
C601 C595 1.363 . S
C601 C596 1.379 1_554 S
C601 N599 1.356 . S
N602 C594 1.356 . S
N602 H608 0.984 . S
N602 H609 0.984 . S
N603 C596 1.356 . S
N603 H606 0.984 . S
N603 H607 0.985 . S
H604 N599 0.984 . S
H605 N599 0.991 . S
H606 N603 0.984 . S
H607 N603 0.985 . S
H608 N602 0.984 . S
H609 N602 0.984 . S
H610 N598 0.991 . S
H611 N598 0.985 . S
C612 C613 1.363 . S
C612 C618 1.379 . S
C612 N620 1.356 . S
C613 C612 1.363 . S
C613 C619 1.363 . S
C614 C615 1.363 . S
C614 C619 1.379 . S
C614 N621 1.356 . S
C615 C614 1.363 . S
C615 C618 1.363 . S
N616 C618 1.356 . S
N616 H628 0.984 . S
N616 H629 0.985 . S
N617 C619 1.356 . S
N617 H622 0.984 . S
N617 H623 0.985 . S
C618 C612 1.379 . S
C618 C615 1.363 . S
C618 N616 1.356 . S
C619 C613 1.363 . S
C619 C614 1.379 . S
C619 N617 1.356 . S
N620 C612 1.356 . S
N620 H626 0.984 . S
N620 H627 0.984 . S
N621 C614 1.356 . S
N621 H624 0.984 . S
N621 H625 0.985 . S
H622 N617 0.984 . S
H623 N617 0.985 . S
H624 N621 0.984 . S
H625 N621 0.985 . S
H626 N620 0.984 . S
H627 N620 0.984 . S
H628 N616 0.984 . S
H629 N616 0.985 . S
C630 C631 1.363 . S
C630 C636 1.379 . S
C630 N638 1.356 . S
C631 C630 1.363 . S
C631 C637 1.363 . S
C632 C633 1.363 . S
C632 C637 1.379 . S
C632 N639 1.356 . S
C633 C632 1.363 . S
C633 C636 1.363 . S
N634 C636 1.356 . S
N634 H646 0.984 . S
N634 H647 0.985 . S
N635 C637 1.356 . S
N635 H640 0.984 . S
N635 H641 0.985 . S
C636 C630 1.379 . S
C636 C633 1.363 . S
C636 N634 1.356 . S
C637 C631 1.363 . S
C637 C632 1.379 . S
C637 N635 1.356 . S
N638 C630 1.356 . S
N638 H644 0.984 . S
N638 H645 0.984 . S
N639 C632 1.356 . S
N639 H642 0.984 . S
N639 H643 0.985 . S
H640 N635 0.984 . S
H641 N635 0.985 . S
H642 N639 0.984 . S
H643 N639 0.985 . S
H644 N638 0.984 . S
H645 N638 0.984 . S
H646 N634 0.984 . S
H647 N634 0.985 . S
C648 C649 1.363 . S
C648 C654 1.379 . S
C648 N656 1.356 . S
C649 C648 1.363 . S
C649 C655 1.363 . S
C650 C651 1.363 . S
C650 C655 1.379 . S
C650 N657 1.356 . S
C651 C650 1.363 . S
C651 C654 1.363 . S
N652 C654 1.356 . S
N652 H664 0.984 . S
N652 H665 0.985 . S
N653 C655 1.356 . S
N653 H658 0.984 . S
N653 H659 0.985 . S
C654 C648 1.379 . S
C654 C651 1.363 . S
C654 N652 1.356 . S
C655 C649 1.363 . S
C655 C650 1.379 . S
C655 N653 1.356 . S
N656 C648 1.356 . S
N656 H662 0.984 . S
N656 H663 0.984 . S
N657 C650 1.356 . S
N657 H660 0.984 . S
N657 H661 0.985 . S
H658 N653 0.984 . S
H659 N653 0.985 . S
H660 N657 0.984 . S
H661 N657 0.985 . S
H662 N656 0.984 . S
H663 N656 0.984 . S
H664 N652 0.984 . S
H665 N652 0.985 . S
C666 C667 1.363 . S
C666 C672 1.379 . S
C666 N674 1.356 . S
C667 C666 1.363 . S
C667 C673 1.363 . S
C668 C669 1.363 . S
C668 C673 1.379 . S
C668 N675 1.356 . S
C669 C668 1.363 . S
C669 C672 1.363 . S
N670 C672 1.356 . S
N670 H682 0.984 . S
N670 H683 0.985 . S
N671 C673 1.356 . S
N671 H676 0.984 . S
N671 H677 0.985 . S
C672 C666 1.379 . S
C672 C669 1.363 . S
C672 N670 1.356 . S
C673 C667 1.363 . S
C673 C668 1.379 . S
C673 N671 1.356 . S
N674 C666 1.356 . S
N674 H680 0.984 . S
N674 H681 0.984 . S
N675 C668 1.356 . S
N675 H678 0.984 1_556 S
N675 H679 0.985 1_556 S
H676 N671 0.984 . S
H677 N671 0.985 . S
H678 N675 0.984 1_554 S
H679 N675 0.985 1_554 S
H680 N674 0.984 . S
H681 N674 0.984 . S
H682 N670 0.984 . S
H683 N670 0.985 . S
C684 C685 1.363 . S
C684 C690 1.379 . S
C684 N692 1.356 . S
C685 C684 1.363 . S
C685 C691 1.363 . S
C686 C687 1.363 . S
C686 C691 1.379 . S
C686 N693 1.356 . S
C687 C686 1.363 . S
C687 C690 1.363 . S
N688 C690 1.356 . S
N688 H700 0.984 . S
N688 H701 0.985 . S
N689 C691 1.356 . S
N689 H694 0.984 1_554 S
N689 H695 0.985 . S
C690 C684 1.379 . S
C690 C687 1.363 . S
C690 N688 1.356 . S
C691 C685 1.363 . S
C691 C686 1.379 . S
C691 N689 1.356 . S
N692 C684 1.356 . S
N692 H698 0.984 . S
N692 H699 0.984 . S
N693 C686 1.356 . S
N693 H696 0.984 . S
N693 H697 0.985 . S
H694 N689 0.984 1_556 S
H695 N689 0.985 . S
H696 N693 0.984 . S
H697 N693 0.985 . S
H698 N692 0.984 . S
H699 N692 0.984 . S
H700 N688 0.984 . S
H701 N688 0.985 . S
C702 C703 1.363 . S
C702 C708 1.379 . S
C702 N710 1.356 . S
C703 C702 1.363 . S
C703 C709 1.363 . S
C704 C705 1.363 . S
C704 C709 1.379 . S
C704 N711 1.356 . S
C705 C704 1.363 . S
C705 C708 1.363 . S
N706 C708 1.356 . S
N706 H718 0.984 . S
N706 H719 0.985 . S
N707 C709 1.356 . S
N707 H712 0.984 . S
N707 H713 0.985 . S
C708 C702 1.379 . S
C708 C705 1.363 . S
C708 N706 1.356 . S
C709 C703 1.363 . S
C709 C704 1.379 . S
C709 N707 1.356 . S
N710 C702 1.356 . S
N710 H716 0.984 . S
N710 H717 0.984 . S
N711 C704 1.356 . S
N711 H714 0.984 . S
N711 H715 0.985 . S
H712 N707 0.984 . S
H713 N707 0.985 . S
H714 N711 0.984 . S
H715 N711 0.985 . S
H716 N710 0.984 . S
H717 N710 0.984 . S
H718 N706 0.984 . S
H719 N706 0.985 . S
C720 C721 1.363 . S
C720 C726 1.379 . S
C720 N728 1.356 . S
C721 C720 1.363 . S
C721 C727 1.363 . S
C722 C723 1.363 . S
C722 C727 1.379 . S
C722 N729 1.356 . S
C723 C722 1.363 . S
C723 C726 1.363 . S
N724 C726 1.356 . S
N724 H736 0.984 . S
N724 H737 0.985 . S
N725 C727 1.356 . S
N725 H730 0.984 . S
N725 H731 0.985 . S
C726 C720 1.379 . S
C726 C723 1.363 . S
C726 N724 1.356 . S
C727 C721 1.363 . S
C727 C722 1.379 . S
C727 N725 1.356 . S
N728 C720 1.356 . S
N728 H734 0.984 . S
N728 H735 0.984 . S
N729 C722 1.356 . S
N729 H732 0.984 1_556 S
N729 H733 0.985 1_556 S
H730 N725 0.984 . S
H731 N725 0.985 . S
H732 N729 0.984 1_554 S
H733 N729 0.985 1_554 S
H734 N728 0.984 . S
H735 N728 0.984 . S
H736 N724 0.984 . S
H737 N724 0.985 . S
C738 C739 1.363 . S
C738 C744 1.379 . S
C738 N746 1.356 . S
C739 C738 1.363 . S
C739 C745 1.363 . S
C740 C741 1.363 . S
C740 C745 1.379 . S
C740 N747 1.356 . S
C741 C740 1.363 . S
C741 C744 1.363 . S
N742 C744 1.356 . S
N742 H754 0.984 . S
N742 H755 0.985 . S
N743 C745 1.356 . S
N743 H748 0.984 . S
N743 H749 0.985 . S
C744 C738 1.379 . S
C744 C741 1.363 . S
C744 N742 1.356 . S
C745 C739 1.363 . S
C745 C740 1.379 . S
C745 N743 1.356 . S
N746 C738 1.356 . S
N746 H752 0.984 1_554 S
N746 H753 0.984 1_554 S
N747 C740 1.356 . S
N747 H750 0.984 . S
N747 H751 0.985 . S
H748 N743 0.984 . S
H749 N743 0.985 . S
H750 N747 0.984 . S
H751 N747 0.985 . S
H752 N746 0.984 1_556 S
H753 N746 0.984 1_556 S
H754 N742 0.984 . S
H755 N742 0.985 . S
C756 C757 1.363 . S
C756 C762 1.379 . S
C756 N764 1.356 . S
C757 C756 1.363 . S
C757 C763 1.363 . S
C758 C759 1.363 . S
C758 C763 1.379 . S
C758 N765 1.356 . S
C759 C758 1.363 . S
C759 C762 1.363 . S
N760 C762 1.356 . S
N760 H772 0.984 . S
N760 H773 0.985 . S
N761 C763 1.356 . S
N761 H766 0.984 . S
N761 H767 0.985 . S
C762 C756 1.379 . S
C762 C759 1.363 . S
C762 N760 1.356 . S
C763 C757 1.363 . S
C763 C758 1.379 . S
C763 N761 1.356 . S
N764 C756 1.356 . S
N764 H770 0.984 . S
N764 H771 0.984 . S
N765 C758 1.356 . S
N765 H768 0.984 . S
N765 H769 0.985 . S
H766 N761 0.984 . S
H767 N761 0.985 . S
H768 N765 0.984 . S
H769 N765 0.985 . S
H770 N764 0.984 . S
H771 N764 0.984 . S
H772 N760 0.984 . S
H773 N760 0.985 . S
C774 C775 1.363 . S
C774 C780 1.379 . S
C774 N782 1.356 . S
C775 C774 1.363 . S
C775 C781 1.363 . S
C776 C777 1.363 . S
C776 C781 1.379 . S
C776 N783 1.356 . S
C777 C776 1.363 . S
C777 C780 1.363 . S
N778 C780 1.356 . S
N778 H790 0.984 . S
N778 H791 0.985 . S
N779 C781 1.356 . S
N779 H784 0.984 . S
N779 H785 0.985 . S
C780 C774 1.379 . S
C780 C777 1.363 . S
C780 N778 1.356 . S
C781 C775 1.363 . S
C781 C776 1.379 . S
C781 N779 1.356 . S
N782 C774 1.356 . S
N782 H788 0.984 . S
N782 H789 0.984 . S
N783 C776 1.356 . S
N783 H786 0.984 . S
N783 H787 0.985 . S
H784 N779 0.984 . S
H785 N779 0.985 . S
H786 N783 0.984 . S
H787 N783 0.985 . S
H788 N782 0.984 . S
H789 N782 0.984 . S
H790 N778 0.984 . S
H791 N778 0.985 . S
C792 C793 1.363 1_556 S
C792 C798 1.379 . S
C792 N800 1.356 . S
C793 C792 1.363 1_554 S
C793 C799 1.363 . S
C794 C795 1.363 1_554 S
C794 C799 1.379 . S
C794 N801 1.356 . S
C795 C794 1.363 1_556 S
C795 C798 1.363 . S
N796 C798 1.356 . S
N796 H808 0.984 . S
N796 H809 0.985 . S
N797 C799 1.356 . S
N797 H802 0.984 . S
N797 H803 0.985 . S
C798 C792 1.379 . S
C798 C795 1.363 . S
C798 N796 1.356 . S
C799 C793 1.363 . S
C799 C794 1.379 . S
C799 N797 1.356 . S
N800 C792 1.356 . S
N800 H806 0.984 . S
N800 H807 0.984 . S
N801 C794 1.356 . S
N801 H804 0.984 . S
N801 H805 0.985 . S
H802 N797 0.984 . S
H803 N797 0.985 . S
H804 N801 0.984 . S
H805 N801 0.985 . S
H806 N800 0.984 . S
H807 N800 0.984 . S
H808 N796 0.984 . S
H809 N796 0.985 . S
C810 C811 1.363 . S
C810 C816 1.379 . S
C810 N818 1.356 . S
C811 C810 1.363 . S
C811 C817 1.363 . S
C812 C813 1.363 . S
C812 C817 1.379 . S
C812 N819 1.356 . S
C813 C812 1.363 . S
C813 C816 1.363 . S
N814 C816 1.356 . S
N814 H826 0.984 . S
N814 H827 0.985 . S
N815 C817 1.356 . S
N815 H820 0.984 . S
N815 H821 0.985 . S
C816 C810 1.379 . S
C816 C813 1.363 . S
C816 N814 1.356 . S
C817 C811 1.363 . S
C817 C812 1.379 . S
C817 N815 1.356 . S
N818 C810 1.356 . S
N818 H824 0.984 . S
N818 H825 0.984 . S
N819 C812 1.356 . S
N819 H822 0.984 . S
N819 H823 0.985 . S
H820 N815 0.984 . S
H821 N815 0.985 . S
H822 N819 0.984 . S
H823 N819 0.985 . S
H824 N818 0.984 . S
H825 N818 0.984 . S
H826 N814 0.984 . S
H827 N814 0.985 . S
C828 C829 1.363 . S
C828 C834 1.379 . S
C828 N836 1.356 . S
C829 C828 1.363 . S
C829 C835 1.363 . S
C830 C831 1.363 . S
C830 C835 1.379 . S
C830 N837 1.356 . S
C831 C830 1.363 . S
C831 C834 1.363 . S
N832 C834 1.356 . S
N832 H844 0.984 . S
N832 H845 0.985 . S
N833 C835 1.356 . S
N833 H838 0.984 . S
N833 H839 0.985 . S
C834 C828 1.379 . S
C834 C831 1.363 . S
C834 N832 1.356 . S
C835 C829 1.363 . S
C835 C830 1.379 . S
C835 N833 1.356 . S
N836 C828 1.356 . S
N836 H842 0.984 . S
N836 H843 0.984 . S
N837 C830 1.356 . S
N837 H840 0.984 . S
N837 H841 0.985 . S
H838 N833 0.984 . S
H839 N833 0.985 . S
H840 N837 0.984 . S
H841 N837 0.985 . S
H842 N836 0.984 . S
H843 N836 0.984 . S
H844 N832 0.984 . S
H845 N832 0.985 . S
C846 C847 1.363 . S
C846 C852 1.379 . S
C846 N854 1.356 . S
C847 C846 1.363 . S
C847 C853 1.363 1_556 S
C848 C849 1.363 . S
C848 C853 1.379 . S
C848 N855 1.356 . S
C849 C848 1.363 . S
C849 C852 1.363 1_554 S
N850 C852 1.356 . S
N850 H862 0.984 . S
N850 H863 0.985 . S
N851 C853 1.356 . S
N851 H856 0.984 . S
N851 H857 0.985 . S
C852 C846 1.379 . S
C852 C849 1.363 1_556 S
C852 N850 1.356 . S
C853 C847 1.363 1_554 S
C853 C848 1.379 . S
C853 N851 1.356 . S
N854 C846 1.356 . S
N854 H860 0.984 . S
N854 H861 0.984 . S
N855 C848 1.356 . S
N855 H858 0.984 . S
N855 H859 0.985 . S
H856 N851 0.984 . S
H857 N851 0.985 . S
H858 N855 0.984 . S
H859 N855 0.985 . S
H860 N854 0.984 . S
H861 N854 0.984 . S
H862 N850 0.984 . S
H863 N850 0.985 . S
C433 C14 1.278 . S
C435 C338 1.278 . S
C451 C50 1.278 . S
C453 C374 1.278 . S
C469 C86 1.278 . S
C471 C410 1.278 . S
C487 C122 1.278 . S
C489 C230 1.278 . S
C505 C266 1.278 . S
C507 C158 1.278 . S
C523 C302 1.278 . S
C525 C194 1.278 . S
C541 C363 1.681 . S
C543 C3 1.681 . S
C559 C39 1.681 . S
C561 C399 1.681 . S
C577 C75 1.681 . S
C579 C219 1.681 . S
C595 C111 1.681 . S
C597 C255 1.681 . S
C613 C147 1.681 . S
C615 C291 1.681 . S
C631 C183 1.681 . S
C633 C327 1.681 . S
C649 C362 1.147 . S
C651 C2 1.147 . S
C667 C38 1.146 . S
C669 C398 1.146 . S
C685 C74 1.147 . S
C687 C218 1.147 . S
C703 C110 1.147 . S
C705 C254 1.147 . S
C721 C146 1.146 . S
C723 C290 1.146 . S
C739 C182 1.147 . S
C741 C326 1.147 . S
C757 C4 1.628 . S
C759 C220 1.628 . S
C775 C256 1.628 . S
C777 C40 1.628 . S
C793 C76 1.629 . S
C795 C292 1.629 . S
C811 C112 1.628 . S
C813 C328 1.628 . S
C829 C148 1.629 . S
C831 C364 1.629 . S
C847 C400 1.629 . S
C849 C184 1.629 . S
