# Generated by pormake.
# Topology ttw, (5)-cn, num edge types: 1
# Building blocks:
#     Node 0, Type 0, BuildingBlock: BEQFEK_clean_sbu_0, # of connection points: 5
#     Node 1, Type 0, BuildingBlock: BEQFEK_clean_sbu_0, # of connection points: 5
#     Node 2, Type 0, BuildingBlock: BEQFEK_clean_sbu_0, # of connection points: 5
#     Node 3, Type 0, BuildingBlock: BEQFEK_clean_sbu_0, # of connection points: 5
#     Node 4, Type 0, BuildingBlock: BEQFEK_clean_sbu_0, # of connection points: 5
#     Node 5, Type 0, BuildingBlock: BEQFEK_clean_sbu_0, # of connection points: 5
#     Edge 6, Type (0, 0), BuildingBlock: FUNLAD_clean_linker_1, # of connection points: 2
#     Edge 7, Type (0, 0), BuildingBlock: FUNLAD_clean_linker_1, # of connection points: 2
#     Edge 8, Type (0, 0), BuildingBlock: FUNLAD_clean_linker_1, # of connection points: 2
#     Edge 9, Type (0, 0), BuildingBlock: FUNLAD_clean_linker_1, # of connection points: 2
#     Edge 10, Type (0, 0), BuildingBlock: FUNLAD_clean_linker_1, # of connection points: 2
#     Edge 11, Type (0, 0), BuildingBlock: FUNLAD_clean_linker_1, # of connection points: 2
#     Edge 12, Type (0, 0), BuildingBlock: FUNLAD_clean_linker_1, # of connection points: 2
#     Edge 13, Type (0, 0), BuildingBlock: FUNLAD_clean_linker_1, # of connection points: 2
#     Edge 14, Type (0, 0), BuildingBlock: FUNLAD_clean_linker_1, # of connection points: 2
#     Edge 15, Type (0, 0), BuildingBlock: FUNLAD_clean_linker_1, # of connection points: 2
#     Edge 16, Type (0, 0), BuildingBlock: FUNLAD_clean_linker_1, # of connection points: 2
#     Edge 17, Type (0, 0), BuildingBlock: FUNLAD_clean_linker_1, # of connection points: 2
#     Edge 18, Type (0, 0), BuildingBlock: FUNLAD_clean_linker_1, # of connection points: 2
#     Edge 19, Type (0, 0), BuildingBlock: FUNLAD_clean_linker_1, # of connection points: 2
#     Edge 20, Type (0, 0), BuildingBlock: FUNLAD_clean_linker_1, # of connection points: 2
# Relax obj value: 0.110
# Max RMSD: 0.172
# Mean RMSD: 0.159
data_MOF--net-ttw--node1-BEQFEK_clean_sbu_0--edge1-FUNLAD_clean_linker_1
_symmetry_space_group_name_H-M    P1
_symmetry_Int_Tables_number       1
_symmetry_cell_setting            triclinic
loop_
_symmetry_equiv_pos_as_xyz
'x, y, z'
_cell_length_a     57.713868
_cell_length_b     60.135719
_cell_length_c     20.125812
_cell_angle_alpha  91.322147
_cell_angle_beta   90.070352
_cell_angle_gamma 125.64276
loop_
_atom_site_label
_atom_site_type_symbol
_atom_site_fract_x
_atom_site_fract_y
_atom_site_fract_z
_atom_type_partial_charge
Co0 Co 0.18033 0.53843 0.05451 0.0
Co1 Co 0.1755 0.53519 0.20973 0.0
C2 C 0.21867 0.53159 0.13798 0.0
O3 O 0.20999 0.5335 0.08157 0.0
O4 O 0.20722 0.5318 0.19185 0.0
C5 C 0.18395 0.52447 0.91856 0.0
O6 O 0.19352 0.51128 0.94404 0.0
C7 C 0.17206 0.5185 0.34792 0.0
C8 C 0.15357 0.53795 0.39679 0.0
C9 C 0.16423 0.52287 0.40922 0.0
N10 N 0.16657 0.53066 0.30155 0.0
N11 N 0.15531 0.54205 0.33106 0.0
C12 C 0.18543 0.50384 0.33365 0.0
H13 H 0.20897 0.5188 0.33637 0.0
H14 H 0.17926 0.49438 0.28287 0.0
H15 H 0.1789 0.4878 0.37044 0.0
C16 C 0.11907 0.49269 0.06382 0.0
N17 N 0.14473 0.51169 0.0919 0.0
N18 N 0.14277 0.50981 0.15693 0.0
C19 C 0.11584 0.48932 0.1723 0.0
C20 C 0.09986 0.47804 0.11391 0.0
C21 C 0.11369 0.48779 0.99045 0.0
H22 H 0.12972 0.48546 0.96806 0.0
H23 H 0.0922 0.46902 0.97849 0.0
H24 H 0.11609 0.50572 0.96824 0.0
O25 O 0.19389 0.57596 0.08247 0.0
O26 O 0.18956 0.57336 0.19205 0.0
H27 H 0.10578 0.49853 0.26637 0.0
H28 H 0.08327 0.46265 0.24261 0.0
C29 C 0.10534 0.4816 0.24172 0.0
H30 H 0.11969 0.47854 0.27021 0.0
H31 H 0.1494 0.55316 0.30644 0.0
O32 O 0.17706 0.5368 0.95654 0.0
C33 C 0.1965 0.58696 0.13933 0.0
Co34 Co 0.48955 0.16642 0.15525 0.0
Co35 Co 0.49176 0.16674 0.99904 0.0
C36 C 0.47899 0.20142 0.07541 0.0
O37 O 0.4811 0.19289 0.1309 0.0
O38 O 0.48183 0.19244 0.02047 0.0
C39 C 0.46476 0.1576 0.2871 0.0
O40 O 0.44412 0.15737 0.25867 0.0
C41 C 0.47237 0.1594 0.85931 0.0
C42 C 0.50584 0.15919 0.80701 0.0
C43 C 0.48116 0.15762 0.79658 0.0
N44 N 0.49095 0.16193 0.90471 0.0
N45 N 0.5109 0.16176 0.87301 0.0
C46 C 0.4468 0.15884 0.87589 0.0
H47 H 0.44221 0.15551 0.92969 0.0
H48 H 0.42801 0.14239 0.84621 0.0
H49 H 0.45089 0.17866 0.86281 0.0
C50 C 0.45548 0.1068 0.12639 0.0
N51 N 0.46748 0.13257 0.10654 0.0
N52 N 0.46766 0.13271 0.04114 0.0
C53 C 0.45508 0.10694 0.01731 0.0
C54 C 0.44697 0.08961 0.07026 0.0
C55 C 0.45822 0.10022 0.19602 0.0
H56 H 0.4782 0.11769 0.21975 0.0
H57 H 0.43991 0.09619 0.22529 0.0
H58 H 0.45873 0.08213 0.19716 0.0
O59 O 0.53022 0.1837 0.13867 0.0
O60 O 0.53199 0.18432 0.02832 0.0
H61 H 0.47597 0.10852 0.92801 0.0
H62 H 0.44084 0.07699 0.93642 0.0
C63 C 0.45401 0.09949 0.94532 0.0
H64 H 0.4448 0.10802 0.91591 0.0
H65 H 0.5281 0.1636 0.89646 0.0
O66 O 0.48487 0.16095 0.25241 0.0
C67 C 0.54413 0.18965 0.08522 0.0
Co68 Co 0.47675 0.64151 0.96145 0.0
Co69 Co 0.4817 0.64505 0.11735 0.0
C70 C 0.49101 0.69119 0.04529 0.0
O71 O 0.48508 0.67734 0.9912 0.0
O72 O 0.49176 0.68197 0.101 0.0
C73 C 0.5051 0.65947 0.83681 0.0
O74 O 0.52794 0.67532 0.87454 0.0
C75 C 0.48903 0.65542 0.26375 0.0
C76 C 0.47762 0.61543 0.29674 0.0
C77 C 0.48606 0.64103 0.31993 0.0
N78 N 0.48307 0.63915 0.20979 0.0
N79 N 0.47595 0.61521 0.2301 0.0
C80 C 0.4972 0.68399 0.26098 0.0
H81 H 0.47892 0.68338 0.24084 0.0
H82 H 0.51516 0.69588 0.22638 0.0
H83 H 0.50347 0.69439 0.31071 0.0
C84 C 0.51478 0.6238 0.98006 0.0
N85 N 0.50112 0.63433 0.0035 0.0
N86 N 0.50563 0.63866 0.06811 0.0
C87 C 0.52397 0.63286 0.08697 0.0
C88 C 0.53004 0.62282 0.0318 0.0
C89 C 0.51144 0.61281 0.91049 0.0
H90 H 0.49067 0.60634 0.88855 0.0
H91 H 0.52886 0.6291 0.87993 0.0
H92 H 0.51291 0.59522 0.90907 0.0
O93 O 0.43684 0.61289 0.98168 0.0
O94 O 0.44074 0.61751 0.09171 0.0
H95 H 0.51922 0.61412 0.17974 0.0
H96 H 0.55542 0.64049 0.1602 0.0
C97 C 0.53331 0.63449 0.15743 0.0
H98 H 0.53244 0.6498 0.1867 0.0
H99 H 0.46965 0.59857 0.19829 0.0
O100 O 0.48111 0.64297 0.86355 0.0
C101 C 0.42574 0.6063 0.03875 0.0
Co102 Co 0.80605 0.36297 0.1423 0.0
Co103 Co 0.81287 0.37056 0.9867 0.0
C104 C 0.76217 0.32027 0.04549 0.0
O105 O 0.77188 0.3284 0.10468 0.0
O106 O 0.77576 0.33459 0.99565 0.0
C107 C 0.81015 0.34271 0.26872 0.0
O108 O 0.81403 0.32674 0.23247 0.0
C109 C 0.80964 0.35991 0.84117 0.0
C110 C 0.84303 0.40104 0.80555 0.0
C111 C 0.8225 0.37433 0.78398 0.0
N112 N 0.82205 0.37724 0.89418 0.0
N113 N 0.84193 0.40181 0.87233 0.0
C114 C 0.78599 0.33013 0.84552 0.0
H115 H 0.79069 0.32117 0.8864 0.0
H116 H 0.78299 0.31881 0.79823 0.0
H117 H 0.7659 0.3278 0.8572 0.0
C118 C 0.86585 0.38048 0.12846 0.0
N119 N 0.84039 0.37213 0.10216 0.0
N120 N 0.84209 0.37256 0.03683 0.0
C121 C 0.86809 0.37956 0.01976 0.0
C122 C 0.88398 0.38486 0.0773 0.0
C123 C 0.87382 0.38701 0.20073 0.0
H124 H 0.8613 0.39342 0.22513 0.0
H125 H 0.86939 0.36855 0.22493 0.0
H126 H 0.89689 0.40352 0.20777 0.0
O127 O 0.80074 0.39194 0.12744 0.0
O128 O 0.80857 0.39955 0.01929 0.0
H129 H 0.88615 0.40532 0.93627 0.0
H130 H 0.89693 0.38298 0.94566 0.0
C131 C 0.87875 0.38444 0.95019 0.0
H132 H 0.86145 0.36925 0.91537 0.0
H133 H 0.8545 0.41923 0.90304 0.0
O134 O 0.80673 0.35933 0.24048 0.0
C135 C 0.80297 0.40495 0.07606 0.0
Co136 Co 0.40707 0.83458 0.1559 0.0
Co137 Co 0.40536 0.83693 0.9974 0.0
C138 C 0.44604 0.82968 0.0642 0.0
O139 O 0.43557 0.82906 0.12046 0.0
O140 O 0.43743 0.83364 0.01038 0.0
C141 C 0.43451 0.84755 0.28634 0.0
O142 O 0.45696 0.85435 0.25196 0.0
C143 C 0.41354 0.84481 0.84901 0.0
C144 C 0.37354 0.83974 0.82226 0.0
C145 C 0.39802 0.84453 0.79528 0.0
N146 N 0.39858 0.84018 0.90496 0.0
N147 N 0.37465 0.83698 0.88806 0.0
C148 C 0.44255 0.85076 0.84797 0.0
H149 H 0.45369 0.85984 0.89651 0.0
H150 H 0.45541 0.86494 0.80766 0.0
H151 H 0.44035 0.83133 0.83893 0.0
C152 C 0.41132 0.88553 0.14443 0.0
N153 N 0.41087 0.86477 0.1164 0.0
N154 N 0.41127 0.86659 0.05121 0.0
C155 C 0.41293 0.88922 0.03593 0.0
C156 C 0.41269 0.9018 0.0947 0.0
C157 C 0.40945 0.88901 0.21767 0.0
H158 H 0.39017 0.87 0.23681 0.0
H159 H 0.42829 0.89219 0.243 0.0
H160 H 0.40872 0.90667 0.22987 0.0
O161 O 0.369 0.80124 0.13447 0.0
O162 O 0.36949 0.80181 0.02399 0.0
H163 H 0.38923 0.88546 0.94956 0.0
H164 H 0.42168 0.91895 0.96262 0.0
C165 C 0.41181 0.89686 0.96634 0.0
H166 H 0.42318 0.89154 0.93273 0.0
H167 H 0.35903 0.83304 0.92179 0.0
O168 O 0.41128 0.83911 0.25579 0.0
C169 C 0.3573 0.79045 0.07805 0.0
Co170 Co 0.62597 0.46033 0.18584 0.0
Co171 Co 0.61484 0.44971 0.03225 0.0
C172 C 0.66604 0.4579 0.09878 0.0
O173 O 0.66017 0.46275 0.15593 0.0
O174 O 0.64997 0.45196 0.04825 0.0
C175 C 0.63974 0.46103 0.32103 0.0
O176 O 0.64791 0.44612 0.29732 0.0
C177 C 0.62669 0.456 0.88969 0.0
C178 C 0.58363 0.43631 0.84576 0.0
C179 C 0.61201 0.44919 0.82963 0.0
N180 N 0.60789 0.44747 0.93908 0.0
N181 N 0.58219 0.43578 0.91251 0.0
C182 C 0.65813 0.47074 0.90038 0.0
H183 H 0.66517 0.48374 0.94644 0.0
H184 H 0.67022 0.48369 0.85769 0.0
H185 H 0.66291 0.45548 0.90621 0.0
C186 C 0.62138 0.50557 0.15529 0.0
N187 N 0.6212 0.48384 0.13664 0.0
N188 N 0.61745 0.48004 0.07183 0.0
C189 C 0.61549 0.4995 0.04686 0.0
C190 C 0.61746 0.51612 0.0992 0.0
C191 C 0.6241 0.51514 0.22605 0.0
H192 H 0.60754 0.49778 0.25588 0.0
H193 H 0.64521 0.52194 0.24648 0.0
H194 H 0.6218 0.53216 0.23103 0.0
O195 O 0.59196 0.4216 0.17714 0.0
O196 O 0.58284 0.41489 0.06854 0.0
H197 H 0.59207 0.48775 0.95492 0.0
H198 H 0.62017 0.52401 0.96366 0.0
C199 C 0.61406 0.50324 0.97404 0.0
H200 H 0.62879 0.5002 0.94722 0.0
H201 H 0.56364 0.42725 0.93998 0.0
O202 O 0.63026 0.47022 0.28148 0.0
C203 C 0.5769 0.40632 0.12761 0.0
H204 H 0.05953 0.43868 0.13789 0.0
C205 C 0.06887 0.45673 0.10801 0.0
H206 H 0.06122 0.47926 0.04452 0.0
H207 H 0.93925 0.38494 0.93783 0.0
H208 H 0.96704 0.39705 0.838 0.0
H209 H 0.01952 0.42891 0.84343 0.0
H210 H 0.04437 0.44895 0.94868 0.0
C211 C 0.0519 0.46086 0.07314 0.0
C212 C 0.02028 0.44068 0.07112 0.0
C213 C 0.00602 0.42883 0.00915 0.0
C214 C 0.97575 0.41033 0.00605 0.0
C215 C 0.96212 0.39916 0.94329 0.0
C216 C 0.97785 0.40587 0.88546 0.0
C217 C 0.00737 0.42378 0.88851 0.0
C218 C 0.02139 0.43517 0.94941 0.0
H219 H 0.92736 0.41915 0.10853 0.0
C220 C 0.91505 0.39922 0.08308 0.0
H221 H 0.91573 0.36809 0.03533 0.0
H222 H 0.03997 0.46245 0.19766 0.0
H223 H 0.01244 0.44746 0.29814 0.0
H224 H 0.96078 0.41076 0.2939 0.0
H225 H 0.93631 0.38961 0.18848 0.0
C226 C 0.92812 0.38811 0.06031 0.0
C227 C 0.95978 0.40376 0.06493 0.0
C228 C 0.97415 0.41417 0.12737 0.0
C229 C 0.00428 0.43363 0.13027 0.0
C230 C 0.01752 0.44609 0.19268 0.0
C231 C 0.00187 0.43791 0.25087 0.0
C232 C 0.97278 0.41739 0.24845 0.0
C233 C 0.95896 0.40561 0.18757 0.0
H234 H 0.39289 0.9209 0.13791 0.0
C235 C 0.40896 0.92397 0.1035 0.0
H236 H 0.44296 0.95222 0.04253 0.0
H237 H 0.39308 0.02092 0.99527 0.0
H238 H 0.37849 0.99462 0.89108 0.0
H239 H 0.38348 0.9568 0.87504 0.0
H240 H 0.40287 0.94498 0.96316 0.0
C241 C 0.42595 0.94822 0.07483 0.0
C242 C 0.4219 0.97028 0.08585 0.0
C243 C 0.41076 0.97706 0.03363 0.0
C244 C 0.4084 0.99918 0.04237 0.0
C245 C 0.39634 0.00497 0.99022 0.0
C246 C 0.38761 0.98986 0.93047 0.0
C247 C 0.39037 0.96854 0.92148 0.0
C248 C 0.40167 0.96205 0.97237 0.0
H249 H 0.44983 0.05739 0.02689 0.0
C250 C 0.43981 0.06169 0.06586 0.0
H251 H 0.41138 0.04552 0.14589 0.0
H252 H 0.44352 0.96226 0.19697 0.0
H253 H 0.45522 0.98674 0.30295 0.0
H254 H 0.44902 0.02375 0.3195 0.0
H255 H 0.43131 0.03658 0.22992 0.0
C256 C 0.42175 0.04169 0.10695 0.0
C257 C 0.41782 0.01489 0.10279 0.0
C258 C 0.42665 0.00662 0.15689 0.0
C259 C 0.42933 0.98468 0.14798 0.0
C260 C 0.44016 0.97813 0.20145 0.0
C261 C 0.44715 0.99215 0.26253 0.0
C262 C 0.44375 0.01304 0.27179 0.0
C263 C 0.43373 0.02034 0.21973 0.0
H264 H 0.62628 0.55557 0.13465 0.0
C265 C 0.61462 0.53902 0.0977 0.0
H266 H 0.5826 0.52133 0.02237 0.0
H267 H 0.54131 0.58981 0.16475 0.0
H268 H 0.52066 0.55352 0.24436 0.0
H269 H 0.53159 0.51948 0.2409 0.0
H270 H 0.56331 0.52167 0.15814 0.0
C271 C 0.59584 0.53843 0.05703 0.0
C272 C 0.59067 0.55985 0.0617 0.0
C273 C 0.57191 0.55808 0.11016 0.0
C274 C 0.56523 0.57739 0.11147 0.0
C275 C 0.5467 0.57539 0.16084 0.0
C276 C 0.53479 0.55471 0.20698 0.0
C277 C 0.54097 0.53558 0.20508 0.0
C278 C 0.55927 0.53711 0.15732 0.0
H279 H 0.52991 0.58685 0.00712 0.0
C280 C 0.54224 0.607 0.03143 0.0
H281 H 0.58113 0.63694 0.08097 0.0
H282 H 0.62874 0.56987 0.96532 0.0
H283 H 0.64973 0.60653 0.88637 0.0
H284 H 0.63772 0.63978 0.888 0.0
H285 H 0.60465 0.6366 0.96866 0.0
C286 C 0.56738 0.61623 0.06031 0.0
C287 C 0.57695 0.59809 0.06363 0.0
C288 C 0.5965 0.60046 0.01679 0.0
C289 C 0.60333 0.58124 0.01572 0.0
C290 C 0.6227 0.58385 0.96798 0.0
C291 C 0.63492 0.60481 0.92251 0.0
C292 C 0.62817 0.62354 0.92344 0.0
C293 C 0.60916 0.62148 0.9699 0.0
H294 H 0.17855 0.50472 0.47833 0.0
C295 C 0.1688 0.5156 0.47516 0.0
H296 H 0.15385 0.53529 0.52936 0.0
H297 H 0.14573 0.4619 0.77464 0.0
H298 H 0.1054 0.42328 0.71321 0.0
H299 H 0.09445 0.42824 0.59826 0.0
H300 H 0.12373 0.47183 0.54398 0.0
C301 C 0.1626 0.52347 0.53126 0.0
C302 C 0.17057 0.51943 0.5976 0.0
C303 C 0.15345 0.49371 0.62802 0.0
C304 C 0.15969 0.49088 0.69436 0.0
C305 C 0.14194 0.46515 0.7243 0.0
C306 C 0.11874 0.44283 0.68961 0.0
C307 C 0.11258 0.44562 0.62486 0.0
C308 C 0.1296 0.47073 0.59424 0.0
H309 H 0.17378 0.53735 0.82848 0.0
C310 C 0.18091 0.52529 0.84633 0.0
H311 H 0.19281 0.49911 0.81864 0.0
H312 H 0.20887 0.57092 0.55141 0.0
H313 H 0.25014 0.60907 0.61144 0.0
H314 H 0.2616 0.60383 0.72562 0.0
H315 H 0.23173 0.56046 0.78057 0.0
C316 C 0.1866 0.51205 0.80227 0.0
C317 C 0.18284 0.51384 0.73 0.0
C318 C 0.20097 0.5391 0.69807 0.0
C319 C 0.19463 0.54198 0.632 0.0
C320 C 0.21271 0.56761 0.60165 0.0
C321 C 0.23651 0.58965 0.63545 0.0
C322 C 0.24294 0.58671 0.69975 0.0
C323 C 0.22551 0.56177 0.73088 0.0
H324 H 0.48326 0.15473 0.37906 0.0
C325 C 0.46554 0.15445 0.35923 0.0
H326 H 0.42872 0.15249 0.38304 0.0
H327 H 0.46208 0.10679 0.64222 0.0
H328 H 0.44561 0.06693 0.5709 0.0
H329 H 0.43003 0.06459 0.45514 0.0
H330 H 0.43093 0.10219 0.40997 0.0
C331 C 0.44607 0.15188 0.40113 0.0
C332 C 0.44971 0.15068 0.47398 0.0
C333 C 0.44835 0.12827 0.50016 0.0
C334 C 0.45704 0.12951 0.56705 0.0
C335 C 0.45591 0.10701 0.59158 0.0
C336 C 0.44638 0.08395 0.55128 0.0
C337 C 0.43762 0.08264 0.4861 0.0
C338 C 0.43845 0.10444 0.46064 0.0
H339 H 0.44792 0.15357 0.73062 0.0
C340 C 0.46771 0.15526 0.73163 0.0
H341 H 0.49916 0.15662 0.6746 0.0
H342 H 0.45079 0.19522 0.44184 0.0
H343 H 0.46597 0.23459 0.51368 0.0
H344 H 0.48223 0.23741 0.62896 0.0
H345 H 0.48323 0.20089 0.67324 0.0
C346 C 0.47979 0.1557 0.67414 0.0
C347 C 0.46669 0.15298 0.60798 0.0
C348 C 0.46623 0.17463 0.58311 0.0
C349 C 0.45735 0.17327 0.51618 0.0
C350 C 0.45743 0.19526 0.49216 0.0
C351 C 0.4661 0.21799 0.53285 0.0
C352 C 0.47522 0.21955 0.59778 0.0
C353 C 0.47551 0.1983 0.62274 0.0
H354 H 0.5287 0.66824 0.7436 0.0
C355 C 0.50776 0.65974 0.76399 0.0
H356 H 0.46426 0.64138 0.74356 0.0
H357 H 0.53413 0.69017 0.45565 0.0
H358 H 0.56073 0.73504 0.50999 0.0
H359 H 0.55261 0.74067 0.62758 0.0
H360 H 0.51851 0.70131 0.69199 0.0
C361 C 0.48517 0.64987 0.72296 0.0
C362 C 0.48714 0.64746 0.64957 0.0
C363 C 0.50572 0.67093 0.61146 0.0
C364 C 0.50885 0.66791 0.54233 0.0
C365 C 0.52956 0.69139 0.50711 0.0
C366 C 0.5452 0.71729 0.5379 0.0
C367 C 0.54074 0.72044 0.60418 0.0
C368 C 0.52127 0.69762 0.64077 0.0
H369 H 0.48453 0.66451 0.40429 0.0
C370 C 0.48851 0.64946 0.39062 0.0
H371 H 0.49812 0.62269 0.42361 0.0
H372 H 0.44955 0.59812 0.70763 0.0
H373 H 0.42003 0.55377 0.65153 0.0
H374 H 0.42205 0.54906 0.53004 0.0
H375 H 0.45392 0.5886 0.46416 0.0
C376 C 0.49422 0.63777 0.43795 0.0
C377 C 0.49167 0.64166 0.51034 0.0
C378 C 0.47212 0.61838 0.54796 0.0
C379 C 0.47021 0.62122 0.6177 0.0
C380 C 0.4514 0.59738 0.65429 0.0
C381 C 0.43435 0.5717 0.62276 0.0
C382 C 0.43553 0.56904 0.55442 0.0
C383 C 0.4541 0.59198 0.51723 0.0
H384 H 0.79294 0.34641 0.703 0.0
C385 C 0.8144 0.36438 0.71402 0.0
H386 H 0.854 0.39563 0.67532 0.0
H387 H 0.78186 0.30352 0.42371 0.0
H388 H 0.77856 0.26975 0.49445 0.0
H389 H 0.79785 0.28207 0.6093 0.0
H390 H 0.81953 0.32792 0.65478 0.0
C391 C 0.83261 0.37752 0.66409 0.0
C392 C 0.82373 0.37028 0.59254 0.0
C393 C 0.81309 0.3439 0.56527 0.0
C394 C 0.80414 0.3374 0.49723 0.0
C395 C 0.79085 0.31012 0.47342 0.0
C396 C 0.78853 0.29043 0.51376 0.0
C397 C 0.79923 0.29732 0.57854 0.0
C398 C 0.8114 0.3237 0.60423 0.0
H399 H 0.82674 0.33822 0.36245 0.0
C400 C 0.81354 0.34389 0.34167 0.0
H401 H 0.78817 0.35787 0.36043 0.0
H402 H 0.84116 0.42217 0.62929 0.0
H403 H 0.84728 0.45671 0.55688 0.0
H404 H 0.83679 0.44706 0.43667 0.0
H405 H 0.81966 0.40272 0.38844 0.0
C406 C 0.80149 0.35248 0.38203 0.0
C407 C 0.80834 0.35802 0.45489 0.0
C408 C 0.81938 0.38451 0.48204 0.0
C409 C 0.8265 0.39044 0.55099 0.0
C410 C 0.83624 0.4167 0.57703 0.0
C411 C 0.83975 0.43676 0.53605 0.0
C412 C 0.83377 0.43131 0.46844 0.0
C413 C 0.82378 0.40561 0.44146 0.0
H414 H 0.45699 0.85616 0.38272 0.0
C415 C 0.43664 0.84922 0.35996 0.0
H416 H 0.39383 0.83408 0.37727 0.0
H417 H 0.38547 0.78918 0.66209 0.0
H418 H 0.35652 0.74699 0.59635 0.0
H419 H 0.35511 0.74766 0.47396 0.0
H420 H 0.38251 0.79054 0.41649 0.0
C421 C 0.41458 0.84202 0.39931 0.0
C422 C 0.41684 0.84193 0.47347 0.0
C423 C 0.40098 0.81668 0.50653 0.0
C424 C 0.40209 0.81626 0.57724 0.0
C425 C 0.38564 0.79071 0.60862 0.0
C426 C 0.3689 0.76632 0.57148 0.0
C427 C 0.36809 0.7667 0.50257 0.0
C428 C 0.38389 0.79149 0.47022 0.0
H429 H 0.3943 0.85641 0.69544 0.0
C430 C 0.40431 0.84874 0.72335 0.0
H431 H 0.42619 0.8304 0.71494 0.0
H432 H 0.44863 0.89414 0.42728 0.0
H433 H 0.47886 0.93614 0.49291 0.0
H434 H 0.48274 0.93514 0.61472 0.0
H435 H 0.45604 0.89208 0.67181 0.0
C436 C 0.4183 0.84054 0.68956 0.0
C437 C 0.41903 0.8411 0.61517 0.0
C438 C 0.43548 0.86631 0.5821 0.0
C439 C 0.43406 0.86679 0.5114 0.0
C440 C 0.44965 0.89243 0.48039 0.0
C441 C 0.46697 0.91674 0.51756 0.0
C442 C 0.46908 0.91619 0.58617 0.0
C443 C 0.45355 0.89135 0.61834 0.0
H444 H 0.6282 0.47433 0.40995 0.0
C445 C 0.63799 0.46432 0.3931 0.0
H446 H 0.65471 0.44264 0.4214 0.0
H447 H 0.64314 0.50012 0.69881 0.0
H448 H 0.68014 0.54372 0.65297 0.0
H449 H 0.69922 0.54591 0.54179 0.0
H450 H 0.681 0.50447 0.47534 0.0
C451 C 0.64579 0.45349 0.43774 0.0
C452 C 0.63813 0.45218 0.50876 0.0
C453 C 0.64993 0.47649 0.54808 0.0
C454 C 0.63982 0.47512 0.61332 0.0
C455 C 0.65076 0.49984 0.64997 0.0
C456 C 0.67191 0.52505 0.62408 0.0
C457 C 0.68258 0.52629 0.5614 0.0
C458 C 0.6718 0.50237 0.52361 0.0
H459 H 0.64598 0.46113 0.75695 0.0
C460 C 0.62377 0.45345 0.76226 0.0
H461 H 0.5851 0.43894 0.71174 0.0
H462 H 0.61193 0.4015 0.4477 0.0
H463 H 0.57687 0.35778 0.4958 0.0
H464 H 0.56088 0.35531 0.61072 0.0
H465 H 0.57972 0.39659 0.67801 0.0
C466 C 0.60759 0.44747 0.70758 0.0
C467 C 0.61882 0.44932 0.64002 0.0
C468 C 0.60795 0.42496 0.60175 0.0
C469 C 0.61754 0.42638 0.53597 0.0
C470 C 0.60576 0.4017 0.4983 0.0
C471 C 0.58555 0.37641 0.52526 0.0
C472 C 0.57652 0.37502 0.58991 0.0
C473 C 0.58749 0.39891 0.62793 0.0
H474 H 0.25366 0.53425 0.19133 0.0
C475 C 0.24509 0.53314 0.14224 0.0
H476 H 0.25302 0.53711 0.03899 0.0
H477 H 0.38419 0.62392 0.1394 0.0
H478 H 0.36898 0.65337 0.16077 0.0
H479 H 0.31826 0.63536 0.15075 0.0
H480 H 0.28238 0.58775 0.12116 0.0
C481 C 0.26096 0.53776 0.0885 0.0
C482 C 0.29137 0.54827 0.09544 0.0
C483 C 0.31206 0.57625 0.11319 0.0
C484 C 0.34136 0.58676 0.11746 0.0
C485 C 0.36161 0.6148 0.13522 0.0
C486 C 0.3532 0.63199 0.14756 0.0
C487 C 0.32464 0.62184 0.14218 0.0
C488 C 0.30423 0.59436 0.12525 0.0
H489 H 0.38208 0.58008 0.99649 0.0
C490 C 0.39445 0.58732 0.04275 0.0
H491 H 0.39296 0.58956 0.14742 0.0
H492 H 0.25709 0.49392 0.05999 0.0
H493 H 0.27244 0.46458 0.03595 0.0
H494 H 0.32337 0.48289 0.04285 0.0
H495 H 0.35931 0.53066 0.0737 0.0
C496 C 0.3809 0.58153 0.10087 0.0
C497 C 0.34997 0.56949 0.10205 0.0
C498 C 0.32931 0.54152 0.08464 0.0
C499 C 0.29993 0.53091 0.08118 0.0
C500 C 0.27968 0.50296 0.06332 0.0
C501 C 0.2882 0.48593 0.0495 0.0
C502 C 0.31689 0.49625 0.05334 0.0
C503 C 0.3373 0.5237 0.07081 0.0
H504 H 0.5849 0.2099 0.14028 0.0
C505 C 0.5753 0.20461 0.09068 0.0
H506 H 0.58328 0.20824 0.98741 0.0
H507 H 0.703 0.31607 0.12195 0.0
H508 H 0.67486 0.33345 0.14288 0.0
H509 H 0.62313 0.3048 0.11853 0.0
H510 H 0.59927 0.25857 0.07332 0.0
C511 C 0.59223 0.21357 0.0376 0.0
C512 C 0.62373 0.23163 0.04661 0.0
C513 C 0.63739 0.25878 0.0722 0.0
C514 C 0.66724 0.27541 0.08531 0.0
C515 C 0.68035 0.30244 0.11115 0.0
C516 C 0.66446 0.31274 0.12325 0.0
C517 C 0.63535 0.29661 0.1096 0.0
C518 C 0.62188 0.27 0.08412 0.0
H519 H 0.72484 0.28986 0.98312 0.0
C520 C 0.73287 0.2956 0.03411 0.0
H521 H 0.72208 0.28962 0.13548 0.0
H522 H 0.60429 0.18117 0.99375 0.0
H523 H 0.6327 0.16417 0.96966 0.0
H524 H 0.68458 0.19306 0.99246 0.0
H525 H 0.70839 0.23915 0.03942 0.0
C526 C 0.71474 0.28305 0.08431 0.0
C527 C 0.68347 0.26509 0.07132 0.0
C528 C 0.66997 0.23825 0.04394 0.0
C529 C 0.64003 0.22152 0.03128 0.0
C530 C 0.62697 0.19472 0.00433 0.0
C531 C 0.64302 0.18471 0.99032 0.0
C532 C 0.67224 0.20099 0.0031 0.0
C533 C 0.68567 0.22744 0.02979 0.0
H534 H 0.48188 0.71829 0.0017 0.0
C535 C 0.49287 0.71661 0.04303 0.0
H536 H 0.51618 0.73441 0.13229 0.0
H537 H 0.47894 0.80548 0.95827 0.0
H538 H 0.50686 0.80573 0.86851 0.0
H539 H 0.53429 0.78642 0.88251 0.0
H540 H 0.53266 0.76551 0.98618 0.0
C541 C 0.50519 0.73621 0.09128 0.0
C542 C 0.50028 0.75806 0.09349 0.0
C543 C 0.50393 0.77284 0.03573 0.0
C544 C 0.49022 0.78616 0.02996 0.0
C545 C 0.49068 0.797 0.96781 0.0
C546 C 0.50642 0.797 0.91533 0.0
C547 C 0.52173 0.78599 0.92305 0.0
C548 C 0.52048 0.77393 0.98241 0.0
H549 H 0.48772 0.83688 0.04493 0.0
C550 C 0.46606 0.82212 0.06121 0.0
H551 H 0.43518 0.78296 0.09561 0.0
H552 H 0.49435 0.73685 0.21722 0.0
H553 H 0.47316 0.74283 0.31307 0.0
H554 H 0.4542 0.7704 0.30738 0.0
H555 H 0.45582 0.79166 0.20495 0.0
C556 C 0.45704 0.79691 0.07912 0.0
C557 C 0.47566 0.78736 0.08527 0.0
C558 C 0.47612 0.77637 0.14658 0.0
C559 C 0.48792 0.76124 0.15046 0.0
C560 C 0.48619 0.74892 0.21122 0.0
C561 C 0.47408 0.75222 0.26697 0.0
C562 C 0.46336 0.76769 0.26375 0.0
C563 C 0.46429 0.77965 0.20447 0.0
H564 H 0.80972 0.44448 0.05775 0.0
C565 C 0.79604 0.42486 0.08123 0.0
H566 H 0.75821 0.39762 0.13188 0.0
H567 H 0.7191 0.46331 0.25816 0.0
H568 H 0.7295 0.44705 0.35441 0.0
H569 H 0.75615 0.42673 0.34376 0.0
H570 H 0.77197 0.42203 0.23624 0.0
C571 C 0.7716 0.41761 0.10968 0.0
C572 C 0.76197 0.43579 0.11606 0.0
C573 C 0.75429 0.43986 0.17984 0.0
C574 C 0.73979 0.45245 0.18629 0.0
C575 C 0.73063 0.45443 0.25008 0.0
C576 C 0.73649 0.44517 0.30603 0.0
C577 C 0.75144 0.43369 0.30004 0.0
C578 C 0.76026 0.43099 0.23789 0.0
H579 H 0.68823 0.44234 0.05163 0.0
C580 C 0.69007 0.45589 0.09133 0.0
H581 H 0.71473 0.48235 0.17186 0.0
H582 H 0.77113 0.42984 0.98376 0.0
H583 H 0.76753 0.45254 0.89116 0.0
H584 H 0.75131 0.48223 0.90735 0.0
H585 H 0.73715 0.48802 0.01656 0.0
C586 C 0.71296 0.46876 0.13251 0.0
C587 C 0.73413 0.46204 0.12916 0.0
C588 C 0.74562 0.46162 0.06724 0.0
C589 C 0.75779 0.44688 0.05947 0.0
C590 C 0.76437 0.44288 0.99441 0.0
C591 C 0.76198 0.45551 0.9403 0.0
C592 C 0.75267 0.47207 0.9493 0.0
C593 C 0.74445 0.47507 0.01192 0.0
H594 H 0.21207 0.62546 0.19475 0.0
C595 C 0.21136 0.61681 0.14609 0.0
H596 H 0.22783 0.62538 0.04893 0.0
H597 H 0.27631 0.75065 0.05982 0.0
H598 H 0.23439 0.73256 0.98946 0.0
H599 H 0.19863 0.68272 0.97358 0.0
H600 H 0.20447 0.65067 0.02835 0.0
C601 C 0.22796 0.63359 0.09771 0.0
C602 C 0.2488 0.66357 0.11019 0.0
C603 C 0.24523 0.68198 0.07728 0.0
C604 C 0.26609 0.7107 0.0855 0.0
C605 C 0.26155 0.72865 0.05365 0.0
C606 C 0.23748 0.71853 0.01356 0.0
C607 C 0.21732 0.69047 0.00469 0.0
C608 C 0.22098 0.67231 0.03624 0.0
H609 H 0.32328 0.75215 0.02642 0.0
C610 C 0.32999 0.76307 0.07429 0.0
H611 H 0.32123 0.76119 0.17658 0.0
H612 H 0.26338 0.63396 0.17796 0.0
H613 H 0.30439 0.65213 0.25053 0.0
H614 H 0.33998 0.70193 0.26649 0.0
H615 H 0.33455 0.73379 0.21029 0.0
C616 C 0.31446 0.75061 0.12833 0.0
C617 C 0.29076 0.7209 0.12559 0.0
C618 C 0.29387 0.70252 0.16042 0.0
C619 C 0.27309 0.6738 0.152 0.0
C620 C 0.27772 0.65595 0.18432 0.0
C621 C 0.30143 0.66611 0.2257 0.0
C622 C 0.32147 0.69413 0.23466 0.0
C623 C 0.31799 0.71221 0.20214 0.0
H624 H 0.47696 0.2324 0.02542 0.0
C625 C 0.47888 0.22586 0.0738 0.0
H626 H 0.4916 0.23801 0.17444 0.0
H627 H 0.57826 0.35541 0.03658 0.0
H628 H 0.60291 0.3354 0.00403 0.0
H629 H 0.58185 0.28686 0.02389 0.0
H630 H 0.53614 0.25811 0.07642 0.0
C631 C 0.48837 0.24357 0.12607 0.0
C632 C 0.50118 0.27298 0.11593 0.0
C633 C 0.52838 0.28969 0.08641 0.0
C634 C 0.54075 0.31777 0.07599 0.0
C635 C 0.5678 0.33393 0.04579 0.0
C636 C 0.58227 0.32273 0.02696 0.0
C637 C 0.57042 0.29542 0.03813 0.0
C638 C 0.54394 0.27905 0.06785 0.0
H639 H 0.55217 0.3697 0.18878 0.0
C640 C 0.55451 0.3771 0.13871 0.0
H641 H 0.54346 0.36602 0.03728 0.0
H642 H 0.44957 0.2469 0.17612 0.0
H643 H 0.42544 0.26733 0.21177 0.0
H644 H 0.44719 0.31625 0.19478 0.0
H645 H 0.49321 0.34511 0.14208 0.0
C646 C 0.54035 0.35901 0.08795 0.0
C647 C 0.52639 0.32934 0.09708 0.0
C648 C 0.49952 0.31282 0.12775 0.0
C649 C 0.4869 0.28457 0.13723 0.0
C650 C 0.46003 0.26846 0.16781 0.0
C651 C 0.44599 0.27992 0.18842 0.0
C652 C 0.45825 0.30749 0.17888 0.0
C653 C 0.48468 0.32384 0.14879 0.0
loop_
_geom_bond_atom_site_label_1
_geom_bond_atom_site_label_2
_geom_bond_distance
_geom_bond_site_symmetry_2
_ccdc_geom_bond_type
Co0 O3 1.970 . S
Co0 N17 1.989 . S
Co0 O25 1.967 . S
Co0 O32 1.920 1_554 S
Co1 O4 1.966 . S
Co1 N10 2.022 . S
Co1 N18 1.993 . S
Co1 O26 1.941 . S
C2 O3 1.258 . S
C2 O4 1.263 . S
O3 Co0 1.970 . S
O3 C2 1.258 . S
O4 Co1 1.966 . S
O4 C2 1.263 . S
C5 O6 1.235 . S
C5 O32 1.289 . S
O6 C5 1.235 . S
C7 C9 1.400 . S
C7 N10 1.351 . S
C7 C12 1.501 . S
C8 C9 1.387 . S
C8 N11 1.341 . S
C9 C7 1.400 . S
C9 C8 1.387 . S
N10 Co1 2.022 . S
N10 C7 1.351 . S
N10 N11 1.365 . S
N11 C8 1.341 . S
N11 N10 1.365 . S
N11 H31 0.862 . S
C12 C7 1.501 . S
C12 H13 0.961 . S
C12 H14 0.961 . S
C12 H15 0.960 . S
H13 C12 0.961 . S
H14 C12 0.961 . S
H15 C12 0.960 . S
C16 N17 1.342 . S
C16 C20 1.401 . S
C16 C21 1.499 1_554 S
N17 Co0 1.989 . S
N17 C16 1.342 . S
N17 N18 1.388 . S
N18 Co1 1.993 . S
N18 N17 1.388 . S
N18 C19 1.346 . S
C19 N18 1.346 . S
C19 C20 1.396 . S
C19 C29 1.510 . S
C20 C16 1.401 . S
C20 C19 1.396 . S
C21 C16 1.499 1_556 S
C21 H22 0.959 . S
C21 H23 0.960 . S
C21 H24 0.961 . S
H22 C21 0.959 . S
H23 C21 0.960 . S
H24 C21 0.961 . S
O25 Co0 1.967 . S
O25 C33 1.258 . S
O26 Co1 1.941 . S
O26 C33 1.266 . S
H27 C29 0.959 . S
H28 C29 0.961 . S
C29 C19 1.510 . S
C29 H27 0.959 . S
C29 H28 0.961 . S
C29 H30 0.960 . S
H30 C29 0.960 . S
H31 N11 0.862 . S
O32 Co0 1.920 1_556 S
O32 C5 1.289 . S
C33 O25 1.258 . S
C33 O26 1.266 . S
Co34 O37 1.970 . S
Co34 N51 1.989 . S
Co34 O59 1.967 . S
Co34 O66 1.920 . S
Co35 O38 1.962 1_556 S
Co35 N44 2.039 . S
Co35 N52 1.986 1_556 S
Co35 O60 1.938 1_556 S
C36 O37 1.258 . S
C36 O38 1.263 . S
O37 Co34 1.970 . S
O37 C36 1.258 . S
O38 Co35 1.962 1_554 S
O38 C36 1.263 . S
C39 O40 1.235 . S
C39 O66 1.289 . S
O40 C39 1.235 . S
C41 C43 1.400 . S
C41 N44 1.351 . S
C41 C46 1.501 . S
C42 C43 1.387 . S
C42 N45 1.341 . S
C43 C41 1.400 . S
C43 C42 1.387 . S
N44 Co35 2.039 . S
N44 C41 1.351 . S
N44 N45 1.365 . S
N45 C42 1.341 . S
N45 N44 1.365 . S
N45 H65 0.862 . S
C46 C41 1.501 . S
C46 H47 0.961 . S
C46 H48 0.961 . S
C46 H49 0.960 . S
H47 C46 0.961 . S
H48 C46 0.961 . S
H49 C46 0.960 . S
C50 N51 1.342 . S
C50 C54 1.401 . S
C50 C55 1.499 . S
N51 Co34 1.989 . S
N51 C50 1.342 . S
N51 N52 1.388 . S
N52 Co35 1.986 1_554 S
N52 N51 1.388 . S
N52 C53 1.346 . S
C53 N52 1.346 . S
C53 C54 1.396 . S
C53 C63 1.510 1_554 S
C54 C50 1.401 . S
C54 C53 1.396 . S
C55 C50 1.499 . S
C55 H56 0.959 . S
C55 H57 0.960 . S
C55 H58 0.961 . S
H56 C55 0.959 . S
H57 C55 0.960 . S
H58 C55 0.961 . S
O59 Co34 1.967 . S
O59 C67 1.258 . S
O60 Co35 1.938 1_554 S
O60 C67 1.266 . S
H61 C63 0.959 . S
H62 C63 0.961 . S
C63 C53 1.510 1_556 S
C63 H61 0.959 . S
C63 H62 0.961 . S
C63 H64 0.960 . S
H64 C63 0.960 . S
H65 N45 0.862 . S
O66 Co34 1.920 . S
O66 C39 1.289 . S
C67 O59 1.258 . S
C67 O60 1.266 . S
Co68 O71 1.970 . S
Co68 N85 1.989 . S
Co68 O93 1.967 . S
Co68 O100 1.920 1_554 S
Co69 O72 1.966 . S
Co69 N78 2.022 . S
Co69 N86 1.993 . S
Co69 O94 1.941 . S
C70 O71 1.258 . S
C70 O72 1.263 . S
O71 Co68 1.970 . S
O71 C70 1.258 . S
O72 Co69 1.966 . S
O72 C70 1.263 . S
C73 O74 1.235 . S
C73 O100 1.289 . S
O74 C73 1.235 . S
C75 C77 1.400 . S
C75 N78 1.351 . S
C75 C80 1.501 . S
C76 C77 1.387 . S
C76 N79 1.341 . S
C77 C75 1.400 . S
C77 C76 1.387 . S
N78 Co69 2.022 . S
N78 C75 1.351 . S
N78 N79 1.365 . S
N79 C76 1.341 . S
N79 N78 1.365 . S
N79 H99 0.862 . S
C80 C75 1.501 . S
C80 H81 0.961 . S
C80 H82 0.961 . S
C80 H83 0.960 . S
H81 C80 0.961 . S
H82 C80 0.961 . S
H83 C80 0.960 . S
C84 N85 1.342 . S
C84 C88 1.401 . S
C84 C89 1.499 1_554 S
N85 Co68 1.989 . S
N85 C84 1.342 . S
N85 N86 1.388 . S
N86 Co69 1.993 . S
N86 N85 1.388 . S
N86 C87 1.346 . S
C87 N86 1.346 . S
C87 C88 1.396 . S
C87 C97 1.510 . S
C88 C84 1.401 . S
C88 C87 1.396 . S
C89 C84 1.499 1_556 S
C89 H90 0.959 . S
C89 H91 0.960 . S
C89 H92 0.961 . S
H90 C89 0.959 . S
H91 C89 0.960 . S
H92 C89 0.961 . S
O93 Co68 1.967 . S
O93 C101 1.258 . S
O94 Co69 1.941 . S
O94 C101 1.266 . S
H95 C97 0.959 . S
H96 C97 0.961 . S
C97 C87 1.510 . S
C97 H95 0.959 . S
C97 H96 0.961 . S
C97 H98 0.960 . S
H98 C97 0.960 . S
H99 N79 0.862 . S
O100 Co68 1.920 1_556 S
O100 C73 1.289 . S
C101 O93 1.258 . S
C101 O94 1.266 . S
Co102 O105 1.970 . S
Co102 N119 1.989 . S
Co102 O127 1.967 . S
Co102 O134 1.920 . S
Co103 O106 1.966 . S
Co103 N112 2.022 1_554 S
Co103 N120 1.993 . S
Co103 O128 1.941 . S
C104 O105 1.258 . S
C104 O106 1.263 . S
O105 Co102 1.970 . S
O105 C104 1.258 . S
O106 Co103 1.966 . S
O106 C104 1.263 . S
C107 O108 1.235 . S
C107 O134 1.289 . S
O108 C107 1.235 . S
C109 C111 1.400 . S
C109 N112 1.351 . S
C109 C114 1.501 . S
C110 C111 1.387 . S
C110 N113 1.341 . S
C111 C109 1.400 . S
C111 C110 1.387 . S
N112 Co103 2.022 1_556 S
N112 C109 1.351 . S
N112 N113 1.365 . S
N113 C110 1.341 . S
N113 N112 1.365 . S
N113 H133 0.862 . S
C114 C109 1.501 . S
C114 H115 0.961 . S
C114 H116 0.961 . S
C114 H117 0.960 . S
H115 C114 0.961 . S
H116 C114 0.961 . S
H117 C114 0.960 . S
C118 N119 1.342 . S
C118 C122 1.401 . S
C118 C123 1.499 . S
N119 Co102 1.989 . S
N119 C118 1.342 . S
N119 N120 1.388 . S
N120 Co103 1.993 . S
N120 N119 1.388 . S
N120 C121 1.346 . S
C121 N120 1.346 . S
C121 C122 1.396 . S
C121 C131 1.510 1_554 S
C122 C118 1.401 . S
C122 C121 1.396 . S
C123 C118 1.499 . S
C123 H124 0.959 . S
C123 H125 0.960 . S
C123 H126 0.961 . S
H124 C123 0.959 . S
H125 C123 0.960 . S
H126 C123 0.961 . S
O127 Co102 1.967 . S
O127 C135 1.258 . S
O128 Co103 1.941 . S
O128 C135 1.266 . S
H129 C131 0.959 . S
H130 C131 0.961 . S
C131 C121 1.510 1_556 S
C131 H129 0.959 . S
C131 H130 0.961 . S
C131 H132 0.960 . S
H132 C131 0.960 . S
H133 N113 0.862 . S
O134 Co102 1.920 . S
O134 C107 1.289 . S
C135 O127 1.258 . S
C135 O128 1.266 . S
Co136 O139 1.970 . S
Co136 N153 1.989 . S
Co136 O161 1.967 . S
Co136 O168 1.920 . S
Co137 O140 1.966 . S
Co137 N146 2.022 . S
Co137 N154 1.993 1_556 S
Co137 O162 1.941 . S
C138 O139 1.258 . S
C138 O140 1.263 1_554 S
O139 Co136 1.970 . S
O139 C138 1.258 . S
O140 Co137 1.966 . S
O140 C138 1.263 1_556 S
C141 O142 1.235 . S
C141 O168 1.289 . S
O142 C141 1.235 . S
C143 C145 1.400 . S
C143 N146 1.351 . S
C143 C148 1.501 . S
C144 C145 1.387 . S
C144 N147 1.341 . S
C145 C143 1.400 . S
C145 C144 1.387 . S
N146 Co137 2.022 . S
N146 C143 1.351 . S
N146 N147 1.365 . S
N147 C144 1.341 . S
N147 N146 1.365 . S
N147 H167 0.862 . S
C148 C143 1.501 . S
C148 H149 0.961 . S
C148 H150 0.961 . S
C148 H151 0.960 . S
H149 C148 0.961 . S
H150 C148 0.961 . S
H151 C148 0.960 . S
C152 N153 1.342 . S
C152 C156 1.401 . S
C152 C157 1.499 . S
N153 Co136 1.989 . S
N153 C152 1.342 . S
N153 N154 1.388 . S
N154 Co137 1.993 1_554 S
N154 N153 1.388 . S
N154 C155 1.346 1_554 S
C155 N154 1.346 1_556 S
C155 C156 1.396 1_556 S
C155 C165 1.510 . S
C156 C152 1.401 . S
C156 C155 1.396 1_554 S
C157 C152 1.499 . S
C157 H158 0.959 . S
C157 H159 0.960 . S
C157 H160 0.961 . S
H158 C157 0.959 . S
H159 C157 0.960 . S
H160 C157 0.961 . S
O161 Co136 1.967 . S
O161 C169 1.258 . S
O162 Co137 1.941 . S
O162 C169 1.266 1_556 S
H163 C165 0.959 . S
H164 C165 0.961 . S
C165 C155 1.510 . S
C165 H163 0.959 . S
C165 H164 0.961 . S
C165 H166 0.960 . S
H166 C165 0.960 . S
H167 N147 0.862 . S
O168 Co136 1.920 . S
O168 C141 1.289 . S
C169 O161 1.258 . S
C169 O162 1.266 1_554 S
Co170 O173 1.970 . S
Co170 N187 1.989 . S
Co170 O195 1.967 . S
Co170 O202 1.920 . S
Co171 O174 1.966 . S
Co171 N180 2.022 1_554 S
Co171 N188 1.993 . S
Co171 O196 1.941 . S
C172 O173 1.258 . S
C172 O174 1.263 . S
O173 Co170 1.970 . S
O173 C172 1.258 . S
O174 Co171 1.966 . S
O174 C172 1.263 . S
C175 O176 1.235 . S
C175 O202 1.289 . S
O176 C175 1.235 . S
C177 C179 1.400 . S
C177 N180 1.351 . S
C177 C182 1.501 . S
C178 C179 1.387 . S
C178 N181 1.341 . S
C179 C177 1.400 . S
C179 C178 1.387 . S
N180 Co171 2.022 1_556 S
N180 C177 1.351 . S
N180 N181 1.365 . S
N181 C178 1.341 . S
N181 N180 1.365 . S
N181 H201 0.862 . S
C182 C177 1.501 . S
C182 H183 0.961 . S
C182 H184 0.961 . S
C182 H185 0.960 . S
H183 C182 0.961 . S
H184 C182 0.961 . S
H185 C182 0.960 . S
C186 N187 1.342 . S
C186 C190 1.401 . S
C186 C191 1.499 . S
N187 Co170 1.989 . S
N187 C186 1.342 . S
N187 N188 1.388 . S
N188 Co171 1.993 . S
N188 N187 1.388 . S
N188 C189 1.346 . S
C189 N188 1.346 . S
C189 C190 1.396 . S
C189 C199 1.510 1_554 S
C190 C186 1.401 . S
C190 C189 1.396 . S
C191 C186 1.499 . S
C191 H192 0.959 . S
C191 H193 0.960 . S
C191 H194 0.961 . S
H192 C191 0.959 . S
H193 C191 0.960 . S
H194 C191 0.961 . S
O195 Co170 1.967 . S
O195 C203 1.258 . S
O196 Co171 1.941 . S
O196 C203 1.266 . S
H197 C199 0.959 . S
H198 C199 0.961 . S
C199 C189 1.510 1_556 S
C199 H197 0.959 . S
C199 H198 0.961 . S
C199 H200 0.960 . S
H200 C199 0.960 . S
H201 N181 0.862 . S
O202 Co170 1.920 . S
O202 C175 1.289 . S
C203 O195 1.258 . S
C203 O196 1.266 . S
H204 C205 0.951 . S
C205 H204 0.951 . S
C205 C211 1.265 . S
H206 C211 0.950 . S
H207 C215 0.949 . S
H208 C216 0.950 . S
H209 C217 0.951 . S
H210 C218 0.951 . S
C211 C205 1.265 . S
C211 H206 0.950 . S
C211 C212 1.478 . S
C212 C211 1.478 . S
C212 C213 1.397 . S
C212 C229 1.394 . S
C213 C212 1.397 . S
C213 C214 1.438 1_455 S
C213 C218 1.429 1_554 S
C214 C213 1.438 1_655 S
C214 C215 1.428 1_554 S
C214 C227 1.394 . S
C215 H207 0.949 . S
C215 C214 1.428 1_556 S
C215 C216 1.345 . S
C216 H208 0.950 . S
C216 C215 1.345 . S
C216 C217 1.424 1_655 S
C217 H209 0.951 . S
C217 C216 1.424 1_455 S
C217 C218 1.347 . S
C218 H210 0.951 . S
C218 C213 1.429 1_556 S
C218 C217 1.347 . S
H219 C220 0.951 . S
C220 H219 0.951 . S
C220 C226 1.265 . S
H221 C226 0.950 . S
H222 C230 0.949 . S
H223 C231 0.950 . S
H224 C232 0.951 . S
H225 C233 0.951 . S
C226 C220 1.265 . S
C226 H221 0.950 . S
C226 C227 1.478 . S
C227 C214 1.394 . S
C227 C226 1.478 . S
C227 C228 1.397 . S
C228 C227 1.397 . S
C228 C229 1.438 1_655 S
C228 C233 1.429 . S
C229 C212 1.394 . S
C229 C228 1.438 1_455 S
C229 C230 1.428 . S
C230 H222 0.949 . S
C230 C229 1.428 . S
C230 C231 1.345 . S
C231 H223 0.950 . S
C231 C230 1.345 . S
C231 C232 1.424 1_455 S
C232 H224 0.951 . S
C232 C231 1.424 1_655 S
C232 C233 1.347 . S
C233 H225 0.951 . S
C233 C228 1.429 . S
C233 C232 1.347 . S
H234 C235 0.951 . S
C235 H234 0.951 . S
C235 C241 1.265 . S
H236 C241 0.950 . S
H237 C245 0.949 . S
H238 C246 0.950 . S
H239 C247 0.951 . S
H240 C248 0.951 . S
C241 C235 1.265 . S
C241 H236 0.950 . S
C241 C242 1.478 . S
C242 C241 1.478 . S
C242 C243 1.397 1_554 S
C242 C259 1.394 . S
C243 C242 1.397 1_556 S
C243 C244 1.438 1_566 S
C243 C248 1.429 . S
C244 C243 1.438 1_544 S
C244 C245 1.428 1_554 S
C244 C257 1.394 . S
C245 H237 0.949 . S
C245 C244 1.428 1_556 S
C245 C246 1.345 . S
C246 H238 0.950 . S
C246 C245 1.345 . S
C246 C247 1.424 1_545 S
C247 H239 0.951 . S
C247 C246 1.424 1_565 S
C247 C248 1.347 . S
C248 H240 0.951 . S
C248 C243 1.429 . S
C248 C247 1.347 . S
H249 C250 0.951 . S
C250 H249 0.951 . S
C250 C256 1.265 . S
H251 C256 0.950 . S
H252 C260 0.949 . S
H253 C261 0.950 . S
H254 C262 0.951 . S
H255 C263 0.951 . S
C256 C250 1.265 . S
C256 H251 0.950 . S
C256 C257 1.478 . S
C257 C244 1.394 . S
C257 C256 1.478 . S
C257 C258 1.397 1_545 S
C258 C257 1.397 1_565 S
C258 C259 1.438 . S
C258 C263 1.429 1_565 S
C259 C242 1.394 . S
C259 C258 1.438 . S
C259 C260 1.428 . S
C260 H252 0.949 . S
C260 C259 1.428 . S
C260 C261 1.345 . S
C261 H253 0.950 . S
C261 C260 1.345 . S
C261 C262 1.424 . S
C262 H254 0.951 . S
C262 C261 1.424 . S
C262 C263 1.347 1_565 S
C263 H255 0.951 . S
C263 C258 1.429 1_545 S
C263 C262 1.347 1_545 S
H264 C265 0.951 . S
C265 H264 0.951 . S
C265 C271 1.265 . S
H266 C271 0.950 . S
H267 C275 0.949 . S
H268 C276 0.950 . S
H269 C277 0.951 . S
H270 C278 0.951 . S
C271 C265 1.265 . S
C271 H266 0.950 . S
C271 C272 1.478 . S
C272 C271 1.478 . S
C272 C273 1.397 . S
C272 C289 1.394 . S
C273 C272 1.397 . S
C273 C274 1.438 . S
C273 C278 1.429 . S
C274 C273 1.438 . S
C274 C275 1.428 . S
C274 C287 1.394 . S
C275 H267 0.949 . S
C275 C274 1.428 . S
C275 C276 1.345 . S
C276 H268 0.950 . S
C276 C275 1.345 . S
C276 C277 1.424 . S
C277 H269 0.951 . S
C277 C276 1.424 . S
C277 C278 1.347 . S
C278 H270 0.951 . S
C278 C273 1.429 . S
C278 C277 1.347 . S
H279 C280 0.951 . S
C280 H279 0.951 . S
C280 C286 1.265 . S
H281 C286 0.950 . S
H282 C290 0.949 1_556 S
H283 C291 0.950 . S
H284 C292 0.951 . S
H285 C293 0.951 . S
C286 C280 1.265 . S
C286 H281 0.950 . S
C286 C287 1.478 . S
C287 C274 1.394 . S
C287 C286 1.478 . S
C287 C288 1.397 . S
C288 C287 1.397 . S
C288 C289 1.438 . S
C288 C293 1.429 . S
C289 C272 1.394 . S
C289 C288 1.438 . S
C289 C290 1.428 . S
C290 H282 0.949 1_554 S
C290 C289 1.428 . S
C290 C291 1.345 1_554 S
C291 H283 0.950 . S
C291 C290 1.345 1_556 S
C291 C292 1.424 . S
C292 H284 0.951 . S
C292 C291 1.424 . S
C292 C293 1.347 1_556 S
C293 H285 0.951 . S
C293 C288 1.429 . S
C293 C292 1.347 1_554 S
H294 C295 0.951 . S
C295 H294 0.951 . S
C295 C301 1.265 . S
H296 C301 0.950 . S
H297 C305 0.949 . S
H298 C306 0.950 . S
H299 C307 0.951 . S
H300 C308 0.951 . S
C301 C295 1.265 . S
C301 H296 0.950 . S
C301 C302 1.478 . S
C302 C301 1.478 . S
C302 C303 1.397 . S
C302 C319 1.394 . S
C303 C302 1.397 . S
C303 C304 1.438 . S
C303 C308 1.429 . S
C304 C303 1.438 . S
C304 C305 1.428 . S
C304 C317 1.394 . S
C305 H297 0.949 . S
C305 C304 1.428 . S
C305 C306 1.345 . S
C306 H298 0.950 . S
C306 C305 1.345 . S
C306 C307 1.424 . S
C307 H299 0.951 . S
C307 C306 1.424 . S
C307 C308 1.347 . S
C308 H300 0.951 . S
C308 C303 1.429 . S
C308 C307 1.347 . S
H309 C310 0.951 . S
C310 H309 0.951 . S
C310 C316 1.265 . S
H311 C316 0.950 . S
H312 C320 0.949 . S
H313 C321 0.950 . S
H314 C322 0.951 . S
H315 C323 0.951 . S
C316 C310 1.265 . S
C316 H311 0.950 . S
C316 C317 1.478 . S
C317 C304 1.394 . S
C317 C316 1.478 . S
C317 C318 1.397 . S
C318 C317 1.397 . S
C318 C319 1.438 . S
C318 C323 1.429 . S
C319 C302 1.394 . S
C319 C318 1.438 . S
C319 C320 1.428 . S
C320 H312 0.949 . S
C320 C319 1.428 . S
C320 C321 1.345 . S
C321 H313 0.950 . S
C321 C320 1.345 . S
C321 C322 1.424 . S
C322 H314 0.951 . S
C322 C321 1.424 . S
C322 C323 1.347 . S
C323 H315 0.951 . S
C323 C318 1.429 . S
C323 C322 1.347 . S
H324 C325 0.951 . S
C325 H324 0.951 . S
C325 C331 1.265 . S
H326 C331 0.950 . S
H327 C335 0.949 . S
H328 C336 0.950 . S
H329 C337 0.951 . S
H330 C338 0.951 . S
C331 C325 1.265 . S
C331 H326 0.950 . S
C331 C332 1.478 . S
C332 C331 1.478 . S
C332 C333 1.397 . S
C332 C349 1.394 . S
C333 C332 1.397 . S
C333 C334 1.438 . S
C333 C338 1.429 . S
C334 C333 1.438 . S
C334 C335 1.428 . S
C334 C347 1.394 . S
C335 H327 0.949 . S
C335 C334 1.428 . S
C335 C336 1.345 . S
C336 H328 0.950 . S
C336 C335 1.345 . S
C336 C337 1.424 . S
C337 H329 0.951 . S
C337 C336 1.424 . S
C337 C338 1.347 . S
C338 H330 0.951 . S
C338 C333 1.429 . S
C338 C337 1.347 . S
H339 C340 0.951 . S
C340 H339 0.951 . S
C340 C346 1.265 . S
H341 C346 0.950 . S
H342 C350 0.949 . S
H343 C351 0.950 . S
H344 C352 0.951 . S
H345 C353 0.951 . S
C346 C340 1.265 . S
C346 H341 0.950 . S
C346 C347 1.478 . S
C347 C334 1.394 . S
C347 C346 1.478 . S
C347 C348 1.397 . S
C348 C347 1.397 . S
C348 C349 1.438 . S
C348 C353 1.429 . S
C349 C332 1.394 . S
C349 C348 1.438 . S
C349 C350 1.428 . S
C350 H342 0.949 . S
C350 C349 1.428 . S
C350 C351 1.345 . S
C351 H343 0.950 . S
C351 C350 1.345 . S
C351 C352 1.424 . S
C352 H344 0.951 . S
C352 C351 1.424 . S
C352 C353 1.347 . S
C353 H345 0.951 . S
C353 C348 1.429 . S
C353 C352 1.347 . S
H354 C355 0.951 . S
C355 H354 0.951 . S
C355 C361 1.265 . S
H356 C361 0.950 . S
H357 C365 0.949 . S
H358 C366 0.950 . S
H359 C367 0.951 . S
H360 C368 0.951 . S
C361 C355 1.265 . S
C361 H356 0.950 . S
C361 C362 1.478 . S
C362 C361 1.478 . S
C362 C363 1.397 . S
C362 C379 1.394 . S
C363 C362 1.397 . S
C363 C364 1.438 . S
C363 C368 1.429 . S
C364 C363 1.438 . S
C364 C365 1.428 . S
C364 C377 1.394 . S
C365 H357 0.949 . S
C365 C364 1.428 . S
C365 C366 1.345 . S
C366 H358 0.950 . S
C366 C365 1.345 . S
C366 C367 1.424 . S
C367 H359 0.951 . S
C367 C366 1.424 . S
C367 C368 1.347 . S
C368 H360 0.951 . S
C368 C363 1.429 . S
C368 C367 1.347 . S
H369 C370 0.951 . S
C370 H369 0.951 . S
C370 C376 1.265 . S
H371 C376 0.950 . S
H372 C380 0.949 . S
H373 C381 0.950 . S
H374 C382 0.951 . S
H375 C383 0.951 . S
C376 C370 1.265 . S
C376 H371 0.950 . S
C376 C377 1.478 . S
C377 C364 1.394 . S
C377 C376 1.478 . S
C377 C378 1.397 . S
C378 C377 1.397 . S
C378 C379 1.438 . S
C378 C383 1.429 . S
C379 C362 1.394 . S
C379 C378 1.438 . S
C379 C380 1.428 . S
C380 H372 0.949 . S
C380 C379 1.428 . S
C380 C381 1.345 . S
C381 H373 0.950 . S
C381 C380 1.345 . S
C381 C382 1.424 . S
C382 H374 0.951 . S
C382 C381 1.424 . S
C382 C383 1.347 . S
C383 H375 0.951 . S
C383 C378 1.429 . S
C383 C382 1.347 . S
H384 C385 0.951 . S
C385 H384 0.951 . S
C385 C391 1.265 . S
H386 C391 0.950 . S
H387 C395 0.949 . S
H388 C396 0.950 . S
H389 C397 0.951 . S
H390 C398 0.951 . S
C391 C385 1.265 . S
C391 H386 0.950 . S
C391 C392 1.478 . S
C392 C391 1.478 . S
C392 C393 1.397 . S
C392 C409 1.394 . S
C393 C392 1.397 . S
C393 C394 1.438 . S
C393 C398 1.429 . S
C394 C393 1.438 . S
C394 C395 1.428 . S
C394 C407 1.394 . S
C395 H387 0.949 . S
C395 C394 1.428 . S
C395 C396 1.345 . S
C396 H388 0.950 . S
C396 C395 1.345 . S
C396 C397 1.424 . S
C397 H389 0.951 . S
C397 C396 1.424 . S
C397 C398 1.347 . S
C398 H390 0.951 . S
C398 C393 1.429 . S
C398 C397 1.347 . S
H399 C400 0.951 . S
C400 H399 0.951 . S
C400 C406 1.265 . S
H401 C406 0.950 . S
H402 C410 0.949 . S
H403 C411 0.950 . S
H404 C412 0.951 . S
H405 C413 0.951 . S
C406 C400 1.265 . S
C406 H401 0.950 . S
C406 C407 1.478 . S
C407 C394 1.394 . S
C407 C406 1.478 . S
C407 C408 1.397 . S
C408 C407 1.397 . S
C408 C409 1.438 . S
C408 C413 1.429 . S
C409 C392 1.394 . S
C409 C408 1.438 . S
C409 C410 1.428 . S
C410 H402 0.949 . S
C410 C409 1.428 . S
C410 C411 1.345 . S
C411 H403 0.950 . S
C411 C410 1.345 . S
C411 C412 1.424 . S
C412 H404 0.951 . S
C412 C411 1.424 . S
C412 C413 1.347 . S
C413 H405 0.951 . S
C413 C408 1.429 . S
C413 C412 1.347 . S
H414 C415 0.951 . S
C415 H414 0.951 . S
C415 C421 1.265 . S
H416 C421 0.950 . S
H417 C425 0.949 . S
H418 C426 0.950 . S
H419 C427 0.951 . S
H420 C428 0.951 . S
C421 C415 1.265 . S
C421 H416 0.950 . S
C421 C422 1.478 . S
C422 C421 1.478 . S
C422 C423 1.397 . S
C422 C439 1.394 . S
C423 C422 1.397 . S
C423 C424 1.438 . S
C423 C428 1.429 . S
C424 C423 1.438 . S
C424 C425 1.428 . S
C424 C437 1.394 . S
C425 H417 0.949 . S
C425 C424 1.428 . S
C425 C426 1.345 . S
C426 H418 0.950 . S
C426 C425 1.345 . S
C426 C427 1.424 . S
C427 H419 0.951 . S
C427 C426 1.424 . S
C427 C428 1.347 . S
C428 H420 0.951 . S
C428 C423 1.429 . S
C428 C427 1.347 . S
H429 C430 0.951 . S
C430 H429 0.951 . S
C430 C436 1.265 . S
H431 C436 0.950 . S
H432 C440 0.949 . S
H433 C441 0.950 . S
H434 C442 0.951 . S
H435 C443 0.951 . S
C436 C430 1.265 . S
C436 H431 0.950 . S
C436 C437 1.478 . S
C437 C424 1.394 . S
C437 C436 1.478 . S
C437 C438 1.397 . S
C438 C437 1.397 . S
C438 C439 1.438 . S
C438 C443 1.429 . S
C439 C422 1.394 . S
C439 C438 1.438 . S
C439 C440 1.428 . S
C440 H432 0.949 . S
C440 C439 1.428 . S
C440 C441 1.345 . S
C441 H433 0.950 . S
C441 C440 1.345 . S
C441 C442 1.424 . S
C442 H434 0.951 . S
C442 C441 1.424 . S
C442 C443 1.347 . S
C443 H435 0.951 . S
C443 C438 1.429 . S
C443 C442 1.347 . S
H444 C445 0.951 . S
C445 H444 0.951 . S
C445 C451 1.265 . S
H446 C451 0.950 . S
H447 C455 0.949 . S
H448 C456 0.950 . S
H449 C457 0.951 . S
H450 C458 0.951 . S
C451 C445 1.265 . S
C451 H446 0.950 . S
C451 C452 1.478 . S
C452 C451 1.478 . S
C452 C453 1.397 . S
C452 C469 1.394 . S
C453 C452 1.397 . S
C453 C454 1.438 . S
C453 C458 1.429 . S
C454 C453 1.438 . S
C454 C455 1.428 . S
C454 C467 1.394 . S
C455 H447 0.949 . S
C455 C454 1.428 . S
C455 C456 1.345 . S
C456 H448 0.950 . S
C456 C455 1.345 . S
C456 C457 1.424 . S
C457 H449 0.951 . S
C457 C456 1.424 . S
C457 C458 1.347 . S
C458 H450 0.951 . S
C458 C453 1.429 . S
C458 C457 1.347 . S
H459 C460 0.951 . S
C460 H459 0.951 . S
C460 C466 1.265 . S
H461 C466 0.950 . S
H462 C470 0.949 . S
H463 C471 0.950 . S
H464 C472 0.951 . S
H465 C473 0.951 . S
C466 C460 1.265 . S
C466 H461 0.950 . S
C466 C467 1.478 . S
C467 C454 1.394 . S
C467 C466 1.478 . S
C467 C468 1.397 . S
C468 C467 1.397 . S
C468 C469 1.438 . S
C468 C473 1.429 . S
C469 C452 1.394 . S
C469 C468 1.438 . S
C469 C470 1.428 . S
C470 H462 0.949 . S
C470 C469 1.428 . S
C470 C471 1.345 . S
C471 H463 0.950 . S
C471 C470 1.345 . S
C471 C472 1.424 . S
C472 H464 0.951 . S
C472 C471 1.424 . S
C472 C473 1.347 . S
C473 H465 0.951 . S
C473 C468 1.429 . S
C473 C472 1.347 . S
H474 C475 0.951 . S
C475 H474 0.951 . S
C475 C481 1.265 . S
H476 C481 0.950 . S
H477 C485 0.949 . S
H478 C486 0.950 . S
H479 C487 0.951 . S
H480 C488 0.951 . S
C481 C475 1.265 . S
C481 H476 0.950 . S
C481 C482 1.478 . S
C482 C481 1.478 . S
C482 C483 1.397 . S
C482 C499 1.394 . S
C483 C482 1.397 . S
C483 C484 1.438 . S
C483 C488 1.429 . S
C484 C483 1.438 . S
C484 C485 1.428 . S
C484 C497 1.394 . S
C485 H477 0.949 . S
C485 C484 1.428 . S
C485 C486 1.345 . S
C486 H478 0.950 . S
C486 C485 1.345 . S
C486 C487 1.424 . S
C487 H479 0.951 . S
C487 C486 1.424 . S
C487 C488 1.347 . S
C488 H480 0.951 . S
C488 C483 1.429 . S
C488 C487 1.347 . S
H489 C490 0.951 . S
C490 H489 0.951 . S
C490 C496 1.265 . S
H491 C496 0.950 . S
H492 C500 0.949 . S
H493 C501 0.950 1_556 S
H494 C502 0.951 . S
H495 C503 0.951 . S
C496 C490 1.265 . S
C496 H491 0.950 . S
C496 C497 1.478 . S
C497 C484 1.394 . S
C497 C496 1.478 . S
C497 C498 1.397 . S
C498 C497 1.397 . S
C498 C499 1.438 . S
C498 C503 1.429 . S
C499 C482 1.394 . S
C499 C498 1.438 . S
C499 C500 1.428 . S
C500 H492 0.949 . S
C500 C499 1.428 . S
C500 C501 1.345 . S
C501 H493 0.950 1_554 S
C501 C500 1.345 . S
C501 C502 1.424 . S
C502 H494 0.951 . S
C502 C501 1.424 . S
C502 C503 1.347 . S
C503 H495 0.951 . S
C503 C498 1.429 . S
C503 C502 1.347 . S
H504 C505 0.951 . S
C505 H504 0.951 . S
C505 C511 1.265 . S
H506 C511 0.950 . S
H507 C515 0.949 . S
H508 C516 0.950 . S
H509 C517 0.951 . S
H510 C518 0.951 . S
C511 C505 1.265 . S
C511 H506 0.950 . S
C511 C512 1.478 . S
C512 C511 1.478 . S
C512 C513 1.397 . S
C512 C529 1.394 . S
C513 C512 1.397 . S
C513 C514 1.438 . S
C513 C518 1.429 . S
C514 C513 1.438 . S
C514 C515 1.428 . S
C514 C527 1.394 . S
C515 H507 0.949 . S
C515 C514 1.428 . S
C515 C516 1.345 . S
C516 H508 0.950 . S
C516 C515 1.345 . S
C516 C517 1.424 . S
C517 H509 0.951 . S
C517 C516 1.424 . S
C517 C518 1.347 . S
C518 H510 0.951 . S
C518 C513 1.429 . S
C518 C517 1.347 . S
H519 C520 0.951 . S
C520 H519 0.951 . S
C520 C526 1.265 . S
H521 C526 0.950 . S
H522 C530 0.949 . S
H523 C531 0.950 . S
H524 C532 0.951 . S
H525 C533 0.951 . S
C526 C520 1.265 . S
C526 H521 0.950 . S
C526 C527 1.478 . S
C527 C514 1.394 . S
C527 C526 1.478 . S
C527 C528 1.397 . S
C528 C527 1.397 . S
C528 C529 1.438 . S
C528 C533 1.429 1_554 S
C529 C512 1.394 . S
C529 C528 1.438 . S
C529 C530 1.428 1_554 S
C530 H522 0.949 . S
C530 C529 1.428 1_556 S
C530 C531 1.345 . S
C531 H523 0.950 . S
C531 C530 1.345 . S
C531 C532 1.424 . S
C532 H524 0.951 . S
C532 C531 1.424 . S
C532 C533 1.347 . S
C533 H525 0.951 . S
C533 C528 1.429 1_556 S
C533 C532 1.347 . S
H534 C535 0.951 . S
C535 H534 0.951 . S
C535 C541 1.265 . S
H536 C541 0.950 . S
H537 C545 0.949 . S
H538 C546 0.950 . S
H539 C547 0.951 . S
H540 C548 0.951 . S
C541 C535 1.265 . S
C541 H536 0.950 . S
C541 C542 1.478 . S
C542 C541 1.478 . S
C542 C543 1.397 . S
C542 C559 1.394 . S
C543 C542 1.397 . S
C543 C544 1.438 . S
C543 C548 1.429 1_554 S
C544 C543 1.438 . S
C544 C545 1.428 1_554 S
C544 C557 1.394 . S
C545 H537 0.949 . S
C545 C544 1.428 1_556 S
C545 C546 1.345 . S
C546 H538 0.950 . S
C546 C545 1.345 . S
C546 C547 1.424 . S
C547 H539 0.951 . S
C547 C546 1.424 . S
C547 C548 1.347 . S
C548 H540 0.951 . S
C548 C543 1.429 1_556 S
C548 C547 1.347 . S
H549 C550 0.951 . S
C550 H549 0.951 . S
C550 C556 1.265 . S
H551 C556 0.950 . S
H552 C560 0.949 . S
H553 C561 0.950 . S
H554 C562 0.951 . S
H555 C563 0.951 . S
C556 C550 1.265 . S
C556 H551 0.950 . S
C556 C557 1.478 . S
C557 C544 1.394 . S
C557 C556 1.478 . S
C557 C558 1.397 . S
C558 C557 1.397 . S
C558 C559 1.438 . S
C558 C563 1.429 . S
C559 C542 1.394 . S
C559 C558 1.438 . S
C559 C560 1.428 . S
C560 H552 0.949 . S
C560 C559 1.428 . S
C560 C561 1.345 . S
C561 H553 0.950 . S
C561 C560 1.345 . S
C561 C562 1.424 . S
C562 H554 0.951 . S
C562 C561 1.424 . S
C562 C563 1.347 . S
C563 H555 0.951 . S
C563 C558 1.429 . S
C563 C562 1.347 . S
H564 C565 0.951 . S
C565 H564 0.951 . S
C565 C571 1.265 . S
H566 C571 0.950 . S
H567 C575 0.949 . S
H568 C576 0.950 . S
H569 C577 0.951 . S
H570 C578 0.951 . S
C571 C565 1.265 . S
C571 H566 0.950 . S
C571 C572 1.478 . S
C572 C571 1.478 . S
C572 C573 1.397 . S
C572 C589 1.394 . S
C573 C572 1.397 . S
C573 C574 1.438 . S
C573 C578 1.429 . S
C574 C573 1.438 . S
C574 C575 1.428 . S
C574 C587 1.394 . S
C575 H567 0.949 . S
C575 C574 1.428 . S
C575 C576 1.345 . S
C576 H568 0.950 . S
C576 C575 1.345 . S
C576 C577 1.424 . S
C577 H569 0.951 . S
C577 C576 1.424 . S
C577 C578 1.347 . S
C578 H570 0.951 . S
C578 C573 1.429 . S
C578 C577 1.347 . S
H579 C580 0.951 . S
C580 H579 0.951 . S
C580 C586 1.265 . S
H581 C586 0.950 . S
H582 C590 0.949 . S
H583 C591 0.950 . S
H584 C592 0.951 . S
H585 C593 0.951 . S
C586 C580 1.265 . S
C586 H581 0.950 . S
C586 C587 1.478 . S
C587 C574 1.394 . S
C587 C586 1.478 . S
C587 C588 1.397 . S
C588 C587 1.397 . S
C588 C589 1.438 . S
C588 C593 1.429 1_554 S
C589 C572 1.394 . S
C589 C588 1.438 . S
C589 C590 1.428 1_554 S
C590 H582 0.949 . S
C590 C589 1.428 1_556 S
C590 C591 1.345 . S
C591 H583 0.950 . S
C591 C590 1.345 . S
C591 C592 1.424 . S
C592 H584 0.951 . S
C592 C591 1.424 . S
C592 C593 1.347 . S
C593 H585 0.951 . S
C593 C588 1.429 1_556 S
C593 C592 1.347 . S
H594 C595 0.951 . S
C595 H594 0.951 . S
C595 C601 1.265 . S
H596 C601 0.950 . S
H597 C605 0.949 . S
H598 C606 0.950 . S
H599 C607 0.951 . S
H600 C608 0.951 . S
C601 C595 1.265 . S
C601 H596 0.950 . S
C601 C602 1.478 . S
C602 C601 1.478 . S
C602 C603 1.397 . S
C602 C619 1.394 . S
C603 C602 1.397 . S
C603 C604 1.438 . S
C603 C608 1.429 1_554 S
C604 C603 1.438 . S
C604 C605 1.428 1_554 S
C604 C617 1.394 . S
C605 H597 0.949 . S
C605 C604 1.428 1_556 S
C605 C606 1.345 . S
C606 H598 0.950 . S
C606 C605 1.345 . S
C606 C607 1.424 . S
C607 H599 0.951 . S
C607 C606 1.424 . S
C607 C608 1.347 . S
C608 H600 0.951 . S
C608 C603 1.429 1_556 S
C608 C607 1.347 . S
H609 C610 0.951 . S
C610 H609 0.951 . S
C610 C616 1.265 . S
H611 C616 0.950 . S
H612 C620 0.949 . S
H613 C621 0.950 . S
H614 C622 0.951 . S
H615 C623 0.951 . S
C616 C610 1.265 . S
C616 H611 0.950 . S
C616 C617 1.478 . S
C617 C604 1.394 . S
C617 C616 1.478 . S
C617 C618 1.397 . S
C618 C617 1.397 . S
C618 C619 1.438 . S
C618 C623 1.429 . S
C619 C602 1.394 . S
C619 C618 1.438 . S
C619 C620 1.428 . S
C620 H612 0.949 . S
C620 C619 1.428 . S
C620 C621 1.345 . S
C621 H613 0.950 . S
C621 C620 1.345 . S
C621 C622 1.424 . S
C622 H614 0.951 . S
C622 C621 1.424 . S
C622 C623 1.347 . S
C623 H615 0.951 . S
C623 C618 1.429 . S
C623 C622 1.347 . S
H624 C625 0.951 . S
C625 H624 0.951 . S
C625 C631 1.265 . S
H626 C631 0.950 . S
H627 C635 0.949 . S
H628 C636 0.950 . S
H629 C637 0.951 . S
H630 C638 0.951 . S
C631 C625 1.265 . S
C631 H626 0.950 . S
C631 C632 1.478 . S
C632 C631 1.478 . S
C632 C633 1.397 . S
C632 C649 1.394 . S
C633 C632 1.397 . S
C633 C634 1.438 . S
C633 C638 1.429 1_554 S
C634 C633 1.438 . S
C634 C635 1.428 1_554 S
C634 C647 1.394 . S
C635 H627 0.949 . S
C635 C634 1.428 1_556 S
C635 C636 1.345 . S
C636 H628 0.950 . S
C636 C635 1.345 . S
C636 C637 1.424 . S
C637 H629 0.951 . S
C637 C636 1.424 . S
C637 C638 1.347 . S
C638 H630 0.951 . S
C638 C633 1.429 1_556 S
C638 C637 1.347 . S
H639 C640 0.951 . S
C640 H639 0.951 . S
C640 C646 1.265 . S
H641 C646 0.950 . S
H642 C650 0.949 . S
H643 C651 0.950 . S
H644 C652 0.951 . S
H645 C653 0.951 . S
C646 C640 1.265 . S
C646 H641 0.950 . S
C646 C647 1.478 . S
C647 C634 1.394 . S
C647 C646 1.478 . S
C647 C648 1.397 . S
C648 C647 1.397 . S
C648 C649 1.438 . S
C648 C653 1.429 . S
C649 C632 1.394 . S
C649 C648 1.438 . S
C649 C650 1.428 . S
C650 H642 0.949 . S
C650 C649 1.428 . S
C650 C651 1.345 . S
C651 H643 0.950 . S
C651 C650 1.345 . S
C651 C652 1.424 . S
C652 H644 0.951 . S
C652 C651 1.424 . S
C652 C653 1.347 . S
C653 H645 0.951 . S
C653 C648 1.429 . S
C653 C652 1.347 . S
C205 C20 1.291 . S
C220 C122 1.297 . S
C235 C156 1.455 . S
C250 C54 1.410 . S
C265 C190 1.312 . S
C280 C88 1.315 . S
C295 C9 1.422 . S
C310 C5 1.482 . S
C325 C39 1.499 . S
C340 C43 1.418 . S
C355 C73 1.482 . S
C370 C77 1.358 . S
C385 C111 1.376 . S
C400 C107 1.479 . S
C415 C141 1.462 . S
C430 C145 1.337 . S
C445 C175 1.495 . S
C460 C179 1.427 . S
C475 C2 1.061 . S
C490 C101 1.009 . S
C505 C67 1.115 . S
C520 C104 1.031 . S
C535 C70 0.984 . S
C550 C138 1.079 . S
C565 C135 0.929 . S
C580 C172 0.824 . S
C595 C33 0.904 . S
C610 C169 0.798 . S
C625 C36 1.264 . S
C640 C203 1.231 . S
