# Generated by pormake.
# Topology dia, (4)-cn, num edge types: 1
# Building blocks:
#     Node 0, Type 0, BuildingBlock: CEKHIL_clean_sbu_0, # of connection points: 4
#     Node 1, Type 0, BuildingBlock: CEKHIL_clean_sbu_0, # of connection points: 4
#     Node 2, Type 0, BuildingBlock: CEKHIL_clean_sbu_0, # of connection points: 4
#     Node 3, Type 0, BuildingBlock: CEKHIL_clean_sbu_0, # of connection points: 4
#     Node 4, Type 0, BuildingBlock: CEKHIL_clean_sbu_0, # of connection points: 4
#     Node 5, Type 0, BuildingBlock: CEKHIL_clean_sbu_0, # of connection points: 4
#     Node 6, Type 0, BuildingBlock: CEKHIL_clean_sbu_0, # of connection points: 4
#     Node 7, Type 0, BuildingBlock: CEKHIL_clean_sbu_0, # of connection points: 4
#     Edge 8, Type (0, 0), BuildingBlock: FUNLAD_clean_linker_1, # of connection points: 2
#     Edge 9, Type (0, 0), BuildingBlock: FUNLAD_clean_linker_1, # of connection points: 2
#     Edge 10, Type (0, 0), BuildingBlock: FUNLAD_clean_linker_1, # of connection points: 2
#     Edge 11, Type (0, 0), BuildingBlock: FUNLAD_clean_linker_1, # of connection points: 2
#     Edge 12, Type (0, 0), BuildingBlock: FUNLAD_clean_linker_1, # of connection points: 2
#     Edge 13, Type (0, 0), BuildingBlock: FUNLAD_clean_linker_1, # of connection points: 2
#     Edge 14, Type (0, 0), BuildingBlock: FUNLAD_clean_linker_1, # of connection points: 2
#     Edge 15, Type (0, 0), BuildingBlock: FUNLAD_clean_linker_1, # of connection points: 2
#     Edge 16, Type (0, 0), BuildingBlock: FUNLAD_clean_linker_1, # of connection points: 2
#     Edge 17, Type (0, 0), BuildingBlock: FUNLAD_clean_linker_1, # of connection points: 2
#     Edge 18, Type (0, 0), BuildingBlock: FUNLAD_clean_linker_1, # of connection points: 2
#     Edge 19, Type (0, 0), BuildingBlock: FUNLAD_clean_linker_1, # of connection points: 2
#     Edge 20, Type (0, 0), BuildingBlock: FUNLAD_clean_linker_1, # of connection points: 2
#     Edge 21, Type (0, 0), BuildingBlock: FUNLAD_clean_linker_1, # of connection points: 2
#     Edge 22, Type (0, 0), BuildingBlock: FUNLAD_clean_linker_1, # of connection points: 2
#     Edge 23, Type (0, 0), BuildingBlock: FUNLAD_clean_linker_1, # of connection points: 2
# Relax obj value: 0.001
# Max RMSD: 0.019
# Mean RMSD: 0.019
data_MOF--net-dia--node1-CEKHIL_clean_sbu_0--edge1-FUNLAD_clean_linker_1
_symmetry_space_group_name_H-M    P1
_symmetry_Int_Tables_number       1
_symmetry_cell_setting            triclinic
loop_
_symmetry_equiv_pos_as_xyz
'x, y, z'
_cell_length_a     39.994485
_cell_length_b     40.16406
_cell_length_c     26.050543
_cell_angle_alpha  90.06768
_cell_angle_beta   90.183175
_cell_angle_gamma 92.359528
loop_
_atom_site_label
_atom_site_type_symbol
_atom_site_fract_x
_atom_site_fract_y
_atom_site_fract_z
_atom_type_partial_charge
Co0 Co 0.13203 0.14527 0.62775 0.0
O1 O 0.09807 0.17615 0.60913 0.0
O2 O 0.10464 0.15572 0.68698 0.0
C3 C 0.17392 0.17389 0.58638 0.0
O4 O 0.16466 0.11397 0.6633 0.0
Co5 Co 0.17281 0.10642 0.54828 0.0
O6 O 0.20168 0.09491 0.60683 0.0
C7 C 0.10257 0.08473 0.57106 0.0
C8 C 0.08855 0.17523 0.65665 0.0
C9 C 0.19114 0.09794 0.65258 0.0
O10 O 0.10073 0.1064 0.60747 0.0
O11 O 0.12828 0.08195 0.54252 0.0
O12 O 0.16538 0.1825 0.63251 0.0
O13 O 0.15647 0.14953 0.56634 0.0
Co14 Co 0.87711 0.37428 0.86652 0.0
O15 O 0.84529 0.40949 0.86421 0.0
O16 O 0.87408 0.39245 0.79764 0.0
C17 C 0.84416 0.33787 0.91235 0.0
O18 O 0.91097 0.33804 0.85258 0.0
Co19 Co 0.90609 0.34963 0.96973 0.0
O20 O 0.92555 0.31429 0.92717 0.0
C21 C 0.92848 0.41522 0.92881 0.0
C22 C 0.852 0.41223 0.81565 0.0
C23 C 0.92644 0.31587 0.87836 0.0
O24 O 0.9144 0.40803 0.88535 0.0
O25 O 0.92525 0.39663 0.96855 0.0
O26 O 0.84027 0.34031 0.86293 0.0
O27 O 0.86565 0.35884 0.93245 0.0
Co28 Co 0.6318 0.14229 0.13104 0.0
O29 O 0.59704 0.17479 0.12629 0.0
O30 O 0.61144 0.14882 0.19727 0.0
C31 C 0.67083 0.17157 0.08469 0.0
O32 O 0.66674 0.10935 0.15455 0.0
Co33 Co 0.66159 0.10564 0.0388 0.0
O34 O 0.69224 0.08512 0.08841 0.0
C35 C 0.5928 0.08784 0.07207 0.0
C36 C 0.59262 0.17018 0.17527 0.0
C37 C 0.68849 0.0897 0.13636 0.0
O38 O 0.59741 0.10529 0.1133 0.0
O39 O 0.61439 0.08705 0.03598 0.0
O40 O 0.66644 0.17833 0.133 0.0
O41 O 0.65048 0.14914 0.06534 0.0
Co42 Co 0.86563 0.88286 0.37812 0.0
O43 O 0.82805 0.91121 0.38741 0.0
O44 O 0.857 0.90758 0.31561 0.0
C45 C 0.84044 0.8379 0.41629 0.0
O46 O 0.90442 0.85537 0.35178 0.0
Co47 Co 0.90378 0.85042 0.46771 0.0
O48 O 0.92033 0.82041 0.41363 0.0
C49 C 0.91548 0.92238 0.44492 0.0
C50 C 0.83236 0.92042 0.3401 0.0
C51 C 0.92062 0.83006 0.3671 0.0
O52 O 0.89777 0.91954 0.40358 0.0
O53 O 0.91902 0.89842 0.47669 0.0
O54 O 0.83406 0.84447 0.36842 0.0
O55 O 0.86019 0.85905 0.4396 0.0
Co56 Co 0.13144 0.65253 0.1383 0.0
O57 O 0.09675 0.68373 0.12479 0.0
O58 O 0.10362 0.65766 0.19859 0.0
C59 C 0.17415 0.68436 0.10492 0.0
O60 O 0.16427 0.61957 0.16821 0.0
Co61 Co 0.17077 0.62007 0.05144 0.0
O62 O 0.19795 0.60054 0.10686 0.0
C63 C 0.10069 0.59796 0.0694 0.0
C64 C 0.08703 0.67869 0.17169 0.0
C65 C 0.18893 0.60216 0.15363 0.0
O66 O 0.10095 0.61483 0.1115 0.0
O67 O 0.12512 0.59896 0.0377 0.0
O68 O 0.16402 0.68904 0.15156 0.0
O69 O 0.15686 0.6624 0.07854 0.0
Co70 Co 0.36744 0.38154 0.35889 0.0
O71 O 0.33523 0.41627 0.36688 0.0
O72 O 0.3607 0.40413 0.29445 0.0
C73 C 0.33785 0.34167 0.40282 0.0
O74 O 0.40045 0.34762 0.33273 0.0
Co75 Co 0.40365 0.34764 0.44919 0.0
O76 O 0.4228 0.31816 0.39656 0.0
C77 C 0.42041 0.41782 0.42241 0.0
C78 C 0.33948 0.42221 0.31821 0.0
C79 C 0.4192 0.32448 0.34899 0.0
O80 O 0.40523 0.41418 0.37891 0.0
O81 O 0.4195 0.39544 0.45743 0.0
O82 O 0.33063 0.34756 0.35501 0.0
O83 O 0.36085 0.36094 0.42287 0.0
Co84 Co 0.37106 0.8806 0.86147 0.0
O85 O 0.33848 0.91496 0.8698 0.0
O86 O 0.37201 0.91048 0.80318 0.0
C87 C 0.33581 0.8376 0.88493 0.0
O88 O 0.40614 0.84855 0.83534 0.0
Co89 Co 0.39555 0.83537 0.94813 0.0
O90 O 0.41744 0.80955 0.8938 0.0
C91 C 0.42256 0.90496 0.94118 0.0
C92 C 0.34804 0.92598 0.82508 0.0
C93 C 0.42067 0.82185 0.849 0.0
O94 O 0.40645 0.90929 0.89885 0.0
O95 O 0.42041 0.878 0.96724 0.0
O96 O 0.33539 0.84922 0.83844 0.0
O97 O 0.35604 0.85312 0.91645 0.0
Co98 Co 0.63771 0.63893 0.64095 0.0
O99 O 0.60353 0.67194 0.63585 0.0
O100 O 0.61643 0.64514 0.70676 0.0
C101 C 0.67721 0.66844 0.59609 0.0
O102 O 0.67164 0.60475 0.66387 0.0
Co103 Co 0.66842 0.60373 0.54754 0.0
O104 O 0.69949 0.58374 0.5973 0.0
C105 C 0.59873 0.58702 0.57846 0.0
C106 C 0.59826 0.66699 0.68451 0.0
C107 C 0.69436 0.58629 0.64535 0.0
O108 O 0.60352 0.60248 0.62141 0.0
O109 O 0.62041 0.58738 0.54235 0.0
O110 O 0.67276 0.67462 0.64459 0.0
O111 O 0.65688 0.64636 0.57603 0.0
H112 H 0.3318 0.31025 0.47143 0.0
C113 C 0.32074 0.31569 0.43434 0.0
H114 H 0.27829 0.30806 0.38679 0.0
H115 H 0.26427 0.17947 0.5479 0.0
H116 H 0.30883 0.15663 0.49762 0.0
H117 H 0.33667 0.18971 0.42912 0.0
H118 H 0.32041 0.24609 0.41099 0.0
C119 C 0.29089 0.30134 0.42207 0.0
C120 C 0.27226 0.28013 0.46038 0.0
C121 C 0.28134 0.24692 0.46959 0.0
C122 C 0.26433 0.22736 0.50778 0.0
C123 C 0.27522 0.19489 0.51785 0.0
C124 C 0.30101 0.18159 0.48959 0.0
C125 C 0.31677 0.20025 0.45113 0.0
C126 C 0.30723 0.23259 0.44119 0.0
H127 H 0.2016 0.18478 0.51533 0.0
C128 C 0.19912 0.19247 0.55513 0.0
H129 H 0.2138 0.228 0.61115 0.0
H130 H 0.24967 0.34333 0.454 0.0
H131 H 0.20484 0.36622 0.50362 0.0
H132 H 0.17394 0.33189 0.56757 0.0
H133 H 0.18778 0.27462 0.58263 0.0
C134 C 0.21693 0.21941 0.57196 0.0
C135 C 0.23733 0.24063 0.53547 0.0
C136 C 0.22864 0.27409 0.52671 0.0
C137 C 0.24613 0.2938 0.48924 0.0
C138 C 0.23707 0.32718 0.48167 0.0
C139 C 0.21137 0.34065 0.50988 0.0
C140 C 0.194 0.32133 0.54592 0.0
C141 C 0.20231 0.28843 0.55425 0.0
H142 H 0.70944 0.56871 0.72245 0.0
C143 C 0.71419 0.56624 0.6816 0.0
H144 H 0.74218 0.54209 0.62499 0.0
H145 H 0.8599 0.49837 0.76849 0.0
H146 H 0.8875 0.54329 0.72086 0.0
H147 H 0.85535 0.57922 0.66393 0.0
H148 H 0.79526 0.57067 0.65472 0.0
C149 C 0.73663 0.54424 0.66563 0.0
C150 C 0.75567 0.5229 0.70184 0.0
C151 C 0.79096 0.52762 0.70618 0.0
C152 C 0.80967 0.50638 0.73835 0.0
C153 C 0.84459 0.51288 0.74344 0.0
C154 C 0.86076 0.5388 0.71659 0.0
C155 C 0.84265 0.55906 0.68459 0.0
C156 C 0.80817 0.55378 0.67949 0.0
H157 H 0.84071 0.43598 0.74118 0.0
C158 C 0.83495 0.43612 0.78191 0.0
H159 H 0.80588 0.45681 0.84032 0.0
H160 H 0.68884 0.50488 0.69988 0.0
H161 H 0.66123 0.46001 0.74748 0.0
H162 H 0.69341 0.42373 0.80378 0.0
H163 H 0.75349 0.43194 0.8125 0.0
C164 C 0.81239 0.45732 0.79986 0.0
C165 C 0.79324 0.47978 0.76545 0.0
C166 C 0.7579 0.4752 0.76138 0.0
C167 C 0.73919 0.49651 0.72934 0.0
C168 C 0.7042 0.49021 0.7246 0.0
C169 C 0.68801 0.46434 0.75149 0.0
C170 C 0.70613 0.44389 0.78315 0.0
C171 C 0.74064 0.44901 0.78797 0.0
H172 H 0.53924 0.07491 0.08793 0.0
C173 C 0.56057 0.06872 0.06457 0.0
H174 H 0.57864 0.03941 0.00444 0.0
H175 H 0.43364 0.95784 0.05276 0.0
H176 H 0.45067 0.95457 0.14207 0.0
H177 H 0.50289 0.98312 0.17222 0.0
H178 H 0.53765 0.01603 0.11395 0.0
C179 C 0.55714 0.04502 0.02789 0.0
C180 C 0.52451 0.02839 0.01219 0.0
C181 C 0.50558 0.00764 0.04642 0.0
C182 C 0.4768 0.98902 0.02818 0.0
C183 C 0.45682 0.97072 0.06394 0.0
C184 C 0.46613 0.9689 0.11537 0.0
C185 C 0.49544 0.98512 0.1324 0.0
C186 C 0.51507 1.00421 0.0985 0.0
H187 H 0.46697 0.92281 0.98433 0.0
C188 C 0.44643 0.93107 0.96071 0.0
H189 H 0.42259 0.97259 0.93051 0.0
H190 H 0.55141 0.0697 0.93822 0.0
H191 H 0.53474 0.07198 0.84883 0.0
H192 H 0.4881 0.03591 0.81583 0.0
H193 H 0.45754 0.99773 0.87211 0.0
C194 C 0.44316 0.96394 0.95359 0.0
C195 C 0.46863 0.98877 0.97499 0.0
C196 C 0.48644 0.0108 0.94143 0.0
C197 C 0.51402 0.03093 0.96019 0.0
C198 C 0.53091 0.05315 0.92585 0.0
C199 C 0.52149 0.05487 0.87445 0.0
C200 C 0.4952 0.03461 0.8559 0.0
C201 C 0.47783 0.01278 0.88875 0.0
H202 H 0.95839 0.82985 0.30524 0.0
C203 C 0.94379 0.81398 0.33126 0.0
H204 H 0.93318 0.76582 0.35907 0.0
H205 H 0.04138 0.75399 0.15977 0.0
H206 H 1.00352 0.7862 0.10915 0.0
H207 H 0.95124 0.80575 0.14654 0.0
H208 H 0.93747 0.79464 0.23551 0.0
C209 C 0.94864 0.78093 0.33309 0.0
C210 C 0.97694 0.76432 0.30651 0.0
C211 C 0.98282 0.76802 0.25294 0.0
C212 C 0.01118 0.75357 0.22979 0.0
C213 C 0.0188 0.76172 0.17815 0.0
C214 C 0.99747 0.78059 0.14877 0.0
C215 C 0.96817 0.79183 0.16992 0.0
C216 C 0.96079 0.78564 0.22132 0.0
H217 H 0.03437 0.69328 0.17179 0.0
C218 C 0.05789 0.69561 0.19269 0.0
H219 H 0.08453 0.71731 0.25445 0.0
H220 H 0.97524 0.75317 0.4107 0.0
H221 H 0.00931 0.71591 0.45867 0.0
H222 H 0.05273 0.68422 0.41581 0.0
H223 H 0.06287 0.69032 0.32487 0.0
C224 C 0.0605 0.715 0.23484 0.0
C225 C 0.03135 0.73187 0.25855 0.0
C226 C 0.02443 0.72684 0.31151 0.0
C227 C 0.99808 0.74382 0.33574 0.0
C228 C 0.99367 0.7399 0.38947 0.0
C229 C 0.01328 0.7187 0.41778 0.0
C230 C 0.0378 0.70097 0.39371 0.0
C231 C 0.04345 0.7049 0.34134 0.0
H232 H 0.34099 0.96055 0.76048 0.0
C233 C 0.33128 0.95321 0.7979 0.0
H234 H 0.29349 0.96042 0.85284 0.0
H235 H 0.25423 0.1013 0.7631 0.0
H236 H 0.27966 0.11778 0.8443 0.0
H237 H 0.30736 0.07683 0.89865 0.0
H238 H 0.31008 0.01911 0.87192 0.0
C239 C 0.30331 0.96709 0.81523 0.0
C240 C 0.28467 0.99151 0.7835 0.0
C241 C 0.28245 0.02505 0.80005 0.0
C242 C 0.26592 0.04867 0.76894 0.0
C243 C 0.26562 0.0822 0.7856 0.0
C244 C 0.2803 0.09205 0.83206 0.0
C245 C 0.29594 0.06899 0.86265 0.0
C246 C 0.29724 0.03592 0.84691 0.0
H247 H 0.1962 0.07728 0.73134 0.0
C248 C 0.20822 0.07949 0.6941 0.0
H249 H 0.24818 0.06507 0.64756 0.0
H250 H 0.2791 0.92824 0.74392 0.0
H251 H 0.25256 0.91142 0.66389 0.0
H252 H 0.22482 0.95228 0.60948 0.0
H253 H 0.22321 0.01015 0.63503 0.0
C254 C 0.2367 0.06338 0.68528 0.0
C255 C 0.25097 0.03862 0.72157 0.0
C256 C 0.25207 1.00474 0.70606 0.0
C257 C 0.26858 0.9812 0.73711 0.0
C258 C 0.26804 0.94743 0.72118 0.0
C259 C 0.25258 0.93732 0.67546 0.0
C260 C 0.23694 0.96031 0.64486 0.0
C261 C 0.23642 0.99356 0.65989 0.0
H262 H 0.96247 0.45532 0.89775 0.0
C263 C 0.95131 0.44517 0.93265 0.0
H264 H 0.9482 0.44834 0.01315 0.0
H265 H 0.08875 0.51 0.06815 0.0
H266 H 0.09015 0.45513 0.10628 0.0
H267 H 0.04509 0.41277 0.08924 0.0
H268 H 0.99843 0.42499 0.03408 0.0
C269 C 0.95964 0.45873 0.9786 0.0
C270 C 0.98745 0.48438 0.98594 0.0
C271 C 0.0148 0.47678 0.0183 0.0
C272 C 0.04091 0.50117 0.02806 0.0
C273 C 0.06803 0.49264 0.05994 0.0
C274 C 0.06925 0.46114 0.08194 0.0
C275 C 0.04389 0.43731 0.07237 0.0
C276 C 0.01707 0.4448 0.04079 0.0
H277 H 0.05262 0.57151 0.08833 0.0
C278 C 0.07137 0.57523 0.05853 0.0
H279 H 0.08581 0.56228 0.98322 0.0
H280 H 0.93724 0.509 0.92672 0.0
H281 H 0.93684 0.56349 0.88708 0.0
H282 H 0.98366 0.60454 0.90038 0.0
H283 H 0.031 0.59144 0.95421 0.0
C284 C 0.06786 0.55827 0.01404 0.0
C285 C 0.03986 0.53316 0.00531 0.0
C286 C 0.01286 0.54068 0.97248 0.0
C287 C 0.9863 0.51655 0.96352 0.0
C288 C 0.95874 0.52568 0.93312 0.0
C289 C 0.95803 0.55706 0.91048 0.0
C290 C 0.98436 0.5802 0.91806 0.0
C291 C 0.01142 0.57232 0.94891 0.0
H292 H 0.43475 0.31129 0.27013 0.0
C293 C 0.43834 0.30563 0.31052 0.0
H294 H 0.46426 0.27666 0.364 0.0
H295 H 0.50423 0.16322 0.21119 0.0
H296 H 0.4592 0.13477 0.2578 0.0
H297 H 0.4239 0.16548 0.31746 0.0
H298 H 0.43322 0.22495 0.3305 0.0
C299 C 0.46093 0.28311 0.32387 0.0
C300 C 0.48132 0.26516 0.28525 0.0
C301 C 0.47605 0.23027 0.27853 0.0
C302 C 0.4969 0.21239 0.2448 0.0
C303 C 0.49 0.17783 0.23754 0.0
C304 C 0.46401 0.16122 0.26376 0.0
C305 C 0.44411 0.17852 0.2973 0.0
C306 C 0.44983 0.21264 0.30458 0.0
H307 H 0.56663 0.1831 0.24667 0.0
C308 C 0.56781 0.18819 0.20573 0.0
H309 H 0.54876 0.21654 0.14495 0.0
H310 H 0.49954 0.33163 0.29017 0.0
H311 H 0.54416 0.36011 0.24292 0.0
H312 H 0.57979 0.32931 0.18389 0.0
H313 H 0.57114 0.26974 0.17201 0.0
C314 C 0.54716 0.21041 0.1855 0.0
C315 C 0.52368 0.22924 0.21853 0.0
C316 C 0.52839 0.26429 0.22418 0.0
C317 C 0.50746 0.2822 0.25781 0.0
C318 C 0.51396 0.31689 0.26428 0.0
C319 C 0.53968 0.33357 0.23759 0.0
C320 C 0.55976 0.31622 0.2044 0.0
C321 C 0.55443 0.282 0.19783 0.0
H322 H 0.83549 0.804 0.48215 0.0
C323 C 0.82467 0.80984 0.44505 0.0
H324 H 0.78278 0.8022 0.39637 0.0
H325 H 0.76614 0.67048 0.54989 0.0
H326 H 0.80897 0.64746 0.49623 0.0
H327 H 0.8371 0.68157 0.42916 0.0
H328 H 0.82277 0.73911 0.41567 0.0
C329 C 0.79533 0.79496 0.43144 0.0
C330 C 0.77657 0.77331 0.46897 0.0
C331 C 0.78465 0.73958 0.47571 0.0
C332 C 0.76766 0.7196 0.51343 0.0
C333 C 0.7773 0.6864 0.52062 0.0
C334 C 0.80206 0.67296 0.49035 0.0
C335 C 0.81796 0.69219 0.45267 0.0
C336 C 0.80954 0.72517 0.44537 0.0
H337 H 0.70178 0.68057 0.5228 0.0
C338 C 0.70175 0.68681 0.56343 0.0
H339 H 0.72129 0.71935 0.62055 0.0
H340 H 0.75557 0.83725 0.46669 0.0
H341 H 0.71256 0.86037 0.5198 0.0
H342 H 0.68219 0.8256 0.58379 0.0
H343 H 0.69473 0.76761 0.59531 0.0
C344 C 0.72201 0.71195 0.58045 0.0
C345 C 0.74194 0.7332 0.54353 0.0
C346 C 0.73417 0.76711 0.53707 0.0
C347 C 0.75144 0.78711 0.49976 0.0
C348 C 0.74317 0.82089 0.49429 0.0
C349 C 0.71851 0.8345 0.5245 0.0
C350 C 0.70143 0.81493 0.56054 0.0
C351 C 0.70896 0.78162 0.56682 0.0
H352 H 0.19918 0.58427 0.23261 0.0
C353 C 0.2065 0.58214 0.19264 0.0
H354 H 0.23633 0.55699 0.13957 0.0
H355 H 0.32661 0.52259 0.34239 0.0
H356 H 0.34096 0.58187 0.34569 0.0
H357 H 0.312 0.62131 0.29022 0.0
H358 H 0.26837 0.60182 0.23124 0.0
C359 C 0.22991 0.56037 0.17968 0.0
C360 C 0.24524 0.53739 0.21751 0.0
C361 C 0.27055 0.54918 0.2521 0.0
C362 C 0.28753 0.52631 0.28389 0.0
C363 C 0.31294 0.53881 0.31752 0.0
C364 C 0.32145 0.57277 0.31974 0.0
C365 C 0.30513 0.59498 0.28851 0.0
C366 C 0.28005 0.58346 0.25491 0.0
H367 H 0.32444 0.44895 0.24849 0.0
C368 C 0.32062 0.44735 0.28973 0.0
H369 H 0.29526 0.46707 0.35325 0.0
H370 H 0.19673 0.50656 0.15813 0.0
H371 H 0.18156 0.44746 0.15624 0.0
H372 H 0.21044 0.40808 0.2119 0.0
H373 H 0.25479 0.42747 0.26961 0.0
C374 C 0.29875 0.4675 0.31191 0.0
C375 C 0.27953 0.49162 0.28071 0.0
C376 C 0.25336 0.47999 0.2475 0.0
C377 C 0.23642 0.50281 0.21573 0.0
C378 C 0.21054 0.49035 0.18283 0.0
C379 C 0.20149 0.4565 0.1815 0.0
C380 C 0.21776 0.43432 0.21282 0.0
C381 C 0.24333 0.44578 0.24558 0.0
H382 H 0.82974 0.3146 0.98596 0.0
C383 C 0.82472 0.314 0.94492 0.0
H384 H 0.79421 0.29319 0.88602 0.0
H385 H 0.77105 0.18816 0.08432 0.0
H386 H 0.82962 0.17584 0.07429 0.0
H387 H 0.86518 0.20676 0.01183 0.0
H388 H 0.84259 0.25035 0.95935 0.0
C389 C 0.80041 0.29306 0.92666 0.0
C390 C 0.77868 0.27238 0.9621 0.0
C391 C 0.79215 0.24648 0.99187 0.0
C392 C 0.77143 0.22805 0.02714 0.0
C393 C 0.78564 0.2027 0.05679 0.0
C394 C 0.81918 0.19536 0.05137 0.0
C395 C 0.83922 0.21282 0.01626 0.0
C396 C 0.82599 0.23799 0.98663 0.0
H397 H 0.69666 0.18233 0.01163 0.0
C398 C 0.69565 0.18956 0.05181 0.0
H399 H 0.71466 0.22324 0.10821 0.0
H400 H 0.74442 0.31973 0.91055 0.0
H401 H 0.68564 0.3309 0.91934 0.0
H402 H 0.64978 0.29855 0.9797 0.0
H403 H 0.67252 0.2548 0.03173 0.0
C404 C 0.71525 0.21539 0.06833 0.0
C405 C 0.73709 0.23491 0.03179 0.0
C406 C 0.72348 0.26037 0.00144 0.0
C407 C 0.74421 0.27902 0.96654 0.0
C408 C 0.72987 0.30456 0.93731 0.0
C409 C 0.69614 0.31131 0.94206 0.0
C410 C 0.67595 0.2931 0.97604 0.0
C411 C 0.68932 0.26798 0.00558 0.0
H412 H 0.78194 0.93729 0.32216 0.0
C413 C 0.80838 0.94215 0.31454 0.0
H414 H 0.84479 0.97221 0.27727 0.0
H415 H 0.76584 0.03226 0.0952 0.0
H416 H 0.81285 0.00763 0.05385 0.0
H417 H 0.8508 0.97246 0.10251 0.0
H418 H 0.84248 0.96242 0.19299 0.0
C419 C 0.81816 0.96751 0.28349 0.0
C420 C 0.79388 0.9881 0.25409 0.0
C421 C 0.79812 0.9925 0.20031 0.0
C422 C 0.77514 0.01143 0.17155 0.0
C423 C 0.78148 0.01701 0.11864 0.0
C424 C 0.80858 1.00318 0.09433 0.0
C425 C 0.83 0.98349 0.12176 0.0
C426 C 0.82496 0.9781 0.17399 0.0
H427 H 0.71833 0.08542 0.20768 0.0
C428 C 0.71069 0.07251 0.17263 0.0
H429 H 0.71293 0.02916 0.12798 0.0
H430 H 0.78295 0.99411 0.35766 0.0
H431 H 0.73315 0.01414 0.39814 0.0
H432 H 0.68722 0.03569 0.34602 0.0
H433 H 0.69168 0.03902 0.25355 0.0
C434 C 0.7213 0.04163 0.16307 0.0
C435 C 0.74651 0.02434 0.19556 0.0
C436 C 0.74186 0.01931 0.24916 0.0
C437 C 0.76665 1.00325 0.27879 0.0
C438 C 0.76355 1.00307 0.33292 0.0
C439 C 0.73528 0.01494 0.35673 0.0
C440 C 0.70955 0.02732 0.32744 0.0
C441 C 0.71265 0.0295 0.2743 0.0
H442 H 0.92815 0.97599 0.43159 0.0
C443 C 0.93291 0.95486 0.4562 0.0
H444 H 0.9591 0.93755 0.52068 0.0
H445 H 0.053 0.07235 0.46344 0.0
H446 H 0.05889 0.04949 0.37779 0.0
H447 H 0.02731 0.99809 0.35198 0.0
H448 H 0.98895 0.97003 0.41067 0.0
C449 C 0.95495 0.95844 0.4953 0.0
C450 C 0.9732 0.99053 0.50838 0.0
C451 C 0.99686 0.00552 0.47404 0.0
C452 C 0.01696 0.03373 0.49012 0.0
C453 C 0.03862 0.04974 0.45408 0.0
C454 C 0.04202 0.03706 0.40469 0.0
C455 C 0.02411 0.00823 0.39009 0.0
C456 C 1.00186 0.99249 0.4242 0.0
H457 H 0.08054 0.03709 0.54405 0.0
C458 C 0.07436 0.06101 0.56035 0.0
H459 H 0.03518 0.09302 0.57712 0.0
H460 H 0.92711 0.97123 0.581 0.0
H461 H 0.92196 0.99419 0.66671 0.0
H462 H 0.95969 0.0405 0.69625 0.0
H463 H 1.0026 0.06439 0.64007 0.0
C464 C 0.04209 0.06902 0.56206 0.0
C465 C 0.01555 0.04514 0.54169 0.0
C466 C 0.9906 0.03155 0.57487 0.0
C467 C 0.96925 1.00441 0.55808 0.0
C468 C 0.94443 0.9914 0.59207 0.0
C469 C 0.94111 1.00443 0.6413 0.0
C470 C 0.96233 0.03054 0.65791 0.0
C471 C 0.98688 0.04399 0.6253 0.0
H472 H 0.9603 0.27397 0.87636 0.0
C473 C 0.94762 0.29154 0.85208 0.0
H474 H 0.9418 0.30868 0.77617 0.0
H475 H 0.08241 0.25741 0.70404 0.0
H476 H 0.0907 0.31721 0.69661 0.0
H477 H 0.04757 0.35487 0.72619 0.0
H478 H 0.99593 0.33293 0.76374 0.0
C479 C 0.95312 0.2906 0.80111 0.0
C480 C 0.97765 0.26727 0.77852 0.0
C481 C 1.00744 0.28033 0.75522 0.0
C482 C 0.03217 0.25848 0.73722 0.0
C483 C 0.06231 0.27257 0.71673 0.0
C484 C 0.06756 0.30695 0.71262 0.0
C485 C 0.04329 0.32816 0.72934 0.0
C486 C 0.01368 0.31518 0.75071 0.0
H487 H 0.0489 0.21129 0.64584 0.0
C488 C 0.06148 0.19664 0.67453 0.0
H489 H 0.06503 0.18513 0.75331 0.0
H490 H 0.92167 0.23339 0.81415 0.0
H491 H 0.91302 0.17348 0.82074 0.0
H492 H 0.95617 0.13577 0.79125 0.0
H493 H 0.00817 0.15775 0.75461 0.0
C494 C 0.05316 0.20009 0.72428 0.0
C495 C 0.02685 0.22336 0.74134 0.0
C496 C 0.99673 0.2103 0.76359 0.0
C497 C 0.97202 0.23215 0.78158 0.0
C498 C 0.94173 0.21811 0.80159 0.0
C499 C 0.9363 0.18372 0.80517 0.0
C500 C 0.96058 0.16248 0.78849 0.0
C501 C 0.99039 0.17545 0.7677 0.0
H502 H 0.56987 0.67883 0.75437 0.0
C503 C 0.57297 0.68507 0.71403 0.0
H504 H 0.55775 0.71603 0.6536 0.0
H505 H 0.43096 0.72332 0.81932 0.0
H506 H 0.42016 0.66492 0.79927 0.0
H507 H 0.4586 0.63467 0.74393 0.0
H508 H 0.5082 0.66255 0.70857 0.0
C509 C 0.5541 0.70872 0.69339 0.0
C510 C 0.5296 0.72731 0.72492 0.0
C511 C 0.50036 0.71082 0.74486 0.0
C512 C 0.47789 0.72846 0.77633 0.0
C513 C 0.44901 0.71118 0.79563 0.0
C514 C 0.44239 0.67767 0.78421 0.0
C515 C 0.46405 0.66063 0.75309 0.0
C516 C 0.49261 0.67691 0.73334 0.0
H517 H 0.44367 0.81495 0.77239 0.0
C518 C 0.44268 0.80544 0.81142 0.0
H519 H 0.46058 0.76991 0.86325 0.0
H520 H 0.58186 0.76712 0.69049 0.0
H521 H 0.59257 0.82561 0.70997 0.0
H522 H 0.55463 0.85576 0.76625 0.0
H523 H 0.50561 0.8278 0.80295 0.0
C524 C 0.46199 0.77995 0.82456 0.0
C525 C 0.48424 0.76278 0.78747 0.0
C526 C 0.51312 0.77947 0.76657 0.0
C527 C 0.53549 0.76184 0.73482 0.0
C528 C 0.56407 0.7792 0.71471 0.0
C529 C 0.57059 0.81278 0.72571 0.0
C530 C 0.5492 0.82976 0.75734 0.0
C531 C 0.52093 0.81341 0.77788 0.0
H532 H 0.21567 0.72218 0.10844 0.0
C533 C 0.20163 0.70546 0.0827 0.0
H534 H 0.19425 0.68996 0.0059 0.0
H535 H 0.26899 0.84169 0.98713 0.0
H536 H 0.21947 0.86177 0.02846 0.0
H537 H 0.175 0.82246 0.05933 0.0
H538 H 0.18 0.76295 0.04983 0.0
C539 C 0.20788 0.70678 0.03195 0.0
C540 C 0.23345 0.73096 0.00975 0.0
C541 C 0.2296 0.76589 0.01415 0.0
C542 C 0.25477 0.78866 0.99482 0.0
C543 C 0.25062 0.82331 1.00085 0.0
C544 C 0.22225 0.8352 0.02435 0.0
C545 C 0.19726 0.81307 0.04183 0.0
C546 C 0.20065 0.77886 0.03662 0.0
H547 H 0.29623 0.79813 0.873 0.0
C548 C 0.31267 0.80998 0.90152 0.0
H549 H 0.32522 0.81362 0.98016 0.0
H550 H 0.24789 0.66598 0.99184 0.0
H551 H 0.29625 0.6462 0.94685 0.0
H552 H 0.33915 0.68576 0.91193 0.0
H553 H 0.33398 0.74542 0.92175 0.0
C554 C 0.3099 0.80087 0.9511 0.0
C555 C 0.28311 0.77668 0.9692 0.0
C556 C 0.28632 0.7419 0.96288 0.0
C557 C 0.2615 0.71904 0.98313 0.0
C558 C 0.26576 0.68444 0.97693 0.0
C559 C 0.29346 0.67274 0.9513 0.0
C560 C 0.31762 0.69502 0.93163 0.0
C561 C 0.3143 0.7292 0.93741 0.0
H562 H 0.45236 0.46173 0.39944 0.0
C563 C 0.44171 0.44819 0.43199 0.0
H564 H 0.43853 0.4441 0.51246 0.0
H565 H 0.58072 0.50143 0.57103 0.0
H566 H 0.58283 0.44395 0.59802 0.0
H567 H 0.53693 0.40337 0.57672 0.0
H568 H 0.48875 0.42003 0.5283 0.0
C569 C 0.44962 0.45776 0.48031 0.0
C570 C 0.47702 0.48286 0.49252 0.0
C571 C 0.50507 0.47269 0.52131 0.0
C572 C 0.53159 0.49606 0.53362 0.0
C573 C 0.55962 0.48495 0.56122 0.0
C574 C 0.56126 0.45192 0.57681 0.0
C575 C 0.53542 0.42909 0.56484 0.0
C576 C 0.50774 0.43912 0.5372 0.0
H577 H 0.55114 0.56184 0.60364 0.0
C578 C 0.56739 0.56668 0.5709 0.0
H579 H 0.57484 0.55867 0.4915 0.0
H580 H 0.42505 0.51189 0.44312 0.0
H581 H 0.42323 0.56948 0.41585 0.0
H582 H 0.47032 0.60938 0.43418 0.0
H583 H 0.51938 0.59197 0.48058 0.0
C584 C 0.55942 0.55309 0.52491 0.0
C585 C 0.53009 0.5296 0.51716 0.0
C586 C 0.50192 0.53989 0.48905 0.0
C587 C 0.47511 0.51665 0.47736 0.0
C588 C 0.44664 0.52811 0.45139 0.0
C589 C 0.44515 0.56121 0.43588 0.0
C590 C 0.47164 0.58369 0.44626 0.0
C591 C 0.49969 0.57334 0.47273 0.0
loop_
_geom_bond_atom_site_label_1
_geom_bond_atom_site_label_2
_geom_bond_distance
_geom_bond_site_symmetry_2
_ccdc_geom_bond_type
Co0 O1 2.216 . S
Co0 O2 2.091 . S
Co0 O4 2.004 . S
Co0 O10 2.021 . S
Co0 O12 2.137 . S
Co0 O13 2.244 . S
O1 Co0 2.216 . S
O1 C8 1.247 . S
O2 Co0 2.091 . S
O2 C8 1.261 . S
C3 O12 1.247 . S
C3 O13 1.272 . S
O4 Co0 2.004 . S
O4 C9 1.259 . S
Co5 O6 2.061 . S
Co5 O11 2.052 . S
Co5 O13 2.135 . S
O6 Co5 2.061 . S
O6 C9 1.235 . S
C7 O10 1.238 . S
C7 O11 1.241 . S
C8 O1 1.247 . S
C8 O2 1.261 . S
C9 O4 1.259 . S
C9 O6 1.235 . S
O10 Co0 2.021 . S
O10 C7 1.238 . S
O11 Co5 2.052 . S
O11 C7 1.241 . S
O12 Co0 2.137 . S
O12 C3 1.247 . S
O13 Co0 2.244 . S
O13 C3 1.272 . S
O13 Co5 2.135 . S
Co14 O15 2.216 . S
Co14 O16 2.091 . S
Co14 O18 2.004 . S
Co14 O24 2.021 . S
Co14 O26 2.137 . S
Co14 O27 2.244 . S
O15 Co14 2.216 . S
O15 C22 1.247 . S
O16 Co14 2.091 . S
O16 C22 1.261 . S
C17 O26 1.247 . S
C17 O27 1.272 . S
O18 Co14 2.004 . S
O18 C23 1.259 . S
Co19 O20 2.061 . S
Co19 O25 2.052 . S
Co19 O27 2.135 . S
O20 Co19 2.061 . S
O20 C23 1.235 . S
C21 O24 1.238 . S
C21 O25 1.241 . S
C22 O15 1.247 . S
C22 O16 1.261 . S
C23 O18 1.259 . S
C23 O20 1.235 . S
O24 Co14 2.021 . S
O24 C21 1.238 . S
O25 Co19 2.052 . S
O25 C21 1.241 . S
O26 Co14 2.137 . S
O26 C17 1.247 . S
O27 Co14 2.244 . S
O27 C17 1.272 . S
O27 Co19 2.135 . S
Co28 O29 2.216 . S
Co28 O30 2.091 . S
Co28 O32 2.004 . S
Co28 O38 2.021 . S
Co28 O40 2.137 . S
Co28 O41 2.244 . S
O29 Co28 2.216 . S
O29 C36 1.247 . S
O30 Co28 2.091 . S
O30 C36 1.261 . S
C31 O40 1.247 . S
C31 O41 1.272 . S
O32 Co28 2.004 . S
O32 C37 1.259 . S
Co33 O34 2.061 . S
Co33 O39 2.052 . S
Co33 O41 2.135 . S
O34 Co33 2.061 . S
O34 C37 1.235 . S
C35 O38 1.238 . S
C35 O39 1.241 . S
C36 O29 1.247 . S
C36 O30 1.261 . S
C37 O32 1.259 . S
C37 O34 1.235 . S
O38 Co28 2.021 . S
O38 C35 1.238 . S
O39 Co33 2.052 . S
O39 C35 1.241 . S
O40 Co28 2.137 . S
O40 C31 1.247 . S
O41 Co28 2.244 . S
O41 C31 1.272 . S
O41 Co33 2.135 . S
Co42 O43 2.216 . S
Co42 O44 2.091 . S
Co42 O46 2.004 . S
Co42 O52 2.021 . S
Co42 O54 2.137 . S
Co42 O55 2.244 . S
O43 Co42 2.216 . S
O43 C50 1.247 . S
O44 Co42 2.091 . S
O44 C50 1.261 . S
C45 O54 1.247 . S
C45 O55 1.272 . S
O46 Co42 2.004 . S
O46 C51 1.259 . S
Co47 O48 2.061 . S
Co47 O53 2.052 . S
Co47 O55 2.135 . S
O48 Co47 2.061 . S
O48 C51 1.235 . S
C49 O52 1.238 . S
C49 O53 1.241 . S
C50 O43 1.247 . S
C50 O44 1.261 . S
C51 O46 1.259 . S
C51 O48 1.235 . S
O52 Co42 2.021 . S
O52 C49 1.238 . S
O53 Co47 2.052 . S
O53 C49 1.241 . S
O54 Co42 2.137 . S
O54 C45 1.247 . S
O55 Co42 2.244 . S
O55 C45 1.272 . S
O55 Co47 2.135 . S
Co56 O57 2.216 . S
Co56 O58 2.091 . S
Co56 O60 2.004 . S
Co56 O66 2.021 . S
Co56 O68 2.137 . S
Co56 O69 2.244 . S
O57 Co56 2.216 . S
O57 C64 1.247 . S
O58 Co56 2.091 . S
O58 C64 1.261 . S
C59 O68 1.247 . S
C59 O69 1.272 . S
O60 Co56 2.004 . S
O60 C65 1.259 . S
Co61 O62 2.061 . S
Co61 O67 2.052 . S
Co61 O69 2.135 . S
O62 Co61 2.061 . S
O62 C65 1.235 . S
C63 O66 1.238 . S
C63 O67 1.241 . S
C64 O57 1.247 . S
C64 O58 1.261 . S
C65 O60 1.259 . S
C65 O62 1.235 . S
O66 Co56 2.021 . S
O66 C63 1.238 . S
O67 Co61 2.052 . S
O67 C63 1.241 . S
O68 Co56 2.137 . S
O68 C59 1.247 . S
O69 Co56 2.244 . S
O69 C59 1.272 . S
O69 Co61 2.135 . S
Co70 O71 2.216 . S
Co70 O72 2.091 . S
Co70 O74 2.004 . S
Co70 O80 2.021 . S
Co70 O82 2.137 . S
Co70 O83 2.244 . S
O71 Co70 2.216 . S
O71 C78 1.247 . S
O72 Co70 2.091 . S
O72 C78 1.261 . S
C73 O82 1.247 . S
C73 O83 1.272 . S
O74 Co70 2.004 . S
O74 C79 1.259 . S
Co75 O76 2.061 . S
Co75 O81 2.052 . S
Co75 O83 2.135 . S
O76 Co75 2.061 . S
O76 C79 1.235 . S
C77 O80 1.238 . S
C77 O81 1.241 . S
C78 O71 1.247 . S
C78 O72 1.261 . S
C79 O74 1.259 . S
C79 O76 1.235 . S
O80 Co70 2.021 . S
O80 C77 1.238 . S
O81 Co75 2.052 . S
O81 C77 1.241 . S
O82 Co70 2.137 . S
O82 C73 1.247 . S
O83 Co70 2.244 . S
O83 C73 1.272 . S
O83 Co75 2.135 . S
Co84 O85 2.216 . S
Co84 O86 2.091 . S
Co84 O88 2.004 . S
Co84 O94 2.021 . S
Co84 O96 2.137 . S
Co84 O97 2.244 . S
O85 Co84 2.216 . S
O85 C92 1.247 . S
O86 Co84 2.091 . S
O86 C92 1.261 . S
C87 O96 1.247 . S
C87 O97 1.272 . S
O88 Co84 2.004 . S
O88 C93 1.259 . S
Co89 O90 2.061 . S
Co89 O95 2.052 . S
Co89 O97 2.135 . S
O90 Co89 2.061 . S
O90 C93 1.235 . S
C91 O94 1.238 . S
C91 O95 1.241 . S
C92 O85 1.247 . S
C92 O86 1.261 . S
C93 O88 1.259 . S
C93 O90 1.235 . S
O94 Co84 2.021 . S
O94 C91 1.238 . S
O95 Co89 2.052 . S
O95 C91 1.241 . S
O96 Co84 2.137 . S
O96 C87 1.247 . S
O97 Co84 2.244 . S
O97 C87 1.272 . S
O97 Co89 2.135 . S
Co98 O99 2.216 . S
Co98 O100 2.091 . S
Co98 O102 2.004 . S
Co98 O108 2.021 . S
Co98 O110 2.137 . S
Co98 O111 2.244 . S
O99 Co98 2.216 . S
O99 C106 1.247 . S
O100 Co98 2.091 . S
O100 C106 1.261 . S
C101 O110 1.247 . S
C101 O111 1.272 . S
O102 Co98 2.004 . S
O102 C107 1.259 . S
Co103 O104 2.061 . S
Co103 O109 2.052 . S
Co103 O111 2.135 . S
O104 Co103 2.061 . S
O104 C107 1.235 . S
C105 O108 1.238 . S
C105 O109 1.241 . S
C106 O99 1.247 . S
C106 O100 1.261 . S
C107 O102 1.259 . S
C107 O104 1.235 . S
O108 Co98 2.021 . S
O108 C105 1.238 . S
O109 Co103 2.052 . S
O109 C105 1.241 . S
O110 Co98 2.137 . S
O110 C101 1.247 . S
O111 Co98 2.244 . S
O111 C101 1.272 . S
O111 Co103 2.135 . S
H112 C113 0.951 . S
C113 H112 0.951 . S
C113 C119 1.265 . S
H114 C119 0.950 . S
H115 C123 0.949 . S
H116 C124 0.950 . S
H117 C125 0.951 . S
H118 C126 0.951 . S
C119 C113 1.265 . S
C119 H114 0.950 . S
C119 C120 1.478 . S
C120 C119 1.478 . S
C120 C121 1.397 . S
C120 C137 1.394 . S
C121 C120 1.397 . S
C121 C122 1.438 . S
C121 C126 1.429 . S
C122 C121 1.438 . S
C122 C123 1.428 . S
C122 C135 1.394 . S
C123 H115 0.949 . S
C123 C122 1.428 . S
C123 C124 1.345 . S
C124 H116 0.950 . S
C124 C123 1.345 . S
C124 C125 1.424 . S
C125 H117 0.951 . S
C125 C124 1.424 . S
C125 C126 1.347 . S
C126 H118 0.951 . S
C126 C121 1.429 . S
C126 C125 1.347 . S
H127 C128 0.951 . S
C128 H127 0.951 . S
C128 C134 1.265 . S
H129 C134 0.950 . S
H130 C138 0.949 . S
H131 C139 0.950 . S
H132 C140 0.951 . S
H133 C141 0.951 . S
C134 C128 1.265 . S
C134 H129 0.950 . S
C134 C135 1.478 . S
C135 C122 1.394 . S
C135 C134 1.478 . S
C135 C136 1.397 . S
C136 C135 1.397 . S
C136 C137 1.438 . S
C136 C141 1.429 . S
C137 C120 1.394 . S
C137 C136 1.438 . S
C137 C138 1.428 . S
C138 H130 0.949 . S
C138 C137 1.428 . S
C138 C139 1.345 . S
C139 H131 0.950 . S
C139 C138 1.345 . S
C139 C140 1.424 . S
C140 H132 0.951 . S
C140 C139 1.424 . S
C140 C141 1.347 . S
C141 H133 0.951 . S
C141 C136 1.429 . S
C141 C140 1.347 . S
H142 C143 0.951 . S
C143 H142 0.951 . S
C143 C149 1.265 . S
H144 C149 0.950 . S
H145 C153 0.949 . S
H146 C154 0.950 . S
H147 C155 0.951 . S
H148 C156 0.951 . S
C149 C143 1.265 . S
C149 H144 0.950 . S
C149 C150 1.478 . S
C150 C149 1.478 . S
C150 C151 1.397 . S
C150 C167 1.394 . S
C151 C150 1.397 . S
C151 C152 1.438 . S
C151 C156 1.429 . S
C152 C151 1.438 . S
C152 C153 1.428 . S
C152 C165 1.394 . S
C153 H145 0.949 . S
C153 C152 1.428 . S
C153 C154 1.345 . S
C154 H146 0.950 . S
C154 C153 1.345 . S
C154 C155 1.424 . S
C155 H147 0.951 . S
C155 C154 1.424 . S
C155 C156 1.347 . S
C156 H148 0.951 . S
C156 C151 1.429 . S
C156 C155 1.347 . S
H157 C158 0.951 . S
C158 H157 0.951 . S
C158 C164 1.265 . S
H159 C164 0.950 . S
H160 C168 0.949 . S
H161 C169 0.950 . S
H162 C170 0.951 . S
H163 C171 0.951 . S
C164 C158 1.265 . S
C164 H159 0.950 . S
C164 C165 1.478 . S
C165 C152 1.394 . S
C165 C164 1.478 . S
C165 C166 1.397 . S
C166 C165 1.397 . S
C166 C167 1.438 . S
C166 C171 1.429 . S
C167 C150 1.394 . S
C167 C166 1.438 . S
C167 C168 1.428 . S
C168 H160 0.949 . S
C168 C167 1.428 . S
C168 C169 1.345 . S
C169 H161 0.950 . S
C169 C168 1.345 . S
C169 C170 1.424 . S
C170 H162 0.951 . S
C170 C169 1.424 . S
C170 C171 1.347 . S
C171 H163 0.951 . S
C171 C166 1.429 . S
C171 C170 1.347 . S
H172 C173 0.951 . S
C173 H172 0.951 . S
C173 C179 1.265 . S
H174 C179 0.950 . S
H175 C183 0.949 . S
H176 C184 0.950 . S
H177 C185 0.951 . S
H178 C186 0.951 1_545 S
C179 C173 1.265 . S
C179 H174 0.950 . S
C179 C180 1.478 . S
C180 C179 1.478 . S
C180 C181 1.397 1_545 S
C180 C197 1.394 1_554 S
C181 C180 1.397 1_565 S
C181 C182 1.438 . S
C181 C186 1.429 . S
C182 C181 1.438 . S
C182 C183 1.428 . S
C182 C195 1.394 1_554 S
C183 H175 0.949 . S
C183 C182 1.428 . S
C183 C184 1.345 . S
C184 H176 0.950 . S
C184 C183 1.345 . S
C184 C185 1.424 . S
C185 H177 0.951 . S
C185 C184 1.424 . S
C185 C186 1.347 . S
C186 H178 0.951 1_565 S
C186 C181 1.429 . S
C186 C185 1.347 . S
H187 C188 0.951 . S
C188 H187 0.951 . S
C188 C194 1.265 . S
H189 C194 0.950 . S
H190 C198 0.949 . S
H191 C199 0.950 . S
H192 C200 0.951 . S
H193 C201 0.951 1_565 S
C194 C188 1.265 . S
C194 H189 0.950 . S
C194 C195 1.478 . S
C195 C182 1.394 1_556 S
C195 C194 1.478 . S
C195 C196 1.397 1_565 S
C196 C195 1.397 1_545 S
C196 C197 1.438 . S
C196 C201 1.429 . S
C197 C180 1.394 1_556 S
C197 C196 1.438 . S
C197 C198 1.428 . S
C198 H190 0.949 . S
C198 C197 1.428 . S
C198 C199 1.345 . S
C199 H191 0.950 . S
C199 C198 1.345 . S
C199 C200 1.424 . S
C200 H192 0.951 . S
C200 C199 1.424 . S
C200 C201 1.347 . S
C201 H193 0.951 1_545 S
C201 C196 1.429 . S
C201 C200 1.347 . S
H202 C203 0.951 . S
C203 H202 0.951 . S
C203 C209 1.265 . S
H204 C209 0.950 . S
H205 C213 0.949 . S
H206 C214 0.950 . S
H207 C215 0.951 . S
H208 C216 0.951 . S
C209 C203 1.265 . S
C209 H204 0.950 . S
C209 C210 1.478 . S
C210 C209 1.478 . S
C210 C211 1.397 . S
C210 C227 1.394 . S
C211 C210 1.397 . S
C211 C212 1.438 1_655 S
C211 C216 1.429 . S
C212 C211 1.438 1_455 S
C212 C213 1.428 . S
C212 C225 1.394 . S
C213 H205 0.949 . S
C213 C212 1.428 . S
C213 C214 1.345 . S
C214 H206 0.950 . S
C214 C213 1.345 . S
C214 C215 1.424 1_455 S
C215 H207 0.951 . S
C215 C214 1.424 1_655 S
C215 C216 1.347 . S
C216 H208 0.951 . S
C216 C211 1.429 . S
C216 C215 1.347 . S
H217 C218 0.951 . S
C218 H217 0.951 . S
C218 C224 1.265 . S
H219 C224 0.950 . S
H220 C228 0.949 . S
H221 C229 0.950 . S
H222 C230 0.951 . S
H223 C231 0.951 . S
C224 C218 1.265 . S
C224 H219 0.950 . S
C224 C225 1.478 . S
C225 C212 1.394 . S
C225 C224 1.478 . S
C225 C226 1.397 . S
C226 C225 1.397 . S
C226 C227 1.438 1_455 S
C226 C231 1.429 . S
C227 C210 1.394 . S
C227 C226 1.438 1_655 S
C227 C228 1.428 . S
C228 H220 0.949 . S
C228 C227 1.428 . S
C228 C229 1.345 . S
C229 H221 0.950 . S
C229 C228 1.345 . S
C229 C230 1.424 1_655 S
C230 H222 0.951 . S
C230 C229 1.424 1_455 S
C230 C231 1.347 . S
C231 H223 0.951 . S
C231 C226 1.429 . S
C231 C230 1.347 . S
H232 C233 0.951 . S
C233 H232 0.951 . S
C233 C239 1.265 . S
H234 C239 0.950 . S
H235 C243 0.949 . S
H236 C244 0.950 . S
H237 C245 0.951 . S
H238 C246 0.951 . S
C239 C233 1.265 . S
C239 H234 0.950 . S
C239 C240 1.478 . S
C240 C239 1.478 . S
C240 C241 1.397 . S
C240 C257 1.394 . S
C241 C240 1.397 . S
C241 C242 1.438 1_565 S
C241 C246 1.429 . S
C242 C241 1.438 1_545 S
C242 C243 1.428 . S
C242 C255 1.394 . S
C243 H235 0.949 . S
C243 C242 1.428 . S
C243 C244 1.345 . S
C244 H236 0.950 . S
C244 C243 1.345 . S
C244 C245 1.424 1_545 S
C245 H237 0.951 . S
C245 C244 1.424 1_565 S
C245 C246 1.347 . S
C246 H238 0.951 . S
C246 C241 1.429 . S
C246 C245 1.347 . S
H247 C248 0.951 . S
C248 H247 0.951 . S
C248 C254 1.265 . S
H249 C254 0.950 . S
H250 C258 0.949 . S
H251 C259 0.950 . S
H252 C260 0.951 . S
H253 C261 0.951 . S
C254 C248 1.265 . S
C254 H249 0.950 . S
C254 C255 1.478 . S
C255 C242 1.394 . S
C255 C254 1.478 . S
C255 C256 1.397 . S
C256 C255 1.397 . S
C256 C257 1.438 1_545 S
C256 C261 1.429 . S
C257 C240 1.394 . S
C257 C256 1.438 1_565 S
C257 C258 1.428 . S
C258 H250 0.949 . S
C258 C257 1.428 . S
C258 C259 1.345 . S
C259 H251 0.950 . S
C259 C258 1.345 . S
C259 C260 1.424 1_565 S
C260 H252 0.951 . S
C260 C259 1.424 1_545 S
C260 C261 1.347 . S
C261 H253 0.951 . S
C261 C256 1.429 . S
C261 C260 1.347 . S
H262 C263 0.951 . S
C263 H262 0.951 . S
C263 C269 1.265 . S
H264 C269 0.950 . S
H265 C273 0.949 . S
H266 C274 0.950 . S
H267 C275 0.951 . S
H268 C276 0.951 . S
C269 C263 1.265 . S
C269 H264 0.950 . S
C269 C270 1.478 . S
C270 C269 1.478 . S
C270 C271 1.397 1_556 S
C270 C287 1.394 . S
C271 C270 1.397 1_554 S
C271 C272 1.438 1_655 S
C271 C276 1.429 . S
C272 C271 1.438 1_455 S
C272 C273 1.428 . S
C272 C285 1.394 . S
C273 H265 0.949 . S
C273 C272 1.428 . S
C273 C274 1.345 1_455 S
C274 H266 0.950 . S
C274 C273 1.345 1_655 S
C274 C275 1.424 . S
C275 H267 0.951 . S
C275 C274 1.424 . S
C275 C276 1.347 . S
C276 H268 0.951 . S
C276 C271 1.429 . S
C276 C275 1.347 . S
H277 C278 0.951 . S
C278 H277 0.951 . S
C278 C284 1.265 . S
H279 C284 0.950 . S
H280 C288 0.949 . S
H281 C289 0.950 . S
H282 C290 0.951 . S
H283 C291 0.951 . S
C284 C278 1.265 . S
C284 H279 0.950 . S
C284 C285 1.478 . S
C285 C272 1.394 . S
C285 C284 1.478 . S
C285 C286 1.397 1_554 S
C286 C285 1.397 1_556 S
C286 C287 1.438 1_455 S
C286 C291 1.429 . S
C287 C270 1.394 . S
C287 C286 1.438 1_655 S
C287 C288 1.428 . S
C288 H280 0.949 . S
C288 C287 1.428 . S
C288 C289 1.345 1_655 S
C289 H281 0.950 . S
C289 C288 1.345 1_455 S
C289 C290 1.424 . S
C290 H282 0.951 . S
C290 C289 1.424 . S
C290 C291 1.347 . S
C291 H283 0.951 . S
C291 C286 1.429 . S
C291 C290 1.347 . S
H292 C293 0.951 . S
C293 H292 0.951 . S
C293 C299 1.265 . S
H294 C299 0.950 . S
H295 C303 0.949 . S
H296 C304 0.950 . S
H297 C305 0.951 . S
H298 C306 0.951 . S
C299 C293 1.265 . S
C299 H294 0.950 . S
C299 C300 1.478 . S
C300 C299 1.478 . S
C300 C301 1.397 . S
C300 C317 1.394 . S
C301 C300 1.397 . S
C301 C302 1.438 . S
C301 C306 1.429 . S
C302 C301 1.438 . S
C302 C303 1.428 . S
C302 C315 1.394 . S
C303 H295 0.949 . S
C303 C302 1.428 . S
C303 C304 1.345 . S
C304 H296 0.950 . S
C304 C303 1.345 . S
C304 C305 1.424 . S
C305 H297 0.951 . S
C305 C304 1.424 . S
C305 C306 1.347 . S
C306 H298 0.951 . S
C306 C301 1.429 . S
C306 C305 1.347 . S
H307 C308 0.951 . S
C308 H307 0.951 . S
C308 C314 1.265 . S
H309 C314 0.950 . S
H310 C318 0.949 . S
H311 C319 0.950 . S
H312 C320 0.951 . S
H313 C321 0.951 . S
C314 C308 1.265 . S
C314 H309 0.950 . S
C314 C315 1.478 . S
C315 C302 1.394 . S
C315 C314 1.478 . S
C315 C316 1.397 . S
C316 C315 1.397 . S
C316 C317 1.438 . S
C316 C321 1.429 . S
C317 C300 1.394 . S
C317 C316 1.438 . S
C317 C318 1.428 . S
C318 H310 0.949 . S
C318 C317 1.428 . S
C318 C319 1.345 . S
C319 H311 0.950 . S
C319 C318 1.345 . S
C319 C320 1.424 . S
C320 H312 0.951 . S
C320 C319 1.424 . S
C320 C321 1.347 . S
C321 H313 0.951 . S
C321 C316 1.429 . S
C321 C320 1.347 . S
H322 C323 0.951 . S
C323 H322 0.951 . S
C323 C329 1.265 . S
H324 C329 0.950 . S
H325 C333 0.949 . S
H326 C334 0.950 . S
H327 C335 0.951 . S
H328 C336 0.951 . S
C329 C323 1.265 . S
C329 H324 0.950 . S
C329 C330 1.478 . S
C330 C329 1.478 . S
C330 C331 1.397 . S
C330 C347 1.394 . S
C331 C330 1.397 . S
C331 C332 1.438 . S
C331 C336 1.429 . S
C332 C331 1.438 . S
C332 C333 1.428 . S
C332 C345 1.394 . S
C333 H325 0.949 . S
C333 C332 1.428 . S
C333 C334 1.345 . S
C334 H326 0.950 . S
C334 C333 1.345 . S
C334 C335 1.424 . S
C335 H327 0.951 . S
C335 C334 1.424 . S
C335 C336 1.347 . S
C336 H328 0.951 . S
C336 C331 1.429 . S
C336 C335 1.347 . S
H337 C338 0.951 . S
C338 H337 0.951 . S
C338 C344 1.265 . S
H339 C344 0.950 . S
H340 C348 0.949 . S
H341 C349 0.950 . S
H342 C350 0.951 . S
H343 C351 0.951 . S
C344 C338 1.265 . S
C344 H339 0.950 . S
C344 C345 1.478 . S
C345 C332 1.394 . S
C345 C344 1.478 . S
C345 C346 1.397 . S
C346 C345 1.397 . S
C346 C347 1.438 . S
C346 C351 1.429 . S
C347 C330 1.394 . S
C347 C346 1.438 . S
C347 C348 1.428 . S
C348 H340 0.949 . S
C348 C347 1.428 . S
C348 C349 1.345 . S
C349 H341 0.950 . S
C349 C348 1.345 . S
C349 C350 1.424 . S
C350 H342 0.951 . S
C350 C349 1.424 . S
C350 C351 1.347 . S
C351 H343 0.951 . S
C351 C346 1.429 . S
C351 C350 1.347 . S
H352 C353 0.951 . S
C353 H352 0.951 . S
C353 C359 1.265 . S
H354 C359 0.950 . S
H355 C363 0.949 . S
H356 C364 0.950 . S
H357 C365 0.951 . S
H358 C366 0.951 . S
C359 C353 1.265 . S
C359 H354 0.950 . S
C359 C360 1.478 . S
C360 C359 1.478 . S
C360 C361 1.397 . S
C360 C377 1.394 . S
C361 C360 1.397 . S
C361 C362 1.438 . S
C361 C366 1.429 . S
C362 C361 1.438 . S
C362 C363 1.428 . S
C362 C375 1.394 . S
C363 H355 0.949 . S
C363 C362 1.428 . S
C363 C364 1.345 . S
C364 H356 0.950 . S
C364 C363 1.345 . S
C364 C365 1.424 . S
C365 H357 0.951 . S
C365 C364 1.424 . S
C365 C366 1.347 . S
C366 H358 0.951 . S
C366 C361 1.429 . S
C366 C365 1.347 . S
H367 C368 0.951 . S
C368 H367 0.951 . S
C368 C374 1.265 . S
H369 C374 0.950 . S
H370 C378 0.949 . S
H371 C379 0.950 . S
H372 C380 0.951 . S
H373 C381 0.951 . S
C374 C368 1.265 . S
C374 H369 0.950 . S
C374 C375 1.478 . S
C375 C362 1.394 . S
C375 C374 1.478 . S
C375 C376 1.397 . S
C376 C375 1.397 . S
C376 C377 1.438 . S
C376 C381 1.429 . S
C377 C360 1.394 . S
C377 C376 1.438 . S
C377 C378 1.428 . S
C378 H370 0.949 . S
C378 C377 1.428 . S
C378 C379 1.345 . S
C379 H371 0.950 . S
C379 C378 1.345 . S
C379 C380 1.424 . S
C380 H372 0.951 . S
C380 C379 1.424 . S
C380 C381 1.347 . S
C381 H373 0.951 . S
C381 C376 1.429 . S
C381 C380 1.347 . S
H382 C383 0.951 . S
C383 H382 0.951 . S
C383 C389 1.265 . S
H384 C389 0.950 . S
H385 C393 0.949 . S
H386 C394 0.950 . S
H387 C395 0.951 . S
H388 C396 0.951 1_556 S
C389 C383 1.265 . S
C389 H384 0.950 . S
C389 C390 1.478 . S
C390 C389 1.478 . S
C390 C391 1.397 1_556 S
C390 C407 1.394 . S
C391 C390 1.397 1_554 S
C391 C392 1.438 . S
C391 C396 1.429 . S
C392 C391 1.438 . S
C392 C393 1.428 . S
C392 C405 1.394 . S
C393 H385 0.949 . S
C393 C392 1.428 . S
C393 C394 1.345 . S
C394 H386 0.950 . S
C394 C393 1.345 . S
C394 C395 1.424 . S
C395 H387 0.951 . S
C395 C394 1.424 . S
C395 C396 1.347 . S
C396 H388 0.951 1_554 S
C396 C391 1.429 . S
C396 C395 1.347 . S
H397 C398 0.951 . S
C398 H397 0.951 . S
C398 C404 1.265 . S
H399 C404 0.950 . S
H400 C408 0.949 . S
H401 C409 0.950 . S
H402 C410 0.951 . S
H403 C411 0.951 1_554 S
C404 C398 1.265 . S
C404 H399 0.950 . S
C404 C405 1.478 . S
C405 C392 1.394 . S
C405 C404 1.478 . S
C405 C406 1.397 1_554 S
C406 C405 1.397 1_556 S
C406 C407 1.438 . S
C406 C411 1.429 . S
C407 C390 1.394 . S
C407 C406 1.438 . S
C407 C408 1.428 . S
C408 H400 0.949 . S
C408 C407 1.428 . S
C408 C409 1.345 . S
C409 H401 0.950 . S
C409 C408 1.345 . S
C409 C410 1.424 . S
C410 H402 0.951 . S
C410 C409 1.424 . S
C410 C411 1.347 . S
C411 H403 0.951 1_556 S
C411 C406 1.429 . S
C411 C410 1.347 . S
H412 C413 0.951 . S
C413 H412 0.951 . S
C413 C419 1.265 . S
H414 C419 0.950 . S
H415 C423 0.949 . S
H416 C424 0.950 . S
H417 C425 0.947 1_565 S
H418 C426 0.951 . S
C419 C413 1.265 . S
C419 H414 0.950 . S
C419 C420 1.478 . S
C420 C419 1.478 . S
C420 C421 1.397 . S
C420 C437 1.394 . S
C421 C420 1.397 . S
C421 C422 1.438 1_565 S
C421 C426 1.429 . S
C422 C421 1.438 1_545 S
C422 C423 1.428 . S
C422 C435 1.394 . S
C423 H415 0.949 . S
C423 C422 1.428 . S
C423 C424 1.345 . S
C424 H416 0.950 . S
C424 C423 1.345 . S
C424 C425 1.436 . S
C425 H417 0.947 1_545 S
C425 C424 1.436 . S
C425 C426 1.340 1_545 S
C426 H418 0.951 . S
C426 C421 1.429 . S
C426 C425 1.340 1_565 S
H427 C428 0.951 . S
C428 H427 0.951 . S
C428 C434 1.265 . S
H429 C434 0.950 . S
H430 C438 0.949 . S
H431 C439 0.950 . S
H432 C440 0.951 . S
H433 C441 0.951 . S
C434 C428 1.265 . S
C434 H429 0.950 . S
C434 C435 1.478 . S
C435 C422 1.394 . S
C435 C434 1.478 . S
C435 C436 1.397 . S
C436 C435 1.397 . S
C436 C437 1.438 1_545 S
C436 C441 1.429 . S
C437 C420 1.394 . S
C437 C436 1.438 1_565 S
C437 C438 1.428 . S
C438 H430 0.949 . S
C438 C437 1.428 . S
C438 C439 1.345 . S
C439 H431 0.950 . S
C439 C438 1.345 . S
C439 C440 1.424 1_565 S
C440 H432 0.951 . S
C440 C439 1.424 1_545 S
C440 C441 1.347 . S
C441 H433 0.951 . S
C441 C436 1.429 . S
C441 C440 1.347 . S
H442 C443 0.951 . S
C443 H442 0.951 . S
C443 C449 1.265 . S
H444 C449 0.950 . S
H445 C453 0.949 . S
H446 C454 0.950 . S
H447 C455 0.951 . S
H448 C456 0.951 . S
C449 C443 1.265 . S
C449 H444 0.950 . S
C449 C450 1.478 . S
C450 C449 1.478 . S
C450 C451 1.397 1_655 S
C450 C467 1.394 . S
C451 C450 1.397 1_455 S
C451 C452 1.438 1_565 S
C451 C456 1.429 . S
C452 C451 1.438 1_545 S
C452 C453 1.428 . S
C452 C465 1.394 . S
C453 H445 0.949 . S
C453 C452 1.428 . S
C453 C454 1.345 . S
C454 H446 0.950 . S
C454 C453 1.345 . S
C454 C455 1.424 1_545 S
C455 H447 0.951 . S
C455 C454 1.424 1_565 S
C455 C456 1.347 . S
C456 H448 0.951 . S
C456 C451 1.429 . S
C456 C455 1.347 . S
H457 C458 0.951 . S
C458 H457 0.951 . S
C458 C464 1.265 . S
H459 C464 0.950 . S
H460 C468 0.949 . S
H461 C469 0.950 . S
H462 C470 0.951 . S
H463 C471 0.951 . S
C464 C458 1.265 . S
C464 H459 0.950 . S
C464 C465 1.478 . S
C465 C452 1.394 . S
C465 C464 1.478 . S
C465 C466 1.397 1_455 S
C466 C465 1.397 1_655 S
C466 C467 1.438 1_545 S
C466 C471 1.429 . S
C467 C450 1.394 . S
C467 C466 1.438 1_565 S
C467 C468 1.428 . S
C468 H460 0.949 . S
C468 C467 1.428 . S
C468 C469 1.345 . S
C469 H461 0.950 . S
C469 C468 1.345 . S
C469 C470 1.424 1_565 S
C470 H462 0.951 . S
C470 C469 1.424 1_545 S
C470 C471 1.347 . S
C471 H463 0.951 . S
C471 C466 1.429 . S
C471 C470 1.347 . S
H472 C473 0.951 . S
C473 H472 0.951 . S
C473 C479 1.265 . S
H474 C479 0.950 . S
H475 C483 0.949 . S
H476 C484 0.950 . S
H477 C485 0.951 1_655 S
H478 C486 0.951 . S
C479 C473 1.265 . S
C479 H474 0.950 . S
C479 C480 1.478 . S
C480 C479 1.478 . S
C480 C481 1.397 . S
C480 C497 1.394 . S
C481 C480 1.397 . S
C481 C482 1.438 1_655 S
C481 C486 1.429 . S
C482 C481 1.438 1_455 S
C482 C483 1.428 . S
C482 C495 1.394 . S
C483 H475 0.949 . S
C483 C482 1.428 . S
C483 C484 1.345 . S
C484 H476 0.950 . S
C484 C483 1.345 . S
C484 C485 1.424 . S
C485 H477 0.951 1_455 S
C485 C484 1.424 . S
C485 C486 1.347 1_455 S
C486 H478 0.951 . S
C486 C481 1.429 . S
C486 C485 1.347 1_655 S
H487 C488 0.951 . S
C488 H487 0.951 . S
C488 C494 1.265 . S
H489 C494 0.950 . S
H490 C498 0.949 . S
H491 C499 0.950 . S
H492 C500 0.951 1_455 S
H493 C501 0.951 . S
C494 C488 1.265 . S
C494 H489 0.950 . S
C494 C495 1.478 . S
C495 C482 1.394 . S
C495 C494 1.478 . S
C495 C496 1.397 . S
C496 C495 1.397 . S
C496 C497 1.438 1_455 S
C496 C501 1.429 . S
C497 C480 1.394 . S
C497 C496 1.438 1_655 S
C497 C498 1.428 . S
C498 H490 0.949 . S
C498 C497 1.428 . S
C498 C499 1.345 . S
C499 H491 0.950 . S
C499 C498 1.345 . S
C499 C500 1.424 . S
C500 H492 0.951 1_655 S
C500 C499 1.424 . S
C500 C501 1.347 1_655 S
C501 H493 0.951 . S
C501 C496 1.429 . S
C501 C500 1.347 1_455 S
H502 C503 0.951 . S
C503 H502 0.951 . S
C503 C509 1.265 . S
H504 C509 0.950 . S
H505 C513 0.949 . S
H506 C514 0.950 . S
H507 C515 0.951 . S
H508 C516 0.951 . S
C509 C503 1.265 . S
C509 H504 0.950 . S
C509 C510 1.478 . S
C510 C509 1.478 . S
C510 C511 1.397 . S
C510 C527 1.394 . S
C511 C510 1.397 . S
C511 C512 1.438 . S
C511 C516 1.429 . S
C512 C511 1.438 . S
C512 C513 1.428 . S
C512 C525 1.394 . S
C513 H505 0.949 . S
C513 C512 1.428 . S
C513 C514 1.345 . S
C514 H506 0.950 . S
C514 C513 1.345 . S
C514 C515 1.424 . S
C515 H507 0.951 . S
C515 C514 1.424 . S
C515 C516 1.347 . S
C516 H508 0.951 . S
C516 C511 1.429 . S
C516 C515 1.347 . S
H517 C518 0.951 . S
C518 H517 0.951 . S
C518 C524 1.265 . S
H519 C524 0.950 . S
H520 C528 0.949 . S
H521 C529 0.950 . S
H522 C530 0.951 . S
H523 C531 0.951 . S
C524 C518 1.265 . S
C524 H519 0.950 . S
C524 C525 1.478 . S
C525 C512 1.394 . S
C525 C524 1.478 . S
C525 C526 1.397 . S
C526 C525 1.397 . S
C526 C527 1.438 . S
C526 C531 1.429 . S
C527 C510 1.394 . S
C527 C526 1.438 . S
C527 C528 1.428 . S
C528 H520 0.949 . S
C528 C527 1.428 . S
C528 C529 1.345 . S
C529 H521 0.950 . S
C529 C528 1.345 . S
C529 C530 1.424 . S
C530 H522 0.951 . S
C530 C529 1.424 . S
C530 C531 1.347 . S
C531 H523 0.951 . S
C531 C526 1.429 . S
C531 C530 1.347 . S
H532 C533 0.951 . S
C533 H532 0.951 . S
C533 C539 1.265 . S
H534 C539 0.950 . S
H535 C543 0.949 . S
H536 C544 0.950 . S
H537 C545 0.951 . S
H538 C546 0.951 . S
C539 C533 1.265 . S
C539 H534 0.950 . S
C539 C540 1.478 . S
C540 C539 1.478 . S
C540 C541 1.397 . S
C540 C557 1.394 1_554 S
C541 C540 1.397 . S
C541 C542 1.438 . S
C541 C546 1.429 . S
C542 C541 1.438 . S
C542 C543 1.428 . S
C542 C555 1.394 1_554 S
C543 H535 0.949 . S
C543 C542 1.428 . S
C543 C544 1.345 . S
C544 H536 0.950 . S
C544 C543 1.345 . S
C544 C545 1.424 . S
C545 H537 0.951 . S
C545 C544 1.424 . S
C545 C546 1.347 . S
C546 H538 0.951 . S
C546 C541 1.429 . S
C546 C545 1.347 . S
H547 C548 0.951 . S
C548 H547 0.951 . S
C548 C554 1.265 . S
H549 C554 0.950 . S
H550 C558 0.949 . S
H551 C559 0.950 . S
H552 C560 0.951 . S
H553 C561 0.951 . S
C554 C548 1.265 . S
C554 H549 0.950 . S
C554 C555 1.478 . S
C555 C542 1.394 1_556 S
C555 C554 1.478 . S
C555 C556 1.397 . S
C556 C555 1.397 . S
C556 C557 1.438 . S
C556 C561 1.429 . S
C557 C540 1.394 1_556 S
C557 C556 1.438 . S
C557 C558 1.428 . S
C558 H550 0.949 . S
C558 C557 1.428 . S
C558 C559 1.345 . S
C559 H551 0.950 . S
C559 C558 1.345 . S
C559 C560 1.424 . S
C560 H552 0.951 . S
C560 C559 1.424 . S
C560 C561 1.347 . S
C561 H553 0.951 . S
C561 C556 1.429 . S
C561 C560 1.347 . S
H562 C563 0.951 . S
C563 H562 0.951 . S
C563 C569 1.265 . S
H564 C569 0.950 . S
H565 C573 0.949 . S
H566 C574 0.950 . S
H567 C575 0.951 . S
H568 C576 0.951 . S
C569 C563 1.265 . S
C569 H564 0.950 . S
C569 C570 1.478 . S
C570 C569 1.478 . S
C570 C571 1.397 . S
C570 C587 1.394 . S
C571 C570 1.397 . S
C571 C572 1.438 . S
C571 C576 1.429 . S
C572 C571 1.438 . S
C572 C573 1.428 . S
C572 C585 1.394 . S
C573 H565 0.949 . S
C573 C572 1.428 . S
C573 C574 1.345 . S
C574 H566 0.950 . S
C574 C573 1.345 . S
C574 C575 1.424 . S
C575 H567 0.951 . S
C575 C574 1.424 . S
C575 C576 1.347 . S
C576 H568 0.951 . S
C576 C571 1.429 . S
C576 C575 1.347 . S
H577 C578 0.951 . S
C578 H577 0.951 . S
C578 C584 1.265 . S
H579 C584 0.950 . S
H580 C588 0.949 . S
H581 C589 0.950 . S
H582 C590 0.951 . S
H583 C591 0.951 . S
C584 C578 1.265 . S
C584 H579 0.950 . S
C584 C585 1.478 . S
C585 C572 1.394 . S
C585 C584 1.478 . S
C585 C586 1.397 . S
C586 C585 1.397 . S
C586 C587 1.438 . S
C586 C591 1.429 . S
C587 C570 1.394 . S
C587 C586 1.438 . S
C587 C588 1.428 . S
C588 H580 0.949 . S
C588 C587 1.428 . S
C588 C589 1.345 . S
C589 H581 0.950 . S
C589 C588 1.345 . S
C589 C590 1.424 . S
C590 H582 0.951 . S
C590 C589 1.424 . S
C590 C591 1.347 . S
C591 H583 0.951 . S
C591 C586 1.429 . S
C591 C590 1.347 . S
C113 C73 1.498 . S
C128 C3 1.491 . S
C143 C107 1.496 . S
C158 C22 1.482 . S
C173 C35 1.482 . S
C188 C91 1.431 . S
C203 C51 1.461 . S
C218 C64 1.496 . S
C233 C92 1.495 . S
C248 C9 1.477 . S
C263 C21 1.446 . S
C278 C63 1.495 . S
C293 C79 1.499 . S
C308 C36 1.483 . S
C323 C45 1.499 . S
C338 C101 1.493 . S
C353 C65 1.497 . S
C368 C78 1.489 . S
C383 C17 1.490 . S
C398 C31 1.498 . S
C413 C50 1.482 . S
C428 C37 1.471 . S
C443 C49 1.490 . S
C458 C7 1.437 . S
C473 C23 1.458 . S
C488 C8 1.495 . S
C503 C106 1.480 . S
C518 C93 1.485 . S
C533 C59 1.487 . S
C548 C87 1.478 . S
C563 C77 1.460 . S
C578 C105 1.496 . S
