# Generated by pormake.
# Topology uno, (4)-cn, num edge types: 1
# Building blocks:
#     Node 0, Type 0, BuildingBlock: MUDLON_clean_sbu_0, # of connection points: 4
#     Node 1, Type 0, BuildingBlock: MUDLON_clean_sbu_0, # of connection points: 4
#     Node 2, Type 0, BuildingBlock: MUDLON_clean_sbu_0, # of connection points: 4
#     Node 3, Type 0, BuildingBlock: MUDLON_clean_sbu_0, # of connection points: 4
#     Node 4, Type 0, BuildingBlock: MUDLON_clean_sbu_0, # of connection points: 4
#     Node 5, Type 0, BuildingBlock: MUDLON_clean_sbu_0, # of connection points: 4
#     Node 6, Type 0, BuildingBlock: MUDLON_clean_sbu_0, # of connection points: 4
#     Node 7, Type 0, BuildingBlock: MUDLON_clean_sbu_0, # of connection points: 4
#     Node 8, Type 0, BuildingBlock: MUDLON_clean_sbu_0, # of connection points: 4
#     Node 9, Type 0, BuildingBlock: MUDLON_clean_sbu_0, # of connection points: 4
#     Node 10, Type 0, BuildingBlock: MUDLON_clean_sbu_0, # of connection points: 4
#     Node 11, Type 0, BuildingBlock: MUDLON_clean_sbu_0, # of connection points: 4
#     Node 12, Type 0, BuildingBlock: MUDLON_clean_sbu_0, # of connection points: 4
#     Node 13, Type 0, BuildingBlock: MUDLON_clean_sbu_0, # of connection points: 4
#     Node 14, Type 0, BuildingBlock: MUDLON_clean_sbu_0, # of connection points: 4
#     Node 15, Type 0, BuildingBlock: MUDLON_clean_sbu_0, # of connection points: 4
#     Node 16, Type 0, BuildingBlock: MUDLON_clean_sbu_0, # of connection points: 4
#     Node 17, Type 0, BuildingBlock: MUDLON_clean_sbu_0, # of connection points: 4
#     Node 18, Type 0, BuildingBlock: MUDLON_clean_sbu_0, # of connection points: 4
#     Node 19, Type 0, BuildingBlock: MUDLON_clean_sbu_0, # of connection points: 4
#     Node 20, Type 0, BuildingBlock: MUDLON_clean_sbu_0, # of connection points: 4
#     Node 21, Type 0, BuildingBlock: MUDLON_clean_sbu_0, # of connection points: 4
#     Node 22, Type 0, BuildingBlock: MUDLON_clean_sbu_0, # of connection points: 4
#     Node 23, Type 0, BuildingBlock: MUDLON_clean_sbu_0, # of connection points: 4
#     Edge 24, Type (0, 0), BuildingBlock: ZUJKAS_clean_linker_0, # of connection points: 2
#     Edge 25, Type (0, 0), BuildingBlock: ZUJKAS_clean_linker_0, # of connection points: 2
#     Edge 26, Type (0, 0), BuildingBlock: ZUJKAS_clean_linker_0, # of connection points: 2
#     Edge 27, Type (0, 0), BuildingBlock: ZUJKAS_clean_linker_0, # of connection points: 2
#     Edge 28, Type (0, 0), BuildingBlock: ZUJKAS_clean_linker_0, # of connection points: 2
#     Edge 29, Type (0, 0), BuildingBlock: ZUJKAS_clean_linker_0, # of connection points: 2
#     Edge 30, Type (0, 0), BuildingBlock: ZUJKAS_clean_linker_0, # of connection points: 2
#     Edge 31, Type (0, 0), BuildingBlock: ZUJKAS_clean_linker_0, # of connection points: 2
#     Edge 32, Type (0, 0), BuildingBlock: ZUJKAS_clean_linker_0, # of connection points: 2
#     Edge 33, Type (0, 0), BuildingBlock: ZUJKAS_clean_linker_0, # of connection points: 2
#     Edge 34, Type (0, 0), BuildingBlock: ZUJKAS_clean_linker_0, # of connection points: 2
#     Edge 35, Type (0, 0), BuildingBlock: ZUJKAS_clean_linker_0, # of connection points: 2
#     Edge 36, Type (0, 0), BuildingBlock: ZUJKAS_clean_linker_0, # of connection points: 2
#     Edge 37, Type (0, 0), BuildingBlock: ZUJKAS_clean_linker_0, # of connection points: 2
#     Edge 38, Type (0, 0), BuildingBlock: ZUJKAS_clean_linker_0, # of connection points: 2
#     Edge 39, Type (0, 0), BuildingBlock: ZUJKAS_clean_linker_0, # of connection points: 2
#     Edge 40, Type (0, 0), BuildingBlock: ZUJKAS_clean_linker_0, # of connection points: 2
#     Edge 41, Type (0, 0), BuildingBlock: ZUJKAS_clean_linker_0, # of connection points: 2
#     Edge 42, Type (0, 0), BuildingBlock: ZUJKAS_clean_linker_0, # of connection points: 2
#     Edge 43, Type (0, 0), BuildingBlock: ZUJKAS_clean_linker_0, # of connection points: 2
#     Edge 44, Type (0, 0), BuildingBlock: ZUJKAS_clean_linker_0, # of connection points: 2
#     Edge 45, Type (0, 0), BuildingBlock: ZUJKAS_clean_linker_0, # of connection points: 2
#     Edge 46, Type (0, 0), BuildingBlock: ZUJKAS_clean_linker_0, # of connection points: 2
#     Edge 47, Type (0, 0), BuildingBlock: ZUJKAS_clean_linker_0, # of connection points: 2
#     Edge 48, Type (0, 0), BuildingBlock: ZUJKAS_clean_linker_0, # of connection points: 2
#     Edge 49, Type (0, 0), BuildingBlock: ZUJKAS_clean_linker_0, # of connection points: 2
#     Edge 50, Type (0, 0), BuildingBlock: ZUJKAS_clean_linker_0, # of connection points: 2
#     Edge 51, Type (0, 0), BuildingBlock: ZUJKAS_clean_linker_0, # of connection points: 2
#     Edge 52, Type (0, 0), BuildingBlock: ZUJKAS_clean_linker_0, # of connection points: 2
#     Edge 53, Type (0, 0), BuildingBlock: ZUJKAS_clean_linker_0, # of connection points: 2
#     Edge 54, Type (0, 0), BuildingBlock: ZUJKAS_clean_linker_0, # of connection points: 2
#     Edge 55, Type (0, 0), BuildingBlock: ZUJKAS_clean_linker_0, # of connection points: 2
#     Edge 56, Type (0, 0), BuildingBlock: ZUJKAS_clean_linker_0, # of connection points: 2
#     Edge 57, Type (0, 0), BuildingBlock: ZUJKAS_clean_linker_0, # of connection points: 2
#     Edge 58, Type (0, 0), BuildingBlock: ZUJKAS_clean_linker_0, # of connection points: 2
#     Edge 59, Type (0, 0), BuildingBlock: ZUJKAS_clean_linker_0, # of connection points: 2
#     Edge 60, Type (0, 0), BuildingBlock: ZUJKAS_clean_linker_0, # of connection points: 2
#     Edge 61, Type (0, 0), BuildingBlock: ZUJKAS_clean_linker_0, # of connection points: 2
#     Edge 62, Type (0, 0), BuildingBlock: ZUJKAS_clean_linker_0, # of connection points: 2
#     Edge 63, Type (0, 0), BuildingBlock: ZUJKAS_clean_linker_0, # of connection points: 2
#     Edge 64, Type (0, 0), BuildingBlock: ZUJKAS_clean_linker_0, # of connection points: 2
#     Edge 65, Type (0, 0), BuildingBlock: ZUJKAS_clean_linker_0, # of connection points: 2
#     Edge 66, Type (0, 0), BuildingBlock: ZUJKAS_clean_linker_0, # of connection points: 2
#     Edge 67, Type (0, 0), BuildingBlock: ZUJKAS_clean_linker_0, # of connection points: 2
#     Edge 68, Type (0, 0), BuildingBlock: ZUJKAS_clean_linker_0, # of connection points: 2
#     Edge 69, Type (0, 0), BuildingBlock: ZUJKAS_clean_linker_0, # of connection points: 2
#     Edge 70, Type (0, 0), BuildingBlock: ZUJKAS_clean_linker_0, # of connection points: 2
#     Edge 71, Type (0, 0), BuildingBlock: ZUJKAS_clean_linker_0, # of connection points: 2
# Relax obj value: 0.565
# Max RMSD: 0.257
# Mean RMSD: 0.231
data_MOF--net-uno--node1-MUDLON_clean_sbu_0--edge1-ZUJKAS_clean_linker_0
_symmetry_space_group_name_H-M    P1
_symmetry_Int_Tables_number       1
_symmetry_cell_setting            triclinic
loop_
_symmetry_equiv_pos_as_xyz
'x, y, z'
_cell_length_a     65.424297
_cell_length_b     65.102069
_cell_length_c     65.224951
_cell_angle_alpha  88.577283
_cell_angle_beta   88.33831
_cell_angle_gamma 88.518129
loop_
_atom_site_label
_atom_site_type_symbol
_atom_site_fract_x
_atom_site_fract_y
_atom_site_fract_z
_atom_type_partial_charge
Mg0 Mg 0.12092 0.32482 0.32544 0.0
C1 C 0.14231 0.31753 0.36787 0.0
O2 O 0.14433 0.32218 0.38718 0.0
C3 C 0.1062 0.36922 0.32207 0.0
O4 O 0.12172 0.37163 0.33405 0.0
C5 C 0.09087 0.29085 0.3326 0.0
O6 O 0.08684 0.30156 0.3491 0.0
O7 O 0.10403 0.29738 0.31947 0.0
O8 O 0.12801 0.32649 0.35788 0.0
O9 O 0.14918 0.32543 0.30722 0.0
C10 C 0.1641 0.33573 0.31308 0.0
O11 O 0.16217 0.34572 0.33031 0.0
O12 O 0.10222 0.35127 0.31635 0.0
Mg13 Mg 0.99088 0.82137 0.51088 0.0
C14 C 0.01115 0.83007 0.55094 0.0
O15 O 0.00939 0.81015 0.55374 0.0
C16 C 0.95108 0.8019 0.5027 0.0
O17 O 0.96381 0.79061 0.49151 0.0
C18 C 0.00267 0.77762 0.52291 0.0
O19 O 0.98444 0.7787 0.53188 0.0
O20 O 0.00858 0.7927 0.51169 0.0
O21 O 0.00266 0.83888 0.53566 0.0
O22 O 0.99888 0.83997 0.48391 0.0
C23 C 0.99211 0.85846 0.48359 0.0
O24 O 0.97953 0.86449 0.49845 0.0
O25 O 0.95814 0.81636 0.51295 0.0
Mg26 Mg 0.43235 0.71082 0.76771 0.0
C27 C 0.39754 0.71072 0.79874 0.0
O28 O 0.39024 0.69838 0.78525 0.0
C29 C 0.4442 0.66615 0.77809 0.0
O30 O 0.42884 0.66786 0.79142 0.0
C31 C 0.46515 0.73849 0.77852 0.0
O32 O 0.46506 0.72494 0.7938 0.0
O33 O 0.45306 0.73616 0.76388 0.0
O34 O 0.41584 0.71661 0.79632 0.0
O35 O 0.40864 0.71114 0.74497 0.0
C36 C 0.40458 0.69479 0.73578 0.0
O37 O 0.41646 0.67842 0.73839 0.0
O38 O 0.44918 0.68171 0.76708 0.0
Mg39 Mg 0.56494 0.22592 0.98243 0.0
C40 C 0.56015 0.18772 0.00915 0.0
O41 O 0.57433 0.1807 0.99629 0.0
C42 C 0.60927 0.22805 0.99559 0.0
O43 O 0.60361 0.2135 0.0087 0.0
C44 C 0.54212 0.26249 0.99788 0.0
O45 O 0.55565 0.259 0.01214 0.0
O46 O 0.54295 0.2514 0.98209 0.0
O47 O 0.55495 0.20665 0.00814 0.0
O48 O 0.5624 0.20625 0.95623 0.0
C49 C 0.57809 0.19613 0.94978 0.0
O50 O 0.59586 0.19943 0.9578 0.0
O51 O 0.59612 0.23625 0.98375 0.0
Mg52 Mg 0.03922 0.0353 0.34933 0.0
C53 C 0.05519 0.03779 0.39019 0.0
O54 O 0.06639 0.05027 0.3787 0.0
C55 C 0.00856 0.02738 0.31712 0.0
O56 O 0.01797 0.04292 0.30817 0.0
C57 C 0.04752 0.07727 0.33088 0.0
O58 O 0.05858 0.06602 0.31807 0.0
O59 O 0.03733 0.06841 0.34527 0.0
O60 O 0.04078 0.02857 0.38193 0.0
O61 O 0.06821 0.02432 0.33592 0.0
C62 C 0.07783 0.00825 0.34226 0.0
O63 O 0.0963 0.00417 0.33479 0.0
O64 O 0.0138 0.02133 0.33493 0.0
Mg65 Mg 0.18591 0.6794 0.67599 0.0
C66 C 0.20247 0.63805 0.69478 0.0
O67 O 0.20049 0.61873 0.70063 0.0
C68 C 0.15915 0.67882 0.63855 0.0
O69 O 0.17531 0.66931 0.63054 0.0
C70 C 0.22152 0.67033 0.64679 0.0
O71 O 0.21361 0.65198 0.64785 0.0
O72 O 0.21306 0.68478 0.65697 0.0
O73 O 0.18669 0.64827 0.68906 0.0
O74 O 0.18348 0.70216 0.6997 0.0
C75 C 0.17166 0.69999 0.71537 0.0
O76 O 0.16069 0.6834 0.71741 0.0
O77 O 0.15931 0.68418 0.65715 0.0
Mg78 Mg 0.52074 0.98365 0.81514 0.0
C79 C 0.48036 0.96934 0.83334 0.0
O80 O 0.48805 0.95152 0.8275 0.0
C81 C 0.51367 0.00852 0.77416 0.0
O82 O 0.49487 0.01212 0.78101 0.0
C83 C 0.52825 0.94287 0.79702 0.0
O84 O 0.52251 0.9543 0.78123 0.0
O85 O 0.53016 0.95139 0.81418 0.0
O86 O 0.48987 0.9856 0.82836 0.0
O87 O 0.53809 1.00306 0.8346 0.0
C88 C 0.53289 0.02188 0.83182 0.0
O89 O 0.51871 0.02649 0.81849 0.0
O90 O 0.52571 0.99723 0.78474 0.0
Mg91 Mg 0.32814 0.32142 0.1221 0.0
C92 C 0.32624 0.33988 0.16449 0.0
O93 O 0.34248 0.32794 0.16712 0.0
C94 C 0.35461 0.33014 0.08437 0.0
O95 O 0.33728 0.32668 0.07554 0.0
C96 C 0.29102 0.33638 0.10076 0.0
O97 O 0.29846 0.35354 0.10724 0.0
O98 O 0.301 0.31963 0.10392 0.0
O99 O 0.31891 0.34182 0.14669 0.0
O100 O 0.33462 0.29206 0.13728 0.0
C101 C 0.35248 0.28805 0.14372 0.0
O102 O 0.36707 0.30113 0.13949 0.0
O103 O 0.35498 0.3301 0.10385 0.0
Mg104 Mg 0.3076 0.11692 0.3245 0.0
C105 C 0.27787 0.15068 0.31203 0.0
O106 O 0.2911 0.15185 0.29652 0.0
C107 C 0.29275 0.09184 0.28859 0.0
O108 O 0.27729 0.10512 0.28866 0.0
C109 C 0.31429 0.08428 0.35754 0.0
O110 O 0.3159 0.07272 0.34132 0.0
O111 O 0.31183 0.10362 0.35501 0.0
O112 O 0.28029 0.13658 0.32566 0.0
O113 O 0.33158 0.1372 0.31344 0.0
C114 C 0.34259 0.13204 0.29792 0.0
O115 O 0.34161 0.11321 0.29133 0.0
O116 O 0.30619 0.09285 0.30217 0.0
Mg117 Mg 0.20516 0.98112 0.57337 0.0
C118 C 0.16101 0.99415 0.56933 0.0
O119 O 0.1588 0.97775 0.58124 0.0
C120 C 0.20458 0.99243 0.61825 0.0
O121 O 0.18547 0.99739 0.61437 0.0
C122 C 0.23392 0.0054 0.54705 0.0
O123 O 0.22582 0.01953 0.55905 0.0
O124 O 0.22862 0.98687 0.54989 0.0
O125 O 0.17895 1.00043 0.56518 0.0
O126 O 0.19352 0.95026 0.5721 0.0
C127 C 0.18839 0.94052 0.58852 0.0
O128 O 0.19309 0.94802 0.60623 0.0
O129 O 0.21634 0.98615 0.60375 0.0
Mg130 Mg 0.22193 0.89327 0.85763 0.0
C131 C 0.24886 0.85667 0.86747 0.0
O132 O 0.23154 0.85095 0.87626 0.0
C133 C 0.23932 0.91547 0.81958 0.0
O134 O 0.25654 0.9069 0.82578 0.0
C135 C 0.22393 0.90666 0.90171 0.0
O136 O 0.22876 0.88712 0.9047 0.0
O137 O 0.21938 0.91304 0.88382 0.0
O138 O 0.24972 0.87439 0.85886 0.0
O139 O 0.1977 0.87149 0.85482 0.0
C140 C 0.18638 0.87275 0.83931 0.0
O141 O 0.18721 0.88926 0.82735 0.0
O142 O 0.22294 0.91256 0.83008 0.0
Mg143 Mg 0.36287 0.02655 0.05144 0.0
C144 C 0.36699 0.99298 0.02024 0.0
O145 O 0.34694 0.9946 0.0214 0.0
C146 C 0.3646 0.01975 0.09776 0.0
O147 O 0.38351 0.0256 0.09456 0.0
C148 C 0.31836 0.03045 0.04177 0.0
O149 O 0.31676 0.02406 0.061 0.0
O150 O 0.33587 0.03529 0.03449 0.0
O151 O 0.37739 1.00279 0.03277 0.0
O152 O 0.38488 0.05087 0.05229 0.0
C153 C 0.40353 0.04493 0.05303 0.0
O154 O 0.40787 0.02511 0.05354 0.0
O155 O 0.35332 0.01755 0.08248 0.0
Mg156 Mg 0.84544 0.237 0.88599 0.0
C157 C 0.82455 0.19856 0.87366 0.0
O158 O 0.82038 0.19758 0.89347 0.0
C159 C 0.88881 0.22266 0.89633 0.0
O160 O 0.88872 0.21519 0.87781 0.0
C161 C 0.81642 0.23574 0.92347 0.0
O162 O 0.83034 0.22269 0.93052 0.0
O163 O 0.81928 0.24424 0.9059 0.0
O164 O 0.83636 0.21241 0.86662 0.0
O165 O 0.85054 0.26358 0.86599 0.0
C166 C 0.86346 0.26282 0.85107 0.0
O167 O 0.87408 0.24572 0.84802 0.0
O168 O 0.87262 0.23123 0.90366 0.0
Mg169 Mg 0.99211 0.55604 0.17622 0.0
C170 C 0.95412 0.54441 0.1552 0.0
O171 O 0.96625 0.52885 0.15009 0.0
C172 C 0.01121 0.53816 0.21435 0.0
O173 O 0.02087 0.55559 0.21267 0.0
C174 C 0.98875 0.59378 0.20008 0.0
O175 O 0.97699 0.58099 0.21056 0.0
O176 O 0.99864 0.58724 0.18438 0.0
O177 O 0.96047 0.5575 0.16749 0.0
O178 O 0.00861 0.54518 0.14896 0.0
C179 C 0.01766 0.52766 0.14956 0.0
O180 O 0.01888 0.51768 0.16724 0.0
O181 O 0.99753 0.53452 0.20157 0.0
Mg182 Mg 0.70401 0.78165 0.44203 0.0
C183 C 0.72185 0.8236 0.43618 0.0
O184 O 0.72782 0.81953 0.45493 0.0
C185 C 0.66528 0.79352 0.46722 0.0
O186 O 0.66804 0.81194 0.45909 0.0
C187 C 0.73775 0.77546 0.47292 0.0
O188 O 0.72358 0.78305 0.48548 0.0
O189 O 0.73321 0.77199 0.45453 0.0
O190 O 0.7093 0.81171 0.42829 0.0
O191 O 0.69643 0.76266 0.41654 0.0
C192 C 0.67768 0.76124 0.41223 0.0
O193 O 0.66372 0.77068 0.4237 0.0
O194 O 0.67861 0.77936 0.46389 0.0
Mg195 Mg 0.88703 0.82825 0.2416 0.0
C196 C 0.84661 0.82513 0.22142 0.0
O197 O 0.84064 0.83434 0.23834 0.0
C198 C 0.89587 0.87256 0.2292 0.0
O199 O 0.8765 0.87287 0.22437 0.0
C200 C 0.92197 0.79968 0.22975 0.0
O201 O 0.92429 0.81414 0.21552 0.0
O202 O 0.90778 0.8018 0.24332 0.0
O203 O 0.86562 0.82189 0.21795 0.0
O204 O 0.86987 0.83126 0.27052 0.0
C205 C 0.86819 0.84826 0.27972 0.0
O206 O 0.87779 0.8643 0.2721 0.0
O207 O 0.90412 0.85582 0.23563 0.0
Mg208 Mg 0.64824 0.19775 0.69727 0.0
C209 C 0.6815 0.22142 0.67557 0.0
O210 O 0.69258 0.20863 0.68681 0.0
C211 C 0.63912 0.15359 0.68677 0.0
O212 O 0.65716 0.14988 0.69461 0.0
C213 C 0.60763 0.21809 0.70368 0.0
O214 O 0.60511 0.20806 0.68674 0.0
O215 O 0.62464 0.21617 0.71255 0.0
O216 O 0.66228 0.21908 0.67527 0.0
O217 O 0.67125 0.18782 0.71892 0.0
C218 C 0.66805 0.17666 0.73489 0.0
O219 O 0.64955 0.17002 0.73902 0.0
O220 O 0.63274 0.17209 0.68465 0.0
Mg221 Mg 0.49931 0.43855 0.66837 0.0
C222 C 0.52936 0.42361 0.63732 0.0
O223 O 0.51542 0.40942 0.63744 0.0
C224 C 0.50739 0.47896 0.68713 0.0
O225 O 0.51589 0.48181 0.66881 0.0
C226 C 0.50061 0.40429 0.69974 0.0
O227 O 0.50596 0.4197 0.7109 0.0
O228 O 0.49547 0.40793 0.68134 0.0
O229 O 0.52744 0.43796 0.65016 0.0
O230 O 0.47727 0.44853 0.64585 0.0
C231 C 0.46423 0.46283 0.64968 0.0
O232 O 0.46172 0.46897 0.66865 0.0
O233 O 0.49968 0.46166 0.6917 0.0
Mg234 Mg 0.05184 0.36861 0.00487 0.0
C235 C 0.01169 0.38717 1.00271 0.0
O236 O 0.01523 0.37739 0.98552 0.0
C237 C 0.08653 0.34661 0.02648 0.0
O238 O 0.07967 0.33131 0.01612 0.0
C239 C 0.04595 0.32932 0.9814 0.0
O240 O 0.06183 0.33594 0.97062 0.0
O241 O 0.03936 0.33947 0.99673 0.0
O242 O 0.02552 0.38656 0.01604 0.0
O243 O 0.06251 0.38424 0.97679 0.0
C244 C 0.06207 0.40371 0.9743 0.0
O245 O 0.06665 0.41176 0.95614 0.0
O246 O 0.07714 0.36394 0.02557 0.0
Mg247 Mg 0.44008 0.67449 0.4993 0.0
C248 C 0.43573 0.66121 0.45404 0.0
O249 O 0.4259 0.66106 0.43677 0.0
C250 C 0.39829 0.69102 0.51405 0.0
O251 O 0.39676 0.69697 0.49475 0.0
C252 C 0.46893 0.70893 0.48763 0.0
O253 O 0.45913 0.70826 0.47037 0.0
O254 O 0.46402 0.69676 0.5024 0.0
O255 O 0.42901 0.67294 0.46821 0.0
O256 O 0.44943 0.64386 0.5096 0.0
C257 C 0.43571 0.63042 0.50902 0.0
O258 O 0.41794 0.63576 0.50135 0.0
O259 O 0.41471 0.68215 0.51989 0.0
Mg260 Mg 0.66631 0.52758 0.45476 0.0
C261 C 0.64018 0.49045 0.46244 0.0
O262 O 0.62832 0.50062 0.4496 0.0
C263 C 0.67337 0.51697 0.40952 0.0
O264 O 0.66139 0.50156 0.41421 0.0
C265 C 0.70599 0.52633 0.47577 0.0
O266 O 0.70869 0.51127 0.46284 0.0
O267 O 0.68944 0.53696 0.47535 0.0
O268 O 0.65775 0.49731 0.46577 0.0
O269 O 0.63906 0.54712 0.45799 0.0
C270 C 0.62769 0.55062 0.44275 0.0
O271 O 0.63318 0.54306 0.42488 0.0
O272 O 0.67803 0.52921 0.42342 0.0
Mg273 Mg 0.79955 0.44546 0.6913 0.0
C274 C 0.77238 0.41689 0.66904 0.0
O275 O 0.78092 0.42619 0.653 0.0
C276 C 0.78104 0.45638 0.73231 0.0
O277 O 0.77532 0.43725 0.7312 0.0
C278 C 0.79721 0.48235 0.6625 0.0
O279 O 0.79094 0.49114 0.67955 0.0
O280 O 0.80292 0.46355 0.66315 0.0
O281 O 0.77668 0.42252 0.68691 0.0
O282 O 0.82653 0.42748 0.69956 0.0
C283 C 0.83616 0.4316 0.71555 0.0
O284 O 0.83154 0.44873 0.72506 0.0
O285 O 0.79091 0.46439 0.71721 0.0
Mg286 Mg 0.79195 0.53107 0.97963 0.0
C287 C 0.80209 0.56465 0.00817 0.0
O288 O 0.78287 0.56219 0.01384 0.0
C289 C 0.77747 0.51991 0.939 0.0
O290 O 0.76742 0.50738 0.95151 0.0
C291 C 0.74827 0.54338 0.98756 0.0
O292 O 0.75238 0.55401 0.97062 0.0
O293 O 0.76192 0.53105 0.99454 0.0
O294 O 0.80907 0.5556 0.99229 0.0
O295 O 0.81115 0.50464 0.98785 0.0
C296 C 0.82827 0.50425 0.97812 0.0
O297 O 0.83146 0.51808 0.96342 0.0
O298 O 0.78938 0.53267 0.94656 0.0
Mg299 Mg 0.67117 0.65185 0.18985 0.0
C300 C 0.7004 0.68234 0.16952 0.0
O301 O 0.68626 0.68364 0.15562 0.0
C302 C 0.6904 0.62705 0.22348 0.0
O303 O 0.69735 0.64536 0.22696 0.0
C304 C 0.65421 0.62449 0.15869 0.0
O305 O 0.65439 0.61193 0.17476 0.0
O306 O 0.65912 0.64306 0.16085 0.0
O307 O 0.69827 0.66979 0.18463 0.0
O308 O 0.65166 0.67054 0.20966 0.0
C309 C 0.64236 0.66214 0.22493 0.0
O310 O 0.64122 0.64201 0.2258 0.0
O311 O 0.67936 0.62478 0.20804 0.0
H312 H 0.33487 0.33461 0.20516 0.0
H313 H 0.31066 0.33771 0.23428 0.0
H314 H 0.26446 0.36178 0.19375 0.0
H315 H 0.28859 0.35919 0.16466 0.0
H316 H 0.26264 0.37991 0.23203 0.0
H317 H 0.26627 0.29455 0.23896 0.0
H318 H 0.29021 0.30699 0.24151 0.0
H319 H 0.27757 0.30842 0.2174 0.0
C320 C 0.31972 0.34105 0.2025 0.0
C321 C 0.31356 0.34629 0.18251 0.0
C322 C 0.30587 0.34267 0.21915 0.0
C323 C 0.28562 0.34941 0.21605 0.0
C324 C 0.27997 0.35635 0.19644 0.0
H325 H 0.17248 0.31824 0.276 0.0
H326 H 0.20312 0.32215 0.25408 0.0
C327 C 0.29382 0.35485 0.17981 0.0
C328 C 0.26975 0.34745 0.23262 0.0
H329 H 0.24369 0.31186 0.26168 0.0
C330 C 0.2586 0.36508 0.2387 0.0
C331 C 0.26433 0.328 0.241 0.0
C332 C 0.27506 0.30836 0.23431 0.0
C333 C 0.24197 0.36376 0.25274 0.0
C334 C 0.23659 0.34431 0.26112 0.0
C335 C 0.24796 0.32675 0.25531 0.0
C336 C 0.2184 0.34164 0.2749 0.0
C337 C 0.22978 0.38306 0.25783 0.0
C338 C 0.21701 0.35097 0.29406 0.0
C339 C 0.19948 0.34881 0.30662 0.0
C340 C 0.18307 0.33719 0.30027 0.0
C341 C 0.18478 0.32739 0.28131 0.0
C342 C 0.20229 0.32959 0.26877 0.0
H343 H 0.23315 0.39588 0.24679 0.0
H344 H 0.21312 0.38022 0.25789 0.0
H345 H 0.23369 0.38799 0.27337 0.0
H346 H 0.22947 0.35997 0.29927 0.0
H347 H 0.19872 0.35641 0.32122 0.0
H348 H 0.02346 0.85329 0.45524 0.0
H349 H 0.03815 0.87941 0.43198 0.0
H350 H 0.99299 0.9239 0.45349 0.0
H351 H 0.97854 0.89805 0.47712 0.0
H352 H 0.02197 0.90182 0.40072 0.0
H353 H 0.04537 0.95407 0.46118 0.0
H354 H 0.03747 0.92813 0.4668 0.0
H355 H 0.01869 0.94838 0.46265 0.0
C356 C 0.0166 0.86861 0.45497 0.0
C357 C 0.99992 0.87362 0.46815 0.0
C358 C 0.02505 0.88354 0.4417 0.0
C359 C 0.01698 0.90375 0.44135 0.0
C360 C 0.99986 0.90858 0.45394 0.0
H361 H 0.03929 0.99391 0.34351 0.0
H362 H 0.02411 0.96968 0.3685 0.0
C363 C 0.9915 0.89372 0.4673 0.0
C364 C 0.02627 0.91965 0.42754 0.0
H365 H 0.04767 0.96703 0.42676 0.0
C366 C 0.02764 0.91605 0.40642 0.0
C367 C 0.03395 0.93809 0.43504 0.0
C368 C 0.03401 0.94236 0.45767 0.0
C369 C 0.03616 0.93049 0.39254 0.0
C370 C 0.04309 0.94928 0.39994 0.0
C371 C 0.04209 0.95275 0.4211 0.0
C372 C 0.05164 0.96537 0.38591 0.0
C373 C 0.03798 0.92529 0.37013 0.0
C374 C 0.07185 0.97165 0.38787 0.0
C375 C 0.08033 0.98587 0.37383 0.0
C376 C 0.0686 0.99426 0.35783 0.0
C377 C 0.04831 0.98825 0.35613 0.0
C378 C 0.03982 0.9741 0.37017 0.0
H379 H 0.03743 0.90845 0.36789 0.0
H380 H 0.02502 0.93268 0.3619 0.0
H381 H 0.05246 0.931 0.36304 0.0
H382 H 0.08122 0.96517 0.39997 0.0
H383 H 0.09607 0.99024 0.37538 0.0
H384 H 0.21235 0.67669 0.70553 0.0
H385 H 0.2465 0.69111 0.70664 0.0
H386 H 0.27306 0.63361 0.6861 0.0
H387 H 0.23884 0.61946 0.6844 0.0
H388 H 0.27674 0.67571 0.73135 0.0
H389 H 0.30424 0.67525 0.65017 0.0
H390 H 0.27753 0.67395 0.65773 0.0
H391 H 0.29376 0.65129 0.65905 0.0
C392 C 0.22541 0.66744 0.7006 0.0
C393 C 0.22292 0.64718 0.69445 0.0
C394 C 0.24493 0.67559 0.7014 0.0
C395 C 0.26233 0.66359 0.69606 0.0
C396 C 0.25985 0.64336 0.68977 0.0
H397 H 0.39069 0.66173 0.71577 0.0
H398 H 0.35606 0.65674 0.70405 0.0
C399 C 0.24033 0.63521 0.68903 0.0
C400 C 0.28311 0.67137 0.69917 0.0
H401 H 0.32973 0.67858 0.67544 0.0
C402 C 0.28824 0.67665 0.71907 0.0
C403 C 0.2981 0.67253 0.68313 0.0
C404 C 0.29315 0.66813 0.66126 0.0
C405 C 0.30816 0.68223 0.72356 0.0
C406 C 0.3233 0.68287 0.70763 0.0
C407 C 0.31809 0.67807 0.68761 0.0
C408 C 0.34488 0.68718 0.7119 0.0
C409 C 0.31306 0.68655 0.7455 0.0
C410 C 0.35027 0.70623 0.71946 0.0
C411 C 0.37006 0.70915 0.72621 0.0
C412 C 0.38482 0.69304 0.72547 0.0
C413 C 0.37968 0.67442 0.71668 0.0
C414 C 0.3599 0.67153 0.70993 0.0
H415 H 0.30078 0.68148 0.75646 0.0
H416 H 0.32766 0.67872 0.7498 0.0
H417 H 0.31483 0.70333 0.74715 0.0
H418 H 0.33895 0.7186 0.72082 0.0
H419 H 0.37352 0.72372 0.73281 0.0
H420 H 0.54287 0.18185 0.93416 0.0
H421 H 0.53909 0.15094 0.91418 0.0
H422 H 0.60434 0.13982 0.9143 0.0
H423 H 0.60834 0.1708 0.93411 0.0
H424 H 0.587 0.13413 0.87599 0.0
H425 H 0.5451 0.09211 0.93841 0.0
H426 H 0.53392 0.11688 0.93212 0.0
H427 H 0.55899 0.11515 0.94273 0.0
C428 C 0.55646 0.17295 0.92979 0.0
C429 C 0.5759 0.17874 0.93585 0.0
C430 C 0.55424 0.1552 0.91852 0.0
C431 C 0.5714 0.14287 0.91317 0.0
C432 C 0.5909 0.14903 0.91846 0.0
H433 H 0.55713 0.01868 0.86567 0.0
H434 H 0.56969 0.04707 0.88567 0.0
C435 C 0.59313 0.16676 0.92976 0.0
C436 C 0.56894 0.12353 0.90208 0.0
H437 H 0.54498 0.07753 0.90517 0.0
C438 C 0.57798 0.12166 0.88243 0.0
C439 C 0.55753 0.10711 0.9107 0.0
C440 C 0.54849 0.10776 0.93223 0.0
C441 C 0.57508 0.1042 0.87075 0.0
C442 C 0.56264 0.08833 0.87889 0.0
C443 C 0.55442 0.08977 0.89892 0.0
C444 C 0.55649 0.07106 0.86625 0.0
C445 C 0.58518 0.10298 0.84971 0.0
C446 C 0.54489 0.07517 0.84883 0.0
C447 C 0.53769 0.05912 0.83753 0.0
C448 C 0.54185 0.03854 0.84342 0.0
C449 C 0.55375 0.03437 0.86071 0.0
C450 C 0.5609 0.05055 0.87214 0.0
H451 H 0.59885 0.11276 0.84834 0.0
H452 H 0.58987 0.08691 0.84615 0.0
H453 H 0.57419 0.10857 0.83807 0.0
H454 H 0.54096 0.09086 0.84424 0.0
H455 H 0.52858 0.06291 0.82429 0.0
H456 H 0.25262 0.15694 0.34557 0.0
H457 H 0.22874 0.18576 0.35141 0.0
H458 H 0.24289 0.2102 0.29072 0.0
H459 H 0.26729 0.18166 0.28496 0.0
H460 H 0.24394 0.23955 0.31857 0.0
H461 H 0.17233 0.19705 0.33054 0.0
H462 H 0.19177 0.18773 0.34747 0.0
H463 H 0.19546 0.18514 0.32016 0.0
C464 C 0.25046 0.16827 0.33334 0.0
C465 C 0.26184 0.16695 0.31477 0.0
C466 C 0.2367 0.18472 0.33667 0.0
C467 C 0.23377 0.20001 0.32139 0.0
C468 C 0.24485 0.19854 0.3027 0.0
H469 H 0.13566 0.29198 0.33627 0.0
H470 H 0.15839 0.26532 0.32225 0.0
C471 C 0.25874 0.18218 0.29941 0.0
C472 C 0.22001 0.21807 0.3254 0.0
H473 H 0.17181 0.23169 0.3423 0.0
C474 C 0.2281 0.23784 0.32354 0.0
C475 C 0.19923 0.21592 0.33153 0.0
C476 C 0.18913 0.19533 0.33232 0.0
C477 C 0.2162 0.25543 0.32838 0.0
C478 C 0.19583 0.25313 0.33579 0.0
C479 C 0.18753 0.23344 0.33691 0.0
C480 C 0.18291 0.2708 0.34283 0.0
C481 C 0.2255 0.2763 0.32535 0.0
C482 C 0.18906 0.28291 0.35897 0.0
C483 C 0.17606 0.29847 0.36668 0.0
C484 C 0.15663 0.30218 0.35848 0.0
C485 C 0.15064 0.29009 0.34233 0.0
C486 C 0.16361 0.27462 0.33451 0.0
H487 H 0.2384 0.27592 0.31389 0.0
H488 H 0.21396 0.28799 0.32023 0.0
H489 H 0.23159 0.2812 0.34011 0.0
H490 H 0.20365 0.27993 0.36603 0.0
H491 H 0.18111 0.30738 0.37931 0.0
H492 H 0.02162 0.87035 0.54622 0.0
H493 H 0.05227 0.88605 0.55857 0.0
H494 H 0.06726 0.83044 0.59279 0.0
H495 H 0.03677 0.81441 0.58024 0.0
H496 H 0.06832 0.8932 0.59699 0.0
H497 H 0.11634 0.83706 0.55269 0.0
H498 H 0.08913 0.84005 0.54948 0.0
H499 H 0.09881 0.82619 0.57144 0.0
C500 C 0.03119 0.86156 0.55669 0.0
C501 C 0.02689 0.84101 0.56198 0.0
C502 C 0.04872 0.87056 0.56373 0.0
C503 C 0.06227 0.85922 0.57618 0.0
C504 C 0.05722 0.83928 0.58282 0.0
H505 H 0.17047 0.91956 0.62089 0.0
H506 H 0.14096 0.8973 0.61995 0.0
C507 C 0.03969 0.83022 0.57575 0.0
C508 C 0.08231 0.86786 0.58079 0.0
H509 H 0.13355 0.86242 0.56997 0.0
C510 C 0.08262 0.88636 0.59133 0.0
C511 C 0.10089 0.859 0.5731 0.0
C512 C 0.1014 0.83957 0.5609 0.0
C513 C 0.101 0.89649 0.59404 0.0
C514 C 0.11956 0.88769 0.58625 0.0
C515 C 0.1193 0.86898 0.57609 0.0
C516 C 0.13906 0.89865 0.5869 0.0
C517 C 0.1003 0.917 0.60437 0.0
C518 C 0.14839 0.90586 0.56856 0.0
C519 C 0.16532 0.91846 0.56901 0.0
C520 C 0.17324 0.92405 0.58784 0.0
C521 C 0.16468 0.91566 0.60613 0.0
C522 C 0.14773 0.90305 0.60566 0.0
H523 H 0.08445 0.92339 0.60606 0.0
H524 H 0.10668 0.91513 0.61991 0.0
H525 H 0.10972 0.92829 0.59553 0.0
H526 H 0.14198 0.90252 0.55391 0.0
H527 H 0.17156 0.92459 0.55463 0.0
H528 H 0.25118 0.81726 0.88279 0.0
H529 H 0.27835 0.79155 0.87652 0.0
H530 H 0.3132 0.83661 0.84199 0.0
H531 H 0.28597 0.86241 0.84796 0.0
H532 H 0.3071 0.80099 0.82095 0.0
H533 H 0.33611 0.78239 0.89853 0.0
H534 H 0.30881 0.7813 0.89674 0.0
H535 H 0.32119 0.80546 0.89283 0.0
C536 C 0.26476 0.82182 0.87415 0.0
C537 C 0.26636 0.84187 0.86578 0.0
C538 C 0.28035 0.80712 0.87071 0.0
C539 C 0.29787 0.81223 0.85898 0.0
C540 C 0.29982 0.8324 0.85118 0.0
H541 H 0.40644 0.74118 0.82507 0.0
H542 H 0.3819 0.76439 0.84233 0.0
C543 C 0.28425 0.84712 0.85461 0.0
C544 C 0.3131 0.79607 0.853 0.0
H545 H 0.34684 0.75982 0.87179 0.0
C546 C 0.31585 0.79206 0.83207 0.0
C547 C 0.32452 0.78449 0.86755 0.0
C548 C 0.32269 0.7887 0.89017 0.0
C549 C 0.32954 0.77663 0.82525 0.0
C550 C 0.34056 0.76466 0.8398 0.0
C551 C 0.33811 0.76885 0.86074 0.0
C552 C 0.35526 0.74834 0.83315 0.0
C553 C 0.33232 0.77343 0.80248 0.0
C554 C 0.34837 0.73107 0.82321 0.0
C555 C 0.36233 0.71779 0.81329 0.0
C556 C 0.38339 0.72159 0.81318 0.0
C557 C 0.39031 0.7379 0.82472 0.0
C558 C 0.37632 0.75118 0.83462 0.0
H559 H 0.32599 0.78658 0.79329 0.0
H560 H 0.34876 0.77121 0.79817 0.0
H561 H 0.32424 0.7594 0.79832 0.0
H562 H 0.33214 0.7285 0.82217 0.0
H563 H 0.35648 0.70528 0.80471 0.0
H564 H 0.44452 0.03648 0.0509 0.0
H565 H 0.47227 0.06085 0.04845 0.0
H566 H 0.42848 0.11137 0.05169 0.0
H567 H 0.40044 0.08704 0.05412 0.0
H568 H 0.4747 0.09269 0.01584 0.0
H569 H 0.47359 0.12378 0.0946 0.0
H570 H 0.463 0.09922 0.08905 0.0
H571 H 0.44943 0.12256 0.08221 0.0
C572 C 0.44073 0.05276 0.0513 0.0
C573 C 0.42024 0.05983 0.05265 0.0
C574 C 0.45663 0.06664 0.04992 0.0
C575 C 0.4524 0.08784 0.05011 0.0
C576 C 0.43203 0.09502 0.05183 0.0
H577 H 0.52366 0.19599 0.0292 0.0
H578 H 0.4986 0.17101 0.04134 0.0
C579 C 0.41604 0.08112 0.05309 0.0
C580 C 0.46926 0.10234 0.04687 0.0
H581 H 0.49607 0.1392 0.06998 0.0
C582 C 0.47948 0.10279 0.02769 0.0
C583 C 0.47527 0.11553 0.06235 0.0
C584 C 0.4649 0.11527 0.08329 0.0
C585 C 0.49538 0.1164 0.02339 0.0
C586 C 0.50164 0.12947 0.03895 0.0
C587 C 0.49139 0.12901 0.05817 0.0
C588 C 0.51808 0.14442 0.03502 0.0
C589 C 0.50483 0.1171 1.00198 0.0
C590 C 0.53774 0.13778 0.0285 0.0
C591 C 0.55206 0.15201 0.02134 0.0
C592 C 0.54703 0.17314 0.02087 0.0
C593 C 0.52799 0.17982 0.02921 0.0
C594 C 0.51361 0.16556 0.03616 0.0
H595 H 0.49487 0.11009 0.99069 0.0
H596 H 0.50782 0.13316 0.99684 0.0
H597 H 0.5196 0.10834 1.00187 0.0
H598 H 0.54167 0.12153 0.02804 0.0
H599 H 0.56668 0.14639 0.01526 0.0
H600 H 0.08332 0.05728 0.41194 0.0
H601 H 0.09351 0.04991 0.44699 0.0
H602 H 0.04859 1.00262 0.4531 0.0
H603 H 0.03855 0.00959 0.41757 0.0
H604 H 0.07214 0.05111 0.48405 0.0
H605 H 0.1013 0.97182 0.46772 0.0
H606 H 0.09492 0.99012 0.44754 0.0
H607 H 0.07501 0.97743 0.46205 0.0
C608 C 0.07552 0.04533 0.4207 0.0
C609 C 0.06019 0.03395 0.41193 0.0
C610 C 0.08131 0.04121 0.4408 0.0
C611 C 0.07196 0.02561 0.4526 0.0
C612 C 0.05621 0.01454 0.44415 0.0
H613 H 0.12278 0.97837 0.56776 0.0
H614 H 0.0968 0.98702 0.54256 0.0
C615 C 0.05041 0.01863 0.42391 0.0
C616 C 0.07957 0.02068 0.47337 0.0
H617 H 0.10686 0.98434 0.50037 0.0
C618 C 0.07947 0.0364 0.48776 0.0
C619 C 0.0891 1.00147 0.47817 0.0
C620 C 0.09029 0.98424 0.46307 0.0
C621 C 0.08938 0.03371 0.50647 0.0
C622 C 0.09973 0.01487 0.51081 0.0
C623 C 0.09886 0.99877 0.49697 0.0
C624 C 0.11343 0.01216 0.5284 0.0
C625 C 0.08912 0.05119 0.52121 0.0
C626 C 0.13116 0.02378 0.52909 0.0
C627 C 0.1461 0.01884 0.5434 0.0
C628 C 0.1436 1.00212 0.55723 0.0
C629 C 0.12521 0.99135 0.55734 0.0
C630 C 0.11033 0.99623 0.54293 0.0
H631 H 0.07584 0.06186 0.51876 0.0
H632 H 0.0886 0.0454 0.53738 0.0
H633 H 0.10327 0.06007 0.51873 0.0
H634 H 0.134 0.03593 0.5178 0.0
H635 H 0.16007 0.02744 0.5429 0.0
H636 H 0.14831 0.70035 0.751 0.0
H637 H 0.14617 0.72728 0.77663 0.0
H638 H 0.18934 0.76299 0.74056 0.0
H639 H 0.19182 0.73616 0.71511 0.0
H640 H 0.19839 0.75957 0.78194 0.0
H641 H 0.11721 0.784 0.77112 0.0
H642 H 0.1219 0.75709 0.77649 0.0
H643 H 0.1314 0.76843 0.75284 0.0
C644 C 0.15732 0.71396 0.74851 0.0
C645 C 0.1702 0.71613 0.73098 0.0
C646 C 0.15598 0.72938 0.76312 0.0
C647 C 0.1674 0.74723 0.76035 0.0
C648 C 0.18034 0.74935 0.74295 0.0
H649 H 0.16669 0.86824 0.80341 0.0
H650 H 0.15906 0.83596 0.78742 0.0
C651 C 0.18172 0.73399 0.7284 0.0
C652 C 0.16643 0.76366 0.77568 0.0
H653 H 0.13532 0.8015 0.79576 0.0
C654 C 0.18456 0.76861 0.78516 0.0
C655 C 0.14836 0.77546 0.77971 0.0
C656 C 0.12861 0.77116 0.76943 0.0
C657 C 0.18534 0.78547 0.79805 0.0
C658 C 0.16732 0.79744 0.80194 0.0
C659 C 0.14902 0.79214 0.79292 0.0
C660 C 0.1679 0.81678 0.81341 0.0
C661 C 0.20571 0.79094 0.80649 0.0
C662 C 0.1743 0.81675 0.83376 0.0
C663 C 0.17885 0.83522 0.84293 0.0
C664 C 0.17689 0.854 0.8319 0.0
C665 C 0.16856 0.85406 0.81227 0.0
C666 C 0.16415 0.8356 0.80309 0.0
H667 H 0.21869 0.78266 0.79871 0.0
H668 H 0.20819 0.80771 0.8048 0.0
H669 H 0.20592 0.78672 0.82307 0.0
H670 H 0.17683 0.80239 0.84215 0.0
H671 H 0.18502 0.83464 0.85817 0.0
H672 H 0.40778 0.99278 0.00965 0.0
H673 H 0.42345 0.98441 0.97638 0.0
H674 H 0.36528 0.96473 0.95563 0.0
H675 H 0.34931 0.97348 0.98877 0.0
H676 H 0.42718 0.94985 0.95316 0.0
H677 H 0.37971 0.01022 0.91409 0.0
H678 H 0.38094 0.00791 0.94165 0.0
H679 H 0.36557 0.99075 0.92785 0.0
C680 C 0.39834 0.98635 0.99816 0.0
C681 C 0.37721 0.98407 1.0018 0.0
C682 C 0.40734 0.9816 0.97911 0.0
C683 C 0.39543 0.97444 0.96335 0.0
C684 C 0.37464 0.97074 0.9674 0.0
H685 H 0.45713 0.93753 0.84801 0.0
H686 H 0.43395 0.93746 0.87813 0.0
C687 C 0.36558 0.97559 0.98643 0.0
C688 C 0.4047 0.972 0.94248 0.0
H689 H 0.40317 0.99145 0.89337 0.0
C690 C 0.42183 0.95878 0.94002 0.0
C691 C 0.39784 0.98391 0.92544 0.0
C692 C 0.38012 0.99914 0.92732 0.0
C693 C 0.43253 0.95742 0.92111 0.0
C694 C 0.42563 0.96928 0.90405 0.0
C695 C 0.40828 0.98222 0.90641 0.0
C696 C 0.43723 0.96973 0.88414 0.0
C697 C 0.45166 0.94399 0.91983 0.0
C698 C 0.44576 0.98815 0.87679 0.0
C699 C 0.45879 0.98832 0.85942 0.0
C700 C 0.46358 0.97002 0.8491 0.0
C701 C 0.45393 0.95185 0.85572 0.0
C702 C 0.4408 0.95174 0.87303 0.0
H703 H 0.45735 0.93961 0.93526 0.0
H704 H 0.4483 0.92966 0.91185 0.0
H705 H 0.46404 0.95191 0.91099 0.0
H706 H 0.44308 1.00226 0.88504 0.0
H707 H 0.46589 1.0026 0.85473 0.0
H708 H 0.35784 0.12811 0.25882 0.0
H709 H 0.36582 0.15571 0.23434 0.0
H710 H 0.35679 0.20013 0.28198 0.0
H711 H 0.34793 0.17252 0.30651 0.0
H712 H 0.33441 0.21026 0.25101 0.0
H713 H 0.41193 0.19239 0.21991 0.0
H714 H 0.396 0.1706 0.21799 0.0
H715 H 0.4018 0.17993 0.24291 0.0
C716 C 0.35809 0.14368 0.26429 0.0
C717 C 0.35206 0.14813 0.28461 0.0
C718 C 0.36282 0.15949 0.25023 0.0
C719 C 0.3621 0.18004 0.25629 0.0
C720 C 0.35747 0.18439 0.27694 0.0
H721 H 0.38538 0.28108 0.16808 0.0
H722 H 0.38881 0.25531 0.19578 0.0
C723 C 0.35246 0.16859 0.29096 0.0
C724 C 0.36328 0.19694 0.2406 0.0
H725 H 0.39024 0.21371 0.19805 0.0
C726 C 0.34681 0.21118 0.23965 0.0
C727 C 0.37952 0.19837 0.22585 0.0
C728 C 0.3984 0.18462 0.22687 0.0
C729 C 0.34574 0.22624 0.22396 0.0
C730 C 0.36121 0.22666 0.20835 0.0
C731 C 0.37814 0.21306 0.20976 0.0
C732 C 0.35994 0.24113 0.19048 0.0
C733 C 0.32802 0.24158 0.22436 0.0
C734 C 0.34294 0.24122 0.17782 0.0
C735 C 0.34083 0.25603 0.16211 0.0
C736 C 0.35588 0.27082 0.15853 0.0
C737 C 0.37348 0.26993 0.17046 0.0
C738 C 0.37547 0.25523 0.18632 0.0
H739 H 0.32139 0.24325 0.24012 0.0
H740 H 0.33278 0.25693 0.21848 0.0
H741 H 0.31579 0.23615 0.21454 0.0
H742 H 0.33106 0.23009 0.18037 0.0
H743 H 0.32721 0.25617 0.15306 0.0
H744 H 0.85249 0.43228 0.75363 0.0
H745 H 0.86474 0.40272 0.77386 0.0
H746 H 0.85933 0.36398 0.72171 0.0
H747 H 0.84671 0.39343 0.70139 0.0
H748 H 0.83671 0.35102 0.75476 0.0
H749 H 0.91541 0.36566 0.77867 0.0
H750 H 0.89809 0.38696 0.78339 0.0
H751 H 0.90373 0.3794 0.75744 0.0
C752 C 0.85449 0.41762 0.74623 0.0
C753 C 0.84834 0.41516 0.72597 0.0
C754 C 0.86164 0.40072 0.75782 0.0
C755 C 0.86302 0.38114 0.74929 0.0
C756 C 0.85841 0.37897 0.72858 0.0
H757 H 0.89026 0.2667 0.81823 0.0
H758 H 0.89193 0.29512 0.79291 0.0
C759 C 0.8512 0.39584 0.71699 0.0
C760 C 0.86591 0.36268 0.76274 0.0
H761 H 0.89662 0.34073 0.79914 0.0
C762 C 0.84998 0.34862 0.76421 0.0
C763 C 0.88322 0.35952 0.77505 0.0
C764 C 0.90117 0.37358 0.77344 0.0
C765 C 0.85052 0.33196 0.7782 0.0
C766 C 0.8673 0.32942 0.79124 0.0
C767 C 0.88366 0.34292 0.78925 0.0
C768 C 0.86761 0.31313 0.80742 0.0
C769 C 0.83297 0.31734 0.77916 0.0
C770 C 0.85367 0.31415 0.82412 0.0
C771 C 0.85266 0.29802 0.83859 0.0
C772 C 0.86558 0.28055 0.83658 0.0
C773 C 0.88001 0.27989 0.82016 0.0
C774 C 0.88105 0.29611 0.80572 0.0
H775 H 0.82359 0.31872 0.76524 0.0
H776 H 0.83867 0.30119 0.78092 0.0
H777 H 0.82291 0.32086 0.79269 0.0
H778 H 0.84328 0.32729 0.82572 0.0
H779 H 0.84145 0.29907 0.85109 0.0
H780 H 0.93711 0.52054 0.12674 0.0
H781 H 0.90859 0.52977 0.10471 0.0
H782 H 0.89945 0.58699 0.13601 0.0
H783 H 0.92813 0.57798 0.15809 0.0
H784 H 0.86698 0.54059 0.11395 0.0
H785 H 0.90921 0.60433 0.07489 0.0
H786 H 0.92177 0.58487 0.09059 0.0
H787 H 0.9068 0.60506 0.10241 0.0
C788 C 0.9289 0.53498 0.12915 0.0
C789 C 0.93503 0.5486 0.14404 0.0
C790 C 0.91261 0.54023 0.11653 0.0
C791 C 0.9022 0.55922 0.1185 0.0
C792 C 0.90757 0.57243 0.13401 0.0
H793 H 0.79302 0.58114 0.04563 0.0
H794 H 0.81664 0.58441 0.07368 0.0
C795 C 0.92386 0.56717 0.1467 0.0
C796 C 0.88625 0.56529 0.10375 0.0
H797 H 0.87649 0.59765 0.06296 0.0
C798 C 0.86888 0.55323 0.10297 0.0
C799 C 0.88898 0.58168 0.08935 0.0
C800 C 0.90774 0.5947 0.08914 0.0
C801 C 0.85435 0.55675 0.08781 0.0
C802 C 0.85716 0.573 0.07324 0.0
C803 C 0.8743 0.58539 0.07431 0.0
C804 C 0.84358 0.57578 0.05559 0.0
C805 C 0.83664 0.54241 0.08688 0.0
C806 C 0.85115 0.57128 0.03583 0.0
C807 C 0.83775 0.56954 0.01971 0.0
C808 C 0.81653 0.5722 0.02317 0.0
C809 C 0.80925 0.57873 0.04251 0.0
C810 C 0.82269 0.58052 0.0586 0.0
H811 H 0.83873 0.52854 0.09695 0.0
H812 H 0.82236 0.55059 0.09196 0.0
H813 H 0.83465 0.53739 0.07093 0.0
H814 H 0.86727 0.56773 0.03317 0.0
H815 H 0.84391 0.56465 0.00498 0.0
H816 H 0.70247 0.74556 0.38158 0.0
H817 H 0.69202 0.72906 0.3504 0.0
H818 H 0.62879 0.73489 0.3705 0.0
H819 H 0.63905 0.75186 0.40145 0.0
H820 H 0.67151 0.69405 0.34513 0.0
H821 H 0.6272 0.76081 0.31349 0.0
H822 H 0.64393 0.76289 0.3348 0.0
H823 H 0.61881 0.75265 0.33877 0.0
C824 C 0.68635 0.74332 0.37938 0.0
C825 C 0.67159 0.75017 0.39391 0.0
C826 C 0.68039 0.7339 0.36155 0.0
C827 C 0.6596 0.73111 0.35793 0.0
C828 C 0.64488 0.73738 0.37271 0.0
H829 H 0.62481 0.64888 0.26134 0.0
H830 H 0.62556 0.66598 0.29428 0.0
C831 C 0.6508 0.74694 0.39046 0.0
C832 C 0.65344 0.72144 0.33878 0.0
H833 H 0.62578 0.7297 0.29557 0.0
C834 C 0.66146 0.70181 0.33432 0.0
C835 C 0.64048 0.7317 0.3246 0.0
C836 C 0.63224 0.75325 0.328 0.0
C837 C 0.65706 0.69221 0.316 0.0
C838 C 0.64381 0.7023 0.30198 0.0
C839 C 0.63567 0.72188 0.30649 0.0
C840 C 0.63969 0.69345 0.28181 0.0
C841 C 0.66732 0.6717 0.31149 0.0
C842 C 0.64596 0.70385 0.26371 0.0
C843 C 0.64524 0.69428 0.24482 0.0
C844 C 0.63833 0.67406 0.24373 0.0
C845 C 0.63044 0.66436 0.26168 0.0
C846 C 0.63102 0.67404 0.28055 0.0
H847 H 0.6806 0.66845 0.32142 0.0
H848 H 0.65619 0.65931 0.31436 0.0
H849 H 0.67271 0.67109 0.29521 0.0
H850 H 0.65252 0.71893 0.26431 0.0
H851 H 0.65132 0.70226 0.23131 0.0
H852 H 0.72816 0.68771 0.19915 0.0
H853 H 0.75403 0.71386 0.20007 0.0
H854 H 0.73768 0.73583 0.13964 0.0
H855 H 0.71114 0.70997 0.13885 0.0
H856 H 0.78733 0.72178 0.17642 0.0
H857 H 0.73183 0.78783 0.17215 0.0
H858 H 0.72382 0.76172 0.17623 0.0
H859 H 0.73178 0.77066 0.15103 0.0
C860 C 0.73009 0.698 0.18597 0.0
C861 C 0.71743 0.69688 0.169 0.0
C862 C 0.74492 0.71295 0.18651 0.0
C863 C 0.74755 0.72705 0.17008 0.0
C864 C 0.73557 0.72544 0.1527 0.0
H865 H 0.85304 0.80654 0.18442 0.0
H866 H 0.82924 0.78485 0.16705 0.0
C867 C 0.72052 0.71056 0.15222 0.0
C868 C 0.76255 0.74359 0.17173 0.0
H869 H 0.76634 0.79553 0.17604 0.0
C870 C 0.78284 0.73794 0.17609 0.0
C871 C 0.75657 0.76465 0.1714 0.0
C872 C 0.7348 0.77167 0.16762 0.0
C873 C 0.79706 0.75261 0.18116 0.0
C874 C 0.791 0.77366 0.18118 0.0
C875 C 0.77097 0.77941 0.17586 0.0
C876 C 0.80436 0.78952 0.18918 0.0
C877 C 0.81801 0.74524 0.18771 0.0
C878 C 0.79781 0.80048 0.20654 0.0
C879 C 0.8112 0.81319 0.21623 0.0
C880 C 0.83148 0.81504 0.20886 0.0
C881 C 0.83759 0.8052 0.19064 0.0
C882 C 0.82406 0.79268 0.18077 0.0
H883 H 0.81863 0.72843 0.19108 0.0
H884 H 0.82938 0.74854 0.17519 0.0
H885 H 0.82261 0.75328 0.20161 0.0
H886 H 0.78263 0.7984 0.21323 0.0
H887 H 0.80595 0.82062 0.23016 0.0
H888 H 0.72071 0.23391 0.67914 0.0
H889 H 0.73364 0.26822 0.67214 0.0
H890 H 0.67596 0.28714 0.64639 0.0
H891 H 0.66262 0.25289 0.6539 0.0
H892 H 0.73885 0.29362 0.63874 0.0
H893 H 0.68048 0.32662 0.69308 0.0
H894 H 0.68477 0.29931 0.6907 0.0
H895 H 0.67035 0.31358 0.67183 0.0
C896 C 0.71083 0.24523 0.67169 0.0
C897 C 0.6905 0.24073 0.66741 0.0
C898 C 0.71827 0.26487 0.66768 0.0
C899 C 0.70559 0.2804 0.65924 0.0
C900 C 0.68582 0.27554 0.65343 0.0
H901 H 0.75872 0.40172 0.63325 0.0
H902 H 0.74066 0.36974 0.62883 0.0
C903 C 0.67829 0.2559 0.65758 0.0
C904 C 0.71278 0.30185 0.65796 0.0
H905 H 0.70392 0.34946 0.67775 0.0
C906 C 0.73112 0.30591 0.64708 0.0
C907 C 0.7028 0.31777 0.66913 0.0
C908 C 0.68361 0.31416 0.682 0.0
C909 C 0.74003 0.32529 0.64746 0.0
C910 C 0.73005 0.3412 0.65865 0.0
C911 C 0.71144 0.33729 0.66908 0.0
C912 C 0.73948 0.36144 0.66117 0.0
C913 C 0.76053 0.32823 0.63672 0.0
C914 C 0.74397 0.36787 0.68089 0.0
C915 C 0.75401 0.38626 0.6835 0.0
C916 C 0.75983 0.39858 0.66641 0.0
C917 C 0.75463 0.39249 0.64672 0.0
C918 C 0.74443 0.37414 0.64414 0.0
H919 H 0.76823 0.31333 0.63295 0.0
H920 H 0.75831 0.33706 0.62215 0.0
H921 H 0.77081 0.337 0.64633 0.0
H922 H 0.7402 0.35836 0.69427 0.0
H923 H 0.75774 0.39049 0.69888 0.0
H924 H 0.40666 0.60195 0.51765 0.0
H925 H 0.41006 0.5707 0.53884 0.0
H926 H 0.47446 0.58116 0.54451 0.0
H927 H 0.47108 0.61286 0.52371 0.0
H928 H 0.43278 0.53489 0.53694 0.0
H929 H 0.45388 0.58007 0.60386 0.0
H930 H 0.44444 0.59199 0.58063 0.0
H931 H 0.47074 0.5834 0.58191 0.0
C932 C 0.42162 0.59753 0.52321 0.0
C933 C 0.43854 0.61009 0.51932 0.0
C934 C 0.42353 0.57962 0.53531 0.0
C935 C 0.4424 0.57387 0.54366 0.0
C936 C 0.45963 0.58562 0.53866 0.0
H937 H 0.47487 0.461 0.60888 0.0
H938 H 0.46719 0.48672 0.58225 0.0
C939 C 0.4577 0.60368 0.52671 0.0
C940 C 0.44366 0.5563 0.55853 0.0
H941 H 0.45552 0.54389 0.60796 0.0
C942 C 0.43773 0.53682 0.55249 0.0
C943 C 0.44964 0.55897 0.57895 0.0
C944 C 0.45484 0.57976 0.58683 0.0
C945 C 0.43799 0.51984 0.56623 0.0
C946 C 0.44473 0.52237 0.58642 0.0
C947 C 0.45038 0.54193 0.59248 0.0
C948 C 0.44669 0.50502 0.60149 0.0
C949 C 0.43069 0.49949 0.5591 0.0
C950 C 0.43757 0.50655 0.62118 0.0
C951 C 0.44218 0.492 0.63658 0.0
C952 C 0.45599 0.4756 0.63257 0.0
C953 C 0.46407 0.47337 0.61249 0.0
C954 C 0.45961 0.48804 0.59716 0.0
H955 H 0.4201 0.50159 0.54616 0.0
H956 H 0.44405 0.4901 0.55361 0.0
H957 H 0.42278 0.49084 0.57175 0.0
H958 H 0.42753 0.51952 0.62487 0.0
H959 H 0.43566 0.49415 0.65186 0.0
H960 H 0.79473 0.17096 0.88339 0.0
H961 H 0.76958 0.15785 0.86035 0.0
H962 H 0.80036 0.18777 0.80889 0.0
H963 H 0.82572 0.20063 0.83169 0.0
H964 H 0.74455 0.18408 0.8395 0.0
H965 H 0.78582 0.13382 0.78427 0.0
H966 H 0.79656 0.14066 0.80831 0.0
H967 H 0.79797 0.15802 0.78641 0.0
C968 C 0.79652 0.17425 0.86708 0.0
C969 C 0.81214 0.18702 0.85941 0.0
C970 C 0.7821 0.16675 0.85394 0.0
C971 C 0.78313 0.17172 0.83288 0.0
C972 C 0.79946 0.18337 0.82501 0.0
H973 H 0.70751 0.18911 0.73092 0.0
H974 H 0.73469 0.18428 0.75553 0.0
C975 C 0.8139 0.19084 0.83812 0.0
C976 C 0.76569 0.16749 0.81969 0.0
H977 H 0.75368 0.14887 0.77318 0.0
C978 C 0.74642 0.17598 0.82521 0.0
C979 C 0.76819 0.15701 0.80102 0.0
C980 C 0.78822 0.14668 0.79475 0.0
C981 C 0.72989 0.17534 0.81203 0.0
C982 C 0.73262 0.16561 0.79297 0.0
C983 C 0.75165 0.15635 0.78781 0.0
C984 C 0.71649 0.1666 0.77746 0.0
C985 C 0.71001 0.18613 0.81813 0.0
C986 C 0.69734 0.15786 0.78143 0.0
C987 C 0.68164 0.16071 0.76741 0.0
C988 C 0.68491 0.17225 0.74915 0.0
C989 C 0.7044 0.18025 0.74489 0.0
C990 C 0.72001 0.17743 0.7589 0.0
H991 H 0.7117 0.19621 0.83144 0.0
H992 H 0.70407 0.19561 0.80512 0.0
H993 H 0.69845 0.1745 0.82244 0.0
H994 H 0.69442 0.14915 0.79553 0.0
H995 H 0.66688 0.15419 0.77107 0.0
H996 H 0.00969 0.53989 0.10997 0.0
H997 H 0.01593 0.52006 0.07887 0.0
H998 H 0.04558 0.47192 0.11457 0.0
H999 H 0.03914 0.49141 0.14571 0.0
H1000 H 0.05133 0.50448 0.05985 0.0
H1001 H 1.00112 0.44131 0.08629 0.0
H1002 H 0.00122 0.46571 0.09883 0.0
H1003 H 0.02065 0.44638 0.10412 0.0
C1004 C 0.01773 0.52518 0.11117 0.0
C1005 C 0.02376 0.51715 0.13036 0.0
C1006 C 0.02122 0.51385 0.09339 0.0
C1007 C 0.03075 0.4943 0.0945 0.0
C1008 C 0.03769 0.48672 0.11346 0.0
H1009 H 0.07463 0.40063 0.01352 0.0
H1010 H 0.06522 0.4231 0.04204 0.0
C1011 C 0.03414 0.49797 0.13122 0.0
C1012 C 0.03333 0.48167 0.07593 0.0
H1013 H 0.02292 0.43469 0.05706 0.0
C1014 C 0.04494 0.48932 0.05913 0.0
C1015 C 0.02479 0.46195 0.07495 0.0
C1016 C 0.01107 0.45342 0.09192 0.0
C1017 C 0.04898 0.47741 0.04173 0.0
C1018 C 0.04107 0.45744 0.04112 0.0
C1019 C 0.02902 0.44999 0.05766 0.0
C1020 C 0.04602 0.44361 0.02391 0.0
C1021 C 0.06224 0.48593 0.0244 0.0
C1022 C 0.03818 0.44762 0.00438 0.0
C1023 C 0.04334 0.43458 0.98817 0.0
C1024 C 0.05621 0.41725 0.99139 0.0
C1025 C 0.06407 0.41338 0.01092 0.0
C1026 C 0.05888 0.42634 0.0271 0.0
H1027 H 0.06956 0.50042 0.0285 0.0
H1028 H 0.07437 0.47451 0.01995 0.0
H1029 H 0.05274 0.48912 0.01081 0.0
H1030 H 0.02809 0.4608 1.00168 0.0
H1031 H 0.03717 0.43793 0.97319 0.0
H1032 H 0.75474 0.84622 0.446 0.0
H1033 H 0.78031 0.86036 0.42193 0.0
H1034 H 0.74309 0.84495 0.37127 0.0
H1035 H 0.71732 0.83129 0.39514 0.0
H1036 H 0.80037 0.83527 0.39663 0.0
H1037 H 0.76588 0.89821 0.35006 0.0
H1038 H 0.75445 0.88943 0.37414 0.0
H1039 H 0.74984 0.87629 0.35078 0.0
C1040 C 0.75162 0.84654 0.42977 0.0
C1041 C 0.73412 0.83732 0.42248 0.0
C1042 C 0.7663 0.85461 0.41602 0.0
C1043 C 0.76366 0.85373 0.39477 0.0
C1044 C 0.74536 0.84618 0.38757 0.0
H1045 H 0.84573 0.81836 0.29916 0.0
H1046 H 0.82211 0.8221 0.32859 0.0
C1047 C 0.73065 0.83821 0.40129 0.0
C1048 C 0.78118 0.85713 0.38023 0.0
H1049 H 0.79394 0.87883 0.33357 0.0
C1050 C 0.79911 0.84517 0.38308 0.0
C1051 C 0.7797 0.87015 0.36262 0.0
C1052 C 0.76149 0.8844 0.35935 0.0
C1053 C 0.815 0.8449 0.36821 0.0
C1054 C 0.81275 0.85658 0.34983 0.0
C1055 C 0.79547 0.86959 0.34754 0.0
C1056 C 0.82752 0.85444 0.33232 0.0
C1057 C 0.83387 0.83173 0.37213 0.0
C1058 C 0.83812 0.87147 0.32444 0.0
C1059 C 0.85162 0.8694 0.30755 0.0
C1060 C 0.8546 0.85028 0.29815 0.0
C1061 C 0.84391 0.83326 0.30611 0.0
C1062 C 0.83047 0.83535 0.32299 0.0
H1063 H 0.83605 0.82903 0.38883 0.0
H1064 H 0.83219 0.81656 0.36507 0.0
H1065 H 0.84779 0.83892 0.36533 0.0
H1066 H 0.83594 0.88636 0.33136 0.0
H1067 H 0.85954 0.88284 0.30174 0.0
H1068 H 0.55816 0.45291 0.63021 0.0
H1069 H 0.57944 0.45783 0.59911 0.0
H1070 H 0.55638 0.40236 0.57458 0.0
H1071 H 0.53522 0.39713 0.60569 0.0
H1072 H 0.59953 0.40891 0.566 0.0
H1073 H 0.54949 0.47624 0.54611 0.0
H1074 H 0.5605 0.47725 0.57097 0.0
H1075 H 0.54263 0.45761 0.56591 0.0
C1076 C 0.55789 0.44154 0.61839 0.0
C1077 C 0.54476 0.42479 0.6203 0.0
C1078 C 0.57 0.44441 0.60061 0.0
C1079 C 0.56914 0.43065 0.58445 0.0
C1080 C 0.55715 0.41319 0.58686 0.0
H1081 H 0.60244 0.47347 0.46136 0.0
H1082 H 0.58531 0.45396 0.48904 0.0
C1083 C 0.54504 0.41028 0.60465 0.0
C1084 C 0.5793 0.43549 0.56442 0.0
H1085 H 0.57944 0.47126 0.52539 0.0
C1086 C 0.59512 0.42246 0.55701 0.0
C1087 C 0.57311 0.45287 0.55253 0.0
C1088 C 0.55538 0.46672 0.55913 0.0
C1089 C 0.6055 0.42688 0.53829 0.0
C1090 C 0.6 0.44489 0.52695 0.0
C1091 C 0.58368 0.45746 0.53409 0.0
C1092 C 0.61165 0.45204 0.50839 0.0
C1093 C 0.62218 0.41223 0.53086 0.0
C1094 C 0.63238 0.45667 0.5097 0.0
C1095 C 0.64226 0.46768 0.49384 0.0
C1096 C 0.63146 0.47457 0.47652 0.0
C1097 C 0.61115 0.46853 0.47455 0.0
C1098 C 0.60133 0.45739 0.49037 0.0
H1099 H 0.61984 0.39642 0.53716 0.0
H1100 H 0.62292 0.41173 0.51385 0.0
H1101 H 0.63712 0.41739 0.53618 0.0
H1102 H 0.64057 0.45307 0.52358 0.0
H1103 H 0.65793 0.47204 0.49585 0.0
H1104 H 0.97901 0.38738 0.97812 0.0
H1105 H 0.94704 0.4069 0.98169 0.0
H1106 H 0.96728 0.43233 0.03785 0.0
H1107 H 0.9999 0.4129 0.03416 0.0
H1108 H 0.91711 0.4065 0.01266 0.0
H1109 H 0.95211 0.48338 1.00281 0.0
H1110 H 0.96622 0.45992 0.99721 0.0
H1111 H 0.96122 0.46695 0.02334 0.0
C1112 C 0.97677 0.39709 0.99128 0.0
C1113 C 0.99207 0.39865 0.00582 0.0
C1114 C 0.95838 0.40817 0.99335 0.0
C1115 C 0.95479 0.42116 0.00995 0.0
C1116 C 0.96984 0.42256 0.02478 0.0
H1117 H 0.83121 0.48075 0.01359 0.0
H1118 H 0.86114 0.46059 0.02513 0.0
C1119 C 0.9884 0.4114 0.02271 0.0
C1120 C 0.93542 0.43352 0.01086 0.0
H1121 H 0.91635 0.48229 0.0031 0.0
C1122 C 0.91686 0.42312 0.01094 0.0
C1123 C 0.93521 0.45517 0.0085 0.0
C1124 C 0.9547 0.46711 0.00782 0.0
C1125 C 0.8982 0.43366 0.00759 0.0
C1126 C 0.8981 0.45522 0.00443 0.0
C1127 C 0.91651 0.46574 0.0055 0.0
C1128 C 0.87959 0.46692 0.99772 0.0
C1129 C 0.87899 0.42149 0.00618 0.0
C1130 C 0.88005 0.4772 0.97857 0.0
C1131 C 0.86311 0.48876 0.97202 0.0
C1132 C 0.84528 0.49029 0.98448 0.0
C1133 C 0.84465 0.47968 0.00354 0.0
C1134 C 0.86173 0.46816 0.01016 0.0
H1135 H 0.88233 0.40472 0.00526 0.0
H1136 H 0.8691 0.42414 0.02001 0.0
H1137 H 0.87026 0.42655 0.99253 0.0
H1138 H 0.89363 0.47636 0.96867 0.0
H1139 H 0.86412 0.49672 0.95726 0.0
H1140 H 0.60118 0.56265 0.41291 0.0
H1141 H 0.56819 0.58077 0.41718 0.0
H1142 H 0.57634 0.58244 0.48246 0.0
H1143 H 0.60941 0.56425 0.47839 0.0
H1144 H 0.53638 0.5691 0.46963 0.0
H1145 H 0.56058 0.64252 0.43219 0.0
H1146 H 0.56644 0.61984 0.41775 0.0
H1147 H 0.57865 0.62336 0.44168 0.0
C1148 C 0.59603 0.56693 0.42818 0.0
C1149 C 0.60798 0.5621 0.4453 0.0
C1150 C 0.57719 0.57731 0.43058 0.0
C1151 C 0.56995 0.58306 0.45011 0.0
C1152 C 0.58173 0.57815 0.46726 0.0
H1153 H 0.46962 0.66876 0.47584 0.0
H1154 H 0.50153 0.64867 0.47703 0.0
C1155 C 0.60064 0.56785 0.46488 0.0
C1156 C 0.55007 0.5942 0.45257 0.0
H1157 H 0.52514 0.63917 0.43972 0.0
C1158 C 0.5339 0.58445 0.46318 0.0
C1159 C 0.54701 0.61429 0.44431 0.0
C1160 C 0.5641 0.62575 0.43348 0.0
C1161 C 0.51453 0.59414 0.46531 0.0
C1162 C 0.51136 0.61396 0.45651 0.0
C1163 C 0.52765 0.62388 0.44631 0.0
C1164 C 0.49124 0.62481 0.4576 0.0
C1165 C 0.49763 0.58326 0.47704 0.0
C1166 C 0.47484 0.61799 0.44641 0.0
C1167 C 0.45653 0.62955 0.44576 0.0
C1168 C 0.4543 0.64802 0.45643 0.0
C1169 C 0.47063 0.65448 0.46793 0.0
C1170 C 0.48895 0.64304 0.46849 0.0
H1171 H 0.50351 0.56981 0.48611 0.0
H1172 H 0.48935 0.59397 0.48758 0.0
H1173 H 0.48645 0.57775 0.46608 0.0
H1174 H 0.47643 0.60409 0.43765 0.0
H1175 H 0.44424 0.62422 0.43664 0.0
H1176 H 0.06878 0.10095 0.30286 0.0
H1177 H 0.072 0.1383 0.30238 0.0
H1178 H 0.03091 0.14235 0.35508 0.0
H1179 H 0.02773 0.10499 0.35587 0.0
H1180 H 0.04178 0.17095 0.29999 0.0
H1181 H 0.0835 0.1698 0.37313 0.0
H1182 H 0.07993 0.14691 0.35873 0.0
H1183 H 0.05925 0.15741 0.37422 0.0
C1184 C 0.06032 0.10977 0.31429 0.0
C1185 C 0.04815 0.09997 0.32953 0.0
C1186 C 0.06215 0.13111 0.31395 0.0
C1187 C 0.05193 0.143 0.32887 0.0
C1188 C 0.03918 0.13338 0.34364 0.0
H1189 H 0.06293 0.27194 0.35818 0.0
H1190 H 0.05096 0.23676 0.3564 0.0
C1191 C 0.03733 0.11204 0.344 0.0
C1192 C 0.05526 0.16538 0.32939 0.0
H1193 H 0.07606 0.20226 0.35801 0.0
C1194 C 0.04921 0.17785 0.31268 0.0
C1195 C 0.06496 0.17426 0.34599 0.0
C1196 C 0.07247 0.16144 0.36398 0.0
C1197 C 0.05258 0.19908 0.31216 0.0
C1198 C 0.06255 0.20791 0.32862 0.0
C1199 C 0.06833 0.19545 0.34545 0.0
C1200 C 0.06806 0.22984 0.32842 0.0
C1201 C 0.04527 0.21188 0.29408 0.0
C1202 C 0.08153 0.23765 0.3132 0.0
C1203 C 0.08837 0.25775 0.31414 0.0
C1204 C 0.082 0.27036 0.33045 0.0
C1205 C 0.06812 0.26264 0.34542 0.0
C1206 C 0.06126 0.24255 0.34443 0.0
H1207 H 0.03287 0.20425 0.28609 0.0
H1208 H 0.0396 0.22728 0.29893 0.0
H1209 H 0.0582 0.21402 0.28291 0.0
H1210 H 0.08734 0.22797 0.30096 0.0
H1211 H 0.09915 0.26316 0.30243 0.0
H1212 H 0.12377 0.69914 0.65018 0.0
H1213 H 0.09618 0.71151 0.62827 0.0
H1214 H 0.12734 0.68492 0.57575 0.0
H1215 H 0.15495 0.67226 0.59758 0.0
H1216 H 0.10152 0.73891 0.59531 0.0
H1217 H 0.06812 0.66634 0.57036 0.0
H1218 H 0.08441 0.66739 0.59218 0.0
H1219 H 0.09537 0.66781 0.5666 0.0
C1220 C 0.12465 0.69566 0.63402 0.0
C1221 C 0.14161 0.68476 0.62563 0.0
C1222 C 0.10886 0.70275 0.62153 0.0
C1223 C 0.10963 0.69898 0.60043 0.0
C1224 C 0.12627 0.68768 0.59205 0.0
H1225 H 0.04311 0.77377 0.51126 0.0
H1226 H 0.06936 0.7526 0.52816 0.0
C1227 C 0.1421 0.68057 0.60455 0.0
C1228 C 0.09383 0.7083 0.58703 0.0
H1229 H 0.05632 0.69725 0.55392 0.0
C1230 C 0.09164 0.7298 0.58626 0.0
C1231 C 0.0809 0.69635 0.57536 0.0
C1232 C 0.08212 0.67318 0.57623 0.0
C1233 C 0.07691 0.73972 0.57408 0.0
C1234 C 0.06424 0.72781 0.56208 0.0
C1235 C 0.06628 0.70629 0.56294 0.0
C1236 C 0.04818 0.73763 0.54939 0.0
C1237 C 0.07472 0.76286 0.57448 0.0
C1238 C 0.0275 0.73534 0.55501 0.0
C1239 C 0.01243 0.74736 0.54533 0.0
C1240 C 0.01782 0.76185 0.52988 0.0
C1241 C 0.03843 0.76289 0.52321 0.0
C1242 C 0.05347 0.75087 0.5329 0.0
H1243 H 0.08262 0.76931 0.58764 0.0
H1244 H 0.08156 0.76956 0.56013 0.0
H1245 H 0.05835 0.76779 0.57538 0.0
H1246 H 0.02313 0.72511 0.56765 0.0
H1247 H 0.9967 0.74607 0.55076 0.0
H1248 H 0.53441 0.91379 0.82761 0.0
H1249 H 0.531 0.87654 0.82524 0.0
H1250 H 0.51986 0.88374 0.76057 0.0
H1251 H 0.52374 0.92068 0.76267 0.0
H1252 H 0.49639 0.85872 0.81507 0.0
H1253 H 0.55779 0.83427 0.76038 0.0
H1254 H 0.55765 0.85889 0.77255 0.0
H1255 H 0.54286 0.85536 0.75009 0.0
C1256 C 0.53175 0.90737 0.81279 0.0
C1257 C 0.52927 0.92022 0.79535 0.0
C1258 C 0.52978 0.88608 0.81146 0.0
C1259 C 0.52542 0.87729 0.79267 0.0
C1260 C 0.52374 0.89005 0.77512 0.0
H1261 H 0.46786 0.77049 0.7505 0.0
H1262 H 0.48503 0.80309 0.75456 0.0
C1263 C 0.52577 0.91125 0.77641 0.0
C1264 C 0.52014 0.8553 0.79175 0.0
H1265 H 0.52905 0.81172 0.76437 0.0
C1266 C 0.5038 0.84833 0.80427 0.0
C1267 C 0.52975 0.84176 0.77758 0.0
C1268 C 0.54812 0.84791 0.76455 0.0
C1269 C 0.49623 0.82853 0.80237 0.0
C1270 C 0.50534 0.81531 0.78766 0.0
C1271 C 0.52204 0.82199 0.77554 0.0
C1272 C 0.49707 0.79478 0.78425 0.0
C1273 C 0.478 0.82216 0.81551 0.0
C1274 C 0.49867 0.77919 0.79936 0.0
C1275 C 0.48892 0.76058 0.7971 0.0
C1276 C 0.47737 0.75724 0.77967 0.0
C1277 C 0.47656 0.77259 0.76413 0.0
C1278 C 0.48639 0.7912 0.7664 0.0
H1279 H 0.47074 0.8353 0.82376 0.0
H1280 H 0.46635 0.81516 0.80599 0.0
H1281 H 0.48298 0.81042 0.82708 0.0
H1282 H 0.50701 0.78165 0.81317 0.0
H1283 H 0.48996 0.74905 0.80931 0.0
H1284 H 0.35939 0.32934 0.04258 0.0
H1285 H 0.39137 0.32483 0.02264 0.0
H1286 H 0.42551 0.32719 0.07805 0.0
H1287 H 0.39367 0.33196 0.09811 0.0
H1288 H 0.44409 0.34797 0.04276 0.0
H1289 H 0.42124 0.26822 0.02694 0.0
H1290 H 0.40353 0.2884 0.01951 0.0
H1291 H 0.4083 0.28359 0.0462 0.0
C1292 C 0.37371 0.32925 0.05051 0.0
C1293 C 0.37395 0.33072 0.07199 0.0
C1294 C 0.39196 0.32661 0.03908 0.0
C1295 C 0.41074 0.3253 0.04893 0.0
C1296 C 0.41114 0.32808 0.07017 0.0
H1297 H 0.53442 0.28568 0.03165 0.0
H1298 H 0.5028 0.30421 0.04086 0.0
C1299 C 0.39291 0.33077 0.08162 0.0
C1300 C 0.42978 0.31923 0.03754 0.0
H1301 H 0.45335 0.27832 0.01419 0.0
C1302 C 0.44609 0.33282 0.03631 0.0
C1303 C 0.43231 0.29947 0.02912 0.0
C1304 C 0.41552 0.28396 0.03058 0.0
C1305 C 0.46502 0.32705 0.02715 0.0
C1306 C 0.46777 0.30701 0.0194 0.0
C1307 C 0.45121 0.29371 0.02003 0.0
C1308 C 0.48803 0.29869 0.01231 0.0
C1309 C 0.48189 0.34243 0.02592 0.0
C1310 C 0.49035 0.2894 0.99315 0.0
C1311 C 0.5084 0.27853 0.9879 0.0
C1312 C 0.52441 0.27664 1.00181 0.0
C1313 C 0.52242 0.28683 0.02055 0.0
C1314 C 0.50437 0.29762 0.0258 0.0
H1315 H 0.47558 0.35844 0.02565 0.0
H1316 H 0.49138 0.34048 0.03969 0.0
H1317 H 0.4919 0.34022 0.01207 0.0
H1318 H 0.47789 0.28993 0.98255 0.0
H1319 H 0.50944 0.27089 0.97333 0.0
H1320 H 0.26712 0.0845 0.25721 0.0
H1321 H 0.27516 0.06497 0.22628 0.0
H1322 H 0.3349 0.04922 0.24917 0.0
H1323 H 0.32678 0.06802 0.28026 0.0
H1324 H 0.30403 0.0745 0.19902 0.0
H1325 H 0.32036 0.99513 0.22686 0.0
H1326 H 0.30768 0.01409 0.24285 0.0
H1327 H 0.33518 0.01316 0.24002 0.0
C1328 C 0.28178 0.07646 0.25586 0.0
C1329 C 0.29631 0.07786 0.27119 0.0
C1330 C 0.28636 0.06531 0.23817 0.0
C1331 C 0.30555 0.05537 0.23547 0.0
C1332 C 0.31979 0.05621 0.25109 0.0
H1333 H 0.3839 0.02468 0.13391 0.0
H1334 H 0.3678 0.0302 0.16774 0.0
C1335 C 0.31516 0.06717 0.26883 0.0
C1336 C 0.31166 0.04634 0.21545 0.0
H1337 H 0.335 0.00441 0.19344 0.0
C1338 C 0.3104 0.05902 0.19777 0.0
C1339 C 0.32007 0.02615 0.21378 0.0
C1340 C 0.3207 0.0113 0.23189 0.0
C1341 C 0.3181 0.05242 0.1787 0.0
C1342 C 0.32726 0.0326 0.17724 0.0
C1343 C 0.32804 0.01964 0.1947 0.0
C1344 C 0.33703 0.02576 0.15779 0.0
C1345 C 0.31714 0.06694 0.16033 0.0
C1346 C 0.32505 0.02076 0.14125 0.0
C1347 C 0.33417 0.01754 0.12191 0.0
C1348 C 0.35544 0.01942 0.1188 0.0
C1349 C 0.36749 0.02322 0.13575 0.0
C1350 C 0.35834 0.02633 0.1551 0.0
H1351 H 0.31148 0.08256 0.1645 0.0
H1352 H 0.33251 0.06819 0.15279 0.0
H1353 H 0.30672 0.06079 0.14897 0.0
H1354 H 0.30856 0.02022 0.14311 0.0
H1355 H 0.32443 0.01457 0.10922 0.0
H1356 H 0.24596 0.04398 0.53568 0.0
H1357 H 0.26489 0.05442 0.5045 0.0
H1358 H 0.27142 0.99106 0.48711 0.0
H1359 H 0.25213 0.98045 0.51816 0.0
H1360 H 0.30403 0.04409 0.48829 0.0
H1361 H 0.24236 0.01863 0.43849 0.0
H1362 H 0.23878 0.02087 0.46587 0.0
H1363 H 0.25269 0.99916 0.45551 0.0
C1364 C 0.25154 0.03221 0.52533 0.0
C1365 C 0.2473 0.01139 0.52929 0.0
C1366 C 0.26241 0.03822 0.50753 0.0
C1367 C 0.26925 0.02356 0.49333 0.0
C1368 C 0.26592 1.00266 0.49769 0.0
H1369 H 0.31611 0.04334 0.36797 0.0
H1370 H 0.30849 0.0274 0.40156 0.0
C1371 C 0.25498 0.99662 0.51548 0.0
C1372 C 0.27888 0.03038 0.47355 0.0
H1373 H 0.27132 0.03278 0.42197 0.0
C1374 C 0.29697 0.04152 0.47376 0.0
C1375 C 0.2696 0.02703 0.45463 0.0
C1376 C 0.2497 0.01593 0.4535 0.0
C1377 C 0.30597 0.04951 0.45553 0.0
C1378 C 0.29645 0.04652 0.43669 0.0
C1379 C 0.27864 0.03497 0.43644 0.0
C1380 C 0.30386 0.05618 0.41712 0.0
C1381 C 0.32559 0.06106 0.4566 0.0
C1382 C 0.30406 0.07766 0.41478 0.0
C1383 C 0.30841 0.08685 0.39559 0.0
C1384 C 0.31247 0.07469 0.37834 0.0
C1385 C 0.31303 0.05317 0.38091 0.0
C1386 C 0.30867 0.04401 0.4001 0.0
H1387 H 0.33399 0.05679 0.47071 0.0
H1388 H 0.33576 0.05809 0.44302 0.0
H1389 H 0.32194 0.07779 0.45692 0.0
H1390 H 0.29999 0.08736 0.42759 0.0
H1391 H 0.3078 0.10346 0.39415 0.0
H1392 H 0.20623 0.93514 0.80269 0.0
H1393 H 0.20456 0.95264 0.76919 0.0
H1394 H 0.26904 0.94048 0.75857 0.0
H1395 H 0.27089 0.92276 0.79206 0.0
H1396 H 0.22712 0.9868 0.75167 0.0
H1397 H 0.24093 0.91396 0.7099 0.0
H1398 H 0.23387 0.9143 0.73685 0.0
H1399 H 0.25953 0.91995 0.72846 0.0
C1400 C 0.22011 0.93628 0.79332 0.0
C1401 C 0.23867 0.92738 0.79997 0.0
C1402 C 0.21912 0.94635 0.77421 0.0
C1403 C 0.23661 0.94762 0.76136 0.0
C1404 C 0.25532 0.9394 0.7682 0.0
H1405 H 0.24293 0.98247 0.63152 0.0
H1406 H 0.25294 0.97477 0.66675 0.0
C1407 C 0.25634 0.92933 0.78735 0.0
C1408 C 0.23492 0.9567 0.74044 0.0
H1409 H 0.23617 0.94411 0.68996 0.0
C1410 C 0.22923 0.97755 0.73813 0.0
C1411 C 0.23773 0.94455 0.72286 0.0
C1412 C 0.2432 0.92191 0.72451 0.0
C1413 C 0.2261 0.98656 0.71865 0.0
C1414 C 0.22834 0.97425 0.70111 0.0
C1415 C 0.23454 0.95353 0.70342 0.0
C1416 C 0.22313 0.98201 0.6803 0.0
C1417 C 0.22047 0.00914 0.71703 0.0
C1418 C 0.20314 0.98901 0.67627 0.0
C1419 C 0.19738 0.9935 0.65615 0.0
C1420 C 0.21145 0.99082 0.63967 0.0
C1421 C 0.2317 0.98464 0.64385 0.0
C1422 C 0.23746 0.98023 0.66398 0.0
H1423 H 0.22574 0.01753 0.73045 0.0
H1424 H 0.22713 0.01629 0.7028 0.0
H1425 H 0.20358 0.01101 0.71665 0.0
H1426 H 0.1917 0.99006 0.68856 0.0
H1427 H 0.18165 0.99815 0.65347 0.0
H1428 H 0.23626 0.89866 0.94086 0.0
H1429 H 0.24621 0.92361 0.96587 0.0
H1430 H 0.22899 0.97329 0.92441 0.0
H1431 H 0.21875 0.9485 0.8994 0.0
H1432 H 0.27724 0.95073 0.95673 0.0
H1433 H 0.20584 0.99303 0.97996 0.0
H1434 H 0.2058 0.96831 0.96796 0.0
H1435 H 0.21016 0.99123 0.95272 0.0
C1436 C 0.23415 0.91489 0.93722 0.0
C1437 C 0.22687 0.92158 0.91806 0.0
C1438 C 0.23984 0.92912 0.95154 0.0
C1439 C 0.23823 0.95029 0.94704 0.0
C1440 C 0.23003 0.95704 0.92835 0.0
H1441 H 0.31826 0.0372 1.00015 0.0
H1442 H 0.2962 0.0208 0.97613 0.0
C1443 C 0.22431 0.94282 0.91401 0.0
C1444 C 0.24742 0.96507 0.96075 0.0
H1445 H 0.23719 0.0071 0.99005 0.0
C1446 C 0.26847 0.96302 0.96405 0.0
C1447 C 0.23591 0.98106 0.97027 0.0
C1448 C 0.21314 0.98351 0.96774 0.0
C1449 C 0.27838 0.97653 0.9766 0.0
C1450 C 0.26699 0.9928 0.9858 0.0
C1451 C 0.24589 0.9948 0.98268 0.0
C1452 C 0.27679 0.00691 0.99973 0.0
C1453 C 0.30093 0.973 0.98024 0.0
C1454 C 0.27221 0.0057 0.02084 0.0
C1455 C 0.28469 0.01517 0.03463 0.0
C1456 C 0.30199 0.02589 0.02747 0.0
C1457 C 0.30521 0.02886 0.00619 0.0
C1458 C 0.29267 0.01944 0.99243 0.0
H1459 H 0.30635 0.95743 0.97562 0.0
H1460 H 0.30981 0.98446 0.97108 0.0
H1461 H 0.30431 0.97489 0.99666 0.0
H1462 H 0.25991 0.9962 0.02674 0.0
H1463 H 0.28165 0.01275 0.05091 0.0
H1464 H 0.10987 0.31159 0.03187 0.0
H1465 H 0.14402 0.30843 0.04603 0.0
H1466 H 0.14246 0.3733 0.05809 0.0
H1467 H 0.10816 0.37655 0.0443 0.0
H1468 H 0.17818 0.32773 0.03104 0.0
H1469 H 0.16249 0.34882 0.1119 0.0
H1470 H 0.14246 0.34228 0.09493 0.0
H1471 H 0.15292 0.36759 0.09374 0.0
C1472 C 0.11664 0.32514 0.03783 0.0
C1473 C 0.10627 0.34432 0.03697 0.0
C1474 C 0.13619 0.3233 0.04588 0.0
C1475 C 0.14572 0.34058 0.0533 0.0
C1476 C 0.13524 0.35967 0.05285 0.0
H1477 H 0.26553 0.3695 0.09381 0.0
H1478 H 0.2306 0.36957 0.08161 0.0
C1479 C 0.11565 0.36152 0.04487 0.0
C1480 C 0.1671 0.33888 0.06024 0.0
H1481 H 0.1975 0.34802 0.10054 0.0
C1482 C 0.1824 0.33198 0.0463 0.0
C1483 C 0.17255 0.34445 0.08015 0.0
C1484 C 0.15672 0.35101 0.09612 0.0
C1485 C 0.20307 0.33103 0.05154 0.0
C1486 C 0.20854 0.33693 0.07132 0.0
C1487 C 0.19324 0.34359 0.08534 0.0
C1488 C 0.23009 0.33671 0.07769 0.0
C1489 C 0.21896 0.32432 0.0357 0.0
C1490 C 0.24144 0.31818 0.07941 0.0
C1491 C 0.26148 0.31806 0.08637 0.0
C1492 C 0.27046 0.33648 0.0918 0.0
C1493 C 0.25912 0.35503 0.08973 0.0
C1494 C 0.23912 0.35512 0.08282 0.0
H1495 H 0.2128 0.32464 0.02 0.0
H1496 H 0.23247 0.3343 0.03577 0.0
H1497 H 0.2242 0.30834 0.03941 0.0
H1498 H 0.23464 0.30376 0.0758 0.0
H1499 H 0.26976 0.3035 0.08789 0.0
H1500 H 0.80231 0.21504 0.95792 0.0
H1501 H 0.76774 0.21691 0.97335 0.0
H1502 H 0.75105 0.26477 0.92965 0.0
H1503 H 0.78537 0.26284 0.91395 0.0
H1504 H 0.74294 0.24971 0.99027 0.0
H1505 H 0.71074 0.21869 0.91984 0.0
H1506 H 0.73779 0.21783 0.92458 0.0
H1507 H 0.72562 0.24126 0.9155 0.0
C1508 C 0.79136 0.22614 0.95174 0.0
C1509 C 0.79651 0.2386 0.93452 0.0
C1510 C 0.77163 0.2272 0.9606 0.0
C1511 C 0.75678 0.24071 0.95238 0.0
C1512 C 0.76221 0.25396 0.93595 0.0
H1513 H 0.62596 0.25677 0.9693 0.0
H1514 H 0.66217 0.26155 0.96091 0.0
C1515 C 0.78186 0.25287 0.92704 0.0
C1516 C 0.7353 0.24013 0.96014 0.0
H1517 H 0.68706 0.22978 0.94553 0.0
C1518 C 0.73069 0.24533 0.98054 0.0
C1519 C 0.71942 0.23427 0.94741 0.0
C1520 C 0.72359 0.22751 0.92567 0.0
C1521 C 0.71046 0.24526 0.98843 0.0
C1522 C 0.69458 0.23959 0.97561 0.0
C1523 C 0.69926 0.23429 0.95526 0.0
C1524 C 0.67296 0.23861 0.98288 0.0
C1525 C 0.70617 0.25159 0.01025 0.0
C1526 C 0.66704 0.22435 0.99827 0.0
C1527 C 0.64631 0.22156 0.00313 0.0
C1528 C 0.63116 0.23289 0.99255 0.0
C1529 C 0.63721 0.24774 0.97771 0.0
C1530 C 0.65791 0.25051 0.97289 0.0
H1531 H 0.71897 0.26032 0.0163 0.0
H1532 H 0.69191 0.26117 0.01143 0.0
H1533 H 0.70412 0.23763 0.02013 0.0
H1534 H 0.67839 0.21474 0.0059 0.0
H1535 H 0.64217 0.20996 0.01458 0.0
H1536 H 0.11242 0.40984 0.32895 0.0
H1537 H 0.09383 0.43964 0.31448 0.0
H1538 H 0.05455 0.39933 0.28313 0.0
H1539 H 0.07291 0.36945 0.29761 0.0
H1540 H 0.09066 0.44839 0.27231 0.0
H1541 H 0.01392 0.44064 0.3098 0.0
H1542 H 0.03649 0.42753 0.3194 0.0
H1543 H 0.02373 0.41774 0.2978 0.0
C1544 C 0.09967 0.40729 0.31918 0.0
C1545 C 0.09417 0.38726 0.31441 0.0
C1546 C 0.08907 0.42434 0.31094 0.0
C1547 C 0.07266 0.42168 0.29796 0.0
C1548 C 0.0669 0.40172 0.29344 0.0
H1549 H 0.99961 0.49805 0.21716 0.0
H1550 H 0.014 0.47057 0.23903 0.0
C1551 C 0.07752 0.38466 0.30163 0.0
C1552 C 0.06261 0.43973 0.28784 0.0
H1553 H 0.01649 0.46455 0.2816 0.0
C1554 C 0.07449 0.45208 0.2745 0.0
C1555 C 0.04149 0.44437 0.29064 0.0
C1556 C 0.02816 0.432 0.30532 0.0
C1557 C 0.06573 0.46863 0.2634 0.0
C1558 C 0.04457 0.47324 0.2661 0.0
C1559 C 0.0327 0.46101 0.27962 0.0
C1560 C 0.03446 0.49029 0.25445 0.0
C1561 C 0.07908 0.48056 0.24834 0.0
C1562 C 0.0407 0.5106 0.25636 0.0
C1563 C 0.03261 0.52631 0.2438 0.0
C1564 C 0.01795 0.52203 0.22925 0.0
C1565 C 0.01092 0.50186 0.22816 0.0
C1566 C 0.01912 0.48613 0.24065 0.0
H1567 H 0.0935 0.47198 0.24438 0.0
H1568 H 0.0709 0.48423 0.23397 0.0
H1569 H 0.08321 0.49524 0.25525 0.0
H1570 H 0.05219 0.51421 0.26725 0.0
H1571 H 0.03819 0.54172 0.24519 0.0
H1572 H 0.91977 0.82563 0.51912 0.0
H1573 H 0.88297 0.81971 0.51784 0.0
H1574 H 0.89539 0.76365 0.4854 0.0
H1575 H 0.9321 0.76942 0.48655 0.0
H1576 H 0.86099 0.8153 0.48042 0.0
H1577 H 0.85442 0.74705 0.5328 0.0
H1578 H 0.87575 0.76413 0.53306 0.0
H1579 H 0.87454 0.7453 0.5135 0.0
C1580 C 0.91467 0.81194 0.51189 0.0
C1581 C 0.92886 0.79801 0.50291 0.0
C1582 C 0.89366 0.8086 0.51117 0.0
C1583 C 0.88651 0.79113 0.50174 0.0
C1584 C 0.90062 0.77706 0.49304 0.0
H1585 H 0.77139 0.7665 0.44861 0.0
H1586 H 0.80729 0.76979 0.45704 0.0
C1587 C 0.9216 0.78046 0.4936 0.0
C1588 C 0.86427 0.78821 0.49977 0.0
H1589 H 0.82563 0.75546 0.51234 0.0
C1590 C 0.85321 0.80232 0.48753 0.0
C1591 C 0.85418 0.77132 0.50916 0.0
C1592 C 0.86525 0.75614 0.52302 0.0
C1593 C 0.83242 0.79963 0.48392 0.0
C1594 C 0.82252 0.78236 0.49273 0.0
C1595 C 0.83338 0.76858 0.50549 0.0
C1596 C 0.80092 0.77834 0.48844 0.0
C1597 C 0.82118 0.8152 0.4706 0.0
C1598 C 0.78555 0.78142 0.50355 0.0
C1599 C 0.76495 0.7796 0.49879 0.0
C1600 C 0.75946 0.77453 0.47887 0.0
C1601 C 0.77504 0.77045 0.46409 0.0
C1602 C 0.79558 0.77239 0.46883 0.0
H1603 H 0.82987 0.82954 0.46816 0.0
H1604 H 0.81873 0.80852 0.4554 0.0
H1605 H 0.80593 0.81914 0.47757 0.0
H1606 H 0.78944 0.78595 0.51879 0.0
H1607 H 0.75335 0.78281 0.51054 0.0
H1608 H 0.23859 0.70731 0.63691 0.0
H1609 H 0.26839 0.71364 0.61432 0.0
H1610 H 0.27613 0.6485 0.60507 0.0
H1611 H 0.24614 0.64205 0.62727 0.0
H1612 H 0.30831 0.70053 0.61702 0.0
H1613 H 0.27476 0.67147 0.54662 0.0
H1614 H 0.25961 0.67662 0.56957 0.0
H1615 H 0.27441 0.65303 0.56753 0.0
C1616 C 0.2466 0.69433 0.63001 0.0
C1617 C 0.23986 0.67419 0.63366 0.0
C1618 C 0.26362 0.69798 0.61714 0.0
C1619 C 0.27419 0.68158 0.60769 0.0
C1620 C 0.26785 0.66142 0.61176 0.0
H1621 H 0.39526 0.67597 0.55342 0.0
H1622 H 0.36509 0.67604 0.57623 0.0
C1623 C 0.25076 0.65776 0.62452 0.0
C1624 C 0.29195 0.68552 0.59369 0.0
H1625 H 0.31064 0.67716 0.54515 0.0
C1626 C 0.30879 0.69557 0.60125 0.0
C1627 C 0.29236 0.67939 0.57302 0.0
C1628 C 0.27424 0.66972 0.56361 0.0
C1629 C 0.32632 0.69907 0.58887 0.0
C1630 C 0.32715 0.69194 0.56853 0.0
C1631 C 0.31005 0.68248 0.56079 0.0
C1632 C 0.34583 0.69335 0.55522 0.0
C1633 C 0.3437 0.71048 0.59767 0.0
C1634 C 0.34498 0.70279 0.53566 0.0
C1635 C 0.36218 0.70255 0.52242 0.0
C1636 C 0.38053 0.69282 0.52852 0.0
C1637 C 0.38142 0.68374 0.54828 0.0
C1638 C 0.36421 0.68388 0.56143 0.0
H1639 H 0.33824 0.72048 0.61037 0.0
H1640 H 0.35501 0.69921 0.60401 0.0
H1641 H 0.35156 0.72012 0.58575 0.0
H1642 H 0.33089 0.71007 0.53052 0.0
H1643 H 0.36098 0.70966 0.5073 0.0
H1644 H 0.99004 0.99187 0.32945 0.0
H1645 H 0.96816 0.97072 0.30943 0.0
H1646 H 0.97111 0.01513 0.25932 0.0
H1647 H 0.9934 0.0363 0.27913 0.0
H1648 H 0.93064 0.97849 0.29159 0.0
H1649 H 0.99184 0.96192 0.2328 0.0
H1650 H 0.99702 0.9736 0.25684 0.0
H1651 H 0.98549 0.98861 0.23658 0.0
C1652 C 0.98593 0.99727 0.31424 0.0
C1653 C 0.99363 0.01568 0.3058 0.0
C1654 C 0.9734 0.98516 0.30282 0.0
C1655 C 0.96831 0.9912 0.28278 0.0
C1656 C 0.97521 0.01 0.27461 0.0
H1657 H 0.88105 0.91206 0.22353 0.0
H1658 H 0.8977 0.94372 0.23271 0.0
C1659 C 0.98785 0.02211 0.286 0.0
C1660 C 0.95641 0.97727 0.27037 0.0
H1661 H 0.96058 0.94559 0.22943 0.0
C1662 C 0.93702 0.97149 0.27782 0.0
C1663 C 0.96491 0.9681 0.25251 0.0
C1664 C 0.98601 0.97319 0.24422 0.0
C1665 C 0.92621 0.95616 0.26838 0.0
C1666 C 0.93489 0.94668 0.25076 0.0
C1667 C 0.95392 0.95305 0.24283 0.0
C1668 C 0.92576 0.92835 0.24207 0.0
C1669 C 0.90616 0.9494 0.27807 0.0
C1670 C 0.93646 0.90944 0.24322 0.0
C1671 C 0.92712 0.89142 0.23783 0.0
C1672 C 0.90685 0.89196 0.2312 0.0
C1673 C 0.89663 0.9111 0.22874 0.0
C1674 C 0.90605 0.92919 0.2341 0.0
H1675 H 0.90347 0.95571 0.29361 0.0
H1676 H 0.89342 0.95486 0.26831 0.0
H1677 H 0.90573 0.93237 0.2793 0.0
H1678 H 0.95173 0.90848 0.24922 0.0
H1679 H 0.9355 0.87697 0.23975 0.0
H1680 H 0.55246 0.00576 0.75789 0.0
H1681 H 0.56861 0.02926 0.73322 0.0
H1682 H 0.51078 0.06114 0.7246 0.0
H1683 H 0.49447 0.03797 0.75 0.0
H1684 H 0.56424 0.04197 0.69332 0.0
H1685 H 0.54538 0.10581 0.74653 0.0
H1686 H 0.54142 0.07929 0.75374 0.0
H1687 H 0.52389 0.09271 0.73708 0.0
C1688 C 0.54302 0.01758 0.7506 0.0
C1689 C 0.52223 0.02027 0.75629 0.0
C1690 C 0.55231 0.03097 0.73638 0.0
C1691 C 0.54103 0.04726 0.72744 0.0
C1692 C 0.51988 0.04897 0.73173 0.0
H1693 H 0.59926 0.15656 0.6752 0.0
H1694 H 0.57355 0.13011 0.67931 0.0
C1695 C 0.51056 0.03564 0.74615 0.0
C1696 C 0.55206 0.06341 0.71546 0.0
H1697 H 0.56652 0.11325 0.71808 0.0
C1698 C 0.5645 0.05765 0.69852 0.0
C1699 C 0.55247 0.08387 0.72231 0.0
C1700 C 0.54023 0.09084 0.74099 0.0
C1701 C 0.57786 0.0716 0.68873 0.0
C1702 C 0.57885 0.09173 0.69617 0.0
C1703 C 0.56565 0.0978 0.71237 0.0
C1704 C 0.59488 0.10618 0.68914 0.0
C1705 C 0.59112 0.06455 0.67084 0.0
C1706 C 0.61553 0.10133 0.69271 0.0
C1707 C 0.63029 0.11643 0.69046 0.0
C1708 C 0.62462 0.1367 0.68473 0.0
C1709 C 0.60416 0.14113 0.67973 0.0
C1710 C 0.58941 0.12603 0.68204 0.0
H1711 H 0.58422 0.05153 0.66304 0.0
H1712 H 0.59365 0.07727 0.65947 0.0
H1713 H 0.60622 0.05918 0.67651 0.0
H1714 H 0.62004 0.08622 0.69857 0.0
H1715 H 0.64589 0.11249 0.69441 0.0
H1716 H 0.60828 0.24263 0.73722 0.0
H1717 H 0.58463 0.27117 0.7455 0.0
H1718 H 0.54858 0.25726 0.6935 0.0
H1719 H 0.57171 0.22852 0.68547 0.0
H1720 H 0.57977 0.30365 0.72057 0.0
H1721 H 0.50397 0.27003 0.73506 0.0
H1722 H 0.52735 0.25465 0.73523 0.0
H1723 H 0.51529 0.2613 0.71139 0.0
C1724 C 0.59503 0.24534 0.72786 0.0
C1725 C 0.59196 0.23339 0.7106 0.0
C1726 C 0.58151 0.26164 0.73263 0.0
C1727 C 0.56467 0.26622 0.72028 0.0
C1728 C 0.56112 0.25373 0.70359 0.0
H1729 H 0.49579 0.36892 0.67878 0.0
H1730 H 0.50898 0.33461 0.68811 0.0
C1731 C 0.57453 0.23739 0.69889 0.0
C1732 C 0.55261 0.28563 0.72288 0.0
H1733 H 0.50388 0.30586 0.72359 0.0
C1734 C 0.56319 0.30412 0.72175 0.0
C1735 C 0.53097 0.28624 0.72431 0.0
C1736 C 0.51877 0.26696 0.72678 0.0
C1737 C 0.55274 0.32317 0.72078 0.0
C1738 C 0.53111 0.32374 0.72123 0.0
C1739 C 0.52047 0.30533 0.72322 0.0
C1740 C 0.51956 0.34327 0.71772 0.0
C1741 C 0.56495 0.34248 0.71809 0.0
C1742 C 0.52033 0.35922 0.7317 0.0
C1743 C 0.51287 0.37889 0.7264 0.0
C1744 C 0.50451 0.38288 0.70702 0.0
C1745 C 0.50227 0.36642 0.69376 0.0
C1746 C 0.50975 0.34678 0.69908 0.0
H1747 H 0.5814 0.33909 0.71465 0.0
H1748 H 0.5588 0.35239 0.70548 0.0
H1749 H 0.56374 0.35132 0.73242 0.0
H1750 H 0.52763 0.3567 0.74628 0.0
H1751 H 0.51464 0.39117 0.73706 0.0
H1752 H 0.92771 0.21459 0.8815 0.0
H1753 H 0.9597 0.22395 0.89699 0.0
H1754 H 0.9259 0.24506 0.9505 0.0
H1755 H 0.89397 0.23565 0.93528 0.0
H1756 H 0.96632 0.26443 0.90592 0.0
H1757 H 0.97523 0.21556 0.97582 0.0
H1758 H 0.95886 0.20891 0.95527 0.0
H1759 H 0.95008 0.22704 0.97417 0.0
C1760 C 0.92713 0.22069 0.89681 0.0
C1761 C 0.90827 0.22454 0.90708 0.0
C1762 C 0.94543 0.22603 0.90563 0.0
C1763 C 0.9452 0.23504 0.92497 0.0
C1764 C 0.9265 0.23776 0.93575 0.0
H1765 H 0.00961 0.31534 0.99713 0.0
H1766 H 0.98822 0.28937 0.98294 0.0
C1767 C 0.90822 0.23251 0.92693 0.0
C1768 C 0.96384 0.24442 0.93259 0.0
H1769 H 0.99288 0.24771 0.97497 0.0
C1770 C 0.97247 0.26049 0.92082 0.0
C1771 C 0.97171 0.2393 0.95206 0.0
C1772 C 0.96361 0.22162 0.96498 0.0
C1773 C 0.98789 0.27246 0.92851 0.0
C1774 C 0.99522 0.26789 0.94836 0.0
C1775 C 0.98725 0.25119 0.95976 0.0
C1776 C 0.0096 0.28154 0.95825 0.0
C1777 C 0.99524 0.29069 0.91583 0.0
C1778 C 0.02904 0.28528 0.94948 0.0
C1779 C 0.04126 0.30033 0.95745 0.0
C1780 C 0.03433 0.31168 0.97446 0.0
C1781 C 0.01538 0.30697 0.98394 0.0
C1782 C 0.00314 0.29207 0.97589 0.0
H1783 H 0.98505 0.29452 0.90288 0.0
H1784 H 0.99619 0.30446 0.92544 0.0
H1785 H 0.01074 0.28713 0.90932 0.0
H1786 H 0.03449 0.27701 0.93612 0.0
H1787 H 0.05588 0.30342 0.94993 0.0
H1788 H 0.91923 0.7657 0.25515 0.0
H1789 H 0.9371 0.73257 0.25124 0.0
H1790 H 0.97049 0.75654 0.19832 0.0
H1791 H 0.95248 0.7897 0.20192 0.0
H1792 H 0.95152 0.72053 0.19102 0.0
H1793 H 0.99517 0.71223 0.26234 0.0
H1794 H 0.96858 0.7184 0.26705 0.0
H1795 H 0.98451 0.7366 0.25342 0.0
C1796 C 0.93061 0.76406 0.24286 0.0
C1797 C 0.93436 0.78034 0.22879 0.0
C1798 C 0.94093 0.74513 0.24075 0.0
C1799 C 0.95533 0.74216 0.22465 0.0
C1800 C 0.95953 0.75855 0.21093 0.0
H1801 H 0.00776 0.62548 0.17927 0.0
H1802 H 0.00304 0.66233 0.1853 0.0
C1803 C 0.9492 0.77749 0.21301 0.0
C1804 C 0.96439 0.72142 0.22097 0.0
H1805 H 0.99038 0.68132 0.24388 0.0
C1806 C 0.96032 0.71207 0.20242 0.0
C1807 C 0.97581 0.71041 0.2359 0.0
C1808 C 0.98146 0.71999 0.25572 0.0
C1809 C 0.96652 0.69166 0.19877 0.0
C1810 C 0.97743 0.68044 0.21395 0.0
C1811 C 0.98204 0.68998 0.23226 0.0
C1812 C 0.98263 0.6583 0.21172 0.0
C1813 C 0.96042 0.68198 0.17913 0.0
C1814 C 0.97349 0.64386 0.22513 0.0
C1815 C 0.97625 0.62285 0.22183 0.0
C1816 C 0.98824 0.61587 0.20503 0.0
C1817 C 0.99831 0.63035 0.19225 0.0
C1818 C 0.99555 0.65141 0.19561 0.0
H1819 H 0.94858 0.69136 0.17103 0.0
H1820 H 0.97405 0.6805 0.16869 0.0
H1821 H 0.95445 0.66637 0.18224 0.0
H1822 H 0.96354 0.64885 0.23771 0.0
H1823 H 0.96839 0.61213 0.23206 0.0
H1824 H 0.49389 0.7222 0.45629 0.0
H1825 H 0.52569 0.74066 0.45866 0.0
H1826 H 0.51608 0.74432 0.52424 0.0
H1827 H 0.48482 0.72465 0.52203 0.0
H1828 H 0.53549 0.77665 0.47011 0.0
H1829 H 0.57184 0.7194 0.52299 0.0
H1830 H 0.54778 0.71499 0.51133 0.0
H1831 H 0.54879 0.73101 0.53338 0.0
C1832 C 0.49853 0.727 0.47121 0.0
C1833 C 0.48704 0.72182 0.48901 0.0
C1834 C 0.51671 0.73758 0.47256 0.0
C1835 C 0.5236 0.74352 0.4917 0.0
C1836 C 0.51152 0.73931 0.50939 0.0
H1837 H 0.63419 0.81919 0.48123 0.0
H1838 H 0.59928 0.80954 0.49145 0.0
C1839 C 0.49357 0.72823 0.5081 0.0
C1840 C 0.54367 0.7536 0.49285 0.0
H1841 H 0.59095 0.74833 0.51351 0.0
C1842 C 0.54761 0.77052 0.47966 0.0
C1843 C 0.55952 0.74555 0.50529 0.0
C1844 C 0.55689 0.72663 0.5189 0.0
C1845 C 0.56714 0.77893 0.47776 0.0
C1846 C 0.58301 0.77083 0.49015 0.0
C1847 C 0.57877 0.75462 0.50412 0.0
C1848 C 0.60464 0.77695 0.48697 0.0
C1849 C 0.57078 0.7955 0.46154 0.0
C1850 C 0.61962 0.76179 0.48246 0.0
C1851 C 0.63962 0.76718 0.4773 0.0
C1852 C 0.64508 0.78793 0.4762 0.0
C1853 C 0.63038 0.80309 0.48173 0.0
C1854 C 0.61038 0.79761 0.48736 0.0
H1855 H 0.5584 0.79642 0.45023 0.0
H1856 H 0.57129 0.81062 0.46897 0.0
H1857 H 0.58554 0.79275 0.4531 0.0
H1858 H 0.61567 0.74574 0.48211 0.0
H1859 H 0.65052 0.75508 0.47313 0.0
H1860 H 0.6979 0.54766 0.39509 0.0
H1861 H 0.7039 0.55869 0.3595 0.0
H1862 H 0.66861 0.50838 0.33921 0.0
H1863 H 0.66219 0.49733 0.37497 0.0
H1864 H 0.72081 0.53937 0.32419 0.0
H1865 H 0.63805 0.55985 0.31688 0.0
H1866 H 0.64923 0.55399 0.34136 0.0
H1867 H 0.64423 0.53368 0.32421 0.0
C1868 C 0.69157 0.53876 0.3831 0.0
C1869 C 0.6793 0.52178 0.38789 0.0
C1870 C 0.69509 0.54506 0.36274 0.0
C1871 C 0.68642 0.53455 0.34677 0.0
C1872 C 0.67515 0.51689 0.35137 0.0
H1873 H 0.67462 0.58849 0.22312 0.0
H1874 H 0.67574 0.5622 0.25057 0.0
C1875 C 0.67157 0.51056 0.3718 0.0
C1876 C 0.68801 0.54323 0.32561 0.0
H1877 H 0.65996 0.56883 0.28933 0.0
C1878 C 0.70749 0.54556 0.31639 0.0
C1879 C 0.67059 0.55126 0.3155 0.0
C1880 C 0.64933 0.54976 0.32497 0.0
C1881 C 0.71009 0.55631 0.29761 0.0
C1882 C 0.69276 0.56519 0.28802 0.0
C1883 C 0.67321 0.56197 0.29673 0.0
C1884 C 0.69457 0.57963 0.27019 0.0
C1885 C 0.73136 0.55835 0.28838 0.0
C1886 C 0.70495 0.59806 0.27206 0.0
C1887 C 0.70433 0.61311 0.25645 0.0
C1888 C 0.69317 0.61008 0.23873 0.0
C1889 C 0.68338 0.5913 0.23657 0.0
C1890 C 0.684 0.57624 0.25222 0.0
H1891 H 0.74162 0.54548 0.29351 0.0
H1892 H 0.73119 0.55875 0.27136 0.0
H1893 H 0.73789 0.57288 0.29347 0.0
H1894 H 0.71279 0.60121 0.28599 0.0
H1895 H 0.71198 0.62741 0.25864 0.0
H1896 H 0.70455 0.55517 0.50568 0.0
H1897 H 0.72561 0.5558 0.53603 0.0
H1898 H 0.76066 0.50325 0.51437 0.0
H1899 H 0.74007 0.50278 0.48387 0.0
H1900 H 0.72612 0.52478 0.56372 0.0
H1901 H 0.80543 0.53752 0.5358 0.0
H1902 H 0.7836 0.54288 0.52001 0.0
H1903 H 0.79401 0.51709 0.5226 0.0
C1904 C 0.71707 0.54406 0.50714 0.0
C1905 C 0.72054 0.52882 0.49243 0.0
C1906 C 0.7291 0.54446 0.52448 0.0
C1907 C 0.74486 0.52972 0.52739 0.0
C1908 C 0.74894 0.5151 0.51225 0.0
H1909 H 0.80477 0.46713 0.62423 0.0
H1910 H 0.79415 0.48247 0.59156 0.0
C1911 C 0.737 0.51474 0.49487 0.0
C1912 C 0.75502 0.52769 0.54739 0.0
H1913 H 0.80159 0.52095 0.56931 0.0
C1914 C 0.74262 0.52441 0.56502 0.0
C1915 C 0.77655 0.52708 0.54903 0.0
C1916 C 0.79065 0.53155 0.53086 0.0
C1917 C 0.75112 0.51944 0.58404 0.0
C1918 C 0.77264 0.51805 0.58553 0.0
C1919 C 0.7851 0.52205 0.56808 0.0
C1920 C 0.78222 0.51066 0.6047 0.0
C1921 C 0.73698 0.51463 0.60214 0.0
C1922 C 0.77977 0.52182 0.62277 0.0
C1923 C 0.78573 0.51307 0.64152 0.0
C1924 C 0.7943 0.49303 0.64245 0.0
C1925 C 0.79808 0.48253 0.62408 0.0
C1926 C 0.79208 0.49129 0.60537 0.0
H1927 H 0.72093 0.5128 0.5975 0.0
H1928 H 0.74213 0.50031 0.61027 0.0
H1929 H 0.73717 0.52736 0.61312 0.0
H1930 H 0.77244 0.53693 0.62248 0.0
H1931 H 0.78279 0.52165 0.65535 0.0
H1932 H 0.79746 0.54198 0.9085 0.0
H1933 H 0.79596 0.53733 0.87139 0.0
H1934 H 0.75266 0.48906 0.88174 0.0
H1935 H 0.75379 0.49378 0.91863 0.0
H1936 H 0.80678 0.50238 0.85103 0.0
H1937 H 0.72584 0.52287 0.83656 0.0
H1938 H 0.7381 0.52945 0.85988 0.0
H1939 H 0.72832 0.50411 0.85699 0.0
C1940 C 0.7874 0.53058 0.90284 0.0
C1941 C 0.77574 0.51825 0.91652 0.0
C1942 C 0.78656 0.52795 0.88165 0.0
C1943 C 0.77394 0.51309 0.87378 0.0
C1944 C 0.7621 0.50098 0.88741 0.0
H1945 H 0.75967 0.44404 0.76683 0.0
H1946 H 0.75764 0.46076 0.79999 0.0
C1947 C 0.76291 0.5036 0.90854 0.0
C1948 C 0.77434 0.50891 0.85153 0.0
H1949 H 0.74342 0.50227 0.81103 0.0
C1950 C 0.79301 0.50274 0.84215 0.0
C1951 C 0.75634 0.50939 0.83998 0.0
C1952 C 0.73606 0.51702 0.84882 0.0
C1953 C 0.79398 0.49598 0.82188 0.0
C1954 C 0.77583 0.49562 0.81065 0.0
C1955 C 0.75729 0.5025 0.81974 0.0
C1956 C 0.77564 0.48675 0.78999 0.0
C1957 C 0.81422 0.48833 0.81293 0.0
C1958 C 0.786 0.49612 0.77327 0.0
C1959 C 0.78718 0.48662 0.75426 0.0
C1960 C 0.77802 0.46756 0.75169 0.0
C1961 C 0.76698 0.45865 0.7683 0.0
C1962 C 0.76576 0.46819 0.78726 0.0
H1963 H 0.82608 0.48648 0.82474 0.0
H1964 H 0.81246 0.47334 0.80549 0.0
H1965 H 0.81975 0.49948 0.80102 0.0
H1966 H 0.79351 0.51058 0.77505 0.0
H1967 H 0.79574 0.49393 0.74176 0.0
H1968 H 0.65142 0.64598 0.1222 0.0
H1969 H 0.65663 0.63226 0.08783 0.0
H1970 H 0.66059 0.57076 0.11389 0.0
H1971 H 0.65462 0.58423 0.14804 0.0
H1972 H 0.69125 0.61462 0.07737 0.0
H1973 H 0.63126 0.55924 0.06304 0.0
H1974 H 0.62868 0.57765 0.08327 0.0
H1975 H 0.64245 0.5536 0.08735 0.0
C1976 C 0.65272 0.62948 0.12053 0.0
C1977 C 0.65283 0.61621 0.13786 0.0
C1978 C 0.65569 0.62165 0.10087 0.0
C1979 C 0.6589 0.60045 0.09819 0.0
C1980 C 0.65765 0.58711 0.1154 0.0
H1981 H 0.73643 0.52633 0.02467 0.0
H1982 H 0.71055 0.5401 0.04878 0.0
C1983 C 0.65441 0.59488 0.13502 0.0
C1984 C 0.6671 0.59268 0.0783 0.0
H1985 H 0.66407 0.55322 0.04498 0.0
C1986 C 0.68495 0.60153 0.07 0.0
C1987 C 0.659 0.57551 0.06869 0.0
C1988 C 0.63916 0.56612 0.07597 0.0
C1989 C 0.69555 0.59303 0.05315 0.0
C1990 C 0.68805 0.57525 0.04428 0.0
C1991 C 0.66977 0.56682 0.05193 0.0
C1992 C 0.70017 0.56448 0.0282 0.0
C1993 C 0.71529 0.60249 0.04557 0.0
C1994 C 0.70225 0.5732 0.00841 0.0
C1995 C 0.71703 0.56539 0.99458 0.0
C1996 C 0.73001 0.54882 1.00041 0.0
C1997 C 0.72678 0.53919 0.01974 0.0
C1998 C 0.71195 0.54697 0.03352 0.0
H1999 H 0.7201 0.61499 0.05554 0.0
H2000 H 0.72774 0.59058 0.04482 0.0
H2001 H 0.71334 0.60899 0.02984 0.0
H2002 H 0.69323 0.58672 0.00408 0.0
H2003 H 0.71902 0.57309 0.97978 0.0
H2004 H 0.47407 0.65706 0.74937 0.0
H2005 H 0.4872 0.62311 0.73978 0.0
H2006 H 0.44997 0.59522 0.78794 0.0
H2007 H 0.4364 0.62919 0.79745 0.0
H2008 H 0.5075 0.59105 0.76103 0.0
H2009 H 0.43088 0.5681 0.73615 0.0
H2010 H 0.43648 0.59431 0.74178 0.0
H2011 H 0.43201 0.5759 0.7623 0.0
C2012 C 0.46878 0.64375 0.75808 0.0
C2013 C 0.45397 0.64583 0.77401 0.0
C2014 C 0.47635 0.62435 0.7526 0.0
C2015 C 0.46928 0.60664 0.76291 0.0
C2016 C 0.45532 0.60869 0.77952 0.0
H2017 H 0.48691 0.47947 0.72435 0.0
H2018 H 0.47945 0.50925 0.74574 0.0
C2019 C 0.44765 0.62812 0.78499 0.0
C2020 C 0.47575 0.58612 0.75539 0.0
H2021 H 0.45793 0.54401 0.73212 0.0
C2022 C 0.49666 0.58067 0.75486 0.0
C2023 C 0.46156 0.57262 0.74733 0.0
C2024 C 0.439 0.57802 0.74671 0.0
C2025 C 0.5038 0.56218 0.74622 0.0
C2026 C 0.48967 0.549 0.73766 0.0
C2027 C 0.46871 0.55414 0.73877 0.0
C2028 C 0.49626 0.53055 0.72611 0.0
C2029 C 0.5264 0.55698 0.74624 0.0
C2030 C 0.50831 0.53263 0.70807 0.0
C2031 C 0.51256 0.51568 0.69579 0.0
C2032 C 0.50475 0.49633 0.70127 0.0
C2033 C 0.49319 0.49415 0.7197 0.0
C2034 C 0.4889 0.51114 0.73194 0.0
H2035 H 0.53414 0.56511 0.75851 0.0
H2036 H 0.52922 0.54019 0.74838 0.0
H2037 H 0.53346 0.56187 0.73129 0.0
H2038 H 0.51377 0.54755 0.70304 0.0
H2039 H 0.52146 0.51791 0.68168 0.0
loop_
_geom_bond_atom_site_label_1
_geom_bond_atom_site_label_2
_geom_bond_distance
_geom_bond_site_symmetry_2
_ccdc_geom_bond_type
Mg0 O7 2.141 . S
Mg0 O8 2.048 . S
Mg0 O9 2.048 . S
Mg0 O12 2.141 . S
C1 O2 1.313 . S
C1 O8 1.195 . S
O2 C1 1.313 . S
C3 O4 1.245 . S
C3 O12 1.289 . S
O4 C3 1.245 . S
C5 O6 1.245 . S
C5 O7 1.289 . S
O6 C5 1.245 . S
O7 Mg0 2.141 . S
O7 C5 1.289 . S
O8 Mg0 2.048 . S
O8 C1 1.195 . S
O9 Mg0 2.048 . S
O9 C10 1.195 . S
C10 O9 1.195 . S
C10 O11 1.313 . S
O11 C10 1.313 . S
O12 Mg0 2.141 . S
O12 C3 1.289 . S
Mg13 O20 2.141 . S
Mg13 O21 2.048 . S
Mg13 O22 2.048 1_455 S
Mg13 O25 2.141 1_455 S
C14 O15 1.313 . S
C14 O21 1.195 . S
O15 C14 1.313 . S
C16 O17 1.245 . S
C16 O25 1.289 . S
O17 C16 1.245 . S
C18 O19 1.245 . S
C18 O20 1.289 . S
O19 C18 1.245 . S
O20 Mg13 2.141 . S
O20 C18 1.289 . S
O21 Mg13 2.048 . S
O21 C14 1.195 . S
O22 Mg13 2.048 1_655 S
O22 C23 1.195 . S
C23 O22 1.195 . S
C23 O24 1.313 . S
O24 C23 1.313 . S
O25 Mg13 2.141 1_655 S
O25 C16 1.289 . S
Mg26 O33 2.141 . S
Mg26 O34 2.048 . S
Mg26 O35 2.048 . S
Mg26 O38 2.141 . S
C27 O28 1.313 . S
C27 O34 1.195 . S
O28 C27 1.313 . S
C29 O30 1.245 . S
C29 O38 1.289 . S
O30 C29 1.245 . S
C31 O32 1.245 . S
C31 O33 1.289 . S
O32 C31 1.245 . S
O33 Mg26 2.141 . S
O33 C31 1.289 . S
O34 Mg26 2.048 . S
O34 C27 1.195 . S
O35 Mg26 2.048 . S
O35 C36 1.195 . S
C36 O35 1.195 . S
C36 O37 1.313 . S
O37 C36 1.313 . S
O38 Mg26 2.141 . S
O38 C29 1.289 . S
Mg39 O46 2.141 1_556 S
Mg39 O47 2.048 . S
Mg39 O48 2.048 . S
Mg39 O51 2.141 . S
C40 O41 1.314 . S
C40 O47 1.194 1_554 S
O41 C40 1.314 . S
C42 O43 1.245 . S
C42 O51 1.289 . S
O43 C42 1.245 . S
C44 O45 1.245 . S
C44 O46 1.289 . S
O45 C44 1.245 . S
O46 Mg39 2.141 1_554 S
O46 C44 1.289 . S
O47 Mg39 2.048 . S
O47 C40 1.194 1_556 S
O48 Mg39 2.048 . S
O48 C49 1.195 . S
C49 O48 1.195 . S
C49 O50 1.313 . S
O50 C49 1.313 . S
O51 Mg39 2.141 . S
O51 C42 1.289 . S
Mg52 O59 2.141 . S
Mg52 O60 2.048 . S
Mg52 O61 2.043 1_445 S
Mg52 O64 2.139 1_445 S
C53 O54 1.313 1_545 S
C53 O60 1.195 . S
O54 C53 1.313 1_565 S
C55 O56 1.245 1_655 S
C55 O64 1.296 . S
O56 C55 1.245 1_455 S
C57 O58 1.245 . S
C57 O59 1.289 . S
O58 C57 1.245 . S
O59 Mg52 2.141 . S
O59 C57 1.289 . S
O60 Mg52 2.048 . S
O60 C53 1.195 . S
O61 Mg52 2.043 1_665 S
O61 C62 1.186 1_655 S
C62 O61 1.186 1_455 S
C62 O63 1.313 . S
O63 C62 1.313 . S
O64 Mg52 2.139 1_665 S
O64 C55 1.296 . S
Mg65 O72 2.141 . S
Mg65 O73 2.048 . S
Mg65 O74 2.048 . S
Mg65 O77 2.141 . S
C66 O67 1.313 . S
C66 O73 1.195 . S
O67 C66 1.313 . S
C68 O69 1.245 . S
C68 O77 1.289 . S
O69 C68 1.245 . S
C70 O71 1.245 . S
C70 O72 1.289 . S
O71 C70 1.245 . S
O72 Mg65 2.141 . S
O72 C70 1.289 . S
O73 Mg65 2.048 . S
O73 C66 1.195 . S
O74 Mg65 2.048 . S
O74 C75 1.195 . S
C75 O74 1.195 . S
C75 O76 1.313 . S
O76 C75 1.313 . S
O77 Mg65 2.141 . S
O77 C68 1.289 . S
Mg78 O85 2.141 . S
Mg78 O86 2.048 . S
Mg78 O87 2.048 1_565 S
Mg78 O90 2.141 1_565 S
C79 O80 1.313 1_565 S
C79 O86 1.195 . S
O80 C79 1.313 1_545 S
C81 O82 1.245 . S
C81 O90 1.289 . S
O82 C81 1.245 . S
C83 O84 1.245 . S
C83 O85 1.289 . S
O84 C83 1.245 . S
O85 Mg78 2.141 . S
O85 C83 1.289 . S
O86 Mg78 2.048 . S
O86 C79 1.195 . S
O87 Mg78 2.048 1_545 S
O87 C88 1.195 . S
C88 O87 1.195 . S
C88 O89 1.313 . S
O89 C88 1.313 . S
O90 Mg78 2.141 1_545 S
O90 C81 1.289 . S
Mg91 O98 2.141 . S
Mg91 O99 2.048 . S
Mg91 O100 2.048 . S
Mg91 O103 2.141 . S
C92 O93 1.313 . S
C92 O99 1.195 . S
O93 C92 1.313 . S
C94 O95 1.245 . S
C94 O103 1.289 . S
O95 C94 1.245 . S
C96 O97 1.245 . S
C96 O98 1.289 . S
O97 C96 1.245 . S
O98 Mg91 2.141 . S
O98 C96 1.289 . S
O99 Mg91 2.048 . S
O99 C92 1.195 . S
O100 Mg91 2.048 . S
O100 C101 1.195 . S
C101 O100 1.195 . S
C101 O102 1.313 . S
O102 C101 1.313 . S
O103 Mg91 2.141 . S
O103 C94 1.289 . S
Mg104 O111 2.141 . S
Mg104 O112 2.048 . S
Mg104 O113 2.048 . S
Mg104 O116 2.141 . S
C105 O106 1.313 . S
C105 O112 1.195 . S
O106 C105 1.313 . S
C107 O108 1.245 . S
C107 O116 1.289 . S
O108 C107 1.245 . S
C109 O110 1.245 . S
C109 O111 1.289 . S
O110 C109 1.245 . S
O111 Mg104 2.141 . S
O111 C109 1.289 . S
O112 Mg104 2.048 . S
O112 C105 1.195 . S
O113 Mg104 2.048 . S
O113 C114 1.195 . S
C114 O113 1.195 . S
C114 O115 1.313 . S
O115 C114 1.313 . S
O116 Mg104 2.141 . S
O116 C107 1.289 . S
Mg117 O124 2.141 1_565 S
Mg117 O125 2.048 . S
Mg117 O126 2.048 . S
Mg117 O129 2.141 . S
C118 O119 1.314 . S
C118 O125 1.194 1_545 S
O119 C118 1.314 . S
C120 O121 1.245 . S
C120 O129 1.289 . S
O121 C120 1.245 . S
C122 O123 1.245 . S
C122 O124 1.289 . S
O123 C122 1.245 . S
O124 Mg117 2.141 1_545 S
O124 C122 1.289 . S
O125 Mg117 2.048 . S
O125 C118 1.194 1_565 S
O126 Mg117 2.048 . S
O126 C127 1.195 . S
C127 O126 1.195 . S
C127 O128 1.313 . S
O128 C127 1.313 . S
O129 Mg117 2.141 . S
O129 C120 1.289 . S
Mg130 O137 2.141 . S
Mg130 O138 2.048 . S
Mg130 O139 2.048 . S
Mg130 O142 2.141 . S
C131 O132 1.313 . S
C131 O138 1.195 . S
O132 C131 1.313 . S
C133 O134 1.245 . S
C133 O142 1.289 . S
O134 C133 1.245 . S
C135 O136 1.245 . S
C135 O137 1.289 . S
O136 C135 1.245 . S
O137 Mg130 2.141 . S
O137 C135 1.289 . S
O138 Mg130 2.048 . S
O138 C131 1.195 . S
O139 Mg130 2.048 . S
O139 C140 1.195 . S
C140 O139 1.195 . S
C140 O141 1.313 . S
O141 C140 1.313 . S
O142 Mg130 2.141 . S
O142 C133 1.289 . S
Mg143 O150 2.141 . S
Mg143 O151 2.048 . S
Mg143 O152 2.048 1_556 S
Mg143 O155 2.141 1_556 S
C144 O145 1.313 1_545 S
C144 O151 1.195 . S
O145 C144 1.313 1_565 S
C146 O147 1.245 . S
C146 O155 1.289 . S
O147 C146 1.245 . S
C148 O149 1.262 . S
C148 O150 1.289 1_565 S
O149 C148 1.262 . S
O150 Mg143 2.141 . S
O150 C148 1.289 1_545 S
O151 Mg143 2.048 . S
O151 C144 1.195 . S
O152 Mg143 2.048 1_554 S
O152 C153 1.195 . S
C153 O152 1.195 . S
C153 O154 1.313 . S
O154 C153 1.313 . S
O155 Mg143 2.141 1_554 S
O155 C146 1.289 . S
Mg156 O163 2.141 . S
Mg156 O164 2.048 . S
Mg156 O165 2.048 . S
Mg156 O168 2.141 . S
C157 O158 1.313 . S
C157 O164 1.195 . S
O158 C157 1.313 . S
C159 O160 1.245 . S
C159 O168 1.289 . S
O160 C159 1.245 . S
C161 O162 1.245 . S
C161 O163 1.289 . S
O162 C161 1.245 . S
O163 Mg156 2.141 . S
O163 C161 1.289 . S
O164 Mg156 2.048 . S
O164 C157 1.195 . S
O165 Mg156 2.048 . S
O165 C166 1.195 . S
C166 O165 1.195 . S
C166 O167 1.313 . S
O167 C166 1.313 . S
O168 Mg156 2.141 . S
O168 C159 1.289 . S
Mg169 O176 2.141 . S
Mg169 O177 2.048 . S
Mg169 O178 2.048 1_655 S
Mg169 O181 2.141 1_655 S
C170 O171 1.313 . S
C170 O177 1.195 . S
O171 C170 1.313 . S
C172 O173 1.251 . S
C172 O181 1.289 . S
O173 C172 1.251 . S
C174 O175 1.245 . S
C174 O176 1.289 . S
O175 C174 1.245 . S
O176 Mg169 2.141 . S
O176 C174 1.289 . S
O177 Mg169 2.048 . S
O177 C170 1.195 . S
O178 Mg169 2.048 1_455 S
O178 C179 1.195 1_455 S
C179 O178 1.195 1_655 S
C179 O180 1.313 . S
O180 C179 1.313 . S
O181 Mg169 2.141 1_455 S
O181 C172 1.289 . S
Mg182 O189 2.141 . S
Mg182 O190 2.048 . S
Mg182 O191 2.048 . S
Mg182 O194 2.141 . S
C183 O184 1.313 . S
C183 O190 1.195 . S
O184 C183 1.313 . S
C185 O186 1.245 . S
C185 O194 1.289 . S
O186 C185 1.245 . S
C187 O188 1.245 . S
C187 O189 1.289 . S
O188 C187 1.245 . S
O189 Mg182 2.141 . S
O189 C187 1.289 . S
O190 Mg182 2.048 . S
O190 C183 1.195 . S
O191 Mg182 2.048 . S
O191 C192 1.195 . S
C192 O191 1.195 . S
C192 O193 1.313 . S
O193 C192 1.313 . S
O194 Mg182 2.141 . S
O194 C185 1.289 . S
Mg195 O202 2.141 . S
Mg195 O203 2.048 . S
Mg195 O204 2.048 . S
Mg195 O207 2.141 . S
C196 O197 1.313 . S
C196 O203 1.195 . S
O197 C196 1.313 . S
C198 O199 1.245 . S
C198 O207 1.289 . S
O199 C198 1.245 . S
C200 O201 1.245 . S
C200 O202 1.289 . S
O201 C200 1.245 . S
O202 Mg195 2.141 . S
O202 C200 1.289 . S
O203 Mg195 2.048 . S
O203 C196 1.195 . S
O204 Mg195 2.048 . S
O204 C205 1.195 . S
C205 O204 1.195 . S
C205 O206 1.313 . S
O206 C205 1.313 . S
O207 Mg195 2.141 . S
O207 C198 1.289 . S
Mg208 O215 2.141 . S
Mg208 O216 2.048 . S
Mg208 O217 2.048 . S
Mg208 O220 2.141 . S
C209 O210 1.313 . S
C209 O216 1.195 . S
O210 C209 1.313 . S
C211 O212 1.245 . S
C211 O220 1.289 . S
O212 C211 1.245 . S
C213 O214 1.245 . S
C213 O215 1.289 . S
O214 C213 1.245 . S
O215 Mg208 2.141 . S
O215 C213 1.289 . S
O216 Mg208 2.048 . S
O216 C209 1.195 . S
O217 Mg208 2.048 . S
O217 C218 1.195 . S
C218 O217 1.195 . S
C218 O219 1.313 . S
O219 C218 1.313 . S
O220 Mg208 2.141 . S
O220 C211 1.289 . S
Mg221 O228 2.141 . S
Mg221 O229 2.048 . S
Mg221 O230 2.048 . S
Mg221 O233 2.141 . S
C222 O223 1.313 . S
C222 O229 1.195 . S
O223 C222 1.313 . S
C224 O225 1.245 . S
C224 O233 1.289 . S
O225 C224 1.245 . S
C226 O227 1.245 . S
C226 O228 1.289 . S
O227 C226 1.245 . S
O228 Mg221 2.141 . S
O228 C226 1.289 . S
O229 Mg221 2.048 . S
O229 C222 1.195 . S
O230 Mg221 2.048 . S
O230 C231 1.195 . S
C231 O230 1.195 . S
C231 O232 1.313 . S
O232 C231 1.313 . S
O233 Mg221 2.141 . S
O233 C224 1.289 . S
Mg234 O241 2.141 . S
Mg234 O242 2.048 . S
Mg234 O243 2.048 1_655 S
Mg234 O246 2.141 1_655 S
C235 O236 1.313 1_554 S
C235 O242 1.195 . S
O236 C235 1.313 1_556 S
C237 O238 1.245 . S
C237 O246 1.289 . S
O238 C237 1.245 . S
C239 O240 1.262 . S
C239 O241 1.289 1_556 S
O240 C239 1.262 . S
O241 Mg234 2.141 . S
O241 C239 1.289 1_554 S
O242 Mg234 2.048 . S
O242 C235 1.195 . S
O243 Mg234 2.048 1_455 S
O243 C244 1.195 . S
C244 O243 1.195 . S
C244 O245 1.313 . S
O245 C244 1.313 . S
O246 Mg234 2.141 1_455 S
O246 C237 1.289 . S
Mg247 O254 2.141 . S
Mg247 O255 2.048 . S
Mg247 O256 2.048 . S
Mg247 O259 2.141 . S
C248 O249 1.313 . S
C248 O255 1.195 . S
O249 C248 1.313 . S
C250 O251 1.245 . S
C250 O259 1.289 . S
O251 C250 1.245 . S
C252 O253 1.245 . S
C252 O254 1.289 . S
O253 C252 1.245 . S
O254 Mg247 2.141 . S
O254 C252 1.289 . S
O255 Mg247 2.048 . S
O255 C248 1.195 . S
O256 Mg247 2.048 . S
O256 C257 1.195 . S
C257 O256 1.195 . S
C257 O258 1.313 . S
O258 C257 1.313 . S
O259 Mg247 2.141 . S
O259 C250 1.289 . S
Mg260 O267 2.141 . S
Mg260 O268 2.048 . S
Mg260 O269 2.048 . S
Mg260 O272 2.141 . S
C261 O262 1.313 . S
C261 O268 1.195 . S
O262 C261 1.313 . S
C263 O264 1.245 . S
C263 O272 1.289 . S
O264 C263 1.245 . S
C265 O266 1.245 . S
C265 O267 1.289 . S
O266 C265 1.245 . S
O267 Mg260 2.141 . S
O267 C265 1.289 . S
O268 Mg260 2.048 . S
O268 C261 1.195 . S
O269 Mg260 2.048 . S
O269 C270 1.195 . S
C270 O269 1.195 . S
C270 O271 1.313 . S
O271 C270 1.313 . S
O272 Mg260 2.141 . S
O272 C263 1.289 . S
Mg273 O280 2.141 . S
Mg273 O281 2.048 . S
Mg273 O282 2.048 . S
Mg273 O285 2.141 . S
C274 O275 1.313 . S
C274 O281 1.195 . S
O275 C274 1.313 . S
C276 O277 1.245 . S
C276 O285 1.289 . S
O277 C276 1.245 . S
C278 O279 1.245 . S
C278 O280 1.289 . S
O279 C278 1.245 . S
O280 Mg273 2.141 . S
O280 C278 1.289 . S
O281 Mg273 2.048 . S
O281 C274 1.195 . S
O282 Mg273 2.048 . S
O282 C283 1.195 . S
C283 O282 1.195 . S
C283 O284 1.313 . S
O284 C283 1.313 . S
O285 Mg273 2.141 . S
O285 C276 1.289 . S
Mg286 O293 2.141 . S
Mg286 O294 2.048 . S
Mg286 O295 2.048 1_554 S
Mg286 O298 2.141 1_554 S
C287 O288 1.313 . S
C287 O294 1.195 . S
O288 C287 1.313 . S
C289 O290 1.245 . S
C289 O298 1.289 . S
O290 C289 1.245 . S
C291 O292 1.245 . S
C291 O293 1.289 . S
O292 C291 1.245 . S
O293 Mg286 2.141 . S
O293 C291 1.289 . S
O294 Mg286 2.048 . S
O294 C287 1.195 . S
O295 Mg286 2.048 1_556 S
O295 C296 1.195 . S
C296 O295 1.195 . S
C296 O297 1.313 . S
O297 C296 1.313 . S
O298 Mg286 2.141 1_556 S
O298 C289 1.289 . S
Mg299 O306 2.141 . S
Mg299 O307 2.048 . S
Mg299 O308 2.048 . S
Mg299 O311 2.141 . S
C300 O301 1.313 . S
C300 O307 1.195 . S
O301 C300 1.313 . S
C302 O303 1.245 . S
C302 O311 1.289 . S
O303 C302 1.245 . S
C304 O305 1.245 . S
C304 O306 1.289 . S
O305 C304 1.245 . S
O306 Mg299 2.141 . S
O306 C304 1.289 . S
O307 Mg299 2.048 . S
O307 C300 1.195 . S
O308 Mg299 2.048 . S
O308 C309 1.195 . S
C309 O308 1.195 . S
C309 O310 1.313 . S
O310 C309 1.313 . S
O311 Mg299 2.141 . S
O311 C302 1.289 . S
H312 C320 0.929 . S
H313 C322 0.930 . S
H314 C324 0.930 . S
H315 C327 0.929 . S
H316 C330 0.930 . S
H317 C332 0.960 . S
H318 C332 0.960 . S
H319 C332 0.960 . S
C320 H312 0.929 . S
C320 C321 1.377 . S
C320 C322 1.384 . S
C321 C320 1.377 . S
C321 C327 1.390 . S
C322 H313 0.930 . S
C322 C320 1.384 . S
C322 C323 1.372 . S
C323 C322 1.372 . S
C323 C324 1.400 . S
C323 C328 1.490 . S
C324 H314 0.930 . S
C324 C323 1.400 . S
C324 C327 1.386 . S
H325 C341 0.930 . S
H326 C342 0.931 . S
C327 H315 0.929 . S
C327 C321 1.390 . S
C327 C324 1.386 . S
C328 C323 1.490 . S
C328 C330 1.395 . S
C328 C331 1.403 . S
H329 C335 0.930 . S
C330 H316 0.930 . S
C330 C328 1.395 . S
C330 C333 1.403 . S
C331 C328 1.403 . S
C331 C332 1.524 . S
C331 C335 1.400 . S
C332 H317 0.960 . S
C332 H318 0.960 . S
C332 H319 0.960 . S
C332 C331 1.524 . S
C333 C330 1.403 . S
C333 C334 1.392 . S
C333 C337 1.495 . S
C334 C333 1.392 . S
C334 C335 1.385 . S
C334 C336 1.478 . S
C335 H329 0.930 . S
C335 C331 1.400 . S
C335 C334 1.385 . S
C336 C334 1.478 . S
C336 C338 1.381 . S
C336 C342 1.383 . S
C337 C333 1.495 . S
C337 H343 0.959 . S
C337 H344 0.961 . S
C337 H345 0.960 . S
C338 C336 1.381 . S
C338 C339 1.394 . S
C338 H346 0.930 . S
C339 C338 1.394 . S
C339 C340 1.383 . S
C339 H347 0.929 . S
C340 C339 1.383 . S
C340 C341 1.377 . S
C341 H325 0.930 . S
C341 C340 1.377 . S
C341 C342 1.379 . S
C342 H326 0.931 . S
C342 C336 1.383 . S
C342 C341 1.379 . S
H343 C337 0.959 . S
H344 C337 0.961 . S
H345 C337 0.960 . S
H346 C338 0.930 . S
H347 C339 0.929 . S
H348 C356 0.929 . S
H349 C358 0.930 . S
H350 C360 0.930 . S
H351 C363 0.929 . S
H352 C366 0.930 . S
H353 C368 0.960 . S
H354 C368 0.960 . S
H355 C368 0.960 . S
C356 H348 0.929 . S
C356 C357 1.377 1_455 S
C356 C358 1.384 . S
C357 C356 1.377 1_655 S
C357 C363 1.390 . S
C358 H349 0.930 . S
C358 C356 1.384 . S
C358 C359 1.372 1_455 S
C359 C358 1.372 1_655 S
C359 C360 1.400 . S
C359 C364 1.490 . S
C360 H350 0.930 . S
C360 C359 1.400 . S
C360 C363 1.386 . S
H361 C377 0.930 . S
H362 C378 0.931 . S
C363 H351 0.929 . S
C363 C357 1.390 . S
C363 C360 1.386 . S
C364 C359 1.490 . S
C364 C366 1.395 1_655 S
C364 C367 1.403 . S
H365 C371 0.930 . S
C366 H352 0.930 . S
C366 C364 1.395 1_455 S
C366 C369 1.403 . S
C367 C364 1.403 . S
C367 C368 1.524 . S
C367 C371 1.400 . S
C368 H353 0.960 . S
C368 H354 0.960 . S
C368 H355 0.960 . S
C368 C367 1.524 . S
C369 C366 1.403 . S
C369 C370 1.392 . S
C369 C373 1.495 . S
C370 C369 1.392 . S
C370 C371 1.385 1_455 S
C370 C372 1.478 . S
C371 H365 0.930 . S
C371 C367 1.400 . S
C371 C370 1.385 1_655 S
C372 C370 1.478 . S
C372 C374 1.381 . S
C372 C378 1.383 1_455 S
C373 C369 1.495 . S
C373 H379 0.959 . S
C373 H380 0.961 . S
C373 H381 0.960 . S
C374 C372 1.381 . S
C374 C375 1.394 . S
C374 H382 0.930 . S
C375 C374 1.394 . S
C375 C376 1.383 . S
C375 H383 0.929 . S
C376 C375 1.383 . S
C376 C377 1.377 1_455 S
C377 H361 0.930 . S
C377 C376 1.377 1_655 S
C377 C378 1.379 . S
C378 H362 0.931 . S
C378 C372 1.383 1_655 S
C378 C377 1.379 . S
H379 C373 0.959 . S
H380 C373 0.961 . S
H381 C373 0.960 . S
H382 C374 0.930 . S
H383 C375 0.929 . S
H384 C392 0.929 . S
H385 C394 0.930 . S
H386 C396 0.930 . S
H387 C399 0.929 . S
H388 C402 0.930 . S
H389 C404 0.960 . S
H390 C404 0.960 . S
H391 C404 0.960 . S
C392 H384 0.929 . S
C392 C393 1.377 . S
C392 C394 1.384 . S
C393 C392 1.377 . S
C393 C399 1.390 . S
C394 H385 0.930 . S
C394 C392 1.384 . S
C394 C395 1.372 . S
C395 C394 1.372 . S
C395 C396 1.400 . S
C395 C400 1.490 . S
C396 H386 0.930 . S
C396 C395 1.400 . S
C396 C399 1.386 . S
H397 C413 0.930 . S
H398 C414 0.931 . S
C399 H387 0.929 . S
C399 C393 1.390 . S
C399 C396 1.386 . S
C400 C395 1.490 . S
C400 C402 1.395 . S
C400 C403 1.403 . S
H401 C407 0.930 . S
C402 H388 0.930 . S
C402 C400 1.395 . S
C402 C405 1.403 . S
C403 C400 1.403 . S
C403 C404 1.524 . S
C403 C407 1.400 . S
C404 H389 0.960 . S
C404 H390 0.960 . S
C404 H391 0.960 . S
C404 C403 1.524 . S
C405 C402 1.403 . S
C405 C406 1.392 . S
C405 C409 1.495 . S
C406 C405 1.392 . S
C406 C407 1.385 . S
C406 C408 1.478 . S
C407 H401 0.930 . S
C407 C403 1.400 . S
C407 C406 1.385 . S
C408 C406 1.478 . S
C408 C410 1.381 . S
C408 C414 1.383 . S
C409 C405 1.495 . S
C409 H415 0.959 . S
C409 H416 0.961 . S
C409 H417 0.960 . S
C410 C408 1.381 . S
C410 C411 1.394 . S
C410 H418 0.930 . S
C411 C410 1.394 . S
C411 C412 1.383 . S
C411 H419 0.929 . S
C412 C411 1.383 . S
C412 C413 1.377 . S
C413 H397 0.930 . S
C413 C412 1.377 . S
C413 C414 1.379 . S
C414 H398 0.931 . S
C414 C408 1.383 . S
C414 C413 1.379 . S
H415 C409 0.959 . S
H416 C409 0.961 . S
H417 C409 0.960 . S
H418 C410 0.930 . S
H419 C411 0.929 . S
H420 C428 0.929 . S
H421 C430 0.930 . S
H422 C432 0.930 . S
H423 C435 0.929 . S
H424 C438 0.930 . S
H425 C440 0.960 . S
H426 C440 0.960 . S
H427 C440 0.960 . S
C428 H420 0.929 . S
C428 C429 1.377 . S
C428 C430 1.384 . S
C429 C428 1.377 . S
C429 C435 1.390 . S
C430 H421 0.930 . S
C430 C428 1.384 . S
C430 C431 1.372 . S
C431 C430 1.372 . S
C431 C432 1.400 . S
C431 C436 1.490 . S
C432 H422 0.930 . S
C432 C431 1.400 . S
C432 C435 1.386 . S
H433 C449 0.930 . S
H434 C450 0.931 . S
C435 H423 0.929 . S
C435 C429 1.390 . S
C435 C432 1.386 . S
C436 C431 1.490 . S
C436 C438 1.395 . S
C436 C439 1.403 . S
H437 C443 0.930 . S
C438 H424 0.930 . S
C438 C436 1.395 . S
C438 C441 1.403 . S
C439 C436 1.403 . S
C439 C440 1.524 . S
C439 C443 1.400 . S
C440 H425 0.960 . S
C440 H426 0.960 . S
C440 H427 0.960 . S
C440 C439 1.524 . S
C441 C438 1.403 . S
C441 C442 1.392 . S
C441 C445 1.495 . S
C442 C441 1.392 . S
C442 C443 1.385 . S
C442 C444 1.478 . S
C443 H437 0.930 . S
C443 C439 1.400 . S
C443 C442 1.385 . S
C444 C442 1.478 . S
C444 C446 1.381 . S
C444 C450 1.383 . S
C445 C441 1.495 . S
C445 H451 0.959 . S
C445 H452 0.961 . S
C445 H453 0.960 . S
C446 C444 1.381 . S
C446 C447 1.394 . S
C446 H454 0.930 . S
C447 C446 1.394 . S
C447 C448 1.383 . S
C447 H455 0.929 . S
C448 C447 1.383 . S
C448 C449 1.377 . S
C449 H433 0.930 . S
C449 C448 1.377 . S
C449 C450 1.379 . S
C450 H434 0.931 . S
C450 C444 1.383 . S
C450 C449 1.379 . S
H451 C445 0.959 . S
H452 C445 0.961 . S
H453 C445 0.960 . S
H454 C446 0.930 . S
H455 C447 0.929 . S
H456 C464 0.929 . S
H457 C466 0.930 . S
H458 C468 0.930 . S
H459 C471 0.929 . S
H460 C474 0.930 . S
H461 C476 0.960 . S
H462 C476 0.960 . S
H463 C476 0.960 . S
C464 H456 0.929 . S
C464 C465 1.377 . S
C464 C466 1.384 . S
C465 C464 1.377 . S
C465 C471 1.390 . S
C466 H457 0.930 . S
C466 C464 1.384 . S
C466 C467 1.372 . S
C467 C466 1.372 . S
C467 C468 1.400 . S
C467 C472 1.490 . S
C468 H458 0.930 . S
C468 C467 1.400 . S
C468 C471 1.386 . S
H469 C485 0.930 . S
H470 C486 0.931 . S
C471 H459 0.929 . S
C471 C465 1.390 . S
C471 C468 1.386 . S
C472 C467 1.490 . S
C472 C474 1.395 . S
C472 C475 1.403 . S
H473 C479 0.930 . S
C474 H460 0.930 . S
C474 C472 1.395 . S
C474 C477 1.403 . S
C475 C472 1.403 . S
C475 C476 1.524 . S
C475 C479 1.400 . S
C476 H461 0.960 . S
C476 H462 0.960 . S
C476 H463 0.960 . S
C476 C475 1.524 . S
C477 C474 1.403 . S
C477 C478 1.392 . S
C477 C481 1.495 . S
C478 C477 1.392 . S
C478 C479 1.385 . S
C478 C480 1.478 . S
C479 H473 0.930 . S
C479 C475 1.400 . S
C479 C478 1.385 . S
C480 C478 1.478 . S
C480 C482 1.381 . S
C480 C486 1.383 . S
C481 C477 1.495 . S
C481 H487 0.959 . S
C481 H488 0.961 . S
C481 H489 0.960 . S
C482 C480 1.381 . S
C482 C483 1.394 . S
C482 H490 0.930 . S
C483 C482 1.394 . S
C483 C484 1.383 . S
C483 H491 0.929 . S
C484 C483 1.383 . S
C484 C485 1.377 . S
C485 H469 0.930 . S
C485 C484 1.377 . S
C485 C486 1.379 . S
C486 H470 0.931 . S
C486 C480 1.383 . S
C486 C485 1.379 . S
H487 C481 0.959 . S
H488 C481 0.961 . S
H489 C481 0.960 . S
H490 C482 0.930 . S
H491 C483 0.929 . S
H492 C500 0.929 . S
H493 C502 0.930 . S
H494 C504 0.930 . S
H495 C507 0.929 . S
H496 C510 0.930 . S
H497 C512 0.960 . S
H498 C512 0.960 . S
H499 C512 0.960 . S
C500 H492 0.929 . S
C500 C501 1.377 . S
C500 C502 1.384 . S
C501 C500 1.377 . S
C501 C507 1.390 . S
C502 H493 0.930 . S
C502 C500 1.384 . S
C502 C503 1.372 . S
C503 C502 1.372 . S
C503 C504 1.400 . S
C503 C508 1.490 . S
C504 H494 0.930 . S
C504 C503 1.400 . S
C504 C507 1.386 . S
H505 C521 0.930 . S
H506 C522 0.931 . S
C507 H495 0.929 . S
C507 C501 1.390 . S
C507 C504 1.386 . S
C508 C503 1.490 . S
C508 C510 1.395 . S
C508 C511 1.403 . S
H509 C515 0.930 . S
C510 H496 0.930 . S
C510 C508 1.395 . S
C510 C513 1.403 . S
C511 C508 1.403 . S
C511 C512 1.524 . S
C511 C515 1.400 . S
C512 H497 0.960 . S
C512 H498 0.960 . S
C512 H499 0.960 . S
C512 C511 1.524 . S
C513 C510 1.403 . S
C513 C514 1.392 . S
C513 C517 1.495 . S
C514 C513 1.392 . S
C514 C515 1.385 . S
C514 C516 1.478 . S
C515 H509 0.930 . S
C515 C511 1.400 . S
C515 C514 1.385 . S
C516 C514 1.478 . S
C516 C518 1.381 . S
C516 C522 1.383 . S
C517 C513 1.495 . S
C517 H523 0.959 . S
C517 H524 0.961 . S
C517 H525 0.960 . S
C518 C516 1.381 . S
C518 C519 1.394 . S
C518 H526 0.930 . S
C519 C518 1.394 . S
C519 C520 1.383 . S
C519 H527 0.929 . S
C520 C519 1.383 . S
C520 C521 1.377 . S
C521 H505 0.930 . S
C521 C520 1.377 . S
C521 C522 1.379 . S
C522 H506 0.931 . S
C522 C516 1.383 . S
C522 C521 1.379 . S
H523 C517 0.959 . S
H524 C517 0.961 . S
H525 C517 0.960 . S
H526 C518 0.930 . S
H527 C519 0.929 . S
H528 C536 0.929 . S
H529 C538 0.930 . S
H530 C540 0.930 . S
H531 C543 0.929 . S
H532 C546 0.930 . S
H533 C548 0.960 . S
H534 C548 0.960 . S
H535 C548 0.960 . S
C536 H528 0.929 . S
C536 C537 1.377 . S
C536 C538 1.384 . S
C537 C536 1.377 . S
C537 C543 1.390 . S
C538 H529 0.930 . S
C538 C536 1.384 . S
C538 C539 1.372 . S
C539 C538 1.372 . S
C539 C540 1.400 . S
C539 C544 1.490 . S
C540 H530 0.930 . S
C540 C539 1.400 . S
C540 C543 1.386 . S
H541 C557 0.930 . S
H542 C558 0.931 . S
C543 H531 0.929 . S
C543 C537 1.390 . S
C543 C540 1.386 . S
C544 C539 1.490 . S
C544 C546 1.395 . S
C544 C547 1.403 . S
H545 C551 0.930 . S
C546 H532 0.930 . S
C546 C544 1.395 . S
C546 C549 1.403 . S
C547 C544 1.403 . S
C547 C548 1.524 . S
C547 C551 1.400 . S
C548 H533 0.960 . S
C548 H534 0.960 . S
C548 H535 0.960 . S
C548 C547 1.524 . S
C549 C546 1.403 . S
C549 C550 1.392 . S
C549 C553 1.495 . S
C550 C549 1.392 . S
C550 C551 1.385 . S
C550 C552 1.478 . S
C551 H545 0.930 . S
C551 C547 1.400 . S
C551 C550 1.385 . S
C552 C550 1.478 . S
C552 C554 1.381 . S
C552 C558 1.383 . S
C553 C549 1.495 . S
C553 H559 0.959 . S
C553 H560 0.961 . S
C553 H561 0.960 . S
C554 C552 1.381 . S
C554 C555 1.394 . S
C554 H562 0.930 . S
C555 C554 1.394 . S
C555 C556 1.383 . S
C555 H563 0.929 . S
C556 C555 1.383 . S
C556 C557 1.377 . S
C557 H541 0.930 . S
C557 C556 1.377 . S
C557 C558 1.379 . S
C558 H542 0.931 . S
C558 C552 1.383 . S
C558 C557 1.379 . S
H559 C553 0.959 . S
H560 C553 0.961 . S
H561 C553 0.960 . S
H562 C554 0.930 . S
H563 C555 0.929 . S
H564 C572 0.929 . S
H565 C574 0.930 . S
H566 C576 0.930 . S
H567 C579 0.929 . S
H568 C582 0.930 . S
H569 C584 0.960 . S
H570 C584 0.960 . S
H571 C584 0.960 . S
C572 H564 0.929 . S
C572 C573 1.377 . S
C572 C574 1.384 . S
C573 C572 1.377 . S
C573 C579 1.390 . S
C574 H565 0.930 . S
C574 C572 1.384 . S
C574 C575 1.372 . S
C575 C574 1.372 . S
C575 C576 1.400 . S
C575 C580 1.490 . S
C576 H566 0.930 . S
C576 C575 1.400 . S
C576 C579 1.386 . S
H577 C593 0.930 . S
H578 C594 0.931 . S
C579 H567 0.929 . S
C579 C573 1.390 . S
C579 C576 1.386 . S
C580 C575 1.490 . S
C580 C582 1.395 1_554 S
C580 C583 1.403 . S
H581 C587 0.930 . S
C582 H568 0.930 . S
C582 C580 1.395 1_556 S
C582 C585 1.403 . S
C583 C580 1.403 . S
C583 C584 1.524 . S
C583 C587 1.400 . S
C584 H569 0.960 . S
C584 H570 0.960 . S
C584 H571 0.960 . S
C584 C583 1.524 . S
C585 C582 1.403 . S
C585 C586 1.392 1_556 S
C585 C589 1.495 . S
C586 C585 1.392 1_554 S
C586 C587 1.385 . S
C586 C588 1.477 1_554 S
C587 H581 0.930 . S
C587 C583 1.400 . S
C587 C586 1.385 . S
C588 C586 1.477 1_556 S
C588 C590 1.380 1_556 S
C588 C594 1.384 . S
C589 C585 1.495 . S
C589 H595 0.959 . S
C589 H596 0.961 . S
C589 H597 0.960 . S
C590 C588 1.380 1_554 S
C590 C591 1.394 . S
C590 H598 0.930 . S
C591 C590 1.394 . S
C591 C592 1.378 1_554 S
C591 H599 0.929 . S
C592 C591 1.378 1_556 S
C592 C593 1.383 . S
C593 H577 0.930 . S
C593 C592 1.383 . S
C593 C594 1.379 . S
C594 H578 0.931 . S
C594 C588 1.384 . S
C594 C593 1.379 . S
H595 C589 0.959 . S
H596 C589 0.961 . S
H597 C589 0.960 . S
H598 C590 0.930 . S
H599 C591 0.929 . S
H600 C608 0.929 . S
H601 C610 0.930 . S
H602 C612 0.930 . S
H603 C615 0.929 . S
H604 C618 0.930 . S
H605 C620 0.960 . S
H606 C620 0.960 . S
H607 C620 0.960 . S
C608 H600 0.929 . S
C608 C609 1.377 . S
C608 C610 1.384 . S
C609 C608 1.377 . S
C609 C615 1.390 . S
C610 H601 0.930 . S
C610 C608 1.384 . S
C610 C611 1.372 . S
C611 C610 1.372 . S
C611 C612 1.400 . S
C611 C616 1.490 . S
C612 H602 0.930 . S
C612 C611 1.400 . S
C612 C615 1.386 . S
H613 C629 0.930 . S
H614 C630 0.931 . S
C615 H603 0.929 . S
C615 C609 1.390 . S
C615 C612 1.386 . S
C616 C611 1.490 . S
C616 C618 1.395 . S
C616 C619 1.403 1_545 S
H617 C623 0.930 . S
C618 H604 0.930 . S
C618 C616 1.395 . S
C618 C621 1.403 . S
C619 C616 1.403 1_565 S
C619 C620 1.524 . S
C619 C623 1.400 . S
C620 H605 0.960 . S
C620 H606 0.960 . S
C620 H607 0.960 . S
C620 C619 1.524 . S
C621 C618 1.403 . S
C621 C622 1.392 . S
C621 C625 1.495 . S
C622 C621 1.392 . S
C622 C623 1.385 1_545 S
C622 C624 1.478 . S
C623 H617 0.930 . S
C623 C619 1.400 . S
C623 C622 1.385 1_565 S
C624 C622 1.478 . S
C624 C626 1.381 . S
C624 C630 1.383 . S
C625 C621 1.495 . S
C625 H631 0.959 . S
C625 H632 0.961 . S
C625 H633 0.960 . S
C626 C624 1.381 . S
C626 C627 1.394 . S
C626 H634 0.930 . S
C627 C626 1.394 . S
C627 C628 1.383 . S
C627 H635 0.929 . S
C628 C627 1.383 . S
C628 C629 1.377 . S
C629 H613 0.930 . S
C629 C628 1.377 . S
C629 C630 1.379 . S
C630 H614 0.931 . S
C630 C624 1.383 . S
C630 C629 1.379 . S
H631 C625 0.959 . S
H632 C625 0.961 . S
H633 C625 0.960 . S
H634 C626 0.930 . S
H635 C627 0.929 . S
H636 C644 0.929 . S
H637 C646 0.930 . S
H638 C648 0.930 . S
H639 C651 0.929 . S
H640 C654 0.930 . S
H641 C656 0.960 . S
H642 C656 0.960 . S
H643 C656 0.960 . S
C644 H636 0.929 . S
C644 C645 1.377 . S
C644 C646 1.384 . S
C645 C644 1.377 . S
C645 C651 1.390 . S
C646 H637 0.930 . S
C646 C644 1.384 . S
C646 C647 1.372 . S
C647 C646 1.372 . S
C647 C648 1.400 . S
C647 C652 1.490 . S
C648 H638 0.930 . S
C648 C647 1.400 . S
C648 C651 1.386 . S
H649 C665 0.930 . S
H650 C666 0.931 . S
C651 H639 0.929 . S
C651 C645 1.390 . S
C651 C648 1.386 . S
C652 C647 1.490 . S
C652 C654 1.395 . S
C652 C655 1.403 . S
H653 C659 0.930 . S
C654 H640 0.930 . S
C654 C652 1.395 . S
C654 C657 1.403 . S
C655 C652 1.403 . S
C655 C656 1.524 . S
C655 C659 1.400 . S
C656 H641 0.960 . S
C656 H642 0.960 . S
C656 H643 0.960 . S
C656 C655 1.524 . S
C657 C654 1.403 . S
C657 C658 1.392 . S
C657 C661 1.495 . S
C658 C657 1.392 . S
C658 C659 1.385 . S
C658 C660 1.478 . S
C659 H653 0.930 . S
C659 C655 1.400 . S
C659 C658 1.385 . S
C660 C658 1.478 . S
C660 C662 1.381 . S
C660 C666 1.383 . S
C661 C657 1.495 . S
C661 H667 0.959 . S
C661 H668 0.961 . S
C661 H669 0.960 . S
C662 C660 1.381 . S
C662 C663 1.394 . S
C662 H670 0.930 . S
C663 C662 1.394 . S
C663 C664 1.383 . S
C663 H671 0.929 . S
C664 C663 1.383 . S
C664 C665 1.377 . S
C665 H649 0.930 . S
C665 C664 1.377 . S
C665 C666 1.379 . S
C666 H650 0.931 . S
C666 C660 1.383 . S
C666 C665 1.379 . S
H667 C661 0.959 . S
H668 C661 0.961 . S
H669 C661 0.960 . S
H670 C662 0.930 . S
H671 C663 0.929 . S
H672 C680 0.929 . S
H673 C682 0.930 . S
H674 C684 0.930 . S
H675 C687 0.929 . S
H676 C690 0.930 . S
H677 C692 0.960 . S
H678 C692 0.960 . S
H679 C692 0.960 . S
C680 H672 0.929 . S
C680 C681 1.377 . S
C680 C682 1.384 . S
C681 C680 1.377 . S
C681 C687 1.390 1_545 S
C682 H673 0.930 . S
C682 C680 1.384 . S
C682 C683 1.372 . S
C683 C682 1.372 . S
C683 C684 1.400 1_545 S
C683 C688 1.490 1_545 S
C684 H674 0.930 . S
C684 C683 1.400 1_565 S
C684 C687 1.386 . S
H685 C701 0.930 . S
H686 C702 0.931 . S
C687 H675 0.929 . S
C687 C681 1.390 1_565 S
C687 C684 1.386 . S
C688 C683 1.490 1_565 S
C688 C690 1.395 . S
C688 C691 1.403 1_565 S
H689 C695 0.930 . S
C690 H676 0.930 . S
C690 C688 1.395 . S
C690 C693 1.403 . S
C691 C688 1.403 1_545 S
C691 C692 1.524 . S
C691 C695 1.400 . S
C692 H677 0.960 . S
C692 H678 0.960 . S
C692 H679 0.960 . S
C692 C691 1.524 . S
C693 C690 1.403 . S
C693 C694 1.392 . S
C693 C697 1.495 . S
C694 C693 1.392 . S
C694 C695 1.385 1_565 S
C694 C696 1.478 . S
C695 H689 0.930 . S
C695 C691 1.400 . S
C695 C694 1.385 1_545 S
C696 C694 1.478 . S
C696 C698 1.379 1_565 S
C696 C702 1.383 . S
C697 C693 1.495 . S
C697 H703 0.959 . S
C697 H704 0.961 . S
C697 H705 0.960 . S
C698 C696 1.379 1_545 S
C698 C699 1.394 1_545 S
C698 H706 0.933 . S
C699 C698 1.394 1_565 S
C699 C700 1.383 . S
C699 H707 0.929 1_565 S
C700 C699 1.383 . S
C700 C701 1.377 . S
C701 H685 0.930 . S
C701 C700 1.377 . S
C701 C702 1.379 . S
C702 H686 0.931 . S
C702 C696 1.383 . S
C702 C701 1.379 . S
H703 C697 0.959 . S
H704 C697 0.961 . S
H705 C697 0.960 . S
H706 C698 0.933 . S
H707 C699 0.929 1_545 S
H708 C716 0.929 . S
H709 C718 0.930 . S
H710 C720 0.930 . S
H711 C723 0.929 . S
H712 C726 0.930 . S
H713 C728 0.960 . S
H714 C728 0.960 . S
H715 C728 0.960 . S
C716 H708 0.929 . S
C716 C717 1.377 . S
C716 C718 1.384 . S
C717 C716 1.377 . S
C717 C723 1.390 . S
C718 H709 0.930 . S
C718 C716 1.384 . S
C718 C719 1.372 . S
C719 C718 1.372 . S
C719 C720 1.400 . S
C719 C724 1.490 . S
C720 H710 0.930 . S
C720 C719 1.400 . S
C720 C723 1.386 . S
H721 C737 0.930 . S
H722 C738 0.931 . S
C723 H711 0.929 . S
C723 C717 1.390 . S
C723 C720 1.386 . S
C724 C719 1.490 . S
C724 C726 1.395 . S
C724 C727 1.403 . S
H725 C731 0.930 . S
C726 H712 0.930 . S
C726 C724 1.395 . S
C726 C729 1.403 . S
C727 C724 1.403 . S
C727 C728 1.524 . S
C727 C731 1.400 . S
C728 H713 0.960 . S
C728 H714 0.960 . S
C728 H715 0.960 . S
C728 C727 1.524 . S
C729 C726 1.403 . S
C729 C730 1.392 . S
C729 C733 1.495 . S
C730 C729 1.392 . S
C730 C731 1.385 . S
C730 C732 1.478 . S
C731 H725 0.930 . S
C731 C727 1.400 . S
C731 C730 1.385 . S
C732 C730 1.478 . S
C732 C734 1.381 . S
C732 C738 1.383 . S
C733 C729 1.495 . S
C733 H739 0.959 . S
C733 H740 0.961 . S
C733 H741 0.960 . S
C734 C732 1.381 . S
C734 C735 1.394 . S
C734 H742 0.930 . S
C735 C734 1.394 . S
C735 C736 1.383 . S
C735 H743 0.929 . S
C736 C735 1.383 . S
C736 C737 1.377 . S
C737 H721 0.930 . S
C737 C736 1.377 . S
C737 C738 1.379 . S
C738 H722 0.931 . S
C738 C732 1.383 . S
C738 C737 1.379 . S
H739 C733 0.959 . S
H740 C733 0.961 . S
H741 C733 0.960 . S
H742 C734 0.930 . S
H743 C735 0.929 . S
H744 C752 0.929 . S
H745 C754 0.930 . S
H746 C756 0.930 . S
H747 C759 0.929 . S
H748 C762 0.930 . S
H749 C764 0.960 . S
H750 C764 0.960 . S
H751 C764 0.960 . S
C752 H744 0.929 . S
C752 C753 1.377 . S
C752 C754 1.384 . S
C753 C752 1.377 . S
C753 C759 1.390 . S
C754 H745 0.930 . S
C754 C752 1.384 . S
C754 C755 1.372 . S
C755 C754 1.372 . S
C755 C756 1.400 . S
C755 C760 1.490 . S
C756 H746 0.930 . S
C756 C755 1.400 . S
C756 C759 1.386 . S
H757 C773 0.930 . S
H758 C774 0.931 . S
C759 H747 0.929 . S
C759 C753 1.390 . S
C759 C756 1.386 . S
C760 C755 1.490 . S
C760 C762 1.395 . S
C760 C763 1.403 . S
H761 C767 0.930 . S
C762 H748 0.930 . S
C762 C760 1.395 . S
C762 C765 1.403 . S
C763 C760 1.403 . S
C763 C764 1.524 . S
C763 C767 1.400 . S
C764 H749 0.960 . S
C764 H750 0.960 . S
C764 H751 0.960 . S
C764 C763 1.524 . S
C765 C762 1.403 . S
C765 C766 1.392 . S
C765 C769 1.495 . S
C766 C765 1.392 . S
C766 C767 1.385 . S
C766 C768 1.478 . S
C767 H761 0.930 . S
C767 C763 1.400 . S
C767 C766 1.385 . S
C768 C766 1.478 . S
C768 C770 1.381 . S
C768 C774 1.383 . S
C769 C765 1.495 . S
C769 H775 0.959 . S
C769 H776 0.961 . S
C769 H777 0.960 . S
C770 C768 1.381 . S
C770 C771 1.394 . S
C770 H778 0.930 . S
C771 C770 1.394 . S
C771 C772 1.383 . S
C771 H779 0.929 . S
C772 C771 1.383 . S
C772 C773 1.377 . S
C773 H757 0.930 . S
C773 C772 1.377 . S
C773 C774 1.379 . S
C774 H758 0.931 . S
C774 C768 1.383 . S
C774 C773 1.379 . S
H775 C769 0.959 . S
H776 C769 0.961 . S
H777 C769 0.960 . S
H778 C770 0.930 . S
H779 C771 0.929 . S
H780 C788 0.929 . S
H781 C790 0.930 . S
H782 C792 0.930 . S
H783 C795 0.929 . S
H784 C798 0.930 . S
H785 C800 0.960 . S
H786 C800 0.960 . S
H787 C800 0.960 . S
C788 H780 0.929 . S
C788 C789 1.377 . S
C788 C790 1.384 . S
C789 C788 1.377 . S
C789 C795 1.390 . S
C790 H781 0.930 . S
C790 C788 1.384 . S
C790 C791 1.372 . S
C791 C790 1.372 . S
C791 C792 1.400 . S
C791 C796 1.490 . S
C792 H782 0.930 . S
C792 C791 1.400 . S
C792 C795 1.386 . S
H793 C809 0.930 . S
H794 C810 0.931 . S
C795 H783 0.929 . S
C795 C789 1.390 . S
C795 C792 1.386 . S
C796 C791 1.490 . S
C796 C798 1.395 . S
C796 C799 1.403 . S
H797 C803 0.930 . S
C798 H784 0.930 . S
C798 C796 1.395 . S
C798 C801 1.403 . S
C799 C796 1.403 . S
C799 C800 1.524 . S
C799 C803 1.400 . S
C800 H785 0.960 . S
C800 H786 0.960 . S
C800 H787 0.960 . S
C800 C799 1.524 . S
C801 C798 1.403 . S
C801 C802 1.392 . S
C801 C805 1.495 . S
C802 C801 1.392 . S
C802 C803 1.385 . S
C802 C804 1.478 . S
C803 H797 0.930 . S
C803 C799 1.400 . S
C803 C802 1.385 . S
C804 C802 1.478 . S
C804 C806 1.381 . S
C804 C810 1.383 . S
C805 C801 1.495 . S
C805 H811 0.959 . S
C805 H812 0.961 . S
C805 H813 0.960 . S
C806 C804 1.381 . S
C806 C807 1.394 . S
C806 H814 0.930 . S
C807 C806 1.394 . S
C807 C808 1.383 . S
C807 H815 0.929 . S
C808 C807 1.383 . S
C808 C809 1.377 . S
C809 H793 0.930 . S
C809 C808 1.377 . S
C809 C810 1.379 . S
C810 H794 0.931 . S
C810 C804 1.383 . S
C810 C809 1.379 . S
H811 C805 0.959 . S
H812 C805 0.961 . S
H813 C805 0.960 . S
H814 C806 0.930 . S
H815 C807 0.929 . S
H816 C824 0.929 . S
H817 C826 0.930 . S
H818 C828 0.930 . S
H819 C831 0.929 . S
H820 C834 0.930 . S
H821 C836 0.960 . S
H822 C836 0.960 . S
H823 C836 0.960 . S
C824 H816 0.929 . S
C824 C825 1.377 . S
C824 C826 1.384 . S
C825 C824 1.377 . S
C825 C831 1.390 . S
C826 H817 0.930 . S
C826 C824 1.384 . S
C826 C827 1.372 . S
C827 C826 1.372 . S
C827 C828 1.400 . S
C827 C832 1.490 . S
C828 H818 0.930 . S
C828 C827 1.400 . S
C828 C831 1.386 . S
H829 C845 0.930 . S
H830 C846 0.931 . S
C831 H819 0.929 . S
C831 C825 1.390 . S
C831 C828 1.386 . S
C832 C827 1.490 . S
C832 C834 1.395 . S
C832 C835 1.403 . S
H833 C839 0.930 . S
C834 H820 0.930 . S
C834 C832 1.395 . S
C834 C837 1.403 . S
C835 C832 1.403 . S
C835 C836 1.524 . S
C835 C839 1.400 . S
C836 H821 0.960 . S
C836 H822 0.960 . S
C836 H823 0.960 . S
C836 C835 1.524 . S
C837 C834 1.403 . S
C837 C838 1.392 . S
C837 C841 1.495 . S
C838 C837 1.392 . S
C838 C839 1.385 . S
C838 C840 1.478 . S
C839 H833 0.930 . S
C839 C835 1.400 . S
C839 C838 1.385 . S
C840 C838 1.478 . S
C840 C842 1.381 . S
C840 C846 1.383 . S
C841 C837 1.495 . S
C841 H847 0.959 . S
C841 H848 0.961 . S
C841 H849 0.960 . S
C842 C840 1.381 . S
C842 C843 1.394 . S
C842 H850 0.930 . S
C843 C842 1.394 . S
C843 C844 1.383 . S
C843 H851 0.929 . S
C844 C843 1.383 . S
C844 C845 1.377 . S
C845 H829 0.930 . S
C845 C844 1.377 . S
C845 C846 1.379 . S
C846 H830 0.931 . S
C846 C840 1.383 . S
C846 C845 1.379 . S
H847 C841 0.959 . S
H848 C841 0.961 . S
H849 C841 0.960 . S
H850 C842 0.930 . S
H851 C843 0.929 . S
H852 C860 0.929 . S
H853 C862 0.930 . S
H854 C864 0.930 . S
H855 C867 0.929 . S
H856 C870 0.930 . S
H857 C872 0.960 . S
H858 C872 0.960 . S
H859 C872 0.960 . S
C860 H852 0.929 . S
C860 C861 1.377 . S
C860 C862 1.384 . S
C861 C860 1.377 . S
C861 C867 1.390 . S
C862 H853 0.930 . S
C862 C860 1.384 . S
C862 C863 1.372 . S
C863 C862 1.372 . S
C863 C864 1.400 . S
C863 C868 1.490 . S
C864 H854 0.930 . S
C864 C863 1.400 . S
C864 C867 1.386 . S
H865 C881 0.930 . S
H866 C882 0.931 . S
C867 H855 0.929 . S
C867 C861 1.390 . S
C867 C864 1.386 . S
C868 C863 1.490 . S
C868 C870 1.395 . S
C868 C871 1.403 . S
H869 C875 0.930 . S
C870 H856 0.930 . S
C870 C868 1.395 . S
C870 C873 1.403 . S
C871 C868 1.403 . S
C871 C872 1.524 . S
C871 C875 1.400 . S
C872 H857 0.960 . S
C872 H858 0.960 . S
C872 H859 0.960 . S
C872 C871 1.524 . S
C873 C870 1.403 . S
C873 C874 1.392 . S
C873 C877 1.495 . S
C874 C873 1.392 . S
C874 C875 1.385 . S
C874 C876 1.478 . S
C875 H869 0.930 . S
C875 C871 1.400 . S
C875 C874 1.385 . S
C876 C874 1.478 . S
C876 C878 1.381 . S
C876 C882 1.383 . S
C877 C873 1.495 . S
C877 H883 0.959 . S
C877 H884 0.961 . S
C877 H885 0.960 . S
C878 C876 1.381 . S
C878 C879 1.394 . S
C878 H886 0.930 . S
C879 C878 1.394 . S
C879 C880 1.383 . S
C879 H887 0.929 . S
C880 C879 1.383 . S
C880 C881 1.377 . S
C881 H865 0.930 . S
C881 C880 1.377 . S
C881 C882 1.379 . S
C882 H866 0.931 . S
C882 C876 1.383 . S
C882 C881 1.379 . S
H883 C877 0.959 . S
H884 C877 0.961 . S
H885 C877 0.960 . S
H886 C878 0.930 . S
H887 C879 0.929 . S
H888 C896 0.929 . S
H889 C898 0.930 . S
H890 C900 0.930 . S
H891 C903 0.929 . S
H892 C906 0.930 . S
H893 C908 0.960 . S
H894 C908 0.960 . S
H895 C908 0.960 . S
C896 H888 0.929 . S
C896 C897 1.377 . S
C896 C898 1.384 . S
C897 C896 1.377 . S
C897 C903 1.390 . S
C898 H889 0.930 . S
C898 C896 1.384 . S
C898 C899 1.372 . S
C899 C898 1.372 . S
C899 C900 1.400 . S
C899 C904 1.490 . S
C900 H890 0.930 . S
C900 C899 1.400 . S
C900 C903 1.386 . S
H901 C917 0.930 . S
H902 C918 0.931 . S
C903 H891 0.929 . S
C903 C897 1.390 . S
C903 C900 1.386 . S
C904 C899 1.490 . S
C904 C906 1.395 . S
C904 C907 1.403 . S
H905 C911 0.930 . S
C906 H892 0.930 . S
C906 C904 1.395 . S
C906 C909 1.403 . S
C907 C904 1.403 . S
C907 C908 1.524 . S
C907 C911 1.400 . S
C908 H893 0.960 . S
C908 H894 0.960 . S
C908 H895 0.960 . S
C908 C907 1.524 . S
C909 C906 1.403 . S
C909 C910 1.392 . S
C909 C913 1.495 . S
C910 C909 1.392 . S
C910 C911 1.385 . S
C910 C912 1.478 . S
C911 H905 0.930 . S
C911 C907 1.400 . S
C911 C910 1.385 . S
C912 C910 1.478 . S
C912 C914 1.381 . S
C912 C918 1.383 . S
C913 C909 1.495 . S
C913 H919 0.959 . S
C913 H920 0.961 . S
C913 H921 0.960 . S
C914 C912 1.381 . S
C914 C915 1.394 . S
C914 H922 0.930 . S
C915 C914 1.394 . S
C915 C916 1.383 . S
C915 H923 0.929 . S
C916 C915 1.383 . S
C916 C917 1.377 . S
C917 H901 0.930 . S
C917 C916 1.377 . S
C917 C918 1.379 . S
C918 H902 0.931 . S
C918 C912 1.383 . S
C918 C917 1.379 . S
H919 C913 0.959 . S
H920 C913 0.961 . S
H921 C913 0.960 . S
H922 C914 0.930 . S
H923 C915 0.929 . S
H924 C932 0.929 . S
H925 C934 0.930 . S
H926 C936 0.930 . S
H927 C939 0.929 . S
H928 C942 0.930 . S
H929 C944 0.960 . S
H930 C944 0.960 . S
H931 C944 0.960 . S
C932 H924 0.929 . S
C932 C933 1.377 . S
C932 C934 1.384 . S
C933 C932 1.377 . S
C933 C939 1.390 . S
C934 H925 0.930 . S
C934 C932 1.384 . S
C934 C935 1.372 . S
C935 C934 1.372 . S
C935 C936 1.400 . S
C935 C940 1.490 . S
C936 H926 0.930 . S
C936 C935 1.400 . S
C936 C939 1.386 . S
H937 C953 0.930 . S
H938 C954 0.931 . S
C939 H927 0.929 . S
C939 C933 1.390 . S
C939 C936 1.386 . S
C940 C935 1.490 . S
C940 C942 1.395 . S
C940 C943 1.403 . S
H941 C947 0.930 . S
C942 H928 0.930 . S
C942 C940 1.395 . S
C942 C945 1.403 . S
C943 C940 1.403 . S
C943 C944 1.524 . S
C943 C947 1.400 . S
C944 H929 0.960 . S
C944 H930 0.960 . S
C944 H931 0.960 . S
C944 C943 1.524 . S
C945 C942 1.403 . S
C945 C946 1.392 . S
C945 C949 1.495 . S
C946 C945 1.392 . S
C946 C947 1.385 . S
C946 C948 1.478 . S
C947 H941 0.930 . S
C947 C943 1.400 . S
C947 C946 1.385 . S
C948 C946 1.478 . S
C948 C950 1.381 . S
C948 C954 1.383 . S
C949 C945 1.495 . S
C949 H955 0.959 . S
C949 H956 0.961 . S
C949 H957 0.960 . S
C950 C948 1.381 . S
C950 C951 1.394 . S
C950 H958 0.930 . S
C951 C950 1.394 . S
C951 C952 1.383 . S
C951 H959 0.929 . S
C952 C951 1.383 . S
C952 C953 1.377 . S
C953 H937 0.930 . S
C953 C952 1.377 . S
C953 C954 1.379 . S
C954 H938 0.931 . S
C954 C948 1.383 . S
C954 C953 1.379 . S
H955 C949 0.959 . S
H956 C949 0.961 . S
H957 C949 0.960 . S
H958 C950 0.930 . S
H959 C951 0.929 . S
H960 C968 0.929 . S
H961 C970 0.930 . S
H962 C972 0.930 . S
H963 C975 0.929 . S
H964 C978 0.930 . S
H965 C980 0.960 . S
H966 C980 0.960 . S
H967 C980 0.960 . S
C968 H960 0.929 . S
C968 C969 1.377 . S
C968 C970 1.384 . S
C969 C968 1.377 . S
C969 C975 1.390 . S
C970 H961 0.930 . S
C970 C968 1.384 . S
C970 C971 1.372 . S
C971 C970 1.372 . S
C971 C972 1.400 . S
C971 C976 1.490 . S
C972 H962 0.930 . S
C972 C971 1.400 . S
C972 C975 1.386 . S
H973 C989 0.930 . S
H974 C990 0.931 . S
C975 H963 0.929 . S
C975 C969 1.390 . S
C975 C972 1.386 . S
C976 C971 1.490 . S
C976 C978 1.395 . S
C976 C979 1.403 . S
H977 C983 0.930 . S
C978 H964 0.930 . S
C978 C976 1.395 . S
C978 C981 1.403 . S
C979 C976 1.403 . S
C979 C980 1.524 . S
C979 C983 1.400 . S
C980 H965 0.960 . S
C980 H966 0.960 . S
C980 H967 0.960 . S
C980 C979 1.524 . S
C981 C978 1.403 . S
C981 C982 1.392 . S
C981 C985 1.495 . S
C982 C981 1.392 . S
C982 C983 1.385 . S
C982 C984 1.478 . S
C983 H977 0.930 . S
C983 C979 1.400 . S
C983 C982 1.385 . S
C984 C982 1.478 . S
C984 C986 1.381 . S
C984 C990 1.383 . S
C985 C981 1.495 . S
C985 H991 0.959 . S
C985 H992 0.961 . S
C985 H993 0.960 . S
C986 C984 1.381 . S
C986 C987 1.394 . S
C986 H994 0.930 . S
C987 C986 1.394 . S
C987 C988 1.383 . S
C987 H995 0.929 . S
C988 C987 1.383 . S
C988 C989 1.377 . S
C989 H973 0.930 . S
C989 C988 1.377 . S
C989 C990 1.379 . S
C990 H974 0.931 . S
C990 C984 1.383 . S
C990 C989 1.379 . S
H991 C985 0.959 . S
H992 C985 0.961 . S
H993 C985 0.960 . S
H994 C986 0.930 . S
H995 C987 0.929 . S
H996 C1004 0.929 . S
H997 C1006 0.930 . S
H998 C1008 0.930 . S
H999 C1011 0.929 . S
H1000 C1014 0.930 . S
H1001 C1016 0.960 . S
H1002 C1016 0.960 . S
H1003 C1016 0.960 1_455 S
C1004 H996 0.929 . S
C1004 C1005 1.357 1_655 S
C1004 C1006 1.384 . S
C1005 C1004 1.357 1_455 S
C1005 C1011 1.410 . S
C1006 H997 0.930 . S
C1006 C1004 1.384 . S
C1006 C1007 1.372 1_655 S
C1007 C1006 1.372 1_455 S
C1007 C1008 1.400 . S
C1007 C1012 1.490 . S
C1008 H998 0.930 . S
C1008 C1007 1.400 . S
C1008 C1011 1.386 . S
H1009 C1025 0.930 . S
H1010 C1026 0.931 . S
C1011 H999 0.929 . S
C1011 C1005 1.410 . S
C1011 C1008 1.386 . S
C1012 C1007 1.490 . S
C1012 C1014 1.395 . S
C1012 C1015 1.403 . S
H1013 C1019 0.930 . S
C1014 H1000 0.930 . S
C1014 C1012 1.395 . S
C1014 C1017 1.403 . S
C1015 C1012 1.403 . S
C1015 C1016 1.524 1_455 S
C1015 C1019 1.400 . S
C1016 H1001 0.960 . S
C1016 H1002 0.960 . S
C1016 H1003 0.960 1_655 S
C1016 C1015 1.524 1_655 S
C1017 C1014 1.403 . S
C1017 C1018 1.392 . S
C1017 C1021 1.495 . S
C1018 C1017 1.392 . S
C1018 C1019 1.385 . S
C1018 C1020 1.478 . S
C1019 H1013 0.930 . S
C1019 C1015 1.400 . S
C1019 C1018 1.385 . S
C1020 C1018 1.478 . S
C1020 C1022 1.381 1_455 S
C1020 C1026 1.383 . S
C1021 C1017 1.495 . S
C1021 H1027 0.959 . S
C1021 H1028 0.961 . S
C1021 H1029 0.996 . S
C1022 C1020 1.381 1_655 S
C1022 C1023 1.394 . S
C1022 H1030 0.930 . S
C1023 C1022 1.394 . S
C1023 C1024 1.383 1_655 S
C1023 H1031 0.929 . S
C1024 C1023 1.383 1_455 S
C1024 C1025 1.377 . S
C1025 H1009 0.930 . S
C1025 C1024 1.377 . S
C1025 C1026 1.379 . S
C1026 H1010 0.931 . S
C1026 C1020 1.383 . S
C1026 C1025 1.379 . S
H1027 C1021 0.959 . S
H1028 C1021 0.961 . S
H1029 C1021 0.996 . S
H1030 C1022 0.930 . S
H1031 C1023 0.929 . S
H1032 C1040 0.929 . S
H1033 C1042 0.930 . S
H1034 C1044 0.930 . S
H1035 C1047 0.929 . S
H1036 C1050 0.930 . S
H1037 C1052 0.960 . S
H1038 C1052 0.960 . S
H1039 C1052 0.960 . S
C1040 H1032 0.929 . S
C1040 C1041 1.377 . S
C1040 C1042 1.384 . S
C1041 C1040 1.377 . S
C1041 C1047 1.390 . S
C1042 H1033 0.930 . S
C1042 C1040 1.384 . S
C1042 C1043 1.372 . S
C1043 C1042 1.372 . S
C1043 C1044 1.400 . S
C1043 C1048 1.490 . S
C1044 H1034 0.930 . S
C1044 C1043 1.400 . S
C1044 C1047 1.386 . S
H1045 C1061 0.930 . S
H1046 C1062 0.931 . S
C1047 H1035 0.929 . S
C1047 C1041 1.390 . S
C1047 C1044 1.386 . S
C1048 C1043 1.490 . S
C1048 C1050 1.395 . S
C1048 C1051 1.403 . S
H1049 C1055 0.930 . S
C1050 H1036 0.930 . S
C1050 C1048 1.395 . S
C1050 C1053 1.403 . S
C1051 C1048 1.403 . S
C1051 C1052 1.524 . S
C1051 C1055 1.400 . S
C1052 H1037 0.960 . S
C1052 H1038 0.960 . S
C1052 H1039 0.960 . S
C1052 C1051 1.524 . S
C1053 C1050 1.403 . S
C1053 C1054 1.392 . S
C1053 C1057 1.495 . S
C1054 C1053 1.392 . S
C1054 C1055 1.385 . S
C1054 C1056 1.478 . S
C1055 H1049 0.930 . S
C1055 C1051 1.400 . S
C1055 C1054 1.385 . S
C1056 C1054 1.478 . S
C1056 C1058 1.381 . S
C1056 C1062 1.383 . S
C1057 C1053 1.495 . S
C1057 H1063 0.959 . S
C1057 H1064 0.961 . S
C1057 H1065 0.960 . S
C1058 C1056 1.381 . S
C1058 C1059 1.394 . S
C1058 H1066 0.930 . S
C1059 C1058 1.394 . S
C1059 C1060 1.383 . S
C1059 H1067 0.929 . S
C1060 C1059 1.383 . S
C1060 C1061 1.377 . S
C1061 H1045 0.930 . S
C1061 C1060 1.377 . S
C1061 C1062 1.379 . S
C1062 H1046 0.931 . S
C1062 C1056 1.383 . S
C1062 C1061 1.379 . S
H1063 C1057 0.959 . S
H1064 C1057 0.961 . S
H1065 C1057 0.960 . S
H1066 C1058 0.930 . S
H1067 C1059 0.929 . S
H1068 C1076 0.929 . S
H1069 C1078 0.930 . S
H1070 C1080 0.930 . S
H1071 C1083 0.929 . S
H1072 C1086 0.930 . S
H1073 C1088 0.960 . S
H1074 C1088 0.960 . S
H1075 C1088 0.960 . S
C1076 H1068 0.929 . S
C1076 C1077 1.377 . S
C1076 C1078 1.384 . S
C1077 C1076 1.377 . S
C1077 C1083 1.390 . S
C1078 H1069 0.930 . S
C1078 C1076 1.384 . S
C1078 C1079 1.372 . S
C1079 C1078 1.372 . S
C1079 C1080 1.400 . S
C1079 C1084 1.490 . S
C1080 H1070 0.930 . S
C1080 C1079 1.400 . S
C1080 C1083 1.386 . S
H1081 C1097 0.930 . S
H1082 C1098 0.931 . S
C1083 H1071 0.929 . S
C1083 C1077 1.390 . S
C1083 C1080 1.386 . S
C1084 C1079 1.490 . S
C1084 C1086 1.395 . S
C1084 C1087 1.403 . S
H1085 C1091 0.930 . S
C1086 H1072 0.930 . S
C1086 C1084 1.395 . S
C1086 C1089 1.403 . S
C1087 C1084 1.403 . S
C1087 C1088 1.524 . S
C1087 C1091 1.400 . S
C1088 H1073 0.960 . S
C1088 H1074 0.960 . S
C1088 H1075 0.960 . S
C1088 C1087 1.524 . S
C1089 C1086 1.403 . S
C1089 C1090 1.392 . S
C1089 C1093 1.495 . S
C1090 C1089 1.392 . S
C1090 C1091 1.385 . S
C1090 C1092 1.478 . S
C1091 H1085 0.930 . S
C1091 C1087 1.400 . S
C1091 C1090 1.385 . S
C1092 C1090 1.478 . S
C1092 C1094 1.381 . S
C1092 C1098 1.383 . S
C1093 C1089 1.495 . S
C1093 H1099 0.959 . S
C1093 H1100 0.961 . S
C1093 H1101 0.960 . S
C1094 C1092 1.381 . S
C1094 C1095 1.394 . S
C1094 H1102 0.930 . S
C1095 C1094 1.394 . S
C1095 C1096 1.383 . S
C1095 H1103 0.929 . S
C1096 C1095 1.383 . S
C1096 C1097 1.377 . S
C1097 H1081 0.930 . S
C1097 C1096 1.377 . S
C1097 C1098 1.379 . S
C1098 H1082 0.931 . S
C1098 C1092 1.383 . S
C1098 C1097 1.379 . S
H1099 C1093 0.959 . S
H1100 C1093 0.961 . S
H1101 C1093 0.960 . S
H1102 C1094 0.930 . S
H1103 C1095 0.929 . S
H1104 C1112 0.929 . S
H1105 C1114 0.930 . S
H1106 C1116 0.930 . S
H1107 C1119 0.929 . S
H1108 C1122 0.930 . S
H1109 C1124 0.960 . S
H1110 C1124 0.960 1_556 S
H1111 C1124 0.960 . S
C1112 H1104 0.929 . S
C1112 C1113 1.377 1_556 S
C1112 C1114 1.384 . S
C1113 C1112 1.377 1_554 S
C1113 C1119 1.390 . S
C1114 H1105 0.930 . S
C1114 C1112 1.384 . S
C1114 C1115 1.405 . S
C1115 C1114 1.405 . S
C1115 C1116 1.362 1_556 S
C1115 C1120 1.495 . S
C1116 H1106 0.930 . S
C1116 C1115 1.362 1_554 S
C1116 C1119 1.386 . S
H1117 C1133 0.930 . S
H1118 C1134 0.931 . S
C1119 H1107 0.929 . S
C1119 C1113 1.390 . S
C1119 C1116 1.386 . S
C1120 C1115 1.495 . S
C1120 C1122 1.395 . S
C1120 C1123 1.403 . S
H1121 C1127 0.930 . S
C1122 H1108 0.930 . S
C1122 C1120 1.395 . S
C1122 C1125 1.403 . S
C1123 C1120 1.403 . S
C1123 C1124 1.524 1_556 S
C1123 C1127 1.400 . S
C1124 H1109 0.960 . S
C1124 H1110 0.960 1_554 S
C1124 H1111 0.960 . S
C1124 C1123 1.524 1_554 S
C1125 C1122 1.403 . S
C1125 C1126 1.392 . S
C1125 C1129 1.495 . S
C1126 C1125 1.392 . S
C1126 C1127 1.385 . S
C1126 C1128 1.478 . S
C1127 H1121 0.930 . S
C1127 C1123 1.400 . S
C1127 C1126 1.385 . S
C1128 C1126 1.478 . S
C1128 C1130 1.381 . S
C1128 C1134 1.383 1_556 S
C1129 C1125 1.495 . S
C1129 H1135 0.959 . S
C1129 H1136 0.961 . S
C1129 H1137 0.960 . S
C1130 C1128 1.381 . S
C1130 C1131 1.394 . S
C1130 H1138 0.930 . S
C1131 C1130 1.394 . S
C1131 C1132 1.383 . S
C1131 H1139 0.929 . S
C1132 C1131 1.383 . S
C1132 C1133 1.377 1_556 S
C1133 H1117 0.930 . S
C1133 C1132 1.377 1_554 S
C1133 C1134 1.379 . S
C1134 H1118 0.931 . S
C1134 C1128 1.383 1_554 S
C1134 C1133 1.379 . S
H1135 C1129 0.959 . S
H1136 C1129 0.961 . S
H1137 C1129 0.960 . S
H1138 C1130 0.930 . S
H1139 C1131 0.929 . S
H1140 C1148 0.929 . S
H1141 C1150 0.930 . S
H1142 C1152 0.930 . S
H1143 C1155 0.929 . S
H1144 C1158 0.930 . S
H1145 C1160 0.960 . S
H1146 C1160 0.960 . S
H1147 C1160 0.960 . S
C1148 H1140 0.929 . S
C1148 C1149 1.377 . S
C1148 C1150 1.384 . S
C1149 C1148 1.377 . S
C1149 C1155 1.390 . S
C1150 H1141 0.930 . S
C1150 C1148 1.384 . S
C1150 C1151 1.372 . S
C1151 C1150 1.372 . S
C1151 C1152 1.400 . S
C1151 C1156 1.490 . S
C1152 H1142 0.930 . S
C1152 C1151 1.400 . S
C1152 C1155 1.386 . S
H1153 C1169 0.930 . S
H1154 C1170 0.931 . S
C1155 H1143 0.929 . S
C1155 C1149 1.390 . S
C1155 C1152 1.386 . S
C1156 C1151 1.490 . S
C1156 C1158 1.395 . S
C1156 C1159 1.403 . S
H1157 C1163 0.930 . S
C1158 H1144 0.930 . S
C1158 C1156 1.395 . S
C1158 C1161 1.403 . S
C1159 C1156 1.403 . S
C1159 C1160 1.524 . S
C1159 C1163 1.400 . S
C1160 H1145 0.960 . S
C1160 H1146 0.960 . S
C1160 H1147 0.960 . S
C1160 C1159 1.524 . S
C1161 C1158 1.403 . S
C1161 C1162 1.392 . S
C1161 C1165 1.495 . S
C1162 C1161 1.392 . S
C1162 C1163 1.385 . S
C1162 C1164 1.478 . S
C1163 H1157 0.930 . S
C1163 C1159 1.400 . S
C1163 C1162 1.385 . S
C1164 C1162 1.478 . S
C1164 C1166 1.381 . S
C1164 C1170 1.383 . S
C1165 C1161 1.495 . S
C1165 H1171 0.959 . S
C1165 H1172 0.961 . S
C1165 H1173 0.960 . S
C1166 C1164 1.381 . S
C1166 C1167 1.394 . S
C1166 H1174 0.930 . S
C1167 C1166 1.394 . S
C1167 C1168 1.383 . S
C1167 H1175 0.929 . S
C1168 C1167 1.383 . S
C1168 C1169 1.377 . S
C1169 H1153 0.930 . S
C1169 C1168 1.377 . S
C1169 C1170 1.379 . S
C1170 H1154 0.931 . S
C1170 C1164 1.383 . S
C1170 C1169 1.379 . S
H1171 C1165 0.959 . S
H1172 C1165 0.961 . S
H1173 C1165 0.960 . S
H1174 C1166 0.930 . S
H1175 C1167 0.929 . S
H1176 C1184 0.929 . S
H1177 C1186 0.930 . S
H1178 C1188 0.930 . S
H1179 C1191 0.929 . S
H1180 C1194 0.930 . S
H1181 C1196 0.960 . S
H1182 C1196 0.960 . S
H1183 C1196 0.960 . S
C1184 H1176 0.929 . S
C1184 C1185 1.377 . S
C1184 C1186 1.384 . S
C1185 C1184 1.377 . S
C1185 C1191 1.390 . S
C1186 H1177 0.930 . S
C1186 C1184 1.384 . S
C1186 C1187 1.372 . S
C1187 C1186 1.372 . S
C1187 C1188 1.400 . S
C1187 C1192 1.490 . S
C1188 H1178 0.930 . S
C1188 C1187 1.400 . S
C1188 C1191 1.386 . S
H1189 C1205 0.930 . S
H1190 C1206 0.931 . S
C1191 H1179 0.929 . S
C1191 C1185 1.390 . S
C1191 C1188 1.386 . S
C1192 C1187 1.490 . S
C1192 C1194 1.395 . S
C1192 C1195 1.403 . S
H1193 C1199 0.930 . S
C1194 H1180 0.930 . S
C1194 C1192 1.395 . S
C1194 C1197 1.403 . S
C1195 C1192 1.403 . S
C1195 C1196 1.524 . S
C1195 C1199 1.400 . S
C1196 H1181 0.960 . S
C1196 H1182 0.960 . S
C1196 H1183 0.960 . S
C1196 C1195 1.524 . S
C1197 C1194 1.403 . S
C1197 C1198 1.392 . S
C1197 C1201 1.495 . S
C1198 C1197 1.392 . S
C1198 C1199 1.385 . S
C1198 C1200 1.478 . S
C1199 H1193 0.930 . S
C1199 C1195 1.400 . S
C1199 C1198 1.385 . S
C1200 C1198 1.478 . S
C1200 C1202 1.381 . S
C1200 C1206 1.383 . S
C1201 C1197 1.495 . S
C1201 H1207 0.959 . S
C1201 H1208 0.961 . S
C1201 H1209 0.960 . S
C1202 C1200 1.381 . S
C1202 C1203 1.394 . S
C1202 H1210 0.930 . S
C1203 C1202 1.394 . S
C1203 C1204 1.383 . S
C1203 H1211 0.929 . S
C1204 C1203 1.383 . S
C1204 C1205 1.377 . S
C1205 H1189 0.930 . S
C1205 C1204 1.377 . S
C1205 C1206 1.379 . S
C1206 H1190 0.931 . S
C1206 C1200 1.383 . S
C1206 C1205 1.379 . S
H1207 C1201 0.959 . S
H1208 C1201 0.961 . S
H1209 C1201 0.960 . S
H1210 C1202 0.930 . S
H1211 C1203 0.929 . S
H1212 C1220 0.929 . S
H1213 C1222 0.930 . S
H1214 C1224 0.930 . S
H1215 C1227 0.929 . S
H1216 C1230 0.930 . S
H1217 C1232 0.960 . S
H1218 C1232 0.960 . S
H1219 C1232 0.960 . S
C1220 H1212 0.929 . S
C1220 C1221 1.377 . S
C1220 C1222 1.384 . S
C1221 C1220 1.377 . S
C1221 C1227 1.390 . S
C1222 H1213 0.930 . S
C1222 C1220 1.384 . S
C1222 C1223 1.372 . S
C1223 C1222 1.372 . S
C1223 C1224 1.400 . S
C1223 C1228 1.490 . S
C1224 H1214 0.930 . S
C1224 C1223 1.400 . S
C1224 C1227 1.386 . S
H1225 C1241 0.930 . S
H1226 C1242 0.931 . S
C1227 H1215 0.929 . S
C1227 C1221 1.390 . S
C1227 C1224 1.386 . S
C1228 C1223 1.490 . S
C1228 C1230 1.395 . S
C1228 C1231 1.403 . S
H1229 C1235 0.930 . S
C1230 H1216 0.930 . S
C1230 C1228 1.395 . S
C1230 C1233 1.403 . S
C1231 C1228 1.403 . S
C1231 C1232 1.524 . S
C1231 C1235 1.400 . S
C1232 H1217 0.960 . S
C1232 H1218 0.960 . S
C1232 H1219 0.960 . S
C1232 C1231 1.524 . S
C1233 C1230 1.403 . S
C1233 C1234 1.392 . S
C1233 C1237 1.495 . S
C1234 C1233 1.392 . S
C1234 C1235 1.385 . S
C1234 C1236 1.478 . S
C1235 H1229 0.930 . S
C1235 C1231 1.400 . S
C1235 C1234 1.385 . S
C1236 C1234 1.478 . S
C1236 C1238 1.381 . S
C1236 C1242 1.383 . S
C1237 C1233 1.495 . S
C1237 H1243 0.959 . S
C1237 H1244 0.961 . S
C1237 H1245 0.960 . S
C1238 C1236 1.381 . S
C1238 C1239 1.394 . S
C1238 H1246 0.930 . S
C1239 C1238 1.394 . S
C1239 C1240 1.383 . S
C1239 H1247 0.929 . S
C1240 C1239 1.383 . S
C1240 C1241 1.377 . S
C1241 H1225 0.930 . S
C1241 C1240 1.377 . S
C1241 C1242 1.379 . S
C1242 H1226 0.931 . S
C1242 C1236 1.383 . S
C1242 C1241 1.379 . S
H1243 C1237 0.959 . S
H1244 C1237 0.961 . S
H1245 C1237 0.960 . S
H1246 C1238 0.930 . S
H1247 C1239 0.929 . S
H1248 C1256 0.929 . S
H1249 C1258 0.930 . S
H1250 C1260 0.930 . S
H1251 C1263 0.929 . S
H1252 C1266 0.930 . S
H1253 C1268 0.960 . S
H1254 C1268 0.960 . S
H1255 C1268 0.960 . S
C1256 H1248 0.929 . S
C1256 C1257 1.377 . S
C1256 C1258 1.384 . S
C1257 C1256 1.377 . S
C1257 C1263 1.390 . S
C1258 H1249 0.930 . S
C1258 C1256 1.384 . S
C1258 C1259 1.372 . S
C1259 C1258 1.372 . S
C1259 C1260 1.400 . S
C1259 C1264 1.490 . S
C1260 H1250 0.930 . S
C1260 C1259 1.400 . S
C1260 C1263 1.386 . S
H1261 C1277 0.930 . S
H1262 C1278 0.931 . S
C1263 H1251 0.929 . S
C1263 C1257 1.390 . S
C1263 C1260 1.386 . S
C1264 C1259 1.490 . S
C1264 C1266 1.395 . S
C1264 C1267 1.403 . S
H1265 C1271 0.930 . S
C1266 H1252 0.930 . S
C1266 C1264 1.395 . S
C1266 C1269 1.403 . S
C1267 C1264 1.403 . S
C1267 C1268 1.524 . S
C1267 C1271 1.400 . S
C1268 H1253 0.960 . S
C1268 H1254 0.960 . S
C1268 H1255 0.960 . S
C1268 C1267 1.524 . S
C1269 C1266 1.403 . S
C1269 C1270 1.392 . S
C1269 C1273 1.495 . S
C1270 C1269 1.392 . S
C1270 C1271 1.385 . S
C1270 C1272 1.478 . S
C1271 H1265 0.930 . S
C1271 C1267 1.400 . S
C1271 C1270 1.385 . S
C1272 C1270 1.478 . S
C1272 C1274 1.381 . S
C1272 C1278 1.383 . S
C1273 C1269 1.495 . S
C1273 H1279 0.959 . S
C1273 H1280 0.961 . S
C1273 H1281 0.960 . S
C1274 C1272 1.381 . S
C1274 C1275 1.394 . S
C1274 H1282 0.930 . S
C1275 C1274 1.394 . S
C1275 C1276 1.383 . S
C1275 H1283 0.929 . S
C1276 C1275 1.383 . S
C1276 C1277 1.377 . S
C1277 H1261 0.930 . S
C1277 C1276 1.377 . S
C1277 C1278 1.379 . S
C1278 H1262 0.931 . S
C1278 C1272 1.383 . S
C1278 C1277 1.379 . S
H1279 C1273 0.959 . S
H1280 C1273 0.961 . S
H1281 C1273 0.960 . S
H1282 C1274 0.930 . S
H1283 C1275 0.929 . S
H1284 C1292 0.929 . S
H1285 C1294 0.930 . S
H1286 C1296 0.930 . S
H1287 C1299 0.929 . S
H1288 C1302 0.930 . S
H1289 C1304 0.960 . S
H1290 C1304 0.960 . S
H1291 C1304 0.960 . S
C1292 H1284 0.929 . S
C1292 C1293 1.377 . S
C1292 C1294 1.384 . S
C1293 C1292 1.377 . S
C1293 C1299 1.390 . S
C1294 H1285 0.930 . S
C1294 C1292 1.384 . S
C1294 C1295 1.372 . S
C1295 C1294 1.372 . S
C1295 C1296 1.400 . S
C1295 C1300 1.490 . S
C1296 H1286 0.930 . S
C1296 C1295 1.400 . S
C1296 C1299 1.386 . S
H1297 C1313 0.930 . S
H1298 C1314 0.931 . S
C1299 H1287 0.929 . S
C1299 C1293 1.390 . S
C1299 C1296 1.386 . S
C1300 C1295 1.490 . S
C1300 C1302 1.395 . S
C1300 C1303 1.403 . S
H1301 C1307 0.930 . S
C1302 H1288 0.930 . S
C1302 C1300 1.395 . S
C1302 C1305 1.403 . S
C1303 C1300 1.403 . S
C1303 C1304 1.524 . S
C1303 C1307 1.400 . S
C1304 H1289 0.960 . S
C1304 H1290 0.960 . S
C1304 H1291 0.960 . S
C1304 C1303 1.524 . S
C1305 C1302 1.403 . S
C1305 C1306 1.392 . S
C1305 C1309 1.495 . S
C1306 C1305 1.392 . S
C1306 C1307 1.385 . S
C1306 C1308 1.478 . S
C1307 H1301 0.930 . S
C1307 C1303 1.400 . S
C1307 C1306 1.385 . S
C1308 C1306 1.478 . S
C1308 C1310 1.381 . S
C1308 C1314 1.383 . S
C1309 C1305 1.495 . S
C1309 H1315 0.959 . S
C1309 H1316 0.961 . S
C1309 H1317 0.960 . S
C1310 C1308 1.381 . S
C1310 C1311 1.394 . S
C1310 H1318 0.930 . S
C1311 C1310 1.394 . S
C1311 C1312 1.383 . S
C1311 H1319 0.929 . S
C1312 C1311 1.383 . S
C1312 C1313 1.377 . S
C1313 H1297 0.930 . S
C1313 C1312 1.377 . S
C1313 C1314 1.379 . S
C1314 H1298 0.931 . S
C1314 C1308 1.383 . S
C1314 C1313 1.379 . S
H1315 C1309 0.959 . S
H1316 C1309 0.961 . S
H1317 C1309 0.960 . S
H1318 C1310 0.930 . S
H1319 C1311 0.929 . S
H1320 C1328 0.929 . S
H1321 C1330 0.930 . S
H1322 C1332 0.930 . S
H1323 C1335 0.929 . S
H1324 C1338 0.930 . S
H1325 C1340 0.960 . S
H1326 C1340 0.960 . S
H1327 C1340 0.960 . S
C1328 H1320 0.929 . S
C1328 C1329 1.377 . S
C1328 C1330 1.384 . S
C1329 C1328 1.377 . S
C1329 C1335 1.390 . S
C1330 H1321 0.930 . S
C1330 C1328 1.384 . S
C1330 C1331 1.372 . S
C1331 C1330 1.372 . S
C1331 C1332 1.400 . S
C1331 C1336 1.490 . S
C1332 H1322 0.930 . S
C1332 C1331 1.400 . S
C1332 C1335 1.386 . S
H1333 C1349 0.930 . S
H1334 C1350 0.931 . S
C1335 H1323 0.929 . S
C1335 C1329 1.390 . S
C1335 C1332 1.386 . S
C1336 C1331 1.490 . S
C1336 C1338 1.395 . S
C1336 C1339 1.403 . S
H1337 C1343 0.930 . S
C1338 H1324 0.930 . S
C1338 C1336 1.395 . S
C1338 C1341 1.403 . S
C1339 C1336 1.403 . S
C1339 C1340 1.524 . S
C1339 C1343 1.400 . S
C1340 H1325 0.960 . S
C1340 H1326 0.960 . S
C1340 H1327 0.960 . S
C1340 C1339 1.524 . S
C1341 C1338 1.403 . S
C1341 C1342 1.392 . S
C1341 C1345 1.495 . S
C1342 C1341 1.392 . S
C1342 C1343 1.385 . S
C1342 C1344 1.478 . S
C1343 H1337 0.930 . S
C1343 C1339 1.400 . S
C1343 C1342 1.385 . S
C1344 C1342 1.478 . S
C1344 C1346 1.381 . S
C1344 C1350 1.383 . S
C1345 C1341 1.495 . S
C1345 H1351 0.959 . S
C1345 H1352 0.961 . S
C1345 H1353 0.960 . S
C1346 C1344 1.381 . S
C1346 C1347 1.394 . S
C1346 H1354 0.930 . S
C1347 C1346 1.394 . S
C1347 C1348 1.383 . S
C1347 H1355 0.929 . S
C1348 C1347 1.383 . S
C1348 C1349 1.377 . S
C1349 H1333 0.930 . S
C1349 C1348 1.377 . S
C1349 C1350 1.379 . S
C1350 H1334 0.931 . S
C1350 C1344 1.383 . S
C1350 C1349 1.379 . S
H1351 C1345 0.959 . S
H1352 C1345 0.961 . S
H1353 C1345 0.960 . S
H1354 C1346 0.930 . S
H1355 C1347 0.929 . S
H1356 C1364 0.929 . S
H1357 C1366 0.930 . S
H1358 C1368 0.930 . S
H1359 C1371 0.929 . S
H1360 C1374 0.930 . S
H1361 C1376 0.960 . S
H1362 C1376 0.960 . S
H1363 C1376 0.960 . S
C1364 H1356 0.929 . S
C1364 C1365 1.377 . S
C1364 C1366 1.384 . S
C1365 C1364 1.377 . S
C1365 C1371 1.390 . S
C1366 H1357 0.930 . S
C1366 C1364 1.384 . S
C1366 C1367 1.372 . S
C1367 C1366 1.372 . S
C1367 C1368 1.400 . S
C1367 C1372 1.490 . S
C1368 H1358 0.930 . S
C1368 C1367 1.400 . S
C1368 C1371 1.386 . S
H1369 C1385 0.930 . S
H1370 C1386 0.931 . S
C1371 H1359 0.929 . S
C1371 C1365 1.390 . S
C1371 C1368 1.386 . S
C1372 C1367 1.490 . S
C1372 C1374 1.395 . S
C1372 C1375 1.403 . S
H1373 C1379 0.930 . S
C1374 H1360 0.930 . S
C1374 C1372 1.395 . S
C1374 C1377 1.403 . S
C1375 C1372 1.403 . S
C1375 C1376 1.524 . S
C1375 C1379 1.400 . S
C1376 H1361 0.960 . S
C1376 H1362 0.960 . S
C1376 H1363 0.960 . S
C1376 C1375 1.524 . S
C1377 C1374 1.403 . S
C1377 C1378 1.392 . S
C1377 C1381 1.495 . S
C1378 C1377 1.392 . S
C1378 C1379 1.385 . S
C1378 C1380 1.478 . S
C1379 H1373 0.930 . S
C1379 C1375 1.400 . S
C1379 C1378 1.385 . S
C1380 C1378 1.478 . S
C1380 C1382 1.381 . S
C1380 C1386 1.383 . S
C1381 C1377 1.495 . S
C1381 H1387 0.959 . S
C1381 H1388 0.961 . S
C1381 H1389 0.960 . S
C1382 C1380 1.381 . S
C1382 C1383 1.394 . S
C1382 H1390 0.930 . S
C1383 C1382 1.394 . S
C1383 C1384 1.383 . S
C1383 H1391 0.929 . S
C1384 C1383 1.383 . S
C1384 C1385 1.377 . S
C1385 H1369 0.930 . S
C1385 C1384 1.377 . S
C1385 C1386 1.379 . S
C1386 H1370 0.931 . S
C1386 C1380 1.383 . S
C1386 C1385 1.379 . S
H1387 C1381 0.959 . S
H1388 C1381 0.961 . S
H1389 C1381 0.960 . S
H1390 C1382 0.930 . S
H1391 C1383 0.929 . S
H1392 C1400 0.929 . S
H1393 C1402 0.930 . S
H1394 C1404 0.930 . S
H1395 C1407 0.929 . S
H1396 C1410 0.930 . S
H1397 C1412 0.960 . S
H1398 C1412 0.960 . S
H1399 C1412 0.960 . S
C1400 H1392 0.929 . S
C1400 C1401 1.377 . S
C1400 C1402 1.384 . S
C1401 C1400 1.377 . S
C1401 C1407 1.390 . S
C1402 H1393 0.930 . S
C1402 C1400 1.384 . S
C1402 C1403 1.372 . S
C1403 C1402 1.372 . S
C1403 C1404 1.400 . S
C1403 C1408 1.490 . S
C1404 H1394 0.930 . S
C1404 C1403 1.400 . S
C1404 C1407 1.386 . S
H1405 C1421 0.930 . S
H1406 C1422 0.931 . S
C1407 H1395 0.929 . S
C1407 C1401 1.390 . S
C1407 C1404 1.386 . S
C1408 C1403 1.490 . S
C1408 C1410 1.395 . S
C1408 C1411 1.403 . S
H1409 C1415 0.930 . S
C1410 H1396 0.930 . S
C1410 C1408 1.395 . S
C1410 C1413 1.403 . S
C1411 C1408 1.403 . S
C1411 C1412 1.524 . S
C1411 C1415 1.400 . S
C1412 H1397 0.960 . S
C1412 H1398 0.960 . S
C1412 H1399 0.960 . S
C1412 C1411 1.524 . S
C1413 C1410 1.403 . S
C1413 C1414 1.392 . S
C1413 C1417 1.495 . S
C1414 C1413 1.392 . S
C1414 C1415 1.385 . S
C1414 C1416 1.478 . S
C1415 H1409 0.930 . S
C1415 C1411 1.400 . S
C1415 C1414 1.385 . S
C1416 C1414 1.478 . S
C1416 C1418 1.381 . S
C1416 C1422 1.383 . S
C1417 C1413 1.495 . S
C1417 H1423 0.959 . S
C1417 H1424 0.961 . S
C1417 H1425 0.960 . S
C1418 C1416 1.381 . S
C1418 C1419 1.394 . S
C1418 H1426 0.930 . S
C1419 C1418 1.394 . S
C1419 C1420 1.383 . S
C1419 H1427 0.929 . S
C1420 C1419 1.383 . S
C1420 C1421 1.377 . S
C1421 H1405 0.930 . S
C1421 C1420 1.377 . S
C1421 C1422 1.379 . S
C1422 H1406 0.931 . S
C1422 C1416 1.383 . S
C1422 C1421 1.379 . S
H1423 C1417 0.959 . S
H1424 C1417 0.961 . S
H1425 C1417 0.960 . S
H1426 C1418 0.930 . S
H1427 C1419 0.929 . S
H1428 C1436 0.929 . S
H1429 C1438 0.930 . S
H1430 C1440 0.930 . S
H1431 C1443 0.929 . S
H1432 C1446 0.930 . S
H1433 C1448 0.960 . S
H1434 C1448 0.960 . S
H1435 C1448 0.960 . S
C1436 H1428 0.929 . S
C1436 C1437 1.377 . S
C1436 C1438 1.384 . S
C1437 C1436 1.377 . S
C1437 C1443 1.390 . S
C1438 H1429 0.930 . S
C1438 C1436 1.384 . S
C1438 C1439 1.372 . S
C1439 C1438 1.372 . S
C1439 C1440 1.400 . S
C1439 C1444 1.490 . S
C1440 H1430 0.930 . S
C1440 C1439 1.400 . S
C1440 C1443 1.386 . S
H1441 C1457 0.930 . S
H1442 C1458 0.931 . S
C1443 H1431 0.929 . S
C1443 C1437 1.390 . S
C1443 C1440 1.386 . S
C1444 C1439 1.490 . S
C1444 C1446 1.395 . S
C1444 C1447 1.403 . S
H1445 C1451 0.930 . S
C1446 H1432 0.930 . S
C1446 C1444 1.395 . S
C1446 C1449 1.403 . S
C1447 C1444 1.403 . S
C1447 C1448 1.524 . S
C1447 C1451 1.400 . S
C1448 H1433 0.960 . S
C1448 H1434 0.960 . S
C1448 H1435 0.960 . S
C1448 C1447 1.524 . S
C1449 C1446 1.403 . S
C1449 C1450 1.392 . S
C1449 C1453 1.495 . S
C1450 C1449 1.392 . S
C1450 C1451 1.385 . S
C1450 C1452 1.478 . S
C1451 H1445 0.930 . S
C1451 C1447 1.400 . S
C1451 C1450 1.385 . S
C1452 C1450 1.478 . S
C1452 C1454 1.381 . S
C1452 C1458 1.383 . S
C1453 C1449 1.495 . S
C1453 H1459 0.959 . S
C1453 H1460 0.961 . S
C1453 H1461 0.960 . S
C1454 C1452 1.381 . S
C1454 C1455 1.394 . S
C1454 H1462 0.930 . S
C1455 C1454 1.394 . S
C1455 C1456 1.383 . S
C1455 H1463 0.929 . S
C1456 C1455 1.383 . S
C1456 C1457 1.377 . S
C1457 H1441 0.930 . S
C1457 C1456 1.377 . S
C1457 C1458 1.379 . S
C1458 H1442 0.931 . S
C1458 C1452 1.383 . S
C1458 C1457 1.379 . S
H1459 C1453 0.959 . S
H1460 C1453 0.961 . S
H1461 C1453 0.960 . S
H1462 C1454 0.930 . S
H1463 C1455 0.929 . S
H1464 C1472 0.929 . S
H1465 C1474 0.930 . S
H1466 C1476 0.930 . S
H1467 C1479 0.929 . S
H1468 C1482 0.930 . S
H1469 C1484 0.960 . S
H1470 C1484 0.960 . S
H1471 C1484 0.960 . S
C1472 H1464 0.929 . S
C1472 C1473 1.377 . S
C1472 C1474 1.384 . S
C1473 C1472 1.377 . S
C1473 C1479 1.390 . S
C1474 H1465 0.930 . S
C1474 C1472 1.384 . S
C1474 C1475 1.372 . S
C1475 C1474 1.372 . S
C1475 C1476 1.400 . S
C1475 C1480 1.490 . S
C1476 H1466 0.930 . S
C1476 C1475 1.400 . S
C1476 C1479 1.386 . S
H1477 C1493 0.930 . S
H1478 C1494 0.931 . S
C1479 H1467 0.929 . S
C1479 C1473 1.390 . S
C1479 C1476 1.386 . S
C1480 C1475 1.490 . S
C1480 C1482 1.395 . S
C1480 C1483 1.403 . S
H1481 C1487 0.930 . S
C1482 H1468 0.930 . S
C1482 C1480 1.395 . S
C1482 C1485 1.403 . S
C1483 C1480 1.403 . S
C1483 C1484 1.524 . S
C1483 C1487 1.400 . S
C1484 H1469 0.960 . S
C1484 H1470 0.960 . S
C1484 H1471 0.960 . S
C1484 C1483 1.524 . S
C1485 C1482 1.403 . S
C1485 C1486 1.392 . S
C1485 C1489 1.495 . S
C1486 C1485 1.392 . S
C1486 C1487 1.385 . S
C1486 C1488 1.478 . S
C1487 H1481 0.930 . S
C1487 C1483 1.400 . S
C1487 C1486 1.385 . S
C1488 C1486 1.478 . S
C1488 C1490 1.381 . S
C1488 C1494 1.383 . S
C1489 C1485 1.495 . S
C1489 H1495 0.959 . S
C1489 H1496 0.961 . S
C1489 H1497 0.960 . S
C1490 C1488 1.381 . S
C1490 C1491 1.394 . S
C1490 H1498 0.930 . S
C1491 C1490 1.394 . S
C1491 C1492 1.383 . S
C1491 H1499 0.929 . S
C1492 C1491 1.383 . S
C1492 C1493 1.377 . S
C1493 H1477 0.930 . S
C1493 C1492 1.377 . S
C1493 C1494 1.379 . S
C1494 H1478 0.931 . S
C1494 C1488 1.383 . S
C1494 C1493 1.379 . S
H1495 C1489 0.959 . S
H1496 C1489 0.961 . S
H1497 C1489 0.960 . S
H1498 C1490 0.930 . S
H1499 C1491 0.929 . S
H1500 C1508 0.929 . S
H1501 C1510 0.930 . S
H1502 C1512 0.930 . S
H1503 C1515 0.929 . S
H1504 C1518 0.930 . S
H1505 C1520 0.960 . S
H1506 C1520 0.960 . S
H1507 C1520 0.960 . S
C1508 H1500 0.929 . S
C1508 C1509 1.377 . S
C1508 C1510 1.384 . S
C1509 C1508 1.377 . S
C1509 C1515 1.390 . S
C1510 H1501 0.930 . S
C1510 C1508 1.384 . S
C1510 C1511 1.372 . S
C1511 C1510 1.372 . S
C1511 C1512 1.400 . S
C1511 C1516 1.490 . S
C1512 H1502 0.930 . S
C1512 C1511 1.400 . S
C1512 C1515 1.386 . S
H1513 C1529 0.930 . S
H1514 C1530 0.931 . S
C1515 H1503 0.929 . S
C1515 C1509 1.390 . S
C1515 C1512 1.386 . S
C1516 C1511 1.490 . S
C1516 C1518 1.395 . S
C1516 C1519 1.403 . S
H1517 C1523 0.930 . S
C1518 H1504 0.930 . S
C1518 C1516 1.395 . S
C1518 C1521 1.403 . S
C1519 C1516 1.403 . S
C1519 C1520 1.524 . S
C1519 C1523 1.400 . S
C1520 H1505 0.960 . S
C1520 H1506 0.960 . S
C1520 H1507 0.960 . S
C1520 C1519 1.524 . S
C1521 C1518 1.403 . S
C1521 C1522 1.392 . S
C1521 C1525 1.495 . S
C1522 C1521 1.392 . S
C1522 C1523 1.385 . S
C1522 C1524 1.478 . S
C1523 H1517 0.930 . S
C1523 C1519 1.400 . S
C1523 C1522 1.385 . S
C1524 C1522 1.478 . S
C1524 C1526 1.381 . S
C1524 C1530 1.383 . S
C1525 C1521 1.495 . S
C1525 H1531 0.959 . S
C1525 H1532 0.961 . S
C1525 H1533 0.960 . S
C1526 C1524 1.381 . S
C1526 C1527 1.394 . S
C1526 H1534 0.930 . S
C1527 C1526 1.394 . S
C1527 C1528 1.383 . S
C1527 H1535 0.929 . S
C1528 C1527 1.383 . S
C1528 C1529 1.377 . S
C1529 H1513 0.930 . S
C1529 C1528 1.377 . S
C1529 C1530 1.379 . S
C1530 H1514 0.931 . S
C1530 C1524 1.383 . S
C1530 C1529 1.379 . S
H1531 C1525 0.959 . S
H1532 C1525 0.961 . S
H1533 C1525 0.960 . S
H1534 C1526 0.930 . S
H1535 C1527 0.929 . S
H1536 C1544 0.929 . S
H1537 C1546 0.930 . S
H1538 C1548 0.930 . S
H1539 C1551 0.929 . S
H1540 C1554 0.930 . S
H1541 C1556 0.960 . S
H1542 C1556 0.960 . S
H1543 C1556 0.960 . S
C1544 H1536 0.929 . S
C1544 C1545 1.377 . S
C1544 C1546 1.384 . S
C1545 C1544 1.377 . S
C1545 C1551 1.390 . S
C1546 H1537 0.930 . S
C1546 C1544 1.384 . S
C1546 C1547 1.372 . S
C1547 C1546 1.372 . S
C1547 C1548 1.400 . S
C1547 C1552 1.490 . S
C1548 H1538 0.930 . S
C1548 C1547 1.400 . S
C1548 C1551 1.386 . S
H1549 C1565 0.930 . S
H1550 C1566 0.931 . S
C1551 H1539 0.929 . S
C1551 C1545 1.390 . S
C1551 C1548 1.386 . S
C1552 C1547 1.490 . S
C1552 C1554 1.395 . S
C1552 C1555 1.403 . S
H1553 C1559 0.930 . S
C1554 H1540 0.930 . S
C1554 C1552 1.395 . S
C1554 C1557 1.403 . S
C1555 C1552 1.403 . S
C1555 C1556 1.524 . S
C1555 C1559 1.400 . S
C1556 H1541 0.960 . S
C1556 H1542 0.960 . S
C1556 H1543 0.960 . S
C1556 C1555 1.524 . S
C1557 C1554 1.403 . S
C1557 C1558 1.392 . S
C1557 C1561 1.495 . S
C1558 C1557 1.392 . S
C1558 C1559 1.385 . S
C1558 C1560 1.478 . S
C1559 H1553 0.930 . S
C1559 C1555 1.400 . S
C1559 C1558 1.385 . S
C1560 C1558 1.478 . S
C1560 C1562 1.381 . S
C1560 C1566 1.383 . S
C1561 C1557 1.495 . S
C1561 H1567 0.959 . S
C1561 H1568 0.961 . S
C1561 H1569 0.960 . S
C1562 C1560 1.381 . S
C1562 C1563 1.394 . S
C1562 H1570 0.930 . S
C1563 C1562 1.394 . S
C1563 C1564 1.383 . S
C1563 H1571 0.929 . S
C1564 C1563 1.383 . S
C1564 C1565 1.377 . S
C1565 H1549 0.930 . S
C1565 C1564 1.377 . S
C1565 C1566 1.379 . S
C1566 H1550 0.931 . S
C1566 C1560 1.383 . S
C1566 C1565 1.379 . S
H1567 C1561 0.959 . S
H1568 C1561 0.961 . S
H1569 C1561 0.960 . S
H1570 C1562 0.930 . S
H1571 C1563 0.929 . S
H1572 C1580 0.929 . S
H1573 C1582 0.930 . S
H1574 C1584 0.930 . S
H1575 C1587 0.929 . S
H1576 C1590 0.930 . S
H1577 C1592 0.960 . S
H1578 C1592 0.960 . S
H1579 C1592 0.960 . S
C1580 H1572 0.929 . S
C1580 C1581 1.377 . S
C1580 C1582 1.384 . S
C1581 C1580 1.377 . S
C1581 C1587 1.390 . S
C1582 H1573 0.930 . S
C1582 C1580 1.384 . S
C1582 C1583 1.372 . S
C1583 C1582 1.372 . S
C1583 C1584 1.400 . S
C1583 C1588 1.490 . S
C1584 H1574 0.930 . S
C1584 C1583 1.400 . S
C1584 C1587 1.386 . S
H1585 C1601 0.930 . S
H1586 C1602 0.931 . S
C1587 H1575 0.929 . S
C1587 C1581 1.390 . S
C1587 C1584 1.386 . S
C1588 C1583 1.490 . S
C1588 C1590 1.395 . S
C1588 C1591 1.403 . S
H1589 C1595 0.930 . S
C1590 H1576 0.930 . S
C1590 C1588 1.395 . S
C1590 C1593 1.403 . S
C1591 C1588 1.403 . S
C1591 C1592 1.524 . S
C1591 C1595 1.400 . S
C1592 H1577 0.960 . S
C1592 H1578 0.960 . S
C1592 H1579 0.960 . S
C1592 C1591 1.524 . S
C1593 C1590 1.403 . S
C1593 C1594 1.392 . S
C1593 C1597 1.495 . S
C1594 C1593 1.392 . S
C1594 C1595 1.385 . S
C1594 C1596 1.478 . S
C1595 H1589 0.930 . S
C1595 C1591 1.400 . S
C1595 C1594 1.385 . S
C1596 C1594 1.478 . S
C1596 C1598 1.381 . S
C1596 C1602 1.383 . S
C1597 C1593 1.495 . S
C1597 H1603 0.959 . S
C1597 H1604 0.961 . S
C1597 H1605 0.960 . S
C1598 C1596 1.381 . S
C1598 C1599 1.394 . S
C1598 H1606 0.930 . S
C1599 C1598 1.394 . S
C1599 C1600 1.383 . S
C1599 H1607 0.929 . S
C1600 C1599 1.383 . S
C1600 C1601 1.377 . S
C1601 H1585 0.930 . S
C1601 C1600 1.377 . S
C1601 C1602 1.379 . S
C1602 H1586 0.931 . S
C1602 C1596 1.383 . S
C1602 C1601 1.379 . S
H1603 C1597 0.959 . S
H1604 C1597 0.961 . S
H1605 C1597 0.960 . S
H1606 C1598 0.930 . S
H1607 C1599 0.929 . S
H1608 C1616 0.929 . S
H1609 C1618 0.930 . S
H1610 C1620 0.930 . S
H1611 C1623 0.929 . S
H1612 C1626 0.930 . S
H1613 C1628 0.960 . S
H1614 C1628 0.960 . S
H1615 C1628 0.960 . S
C1616 H1608 0.929 . S
C1616 C1617 1.377 . S
C1616 C1618 1.384 . S
C1617 C1616 1.377 . S
C1617 C1623 1.390 . S
C1618 H1609 0.930 . S
C1618 C1616 1.384 . S
C1618 C1619 1.372 . S
C1619 C1618 1.372 . S
C1619 C1620 1.400 . S
C1619 C1624 1.490 . S
C1620 H1610 0.930 . S
C1620 C1619 1.400 . S
C1620 C1623 1.386 . S
H1621 C1637 0.930 . S
H1622 C1638 0.931 . S
C1623 H1611 0.929 . S
C1623 C1617 1.390 . S
C1623 C1620 1.386 . S
C1624 C1619 1.490 . S
C1624 C1626 1.395 . S
C1624 C1627 1.403 . S
H1625 C1631 0.930 . S
C1626 H1612 0.930 . S
C1626 C1624 1.395 . S
C1626 C1629 1.403 . S
C1627 C1624 1.403 . S
C1627 C1628 1.524 . S
C1627 C1631 1.400 . S
C1628 H1613 0.960 . S
C1628 H1614 0.960 . S
C1628 H1615 0.960 . S
C1628 C1627 1.524 . S
C1629 C1626 1.403 . S
C1629 C1630 1.392 . S
C1629 C1633 1.495 . S
C1630 C1629 1.392 . S
C1630 C1631 1.385 . S
C1630 C1632 1.478 . S
C1631 H1625 0.930 . S
C1631 C1627 1.400 . S
C1631 C1630 1.385 . S
C1632 C1630 1.478 . S
C1632 C1634 1.381 . S
C1632 C1638 1.383 . S
C1633 C1629 1.495 . S
C1633 H1639 0.959 . S
C1633 H1640 0.961 . S
C1633 H1641 0.960 . S
C1634 C1632 1.381 . S
C1634 C1635 1.394 . S
C1634 H1642 0.930 . S
C1635 C1634 1.394 . S
C1635 C1636 1.383 . S
C1635 H1643 0.929 . S
C1636 C1635 1.383 . S
C1636 C1637 1.377 . S
C1637 H1621 0.930 . S
C1637 C1636 1.377 . S
C1637 C1638 1.379 . S
C1638 H1622 0.931 . S
C1638 C1632 1.383 . S
C1638 C1637 1.379 . S
H1639 C1633 0.959 . S
H1640 C1633 0.961 . S
H1641 C1633 0.960 . S
H1642 C1634 0.930 . S
H1643 C1635 0.929 . S
H1644 C1652 0.929 . S
H1645 C1654 0.930 . S
H1646 C1656 0.930 . S
H1647 C1659 0.923 1_545 S
H1648 C1662 0.930 . S
H1649 C1664 0.960 . S
H1650 C1664 0.960 . S
H1651 C1664 0.960 . S
C1652 H1644 0.929 . S
C1652 C1653 1.377 . S
C1652 C1654 1.384 . S
C1653 C1652 1.377 . S
C1653 C1659 1.390 . S
C1654 H1645 0.930 . S
C1654 C1652 1.384 . S
C1654 C1655 1.372 . S
C1655 C1654 1.372 . S
C1655 C1656 1.400 . S
C1655 C1660 1.490 . S
C1656 H1646 0.930 . S
C1656 C1655 1.400 . S
C1656 C1659 1.386 . S
H1657 C1673 0.930 . S
H1658 C1674 0.931 . S
C1659 H1647 0.923 1_565 S
C1659 C1653 1.390 . S
C1659 C1656 1.386 . S
C1660 C1655 1.490 . S
C1660 C1662 1.395 . S
C1660 C1663 1.403 . S
H1661 C1667 0.930 . S
C1662 H1648 0.930 . S
C1662 C1660 1.395 . S
C1662 C1665 1.403 . S
C1663 C1660 1.403 . S
C1663 C1664 1.524 . S
C1663 C1667 1.400 . S
C1664 H1649 0.960 . S
C1664 H1650 0.960 . S
C1664 H1651 0.960 . S
C1664 C1663 1.524 . S
C1665 C1662 1.403 . S
C1665 C1666 1.392 . S
C1665 C1669 1.495 . S
C1666 C1665 1.392 . S
C1666 C1667 1.385 . S
C1666 C1668 1.478 . S
C1667 H1661 0.930 . S
C1667 C1663 1.400 . S
C1667 C1666 1.385 . S
C1668 C1666 1.478 . S
C1668 C1670 1.381 . S
C1668 C1674 1.383 . S
C1669 C1665 1.495 . S
C1669 H1675 0.959 . S
C1669 H1676 0.961 . S
C1669 H1677 0.960 . S
C1670 C1668 1.381 . S
C1670 C1671 1.394 . S
C1670 H1678 0.930 . S
C1671 C1670 1.394 . S
C1671 C1672 1.383 . S
C1671 H1679 0.929 . S
C1672 C1671 1.383 . S
C1672 C1673 1.377 . S
C1673 H1657 0.930 . S
C1673 C1672 1.377 . S
C1673 C1674 1.379 . S
C1674 H1658 0.931 . S
C1674 C1668 1.383 . S
C1674 C1673 1.379 . S
H1675 C1669 0.959 . S
H1676 C1669 0.961 . S
H1677 C1669 0.960 . S
H1678 C1670 0.930 . S
H1679 C1671 0.929 . S
H1680 C1688 0.929 . S
H1681 C1690 0.930 . S
H1682 C1692 0.930 . S
H1683 C1695 0.929 . S
H1684 C1698 0.930 . S
H1685 C1700 0.960 . S
H1686 C1700 0.960 . S
H1687 C1700 0.960 . S
C1688 H1680 0.929 . S
C1688 C1689 1.377 . S
C1688 C1690 1.384 . S
C1689 C1688 1.377 . S
C1689 C1695 1.390 . S
C1690 H1681 0.930 . S
C1690 C1688 1.384 . S
C1690 C1691 1.372 . S
C1691 C1690 1.372 . S
C1691 C1692 1.400 . S
C1691 C1696 1.490 . S
C1692 H1682 0.930 . S
C1692 C1691 1.400 . S
C1692 C1695 1.386 . S
H1693 C1709 0.930 . S
H1694 C1710 0.931 . S
C1695 H1683 0.929 . S
C1695 C1689 1.390 . S
C1695 C1692 1.386 . S
C1696 C1691 1.490 . S
C1696 C1698 1.395 . S
C1696 C1699 1.403 . S
H1697 C1703 0.930 . S
C1698 H1684 0.930 . S
C1698 C1696 1.395 . S
C1698 C1701 1.403 . S
C1699 C1696 1.403 . S
C1699 C1700 1.524 . S
C1699 C1703 1.400 . S
C1700 H1685 0.960 . S
C1700 H1686 0.960 . S
C1700 H1687 0.960 . S
C1700 C1699 1.524 . S
C1701 C1698 1.403 . S
C1701 C1702 1.392 . S
C1701 C1705 1.495 . S
C1702 C1701 1.392 . S
C1702 C1703 1.385 . S
C1702 C1704 1.478 . S
C1703 H1697 0.930 . S
C1703 C1699 1.400 . S
C1703 C1702 1.385 . S
C1704 C1702 1.478 . S
C1704 C1706 1.381 . S
C1704 C1710 1.383 . S
C1705 C1701 1.495 . S
C1705 H1711 0.959 . S
C1705 H1712 0.961 . S
C1705 H1713 0.960 . S
C1706 C1704 1.381 . S
C1706 C1707 1.394 . S
C1706 H1714 0.930 . S
C1707 C1706 1.394 . S
C1707 C1708 1.383 . S
C1707 H1715 0.929 . S
C1708 C1707 1.383 . S
C1708 C1709 1.377 . S
C1709 H1693 0.930 . S
C1709 C1708 1.377 . S
C1709 C1710 1.379 . S
C1710 H1694 0.931 . S
C1710 C1704 1.383 . S
C1710 C1709 1.379 . S
H1711 C1705 0.959 . S
H1712 C1705 0.961 . S
H1713 C1705 0.960 . S
H1714 C1706 0.930 . S
H1715 C1707 0.929 . S
H1716 C1724 0.929 . S
H1717 C1726 0.930 . S
H1718 C1728 0.930 . S
H1719 C1731 0.929 . S
H1720 C1734 0.930 . S
H1721 C1736 0.960 . S
H1722 C1736 0.960 . S
H1723 C1736 0.960 . S
C1724 H1716 0.929 . S
C1724 C1725 1.377 . S
C1724 C1726 1.384 . S
C1725 C1724 1.377 . S
C1725 C1731 1.390 . S
C1726 H1717 0.930 . S
C1726 C1724 1.384 . S
C1726 C1727 1.372 . S
C1727 C1726 1.372 . S
C1727 C1728 1.400 . S
C1727 C1732 1.490 . S
C1728 H1718 0.930 . S
C1728 C1727 1.400 . S
C1728 C1731 1.386 . S
H1729 C1745 0.930 . S
H1730 C1746 0.931 . S
C1731 H1719 0.929 . S
C1731 C1725 1.390 . S
C1731 C1728 1.386 . S
C1732 C1727 1.490 . S
C1732 C1734 1.395 . S
C1732 C1735 1.403 . S
H1733 C1739 0.930 . S
C1734 H1720 0.930 . S
C1734 C1732 1.395 . S
C1734 C1737 1.403 . S
C1735 C1732 1.403 . S
C1735 C1736 1.524 . S
C1735 C1739 1.400 . S
C1736 H1721 0.960 . S
C1736 H1722 0.960 . S
C1736 H1723 0.960 . S
C1736 C1735 1.524 . S
C1737 C1734 1.403 . S
C1737 C1738 1.392 . S
C1737 C1741 1.495 . S
C1738 C1737 1.392 . S
C1738 C1739 1.385 . S
C1738 C1740 1.478 . S
C1739 H1733 0.930 . S
C1739 C1735 1.400 . S
C1739 C1738 1.385 . S
C1740 C1738 1.478 . S
C1740 C1742 1.381 . S
C1740 C1746 1.383 . S
C1741 C1737 1.495 . S
C1741 H1747 0.959 . S
C1741 H1748 0.961 . S
C1741 H1749 0.960 . S
C1742 C1740 1.381 . S
C1742 C1743 1.394 . S
C1742 H1750 0.930 . S
C1743 C1742 1.394 . S
C1743 C1744 1.383 . S
C1743 H1751 0.929 . S
C1744 C1743 1.383 . S
C1744 C1745 1.377 . S
C1745 H1729 0.930 . S
C1745 C1744 1.377 . S
C1745 C1746 1.379 . S
C1746 H1730 0.931 . S
C1746 C1740 1.383 . S
C1746 C1745 1.379 . S
H1747 C1741 0.959 . S
H1748 C1741 0.961 . S
H1749 C1741 0.960 . S
H1750 C1742 0.930 . S
H1751 C1743 0.929 . S
H1752 C1760 0.929 . S
H1753 C1762 0.930 . S
H1754 C1764 0.930 . S
H1755 C1767 0.929 . S
H1756 C1770 0.930 . S
H1757 C1772 0.960 . S
H1758 C1772 0.960 . S
H1759 C1772 0.960 . S
C1760 H1752 0.929 . S
C1760 C1761 1.377 . S
C1760 C1762 1.384 . S
C1761 C1760 1.377 . S
C1761 C1767 1.390 . S
C1762 H1753 0.930 . S
C1762 C1760 1.384 . S
C1762 C1763 1.372 . S
C1763 C1762 1.372 . S
C1763 C1764 1.400 . S
C1763 C1768 1.490 . S
C1764 H1754 0.930 . S
C1764 C1763 1.400 . S
C1764 C1767 1.386 . S
H1765 C1781 0.930 . S
H1766 C1782 0.931 . S
C1767 H1755 0.929 . S
C1767 C1761 1.390 . S
C1767 C1764 1.386 . S
C1768 C1763 1.490 . S
C1768 C1770 1.395 . S
C1768 C1771 1.403 . S
H1769 C1775 0.930 . S
C1770 H1756 0.930 . S
C1770 C1768 1.395 . S
C1770 C1773 1.403 . S
C1771 C1768 1.403 . S
C1771 C1772 1.524 . S
C1771 C1775 1.400 . S
C1772 H1757 0.960 . S
C1772 H1758 0.960 . S
C1772 H1759 0.960 . S
C1772 C1771 1.524 . S
C1773 C1770 1.403 . S
C1773 C1774 1.392 . S
C1773 C1777 1.495 . S
C1774 C1773 1.392 . S
C1774 C1775 1.385 . S
C1774 C1776 1.478 . S
C1775 H1769 0.930 . S
C1775 C1771 1.400 . S
C1775 C1774 1.385 . S
C1776 C1774 1.478 . S
C1776 C1778 1.381 . S
C1776 C1782 1.383 . S
C1777 C1773 1.495 . S
C1777 H1783 0.959 . S
C1777 H1784 0.961 . S
C1777 H1785 0.960 . S
C1778 C1776 1.381 . S
C1778 C1779 1.394 . S
C1778 H1786 0.930 . S
C1779 C1778 1.394 . S
C1779 C1780 1.383 . S
C1779 H1787 0.929 1_655 S
C1780 C1779 1.383 . S
C1780 C1781 1.377 . S
C1781 H1765 0.930 . S
C1781 C1780 1.377 . S
C1781 C1782 1.379 . S
C1782 H1766 0.931 . S
C1782 C1776 1.383 . S
C1782 C1781 1.379 . S
H1783 C1777 0.959 . S
H1784 C1777 0.961 . S
H1785 C1777 0.960 . S
H1786 C1778 0.930 . S
H1787 C1779 0.929 1_455 S
H1788 C1796 0.929 . S
H1789 C1798 0.930 . S
H1790 C1800 0.930 . S
H1791 C1803 0.929 . S
H1792 C1806 0.930 . S
H1793 C1808 0.960 . S
H1794 C1808 0.960 . S
H1795 C1808 0.960 . S
C1796 H1788 0.929 . S
C1796 C1797 1.377 . S
C1796 C1798 1.384 . S
C1797 C1796 1.377 . S
C1797 C1803 1.390 . S
C1798 H1789 0.930 . S
C1798 C1796 1.384 . S
C1798 C1799 1.372 . S
C1799 C1798 1.372 . S
C1799 C1800 1.400 . S
C1799 C1804 1.490 . S
C1800 H1790 0.930 . S
C1800 C1799 1.400 . S
C1800 C1803 1.386 . S
H1801 C1817 0.930 . S
H1802 C1818 0.931 . S
C1803 H1791 0.929 . S
C1803 C1797 1.390 . S
C1803 C1800 1.386 . S
C1804 C1799 1.490 . S
C1804 C1806 1.395 . S
C1804 C1807 1.403 . S
H1805 C1811 0.930 . S
C1806 H1792 0.930 . S
C1806 C1804 1.395 . S
C1806 C1809 1.403 . S
C1807 C1804 1.403 . S
C1807 C1808 1.524 . S
C1807 C1811 1.400 . S
C1808 H1793 0.960 . S
C1808 H1794 0.960 . S
C1808 H1795 0.960 . S
C1808 C1807 1.524 . S
C1809 C1806 1.403 . S
C1809 C1810 1.392 . S
C1809 C1813 1.495 . S
C1810 C1809 1.392 . S
C1810 C1811 1.385 . S
C1810 C1812 1.478 . S
C1811 H1805 0.930 . S
C1811 C1807 1.400 . S
C1811 C1810 1.385 . S
C1812 C1810 1.478 . S
C1812 C1814 1.381 . S
C1812 C1818 1.383 . S
C1813 C1809 1.495 . S
C1813 H1819 0.959 . S
C1813 H1820 0.961 . S
C1813 H1821 0.960 . S
C1814 C1812 1.381 . S
C1814 C1815 1.394 . S
C1814 H1822 0.930 . S
C1815 C1814 1.394 . S
C1815 C1816 1.383 . S
C1815 H1823 0.929 . S
C1816 C1815 1.383 . S
C1816 C1817 1.377 . S
C1817 H1801 0.930 . S
C1817 C1816 1.377 . S
C1817 C1818 1.379 . S
C1818 H1802 0.931 . S
C1818 C1812 1.383 . S
C1818 C1817 1.379 . S
H1819 C1813 0.959 . S
H1820 C1813 0.961 . S
H1821 C1813 0.960 . S
H1822 C1814 0.930 . S
H1823 C1815 0.929 . S
H1824 C1832 0.929 . S
H1825 C1834 0.930 . S
H1826 C1836 0.930 . S
H1827 C1839 0.929 . S
H1828 C1842 0.930 . S
H1829 C1844 0.960 . S
H1830 C1844 0.960 . S
H1831 C1844 0.960 . S
C1832 H1824 0.929 . S
C1832 C1833 1.377 . S
C1832 C1834 1.384 . S
C1833 C1832 1.377 . S
C1833 C1839 1.390 . S
C1834 H1825 0.930 . S
C1834 C1832 1.384 . S
C1834 C1835 1.372 . S
C1835 C1834 1.372 . S
C1835 C1836 1.400 . S
C1835 C1840 1.490 . S
C1836 H1826 0.930 . S
C1836 C1835 1.400 . S
C1836 C1839 1.386 . S
H1837 C1853 0.930 . S
H1838 C1854 0.931 . S
C1839 H1827 0.929 . S
C1839 C1833 1.390 . S
C1839 C1836 1.386 . S
C1840 C1835 1.490 . S
C1840 C1842 1.395 . S
C1840 C1843 1.403 . S
H1841 C1847 0.930 . S
C1842 H1828 0.930 . S
C1842 C1840 1.395 . S
C1842 C1845 1.403 . S
C1843 C1840 1.403 . S
C1843 C1844 1.524 . S
C1843 C1847 1.400 . S
C1844 H1829 0.960 . S
C1844 H1830 0.960 . S
C1844 H1831 0.960 . S
C1844 C1843 1.524 . S
C1845 C1842 1.403 . S
C1845 C1846 1.392 . S
C1845 C1849 1.495 . S
C1846 C1845 1.392 . S
C1846 C1847 1.385 . S
C1846 C1848 1.478 . S
C1847 H1841 0.930 . S
C1847 C1843 1.400 . S
C1847 C1846 1.385 . S
C1848 C1846 1.478 . S
C1848 C1850 1.381 . S
C1848 C1854 1.383 . S
C1849 C1845 1.495 . S
C1849 H1855 0.959 . S
C1849 H1856 0.961 . S
C1849 H1857 0.960 . S
C1850 C1848 1.381 . S
C1850 C1851 1.394 . S
C1850 H1858 0.930 . S
C1851 C1850 1.394 . S
C1851 C1852 1.383 . S
C1851 H1859 0.929 . S
C1852 C1851 1.383 . S
C1852 C1853 1.377 . S
C1853 H1837 0.930 . S
C1853 C1852 1.377 . S
C1853 C1854 1.379 . S
C1854 H1838 0.931 . S
C1854 C1848 1.383 . S
C1854 C1853 1.379 . S
H1855 C1849 0.959 . S
H1856 C1849 0.961 . S
H1857 C1849 0.960 . S
H1858 C1850 0.930 . S
H1859 C1851 0.929 . S
H1860 C1868 0.929 . S
H1861 C1870 0.930 . S
H1862 C1872 0.930 . S
H1863 C1875 0.929 . S
H1864 C1878 0.930 . S
H1865 C1880 0.960 . S
H1866 C1880 0.960 . S
H1867 C1880 0.960 . S
C1868 H1860 0.929 . S
C1868 C1869 1.377 . S
C1868 C1870 1.384 . S
C1869 C1868 1.377 . S
C1869 C1875 1.390 . S
C1870 H1861 0.930 . S
C1870 C1868 1.384 . S
C1870 C1871 1.372 . S
C1871 C1870 1.372 . S
C1871 C1872 1.400 . S
C1871 C1876 1.490 . S
C1872 H1862 0.930 . S
C1872 C1871 1.400 . S
C1872 C1875 1.386 . S
H1873 C1889 0.930 . S
H1874 C1890 0.931 . S
C1875 H1863 0.929 . S
C1875 C1869 1.390 . S
C1875 C1872 1.386 . S
C1876 C1871 1.490 . S
C1876 C1878 1.395 . S
C1876 C1879 1.403 . S
H1877 C1883 0.930 . S
C1878 H1864 0.930 . S
C1878 C1876 1.395 . S
C1878 C1881 1.403 . S
C1879 C1876 1.403 . S
C1879 C1880 1.524 . S
C1879 C1883 1.400 . S
C1880 H1865 0.960 . S
C1880 H1866 0.960 . S
C1880 H1867 0.960 . S
C1880 C1879 1.524 . S
C1881 C1878 1.403 . S
C1881 C1882 1.392 . S
C1881 C1885 1.495 . S
C1882 C1881 1.392 . S
C1882 C1883 1.385 . S
C1882 C1884 1.478 . S
C1883 H1877 0.930 . S
C1883 C1879 1.400 . S
C1883 C1882 1.385 . S
C1884 C1882 1.478 . S
C1884 C1886 1.381 . S
C1884 C1890 1.383 . S
C1885 C1881 1.495 . S
C1885 H1891 0.959 . S
C1885 H1892 0.961 . S
C1885 H1893 0.960 . S
C1886 C1884 1.381 . S
C1886 C1887 1.394 . S
C1886 H1894 0.930 . S
C1887 C1886 1.394 . S
C1887 C1888 1.383 . S
C1887 H1895 0.929 . S
C1888 C1887 1.383 . S
C1888 C1889 1.377 . S
C1889 H1873 0.930 . S
C1889 C1888 1.377 . S
C1889 C1890 1.379 . S
C1890 H1874 0.931 . S
C1890 C1884 1.383 . S
C1890 C1889 1.379 . S
H1891 C1885 0.959 . S
H1892 C1885 0.961 . S
H1893 C1885 0.960 . S
H1894 C1886 0.930 . S
H1895 C1887 0.929 . S
H1896 C1904 0.929 . S
H1897 C1906 0.930 . S
H1898 C1908 0.930 . S
H1899 C1911 0.929 . S
H1900 C1914 0.930 . S
H1901 C1916 0.960 . S
H1902 C1916 0.960 . S
H1903 C1916 0.960 . S
C1904 H1896 0.929 . S
C1904 C1905 1.377 . S
C1904 C1906 1.384 . S
C1905 C1904 1.377 . S
C1905 C1911 1.390 . S
C1906 H1897 0.930 . S
C1906 C1904 1.384 . S
C1906 C1907 1.372 . S
C1907 C1906 1.372 . S
C1907 C1908 1.400 . S
C1907 C1912 1.490 . S
C1908 H1898 0.930 . S
C1908 C1907 1.400 . S
C1908 C1911 1.386 . S
H1909 C1925 0.930 . S
H1910 C1926 0.931 . S
C1911 H1899 0.929 . S
C1911 C1905 1.390 . S
C1911 C1908 1.386 . S
C1912 C1907 1.490 . S
C1912 C1914 1.395 . S
C1912 C1915 1.403 . S
H1913 C1919 0.930 . S
C1914 H1900 0.930 . S
C1914 C1912 1.395 . S
C1914 C1917 1.403 . S
C1915 C1912 1.403 . S
C1915 C1916 1.524 . S
C1915 C1919 1.400 . S
C1916 H1901 0.960 . S
C1916 H1902 0.960 . S
C1916 H1903 0.960 . S
C1916 C1915 1.524 . S
C1917 C1914 1.403 . S
C1917 C1918 1.392 . S
C1917 C1921 1.495 . S
C1918 C1917 1.392 . S
C1918 C1919 1.385 . S
C1918 C1920 1.478 . S
C1919 H1913 0.930 . S
C1919 C1915 1.400 . S
C1919 C1918 1.385 . S
C1920 C1918 1.478 . S
C1920 C1922 1.381 . S
C1920 C1926 1.383 . S
C1921 C1917 1.495 . S
C1921 H1927 0.959 . S
C1921 H1928 0.961 . S
C1921 H1929 0.960 . S
C1922 C1920 1.381 . S
C1922 C1923 1.394 . S
C1922 H1930 0.930 . S
C1923 C1922 1.394 . S
C1923 C1924 1.383 . S
C1923 H1931 0.929 . S
C1924 C1923 1.383 . S
C1924 C1925 1.377 . S
C1925 H1909 0.930 . S
C1925 C1924 1.377 . S
C1925 C1926 1.379 . S
C1926 H1910 0.931 . S
C1926 C1920 1.383 . S
C1926 C1925 1.379 . S
H1927 C1921 0.959 . S
H1928 C1921 0.961 . S
H1929 C1921 0.960 . S
H1930 C1922 0.930 . S
H1931 C1923 0.929 . S
H1932 C1940 0.929 . S
H1933 C1942 0.930 . S
H1934 C1944 0.930 . S
H1935 C1947 0.929 . S
H1936 C1950 0.930 . S
H1937 C1952 0.960 . S
H1938 C1952 0.960 . S
H1939 C1952 0.960 . S
C1940 H1932 0.929 . S
C1940 C1941 1.377 . S
C1940 C1942 1.384 . S
C1941 C1940 1.377 . S
C1941 C1947 1.390 . S
C1942 H1933 0.930 . S
C1942 C1940 1.384 . S
C1942 C1943 1.372 . S
C1943 C1942 1.372 . S
C1943 C1944 1.400 . S
C1943 C1948 1.490 . S
C1944 H1934 0.930 . S
C1944 C1943 1.400 . S
C1944 C1947 1.386 . S
H1945 C1961 0.930 . S
H1946 C1962 0.931 . S
C1947 H1935 0.929 . S
C1947 C1941 1.390 . S
C1947 C1944 1.386 . S
C1948 C1943 1.490 . S
C1948 C1950 1.395 . S
C1948 C1951 1.403 . S
H1949 C1955 0.930 . S
C1950 H1936 0.930 . S
C1950 C1948 1.395 . S
C1950 C1953 1.403 . S
C1951 C1948 1.403 . S
C1951 C1952 1.524 . S
C1951 C1955 1.400 . S
C1952 H1937 0.960 . S
C1952 H1938 0.960 . S
C1952 H1939 0.960 . S
C1952 C1951 1.524 . S
C1953 C1950 1.403 . S
C1953 C1954 1.392 . S
C1953 C1957 1.495 . S
C1954 C1953 1.392 . S
C1954 C1955 1.385 . S
C1954 C1956 1.478 . S
C1955 H1949 0.930 . S
C1955 C1951 1.400 . S
C1955 C1954 1.385 . S
C1956 C1954 1.478 . S
C1956 C1958 1.381 . S
C1956 C1962 1.383 . S
C1957 C1953 1.495 . S
C1957 H1963 0.959 . S
C1957 H1964 0.961 . S
C1957 H1965 0.960 . S
C1958 C1956 1.381 . S
C1958 C1959 1.394 . S
C1958 H1966 0.930 . S
C1959 C1958 1.394 . S
C1959 C1960 1.383 . S
C1959 H1967 0.929 . S
C1960 C1959 1.383 . S
C1960 C1961 1.377 . S
C1961 H1945 0.930 . S
C1961 C1960 1.377 . S
C1961 C1962 1.379 . S
C1962 H1946 0.931 . S
C1962 C1956 1.383 . S
C1962 C1961 1.379 . S
H1963 C1957 0.959 . S
H1964 C1957 0.961 . S
H1965 C1957 0.960 . S
H1966 C1958 0.930 . S
H1967 C1959 0.929 . S
H1968 C1976 0.929 . S
H1969 C1978 0.930 . S
H1970 C1980 0.930 . S
H1971 C1983 0.929 . S
H1972 C1986 0.930 . S
H1973 C1988 0.960 . S
H1974 C1988 0.960 . S
H1975 C1988 0.960 . S
C1976 H1968 0.929 . S
C1976 C1977 1.377 . S
C1976 C1978 1.384 . S
C1977 C1976 1.377 . S
C1977 C1983 1.390 . S
C1978 H1969 0.930 . S
C1978 C1976 1.384 . S
C1978 C1979 1.372 . S
C1979 C1978 1.372 . S
C1979 C1980 1.400 . S
C1979 C1984 1.490 . S
C1980 H1970 0.930 . S
C1980 C1979 1.400 . S
C1980 C1983 1.386 . S
H1981 C1997 0.930 . S
H1982 C1998 0.931 . S
C1983 H1971 0.929 . S
C1983 C1977 1.390 . S
C1983 C1980 1.386 . S
C1984 C1979 1.490 . S
C1984 C1986 1.395 . S
C1984 C1987 1.403 . S
H1985 C1991 0.930 . S
C1986 H1972 0.930 . S
C1986 C1984 1.395 . S
C1986 C1989 1.403 . S
C1987 C1984 1.403 . S
C1987 C1988 1.524 . S
C1987 C1991 1.400 . S
C1988 H1973 0.960 . S
C1988 H1974 0.960 . S
C1988 H1975 0.960 . S
C1988 C1987 1.524 . S
C1989 C1986 1.403 . S
C1989 C1990 1.392 . S
C1989 C1993 1.495 . S
C1990 C1989 1.392 . S
C1990 C1991 1.385 . S
C1990 C1992 1.478 . S
C1991 H1985 0.930 . S
C1991 C1987 1.400 . S
C1991 C1990 1.385 . S
C1992 C1990 1.478 . S
C1992 C1994 1.381 . S
C1992 C1998 1.383 . S
C1993 C1989 1.495 . S
C1993 H1999 0.959 . S
C1993 H2000 0.961 . S
C1993 H2001 0.960 . S
C1994 C1992 1.381 . S
C1994 C1995 1.394 . S
C1994 H2002 0.930 . S
C1995 C1994 1.394 . S
C1995 C1996 1.383 . S
C1995 H2003 0.929 . S
C1996 C1995 1.383 . S
C1996 C1997 1.377 . S
C1997 H1981 0.930 . S
C1997 C1996 1.377 . S
C1997 C1998 1.379 . S
C1998 H1982 0.931 . S
C1998 C1992 1.383 . S
C1998 C1997 1.379 . S
H1999 C1993 0.959 . S
H2000 C1993 0.961 . S
H2001 C1993 0.960 . S
H2002 C1994 0.930 . S
H2003 C1995 0.929 . S
H2004 C2012 0.929 . S
H2005 C2014 0.930 . S
H2006 C2016 0.930 . S
H2007 C2019 0.929 . S
H2008 C2022 0.930 . S
H2009 C2024 0.960 . S
H2010 C2024 0.960 . S
H2011 C2024 0.960 . S
C2012 H2004 0.929 . S
C2012 C2013 1.377 . S
C2012 C2014 1.384 . S
C2013 C2012 1.377 . S
C2013 C2019 1.390 . S
C2014 H2005 0.930 . S
C2014 C2012 1.384 . S
C2014 C2015 1.372 . S
C2015 C2014 1.372 . S
C2015 C2016 1.400 . S
C2015 C2020 1.490 . S
C2016 H2006 0.930 . S
C2016 C2015 1.400 . S
C2016 C2019 1.386 . S
H2017 C2033 0.930 . S
H2018 C2034 0.931 . S
C2019 H2007 0.929 . S
C2019 C2013 1.390 . S
C2019 C2016 1.386 . S
C2020 C2015 1.490 . S
C2020 C2022 1.395 . S
C2020 C2023 1.403 . S
H2021 C2027 0.930 . S
C2022 H2008 0.930 . S
C2022 C2020 1.395 . S
C2022 C2025 1.403 . S
C2023 C2020 1.403 . S
C2023 C2024 1.524 . S
C2023 C2027 1.400 . S
C2024 H2009 0.960 . S
C2024 H2010 0.960 . S
C2024 H2011 0.960 . S
C2024 C2023 1.524 . S
C2025 C2022 1.403 . S
C2025 C2026 1.392 . S
C2025 C2029 1.495 . S
C2026 C2025 1.392 . S
C2026 C2027 1.385 . S
C2026 C2028 1.478 . S
C2027 H2021 0.930 . S
C2027 C2023 1.400 . S
C2027 C2026 1.385 . S
C2028 C2026 1.478 . S
C2028 C2030 1.381 . S
C2028 C2034 1.383 . S
C2029 C2025 1.495 . S
C2029 H2035 0.959 . S
C2029 H2036 0.961 . S
C2029 H2037 0.960 . S
C2030 C2028 1.381 . S
C2030 C2031 1.394 . S
C2030 H2038 0.930 . S
C2031 C2030 1.394 . S
C2031 C2032 1.383 . S
C2031 H2039 0.929 . S
C2032 C2031 1.383 . S
C2032 C2033 1.377 . S
C2033 H2017 0.930 . S
C2033 C2032 1.377 . S
C2033 C2034 1.379 . S
C2034 H2018 0.931 . S
C2034 C2028 1.383 . S
C2034 C2033 1.379 . S
H2035 C2029 0.959 . S
H2036 C2029 0.961 . S
H2037 C2029 0.960 . S
H2038 C2030 0.930 . S
H2039 C2031 0.929 . S
C321 C92 1.216 . S
C340 C10 1.224 . S
C357 C23 0.399 . S
C376 C62 0.455 . S
C393 C66 1.143 . S
C412 C36 1.126 . S
C429 C49 0.923 . S
C448 C88 0.942 . S
C465 C105 1.147 . S
C484 C1 1.198 . S
C501 C14 0.921 . S
C520 C127 0.900 . S
C537 C131 1.204 . S
C556 C27 1.282 . S
C573 C153 0.281 . S
C592 C40 0.337 1_556 S
C609 C53 0.351 . S
C628 C118 0.433 . S
C645 C75 0.901 . S
C664 C140 0.893 . S
C681 C144 0.464 . S
C700 C79 0.536 . S
C717 C114 1.208 . S
C736 C101 1.167 . S
C753 C283 1.284 . S
C772 C166 1.270 . S
C789 C170 0.904 . S
C808 C287 0.951 . S
C825 C192 1.128 . S
C844 C309 1.090 . S
C861 C300 0.876 . S
C880 C196 0.893 . S
C897 C209 1.141 . S
C916 C274 1.117 . S
C933 C257 0.563 . S
C952 C231 0.563 . S
C969 C157 0.910 . S
C988 C218 0.871 . S
C1005 C179 0.321 1_455 S
C1024 C244 0.289 . S
C1041 C183 1.309 . S
C1060 C205 1.254 . S
C1077 C222 0.608 . S
C1096 C261 0.605 . S
C1113 C235 0.456 . S
C1132 C296 0.437 . S
C1149 C270 0.570 . S
C1168 C248 0.492 . S
C1185 C57 2.910 . S
C1204 C5 2.864 . S
C1221 C68 1.096 . S
C1240 C18 1.038 . S
C1257 C83 3.144 . S
C1276 C31 3.129 . S
C1293 C94 2.224 . S
C1312 C44 2.227 . S
C1329 C107 2.708 . S
C1348 C146 2.859 . S
C1365 C122 2.217 . S
C1384 C109 2.216 . S
C1401 C133 2.050 . S
C1420 C120 2.178 . S
C1437 C135 0.691 . S
C1456 C148 0.655 . S
C1473 C237 2.845 . S
C1492 C96 2.883 . S
C1509 C161 2.249 . S
C1528 C42 2.207 . S
C1545 C3 2.223 . S
C1564 C172 2.142 . S
C1581 C16 3.058 . S
C1600 C187 3.121 . S
C1617 C70 2.188 . S
C1636 C250 2.170 . S
C1653 C55 0.693 . S
C1672 C198 0.655 . S
C1689 C81 1.048 . S
C1708 C211 1.101 . S
C1725 C213 2.184 . S
C1744 C226 2.108 . S
C1761 C159 0.694 . S
C1780 C239 0.691 . S
C1797 C200 2.241 . S
C1816 C174 2.232 . S
C1833 C252 2.718 . S
C1852 C185 2.660 . S
C1869 C263 2.157 . S
C1888 C302 1.981 . S
C1905 C265 2.718 . S
C1924 C278 2.619 . S
C1941 C289 3.058 . S
C1960 C276 2.946 . S
C1977 C304 1.072 . S
C1996 C291 1.036 . S
C2013 C29 2.679 . S
C2032 C224 2.515 . S
