# Generated by pormake.
# Topology sow, (4)-cn, num edge types: 1
# Building blocks:
#     Node 0, Type 0, BuildingBlock: MUDLON_clean_sbu_0, # of connection points: 4
#     Node 1, Type 0, BuildingBlock: MUDLON_clean_sbu_0, # of connection points: 4
#     Node 2, Type 0, BuildingBlock: MUDLON_clean_sbu_0, # of connection points: 4
#     Node 3, Type 0, BuildingBlock: MUDLON_clean_sbu_0, # of connection points: 4
#     Node 4, Type 0, BuildingBlock: MUDLON_clean_sbu_0, # of connection points: 4
#     Node 5, Type 0, BuildingBlock: MUDLON_clean_sbu_0, # of connection points: 4
#     Node 6, Type 0, BuildingBlock: MUDLON_clean_sbu_0, # of connection points: 4
#     Node 7, Type 0, BuildingBlock: MUDLON_clean_sbu_0, # of connection points: 4
#     Edge 8, Type (0, 0), BuildingBlock: MIFKUJ_clean_linker_0, # of connection points: 2
#     Edge 9, Type (0, 0), BuildingBlock: MIFKUJ_clean_linker_0, # of connection points: 2
#     Edge 10, Type (0, 0), BuildingBlock: MIFKUJ_clean_linker_0, # of connection points: 2
#     Edge 11, Type (0, 0), BuildingBlock: MIFKUJ_clean_linker_0, # of connection points: 2
#     Edge 12, Type (0, 0), BuildingBlock: MIFKUJ_clean_linker_0, # of connection points: 2
#     Edge 13, Type (0, 0), BuildingBlock: MIFKUJ_clean_linker_0, # of connection points: 2
#     Edge 14, Type (0, 0), BuildingBlock: MIFKUJ_clean_linker_0, # of connection points: 2
#     Edge 15, Type (0, 0), BuildingBlock: MIFKUJ_clean_linker_0, # of connection points: 2
#     Edge 16, Type (0, 0), BuildingBlock: MIFKUJ_clean_linker_0, # of connection points: 2
#     Edge 17, Type (0, 0), BuildingBlock: MIFKUJ_clean_linker_0, # of connection points: 2
#     Edge 18, Type (0, 0), BuildingBlock: MIFKUJ_clean_linker_0, # of connection points: 2
#     Edge 19, Type (0, 0), BuildingBlock: MIFKUJ_clean_linker_0, # of connection points: 2
#     Edge 20, Type (0, 0), BuildingBlock: MIFKUJ_clean_linker_0, # of connection points: 2
#     Edge 21, Type (0, 0), BuildingBlock: MIFKUJ_clean_linker_0, # of connection points: 2
#     Edge 22, Type (0, 0), BuildingBlock: MIFKUJ_clean_linker_0, # of connection points: 2
#     Edge 23, Type (0, 0), BuildingBlock: MIFKUJ_clean_linker_0, # of connection points: 2
# Relax obj value: 0.167
# Max RMSD: 0.252
# Mean RMSD: 0.252
data_MOF--net-sow--node1-MUDLON_clean_sbu_0--edge1-MIFKUJ_clean_linker_0
_symmetry_space_group_name_H-M    P1
_symmetry_Int_Tables_number       1
_symmetry_cell_setting            triclinic
loop_
_symmetry_equiv_pos_as_xyz
'x, y, z'
_cell_length_a     53.650516
_cell_length_b     30.978431
_cell_length_c     31.810033
_cell_angle_alpha  90.104984
_cell_angle_beta   90.087859
_cell_angle_gamma 89.986728
loop_
_atom_site_label
_atom_site_type_symbol
_atom_site_fract_x
_atom_site_fract_y
_atom_site_fract_z
_atom_type_partial_charge
Mg0 Mg 0.15958 0.18959 0.09267 0.0
C1 C 0.11045 0.23367 0.1124 0.0
O2 O 0.1038 0.21494 0.07704 0.0
C3 C 0.19589 0.2399 0.03746 0.0
O4 O 0.20583 0.24899 0.0742 0.0
C5 C 0.12865 0.12938 0.03934 0.0
O6 O 0.13581 0.15719 1.01066 0.0
O7 O 0.13722 0.13307 0.07652 0.0
O8 O 0.13312 0.23178 0.12399 0.0
O9 O 0.18859 0.17755 0.13946 0.0
C10 C 0.18236 0.17586 0.17802 0.0
O11 O 0.15857 0.17753 0.18767 0.0
O12 O 0.1762 0.21702 0.03607 0.0
Mg13 Mg 0.37297 0.29945 0.59712 0.0
C14 C 0.39311 0.23811 0.66329 0.0
O15 O 0.37071 0.24392 0.67889 0.0
C16 C 0.35827 0.26768 0.50818 0.0
O17 O 0.381 0.27978 0.49849 0.0
C18 C 0.41802 0.33984 0.55904 0.0
O19 O 0.423 0.29844 0.55574 0.0
O20 O 0.39723 0.35126 0.57484 0.0
O21 O 0.3983 0.2543 0.62762 0.0
O22 O 0.34771 0.32081 0.64677 0.0
C23 C 0.32669 0.30206 0.65013 0.0
O24 O 0.32022 0.27367 0.62139 0.0
O25 O 0.35086 0.27141 0.546 0.0
Mg26 Mg 0.64919 0.30857 0.92694 0.0
C27 C 0.60297 0.25338 0.92539 0.0
O28 O 0.59933 0.27334 0.96133 0.0
C29 C 0.67184 0.25509 0.99922 0.0
O30 O 0.66084 0.22281 0.97983 0.0
C31 C 0.61721 0.37314 0.97423 0.0
O32 O 0.62704 0.3527 1.00639 0.0
O33 O 0.62442 0.36348 0.9373 0.0
O34 O 0.62354 0.25879 0.90631 0.0
O35 O 0.67491 0.31824 0.87462 0.0
C36 C 0.69312 0.2922 0.87057 0.0
O37 O 0.6964 0.26223 0.89924 0.0
O38 O 0.66978 0.29299 0.98424 0.0
Mg39 Mg 0.86734 0.1889 0.42807 0.0
C40 C 0.91703 0.23341 0.41448 0.0
O41 O 0.92257 0.2127 0.44926 0.0
C42 C 0.83216 0.23811 0.48738 0.0
O43 O 0.82356 0.25356 0.45178 0.0
C44 C 0.89834 0.12577 0.47742 0.0
O45 O 0.89159 0.15263 0.50732 0.0
O46 O 0.88938 0.13095 0.44068 0.0
O47 O 0.89472 0.23245 0.40102 0.0
O48 O 0.83893 0.1809 0.37911 0.0
C49 C 0.83428 0.21455 0.3575 0.0
O50 O 0.84639 0.25028 0.36643 0.0
O51 O 0.85045 0.21195 0.48658 0.0
Mg52 Mg 0.86908 0.81942 0.93278 0.0
C53 C 0.83362 0.7961 0.86577 0.0
O54 O 0.84442 0.75951 0.87595 0.0
C55 C 0.91167 0.86563 0.96959 0.0
O56 O 0.91243 0.82715 0.98679 0.0
C57 C 0.84469 0.75926 0.99828 0.0
O58 O 0.84691 0.72998 0.96858 0.0
O59 O 0.85269 0.7973 0.99166 0.0
O60 O 0.83984 0.83011 0.88577 0.0
O61 O 0.89441 0.7745 0.90249 0.0
C62 C 0.90926 0.74684 0.91808 0.0
O63 O 0.9091 0.73955 0.95874 0.0
O64 O 0.89348 0.87462 0.94535 0.0
Mg65 Mg 0.65837 0.68627 0.43155 0.0
C66 C 0.69881 0.70777 0.37286 0.0
O67 O 0.69329 0.74476 0.3909 0.0
C68 C 0.616 0.64062 0.46884 0.0
O69 O 0.61307 0.68101 0.48053 0.0
C70 C 0.67434 0.747 0.50562 0.0
O71 O 0.65978 0.77608 0.48829 0.0
O72 O 0.6763 0.7099 0.48873 0.0
O73 O 0.68733 0.67403 0.38486 0.0
O74 O 0.63202 0.72882 0.40006 0.0
C75 C 0.62699 0.71406 0.36364 0.0
O76 O 0.63873 0.6792 0.3509 0.0
O77 O 0.63519 0.63079 0.44735 0.0
Mg78 Mg 0.36631 0.69202 0.10009 0.0
C79 C 0.32173 0.70786 0.15343 0.0
O80 O 0.31932 0.73705 0.12378 0.0
C81 C 0.39514 0.62303 0.05043 0.0
O82 O 0.38318 0.63995 0.0184 0.0
C83 C 0.35516 0.7313 1.01232 0.0
O84 O 0.37939 0.73701 1.01057 0.0
O85 O 0.34564 0.71405 0.04481 0.0
O86 O 0.33988 0.68147 0.15121 0.0
O87 O 0.39208 0.73924 0.12554 0.0
C88 C 0.41376 0.74376 0.11011 0.0
O89 O 0.41918 0.72422 0.07459 0.0
O90 O 0.39029 0.63644 0.08737 0.0
Mg91 Mg 0.14971 0.80582 0.60414 0.0
C92 C 0.1987 0.81371 0.65304 0.0
O93 O 0.20832 0.80594 0.61584 0.0
C94 C 0.11255 0.85729 0.55548 0.0
O95 O 0.11341 0.82118 0.53378 0.0
C96 C 0.17484 0.80434 0.51915 0.0
O97 O 0.16754 0.84479 0.5206 0.0
O98 O 0.16987 0.77969 0.54998 0.0
O99 O 0.17518 0.81767 0.65648 0.0
O100 O 0.12148 0.76239 0.62838 0.0
C101 C 0.12424 0.74237 0.66295 0.0
O102 O 0.14617 0.74267 0.6814 0.0
O103 O 0.12714 0.86181 0.5868 0.0
H104 H 0.33764 0.34844 0.72156 0.0
H105 H 0.31473 0.34827 0.7881 0.0
H106 H 0.25906 0.26486 0.73329 0.0
H107 H 0.28151 0.26552 0.66669 0.0
H108 H 0.23776 0.32446 0.78321 0.0
H109 H 0.30689 0.22356 0.79407 0.0
H110 H 0.35143 0.20431 0.7902 0.0
H111 H 0.3684 0.29889 0.88487 0.0
H112 H 0.32391 0.31878 0.88916 0.0
H113 H 0.18356 0.21849 0.95649 0.0
H114 H 0.20539 0.23831 0.89209 0.0
H115 H 0.25812 0.31299 0.96444 0.0
H116 H 0.23669 0.29238 0.02921 0.0
H117 H 0.28205 0.26676 0.9081 0.0
H118 H 0.21221 0.36187 0.90358 0.0
H119 H 0.16788 0.38267 0.90645 0.0
H120 H 0.15236 0.30216 0.79956 0.0
H121 H 0.19654 0.2804 0.79638 0.0
C122 C 0.32032 0.33062 0.72347 0.0
C123 C 0.31152 0.30672 0.68884 0.0
C124 C 0.30731 0.33034 0.76163 0.0
C125 C 0.28538 0.30594 0.76594 0.0
C126 C 0.27597 0.28382 0.73081 0.0
C127 C 0.28889 0.28414 0.69272 0.0
C128 C 0.2728 0.30138 0.80735 0.0
C129 C 0.24738 0.3116 0.81047 0.0
C130 C 0.28551 0.28572 0.84328 0.0
C131 C 0.31213 0.27291 0.84166 0.0
C132 C 0.32014 0.24032 0.81396 0.0
C133 C 0.34538 0.22931 0.81168 0.0
C134 C 0.36278 0.25052 0.8371 0.0
C135 C 0.35493 0.28254 0.86512 0.0
C136 C 0.32969 0.29363 0.86757 0.0
C137 C 0.19969 0.2394 0.95875 0.0
C138 C 0.20832 0.25392 0.99808 0.0
C139 C 0.21212 0.25089 0.92181 0.0
C140 C 0.23326 0.27767 0.92322 0.0
C141 C 0.24185 0.29237 0.96245 0.0
C142 C 0.22951 0.28066 0.99948 0.0
C143 C 0.24678 0.2891 0.88387 0.0
C144 C 0.27241 0.28014 0.8811 0.0
C145 C 0.23426 0.30609 0.84829 0.0
C146 C 0.20767 0.31925 0.84995 0.0
C147 C 0.19932 0.34837 0.88086 0.0
C148 C 0.17422 0.36037 0.88251 0.0
C149 C 0.15731 0.34368 0.85326 0.0
C150 C 0.16547 0.31504 0.82222 0.0
C151 C 0.19055 0.3029 0.82044 0.0
H152 H 0.13788 0.353 0.8546 0.0
H153 H 0.38233 0.24207 0.83515 0.0
H154 H 0.17463 0.1751 0.26286 0.0
H155 H 0.20537 0.18519 0.31862 0.0
H156 H 0.26403 0.19089 0.22627 0.0
H157 H 0.23331 0.18042 0.17003 0.0
H158 H 0.27825 0.14494 0.29637 0.0
H159 H 0.24136 0.28248 0.26653 0.0
H160 H 0.20688 0.33401 0.25606 0.0
H161 H 0.18237 0.31313 0.38284 0.0
H162 H 0.21651 0.26096 0.39388 0.0
H163 H 0.36853 0.25236 0.42512 0.0
H164 H 0.3394 0.23094 0.36967 0.0
H165 H 0.27964 0.227 0.4601 0.0
H166 H 0.30861 0.24861 0.51572 0.0
H167 H 0.26635 0.27121 0.39045 0.0
H168 H 0.30395 0.13447 0.42068 0.0
H169 H 0.33852 0.08306 0.43082 0.0
H170 H 0.36206 0.10287 0.30335 0.0
H171 H 0.32781 0.1549 0.29261 0.0
C172 C 0.19409 0.17803 0.25429 0.0
C173 C 0.20146 0.17729 0.21186 0.0
C174 C 0.21165 0.18396 0.28628 0.0
C175 C 0.23697 0.18952 0.27662 0.0
C176 C 0.24458 0.18684 0.23446 0.0
C177 C 0.22698 0.18091 0.20234 0.0
C178 C 0.25522 0.20001 0.31041 0.0
C179 C 0.27584 0.17284 0.31662 0.0
C180 C 0.25184 0.23599 0.33736 0.0
C181 C 0.23135 0.26748 0.33089 0.0
C182 C 0.2285 0.28862 0.29207 0.0
C183 C 0.20904 0.31798 0.28605 0.0
C184 C 0.19241 0.32675 0.31872 0.0
C185 C 0.19525 0.30625 0.35753 0.0
C186 C 0.21466 0.2768 0.3637 0.0
C187 C 0.34923 0.24664 0.43332 0.0
C188 C 0.34093 0.25227 0.47492 0.0
C189 C 0.3326 0.2342 0.40157 0.0
C190 C 0.30733 0.22708 0.41072 0.0
C191 C 0.29904 0.23229 0.45228 0.0
C192 C 0.31567 0.24453 0.48408 0.0
C193 C 0.28934 0.21598 0.37671 0.0
C194 C 0.26877 0.24321 0.37033 0.0
C195 C 0.29283 0.18014 0.34962 0.0
C196 C 0.31347 0.14893 0.35598 0.0
C197 C 0.31663 0.12817 0.39492 0.0
C198 C 0.33614 0.09885 0.40075 0.0
C199 C 0.35252 0.0898 0.36778 0.0
C200 C 0.34938 0.10997 0.32888 0.0
C201 C 0.32991 0.13935 0.32289 0.0
H202 H 0.3676 0.06707 0.37235 0.0
H203 H 0.17735 0.3495 0.314 0.0
H204 H 0.80765 0.14584 0.32524 0.0
H205 H 0.77774 0.1471 0.26668 0.0
H206 H 0.78951 0.28404 0.2526 0.0
H207 H 0.819 0.28315 0.31079 0.0
H208 H 0.74082 0.265 0.24893 0.0
H209 H 0.81684 0.21102 0.18643 0.0
H210 H 0.85218 0.16065 0.17909 0.0
H211 H 0.80133 0.05559 0.15886 0.0
H212 H 0.76566 0.1053 0.16664 0.0
H213 H 0.69796 0.31442 0.04545 0.0
H214 H 0.7231 0.30194 0.10824 0.0
H215 H 0.705 0.16636 0.10361 0.0
H216 H 0.68006 0.17848 0.04016 0.0
H217 H 0.75361 0.17755 0.11995 0.0
H218 H 0.67756 0.23291 0.17604 0.0
H219 H 0.64232 0.28356 0.18266 0.0
H220 H 0.69287 0.38578 0.2152 0.0
H221 H 0.72847 0.33588 0.20819 0.0
C222 C 0.8038 0.17619 0.30969 0.0
C223 C 0.81579 0.21435 0.32269 0.0
C224 C 0.78677 0.17685 0.27614 0.0
C225 C 0.78148 0.21566 0.25503 0.0
C226 C 0.79322 0.25374 0.26839 0.0
C227 C 0.81019 0.2531 0.30167 0.0
C228 C 0.76387 0.21719 0.21883 0.0
C229 C 0.74372 0.24607 0.22062 0.0
C230 C 0.76719 0.19163 0.18231 0.0
C231 C 0.7886 0.16176 0.17763 0.0
C232 C 0.8132 0.17711 0.18079 0.0
C233 C 0.83329 0.1487 0.17647 0.0
C234 C 0.829 0.10492 0.16865 0.0
C235 C 0.80462 0.08949 0.16501 0.0
C236 C 0.78446 0.11777 0.16935 0.0
C237 C 0.69923 0.28192 0.05776 0.0
C238 C 0.68687 0.24748 0.03777 0.0
C239 C 0.71356 0.27485 0.09385 0.0
C240 C 0.71569 0.23328 0.11109 0.0
C241 C 0.70358 0.19874 0.09101 0.0
C242 C 0.68926 0.20576 0.05478 0.0
C243 C 0.73086 0.22607 0.14972 0.0
C244 C 0.75051 0.19611 0.14842 0.0
C245 C 0.72709 0.25062 0.18677 0.0
C246 C 0.7057 0.2807 0.19127 0.0
C247 C 0.68118 0.26626 0.18432 0.0
C248 C 0.66114 0.29482 0.18819 0.0
C249 C 0.66536 0.33788 0.19926 0.0
C250 C 0.68963 0.35242 0.20659 0.0
C251 C 0.70975 0.324 0.20273 0.0
H252 H 0.64981 0.35994 0.20222 0.0
H253 H 0.84458 0.08298 0.16531 0.0
H254 H 0.68799 0.34211 0.79975 0.0
H255 H 0.71296 0.33887 0.7354 0.0
H256 H 0.75941 0.24063 0.79095 0.0
H257 H 0.73474 0.24386 0.85534 0.0
H258 H 0.78709 0.29909 0.74765 0.0
H259 H 0.7135 0.21337 0.72322 0.0
H260 H 0.66825 0.1998 0.71969 0.0
H261 H 0.66028 0.29963 0.62716 0.0
H262 H 0.70547 0.3142 0.63058 0.0
H263 H 0.84171 0.2052 0.56575 0.0
H264 H 0.81943 0.22025 0.63111 0.0
H265 H 0.77224 0.31099 0.56595 0.0
H266 H 0.79407 0.29539 0.50028 0.0
H267 H 0.74491 0.26087 0.61377 0.0
H268 H 0.81894 0.34417 0.63506 0.0
H269 H 0.86418 0.35774 0.63853 0.0
H270 H 0.87152 0.26344 0.73654 0.0
H271 H 0.82635 0.24887 0.73327 0.0
C272 C 0.70365 0.3201 0.79843 0.0
C273 C 0.70924 0.29305 0.83266 0.0
C274 C 0.71785 0.31816 0.76154 0.0
C275 C 0.73789 0.28912 0.75813 0.0
C276 C 0.74403 0.26323 0.79279 0.0
C277 C 0.72982 0.26504 0.82957 0.0
C278 C 0.75196 0.28447 0.71807 0.0
C279 C 0.77791 0.29038 0.71842 0.0
C280 C 0.73995 0.27402 0.67972 0.0
C281 C 0.71281 0.26519 0.67751 0.0
C282 C 0.70206 0.23266 0.70238 0.0
C283 C 0.67644 0.22475 0.70035 0.0
C284 C 0.66139 0.24893 0.67331 0.0
C285 C 0.67195 0.28099 0.64815 0.0
C286 C 0.69757 0.28907 0.6501 0.0
C287 C 0.82672 0.22862 0.56535 0.0
C288 C 0.81971 0.24909 0.5277 0.0
C289 C 0.81405 0.23735 0.60286 0.0
C290 C 0.79427 0.26714 0.60369 0.0
C291 C 0.78741 0.2879 0.5662 0.0
C292 C 0.79998 0.27902 0.52865 0.0
C293 C 0.78014 0.27538 0.64322 0.0
C294 C 0.75414 0.26999 0.64284 0.0
C295 C 0.79212 0.28638 0.6815 0.0
C296 C 0.81928 0.29517 0.68365 0.0
C297 C 0.83023 0.32609 0.65714 0.0
C298 C 0.85585 0.334 0.65911 0.0
C299 C 0.87072 0.31139 0.68767 0.0
C300 C 0.85998 0.2809 0.7144 0.0
C301 C 0.83436 0.27283 0.71254 0.0
H302 H 0.89056 0.31756 0.68914 0.0
H303 H 0.64155 0.24275 0.67179 0.0
H304 H 0.83432 0.81383 0.06365 0.0
H305 H 0.81206 0.79754 0.12849 0.0
H306 H 0.80405 0.66486 0.08938 0.0
H307 H 0.82595 0.68115 0.02377 0.0
H308 H 0.76119 0.69453 0.12037 0.0
H309 H 0.8459 0.69395 0.16696 0.0
H310 H 0.8886 0.72218 0.17523 0.0
H311 H 0.86029 0.83265 0.24146 0.0
H312 H 0.81738 0.80539 0.23309 0.0
H313 H 0.7115 0.63904 0.32215 0.0
H314 H 0.73889 0.64006 0.26044 0.0
H315 H 0.75308 0.77557 0.28072 0.0
H316 H 0.72626 0.77466 0.34239 0.0
H317 H 0.79503 0.73509 0.26018 0.0
H318 H 0.71049 0.73955 0.20727 0.0
H319 H 0.66756 0.71244 0.19858 0.0
H320 H 0.69562 0.59523 0.14405 0.0
H321 H 0.73876 0.62143 0.15299 0.0
C322 C 0.82797 0.78108 0.06884 0.0
C323 C 0.83201 0.74877 0.03847 0.0
C324 C 0.81532 0.77175 0.10611 0.0
C325 C 0.80665 0.72979 0.11419 0.0
C326 C 0.81062 0.69744 0.08394 0.0
C327 C 0.82321 0.70679 0.04649 0.0
C328 C 0.79287 0.72026 0.15373 0.0
C329 C 0.7688 0.70262 0.151 0.0
C330 C 0.80258 0.7314 0.19375 0.0
C331 C 0.8284 0.74774 0.19913 0.0
C332 C 0.84876 0.7244 0.18305 0.0
C333 C 0.87301 0.74021 0.1878 0.0
C334 C 0.87715 0.77922 0.20879 0.0
C335 C 0.85706 0.80244 0.22519 0.0
C336 C 0.83277 0.7868 0.22051 0.0
C337 C 0.72065 0.66893 0.31365 0.0
C338 C 0.71658 0.7068 0.33715 0.0
C339 C 0.7362 0.66953 0.27825 0.0
C340 C 0.74784 0.70804 0.26561 0.0
C341 C 0.74433 0.74547 0.28978 0.0
C342 C 0.72888 0.7449 0.32504 0.0
C343 C 0.7632 0.71019 0.22671 0.0
C344 C 0.78758 0.72644 0.22958 0.0
C345 C 0.75376 0.69786 0.18685 0.0
C346 C 0.72784 0.68222 0.18125 0.0
C347 C 0.70751 0.70786 0.19373 0.0
C348 C 0.68314 0.69268 0.18871 0.0
C349 C 0.67887 0.65208 0.17089 0.0
C350 C 0.69896 0.62663 0.15793 0.0
C351 C 0.72337 0.64163 0.16295 0.0
H352 H 0.66 0.64039 0.16703 0.0
H353 H 0.89594 0.79141 0.21241 0.0
H354 H 0.70754 0.69498 0.54645 0.0
H355 H 0.73115 0.71055 0.61012 0.0
H356 H 0.69748 0.83677 0.61725 0.0
H357 H 0.6739 0.82164 0.5527 0.0
H358 H 0.7472 0.84038 0.63389 0.0
H359 H 0.67829 0.75707 0.68304 0.0
H360 H 0.64896 0.6958 0.68371 0.0
H361 H 0.7095 0.60825 0.70674 0.0
H362 H 0.73925 0.66892 0.70563 0.0
H363 H 0.80331 0.86309 0.8397 0.0
H364 H 0.7729 0.86198 0.78183 0.0
H365 H 0.79269 0.72984 0.75467 0.0
H366 H 0.8223 0.73037 0.81247 0.0
H367 H 0.74443 0.7376 0.75317 0.0
H368 H 0.81358 0.81897 0.69496 0.0
H369 H 0.84346 0.87943 0.69254 0.0
H370 H 0.78289 0.96983 0.68603 0.0
H371 H 0.75265 0.90987 0.68892 0.0
C372 C 0.70504 0.72608 0.56146 0.0
C373 C 0.68866 0.75696 0.54449 0.0
C374 C 0.71853 0.73488 0.59806 0.0
C375 C 0.71582 0.77458 0.61894 0.0
C376 C 0.69979 0.80583 0.6018 0.0
C377 C 0.68628 0.79708 0.56497 0.0
C378 C 0.72991 0.78301 0.65849 0.0
C379 C 0.74626 0.81838 0.66034 0.0
C380 C 0.7289 0.75412 0.69288 0.0
C381 C 0.71102 0.71756 0.69401 0.0
C382 C 0.68537 0.72473 0.688 0.0
C383 C 0.66867 0.6901 0.68849 0.0
C384 C 0.67736 0.64815 0.6952 0.0
C385 C 0.70278 0.64076 0.70155 0.0
C386 C 0.71957 0.67527 0.70105 0.0
C387 C 0.80112 0.83386 0.82134 0.0
C388 C 0.81523 0.79682 0.83082 0.0
C389 C 0.78381 0.83329 0.78816 0.0
C390 C 0.78055 0.79586 0.7636 0.0
C391 C 0.79468 0.75904 0.77317 0.0
C392 C 0.81173 0.75947 0.80631 0.0
C393 C 0.76243 0.79406 0.72803 0.0
C394 C 0.74517 0.75998 0.72701 0.0
C395 C 0.76271 0.82404 0.69443 0.0
C396 C 0.78087 0.86001 0.69268 0.0
C397 C 0.80665 0.85176 0.69335 0.0
C398 C 0.82364 0.88593 0.69183 0.0
C399 C 0.81508 0.92845 0.68927 0.0
C400 C 0.7895 0.93688 0.6881 0.0
C401 C 0.77243 0.90283 0.68966 0.0
H402 H 0.82826 0.95486 0.68809 0.0
H403 H 0.66441 0.62138 0.69554 0.0
H404 H 0.30421 0.73482 1.00977 0.0
H405 H 0.27767 0.75343 0.95005 0.0
H406 H 0.34289 0.77311 0.87324 0.0
H407 H 0.36959 0.75576 0.93329 0.0
H408 H 0.31024 0.83377 0.85712 0.0
H409 H 0.30663 0.67965 0.86659 0.0
H410 H 0.30009 0.60927 0.90093 0.0
H411 H 0.22391 0.64285 0.92621 0.0
H412 H 0.23009 0.71371 0.89249 0.0
H413 H 0.24968 0.81369 0.65696 0.0
H414 H 0.27593 0.80503 0.71938 0.0
H415 H 0.21038 0.80152 0.79756 0.0
H416 H 0.18398 0.81033 0.73537 0.0
H417 H 0.24273 0.73392 0.81319 0.0
H418 H 0.24702 0.88812 0.80015 0.0
H419 H 0.25446 0.95699 0.76354 0.0
H420 H 0.33064 0.92086 0.74186 0.0
H421 H 0.32357 0.85147 0.77785 0.0
C422 C 0.31294 0.74317 0.9802 0.0
C423 C 0.33905 0.74353 0.97627 0.0
C424 C 0.29771 0.75364 0.94597 0.0
C425 C 0.30822 0.76398 0.90681 0.0
C426 C 0.3343 0.76517 0.90304 0.0
C427 C 0.34956 0.75512 0.93741 0.0
C428 C 0.29202 0.77318 0.86976 0.0
C429 C 0.29569 0.81164 0.84723 0.0
C430 C 0.27269 0.74477 0.85715 0.0
C431 C 0.2689 0.70216 0.87739 0.0
C432 C 0.28854 0.67216 0.87976 0.0
C433 C 0.28488 0.63216 0.89906 0.0
C434 C 0.26161 0.62164 0.91584 0.0
C435 C 0.24193 0.65107 0.91325 0.0
C436 C 0.24549 0.69114 0.89402 0.0
C437 C 0.24084 0.81161 0.68748 0.0
C438 C 0.21472 0.81271 0.69113 0.0
C439 C 0.25589 0.80676 0.72315 0.0
C440 C 0.24512 0.80273 0.76316 0.0
C441 C 0.21908 0.80456 0.767 0.0
C442 C 0.20403 0.80982 0.7314 0.0
C443 C 0.26095 0.79445 0.80071 0.0
C444 C 0.25724 0.75608 0.82323 0.0
C445 C 0.28038 0.82269 0.81297 0.0
C446 C 0.28469 0.8644 0.79134 0.0
C447 C 0.2653 0.89469 0.78725 0.0
C448 C 0.26947 0.93386 0.76668 0.0
C449 C 0.29299 0.94325 0.75028 0.0
C450 C 0.31242 0.91352 0.75452 0.0
C451 C 0.30835 0.87428 0.77504 0.0
H452 H 0.29618 0.97361 0.73438 0.0
H453 H 0.25882 0.59065 0.93077 0.0
H454 H 0.28057 0.75808 0.1645 0.0
H455 H 0.25581 0.76709 0.22807 0.0
H456 H 0.30029 0.67083 0.29091 0.0
H457 H 0.32526 0.66126 0.2269 0.0
H458 H 0.24912 0.66503 0.31042 0.0
H459 H 0.31322 0.77306 0.30876 0.0
H460 H 0.33819 0.83161 0.27757 0.0
H461 H 0.27231 0.90907 0.26373 0.0
H462 H 0.24688 0.85071 0.29428 0.0
H463 H 0.20512 0.73302 0.51374 0.0
H464 H 0.23035 0.71016 0.45349 0.0
H465 H 0.20102 0.81621 0.38076 0.0
H466 H 0.17674 0.84005 0.44119 0.0
H467 H 0.24802 0.81322 0.3698 0.0
H468 H 0.18328 0.70481 0.36729 0.0
H469 H 0.1576 0.64614 0.39665 0.0
H470 H 0.2233 0.56977 0.41715 0.0
H471 H 0.2494 0.62822 0.38837 0.0
C472 C 0.28501 0.73842 0.19161 0.0
C473 C 0.30511 0.70926 0.19069 0.0
C474 C 0.27082 0.74369 0.22801 0.0
C475 C 0.27646 0.72019 0.26448 0.0
C476 C 0.29569 0.68943 0.26316 0.0
C477 C 0.30995 0.68406 0.22658 0.0
C478 C 0.26308 0.72983 0.30431 0.0
C479 C 0.24911 0.69725 0.32384 0.0
C480 C 0.26283 0.77201 0.32147 0.0
C481 C 0.27813 0.80737 0.30353 0.0
C482 C 0.30404 0.80247 0.29882 0.0
C483 C 0.31828 0.83564 0.28129 0.0
C484 C 0.30684 0.87401 0.26861 0.0
C485 C 0.28115 0.87933 0.27354 0.0
C486 C 0.26682 0.84623 0.29101 0.0
C487 C 0.20396 0.75122 0.48476 0.0
C488 C 0.18899 0.78841 0.48225 0.0
C489 C 0.21831 0.73802 0.45023 0.0
C490 C 0.2175 0.76118 0.41223 0.0
C491 C 0.20214 0.79783 0.40965 0.0
C492 C 0.18819 0.81142 0.44426 0.0
C493 C 0.23327 0.74877 0.37552 0.0
C494 C 0.24794 0.78088 0.35664 0.0
C495 C 0.23399 0.70624 0.35894 0.0
C496 C 0.2183 0.67106 0.3761 0.0
C497 C 0.19226 0.67562 0.37834 0.0
C498 C 0.17763 0.64239 0.39483 0.0
C499 C 0.18882 0.6043 0.40887 0.0
C500 C 0.21466 0.59931 0.40633 0.0
C501 C 0.22938 0.63247 0.3899 0.0
H502 H 0.17746 0.57861 0.42163 0.0
H503 H 0.31789 0.89965 0.25503 0.0
H504 H 0.11634 0.25277 0.19573 0.0
H505 H 0.0835 0.26452 0.24761 0.0
H506 H 0.02802 0.25955 0.14959 0.0
H507 H 0.06074 0.24684 0.0973 0.0
H508 H 0.02077 0.32649 0.21697 0.0
H509 H 0.03489 0.17471 0.1946 0.0
H510 H 0.05983 0.10812 0.1894 0.0
H511 H 0.08312 0.12317 0.31784 0.0
H512 H 0.0587 0.19043 0.32344 0.0
H513 H 0.91287 0.26606 0.33482 0.0
H514 H 0.94655 0.27897 0.28498 0.0
H515 H 1.00065 0.24948 0.38127 0.0
H516 H 0.96703 0.23557 0.43107 0.0
H517 H 1.00912 0.20319 0.3142 0.0
H518 H 0.99345 0.3533 0.33888 0.0
H519 H 0.96801 0.41935 0.34442 0.0
H520 H 0.94733 0.40776 0.21444 0.0
H521 H 0.97238 0.34127 0.20824 0.0
C522 C 0.09723 0.25507 0.18495 0.0
C523 C 0.09115 0.24862 0.14235 0.0
C524 C 0.07849 0.26171 0.21471 0.0
C525 C 0.0534 0.26263 0.20239 0.0
C526 C 0.04732 0.25905 0.15962 0.0
C527 C 0.06604 0.25171 0.12984 0.0
C528 C 0.03352 0.26319 0.23459 0.0
C529 C 0.01804 0.29951 0.23817 0.0
C530 C 0.03036 0.22822 0.26258 0.0
C531 C 0.04533 0.18806 0.25915 0.0
C532 C 0.04564 0.1642 0.2215 0.0
C533 C 0.05962 0.12624 0.21853 0.0
C534 C 0.07318 0.11154 0.25321 0.0
C535 C 0.07271 0.13471 0.29094 0.0
C536 C 0.05882 0.17278 0.294 0.0
C537 C 0.93193 0.26326 0.34571 0.0
C538 C 0.93724 0.24946 0.3869 0.0
C539 C 0.95122 0.27085 0.31715 0.0
C540 C 0.97619 0.26534 0.32933 0.0
C541 C 0.98153 0.25388 0.37109 0.0
C542 C 0.96227 0.24607 0.39961 0.0
C543 C 0.9965 0.26695 0.29762 0.0
C544 C 1.012 0.23066 0.29373 0.0
C545 C 0.99967 0.30204 0.26961 0.0
C546 C 0.98463 0.34207 0.2732 0.0
C547 C 0.98332 0.36463 0.31155 0.0
C548 C 0.969 0.40219 0.3148 0.0
C549 C 0.95601 0.41769 0.27983 0.0
C550 C 0.95738 0.3957 0.24151 0.0
C551 C 0.97166 0.3581 0.2381 0.0
H552 H 0.94493 0.44677 0.2824 0.0
H553 H 0.08396 0.0821 0.2509 0.0
H554 H 0.38965 0.21131 0.74491 0.0
H555 H 0.42396 0.19687 0.79345 0.0
H556 H 0.47667 0.2133 0.69251 0.0
H557 H 0.44245 0.22754 0.64363 0.0
H558 H 0.49077 0.14843 0.74825 0.0
H559 H 0.46096 0.29666 0.75349 0.0
H560 H 0.42916 0.3531 0.76416 0.0
H561 H 0.41746 0.30916 0.89054 0.0
H562 H 0.44883 0.25188 0.88033 0.0
H563 H 0.60086 0.22705 0.84338 0.0
H564 H 0.5638 0.20781 0.8034 0.0
H565 H 0.5196 0.21452 0.9165 0.0
H566 H 0.55657 0.23561 0.95649 0.0
H567 H 0.4985 0.25946 0.85998 0.0
H568 H 0.53083 0.11655 0.85983 0.0
H569 H 0.56222 0.05913 0.85105 0.0
H570 H 0.56878 0.08992 0.71998 0.0
H571 H 0.53767 0.14795 0.72807 0.0
C572 C 0.40848 0.21091 0.73277 0.0
C573 C 0.41332 0.22115 0.69047 0.0
C574 C 0.42809 0.20274 0.76063 0.0
C575 C 0.45287 0.20474 0.74672 0.0
C576 C 0.45767 0.21173 0.70391 0.0
C577 C 0.43808 0.21998 0.67602 0.0
C578 C 0.47383 0.20396 0.7772 0.0
C579 C 0.49256 0.17267 0.77273 0.0
C580 C 0.47575 0.23493 0.80983 0.0
C581 C 0.45695 0.26953 0.81591 0.0
C582 C 0.45141 0.29873 0.7834 0.0
C583 C 0.43348 0.33091 0.78938 0.0
C584 C 0.42119 0.33455 0.82792 0.0
C585 C 0.42689 0.30616 0.86063 0.0
C586 C 0.44472 0.27381 0.85474 0.0
C587 C 0.58339 0.22347 0.86002 0.0
C588 C 0.58168 0.23312 0.90314 0.0
C589 C 0.56214 0.21217 0.83706 0.0
C590 C 0.53881 0.20932 0.85686 0.0
C591 C 0.53735 0.21653 0.90043 0.0
C592 C 0.55854 0.22842 0.92333 0.0
C593 C 0.51571 0.20383 0.8314 0.0
C594 C 0.49658 0.23435 0.83643 0.0
C595 C 0.51334 0.17183 0.79974 0.0
C596 C 0.53201 0.13682 0.79464 0.0
C597 C 0.53908 0.11128 0.82919 0.0
C598 C 0.55681 0.07859 0.82432 0.0
C599 C 0.56752 0.07093 0.785 0.0
C600 C 0.56047 0.0959 0.75043 0.0
C601 C 0.54276 0.12865 0.75512 0.0
H602 H 0.58125 0.04561 0.7813 0.0
H603 H 0.4073 0.35947 0.8325 0.0
H604 H 0.07532 0.75569 0.64288 0.0
H605 H 0.03921 0.74391 0.68789 0.0
H606 H 0.08621 0.6844 0.78132 0.0
H607 H 0.12273 0.69658 0.7366 0.0
H608 H 0.03772 0.64391 0.77099 0.0
H609 H 0.07474 0.78004 0.79808 0.0
H610 H 0.09274 0.85159 0.78349 0.0
H611 H 0.02315 0.89357 0.73095 0.0
H612 H 1.00485 0.82178 0.74411 0.0
H613 H 0.95092 0.7009 0.94169 0.0
H614 H 0.98771 0.68591 0.89817 0.0
H615 H 0.95043 0.74069 0.79064 0.0
H616 H 0.91371 0.75519 0.83326 0.0
H617 H 0.99678 0.78051 0.81449 0.0
H618 H 0.96074 0.63969 0.78833 0.0
H619 H 0.94396 0.56888 0.80936 0.0
H620 H 0.01346 0.53745 0.86906 0.0
H621 H 0.03054 0.60839 0.84889 0.0
C622 C 0.07801 0.73924 0.67257 0.0
C623 C 0.10199 0.72748 0.68634 0.0
C624 C 0.05732 0.73264 0.6983 0.0
C625 C 0.06014 0.71379 0.73809 0.0
C626 C 0.08371 0.69908 0.75072 0.0
C627 C 0.10453 0.70615 0.72516 0.0
C628 C 0.03883 0.71334 0.76763 0.0
C629 C 0.02891 0.67373 0.78097 0.0
C630 C 0.02747 0.75231 0.78074 0.0
C631 C 0.03856 0.79518 0.77141 0.0
C632 C 0.06338 0.80422 0.78269 0.0
C633 C 0.07361 0.84488 0.77478 0.0
C634 C 0.05913 0.877 0.75601 0.0
C635 C 0.03437 0.86852 0.74516 0.0
C636 C 0.02407 0.82782 0.75278 0.0
C637 C 0.95033 0.7087 0.90854 0.0
C638 C 0.9295 0.72978 0.89111 0.0
C639 C 0.97135 0.70012 0.88376 0.0
C640 C 0.97177 0.71253 0.84134 0.0
C641 C 0.95046 0.73106 0.82338 0.0
C642 C 0.92949 0.73933 0.84788 0.0
C643 C 0.99511 0.71115 0.81667 0.0
C644 C 1.00558 0.75065 0.80454 0.0
C645 C 1.00708 0.67216 0.80542 0.0
C646 C 0.99682 0.62956 0.81755 0.0
C647 C 0.97236 0.61788 0.80633 0.0
C648 C 0.96281 0.57766 0.818 0.0
C649 C 0.9776 0.54874 0.84065 0.0
C650 C 1.002 0.55992 0.85158 0.0
C651 C 1.01163 0.60011 0.84001 0.0
H652 H 0.97018 0.51761 0.84964 0.0
H653 H 0.06705 0.90852 0.75006 0.0
H654 H 0.46058 0.76779 0.08552 0.0
H655 H 0.49654 0.78061 0.13143 0.0
H656 H 0.44932 0.76938 0.2403 0.0
H657 H 0.41317 0.75792 0.19487 0.0
H658 H 0.50713 0.83881 0.21298 0.0
H659 H 0.48005 0.67863 0.28759 0.0
H660 H 0.4557 0.61302 0.27122 0.0
H661 H 0.47234 0.62787 0.14001 0.0
H662 H 0.49701 0.69307 0.15591 0.0
H663 H 0.59158 0.77509 0.38461 0.0
H664 H 0.55483 0.79558 0.3427 0.0
H665 H 0.57975 0.71276 0.24209 0.0
H666 H 0.61619 0.69255 0.28305 0.0
H667 H 0.53141 0.6953 0.26897 0.0
H668 H 0.58302 0.81699 0.22939 0.0
H669 H 0.60827 0.88193 0.24356 0.0
H670 H 0.54516 0.94336 0.30109 0.0
H671 H 0.51961 0.8785 0.28775 0.0
C672 C 0.45769 0.76961 0.11917 0.0
C673 C 0.43408 0.76143 0.13656 0.0
C674 C 0.47822 0.7772 0.14532 0.0
C675 C 0.4755 0.77576 0.18914 0.0
C676 C 0.45169 0.77082 0.20651 0.0
C677 C 0.43108 0.76415 0.18043 0.0
C678 C 0.49776 0.77133 0.21622 0.0
C679 C 0.51243 0.8076 0.22554 0.0
C680 C 0.50459 0.73053 0.23237 0.0
C681 C 0.49003 0.69102 0.22279 0.0
C682 C 0.47851 0.66781 0.25528 0.0
C683 C 0.46467 0.63068 0.24612 0.0
C684 C 0.46236 0.61639 0.20457 0.0
C685 C 0.474 0.63906 0.17215 0.0
C686 C 0.48787 0.6761 0.18122 0.0
C687 C 0.58941 0.76194 0.35325 0.0
C688 C 0.60665 0.73183 0.33736 0.0
C689 C 0.56844 0.77363 0.3294 0.0
C690 C 0.56453 0.75535 0.28947 0.0
C691 C 0.58232 0.72694 0.27296 0.0
C692 C 0.60318 0.71545 0.29651 0.0
C693 C 0.54116 0.76272 0.26566 0.0
C694 C 0.52607 0.72679 0.25705 0.0
C695 C 0.53417 0.80376 0.25011 0.0
C696 C 0.5495 0.84272 0.25802 0.0
C697 C 0.57459 0.84419 0.24542 0.0
C698 C 0.58894 0.88101 0.25322 0.0
C699 C 0.57835 0.9167 0.27333 0.0
C700 C 0.55335 0.91567 0.28558 0.0
C701 C 0.53893 0.8789 0.27788 0.0
H702 H 0.58949 0.94518 0.27933 0.0
H703 H 0.45163 0.58769 0.19752 0.0
H704 H 0.10876 0.10975 0.96253 0.0
H705 H 0.07171 0.06633 0.94765 0.0
H706 H 0.0646 0.03695 0.07954 0.0
H707 H 0.1016 0.08051 0.09478 0.0
H708 H 0.05908 0.98217 0.95981 0.0
H709 H 1.00312 0.03987 0.10464 0.0
H710 H 1.00127 0.10341 0.15153 0.0
H711 H 0.02878 0.18398 0.05222 0.0
H712 H 0.03052 0.1211 1.00465 0.0
H713 H 0.95681 0.84684 1.00391 0.0
H714 H 0.993 0.89373 1.01126 0.0
H715 H 0.95172 -0.00093 0.95662 0.0
H716 H 0.91515 0.9518 0.94846 0.0
H717 H 0.97992 0.02143 0.03095 0.0
H718 H 0.99148 0.95457 0.89686 0.0
H719 H 0.994 0.89472 0.84578 0.0
H720 H 0.05451 0.83888 0.91539 0.0
H721 H 0.05215 0.89808 0.96725 0.0
C722 C 0.0995 0.09366 0.98836 0.0
C723 C 0.10811 0.09878 0.02989 0.0
C724 C 0.07833 0.06879 0.97976 0.0
C725 C 0.06518 0.04887 1.01251 0.0
C726 C 0.07427 0.05252 0.05382 0.0
C727 C 0.09553 0.07721 0.06245 0.0
C728 C 0.04151 0.02557 1.00362 0.0
C729 C 0.04179 0.99071 0.97538 0.0
C730 C 0.01879 0.03744 0.02312 0.0
C731 C 0.01709 0.07568 0.05119 0.0
C732 C 1.00862 0.07119 0.09275 0.0
C733 C 1.00763 0.10708 0.11945 0.0
C734 C 0.0149 0.14769 0.10484 0.0
C735 C 0.02318 0.1525 0.0635 0.0
C736 C 0.02419 0.11674 0.03668 0.0
C737 C 0.95525 0.88002 0.99357 0.0
C738 C 0.93302 0.89556 0.97556 0.0
C739 C 0.97606 0.90674 0.99768 0.0
C740 C 0.97512 0.94976 0.98424 0.0
C741 C 0.95282 0.96589 0.96713 0.0
C742 C 0.93198 0.93887 0.96243 0.0
C743 C 0.99768 0.97732 0.98798 0.0
C744 C 0.9972 0.01295 0.0153 0.0
C745 C 0.02015 0.96656 0.96711 0.0
C746 C 0.02147 0.93061 0.9362 0.0
C747 C 1.00516 0.92931 0.90154 0.0
C748 C 1.0066 0.89555 0.87238 0.0
C749 C 0.02436 0.86297 0.87742 0.0
C750 C 0.04075 0.86412 0.91157 0.0
C751 C 0.03938 0.8978 0.94084 0.0
H752 H 0.02545 0.83689 0.85484 0.0
H753 H 0.01405 0.17546 0.12546 0.0
H754 H 0.61345 0.55521 0.44501 0.0
H755 H 0.57966 0.50401 0.4593 0.0
H756 H 0.54018 0.60246 0.5284 0.0
H757 H 0.57384 0.65332 0.5149 0.0
H758 H 0.53787 0.52839 0.56926 0.0
H759 H 0.52327 0.57497 0.4278 0.0
H760 H 0.53369 0.58841 0.35348 0.0
H761 H 0.5473 0.45313 0.33481 0.0
H762 H 0.53726 0.43896 0.4092 0.0
H763 H 0.41868 0.42706 0.57518 0.0
H764 H 0.452 0.47842 0.5585 0.0
H765 H 0.49382 0.37672 0.49846 0.0
H766 H 0.46074 0.32536 0.51491 0.0
H767 H 0.4947 0.45226 0.45271 0.0
H768 H 0.50876 0.40688 0.59564 0.0
H769 H 0.49709 0.39497 0.66967 0.0
H770 H 0.48321 0.53059 0.68506 0.0
H771 H 0.49445 0.54323 0.6109 0.0
C772 C 0.59764 0.56584 0.46344 0.0
C773 C 0.59636 0.60843 0.47869 0.0
C774 C 0.57826 0.53662 0.47139 0.0
C775 C 0.55719 0.5495 0.49453 0.0
C776 C 0.55618 0.59172 0.51046 0.0
C777 C 0.57548 0.62083 0.50258 0.0
C778 C 0.53608 0.51931 0.50214 0.0
C779 C 0.52827 0.51217 0.54369 0.0
C780 C 0.5237 0.49757 0.46891 0.0
C781 C 0.52977 0.50598 0.42418 0.0
C782 C 0.52869 0.54814 0.40793 0.0
C783 C 0.53448 0.55588 0.36578 0.0
C784 C 0.54123 0.52166 0.33948 0.0
C785 C 0.54212 0.47962 0.35525 0.0
C786 C 0.53636 0.4717 0.39739 0.0
C787 C 0.43487 0.41573 0.55812 0.0
C788 C 0.4371 0.37204 0.5466 0.0
C789 C 0.45395 0.44507 0.54876 0.0
C790 C 0.47553 0.4313 0.52759 0.0
C791 C 0.47738 0.38806 0.51485 0.0
C792 C 0.45845 0.3587 0.52445 0.0
C793 C 0.49655 0.46149 0.51974 0.0
C794 C 0.50434 0.46855 0.4782 0.0
C795 C 0.5088 0.48342 0.55293 0.0
C796 C 0.5022 0.47593 0.5976 0.0
C797 C 0.50303 0.43412 0.61472 0.0
C798 C 0.49653 0.42724 0.65671 0.0
C799 C 0.48935 0.46198 0.68202 0.0
C800 C 0.48873 0.5037 0.66541 0.0
C801 C 0.49519 0.51074 0.6234 0.0
H802 H 0.48432 0.4566 0.71453 0.0
H803 H 0.5457 0.52772 0.30685 0.0
H804 H 0.4296 0.59424 0.10762 0.0
H805 H 0.467 0.55142 0.09373 0.0
H806 H 0.44655 0.542 0.96286 0.0
H807 H 0.40906 0.58475 0.97647 0.0
H808 H 0.46459 0.46565 0.99202 0.0
H809 H 0.48899 0.61326 0.9929 0.0
H810 H 0.49359 0.68754 0.01966 0.0
H811 H 0.53598 0.64078 0.12471 0.0
H812 H 0.53113 0.566 0.09913 0.0
H813 H 0.58427 0.4034 0.91524 0.0
H814 H 0.54626 0.44534 0.92752 0.0
H815 H 0.563 0.45038 0.06006 0.0
H816 H 0.60095 0.4083 0.04813 0.0
H817 H 0.54678 0.52911 0.0284 0.0
H818 H 0.52191 0.38008 0.02495 0.0
H819 H 0.51803 0.30709 0.99463 0.0
H820 H 0.47698 0.35834 0.89006 0.0
H821 H 0.48106 0.43187 0.91931 0.0
C822 C 0.43286 0.58264 0.07596 0.0
C823 C 0.41635 0.59313 0.0431 0.0
C824 C 0.45435 0.55834 0.06803 0.0
C825 C 0.45977 0.54395 0.02713 0.0
C826 C 0.4428 0.55283 0.99463 0.0
C827 C 0.42138 0.57736 1.00248 0.0
C828 C 0.48352 0.52092 0.01799 0.0
C829 C 0.48257 0.47974 0.9995 0.0
C830 C 0.507 0.5391 0.02818 0.0
C831 C 0.50947 0.58392 0.04429 0.0
C832 C 0.49903 0.61872 0.022 0.0
C833 C 0.50173 0.66093 0.0369 0.0
C834 C 0.51511 0.66887 0.07379 0.0
C835 C 0.52568 0.63457 0.09605 0.0
C836 C 0.5229 0.59225 0.08142 0.0
C837 C 0.58004 0.41386 0.94695 0.0
C838 C 0.59564 0.40241 0.98074 0.0
C839 C 0.55821 0.43759 0.95393 0.0
C840 C 0.55164 0.45054 0.99478 0.0
C841 C 0.56766 0.44059 0.02831 0.0
C842 C 0.58934 0.41651 0.02143 0.0
C843 C 0.52784 0.47375 1.00279 0.0
C844 C 0.52879 0.51502 0.02099 0.0
C845 C 0.5044 0.4558 0.99194 0.0
C846 C 0.50205 0.41162 0.97411 0.0
C847 C 0.5123 0.3759 0.99525 0.0
C848 C 0.51003 0.33441 0.9783 0.0
C849 C 0.4973 0.32811 0.94043 0.0
C850 C 0.48686 0.3633 0.91937 0.0
C851 C 0.48916 0.4049 0.93612 0.0
H852 H 0.49544 0.29592 0.92757 0.0
H853 H 0.51729 0.70163 0.08512 0.0
H854 H 0.09245 0.91817 0.60814 0.0
H855 H 0.05649 0.965 0.59407 0.0
H856 H 0.05251 0.91612 0.46725 0.0
H857 H 0.08809 0.86877 0.48126 0.0
H858 H 0.04578 0.00799 0.47452 0.0
H859 H 0.01639 0.87487 0.53467 0.0
H860 H 0.01413 0.81767 0.58827 0.0
H861 H 0.9892 0.91012 0.67972 0.0
H862 H 0.99219 0.96819 0.62707 0.0
H863 H 0.92334 0.07558 0.41993 0.0
H864 H 0.96025 0.03081 0.43238 0.0
H865 H 0.95746 0.06225 0.56444 0.0
H866 H 0.92049 0.10648 0.55239 0.0
H867 H 0.96817 0.97953 0.55444 0.0
H868 H 0.99767 0.11255 0.49823 0.0
H869 H 1.00139 0.17258 0.44788 0.0
H870 H 0.02676 0.08461 0.35269 0.0
H871 H 0.02267 0.02378 0.40224 0.0
C872 C 0.08415 0.91792 0.57707 0.0
C873 C 0.09304 0.88968 0.54584 0.0
C874 C 0.06355 0.94452 0.56914 0.0
C875 C 0.05173 0.94377 0.5297 0.0
C876 C 0.06134 0.91717 0.49789 0.0
C877 C 0.08163 0.89007 0.506 0.0
C878 C 0.02856 0.96888 0.52215 0.0
C879 C 0.0287 0.00152 0.4916 0.0
C880 C 1.00649 0.96099 0.54521 0.0
C881 C 1.00489 0.92606 0.57702 0.0
C882 C 1.01082 0.88317 0.56637 0.0
C883 C 1.00939 0.85055 0.5966 0.0
C884 C 1.0017 0.86029 0.63747 0.0
C885 C 0.99536 0.90266 0.64816 0.0
C886 C 0.99697 0.93546 0.61815 0.0
C887 C 0.93039 0.07252 0.45171 0.0
C888 C 0.91897 0.09477 0.48514 0.0
C889 C 0.95163 0.04718 0.45873 0.0
C890 C 0.96191 0.04368 0.49927 0.0
C891 C 0.94997 0.06454 0.53287 0.0
C892 C 0.9288 0.08988 0.52589 0.0
C893 C 0.98528 0.01887 0.50676 0.0
C894 C 0.9852 0.98616 0.53729 0.0
C895 C 1.00749 0.02709 0.48403 0.0
C896 C 1.00955 0.06347 0.45385 0.0
C897 C 1.00373 0.10587 0.46642 0.0
C898 C 1.00595 0.14006 0.43804 0.0
C899 C 0.01424 0.13237 0.39711 0.0
C900 C 0.02028 0.09046 0.3844 0.0
C901 C 0.01799 0.05611 0.41262 0.0
H902 H 0.0161 0.15892 0.37532 0.0
H903 H 1.00052 0.83497 0.66077 0.0
loop_
_geom_bond_atom_site_label_1
_geom_bond_atom_site_label_2
_geom_bond_distance
_geom_bond_site_symmetry_2
_ccdc_geom_bond_type
Mg0 O7 2.141 . S
Mg0 O8 2.048 . S
Mg0 O9 2.048 . S
Mg0 O12 2.141 . S
C1 O2 1.313 . S
C1 O8 1.195 . S
O2 C1 1.313 . S
C3 O4 1.245 . S
C3 O12 1.289 . S
O4 C3 1.245 . S
C5 O6 1.245 . S
C5 O7 1.289 . S
O6 C5 1.245 . S
O7 Mg0 2.141 . S
O7 C5 1.289 . S
O8 Mg0 2.048 . S
O8 C1 1.195 . S
O9 Mg0 2.048 . S
O9 C10 1.195 . S
C10 O9 1.195 . S
C10 O11 1.313 . S
O11 C10 1.313 . S
O12 Mg0 2.141 . S
O12 C3 1.289 . S
Mg13 O20 2.141 . S
Mg13 O21 2.048 . S
Mg13 O22 2.048 . S
Mg13 O25 2.141 . S
C14 O15 1.313 . S
C14 O21 1.195 . S
O15 C14 1.313 . S
C16 O17 1.245 . S
C16 O25 1.289 . S
O17 C16 1.245 . S
C18 O19 1.245 . S
C18 O20 1.289 . S
O19 C18 1.245 . S
O20 Mg13 2.141 . S
O20 C18 1.289 . S
O21 Mg13 2.048 . S
O21 C14 1.195 . S
O22 Mg13 2.048 . S
O22 C23 1.195 . S
C23 O22 1.195 . S
C23 O24 1.313 . S
O24 C23 1.313 . S
O25 Mg13 2.141 . S
O25 C16 1.289 . S
Mg26 O33 2.141 . S
Mg26 O34 2.048 . S
Mg26 O35 2.048 . S
Mg26 O38 2.141 . S
C27 O28 1.313 . S
C27 O34 1.195 . S
O28 C27 1.313 . S
C29 O30 1.245 . S
C29 O38 1.289 . S
O30 C29 1.245 . S
C31 O32 1.245 . S
C31 O33 1.289 . S
O32 C31 1.245 . S
O33 Mg26 2.141 . S
O33 C31 1.289 . S
O34 Mg26 2.048 . S
O34 C27 1.195 . S
O35 Mg26 2.048 . S
O35 C36 1.195 . S
C36 O35 1.195 . S
C36 O37 1.313 . S
O37 C36 1.313 . S
O38 Mg26 2.141 . S
O38 C29 1.289 . S
Mg39 O46 2.141 . S
Mg39 O47 2.048 . S
Mg39 O48 2.048 . S
Mg39 O51 2.141 . S
C40 O41 1.313 . S
C40 O47 1.195 . S
O41 C40 1.313 . S
C42 O43 1.245 . S
C42 O51 1.289 . S
O43 C42 1.245 . S
C44 O45 1.245 . S
C44 O46 1.289 . S
O45 C44 1.245 . S
O46 Mg39 2.141 . S
O46 C44 1.289 . S
O47 Mg39 2.048 . S
O47 C40 1.195 . S
O48 Mg39 2.048 . S
O48 C49 1.195 . S
C49 O48 1.195 . S
C49 O50 1.313 . S
O50 C49 1.313 . S
O51 Mg39 2.141 . S
O51 C42 1.289 . S
Mg52 O59 2.141 . S
Mg52 O60 2.048 . S
Mg52 O61 2.048 . S
Mg52 O64 2.141 . S
C53 O54 1.313 . S
C53 O60 1.195 . S
O54 C53 1.313 . S
C55 O56 1.245 . S
C55 O64 1.289 . S
O56 C55 1.245 . S
C57 O58 1.245 . S
C57 O59 1.289 . S
O58 C57 1.245 . S
O59 Mg52 2.141 . S
O59 C57 1.289 . S
O60 Mg52 2.048 . S
O60 C53 1.195 . S
O61 Mg52 2.048 . S
O61 C62 1.195 . S
C62 O61 1.195 . S
C62 O63 1.313 . S
O63 C62 1.313 . S
O64 Mg52 2.141 . S
O64 C55 1.289 . S
Mg65 O72 2.141 . S
Mg65 O73 2.048 . S
Mg65 O74 2.048 . S
Mg65 O77 2.141 . S
C66 O67 1.313 . S
C66 O73 1.195 . S
O67 C66 1.313 . S
C68 O69 1.245 . S
C68 O77 1.289 . S
O69 C68 1.245 . S
C70 O71 1.245 . S
C70 O72 1.289 . S
O71 C70 1.245 . S
O72 Mg65 2.141 . S
O72 C70 1.289 . S
O73 Mg65 2.048 . S
O73 C66 1.195 . S
O74 Mg65 2.048 . S
O74 C75 1.195 . S
C75 O74 1.195 . S
C75 O76 1.313 . S
O76 C75 1.313 . S
O77 Mg65 2.141 . S
O77 C68 1.289 . S
Mg78 O85 2.141 . S
Mg78 O86 2.048 . S
Mg78 O87 2.048 . S
Mg78 O90 2.141 . S
C79 O80 1.313 . S
C79 O86 1.195 . S
O80 C79 1.313 . S
C81 O82 1.245 . S
C81 O90 1.289 . S
O82 C81 1.245 . S
C83 O84 1.245 . S
C83 O85 1.289 . S
O84 C83 1.245 . S
O85 Mg78 2.141 . S
O85 C83 1.289 . S
O86 Mg78 2.048 . S
O86 C79 1.195 . S
O87 Mg78 2.048 . S
O87 C88 1.195 . S
C88 O87 1.195 . S
C88 O89 1.313 . S
O89 C88 1.313 . S
O90 Mg78 2.141 . S
O90 C81 1.289 . S
Mg91 O98 2.141 . S
Mg91 O99 2.048 . S
Mg91 O100 2.048 . S
Mg91 O103 2.141 . S
C92 O93 1.313 . S
C92 O99 1.195 . S
O93 C92 1.313 . S
C94 O95 1.245 . S
C94 O103 1.289 . S
O95 C94 1.245 . S
C96 O97 1.245 . S
C96 O98 1.289 . S
O97 C96 1.245 . S
O98 Mg91 2.141 . S
O98 C96 1.289 . S
O99 Mg91 2.048 . S
O99 C92 1.195 . S
O100 Mg91 2.048 . S
O100 C101 1.195 . S
C101 O100 1.195 . S
C101 O102 1.313 . S
O102 C101 1.313 . S
O103 Mg91 2.141 . S
O103 C94 1.289 . S
H104 C122 0.951 . S
H105 C124 0.951 . S
H106 C126 0.950 . S
H107 C127 0.950 . S
H108 C129 0.950 . S
H109 C132 0.950 . S
H110 C133 0.950 . S
H111 C135 0.950 . S
H112 C136 0.950 . S
H113 C137 0.951 . S
H114 C139 0.951 . S
H115 C141 0.950 . S
H116 C142 0.950 1_554 S
H117 C144 0.950 . S
H118 C147 0.950 . S
H119 C148 0.950 . S
H120 C150 0.950 . S
H121 C151 0.950 . S
C122 H104 0.951 . S
C122 C123 1.366 . S
C122 C124 1.388 . S
C123 C122 1.366 . S
C123 C127 1.385 . S
C124 H105 0.951 . S
C124 C122 1.388 . S
C124 C125 1.366 . S
C125 C124 1.366 . S
C125 C126 1.414 . S
C125 C128 1.499 . S
C126 H106 0.950 . S
C126 C125 1.414 . S
C126 C127 1.374 . S
C127 H107 0.950 . S
C127 C123 1.385 . S
C127 C126 1.374 . S
C128 C125 1.499 . S
C128 C129 1.373 . S
C128 C130 1.389 . S
C129 H108 0.950 . S
C129 C128 1.373 . S
C129 C145 1.377 . S
C130 C128 1.389 . S
C130 C131 1.524 . S
C130 C144 1.377 . S
C131 C130 1.524 . S
C131 C132 1.397 . S
C131 C136 1.363 . S
C132 H109 0.950 . S
C132 C131 1.397 . S
C132 C133 1.334 . S
C133 H110 0.950 . S
C133 C132 1.334 . S
C133 C134 1.287 . S
C134 C133 1.287 . S
C134 C135 1.524 . S
C134 H153 0.913 . S
C135 H111 0.950 . S
C135 C134 1.524 . S
C135 C136 1.415 . S
C136 H112 0.950 . S
C136 C131 1.363 . S
C136 C135 1.415 . S
C137 H113 0.951 . S
C137 C138 1.366 . S
C137 C139 1.388 . S
C138 C137 1.366 . S
C138 C142 1.385 . S
C139 H114 0.951 . S
C139 C137 1.388 . S
C139 C140 1.366 . S
C140 C139 1.366 . S
C140 C141 1.414 . S
C140 C143 1.499 . S
C141 H115 0.950 . S
C141 C140 1.414 . S
C141 C142 1.374 . S
C142 H116 0.950 1_556 S
C142 C138 1.385 . S
C142 C141 1.374 . S
C143 C140 1.499 . S
C143 C144 1.373 . S
C143 C145 1.389 . S
C144 H117 0.950 . S
C144 C130 1.377 . S
C144 C143 1.373 . S
C145 C129 1.377 . S
C145 C143 1.389 . S
C145 C146 1.524 . S
C146 C145 1.524 . S
C146 C147 1.397 . S
C146 C151 1.363 . S
C147 H118 0.950 . S
C147 C146 1.397 . S
C147 C148 1.334 . S
C148 H119 0.950 . S
C148 C147 1.334 . S
C148 C149 1.287 . S
C149 C148 1.287 . S
C149 C150 1.524 . S
C149 H152 0.999 . S
C150 H120 0.950 . S
C150 C149 1.524 . S
C150 C151 1.415 . S
C151 H121 0.950 . S
C151 C146 1.363 . S
C151 C150 1.415 . S
H152 C149 0.999 . S
H153 C134 0.913 . S
H154 C172 0.951 . S
H155 C174 0.951 . S
H156 C176 0.950 . S
H157 C177 0.950 . S
H158 C179 0.950 . S
H159 C182 0.950 . S
H160 C183 0.950 . S
H161 C185 0.950 . S
H162 C186 0.950 . S
H163 C187 0.951 . S
H164 C189 0.951 . S
H165 C191 0.950 . S
H166 C192 0.950 . S
H167 C194 0.950 . S
H168 C197 0.950 . S
H169 C198 0.950 . S
H170 C200 0.950 . S
H171 C201 0.950 . S
C172 H154 0.951 . S
C172 C173 1.366 . S
C172 C174 1.388 . S
C173 C172 1.366 . S
C173 C177 1.385 . S
C174 H155 0.951 . S
C174 C172 1.388 . S
C174 C175 1.366 . S
C175 C174 1.366 . S
C175 C176 1.414 . S
C175 C178 1.499 . S
C176 H156 0.950 . S
C176 C175 1.414 . S
C176 C177 1.374 . S
C177 H157 0.950 . S
C177 C173 1.385 . S
C177 C176 1.374 . S
C178 C175 1.499 . S
C178 C179 1.373 . S
C178 C180 1.389 . S
C179 H158 0.950 . S
C179 C178 1.373 . S
C179 C195 1.377 . S
C180 C178 1.389 . S
C180 C181 1.524 . S
C180 C194 1.377 . S
C181 C180 1.524 . S
C181 C182 1.397 . S
C181 C186 1.363 . S
C182 H159 0.950 . S
C182 C181 1.397 . S
C182 C183 1.334 . S
C183 H160 0.950 . S
C183 C182 1.334 . S
C183 C184 1.287 . S
C184 C183 1.287 . S
C184 C185 1.524 . S
C184 H203 0.913 . S
C185 H161 0.950 . S
C185 C184 1.524 . S
C185 C186 1.415 . S
C186 H162 0.950 . S
C186 C181 1.363 . S
C186 C185 1.415 . S
C187 H163 0.951 . S
C187 C188 1.366 . S
C187 C189 1.388 . S
C188 C187 1.366 . S
C188 C192 1.385 . S
C189 H164 0.951 . S
C189 C187 1.388 . S
C189 C190 1.366 . S
C190 C189 1.366 . S
C190 C191 1.414 . S
C190 C193 1.499 . S
C191 H165 0.950 . S
C191 C190 1.414 . S
C191 C192 1.374 . S
C192 H166 0.950 . S
C192 C188 1.385 . S
C192 C191 1.374 . S
C193 C190 1.499 . S
C193 C194 1.373 . S
C193 C195 1.389 . S
C194 H167 0.950 . S
C194 C180 1.377 . S
C194 C193 1.373 . S
C195 C179 1.377 . S
C195 C193 1.389 . S
C195 C196 1.524 . S
C196 C195 1.524 . S
C196 C197 1.397 . S
C196 C201 1.363 . S
C197 H168 0.950 . S
C197 C196 1.397 . S
C197 C198 1.334 . S
C198 H169 0.950 . S
C198 C197 1.334 . S
C198 C199 1.287 . S
C199 C198 1.287 . S
C199 C200 1.524 . S
C199 H202 0.999 . S
C200 H170 0.950 . S
C200 C199 1.524 . S
C200 C201 1.415 . S
C201 H171 0.950 . S
C201 C196 1.363 . S
C201 C200 1.415 . S
H202 C199 0.999 . S
H203 C184 0.913 . S
H204 C222 0.951 . S
H205 C224 0.951 . S
H206 C226 0.950 . S
H207 C227 0.950 . S
H208 C229 0.950 . S
H209 C232 0.950 . S
H210 C233 0.950 . S
H211 C235 0.950 . S
H212 C236 0.950 . S
H213 C237 0.951 . S
H214 C239 0.951 . S
H215 C241 0.950 . S
H216 C242 0.950 . S
H217 C244 0.950 . S
H218 C247 0.950 . S
H219 C248 0.950 . S
H220 C250 0.950 . S
H221 C251 0.950 . S
C222 H204 0.951 . S
C222 C223 1.366 . S
C222 C224 1.388 . S
C223 C222 1.366 . S
C223 C227 1.385 . S
C224 H205 0.951 . S
C224 C222 1.388 . S
C224 C225 1.366 . S
C225 C224 1.366 . S
C225 C226 1.414 . S
C225 C228 1.499 . S
C226 H206 0.950 . S
C226 C225 1.414 . S
C226 C227 1.374 . S
C227 H207 0.950 . S
C227 C223 1.385 . S
C227 C226 1.374 . S
C228 C225 1.499 . S
C228 C229 1.373 . S
C228 C230 1.389 . S
C229 H208 0.950 . S
C229 C228 1.373 . S
C229 C245 1.377 . S
C230 C228 1.389 . S
C230 C231 1.524 . S
C230 C244 1.377 . S
C231 C230 1.524 . S
C231 C232 1.397 . S
C231 C236 1.363 . S
C232 H209 0.950 . S
C232 C231 1.397 . S
C232 C233 1.334 . S
C233 H210 0.950 . S
C233 C232 1.334 . S
C233 C234 1.287 . S
C234 C233 1.287 . S
C234 C235 1.524 . S
C234 H253 0.913 . S
C235 H211 0.950 . S
C235 C234 1.524 . S
C235 C236 1.415 . S
C236 H212 0.950 . S
C236 C231 1.363 . S
C236 C235 1.415 . S
C237 H213 0.951 . S
C237 C238 1.366 . S
C237 C239 1.388 . S
C238 C237 1.366 . S
C238 C242 1.385 . S
C239 H214 0.951 . S
C239 C237 1.388 . S
C239 C240 1.366 . S
C240 C239 1.366 . S
C240 C241 1.414 . S
C240 C243 1.499 . S
C241 H215 0.950 . S
C241 C240 1.414 . S
C241 C242 1.374 . S
C242 H216 0.950 . S
C242 C238 1.385 . S
C242 C241 1.374 . S
C243 C240 1.499 . S
C243 C244 1.373 . S
C243 C245 1.389 . S
C244 H217 0.950 . S
C244 C230 1.377 . S
C244 C243 1.373 . S
C245 C229 1.377 . S
C245 C243 1.389 . S
C245 C246 1.524 . S
C246 C245 1.524 . S
C246 C247 1.397 . S
C246 C251 1.363 . S
C247 H218 0.950 . S
C247 C246 1.397 . S
C247 C248 1.334 . S
C248 H219 0.950 . S
C248 C247 1.334 . S
C248 C249 1.287 . S
C249 C248 1.287 . S
C249 C250 1.524 . S
C249 H252 0.999 . S
C250 H220 0.950 . S
C250 C249 1.524 . S
C250 C251 1.415 . S
C251 H221 0.950 . S
C251 C246 1.363 . S
C251 C250 1.415 . S
H252 C249 0.999 . S
H253 C234 0.913 . S
H254 C272 0.951 . S
H255 C274 0.951 . S
H256 C276 0.950 . S
H257 C277 0.950 . S
H258 C279 0.950 . S
H259 C282 0.950 . S
H260 C283 0.950 . S
H261 C285 0.950 . S
H262 C286 0.950 . S
H263 C287 0.951 . S
H264 C289 0.951 . S
H265 C291 0.950 . S
H266 C292 0.950 . S
H267 C294 0.950 . S
H268 C297 0.950 . S
H269 C298 0.950 . S
H270 C300 0.950 . S
H271 C301 0.950 . S
C272 H254 0.951 . S
C272 C273 1.366 . S
C272 C274 1.388 . S
C273 C272 1.366 . S
C273 C277 1.385 . S
C274 H255 0.951 . S
C274 C272 1.388 . S
C274 C275 1.366 . S
C275 C274 1.366 . S
C275 C276 1.414 . S
C275 C278 1.499 . S
C276 H256 0.950 . S
C276 C275 1.414 . S
C276 C277 1.374 . S
C277 H257 0.950 . S
C277 C273 1.385 . S
C277 C276 1.374 . S
C278 C275 1.499 . S
C278 C279 1.373 . S
C278 C280 1.389 . S
C279 H258 0.950 . S
C279 C278 1.373 . S
C279 C295 1.377 . S
C280 C278 1.389 . S
C280 C281 1.524 . S
C280 C294 1.377 . S
C281 C280 1.524 . S
C281 C282 1.397 . S
C281 C286 1.363 . S
C282 H259 0.950 . S
C282 C281 1.397 . S
C282 C283 1.334 . S
C283 H260 0.950 . S
C283 C282 1.334 . S
C283 C284 1.287 . S
C284 C283 1.287 . S
C284 C285 1.524 . S
C284 H303 0.913 . S
C285 H261 0.950 . S
C285 C284 1.524 . S
C285 C286 1.415 . S
C286 H262 0.950 . S
C286 C281 1.363 . S
C286 C285 1.415 . S
C287 H263 0.951 . S
C287 C288 1.366 . S
C287 C289 1.388 . S
C288 C287 1.366 . S
C288 C292 1.385 . S
C289 H264 0.951 . S
C289 C287 1.388 . S
C289 C290 1.366 . S
C290 C289 1.366 . S
C290 C291 1.414 . S
C290 C293 1.499 . S
C291 H265 0.950 . S
C291 C290 1.414 . S
C291 C292 1.374 . S
C292 H266 0.950 . S
C292 C288 1.385 . S
C292 C291 1.374 . S
C293 C290 1.499 . S
C293 C294 1.373 . S
C293 C295 1.389 . S
C294 H267 0.950 . S
C294 C280 1.377 . S
C294 C293 1.373 . S
C295 C279 1.377 . S
C295 C293 1.389 . S
C295 C296 1.524 . S
C296 C295 1.524 . S
C296 C297 1.397 . S
C296 C301 1.363 . S
C297 H268 0.950 . S
C297 C296 1.397 . S
C297 C298 1.334 . S
C298 H269 0.950 . S
C298 C297 1.334 . S
C298 C299 1.287 . S
C299 C298 1.287 . S
C299 C300 1.524 . S
C299 H302 0.999 . S
C300 H270 0.950 . S
C300 C299 1.524 . S
C300 C301 1.415 . S
C301 H271 0.950 . S
C301 C296 1.363 . S
C301 C300 1.415 . S
H302 C299 0.999 . S
H303 C284 0.913 . S
H304 C322 0.951 . S
H305 C324 0.951 . S
H306 C326 0.950 . S
H307 C327 0.950 . S
H308 C329 0.950 . S
H309 C332 0.950 . S
H310 C333 0.950 . S
H311 C335 0.950 . S
H312 C336 0.950 . S
H313 C337 0.951 . S
H314 C339 0.951 . S
H315 C341 0.950 . S
H316 C342 0.950 . S
H317 C344 0.950 . S
H318 C347 0.950 . S
H319 C348 0.950 . S
H320 C350 0.950 . S
H321 C351 0.950 . S
C322 H304 0.951 . S
C322 C323 1.366 . S
C322 C324 1.388 . S
C323 C322 1.366 . S
C323 C327 1.385 . S
C324 H305 0.951 . S
C324 C322 1.388 . S
C324 C325 1.366 . S
C325 C324 1.366 . S
C325 C326 1.414 . S
C325 C328 1.499 . S
C326 H306 0.950 . S
C326 C325 1.414 . S
C326 C327 1.374 . S
C327 H307 0.950 . S
C327 C323 1.385 . S
C327 C326 1.374 . S
C328 C325 1.499 . S
C328 C329 1.373 . S
C328 C330 1.389 . S
C329 H308 0.950 . S
C329 C328 1.373 . S
C329 C345 1.377 . S
C330 C328 1.389 . S
C330 C331 1.524 . S
C330 C344 1.377 . S
C331 C330 1.524 . S
C331 C332 1.397 . S
C331 C336 1.363 . S
C332 H309 0.950 . S
C332 C331 1.397 . S
C332 C333 1.334 . S
C333 H310 0.950 . S
C333 C332 1.334 . S
C333 C334 1.287 . S
C334 C333 1.287 . S
C334 C335 1.524 . S
C334 H353 0.913 . S
C335 H311 0.950 . S
C335 C334 1.524 . S
C335 C336 1.415 . S
C336 H312 0.950 . S
C336 C331 1.363 . S
C336 C335 1.415 . S
C337 H313 0.951 . S
C337 C338 1.366 . S
C337 C339 1.388 . S
C338 C337 1.366 . S
C338 C342 1.385 . S
C339 H314 0.951 . S
C339 C337 1.388 . S
C339 C340 1.366 . S
C340 C339 1.366 . S
C340 C341 1.414 . S
C340 C343 1.499 . S
C341 H315 0.950 . S
C341 C340 1.414 . S
C341 C342 1.374 . S
C342 H316 0.950 . S
C342 C338 1.385 . S
C342 C341 1.374 . S
C343 C340 1.499 . S
C343 C344 1.373 . S
C343 C345 1.389 . S
C344 H317 0.950 . S
C344 C330 1.377 . S
C344 C343 1.373 . S
C345 C329 1.377 . S
C345 C343 1.389 . S
C345 C346 1.524 . S
C346 C345 1.524 . S
C346 C347 1.397 . S
C346 C351 1.363 . S
C347 H318 0.950 . S
C347 C346 1.397 . S
C347 C348 1.334 . S
C348 H319 0.950 . S
C348 C347 1.334 . S
C348 C349 1.287 . S
C349 C348 1.287 . S
C349 C350 1.524 . S
C349 H352 0.999 . S
C350 H320 0.950 . S
C350 C349 1.524 . S
C350 C351 1.415 . S
C351 H321 0.950 . S
C351 C346 1.363 . S
C351 C350 1.415 . S
H352 C349 0.999 . S
H353 C334 0.913 . S
H354 C372 0.951 . S
H355 C374 0.951 . S
H356 C376 0.950 . S
H357 C377 0.950 . S
H358 C379 0.950 . S
H359 C382 0.950 . S
H360 C383 0.950 . S
H361 C385 0.950 . S
H362 C386 0.950 . S
H363 C387 0.951 . S
H364 C389 0.951 . S
H365 C391 0.950 . S
H366 C392 0.950 . S
H367 C394 0.950 . S
H368 C397 0.950 . S
H369 C398 0.950 . S
H370 C400 0.950 . S
H371 C401 0.950 . S
C372 H354 0.951 . S
C372 C373 1.366 . S
C372 C374 1.388 . S
C373 C372 1.366 . S
C373 C377 1.385 . S
C374 H355 0.951 . S
C374 C372 1.388 . S
C374 C375 1.366 . S
C375 C374 1.366 . S
C375 C376 1.414 . S
C375 C378 1.499 . S
C376 H356 0.950 . S
C376 C375 1.414 . S
C376 C377 1.374 . S
C377 H357 0.950 . S
C377 C373 1.385 . S
C377 C376 1.374 . S
C378 C375 1.499 . S
C378 C379 1.373 . S
C378 C380 1.389 . S
C379 H358 0.950 . S
C379 C378 1.373 . S
C379 C395 1.377 . S
C380 C378 1.389 . S
C380 C381 1.524 . S
C380 C394 1.377 . S
C381 C380 1.524 . S
C381 C382 1.397 . S
C381 C386 1.363 . S
C382 H359 0.950 . S
C382 C381 1.397 . S
C382 C383 1.334 . S
C383 H360 0.950 . S
C383 C382 1.334 . S
C383 C384 1.287 . S
C384 C383 1.287 . S
C384 C385 1.524 . S
C384 H403 0.913 . S
C385 H361 0.950 . S
C385 C384 1.524 . S
C385 C386 1.415 . S
C386 H362 0.950 . S
C386 C381 1.363 . S
C386 C385 1.415 . S
C387 H363 0.951 . S
C387 C388 1.366 . S
C387 C389 1.388 . S
C388 C387 1.366 . S
C388 C392 1.385 . S
C389 H364 0.951 . S
C389 C387 1.388 . S
C389 C390 1.366 . S
C390 C389 1.366 . S
C390 C391 1.414 . S
C390 C393 1.499 . S
C391 H365 0.950 . S
C391 C390 1.414 . S
C391 C392 1.374 . S
C392 H366 0.950 . S
C392 C388 1.385 . S
C392 C391 1.374 . S
C393 C390 1.499 . S
C393 C394 1.373 . S
C393 C395 1.389 . S
C394 H367 0.950 . S
C394 C380 1.377 . S
C394 C393 1.373 . S
C395 C379 1.377 . S
C395 C393 1.389 . S
C395 C396 1.524 . S
C396 C395 1.524 . S
C396 C397 1.397 . S
C396 C401 1.363 . S
C397 H368 0.950 . S
C397 C396 1.397 . S
C397 C398 1.334 . S
C398 H369 0.950 . S
C398 C397 1.334 . S
C398 C399 1.287 . S
C399 C398 1.287 . S
C399 C400 1.524 . S
C399 H402 0.999 . S
C400 H370 0.950 . S
C400 C399 1.524 . S
C400 C401 1.415 . S
C401 H371 0.950 . S
C401 C396 1.363 . S
C401 C400 1.415 . S
H402 C399 0.999 . S
H403 C384 0.913 . S
H404 C422 0.951 1_554 S
H405 C424 0.951 . S
H406 C426 0.950 . S
H407 C427 0.950 . S
H408 C429 0.950 . S
H409 C432 0.950 . S
H410 C433 0.950 . S
H411 C435 0.950 . S
H412 C436 0.950 . S
H413 C437 0.951 . S
H414 C439 0.951 . S
H415 C441 0.950 . S
H416 C442 0.950 . S
H417 C444 0.950 . S
H418 C447 0.950 . S
H419 C448 0.950 . S
H420 C450 0.950 . S
H421 C451 0.950 . S
C422 H404 0.951 1_556 S
C422 C423 1.366 . S
C422 C424 1.388 . S
C423 C422 1.366 . S
C423 C427 1.385 . S
C424 H405 0.951 . S
C424 C422 1.388 . S
C424 C425 1.366 . S
C425 C424 1.366 . S
C425 C426 1.414 . S
C425 C428 1.499 . S
C426 H406 0.950 . S
C426 C425 1.414 . S
C426 C427 1.374 . S
C427 H407 0.950 . S
C427 C423 1.385 . S
C427 C426 1.374 . S
C428 C425 1.499 . S
C428 C429 1.373 . S
C428 C430 1.389 . S
C429 H408 0.950 . S
C429 C428 1.373 . S
C429 C445 1.377 . S
C430 C428 1.389 . S
C430 C431 1.524 . S
C430 C444 1.377 . S
C431 C430 1.524 . S
C431 C432 1.397 . S
C431 C436 1.363 . S
C432 H409 0.950 . S
C432 C431 1.397 . S
C432 C433 1.334 . S
C433 H410 0.950 . S
C433 C432 1.334 . S
C433 C434 1.287 . S
C434 C433 1.287 . S
C434 C435 1.524 . S
C434 H453 0.913 . S
C435 H411 0.950 . S
C435 C434 1.524 . S
C435 C436 1.415 . S
C436 H412 0.950 . S
C436 C431 1.363 . S
C436 C435 1.415 . S
C437 H413 0.951 . S
C437 C438 1.366 . S
C437 C439 1.388 . S
C438 C437 1.366 . S
C438 C442 1.385 . S
C439 H414 0.951 . S
C439 C437 1.388 . S
C439 C440 1.366 . S
C440 C439 1.366 . S
C440 C441 1.414 . S
C440 C443 1.499 . S
C441 H415 0.950 . S
C441 C440 1.414 . S
C441 C442 1.374 . S
C442 H416 0.950 . S
C442 C438 1.385 . S
C442 C441 1.374 . S
C443 C440 1.499 . S
C443 C444 1.373 . S
C443 C445 1.389 . S
C444 H417 0.950 . S
C444 C430 1.377 . S
C444 C443 1.373 . S
C445 C429 1.377 . S
C445 C443 1.389 . S
C445 C446 1.524 . S
C446 C445 1.524 . S
C446 C447 1.397 . S
C446 C451 1.363 . S
C447 H418 0.950 . S
C447 C446 1.397 . S
C447 C448 1.334 . S
C448 H419 0.950 . S
C448 C447 1.334 . S
C448 C449 1.287 . S
C449 C448 1.287 . S
C449 C450 1.524 . S
C449 H452 0.999 . S
C450 H420 0.950 . S
C450 C449 1.524 . S
C450 C451 1.415 . S
C451 H421 0.950 . S
C451 C446 1.363 . S
C451 C450 1.415 . S
H452 C449 0.999 . S
H453 C434 0.913 . S
H454 C472 0.951 . S
H455 C474 0.951 . S
H456 C476 0.950 . S
H457 C477 0.950 . S
H458 C479 0.950 . S
H459 C482 0.950 . S
H460 C483 0.950 . S
H461 C485 0.950 . S
H462 C486 0.950 . S
H463 C487 0.951 . S
H464 C489 0.951 . S
H465 C491 0.950 . S
H466 C492 0.950 . S
H467 C494 0.950 . S
H468 C497 0.950 . S
H469 C498 0.950 . S
H470 C500 0.950 . S
H471 C501 0.950 . S
C472 H454 0.951 . S
C472 C473 1.366 . S
C472 C474 1.388 . S
C473 C472 1.366 . S
C473 C477 1.385 . S
C474 H455 0.951 . S
C474 C472 1.388 . S
C474 C475 1.366 . S
C475 C474 1.366 . S
C475 C476 1.414 . S
C475 C478 1.499 . S
C476 H456 0.950 . S
C476 C475 1.414 . S
C476 C477 1.374 . S
C477 H457 0.950 . S
C477 C473 1.385 . S
C477 C476 1.374 . S
C478 C475 1.499 . S
C478 C479 1.373 . S
C478 C480 1.389 . S
C479 H458 0.950 . S
C479 C478 1.373 . S
C479 C495 1.377 . S
C480 C478 1.389 . S
C480 C481 1.524 . S
C480 C494 1.377 . S
C481 C480 1.524 . S
C481 C482 1.397 . S
C481 C486 1.363 . S
C482 H459 0.950 . S
C482 C481 1.397 . S
C482 C483 1.334 . S
C483 H460 0.950 . S
C483 C482 1.334 . S
C483 C484 1.287 . S
C484 C483 1.287 . S
C484 C485 1.524 . S
C484 H503 0.913 . S
C485 H461 0.950 . S
C485 C484 1.524 . S
C485 C486 1.415 . S
C486 H462 0.950 . S
C486 C481 1.363 . S
C486 C485 1.415 . S
C487 H463 0.951 . S
C487 C488 1.366 . S
C487 C489 1.388 . S
C488 C487 1.366 . S
C488 C492 1.385 . S
C489 H464 0.951 . S
C489 C487 1.388 . S
C489 C490 1.366 . S
C490 C489 1.366 . S
C490 C491 1.414 . S
C490 C493 1.499 . S
C491 H465 0.950 . S
C491 C490 1.414 . S
C491 C492 1.374 . S
C492 H466 0.950 . S
C492 C488 1.385 . S
C492 C491 1.374 . S
C493 C490 1.499 . S
C493 C494 1.373 . S
C493 C495 1.389 . S
C494 H467 0.950 . S
C494 C480 1.377 . S
C494 C493 1.373 . S
C495 C479 1.377 . S
C495 C493 1.389 . S
C495 C496 1.524 . S
C496 C495 1.524 . S
C496 C497 1.397 . S
C496 C501 1.363 . S
C497 H468 0.950 . S
C497 C496 1.397 . S
C497 C498 1.334 . S
C498 H469 0.950 . S
C498 C497 1.334 . S
C498 C499 1.287 . S
C499 C498 1.287 . S
C499 C500 1.524 . S
C499 H502 0.999 . S
C500 H470 0.950 . S
C500 C499 1.524 . S
C500 C501 1.415 . S
C501 H471 0.950 . S
C501 C496 1.363 . S
C501 C500 1.415 . S
H502 C499 0.999 . S
H503 C484 0.913 . S
H504 C522 0.951 . S
H505 C524 0.951 . S
H506 C526 0.950 . S
H507 C527 0.950 . S
H508 C529 0.950 . S
H509 C532 0.950 . S
H510 C533 0.950 . S
H511 C535 0.950 . S
H512 C536 0.950 . S
H513 C537 0.951 . S
H514 C539 0.951 . S
H515 C541 0.950 . S
H516 C542 0.950 . S
H517 C544 0.950 . S
H518 C547 0.950 . S
H519 C548 0.950 . S
H520 C550 0.950 . S
H521 C551 0.950 . S
C522 H504 0.951 . S
C522 C523 1.366 . S
C522 C524 1.388 . S
C523 C522 1.366 . S
C523 C527 1.385 . S
C524 H505 0.951 . S
C524 C522 1.388 . S
C524 C525 1.366 . S
C525 C524 1.366 . S
C525 C526 1.414 . S
C525 C528 1.499 . S
C526 H506 0.950 . S
C526 C525 1.414 . S
C526 C527 1.374 . S
C527 H507 0.950 . S
C527 C523 1.385 . S
C527 C526 1.374 . S
C528 C525 1.499 . S
C528 C529 1.373 . S
C528 C530 1.389 . S
C529 H508 0.950 . S
C529 C528 1.373 . S
C529 C545 1.377 1_455 S
C530 C528 1.389 . S
C530 C531 1.524 . S
C530 C544 1.377 1_455 S
C531 C530 1.524 . S
C531 C532 1.397 . S
C531 C536 1.363 . S
C532 H509 0.950 . S
C532 C531 1.397 . S
C532 C533 1.334 . S
C533 H510 0.950 . S
C533 C532 1.334 . S
C533 C534 1.287 . S
C534 C533 1.287 . S
C534 C535 1.524 . S
C534 H553 0.913 . S
C535 H511 0.950 . S
C535 C534 1.524 . S
C535 C536 1.415 . S
C536 H512 0.950 . S
C536 C531 1.363 . S
C536 C535 1.415 . S
C537 H513 0.951 . S
C537 C538 1.366 . S
C537 C539 1.388 . S
C538 C537 1.366 . S
C538 C542 1.385 . S
C539 H514 0.951 . S
C539 C537 1.388 . S
C539 C540 1.366 . S
C540 C539 1.366 . S
C540 C541 1.414 . S
C540 C543 1.499 . S
C541 H515 0.950 . S
C541 C540 1.414 . S
C541 C542 1.374 . S
C542 H516 0.950 . S
C542 C538 1.385 . S
C542 C541 1.374 . S
C543 C540 1.499 . S
C543 C544 1.373 . S
C543 C545 1.389 . S
C544 H517 0.950 . S
C544 C530 1.377 1_655 S
C544 C543 1.373 . S
C545 C529 1.377 1_655 S
C545 C543 1.389 . S
C545 C546 1.524 . S
C546 C545 1.524 . S
C546 C547 1.397 . S
C546 C551 1.363 . S
C547 H518 0.950 . S
C547 C546 1.397 . S
C547 C548 1.334 . S
C548 H519 0.950 . S
C548 C547 1.334 . S
C548 C549 1.287 . S
C549 C548 1.287 . S
C549 C550 1.524 . S
C549 H552 0.999 . S
C550 H520 0.950 . S
C550 C549 1.524 . S
C550 C551 1.415 . S
C551 H521 0.950 . S
C551 C546 1.363 . S
C551 C550 1.415 . S
H552 C549 0.999 . S
H553 C534 0.913 . S
H554 C572 0.951 . S
H555 C574 0.951 . S
H556 C576 0.950 . S
H557 C577 0.950 . S
H558 C579 0.950 . S
H559 C582 0.950 . S
H560 C583 0.950 . S
H561 C585 0.950 . S
H562 C586 0.950 . S
H563 C587 0.951 . S
H564 C589 0.951 . S
H565 C591 0.950 . S
H566 C592 0.950 . S
H567 C594 0.950 . S
H568 C597 0.950 . S
H569 C598 0.950 . S
H570 C600 0.950 . S
H571 C601 0.950 . S
C572 H554 0.951 . S
C572 C573 1.366 . S
C572 C574 1.388 . S
C573 C572 1.366 . S
C573 C577 1.385 . S
C574 H555 0.951 . S
C574 C572 1.388 . S
C574 C575 1.366 . S
C575 C574 1.366 . S
C575 C576 1.414 . S
C575 C578 1.499 . S
C576 H556 0.950 . S
C576 C575 1.414 . S
C576 C577 1.374 . S
C577 H557 0.950 . S
C577 C573 1.385 . S
C577 C576 1.374 . S
C578 C575 1.499 . S
C578 C579 1.373 . S
C578 C580 1.389 . S
C579 H558 0.950 . S
C579 C578 1.373 . S
C579 C595 1.377 . S
C580 C578 1.389 . S
C580 C581 1.524 . S
C580 C594 1.377 . S
C581 C580 1.524 . S
C581 C582 1.397 . S
C581 C586 1.363 . S
C582 H559 0.950 . S
C582 C581 1.397 . S
C582 C583 1.334 . S
C583 H560 0.950 . S
C583 C582 1.334 . S
C583 C584 1.287 . S
C584 C583 1.287 . S
C584 C585 1.524 . S
C584 H603 0.913 . S
C585 H561 0.950 . S
C585 C584 1.524 . S
C585 C586 1.415 . S
C586 H562 0.950 . S
C586 C581 1.363 . S
C586 C585 1.415 . S
C587 H563 0.951 . S
C587 C588 1.366 . S
C587 C589 1.388 . S
C588 C587 1.366 . S
C588 C592 1.385 . S
C589 H564 0.951 . S
C589 C587 1.388 . S
C589 C590 1.366 . S
C590 C589 1.366 . S
C590 C591 1.414 . S
C590 C593 1.499 . S
C591 H565 0.950 . S
C591 C590 1.414 . S
C591 C592 1.374 . S
C592 H566 0.950 . S
C592 C588 1.385 . S
C592 C591 1.374 . S
C593 C590 1.499 . S
C593 C594 1.373 . S
C593 C595 1.389 . S
C594 H567 0.950 . S
C594 C580 1.377 . S
C594 C593 1.373 . S
C595 C579 1.377 . S
C595 C593 1.389 . S
C595 C596 1.524 . S
C596 C595 1.524 . S
C596 C597 1.397 . S
C596 C601 1.363 . S
C597 H568 0.950 . S
C597 C596 1.397 . S
C597 C598 1.334 . S
C598 H569 0.950 . S
C598 C597 1.334 . S
C598 C599 1.287 . S
C599 C598 1.287 . S
C599 C600 1.524 . S
C599 H602 0.999 . S
C600 H570 0.950 . S
C600 C599 1.524 . S
C600 C601 1.415 . S
C601 H571 0.950 . S
C601 C596 1.363 . S
C601 C600 1.415 . S
H602 C599 0.999 . S
H603 C584 0.913 . S
H604 C622 0.951 . S
H605 C624 0.951 . S
H606 C626 0.950 . S
H607 C627 0.950 . S
H608 C629 0.950 . S
H609 C632 0.950 . S
H610 C633 0.950 . S
H611 C635 0.950 . S
H612 C636 0.950 1_655 S
H613 C637 0.951 . S
H614 C639 0.951 . S
H615 C641 0.950 . S
H616 C642 0.950 . S
H617 C644 0.950 . S
H618 C647 0.950 . S
H619 C648 0.950 . S
H620 C650 0.950 . S
H621 C651 0.950 1_455 S
C622 H604 0.951 . S
C622 C623 1.366 . S
C622 C624 1.388 . S
C623 C622 1.366 . S
C623 C627 1.385 . S
C624 H605 0.951 . S
C624 C622 1.388 . S
C624 C625 1.366 . S
C625 C624 1.366 . S
C625 C626 1.414 . S
C625 C628 1.499 . S
C626 H606 0.950 . S
C626 C625 1.414 . S
C626 C627 1.374 . S
C627 H607 0.950 . S
C627 C623 1.385 . S
C627 C626 1.374 . S
C628 C625 1.499 . S
C628 C629 1.373 . S
C628 C630 1.389 . S
C629 H608 0.950 . S
C629 C628 1.373 . S
C629 C645 1.377 1_455 S
C630 C628 1.389 . S
C630 C631 1.524 . S
C630 C644 1.377 1_455 S
C631 C630 1.524 . S
C631 C632 1.397 . S
C631 C636 1.363 . S
C632 H609 0.950 . S
C632 C631 1.397 . S
C632 C633 1.334 . S
C633 H610 0.950 . S
C633 C632 1.334 . S
C633 C634 1.287 . S
C634 C633 1.287 . S
C634 C635 1.524 . S
C634 H653 0.913 . S
C635 H611 0.950 . S
C635 C634 1.524 . S
C635 C636 1.415 . S
C636 H612 0.950 1_455 S
C636 C631 1.363 . S
C636 C635 1.415 . S
C637 H613 0.951 . S
C637 C638 1.366 . S
C637 C639 1.388 . S
C638 C637 1.366 . S
C638 C642 1.385 . S
C639 H614 0.951 . S
C639 C637 1.388 . S
C639 C640 1.366 . S
C640 C639 1.366 . S
C640 C641 1.414 . S
C640 C643 1.499 . S
C641 H615 0.950 . S
C641 C640 1.414 . S
C641 C642 1.374 . S
C642 H616 0.950 . S
C642 C638 1.385 . S
C642 C641 1.374 . S
C643 C640 1.499 . S
C643 C644 1.373 . S
C643 C645 1.389 . S
C644 H617 0.950 . S
C644 C630 1.377 1_655 S
C644 C643 1.373 . S
C645 C629 1.377 1_655 S
C645 C643 1.389 . S
C645 C646 1.524 . S
C646 C645 1.524 . S
C646 C647 1.397 . S
C646 C651 1.363 . S
C647 H618 0.950 . S
C647 C646 1.397 . S
C647 C648 1.334 . S
C648 H619 0.950 . S
C648 C647 1.334 . S
C648 C649 1.287 . S
C649 C648 1.287 . S
C649 C650 1.524 . S
C649 H652 0.999 . S
C650 H620 0.950 . S
C650 C649 1.524 . S
C650 C651 1.415 . S
C651 H621 0.950 1_655 S
C651 C646 1.363 . S
C651 C650 1.415 . S
H652 C649 0.999 . S
H653 C634 0.913 . S
H654 C672 0.951 . S
H655 C674 0.951 . S
H656 C676 0.950 . S
H657 C677 0.950 . S
H658 C679 0.950 . S
H659 C682 0.950 . S
H660 C683 0.950 . S
H661 C685 0.950 . S
H662 C686 0.950 . S
H663 C687 0.951 . S
H664 C689 0.951 . S
H665 C691 0.950 . S
H666 C692 0.950 . S
H667 C694 0.950 . S
H668 C697 0.950 . S
H669 C698 0.950 . S
H670 C700 0.950 . S
H671 C701 0.950 . S
C672 H654 0.951 . S
C672 C673 1.366 . S
C672 C674 1.388 . S
C673 C672 1.366 . S
C673 C677 1.385 . S
C674 H655 0.951 . S
C674 C672 1.388 . S
C674 C675 1.366 . S
C675 C674 1.366 . S
C675 C676 1.414 . S
C675 C678 1.499 . S
C676 H656 0.950 . S
C676 C675 1.414 . S
C676 C677 1.374 . S
C677 H657 0.950 . S
C677 C673 1.385 . S
C677 C676 1.374 . S
C678 C675 1.499 . S
C678 C679 1.373 . S
C678 C680 1.389 . S
C679 H658 0.950 . S
C679 C678 1.373 . S
C679 C695 1.377 . S
C680 C678 1.389 . S
C680 C681 1.524 . S
C680 C694 1.377 . S
C681 C680 1.524 . S
C681 C682 1.397 . S
C681 C686 1.363 . S
C682 H659 0.950 . S
C682 C681 1.397 . S
C682 C683 1.334 . S
C683 H660 0.950 . S
C683 C682 1.334 . S
C683 C684 1.287 . S
C684 C683 1.287 . S
C684 C685 1.524 . S
C684 H703 0.913 . S
C685 H661 0.950 . S
C685 C684 1.524 . S
C685 C686 1.415 . S
C686 H662 0.950 . S
C686 C681 1.363 . S
C686 C685 1.415 . S
C687 H663 0.951 . S
C687 C688 1.366 . S
C687 C689 1.388 . S
C688 C687 1.366 . S
C688 C692 1.385 . S
C689 H664 0.951 . S
C689 C687 1.388 . S
C689 C690 1.366 . S
C690 C689 1.366 . S
C690 C691 1.414 . S
C690 C693 1.499 . S
C691 H665 0.950 . S
C691 C690 1.414 . S
C691 C692 1.374 . S
C692 H666 0.950 . S
C692 C688 1.385 . S
C692 C691 1.374 . S
C693 C690 1.499 . S
C693 C694 1.373 . S
C693 C695 1.389 . S
C694 H667 0.950 . S
C694 C680 1.377 . S
C694 C693 1.373 . S
C695 C679 1.377 . S
C695 C693 1.389 . S
C695 C696 1.524 . S
C696 C695 1.524 . S
C696 C697 1.397 . S
C696 C701 1.363 . S
C697 H668 0.950 . S
C697 C696 1.397 . S
C697 C698 1.334 . S
C698 H669 0.950 . S
C698 C697 1.334 . S
C698 C699 1.287 . S
C699 C698 1.287 . S
C699 C700 1.524 . S
C699 H702 0.999 . S
C700 H670 0.950 . S
C700 C699 1.524 . S
C700 C701 1.415 . S
C701 H671 0.950 . S
C701 C696 1.363 . S
C701 C700 1.415 . S
H702 C699 0.999 . S
H703 C684 0.913 . S
H704 C722 0.951 . S
H705 C724 0.951 . S
H706 C726 0.950 1_556 S
H707 C727 0.955 . S
H708 C729 0.950 . S
H709 C732 0.950 . S
H710 C733 0.950 . S
H711 C735 0.950 . S
H712 C736 0.950 . S
H713 C737 0.951 . S
H714 C739 0.951 . S
H715 C741 0.950 1_554 S
H716 C742 0.955 . S
H717 C744 0.950 . S
H718 C747 0.950 . S
H719 C748 0.950 . S
H720 C750 0.950 . S
H721 C751 0.950 . S
C722 H704 0.951 . S
C722 C723 1.366 . S
C722 C724 1.388 . S
C723 C722 1.366 . S
C723 C727 1.385 . S
C724 H705 0.951 . S
C724 C722 1.388 . S
C724 C725 1.366 . S
C725 C724 1.366 . S
C725 C726 1.414 . S
C725 C728 1.499 . S
C726 H706 0.950 1_554 S
C726 C725 1.414 . S
C726 C727 1.374 . S
C727 H707 0.955 . S
C727 C723 1.385 . S
C727 C726 1.374 . S
C728 C725 1.499 . S
C728 C729 1.373 1_554 S
C728 C730 1.399 . S
C729 H708 0.950 . S
C729 C728 1.373 1_556 S
C729 C745 1.367 1_445 S
C730 C728 1.399 . S
C730 C731 1.524 . S
C730 C744 1.367 1_445 S
C731 C730 1.524 . S
C731 C732 1.420 . S
C731 C736 1.340 1_455 S
C732 H709 0.950 . S
C732 C731 1.420 . S
C732 C733 1.334 . S
C733 H710 0.950 . S
C733 C732 1.334 . S
C733 C734 1.287 . S
C734 C733 1.287 . S
C734 C735 1.524 1_455 S
C734 H753 0.913 . S
C735 H711 0.950 . S
C735 C734 1.524 1_655 S
C735 C736 1.415 . S
C736 H712 0.950 . S
C736 C731 1.340 1_655 S
C736 C735 1.415 . S
C737 H713 0.951 . S
C737 C738 1.366 . S
C737 C739 1.388 . S
C738 C737 1.366 . S
C738 C742 1.385 . S
C739 H714 0.951 . S
C739 C737 1.388 . S
C739 C740 1.366 . S
C740 C739 1.366 . S
C740 C741 1.414 . S
C740 C743 1.499 . S
C741 H715 0.950 1_556 S
C741 C740 1.414 . S
C741 C742 1.374 . S
C742 H716 0.955 . S
C742 C738 1.385 . S
C742 C741 1.374 . S
C743 C740 1.499 . S
C743 C744 1.373 1_556 S
C743 C745 1.399 . S
C744 H717 0.950 . S
C744 C730 1.367 1_665 S
C744 C743 1.373 1_554 S
C745 C729 1.367 1_665 S
C745 C743 1.399 . S
C745 C746 1.524 . S
C746 C745 1.524 . S
C746 C747 1.420 . S
C746 C751 1.340 1_655 S
C747 H718 0.950 . S
C747 C746 1.420 . S
C747 C748 1.334 . S
C748 H719 0.950 . S
C748 C747 1.334 . S
C748 C749 1.287 . S
C749 C748 1.287 . S
C749 C750 1.524 1_655 S
C749 H752 0.999 . S
C750 H720 0.950 . S
C750 C749 1.524 1_455 S
C750 C751 1.415 . S
C751 H721 0.950 . S
C751 C746 1.340 1_455 S
C751 C750 1.415 . S
H752 C749 0.999 . S
H753 C734 0.913 . S
H754 C772 0.951 . S
H755 C774 0.951 . S
H756 C776 0.950 . S
H757 C777 0.950 . S
H758 C779 0.950 . S
H759 C782 0.950 . S
H760 C783 0.950 . S
H761 C785 0.950 . S
H762 C786 0.950 . S
H763 C787 0.951 . S
H764 C789 0.951 . S
H765 C791 0.950 . S
H766 C792 0.950 . S
H767 C794 0.950 . S
H768 C797 0.950 . S
H769 C798 0.950 . S
H770 C800 0.950 . S
H771 C801 0.950 . S
C772 H754 0.951 . S
C772 C773 1.366 . S
C772 C774 1.388 . S
C773 C772 1.366 . S
C773 C777 1.385 . S
C774 H755 0.951 . S
C774 C772 1.388 . S
C774 C775 1.366 . S
C775 C774 1.366 . S
C775 C776 1.414 . S
C775 C778 1.499 . S
C776 H756 0.950 . S
C776 C775 1.414 . S
C776 C777 1.374 . S
C777 H757 0.950 . S
C777 C773 1.385 . S
C777 C776 1.374 . S
C778 C775 1.499 . S
C778 C779 1.373 . S
C778 C780 1.389 . S
C779 H758 0.950 . S
C779 C778 1.373 . S
C779 C795 1.377 . S
C780 C778 1.389 . S
C780 C781 1.524 . S
C780 C794 1.377 . S
C781 C780 1.524 . S
C781 C782 1.397 . S
C781 C786 1.363 . S
C782 H759 0.950 . S
C782 C781 1.397 . S
C782 C783 1.334 . S
C783 H760 0.950 . S
C783 C782 1.334 . S
C783 C784 1.287 . S
C784 C783 1.287 . S
C784 C785 1.524 . S
C784 H803 0.913 . S
C785 H761 0.950 . S
C785 C784 1.524 . S
C785 C786 1.415 . S
C786 H762 0.950 . S
C786 C781 1.363 . S
C786 C785 1.415 . S
C787 H763 0.951 . S
C787 C788 1.366 . S
C787 C789 1.388 . S
C788 C787 1.366 . S
C788 C792 1.385 . S
C789 H764 0.951 . S
C789 C787 1.388 . S
C789 C790 1.366 . S
C790 C789 1.366 . S
C790 C791 1.414 . S
C790 C793 1.499 . S
C791 H765 0.950 . S
C791 C790 1.414 . S
C791 C792 1.374 . S
C792 H766 0.950 . S
C792 C788 1.385 . S
C792 C791 1.374 . S
C793 C790 1.499 . S
C793 C794 1.373 . S
C793 C795 1.389 . S
C794 H767 0.950 . S
C794 C780 1.377 . S
C794 C793 1.373 . S
C795 C779 1.377 . S
C795 C793 1.389 . S
C795 C796 1.524 . S
C796 C795 1.524 . S
C796 C797 1.397 . S
C796 C801 1.363 . S
C797 H768 0.950 . S
C797 C796 1.397 . S
C797 C798 1.334 . S
C798 H769 0.950 . S
C798 C797 1.334 . S
C798 C799 1.287 . S
C799 C798 1.287 . S
C799 C800 1.524 . S
C799 H802 0.999 . S
C800 H770 0.950 . S
C800 C799 1.524 . S
C800 C801 1.415 . S
C801 H771 0.950 . S
C801 C796 1.363 . S
C801 C800 1.415 . S
H802 C799 0.999 . S
H803 C784 0.913 . S
H804 C822 0.951 . S
H805 C824 0.951 . S
H806 C826 0.950 . S
H807 C827 0.950 . S
H808 C829 0.950 . S
H809 C832 0.950 1_556 S
H810 C833 0.950 . S
H811 C835 0.950 . S
H812 C836 0.950 . S
H813 C837 0.951 . S
H814 C839 0.951 . S
H815 C841 0.950 . S
H816 C842 0.950 . S
H817 C844 0.950 . S
H818 C847 0.950 1_554 S
H819 C848 0.950 . S
H820 C850 0.950 . S
H821 C851 0.950 . S
C822 H804 0.951 . S
C822 C823 1.366 . S
C822 C824 1.388 . S
C823 C822 1.366 . S
C823 C827 1.385 1_554 S
C824 H805 0.951 . S
C824 C822 1.388 . S
C824 C825 1.366 . S
C825 C824 1.366 . S
C825 C826 1.414 1_554 S
C825 C828 1.499 . S
C826 H806 0.950 . S
C826 C825 1.414 1_556 S
C826 C827 1.374 . S
C827 H807 0.950 . S
C827 C823 1.385 1_556 S
C827 C826 1.374 . S
C828 C825 1.499 . S
C828 C829 1.373 1_554 S
C828 C830 1.389 . S
C829 H808 0.950 . S
C829 C828 1.373 1_556 S
C829 C845 1.377 . S
C830 C828 1.389 . S
C830 C831 1.524 . S
C830 C844 1.377 . S
C831 C830 1.524 . S
C831 C832 1.397 . S
C831 C836 1.363 . S
C832 H809 0.950 1_554 S
C832 C831 1.397 . S
C832 C833 1.334 . S
C833 H810 0.950 . S
C833 C832 1.334 . S
C833 C834 1.287 . S
C834 C833 1.287 . S
C834 C835 1.524 . S
C834 H853 0.913 . S
C835 H811 0.950 . S
C835 C834 1.524 . S
C835 C836 1.415 . S
C836 H812 0.950 . S
C836 C831 1.363 . S
C836 C835 1.415 . S
C837 H813 0.951 . S
C837 C838 1.366 . S
C837 C839 1.388 . S
C838 C837 1.366 . S
C838 C842 1.385 1_556 S
C839 H814 0.951 . S
C839 C837 1.388 . S
C839 C840 1.366 . S
C840 C839 1.366 . S
C840 C841 1.414 1_556 S
C840 C843 1.499 . S
C841 H815 0.950 . S
C841 C840 1.414 1_554 S
C841 C842 1.374 . S
C842 H816 0.950 . S
C842 C838 1.385 1_554 S
C842 C841 1.374 . S
C843 C840 1.499 . S
C843 C844 1.373 1_556 S
C843 C845 1.389 . S
C844 H817 0.950 . S
C844 C830 1.377 . S
C844 C843 1.373 1_554 S
C845 C829 1.377 . S
C845 C843 1.389 . S
C845 C846 1.524 . S
C846 C845 1.524 . S
C846 C847 1.397 . S
C846 C851 1.363 . S
C847 H818 0.950 1_556 S
C847 C846 1.397 . S
C847 C848 1.334 . S
C848 H819 0.950 . S
C848 C847 1.334 . S
C848 C849 1.287 . S
C849 C848 1.287 . S
C849 C850 1.524 . S
C849 H852 0.999 . S
C850 H820 0.950 . S
C850 C849 1.524 . S
C850 C851 1.415 . S
C851 H821 0.950 . S
C851 C846 1.363 . S
C851 C850 1.415 . S
H852 C849 0.999 . S
H853 C834 0.913 . S
H854 C872 0.951 . S
H855 C874 0.951 . S
H856 C876 0.950 . S
H857 C877 0.950 . S
H858 C879 0.950 . S
H859 C882 0.950 . S
H860 C883 0.950 . S
H861 C885 0.950 . S
H862 C886 0.950 . S
H863 C887 0.951 . S
H864 C889 0.951 . S
H865 C891 0.950 . S
H866 C892 0.950 . S
H867 C894 0.950 . S
H868 C897 0.950 . S
H869 C898 0.950 . S
H870 C900 0.950 . S
H871 C901 0.950 . S
C872 H854 0.951 . S
C872 C873 1.366 . S
C872 C874 1.388 . S
C873 C872 1.366 . S
C873 C877 1.385 . S
C874 H855 0.951 . S
C874 C872 1.388 . S
C874 C875 1.366 . S
C875 C874 1.366 . S
C875 C876 1.414 . S
C875 C878 1.499 . S
C876 H856 0.950 . S
C876 C875 1.414 . S
C876 C877 1.374 . S
C877 H857 0.950 . S
C877 C873 1.385 . S
C877 C876 1.374 . S
C878 C875 1.499 . S
C878 C879 1.373 1_565 S
C878 C880 1.389 1_455 S
C879 H858 0.950 . S
C879 C878 1.373 1_545 S
C879 C895 1.377 . S
C880 C878 1.389 1_655 S
C880 C881 1.524 . S
C880 C894 1.377 . S
C881 C880 1.524 . S
C881 C882 1.397 . S
C881 C886 1.363 . S
C882 H859 0.950 . S
C882 C881 1.397 . S
C882 C883 1.334 . S
C883 H860 0.950 . S
C883 C882 1.334 . S
C883 C884 1.287 . S
C884 C883 1.287 . S
C884 C885 1.524 . S
C884 H903 0.913 . S
C885 H861 0.950 . S
C885 C884 1.524 . S
C885 C886 1.415 . S
C886 H862 0.950 . S
C886 C881 1.363 . S
C886 C885 1.415 . S
C887 H863 0.951 . S
C887 C888 1.366 . S
C887 C889 1.388 . S
C888 C887 1.366 . S
C888 C892 1.385 . S
C889 H864 0.951 . S
C889 C887 1.388 . S
C889 C890 1.366 . S
C890 C889 1.366 . S
C890 C891 1.414 . S
C890 C893 1.499 . S
C891 H865 0.950 . S
C891 C890 1.414 . S
C891 C892 1.374 . S
C892 H866 0.950 . S
C892 C888 1.385 . S
C892 C891 1.374 . S
C893 C890 1.499 . S
C893 C894 1.373 1_545 S
C893 C895 1.389 1_655 S
C894 H867 0.950 . S
C894 C880 1.377 . S
C894 C893 1.373 1_565 S
C895 C879 1.377 . S
C895 C893 1.389 1_455 S
C895 C896 1.524 . S
C896 C895 1.524 . S
C896 C897 1.397 . S
C896 C901 1.363 . S
C897 H868 0.950 . S
C897 C896 1.397 . S
C897 C898 1.334 . S
C898 H869 0.950 . S
C898 C897 1.334 . S
C898 C899 1.287 . S
C899 C898 1.287 . S
C899 C900 1.524 . S
C899 H902 0.999 . S
C900 H870 0.950 . S
C900 C899 1.524 . S
C900 C901 1.415 . S
C901 H871 0.950 . S
C901 C896 1.363 . S
C901 C900 1.415 . S
H902 C899 0.999 . S
H903 C884 0.913 . S
C123 C23 2.223 . S
C138 C3 2.219 1_556 S
C173 C10 2.223 . S
C188 C16 2.219 . S
C223 C49 2.223 . S
C238 C29 2.219 1_554 S
C273 C36 2.223 . S
C288 C42 2.219 . S
C323 C57 2.219 1_554 S
C338 C66 2.223 . S
C373 C70 2.219 . S
C388 C53 2.223 . S
C423 C83 2.219 1_556 S
C438 C92 2.223 . S
C473 C79 2.223 . S
C488 C96 2.219 . S
C523 C1 0.291 . S
C538 C40 0.293 . S
C573 C14 0.290 . S
C588 C27 0.292 . S
C623 C101 0.290 . S
C638 C62 0.292 . S
C673 C88 0.292 . S
C688 C75 0.294 . S
C723 C5 1.903 . S
C738 C55 1.903 . S
C773 C68 1.903 . S
C788 C18 1.903 . S
C823 C81 1.903 . S
C838 C31 1.903 . S
C873 C94 1.903 . S
C888 C44 1.903 . S
