# Generated by pormake.
# Topology wlb, (5)-cn, num edge types: 1
# Building blocks:
#     Node 0, Type 0, BuildingBlock: XOMCOT_clean_sbu_0, # of connection points: 5
#     Node 1, Type 0, BuildingBlock: XOMCOT_clean_sbu_0, # of connection points: 5
#     Node 2, Type 0, BuildingBlock: XOMCOT_clean_sbu_0, # of connection points: 5
#     Node 3, Type 0, BuildingBlock: XOMCOT_clean_sbu_0, # of connection points: 5
#     Node 4, Type 0, BuildingBlock: XOMCOT_clean_sbu_0, # of connection points: 5
#     Node 5, Type 0, BuildingBlock: XOMCOT_clean_sbu_0, # of connection points: 5
#     Node 6, Type 0, BuildingBlock: XOMCOT_clean_sbu_0, # of connection points: 5
#     Node 7, Type 0, BuildingBlock: XOMCOT_clean_sbu_0, # of connection points: 5
#     Node 8, Type 0, BuildingBlock: XOMCOT_clean_sbu_0, # of connection points: 5
#     Node 9, Type 0, BuildingBlock: XOMCOT_clean_sbu_0, # of connection points: 5
#     Node 10, Type 0, BuildingBlock: XOMCOT_clean_sbu_0, # of connection points: 5
#     Node 11, Type 0, BuildingBlock: XOMCOT_clean_sbu_0, # of connection points: 5
#     Node 12, Type 0, BuildingBlock: XOMCOT_clean_sbu_0, # of connection points: 5
#     Node 13, Type 0, BuildingBlock: XOMCOT_clean_sbu_0, # of connection points: 5
#     Node 14, Type 0, BuildingBlock: XOMCOT_clean_sbu_0, # of connection points: 5
#     Node 15, Type 0, BuildingBlock: XOMCOT_clean_sbu_0, # of connection points: 5
#     Node 16, Type 0, BuildingBlock: XOMCOT_clean_sbu_0, # of connection points: 5
#     Node 17, Type 0, BuildingBlock: XOMCOT_clean_sbu_0, # of connection points: 5
#     Edge 18, Type (0, 0), BuildingBlock: UVAHIK_clean_linker_0, # of connection points: 2
#     Edge 19, Type (0, 0), BuildingBlock: UVAHIK_clean_linker_0, # of connection points: 2
#     Edge 20, Type (0, 0), BuildingBlock: UVAHIK_clean_linker_0, # of connection points: 2
#     Edge 21, Type (0, 0), BuildingBlock: UVAHIK_clean_linker_0, # of connection points: 2
#     Edge 22, Type (0, 0), BuildingBlock: UVAHIK_clean_linker_0, # of connection points: 2
#     Edge 23, Type (0, 0), BuildingBlock: UVAHIK_clean_linker_0, # of connection points: 2
#     Edge 24, Type (0, 0), BuildingBlock: UVAHIK_clean_linker_0, # of connection points: 2
#     Edge 25, Type (0, 0), BuildingBlock: UVAHIK_clean_linker_0, # of connection points: 2
#     Edge 26, Type (0, 0), BuildingBlock: UVAHIK_clean_linker_0, # of connection points: 2
#     Edge 27, Type (0, 0), BuildingBlock: UVAHIK_clean_linker_0, # of connection points: 2
#     Edge 28, Type (0, 0), BuildingBlock: UVAHIK_clean_linker_0, # of connection points: 2
#     Edge 29, Type (0, 0), BuildingBlock: UVAHIK_clean_linker_0, # of connection points: 2
#     Edge 30, Type (0, 0), BuildingBlock: UVAHIK_clean_linker_0, # of connection points: 2
#     Edge 31, Type (0, 0), BuildingBlock: UVAHIK_clean_linker_0, # of connection points: 2
#     Edge 32, Type (0, 0), BuildingBlock: UVAHIK_clean_linker_0, # of connection points: 2
#     Edge 33, Type (0, 0), BuildingBlock: UVAHIK_clean_linker_0, # of connection points: 2
#     Edge 34, Type (0, 0), BuildingBlock: UVAHIK_clean_linker_0, # of connection points: 2
#     Edge 35, Type (0, 0), BuildingBlock: UVAHIK_clean_linker_0, # of connection points: 2
#     Edge 36, Type (0, 0), BuildingBlock: UVAHIK_clean_linker_0, # of connection points: 2
#     Edge 37, Type (0, 0), BuildingBlock: UVAHIK_clean_linker_0, # of connection points: 2
#     Edge 38, Type (0, 0), BuildingBlock: UVAHIK_clean_linker_0, # of connection points: 2
#     Edge 39, Type (0, 0), BuildingBlock: UVAHIK_clean_linker_0, # of connection points: 2
#     Edge 40, Type (0, 0), BuildingBlock: UVAHIK_clean_linker_0, # of connection points: 2
#     Edge 41, Type (0, 0), BuildingBlock: UVAHIK_clean_linker_0, # of connection points: 2
#     Edge 42, Type (0, 0), BuildingBlock: UVAHIK_clean_linker_0, # of connection points: 2
#     Edge 43, Type (0, 0), BuildingBlock: UVAHIK_clean_linker_0, # of connection points: 2
#     Edge 44, Type (0, 0), BuildingBlock: UVAHIK_clean_linker_0, # of connection points: 2
#     Edge 45, Type (0, 0), BuildingBlock: UVAHIK_clean_linker_0, # of connection points: 2
#     Edge 46, Type (0, 0), BuildingBlock: UVAHIK_clean_linker_0, # of connection points: 2
#     Edge 47, Type (0, 0), BuildingBlock: UVAHIK_clean_linker_0, # of connection points: 2
#     Edge 48, Type (0, 0), BuildingBlock: UVAHIK_clean_linker_0, # of connection points: 2
#     Edge 49, Type (0, 0), BuildingBlock: UVAHIK_clean_linker_0, # of connection points: 2
#     Edge 50, Type (0, 0), BuildingBlock: UVAHIK_clean_linker_0, # of connection points: 2
#     Edge 51, Type (0, 0), BuildingBlock: UVAHIK_clean_linker_0, # of connection points: 2
#     Edge 52, Type (0, 0), BuildingBlock: UVAHIK_clean_linker_0, # of connection points: 2
#     Edge 53, Type (0, 0), BuildingBlock: UVAHIK_clean_linker_0, # of connection points: 2
#     Edge 54, Type (0, 0), BuildingBlock: UVAHIK_clean_linker_0, # of connection points: 2
#     Edge 55, Type (0, 0), BuildingBlock: UVAHIK_clean_linker_0, # of connection points: 2
#     Edge 56, Type (0, 0), BuildingBlock: UVAHIK_clean_linker_0, # of connection points: 2
#     Edge 57, Type (0, 0), BuildingBlock: UVAHIK_clean_linker_0, # of connection points: 2
#     Edge 58, Type (0, 0), BuildingBlock: UVAHIK_clean_linker_0, # of connection points: 2
#     Edge 59, Type (0, 0), BuildingBlock: UVAHIK_clean_linker_0, # of connection points: 2
#     Edge 60, Type (0, 0), BuildingBlock: UVAHIK_clean_linker_0, # of connection points: 2
#     Edge 61, Type (0, 0), BuildingBlock: UVAHIK_clean_linker_0, # of connection points: 2
#     Edge 62, Type (0, 0), BuildingBlock: UVAHIK_clean_linker_0, # of connection points: 2
# Relax obj value: 0.314
# Max RMSD: 0.198
# Mean RMSD: 0.198
data_MOF--net-wlb--node1-XOMCOT_clean_sbu_0--edge1-UVAHIK_clean_linker_0
_symmetry_space_group_name_H-M    P1
_symmetry_Int_Tables_number       1
_symmetry_cell_setting            triclinic
loop_
_symmetry_equiv_pos_as_xyz
'x, y, z'
_cell_length_a     66.187666
_cell_length_b     66.212311
_cell_length_c     50.389245
_cell_angle_alpha  90.00281
_cell_angle_beta   89.99192
_cell_angle_gamma 120.04386
loop_
_atom_site_label
_atom_site_type_symbol
_atom_site_fract_x
_atom_site_fract_y
_atom_site_fract_z
_atom_type_partial_charge
Co0 Co 0.04807 0.1988 0.22918 0.0
C1 C 0.01921 0.221 0.21717 0.0
C2 C 0.01362 0.20686 0.25645 0.0
C3 C -0.00087 0.21592 0.25258 0.0
N4 N 0.02602 0.20976 0.23409 0.0
N5 N 0.00258 0.22465 0.22777 0.0
H6 H 0.02606 0.22657 0.19755 0.0
H7 H 0.01459 0.19811 0.27412 0.0
C8 C 0.00105 0.15633 0.23193 0.0
O9 O 0.9935 0.16747 0.21705 0.0
N10 N 0.07008 0.18816 0.2251 0.0
C11 C 0.08867 0.19721 0.20879 0.0
C12 C 0.09971 0.1844 0.21138 0.0
C13 C 0.06999 0.17008 0.23745 0.0
N14 N 0.08792 0.16735 0.22937 0.0
C15 C 0.0505 0.21262 0.1745 0.0
C16 C 0.02618 0.16815 0.15358 0.0
C17 C 0.03274 0.18725 0.13674 0.0
C18 C 0.04577 0.20976 0.1473 0.0
C19 C 0.03153 0.17185 0.18055 0.0
N20 N 0.04182 0.19381 0.19112 0.0
H21 H 0.06055 0.2301 0.18232 0.0
H22 H 0.02752 0.15692 0.19273 0.0
H23 H 0.09364 0.2119 0.19569 0.0
H24 H 0.05714 0.15927 0.2521 0.0
O25 O 0.07331 0.23078 0.22863 0.0
O26 O 0.05929 0.209 0.26477 0.0
O27 O 0.02268 0.16599 0.23804 0.0
C28 C 0.07397 0.22905 0.2543 0.0
H29 H 0.98653 0.21544 0.26664 0.0
H30 H 0.11488 0.18708 0.20032 0.0
H31 H 0.01718 0.15049 0.14592 0.0
H32 H 0.05174 0.22501 0.1348 0.0
Co33 Co 0.79708 0.84688 0.22851 0.0
C34 C 0.77463 0.79531 0.21806 0.0
C35 C 0.78676 0.80467 0.25801 0.0
C36 C 0.7772 0.78092 0.25528 0.0
N37 N 0.78531 0.81378 0.23461 0.0
N38 N 0.76973 0.77515 0.23007 0.0
H39 H 0.77039 0.79616 0.19768 0.0
H40 H 0.79472 0.81472 0.27576 0.0
C41 C 0.83882 0.84147 0.23318 0.0
O42 O 0.82751 0.82263 0.21856 0.0
N43 N 0.80852 0.87961 0.22338 0.0
C44 C 0.80012 0.88915 0.20618 0.0
C45 C 0.81309 0.91303 0.20852 0.0
C46 C 0.82639 0.89764 0.23598 0.0
N47 N 0.8296 0.91832 0.22724 0.0
C48 C 0.78413 0.83417 0.17414 0.0
C49 C 0.8288 0.85582 0.15356 0.0
C50 C 0.80987 0.84296 0.13655 0.0
C51 C 0.78727 0.83247 0.14705 0.0
C52 C 0.82484 0.8569 0.18061 0.0
N53 N 0.80278 0.84482 0.19091 0.0
H54 H 0.76655 0.82644 0.18172 0.0
H55 H 0.83958 0.86786 0.19305 0.0
H56 H 0.7857 0.87941 0.19273 0.0
H57 H 0.83667 0.89564 0.25137 0.0
O58 O 0.76551 0.84086 0.22617 0.0
O59 O 0.78593 0.84877 0.26341 0.0
O60 O 0.82946 0.85382 0.2387 0.0
C61 C 0.76639 0.84367 0.25174 0.0
H62 H 0.77642 0.76897 0.27043 0.0
H63 H 0.81086 0.92553 0.19691 0.0
H64 H 0.84653 0.86481 0.14612 0.0
H65 H 0.77211 0.82322 0.1344 0.0
Co66 Co 0.14844 0.94747 0.23123 0.0
C67 C 0.20049 0.97474 0.22298 0.0
C68 C 0.18937 0.98497 0.25785 0.0
C69 C 0.21317 -0.00092 0.25546 0.0
N70 N 0.18126 0.97011 0.23706 0.0
N71 N 0.22001 0.99248 0.23359 0.0
H72 H 0.20064 0.96591 0.20517 0.0
H73 H 0.17856 0.98588 0.27337 0.0
C74 C 0.1516 0.99373 0.2306 0.0
O75 O 0.16994 0.00074 0.21519 0.0
N76 N 0.11592 0.92498 0.22656 0.0
C77 C 0.1068 0.90626 0.21045 0.0
C78 C 0.08286 0.89501 0.21253 0.0
C79 C 0.09762 0.92494 0.23827 0.0
N80 N 0.07714 0.90682 0.22999 0.0
C81 C 0.16268 0.94634 0.17745 0.0
C82 C 0.13805 0.96519 0.15418 0.0
C83 C 0.15279 0.96074 0.13843 0.0
C84 C 0.16484 0.95074 0.15021 0.0
C85 C 0.13683 0.96098 0.18143 0.0
N86 N 0.15039 0.95325 0.19308 0.0
H87 H 0.1708 0.9372 0.18593 0.0
H88 H 0.12472 0.96373 0.19304 0.0
H89 H 0.11686 0.90136 0.19782 0.0
H90 H 0.09928 0.93785 0.25261 0.0
O91 O 0.15565 0.92266 0.23171 0.0
O92 O 0.1469 0.9367 0.26715 0.0
O93 O 0.14029 0.97255 0.23851 0.0
C94 C 0.15265 0.92209 0.25727 0.0
H95 H 0.22455 0.01314 0.26863 0.0
H96 H 0.07063 0.87969 0.2015 0.0
H97 H 0.12779 0.97214 0.14557 0.0
H98 H 0.1755 0.94599 0.13837 0.0
Co99 Co 0.19429 0.04405 0.77038 0.0
C100 C 0.21674 0.01463 0.7781 0.0
C101 C 0.20173 0.01081 0.73952 0.0
C102 C 0.21085 0.99617 0.74126 0.0
N103 N 0.20516 0.02222 0.76276 0.0
N104 N 0.22011 -0.00148 0.76564 0.0
H105 H 0.22276 0.02051 0.79788 0.0
H106 H 0.19263 0.01257 0.72265 0.0
C107 C 0.15222 0.99734 0.76685 0.0
O108 O 0.16357 0.99013 0.7819 0.0
N109 N 0.18377 0.0659 0.77714 0.0
C110 C 0.19334 0.08354 0.79476 0.0
C111 C 0.17993 0.09399 0.79579 0.0
C112 C 0.16477 0.0659 0.76747 0.0
N113 N 0.16196 0.08285 0.77872 0.0
C114 C 0.20821 0.04291 0.82421 0.0
C115 C 0.16404 0.02171 0.84601 0.0
C116 C 0.183 0.0264 0.86248 0.0
C117 C 0.20541 0.03758 0.85123 0.0
C118 C 0.16764 0.02693 0.81898 0.0
N119 N 0.18936 0.03594 0.808 0.0
H120 H 0.22569 0.05242 0.81624 0.0
H121 H 0.15291 0.02414 0.80707 0.0
H122 H 0.2087 0.08808 0.80654 0.0
H123 H 0.15284 0.05331 0.75327 0.0
O124 O 0.2262 0.0691 0.77195 0.0
O125 O 0.20466 0.05718 0.73541 0.0
O126 O 0.16151 0.01897 0.76091 0.0
C127 C 0.22469 0.07115 0.74648 0.0
H128 H 0.21006 0.98424 0.72607 0.0
H129 H 0.18307 0.10859 0.80828 0.0
H130 H 0.14656 0.01445 0.85392 0.0
H131 H 0.22076 0.04203 0.863 0.0
Co132 Co 0.94412 0.14812 0.76965 0.0
C133 C 0.97224 0.19944 0.78072 0.0
C134 C 0.97671 0.19073 0.74106 0.0
C135 C 0.99075 0.21443 0.74442 0.0
N136 N 0.96532 0.18125 0.76396 0.0
N137 N 0.988 0.21982 0.76946 0.0
H138 H 0.9661 0.19814 0.80071 0.0
H139 H 0.9754 0.18094 0.72332 0.0
C140 C 0.99175 0.1542 0.76511 0.0
O141 O -0.00056 0.1736 0.77871 0.0
N142 N 0.9228 0.11534 0.77457 0.0
C143 C 0.90374 0.10581 0.79016 0.0
C144 C 0.89329 0.08193 0.7885 0.0
C145 C 0.92375 0.09729 0.76359 0.0
N146 N 0.90592 0.07656 0.77185 0.0
C147 C 0.94229 0.15982 0.82428 0.0
C148 C 0.96797 0.14105 0.84484 0.0
C149 C 0.96073 0.15288 0.862 0.0
C150 C 0.94715 0.16178 0.85144 0.0
C151 C 0.9625 0.1393 0.81789 0.0
N152 N 0.95132 0.15015 0.80751 0.0
H153 H 0.93166 0.16664 0.81665 0.0
H154 H 0.96709 0.12888 0.80562 0.0
H155 H 0.89792 0.11555 0.802 0.0
H156 H 0.93745 0.09935 0.75026 0.0
O157 O 0.91838 0.15399 0.77092 0.0
O158 O 0.93187 0.14625 0.73435 0.0
O159 O 0.96994 0.1414 0.76025 0.0
C160 C 0.91709 0.15124 0.74531 0.0
H161 H 0.00258 0.22658 0.72982 0.0
H162 H 0.87752 0.06956 0.79874 0.0
H163 H 0.978 0.13332 0.85199 0.0
H164 H 0.94017 0.17008 0.86403 0.0
Co165 Co 0.8474 0.79819 0.76859 0.0
C166 C 0.79743 0.77855 0.7802 0.0
C167 C 0.80739 0.79861 0.7442 0.0
C168 C 0.78392 0.79009 0.74846 0.0
N169 N 0.81574 0.79139 0.76416 0.0
N170 N 0.77778 0.77759 0.77117 0.0
H171 H 0.79847 0.77003 0.79805 0.0
H172 H 0.81769 0.80943 0.72782 0.0
C173 C 0.87551 0.85008 0.76873 0.0
O174 O 0.88731 0.84835 0.78874 0.0
N175 N 0.87944 0.80497 0.77188 0.0
C176 C 0.88923 0.79675 0.7891 0.0
C177 C 0.91272 0.80705 0.78363 0.0
C178 C 0.8969 0.81911 0.75539 0.0
N179 N 0.91753 0.82135 0.76261 0.0
C180 C 0.84512 0.7896 0.82472 0.0
C181 C 0.83813 0.82571 0.84001 0.0
C182 C 0.83945 0.81139 0.85954 0.0
C183 C 0.84262 0.7929 0.8516 0.0
C184 C 0.84055 0.82166 0.81334 0.0
N185 N 0.84541 0.80464 0.806 0.0
H186 H 0.84594 0.77436 0.819 0.0
H187 H 0.83774 0.83183 0.79861 0.0
H188 H 0.88037 0.7842 0.80459 0.0
H189 H 0.8946 0.82811 0.73877 0.0
O190 O 0.8366 0.76537 0.77119 0.0
O191 O 0.84646 0.78568 0.73369 0.0
O192 O 0.85875 0.83168 0.75833 0.0
C193 C 0.83898 0.7657 0.74556 0.0
H194 H 0.77241 0.79326 0.73613 0.0
H195 H 0.92538 0.80486 0.79494 0.0
H196 H 0.83453 0.83947 0.84522 0.0
H197 H 0.84304 0.78097 0.86599 0.0
Co198 Co 0.71024 0.53002 0.56466 0.0
C199 C 0.68453 0.55623 0.55628 0.0
C200 C 0.67471 0.53617 0.59217 0.0
C201 C 0.66125 0.54656 0.58968 0.0
N202 N 0.6889 0.54171 0.57085 0.0
N203 N 0.66759 0.55918 0.56717 0.0
H204 H 0.69286 0.56417 0.53783 0.0
H205 H 0.67373 0.52474 0.60806 0.0
C206 C 0.66277 0.48852 0.56493 0.0
O207 O 0.65653 0.50053 0.54961 0.0
N208 N 0.73157 0.51863 0.55946 0.0
C209 C 0.7502 0.52791 0.54319 0.0
C210 C 0.76119 0.51502 0.5453 0.0
C211 C 0.73137 0.50027 0.57127 0.0
N212 N 0.74934 0.49767 0.56295 0.0
C213 C 0.71267 0.546 0.51105 0.0
C214 C 0.69015 0.50247 0.48758 0.0
C215 C 0.69662 0.52221 0.47179 0.0
C216 C 0.70857 0.54424 0.48376 0.0
C217 C 0.6946 0.50508 0.5148 0.0
N218 N 0.70414 0.52653 0.52657 0.0
H219 H 0.72276 0.56314 0.51968 0.0
H220 H 0.69052 0.48974 0.52626 0.0
H221 H 0.75537 0.54295 0.53061 0.0
H222 H 0.71855 0.48929 0.58586 0.0
O223 O 0.73607 0.56155 0.56507 0.0
O224 O 0.72147 0.53889 0.60051 0.0
O225 O 0.68406 0.4973 0.57219 0.0
C226 C 0.7366 0.55905 0.59061 0.0
H227 H 0.64775 0.54485 0.60317 0.0
H228 H 0.77649 0.51796 0.53433 0.0
H229 H 0.6815 0.48511 0.47911 0.0
H230 H 0.71499 0.56003 0.4721 0.0
Co231 Co 0.46293 0.18348 0.56372 0.0
C232 C 0.44355 0.13382 0.55153 0.0
C233 C 0.46641 0.14408 0.58527 0.0
C234 C 0.45858 0.1209 0.57992 0.0
N235 N 0.45703 0.15207 0.56734 0.0
N236 N 0.44433 0.11457 0.55859 0.0
H237 H 0.43358 0.13475 0.53504 0.0
H238 H 0.47845 0.1545 0.60076 0.0
C239 C 0.51481 0.21258 0.56096 0.0
O240 O 0.51208 0.22434 0.54164 0.0
N241 N 0.46879 0.21523 0.56106 0.0
C242 C 0.45954 0.22456 0.54464 0.0
C243 C 0.46958 0.24802 0.55004 0.0
C244 C 0.4833 0.2329 0.57709 0.0
N245 N 0.48475 0.25328 0.57027 0.0
C246 C 0.45211 0.18088 0.50795 0.0
C247 C 0.4884 0.17501 0.4905 0.0
C248 C 0.47331 0.17597 0.47177 0.0
C249 C 0.45467 0.1785 0.4808 0.0
C250 C 0.48507 0.17727 0.5174 0.0
N251 N 0.46798 0.18164 0.52582 0.0
H252 H 0.43681 0.18121 0.51459 0.0
H253 H 0.49587 0.17469 0.53144 0.0
H254 H 0.44648 0.21541 0.52971 0.0
H255 H 0.49311 0.23093 0.59305 0.0
O256 O 0.42979 0.17191 0.56334 0.0
O257 O 0.45196 0.18229 0.59945 0.0
O258 O 0.49697 0.19558 0.57195 0.0
C259 C 0.43135 0.17432 0.58901 0.0
H260 H 0.46358 0.10981 0.5904 0.0
H261 H 0.46658 0.26036 0.53915 0.0
H262 H 0.50226 0.17179 0.48449 0.0
H263 H 0.44211 0.17852 0.46705 0.0
Co264 Co 0.81472 0.2817 0.561 0.0
C265 C 0.86591 0.31327 0.55094 0.0
C266 C 0.85756 0.30939 0.59237 0.0
C267 C 0.88134 0.32362 0.58967 0.0
N268 N 0.84782 0.30269 0.56806 0.0
N269 N 0.88639 0.3261 0.56361 0.0
H270 H 0.86453 0.31216 0.52967 0.0
H271 H 0.84809 0.3044 0.61092 0.0
C272 C 0.82039 0.3292 0.567 0.0
O273 O 0.84037 0.33769 0.55444 0.0
N274 N 0.78209 0.26065 0.5545 0.0
C275 C 0.77302 0.24212 0.53813 0.0
C276 C 0.7491 0.23188 0.53856 0.0
C277 C 0.76373 0.26148 0.56474 0.0
N278 N 0.74325 0.24413 0.55523 0.0
C279 C 0.82851 0.28106 0.50708 0.0
C280 C 0.81041 0.30713 0.4858 0.0
C281 C 0.82264 0.29999 0.46924 0.0
C282 C 0.83123 0.28626 0.47999 0.0
C283 C 0.8078 0.30126 0.51265 0.0
N284 N 0.81815 0.28973 0.52339 0.0
H285 H 0.8356 0.27081 0.51515 0.0
H286 H 0.79706 0.30572 0.52453 0.0
H287 H 0.7831 0.23654 0.52654 0.0
H288 H 0.7654 0.27479 0.57844 0.0
O289 O 0.82052 0.25585 0.55981 0.0
O290 O 0.81126 0.26848 0.59598 0.0
O291 O 0.8077 0.30721 0.57064 0.0
C292 C 0.81665 0.25393 0.58524 0.0
H293 H 0.89387 0.33185 0.60554 0.0
H294 H 0.73704 0.21655 0.52745 0.0
H295 H 0.80257 0.31685 0.47794 0.0
H296 H 0.84045 0.28007 0.46772 0.0
Co297 Co 0.86691 0.38252 0.10038 0.0
C298 C 0.88826 0.35263 0.11059 0.0
C299 C 0.87324 0.34754 0.07181 0.0
C300 C 0.88198 0.33268 0.07483 0.0
N301 N 0.87691 0.35986 0.09439 0.0
N302 N 0.89127 0.33584 0.09932 0.0
H303 H 0.89439 0.35935 0.13014 0.0
H304 H 0.86425 0.34886 0.05455 0.0
C305 C 0.82357 0.33607 0.09803 0.0
O306 O 0.83462 0.32803 0.11229 0.0
N307 N 0.85723 0.40521 0.10555 0.0
C308 C 0.86807 0.42461 0.1205 0.0
C309 C 0.85517 0.43567 0.11981 0.0
C310 C 0.838 0.40466 0.09592 0.0
N311 N 0.83619 0.42305 0.10442 0.0
C312 C 0.88167 0.38437 0.15445 0.0
C313 C 0.83769 0.36144 0.17679 0.0
C314 C 0.85711 0.36783 0.19318 0.0
C315 C 0.87938 0.38008 0.18172 0.0
C316 C 0.84084 0.36634 0.14968 0.0
N317 N 0.86252 0.37606 0.13842 0.0
H318 H 0.89901 0.39405 0.14615 0.0
H319 H 0.82571 0.36248 0.13796 0.0
H320 H 0.88407 0.43017 0.13143 0.0
H321 H 0.82531 0.39076 0.08354 0.0
O322 O 0.89914 0.40708 0.10057 0.0
O323 O 0.87683 0.39403 0.06473 0.0
O324 O 0.83363 0.35775 0.09205 0.0
C325 C 0.89716 0.40817 0.07502 0.0
H326 H 0.88094 0.32008 0.0604 0.0
H327 H 0.85947 0.45171 0.12999 0.0
H328 H 0.82011 0.35249 0.18466 0.0
H329 H 0.89499 0.38646 0.19369 0.0
Co330 Co 0.61447 0.4809 0.10354 0.0
C331 C 0.64418 0.531 0.11404 0.0
C332 C 0.65663 0.52027 0.08057 0.0
C333 C 0.67168 0.5437 0.08504 0.0
N334 N 0.63955 0.51244 0.09887 0.0
N335 N 0.66386 0.55032 0.1062 0.0
H336 H 0.63343 0.53026 0.13061 0.0
H337 H 0.65825 0.50962 0.06539 0.0
C338 C 0.63831 0.45294 0.10746 0.0
O339 O 0.62428 0.44156 0.12729 0.0
N340 N 0.58901 0.44899 0.1072 0.0
C341 C 0.57025 0.43985 0.12338 0.0
C342 C 0.55696 0.41628 0.11853 0.0
C343 C 0.5861 0.43103 0.09185 0.0
N344 N 0.56712 0.41073 0.09886 0.0
C345 C 0.60653 0.48442 0.15918 0.0
C346 C 0.64973 0.49294 0.17638 0.0
C347 C 0.63364 0.49192 0.19512 0.0
C348 C 0.61186 0.48784 0.18621 0.0
C349 C 0.64365 0.48937 0.14961 0.0
N350 N 0.62178 0.48387 0.14136 0.0
H351 H 0.59055 0.48332 0.15253 0.0
H352 H 0.65694 0.49183 0.13549 0.0
H353 H 0.566 0.44926 0.13761 0.0
H354 H 0.59795 0.4328 0.07605 0.0
O355 O 0.59242 0.49184 0.10341 0.0
O356 O 0.60427 0.48093 0.06775 0.0
O357 O 0.63683 0.46931 0.09581 0.0
C358 C 0.59148 0.48886 0.07782 0.0
H359 H 0.68751 0.55478 0.07408 0.0
H360 H 0.54142 0.40411 0.12928 0.0
H361 H 0.66699 0.49661 0.18226 0.0
H362 H 0.59936 0.48811 0.19986 0.0
Co363 Co 0.51267 0.1332 0.10372 0.0
C364 C 0.46072 0.10676 0.11261 0.0
C365 C 0.47061 0.12586 0.07607 0.0
C366 C 0.44675 0.11532 0.07867 0.0
N367 N 0.47949 0.12104 0.0977 0.0
N368 N 0.44068 0.1033 0.1016 0.0
H369 H 0.46127 0.0993 0.13135 0.0
H370 H 0.48092 0.13691 0.05983 0.0
C371 C 0.50639 0.17446 0.1016 0.0
O372 O 0.48818 0.16273 0.11709 0.0
N373 N 0.54553 0.14508 0.10873 0.0
C374 C 0.55519 0.13642 0.1254 0.0
C375 C 0.57907 0.14962 0.12316 0.0
C376 C 0.5635 0.1634 0.09657 0.0
N377 N 0.58426 0.16656 0.10506 0.0
C378 C 0.49947 0.11893 0.15787 0.0
C379 C 0.52067 0.16316 0.17956 0.0
C380 C 0.50735 0.14393 0.19602 0.0
C381 C 0.49716 0.12154 0.18498 0.0
C382 C 0.52238 0.15971 0.15251 0.0
N383 N 0.51037 0.1379 0.14159 0.0
H384 H 0.49242 0.10154 0.14998 0.0
H385 H 0.53359 0.17469 0.14049 0.0
H386 H 0.54553 0.12162 0.13838 0.0
H387 H 0.56143 0.17398 0.08166 0.0
O388 O 0.50723 0.10181 0.10482 0.0
O389 O 0.51474 0.12314 0.06833 0.0
O390 O 0.5189 0.16559 0.09478 0.0
C391 C 0.50998 0.1034 0.07921 0.0
H392 H 0.4348 0.11649 0.06494 0.0
H393 H 0.59163 0.1472 0.13439 0.0
H394 H 0.52949 0.18076 0.1874 0.0
H395 H 0.48775 0.10615 0.19725 0.0
Co396 Co 0.38479 0.86876 0.89418 0.0
C397 C 0.35466 0.88935 0.88084 0.0
C398 C 0.34895 0.87533 0.9202 0.0
C399 C 0.33384 0.88356 0.91578 0.0
N400 N 0.36184 0.87869 0.89817 0.0
N401 N 0.33738 0.89224 0.89094 0.0
H402 H 0.36167 0.89497 0.86129 0.0
H403 H 0.35 0.86681 0.93803 0.0
C404 C 0.33837 0.82542 0.89574 0.0
O405 O 0.33076 0.83614 0.88023 0.0
N406 N 0.40771 0.85918 0.89101 0.0
C407 C 0.42755 0.86986 0.87675 0.0
C408 C 0.43883 0.85727 0.87914 0.0
C409 C 0.40714 0.84035 0.90193 0.0
N410 N 0.42593 0.83864 0.89491 0.0
C411 C 0.38809 0.88264 0.83951 0.0
C412 C 0.36609 0.83823 0.81824 0.0
C413 C 0.37271 0.8573 0.80135 0.0
C414 C 0.38451 0.8798 0.81213 0.0
C415 C 0.37031 0.84191 0.84542 0.0
N416 N 0.3795 0.86378 0.85604 0.0
H417 H 0.39727 0.90012 0.84749 0.0
H418 H 0.3664 0.82707 0.85771 0.0
H419 H 0.43328 0.88558 0.86521 0.0
H420 H 0.39296 0.82788 0.91419 0.0
O421 O 0.40928 0.90102 0.89396 0.0
O422 O 0.39513 0.8791 0.92999 0.0
O423 O 0.35985 0.83561 0.90263 0.0
C424 C 0.40962 0.89928 0.91964 0.0
H425 H 0.32077 0.88251 0.9295 0.0
H426 H 0.45525 0.86155 0.86988 0.0
H427 H 0.35799 0.82063 0.81046 0.0
H428 H 0.39044 0.89505 0.79962 0.0
Co429 Co 0.1343 0.51581 0.89451 0.0
C430 C 0.1103 0.46418 0.88378 0.0
C431 C 0.12619 0.47354 0.92217 0.0
C432 C 0.11626 0.44978 0.91913 0.0
N433 N 0.12278 0.48268 0.89983 0.0
N434 N 0.1064 0.44399 0.89488 0.0
H435 H 0.10383 0.46502 0.86455 0.0
H436 H 0.13577 0.4836 0.93932 0.0
C437 C 0.17601 0.5104 0.89712 0.0
O438 O 0.16468 0.49245 0.88119 0.0
N439 N 0.14555 0.54861 0.89025 0.0
C440 C 0.13675 0.55825 0.87375 0.0
C441 C 0.14977 0.58211 0.87623 0.0
C442 C 0.16374 0.56656 0.90256 0.0
N443 N 0.16673 0.5873 0.89433 0.0
C444 C 0.12128 0.5034 0.83991 0.0
C445 C 0.16591 0.52659 0.81922 0.0
C446 C 0.14714 0.51297 0.80237 0.0
C447 C 0.12454 0.50166 0.81283 0.0
C448 C 0.16186 0.52738 0.8463 0.0
N449 N 0.13989 0.51448 0.85667 0.0
H450 H 0.10368 0.49558 0.84743 0.0
H451 H 0.17645 0.53864 0.8588 0.0
H452 H 0.12207 0.5486 0.8606 0.0
H453 H 0.17444 0.56448 0.91731 0.0
O454 O 0.10263 0.50961 0.89278 0.0
O455 O 0.1233 0.51691 0.92975 0.0
O456 O 0.16678 0.52257 0.90406 0.0
C457 C 0.10362 0.51186 0.91844 0.0
H458 H 0.11683 0.43786 0.93339 0.0
H459 H 0.14728 0.59467 0.86507 0.0
H460 H 0.18356 0.5363 0.81159 0.0
H461 H 0.10952 0.49185 0.80013 0.0
Co462 Co 0.48238 0.61738 0.89482 0.0
C463 C 0.53259 0.64739 0.88444 0.0
C464 C 0.52215 0.65769 0.91994 0.0
C465 C 0.54572 0.67251 0.91613 0.0
N466 N 0.51404 0.64207 0.89999 0.0
N467 N 0.55216 0.66604 0.89373 0.0
H468 H 0.53176 0.63777 0.86672 0.0
H469 H 0.51161 0.65833 0.93596 0.0
C470 C 0.45473 0.64161 0.89355 0.0
O471 O 0.44325 0.62833 0.87324 0.0
N472 N 0.45032 0.59227 0.89072 0.0
C473 C 0.44094 0.57421 0.87355 0.0
C474 C 0.41733 0.56104 0.8783 0.0
C475 C 0.43246 0.58901 0.9065 0.0
N476 N 0.412 0.57056 0.89885 0.0
C477 C 0.48578 0.61133 0.83872 0.0
C478 C 0.49367 0.65479 0.82355 0.0
C479 C 0.49256 0.63926 0.80399 0.0
C480 C 0.48895 0.61741 0.81189 0.0
C481 C 0.49057 0.64805 0.85014 0.0
N482 N 0.48526 0.62601 0.85739 0.0
H483 H 0.48466 0.59515 0.84449 0.0
H484 H 0.49324 0.66095 0.8649 0.0
H485 H 0.45019 0.57043 0.85862 0.0
H486 H 0.43438 0.60029 0.923 0.0
O487 O 0.49301 0.59516 0.89302 0.0
O488 O 0.48246 0.60579 0.9299 0.0
O489 O 0.47111 0.63966 0.90446 0.0
C490 C 0.49018 0.59326 0.91862 0.0
H491 H 0.5571 0.68722 0.92853 0.0
H492 H 0.40496 0.54608 0.86687 0.0
H493 H 0.49764 0.67229 0.81845 0.0
H494 H 0.4887 0.60513 0.7975 0.0
Co495 Co 0.53173 0.71401 0.43415 0.0
C496 C 0.55657 0.68702 0.4431 0.0
C497 C 0.53575 0.67677 0.40778 0.0
C498 C 0.54555 0.6628 0.41052 0.0
N499 N 0.54213 0.69156 0.4286 0.0
N500 N 0.55865 0.66941 0.43267 0.0
H501 H 0.56516 0.69579 0.46112 0.0
H502 H 0.52421 0.67581 0.39202 0.0
C503 C 0.48871 0.6675 0.43479 0.0
O504 O 0.50017 0.66054 0.45002 0.0
N505 N 0.52153 0.73633 0.4386 0.0
C506 C 0.531 0.75507 0.4547 0.0
C507 C 0.51862 0.76655 0.45191 0.0
C508 C 0.50365 0.73659 0.42621 0.0
N509 N 0.50143 0.75488 0.43402 0.0
C510 C 0.54751 0.71638 0.48785 0.0
C511 C 0.50407 0.6962 0.51148 0.0
C512 C 0.52364 0.70194 0.52727 0.0
C513 C 0.54566 0.71269 0.51521 0.0
C514 C 0.50675 0.7001 0.48416 0.0
N515 N 0.52809 0.70849 0.47235 0.0
H516 H 0.5647 0.72574 0.47916 0.0
H517 H 0.4916 0.6966 0.47266 0.0
H518 H 0.54576 0.75992 0.46765 0.0
H519 H 0.49269 0.7238 0.41159 0.0
O520 O 0.56368 0.73897 0.43353 0.0
O521 O 0.54092 0.72463 0.39813 0.0
O522 O 0.4985 0.68872 0.42699 0.0
C523 C 0.56125 0.73941 0.40798 0.0
H524 H 0.54316 0.64882 0.39741 0.0
H525 H 0.52174 0.78201 0.46264 0.0
H526 H 0.48678 0.68854 0.52007 0.0
H527 H 0.56137 0.71853 0.52687 0.0
Co528 Co 0.28616 0.8194 0.43393 0.0
C529 C 0.31467 0.87099 0.44362 0.0
C530 C 0.31628 0.86165 0.40331 0.0
C531 C 0.33007 0.88548 0.40578 0.0
N532 N 0.30673 0.85249 0.42711 0.0
N533 N 0.32912 0.89125 0.4312 0.0
H534 H 0.31017 0.87004 0.46424 0.0
H535 H 0.31375 0.85159 0.38545 0.0
C536 C 0.33348 0.82563 0.42567 0.0
O537 O 0.34179 0.8451 0.43928 0.0
N538 N 0.26551 0.78665 0.43995 0.0
C539 C 0.24821 0.77716 0.458 0.0
C540 C 0.23727 0.75327 0.4558 0.0
C541 C 0.26496 0.76858 0.427 0.0
N542 N 0.24782 0.74793 0.43633 0.0
C543 C 0.28724 0.83204 0.48864 0.0
C544 C 0.31386 0.81356 0.50707 0.0
C545 C 0.30717 0.82539 0.52495 0.0
C546 C 0.29316 0.83417 0.51548 0.0
C547 C 0.30729 0.81159 0.48046 0.0
N548 N 0.29554 0.82221 0.4711 0.0
H549 H 0.27627 0.83876 0.4819 0.0
H550 H 0.3114 0.80111 0.46766 0.0
H551 H 0.24391 0.78694 0.47181 0.0
H552 H 0.27658 0.7705 0.41087 0.0
O553 O 0.26029 0.82487 0.43762 0.0
O554 O 0.27176 0.81672 0.39977 0.0
O555 O 0.31147 0.81283 0.42213 0.0
C556 C 0.25749 0.82165 0.41214 0.0
H557 H 0.34048 0.89751 0.39025 0.0
H558 H 0.22289 0.74079 0.46788 0.0
H559 H 0.32419 0.80593 0.51343 0.0
H560 H 0.28658 0.84245 0.52868 0.0
Co561 Co 0.17781 0.46599 0.43461 0.0
C562 C 0.12661 0.44757 0.44487 0.0
C563 C 0.13537 0.45293 0.40359 0.0
C564 C 0.11164 0.44376 0.40606 0.0
N565 N 0.14485 0.45513 0.42793 0.0
N566 N 0.10633 0.4406 0.43204 0.0
H567 H 0.12765 0.44712 0.46611 0.0
H568 H 0.145 0.45761 0.38515 0.0
C569 C 0.1743 0.50878 0.42921 0.0
O570 O 0.1552 0.49812 0.44351 0.0
N571 N 0.21029 0.47642 0.44039 0.0
C572 C 0.21908 0.46755 0.45798 0.0
C573 C 0.24303 0.48006 0.45636 0.0
C574 C 0.22884 0.49411 0.42825 0.0
N575 N 0.24913 0.49676 0.43768 0.0
C576 C 0.16364 0.45349 0.48884 0.0
C577 C 0.18818 0.49813 0.50936 0.0
C578 C 0.17419 0.47959 0.52631 0.0
C579 C 0.16204 0.45698 0.5159 0.0
C580 C 0.18883 0.49391 0.48232 0.0
N581 N 0.17556 0.47196 0.47207 0.0
H582 H 0.1546 0.43589 0.48117 0.0
H583 H 0.20048 0.5083 0.46982 0.0
H584 H 0.20877 0.45319 0.4713 0.0
H585 H 0.2275 0.5047 0.41277 0.0
O586 O 0.17068 0.434 0.43712 0.0
O587 O 0.17991 0.45465 0.39996 0.0
O588 O 0.186 0.49865 0.42413 0.0
C589 C 0.17396 0.4349 0.41161 0.0
H590 H 0.09928 0.4399 0.3901 0.0
H591 H 0.25502 0.47744 0.46848 0.0
H592 H 0.1984 0.51575 0.51692 0.0
H593 H 0.15164 0.44214 0.52863 0.0
C594 C 0.91142 0.31295 0.0961 0.0
C595 C 0.90135 0.32326 0.11158 0.0
C596 C 0.92141 0.30101 0.10815 0.0
C597 C 0.92248 0.27294 0.17138 0.0
H598 H 0.98154 0.28242 0.14463 0.0
C599 C 0.98013 0.24533 0.2293 0.0
C600 C 0.99034 0.23469 0.21463 0.0
C601 C 0.96843 0.25518 0.21641 0.0
C602 C 0.96493 0.27941 0.15215 0.0
H603 H 0.89326 0.32841 0.15192 0.0
H604 H 0.91124 0.30832 0.17284 0.0
H605 H 0.9625 0.30112 0.12239 0.0
H606 H 0.99545 0.22536 0.17487 0.0
H607 H 0.97536 0.24279 0.1525 0.0
H608 H 0.92516 0.2515 0.20141 0.0
C609 C 0.91124 0.30923 0.15138 0.0
C610 C 0.95398 0.29007 0.13938 0.0
C611 C 0.90123 0.32109 0.13936 0.0
C612 C 0.98833 0.23391 0.1868 0.0
C613 C 0.97674 0.24383 0.17394 0.0
C614 C 0.93349 0.26237 0.18423 0.0
C615 C 0.92152 0.29911 0.13594 0.0
C616 C 0.93269 0.28705 0.14892 0.0
C617 C 0.96675 0.25465 0.18859 0.0
C618 C 0.95486 0.26557 0.1748 0.0
H619 H 0.9119 0.31438 0.07469 0.0
H620 H 0.92895 0.29317 0.09567 0.0
H621 H 0.90589 0.26994 0.17897 0.0
H622 H 0.98153 0.24641 0.25071 0.0
H623 H 0.96109 0.26363 0.2282 0.0
C624 C 0.67173 0.57496 0.14601 0.0
C625 C 0.67483 0.5729 0.11874 0.0
C626 C 0.68239 0.59682 0.15823 0.0
C627 C 0.70752 0.65934 0.14371 0.0
H628 H 0.73626 0.6678 0.21297 0.0
C629 C 0.76254 0.75019 0.19073 0.0
C630 C 0.75954 0.75241 0.21799 0.0
C631 C 0.75249 0.72823 0.17885 0.0
C632 C 0.72807 0.66565 0.19376 0.0
H633 H 0.69152 0.5922 0.08293 0.0
H634 H 0.71037 0.63041 0.10431 0.0
H635 H 0.71827 0.62959 0.19166 0.0
H636 H 0.74366 0.73327 0.25413 0.0
H637 H 0.72597 0.69482 0.23337 0.0
H638 H 0.7172 0.69534 0.14582 0.0
C639 C 0.69951 0.61509 0.11619 0.0
C640 C 0.71779 0.64378 0.18155 0.0
C641 C 0.68891 0.5932 0.10398 0.0
C642 C 0.74646 0.73212 0.23316 0.0
C643 C 0.73636 0.71011 0.22126 0.0
C644 C 0.71776 0.68119 0.15593 0.0
C645 C 0.69635 0.61714 0.14344 0.0
C646 C 0.70741 0.64039 0.15638 0.0
C647 C 0.73918 0.70793 0.19393 0.0
C648 C 0.72818 0.68462 0.18108 0.0
H649 H 0.66129 0.55965 0.15804 0.0
H650 H 0.67945 0.59782 0.17921 0.0
H651 H 0.69933 0.6572 0.12451 0.0
H652 H 0.77294 0.76543 0.17858 0.0
H653 H 0.75541 0.72715 0.15788 0.0
C654 C 0.40336 0.10081 0.11306 0.0
C655 C 0.41789 0.09105 0.11336 0.0
C656 C 0.38191 0.08978 0.12624 0.0
C657 C 0.34888 0.04404 0.17746 0.0
H658 H 0.29713 0.05047 0.15183 0.0
C659 C 0.25158 0.98967 0.21119 0.0
C660 C 0.24299 0.00334 0.22229 0.0
C661 C 0.27339 0.00025 0.19878 0.0
C662 C 0.31152 0.04865 0.15917 0.0
H663 H 0.42129 0.06187 0.12667 0.0
H664 H 0.38328 0.04177 0.14845 0.0
H665 H 0.33364 0.06818 0.12696 0.0
H666 H 0.25014 0.03859 0.22911 0.0
H667 H 0.28814 0.05718 0.20655 0.0
H668 H 0.326 0.0235 0.20903 0.0
C669 C 0.38869 0.05842 0.13908 0.0
C670 C 0.33252 0.05891 0.14509 0.0
C671 C 0.41038 0.06976 0.12642 0.0
C672 C 0.25658 0.02776 0.22092 0.0
C673 C 0.27813 0.03833 0.20794 0.0
C674 C 0.32767 0.03333 0.19117 0.0
C675 C 0.37426 0.06843 0.13952 0.0
C676 C 0.3516 0.05691 0.15413 0.0
C677 C 0.28662 0.02462 0.19673 0.0
C678 C 0.30895 0.03573 0.18222 0.0
H679 H 0.40901 0.11742 0.10343 0.0
H680 H 0.37166 0.09837 0.12652 0.0
H681 H 0.3632 0.04247 0.18547 0.0
H682 H 0.24136 0.97081 0.21211 0.0
H683 H 0.27967 0.98941 0.19018 0.0
C684 C 0.24117 0.97662 0.76056 0.0
C685 C 0.23042 0.98574 0.77685 0.0
C686 C 0.25155 0.96466 0.77168 0.0
C687 C 0.25294 0.93464 0.83328 0.0
H688 H 0.31355 0.94803 0.80728 0.0
C689 C 0.31313 0.91103 0.89178 0.0
C690 C 0.3246 0.90153 0.87739 0.0
C691 C 0.30068 0.91992 0.87861 0.0
C692 C 0.2965 0.94391 0.81455 0.0
H693 H 0.2214 0.98864 0.81756 0.0
H694 H 0.24002 0.96856 0.83689 0.0
H695 H 0.29324 0.96568 0.78552 0.0
H696 H 0.33137 0.89341 0.83775 0.0
H697 H 0.30999 0.90924 0.81487 0.0
H698 H 0.25647 0.91325 0.86266 0.0
C699 C 0.24029 0.97041 0.81551 0.0
C700 C 0.28484 0.95396 0.80205 0.0
C701 C 0.22992 0.98228 0.80443 0.0
C702 C 0.32323 0.90105 0.8495 0.0
C703 C 0.31089 0.91004 0.83634 0.0
C704 C 0.26466 0.92469 0.84586 0.0
C705 C 0.25132 0.96153 0.79932 0.0
C706 C 0.26303 0.94964 0.81145 0.0
C707 C 0.2995 0.91958 0.85075 0.0
C708 C 0.28666 0.9294 0.83678 0.0
H709 H 0.24192 0.97905 0.73928 0.0
H710 H 0.25969 0.95782 0.75863 0.0
H711 H 0.23596 0.93059 0.84071 0.0
H712 H 0.31404 0.91193 0.91322 0.0
H713 H 0.29232 0.92745 0.89022 0.0
C714 C 0.08455 0.40089 0.89828 0.0
C715 C 0.09496 0.42122 0.88269 0.0
C716 C 0.07344 0.37887 0.88634 0.0
C717 C 0.06964 0.34899 0.82275 0.0
H718 H 0.0111 0.30031 0.85178 0.0
C719 C 0.00977 0.26297 0.76712 0.0
C720 C 0.00022 0.24234 0.78218 0.0
C721 C 0.02171 0.28475 0.77953 0.0
C722 C 0.02754 0.31367 0.8436 0.0
H723 H 0.10228 0.43422 0.84222 0.0
H724 H 0.08231 0.39603 0.82152 0.0
H725 H 0.03136 0.33833 0.87341 0.0
H726 H 0.99638 0.22858 0.82216 0.0
H727 H 0.01683 0.26647 0.84368 0.0
H728 H 0.06559 0.32435 0.79272 0.0
C729 C 0.08296 0.39704 0.84298 0.0
C730 C 0.03919 0.33544 0.85602 0.0
C731 C 0.09412 0.419 0.85489 0.0
C732 C 0.00299 0.24403 0.80993 0.0
C733 C 0.0148 0.26577 0.82231 0.0
C734 C 0.05792 0.32726 0.81025 0.0
C735 C 0.07246 0.3767 0.85854 0.0
C736 C 0.06035 0.35337 0.84571 0.0
C737 C 0.02427 0.28635 0.80726 0.0
C738 C 0.03674 0.3094 0.82052 0.0
H739 H 0.08476 0.40195 0.91972 0.0
H740 H 0.06576 0.36355 0.89892 0.0
H741 H 0.08611 0.36228 0.81455 0.0
H742 H 0.00776 0.26233 0.74578 0.0
H743 H 0.02862 0.30035 0.76745 0.0
C744 C 0.57725 0.67709 0.85394 0.0
C745 C 0.57493 0.67722 0.88166 0.0
C746 C 0.59931 0.68816 0.84216 0.0
C747 C 0.66093 0.70798 0.85553 0.0
H748 H 0.67238 0.74745 0.79398 0.0
C749 C 0.75315 0.7642 0.81137 0.0
C750 C 0.75516 0.76625 0.78362 0.0
C751 C 0.73123 0.75349 0.82349 0.0
C752 C 0.66941 0.73624 0.81093 0.0
H753 H 0.59389 0.68883 0.91875 0.0
H754 H 0.63253 0.70819 0.89814 0.0
H755 H 0.63397 0.72833 0.81478 0.0
H756 H 0.73579 0.75833 0.74679 0.0
H757 H 0.69747 0.73924 0.76783 0.0
H758 H 0.6962 0.71553 0.85151 0.0
C759 C 0.61724 0.69948 0.88557 0.0
C760 C 0.64741 0.72535 0.82288 0.0
C761 C 0.59515 0.68859 0.89735 0.0
C762 C 0.73478 0.75727 0.76823 0.0
C763 C 0.71284 0.74639 0.78032 0.0
C764 C 0.68289 0.71873 0.84347 0.0
C765 C 0.61954 0.69944 0.85785 0.0
C766 C 0.64294 0.71111 0.84529 0.0
C767 C 0.71078 0.74442 0.80812 0.0
C768 C 0.68741 0.733 0.82101 0.0
H769 H 0.56199 0.66872 0.84132 0.0
H770 H 0.60055 0.6877 0.82075 0.0
H771 H 0.65789 0.69686 0.87259 0.0
H772 H 0.76857 0.77131 0.82377 0.0
H773 H 0.73034 0.75267 0.84495 0.0
C774 C 0.63265 0.56121 0.55498 0.0
C775 C 0.65704 0.57142 0.55551 0.0
C776 C 0.62229 0.57221 0.54163 0.0
C777 C 0.62902 0.62697 0.52198 0.0
H778 H 0.5909 0.59567 0.46046 0.0
C779 C 0.59277 0.67246 0.45587 0.0
C780 C 0.57073 0.65869 0.44435 0.0
C781 C 0.60398 0.66204 0.46862 0.0
C782 C 0.60112 0.60454 0.47783 0.0
H783 H 0.68977 0.60126 0.54347 0.0
H784 H 0.6716 0.62105 0.52087 0.0
H785 H 0.60836 0.57697 0.4859 0.0
H786 H 0.54292 0.62342 0.43718 0.0
H787 H 0.56177 0.60504 0.46048 0.0
H788 H 0.62111 0.65405 0.515 0.0
C789 C 0.6606 0.60439 0.53042 0.0
C790 C 0.61122 0.59384 0.49225 0.0
C791 C 0.67093 0.59312 0.54321 0.0
C792 C 0.56009 0.63433 0.44562 0.0
C793 C 0.57101 0.62387 0.4589 0.0
C794 C 0.61849 0.63747 0.50796 0.0
C795 C 0.63621 0.59382 0.5292 0.0
C796 C 0.62529 0.60503 0.51433 0.0
C797 C 0.59309 0.63758 0.47072 0.0
C798 C 0.60445 0.62644 0.48559 0.0
H799 H 0.62164 0.54437 0.56411 0.0
H800 H 0.60343 0.56383 0.5409 0.0
H801 H 0.63975 0.6358 0.53909 0.0
H802 H 0.60134 0.69131 0.45488 0.0
H803 H 0.62118 0.67324 0.47681 0.0
C804 C 0.34765 0.91656 0.47012 0.0
C805 C 0.34161 0.91408 0.44308 0.0
C806 C 0.35959 0.93861 0.48179 0.0
C807 C 0.37158 -0.00116 0.4737 0.0
H808 H 0.42116 0.01318 0.52427 0.0
C809 C 0.4282 0.09094 0.51795 0.0
C810 C 0.43331 0.09236 0.5452 0.0
C811 C 0.41762 0.06945 0.5049 0.0
C812 C 0.4072 0.00936 0.5104 0.0
H813 H 0.34345 0.93288 0.40712 0.0
H814 H 0.3646 0.97151 0.42745 0.0
H815 H 0.40183 0.9753 0.50225 0.0
H816 H 0.43115 0.07226 0.58012 0.0
H817 H 0.41259 0.0347 0.55738 0.0
H818 H 0.37684 0.03284 0.48197 0.0
C819 C 0.35988 0.95631 0.43964 0.0
C820 C 0.39614 0.98767 0.49776 0.0
C821 C 0.34796 0.93421 0.42793 0.0
C822 C 0.42769 0.07179 0.55907 0.0
C823 C 0.41708 0.05028 0.54602 0.0
C824 C 0.38263 0.02053 0.48635 0.0
C825 C 0.36579 0.95874 0.46672 0.0
C826 C 0.37812 0.98211 0.47939 0.0
C827 C 0.4119 0.04886 0.51879 0.0
C828 C 0.40048 0.02599 0.50495 0.0
H829 H 0.34336 0.90147 0.48228 0.0
H830 H 0.36369 0.93986 0.50274 0.0
H831 H 0.35754 0.99497 0.45992 0.0
H832 H 0.43273 0.10648 0.50654 0.0
H833 H 0.41422 0.06901 0.48382 0.0
C834 C 0.08084 0.44029 0.46782 0.0
C835 C 0.08366 0.431 0.44397 0.0
C836 C 0.05911 0.43012 0.48034 0.0
C837 C 0.00703 0.37473 0.49009 0.0
H838 H 0.977 0.40985 0.51071 0.0
C839 C 0.9285 0.3397 0.56214 0.0
C840 C 0.9089 0.33966 0.55146 0.0
C841 C 0.95008 0.3517 0.54928 0.0
C842 C 0.98528 0.39992 0.50508 0.0
H843 H 0.0662 0.40406 0.41436 0.0
H844 H 0.02813 0.38578 0.43669 0.0
H845 H 0.01428 0.42943 0.48668 0.0
H846 H 0.89647 0.35272 0.51977 0.0
H847 H 0.93443 0.37429 0.49761 0.0
H848 H 0.97832 0.34535 0.50895 0.0
C849 C 0.04271 0.40109 0.44545 0.0
C850 C 0.00652 0.41107 0.49144 0.0
C851 C 0.06434 0.41157 0.43263 0.0
C852 C 0.91134 0.35238 0.52821 0.0
C853 C 0.933 0.36478 0.51567 0.0
C854 C 0.98606 0.36371 0.5042 0.0
C855 C 0.03998 0.41022 0.46947 0.0
C856 C 0.01746 0.39851 0.4837 0.0
C857 C 0.95245 0.36426 0.5259 0.0
C858 C 0.97498 0.37619 0.51169 0.0
H859 H 0.0955 0.45537 0.47679 0.0
H860 H 0.05739 0.4374 0.4989 0.0
H861 H 0.01528 0.36477 0.48448 0.0
H862 H 0.92694 0.32989 0.57996 0.0
H863 H 0.96491 0.35116 0.55754 0.0
C864 C 0.16206 0.39268 0.40953 0.0
C865 C 0.16946 0.41398 0.39642 0.0
C866 C 0.15553 0.37234 0.39507 0.0
C867 C 0.15822 0.34968 0.32871 0.0
H868 H 0.09927 0.29642 0.35003 0.0
C869 C 0.10252 0.27161 0.25961 0.0
C870 C 0.08946 0.24933 0.27094 0.0
C871 C 0.11534 0.29117 0.27568 0.0
C872 C 0.11598 0.31093 0.34405 0.0
H873 H 0.17675 0.43088 0.35795 0.0
H874 H 0.16518 0.3953 0.33266 0.0
H875 H 0.11646 0.33166 0.37681 0.0
H876 H 0.08049 0.22986 0.30783 0.0
H877 H 0.1032 0.26392 0.33584 0.0
H878 H 0.15747 0.32898 0.29564 0.0
C879 C 0.1646 0.39435 0.35413 0.0
C880 C 0.12583 0.33118 0.35941 0.0
C881 C 0.17111 0.41472 0.36861 0.0
C882 C 0.09024 0.24685 0.29854 0.0
C883 C 0.10315 0.26638 0.31459 0.0
C884 C 0.14838 0.32936 0.31334 0.0
C885 C 0.15628 0.37286 0.36719 0.0
C886 C 0.14692 0.35087 0.35177 0.0
C887 C 0.11544 0.28884 0.30341 0.0
C888 C 0.12699 0.30984 0.32067 0.0
H889 H 0.16075 0.39158 0.43097 0.0
H890 H 0.14953 0.3561 0.40571 0.0
H891 H 0.17463 0.36449 0.32248 0.0
H892 H 0.10223 0.27407 0.23839 0.0
H893 H 0.12439 0.30821 0.26642 0.0
C894 C 0.57813 0.75621 0.36351 0.0
C895 C 0.58105 0.75523 0.39097 0.0
C896 C 0.59733 0.76995 0.34729 0.0
C897 C 0.65984 0.81683 0.34872 0.0
H898 H 0.66334 0.78681 0.28422 0.0
C899 C 0.74588 0.84036 0.29464 0.0
C900 C 0.74555 0.83955 0.26679 0.0
C901 C 0.72536 0.83388 0.30881 0.0
C902 C 0.66249 0.79564 0.30192 0.0
H903 H 0.60619 0.76837 0.42316 0.0
H904 H 0.63968 0.79181 0.39491 0.0
H905 H 0.62788 0.76841 0.31063 0.0
H906 H 0.72383 0.83255 0.23187 0.0
H907 H 0.68811 0.82132 0.2566 0.0
H908 H 0.69494 0.84364 0.34034 0.0
C909 C 0.62258 0.78238 0.38584 0.0
C910 C 0.64212 0.78512 0.31706 0.0
C911 C 0.60338 0.76878 0.40204 0.0
C912 C 0.7246 0.83318 0.25335 0.0
C913 C 0.70412 0.82666 0.26749 0.0
C914 C 0.68031 0.82731 0.33362 0.0
C915 C 0.61986 0.78285 0.35822 0.0
C916 C 0.64066 0.79538 0.34086 0.0
C917 C 0.70417 0.82642 0.29535 0.0
C918 C 0.68193 0.81664 0.31026 0.0
H919 H 0.56107 0.74608 0.35446 0.0
H920 H 0.59458 0.77021 0.32614 0.0
H921 H 0.65915 0.82539 0.36674 0.0
H922 H 0.76178 0.84522 0.30552 0.0
H923 H 0.72589 0.83369 0.33028 0.0
C924 C 0.15298 0.9056 0.30182 0.0
C925 C 0.15674 0.90639 0.27432 0.0
C926 C 0.15866 0.89211 0.31814 0.0
C927 C 0.17458 0.84553 0.31728 0.0
H928 H 0.20915 0.87681 0.38082 0.0
C929 C 0.23862 0.82363 0.36998 0.0
C930 C 0.24011 0.82521 0.39777 0.0
C931 C 0.22401 0.82959 0.35625 0.0
C932 C 0.19916 0.8676 0.36343 0.0
H933 H 0.16864 0.89311 0.24221 0.0
H934 H 0.17901 0.87003 0.27066 0.0
H935 H 0.19144 0.89452 0.35441 0.0
H936 H 0.22656 0.83305 0.43311 0.0
H937 H 0.201 0.84335 0.40913 0.0
H938 H 0.18316 0.81902 0.32594 0.0
C939 C 0.17132 0.87946 0.27966 0.0
C940 C 0.18896 0.87776 0.34828 0.0
C941 C 0.16554 0.89285 0.26334 0.0
C942 C 0.22592 0.83182 0.41166 0.0
C943 C 0.21135 0.83781 0.39794 0.0
C944 C 0.18489 0.83541 0.33241 0.0
C945 C 0.16833 0.87924 0.3073 0.0
C946 C 0.17689 0.86706 0.32478 0.0
C947 C 0.21064 0.83728 0.37007 0.0
C948 C 0.19761 0.84655 0.35541 0.0
H949 H 0.14605 0.91572 0.31081 0.0
H950 H 0.1558 0.89203 0.33931 0.0
H951 H 0.16508 0.83666 0.29951 0.0
H952 H 0.24934 0.81857 0.35876 0.0
H953 H 0.224 0.8292 0.33476 0.0
C954 C 0.41275 0.17158 0.63306 0.0
C955 C 0.41058 0.16786 0.60552 0.0
C956 C 0.39296 0.16458 0.64879 0.0
C957 C 0.33006 0.14645 0.64598 0.0
H958 H 0.32722 0.11466 0.71168 0.0
C959 C 0.24446 0.08691 0.70286 0.0
C960 C 0.24538 0.08717 0.73072 0.0
C961 C 0.26479 0.1 0.68801 0.0
C962 C 0.32786 0.12384 0.69362 0.0
H963 H 0.38608 0.15433 0.57276 0.0
H964 H 0.35152 0.14174 0.60025 0.0
H965 H 0.36256 0.13139 0.68503 0.0
H966 H 0.268 0.10229 0.76488 0.0
H967 H 0.30337 0.12527 0.73897 0.0
H968 H 0.29503 0.13829 0.6544 0.0
C969 C 0.36851 0.15038 0.60968 0.0
C970 C 0.34815 0.13344 0.67833 0.0
C971 C 0.3883 0.15744 0.59394 0.0
C972 C 0.26677 0.10159 0.74343 0.0
C973 C 0.28705 0.11466 0.7286 0.0
C974 C 0.30971 0.13676 0.66127 0.0
C975 C 0.37059 0.15365 0.63732 0.0
C976 C 0.34943 0.14469 0.65422 0.0
C977 C 0.28639 0.11357 0.70075 0.0
C978 C 0.30835 0.1252 0.68517 0.0
H979 H 0.42973 0.17972 0.64252 0.0
H980 H 0.39519 0.16767 0.66998 0.0
H981 H 0.33062 0.15529 0.62768 0.0
H982 H 0.22822 0.07594 0.69252 0.0
H983 H 0.26374 0.09867 0.66657 0.0
C984 C 0.81499 0.23509 0.62876 0.0
C985 C 0.82011 0.23738 0.60152 0.0
C986 C 0.82065 0.22143 0.64478 0.0
C987 C 0.83963 0.17711 0.64342 0.0
H988 H 0.86976 0.20659 0.70967 0.0
C989 C 0.90124 0.15469 0.70151 0.0
C990 C 0.90075 0.15529 0.72936 0.0
C991 C 0.8875 0.16099 0.68645 0.0
C992 C 0.86102 0.19787 0.69148 0.0
H993 H 0.83426 0.22639 0.56943 0.0
H994 H 0.8446 0.20295 0.59744 0.0
H995 H 0.8525 0.2242 0.68238 0.0
H996 H 0.88462 0.16177 0.7633 0.0
H997 H 0.86057 0.17258 0.73705 0.0
H998 H 0.84895 0.15115 0.65231 0.0
C999 C 0.83589 0.21139 0.60643 0.0
C1000 C 0.85108 0.20797 0.67581 0.0
C1001 C 0.83008 0.22495 0.59038 0.0
C1002 C 0.88552 0.16131 0.74186 0.0
C1003 C 0.87182 0.1676 0.72683 0.0
C1004 C 0.84968 0.16703 0.65909 0.0
C1005 C 0.83172 0.20989 0.63393 0.0
C1006 C 0.84048 0.19788 0.65144 0.0
C1007 C 0.87305 0.16802 0.69898 0.0
C1008 C 0.86071 0.17746 0.68316 0.0
H1009 H 0.80711 0.24431 0.63787 0.0
H1010 H 0.81678 0.22028 0.66579 0.0
H1011 H 0.83133 0.16873 0.62492 0.0
H1012 H 0.9128 0.15011 0.69131 0.0
H1013 H 0.88899 0.16132 0.66503 0.0
C1014 C 0.83492 0.74446 0.70303 0.0
C1015 C 0.83294 0.74419 0.73079 0.0
C1016 C 0.82803 0.72375 0.68912 0.0
C1017 C 0.78827 0.66087 0.69513 0.0
H1018 H 0.82179 0.65702 0.63401 0.0
C1019 C 0.75241 0.57607 0.63527 0.0
C1020 C 0.75245 0.57879 0.60764 0.0
C1021 C 0.76553 0.5954 0.65155 0.0
C1022 C 0.8122 0.65786 0.65099 0.0
H1023 H 0.82295 0.72223 0.76585 0.0
H1024 H 0.81101 0.68617 0.74158 0.0
H1025 H 0.83857 0.69294 0.66009 0.0
H1026 H 0.76701 0.6036 0.57525 0.0
H1027 H 0.7895 0.6373 0.60359 0.0
H1028 H 0.76157 0.6262 0.68569 0.0
C1029 C 0.81761 0.7023 0.73055 0.0
C1030 C 0.82181 0.67841 0.66589 0.0
C1031 C 0.82453 0.72297 0.74443 0.0
C1032 C 0.76662 0.60096 0.5965 0.0
C1033 C 0.77965 0.62028 0.61275 0.0
C1034 C 0.77864 0.6404 0.68021 0.0
C1035 C 0.81899 0.70242 0.70273 0.0
C1036 C 0.80978 0.6802 0.68791 0.0
C1037 C 0.77885 0.61781 0.6405 0.0
C1038 C 0.79033 0.63875 0.65776 0.0
H1039 H 0.84138 0.76058 0.69201 0.0
H1040 H 0.82907 0.72434 0.66766 0.0
H1041 H 0.77842 0.66184 0.71176 0.0
H1042 H 0.74177 0.55914 0.6444 0.0
H1043 H 0.76486 0.59287 0.67284 0.0
C1044 C 0.91502 0.42509 0.03092 0.0
C1045 C 0.91745 0.42374 0.05843 0.0
C1046 C 0.93462 0.43836 0.01502 0.0
C1047 C -0.00232 0.48364 0.01738 0.0
H1048 H 0.00038 0.45391 0.95224 0.0
C1049 C 0.08337 0.50755 0.96183 0.0
C1050 C 0.08279 0.50714 0.93397 0.0
C1051 C 0.06295 0.50068 0.97639 0.0
C1052 C -0.00022 0.46266 0.97014 0.0
H1053 H 0.94217 0.43579 0.09103 0.0
H1054 H 0.97634 0.45847 0.06333 0.0
H1055 H 0.9649 0.4359 0.97865 0.0
H1056 H 0.06064 0.50029 0.89949 0.0
H1057 H 0.02511 0.48842 0.92488 0.0
H1058 H 0.03298 0.51004 0.00912 0.0
C1059 C 0.95933 0.44965 0.05398 0.0
C1060 C 0.9794 0.45235 0.98529 0.0
C1061 C 0.93973 0.4365 0.06986 0.0
C1062 C 0.06163 0.50065 0.92095 0.0
C1063 C 0.04124 0.49374 0.93548 0.0
C1064 C 0.01816 0.49391 0.00226 0.0
C1065 C 0.95706 0.45044 0.02631 0.0
C1066 C 0.97816 0.46256 0.00924 0.0
C1067 C 0.04158 0.49322 0.96334 0.0
C1068 C 0.01948 0.48339 0.97861 0.0
H1069 H 0.89804 0.41556 0.02157 0.0
H1070 H 0.93221 0.4389 0.99383 0.0
H1071 H 0.9972 0.49215 0.03553 0.0
H1072 H 0.09943 0.51248 0.97241 0.0
H1073 H 0.06373 0.5003 0.99785 0.0
C1074 C 0.49474 0.57762 0.96198 0.0
C1075 C 0.49636 0.57828 0.93418 0.0
C1076 C 0.50212 0.56464 0.97674 0.0
C1077 C 0.54226 0.54175 0.97228 0.0
H1078 H 0.51024 0.50734 0.03564 0.0
C1079 C 0.57657 0.49185 0.0333 0.0
C1080 C 0.57723 0.49506 0.0609 0.0
C1081 C 0.56426 0.4991 0.01713 0.0
C1082 C 0.51942 0.51698 0.01806 0.0
H1083 H 0.50615 0.56522 0.89992 0.0
H1084 H 0.51885 0.54243 0.92566 0.0
H1085 H 0.49289 0.52531 0.00853 0.0
H1086 H 0.56503 0.50774 0.09333 0.0
H1087 H 0.54382 0.52068 0.06508 0.0
H1088 H 0.569 0.53389 0.982 0.0
C1089 C 0.51221 0.55221 0.93609 0.0
C1090 C 0.5095 0.52726 0.00256 0.0
C1091 C 0.50484 0.56518 0.92135 0.0
C1092 C 0.56483 0.50504 0.0721 0.0
C1093 C 0.55255 0.51232 0.05593 0.0
C1094 C 0.55217 0.53151 0.98777 0.0
C1095 C 0.51127 0.55209 0.96395 0.0
C1096 C 0.52093 0.53993 0.97964 0.0
C1097 C 0.5524 0.50972 0.02824 0.0
C1098 C 0.54098 0.5192 0.01096 0.0
H1099 H 0.48827 0.58756 0.9724 0.0
H1100 H 0.5014 0.56509 0.99819 0.0
H1101 H 0.5517 0.55174 0.95499 0.0
H1102 H 0.58584 0.48406 0.02412 0.0
H1103 H 0.56419 0.49656 0.99589 0.0
C1104 C 0.50006 0.06186 0.07582 0.0
C1105 C 0.50607 0.08308 0.06325 0.0
C1106 C 0.4937 0.04183 0.06086 0.0
C1107 C 0.4943 0.0199 0.99358 0.0
H1108 H 0.43639 0.96609 0.01649 0.0
C1109 C 0.43749 0.94193 0.92504 0.0
C1110 C 0.4249 0.91958 0.93631 0.0
C1111 C 0.45048 0.96144 0.94108 0.0
C1112 C 0.45282 0.98075 0.01004 0.0
H1113 H 0.51126 0.10027 0.02518 0.0
H1114 H 0.5 0.06516 0.99898 0.0
H1115 H 0.45412 0.00117 0.0435 0.0
H1116 H 0.41689 0.89993 0.973 0.0
H1117 H 0.43997 0.93393 0.00097 0.0
H1118 H 0.49279 -0.00053 0.95989 0.0
C1119 C 0.50034 0.06407 0.02041 0.0
C1120 C 0.46297 0.0009 0.02554 0.0
C1121 C 0.50668 0.08414 0.03541 0.0
C1122 C 0.42625 0.91699 0.96379 0.0
C1123 C 0.43938 0.93648 0.97982 0.0
C1124 C 0.48419 -0.00036 0.97811 0.0
C1125 C 0.49324 0.0426 0.03302 0.0
C1126 C 0.48366 0.02078 0.01734 0.0
C1127 C 0.45127 0.95899 0.96872 0.0
C1128 C 0.46317 0.97993 0.98601 0.0
H1129 H 0.4996 0.06053 0.09726 0.0
H1130 H 0.48866 0.0256 0.0711 0.0
H1131 H 0.51038 0.0349 0.98692 0.0
H1132 H 0.43675 0.94447 0.9039 0.0
H1133 H 0.45917 0.97852 0.93189 0.0
C1134 C 0.0025 0.16767 0.1015 0.0
C1135 C 0.02569 0.18359 0.10846 0.0
C1136 C 0.99552 0.16438 0.07496 0.0
C1137 C 0.01355 0.1918 0.0083 0.0
H1138 H 0.96654 0.13022 0.98462 0.0
C1139 C 0.97257 0.17666 0.90397 0.0
C1140 C 0.96733 0.15594 0.8906 0.0
C1141 C 0.97945 0.17988 0.93057 0.0
C1142 C 0.97989 0.14749 0.99075 0.0
H1143 H 0.0599 0.20832 0.09316 0.0
H1144 H 0.04798 0.20208 0.04664 0.0
H1145 H 0.97989 0.13591 0.03031 0.0
H1146 H 0.96479 0.12214 0.89519 0.0
H1147 H 0.9778 0.12819 0.94102 0.0
H1148 H 0.01428 0.20315 0.96843 0.0
C1149 C 0.03496 0.19256 0.0617 0.0
C1150 C 0.9873 0.15085 0.01716 0.0
C1151 C 0.04185 0.19608 0.08833 0.0
C1152 C 0.96902 0.13848 0.90463 0.0
C1153 C 0.97616 0.14181 0.93114 0.0
C1154 C 0.00633 0.18838 0.9818 0.0
C1155 C 0.01166 0.1767 0.05466 0.0
C1156 C 0.00415 0.17307 0.02634 0.0
C1157 C 0.98152 0.16257 0.94447 0.0
C1158 C 0.98932 0.1662 0.97269 0.0
H1159 H 0.9896 0.15807 0.11668 0.0
H1160 H 0.97735 0.15241 0.07044 0.0
H1161 H 0.02633 0.20922 0.01466 0.0
H1162 H 0.97177 0.19063 0.89378 0.0
H1163 H 0.98304 0.19594 0.94024 0.0
C1164 C 0.84834 0.83779 0.89876 0.0
C1165 C 0.8367 0.8152 0.88797 0.0
C1166 C 0.84602 0.84135 0.92565 0.0
C1167 C 0.8288 0.81016 0.98993 0.0
H1168 H 0.8233 0.86323 0.01242 0.0
C1169 C 0.8009 0.81858 0.09563 0.0
C1170 C 0.81355 0.84045 0.10803 0.0
C1171 C 0.80437 0.81599 0.06882 0.0
C1172 C 0.82506 0.84847 0.00644 0.0
H1173 H 0.81297 0.77869 0.89664 0.0
H1174 H 0.80866 0.78488 0.94347 0.0
H1175 H 0.82787 0.85771 0.96536 0.0
H1176 H 0.83955 0.87681 0.10204 0.0
H1177 H 0.84567 0.87225 0.05505 0.0
H1178 H 0.82564 0.80076 0.03098 0.0
C1179 C 0.82005 0.79981 0.93136 0.0
C1180 C 0.82771 0.84531 0.97951 0.0
C1181 C 0.82248 0.79626 0.90452 0.0
C1182 C 0.82969 0.85971 0.09304 0.0
C1183 C 0.83304 0.85715 0.06613 0.0
C1184 C 0.82602 0.81325 0.01681 0.0
C1185 C 0.83189 0.82238 0.94228 0.0
C1186 C 0.8295 0.82605 0.97093 0.0
C1187 C 0.82046 0.83524 0.05379 0.0
C1188 C 0.82402 0.83237 0.02532 0.0
H1189 H 0.8596 0.85269 0.88649 0.0
H1190 H 0.85563 0.85891 0.9335 0.0
H1191 H 0.83059 0.7954 0.98407 0.0
H1192 H 0.78849 0.80339 0.10676 0.0
H1193 H 0.79426 0.79894 0.05978 0.0
C1194 C 0.19635 0.03347 0.91017 0.0
C1195 C 0.1794 0.01986 0.89112 0.0
C1196 C 0.19326 0.02684 0.93685 0.0
C1197 C 0.15785 0.97576 0.98099 0.0
H1198 H 0.18282 0.02308 0.03599 0.0
C1199 C 0.13598 0.95833 0.09329 0.0
C1200 C 0.15558 0.96652 0.10988 0.0
C1201 C 0.13872 0.96433 0.06641 0.0
C1202 C 0.17585 0.00973 0.02077 0.0
H1203 H 0.14576 0.98847 0.8856 0.0
H1204 H 0.13972 0.97784 0.93212 0.0
H1205 H 0.18725 0.03486 0.98954 0.0
H1206 H 0.19326 0.98747 0.11175 0.0
H1207 H 0.19801 -0.00145 0.06475 0.0
H1208 H 0.1457 0.95072 0.01263 0.0
C1209 C 0.1558 0.99327 0.92638 0.0
C1210 C 0.1785 0.01642 0.99413 0.0
C1211 C 0.15909 -0.00035 0.89963 0.0
C1212 C 0.17793 0.98085 0.09924 0.0
C1213 C 0.18062 0.98727 0.07251 0.0
C1214 C 0.1548 0.96911 0.00766 0.0
C1215 C 0.17293 0.00666 0.94536 0.0
C1216 C 0.16968 -0.00047 0.97382 0.0
C1217 C 0.16104 0.97904 0.0559 0.0
C1218 C 0.16392 0.98604 0.02772 0.0
H1219 H 0.21204 0.04938 0.90461 0.0
H1220 H 0.20704 0.03747 0.9507 0.0
H1221 H 0.15123 0.96221 0.96603 0.0
H1222 H 0.11859 0.94721 0.10111 0.0
H1223 H 0.12338 0.95787 0.05393 0.0
C1224 C 0.66215 0.51338 0.23169 0.0
C1225 C 0.63985 0.49582 0.22368 0.0
C1226 C 0.66822 0.51665 0.25852 0.0
C1227 C 0.65249 0.48607 0.32271 0.0
H1228 H 0.68838 0.54848 0.35185 0.0
C1229 C 0.69296 0.50335 0.42743 0.0
C1230 C 0.69097 0.51985 0.44305 0.0
C1231 C 0.68694 0.50072 0.40057 0.0
C1232 C 0.67824 0.53094 0.34404 0.0
H1233 H 0.60636 0.46802 0.23752 0.0
H1234 H 0.61685 0.47395 0.28447 0.0
H1235 H 0.67668 0.54335 0.30531 0.0
H1236 H 0.68098 0.54645 0.44276 0.0
H1237 H 0.67053 0.5419 0.39588 0.0
H1238 H 0.65374 0.47365 0.36153 0.0
C1239 C 0.62973 0.48501 0.26995 0.0
C1240 C 0.67174 0.52801 0.31733 0.0
C1241 C 0.62364 0.48178 0.2431 0.0
C1242 C 0.68304 0.53382 0.43116 0.0
C1243 C 0.67704 0.53121 0.40432 0.0
C1244 C 0.65903 0.489 0.3494 0.0
C1245 C 0.65212 0.50241 0.27793 0.0
C1246 C 0.65879 0.50554 0.30638 0.0
C1247 C 0.67881 0.51455 0.38876 0.0
C1248 C 0.67199 0.51147 0.36036 0.0
H1249 H 0.67493 0.52469 0.21722 0.0
H1250 H 0.68567 0.53008 0.26402 0.0
H1251 H 0.64273 0.46854 0.31479 0.0
H1252 H 0.69937 0.49258 0.43588 0.0
H1253 H 0.68885 0.48799 0.38899 0.0
C1254 C 0.45751 0.15876 0.42697 0.0
C1255 C 0.47659 0.17343 0.44312 0.0
C1256 C 0.46083 0.15582 0.40017 0.0
C1257 C 0.50646 0.16246 0.35274 0.0
H1258 H 0.46184 0.15804 0.29989 0.0
C1259 C 0.5229 0.1634 0.24 0.0
C1260 C 0.50411 0.14715 0.22451 0.0
C1261 C 0.51962 0.16663 0.26672 0.0
C1262 C 0.47433 0.15903 0.31447 0.0
H1263 H 0.514 0.197 0.44377 0.0
H1264 H 0.51979 0.19215 0.39694 0.0
H1265 H 0.45593 0.16399 0.34637 0.0
H1266 H 0.46712 0.12168 0.22478 0.0
H1267 H 0.46143 0.12721 0.2715 0.0
H1268 H 0.52495 0.15769 0.32074 0.0
C1269 C 0.50232 0.1825 0.40506 0.0
C1270 C 0.47094 0.16241 0.3411 0.0
C1271 C 0.49901 0.18533 0.43187 0.0
C1272 C 0.48198 0.13418 0.23629 0.0
C1273 C 0.47867 0.13751 0.26294 0.0
C1274 C 0.50991 0.1592 0.3261 0.0
C1275 C 0.4833 0.16758 0.38893 0.0
C1276 C 0.48695 0.16414 0.36056 0.0
C1277 C 0.49744 0.1538 0.27843 0.0
C1278 C 0.49386 0.15741 0.30669 0.0
H1279 H 0.44007 0.14911 0.43519 0.0
H1280 H 0.44585 0.14393 0.3884 0.0
H1281 H 0.51892 0.1633 0.36727 0.0
H1282 H 0.54019 0.17351 0.23152 0.0
H1283 H 0.53437 0.17943 0.27812 0.0
C1284 C 0.86921 0.35562 0.23472 0.0
C1285 C 0.85416 0.36177 0.22194 0.0
C1286 C 0.86617 0.34935 0.26151 0.0
C1287 C 0.83641 0.35218 0.32295 0.0
H1288 H 0.84908 0.3039 0.34658 0.0
C1289 C 0.83483 0.33031 0.43383 0.0
C1290 C 0.82642 0.30695 0.44095 0.0
C1291 C 0.83854 0.33707 0.40721 0.0
C1292 C 0.84518 0.31722 0.34032 0.0
H1293 H 0.82429 0.36651 0.22775 0.0
H1294 H 0.81828 0.35449 0.27393 0.0
H1295 H 0.8542 0.3151 0.30011 0.0
H1296 H 0.81501 0.27224 0.42594 0.0
H1297 H 0.82069 0.28378 0.37932 0.0
H1298 H 0.82633 0.35353 0.36287 0.0
C1299 C 0.8328 0.35499 0.26343 0.0
C1300 C 0.8485 0.32394 0.31366 0.0
C1301 C 0.83603 0.36155 0.23673 0.0
C1302 C 0.82172 0.29041 0.42096 0.0
C1303 C 0.8251 0.29709 0.39427 0.0
C1304 C 0.8328 0.34524 0.34952 0.0
C1305 C 0.84781 0.34877 0.2762 0.0
C1306 C 0.84423 0.34157 0.30462 0.0
C1307 C 0.83359 0.32053 0.38703 0.0
C1308 C 0.83722 0.32773 0.35861 0.0
H1309 H 0.88319 0.35527 0.22395 0.0
H1310 H 0.87832 0.34506 0.27071 0.0
H1311 H 0.83323 0.36603 0.31687 0.0
H1312 H 0.8389 0.34346 0.44893 0.0
H1313 H 0.84558 0.35534 0.40253 0.0
C1314 C 0.34431 0.8374 0.76456 0.0
C1315 C 0.36703 0.85364 0.77274 0.0
C1316 C 0.33858 0.8342 0.73764 0.0
C1317 C 0.35915 0.86265 0.67193 0.0
H1318 H 0.31347 0.80127 0.64628 0.0
C1319 C 0.31984 0.84895 0.567 0.0
C1320 C 0.31454 0.82838 0.55327 0.0
C1321 C 0.32678 0.85186 0.59355 0.0
C1322 C 0.32649 0.81849 0.65296 0.0
H1323 H 0.40174 0.87897 0.75934 0.0
H1324 H 0.39203 0.87289 0.71218 0.0
H1325 H 0.32536 0.80632 0.69248 0.0
H1326 H 0.31231 0.79465 0.55702 0.0
H1327 H 0.32551 0.80021 0.60279 0.0
H1328 H 0.36101 0.87462 0.63215 0.0
C1329 C 0.3784 0.86306 0.72653 0.0
C1330 C 0.33305 0.82147 0.67964 0.0
C1331 C 0.38402 0.86649 0.75351 0.0
C1332 C 0.31654 0.81087 0.56677 0.0
C1333 C 0.32378 0.81391 0.59323 0.0
C1334 C 0.35282 0.85961 0.64516 0.0
C1335 C 0.35555 0.84695 0.71824 0.0
C1336 C 0.3493 0.84363 0.68956 0.0
C1337 C 0.32892 0.83442 0.60701 0.0
C1338 C 0.33624 0.83753 0.63536 0.0
H1339 H 0.3308 0.82751 0.77904 0.0
H1340 H 0.3207 0.82203 0.73213 0.0
H1341 H 0.3715 0.88003 0.67884 0.0
H1342 H 0.31886 0.86298 0.55719 0.0
H1343 H 0.33022 0.86774 0.60356 0.0
C1344 C 0.15039 0.47634 0.56619 0.0
C1345 C 0.17235 0.48376 0.55475 0.0
C1346 C 0.14858 0.48064 0.59297 0.0
C1347 C 0.17554 0.48742 0.65665 0.0
H1348 H 0.1443 0.52126 0.67777 0.0
C1349 C 0.14262 0.48826 0.76297 0.0
C1350 C 0.15102 0.51054 0.77398 0.0
C1351 C 0.14639 0.48579 0.7362 0.0
C1352 C 0.15311 0.51186 0.67207 0.0
H1353 H 0.20956 0.50112 0.56209 0.0
H1354 H 0.2063 0.50795 0.60941 0.0
H1355 H 0.14846 0.51519 0.63047 0.0
H1356 H 0.16963 0.54764 0.76591 0.0
H1357 H 0.17555 0.54325 0.71857 0.0
H1358 H 0.17948 0.4834 0.69826 0.0
C1359 C 0.19061 0.49914 0.59749 0.0
C1360 C 0.15538 0.50831 0.64515 0.0
C1361 C 0.19246 0.49532 0.57054 0.0
C1362 C 0.16308 0.53031 0.75779 0.0
C1363 C 0.16638 0.52781 0.73083 0.0
C1364 C 0.17279 0.4905 0.68358 0.0
C1365 C 0.16866 0.49196 0.60884 0.0
C1366 C 0.16663 0.49608 0.63726 0.0
C1367 C 0.15816 0.50553 0.7199 0.0
C1368 C 0.16157 0.50276 0.69146 0.0
H1369 H 0.13468 0.46749 0.55429 0.0
H1370 H 0.13148 0.47486 0.6014 0.0
H1371 H 0.18418 0.47785 0.65096 0.0
H1372 H 0.13336 0.4728 0.77518 0.0
H1373 H 0.13981 0.46845 0.72811 0.0
C1374 C 0.48498 0.65777 0.76478 0.0
C1375 C 0.49597 0.64619 0.77566 0.0
C1376 C 0.48819 0.66438 0.7381 0.0
C1377 C 0.5283 0.67708 0.68198 0.0
H1378 H 0.47491 0.66566 0.63918 0.0
C1379 C 0.5337 0.68738 0.56818 0.0
C1380 C 0.52115 0.69685 0.55612 0.0
C1381 C 0.53094 0.68191 0.59518 0.0
C1382 C 0.49006 0.66928 0.65093 0.0
H1383 H 0.5192 0.63277 0.76724 0.0
H1384 H 0.52466 0.64417 0.72055 0.0
H1385 H 0.46945 0.65472 0.68593 0.0
H1386 H 0.49631 0.70855 0.56301 0.0
H1387 H 0.49164 0.69921 0.61025 0.0
H1388 H 0.54895 0.69174 0.64708 0.0
C1389 C 0.51363 0.64819 0.7327 0.0
C1390 C 0.48691 0.66296 0.6777 0.0
C1391 C 0.51031 0.64145 0.75934 0.0
C1392 C 0.50596 0.70096 0.57168 0.0
C1393 C 0.50327 0.69557 0.59872 0.0
C1394 C 0.53148 0.68349 0.65524 0.0
C1395 C 0.50258 0.65969 0.7218 0.0
C1396 C 0.50598 0.66671 0.69347 0.0
C1397 C 0.51564 0.68587 0.61076 0.0
C1398 C 0.51237 0.67957 0.63936 0.0
H1399 H 0.47371 0.66152 0.77685 0.0
H1400 H 0.4796 0.6734 0.73031 0.0
H1401 H 0.54338 0.68049 0.69375 0.0
H1402 H 0.54529 0.68371 0.55661 0.0
H1403 H 0.54044 0.6741 0.6037 0.0
C1404 C 0.12106 0.00231 0.24769 0.0
C1405 C 0.14364 0.01025 0.23768 0.0
C1406 C 0.1134 0.01813 0.25302 0.0
C1407 C 0.13447 0.08068 0.26459 0.0
H1408 H 0.07621 0.06806 0.23204 0.0
C1409 C 0.11579 0.15329 0.23552 0.0
C1410 C 0.09293 0.14938 0.23718 0.0
C1411 C 0.12051 0.13546 0.24128 0.0
C1412 C 0.09228 0.07169 0.24177 0.0
H1413 H 0.1761 0.04094 0.22623 0.0
H1414 H 0.16278 0.0684 0.23557 0.0
H1415 H 0.08709 0.0379 0.2322 0.0
H1416 H 0.05713 0.12375 0.24689 0.0
H1417 H 0.06544 0.09263 0.25734 0.0
H1418 H 0.13999 0.11465 0.27358 0.0
C1419 C 0.15102 0.05004 0.23939 0.0
C1420 C 0.09851 0.0544 0.24183 0.0
C1421 C 0.15857 0.03427 0.2338 0.0
C1422 C 0.07496 0.12739 0.24556 0.0
C1423 C 0.07968 0.10949 0.25131 0.0
C1424 C 0.12821 0.09792 0.26465 0.0
C1425 C 0.12829 0.04214 0.24879 0.0
C1426 C 0.12 0.05899 0.25252 0.0
C1427 C 0.10247 0.11326 0.24889 0.0
C1428 C 0.10739 0.09387 0.2525 0.0
H1429 H 0.10916 0.98387 0.25085 0.0
H1430 H 0.09581 0.0116 0.26033 0.0
H1431 H 0.15096 0.08454 0.27338 0.0
H1432 H 0.13007 0.1701 0.2295 0.0
H1433 H 0.13822 0.1389 0.23889 0.0
C1434 C 0.96063 0.12261 0.23622 0.0
C1435 C 0.98475 0.13185 0.23938 0.0
C1436 C 0.94507 0.09917 0.24158 0.0
C1437 C 0.94158 0.04251 0.24226 0.0
H1438 H 0.88079 0.02234 0.27338 0.0
C1439 C 0.86922 0.94543 0.24431 0.0
C1440 C 0.84735 0.94131 0.23534 0.0
C1441 C 0.8869 0.96808 0.25046 0.0
C1442 C 0.89769 0.0277 0.26465 0.0
H1443 H 0.0115 0.12389 0.2513 0.0
H1444 H 0.98415 0.08266 0.26054 0.0
H1445 H 0.91056 0.06358 0.2743 0.0
H1446 H 0.82658 0.95751 0.22696 0.0
H1447 H 0.8574 0.99693 0.23722 0.0
H1448 H 0.92843 0.00677 0.23171 0.0
C1449 C 0.97737 0.09366 0.25385 0.0
C1450 C 0.91473 0.05129 0.2652 0.0
C1451 C 0.99299 0.11725 0.24867 0.0
C1452 C 0.84332 0.96016 0.23347 0.0
C1453 C 0.86091 0.98272 0.2397 0.0
C1454 C 0.9245 0.01889 0.24167 0.0
C1455 C 0.95325 0.08435 0.25012 0.0
C1456 C 0.93661 0.05904 0.25332 0.0
C1457 C 0.883 0.987 0.24794 0.0
C1458 C 0.90215 0.01135 0.25216 0.0
H1459 H 0.95371 0.13341 0.2292 0.0
H1460 H 0.92663 0.09246 0.23815 0.0
H1461 H 0.95821 0.04798 0.23275 0.0
H1462 H 0.87291 0.93129 0.2458 0.0
H1463 H 0.9037 0.97082 0.25691 0.0
C1464 C 0.8782 0.87248 0.24928 0.0
C1465 C 0.86323 0.84945 0.24077 0.0
C1466 C 0.9018 0.88029 0.25423 0.0
C1467 C 0.94377 0.85964 0.26617 0.0
H1468 H 0.98829 0.91694 0.23094 0.0
C1469 C 0.03516 0.87868 0.23582 0.0
C1470 C 0.05397 0.90165 0.23722 0.0
C1471 C 0.0125 0.87376 0.24143 0.0
C1472 C 0.97617 0.90114 0.24135 0.0
H1473 H 0.861 0.81634 0.23184 0.0
H1474 H 0.90194 0.82991 0.24041 0.0
H1475 H 0.94717 0.90578 0.23218 0.0
H1476 H 0.06372 0.93747 0.24608 0.0
H1477 H 0.02411 0.92882 0.2562 0.0
H1478 H 0.97264 0.85464 0.27469 0.0
C1479 C 0.89554 0.84193 0.2434 0.0
C1480 C 0.9526 0.89476 0.24207 0.0
C1481 C 0.87209 0.83421 0.23826 0.0
C1482 C 0.04965 0.91955 0.245 0.0
C1483 C 0.02693 0.91464 0.25056 0.0
C1484 C 0.96732 0.86603 0.26549 0.0
C1485 C 0.91075 0.86513 0.25105 0.0
C1486 C 0.93607 0.87362 0.25385 0.0
C1487 C 0.00807 0.89171 0.24858 0.0
C1488 C 0.98369 0.88653 0.25244 0.0
H1489 H 0.87187 0.88464 0.25138 0.0
H1490 H 0.91309 0.89823 0.26026 0.0
H1491 H 0.93148 0.84344 0.2758 0.0
H1492 H 0.03792 0.86446 0.23022 0.0
H1493 H -0.00166 0.85595 0.23939 0.0
C1494 C 0.03204 0.16215 0.75638 0.0
C1495 C 0.00816 0.14594 0.75883 0.0
C1496 C 0.04822 0.15463 0.75393 0.0
C1497 C 0.07868 0.13579 0.77169 0.0
H1498 H 0.06812 0.07919 0.73663 0.0
C1499 C 0.13567 0.09609 0.7957 0.0
C1500 C 0.14319 0.08757 0.77468 0.0
C1501 C 0.11842 0.10198 0.79172 0.0
C1502 C 0.07142 0.09516 0.74631 0.0
H1503 H 0.98225 0.10913 0.75941 0.0
H1504 H 0.01064 0.09588 0.75605 0.0
H1505 H 0.03992 0.09251 0.73105 0.0
H1506 H 0.13808 0.07787 0.73315 0.0
H1507 H 0.10803 0.0886 0.72595 0.0
H1508 H 0.11026 0.13884 0.78652 0.0
C1509 C 0.01687 0.11443 0.75546 0.0
C1510 C 0.05515 0.10266 0.74334 0.0
C1511 C 0.0006 0.122 0.75748 0.0
C1512 C 0.13255 0.08436 0.7497 0.0
C1513 C 0.11534 0.09046 0.74563 0.0
C1514 C 0.09491 0.12839 0.77452 0.0
C1515 C 0.04095 0.13071 0.75444 0.0
C1516 C 0.05854 0.12302 0.75615 0.0
C1517 C 0.10838 0.09972 0.76653 0.0
C1518 C 0.09136 0.10784 0.7622 0.0
H1519 H 0.0383 0.18072 0.75694 0.0
H1520 H 0.06654 0.16765 0.75239 0.0
H1521 H 0.08176 0.15132 0.78225 0.0
H1522 H 0.14312 0.09819 0.81532 0.0
H1523 H 0.11301 0.10841 0.80846 0.0
C1524 C 0.88785 0.03446 0.78189 0.0
C1525 C 0.90183 0.05357 0.76536 0.0
C1526 C 0.8844 0.01235 0.77617 0.0
C1527 C 0.91179 0.98323 0.7432 0.0
H1528 H 0.8514 0.928 0.75462 0.0
C1529 C 0.86411 0.87567 0.744 0.0
C1530 C 0.88005 0.87334 0.76031 0.0
C1531 C 0.86718 0.89773 0.73855 0.0
C1532 C 0.8683 0.94322 0.75089 0.0
H1533 H 0.92267 0.06402 0.72934 0.0
H1534 H 0.91696 0.0254 0.71972 0.0
H1535 H 0.85497 0.96645 0.75637 0.0
H1536 H 0.91242 0.89232 0.78234 0.0
H1537 H 0.91767 0.9307 0.77297 0.0
H1538 H 0.92522 0.95998 0.73835 0.0
C1539 C 0.90877 0.02772 0.73717 0.0
C1540 C 0.87038 0.96523 0.75218 0.0
C1541 C 0.9121 0.04987 0.74278 0.0
C1542 C 0.89973 0.89352 0.76989 0.0
C1543 C 0.90285 0.91555 0.76432 0.0
C1544 C 0.90973 0.96119 0.74203 0.0
C1545 C 0.89494 0.00877 0.75387 0.0
C1546 C 0.89224 0.98547 0.74901 0.0
C1547 C 0.88633 0.91786 0.74912 0.0
C1548 C 0.88806 0.94098 0.74649 0.0
H1549 H 0.87998 0.03657 0.79969 0.0
H1550 H 0.87401 0.99816 0.7897 0.0
H1551 H 0.92888 -0.00146 0.74077 0.0
H1552 H 0.84881 0.86043 0.73622 0.0
H1553 H 0.85429 0.89901 0.72653 0.0
C1554 C 0.11994 0.95636 0.76137 0.0
C1555 C 0.12836 0.98033 0.758 0.0
C1556 C 0.09714 0.94003 0.7543 0.0
C1557 C 0.03956 0.93383 0.74778 0.0
H1558 H 0.02364 0.8733 0.71896 0.0
C1559 C 0.94424 0.85962 0.7423 0.0
C1560 C 0.94031 0.83831 0.75296 0.0
C1561 C 0.96681 0.87729 0.73608 0.0
C1562 C 0.02781 0.89012 0.727 0.0
H1563 H 0.11967 0.00599 0.74387 0.0
H1564 H 0.07951 0.97726 0.7316 0.0
H1565 H 0.06441 0.90441 0.72027 0.0
H1566 H 0.95686 0.81839 0.76395 0.0
H1567 H 0.99632 0.84935 0.75359 0.0
H1568 H 0.00314 0.91936 0.75549 0.0
C1569 C 0.09066 0.97121 0.73982 0.0
C1570 C 0.05112 0.90793 0.72773 0.0
C1571 C 0.11363 0.98763 0.74677 0.0
C1572 C 0.95935 0.83468 0.75606 0.0
C1573 C 0.98193 0.85235 0.74982 0.0
C1574 C 0.01625 0.91603 0.74707 0.0
C1575 C 0.08214 0.94725 0.74375 0.0
C1576 C 0.0573 0.92974 0.73886 0.0
C1577 C 0.98597 0.87405 0.74037 0.0
C1578 C 0.0102 0.89378 0.73737 0.0
H1579 H 0.13086 0.95013 0.76983 0.0
H1580 H 0.09102 0.92174 0.75798 0.0
H1581 H 0.04377 0.95036 0.75673 0.0
H1582 H 0.93004 0.86313 0.73989 0.0
H1583 H 0.96934 0.89373 0.72857 0.0
C1584 C 0.82635 0.36929 0.57258 0.0
C1585 C 0.81152 0.34502 0.57419 0.0
C1586 C 0.81785 0.3844 0.57757 0.0
C1587 C 0.76403 0.38693 0.57476 0.0
H1588 H 0.80201 0.44655 0.60957 0.0
C1589 C 0.73691 0.45753 0.57806 0.0
C1590 C 0.75471 0.47993 0.57066 0.0
C1591 C 0.74212 0.43994 0.58374 0.0
C1592 C 0.7912 0.42997 0.59978 0.0
H1593 H 0.77621 0.31757 0.58302 0.0
H1594 H 0.76132 0.3441 0.59167 0.0
H1595 H 0.8143 0.41743 0.61031 0.0
H1596 H 0.79199 0.50172 0.56466 0.0
H1597 H 0.80103 0.47112 0.57415 0.0
H1598 H 0.74134 0.39978 0.56345 0.0
C1599 C 0.77952 0.35136 0.58642 0.0
C1600 C 0.79823 0.41331 0.60022 0.0
C1601 C 0.78809 0.33619 0.58159 0.0
C1602 C 0.77786 0.48457 0.56992 0.0
C1603 C 0.78307 0.46708 0.57572 0.0
C1604 C 0.757 0.40363 0.5743 0.0
C1605 C 0.79428 0.37563 0.58419 0.0
C1606 C 0.78507 0.39186 0.58708 0.0
C1607 C 0.76525 0.44448 0.58236 0.0
C1608 C 0.77086 0.42558 0.58617 0.0
H1609 H 0.84451 0.37667 0.56702 0.0
H1610 H 0.82961 0.40298 0.57532 0.0
H1611 H 0.75361 0.37065 0.56426 0.0
H1612 H 0.71889 0.4534 0.57866 0.0
H1613 H 0.72803 0.42273 0.58897 0.0
C1614 C 0.65175 0.44952 0.58463 0.0
C1615 C 0.64515 0.46457 0.57282 0.0
C1616 C 0.63488 0.42658 0.59101 0.0
C1617 C 0.57136 0.38778 0.60125 0.0
H1618 H 0.58275 0.33922 0.57547 0.0
C1619 C 0.49783 0.29513 0.57603 0.0
C1620 C 0.50171 0.27628 0.57939 0.0
C1621 C 0.5155 0.31789 0.58153 0.0
C1622 C 0.57941 0.35249 0.58335 0.0
H1623 H 0.6157 0.46766 0.5592 0.0
H1624 H 0.58646 0.4278 0.57016 0.0
H1625 H 0.61389 0.37974 0.57371 0.0
H1626 H 0.52702 0.2666 0.59237 0.0
H1627 H 0.5575 0.30613 0.6026 0.0
H1628 H 0.53666 0.36056 0.61024 0.0
C1629 C 0.60457 0.43368 0.57469 0.0
C1630 C 0.59729 0.37574 0.5823 0.0
C1631 C 0.62138 0.45647 0.56816 0.0
C1632 C 0.52328 0.28061 0.58972 0.0
C1633 C 0.54091 0.30335 0.59529 0.0
C1634 C 0.55349 0.36452 0.60239 0.0
C1635 C 0.61113 0.4184 0.58593 0.0
C1636 C 0.59326 0.39367 0.59059 0.0
C1637 C 0.53744 0.32231 0.59059 0.0
C1638 C 0.55714 0.34665 0.59282 0.0
H1639 H 0.66994 0.45529 0.58852 0.0
H1640 H 0.64042 0.41521 0.59978 0.0
H1641 H 0.56788 0.40124 0.60818 0.0
H1642 H 0.48134 0.29238 0.56846 0.0
H1643 H 0.51227 0.3321 0.57748 0.0
C1644 C 0.70156 0.22678 0.54319 0.0
C1645 C 0.72012 0.24017 0.56067 0.0
C1646 C 0.67933 0.22341 0.54798 0.0
C1647 C 0.64915 0.24994 0.58073 0.0
H1648 H 0.59425 0.18952 0.56825 0.0
C1649 C 0.5416 0.2013 0.58307 0.0
C1650 C 0.53848 0.21725 0.56772 0.0
C1651 C 0.56392 0.20452 0.58703 0.0
C1652 C 0.60938 0.20643 0.57219 0.0
H1653 H 0.7294 0.2601 0.59734 0.0
H1654 H 0.69062 0.25454 0.60533 0.0
H1655 H 0.63289 0.19351 0.56609 0.0
H1656 H 0.55638 0.24974 0.54573 0.0
H1657 H 0.59528 0.25531 0.55259 0.0
H1658 H 0.6256 0.26294 0.58632 0.0
C1659 C 0.69347 0.24676 0.58786 0.0
C1660 C 0.6315 0.20876 0.57068 0.0
C1661 C 0.71573 0.24999 0.58319 0.0
C1662 C 0.5582 0.23705 0.5575 0.0
C1663 C 0.58051 0.24034 0.5616 0.0
C1664 C 0.627 0.24765 0.58207 0.0
C1665 C 0.67507 0.23346 0.57027 0.0
C1666 C 0.65162 0.23061 0.57446 0.0
C1667 C 0.58356 0.22385 0.57591 0.0
C1668 C 0.60691 0.22594 0.57739 0.0
H1669 H 0.70422 0.21927 0.52541 0.0
H1670 H 0.66557 0.21341 0.53381 0.0
H1671 H 0.66436 0.26702 0.5836 0.0
H1672 H 0.52676 0.1859 0.5913 0.0
H1673 H 0.56579 0.19166 0.5984 0.0
C1674 C 0.81312 0.44162 0.11691 0.0
C1675 C 0.81717 0.42734 0.09963 0.0
C1676 C 0.79409 0.44491 0.11305 0.0
C1677 C 0.73561 0.41663 0.08461 0.0
H1678 H 0.74114 0.47722 0.09524 0.0
C1679 C 0.67563 0.46389 0.08375 0.0
C1680 C 0.65739 0.44848 0.10048 0.0
C1681 C 0.69475 0.46086 0.07915 0.0
C1682 C 0.73934 0.46024 0.09185 0.0
H1683 H 0.80461 0.40597 0.0641 0.0
H1684 H 0.77115 0.41142 0.05775 0.0
H1685 H 0.77614 0.47376 0.09535 0.0
H1686 H 0.64432 0.41718 0.12445 0.0
H1687 H 0.67774 0.41195 0.11647 0.0
H1688 H 0.69874 0.40305 0.08162 0.0
C1689 C 0.78271 0.41991 0.07438 0.0
C1690 C 0.75935 0.45824 0.09218 0.0
C1691 C 0.80187 0.41674 0.07811 0.0
C1692 C 0.65817 0.42943 0.1116 0.0
C1693 C 0.67723 0.42633 0.10686 0.0
C1694 C 0.71557 0.41861 0.08446 0.0
C1695 C 0.77857 0.43391 0.09192 0.0
C1696 C 0.75764 0.43636 0.08901 0.0
C1697 C 0.69592 0.44227 0.09102 0.0
C1698 C 0.71721 0.44038 0.08849 0.0
H1699 H 0.82421 0.44979 0.13392 0.0
H1700 H 0.79113 0.45552 0.12714 0.0
H1701 H 0.73377 0.39953 0.08228 0.0
H1702 H 0.6755 0.4787 0.0748 0.0
H1703 H 0.70881 0.47327 0.06662 0.0
C1704 C 0.49741 0.20669 0.09788 0.0
C1705 C 0.51296 0.19842 0.09351 0.0
C1706 C 0.50378 0.22963 0.09161 0.0
C1707 C 0.55521 0.28733 0.08569 0.0
H1708 H 0.5109 0.30399 0.05772 0.0
C1709 C 0.57807 0.38309 0.07987 0.0
C1710 C 0.56092 0.38764 0.08996 0.0
C1711 C 0.57268 0.3603 0.07413 0.0
C1712 C 0.52345 0.29962 0.06559 0.0
H1713 H 0.5472 0.20751 0.07846 0.0
H1714 H 0.55843 0.24783 0.06761 0.0
H1715 H 0.50071 0.26309 0.05881 0.0
H1716 H 0.52434 0.37187 0.1004 0.0
H1717 H 0.51505 0.33207 0.09109 0.0
H1718 H 0.5776 0.32364 0.09348 0.0
C1719 C 0.54131 0.23649 0.07598 0.0
C1720 C 0.51764 0.27622 0.06617 0.0
C1721 C 0.53486 0.21341 0.0821 0.0
C1722 C 0.53802 0.36896 0.09302 0.0
C1723 C 0.53264 0.34615 0.08735 0.0
C1724 C 0.561 0.3107 0.08519 0.0
C1725 C 0.5259 0.24488 0.08092 0.0
C1726 C 0.53324 0.26979 0.07682 0.0
C1727 C 0.55004 0.3415 0.07841 0.0
C1728 C 0.54497 0.31707 0.07571 0.0
H1729 H 0.48036 0.19555 0.10651 0.0
H1730 H 0.49164 0.23565 0.096 0.0
H1731 H 0.56749 0.2829 0.0943 0.0
H1732 H 0.59595 0.39697 0.07746 0.0
H1733 H 0.58641 0.35735 0.06694 0.0
C1734 C 0.78917 0.29603 0.09382 0.0
C1735 C 0.79878 0.32025 0.0912 0.0
C1736 C 0.76551 0.28087 0.08903 0.0
C1737 C 0.7092 0.27827 0.09086 0.0
H1738 H 0.68772 0.21806 0.05763 0.0
C1739 C 0.61151 0.20661 0.08915 0.0
C1740 C 0.60726 0.18445 0.0971 0.0
C1741 C 0.63421 0.22435 0.08315 0.0
C1742 C 0.69343 0.2348 0.06698 0.0
H1743 H 0.79119 0.34758 0.08094 0.0
H1744 H 0.74958 0.32094 0.07274 0.0
H1745 H 0.72909 0.2474 0.05636 0.0
H1746 H 0.62328 0.16327 0.1038 0.0
H1747 H 0.66273 0.19412 0.09373 0.0
H1748 H 0.67365 0.26535 0.10233 0.0
C1749 C 0.76047 0.31377 0.07854 0.0
C1750 C 0.71711 0.2516 0.06622 0.0
C1751 C 0.78429 0.32899 0.0831 0.0
C1752 C 0.62602 0.18022 0.0981 0.0
C1753 C 0.64861 0.19785 0.09198 0.0
C1754 C 0.68548 0.26142 0.09166 0.0
C1755 C 0.75082 0.28955 0.08165 0.0
C1756 C 0.72535 0.27326 0.07884 0.0
C1757 C 0.65304 0.2202 0.08473 0.0
C1758 C 0.67745 0.23925 0.08041 0.0
H1759 H 0.79987 0.28872 0.09993 0.0
H1760 H 0.75858 0.26235 0.09198 0.0
H1761 H 0.71504 0.29474 0.10093 0.0
H1762 H 0.59743 0.21044 0.08834 0.0
H1763 H 0.63705 0.24136 0.07748 0.0
C1764 C 0.44524 0.81572 0.88527 0.0
C1765 C 0.43038 0.81998 0.90131 0.0
C1766 C 0.44858 0.79692 0.89052 0.0
C1767 C 0.41938 0.73898 0.92012 0.0
H1768 H 0.47983 0.74383 0.91089 0.0
C1769 C 0.46572 0.67802 0.91929 0.0
C1770 C 0.45031 0.66042 0.90189 0.0
C1771 C 0.4628 0.69705 0.925 0.0
C1772 C 0.46289 0.74221 0.91398 0.0
H1773 H 0.4081 0.80813 0.93618 0.0
H1774 H 0.41366 0.77503 0.94499 0.0
H1775 H 0.47683 0.77906 0.91046 0.0
H1776 H 0.41904 0.64829 0.87805 0.0
H1777 H 0.41407 0.68153 0.88788 0.0
H1778 H 0.40536 0.70206 0.92302 0.0
C1779 C 0.42256 0.78626 0.92824 0.0
C1780 C 0.46115 0.76236 0.91346 0.0
C1781 C 0.41933 0.80519 0.9231 0.0
C1782 C 0.43131 0.66165 0.89136 0.0
C1783 C 0.42834 0.6806 0.89719 0.0
C1784 C 0.4211 0.7188 0.92052 0.0
C1785 C 0.43707 0.78184 0.91186 0.0
C1786 C 0.43931 0.76089 0.91589 0.0
C1787 C 0.44434 0.69875 0.9136 0.0
C1788 C 0.4428 0.72018 0.91684 0.0
H1789 H 0.45378 0.82642 0.8681 0.0
H1790 H 0.45957 0.79372 0.87728 0.0
H1791 H 0.4023 0.73731 0.92192 0.0
H1792 H 0.48047 0.67751 0.92782 0.0
H1793 H 0.47525 0.71067 0.93794 0.0
C1794 C 0.33069 0.78651 0.9127 0.0
C1795 C 0.32226 0.80091 0.9033 0.0
C1796 C 0.31521 0.76291 0.91808 0.0
C1797 C 0.25289 0.7205 0.93058 0.0
H1798 H 0.26592 0.67566 0.89671 0.0
C1799 C 0.18068 0.62917 0.90083 0.0
C1800 C 0.1847 0.61029 0.9022 0.0
C1801 C 0.19846 0.65175 0.90667 0.0
C1802 C 0.26219 0.68787 0.90679 0.0
H1803 H 0.29105 0.80212 0.89309 0.0
H1804 H 0.26421 0.76119 0.9025 0.0
H1805 H 0.29573 0.7169 0.89707 0.0
H1806 H 0.21048 0.60026 0.91142 0.0
H1807 H 0.2416 0.63981 0.9219 0.0
H1808 H 0.21914 0.69165 0.93967 0.0
C1809 C 0.28269 0.76804 0.90581 0.0
C1810 C 0.27928 0.71151 0.90698 0.0
C1811 C 0.2981 0.79147 0.90019 0.0
C1812 C 0.20678 0.61442 0.91032 0.0
C1813 C 0.22466 0.63709 0.9161 0.0
C1814 C 0.23585 0.6969 0.93048 0.0
C1815 C 0.29106 0.75342 0.91451 0.0
C1816 C 0.27452 0.72813 0.91814 0.0
C1817 C 0.22075 0.65604 0.91404 0.0
C1818 C 0.24003 0.68042 0.91784 0.0
H1819 H 0.34923 0.79329 0.91527 0.0
H1820 H 0.32213 0.75204 0.92485 0.0
H1821 H 0.24889 0.73289 0.93976 0.0
H1822 H 0.16379 0.62654 0.895 0.0
H1823 H 0.1949 0.66595 0.90454 0.0
C1824 C 0.21486 0.53896 0.91693 0.0
C1825 C 0.19995 0.51707 0.90548 0.0
C1826 C 0.23796 0.54549 0.92314 0.0
C1827 C 0.27781 0.52182 0.93282 0.0
H1828 H 0.3253 0.58183 0.90574 0.0
C1829 C 0.37012 0.54175 0.90448 0.0
C1830 C 0.38899 0.56448 0.90794 0.0
C1831 C 0.34739 0.53653 0.91043 0.0
C1832 C 0.31233 0.56521 0.91395 0.0
H1833 H 0.19726 0.48455 0.89252 0.0
H1834 H 0.23734 0.49594 0.90316 0.0
H1835 H 0.28456 0.57187 0.90524 0.0
H1836 H 0.39876 0.59939 0.92129 0.0
H1837 H 0.35922 0.59015 0.93216 0.0
H1838 H 0.30554 0.51488 0.94077 0.0
C1839 C 0.23127 0.50803 0.90754 0.0
C1840 C 0.28896 0.55951 0.91366 0.0
C1841 C 0.20833 0.5016 0.90118 0.0
C1842 C 0.38471 0.58164 0.91859 0.0
C1843 C 0.36199 0.57642 0.92454 0.0
C1844 C 0.30119 0.52753 0.93316 0.0
C1845 C 0.24645 0.53014 0.91825 0.0
C1846 C 0.27139 0.53751 0.92241 0.0
C1847 C 0.34301 0.55394 0.91998 0.0
C1848 C 0.31865 0.54905 0.92307 0.0
H1849 H 0.20888 0.55125 0.92051 0.0
H1850 H 0.24924 0.5626 0.93153 0.0
H1851 H 0.26468 0.50487 0.94012 0.0
H1852 H 0.37285 0.5281 0.89661 0.0
H1853 H 0.33317 0.51908 0.90644 0.0
C1854 C 0.37367 0.83212 0.41936 0.0
C1855 C 0.34942 0.81717 0.41767 0.0
C1856 C 0.38892 0.8238 0.41426 0.0
C1857 C 0.39134 0.77004 0.41756 0.0
H1858 H 0.45192 0.8083 0.38482 0.0
C1859 C 0.46174 0.74284 0.41762 0.0
C1860 C 0.48399 0.76049 0.42573 0.0
C1861 C 0.44443 0.7482 0.4111 0.0
C1862 C 0.43507 0.79742 0.39402 0.0
H1863 H 0.32213 0.78192 0.40832 0.0
H1864 H 0.34889 0.76736 0.39942 0.0
H1865 H 0.42276 0.82052 0.38263 0.0
H1866 H 0.50578 0.79769 0.43221 0.0
H1867 H 0.47557 0.80701 0.4213 0.0
H1868 H 0.40391 0.74737 0.42976 0.0
C1869 C 0.35604 0.7855 0.40486 0.0
C1870 C 0.41837 0.8044 0.39274 0.0
C1871 C 0.34074 0.79388 0.40982 0.0
C1872 C 0.48874 0.78367 0.4264 0.0
C1873 C 0.4715 0.78904 0.41979 0.0
C1874 C 0.40804 0.76306 0.41884 0.0
C1875 C 0.38028 0.80031 0.40744 0.0
C1876 C 0.39657 0.79112 0.40514 0.0
C1877 C 0.44906 0.77135 0.41238 0.0
C1878 C 0.43031 0.77702 0.40773 0.0
H1879 H 0.38093 0.85018 0.42524 0.0
H1880 H 0.40747 0.83559 0.41676 0.0
H1881 H 0.37479 0.75956 0.42754 0.0
H1882 H 0.45748 0.72478 0.41707 0.0
H1883 H 0.42735 0.73421 0.4053 0.0
C1884 C 0.16897 0.54325 0.42398 0.0
C1885 C 0.18332 0.53335 0.42145 0.0
C1886 C 0.17768 0.56684 0.41864 0.0
C1887 C 0.23214 0.62261 0.41909 0.0
H1888 H 0.19323 0.64483 0.38802 0.0
C1889 C 0.25946 0.72048 0.4183 0.0
C1890 C 0.24207 0.72491 0.42781 0.0
C1891 C 0.25399 0.69776 0.41174 0.0
C1892 C 0.20432 0.6389 0.3967 0.0
H1893 H 0.21795 0.5403 0.4106 0.0
H1894 H 0.23326 0.58175 0.40132 0.0
H1895 H 0.18056 0.60334 0.38641 0.0
H1896 H 0.20523 0.70925 0.43672 0.0
H1897 H 0.1957 0.66971 0.42556 0.0
H1898 H 0.25551 0.65809 0.43019 0.0
C1899 C 0.21525 0.57117 0.40754 0.0
C1900 C 0.19708 0.61516 0.39578 0.0
C1901 C 0.20646 0.54743 0.41273 0.0
C1902 C 0.21903 0.70633 0.42978 0.0
C1903 C 0.21354 0.68372 0.42306 0.0
C1904 C 0.23941 0.6464 0.41998 0.0
C1905 C 0.201 0.58116 0.41072 0.0
C1906 C 0.21054 0.60665 0.40771 0.0
C1907 C 0.23098 0.67911 0.41429 0.0
C1908 C 0.2252 0.65466 0.40954 0.0
H1909 H 0.15105 0.53288 0.43057 0.0
H1910 H 0.16634 0.57404 0.42168 0.0
H1911 H 0.24282 0.61659 0.42864 0.0
H1912 H 0.2774 0.73445 0.41673 0.0
H1913 H 0.26777 0.69473 0.40492 0.0
C1914 C 0.4495 0.65893 0.41792 0.0
C1915 C 0.46406 0.65101 0.4282 0.0
C1916 C 0.42586 0.64319 0.41315 0.0
C1917 C 0.3835 0.58038 0.40403 0.0
H1918 H 0.33863 0.59519 0.43439 0.0
C1919 C 0.29106 0.50995 0.4334 0.0
C1920 C 0.27248 0.51428 0.43036 0.0
C1921 C 0.31391 0.52731 0.42791 0.0
C1922 C 0.35087 0.59094 0.42531 0.0
H1923 H 0.46545 0.62039 0.44076 0.0
H1924 H 0.42441 0.59309 0.43246 0.0
H1925 H 0.37995 0.62475 0.43384 0.0
H1926 H 0.26331 0.54019 0.41861 0.0
H1927 H 0.3033 0.57053 0.40869 0.0
H1928 H 0.35455 0.54641 0.3961 0.0
C1929 C 0.43119 0.61137 0.42795 0.0
C1930 C 0.37455 0.60788 0.42502 0.0
C1931 C 0.45469 0.62706 0.43293 0.0
C1932 C 0.27721 0.53624 0.42099 0.0
C1933 C 0.30014 0.55368 0.41554 0.0
C1934 C 0.35985 0.56349 0.40425 0.0
C1935 C 0.41646 0.61926 0.41827 0.0
C1936 C 0.39116 0.60255 0.41505 0.0
C1937 C 0.31877 0.54948 0.41922 0.0
C1938 C 0.34334 0.56836 0.41558 0.0
H1939 H 0.45623 0.6773 0.41409 0.0
H1940 H 0.41491 0.64973 0.40557 0.0
H1941 H 0.39588 0.57593 0.39578 0.0
H1942 H 0.28798 0.49314 0.44023 0.0
H1943 H 0.32786 0.52356 0.43128 0.0
loop_
_geom_bond_atom_site_label_1
_geom_bond_atom_site_label_2
_geom_bond_distance
_geom_bond_site_symmetry_2
_ccdc_geom_bond_type
Co0 N4 2.148 1_455 S
Co0 N10 2.128 . S
Co0 N20 2.194 . S
Co0 O25 2.351 . S
Co0 O26 2.155 . S
Co0 O27 2.093 1_455 S
C1 N4 1.301 . S
C1 N5 1.328 . S
C1 H6 0.930 1_655 S
C2 C3 1.333 . S
C2 N4 1.317 . S
C2 H7 0.930 . S
C3 C2 1.333 . S
C3 N5 1.350 . S
C3 H29 0.931 . S
N4 Co0 2.148 1_655 S
N4 C1 1.301 . S
N4 C2 1.317 . S
N5 C1 1.328 . S
N5 C3 1.350 . S
H6 C1 0.930 1_455 S
H7 C2 0.930 . S
C8 O9 1.224 . S
C8 O27 1.249 . S
O9 C8 1.224 . S
N10 Co0 2.128 . S
N10 C11 1.355 . S
N10 C13 1.311 . S
C11 N10 1.355 . S
C11 C12 1.363 . S
C11 H23 0.929 . S
C12 C11 1.363 . S
C12 N14 1.375 . S
C12 H30 0.931 . S
C13 N10 1.311 . S
C13 N14 1.347 . S
C13 H24 0.929 . S
N14 C12 1.375 . S
N14 C13 1.347 . S
C15 C18 1.365 . S
C15 N20 1.328 . S
C15 H21 0.929 . S
C16 C17 1.362 . S
C16 C19 1.378 . S
C16 H31 0.929 . S
C17 C16 1.362 . S
C17 C18 1.366 . S
C18 C15 1.365 . S
C18 C17 1.366 . S
C18 H32 0.930 . S
C19 C16 1.378 . S
C19 N20 1.315 . S
C19 H22 0.930 . S
N20 Co0 2.194 . S
N20 C15 1.328 . S
N20 C19 1.315 . S
H21 C15 0.929 . S
H22 C19 0.930 . S
H23 C11 0.929 . S
H24 C13 0.929 . S
O25 Co0 2.351 . S
O25 C28 1.244 . S
O26 Co0 2.155 . S
O26 C28 1.240 . S
O27 Co0 2.093 1_655 S
O27 C8 1.249 . S
C28 O25 1.244 . S
C28 O26 1.240 . S
H29 C3 0.931 . S
H30 C12 0.931 . S
H31 C16 0.929 . S
H32 C18 0.930 . S
Co33 N37 2.148 . S
Co33 N43 2.128 . S
Co33 N53 2.194 . S
Co33 O58 2.351 . S
Co33 O59 2.155 . S
Co33 O60 2.096 . S
C34 N37 1.301 . S
C34 N38 1.328 . S
C34 H39 0.930 . S
C35 C36 1.333 . S
C35 N37 1.317 . S
C35 H40 0.930 . S
C36 C35 1.333 . S
C36 N38 1.350 . S
C36 H62 0.931 . S
N37 Co33 2.148 . S
N37 C34 1.301 . S
N37 C35 1.317 . S
N38 C34 1.328 . S
N38 C36 1.350 . S
H39 C34 0.930 . S
H40 C35 0.930 . S
C41 O42 1.224 . S
C41 O60 1.247 . S
O42 C41 1.224 . S
N43 Co33 2.128 . S
N43 C44 1.355 . S
N43 C46 1.311 . S
C44 N43 1.355 . S
C44 C45 1.363 . S
C44 H56 0.929 . S
C45 C44 1.363 . S
C45 N47 1.375 . S
C45 H63 0.931 . S
C46 N43 1.311 . S
C46 N47 1.347 . S
C46 H57 0.929 . S
N47 C45 1.375 . S
N47 C46 1.347 . S
C48 C51 1.365 . S
C48 N53 1.328 . S
C48 H54 0.929 . S
C49 C50 1.362 . S
C49 C52 1.378 . S
C49 H64 0.929 . S
C50 C49 1.362 . S
C50 C51 1.366 . S
C51 C48 1.365 . S
C51 C50 1.366 . S
C51 H65 0.930 . S
C52 C49 1.378 . S
C52 N53 1.315 . S
C52 H55 0.930 . S
N53 Co33 2.194 . S
N53 C48 1.328 . S
N53 C52 1.315 . S
H54 C48 0.929 . S
H55 C52 0.930 . S
H56 C44 0.929 . S
H57 C46 0.929 . S
O58 Co33 2.351 . S
O58 C61 1.244 . S
O59 Co33 2.155 . S
O59 C61 1.240 . S
O60 Co33 2.096 . S
O60 C41 1.247 . S
C61 O58 1.244 . S
C61 O59 1.240 . S
H62 C36 0.931 . S
H63 C45 0.931 . S
H64 C49 0.929 . S
H65 C51 0.930 . S
Co66 N70 2.148 1_565 S
Co66 N76 2.128 . S
Co66 N86 2.194 . S
Co66 O91 2.351 . S
Co66 O92 2.155 . S
Co66 O93 2.096 1_565 S
C67 N70 1.301 . S
C67 N71 1.328 . S
C67 H72 0.930 1_545 S
C68 C69 1.333 . S
C68 N70 1.317 . S
C68 H73 0.930 . S
C69 C68 1.333 . S
C69 N71 1.350 . S
C69 H95 0.931 . S
N70 Co66 2.148 1_545 S
N70 C67 1.301 . S
N70 C68 1.317 . S
N71 C67 1.328 . S
N71 C69 1.350 . S
H72 C67 0.930 1_565 S
H73 C68 0.930 . S
C74 O75 1.224 . S
C74 O93 1.247 . S
O75 C74 1.224 . S
N76 Co66 2.128 . S
N76 C77 1.355 . S
N76 C79 1.311 . S
C77 N76 1.355 . S
C77 C78 1.363 . S
C77 H89 0.929 . S
C78 C77 1.363 . S
C78 N80 1.375 . S
C78 H96 0.931 . S
C79 N76 1.311 . S
C79 N80 1.347 . S
C79 H90 0.929 . S
N80 C78 1.375 . S
N80 C79 1.347 . S
C81 C84 1.365 . S
C81 N86 1.328 . S
C81 H87 0.929 . S
C82 C83 1.362 . S
C82 C85 1.378 . S
C82 H97 0.929 . S
C83 C82 1.362 . S
C83 C84 1.366 . S
C84 C81 1.365 . S
C84 C83 1.366 . S
C84 H98 0.930 . S
C85 C82 1.378 . S
C85 N86 1.315 . S
C85 H88 0.930 . S
N86 Co66 2.194 . S
N86 C81 1.328 . S
N86 C85 1.315 . S
H87 C81 0.929 . S
H88 C85 0.930 . S
H89 C77 0.929 . S
H90 C79 0.929 . S
O91 Co66 2.351 . S
O91 C94 1.244 . S
O92 Co66 2.155 . S
O92 C94 1.240 . S
O93 Co66 2.096 1_545 S
O93 C74 1.247 . S
C94 O91 1.244 . S
C94 O92 1.240 . S
H95 C69 0.931 . S
H96 C78 0.931 . S
H97 C82 0.929 . S
H98 C84 0.930 . S
Co99 N103 2.148 1_545 S
Co99 N109 2.128 . S
Co99 N119 2.194 . S
Co99 O124 2.351 . S
Co99 O125 2.155 . S
Co99 O126 2.093 1_545 S
C100 N103 1.301 . S
C100 N104 1.328 . S
C100 H105 0.930 1_565 S
C101 C102 1.333 . S
C101 N103 1.317 . S
C101 H106 0.930 . S
C102 C101 1.333 . S
C102 N104 1.350 . S
C102 H128 0.931 . S
N103 Co99 2.148 1_565 S
N103 C100 1.301 . S
N103 C101 1.317 . S
N104 C100 1.328 . S
N104 C102 1.350 . S
H105 C100 0.930 1_545 S
H106 C101 0.930 . S
C107 O108 1.224 . S
C107 O126 1.249 . S
O108 C107 1.224 . S
N109 Co99 2.128 . S
N109 C110 1.355 . S
N109 C112 1.311 . S
C110 N109 1.355 . S
C110 C111 1.363 . S
C110 H122 0.929 . S
C111 C110 1.363 . S
C111 N113 1.375 . S
C111 H129 0.931 . S
C112 N109 1.311 . S
C112 N113 1.347 . S
C112 H123 0.929 . S
N113 C111 1.375 . S
N113 C112 1.347 . S
C114 C117 1.365 . S
C114 N119 1.328 . S
C114 H120 0.929 . S
C115 C116 1.362 . S
C115 C118 1.378 . S
C115 H130 0.929 . S
C116 C115 1.362 . S
C116 C117 1.366 . S
C117 C114 1.365 . S
C117 C116 1.366 . S
C117 H131 0.930 . S
C118 C115 1.378 . S
C118 N119 1.315 . S
C118 H121 0.930 . S
N119 Co99 2.194 . S
N119 C114 1.328 . S
N119 C118 1.315 . S
H120 C114 0.929 . S
H121 C118 0.930 . S
H122 C110 0.929 . S
H123 C112 0.929 . S
O124 Co99 2.351 . S
O124 C127 1.244 . S
O125 Co99 2.155 . S
O125 C127 1.240 . S
O126 Co99 2.093 1_565 S
O126 C107 1.249 . S
C127 O124 1.244 . S
C127 O125 1.240 . S
H128 C102 0.931 . S
H129 C111 0.931 . S
H130 C115 0.929 . S
H131 C117 0.930 . S
Co132 N136 2.148 1_655 S
Co132 N142 2.128 . S
Co132 N152 2.194 . S
Co132 O157 2.351 . S
Co132 O158 2.155 . S
Co132 O159 2.096 1_655 S
C133 N136 1.301 . S
C133 N137 1.328 . S
C133 H138 0.930 1_455 S
C134 C135 1.333 . S
C134 N136 1.317 . S
C134 H139 0.930 . S
C135 C134 1.333 . S
C135 N137 1.350 . S
C135 H161 0.931 . S
N136 Co132 2.148 1_455 S
N136 C133 1.301 . S
N136 C134 1.317 . S
N137 C133 1.328 . S
N137 C135 1.350 . S
H138 C133 0.930 1_655 S
H139 C134 0.930 . S
C140 O141 1.224 . S
C140 O159 1.247 . S
O141 C140 1.224 . S
N142 Co132 2.128 . S
N142 C143 1.355 . S
N142 C145 1.311 . S
C143 N142 1.355 . S
C143 C144 1.363 . S
C143 H155 0.929 . S
C144 C143 1.363 . S
C144 N146 1.375 . S
C144 H162 0.931 . S
C145 N142 1.311 . S
C145 N146 1.347 . S
C145 H156 0.929 . S
N146 C144 1.375 . S
N146 C145 1.347 . S
C147 C150 1.365 . S
C147 N152 1.328 . S
C147 H153 0.929 . S
C148 C149 1.362 . S
C148 C151 1.378 . S
C148 H163 0.929 . S
C149 C148 1.362 . S
C149 C150 1.366 . S
C150 C147 1.365 . S
C150 C149 1.366 . S
C150 H164 0.930 . S
C151 C148 1.378 . S
C151 N152 1.315 . S
C151 H154 0.930 . S
N152 Co132 2.194 . S
N152 C147 1.328 . S
N152 C151 1.315 . S
H153 C147 0.929 . S
H154 C151 0.930 . S
H155 C143 0.929 . S
H156 C145 0.929 . S
O157 Co132 2.351 . S
O157 C160 1.244 . S
O158 Co132 2.155 . S
O158 C160 1.240 . S
O159 Co132 2.096 1_455 S
O159 C140 1.247 . S
C160 O157 1.244 . S
C160 O158 1.240 . S
H161 C135 0.931 . S
H162 C144 0.931 . S
H163 C148 0.929 . S
H164 C150 0.930 . S
Co165 N169 2.148 . S
Co165 N175 2.128 . S
Co165 N185 2.194 . S
Co165 O190 2.351 . S
Co165 O191 2.155 . S
Co165 O192 2.096 . S
C166 N169 1.301 . S
C166 N170 1.328 . S
C166 H171 0.930 . S
C167 C168 1.333 . S
C167 N169 1.317 . S
C167 H172 0.930 . S
C168 C167 1.333 . S
C168 N170 1.350 . S
C168 H194 0.931 . S
N169 Co165 2.148 . S
N169 C166 1.301 . S
N169 C167 1.317 . S
N170 C166 1.328 . S
N170 C168 1.350 . S
H171 C166 0.930 . S
H172 C167 0.930 . S
C173 O174 1.224 . S
C173 O192 1.247 . S
O174 C173 1.224 . S
N175 Co165 2.128 . S
N175 C176 1.355 . S
N175 C178 1.311 . S
C176 N175 1.355 . S
C176 C177 1.363 . S
C176 H188 0.929 . S
C177 C176 1.363 . S
C177 N179 1.375 . S
C177 H195 0.931 . S
C178 N175 1.311 . S
C178 N179 1.347 . S
C178 H189 0.929 . S
N179 C177 1.375 . S
N179 C178 1.347 . S
C180 C183 1.365 . S
C180 N185 1.328 . S
C180 H186 0.929 . S
C181 C182 1.362 . S
C181 C184 1.378 . S
C181 H196 0.929 . S
C182 C181 1.362 . S
C182 C183 1.366 . S
C183 C180 1.365 . S
C183 C182 1.366 . S
C183 H197 0.930 . S
C184 C181 1.378 . S
C184 N185 1.315 . S
C184 H187 0.930 . S
N185 Co165 2.194 . S
N185 C180 1.328 . S
N185 C184 1.315 . S
H186 C180 0.929 . S
H187 C184 0.930 . S
H188 C176 0.929 . S
H189 C178 0.929 . S
O190 Co165 2.351 . S
O190 C193 1.244 . S
O191 Co165 2.155 . S
O191 C193 1.240 . S
O192 Co165 2.096 . S
O192 C173 1.247 . S
C193 O190 1.244 . S
C193 O191 1.240 . S
H194 C168 0.931 . S
H195 C177 0.931 . S
H196 C181 0.929 . S
H197 C183 0.930 . S
Co198 N202 2.148 . S
Co198 N208 2.128 . S
Co198 N218 2.194 . S
Co198 O223 2.351 . S
Co198 O224 2.155 . S
Co198 O225 2.096 . S
C199 N202 1.301 . S
C199 N203 1.328 . S
C199 H204 0.930 . S
C200 C201 1.333 . S
C200 N202 1.317 . S
C200 H205 0.930 . S
C201 C200 1.333 . S
C201 N203 1.350 . S
C201 H227 0.931 . S
N202 Co198 2.148 . S
N202 C199 1.301 . S
N202 C200 1.317 . S
N203 C199 1.328 . S
N203 C201 1.350 . S
H204 C199 0.930 . S
H205 C200 0.930 . S
C206 O207 1.224 . S
C206 O225 1.247 . S
O207 C206 1.224 . S
N208 Co198 2.128 . S
N208 C209 1.355 . S
N208 C211 1.311 . S
C209 N208 1.355 . S
C209 C210 1.363 . S
C209 H221 0.929 . S
C210 C209 1.363 . S
C210 N212 1.375 . S
C210 H228 0.931 . S
C211 N208 1.311 . S
C211 N212 1.347 . S
C211 H222 0.929 . S
N212 C210 1.375 . S
N212 C211 1.347 . S
C213 C216 1.365 . S
C213 N218 1.328 . S
C213 H219 0.929 . S
C214 C215 1.362 . S
C214 C217 1.378 . S
C214 H229 0.929 . S
C215 C214 1.362 . S
C215 C216 1.366 . S
C216 C213 1.365 . S
C216 C215 1.366 . S
C216 H230 0.930 . S
C217 C214 1.378 . S
C217 N218 1.315 . S
C217 H220 0.930 . S
N218 Co198 2.194 . S
N218 C213 1.328 . S
N218 C217 1.315 . S
H219 C213 0.929 . S
H220 C217 0.930 . S
H221 C209 0.929 . S
H222 C211 0.929 . S
O223 Co198 2.351 . S
O223 C226 1.244 . S
O224 Co198 2.155 . S
O224 C226 1.240 . S
O225 Co198 2.096 . S
O225 C206 1.247 . S
C226 O223 1.244 . S
C226 O224 1.240 . S
H227 C201 0.931 . S
H228 C210 0.931 . S
H229 C214 0.929 . S
H230 C216 0.930 . S
Co231 N235 2.148 . S
Co231 N241 2.128 . S
Co231 N251 2.194 . S
Co231 O256 2.351 . S
Co231 O257 2.155 . S
Co231 O258 2.096 . S
C232 N235 1.301 . S
C232 N236 1.328 . S
C232 H237 0.930 . S
C233 C234 1.333 . S
C233 N235 1.317 . S
C233 H238 0.930 . S
C234 C233 1.333 . S
C234 N236 1.350 . S
C234 H260 0.931 . S
N235 Co231 2.148 . S
N235 C232 1.301 . S
N235 C233 1.317 . S
N236 C232 1.328 . S
N236 C234 1.350 . S
H237 C232 0.930 . S
H238 C233 0.930 . S
C239 O240 1.224 . S
C239 O258 1.247 . S
O240 C239 1.224 . S
N241 Co231 2.128 . S
N241 C242 1.355 . S
N241 C244 1.311 . S
C242 N241 1.355 . S
C242 C243 1.363 . S
C242 H254 0.929 . S
C243 C242 1.363 . S
C243 N245 1.375 . S
C243 H261 0.931 . S
C244 N241 1.311 . S
C244 N245 1.347 . S
C244 H255 0.929 . S
N245 C243 1.375 . S
N245 C244 1.347 . S
C246 C249 1.365 . S
C246 N251 1.328 . S
C246 H252 0.929 . S
C247 C248 1.362 . S
C247 C250 1.378 . S
C247 H262 0.929 . S
C248 C247 1.362 . S
C248 C249 1.366 . S
C249 C246 1.365 . S
C249 C248 1.366 . S
C249 H263 0.930 . S
C250 C247 1.378 . S
C250 N251 1.315 . S
C250 H253 0.930 . S
N251 Co231 2.194 . S
N251 C246 1.328 . S
N251 C250 1.315 . S
H252 C246 0.929 . S
H253 C250 0.930 . S
H254 C242 0.929 . S
H255 C244 0.929 . S
O256 Co231 2.351 . S
O256 C259 1.244 . S
O257 Co231 2.155 . S
O257 C259 1.240 . S
O258 Co231 2.096 . S
O258 C239 1.247 . S
C259 O256 1.244 . S
C259 O257 1.240 . S
H260 C234 0.931 . S
H261 C243 0.931 . S
H262 C247 0.929 . S
H263 C249 0.930 . S
Co264 N268 2.148 . S
Co264 N274 2.128 . S
Co264 N284 2.194 . S
Co264 O289 2.351 . S
Co264 O290 2.155 . S
Co264 O291 2.096 . S
C265 N268 1.301 . S
C265 N269 1.328 . S
C265 H270 0.930 . S
C266 C267 1.333 . S
C266 N268 1.317 . S
C266 H271 0.930 . S
C267 C266 1.333 . S
C267 N269 1.350 . S
C267 H293 0.931 . S
N268 Co264 2.148 . S
N268 C265 1.301 . S
N268 C266 1.317 . S
N269 C265 1.328 . S
N269 C267 1.350 . S
H270 C265 0.930 . S
H271 C266 0.930 . S
C272 O273 1.224 . S
C272 O291 1.247 . S
O273 C272 1.224 . S
N274 Co264 2.128 . S
N274 C275 1.355 . S
N274 C277 1.311 . S
C275 N274 1.355 . S
C275 C276 1.363 . S
C275 H287 0.929 . S
C276 C275 1.363 . S
C276 N278 1.375 . S
C276 H294 0.931 . S
C277 N274 1.311 . S
C277 N278 1.347 . S
C277 H288 0.929 . S
N278 C276 1.375 . S
N278 C277 1.347 . S
C279 C282 1.365 . S
C279 N284 1.328 . S
C279 H285 0.929 . S
C280 C281 1.362 . S
C280 C283 1.378 . S
C280 H295 0.929 . S
C281 C280 1.362 . S
C281 C282 1.366 . S
C282 C279 1.365 . S
C282 C281 1.366 . S
C282 H296 0.930 . S
C283 C280 1.378 . S
C283 N284 1.315 . S
C283 H286 0.930 . S
N284 Co264 2.194 . S
N284 C279 1.328 . S
N284 C283 1.315 . S
H285 C279 0.929 . S
H286 C283 0.930 . S
H287 C275 0.929 . S
H288 C277 0.929 . S
O289 Co264 2.351 . S
O289 C292 1.244 . S
O290 Co264 2.155 . S
O290 C292 1.240 . S
O291 Co264 2.096 . S
O291 C272 1.247 . S
C292 O289 1.244 . S
C292 O290 1.240 . S
H293 C267 0.931 . S
H294 C276 0.931 . S
H295 C280 0.929 . S
H296 C282 0.930 . S
Co297 N301 2.148 . S
Co297 N307 2.128 . S
Co297 N317 2.194 . S
Co297 O322 2.351 . S
Co297 O323 2.155 . S
Co297 O324 2.096 . S
C298 N301 1.301 . S
C298 N302 1.328 . S
C298 H303 0.930 . S
C299 C300 1.333 . S
C299 N301 1.317 . S
C299 H304 0.930 . S
C300 C299 1.333 . S
C300 N302 1.350 . S
C300 H326 0.931 . S
N301 Co297 2.148 . S
N301 C298 1.301 . S
N301 C299 1.317 . S
N302 C298 1.328 . S
N302 C300 1.350 . S
H303 C298 0.930 . S
H304 C299 0.930 . S
C305 O306 1.224 . S
C305 O324 1.247 . S
O306 C305 1.224 . S
N307 Co297 2.128 . S
N307 C308 1.355 . S
N307 C310 1.311 . S
C308 N307 1.355 . S
C308 C309 1.363 . S
C308 H320 0.929 . S
C309 C308 1.363 . S
C309 N311 1.375 . S
C309 H327 0.931 . S
C310 N307 1.311 . S
C310 N311 1.347 . S
C310 H321 0.929 . S
N311 C309 1.375 . S
N311 C310 1.347 . S
C312 C315 1.365 . S
C312 N317 1.328 . S
C312 H318 0.929 . S
C313 C314 1.362 . S
C313 C316 1.378 . S
C313 H328 0.929 . S
C314 C313 1.362 . S
C314 C315 1.366 . S
C315 C312 1.365 . S
C315 C314 1.366 . S
C315 H329 0.930 . S
C316 C313 1.378 . S
C316 N317 1.315 . S
C316 H319 0.930 . S
N317 Co297 2.194 . S
N317 C312 1.328 . S
N317 C316 1.315 . S
H318 C312 0.929 . S
H319 C316 0.930 . S
H320 C308 0.929 . S
H321 C310 0.929 . S
O322 Co297 2.351 . S
O322 C325 1.244 . S
O323 Co297 2.155 . S
O323 C325 1.240 . S
O324 Co297 2.096 . S
O324 C305 1.247 . S
C325 O322 1.244 . S
C325 O323 1.240 . S
H326 C300 0.931 . S
H327 C309 0.931 . S
H328 C313 0.929 . S
H329 C315 0.930 . S
Co330 N334 2.148 . S
Co330 N340 2.128 . S
Co330 N350 2.194 . S
Co330 O355 2.351 . S
Co330 O356 2.155 . S
Co330 O357 2.096 . S
C331 N334 1.301 . S
C331 N335 1.328 . S
C331 H336 0.930 . S
C332 C333 1.333 . S
C332 N334 1.317 . S
C332 H337 0.930 . S
C333 C332 1.333 . S
C333 N335 1.350 . S
C333 H359 0.931 . S
N334 Co330 2.148 . S
N334 C331 1.301 . S
N334 C332 1.317 . S
N335 C331 1.328 . S
N335 C333 1.350 . S
H336 C331 0.930 . S
H337 C332 0.930 . S
C338 O339 1.224 . S
C338 O357 1.247 . S
O339 C338 1.224 . S
N340 Co330 2.128 . S
N340 C341 1.355 . S
N340 C343 1.311 . S
C341 N340 1.355 . S
C341 C342 1.363 . S
C341 H353 0.929 . S
C342 C341 1.363 . S
C342 N344 1.375 . S
C342 H360 0.931 . S
C343 N340 1.311 . S
C343 N344 1.347 . S
C343 H354 0.929 . S
N344 C342 1.375 . S
N344 C343 1.347 . S
C345 C348 1.365 . S
C345 N350 1.328 . S
C345 H351 0.929 . S
C346 C347 1.362 . S
C346 C349 1.378 . S
C346 H361 0.929 . S
C347 C346 1.362 . S
C347 C348 1.366 . S
C348 C345 1.365 . S
C348 C347 1.366 . S
C348 H362 0.930 . S
C349 C346 1.378 . S
C349 N350 1.315 . S
C349 H352 0.930 . S
N350 Co330 2.194 . S
N350 C345 1.328 . S
N350 C349 1.315 . S
H351 C345 0.929 . S
H352 C349 0.930 . S
H353 C341 0.929 . S
H354 C343 0.929 . S
O355 Co330 2.351 . S
O355 C358 1.244 . S
O356 Co330 2.155 . S
O356 C358 1.240 . S
O357 Co330 2.096 . S
O357 C338 1.247 . S
C358 O355 1.244 . S
C358 O356 1.240 . S
H359 C333 0.931 . S
H360 C342 0.931 . S
H361 C346 0.929 . S
H362 C348 0.930 . S
Co363 N367 2.148 . S
Co363 N373 2.128 . S
Co363 N383 2.194 . S
Co363 O388 2.351 . S
Co363 O389 2.155 . S
Co363 O390 2.096 . S
C364 N367 1.301 . S
C364 N368 1.328 . S
C364 H369 0.930 . S
C365 C366 1.333 . S
C365 N367 1.317 . S
C365 H370 0.930 . S
C366 C365 1.333 . S
C366 N368 1.350 . S
C366 H392 0.931 . S
N367 Co363 2.148 . S
N367 C364 1.301 . S
N367 C365 1.317 . S
N368 C364 1.328 . S
N368 C366 1.350 . S
H369 C364 0.930 . S
H370 C365 0.930 . S
C371 O372 1.224 . S
C371 O390 1.247 . S
O372 C371 1.224 . S
N373 Co363 2.128 . S
N373 C374 1.355 . S
N373 C376 1.311 . S
C374 N373 1.355 . S
C374 C375 1.363 . S
C374 H386 0.929 . S
C375 C374 1.363 . S
C375 N377 1.375 . S
C375 H393 0.931 . S
C376 N373 1.311 . S
C376 N377 1.347 . S
C376 H387 0.929 . S
N377 C375 1.375 . S
N377 C376 1.347 . S
C378 C381 1.365 . S
C378 N383 1.328 . S
C378 H384 0.929 . S
C379 C380 1.362 . S
C379 C382 1.378 . S
C379 H394 0.929 . S
C380 C379 1.362 . S
C380 C381 1.366 . S
C381 C378 1.365 . S
C381 C380 1.366 . S
C381 H395 0.930 . S
C382 C379 1.378 . S
C382 N383 1.315 . S
C382 H385 0.930 . S
N383 Co363 2.194 . S
N383 C378 1.328 . S
N383 C382 1.315 . S
H384 C378 0.929 . S
H385 C382 0.930 . S
H386 C374 0.929 . S
H387 C376 0.929 . S
O388 Co363 2.351 . S
O388 C391 1.244 . S
O389 Co363 2.155 . S
O389 C391 1.240 . S
O390 Co363 2.096 . S
O390 C371 1.247 . S
C391 O388 1.244 . S
C391 O389 1.240 . S
H392 C366 0.931 . S
H393 C375 0.931 . S
H394 C379 0.929 . S
H395 C381 0.930 . S
Co396 N400 2.148 . S
Co396 N406 2.128 . S
Co396 N416 2.194 . S
Co396 O421 2.351 . S
Co396 O422 2.155 . S
Co396 O423 2.096 . S
C397 N400 1.301 . S
C397 N401 1.328 . S
C397 H402 0.930 . S
C398 C399 1.333 . S
C398 N400 1.317 . S
C398 H403 0.930 . S
C399 C398 1.333 . S
C399 N401 1.350 . S
C399 H425 0.931 . S
N400 Co396 2.148 . S
N400 C397 1.301 . S
N400 C398 1.317 . S
N401 C397 1.328 . S
N401 C399 1.350 . S
H402 C397 0.930 . S
H403 C398 0.930 . S
C404 O405 1.224 . S
C404 O423 1.247 . S
O405 C404 1.224 . S
N406 Co396 2.128 . S
N406 C407 1.355 . S
N406 C409 1.311 . S
C407 N406 1.355 . S
C407 C408 1.363 . S
C407 H419 0.929 . S
C408 C407 1.363 . S
C408 N410 1.375 . S
C408 H426 0.931 . S
C409 N406 1.311 . S
C409 N410 1.347 . S
C409 H420 0.929 . S
N410 C408 1.375 . S
N410 C409 1.347 . S
C411 C414 1.365 . S
C411 N416 1.328 . S
C411 H417 0.929 . S
C412 C413 1.362 . S
C412 C415 1.378 . S
C412 H427 0.929 . S
C413 C412 1.362 . S
C413 C414 1.366 . S
C414 C411 1.365 . S
C414 C413 1.366 . S
C414 H428 0.930 . S
C415 C412 1.378 . S
C415 N416 1.315 . S
C415 H418 0.930 . S
N416 Co396 2.194 . S
N416 C411 1.328 . S
N416 C415 1.315 . S
H417 C411 0.929 . S
H418 C415 0.930 . S
H419 C407 0.929 . S
H420 C409 0.929 . S
O421 Co396 2.351 . S
O421 C424 1.244 . S
O422 Co396 2.155 . S
O422 C424 1.240 . S
O423 Co396 2.096 . S
O423 C404 1.247 . S
C424 O421 1.244 . S
C424 O422 1.240 . S
H425 C399 0.931 . S
H426 C408 0.931 . S
H427 C412 0.929 . S
H428 C414 0.930 . S
Co429 N433 2.148 . S
Co429 N439 2.128 . S
Co429 N449 2.194 . S
Co429 O454 2.351 . S
Co429 O455 2.155 . S
Co429 O456 2.096 . S
C430 N433 1.301 . S
C430 N434 1.328 . S
C430 H435 0.930 . S
C431 C432 1.333 . S
C431 N433 1.317 . S
C431 H436 0.930 . S
C432 C431 1.333 . S
C432 N434 1.350 . S
C432 H458 0.931 . S
N433 Co429 2.148 . S
N433 C430 1.301 . S
N433 C431 1.317 . S
N434 C430 1.328 . S
N434 C432 1.350 . S
H435 C430 0.930 . S
H436 C431 0.930 . S
C437 O438 1.224 . S
C437 O456 1.247 . S
O438 C437 1.224 . S
N439 Co429 2.128 . S
N439 C440 1.355 . S
N439 C442 1.311 . S
C440 N439 1.355 . S
C440 C441 1.363 . S
C440 H452 0.929 . S
C441 C440 1.363 . S
C441 N443 1.375 . S
C441 H459 0.931 . S
C442 N439 1.311 . S
C442 N443 1.347 . S
C442 H453 0.929 . S
N443 C441 1.375 . S
N443 C442 1.347 . S
C444 C447 1.365 . S
C444 N449 1.328 . S
C444 H450 0.929 . S
C445 C446 1.362 . S
C445 C448 1.378 . S
C445 H460 0.929 . S
C446 C445 1.362 . S
C446 C447 1.366 . S
C447 C444 1.365 . S
C447 C446 1.366 . S
C447 H461 0.930 . S
C448 C445 1.378 . S
C448 N449 1.315 . S
C448 H451 0.930 . S
N449 Co429 2.194 . S
N449 C444 1.328 . S
N449 C448 1.315 . S
H450 C444 0.929 . S
H451 C448 0.930 . S
H452 C440 0.929 . S
H453 C442 0.929 . S
O454 Co429 2.351 . S
O454 C457 1.244 . S
O455 Co429 2.155 . S
O455 C457 1.240 . S
O456 Co429 2.096 . S
O456 C437 1.247 . S
C457 O454 1.244 . S
C457 O455 1.240 . S
H458 C432 0.931 . S
H459 C441 0.931 . S
H460 C445 0.929 . S
H461 C447 0.930 . S
Co462 N466 2.148 . S
Co462 N472 2.128 . S
Co462 N482 2.194 . S
Co462 O487 2.351 . S
Co462 O488 2.155 . S
Co462 O489 2.096 . S
C463 N466 1.301 . S
C463 N467 1.328 . S
C463 H468 0.930 . S
C464 C465 1.333 . S
C464 N466 1.317 . S
C464 H469 0.930 . S
C465 C464 1.333 . S
C465 N467 1.350 . S
C465 H491 0.931 . S
N466 Co462 2.148 . S
N466 C463 1.301 . S
N466 C464 1.317 . S
N467 C463 1.328 . S
N467 C465 1.350 . S
H468 C463 0.930 . S
H469 C464 0.930 . S
C470 O471 1.224 . S
C470 O489 1.247 . S
O471 C470 1.224 . S
N472 Co462 2.128 . S
N472 C473 1.355 . S
N472 C475 1.311 . S
C473 N472 1.355 . S
C473 C474 1.363 . S
C473 H485 0.929 . S
C474 C473 1.363 . S
C474 N476 1.375 . S
C474 H492 0.931 . S
C475 N472 1.311 . S
C475 N476 1.347 . S
C475 H486 0.929 . S
N476 C474 1.375 . S
N476 C475 1.347 . S
C477 C480 1.365 . S
C477 N482 1.328 . S
C477 H483 0.929 . S
C478 C479 1.362 . S
C478 C481 1.378 . S
C478 H493 0.929 . S
C479 C478 1.362 . S
C479 C480 1.366 . S
C480 C477 1.365 . S
C480 C479 1.366 . S
C480 H494 0.930 . S
C481 C478 1.378 . S
C481 N482 1.315 . S
C481 H484 0.930 . S
N482 Co462 2.194 . S
N482 C477 1.328 . S
N482 C481 1.315 . S
H483 C477 0.929 . S
H484 C481 0.930 . S
H485 C473 0.929 . S
H486 C475 0.929 . S
O487 Co462 2.351 . S
O487 C490 1.244 . S
O488 Co462 2.155 . S
O488 C490 1.240 . S
O489 Co462 2.096 . S
O489 C470 1.247 . S
C490 O487 1.244 . S
C490 O488 1.240 . S
H491 C465 0.931 . S
H492 C474 0.931 . S
H493 C478 0.929 . S
H494 C480 0.930 . S
Co495 N499 2.148 . S
Co495 N505 2.128 . S
Co495 N515 2.194 . S
Co495 O520 2.351 . S
Co495 O521 2.155 . S
Co495 O522 2.096 . S
C496 N499 1.301 . S
C496 N500 1.328 . S
C496 H501 0.930 . S
C497 C498 1.333 . S
C497 N499 1.317 . S
C497 H502 0.930 . S
C498 C497 1.333 . S
C498 N500 1.350 . S
C498 H524 0.931 . S
N499 Co495 2.148 . S
N499 C496 1.301 . S
N499 C497 1.317 . S
N500 C496 1.328 . S
N500 C498 1.350 . S
H501 C496 0.930 . S
H502 C497 0.930 . S
C503 O504 1.224 . S
C503 O522 1.247 . S
O504 C503 1.224 . S
N505 Co495 2.128 . S
N505 C506 1.355 . S
N505 C508 1.311 . S
C506 N505 1.355 . S
C506 C507 1.363 . S
C506 H518 0.929 . S
C507 C506 1.363 . S
C507 N509 1.375 . S
C507 H525 0.931 . S
C508 N505 1.311 . S
C508 N509 1.347 . S
C508 H519 0.929 . S
N509 C507 1.375 . S
N509 C508 1.347 . S
C510 C513 1.365 . S
C510 N515 1.328 . S
C510 H516 0.929 . S
C511 C512 1.362 . S
C511 C514 1.378 . S
C511 H526 0.929 . S
C512 C511 1.362 . S
C512 C513 1.366 . S
C513 C510 1.365 . S
C513 C512 1.366 . S
C513 H527 0.930 . S
C514 C511 1.378 . S
C514 N515 1.315 . S
C514 H517 0.930 . S
N515 Co495 2.194 . S
N515 C510 1.328 . S
N515 C514 1.315 . S
H516 C510 0.929 . S
H517 C514 0.930 . S
H518 C506 0.929 . S
H519 C508 0.929 . S
O520 Co495 2.351 . S
O520 C523 1.244 . S
O521 Co495 2.155 . S
O521 C523 1.240 . S
O522 Co495 2.096 . S
O522 C503 1.247 . S
C523 O520 1.244 . S
C523 O521 1.240 . S
H524 C498 0.931 . S
H525 C507 0.931 . S
H526 C511 0.929 . S
H527 C513 0.930 . S
Co528 N532 2.148 . S
Co528 N538 2.128 . S
Co528 N548 2.194 . S
Co528 O553 2.351 . S
Co528 O554 2.155 . S
Co528 O555 2.096 . S
C529 N532 1.301 . S
C529 N533 1.328 . S
C529 H534 0.930 . S
C530 C531 1.333 . S
C530 N532 1.317 . S
C530 H535 0.930 . S
C531 C530 1.333 . S
C531 N533 1.350 . S
C531 H557 0.931 . S
N532 Co528 2.148 . S
N532 C529 1.301 . S
N532 C530 1.317 . S
N533 C529 1.328 . S
N533 C531 1.350 . S
H534 C529 0.930 . S
H535 C530 0.930 . S
C536 O537 1.224 . S
C536 O555 1.247 . S
O537 C536 1.224 . S
N538 Co528 2.128 . S
N538 C539 1.355 . S
N538 C541 1.311 . S
C539 N538 1.355 . S
C539 C540 1.363 . S
C539 H551 0.929 . S
C540 C539 1.363 . S
C540 N542 1.375 . S
C540 H558 0.931 . S
C541 N538 1.311 . S
C541 N542 1.347 . S
C541 H552 0.929 . S
N542 C540 1.375 . S
N542 C541 1.347 . S
C543 C546 1.365 . S
C543 N548 1.328 . S
C543 H549 0.929 . S
C544 C545 1.362 . S
C544 C547 1.378 . S
C544 H559 0.929 . S
C545 C544 1.362 . S
C545 C546 1.366 . S
C546 C543 1.365 . S
C546 C545 1.366 . S
C546 H560 0.930 . S
C547 C544 1.378 . S
C547 N548 1.315 . S
C547 H550 0.930 . S
N548 Co528 2.194 . S
N548 C543 1.328 . S
N548 C547 1.315 . S
H549 C543 0.929 . S
H550 C547 0.930 . S
H551 C539 0.929 . S
H552 C541 0.929 . S
O553 Co528 2.351 . S
O553 C556 1.244 . S
O554 Co528 2.155 . S
O554 C556 1.240 . S
O555 Co528 2.096 . S
O555 C536 1.247 . S
C556 O553 1.244 . S
C556 O554 1.240 . S
H557 C531 0.931 . S
H558 C540 0.931 . S
H559 C544 0.929 . S
H560 C546 0.930 . S
Co561 N565 2.148 . S
Co561 N571 2.128 . S
Co561 N581 2.194 . S
Co561 O586 2.351 . S
Co561 O587 2.155 . S
Co561 O588 2.096 . S
C562 N565 1.301 . S
C562 N566 1.328 . S
C562 H567 0.930 . S
C563 C564 1.333 . S
C563 N565 1.317 . S
C563 H568 0.930 . S
C564 C563 1.333 . S
C564 N566 1.350 . S
C564 H590 0.931 . S
N565 Co561 2.148 . S
N565 C562 1.301 . S
N565 C563 1.317 . S
N566 C562 1.328 . S
N566 C564 1.350 . S
H567 C562 0.930 . S
H568 C563 0.930 . S
C569 O570 1.224 . S
C569 O588 1.247 . S
O570 C569 1.224 . S
N571 Co561 2.128 . S
N571 C572 1.355 . S
N571 C574 1.311 . S
C572 N571 1.355 . S
C572 C573 1.363 . S
C572 H584 0.929 . S
C573 C572 1.363 . S
C573 N575 1.375 . S
C573 H591 0.931 . S
C574 N571 1.311 . S
C574 N575 1.347 . S
C574 H585 0.929 . S
N575 C573 1.375 . S
N575 C574 1.347 . S
C576 C579 1.365 . S
C576 N581 1.328 . S
C576 H582 0.929 . S
C577 C578 1.362 . S
C577 C580 1.378 . S
C577 H592 0.929 . S
C578 C577 1.362 . S
C578 C579 1.366 . S
C579 C576 1.365 . S
C579 C578 1.366 . S
C579 H593 0.930 . S
C580 C577 1.378 . S
C580 N581 1.315 . S
C580 H583 0.930 . S
N581 Co561 2.194 . S
N581 C576 1.328 . S
N581 C580 1.315 . S
H582 C576 0.929 . S
H583 C580 0.930 . S
H584 C572 0.929 . S
H585 C574 0.929 . S
O586 Co561 2.351 . S
O586 C589 1.244 . S
O587 Co561 2.155 . S
O587 C589 1.240 . S
O588 Co561 2.096 . S
O588 C569 1.247 . S
C589 O586 1.244 . S
C589 O587 1.240 . S
H590 C564 0.931 . S
H591 C573 0.931 . S
H592 C577 0.929 . S
H593 C579 0.930 . S
C594 C595 1.349 . S
C594 C596 1.327 . S
C594 H619 0.950 . S
C595 C594 1.349 . S
C595 C611 1.349 . S
C596 C594 1.327 . S
C596 C615 1.429 . S
C596 H620 0.950 . S
C597 C614 1.574 . S
C597 C616 1.368 . S
C597 H621 0.949 . S
H598 C602 0.949 . S
C599 C600 1.349 . S
C599 C601 1.327 . S
C599 H622 0.950 . S
C600 C599 1.349 . S
C600 C612 1.349 . S
C601 C599 1.327 . S
C601 C617 1.429 . S
C601 H623 0.950 . S
C602 H598 0.949 . S
C602 C610 1.574 . S
C602 C618 1.368 . S
H603 C611 0.950 . S
H604 C609 0.950 . S
H605 C610 0.949 . S
H606 C612 0.950 . S
H607 C613 0.950 . S
H608 C614 0.949 . S
C609 H604 0.950 . S
C609 C611 1.327 . S
C609 C615 1.429 . S
C610 C602 1.574 . S
C610 H605 0.949 . S
C610 C616 1.368 . S
C611 C595 1.349 . S
C611 H603 0.950 . S
C611 C609 1.327 . S
C612 C600 1.349 . S
C612 H606 0.950 . S
C612 C613 1.327 . S
C613 H607 0.950 . S
C613 C612 1.327 . S
C613 C617 1.429 . S
C614 C597 1.574 . S
C614 H608 0.949 . S
C614 C618 1.368 . S
C615 C596 1.429 . S
C615 C609 1.429 . S
C615 C616 1.523 . S
C616 C597 1.368 . S
C616 C610 1.368 . S
C616 C615 1.523 . S
C617 C601 1.429 . S
C617 C613 1.429 . S
C617 C618 1.523 . S
C618 C602 1.368 . S
C618 C614 1.368 . S
C618 C617 1.523 . S
H619 C594 0.950 . S
H620 C596 0.950 . S
H621 C597 0.949 . S
H622 C599 0.950 . S
H623 C601 0.950 . S
C624 C625 1.349 . S
C624 C626 1.327 . S
C624 H649 0.950 . S
C625 C624 1.349 . S
C625 C641 1.349 . S
C626 C624 1.327 . S
C626 C645 1.429 . S
C626 H650 0.950 . S
C627 C644 1.574 . S
C627 C646 1.368 . S
C627 H651 0.949 . S
H628 C632 0.949 . S
C629 C630 1.349 . S
C629 C631 1.327 . S
C629 H652 0.950 . S
C630 C629 1.349 . S
C630 C642 1.349 . S
C631 C629 1.327 . S
C631 C647 1.429 . S
C631 H653 0.950 . S
C632 H628 0.949 . S
C632 C640 1.574 . S
C632 C648 1.368 . S
H633 C641 0.950 . S
H634 C639 0.950 . S
H635 C640 0.949 . S
H636 C642 0.950 . S
H637 C643 0.950 . S
H638 C644 0.949 . S
C639 H634 0.950 . S
C639 C641 1.327 . S
C639 C645 1.429 . S
C640 C632 1.574 . S
C640 H635 0.949 . S
C640 C646 1.368 . S
C641 C625 1.349 . S
C641 H633 0.950 . S
C641 C639 1.327 . S
C642 C630 1.349 . S
C642 H636 0.950 . S
C642 C643 1.327 . S
C643 H637 0.950 . S
C643 C642 1.327 . S
C643 C647 1.429 . S
C644 C627 1.574 . S
C644 H638 0.949 . S
C644 C648 1.368 . S
C645 C626 1.429 . S
C645 C639 1.429 . S
C645 C646 1.523 . S
C646 C627 1.368 . S
C646 C640 1.368 . S
C646 C645 1.523 . S
C647 C631 1.429 . S
C647 C643 1.429 . S
C647 C648 1.523 . S
C648 C632 1.368 . S
C648 C644 1.368 . S
C648 C647 1.523 . S
H649 C624 0.950 . S
H650 C626 0.950 . S
H651 C627 0.949 . S
H652 C629 0.950 . S
H653 C631 0.950 . S
C654 C655 1.349 . S
C654 C656 1.327 . S
C654 H679 0.950 . S
C655 C654 1.349 . S
C655 C671 1.349 . S
C656 C654 1.327 . S
C656 C675 1.429 . S
C656 H680 0.950 . S
C657 C674 1.574 . S
C657 C676 1.368 . S
C657 H681 0.949 . S
H658 C662 0.949 . S
C659 C660 1.349 . S
C659 C661 1.327 . S
C659 H682 0.950 1_545 S
C660 C659 1.349 . S
C660 C672 1.349 . S
C661 C659 1.327 . S
C661 C677 1.429 . S
C661 H683 0.950 . S
C662 H658 0.949 . S
C662 C670 1.574 . S
C662 C678 1.368 . S
H663 C671 0.950 . S
H664 C669 0.950 . S
H665 C670 0.949 . S
H666 C672 0.950 . S
H667 C673 0.950 . S
H668 C674 0.949 . S
C669 H664 0.950 . S
C669 C671 1.327 . S
C669 C675 1.429 . S
C670 C662 1.574 . S
C670 H665 0.949 . S
C670 C676 1.368 . S
C671 C655 1.349 . S
C671 H663 0.950 . S
C671 C669 1.327 . S
C672 C660 1.349 . S
C672 H666 0.950 . S
C672 C673 1.327 . S
C673 H667 0.950 . S
C673 C672 1.327 . S
C673 C677 1.429 . S
C674 C657 1.574 . S
C674 H668 0.949 . S
C674 C678 1.368 . S
C675 C656 1.429 . S
C675 C669 1.429 . S
C675 C676 1.523 . S
C676 C657 1.368 . S
C676 C670 1.368 . S
C676 C675 1.523 . S
C677 C661 1.429 . S
C677 C673 1.429 . S
C677 C678 1.523 . S
C678 C662 1.368 . S
C678 C674 1.368 . S
C678 C677 1.523 . S
H679 C654 0.950 . S
H680 C656 0.950 . S
H681 C657 0.949 . S
H682 C659 0.950 1_565 S
H683 C661 0.950 . S
C684 C685 1.349 . S
C684 C686 1.327 . S
C684 H709 0.950 . S
C685 C684 1.349 . S
C685 C701 1.349 . S
C686 C684 1.327 . S
C686 C705 1.429 . S
C686 H710 0.950 . S
C687 C704 1.574 . S
C687 C706 1.368 . S
C687 H711 0.949 . S
H688 C692 0.949 . S
C689 C690 1.349 . S
C689 C691 1.327 . S
C689 H712 0.950 . S
C690 C689 1.349 . S
C690 C702 1.349 . S
C691 C689 1.327 . S
C691 C707 1.429 . S
C691 H713 0.950 . S
C692 H688 0.949 . S
C692 C700 1.574 . S
C692 C708 1.368 . S
H693 C701 0.950 . S
H694 C699 0.950 . S
H695 C700 0.949 . S
H696 C702 0.950 . S
H697 C703 0.950 . S
H698 C704 0.949 . S
C699 H694 0.950 . S
C699 C701 1.327 . S
C699 C705 1.429 . S
C700 C692 1.574 . S
C700 H695 0.949 . S
C700 C706 1.368 . S
C701 C685 1.349 . S
C701 H693 0.950 . S
C701 C699 1.327 . S
C702 C690 1.349 . S
C702 H696 0.950 . S
C702 C703 1.327 . S
C703 H697 0.950 . S
C703 C702 1.327 . S
C703 C707 1.429 . S
C704 C687 1.574 . S
C704 H698 0.949 . S
C704 C708 1.368 . S
C705 C686 1.429 . S
C705 C699 1.429 . S
C705 C706 1.523 . S
C706 C687 1.368 . S
C706 C700 1.368 . S
C706 C705 1.523 . S
C707 C691 1.429 . S
C707 C703 1.429 . S
C707 C708 1.523 . S
C708 C692 1.368 . S
C708 C704 1.368 . S
C708 C707 1.523 . S
H709 C684 0.950 . S
H710 C686 0.950 . S
H711 C687 0.949 . S
H712 C689 0.950 . S
H713 C691 0.950 . S
C714 C715 1.349 . S
C714 C716 1.327 . S
C714 H739 0.950 . S
C715 C714 1.349 . S
C715 C731 1.349 . S
C716 C714 1.327 . S
C716 C735 1.429 . S
C716 H740 0.950 . S
C717 C734 1.574 . S
C717 C736 1.368 . S
C717 H741 0.949 . S
H718 C722 0.949 . S
C719 C720 1.349 . S
C719 C721 1.327 . S
C719 H742 0.950 . S
C720 C719 1.349 . S
C720 C732 1.349 . S
C721 C719 1.327 . S
C721 C737 1.429 . S
C721 H743 0.950 . S
C722 H718 0.949 . S
C722 C730 1.574 . S
C722 C738 1.368 . S
H723 C731 0.950 . S
H724 C729 0.950 . S
H725 C730 0.949 . S
H726 C732 0.950 . S
H727 C733 0.950 . S
H728 C734 0.949 . S
C729 H724 0.950 . S
C729 C731 1.327 . S
C729 C735 1.429 . S
C730 C722 1.574 . S
C730 H725 0.949 . S
C730 C736 1.368 . S
C731 C715 1.349 . S
C731 H723 0.950 . S
C731 C729 1.327 . S
C732 C720 1.349 . S
C732 H726 0.950 . S
C732 C733 1.327 . S
C733 H727 0.950 . S
C733 C732 1.327 . S
C733 C737 1.429 . S
C734 C717 1.574 . S
C734 H728 0.949 . S
C734 C738 1.368 . S
C735 C716 1.429 . S
C735 C729 1.429 . S
C735 C736 1.523 . S
C736 C717 1.368 . S
C736 C730 1.368 . S
C736 C735 1.523 . S
C737 C721 1.429 . S
C737 C733 1.429 . S
C737 C738 1.523 . S
C738 C722 1.368 . S
C738 C734 1.368 . S
C738 C737 1.523 . S
H739 C714 0.950 . S
H740 C716 0.950 . S
H741 C717 0.949 . S
H742 C719 0.950 . S
H743 C721 0.950 . S
C744 C745 1.349 . S
C744 C746 1.327 . S
C744 H769 0.950 . S
C745 C744 1.349 . S
C745 C761 1.349 . S
C746 C744 1.327 . S
C746 C765 1.429 . S
C746 H770 0.950 . S
C747 C764 1.574 . S
C747 C766 1.368 . S
C747 H771 0.949 . S
H748 C752 0.949 . S
C749 C750 1.349 . S
C749 C751 1.327 . S
C749 H772 0.950 . S
C750 C749 1.349 . S
C750 C762 1.349 . S
C751 C749 1.327 . S
C751 C767 1.429 . S
C751 H773 0.950 . S
C752 H748 0.949 . S
C752 C760 1.574 . S
C752 C768 1.368 . S
H753 C761 0.950 . S
H754 C759 0.950 . S
H755 C760 0.949 . S
H756 C762 0.950 . S
H757 C763 0.950 . S
H758 C764 0.949 . S
C759 H754 0.950 . S
C759 C761 1.327 . S
C759 C765 1.429 . S
C760 C752 1.574 . S
C760 H755 0.949 . S
C760 C766 1.368 . S
C761 C745 1.349 . S
C761 H753 0.950 . S
C761 C759 1.327 . S
C762 C750 1.349 . S
C762 H756 0.950 . S
C762 C763 1.327 . S
C763 H757 0.950 . S
C763 C762 1.327 . S
C763 C767 1.429 . S
C764 C747 1.574 . S
C764 H758 0.949 . S
C764 C768 1.368 . S
C765 C746 1.429 . S
C765 C759 1.429 . S
C765 C766 1.523 . S
C766 C747 1.368 . S
C766 C760 1.368 . S
C766 C765 1.523 . S
C767 C751 1.429 . S
C767 C763 1.429 . S
C767 C768 1.523 . S
C768 C752 1.368 . S
C768 C764 1.368 . S
C768 C767 1.523 . S
H769 C744 0.950 . S
H770 C746 0.950 . S
H771 C747 0.949 . S
H772 C749 0.950 . S
H773 C751 0.950 . S
C774 C775 1.349 . S
C774 C776 1.327 . S
C774 H799 0.950 . S
C775 C774 1.349 . S
C775 C791 1.349 . S
C776 C774 1.327 . S
C776 C795 1.429 . S
C776 H800 0.950 . S
C777 C794 1.574 . S
C777 C796 1.368 . S
C777 H801 0.949 . S
H778 C782 0.949 . S
C779 C780 1.349 . S
C779 C781 1.327 . S
C779 H802 0.950 . S
C780 C779 1.349 . S
C780 C792 1.349 . S
C781 C779 1.327 . S
C781 C797 1.429 . S
C781 H803 0.950 . S
C782 H778 0.949 . S
C782 C790 1.574 . S
C782 C798 1.368 . S
H783 C791 0.950 . S
H784 C789 0.950 . S
H785 C790 0.949 . S
H786 C792 0.950 . S
H787 C793 0.950 . S
H788 C794 0.949 . S
C789 H784 0.950 . S
C789 C791 1.327 . S
C789 C795 1.429 . S
C790 C782 1.574 . S
C790 H785 0.949 . S
C790 C796 1.368 . S
C791 C775 1.349 . S
C791 H783 0.950 . S
C791 C789 1.327 . S
C792 C780 1.349 . S
C792 H786 0.950 . S
C792 C793 1.327 . S
C793 H787 0.950 . S
C793 C792 1.327 . S
C793 C797 1.429 . S
C794 C777 1.574 . S
C794 H788 0.949 . S
C794 C798 1.368 . S
C795 C776 1.429 . S
C795 C789 1.429 . S
C795 C796 1.523 . S
C796 C777 1.368 . S
C796 C790 1.368 . S
C796 C795 1.523 . S
C797 C781 1.429 . S
C797 C793 1.429 . S
C797 C798 1.523 . S
C798 C782 1.368 . S
C798 C794 1.368 . S
C798 C797 1.523 . S
H799 C774 0.950 . S
H800 C776 0.950 . S
H801 C777 0.949 . S
H802 C779 0.950 . S
H803 C781 0.950 . S
C804 C805 1.349 . S
C804 C806 1.327 . S
C804 H829 0.950 . S
C805 C804 1.349 . S
C805 C821 1.349 . S
C806 C804 1.327 . S
C806 C825 1.429 . S
C806 H830 0.950 . S
C807 C824 1.574 1_565 S
C807 C826 1.368 . S
C807 H831 0.949 . S
H808 C812 0.949 . S
C809 C810 1.349 . S
C809 C811 1.327 . S
C809 H832 0.950 . S
C810 C809 1.349 . S
C810 C822 1.349 . S
C811 C809 1.327 . S
C811 C827 1.429 . S
C811 H833 0.950 . S
C812 H808 0.949 . S
C812 C820 1.574 1_545 S
C812 C828 1.368 . S
H813 C821 0.950 . S
H814 C819 0.950 . S
H815 C820 0.949 . S
H816 C822 0.950 . S
H817 C823 0.950 . S
H818 C824 0.949 . S
C819 H814 0.950 . S
C819 C821 1.327 . S
C819 C825 1.429 . S
C820 C812 1.574 1_565 S
C820 H815 0.949 . S
C820 C826 1.368 . S
C821 C805 1.349 . S
C821 H813 0.950 . S
C821 C819 1.327 . S
C822 C810 1.349 . S
C822 H816 0.950 . S
C822 C823 1.327 . S
C823 H817 0.950 . S
C823 C822 1.327 . S
C823 C827 1.429 . S
C824 C807 1.574 1_545 S
C824 H818 0.949 . S
C824 C828 1.368 . S
C825 C806 1.429 . S
C825 C819 1.429 . S
C825 C826 1.523 . S
C826 C807 1.368 . S
C826 C820 1.368 . S
C826 C825 1.523 . S
C827 C811 1.429 . S
C827 C823 1.429 . S
C827 C828 1.523 . S
C828 C812 1.368 . S
C828 C824 1.368 . S
C828 C827 1.523 . S
H829 C804 0.950 . S
H830 C806 0.950 . S
H831 C807 0.949 . S
H832 C809 0.950 . S
H833 C811 0.950 . S
C834 C835 1.349 . S
C834 C836 1.327 . S
C834 H859 0.950 . S
C835 C834 1.349 . S
C835 C851 1.349 . S
C836 C834 1.327 . S
C836 C855 1.429 . S
C836 H860 0.950 . S
C837 C854 1.574 1_455 S
C837 C856 1.368 . S
C837 H861 0.949 . S
H838 C842 0.949 . S
C839 C840 1.349 . S
C839 C841 1.327 . S
C839 H862 0.950 . S
C840 C839 1.349 . S
C840 C852 1.349 . S
C841 C839 1.327 . S
C841 C857 1.429 . S
C841 H863 0.950 . S
C842 H838 0.949 . S
C842 C850 1.574 1_655 S
C842 C858 1.368 . S
H843 C851 0.950 . S
H844 C849 0.950 . S
H845 C850 0.949 . S
H846 C852 0.950 . S
H847 C853 0.950 . S
H848 C854 0.949 . S
C849 H844 0.950 . S
C849 C851 1.327 . S
C849 C855 1.429 . S
C850 C842 1.574 1_455 S
C850 H845 0.949 . S
C850 C856 1.368 . S
C851 C835 1.349 . S
C851 H843 0.950 . S
C851 C849 1.327 . S
C852 C840 1.349 . S
C852 H846 0.950 . S
C852 C853 1.327 . S
C853 H847 0.950 . S
C853 C852 1.327 . S
C853 C857 1.429 . S
C854 C837 1.574 1_655 S
C854 H848 0.949 . S
C854 C858 1.368 . S
C855 C836 1.429 . S
C855 C849 1.429 . S
C855 C856 1.523 . S
C856 C837 1.368 . S
C856 C850 1.368 . S
C856 C855 1.523 . S
C857 C841 1.429 . S
C857 C853 1.429 . S
C857 C858 1.523 . S
C858 C842 1.368 . S
C858 C854 1.368 . S
C858 C857 1.523 . S
H859 C834 0.950 . S
H860 C836 0.950 . S
H861 C837 0.949 . S
H862 C839 0.950 . S
H863 C841 0.950 . S
C864 C865 1.349 . S
C864 C866 1.327 . S
C864 H889 0.950 . S
C865 C864 1.349 . S
C865 C881 1.349 . S
C866 C864 1.327 . S
C866 C885 1.429 . S
C866 H890 0.950 . S
C867 C884 1.574 . S
C867 C886 1.368 . S
C867 H891 0.949 . S
H868 C872 0.949 . S
C869 C870 1.349 . S
C869 C871 1.327 . S
C869 H892 0.950 . S
C870 C869 1.349 . S
C870 C882 1.349 . S
C871 C869 1.327 . S
C871 C887 1.429 . S
C871 H893 0.950 . S
C872 H868 0.949 . S
C872 C880 1.574 . S
C872 C888 1.368 . S
H873 C881 0.950 . S
H874 C879 0.950 . S
H875 C880 0.949 . S
H876 C882 0.950 . S
H877 C883 0.950 . S
H878 C884 0.949 . S
C879 H874 0.950 . S
C879 C881 1.327 . S
C879 C885 1.429 . S
C880 C872 1.574 . S
C880 H875 0.949 . S
C880 C886 1.368 . S
C881 C865 1.349 . S
C881 H873 0.950 . S
C881 C879 1.327 . S
C882 C870 1.349 . S
C882 H876 0.950 . S
C882 C883 1.327 . S
C883 H877 0.950 . S
C883 C882 1.327 . S
C883 C887 1.429 . S
C884 C867 1.574 . S
C884 H878 0.949 . S
C884 C888 1.368 . S
C885 C866 1.429 . S
C885 C879 1.429 . S
C885 C886 1.523 . S
C886 C867 1.368 . S
C886 C880 1.368 . S
C886 C885 1.523 . S
C887 C871 1.429 . S
C887 C883 1.429 . S
C887 C888 1.523 . S
C888 C872 1.368 . S
C888 C884 1.368 . S
C888 C887 1.523 . S
H889 C864 0.950 . S
H890 C866 0.950 . S
H891 C867 0.949 . S
H892 C869 0.950 . S
H893 C871 0.950 . S
C894 C895 1.349 . S
C894 C896 1.327 . S
C894 H919 0.950 . S
C895 C894 1.349 . S
C895 C911 1.349 . S
C896 C894 1.327 . S
C896 C915 1.429 . S
C896 H920 0.950 . S
C897 C914 1.574 . S
C897 C916 1.368 . S
C897 H921 0.949 . S
H898 C902 0.949 . S
C899 C900 1.349 . S
C899 C901 1.327 . S
C899 H922 0.950 . S
C900 C899 1.349 . S
C900 C912 1.349 . S
C901 C899 1.327 . S
C901 C917 1.429 . S
C901 H923 0.950 . S
C902 H898 0.949 . S
C902 C910 1.574 . S
C902 C918 1.368 . S
H903 C911 0.950 . S
H904 C909 0.950 . S
H905 C910 0.949 . S
H906 C912 0.950 . S
H907 C913 0.950 . S
H908 C914 0.949 . S
C909 H904 0.950 . S
C909 C911 1.327 . S
C909 C915 1.429 . S
C910 C902 1.574 . S
C910 H905 0.949 . S
C910 C916 1.368 . S
C911 C895 1.349 . S
C911 H903 0.950 . S
C911 C909 1.327 . S
C912 C900 1.349 . S
C912 H906 0.950 . S
C912 C913 1.327 . S
C913 H907 0.950 . S
C913 C912 1.327 . S
C913 C917 1.429 . S
C914 C897 1.574 . S
C914 H908 0.949 . S
C914 C918 1.368 . S
C915 C896 1.429 . S
C915 C909 1.429 . S
C915 C916 1.523 . S
C916 C897 1.368 . S
C916 C910 1.368 . S
C916 C915 1.523 . S
C917 C901 1.429 . S
C917 C913 1.429 . S
C917 C918 1.523 . S
C918 C902 1.368 . S
C918 C914 1.368 . S
C918 C917 1.523 . S
H919 C894 0.950 . S
H920 C896 0.950 . S
H921 C897 0.949 . S
H922 C899 0.950 . S
H923 C901 0.950 . S
C924 C925 1.349 . S
C924 C926 1.327 . S
C924 H949 0.950 . S
C925 C924 1.349 . S
C925 C941 1.349 . S
C926 C924 1.327 . S
C926 C945 1.429 . S
C926 H950 0.950 . S
C927 C944 1.574 . S
C927 C946 1.368 . S
C927 H951 0.949 . S
H928 C932 0.949 . S
C929 C930 1.349 . S
C929 C931 1.327 . S
C929 H952 0.950 . S
C930 C929 1.349 . S
C930 C942 1.349 . S
C931 C929 1.327 . S
C931 C947 1.429 . S
C931 H953 0.950 . S
C932 H928 0.949 . S
C932 C940 1.574 . S
C932 C948 1.368 . S
H933 C941 0.950 . S
H934 C939 0.950 . S
H935 C940 0.949 . S
H936 C942 0.950 . S
H937 C943 0.950 . S
H938 C944 0.949 . S
C939 H934 0.950 . S
C939 C941 1.327 . S
C939 C945 1.429 . S
C940 C932 1.574 . S
C940 H935 0.949 . S
C940 C946 1.368 . S
C941 C925 1.349 . S
C941 H933 0.950 . S
C941 C939 1.327 . S
C942 C930 1.349 . S
C942 H936 0.950 . S
C942 C943 1.327 . S
C943 H937 0.950 . S
C943 C942 1.327 . S
C943 C947 1.429 . S
C944 C927 1.574 . S
C944 H938 0.949 . S
C944 C948 1.368 . S
C945 C926 1.429 . S
C945 C939 1.429 . S
C945 C946 1.523 . S
C946 C927 1.368 . S
C946 C940 1.368 . S
C946 C945 1.523 . S
C947 C931 1.429 . S
C947 C943 1.429 . S
C947 C948 1.523 . S
C948 C932 1.368 . S
C948 C944 1.368 . S
C948 C947 1.523 . S
H949 C924 0.950 . S
H950 C926 0.950 . S
H951 C927 0.949 . S
H952 C929 0.950 . S
H953 C931 0.950 . S
C954 C955 1.349 . S
C954 C956 1.327 . S
C954 H979 0.950 . S
C955 C954 1.349 . S
C955 C971 1.349 . S
C956 C954 1.327 . S
C956 C975 1.429 . S
C956 H980 0.950 . S
C957 C974 1.574 . S
C957 C976 1.368 . S
C957 H981 0.949 . S
H958 C962 0.949 . S
C959 C960 1.349 . S
C959 C961 1.327 . S
C959 H982 0.950 . S
C960 C959 1.349 . S
C960 C972 1.349 . S
C961 C959 1.327 . S
C961 C977 1.429 . S
C961 H983 0.950 . S
C962 H958 0.949 . S
C962 C970 1.574 . S
C962 C978 1.368 . S
H963 C971 0.950 . S
H964 C969 0.950 . S
H965 C970 0.949 . S
H966 C972 0.950 . S
H967 C973 0.950 . S
H968 C974 0.949 . S
C969 H964 0.950 . S
C969 C971 1.327 . S
C969 C975 1.429 . S
C970 C962 1.574 . S
C970 H965 0.949 . S
C970 C976 1.368 . S
C971 C955 1.349 . S
C971 H963 0.950 . S
C971 C969 1.327 . S
C972 C960 1.349 . S
C972 H966 0.950 . S
C972 C973 1.327 . S
C973 H967 0.950 . S
C973 C972 1.327 . S
C973 C977 1.429 . S
C974 C957 1.574 . S
C974 H968 0.949 . S
C974 C978 1.368 . S
C975 C956 1.429 . S
C975 C969 1.429 . S
C975 C976 1.523 . S
C976 C957 1.368 . S
C976 C970 1.368 . S
C976 C975 1.523 . S
C977 C961 1.429 . S
C977 C973 1.429 . S
C977 C978 1.523 . S
C978 C962 1.368 . S
C978 C974 1.368 . S
C978 C977 1.523 . S
H979 C954 0.950 . S
H980 C956 0.950 . S
H981 C957 0.949 . S
H982 C959 0.950 . S
H983 C961 0.950 . S
C984 C985 1.349 . S
C984 C986 1.327 . S
C984 H1009 0.950 . S
C985 C984 1.349 . S
C985 C1001 1.349 . S
C986 C984 1.327 . S
C986 C1005 1.429 . S
C986 H1010 0.950 . S
C987 C1004 1.574 . S
C987 C1006 1.368 . S
C987 H1011 0.949 . S
H988 C992 0.949 . S
C989 C990 1.349 . S
C989 C991 1.327 . S
C989 H1012 0.950 . S
C990 C989 1.349 . S
C990 C1002 1.349 . S
C991 C989 1.327 . S
C991 C1007 1.429 . S
C991 H1013 0.950 . S
C992 H988 0.949 . S
C992 C1000 1.574 . S
C992 C1008 1.368 . S
H993 C1001 0.950 . S
H994 C999 0.950 . S
H995 C1000 0.949 . S
H996 C1002 0.950 . S
H997 C1003 0.950 . S
H998 C1004 0.949 . S
C999 H994 0.950 . S
C999 C1001 1.327 . S
C999 C1005 1.429 . S
C1000 C992 1.574 . S
C1000 H995 0.949 . S
C1000 C1006 1.368 . S
C1001 C985 1.349 . S
C1001 H993 0.950 . S
C1001 C999 1.327 . S
C1002 C990 1.349 . S
C1002 H996 0.950 . S
C1002 C1003 1.327 . S
C1003 H997 0.950 . S
C1003 C1002 1.327 . S
C1003 C1007 1.429 . S
C1004 C987 1.574 . S
C1004 H998 0.949 . S
C1004 C1008 1.368 . S
C1005 C986 1.429 . S
C1005 C999 1.429 . S
C1005 C1006 1.523 . S
C1006 C987 1.368 . S
C1006 C1000 1.368 . S
C1006 C1005 1.523 . S
C1007 C991 1.429 . S
C1007 C1003 1.429 . S
C1007 C1008 1.523 . S
C1008 C992 1.368 . S
C1008 C1004 1.368 . S
C1008 C1007 1.523 . S
H1009 C984 0.950 . S
H1010 C986 0.950 . S
H1011 C987 0.949 . S
H1012 C989 0.950 . S
H1013 C991 0.950 . S
C1014 C1015 1.349 . S
C1014 C1016 1.327 . S
C1014 H1039 0.950 . S
C1015 C1014 1.349 . S
C1015 C1031 1.349 . S
C1016 C1014 1.327 . S
C1016 C1035 1.429 . S
C1016 H1040 0.950 . S
C1017 C1034 1.574 . S
C1017 C1036 1.368 . S
C1017 H1041 0.949 . S
H1018 C1022 0.949 . S
C1019 C1020 1.349 . S
C1019 C1021 1.327 . S
C1019 H1042 0.950 . S
C1020 C1019 1.349 . S
C1020 C1032 1.349 . S
C1021 C1019 1.327 . S
C1021 C1037 1.429 . S
C1021 H1043 0.950 . S
C1022 H1018 0.949 . S
C1022 C1030 1.574 . S
C1022 C1038 1.368 . S
H1023 C1031 0.950 . S
H1024 C1029 0.950 . S
H1025 C1030 0.949 . S
H1026 C1032 0.950 . S
H1027 C1033 0.950 . S
H1028 C1034 0.949 . S
C1029 H1024 0.950 . S
C1029 C1031 1.327 . S
C1029 C1035 1.429 . S
C1030 C1022 1.574 . S
C1030 H1025 0.949 . S
C1030 C1036 1.368 . S
C1031 C1015 1.349 . S
C1031 H1023 0.950 . S
C1031 C1029 1.327 . S
C1032 C1020 1.349 . S
C1032 H1026 0.950 . S
C1032 C1033 1.327 . S
C1033 H1027 0.950 . S
C1033 C1032 1.327 . S
C1033 C1037 1.429 . S
C1034 C1017 1.574 . S
C1034 H1028 0.949 . S
C1034 C1038 1.368 . S
C1035 C1016 1.429 . S
C1035 C1029 1.429 . S
C1035 C1036 1.523 . S
C1036 C1017 1.368 . S
C1036 C1030 1.368 . S
C1036 C1035 1.523 . S
C1037 C1021 1.429 . S
C1037 C1033 1.429 . S
C1037 C1038 1.523 . S
C1038 C1022 1.368 . S
C1038 C1034 1.368 . S
C1038 C1037 1.523 . S
H1039 C1014 0.950 . S
H1040 C1016 0.950 . S
H1041 C1017 0.949 . S
H1042 C1019 0.950 . S
H1043 C1021 0.950 . S
C1044 C1045 1.349 . S
C1044 C1046 1.327 . S
C1044 H1069 0.950 . S
C1045 C1044 1.349 . S
C1045 C1061 1.349 . S
C1046 C1044 1.327 . S
C1046 C1065 1.429 . S
C1046 H1070 0.950 . S
C1047 C1064 1.556 1_655 S
C1047 C1066 1.380 . S
C1047 H1071 0.954 . S
H1048 C1052 0.949 . S
C1049 C1050 1.349 . S
C1049 C1051 1.327 . S
C1049 H1072 0.950 . S
C1050 C1049 1.349 . S
C1050 C1062 1.349 . S
C1051 C1049 1.327 . S
C1051 C1067 1.429 . S
C1051 H1073 0.950 . S
C1052 H1048 0.949 . S
C1052 C1060 1.574 1_455 S
C1052 C1068 1.368 . S
H1053 C1061 0.950 . S
H1054 C1059 0.950 . S
H1055 C1060 0.949 . S
H1056 C1062 0.950 . S
H1057 C1063 0.950 . S
H1058 C1064 0.949 . S
C1059 H1054 0.950 . S
C1059 C1061 1.327 . S
C1059 C1065 1.429 . S
C1060 C1052 1.574 1_655 S
C1060 H1055 0.949 . S
C1060 C1066 1.368 1_556 S
C1061 C1045 1.349 . S
C1061 H1053 0.950 . S
C1061 C1059 1.327 . S
C1062 C1050 1.349 . S
C1062 H1056 0.950 . S
C1062 C1063 1.327 . S
C1063 H1057 0.950 . S
C1063 C1062 1.327 . S
C1063 C1067 1.429 . S
C1064 C1047 1.556 1_455 S
C1064 H1058 0.949 . S
C1064 C1068 1.368 1_554 S
C1065 C1046 1.429 . S
C1065 C1059 1.429 . S
C1065 C1066 1.523 . S
C1066 C1047 1.380 . S
C1066 C1060 1.368 1_554 S
C1066 C1065 1.523 . S
C1067 C1051 1.429 . S
C1067 C1063 1.429 . S
C1067 C1068 1.523 . S
C1068 C1052 1.368 . S
C1068 C1064 1.368 1_556 S
C1068 C1067 1.523 . S
H1069 C1044 0.950 . S
H1070 C1046 0.950 . S
H1071 C1047 0.954 . S
H1072 C1049 0.950 . S
H1073 C1051 0.950 . S
C1074 C1075 1.349 . S
C1074 C1076 1.327 . S
C1074 H1099 0.950 . S
C1075 C1074 1.349 . S
C1075 C1091 1.349 . S
C1076 C1074 1.327 . S
C1076 C1095 1.429 . S
C1076 H1100 0.950 . S
C1077 C1094 1.574 . S
C1077 C1096 1.368 . S
C1077 H1101 0.949 . S
H1078 C1082 0.949 . S
C1079 C1080 1.349 . S
C1079 C1081 1.327 . S
C1079 H1102 0.950 . S
C1080 C1079 1.349 . S
C1080 C1092 1.349 . S
C1081 C1079 1.327 . S
C1081 C1097 1.429 . S
C1081 H1103 0.950 . S
C1082 H1078 0.949 . S
C1082 C1090 1.574 . S
C1082 C1098 1.368 . S
H1083 C1091 0.950 . S
H1084 C1089 0.950 . S
H1085 C1090 0.949 . S
H1086 C1092 0.950 . S
H1087 C1093 0.950 . S
H1088 C1094 0.949 . S
C1089 H1084 0.950 . S
C1089 C1091 1.327 . S
C1089 C1095 1.429 . S
C1090 C1082 1.574 . S
C1090 H1085 0.949 . S
C1090 C1096 1.368 1_554 S
C1091 C1075 1.349 . S
C1091 H1083 0.950 . S
C1091 C1089 1.327 . S
C1092 C1080 1.349 . S
C1092 H1086 0.950 . S
C1092 C1093 1.327 . S
C1093 H1087 0.950 . S
C1093 C1092 1.327 . S
C1093 C1097 1.429 . S
C1094 C1077 1.574 . S
C1094 H1088 0.949 . S
C1094 C1098 1.368 1_556 S
C1095 C1076 1.429 . S
C1095 C1089 1.429 . S
C1095 C1096 1.523 . S
C1096 C1077 1.368 . S
C1096 C1090 1.368 1_556 S
C1096 C1095 1.523 . S
C1097 C1081 1.429 . S
C1097 C1093 1.429 . S
C1097 C1098 1.523 . S
C1098 C1082 1.368 . S
C1098 C1094 1.368 1_554 S
C1098 C1097 1.523 . S
H1099 C1074 0.950 . S
H1100 C1076 0.950 . S
H1101 C1077 0.949 . S
H1102 C1079 0.950 . S
H1103 C1081 0.950 . S
C1104 C1105 1.349 . S
C1104 C1106 1.327 . S
C1104 H1129 0.950 . S
C1105 C1104 1.349 . S
C1105 C1121 1.349 . S
C1106 C1104 1.327 . S
C1106 C1125 1.429 . S
C1106 H1130 0.950 . S
C1107 C1124 1.548 1_545 S
C1107 C1126 1.368 1_556 S
C1107 H1131 0.949 . S
H1108 C1112 0.949 . S
C1109 C1110 1.349 . S
C1109 C1111 1.327 . S
C1109 H1132 0.950 . S
C1110 C1109 1.349 . S
C1110 C1122 1.349 . S
C1111 C1109 1.327 . S
C1111 C1127 1.429 . S
C1111 H1133 0.950 . S
C1112 H1108 0.949 . S
C1112 C1120 1.574 1_565 S
C1112 C1128 1.368 1_554 S
H1113 C1121 0.950 . S
H1114 C1119 0.950 . S
H1115 C1120 0.949 . S
H1116 C1122 0.950 . S
H1117 C1123 0.950 . S
H1118 C1124 0.958 . S
C1119 H1114 0.950 . S
C1119 C1121 1.327 . S
C1119 C1125 1.429 . S
C1120 C1112 1.574 1_545 S
C1120 H1115 0.949 . S
C1120 C1126 1.368 . S
C1121 C1105 1.349 . S
C1121 H1113 0.950 . S
C1121 C1119 1.327 . S
C1122 C1110 1.349 . S
C1122 H1116 0.950 . S
C1122 C1123 1.327 . S
C1123 H1117 0.950 . S
C1123 C1122 1.327 . S
C1123 C1127 1.429 . S
C1124 C1107 1.548 1_565 S
C1124 H1118 0.958 . S
C1124 C1128 1.386 . S
C1125 C1106 1.429 . S
C1125 C1119 1.429 . S
C1125 C1126 1.523 . S
C1126 C1107 1.368 1_554 S
C1126 C1120 1.368 . S
C1126 C1125 1.523 . S
C1127 C1111 1.429 . S
C1127 C1123 1.429 . S
C1127 C1128 1.523 . S
C1128 C1112 1.368 1_556 S
C1128 C1124 1.386 . S
C1128 C1127 1.523 . S
H1129 C1104 0.950 . S
H1130 C1106 0.950 . S
H1131 C1107 0.949 . S
H1132 C1109 0.950 . S
H1133 C1111 0.950 . S
C1134 C1135 1.349 . S
C1134 C1136 1.327 . S
C1134 H1159 0.948 1_455 S
C1135 C1134 1.349 . S
C1135 C1151 1.349 . S
C1136 C1134 1.327 . S
C1136 C1155 1.429 . S
C1136 H1160 0.950 1_455 S
C1137 C1154 1.574 1_554 S
C1137 C1156 1.368 . S
C1137 H1161 0.949 . S
H1138 C1142 0.949 . S
C1139 C1140 1.349 . S
C1139 C1141 1.346 . S
C1139 H1162 0.950 1_655 S
C1140 C1139 1.349 . S
C1140 C1152 1.349 . S
C1141 C1139 1.346 . S
C1141 C1157 1.452 . S
C1141 H1163 0.909 1_655 S
C1142 H1138 0.949 . S
C1142 C1150 1.574 1_556 S
C1142 C1158 1.368 . S
H1143 C1151 0.950 . S
H1144 C1149 0.950 . S
H1145 C1150 0.949 . S
H1146 C1152 0.950 . S
H1147 C1153 0.950 . S
H1148 C1154 0.949 . S
C1149 H1144 0.950 . S
C1149 C1151 1.327 . S
C1149 C1155 1.429 . S
C1150 C1142 1.574 1_554 S
C1150 H1145 0.949 . S
C1150 C1156 1.368 1_655 S
C1151 C1135 1.349 . S
C1151 H1143 0.950 . S
C1151 C1149 1.327 . S
C1152 C1140 1.349 . S
C1152 H1146 0.950 . S
C1152 C1153 1.327 . S
C1153 H1147 0.950 . S
C1153 C1152 1.327 . S
C1153 C1157 1.429 . S
C1154 C1137 1.574 1_556 S
C1154 H1148 0.949 . S
C1154 C1158 1.368 1_455 S
C1155 C1136 1.429 . S
C1155 C1149 1.429 . S
C1155 C1156 1.523 . S
C1156 C1137 1.368 . S
C1156 C1150 1.368 1_455 S
C1156 C1155 1.523 . S
C1157 C1141 1.452 . S
C1157 C1153 1.429 . S
C1157 C1158 1.523 . S
C1158 C1142 1.368 . S
C1158 C1154 1.368 1_655 S
C1158 C1157 1.523 . S
H1159 C1134 0.948 1_655 S
H1160 C1136 0.950 1_655 S
H1161 C1137 0.949 . S
H1162 C1139 0.950 1_455 S
H1163 C1141 0.909 1_455 S
C1164 C1165 1.349 . S
C1164 C1166 1.327 . S
C1164 H1189 0.950 . S
C1165 C1164 1.349 . S
C1165 C1181 1.349 . S
C1166 C1164 1.327 . S
C1166 C1185 1.429 . S
C1166 H1190 0.950 . S
C1167 C1184 1.574 1_556 S
C1167 C1186 1.368 . S
C1167 H1191 0.949 . S
H1168 C1172 0.949 . S
C1169 C1170 1.349 . S
C1169 C1171 1.327 . S
C1169 H1192 0.950 . S
C1170 C1169 1.349 . S
C1170 C1182 1.349 . S
C1171 C1169 1.327 . S
C1171 C1187 1.429 . S
C1171 H1193 0.950 . S
C1172 H1168 0.949 . S
C1172 C1180 1.574 1_554 S
C1172 C1188 1.368 . S
H1173 C1181 0.950 . S
H1174 C1179 0.950 . S
H1175 C1180 0.949 . S
H1176 C1182 0.950 . S
H1177 C1183 0.950 . S
H1178 C1184 0.949 . S
C1179 H1174 0.950 . S
C1179 C1181 1.327 . S
C1179 C1185 1.429 . S
C1180 C1172 1.574 1_556 S
C1180 H1175 0.949 . S
C1180 C1186 1.368 . S
C1181 C1165 1.349 . S
C1181 H1173 0.950 . S
C1181 C1179 1.327 . S
C1182 C1170 1.349 . S
C1182 H1176 0.950 . S
C1182 C1183 1.327 . S
C1183 H1177 0.950 . S
C1183 C1182 1.327 . S
C1183 C1187 1.429 . S
C1184 C1167 1.574 1_554 S
C1184 H1178 0.949 . S
C1184 C1188 1.368 . S
C1185 C1166 1.429 . S
C1185 C1179 1.429 . S
C1185 C1186 1.523 . S
C1186 C1167 1.368 . S
C1186 C1180 1.368 . S
C1186 C1185 1.523 . S
C1187 C1171 1.429 . S
C1187 C1183 1.429 . S
C1187 C1188 1.523 . S
C1188 C1172 1.368 . S
C1188 C1184 1.368 . S
C1188 C1187 1.523 . S
H1189 C1164 0.950 . S
H1190 C1166 0.950 . S
H1191 C1167 0.949 . S
H1192 C1169 0.950 . S
H1193 C1171 0.950 . S
C1194 C1195 1.349 . S
C1194 C1196 1.327 . S
C1194 H1219 0.950 . S
C1195 C1194 1.349 . S
C1195 C1211 1.349 . S
C1196 C1194 1.327 . S
C1196 C1215 1.429 . S
C1196 H1220 0.950 . S
C1197 C1214 1.574 1_556 S
C1197 C1216 1.368 1_565 S
C1197 H1221 0.949 . S
H1198 C1202 0.949 . S
C1199 C1200 1.349 . S
C1199 C1201 1.327 . S
C1199 H1222 0.950 . S
C1200 C1199 1.349 . S
C1200 C1212 1.349 . S
C1201 C1199 1.327 . S
C1201 C1217 1.429 . S
C1201 H1223 0.950 . S
C1202 H1198 0.949 . S
C1202 C1210 1.574 1_554 S
C1202 C1218 1.368 1_545 S
H1203 C1211 0.950 . S
H1204 C1209 0.950 1_565 S
H1205 C1210 0.949 . S
H1206 C1212 0.950 . S
H1207 C1213 0.950 1_545 S
H1208 C1214 0.949 . S
C1209 H1204 0.950 1_545 S
C1209 C1211 1.327 . S
C1209 C1215 1.429 . S
C1210 C1202 1.574 1_556 S
C1210 H1205 0.949 . S
C1210 C1216 1.368 . S
C1211 C1195 1.349 . S
C1211 H1203 0.950 . S
C1211 C1209 1.327 . S
C1212 C1200 1.349 . S
C1212 H1206 0.950 . S
C1212 C1213 1.327 . S
C1213 H1207 0.950 1_565 S
C1213 C1212 1.327 . S
C1213 C1217 1.429 . S
C1214 C1197 1.574 1_554 S
C1214 H1208 0.949 . S
C1214 C1218 1.368 . S
C1215 C1196 1.429 . S
C1215 C1209 1.429 . S
C1215 C1216 1.523 . S
C1216 C1197 1.368 1_545 S
C1216 C1210 1.368 . S
C1216 C1215 1.523 . S
C1217 C1201 1.429 . S
C1217 C1213 1.429 . S
C1217 C1218 1.523 . S
C1218 C1202 1.368 1_565 S
C1218 C1214 1.368 . S
C1218 C1217 1.523 . S
H1219 C1194 0.950 . S
H1220 C1196 0.950 . S
H1221 C1197 0.949 . S
H1222 C1199 0.950 . S
H1223 C1201 0.950 . S
C1224 C1225 1.349 . S
C1224 C1226 1.327 . S
C1224 H1249 0.950 . S
C1225 C1224 1.349 . S
C1225 C1241 1.349 . S
C1226 C1224 1.327 . S
C1226 C1245 1.429 . S
C1226 H1250 0.950 . S
C1227 C1244 1.574 . S
C1227 C1246 1.368 . S
C1227 H1251 0.949 . S
H1228 C1232 0.949 . S
C1229 C1230 1.349 . S
C1229 C1231 1.327 . S
C1229 H1252 0.950 . S
C1230 C1229 1.349 . S
C1230 C1242 1.349 . S
C1231 C1229 1.327 . S
C1231 C1247 1.429 . S
C1231 H1253 0.950 . S
C1232 H1228 0.949 . S
C1232 C1240 1.574 . S
C1232 C1248 1.368 . S
H1233 C1241 0.950 . S
H1234 C1239 0.950 . S
H1235 C1240 0.949 . S
H1236 C1242 0.950 . S
H1237 C1243 0.950 . S
H1238 C1244 0.949 . S
C1239 H1234 0.950 . S
C1239 C1241 1.327 . S
C1239 C1245 1.429 . S
C1240 C1232 1.574 . S
C1240 H1235 0.949 . S
C1240 C1246 1.368 . S
C1241 C1225 1.349 . S
C1241 H1233 0.950 . S
C1241 C1239 1.327 . S
C1242 C1230 1.349 . S
C1242 H1236 0.950 . S
C1242 C1243 1.327 . S
C1243 H1237 0.950 . S
C1243 C1242 1.327 . S
C1243 C1247 1.429 . S
C1244 C1227 1.574 . S
C1244 H1238 0.949 . S
C1244 C1248 1.368 . S
C1245 C1226 1.429 . S
C1245 C1239 1.429 . S
C1245 C1246 1.523 . S
C1246 C1227 1.368 . S
C1246 C1240 1.368 . S
C1246 C1245 1.523 . S
C1247 C1231 1.429 . S
C1247 C1243 1.429 . S
C1247 C1248 1.523 . S
C1248 C1232 1.368 . S
C1248 C1244 1.368 . S
C1248 C1247 1.523 . S
H1249 C1224 0.950 . S
H1250 C1226 0.950 . S
H1251 C1227 0.949 . S
H1252 C1229 0.950 . S
H1253 C1231 0.950 . S
C1254 C1255 1.349 . S
C1254 C1256 1.327 . S
C1254 H1279 0.950 . S
C1255 C1254 1.349 . S
C1255 C1271 1.349 . S
C1256 C1254 1.327 . S
C1256 C1275 1.429 . S
C1256 H1280 0.950 . S
C1257 C1274 1.574 . S
C1257 C1276 1.368 . S
C1257 H1281 0.949 . S
H1258 C1262 0.949 . S
C1259 C1260 1.349 . S
C1259 C1261 1.327 . S
C1259 H1282 0.950 . S
C1260 C1259 1.349 . S
C1260 C1272 1.349 . S
C1261 C1259 1.327 . S
C1261 C1277 1.429 . S
C1261 H1283 0.950 . S
C1262 H1258 0.949 . S
C1262 C1270 1.574 . S
C1262 C1278 1.368 . S
H1263 C1271 0.950 . S
H1264 C1269 0.950 . S
H1265 C1270 0.949 . S
H1266 C1272 0.950 . S
H1267 C1273 0.950 . S
H1268 C1274 0.949 . S
C1269 H1264 0.950 . S
C1269 C1271 1.327 . S
C1269 C1275 1.429 . S
C1270 C1262 1.574 . S
C1270 H1265 0.949 . S
C1270 C1276 1.368 . S
C1271 C1255 1.349 . S
C1271 H1263 0.950 . S
C1271 C1269 1.327 . S
C1272 C1260 1.349 . S
C1272 H1266 0.950 . S
C1272 C1273 1.327 . S
C1273 H1267 0.950 . S
C1273 C1272 1.327 . S
C1273 C1277 1.429 . S
C1274 C1257 1.574 . S
C1274 H1268 0.949 . S
C1274 C1278 1.368 . S
C1275 C1256 1.429 . S
C1275 C1269 1.429 . S
C1275 C1276 1.523 . S
C1276 C1257 1.368 . S
C1276 C1270 1.368 . S
C1276 C1275 1.523 . S
C1277 C1261 1.429 . S
C1277 C1273 1.429 . S
C1277 C1278 1.523 . S
C1278 C1262 1.368 . S
C1278 C1274 1.368 . S
C1278 C1277 1.523 . S
H1279 C1254 0.950 . S
H1280 C1256 0.950 . S
H1281 C1257 0.949 . S
H1282 C1259 0.950 . S
H1283 C1261 0.950 . S
C1284 C1285 1.349 . S
C1284 C1286 1.327 . S
C1284 H1309 0.950 . S
C1285 C1284 1.349 . S
C1285 C1301 1.349 . S
C1286 C1284 1.327 . S
C1286 C1305 1.429 . S
C1286 H1310 0.950 . S
C1287 C1304 1.574 . S
C1287 C1306 1.368 . S
C1287 H1311 0.949 . S
H1288 C1292 0.949 . S
C1289 C1290 1.349 . S
C1289 C1291 1.327 . S
C1289 H1312 0.950 . S
C1290 C1289 1.349 . S
C1290 C1302 1.349 . S
C1291 C1289 1.327 . S
C1291 C1307 1.429 . S
C1291 H1313 0.950 . S
C1292 H1288 0.949 . S
C1292 C1300 1.574 . S
C1292 C1308 1.368 . S
H1293 C1301 0.950 . S
H1294 C1299 0.950 . S
H1295 C1300 0.949 . S
H1296 C1302 0.950 . S
H1297 C1303 0.950 . S
H1298 C1304 0.949 . S
C1299 H1294 0.950 . S
C1299 C1301 1.327 . S
C1299 C1305 1.429 . S
C1300 C1292 1.574 . S
C1300 H1295 0.949 . S
C1300 C1306 1.368 . S
C1301 C1285 1.349 . S
C1301 H1293 0.950 . S
C1301 C1299 1.327 . S
C1302 C1290 1.349 . S
C1302 H1296 0.950 . S
C1302 C1303 1.327 . S
C1303 H1297 0.950 . S
C1303 C1302 1.327 . S
C1303 C1307 1.429 . S
C1304 C1287 1.574 . S
C1304 H1298 0.949 . S
C1304 C1308 1.368 . S
C1305 C1286 1.429 . S
C1305 C1299 1.429 . S
C1305 C1306 1.523 . S
C1306 C1287 1.368 . S
C1306 C1300 1.368 . S
C1306 C1305 1.523 . S
C1307 C1291 1.429 . S
C1307 C1303 1.429 . S
C1307 C1308 1.523 . S
C1308 C1292 1.368 . S
C1308 C1304 1.368 . S
C1308 C1307 1.523 . S
H1309 C1284 0.950 . S
H1310 C1286 0.950 . S
H1311 C1287 0.949 . S
H1312 C1289 0.950 . S
H1313 C1291 0.950 . S
C1314 C1315 1.349 . S
C1314 C1316 1.327 . S
C1314 H1339 0.950 . S
C1315 C1314 1.349 . S
C1315 C1331 1.349 . S
C1316 C1314 1.327 . S
C1316 C1335 1.429 . S
C1316 H1340 0.950 . S
C1317 C1334 1.574 . S
C1317 C1336 1.368 . S
C1317 H1341 0.949 . S
H1318 C1322 0.949 . S
C1319 C1320 1.349 . S
C1319 C1321 1.327 . S
C1319 H1342 0.950 . S
C1320 C1319 1.349 . S
C1320 C1332 1.349 . S
C1321 C1319 1.327 . S
C1321 C1337 1.429 . S
C1321 H1343 0.950 . S
C1322 H1318 0.949 . S
C1322 C1330 1.574 . S
C1322 C1338 1.368 . S
H1323 C1331 0.950 . S
H1324 C1329 0.950 . S
H1325 C1330 0.949 . S
H1326 C1332 0.950 . S
H1327 C1333 0.950 . S
H1328 C1334 0.949 . S
C1329 H1324 0.950 . S
C1329 C1331 1.327 . S
C1329 C1335 1.429 . S
C1330 C1322 1.574 . S
C1330 H1325 0.949 . S
C1330 C1336 1.368 . S
C1331 C1315 1.349 . S
C1331 H1323 0.950 . S
C1331 C1329 1.327 . S
C1332 C1320 1.349 . S
C1332 H1326 0.950 . S
C1332 C1333 1.327 . S
C1333 H1327 0.950 . S
C1333 C1332 1.327 . S
C1333 C1337 1.429 . S
C1334 C1317 1.574 . S
C1334 H1328 0.949 . S
C1334 C1338 1.368 . S
C1335 C1316 1.429 . S
C1335 C1329 1.429 . S
C1335 C1336 1.523 . S
C1336 C1317 1.368 . S
C1336 C1330 1.368 . S
C1336 C1335 1.523 . S
C1337 C1321 1.429 . S
C1337 C1333 1.429 . S
C1337 C1338 1.523 . S
C1338 C1322 1.368 . S
C1338 C1334 1.368 . S
C1338 C1337 1.523 . S
H1339 C1314 0.950 . S
H1340 C1316 0.950 . S
H1341 C1317 0.949 . S
H1342 C1319 0.950 . S
H1343 C1321 0.950 . S
C1344 C1345 1.349 . S
C1344 C1346 1.327 . S
C1344 H1369 0.950 . S
C1345 C1344 1.349 . S
C1345 C1361 1.349 . S
C1346 C1344 1.327 . S
C1346 C1365 1.429 . S
C1346 H1370 0.950 . S
C1347 C1364 1.574 . S
C1347 C1366 1.368 . S
C1347 H1371 0.949 . S
H1348 C1352 0.949 . S
C1349 C1350 1.349 . S
C1349 C1351 1.327 . S
C1349 H1372 0.950 . S
C1350 C1349 1.349 . S
C1350 C1362 1.349 . S
C1351 C1349 1.327 . S
C1351 C1367 1.429 . S
C1351 H1373 0.950 . S
C1352 H1348 0.949 . S
C1352 C1360 1.574 . S
C1352 C1368 1.368 . S
H1353 C1361 0.950 . S
H1354 C1359 0.950 . S
H1355 C1360 0.949 . S
H1356 C1362 0.950 . S
H1357 C1363 0.950 . S
H1358 C1364 0.949 . S
C1359 H1354 0.950 . S
C1359 C1361 1.327 . S
C1359 C1365 1.429 . S
C1360 C1352 1.574 . S
C1360 H1355 0.949 . S
C1360 C1366 1.368 . S
C1361 C1345 1.349 . S
C1361 H1353 0.950 . S
C1361 C1359 1.327 . S
C1362 C1350 1.349 . S
C1362 H1356 0.950 . S
C1362 C1363 1.327 . S
C1363 H1357 0.950 . S
C1363 C1362 1.327 . S
C1363 C1367 1.429 . S
C1364 C1347 1.574 . S
C1364 H1358 0.949 . S
C1364 C1368 1.368 . S
C1365 C1346 1.429 . S
C1365 C1359 1.429 . S
C1365 C1366 1.523 . S
C1366 C1347 1.368 . S
C1366 C1360 1.368 . S
C1366 C1365 1.523 . S
C1367 C1351 1.429 . S
C1367 C1363 1.429 . S
C1367 C1368 1.523 . S
C1368 C1352 1.368 . S
C1368 C1364 1.368 . S
C1368 C1367 1.523 . S
H1369 C1344 0.950 . S
H1370 C1346 0.950 . S
H1371 C1347 0.949 . S
H1372 C1349 0.950 . S
H1373 C1351 0.950 . S
C1374 C1375 1.349 . S
C1374 C1376 1.327 . S
C1374 H1399 0.950 . S
C1375 C1374 1.349 . S
C1375 C1391 1.349 . S
C1376 C1374 1.327 . S
C1376 C1395 1.429 . S
C1376 H1400 0.950 . S
C1377 C1394 1.574 . S
C1377 C1396 1.368 . S
C1377 H1401 0.949 . S
H1378 C1382 0.949 . S
C1379 C1380 1.349 . S
C1379 C1381 1.327 . S
C1379 H1402 0.950 . S
C1380 C1379 1.349 . S
C1380 C1392 1.349 . S
C1381 C1379 1.327 . S
C1381 C1397 1.429 . S
C1381 H1403 0.950 . S
C1382 H1378 0.949 . S
C1382 C1390 1.574 . S
C1382 C1398 1.368 . S
H1383 C1391 0.950 . S
H1384 C1389 0.950 . S
H1385 C1390 0.949 . S
H1386 C1392 0.950 . S
H1387 C1393 0.950 . S
H1388 C1394 0.949 . S
C1389 H1384 0.950 . S
C1389 C1391 1.327 . S
C1389 C1395 1.429 . S
C1390 C1382 1.574 . S
C1390 H1385 0.949 . S
C1390 C1396 1.368 . S
C1391 C1375 1.349 . S
C1391 H1383 0.950 . S
C1391 C1389 1.327 . S
C1392 C1380 1.349 . S
C1392 H1386 0.950 . S
C1392 C1393 1.327 . S
C1393 H1387 0.950 . S
C1393 C1392 1.327 . S
C1393 C1397 1.429 . S
C1394 C1377 1.574 . S
C1394 H1388 0.949 . S
C1394 C1398 1.368 . S
C1395 C1376 1.429 . S
C1395 C1389 1.429 . S
C1395 C1396 1.523 . S
C1396 C1377 1.368 . S
C1396 C1390 1.368 . S
C1396 C1395 1.523 . S
C1397 C1381 1.429 . S
C1397 C1393 1.429 . S
C1397 C1398 1.523 . S
C1398 C1382 1.368 . S
C1398 C1394 1.368 . S
C1398 C1397 1.523 . S
H1399 C1374 0.950 . S
H1400 C1376 0.950 . S
H1401 C1377 0.949 . S
H1402 C1379 0.950 . S
H1403 C1381 0.950 . S
C1404 C1405 1.349 . S
C1404 C1406 1.327 . S
C1404 H1429 0.950 . S
C1405 C1404 1.349 . S
C1405 C1421 1.349 . S
C1406 C1404 1.327 . S
C1406 C1425 1.429 . S
C1406 H1430 0.950 . S
C1407 C1424 1.574 . S
C1407 C1426 1.368 . S
C1407 H1431 0.949 . S
H1408 C1412 0.949 . S
C1409 C1410 1.349 . S
C1409 C1411 1.327 . S
C1409 H1432 0.950 . S
C1410 C1409 1.349 . S
C1410 C1422 1.349 . S
C1411 C1409 1.327 . S
C1411 C1427 1.429 . S
C1411 H1433 0.950 . S
C1412 H1408 0.949 . S
C1412 C1420 1.574 . S
C1412 C1428 1.368 . S
H1413 C1421 0.950 . S
H1414 C1419 0.950 . S
H1415 C1420 0.949 . S
H1416 C1422 0.950 . S
H1417 C1423 0.950 . S
H1418 C1424 0.949 . S
C1419 H1414 0.950 . S
C1419 C1421 1.327 . S
C1419 C1425 1.429 . S
C1420 C1412 1.574 . S
C1420 H1415 0.949 . S
C1420 C1426 1.368 . S
C1421 C1405 1.349 . S
C1421 H1413 0.950 . S
C1421 C1419 1.327 . S
C1422 C1410 1.349 . S
C1422 H1416 0.950 . S
C1422 C1423 1.327 . S
C1423 H1417 0.950 . S
C1423 C1422 1.327 . S
C1423 C1427 1.429 . S
C1424 C1407 1.574 . S
C1424 H1418 0.949 . S
C1424 C1428 1.368 . S
C1425 C1406 1.429 . S
C1425 C1419 1.429 . S
C1425 C1426 1.523 . S
C1426 C1407 1.368 . S
C1426 C1420 1.368 . S
C1426 C1425 1.523 . S
C1427 C1411 1.429 . S
C1427 C1423 1.429 . S
C1427 C1428 1.523 . S
C1428 C1412 1.368 . S
C1428 C1424 1.368 . S
C1428 C1427 1.523 . S
H1429 C1404 0.950 . S
H1430 C1406 0.950 . S
H1431 C1407 0.949 . S
H1432 C1409 0.950 . S
H1433 C1411 0.950 . S
C1434 C1435 1.349 . S
C1434 C1436 1.327 . S
C1434 H1459 0.950 . S
C1435 C1434 1.349 . S
C1435 C1451 1.349 . S
C1436 C1434 1.327 . S
C1436 C1455 1.429 . S
C1436 H1460 0.950 . S
C1437 C1454 1.574 . S
C1437 C1456 1.368 . S
C1437 H1461 0.949 . S
H1438 C1442 0.949 . S
C1439 C1440 1.349 . S
C1439 C1441 1.327 . S
C1439 H1462 0.950 . S
C1440 C1439 1.349 . S
C1440 C1452 1.349 . S
C1441 C1439 1.327 . S
C1441 C1457 1.429 . S
C1441 H1463 0.950 . S
C1442 H1438 0.949 . S
C1442 C1450 1.574 . S
C1442 C1458 1.368 . S
H1443 C1451 0.950 . S
H1444 C1449 0.950 . S
H1445 C1450 0.949 . S
H1446 C1452 0.950 . S
H1447 C1453 0.950 . S
H1448 C1454 0.974 . S
C1449 H1444 0.950 . S
C1449 C1451 1.327 . S
C1449 C1455 1.429 . S
C1450 C1442 1.574 . S
C1450 H1445 0.949 . S
C1450 C1456 1.368 . S
C1451 C1435 1.349 . S
C1451 H1443 0.950 . S
C1451 C1449 1.327 . S
C1452 C1440 1.349 . S
C1452 H1446 0.950 . S
C1452 C1453 1.327 . S
C1453 H1447 0.950 . S
C1453 C1452 1.327 . S
C1453 C1457 1.429 . S
C1454 C1437 1.574 . S
C1454 H1448 0.974 . S
C1454 C1458 1.368 . S
C1455 C1436 1.429 . S
C1455 C1449 1.429 . S
C1455 C1456 1.523 . S
C1456 C1437 1.368 . S
C1456 C1450 1.368 . S
C1456 C1455 1.523 . S
C1457 C1441 1.429 . S
C1457 C1453 1.429 . S
C1457 C1458 1.523 1_565 S
C1458 C1442 1.368 . S
C1458 C1454 1.368 . S
C1458 C1457 1.523 1_545 S
H1459 C1434 0.950 . S
H1460 C1436 0.950 . S
H1461 C1437 0.949 . S
H1462 C1439 0.950 . S
H1463 C1441 0.950 . S
C1464 C1465 1.349 . S
C1464 C1466 1.327 . S
C1464 H1489 0.950 . S
C1465 C1464 1.349 . S
C1465 C1481 1.349 . S
C1466 C1464 1.327 . S
C1466 C1485 1.429 . S
C1466 H1490 0.950 . S
C1467 C1484 1.574 . S
C1467 C1486 1.368 . S
C1467 H1491 0.949 . S
H1468 C1472 0.954 . S
C1469 C1470 1.349 . S
C1469 C1471 1.327 . S
C1469 H1492 0.950 . S
C1470 C1469 1.349 . S
C1470 C1482 1.349 . S
C1471 C1469 1.327 . S
C1471 C1487 1.429 . S
C1471 H1493 0.950 . S
C1472 H1468 0.954 . S
C1472 C1480 1.574 . S
C1472 C1488 1.390 . S
H1473 C1481 0.950 . S
H1474 C1479 0.950 . S
H1475 C1480 0.949 . S
H1476 C1482 0.950 . S
H1477 C1483 0.950 . S
H1478 C1484 0.949 . S
C1479 H1474 0.950 . S
C1479 C1481 1.327 . S
C1479 C1485 1.429 . S
C1480 C1472 1.574 . S
C1480 H1475 0.949 . S
C1480 C1486 1.368 . S
C1481 C1465 1.349 . S
C1481 H1473 0.950 . S
C1481 C1479 1.327 . S
C1482 C1470 1.349 . S
C1482 H1476 0.950 . S
C1482 C1483 1.327 . S
C1483 H1477 0.950 . S
C1483 C1482 1.327 . S
C1483 C1487 1.429 . S
C1484 C1467 1.574 . S
C1484 H1478 0.949 . S
C1484 C1488 1.375 . S
C1485 C1466 1.429 . S
C1485 C1479 1.429 . S
C1485 C1486 1.523 . S
C1486 C1467 1.368 . S
C1486 C1480 1.368 . S
C1486 C1485 1.523 . S
C1487 C1471 1.429 . S
C1487 C1483 1.429 . S
C1487 C1488 1.487 1_455 S
C1488 C1472 1.390 . S
C1488 C1484 1.375 . S
C1488 C1487 1.487 1_655 S
H1489 C1464 0.950 . S
H1490 C1466 0.950 . S
H1491 C1467 0.949 . S
H1492 C1469 0.950 . S
H1493 C1471 0.950 . S
C1494 C1495 1.349 . S
C1494 C1496 1.327 . S
C1494 H1519 0.950 . S
C1495 C1494 1.349 . S
C1495 C1511 1.349 . S
C1496 C1494 1.327 . S
C1496 C1515 1.429 . S
C1496 H1520 0.950 . S
C1497 C1514 1.574 . S
C1497 C1516 1.368 . S
C1497 H1521 0.949 . S
H1498 C1502 0.949 . S
C1499 C1500 1.349 . S
C1499 C1501 1.327 . S
C1499 H1522 0.950 . S
C1500 C1499 1.349 . S
C1500 C1512 1.349 . S
C1501 C1499 1.327 . S
C1501 C1517 1.429 . S
C1501 H1523 0.950 . S
C1502 H1498 0.949 . S
C1502 C1510 1.574 . S
C1502 C1518 1.368 . S
H1503 C1511 0.950 . S
H1504 C1509 0.950 . S
H1505 C1510 0.949 . S
H1506 C1512 0.950 . S
H1507 C1513 0.950 . S
H1508 C1514 0.949 . S
C1509 H1504 0.950 . S
C1509 C1511 1.327 . S
C1509 C1515 1.429 . S
C1510 C1502 1.574 . S
C1510 H1505 0.949 . S
C1510 C1516 1.368 . S
C1511 C1495 1.349 . S
C1511 H1503 0.950 . S
C1511 C1509 1.327 . S
C1512 C1500 1.349 . S
C1512 H1506 0.950 . S
C1512 C1513 1.327 . S
C1513 H1507 0.950 . S
C1513 C1512 1.327 . S
C1513 C1517 1.429 . S
C1514 C1497 1.574 . S
C1514 H1508 0.949 . S
C1514 C1518 1.368 . S
C1515 C1496 1.429 . S
C1515 C1509 1.429 . S
C1515 C1516 1.523 . S
C1516 C1497 1.368 . S
C1516 C1510 1.368 . S
C1516 C1515 1.523 . S
C1517 C1501 1.429 . S
C1517 C1513 1.429 . S
C1517 C1518 1.523 . S
C1518 C1502 1.368 . S
C1518 C1514 1.368 . S
C1518 C1517 1.523 . S
H1519 C1494 0.950 . S
H1520 C1496 0.950 . S
H1521 C1497 0.949 . S
H1522 C1499 0.950 . S
H1523 C1501 0.950 . S
C1524 C1525 1.349 . S
C1524 C1526 1.327 . S
C1524 H1549 0.950 . S
C1525 C1524 1.349 . S
C1525 C1541 1.349 . S
C1526 C1524 1.327 . S
C1526 C1545 1.429 . S
C1526 H1550 0.950 . S
C1527 C1544 1.574 . S
C1527 C1546 1.390 . S
C1527 H1551 0.949 1_565 S
H1528 C1532 0.949 . S
C1529 C1530 1.349 . S
C1529 C1531 1.327 . S
C1529 H1552 0.950 . S
C1530 C1529 1.349 . S
C1530 C1542 1.349 . S
C1531 C1529 1.327 . S
C1531 C1547 1.429 . S
C1531 H1553 0.950 . S
C1532 H1528 0.949 . S
C1532 C1540 1.574 . S
C1532 C1548 1.368 . S
H1533 C1541 0.950 . S
H1534 C1539 0.950 . S
H1535 C1540 0.949 . S
H1536 C1542 0.950 . S
H1537 C1543 0.950 . S
H1538 C1544 0.949 . S
C1539 H1534 0.950 . S
C1539 C1541 1.327 . S
C1539 C1545 1.429 . S
C1540 C1532 1.574 . S
C1540 H1535 0.949 . S
C1540 C1546 1.376 . S
C1541 C1525 1.349 . S
C1541 H1533 0.950 . S
C1541 C1539 1.327 . S
C1542 C1530 1.349 . S
C1542 H1536 0.950 . S
C1542 C1543 1.327 . S
C1543 H1537 0.950 . S
C1543 C1542 1.327 . S
C1543 C1547 1.429 . S
C1544 C1527 1.574 . S
C1544 H1538 0.949 . S
C1544 C1548 1.368 . S
C1545 C1526 1.429 . S
C1545 C1539 1.429 . S
C1545 C1546 1.487 1_545 S
C1546 C1527 1.390 . S
C1546 C1540 1.376 . S
C1546 C1545 1.487 1_565 S
C1547 C1531 1.429 . S
C1547 C1543 1.429 . S
C1547 C1548 1.523 . S
C1548 C1532 1.368 . S
C1548 C1544 1.368 . S
C1548 C1547 1.523 . S
H1549 C1524 0.950 . S
H1550 C1526 0.950 . S
H1551 C1527 0.949 1_545 S
H1552 C1529 0.950 . S
H1553 C1531 0.950 . S
C1554 C1555 1.349 . S
C1554 C1556 1.327 . S
C1554 H1579 0.950 . S
C1555 C1554 1.349 . S
C1555 C1571 1.349 . S
C1556 C1554 1.327 . S
C1556 C1575 1.429 . S
C1556 H1580 0.950 . S
C1557 C1574 1.574 . S
C1557 C1576 1.368 . S
C1557 H1581 0.949 . S
H1558 C1562 0.949 . S
C1559 C1560 1.349 . S
C1559 C1561 1.327 . S
C1559 H1582 0.950 . S
C1560 C1559 1.349 . S
C1560 C1572 1.349 . S
C1561 C1559 1.327 . S
C1561 C1577 1.429 . S
C1561 H1583 0.950 . S
C1562 H1558 0.949 . S
C1562 C1570 1.574 . S
C1562 C1578 1.368 . S
H1563 C1571 0.950 . S
H1564 C1569 0.950 . S
H1565 C1570 0.949 . S
H1566 C1572 0.950 . S
H1567 C1573 0.950 . S
H1568 C1574 0.974 . S
C1569 H1564 0.950 . S
C1569 C1571 1.327 . S
C1569 C1575 1.429 . S
C1570 C1562 1.574 . S
C1570 H1565 0.949 . S
C1570 C1576 1.368 . S
C1571 C1555 1.349 . S
C1571 H1563 0.950 . S
C1571 C1569 1.327 . S
C1572 C1560 1.349 . S
C1572 H1566 0.950 . S
C1572 C1573 1.327 . S
C1573 H1567 0.950 . S
C1573 C1572 1.327 . S
C1573 C1577 1.429 . S
C1574 C1557 1.574 . S
C1574 H1568 0.974 . S
C1574 C1578 1.368 . S
C1575 C1556 1.429 . S
C1575 C1569 1.429 . S
C1575 C1576 1.523 . S
C1576 C1557 1.368 . S
C1576 C1570 1.368 . S
C1576 C1575 1.523 . S
C1577 C1561 1.429 . S
C1577 C1573 1.429 . S
C1577 C1578 1.523 1_655 S
C1578 C1562 1.368 . S
C1578 C1574 1.368 . S
C1578 C1577 1.523 1_455 S
H1579 C1554 0.950 . S
H1580 C1556 0.950 . S
H1581 C1557 0.949 . S
H1582 C1559 0.950 . S
H1583 C1561 0.950 . S
C1584 C1585 1.349 . S
C1584 C1586 1.327 . S
C1584 H1609 0.950 . S
C1585 C1584 1.349 . S
C1585 C1601 1.349 . S
C1586 C1584 1.327 . S
C1586 C1605 1.429 . S
C1586 H1610 0.950 . S
C1587 C1604 1.574 . S
C1587 C1606 1.368 . S
C1587 H1611 0.949 . S
H1588 C1592 0.949 . S
C1589 C1590 1.349 . S
C1589 C1591 1.327 . S
C1589 H1612 0.950 . S
C1590 C1589 1.349 . S
C1590 C1602 1.349 . S
C1591 C1589 1.327 . S
C1591 C1607 1.429 . S
C1591 H1613 0.950 . S
C1592 H1588 0.949 . S
C1592 C1600 1.574 . S
C1592 C1608 1.368 . S
H1593 C1601 0.950 . S
H1594 C1599 0.950 . S
H1595 C1600 0.949 . S
H1596 C1602 0.950 . S
H1597 C1603 0.950 . S
H1598 C1604 0.949 . S
C1599 H1594 0.950 . S
C1599 C1601 1.327 . S
C1599 C1605 1.429 . S
C1600 C1592 1.574 . S
C1600 H1595 0.949 . S
C1600 C1606 1.368 . S
C1601 C1585 1.349 . S
C1601 H1593 0.950 . S
C1601 C1599 1.327 . S
C1602 C1590 1.349 . S
C1602 H1596 0.950 . S
C1602 C1603 1.327 . S
C1603 H1597 0.950 . S
C1603 C1602 1.327 . S
C1603 C1607 1.429 . S
C1604 C1587 1.574 . S
C1604 H1598 0.949 . S
C1604 C1608 1.368 . S
C1605 C1586 1.429 . S
C1605 C1599 1.429 . S
C1605 C1606 1.523 . S
C1606 C1587 1.368 . S
C1606 C1600 1.368 . S
C1606 C1605 1.523 . S
C1607 C1591 1.429 . S
C1607 C1603 1.429 . S
C1607 C1608 1.523 . S
C1608 C1592 1.368 . S
C1608 C1604 1.368 . S
C1608 C1607 1.523 . S
H1609 C1584 0.950 . S
H1610 C1586 0.950 . S
H1611 C1587 0.949 . S
H1612 C1589 0.950 . S
H1613 C1591 0.950 . S
C1614 C1615 1.349 . S
C1614 C1616 1.327 . S
C1614 H1639 0.950 . S
C1615 C1614 1.349 . S
C1615 C1631 1.349 . S
C1616 C1614 1.327 . S
C1616 C1635 1.429 . S
C1616 H1640 0.950 . S
C1617 C1634 1.574 . S
C1617 C1636 1.368 . S
C1617 H1641 0.949 . S
H1618 C1622 0.949 . S
C1619 C1620 1.349 . S
C1619 C1621 1.327 . S
C1619 H1642 0.950 . S
C1620 C1619 1.349 . S
C1620 C1632 1.349 . S
C1621 C1619 1.327 . S
C1621 C1637 1.429 . S
C1621 H1643 0.950 . S
C1622 H1618 0.949 . S
C1622 C1630 1.574 . S
C1622 C1638 1.368 . S
H1623 C1631 0.950 . S
H1624 C1629 0.950 . S
H1625 C1630 0.949 . S
H1626 C1632 0.950 . S
H1627 C1633 0.950 . S
H1628 C1634 0.949 . S
C1629 H1624 0.950 . S
C1629 C1631 1.327 . S
C1629 C1635 1.429 . S
C1630 C1622 1.574 . S
C1630 H1625 0.949 . S
C1630 C1636 1.368 . S
C1631 C1615 1.349 . S
C1631 H1623 0.950 . S
C1631 C1629 1.327 . S
C1632 C1620 1.349 . S
C1632 H1626 0.950 . S
C1632 C1633 1.327 . S
C1633 H1627 0.950 . S
C1633 C1632 1.327 . S
C1633 C1637 1.429 . S
C1634 C1617 1.574 . S
C1634 H1628 0.949 . S
C1634 C1638 1.368 . S
C1635 C1616 1.429 . S
C1635 C1629 1.429 . S
C1635 C1636 1.523 . S
C1636 C1617 1.368 . S
C1636 C1630 1.368 . S
C1636 C1635 1.523 . S
C1637 C1621 1.429 . S
C1637 C1633 1.429 . S
C1637 C1638 1.523 . S
C1638 C1622 1.368 . S
C1638 C1634 1.368 . S
C1638 C1637 1.523 . S
H1639 C1614 0.950 . S
H1640 C1616 0.950 . S
H1641 C1617 0.949 . S
H1642 C1619 0.950 . S
H1643 C1621 0.950 . S
C1644 C1645 1.349 . S
C1644 C1646 1.327 . S
C1644 H1669 0.950 . S
C1645 C1644 1.349 . S
C1645 C1661 1.349 . S
C1646 C1644 1.327 . S
C1646 C1665 1.429 . S
C1646 H1670 0.950 . S
C1647 C1664 1.574 . S
C1647 C1666 1.368 . S
C1647 H1671 0.949 . S
H1648 C1652 0.949 . S
C1649 C1650 1.349 . S
C1649 C1651 1.327 . S
C1649 H1672 0.950 . S
C1650 C1649 1.349 . S
C1650 C1662 1.349 . S
C1651 C1649 1.327 . S
C1651 C1667 1.429 . S
C1651 H1673 0.950 . S
C1652 H1648 0.949 . S
C1652 C1660 1.574 . S
C1652 C1668 1.368 . S
H1653 C1661 0.950 . S
H1654 C1659 0.950 . S
H1655 C1660 0.949 . S
H1656 C1662 0.950 . S
H1657 C1663 0.950 . S
H1658 C1664 0.949 . S
C1659 H1654 0.950 . S
C1659 C1661 1.327 . S
C1659 C1665 1.429 . S
C1660 C1652 1.574 . S
C1660 H1655 0.949 . S
C1660 C1666 1.368 . S
C1661 C1645 1.349 . S
C1661 H1653 0.950 . S
C1661 C1659 1.327 . S
C1662 C1650 1.349 . S
C1662 H1656 0.950 . S
C1662 C1663 1.327 . S
C1663 H1657 0.950 . S
C1663 C1662 1.327 . S
C1663 C1667 1.429 . S
C1664 C1647 1.574 . S
C1664 H1658 0.949 . S
C1664 C1668 1.368 . S
C1665 C1646 1.429 . S
C1665 C1659 1.429 . S
C1665 C1666 1.523 . S
C1666 C1647 1.368 . S
C1666 C1660 1.368 . S
C1666 C1665 1.523 . S
C1667 C1651 1.429 . S
C1667 C1663 1.429 . S
C1667 C1668 1.523 . S
C1668 C1652 1.368 . S
C1668 C1664 1.368 . S
C1668 C1667 1.523 . S
H1669 C1644 0.950 . S
H1670 C1646 0.950 . S
H1671 C1647 0.949 . S
H1672 C1649 0.950 . S
H1673 C1651 0.950 . S
C1674 C1675 1.349 . S
C1674 C1676 1.327 . S
C1674 H1699 0.950 . S
C1675 C1674 1.349 . S
C1675 C1691 1.349 . S
C1676 C1674 1.327 . S
C1676 C1695 1.429 . S
C1676 H1700 0.950 . S
C1677 C1694 1.574 . S
C1677 C1696 1.368 . S
C1677 H1701 0.949 . S
H1678 C1682 0.949 . S
C1679 C1680 1.349 . S
C1679 C1681 1.327 . S
C1679 H1702 0.950 . S
C1680 C1679 1.349 . S
C1680 C1692 1.349 . S
C1681 C1679 1.327 . S
C1681 C1697 1.429 . S
C1681 H1703 0.950 . S
C1682 H1678 0.949 . S
C1682 C1690 1.574 . S
C1682 C1698 1.368 . S
H1683 C1691 0.950 . S
H1684 C1689 0.950 . S
H1685 C1690 0.949 . S
H1686 C1692 0.950 . S
H1687 C1693 0.950 . S
H1688 C1694 0.949 . S
C1689 H1684 0.950 . S
C1689 C1691 1.327 . S
C1689 C1695 1.429 . S
C1690 C1682 1.574 . S
C1690 H1685 0.949 . S
C1690 C1696 1.368 . S
C1691 C1675 1.349 . S
C1691 H1683 0.950 . S
C1691 C1689 1.327 . S
C1692 C1680 1.349 . S
C1692 H1686 0.950 . S
C1692 C1693 1.327 . S
C1693 H1687 0.950 . S
C1693 C1692 1.327 . S
C1693 C1697 1.429 . S
C1694 C1677 1.574 . S
C1694 H1688 0.949 . S
C1694 C1698 1.368 . S
C1695 C1676 1.429 . S
C1695 C1689 1.429 . S
C1695 C1696 1.523 . S
C1696 C1677 1.368 . S
C1696 C1690 1.368 . S
C1696 C1695 1.523 . S
C1697 C1681 1.429 . S
C1697 C1693 1.429 . S
C1697 C1698 1.523 . S
C1698 C1682 1.368 . S
C1698 C1694 1.368 . S
C1698 C1697 1.523 . S
H1699 C1674 0.950 . S
H1700 C1676 0.950 . S
H1701 C1677 0.949 . S
H1702 C1679 0.950 . S
H1703 C1681 0.950 . S
C1704 C1705 1.349 . S
C1704 C1706 1.327 . S
C1704 H1729 0.950 . S
C1705 C1704 1.349 . S
C1705 C1721 1.349 . S
C1706 C1704 1.327 . S
C1706 C1725 1.429 . S
C1706 H1730 0.950 . S
C1707 C1724 1.574 . S
C1707 C1726 1.368 . S
C1707 H1731 0.949 . S
H1708 C1712 0.949 . S
C1709 C1710 1.349 . S
C1709 C1711 1.327 . S
C1709 H1732 0.950 . S
C1710 C1709 1.349 . S
C1710 C1722 1.349 . S
C1711 C1709 1.327 . S
C1711 C1727 1.429 . S
C1711 H1733 0.950 . S
C1712 H1708 0.949 . S
C1712 C1720 1.574 . S
C1712 C1728 1.368 . S
H1713 C1721 0.950 . S
H1714 C1719 0.950 . S
H1715 C1720 0.949 . S
H1716 C1722 0.950 . S
H1717 C1723 0.950 . S
H1718 C1724 0.949 . S
C1719 H1714 0.950 . S
C1719 C1721 1.327 . S
C1719 C1725 1.429 . S
C1720 C1712 1.574 . S
C1720 H1715 0.949 . S
C1720 C1726 1.368 . S
C1721 C1705 1.349 . S
C1721 H1713 0.950 . S
C1721 C1719 1.327 . S
C1722 C1710 1.349 . S
C1722 H1716 0.950 . S
C1722 C1723 1.327 . S
C1723 H1717 0.950 . S
C1723 C1722 1.327 . S
C1723 C1727 1.429 . S
C1724 C1707 1.574 . S
C1724 H1718 0.949 . S
C1724 C1728 1.368 . S
C1725 C1706 1.429 . S
C1725 C1719 1.429 . S
C1725 C1726 1.523 . S
C1726 C1707 1.368 . S
C1726 C1720 1.368 . S
C1726 C1725 1.523 . S
C1727 C1711 1.429 . S
C1727 C1723 1.429 . S
C1727 C1728 1.523 . S
C1728 C1712 1.368 . S
C1728 C1724 1.368 . S
C1728 C1727 1.523 . S
H1729 C1704 0.950 . S
H1730 C1706 0.950 . S
H1731 C1707 0.949 . S
H1732 C1709 0.950 . S
H1733 C1711 0.950 . S
C1734 C1735 1.349 . S
C1734 C1736 1.327 . S
C1734 H1759 0.950 . S
C1735 C1734 1.349 . S
C1735 C1751 1.349 . S
C1736 C1734 1.327 . S
C1736 C1755 1.429 . S
C1736 H1760 0.950 . S
C1737 C1754 1.574 . S
C1737 C1756 1.368 . S
C1737 H1761 0.949 . S
H1738 C1742 0.949 . S
C1739 C1740 1.349 . S
C1739 C1741 1.327 . S
C1739 H1762 0.950 . S
C1740 C1739 1.349 . S
C1740 C1752 1.349 . S
C1741 C1739 1.327 . S
C1741 C1757 1.429 . S
C1741 H1763 0.950 . S
C1742 H1738 0.949 . S
C1742 C1750 1.574 . S
C1742 C1758 1.368 . S
H1743 C1751 0.950 . S
H1744 C1749 0.950 . S
H1745 C1750 0.949 . S
H1746 C1752 0.950 . S
H1747 C1753 0.950 . S
H1748 C1754 0.949 . S
C1749 H1744 0.950 . S
C1749 C1751 1.327 . S
C1749 C1755 1.429 . S
C1750 C1742 1.574 . S
C1750 H1745 0.949 . S
C1750 C1756 1.368 . S
C1751 C1735 1.349 . S
C1751 H1743 0.950 . S
C1751 C1749 1.327 . S
C1752 C1740 1.349 . S
C1752 H1746 0.950 . S
C1752 C1753 1.327 . S
C1753 H1747 0.950 . S
C1753 C1752 1.327 . S
C1753 C1757 1.429 . S
C1754 C1737 1.574 . S
C1754 H1748 0.949 . S
C1754 C1758 1.368 . S
C1755 C1736 1.429 . S
C1755 C1749 1.429 . S
C1755 C1756 1.523 . S
C1756 C1737 1.368 . S
C1756 C1750 1.368 . S
C1756 C1755 1.523 . S
C1757 C1741 1.429 . S
C1757 C1753 1.429 . S
C1757 C1758 1.523 . S
C1758 C1742 1.368 . S
C1758 C1754 1.368 . S
C1758 C1757 1.523 . S
H1759 C1734 0.950 . S
H1760 C1736 0.950 . S
H1761 C1737 0.949 . S
H1762 C1739 0.950 . S
H1763 C1741 0.950 . S
C1764 C1765 1.349 . S
C1764 C1766 1.327 . S
C1764 H1789 0.950 . S
C1765 C1764 1.349 . S
C1765 C1781 1.349 . S
C1766 C1764 1.327 . S
C1766 C1785 1.429 . S
C1766 H1790 0.950 . S
C1767 C1784 1.574 . S
C1767 C1786 1.368 . S
C1767 H1791 0.949 . S
H1768 C1772 0.949 . S
C1769 C1770 1.349 . S
C1769 C1771 1.327 . S
C1769 H1792 0.950 . S
C1770 C1769 1.349 . S
C1770 C1782 1.349 . S
C1771 C1769 1.327 . S
C1771 C1787 1.429 . S
C1771 H1793 0.950 . S
C1772 H1768 0.949 . S
C1772 C1780 1.574 . S
C1772 C1788 1.368 . S
H1773 C1781 0.950 . S
H1774 C1779 0.950 . S
H1775 C1780 0.949 . S
H1776 C1782 0.950 . S
H1777 C1783 0.950 . S
H1778 C1784 0.949 . S
C1779 H1774 0.950 . S
C1779 C1781 1.327 . S
C1779 C1785 1.429 . S
C1780 C1772 1.574 . S
C1780 H1775 0.949 . S
C1780 C1786 1.368 . S
C1781 C1765 1.349 . S
C1781 H1773 0.950 . S
C1781 C1779 1.327 . S
C1782 C1770 1.349 . S
C1782 H1776 0.950 . S
C1782 C1783 1.327 . S
C1783 H1777 0.950 . S
C1783 C1782 1.327 . S
C1783 C1787 1.429 . S
C1784 C1767 1.574 . S
C1784 H1778 0.949 . S
C1784 C1788 1.368 . S
C1785 C1766 1.429 . S
C1785 C1779 1.429 . S
C1785 C1786 1.523 . S
C1786 C1767 1.368 . S
C1786 C1780 1.368 . S
C1786 C1785 1.523 . S
C1787 C1771 1.429 . S
C1787 C1783 1.429 . S
C1787 C1788 1.523 . S
C1788 C1772 1.368 . S
C1788 C1784 1.368 . S
C1788 C1787 1.523 . S
H1789 C1764 0.950 . S
H1790 C1766 0.950 . S
H1791 C1767 0.949 . S
H1792 C1769 0.950 . S
H1793 C1771 0.950 . S
C1794 C1795 1.349 . S
C1794 C1796 1.327 . S
C1794 H1819 0.950 . S
C1795 C1794 1.349 . S
C1795 C1811 1.349 . S
C1796 C1794 1.327 . S
C1796 C1815 1.429 . S
C1796 H1820 0.950 . S
C1797 C1814 1.574 . S
C1797 C1816 1.368 . S
C1797 H1821 0.949 . S
H1798 C1802 0.949 . S
C1799 C1800 1.349 . S
C1799 C1801 1.327 . S
C1799 H1822 0.950 . S
C1800 C1799 1.349 . S
C1800 C1812 1.349 . S
C1801 C1799 1.327 . S
C1801 C1817 1.429 . S
C1801 H1823 0.950 . S
C1802 H1798 0.949 . S
C1802 C1810 1.574 . S
C1802 C1818 1.368 . S
H1803 C1811 0.950 . S
H1804 C1809 0.950 . S
H1805 C1810 0.949 . S
H1806 C1812 0.950 . S
H1807 C1813 0.950 . S
H1808 C1814 0.949 . S
C1809 H1804 0.950 . S
C1809 C1811 1.327 . S
C1809 C1815 1.429 . S
C1810 C1802 1.574 . S
C1810 H1805 0.949 . S
C1810 C1816 1.368 . S
C1811 C1795 1.349 . S
C1811 H1803 0.950 . S
C1811 C1809 1.327 . S
C1812 C1800 1.349 . S
C1812 H1806 0.950 . S
C1812 C1813 1.327 . S
C1813 H1807 0.950 . S
C1813 C1812 1.327 . S
C1813 C1817 1.429 . S
C1814 C1797 1.574 . S
C1814 H1808 0.949 . S
C1814 C1818 1.368 . S
C1815 C1796 1.429 . S
C1815 C1809 1.429 . S
C1815 C1816 1.523 . S
C1816 C1797 1.368 . S
C1816 C1810 1.368 . S
C1816 C1815 1.523 . S
C1817 C1801 1.429 . S
C1817 C1813 1.429 . S
C1817 C1818 1.523 . S
C1818 C1802 1.368 . S
C1818 C1814 1.368 . S
C1818 C1817 1.523 . S
H1819 C1794 0.950 . S
H1820 C1796 0.950 . S
H1821 C1797 0.949 . S
H1822 C1799 0.950 . S
H1823 C1801 0.950 . S
C1824 C1825 1.349 . S
C1824 C1826 1.327 . S
C1824 H1849 0.950 . S
C1825 C1824 1.349 . S
C1825 C1841 1.349 . S
C1826 C1824 1.327 . S
C1826 C1845 1.429 . S
C1826 H1850 0.950 . S
C1827 C1844 1.574 . S
C1827 C1846 1.368 . S
C1827 H1851 0.949 . S
H1828 C1832 0.949 . S
C1829 C1830 1.349 . S
C1829 C1831 1.327 . S
C1829 H1852 0.950 . S
C1830 C1829 1.349 . S
C1830 C1842 1.349 . S
C1831 C1829 1.327 . S
C1831 C1847 1.429 . S
C1831 H1853 0.950 . S
C1832 H1828 0.949 . S
C1832 C1840 1.574 . S
C1832 C1848 1.368 . S
H1833 C1841 0.950 . S
H1834 C1839 0.950 . S
H1835 C1840 0.949 . S
H1836 C1842 0.950 . S
H1837 C1843 0.950 . S
H1838 C1844 0.949 . S
C1839 H1834 0.950 . S
C1839 C1841 1.327 . S
C1839 C1845 1.429 . S
C1840 C1832 1.574 . S
C1840 H1835 0.949 . S
C1840 C1846 1.368 . S
C1841 C1825 1.349 . S
C1841 H1833 0.950 . S
C1841 C1839 1.327 . S
C1842 C1830 1.349 . S
C1842 H1836 0.950 . S
C1842 C1843 1.327 . S
C1843 H1837 0.950 . S
C1843 C1842 1.327 . S
C1843 C1847 1.429 . S
C1844 C1827 1.574 . S
C1844 H1838 0.949 . S
C1844 C1848 1.368 . S
C1845 C1826 1.429 . S
C1845 C1839 1.429 . S
C1845 C1846 1.523 . S
C1846 C1827 1.368 . S
C1846 C1840 1.368 . S
C1846 C1845 1.523 . S
C1847 C1831 1.429 . S
C1847 C1843 1.429 . S
C1847 C1848 1.523 . S
C1848 C1832 1.368 . S
C1848 C1844 1.368 . S
C1848 C1847 1.523 . S
H1849 C1824 0.950 . S
H1850 C1826 0.950 . S
H1851 C1827 0.949 . S
H1852 C1829 0.950 . S
H1853 C1831 0.950 . S
C1854 C1855 1.349 . S
C1854 C1856 1.327 . S
C1854 H1879 0.950 . S
C1855 C1854 1.349 . S
C1855 C1871 1.349 . S
C1856 C1854 1.327 . S
C1856 C1875 1.429 . S
C1856 H1880 0.950 . S
C1857 C1874 1.574 . S
C1857 C1876 1.368 . S
C1857 H1881 0.949 . S
H1858 C1862 0.949 . S
C1859 C1860 1.349 . S
C1859 C1861 1.327 . S
C1859 H1882 0.950 . S
C1860 C1859 1.349 . S
C1860 C1872 1.349 . S
C1861 C1859 1.327 . S
C1861 C1877 1.429 . S
C1861 H1883 0.950 . S
C1862 H1858 0.949 . S
C1862 C1870 1.574 . S
C1862 C1878 1.368 . S
H1863 C1871 0.950 . S
H1864 C1869 0.950 . S
H1865 C1870 0.949 . S
H1866 C1872 0.950 . S
H1867 C1873 0.950 . S
H1868 C1874 0.949 . S
C1869 H1864 0.950 . S
C1869 C1871 1.327 . S
C1869 C1875 1.429 . S
C1870 C1862 1.574 . S
C1870 H1865 0.949 . S
C1870 C1876 1.368 . S
C1871 C1855 1.349 . S
C1871 H1863 0.950 . S
C1871 C1869 1.327 . S
C1872 C1860 1.349 . S
C1872 H1866 0.950 . S
C1872 C1873 1.327 . S
C1873 H1867 0.950 . S
C1873 C1872 1.327 . S
C1873 C1877 1.429 . S
C1874 C1857 1.574 . S
C1874 H1868 0.949 . S
C1874 C1878 1.368 . S
C1875 C1856 1.429 . S
C1875 C1869 1.429 . S
C1875 C1876 1.523 . S
C1876 C1857 1.368 . S
C1876 C1870 1.368 . S
C1876 C1875 1.523 . S
C1877 C1861 1.429 . S
C1877 C1873 1.429 . S
C1877 C1878 1.523 . S
C1878 C1862 1.368 . S
C1878 C1874 1.368 . S
C1878 C1877 1.523 . S
H1879 C1854 0.950 . S
H1880 C1856 0.950 . S
H1881 C1857 0.949 . S
H1882 C1859 0.950 . S
H1883 C1861 0.950 . S
C1884 C1885 1.349 . S
C1884 C1886 1.327 . S
C1884 H1909 0.950 . S
C1885 C1884 1.349 . S
C1885 C1901 1.349 . S
C1886 C1884 1.327 . S
C1886 C1905 1.429 . S
C1886 H1910 0.950 . S
C1887 C1904 1.574 . S
C1887 C1906 1.368 . S
C1887 H1911 0.949 . S
H1888 C1892 0.949 . S
C1889 C1890 1.349 . S
C1889 C1891 1.327 . S
C1889 H1912 0.950 . S
C1890 C1889 1.349 . S
C1890 C1902 1.349 . S
C1891 C1889 1.327 . S
C1891 C1907 1.429 . S
C1891 H1913 0.950 . S
C1892 H1888 0.949 . S
C1892 C1900 1.574 . S
C1892 C1908 1.368 . S
H1893 C1901 0.950 . S
H1894 C1899 0.950 . S
H1895 C1900 0.949 . S
H1896 C1902 0.950 . S
H1897 C1903 0.950 . S
H1898 C1904 0.949 . S
C1899 H1894 0.950 . S
C1899 C1901 1.327 . S
C1899 C1905 1.429 . S
C1900 C1892 1.574 . S
C1900 H1895 0.949 . S
C1900 C1906 1.368 . S
C1901 C1885 1.349 . S
C1901 H1893 0.950 . S
C1901 C1899 1.327 . S
C1902 C1890 1.349 . S
C1902 H1896 0.950 . S
C1902 C1903 1.327 . S
C1903 H1897 0.950 . S
C1903 C1902 1.327 . S
C1903 C1907 1.429 . S
C1904 C1887 1.574 . S
C1904 H1898 0.949 . S
C1904 C1908 1.368 . S
C1905 C1886 1.429 . S
C1905 C1899 1.429 . S
C1905 C1906 1.523 . S
C1906 C1887 1.368 . S
C1906 C1900 1.368 . S
C1906 C1905 1.523 . S
C1907 C1891 1.429 . S
C1907 C1903 1.429 . S
C1907 C1908 1.523 . S
C1908 C1892 1.368 . S
C1908 C1904 1.368 . S
C1908 C1907 1.523 . S
H1909 C1884 0.950 . S
H1910 C1886 0.950 . S
H1911 C1887 0.949 . S
H1912 C1889 0.950 . S
H1913 C1891 0.950 . S
C1914 C1915 1.349 . S
C1914 C1916 1.327 . S
C1914 H1939 0.950 . S
C1915 C1914 1.349 . S
C1915 C1931 1.349 . S
C1916 C1914 1.327 . S
C1916 C1935 1.429 . S
C1916 H1940 0.950 . S
C1917 C1934 1.574 . S
C1917 C1936 1.368 . S
C1917 H1941 0.949 . S
H1918 C1922 0.949 . S
C1919 C1920 1.349 . S
C1919 C1921 1.327 . S
C1919 H1942 0.950 . S
C1920 C1919 1.349 . S
C1920 C1932 1.349 . S
C1921 C1919 1.327 . S
C1921 C1937 1.429 . S
C1921 H1943 0.950 . S
C1922 H1918 0.949 . S
C1922 C1930 1.574 . S
C1922 C1938 1.368 . S
H1923 C1931 0.950 . S
H1924 C1929 0.950 . S
H1925 C1930 0.949 . S
H1926 C1932 0.950 . S
H1927 C1933 0.950 . S
H1928 C1934 0.949 . S
C1929 H1924 0.950 . S
C1929 C1931 1.327 . S
C1929 C1935 1.429 . S
C1930 C1922 1.574 . S
C1930 H1925 0.949 . S
C1930 C1936 1.368 . S
C1931 C1915 1.349 . S
C1931 H1923 0.950 . S
C1931 C1929 1.327 . S
C1932 C1920 1.349 . S
C1932 H1926 0.950 . S
C1932 C1933 1.327 . S
C1933 H1927 0.950 . S
C1933 C1932 1.327 . S
C1933 C1937 1.429 . S
C1934 C1917 1.574 . S
C1934 H1928 0.949 . S
C1934 C1938 1.368 . S
C1935 C1916 1.429 . S
C1935 C1929 1.429 . S
C1935 C1936 1.523 . S
C1936 C1917 1.368 . S
C1936 C1930 1.368 . S
C1936 C1935 1.523 . S
C1937 C1921 1.429 . S
C1937 C1933 1.429 . S
C1937 C1938 1.523 . S
C1938 C1922 1.368 . S
C1938 C1934 1.368 . S
C1938 C1937 1.523 . S
H1939 C1914 0.950 . S
H1940 C1916 0.950 . S
H1941 C1917 0.949 . S
H1942 C1919 0.950 . S
H1943 C1921 0.950 . S
C595 N302 0.542 . S
C600 N5 0.542 . S
C625 N335 0.542 . S
C630 N38 0.542 . S
C655 N368 0.542 . S
C660 N71 0.542 . S
C685 N104 0.542 . S
C690 N401 0.542 . S
C715 N434 0.542 . S
C720 N137 0.542 . S
C745 N467 0.542 . S
C750 N170 0.542 . S
C775 N203 0.542 . S
C780 N500 0.542 . S
C805 N533 0.542 . S
C810 N236 0.542 . S
C835 N566 0.542 . S
C840 N269 0.542 . S
C865 C589 1.859 . S
C870 C28 1.859 . S
C895 C523 1.859 . S
C900 C61 1.859 . S
C925 C94 1.859 . S
C930 C556 1.859 . S
C955 C259 1.859 . S
C960 C127 1.859 . S
C985 C292 1.859 . S
C990 C160 1.859 . S
C1015 C193 1.859 . S
C1020 C226 1.859 . S
C1045 C325 1.859 . S
C1050 C457 1.859 . S
C1075 C490 1.859 . S
C1080 C358 1.859 . S
C1105 C391 1.859 . S
C1110 C424 1.859 . S
C1135 C17 1.179 . S
C1140 C149 1.179 . S
C1165 C182 1.179 . S
C1170 C50 1.179 . S
C1195 C116 1.179 . S
C1200 C83 1.179 . S
C1225 C347 1.179 . S
C1230 C215 1.179 . S
C1255 C248 1.179 . S
C1260 C380 1.179 . S
C1285 C314 1.179 . S
C1290 C281 1.179 . S
C1315 C413 1.179 . S
C1320 C545 1.179 . S
C1345 C578 1.179 . S
C1350 C446 1.179 . S
C1375 C479 1.179 . S
C1380 C512 1.179 . S
C1405 C74 1.005 . S
C1410 N14 1.020 . S
C1435 C8 1.005 . S
C1440 N47 1.020 . S
C1465 C41 1.005 . S
C1470 N80 1.020 . S
C1495 C140 1.005 . S
C1500 N113 1.020 . S
C1525 N146 1.020 . S
C1530 C173 1.005 . S
C1555 C107 1.005 . S
C1560 N179 1.020 . S
C1585 C272 1.005 . S
C1590 N212 1.020 . S
C1615 C206 1.005 . S
C1620 N245 1.020 . S
C1645 N278 1.020 . S
C1650 C239 1.005 . S
C1675 N311 1.020 . S
C1680 C338 1.005 . S
C1705 C371 1.005 . S
C1710 N344 1.020 . S
C1735 C305 1.005 . S
C1740 N377 1.020 . S
C1765 N410 1.020 . S
C1770 C470 1.005 . S
C1795 C404 1.005 . S
C1800 N443 1.020 . S
C1825 C437 1.005 . S
C1830 N476 1.020 . S
C1855 C536 1.005 . S
C1860 N509 1.020 . S
C1885 C569 1.005 . S
C1890 N542 1.020 . S
C1915 C503 1.005 . S
C1920 N575 1.020 . S
