# Generated by pormake.
# Topology wjd, (6)-cn, num edge types: 1
# Building blocks:
#     Node 0, Type 0, BuildingBlock: NUHQIS_clean_sbu_0, # of connection points: 6
#     Node 1, Type 0, BuildingBlock: NUHQIS_clean_sbu_0, # of connection points: 6
#     Node 2, Type 0, BuildingBlock: NUHQIS_clean_sbu_0, # of connection points: 6
#     Node 3, Type 0, BuildingBlock: NUHQIS_clean_sbu_0, # of connection points: 6
#     Node 4, Type 0, BuildingBlock: NUHQIS_clean_sbu_0, # of connection points: 6
#     Node 5, Type 0, BuildingBlock: NUHQIS_clean_sbu_0, # of connection points: 6
#     Node 6, Type 0, BuildingBlock: NUHQIS_clean_sbu_0, # of connection points: 6
#     Node 7, Type 0, BuildingBlock: NUHQIS_clean_sbu_0, # of connection points: 6
#     Node 8, Type 0, BuildingBlock: NUHQIS_clean_sbu_0, # of connection points: 6
#     Node 9, Type 0, BuildingBlock: NUHQIS_clean_sbu_0, # of connection points: 6
#     Node 10, Type 0, BuildingBlock: NUHQIS_clean_sbu_0, # of connection points: 6
#     Node 11, Type 0, BuildingBlock: NUHQIS_clean_sbu_0, # of connection points: 6
#     Edge 12, Type (0, 0), BuildingBlock: EZIPEK_clean_linker_0, # of connection points: 2
#     Edge 13, Type (0, 0), BuildingBlock: EZIPEK_clean_linker_0, # of connection points: 2
#     Edge 14, Type (0, 0), BuildingBlock: EZIPEK_clean_linker_0, # of connection points: 2
#     Edge 15, Type (0, 0), BuildingBlock: EZIPEK_clean_linker_0, # of connection points: 2
#     Edge 16, Type (0, 0), BuildingBlock: EZIPEK_clean_linker_0, # of connection points: 2
#     Edge 17, Type (0, 0), BuildingBlock: EZIPEK_clean_linker_0, # of connection points: 2
#     Edge 18, Type (0, 0), BuildingBlock: EZIPEK_clean_linker_0, # of connection points: 2
#     Edge 19, Type (0, 0), BuildingBlock: EZIPEK_clean_linker_0, # of connection points: 2
#     Edge 20, Type (0, 0), BuildingBlock: EZIPEK_clean_linker_0, # of connection points: 2
#     Edge 21, Type (0, 0), BuildingBlock: EZIPEK_clean_linker_0, # of connection points: 2
#     Edge 22, Type (0, 0), BuildingBlock: EZIPEK_clean_linker_0, # of connection points: 2
#     Edge 23, Type (0, 0), BuildingBlock: EZIPEK_clean_linker_0, # of connection points: 2
#     Edge 24, Type (0, 0), BuildingBlock: EZIPEK_clean_linker_0, # of connection points: 2
#     Edge 25, Type (0, 0), BuildingBlock: EZIPEK_clean_linker_0, # of connection points: 2
#     Edge 26, Type (0, 0), BuildingBlock: EZIPEK_clean_linker_0, # of connection points: 2
#     Edge 27, Type (0, 0), BuildingBlock: EZIPEK_clean_linker_0, # of connection points: 2
#     Edge 28, Type (0, 0), BuildingBlock: EZIPEK_clean_linker_0, # of connection points: 2
#     Edge 29, Type (0, 0), BuildingBlock: EZIPEK_clean_linker_0, # of connection points: 2
#     Edge 30, Type (0, 0), BuildingBlock: EZIPEK_clean_linker_0, # of connection points: 2
#     Edge 31, Type (0, 0), BuildingBlock: EZIPEK_clean_linker_0, # of connection points: 2
#     Edge 32, Type (0, 0), BuildingBlock: EZIPEK_clean_linker_0, # of connection points: 2
#     Edge 33, Type (0, 0), BuildingBlock: EZIPEK_clean_linker_0, # of connection points: 2
#     Edge 34, Type (0, 0), BuildingBlock: EZIPEK_clean_linker_0, # of connection points: 2
#     Edge 35, Type (0, 0), BuildingBlock: EZIPEK_clean_linker_0, # of connection points: 2
#     Edge 36, Type (0, 0), BuildingBlock: EZIPEK_clean_linker_0, # of connection points: 2
#     Edge 37, Type (0, 0), BuildingBlock: EZIPEK_clean_linker_0, # of connection points: 2
#     Edge 38, Type (0, 0), BuildingBlock: EZIPEK_clean_linker_0, # of connection points: 2
#     Edge 39, Type (0, 0), BuildingBlock: EZIPEK_clean_linker_0, # of connection points: 2
#     Edge 40, Type (0, 0), BuildingBlock: EZIPEK_clean_linker_0, # of connection points: 2
#     Edge 41, Type (0, 0), BuildingBlock: EZIPEK_clean_linker_0, # of connection points: 2
#     Edge 42, Type (0, 0), BuildingBlock: EZIPEK_clean_linker_0, # of connection points: 2
#     Edge 43, Type (0, 0), BuildingBlock: EZIPEK_clean_linker_0, # of connection points: 2
#     Edge 44, Type (0, 0), BuildingBlock: EZIPEK_clean_linker_0, # of connection points: 2
#     Edge 45, Type (0, 0), BuildingBlock: EZIPEK_clean_linker_0, # of connection points: 2
#     Edge 46, Type (0, 0), BuildingBlock: EZIPEK_clean_linker_0, # of connection points: 2
#     Edge 47, Type (0, 0), BuildingBlock: EZIPEK_clean_linker_0, # of connection points: 2
# Relax obj value: 0.101
# Max RMSD: 0.226
# Mean RMSD: 0.226
data_MOF--net-wjd--node1-NUHQIS_clean_sbu_0--edge1-EZIPEK_clean_linker_0
_symmetry_space_group_name_H-M    P1
_symmetry_Int_Tables_number       1
_symmetry_cell_setting            triclinic
loop_
_symmetry_equiv_pos_as_xyz
'x, y, z'
_cell_length_a     31.700036
_cell_length_b     31.666
_cell_length_c     39.051087
_cell_angle_alpha  90.079982
_cell_angle_beta   89.936442
_cell_angle_gamma 119.97092
loop_
_atom_site_label
_atom_site_type_symbol
_atom_site_fract_x
_atom_site_fract_y
_atom_site_fract_z
_atom_type_partial_charge
Tb0 Tb 0.41859 0.2057 0.10216 0.0
Eu1 Eu 0.35354 0.09934 0.14116 0.0
C2 C 0.35238 0.1068 0.06174 0.0
C3 C 0.31335 0.17244 0.12626 0.0
C4 C 0.50746 0.33773 0.08209 0.0
C5 C 0.55063 0.42489 0.0703 0.0
C6 C 0.51293 0.37767 0.06299 0.0
C7 C 0.5398 0.34586 0.10921 0.0
C8 C 0.57775 0.39324 0.11649 0.0
C9 C 0.58364 0.43308 0.0969 0.0
C10 C 0.46724 0.28841 0.07349 0.0
O11 O 0.42206 0.22134 0.15763 0.0
O12 O 0.40543 0.14759 0.18102 0.0
O13 O 0.4259 0.10538 0.12529 0.0
O14 O 0.47249 0.18901 0.12164 0.0
C15 C 0.42063 0.19427 0.18392 0.0
O16 O 0.30416 0.05452 0.18195 0.0
O17 O 0.32141 1.02026 0.14044 0.0
O18 O 0.32407 0.09243 0.08848 0.0
O19 O 0.39504 0.14748 0.06286 0.0
O20 O 0.34312 0.1887 0.10003 0.0
O21 O 0.31633 0.14367 0.14906 0.0
C22 C 0.46861 0.14581 0.12264 0.0
O23 O 0.47747 0.25347 0.07081 0.0
O24 O 0.42674 0.27406 0.09 0.0
C25 C 0.23977 0.9816 0.15956 0.0
C26 C 0.13915 0.92115 0.14721 0.0
C27 C 0.1598 0.91798 0.17828 0.0
C28 C 0.20976 0.94801 0.1844 0.0
C29 C 0.2189 0.98537 0.12875 0.0
C30 C 0.16906 0.95525 0.12257 0.0
C31 C 0.29233 1.01379 0.16612 0.0
H32 H 0.55468 0.45501 0.05476 0.0
H33 H 0.48818 0.37226 0.04214 0.0
H34 H 0.53596 0.3156 0.1245 0.0
H35 H 0.60301 0.39874 0.13698 0.0
H36 H 0.1373 0.89175 0.19755 0.0
H37 H 0.225 0.94488 0.20844 0.0
H38 H 0.24118 1.01142 0.10935 0.0
H39 H 0.15391 0.95811 0.09841 0.0
Tb40 Tb 0.82335 0.74382 0.36583 0.0
Eu41 Eu 0.86023 0.67522 0.40489 0.0
C42 C 0.84767 0.67763 0.32244 0.0
C43 C 0.7477 0.63195 0.3836 0.0
C44 C 0.83156 0.85845 0.33938 0.0
C45 C 0.82853 0.9336 0.34008 0.0
C46 C 0.80551 0.88312 0.33508 0.0
C47 C 0.88119 0.88505 0.34821 0.0
C48 C 0.90426 0.93549 0.35295 0.0
C49 C 0.87789 0.95999 0.34943 0.0
C50 C 0.80644 0.8049 0.33665 0.0
O51 O 0.82842 0.7657 0.41862 0.0
O52 O 0.82981 0.70274 0.44698 0.0
O53 O 0.91942 0.75182 0.41406 0.0
O54 O 0.90367 0.78213 0.366 0.0
C55 C 0.82244 0.74034 0.44649 0.0
O56 O 0.85014 0.61445 0.43713 0.0
O57 O 0.92031 0.66135 0.41347 0.0
O58 O 0.87525 0.67722 0.3475 0.0
O59 O 0.8151 0.69071 0.32777 0.0
O60 O 0.75494 0.67627 0.3778 0.0
O61 O 0.7836 0.62315 0.38841 0.0
C62 C 0.93397 0.78473 0.39005 0.0
O63 O 0.83148 0.78691 0.32279 0.0
O64 O 0.78399 0.78116 0.36422 0.0
C65 C 0.90093 0.58015 0.42518 0.0
C66 C 0.91331 0.49699 0.42083 0.0
C67 C 0.9526 0.54384 0.42904 0.0
C68 C 0.94601 0.58416 0.43232 0.0
C69 C 0.86378 0.53617 0.41185 0.0
C70 C 0.87047 0.49577 0.40868 0.0
C71 C 0.89423 0.62242 0.4318 0.0
H72 H 0.80769 0.95201 0.33724 0.0
H73 H 0.76721 0.86323 0.32848 0.0
H74 H 0.90196 0.86675 0.35197 0.0
H75 H 0.94235 0.95529 0.36014 0.0
H76 H 0.98912 0.55052 0.4328 0.0
H77 H 0.97639 0.6187 0.44058 0.0
H78 H 0.82956 0.53292 0.40384 0.0
H79 H 0.84164 0.46412 0.39618 0.0
Tb80 Tb 0.88664 0.22465 0.10882 0.0
Eu81 Eu 0.99582 0.27322 0.14412 0.0
C82 C 0.98357 0.26385 0.06424 0.0
C83 C 0.92624 0.15915 0.13301 0.0
C84 C 0.75187 0.17364 0.09289 0.0
C85 C 0.6647 0.13145 0.08125 0.0
C86 C 0.71126 0.13854 0.07465 0.0
C87 C 0.74508 0.20114 0.11835 0.0
C88 C 0.69835 0.19407 0.12495 0.0
C89 C 0.6578 0.15931 0.10628 0.0
C90 C 0.80046 0.18005 0.0851 0.0
O91 O 0.87641 0.22456 0.16511 0.0
O92 O 0.95208 0.28202 0.18459 0.0
O93 O 0.98445 0.33744 0.13 0.0
O94 O 0.90173 0.29752 0.11884 0.0
C95 C 0.90525 0.25406 0.18944 0.0
O96 O 1.04169 0.26877 0.18407 0.0
O97 O 0.07463 0.32225 0.14381 0.0
O98 O 1.00192 0.2526 0.09026 0.0
O99 O 0.94061 0.261 0.06708 0.0
O100 O 0.91022 0.1711 0.10598 0.0
O101 O 0.95323 0.19248 0.15549 0.0
C102 C 0.94365 0.33779 0.12277 0.0
O103 O 0.8342 0.22293 0.07479 0.0
O104 O 0.81757 0.1615 0.10704 0.0
C105 C 0.11588 0.28123 0.16168 0.0
C106 C 0.17723 0.24206 0.14942 0.0
C107 C 0.17978 0.26546 0.18059 0.0
C108 C 0.14926 0.28486 0.18669 0.0
C109 C 0.11317 0.25757 0.13056 0.0
C110 C 0.14375 0.23831 0.12443 0.0
C111 C 0.0821 0.2995 0.1688 0.0
H112 H 0.63408 0.10474 0.06639 0.0
H113 H 0.71561 0.11677 0.05504 0.0
H114 H 0.77589 0.22823 0.13287 0.0
H115 H 0.69392 0.21622 0.14419 0.0
H116 H 0.20557 0.26887 0.2001 0.0
H117 H 0.15155 0.30248 0.21097 0.0
H118 H 0.08728 0.25384 0.11103 0.0
H119 H 0.14145 0.22063 0.10017 0.0
Tb120 Tb 0.35326 0.10265 0.37077 0.0
Eu121 Eu 0.42629 0.20805 0.40993 0.0
C122 C 0.41949 0.19676 0.32662 0.0
C123 C 0.46256 0.13552 0.38752 0.0
C124 C 0.23866 0.9888 0.35342 0.0
C125 C 0.1712 0.9059 0.35937 0.0
C126 C 0.22014 0.93832 0.35167 0.0
C127 C 0.20756 1.00638 0.36349 0.0
C128 C 0.15852 0.97398 0.37084 0.0
C129 C 0.13992 0.9235 0.3687 0.0
C130 C 0.29021 1.02273 0.34474 0.0
O131 O 0.35642 0.08261 0.42302 0.0
O132 O 0.37831 0.15436 0.45168 0.0
O133 O 0.36354 0.21285 0.38842 0.0
O134 O 0.30861 0.13135 0.39208 0.0
C135 C 0.35911 0.10638 0.45107 0.0
O136 O 0.49955 0.26128 0.42684 0.0
O137 O 0.44009 0.27457 0.43702 0.0
O138 O 0.44573 0.22133 0.35331 0.0
O139 O 0.37982 0.15419 0.32906 0.0
O140 O 0.42818 0.11652 0.36389 0.0
O141 O 0.45949 0.16025 0.41332 0.0
C142 C 0.31864 0.17685 0.38965 0.0
O143 O 0.30004 0.0653 0.33331 0.0
O144 O 0.32252 1.02635 0.36694 0.0
C145 C 0.51961 0.34421 0.42706 0.0
C146 C 0.58378 0.44251 0.40826 0.0
C147 C 0.5331 0.42245 0.40542 0.0
C148 C 0.50124 0.37371 0.41477 0.0
C149 C 0.57036 0.36466 0.42986 0.0
C150 C 0.60204 0.41313 0.42046 0.0
C151 C 0.48724 0.2926 0.43762 0.0
H152 H 0.15746 0.86703 0.35757 0.0
H153 H 0.24348 0.92399 0.34416 0.0
H154 H 0.22098 0.04519 0.36538 0.0
H155 H 0.13498 0.98824 0.37796 0.0
H156 H 0.51829 0.4445 0.39597 0.0
H157 H 0.46238 0.35922 0.41235 0.0
H158 H 0.58563 0.34304 0.43938 0.0
H159 H 0.64097 0.42783 0.42279 0.0
Tb160 Tb 0.86502 0.67678 0.09718 0.0
Eu161 Eu 0.82044 0.73895 0.1368 0.0
C162 C 0.83006 0.74164 0.05742 0.0
C163 C 0.9346 0.78293 0.12135 0.0
C164 C 0.90786 0.58778 0.07746 0.0
C165 C 0.95432 0.54606 0.07064 0.0
C166 C 0.94774 0.58587 0.06391 0.0
C167 C 0.87701 0.55122 0.10023 0.0
C168 C 0.8836 0.51135 0.10683 0.0
C169 C 0.91933 0.50494 0.08926 0.0
C170 C 0.90081 0.62937 0.0689 0.0
O171 O 0.87737 0.67419 0.15258 0.0
O172 O 0.81663 0.68536 0.17541 0.0
O173 O 0.75589 0.66654 0.11923 0.0
O174 O 0.79473 0.62157 0.11625 0.0
C175 C 0.84975 0.67244 0.17854 0.0
O176 O 0.81841 0.7816 0.18003 0.0
O177 O 0.77501 0.77296 0.13494 0.0
O178 O 0.84307 0.76962 0.08438 0.0
O179 O 0.82967 0.69969 0.0581 0.0
O180 O 0.92215 0.75292 0.09523 0.0
O181 O 0.90223 0.77938 0.14392 0.0
C182 C 0.75481 0.62436 0.1165 0.0
O183 O 0.85631 0.62022 0.06421 0.0
O184 O 0.92581 0.6687 0.08691 0.0
C185 C 0.81399 0.85052 0.16133 0.0
C186 C 0.85381 0.9521 0.15322 0.0
C187 C 0.80309 0.92081 0.15381 0.0
C188 C 0.78336 0.87041 0.1578 0.0
C189 C 0.86478 0.88198 0.16099 0.0
C190 C 0.8845 0.93233 0.15704 0.0
C191 C 0.79296 0.79702 0.1634 0.0
H192 H 0.98766 0.54883 0.0614 0.0
H193 H 0.97423 0.61551 0.04821 0.0
H194 H 0.84795 0.55356 0.1131 0.0
H195 H 0.86047 0.48615 0.12622 0.0
H196 H 0.77884 0.93542 0.15094 0.0
H197 H 0.74417 0.84689 0.15776 0.0
H198 H 0.88927 0.86761 0.16348 0.0
H199 H 0.92369 0.95585 0.15671 0.0
Tb200 Tb 1.00178 0.27683 0.38009 0.0
Eu201 Eu 0.88049 0.21024 0.4157 0.0
C202 C 0.91199 0.24686 0.33215 0.0
C203 C 0.94307 0.3311 0.40008 0.0
C204 C 0.12377 0.29141 0.38285 0.0
C205 C 0.19847 0.29131 0.36882 0.0
C206 C 0.1695 0.31314 0.36687 0.0
C207 C 0.10729 0.24738 0.40077 0.0
C208 C 0.13636 0.22568 0.40285 0.0
C209 C 0.18209 0.24748 0.38681 0.0
C210 C 0.09263 0.3136 0.37951 0.0
O211 O 0.96484 0.24778 0.4254 0.0
O212 O 0.92017 0.21805 0.4674 0.0
O213 O 0.90657 0.15751 0.40201 0.0
O214 O 0.97754 0.20052 0.369 0.0
C215 C 0.96516 0.2423 0.458 0.0
O216 O 0.81815 0.20265 0.44508 0.0
O217 O 0.8086 0.1458 0.4097 0.0
O218 O 0.88042 0.22667 0.35796 0.0
O219 O 0.9599 0.26834 0.33492 0.0
O220 O 0.98087 0.33293 0.38392 0.0
O221 O 0.90742 0.29143 0.41464 0.0
C222 C 0.94061 0.15982 0.38119 0.0
O223 O 0.06623 0.30216 0.35164 0.0
O224 O 0.06787 0.31201 0.40685 0.0
C225 C 0.73961 0.15608 0.41931 0.0
C226 C 0.64659 0.1412 0.4016 0.0
C227 C 0.67179 0.12708 0.379 0.0
C228 C 0.7179 0.13438 0.38778 0.0
C229 C 0.71403 0.16993 0.44181 0.0
C230 C 0.66814 0.16279 0.43298 0.0
C231 C 0.78714 0.16182 0.43019 0.0
H232 H 0.2337 0.3086 0.35633 0.0
H233 H 0.18266 0.34682 0.35272 0.0
H234 H 0.07185 0.22967 0.41301 0.0
H235 H 0.12318 0.19187 0.41683 0.0
H236 H 0.65593 0.11079 0.35453 0.0
H237 H 0.73639 0.12292 0.36991 0.0
H238 H 0.72949 0.18618 0.46639 0.0
H239 H 0.64942 0.17428 0.45064 0.0
Tb240 Tb 0.11291 0.3281 0.63978 0.0
Eu241 Eu 0.21889 0.39552 0.59999 0.0
C242 C 0.2088 0.3963 0.68278 0.0
C243 C 0.14663 0.43535 0.61619 0.0
C244 C 0.99736 0.21786 0.66063 0.0
C245 C 0.93387 0.13841 0.6802 0.0
C246 C 0.96565 0.18804 0.6864 0.0
C247 C 0.99719 0.19734 0.62866 0.0
C248 C 0.96537 0.14777 0.62242 0.0
C249 C 0.93352 0.11796 0.64817 0.0
C250 C 1.03287 0.26932 0.66792 0.0
O251 O 0.09364 0.32233 0.58615 0.0
O252 O 0.16664 0.34474 0.55901 0.0
O253 O 0.22179 0.33358 0.62503 0.0
O254 O 0.1399 0.27974 0.62317 0.0
C255 C 0.11869 0.32455 0.55881 0.0
O256 O 0.28507 0.40533 0.57449 0.0
O257 O 0.27281 0.46641 0.58027 0.0
O258 O 0.23354 0.42015 0.65545 0.0
O259 O 0.16526 0.35759 0.68114 0.0
O260 O 0.12649 0.40349 0.64128 0.0
O261 O 0.17194 0.42902 0.59226 0.0
C262 C 0.18505 0.28902 0.6262 0.0
O263 O 0.07503 0.27719 0.67862 0.0
O264 O 1.03756 0.30106 0.64479 0.0
C265 C 0.35468 0.48427 0.58234 0.0
C266 C 0.45191 0.5554 0.59733 0.0
C267 C 0.44105 0.52535 0.56834 0.0
C268 C 0.39278 0.4902 0.56085 0.0
C269 C 0.36591 0.51227 0.61249 0.0
C270 C 0.41413 0.54768 0.61983 0.0
C271 C 0.30358 0.45237 0.57142 0.0
H272 H 0.9094 0.11595 0.70032 0.0
H273 H 0.96573 0.20306 0.71136 0.0
H274 H 1.02188 0.21968 0.60863 0.0
H275 H 0.96544 0.13269 0.59751 0.0
H276 H 0.46966 0.5309 0.55059 0.0
H277 H 0.38501 0.46905 0.53751 0.0
H278 H 0.33722 0.50822 0.62963 0.0
H279 H 0.42169 0.57058 0.64223 0.0
Tb280 Tb 0.25204 0.87102 0.90563 0.0
Eu281 Eu 0.29041 0.97922 0.86824 0.0
C282 C 0.28828 0.96879 0.94919 0.0
C283 C 0.17769 0.90225 0.88252 0.0
C284 C 0.20688 0.73689 0.91995 0.0
C285 C 0.14218 0.65147 0.92031 0.0
C286 C 0.15895 0.70071 0.92807 0.0
C287 C 0.2372 0.7226 0.90319 0.0
C288 C 0.22055 0.6735 0.89566 0.0
C289 C 0.17323 0.63736 0.90468 0.0
C290 C 0.2265 0.78825 0.9317 0.0
O291 O 0.25642 0.85677 0.85091 0.0
O292 O 0.27127 0.92834 0.82421 0.0
O293 O 0.35193 0.96187 0.86266 0.0
O294 O 0.33081 0.91284 0.9101 0.0
C295 C 0.2615 0.88303 0.82334 0.0
O296 O 0.27783 1.02268 0.83063 0.0
O297 O 0.33806 0.05834 0.86597 0.0
O298 O 0.31252 0.99475 0.92279 0.0
O299 O 0.25629 0.92152 0.94682 0.0
O300 O 0.18792 0.867 0.8827 0.0
O301 O 0.212 0.94812 0.88558 0.0
C302 C 0.36176 0.9374 0.88564 0.0
O303 O 0.27062 0.8196 0.92217 0.0
O304 O 0.19819 0.80717 0.93048 0.0
C305 C 0.29481 0.09906 0.85177 0.0
C306 C 0.25833 0.16233 0.86603 0.0
C307 C 0.28194 0.16567 0.83483 0.0
C308 C 0.29998 0.13423 0.82775 0.0
C309 C 0.2713 0.09574 0.88304 0.0
C310 C 0.25336 0.12728 0.89018 0.0
C311 C 0.31123 0.06414 0.84322 0.0
H312 H 0.10552 0.62418 0.92751 0.0
H313 H 0.13482 0.71033 0.94123 0.0
H314 H 0.27442 0.74915 0.89667 0.0
H315 H 0.24513 0.66352 0.88361 0.0
H316 H 0.28619 0.19252 0.81592 0.0
H317 H 0.31755 0.13705 0.80337 0.0
H318 H 0.26647 0.06846 0.90177 0.0
H319 H 0.2354 0.12422 0.91442 0.0
Tb320 Tb 0.74967 0.80153 0.63633 0.0
Eu321 Eu 0.68513 0.84488 0.59919 0.0
C322 C 0.6835 0.82593 0.68113 0.0
C323 C 0.63726 0.73274 0.61738 0.0
C324 C 0.85974 0.79643 0.65791 0.0
C325 C 0.94124 0.86745 0.65543 0.0
C326 C 0.89106 0.84719 0.66013 0.0
C327 C 0.87957 0.76634 0.65121 0.0
C328 C 0.92982 0.78661 0.64664 0.0
C329 C 0.96087 0.83727 0.64852 0.0
C330 C 0.80641 0.77494 0.66055 0.0
O331 O 0.77806 0.82365 0.58515 0.0
O332 O 0.7084 0.80917 0.55814 0.0
O333 O 0.76356 0.90338 0.59666 0.0
O334 O 0.78824 0.88059 0.64472 0.0
C335 C 0.75012 0.80948 0.55811 0.0
O336 O 0.62536 0.83715 0.56679 0.0
O337 O 0.67538 0.90723 0.58904 0.0
O338 O 0.68161 0.85385 0.65682 0.0
O339 O 0.69818 0.79454 0.67517 0.0
O340 O 0.68108 0.73744 0.61934 0.0
O341 O 0.6308 0.7705 0.61761 0.0
C342 C 0.79323 0.91412 0.62264 0.0
O343 O 0.79097 0.79991 0.67776 0.0
O344 O 0.78227 0.7579 0.63209 0.0
C345 C 0.59479 0.89006 0.58043 0.0
C346 C 0.51737 0.90664 0.59615 0.0
C347 C 0.54754 0.92946 0.56781 0.0
C348 C 0.58594 0.92124 0.56005 0.0
C349 C 0.56529 0.8679 0.60922 0.0
C350 C 0.52671 0.87607 0.61698 0.0
C351 C 0.63549 0.88207 0.57155 0.0
H352 H 0.96476 0.9066 0.65712 0.0
H353 H 0.87674 0.87125 0.66524 0.0
H354 H 0.85611 0.72721 0.64917 0.0
H355 H 0.9445 0.76285 0.6414 0.0
H356 H 0.54068 0.95286 0.55131 0.0
H357 H 0.60853 0.93894 0.53789 0.0
H358 H 0.57183 0.84402 0.62543 0.0
H359 H 0.50357 0.85785 0.63879 0.0
Tb360 Tb 0.21507 0.40373 0.90624 0.0
Eu361 Eu 0.11171 0.33329 0.86521 0.0
C362 C 0.1153 0.33615 0.94573 0.0
C363 C 0.18723 0.29817 0.88549 0.0
C364 C 0.3472 0.49491 0.92431 0.0
C365 C 0.41794 0.57606 0.93173 0.0
C366 C 0.3699 0.54102 0.94004 0.0
C367 C 0.37384 0.48462 0.90003 0.0
C368 C 0.42202 0.51965 0.89185 0.0
C369 C 0.44451 0.56562 0.90771 0.0
C370 C 0.29699 0.45756 0.93482 0.0
O371 O 0.23367 0.40461 0.85173 0.0
O372 O 0.16115 0.38751 0.82661 0.0
O373 O 0.11015 0.40179 0.88097 0.0
O374 O 0.19284 0.4535 0.886 0.0
C375 C 0.20786 0.40276 0.82463 0.0
O376 O 1.0329 0.2995 0.85947 0.0
O377 O 0.07362 0.28124 0.82394 0.0
O378 O 0.10206 0.30661 0.9194 0.0
O379 O 0.15532 0.37946 0.94421 0.0
O380 O 0.20149 0.32935 0.91097 0.0
O381 O 0.15901 0.2989 0.8613 0.0
C382 C 0.14822 0.44589 0.88429 0.0
O383 O 0.2629 0.46896 0.93248 0.0
O384 O 0.28134 0.41302 0.9248 0.0
C385 C 0.99771 0.21742 0.84216 0.0
C386 C 0.93587 0.11721 0.85457 0.0
C387 C 0.93611 0.1372 0.82241 0.0
C388 C 0.96687 0.18702 0.81624 0.0
C389 C 0.99801 0.19725 0.87416 0.0
C390 C 0.96716 0.14754 0.88036 0.0
C391 C 1.03064 0.26968 0.83555 0.0
H392 H 0.43449 0.61141 0.94408 0.0
H393 H 0.35049 0.54989 0.95895 0.0
H394 H 0.35759 0.44947 0.88743 0.0
H395 H 0.44171 0.511 0.87304 0.0
H396 H 0.91206 0.1143 0.80226 0.0
H397 H 0.9665 0.20182 0.79132 0.0
H398 H 1.02195 0.22 0.8944 0.0
H399 H 0.96733 0.13279 0.90534 0.0
Tb400 Tb 0.27866 0.96863 0.63687 0.0
Eu401 Eu 0.2298 0.85951 0.59977 0.0
C402 C 0.25262 0.87624 0.68176 0.0
C403 C 0.34247 0.91905 0.61807 0.0
C404 C 0.28856 0.08657 0.65417 0.0
C405 C 0.2889 0.16203 0.66663 0.0
C406 C 0.30827 0.1312 0.67161 0.0
C407 C 0.24905 0.07303 0.63184 0.0
C408 C 0.22981 0.10385 0.6268 0.0
C409 C 0.24965 0.14861 0.64411 0.0
C410 C 0.30852 0.05377 0.65934 0.0
O411 O 0.25646 0.97467 0.58547 0.0
O412 O 0.26846 0.91795 0.55855 0.0
O413 O 0.17298 0.88225 0.59983 0.0
O414 O 0.20053 0.93221 0.64674 0.0
C415 C 0.27083 0.96072 0.55855 0.0
O416 O 0.23214 0.80608 0.56523 0.0
O417 O 0.16625 0.787 0.59339 0.0
O418 O 0.22439 0.84719 0.65729 0.0
O419 O 0.28292 0.92301 0.67657 0.0
O420 O 0.3404 0.95969 0.62051 0.0
O421 O 0.30324 0.87584 0.61789 0.0
C422 C 0.16514 0.90332 0.62604 0.0
O423 O 0.28099 1.01436 0.67682 0.0
O424 O 0.32595 0.04416 0.63204 0.0
C425 C 0.18241 0.72303 0.58154 0.0
C426 C 0.17391 0.63007 0.59485 0.0
C427 C 0.15197 0.63829 0.56586 0.0
C428 C 0.15751 0.68419 0.55882 0.0
C429 C 0.19847 0.71414 0.61265 0.0
C430 C 0.19279 0.66805 0.61968 0.0
C431 C 0.18844 0.77139 0.5733 0.0
H432 H 0.30464 0.19645 0.6802 0.0
H433 H 0.33858 0.14218 0.68902 0.0
H434 H 0.23309 0.03858 0.61829 0.0
H435 H 0.19952 0.09288 0.60936 0.0
H436 H 0.12967 0.60932 0.54825 0.0
H437 H 0.14179 0.68916 0.53561 0.0
H438 H 0.21478 0.74268 0.63179 0.0
H439 H 0.20225 0.66307 0.6452 0.0
Tb440 Tb 0.69129 0.8449 0.90636 0.0
Eu441 Eu 0.75591 0.79975 0.86846 0.0
C442 C 0.75542 0.81198 0.94862 0.0
C443 C 0.79693 0.91325 0.88022 0.0
C444 C 0.60636 0.89459 0.92153 0.0
C445 C 0.54874 0.9211 0.93735 0.0
C446 C 0.58575 0.91114 0.94624 0.0
C447 C 0.58957 0.88856 0.88756 0.0
C448 C 0.55253 0.8986 0.87863 0.0
C449 C 0.53163 0.9148 0.9035 0.0
C450 C 0.64656 0.88591 0.93147 0.0
O451 O 0.6786 0.8447 0.85058 0.0
O452 O 0.70827 0.79775 0.82633 0.0
O453 O 0.67936 0.73428 0.8768 0.0
O454 O 0.6362 0.7699 0.89838 0.0
C455 C 0.68463 0.8218 0.8242 0.0
O456 O 0.80642 0.80193 0.82941 0.0
O457 O 0.78816 0.75296 0.87255 0.0
O458 O 0.78318 0.82295 0.92166 0.0
O459 O 0.7145 0.81343 0.94777 0.0
O460 O 0.76784 0.90133 0.90679 0.0
O461 O 0.79303 0.88042 0.85806 0.0
C462 C 0.63839 0.73176 0.88754 0.0
O463 O 0.6355 0.84128 0.93818 0.0
O464 O 0.68592 0.90788 0.91312 0.0
C465 C 0.86991 0.79276 0.85293 0.0
C466 C 0.97107 0.83253 0.86375 0.0
C467 C 0.94744 0.79992 0.83659 0.0
C468 C 0.8973 0.78031 0.83119 0.0
C469 C 0.89352 0.82533 0.88012 0.0
C470 C 0.94365 0.84515 0.88542 0.0
C471 C 0.81735 0.77332 0.84651 0.0
H472 H 0.53295 0.93315 0.95699 0.0
H473 H 0.59832 0.91638 0.97252 0.0
H474 H 0.60509 0.87609 0.86799 0.0
H475 H 0.53966 0.89312 0.85243 0.0
H476 H 0.96787 0.78971 0.81957 0.0
H477 H 0.87995 0.75554 0.80995 0.0
H478 H 0.87316 0.83552 0.89721 0.0
H479 H 0.96107 0.87021 0.9065 0.0
C480 C 0.19449 0.17268 0.1427 0.0
C481 C 0.21134 0.22354 0.14239 0.0
C482 C 0.29501 0.2405 0.13441 0.0
C483 C 0.27788 0.18971 0.13148 0.0
N484 N 0.21029 0.10755 0.12717 0.0
N485 N 0.27589 0.30539 0.13072 0.0
C486 C 0.22726 0.15573 0.13409 0.0
C487 C 0.26108 0.25729 0.13601 0.0
N488 N 0.1476 0.1407 0.15217 0.0
N489 N 0.34368 0.27272 0.13773 0.0
H490 H 0.25216 0.31923 0.13163 0.0
H491 H 0.3107 0.33064 0.12222 0.0
H492 H 0.36966 0.26186 0.13854 0.0
H493 H 0.35779 0.30946 0.14359 0.0
H494 H 0.13459 0.10377 0.15648 0.0
H495 H 0.12258 0.15177 0.15841 0.0
H496 H 0.17343 0.08175 0.12527 0.0
H497 H 0.23309 0.09399 0.12029 0.0
C498 C 0.06724 0.88216 0.40837 0.0
C499 C 0.08721 0.88883 0.3749 0.0
C500 C 1.01014 0.82149 0.35421 0.0
C501 C 0.98747 0.81954 0.38601 0.0
N502 N 0.99495 0.84968 0.44385 0.0
N503 N 0.07426 0.87107 0.31443 0.0
C504 C 1.01621 0.85032 0.41332 0.0
C505 C 0.05756 0.8605 0.34735 0.0
N506 N 0.09732 0.90458 0.43562 0.0
N507 N 0.98827 0.78372 0.33164 0.0
H508 H 0.10866 0.89991 0.30814 0.0
H509 H 1.05204 0.85418 0.29329 0.0
H510 H 0.95622 0.7518 0.33755 0.0
H511 H 1.00517 0.78135 0.30938 0.0
H512 H 0.08601 0.8971 0.46103 0.0
H513 H 0.13477 0.92779 0.43302 0.0
H514 H 1.01238 0.87559 0.46301 0.0
H515 H 0.95892 0.82452 0.44946 0.0
C516 C 0.8855 0.08354 0.16986 0.0
C517 C 0.91064 0.10688 0.13919 0.0
C518 C 0.89653 1.02815 0.11703 0.0
C519 C 0.87472 1.00571 0.14865 0.0
N520 N 0.85705 1.01371 0.20756 0.0
N521 N 0.94887 0.10337 0.08669 0.0
C522 C 0.8719 1.03399 0.17582 0.0
C523 C 0.91865 0.0797 0.11363 0.0
N524 N 0.8722 0.10776 0.19252 0.0
N525 N 0.89465 1.00004 0.08982 0.0
H526 H 0.96664 0.14115 0.08377 0.0
H527 H 0.96012 0.08623 0.0691 0.0
H528 H 0.87889 0.96225 0.09127 0.0
H529 H 0.90499 1.01362 0.06509 0.0
H530 H 0.84924 0.09102 0.21331 0.0
H531 H 0.88025 0.14358 0.18893 0.0
H532 H 0.85871 1.03368 0.22923 0.0
H533 H 0.84699 0.97762 0.21295 0.0
C534 C 0.27547 0.21448 0.41942 0.0
C535 C 0.27907 0.18893 0.3907 0.0
C536 C 0.21283 0.19431 0.36229 0.0
C537 C 0.21343 0.22488 0.38915 0.0
N538 N 0.24706 0.26719 0.4423 0.0
N539 N 0.25453 0.15754 0.33349 0.0
C540 C 0.24502 0.23556 0.41759 0.0
C541 C 0.24826 0.17915 0.36189 0.0
N542 N 0.30041 0.21756 0.44874 0.0
N543 N 0.17797 0.17938 0.33739 0.0
H544 H 0.27956 0.14532 0.33245 0.0
H545 H 0.2374 0.1546 0.31017 0.0
H546 H 0.15207 0.19052 0.33659 0.0
H547 H 0.17218 0.15306 0.31911 0.0
H548 H 0.29557 0.23112 0.47181 0.0
H549 H 0.32306 0.20259 0.45091 0.0
H550 H 0.27325 0.28106 0.46155 0.0
H551 H 0.22437 0.28227 0.44237 0.0
C552 C 1.05246 0.90286 0.13847 0.0
C553 C 0.08681 0.88648 0.13959 0.0
C554 C 1.02099 0.80236 0.13131 0.0
C555 C 0.98711 0.81896 0.12703 0.0
N556 N 0.97225 0.88607 0.12032 0.0
N557 N 0.10523 0.82228 0.12929 0.0
C558 C 1.0033 0.86959 0.12892 0.0
C559 C 0.07148 0.83671 0.13363 0.0
N560 N 0.06647 0.94978 0.14744 0.0
N561 N 1.00491 0.75378 0.13512 0.0
H562 H 0.14267 0.84633 0.13052 0.0
H563 H 0.09623 0.78742 0.12114 0.0
H564 H 0.96819 0.72747 0.13525 0.0
H565 H 1.02756 0.74013 0.14198 0.0
H566 H 1.04208 0.96247 0.15063 0.0
H567 H 0.1021 0.97511 0.15444 0.0
H568 H 0.98311 0.92287 0.11798 0.0
H569 H 0.93649 0.86284 0.11243 0.0
C570 C 0.91111 0.04629 0.32932 0.0
C571 C 0.90141 1.01313 0.35662 0.0
C572 C 0.9353 0.08121 0.39719 0.0
C573 C 0.93592 0.11246 0.37111 0.0
N574 N 0.92352 0.1251 0.31184 0.0
N575 N 0.90058 0.99827 0.41739 0.0
C576 C 0.92432 0.09538 0.33686 0.0
C577 C 0.91296 1.0304 0.39082 0.0
N578 N 0.90847 1.03103 0.29624 0.0
N579 N 0.95732 0.10061 0.42777 0.0
H580 H 0.88362 0.96063 0.41397 0.0
H581 H 0.90349 1.00868 0.44299 0.0
H582 H 0.97647 0.13819 0.43189 0.0
H583 H 0.96164 0.0804 0.44706 0.0
H584 H 0.92044 0.05474 0.27543 0.0
H585 H 0.8987 0.99527 0.28986 0.0
H586 H 0.90953 0.11283 0.28742 0.0
H587 H 0.93415 0.16157 0.31602 0.0
C588 C 0.24356 0.21175 0.60869 0.0
C589 C 0.22967 0.1818 0.63831 0.0
C590 C 0.18325 0.21979 0.65924 0.0
C591 C 0.19587 0.24858 0.62907 0.0
N592 N 0.22848 0.26444 0.5718 0.0
N593 N 0.17904 0.15011 0.68845 0.0
C594 C 0.22321 0.24227 0.6028 0.0
C595 C 0.19719 0.1836 0.66256 0.0
N596 N 0.2775 0.21227 0.58679 0.0
N597 N 0.16 0.22861 0.68542 0.0
H598 H 0.18898 0.12357 0.6919 0.0
H599 H 0.15128 0.14601 0.7048 0.0
H600 H 0.14878 0.25437 0.68384 0.0
H601 H 0.15497 0.21306 0.70962 0.0
H602 H 0.29331 0.23727 0.56693 0.0
H603 H 0.29273 0.18996 0.58994 0.0
H604 H 0.24372 0.25753 0.5504 0.0
H605 H 0.21335 0.28636 0.56648 0.0
C606 C 0.10914 0.90231 0.84959 0.0
C607 C 0.12562 0.88891 0.87924 0.0
C608 C 1.04084 0.83727 0.89814 0.0
C609 C 1.02449 0.85308 0.86965 0.0
N610 N 1.0436 0.908 0.82196 0.0
N611 N 0.10829 0.85198 0.93518 0.0
C612 C 0.05887 0.88786 0.84648 0.0
C613 C 0.09173 0.85885 0.90455 0.0
N614 N 0.14101 0.92676 0.8236 0.0
N615 N 1.00782 0.80015 0.91831 0.0
H616 H 0.14527 0.8678 0.94093 0.0
H617 H 0.08568 0.83464 0.95602 0.0
H618 H 0.9703 0.78317 0.91442 0.0
H619 H 1.01763 0.78333 0.93707 0.0
H620 H 0.13016 0.93248 0.79971 0.0
H621 H 0.17799 0.93796 0.82483 0.0
H622 H 0.06738 0.93717 0.80664 0.0
H623 H 1.0072 0.89845 0.81897 0.0
C624 C 0.81351 1.00034 0.63424 0.0
C625 C 0.82963 0.9662 0.6291 0.0
C626 C 0.91398 1.031 0.63918 0.0
C627 C 0.89809 0.06568 0.64114 0.0
N628 N 0.83406 0.08496 0.63368 0.0
N629 N 0.89585 0.95053 0.62039 0.0
C630 C 0.84821 0.05079 0.63664 0.0
C631 C 0.88011 0.9819 0.62991 0.0
N632 N 0.76505 0.98448 0.63844 0.0
N633 N 0.96111 0.04468 0.64703 0.0
H634 H 0.87211 0.91475 0.61267 0.0
H635 H 0.93243 0.96111 0.61718 0.0
H636 H 0.98694 0.08032 0.65369 0.0
H637 H 0.97357 1.02001 0.64965 0.0
H638 H 0.75171 1.00715 0.64604 0.0
H639 H 0.73842 0.94781 0.63781 0.0
H640 H 0.79905 0.07646 0.62649 0.0
H641 H 0.85836 0.12236 0.63525 0.0
C642 C 0.17151 0.21209 0.88021 0.0
C643 C 0.20521 0.26284 0.88283 0.0
C644 C 0.27296 0.24609 0.88018 0.0
C645 C 0.23955 0.19627 0.87341 0.0
N646 N 0.15713 0.13248 0.86243 0.0
N647 N 0.28834 0.32888 0.87831 0.0
C648 C 0.18877 0.17936 0.87227 0.0
C649 C 0.25608 0.28008 0.88116 0.0
N650 N 0.12316 0.19497 0.88634 0.0
N651 N 0.32083 0.26089 0.88625 0.0
H652 H 0.27757 0.35497 0.87723 0.0
H653 H 0.32528 0.34313 0.87331 0.0
H654 H 0.33459 0.23706 0.88577 0.0
H655 H 0.34583 0.29571 0.89493 0.0
H656 H 0.09744 0.15805 0.88814 0.0
H657 H 0.10935 0.21771 0.89281 0.0
H658 H 0.12042 0.11955 0.8574 0.0
H659 H 0.1683 0.10741 0.8566 0.0
C660 C 0.08702 0.89867 0.60749 0.0
C661 C 0.11436 0.89187 0.63343 0.0
C662 C 1.04302 0.85865 0.67147 0.0
C663 C 1.01421 0.85858 0.64374 0.0
N664 N 1.00725 0.875 0.58437 0.0
N665 N 0.11711 0.86117 0.68961 0.0
C666 C 1.03581 0.87778 0.61146 0.0
C667 C 0.09221 0.87125 0.66548 0.0
N668 N 0.11047 0.92704 0.57977 0.0
N669 N 1.02347 0.84723 0.70367 0.0
H670 H 0.15303 0.86948 0.68653 0.0
H671 H 0.10103 0.84104 0.71166 0.0
H672 H 0.98732 0.83699 0.70888 0.0
H673 H 1.04402 0.85202 0.72563 0.0
H674 H 0.09338 0.9371 0.56138 0.0
H675 H 0.14824 0.94503 0.57729 0.0
H676 H 1.02008 0.88333 0.55932 0.0
H677 H 0.96977 0.86099 0.5865 0.0
C678 C 0.8507 0.04947 0.8655 0.0
C679 C 0.90085 0.06495 0.86181 0.0
C680 C 0.88368 0.98166 0.87389 0.0
C681 C 0.83306 0.96545 0.87408 0.0
N682 N 0.76812 0.98226 0.86259 0.0
N683 N 0.96493 0.04515 0.85778 0.0
C684 C 0.81649 0.99894 0.86793 0.0
C685 C 0.91738 1.03085 0.86472 0.0
N686 N 0.83579 0.08313 0.86761 0.0
N687 N 0.89959 0.95053 0.88359 0.0
H688 H 0.9906 0.08086 0.85117 0.0
H689 H 0.97809 1.02098 0.8559 0.0
H690 H 0.87589 0.91455 0.8908 0.0
H691 H 0.93613 0.96136 0.88732 0.0
H692 H 0.80037 0.07414 0.87407 0.0
H693 H 0.85972 0.12061 0.8661 0.0
H694 H 0.75447 1.00437 0.85435 0.0
H695 H 0.74219 0.94536 0.86288 0.0
C696 C 0.4682 0.2079 0.27324 0.0
C697 C 0.43408 0.21604 0.29136 0.0
C698 C 0.40084 0.22588 0.23725 0.0
C699 C 0.43303 0.21481 0.21911 0.0
N700 N 0.50647 0.2104 0.21869 0.0
N701 N 0.37866 0.2469 0.2917 0.0
C702 C 0.47012 0.21138 0.23688 0.0
C703 C 0.40439 0.23035 0.27356 0.0
N704 N 0.49608 0.19329 0.29055 0.0
N705 N 0.36442 0.22812 0.2202 0.0
H706 H 0.38082 0.25009 0.31835 0.0
H707 H 0.35914 0.2616 0.28039 0.0
H708 H 0.36087 0.22543 0.19371 0.0
H709 H 0.33612 0.22993 0.23236 0.0
H710 H 0.51742 0.18107 0.27864 0.0
H711 H 0.49571 0.19088 0.31714 0.0
H712 H 0.53679 0.21157 0.22996 0.0
H713 H 0.50835 0.21309 0.19202 0.0
C714 C 0.83401 0.62632 0.26972 0.0
C715 C 0.85868 0.67243 0.28617 0.0
C716 C 0.89563 0.71016 0.23135 0.0
C717 C 0.86247 0.66703 0.21413 0.0
N718 N 0.79997 0.58279 0.21629 0.0
N719 N 0.90702 0.76014 0.28058 0.0
C720 C 0.83201 0.62436 0.23316 0.0
C721 C 0.88854 0.71487 0.26655 0.0
N722 N 0.8122 0.58488 0.28898 0.0
N723 N 0.93286 0.74732 0.21381 0.0
H724 H 0.90075 0.76557 0.30582 0.0
H725 H 0.92452 0.79217 0.26629 0.0
H726 H 0.93927 0.74404 0.18809 0.0
H727 H 0.96032 0.77842 0.22573 0.0
H728 H 0.79642 0.54999 0.27852 0.0
H729 H 0.8138 0.5858 0.31569 0.0
H730 H 0.77294 0.5519 0.2286 0.0
H731 H 0.79954 0.58032 0.18961 0.0
C732 C 0.91183 0.29723 0.24512 0.0
C733 C 0.88771 0.25358 0.22534 0.0
C734 C 0.86465 0.2052 0.2782 0.0
C735 C 0.89356 0.24841 0.29735 0.0
N736 N 0.92855 0.33532 0.30121 0.0
N737 N 0.82148 0.17025 0.2251 0.0
C738 C 0.91155 0.29439 0.28143 0.0
C739 C 0.8575 0.2088 0.24247 0.0
N740 N 0.93705 0.34137 0.22912 0.0
N741 N 0.8462 0.16068 0.2935 0.0
H742 H 0.81227 0.17303 0.19997 0.0
H743 H 0.79645 0.1378 0.23693 0.0
H744 H 0.84953 0.15647 0.31964 0.0
H745 H 0.83029 0.12803 0.27986 0.0
H746 H 0.96103 0.37364 0.2416 0.0
H747 H 0.93559 0.3455 0.2028 0.0
H748 H 0.9378 0.36954 0.29165 0.0
H749 H 0.92891 0.33404 0.32784 0.0
C750 C 0.23532 0.37411 0.73664 0.0
C751 C 0.23076 0.40976 0.71762 0.0
C752 C 0.23272 0.45214 0.77065 0.0
C753 C 0.2294 0.41245 0.78967 0.0
N754 N 0.24063 0.34273 0.79239 0.0
N755 N 0.24311 0.49089 0.71501 0.0
C756 C 0.23577 0.37606 0.77313 0.0
C757 C 0.23574 0.45179 0.73419 0.0
N758 N 0.23757 0.33769 0.71941 0.0
N759 N 0.23097 0.48898 0.78762 0.0
H760 H 0.24634 0.49136 0.68843 0.0
H761 H 0.25014 0.52411 0.72527 0.0
H762 H 0.23181 0.49118 0.81431 0.0
H763 H 0.22779 0.51657 0.77562 0.0
H764 H 0.23674 0.30766 0.73084 0.0
H765 H 0.24069 0.33791 0.6928 0.0
H766 H 0.24686 0.31585 0.78251 0.0
H767 H 0.24126 0.34363 0.81901 0.0
C768 C 0.21126 0.83744 0.77254 0.0
C769 C 0.25745 0.86213 0.78872 0.0
C770 C 0.29761 0.87304 0.73316 0.0
C771 C 0.25228 0.85707 0.7168 0.0
N772 N 0.16553 0.80237 0.72031 0.0
N773 N 0.34452 0.89829 0.78586 0.0
C774 C 0.20874 0.83213 0.73623 0.0
C775 C 0.30061 0.87722 0.76945 0.0
N776 N 0.17005 0.82221 0.79168 0.0
N777 N 0.33726 0.88302 0.71359 0.0
H778 H 0.34729 0.89979 0.81246 0.0
H779 H 0.37804 0.91531 0.77345 0.0
H780 H 0.33446 0.87744 0.68715 0.0
H781 H 0.37125 0.89212 0.7234 0.0
H782 H 0.13574 0.8103 0.78119 0.0
H783 H 0.17072 0.82364 0.81838 0.0
H784 H 0.13324 0.78022 0.7334 0.0
H785 H 0.1628 0.79543 0.69413 0.0
C786 C 0.69309 0.87212 0.73637 0.0
C787 C 0.66883 0.82844 0.71692 0.0
C788 C 0.64119 0.7807 0.76963 0.0
C789 C 0.66678 0.82424 0.78927 0.0
N790 N 0.69847 0.91125 0.79075 0.0
N791 N 0.60502 0.74465 0.71486 0.0
C792 C 0.6861 0.86996 0.77248 0.0
C793 C 0.63751 0.78395 0.73363 0.0
N794 N 0.72571 0.91499 0.72114 0.0
N795 N 0.62283 0.73617 0.78492 0.0
H796 H 0.60137 0.74675 0.68844 0.0
H797 H 0.57854 0.71213 0.72583 0.0
H798 H 0.62438 0.73187 0.81121 0.0
H799 H 0.60905 0.70367 0.77123 0.0
H800 H 0.74859 0.94643 0.73495 0.0
H801 H 0.73282 0.91828 0.695 0.0
H802 H 0.70992 0.94498 0.7793 0.0
H803 H 0.6907 0.91049 0.81667 0.0
C804 C 0.27454 1.02375 0.98837 0.0
C805 C 0.29819 0.99648 0.98195 0.0
C806 C 0.36083 0.04565 0.02479 0.0
C807 C 0.33664 0.07245 0.03184 0.0
N808 N 0.26724 0.08324 0.02349 0.0
N809 N 0.35872 0.97553 0.99709 0.0
C810 C 0.2924 0.06016 0.0146 0.0
C811 C 0.33985 1.00576 1.00117 0.0
N812 N 0.23592 1.01595 0.96836 0.0
N813 N 0.40403 0.05839 0.0406 0.0
H814 H 0.34361 0.94594 0.98028 0.0
H815 H 0.38642 0.97684 0.01211 0.0
H816 H 0.41932 0.0854 0.05922 0.0
H817 H 0.42647 0.04442 0.03403 0.0
H818 H 0.2208 0.03852 0.96819 0.0
H819 H 0.22009 0.98758 0.9506 0.0
H820 H 0.23196 0.07208 0.01533 0.0
H821 H 0.28092 0.11266 0.04042 0.0
C822 C 0.82983 0.80724 0.48581 0.0
C823 C 0.8064 0.75644 0.47781 0.0
C824 C 0.74314 0.74093 0.52096 0.0
C825 C 0.76626 0.79168 0.52819 0.0
N826 N 0.82681 0.87395 0.51448 0.0
N827 N 0.74466 0.67387 0.49204 0.0
C828 C 0.80848 0.82497 0.50991 0.0
C829 C 0.7642 0.72297 0.49664 0.0
N830 N 0.87409 0.83837 0.47155 0.0
N831 N 0.69981 0.70996 0.53649 0.0
H832 H 0.75599 0.6584 0.47334 0.0
H833 H 0.71864 0.64759 0.50812 0.0
H834 H 0.68393 0.72136 0.55488 0.0
H835 H 0.67735 0.67371 0.52951 0.0
H836 H 0.89608 0.87451 0.47897 0.0
H837 H 0.89124 0.82702 0.45419 0.0
H838 H 0.85396 0.90074 0.49932 0.0
H839 H 0.81184 0.88807 0.53172 0.0
C840 C 1.02994 0.29605 0.97123 0.0
C841 C 0.08149 0.32101 0.97622 0.0
C842 C 0.0662 0.31963 0.03783 0.0
C843 C 1.01569 0.28561 0.03319 0.0
N844 N 0.95123 0.23589 0.99361 0.0
N845 N 0.14769 0.34808 0.01674 0.0
C846 C 0.99794 0.27214 0.99932 0.0
C847 C 0.09944 0.33043 0.01024 0.0
N848 N 1.01121 0.29796 0.94024 0.0
N849 N 0.08222 0.34429 0.06797 0.0
H850 H 0.17305 0.35411 0.99762 0.0
H851 H 0.16126 0.35146 0.04152 0.0
H852 H 0.05801 0.34209 0.08685 0.0
H853 H 0.1181 0.37191 0.07184 0.0
H854 H 0.974 0.28314 0.93592 0.0
H855 H 1.03314 0.3206 0.92068 0.0
H856 H 0.93831 0.22197 0.96923 0.0
H857 H 0.92706 0.2166 0.01333 0.0
C858 C 0.29087 0.05807 0.49234 0.0
C859 C 0.33998 0.07568 0.4825 0.0
C860 C 0.344 1.01695 0.52188 0.0
C861 C 0.29357 0.9965 0.52963 0.0
N862 N 0.2171 0.99176 0.51709 0.0
N863 N 0.41203 0.06855 0.48479 0.0
C864 C 0.26659 1.01578 0.51358 0.0
C865 C 0.36614 0.05416 0.49649 0.0
N866 N 0.26732 0.08165 0.48108 0.0
N867 N 0.37148 1.00227 0.53966 0.0
H868 H 0.43077 0.09798 0.46821 0.0
H869 H 0.43057 0.04988 0.49004 0.0
H870 H 0.35673 0.97388 0.55718 0.0
H871 H 0.40934 1.0201 0.53863 0.0
H872 H 0.2331 0.07379 0.48977 0.0
H873 H 0.28394 0.11214 0.46518 0.0
H874 H 0.19437 1.00095 0.50383 0.0
H875 H 0.1983 0.95907 0.53054 0.0
C876 C 0.84082 0.80369 0.01304 0.0
C877 C 0.81095 0.75691 0.02767 0.0
C878 C 0.74232 0.7469 0.99194 0.0
C879 C 0.77122 0.79527 0.97941 0.0
N880 N 0.8451 0.87289 0.98308 0.0
N881 N 0.73029 0.68775 0.03567 0.0
C882 C 0.81968 0.82454 0.99149 0.0
C883 C 0.76089 0.72948 0.01834 0.0
N884 N 0.88988 0.82767 0.01897 0.0
N885 N 0.69786 0.71655 0.97767 0.0
H886 H 0.74213 0.67312 0.05464 0.0
H887 H 0.69255 0.66964 0.03313 0.0
H888 H 0.68207 0.72772 0.95904 0.0
H889 H 0.67807 0.67925 0.98253 0.0
H890 H 0.91448 0.85959 0.00639 0.0
H891 H 0.90664 0.8131 0.03407 0.0
H892 H 0.87877 0.89745 0.99361 0.0
H893 H 0.83023 0.88953 0.96815 0.0
C894 C 0.08255 0.33394 0.50446 0.0
C895 C 0.08944 0.30308 0.52705 0.0
C896 C 1.01891 0.23148 0.50108 0.0
C897 C 1.0088 0.26303 0.48119 0.0
N898 N 1.02577 0.34472 0.46953 0.0
N899 N 0.0666 0.22261 0.54656 0.0
C900 C 1.03967 0.31438 0.48396 0.0
C901 C 0.05853 0.25174 0.52492 0.0
N902 N 0.11685 0.38227 0.50294 0.0
N903 N 0.99049 0.18216 0.49719 0.0
H904 H 0.09727 0.23635 0.56228 0.0
H905 H 1.0429 0.18545 0.54974 0.0
H906 H 0.9595 0.16621 0.48182 0.0
H907 H 0.99827 0.15681 0.50796 0.0
H908 H 0.11647 0.406 0.48466 0.0
H909 H 0.14827 0.39752 0.51794 0.0
H910 H 1.04335 0.38204 0.47433 0.0
H911 H 0.99343 0.33182 0.45595 0.0
C912 C 0.59136 0.17458 0.08584 0.0
C913 C 0.60861 0.15442 0.11084 0.0
C914 C 0.53316 0.1271 0.14414 0.0
C915 C 0.51457 0.14416 0.1178 0.0
N916 N 0.5221 0.17501 0.06028 0.0
N917 N 0.59339 0.10503 0.16123 0.0
C918 C 0.54261 0.16522 0.0877 0.0
C919 C 0.57871 0.12873 0.13928 0.0
N920 N 0.62219 0.2043 0.0609 0.0
N921 N 0.5085 0.11148 0.17442 0.0
H922 H 0.62668 0.1061 0.15871 0.0
H923 H 0.57117 0.0814 0.18029 0.0
H924 H 0.47508 0.10948 0.17876 0.0
H925 H 0.52274 0.10394 0.19606 0.0
H926 H 0.61357 0.22469 0.04441 0.0
H927 H 0.6582 0.2122 0.05859 0.0
H928 H 0.53866 0.18518 0.03634 0.0
H929 H 0.48646 0.16839 0.06036 0.0
C930 C 0.68444 0.55074 0.36011 0.0
C931 C 0.69738 0.58874 0.38435 0.0
C932 C 0.62963 0.53287 0.4214 0.0
C933 C 0.6185 0.49411 0.39816 0.0
N934 N 0.62681 0.46791 0.34196 0.0
N935 N 0.67313 0.62018 0.4319 0.0
C936 C 0.64321 0.50374 0.36629 0.0
C937 C 0.66679 0.58118 0.41294 0.0
N938 N 0.71231 0.55977 0.33141 0.0
N939 N 0.60649 0.52307 0.45237 0.0
H940 H 0.69969 0.65586 0.42614 0.0
H941 H 0.64937 0.61787 0.45119 0.0
H942 H 0.57847 0.48846 0.45916 0.0
H943 H 0.61701 0.54839 0.47217 0.0
H944 H 0.70924 0.53296 0.3145 0.0
H945 H 0.73958 0.59485 0.32484 0.0
H946 H 0.64034 0.47313 0.31711 0.0
H947 H 0.59673 0.43331 0.34586 0.0
C948 C 0.8998 0.38532 0.12774 0.0
C949 C 0.94217 0.38407 0.11682 0.0
C950 C 0.95991 0.4522 0.07775 0.0
C951 C 0.92259 0.45828 0.09322 0.0
N952 N 0.83906 0.40402 0.10874 0.0
N953 N 1.01559 0.42138 0.08205 0.0
C954 C 0.88708 0.41764 0.11186 0.0
C955 C 0.97351 0.41939 0.0924 0.0
N956 N 0.87075 0.35525 0.15316 0.0
N957 N 0.97469 0.4689 0.04526 0.0
H958 H 1.02707 0.39775 0.09057 0.0
H959 H 1.04143 0.44978 0.06704 0.0
H960 H 0.95648 0.48216 0.03041 0.0
H961 H 0.99837 0.46174 0.03117 0.0
H962 H 0.84221 0.35844 0.1637 0.0
H963 H 0.87749 0.33025 0.16568 0.0
H964 H 0.81104 0.37182 0.11911 0.0
H965 H 0.82726 0.42079 0.09121 0.0
C966 C 0.55336 0.17834 0.37922 0.0
C967 C 0.50868 0.13399 0.38433 0.0
C968 C 0.55456 0.09219 0.39752 0.0
C969 C 0.59888 0.1365 0.39195 0.0
N970 N 0.64039 0.21794 0.36915 0.0
N971 N 0.46613 0.04707 0.3928 0.0
C972 C 0.59814 0.1783 0.38005 0.0
C973 C 0.50913 0.09023 0.39138 0.0
N974 N 0.55335 0.22116 0.37497 0.0
N975 N 0.55602 0.05271 0.41018 0.0
H976 H 0.43238 0.04477 0.38962 0.0
H977 H 0.46384 1.01321 0.39466 0.0
H978 H 0.58854 0.05267 0.41412 0.0
H979 H 0.52546 1.02099 0.41857 0.0
H980 H 0.58469 0.25531 0.37595 0.0
H981 H 0.52164 0.22296 0.37258 0.0
H982 H 0.64156 0.24754 0.35664 0.0
H983 H 0.67396 0.21933 0.36967 0.0
C984 C 0.66529 0.50127 0.07816 0.0
C985 C 0.62655 0.48291 0.10217 0.0
C986 C 0.67115 0.55833 0.1361 0.0
C987 C 0.70812 0.57793 0.11066 0.0
N988 N 0.73463 0.57206 0.05377 0.0
N989 N 0.58853 0.4965 0.15113 0.0
C990 C 0.70341 0.55051 0.0806 0.0
C991 C 0.62826 0.51225 0.13033 0.0
N992 N 0.6667 0.47106 0.05368 0.0
N993 N 0.67795 0.58254 0.16639 0.0
H994 H 0.55694 0.46284 0.14788 0.0
H995 H 0.58541 0.51822 0.16987 0.0
H996 H 0.70862 0.6163 0.1714 0.0
H997 H 0.65504 0.56765 0.18746 0.0
H998 H 0.6968 0.48076 0.03803 0.0
H999 H 0.63969 0.43462 0.05104 0.0
H1000 H 0.72984 0.55571 0.02983 0.0
H1001 H 0.76257 0.60825 0.05421 0.0
C1002 C 0.88032 0.405 0.41147 0.0
C1003 C 0.91874 0.45146 0.42153 0.0
C1004 C 0.97479 0.4188 0.41903 0.0
C1005 C 0.93815 0.37562 0.40298 0.0
N1006 N 0.85691 0.33196 0.37898 0.0
N1007 N 0.9869 0.48053 0.46009 0.0
C1008 C 0.89129 0.37022 0.39761 0.0
C1009 C 0.96244 0.45314 0.43227 0.0
N1010 N 0.83371 0.3904 0.42128 0.0
N1011 N 1.02132 0.42752 0.42222 0.0
H1012 H 0.97261 0.49763 0.4752 0.0
H1013 H 1.01632 0.4796 0.47121 0.0
H1014 H 1.0328 0.40399 0.41329 0.0
H1015 H 1.04963 0.46074 0.43108 0.0
H1016 H 0.80484 0.35513 0.41728 0.0
H1017 H 0.82581 0.41104 0.43824 0.0
H1018 H 0.82374 0.32912 0.37225 0.0
H1019 H 0.86344 0.30608 0.36741 0.0
C1020 C 0.15662 0.54568 0.57311 0.0
C1021 C 0.17219 0.58088 0.59992 0.0
C1022 C 0.16526 0.51737 0.63991 0.0
C1023 C 0.14423 0.48141 0.61391 0.0
N1024 N 0.11032 0.4606 0.55721 0.0
N1025 N 0.22558 0.60114 0.64865 0.0
C1026 C 0.13669 0.49548 0.58107 0.0
C1027 C 0.18556 0.56752 0.6312 0.0
N1028 N 0.16917 0.56064 0.54004 0.0
N1029 N 0.16723 0.50442 0.67287 0.0
H1030 H 0.25013 0.6346 0.63765 0.0
H1031 H 0.23923 0.59253 0.67018 0.0
H1032 H 0.15266 0.46837 0.68065 0.0
H1033 H 0.17883 0.52957 0.69292 0.0
H1034 H 0.16267 0.5366 0.51982 0.0
H1035 H 0.19272 0.59716 0.5339 0.0
H1036 H 0.1005 0.46872 0.53369 0.0
H1037 H 0.09404 0.42342 0.56264 0.0
C1038 C 0.45382 0.97542 0.89018 0.0
C1039 C 0.40727 0.93403 0.88416 0.0
C1040 C 0.44257 0.8805 0.89028 0.0
C1041 C 0.48944 0.92184 0.89488 0.0
N1042 N 0.54157 1.009 0.89286 0.0
N1043 N 0.36006 0.84849 0.87017 0.0
C1044 C 0.49563 0.96948 0.89279 0.0
C1045 C 0.40263 0.88704 0.88162 0.0
N1046 N 0.45778 1.01997 0.89519 0.0
N1047 N 0.43553 0.83477 0.89583 0.0
H1048 H 0.33009 0.85171 0.86344 0.0
H1049 H 0.35609 0.81467 0.86403 0.0
H1050 H 0.46362 0.82809 0.90215 0.0
H1051 H 0.40121 0.80369 0.8971 0.0
H1052 H 0.48952 0.0505 0.90363 0.0
H1053 H 0.42823 1.02571 0.8931 0.0
H1054 H 0.54904 0.04441 0.88802 0.0
H1055 H 0.57269 1.00584 0.89494 0.0
C1056 C 0.56449 0.67923 0.58147 0.0
C1057 C 0.59331 0.68434 0.61072 0.0
C1058 C 0.53277 0.60109 0.62839 0.0
C1059 C 0.5014 0.59897 0.60164 0.0
N1060 N 0.48403 0.64014 0.5565 0.0
N1061 N 0.60274 0.65208 0.66423 0.0
C1062 C 0.51642 0.6391 0.57913 0.0
C1063 C 0.57713 0.6456 0.6347 0.0
N1064 N 0.58349 0.71219 0.55533 0.0
N1065 N 0.5205 0.56034 0.64736 0.0
H1066 H 0.63534 0.68391 0.6696 0.0
H1067 H 0.58995 0.62745 0.6845 0.0
H1068 H 0.48826 0.52745 0.64347 0.0
H1069 H 0.54391 0.55795 0.66493 0.0
H1070 H 0.56611 0.70738 0.53183 0.0
H1071 H 0.6188 0.74177 0.55567 0.0
H1072 H 0.49141 0.67096 0.54236 0.0
H1073 H 0.44807 0.61201 0.55416 0.0
C1074 C 0.15011 0.56518 0.86563 0.0
C1075 C 0.15776 0.58468 0.89936 0.0
C1076 C 0.14138 0.50565 0.92237 0.0
C1077 C 0.14193 0.48918 0.88871 0.0
N1078 N 0.1457 0.50182 0.82789 0.0
N1079 N 0.16513 0.5748 0.95999 0.0
C1080 C 0.14549 0.5184 0.86016 0.0
C1081 C 0.15393 0.55505 0.92785 0.0
N1082 N 0.14655 0.59118 0.839 0.0
N1083 N 0.1285 0.47378 0.94911 0.0
H1084 H 0.17495 0.61085 0.96525 0.0
H1085 H 0.16858 0.55669 0.98109 0.0
H1086 H 0.1181 0.4372 0.94564 0.0
H1087 H 0.12301 0.48207 0.97395 0.0
H1088 H 0.1368 0.57757 0.81424 0.0
H1089 H 0.14948 0.62525 0.84231 0.0
H1090 H 0.15392 0.52322 0.80599 0.0
H1091 H 0.13944 0.46669 0.82322 0.0
C1092 C 0.39305 0.89478 0.58283 0.0
C1093 C 0.3897 0.92076 0.61149 0.0
C1094 C 0.47302 0.94249 0.62817 0.0
C1095 C 0.47349 0.91152 0.60199 0.0
N1096 N 0.43062 0.85157 0.55803 0.0
N1097 N 0.42478 0.96555 0.66367 0.0
C1098 C 0.43255 0.88584 0.58034 0.0
C1099 C 0.4294 0.94397 0.63469 0.0
N1100 N 0.35941 0.88024 0.55709 0.0
N1101 N 0.51456 0.97118 0.64633 0.0
H1102 H 0.39378 0.96778 0.6692 0.0
H1103 H 0.45009 0.97802 0.68351 0.0
H1104 H 0.54673 0.97034 0.64257 0.0
H1105 H 0.5183 0.99834 0.66319 0.0
H1106 H 0.36299 0.86596 0.53393 0.0
H1107 H 0.33062 0.88721 0.55719 0.0
H1108 H 0.39931 0.82768 0.54453 0.0
H1109 H 0.45877 0.84378 0.55531 0.0
C1110 C 0.54886 0.68358 0.87198 0.0
C1111 C 0.59056 0.68454 0.88696 0.0
C1112 C 0.53615 0.60468 0.91366 0.0
C1113 C 0.49522 0.60396 0.8983 0.0
N1114 N 0.46364 0.6359 0.85599 0.0
N1115 N 0.62389 0.64021 0.91601 0.0
C1116 C 0.50203 0.64128 0.87528 0.0
C1117 C 0.58426 0.64307 0.90561 0.0
N1118 N 0.55336 0.72366 0.85539 0.0
N1119 N 0.52892 0.56979 0.93723 0.0
H1120 H 0.65962 0.66762 0.91195 0.0
H1121 H 0.62156 0.6088 0.92629 0.0
H1122 H 0.4945 0.54064 0.94308 0.0
H1123 H 0.55639 0.57142 0.95272 0.0
H1124 H 0.52375 0.7277 0.84878 0.0
H1125 H 0.58656 0.75438 0.84967 0.0
H1126 H 0.46725 0.65888 0.83577 0.0
H1127 H 0.42871 0.6057 0.858 0.0
loop_
_geom_bond_atom_site_label_1
_geom_bond_atom_site_label_2
_geom_bond_distance
_geom_bond_site_symmetry_2
_ccdc_geom_bond_type
Tb0 C10 2.825 . S
Tb0 O11 2.347 . S
Tb0 O14 2.366 . S
Tb0 O19 2.418 . S
Tb0 O20 2.384 . S
Tb0 O23 2.479 . S
Tb0 O24 2.471 . S
Eu1 O12 2.418 . S
Eu1 O13 2.384 . S
Eu1 O16 2.479 . S
Eu1 O17 2.471 . S
Eu1 O18 2.347 . S
Eu1 O21 2.366 . S
Eu1 C31 2.825 1_545 S
C2 O18 1.259 . S
C2 O19 1.265 . S
C3 O20 1.255 . S
C3 O21 1.265 . S
C4 C6 1.380 . S
C4 C7 1.374 . S
C4 C10 1.507 . S
C5 C6 1.384 . S
C5 C9 1.387 . S
C5 H32 0.930 . S
C6 C4 1.380 . S
C6 C5 1.384 . S
C6 H33 0.931 . S
C7 C4 1.374 . S
C7 C8 1.390 . S
C7 H34 0.930 . S
C8 C7 1.390 . S
C8 C9 1.391 . S
C8 H35 0.930 . S
C9 C5 1.387 . S
C9 C8 1.391 . S
C10 Tb0 2.825 . S
C10 C4 1.507 . S
C10 O23 1.238 . S
C10 O24 1.247 . S
O11 Tb0 2.347 . S
O11 C15 1.259 . S
O12 Eu1 2.418 . S
O12 C15 1.265 . S
O13 Eu1 2.384 . S
O13 C22 1.255 . S
O14 Tb0 2.366 . S
O14 C22 1.265 . S
C15 O11 1.259 . S
C15 O12 1.265 . S
O16 Eu1 2.479 . S
O16 C31 1.238 1_545 S
O17 Eu1 2.471 . S
O17 C31 1.247 1_545 S
O18 Eu1 2.347 . S
O18 C2 1.259 . S
O19 Tb0 2.418 . S
O19 C2 1.265 . S
O20 Tb0 2.384 . S
O20 C3 1.255 . S
O21 Eu1 2.366 . S
O21 C3 1.265 . S
C22 O13 1.255 . S
C22 O14 1.265 . S
O23 Tb0 2.479 . S
O23 C10 1.238 . S
O24 Tb0 2.471 . S
O24 C10 1.247 . S
C25 C28 1.380 . S
C25 C29 1.374 . S
C25 C31 1.507 . S
C26 C27 1.387 . S
C26 C30 1.391 . S
C27 C26 1.387 . S
C27 C28 1.384 . S
C27 H36 0.930 . S
C28 C25 1.380 . S
C28 C27 1.384 . S
C28 H37 0.931 . S
C29 C25 1.374 . S
C29 C30 1.390 . S
C29 H38 0.930 . S
C30 C26 1.391 . S
C30 C29 1.390 . S
C30 H39 0.930 . S
C31 Eu1 2.825 1_565 S
C31 O16 1.238 1_565 S
C31 O17 1.247 1_565 S
C31 C25 1.507 . S
H32 C5 0.930 . S
H33 C6 0.931 . S
H34 C7 0.930 . S
H35 C8 0.930 . S
H36 C27 0.930 . S
H37 C28 0.931 . S
H38 C29 0.930 . S
H39 C30 0.930 . S
Tb40 C50 2.825 . S
Tb40 O51 2.347 . S
Tb40 O54 2.366 . S
Tb40 O59 2.418 . S
Tb40 O60 2.384 . S
Tb40 O63 2.479 . S
Tb40 O64 2.471 . S
Eu41 O52 2.418 . S
Eu41 O53 2.384 . S
Eu41 O56 2.479 . S
Eu41 O57 2.471 . S
Eu41 O58 2.347 . S
Eu41 O61 2.366 . S
Eu41 C71 2.825 . S
C42 O58 1.259 . S
C42 O59 1.265 . S
C43 O60 1.255 . S
C43 O61 1.265 . S
C44 C46 1.380 . S
C44 C47 1.374 . S
C44 C50 1.507 . S
C45 C46 1.384 . S
C45 C49 1.387 . S
C45 H72 0.930 . S
C46 C44 1.380 . S
C46 C45 1.384 . S
C46 H73 0.931 . S
C47 C44 1.374 . S
C47 C48 1.390 . S
C47 H74 0.930 . S
C48 C47 1.390 . S
C48 C49 1.391 . S
C48 H75 0.930 . S
C49 C45 1.387 . S
C49 C48 1.391 . S
C50 Tb40 2.825 . S
C50 C44 1.507 . S
C50 O63 1.238 . S
C50 O64 1.247 . S
O51 Tb40 2.347 . S
O51 C55 1.259 . S
O52 Eu41 2.418 . S
O52 C55 1.265 . S
O53 Eu41 2.384 . S
O53 C62 1.255 . S
O54 Tb40 2.366 . S
O54 C62 1.265 . S
C55 O51 1.259 . S
C55 O52 1.265 . S
O56 Eu41 2.479 . S
O56 C71 1.238 . S
O57 Eu41 2.471 . S
O57 C71 1.247 . S
O58 Eu41 2.347 . S
O58 C42 1.259 . S
O59 Tb40 2.418 . S
O59 C42 1.265 . S
O60 Tb40 2.384 . S
O60 C43 1.255 . S
O61 Eu41 2.366 . S
O61 C43 1.265 . S
C62 O53 1.255 . S
C62 O54 1.265 . S
O63 Tb40 2.479 . S
O63 C50 1.238 . S
O64 Tb40 2.471 . S
O64 C50 1.247 . S
C65 C68 1.380 . S
C65 C69 1.374 . S
C65 C71 1.507 . S
C66 C67 1.387 . S
C66 C70 1.391 . S
C67 C66 1.387 . S
C67 C68 1.384 . S
C67 H76 0.930 . S
C68 C65 1.380 . S
C68 C67 1.384 . S
C68 H77 0.931 . S
C69 C65 1.374 . S
C69 C70 1.390 . S
C69 H78 0.930 . S
C70 C66 1.391 . S
C70 C69 1.390 . S
C70 H79 0.930 . S
C71 Eu41 2.825 . S
C71 O56 1.238 . S
C71 O57 1.247 . S
C71 C65 1.507 . S
H72 C45 0.930 . S
H73 C46 0.931 . S
H74 C47 0.930 . S
H75 C48 0.930 . S
H76 C67 0.930 . S
H77 C68 0.931 . S
H78 C69 0.930 . S
H79 C70 0.930 . S
Tb80 C90 2.825 . S
Tb80 O91 2.347 . S
Tb80 O94 2.366 . S
Tb80 O99 2.418 . S
Tb80 O100 2.384 . S
Tb80 O103 2.479 . S
Tb80 O104 2.471 . S
Eu81 O92 2.418 . S
Eu81 O93 2.384 . S
Eu81 O96 2.479 . S
Eu81 O97 2.471 . S
Eu81 O98 2.347 . S
Eu81 O101 2.366 . S
Eu81 C111 2.825 1_655 S
C82 O98 1.259 . S
C82 O99 1.265 . S
C83 O100 1.255 . S
C83 O101 1.265 . S
C84 C86 1.380 . S
C84 C87 1.374 . S
C84 C90 1.507 . S
C85 C86 1.384 . S
C85 C89 1.387 . S
C85 H112 0.930 . S
C86 C84 1.380 . S
C86 C85 1.384 . S
C86 H113 0.931 . S
C87 C84 1.374 . S
C87 C88 1.390 . S
C87 H114 0.930 . S
C88 C87 1.390 . S
C88 C89 1.391 . S
C88 H115 0.930 . S
C89 C85 1.387 . S
C89 C88 1.391 . S
C90 Tb80 2.825 . S
C90 C84 1.507 . S
C90 O103 1.238 . S
C90 O104 1.247 . S
O91 Tb80 2.347 . S
O91 C95 1.259 . S
O92 Eu81 2.418 . S
O92 C95 1.265 . S
O93 Eu81 2.384 . S
O93 C102 1.255 . S
O94 Tb80 2.366 . S
O94 C102 1.265 . S
C95 O91 1.259 . S
C95 O92 1.265 . S
O96 Eu81 2.479 . S
O96 C111 1.238 1_655 S
O97 Eu81 2.471 . S
O97 C111 1.247 1_655 S
O98 Eu81 2.347 . S
O98 C82 1.259 . S
O99 Tb80 2.418 . S
O99 C82 1.265 . S
O100 Tb80 2.384 . S
O100 C83 1.255 . S
O101 Eu81 2.366 . S
O101 C83 1.265 . S
C102 O93 1.255 . S
C102 O94 1.265 . S
O103 Tb80 2.479 . S
O103 C90 1.238 . S
O104 Tb80 2.471 . S
O104 C90 1.247 . S
C105 C108 1.380 . S
C105 C109 1.374 . S
C105 C111 1.507 . S
C106 C107 1.387 . S
C106 C110 1.391 . S
C107 C106 1.387 . S
C107 C108 1.384 . S
C107 H116 0.930 . S
C108 C105 1.380 . S
C108 C107 1.384 . S
C108 H117 0.931 . S
C109 C105 1.374 . S
C109 C110 1.390 . S
C109 H118 0.930 . S
C110 C106 1.391 . S
C110 C109 1.390 . S
C110 H119 0.930 . S
C111 Eu81 2.825 1_455 S
C111 O96 1.238 1_455 S
C111 O97 1.247 1_455 S
C111 C105 1.507 . S
H112 C85 0.930 . S
H113 C86 0.931 . S
H114 C87 0.930 . S
H115 C88 0.930 . S
H116 C107 0.930 . S
H117 C108 0.931 . S
H118 C109 0.930 . S
H119 C110 0.930 . S
Tb120 C130 2.825 1_545 S
Tb120 O131 2.347 . S
Tb120 O134 2.366 . S
Tb120 O139 2.418 . S
Tb120 O140 2.384 . S
Tb120 O143 2.479 . S
Tb120 O144 2.471 . S
Eu121 O132 2.418 . S
Eu121 O133 2.384 . S
Eu121 O136 2.479 . S
Eu121 O137 2.471 . S
Eu121 O138 2.347 . S
Eu121 O141 2.366 . S
Eu121 C151 2.825 . S
C122 O138 1.259 . S
C122 O139 1.265 . S
C123 O140 1.255 . S
C123 O141 1.265 . S
C124 C126 1.380 . S
C124 C127 1.374 . S
C124 C130 1.507 . S
C125 C126 1.384 . S
C125 C129 1.387 . S
C125 H152 0.930 . S
C126 C124 1.380 . S
C126 C125 1.384 . S
C126 H153 0.931 . S
C127 C124 1.374 . S
C127 C128 1.390 . S
C127 H154 0.930 . S
C128 C127 1.390 . S
C128 C129 1.391 . S
C128 H155 0.930 . S
C129 C125 1.387 . S
C129 C128 1.391 . S
C130 Tb120 2.825 1_565 S
C130 C124 1.507 . S
C130 O143 1.238 1_565 S
C130 O144 1.247 1_565 S
O131 Tb120 2.347 . S
O131 C135 1.259 . S
O132 Eu121 2.418 . S
O132 C135 1.265 . S
O133 Eu121 2.384 . S
O133 C142 1.255 . S
O134 Tb120 2.366 . S
O134 C142 1.265 . S
C135 O131 1.259 . S
C135 O132 1.265 . S
O136 Eu121 2.479 . S
O136 C151 1.238 . S
O137 Eu121 2.471 . S
O137 C151 1.247 . S
O138 Eu121 2.347 . S
O138 C122 1.259 . S
O139 Tb120 2.418 . S
O139 C122 1.265 . S
O140 Tb120 2.384 . S
O140 C123 1.255 . S
O141 Eu121 2.366 . S
O141 C123 1.265 . S
C142 O133 1.255 . S
C142 O134 1.265 . S
O143 Tb120 2.479 . S
O143 C130 1.238 1_545 S
O144 Tb120 2.471 . S
O144 C130 1.247 1_545 S
C145 C148 1.380 . S
C145 C149 1.374 . S
C145 C151 1.507 . S
C146 C147 1.387 . S
C146 C150 1.391 . S
C147 C146 1.387 . S
C147 C148 1.384 . S
C147 H156 0.930 . S
C148 C145 1.380 . S
C148 C147 1.384 . S
C148 H157 0.931 . S
C149 C145 1.374 . S
C149 C150 1.390 . S
C149 H158 0.930 . S
C150 C146 1.391 . S
C150 C149 1.390 . S
C150 H159 0.930 . S
C151 Eu121 2.825 . S
C151 O136 1.238 . S
C151 O137 1.247 . S
C151 C145 1.507 . S
H152 C125 0.930 . S
H153 C126 0.931 . S
H154 C127 0.930 . S
H155 C128 0.930 . S
H156 C147 0.930 . S
H157 C148 0.931 . S
H158 C149 0.930 . S
H159 C150 0.930 . S
Tb160 C170 2.825 . S
Tb160 O171 2.347 . S
Tb160 O174 2.366 . S
Tb160 O179 2.418 . S
Tb160 O180 2.384 . S
Tb160 O183 2.479 . S
Tb160 O184 2.471 . S
Eu161 O172 2.418 . S
Eu161 O173 2.384 . S
Eu161 O176 2.479 . S
Eu161 O177 2.471 . S
Eu161 O178 2.347 . S
Eu161 O181 2.366 . S
Eu161 C191 2.825 . S
C162 O178 1.259 . S
C162 O179 1.265 . S
C163 O180 1.255 . S
C163 O181 1.265 . S
C164 C166 1.380 . S
C164 C167 1.374 . S
C164 C170 1.507 . S
C165 C166 1.384 . S
C165 C169 1.387 . S
C165 H192 0.930 . S
C166 C164 1.380 . S
C166 C165 1.384 . S
C166 H193 0.931 . S
C167 C164 1.374 . S
C167 C168 1.390 . S
C167 H194 0.930 . S
C168 C167 1.390 . S
C168 C169 1.391 . S
C168 H195 0.930 . S
C169 C165 1.387 . S
C169 C168 1.391 . S
C170 Tb160 2.825 . S
C170 C164 1.507 . S
C170 O183 1.238 . S
C170 O184 1.247 . S
O171 Tb160 2.347 . S
O171 C175 1.259 . S
O172 Eu161 2.418 . S
O172 C175 1.265 . S
O173 Eu161 2.384 . S
O173 C182 1.255 . S
O174 Tb160 2.366 . S
O174 C182 1.265 . S
C175 O171 1.259 . S
C175 O172 1.265 . S
O176 Eu161 2.479 . S
O176 C191 1.238 . S
O177 Eu161 2.471 . S
O177 C191 1.247 . S
O178 Eu161 2.347 . S
O178 C162 1.259 . S
O179 Tb160 2.418 . S
O179 C162 1.265 . S
O180 Tb160 2.384 . S
O180 C163 1.255 . S
O181 Eu161 2.366 . S
O181 C163 1.265 . S
C182 O173 1.255 . S
C182 O174 1.265 . S
O183 Tb160 2.479 . S
O183 C170 1.238 . S
O184 Tb160 2.471 . S
O184 C170 1.247 . S
C185 C188 1.380 . S
C185 C189 1.374 . S
C185 C191 1.507 . S
C186 C187 1.387 . S
C186 C190 1.391 . S
C187 C186 1.387 . S
C187 C188 1.384 . S
C187 H196 0.930 . S
C188 C185 1.380 . S
C188 C187 1.384 . S
C188 H197 0.931 . S
C189 C185 1.374 . S
C189 C190 1.390 . S
C189 H198 0.930 . S
C190 C186 1.391 . S
C190 C189 1.390 . S
C190 H199 0.930 . S
C191 Eu161 2.825 . S
C191 O176 1.238 . S
C191 O177 1.247 . S
C191 C185 1.507 . S
H192 C165 0.930 . S
H193 C166 0.931 . S
H194 C167 0.930 . S
H195 C168 0.930 . S
H196 C187 0.930 . S
H197 C188 0.931 . S
H198 C189 0.930 . S
H199 C190 0.930 . S
Tb200 C210 2.825 1_655 S
Tb200 O211 2.347 . S
Tb200 O214 2.366 . S
Tb200 O219 2.418 . S
Tb200 O220 2.384 . S
Tb200 O223 2.479 . S
Tb200 O224 2.471 . S
Eu201 O212 2.418 . S
Eu201 O213 2.384 . S
Eu201 O216 2.479 . S
Eu201 O217 2.471 . S
Eu201 O218 2.347 . S
Eu201 O221 2.366 . S
Eu201 C231 2.825 . S
C202 O218 1.259 . S
C202 O219 1.265 . S
C203 O220 1.255 . S
C203 O221 1.265 . S
C204 C206 1.380 . S
C204 C207 1.374 . S
C204 C210 1.507 . S
C205 C206 1.384 . S
C205 C209 1.387 . S
C205 H232 0.930 . S
C206 C204 1.380 . S
C206 C205 1.384 . S
C206 H233 0.931 . S
C207 C204 1.374 . S
C207 C208 1.390 . S
C207 H234 0.930 . S
C208 C207 1.390 . S
C208 C209 1.391 . S
C208 H235 0.930 . S
C209 C205 1.387 . S
C209 C208 1.391 . S
C210 Tb200 2.825 1_455 S
C210 C204 1.507 . S
C210 O223 1.238 1_455 S
C210 O224 1.247 1_455 S
O211 Tb200 2.347 . S
O211 C215 1.259 . S
O212 Eu201 2.418 . S
O212 C215 1.265 . S
O213 Eu201 2.384 . S
O213 C222 1.255 . S
O214 Tb200 2.366 . S
O214 C222 1.265 . S
C215 O211 1.259 . S
C215 O212 1.265 . S
O216 Eu201 2.479 . S
O216 C231 1.238 . S
O217 Eu201 2.471 . S
O217 C231 1.247 . S
O218 Eu201 2.347 . S
O218 C202 1.259 . S
O219 Tb200 2.418 . S
O219 C202 1.265 . S
O220 Tb200 2.384 . S
O220 C203 1.255 . S
O221 Eu201 2.366 . S
O221 C203 1.265 . S
C222 O213 1.255 . S
C222 O214 1.265 . S
O223 Tb200 2.479 . S
O223 C210 1.238 1_655 S
O224 Tb200 2.471 . S
O224 C210 1.247 1_655 S
C225 C228 1.380 . S
C225 C229 1.374 . S
C225 C231 1.507 . S
C226 C227 1.387 . S
C226 C230 1.391 . S
C227 C226 1.387 . S
C227 C228 1.384 . S
C227 H236 0.930 . S
C228 C225 1.380 . S
C228 C227 1.384 . S
C228 H237 0.931 . S
C229 C225 1.374 . S
C229 C230 1.390 . S
C229 H238 0.930 . S
C230 C226 1.391 . S
C230 C229 1.390 . S
C230 H239 0.930 . S
C231 Eu201 2.825 . S
C231 O216 1.238 . S
C231 O217 1.247 . S
C231 C225 1.507 . S
H232 C205 0.930 . S
H233 C206 0.931 . S
H234 C207 0.930 . S
H235 C208 0.930 . S
H236 C227 0.930 . S
H237 C228 0.931 . S
H238 C229 0.930 . S
H239 C230 0.930 . S
Tb240 C250 2.825 1_455 S
Tb240 O251 2.347 . S
Tb240 O254 2.366 . S
Tb240 O259 2.418 . S
Tb240 O260 2.384 . S
Tb240 O263 2.479 . S
Tb240 O264 2.471 . S
Eu241 O252 2.418 . S
Eu241 O253 2.384 . S
Eu241 O256 2.479 . S
Eu241 O257 2.471 . S
Eu241 O258 2.347 . S
Eu241 O261 2.366 . S
Eu241 C271 2.825 . S
C242 O258 1.259 . S
C242 O259 1.265 . S
C243 O260 1.255 . S
C243 O261 1.265 . S
C244 C246 1.380 . S
C244 C247 1.374 . S
C244 C250 1.507 . S
C245 C246 1.384 . S
C245 C249 1.387 . S
C245 H272 0.930 . S
C246 C244 1.380 . S
C246 C245 1.384 . S
C246 H273 0.931 . S
C247 C244 1.374 . S
C247 C248 1.390 . S
C247 H274 0.930 . S
C248 C247 1.390 . S
C248 C249 1.391 . S
C248 H275 0.930 . S
C249 C245 1.387 . S
C249 C248 1.391 . S
C250 Tb240 2.825 1_655 S
C250 C244 1.507 . S
C250 O263 1.238 1_655 S
C250 O264 1.247 1_655 S
O251 Tb240 2.347 . S
O251 C255 1.259 . S
O252 Eu241 2.418 . S
O252 C255 1.265 . S
O253 Eu241 2.384 . S
O253 C262 1.255 . S
O254 Tb240 2.366 . S
O254 C262 1.265 . S
C255 O251 1.259 . S
C255 O252 1.265 . S
O256 Eu241 2.479 . S
O256 C271 1.238 . S
O257 Eu241 2.471 . S
O257 C271 1.247 . S
O258 Eu241 2.347 . S
O258 C242 1.259 . S
O259 Tb240 2.418 . S
O259 C242 1.265 . S
O260 Tb240 2.384 . S
O260 C243 1.255 . S
O261 Eu241 2.366 . S
O261 C243 1.265 . S
C262 O253 1.255 . S
C262 O254 1.265 . S
O263 Tb240 2.479 . S
O263 C250 1.238 1_455 S
O264 Tb240 2.471 . S
O264 C250 1.247 1_455 S
C265 C268 1.380 . S
C265 C269 1.374 . S
C265 C271 1.507 . S
C266 C267 1.387 . S
C266 C270 1.391 . S
C267 C266 1.387 . S
C267 C268 1.384 . S
C267 H276 0.930 . S
C268 C265 1.380 . S
C268 C267 1.384 . S
C268 H277 0.931 . S
C269 C265 1.374 . S
C269 C270 1.390 . S
C269 H278 0.930 . S
C270 C266 1.391 . S
C270 C269 1.390 . S
C270 H279 0.930 . S
C271 Eu241 2.825 . S
C271 O256 1.238 . S
C271 O257 1.247 . S
C271 C265 1.507 . S
H272 C245 0.930 . S
H273 C246 0.931 . S
H274 C247 0.930 . S
H275 C248 0.930 . S
H276 C267 0.930 . S
H277 C268 0.931 . S
H278 C269 0.930 . S
H279 C270 0.930 . S
Tb280 C290 2.825 . S
Tb280 O291 2.347 . S
Tb280 O294 2.366 . S
Tb280 O299 2.418 . S
Tb280 O300 2.384 . S
Tb280 O303 2.479 . S
Tb280 O304 2.471 . S
Eu281 O292 2.418 . S
Eu281 O293 2.384 . S
Eu281 O296 2.479 . S
Eu281 O297 2.471 . S
Eu281 O298 2.347 . S
Eu281 O301 2.366 . S
Eu281 C311 2.825 1_565 S
C282 O298 1.259 . S
C282 O299 1.265 . S
C283 O300 1.255 . S
C283 O301 1.265 . S
C284 C286 1.380 . S
C284 C287 1.374 . S
C284 C290 1.507 . S
C285 C286 1.384 . S
C285 C289 1.387 . S
C285 H312 0.930 . S
C286 C284 1.380 . S
C286 C285 1.384 . S
C286 H313 0.931 . S
C287 C284 1.374 . S
C287 C288 1.390 . S
C287 H314 0.930 . S
C288 C287 1.390 . S
C288 C289 1.391 . S
C288 H315 0.930 . S
C289 C285 1.387 . S
C289 C288 1.391 . S
C290 Tb280 2.825 . S
C290 C284 1.507 . S
C290 O303 1.238 . S
C290 O304 1.247 . S
O291 Tb280 2.347 . S
O291 C295 1.259 . S
O292 Eu281 2.418 . S
O292 C295 1.265 . S
O293 Eu281 2.384 . S
O293 C302 1.255 . S
O294 Tb280 2.366 . S
O294 C302 1.265 . S
C295 O291 1.259 . S
C295 O292 1.265 . S
O296 Eu281 2.479 . S
O296 C311 1.238 1_565 S
O297 Eu281 2.471 . S
O297 C311 1.247 1_565 S
O298 Eu281 2.347 . S
O298 C282 1.259 . S
O299 Tb280 2.418 . S
O299 C282 1.265 . S
O300 Tb280 2.384 . S
O300 C283 1.255 . S
O301 Eu281 2.366 . S
O301 C283 1.265 . S
C302 O293 1.255 . S
C302 O294 1.265 . S
O303 Tb280 2.479 . S
O303 C290 1.238 . S
O304 Tb280 2.471 . S
O304 C290 1.247 . S
C305 C308 1.380 . S
C305 C309 1.374 . S
C305 C311 1.507 . S
C306 C307 1.387 . S
C306 C310 1.391 . S
C307 C306 1.387 . S
C307 C308 1.384 . S
C307 H316 0.930 . S
C308 C305 1.380 . S
C308 C307 1.384 . S
C308 H317 0.931 . S
C309 C305 1.374 . S
C309 C310 1.390 . S
C309 H318 0.930 . S
C310 C306 1.391 . S
C310 C309 1.390 . S
C310 H319 0.930 . S
C311 Eu281 2.825 1_545 S
C311 O296 1.238 1_545 S
C311 O297 1.247 1_545 S
C311 C305 1.507 . S
H312 C285 0.930 . S
H313 C286 0.931 . S
H314 C287 0.930 . S
H315 C288 0.930 . S
H316 C307 0.930 . S
H317 C308 0.931 . S
H318 C309 0.930 . S
H319 C310 0.930 . S
Tb320 C330 2.825 . S
Tb320 O331 2.347 . S
Tb320 O334 2.366 . S
Tb320 O339 2.418 . S
Tb320 O340 2.384 . S
Tb320 O343 2.479 . S
Tb320 O344 2.471 . S
Eu321 O332 2.418 . S
Eu321 O333 2.384 . S
Eu321 O336 2.479 . S
Eu321 O337 2.471 . S
Eu321 O338 2.347 . S
Eu321 O341 2.366 . S
Eu321 C351 2.825 . S
C322 O338 1.259 . S
C322 O339 1.265 . S
C323 O340 1.255 . S
C323 O341 1.265 . S
C324 C326 1.380 . S
C324 C327 1.374 . S
C324 C330 1.507 . S
C325 C326 1.384 . S
C325 C329 1.387 . S
C325 H352 0.930 . S
C326 C324 1.380 . S
C326 C325 1.384 . S
C326 H353 0.931 . S
C327 C324 1.374 . S
C327 C328 1.390 . S
C327 H354 0.930 . S
C328 C327 1.390 . S
C328 C329 1.391 . S
C328 H355 0.930 . S
C329 C325 1.387 . S
C329 C328 1.391 . S
C330 Tb320 2.825 . S
C330 C324 1.507 . S
C330 O343 1.238 . S
C330 O344 1.247 . S
O331 Tb320 2.347 . S
O331 C335 1.259 . S
O332 Eu321 2.418 . S
O332 C335 1.265 . S
O333 Eu321 2.384 . S
O333 C342 1.255 . S
O334 Tb320 2.366 . S
O334 C342 1.265 . S
C335 O331 1.259 . S
C335 O332 1.265 . S
O336 Eu321 2.479 . S
O336 C351 1.238 . S
O337 Eu321 2.471 . S
O337 C351 1.247 . S
O338 Eu321 2.347 . S
O338 C322 1.259 . S
O339 Tb320 2.418 . S
O339 C322 1.265 . S
O340 Tb320 2.384 . S
O340 C323 1.255 . S
O341 Eu321 2.366 . S
O341 C323 1.265 . S
C342 O333 1.255 . S
C342 O334 1.265 . S
O343 Tb320 2.479 . S
O343 C330 1.238 . S
O344 Tb320 2.471 . S
O344 C330 1.247 . S
C345 C348 1.380 . S
C345 C349 1.374 . S
C345 C351 1.507 . S
C346 C347 1.387 . S
C346 C350 1.391 . S
C347 C346 1.387 . S
C347 C348 1.384 . S
C347 H356 0.930 . S
C348 C345 1.380 . S
C348 C347 1.384 . S
C348 H357 0.931 . S
C349 C345 1.374 . S
C349 C350 1.390 . S
C349 H358 0.930 . S
C350 C346 1.391 . S
C350 C349 1.390 . S
C350 H359 0.930 . S
C351 Eu321 2.825 . S
C351 O336 1.238 . S
C351 O337 1.247 . S
C351 C345 1.507 . S
H352 C325 0.930 . S
H353 C326 0.931 . S
H354 C327 0.930 . S
H355 C328 0.930 . S
H356 C347 0.930 . S
H357 C348 0.931 . S
H358 C349 0.930 . S
H359 C350 0.930 . S
Tb360 C370 2.825 . S
Tb360 O371 2.347 . S
Tb360 O374 2.366 . S
Tb360 O379 2.418 . S
Tb360 O380 2.384 . S
Tb360 O383 2.479 . S
Tb360 O384 2.471 . S
Eu361 O372 2.418 . S
Eu361 O373 2.384 . S
Eu361 O376 2.479 . S
Eu361 O377 2.471 . S
Eu361 O378 2.347 . S
Eu361 O381 2.366 . S
Eu361 C391 2.825 1_455 S
C362 O378 1.259 . S
C362 O379 1.265 . S
C363 O380 1.255 . S
C363 O381 1.265 . S
C364 C366 1.380 . S
C364 C367 1.374 . S
C364 C370 1.507 . S
C365 C366 1.384 . S
C365 C369 1.387 . S
C365 H392 0.930 . S
C366 C364 1.380 . S
C366 C365 1.384 . S
C366 H393 0.931 . S
C367 C364 1.374 . S
C367 C368 1.390 . S
C367 H394 0.930 . S
C368 C367 1.390 . S
C368 C369 1.391 . S
C368 H395 0.930 . S
C369 C365 1.387 . S
C369 C368 1.391 . S
C370 Tb360 2.825 . S
C370 C364 1.507 . S
C370 O383 1.238 . S
C370 O384 1.247 . S
O371 Tb360 2.347 . S
O371 C375 1.259 . S
O372 Eu361 2.418 . S
O372 C375 1.265 . S
O373 Eu361 2.384 . S
O373 C382 1.255 . S
O374 Tb360 2.366 . S
O374 C382 1.265 . S
C375 O371 1.259 . S
C375 O372 1.265 . S
O376 Eu361 2.479 . S
O376 C391 1.238 1_455 S
O377 Eu361 2.471 . S
O377 C391 1.247 1_455 S
O378 Eu361 2.347 . S
O378 C362 1.259 . S
O379 Tb360 2.418 . S
O379 C362 1.265 . S
O380 Tb360 2.384 . S
O380 C363 1.255 . S
O381 Eu361 2.366 . S
O381 C363 1.265 . S
C382 O373 1.255 . S
C382 O374 1.265 . S
O383 Tb360 2.479 . S
O383 C370 1.238 . S
O384 Tb360 2.471 . S
O384 C370 1.247 . S
C385 C388 1.380 . S
C385 C389 1.374 . S
C385 C391 1.507 . S
C386 C387 1.387 . S
C386 C390 1.391 . S
C387 C386 1.387 . S
C387 C388 1.384 . S
C387 H396 0.930 . S
C388 C385 1.380 . S
C388 C387 1.384 . S
C388 H397 0.931 . S
C389 C385 1.374 . S
C389 C390 1.390 . S
C389 H398 0.930 . S
C390 C386 1.391 . S
C390 C389 1.390 . S
C390 H399 0.930 . S
C391 Eu361 2.825 1_655 S
C391 O376 1.238 1_655 S
C391 O377 1.247 1_655 S
C391 C385 1.507 . S
H392 C365 0.930 . S
H393 C366 0.931 . S
H394 C367 0.930 . S
H395 C368 0.930 . S
H396 C387 0.930 . S
H397 C388 0.931 . S
H398 C389 0.930 . S
H399 C390 0.930 . S
Tb400 C410 2.825 1_565 S
Tb400 O411 2.347 . S
Tb400 O414 2.366 . S
Tb400 O419 2.418 . S
Tb400 O420 2.384 . S
Tb400 O423 2.479 . S
Tb400 O424 2.471 . S
Eu401 O412 2.418 . S
Eu401 O413 2.384 . S
Eu401 O416 2.479 . S
Eu401 O417 2.471 . S
Eu401 O418 2.347 . S
Eu401 O421 2.366 . S
Eu401 C431 2.825 . S
C402 O418 1.259 . S
C402 O419 1.265 . S
C403 O420 1.255 . S
C403 O421 1.265 . S
C404 C406 1.380 . S
C404 C407 1.374 . S
C404 C410 1.507 . S
C405 C406 1.384 . S
C405 C409 1.387 . S
C405 H432 0.930 . S
C406 C404 1.380 . S
C406 C405 1.384 . S
C406 H433 0.931 . S
C407 C404 1.374 . S
C407 C408 1.390 . S
C407 H434 0.930 . S
C408 C407 1.390 . S
C408 C409 1.391 . S
C408 H435 0.930 . S
C409 C405 1.387 . S
C409 C408 1.391 . S
C410 Tb400 2.825 1_545 S
C410 C404 1.507 . S
C410 O423 1.238 1_545 S
C410 O424 1.247 1_545 S
O411 Tb400 2.347 . S
O411 C415 1.259 . S
O412 Eu401 2.418 . S
O412 C415 1.265 . S
O413 Eu401 2.384 . S
O413 C422 1.255 . S
O414 Tb400 2.366 . S
O414 C422 1.265 . S
C415 O411 1.259 . S
C415 O412 1.265 . S
O416 Eu401 2.479 . S
O416 C431 1.238 . S
O417 Eu401 2.471 . S
O417 C431 1.247 . S
O418 Eu401 2.347 . S
O418 C402 1.259 . S
O419 Tb400 2.418 . S
O419 C402 1.265 . S
O420 Tb400 2.384 . S
O420 C403 1.255 . S
O421 Eu401 2.366 . S
O421 C403 1.265 . S
C422 O413 1.255 . S
C422 O414 1.265 . S
O423 Tb400 2.479 . S
O423 C410 1.238 1_565 S
O424 Tb400 2.471 . S
O424 C410 1.247 1_565 S
C425 C428 1.380 . S
C425 C429 1.374 . S
C425 C431 1.507 . S
C426 C427 1.387 . S
C426 C430 1.391 . S
C427 C426 1.387 . S
C427 C428 1.384 . S
C427 H436 0.930 . S
C428 C425 1.380 . S
C428 C427 1.384 . S
C428 H437 0.931 . S
C429 C425 1.374 . S
C429 C430 1.390 . S
C429 H438 0.930 . S
C430 C426 1.391 . S
C430 C429 1.390 . S
C430 H439 0.930 . S
C431 Eu401 2.825 . S
C431 O416 1.238 . S
C431 O417 1.247 . S
C431 C425 1.507 . S
H432 C405 0.930 . S
H433 C406 0.931 . S
H434 C407 0.930 . S
H435 C408 0.930 . S
H436 C427 0.930 . S
H437 C428 0.931 . S
H438 C429 0.930 . S
H439 C430 0.930 . S
Tb440 C450 2.825 . S
Tb440 O451 2.347 . S
Tb440 O454 2.366 . S
Tb440 O459 2.418 . S
Tb440 O460 2.384 . S
Tb440 O463 2.479 . S
Tb440 O464 2.471 . S
Eu441 O452 2.418 . S
Eu441 O453 2.384 . S
Eu441 O456 2.479 . S
Eu441 O457 2.471 . S
Eu441 O458 2.347 . S
Eu441 O461 2.366 . S
Eu441 C471 2.825 . S
C442 O458 1.259 . S
C442 O459 1.265 . S
C443 O460 1.255 . S
C443 O461 1.265 . S
C444 C446 1.380 . S
C444 C447 1.374 . S
C444 C450 1.507 . S
C445 C446 1.384 . S
C445 C449 1.387 . S
C445 H472 0.930 . S
C446 C444 1.380 . S
C446 C445 1.384 . S
C446 H473 0.931 . S
C447 C444 1.374 . S
C447 C448 1.390 . S
C447 H474 0.930 . S
C448 C447 1.390 . S
C448 C449 1.391 . S
C448 H475 0.930 . S
C449 C445 1.387 . S
C449 C448 1.391 . S
C450 Tb440 2.825 . S
C450 C444 1.507 . S
C450 O463 1.238 . S
C450 O464 1.247 . S
O451 Tb440 2.347 . S
O451 C455 1.259 . S
O452 Eu441 2.418 . S
O452 C455 1.265 . S
O453 Eu441 2.384 . S
O453 C462 1.255 . S
O454 Tb440 2.366 . S
O454 C462 1.265 . S
C455 O451 1.259 . S
C455 O452 1.265 . S
O456 Eu441 2.479 . S
O456 C471 1.238 . S
O457 Eu441 2.471 . S
O457 C471 1.247 . S
O458 Eu441 2.347 . S
O458 C442 1.259 . S
O459 Tb440 2.418 . S
O459 C442 1.265 . S
O460 Tb440 2.384 . S
O460 C443 1.255 . S
O461 Eu441 2.366 . S
O461 C443 1.265 . S
C462 O453 1.255 . S
C462 O454 1.265 . S
O463 Tb440 2.479 . S
O463 C450 1.238 . S
O464 Tb440 2.471 . S
O464 C450 1.247 . S
C465 C468 1.380 . S
C465 C469 1.374 . S
C465 C471 1.507 . S
C466 C467 1.387 . S
C466 C470 1.391 . S
C467 C466 1.387 . S
C467 C468 1.384 . S
C467 H476 0.930 . S
C468 C465 1.380 . S
C468 C467 1.384 . S
C468 H477 0.931 . S
C469 C465 1.374 . S
C469 C470 1.390 . S
C469 H478 0.930 . S
C470 C466 1.391 . S
C470 C469 1.390 . S
C470 H479 0.930 . S
C471 Eu441 2.825 . S
C471 O456 1.238 . S
C471 O457 1.247 . S
C471 C465 1.507 . S
H472 C445 0.930 . S
H473 C446 0.931 . S
H474 C447 0.930 . S
H475 C448 0.930 . S
H476 C467 0.930 . S
H477 C468 0.931 . S
H478 C469 0.930 . S
H479 C470 0.930 . S
C480 C481 1.363 . S
C480 C486 1.379 . S
C480 N488 1.356 . S
C481 C480 1.363 . S
C481 C487 1.363 . S
C482 C483 1.363 . S
C482 C487 1.379 . S
C482 N489 1.356 . S
C483 C482 1.363 . S
C483 C486 1.363 . S
N484 C486 1.356 . S
N484 H496 0.984 . S
N484 H497 0.985 . S
N485 C487 1.356 . S
N485 H490 0.984 . S
N485 H491 0.985 . S
C486 C480 1.379 . S
C486 C483 1.363 . S
C486 N484 1.356 . S
C487 C481 1.363 . S
C487 C482 1.379 . S
C487 N485 1.356 . S
N488 C480 1.356 . S
N488 H494 0.984 . S
N488 H495 0.984 . S
N489 C482 1.356 . S
N489 H492 0.984 . S
N489 H493 0.985 . S
H490 N485 0.984 . S
H491 N485 0.985 . S
H492 N489 0.984 . S
H493 N489 0.985 . S
H494 N488 0.984 . S
H495 N488 0.984 . S
H496 N484 0.984 . S
H497 N484 0.985 . S
C498 C499 1.363 . S
C498 C504 1.379 1_455 S
C498 N506 1.356 . S
C499 C498 1.363 . S
C499 C505 1.363 1_455 S
C500 C501 1.363 . S
C500 C505 1.379 . S
C500 N507 1.356 . S
C501 C500 1.363 . S
C501 C504 1.363 . S
N502 C504 1.356 . S
N502 H514 0.984 . S
N502 H515 0.985 . S
N503 C505 1.356 1_455 S
N503 H508 0.984 . S
N503 H509 0.985 1_455 S
C504 C498 1.379 1_655 S
C504 C501 1.363 . S
C504 N502 1.356 . S
C505 C499 1.363 1_655 S
C505 C500 1.379 . S
C505 N503 1.356 1_655 S
N506 C498 1.356 . S
N506 H512 0.984 . S
N506 H513 0.984 . S
N507 C500 1.356 . S
N507 H510 0.984 . S
N507 H511 0.985 . S
H508 N503 0.984 . S
H509 N503 0.985 1_655 S
H510 N507 0.984 . S
H511 N507 0.985 . S
H512 N506 0.984 . S
H513 N506 0.984 . S
H514 N502 0.984 . S
H515 N502 0.985 . S
C516 C517 1.363 . S
C516 C522 1.379 . S
C516 N524 1.356 . S
C517 C516 1.363 . S
C517 C523 1.363 . S
C518 C519 1.363 . S
C518 C523 1.379 1_565 S
C518 N525 1.356 . S
C519 C518 1.363 . S
C519 C522 1.363 1_565 S
N520 C522 1.356 1_565 S
N520 H532 0.984 1_565 S
N520 H533 0.985 . S
N521 C523 1.356 . S
N521 H526 0.984 . S
N521 H527 0.985 . S
C522 C516 1.379 . S
C522 C519 1.363 1_545 S
C522 N520 1.356 1_545 S
C523 C517 1.363 . S
C523 C518 1.379 1_545 S
C523 N521 1.356 . S
N524 C516 1.356 . S
N524 H530 0.984 . S
N524 H531 0.984 . S
N525 C518 1.356 . S
N525 H528 0.984 . S
N525 H529 0.985 . S
H526 N521 0.984 . S
H527 N521 0.985 . S
H528 N525 0.984 . S
H529 N525 0.985 . S
H530 N524 0.984 . S
H531 N524 0.984 . S
H532 N520 0.984 1_545 S
H533 N520 0.985 . S
C534 C535 1.363 . S
C534 C540 1.379 . S
C534 N542 1.356 . S
C535 C534 1.363 . S
C535 C541 1.363 . S
C536 C537 1.363 . S
C536 C541 1.379 . S
C536 N543 1.356 . S
C537 C536 1.363 . S
C537 C540 1.363 . S
N538 C540 1.356 . S
N538 H550 0.984 . S
N538 H551 0.985 . S
N539 C541 1.356 . S
N539 H544 0.984 . S
N539 H545 0.985 . S
C540 C534 1.379 . S
C540 C537 1.363 . S
C540 N538 1.356 . S
C541 C535 1.363 . S
C541 C536 1.379 . S
C541 N539 1.356 . S
N542 C534 1.356 . S
N542 H548 0.984 . S
N542 H549 0.984 . S
N543 C536 1.356 . S
N543 H546 0.984 . S
N543 H547 0.985 . S
H544 N539 0.984 . S
H545 N539 0.985 . S
H546 N543 0.984 . S
H547 N543 0.985 . S
H548 N542 0.984 . S
H549 N542 0.984 . S
H550 N538 0.984 . S
H551 N538 0.985 . S
C552 C553 1.379 . S
C552 C558 1.359 1_455 S
C552 N560 1.367 . S
C553 C552 1.379 . S
C553 C559 1.363 1_455 S
C554 C555 1.363 . S
C554 C559 1.379 . S
C554 N561 1.356 . S
C555 C554 1.363 . S
C555 C558 1.363 . S
N556 C558 1.356 . S
N556 H568 0.984 . S
N556 H569 0.985 . S
N557 C559 1.356 1_455 S
N557 H562 0.984 . S
N557 H563 0.985 . S
C558 C552 1.359 1_655 S
C558 C555 1.363 . S
C558 N556 1.356 . S
C559 C553 1.363 1_655 S
C559 C554 1.379 . S
C559 N557 1.356 1_655 S
N560 C552 1.367 . S
N560 H566 0.984 . S
N560 H567 0.984 . S
N561 C554 1.356 . S
N561 H564 0.984 . S
N561 H565 0.985 . S
H562 N557 0.984 . S
H563 N557 0.985 . S
H564 N561 0.984 . S
H565 N561 0.985 . S
H566 N560 0.984 . S
H567 N560 0.984 . S
H568 N556 0.984 . S
H569 N556 0.985 . S
C570 C571 1.363 1_545 S
C570 C576 1.379 . S
C570 N578 1.356 1_545 S
C571 C570 1.363 1_565 S
C571 C577 1.363 . S
C572 C573 1.363 . S
C572 C577 1.379 1_545 S
C572 N579 1.356 . S
C573 C572 1.363 . S
C573 C576 1.363 . S
N574 C576 1.356 . S
N574 H586 0.984 . S
N574 H587 0.985 . S
N575 C577 1.356 . S
N575 H580 0.984 . S
N575 H581 0.985 . S
C576 C570 1.379 . S
C576 C573 1.363 . S
C576 N574 1.356 . S
C577 C571 1.363 . S
C577 C572 1.379 1_565 S
C577 N575 1.356 . S
N578 C570 1.356 1_565 S
N578 H584 0.984 1_565 S
N578 H585 0.984 . S
N579 C572 1.356 . S
N579 H582 0.984 . S
N579 H583 0.985 . S
H580 N575 0.984 . S
H581 N575 0.985 . S
H582 N579 0.984 . S
H583 N579 0.985 . S
H584 N578 0.984 1_545 S
H585 N578 0.984 . S
H586 N574 0.984 . S
H587 N574 0.985 . S
C588 C589 1.363 . S
C588 C594 1.379 . S
C588 N596 1.356 . S
C589 C588 1.363 . S
C589 C595 1.363 . S
C590 C591 1.363 . S
C590 C595 1.379 . S
C590 N597 1.356 . S
C591 C590 1.363 . S
C591 C594 1.363 . S
N592 C594 1.356 . S
N592 H604 0.984 . S
N592 H605 0.985 . S
N593 C595 1.356 . S
N593 H598 0.984 . S
N593 H599 0.985 . S
C594 C588 1.379 . S
C594 C591 1.363 . S
C594 N592 1.356 . S
C595 C589 1.363 . S
C595 C590 1.379 . S
C595 N593 1.356 . S
N596 C588 1.356 . S
N596 H602 0.984 . S
N596 H603 0.984 . S
N597 C590 1.356 . S
N597 H600 0.984 . S
N597 H601 0.985 . S
H598 N593 0.984 . S
H599 N593 0.985 . S
H600 N597 0.984 . S
H601 N597 0.985 . S
H602 N596 0.984 . S
H603 N596 0.984 . S
H604 N592 0.984 . S
H605 N592 0.985 . S
C606 C607 1.363 . S
C606 C612 1.379 . S
C606 N614 1.356 . S
C607 C606 1.363 . S
C607 C613 1.363 . S
C608 C609 1.363 . S
C608 C613 1.379 1_655 S
C608 N615 1.356 . S
C609 C608 1.363 . S
C609 C612 1.363 1_655 S
N610 C612 1.356 1_655 S
N610 H622 0.984 1_655 S
N610 H623 0.985 . S
N611 C613 1.356 . S
N611 H616 0.984 . S
N611 H617 0.985 . S
C612 C606 1.379 . S
C612 C609 1.363 1_455 S
C612 N610 1.356 1_455 S
C613 C607 1.363 . S
C613 C608 1.379 1_455 S
C613 N611 1.356 . S
N614 C606 1.356 . S
N614 H620 0.984 . S
N614 H621 0.984 . S
N615 C608 1.356 . S
N615 H618 0.984 . S
N615 H619 0.985 . S
H616 N611 0.984 . S
H617 N611 0.985 . S
H618 N615 0.984 . S
H619 N615 0.985 . S
H620 N614 0.984 . S
H621 N614 0.984 . S
H622 N610 0.984 1_455 S
H623 N610 0.985 . S
C624 C625 1.363 . S
C624 C630 1.379 . S
C624 N632 1.356 . S
C625 C624 1.363 . S
C625 C631 1.363 . S
C626 C627 1.355 1_565 S
C626 C631 1.388 . S
C626 N633 1.352 1_565 S
C627 C626 1.355 1_545 S
C627 C630 1.363 1_545 S
N628 C630 1.356 1_545 S
N628 H640 0.984 . S
N628 H641 0.985 . S
N629 C631 1.356 . S
N629 H634 0.984 . S
N629 H635 0.985 . S
C630 C624 1.379 . S
C630 C627 1.363 1_565 S
C630 N628 1.356 1_565 S
C631 C625 1.363 . S
C631 C626 1.388 . S
C631 N629 1.356 . S
N632 C624 1.356 . S
N632 H638 0.984 . S
N632 H639 0.984 . S
N633 C626 1.352 1_545 S
N633 H636 0.984 . S
N633 H637 0.985 . S
H634 N629 0.984 . S
H635 N629 0.985 . S
H636 N633 0.984 . S
H637 N633 0.985 . S
H638 N632 0.984 . S
H639 N632 0.984 . S
H640 N628 0.984 . S
H641 N628 0.985 . S
C642 C643 1.363 . S
C642 C648 1.379 . S
C642 N650 1.356 . S
C643 C642 1.363 . S
C643 C649 1.363 . S
C644 C645 1.363 . S
C644 C649 1.379 . S
C644 N651 1.356 . S
C645 C644 1.363 . S
C645 C648 1.363 . S
N646 C648 1.356 . S
N646 H658 0.984 . S
N646 H659 0.985 . S
N647 C649 1.356 . S
N647 H652 0.984 . S
N647 H653 0.985 . S
C648 C642 1.379 . S
C648 C645 1.363 . S
C648 N646 1.356 . S
C649 C643 1.363 . S
C649 C644 1.379 . S
C649 N647 1.356 . S
N650 C642 1.356 . S
N650 H656 0.984 . S
N650 H657 0.984 . S
N651 C644 1.356 . S
N651 H654 0.984 . S
N651 H655 0.985 . S
H652 N647 0.984 . S
H653 N647 0.985 . S
H654 N651 0.984 . S
H655 N651 0.985 . S
H656 N650 0.984 . S
H657 N650 0.984 . S
H658 N646 0.984 . S
H659 N646 0.985 . S
C660 C661 1.363 . S
C660 C666 1.388 . S
C660 N668 1.356 . S
C661 C660 1.363 . S
C661 C667 1.363 . S
C662 C663 1.363 1_455 S
C662 C667 1.379 . S
C662 N669 1.356 1_455 S
C663 C662 1.363 1_655 S
C663 C666 1.361 1_655 S
N664 C666 1.347 1_655 S
N664 H676 0.984 . S
N664 H677 0.985 . S
N665 C667 1.356 . S
N665 H670 0.984 . S
N665 H671 0.985 . S
C666 C660 1.388 . S
C666 C663 1.361 1_455 S
C666 N664 1.347 1_455 S
C667 C661 1.363 . S
C667 C662 1.379 . S
C667 N665 1.356 . S
N668 C660 1.356 . S
N668 H674 0.984 . S
N668 H675 0.984 . S
N669 C662 1.356 1_655 S
N669 H672 0.984 . S
N669 H673 0.985 . S
H670 N665 0.984 . S
H671 N665 0.985 . S
H672 N669 0.984 . S
H673 N669 0.985 . S
H674 N668 0.984 . S
H675 N668 0.984 . S
H676 N664 0.984 . S
H677 N664 0.985 . S
C678 C679 1.363 1_565 S
C678 C684 1.379 . S
C678 N686 1.356 1_565 S
C679 C678 1.363 1_545 S
C679 C685 1.355 1_545 S
C680 C681 1.363 . S
C680 C685 1.388 . S
C680 N687 1.356 . S
C681 C680 1.363 . S
C681 C684 1.363 . S
N682 C684 1.356 . S
N682 H694 0.984 . S
N682 H695 0.985 . S
N683 C685 1.352 1_545 S
N683 H688 0.984 . S
N683 H689 0.985 . S
C684 C678 1.379 . S
C684 C681 1.363 . S
C684 N682 1.356 . S
C685 C679 1.355 1_565 S
C685 C680 1.388 . S
C685 N683 1.352 1_565 S
N686 C678 1.356 1_545 S
N686 H692 0.984 . S
N686 H693 0.984 . S
N687 C680 1.356 . S
N687 H690 0.984 . S
N687 H691 0.985 . S
H688 N683 0.984 . S
H689 N683 0.985 . S
H690 N687 0.984 . S
H691 N687 0.985 . S
H692 N686 0.984 . S
H693 N686 0.984 . S
H694 N682 0.984 . S
H695 N682 0.985 . S
C696 C697 1.363 . S
C696 C702 1.379 . S
C696 N704 1.356 . S
C697 C696 1.363 . S
C697 C703 1.363 . S
C698 C699 1.363 . S
C698 C703 1.379 . S
C698 N705 1.356 . S
C699 C698 1.363 . S
C699 C702 1.363 . S
N700 C702 1.356 . S
N700 H712 0.984 . S
N700 H713 0.985 . S
N701 C703 1.356 . S
N701 H706 0.984 . S
N701 H707 0.985 . S
C702 C696 1.379 . S
C702 C699 1.363 . S
C702 N700 1.356 . S
C703 C697 1.363 . S
C703 C698 1.379 . S
C703 N701 1.356 . S
N704 C696 1.356 . S
N704 H710 0.984 . S
N704 H711 0.984 . S
N705 C698 1.356 . S
N705 H708 0.984 . S
N705 H709 0.985 . S
H706 N701 0.984 . S
H707 N701 0.985 . S
H708 N705 0.984 . S
H709 N705 0.985 . S
H710 N704 0.984 . S
H711 N704 0.984 . S
H712 N700 0.984 . S
H713 N700 0.985 . S
C714 C715 1.363 . S
C714 C720 1.379 . S
C714 N722 1.356 . S
C715 C714 1.363 . S
C715 C721 1.363 . S
C716 C717 1.363 . S
C716 C721 1.379 . S
C716 N723 1.356 . S
C717 C716 1.363 . S
C717 C720 1.363 . S
N718 C720 1.356 . S
N718 H730 0.984 . S
N718 H731 0.985 . S
N719 C721 1.356 . S
N719 H724 0.984 . S
N719 H725 0.985 . S
C720 C714 1.379 . S
C720 C717 1.363 . S
C720 N718 1.356 . S
C721 C715 1.363 . S
C721 C716 1.379 . S
C721 N719 1.356 . S
N722 C714 1.356 . S
N722 H728 0.984 . S
N722 H729 0.984 . S
N723 C716 1.356 . S
N723 H726 0.984 . S
N723 H727 0.985 . S
H724 N719 0.984 . S
H725 N719 0.985 . S
H726 N723 0.984 . S
H727 N723 0.985 . S
H728 N722 0.984 . S
H729 N722 0.984 . S
H730 N718 0.984 . S
H731 N718 0.985 . S
C732 C733 1.363 . S
C732 C738 1.379 . S
C732 N740 1.356 . S
C733 C732 1.363 . S
C733 C739 1.363 . S
C734 C735 1.363 . S
C734 C739 1.379 . S
C734 N741 1.356 . S
C735 C734 1.363 . S
C735 C738 1.363 . S
N736 C738 1.356 . S
N736 H748 0.984 . S
N736 H749 0.985 . S
N737 C739 1.356 . S
N737 H742 0.984 . S
N737 H743 0.985 . S
C738 C732 1.379 . S
C738 C735 1.363 . S
C738 N736 1.356 . S
C739 C733 1.363 . S
C739 C734 1.379 . S
C739 N737 1.356 . S
N740 C732 1.356 . S
N740 H746 0.984 . S
N740 H747 0.984 . S
N741 C734 1.356 . S
N741 H744 0.984 . S
N741 H745 0.985 . S
H742 N737 0.984 . S
H743 N737 0.985 . S
H744 N741 0.984 . S
H745 N741 0.985 . S
H746 N740 0.984 . S
H747 N740 0.984 . S
H748 N736 0.984 . S
H749 N736 0.985 . S
C750 C751 1.363 . S
C750 C756 1.379 . S
C750 N758 1.356 . S
C751 C750 1.363 . S
C751 C757 1.363 . S
C752 C753 1.363 . S
C752 C757 1.379 . S
C752 N759 1.356 . S
C753 C752 1.363 . S
C753 C756 1.363 . S
N754 C756 1.356 . S
N754 H766 0.984 . S
N754 H767 0.985 . S
N755 C757 1.356 . S
N755 H760 0.984 . S
N755 H761 0.985 . S
C756 C750 1.379 . S
C756 C753 1.363 . S
C756 N754 1.356 . S
C757 C751 1.363 . S
C757 C752 1.379 . S
C757 N755 1.356 . S
N758 C750 1.356 . S
N758 H764 0.984 . S
N758 H765 0.984 . S
N759 C752 1.356 . S
N759 H762 0.984 . S
N759 H763 0.985 . S
H760 N755 0.984 . S
H761 N755 0.985 . S
H762 N759 0.984 . S
H763 N759 0.985 . S
H764 N758 0.984 . S
H765 N758 0.984 . S
H766 N754 0.984 . S
H767 N754 0.985 . S
C768 C769 1.363 . S
C768 C774 1.379 . S
C768 N776 1.356 . S
C769 C768 1.363 . S
C769 C775 1.363 . S
C770 C771 1.363 . S
C770 C775 1.379 . S
C770 N777 1.356 . S
C771 C770 1.363 . S
C771 C774 1.363 . S
N772 C774 1.356 . S
N772 H784 0.984 . S
N772 H785 0.985 . S
N773 C775 1.356 . S
N773 H778 0.984 . S
N773 H779 0.985 . S
C774 C768 1.379 . S
C774 C771 1.363 . S
C774 N772 1.356 . S
C775 C769 1.363 . S
C775 C770 1.379 . S
C775 N773 1.356 . S
N776 C768 1.356 . S
N776 H782 0.984 . S
N776 H783 0.984 . S
N777 C770 1.356 . S
N777 H780 0.984 . S
N777 H781 0.985 . S
H778 N773 0.984 . S
H779 N773 0.985 . S
H780 N777 0.984 . S
H781 N777 0.985 . S
H782 N776 0.984 . S
H783 N776 0.984 . S
H784 N772 0.984 . S
H785 N772 0.985 . S
C786 C787 1.363 . S
C786 C792 1.379 . S
C786 N794 1.356 . S
C787 C786 1.363 . S
C787 C793 1.363 . S
C788 C789 1.363 . S
C788 C793 1.379 . S
C788 N795 1.356 . S
C789 C788 1.363 . S
C789 C792 1.363 . S
N790 C792 1.356 . S
N790 H802 0.984 . S
N790 H803 0.985 . S
N791 C793 1.356 . S
N791 H796 0.984 . S
N791 H797 0.985 . S
C792 C786 1.379 . S
C792 C789 1.363 . S
C792 N790 1.356 . S
C793 C787 1.363 . S
C793 C788 1.379 . S
C793 N791 1.356 . S
N794 C786 1.356 . S
N794 H800 0.984 . S
N794 H801 0.984 . S
N795 C788 1.356 . S
N795 H798 0.984 . S
N795 H799 0.985 . S
H796 N791 0.984 . S
H797 N791 0.985 . S
H798 N795 0.984 . S
H799 N795 0.985 . S
H800 N794 0.984 . S
H801 N794 0.984 . S
H802 N790 0.984 . S
H803 N790 0.985 . S
C804 C805 1.363 . S
C804 C810 1.379 1_565 S
C804 N812 1.356 . S
C805 C804 1.363 . S
C805 C811 1.363 1_556 S
C806 C807 1.363 . S
C806 C811 1.379 1_545 S
C806 N813 1.356 . S
C807 C806 1.363 . S
C807 C810 1.363 1_554 S
N808 C810 1.356 . S
N808 H820 0.984 . S
N808 H821 0.985 . S
N809 C811 1.356 . S
N809 H814 0.984 . S
N809 H815 0.985 . S
C810 C804 1.379 1_545 S
C810 C807 1.363 1_556 S
C810 N808 1.356 . S
C811 C805 1.363 1_554 S
C811 C806 1.379 1_565 S
C811 N809 1.356 . S
N812 C804 1.356 . S
N812 H818 0.984 . S
N812 H819 0.984 . S
N813 C806 1.356 . S
N813 H816 0.984 . S
N813 H817 0.985 . S
H814 N809 0.984 . S
H815 N809 0.985 . S
H816 N813 0.984 . S
H817 N813 0.985 . S
H818 N812 0.984 . S
H819 N812 0.984 . S
H820 N808 0.984 . S
H821 N808 0.985 . S
C822 C823 1.363 . S
C822 C828 1.379 . S
C822 N830 1.356 . S
C823 C822 1.363 . S
C823 C829 1.363 . S
C824 C825 1.363 . S
C824 C829 1.379 . S
C824 N831 1.356 . S
C825 C824 1.363 . S
C825 C828 1.363 . S
N826 C828 1.356 . S
N826 H838 0.984 . S
N826 H839 0.985 . S
N827 C829 1.356 . S
N827 H832 0.984 . S
N827 H833 0.985 . S
C828 C822 1.379 . S
C828 C825 1.363 . S
C828 N826 1.356 . S
C829 C823 1.363 . S
C829 C824 1.379 . S
C829 N827 1.356 . S
N830 C822 1.356 . S
N830 H836 0.984 . S
N830 H837 0.984 . S
N831 C824 1.356 . S
N831 H834 0.984 . S
N831 H835 0.985 . S
H832 N827 0.984 . S
H833 N827 0.985 . S
H834 N831 0.984 . S
H835 N831 0.985 . S
H836 N830 0.984 . S
H837 N830 0.984 . S
H838 N826 0.984 . S
H839 N826 0.985 . S
C840 C841 1.363 . S
C840 C846 1.379 1_455 S
C840 N848 1.356 . S
C841 C840 1.363 . S
C841 C847 1.363 1_556 S
C842 C843 1.363 . S
C842 C847 1.379 1_655 S
C842 N849 1.356 . S
C843 C842 1.363 . S
C843 C846 1.363 1_554 S
N844 C846 1.356 . S
N844 H856 0.984 . S
N844 H857 0.985 . S
N845 C847 1.356 . S
N845 H850 0.984 . S
N845 H851 0.985 . S
C846 C840 1.379 1_655 S
C846 C843 1.363 1_556 S
C846 N844 1.356 . S
C847 C841 1.363 1_554 S
C847 C842 1.379 1_455 S
C847 N845 1.356 . S
N848 C840 1.356 . S
N848 H854 0.984 . S
N848 H855 0.984 . S
N849 C842 1.356 . S
N849 H852 0.984 . S
N849 H853 0.985 . S
H850 N845 0.984 . S
H851 N845 0.985 . S
H852 N849 0.984 . S
H853 N849 0.985 . S
H854 N848 0.984 . S
H855 N848 0.984 . S
H856 N844 0.984 . S
H857 N844 0.985 . S
C858 C859 1.363 . S
C858 C864 1.379 1_545 S
C858 N866 1.356 . S
C859 C858 1.363 . S
C859 C865 1.363 . S
C860 C861 1.363 . S
C860 C865 1.379 1_565 S
C860 N867 1.356 . S
C861 C860 1.363 . S
C861 C864 1.363 . S
N862 C864 1.356 . S
N862 H874 0.984 . S
N862 H875 0.985 . S
N863 C865 1.356 . S
N863 H868 0.984 . S
N863 H869 0.985 . S
C864 C858 1.379 1_565 S
C864 C861 1.363 . S
C864 N862 1.356 . S
C865 C859 1.363 . S
C865 C860 1.379 1_545 S
C865 N863 1.356 . S
N866 C858 1.356 . S
N866 H872 0.984 . S
N866 H873 0.984 . S
N867 C860 1.356 . S
N867 H870 0.984 . S
N867 H871 0.985 . S
H868 N863 0.984 . S
H869 N863 0.985 . S
H870 N867 0.984 . S
H871 N867 0.985 . S
H872 N866 0.984 . S
H873 N866 0.984 . S
H874 N862 0.984 . S
H875 N862 0.985 . S
C876 C877 1.363 1_556 S
C876 C882 1.379 . S
C876 N884 1.356 . S
C877 C876 1.363 1_554 S
C877 C883 1.363 . S
C878 C879 1.363 1_554 S
C878 C883 1.379 . S
C878 N885 1.356 . S
C879 C878 1.363 1_556 S
C879 C882 1.363 . S
N880 C882 1.356 . S
N880 H892 0.984 . S
N880 H893 0.985 . S
N881 C883 1.356 . S
N881 H886 0.984 . S
N881 H887 0.985 . S
C882 C876 1.379 . S
C882 C879 1.363 . S
C882 N880 1.356 . S
C883 C877 1.363 . S
C883 C878 1.379 . S
C883 N881 1.356 . S
N884 C876 1.356 . S
N884 H890 0.984 . S
N884 H891 0.984 . S
N885 C878 1.356 . S
N885 H888 0.984 . S
N885 H889 0.985 . S
H886 N881 0.984 . S
H887 N881 0.985 . S
H888 N885 0.984 . S
H889 N885 0.985 . S
H890 N884 0.984 . S
H891 N884 0.984 . S
H892 N880 0.984 . S
H893 N880 0.985 . S
C894 C895 1.363 . S
C894 C900 1.379 1_455 S
C894 N902 1.356 . S
C895 C894 1.363 . S
C895 C901 1.363 . S
C896 C897 1.363 . S
C896 C901 1.379 1_655 S
C896 N903 1.356 . S
C897 C896 1.363 . S
C897 C900 1.363 . S
N898 C900 1.356 . S
N898 H910 0.984 . S
N898 H911 0.985 . S
N899 C901 1.356 . S
N899 H904 0.984 . S
N899 H905 0.985 . S
C900 C894 1.379 1_655 S
C900 C897 1.363 . S
C900 N898 1.356 . S
C901 C895 1.363 . S
C901 C896 1.379 1_455 S
C901 N899 1.356 . S
N902 C894 1.356 . S
N902 H908 0.984 . S
N902 H909 0.984 . S
N903 C896 1.356 . S
N903 H906 0.984 . S
N903 H907 0.985 . S
H904 N899 0.984 . S
H905 N899 0.985 . S
H906 N903 0.984 . S
H907 N903 0.985 . S
H908 N902 0.984 . S
H909 N902 0.984 . S
H910 N898 0.984 . S
H911 N898 0.985 . S
C912 C913 1.363 . S
C912 C918 1.379 . S
C912 N920 1.356 . S
C913 C912 1.363 . S
C913 C919 1.363 . S
C914 C915 1.363 . S
C914 C919 1.379 . S
C914 N921 1.356 . S
C915 C914 1.363 . S
C915 C918 1.363 . S
N916 C918 1.356 . S
N916 H928 0.984 . S
N916 H929 0.985 . S
N917 C919 1.356 . S
N917 H922 0.984 . S
N917 H923 0.985 . S
C918 C912 1.379 . S
C918 C915 1.363 . S
C918 N916 1.356 . S
C919 C913 1.363 . S
C919 C914 1.379 . S
C919 N917 1.356 . S
N920 C912 1.356 . S
N920 H926 0.984 . S
N920 H927 0.984 . S
N921 C914 1.356 . S
N921 H924 0.984 . S
N921 H925 0.985 . S
H922 N917 0.984 . S
H923 N917 0.985 . S
H924 N921 0.984 . S
H925 N921 0.985 . S
H926 N920 0.984 . S
H927 N920 0.984 . S
H928 N916 0.984 . S
H929 N916 0.985 . S
C930 C931 1.363 . S
C930 C936 1.379 . S
C930 N938 1.356 . S
C931 C930 1.363 . S
C931 C937 1.363 . S
C932 C933 1.363 . S
C932 C937 1.379 . S
C932 N939 1.356 . S
C933 C932 1.363 . S
C933 C936 1.363 . S
N934 C936 1.356 . S
N934 H946 0.984 . S
N934 H947 0.985 . S
N935 C937 1.356 . S
N935 H940 0.984 . S
N935 H941 0.985 . S
C936 C930 1.379 . S
C936 C933 1.363 . S
C936 N934 1.356 . S
C937 C931 1.363 . S
C937 C932 1.379 . S
C937 N935 1.356 . S
N938 C930 1.356 . S
N938 H944 0.984 . S
N938 H945 0.984 . S
N939 C932 1.356 . S
N939 H942 0.984 . S
N939 H943 0.985 . S
H940 N935 0.984 . S
H941 N935 0.985 . S
H942 N939 0.984 . S
H943 N939 0.985 . S
H944 N938 0.984 . S
H945 N938 0.984 . S
H946 N934 0.984 . S
H947 N934 0.985 . S
C948 C949 1.363 . S
C948 C954 1.379 . S
C948 N956 1.356 . S
C949 C948 1.363 . S
C949 C955 1.363 . S
C950 C951 1.363 . S
C950 C955 1.379 . S
C950 N957 1.356 . S
C951 C950 1.363 . S
C951 C954 1.363 . S
N952 C954 1.356 . S
N952 H964 0.984 . S
N952 H965 0.985 . S
N953 C955 1.356 . S
N953 H958 0.984 . S
N953 H959 0.985 . S
C954 C948 1.379 . S
C954 C951 1.363 . S
C954 N952 1.356 . S
C955 C949 1.363 . S
C955 C950 1.379 . S
C955 N953 1.356 . S
N956 C948 1.356 . S
N956 H962 0.984 . S
N956 H963 0.984 . S
N957 C950 1.356 . S
N957 H960 0.984 . S
N957 H961 0.985 . S
H958 N953 0.984 . S
H959 N953 0.985 . S
H960 N957 0.984 . S
H961 N957 0.985 . S
H962 N956 0.984 . S
H963 N956 0.984 . S
H964 N952 0.984 . S
H965 N952 0.985 . S
C966 C967 1.363 . S
C966 C972 1.379 . S
C966 N974 1.356 . S
C967 C966 1.363 . S
C967 C973 1.363 . S
C968 C969 1.363 . S
C968 C973 1.379 . S
C968 N975 1.356 . S
C969 C968 1.363 . S
C969 C972 1.363 . S
N970 C972 1.356 . S
N970 H982 0.984 . S
N970 H983 0.985 . S
N971 C973 1.356 . S
N971 H976 0.984 . S
N971 H977 0.985 . S
C972 C966 1.379 . S
C972 C969 1.363 . S
C972 N970 1.356 . S
C973 C967 1.363 . S
C973 C968 1.379 . S
C973 N971 1.356 . S
N974 C966 1.356 . S
N974 H980 0.984 . S
N974 H981 0.984 . S
N975 C968 1.356 . S
N975 H978 0.984 . S
N975 H979 0.985 . S
H976 N971 0.984 . S
H977 N971 0.985 . S
H978 N975 0.984 . S
H979 N975 0.985 . S
H980 N974 0.984 . S
H981 N974 0.984 . S
H982 N970 0.984 . S
H983 N970 0.985 . S
C984 C985 1.363 . S
C984 C990 1.379 . S
C984 N992 1.356 . S
C985 C984 1.363 . S
C985 C991 1.363 . S
C986 C987 1.363 . S
C986 C991 1.379 . S
C986 N993 1.356 . S
C987 C986 1.363 . S
C987 C990 1.363 . S
N988 C990 1.356 . S
N988 H1000 0.984 . S
N988 H1001 0.985 . S
N989 C991 1.356 . S
N989 H994 0.984 . S
N989 H995 0.985 . S
C990 C984 1.379 . S
C990 C987 1.363 . S
C990 N988 1.356 . S
C991 C985 1.363 . S
C991 C986 1.379 . S
C991 N989 1.356 . S
N992 C984 1.356 . S
N992 H998 0.984 . S
N992 H999 0.984 . S
N993 C986 1.356 . S
N993 H996 0.984 . S
N993 H997 0.985 . S
H994 N989 0.984 . S
H995 N989 0.985 . S
H996 N993 0.984 . S
H997 N993 0.985 . S
H998 N992 0.984 . S
H999 N992 0.984 . S
H1000 N988 0.984 . S
H1001 N988 0.985 . S
C1002 C1003 1.363 . S
C1002 C1008 1.379 . S
C1002 N1010 1.356 . S
C1003 C1002 1.363 . S
C1003 C1009 1.363 . S
C1004 C1005 1.363 . S
C1004 C1009 1.379 . S
C1004 N1011 1.356 . S
C1005 C1004 1.363 . S
C1005 C1008 1.363 . S
N1006 C1008 1.356 . S
N1006 H1018 0.984 . S
N1006 H1019 0.985 . S
N1007 C1009 1.356 . S
N1007 H1012 0.984 . S
N1007 H1013 0.985 . S
C1008 C1002 1.379 . S
C1008 C1005 1.363 . S
C1008 N1006 1.356 . S
C1009 C1003 1.363 . S
C1009 C1004 1.379 . S
C1009 N1007 1.356 . S
N1010 C1002 1.356 . S
N1010 H1016 0.984 . S
N1010 H1017 0.984 . S
N1011 C1004 1.356 . S
N1011 H1014 0.984 . S
N1011 H1015 0.985 . S
H1012 N1007 0.984 . S
H1013 N1007 0.985 . S
H1014 N1011 0.984 . S
H1015 N1011 0.985 . S
H1016 N1010 0.984 . S
H1017 N1010 0.984 . S
H1018 N1006 0.984 . S
H1019 N1006 0.985 . S
C1020 C1021 1.363 . S
C1020 C1026 1.379 . S
C1020 N1028 1.356 . S
C1021 C1020 1.363 . S
C1021 C1027 1.363 . S
C1022 C1023 1.363 . S
C1022 C1027 1.379 . S
C1022 N1029 1.356 . S
C1023 C1022 1.363 . S
C1023 C1026 1.363 . S
N1024 C1026 1.356 . S
N1024 H1036 0.984 . S
N1024 H1037 0.985 . S
N1025 C1027 1.356 . S
N1025 H1030 0.984 . S
N1025 H1031 0.985 . S
C1026 C1020 1.379 . S
C1026 C1023 1.363 . S
C1026 N1024 1.356 . S
C1027 C1021 1.363 . S
C1027 C1022 1.379 . S
C1027 N1025 1.356 . S
N1028 C1020 1.356 . S
N1028 H1034 0.984 . S
N1028 H1035 0.984 . S
N1029 C1022 1.356 . S
N1029 H1032 0.984 . S
N1029 H1033 0.985 . S
H1030 N1025 0.984 . S
H1031 N1025 0.985 . S
H1032 N1029 0.984 . S
H1033 N1029 0.985 . S
H1034 N1028 0.984 . S
H1035 N1028 0.984 . S
H1036 N1024 0.984 . S
H1037 N1024 0.985 . S
C1038 C1039 1.363 . S
C1038 C1044 1.379 . S
C1038 N1046 1.356 . S
C1039 C1038 1.363 . S
C1039 C1045 1.363 . S
C1040 C1041 1.363 . S
C1040 C1045 1.379 . S
C1040 N1047 1.356 . S
C1041 C1040 1.363 . S
C1041 C1044 1.363 . S
N1042 C1044 1.356 . S
N1042 H1054 0.984 . S
N1042 H1055 0.985 . S
N1043 C1045 1.356 . S
N1043 H1048 0.984 . S
N1043 H1049 0.985 . S
C1044 C1038 1.379 . S
C1044 C1041 1.363 . S
C1044 N1042 1.356 . S
C1045 C1039 1.363 . S
C1045 C1040 1.379 . S
C1045 N1043 1.356 . S
N1046 C1038 1.356 . S
N1046 H1052 0.984 . S
N1046 H1053 0.984 . S
N1047 C1040 1.356 . S
N1047 H1050 0.984 . S
N1047 H1051 0.985 . S
H1048 N1043 0.984 . S
H1049 N1043 0.985 . S
H1050 N1047 0.984 . S
H1051 N1047 0.985 . S
H1052 N1046 0.984 . S
H1053 N1046 0.984 . S
H1054 N1042 0.984 . S
H1055 N1042 0.985 . S
C1056 C1057 1.363 . S
C1056 C1062 1.379 . S
C1056 N1064 1.356 . S
C1057 C1056 1.363 . S
C1057 C1063 1.363 . S
C1058 C1059 1.363 . S
C1058 C1063 1.379 . S
C1058 N1065 1.356 . S
C1059 C1058 1.363 . S
C1059 C1062 1.363 . S
N1060 C1062 1.356 . S
N1060 H1072 0.984 . S
N1060 H1073 0.985 . S
N1061 C1063 1.356 . S
N1061 H1066 0.984 . S
N1061 H1067 0.985 . S
C1062 C1056 1.379 . S
C1062 C1059 1.363 . S
C1062 N1060 1.356 . S
C1063 C1057 1.363 . S
C1063 C1058 1.379 . S
C1063 N1061 1.356 . S
N1064 C1056 1.356 . S
N1064 H1070 0.984 . S
N1064 H1071 0.984 . S
N1065 C1058 1.356 . S
N1065 H1068 0.984 . S
N1065 H1069 0.985 . S
H1066 N1061 0.984 . S
H1067 N1061 0.985 . S
H1068 N1065 0.984 . S
H1069 N1065 0.985 . S
H1070 N1064 0.984 . S
H1071 N1064 0.984 . S
H1072 N1060 0.984 . S
H1073 N1060 0.985 . S
C1074 C1075 1.363 . S
C1074 C1080 1.379 . S
C1074 N1082 1.356 . S
C1075 C1074 1.363 . S
C1075 C1081 1.363 . S
C1076 C1077 1.363 . S
C1076 C1081 1.379 . S
C1076 N1083 1.356 . S
C1077 C1076 1.363 . S
C1077 C1080 1.363 . S
N1078 C1080 1.356 . S
N1078 H1090 0.984 . S
N1078 H1091 0.985 . S
N1079 C1081 1.356 . S
N1079 H1084 0.984 . S
N1079 H1085 0.985 . S
C1080 C1074 1.379 . S
C1080 C1077 1.363 . S
C1080 N1078 1.356 . S
C1081 C1075 1.363 . S
C1081 C1076 1.379 . S
C1081 N1079 1.356 . S
N1082 C1074 1.356 . S
N1082 H1088 0.984 . S
N1082 H1089 0.984 . S
N1083 C1076 1.356 . S
N1083 H1086 0.984 . S
N1083 H1087 0.985 . S
H1084 N1079 0.984 . S
H1085 N1079 0.985 . S
H1086 N1083 0.984 . S
H1087 N1083 0.985 . S
H1088 N1082 0.984 . S
H1089 N1082 0.984 . S
H1090 N1078 0.984 . S
H1091 N1078 0.985 . S
C1092 C1093 1.363 . S
C1092 C1098 1.379 . S
C1092 N1100 1.356 . S
C1093 C1092 1.363 . S
C1093 C1099 1.363 . S
C1094 C1095 1.363 . S
C1094 C1099 1.379 . S
C1094 N1101 1.356 . S
C1095 C1094 1.363 . S
C1095 C1098 1.363 . S
N1096 C1098 1.356 . S
N1096 H1108 0.984 . S
N1096 H1109 0.985 . S
N1097 C1099 1.356 . S
N1097 H1102 0.984 . S
N1097 H1103 0.985 . S
C1098 C1092 1.379 . S
C1098 C1095 1.363 . S
C1098 N1096 1.356 . S
C1099 C1093 1.363 . S
C1099 C1094 1.379 . S
C1099 N1097 1.356 . S
N1100 C1092 1.356 . S
N1100 H1106 0.984 . S
N1100 H1107 0.984 . S
N1101 C1094 1.356 . S
N1101 H1104 0.984 . S
N1101 H1105 0.985 . S
H1102 N1097 0.984 . S
H1103 N1097 0.985 . S
H1104 N1101 0.984 . S
H1105 N1101 0.985 . S
H1106 N1100 0.984 . S
H1107 N1100 0.984 . S
H1108 N1096 0.984 . S
H1109 N1096 0.985 . S
C1110 C1111 1.363 . S
C1110 C1116 1.379 . S
C1110 N1118 1.356 . S
C1111 C1110 1.363 . S
C1111 C1117 1.363 . S
C1112 C1113 1.363 . S
C1112 C1117 1.379 . S
C1112 N1119 1.356 . S
C1113 C1112 1.363 . S
C1113 C1116 1.363 . S
N1114 C1116 1.356 . S
N1114 H1126 0.984 . S
N1114 H1127 0.985 . S
N1115 C1117 1.356 . S
N1115 H1120 0.984 . S
N1115 H1121 0.985 . S
C1116 C1110 1.379 . S
C1116 C1113 1.363 . S
C1116 N1114 1.356 . S
C1117 C1111 1.363 . S
C1117 C1112 1.379 . S
C1117 N1115 1.356 . S
N1118 C1110 1.356 . S
N1118 H1124 0.984 . S
N1118 H1125 0.984 . S
N1119 C1112 1.356 . S
N1119 H1122 0.984 . S
N1119 H1123 0.985 . S
H1120 N1115 0.984 . S
H1121 N1115 0.985 . S
H1122 N1119 0.984 . S
H1123 N1119 0.985 . S
H1124 N1118 0.984 . S
H1125 N1118 0.984 . S
H1126 N1114 0.984 . S
H1127 N1114 0.985 . S
C481 C106 1.373 . S
C483 C3 1.350 . S
C499 C129 1.373 . S
C501 C62 1.350 . S
C517 C83 1.350 . S
C519 C186 1.373 . S
C535 C142 1.350 . S
C537 C209 1.373 . S
C553 C26 1.373 . S
C555 C163 1.350 . S
C571 C49 1.373 . S
C573 C222 1.350 . S
C589 C409 1.373 . S
C591 C262 1.350 . S
C607 C283 1.350 . S
C609 C466 1.373 . S
C625 C342 1.350 . S
C627 C249 1.373 . S
C643 C363 1.350 . S
C645 C306 1.373 . S
C661 C422 1.350 . S
C663 C329 1.373 . S
C679 C386 1.373 . S
C681 C443 1.350 . S
C697 C122 1.738 . S
C699 C15 1.738 . S
C715 C42 1.738 . S
C717 C175 1.738 . S
C733 C95 1.738 . S
C735 C202 1.738 . S
C751 C242 1.738 . S
C753 C375 1.738 . S
C769 C295 1.738 . S
C771 C402 1.738 . S
C787 C322 1.738 . S
C789 C455 1.738 . S
C805 C282 2.499 . S
C807 C2 2.499 . S
C823 C55 2.498 . S
C825 C335 2.498 . S
C841 C362 2.499 . S
C843 C82 2.499 . S
C859 C135 2.499 . S
C861 C415 2.499 . S
C877 C162 2.498 . S
C879 C442 2.498 . S
C895 C255 2.499 . S
C897 C215 2.499 . S
C913 C89 1.721 . S
C915 C22 1.784 . S
C931 C43 1.784 . S
C933 C146 1.721 . S
C949 C102 1.784 . S
C951 C169 1.721 . S
C967 C123 1.784 . S
C969 C226 1.721 . S
C985 C9 1.721 . S
C987 C182 1.784 . S
C1003 C66 1.721 . S
C1005 C203 1.784 . S
C1021 C426 1.721 . S
C1023 C243 1.784 . S
C1039 C302 1.784 . S
C1041 C449 1.721 . S
C1057 C323 1.784 . S
C1059 C266 1.721 . S
C1075 C289 1.721 . S
C1077 C382 1.784 . S
C1093 C403 1.784 . S
C1095 C346 1.721 . S
C1111 C462 1.784 . S
C1113 C369 1.721 . S
