# Generated by pormake.
# Topology upc, (4)-cn, num edge types: 1
# Building blocks:
#     Node 0, Type 0, BuildingBlock: CEKHIL_clean_sbu_0, # of connection points: 4
#     Node 1, Type 0, BuildingBlock: CEKHIL_clean_sbu_0, # of connection points: 4
#     Node 2, Type 0, BuildingBlock: CEKHIL_clean_sbu_0, # of connection points: 4
#     Node 3, Type 0, BuildingBlock: CEKHIL_clean_sbu_0, # of connection points: 4
#     Node 4, Type 0, BuildingBlock: CEKHIL_clean_sbu_0, # of connection points: 4
#     Node 5, Type 0, BuildingBlock: CEKHIL_clean_sbu_0, # of connection points: 4
#     Node 6, Type 0, BuildingBlock: CEKHIL_clean_sbu_0, # of connection points: 4
#     Node 7, Type 0, BuildingBlock: CEKHIL_clean_sbu_0, # of connection points: 4
#     Node 8, Type 0, BuildingBlock: CEKHIL_clean_sbu_0, # of connection points: 4
#     Node 9, Type 0, BuildingBlock: CEKHIL_clean_sbu_0, # of connection points: 4
#     Node 10, Type 0, BuildingBlock: CEKHIL_clean_sbu_0, # of connection points: 4
#     Node 11, Type 0, BuildingBlock: CEKHIL_clean_sbu_0, # of connection points: 4
#     Node 12, Type 0, BuildingBlock: CEKHIL_clean_sbu_0, # of connection points: 4
#     Node 13, Type 0, BuildingBlock: CEKHIL_clean_sbu_0, # of connection points: 4
#     Node 14, Type 0, BuildingBlock: CEKHIL_clean_sbu_0, # of connection points: 4
#     Node 15, Type 0, BuildingBlock: CEKHIL_clean_sbu_0, # of connection points: 4
#     Edge 16, Type (0, 0), BuildingBlock: OJICUG_clean_linker_0, # of connection points: 2
#     Edge 17, Type (0, 0), BuildingBlock: OJICUG_clean_linker_0, # of connection points: 2
#     Edge 18, Type (0, 0), BuildingBlock: OJICUG_clean_linker_0, # of connection points: 2
#     Edge 19, Type (0, 0), BuildingBlock: OJICUG_clean_linker_0, # of connection points: 2
#     Edge 20, Type (0, 0), BuildingBlock: OJICUG_clean_linker_0, # of connection points: 2
#     Edge 21, Type (0, 0), BuildingBlock: OJICUG_clean_linker_0, # of connection points: 2
#     Edge 22, Type (0, 0), BuildingBlock: OJICUG_clean_linker_0, # of connection points: 2
#     Edge 23, Type (0, 0), BuildingBlock: OJICUG_clean_linker_0, # of connection points: 2
#     Edge 24, Type (0, 0), BuildingBlock: OJICUG_clean_linker_0, # of connection points: 2
#     Edge 25, Type (0, 0), BuildingBlock: OJICUG_clean_linker_0, # of connection points: 2
#     Edge 26, Type (0, 0), BuildingBlock: OJICUG_clean_linker_0, # of connection points: 2
#     Edge 27, Type (0, 0), BuildingBlock: OJICUG_clean_linker_0, # of connection points: 2
#     Edge 28, Type (0, 0), BuildingBlock: OJICUG_clean_linker_0, # of connection points: 2
#     Edge 29, Type (0, 0), BuildingBlock: OJICUG_clean_linker_0, # of connection points: 2
#     Edge 30, Type (0, 0), BuildingBlock: OJICUG_clean_linker_0, # of connection points: 2
#     Edge 31, Type (0, 0), BuildingBlock: OJICUG_clean_linker_0, # of connection points: 2
#     Edge 32, Type (0, 0), BuildingBlock: OJICUG_clean_linker_0, # of connection points: 2
#     Edge 33, Type (0, 0), BuildingBlock: OJICUG_clean_linker_0, # of connection points: 2
#     Edge 34, Type (0, 0), BuildingBlock: OJICUG_clean_linker_0, # of connection points: 2
#     Edge 35, Type (0, 0), BuildingBlock: OJICUG_clean_linker_0, # of connection points: 2
#     Edge 36, Type (0, 0), BuildingBlock: OJICUG_clean_linker_0, # of connection points: 2
#     Edge 37, Type (0, 0), BuildingBlock: OJICUG_clean_linker_0, # of connection points: 2
#     Edge 38, Type (0, 0), BuildingBlock: OJICUG_clean_linker_0, # of connection points: 2
#     Edge 39, Type (0, 0), BuildingBlock: OJICUG_clean_linker_0, # of connection points: 2
#     Edge 40, Type (0, 0), BuildingBlock: OJICUG_clean_linker_0, # of connection points: 2
#     Edge 41, Type (0, 0), BuildingBlock: OJICUG_clean_linker_0, # of connection points: 2
#     Edge 42, Type (0, 0), BuildingBlock: OJICUG_clean_linker_0, # of connection points: 2
#     Edge 43, Type (0, 0), BuildingBlock: OJICUG_clean_linker_0, # of connection points: 2
#     Edge 44, Type (0, 0), BuildingBlock: OJICUG_clean_linker_0, # of connection points: 2
#     Edge 45, Type (0, 0), BuildingBlock: OJICUG_clean_linker_0, # of connection points: 2
#     Edge 46, Type (0, 0), BuildingBlock: OJICUG_clean_linker_0, # of connection points: 2
#     Edge 47, Type (0, 0), BuildingBlock: OJICUG_clean_linker_0, # of connection points: 2
# Relax obj value: 0.269
# Max RMSD: 0.290
# Mean RMSD: 0.290
data_MOF--net-upc--node1-CEKHIL_clean_sbu_0--edge1-OJICUG_clean_linker_0
_symmetry_space_group_name_H-M    P1
_symmetry_Int_Tables_number       1
_symmetry_cell_setting            triclinic
loop_
_symmetry_equiv_pos_as_xyz
'x, y, z'
_cell_length_a     24.008343
_cell_length_b     24.014454
_cell_length_c     31.594011
_cell_angle_alpha  89.995561
_cell_angle_beta   90.040226
_cell_angle_gamma 90.013051
loop_
_atom_site_label
_atom_site_type_symbol
_atom_site_fract_x
_atom_site_fract_y
_atom_site_fract_z
_atom_type_partial_charge
Co0 Co 0.11623 0.58715 0.12211 0.0
O1 O 0.12014 0.5418 0.07176 0.0
O2 O 0.04234 0.5733 0.1008 0.0
C3 C 0.18222 0.65173 0.10584 0.0
O4 O 0.09501 0.63635 0.171 0.0
Co5 Co 0.21747 0.59144 0.18311 0.0
O6 O 0.17029 0.6462 0.21297 0.0
C7 C 0.13489 0.50233 0.19438 0.0
C8 C 0.06616 0.54582 0.07037 0.0
C9 C 0.11972 0.6563 0.2035 0.0
O10 O 0.10971 0.51907 0.16053 0.0
O11 O 0.17989 0.52453 0.20798 0.0
O12 O 0.13259 0.65448 0.08976 0.0
O13 O 0.19334 0.60547 0.12541 0.0
Co14 Co 0.91131 0.11265 0.12116 0.0
O15 O 0.95843 0.11729 0.0718 0.0
O16 O 0.92563 0.03911 0.09942 0.0
C17 C 0.84752 0.1792 0.1044 0.0
O18 O 0.8602 0.09076 0.16878 0.0
Co19 Co 0.90542 0.21289 0.18309 0.0
O20 O 0.84639 0.16693 0.20911 0.0
C21 C 0.99473 0.13066 0.19467 0.0
C22 C 0.95428 0.06336 0.06982 0.0
C23 C 0.83719 0.11618 0.19973 0.0
O24 O 0.97816 0.10539 0.16082 0.0
O25 O 0.97242 0.17564 0.20815 0.0
O26 O 0.84515 0.12997 0.0876 0.0
O27 O 0.89321 0.18962 0.12497 0.0
Co28 Co 0.38889 0.91364 0.12232 0.0
O29 O 0.38466 0.96042 0.0727 0.0
O30 O 0.46267 0.92829 0.10104 0.0
C31 C 0.32289 0.84938 0.10524 0.0
O32 O 0.4104 0.86286 0.17032 0.0
Co33 Co 0.28782 0.90733 0.18346 0.0
O34 O 0.33374 0.84867 0.21003 0.0
C35 C 0.36924 0.99736 0.19534 0.0
C36 C 0.43864 0.95654 0.07108 0.0
C37 C 0.38468 0.83975 0.20111 0.0
O38 O 0.39518 0.98075 0.1618 0.0
O39 O 0.3242 0.9748 0.20849 0.0
O40 O 0.37236 0.8472 0.08887 0.0
O41 O 0.31196 0.8951 0.12556 0.0
Co42 Co 0.58587 0.38626 0.12271 0.0
O43 O 0.54028 0.38285 0.0724 0.0
O44 O 0.57197 0.46036 0.10177 0.0
C45 C 0.65029 0.32038 0.10589 0.0
O46 O 0.63541 0.40697 0.17164 0.0
Co47 Co 0.5905 0.28443 0.1831 0.0
O48 O 0.64602 0.33102 0.21275 0.0
C49 C 0.50123 0.36667 0.19496 0.0
C50 C 0.54439 0.43682 0.07123 0.0
C51 C 0.65596 0.38173 0.20369 0.0
O52 O 0.51793 0.39235 0.16133 0.0
O53 O 0.5235 0.32155 0.20821 0.0
O54 O 0.65306 0.37015 0.09012 0.0
O55 O 0.60412 0.30915 0.12551 0.0
Co56 Co 0.11301 0.91227 0.37952 0.0
O57 O 0.11752 0.95935 0.42892 0.0
O58 O 0.03941 0.92644 0.40118 0.0
C59 C 0.17965 0.8486 0.39633 0.0
O60 O 0.09128 0.86118 0.33183 0.0
Co61 Co 0.21333 0.90666 0.31771 0.0
O62 O 0.16728 0.84806 0.2912 0.0
C63 C 0.13079 0.99564 0.30601 0.0
C64 C 0.06358 0.95511 0.43083 0.0
C65 C 0.11659 0.8386 0.30065 0.0
O66 O 0.10565 0.9791 0.33991 0.0
O67 O 0.17581 0.97342 0.29253 0.0
O68 O 0.13038 0.84616 0.41304 0.0
O69 O 0.19007 0.8943 0.37581 0.0
Co70 Co 0.58711 0.11592 0.37915 0.0
O71 O 0.54209 0.11971 0.42966 0.0
O72 O 0.57329 0.04198 0.40035 0.0
C73 C 0.6519 0.18176 0.39538 0.0
O74 O 0.63593 0.09484 0.33002 0.0
Co75 Co 0.59112 0.21744 0.31846 0.0
O76 O 0.64528 0.17016 0.28807 0.0
C77 C 0.50195 0.13489 0.30714 0.0
C78 C 0.54603 0.06573 0.43092 0.0
C79 C 0.65548 0.11958 0.29741 0.0
O80 O 0.51877 0.10962 0.34092 0.0
O81 O 0.52412 0.17992 0.29361 0.0
O82 O 0.65471 0.13207 0.41131 0.0
O83 O 0.6055 0.193 0.37601 0.0
Co84 Co 0.38685 0.58694 0.37919 0.0
O85 O 0.38329 0.54151 0.42955 0.0
O86 O 0.46092 0.57298 0.40025 0.0
C87 C 0.32101 0.6515 0.39582 0.0
O88 O 0.4077 0.63631 0.33023 0.0
Co89 Co 0.28502 0.59156 0.31868 0.0
O90 O 0.33166 0.64716 0.28919 0.0
C91 C 0.36699 0.50197 0.30713 0.0
C92 C 0.43728 0.54553 0.43079 0.0
C93 C 0.38243 0.65697 0.29823 0.0
O94 O 0.39286 0.51888 0.34064 0.0
O95 O 0.32183 0.52422 0.29389 0.0
O96 O 0.37076 0.65425 0.41168 0.0
O97 O 0.30978 0.60528 0.37625 0.0
Co98 Co 0.91362 0.38864 0.37897 0.0
O99 O 0.96059 0.38437 0.4285 0.0
O100 O 0.92818 0.46236 0.40036 0.0
C101 C 0.84953 0.32248 0.39598 0.0
O102 O 0.86261 0.41018 0.33109 0.0
Co103 Co 0.90736 0.28781 0.31759 0.0
O104 O 0.84827 0.33354 0.29136 0.0
C105 C 0.99727 0.36936 0.30584 0.0
C106 C 0.95659 0.43833 0.43022 0.0
C107 C 0.83931 0.38444 0.30038 0.0
O108 O 0.98062 0.39518 0.33942 0.0
O109 O 0.97477 0.32432 0.2926 0.0
O110 O 0.84733 0.37189 0.41248 0.0
O111 O 0.89521 0.31169 0.37557 0.0
Co112 Co 0.88841 0.41593 0.87865 0.0
O113 O 0.8846 0.46181 0.92872 0.0
O114 O 0.96233 0.42982 0.89989 0.0
C115 C 0.82224 0.35169 0.8953 0.0
O116 O 0.90952 0.36611 0.83008 0.0
Co117 Co 0.78719 0.41125 0.81764 0.0
O118 O 0.83394 0.35545 0.78854 0.0
C119 C 0.86979 0.50024 0.80599 0.0
C120 C 0.93857 0.45765 0.93016 0.0
C121 C 0.88455 0.34547 0.79795 0.0
O122 O 0.89506 0.48361 0.83983 0.0
O123 O 0.82473 0.47803 0.79252 0.0
O124 O 0.87185 0.349 0.91141 0.0
O125 O 0.81126 0.39777 0.87544 0.0
Co126 Co 0.08991 0.88859 0.87896 0.0
O127 O 0.04308 0.88392 0.92847 0.0
O128 O 0.07549 0.96213 0.90065 0.0
C129 C 0.15398 0.82229 0.89564 0.0
O130 O 0.14068 0.91052 0.83114 0.0
Co131 Co 0.09571 0.78834 0.81712 0.0
O132 O 0.15369 0.83476 0.79023 0.0
C133 C 0.00617 0.87033 0.8057 0.0
C134 C 0.04706 0.93786 0.93037 0.0
C135 C 0.16305 0.88543 0.79976 0.0
O136 O 0.02282 0.8956 0.83953 0.0
O137 O 0.02854 0.82542 0.79215 0.0
O138 O 0.15628 0.87159 0.91232 0.0
O139 O 0.10823 0.81163 0.87522 0.0
Co140 Co 0.61488 0.09019 0.87992 0.0
O141 O 0.61912 0.0437 0.9297 0.0
O142 O 0.54112 0.07582 0.90134 0.0
C143 C 0.68106 0.15441 0.89668 0.0
O144 O 0.59337 0.14066 0.83174 0.0
Co145 Co 0.71587 0.09591 0.81865 0.0
O146 O 0.66971 0.15391 0.79149 0.0
C147 C 0.63412 0.00609 0.8071 0.0
C148 C 0.56515 0.04768 0.93136 0.0
C149 C 0.61887 0.16312 0.80058 0.0
O150 O 0.60834 0.02286 0.84066 0.0
O151 O 0.6792 0.02846 0.79384 0.0
O152 O 0.63162 0.15682 0.91309 0.0
O153 O 0.69186 0.10854 0.87652 0.0
Co154 Co 0.41611 0.61568 0.8793 0.0
O155 O 0.46147 0.61918 0.92973 0.0
O156 O 0.43004 0.54161 0.90028 0.0
C157 C 0.35147 0.68146 0.89587 0.0
O158 O 0.36682 0.59489 0.83026 0.0
Co159 Co 0.41161 0.7176 0.81891 0.0
O160 O 0.35608 0.67097 0.78929 0.0
C161 C 0.5011 0.63551 0.80731 0.0
C162 C 0.45744 0.5652 0.93089 0.0
C163 C 0.34625 0.6202 0.79825 0.0
O164 O 0.48422 0.6097 0.84083 0.0
O165 O 0.47887 0.68067 0.79408 0.0
O166 O 0.34873 0.63172 0.91171 0.0
O167 O 0.39774 0.69273 0.87641 0.0
Co168 Co 0.88853 0.09003 0.6218 0.0
O169 O 0.88387 0.04343 0.57214 0.0
O170 O 0.96209 0.0757 0.60013 0.0
C171 C 0.82225 0.15419 0.60528 0.0
O172 O 0.91049 0.14055 0.66978 0.0
Co173 Co 0.78824 0.09561 0.6836 0.0
O174 O 0.83483 0.15321 0.71085 0.0
C175 C 0.87027 0.00607 0.69484 0.0
C176 C 0.93783 0.04742 0.5703 0.0
C177 C 0.88549 0.16263 0.70131 0.0
O178 O 0.89553 0.02279 0.66104 0.0
O179 O 0.82535 0.02839 0.70842 0.0
O180 O 0.87156 0.15655 0.58864 0.0
O181 O 0.81155 0.10836 0.62555 0.0
Co182 Co 0.41646 0.88784 0.62258 0.0
O183 O 0.46231 0.88406 0.57249 0.0
O184 O 0.43036 0.96176 0.60139 0.0
C185 C 0.35217 0.82172 0.60587 0.0
O186 O 0.36667 0.90892 0.67118 0.0
Co187 Co 0.41177 0.78659 0.68349 0.0
O188 O 0.35607 0.83336 0.71269 0.0
C189 C 0.50078 0.86916 0.69525 0.0
C190 C 0.45817 0.93802 0.5711 0.0
C191 C 0.34608 0.88396 0.70332 0.0
O192 O 0.48419 0.89443 0.66141 0.0
O193 O 0.47854 0.82412 0.70869 0.0
O194 O 0.34947 0.87133 0.5898 0.0
O195 O 0.39828 0.81072 0.62572 0.0
Co196 Co 0.61577 0.4163 0.62261 0.0
O197 O 0.61938 0.46202 0.5724 0.0
O198 O 0.54173 0.43046 0.6016 0.0
C199 C 0.68154 0.35174 0.6058 0.0
O200 O 0.59486 0.36666 0.67139 0.0
Co201 Co 0.71761 0.41125 0.68312 0.0
O202 O 0.67101 0.35529 0.71224 0.0
C203 C 0.63565 0.50078 0.69499 0.0
C204 C 0.56539 0.45805 0.57114 0.0
C205 C 0.62021 0.34564 0.70323 0.0
O206 O 0.60983 0.48413 0.66138 0.0
O207 O 0.68076 0.4784 0.7082 0.0
O208 O 0.6318 0.34917 0.58989 0.0
O209 O 0.69282 0.39785 0.62551 0.0
Co210 Co 0.09064 0.61445 0.62136 0.0
O211 O 0.04398 0.6187 0.57165 0.0
O212 O 0.07623 0.54072 0.59992 0.0
C213 C 0.1548 0.68064 0.60455 0.0
O214 O 0.14129 0.59294 0.66944 0.0
Co215 Co 0.09651 0.71538 0.68269 0.0
O216 O 0.15489 0.66937 0.70955 0.0
C217 C 0.00673 0.63362 0.69429 0.0
C218 C 0.04799 0.56474 0.56996 0.0
C219 C 0.16402 0.61852 0.70047 0.0
O220 O 0.02342 0.60788 0.66069 0.0
O221 O 0.02914 0.67867 0.70757 0.0
O222 O 0.15716 0.63121 0.5881 0.0
O223 O 0.10899 0.69141 0.62478 0.0
C224 C 0.27692 0.69734 0.10544 0.0
C225 C 0.21872 0.70189 0.10716 0.0
H226 H 0.35512 0.74041 0.10199 0.0
C227 C 0.19491 0.75551 0.1092 0.0
H228 H 0.29648 0.65675 0.10381 0.0
C229 C 0.22848 0.80345 0.10964 0.0
C230 C 0.28661 0.79899 0.10647 0.0
H231 H 0.15012 0.76041 0.11076 0.0
H232 H 0.2089 0.84401 0.11146 0.0
C233 C 0.31039 0.74535 0.10429 0.0
C234 C 0.74353 0.19204 0.10341 0.0
C235 C 0.79727 0.21563 0.10581 0.0
H236 H 0.65496 0.2062 0.10299 0.0
C237 C 0.80193 0.27369 0.10937 0.0
H238 H 0.73844 0.14737 0.1008 0.0
C239 C 0.75408 0.3074 0.10909 0.0
C240 C 0.70037 0.28377 0.10689 0.0
H241 H 0.84256 0.29313 0.11135 0.0
H242 H 0.75913 0.35215 0.11093 0.0
C243 C 0.69562 0.22562 0.10476 0.0
C244 C 0.19258 0.74467 0.39703 0.0
C245 C 0.21618 0.79842 0.39507 0.0
H246 H 0.20679 0.65615 0.3974 0.0
C247 C 0.27432 0.80314 0.39226 0.0
H248 H 0.14785 0.73955 0.39907 0.0
C249 C 0.30807 0.75532 0.39284 0.0
C250 C 0.28443 0.7016 0.39462 0.0
H251 H 0.29376 0.84379 0.39065 0.0
H252 H 0.35286 0.7604 0.39157 0.0
C253 C 0.22622 0.69681 0.39599 0.0
C254 C 0.8036 0.22811 0.39103 0.0
C255 C 0.79915 0.28617 0.39475 0.0
H256 H 0.76055 0.14976 0.38946 0.0
C257 C 0.7455 0.30988 0.39745 0.0
H258 H 0.84416 0.20858 0.38879 0.0
C259 C 0.69749 0.27641 0.3963 0.0
C260 C 0.70205 0.21826 0.39404 0.0
H261 H 0.74056 0.35456 0.40017 0.0
H262 H 0.6569 0.29591 0.39835 0.0
C263 C 0.75566 0.19451 0.39146 0.0
C264 C 0.7274 0.30632 0.89527 0.0
C265 C 0.78562 0.30159 0.89425 0.0
H266 H 0.64903 0.26349 0.8983 0.0
C267 C 0.80932 0.24788 0.89309 0.0
H268 H 0.70792 0.34698 0.89621 0.0
C269 C 0.77563 0.20002 0.89277 0.0
C270 C 0.71747 0.20468 0.89524 0.0
H271 H 0.85412 0.24282 0.89212 0.0
H272 H 0.79514 0.15938 0.89164 0.0
C273 C 0.69378 0.25842 0.89657 0.0
C274 C 0.24758 0.69411 0.89292 0.0
C275 C 0.30127 0.7179 0.89448 0.0
H276 H 0.15905 0.70817 0.89073 0.0
C277 C 0.30591 0.77612 0.89537 0.0
H278 H 0.24259 0.64931 0.89199 0.0
C279 C 0.25796 0.80965 0.89618 0.0
C280 C 0.20426 0.78589 0.89448 0.0
H281 H 0.34655 0.79567 0.89657 0.0
H282 H 0.26298 0.85441 0.89784 0.0
C283 C 0.19967 0.72772 0.89212 0.0
C284 C 0.77619 0.30612 0.60635 0.0
C285 C 0.71795 0.30152 0.60699 0.0
H286 H 0.85449 0.26315 0.6039 0.0
C287 C 0.6941 0.24785 0.6081 0.0
H288 H 0.79579 0.34674 0.60549 0.0
C289 C 0.72768 0.19991 0.60872 0.0
C290 C 0.78588 0.20447 0.60663 0.0
H291 H 0.64928 0.24288 0.6088 0.0
H292 H 0.70808 0.15931 0.60978 0.0
C293 C 0.8097 0.25816 0.60536 0.0
C294 C 0.20046 0.77516 0.60865 0.0
C295 C 0.2051 0.71703 0.60595 0.0
H296 H 0.24331 0.85362 0.60949 0.0
C297 C 0.25883 0.69334 0.60436 0.0
H298 H 0.15982 0.79467 0.60999 0.0
C299 C 0.30676 0.72693 0.60565 0.0
C300 C 0.30206 0.78513 0.60692 0.0
H301 H 0.26389 0.64861 0.60243 0.0
H302 H 0.34742 0.70745 0.60451 0.0
C303 C 0.24834 0.80883 0.60832 0.0
C304 C 0.07841 0.43435 0.29412 0.0
C305 C 0.03905 0.39677 0.27785 0.0
H306 H 0.14076 0.49557 0.28049 0.0
C307 C 0.03552 0.39013 0.23354 0.0
H308 H 0.08205 0.44068 0.32795 0.0
C309 C 0.06813 0.42265 0.20619 0.0
C310 C 0.10635 0.46139 0.22245 0.0
H311 H 0.00519 0.362 0.21983 0.0
H312 H 0.06231 0.41855 0.17233 0.0
C313 C 0.11222 0.46562 0.26678 0.0
C314 C 0.03239 0.1088 0.26699 0.0
C315 C 0.03609 0.10257 0.22267 0.0
H316 H 0.05864 0.07963 0.32816 0.0
C317 C 0.07511 0.06471 0.20635 0.0
H318 H 0.0023 0.13711 0.28075 0.0
C319 C 0.10846 0.03284 0.23365 0.0
C320 C 0.10245 0.03677 0.27798 0.0
H321 H 0.07885 0.05865 0.1725 0.0
H322 H 0.1368 0.00278 0.21991 0.0
C323 C 0.06453 0.07573 0.29429 0.0
C324 C 0.46525 0.11239 0.23468 0.0
C325 C 0.46101 0.1064 0.27901 0.0
H326 H 0.4404 0.08234 0.17343 0.0
C327 C 0.42232 0.06807 0.29516 0.0
H328 H 0.49516 0.14102 0.22105 0.0
C329 C 0.38988 0.03549 0.26771 0.0
C330 C 0.39654 0.03914 0.22342 0.0
H331 H 0.41823 0.06215 0.32901 0.0
H332 H 0.3618 0.00508 0.28135 0.0
C333 C 0.43405 0.0786 0.20726 0.0
C334 C 0.42087 0.43247 0.20716 0.0
C335 C 0.46009 0.3946 0.2232 0.0
H336 H 0.3595 0.4945 0.22113 0.0
C337 C 0.46443 0.38839 0.26751 0.0
H338 H 0.41667 0.43852 0.17333 0.0
C339 C 0.43277 0.42156 0.29504 0.0
C340 C 0.39469 0.46057 0.27898 0.0
H341 H 0.49472 0.36008 0.28105 0.0
H342 H 0.43921 0.41773 0.32885 0.0
C343 C 0.38798 0.4644 0.23469 0.0
C344 C 0.92588 0.56826 0.70612 0.0
C345 C 0.9651 0.60605 0.72233 0.0
H346 H 0.86381 0.50679 0.71986 0.0
C347 C 0.9687 0.61272 0.76662 0.0
H348 H 0.92221 0.56189 0.67229 0.0
C349 C 0.93629 0.58009 0.79403 0.0
C350 C 0.8982 0.54117 0.77784 0.0
H351 H 0.99892 0.64099 0.7803 0.0
H352 H 0.94215 0.58425 0.82789 0.0
C353 C 0.89227 0.53686 0.73352 0.0
C354 C 0.92567 0.93618 0.79424 0.0
C355 C 0.96471 0.89843 0.77779 0.0
H356 H 0.86404 0.99823 0.7809 0.0
C357 C 0.96842 0.89245 0.73345 0.0
H358 H 0.92193 0.94203 0.82811 0.0
C359 C 0.93631 0.92572 0.70626 0.0
C360 C 0.89842 0.96461 0.72271 0.0
H361 H 0.99853 0.86424 0.71961 0.0
H362 H 0.94224 0.92205 0.67239 0.0
C363 C 0.89236 0.96823 0.76705 0.0
C364 C 0.61335 0.96794 0.73476 0.0
C365 C 0.60656 0.96443 0.77905 0.0
H366 H 0.58498 0.94133 0.67346 0.0
C367 C 0.56867 0.92532 0.79521 0.0
H368 H 0.6417 0.99809 0.72112 0.0
C369 C 0.53728 0.8917 0.76778 0.0
C370 C 0.5417 0.89755 0.72346 0.0
H371 H 0.56221 0.92172 0.82903 0.0
H372 H 0.50712 0.86333 0.78139 0.0
C373 C 0.58073 0.93554 0.70731 0.0
C374 C 0.61431 0.53776 0.76755 0.0
C375 C 0.60793 0.54202 0.72325 0.0
H376 H 0.58528 0.56317 0.82893 0.0
C377 C 0.5701 0.58132 0.70725 0.0
H378 H 0.64259 0.50742 0.78105 0.0
C379 C 0.53837 0.61434 0.73482 0.0
C380 C 0.54237 0.60771 0.77911 0.0
H381 H 0.56393 0.58547 0.67343 0.0
H382 H 0.50828 0.64287 0.72129 0.0
C383 C 0.58134 0.56956 0.79512 0.0
C384 C 0.09036 0.69382 0.27214 0.0
C385 C 0.09194 0.69905 0.22802 0.0
H386 H 0.09354 0.73728 0.33107 0.0
C387 C 0.08343 0.75101 0.20898 0.0
H388 H 0.09723 0.65376 0.28708 0.0
C389 C 0.08313 0.7987 0.23398 0.0
C390 C 0.08947 0.79384 0.27788 0.0
H391 H 0.085 0.75545 0.17487 0.0
H392 H 0.08467 0.83916 0.21882 0.0
C393 C 0.08818 0.74138 0.29716 0.0
C394 C 0.73976 0.08862 0.20321 0.0
C395 C 0.79235 0.08902 0.22235 0.0
H396 H 0.65228 0.09842 0.2136 0.0
C397 C 0.79738 0.08196 0.26617 0.0
H398 H 0.73554 0.09453 0.16936 0.0
C399 C 0.74983 0.08241 0.29131 0.0
C400 C 0.69784 0.09177 0.2725 0.0
H401 H 0.83796 0.08284 0.28122 0.0
H402 H 0.7545 0.08344 0.32542 0.0
C403 C 0.69234 0.0909 0.22838 0.0
C404 C 0.4178 0.75208 0.29287 0.0
C405 C 0.40988 0.70005 0.27377 0.0
H406 H 0.41593 0.84024 0.28312 0.0
C407 C 0.41154 0.69496 0.22964 0.0
H408 H 0.41611 0.75642 0.32698 0.0
C409 C 0.41341 0.74261 0.20467 0.0
C410 C 0.41175 0.79503 0.224 0.0
H411 H 0.40502 0.65488 0.21465 0.0
H412 H 0.40821 0.73854 0.17075 0.0
C413 C 0.41781 0.79983 0.26792 0.0
C414 C 0.75091 0.41769 0.20902 0.0
C415 C 0.69904 0.40917 0.22821 0.0
H416 H 0.83916 0.41644 0.21854 0.0
C417 C 0.69416 0.41041 0.27236 0.0
H418 H 0.75508 0.41635 0.17489 0.0
C419 C 0.74193 0.41245 0.29722 0.0
C420 C 0.79428 0.4114 0.27775 0.0
H421 H 0.65421 0.40346 0.28742 0.0
H422 H 0.73808 0.40693 0.33112 0.0
C423 C 0.7988 0.41786 0.23385 0.0
C424 C 0.91596 0.25927 0.70492 0.0
C425 C 0.91295 0.20697 0.72435 0.0
H426 H 0.90894 0.34715 0.71464 0.0
C427 C 0.91831 0.20222 0.76833 0.0
H428 H 0.91139 0.2633 0.67094 0.0
C429 C 0.91882 0.25003 0.79317 0.0
C430 C 0.91204 0.30209 0.77389 0.0
H431 H 0.91549 0.16189 0.78359 0.0
H432 H 0.91649 0.24582 0.82727 0.0
C433 C 0.91455 0.30703 0.72978 0.0
C434 C 0.3077 0.91368 0.77158 0.0
C435 C 0.30278 0.91148 0.72745 0.0
H436 H 0.26391 0.91045 0.83036 0.0
C437 C 0.25077 0.91876 0.70815 0.0
H438 H 0.34778 0.9077 0.78672 0.0
C439 C 0.20292 0.91846 0.73295 0.0
C440 C 0.2076 0.9128 0.77691 0.0
H441 H 0.24658 0.91669 0.67404 0.0
H442 H 0.16257 0.91602 0.71764 0.0
C443 C 0.25992 0.91529 0.7964 0.0
C444 C 0.58894 0.25993 0.79662 0.0
C445 C 0.59167 0.20749 0.77738 0.0
H446 H 0.59619 0.34774 0.78658 0.0
C447 C 0.5863 0.20251 0.73341 0.0
H448 H 0.59359 0.26413 0.83058 0.0
C449 C 0.58591 0.2502 0.7084 0.0
C450 C 0.59279 0.30237 0.72749 0.0
H451 H 0.58896 0.16209 0.71829 0.0
H452 H 0.58817 0.24579 0.67431 0.0
C453 C 0.59043 0.30755 0.77159 0.0
C454 C 0.30857 0.59097 0.72959 0.0
C455 C 0.30321 0.59281 0.77369 0.0
H456 H 0.26535 0.59437 0.67052 0.0
C457 C 0.25103 0.58524 0.79261 0.0
H458 H 0.34878 0.59721 0.71475 0.0
C459 C 0.20342 0.58546 0.76747 0.0
C460 C 0.20851 0.59136 0.72356 0.0
H461 H 0.24649 0.58708 0.8267 0.0
H462 H 0.16291 0.58761 0.78251 0.0
C463 C 0.26105 0.58931 0.70443 0.0
C464 C 0.97531 0.52899 0.03348 0.0
C465 C 0.03347 0.52249 0.03482 0.0
H466 H 0.89975 0.51399 0.99926 0.0
C467 C 0.06022 0.49512 0.0012 0.0
H468 H 0.95347 0.55006 0.05883 0.0
C469 C 0.02945 0.47465 0.96697 0.0
C470 C 0.97128 0.48114 0.96564 0.0
H471 H 0.105 0.48965 0.0012 0.0
H472 H 0.05128 0.45356 0.94163 0.0
C473 C 0.94453 0.50854 0.99925 0.0
C474 C 0.02901 0.02815 0.96763 0.0
C475 C 0.02255 0.97002 0.9657 0.0
H476 H 0.01287 0.10319 0.00213 0.0
C477 C 0.99401 0.9428 0.99854 0.0
H478 H 0.05096 0.05036 0.94289 0.0
C479 C 0.97237 0.97307 0.03258 0.0
C480 C 0.97884 0.0312 0.0345 0.0
H481 H 0.98851 0.89803 0.99807 0.0
H482 H 0.95042 0.95086 0.05731 0.0
C483 C 0.00739 0.05842 0.00167 0.0
C484 C 0.52925 0.97445 0.03413 0.0
C485 C 0.47108 0.98078 0.03573 0.0
H486 H 0.60454 0.99023 0.99982 0.0
C487 C 0.44406 0.00879 0.0025 0.0
H488 H 0.55132 0.95291 0.05917 0.0
C489 C 0.47456 0.02997 0.96839 0.0
C490 C 0.53274 0.02359 0.96677 0.0
H491 H 0.39927 0.01416 0.00269 0.0
H492 H 0.4525 0.05149 0.94334 0.0
C493 C 0.55975 0.99563 1.00002 0.0
C494 C 0.5076 0.55885 1.00035 0.0
C495 C 0.48055 0.5323 0.96644 0.0
H496 H 0.54858 0.5496 0.06016 0.0
C497 C 0.47402 0.47414 0.96755 0.0
H498 H 0.51308 0.60362 1.00055 0.0
C499 C 0.49415 0.44319 0.00182 0.0
C500 C 0.52122 0.46974 0.03571 0.0
H501 H 0.45318 0.45243 0.942 0.0
H502 H 0.48868 0.39842 0.00161 0.0
C503 C 0.52773 0.5279 0.03461 0.0
C504 C 0.97319 0.97307 0.46797 0.0
C505 C 0.03134 0.97957 0.46613 0.0
H506 H 0.89808 0.98908 0.50242 0.0
C507 C 0.05851 0.00805 0.49905 0.0
H508 H 0.95103 0.95117 0.44317 0.0
C509 C 0.02818 0.02955 0.5331 0.0
C510 C 0.97003 0.02305 0.53495 0.0
H511 H 0.10328 0.01356 0.49866 0.0
H512 H 0.05035 0.05144 0.55791 0.0
C513 C 0.94286 0.99459 0.50202 0.0
C514 C 0.49562 0.05972 0.50019 0.0
C515 C 0.52282 0.03301 0.46648 0.0
H516 H 0.45425 0.05073 0.55981 0.0
C517 C 0.52926 0.97484 0.46772 0.0
H518 H 0.4902 0.10449 0.50027 0.0
C519 C 0.50888 0.94404 0.50194 0.0
C520 C 0.48162 0.97075 0.53564 0.0
H521 H 0.55022 0.95303 0.4423 0.0
H522 H 0.51427 0.89926 0.50186 0.0
C523 C 0.47522 0.02891 0.53441 0.0
C524 C 0.55919 0.50852 0.50182 0.0
C525 C 0.53255 0.48138 0.53563 0.0
H526 H 0.55008 0.54965 0.44207 0.0
C527 C 0.47436 0.47497 0.53443 0.0
H528 H 0.60398 0.51392 0.50169 0.0
C529 C 0.44348 0.49522 0.50017 0.0
C530 C 0.47012 0.52233 0.46635 0.0
H531 H 0.45259 0.45408 0.55991 0.0
H532 H 0.39869 0.48981 0.5003 0.0
C533 C 0.52831 0.52877 0.46756 0.0
C534 C 0.00904 0.44371 0.49874 0.0
C535 C 0.98088 0.47073 0.46558 0.0
H536 H 0.05192 0.45214 0.55785 0.0
C537 C 0.97445 0.52888 0.46726 0.0
H538 H 0.01449 0.39894 0.49848 0.0
C539 C 0.99569 0.55936 0.50138 0.0
C540 C 0.02382 0.53234 0.53455 0.0
H541 H 0.95279 0.55093 0.44228 0.0
H542 H 0.99022 0.60412 0.50164 0.0
C543 C 0.03028 0.4742 0.53286 0.0
loop_
_geom_bond_atom_site_label_1
_geom_bond_atom_site_label_2
_geom_bond_distance
_geom_bond_site_symmetry_2
_ccdc_geom_bond_type
Co0 O1 2.216 . S
Co0 O2 2.091 1_455 S
Co0 O4 2.004 . S
Co0 O10 2.021 1_455 S
Co0 O12 2.137 . S
Co0 O13 2.244 . S
O1 Co0 2.216 . S
O1 C8 1.247 . S
O2 Co0 2.091 1_655 S
O2 C8 1.261 1_655 S
C3 O12 1.247 . S
C3 O13 1.272 . S
O4 Co0 2.004 . S
O4 C9 1.259 . S
Co5 O6 2.061 . S
Co5 O11 2.052 . S
Co5 O13 2.135 . S
O6 Co5 2.061 . S
O6 C9 1.235 . S
C7 O10 1.238 1_455 S
C7 O11 1.241 . S
C8 O1 1.247 . S
C8 O2 1.261 1_455 S
C9 O4 1.259 . S
C9 O6 1.235 . S
O10 Co0 2.021 1_655 S
O10 C7 1.238 1_655 S
O11 Co5 2.052 . S
O11 C7 1.241 . S
O12 Co0 2.137 . S
O12 C3 1.247 . S
O13 Co0 2.244 . S
O13 C3 1.272 . S
O13 Co5 2.135 . S
Co14 O15 2.216 . S
Co14 O16 2.091 1_545 S
Co14 O18 2.004 . S
Co14 O24 2.021 1_545 S
Co14 O26 2.137 . S
Co14 O27 2.244 . S
O15 Co14 2.216 . S
O15 C22 1.247 . S
O16 Co14 2.091 1_565 S
O16 C22 1.261 1_565 S
C17 O26 1.247 . S
C17 O27 1.272 . S
O18 Co14 2.004 . S
O18 C23 1.259 . S
Co19 O20 2.061 . S
Co19 O25 2.052 . S
Co19 O27 2.135 . S
O20 Co19 2.061 . S
O20 C23 1.235 . S
C21 O24 1.238 1_545 S
C21 O25 1.241 . S
C22 O15 1.247 . S
C22 O16 1.261 1_545 S
C23 O18 1.259 . S
C23 O20 1.235 . S
O24 Co14 2.021 1_565 S
O24 C21 1.238 1_565 S
O25 Co19 2.052 . S
O25 C21 1.241 . S
O26 Co14 2.137 . S
O26 C17 1.247 . S
O27 Co14 2.244 . S
O27 C17 1.272 . S
O27 Co19 2.135 . S
Co28 O29 2.216 . S
Co28 O30 2.091 . S
Co28 O32 2.004 . S
Co28 O38 2.021 . S
Co28 O40 2.137 . S
Co28 O41 2.244 . S
O29 Co28 2.216 . S
O29 C36 1.247 . S
O30 Co28 2.091 . S
O30 C36 1.261 . S
C31 O40 1.247 . S
C31 O41 1.272 . S
O32 Co28 2.004 . S
O32 C37 1.259 . S
Co33 O34 2.061 . S
Co33 O39 2.052 . S
Co33 O41 2.135 . S
O34 Co33 2.061 . S
O34 C37 1.235 . S
C35 O38 1.238 . S
C35 O39 1.241 . S
C36 O29 1.247 . S
C36 O30 1.261 . S
C37 O32 1.259 . S
C37 O34 1.235 . S
O38 Co28 2.021 . S
O38 C35 1.238 . S
O39 Co33 2.052 . S
O39 C35 1.241 . S
O40 Co28 2.137 . S
O40 C31 1.247 . S
O41 Co28 2.244 . S
O41 C31 1.272 . S
O41 Co33 2.135 . S
Co42 O43 2.216 . S
Co42 O44 2.091 . S
Co42 O46 2.004 . S
Co42 O52 2.021 . S
Co42 O54 2.137 . S
Co42 O55 2.244 . S
O43 Co42 2.216 . S
O43 C50 1.247 . S
O44 Co42 2.091 . S
O44 C50 1.261 . S
C45 O54 1.247 . S
C45 O55 1.272 . S
O46 Co42 2.004 . S
O46 C51 1.259 . S
Co47 O48 2.061 . S
Co47 O53 2.052 . S
Co47 O55 2.135 . S
O48 Co47 2.061 . S
O48 C51 1.235 . S
C49 O52 1.238 . S
C49 O53 1.241 . S
C50 O43 1.247 . S
C50 O44 1.261 . S
C51 O46 1.259 . S
C51 O48 1.235 . S
O52 Co42 2.021 . S
O52 C49 1.238 . S
O53 Co47 2.052 . S
O53 C49 1.241 . S
O54 Co42 2.137 . S
O54 C45 1.247 . S
O55 Co42 2.244 . S
O55 C45 1.272 . S
O55 Co47 2.135 . S
Co56 O57 2.216 . S
Co56 O58 2.091 1_455 S
Co56 O60 2.004 . S
Co56 O66 2.021 1_455 S
Co56 O68 2.137 . S
Co56 O69 2.244 . S
O57 Co56 2.216 . S
O57 C64 1.247 . S
O58 Co56 2.091 1_655 S
O58 C64 1.261 1_655 S
C59 O68 1.247 . S
C59 O69 1.272 . S
O60 Co56 2.004 . S
O60 C65 1.259 . S
Co61 O62 2.061 . S
Co61 O67 2.052 . S
Co61 O69 2.135 . S
O62 Co61 2.061 . S
O62 C65 1.235 . S
C63 O66 1.238 1_455 S
C63 O67 1.241 . S
C64 O57 1.247 . S
C64 O58 1.261 1_455 S
C65 O60 1.259 . S
C65 O62 1.235 . S
O66 Co56 2.021 1_655 S
O66 C63 1.238 1_655 S
O67 Co61 2.052 . S
O67 C63 1.241 . S
O68 Co56 2.137 . S
O68 C59 1.247 . S
O69 Co56 2.244 . S
O69 C59 1.272 . S
O69 Co61 2.135 . S
Co70 O71 2.216 . S
Co70 O72 2.091 1_545 S
Co70 O74 2.004 . S
Co70 O80 2.021 1_545 S
Co70 O82 2.137 . S
Co70 O83 2.244 . S
O71 Co70 2.216 . S
O71 C78 1.247 . S
O72 Co70 2.091 1_565 S
O72 C78 1.261 1_565 S
C73 O82 1.247 . S
C73 O83 1.272 . S
O74 Co70 2.004 . S
O74 C79 1.259 . S
Co75 O76 2.061 . S
Co75 O81 2.052 . S
Co75 O83 2.135 . S
O76 Co75 2.061 . S
O76 C79 1.235 . S
C77 O80 1.238 1_545 S
C77 O81 1.241 . S
C78 O71 1.247 . S
C78 O72 1.261 1_545 S
C79 O74 1.259 . S
C79 O76 1.235 . S
O80 Co70 2.021 1_565 S
O80 C77 1.238 1_565 S
O81 Co75 2.052 . S
O81 C77 1.241 . S
O82 Co70 2.137 . S
O82 C73 1.247 . S
O83 Co70 2.244 . S
O83 C73 1.272 . S
O83 Co75 2.135 . S
Co84 O85 2.216 . S
Co84 O86 2.091 . S
Co84 O88 2.004 . S
Co84 O94 2.021 . S
Co84 O96 2.137 . S
Co84 O97 2.244 . S
O85 Co84 2.216 . S
O85 C92 1.247 . S
O86 Co84 2.091 . S
O86 C92 1.261 . S
C87 O96 1.247 . S
C87 O97 1.272 . S
O88 Co84 2.004 . S
O88 C93 1.259 . S
Co89 O90 2.061 . S
Co89 O95 2.052 . S
Co89 O97 2.135 . S
O90 Co89 2.061 . S
O90 C93 1.235 . S
C91 O94 1.238 . S
C91 O95 1.241 . S
C92 O85 1.247 . S
C92 O86 1.261 . S
C93 O88 1.259 . S
C93 O90 1.235 . S
O94 Co84 2.021 . S
O94 C91 1.238 . S
O95 Co89 2.052 . S
O95 C91 1.241 . S
O96 Co84 2.137 . S
O96 C87 1.247 . S
O97 Co84 2.244 . S
O97 C87 1.272 . S
O97 Co89 2.135 . S
Co98 O99 2.216 . S
Co98 O100 2.091 . S
Co98 O102 2.004 . S
Co98 O108 2.021 . S
Co98 O110 2.137 . S
Co98 O111 2.244 . S
O99 Co98 2.216 . S
O99 C106 1.247 . S
O100 Co98 2.091 . S
O100 C106 1.261 . S
C101 O110 1.247 . S
C101 O111 1.272 . S
O102 Co98 2.004 . S
O102 C107 1.259 . S
Co103 O104 2.061 . S
Co103 O109 2.052 . S
Co103 O111 2.135 . S
O104 Co103 2.061 . S
O104 C107 1.235 . S
C105 O108 1.238 . S
C105 O109 1.241 . S
C106 O99 1.247 . S
C106 O100 1.261 . S
C107 O102 1.259 . S
C107 O104 1.235 . S
O108 Co98 2.021 . S
O108 C105 1.238 . S
O109 Co103 2.052 . S
O109 C105 1.241 . S
O110 Co98 2.137 . S
O110 C101 1.247 . S
O111 Co98 2.244 . S
O111 C101 1.272 . S
O111 Co103 2.135 . S
Co112 O113 2.216 . S
Co112 O114 2.091 1_655 S
Co112 O116 2.004 . S
Co112 O122 2.021 1_655 S
Co112 O124 2.137 . S
Co112 O125 2.244 . S
O113 Co112 2.216 . S
O113 C120 1.247 . S
O114 Co112 2.091 1_455 S
O114 C120 1.261 1_455 S
C115 O124 1.247 . S
C115 O125 1.272 . S
O116 Co112 2.004 . S
O116 C121 1.259 . S
Co117 O118 2.061 . S
Co117 O123 2.052 . S
Co117 O125 2.135 . S
O118 Co117 2.061 . S
O118 C121 1.235 . S
C119 O122 1.238 1_655 S
C119 O123 1.241 . S
C120 O113 1.247 . S
C120 O114 1.261 1_655 S
C121 O116 1.259 . S
C121 O118 1.235 . S
O122 Co112 2.021 1_455 S
O122 C119 1.238 1_455 S
O123 Co117 2.052 . S
O123 C119 1.241 . S
O124 Co112 2.137 . S
O124 C115 1.247 . S
O125 Co112 2.244 . S
O125 C115 1.272 . S
O125 Co117 2.135 . S
Co126 O127 2.216 . S
Co126 O128 2.091 1_565 S
Co126 O130 2.004 . S
Co126 O136 2.021 1_565 S
Co126 O138 2.137 . S
Co126 O139 2.244 . S
O127 Co126 2.216 . S
O127 C134 1.247 . S
O128 Co126 2.091 1_545 S
O128 C134 1.261 1_545 S
C129 O138 1.247 . S
C129 O139 1.272 . S
O130 Co126 2.004 . S
O130 C135 1.259 . S
Co131 O132 2.061 . S
Co131 O137 2.052 . S
Co131 O139 2.135 . S
O132 Co131 2.061 . S
O132 C135 1.235 . S
C133 O136 1.238 1_565 S
C133 O137 1.241 . S
C134 O127 1.247 . S
C134 O128 1.261 1_565 S
C135 O130 1.259 . S
C135 O132 1.235 . S
O136 Co126 2.021 1_545 S
O136 C133 1.238 1_545 S
O137 Co131 2.052 . S
O137 C133 1.241 . S
O138 Co126 2.137 . S
O138 C129 1.247 . S
O139 Co126 2.244 . S
O139 C129 1.272 . S
O139 Co131 2.135 . S
Co140 O141 2.216 . S
Co140 O142 2.091 . S
Co140 O144 2.004 . S
Co140 O150 2.021 . S
Co140 O152 2.137 . S
Co140 O153 2.244 . S
O141 Co140 2.216 . S
O141 C148 1.247 . S
O142 Co140 2.091 . S
O142 C148 1.261 . S
C143 O152 1.247 . S
C143 O153 1.272 . S
O144 Co140 2.004 . S
O144 C149 1.259 . S
Co145 O146 2.061 . S
Co145 O151 2.052 . S
Co145 O153 2.135 . S
O146 Co145 2.061 . S
O146 C149 1.235 . S
C147 O150 1.238 . S
C147 O151 1.241 . S
C148 O141 1.247 . S
C148 O142 1.261 . S
C149 O144 1.259 . S
C149 O146 1.235 . S
O150 Co140 2.021 . S
O150 C147 1.238 . S
O151 Co145 2.052 . S
O151 C147 1.241 . S
O152 Co140 2.137 . S
O152 C143 1.247 . S
O153 Co140 2.244 . S
O153 C143 1.272 . S
O153 Co145 2.135 . S
Co154 O155 2.216 . S
Co154 O156 2.091 . S
Co154 O158 2.004 . S
Co154 O164 2.021 . S
Co154 O166 2.137 . S
Co154 O167 2.244 . S
O155 Co154 2.216 . S
O155 C162 1.247 . S
O156 Co154 2.091 . S
O156 C162 1.261 . S
C157 O166 1.247 . S
C157 O167 1.272 . S
O158 Co154 2.004 . S
O158 C163 1.259 . S
Co159 O160 2.061 . S
Co159 O165 2.052 . S
Co159 O167 2.135 . S
O160 Co159 2.061 . S
O160 C163 1.235 . S
C161 O164 1.238 . S
C161 O165 1.241 . S
C162 O155 1.247 . S
C162 O156 1.261 . S
C163 O158 1.259 . S
C163 O160 1.235 . S
O164 Co154 2.021 . S
O164 C161 1.238 . S
O165 Co159 2.052 . S
O165 C161 1.241 . S
O166 Co154 2.137 . S
O166 C157 1.247 . S
O167 Co154 2.244 . S
O167 C157 1.272 . S
O167 Co159 2.135 . S
Co168 O169 2.216 . S
Co168 O170 2.091 1_655 S
Co168 O172 2.004 . S
Co168 O178 2.021 1_655 S
Co168 O180 2.137 . S
Co168 O181 2.244 . S
O169 Co168 2.216 . S
O169 C176 1.247 . S
O170 Co168 2.091 1_455 S
O170 C176 1.261 1_455 S
C171 O180 1.247 . S
C171 O181 1.272 . S
O172 Co168 2.004 . S
O172 C177 1.259 . S
Co173 O174 2.061 . S
Co173 O179 2.052 . S
Co173 O181 2.135 . S
O174 Co173 2.061 . S
O174 C177 1.235 . S
C175 O178 1.238 1_655 S
C175 O179 1.241 . S
C176 O169 1.247 . S
C176 O170 1.261 1_655 S
C177 O172 1.259 . S
C177 O174 1.235 . S
O178 Co168 2.021 1_455 S
O178 C175 1.238 1_455 S
O179 Co173 2.052 . S
O179 C175 1.241 . S
O180 Co168 2.137 . S
O180 C171 1.247 . S
O181 Co168 2.244 . S
O181 C171 1.272 . S
O181 Co173 2.135 . S
Co182 O183 2.216 . S
Co182 O184 2.091 1_565 S
Co182 O186 2.004 . S
Co182 O192 2.021 1_565 S
Co182 O194 2.137 . S
Co182 O195 2.244 . S
O183 Co182 2.216 . S
O183 C190 1.247 . S
O184 Co182 2.091 1_545 S
O184 C190 1.261 1_545 S
C185 O194 1.247 . S
C185 O195 1.272 . S
O186 Co182 2.004 . S
O186 C191 1.259 . S
Co187 O188 2.061 . S
Co187 O193 2.052 . S
Co187 O195 2.135 . S
O188 Co187 2.061 . S
O188 C191 1.235 . S
C189 O192 1.238 1_565 S
C189 O193 1.241 . S
C190 O183 1.247 . S
C190 O184 1.261 1_565 S
C191 O186 1.259 . S
C191 O188 1.235 . S
O192 Co182 2.021 1_545 S
O192 C189 1.238 1_545 S
O193 Co187 2.052 . S
O193 C189 1.241 . S
O194 Co182 2.137 . S
O194 C185 1.247 . S
O195 Co182 2.244 . S
O195 C185 1.272 . S
O195 Co187 2.135 . S
Co196 O197 2.216 . S
Co196 O198 2.091 . S
Co196 O200 2.004 . S
Co196 O206 2.021 . S
Co196 O208 2.137 . S
Co196 O209 2.244 . S
O197 Co196 2.216 . S
O197 C204 1.247 . S
O198 Co196 2.091 . S
O198 C204 1.261 . S
C199 O208 1.247 . S
C199 O209 1.272 . S
O200 Co196 2.004 . S
O200 C205 1.259 . S
Co201 O202 2.061 . S
Co201 O207 2.052 . S
Co201 O209 2.135 . S
O202 Co201 2.061 . S
O202 C205 1.235 . S
C203 O206 1.238 . S
C203 O207 1.241 . S
C204 O197 1.247 . S
C204 O198 1.261 . S
C205 O200 1.259 . S
C205 O202 1.235 . S
O206 Co196 2.021 . S
O206 C203 1.238 . S
O207 Co201 2.052 . S
O207 C203 1.241 . S
O208 Co196 2.137 . S
O208 C199 1.247 . S
O209 Co196 2.244 . S
O209 C199 1.272 . S
O209 Co201 2.135 . S
Co210 O211 2.216 . S
Co210 O212 2.091 . S
Co210 O214 2.004 . S
Co210 O220 2.021 . S
Co210 O222 2.137 . S
Co210 O223 2.244 . S
O211 Co210 2.216 . S
O211 C218 1.247 . S
O212 Co210 2.091 . S
O212 C218 1.261 . S
C213 O222 1.247 . S
C213 O223 1.272 . S
O214 Co210 2.004 . S
O214 C219 1.259 . S
Co215 O216 2.061 . S
Co215 O221 2.052 . S
Co215 O223 2.135 . S
O216 Co215 2.061 . S
O216 C219 1.235 . S
C217 O220 1.238 . S
C217 O221 1.241 . S
C218 O211 1.247 . S
C218 O212 1.261 . S
C219 O214 1.259 . S
C219 O216 1.235 . S
O220 Co210 2.021 . S
O220 C217 1.238 . S
O221 Co215 2.052 . S
O221 C217 1.241 . S
O222 Co210 2.137 . S
O222 C213 1.247 . S
O223 Co210 2.244 . S
O223 C213 1.272 . S
O223 Co215 2.135 . S
C224 C225 1.387 . S
C224 H228 0.950 . S
C224 C233 1.390 . S
C225 C224 1.387 . S
C225 C227 1.387 . S
H226 C233 0.950 . S
C227 C225 1.387 . S
C227 C229 1.390 . S
C227 H231 0.950 . S
H228 C224 0.950 . S
C229 C227 1.390 . S
C229 C230 1.387 . S
C229 H232 0.950 . S
C230 C229 1.387 . S
C230 C233 1.387 . S
H231 C227 0.950 . S
H232 C229 0.950 . S
C233 C224 1.390 . S
C233 H226 0.950 . S
C233 C230 1.387 . S
C234 C235 1.387 . S
C234 H238 0.950 . S
C234 C243 1.390 . S
C235 C234 1.387 . S
C235 C237 1.387 . S
H236 C243 0.950 . S
C237 C235 1.387 . S
C237 C239 1.390 . S
C237 H241 0.950 . S
H238 C234 0.950 . S
C239 C237 1.390 . S
C239 C240 1.387 . S
C239 H242 0.950 . S
C240 C239 1.387 . S
C240 C243 1.387 . S
H241 C237 0.950 . S
H242 C239 0.950 . S
C243 C234 1.390 . S
C243 H236 0.950 . S
C243 C240 1.387 . S
C244 C245 1.387 . S
C244 H248 0.950 . S
C244 C253 1.390 . S
C245 C244 1.387 . S
C245 C247 1.387 . S
H246 C253 0.950 . S
C247 C245 1.387 . S
C247 C249 1.390 . S
C247 H251 0.950 . S
H248 C244 0.950 . S
C249 C247 1.390 . S
C249 C250 1.387 . S
C249 H252 0.950 . S
C250 C249 1.387 . S
C250 C253 1.387 . S
H251 C247 0.950 . S
H252 C249 0.950 . S
C253 C244 1.390 . S
C253 H246 0.950 . S
C253 C250 1.387 . S
C254 C255 1.387 . S
C254 H258 0.950 . S
C254 C263 1.390 . S
C255 C254 1.387 . S
C255 C257 1.387 . S
H256 C263 0.950 . S
C257 C255 1.387 . S
C257 C259 1.390 . S
C257 H261 0.950 . S
H258 C254 0.950 . S
C259 C257 1.390 . S
C259 C260 1.387 . S
C259 H262 0.950 . S
C260 C259 1.387 . S
C260 C263 1.387 . S
H261 C257 0.950 . S
H262 C259 0.950 . S
C263 C254 1.390 . S
C263 H256 0.950 . S
C263 C260 1.387 . S
C264 C265 1.387 . S
C264 H268 0.950 . S
C264 C273 1.390 . S
C265 C264 1.387 . S
C265 C267 1.387 . S
H266 C273 0.950 . S
C267 C265 1.387 . S
C267 C269 1.390 . S
C267 H271 0.950 . S
H268 C264 0.950 . S
C269 C267 1.390 . S
C269 C270 1.387 . S
C269 H272 0.950 . S
C270 C269 1.387 . S
C270 C273 1.387 . S
H271 C267 0.950 . S
H272 C269 0.950 . S
C273 C264 1.390 . S
C273 H266 0.950 . S
C273 C270 1.387 . S
C274 C275 1.387 . S
C274 H278 0.950 . S
C274 C283 1.390 . S
C275 C274 1.387 . S
C275 C277 1.387 . S
H276 C283 0.950 . S
C277 C275 1.387 . S
C277 C279 1.390 . S
C277 H281 0.950 . S
H278 C274 0.950 . S
C279 C277 1.390 . S
C279 C280 1.387 . S
C279 H282 0.950 . S
C280 C279 1.387 . S
C280 C283 1.387 . S
H281 C277 0.950 . S
H282 C279 0.950 . S
C283 C274 1.390 . S
C283 H276 0.950 . S
C283 C280 1.387 . S
C284 C285 1.387 . S
C284 H288 0.950 . S
C284 C293 1.390 . S
C285 C284 1.387 . S
C285 C287 1.387 . S
H286 C293 0.950 . S
C287 C285 1.387 . S
C287 C289 1.390 . S
C287 H291 0.950 . S
H288 C284 0.950 . S
C289 C287 1.390 . S
C289 C290 1.387 . S
C289 H292 0.950 . S
C290 C289 1.387 . S
C290 C293 1.387 . S
H291 C287 0.950 . S
H292 C289 0.950 . S
C293 C284 1.390 . S
C293 H286 0.950 . S
C293 C290 1.387 . S
C294 C295 1.387 . S
C294 H298 0.950 . S
C294 C303 1.390 . S
C295 C294 1.387 . S
C295 C297 1.387 . S
H296 C303 0.950 . S
C297 C295 1.387 . S
C297 C299 1.390 . S
C297 H301 0.950 . S
H298 C294 0.950 . S
C299 C297 1.390 . S
C299 C300 1.387 . S
C299 H302 0.950 . S
C300 C299 1.387 . S
C300 C303 1.387 . S
H301 C297 0.950 . S
H302 C299 0.950 . S
C303 C294 1.390 . S
C303 H296 0.950 . S
C303 C300 1.387 . S
C304 C305 1.387 . S
C304 H308 0.950 . S
C304 C313 1.390 . S
C305 C304 1.387 . S
C305 C307 1.387 . S
H306 C313 0.950 . S
C307 C305 1.387 . S
C307 C309 1.390 . S
C307 H311 0.950 . S
H308 C304 0.950 . S
C309 C307 1.390 . S
C309 C310 1.387 . S
C309 H312 0.950 . S
C310 C309 1.387 . S
C310 C313 1.387 . S
H311 C307 0.950 . S
H312 C309 0.950 . S
C313 C304 1.390 . S
C313 H306 0.950 . S
C313 C310 1.387 . S
C314 C315 1.387 1_545 S
C314 H318 0.950 . S
C314 C323 1.390 . S
C315 C314 1.387 1_565 S
C315 C317 1.387 . S
H316 C323 0.950 . S
C317 C315 1.387 . S
C317 C319 1.390 . S
C317 H321 0.950 . S
H318 C314 0.950 . S
C319 C317 1.390 . S
C319 C320 1.387 . S
C319 H322 0.950 . S
C320 C319 1.387 . S
C320 C323 1.387 1_565 S
H321 C317 0.950 . S
H322 C319 0.950 . S
C323 C314 1.390 . S
C323 H316 0.950 . S
C323 C320 1.387 1_545 S
C324 C325 1.387 . S
C324 H328 0.950 . S
C324 C333 1.390 . S
C325 C324 1.387 . S
C325 C327 1.387 . S
H326 C333 0.950 . S
C327 C325 1.387 . S
C327 C329 1.390 . S
C327 H331 0.950 1_565 S
H328 C324 0.950 . S
C329 C327 1.390 . S
C329 C330 1.387 . S
C329 H332 0.950 . S
C330 C329 1.387 . S
C330 C333 1.387 . S
H331 C327 0.950 1_545 S
H332 C329 0.950 . S
C333 C324 1.390 . S
C333 H326 0.950 . S
C333 C330 1.387 . S
C334 C335 1.387 . S
C334 H338 0.950 . S
C334 C343 1.390 . S
C335 C334 1.387 . S
C335 C337 1.387 . S
H336 C343 0.950 . S
C337 C335 1.387 . S
C337 C339 1.390 . S
C337 H341 0.950 . S
H338 C334 0.950 . S
C339 C337 1.390 . S
C339 C340 1.387 . S
C339 H342 0.950 . S
C340 C339 1.387 . S
C340 C343 1.387 . S
H341 C337 0.950 . S
H342 C339 0.950 . S
C343 C334 1.390 . S
C343 H336 0.950 . S
C343 C340 1.387 . S
C344 C345 1.387 . S
C344 H348 0.950 . S
C344 C353 1.390 . S
C345 C344 1.387 . S
C345 C347 1.387 . S
H346 C353 0.949 1_655 S
C347 C345 1.387 . S
C347 C349 1.390 . S
C347 H351 0.950 . S
H348 C344 0.950 . S
C349 C347 1.390 . S
C349 C350 1.387 . S
C349 H352 0.950 . S
C350 C349 1.387 . S
C350 C353 1.387 . S
H351 C347 0.950 . S
H352 C349 0.950 . S
C353 C344 1.390 . S
C353 H346 0.949 1_455 S
C353 C350 1.387 . S
C354 C355 1.387 . S
C354 H358 0.950 . S
C354 C363 1.390 . S
C355 C354 1.387 . S
C355 C357 1.387 1_545 S
H356 C363 0.950 . S
C357 C355 1.387 1_565 S
C357 C359 1.390 . S
C357 H361 0.950 . S
H358 C354 0.950 . S
C359 C357 1.390 . S
C359 C360 1.387 1_565 S
C359 H362 0.950 . S
C360 C359 1.387 1_545 S
C360 C363 1.387 . S
H361 C357 0.950 . S
H362 C359 0.950 . S
C363 C354 1.390 . S
C363 H356 0.950 . S
C363 C360 1.387 . S
C364 C365 1.387 . S
C364 H368 0.950 1_545 S
C364 C373 1.390 1_545 S
C365 C364 1.387 . S
C365 C367 1.387 . S
H366 C373 0.950 . S
C367 C365 1.387 . S
C367 C369 1.390 . S
C367 H371 0.950 . S
H368 C364 0.950 1_565 S
C369 C367 1.390 . S
C369 C370 1.387 . S
C369 H372 0.950 . S
C370 C369 1.387 . S
C370 C373 1.387 1_545 S
H371 C367 0.950 . S
H372 C369 0.950 . S
C373 C364 1.390 1_565 S
C373 H366 0.950 . S
C373 C370 1.387 1_565 S
C374 C375 1.387 . S
C374 H378 0.950 . S
C374 C383 1.390 . S
C375 C374 1.387 . S
C375 C377 1.387 . S
H376 C383 0.950 . S
C377 C375 1.387 . S
C377 C379 1.390 . S
C377 H381 0.950 . S
H378 C374 0.950 . S
C379 C377 1.390 . S
C379 C380 1.387 . S
C379 H382 0.950 . S
C380 C379 1.387 . S
C380 C383 1.387 . S
H381 C377 0.950 . S
H382 C379 0.950 . S
C383 C374 1.390 . S
C383 H376 0.950 . S
C383 C380 1.387 . S
C384 C385 1.387 . S
C384 H388 0.950 . S
C384 C393 1.390 . S
C385 C384 1.387 . S
C385 C387 1.387 1_455 S
H386 C393 0.950 . S
C387 C385 1.387 1_655 S
C387 C389 1.390 . S
C387 H391 0.950 . S
H388 C384 0.950 . S
C389 C387 1.390 . S
C389 C390 1.387 1_655 S
C389 H392 0.950 . S
C390 C389 1.387 1_455 S
C390 C393 1.387 . S
H391 C387 0.950 . S
H392 C389 0.950 . S
C393 C384 1.390 . S
C393 H386 0.950 . S
C393 C390 1.387 . S
C394 C395 1.387 . S
C394 H398 0.950 . S
C394 C403 1.390 . S
C395 C394 1.387 . S
C395 C397 1.387 1_545 S
H396 C403 0.950 . S
C397 C395 1.387 1_565 S
C397 C399 1.390 . S
C397 H401 0.950 . S
H398 C394 0.950 . S
C399 C397 1.390 . S
C399 C400 1.387 1_565 S
C399 H402 0.950 . S
C400 C399 1.387 1_545 S
C400 C403 1.387 . S
H401 C397 0.950 . S
H402 C399 0.950 . S
C403 C394 1.390 . S
C403 H396 0.950 . S
C403 C400 1.387 . S
C404 C405 1.387 . S
C404 H408 0.950 . S
C404 C413 1.390 . S
C405 C404 1.387 . S
C405 C407 1.387 . S
H406 C413 0.950 . S
C407 C405 1.387 . S
C407 C409 1.390 . S
C407 H411 0.950 . S
H408 C404 0.950 . S
C409 C407 1.390 . S
C409 C410 1.387 . S
C409 H412 0.950 . S
C410 C409 1.387 . S
C410 C413 1.387 . S
H411 C407 0.950 . S
H412 C409 0.950 . S
C413 C404 1.390 . S
C413 H406 0.950 . S
C413 C410 1.387 . S
C414 C415 1.387 . S
C414 H418 0.950 . S
C414 C423 1.390 . S
C415 C414 1.387 . S
C415 C417 1.387 . S
H416 C423 0.950 . S
C417 C415 1.387 . S
C417 C419 1.390 . S
C417 H421 0.950 . S
H418 C414 0.950 . S
C419 C417 1.390 . S
C419 C420 1.387 . S
C419 H422 0.950 . S
C420 C419 1.387 . S
C420 C423 1.387 . S
H421 C417 0.950 . S
H422 C419 0.950 . S
C423 C414 1.390 . S
C423 H416 0.950 . S
C423 C420 1.387 . S
C424 C425 1.387 . S
C424 H428 0.950 . S
C424 C433 1.390 . S
C425 C424 1.387 . S
C425 C427 1.387 1_655 S
H426 C433 0.950 . S
C427 C425 1.387 1_455 S
C427 C429 1.390 . S
C427 H431 0.950 . S
H428 C424 0.950 . S
C429 C427 1.390 . S
C429 C430 1.387 1_455 S
C429 H432 0.950 . S
C430 C429 1.387 1_655 S
C430 C433 1.387 . S
H431 C427 0.950 . S
H432 C429 0.950 . S
C433 C424 1.390 . S
C433 H426 0.950 . S
C433 C430 1.387 . S
C434 C435 1.387 . S
C434 H438 0.950 . S
C434 C443 1.390 . S
C435 C434 1.387 . S
C435 C437 1.387 1_565 S
H436 C443 0.950 . S
C437 C435 1.387 1_545 S
C437 C439 1.390 . S
C437 H441 0.950 . S
H438 C434 0.950 . S
C439 C437 1.390 . S
C439 C440 1.387 1_545 S
C439 H442 0.950 . S
C440 C439 1.387 1_565 S
C440 C443 1.387 . S
H441 C437 0.950 . S
H442 C439 0.950 . S
C443 C434 1.390 . S
C443 H436 0.950 . S
C443 C440 1.387 . S
C444 C445 1.387 . S
C444 H448 0.950 . S
C444 C453 1.390 . S
C445 C444 1.387 . S
C445 C447 1.387 . S
H446 C453 0.950 . S
C447 C445 1.387 . S
C447 C449 1.390 . S
C447 H451 0.950 . S
H448 C444 0.950 . S
C449 C447 1.390 . S
C449 C450 1.387 . S
C449 H452 0.950 . S
C450 C449 1.387 . S
C450 C453 1.387 . S
H451 C447 0.950 . S
H452 C449 0.950 . S
C453 C444 1.390 . S
C453 H446 0.950 . S
C453 C450 1.387 . S
C454 C455 1.387 . S
C454 H458 0.950 . S
C454 C463 1.390 . S
C455 C454 1.387 . S
C455 C457 1.387 . S
H456 C463 0.950 . S
C457 C455 1.387 . S
C457 C459 1.390 . S
C457 H461 0.950 . S
H458 C454 0.950 . S
C459 C457 1.390 . S
C459 C460 1.387 . S
C459 H462 0.950 . S
C460 C459 1.387 . S
C460 C463 1.387 . S
H461 C457 0.950 . S
H462 C459 0.950 . S
C463 C454 1.390 . S
C463 H456 0.950 . S
C463 C460 1.387 . S
C464 C465 1.387 1_556 S
C464 H468 0.950 . S
C464 C473 1.390 1_455 S
C465 C464 1.387 1_554 S
C465 C467 1.387 . S
H466 C473 0.950 . S
C467 C465 1.387 . S
C467 C469 1.390 1_455 S
C467 H471 0.950 . S
H468 C464 0.950 . S
C469 C467 1.390 1_655 S
C469 C470 1.387 1_554 S
C469 H472 0.950 . S
C470 C469 1.387 1_556 S
C470 C473 1.387 . S
H471 C467 0.950 . S
H472 C469 0.950 . S
C473 C464 1.390 1_655 S
C473 H466 0.950 . S
C473 C470 1.387 . S
C474 C475 1.387 1_545 S
C474 H478 0.950 . S
C474 C483 1.390 1_456 S
C475 C474 1.387 1_565 S
C475 C477 1.387 . S
H476 C483 0.950 . S
C477 C475 1.387 . S
C477 C479 1.390 1_456 S
C477 H481 0.950 . S
H478 C474 0.950 . S
C479 C477 1.390 1_654 S
C479 C480 1.387 1_565 S
C479 H482 0.950 . S
C480 C479 1.387 1_545 S
C480 C483 1.387 . S
H481 C477 0.950 . S
H482 C479 0.950 . S
C483 C474 1.390 1_654 S
C483 H476 0.950 . S
C483 C480 1.387 . S
C484 C485 1.387 . S
C484 H488 0.950 . S
C484 C493 1.390 1_564 S
C485 C484 1.387 . S
C485 C487 1.387 . S
H486 C493 0.950 . S
C487 C485 1.387 . S
C487 C489 1.390 1_564 S
C487 H491 0.950 . S
H488 C484 0.950 . S
C489 C487 1.390 1_546 S
C489 C490 1.387 . S
C489 H492 0.950 . S
C490 C489 1.387 . S
C490 C493 1.387 . S
H491 C487 0.950 . S
H492 C489 0.950 . S
C493 C484 1.390 1_546 S
C493 H486 0.950 . S
C493 C490 1.387 . S
C494 C495 1.387 . S
C494 H498 0.950 . S
C494 C503 1.390 1_556 S
C495 C494 1.387 . S
C495 C497 1.387 . S
H496 C503 0.950 . S
C497 C495 1.387 . S
C497 C499 1.390 1_556 S
C497 H501 0.950 . S
H498 C494 0.950 . S
C499 C497 1.390 1_554 S
C499 C500 1.387 . S
C499 H502 0.950 . S
C500 C499 1.387 . S
C500 C503 1.387 . S
H501 C497 0.950 . S
H502 C499 0.950 . S
C503 C494 1.390 1_554 S
C503 H496 0.950 . S
C503 C500 1.387 . S
C504 C505 1.387 1_655 S
C504 H508 0.950 . S
C504 C513 1.390 1_565 S
C505 C504 1.387 1_455 S
C505 C507 1.387 . S
H506 C513 0.950 . S
C507 C505 1.387 . S
C507 C509 1.390 1_565 S
C507 H511 0.950 . S
H508 C504 0.950 . S
C509 C507 1.390 1_545 S
C509 C510 1.387 1_455 S
C509 H512 0.950 . S
C510 C509 1.387 1_655 S
C510 C513 1.387 . S
H511 C507 0.950 . S
H512 C509 0.950 . S
C513 C504 1.390 1_545 S
C513 H506 0.950 . S
C513 C510 1.387 . S
C514 C515 1.387 . S
C514 H518 0.950 . S
C514 C523 1.390 . S
C515 C514 1.387 . S
C515 C517 1.387 1_545 S
H516 C523 0.950 . S
C517 C515 1.387 1_565 S
C517 C519 1.390 . S
C517 H521 0.950 . S
H518 C514 0.950 . S
C519 C517 1.390 . S
C519 C520 1.387 . S
C519 H522 0.950 . S
C520 C519 1.387 . S
C520 C523 1.387 1_565 S
H521 C517 0.950 . S
H522 C519 0.950 . S
C523 C514 1.390 . S
C523 H516 0.950 . S
C523 C520 1.387 1_545 S
C524 C525 1.387 . S
C524 H528 0.950 . S
C524 C533 1.390 . S
C525 C524 1.387 . S
C525 C527 1.387 . S
H526 C533 0.950 . S
C527 C525 1.387 . S
C527 C529 1.390 . S
C527 H531 0.950 . S
H528 C524 0.950 . S
C529 C527 1.390 . S
C529 C530 1.387 . S
C529 H532 0.950 . S
C530 C529 1.387 . S
C530 C533 1.387 . S
H531 C527 0.950 . S
H532 C529 0.950 . S
C533 C524 1.390 . S
C533 H526 0.950 . S
C533 C530 1.387 . S
C534 C535 1.387 . S
C534 H538 0.950 . S
C534 C543 1.390 1_655 S
C535 C534 1.387 . S
C535 C537 1.387 . S
H536 C543 0.950 . S
C537 C535 1.387 . S
C537 C539 1.390 1_655 S
C537 H541 0.950 . S
H538 C534 0.950 . S
C539 C537 1.390 1_455 S
C539 C540 1.387 . S
C539 H542 0.950 . S
C540 C539 1.387 . S
C540 C543 1.387 . S
H541 C537 0.950 . S
H542 C539 0.950 . S
C543 C534 1.390 1_455 S
C543 H536 0.950 . S
C543 C540 1.387 . S
C225 C3 1.665 . S
C230 C31 1.665 . S
C235 C17 1.665 . S
C240 C45 1.665 . S
C245 C59 1.665 . S
C250 C87 1.665 . S
C255 C101 1.663 . S
C260 C73 1.663 . S
C265 C115 1.663 . S
C270 C143 1.663 . S
C275 C157 1.665 . S
C280 C129 1.665 . S
C285 C199 1.663 . S
C290 C171 1.663 . S
C295 C213 1.665 . S
C300 C185 1.665 . S
C305 C105 1.295 . S
C310 C7 1.295 1_655 S
C315 C21 1.299 1_565 S
C320 C63 1.298 1_655 S
C325 C77 1.295 1_565 S
C330 C35 1.295 . S
C335 C49 1.295 . S
C340 C91 1.295 . S
C345 C217 1.298 . S
C350 C119 1.298 1_455 S
C355 C133 1.299 1_545 S
C360 C175 1.298 1_455 S
C365 C147 1.294 . S
C370 C189 1.294 1_545 S
C375 C203 1.299 . S
C380 C161 1.299 . S
C385 C9 1.084 . S
C390 C65 1.084 . S
C395 C23 1.084 . S
C400 C79 1.084 . S
C405 C93 1.091 . S
C410 C37 1.091 . S
C415 C51 1.091 . S
C420 C107 1.091 . S
C425 C177 1.091 . S
C430 C121 1.091 . S
C435 C191 1.091 . S
C440 C135 1.091 . S
C445 C149 1.091 . S
C450 C205 1.091 . S
C455 C163 1.091 . S
C460 C219 1.091 . S
C465 C8 1.772 . S
C470 C120 1.772 . S
C475 C134 1.773 . S
C480 C22 1.773 . S
C485 C36 1.770 . S
C490 C148 1.770 . S
C495 C162 1.770 . S
C500 C50 1.770 . S
C505 C64 1.770 . S
C510 C176 1.770 . S
C515 C78 1.773 . S
C520 C190 1.773 . S
C525 C204 1.770 . S
C530 C92 1.770 . S
C535 C106 1.773 . S
C540 C218 1.773 . S
