# Generated by pormake.
# Topology snp, (6)-cn, num edge types: 1
# Building blocks:
#     Node 0, Type 0, BuildingBlock: BETDEL_clean_sbu_0, # of connection points: 6
#     Node 1, Type 0, BuildingBlock: BETDEL_clean_sbu_0, # of connection points: 6
#     Node 2, Type 0, BuildingBlock: BETDEL_clean_sbu_0, # of connection points: 6
#     Node 3, Type 0, BuildingBlock: BETDEL_clean_sbu_0, # of connection points: 6
#     Edge 4, Type (0, 0), BuildingBlock: ZUJKAS_clean_linker_0, # of connection points: 2
#     Edge 5, Type (0, 0), BuildingBlock: ZUJKAS_clean_linker_0, # of connection points: 2
#     Edge 6, Type (0, 0), BuildingBlock: ZUJKAS_clean_linker_0, # of connection points: 2
#     Edge 7, Type (0, 0), BuildingBlock: ZUJKAS_clean_linker_0, # of connection points: 2
#     Edge 8, Type (0, 0), BuildingBlock: ZUJKAS_clean_linker_0, # of connection points: 2
#     Edge 9, Type (0, 0), BuildingBlock: ZUJKAS_clean_linker_0, # of connection points: 2
#     Edge 10, Type (0, 0), BuildingBlock: ZUJKAS_clean_linker_0, # of connection points: 2
#     Edge 11, Type (0, 0), BuildingBlock: ZUJKAS_clean_linker_0, # of connection points: 2
#     Edge 12, Type (0, 0), BuildingBlock: ZUJKAS_clean_linker_0, # of connection points: 2
#     Edge 13, Type (0, 0), BuildingBlock: ZUJKAS_clean_linker_0, # of connection points: 2
#     Edge 14, Type (0, 0), BuildingBlock: ZUJKAS_clean_linker_0, # of connection points: 2
#     Edge 15, Type (0, 0), BuildingBlock: ZUJKAS_clean_linker_0, # of connection points: 2
# Relax obj value: 0.317
# Max RMSD: 0.193
# Mean RMSD: 0.191
data_MOF--net-snp--node1-BETDEL_clean_sbu_0--edge1-ZUJKAS_clean_linker_0
_symmetry_space_group_name_H-M    P1
_symmetry_Int_Tables_number       1
_symmetry_cell_setting            triclinic
loop_
_symmetry_equiv_pos_as_xyz
'x, y, z'
_cell_length_a     31.835623
_cell_length_b     31.689899
_cell_length_c     34.956278
_cell_angle_alpha  93.271292
_cell_angle_beta   89.653205
_cell_angle_gamma 94.103234
loop_
_atom_site_label
_atom_site_type_symbol
_atom_site_fract_x
_atom_site_fract_y
_atom_site_fract_z
_atom_type_partial_charge
Dy0 Dy 0.19669 0.06108 0.05691 0.0
C1 C 0.27535 0.93876 0.96182 0.0
C2 C 0.153 0.11954 0.09778 0.0
Dy3 Dy 0.2364 0.99028 1.01413 0.0
O4 O 0.18436 0.12832 0.07493 0.0
O5 O 0.14424 0.07879 0.09661 0.0
O6 O 0.26118 0.08213 0.08072 0.0
O7 O 0.25534 0.05629 1.02471 0.0
C8 C 0.28111 0.07067 0.04995 0.0
C9 C 0.16455 0.96437 0.047 0.0
O10 O 0.25789 0.98104 0.07563 0.0
O11 O 0.20604 0.01942 0.10462 0.0
O12 O 0.23598 0.935 0.97143 0.0
O13 O 0.29428 0.97063 0.98153 0.0
O14 O 0.19791 0.94318 0.0449 0.0
O15 O 0.1707 0.99929 1.03063 0.0
O16 O 0.17601 0.07724 0.99871 0.0
O17 O 0.20612 0.0218 0.96505 0.0
C18 C 0.23588 0.99282 0.10675 0.0
C19 C 0.18434 0.05626 0.96598 0.0
Dy20 Dy 0.94083 0.23996 0.56497 0.0
C21 C 0.09125 0.24343 0.47611 0.0
C22 C 0.87319 0.2274 0.61246 0.0
Dy23 Dy 0.02565 0.23081 0.52583 0.0
O24 O 0.89955 0.19952 0.60239 0.0
O25 O 0.88313 0.26233 0.59577 0.0
O26 O 0.94176 0.30746 0.55214 0.0
O27 O -0.00038 0.28135 0.56235 0.0
C28 C 0.98248 0.31385 0.55209 0.0
C29 C 0.97918 0.15891 0.53752 0.0
O30 O 0.04959 0.22999 0.58621 0.0
O31 O 0.98261 0.21969 0.61228 0.0
O32 O 0.0802 0.20784 0.49136 0.0
O33 O 0.06779 0.27256 0.48988 0.0
O34 O 0.02011 0.16138 0.53925 0.0
O35 O 0.96706 0.19315 0.52763 0.0
O36 O 0.91703 0.22814 0.50402 0.0
O37 O 0.98245 0.24093 0.47591 0.0
C38 C 0.02432 0.21983 0.61522 0.0
C39 C 0.94076 0.23439 0.47299 0.0
Dy40 Dy 0.78634 0.96155 0.05132 0.0
C41 C 0.78297 0.11601 0.9715 0.0
C42 C 0.79098 0.9011 0.10366 0.0
Dy43 Dy 0.79696 0.04529 1.00866 0.0
O44 O 0.75964 0.92463 0.10002 0.0
O45 O 0.81915 0.90945 0.07755 0.0
O46 O 0.72206 0.94914 1.02576 0.0
O47 O 0.74568 0.01177 0.0387 0.0
C48 C 0.71533 0.98894 1.02382 0.0
C49 C 0.86609 0.00229 1.01335 0.0
O50 O 0.8036 0.07403 0.06913 0.0
O51 O 0.79971 0.01056 0.10013 0.0
O52 O 0.81829 0.10901 0.98783 0.0
O53 O 0.75506 0.08475 0.97644 0.0
O54 O 0.85908 0.02532 0.98475 0.0
O55 O 0.83765 0.00665 0.03798 0.0
O56 O 0.80116 0.93547 0.99154 0.0
O57 O 0.78479 0.99515 0.96038 0.0
C58 C 0.80478 0.05268 0.10082 0.0
C59 C 0.79531 0.95513 0.95947 0.0
Dy60 Dy 0.0103 0.81877 0.51425 0.0
C61 C 0.16595 0.82199 0.60057 0.0
C62 C 0.93999 0.82616 0.47102 0.0
Dy63 Dy 0.09271 0.82879 0.56176 0.0
O64 O 0.95057 0.79115 0.48481 0.0
O65 O 0.96671 0.85699 0.48254 0.0
O66 O 0.03443 0.76067 0.48441 0.0
O67 O 0.05019 0.77532 0.54168 0.0
C68 C 0.05604 0.75015 0.51328 0.0
C69 C 0.04718 0.8966 0.56643 0.0
O70 O 0.11794 0.83214 0.50051 0.0
O71 O 0.0555 0.84537 0.47105 0.0
O72 O 0.15771 0.85366 0.5805 0.0
O73 O 0.13462 0.79327 0.59823 0.0
O74 O 0.07434 0.88873 0.59217 0.0
O75 O 0.05133 0.87139 0.53754 0.0
O76 O 0.98259 0.81878 0.57401 0.0
O77 O 0.04466 0.81387 0.60829 0.0
C78 C 0.09691 0.84323 0.47015 0.0
C79 C 0.00287 0.81526 0.60682 0.0
H80 H 0.8951 0.96061 0.07131 0.0
H81 H 0.92224 0.89193 0.0681 0.0
H82 H 0.9099 0.88576 0.9442 0.0
H83 H 0.88872 0.95779 0.94821 0.0
H84 H 0.95849 0.8397 0.94327 0.0
H85 H 0.92466 0.77418 0.06951 0.0
H86 H 0.88818 0.81245 0.05767 0.0
H87 H 0.92719 0.82459 0.09526 0.0
C88 C 0.89922 0.94466 0.04341 0.0
C89 C 0.88951 0.96409 1.0101 0.0
C90 C 0.91351 0.90417 0.04133 0.0
C91 C 0.91749 0.8812 1.00569 0.0
C92 C 0.90766 0.90148 0.97227 0.0
H93 H 0.09031 0.98087 1.01423 0.0
H94 H 0.03119 0.92873 1.00105 0.0
C95 C 0.89555 0.94304 0.97442 0.0
C96 C 0.93975 0.84081 1.0031 0.0
H97 H 0.00507 0.83008 0.07692 0.0
C98 C 0.96845 0.83718 0.97254 0.0
C99 C 0.95257 0.82465 0.03771 0.0
C100 C 0.92103 0.80842 0.0666 0.0
C101 C 0.01151 0.84252 0.98083 0.0
C102 C 0.02367 0.84709 1.01975 0.0
C103 C -0.0047 0.83168 0.04742 0.0
C104 C 0.05744 0.87914 1.03186 0.0
C105 C 0.0426 0.84962 0.9488 0.0
C106 C 0.08921 0.8699 0.05679 0.0
C107 C 0.12229 0.90019 0.06527 0.0
C108 C 0.1239 0.93985 0.04877 0.0
C109 C 0.08989 0.95052 1.02708 0.0
C110 C 0.05673 0.92036 1.01885 0.0
H111 H 0.03452 0.82723 0.92389 0.0
H112 H 0.04088 0.88221 0.93911 0.0
H113 H 0.07531 0.84559 0.9581 0.0
H114 H 0.08949 0.83881 0.06811 0.0
H115 H 0.14815 0.89152 0.08254 0.0
H116 H 0.01626 0.9072 0.63835 0.0
H117 H 0.9459 0.92311 0.6571 0.0
H118 H 0.92041 0.94974 0.53945 0.0
H119 H 0.98865 0.92686 0.52061 0.0
H120 H 0.90492 0.97468 0.6714 0.0
H121 H 0.80439 0.9297 0.55719 0.0
H122 H 0.85136 0.90114 0.559 0.0
H123 H 0.84713 0.94286 0.52586 0.0
C124 C 0.99485 0.91518 0.6164 0.0
C125 C 0.00708 0.91404 0.57776 0.0
C126 C 0.95419 0.92447 0.62716 0.0
C127 C 0.92564 0.93658 0.59997 0.0
C128 C 0.93938 0.93784 0.56136 0.0
H129 H 0.8948 0.14665 0.52712 0.0
H130 H 0.8454 0.09841 0.56038 0.0
C131 C 0.97921 0.92584 0.55036 0.0
C132 C 0.88608 0.95639 0.61256 0.0
H133 H 0.83314 0.01765 0.55653 0.0
C134 C 0.88783 0.98277 0.64652 0.0
C135 C 0.85635 0.96553 0.58483 0.0
C136 C 0.83927 0.93264 0.55507 0.0
C137 C 0.87571 0.02429 0.64542 0.0
C138 C 0.86546 0.03839 0.60936 0.0
C139 C 0.8473 0.00796 0.58245 0.0
C140 C 0.89355 0.07245 0.5935 0.0
C141 C 0.8843 0.05506 0.67931 0.0
C142 C 0.93738 0.07306 0.60003 0.0
C143 C 0.96551 0.10032 0.58107 0.0
C144 C 0.95051 0.12715 0.55483 0.0
C145 C 0.90701 0.12613 0.54748 0.0
C146 C 0.8787 0.09907 0.56677 0.0
H147 H 0.91879 0.06078 0.68372 0.0
H148 H 0.87061 0.08573 0.67521 0.0
H149 H 0.87087 0.04131 0.70563 0.0
H150 H 0.95035 0.05143 0.61892 0.0
H151 H -0.00114 0.10061 0.58718 0.0
H152 H 0.68988 0.06896 0.03812 0.0
H153 H 0.61717 0.09002 0.04033 0.0
H154 H 0.57235 0.96321 1.00164 0.0
H155 H 0.64472 0.94186 0.99977 0.0
H156 H 0.55015 0.08596 0.98557 0.0
H157 H 0.5143 0.9831 0.10655 0.0
H158 H 0.5674 0.9969 0.09091 0.0
H159 H 0.53535 0.95593 0.06503 0.0
C160 C 0.66454 0.04578 1.02953 0.0
C161 C 0.67279 0.00362 1.01928 0.0
C162 C 0.62308 0.05784 1.03084 0.0
C163 C 0.58942 0.02791 1.02196 0.0
C164 C 0.59788 0.98653 1.00937 0.0
H165 H 0.32554 0.05288 0.98509 0.0
H166 H 0.40147 0.04704 0.97905 0.0
C167 C 0.63921 0.97444 1.00814 0.0
C168 C 0.54536 0.03906 1.02786 0.0
H169 H 0.45616 0.01241 0.07825 0.0
C170 C 0.52959 0.07011 1.00595 0.0
C171 C 0.51894 0.01894 0.05507 0.0
C172 C 0.53487 0.98715 0.08104 0.0
C173 C 0.48751 0.0805 1.0096 0.0
C174 C 0.46052 0.0588 1.03545 0.0
C175 C 0.47678 0.02879 0.05823 0.0
C176 C 0.41495 0.06546 0.03856 0.0
C177 C 0.47242 0.11475 0.98593 0.0
C178 C 0.39714 0.0771 0.07415 0.0
C179 C 0.35361 0.07983 0.07777 0.0
C180 C 0.32724 0.07064 0.04589 0.0
C181 C 0.34517 0.05982 1.01018 0.0
C182 C 0.38861 0.05698 1.00659 0.0
H183 H 0.49902 0.13665 0.97694 0.0
H184 H 0.45696 0.09992 0.95963 0.0
H185 H 0.44922 0.13347 1.002 0.0
H186 H 0.41688 0.0835 0.09924 0.0
H187 H 0.34054 0.08821 0.10563 0.0
H188 H 0.06691 0.33819 0.54121 0.0
H189 H 0.09727 0.41051 0.53103 0.0
H190 H 0.97481 0.45831 0.54982 0.0
H191 H 0.9445 0.38706 0.5578 0.0
H192 H 0.00912 0.48546 0.48585 0.0
H193 H 0.12565 0.51262 0.60424 0.0
H194 H 0.1316 0.46718 0.57199 0.0
H195 H 0.08616 0.46875 0.60257 0.0
C196 C 0.04672 0.36428 0.54319 0.0
C197 C 0.00326 0.35688 0.54969 0.0
C198 C 0.06411 0.40562 0.53774 0.0
C199 C 0.03832 0.43998 0.53969 0.0
C200 C -0.00465 0.43242 0.5478 0.0
H201 H 0.05821 0.70592 0.57787 0.0
H202 H 0.06358 0.62957 0.58081 0.0
C203 C 0.97803 0.39151 0.55241 0.0
C204 C 0.05418 0.48381 0.53125 0.0
H205 H 0.11667 0.56971 0.56552 0.0
C206 C 0.033 0.50379 0.503 0.0
C207 C 0.08528 0.50767 0.55368 0.0
C208 C 0.10839 0.48823 0.58504 0.0
C209 C 0.03979 0.54735 0.49822 0.0
C210 C 0.07044 0.57158 0.52103 0.0
C211 C 0.09338 0.55116 0.54792 0.0
C212 C 0.07555 0.61861 0.52011 0.0
C213 C 0.0117 0.56725 0.47067 0.0
C214 C 0.08267 0.63838 0.48543 0.0
C215 C 0.07837 0.68184 0.48353 0.0
C216 C 0.06846 0.70651 0.51654 0.0
C217 C 0.06567 0.68758 0.55192 0.0
C218 C 0.06885 0.64392 0.55363 0.0
H219 H 0.98318 0.54625 0.463 0.0
H220 H 0.0013 0.59784 0.48304 0.0
H221 H 0.0293 0.57323 0.44381 0.0
H222 H 0.08938 0.61985 0.45942 0.0
H223 H 0.08126 0.69588 0.45601 0.0
H224 H 0.13312 0.18173 0.43826 0.0
H225 H 0.15115 0.17856 0.37018 0.0
H226 H 0.11638 0.30679 0.36199 0.0
H227 H 0.09823 0.31015 0.43019 0.0
H228 H 0.07077 0.2471 0.31348 0.0
H229 H 0.24198 0.22926 0.29891 0.0
H230 H 0.21685 0.19439 0.33218 0.0
H231 H 0.21862 0.25077 0.34238 0.0
C232 C 0.13092 0.20982 0.42231 0.0
C233 C 0.11408 0.24608 0.43941 0.0
C234 C 0.14126 0.208 0.38338 0.0
C235 C 0.13509 0.24246 0.36104 0.0
C236 C 0.12144 0.27991 0.37878 0.0
H237 H 0.18496 0.20024 0.11588 0.0
H238 H 0.1773 0.24002 0.17739 0.0
C239 C 0.11131 0.28184 0.41778 0.0
C240 C 0.13666 0.23683 0.31872 0.0
H241 H 0.19892 0.204 0.24476 0.0
C242 C 0.09901 0.23856 0.29828 0.0
C243 C 0.1735 0.22592 0.29894 0.0
C244 C 0.21514 0.22535 0.31917 0.0
C245 C 0.09668 0.22724 0.25891 0.0
C246 C 0.13286 0.2136 0.23964 0.0
C247 C 0.17111 0.2143 0.25962 0.0
C248 C 0.13107 0.19452 0.19994 0.0
C249 C 0.05527 0.22895 0.23853 0.0
C250 C 0.1065 0.15653 0.19178 0.0
C251 C 0.11081 0.13378 0.15673 0.0
C252 C 0.13989 0.1486 0.12935 0.0
C253 C 0.16213 0.18819 0.1364 0.0
C254 C 0.15797 0.21084 0.17158 0.0
H255 H 0.03522 0.25211 0.25338 0.0
H256 H 0.06016 0.23762 0.20841 0.0
H257 H 0.03792 0.19729 0.23829 0.0
H258 H 0.08606 0.14299 0.21347 0.0
H259 H 0.0935 0.10322 0.15214 0.0
H260 H 0.82176 0.28594 0.64415 0.0
H261 H 0.784 0.28171 0.70549 0.0
H262 H 0.8236 0.15534 0.71575 0.0
H263 H 0.8592 0.15873 0.65416 0.0
H264 H 0.74692 0.16087 0.74303 0.0
H265 H 0.84945 0.29817 0.80325 0.0
H266 H 0.81586 0.30851 0.76431 0.0
H267 H 0.858 0.27418 0.75616 0.0
C268 C 0.82136 0.25695 0.65917 0.0
C269 C 0.84373 0.22282 0.64479 0.0
C270 C 0.80023 0.25474 0.69437 0.0
C271 C 0.802 0.21871 0.7158 0.0
C272 C 0.82193 0.18362 0.69994 0.0
H273 H 0.84627 0.16034 0.93598 0.0
H274 H 0.84102 0.19536 0.87616 0.0
C275 C 0.84237 0.18557 0.66471 0.0
C276 C 0.78644 0.2177 0.75589 0.0
H277 H 0.80879 0.25926 0.84638 0.0
C278 C 0.7598 0.18276 0.76568 0.0
C279 C 0.80339 0.2464 0.78534 0.0
C280 C 0.83349 0.28378 0.77697 0.0
C281 C 0.75276 0.17339 0.80402 0.0
C282 C 0.77119 0.2011 0.83357 0.0
C283 C 0.7947 0.23814 0.82374 0.0
C284 C 0.77282 0.18852 0.87382 0.0
C285 C 0.72883 0.13191 0.81209 0.0
C286 C 0.73621 0.17532 0.8938 0.0
C287 C 0.73927 0.15415 0.92762 0.0
C288 C 0.77894 0.14737 0.94254 0.0
C289 C 0.81529 0.16507 0.92503 0.0
C290 C 0.81227 0.18514 0.89077 0.0
H291 H 0.72417 0.11066 0.78584 0.0
H292 H 0.74569 0.11481 0.83347 0.0
H293 H 0.69727 0.13824 0.82373 0.0
H294 H 0.70539 0.17904 0.88209 0.0
H295 H 0.71076 0.14115 0.94093 0.0
H296 H 0.88716 0.76293 0.43681 0.0
H297 H 0.8492 0.76566 0.37614 0.0
H298 H 0.8916 0.89762 0.37068 0.0
H299 H 0.92753 0.89549 0.43178 0.0
H300 H 0.8152 0.88581 0.34466 0.0
H301 H 0.90918 0.76137 0.2756 0.0
H302 H 0.87758 0.74404 0.31517 0.0
H303 H 0.92022 0.78394 0.32325 0.0
C304 C 0.88746 0.79269 0.42302 0.0
C305 C 0.91054 0.82891 0.43885 0.0
C306 C 0.86628 0.7941 0.38807 0.0
C307 C 0.86862 0.8315 0.36807 0.0
C308 C 0.88953 0.86825 0.38523 0.0
H309 H 0.86567 0.87705 0.12963 0.0
H310 H 0.87999 0.85449 0.19376 0.0
C311 C 0.91007 0.86703 0.42029 0.0
C312 C 0.85125 0.83265 0.32864 0.0
H313 H 0.86 0.79066 0.23682 0.0
C314 C 0.82476 0.86478 0.32113 0.0
C315 C 0.86416 0.80558 0.29773 0.0
C316 C 0.89465 0.77205 0.30313 0.0
C317 C 0.81204 0.8716 0.2837 0.0
C318 C 0.8246 0.84429 0.25282 0.0
C319 C 0.85002 0.81131 0.26045 0.0
C320 C 0.81479 0.85175 0.2122 0.0
C321 C 0.78731 0.90959 0.27756 0.0
C322 C 0.7732 0.85563 0.20036 0.0
C323 C 0.76508 0.86928 0.16393 0.0
C324 C 0.79829 0.87806 0.13829 0.0
C325 C 0.83945 0.87046 0.14881 0.0
C326 C 0.84765 0.85766 0.18554 0.0
H327 H 0.79016 0.93323 0.30231 0.0
H328 H 0.79809 0.92554 0.25142 0.0
H329 H 0.75347 0.8991 0.27417 0.0
H330 H 0.74712 0.84978 0.21982 0.0
H331 H 0.733 0.87458 0.15638 0.0
H332 H 0.17068 0.77282 0.6615 0.0
H333 H 0.21468 0.78853 0.71829 0.0
H334 H 0.28113 0.89157 0.66261 0.0
H335 H 0.23571 0.87715 0.60634 0.0
H336 H 0.29691 0.79692 0.73947 0.0
H337 H 0.22835 0.95391 0.75162 0.0
H338 H 0.20994 0.91269 0.7169 0.0
H339 H 0.25816 0.94412 0.70873 0.0
C340 C 0.19534 0.79817 0.66101 0.0
C341 C 0.19938 0.82423 0.62983 0.0
C342 C 0.2205 0.80716 0.69351 0.0
C343 C 0.25039 0.84204 0.69519 0.0
C344 C 0.25741 0.86531 0.66243 0.0
H345 H 0.33622 0.9687 0.91283 0.0
H346 H 0.34519 0.94264 0.84592 0.0
C347 C 0.23172 0.85682 0.63017 0.0
C348 C 0.2702 0.8566 0.73251 0.0
H349 H 0.27148 0.93752 0.80147 0.0
C350 C 0.29193 0.82792 0.7528 0.0
C351 C 0.26361 0.89707 0.75005 0.0
C352 C 0.23847 0.92864 0.73095 0.0
C353 C 0.30575 0.83801 0.79058 0.0
C354 C 0.2976 0.87772 0.80847 0.0
C355 C 0.27811 0.90725 0.78749 0.0
C356 C 0.30221 0.88704 0.85037 0.0
C357 C 0.32776 0.80564 0.81148 0.0
C358 C 0.27632 0.86364 0.87532 0.0
C359 C 0.27085 0.87868 0.91319 0.0
C360 C 0.29142 0.9172 0.92686 0.0
C361 C 0.32042 0.93864 0.90306 0.0
C362 C 0.32543 0.92386 0.86484 0.0
H363 H 0.34364 0.78367 0.79116 0.0
H364 H 0.35142 0.82114 0.83194 0.0
H365 H 0.30414 0.78651 0.82791 0.0
H366 H 0.25745 0.83567 0.86469 0.0
H367 H 0.24812 0.86175 0.93096 0.0
H368 H 0.80835 0.8709 0.94076 0.0
H369 H 0.83782 0.84052 0.88127 0.0
H370 H 0.84376 0.96337 0.83367 0.0
H371 H 0.81231 0.99316 0.89195 0.0
H372 H 0.82403 0.90985 0.77938 0.0
H373 H 0.95719 0.84437 0.85142 0.0
H374 H 0.90717 0.82344 0.86835 0.0
H375 H 0.9225 0.87913 0.87619 0.0
C376 C 0.81521 0.89131 0.91736 0.0
C377 C 0.80763 0.93462 0.9215 0.0
C378 C 0.83293 0.87399 0.88337 0.0
C379 C 0.84466 0.89963 0.85279 0.0
C380 C 0.83551 0.94252 0.85647 0.0
H381 H 0.03313 0.83927 0.67882 0.0
H382 H 0.99339 0.85824 0.73627 0.0
C383 C 0.81718 0.95964 0.89006 0.0
C384 C 0.86639 0.88244 0.81708 0.0
H385 H 0.94929 0.82637 0.78532 0.0
C386 C 0.85156 0.89174 0.78083 0.0
C387 C 0.90291 0.85925 0.81825 0.0
C388 C 0.92369 0.85128 0.85559 0.0
C389 C 0.87194 0.8792 0.74636 0.0
C390 C 0.90756 0.85452 0.7474 0.0
C391 C 0.92205 0.84484 0.78373 0.0
C392 C 0.93177 0.84049 0.71183 0.0
C393 C 0.85559 0.89443 0.70951 0.0
C394 C 0.91138 0.82266 0.67831 0.0
C395 C 0.9343 0.81308 0.64464 0.0
C396 C 0.97859 0.8191 0.64383 0.0
C397 C -0.00084 0.83384 0.67812 0.0
C398 C 0.97619 0.84491 0.71127 0.0
H399 H 0.83953 0.92425 0.71462 0.0
H400 H 0.8812 0.90023 0.68849 0.0
H401 H 0.8321 0.87016 0.69679 0.0
H402 H 0.87752 0.81668 0.67778 0.0
H403 H 0.9172 0.80147 0.61903 0.0
H404 H 0.25025 0.9101 0.12288 0.0
H405 H 0.23843 0.8777 0.18492 0.0
H406 H 0.21386 0.99977 0.23776 0.0
H407 H 0.22662 0.03195 0.17678 0.0
H408 H 0.25497 0.95721 0.28692 0.0
H409 H 0.12196 0.85167 0.22669 0.0
H410 H 0.172 0.84413 0.20436 0.0
H411 H 0.14779 0.8932 0.20008 0.0
C412 C 0.2437 0.93014 0.14803 0.0
C413 C 0.23957 0.97372 0.14471 0.0
C414 C 0.23611 0.91148 0.18348 0.0
C415 C 0.22404 0.93593 0.21629 0.0
C416 C 0.22276 0.97983 0.21326 0.0
H417 H 0.06319 0.8736 0.40624 0.0
H418 H 0.09764 0.89268 0.34683 0.0
C419 C 0.23023 0.99832 0.17815 0.0
C420 C 0.21049 0.91657 0.25331 0.0
H421 H 0.13557 0.84848 0.29234 0.0
C422 C 0.22913 0.93308 0.28799 0.0
C423 C 0.17626 0.88548 0.25525 0.0
C424 C 0.15299 0.86776 0.21973 0.0
C425 C 0.21415 0.92031 0.32406 0.0
C426 C 0.17989 0.88926 0.32598 0.0
C427 C 0.16194 0.87202 0.29126 0.0
C428 C 0.15971 0.87689 0.36335 0.0
C429 C 0.23392 0.94189 0.3598 0.0
C430 C 0.18265 0.86115 0.39324 0.0
C431 C 0.1628 0.85032 0.428 0.0
C432 C 0.11937 0.85451 0.43365 0.0
C433 C 0.09661 0.86977 0.40342 0.0
C434 C 0.11638 0.88071 0.36903 0.0
H435 H 0.2524 0.97184 0.35368 0.0
H436 H 0.20957 0.94917 0.3816 0.0
H437 H 0.25566 0.92052 0.37223 0.0
H438 H 0.21588 0.85682 0.38965 0.0
H439 H 0.18144 0.83843 0.45029 0.0
H440 H 0.98327 0.1735 0.66966 0.0
H441 H 0.01154 0.14598 0.72708 0.0
H442 H 0.13427 0.20422 0.70158 0.0
H443 H 0.1063 0.23036 0.64266 0.0
H444 H 0.14456 0.13051 0.72697 0.0
H445 H 0.03385 0.20387 0.82813 0.0
H446 H 0.00591 0.16995 0.7927 0.0
H447 H 0.03676 0.2165 0.77856 0.0
C448 C 0.01624 0.18102 0.67633 0.0
C449 C 0.04222 0.20496 0.65149 0.0
C450 C 0.03245 0.16531 0.70961 0.0
C451 C 0.07503 0.17379 0.71994 0.0
C452 C 0.10124 0.19729 0.69489 0.0
H453 H 0.15997 0.13571 0.95354 0.0
H454 H 0.13637 0.1633 0.89417 0.0
C455 C 0.08514 0.21248 0.66111 0.0
C456 C 0.09215 0.15736 0.75619 0.0
H457 H 0.07265 0.14944 0.85224 0.0
C458 C 0.12889 0.13501 0.75438 0.0
C459 C 0.07261 0.16346 0.79256 0.0
C460 C 0.03541 0.19015 0.79823 0.0
C461 C 0.14597 0.11828 0.78717 0.0
C462 C 0.12512 0.12247 0.82316 0.0
C463 C 0.08873 0.14537 0.82499 0.0
C464 C 0.14092 0.10494 0.85949 0.0
C465 C 0.18702 0.09746 0.78283 0.0
C466 C 0.15149 0.06252 0.86084 0.0
C467 C 0.16599 0.04678 0.89499 0.0
C468 C 0.16924 0.07257 0.9292 0.0
C469 C 0.15785 0.11466 0.928 0.0
C470 C 0.14419 0.13057 0.89379 0.0
H471 H 0.20545 0.10908 0.75797 0.0
H472 H 0.20674 0.10338 0.80893 0.0
H473 H 0.18035 0.06276 0.77766 0.0
H474 H 0.14806 0.04119 0.8356 0.0
H475 H 0.17396 0.01411 0.89471 0.0
H476 H 0.81111 0.01921 0.17103 0.0
H477 H 0.83087 0.0556 0.23228 0.0
H478 H 0.8418 0.17508 0.17876 0.0
H479 H 0.82162 0.13881 0.11696 0.0
H480 H 0.90501 0.10199 0.25099 0.0
H481 H 0.77014 0.20238 0.27362 0.0
H482 H 0.7691 0.15823 0.23853 0.0
H483 H 0.79708 0.20769 0.22864 0.0
C484 C 0.81728 0.05331 0.17208 0.0
C485 C 0.81455 0.07593 0.13868 0.0
C486 C 0.82872 0.07413 0.20734 0.0
C487 C 0.83751 0.11826 0.21054 0.0
C488 C 0.83447 0.14114 0.1774 0.0
H489 H 0.97952 0.24593 0.40367 0.0
H490 H 0.95404 0.22101 0.34 0.0
C491 C 0.82307 0.12026 0.14192 0.0
C492 C 0.85155 0.13955 0.24823 0.0
H493 H 0.82593 0.21328 0.31853 0.0
C494 C 0.88771 0.12639 0.26565 0.0
C495 C 0.82888 0.17115 0.26779 0.0
C496 C 0.78892 0.18556 0.25147 0.0
C497 C 0.90185 0.14385 0.30169 0.0
C498 C 0.87962 0.17597 0.32101 0.0
C499 C 0.84326 0.18898 0.30375 0.0
C500 C 0.89329 0.1955 0.35946 0.0
C501 C 0.94001 0.12688 0.31917 0.0
C502 C 0.86699 0.1916 0.39176 0.0
C503 C 0.8814 0.20626 0.42847 0.0
C504 C 0.92246 0.22534 0.43375 0.0
C505 C 0.94783 0.2312 0.40099 0.0
C506 C 0.93339 0.21663 0.36441 0.0
H507 H 0.94673 0.09542 0.30579 0.0
H508 H 0.96793 0.14909 0.31468 0.0
H509 H 0.93575 0.12389 0.35048 0.0
H510 H 0.83581 0.1757 0.38881 0.0
H511 H 0.86095 0.20101 0.45286 0.0
loop_
_geom_bond_atom_site_label_1
_geom_bond_atom_site_label_2
_geom_bond_distance
_geom_bond_site_symmetry_2
_ccdc_geom_bond_type
Dy0 O4 2.398 . S
Dy0 O5 2.491 . S
Dy0 O6 2.403 . S
Dy0 O7 2.664 1_554 S
Dy0 O11 2.326 . S
Dy0 O15 2.310 . S
Dy0 O16 2.351 1_554 S
C1 O12 1.185 . S
C1 O13 1.355 . S
C2 O4 1.185 . S
C2 O5 1.355 . S
Dy3 O7 2.310 1_565 S
Dy3 O10 2.351 1_556 S
Dy3 O12 2.398 . S
Dy3 O13 2.491 . S
Dy3 O14 2.403 . S
Dy3 O15 2.664 1_566 S
Dy3 O17 2.326 1_565 S
O4 Dy0 2.398 . S
O4 C2 1.185 . S
O5 Dy0 2.491 . S
O5 C2 1.355 . S
O6 Dy0 2.403 . S
O6 C8 1.254 . S
O7 Dy0 2.664 1_556 S
O7 Dy3 2.310 1_545 S
O7 C8 1.268 1_556 S
C8 O6 1.254 . S
C8 O7 1.268 1_554 S
C9 O14 1.254 1_544 S
C9 O15 1.268 . S
O10 Dy3 2.351 1_554 S
O10 C18 1.249 . S
O11 Dy0 2.326 . S
O11 C18 1.267 1_545 S
O12 C1 1.185 . S
O12 Dy3 2.398 . S
O13 C1 1.355 . S
O13 Dy3 2.491 . S
O14 Dy3 2.403 . S
O14 C9 1.254 1_566 S
O15 Dy0 2.310 . S
O15 Dy3 2.664 1_544 S
O15 C9 1.268 . S
O16 Dy0 2.351 1_556 S
O16 C19 1.249 . S
O17 Dy3 2.326 1_545 S
O17 C19 1.267 . S
C18 O10 1.249 . S
C18 O11 1.267 1_565 S
C19 O16 1.249 . S
C19 O17 1.267 . S
Dy20 O24 2.398 . S
Dy20 O25 2.491 . S
Dy20 O26 2.403 . S
Dy20 O27 2.664 1_655 S
Dy20 O31 2.326 1_655 S
Dy20 O35 2.310 1_655 S
Dy20 O36 2.351 . S
C21 O32 1.185 . S
C21 O33 1.355 . S
C22 O24 1.185 . S
C22 O25 1.355 . S
Dy23 O27 2.310 . S
Dy23 O30 2.351 . S
Dy23 O32 2.398 . S
Dy23 O33 2.491 . S
Dy23 O34 2.403 . S
Dy23 O35 2.664 . S
Dy23 O37 2.326 . S
O24 Dy20 2.398 . S
O24 C22 1.185 . S
O25 Dy20 2.491 . S
O25 C22 1.355 . S
O26 Dy20 2.403 . S
O26 C28 1.254 1_655 S
O27 Dy20 2.664 1_455 S
O27 Dy23 2.310 . S
O27 C28 1.268 . S
C28 O26 1.254 1_455 S
C28 O27 1.268 . S
C29 O34 1.254 . S
C29 O35 1.268 . S
O30 Dy23 2.351 . S
O30 C38 1.249 . S
O31 Dy20 2.326 1_455 S
O31 C38 1.267 . S
O32 C21 1.185 . S
O32 Dy23 2.398 . S
O33 C21 1.355 . S
O33 Dy23 2.491 . S
O34 Dy23 2.403 . S
O34 C29 1.254 . S
O35 Dy20 2.310 1_455 S
O35 Dy23 2.664 . S
O35 C29 1.268 . S
O36 Dy20 2.351 . S
O36 C39 1.249 . S
O37 Dy23 2.326 . S
O37 C39 1.267 1_455 S
C38 O30 1.249 . S
C38 O31 1.267 . S
C39 O36 1.249 . S
C39 O37 1.267 1_655 S
Dy40 O44 2.398 . S
Dy40 O45 2.491 . S
Dy40 O46 2.403 . S
Dy40 O47 2.664 1_564 S
Dy40 O51 2.326 1_565 S
Dy40 O55 2.310 . S
Dy40 O56 2.351 1_554 S
C41 O52 1.185 . S
C41 O53 1.355 . S
C42 O44 1.185 . S
C42 O45 1.355 . S
Dy43 O47 2.310 . S
Dy43 O50 2.351 1_556 S
Dy43 O52 2.398 . S
Dy43 O53 2.491 . S
Dy43 O54 2.403 . S
Dy43 O55 2.664 1_546 S
Dy43 O57 2.326 1_545 S
O44 Dy40 2.398 . S
O44 C42 1.185 . S
O45 Dy40 2.491 . S
O45 C42 1.355 . S
O46 Dy40 2.403 . S
O46 C48 1.254 . S
O47 Dy40 2.664 1_546 S
O47 Dy43 2.310 . S
O47 C48 1.268 1_546 S
C48 O46 1.254 . S
C48 O47 1.268 1_564 S
C49 O54 1.254 1_554 S
C49 O55 1.268 1_545 S
O50 Dy43 2.351 1_554 S
O50 C58 1.249 . S
O51 Dy40 2.326 1_545 S
O51 C58 1.267 . S
O52 C41 1.185 . S
O52 Dy43 2.398 . S
O53 C41 1.355 . S
O53 Dy43 2.491 . S
O54 Dy43 2.403 . S
O54 C49 1.254 1_556 S
O55 Dy40 2.310 . S
O55 Dy43 2.664 1_564 S
O55 C49 1.268 1_565 S
O56 Dy40 2.351 1_556 S
O56 C59 1.249 . S
O57 Dy43 2.326 1_565 S
O57 C59 1.267 . S
C58 O50 1.249 . S
C58 O51 1.267 . S
C59 O56 1.249 . S
C59 O57 1.267 . S
Dy60 O64 2.398 . S
Dy60 O65 2.491 . S
Dy60 O66 2.403 . S
Dy60 O67 2.664 1_655 S
Dy60 O71 2.326 1_655 S
Dy60 O75 2.310 1_655 S
Dy60 O76 2.351 . S
C61 O72 1.185 . S
C61 O73 1.355 . S
C62 O64 1.185 . S
C62 O65 1.355 . S
Dy63 O67 2.310 . S
Dy63 O70 2.351 . S
Dy63 O72 2.398 . S
Dy63 O73 2.491 . S
Dy63 O74 2.403 . S
Dy63 O75 2.664 . S
Dy63 O77 2.326 . S
O64 Dy60 2.398 . S
O64 C62 1.185 . S
O65 Dy60 2.491 . S
O65 C62 1.355 . S
O66 Dy60 2.403 . S
O66 C68 1.273 . S
O67 Dy60 2.664 1_455 S
O67 Dy63 2.310 . S
O67 C68 1.260 1_455 S
C68 O66 1.273 . S
C68 O67 1.260 1_655 S
C69 O74 1.254 . S
C69 O75 1.268 . S
O70 Dy63 2.351 . S
O70 C78 1.249 . S
O71 Dy60 2.326 1_455 S
O71 C78 1.267 . S
O72 C61 1.185 . S
O72 Dy63 2.398 . S
O73 C61 1.355 . S
O73 Dy63 2.491 . S
O74 Dy63 2.403 . S
O74 C69 1.254 . S
O75 Dy60 2.310 1_455 S
O75 Dy63 2.664 . S
O75 C69 1.268 . S
O76 Dy60 2.351 . S
O76 C79 1.249 . S
O77 Dy63 2.326 . S
O77 C79 1.267 1_455 S
C78 O70 1.249 . S
C78 O71 1.267 . S
C79 O76 1.249 . S
C79 O77 1.267 1_655 S
H80 C88 0.929 . S
H81 C90 0.930 . S
H82 C92 0.930 . S
H83 C95 0.929 . S
H84 C98 0.930 . S
H85 C100 0.960 . S
H86 C100 0.960 . S
H87 C100 0.960 1_556 S
C88 H80 0.929 . S
C88 C89 1.377 . S
C88 C90 1.384 . S
C89 C88 1.377 . S
C89 C95 1.390 1_564 S
C90 H81 0.930 . S
C90 C88 1.384 . S
C90 C91 1.372 1_565 S
C91 C90 1.372 1_545 S
C91 C92 1.400 1_554 S
C91 C96 1.490 . S
C92 H82 0.930 . S
C92 C91 1.400 1_556 S
C92 C95 1.386 . S
H93 C109 0.930 . S
H94 C110 0.931 . S
C95 H83 0.929 . S
C95 C89 1.390 1_546 S
C95 C92 1.386 . S
C96 C91 1.490 . S
C96 C98 1.395 1_545 S
C96 C99 1.403 . S
H97 C103 0.930 . S
C98 H84 0.930 . S
C98 C96 1.395 1_565 S
C98 C101 1.403 1_655 S
C99 C96 1.403 . S
C99 C100 1.524 . S
C99 C103 1.400 1_655 S
C100 H85 0.960 . S
C100 H86 0.960 . S
C100 H87 0.960 1_554 S
C100 C99 1.524 . S
C101 C98 1.403 1_455 S
C101 C102 1.392 1_565 S
C101 C105 1.495 . S
C102 C101 1.392 1_545 S
C102 C103 1.385 . S
C102 C104 1.478 . S
C103 H97 0.930 . S
C103 C99 1.400 1_455 S
C103 C102 1.385 . S
C104 C102 1.478 . S
C104 C106 1.381 . S
C104 C110 1.383 1_554 S
C105 C101 1.495 . S
C105 H111 0.959 . S
C105 H112 0.961 1_554 S
C105 H113 0.960 . S
C106 C104 1.381 . S
C106 C107 1.394 . S
C106 H114 0.930 1_545 S
C107 C106 1.394 . S
C107 C108 1.383 . S
C107 H115 0.929 . S
C108 C107 1.383 . S
C108 C109 1.377 1_554 S
C109 H93 0.930 . S
C109 C108 1.377 1_556 S
C109 C110 1.379 . S
C110 H94 0.931 . S
C110 C104 1.383 1_556 S
C110 C109 1.379 . S
H111 C105 0.959 . S
H112 C105 0.961 1_556 S
H113 C105 0.960 . S
H114 C106 0.930 1_565 S
H115 C107 0.929 . S
H116 C124 0.929 . S
H117 C126 0.930 . S
H118 C128 0.930 . S
H119 C131 0.929 . S
H120 C134 0.930 . S
H121 C136 0.980 . S
H122 C136 0.960 . S
H123 C136 0.960 1_455 S
C124 H116 0.929 . S
C124 C125 1.377 1_655 S
C124 C126 1.384 . S
C125 C124 1.377 1_455 S
C125 C131 1.390 . S
C126 H117 0.930 . S
C126 C124 1.384 . S
C126 C127 1.372 1_655 S
C127 C126 1.372 1_455 S
C127 C128 1.400 . S
C127 C132 1.490 . S
C128 H118 0.930 . S
C128 C127 1.400 . S
C128 C131 1.386 . S
H129 C145 0.930 . S
H130 C146 0.931 . S
C131 H119 0.929 . S
C131 C125 1.390 . S
C131 C128 1.386 . S
C132 C127 1.490 . S
C132 C134 1.395 . S
C132 C135 1.398 1_455 S
H133 C139 0.930 1_655 S
C134 H120 0.930 . S
C134 C132 1.395 . S
C134 C137 1.403 1_565 S
C135 C132 1.398 1_655 S
C135 C136 1.529 . S
C135 C139 1.400 1_665 S
C136 H121 0.980 . S
C136 H122 0.960 . S
C136 H123 0.960 1_655 S
C136 C135 1.529 . S
C137 C134 1.403 1_545 S
C137 C138 1.392 . S
C137 C141 1.495 . S
C138 C137 1.392 . S
C138 C139 1.385 . S
C138 C140 1.478 . S
C139 H133 0.930 1_455 S
C139 C135 1.400 1_445 S
C139 C138 1.385 . S
C140 C138 1.478 . S
C140 C142 1.381 1_455 S
C140 C146 1.383 . S
C141 C137 1.495 . S
C141 H147 0.959 . S
C141 H148 0.961 . S
C141 H149 0.960 . S
C142 C140 1.381 1_655 S
C142 C143 1.394 . S
C142 H150 0.930 . S
C143 C142 1.394 . S
C143 C144 1.383 1_655 S
C143 H151 0.929 . S
C144 C143 1.383 1_455 S
C144 C145 1.377 . S
C145 H129 0.930 . S
C145 C144 1.377 . S
C145 C146 1.379 . S
C146 H130 0.931 . S
C146 C140 1.383 . S
C146 C145 1.379 . S
H147 C141 0.959 . S
H148 C141 0.961 . S
H149 C141 0.960 . S
H150 C142 0.930 . S
H151 C143 0.929 . S
H152 C160 0.929 . S
H153 C162 0.930 . S
H154 C164 0.930 . S
H155 C167 0.929 . S
H156 C170 0.930 . S
H157 C172 0.960 . S
H158 C172 0.960 . S
H159 C172 0.960 . S
C160 H152 0.929 . S
C160 C161 1.378 1_554 S
C160 C162 1.384 . S
C161 C160 1.378 1_556 S
C161 C167 1.389 1_545 S
C162 H153 0.930 . S
C162 C160 1.384 . S
C162 C163 1.371 1_554 S
C163 C162 1.371 1_556 S
C163 C164 1.401 1_545 S
C163 C168 1.491 . S
C164 H154 0.930 . S
C164 C163 1.401 1_565 S
C164 C167 1.386 . S
H165 C181 0.930 . S
H166 C182 0.931 . S
C167 H155 0.929 . S
C167 C161 1.389 1_565 S
C167 C164 1.386 . S
C168 C163 1.491 . S
C168 C170 1.395 . S
C168 C171 1.403 1_546 S
H169 C175 0.930 1_565 S
C170 H156 0.930 . S
C170 C168 1.395 . S
C170 C173 1.403 . S
C171 C168 1.403 1_564 S
C171 C172 1.524 . S
C171 C175 1.400 1_565 S
C172 H157 0.960 . S
C172 H158 0.960 . S
C172 H159 0.960 . S
C172 C171 1.524 . S
C173 C170 1.403 . S
C173 C174 1.392 . S
C173 C177 1.495 . S
C174 C173 1.392 . S
C174 C175 1.385 1_556 S
C174 C176 1.478 . S
C175 H169 0.930 1_545 S
C175 C171 1.400 1_545 S
C175 C174 1.385 1_554 S
C176 C174 1.478 . S
C176 C178 1.381 1_556 S
C176 C182 1.383 1_545 S
C177 C173 1.495 . S
C177 H183 0.959 . S
C177 H184 0.961 . S
C177 H185 0.960 . S
C178 C176 1.381 1_554 S
C178 C179 1.394 . S
C178 H186 0.930 . S
C179 C178 1.394 . S
C179 C180 1.383 1_554 S
C179 H187 0.929 . S
C180 C179 1.383 1_556 S
C180 C181 1.377 1_545 S
C181 H165 0.930 . S
C181 C180 1.377 1_565 S
C181 C182 1.379 . S
C182 H166 0.931 . S
C182 C176 1.383 1_565 S
C182 C181 1.379 . S
H183 C177 0.959 . S
H184 C177 0.961 . S
H185 C177 0.960 . S
H186 C178 0.930 . S
H187 C179 0.929 . S
H188 C196 0.929 . S
H189 C198 0.930 . S
H190 C200 0.930 . S
H191 C203 0.929 . S
H192 C206 0.930 . S
H193 C208 0.960 . S
H194 C208 0.960 . S
H195 C208 0.960 . S
C196 H188 0.929 . S
C196 C197 1.377 . S
C196 C198 1.384 . S
C197 C196 1.377 . S
C197 C203 1.390 1_455 S
C198 H189 0.930 . S
C198 C196 1.384 . S
C198 C199 1.372 . S
C199 C198 1.372 . S
C199 C200 1.400 1_455 S
C199 C204 1.490 . S
C200 H190 0.930 . S
C200 C199 1.400 1_655 S
C200 C203 1.386 . S
H201 C217 0.930 . S
H202 C218 0.931 . S
C203 H191 0.929 . S
C203 C197 1.390 1_655 S
C203 C200 1.386 . S
C204 C199 1.490 . S
C204 C206 1.395 1_455 S
C204 C207 1.403 . S
H205 C211 0.930 . S
C206 H192 0.930 . S
C206 C204 1.395 1_655 S
C206 C209 1.403 . S
C207 C204 1.403 . S
C207 C208 1.524 . S
C207 C211 1.400 . S
C208 H193 0.960 . S
C208 H194 0.960 . S
C208 H195 0.960 . S
C208 C207 1.524 . S
C209 C206 1.403 . S
C209 C210 1.392 1_655 S
C209 C213 1.495 . S
C210 C209 1.392 1_455 S
C210 C211 1.385 . S
C210 C212 1.478 . S
C211 H205 0.930 . S
C211 C207 1.400 . S
C211 C210 1.385 . S
C212 C210 1.478 . S
C212 C214 1.381 . S
C212 C218 1.383 1_455 S
C213 C209 1.495 . S
C213 H219 0.959 . S
C213 H220 0.961 . S
C213 H221 0.960 . S
C214 C212 1.381 . S
C214 C215 1.394 . S
C214 H222 0.930 . S
C215 C214 1.394 . S
C215 C216 1.383 . S
C215 H223 0.929 . S
C216 C215 1.383 . S
C216 C217 1.377 1_455 S
C217 H201 0.930 . S
C217 C216 1.377 1_655 S
C217 C218 1.379 . S
C218 H202 0.931 . S
C218 C212 1.383 1_655 S
C218 C217 1.379 . S
H219 C213 0.959 . S
H220 C213 0.961 . S
H221 C213 0.960 . S
H222 C214 0.930 . S
H223 C215 0.929 . S
H224 C232 0.929 . S
H225 C234 0.930 . S
H226 C236 0.930 . S
H227 C239 0.929 . S
H228 C242 0.930 . S
H229 C244 0.960 . S
H230 C244 0.960 . S
H231 C244 0.960 . S
C232 H224 0.929 . S
C232 C233 1.377 . S
C232 C234 1.384 . S
C233 C232 1.377 . S
C233 C239 1.390 . S
C234 H225 0.930 . S
C234 C232 1.384 . S
C234 C235 1.372 . S
C235 C234 1.372 . S
C235 C236 1.400 . S
C235 C240 1.490 . S
C236 H226 0.930 . S
C236 C235 1.400 . S
C236 C239 1.386 . S
H237 C253 0.930 . S
H238 C254 0.931 . S
C239 H227 0.929 . S
C239 C233 1.390 . S
C239 C236 1.386 . S
C240 C235 1.490 . S
C240 C242 1.395 . S
C240 C243 1.403 . S
H241 C247 0.930 . S
C242 H228 0.930 . S
C242 C240 1.395 . S
C242 C245 1.403 . S
C243 C240 1.403 . S
C243 C244 1.524 . S
C243 C247 1.400 . S
C244 H229 0.960 . S
C244 H230 0.960 . S
C244 H231 0.960 . S
C244 C243 1.524 . S
C245 C242 1.403 . S
C245 C246 1.392 . S
C245 C249 1.495 . S
C246 C245 1.392 . S
C246 C247 1.385 . S
C246 C248 1.478 . S
C247 H241 0.930 . S
C247 C243 1.400 . S
C247 C246 1.385 . S
C248 C246 1.478 . S
C248 C250 1.381 . S
C248 C254 1.383 . S
C249 C245 1.495 . S
C249 H255 0.959 . S
C249 H256 0.961 . S
C249 H257 0.960 . S
C250 C248 1.381 . S
C250 C251 1.394 . S
C250 H258 0.930 . S
C251 C250 1.394 . S
C251 C252 1.383 . S
C251 H259 0.929 . S
C252 C251 1.383 . S
C252 C253 1.377 . S
C253 H237 0.930 . S
C253 C252 1.377 . S
C253 C254 1.379 . S
C254 H238 0.931 . S
C254 C248 1.383 . S
C254 C253 1.379 . S
H255 C249 0.959 . S
H256 C249 0.961 . S
H257 C249 0.960 . S
H258 C250 0.930 . S
H259 C251 0.929 . S
H260 C268 0.929 . S
H261 C270 0.930 . S
H262 C272 0.930 . S
H263 C275 0.929 . S
H264 C278 0.930 . S
H265 C280 0.960 . S
H266 C280 0.960 . S
H267 C280 0.960 . S
C268 H260 0.929 . S
C268 C269 1.377 . S
C268 C270 1.384 . S
C269 C268 1.377 . S
C269 C275 1.390 . S
C270 H261 0.930 . S
C270 C268 1.384 . S
C270 C271 1.372 . S
C271 C270 1.372 . S
C271 C272 1.400 . S
C271 C276 1.490 . S
C272 H262 0.930 . S
C272 C271 1.400 . S
C272 C275 1.386 . S
H273 C289 0.930 . S
H274 C290 0.931 . S
C275 H263 0.929 . S
C275 C269 1.390 . S
C275 C272 1.386 . S
C276 C271 1.490 . S
C276 C278 1.395 . S
C276 C279 1.403 . S
H277 C283 0.930 . S
C278 H264 0.930 . S
C278 C276 1.395 . S
C278 C281 1.403 . S
C279 C276 1.403 . S
C279 C280 1.524 . S
C279 C283 1.400 . S
C280 H265 0.960 . S
C280 H266 0.960 . S
C280 H267 0.960 . S
C280 C279 1.524 . S
C281 C278 1.403 . S
C281 C282 1.392 . S
C281 C285 1.495 . S
C282 C281 1.392 . S
C282 C283 1.385 . S
C282 C284 1.478 . S
C283 H277 0.930 . S
C283 C279 1.400 . S
C283 C282 1.385 . S
C284 C282 1.478 . S
C284 C286 1.381 . S
C284 C290 1.383 . S
C285 C281 1.495 . S
C285 H291 0.959 . S
C285 H292 0.961 . S
C285 H293 0.960 . S
C286 C284 1.381 . S
C286 C287 1.394 . S
C286 H294 0.930 . S
C287 C286 1.394 . S
C287 C288 1.383 . S
C287 H295 0.929 . S
C288 C287 1.383 . S
C288 C289 1.377 . S
C289 H273 0.930 . S
C289 C288 1.377 . S
C289 C290 1.379 . S
C290 H274 0.931 . S
C290 C284 1.383 . S
C290 C289 1.379 . S
H291 C285 0.959 . S
H292 C285 0.961 . S
H293 C285 0.960 . S
H294 C286 0.930 . S
H295 C287 0.929 . S
H296 C304 0.929 . S
H297 C306 0.930 . S
H298 C308 0.930 . S
H299 C311 0.929 . S
H300 C314 0.930 . S
H301 C316 0.960 . S
H302 C316 0.960 . S
H303 C316 0.960 . S
C304 H296 0.929 . S
C304 C305 1.377 . S
C304 C306 1.384 . S
C305 C304 1.377 . S
C305 C311 1.390 . S
C306 H297 0.930 . S
C306 C304 1.384 . S
C306 C307 1.372 . S
C307 C306 1.372 . S
C307 C308 1.400 . S
C307 C312 1.490 . S
C308 H298 0.930 . S
C308 C307 1.400 . S
C308 C311 1.386 . S
H309 C325 0.930 . S
H310 C326 0.931 . S
C311 H299 0.929 . S
C311 C305 1.390 . S
C311 C308 1.386 . S
C312 C307 1.490 . S
C312 C314 1.395 . S
C312 C315 1.403 . S
H313 C319 0.930 . S
C314 H300 0.930 . S
C314 C312 1.395 . S
C314 C317 1.403 . S
C315 C312 1.403 . S
C315 C316 1.524 . S
C315 C319 1.400 . S
C316 H301 0.960 . S
C316 H302 0.960 . S
C316 H303 0.960 . S
C316 C315 1.524 . S
C317 C314 1.403 . S
C317 C318 1.392 . S
C317 C321 1.495 . S
C318 C317 1.392 . S
C318 C319 1.385 . S
C318 C320 1.478 . S
C319 H313 0.930 . S
C319 C315 1.400 . S
C319 C318 1.385 . S
C320 C318 1.478 . S
C320 C322 1.381 . S
C320 C326 1.383 . S
C321 C317 1.495 . S
C321 H327 0.959 . S
C321 H328 0.961 . S
C321 H329 0.960 . S
C322 C320 1.381 . S
C322 C323 1.394 . S
C322 H330 0.930 . S
C323 C322 1.394 . S
C323 C324 1.383 . S
C323 H331 0.929 . S
C324 C323 1.383 . S
C324 C325 1.377 . S
C325 H309 0.930 . S
C325 C324 1.377 . S
C325 C326 1.379 . S
C326 H310 0.931 . S
C326 C320 1.383 . S
C326 C325 1.379 . S
H327 C321 0.959 . S
H328 C321 0.961 . S
H329 C321 0.960 . S
H330 C322 0.930 . S
H331 C323 0.929 . S
H332 C340 0.929 . S
H333 C342 0.930 . S
H334 C344 0.930 . S
H335 C347 0.929 . S
H336 C350 0.930 . S
H337 C352 0.960 . S
H338 C352 0.960 . S
H339 C352 0.960 . S
C340 H332 0.929 . S
C340 C341 1.377 . S
C340 C342 1.384 . S
C341 C340 1.377 . S
C341 C347 1.390 . S
C342 H333 0.930 . S
C342 C340 1.384 . S
C342 C343 1.372 . S
C343 C342 1.372 . S
C343 C344 1.400 . S
C343 C348 1.490 . S
C344 H334 0.930 . S
C344 C343 1.400 . S
C344 C347 1.386 . S
H345 C361 0.930 . S
H346 C362 0.931 . S
C347 H335 0.929 . S
C347 C341 1.390 . S
C347 C344 1.386 . S
C348 C343 1.490 . S
C348 C350 1.395 . S
C348 C351 1.403 . S
H349 C355 0.930 . S
C350 H336 0.930 . S
C350 C348 1.395 . S
C350 C353 1.403 . S
C351 C348 1.403 . S
C351 C352 1.524 . S
C351 C355 1.400 . S
C352 H337 0.960 . S
C352 H338 0.960 . S
C352 H339 0.960 . S
C352 C351 1.524 . S
C353 C350 1.403 . S
C353 C354 1.392 . S
C353 C357 1.495 . S
C354 C353 1.392 . S
C354 C355 1.385 . S
C354 C356 1.478 . S
C355 H349 0.930 . S
C355 C351 1.400 . S
C355 C354 1.385 . S
C356 C354 1.478 . S
C356 C358 1.381 . S
C356 C362 1.383 . S
C357 C353 1.495 . S
C357 H363 0.959 . S
C357 H364 0.961 . S
C357 H365 0.960 . S
C358 C356 1.381 . S
C358 C359 1.394 . S
C358 H366 0.930 . S
C359 C358 1.394 . S
C359 C360 1.383 . S
C359 H367 0.929 . S
C360 C359 1.383 . S
C360 C361 1.377 . S
C361 H345 0.930 . S
C361 C360 1.377 . S
C361 C362 1.379 . S
C362 H346 0.931 . S
C362 C356 1.383 . S
C362 C361 1.379 . S
H363 C357 0.959 . S
H364 C357 0.961 . S
H365 C357 0.960 . S
H366 C358 0.930 . S
H367 C359 0.929 . S
H368 C376 0.929 . S
H369 C378 0.930 . S
H370 C380 0.930 . S
H371 C383 0.929 . S
H372 C386 0.930 . S
H373 C388 0.960 . S
H374 C388 0.960 . S
H375 C388 0.960 . S
C376 H368 0.929 . S
C376 C377 1.377 . S
C376 C378 1.384 . S
C377 C376 1.377 . S
C377 C383 1.390 . S
C378 H369 0.930 . S
C378 C376 1.384 . S
C378 C379 1.372 . S
C379 C378 1.372 . S
C379 C380 1.400 . S
C379 C384 1.490 . S
C380 H370 0.930 . S
C380 C379 1.400 . S
C380 C383 1.386 . S
H381 C397 0.930 . S
H382 C398 0.931 . S
C383 H371 0.929 . S
C383 C377 1.390 . S
C383 C380 1.386 . S
C384 C379 1.490 . S
C384 C386 1.395 . S
C384 C387 1.403 . S
H385 C391 0.930 . S
C386 H372 0.930 . S
C386 C384 1.395 . S
C386 C389 1.403 . S
C387 C384 1.403 . S
C387 C388 1.524 . S
C387 C391 1.400 . S
C388 H373 0.960 . S
C388 H374 0.960 . S
C388 H375 0.960 . S
C388 C387 1.524 . S
C389 C386 1.403 . S
C389 C390 1.392 . S
C389 C393 1.495 . S
C390 C389 1.392 . S
C390 C391 1.385 . S
C390 C392 1.478 . S
C391 H385 0.930 . S
C391 C387 1.400 . S
C391 C390 1.385 . S
C392 C390 1.478 . S
C392 C394 1.381 . S
C392 C398 1.383 . S
C393 C389 1.495 . S
C393 H399 0.959 . S
C393 H400 0.961 . S
C393 H401 0.960 . S
C394 C392 1.381 . S
C394 C395 1.394 . S
C394 H402 0.930 . S
C395 C394 1.394 . S
C395 C396 1.383 . S
C395 H403 0.929 . S
C396 C395 1.383 . S
C396 C397 1.377 . S
C397 H381 0.930 . S
C397 C396 1.377 . S
C397 C398 1.379 . S
C398 H382 0.931 . S
C398 C392 1.383 . S
C398 C397 1.379 . S
H399 C393 0.959 . S
H400 C393 0.961 . S
H401 C393 0.960 . S
H402 C394 0.930 . S
H403 C395 0.929 . S
H404 C412 0.929 . S
H405 C414 0.930 . S
H406 C416 0.930 . S
H407 C419 0.929 1_545 S
H408 C422 0.930 . S
H409 C424 0.960 . S
H410 C424 0.960 . S
H411 C424 0.960 . S
C412 H404 0.929 . S
C412 C413 1.377 . S
C412 C414 1.384 . S
C413 C412 1.377 . S
C413 C419 1.390 . S
C414 H405 0.930 . S
C414 C412 1.384 . S
C414 C415 1.372 . S
C415 C414 1.372 . S
C415 C416 1.400 . S
C415 C420 1.490 . S
C416 H406 0.930 . S
C416 C415 1.400 . S
C416 C419 1.386 . S
H417 C433 0.930 . S
H418 C434 0.931 . S
C419 H407 0.929 1_565 S
C419 C413 1.390 . S
C419 C416 1.386 . S
C420 C415 1.490 . S
C420 C422 1.395 . S
C420 C423 1.403 . S
H421 C427 0.930 . S
C422 H408 0.930 . S
C422 C420 1.395 . S
C422 C425 1.403 . S
C423 C420 1.403 . S
C423 C424 1.524 . S
C423 C427 1.400 . S
C424 H409 0.960 . S
C424 H410 0.960 . S
C424 H411 0.960 . S
C424 C423 1.524 . S
C425 C422 1.403 . S
C425 C426 1.392 . S
C425 C429 1.495 . S
C426 C425 1.392 . S
C426 C427 1.385 . S
C426 C428 1.478 . S
C427 H421 0.930 . S
C427 C423 1.400 . S
C427 C426 1.385 . S
C428 C426 1.478 . S
C428 C430 1.381 . S
C428 C434 1.383 . S
C429 C425 1.495 . S
C429 H435 0.959 . S
C429 H436 0.961 . S
C429 H437 0.960 . S
C430 C428 1.381 . S
C430 C431 1.394 . S
C430 H438 0.930 . S
C431 C430 1.394 . S
C431 C432 1.383 . S
C431 H439 0.929 . S
C432 C431 1.383 . S
C432 C433 1.377 . S
C433 H417 0.930 . S
C433 C432 1.377 . S
C433 C434 1.379 . S
C434 H418 0.931 . S
C434 C428 1.383 . S
C434 C433 1.379 . S
H435 C429 0.959 . S
H436 C429 0.961 . S
H437 C429 0.960 . S
H438 C430 0.930 . S
H439 C431 0.929 . S
H440 C448 0.929 . S
H441 C450 0.930 . S
H442 C452 0.930 . S
H443 C455 0.929 . S
H444 C458 0.930 . S
H445 C460 0.960 . S
H446 C460 0.960 . S
H447 C460 0.960 . S
C448 H440 0.929 . S
C448 C449 1.377 . S
C448 C450 1.384 . S
C449 C448 1.377 . S
C449 C455 1.390 . S
C450 H441 0.930 . S
C450 C448 1.384 . S
C450 C451 1.372 . S
C451 C450 1.372 . S
C451 C452 1.400 . S
C451 C456 1.490 . S
C452 H442 0.930 . S
C452 C451 1.400 . S
C452 C455 1.386 . S
H453 C469 0.930 . S
H454 C470 0.931 . S
C455 H443 0.929 . S
C455 C449 1.390 . S
C455 C452 1.386 . S
C456 C451 1.490 . S
C456 C458 1.395 . S
C456 C459 1.403 . S
H457 C463 0.930 . S
C458 H444 0.930 . S
C458 C456 1.395 . S
C458 C461 1.403 . S
C459 C456 1.403 . S
C459 C460 1.524 . S
C459 C463 1.400 . S
C460 H445 0.960 . S
C460 H446 0.960 . S
C460 H447 0.960 . S
C460 C459 1.524 . S
C461 C458 1.403 . S
C461 C462 1.392 . S
C461 C465 1.495 . S
C462 C461 1.392 . S
C462 C463 1.385 . S
C462 C464 1.478 . S
C463 H457 0.930 . S
C463 C459 1.400 . S
C463 C462 1.385 . S
C464 C462 1.478 . S
C464 C466 1.381 . S
C464 C470 1.383 . S
C465 C461 1.495 . S
C465 H471 0.959 . S
C465 H472 0.961 . S
C465 H473 0.960 . S
C466 C464 1.381 . S
C466 C467 1.394 . S
C466 H474 0.930 . S
C467 C466 1.394 . S
C467 C468 1.383 . S
C467 H475 0.929 . S
C468 C467 1.383 . S
C468 C469 1.377 . S
C469 H453 0.930 . S
C469 C468 1.377 . S
C469 C470 1.379 . S
C470 H454 0.931 . S
C470 C464 1.383 . S
C470 C469 1.379 . S
H471 C465 0.959 . S
H472 C465 0.961 . S
H473 C465 0.960 . S
H474 C466 0.930 . S
H475 C467 0.929 . S
H476 C484 0.929 . S
H477 C486 0.930 . S
H478 C488 0.930 . S
H479 C491 0.929 . S
H480 C494 0.930 . S
H481 C496 0.960 . S
H482 C496 0.960 . S
H483 C496 0.960 . S
C484 H476 0.929 . S
C484 C485 1.377 . S
C484 C486 1.384 . S
C485 C484 1.377 . S
C485 C491 1.390 . S
C486 H477 0.930 . S
C486 C484 1.384 . S
C486 C487 1.372 . S
C487 C486 1.372 . S
C487 C488 1.400 . S
C487 C492 1.490 . S
C488 H478 0.930 . S
C488 C487 1.400 . S
C488 C491 1.386 . S
H489 C505 0.930 . S
H490 C506 0.931 . S
C491 H479 0.929 . S
C491 C485 1.390 . S
C491 C488 1.386 . S
C492 C487 1.490 . S
C492 C494 1.395 . S
C492 C495 1.403 . S
H493 C499 0.930 . S
C494 H480 0.930 . S
C494 C492 1.395 . S
C494 C497 1.403 . S
C495 C492 1.403 . S
C495 C496 1.524 . S
C495 C499 1.400 . S
C496 H481 0.960 . S
C496 H482 0.960 . S
C496 H483 0.960 . S
C496 C495 1.524 . S
C497 C494 1.403 . S
C497 C498 1.392 . S
C497 C501 1.495 . S
C498 C497 1.392 . S
C498 C499 1.385 . S
C498 C500 1.478 . S
C499 H493 0.930 . S
C499 C495 1.400 . S
C499 C498 1.385 . S
C500 C498 1.478 . S
C500 C502 1.381 . S
C500 C506 1.383 . S
C501 C497 1.495 . S
C501 H507 0.959 . S
C501 H508 0.961 . S
C501 H509 0.960 . S
C502 C500 1.381 . S
C502 C503 1.394 . S
C502 H510 0.930 . S
C503 C502 1.394 . S
C503 C504 1.383 . S
C503 H511 0.929 . S
C504 C503 1.383 . S
C504 C505 1.377 . S
C505 H489 0.930 . S
C505 C504 1.377 . S
C505 C506 1.379 . S
C506 H490 0.931 . S
C506 C500 1.383 . S
C506 C505 1.379 . S
H507 C501 0.959 . S
H508 C501 0.961 . S
H509 C501 0.960 . S
H510 C502 0.930 . S
H511 C503 0.929 . S
C89 C49 1.532 1_565 S
C108 C9 1.515 . S
C125 C69 1.527 . S
C144 C29 1.525 . S
C161 C48 0.921 1_546 S
C180 C8 0.926 1_556 S
C197 C28 0.908 . S
C216 C68 0.857 1_455 S
C233 C21 0.689 . S
C252 C2 0.666 . S
C269 C22 0.843 . S
C288 C41 0.866 . S
C305 C62 0.809 . S
C324 C42 0.831 . S
C341 C61 0.727 . S
C360 C1 0.702 . S
C377 C59 2.268 . S
C396 C79 2.284 . S
C413 C18 2.480 . S
C432 C78 2.474 . S
C449 C38 2.503 . S
C468 C19 2.424 . S
C485 C58 2.332 . S
C504 C39 2.234 . S
