# Generated by pormake.
# Topology msp, (4)-cn, num edge types: 1
# Building blocks:
#     Node 0, Type 0, BuildingBlock: QUQFOY_clean_sbu_3, # of connection points: 4
#     Node 1, Type 0, BuildingBlock: QUQFOY_clean_sbu_3, # of connection points: 4
#     Node 2, Type 0, BuildingBlock: QUQFOY_clean_sbu_3, # of connection points: 4
#     Node 3, Type 0, BuildingBlock: QUQFOY_clean_sbu_3, # of connection points: 4
#     Node 4, Type 0, BuildingBlock: QUQFOY_clean_sbu_3, # of connection points: 4
#     Node 5, Type 0, BuildingBlock: QUQFOY_clean_sbu_3, # of connection points: 4
#     Node 6, Type 0, BuildingBlock: QUQFOY_clean_sbu_3, # of connection points: 4
#     Node 7, Type 0, BuildingBlock: QUQFOY_clean_sbu_3, # of connection points: 4
#     Edge 8, Type (0, 0), BuildingBlock: AJUNOK_clean_linker_0, # of connection points: 2
#     Edge 9, Type (0, 0), BuildingBlock: AJUNOK_clean_linker_0, # of connection points: 2
#     Edge 10, Type (0, 0), BuildingBlock: AJUNOK_clean_linker_0, # of connection points: 2
#     Edge 11, Type (0, 0), BuildingBlock: AJUNOK_clean_linker_0, # of connection points: 2
#     Edge 12, Type (0, 0), BuildingBlock: AJUNOK_clean_linker_0, # of connection points: 2
#     Edge 13, Type (0, 0), BuildingBlock: AJUNOK_clean_linker_0, # of connection points: 2
#     Edge 14, Type (0, 0), BuildingBlock: AJUNOK_clean_linker_0, # of connection points: 2
#     Edge 15, Type (0, 0), BuildingBlock: AJUNOK_clean_linker_0, # of connection points: 2
#     Edge 16, Type (0, 0), BuildingBlock: AJUNOK_clean_linker_0, # of connection points: 2
#     Edge 17, Type (0, 0), BuildingBlock: AJUNOK_clean_linker_0, # of connection points: 2
#     Edge 18, Type (0, 0), BuildingBlock: AJUNOK_clean_linker_0, # of connection points: 2
#     Edge 19, Type (0, 0), BuildingBlock: AJUNOK_clean_linker_0, # of connection points: 2
#     Edge 20, Type (0, 0), BuildingBlock: AJUNOK_clean_linker_0, # of connection points: 2
#     Edge 21, Type (0, 0), BuildingBlock: AJUNOK_clean_linker_0, # of connection points: 2
#     Edge 22, Type (0, 0), BuildingBlock: AJUNOK_clean_linker_0, # of connection points: 2
#     Edge 23, Type (0, 0), BuildingBlock: AJUNOK_clean_linker_0, # of connection points: 2
# Relax obj value: 0.147
# Max RMSD: 0.203
# Mean RMSD: 0.203
data_MOF--net-msp--node1-QUQFOY_clean_sbu_3--edge1-AJUNOK_clean_linker_0
_symmetry_space_group_name_H-M    P1
_symmetry_Int_Tables_number       1
_symmetry_cell_setting            triclinic
loop_
_symmetry_equiv_pos_as_xyz
'x, y, z'
_cell_length_a     18.549876
_cell_length_b     18.912973
_cell_length_c     29.873881
_cell_angle_alpha  89.867983
_cell_angle_beta   95.910496
_cell_angle_gamma 89.694758
loop_
_atom_site_label
_atom_site_type_symbol
_atom_site_fract_x
_atom_site_fract_y
_atom_site_fract_z
_atom_type_partial_charge
C0 C 0.02635 0.40912 0.40126 0.0
O1 O 0.08764 0.4214 0.38768 0.0
Cd2 Cd 0.14733 0.34565 0.33986 0.0
O3 O -0.01202 0.35678 0.38644 0.0
Cd4 Cd -0.00764 0.25848 0.33142 0.0
C5 C 0.1209 0.1913 0.40256 0.0
O6 O 0.06709 0.31009 0.2794 0.0
O7 O 0.06985 0.19645 0.28323 0.0
O8 O 0.87794 0.30457 0.29827 0.0
C9 C 0.09141 0.25236 0.26546 0.0
O10 O 0.15736 0.23993 0.38589 0.0
C11 C 0.85182 0.24526 0.28566 0.0
O12 O 0.05222 0.18704 0.39344 0.0
O13 O 0.88846 0.19017 0.29787 0.0
C14 C 0.4289 0.4099 0.54038 0.0
O15 O 0.37465 0.4326 0.55874 0.0
Cd16 Cd 0.30371 0.36003 0.60106 0.0
O17 O 0.4587 0.35031 0.55113 0.0
Cd18 Cd 0.45595 0.2548 0.60947 0.0
C19 C 0.32382 0.19609 0.542 0.0
O20 O 0.37816 0.31082 0.6589 0.0
O21 O 0.38248 0.19662 0.66129 0.0
O22 O 0.56573 0.30434 0.6472 0.0
C23 C 0.35565 0.25366 0.67453 0.0
O24 O 0.29938 0.25246 0.55819 0.0
C25 C 0.597 0.2458 0.65703 0.0
O26 O 0.39058 0.17875 0.55057 0.0
O27 O 0.56539 0.18984 0.64186 0.0
C28 C 0.92505 0.58356 0.54067 0.0
O29 O 0.86373 0.56667 0.55283 0.0
Cd30 Cd 0.7904 0.63733 0.59525 0.0
O31 O 0.95796 0.63991 0.55477 0.0
Cd32 Cd 0.95147 0.74202 0.60922 0.0
C33 C 0.83217 0.80068 0.54439 0.0
O34 O 0.86792 0.68129 0.65547 0.0
O35 O 0.87759 0.79382 0.66451 0.0
O36 O 0.05648 0.68814 0.64882 0.0
C37 C 0.84758 0.73665 0.67457 0.0
O38 O 0.82582 0.74315 0.56462 0.0
C39 C 0.09123 0.74432 0.65871 0.0
O40 O 0.8945 0.82903 0.54914 0.0
O41 O 0.06355 0.80162 0.64205 0.0
C42 C 0.51753 0.58356 0.39723 0.0
O43 O 0.57234 0.56372 0.37837 0.0
Cd44 Cd 0.63957 0.64733 0.34009 0.0
O45 O 0.48738 0.64331 0.38816 0.0
Cd46 Cd 0.4928 0.73841 0.33073 0.0
C47 C 0.6147 0.79848 0.40675 0.0
O48 O 0.56838 0.68985 0.27734 0.0
O49 O 0.57556 0.80255 0.2873 0.0
O50 O 0.38397 0.6896 0.29299 0.0
C51 C 0.59549 0.74817 0.26698 0.0
O52 O 0.65064 0.74837 0.39093 0.0
C53 C 0.3527 0.74837 0.28396 0.0
O54 O 0.54741 0.80773 0.39431 0.0
O55 O 0.38457 0.8042 0.29913 0.0
C56 C 0.51908 0.90933 0.90436 0.0
O57 O 0.57658 0.92913 0.88821 0.0
Cd58 Cd 0.647 0.85901 0.84254 0.0
O59 O 0.48754 0.85185 0.89134 0.0
Cd60 Cd 0.48968 0.75282 0.83553 0.0
C61 C 0.61405 0.69482 0.89909 0.0
O62 O 0.56911 0.80935 0.78541 0.0
O63 O 0.56225 0.69558 0.78297 0.0
O64 O 0.38342 0.80283 0.79454 0.0
C65 C 0.58999 0.75169 0.7692 0.0
O66 O 0.62543 0.75204 0.87935 0.0
C67 C 0.34863 0.74562 0.78829 0.0
O68 O 0.54995 0.67019 0.89461 0.0
O69 O 0.37731 0.69051 0.8074 0.0
C70 C 0.92247 0.91157 0.049 0.0
O71 O 0.86634 0.92827 0.06761 0.0
Cd72 Cd 0.80594 0.84412 0.10988 0.0
O73 O 0.95597 0.85366 0.05887 0.0
Cd74 Cd 0.95511 0.75463 0.11364 0.0
C75 C 0.82637 0.69684 0.03995 0.0
O76 O 0.88411 0.80082 0.1698 0.0
O77 O 0.87727 0.68823 0.15924 0.0
O78 O 0.06616 0.80198 0.14934 0.0
C79 C 0.85941 0.74185 0.18107 0.0
O80 O 0.79078 0.74469 0.05827 0.0
C81 C 0.09785 0.74296 0.15661 0.0
O82 O 0.89463 0.68914 0.04979 0.0
O83 O 0.06509 0.68772 0.14124 0.0
C84 C 0.42182 0.08152 0.04885 0.0
O85 O 0.36652 0.06475 0.06813 0.0
Cd86 Cd 0.3058 0.14399 0.11377 0.0
O87 O 0.45562 0.13875 0.05923 0.0
Cd88 Cd 0.45568 0.23733 0.11475 0.0
C89 C 0.32128 0.29849 0.04739 0.0
O90 O 0.38461 0.19061 0.17109 0.0
O91 O 0.38277 0.30379 0.16313 0.0
O92 O 0.57082 0.18991 0.14556 0.0
C93 C 0.35996 0.24989 0.18247 0.0
O94 O 0.29063 0.24735 0.06571 0.0
C95 C 0.59961 0.24918 0.15552 0.0
O96 O 0.38977 0.30762 0.05423 0.0
O97 O 0.56333 0.30456 0.14343 0.0
C98 C 0.01095 0.08138 0.90237 0.0
O99 O 0.06512 0.058 0.88437 0.0
Cd100 Cd 0.13538 0.13261 0.84356 0.0
O101 O -0.01707 0.14128 0.89073 0.0
Cd102 Cd -0.00511 0.23271 0.83077 0.0
C103 C 0.1272 0.29222 0.90264 0.0
O104 O 0.07291 0.17975 0.77911 0.0
O105 O 0.07237 0.29399 0.78215 0.0
O106 O 0.88524 0.18788 0.79052 0.0
C107 C 0.0971 0.23808 0.76593 0.0
O108 O 0.15825 0.23752 0.88863 0.0
C109 C 0.8531 0.24701 0.78482 0.0
O110 O 0.06003 0.30481 0.89109 0.0
O111 O 0.88516 0.30117 0.80245 0.0
C112 C 0.9311 0.48098 0.433 0.0
C113 C 0.00184 0.45358 0.43702 0.0
C114 C 0.90749 0.5238 0.4668 0.0
C115 C 0.95372 0.5403 0.50566 0.0
H116 H 0.89414 0.46991 0.40339 0.0
H117 H 0.85263 0.54455 0.46242 0.0
S118 S 0.14081 0.47321 0.53456 0.0
N119 N 0.11597 0.4404 0.48415 0.0
N120 N 0.07143 0.52127 0.54787 0.0
C121 C 0.02415 0.51199 0.51051 0.0
C122 C 0.0482 0.46834 0.47607 0.0
C123 C 0.48955 0.56685 0.47603 0.0
C124 C 0.4925 0.539 0.43269 0.0
C125 C 0.4705 0.52404 0.51123 0.0
C126 C 0.45435 0.45221 0.50406 0.0
H127 H 0.50319 0.62169 0.48288 0.0
H128 H 0.46858 0.54709 0.54426 0.0
S129 S 0.44548 0.3569 0.3955 0.0
N130 N 0.47246 0.43733 0.38364 0.0
N131 N 0.43632 0.35668 0.44994 0.0
C132 C 0.45566 0.42421 0.46072 0.0
C133 C 0.47491 0.46777 0.42491 0.0
C134 C 0.50552 0.05532 -0.0097 0.0
C135 C 0.44525 0.0359 0.01246 0.0
C136 C 0.52778 0.01475 0.95505 0.0
C137 C 0.49091 0.95276 0.94027 0.0
H138 H 0.53605 0.10243 0.00014 0.0
H139 H 0.57487 0.03223 0.93953 0.0
S140 S 0.32804 0.87941 -0.01392 0.0
N141 N 0.34788 0.95081 0.0164 0.0
N142 N 0.38966 0.87475 0.95008 0.0
C143 C 0.42991 0.93298 0.96174 0.0
C144 C 0.40724 0.97435 -0.00218 0.0
C145 C -0.02033 0.9259 -0.02225 0.0
C146 C 0.94548 0.95682 0.01277 0.0
C147 C -0.00142 0.96649 0.94161 0.0
C148 C -0.01578 0.03963 0.93909 0.0
H149 H -0.00903 0.86963 -0.02219 0.0
H150 H 0.02483 0.94018 0.91543 0.0
S151 S 0.90048 0.14689 0.02404 0.0
N152 N 0.90072 0.06531 0.04387 0.0
N153 N 0.9367 0.14193 -0.02411 0.0
C154 C 0.95049 0.0714 -0.02593 0.0
C155 C 0.93114 0.02993 0.01095 0.0
C156 C 0.66753 0.29034 0.22644 0.0
C157 C 0.66671 0.25207 0.18612 0.0
C158 C 0.72686 0.2859 0.25942 0.0
C159 C 0.78672 0.24253 0.25323 0.0
H160 H 0.6212 0.32237 0.23304 0.0
H161 H 0.72585 0.31637 0.29002 0.0
S162 S 0.81411 0.13859 0.15118 0.0
N163 N 0.73238 0.17367 0.14033 0.0
N164 N 0.84437 0.16552 0.20225 0.0
C165 C 0.7871 0.20514 0.21266 0.0
C166 C 0.72685 0.20987 0.17908 0.0
C167 C 0.73027 0.2602 0.6761 0.0
C168 C 0.66208 0.24372 0.68964 0.0
C169 C 0.79166 0.26381 0.70772 0.0
C170 C 0.78636 0.25229 0.7538 0.0
H171 H 0.73615 0.27007 0.64093 0.0
H172 H 0.84388 0.27462 0.696 0.0
S173 S 0.61906 0.21235 0.80648 0.0
N174 N 0.59194 0.21899 0.75215 0.0
N175 N 0.70748 0.22603 0.81155 0.0
C176 C 0.71829 0.23711 0.7678 0.0
C177 C 0.65596 0.23296 0.73565 0.0
C178 C 0.19928 0.80409 0.69911 0.0
C179 C 0.15756 0.74281 0.69108 0.0
C180 C 0.25989 0.80449 0.73126 0.0
C181 C 0.28127 0.74373 0.75685 0.0
H182 H 0.18511 0.85223 0.68046 0.0
H183 H 0.29065 0.85295 0.73566 0.0
S184 S 0.1886 0.57015 0.75006 0.0
N185 N 0.14082 0.61989 0.71232 0.0
N186 N 0.2547 0.62097 0.77255 0.0
C187 C 0.23974 0.6822 0.74944 0.0
C188 C 0.17802 0.68166 0.71661 0.0
C189 C 0.22036 0.73036 0.26506 0.0
C190 C 0.28757 0.75083 0.2518 0.0
C191 C 0.15936 0.72527 0.23335 0.0
C192 C 0.16438 0.73936 0.18754 0.0
H193 H 0.21502 0.71823 0.30003 0.0
H194 H 0.10769 0.71134 0.24479 0.0
S195 S 0.32941 0.78989 0.13569 0.0
N196 N 0.35672 0.78194 0.18992 0.0
N197 N 0.24172 0.77244 0.13031 0.0
C198 C 0.23143 0.75887 0.17387 0.0
C199 C 0.29333 0.76439 0.20609 0.0
C200 C 0.27377 0.19632 0.23109 0.0
C201 C 0.29249 0.2535 0.20459 0.0
C202 C 0.20765 0.19537 0.24975 0.0
C203 C 0.15785 0.25162 0.24247 0.0
H204 H 0.31051 0.15187 0.23747 0.0
H205 H 0.19622 0.15078 0.27068 0.0
S206 S 0.17831 0.41181 0.17344 0.0
N207 N 0.25418 0.36676 0.17051 0.0
N208 N 0.13 0.3646 0.20588 0.0
C209 C 0.17542 0.3088 0.21577 0.0
C210 C 0.24276 0.30994 0.19678 0.0
C211 C 0.22544 0.28279 0.67991 0.0
C212 C 0.29086 0.25169 0.69853 0.0
C213 C 0.16244 0.27781 0.70189 0.0
C214 C 0.16317 0.24112 0.7428 0.0
H215 H 0.22224 0.30973 0.64784 0.0
H216 H 0.11279 0.30205 0.68662 0.0
S217 S 0.32344 0.15753 0.80721 0.0
N218 N 0.35398 0.18666 0.76064 0.0
N219 N 0.23675 0.17934 0.80288 0.0
C220 C 0.2289 0.21151 0.76208 0.0
C221 C 0.29253 0.21606 0.73955 0.0
C222 C 0.70584 0.80219 0.74757 0.0
C223 C 0.6541 0.74789 0.74393 0.0
C224 C 0.76892 0.79732 0.72567 0.0
C225 C 0.78273 0.73786 0.69956 0.0
H226 H 0.69809 0.84853 0.76776 0.0
H227 H 0.80719 0.84052 0.72932 0.0
S228 S 0.66217 0.58266 0.67804 0.0
N229 N 0.619 0.63438 0.71091 0.0
N230 N 0.73857 0.62367 0.67135 0.0
C231 C 0.73143 0.68304 0.69598 0.0
C232 C 0.66681 0.68853 0.71771 0.0
C233 C 0.73385 0.70131 0.18786 0.0
C234 C 0.79472 0.74022 0.20529 0.0
C235 C 0.66887 0.70516 0.20772 0.0
C236 C 0.66282 0.7484 0.24527 0.0
H237 H 0.73584 0.66917 0.15802 0.0
H238 H 0.62285 0.67474 0.19338 0.0
S239 S 0.80962 0.85363 0.30647 0.0
N240 N 0.84703 0.81878 0.26374 0.0
N241 N 0.72488 0.82588 0.30157 0.0
C242 C 0.72394 0.78611 0.26367 0.0
C243 C 0.79 0.78205 0.24346 0.0
C244 C 0.19722 0.16457 0.5187 0.0
C245 C 0.27093 0.15628 0.51154 0.0
C246 C 0.14262 0.16276 0.48282 0.0
C247 C 0.16018 0.15027 0.43908 0.0
H248 H 0.18262 0.18265 0.55101 0.0
H249 H 0.08899 0.18153 0.48846 0.0
S250 S 0.33877 0.09603 0.40564 0.0
N251 N 0.35505 0.11525 0.45973 0.0
N252 N 0.2508 0.10773 0.39262 0.0
C253 C 0.23064 0.12675 0.43336 0.0
C254 C 0.28692 0.13072 0.46963 0.0
C255 C 0.70041 0.79717 0.52148 0.0
C256 C 0.76825 0.82711 0.51519 0.0
C257 C 0.64249 0.80021 0.48781 0.0
C258 C 0.6504 0.83327 0.44668 0.0
H259 H 0.69383 0.7651 0.55089 0.0
H260 H 0.59516 0.76823 0.49169 0.0
S261 S 0.80594 0.94125 0.41953 0.0
N262 N 0.83285 0.90674 0.46944 0.0
N263 N 0.72276 0.91215 0.40574 0.0
C264 C 0.71303 0.87333 0.44289 0.0
C265 C 0.77257 0.87029 0.4773 0.0
C266 C 0.71954 0.63222 0.00576 0.0
C267 C 0.78772 0.66215 0.00078 0.0
C268 C 0.66366 0.63353 0.97023 0.0
C269 C 0.67508 0.665 0.929 0.0
H270 H 0.70668 0.61582 0.03878 0.0
H271 H 0.60973 0.61768 -0.02317 0.0
S272 S 0.84825 0.73677 0.89639 0.0
N273 N 0.86656 0.71347 0.94966 0.0
N274 N 0.76331 0.71364 0.88244 0.0
C275 C 0.74623 0.68492 0.92179 0.0
C276 C 0.80247 0.68403 0.95791 0.0
C277 C 0.29705 0.34359 0.96937 0.0
C278 C 0.27525 0.33816 0.0128 0.0
C279 C 0.2452 0.342 0.93177 0.0
C280 C 0.17084 0.33419 0.93685 0.0
H281 H 0.35378 0.33852 0.96413 0.0
H282 H 0.26409 0.33657 0.89879 0.0
S283 S 0.08722 0.34148 0.044 0.0
N284 N 0.17527 0.34513 0.05905 0.0
N285 N 0.07791 0.33858 -0.01159 0.0
C286 C 0.14836 0.3422 -0.0201 0.0
C287 C 0.20103 0.34525 0.01806 0.0
loop_
_geom_bond_atom_site_label_1
_geom_bond_atom_site_label_2
_geom_bond_distance
_geom_bond_site_symmetry_2
_ccdc_geom_bond_type
C0 O1 1.306 . S
C0 O3 1.160 1_455 S
O1 C0 1.306 . S
O1 Cd2 2.228 . S
Cd2 O1 2.228 . S
Cd2 O6 2.273 . S
Cd2 O10 2.277 . S
O3 C0 1.160 1_655 S
O3 Cd4 2.203 1_655 S
Cd4 O3 2.203 1_455 S
Cd4 O6 2.411 . S
Cd4 O7 2.333 . S
Cd4 O8 2.352 1_455 S
Cd4 O12 2.277 . S
Cd4 O13 2.356 1_455 S
C5 O10 1.209 . S
C5 O12 1.226 . S
O6 Cd2 2.273 . S
O6 Cd4 2.411 . S
O6 C9 1.320 . S
O7 Cd4 2.333 . S
O7 C9 1.214 . S
O8 Cd4 2.352 1_655 S
O8 C11 1.258 . S
C9 O6 1.320 . S
C9 O7 1.214 . S
O10 Cd2 2.277 . S
O10 C5 1.209 . S
C11 O8 1.258 . S
C11 O13 1.282 . S
O12 Cd4 2.277 . S
O12 C5 1.226 . S
O13 Cd4 2.356 1_655 S
O13 C11 1.282 . S
C14 O15 1.306 . S
C14 O17 1.160 . S
O15 C14 1.306 . S
O15 Cd16 2.228 . S
Cd16 O15 2.228 . S
Cd16 O20 2.273 . S
Cd16 O24 2.277 . S
O17 C14 1.160 . S
O17 Cd18 2.203 . S
Cd18 O17 2.203 . S
Cd18 O20 2.411 . S
Cd18 O21 2.333 . S
Cd18 O22 2.352 . S
Cd18 O26 2.277 . S
Cd18 O27 2.356 . S
C19 O24 1.209 . S
C19 O26 1.226 . S
O20 Cd16 2.273 . S
O20 Cd18 2.411 . S
O20 C23 1.320 . S
O21 Cd18 2.333 . S
O21 C23 1.214 . S
O22 Cd18 2.352 . S
O22 C25 1.258 . S
C23 O20 1.320 . S
C23 O21 1.214 . S
O24 Cd16 2.277 . S
O24 C19 1.209 . S
C25 O22 1.258 . S
C25 O27 1.282 . S
O26 Cd18 2.277 . S
O26 C19 1.226 . S
O27 Cd18 2.356 . S
O27 C25 1.282 . S
C28 O29 1.306 . S
C28 O31 1.160 1_655 S
O29 C28 1.306 . S
O29 Cd30 2.228 . S
Cd30 O29 2.228 . S
Cd30 O34 2.273 . S
Cd30 O38 2.277 . S
O31 C28 1.160 1_455 S
O31 Cd32 2.203 1_455 S
Cd32 O31 2.203 1_655 S
Cd32 O34 2.411 . S
Cd32 O35 2.333 . S
Cd32 O36 2.352 1_655 S
Cd32 O40 2.277 . S
Cd32 O41 2.356 1_655 S
C33 O38 1.209 . S
C33 O40 1.226 . S
O34 Cd30 2.273 . S
O34 Cd32 2.411 . S
O34 C37 1.320 . S
O35 Cd32 2.333 . S
O35 C37 1.214 . S
O36 Cd32 2.352 1_455 S
O36 C39 1.258 . S
C37 O34 1.320 . S
C37 O35 1.214 . S
O38 Cd30 2.277 . S
O38 C33 1.209 . S
C39 O36 1.258 . S
C39 O41 1.282 . S
O40 Cd32 2.277 . S
O40 C33 1.226 . S
O41 Cd32 2.356 1_455 S
O41 C39 1.282 . S
C42 O43 1.306 . S
C42 O45 1.160 . S
O43 C42 1.306 . S
O43 Cd44 2.228 . S
Cd44 O43 2.228 . S
Cd44 O48 2.273 . S
Cd44 O52 2.277 . S
O45 C42 1.160 . S
O45 Cd46 2.203 . S
Cd46 O45 2.203 . S
Cd46 O48 2.411 . S
Cd46 O49 2.333 . S
Cd46 O50 2.352 . S
Cd46 O54 2.277 . S
Cd46 O55 2.356 . S
C47 O52 1.209 . S
C47 O54 1.226 . S
O48 Cd44 2.273 . S
O48 Cd46 2.411 . S
O48 C51 1.320 . S
O49 Cd46 2.333 . S
O49 C51 1.214 . S
O50 Cd46 2.352 . S
O50 C53 1.258 . S
C51 O48 1.320 . S
C51 O49 1.214 . S
O52 Cd44 2.277 . S
O52 C47 1.209 . S
C53 O50 1.258 . S
C53 O55 1.282 . S
O54 Cd46 2.277 . S
O54 C47 1.226 . S
O55 Cd46 2.356 . S
O55 C53 1.282 . S
C56 O57 1.306 . S
C56 O59 1.160 . S
O57 C56 1.306 . S
O57 Cd58 2.228 . S
Cd58 O57 2.228 . S
Cd58 O62 2.273 . S
Cd58 O66 2.277 . S
O59 C56 1.160 . S
O59 Cd60 2.203 . S
Cd60 O59 2.203 . S
Cd60 O62 2.411 . S
Cd60 O63 2.333 . S
Cd60 O64 2.352 . S
Cd60 O68 2.277 . S
Cd60 O69 2.356 . S
C61 O66 1.209 . S
C61 O68 1.226 . S
O62 Cd58 2.273 . S
O62 Cd60 2.411 . S
O62 C65 1.320 . S
O63 Cd60 2.333 . S
O63 C65 1.214 . S
O64 Cd60 2.352 . S
O64 C67 1.258 . S
C65 O62 1.320 . S
C65 O63 1.214 . S
O66 Cd58 2.277 . S
O66 C61 1.209 . S
C67 O64 1.258 . S
C67 O69 1.282 . S
O68 Cd60 2.277 . S
O68 C61 1.226 . S
O69 Cd60 2.356 . S
O69 C67 1.282 . S
C70 O71 1.306 . S
C70 O73 1.160 1_655 S
O71 C70 1.306 . S
O71 Cd72 2.228 . S
Cd72 O71 2.228 . S
Cd72 O76 2.273 . S
Cd72 O80 2.277 . S
O73 C70 1.160 1_455 S
O73 Cd74 2.203 1_455 S
Cd74 O73 2.203 1_655 S
Cd74 O76 2.411 . S
Cd74 O77 2.333 . S
Cd74 O78 2.352 1_655 S
Cd74 O82 2.277 . S
Cd74 O83 2.356 1_655 S
C75 O80 1.209 . S
C75 O82 1.226 . S
O76 Cd72 2.273 . S
O76 Cd74 2.411 . S
O76 C79 1.320 . S
O77 Cd74 2.333 . S
O77 C79 1.214 . S
O78 Cd74 2.352 1_455 S
O78 C81 1.258 . S
C79 O76 1.320 . S
C79 O77 1.214 . S
O80 Cd72 2.277 . S
O80 C75 1.209 . S
C81 O78 1.258 . S
C81 O83 1.282 . S
O82 Cd74 2.277 . S
O82 C75 1.226 . S
O83 Cd74 2.356 1_455 S
O83 C81 1.282 . S
C84 O85 1.306 . S
C84 O87 1.160 . S
O85 C84 1.306 . S
O85 Cd86 2.228 . S
Cd86 O85 2.228 . S
Cd86 O90 2.273 . S
Cd86 O94 2.277 . S
O87 C84 1.160 . S
O87 Cd88 2.203 . S
Cd88 O87 2.203 . S
Cd88 O90 2.411 . S
Cd88 O91 2.333 . S
Cd88 O92 2.352 . S
Cd88 O96 2.277 . S
Cd88 O97 2.356 . S
C89 O94 1.209 . S
C89 O96 1.226 . S
O90 Cd86 2.273 . S
O90 Cd88 2.411 . S
O90 C93 1.320 . S
O91 Cd88 2.333 . S
O91 C93 1.214 . S
O92 Cd88 2.352 . S
O92 C95 1.258 . S
C93 O90 1.320 . S
C93 O91 1.214 . S
O94 Cd86 2.277 . S
O94 C89 1.209 . S
C95 O92 1.258 . S
C95 O97 1.282 . S
O96 Cd88 2.277 . S
O96 C89 1.226 . S
O97 Cd88 2.356 . S
O97 C95 1.282 . S
C98 O99 1.306 . S
C98 O101 1.160 1_455 S
O99 C98 1.306 . S
O99 Cd100 2.228 . S
Cd100 O99 2.228 . S
Cd100 O104 2.273 . S
Cd100 O108 2.277 . S
O101 C98 1.160 1_655 S
O101 Cd102 2.203 1_655 S
Cd102 O101 2.203 1_455 S
Cd102 O104 2.411 . S
Cd102 O105 2.333 . S
Cd102 O106 2.352 1_455 S
Cd102 O110 2.277 . S
Cd102 O111 2.356 1_455 S
C103 O108 1.209 . S
C103 O110 1.226 . S
O104 Cd100 2.273 . S
O104 Cd102 2.411 . S
O104 C107 1.320 . S
O105 Cd102 2.333 . S
O105 C107 1.214 . S
O106 Cd102 2.352 1_655 S
O106 C109 1.258 . S
C107 O104 1.320 . S
C107 O105 1.214 . S
O108 Cd100 2.277 . S
O108 C103 1.209 . S
C109 O106 1.258 . S
C109 O111 1.282 . S
O110 Cd102 2.277 . S
O110 C103 1.226 . S
O111 Cd102 2.356 1_655 S
O111 C109 1.282 . S
C112 C113 1.381 . S
C112 C114 1.419 . S
C112 H116 0.930 . S
C113 C112 1.381 . S
C113 C122 1.418 1_655 S
C114 C112 1.419 . S
C114 C115 1.363 1_655 S
C114 H117 0.929 . S
C115 C114 1.363 1_455 S
C115 C121 1.428 . S
H116 C112 0.930 . S
H117 C114 0.929 . S
S118 N119 1.613 . S
S118 N120 1.610 . S
N119 S118 1.613 . S
N119 C122 1.350 . S
N120 S118 1.610 . S
N120 C121 1.351 . S
C121 C115 1.428 . S
C121 N120 1.351 . S
C121 C122 1.434 . S
C122 C113 1.418 1_455 S
C122 N119 1.350 . S
C122 C121 1.434 . S
C123 C124 1.369 . S
C123 C125 1.419 . S
C123 H127 0.930 . S
C124 C123 1.369 . S
C124 C133 1.429 . S
C125 C123 1.419 . S
C125 C126 1.363 . S
C125 H128 0.929 . S
C126 C125 1.363 . S
C126 C132 1.428 . S
H127 C123 0.930 . S
H128 C125 0.929 . S
S129 N130 1.613 . S
S129 N131 1.610 . S
N130 S129 1.613 . S
N130 C133 1.350 . S
N131 S129 1.610 . S
N131 C132 1.351 . S
C132 C126 1.428 . S
C132 N131 1.351 . S
C132 C133 1.434 . S
C133 C124 1.429 . S
C133 N130 1.350 . S
C133 C132 1.434 . S
C134 C135 1.369 . S
C134 C136 1.419 1_544 S
C134 H138 0.930 . S
C135 C134 1.369 . S
C135 C144 1.429 1_545 S
C136 C134 1.419 1_566 S
C136 C137 1.363 . S
C136 H139 0.930 . S
C137 C136 1.363 . S
C137 C143 1.428 . S
H138 C134 0.930 . S
H139 C136 0.930 . S
S140 N141 1.613 . S
S140 N142 1.610 1_554 S
N141 S140 1.613 . S
N141 C144 1.350 . S
N142 S140 1.610 1_556 S
N142 C143 1.351 . S
C143 C137 1.428 . S
C143 N142 1.351 . S
C143 C144 1.434 1_556 S
C144 C135 1.429 1_565 S
C144 N141 1.350 . S
C144 C143 1.434 1_554 S
C145 C146 1.376 1_556 S
C145 C147 1.419 . S
C145 H149 0.930 . S
C146 C145 1.376 1_554 S
C146 C155 1.423 1_465 S
C147 C145 1.419 . S
C147 C148 1.363 1_465 S
C147 H150 0.929 . S
C148 C147 1.363 1_645 S
C148 C154 1.428 1_556 S
H149 C145 0.930 . S
H150 C147 0.929 . S
S151 N152 1.613 . S
S151 N153 1.610 . S
N152 S151 1.613 . S
N152 C155 1.350 . S
N153 S151 1.610 . S
N153 C154 1.351 . S
C154 C148 1.428 1_554 S
C154 N153 1.351 . S
C154 C155 1.434 . S
C155 C146 1.423 1_645 S
C155 N152 1.350 . S
C155 C154 1.434 . S
C156 C157 1.369 . S
C156 C158 1.419 . S
C156 H160 0.930 . S
C157 C156 1.369 . S
C157 C166 1.429 . S
C158 C156 1.419 . S
C158 C159 1.363 . S
C158 H161 0.929 . S
C159 C158 1.363 . S
C159 C165 1.428 . S
H160 C156 0.930 . S
H161 C158 0.929 . S
S162 N163 1.613 . S
S162 N164 1.610 . S
N163 S162 1.613 . S
N163 C166 1.350 . S
N164 S162 1.610 . S
N164 C165 1.351 . S
C165 C159 1.428 . S
C165 N164 1.351 . S
C165 C166 1.434 . S
C166 C157 1.429 . S
C166 N163 1.350 . S
C166 C165 1.434 . S
C167 C168 1.369 . S
C167 C169 1.419 . S
C167 H171 0.930 . S
C168 C167 1.369 . S
C168 C177 1.429 . S
C169 C167 1.419 . S
C169 C170 1.363 . S
C169 H172 0.929 . S
C170 C169 1.363 . S
C170 C176 1.428 . S
H171 C167 0.930 . S
H172 C169 0.929 . S
S173 N174 1.613 . S
S173 N175 1.610 . S
N174 S173 1.613 . S
N174 C177 1.350 . S
N175 S173 1.610 . S
N175 C176 1.351 . S
C176 C170 1.428 . S
C176 N175 1.351 . S
C176 C177 1.434 . S
C177 C168 1.429 . S
C177 N174 1.350 . S
C177 C176 1.434 . S
C178 C179 1.369 . S
C178 C180 1.419 . S
C178 H182 0.930 . S
C179 C178 1.369 . S
C179 C188 1.429 . S
C180 C178 1.419 . S
C180 C181 1.363 . S
C180 H183 0.929 . S
C181 C180 1.363 . S
C181 C187 1.428 . S
H182 C178 0.930 . S
H183 C180 0.929 . S
S184 N185 1.613 . S
S184 N186 1.610 . S
N185 S184 1.613 . S
N185 C188 1.350 . S
N186 S184 1.610 . S
N186 C187 1.351 . S
C187 C181 1.428 . S
C187 N186 1.351 . S
C187 C188 1.434 . S
C188 C179 1.429 . S
C188 N185 1.350 . S
C188 C187 1.434 . S
C189 C190 1.369 . S
C189 C191 1.419 . S
C189 H193 0.930 . S
C190 C189 1.369 . S
C190 C199 1.429 . S
C191 C189 1.419 . S
C191 C192 1.363 . S
C191 H194 0.929 . S
C192 C191 1.363 . S
C192 C198 1.428 . S
H193 C189 0.930 . S
H194 C191 0.929 . S
S195 N196 1.613 . S
S195 N197 1.610 . S
N196 S195 1.613 . S
N196 C199 1.350 . S
N197 S195 1.610 . S
N197 C198 1.351 . S
C198 C192 1.428 . S
C198 N197 1.351 . S
C198 C199 1.434 . S
C199 C190 1.429 . S
C199 N196 1.350 . S
C199 C198 1.434 . S
C200 C201 1.369 . S
C200 C202 1.419 . S
C200 H204 0.930 . S
C201 C200 1.369 . S
C201 C210 1.429 . S
C202 C200 1.419 . S
C202 C203 1.363 . S
C202 H205 0.929 . S
C203 C202 1.363 . S
C203 C209 1.428 . S
H204 C200 0.930 . S
H205 C202 0.929 . S
S206 N207 1.613 . S
S206 N208 1.610 . S
N207 S206 1.613 . S
N207 C210 1.350 . S
N208 S206 1.610 . S
N208 C209 1.351 . S
C209 C203 1.428 . S
C209 N208 1.351 . S
C209 C210 1.434 . S
C210 C201 1.429 . S
C210 N207 1.350 . S
C210 C209 1.434 . S
C211 C212 1.369 . S
C211 C213 1.419 . S
C211 H215 0.930 . S
C212 C211 1.369 . S
C212 C221 1.429 . S
C213 C211 1.419 . S
C213 C214 1.363 . S
C213 H216 0.929 . S
C214 C213 1.363 . S
C214 C220 1.428 . S
H215 C211 0.930 . S
H216 C213 0.929 . S
S217 N218 1.613 . S
S217 N219 1.610 . S
N218 S217 1.613 . S
N218 C221 1.350 . S
N219 S217 1.610 . S
N219 C220 1.351 . S
C220 C214 1.428 . S
C220 N219 1.351 . S
C220 C221 1.434 . S
C221 C212 1.429 . S
C221 N218 1.350 . S
C221 C220 1.434 . S
C222 C223 1.369 . S
C222 C224 1.419 . S
C222 H226 0.930 . S
C223 C222 1.369 . S
C223 C232 1.429 . S
C224 C222 1.419 . S
C224 C225 1.363 . S
C224 H227 0.929 . S
C225 C224 1.363 . S
C225 C231 1.428 . S
H226 C222 0.930 . S
H227 C224 0.929 . S
S228 N229 1.613 . S
S228 N230 1.610 . S
N229 S228 1.613 . S
N229 C232 1.350 . S
N230 S228 1.610 . S
N230 C231 1.351 . S
C231 C225 1.428 . S
C231 N230 1.351 . S
C231 C232 1.434 . S
C232 C223 1.429 . S
C232 N229 1.350 . S
C232 C231 1.434 . S
C233 C234 1.369 . S
C233 C235 1.419 . S
C233 H237 0.930 . S
C234 C233 1.369 . S
C234 C243 1.429 . S
C235 C233 1.419 . S
C235 C236 1.363 . S
C235 H238 0.929 . S
C236 C235 1.363 . S
C236 C242 1.428 . S
H237 C233 0.930 . S
H238 C235 0.929 . S
S239 N240 1.613 . S
S239 N241 1.610 . S
N240 S239 1.613 . S
N240 C243 1.350 . S
N241 S239 1.610 . S
N241 C242 1.351 . S
C242 C236 1.428 . S
C242 N241 1.351 . S
C242 C243 1.434 . S
C243 C234 1.429 . S
C243 N240 1.350 . S
C243 C242 1.434 . S
C244 C245 1.369 . S
C244 C246 1.419 . S
C244 H248 0.930 . S
C245 C244 1.369 . S
C245 C254 1.429 . S
C246 C244 1.419 . S
C246 C247 1.363 . S
C246 H249 0.929 . S
C247 C246 1.363 . S
C247 C253 1.428 . S
H248 C244 0.930 . S
H249 C246 0.929 . S
S250 N251 1.613 . S
S250 N252 1.610 . S
N251 S250 1.613 . S
N251 C254 1.350 . S
N252 S250 1.610 . S
N252 C253 1.351 . S
C253 C247 1.428 . S
C253 N252 1.351 . S
C253 C254 1.434 . S
C254 C245 1.429 . S
C254 N251 1.350 . S
C254 C253 1.434 . S
C255 C256 1.369 . S
C255 C257 1.419 . S
C255 H259 0.930 . S
C256 C255 1.369 . S
C256 C265 1.429 . S
C257 C255 1.419 . S
C257 C258 1.363 . S
C257 H260 0.929 . S
C258 C257 1.363 . S
C258 C264 1.428 . S
H259 C255 0.930 . S
H260 C257 0.929 . S
S261 N262 1.613 . S
S261 N263 1.610 . S
N262 S261 1.613 . S
N262 C265 1.350 . S
N263 S261 1.610 . S
N263 C264 1.351 . S
C264 C258 1.428 . S
C264 N263 1.351 . S
C264 C265 1.434 . S
C265 C256 1.429 . S
C265 N262 1.350 . S
C265 C264 1.434 . S
C266 C267 1.369 . S
C266 C268 1.419 . S
C266 H270 0.930 . S
C267 C266 1.369 . S
C267 C276 1.429 1_554 S
C268 C266 1.419 . S
C268 C269 1.363 1_554 S
C268 H271 0.929 . S
C269 C268 1.363 1_556 S
C269 C275 1.428 . S
H270 C266 0.930 . S
H271 C268 0.929 . S
S272 N273 1.613 . S
S272 N274 1.610 . S
N273 S272 1.613 . S
N273 C276 1.350 . S
N274 S272 1.610 . S
N274 C275 1.351 . S
C275 C269 1.428 . S
C275 N274 1.351 . S
C275 C276 1.434 . S
C276 C267 1.429 1_556 S
C276 N273 1.350 . S
C276 C275 1.434 . S
C277 C278 1.369 1_556 S
C277 C279 1.419 . S
C277 H281 0.930 . S
C278 C277 1.369 1_554 S
C278 C287 1.429 . S
C279 C277 1.419 . S
C279 C280 1.363 . S
C279 H282 0.929 . S
C280 C279 1.363 . S
C280 C286 1.428 1_556 S
H281 C277 0.930 . S
H282 C279 0.929 . S
S283 N284 1.613 . S
S283 N285 1.610 . S
N284 S283 1.613 . S
N284 C287 1.350 . S
N285 S283 1.610 . S
N285 C286 1.351 . S
C286 C280 1.428 1_554 S
C286 N285 1.351 . S
C286 C287 1.434 . S
C287 C278 1.429 . S
C287 N284 1.350 . S
C287 C286 1.434 . S
C113 C0 1.533 1_655 S
C115 C28 1.544 1_455 S
C124 C42 1.544 . S
C126 C14 1.538 . S
C135 C84 1.540 . S
C137 C56 1.541 . S
C146 C70 1.535 1_455 S
C148 C98 1.541 1_655 S
C157 C95 1.804 . S
C159 C11 1.806 . S
C168 C25 1.802 . S
C170 C109 1.807 . S
C179 C39 1.801 . S
C181 C67 1.808 . S
C190 C53 1.805 . S
C192 C81 1.805 . S
C201 C93 1.537 . S
C203 C9 1.539 . S
C212 C23 1.538 . S
C214 C107 1.538 . S
C223 C65 1.537 . S
C225 C37 1.538 . S
C234 C79 1.539 . S
C236 C51 1.537 . S
C245 C19 0.840 . S
C247 C5 0.829 . S
C256 C33 0.841 . S
C258 C47 0.836 . S
C267 C75 0.830 . S
C269 C61 0.825 . S
C278 C89 0.824 . S
C280 C103 0.836 . S
