# Generated by pormake.
# Topology why, (6)-cn, num edge types: 1
# Building blocks:
#     Node 0, Type 0, BuildingBlock: MIDCAF_clean_sbu_0, # of connection points: 6
#     Node 1, Type 0, BuildingBlock: MIDCAF_clean_sbu_0, # of connection points: 6
#     Node 2, Type 0, BuildingBlock: MIDCAF_clean_sbu_0, # of connection points: 6
#     Node 3, Type 0, BuildingBlock: MIDCAF_clean_sbu_0, # of connection points: 6
#     Node 4, Type 0, BuildingBlock: MIDCAF_clean_sbu_0, # of connection points: 6
#     Node 5, Type 0, BuildingBlock: MIDCAF_clean_sbu_0, # of connection points: 6
#     Node 6, Type 0, BuildingBlock: MIDCAF_clean_sbu_0, # of connection points: 6
#     Node 7, Type 0, BuildingBlock: MIDCAF_clean_sbu_0, # of connection points: 6
#     Node 8, Type 0, BuildingBlock: MIDCAF_clean_sbu_0, # of connection points: 6
#     Node 9, Type 0, BuildingBlock: MIDCAF_clean_sbu_0, # of connection points: 6
#     Node 10, Type 0, BuildingBlock: MIDCAF_clean_sbu_0, # of connection points: 6
#     Node 11, Type 0, BuildingBlock: MIDCAF_clean_sbu_0, # of connection points: 6
#     Node 12, Type 0, BuildingBlock: MIDCAF_clean_sbu_0, # of connection points: 6
#     Node 13, Type 0, BuildingBlock: MIDCAF_clean_sbu_0, # of connection points: 6
#     Node 14, Type 0, BuildingBlock: MIDCAF_clean_sbu_0, # of connection points: 6
#     Node 15, Type 0, BuildingBlock: MIDCAF_clean_sbu_0, # of connection points: 6
#     Edge 16, Type (0, 0), None
#     Edge 17, Type (0, 0), None
#     Edge 18, Type (0, 0), None
#     Edge 19, Type (0, 0), None
#     Edge 20, Type (0, 0), None
#     Edge 21, Type (0, 0), None
#     Edge 22, Type (0, 0), None
#     Edge 23, Type (0, 0), None
#     Edge 24, Type (0, 0), None
#     Edge 25, Type (0, 0), None
#     Edge 26, Type (0, 0), None
#     Edge 27, Type (0, 0), None
#     Edge 28, Type (0, 0), None
#     Edge 29, Type (0, 0), None
#     Edge 30, Type (0, 0), None
#     Edge 31, Type (0, 0), None
#     Edge 32, Type (0, 0), None
#     Edge 33, Type (0, 0), None
#     Edge 34, Type (0, 0), None
#     Edge 35, Type (0, 0), None
#     Edge 36, Type (0, 0), None
#     Edge 37, Type (0, 0), None
#     Edge 38, Type (0, 0), None
#     Edge 39, Type (0, 0), None
#     Edge 40, Type (0, 0), None
#     Edge 41, Type (0, 0), None
#     Edge 42, Type (0, 0), None
#     Edge 43, Type (0, 0), None
#     Edge 44, Type (0, 0), None
#     Edge 45, Type (0, 0), None
#     Edge 46, Type (0, 0), None
#     Edge 47, Type (0, 0), None
#     Edge 48, Type (0, 0), None
#     Edge 49, Type (0, 0), None
#     Edge 50, Type (0, 0), None
#     Edge 51, Type (0, 0), None
#     Edge 52, Type (0, 0), None
#     Edge 53, Type (0, 0), None
#     Edge 54, Type (0, 0), None
#     Edge 55, Type (0, 0), None
#     Edge 56, Type (0, 0), None
#     Edge 57, Type (0, 0), None
#     Edge 58, Type (0, 0), None
#     Edge 59, Type (0, 0), None
#     Edge 60, Type (0, 0), None
#     Edge 61, Type (0, 0), None
#     Edge 62, Type (0, 0), None
#     Edge 63, Type (0, 0), None
# Relax obj value: 0.306
# Max RMSD: 0.223
# Mean RMSD: 0.223
data_MOF--net-why--node1-MIDCAF_clean_sbu_0--edge1-none
_symmetry_space_group_name_H-M    P1
_symmetry_Int_Tables_number       1
_symmetry_cell_setting            triclinic
loop_
_symmetry_equiv_pos_as_xyz
'x, y, z'
_cell_length_a     21.887057
_cell_length_b     21.887033
_cell_length_c     12.465755
_cell_angle_alpha  89.999999
_cell_angle_beta   89.999999
_cell_angle_gamma 90.000238
loop_
_atom_site_label
_atom_site_type_symbol
_atom_site_fract_x
_atom_site_fract_y
_atom_site_fract_z
_atom_type_partial_charge
Zn0 Zn 0.36416 0.1318 0.29089 0.0
Zn1 Zn 0.33291 0.16061 0.70128 0.0
Zn2 Zn 0.34346 0.16332 0.06496 0.0
C3 C 0.40941 0.11168 0.85363 0.0
C4 C 0.3442 0.25196 0.85623 0.0
O5 O 0.2746 0.21036 0.14624 0.0
O6 O 0.28482 0.18067 0.31519 0.0
C7 C 0.36269 0.02759 0.16106 0.0
O8 O 0.36377 0.13754 0.9011 0.0
O9 O 0.40839 0.10964 0.75188 0.0
O10 O 0.34348 0.25115 0.75437 0.0
O11 O 0.33681 0.20048 0.90452 0.0
O12 O 0.36951 0.03782 0.2603 0.0
O13 O 0.3534 0.07185 0.0979 0.0
O14 O 0.42456 0.20889 0.10656 0.0
O15 O 0.44045 0.18598 0.27734 0.0
C16 C 0.45584 0.21384 0.19216 0.0
O17 O 0.29632 0.14404 0.91136 0.0
O18 O 0.2508 0.12567 0.75841 0.0
C19 C 0.25817 0.21269 0.24403 0.0
C20 C 0.24793 0.12588 0.86039 0.0
Zn21 Zn 0.58448 0.61416 0.54089 0.0
Zn22 Zn 0.55568 0.58291 0.95128 0.0
Zn23 Zn 0.55296 0.59346 0.31496 0.0
C24 C 0.6046 0.65942 0.10363 0.0
C25 C 0.46432 0.5942 0.10622 0.0
O26 O 0.50592 0.5246 0.39624 0.0
O27 O 0.53561 0.53482 0.56519 0.0
C28 C 0.68869 0.61269 0.41106 0.0
O29 O 0.57874 0.61377 0.1511 0.0
O30 O 0.60664 0.6584 1.00188 0.0
O31 O 0.46513 0.59348 1.00437 0.0
O32 O 0.5158 0.58682 0.15452 0.0
O33 O 0.67846 0.61951 0.5103 0.0
O34 O 0.64443 0.6034 0.3479 0.0
O35 O 0.50739 0.67456 0.35656 0.0
O36 O 0.5303 0.69045 0.52734 0.0
C37 C 0.50244 0.70585 0.44216 0.0
O38 O 0.57224 0.54633 0.16136 0.0
O39 O 0.59062 0.50081 1.0084 0.0
C40 C 0.50359 0.50817 0.49403 0.0
C41 C 0.59041 0.49793 0.11039 0.0
Zn42 Zn 0.13337 0.80567 0.20128 0.0
Zn43 Zn 0.10212 0.83448 0.79089 0.0
Zn44 Zn 0.12282 0.80296 0.56496 0.0
C45 C 0.01044 0.75244 0.69216 0.0
C46 C 0.10359 0.93869 0.66106 0.0
O47 O 0.16996 0.82224 0.41136 0.0
O48 O 0.21548 0.84061 0.25841 0.0
C49 C 0.12208 0.71432 0.35623 0.0
O50 O 0.04172 0.75738 0.60656 0.0
O51 O 0.02583 0.7803 0.77734 0.0
O52 O 0.09677 0.92846 0.7603 0.0
O53 O 0.11288 0.89443 0.5979 0.0
O54 O 0.1228 0.71513 0.25437 0.0
O55 O 0.12946 0.7658 0.40452 0.0
O56 O 0.10251 0.82874 0.4011 0.0
O57 O 0.05789 0.85664 0.25188 0.0
C58 C 0.05687 0.8546 0.35363 0.0
O59 O 0.19168 0.75592 0.64624 0.0
O60 O 0.18146 0.78561 0.81519 0.0
C61 C 0.21835 0.8404 0.36039 0.0
C62 C 0.20811 0.75359 0.74403 0.0
Zn63 Zn 0.8818 0.35212 0.04089 0.0
Zn64 Zn 0.9106 0.38337 0.45128 0.0
Zn65 Zn 0.91332 0.37282 0.81496 0.0
C66 C 0.86167 0.30686 0.60363 0.0
C67 C 0.00196 0.37208 0.60622 0.0
O68 O 0.96035 0.44168 0.89624 0.0
O69 O 0.93067 0.43146 0.06519 0.0
C70 C 0.77759 0.35359 0.91106 0.0
O71 O 0.88754 0.35251 0.6511 0.0
O72 O 0.85964 0.30788 0.50188 0.0
O73 O 0.00115 0.3728 0.50437 0.0
O74 O 0.95048 0.37946 0.65452 0.0
O75 O 0.78782 0.34677 0.0103 0.0
O76 O 0.82185 0.36288 0.8479 0.0
O77 O 0.95889 0.29172 0.85656 0.0
O78 O 0.93597 0.27583 0.02734 0.0
C79 C 0.96384 0.26043 0.94216 0.0
O80 O 0.89403 0.41995 0.66136 0.0
O81 O 0.87566 0.46547 0.5084 0.0
C82 C 0.96269 0.45811 0.99403 0.0
C83 C 0.87587 0.46835 0.61039 0.0
Zn84 Zn 0.63337 0.80568 0.31784 0.0
Zn85 Zn 0.60212 0.83448 0.72822 0.0
Zn86 Zn 0.62282 0.80296 0.95415 0.0
C87 C 0.51044 0.75244 0.82695 0.0
C88 C 0.60358 0.93869 0.85805 0.0
O89 O 0.66995 0.82224 0.10775 0.0
O90 O 0.71548 0.84062 0.26071 0.0
C91 C 0.62206 0.71432 0.1629 0.0
O92 O 0.54172 0.75739 0.91255 0.0
O93 O 0.52583 0.7803 0.74177 0.0
O94 O 0.59677 0.92846 0.75881 0.0
O95 O 0.61288 0.89443 0.92121 0.0
O96 O 0.6228 0.71513 0.26475 0.0
O97 O 0.62945 0.7658 0.1146 0.0
O98 O 0.60251 0.82875 0.11801 0.0
O99 O 0.55789 0.85664 0.26723 0.0
C100 C 0.55687 0.85461 0.16548 0.0
O101 O 0.69168 0.75593 0.87287 0.0
O102 O 0.68146 0.78561 0.70392 0.0
C103 C 0.71835 0.8404 0.15872 0.0
C104 C 0.70811 0.75359 0.77508 0.0
Zn105 Zn 0.41061 0.38337 0.06784 0.0
Zn106 Zn 0.38179 0.35212 0.47822 0.0
Zn107 Zn 0.41331 0.37282 0.70415 0.0
C108 C 0.46384 0.26043 0.57695 0.0
C109 C 0.27759 0.35359 0.60805 0.0
O110 O 0.39404 0.41995 0.85775 0.0
O111 O 0.37567 0.46548 0.01071 0.0
C112 C 0.50197 0.37208 0.91288 0.0
O113 O 0.45889 0.29172 0.66255 0.0
O114 O 0.43597 0.27583 0.49177 0.0
O115 O 0.28782 0.34677 0.50882 0.0
O116 O 0.32185 0.36288 0.67121 0.0
O117 O 0.50115 0.3728 0.01474 0.0
O118 O 0.45048 0.37946 0.86459 0.0
O119 O 0.38754 0.3525 0.86801 0.0
O120 O 0.35964 0.30789 0.01724 0.0
C121 C 0.36169 0.30686 0.91549 0.0
O122 O 0.46035 0.44168 0.62287 0.0
O123 O 0.43067 0.43146 0.45392 0.0
C124 C 0.37588 0.46835 0.90872 0.0
C125 C 0.46269 0.45811 0.52508 0.0
Zn126 Zn 0.83291 0.1606 0.81784 0.0
Zn127 Zn 0.86416 0.1318 0.22822 0.0
Zn128 Zn 0.84346 0.16332 0.45415 0.0
C129 C 0.95584 0.21384 0.32695 0.0
C130 C 0.86269 0.02759 0.35805 0.0
O131 O 0.79633 0.14404 0.60775 0.0
O132 O 0.7508 0.12566 0.76071 0.0
C133 C 0.84422 0.25196 0.6629 0.0
O134 O 0.92456 0.20889 0.41255 0.0
O135 O 0.94045 0.18598 0.24177 0.0
O136 O 0.86951 0.03782 0.25881 0.0
O137 O 0.8534 0.07185 0.42121 0.0
O138 O 0.84348 0.25115 0.76475 0.0
O139 O 0.83682 0.20048 0.6146 0.0
O140 O 0.86377 0.13753 0.61801 0.0
O141 O 0.90839 0.10964 0.76723 0.0
C142 C 0.90941 0.11167 0.66548 0.0
O143 O 0.7746 0.21035 0.37287 0.0
O144 O 0.78482 0.18067 0.20392 0.0
C145 C 0.74793 0.12588 0.65872 0.0
C146 C 0.75817 0.21269 0.27508 0.0
Zn147 Zn 0.08449 0.61416 0.97822 0.0
Zn148 Zn 0.05567 0.58291 0.56784 0.0
Zn149 Zn 0.05296 0.59346 0.20415 0.0
C150 C 0.10459 0.65942 0.41549 0.0
C151 C 0.96431 0.5942 0.41288 0.0
O152 O 0.00593 0.5246 0.12287 0.0
O153 O 0.03561 0.53482 0.95392 0.0
C154 C 0.18869 0.61269 0.10805 0.0
O155 O 0.07873 0.61378 0.36801 0.0
O156 O 0.10664 0.65839 0.51724 0.0
O157 O 0.96513 0.59348 0.51474 0.0
O158 O 0.01579 0.58682 0.36459 0.0
O159 O 0.17846 0.61951 1.00882 0.0
O160 O 0.14443 0.6034 0.17121 0.0
O161 O 0.00739 0.67456 0.16255 0.0
O162 O 0.03031 0.69045 0.99177 0.0
C163 C 0.00244 0.70585 0.07695 0.0
O164 O 0.07224 0.54633 0.35775 0.0
O165 O 0.09061 0.5008 0.51071 0.0
C166 C 0.00359 0.50817 0.02508 0.0
C167 C 0.0904 0.49793 0.40872 0.0
Zn168 Zn 0.86416 0.63179 0.7909 0.0
Zn169 Zn 0.83291 0.66061 0.20127 0.0
Zn170 Zn 0.84346 0.66332 0.56496 0.0
C171 C 0.90941 0.61168 0.35362 0.0
C172 C 0.8442 0.75197 0.35623 0.0
O173 O 0.77461 0.71035 0.64624 0.0
O174 O 0.78482 0.68067 0.81519 0.0
C175 C 0.86269 0.52759 0.66106 0.0
O176 O 0.86377 0.63754 0.4011 0.0
O177 O 0.90839 0.60964 0.25187 0.0
O178 O 0.84348 0.75115 0.25437 0.0
O179 O 0.83682 0.70049 0.40452 0.0
O180 O 0.86951 0.53782 0.76029 0.0
O181 O 0.85339 0.57185 0.59789 0.0
O182 O 0.92457 0.70889 0.60656 0.0
O183 O 0.94046 0.68597 0.77734 0.0
C184 C 0.95585 0.71383 0.69216 0.0
O185 O 0.79633 0.64404 0.41136 0.0
O186 O 0.7508 0.62567 0.2584 0.0
C187 C 0.75818 0.71269 0.74404 0.0
C188 C 0.74793 0.62589 0.36039 0.0
Zn189 Zn 0.05568 0.08291 0.45127 0.0
Zn190 Zn 0.08448 0.11416 0.0409 0.0
Zn191 Zn 0.05296 0.09346 0.81496 0.0
C192 C 0.00244 0.20585 0.94216 0.0
C193 C 0.18868 0.11269 0.91106 0.0
O194 O 0.07223 0.04632 0.66136 0.0
O195 O 0.09061 0.0008 0.5084 0.0
C196 C 0.96432 0.09422 0.60621 0.0
O197 O 0.00739 0.17456 0.85656 0.0
O198 O 0.0303 0.19045 0.02734 0.0
O199 O 0.17846 0.11951 0.0103 0.0
O200 O 0.14443 0.1034 0.84789 0.0
O201 O 0.96513 0.09348 0.50436 0.0
O202 O 0.0158 0.08683 0.65452 0.0
O203 O 0.07875 0.11377 0.6511 0.0
O204 O 0.10664 0.15839 0.50188 0.0
C205 C 0.10461 0.15941 0.60363 0.0
O206 O 0.00593 0.0246 0.89624 0.0
O207 O 0.03561 0.03482 0.06519 0.0
C208 C 0.09039 -0.00207 0.61039 0.0
C209 C 0.00359 0.00817 0.99403 0.0
Zn210 Zn 0.63337 0.30567 0.70127 0.0
Zn211 Zn 0.60212 0.33449 0.2909 0.0
Zn212 Zn 0.62281 0.30296 0.06496 0.0
C213 C 0.51043 0.25245 0.19216 0.0
C214 C 0.60359 0.43869 0.16106 0.0
O215 O 0.66995 0.32224 0.91136 0.0
O216 O 0.71548 0.34061 0.7584 0.0
C217 C 0.62208 0.21431 0.85623 0.0
O218 O 0.54171 0.25739 0.10656 0.0
O219 O 0.52582 0.28031 0.27734 0.0
O220 O 0.59677 0.42846 0.26029 0.0
O221 O 0.61288 0.39443 0.09789 0.0
O222 O 0.6228 0.21513 0.75437 0.0
O223 O 0.62946 0.26579 0.90452 0.0
O224 O 0.60251 0.32874 0.9011 0.0
O225 O 0.55789 0.35664 0.75187 0.0
C226 C 0.55686 0.3546 0.85362 0.0
O227 O 0.69167 0.25593 0.14624 0.0
O228 O 0.68145 0.28561 0.3152 0.0
C229 C 0.71835 0.34039 0.86039 0.0
C230 C 0.7081 0.25359 0.24404 0.0
Zn231 Zn 0.3818 0.85212 0.5409 0.0
Zn232 Zn 0.4106 0.88337 0.95127 0.0
Zn233 Zn 0.41332 0.87282 0.31496 0.0
C234 C 0.36167 0.80687 0.10363 0.0
C235 C 0.50196 0.87206 0.10621 0.0
O236 O 0.46035 0.94168 0.39624 0.0
O237 O 0.43067 0.93146 0.56519 0.0
C238 C 0.27759 0.85359 0.41106 0.0
O239 O 0.38753 0.85251 0.1511 0.0
O240 O 0.35964 0.80789 1.00188 0.0
O241 O 0.50115 0.8728 1.00436 0.0
O242 O 0.45048 0.87945 0.15452 0.0
O243 O 0.28782 0.84677 0.5103 0.0
O244 O 0.32185 0.86288 0.34789 0.0
O245 O 0.45889 0.79172 0.35656 0.0
O246 O 0.43598 0.77583 0.52734 0.0
C247 C 0.46384 0.76043 0.44216 0.0
O248 O 0.39405 0.91996 0.16136 0.0
O249 O 0.37566 0.96548 1.0084 0.0
C250 C 0.46269 0.95811 0.49403 0.0
C251 C 0.37589 0.96835 0.11039 0.0
Zn252 Zn 0.13337 0.30568 0.81784 0.0
Zn253 Zn 0.10211 0.33449 0.22822 0.0
Zn254 Zn 0.12281 0.30297 0.45415 0.0
C255 C 0.01043 0.25245 0.32695 0.0
C256 C 0.10359 0.43869 0.35805 0.0
O257 O 0.16995 0.32224 0.60775 0.0
O258 O 0.21547 0.34062 0.76071 0.0
C259 C 0.12206 0.21432 0.6629 0.0
O260 O 0.04171 0.25739 0.41255 0.0
O261 O 0.02582 0.28031 0.24177 0.0
O262 O 0.09677 0.42847 0.25882 0.0
O263 O 0.11288 0.39443 0.42122 0.0
O264 O 0.1228 0.21513 0.76475 0.0
O265 O 0.12945 0.2658 0.61459 0.0
O266 O 0.1025 0.32874 0.61801 0.0
O267 O 0.05788 0.35665 0.76724 0.0
C268 C 0.05686 0.3546 0.66549 0.0
O269 O 0.19167 0.25593 0.37287 0.0
O270 O 0.18145 0.28561 0.20392 0.0
C271 C 0.21835 0.34039 0.65872 0.0
C272 C 0.2081 0.25359 0.27508 0.0
Zn273 Zn 0.91061 0.88337 0.56784 0.0
Zn274 Zn 0.88179 0.85212 0.97821 0.0
Zn275 Zn 0.91332 0.87282 0.20415 0.0
C276 C 0.96384 0.76043 0.07695 0.0
C277 C 0.77759 0.85359 0.10805 0.0
O278 O 0.89405 0.91995 0.35775 0.0
O279 O 0.87567 0.96548 0.51071 0.0
C280 C 0.00196 0.87206 0.41289 0.0
O281 O 0.95889 0.79172 0.16255 0.0
O282 O 0.93597 0.77583 0.99177 0.0
O283 O 0.78782 0.84677 1.00882 0.0
O284 O 0.82185 0.86288 0.17122 0.0
O285 O 0.00115 0.8728 0.51475 0.0
O286 O 0.95049 0.87945 0.36459 0.0
O287 O 0.88754 0.85251 0.36801 0.0
O288 O 0.85964 0.80789 0.51724 0.0
C289 C 0.86168 0.80687 0.41549 0.0
O290 O 0.96035 0.94168 0.12287 0.0
O291 O 0.93067 0.93146 0.95392 0.0
C292 C 0.8759 0.96835 0.40872 0.0
C293 C 0.96269 0.95811 0.02508 0.0
Zn294 Zn 0.33291 0.6606 0.31784 0.0
Zn295 Zn 0.36416 0.63179 0.72822 0.0
Zn296 Zn 0.34347 0.66331 0.95415 0.0
C297 C 0.45585 0.71383 0.82695 0.0
C298 C 0.36269 0.52759 0.85805 0.0
O299 O 0.29633 0.64404 0.10775 0.0
O300 O 0.2508 0.62566 0.26071 0.0
C301 C 0.34422 0.75196 0.1629 0.0
O302 O 0.42457 0.70889 0.91255 0.0
O303 O 0.44046 0.68597 0.74177 0.0
O304 O 0.36951 0.53781 0.75882 0.0
O305 O 0.3534 0.57185 0.92122 0.0
O306 O 0.34348 0.75115 0.26475 0.0
O307 O 0.33683 0.70048 0.11459 0.0
O308 O 0.36378 0.63754 0.11801 0.0
O309 O 0.40839 0.60963 0.26724 0.0
C310 C 0.40942 0.61168 0.16549 0.0
O311 O 0.27461 0.71035 0.87287 0.0
O312 O 0.28482 0.68067 0.70392 0.0
C313 C 0.24793 0.62589 0.15872 0.0
C314 C 0.25818 0.71269 0.77508 0.0
Zn315 Zn 0.55567 0.08291 0.06784 0.0
Zn316 Zn 0.58448 0.11416 0.47821 0.0
Zn317 Zn 0.55296 0.09346 0.70415 0.0
C318 C 0.50244 0.20585 0.57695 0.0
C319 C 0.68869 0.11269 0.60805 0.0
O320 O 0.57223 0.04633 0.85775 0.0
O321 O 0.59061 0.0008 0.01071 0.0
C322 C 0.46432 0.09422 0.91289 0.0
O323 O 0.50739 0.17456 0.66255 0.0
O324 O 0.5303 0.19045 0.49177 0.0
O325 O 0.67846 0.11951 0.50882 0.0
O326 O 0.64443 0.1034 0.67122 0.0
O327 O 0.46512 0.09348 0.01475 0.0
O328 O 0.51579 0.08683 0.86459 0.0
O329 O 0.57874 0.11377 0.86801 0.0
O330 O 0.60664 0.15839 0.01724 0.0
C331 C 0.6046 0.15941 0.91549 0.0
O332 O 0.50593 0.0246 0.62287 0.0
O333 O 0.53561 0.03482 0.45392 0.0
C334 C 0.59038 -0.00207 0.90872 0.0
C335 C 0.50359 0.00817 0.52508 0.0
loop_
_geom_bond_atom_site_label_1
_geom_bond_atom_site_label_2
_geom_bond_distance
_geom_bond_site_symmetry_2
_ccdc_geom_bond_type
Zn0 O6 1.920 . S
Zn0 O12 1.898 . S
Zn0 O15 1.905 . S
Zn1 O9 1.905 . S
Zn1 O10 1.898 . S
Zn1 O18 1.920 . S
Zn2 O5 2.080 . S
Zn2 O8 2.114 1_554 S
Zn2 O11 2.120 1_554 S
Zn2 O13 2.120 . S
Zn2 O14 2.114 . S
Zn2 O17 2.080 1_554 S
C3 O8 1.166 . S
C3 O9 1.182 . S
C4 O10 1.167 . S
C4 O11 1.299 . S
O5 Zn2 2.080 . S
O5 C19 1.305 . S
O6 Zn0 1.920 . S
O6 C19 1.234 . S
C7 O12 1.167 . S
C7 O13 1.299 . S
O8 Zn2 2.114 1_556 S
O8 C3 1.166 . S
O9 Zn1 1.905 . S
O9 C3 1.182 . S
O10 Zn1 1.898 . S
O10 C4 1.167 . S
O11 Zn2 2.120 1_556 S
O11 C4 1.299 . S
O12 Zn0 1.898 . S
O12 C7 1.167 . S
O13 Zn2 2.120 . S
O13 C7 1.299 . S
O14 Zn2 2.114 . S
O14 C16 1.166 . S
O15 Zn0 1.905 . S
O15 C16 1.182 . S
C16 O14 1.166 . S
C16 O15 1.182 . S
O17 Zn2 2.080 1_556 S
O17 C20 1.305 . S
O18 Zn1 1.920 . S
O18 C20 1.234 . S
C19 O5 1.305 . S
C19 O6 1.234 . S
C20 O17 1.305 . S
C20 O18 1.234 . S
Zn21 O27 1.920 . S
Zn21 O33 1.898 . S
Zn21 O36 1.905 . S
Zn22 O30 1.905 . S
Zn22 O31 1.898 . S
Zn22 O39 1.920 . S
Zn23 O26 2.080 . S
Zn23 O29 2.114 . S
Zn23 O32 2.120 . S
Zn23 O34 2.120 . S
Zn23 O35 2.114 . S
Zn23 O38 2.080 . S
C24 O29 1.166 . S
C24 O30 1.182 . S
C25 O31 1.167 . S
C25 O32 1.299 . S
O26 Zn23 2.080 . S
O26 C40 1.305 . S
O27 Zn21 1.920 . S
O27 C40 1.234 . S
C28 O33 1.167 . S
C28 O34 1.299 . S
O29 Zn23 2.114 . S
O29 C24 1.166 . S
O30 Zn22 1.905 . S
O30 C24 1.182 . S
O31 Zn22 1.898 . S
O31 C25 1.167 . S
O32 Zn23 2.120 . S
O32 C25 1.299 . S
O33 Zn21 1.898 . S
O33 C28 1.167 . S
O34 Zn23 2.120 . S
O34 C28 1.299 . S
O35 Zn23 2.114 . S
O35 C37 1.166 . S
O36 Zn21 1.905 . S
O36 C37 1.182 . S
C37 O35 1.166 . S
C37 O36 1.182 . S
O38 Zn23 2.080 . S
O38 C41 1.305 . S
O39 Zn22 1.920 . S
O39 C41 1.234 . S
C40 O26 1.305 . S
C40 O27 1.234 . S
C41 O38 1.305 . S
C41 O39 1.234 . S
Zn42 O48 1.920 . S
Zn42 O54 1.898 . S
Zn42 O57 1.905 . S
Zn43 O51 1.905 . S
Zn43 O52 1.898 . S
Zn43 O60 1.920 . S
Zn44 O47 2.080 . S
Zn44 O50 2.114 . S
Zn44 O53 2.120 . S
Zn44 O55 2.120 . S
Zn44 O56 2.114 . S
Zn44 O59 2.080 . S
C45 O50 1.166 . S
C45 O51 1.182 . S
C46 O52 1.167 . S
C46 O53 1.299 . S
O47 Zn44 2.080 . S
O47 C61 1.305 . S
O48 Zn42 1.920 . S
O48 C61 1.234 . S
C49 O54 1.167 . S
C49 O55 1.299 . S
O50 Zn44 2.114 . S
O50 C45 1.166 . S
O51 Zn43 1.905 . S
O51 C45 1.182 . S
O52 Zn43 1.898 . S
O52 C46 1.167 . S
O53 Zn44 2.120 . S
O53 C46 1.299 . S
O54 Zn42 1.898 . S
O54 C49 1.167 . S
O55 Zn44 2.120 . S
O55 C49 1.299 . S
O56 Zn44 2.114 . S
O56 C58 1.166 . S
O57 Zn42 1.905 . S
O57 C58 1.182 . S
C58 O56 1.166 . S
C58 O57 1.182 . S
O59 Zn44 2.080 . S
O59 C62 1.305 . S
O60 Zn43 1.920 . S
O60 C62 1.234 . S
C61 O47 1.305 . S
C61 O48 1.234 . S
C62 O59 1.305 . S
C62 O60 1.234 . S
Zn63 O69 1.920 . S
Zn63 O75 1.898 . S
Zn63 O78 1.905 1_655 S
Zn64 O72 1.905 . S
Zn64 O73 1.898 1_655 S
Zn64 O81 1.920 . S
Zn65 O68 2.080 . S
Zn65 O71 2.114 . S
Zn65 O74 2.120 1_655 S
Zn65 O76 2.120 . S
Zn65 O77 2.114 . S
Zn65 O80 2.080 . S
C66 O71 1.166 . S
C66 O72 1.182 . S
C67 O73 1.167 . S
C67 O74 1.299 . S
O68 Zn65 2.080 . S
O68 C82 1.305 1_556 S
O69 Zn63 1.920 . S
O69 C82 1.234 . S
C70 O75 1.167 1_556 S
C70 O76 1.299 . S
O71 Zn65 2.114 . S
O71 C66 1.166 . S
O72 Zn64 1.905 . S
O72 C66 1.182 . S
O73 Zn64 1.898 1_455 S
O73 C67 1.167 . S
O74 Zn65 2.120 1_455 S
O74 C67 1.299 . S
O75 Zn63 1.898 . S
O75 C70 1.167 1_554 S
O76 Zn65 2.120 . S
O76 C70 1.299 . S
O77 Zn65 2.114 . S
O77 C79 1.166 1_655 S
O78 Zn63 1.905 1_455 S
O78 C79 1.182 1_554 S
C79 O77 1.166 1_455 S
C79 O78 1.182 1_556 S
O80 Zn65 2.080 . S
O80 C83 1.305 . S
O81 Zn64 1.920 . S
O81 C83 1.234 . S
C82 O68 1.305 1_554 S
C82 O69 1.234 . S
C83 O80 1.305 . S
C83 O81 1.234 . S
Zn84 O90 1.920 . S
Zn84 O96 1.898 . S
Zn84 O99 1.905 . S
Zn85 O93 1.905 . S
Zn85 O94 1.898 . S
Zn85 O102 1.920 . S
Zn86 O89 2.080 1_556 S
Zn86 O92 2.114 . S
Zn86 O95 2.120 . S
Zn86 O97 2.120 1_556 S
Zn86 O98 2.114 1_556 S
Zn86 O101 2.080 . S
C87 O92 1.166 . S
C87 O93 1.182 . S
C88 O94 1.167 . S
C88 O95 1.299 . S
O89 Zn86 2.080 1_554 S
O89 C103 1.305 . S
O90 Zn84 1.920 . S
O90 C103 1.234 . S
C91 O96 1.167 . S
C91 O97 1.299 . S
O92 Zn86 2.114 . S
O92 C87 1.166 . S
O93 Zn85 1.905 . S
O93 C87 1.182 . S
O94 Zn85 1.898 . S
O94 C88 1.167 . S
O95 Zn86 2.120 . S
O95 C88 1.299 . S
O96 Zn84 1.898 . S
O96 C91 1.167 . S
O97 Zn86 2.120 1_554 S
O97 C91 1.299 . S
O98 Zn86 2.114 1_554 S
O98 C100 1.166 . S
O99 Zn84 1.905 . S
O99 C100 1.182 . S
C100 O98 1.166 . S
C100 O99 1.182 . S
O101 Zn86 2.080 . S
O101 C104 1.305 . S
O102 Zn85 1.920 . S
O102 C104 1.234 . S
C103 O89 1.305 . S
C103 O90 1.234 . S
C104 O101 1.305 . S
C104 O102 1.234 . S
Zn105 O111 1.920 . S
Zn105 O117 1.898 . S
Zn105 O120 1.905 . S
Zn106 O114 1.905 . S
Zn106 O115 1.898 . S
Zn106 O123 1.920 . S
Zn107 O110 2.080 . S
Zn107 O113 2.114 . S
Zn107 O116 2.120 . S
Zn107 O118 2.120 . S
Zn107 O119 2.114 . S
Zn107 O122 2.080 . S
C108 O113 1.166 . S
C108 O114 1.182 . S
C109 O115 1.167 . S
C109 O116 1.299 . S
O110 Zn107 2.080 . S
O110 C124 1.305 . S
O111 Zn105 1.920 . S
O111 C124 1.234 . S
C112 O117 1.167 . S
C112 O118 1.299 . S
O113 Zn107 2.114 . S
O113 C108 1.166 . S
O114 Zn106 1.905 . S
O114 C108 1.182 . S
O115 Zn106 1.898 . S
O115 C109 1.167 . S
O116 Zn107 2.120 . S
O116 C109 1.299 . S
O117 Zn105 1.898 . S
O117 C112 1.167 . S
O118 Zn107 2.120 . S
O118 C112 1.299 . S
O119 Zn107 2.114 . S
O119 C121 1.166 . S
O120 Zn105 1.905 . S
O120 C121 1.182 . S
C121 O119 1.166 . S
C121 O120 1.182 . S
O122 Zn107 2.080 . S
O122 C125 1.305 . S
O123 Zn106 1.920 . S
O123 C125 1.234 . S
C124 O110 1.305 . S
C124 O111 1.234 . S
C125 O122 1.305 . S
C125 O123 1.234 . S
Zn126 O132 1.920 . S
Zn126 O138 1.898 . S
Zn126 O141 1.905 . S
Zn127 O135 1.905 . S
Zn127 O136 1.898 . S
Zn127 O144 1.920 . S
Zn128 O131 2.080 . S
Zn128 O134 2.114 . S
Zn128 O137 2.120 . S
Zn128 O139 2.120 . S
Zn128 O140 2.114 . S
Zn128 O143 2.080 . S
C129 O134 1.166 . S
C129 O135 1.182 . S
C130 O136 1.167 . S
C130 O137 1.299 . S
O131 Zn128 2.080 . S
O131 C145 1.305 . S
O132 Zn126 1.920 . S
O132 C145 1.234 . S
C133 O138 1.167 . S
C133 O139 1.299 . S
O134 Zn128 2.114 . S
O134 C129 1.166 . S
O135 Zn127 1.905 . S
O135 C129 1.182 . S
O136 Zn127 1.898 . S
O136 C130 1.167 . S
O137 Zn128 2.120 . S
O137 C130 1.299 . S
O138 Zn126 1.898 . S
O138 C133 1.167 . S
O139 Zn128 2.120 . S
O139 C133 1.299 . S
O140 Zn128 2.114 . S
O140 C142 1.166 . S
O141 Zn126 1.905 . S
O141 C142 1.182 . S
C142 O140 1.166 . S
C142 O141 1.182 . S
O143 Zn128 2.080 . S
O143 C146 1.305 . S
O144 Zn127 1.920 . S
O144 C146 1.234 . S
C145 O131 1.305 . S
C145 O132 1.234 . S
C146 O143 1.305 . S
C146 O144 1.234 . S
Zn147 O153 1.920 . S
Zn147 O159 1.898 . S
Zn147 O162 1.905 1_455 S
Zn148 O156 1.905 . S
Zn148 O157 1.898 1_455 S
Zn148 O165 1.920 . S
Zn149 O152 2.080 . S
Zn149 O155 2.114 . S
Zn149 O158 2.120 1_455 S
Zn149 O160 2.120 . S
Zn149 O161 2.114 . S
Zn149 O164 2.080 . S
C150 O155 1.166 . S
C150 O156 1.182 . S
C151 O157 1.167 . S
C151 O158 1.299 . S
O152 Zn149 2.080 . S
O152 C166 1.305 1_554 S
O153 Zn147 1.920 . S
O153 C166 1.234 . S
C154 O159 1.167 1_554 S
C154 O160 1.299 . S
O155 Zn149 2.114 . S
O155 C150 1.166 . S
O156 Zn148 1.905 . S
O156 C150 1.182 . S
O157 Zn148 1.898 1_655 S
O157 C151 1.167 . S
O158 Zn149 2.120 1_655 S
O158 C151 1.299 . S
O159 Zn147 1.898 . S
O159 C154 1.167 1_556 S
O160 Zn149 2.120 . S
O160 C154 1.299 . S
O161 Zn149 2.114 . S
O161 C163 1.166 1_455 S
O162 Zn147 1.905 1_655 S
O162 C163 1.182 1_556 S
C163 O161 1.166 1_655 S
C163 O162 1.182 1_554 S
O164 Zn149 2.080 . S
O164 C167 1.305 . S
O165 Zn148 1.920 . S
O165 C167 1.234 . S
C166 O152 1.305 1_556 S
C166 O153 1.234 . S
C167 O164 1.305 . S
C167 O165 1.234 . S
Zn168 O174 1.920 . S
Zn168 O180 1.898 . S
Zn168 O183 1.905 . S
Zn169 O177 1.905 . S
Zn169 O178 1.898 . S
Zn169 O186 1.920 . S
Zn170 O173 2.080 . S
Zn170 O176 2.114 . S
Zn170 O179 2.120 . S
Zn170 O181 2.120 . S
Zn170 O182 2.114 . S
Zn170 O185 2.080 . S
C171 O176 1.166 . S
C171 O177 1.182 . S
C172 O178 1.167 . S
C172 O179 1.299 . S
O173 Zn170 2.080 . S
O173 C187 1.305 . S
O174 Zn168 1.920 . S
O174 C187 1.234 . S
C175 O180 1.167 . S
C175 O181 1.299 . S
O176 Zn170 2.114 . S
O176 C171 1.166 . S
O177 Zn169 1.905 . S
O177 C171 1.182 . S
O178 Zn169 1.898 . S
O178 C172 1.167 . S
O179 Zn170 2.120 . S
O179 C172 1.299 . S
O180 Zn168 1.898 . S
O180 C175 1.167 . S
O181 Zn170 2.120 . S
O181 C175 1.299 . S
O182 Zn170 2.114 . S
O182 C184 1.166 . S
O183 Zn168 1.905 . S
O183 C184 1.182 . S
C184 O182 1.166 . S
C184 O183 1.182 . S
O185 Zn170 2.080 . S
O185 C188 1.305 . S
O186 Zn169 1.920 . S
O186 C188 1.234 . S
C187 O173 1.305 . S
C187 O174 1.234 . S
C188 O185 1.305 . S
C188 O186 1.234 . S
Zn189 O195 1.920 1_545 S
Zn189 O201 1.898 1_455 S
Zn189 O204 1.905 . S
Zn190 O198 1.905 1_455 S
Zn190 O199 1.898 . S
Zn190 O207 1.920 . S
Zn191 O194 2.080 . S
Zn191 O197 2.114 . S
Zn191 O200 2.120 . S
Zn191 O202 2.120 1_455 S
Zn191 O203 2.114 . S
Zn191 O206 2.080 . S
C192 O197 1.166 1_655 S
C192 O198 1.182 1_556 S
C193 O199 1.167 1_556 S
C193 O200 1.299 . S
O194 Zn191 2.080 . S
O194 C208 1.305 1_545 S
O195 Zn189 1.920 1_565 S
O195 C208 1.234 . S
C196 O201 1.167 . S
C196 O202 1.299 . S
O197 Zn191 2.114 . S
O197 C192 1.166 1_455 S
O198 Zn190 1.905 1_655 S
O198 C192 1.182 1_554 S
O199 Zn190 1.898 . S
O199 C193 1.167 1_554 S
O200 Zn191 2.120 . S
O200 C193 1.299 . S
O201 Zn189 1.898 1_655 S
O201 C196 1.167 . S
O202 Zn191 2.120 1_655 S
O202 C196 1.299 . S
O203 Zn191 2.114 . S
O203 C205 1.166 . S
O204 Zn189 1.905 . S
O204 C205 1.182 . S
C205 O203 1.166 . S
C205 O204 1.182 . S
O206 Zn191 2.080 . S
O206 C209 1.305 1_556 S
O207 Zn190 1.920 . S
O207 C209 1.234 . S
C208 O194 1.305 1_565 S
C208 O195 1.234 . S
C209 O206 1.305 1_554 S
C209 O207 1.234 . S
Zn210 O216 1.920 . S
Zn210 O222 1.898 . S
Zn210 O225 1.905 . S
Zn211 O219 1.905 . S
Zn211 O220 1.898 . S
Zn211 O228 1.920 . S
Zn212 O215 2.080 1_554 S
Zn212 O218 2.114 . S
Zn212 O221 2.120 . S
Zn212 O223 2.120 1_554 S
Zn212 O224 2.114 1_554 S
Zn212 O227 2.080 . S
C213 O218 1.166 . S
C213 O219 1.182 . S
C214 O220 1.167 . S
C214 O221 1.299 . S
O215 Zn212 2.080 1_556 S
O215 C229 1.305 . S
O216 Zn210 1.920 . S
O216 C229 1.234 . S
C217 O222 1.167 . S
C217 O223 1.299 . S
O218 Zn212 2.114 . S
O218 C213 1.166 . S
O219 Zn211 1.905 . S
O219 C213 1.182 . S
O220 Zn211 1.898 . S
O220 C214 1.167 . S
O221 Zn212 2.120 . S
O221 C214 1.299 . S
O222 Zn210 1.898 . S
O222 C217 1.167 . S
O223 Zn212 2.120 1_556 S
O223 C217 1.299 . S
O224 Zn212 2.114 1_556 S
O224 C226 1.166 . S
O225 Zn210 1.905 . S
O225 C226 1.182 . S
C226 O224 1.166 . S
C226 O225 1.182 . S
O227 Zn212 2.080 . S
O227 C230 1.305 . S
O228 Zn211 1.920 . S
O228 C230 1.234 . S
C229 O215 1.305 . S
C229 O216 1.234 . S
C230 O227 1.305 . S
C230 O228 1.234 . S
Zn231 O237 1.920 . S
Zn231 O243 1.898 . S
Zn231 O246 1.905 . S
Zn232 O240 1.905 . S
Zn232 O241 1.898 . S
Zn232 O249 1.920 1_565 S
Zn233 O236 2.080 . S
Zn233 O239 2.114 . S
Zn233 O242 2.120 . S
Zn233 O244 2.120 . S
Zn233 O245 2.114 . S
Zn233 O248 2.080 . S
C234 O239 1.166 . S
C234 O240 1.182 . S
C235 O241 1.167 . S
C235 O242 1.299 . S
O236 Zn233 2.080 . S
O236 C250 1.305 . S
O237 Zn231 1.920 . S
O237 C250 1.234 . S
C238 O243 1.167 . S
C238 O244 1.299 . S
O239 Zn233 2.114 . S
O239 C234 1.166 . S
O240 Zn232 1.905 . S
O240 C234 1.182 . S
O241 Zn232 1.898 . S
O241 C235 1.167 . S
O242 Zn233 2.120 . S
O242 C235 1.299 . S
O243 Zn231 1.898 . S
O243 C238 1.167 . S
O244 Zn233 2.120 . S
O244 C238 1.299 . S
O245 Zn233 2.114 . S
O245 C247 1.166 . S
O246 Zn231 1.905 . S
O246 C247 1.182 . S
C247 O245 1.166 . S
C247 O246 1.182 . S
O248 Zn233 2.080 . S
O248 C251 1.305 1_565 S
O249 Zn232 1.920 1_545 S
O249 C251 1.234 . S
C250 O236 1.305 . S
C250 O237 1.234 . S
C251 O248 1.305 1_545 S
C251 O249 1.234 . S
Zn252 O258 1.920 . S
Zn252 O264 1.898 . S
Zn252 O267 1.905 . S
Zn253 O261 1.905 . S
Zn253 O262 1.898 . S
Zn253 O270 1.920 . S
Zn254 O257 2.080 . S
Zn254 O260 2.114 . S
Zn254 O263 2.120 . S
Zn254 O265 2.120 . S
Zn254 O266 2.114 . S
Zn254 O269 2.080 . S
C255 O260 1.166 . S
C255 O261 1.182 . S
C256 O262 1.167 . S
C256 O263 1.299 . S
O257 Zn254 2.080 . S
O257 C271 1.305 . S
O258 Zn252 1.920 . S
O258 C271 1.234 . S
C259 O264 1.167 . S
C259 O265 1.299 . S
O260 Zn254 2.114 . S
O260 C255 1.166 . S
O261 Zn253 1.905 . S
O261 C255 1.182 . S
O262 Zn253 1.898 . S
O262 C256 1.167 . S
O263 Zn254 2.120 . S
O263 C256 1.299 . S
O264 Zn252 1.898 . S
O264 C259 1.167 . S
O265 Zn254 2.120 . S
O265 C259 1.299 . S
O266 Zn254 2.114 . S
O266 C268 1.166 . S
O267 Zn252 1.905 . S
O267 C268 1.182 . S
C268 O266 1.166 . S
C268 O267 1.182 . S
O269 Zn254 2.080 . S
O269 C272 1.305 . S
O270 Zn253 1.920 . S
O270 C272 1.234 . S
C271 O257 1.305 . S
C271 O258 1.234 . S
C272 O269 1.305 . S
C272 O270 1.234 . S
Zn273 O279 1.920 1_565 S
Zn273 O285 1.898 1_655 S
Zn273 O288 1.905 . S
Zn274 O282 1.905 1_655 S
Zn274 O283 1.898 . S
Zn274 O291 1.920 . S
Zn275 O278 2.080 . S
Zn275 O281 2.114 . S
Zn275 O284 2.120 . S
Zn275 O286 2.120 1_655 S
Zn275 O287 2.114 . S
Zn275 O290 2.080 . S
C276 O281 1.166 1_455 S
C276 O282 1.182 1_554 S
C277 O283 1.167 1_554 S
C277 O284 1.299 . S
O278 Zn275 2.080 . S
O278 C292 1.305 1_565 S
O279 Zn273 1.920 1_545 S
O279 C292 1.234 . S
C280 O285 1.167 . S
C280 O286 1.299 . S
O281 Zn275 2.114 . S
O281 C276 1.166 1_655 S
O282 Zn274 1.905 1_455 S
O282 C276 1.182 1_556 S
O283 Zn274 1.898 . S
O283 C277 1.167 1_556 S
O284 Zn275 2.120 . S
O284 C277 1.299 . S
O285 Zn273 1.898 1_455 S
O285 C280 1.167 . S
O286 Zn275 2.120 1_455 S
O286 C280 1.299 . S
O287 Zn275 2.114 . S
O287 C289 1.166 . S
O288 Zn273 1.905 . S
O288 C289 1.182 . S
C289 O287 1.166 . S
C289 O288 1.182 . S
O290 Zn275 2.080 . S
O290 C293 1.305 1_554 S
O291 Zn274 1.920 . S
O291 C293 1.234 . S
C292 O278 1.305 1_545 S
C292 O279 1.234 . S
C293 O290 1.305 1_556 S
C293 O291 1.234 . S
Zn294 O300 1.920 . S
Zn294 O306 1.898 . S
Zn294 O309 1.905 . S
Zn295 O303 1.905 . S
Zn295 O304 1.898 . S
Zn295 O312 1.920 . S
Zn296 O299 2.080 1_556 S
Zn296 O302 2.114 . S
Zn296 O305 2.120 . S
Zn296 O307 2.120 1_556 S
Zn296 O308 2.114 1_556 S
Zn296 O311 2.080 . S
C297 O302 1.166 . S
C297 O303 1.182 . S
C298 O304 1.167 . S
C298 O305 1.299 . S
O299 Zn296 2.080 1_554 S
O299 C313 1.305 . S
O300 Zn294 1.920 . S
O300 C313 1.234 . S
C301 O306 1.167 . S
C301 O307 1.299 . S
O302 Zn296 2.114 . S
O302 C297 1.166 . S
O303 Zn295 1.905 . S
O303 C297 1.182 . S
O304 Zn295 1.898 . S
O304 C298 1.167 . S
O305 Zn296 2.120 . S
O305 C298 1.299 . S
O306 Zn294 1.898 . S
O306 C301 1.167 . S
O307 Zn296 2.120 1_554 S
O307 C301 1.299 . S
O308 Zn296 2.114 1_554 S
O308 C310 1.166 . S
O309 Zn294 1.905 . S
O309 C310 1.182 . S
C310 O308 1.166 . S
C310 O309 1.182 . S
O311 Zn296 2.080 . S
O311 C314 1.305 . S
O312 Zn295 1.920 . S
O312 C314 1.234 . S
C313 O299 1.305 . S
C313 O300 1.234 . S
C314 O311 1.305 . S
C314 O312 1.234 . S
Zn315 O321 1.920 1_545 S
Zn315 O327 1.898 . S
Zn315 O330 1.905 . S
Zn316 O324 1.905 . S
Zn316 O325 1.898 . S
Zn316 O333 1.920 . S
Zn317 O320 2.080 . S
Zn317 O323 2.114 . S
Zn317 O326 2.120 . S
Zn317 O328 2.120 . S
Zn317 O329 2.114 . S
Zn317 O332 2.080 . S
C318 O323 1.166 . S
C318 O324 1.182 . S
C319 O325 1.167 . S
C319 O326 1.299 . S
O320 Zn317 2.080 . S
O320 C334 1.305 1_545 S
O321 Zn315 1.920 1_565 S
O321 C334 1.234 . S
C322 O327 1.167 . S
C322 O328 1.299 . S
O323 Zn317 2.114 . S
O323 C318 1.166 . S
O324 Zn316 1.905 . S
O324 C318 1.182 . S
O325 Zn316 1.898 . S
O325 C319 1.167 . S
O326 Zn317 2.120 . S
O326 C319 1.299 . S
O327 Zn315 1.898 . S
O327 C322 1.167 . S
O328 Zn317 2.120 . S
O328 C322 1.299 . S
O329 Zn317 2.114 . S
O329 C331 1.166 . S
O330 Zn315 1.905 . S
O330 C331 1.182 . S
C331 O329 1.166 . S
C331 O330 1.182 . S
O332 Zn317 2.080 . S
O332 C335 1.305 . S
O333 Zn316 1.920 . S
O333 C335 1.234 . S
C334 O320 1.305 1_565 S
C334 O321 1.234 . S
C335 O332 1.305 . S
C335 O333 1.234 . S
C16 C213 1.646 . S
C37 C247 1.646 . S
C45 C184 1.646 1_455 S
C79 C192 1.646 1_455 S
C87 C297 1.646 . S
C108 C318 1.646 . S
C129 C255 1.646 1_655 S
C163 C276 1.646 1_655 S
C193 C20 1.430 . S
C214 C41 1.430 . S
C238 C61 1.430 . S
C175 C83 1.430 . S
C103 C277 1.430 . S
C298 C124 1.430 . S
C319 C145 1.430 . S
C256 C167 1.430 . S
C28 C188 1.430 . S
C208 C46 1.430 . S
C229 C70 1.430 . S
C251 C7 1.430 . S
C271 C109 1.430 . S
C130 C292 1.430 . S
C154 C313 1.430 . S
C334 C88 1.430 . S
C3 C322 1.138 . S
C24 C91 1.138 . S
C280 C58 1.138 . S
C133 C66 1.138 . S
C100 C235 1.138 . S
C121 C4 1.138 . S
C196 C142 1.138 . S
C49 C150 1.138 . S
C171 C151 1.138 . S
C205 C259 1.138 . S
C112 C226 1.138 . S
C301 C234 1.138 . S
C268 C67 1.138 . S
C289 C172 1.138 . S
C310 C25 1.138 . S
C217 C331 1.138 . S
C19 C272 1.599 . S
C40 C125 1.598 . S
C62 C314 1.599 . S
C166 C82 1.598 1_456 S
C104 C187 1.599 . S
C230 C146 1.599 . S
C209 C293 1.598 1_444 S
C335 C250 1.598 1_545 S
