# Generated by pormake.
# Topology qtz-e, (6)-cn, num edge types: 1
# Building blocks:
#     Node 0, Type 0, BuildingBlock: KUMBUR_clean_sbu_1, # of connection points: 6
#     Node 1, Type 0, BuildingBlock: KUMBUR_clean_sbu_1, # of connection points: 6
#     Node 2, Type 0, BuildingBlock: KUMBUR_clean_sbu_1, # of connection points: 6
#     Node 3, Type 0, BuildingBlock: KUMBUR_clean_sbu_1, # of connection points: 6
#     Node 4, Type 0, BuildingBlock: KUMBUR_clean_sbu_1, # of connection points: 6
#     Node 5, Type 0, BuildingBlock: KUMBUR_clean_sbu_1, # of connection points: 6
#     Edge 6, Type (0, 0), BuildingBlock: EZIPEK_clean_linker_0, # of connection points: 2
#     Edge 7, Type (0, 0), BuildingBlock: EZIPEK_clean_linker_0, # of connection points: 2
#     Edge 8, Type (0, 0), BuildingBlock: EZIPEK_clean_linker_0, # of connection points: 2
#     Edge 9, Type (0, 0), BuildingBlock: EZIPEK_clean_linker_0, # of connection points: 2
#     Edge 10, Type (0, 0), BuildingBlock: EZIPEK_clean_linker_0, # of connection points: 2
#     Edge 11, Type (0, 0), BuildingBlock: EZIPEK_clean_linker_0, # of connection points: 2
#     Edge 12, Type (0, 0), BuildingBlock: EZIPEK_clean_linker_0, # of connection points: 2
#     Edge 13, Type (0, 0), BuildingBlock: EZIPEK_clean_linker_0, # of connection points: 2
#     Edge 14, Type (0, 0), BuildingBlock: EZIPEK_clean_linker_0, # of connection points: 2
#     Edge 15, Type (0, 0), BuildingBlock: EZIPEK_clean_linker_0, # of connection points: 2
#     Edge 16, Type (0, 0), BuildingBlock: EZIPEK_clean_linker_0, # of connection points: 2
#     Edge 17, Type (0, 0), BuildingBlock: EZIPEK_clean_linker_0, # of connection points: 2
#     Edge 18, Type (0, 0), BuildingBlock: EZIPEK_clean_linker_0, # of connection points: 2
#     Edge 19, Type (0, 0), BuildingBlock: EZIPEK_clean_linker_0, # of connection points: 2
#     Edge 20, Type (0, 0), BuildingBlock: EZIPEK_clean_linker_0, # of connection points: 2
#     Edge 21, Type (0, 0), BuildingBlock: EZIPEK_clean_linker_0, # of connection points: 2
#     Edge 22, Type (0, 0), BuildingBlock: EZIPEK_clean_linker_0, # of connection points: 2
#     Edge 23, Type (0, 0), BuildingBlock: EZIPEK_clean_linker_0, # of connection points: 2
# Relax obj value: 0.152
# Max RMSD: 0.218
# Mean RMSD: 0.217
data_MOF--net-qtz-e--node1-KUMBUR_clean_sbu_1--edge1-EZIPEK_clean_linker_0
_symmetry_space_group_name_H-M    P1
_symmetry_Int_Tables_number       1
_symmetry_cell_setting            triclinic
loop_
_symmetry_equiv_pos_as_xyz
'x, y, z'
_cell_length_a     20.88332
_cell_length_b     21.013347
_cell_length_c     39.840481
_cell_angle_alpha  89.899352
_cell_angle_beta   90.014928
_cell_angle_gamma 119.87163
loop_
_atom_site_label
_atom_site_type_symbol
_atom_site_fract_x
_atom_site_fract_y
_atom_site_fract_z
_atom_type_partial_charge
Tb0 Tb 0.17588 0.33401 -0.00499 0.0
C1 C 0.40013 0.6914 0.02238 0.0
N2 N 0.39349 0.63503 0.04144 0.0
C3 C 0.52474 0.69896 0.0502 0.0
C4 C 0.46977 0.75289 0.01538 0.0
C5 C 0.45438 0.63895 0.05615 0.0
C6 C 0.53266 0.75564 0.02922 0.0
C7 C 0.33991 0.74834 0.99348 0.0
C8 C 0.3363 0.6888 0.01152 0.0
C9 C 0.40913 0.80807 0.98473 0.0
C10 C 0.47402 0.81039 -0.00428 0.0
Tb11 Tb 0.27737 0.53555 0.04673 0.0
N12 N 0.27072 0.63055 0.02104 0.0
C13 C 0.27405 0.74758 0.98624 0.0
C14 C 0.20739 0.63396 0.01728 0.0
C15 C 0.20767 0.69103 -0.00104 0.0
H16 H 0.44878 0.59657 0.07301 0.0
H17 H 0.15682 0.69197 -0.0048 0.0
H18 H 0.01286 0.30787 0.96862 0.0
H19 H 0.24718 0.15861 0.06724 0.0
H20 H 0.15654 0.59403 0.02882 0.0
H21 H 0.27428 0.79217 0.97243 0.0
H22 H 0.27282 0.26219 0.03092 0.0
H23 H 0.5728 0.7019 0.06198 0.0
H24 H 0.41304 0.8539 0.97053 0.0
H25 H 0.52702 0.85777 0.98975 0.0
H26 H 0.88184 0.22207 0.98014 0.0
H27 H 0.58718 0.80212 0.0247 0.0
H28 H 0.11917 0.07126 0.08461 0.0
N29 N 0.0521 0.2531 0.00064 0.0
C30 C 0.03313 0.19389 0.02059 0.0
C31 C 0.92386 0.21375 0.99188 0.0
C32 C 0.95859 0.14357 0.02799 0.0
C33 C 0.99859 0.26275 0.98565 0.0
C34 C 0.90373 0.15426 0.0134 0.0
N35 N 0.16028 0.23623 0.02719 0.0
C36 C 0.21648 0.22543 0.03779 0.0
C37 C 0.07203 0.12524 0.05572 0.0
C38 C 0.08911 0.18515 0.03435 0.0
C39 C 0.12981 0.11645 0.06809 0.0
C40 C 0.20216 0.16586 0.05845 0.0
H41 H 0.84581 0.1168 0.01844 0.0
H42 H 0.88452 0.04629 0.05645 0.0
H43 H 0.98387 0.03149 0.08125 0.0
O44 O 0.22821 0.29442 0.96047 0.0
O45 O 0.1299 0.33055 0.04583 0.0
O46 O 0.23406 0.42386 0.06605 0.0
O47 O 0.13032 0.29875 0.94733 0.0
O48 O 0.29331 0.37546 0.01225 0.0
O49 O 0.34504 0.48485 0.0437 0.0
O50 O 0.23828 0.57831 0.08348 0.0
O51 O 0.32988 0.54406 -0.00187 0.0
O52 O 0.22735 0.44809 0.98276 0.0
O53 O 0.3177 0.54378 0.09534 0.0
O54 O 0.1588 0.48274 0.03339 0.0
O55 O 0.12918 0.40872 0.98581 0.0
C56 C 0.16459 0.37507 0.07093 0.0
C57 C 0.1772 0.25502 0.90231 0.0
C58 C 0.23095 0.22492 0.85339 0.0
C59 C 0.17171 0.21779 0.83384 0.0
C60 C 0.11883 0.24599 0.88145 0.0
C61 C 0.11601 0.22716 0.84781 0.0
C62 C 0.2326 0.24207 0.88828 0.0
C63 C 0.34788 0.42926 0.03007 0.0
C64 C 0.18022 0.28373 0.93722 0.0
C65 C 0.94138 0.08499 0.05001 0.0
C66 C 0.99801 0.07621 0.064 0.0
C67 C 0.29598 0.49255 0.97596 0.0
C68 C 0.30982 0.62703 0.13154 0.0
C69 C 0.28309 0.67164 0.18142 0.0
C70 C 0.35887 0.71202 0.18907 0.0
C71 C 0.38579 0.66676 0.13859 0.0
C72 C 0.25912 0.63146 0.15233 0.0
C73 C 0.41027 0.71025 0.16733 0.0
C74 C 0.11721 0.45135 0.00675 0.0
C75 C 0.27815 0.57087 0.10648 0.0
H76 H 0.16861 0.20492 0.80734 0.0
H77 H 0.07528 0.25481 0.89095 0.0
H78 H 0.07086 0.22115 0.83221 0.0
H79 H 0.2774 0.24748 0.90397 0.0
H80 H 0.37778 0.74395 0.21195 0.0
H81 H 0.42548 0.66248 0.12274 0.0
H82 H 0.20027 0.59992 0.14704 0.0
H83 H 0.46855 0.74067 0.17326 0.0
Tb84 Tb 0.84201 0.17662 0.33264 0.0
C85 C 0.72528 0.40984 0.36216 0.0
N86 N 0.77387 0.3944 0.37745 0.0
C87 C 0.85253 0.52203 0.39005 0.0
C88 C 0.74103 0.48297 0.3581 0.0
C89 C 0.83425 0.44861 0.39331 0.0
C90 C 0.80663 0.53952 0.3716 0.0
C91 C 0.60645 0.36598 0.33553 0.0
C92 C 0.65841 0.35196 0.35166 0.0
C93 C 0.62288 0.43875 0.33036 0.0
C94 C 0.68996 0.49712 0.34169 0.0
Tb95 Tb 0.73939 0.27361 0.38223 0.0
N96 N 0.64545 0.28225 0.35619 0.0
C97 C 0.53982 0.30652 0.32477 0.0
C98 C 0.57909 0.22407 0.34655 0.0
C99 C 0.52594 0.23534 0.33053 0.0
H100 H 0.86695 0.43512 0.4095 0.0
H101 H 0.47394 0.18886 0.3228 0.0
H102 H 0.72473 0.01769 0.29563 0.0
H103 H 0.07334 0.24447 0.41487 0.0
H104 H 0.56497 0.16841 0.35132 0.0
H105 H 0.49855 0.31495 0.31225 0.0
H106 H 1.00405 0.27105 0.37177 0.0
H107 H 0.90113 0.56492 0.40232 0.0
H108 H 0.58379 0.45046 0.31787 0.0
H109 H 0.70134 0.55293 0.33808 0.0
H110 H 0.67901 0.88603 0.30648 0.0
H111 H 0.82068 0.5964 0.36919 0.0
H112 H 0.02356 0.11751 0.43607 0.0
N113 N 0.79892 0.05375 0.33708 0.0
C114 C 0.83148 0.03445 0.36149 0.0
C115 C 0.72114 0.92721 0.32245 0.0
C116 C 0.80704 0.96016 0.36865 0.0
C117 C 0.74682 1.00171 0.3165 0.0
C118 C 0.75032 0.90626 0.34906 0.0
N119 N 0.91594 0.16049 0.36968 0.0
C120 C 0.98292 0.21547 0.38067 0.0
C121 C 0.92854 0.0719 0.40309 0.0
C122 C 0.89192 0.0895 0.37831 0.0
C123 C 0.99348 0.12882 0.41704 0.0
C124 C 0.02185 0.2006 0.4051 0.0
H125 H 0.7301 0.8485 0.35369 0.0
H126 H 0.82138 0.88553 0.40127 0.0
H127 H 0.92643 0.98353 0.43207 0.0
O128 O 0.90945 0.24157 0.2916 0.0
O129 O 0.84813 0.19239 0.38752 0.0
O130 O 0.73539 0.17517 0.40327 0.0
O131 O 0.8883 0.13282 0.2993 0.0
O132 O 0.90945 0.29727 0.33838 0.0
O133 O 0.85844 0.3174 0.38515 0.0
O134 O 0.66181 0.26782 0.41742 0.0
O135 O 0.7762 0.30729 0.33006 0.0
O136 O 0.7589 0.19839 0.31271 0.0
O137 O 0.77827 0.30906 0.43104 0.0
O138 O 0.66443 0.15886 0.36942 0.0
O139 O 0.71544 0.10891 0.33202 0.0
C140 C 0.79073 0.16316 0.40772 0.0
C141 C 0.92912 0.18081 0.24387 0.0
C142 C 0.99507 0.22219 0.18925 0.0
C143 C 0.94302 0.15442 0.17541 0.0
C144 C 0.87988 0.11337 0.22883 0.0
C145 C 0.88673 0.10061 0.19502 0.0
C146 C 0.98839 0.2347 0.224 0.0
C147 C 0.90613 0.34251 0.36036 0.0
C148 C 0.92304 0.19116 0.28087 0.0
C149 C 0.84051 0.94231 0.3948 0.0
C150 C 0.90039 0.99813 0.41233 0.0
C151 C 0.77193 0.26366 0.30536 0.0
C152 C 0.69686 0.3052 0.47488 0.0
C153 C 0.61649 0.26197 0.52309 0.0
C154 C 0.67165 0.31917 0.54237 0.0
C155 C 0.75195 0.36184 0.49416 0.0
C156 C 0.62888 0.25549 0.48928 0.0
C157 C 0.73899 0.369 0.52786 0.0
C158 C 0.65831 0.10563 0.34956 0.0
C159 C 0.71247 0.29348 0.4407 0.0
H160 H 0.94636 0.14284 0.14917 0.0
H161 H 0.83538 0.0702 0.24321 0.0
H162 H 0.84779 0.04855 0.18385 0.0
H163 H 0.02899 0.28573 0.23547 0.0
H164 H 0.66252 0.32483 0.56872 0.0
H165 H 0.80502 0.39999 0.48324 0.0
H166 H 0.58671 0.21072 0.47464 0.0
H167 H 0.78136 0.41257 0.54284 0.0
Tb168 Tb 0.65759 0.82819 0.65887 0.0
C169 C 0.31193 0.72235 0.68659 0.0
N170 N 0.37135 0.76639 0.70595 0.0
C171 C 0.3198 0.84374 0.71767 0.0
C172 C 0.25459 0.73832 0.68151 0.0
C173 C 0.37531 0.82569 0.72194 0.0
C174 C 0.25937 0.80015 0.69719 0.0
C175 C 0.2506 0.61693 0.64974 0.0
C176 C 0.3102 0.66251 0.6708 0.0
C177 C 0.19272 0.63193 0.64504 0.0
C178 C 0.19479 0.69252 0.66081 0.0
Tb179 Tb 0.45798 0.73075 0.71127 0.0
N180 N 0.36896 0.65154 0.6748 0.0
C181 C 0.25135 0.55811 0.63374 0.0
C182 C 0.36882 0.5931 0.65983 0.0
C183 C 0.31054 0.54601 0.63895 0.0
H184 H 0.41911 0.8561 0.73957 0.0
H185 H 0.31115 0.50006 0.62702 0.0
H186 H 0.69547 0.70258 0.62788 0.0
H187 H 0.83507 0.08541 0.72107 0.0
H188 H 0.41249 0.58139 0.664 0.0
H189 H 0.20649 0.52166 0.61742 0.0
H190 H 0.72653 0.9985 0.68813 0.0
H191 H 0.323 0.89049 0.73061 0.0
H192 H 0.14639 0.59739 0.62898 0.0
H193 H 0.15006 0.70372 0.65668 0.0
H194 H 0.78762 0.66438 0.63774 0.0
H195 H 0.21642 0.81426 0.69394 0.0
H196 H 0.92778 0.05131 0.73884 0.0
N197 N 0.74544 0.79369 0.66113 0.0
C198 C 0.80465 0.83574 0.68073 0.0
C199 C 0.79266 0.71223 0.65034 0.0
C200 C 0.85891 0.81607 0.68709 0.0
C201 C 0.73993 0.73371 0.64508 0.0
C202 C 0.85186 0.75292 0.6719 0.0
N203 N 0.75773 0.91622 0.68692 0.0
C204 C 0.76685 0.9832 0.69529 0.0
C205 C 0.8731 0.94643 0.71342 0.0
C206 C 0.81149 0.89972 0.69379 0.0
C207 C 0.88094 0.01354 0.72382 0.0
C208 C 0.82861 0.03287 0.71389 0.0
H209 H 0.89247 0.73599 0.67612 0.0
H210 H 0.95982 0.84527 0.71419 0.0
H211 H 0.97038 0.95744 0.738 0.0
O212 O 0.67282 0.90992 0.62378 0.0
O213 O 0.66614 0.80642 0.7131 0.0
O214 O 0.56241 0.79725 0.73948 0.0
O215 O 0.69536 0.8248 0.6101 0.0
O216 O 0.60773 0.89739 0.67117 0.0
O217 O 0.53512 0.84817 0.71832 0.0
O218 O 0.41888 0.63755 0.74228 0.0
O219 O 0.45026 0.76741 0.66111 0.0
O220 O 0.54423 0.75553 0.6488 0.0
O221 O 0.3936 0.72298 0.75282 0.0
O222 O 0.51044 0.66234 0.70187 0.0
O223 O 0.59394 0.70601 0.65691 0.0
C224 C 0.62533 0.7961 0.74033 0.0
C225 C 0.75891 0.93709 0.57964 0.0
C226 C 0.80672 0.0182 0.53037 0.0
C227 C 0.87838 0.03427 0.53919 0.0
C228 C 0.83116 0.95478 0.58798 0.0
C229 C 0.89039 0.00301 0.5678 0.0
C230 C 0.74688 0.96941 0.55087 0.0
C231 C 0.56363 0.89886 0.69467 0.0
C232 C 0.69545 0.88368 0.60004 0.0
C233 C 0.91832 0.86017 0.70826 0.0
C234 C 0.92492 0.92479 0.72158 0.0
C235 C 0.49836 0.7759 0.63892 0.0
C236 C 0.42432 0.67462 0.79791 0.0
C237 C 0.41702 0.62381 0.85246 0.0
C238 C 0.47524 0.69103 0.86375 0.0
C239 C 0.48023 0.7435 0.80953 0.0
C240 C 0.39473 0.6142 0.8191 0.0
C241 C 0.50727 0.75083 0.84209 0.0
C242 C 0.55291 0.65437 0.67927 0.0
C243 C 0.39432 0.66589 0.7643 0.0
H244 H 0.92518 0.07133 0.52387 0.0
H245 H 0.84166 0.93087 0.60994 0.0
H246 H 0.94595 0.01607 0.5743 0.0
H247 H 0.69123 0.95624 0.54428 0.0
H248 H 0.49227 0.69827 0.88982 0.0
H249 H 0.50252 0.79171 0.79373 0.0
H250 H 0.34917 0.56206 0.81078 0.0
H251 H 0.55064 0.80348 0.85093 0.0
Tb252 Tb 0.83614 0.67175 -0.00271 0.0
C253 C 0.59103 0.32573 0.02706 0.0
N254 N 0.61563 0.38615 0.0467 0.0
C255 C 0.49367 0.33917 0.06922 0.0
C256 C 0.51556 0.27189 0.02604 0.0
C257 C 0.56882 0.39205 0.06872 0.0
C258 C 0.4665 0.28 0.04707 0.0
C259 C 0.61991 0.25031 0.99124 0.0
C260 C 0.64256 0.31456 0.01033 0.0
C261 C 0.54433 0.19929 0.98802 0.0
C262 C 0.49221 0.2099 0.00552 0.0
Tb263 Tb 0.73947 0.46736 0.04458 0.0
N264 N 0.71516 0.36421 0.01477 0.0
C265 C 0.67395 0.23772 0.9772 0.0
C266 C 0.76793 0.34924 0.00308 0.0
C267 C 0.74821 0.28665 0.98376 0.0
H268 H 0.58933 0.43737 0.08611 0.0
H269 H 0.79045 0.2761 0.97406 0.0
H270 H 1.00352 0.71931 0.96621 0.0
H271 H 0.75501 0.83178 0.07375 0.0
H272 H 0.82565 0.38471 0.00839 0.0
H273 H 0.65888 0.18903 0.9624 0.0
H274 H 0.737 0.73904 0.03069 0.0
H275 H 0.45665 0.34419 0.0866 0.0
H276 H 0.52584 0.15002 0.97318 0.0
H277 H 0.43432 0.16852 0.00402 0.0
H278 H 0.13325 0.80289 0.98165 0.0
H279 H 0.4082 0.23952 0.04733 0.0
H280 H 0.87824 0.90831 0.09945 0.0
N281 N 0.95945 0.75368 0.006 0.0
C282 C 0.97529 0.8039 0.03051 0.0
C283 C 0.08931 0.80306 -0.00401 0.0
C284 C 0.04855 0.85238 0.04048 0.0
C285 C 0.01551 0.75559 0.98737 0.0
C286 C 0.10593 0.85053 0.0232 0.0
N287 N 0.84909 0.76449 0.03194 0.0
C288 C 0.79133 0.77415 0.04108 0.0
C289 C 0.93076 0.86221 0.06885 0.0
C290 C 0.9179 0.80983 0.04394 0.0
C291 C 0.87094 0.869 0.08015 0.0
C292 C 0.80127 0.82592 0.06565 0.0
H293 H 0.16309 0.88716 0.0299 0.0
H294 H 0.11761 0.93874 0.07534 0.0
H295 H 0.01382 0.94499 0.10128 0.0
O296 O 0.79413 0.72797 0.9656 0.0
O297 O 0.81628 0.66311 0.05173 0.0
O298 O 0.83511 0.56816 0.06456 0.0
O299 O 0.87792 0.7044 0.94908 0.0
O300 O 0.71041 0.6059 0.00137 0.0
O301 O 0.69431 0.54001 0.04945 0.0
O302 O 0.77071 0.40333 0.07261 0.0
O303 O 0.71098 0.46795 0.99152 0.0
O304 O 0.81516 0.57032 0.97571 0.0
O305 O 0.71935 0.46086 0.09611 0.0
O306 O 0.84688 0.49958 0.0248 0.0
O307 O 0.9102 0.61933 0.00279 0.0
C308 C 0.8392 0.63064 0.07273 0.0
C309 C 0.84578 0.76647 0.9068 0.0
C310 C 0.79689 0.79325 0.85483 0.0
C311 C 0.8612 0.80532 0.83806 0.0
C312 C 0.90965 0.78169 0.88861 0.0
C313 C 0.91723 0.80106 0.85487 0.0
C314 C 0.79005 0.77523 0.88998 0.0
C315 C 0.66591 0.55758 0.02434 0.0
C316 C 0.83698 0.73202 0.94103 0.0
C317 C 0.06189 0.9022 0.06666 0.0
C318 C 1.00284 0.90632 0.08117 0.0
C319 C 0.75076 0.51648 0.96843 0.0
C320 C 0.72306 0.36739 0.12671 0.0
C321 C 0.75411 0.33129 0.17827 0.0
C322 C 0.67918 0.27814 0.18301 0.0
C323 C 0.64841 0.31471 0.13074 0.0
C324 C 0.77573 0.3746 0.14992 0.0
C325 C 0.6266 0.26953 0.15905 0.0
C326 C 0.90641 0.55564 0.01242 0.0
C327 C 0.75002 0.42051 0.10029 0.0
H328 H 0.86827 0.81842 0.8115 0.0
H329 H 0.95374 0.77653 0.90027 0.0
H330 H 0.96639 0.81114 0.84135 0.0
H331 H 0.74084 0.76486 0.90353 0.0
H332 H 0.66155 0.24412 0.20535 0.0
H333 H 0.60761 0.30925 0.11249 0.0
H334 H 0.83351 0.41565 0.14646 0.0
H335 H 0.5691 0.22888 0.16272 0.0
Tb336 Tb 0.16532 0.82407 0.32901 0.0
C337 C 0.28233 0.59989 0.3417 0.0
N338 N 0.24086 0.6118 0.36458 0.0
C339 C 0.16859 0.48186 0.3745 0.0
C340 C 0.26514 0.52809 0.33284 0.0
C341 C 0.18859 0.55405 0.38284 0.0
C342 C 0.20552 0.46874 0.34868 0.0
C343 C 0.39594 0.64934 0.30937 0.0
C344 C 0.34721 0.65963 0.33009 0.0
C345 C 0.37628 0.5783 0.29864 0.0
C346 C 0.31095 0.5178 0.31032 0.0
Tb347 Tb 0.2817 0.73323 0.37598 0.0
N348 N 0.36503 0.72777 0.34114 0.0
C349 C 0.46465 0.71032 0.3016 0.0
C350 C 0.43481 0.78542 0.33686 0.0
C351 C 0.48484 0.77833 0.31608 0.0
H352 H 0.16471 0.5636 0.40489 0.0
H353 H 0.53922 0.82491 0.31172 0.0
H354 H 0.29263 0.98088 0.29165 0.0
H355 H 0.92756 0.75918 0.40521 0.0
H356 H 0.4514 0.83656 0.34954 0.0
H357 H 0.50387 0.70469 0.28589 0.0
H358 H 0.01292 0.73137 0.3744 0.0
H359 H 0.12663 0.43636 0.38877 0.0
H360 H 0.41273 0.56926 0.28249 0.0
H361 H 0.29823 0.46305 0.30307 0.0
H362 H 0.32719 0.11078 0.29355 0.0
H363 H 0.1909 0.41277 0.34281 0.0
H364 H 0.95067 0.88647 0.40731 0.0
N365 N 0.20305 0.9463 0.32631 0.0
C366 C 0.15852 0.96593 0.34268 0.0
C367 C 0.28009 0.07074 0.3078 0.0
C368 C 0.17484 0.03965 0.34329 0.0
C369 C 0.26107 0.99685 0.30748 0.0
C370 C 0.23729 0.09243 0.3261 0.0
N371 N 0.08372 0.842 0.35909 0.0
C372 C 0.02375 0.78716 0.37507 0.0
C373 C 0.04947 0.93041 0.37677 0.0
C374 C 0.0965 0.91198 0.35922 0.0
C375 C 0.98811 0.87464 0.39349 0.0
C376 C 0.97506 0.80269 0.39251 0.0
H377 H 0.25198 0.14969 0.32621 0.0
H378 H 0.14029 0.11469 0.36195 0.0
H379 H 0.03172 0.01947 0.39141 0.0
O380 O 0.06637 0.78966 0.30059 0.0
O381 O 0.19033 0.84902 0.38269 0.0
O382 O 0.21338 0.76256 0.40871 0.0
O383 O 0.17251 0.83749 0.27715 0.0
O384 O 0.10068 0.707 0.34533 0.0
O385 O 0.16086 0.66853 0.38329 0.0
O386 O 0.36548 0.796 0.4111 0.0
O387 O 0.29341 0.74945 0.32129 0.0
O388 O 0.18336 0.73611 0.31905 0.0
O389 O 0.3191 0.67954 0.40745 0.0
O390 O 0.32419 0.85028 0.37185 0.0
O391 O 0.28963 0.8868 0.32452 0.0
C392 C 0.20314 0.82044 0.40993 0.0
C393 C 0.07664 0.83139 0.24287 0.0
C394 C 0.01007 0.80093 0.18894 0.0
C395 C 0.04888 0.87573 0.18041 0.0
C396 C 0.11391 0.90573 0.23361 0.0
C397 C 0.09964 0.92761 0.20269 0.0
C398 C 0.02328 0.77916 0.22068 0.0
C399 C 0.10157 0.65771 0.36623 0.0
C400 C 0.10193 0.80607 0.27219 0.0
C401 C 0.12843 0.0583 0.36096 0.0
C402 C 0.06605 0.00386 0.37761 0.0
C403 C 0.24098 0.74708 0.30307 0.0
C404 C 0.35668 0.73009 0.46033 0.0
C405 C 0.41461 0.76911 0.51434 0.0
C406 C 0.35255 0.70972 0.52952 0.0
C407 C 0.29485 0.67061 0.47553 0.0
C408 C 0.41628 0.77951 0.47983 0.0
C409 C 0.2929 0.66085 0.51012 0.0
C410 C 0.342 0.88925 0.34434 0.0
C411 C 0.36272 0.73794 0.42405 0.0
H412 H 0.04039 0.89388 0.1562 0.0
H413 H 0.15592 0.9466 0.24977 0.0
H414 H 0.12957 0.98493 0.19554 0.0
H415 H 0.9953 0.7214 0.22721 0.0
H416 H 0.35092 0.70062 0.55637 0.0
H417 H 0.24821 0.63157 0.46075 0.0
H418 H 0.46457 0.82456 0.46815 0.0
H419 H 0.24555 0.6151 0.52184 0.0
Tb420 Tb 0.34399 0.1649 0.66477 0.0
C421 C 0.70703 0.28474 0.68028 0.0
N422 N 0.64599 0.23591 0.69771 0.0
C423 C 0.69728 0.1566 0.70422 0.0
C424 C 0.76463 0.27013 0.67328 0.0
C425 C 0.64197 0.17394 0.71075 0.0
C426 C 0.7586 0.20456 0.68511 0.0
C427 C 0.77317 0.40118 0.65082 0.0
C428 C 0.71157 0.34979 0.6694 0.0
C429 C 0.83084 0.38696 0.6439 0.0
C430 C 0.82658 0.32165 0.6551 0.0
Tb431 Tb 0.56231 0.27329 0.70895 0.0
N432 N 0.65334 0.36053 0.67567 0.0
C433 C 0.77465 0.465 0.63953 0.0
C434 C 0.65549 0.42362 0.66536 0.0
C435 C 0.71564 0.47624 0.64689 0.0
H436 H 0.59917 0.14119 0.72828 0.0
H437 H 0.71662 0.52574 0.63854 0.0
H438 H 0.29233 0.27881 0.63176 0.0
H439 H 0.17772 0.91338 0.73384 0.0
H440 H 0.61178 0.43457 0.67147 0.0
H441 H 0.82108 0.50595 0.62521 0.0
H442 H 0.27771 0.99524 0.69511 0.0
H443 H 0.69367 0.10739 0.71475 0.0
H444 H 0.87886 0.42599 0.62979 0.0
H445 H 0.87155 0.31154 0.6496 0.0
H446 H 0.20529 0.32134 0.64653 0.0
H447 H 0.80179 0.1914 0.68039 0.0
H448 H 0.09497 0.95401 0.75852 0.0
N449 N 0.2557 0.19813 0.67024 0.0
C450 C 0.20357 0.16108 0.69382 0.0
C451 C 0.2048 0.27676 0.66041 0.0
C452 C 0.15289 0.18336 0.70343 0.0
C453 C 0.25476 0.25308 0.6523 0.0
C454 C 0.15466 0.24284 0.68667 0.0
N455 N 0.24907 0.07924 0.69652 0.0
C456 C 0.24059 0.01251 0.70489 0.0
C457 C 0.1449 0.0565 0.73096 0.0
C458 C 0.19965 0.0988 0.70729 0.0
C459 C 0.13734 0.9891 0.7408 0.0
C460 C 0.18397 0.966 0.72689 0.0
H461 H 0.11644 0.26162 0.69316 0.0
H462 H 0.06469 0.16312 0.73807 0.0
H463 H 0.06083 0.05449 0.76369 0.0
O464 O 0.29769 0.07391 0.63001 0.0
O465 O 0.34918 0.19871 0.71789 0.0
O466 O 0.45709 0.20603 0.73763 0.0
O467 O 0.33269 0.18575 0.61482 0.0
O468 O 0.3969 0.09766 0.67563 0.0
O469 O 0.48817 0.15377 0.71698 0.0
O470 O 0.60244 0.36219 0.74231 0.0
O471 O 0.57221 0.26119 0.6555 0.0
O472 O 0.45857 0.21741 0.66332 0.0
O473 O 0.63215 0.27808 0.74743 0.0
O474 O 0.50697 0.3386 0.6994 0.0
O475 O 0.40253 0.28747 0.6631 0.0
C476 C 0.39805 0.21352 0.74225 0.0
C477 C 0.28805 0.09797 0.5691 0.0
C478 C 0.25277 0.01322 0.52066 0.0
C479 C 0.27973 0.0751 0.49942 0.0
C480 C 0.30766 0.15609 0.54642 0.0
C481 C 0.3043 0.14479 0.51207 0.0
C482 C 0.25785 0.02518 0.55612 0.0
C483 C 0.44754 0.09852 0.6963 0.0
C484 C 0.30596 0.11801 0.60532 0.0
C485 C 0.1023 0.1453 0.72926 0.0
C486 C 0.09935 0.08273 0.74348 0.0
C487 C 0.50941 0.22932 0.6415 0.0
C488 C 0.60545 0.319 0.79584 0.0
C489 C 0.62158 0.36295 0.85196 0.0
C490 C 0.56404 0.29521 0.86315 0.0
C491 C 0.54904 0.24954 0.80668 0.0
C492 C 0.64022 0.37586 0.81833 0.0
C493 C 0.52714 0.23843 0.84025 0.0
C494 C 0.45717 0.34309 0.68 0.0
C495 C 0.63096 0.33267 0.76153 0.0
H496 H 0.27921 0.06929 0.47239 0.0
H497 H 0.3283 0.2117 0.55515 0.0
H498 H 0.32164 0.1907 0.49504 0.0
H499 H 0.23869 0.97918 0.57323 0.0
H500 H 0.55001 0.28575 0.88957 0.0
H501 H 0.52265 0.20392 0.78949 0.0
H502 H 0.68517 0.42872 0.81017 0.0
H503 H 0.48353 0.1854 0.84865 0.0
C504 C 0.19853 0.64314 0.26316 0.0
C505 C 0.23115 0.72007 0.26868 0.0
C506 C 0.23397 0.73891 0.20861 0.0
C507 C 0.22913 0.67104 0.20452 0.0
N508 N 0.18988 0.54957 0.22487 0.0
N509 N 0.28547 0.84302 0.24447 0.0
C510 C 0.20369 0.61924 0.23073 0.0
C511 C 0.2489 0.76878 0.24087 0.0
N512 N 0.16399 0.5939 0.28851 0.0
N513 N 0.23228 0.77701 0.18124 0.0
H514 H 0.29924 0.8686 0.26756 0.0
H515 H 0.30568 0.87916 0.22417 0.0
H516 H 0.22369 0.75437 0.15719 0.0
H517 H 0.23143 0.82609 0.18316 0.0
H518 H 0.13443 0.53733 0.28486 0.0
H519 H 0.15961 0.60957 0.31275 0.0
H520 H 0.17979 0.51147 0.24382 0.0
H521 H 0.19051 0.53099 0.20067 0.0
C522 C 0.53724 0.1653 0.59613 0.0
C523 C 0.50314 0.20695 0.60588 0.0
C524 C 0.50058 0.23811 0.54677 0.0
C525 C 0.54668 0.20964 0.53942 0.0
N526 N 0.57792 0.11734 0.55045 0.0
N527 N 0.47285 0.29963 0.58987 0.0
C528 C 0.55197 0.16137 0.56183 0.0
C529 C 0.48679 0.2454 0.58088 0.0
N530 N 0.56674 0.14014 0.61967 0.0
N531 N 0.48019 0.26771 0.52132 0.0
H532 H 0.47873 0.31721 0.61449 0.0
H533 H 0.46659 0.33369 0.5728 0.0
H534 H 0.49422 0.26444 0.49645 0.0
H535 H 0.44506 0.28908 0.52447 0.0
H536 H 0.60496 0.12375 0.6138 0.0
H537 H 0.55851 0.14179 0.6453 0.0
H538 H 0.57955 0.07712 0.56514 0.0
H539 H 0.59141 0.11769 0.52516 0.0
C540 C 0.2923 0.55856 0.92509 0.0
C541 C 0.3157 0.51307 0.94071 0.0
C542 C 0.38884 0.52147 0.89132 0.0
C543 C 0.36905 0.57077 0.87731 0.0
N544 N 0.28682 0.62154 0.87678 0.0
N545 N 0.36921 0.43518 0.93552 0.0
C546 C 0.3151 0.58316 0.89239 0.0
C547 C 0.35848 0.48909 0.92273 0.0
N548 N 0.24974 0.58074 0.94168 0.0
N549 N 0.43903 0.50864 0.87523 0.0
H550 H 0.34694 0.41131 0.95837 0.0
H551 H 0.39427 0.41031 0.92267 0.0
H552 H 0.45821 0.52847 0.8511 0.0
H553 H 0.46309 0.48055 0.88603 0.0
H554 H 0.23506 0.61739 0.93135 0.0
H555 H 0.22888 0.56238 0.96555 0.0
H556 H 0.29931 0.64127 0.85223 0.0
H557 H 0.29931 0.64127 0.85223 0.0
C558 C 0.78922 0.3578 0.26175 0.0
C559 C 0.78437 0.28902 0.26948 0.0
C560 C 0.81507 0.28168 0.21057 0.0
C561 C 0.80882 0.34308 0.20398 0.0
N562 N 0.83306 0.46019 0.2232 0.0
N563 N 0.77466 0.17619 0.24517 0.0
C564 C 0.81392 0.38934 0.22998 0.0
C565 C 0.79437 0.24855 0.2426 0.0
N566 N 0.75556 0.38489 0.28157 0.0
N567 N 0.83479 0.25226 0.18487 0.0
H568 H 0.75988 0.14433 0.26658 0.0
H569 H 0.76625 0.14372 0.22408 0.0
H570 H 0.84753 0.27694 0.16114 0.0
H571 H 0.84478 0.20886 0.18788 0.0
H572 H 0.75598 0.43391 0.27689 0.0
H573 H 0.71272 0.34905 0.29689 0.0
H574 H 0.84129 0.49802 0.242 0.0
H575 H 0.84809 0.48187 0.19902 0.0
C576 C 0.51726 0.76196 0.57777 0.0
C577 C 0.49184 0.79209 0.60311 0.0
C578 C 0.46374 0.85559 0.55903 0.0
C579 C 0.47867 0.81651 0.53521 0.0
N580 N 0.55582 0.76808 0.51986 0.0
N581 N 0.41842 0.85121 0.61447 0.0
C582 C 0.52091 0.78475 0.54423 0.0
C583 C 0.46013 0.83597 0.59319 0.0
N584 N 0.52293 0.70132 0.58425 0.0
N585 N 0.4484 0.90801 0.54828 0.0
H586 H 0.41512 0.84354 0.64022 0.0
H587 H 0.38182 0.86741 0.60548 0.0
H588 H 0.45027 0.92034 0.52273 0.0
H589 H 0.44002 0.94189 0.56452 0.0
H590 H 0.53714 0.67497 0.56604 0.0
H591 H 0.49898 0.66949 0.60556 0.0
H592 H 0.59119 0.74772 0.52519 0.0
H593 H 0.55421 0.78198 0.4948 0.0
C594 C 0.75993 0.44721 0.92009 0.0
C595 C 0.73655 0.49474 0.93313 0.0
C596 C 0.65718 0.47454 0.88507 0.0
C597 C 0.67001 0.4173 0.87584 0.0
N598 N 0.75246 0.36807 0.87427 0.0
N599 N 0.69215 0.57845 0.92113 0.0
C600 C 0.72822 0.41009 0.8899 0.0
C601 C 0.69553 0.51742 0.91297 0.0
N602 N 0.8108 0.43675 0.93696 0.0
N603 N 0.6066 0.48551 0.86804 0.0
H604 H 0.7178 0.60815 0.94234 0.0
H605 H 0.66497 0.59971 0.90737 0.0
H606 H 0.57978 0.45611 0.84652 0.0
H607 H 0.5896 0.52213 0.87548 0.0
H608 H 0.8258 0.39803 0.93051 0.0
H609 H 0.83782 0.46686 0.95818 0.0
H610 H 0.79888 0.36545 0.8816 0.0
H611 H 0.72939 0.33978 0.85202 0.0
C612 C 0.47022 0.48187 0.05948 0.0
C613 C 0.42452 0.4387 0.03267 0.0
C614 C 0.536 0.47105 -3e-05 0.0
C615 C 0.58194 0.52383 0.02456 0.0
N616 N 0.58828 0.58333 0.07701 0.0
N617 N 0.4195 0.36179 0.98735 0.0
C618 C 0.5475 0.52977 0.05426 0.0
C619 C 0.45866 0.42452 0.00552 0.0
N620 N 0.43928 0.47379 0.0905 0.0
N621 N 0.56577 0.4662 0.97066 0.0
H622 H 0.365 0.32346 0.99298 0.0
H623 H 0.44322 0.3434 0.96963 0.0
H624 H 0.62102 0.49953 0.96654 0.0
H625 H 0.5353 0.43599 0.94998 0.0
H626 H 0.46972 0.49789 0.11214 0.0
H627 H 0.38349 0.43635 0.0948 0.0
H628 H 0.56587 0.59382 0.09821 0.0
H629 H 0.64305 0.62293 0.07242 0.0
C630 C 0.02643 0.53521 0.3944 0.0
C631 C 0.03822 0.57948 0.36566 0.0
C632 C 0.97082 0.4673 0.33145 0.0
C633 C 0.96209 0.42317 0.36013 0.0
N634 N 0.99885 0.41684 0.41669 0.0
N635 N 0.99152 0.58407 0.31052 0.0
C636 C 0.99501 0.45786 0.39097 0.0
C637 C 1.00224 0.54483 0.33509 0.0
N638 N 0.04228 0.56735 0.42535 0.0
N639 N 0.95105 0.43603 0.3004 0.0
H640 H 1.00087 0.63696 0.31402 0.0
H641 H 0.96102 0.5606 0.28883 0.0
H642 H 0.92826 0.38023 0.29613 0.0
H643 H 0.96501 0.46632 0.27821 0.0
H644 H 0.02873 0.53785 0.44775 0.0
H645 H 0.06151 0.62335 0.42847 0.0
H646 H 0.02737 0.43933 0.43893 0.0
H647 H 0.98151 0.36121 0.41396 0.0
C648 C 0.47127 0.00626 0.66632 0.0
C649 C 0.46132 0.03436 0.6969 0.0
C650 C 0.52985 0.98305 0.72607 0.0
C651 C 0.54339 0.95883 0.69495 0.0
N652 N 0.55412 0.97956 0.63503 0.0
N653 N 0.46059 0.02861 0.75707 0.0
C654 C 0.52237 0.98003 0.66485 0.0
C655 C 0.48432 0.01608 0.72719 0.0
N656 N 0.43209 0.00453 0.63858 0.0
N657 N 0.56436 0.97834 0.7543 0.0
H658 H 0.42487 0.04975 0.75821 0.0
H659 H 0.46947 0.01117 0.78017 0.0
H660 H 0.60179 0.95924 0.75361 0.0
H661 H 0.56274 1.00068 0.77735 0.0
H662 H 0.44021 0.9896 0.6149 0.0
H663 H 0.385 0.00935 0.6398 0.0
H664 H 0.54183 0.99549 0.61234 0.0
H665 H 0.60047 0.97382 0.6333 0.0
C666 C 0.51847 0.53629 0.64552 0.0
C667 C 0.5404 0.57714 0.67603 0.0
C668 C 0.488 0.46188 0.70728 0.0
C669 C 0.46821 0.42006 0.67754 0.0
N670 N 0.44062 0.41924 0.61872 0.0
N671 N 0.57583 0.57573 0.73292 0.0
C672 C 0.47703 0.45759 0.64657 0.0
C673 C 0.53357 0.53885 0.70604 0.0
N674 N 0.54202 0.57146 0.61549 0.0
N675 N 0.45702 0.42831 0.73681 0.0
H676 H 0.61573 0.63126 0.73119 0.0
H677 H 0.57777 0.54889 0.75464 0.0
H678 H 0.41575 0.37318 0.73736 0.0
H679 H 0.46448 0.45763 0.75897 0.0
H680 H 0.53412 0.54443 0.59269 0.0
H681 H 0.57897 0.62715 0.61366 0.0
H682 H 0.43807 0.4437 0.59639 0.0
H683 H 0.40416 0.36332 0.6193 0.0
C684 C 0.04805 0.50628 0.97496 0.0
C685 C 0.05322 0.46509 0.00222 0.0
C686 C 0.97609 0.4971 0.03621 0.0
C687 C 0.96859 0.53825 0.00929 0.0
N688 N 0.9873 0.56901 0.95038 0.0
N689 N 0.99335 0.3951 0.05119 0.0
C690 C 1.00227 0.53973 0.97785 0.0
C691 C 0.00821 0.45256 0.03043 0.0
N692 N 0.08521 0.5117 0.94606 0.0
N693 N 0.95272 0.50038 0.06783 0.0
H694 H 0.01447 0.36012 0.04667 0.0
H695 H 0.95408 0.3777 0.07031 0.0
H696 H 0.9294 0.53235 0.07397 0.0
H697 H 0.96297 0.47659 0.08863 0.0
H698 H 0.09234 0.54781 0.92662 0.0
H699 H 0.10938 0.4794 0.94181 0.0
H700 H 1.00348 0.56547 0.92609 0.0
H701 H 0.95418 0.59301 0.95142 0.0
C702 C 0.45486 0.99106 0.37103 0.0
C703 C 0.42153 0.94983 0.34176 0.0
C704 C 0.54504 0.01197 0.31492 0.0
C705 C 0.57924 0.04325 0.34627 0.0
N706 N 0.5616 0.03919 0.40662 0.0
N707 N 0.44196 0.90797 0.28847 0.0
C708 C 0.53248 0.0254 0.37504 0.0
C709 C 0.46838 0.95695 0.31419 0.0
N710 N 0.41246 0.99817 0.3952 0.0
N711 N 0.58372 0.03554 0.28565 0.0
H712 H 0.38972 0.862 0.28927 0.0
H713 H 0.47535 0.90711 0.26923 0.0
H714 H 0.63845 0.07707 0.28456 0.0
H715 H 0.5588 0.01865 0.26219 0.0
H716 H 0.43515 0.0327 0.41586 0.0
H717 H 0.35565 0.97653 0.39243 0.0
H718 H 0.52895 0.02189 0.42819 0.0
H719 H 0.61735 0.05919 0.41119 0.0
C720 C 0.39855 0.2751 0.79822 0.0
C721 C 0.36984 0.2111 0.77782 0.0
C722 C 0.26698 0.14758 0.81789 0.0
C723 C 0.28895 0.21484 0.83502 0.0
N724 N 0.38749 0.33622 0.84808 0.0
N725 N 0.29858 0.07995 0.77816 0.0
C726 C 0.35929 0.27623 0.82762 0.0
C727 C 0.31056 0.14518 0.79074 0.0
N728 N 0.46264 0.33544 0.78885 0.0
N729 N 0.20248 0.08648 0.82681 0.0
H730 H 0.33117 0.07747 0.75897 0.0
H731 H 0.26248 0.02942 0.78902 0.0
H732 H 0.17233 0.0853 0.84794 0.0
H733 H 0.17795 0.03831 0.81279 0.0
H734 H 0.48742 0.38571 0.80107 0.0
H735 H 0.49022 0.33531 0.7673 0.0
H736 H 0.44078 0.38047 0.84635 0.0
H737 H 0.35923 0.34014 0.86869 0.0
C738 C 0.05518 0.34002 0.15421 0.0
C739 C 0.05564 0.27631 0.16601 0.0
C740 C 0.14871 0.29628 0.12241 0.0
C741 C 0.13583 0.34921 0.10634 0.0
N742 N 0.08857 0.4324 0.11061 0.0
N743 N 0.1091 0.19795 0.16341 0.0
C744 C 0.09323 0.37489 0.12365 0.0
C745 C 0.10514 0.25646 0.15089 0.0
N746 N 0.01802 0.36691 0.17213 0.0
N747 N 0.20504 0.28647 0.11132 0.0
H748 H 0.08339 0.17196 0.18581 0.0
H749 H 0.13538 0.1736 0.1511 0.0
H750 H 0.23966 0.31706 0.09164 0.0
H751 H 0.22253 0.25408 0.12362 0.0
H752 H 0.01991 0.41638 0.16716 0.0
H753 H 0.98858 0.34219 0.1939 0.0
H754 H 0.05396 0.45094 0.11943 0.0
H755 H 0.11908 0.46131 0.08988 0.0
C756 C 0.76266 0.01205 0.47032 0.0
C757 C 0.79617 0.05379 0.49969 0.0
C758 C 0.83051 0.16731 0.46809 0.0
C759 C 0.79279 0.1254 0.43935 0.0
N760 N 0.71096 0.00693 0.41522 0.0
N761 N 0.84686 0.1696 0.52848 0.0
C762 C 0.75492 0.04744 0.4412 0.0
C763 C 0.82566 0.13105 0.4991 0.0
N764 N 0.74131 0.93911 0.46962 0.0
N765 N 0.87231 0.24189 0.4657 0.0
H766 H 0.84283 0.14472 0.55168 0.0
H767 H 0.86139 0.2246 0.53036 0.0
H768 H 0.87651 0.27034 0.44367 0.0
H769 H 0.90751 0.27494 0.48463 0.0
H770 H 0.72412 0.90748 0.4479 0.0
H771 H 0.74626 0.91121 0.49023 0.0
H772 H 0.67511 0.95051 0.41655 0.0
H773 H 0.70666 0.03052 0.39294 0.0
C774 C 0.71784 0.86589 0.78722 0.0
C775 C 0.65963 0.79897 0.77448 0.0
C776 C 0.67183 0.73538 0.82467 0.0
C777 C 0.73963 0.79904 0.83325 0.0
N778 N 0.82329 0.9281 0.82457 0.0
N779 N 0.57238 0.67186 0.78448 0.0
C780 C 0.76069 0.86545 0.81526 0.0
C781 C 0.63347 0.73461 0.79461 0.0
N782 N 0.7293 0.93035 0.77369 0.0
N783 N 0.64445 0.67517 0.84499 0.0
H784 H 0.54271 0.67032 0.76333 0.0
H785 H 0.55154 0.62094 0.79599 0.0
H786 H 0.67291 0.67212 0.86562 0.0
H787 H 0.59163 0.63007 0.84317 0.0
H788 H 0.76547 0.98172 0.78369 0.0
H789 H 0.69645 0.9317 0.75435 0.0
H790 H 0.84822 0.97556 0.80998 0.0
H791 H 0.85186 0.9314 0.8466 0.0
C792 C 0.89252 0.74552 0.15409 0.0
C793 C 0.9593 0.74715 0.1631 0.0
C794 C 0.95082 0.67982 0.11148 0.0
C795 C 0.88019 0.67084 0.10406 0.0
N796 N 0.77792 0.68476 0.12263 0.0
N797 N 0.04115 0.6986 0.15399 0.0
C798 C 0.84936 0.70091 0.12662 0.0
C799 C 0.98423 0.70783 0.14323 0.0
N800 N 0.87058 0.78726 0.17156 0.0
N801 N 0.99015 0.66927 0.087 0.0
H802 H 0.06907 0.7201 0.17646 0.0
H803 H 0.0557 0.66357 0.14195 0.0
H804 H 0.97198 0.65817 0.06228 0.0
H805 H 0.04446 0.68088 0.09022 0.0
H806 H 0.82838 0.79641 0.16348 0.0
H807 H 0.89751 0.8162 0.19317 0.0
H808 H 0.75023 0.69989 0.13975 0.0
H809 H 0.74404 0.64986 0.10387 0.0
C810 C 0.16781 0.93207 0.47658 0.0
C811 C 0.21542 0.93932 0.50311 0.0
C812 C 0.22414 0.83868 0.47544 0.0
C813 C 0.20254 0.8556 0.4438 0.0
N814 N 0.19463 0.95792 0.41912 0.0
N815 N 0.28898 0.89212 0.5278 0.0
C816 C 0.18247 0.91146 0.44521 0.0
C817 C 0.24344 0.88992 0.50287 0.0
N818 N 0.12147 0.95984 0.47924 0.0
N819 N 0.22395 0.77449 0.4804 0.0
H820 H 0.30387 0.92829 0.54794 0.0
H821 H 0.31383 0.85975 0.5273 0.0
H822 H 0.20084 0.73117 0.46353 0.0
H823 H 0.23514 0.75993 0.50378 0.0
H824 H 0.08781 0.95721 0.45926 0.0
H825 H 0.11369 0.97936 0.5021 0.0
H826 H 0.18263 1.00048 0.42092 0.0
H827 H 0.23123 0.96516 0.39983 0.0
loop_
_geom_bond_atom_site_label_1
_geom_bond_atom_site_label_2
_geom_bond_distance
_geom_bond_site_symmetry_2
_ccdc_geom_bond_type
Tb0 N29 2.616 1_556 S
Tb0 N35 2.572 1_556 S
Tb0 O44 2.465 . S
Tb0 O45 2.387 1_556 S
Tb0 O47 2.428 . S
Tb0 O48 2.308 1_556 S
Tb0 O52 2.349 . S
Tb0 O55 2.393 . S
Tb0 C64 2.802 . S
C1 N2 1.379 . S
C1 C4 1.416 . S
C1 C8 1.424 . S
N2 C1 1.379 . S
N2 C5 1.334 . S
N2 Tb11 2.617 . S
C3 C5 1.390 . S
C3 C6 1.339 . S
C3 H23 0.930 . S
C4 C1 1.416 . S
C4 C6 1.416 . S
C4 C10 1.448 . S
C5 N2 1.334 . S
C5 C3 1.390 . S
C5 H16 0.930 . S
C6 C3 1.339 . S
C6 C4 1.416 . S
C6 H27 0.930 . S
C7 C8 1.413 . S
C7 C9 1.427 . S
C7 C13 1.414 1_554 S
C8 C1 1.424 . S
C8 C7 1.413 . S
C8 N12 1.361 . S
C9 C7 1.427 . S
C9 C10 1.328 . S
C9 H24 0.929 1_554 S
C10 C4 1.448 . S
C10 C9 1.328 . S
C10 H25 0.930 . S
Tb11 N2 2.617 . S
Tb11 N12 2.572 . S
Tb11 O46 2.349 . S
Tb11 O49 2.393 . S
Tb11 O50 2.465 . S
Tb11 O51 2.387 1_554 S
Tb11 O53 2.428 . S
Tb11 O54 2.308 . S
Tb11 C75 2.802 . S
N12 C8 1.361 . S
N12 Tb11 2.572 . S
N12 C14 1.340 . S
C13 C7 1.414 1_556 S
C13 C15 1.330 1_556 S
C13 H21 0.936 . S
C14 N12 1.340 . S
C14 C15 1.407 . S
C14 H20 0.930 . S
C15 C13 1.330 1_554 S
C15 C14 1.407 . S
C15 H17 0.930 1_554 S
H16 C5 0.930 . S
H17 C15 0.930 1_556 S
H18 C33 0.930 . S
H19 C40 0.929 . S
H20 C14 0.930 . S
H21 C13 0.936 . S
H22 C36 0.930 . S
H23 C3 0.930 . S
H24 C9 0.929 1_556 S
H25 C10 0.930 . S
H26 C31 0.930 . S
H27 C6 0.930 . S
H28 C39 0.931 . S
N29 Tb0 2.616 1_554 S
N29 C30 1.387 . S
N29 C33 1.330 1_454 S
C30 N29 1.387 . S
C30 C32 1.416 1_455 S
C30 C38 1.424 . S
C31 H26 0.930 . S
C31 C33 1.390 . S
C31 C34 1.339 1_556 S
C32 C30 1.416 1_655 S
C32 C34 1.416 . S
C32 C65 1.448 . S
C33 H18 0.930 . S
C33 N29 1.330 1_656 S
C33 C31 1.390 . S
C34 C31 1.339 1_554 S
C34 C32 1.416 . S
C34 H41 0.930 . S
N35 Tb0 2.572 1_554 S
N35 C36 1.340 . S
N35 C38 1.361 . S
C36 H22 0.930 . S
C36 N35 1.340 . S
C36 C40 1.407 . S
C37 C38 1.413 . S
C37 C39 1.416 . S
C37 C66 1.427 1_455 S
C38 C30 1.424 . S
C38 N35 1.361 . S
C38 C37 1.413 . S
C39 H28 0.931 . S
C39 C37 1.416 . S
C39 C40 1.332 . S
C40 H19 0.929 . S
C40 C36 1.407 . S
C40 C39 1.332 . S
H41 C34 0.930 . S
H42 C65 0.930 1_565 S
H43 C66 0.929 1_565 S
O44 Tb0 2.465 . S
O44 C64 1.264 . S
O45 Tb0 2.387 1_554 S
O45 C56 1.264 . S
O46 Tb11 2.349 . S
O46 C56 1.243 . S
O47 Tb0 2.428 . S
O47 C64 1.256 . S
O48 Tb0 2.308 1_554 S
O48 C63 1.266 . S
O49 Tb11 2.393 . S
O49 C63 1.248 . S
O50 Tb11 2.465 . S
O50 C75 1.264 . S
O51 Tb11 2.387 1_556 S
O51 C67 1.264 . S
O52 Tb0 2.349 . S
O52 C67 1.243 . S
O53 Tb11 2.428 . S
O53 C75 1.256 . S
O54 Tb11 2.308 . S
O54 C74 1.266 . S
O55 Tb0 2.393 . S
O55 C74 1.248 1_556 S
C56 O45 1.264 . S
C56 O46 1.243 . S
C57 C60 1.399 . S
C57 C62 1.383 . S
C57 C64 1.496 . S
C58 C59 1.399 . S
C58 C62 1.389 . S
C59 C58 1.399 . S
C59 C61 1.380 . S
C59 H76 0.929 . S
C60 C57 1.399 . S
C60 C61 1.392 . S
C60 H77 0.929 . S
C61 C59 1.380 . S
C61 C60 1.392 . S
C61 H78 0.929 . S
C62 C57 1.383 . S
C62 C58 1.389 . S
C62 H79 0.931 . S
C63 O48 1.266 . S
C63 O49 1.248 . S
C64 Tb0 2.802 . S
C64 O44 1.264 . S
C64 O47 1.256 . S
C64 C57 1.496 . S
C65 C32 1.448 . S
C65 H42 0.930 1_545 S
C65 C66 1.328 . S
C66 C37 1.427 1_655 S
C66 H43 0.929 1_545 S
C66 C65 1.328 . S
C67 O51 1.264 . S
C67 O52 1.243 . S
C68 C71 1.399 . S
C68 C72 1.383 . S
C68 C75 1.496 . S
C69 C70 1.399 . S
C69 C72 1.389 . S
C70 C69 1.399 . S
C70 C73 1.380 . S
C70 H80 0.929 . S
C71 C68 1.399 . S
C71 C73 1.392 . S
C71 H81 0.929 . S
C72 C68 1.383 . S
C72 C69 1.389 . S
C72 H82 0.931 . S
C73 C70 1.380 . S
C73 C71 1.392 . S
C73 H83 0.929 . S
C74 O54 1.266 . S
C74 O55 1.248 1_554 S
C75 Tb11 2.802 . S
C75 O50 1.264 . S
C75 O53 1.256 . S
C75 C68 1.496 . S
H76 C59 0.929 . S
H77 C60 0.929 . S
H78 C61 0.929 . S
H79 C62 0.931 . S
H80 C70 0.929 . S
H81 C71 0.929 . S
H82 C72 0.931 . S
H83 C73 0.929 . S
Tb84 N113 2.617 . S
Tb84 N119 2.572 . S
Tb84 O128 2.465 . S
Tb84 O129 2.387 . S
Tb84 O131 2.428 . S
Tb84 O132 2.308 . S
Tb84 O136 2.349 . S
Tb84 O139 2.393 . S
Tb84 C148 2.802 . S
C85 N86 1.379 . S
C85 C88 1.416 . S
C85 C92 1.424 . S
N86 C85 1.379 . S
N86 C89 1.334 . S
N86 Tb95 2.617 . S
C87 C89 1.390 . S
C87 C90 1.339 . S
C87 H107 0.930 . S
C88 C85 1.416 . S
C88 C90 1.416 . S
C88 C94 1.448 . S
C89 N86 1.334 . S
C89 C87 1.390 . S
C89 H100 0.930 . S
C90 C87 1.339 . S
C90 C88 1.416 . S
C90 H111 0.930 . S
C91 C92 1.413 . S
C91 C93 1.427 . S
C91 C97 1.416 . S
C92 C85 1.424 . S
C92 C91 1.413 . S
C92 N96 1.361 . S
C93 C91 1.427 . S
C93 C94 1.328 . S
C93 H108 0.929 . S
C94 C88 1.448 . S
C94 C93 1.328 . S
C94 H109 0.930 . S
Tb95 N86 2.617 . S
Tb95 N96 2.572 . S
Tb95 O130 2.349 . S
Tb95 O133 2.393 . S
Tb95 O134 2.465 . S
Tb95 O135 2.387 . S
Tb95 O137 2.428 . S
Tb95 O138 2.308 . S
Tb95 C159 2.802 . S
N96 C92 1.361 . S
N96 Tb95 2.572 . S
N96 C98 1.340 . S
C97 C91 1.416 . S
C97 C99 1.332 . S
C97 H105 0.931 . S
C98 N96 1.340 . S
C98 C99 1.407 . S
C98 H104 0.930 . S
C99 C97 1.332 . S
C99 C98 1.407 . S
C99 H101 0.929 . S
H100 C89 0.930 . S
H101 C99 0.929 . S
H102 C117 0.930 . S
H103 C124 0.929 . S
H104 C98 0.930 . S
H105 C97 0.931 . S
H106 C120 0.930 . S
H107 C87 0.930 . S
H108 C93 0.929 . S
H109 C94 0.930 . S
H110 C115 0.930 . S
H111 C90 0.930 . S
H112 C123 0.931 . S
N113 Tb84 2.617 . S
N113 C114 1.379 . S
N113 C117 1.334 1_545 S
C114 N113 1.379 . S
C114 C116 1.416 1_545 S
C114 C122 1.424 . S
C115 H110 0.930 . S
C115 C117 1.390 . S
C115 C118 1.339 . S
C116 C114 1.416 1_565 S
C116 C118 1.416 . S
C116 C149 1.448 . S
C117 H102 0.930 . S
C117 N113 1.334 1_565 S
C117 C115 1.390 . S
C118 C115 1.339 . S
C118 C116 1.416 . S
C118 H125 0.930 . S
N119 Tb84 2.572 . S
N119 C120 1.340 1_655 S
N119 C122 1.361 . S
C120 H106 0.930 . S
C120 N119 1.340 1_455 S
C120 C124 1.407 . S
C121 C122 1.413 . S
C121 C123 1.416 1_655 S
C121 C150 1.427 1_545 S
C122 C114 1.424 . S
C122 N119 1.361 . S
C122 C121 1.413 . S
C123 H112 0.931 . S
C123 C121 1.416 1_455 S
C123 C124 1.332 . S
C124 H103 0.929 . S
C124 C120 1.407 . S
C124 C123 1.332 . S
H125 C118 0.930 . S
H126 C149 0.930 . S
H127 C150 0.929 . S
O128 Tb84 2.465 . S
O128 C148 1.264 . S
O129 Tb84 2.387 . S
O129 C140 1.264 . S
O130 Tb95 2.349 . S
O130 C140 1.243 . S
O131 Tb84 2.428 . S
O131 C148 1.256 . S
O132 Tb84 2.308 . S
O132 C147 1.266 . S
O133 Tb95 2.393 . S
O133 C147 1.248 . S
O134 Tb95 2.465 . S
O134 C159 1.264 . S
O135 Tb95 2.387 . S
O135 C151 1.264 . S
O136 Tb84 2.349 . S
O136 C151 1.243 . S
O137 Tb95 2.428 . S
O137 C159 1.256 . S
O138 Tb95 2.308 . S
O138 C158 1.266 . S
O139 Tb84 2.393 . S
O139 C158 1.248 . S
C140 O129 1.264 . S
C140 O130 1.243 . S
C141 C144 1.399 . S
C141 C146 1.383 1_655 S
C141 C148 1.496 . S
C142 C143 1.399 . S
C142 C146 1.389 . S
C143 C142 1.399 . S
C143 C145 1.380 1_455 S
C143 H160 0.929 . S
C144 C141 1.399 . S
C144 C145 1.392 . S
C144 H161 0.929 . S
C145 C143 1.380 1_655 S
C145 C144 1.392 . S
C145 H162 0.929 . S
C146 C141 1.383 1_455 S
C146 C142 1.389 . S
C146 H163 0.931 . S
C147 O132 1.266 . S
C147 O133 1.248 . S
C148 Tb84 2.802 . S
C148 O128 1.264 . S
C148 O131 1.256 . S
C148 C141 1.496 . S
C149 C116 1.448 . S
C149 H126 0.930 . S
C149 C150 1.328 . S
C150 C121 1.427 1_565 S
C150 H127 0.929 . S
C150 C149 1.328 . S
C151 O135 1.264 . S
C151 O136 1.243 . S
C152 C155 1.399 . S
C152 C156 1.383 . S
C152 C159 1.496 . S
C153 C154 1.399 . S
C153 C156 1.389 . S
C154 C153 1.399 . S
C154 C157 1.380 . S
C154 H164 0.929 . S
C155 C152 1.399 . S
C155 C157 1.392 . S
C155 H165 0.929 . S
C156 C152 1.383 . S
C156 C153 1.389 . S
C156 H166 0.931 . S
C157 C154 1.380 . S
C157 C155 1.392 . S
C157 H167 0.929 . S
C158 O138 1.266 . S
C158 O139 1.248 . S
C159 Tb95 2.802 . S
C159 O134 1.264 . S
C159 O137 1.256 . S
C159 C152 1.496 . S
H160 C143 0.929 . S
H161 C144 0.929 . S
H162 C145 0.929 . S
H163 C146 0.931 . S
H164 C154 0.929 . S
H165 C155 0.929 . S
H166 C156 0.931 . S
H167 C157 0.929 . S
Tb168 N197 2.617 . S
Tb168 N203 2.572 . S
Tb168 O212 2.465 . S
Tb168 O213 2.387 . S
Tb168 O215 2.428 . S
Tb168 O216 2.308 . S
Tb168 O220 2.349 . S
Tb168 O223 2.393 . S
Tb168 C232 2.802 . S
C169 N170 1.379 . S
C169 C172 1.416 . S
C169 C176 1.424 . S
N170 C169 1.379 . S
N170 C173 1.334 . S
N170 Tb179 2.617 . S
C171 C173 1.390 . S
C171 C174 1.339 . S
C171 H191 0.930 . S
C172 C169 1.416 . S
C172 C174 1.416 . S
C172 C178 1.448 . S
C173 N170 1.334 . S
C173 C171 1.390 . S
C173 H184 0.930 . S
C174 C171 1.339 . S
C174 C172 1.416 . S
C174 H195 0.930 . S
C175 C176 1.413 . S
C175 C177 1.427 . S
C175 C181 1.416 . S
C176 C169 1.424 . S
C176 C175 1.413 . S
C176 N180 1.361 . S
C177 C175 1.427 . S
C177 C178 1.328 . S
C177 H192 0.929 . S
C178 C172 1.448 . S
C178 C177 1.328 . S
C178 H193 0.930 . S
Tb179 N170 2.617 . S
Tb179 N180 2.572 . S
Tb179 O214 2.349 . S
Tb179 O217 2.393 . S
Tb179 O218 2.465 . S
Tb179 O219 2.387 . S
Tb179 O221 2.428 . S
Tb179 O222 2.308 . S
Tb179 C243 2.802 . S
N180 C176 1.361 . S
N180 Tb179 2.572 . S
N180 C182 1.340 . S
C181 C175 1.416 . S
C181 C183 1.332 . S
C181 H189 0.931 . S
C182 N180 1.340 . S
C182 C183 1.407 . S
C182 H188 0.930 . S
C183 C181 1.332 . S
C183 C182 1.407 . S
C183 H185 0.929 . S
H184 C173 0.930 . S
H185 C183 0.929 . S
H186 C201 0.930 . S
H187 C208 0.929 . S
H188 C182 0.930 . S
H189 C181 0.931 . S
H190 C204 0.930 . S
H191 C171 0.930 . S
H192 C177 0.929 . S
H193 C178 0.930 . S
H194 C199 0.930 . S
H195 C174 0.930 . S
H196 C207 0.931 . S
N197 Tb168 2.617 . S
N197 C198 1.379 . S
N197 C201 1.334 . S
C198 N197 1.379 . S
C198 C200 1.416 . S
C198 C206 1.424 . S
C199 H194 0.930 . S
C199 C201 1.390 . S
C199 C202 1.339 . S
C200 C198 1.416 . S
C200 C202 1.416 . S
C200 C233 1.448 . S
C201 H186 0.930 . S
C201 N197 1.334 . S
C201 C199 1.390 . S
C202 C199 1.339 . S
C202 C200 1.416 . S
C202 H209 0.930 . S
N203 Tb168 2.572 . S
N203 C204 1.340 1_565 S
N203 C206 1.361 . S
C204 H190 0.930 . S
C204 N203 1.340 1_545 S
C204 C208 1.407 . S
C205 C206 1.413 . S
C205 C207 1.416 1_565 S
C205 C234 1.427 . S
C206 C198 1.424 . S
C206 N203 1.361 . S
C206 C205 1.413 . S
C207 H196 0.931 . S
C207 C205 1.416 1_545 S
C207 C208 1.332 . S
C208 H187 0.929 . S
C208 C204 1.407 . S
C208 C207 1.332 . S
H209 C202 0.930 . S
H210 C233 0.930 1_455 S
H211 C234 0.929 1_455 S
O212 Tb168 2.465 . S
O212 C232 1.264 . S
O213 Tb168 2.387 . S
O213 C224 1.264 . S
O214 Tb179 2.349 . S
O214 C224 1.243 . S
O215 Tb168 2.428 . S
O215 C232 1.256 . S
O216 Tb168 2.308 . S
O216 C231 1.266 . S
O217 Tb179 2.393 . S
O217 C231 1.248 . S
O218 Tb179 2.465 . S
O218 C243 1.264 . S
O219 Tb179 2.387 . S
O219 C235 1.264 . S
O220 Tb168 2.349 . S
O220 C235 1.243 . S
O221 Tb179 2.428 . S
O221 C243 1.256 . S
O222 Tb179 2.308 . S
O222 C242 1.266 . S
O223 Tb168 2.393 . S
O223 C242 1.248 . S
C224 O213 1.264 . S
C224 O214 1.243 . S
C225 C228 1.399 . S
C225 C230 1.383 1_565 S
C225 C232 1.496 . S
C226 C227 1.399 . S
C226 C230 1.389 . S
C227 C226 1.399 . S
C227 C229 1.380 1_545 S
C227 H244 0.929 . S
C228 C225 1.399 . S
C228 C229 1.392 . S
C228 H245 0.929 . S
C229 C227 1.380 1_565 S
C229 C228 1.392 . S
C229 H246 0.929 . S
C230 C225 1.383 1_545 S
C230 C226 1.389 . S
C230 H247 0.931 . S
C231 O216 1.266 . S
C231 O217 1.248 . S
C232 Tb168 2.802 . S
C232 O212 1.264 . S
C232 O215 1.256 . S
C232 C225 1.496 . S
C233 C200 1.448 . S
C233 H210 0.930 1_655 S
C233 C234 1.328 . S
C234 C205 1.427 . S
C234 H211 0.929 1_655 S
C234 C233 1.328 . S
C235 O219 1.264 . S
C235 O220 1.243 . S
C236 C239 1.399 . S
C236 C240 1.383 . S
C236 C243 1.496 . S
C237 C238 1.399 . S
C237 C240 1.389 . S
C238 C237 1.399 . S
C238 C241 1.380 . S
C238 H248 0.929 . S
C239 C236 1.399 . S
C239 C241 1.392 . S
C239 H249 0.929 . S
C240 C236 1.383 . S
C240 C237 1.389 . S
C240 H250 0.931 . S
C241 C238 1.380 . S
C241 C239 1.392 . S
C241 H251 0.929 . S
C242 O222 1.266 . S
C242 O223 1.248 . S
C243 Tb179 2.802 . S
C243 O218 1.264 . S
C243 O221 1.256 . S
C243 C236 1.496 . S
H244 C227 0.929 . S
H245 C228 0.929 . S
H246 C229 0.929 . S
H247 C230 0.931 . S
H248 C238 0.929 . S
H249 C239 0.929 . S
H250 C240 0.931 . S
H251 C241 0.929 . S
Tb252 N281 2.616 1_556 S
Tb252 N287 2.572 1_556 S
Tb252 O296 2.465 . S
Tb252 O297 2.387 1_556 S
Tb252 O299 2.428 . S
Tb252 O300 2.308 1_556 S
Tb252 O304 2.349 . S
Tb252 O307 2.393 . S
Tb252 C316 2.802 . S
C253 N254 1.379 . S
C253 C256 1.416 . S
C253 C260 1.424 . S
N254 C253 1.379 . S
N254 C257 1.334 . S
N254 Tb263 2.617 . S
C255 C257 1.390 . S
C255 C258 1.339 . S
C255 H275 0.930 . S
C256 C253 1.416 . S
C256 C258 1.416 . S
C256 C262 1.448 . S
C257 N254 1.334 . S
C257 C255 1.390 . S
C257 H268 0.930 . S
C258 C255 1.339 . S
C258 C256 1.416 . S
C258 H279 0.930 . S
C259 C260 1.413 . S
C259 C261 1.427 . S
C259 C265 1.414 1_554 S
C260 C253 1.424 . S
C260 C259 1.413 . S
C260 N264 1.361 . S
C261 C259 1.427 . S
C261 C262 1.328 . S
C261 H276 0.929 1_554 S
C262 C256 1.448 . S
C262 C261 1.328 . S
C262 H277 0.930 . S
Tb263 N254 2.617 . S
Tb263 N264 2.572 . S
Tb263 O298 2.349 . S
Tb263 O301 2.393 . S
Tb263 O302 2.465 . S
Tb263 O303 2.387 1_554 S
Tb263 O305 2.428 . S
Tb263 O306 2.308 . S
Tb263 C327 2.802 . S
N264 C260 1.361 . S
N264 Tb263 2.572 . S
N264 C266 1.340 . S
C265 C259 1.414 1_556 S
C265 C267 1.330 1_556 S
C265 H273 0.936 . S
C266 N264 1.340 . S
C266 C267 1.407 . S
C266 H272 0.930 . S
C267 C265 1.330 1_554 S
C267 C266 1.407 . S
C267 H269 0.930 1_554 S
H268 C257 0.930 . S
H269 C267 0.930 1_556 S
H270 C285 0.930 . S
H271 C292 0.929 . S
H272 C266 0.930 . S
H273 C265 0.936 . S
H274 C288 0.930 . S
H275 C255 0.930 . S
H276 C261 0.929 1_556 S
H277 C262 0.930 . S
H278 C283 0.930 . S
H279 C258 0.930 . S
H280 C291 0.931 . S
N281 Tb252 2.616 1_554 S
N281 C282 1.387 . S
N281 C285 1.330 1_654 S
C282 N281 1.387 . S
C282 C284 1.416 1_655 S
C282 C290 1.424 . S
C283 H278 0.930 . S
C283 C285 1.390 . S
C283 C286 1.339 1_556 S
C284 C282 1.416 1_455 S
C284 C286 1.416 . S
C284 C317 1.448 . S
C285 H270 0.930 . S
C285 N281 1.330 1_456 S
C285 C283 1.390 . S
C286 C283 1.339 1_554 S
C286 C284 1.416 . S
C286 H293 0.930 . S
N287 Tb252 2.572 1_554 S
N287 C288 1.340 . S
N287 C290 1.361 . S
C288 H274 0.930 . S
C288 N287 1.340 . S
C288 C292 1.407 . S
C289 C290 1.413 . S
C289 C291 1.416 . S
C289 C318 1.427 1_655 S
C290 C282 1.424 . S
C290 N287 1.361 . S
C290 C289 1.413 . S
C291 H280 0.931 . S
C291 C289 1.416 . S
C291 C292 1.332 . S
C292 H271 0.929 . S
C292 C288 1.407 . S
C292 C291 1.332 . S
H293 C286 0.930 . S
H294 C317 0.930 1_545 S
H295 C318 0.929 1_545 S
O296 Tb252 2.465 . S
O296 C316 1.264 . S
O297 Tb252 2.387 1_554 S
O297 C308 1.264 . S
O298 Tb263 2.349 . S
O298 C308 1.243 . S
O299 Tb252 2.428 . S
O299 C316 1.256 . S
O300 Tb252 2.308 1_554 S
O300 C315 1.266 . S
O301 Tb263 2.393 . S
O301 C315 1.248 . S
O302 Tb263 2.465 . S
O302 C327 1.264 . S
O303 Tb263 2.387 1_556 S
O303 C319 1.264 . S
O304 Tb252 2.349 . S
O304 C319 1.243 . S
O305 Tb263 2.428 . S
O305 C327 1.256 . S
O306 Tb263 2.308 . S
O306 C326 1.266 . S
O307 Tb252 2.393 . S
O307 C326 1.248 1_556 S
C308 O297 1.264 . S
C308 O298 1.243 . S
C309 C312 1.399 . S
C309 C314 1.383 . S
C309 C316 1.496 . S
C310 C311 1.399 . S
C310 C314 1.389 . S
C311 C310 1.399 . S
C311 C313 1.380 . S
C311 H328 0.929 . S
C312 C309 1.399 . S
C312 C313 1.392 . S
C312 H329 0.929 . S
C313 C311 1.380 . S
C313 C312 1.392 . S
C313 H330 0.929 . S
C314 C309 1.383 . S
C314 C310 1.389 . S
C314 H331 0.931 . S
C315 O300 1.266 . S
C315 O301 1.248 . S
C316 Tb252 2.802 . S
C316 O296 1.264 . S
C316 O299 1.256 . S
C316 C309 1.496 . S
C317 C284 1.448 . S
C317 H294 0.930 1_565 S
C317 C318 1.328 . S
C318 C289 1.427 1_455 S
C318 H295 0.929 1_565 S
C318 C317 1.328 . S
C319 O303 1.264 . S
C319 O304 1.243 . S
C320 C323 1.399 . S
C320 C324 1.383 . S
C320 C327 1.496 . S
C321 C322 1.399 . S
C321 C324 1.389 . S
C322 C321 1.399 . S
C322 C325 1.380 . S
C322 H332 0.929 . S
C323 C320 1.399 . S
C323 C325 1.392 . S
C323 H333 0.929 . S
C324 C320 1.383 . S
C324 C321 1.389 . S
C324 H334 0.931 . S
C325 C322 1.380 . S
C325 C323 1.392 . S
C325 H335 0.929 . S
C326 O306 1.266 . S
C326 O307 1.248 1_554 S
C327 Tb263 2.802 . S
C327 O302 1.264 . S
C327 O305 1.256 . S
C327 C320 1.496 . S
H328 C311 0.929 . S
H329 C312 0.929 . S
H330 C313 0.929 . S
H331 C314 0.931 . S
H332 C322 0.929 . S
H333 C323 0.929 . S
H334 C324 0.931 . S
H335 C325 0.929 . S
Tb336 N365 2.617 . S
Tb336 N371 2.572 . S
Tb336 O380 2.465 . S
Tb336 O381 2.387 . S
Tb336 O383 2.428 . S
Tb336 O384 2.308 . S
Tb336 O388 2.349 . S
Tb336 O391 2.393 . S
Tb336 C400 2.802 . S
C337 N338 1.379 . S
C337 C340 1.416 . S
C337 C344 1.424 . S
N338 C337 1.379 . S
N338 C341 1.334 . S
N338 Tb347 2.617 . S
C339 C341 1.390 . S
C339 C342 1.339 . S
C339 H359 0.930 . S
C340 C337 1.416 . S
C340 C342 1.416 . S
C340 C346 1.448 . S
C341 N338 1.334 . S
C341 C339 1.390 . S
C341 H352 0.930 . S
C342 C339 1.339 . S
C342 C340 1.416 . S
C342 H363 0.930 . S
C343 C344 1.413 . S
C343 C345 1.427 . S
C343 C349 1.416 . S
C344 C337 1.424 . S
C344 C343 1.413 . S
C344 N348 1.361 . S
C345 C343 1.427 . S
C345 C346 1.328 . S
C345 H360 0.929 . S
C346 C340 1.448 . S
C346 C345 1.328 . S
C346 H361 0.930 . S
Tb347 N338 2.617 . S
Tb347 N348 2.572 . S
Tb347 O382 2.349 . S
Tb347 O385 2.393 . S
Tb347 O386 2.465 . S
Tb347 O387 2.387 . S
Tb347 O389 2.428 . S
Tb347 O390 2.308 . S
Tb347 C411 2.802 . S
N348 C344 1.361 . S
N348 Tb347 2.572 . S
N348 C350 1.340 . S
C349 C343 1.416 . S
C349 C351 1.332 . S
C349 H357 0.931 . S
C350 N348 1.340 . S
C350 C351 1.407 . S
C350 H356 0.930 . S
C351 C349 1.332 . S
C351 C350 1.407 . S
C351 H353 0.929 . S
H352 C341 0.930 . S
H353 C351 0.929 . S
H354 C369 0.930 . S
H355 C376 0.929 . S
H356 C350 0.930 . S
H357 C349 0.931 . S
H358 C372 0.930 . S
H359 C339 0.930 . S
H360 C345 0.929 . S
H361 C346 0.930 . S
H362 C367 0.930 . S
H363 C342 0.930 . S
H364 C375 0.931 . S
N365 Tb336 2.617 . S
N365 C366 1.379 . S
N365 C369 1.334 1_565 S
C366 N365 1.379 . S
C366 C368 1.416 1_565 S
C366 C374 1.424 . S
C367 H362 0.930 . S
C367 C369 1.390 . S
C367 C370 1.339 . S
C368 C366 1.416 1_545 S
C368 C370 1.416 . S
C368 C401 1.448 . S
C369 H354 0.930 . S
C369 N365 1.334 1_545 S
C369 C367 1.390 . S
C370 C367 1.339 . S
C370 C368 1.416 . S
C370 H377 0.930 . S
N371 Tb336 2.572 . S
N371 C372 1.340 1_455 S
N371 C374 1.361 . S
C372 H358 0.930 . S
C372 N371 1.340 1_655 S
C372 C376 1.407 . S
C373 C374 1.413 . S
C373 C375 1.416 1_455 S
C373 C402 1.427 1_565 S
C374 C366 1.424 . S
C374 N371 1.361 . S
C374 C373 1.413 . S
C375 H364 0.931 . S
C375 C373 1.416 1_655 S
C375 C376 1.332 . S
C376 H355 0.929 . S
C376 C372 1.407 . S
C376 C375 1.332 . S
H377 C370 0.930 . S
H378 C401 0.930 . S
H379 C402 0.929 . S
O380 Tb336 2.465 . S
O380 C400 1.264 . S
O381 Tb336 2.387 . S
O381 C392 1.264 . S
O382 Tb347 2.349 . S
O382 C392 1.243 . S
O383 Tb336 2.428 . S
O383 C400 1.256 . S
O384 Tb336 2.308 . S
O384 C399 1.266 . S
O385 Tb347 2.393 . S
O385 C399 1.248 . S
O386 Tb347 2.465 . S
O386 C411 1.264 . S
O387 Tb347 2.387 . S
O387 C403 1.264 . S
O388 Tb336 2.349 . S
O388 C403 1.243 . S
O389 Tb347 2.428 . S
O389 C411 1.256 . S
O390 Tb347 2.308 . S
O390 C410 1.266 . S
O391 Tb336 2.393 . S
O391 C410 1.248 . S
C392 O381 1.264 . S
C392 O382 1.243 . S
C393 C396 1.399 . S
C393 C398 1.383 1_455 S
C393 C400 1.496 . S
C394 C395 1.399 . S
C394 C398 1.389 . S
C395 C394 1.399 . S
C395 C397 1.380 1_655 S
C395 H412 0.929 . S
C396 C393 1.399 . S
C396 C397 1.392 . S
C396 H413 0.929 . S
C397 C395 1.380 1_455 S
C397 C396 1.392 . S
C397 H414 0.929 . S
C398 C393 1.383 1_655 S
C398 C394 1.389 . S
C398 H415 0.931 . S
C399 O384 1.266 . S
C399 O385 1.248 . S
C400 Tb336 2.802 . S
C400 O380 1.264 . S
C400 O383 1.256 . S
C400 C393 1.496 . S
C401 C368 1.448 . S
C401 H378 0.930 . S
C401 C402 1.328 . S
C402 C373 1.427 1_545 S
C402 H379 0.929 . S
C402 C401 1.328 . S
C403 O387 1.264 . S
C403 O388 1.243 . S
C404 C407 1.399 . S
C404 C408 1.383 . S
C404 C411 1.496 . S
C405 C406 1.399 . S
C405 C408 1.389 . S
C406 C405 1.399 . S
C406 C409 1.380 . S
C406 H416 0.929 . S
C407 C404 1.399 . S
C407 C409 1.392 . S
C407 H417 0.929 . S
C408 C404 1.383 . S
C408 C405 1.389 . S
C408 H418 0.931 . S
C409 C406 1.380 . S
C409 C407 1.392 . S
C409 H419 0.929 . S
C410 O390 1.266 . S
C410 O391 1.248 . S
C411 Tb347 2.802 . S
C411 O386 1.264 . S
C411 O389 1.256 . S
C411 C404 1.496 . S
H412 C395 0.929 . S
H413 C396 0.929 . S
H414 C397 0.929 . S
H415 C398 0.931 . S
H416 C406 0.929 . S
H417 C407 0.929 . S
H418 C408 0.931 . S
H419 C409 0.929 . S
Tb420 N449 2.617 . S
Tb420 N455 2.572 . S
Tb420 O464 2.465 . S
Tb420 O465 2.387 . S
Tb420 O467 2.428 . S
Tb420 O468 2.308 . S
Tb420 O472 2.349 . S
Tb420 O475 2.393 . S
Tb420 C484 2.802 . S
C421 N422 1.379 . S
C421 C424 1.416 . S
C421 C428 1.424 . S
N422 C421 1.379 . S
N422 C425 1.334 . S
N422 Tb431 2.617 . S
C423 C425 1.390 . S
C423 C426 1.339 . S
C423 H443 0.930 . S
C424 C421 1.416 . S
C424 C426 1.416 . S
C424 C430 1.448 . S
C425 N422 1.334 . S
C425 C423 1.390 . S
C425 H436 0.930 . S
C426 C423 1.339 . S
C426 C424 1.416 . S
C426 H447 0.930 . S
C427 C428 1.413 . S
C427 C429 1.427 . S
C427 C433 1.416 . S
C428 C421 1.424 . S
C428 C427 1.413 . S
C428 N432 1.361 . S
C429 C427 1.427 . S
C429 C430 1.328 . S
C429 H444 0.929 . S
C430 C424 1.448 . S
C430 C429 1.328 . S
C430 H445 0.930 . S
Tb431 N422 2.617 . S
Tb431 N432 2.572 . S
Tb431 O466 2.349 . S
Tb431 O469 2.393 . S
Tb431 O470 2.465 . S
Tb431 O471 2.387 . S
Tb431 O473 2.428 . S
Tb431 O474 2.308 . S
Tb431 C495 2.802 . S
N432 C428 1.361 . S
N432 Tb431 2.572 . S
N432 C434 1.340 . S
C433 C427 1.416 . S
C433 C435 1.332 . S
C433 H441 0.931 . S
C434 N432 1.340 . S
C434 C435 1.407 . S
C434 H440 0.930 . S
C435 C433 1.332 . S
C435 C434 1.407 . S
C435 H437 0.929 . S
H436 C425 0.930 . S
H437 C435 0.929 . S
H438 C453 0.930 . S
H439 C460 0.929 . S
H440 C434 0.930 . S
H441 C433 0.931 . S
H442 C456 0.930 . S
H443 C423 0.930 . S
H444 C429 0.929 . S
H445 C430 0.930 . S
H446 C451 0.930 . S
H447 C426 0.930 . S
H448 C459 0.931 . S
N449 Tb420 2.617 . S
N449 C450 1.379 . S
N449 C453 1.334 . S
C450 N449 1.379 . S
C450 C452 1.416 . S
C450 C458 1.424 . S
C451 H446 0.930 . S
C451 C453 1.390 . S
C451 C454 1.339 . S
C452 C450 1.416 . S
C452 C454 1.416 . S
C452 C485 1.448 . S
C453 H438 0.930 . S
C453 N449 1.334 . S
C453 C451 1.390 . S
C454 C451 1.339 . S
C454 C452 1.416 . S
C454 H461 0.930 . S
N455 Tb420 2.572 . S
N455 C456 1.340 1_545 S
N455 C458 1.361 . S
C456 H442 0.930 . S
C456 N455 1.340 1_565 S
C456 C460 1.407 . S
C457 C458 1.413 . S
C457 C459 1.416 1_545 S
C457 C486 1.427 . S
C458 C450 1.424 . S
C458 N455 1.361 . S
C458 C457 1.413 . S
C459 H448 0.931 . S
C459 C457 1.416 1_565 S
C459 C460 1.332 . S
C460 H439 0.929 . S
C460 C456 1.407 . S
C460 C459 1.332 . S
H461 C454 0.930 . S
H462 C485 0.930 1_655 S
H463 C486 0.929 1_655 S
O464 Tb420 2.465 . S
O464 C484 1.264 . S
O465 Tb420 2.387 . S
O465 C476 1.264 . S
O466 Tb431 2.349 . S
O466 C476 1.243 . S
O467 Tb420 2.428 . S
O467 C484 1.256 . S
O468 Tb420 2.308 . S
O468 C483 1.266 . S
O469 Tb431 2.393 . S
O469 C483 1.248 . S
O470 Tb431 2.465 . S
O470 C495 1.264 . S
O471 Tb431 2.387 . S
O471 C487 1.264 . S
O472 Tb420 2.349 . S
O472 C487 1.243 . S
O473 Tb431 2.428 . S
O473 C495 1.256 . S
O474 Tb431 2.308 . S
O474 C494 1.266 . S
O475 Tb420 2.393 . S
O475 C494 1.248 . S
C476 O465 1.264 . S
C476 O466 1.243 . S
C477 C480 1.399 . S
C477 C482 1.383 1_545 S
C477 C484 1.496 . S
C478 C479 1.399 . S
C478 C482 1.389 . S
C479 C478 1.399 . S
C479 C481 1.380 1_565 S
C479 H496 0.929 . S
C480 C477 1.399 . S
C480 C481 1.392 . S
C480 H497 0.929 . S
C481 C479 1.380 1_545 S
C481 C480 1.392 . S
C481 H498 0.929 . S
C482 C477 1.383 1_565 S
C482 C478 1.389 . S
C482 H499 0.931 . S
C483 O468 1.266 . S
C483 O469 1.248 . S
C484 Tb420 2.802 . S
C484 O464 1.264 . S
C484 O467 1.256 . S
C484 C477 1.496 . S
C485 C452 1.448 . S
C485 H462 0.930 1_455 S
C485 C486 1.328 . S
C486 C457 1.427 . S
C486 H463 0.929 1_455 S
C486 C485 1.328 . S
C487 O471 1.264 . S
C487 O472 1.243 . S
C488 C491 1.399 . S
C488 C492 1.383 . S
C488 C495 1.496 . S
C489 C490 1.399 . S
C489 C492 1.389 . S
C490 C489 1.399 . S
C490 C493 1.380 . S
C490 H500 0.929 . S
C491 C488 1.399 . S
C491 C493 1.392 . S
C491 H501 0.929 . S
C492 C488 1.383 . S
C492 C489 1.389 . S
C492 H502 0.931 . S
C493 C490 1.380 . S
C493 C491 1.392 . S
C493 H503 0.929 . S
C494 O474 1.266 . S
C494 O475 1.248 . S
C495 Tb431 2.802 . S
C495 O470 1.264 . S
C495 O473 1.256 . S
C495 C488 1.496 . S
H496 C479 0.929 . S
H497 C480 0.929 . S
H498 C481 0.929 . S
H499 C482 0.931 . S
H500 C490 0.929 . S
H501 C491 0.929 . S
H502 C492 0.931 . S
H503 C493 0.929 . S
C504 C505 1.363 . S
C504 C510 1.379 . S
C504 N512 1.356 . S
C505 C504 1.363 . S
C505 C511 1.363 . S
C506 C507 1.363 . S
C506 C511 1.379 . S
C506 N513 1.356 . S
C507 C506 1.363 . S
C507 C510 1.363 . S
N508 C510 1.356 . S
N508 H520 0.984 . S
N508 H521 0.985 . S
N509 C511 1.356 . S
N509 H514 0.984 . S
N509 H515 0.985 . S
C510 C504 1.379 . S
C510 C507 1.363 . S
C510 N508 1.356 . S
C511 C505 1.363 . S
C511 C506 1.379 . S
C511 N509 1.356 . S
N512 C504 1.356 . S
N512 H518 0.984 . S
N512 H519 0.984 . S
N513 C506 1.356 . S
N513 H516 0.984 . S
N513 H517 0.985 . S
H514 N509 0.984 . S
H515 N509 0.985 . S
H516 N513 0.984 . S
H517 N513 0.985 . S
H518 N512 0.984 . S
H519 N512 0.984 . S
H520 N508 0.984 . S
H521 N508 0.985 . S
C522 C523 1.363 . S
C522 C528 1.379 . S
C522 N530 1.356 . S
C523 C522 1.363 . S
C523 C529 1.363 . S
C524 C525 1.363 . S
C524 C529 1.379 . S
C524 N531 1.356 . S
C525 C524 1.363 . S
C525 C528 1.363 . S
N526 C528 1.356 . S
N526 H538 0.984 . S
N526 H539 0.985 . S
N527 C529 1.356 . S
N527 H532 0.984 . S
N527 H533 0.985 . S
C528 C522 1.379 . S
C528 C525 1.363 . S
C528 N526 1.356 . S
C529 C523 1.363 . S
C529 C524 1.379 . S
C529 N527 1.356 . S
N530 C522 1.356 . S
N530 H536 0.984 . S
N530 H537 0.984 . S
N531 C524 1.356 . S
N531 H534 0.984 . S
N531 H535 0.985 . S
H532 N527 0.984 . S
H533 N527 0.985 . S
H534 N531 0.984 . S
H535 N531 0.985 . S
H536 N530 0.984 . S
H537 N530 0.984 . S
H538 N526 0.984 . S
H539 N526 0.985 . S
C540 C541 1.363 . S
C540 C546 1.379 . S
C540 N548 1.356 . S
C541 C540 1.363 . S
C541 C547 1.363 . S
C542 C543 1.363 . S
C542 C547 1.379 . S
C542 N549 1.356 . S
C543 C542 1.363 . S
C543 C546 1.363 . S
N544 C546 1.356 . S
N544 H556 0.984 . S
N544 H557 0.985 . S
N545 C547 1.356 . S
N545 H550 0.984 . S
N545 H551 0.985 . S
C546 C540 1.379 . S
C546 C543 1.363 . S
C546 N544 1.356 . S
C547 C541 1.363 . S
C547 C542 1.379 . S
C547 N545 1.356 . S
N548 C540 1.356 . S
N548 H554 0.984 . S
N548 H555 0.984 . S
N549 C542 1.356 . S
N549 H552 0.984 . S
N549 H553 0.985 . S
H550 N545 0.984 . S
H551 N545 0.985 . S
H552 N549 0.984 . S
H553 N549 0.985 . S
H554 N548 0.984 . S
H555 N548 0.984 . S
H556 N544 0.984 . S
H557 N544 0.985 . S
C558 C559 1.363 . S
C558 C564 1.379 . S
C558 N566 1.356 . S
C559 C558 1.363 . S
C559 C565 1.363 . S
C560 C561 1.363 . S
C560 C565 1.379 . S
C560 N567 1.356 . S
C561 C560 1.363 . S
C561 C564 1.363 . S
N562 C564 1.356 . S
N562 H574 0.984 . S
N562 H575 0.985 . S
N563 C565 1.356 . S
N563 H568 0.984 . S
N563 H569 0.985 . S
C564 C558 1.379 . S
C564 C561 1.363 . S
C564 N562 1.356 . S
C565 C559 1.363 . S
C565 C560 1.379 . S
C565 N563 1.356 . S
N566 C558 1.356 . S
N566 H572 0.984 . S
N566 H573 0.984 . S
N567 C560 1.356 . S
N567 H570 0.984 . S
N567 H571 0.985 . S
H568 N563 0.984 . S
H569 N563 0.985 . S
H570 N567 0.984 . S
H571 N567 0.985 . S
H572 N566 0.984 . S
H573 N566 0.984 . S
H574 N562 0.984 . S
H575 N562 0.985 . S
C576 C577 1.363 . S
C576 C582 1.379 . S
C576 N584 1.356 . S
C577 C576 1.363 . S
C577 C583 1.363 . S
C578 C579 1.363 . S
C578 C583 1.379 . S
C578 N585 1.356 . S
C579 C578 1.363 . S
C579 C582 1.363 . S
N580 C582 1.356 . S
N580 H592 0.984 . S
N580 H593 0.985 . S
N581 C583 1.356 . S
N581 H586 0.984 . S
N581 H587 0.985 . S
C582 C576 1.379 . S
C582 C579 1.363 . S
C582 N580 1.356 . S
C583 C577 1.363 . S
C583 C578 1.379 . S
C583 N581 1.356 . S
N584 C576 1.356 . S
N584 H590 0.984 . S
N584 H591 0.984 . S
N585 C578 1.356 . S
N585 H588 0.984 . S
N585 H589 0.985 . S
H586 N581 0.984 . S
H587 N581 0.985 . S
H588 N585 0.984 . S
H589 N585 0.985 . S
H590 N584 0.984 . S
H591 N584 0.984 . S
H592 N580 0.984 . S
H593 N580 0.985 . S
C594 C595 1.363 . S
C594 C600 1.379 . S
C594 N602 1.356 . S
C595 C594 1.363 . S
C595 C601 1.363 . S
C596 C597 1.363 . S
C596 C601 1.379 . S
C596 N603 1.356 . S
C597 C596 1.363 . S
C597 C600 1.363 . S
N598 C600 1.356 . S
N598 H610 0.984 . S
N598 H611 0.985 . S
N599 C601 1.356 . S
N599 H604 0.984 . S
N599 H605 0.985 . S
C600 C594 1.379 . S
C600 C597 1.363 . S
C600 N598 1.356 . S
C601 C595 1.363 . S
C601 C596 1.379 . S
C601 N599 1.356 . S
N602 C594 1.356 . S
N602 H608 0.984 . S
N602 H609 0.984 . S
N603 C596 1.356 . S
N603 H606 0.984 . S
N603 H607 0.985 . S
H604 N599 0.984 . S
H605 N599 0.985 . S
H606 N603 0.984 . S
H607 N603 0.985 . S
H608 N602 0.984 . S
H609 N602 0.984 . S
H610 N598 0.984 . S
H611 N598 0.985 . S
C612 C613 1.363 . S
C612 C618 1.379 . S
C612 N620 1.356 . S
C613 C612 1.363 . S
C613 C619 1.363 . S
C614 C615 1.363 . S
C614 C619 1.379 . S
C614 N621 1.356 1_554 S
C615 C614 1.363 . S
C615 C618 1.363 . S
N616 C618 1.356 . S
N616 H628 0.984 . S
N616 H629 0.985 . S
N617 C619 1.356 1_556 S
N617 H622 0.984 . S
N617 H623 0.985 . S
C618 C612 1.379 . S
C618 C615 1.363 . S
C618 N616 1.356 . S
C619 C613 1.363 . S
C619 C614 1.379 . S
C619 N617 1.356 1_554 S
N620 C612 1.356 . S
N620 H626 0.984 . S
N620 H627 0.984 . S
N621 C614 1.356 1_556 S
N621 H624 0.984 . S
N621 H625 0.985 . S
H622 N617 0.984 . S
H623 N617 0.985 . S
H624 N621 0.984 . S
H625 N621 0.985 . S
H626 N620 0.984 . S
H627 N620 0.984 . S
H628 N616 0.984 . S
H629 N616 0.985 . S
C630 C631 1.363 . S
C630 C636 1.379 . S
C630 N638 1.356 . S
C631 C630 1.363 . S
C631 C637 1.363 1_455 S
C632 C633 1.363 . S
C632 C637 1.379 . S
C632 N639 1.356 . S
C633 C632 1.363 . S
C633 C636 1.363 1_655 S
N634 C636 1.356 . S
N634 H646 0.984 . S
N634 H647 0.985 . S
N635 C637 1.356 . S
N635 H640 0.984 . S
N635 H641 0.985 . S
C636 C630 1.379 . S
C636 C633 1.363 1_455 S
C636 N634 1.356 . S
C637 C631 1.363 1_655 S
C637 C632 1.379 . S
C637 N635 1.356 . S
N638 C630 1.356 . S
N638 H644 0.984 . S
N638 H645 0.984 . S
N639 C632 1.356 . S
N639 H642 0.984 . S
N639 H643 0.985 . S
H640 N635 0.984 . S
H641 N635 0.985 . S
H642 N639 0.984 . S
H643 N639 0.985 . S
H644 N638 0.984 . S
H645 N638 0.984 . S
H646 N634 0.984 . S
H647 N634 0.985 . S
C648 C649 1.363 1_565 S
C648 C654 1.379 . S
C648 N656 1.356 . S
C649 C648 1.363 1_545 S
C649 C655 1.363 . S
C650 C651 1.363 1_545 S
C650 C655 1.379 . S
C650 N657 1.356 . S
C651 C650 1.363 1_565 S
C651 C654 1.363 . S
N652 C654 1.356 . S
N652 H664 0.984 . S
N652 H665 0.985 . S
N653 C655 1.356 . S
N653 H658 0.984 . S
N653 H659 0.985 . S
C654 C648 1.379 . S
C654 C651 1.363 . S
C654 N652 1.356 . S
C655 C649 1.363 . S
C655 C650 1.379 . S
C655 N653 1.356 . S
N656 C648 1.356 . S
N656 H662 0.984 . S
N656 H663 0.984 . S
N657 C650 1.356 . S
N657 H660 0.984 . S
N657 H661 0.985 . S
H658 N653 0.984 . S
H659 N653 0.985 . S
H660 N657 0.984 . S
H661 N657 0.985 . S
H662 N656 0.984 . S
H663 N656 0.984 . S
H664 N652 0.984 . S
H665 N652 0.985 . S
C666 C667 1.363 . S
C666 C672 1.379 . S
C666 N674 1.356 . S
C667 C666 1.363 . S
C667 C673 1.363 . S
C668 C669 1.363 . S
C668 C673 1.379 . S
C668 N675 1.356 . S
C669 C668 1.363 . S
C669 C672 1.363 . S
N670 C672 1.356 . S
N670 H682 0.984 . S
N670 H683 0.985 . S
N671 C673 1.356 . S
N671 H676 0.984 . S
N671 H677 0.985 . S
C672 C666 1.379 . S
C672 C669 1.363 . S
C672 N670 1.356 . S
C673 C667 1.363 . S
C673 C668 1.379 . S
C673 N671 1.356 . S
N674 C666 1.356 . S
N674 H680 0.984 . S
N674 H681 0.984 . S
N675 C668 1.356 . S
N675 H678 0.984 . S
N675 H679 0.985 . S
H676 N671 0.984 . S
H677 N671 0.985 . S
H678 N675 0.984 . S
H679 N675 0.985 . S
H680 N674 0.984 . S
H681 N674 0.984 . S
H682 N670 0.984 . S
H683 N670 0.985 . S
C684 C685 1.363 1_556 S
C684 C690 1.379 . S
C684 N692 1.356 . S
C685 C684 1.363 1_554 S
C685 C691 1.363 1_455 S
C686 C687 1.363 . S
C686 C691 1.379 . S
C686 N693 1.356 . S
C687 C686 1.363 . S
C687 C690 1.363 1_654 S
N688 C690 1.356 . S
N688 H700 0.984 . S
N688 H701 0.985 1_455 S
N689 C691 1.356 . S
N689 H694 0.984 1_655 S
N689 H695 0.985 . S
C690 C684 1.379 . S
C690 C687 1.363 1_456 S
C690 N688 1.356 . S
C691 C685 1.363 1_655 S
C691 C686 1.379 . S
C691 N689 1.356 . S
N692 C684 1.356 . S
N692 H698 0.984 . S
N692 H699 0.984 . S
N693 C686 1.356 . S
N693 H696 0.984 . S
N693 H697 0.985 . S
H694 N689 0.984 1_455 S
H695 N689 0.985 . S
H696 N693 0.984 . S
H697 N693 0.985 . S
H698 N692 0.984 . S
H699 N692 0.984 . S
H700 N688 0.984 . S
H701 N688 0.985 1_655 S
C702 C703 1.363 1_545 S
C702 C708 1.379 . S
C702 N710 1.356 . S
C703 C702 1.363 1_565 S
C703 C709 1.363 . S
C704 C705 1.363 1_565 S
C704 C709 1.379 . S
C704 N711 1.356 . S
C705 C704 1.363 1_545 S
C705 C708 1.363 . S
N706 C708 1.356 . S
N706 H718 0.984 . S
N706 H719 0.985 . S
N707 C709 1.356 . S
N707 H712 0.984 . S
N707 H713 0.985 . S
C708 C702 1.379 . S
C708 C705 1.363 . S
C708 N706 1.356 . S
C709 C703 1.363 . S
C709 C704 1.379 . S
C709 N707 1.356 . S
N710 C702 1.356 . S
N710 H716 0.984 . S
N710 H717 0.984 1_545 S
N711 C704 1.356 . S
N711 H714 0.984 1_565 S
N711 H715 0.985 . S
H712 N707 0.984 . S
H713 N707 0.985 . S
H714 N711 0.984 1_545 S
H715 N711 0.985 . S
H716 N710 0.984 . S
H717 N710 0.984 1_565 S
H718 N706 0.984 . S
H719 N706 0.985 . S
C720 C721 1.363 . S
C720 C726 1.379 . S
C720 N728 1.356 . S
C721 C720 1.363 . S
C721 C727 1.363 . S
C722 C723 1.363 . S
C722 C727 1.379 . S
C722 N729 1.356 . S
C723 C722 1.363 . S
C723 C726 1.363 . S
N724 C726 1.356 . S
N724 H736 0.984 . S
N724 H737 0.985 . S
N725 C727 1.356 . S
N725 H730 0.984 . S
N725 H731 0.985 . S
C726 C720 1.379 . S
C726 C723 1.363 . S
C726 N724 1.356 . S
C727 C721 1.363 . S
C727 C722 1.379 . S
C727 N725 1.356 . S
N728 C720 1.356 . S
N728 H734 0.984 . S
N728 H735 0.984 . S
N729 C722 1.356 . S
N729 H732 0.984 . S
N729 H733 0.985 . S
H730 N725 0.984 . S
H731 N725 0.985 . S
H732 N729 0.984 . S
H733 N729 0.985 . S
H734 N728 0.984 . S
H735 N728 0.984 . S
H736 N724 0.984 . S
H737 N724 0.985 . S
C738 C739 1.363 . S
C738 C744 1.379 . S
C738 N746 1.356 . S
C739 C738 1.363 . S
C739 C745 1.363 . S
C740 C741 1.363 . S
C740 C745 1.379 . S
C740 N747 1.356 . S
C741 C740 1.363 . S
C741 C744 1.363 . S
N742 C744 1.356 . S
N742 H754 0.984 . S
N742 H755 0.985 . S
N743 C745 1.356 . S
N743 H748 0.984 . S
N743 H749 0.985 . S
C744 C738 1.379 . S
C744 C741 1.363 . S
C744 N742 1.356 . S
C745 C739 1.363 . S
C745 C740 1.379 . S
C745 N743 1.356 . S
N746 C738 1.356 . S
N746 H752 0.984 . S
N746 H753 0.984 . S
N747 C740 1.356 . S
N747 H750 0.984 . S
N747 H751 0.985 . S
H748 N743 0.984 . S
H749 N743 0.985 . S
H750 N747 0.984 . S
H751 N747 0.985 . S
H752 N746 0.984 . S
H753 N746 0.984 . S
H754 N742 0.984 . S
H755 N742 0.985 . S
C756 C757 1.363 . S
C756 C762 1.379 . S
C756 N764 1.356 . S
C757 C756 1.363 . S
C757 C763 1.363 . S
C758 C759 1.363 . S
C758 C763 1.379 . S
C758 N765 1.356 . S
C759 C758 1.363 . S
C759 C762 1.363 . S
N760 C762 1.356 . S
N760 H772 0.984 . S
N760 H773 0.985 . S
N761 C763 1.356 . S
N761 H766 0.984 . S
N761 H767 0.985 . S
C762 C756 1.379 . S
C762 C759 1.363 . S
C762 N760 1.356 . S
C763 C757 1.363 . S
C763 C758 1.379 . S
C763 N761 1.356 . S
N764 C756 1.356 . S
N764 H770 0.984 1_545 S
N764 H771 0.984 . S
N765 C758 1.356 . S
N765 H768 0.984 . S
N765 H769 0.985 . S
H766 N761 0.984 . S
H767 N761 0.985 . S
H768 N765 0.984 . S
H769 N765 0.985 . S
H770 N764 0.984 1_565 S
H771 N764 0.984 . S
H772 N760 0.984 . S
H773 N760 0.985 . S
C774 C775 1.363 . S
C774 C780 1.379 . S
C774 N782 1.356 . S
C775 C774 1.363 . S
C775 C781 1.363 . S
C776 C777 1.363 . S
C776 C781 1.379 . S
C776 N783 1.356 . S
C777 C776 1.363 . S
C777 C780 1.363 . S
N778 C780 1.356 . S
N778 H790 0.984 . S
N778 H791 0.985 . S
N779 C781 1.356 . S
N779 H784 0.984 . S
N779 H785 0.985 . S
C780 C774 1.379 . S
C780 C777 1.363 . S
C780 N778 1.356 . S
C781 C775 1.363 . S
C781 C776 1.379 . S
C781 N779 1.356 . S
N782 C774 1.356 . S
N782 H788 0.984 . S
N782 H789 0.984 . S
N783 C776 1.356 . S
N783 H786 0.984 . S
N783 H787 0.985 . S
H784 N779 0.984 . S
H785 N779 0.985 . S
H786 N783 0.984 . S
H787 N783 0.985 . S
H788 N782 0.984 . S
H789 N782 0.984 . S
H790 N778 0.984 . S
H791 N778 0.985 . S
C792 C793 1.363 . S
C792 C798 1.379 . S
C792 N800 1.356 . S
C793 C792 1.363 . S
C793 C799 1.363 . S
C794 C795 1.363 . S
C794 C799 1.379 . S
C794 N801 1.356 . S
C795 C794 1.363 . S
C795 C798 1.363 . S
N796 C798 1.356 . S
N796 H808 0.984 . S
N796 H809 0.985 . S
N797 C799 1.356 . S
N797 H802 0.984 . S
N797 H803 0.985 . S
C798 C792 1.379 . S
C798 C795 1.363 . S
C798 N796 1.356 . S
C799 C793 1.363 . S
C799 C794 1.379 . S
C799 N797 1.356 . S
N800 C792 1.356 . S
N800 H806 0.984 . S
N800 H807 0.984 . S
N801 C794 1.356 . S
N801 H804 0.984 . S
N801 H805 0.985 . S
H802 N797 0.984 . S
H803 N797 0.985 . S
H804 N801 0.984 . S
H805 N801 0.985 . S
H806 N800 0.984 . S
H807 N800 0.984 . S
H808 N796 0.984 . S
H809 N796 0.985 . S
C810 C811 1.363 . S
C810 C816 1.379 . S
C810 N818 1.356 . S
C811 C810 1.363 . S
C811 C817 1.363 . S
C812 C813 1.363 . S
C812 C817 1.379 . S
C812 N819 1.356 . S
C813 C812 1.363 . S
C813 C816 1.363 . S
N814 C816 1.356 . S
N814 H826 0.984 . S
N814 H827 0.985 . S
N815 C817 1.356 . S
N815 H820 0.984 . S
N815 H821 0.985 . S
C816 C810 1.379 . S
C816 C813 1.363 . S
C816 N814 1.356 . S
C817 C811 1.363 . S
C817 C812 1.379 . S
C817 N815 1.356 . S
N818 C810 1.356 . S
N818 H824 0.984 . S
N818 H825 0.984 . S
N819 C812 1.356 . S
N819 H822 0.984 . S
N819 H823 0.985 . S
H820 N815 0.984 . S
H821 N815 0.985 . S
H822 N819 0.984 . S
H823 N819 0.985 . S
H824 N818 0.984 . S
H825 N818 0.984 . S
H826 N814 0.984 . S
H827 N814 0.985 . S
C505 C403 1.283 . S
C507 C69 1.015 . S
C523 C487 1.283 . S
C525 C153 1.015 . S
C541 C67 1.283 . S
C543 C237 1.015 . S
C559 C151 1.283 . S
C561 C321 1.015 . S
C577 C235 1.283 . S
C579 C405 1.015 . S
C595 C319 1.283 . S
C597 C489 1.015 . S
C613 C63 1.804 . S
C615 C315 1.804 . S
C631 C399 1.804 . S
C633 C147 1.804 . S
C649 C483 1.803 . S
C651 C231 1.803 . S
C667 C242 1.870 . S
C669 C494 1.870 . S
C685 C74 1.870 . S
C687 C326 1.870 . S
C703 C410 1.870 . S
C705 C158 1.870 . S
C721 C476 1.233 . S
C723 C58 1.084 . S
C739 C142 1.085 . S
C741 C56 1.233 . S
C757 C226 1.084 . S
C759 C140 1.233 . S
C775 C224 1.233 . S
C777 C310 1.085 . S
C793 C394 1.085 . S
C795 C308 1.233 . S
C811 C478 1.084 . S
C813 C392 1.233 . S
