# Generated by pormake.
# Topology vbr, (6)-cn, num edge types: 1
# Building blocks:
#     Node 0, Type 0, BuildingBlock: IZENUY_clean_sbu_0, # of connection points: 6
#     Node 1, Type 0, BuildingBlock: IZENUY_clean_sbu_0, # of connection points: 6
#     Node 2, Type 0, BuildingBlock: IZENUY_clean_sbu_0, # of connection points: 6
#     Node 3, Type 0, BuildingBlock: IZENUY_clean_sbu_0, # of connection points: 6
#     Node 4, Type 0, BuildingBlock: IZENUY_clean_sbu_0, # of connection points: 6
#     Node 5, Type 0, BuildingBlock: IZENUY_clean_sbu_0, # of connection points: 6
#     Node 6, Type 0, BuildingBlock: IZENUY_clean_sbu_0, # of connection points: 6
#     Node 7, Type 0, BuildingBlock: IZENUY_clean_sbu_0, # of connection points: 6
#     Node 8, Type 0, BuildingBlock: IZENUY_clean_sbu_0, # of connection points: 6
#     Node 9, Type 0, BuildingBlock: IZENUY_clean_sbu_0, # of connection points: 6
#     Node 10, Type 0, BuildingBlock: IZENUY_clean_sbu_0, # of connection points: 6
#     Node 11, Type 0, BuildingBlock: IZENUY_clean_sbu_0, # of connection points: 6
#     Node 12, Type 0, BuildingBlock: IZENUY_clean_sbu_0, # of connection points: 6
#     Node 13, Type 0, BuildingBlock: IZENUY_clean_sbu_0, # of connection points: 6
#     Node 14, Type 0, BuildingBlock: IZENUY_clean_sbu_0, # of connection points: 6
#     Node 15, Type 0, BuildingBlock: IZENUY_clean_sbu_0, # of connection points: 6
#     Edge 16, Type (0, 0), BuildingBlock: EZIPEK_clean_linker_0, # of connection points: 2
#     Edge 17, Type (0, 0), BuildingBlock: EZIPEK_clean_linker_0, # of connection points: 2
#     Edge 18, Type (0, 0), BuildingBlock: EZIPEK_clean_linker_0, # of connection points: 2
#     Edge 19, Type (0, 0), BuildingBlock: EZIPEK_clean_linker_0, # of connection points: 2
#     Edge 20, Type (0, 0), BuildingBlock: EZIPEK_clean_linker_0, # of connection points: 2
#     Edge 21, Type (0, 0), BuildingBlock: EZIPEK_clean_linker_0, # of connection points: 2
#     Edge 22, Type (0, 0), BuildingBlock: EZIPEK_clean_linker_0, # of connection points: 2
#     Edge 23, Type (0, 0), BuildingBlock: EZIPEK_clean_linker_0, # of connection points: 2
#     Edge 24, Type (0, 0), BuildingBlock: EZIPEK_clean_linker_0, # of connection points: 2
#     Edge 25, Type (0, 0), BuildingBlock: EZIPEK_clean_linker_0, # of connection points: 2
#     Edge 26, Type (0, 0), BuildingBlock: EZIPEK_clean_linker_0, # of connection points: 2
#     Edge 27, Type (0, 0), BuildingBlock: EZIPEK_clean_linker_0, # of connection points: 2
#     Edge 28, Type (0, 0), BuildingBlock: EZIPEK_clean_linker_0, # of connection points: 2
#     Edge 29, Type (0, 0), BuildingBlock: EZIPEK_clean_linker_0, # of connection points: 2
#     Edge 30, Type (0, 0), BuildingBlock: EZIPEK_clean_linker_0, # of connection points: 2
#     Edge 31, Type (0, 0), BuildingBlock: EZIPEK_clean_linker_0, # of connection points: 2
#     Edge 32, Type (0, 0), BuildingBlock: EZIPEK_clean_linker_0, # of connection points: 2
#     Edge 33, Type (0, 0), BuildingBlock: EZIPEK_clean_linker_0, # of connection points: 2
#     Edge 34, Type (0, 0), BuildingBlock: EZIPEK_clean_linker_0, # of connection points: 2
#     Edge 35, Type (0, 0), BuildingBlock: EZIPEK_clean_linker_0, # of connection points: 2
#     Edge 36, Type (0, 0), BuildingBlock: EZIPEK_clean_linker_0, # of connection points: 2
#     Edge 37, Type (0, 0), BuildingBlock: EZIPEK_clean_linker_0, # of connection points: 2
#     Edge 38, Type (0, 0), BuildingBlock: EZIPEK_clean_linker_0, # of connection points: 2
#     Edge 39, Type (0, 0), BuildingBlock: EZIPEK_clean_linker_0, # of connection points: 2
#     Edge 40, Type (0, 0), BuildingBlock: EZIPEK_clean_linker_0, # of connection points: 2
#     Edge 41, Type (0, 0), BuildingBlock: EZIPEK_clean_linker_0, # of connection points: 2
#     Edge 42, Type (0, 0), BuildingBlock: EZIPEK_clean_linker_0, # of connection points: 2
#     Edge 43, Type (0, 0), BuildingBlock: EZIPEK_clean_linker_0, # of connection points: 2
#     Edge 44, Type (0, 0), BuildingBlock: EZIPEK_clean_linker_0, # of connection points: 2
#     Edge 45, Type (0, 0), BuildingBlock: EZIPEK_clean_linker_0, # of connection points: 2
#     Edge 46, Type (0, 0), BuildingBlock: EZIPEK_clean_linker_0, # of connection points: 2
#     Edge 47, Type (0, 0), BuildingBlock: EZIPEK_clean_linker_0, # of connection points: 2
#     Edge 48, Type (0, 0), BuildingBlock: EZIPEK_clean_linker_0, # of connection points: 2
#     Edge 49, Type (0, 0), BuildingBlock: EZIPEK_clean_linker_0, # of connection points: 2
#     Edge 50, Type (0, 0), BuildingBlock: EZIPEK_clean_linker_0, # of connection points: 2
#     Edge 51, Type (0, 0), BuildingBlock: EZIPEK_clean_linker_0, # of connection points: 2
#     Edge 52, Type (0, 0), BuildingBlock: EZIPEK_clean_linker_0, # of connection points: 2
#     Edge 53, Type (0, 0), BuildingBlock: EZIPEK_clean_linker_0, # of connection points: 2
#     Edge 54, Type (0, 0), BuildingBlock: EZIPEK_clean_linker_0, # of connection points: 2
#     Edge 55, Type (0, 0), BuildingBlock: EZIPEK_clean_linker_0, # of connection points: 2
#     Edge 56, Type (0, 0), BuildingBlock: EZIPEK_clean_linker_0, # of connection points: 2
#     Edge 57, Type (0, 0), BuildingBlock: EZIPEK_clean_linker_0, # of connection points: 2
#     Edge 58, Type (0, 0), BuildingBlock: EZIPEK_clean_linker_0, # of connection points: 2
#     Edge 59, Type (0, 0), BuildingBlock: EZIPEK_clean_linker_0, # of connection points: 2
#     Edge 60, Type (0, 0), BuildingBlock: EZIPEK_clean_linker_0, # of connection points: 2
#     Edge 61, Type (0, 0), BuildingBlock: EZIPEK_clean_linker_0, # of connection points: 2
#     Edge 62, Type (0, 0), BuildingBlock: EZIPEK_clean_linker_0, # of connection points: 2
#     Edge 63, Type (0, 0), BuildingBlock: EZIPEK_clean_linker_0, # of connection points: 2
# Relax obj value: 0.289
# Max RMSD: 0.272
# Mean RMSD: 0.272
data_MOF--net-vbr--node1-IZENUY_clean_sbu_0--edge1-EZIPEK_clean_linker_0
_symmetry_space_group_name_H-M    P1
_symmetry_Int_Tables_number       1
_symmetry_cell_setting            triclinic
loop_
_symmetry_equiv_pos_as_xyz
'x, y, z'
_cell_length_a     32.095431
_cell_length_b     21.213528
_cell_length_c     40.395907
_cell_angle_alpha  90.178166
_cell_angle_beta   89.804921
_cell_angle_gamma 90.105128
loop_
_atom_site_label
_atom_site_type_symbol
_atom_site_fract_x
_atom_site_fract_y
_atom_site_fract_z
_atom_type_partial_charge
Fe0 Fe 0.36677 0.1956 0.10662 0.0
Fe1 Fe 0.35885 0.07582 0.14735 0.0
O2 O 0.33697 0.14617 0.1326 0.0
Fe3 Fe 0.28485 0.16621 0.14258 0.0
O4 O 0.26974 0.16416 0.09959 0.0
O5 O 0.32218 0.22363 0.0836 0.0
O6 O 0.37036 0.13485 0.07554 0.0
C7 C 0.38496 0.08056 0.07941 0.0
C8 C 0.32809 0.28558 0.14197 0.0
O9 O 0.39049 0.06018 0.10881 0.0
C10 C 0.30876 0.12285 0.20233 0.0
O11 O 0.41765 0.17476 0.12463 0.0
O12 O 0.40082 0.11811 0.16787 0.0
O13 O 0.29483 0.25262 0.14107 0.0
O14 O 0.36303 0.26077 0.13569 0.0
C15 C 0.28127 0.0319 0.13511 0.0
O16 O 0.32978 0.07915 0.18804 0.0
O17 O 0.29633 0.16962 0.18606 0.0
C18 C 0.42723 0.15024 0.15211 0.0
O19 O 0.31901 0.02915 0.12739 0.0
O20 O 0.26601 0.08325 0.14605 0.0
C21 C 0.28705 0.19916 0.0786 0.0
Fe22 Fe 0.25134 0.8619 0.64413 0.0
Fe23 Fe 0.16725 0.83279 0.6105 0.0
O24 O 0.19979 0.88613 0.63346 0.0
Fe25 Fe 0.18169 0.96229 0.6454 0.0
O26 O 0.22683 1.00394 0.62921 0.0
O27 O 0.27586 0.94071 0.64565 0.0
O28 O 0.26611 0.85518 0.60081 0.0
C29 C 0.24705 0.81912 0.5809 0.0
C30 C 0.22453 0.91312 0.70326 0.0
O31 O 0.21043 0.80004 0.58679 0.0
C32 C 0.107 0.89491 0.65082 0.0
O33 O 0.2391 0.77755 0.64562 0.0
O34 O 0.1714 0.77041 0.64166 0.0
O35 O 0.20474 0.95673 0.68803 0.0
O36 O 0.23943 0.86642 0.68768 0.0
C37 C 0.15588 0.94711 0.57691 0.0
O38 O 0.11769 0.85662 0.62857 0.0
O39 O 0.13315 0.93228 0.66338 0.0
C40 C 0.20608 0.74523 0.64812 0.0
O41 O 0.16035 0.88812 0.57721 0.0
O42 O 0.15806 0.9786 0.60398 0.0
C43 C 0.26422 0.99463 0.63652 0.0
Fe44 Fe 0.35579 0.94845 0.8854 0.0
Fe45 Fe 0.28528 0.85022 0.89168 0.0
O46 O 0.3367 0.87576 0.9007 0.0
Fe47 Fe 0.36893 0.82876 0.92624 0.0
O48 O 0.37063 0.89003 0.95722 0.0
O49 O 0.38633 0.96754 0.92391 0.0
O50 O 0.31365 0.99276 0.9038 0.0
C51 C 0.27575 0.98426 0.89746 0.0
C52 C 0.42717 0.87996 0.88054 0.0
O53 O 0.26226 0.93027 0.88909 0.0
C54 C 0.33342 0.73483 0.89121 0.0
O55 O 0.32737 0.94173 0.84517 0.0
O56 O 0.29555 0.85015 0.84759 0.0
O57 O 0.41852 0.85403 0.90779 0.0
O58 O 0.39997 0.91081 0.86518 0.0
C59 C 0.29102 0.81707 0.9564 0.0
O60 O 0.29908 0.76496 0.89229 0.0
O61 O 0.36743 0.76277 0.89735 0.0
C62 C 0.30759 0.89713 0.8308 0.0
O63 O 0.27114 0.84916 0.93549 0.0
O64 O 0.32652 0.79567 0.95003 0.0
C65 C 0.38309 0.94569 0.95328 0.0
Fe66 Fe 0.16117 0.18963 0.41964 0.0
Fe67 Fe 0.17981 0.06915 0.38156 0.0
O68 O 0.19771 0.14063 0.3993 0.0
Fe69 Fe 0.25066 0.16208 0.3959 0.0
O70 O 0.25297 0.20056 0.43729 0.0
O71 O 0.18951 0.19034 0.4577 0.0
O72 O 0.13234 0.12139 0.43761 0.0
C73 C 0.14713 0.06771 0.44503 0.0
C74 C 0.21569 0.27836 0.38827 0.0
O75 O 0.16927 0.03928 0.42347 0.0
C76 C 0.22905 0.11676 0.33197 0.0
O77 O 0.12995 0.19455 0.38241 0.0
O78 O 0.12482 0.09379 0.37658 0.0
O79 O 0.23775 0.23568 0.37592 0.0
O80 O 0.18537 0.26446 0.407 0.0
C81 C 0.26087 0.03524 0.40123 0.0
O82 O 0.19241 0.09781 0.3397 0.0
O83 O 0.25591 0.12983 0.35398 0.0
C84 C 0.10916 0.14799 0.37309 0.0
O85 O 0.22961 0.02846 0.38291 0.0
O86 O 0.26871 0.08804 0.41461 0.0
C87 C 0.22694 0.20575 0.46095 0.0
Fe88 Fe 0.67321 0.95742 0.88626 0.0
Fe89 Fe 0.66296 0.83444 0.92644 0.0
O90 O 0.69464 0.8866 0.90231 0.0
Fe91 Fe 0.74832 0.86851 0.89487 0.0
O92 O 0.76696 0.95172 0.89199 0.0
O93 O 0.71232 1.00621 0.90556 0.0
O94 O 0.64187 0.97579 0.92433 0.0
C95 C 0.64206 0.9508 0.95306 0.0
C96 C 0.7261 0.90912 0.83327 0.0
O97 O 0.65198 0.89423 0.95675 0.0
C98 C 0.71062 0.74564 0.89467 0.0
O99 O 0.63114 0.91622 0.86554 0.0
O100 O 0.61407 0.84996 0.90472 0.0
O101 O 0.74091 0.86606 0.85092 0.0
O102 O 0.70248 0.95152 0.84587 0.0
C103 C 0.74069 0.83027 0.9594 0.0
O104 O 0.67375 0.76607 0.89954 0.0
O105 O 0.74076 0.78359 0.89445 0.0
C106 C 0.60466 0.88154 0.87941 0.0
O107 O 0.70432 0.81292 0.95336 0.0
O108 O 0.76014 0.86566 0.93912 0.0
C109 C 0.75003 1.00451 0.89821 0.0
Fe110 Fe 0.86635 0.19416 0.42458 0.0
Fe111 Fe 0.78459 0.16636 0.38882 0.0
O112 O 0.83628 0.14359 0.39892 0.0
Fe113 Fe 0.85737 0.07043 0.38513 0.0
O114 O 0.8844 0.0541 0.4251 0.0
O115 O 0.86761 0.13462 0.45658 0.0
O116 O 0.82305 0.22827 0.44666 0.0
C117 C 0.7878 0.20605 0.45292 0.0
C118 C 0.92908 0.14033 0.38333 0.0
O119 O 0.76934 0.17036 0.43257 0.0
C120 C 0.81088 0.11753 0.3288 0.0
O121 O 0.865 0.25786 0.39441 0.0
O122 O 0.79707 0.25077 0.38814 0.0
O123 O 0.90408 0.10624 0.36723 0.0
O124 O 0.91664 0.17034 0.40838 0.0
C125 C 0.77609 0.0335 0.39528 0.0
O126 O 0.79577 0.16364 0.34484 0.0
O127 O 0.83261 0.07571 0.34347 0.0
C128 C 0.83047 0.28297 0.3872 0.0
O129 O 0.76239 0.0868 0.38705 0.0
O130 O 0.81403 0.02529 0.40147 0.0
C131 C 0.87964 0.07826 0.45385 0.0
Fe132 Fe 0.68079 0.06788 0.1501 0.0
Fe133 Fe 0.66268 0.18758 0.10942 0.0
O134 O 0.69879 0.1394 0.13207 0.0
Fe135 Fe 0.7527 0.15957 0.13552 0.0
O136 O 0.77095 0.08314 0.1188 0.0
O137 O 0.7292 0.02475 0.14839 0.0
O138 O 0.66888 0.03723 0.10808 0.0
C139 C 0.6477 0.06491 0.08574 0.0
C140 C 0.73085 0.11385 0.19997 0.0
O141 O 0.63465 0.12049 0.09064 0.0
C142 C 0.71741 0.27901 0.13986 0.0
O143 O 0.62749 0.09375 0.15652 0.0
O144 O 0.62556 0.19272 0.14343 0.0
O145 O 0.75686 0.13144 0.17815 0.0
O146 O 0.69422 0.09529 0.19216 0.0
C147 C 0.73219 0.20015 0.0704 0.0
O148 O 0.68592 0.26291 0.12292 0.0
O149 O 0.74164 0.23819 0.15204 0.0
C150 C 0.60779 0.14468 0.15522 0.0
O151 O 0.69412 0.18782 0.07265 0.0
O152 O 0.75691 0.19218 0.09413 0.0
C153 C 0.76135 0.03031 0.13113 0.0
Fe154 Fe 0.86896 0.82782 0.6076 0.0
Fe155 Fe 0.78382 0.84967 0.64091 0.0
O156 O 0.83582 0.87547 0.63276 0.0
Fe157 Fe 0.8544 0.94893 0.6481 0.0
O158 O 0.88347 0.96889 0.60926 0.0
O159 O 0.87129 0.88862 0.57646 0.0
O160 O 0.82741 0.79362 0.58353 0.0
C161 C 0.79184 0.81367 0.57669 0.0
C162 C 0.92775 0.88381 0.65184 0.0
O163 O 0.77135 0.84677 0.59691 0.0
C164 C 0.80479 0.89797 0.70201 0.0
O165 O 0.86659 0.76178 0.63659 0.0
O166 O 0.79805 0.7647 0.64125 0.0
O167 O 0.9001 0.91387 0.66737 0.0
O168 O 0.91857 0.85383 0.62584 0.0
C169 C 0.77295 0.98348 0.63582 0.0
O170 O 0.7916 0.85171 0.68513 0.0
O171 O 0.82755 0.94015 0.68862 0.0
C172 C 0.8322 0.7342 0.64259 0.0
O173 O 0.75978 0.92876 0.64259 0.0
O174 O 0.81116 0.9934 0.631 0.0
C175 C 0.88167 0.94547 0.58019 0.0
Fe176 Fe 0.87929 0.68886 0.11274 0.0
Fe177 Fe 0.86045 0.56704 0.14949 0.0
O178 O 0.84255 0.6395 0.13306 0.0
Fe179 Fe 0.78953 0.66069 0.13716 0.0
O180 O 0.78668 0.69637 0.09594 0.0
O181 O 0.85034 0.69146 0.0751 0.0
O182 O 0.90754 0.62128 0.09365 0.0
C183 C 0.89172 0.5686 0.08521 0.0
C184 C 0.82507 0.7785 0.14362 0.0
O185 O 0.86986 0.53916 0.10667 0.0
C186 C 0.81229 0.61402 0.20074 0.0
O187 O 0.91122 0.69186 0.14972 0.0
O188 O 0.91578 0.5909 0.15386 0.0
O189 O 0.80202 0.73651 0.15587 0.0
O190 O 0.85602 0.76376 0.12591 0.0
C191 C 0.77849 0.53313 0.13177 0.0
O192 O 0.84858 0.59406 0.19218 0.0
O193 O 0.7854 0.62987 0.17932 0.0
C194 C 0.93222 0.64468 0.15756 0.0
O195 O 0.8107 0.52581 0.1488 0.0
O196 O 0.77053 0.58616 0.11909 0.0
C197 C 0.81262 0.70545 0.07271 0.0
Fe198 Fe 0.67089 0.32778 0.60543 0.0
Fe199 Fe 0.68353 0.44703 0.64772 0.0
O200 O 0.70288 0.37484 0.63151 0.0
Fe201 Fe 0.75464 0.34972 0.63992 0.0
O202 O 0.76855 0.35053 0.59597 0.0
O203 O 0.71346 0.29636 0.58125 0.0
O204 O 0.66872 0.38995 0.5753 0.0
C205 C 0.65665 0.44568 0.57981 0.0
C206 C 0.70726 0.2333 0.63946 0.0
O207 O 0.65415 0.46766 0.6092 0.0
C208 C 0.73133 0.39277 0.70167 0.0
O209 O 0.62083 0.35147 0.62367 0.0
O210 O 0.63783 0.4094 0.66648 0.0
O211 O 0.74132 0.26427 0.63829 0.0
O212 O 0.67294 0.26054 0.63353 0.0
C213 C 0.76453 0.48426 0.63652 0.0
O214 O 0.71105 0.43767 0.68812 0.0
O215 O 0.74467 0.34771 0.684 0.0
C216 C 0.61078 0.37933 0.65014 0.0
O217 O 0.72644 0.49315 0.63086 0.0
O218 O 0.77776 0.4297 0.64368 0.0
C219 C 0.74863 0.31885 0.57475 0.0
Fe220 Fe 0.86872 0.3366 0.91872 0.0
Fe221 Fe 0.85334 0.46225 0.88414 0.0
O222 O 0.83421 0.38719 0.89733 0.0
Fe223 Fe 0.7821 0.36443 0.88815 0.0
O224 O 0.77281 0.32465 0.92736 0.0
O225 O 0.834 0.32359 0.95227 0.0
O226 O 0.89069 0.40276 0.94427 0.0
C227 C 0.87671 0.45815 0.95039 0.0
C228 C 0.82306 0.24941 0.87873 0.0
O229 O 0.85756 0.48822 0.92775 0.0
C230 C 0.81296 0.41841 0.82841 0.0
O231 O 0.90681 0.341 0.88563 0.0
O232 O 0.90971 0.44218 0.88381 0.0
O233 O 0.79756 0.29055 0.86885 0.0
O234 O 0.85096 0.26378 0.89933 0.0
C235 C 0.76853 0.49022 0.89605 0.0
O236 O 0.8477 0.43841 0.84017 0.0
O237 O 0.78362 0.39964 0.84703 0.0
C238 C 0.92766 0.38962 0.88073 0.0
O239 O 0.80277 0.501 0.88199 0.0
O240 O 0.76009 0.43589 0.90667 0.0
C241 C 0.79559 0.31312 0.95197 0.0
Fe242 Fe 0.6748 0.69451 0.42742 0.0
Fe243 Fe 0.68114 0.57379 0.38637 0.0
O244 O 0.70377 0.6446 0.40111 0.0
Fe245 Fe 0.75634 0.66453 0.39178 0.0
O246 O 0.77099 0.66321 0.43544 0.0
O247 O 0.71905 0.72384 0.45005 0.0
O248 O 0.6717 0.63378 0.45842 0.0
C249 C 0.65756 0.57893 0.45467 0.0
C250 C 0.71293 0.78353 0.39148 0.0
O251 O 0.65146 0.55767 0.42545 0.0
C252 C 0.73217 0.62106 0.33129 0.0
O253 O 0.62415 0.67424 0.41045 0.0
O254 O 0.63634 0.61348 0.36768 0.0
O255 O 0.74629 0.75098 0.39297 0.0
O256 O 0.67807 0.75884 0.39812 0.0
C257 C 0.75957 0.53018 0.3978 0.0
O258 O 0.70915 0.5787 0.34499 0.0
O259 O 0.74582 0.66696 0.34798 0.0
C260 C 0.61153 0.64718 0.3845 0.0
O261 O 0.72174 0.52708 0.40497 0.0
O262 O 0.77533 0.58196 0.3882 0.0
C263 C 0.75302 0.69791 0.45644 0.0
Fe264 Fe 0.18482 0.45361 0.88329 0.0
Fe265 Fe 0.16568 0.33631 0.92424 0.0
O266 O 0.20245 0.38152 0.90134 0.0
Fe267 Fe 0.25533 0.35733 0.89661 0.0
O268 O 0.2768 0.43405 0.90942 0.0
O269 O 0.23478 0.49372 0.88136 0.0
O270 O 0.17677 0.48722 0.92529 0.0
C271 C 0.15438 0.46152 0.94769 0.0
C272 C 0.23034 0.39942 0.8321 0.0
O273 O 0.14107 0.40619 0.94289 0.0
C274 C 0.21484 0.23858 0.89643 0.0
O275 O 0.12874 0.43265 0.88078 0.0
O276 O 0.13025 0.33251 0.88934 0.0
O277 O 0.25657 0.37929 0.85304 0.0
O278 O 0.1949 0.42217 0.84112 0.0
C279 C 0.23669 0.32291 0.96254 0.0
O280 O 0.18361 0.25973 0.91131 0.0
O281 O 0.24223 0.27547 0.88437 0.0
C282 C 0.11034 0.38004 0.88053 0.0
O283 O 0.19799 0.33265 0.96059 0.0
O284 O 0.26135 0.33275 0.93891 0.0
C285 C 0.26818 0.4866 0.89674 0.0
Fe286 Fe 0.28717 0.66022 0.39591 0.0
Fe287 Fe 0.36236 0.57412 0.38058 0.0
O288 O 0.34135 0.64359 0.3993 0.0
Fe289 Fe 0.37586 0.69422 0.4213 0.0
O290 O 0.34566 0.69316 0.45865 0.0
O291 O 0.28211 0.69233 0.43803 0.0
O292 O 0.27144 0.58211 0.41166 0.0
C293 C 0.28252 0.53069 0.39833 0.0
C294 C 0.31938 0.78183 0.39149 0.0
O295 O 0.31457 0.52846 0.38058 0.0
C296 C 0.43125 0.65775 0.37501 0.0
O297 O 0.28476 0.63256 0.3529 0.0
O298 O 0.34925 0.60328 0.33886 0.0
O299 O 0.35099 0.76757 0.40834 0.0
O300 O 0.29551 0.73981 0.37987 0.0
C301 C 0.39253 0.57166 0.445 0.0
O302 O 0.41644 0.6028 0.37665 0.0
O303 O 0.40952 0.70255 0.38531 0.0
C304 C 0.31195 0.61892 0.33104 0.0
O305 O 0.37338 0.54253 0.42204 0.0
O306 O 0.40528 0.62766 0.43988 0.0
C307 C 0.30739 0.70375 0.46132 0.0
Fe308 Fe 0.18333 0.57344 0.14682 0.0
Fe309 Fe 0.17353 0.69659 0.10818 0.0
O310 O 0.20433 0.64598 0.13297 0.0
Fe311 Fe 0.25608 0.66854 0.14256 0.0
O312 O 0.27778 0.58858 0.14376 0.0
O313 O 0.22567 0.52747 0.12918 0.0
O314 O 0.15429 0.55822 0.107 0.0
C315 C 0.15877 0.58266 0.07819 0.0
C316 C 0.23116 0.61987 0.20268 0.0
O317 O 0.17206 0.63822 0.07581 0.0
C318 C 0.2103 0.78481 0.14572 0.0
O319 O 0.13885 0.61197 0.1666 0.0
O320 O 0.12298 0.67118 0.12462 0.0
O321 O 0.24572 0.66618 0.18664 0.0
O322 O 0.20979 0.57742 0.18794 0.0
C323 C 0.25137 0.70799 0.07877 0.0
O324 O 0.17556 0.75952 0.13897 0.0
O325 O 0.24375 0.75296 0.14373 0.0
C326 C 0.11253 0.6443 0.15119 0.0
O327 O 0.21665 0.73126 0.08593 0.0
O328 O 0.27023 0.67227 0.09869 0.0
C329 C 0.26379 0.53527 0.13535 0.0
Fe330 Fe 0.35947 0.45648 0.64636 0.0
Fe331 Fe 0.36781 0.33681 0.6035 0.0
O332 O 0.33799 0.38526 0.63086 0.0
Fe333 Fe 0.28645 0.3622 0.64203 0.0
O334 O 0.26533 0.44415 0.64635 0.0
O335 O 0.3173 0.50355 0.63047 0.0
O336 O 0.38702 0.47655 0.6063 0.0
C337 C 0.38267 0.45419 0.57693 0.0
C338 C 0.31164 0.40559 0.70204 0.0
O339 O 0.37022 0.39842 0.57262 0.0
C340 C 0.33182 0.24447 0.63991 0.0
O341 O 0.40467 0.41636 0.66372 0.0
O342 O 0.41931 0.35922 0.62001 0.0
O343 O 0.29883 0.35945 0.68534 0.0
O344 O 0.33347 0.44907 0.68832 0.0
C345 C 0.28604 0.32554 0.57817 0.0
O346 O 0.36607 0.27044 0.63215 0.0
O347 O 0.29828 0.27648 0.64049 0.0
C348 C 0.43061 0.38558 0.64665 0.0
O349 O 0.32282 0.30596 0.58119 0.0
O350 O 0.26974 0.362 0.5992 0.0
C351 C 0.2796 0.49794 0.63803 0.0
C352 C 0.27906 0.19653 0.01901 0.0
C353 C 0.26517 0.22088 0.04953 0.0
C354 C 0.24012 0.31677 0.0235 0.0
C355 C 0.25247 0.292 0.99246 0.0
N356 N 0.29093 0.21304 0.96066 0.0
N357 N 0.22768 0.29736 0.0818 0.0
C358 C 0.27434 0.23336 0.99009 0.0
C359 C 0.244 0.27893 0.05201 0.0
N360 N 0.29649 0.13761 0.0182 0.0
N361 N 0.22764 0.37818 0.02581 0.0
H362 H 0.22907 0.26891 0.10277 0.0
H363 H 0.20978 0.33766 0.08522 0.0
H364 H 0.22632 0.40814 1.00539 0.0
H365 H 0.22355 0.40159 0.0482 0.0
H366 H 0.30727 0.11472 0.99711 0.0
H367 H 0.29789 0.10899 0.03915 0.0
H368 H 0.30962 0.17349 0.95794 0.0
H369 H 0.28774 0.23566 0.93815 0.0
C370 C 0.30738 0.79626 0.50072 0.0
C371 C 0.29272 0.73473 0.49189 0.0
C372 C 0.26137 0.7253 0.54605 0.0
C373 C 0.26846 0.79017 0.5523 0.0
N374 N 0.29197 0.89094 0.5318 0.0
N375 N 0.24553 0.64866 0.50406 0.0
C376 C 0.28989 0.82691 0.52866 0.0
C377 C 0.26622 0.70179 0.51373 0.0
N378 N 0.33791 0.82571 0.48297 0.0
N379 N 0.25221 0.68543 0.57138 0.0
H380 H 0.24682 0.63093 0.48001 0.0
H381 H 0.22372 0.62625 0.51921 0.0
H382 H 0.25443 0.7003 0.59586 0.0
H383 H 0.24888 0.63691 0.5682 0.0
H384 H 0.3518 0.86774 0.49061 0.0
H385 H 0.35251 0.80567 0.46268 0.0
H386 H 0.30389 0.92023 0.51338 0.0
H387 H 0.278 0.91526 0.55124 0.0
C388 C 0.28317 0.79441 0.04725 0.0
C389 C 0.26983 0.7306 0.04787 0.0
C390 C 0.25821 0.73168 0.98808 0.0
C391 C 0.27246 0.79495 0.98737 0.0
N392 N 0.29706 0.88849 1.01467 0.0
N393 N 0.24568 0.63688 0.02048 0.0
C394 C 0.28413 0.82711 0.01666 0.0
C395 C 0.25806 0.69853 0.01856 0.0
N396 N 0.29376 0.82352 0.07632 0.0
N397 N 0.24558 0.70374 0.95924 0.0
H398 H 0.24771 0.6111 0.04238 0.0
H399 H 0.23421 0.61045 1.00083 0.0
H400 H 0.24299 0.72892 0.9372 0.0
H401 H 0.23666 0.65686 0.95684 0.0
H402 H 0.30008 0.87135 0.07886 0.0
H403 H 0.2963 0.79881 0.09851 0.0
H404 H 0.30875 0.91468 0.03433 0.0
H405 H 0.2957 0.91399 0.99264 0.0
C406 C 0.26056 0.33358 0.5208 0.0
C407 C 0.26184 0.29979 0.55062 0.0
C408 C 0.23866 0.20367 0.52227 0.0
C409 C 0.23837 0.23781 0.49218 0.0
N410 N 0.22576 0.34091 0.46897 0.0
N411 N 0.24006 0.20973 0.58237 0.0
C412 C 0.24298 0.30447 0.49288 0.0
C413 C 0.24696 0.23677 0.55224 0.0
N414 N 0.27572 0.39365 0.51912 0.0
N415 N 0.23078 0.14028 0.52205 0.0
H416 H 0.24322 0.23517 0.6043 0.0
H417 H 0.22717 0.16518 0.58572 0.0
H418 H 0.2255 0.11478 0.50034 0.0
H419 H 0.23063 0.11216 0.54306 0.0
H420 H 0.27925 0.41785 0.49687 0.0
H421 H 0.28663 0.41777 0.53983 0.0
H422 H 0.22571 0.39004 0.46974 0.0
H423 H 0.20486 0.32224 0.45226 0.0
C424 C 0.79526 0.82657 1.00498 0.0
C425 C 0.7612 0.79792 0.98803 0.0
C426 C 0.76708 0.70432 0.02425 0.0
C427 C 0.7983 0.73509 0.04213 0.0
N428 N 0.84097 0.82694 0.05235 0.0
N429 N 0.71121 0.70866 0.98626 0.0
C430 C 0.81255 0.79611 0.03302 0.0
C431 C 0.74597 0.73697 0.9991 0.0
N432 N 0.81107 0.88336 0.99501 0.0
N433 N 0.75894 0.64181 0.03014 0.0
H434 H 0.70121 0.71184 0.96198 0.0
H435 H 0.69318 0.67709 0.99996 0.0
H436 H 0.77511 0.61513 0.04753 0.0
H437 H 0.73911 0.61433 1.01567 0.0
H438 H 0.84042 0.89972 1.00189 0.0
H439 H 0.79564 0.91469 0.97969 0.0
H440 H 0.84678 0.87517 0.05102 0.0
H441 H 0.85775 0.8051 0.07093 0.0
C442 C 0.78169 0.23311 0.54336 0.0
C443 C 0.76737 0.29625 0.54379 0.0
C444 C 0.7555 0.29293 0.48399 0.0
C445 C 0.76894 0.2292 0.48368 0.0
N446 N 0.79487 0.13763 0.5115 0.0
N447 N 0.74285 0.38866 0.51596 0.0
C448 C 0.78152 0.19876 0.51313 0.0
C449 C 0.75527 0.32706 0.51433 0.0
N450 N 0.79438 0.2062 0.57232 0.0
N451 N 0.74418 0.3206 0.45483 0.0
H452 H 0.74456 0.41488 0.53784 0.0
H453 H 0.73166 0.4145 0.4961 0.0
H454 H 0.74148 0.29487 0.43288 0.0
H455 H 0.73722 0.36809 0.452 0.0
H456 H 0.80152 0.15882 0.57521 0.0
H457 H 0.79798 0.23242 0.59401 0.0
H458 H 0.8083 0.11324 0.53097 0.0
H459 H 0.79222 0.11059 0.48997 0.0
C460 C 0.73016 0.28628 0.02823 0.0
C461 C 0.74785 0.22867 0.03977 0.0
C462 C 0.79273 0.22375 0.99127 0.0
C463 C 0.7776 0.28344 0.98127 0.0
N464 N 0.73934 0.37824 0.99367 0.0
N465 N 0.80265 0.15027 0.03574 0.0
C466 C 0.7482 0.31658 1.00057 0.0
C467 C 0.78131 0.19991 0.0225 0.0
N468 N 0.69652 0.31285 0.04366 0.0
N469 N 0.81672 0.18839 0.97034 0.0
H470 H 0.79401 0.12724 0.05739 0.0
H471 H 0.83079 0.13399 0.02605 0.0
H472 H 0.82561 0.2039 0.94706 0.0
H473 H 0.82428 0.1414 0.97471 0.0
H474 H 0.67937 0.34956 0.03343 0.0
H475 H 0.6838 0.29656 0.06565 0.0
H476 H 0.72237 0.40739 1.00951 0.0
H477 H 0.75224 0.40236 0.97364 0.0
C478 C 0.78844 0.78209 0.48664 0.0
C479 C 0.77284 0.71956 0.4869 0.0
C480 C 0.75895 0.72638 0.54633 0.0
C481 C 0.77414 0.78916 0.54596 0.0
N482 N 0.80096 0.87931 0.51722 0.0
N483 N 0.74454 0.63013 0.51537 0.0
C484 C 0.78785 0.81795 0.51634 0.0
C485 C 0.75898 0.6908 0.51651 0.0
N486 N 0.80242 0.807 0.45746 0.0
N487 N 0.74524 0.7012 0.57553 0.0
H488 H 0.74669 0.6026 0.49395 0.0
H489 H 0.73108 0.60642 0.53516 0.0
H490 H 0.74216 0.72829 0.59698 0.0
H491 H 0.7365 0.65446 0.5788 0.0
H492 H 0.81105 0.85372 0.45402 0.0
H493 H 0.80586 0.77948 0.43617 0.0
H494 H 0.81318 0.90368 0.49718 0.0
H495 H 0.79835 0.90711 0.5385 0.0
C496 C 0.40271 0.94807 1.01422 0.0
C497 C 0.3949 0.98239 0.98444 0.0
C498 C 0.40315 0.07831 0.01824 0.0
C499 C 0.39627 0.04397 0.04816 0.0
N500 N 0.38657 0.9399 0.07234 0.0
N501 N 0.3853 0.08676 0.96055 0.0
C502 C 0.39551 0.97698 0.04569 0.0
C503 C 0.39477 0.04948 0.98694 0.0
N504 N 0.41884 0.88862 1.01272 0.0
N505 N 0.41913 0.13796 0.01951 0.0
H506 H 0.3775 0.0701 0.93722 0.0
H507 H 0.38162 0.1354 0.96288 0.0
H508 H 0.42958 0.15824 0.04155 0.0
H509 H 0.42741 0.1631 0.99833 0.0
H510 H 0.42744 0.86363 0.03381 0.0
H511 H 0.42932 0.86857 0.99059 0.0
H512 H 0.38185 0.89141 0.07004 0.0
H513 H 0.38036 0.95686 0.09595 0.0
C514 C 0.13055 0.0398 0.54022 0.0
C515 C 0.14847 0.97861 0.54321 0.0
C516 C 0.14474 0.97134 0.48201 0.0
C517 C 0.13914 0.03734 0.47889 0.0
N518 N 0.12624 0.13593 0.50878 0.0
N519 N 0.18066 0.89181 0.5128 0.0
C520 C 0.13182 0.07217 0.50898 0.0
C521 C 0.15753 0.94571 0.51292 0.0
N522 N 0.10943 0.06593 0.56625 0.0
N523 N 0.13758 0.93268 0.45555 0.0
H524 H 0.20069 0.88009 0.53193 0.0
H525 H 0.18582 0.86471 0.49168 0.0
H526 H 0.12504 0.94934 0.43345 0.0
H527 H 0.13828 0.88366 0.45724 0.0
H528 H 0.0929 0.10802 0.56435 0.0
H529 H 0.10294 0.0416 0.58799 0.0
H530 H 0.12796 0.16299 0.53035 0.0
H531 H 0.12095 0.16273 0.48784 0.0
C532 C 0.60381 1.00126 1.0021 0.0
C533 C 0.64141 0.98975 0.98435 0.0
C534 C 0.68106 0.034 0.03114 0.0
C535 C 0.64452 0.03784 0.05097 0.0
N536 N 0.5699 0.02828 0.05458 0.0
N537 N 0.7166 0.98606 0.98502 0.0
C538 C 0.60538 0.02284 0.03606 0.0
C539 C 0.68007 1.00415 0.99965 0.0
N540 N 0.56676 0.99137 0.98634 0.0
N541 N 0.71713 0.0612 0.04168 0.0
H542 H 0.71815 0.96439 0.96198 0.0
H543 H 0.7452 0.98757 0.9971 0.0
H544 H 0.72119 0.07796 0.06563 0.0
H545 H 0.74245 0.06888 0.02605 0.0
H546 H 0.53777 1.00208 0.99642 0.0
H547 H 0.5653 0.97564 0.96185 0.0
H548 H 0.54058 0.0136 0.04682 0.0
H549 H 0.57006 0.04577 0.07869 0.0
C550 C 0.89016 0.04968 0.54661 0.0
C551 C 0.89226 0.98264 0.54909 0.0
C552 C 0.89222 0.97618 0.48806 0.0
C553 C 0.89057 0.04322 0.48549 0.0
N554 N 0.91284 0.1384 0.51376 0.0
N555 N 0.91982 0.89088 0.5208 0.0
C556 C 0.89737 0.07846 0.5152 0.0
C557 C 0.90122 0.94862 0.51937 0.0
N558 N 0.88043 0.08697 0.57311 0.0
N559 N 0.88393 0.93759 0.46178 0.0
H560 H 0.93117 0.87228 0.54289 0.0
H561 H 0.92945 0.86644 0.49968 0.0
H562 H 0.87408 0.95281 0.43874 0.0
H563 H 0.88257 0.88869 0.46415 0.0
H564 H 0.87565 0.13535 0.57073 0.0
H565 H 0.87375 0.07069 0.5967 0.0
H566 H 0.92089 0.16403 0.53488 0.0
H567 H 0.92364 0.15836 0.49178 0.0
C568 C 0.90203 0.57948 0.02074 0.0
C569 C 0.8976 0.54135 0.0501 0.0
C570 C 0.87834 0.45251 1.01395 0.0
C571 C 0.88439 0.48828 0.98453 0.0
N572 N 0.91362 0.58271 0.96107 0.0
N573 N 0.89981 0.43467 0.07046 0.0
C574 C 0.89947 0.55098 0.98828 0.0
C575 C 0.89207 0.4756 0.04523 0.0
N576 N 0.90829 0.64298 0.02302 0.0
N577 N 0.85485 0.39939 1.01284 0.0
H578 H 0.91286 0.44934 0.09283 0.0
H579 H 0.89868 0.38587 0.06742 0.0
H580 H 0.83299 0.39495 0.99422 0.0
H581 H 0.85009 0.36954 0.03293 0.0
H582 H 0.9033 0.67336 1.00319 0.0
H583 H 0.91839 0.66608 0.04417 0.0
H584 H 0.92915 0.6258 0.96246 0.0
H585 H 0.91395 0.56299 0.93741 0.0
C586 C 0.63823 0.57835 0.51553 0.0
C587 C 0.64552 0.54339 0.48578 0.0
C588 C 0.63655 0.44828 0.51937 0.0
C589 C 0.64469 0.48262 0.54913 0.0
N590 N 0.6544 0.58705 0.57351 0.0
N591 N 0.65427 0.4387 0.46169 0.0
C592 C 0.64549 0.54968 0.54687 0.0
C593 C 0.64505 0.47645 0.48813 0.0
N594 N 0.62279 0.63821 0.51406 0.0
N595 N 0.61929 0.38948 0.52073 0.0
H596 H 0.66242 0.45506 0.43838 0.0
H597 H 0.65764 0.39001 0.46405 0.0
H598 H 0.60833 0.37008 0.54283 0.0
H599 H 0.6105 0.36458 0.49956 0.0
H600 H 0.6143 0.66368 0.53514 0.0
H601 H 0.61291 0.65845 0.49194 0.0
H602 H 0.65908 0.63551 0.57121 0.0
H603 H 0.66031 0.57071 0.59718 0.0
C604 C 0.14431 0.48313 0.04178 0.0
C605 C 0.14704 0.54977 0.04582 0.0
C606 C 0.14507 0.56057 0.9846 0.0
C607 C 0.14403 0.49397 0.98065 0.0
N608 N 0.11494 0.40111 1.00764 0.0
N609 N 0.12549 0.6475 0.02019 0.0
C610 C 0.13519 0.45764 1.00978 0.0
C611 C 0.14032 0.58743 0.01692 0.0
N612 N 0.15026 0.44306 0.06772 0.0
N613 N 0.14799 0.59896 0.95766 0.0
H614 H 0.11524 0.66565 0.04282 0.0
H615 H 0.11727 0.67549 1.0001 0.0
H616 H 0.14336 0.58321 0.93351 0.0
H617 H 0.15487 0.64688 0.95965 0.0
H618 H 0.15078 0.39426 0.06477 0.0
H619 H 0.1585 0.45685 0.09144 0.0
H620 H 0.10584 0.37533 0.02837 0.0
H621 H 0.09966 0.38615 0.9864 0.0
C622 C 0.35308 0.52214 0.53155 0.0
C623 C 0.38859 0.49408 0.54613 0.0
C624 C 0.42937 0.52419 0.49599 0.0
C625 C 0.39239 0.54555 0.48013 0.0
N626 N 0.31792 0.55849 0.4829 0.0
N627 N 0.46084 0.4658 0.54169 0.0
C628 C 0.35423 0.5432 0.49815 0.0
C629 C 0.42698 0.49485 0.52823 0.0
N630 N 0.31764 0.52965 0.54983 0.0
N631 N 0.4667 0.53177 0.48017 0.0
H632 H 0.46029 0.44662 0.56546 0.0
H633 H 0.48869 0.45831 0.52904 0.0
H634 H 0.469 0.55056 0.45639 0.0
H635 H 0.4954 0.52303 0.49114 0.0
H636 H 0.29275 0.55775 0.5426 0.0
H637 H 0.31386 0.50997 0.57303 0.0
H638 H 0.28895 0.54373 0.49165 0.0
H639 H 0.31693 0.57837 0.45955 0.0
C640 C 0.26813 0.06245 0.24716 0.0
C641 C 0.29139 0.11651 0.23692 0.0
C642 C 0.26254 0.1735 0.28471 0.0
C643 C 0.24463 0.11713 0.2972 0.0
N644 N 0.23887 1.00391 0.293 0.0
N645 N 0.31784 0.2192 0.25168 0.0
C646 C 0.25014 0.06026 0.27936 0.0
C647 C 0.29083 0.17069 0.25759 0.0
N648 N 0.25972 0.01543 0.22535 0.0
N649 N 0.25116 0.23018 0.29791 0.0
H650 H 0.34039 0.21711 0.23304 0.0
H651 H 0.32086 0.25781 0.26752 0.0
H652 H 0.22744 0.23378 0.31549 0.0
H653 H 0.261 0.27326 0.28827 0.0
H654 H 0.23987 0.97777 0.23059 0.0
H655 H 0.26789 0.01958 0.20079 0.0
H656 H 0.24655 0.96074 0.28218 0.0
H657 H 0.22489 1.0001 0.31623 0.0
C658 C 0.28465 0.96398 0.78004 0.0
C659 C 0.28973 0.90414 0.79592 0.0
C660 C 0.2392 0.85896 0.75661 0.0
C661 C 0.23595 0.91671 0.73958 0.0
N662 N 0.24201 0.02937 0.74404 0.0
N663 N 0.28402 0.7916 0.78818 0.0
C664 C 0.25458 0.971 0.75395 0.0
C665 C 0.27011 0.8508 0.78119 0.0
N666 N 0.31058 0.01296 0.78774 0.0
N667 N 0.21141 0.81201 0.74985 0.0
H668 H 0.31107 0.78428 0.8018 0.0
H669 H 0.27284 0.75128 0.77632 0.0
H670 H 0.18753 0.81784 0.73262 0.0
H671 H 0.20962 0.77069 0.76372 0.0
H672 H 0.30953 0.05667 0.77616 0.0
H673 H 0.33729 1.00763 0.80192 0.0
H674 H 0.25115 0.07096 0.75571 0.0
H675 H 0.21857 0.03601 0.72668 0.0
C676 C 0.77362 0.84949 0.7535 0.0
C677 C 0.78866 0.90462 0.73727 0.0
C678 C 0.76448 0.96519 0.78601 0.0
C679 C 0.74233 0.91184 0.79824 0.0
N680 N 0.71983 0.80497 0.78831 0.0
N681 N 0.79309 0.01998 0.73908 0.0
C682 C 0.74474 0.8548 0.78004 0.0
C683 C 0.78261 0.96402 0.75366 0.0
N684 N 0.78938 0.79183 0.74534 0.0
N685 N 0.77109 0.01581 0.80604 0.0
H686 H 0.80702 0.02508 0.7161 0.0
H687 H 0.78392 0.06336 0.74886 0.0
H688 H 0.76012 0.0168 0.83005 0.0
H689 H 0.79131 0.0527 0.80023 0.0
H690 H 0.78146 0.75067 0.75796 0.0
H691 H 0.81497 0.78724 0.72962 0.0
H692 H 0.71849 0.76382 0.77414 0.0
H693 H 0.69746 0.80763 0.80709 0.0
C694 C 0.76253 0.1693 0.24829 0.0
C695 C 0.74722 0.11216 0.23468 0.0
C696 C 0.78527 0.05321 0.27797 0.0
C697 C 0.79791 0.11142 0.29279 0.0
N698 N 0.81558 0.21905 0.28176 0.0
N699 N 0.74194 0.99912 0.23718 0.0
C700 C 0.7913 0.16785 0.27493 0.0
C701 C 0.75809 0.05386 0.2497 0.0
N702 N 0.74849 0.22553 0.23632 0.0
N703 N 0.80157 0.9977 0.28903 0.0
H704 H 0.723 0.99785 0.2163 0.0
H705 H 0.74434 0.95554 0.24873 0.0
H706 H 0.82405 0.99494 0.30737 0.0
H707 H 0.7965 0.95424 0.27777 0.0
H708 H 0.75552 0.26879 0.24728 0.0
H709 H 0.72614 0.22828 0.21768 0.0
H710 H 0.81552 0.25994 0.26753 0.0
H711 H 0.83953 0.21716 0.29918 0.0
C712 C 0.75032 0.66828 0.27568 0.0
C713 C 0.74969 0.61446 0.29645 0.0
C714 C 0.7917 0.55822 0.25403 0.0
C715 C 0.797 0.61472 0.23591 0.0
N716 N 0.78944 0.72759 0.23493 0.0
N717 N 0.78163 0.51417 0.30813 0.0
C718 C 0.77862 0.67097 0.24841 0.0
C719 C 0.77334 0.56073 0.28623 0.0
N720 N 0.72317 0.71649 0.28154 0.0
N721 N 0.80334 0.50179 0.24059 0.0
H722 H 0.7728 0.51863 0.33255 0.0
H723 H 0.80177 0.47678 0.30315 0.0
H724 H 0.81741 0.49775 0.21739 0.0
H725 H 0.7959 0.45872 0.25153 0.0
H726 H 0.71997 0.75484 0.26569 0.0
H727 H 0.70063 0.71425 0.30019 0.0
H728 H 0.77947 0.77068 0.24453 0.0
H729 H 0.81272 0.73131 0.21699 0.0
C730 C 0.77578 0.46843 0.78118 0.0
C731 C 0.80209 0.41947 0.79252 0.0
C732 C 0.77305 0.3488 0.75013 0.0
C733 C 0.74866 0.39887 0.73678 0.0
N734 N 0.71451 0.49744 0.74976 0.0
N735 N 0.83163 0.31717 0.78419 0.0
C736 C 0.74672 0.4567 0.75497 0.0
C737 C 0.80269 0.36121 0.77555 0.0
N738 N 0.7788 0.52642 0.79577 0.0
N739 N 0.7643 0.28797 0.7414 0.0
H740 H 0.85344 0.32547 0.80285 0.0
H741 H 0.83657 0.2757 0.77087 0.0
H742 H 0.73814 0.27627 0.72747 0.0
H743 H 0.77857 0.24894 0.75202 0.0
H744 H 0.76377 0.56649 0.78707 0.0
H745 H 0.79995 0.53553 0.81478 0.0
H746 H 0.70987 0.53857 0.76337 0.0
H747 H 0.68861 0.48548 0.73563 0.0
C748 C 0.26996 0.34931 0.78493 0.0
C749 C 0.24638 0.4016 0.79699 0.0
C750 C 0.2671 0.4598 0.747 0.0
C751 C 0.29459 0.4103 0.737 0.0
N752 N 0.32829 0.31329 0.75159 0.0
N753 N 0.2312 0.51286 0.79178 0.0
C754 C 0.29785 0.35677 0.75767 0.0
C755 C 0.24733 0.45863 0.77869 0.0
N756 N 0.26479 0.29152 0.79905 0.0
N757 N 0.25762 0.50656 0.72553 0.0
H758 H 0.21667 0.51536 0.81479 0.0
H759 H 0.2359 0.55694 0.78104 0.0
H760 H 0.27075 0.50766 0.70232 0.0
H761 H 0.23414 0.53963 0.7296 0.0
H762 H 0.27787 0.25033 0.78953 0.0
H763 H 0.24357 0.28415 0.81813 0.0
H764 H 0.33475 0.27601 0.76749 0.0
H765 H 0.34998 0.31854 0.73247 0.0
C766 C 0.25787 0.5567 0.25324 0.0
C767 C 0.24454 0.61438 0.23859 0.0
C768 C 0.27966 0.67354 0.28304 0.0
C769 C 0.29599 0.61697 0.29624 0.0
N770 N 0.30298 0.50423 0.29306 0.0
N771 N 0.22557 0.72131 0.2501 0.0
C772 C 0.28567 0.55833 0.28109 0.0
C773 C 0.25067 0.67107 0.25656 0.0
N774 N 0.24157 0.50074 0.24252 0.0
N775 N 0.29282 0.73022 0.29535 0.0
H776 H 0.20154 0.71858 0.23276 0.0
H777 H 0.22516 0.76217 0.26448 0.0
H778 H 0.31513 0.73367 0.31401 0.0
H779 H 0.28502 0.77329 0.28472 0.0
H780 H 0.24707 0.45764 0.25388 0.0
H781 H 0.21868 0.49741 0.2245 0.0
H782 H 0.30079 0.46061 0.28135 0.0
H783 H 0.32278 0.5038 0.31345 0.0
C784 C 0.49322 0.08778 0.1566 0.0
C785 C 0.47221 0.14606 0.16104 0.0
C786 C 0.53958 0.19906 0.17029 0.0
C787 C 0.56109 0.14343 0.16032 0.0
N788 N 0.55674 0.03047 0.14841 0.0
N789 N 0.47467 0.25774 0.17129 0.0
C790 C 0.53749 0.08659 0.15501 0.0
C791 C 0.49524 0.20175 0.16783 0.0
N792 N 0.47085 0.03404 0.15025 0.0
N793 N 0.56122 0.2479 0.18422 0.0
H794 H 0.44222 0.26074 0.17194 0.0
H795 H 0.48967 0.30131 0.17181 0.0
H796 H 0.59303 0.24563 0.1892 0.0
H797 H 0.54703 0.2874 0.19461 0.0
H798 H 0.48335 0.99324 0.13989 0.0
H799 H 0.43915 0.02945 0.15482 0.0
H800 H 0.54415 0.98706 0.15517 0.0
H801 H 0.58368 0.02596 0.13434 0.0
C802 C 0.04091 0.83917 0.66856 0.0
C803 C 0.06168 0.89659 0.6605 0.0
C804 C 0.99358 0.94956 0.65544 0.0
C805 C 0.97291 0.89095 0.66073 0.0
N806 N 0.97549 0.78362 0.67909 0.0
N807 N 0.05783 1.00977 0.65361 0.0
C808 C 0.99631 0.83684 0.66946 0.0
C809 C 0.03805 0.95288 0.6566 0.0
N810 N 0.0642 0.78676 0.6751 0.0
N811 N 0.97087 1.00153 0.647 0.0
H812 H 0.0899 0.01517 0.6516 0.0
H813 H 0.04269 0.05298 0.65539 0.0
H814 H 0.93861 1.00363 0.64891 0.0
H815 H 0.98365 0.04233 0.63693 0.0
H816 H 0.05213 0.74151 0.67757 0.0
H817 H 0.09648 0.78861 0.67796 0.0
H818 H 0.98973 0.74289 0.68767 0.0
H819 H 0.94304 0.78158 0.68059 0.0
C820 C 0.53789 0.82598 0.86458 0.0
C821 C 0.56 0.88348 0.86913 0.0
C822 C 0.49374 0.94119 0.87284 0.0
C823 C 0.47171 0.88323 0.87032 0.0
N824 N 0.47127 0.77349 0.85559 0.0
N825 N 0.55861 0.99807 0.86775 0.0
C826 C 0.49344 0.82651 0.86348 0.0
C827 C 0.5379 0.94175 0.86972 0.0
N828 N 0.55962 0.77082 0.86189 0.0
N829 N 0.47294 0.99543 0.88079 0.0
H830 H 0.59075 1.00307 0.86732 0.0
H831 H 0.54365 0.04078 0.86346 0.0
H832 H 0.44067 0.99918 0.88118 0.0
H833 H 0.48768 0.03641 0.8889 0.0
H834 H 0.54598 0.72632 0.86259 0.0
H835 H 0.59201 0.76966 0.85963 0.0
H836 H 0.48468 0.7313 0.8479 0.0
H837 H 0.4388 0.77338 0.8541 0.0
C838 C 0.99458 0.13855 0.34607 0.0
C839 C 0.97526 0.13764 0.37788 0.0
C840 C 0.04192 0.16344 0.40309 0.0
C841 C 0.06294 0.1536 0.37266 0.0
N842 N 0.05914 0.12475 0.31499 0.0
N843 N 0.98723 0.12102 0.43646 0.0
C844 C 0.03923 0.13847 0.34401 0.0
C845 C 1.00095 0.14142 0.40633 0.0
N846 N 0.97097 0.14218 0.31812 0.0
N847 N 0.06002 0.19434 0.42903 0.0
H848 H 0.95932 0.09673 0.43926 0.0
H849 H 1.00641 0.11981 0.45726 0.0
H850 H 0.08845 0.21765 0.42742 0.0
H851 H 0.04377 0.20424 0.45086 0.0
H852 H 0.9838 0.14865 0.29464 0.0
H853 H 0.93856 0.14424 0.31863 0.0
H854 H 0.04369 0.10745 0.29421 0.0
H855 H 0.09149 0.1274 0.31251 0.0
C856 C 1.00071 0.6024 0.1793 0.0
C857 C 0.97866 0.65025 0.16203 0.0
C858 C 0.04554 0.70373 0.15353 0.0
C859 C 0.06763 0.64821 0.16171 0.0
N860 N 0.06296 0.53889 0.17964 0.0
N861 N 0.98553 0.74 0.12438 0.0
C862 C 0.04454 0.5959 0.17429 0.0
C863 C 1.0023 0.69988 0.14713 0.0
N864 N 0.98019 0.56361 0.2008 0.0
N865 N 0.0659 0.76006 0.15112 0.0
H866 H 0.95636 0.73435 0.11372 0.0
H867 H 1.00348 0.7736 0.112 0.0
H868 H 0.09723 0.76498 0.15743 0.0
H869 H 0.05027 0.80242 0.14708 0.0
H870 H 0.99564 0.53118 0.2157 0.0
H871 H 0.94878 0.56949 0.20676 0.0
H872 H 0.04582 0.49859 0.18546 0.0
H873 H 0.0943 0.52965 0.17546 0.0
C874 C 0.54373 0.44209 0.65518 0.0
C875 C 0.56515 0.38368 0.65839 0.0
C876 C 0.49761 0.3277 0.65977 0.0
C877 C 0.47622 0.38579 0.65531 0.0
N878 N 0.4786 0.49982 0.65555 0.0
N879 N 0.56284 0.2734 0.67132 0.0
C880 C 0.49917 0.4434 0.65553 0.0
C881 C 0.54203 0.32725 0.66305 0.0
N882 N 0.56582 0.49614 0.64937 0.0
N883 N 0.47533 0.27274 0.66043 0.0
H884 H 0.59511 0.27237 0.67448 0.0
H885 H 0.54833 0.23133 0.67782 0.0
H886 H 0.44285 0.27171 0.6611 0.0
H887 H 0.48869 0.22814 0.65932 0.0
H888 H 0.55247 0.53792 0.64115 0.0
H889 H 0.59806 0.49906 0.65118 0.0
H890 H 0.49303 0.54281 0.66045 0.0
H891 H 0.44653 0.50421 0.65294 0.0
C892 C 0.04007 0.34923 0.90506 0.0
C893 C 0.06353 0.37745 0.87889 0.0
C894 C 0.99775 0.41558 0.85421 0.0
C895 C 0.97441 0.38491 0.87955 0.0
N896 N 0.97432 0.31376 0.92671 0.0
N897 N 0.06411 0.42722 0.82544 0.0
C898 C 0.99582 0.34883 0.90393 0.0
C899 C 0.04212 0.40803 0.85267 0.0
N900 N 0.05939 0.32647 0.93272 0.0
N901 N 0.97751 0.45161 0.83136 0.0
H902 H 0.09621 0.42086 0.82308 0.0
H903 H 0.05039 0.44407 0.80392 0.0
H904 H 0.94515 0.45388 0.82972 0.0
H905 H 0.99269 0.48175 0.81498 0.0
H906 H 0.04368 0.31713 0.95479 0.0
H907 H 0.09117 0.32043 0.93541 0.0
H908 H 0.98784 0.27675 0.93973 0.0
H909 H 0.94297 0.31902 0.93229 0.0
C910 C 0.50131 0.65112 0.3454 0.0
C911 C 0.47748 0.66487 0.37432 0.0
C912 C 0.5392 0.64982 0.40765 0.0
C913 C 0.56516 0.64664 0.3791 0.0
N914 N 0.56982 0.65462 0.31946 0.0
N915 N 0.47995 0.70124 0.4314 0.0
C916 C 0.54599 0.65001 0.34738 0.0
C917 C 0.49838 0.67263 0.40482 0.0
N918 N 0.48144 0.63956 0.31621 0.0
N919 N 0.5523 0.62723 0.43742 0.0
H920 H 0.45131 0.72388 0.43031 0.0
H921 H 0.49602 0.70994 0.45336 0.0
H922 H 0.57944 0.60113 0.43969 0.0
H923 H 0.53316 0.62583 0.45833 0.0
H924 H 0.49682 0.62314 0.29513 0.0
H925 H 0.44916 0.64325 0.31381 0.0
H926 H 0.55724 0.66281 0.29613 0.0
H927 H 0.60225 0.6558 0.31997 0.0
C928 C 0.22068 0.95884 0.12193 0.0
C929 C 0.25834 0.97103 0.13929 0.0
C930 C 0.248 0.8735 0.17022 0.0
C931 C 0.21602 0.8545 0.1486 0.0
N932 N 0.17283 0.87949 0.10128 0.0
N933 N 0.31253 0.92899 0.17538 0.0
C934 C 0.20194 0.89759 0.12398 0.0
C935 C 0.27366 0.92488 0.16175 0.0
N936 N 0.20346 1.00482 0.10278 0.0
N937 N 0.2543 0.84111 0.19885 0.0
H938 H 0.3331 0.96611 0.17182 0.0
H939 H 0.32568 0.89218 0.18882 0.0
H940 H 0.23488 0.80394 0.20553 0.0
H941 H 0.27505 0.85581 0.21714 0.0
H942 H 0.17386 1.00101 0.09245 0.0
H943 H 0.21765 0.04847 0.09896 0.0
H944 H 0.16614 0.90562 0.08016 0.0
H945 H 0.15643 0.8373 0.10253 0.0
C946 C 0.3043 0.08177 0.60736 0.0
C947 C 0.29348 0.05015 0.63707 0.0
C948 C 0.31892 0.14095 0.6693 0.0
C949 C 0.32783 0.1739 0.63968 0.0
N950 N 0.34438 0.16573 0.58154 0.0
N951 N 0.30883 0.03929 0.69509 0.0
C952 C 0.32566 0.14094 0.60896 0.0
C953 C 0.30662 0.07636 0.66771 0.0
N954 N 0.29404 0.05526 0.57766 0.0
N955 N 0.32126 0.17163 0.69898 0.0
H956 H 0.30146 0.9915 0.69465 0.0
H957 H 0.32277 0.05434 0.71698 0.0
H958 H 0.3322 0.21781 0.70103 0.0
H959 H 0.31044 0.15216 0.72107 0.0
H960 H 0.29863 0.07721 0.55495 0.0
H961 H 0.27921 1.01168 0.57591 0.0
H962 H 0.34615 0.14261 0.55882 0.0
H963 H 0.36281 0.20607 0.58256 0.0
C964 C 0.22581 0.13461 0.86617 0.0
C965 C 0.22075 0.16801 0.89637 0.0
C966 C 0.23864 0.07149 0.9273 0.0
C967 C 0.24823 0.04089 0.89718 0.0
N968 N 0.23553 0.03357 0.83876 0.0
N969 N 0.2045 0.15785 0.95522 0.0
C970 C 0.23715 0.06952 0.86675 0.0
C971 C 0.22119 0.13323 0.92681 0.0
N972 N 0.21814 0.16463 0.83703 0.0
N973 N 0.24696 0.04167 0.9565 0.0
H974 H 0.1928 0.2031 0.95763 0.0
H975 H 0.19923 0.13139 0.97649 0.0
H976 H 0.25734 0.99513 0.95755 0.0
H977 H 0.24479 0.06318 0.97961 0.0
H978 H 0.22668 0.14694 0.81392 0.0
H979 H 0.20266 0.20776 0.83633 0.0
H980 H 0.22443 0.04964 0.81616 0.0
H981 H 0.24089 0.98524 0.83916 0.0
C982 C 0.27499 0.86734 0.41623 0.0
C983 C 0.30568 0.84931 0.39256 0.0
C984 C 0.31595 0.96165 0.37946 0.0
C985 C 0.28739 0.97847 0.40497 0.0
N986 N 0.25138 0.9482 0.45424 0.0
N987 N 0.3604 0.88081 0.3551 0.0
C988 C 0.27141 0.93139 0.42579 0.0
C989 C 0.3281 0.89708 0.37544 0.0
N990 N 0.2469 0.8245 0.42788 0.0
N991 N 0.33009 1.00708 0.35838 0.0
H992 H 0.36835 0.83394 0.35035 0.0
H993 H 0.38044 0.91369 0.34441 0.0
H994 H 0.32344 0.05473 0.36209 0.0
H995 H 0.34687 0.99726 0.33686 0.0
H996 H 0.22244 0.83668 0.44362 0.0
H997 H 0.24381 0.77979 0.41767 0.0
H998 H 0.24366 0.91528 0.47226 0.0
H999 H 0.24776 0.99528 0.46135 0.0
C1000 C 0.77498 0.1647 0.8581 0.0
C1001 C 0.81282 0.18062 0.87348 0.0
C1002 C 0.81348 0.07673 0.90078 0.0
C1003 C 0.77186 0.06562 0.89006 0.0
N1004 N 0.71162 0.10513 0.85921 0.0
N1005 N 0.87685 0.13896 0.89475 0.0
C1006 C 0.75209 0.11153 0.8692 0.0
C1007 C 0.8349 0.13256 0.89038 0.0
N1008 N 0.76274 0.1974 0.83073 0.0
N1009 N 0.83144 0.03659 0.92293 0.0
H1010 H 0.89352 0.17627 0.8843 0.0
H1011 H 0.89572 0.1039 0.90459 0.0
H1012 H 0.81619 0.9971 0.93239 0.0
H1013 H 0.85978 0.04561 0.93448 0.0
H1014 H 0.73753 0.18425 0.81604 0.0
H1015 H 0.78157 0.23198 0.82002 0.0
H1016 H 0.69491 0.14225 0.84888 0.0
H1017 H 0.69367 0.0648 0.86177 0.0
C1018 C 0.73524 0.95162 0.36406 0.0
C1019 C 0.74827 0.97752 0.39478 0.0
C1020 C 0.71869 0.88579 0.42284 0.0
C1021 C 0.71682 0.85342 0.39197 0.0
N1022 N 0.72189 0.85637 0.33258 0.0
N1023 N 0.74985 0.97147 0.45422 0.0
C1024 C 0.72433 0.88678 0.36233 0.0
C1025 C 0.73912 0.94525 0.42452 0.0
N1026 N 0.73209 0.98903 0.33683 0.0
N1027 N 0.69972 0.86096 0.45013 0.0
H1028 H 0.7628 0.01648 0.45622 0.0
H1029 H 0.74731 0.94781 0.47667 0.0
H1030 H 0.68038 0.82164 0.44873 0.0
H1031 H 0.6982 0.8839 0.47292 0.0
H1032 H 0.71886 0.97364 0.3147 0.0
H1033 H 0.73814 0.03721 0.33752 0.0
H1034 H 0.73184 0.87643 0.31039 0.0
H1035 H 0.71172 0.80983 0.33057 0.0
C1036 C 0.82158 0.95995 0.14727 0.0
C1037 C 0.7863 0.97142 0.12705 0.0
C1038 C 0.7726 0.85802 0.12427 0.0
C1039 C 0.80989 0.84512 0.14198 0.0
N1040 N 0.87314 0.88469 0.16665 0.0
N1041 N 0.73742 0.92974 0.08793 0.0
C1042 C 0.83568 0.89647 0.15203 0.0
C1043 C 0.7653 0.91967 0.11263 0.0
N1044 N 0.8403 1.00923 0.16317 0.0
N1045 N 0.74271 0.81289 0.11955 0.0
H1046 H 0.73159 0.97474 0.07939 0.0
H1047 H 0.72436 0.89365 0.07375 0.0
H1048 H 0.74341 0.76829 0.12992 0.0
H1049 H 0.7138 0.82261 0.10908 0.0
H1050 H 0.86288 1.00354 0.18137 0.0
H1051 H 0.83161 0.05593 0.15908 0.0
H1052 H 0.89517 0.91967 0.17137 0.0
H1053 H 0.88292 0.83926 0.17263 0.0
C1054 C 0.71446 0.131 0.60764 0.0
C1055 C 0.71005 0.16255 0.63858 0.0
C1056 C 0.72819 0.06346 0.66626 0.0
C1057 C 0.74392 0.03895 0.6359 0.0
N1058 N 0.74752 0.04601 0.5766 0.0
N1059 N 0.70895 0.15663 0.6979 0.0
C1060 C 0.73555 0.07174 0.60616 0.0
C1061 C 0.71544 0.12785 0.6681 0.0
N1062 N 0.69713 0.15663 0.58001 0.0
N1063 N 0.72391 0.02485 0.69296 0.0
H1064 H 0.69633 0.20182 0.69972 0.0
H1065 H 0.71735 0.13651 0.72042 0.0
H1066 H 0.7314 0.97716 0.69206 0.0
H1067 H 0.70898 0.03856 0.71476 0.0
H1068 H 0.69734 0.13497 0.55686 0.0
H1069 H 0.67758 0.19566 0.58136 0.0
H1070 H 0.74503 0.06927 0.55408 0.0
H1071 H 0.76112 1.00147 0.57478 0.0
C1072 C 0.70918 0.39502 0.15614 0.0
C1073 C 0.73088 0.34704 0.1385 0.0
C1074 C 0.76641 0.42946 0.10628 0.0
C1075 C 0.7515 0.47634 0.12786 0.0
N1076 N 0.70943 0.50428 0.17499 0.0
N1077 N 0.79025 0.32258 0.10358 0.0
C1078 C 0.72264 0.45937 0.15314 0.0
C1079 C 0.76201 0.36523 0.11515 0.0
N1080 N 0.6764 0.37916 0.17606 0.0
N1081 N 0.78646 0.44646 0.07788 0.0
H1082 H 0.79407 0.27887 0.11461 0.0
H1083 H 0.81449 0.33459 0.08755 0.0
H1084 H 0.79078 0.49362 0.07131 0.0
H1085 H 0.79359 0.4138 0.05945 0.0
H1086 H 0.65697 0.4124 0.18716 0.0
H1087 H 0.66734 0.33247 0.1799 0.0
H1088 H 0.69238 0.49405 0.1963 0.0
H1089 H 0.71721 0.55177 0.1722 0.0
C1090 C 0.80406 0.56694 0.66954 0.0
C1091 C 0.79287 0.54079 0.63828 0.0
C1092 C 0.82725 0.63093 0.61123 0.0
C1093 C 0.82918 0.6633 0.6421 0.0
N1094 N 0.82444 0.65974 0.70119 0.0
N1095 N 0.7962 0.54603 0.57889 0.0
C1096 C 0.81928 0.63023 0.67145 0.0
C1097 C 0.80544 0.57218 0.60894 0.0
N1098 N 0.80119 0.53073 0.69728 0.0
N1099 N 0.84739 0.6555 0.58441 0.0
H1100 H 0.78201 0.50195 0.57649 0.0
H1101 H 0.80102 0.56888 0.55645 0.0
H1102 H 0.86685 0.69464 0.58638 0.0
H1103 H 0.84929 0.63309 0.56151 0.0
H1104 H 0.81161 0.54497 0.7205 0.0
H1105 H 0.79263 0.48354 0.69627 0.0
H1106 H 0.81274 0.64262 0.7235 0.0
H1107 H 0.84032 0.70251 0.70305 0.0
C1108 C 0.75358 0.65425 0.91848 0.0
C1109 C 0.72113 0.67612 0.89665 0.0
C1110 C 0.7124 0.5657 0.87803 0.0
C1111 C 0.74153 0.54571 0.90214 0.0
N1112 N 0.77793 0.56772 0.95227 0.0
N1113 N 0.6671 0.64847 0.8575 0.0
C1114 C 0.75711 0.58912 0.92508 0.0
C1115 C 0.69913 0.6303 0.87745 0.0
N1116 N 0.7832 0.69334 0.93167 0.0
N1117 N 0.69929 0.52368 0.85461 0.0
H1118 H 0.65924 0.69548 0.8536 0.0
H1119 H 0.64727 0.61654 0.84582 0.0
H1120 H 0.7074 0.47607 0.85546 0.0
H1121 H 0.68227 0.53644 0.83378 0.0
H1122 H 0.80922 0.67637 0.94417 0.0
H1123 H 0.78609 0.74122 0.92786 0.0
H1124 H 0.7888 0.59729 0.97098 0.0
H1125 H 0.78056 0.51967 0.95745 0.0
C1126 C 0.76775 0.42321 0.37082 0.0
C1127 C 0.78263 0.46943 0.39366 0.0
C1128 C 0.83815 0.39562 0.40983 0.0
C1129 C 0.82476 0.35268 0.3847 0.0
N1130 N 0.78793 0.33963 0.33367 0.0
N1131 N 0.83651 0.50283 0.43138 0.0
C1132 C 0.79349 0.37184 0.36258 0.0
C1133 C 0.81968 0.45702 0.41169 0.0
N1134 N 0.72922 0.42726 0.35663 0.0
N1135 N 0.8662 0.37722 0.43321 0.0
H1136 H 0.82239 0.54652 0.43514 0.0
H1137 H 0.86577 0.49882 0.44227 0.0
H1138 H 0.88217 0.33469 0.43235 0.0
H1139 H 0.87226 0.40334 0.45454 0.0
H1140 H 0.71632 0.39036 0.34293 0.0
H1141 H 0.70876 0.46456 0.35984 0.0
H1142 H 0.76768 0.35445 0.31512 0.0
H1143 H 0.80746 0.30253 0.32709 0.0
C1144 C 0.32298 0.63005 0.86265 0.0
C1145 C 0.33142 0.66422 0.89196 0.0
C1146 C 0.30965 0.57287 0.92541 0.0
C1147 C 0.29841 0.54039 0.89606 0.0
N1148 N 0.30946 0.52804 0.83752 0.0
N1149 N 0.34967 0.65834 0.94972 0.0
C1150 C 0.30991 0.56597 0.86484 0.0
C1151 C 0.33031 0.63237 0.92293 0.0
N1152 N 0.32713 0.65918 0.83277 0.0
N1153 N 0.29893 0.54858 0.95553 0.0
H1154 H 0.36813 0.69857 0.94781 0.0
H1155 H 0.35212 0.63588 0.9725 0.0
H1156 H 0.28433 0.50496 0.95825 0.0
H1157 H 0.30255 0.57311 0.9777 0.0
H1158 H 0.31642 0.64002 0.81059 0.0
H1159 H 0.34073 0.70368 0.83063 0.0
H1160 H 0.32023 0.54201 0.81433 0.0
H1161 H 0.3025 0.48014 0.83913 0.0
C1162 C 0.22066 0.45967 0.38572 0.0
C1163 C 0.25933 0.47 0.40183 0.0
C1164 C 0.27271 0.35636 0.40142 0.0
C1165 C 0.23206 0.34449 0.38857 0.0
N1166 N 0.16559 0.38574 0.37123 0.0
N1167 N 0.31469 0.42616 0.43421 0.0
C1168 C 0.20532 0.39654 0.38186 0.0
C1169 C 0.28279 0.4176 0.4125 0.0
N1170 N 0.19965 0.5096 0.37266 0.0
N1171 N 0.30252 0.31041 0.40326 0.0
H1172 H 0.32167 0.47016 0.44373 0.0
H1173 H 0.33001 0.38928 0.44603 0.0
H1174 H 0.29901 0.26376 0.39621 0.0
H1175 H 0.33356 0.32046 0.40871 0.0
H1176 H 0.17394 0.5047 0.3572 0.0
H1177 H 0.20942 0.55611 0.3759 0.0
H1178 H 0.14316 0.421 0.36961 0.0
H1179 H 0.15458 0.34081 0.36531 0.0
C1180 C 0.30062 0.44514 0.10702 0.0
C1181 C 0.29135 0.47887 0.13639 0.0
C1182 C 0.31626 0.39036 0.16981 0.0
C1183 C 0.32383 0.35545 0.14059 0.0
N1184 N 0.34055 0.36014 0.08235 0.0
N1185 N 0.30925 0.49401 0.19391 0.0
C1186 C 0.32145 0.38608 0.10934 0.0
C1187 C 0.30512 0.45494 0.1673 0.0
N1188 N 0.29009 0.46998 0.07704 0.0
N1189 N 0.31898 0.36175 0.19993 0.0
H1190 H 0.30336 0.54212 0.19276 0.0
H1191 H 0.32329 0.47993 0.21591 0.0
H1192 H 0.32925 0.31543 0.20257 0.0
H1193 H 0.30906 0.38309 0.22186 0.0
H1194 H 0.2932 0.44568 0.05475 0.0
H1195 H 0.27685 0.51462 0.07462 0.0
H1196 H 0.34167 0.38154 0.05921 0.0
H1197 H 0.36043 0.32166 0.0843 0.0
C1198 C 0.24586 0.65852 0.67322 0.0
C1199 C 0.21209 0.6752 0.65286 0.0
C1200 C 0.21556 0.56794 0.62825 0.0
C1201 C 0.25492 0.55787 0.64363 0.0
N1202 N 0.31024 0.60275 0.67798 0.0
N1203 N 0.16336 0.64349 0.61038 0.0
C1204 C 0.27096 0.60597 0.66505 0.0
C1205 C 0.19574 0.62871 0.63073 0.0
N1206 N 0.25427 0.69405 0.70061 0.0
N1207 N 0.19769 0.52046 0.6103 0.0
H1208 H 0.14599 0.68455 0.61279 0.0
H1209 H 0.15447 0.61575 0.5903 0.0
H1210 H 0.21256 0.47771 0.6056 0.0
H1211 H 0.16718 0.52209 0.60167 0.0
H1212 H 0.27599 0.68109 0.71847 0.0
H1213 H 0.23588 0.73259 0.70701 0.0
H1214 H 0.32446 0.64104 0.68964 0.0
H1215 H 0.32978 0.56404 0.67617 0.0
loop_
_geom_bond_atom_site_label_1
_geom_bond_atom_site_label_2
_geom_bond_distance
_geom_bond_site_symmetry_2
_ccdc_geom_bond_type
Fe0 O2 1.918 . S
Fe0 O5 1.997 . S
Fe0 O6 2.002 . S
Fe0 O11 1.976 . S
Fe0 O14 1.996 . S
Fe1 O2 1.918 . S
Fe1 O9 1.997 . S
Fe1 O12 1.996 . S
Fe1 O16 1.976 . S
Fe1 O19 2.002 . S
O2 Fe0 1.918 . S
O2 Fe1 1.918 . S
O2 Fe3 1.918 . S
Fe3 O2 1.918 . S
Fe3 O4 2.002 . S
Fe3 O13 1.976 . S
Fe3 O17 1.996 . S
Fe3 O20 1.997 . S
O4 Fe3 2.002 . S
O4 C21 1.295 . S
O5 Fe0 1.997 . S
O5 C21 1.235 . S
O6 Fe0 2.002 . S
O6 C7 1.295 . S
C7 O6 1.295 . S
C7 O9 1.235 . S
C8 O13 1.287 . S
C8 O14 1.255 . S
O9 Fe1 1.997 . S
O9 C7 1.235 . S
C10 O16 1.287 . S
C10 O17 1.255 . S
O11 Fe0 1.976 . S
O11 C18 1.287 . S
O12 Fe1 1.996 . S
O12 C18 1.255 . S
O13 Fe3 1.976 . S
O13 C8 1.287 . S
O14 Fe0 1.996 . S
O14 C8 1.255 . S
C15 O19 1.295 . S
C15 O20 1.235 . S
O16 Fe1 1.976 . S
O16 C10 1.287 . S
O17 Fe3 1.996 . S
O17 C10 1.255 . S
C18 O11 1.287 . S
C18 O12 1.255 . S
O19 Fe1 2.002 . S
O19 C15 1.295 . S
O20 Fe3 1.997 . S
O20 C15 1.235 . S
C21 O4 1.295 . S
C21 O5 1.235 . S
Fe22 O24 1.918 . S
Fe22 O27 1.997 . S
Fe22 O28 2.002 . S
Fe22 O33 1.976 . S
Fe22 O36 1.996 . S
Fe23 O24 1.918 . S
Fe23 O31 1.997 . S
Fe23 O34 1.996 . S
Fe23 O38 1.976 . S
Fe23 O41 2.002 . S
O24 Fe22 1.918 . S
O24 Fe23 1.918 . S
O24 Fe25 1.918 . S
Fe25 O24 1.918 . S
Fe25 O26 2.002 . S
Fe25 O35 1.976 . S
Fe25 O39 1.996 . S
Fe25 O42 1.997 . S
O26 Fe25 2.002 . S
O26 C43 1.295 . S
O27 Fe22 1.997 . S
O27 C43 1.235 . S
O28 Fe22 2.002 . S
O28 C29 1.295 . S
C29 O28 1.295 . S
C29 O31 1.235 . S
C30 O35 1.287 . S
C30 O36 1.255 . S
O31 Fe23 1.997 . S
O31 C29 1.235 . S
C32 O38 1.287 . S
C32 O39 1.255 . S
O33 Fe22 1.976 . S
O33 C40 1.287 . S
O34 Fe23 1.996 . S
O34 C40 1.255 . S
O35 Fe25 1.976 . S
O35 C30 1.287 . S
O36 Fe22 1.996 . S
O36 C30 1.255 . S
C37 O41 1.295 . S
C37 O42 1.235 . S
O38 Fe23 1.976 . S
O38 C32 1.287 . S
O39 Fe25 1.996 . S
O39 C32 1.255 . S
C40 O33 1.287 . S
C40 O34 1.255 . S
O41 Fe23 2.002 . S
O41 C37 1.295 . S
O42 Fe25 1.997 . S
O42 C37 1.235 . S
C43 O26 1.295 . S
C43 O27 1.235 . S
Fe44 O46 1.918 . S
Fe44 O49 1.997 . S
Fe44 O50 2.002 . S
Fe44 O55 1.976 . S
Fe44 O58 1.996 . S
Fe45 O46 1.918 . S
Fe45 O53 1.997 . S
Fe45 O56 1.996 . S
Fe45 O60 1.976 . S
Fe45 O63 2.002 . S
O46 Fe44 1.918 . S
O46 Fe45 1.918 . S
O46 Fe47 1.918 . S
Fe47 O46 1.918 . S
Fe47 O48 2.002 . S
Fe47 O57 1.976 . S
Fe47 O61 1.996 . S
Fe47 O64 1.997 . S
O48 Fe47 2.002 . S
O48 C65 1.295 . S
O49 Fe44 1.997 . S
O49 C65 1.235 . S
O50 Fe44 2.002 . S
O50 C51 1.295 . S
C51 O50 1.295 . S
C51 O53 1.235 . S
C52 O57 1.287 . S
C52 O58 1.255 . S
O53 Fe45 1.997 . S
O53 C51 1.235 . S
C54 O60 1.287 . S
C54 O61 1.255 . S
O55 Fe44 1.976 . S
O55 C62 1.287 . S
O56 Fe45 1.996 . S
O56 C62 1.255 . S
O57 Fe47 1.976 . S
O57 C52 1.287 . S
O58 Fe44 1.996 . S
O58 C52 1.255 . S
C59 O63 1.295 . S
C59 O64 1.235 . S
O60 Fe45 1.976 . S
O60 C54 1.287 . S
O61 Fe47 1.996 . S
O61 C54 1.255 . S
C62 O55 1.287 . S
C62 O56 1.255 . S
O63 Fe45 2.002 . S
O63 C59 1.295 . S
O64 Fe47 1.997 . S
O64 C59 1.235 . S
C65 O48 1.295 . S
C65 O49 1.235 . S
Fe66 O68 1.918 . S
Fe66 O71 1.997 . S
Fe66 O72 2.002 . S
Fe66 O77 1.976 . S
Fe66 O80 1.996 . S
Fe67 O68 1.918 . S
Fe67 O75 1.997 . S
Fe67 O78 1.996 . S
Fe67 O82 1.976 . S
Fe67 O85 2.002 . S
O68 Fe66 1.918 . S
O68 Fe67 1.918 . S
O68 Fe69 1.918 . S
Fe69 O68 1.918 . S
Fe69 O70 2.002 . S
Fe69 O79 1.976 . S
Fe69 O83 1.996 . S
Fe69 O86 1.997 . S
O70 Fe69 2.002 . S
O70 C87 1.295 . S
O71 Fe66 1.997 . S
O71 C87 1.235 . S
O72 Fe66 2.002 . S
O72 C73 1.295 . S
C73 O72 1.295 . S
C73 O75 1.235 . S
C74 O79 1.287 . S
C74 O80 1.255 . S
O75 Fe67 1.997 . S
O75 C73 1.235 . S
C76 O82 1.287 . S
C76 O83 1.255 . S
O77 Fe66 1.976 . S
O77 C84 1.287 . S
O78 Fe67 1.996 . S
O78 C84 1.255 . S
O79 Fe69 1.976 . S
O79 C74 1.287 . S
O80 Fe66 1.996 . S
O80 C74 1.255 . S
C81 O85 1.295 . S
C81 O86 1.235 . S
O82 Fe67 1.976 . S
O82 C76 1.287 . S
O83 Fe69 1.996 . S
O83 C76 1.255 . S
C84 O77 1.287 . S
C84 O78 1.255 . S
O85 Fe67 2.002 . S
O85 C81 1.295 . S
O86 Fe69 1.997 . S
O86 C81 1.235 . S
C87 O70 1.295 . S
C87 O71 1.235 . S
Fe88 O90 1.918 . S
Fe88 O93 1.997 . S
Fe88 O94 2.002 . S
Fe88 O99 1.976 . S
Fe88 O102 1.996 . S
Fe89 O90 1.918 . S
Fe89 O97 1.997 . S
Fe89 O100 1.996 . S
Fe89 O104 1.976 . S
Fe89 O107 2.002 . S
O90 Fe88 1.918 . S
O90 Fe89 1.918 . S
O90 Fe91 1.918 . S
Fe91 O90 1.918 . S
Fe91 O92 2.002 . S
Fe91 O101 1.976 . S
Fe91 O105 1.996 . S
Fe91 O108 1.997 . S
O92 Fe91 2.002 . S
O92 C109 1.295 . S
O93 Fe88 1.997 . S
O93 C109 1.235 . S
O94 Fe88 2.002 . S
O94 C95 1.295 . S
C95 O94 1.295 . S
C95 O97 1.235 . S
C96 O101 1.287 . S
C96 O102 1.255 . S
O97 Fe89 1.997 . S
O97 C95 1.235 . S
C98 O104 1.287 . S
C98 O105 1.255 . S
O99 Fe88 1.976 . S
O99 C106 1.287 . S
O100 Fe89 1.996 . S
O100 C106 1.255 . S
O101 Fe91 1.976 . S
O101 C96 1.287 . S
O102 Fe88 1.996 . S
O102 C96 1.255 . S
C103 O107 1.295 . S
C103 O108 1.235 . S
O104 Fe89 1.976 . S
O104 C98 1.287 . S
O105 Fe91 1.996 . S
O105 C98 1.255 . S
C106 O99 1.287 . S
C106 O100 1.255 . S
O107 Fe89 2.002 . S
O107 C103 1.295 . S
O108 Fe91 1.997 . S
O108 C103 1.235 . S
C109 O92 1.295 . S
C109 O93 1.235 . S
Fe110 O112 1.918 . S
Fe110 O115 1.997 . S
Fe110 O116 2.002 . S
Fe110 O121 1.976 . S
Fe110 O124 1.996 . S
Fe111 O112 1.918 . S
Fe111 O119 1.997 . S
Fe111 O122 1.996 . S
Fe111 O126 1.976 . S
Fe111 O129 2.002 . S
O112 Fe110 1.918 . S
O112 Fe111 1.918 . S
O112 Fe113 1.918 . S
Fe113 O112 1.918 . S
Fe113 O114 2.002 . S
Fe113 O123 1.976 . S
Fe113 O127 1.996 . S
Fe113 O130 1.997 . S
O114 Fe113 2.002 . S
O114 C131 1.295 . S
O115 Fe110 1.997 . S
O115 C131 1.235 . S
O116 Fe110 2.002 . S
O116 C117 1.295 . S
C117 O116 1.295 . S
C117 O119 1.235 . S
C118 O123 1.287 . S
C118 O124 1.255 . S
O119 Fe111 1.997 . S
O119 C117 1.235 . S
C120 O126 1.287 . S
C120 O127 1.255 . S
O121 Fe110 1.976 . S
O121 C128 1.287 . S
O122 Fe111 1.996 . S
O122 C128 1.255 . S
O123 Fe113 1.976 . S
O123 C118 1.287 . S
O124 Fe110 1.996 . S
O124 C118 1.255 . S
C125 O129 1.295 . S
C125 O130 1.235 . S
O126 Fe111 1.976 . S
O126 C120 1.287 . S
O127 Fe113 1.996 . S
O127 C120 1.255 . S
C128 O121 1.287 . S
C128 O122 1.255 . S
O129 Fe111 2.002 . S
O129 C125 1.295 . S
O130 Fe113 1.997 . S
O130 C125 1.235 . S
C131 O114 1.295 . S
C131 O115 1.235 . S
Fe132 O134 1.918 . S
Fe132 O137 1.997 . S
Fe132 O138 2.002 . S
Fe132 O143 1.976 . S
Fe132 O146 1.996 . S
Fe133 O134 1.918 . S
Fe133 O141 1.997 . S
Fe133 O144 1.996 . S
Fe133 O148 1.976 . S
Fe133 O151 2.002 . S
O134 Fe132 1.918 . S
O134 Fe133 1.918 . S
O134 Fe135 1.918 . S
Fe135 O134 1.918 . S
Fe135 O136 2.002 . S
Fe135 O145 1.976 . S
Fe135 O149 1.996 . S
Fe135 O152 1.997 . S
O136 Fe135 2.002 . S
O136 C153 1.295 . S
O137 Fe132 1.997 . S
O137 C153 1.235 . S
O138 Fe132 2.002 . S
O138 C139 1.295 . S
C139 O138 1.295 . S
C139 O141 1.235 . S
C140 O145 1.287 . S
C140 O146 1.255 . S
O141 Fe133 1.997 . S
O141 C139 1.235 . S
C142 O148 1.287 . S
C142 O149 1.255 . S
O143 Fe132 1.976 . S
O143 C150 1.287 . S
O144 Fe133 1.996 . S
O144 C150 1.255 . S
O145 Fe135 1.976 . S
O145 C140 1.287 . S
O146 Fe132 1.996 . S
O146 C140 1.255 . S
C147 O151 1.295 . S
C147 O152 1.235 . S
O148 Fe133 1.976 . S
O148 C142 1.287 . S
O149 Fe135 1.996 . S
O149 C142 1.255 . S
C150 O143 1.287 . S
C150 O144 1.255 . S
O151 Fe133 2.002 . S
O151 C147 1.295 . S
O152 Fe135 1.997 . S
O152 C147 1.235 . S
C153 O136 1.295 . S
C153 O137 1.235 . S
Fe154 O156 1.918 . S
Fe154 O159 1.997 . S
Fe154 O160 2.002 . S
Fe154 O165 1.976 . S
Fe154 O168 1.996 . S
Fe155 O156 1.918 . S
Fe155 O163 1.997 . S
Fe155 O166 1.996 . S
Fe155 O170 1.976 . S
Fe155 O173 2.002 . S
O156 Fe154 1.918 . S
O156 Fe155 1.918 . S
O156 Fe157 1.918 . S
Fe157 O156 1.918 . S
Fe157 O158 2.002 . S
Fe157 O167 1.976 . S
Fe157 O171 1.996 . S
Fe157 O174 1.997 . S
O158 Fe157 2.002 . S
O158 C175 1.295 . S
O159 Fe154 1.997 . S
O159 C175 1.235 . S
O160 Fe154 2.002 . S
O160 C161 1.295 . S
C161 O160 1.295 . S
C161 O163 1.235 . S
C162 O167 1.287 . S
C162 O168 1.255 . S
O163 Fe155 1.997 . S
O163 C161 1.235 . S
C164 O170 1.287 . S
C164 O171 1.255 . S
O165 Fe154 1.976 . S
O165 C172 1.287 . S
O166 Fe155 1.996 . S
O166 C172 1.255 . S
O167 Fe157 1.976 . S
O167 C162 1.287 . S
O168 Fe154 1.996 . S
O168 C162 1.255 . S
C169 O173 1.295 . S
C169 O174 1.235 . S
O170 Fe155 1.976 . S
O170 C164 1.287 . S
O171 Fe157 1.996 . S
O171 C164 1.255 . S
C172 O165 1.287 . S
C172 O166 1.255 . S
O173 Fe155 2.002 . S
O173 C169 1.295 . S
O174 Fe157 1.997 . S
O174 C169 1.235 . S
C175 O158 1.295 . S
C175 O159 1.235 . S
Fe176 O178 1.918 . S
Fe176 O181 1.997 . S
Fe176 O182 2.002 . S
Fe176 O187 1.976 . S
Fe176 O190 1.996 . S
Fe177 O178 1.918 . S
Fe177 O185 1.997 . S
Fe177 O188 1.996 . S
Fe177 O192 1.976 . S
Fe177 O195 2.002 . S
O178 Fe176 1.918 . S
O178 Fe177 1.918 . S
O178 Fe179 1.918 . S
Fe179 O178 1.918 . S
Fe179 O180 2.002 . S
Fe179 O189 1.976 . S
Fe179 O193 1.996 . S
Fe179 O196 1.997 . S
O180 Fe179 2.002 . S
O180 C197 1.295 . S
O181 Fe176 1.997 . S
O181 C197 1.235 . S
O182 Fe176 2.002 . S
O182 C183 1.295 . S
C183 O182 1.295 . S
C183 O185 1.235 . S
C184 O189 1.287 . S
C184 O190 1.255 . S
O185 Fe177 1.997 . S
O185 C183 1.235 . S
C186 O192 1.287 . S
C186 O193 1.255 . S
O187 Fe176 1.976 . S
O187 C194 1.287 . S
O188 Fe177 1.996 . S
O188 C194 1.255 . S
O189 Fe179 1.976 . S
O189 C184 1.287 . S
O190 Fe176 1.996 . S
O190 C184 1.255 . S
C191 O195 1.295 . S
C191 O196 1.235 . S
O192 Fe177 1.976 . S
O192 C186 1.287 . S
O193 Fe179 1.996 . S
O193 C186 1.255 . S
C194 O187 1.287 . S
C194 O188 1.255 . S
O195 Fe177 2.002 . S
O195 C191 1.295 . S
O196 Fe179 1.997 . S
O196 C191 1.235 . S
C197 O180 1.295 . S
C197 O181 1.235 . S
Fe198 O200 1.918 . S
Fe198 O203 1.997 . S
Fe198 O204 2.002 . S
Fe198 O209 1.976 . S
Fe198 O212 1.996 . S
Fe199 O200 1.918 . S
Fe199 O207 1.997 . S
Fe199 O210 1.996 . S
Fe199 O214 1.976 . S
Fe199 O217 2.002 . S
O200 Fe198 1.918 . S
O200 Fe199 1.918 . S
O200 Fe201 1.918 . S
Fe201 O200 1.918 . S
Fe201 O202 2.002 . S
Fe201 O211 1.976 . S
Fe201 O215 1.996 . S
Fe201 O218 1.997 . S
O202 Fe201 2.002 . S
O202 C219 1.295 . S
O203 Fe198 1.997 . S
O203 C219 1.235 . S
O204 Fe198 2.002 . S
O204 C205 1.295 . S
C205 O204 1.295 . S
C205 O207 1.235 . S
C206 O211 1.287 . S
C206 O212 1.255 . S
O207 Fe199 1.997 . S
O207 C205 1.235 . S
C208 O214 1.287 . S
C208 O215 1.255 . S
O209 Fe198 1.976 . S
O209 C216 1.287 . S
O210 Fe199 1.996 . S
O210 C216 1.255 . S
O211 Fe201 1.976 . S
O211 C206 1.287 . S
O212 Fe198 1.996 . S
O212 C206 1.255 . S
C213 O217 1.295 . S
C213 O218 1.235 . S
O214 Fe199 1.976 . S
O214 C208 1.287 . S
O215 Fe201 1.996 . S
O215 C208 1.255 . S
C216 O209 1.287 . S
C216 O210 1.255 . S
O217 Fe199 2.002 . S
O217 C213 1.295 . S
O218 Fe201 1.997 . S
O218 C213 1.235 . S
C219 O202 1.295 . S
C219 O203 1.235 . S
Fe220 O222 1.918 . S
Fe220 O225 1.997 . S
Fe220 O226 2.002 . S
Fe220 O231 1.976 . S
Fe220 O234 1.996 . S
Fe221 O222 1.918 . S
Fe221 O229 1.997 . S
Fe221 O232 1.996 . S
Fe221 O236 1.976 . S
Fe221 O239 2.002 . S
O222 Fe220 1.918 . S
O222 Fe221 1.918 . S
O222 Fe223 1.918 . S
Fe223 O222 1.918 . S
Fe223 O224 2.002 . S
Fe223 O233 1.976 . S
Fe223 O237 1.996 . S
Fe223 O240 1.997 . S
O224 Fe223 2.002 . S
O224 C241 1.295 . S
O225 Fe220 1.997 . S
O225 C241 1.235 . S
O226 Fe220 2.002 . S
O226 C227 1.295 . S
C227 O226 1.295 . S
C227 O229 1.235 . S
C228 O233 1.287 . S
C228 O234 1.255 . S
O229 Fe221 1.997 . S
O229 C227 1.235 . S
C230 O236 1.287 . S
C230 O237 1.255 . S
O231 Fe220 1.976 . S
O231 C238 1.287 . S
O232 Fe221 1.996 . S
O232 C238 1.255 . S
O233 Fe223 1.976 . S
O233 C228 1.287 . S
O234 Fe220 1.996 . S
O234 C228 1.255 . S
C235 O239 1.295 . S
C235 O240 1.235 . S
O236 Fe221 1.976 . S
O236 C230 1.287 . S
O237 Fe223 1.996 . S
O237 C230 1.255 . S
C238 O231 1.287 . S
C238 O232 1.255 . S
O239 Fe221 2.002 . S
O239 C235 1.295 . S
O240 Fe223 1.997 . S
O240 C235 1.235 . S
C241 O224 1.295 . S
C241 O225 1.235 . S
Fe242 O244 1.918 . S
Fe242 O247 1.997 . S
Fe242 O248 2.002 . S
Fe242 O253 1.976 . S
Fe242 O256 1.996 . S
Fe243 O244 1.918 . S
Fe243 O251 1.997 . S
Fe243 O254 1.996 . S
Fe243 O258 1.976 . S
Fe243 O261 2.002 . S
O244 Fe242 1.918 . S
O244 Fe243 1.918 . S
O244 Fe245 1.918 . S
Fe245 O244 1.918 . S
Fe245 O246 2.002 . S
Fe245 O255 1.976 . S
Fe245 O259 1.996 . S
Fe245 O262 1.997 . S
O246 Fe245 2.002 . S
O246 C263 1.295 . S
O247 Fe242 1.997 . S
O247 C263 1.235 . S
O248 Fe242 2.002 . S
O248 C249 1.295 . S
C249 O248 1.295 . S
C249 O251 1.235 . S
C250 O255 1.287 . S
C250 O256 1.255 . S
O251 Fe243 1.997 . S
O251 C249 1.235 . S
C252 O258 1.287 . S
C252 O259 1.255 . S
O253 Fe242 1.976 . S
O253 C260 1.287 . S
O254 Fe243 1.996 . S
O254 C260 1.255 . S
O255 Fe245 1.976 . S
O255 C250 1.287 . S
O256 Fe242 1.996 . S
O256 C250 1.255 . S
C257 O261 1.295 . S
C257 O262 1.235 . S
O258 Fe243 1.976 . S
O258 C252 1.287 . S
O259 Fe245 1.996 . S
O259 C252 1.255 . S
C260 O253 1.287 . S
C260 O254 1.255 . S
O261 Fe243 2.002 . S
O261 C257 1.295 . S
O262 Fe245 1.997 . S
O262 C257 1.235 . S
C263 O246 1.295 . S
C263 O247 1.235 . S
Fe264 O266 1.918 . S
Fe264 O269 1.997 . S
Fe264 O270 2.002 . S
Fe264 O275 1.976 . S
Fe264 O278 1.996 . S
Fe265 O266 1.918 . S
Fe265 O273 1.997 . S
Fe265 O276 1.996 . S
Fe265 O280 1.976 . S
Fe265 O283 2.002 . S
O266 Fe264 1.918 . S
O266 Fe265 1.918 . S
O266 Fe267 1.918 . S
Fe267 O266 1.918 . S
Fe267 O268 2.002 . S
Fe267 O277 1.976 . S
Fe267 O281 1.996 . S
Fe267 O284 1.997 . S
O268 Fe267 2.002 . S
O268 C285 1.295 . S
O269 Fe264 1.997 . S
O269 C285 1.235 . S
O270 Fe264 2.002 . S
O270 C271 1.295 . S
C271 O270 1.295 . S
C271 O273 1.235 . S
C272 O277 1.287 . S
C272 O278 1.255 . S
O273 Fe265 1.997 . S
O273 C271 1.235 . S
C274 O280 1.287 . S
C274 O281 1.255 . S
O275 Fe264 1.976 . S
O275 C282 1.287 . S
O276 Fe265 1.996 . S
O276 C282 1.255 . S
O277 Fe267 1.976 . S
O277 C272 1.287 . S
O278 Fe264 1.996 . S
O278 C272 1.255 . S
C279 O283 1.295 . S
C279 O284 1.235 . S
O280 Fe265 1.976 . S
O280 C274 1.287 . S
O281 Fe267 1.996 . S
O281 C274 1.255 . S
C282 O275 1.287 . S
C282 O276 1.255 . S
O283 Fe265 2.002 . S
O283 C279 1.295 . S
O284 Fe267 1.997 . S
O284 C279 1.235 . S
C285 O268 1.295 . S
C285 O269 1.235 . S
Fe286 O288 1.918 . S
Fe286 O291 1.997 . S
Fe286 O292 2.002 . S
Fe286 O297 1.976 . S
Fe286 O300 1.996 . S
Fe287 O288 1.918 . S
Fe287 O295 1.997 . S
Fe287 O298 1.996 . S
Fe287 O302 1.976 . S
Fe287 O305 2.002 . S
O288 Fe286 1.918 . S
O288 Fe287 1.918 . S
O288 Fe289 1.918 . S
Fe289 O288 1.918 . S
Fe289 O290 2.002 . S
Fe289 O299 1.976 . S
Fe289 O303 1.996 . S
Fe289 O306 1.997 . S
O290 Fe289 2.002 . S
O290 C307 1.295 . S
O291 Fe286 1.997 . S
O291 C307 1.235 . S
O292 Fe286 2.002 . S
O292 C293 1.295 . S
C293 O292 1.295 . S
C293 O295 1.235 . S
C294 O299 1.287 . S
C294 O300 1.255 . S
O295 Fe287 1.997 . S
O295 C293 1.235 . S
C296 O302 1.287 . S
C296 O303 1.255 . S
O297 Fe286 1.976 . S
O297 C304 1.287 . S
O298 Fe287 1.996 . S
O298 C304 1.255 . S
O299 Fe289 1.976 . S
O299 C294 1.287 . S
O300 Fe286 1.996 . S
O300 C294 1.255 . S
C301 O305 1.295 . S
C301 O306 1.235 . S
O302 Fe287 1.976 . S
O302 C296 1.287 . S
O303 Fe289 1.996 . S
O303 C296 1.255 . S
C304 O297 1.287 . S
C304 O298 1.255 . S
O305 Fe287 2.002 . S
O305 C301 1.295 . S
O306 Fe289 1.997 . S
O306 C301 1.235 . S
C307 O290 1.295 . S
C307 O291 1.235 . S
Fe308 O310 1.918 . S
Fe308 O313 1.997 . S
Fe308 O314 2.002 . S
Fe308 O319 1.976 . S
Fe308 O322 1.996 . S
Fe309 O310 1.918 . S
Fe309 O317 1.997 . S
Fe309 O320 1.996 . S
Fe309 O324 1.976 . S
Fe309 O327 2.002 . S
O310 Fe308 1.918 . S
O310 Fe309 1.918 . S
O310 Fe311 1.918 . S
Fe311 O310 1.918 . S
Fe311 O312 2.002 . S
Fe311 O321 1.976 . S
Fe311 O325 1.996 . S
Fe311 O328 1.997 . S
O312 Fe311 2.002 . S
O312 C329 1.295 . S
O313 Fe308 1.997 . S
O313 C329 1.235 . S
O314 Fe308 2.002 . S
O314 C315 1.295 . S
C315 O314 1.295 . S
C315 O317 1.235 . S
C316 O321 1.287 . S
C316 O322 1.255 . S
O317 Fe309 1.997 . S
O317 C315 1.235 . S
C318 O324 1.287 . S
C318 O325 1.255 . S
O319 Fe308 1.976 . S
O319 C326 1.287 . S
O320 Fe309 1.996 . S
O320 C326 1.255 . S
O321 Fe311 1.976 . S
O321 C316 1.287 . S
O322 Fe308 1.996 . S
O322 C316 1.255 . S
C323 O327 1.295 . S
C323 O328 1.235 . S
O324 Fe309 1.976 . S
O324 C318 1.287 . S
O325 Fe311 1.996 . S
O325 C318 1.255 . S
C326 O319 1.287 . S
C326 O320 1.255 . S
O327 Fe309 2.002 . S
O327 C323 1.295 . S
O328 Fe311 1.997 . S
O328 C323 1.235 . S
C329 O312 1.295 . S
C329 O313 1.235 . S
Fe330 O332 1.918 . S
Fe330 O335 1.997 . S
Fe330 O336 2.002 . S
Fe330 O341 1.976 . S
Fe330 O344 1.996 . S
Fe331 O332 1.918 . S
Fe331 O339 1.997 . S
Fe331 O342 1.996 . S
Fe331 O346 1.976 . S
Fe331 O349 2.002 . S
O332 Fe330 1.918 . S
O332 Fe331 1.918 . S
O332 Fe333 1.918 . S
Fe333 O332 1.918 . S
Fe333 O334 2.002 . S
Fe333 O343 1.976 . S
Fe333 O347 1.996 . S
Fe333 O350 1.997 . S
O334 Fe333 2.002 . S
O334 C351 1.295 . S
O335 Fe330 1.997 . S
O335 C351 1.235 . S
O336 Fe330 2.002 . S
O336 C337 1.295 . S
C337 O336 1.295 . S
C337 O339 1.235 . S
C338 O343 1.287 . S
C338 O344 1.255 . S
O339 Fe331 1.997 . S
O339 C337 1.235 . S
C340 O346 1.287 . S
C340 O347 1.255 . S
O341 Fe330 1.976 . S
O341 C348 1.287 . S
O342 Fe331 1.996 . S
O342 C348 1.255 . S
O343 Fe333 1.976 . S
O343 C338 1.287 . S
O344 Fe330 1.996 . S
O344 C338 1.255 . S
C345 O349 1.295 . S
C345 O350 1.235 . S
O346 Fe331 1.976 . S
O346 C340 1.287 . S
O347 Fe333 1.996 . S
O347 C340 1.255 . S
C348 O341 1.287 . S
C348 O342 1.255 . S
O349 Fe331 2.002 . S
O349 C345 1.295 . S
O350 Fe333 1.997 . S
O350 C345 1.235 . S
C351 O334 1.295 . S
C351 O335 1.235 . S
C352 C353 1.363 . S
C352 C358 1.379 1_554 S
C352 N360 1.356 . S
C353 C352 1.363 . S
C353 C359 1.363 . S
C354 C355 1.363 . S
C354 C359 1.379 1_556 S
C354 N361 1.356 . S
C355 C354 1.363 . S
C355 C358 1.363 . S
N356 C358 1.356 . S
N356 H368 0.984 . S
N356 H369 0.985 . S
N357 C359 1.356 . S
N357 H362 0.984 . S
N357 H363 0.985 . S
C358 C352 1.379 1_556 S
C358 C355 1.363 . S
C358 N356 1.356 . S
C359 C353 1.363 . S
C359 C354 1.379 1_554 S
C359 N357 1.356 . S
N360 C352 1.356 . S
N360 H366 0.984 . S
N360 H367 0.984 . S
N361 C354 1.356 . S
N361 H364 0.984 . S
N361 H365 0.985 . S
H362 N357 0.984 . S
H363 N357 0.985 . S
H364 N361 0.984 . S
H365 N361 0.985 . S
H366 N360 0.984 . S
H367 N360 0.984 . S
H368 N356 0.984 . S
H369 N356 0.985 . S
C370 C371 1.363 . S
C370 C376 1.379 . S
C370 N378 1.356 . S
C371 C370 1.363 . S
C371 C377 1.363 . S
C372 C373 1.363 . S
C372 C377 1.379 . S
C372 N379 1.356 . S
C373 C372 1.363 . S
C373 C376 1.363 . S
N374 C376 1.356 . S
N374 H386 0.984 . S
N374 H387 0.985 . S
N375 C377 1.356 . S
N375 H380 0.984 . S
N375 H381 0.985 . S
C376 C370 1.379 . S
C376 C373 1.363 . S
C376 N374 1.356 . S
C377 C371 1.363 . S
C377 C372 1.379 . S
C377 N375 1.356 . S
N378 C370 1.356 . S
N378 H384 0.984 . S
N378 H385 0.984 . S
N379 C372 1.356 . S
N379 H382 0.984 . S
N379 H383 0.985 . S
H380 N375 0.984 . S
H381 N375 0.985 . S
H382 N379 0.984 . S
H383 N379 0.985 . S
H384 N378 0.984 . S
H385 N378 0.984 . S
H386 N374 0.984 . S
H387 N374 0.985 . S
C388 C389 1.363 . S
C388 C394 1.379 1_554 S
C388 N396 1.356 . S
C389 C388 1.363 . S
C389 C395 1.363 . S
C390 C391 1.363 . S
C390 C395 1.379 1_556 S
C390 N397 1.356 . S
C391 C390 1.363 . S
C391 C394 1.363 . S
N392 C394 1.356 . S
N392 H404 0.984 . S
N392 H405 0.985 . S
N393 C395 1.356 . S
N393 H398 0.984 . S
N393 H399 0.985 . S
C394 C388 1.379 1_556 S
C394 C391 1.363 . S
C394 N392 1.356 . S
C395 C389 1.363 . S
C395 C390 1.379 1_554 S
C395 N393 1.356 . S
N396 C388 1.356 . S
N396 H402 0.984 . S
N396 H403 0.984 . S
N397 C390 1.356 . S
N397 H400 0.984 . S
N397 H401 0.985 . S
H398 N393 0.984 . S
H399 N393 0.985 . S
H400 N397 0.984 . S
H401 N397 0.985 . S
H402 N396 0.984 . S
H403 N396 0.984 . S
H404 N392 0.984 . S
H405 N392 0.985 . S
C406 C407 1.363 . S
C406 C412 1.379 . S
C406 N414 1.356 . S
C407 C406 1.363 . S
C407 C413 1.363 . S
C408 C409 1.363 . S
C408 C413 1.379 . S
C408 N415 1.356 . S
C409 C408 1.363 . S
C409 C412 1.363 . S
N410 C412 1.356 . S
N410 H422 0.984 . S
N410 H423 0.985 . S
N411 C413 1.356 . S
N411 H416 0.984 . S
N411 H417 0.985 . S
C412 C406 1.379 . S
C412 C409 1.363 . S
C412 N410 1.356 . S
C413 C407 1.363 . S
C413 C408 1.379 . S
C413 N411 1.356 . S
N414 C406 1.356 . S
N414 H420 0.984 . S
N414 H421 0.984 . S
N415 C408 1.356 . S
N415 H418 0.984 . S
N415 H419 0.985 . S
H416 N411 0.984 . S
H417 N411 0.985 . S
H418 N415 0.984 . S
H419 N415 0.985 . S
H420 N414 0.984 . S
H421 N414 0.984 . S
H422 N410 0.984 . S
H423 N410 0.985 . S
C424 C425 1.363 . S
C424 C430 1.379 1_556 S
C424 N432 1.356 . S
C425 C424 1.363 . S
C425 C431 1.363 . S
C426 C427 1.363 . S
C426 C431 1.379 1_554 S
C426 N433 1.356 . S
C427 C426 1.363 . S
C427 C430 1.363 . S
N428 C430 1.356 . S
N428 H440 0.984 . S
N428 H441 0.985 . S
N429 C431 1.356 . S
N429 H434 0.984 . S
N429 H435 0.985 . S
C430 C424 1.379 1_554 S
C430 C427 1.363 . S
C430 N428 1.356 . S
C431 C425 1.363 . S
C431 C426 1.379 1_556 S
C431 N429 1.356 . S
N432 C424 1.356 . S
N432 H438 0.984 . S
N432 H439 0.984 . S
N433 C426 1.356 . S
N433 H436 0.984 . S
N433 H437 0.985 . S
H434 N429 0.984 . S
H435 N429 0.985 . S
H436 N433 0.984 . S
H437 N433 0.985 . S
H438 N432 0.984 . S
H439 N432 0.984 . S
H440 N428 0.984 . S
H441 N428 0.985 . S
C442 C443 1.363 . S
C442 C448 1.379 . S
C442 N450 1.356 . S
C443 C442 1.363 . S
C443 C449 1.363 . S
C444 C445 1.363 . S
C444 C449 1.379 . S
C444 N451 1.356 . S
C445 C444 1.363 . S
C445 C448 1.363 . S
N446 C448 1.356 . S
N446 H458 0.984 . S
N446 H459 0.985 . S
N447 C449 1.356 . S
N447 H452 0.984 . S
N447 H453 0.985 . S
C448 C442 1.379 . S
C448 C445 1.363 . S
C448 N446 1.356 . S
C449 C443 1.363 . S
C449 C444 1.379 . S
C449 N447 1.356 . S
N450 C442 1.356 . S
N450 H456 0.984 . S
N450 H457 0.984 . S
N451 C444 1.356 . S
N451 H454 0.984 . S
N451 H455 0.985 . S
H452 N447 0.984 . S
H453 N447 0.985 . S
H454 N451 0.984 . S
H455 N451 0.985 . S
H456 N450 0.984 . S
H457 N450 0.984 . S
H458 N446 0.984 . S
H459 N446 0.985 . S
C460 C461 1.363 . S
C460 C466 1.379 1_554 S
C460 N468 1.356 . S
C461 C460 1.363 . S
C461 C467 1.363 . S
C462 C463 1.363 . S
C462 C467 1.379 1_556 S
C462 N469 1.356 . S
C463 C462 1.363 . S
C463 C466 1.363 . S
N464 C466 1.356 . S
N464 H476 0.984 . S
N464 H477 0.985 . S
N465 C467 1.356 . S
N465 H470 0.984 . S
N465 H471 0.985 . S
C466 C460 1.379 1_556 S
C466 C463 1.363 . S
C466 N464 1.356 . S
C467 C461 1.363 . S
C467 C462 1.379 1_554 S
C467 N465 1.356 . S
N468 C460 1.356 . S
N468 H474 0.984 . S
N468 H475 0.984 . S
N469 C462 1.356 . S
N469 H472 0.984 . S
N469 H473 0.985 . S
H470 N465 0.984 . S
H471 N465 0.985 . S
H472 N469 0.984 . S
H473 N469 0.985 . S
H474 N468 0.984 . S
H475 N468 0.984 . S
H476 N464 0.984 . S
H477 N464 0.985 . S
C478 C479 1.363 . S
C478 C484 1.379 . S
C478 N486 1.356 . S
C479 C478 1.363 . S
C479 C485 1.363 . S
C480 C481 1.363 . S
C480 C485 1.379 . S
C480 N487 1.356 . S
C481 C480 1.363 . S
C481 C484 1.363 . S
N482 C484 1.356 . S
N482 H494 0.984 . S
N482 H495 0.985 . S
N483 C485 1.356 . S
N483 H488 0.984 . S
N483 H489 0.985 . S
C484 C478 1.379 . S
C484 C481 1.363 . S
C484 N482 1.356 . S
C485 C479 1.363 . S
C485 C480 1.379 . S
C485 N483 1.356 . S
N486 C478 1.356 . S
N486 H492 0.984 . S
N486 H493 0.984 . S
N487 C480 1.356 . S
N487 H490 0.984 . S
N487 H491 0.985 . S
H488 N483 0.984 . S
H489 N483 0.985 . S
H490 N487 0.984 . S
H491 N487 0.985 . S
H492 N486 0.984 . S
H493 N486 0.984 . S
H494 N482 0.984 . S
H495 N482 0.985 . S
C496 C497 1.363 1_554 S
C496 C502 1.379 . S
C496 N504 1.356 1_554 S
C497 C496 1.363 1_556 S
C497 C503 1.363 1_565 S
C498 C499 1.363 1_556 S
C498 C503 1.379 . S
C498 N505 1.356 1_556 S
C499 C498 1.363 1_554 S
C499 C502 1.363 1_545 S
N500 C502 1.356 . S
N500 H512 0.984 . S
N500 H513 0.985 1_565 S
N501 C503 1.356 . S
N501 H506 0.984 1_545 S
N501 H507 0.985 . S
C502 C496 1.379 . S
C502 C499 1.363 1_565 S
C502 N500 1.356 . S
C503 C497 1.363 1_545 S
C503 C498 1.379 . S
C503 N501 1.356 . S
N504 C496 1.356 1_556 S
N504 H510 0.984 1_556 S
N504 H511 0.984 . S
N505 C498 1.356 1_554 S
N505 H508 0.984 . S
N505 H509 0.985 1_554 S
H506 N501 0.984 1_565 S
H507 N501 0.985 . S
H508 N505 0.984 . S
H509 N505 0.985 1_556 S
H510 N504 0.984 1_554 S
H511 N504 0.984 . S
H512 N500 0.984 . S
H513 N500 0.985 1_545 S
C514 C515 1.363 1_545 S
C514 C520 1.379 . S
C514 N522 1.356 . S
C515 C514 1.363 1_565 S
C515 C521 1.363 . S
C516 C517 1.363 1_565 S
C516 C521 1.379 . S
C516 N523 1.356 . S
C517 C516 1.363 1_545 S
C517 C520 1.363 . S
N518 C520 1.356 . S
N518 H530 0.984 . S
N518 H531 0.985 . S
N519 C521 1.356 . S
N519 H524 0.984 . S
N519 H525 0.985 . S
C520 C514 1.379 . S
C520 C517 1.363 . S
C520 N518 1.356 . S
C521 C515 1.363 . S
C521 C516 1.379 . S
C521 N519 1.356 . S
N522 C514 1.356 . S
N522 H528 0.984 . S
N522 H529 0.984 1_545 S
N523 C516 1.356 . S
N523 H526 0.984 1_565 S
N523 H527 0.985 . S
H524 N519 0.984 . S
H525 N519 0.985 . S
H526 N523 0.984 1_545 S
H527 N523 0.985 . S
H528 N522 0.984 . S
H529 N522 0.984 1_565 S
H530 N518 0.984 . S
H531 N518 0.985 . S
C532 C533 1.392 . S
C532 C538 1.350 1_556 S
C532 N540 1.367 . S
C533 C532 1.392 . S
C533 C539 1.363 1_565 S
C534 C535 1.392 . S
C534 C539 1.350 1_554 S
C534 N541 1.367 . S
C535 C534 1.392 . S
C535 C538 1.363 1_545 S
N536 C538 1.356 . S
N536 H548 0.984 . S
N536 H549 0.985 1_565 S
N537 C539 1.356 . S
N537 H542 0.984 1_545 S
N537 H543 0.985 . S
C538 C532 1.350 1_554 S
C538 C535 1.363 1_565 S
C538 N536 1.356 . S
C539 C533 1.363 1_545 S
C539 C534 1.350 1_556 S
C539 N537 1.356 . S
N540 C532 1.367 . S
N540 H546 0.984 1_556 S
N540 H547 0.984 . S
N541 C534 1.367 . S
N541 H544 0.984 . S
N541 H545 0.985 1_554 S
H542 N537 0.984 1_565 S
H543 N537 0.985 . S
H544 N541 0.984 . S
H545 N541 0.985 1_556 S
H546 N540 0.984 1_554 S
H547 N540 0.984 . S
H548 N536 0.984 . S
H549 N536 0.985 1_545 S
C550 C551 1.363 1_545 S
C550 C556 1.379 . S
C550 N558 1.356 . S
C551 C550 1.363 1_565 S
C551 C557 1.363 . S
C552 C553 1.363 1_565 S
C552 C557 1.379 . S
C552 N559 1.356 . S
C553 C552 1.363 1_545 S
C553 C556 1.363 . S
N554 C556 1.356 . S
N554 H566 0.984 . S
N554 H567 0.985 . S
N555 C557 1.356 . S
N555 H560 0.984 . S
N555 H561 0.985 . S
C556 C550 1.379 . S
C556 C553 1.363 . S
C556 N554 1.356 . S
C557 C551 1.363 . S
C557 C552 1.379 . S
C557 N555 1.356 . S
N558 C550 1.356 . S
N558 H564 0.984 . S
N558 H565 0.984 1_545 S
N559 C552 1.356 . S
N559 H562 0.984 1_565 S
N559 H563 0.985 . S
H560 N555 0.984 . S
H561 N555 0.985 . S
H562 N559 0.984 1_545 S
H563 N559 0.985 . S
H564 N558 0.984 . S
H565 N558 0.984 1_565 S
H566 N554 0.984 . S
H567 N554 0.985 . S
C568 C569 1.363 . S
C568 C574 1.379 1_554 S
C568 N576 1.356 . S
C569 C568 1.363 . S
C569 C575 1.363 . S
C570 C571 1.363 . S
C570 C575 1.379 1_556 S
C570 N577 1.356 . S
C571 C570 1.363 . S
C571 C574 1.363 . S
N572 C574 1.356 . S
N572 H584 0.984 . S
N572 H585 0.985 . S
N573 C575 1.356 . S
N573 H578 0.984 . S
N573 H579 0.985 . S
C574 C568 1.379 1_556 S
C574 C571 1.363 . S
C574 N572 1.356 . S
C575 C569 1.363 . S
C575 C570 1.379 1_554 S
C575 N573 1.356 . S
N576 C568 1.356 . S
N576 H582 0.984 1_554 S
N576 H583 0.984 . S
N577 C570 1.356 . S
N577 H580 0.984 . S
N577 H581 0.985 1_556 S
H578 N573 0.984 . S
H579 N573 0.985 . S
H580 N577 0.984 . S
H581 N577 0.985 1_554 S
H582 N576 0.984 1_556 S
H583 N576 0.984 . S
H584 N572 0.984 . S
H585 N572 0.985 . S
C586 C587 1.363 . S
C586 C592 1.379 . S
C586 N594 1.356 . S
C587 C586 1.363 . S
C587 C593 1.363 . S
C588 C589 1.363 . S
C588 C593 1.379 . S
C588 N595 1.356 . S
C589 C588 1.363 . S
C589 C592 1.363 . S
N590 C592 1.356 . S
N590 H602 0.984 . S
N590 H603 0.985 . S
N591 C593 1.356 . S
N591 H596 0.984 . S
N591 H597 0.985 . S
C592 C586 1.379 . S
C592 C589 1.363 . S
C592 N590 1.356 . S
C593 C587 1.363 . S
C593 C588 1.379 . S
C593 N591 1.356 . S
N594 C586 1.356 . S
N594 H600 0.984 . S
N594 H601 0.984 . S
N595 C588 1.356 . S
N595 H598 0.984 . S
N595 H599 0.985 . S
H596 N591 0.984 . S
H597 N591 0.985 . S
H598 N595 0.984 . S
H599 N595 0.985 . S
H600 N594 0.984 . S
H601 N594 0.984 . S
H602 N590 0.984 . S
H603 N590 0.985 . S
C604 C605 1.363 . S
C604 C610 1.379 1_554 S
C604 N612 1.356 . S
C605 C604 1.363 . S
C605 C611 1.363 . S
C606 C607 1.363 . S
C606 C611 1.379 1_556 S
C606 N613 1.356 . S
C607 C606 1.363 . S
C607 C610 1.363 . S
N608 C610 1.356 . S
N608 H620 0.984 1_556 S
N608 H621 0.985 . S
N609 C611 1.356 . S
N609 H614 0.984 . S
N609 H615 0.985 1_554 S
C610 C604 1.379 1_556 S
C610 C607 1.363 . S
C610 N608 1.356 . S
C611 C605 1.363 . S
C611 C606 1.379 1_554 S
C611 N609 1.356 . S
N612 C604 1.356 . S
N612 H618 0.984 . S
N612 H619 0.984 . S
N613 C606 1.356 . S
N613 H616 0.984 . S
N613 H617 0.985 . S
H614 N609 0.984 . S
H615 N609 0.985 1_556 S
H616 N613 0.984 . S
H617 N613 0.985 . S
H618 N612 0.984 . S
H619 N612 0.984 . S
H620 N608 0.984 1_554 S
H621 N608 0.985 . S
C622 C623 1.363 . S
C622 C628 1.379 . S
C622 N630 1.356 . S
C623 C622 1.363 . S
C623 C629 1.363 . S
C624 C625 1.363 . S
C624 C629 1.379 . S
C624 N631 1.356 . S
C625 C624 1.363 . S
C625 C628 1.363 . S
N626 C628 1.356 . S
N626 H638 0.984 . S
N626 H639 0.985 . S
N627 C629 1.356 . S
N627 H632 0.984 . S
N627 H633 0.985 . S
C628 C622 1.379 . S
C628 C625 1.363 . S
C628 N626 1.356 . S
C629 C623 1.363 . S
C629 C624 1.379 . S
C629 N627 1.356 . S
N630 C622 1.356 . S
N630 H636 0.984 . S
N630 H637 0.984 . S
N631 C624 1.356 . S
N631 H634 0.984 . S
N631 H635 0.985 . S
H632 N627 0.984 . S
H633 N627 0.985 . S
H634 N631 0.984 . S
H635 N631 0.985 . S
H636 N630 0.984 . S
H637 N630 0.984 . S
H638 N626 0.984 . S
H639 N626 0.985 . S
C640 C641 1.363 . S
C640 C646 1.379 . S
C640 N648 1.356 . S
C641 C640 1.363 . S
C641 C647 1.363 . S
C642 C643 1.363 . S
C642 C647 1.379 . S
C642 N649 1.356 . S
C643 C642 1.363 . S
C643 C646 1.363 . S
N644 C646 1.356 . S
N644 H656 0.984 . S
N644 H657 0.985 . S
N645 C647 1.356 . S
N645 H650 0.984 . S
N645 H651 0.985 . S
C646 C640 1.379 . S
C646 C643 1.363 . S
C646 N644 1.356 . S
C647 C641 1.363 . S
C647 C642 1.379 . S
C647 N645 1.356 . S
N648 C640 1.356 . S
N648 H654 0.984 . S
N648 H655 0.984 . S
N649 C642 1.356 . S
N649 H652 0.984 . S
N649 H653 0.985 . S
H650 N645 0.984 . S
H651 N645 0.985 . S
H652 N649 0.984 . S
H653 N649 0.985 . S
H654 N648 0.984 . S
H655 N648 0.984 . S
H656 N644 0.984 . S
H657 N644 0.985 . S
C658 C659 1.363 . S
C658 C664 1.379 . S
C658 N666 1.356 . S
C659 C658 1.363 . S
C659 C665 1.363 . S
C660 C661 1.363 . S
C660 C665 1.379 . S
C660 N667 1.356 . S
C661 C660 1.363 . S
C661 C664 1.363 . S
N662 C664 1.356 . S
N662 H674 0.984 . S
N662 H675 0.985 . S
N663 C665 1.356 . S
N663 H668 0.984 . S
N663 H669 0.985 . S
C664 C658 1.379 . S
C664 C661 1.363 . S
C664 N662 1.356 . S
C665 C659 1.363 . S
C665 C660 1.379 . S
C665 N663 1.356 . S
N666 C658 1.356 . S
N666 H672 0.984 . S
N666 H673 0.984 . S
N667 C660 1.356 . S
N667 H670 0.984 . S
N667 H671 0.985 . S
H668 N663 0.984 . S
H669 N663 0.985 . S
H670 N667 0.984 . S
H671 N667 0.985 . S
H672 N666 0.984 . S
H673 N666 0.984 . S
H674 N662 0.984 . S
H675 N662 0.985 . S
C676 C677 1.363 . S
C676 C682 1.379 . S
C676 N684 1.356 . S
C677 C676 1.363 . S
C677 C683 1.363 . S
C678 C679 1.363 . S
C678 C683 1.379 . S
C678 N685 1.356 . S
C679 C678 1.363 . S
C679 C682 1.363 . S
N680 C682 1.356 . S
N680 H692 0.984 . S
N680 H693 0.985 . S
N681 C683 1.356 . S
N681 H686 0.984 . S
N681 H687 0.985 . S
C682 C676 1.379 . S
C682 C679 1.363 . S
C682 N680 1.356 . S
C683 C677 1.363 . S
C683 C678 1.379 . S
C683 N681 1.356 . S
N684 C676 1.356 . S
N684 H690 0.984 . S
N684 H691 0.984 . S
N685 C678 1.356 . S
N685 H688 0.984 . S
N685 H689 0.985 . S
H686 N681 0.984 . S
H687 N681 0.985 . S
H688 N685 0.984 . S
H689 N685 0.985 . S
H690 N684 0.984 . S
H691 N684 0.984 . S
H692 N680 0.984 . S
H693 N680 0.985 . S
C694 C695 1.363 . S
C694 C700 1.379 . S
C694 N702 1.356 . S
C695 C694 1.363 . S
C695 C701 1.363 . S
C696 C697 1.363 . S
C696 C701 1.379 . S
C696 N703 1.356 . S
C697 C696 1.363 . S
C697 C700 1.363 . S
N698 C700 1.356 . S
N698 H710 0.984 . S
N698 H711 0.985 . S
N699 C701 1.356 . S
N699 H704 0.984 . S
N699 H705 0.985 . S
C700 C694 1.379 . S
C700 C697 1.363 . S
C700 N698 1.356 . S
C701 C695 1.363 . S
C701 C696 1.379 . S
C701 N699 1.356 . S
N702 C694 1.356 . S
N702 H708 0.984 . S
N702 H709 0.984 . S
N703 C696 1.356 . S
N703 H706 0.984 . S
N703 H707 0.985 . S
H704 N699 0.984 . S
H705 N699 0.985 . S
H706 N703 0.984 . S
H707 N703 0.985 . S
H708 N702 0.984 . S
H709 N702 0.984 . S
H710 N698 0.984 . S
H711 N698 0.985 . S
C712 C713 1.363 . S
C712 C718 1.379 . S
C712 N720 1.356 . S
C713 C712 1.363 . S
C713 C719 1.363 . S
C714 C715 1.363 . S
C714 C719 1.379 . S
C714 N721 1.356 . S
C715 C714 1.363 . S
C715 C718 1.363 . S
N716 C718 1.356 . S
N716 H728 0.984 . S
N716 H729 0.985 . S
N717 C719 1.356 . S
N717 H722 0.984 . S
N717 H723 0.985 . S
C718 C712 1.379 . S
C718 C715 1.363 . S
C718 N716 1.356 . S
C719 C713 1.363 . S
C719 C714 1.379 . S
C719 N717 1.356 . S
N720 C712 1.356 . S
N720 H726 0.984 . S
N720 H727 0.984 . S
N721 C714 1.356 . S
N721 H724 0.984 . S
N721 H725 0.985 . S
H722 N717 0.984 . S
H723 N717 0.985 . S
H724 N721 0.984 . S
H725 N721 0.985 . S
H726 N720 0.984 . S
H727 N720 0.984 . S
H728 N716 0.984 . S
H729 N716 0.985 . S
C730 C731 1.363 . S
C730 C736 1.379 . S
C730 N738 1.356 . S
C731 C730 1.363 . S
C731 C737 1.363 . S
C732 C733 1.363 . S
C732 C737 1.379 . S
C732 N739 1.356 . S
C733 C732 1.363 . S
C733 C736 1.363 . S
N734 C736 1.356 . S
N734 H746 0.984 . S
N734 H747 0.985 . S
N735 C737 1.356 . S
N735 H740 0.984 . S
N735 H741 0.985 . S
C736 C730 1.379 . S
C736 C733 1.363 . S
C736 N734 1.356 . S
C737 C731 1.363 . S
C737 C732 1.379 . S
C737 N735 1.356 . S
N738 C730 1.356 . S
N738 H744 0.984 . S
N738 H745 0.984 . S
N739 C732 1.356 . S
N739 H742 0.984 . S
N739 H743 0.985 . S
H740 N735 0.984 . S
H741 N735 0.985 . S
H742 N739 0.984 . S
H743 N739 0.985 . S
H744 N738 0.984 . S
H745 N738 0.984 . S
H746 N734 0.984 . S
H747 N734 0.985 . S
C748 C749 1.363 . S
C748 C754 1.379 . S
C748 N756 1.356 . S
C749 C748 1.363 . S
C749 C755 1.363 . S
C750 C751 1.363 . S
C750 C755 1.379 . S
C750 N757 1.356 . S
C751 C750 1.363 . S
C751 C754 1.363 . S
N752 C754 1.356 . S
N752 H764 0.984 . S
N752 H765 0.985 . S
N753 C755 1.356 . S
N753 H758 0.984 . S
N753 H759 0.985 . S
C754 C748 1.379 . S
C754 C751 1.363 . S
C754 N752 1.356 . S
C755 C749 1.363 . S
C755 C750 1.379 . S
C755 N753 1.356 . S
N756 C748 1.356 . S
N756 H762 0.984 . S
N756 H763 0.984 . S
N757 C750 1.356 . S
N757 H760 0.984 . S
N757 H761 0.985 . S
H758 N753 0.984 . S
H759 N753 0.985 . S
H760 N757 0.984 . S
H761 N757 0.985 . S
H762 N756 0.984 . S
H763 N756 0.984 . S
H764 N752 0.984 . S
H765 N752 0.985 . S
C766 C767 1.363 . S
C766 C772 1.379 . S
C766 N774 1.356 . S
C767 C766 1.363 . S
C767 C773 1.363 . S
C768 C769 1.363 . S
C768 C773 1.379 . S
C768 N775 1.356 . S
C769 C768 1.363 . S
C769 C772 1.363 . S
N770 C772 1.356 . S
N770 H782 0.984 . S
N770 H783 0.985 . S
N771 C773 1.356 . S
N771 H776 0.984 . S
N771 H777 0.985 . S
C772 C766 1.379 . S
C772 C769 1.363 . S
C772 N770 1.356 . S
C773 C767 1.363 . S
C773 C768 1.379 . S
C773 N771 1.356 . S
N774 C766 1.356 . S
N774 H780 0.984 . S
N774 H781 0.984 . S
N775 C768 1.356 . S
N775 H778 0.984 . S
N775 H779 0.985 . S
H776 N771 0.984 . S
H777 N771 0.985 . S
H778 N775 0.984 . S
H779 N775 0.985 . S
H780 N774 0.984 . S
H781 N774 0.984 . S
H782 N770 0.984 . S
H783 N770 0.985 . S
C784 C785 1.363 . S
C784 C790 1.379 . S
C784 N792 1.356 . S
C785 C784 1.363 . S
C785 C791 1.363 . S
C786 C787 1.363 . S
C786 C791 1.379 . S
C786 N793 1.356 . S
C787 C786 1.363 . S
C787 C790 1.363 . S
N788 C790 1.356 . S
N788 H800 0.984 . S
N788 H801 0.985 . S
N789 C791 1.356 . S
N789 H794 0.984 . S
N789 H795 0.985 . S
C790 C784 1.379 . S
C790 C787 1.363 . S
C790 N788 1.356 . S
C791 C785 1.363 . S
C791 C786 1.379 . S
C791 N789 1.356 . S
N792 C784 1.356 . S
N792 H798 0.984 . S
N792 H799 0.984 . S
N793 C786 1.356 . S
N793 H796 0.984 . S
N793 H797 0.985 . S
H794 N789 0.984 . S
H795 N789 0.985 . S
H796 N793 0.984 . S
H797 N793 0.985 . S
H798 N792 0.984 . S
H799 N792 0.984 . S
H800 N788 0.984 . S
H801 N788 0.985 . S
C802 C803 1.363 . S
C802 C808 1.379 1_455 S
C802 N810 1.356 . S
C803 C802 1.363 . S
C803 C809 1.363 . S
C804 C805 1.363 . S
C804 C809 1.379 1_655 S
C804 N811 1.356 . S
C805 C804 1.363 . S
C805 C808 1.363 . S
N806 C808 1.356 . S
N806 H818 0.984 . S
N806 H819 0.985 . S
N807 C809 1.356 . S
N807 H812 0.984 . S
N807 H813 0.985 . S
C808 C802 1.379 1_655 S
C808 C805 1.363 . S
C808 N806 1.356 . S
C809 C803 1.363 . S
C809 C804 1.379 1_455 S
C809 N807 1.356 . S
N810 C802 1.356 . S
N810 H816 0.984 . S
N810 H817 0.984 . S
N811 C804 1.356 . S
N811 H814 0.984 . S
N811 H815 0.985 . S
H812 N807 0.984 . S
H813 N807 0.985 . S
H814 N811 0.984 . S
H815 N811 0.985 . S
H816 N810 0.984 . S
H817 N810 0.984 . S
H818 N806 0.984 . S
H819 N806 0.985 . S
C820 C821 1.363 . S
C820 C826 1.379 . S
C820 N828 1.356 . S
C821 C820 1.363 . S
C821 C827 1.363 . S
C822 C823 1.363 . S
C822 C827 1.379 . S
C822 N829 1.356 . S
C823 C822 1.363 . S
C823 C826 1.363 . S
N824 C826 1.356 . S
N824 H836 0.984 . S
N824 H837 0.985 . S
N825 C827 1.356 . S
N825 H830 0.984 . S
N825 H831 0.985 . S
C826 C820 1.379 . S
C826 C823 1.363 . S
C826 N824 1.356 . S
C827 C821 1.363 . S
C827 C822 1.379 . S
C827 N825 1.356 . S
N828 C820 1.356 . S
N828 H834 0.984 . S
N828 H835 0.984 . S
N829 C822 1.356 . S
N829 H832 0.984 . S
N829 H833 0.985 . S
H830 N825 0.984 . S
H831 N825 0.985 . S
H832 N829 0.984 . S
H833 N829 0.985 . S
H834 N828 0.984 . S
H835 N828 0.984 . S
H836 N824 0.984 . S
H837 N824 0.985 . S
C838 C839 1.363 . S
C838 C844 1.379 1_655 S
C838 N846 1.356 . S
C839 C838 1.363 . S
C839 C845 1.363 . S
C840 C841 1.363 . S
C840 C845 1.379 1_455 S
C840 N847 1.356 . S
C841 C840 1.363 . S
C841 C844 1.363 . S
N842 C844 1.356 . S
N842 H854 0.984 . S
N842 H855 0.985 . S
N843 C845 1.356 . S
N843 H848 0.984 . S
N843 H849 0.985 . S
C844 C838 1.379 1_455 S
C844 C841 1.363 . S
C844 N842 1.356 . S
C845 C839 1.363 . S
C845 C840 1.379 1_655 S
C845 N843 1.356 . S
N846 C838 1.356 . S
N846 H852 0.984 . S
N846 H853 0.984 . S
N847 C840 1.356 . S
N847 H850 0.984 . S
N847 H851 0.985 . S
H848 N843 0.984 . S
H849 N843 0.985 . S
H850 N847 0.984 . S
H851 N847 0.985 . S
H852 N846 0.984 . S
H853 N846 0.984 . S
H854 N842 0.984 . S
H855 N842 0.985 . S
C856 C857 1.363 . S
C856 C862 1.379 1_655 S
C856 N864 1.356 . S
C857 C856 1.363 . S
C857 C863 1.363 . S
C858 C859 1.363 . S
C858 C863 1.379 1_455 S
C858 N865 1.356 . S
C859 C858 1.363 . S
C859 C862 1.363 . S
N860 C862 1.356 . S
N860 H872 0.984 . S
N860 H873 0.985 . S
N861 C863 1.356 . S
N861 H866 0.984 . S
N861 H867 0.985 . S
C862 C856 1.379 1_455 S
C862 C859 1.363 . S
C862 N860 1.356 . S
C863 C857 1.363 . S
C863 C858 1.379 1_655 S
C863 N861 1.356 . S
N864 C856 1.356 . S
N864 H870 0.984 . S
N864 H871 0.984 . S
N865 C858 1.356 . S
N865 H868 0.984 . S
N865 H869 0.985 . S
H866 N861 0.984 . S
H867 N861 0.985 . S
H868 N865 0.984 . S
H869 N865 0.985 . S
H870 N864 0.984 . S
H871 N864 0.984 . S
H872 N860 0.984 . S
H873 N860 0.985 . S
C874 C875 1.363 . S
C874 C880 1.379 . S
C874 N882 1.356 . S
C875 C874 1.363 . S
C875 C881 1.363 . S
C876 C877 1.363 . S
C876 C881 1.379 . S
C876 N883 1.356 . S
C877 C876 1.363 . S
C877 C880 1.363 . S
N878 C880 1.356 . S
N878 H890 0.984 . S
N878 H891 0.985 . S
N879 C881 1.356 . S
N879 H884 0.984 . S
N879 H885 0.985 . S
C880 C874 1.379 . S
C880 C877 1.363 . S
C880 N878 1.356 . S
C881 C875 1.363 . S
C881 C876 1.379 . S
C881 N879 1.356 . S
N882 C874 1.356 . S
N882 H888 0.984 . S
N882 H889 0.984 . S
N883 C876 1.356 . S
N883 H886 0.984 . S
N883 H887 0.985 . S
H884 N879 0.984 . S
H885 N879 0.985 . S
H886 N883 0.984 . S
H887 N883 0.985 . S
H888 N882 0.984 . S
H889 N882 0.984 . S
H890 N878 0.984 . S
H891 N878 0.985 . S
C892 C893 1.363 . S
C892 C898 1.379 1_455 S
C892 N900 1.356 . S
C893 C892 1.363 . S
C893 C899 1.363 . S
C894 C895 1.363 . S
C894 C899 1.379 1_655 S
C894 N901 1.356 . S
C895 C894 1.363 . S
C895 C898 1.363 . S
N896 C898 1.356 . S
N896 H908 0.984 . S
N896 H909 0.985 . S
N897 C899 1.356 . S
N897 H902 0.984 . S
N897 H903 0.985 . S
C898 C892 1.379 1_655 S
C898 C895 1.363 . S
C898 N896 1.356 . S
C899 C893 1.363 . S
C899 C894 1.379 1_455 S
C899 N897 1.356 . S
N900 C892 1.356 . S
N900 H906 0.984 . S
N900 H907 0.984 . S
N901 C894 1.356 . S
N901 H904 0.984 . S
N901 H905 0.985 . S
H902 N897 0.984 . S
H903 N897 0.985 . S
H904 N901 0.984 . S
H905 N901 0.985 . S
H906 N900 0.984 . S
H907 N900 0.984 . S
H908 N896 0.984 . S
H909 N896 0.985 . S
C910 C911 1.363 . S
C910 C916 1.379 . S
C910 N918 1.356 . S
C911 C910 1.363 . S
C911 C917 1.363 . S
C912 C913 1.363 . S
C912 C917 1.379 . S
C912 N919 1.356 . S
C913 C912 1.363 . S
C913 C916 1.363 . S
N914 C916 1.356 . S
N914 H926 0.984 . S
N914 H927 0.985 . S
N915 C917 1.356 . S
N915 H920 0.984 . S
N915 H921 0.985 . S
C916 C910 1.379 . S
C916 C913 1.363 . S
C916 N914 1.356 . S
C917 C911 1.363 . S
C917 C912 1.379 . S
C917 N915 1.356 . S
N918 C910 1.356 . S
N918 H924 0.984 . S
N918 H925 0.984 . S
N919 C912 1.356 . S
N919 H922 0.984 . S
N919 H923 0.985 . S
H920 N915 0.984 . S
H921 N915 0.985 . S
H922 N919 0.984 . S
H923 N919 0.985 . S
H924 N918 0.984 . S
H925 N918 0.984 . S
H926 N914 0.984 . S
H927 N914 0.985 . S
C928 C929 1.363 . S
C928 C934 1.379 . S
C928 N936 1.356 1_565 S
C929 C928 1.363 . S
C929 C935 1.363 . S
C930 C931 1.363 . S
C930 C935 1.379 . S
C930 N937 1.356 . S
C931 C930 1.363 . S
C931 C934 1.363 . S
N932 C934 1.356 . S
N932 H944 0.984 . S
N932 H945 0.985 . S
N933 C935 1.356 . S
N933 H938 0.984 1_565 S
N933 H939 0.985 . S
C934 C928 1.379 . S
C934 C931 1.363 . S
C934 N932 1.356 . S
C935 C929 1.363 . S
C935 C930 1.379 . S
C935 N933 1.356 . S
N936 C928 1.356 1_545 S
N936 H942 0.984 . S
N936 H943 0.984 . S
N937 C930 1.356 . S
N937 H940 0.984 . S
N937 H941 0.985 . S
H938 N933 0.984 1_545 S
H939 N933 0.985 . S
H940 N937 0.984 . S
H941 N937 0.985 . S
H942 N936 0.984 . S
H943 N936 0.984 . S
H944 N932 0.984 . S
H945 N932 0.985 . S
C946 C947 1.363 . S
C946 C952 1.379 . S
C946 N954 1.356 1_545 S
C947 C946 1.363 . S
C947 C953 1.363 . S
C948 C949 1.363 . S
C948 C953 1.379 . S
C948 N955 1.356 . S
C949 C948 1.363 . S
C949 C952 1.363 . S
N950 C952 1.356 . S
N950 H962 0.984 . S
N950 H963 0.985 . S
N951 C953 1.356 . S
N951 H956 0.984 1_545 S
N951 H957 0.985 . S
C952 C946 1.379 . S
C952 C949 1.363 . S
C952 N950 1.356 . S
C953 C947 1.363 . S
C953 C948 1.379 . S
C953 N951 1.356 . S
N954 C946 1.356 1_565 S
N954 H960 0.984 . S
N954 H961 0.984 . S
N955 C948 1.356 . S
N955 H958 0.984 . S
N955 H959 0.985 . S
H956 N951 0.984 1_565 S
H957 N951 0.985 . S
H958 N955 0.984 . S
H959 N955 0.985 . S
H960 N954 0.984 . S
H961 N954 0.984 . S
H962 N950 0.984 . S
H963 N950 0.985 . S
C964 C965 1.363 . S
C964 C970 1.379 . S
C964 N972 1.356 . S
C965 C964 1.363 . S
C965 C971 1.363 . S
C966 C967 1.363 . S
C966 C971 1.379 . S
C966 N973 1.356 . S
C967 C966 1.363 . S
C967 C970 1.363 . S
N968 C970 1.356 1_565 S
N968 H980 0.984 . S
N968 H981 0.985 . S
N969 C971 1.356 . S
N969 H974 0.984 . S
N969 H975 0.985 . S
C970 C964 1.379 . S
C970 C967 1.363 . S
C970 N968 1.356 1_545 S
C971 C965 1.363 . S
C971 C966 1.379 . S
C971 N969 1.356 . S
N972 C964 1.356 . S
N972 H978 0.984 . S
N972 H979 0.984 . S
N973 C966 1.356 . S
N973 H976 0.984 1_545 S
N973 H977 0.985 . S
H974 N969 0.984 . S
H975 N969 0.985 . S
H976 N973 0.984 1_565 S
H977 N973 0.985 . S
H978 N972 0.984 . S
H979 N972 0.984 . S
H980 N968 0.984 . S
H981 N968 0.985 . S
C982 C983 1.363 . S
C982 C988 1.379 . S
C982 N990 1.356 . S
C983 C982 1.363 . S
C983 C989 1.363 . S
C984 C985 1.363 . S
C984 C989 1.379 . S
C984 N991 1.356 1_565 S
C985 C984 1.363 . S
C985 C988 1.363 . S
N986 C988 1.356 . S
N986 H998 0.984 . S
N986 H999 0.985 1_565 S
N987 C989 1.356 . S
N987 H992 0.984 . S
N987 H993 0.985 . S
C988 C982 1.379 . S
C988 C985 1.363 . S
C988 N986 1.356 . S
C989 C983 1.363 . S
C989 C984 1.379 . S
C989 N987 1.356 . S
N990 C982 1.356 . S
N990 H996 0.984 . S
N990 H997 0.984 . S
N991 C984 1.356 1_545 S
N991 H994 0.984 . S
N991 H995 0.985 . S
H992 N987 0.984 . S
H993 N987 0.985 . S
H994 N991 0.984 . S
H995 N991 0.985 . S
H996 N990 0.984 . S
H997 N990 0.984 . S
H998 N986 0.984 . S
H999 N986 0.985 1_545 S
C1000 C1001 1.363 . S
C1000 C1006 1.379 . S
C1000 N1008 1.356 . S
C1001 C1000 1.363 . S
C1001 C1007 1.363 . S
C1002 C1003 1.363 . S
C1002 C1007 1.379 . S
C1002 N1009 1.356 1_545 S
C1003 C1002 1.363 . S
C1003 C1006 1.363 . S
N1004 C1006 1.356 . S
N1004 H1016 0.984 . S
N1004 H1017 0.985 1_545 S
N1005 C1007 1.356 . S
N1005 H1010 0.984 . S
N1005 H1011 0.985 . S
C1006 C1000 1.379 . S
C1006 C1003 1.363 . S
C1006 N1004 1.356 . S
C1007 C1001 1.363 . S
C1007 C1002 1.379 . S
C1007 N1005 1.356 . S
N1008 C1000 1.356 . S
N1008 H1014 0.984 . S
N1008 H1015 0.984 . S
N1009 C1002 1.356 1_565 S
N1009 H1012 0.984 . S
N1009 H1013 0.985 . S
H1010 N1005 0.984 . S
H1011 N1005 0.985 . S
H1012 N1009 0.984 . S
H1013 N1009 0.985 . S
H1014 N1008 0.984 . S
H1015 N1008 0.984 . S
H1016 N1004 0.984 . S
H1017 N1004 0.985 1_565 S
C1018 C1019 1.363 . S
C1018 C1024 1.379 . S
C1018 N1026 1.356 1_565 S
C1019 C1018 1.363 . S
C1019 C1025 1.363 . S
C1020 C1021 1.363 . S
C1020 C1025 1.379 . S
C1020 N1027 1.356 . S
C1021 C1020 1.363 . S
C1021 C1024 1.363 . S
N1022 C1024 1.356 . S
N1022 H1034 0.984 . S
N1022 H1035 0.985 . S
N1023 C1025 1.356 . S
N1023 H1028 0.984 1_565 S
N1023 H1029 0.985 . S
C1024 C1018 1.379 . S
C1024 C1021 1.363 . S
C1024 N1022 1.356 . S
C1025 C1019 1.363 . S
C1025 C1020 1.379 . S
C1025 N1023 1.356 . S
N1026 C1018 1.356 1_545 S
N1026 H1032 0.984 . S
N1026 H1033 0.984 . S
N1027 C1020 1.356 . S
N1027 H1030 0.984 . S
N1027 H1031 0.985 . S
H1028 N1023 0.984 1_545 S
H1029 N1023 0.985 . S
H1030 N1027 0.984 . S
H1031 N1027 0.985 . S
H1032 N1026 0.984 . S
H1033 N1026 0.984 . S
H1034 N1022 0.984 . S
H1035 N1022 0.985 . S
C1036 C1037 1.363 . S
C1036 C1042 1.379 . S
C1036 N1044 1.356 1_565 S
C1037 C1036 1.363 . S
C1037 C1043 1.363 . S
C1038 C1039 1.363 . S
C1038 C1043 1.379 . S
C1038 N1045 1.356 . S
C1039 C1038 1.363 . S
C1039 C1042 1.363 . S
N1040 C1042 1.356 . S
N1040 H1052 0.984 . S
N1040 H1053 0.985 . S
N1041 C1043 1.356 . S
N1041 H1046 0.984 1_565 S
N1041 H1047 0.985 . S
C1042 C1036 1.379 . S
C1042 C1039 1.363 . S
C1042 N1040 1.356 . S
C1043 C1037 1.363 . S
C1043 C1038 1.379 . S
C1043 N1041 1.356 . S
N1044 C1036 1.356 1_545 S
N1044 H1050 0.984 . S
N1044 H1051 0.984 . S
N1045 C1038 1.356 . S
N1045 H1048 0.984 . S
N1045 H1049 0.985 . S
H1046 N1041 0.984 1_545 S
H1047 N1041 0.985 . S
H1048 N1045 0.984 . S
H1049 N1045 0.985 . S
H1050 N1044 0.984 . S
H1051 N1044 0.984 . S
H1052 N1040 0.984 . S
H1053 N1040 0.985 . S
C1054 C1055 1.363 . S
C1054 C1060 1.379 . S
C1054 N1062 1.356 . S
C1055 C1054 1.363 . S
C1055 C1061 1.363 . S
C1056 C1057 1.363 . S
C1056 C1061 1.379 . S
C1056 N1063 1.356 . S
C1057 C1056 1.363 . S
C1057 C1060 1.363 . S
N1058 C1060 1.356 1_565 S
N1058 H1070 0.984 . S
N1058 H1071 0.985 . S
N1059 C1061 1.356 . S
N1059 H1064 0.984 . S
N1059 H1065 0.985 . S
C1060 C1054 1.379 . S
C1060 C1057 1.363 . S
C1060 N1058 1.356 1_545 S
C1061 C1055 1.363 . S
C1061 C1056 1.379 . S
C1061 N1059 1.356 . S
N1062 C1054 1.356 . S
N1062 H1068 0.984 . S
N1062 H1069 0.984 . S
N1063 C1056 1.356 . S
N1063 H1066 0.984 1_545 S
N1063 H1067 0.985 . S
H1064 N1059 0.984 . S
H1065 N1059 0.985 . S
H1066 N1063 0.984 1_565 S
H1067 N1063 0.985 . S
H1068 N1062 0.984 . S
H1069 N1062 0.984 . S
H1070 N1058 0.984 . S
H1071 N1058 0.985 . S
C1072 C1073 1.363 . S
C1072 C1078 1.379 . S
C1072 N1080 1.356 . S
C1073 C1072 1.363 . S
C1073 C1079 1.363 . S
C1074 C1075 1.363 . S
C1074 C1079 1.379 . S
C1074 N1081 1.356 . S
C1075 C1074 1.363 . S
C1075 C1078 1.363 . S
N1076 C1078 1.356 . S
N1076 H1088 0.984 . S
N1076 H1089 0.985 . S
N1077 C1079 1.356 . S
N1077 H1082 0.984 . S
N1077 H1083 0.985 . S
C1078 C1072 1.379 . S
C1078 C1075 1.363 . S
C1078 N1076 1.356 . S
C1079 C1073 1.363 . S
C1079 C1074 1.379 . S
C1079 N1077 1.356 . S
N1080 C1072 1.356 . S
N1080 H1086 0.984 . S
N1080 H1087 0.984 . S
N1081 C1074 1.356 . S
N1081 H1084 0.984 . S
N1081 H1085 0.985 . S
H1082 N1077 0.984 . S
H1083 N1077 0.985 . S
H1084 N1081 0.984 . S
H1085 N1081 0.985 . S
H1086 N1080 0.984 . S
H1087 N1080 0.984 . S
H1088 N1076 0.984 . S
H1089 N1076 0.985 . S
C1090 C1091 1.363 . S
C1090 C1096 1.379 . S
C1090 N1098 1.356 . S
C1091 C1090 1.363 . S
C1091 C1097 1.363 . S
C1092 C1093 1.363 . S
C1092 C1097 1.379 . S
C1092 N1099 1.356 . S
C1093 C1092 1.363 . S
C1093 C1096 1.363 . S
N1094 C1096 1.356 . S
N1094 H1106 0.984 . S
N1094 H1107 0.985 . S
N1095 C1097 1.356 . S
N1095 H1100 0.984 . S
N1095 H1101 0.985 . S
C1096 C1090 1.379 . S
C1096 C1093 1.363 . S
C1096 N1094 1.356 . S
C1097 C1091 1.363 . S
C1097 C1092 1.379 . S
C1097 N1095 1.356 . S
N1098 C1090 1.356 . S
N1098 H1104 0.984 . S
N1098 H1105 0.984 . S
N1099 C1092 1.356 . S
N1099 H1102 0.984 . S
N1099 H1103 0.985 . S
H1100 N1095 0.984 . S
H1101 N1095 0.985 . S
H1102 N1099 0.984 . S
H1103 N1099 0.985 . S
H1104 N1098 0.984 . S
H1105 N1098 0.984 . S
H1106 N1094 0.984 . S
H1107 N1094 0.985 . S
C1108 C1109 1.363 . S
C1108 C1114 1.379 . S
C1108 N1116 1.356 . S
C1109 C1108 1.363 . S
C1109 C1115 1.363 . S
C1110 C1111 1.363 . S
C1110 C1115 1.379 . S
C1110 N1117 1.356 . S
C1111 C1110 1.363 . S
C1111 C1114 1.363 . S
N1112 C1114 1.356 . S
N1112 H1124 0.984 . S
N1112 H1125 0.985 . S
N1113 C1115 1.356 . S
N1113 H1118 0.984 . S
N1113 H1119 0.985 . S
C1114 C1108 1.379 . S
C1114 C1111 1.363 . S
C1114 N1112 1.356 . S
C1115 C1109 1.363 . S
C1115 C1110 1.379 . S
C1115 N1113 1.356 . S
N1116 C1108 1.356 . S
N1116 H1122 0.984 . S
N1116 H1123 0.984 . S
N1117 C1110 1.356 . S
N1117 H1120 0.984 . S
N1117 H1121 0.985 . S
H1118 N1113 0.984 . S
H1119 N1113 0.985 . S
H1120 N1117 0.984 . S
H1121 N1117 0.985 . S
H1122 N1116 0.984 . S
H1123 N1116 0.984 . S
H1124 N1112 0.984 . S
H1125 N1112 0.985 . S
C1126 C1127 1.363 . S
C1126 C1132 1.379 . S
C1126 N1134 1.356 . S
C1127 C1126 1.363 . S
C1127 C1133 1.363 . S
C1128 C1129 1.363 . S
C1128 C1133 1.379 . S
C1128 N1135 1.356 . S
C1129 C1128 1.363 . S
C1129 C1132 1.363 . S
N1130 C1132 1.356 . S
N1130 H1142 0.984 . S
N1130 H1143 0.985 . S
N1131 C1133 1.356 . S
N1131 H1136 0.984 . S
N1131 H1137 0.985 . S
C1132 C1126 1.379 . S
C1132 C1129 1.363 . S
C1132 N1130 1.356 . S
C1133 C1127 1.363 . S
C1133 C1128 1.379 . S
C1133 N1131 1.356 . S
N1134 C1126 1.356 . S
N1134 H1140 0.984 . S
N1134 H1141 0.984 . S
N1135 C1128 1.356 . S
N1135 H1138 0.984 . S
N1135 H1139 0.985 . S
H1136 N1131 0.984 . S
H1137 N1131 0.985 . S
H1138 N1135 0.984 . S
H1139 N1135 0.985 . S
H1140 N1134 0.984 . S
H1141 N1134 0.984 . S
H1142 N1130 0.984 . S
H1143 N1130 0.985 . S
C1144 C1145 1.363 . S
C1144 C1150 1.379 . S
C1144 N1152 1.356 . S
C1145 C1144 1.363 . S
C1145 C1151 1.363 . S
C1146 C1147 1.363 . S
C1146 C1151 1.379 . S
C1146 N1153 1.356 . S
C1147 C1146 1.363 . S
C1147 C1150 1.363 . S
N1148 C1150 1.356 . S
N1148 H1160 0.984 . S
N1148 H1161 0.985 . S
N1149 C1151 1.356 . S
N1149 H1154 0.984 . S
N1149 H1155 0.985 . S
C1150 C1144 1.379 . S
C1150 C1147 1.363 . S
C1150 N1148 1.356 . S
C1151 C1145 1.363 . S
C1151 C1146 1.379 . S
C1151 N1149 1.356 . S
N1152 C1144 1.356 . S
N1152 H1158 0.984 . S
N1152 H1159 0.984 . S
N1153 C1146 1.356 . S
N1153 H1156 0.984 . S
N1153 H1157 0.985 . S
H1154 N1149 0.984 . S
H1155 N1149 0.985 . S
H1156 N1153 0.984 . S
H1157 N1153 0.985 . S
H1158 N1152 0.984 . S
H1159 N1152 0.984 . S
H1160 N1148 0.984 . S
H1161 N1148 0.985 . S
C1162 C1163 1.363 . S
C1162 C1168 1.379 . S
C1162 N1170 1.356 . S
C1163 C1162 1.363 . S
C1163 C1169 1.363 . S
C1164 C1165 1.363 . S
C1164 C1169 1.379 . S
C1164 N1171 1.356 . S
C1165 C1164 1.363 . S
C1165 C1168 1.363 . S
N1166 C1168 1.356 . S
N1166 H1178 0.984 . S
N1166 H1179 0.985 . S
N1167 C1169 1.356 . S
N1167 H1172 0.984 . S
N1167 H1173 0.985 . S
C1168 C1162 1.379 . S
C1168 C1165 1.363 . S
C1168 N1166 1.356 . S
C1169 C1163 1.363 . S
C1169 C1164 1.379 . S
C1169 N1167 1.356 . S
N1170 C1162 1.356 . S
N1170 H1176 0.984 . S
N1170 H1177 0.984 . S
N1171 C1164 1.356 . S
N1171 H1174 0.984 . S
N1171 H1175 0.985 . S
H1172 N1167 0.984 . S
H1173 N1167 0.985 . S
H1174 N1171 0.984 . S
H1175 N1171 0.985 . S
H1176 N1170 0.984 . S
H1177 N1170 0.984 . S
H1178 N1166 0.984 . S
H1179 N1166 0.985 . S
C1180 C1181 1.363 . S
C1180 C1186 1.379 . S
C1180 N1188 1.356 . S
C1181 C1180 1.363 . S
C1181 C1187 1.363 . S
C1182 C1183 1.363 . S
C1182 C1187 1.379 . S
C1182 N1189 1.356 . S
C1183 C1182 1.363 . S
C1183 C1186 1.363 . S
N1184 C1186 1.356 . S
N1184 H1196 0.984 . S
N1184 H1197 0.985 . S
N1185 C1187 1.356 . S
N1185 H1190 0.984 . S
N1185 H1191 0.985 . S
C1186 C1180 1.379 . S
C1186 C1183 1.363 . S
C1186 N1184 1.356 . S
C1187 C1181 1.363 . S
C1187 C1182 1.379 . S
C1187 N1185 1.356 . S
N1188 C1180 1.356 . S
N1188 H1194 0.984 . S
N1188 H1195 0.984 . S
N1189 C1182 1.356 . S
N1189 H1192 0.984 . S
N1189 H1193 0.985 . S
H1190 N1185 0.984 . S
H1191 N1185 0.985 . S
H1192 N1189 0.984 . S
H1193 N1189 0.985 . S
H1194 N1188 0.984 . S
H1195 N1188 0.984 . S
H1196 N1184 0.984 . S
H1197 N1184 0.985 . S
C1198 C1199 1.363 . S
C1198 C1204 1.379 . S
C1198 N1206 1.356 . S
C1199 C1198 1.363 . S
C1199 C1205 1.363 . S
C1200 C1201 1.363 . S
C1200 C1205 1.379 . S
C1200 N1207 1.356 . S
C1201 C1200 1.363 . S
C1201 C1204 1.363 . S
N1202 C1204 1.356 . S
N1202 H1214 0.984 . S
N1202 H1215 0.985 . S
N1203 C1205 1.356 . S
N1203 H1208 0.984 . S
N1203 H1209 0.985 . S
C1204 C1198 1.379 . S
C1204 C1201 1.363 . S
C1204 N1202 1.356 . S
C1205 C1199 1.363 . S
C1205 C1200 1.379 . S
C1205 N1203 1.356 . S
N1206 C1198 1.356 . S
N1206 H1212 0.984 . S
N1206 H1213 0.984 . S
N1207 C1200 1.356 . S
N1207 H1210 0.984 . S
N1207 H1211 0.985 . S
H1208 N1203 0.984 . S
H1209 N1203 0.985 . S
H1210 N1207 0.984 . S
H1211 N1207 0.985 . S
H1212 N1206 0.984 . S
H1213 N1206 0.984 . S
H1214 N1202 0.984 . S
H1215 N1202 0.985 . S
C353 C21 1.152 . S
C355 C279 1.140 . S
C371 C307 1.140 . S
C373 C29 1.152 . S
C389 C323 1.140 . S
C391 C59 1.152 . S
C407 C345 1.140 . S
C409 C87 1.152 . S
C425 C103 1.140 . S
C427 C197 1.152 . S
C443 C219 1.152 . S
C445 C117 1.140 . S
C461 C147 1.140 . S
C463 C241 1.152 . S
C479 C263 1.152 . S
C481 C161 1.140 . S
C497 C65 1.661 . S
C499 C7 1.661 . S
C515 C37 1.661 . S
C517 C73 1.661 . S
C533 C95 1.659 . S
C535 C139 1.659 . S
C551 C175 1.659 . S
C553 C131 1.659 . S
C569 C183 1.661 . S
C571 C227 1.661 . S
C587 C249 1.661 . S
C589 C205 1.661 . S
C605 C315 1.659 . S
C607 C271 1.659 . S
C623 C337 1.659 . S
C625 C301 1.659 . S
C641 C10 1.797 . S
C643 C76 1.797 . S
C659 C62 1.797 . S
C661 C30 1.797 . S
C677 C164 1.821 . S
C679 C96 1.821 . S
C695 C140 1.821 . S
C697 C120 1.821 . S
C713 C252 1.797 . S
C715 C186 1.797 . S
C731 C230 1.797 . S
C733 C208 1.797 . S
C749 C272 1.821 . S
C751 C338 1.821 . S
C767 C316 1.821 . S
C769 C304 1.821 . S
C785 C18 1.474 . S
C787 C150 1.475 . S
C803 C32 1.474 . S
C805 C162 1.475 . S
C821 C106 1.475 . S
C823 C52 1.474 . S
C839 C118 1.475 . S
C841 C84 1.474 . S
C857 C194 1.474 . S
C859 C326 1.475 . S
C875 C216 1.474 . S
C877 C348 1.475 . S
C893 C282 1.475 . S
C895 C238 1.474 . S
C911 C296 1.475 . S
C913 C260 1.474 . S
C929 C15 1.435 1_565 S
C931 C318 1.419 . S
C947 C43 1.435 1_545 S
C949 C340 1.419 . S
C965 C274 1.419 . S
C967 C51 1.435 1_545 S
C983 C294 1.419 . S
C985 C81 1.435 1_565 S
C1001 C228 1.426 . S
C1003 C109 1.443 1_545 S
C1019 C125 1.443 1_565 S
C1021 C250 1.426 . S
C1037 C153 1.443 1_565 S
C1039 C184 1.426 . S
C1055 C206 1.426 . S
C1057 C169 1.443 1_545 S
C1073 C142 1.419 . S
C1075 C191 1.435 . S
C1091 C213 1.435 . S
C1093 C172 1.419 . S
C1109 C98 1.419 . S
C1111 C235 1.435 . S
C1127 C257 1.435 . S
C1129 C128 1.419 . S
C1145 C54 1.426 . S
C1147 C285 1.443 . S
C1163 C293 1.443 . S
C1165 C74 1.426 . S
C1181 C329 1.443 . S
C1183 C8 1.426 . S
C1199 C40 1.426 . S
C1201 C351 1.443 . S
