# Generated by pormake.
# Topology zfp, (5)-cn, num edge types: 1
# Building blocks:
#     Node 0, Type 0, BuildingBlock: XOMCOT_clean_sbu_0, # of connection points: 5
#     Node 1, Type 0, BuildingBlock: XOMCOT_clean_sbu_0, # of connection points: 5
#     Node 2, Type 0, BuildingBlock: XOMCOT_clean_sbu_0, # of connection points: 5
#     Node 3, Type 0, BuildingBlock: XOMCOT_clean_sbu_0, # of connection points: 5
#     Node 4, Type 0, BuildingBlock: XOMCOT_clean_sbu_0, # of connection points: 5
#     Node 5, Type 0, BuildingBlock: XOMCOT_clean_sbu_0, # of connection points: 5
#     Node 6, Type 0, BuildingBlock: XOMCOT_clean_sbu_0, # of connection points: 5
#     Node 7, Type 0, BuildingBlock: XOMCOT_clean_sbu_0, # of connection points: 5
#     Node 8, Type 0, BuildingBlock: XOMCOT_clean_sbu_0, # of connection points: 5
#     Node 9, Type 0, BuildingBlock: XOMCOT_clean_sbu_0, # of connection points: 5
#     Node 10, Type 0, BuildingBlock: XOMCOT_clean_sbu_0, # of connection points: 5
#     Node 11, Type 0, BuildingBlock: XOMCOT_clean_sbu_0, # of connection points: 5
#     Node 12, Type 0, BuildingBlock: XOMCOT_clean_sbu_0, # of connection points: 5
#     Node 13, Type 0, BuildingBlock: XOMCOT_clean_sbu_0, # of connection points: 5
#     Node 14, Type 0, BuildingBlock: XOMCOT_clean_sbu_0, # of connection points: 5
#     Node 15, Type 0, BuildingBlock: XOMCOT_clean_sbu_0, # of connection points: 5
#     Edge 16, Type (0, 0), BuildingBlock: XUDNAN_clean_linker_2, # of connection points: 2
#     Edge 17, Type (0, 0), BuildingBlock: XUDNAN_clean_linker_2, # of connection points: 2
#     Edge 18, Type (0, 0), BuildingBlock: XUDNAN_clean_linker_2, # of connection points: 2
#     Edge 19, Type (0, 0), BuildingBlock: XUDNAN_clean_linker_2, # of connection points: 2
#     Edge 20, Type (0, 0), BuildingBlock: XUDNAN_clean_linker_2, # of connection points: 2
#     Edge 21, Type (0, 0), BuildingBlock: XUDNAN_clean_linker_2, # of connection points: 2
#     Edge 22, Type (0, 0), BuildingBlock: XUDNAN_clean_linker_2, # of connection points: 2
#     Edge 23, Type (0, 0), BuildingBlock: XUDNAN_clean_linker_2, # of connection points: 2
#     Edge 24, Type (0, 0), BuildingBlock: XUDNAN_clean_linker_2, # of connection points: 2
#     Edge 25, Type (0, 0), BuildingBlock: XUDNAN_clean_linker_2, # of connection points: 2
#     Edge 26, Type (0, 0), BuildingBlock: XUDNAN_clean_linker_2, # of connection points: 2
#     Edge 27, Type (0, 0), BuildingBlock: XUDNAN_clean_linker_2, # of connection points: 2
#     Edge 28, Type (0, 0), BuildingBlock: XUDNAN_clean_linker_2, # of connection points: 2
#     Edge 29, Type (0, 0), BuildingBlock: XUDNAN_clean_linker_2, # of connection points: 2
#     Edge 30, Type (0, 0), BuildingBlock: XUDNAN_clean_linker_2, # of connection points: 2
#     Edge 31, Type (0, 0), BuildingBlock: XUDNAN_clean_linker_2, # of connection points: 2
#     Edge 32, Type (0, 0), BuildingBlock: XUDNAN_clean_linker_2, # of connection points: 2
#     Edge 33, Type (0, 0), BuildingBlock: XUDNAN_clean_linker_2, # of connection points: 2
#     Edge 34, Type (0, 0), BuildingBlock: XUDNAN_clean_linker_2, # of connection points: 2
#     Edge 35, Type (0, 0), BuildingBlock: XUDNAN_clean_linker_2, # of connection points: 2
#     Edge 36, Type (0, 0), BuildingBlock: XUDNAN_clean_linker_2, # of connection points: 2
#     Edge 37, Type (0, 0), BuildingBlock: XUDNAN_clean_linker_2, # of connection points: 2
#     Edge 38, Type (0, 0), BuildingBlock: XUDNAN_clean_linker_2, # of connection points: 2
#     Edge 39, Type (0, 0), BuildingBlock: XUDNAN_clean_linker_2, # of connection points: 2
#     Edge 40, Type (0, 0), BuildingBlock: XUDNAN_clean_linker_2, # of connection points: 2
#     Edge 41, Type (0, 0), BuildingBlock: XUDNAN_clean_linker_2, # of connection points: 2
#     Edge 42, Type (0, 0), BuildingBlock: XUDNAN_clean_linker_2, # of connection points: 2
#     Edge 43, Type (0, 0), BuildingBlock: XUDNAN_clean_linker_2, # of connection points: 2
#     Edge 44, Type (0, 0), BuildingBlock: XUDNAN_clean_linker_2, # of connection points: 2
#     Edge 45, Type (0, 0), BuildingBlock: XUDNAN_clean_linker_2, # of connection points: 2
#     Edge 46, Type (0, 0), BuildingBlock: XUDNAN_clean_linker_2, # of connection points: 2
#     Edge 47, Type (0, 0), BuildingBlock: XUDNAN_clean_linker_2, # of connection points: 2
#     Edge 48, Type (0, 0), BuildingBlock: XUDNAN_clean_linker_2, # of connection points: 2
#     Edge 49, Type (0, 0), BuildingBlock: XUDNAN_clean_linker_2, # of connection points: 2
#     Edge 50, Type (0, 0), BuildingBlock: XUDNAN_clean_linker_2, # of connection points: 2
#     Edge 51, Type (0, 0), BuildingBlock: XUDNAN_clean_linker_2, # of connection points: 2
#     Edge 52, Type (0, 0), BuildingBlock: XUDNAN_clean_linker_2, # of connection points: 2
#     Edge 53, Type (0, 0), BuildingBlock: XUDNAN_clean_linker_2, # of connection points: 2
#     Edge 54, Type (0, 0), BuildingBlock: XUDNAN_clean_linker_2, # of connection points: 2
#     Edge 55, Type (0, 0), BuildingBlock: XUDNAN_clean_linker_2, # of connection points: 2
# Relax obj value: 0.349
# Max RMSD: 0.237
# Mean RMSD: 0.237
data_MOF--net-zfp--node1-XOMCOT_clean_sbu_0--edge1-XUDNAN_clean_linker_2
_symmetry_space_group_name_H-M    P1
_symmetry_Int_Tables_number       1
_symmetry_cell_setting            triclinic
loop_
_symmetry_equiv_pos_as_xyz
'x, y, z'
_cell_length_a     29.224692
_cell_length_b     29.273183
_cell_length_c     70.087961
_cell_angle_alpha  89.978577
_cell_angle_beta   89.838877
_cell_angle_gamma 90.039716
loop_
_atom_site_label
_atom_site_type_symbol
_atom_site_fract_x
_atom_site_fract_y
_atom_site_fract_z
_atom_type_partial_charge
Co0 Co 0.23942 0.28312 0.1425 0.0
C1 C 0.25467 0.2603 0.1832 0.0
C2 C 0.23811 0.2009 0.16662 0.0
C3 C 0.24327 0.18795 0.18542 0.0
N4 N 0.24507 0.24623 0.16529 0.0
N5 N 0.25331 0.22541 0.19584 0.0
H6 H 0.26163 0.29548 0.18695 0.0
H7 H 0.22892 0.17902 0.1548 0.0
C8 C 0.15399 0.25078 0.12194 0.0
O9 O 0.17675 0.25097 0.10576 0.0
N10 N 0.23384 0.32005 0.11921 0.0
C11 C 0.19978 0.34938 0.11476 0.0
C12 C 0.20377 0.36193 0.09585 0.0
C13 C 0.2578 0.31524 0.10274 0.0
N14 N 0.24003 0.34002 0.08825 0.0
C15 C 0.22266 0.37451 0.1566 0.0
C16 C 0.14269 0.35089 0.17551 0.0
C17 C 0.15287 0.39696 0.17265 0.0
C18 C 0.19446 0.40902 0.16397 0.0
C19 C 0.17131 0.31789 0.16787 0.0
N20 N 0.20898 0.32995 0.15743 0.0
H21 H 0.25332 0.38363 0.1488 0.0
H22 H 0.16172 0.28246 0.16955 0.0
H23 H 0.17169 0.35838 0.1241 0.0
H24 H 0.28635 0.29228 0.10096 0.0
O25 O 0.30299 0.30218 0.14545 0.0
O26 O 0.28115 0.24131 0.12932 0.0
O27 O 0.17572 0.25586 0.13763 0.0
C28 C 0.31484 0.26688 0.13537 0.0
H29 H 0.23827 0.15391 0.1911 0.0
H30 H 0.17977 0.38278 0.08798 0.0
H31 H 0.11112 0.34052 0.18242 0.0
H32 H 0.20323 0.44453 0.1616 0.0
Co33 Co 0.73026 0.26982 0.6376 0.0
C34 C 0.75039 0.29029 0.67793 0.0
C35 C 0.80926 0.26179 0.66393 0.0
C36 C 0.81926 0.26784 0.68304 0.0
N37 N 0.76583 0.2753 0.66086 0.0
N38 N 0.78215 0.28575 0.69178 0.0
H39 H 0.7158 0.30225 0.68032 0.0
H40 H 0.83157 0.24725 0.6532 0.0
C41 C 0.74502 0.17533 0.62393 0.0
O42 O 0.70128 0.17707 0.61972 0.0
N43 N 0.69601 0.26763 0.61361 0.0
C44 C 0.65718 0.29046 0.60939 0.0
C45 C 0.65072 0.29034 0.58996 0.0
C46 C 0.71374 0.25635 0.59633 0.0
N47 N 0.68638 0.2689 0.58164 0.0
C48 C 0.6411 0.22938 0.64863 0.0
C49 C 0.68066 0.16195 0.6707 0.0
C50 C 0.6347 0.15722 0.66569 0.0
C51 C 0.61423 0.19278 0.65525 0.0
C52 C 0.70633 0.19743 0.66317 0.0
N53 N 0.68737 0.22968 0.65142 0.0
H54 H 0.62468 0.25582 0.64059 0.0
H55 H 0.74266 0.19625 0.66566 0.0
H56 H 0.63694 0.30986 0.61944 0.0
H57 H 0.74721 0.24123 0.59458 0.0
O58 O 0.70428 0.32945 0.64295 0.0
O59 O 0.7672 0.3177 0.62597 0.0
O60 O 0.76515 0.21165 0.6301 0.0
C61 C 0.73781 0.34667 0.63303 0.0
H62 H 0.85124 0.25956 0.68998 0.0
H63 H 0.62354 0.30792 0.58251 0.0
H64 H 0.69779 0.13682 0.67948 0.0
H65 H 0.57846 0.19138 0.65133 0.0
Co66 Co 0.80026 0.71442 0.13407 0.0
C67 C 0.77651 0.74418 0.17415 0.0
C68 C 0.84697 0.75545 0.16703 0.0
C69 C 0.84088 0.76563 0.18592 0.0
N70 N 0.80677 0.74187 0.15943 0.0
N71 N 0.79684 0.75793 0.19057 0.0
H72 H 0.74143 0.73255 0.17332 0.0
H73 H 0.87971 0.75493 0.15994 0.0
C74 C 0.89379 0.73826 0.1146 0.0
O75 O 0.88684 0.71336 0.09933 0.0
N76 N 0.79316 0.68818 0.10879 0.0
C77 C 0.78056 0.64516 0.10442 0.0
C78 C 0.77686 0.64148 0.08486 0.0
C79 C 0.79454 0.7106 0.09196 0.0
N80 N 0.78611 0.68261 0.07702 0.0
C81 C 0.82344 0.64388 0.16121 0.0
C82 C 0.89383 0.6066 0.14 0.0
C83 C 0.88887 0.59388 0.1591 0.0
C84 C 0.85246 0.61179 0.16968 0.0
C85 C 0.86503 0.63957 0.13235 0.0
N86 N 0.83199 0.65991 0.14321 0.0
H87 H 0.7952 0.65706 0.16945 0.0
H88 H 0.86996 0.64875 0.11772 0.0
H89 H 0.77482 0.61823 0.11472 0.0
H90 H 0.80224 0.74666 0.09072 0.0
O91 O 0.73752 0.69645 0.13951 0.0
O92 O 0.75798 0.76233 0.1265 0.0
O93 O 0.86222 0.74355 0.12724 0.0
C94 C 0.72507 0.73506 0.13196 0.0
H95 H 0.86755 0.77608 0.19567 0.0
H96 H 0.76918 0.61057 0.07703 0.0
H97 H 0.92114 0.59272 0.13127 0.0
H98 H 0.84698 0.60167 0.18438 0.0
Co99 Co 0.30468 0.81593 0.63697 0.0
C100 C 0.28704 0.81277 0.67994 0.0
C101 C 0.2271 0.81467 0.66245 0.0
C102 C 0.21355 0.81546 0.68117 0.0
N103 N 0.27315 0.81309 0.66148 0.0
N104 N 0.25116 0.81455 0.69222 0.0
H105 H 0.32206 0.81254 0.6846 0.0
H106 H 0.20469 0.81613 0.65021 0.0
C107 C 0.26475 0.90643 0.62023 0.0
O108 O 0.27399 0.89681 0.60237 0.0
N109 N 0.33382 0.81818 0.61204 0.0
C110 C 0.37904 0.81944 0.60818 0.0
C111 C 0.38535 0.81552 0.58879 0.0
C112 C 0.31347 0.8117 0.59497 0.0
N113 N 0.34405 0.81075 0.58045 0.0
C114 C 0.38501 0.83082 0.66049 0.0
C115 C 0.39888 0.92004 0.64899 0.0
C116 C 0.4265 0.9022 0.66339 0.0
C117 C 0.42035 0.85643 0.6688 0.0
C118 C 0.36467 0.89339 0.6411 0.0
N119 N 0.35575 0.8504 0.6477 0.0
H120 H 0.38082 0.79539 0.66447 0.0
H121 H 0.34731 0.90698 0.62894 0.0
H122 H 0.4059 0.82188 0.6187 0.0
H123 H 0.27699 0.80693 0.59329 0.0
O124 O 0.32827 0.75442 0.64003 0.0
O125 O 0.26105 0.77074 0.62741 0.0
O126 O 0.27075 0.87636 0.63331 0.0
C127 C 0.2906 0.73963 0.63247 0.0
H128 H 0.17856 0.81678 0.68624 0.0
H129 H 0.41797 0.81611 0.58145 0.0
H130 H 0.40466 0.95399 0.6433 0.0
H131 H 0.44238 0.84072 0.67932 0.0
Co132 Co 0.77982 0.25681 0.88556 0.0
C133 C 0.77953 0.27786 0.84285 0.0
C134 C 0.78876 0.33621 0.86092 0.0
C135 C 0.78755 0.35087 0.84231 0.0
N136 N 0.78303 0.29049 0.86146 0.0
N137 N 0.78169 0.31426 0.83096 0.0
H138 H 0.77373 0.24363 0.83784 0.0
H139 H 0.79217 0.35772 0.87338 0.0
C140 C 0.6913 0.30827 0.88357 0.0
O141 O 0.69358 0.30178 0.86506 0.0
N142 N 0.77834 0.22526 0.90984 0.0
C143 C 0.7841 0.18019 0.9128 0.0
C144 C 0.78428 0.17212 0.93216 0.0
C145 C 0.77563 0.24411 0.92739 0.0
N146 N 0.7791 0.21233 0.94138 0.0
C147 C 0.75074 0.18064 0.86181 0.0
C148 C 0.66642 0.17122 0.87927 0.0
C149 C 0.67812 0.14112 0.86457 0.0
C150 C 0.72092 0.14597 0.85571 0.0
C151 C 0.69707 0.20456 0.88493 0.0
N152 N 0.73759 0.21105 0.87558 0.0
H153 H 0.78484 0.18218 0.85586 0.0
H154 H 0.68876 0.2237 0.89758 0.0
H155 H 0.78891 0.15509 0.90165 0.0
H156 H 0.77176 0.28041 0.9298 0.0
O157 O 0.83698 0.22689 0.87956 0.0
O158 O 0.83176 0.29269 0.89483 0.0
O159 O 0.72513 0.29593 0.89414 0.0
C160 C 0.85786 0.26029 0.88807 0.0
H161 H 0.79018 0.38592 0.83749 0.0
H162 H 0.78953 0.13928 0.93891 0.0
H163 H 0.63414 0.1683 0.88682 0.0
H164 H 0.7319 0.1222 0.84478 0.0
Co165 Co 0.79242 0.752 0.38193 0.0
C166 C 0.77108 0.7562 0.34029 0.0
C167 C 0.7128 0.73869 0.35755 0.0
C168 C 0.69929 0.74041 0.3388 0.0
N169 N 0.75773 0.74835 0.35849 0.0
N170 N 0.73583 0.75148 0.32789 0.0
H171 H 0.80562 0.76561 0.33629 0.0
H172 H 0.69129 0.73103 0.36972 0.0
C173 C 0.77831 0.66046 0.39957 0.0
O174 O 0.82114 0.66456 0.40497 0.0
N175 N 0.82447 0.75796 0.40632 0.0
C176 C 0.86233 0.78278 0.41024 0.0
C177 C 0.86805 0.78528 0.4297 0.0
C178 C 0.80614 0.74877 0.42371 0.0
N179 N 0.83266 0.76384 0.43818 0.0
C180 C 0.88376 0.7171 0.37419 0.0
C181 C 0.85343 0.63394 0.36048 0.0
C182 C 0.89799 0.63758 0.36747 0.0
C183 C 0.91421 0.68045 0.37311 0.0
C184 C 0.82404 0.67129 0.36217 0.0
N185 N 0.8382 0.71046 0.37108 0.0
H186 H 0.89646 0.74961 0.37879 0.0
H187 H 0.78841 0.66633 0.35865 0.0
H188 H 0.88254 0.80143 0.39994 0.0
H189 H 0.77321 0.73257 0.42572 0.0
O190 O 0.81827 0.80916 0.37353 0.0
O191 O 0.75421 0.80379 0.39016 0.0
O192 O 0.75814 0.69512 0.39188 0.0
C193 C 0.78455 0.83002 0.38184 0.0
H194 H 0.66517 0.73339 0.33361 0.0
H195 H 0.89458 0.80412 0.43704 0.0
H196 H 0.8399 0.60127 0.35591 0.0
H197 H 0.94905 0.68465 0.37805 0.0
Co198 Co 0.3095 0.81862 0.88736 0.0
C199 C 0.28755 0.81101 0.84579 0.0
C200 C 0.33282 0.75793 0.85492 0.0
C201 C 0.32578 0.7533 0.83564 0.0
N202 N 0.3097 0.79479 0.86132 0.0
N203 N 0.29762 0.78693 0.82983 0.0
H204 H 0.26514 0.84036 0.84604 0.0
H205 H 0.35336 0.73532 0.86349 0.0
C206 C 0.39321 0.77023 0.90638 0.0
O207 O 0.38519 0.78687 0.92342 0.0
N208 N 0.30754 0.84225 0.91323 0.0
C209 C 0.30828 0.88668 0.91829 0.0
C210 C 0.30261 0.88989 0.93774 0.0
C211 C 0.29894 0.81924 0.92957 0.0
N212 N 0.29715 0.84742 0.94486 0.0
C213 C 0.34629 0.89385 0.86462 0.0
C214 C 0.42699 0.90052 0.88478 0.0
C215 C 0.42161 0.92766 0.8685 0.0
C216 C 0.3802 0.92458 0.85846 0.0
C217 C 0.3921 0.8717 0.89061 0.0
N218 N 0.35334 0.86623 0.88007 0.0
H219 H 0.31428 0.89297 0.85709 0.0
H220 H 0.39623 0.85497 0.90403 0.0
H221 H 0.31257 0.91495 0.90851 0.0
H222 H 0.29474 0.78253 0.93025 0.0
O223 O 0.25272 0.85075 0.88266 0.0
O224 O 0.25643 0.77982 0.8932 0.0
O225 O 0.36442 0.7763 0.89275 0.0
C226 C 0.23088 0.81446 0.88827 0.0
H227 H 0.34012 0.72687 0.82665 0.0
H228 H 0.30364 0.92105 0.94603 0.0
H229 H 0.45799 0.90131 0.8932 0.0
H230 H 0.37371 0.94609 0.8462 0.0
Co231 Co 0.21552 0.28138 0.39124 0.0
C232 C 0.23558 0.2694 0.34936 0.0
C233 C 0.21525 0.33761 0.35645 0.0
C234 C 0.22192 0.3352 0.3371 0.0
N235 N 0.22421 0.29653 0.36431 0.0
N236 N 0.23447 0.29221 0.33248 0.0
H237 H 0.24304 0.23343 0.3507 0.0
H238 H 0.20356 0.3673 0.36424 0.0
C239 C 0.27445 0.36766 0.39122 0.0
O240 O 0.30204 0.34962 0.37845 0.0
N241 N 0.20561 0.26626 0.4179 0.0
C242 C 0.16912 0.24279 0.42444 0.0
C243 C 0.17011 0.24248 0.44402 0.0
C244 C 0.22884 0.27951 0.43363 0.0
N245 N 0.20747 0.2656 0.44981 0.0
C246 C 0.12501 0.3032 0.37689 0.0
C247 C 0.10752 0.36827 0.4046 0.0
C248 C 0.07589 0.3625 0.38983 0.0
C249 C 0.08463 0.32908 0.3759 0.0
C250 C 0.14708 0.34231 0.40494 0.0
N251 N 0.15628 0.31131 0.39093 0.0
H252 H 0.13205 0.27787 0.36604 0.0
H253 H 0.17096 0.34797 0.41642 0.0
H254 H 0.14265 0.22831 0.41554 0.0
H255 H 0.25936 0.30047 0.4333 0.0
O256 O 0.19746 0.21938 0.38466 0.0
O257 O 0.26833 0.24032 0.39109 0.0
O258 O 0.24301 0.34302 0.3988 0.0
C259 C 0.23971 0.20718 0.38732 0.0
H260 H 0.21737 0.36328 0.32726 0.0
H261 H 0.1449 0.22695 0.45334 0.0
H262 H 0.10281 0.39402 0.41552 0.0
H263 H 0.06087 0.3234 0.36431 0.0
Co264 Co 0.80648 0.74191 0.88294 0.0
C265 C 0.80264 0.7711 0.84227 0.0
C266 C 0.81503 0.82698 0.86148 0.0
C267 C 0.81603 0.84335 0.84308 0.0
N268 N 0.80719 0.78172 0.86094 0.0
N269 N 0.80845 0.80823 0.83102 0.0
H270 H 0.7973 0.73673 0.83703 0.0
H271 H 0.8206 0.84652 0.87436 0.0
C272 C 0.8979 0.75576 0.9008 0.0
O273 O 0.89544 0.71183 0.90453 0.0
N274 N 0.8036 0.70421 0.9059 0.0
C275 C 0.78399 0.66294 0.90865 0.0
C276 C 0.78166 0.6541 0.92797 0.0
C277 C 0.81028 0.72067 0.92371 0.0
N278 N 0.79835 0.69052 0.93747 0.0
C279 C 0.8879 0.72025 0.86167 0.0
C280 C 0.8769 0.62681 0.86127 0.0
C281 C 0.91916 0.64534 0.85547 0.0
C282 C 0.92347 0.69299 0.85504 0.0
C283 C 0.84234 0.65561 0.86817 0.0
N284 N 0.84958 0.70146 0.86975 0.0
H285 H 0.89271 0.75685 0.86145 0.0
H286 H 0.81013 0.64089 0.87227 0.0
H287 H 0.76879 0.64196 0.89773 0.0
H288 H 0.82146 0.75525 0.92648 0.0
O289 O 0.74967 0.71565 0.87422 0.0
O290 O 0.75355 0.7757 0.89315 0.0
O291 O 0.86243 0.77613 0.89383 0.0
C292 C 0.72791 0.7465 0.88395 0.0
H293 H 0.82229 0.87841 0.8389 0.0
H294 H 0.76726 0.62375 0.93443 0.0
H295 H 0.87077 0.59035 0.86083 0.0
H296 H 0.95488 0.70952 0.85062 0.0
Co297 Co 0.32125 0.78067 0.38448 0.0
C298 C 0.29143 0.76189 0.3444 0.0
C299 C 0.30133 0.83324 0.34974 0.0
C300 C 0.29294 0.82748 0.33064 0.0
N301 N 0.29999 0.79223 0.35854 0.0
N302 N 0.28709 0.78258 0.3272 0.0
H303 H 0.29104 0.7253 0.34637 0.0
H304 H 0.31197 0.86488 0.35631 0.0
C305 C 0.26367 0.86811 0.38901 0.0
O306 O 0.22888 0.84972 0.37999 0.0
N307 N 0.34263 0.76953 0.41012 0.0
C308 C 0.37991 0.74548 0.41511 0.0
C309 C 0.38269 0.74471 0.43471 0.0
C310 C 0.3231 0.78297 0.42664 0.0
N311 N 0.34701 0.76842 0.44202 0.0
C312 C 0.4003 0.79998 0.36113 0.0
C313 C 0.42929 0.8726 0.38325 0.0
C314 C 0.4471 0.86756 0.3648 0.0
C315 C 0.43422 0.82928 0.35404 0.0
C316 C 0.39549 0.84293 0.38966 0.0
N317 N 0.37916 0.80926 0.3781 0.0
H318 H 0.38843 0.77206 0.35235 0.0
H319 H 0.38038 0.84889 0.40352 0.0
H320 H 0.40331 0.72947 0.40518 0.0
H321 H 0.29227 0.80332 0.42727 0.0
O322 O 0.33569 0.71773 0.37812 0.0
O323 O 0.26923 0.74024 0.3898 0.0
O324 O 0.29889 0.84376 0.39283 0.0
C325 C 0.29546 0.70636 0.38443 0.0
H326 H 0.29509 0.85398 0.3199 0.0
H327 H 0.40882 0.72735 0.44284 0.0
H328 H 0.43977 0.90065 0.39233 0.0
H329 H 0.44789 0.82373 0.33986 0.0
Co330 Co 0.27935 0.32907 0.89394 0.0
C331 C 0.28022 0.30648 0.85223 0.0
C332 C 0.27394 0.2476 0.87037 0.0
C333 C 0.27027 0.23366 0.85173 0.0
N334 N 0.27967 0.29318 0.87074 0.0
N335 N 0.27387 0.27063 0.84032 0.0
H336 H 0.28256 0.34172 0.84764 0.0
H337 H 0.27095 0.22619 0.8829 0.0
C338 C 0.18662 0.31312 0.91064 0.0
O339 O 0.18889 0.35581 0.91634 0.0
N340 N 0.27992 0.36218 0.91814 0.0
C341 C 0.28721 0.40652 0.92257 0.0
C342 C 0.28724 0.41121 0.94219 0.0
C343 C 0.27716 0.34069 0.9352 0.0
N344 N 0.28104 0.36968 0.95009 0.0
C345 C 0.25519 0.41795 0.87844 0.0
C346 C 0.1694 0.39217 0.86589 0.0
C347 C 0.18129 0.43841 0.8654 0.0
C348 C 0.22562 0.45105 0.87095 0.0
C349 C 0.20003 0.36051 0.8733 0.0
N350 N 0.24061 0.37413 0.88117 0.0
H351 H 0.28973 0.42757 0.88202 0.0
H352 H 0.1906 0.32486 0.87291 0.0
H353 H 0.29373 0.43381 0.91266 0.0
H354 H 0.2722 0.3042 0.93659 0.0
O355 O 0.33901 0.35366 0.88746 0.0
O356 O 0.32799 0.29066 0.90427 0.0
O357 O 0.22183 0.29477 0.90265 0.0
C358 C 0.3568 0.31968 0.89677 0.0
H359 H 0.26439 0.199 0.84693 0.0
H360 H 0.29308 0.44254 0.95002 0.0
H361 H 0.13649 0.38054 0.86072 0.0
H362 H 0.2369 0.48623 0.87001 0.0
Co363 Co 0.72417 0.24871 0.38532 0.0
C364 C 0.7464 0.26814 0.34365 0.0
C365 C 0.80039 0.23476 0.3588 0.0
C366 C 0.81456 0.24172 0.34038 0.0
N367 N 0.75715 0.25015 0.36095 0.0
N368 N 0.78065 0.2625 0.33076 0.0
H369 H 0.71529 0.28656 0.34059 0.0
H370 H 0.82117 0.2201 0.36995 0.0
C371 C 0.76544 0.16328 0.40564 0.0
O372 O 0.74428 0.17054 0.42187 0.0
N373 N 0.69365 0.24882 0.41005 0.0
C374 C 0.64871 0.24421 0.41394 0.0
C375 C 0.64233 0.24766 0.43341 0.0
C376 C 0.71347 0.25753 0.42707 0.0
N377 N 0.68323 0.25562 0.44174 0.0
C378 C 0.6566 0.21478 0.35843 0.0
C379 C 0.64461 0.13122 0.37601 0.0
C380 C 0.62574 0.13829 0.35803 0.0
C381 C 0.63029 0.18109 0.3494 0.0
C382 C 0.67025 0.16563 0.38443 0.0
N383 N 0.67905 0.20567 0.37509 0.0
H384 H 0.65857 0.24809 0.35205 0.0
H385 H 0.68188 0.15999 0.39869 0.0
H386 H 0.62235 0.2384 0.40342 0.0
H387 H 0.7497 0.26404 0.42861 0.0
O388 O 0.69332 0.30531 0.37946 0.0
O389 O 0.76067 0.30151 0.39355 0.0
O390 O 0.76422 0.19331 0.39225 0.0
C391 C 0.72737 0.32698 0.38711 0.0
H392 H 0.84728 0.23166 0.33446 0.0
H393 H 0.61006 0.24349 0.4408 0.0
H394 H 0.63954 0.09923 0.38353 0.0
H395 H 0.614 0.18827 0.33586 0.0
Co396 Co 0.30387 0.7867 0.1388 0.0
C397 C 0.29981 0.75815 0.17931 0.0
C398 C 0.31258 0.70172 0.16047 0.0
C399 C 0.31089 0.68561 0.17892 0.0
N400 N 0.30589 0.74712 0.16079 0.0
N401 N 0.30303 0.72112 0.19082 0.0
H402 H 0.294 0.79273 0.18418 0.0
H403 H 0.31803 0.68175 0.14769 0.0
C404 C 0.394 0.77814 0.11961 0.0
O405 O 0.38945 0.82234 0.11701 0.0
N406 N 0.29982 0.82407 0.11583 0.0
C407 C 0.28653 0.86765 0.11294 0.0
C408 C 0.28427 0.87568 0.09355 0.0
C409 C 0.30324 0.80599 0.09816 0.0
N410 N 0.29493 0.83675 0.08421 0.0
C411 C 0.33141 0.87317 0.15588 0.0
C412 C 0.41671 0.84271 0.16716 0.0
C413 C 0.40673 0.88925 0.16848 0.0
C414 C 0.36268 0.90424 0.16368 0.0
C415 C 0.38439 0.8131 0.15954 0.0
N416 N 0.3441 0.82916 0.15225 0.0
H417 H 0.29718 0.88449 0.15286 0.0
H418 H 0.39253 0.77718 0.15892 0.0
H419 H 0.27678 0.89178 0.12378 0.0
H420 H 0.31052 0.77026 0.09576 0.0
O421 O 0.24585 0.81032 0.14733 0.0
O422 O 0.25298 0.75041 0.12844 0.0
O423 O 0.36139 0.75542 0.12771 0.0
C424 C 0.22585 0.77865 0.13746 0.0
H425 H 0.31467 0.65026 0.18311 0.0
H426 H 0.27463 0.90768 0.087 0.0
H427 H 0.44967 0.82947 0.17155 0.0
H428 H 0.35309 0.93977 0.16525 0.0
Co429 Co 0.24929 0.31498 0.64476 0.0
C430 C 0.25621 0.29531 0.68633 0.0
C431 C 0.31899 0.32124 0.67457 0.0
C432 C 0.32447 0.31572 0.69394 0.0
N433 N 0.27616 0.30882 0.66985 0.0
N434 N 0.28493 0.29964 0.70136 0.0
H435 H 0.2209 0.28443 0.68737 0.0
H436 H 0.34417 0.33435 0.66464 0.0
C437 C 0.29244 0.40166 0.62852 0.0
O438 O 0.30241 0.3818 0.61226 0.0
N439 N 0.22353 0.32191 0.61913 0.0
C440 C 0.19322 0.35387 0.61334 0.0
C441 C 0.1881 0.35123 0.59387 0.0
C442 C 0.23724 0.30111 0.60278 0.0
N443 N 0.21601 0.31828 0.58724 0.0
C444 C 0.15338 0.32791 0.65248 0.0
C445 C 0.16499 0.40511 0.67479 0.0
C446 C 0.12094 0.3925 0.66919 0.0
C447 C 0.11496 0.35263 0.65839 0.0
C448 C 0.20229 0.38033 0.66815 0.0
N449 N 0.1963 0.34383 0.65627 0.0
H450 H 0.14893 0.29799 0.64364 0.0
H451 H 0.2362 0.39158 0.67208 0.0
H452 H 0.17733 0.37917 0.62237 0.0
H453 H 0.26328 0.27498 0.60205 0.0
O454 O 0.22848 0.25265 0.64601 0.0
O455 O 0.29639 0.27325 0.63489 0.0
O456 O 0.27735 0.37816 0.64254 0.0
C457 C 0.26757 0.24041 0.63899 0.0
H458 H 0.35521 0.32313 0.70194 0.0
H459 H 0.16735 0.37356 0.58514 0.0
H460 H 0.17082 0.43573 0.68313 0.0
H461 H 0.08119 0.34197 0.65388 0.0
Co462 Co 0.73952 0.2311 0.13678 0.0
C463 C 0.75615 0.26012 0.17738 0.0
C464 C 0.6886 0.27696 0.16793 0.0
C465 C 0.69187 0.28755 0.18693 0.0
N466 N 0.72875 0.25937 0.16176 0.0
N467 N 0.73411 0.27659 0.19299 0.0
H468 H 0.79041 0.24619 0.1777 0.0
H469 H 0.65779 0.28034 0.15966 0.0
C470 C 0.65193 0.25403 0.11316 0.0
O471 O 0.67166 0.24297 0.09704 0.0
N472 N 0.75168 0.20338 0.11192 0.0
C473 C 0.75881 0.15883 0.10801 0.0
C474 C 0.76942 0.15426 0.08894 0.0
C475 C 0.76138 0.2254 0.0954 0.0
N476 N 0.77058 0.19618 0.08093 0.0
C477 C 0.71948 0.15782 0.16307 0.0
C478 C 0.6479 0.12151 0.14228 0.0
C479 C 0.65607 0.10517 0.16069 0.0
C480 C 0.69272 0.12304 0.17109 0.0
C481 C 0.67448 0.15699 0.13508 0.0
N482 N 0.7088 0.1759 0.14567 0.0
H483 H 0.74798 0.17106 0.1711 0.0
H484 H 0.66729 0.16908 0.12091 0.0
H485 H 0.75705 0.13138 0.11832 0.0
H486 H 0.75974 0.26215 0.09387 0.0
O487 O 0.80237 0.21615 0.14364 0.0
O488 O 0.78185 0.28051 0.12978 0.0
O489 O 0.67559 0.25519 0.12861 0.0
C490 C 0.815 0.25472 0.13616 0.0
H491 H 0.66469 0.30129 0.19574 0.0
H492 H 0.77627 0.12245 0.08161 0.0
H493 H 0.62007 0.10807 0.13378 0.0
H494 H 0.7003 0.11053 0.18528 0.0
Co495 Co 0.81182 0.76727 0.63538 0.0
C496 C 0.8067 0.78298 0.67775 0.0
C497 C 0.74172 0.76589 0.66573 0.0
C498 C 0.73604 0.77258 0.68506 0.0
N499 N 0.78648 0.77043 0.66121 0.0
N500 N 0.777 0.78337 0.69256 0.0
H501 H 0.84183 0.7933 0.67907 0.0
H502 H 0.71491 0.75826 0.65562 0.0
C503 C 0.76225 0.67891 0.64017 0.0
O504 O 0.77859 0.67962 0.65761 0.0
N505 N 0.83584 0.76629 0.60963 0.0
C506 C 0.87933 0.7755 0.60466 0.0
C507 C 0.88289 0.77409 0.58512 0.0
C508 C 0.81333 0.75952 0.59305 0.0
N509 N 0.84142 0.76397 0.57769 0.0
C510 C 0.89146 0.73307 0.65601 0.0
C511 C 0.89211 0.64927 0.63793 0.0
C512 C 0.92158 0.65618 0.65337 0.0
C513 C 0.92221 0.69939 0.66206 0.0
C514 C 0.86266 0.68388 0.63234 0.0
N515 N 0.85934 0.72357 0.64249 0.0
H516 H 0.89452 0.76689 0.66183 0.0
H517 H 0.84167 0.67817 0.61994 0.0
H518 H 0.90645 0.78349 0.61459 0.0
H519 H 0.77718 0.75184 0.59237 0.0
O520 O 0.8446 0.82348 0.63997 0.0
O521 O 0.77407 0.81993 0.62871 0.0
O522 O 0.76944 0.71331 0.62905 0.0
C523 C 0.80875 0.84519 0.6339 0.0
H524 H 0.7041 0.77097 0.6929 0.0
H525 H 0.91371 0.7813 0.5771 0.0
H526 H 0.89084 0.61705 0.63037 0.0
H527 H 0.94652 0.70728 0.67321 0.0
H528 H 0.22687 0.29555 0.21877 0.0
H529 H 0.28778 0.16061 0.21942 0.0
H530 H 0.29134 0.16329 0.2547 0.0
H531 H 0.29116 0.343 0.25842 0.0
H532 H 0.24308 0.37495 0.26748 0.0
H533 H 0.24748 0.36296 0.24234 0.0
H534 H 0.16724 0.32528 0.24308 0.0
H535 H 0.16263 0.33706 0.26822 0.0
H536 H 0.1561 0.2794 0.25963 0.0
H537 H 0.2873 0.18093 0.29022 0.0
H538 H 0.27459 0.21088 0.32265 0.0
H539 H 0.21322 0.33295 0.29836 0.0
C540 C 0.24166 0.2669 0.22632 0.0
C541 C 0.25739 0.22797 0.21634 0.0
C542 C 0.27543 0.19068 0.22679 0.0
C543 C 0.27773 0.19199 0.24681 0.0
C544 C 0.26155 0.23074 0.25622 0.0
C545 C 0.24375 0.26745 0.2463 0.0
C546 C 0.22695 0.30426 0.25979 0.0
C547 C 0.25378 0.34893 0.25683 0.0
C548 C 0.17516 0.31192 0.25754 0.0
C549 C 0.23807 0.28256 0.27886 0.0
C550 C 0.25823 0.24031 0.27654 0.0
C551 C 0.27141 0.21398 0.29218 0.0
C552 C 0.26375 0.23129 0.31063 0.0
C553 C 0.24274 0.27452 0.31342 0.0
C554 C 0.22984 0.30015 0.29711 0.0
H555 H 0.81548 0.25474 0.80443 0.0
H556 H 0.73297 0.37659 0.81133 0.0
H557 H 0.72325 0.38156 0.77641 0.0
H558 H 0.87485 0.29303 0.76245 0.0
H559 H 0.87637 0.23772 0.75117 0.0
H560 H 0.87491 0.24191 0.77681 0.0
H561 H 0.80253 0.19085 0.77779 0.0
H562 H 0.8039 0.18632 0.75216 0.0
H563 H 0.75309 0.20684 0.764 0.0
H564 H 0.72233 0.37373 0.74087 0.0
H565 H 0.73286 0.3552 0.70675 0.0
H566 H 0.81872 0.2403 0.72217 0.0
C567 C 0.79498 0.28206 0.79852 0.0
C568 C 0.77488 0.31529 0.81057 0.0
C569 C 0.74889 0.35103 0.80235 0.0
C570 C 0.74304 0.35401 0.78254 0.0
C571 C 0.76373 0.32118 0.77103 0.0
C572 C 0.78938 0.28597 0.77865 0.0
C573 C 0.80941 0.25633 0.76291 0.0
C574 C 0.86201 0.25733 0.76337 0.0
C575 C 0.79113 0.20717 0.7643 0.0
C576 C 0.79107 0.28047 0.74532 0.0
C577 C 0.76443 0.31753 0.75038 0.0
C578 C 0.74316 0.34481 0.73673 0.0
C579 C 0.74918 0.33397 0.71738 0.0
C580 C 0.77668 0.29647 0.71177 0.0
C581 C 0.79798 0.26952 0.726 0.0
H582 H 0.80857 0.74037 0.30378 0.0
H583 H 0.66396 0.7738 0.30512 0.0
H584 H 0.66321 0.7781 0.27002 0.0
H585 H 0.83816 0.81561 0.26454 0.0
H586 H 0.87924 0.77643 0.25451 0.0
H587 H 0.86826 0.77627 0.27981 0.0
H588 H 0.84886 0.68994 0.2783 0.0
H589 H 0.85959 0.6899 0.25299 0.0
H590 H 0.80527 0.67031 0.26209 0.0
H591 H 0.678 0.77712 0.23421 0.0
H592 H 0.70856 0.77417 0.20116 0.0
H593 H 0.84293 0.74197 0.22358 0.0
C594 C 0.77687 0.74913 0.29674 0.0
C595 C 0.73628 0.75641 0.30734 0.0
C596 C 0.6954 0.76726 0.29742 0.0
C597 C 0.69463 0.77004 0.27743 0.0
C598 C 0.73505 0.76203 0.26742 0.0
C599 C 0.77547 0.75205 0.27676 0.0
C600 C 0.81416 0.74473 0.26268 0.0
C601 C 0.85219 0.78039 0.26556 0.0
C602 C 0.83306 0.69581 0.2641 0.0
C603 C 0.78922 0.7522 0.24401 0.0
C604 C 0.74358 0.76201 0.24697 0.0
C605 C 0.71378 0.76964 0.23174 0.0
C606 C 0.7313 0.76767 0.21301 0.0
C607 C 0.7782 0.75842 0.2097 0.0
C608 C 0.80715 0.7502 0.22552 0.0
H609 H 0.34195 0.76281 0.79704 0.0
H610 H 0.22123 0.83256 0.81847 0.0
H611 H 0.1978 0.84936 0.7854 0.0
H612 H 0.36424 0.83802 0.75752 0.0
H613 H 0.38212 0.79286 0.7417 0.0
H614 H 0.39002 0.78699 0.76707 0.0
H615 H 0.34444 0.71105 0.7667 0.0
H616 H 0.33662 0.71654 0.74133 0.0
H617 H 0.28761 0.71008 0.75677 0.0
H618 H 0.18693 0.8576 0.75007 0.0
H619 H 0.18853 0.85603 0.71496 0.0
H620 H 0.31547 0.77927 0.7163 0.0
C621 C 0.31035 0.78126 0.79485 0.0
C622 C 0.28345 0.79632 0.81048 0.0
C623 C 0.24275 0.82109 0.80684 0.0
C624 C 0.22905 0.83064 0.78808 0.0
C625 C 0.25642 0.81528 0.77307 0.0
C626 C 0.29619 0.79108 0.77624 0.0
C627 C 0.3192 0.77805 0.75758 0.0
C628 C 0.36671 0.80032 0.75587 0.0
C629 C 0.32212 0.72583 0.75547 0.0
C630 C 0.28594 0.79846 0.74339 0.0
C631 C 0.25007 0.81987 0.75266 0.0
C632 C 0.21477 0.84081 0.74267 0.0
C633 C 0.21587 0.83945 0.72269 0.0
C634 C 0.25193 0.81719 0.7128 0.0
C635 C 0.28766 0.79686 0.72339 0.0
H636 H 0.75856 0.75771 0.80579 0.0
H637 H 0.86261 0.86298 0.80961 0.0
H638 H 0.86533 0.86816 0.77452 0.0
H639 H 0.8038 0.70152 0.76369 0.0
H640 H 0.74828 0.68994 0.75364 0.0
H641 H 0.75496 0.69381 0.77913 0.0
H642 H 0.69231 0.7563 0.78042 0.0
H643 H 0.68557 0.75275 0.75492 0.0
H644 H 0.69843 0.80687 0.76594 0.0
H645 H 0.85781 0.86156 0.73912 0.0
H646 H 0.83881 0.84487 0.70552 0.0
H647 H 0.73824 0.74527 0.72414 0.0
C648 C 0.78209 0.78156 0.79919 0.0
C649 C 0.81028 0.81008 0.81045 0.0
C650 C 0.84029 0.84126 0.8013 0.0
C651 C 0.84226 0.84428 0.78137 0.0
C652 C 0.81378 0.81608 0.77069 0.0
C653 C 0.78413 0.7854 0.77922 0.0
C654 C 0.75662 0.75974 0.76433 0.0
C655 C 0.76652 0.7082 0.76525 0.0
C656 C 0.70518 0.76952 0.76654 0.0
C657 C 0.77558 0.78075 0.74614 0.0
C658 C 0.80872 0.81297 0.75017 0.0
C659 C 0.83187 0.83643 0.73578 0.0
C660 C 0.82102 0.8266 0.71674 0.0
C661 C 0.78705 0.79385 0.71221 0.0
C662 C 0.76393 0.77089 0.72718 0.0
H663 H 0.25452 0.82028 0.2945 0.0
H664 H 0.31795 0.69792 0.31728 0.0
H665 H 0.32411 0.66653 0.28473 0.0
H666 H 0.19146 0.76457 0.25542 0.0
H667 H 0.20149 0.81144 0.23925 0.0
H668 H 0.19735 0.82185 0.26454 0.0
H669 H 0.2768 0.8612 0.26381 0.0
H670 H 0.28138 0.85057 0.2386 0.0
H671 H 0.32541 0.8305 0.25448 0.0
H672 H 0.33065 0.65201 0.24942 0.0
H673 H 0.33414 0.65378 0.21439 0.0
H674 H 0.26598 0.78566 0.21453 0.0
C675 C 0.26924 0.78665 0.2927 0.0
C676 C 0.28565 0.76163 0.30855 0.0
C677 C 0.30445 0.71758 0.3055 0.0
C678 C 0.30837 0.69954 0.28701 0.0
C679 C 0.29308 0.72578 0.27169 0.0
C680 C 0.27347 0.76821 0.27436 0.0
C681 C 0.26188 0.79054 0.25547 0.0
C682 C 0.20996 0.7975 0.25356 0.0
C683 C 0.28793 0.83587 0.25295 0.0
C684 C 0.27908 0.75451 0.24172 0.0
C685 C 0.29666 0.71732 0.25136 0.0
C686 C 0.31629 0.68064 0.24172 0.0
C687 C 0.31794 0.68196 0.22172 0.0
C688 C 0.30007 0.71973 0.21143 0.0
C689 C 0.28019 0.7563 0.22175 0.0
H690 H 0.32402 0.3406 0.73229 0.0
H691 H 0.22384 0.23867 0.71575 0.0
H692 H 0.20816 0.2225 0.74974 0.0
H693 H 0.36994 0.2796 0.77206 0.0
H694 H 0.37766 0.32972 0.78664 0.0
H695 H 0.3799 0.33439 0.76103 0.0
H696 H 0.31617 0.39581 0.76202 0.0
H697 H 0.31366 0.39126 0.78764 0.0
H698 H 0.26261 0.38303 0.77369 0.0
H699 H 0.20586 0.21494 0.78538 0.0
H700 H 0.2156 0.21748 0.82029 0.0
H701 H 0.31679 0.32489 0.8141 0.0
C702 C 0.29891 0.31473 0.73578 0.0
C703 C 0.2752 0.2908 0.72126 0.0
C704 C 0.24209 0.25775 0.72654 0.0
C705 C 0.2331 0.24821 0.74583 0.0
C706 C 0.25725 0.27225 0.75973 0.0
C707 C 0.28933 0.30499 0.75497 0.0
C708 C 0.31078 0.32566 0.7727 0.0
C709 C 0.36264 0.3168 0.77313 0.0
C710 C 0.30016 0.37699 0.77409 0.0
C711 C 0.28618 0.29897 0.7882 0.0
C712 C 0.25546 0.26836 0.78035 0.0
C713 C 0.22969 0.23887 0.79167 0.0
C714 C 0.23567 0.24039 0.81149 0.0
C715 C 0.26707 0.27125 0.81992 0.0
C716 C 0.29223 0.30131 0.80807 0.0
H717 H 0.70857 0.26153 0.30612 0.0
H718 H 0.85455 0.28656 0.30959 0.0
H719 H 0.85845 0.2945 0.27459 0.0
H720 H 0.71174 0.19438 0.26449 0.0
H721 H 0.65964 0.21667 0.25442 0.0
H722 H 0.66742 0.21636 0.27989 0.0
H723 H 0.65273 0.30358 0.28111 0.0
H724 H 0.64444 0.30408 0.25564 0.0
H725 H 0.68645 0.34118 0.2663 0.0
H726 H 0.84763 0.29367 0.23881 0.0
H727 H 0.82132 0.28969 0.20526 0.0
H728 H 0.6826 0.26622 0.22512 0.0
C729 C 0.74109 0.26981 0.29954 0.0
C730 C 0.78127 0.27329 0.31064 0.0
C731 C 0.82339 0.28323 0.3014 0.0
C732 C 0.82595 0.28795 0.28151 0.0
C733 C 0.78603 0.28291 0.27093 0.0
C734 C 0.74427 0.27459 0.27962 0.0
C735 C 0.70679 0.26915 0.26488 0.0
C736 C 0.68514 0.22129 0.26599 0.0
C737 C 0.67046 0.30675 0.26712 0.0
C738 C 0.73409 0.27522 0.2466 0.0
C739 C 0.77975 0.28307 0.25037 0.0
C740 C 0.81183 0.28802 0.2357 0.0
C741 C 0.7967 0.28541 0.21669 0.0
C742 C 0.7499 0.27816 0.2125 0.0
C743 C 0.71844 0.27283 0.22777 0.0
H744 H 0.22816 0.4057 0.061 0.0
H745 H 0.27886 0.26799 0.06983 0.0
H746 H 0.29683 0.26193 0.0356 0.0
H747 H 0.17456 0.38472 0.0161 0.0
H748 H 0.1899 0.43915 1.00588 0.0
H749 H 0.18267 0.43371 0.0313 0.0
H750 H 0.26445 0.4654 0.03654 0.0
H751 H 0.27192 0.471 1.01112 0.0
H752 H 0.31225 0.43819 0.02488 0.0
H753 H 0.30604 0.26898 1.00017 0.0
H754 H 0.30846 0.28991 0.96609 0.0
H755 H 0.25214 0.42309 0.97971 0.0
C756 C 0.24316 0.37434 0.05574 0.0
C757 C 0.25236 0.33748 0.06826 0.0
C758 C 0.27224 0.29709 0.06074 0.0
C759 C 0.2823 0.29316 0.04123 0.0
C760 C 0.27258 0.32995 0.02931 0.0
C761 C 0.25373 0.36991 0.03626 0.0
C762 C 0.24633 0.40415 0.02027 0.0
C763 C 0.19533 0.41612 0.01827 0.0
C764 C 0.27548 0.44724 0.02339 0.0
C765 C 0.26336 0.37691 1.00324 0.0
C766 C 0.27833 0.33419 1.00881 0.0
C767 C 0.29456 0.3024 0.99565 0.0
C768 C 0.29551 0.3145 0.97628 0.0
C769 C 0.28044 0.35811 0.97015 0.0
C770 C 0.2644 0.38972 0.98393 0.0
H771 H 0.62267 0.27069 0.47105 0.0
H772 H 0.76623 0.24455 0.45902 0.0
H773 H 0.7826 0.24576 0.4934 0.0
H774 H 0.63957 0.34589 0.51105 0.0
H775 H 0.59145 0.32379 0.5243 0.0
H776 H 0.59109 0.32233 0.4986 0.0
H777 H 0.57695 0.23496 0.49947 0.0
H778 H 0.5773 0.23615 0.52516 0.0
H779 H 0.61581 0.19878 0.51249 0.0
H780 H 0.78347 0.24866 0.52947 0.0
H781 H 0.76875 0.25405 0.56399 0.0
H782 H 0.62416 0.27471 0.55265 0.0
C783 C 0.65759 0.26507 0.47552 0.0
C784 C 0.69307 0.25781 0.46201 0.0
C785 C 0.73832 0.25103 0.4688 0.0
C786 C 0.74803 0.2513 0.48842 0.0
C787 C 0.71221 0.25823 0.50125 0.0
C788 C 0.66789 0.265 0.49508 0.0
C789 C 0.6355 0.27109 0.51184 0.0
C790 C 0.61309 0.3186 0.51142 0.0
C791 C 0.59926 0.23297 0.51226 0.0
C792 C 0.66854 0.26669 0.52839 0.0
C793 C 0.71262 0.25932 0.52199 0.0
C794 C 0.74901 0.2543 0.53464 0.0
C795 C 0.74017 0.25714 0.55433 0.0
C796 C 0.69519 0.26485 0.56132 0.0
C797 C 0.65905 0.2694 0.54799 0.0
H798 H 0.75149 0.64422 0.96544 0.0
H799 H 0.85208 0.75148 0.95639 0.0
H800 H 0.85666 0.76351 0.99105 0.0
H801 H 0.69368 0.69608 1.00559 0.0
H802 H 0.68534 0.64273 0.01797 0.0
H803 H 0.68824 0.64366 0.99229 0.0
H804 H 0.75419 0.58458 0.99303 0.0
H805 H 0.7514 0.58336 0.01869 0.0
H806 H 0.80467 0.59655 1.00689 0.0
H807 H 0.85168 0.76319 0.02683 0.0
H808 H 0.83988 0.74819 0.0611 0.0
H809 H 0.7438 0.64017 0.04718 0.0
C810 C 0.77464 0.67016 0.97064 0.0
C811 C 0.80106 0.69717 0.95793 0.0
C812 C 0.83068 0.73089 0.96561 0.0
C813 C 0.83375 0.73787 0.98537 0.0
C814 C 0.80716 0.7108 0.9974 0.0
C815 C 0.77832 0.67748 0.99036 0.0
C816 C 0.75443 0.65218 1.00646 0.0
C817 C 0.70233 0.65909 1.00552 0.0
C818 C 0.76694 0.60115 1.00625 0.0
C819 C 0.77474 0.67621 0.02364 0.0
C820 C 0.80478 0.71017 0.01808 0.0
C821 C 0.82806 0.73682 0.03136 0.0
C822 C 0.82085 0.72823 0.05084 0.0
C823 C 0.79075 0.6931 0.05695 0.0
C824 C 0.76723 0.66706 0.04305 0.0
H825 H 0.40493 0.75758 0.4723 0.0
H826 H 0.2663 0.79791 0.45764 0.0
H827 H 0.25018 0.81264 0.49158 0.0
H828 H 0.37472 0.69863 0.5159 0.0
H829 H 0.42594 0.71645 0.52809 0.0
H830 H 0.42648 0.70928 0.50256 0.0
H831 H 0.45543 0.79245 0.49852 0.0
H832 H 0.45484 0.79993 0.52401 0.0
H833 H 0.4233 0.83868 0.509 0.0
H834 H 0.24957 0.82406 0.52745 0.0
H835 H 0.26471 0.83097 0.56196 0.0
H836 H 0.4024 0.77962 0.55293 0.0
C837 C 0.37093 0.76899 0.47606 0.0
C838 C 0.33704 0.77655 0.462 0.0
C839 C 0.29327 0.79228 0.46789 0.0
C840 C 0.2836 0.80052 0.48723 0.0
C841 C 0.31787 0.79264 0.50061 0.0
C842 C 0.36059 0.77705 0.49526 0.0
C843 C 0.39154 0.77122 0.51239 0.0
C844 C 0.40548 0.72091 0.51488 0.0
C845 C 0.43376 0.80244 0.51088 0.0
C846 C 0.35973 0.78652 0.52822 0.0
C847 C 0.31734 0.79863 0.52117 0.0
C848 C 0.28257 0.81435 0.53312 0.0
C849 C 0.29143 0.8179 0.55276 0.0
C850 C 0.33475 0.80578 0.56031 0.0
C851 C 0.3691 0.78969 0.54773 0.0
H852 H 0.75385 0.1407 0.05047 0.0
H853 H 0.80024 0.27672 0.06569 0.0
H854 H 0.80658 0.29633 0.03149 0.0
H855 H 0.82819 0.12625 1.00957 0.0
H856 H 0.78582 0.09562 0.99599 0.0
H857 H 0.78534 0.09254 0.02165 0.0
H858 H 0.70117 0.1203 0.02206 0.0
H859 H 0.70146 0.1237 0.99641 0.0
H860 H 0.68653 0.17319 1.01039 0.0
H861 H 0.80691 0.30116 0.99521 0.0
H862 H 0.80339 0.29003 0.96031 0.0
H863 H 0.75681 0.15079 0.96912 0.0
C864 C 0.76599 0.17443 0.0467 0.0
C865 C 0.77655 0.20712 0.06092 0.0
C866 C 0.79144 0.25117 0.05517 0.0
C867 C 0.79534 0.26259 0.03574 0.0
C868 C 0.78425 0.22963 0.02215 0.0
C869 C 0.77005 0.18638 0.02741 0.0
C870 C 0.75986 0.15721 1.01006 0.0
C871 C 0.79171 0.11544 1.00928 0.0
C872 C 0.70925 0.14277 1.00972 0.0
C873 C 0.77061 0.19072 0.99419 0.0
C874 C 0.78452 0.23236 1.00142 0.0
C875 C 0.79603 0.26866 0.98943 0.0
C876 C 0.79361 0.2621 0.96957 0.0
C877 C 0.77986 0.2195 0.96182 0.0
C878 C 0.76803 0.18359 0.97445 0.0
H879 H 0.90083 0.75733 0.54752 0.0
H880 H 0.756 0.76326 0.56155 0.0
H881 H 0.73757 0.76043 0.52727 0.0
H882 H 0.89535 0.83134 0.5075 0.0
H883 H 0.938 0.8006 0.49404 0.0
H884 H 0.93949 0.79991 0.51971 0.0
H885 H 0.93751 0.7114 0.51944 0.0
H886 H 0.93605 0.71179 0.49375 0.0
H887 H 0.89211 0.68231 0.50701 0.0
H888 H 0.73527 0.75913 0.49081 0.0
H889 H 0.74966 0.76162 0.456 0.0
H890 H 0.89581 0.75949 0.46641 0.0
C891 C 0.86513 0.75827 0.54361 0.0
C892 C 0.83002 0.76066 0.55759 0.0
C893 C 0.78379 0.76102 0.55139 0.0
C894 C 0.77289 0.75959 0.53185 0.0
C895 C 0.8085 0.75788 0.51857 0.0
C896 C 0.85368 0.7573 0.52425 0.0
C897 C 0.88582 0.75699 0.50725 0.0
C898 C 0.91646 0.79976 0.50713 0.0
C899 C 0.91455 0.713 0.50684 0.0
C900 C 0.85171 0.75798 0.49105 0.0
C901 C 0.80724 0.75804 0.49781 0.0
C902 C 0.76999 0.75897 0.4854 0.0
C903 C 0.77848 0.76015 0.46564 0.0
C904 C 0.82388 0.76085 0.45844 0.0
C905 C 0.86076 0.75951 0.47144 0.0
H906 H 0.2631 0.89293 0.05575 0.0
H907 H 0.33147 0.76312 0.06556 0.0
H908 H 0.33393 0.74961 0.03108 0.0
H909 H 0.19573 0.85788 0.015 0.0
H910 H 0.20314 0.9114 1.00264 0.0
H911 H 0.20372 0.90991 0.02834 0.0
H912 H 0.2833 0.94903 0.02846 0.0
H913 H 0.28287 0.95081 1.00278 0.0
H914 H 0.32967 0.92381 0.01511 0.0
H915 H 0.3311 0.75052 0.99527 0.0
H916 H 0.32757 0.76868 0.96091 0.0
H917 H 0.26347 0.89854 0.97418 0.0
C918 C 0.27859 0.86157 0.05082 0.0
C919 C 0.29643 0.82894 0.06377 0.0
C920 C 0.31646 0.78847 0.05629 0.0
C921 C 0.31827 0.78042 0.03658 0.0
C922 C 0.30024 0.81317 0.02435 0.0
C923 C 0.28108 0.8531 0.03115 0.0
C924 C 0.26618 0.88378 0.01488 0.0
C925 C 0.2141 0.89116 0.01524 0.0
C926 C 0.29206 0.92956 0.01534 0.0
C927 C 0.2805 0.85505 0.99789 0.0
C928 C 0.29958 0.81421 1.00367 0.0
C929 C 0.316 0.78232 0.99057 0.0
C930 C 0.31355 0.7928 0.97105 0.0
C931 C 0.29519 0.835 0.96479 0.0
C932 C 0.27797 0.86614 0.97848 0.0
H933 H 0.15355 0.31663 0.55881 0.0
H934 H 0.29741 0.29627 0.5708 0.0
H935 H 0.31218 0.28289 0.53639 0.0
H936 H 0.14492 0.22906 0.5228 0.0
H937 H 0.10496 0.26097 0.50849 0.0
H938 H 0.10659 0.26932 0.53393 0.0
H939 H 0.1194 0.35608 0.52876 0.0
H940 H 0.11817 0.34794 0.5033 0.0
H941 H 0.16679 0.37514 0.51428 0.0
H942 H 0.31098 0.2752 0.4999 0.0
H943 H 0.29231 0.2652 0.46556 0.0
H944 H 0.149 0.28752 0.47829 0.0
C945 C 0.18815 0.30936 0.55416 0.0
C946 C 0.22438 0.30761 0.56743 0.0
C947 C 0.26912 0.29738 0.56088 0.0
C948 C 0.27784 0.29011 0.54136 0.0
C949 C 0.24134 0.29265 0.5286 0.0
C950 C 0.19726 0.3014 0.53483 0.0
C951 C 0.16367 0.30091 0.51844 0.0
C952 C 0.12794 0.26279 0.52108 0.0
C953 C 0.14067 0.34781 0.51606 0.0
C954 C 0.19562 0.29069 0.50196 0.0
C955 C 0.24041 0.28658 0.50798 0.0
C956 C 0.27595 0.27805 0.49508 0.0
C957 C 0.26519 0.27271 0.47562 0.0
C958 C 0.21927 0.27523 0.46936 0.0
C959 C 0.18433 0.28483 0.48274 0.0
H960 H 0.07231 0.39741 0.15449 0.0
H961 H 0.15125 0.47194 0.19643 0.0
H962 H 0.08639 0.52615 0.20072 0.0
H963 H 0.02568 0.4941 0.13209 0.0
H964 H 0.97152 0.46726 0.12705 0.0
H965 H 1.02235 0.43304 0.12899 0.0
H966 H 0.98293 0.38373 0.15497 0.0
H967 H 0.93207 0.41824 0.15335 0.0
H968 H 0.96004 0.41081 0.17603 0.0
H969 H 1.01315 0.57299 0.19931 0.0
H970 H 0.94315 0.61437 0.18939 0.0
H971 H 0.91508 0.50933 0.14752 0.0
C972 C 0.07563 0.4249 0.16475 0.0
C973 C 0.11608 0.43057 0.17536 0.0
C974 C 0.12013 0.46729 0.1883 0.0
C975 C 0.08345 0.49779 0.1909 0.0
C976 C 0.04357 0.49088 0.18031 0.0
C977 C 0.03986 0.45559 0.16731 0.0
C978 C 0.99543 0.4575 0.1564 0.0
C979 C 1.0043 0.46335 0.13487 0.0
C980 C 0.96588 0.41505 0.16044 0.0
C981 C 0.97467 0.49992 0.16506 0.0
C982 C 1.00241 0.51827 0.17909 0.0
C983 C 0.99103 0.55871 0.18848 0.0
C984 C 0.95117 0.58177 0.18288 0.0
C985 C 0.92388 0.56455 0.16787 0.0
C986 C 0.93522 0.52266 0.15922 0.0
H987 H 0.42072 0.9913 0.6743 0.0
H988 H 0.51634 0.87894 0.66846 0.0
H989 H 0.58068 0.93237 0.67332 0.0
H990 H 0.4786 0.0654 0.64691 0.0
H991 H 0.46672 0.11658 0.66033 0.0
H992 H 0.42774 0.06916 0.66146 0.0
H993 H 0.4351 0.06629 0.69823 0.0
H994 H 0.47343 0.11455 0.69734 0.0
H995 H 0.49098 0.06249 0.70894 0.0
H996 H 0.63316 0.99826 0.67142 0.0
H997 H 0.67168 0.07126 0.66585 0.0
H998 H 0.54267 0.14281 0.67366 0.0
C999 C 0.45519 0.97777 0.67475 0.0
C1000 C 0.46371 0.93104 0.67108 0.0
C1001 C 0.5091 0.91445 0.67156 0.0
C1002 C 0.54581 0.94463 0.67421 0.0
C1003 C 0.53632 0.991 0.67661 0.0
C1004 C 0.49207 1.00745 0.67728 0.0
C1005 C 0.49117 0.05924 0.67768 0.0
C1006 C 0.4645 0.07869 0.66058 0.0
C1007 C 0.47151 0.07667 0.69669 0.0
C1008 C 0.54179 0.06944 0.67607 0.0
C1009 C 0.56714 0.02956 0.67575 0.0
C1010 C 0.61396 0.02978 0.67236 0.0
C1011 C 0.63558 0.07175 0.66932 0.0
C1012 C 0.61062 0.11341 0.66985 0.0
C1013 C 0.56299 0.11193 0.67337 0.0
H1014 H 0.47789 0.97557 0.89222 0.0
H1015 H 0.44983 0.95293 0.83216 0.0
H1016 H 0.51598 1.00228 0.82375 0.0
H1017 H 0.51506 0.08903 0.88991 0.0
H1018 H 0.55922 0.08116 0.90751 0.0
H1019 H 0.50879 0.04599 0.90814 0.0
H1020 H 0.55959 0.9733 0.90682 0.0
H1021 H 0.61027 1.00831 0.906 0.0
H1022 H 0.60012 0.96652 0.88761 0.0
H1023 H 0.58607 0.05698 0.82264 0.0
H1024 H 0.6494 0.11162 0.82911 0.0
H1025 H 0.63401 0.08651 0.88975 0.0
C1026 C 0.48577 0.98002 0.87723 0.0
C1027 C 0.45883 0.9597 0.86287 0.0
C1028 C 0.46972 0.96834 0.84346 0.0
C1029 C 0.50753 0.9959 0.83856 0.0
C1030 C 0.53428 1.0139 0.85323 0.0
C1031 C 0.5237 1.00593 0.87216 0.0
C1032 C 0.55746 0.02803 0.88547 0.0
C1033 C 0.53371 0.06313 0.89851 0.0
C1034 C 0.58339 0.99189 0.89716 0.0
C1035 C 0.58839 0.05088 0.87114 0.0
C1036 C 0.57484 0.04266 0.85258 0.0
C1037 C 0.59719 0.06314 0.83713 0.0
C1038 C 0.63325 0.09382 0.84089 0.0
C1039 C 0.64625 0.10343 0.85992 0.0
C1040 C 0.62451 0.08021 0.87505 0.0
H1041 H 0.04199 0.40681 0.35819 0.0
H1042 H 1.02146 0.39084 0.41921 0.0
H1043 H 0.97192 0.45871 0.41949 0.0
H1044 H 0.04982 0.52172 0.35617 0.0
H1045 H 1.01666 0.53136 0.3349 0.0
H1046 H 0.04517 0.47755 0.33835 0.0
H1047 H 0.96856 0.43387 0.33461 0.0
H1048 H 0.93994 0.4875 0.33047 0.0
H1049 H 0.92011 0.44988 0.34911 0.0
H1050 H 0.94043 0.53587 0.41469 0.0
H1051 H 0.90885 0.60929 0.40352 0.0
H1052 H 0.94029 0.57244 0.34503 0.0
C1053 C 0.02549 0.41644 0.37144 0.0
C1054 C 0.03635 0.39413 0.38875 0.0
C1055 C 1.01444 0.40807 0.40585 0.0
C1056 C 0.98619 0.44652 0.40617 0.0
C1057 C 0.97893 0.46975 0.38915 0.0
C1058 C 0.99613 0.45431 0.37194 0.0
C1059 C 0.98348 0.48661 0.35584 0.0
C1060 C 0.02635 0.5054 0.34573 0.0
C1061 C 0.95109 0.46306 0.34167 0.0
C1062 C 0.95892 0.52374 0.36692 0.0
C1063 C 0.95723 0.51332 0.38615 0.0
C1064 C 0.94031 0.54391 0.39962 0.0
C1065 C 0.92296 0.58559 0.39319 0.0
C1066 C 0.92209 0.59597 0.37349 0.0
C1067 C 0.94039 0.56483 0.36015 0.0
H1068 H 0.94075 0.56281 0.87186 0.0
H1069 H 0.99023 0.66091 0.83004 0.0
H1070 H 0.06253 0.61816 0.82749 0.0
H1071 H 0.04144 0.54318 0.89591 0.0
H1072 H 0.03339 0.4825 0.89876 0.0
H1073 H 0.98452 0.51942 0.89661 0.0
H1074 H 0.95536 0.47188 0.86817 0.0
H1075 H 1.0043 0.4347 0.86955 0.0
H1076 H 0.99156 0.46365 0.84758 0.0
H1077 H 0.1329 0.56855 0.8321 0.0
H1078 H 0.19169 0.51129 0.84092 0.0
H1079 H 0.09303 0.44352 0.87763 0.0
C1080 C 0.966 0.57484 0.86172 0.0
C1081 C 0.9596 0.61581 0.85138 0.0
C1082 C 0.99442 0.63035 0.83854 0.0
C1083 C 0.03563 0.60609 0.83686 0.0
C1084 C 0.0412 0.56672 0.84774 0.0
C1085 C 1.00691 0.55069 0.85959 0.0
C1086 C 1.02124 0.50746 0.86973 0.0
C1087 C 1.02009 0.51354 0.89154 0.0
C1088 C 0.99132 0.46704 0.86338 0.0
C1089 C 0.06968 0.50272 0.86237 0.0
C1090 C 0.08067 0.53711 0.84966 0.0
C1091 C 0.12444 0.54102 0.8418 0.0
C1092 C 0.15766 0.50864 0.84698 0.0
C1093 C 0.1467 0.47282 0.85977 0.0
C1094 C 0.1021 0.47002 0.8675 0.0
H1095 H 0.53545 0.12082 0.36159 0.0
H1096 H 0.66099 0.06913 0.33703 0.0
H1097 H 0.62351 0.9948 0.33077 0.0
H1098 H 0.51119 0.02915 0.38731 0.0
H1099 H 0.44984 0.0294 0.38467 0.0
H1100 H 0.48138 0.0817 0.38228 0.0
H1101 H 0.4475 0.09472 0.3486 0.0
H1102 H 0.4149 0.04271 0.35105 0.0
H1103 H 0.45234 0.05046 0.33082 0.0
H1104 H 0.57791 0.92247 0.33358 0.0
H1105 H 0.52725 0.85944 0.34428 0.0
H1106 H 0.43161 0.95878 0.36703 0.0
C1107 C 0.55394 0.09457 0.35388 0.0
C1108 C 0.60034 0.10064 0.34917 0.0
C1109 C 0.62485 0.06514 0.3401 0.0
C1110 C 0.60387 1.02289 0.33658 0.0
C1111 C 0.55842 1.01703 0.34219 0.0
C1112 C 0.53347 0.05224 0.35037 0.0
C1113 C 0.48769 0.03556 0.35769 0.0
C1114 C 0.48227 0.04447 0.37926 0.0
C1115 C 0.44828 0.05714 0.34635 0.0
C1116 C 0.49195 0.98513 0.35344 0.0
C1117 C 0.53244 0.97507 0.34414 0.0
C1118 C 0.54557 0.93005 0.34043 0.0
C1119 C 0.51675 0.89448 0.34658 0.0
C1120 C 0.47582 0.90434 0.35658 0.0
C1121 C 0.46294 0.95027 0.35954 0.0
H1122 H 0.49026 0.89441 0.15198 0.0
H1123 H 0.40514 0.9585 0.19503 0.0
H1124 H 0.46669 1.01499 0.20131 0.0
H1125 H 0.60263 0.91401 0.17472 0.0
H1126 H 0.62982 0.92595 0.15215 0.0
H1127 H 0.58218 0.88688 0.15329 0.0
H1128 H 0.53902 0.93494 0.12802 0.0
H1129 H 0.58645 0.97391 0.12673 0.0
H1130 H 0.53 0.99505 0.13219 0.0
H1131 H 0.53547 0.06751 0.20101 0.0
H1132 H 0.60073 0.11678 0.19154 0.0
H1133 H 0.6379 1.01983 0.14753 0.0
C1134 C 0.4851 0.91965 0.16309 0.0
C1135 C 0.4435 0.92186 0.17328 0.0
C1136 C 0.43708 0.95624 0.1872 0.0
C1137 C 0.47191 0.9881 0.19094 0.0
C1138 C 0.5126 0.9851 0.18052 0.0
C1139 C 0.51906 0.9519 0.16675 0.0
C1140 C 0.56324 0.95902 0.15588 0.0
C1141 C 0.59643 0.91909 0.15922 0.0
C1142 C 0.5541 0.96618 0.13445 0.0
C1143 C 0.58018 1.00228 0.16527 0.0
C1144 C 0.5512 1.01619 0.1798 0.0
C1145 C 0.55867 0.05664 0.18984 0.0
C1146 C 0.59583 0.08425 0.18447 0.0
C1147 C 0.62426 0.07154 0.16901 0.0
C1148 C 0.61692 0.02967 0.15961 0.0
H1149 H 0.0712 0.4315 0.64133 0.0
H1150 H 0.09012 0.43029 0.70259 0.0
H1151 H 0.03827 0.49701 0.70566 0.0
H1152 H 0.07857 0.5487 0.63661 0.0
H1153 H 0.03724 0.5535 0.61767 0.0
H1154 H 0.0692 0.50148 0.62058 0.0
H1155 H 0.99392 0.45486 0.62311 0.0
H1156 H 0.9616 0.50663 0.61978 0.0
H1157 H 0.95115 0.47122 0.64039 0.0
H1158 H 0.98888 0.56761 0.70138 0.0
H1159 H 0.94444 0.63444 0.69034 0.0
H1160 H 0.9654 0.59171 0.63163 0.0
C1161 C 0.06287 0.44419 0.65544 0.0
C1162 C 0.08337 0.42535 0.6718 0.0
C1163 C 0.07371 0.44399 0.68999 0.0
C1164 C 0.04458 0.48185 0.69182 0.0
C1165 C 0.0261 0.50073 0.67527 0.0
C1166 C 0.03477 0.48234 0.65745 0.0
C1167 C 1.01458 0.51124 0.64174 0.0
C1168 C 0.05214 0.52982 0.62838 0.0
C1169 C 0.97814 0.48439 0.6306 0.0
C1170 C 0.99334 0.54895 0.65346 0.0
C1171 C 0.99991 0.54227 0.67277 0.0
C1172 C 0.98341 0.5731 0.68629 0.0
C1173 C 0.95867 0.61123 0.67987 0.0
C1174 C 0.95113 0.61828 0.66011 0.0
C1175 C 0.96957 0.58697 0.64684 0.0
H1176 H 0.59109 0.29225 0.14018 0.0
H1177 H 0.59489 0.21424 0.08751 0.0
H1178 H 0.51125 0.2076 0.08815 0.0
H1179 H 0.49695 0.23113 0.16231 0.0
H1180 H 0.47081 0.2812 0.17258 0.0
H1181 H 0.53171 0.27981 0.16846 0.0
H1182 H 0.52609 0.35356 0.14824 0.0
H1183 H 0.46523 0.3553 0.15237 0.0
H1184 H 0.48724 0.35549 0.12832 0.0
H1185 H 0.42685 0.20573 0.0948 0.0
H1186 H 0.34684 0.21613 0.10543 0.0
H1187 H 0.39395 0.29938 0.15266 0.0
C1188 C 0.57436 0.27383 0.12879 0.0
C1189 C 0.60037 0.2538 0.11379 0.0
C1190 C 0.57646 0.23036 0.09911 0.0
C1191 C 0.52862 0.22605 0.09938 0.0
C1192 C 0.50415 0.2458 0.11431 0.0
C1193 C 0.52597 0.26984 0.12863 0.0
C1194 C 0.49074 0.28897 0.14261 0.0
C1195 C 0.49799 0.26909 0.16268 0.0
C1196 C 0.49243 0.34145 0.1429 0.0
C1197 C 0.44607 0.27175 0.13391 0.0
C1198 C 0.45485 0.24638 0.11771 0.0
C1199 C 0.41956 0.22582 0.1074 0.0
C1200 C 0.37408 0.23173 0.1136 0.0
C1201 C 0.36375 0.25862 0.12984 0.0
C1202 C 0.40053 0.27879 0.14012 0.0
H1203 H 0.71026 0.41596 0.6566 0.0
H1204 H 0.77315 0.39008 0.60162 0.0
H1205 H 0.77629 0.47347 0.59539 0.0
H1206 H 0.64321 0.51601 0.64367 0.0
H1207 H 0.65453 0.54513 0.66581 0.0
H1208 H 0.65333 0.4836 0.66512 0.0
H1209 H 0.73512 0.4804 0.6793 0.0
H1210 H 0.73614 0.54179 0.68034 0.0
H1211 H 0.78066 0.51159 0.66775 0.0
H1212 H 0.77264 0.5612 0.59548 0.0
H1213 H 0.77545 0.64324 0.60412 0.0
H1214 H 0.7203 0.6107 0.65997 0.0
C1215 C 0.72427 0.42789 0.64317 0.0
C1216 C 0.74106 0.3966 0.62949 0.0
C1217 C 0.7601 0.41351 0.61228 0.0
C1218 C 0.76164 0.4608 0.60856 0.0
C1219 C 0.74455 0.49085 0.62232 0.0
C1220 C 0.72704 0.47495 0.63944 0.0
C1221 C 0.715 0.51413 0.65266 0.0
C1222 C 0.66345 0.51474 0.65707 0.0
C1223 C 0.74344 0.51184 0.67109 0.0
C1224 C 0.72871 0.55464 0.64041 0.0
C1225 C 0.7447 0.54072 0.62278 0.0
C1226 C 0.76016 0.57235 0.60926 0.0
C1227 C 0.76125 0.61903 0.61422 0.0
C1228 C 0.74806 0.63349 0.63272 0.0
C1229 C 0.73024 0.60081 0.64566 0.0
H1230 H 0.45052 0.72918 0.14405 0.0
H1231 H 0.444 0.79052 0.08785 0.0
H1232 H 0.52785 0.78507 0.0849 0.0
H1233 H 0.54777 0.78693 0.15895 0.0
H1234 H 0.57351 0.74059 0.17202 0.0
H1235 H 0.51236 0.74257 0.16902 0.0
H1236 H 0.51291 0.66204 0.15376 0.0
H1237 H 0.57396 0.65922 0.15714 0.0
H1238 H 0.55006 0.65076 0.13373 0.0
H1239 H 0.61232 0.78554 0.09005 0.0
H1240 H 0.69268 0.77766 0.10038 0.0
H1241 H 0.6473 0.71182 0.15254 0.0
C1242 C 0.46658 0.73933 0.13078 0.0
C1243 C 0.44046 0.75945 0.11597 0.0
C1244 C 0.46314 0.77413 0.09917 0.0
C1245 C 0.51088 0.77166 0.09745 0.0
C1246 C 0.53591 0.7541 0.11265 0.0
C1247 C 0.51466 0.73699 0.12881 0.0
C1248 C 0.55025 0.72198 0.14337 0.0
C1249 C 0.54568 0.74966 0.16194 0.0
C1250 C 0.54658 0.67043 0.14722 0.0
C1251 C 0.59451 0.73372 0.13292 0.0
C1252 C 0.58523 0.75293 0.11535 0.0
C1253 C 0.62005 0.76969 0.10361 0.0
C1254 C 0.66562 0.76553 0.10969 0.0
C1255 C 0.67632 0.74407 0.1272 0.0
C1256 C 0.64014 0.72807 0.13899 0.0
H1257 H 0.35464 0.47265 0.6228 0.0
H1258 H 0.21243 0.44427 0.63592 0.0
H1259 H 0.19571 0.52672 0.63637 0.0
H1260 H 0.3622 0.56964 0.65478 0.0
H1261 H 0.40039 0.60182 0.63965 0.0
H1262 H 0.40078 0.54032 0.63885 0.0
H1263 H 0.38608 0.54295 0.60245 0.0
H1264 H 0.3854 0.60449 0.60316 0.0
H1265 H 0.33728 0.5738 0.59349 0.0
H1266 H 0.1934 0.61266 0.63428 0.0
H1267 H 0.20804 0.69601 0.6345 0.0
H1268 H 0.35294 0.67057 0.62646 0.0
C1269 C 0.32003 0.48397 0.62564 0.0
C1270 C 0.28464 0.45191 0.62907 0.0
C1271 C 0.23996 0.46806 0.63312 0.0
C1272 C 0.23008 0.51495 0.63335 0.0
C1273 C 0.26547 0.54577 0.62991 0.0
C1274 C 0.30977 0.5311 0.62651 0.0
C1275 C 0.34194 0.57178 0.62469 0.0
C1276 C 0.37848 0.57082 0.64043 0.0
C1277 C 0.36397 0.57333 0.60476 0.0
C1278 C 0.30879 0.61133 0.62753 0.0
C1279 C 0.26469 0.5955 0.63011 0.0
C1280 C 0.22788 0.62544 0.63243 0.0
C1281 C 0.23644 0.67275 0.63244 0.0
C1282 C 0.28154 0.6898 0.6306 0.0
C1283 C 0.31809 0.65851 0.62803 0.0
H1284 H 0.10428 0.34998 0.92143 0.0
H1285 H 0.16339 0.23044 0.89428 0.0
H1286 H 0.08548 0.2028 0.8866 0.0
H1287 H 1.00099 0.2953 0.94102 0.0
H1288 H 0.96589 0.34445 0.93599 0.0
H1289 H 0.02585 0.35168 0.94112 0.0
H1290 H 0.03598 0.39528 0.9093 0.0
H1291 H 0.97646 0.38735 0.90358 0.0
H1292 H 1.02015 0.36777 0.88729 0.0
H1293 H 1.00092 0.19138 0.87978 0.0
H1294 H 0.91735 0.19514 0.87539 0.0
H1295 H 0.91341 0.32347 0.90633 0.0
C1296 C 0.10105 0.31735 0.91429 0.0
C1297 C 0.1403 0.29215 0.90866 0.0
C1298 C 0.13409 0.25012 0.89899 0.0
C1299 C 0.08988 0.23427 0.89448 0.0
C1300 C 0.05213 0.26076 0.89975 0.0
C1301 C 0.05732 0.30123 0.9096 0.0
C1302 C 1.01158 0.32484 0.91259 0.0
C1303 C 1.00042 0.32931 0.93395 0.0
C1304 C 1.01098 0.37162 0.90261 0.0
C1305 C 0.97958 0.29141 0.90285 0.0
C1306 C 1.00369 0.25465 0.89556 0.0
C1307 C 0.9818 0.21986 0.88556 0.0
C1308 C 0.93418 0.22244 0.88309 0.0
C1309 C 0.90854 0.2596 0.89051 0.0
C1310 C 0.93184 0.29458 0.9005 0.0
H1311 H 0.73925 0.88897 0.40698 0.0
H1312 H 0.82897 0.88688 0.35755 0.0
H1313 H 0.8354 0.97063 0.35877 0.0
H1314 H 0.6803 0.99634 0.39466 0.0
H1315 H 0.67698 1.01537 0.41908 0.0
H1316 H 0.67727 0.95515 0.41376 0.0
H1317 H 0.74707 0.94459 0.43607 0.0
H1318 H 0.74732 1.00489 0.44121 0.0
H1319 H 0.79811 0.97783 0.43194 0.0
H1320 H 0.83343 0.055 0.36531 0.0
H1321 H 0.82114 0.13417 0.37644 0.0
H1322 H 0.73519 0.08325 0.42236 0.0
C1323 C 0.75961 0.90627 0.39626 0.0
C1324 C 0.78344 0.88106 0.3821 0.0
C1325 C 0.81035 0.90515 0.36854 0.0
C1326 C 0.81431 0.95289 0.36911 0.0
C1327 C 0.79134 0.97667 0.3834 0.0
C1328 C 0.76429 0.95435 0.3967 0.0
C1329 C 0.74406 0.98847 0.41077 0.0
C1330 C 0.69154 0.98884 0.40949 0.0
C1331 C 0.76011 0.97833 0.43121 0.0
C1332 C 0.76435 0.03308 0.40338 0.0
C1333 C 0.79127 0.02545 0.3875 0.0
C1334 C 0.81259 0.06136 0.37781 0.0
C1335 C 0.80559 0.10631 0.38429 0.0
C1336 C 0.77789 0.11528 0.40048 0.0
C1337 C 0.7575 0.07779 0.41022 0.0
H1338 H 0.97951 0.7138 0.90871 0.0
H1339 H 0.92346 0.84346 0.88993 0.0
H1340 H 1.00245 0.8727 0.88512 0.0
H1341 H 0.07931 0.75713 0.93334 0.0
H1342 H 0.11531 0.7108 0.92548 0.0
H1343 H 0.05475 0.70181 0.92854 0.0
H1344 H 0.04908 0.67331 0.89365 0.0
H1345 H 0.10952 0.68257 0.89037 0.0
H1346 H 0.06913 0.70938 0.87454 0.0
H1347 H 0.08864 0.88626 0.88126 0.0
H1348 H 0.17284 0.88419 0.87918 0.0
H1349 H 0.17236 0.74436 0.89974 0.0
C1350 C 0.98349 0.74873 0.9039 0.0
C1351 C 0.94476 0.77655 0.89996 0.0
C1352 C 0.95222 0.82165 0.89332 0.0
C1353 C 0.99708 0.83841 0.89045 0.0
C1354 C 0.03427 0.8096 0.89415 0.0
C1355 C 0.02779 0.76569 0.90076 0.0
C1356 C 0.07313 0.74073 0.90293 0.0
C1357 C 0.08108 0.72681 0.92381 0.0
C1358 C 0.07533 0.69904 0.88958 0.0
C1359 C 0.10657 0.77758 0.89669 0.0
C1360 C 0.08342 0.81702 0.89164 0.0
C1361 C 0.10689 0.85557 0.88524 0.0
C1362 C 0.15494 0.85397 0.8841 0.0
C1363 C 0.17965 0.81413 0.88931 0.0
C1364 C 0.15478 0.77538 0.89565 0.0
H1365 H 0.18742 0.13207 0.37746 0.0
H1366 H 0.3219 0.16982 0.39824 0.0
H1367 H 0.3416 0.08798 0.40156 0.0
H1368 H 0.16968 0.03598 0.40796 0.0
H1369 H 0.14173 1.00145 0.39017 0.0
H1370 H 0.13844 0.06282 0.38886 0.0
H1371 H 0.17156 0.06103 0.35457 0.0
H1372 H 0.17447 0.99961 0.35569 0.0
H1373 H 0.22508 0.03229 0.35014 0.0
H1374 H 0.34516 1.0014 0.40427 0.0
H1375 H 0.33542 0.91797 0.40342 0.0
H1376 H 0.19944 0.935 0.3797 0.0
C1377 C 0.22122 0.12319 0.38254 0.0
C1378 C 0.25316 0.15776 0.38757 0.0
C1379 C 0.2969 0.14431 0.39419 0.0
C1380 C 0.30831 0.09776 0.39622 0.0
C1381 C 0.27578 0.06467 0.39146 0.0
C1382 C 0.23331 0.07678 0.38451 0.0
C1383 C 0.20473 0.03444 0.38027 0.0
C1384 C 0.16106 0.03364 0.39255 0.0
C1385 C 0.19329 0.03169 0.3589 0.0
C1386 C 0.23751 0.99655 0.3861 0.0
C1387 C 0.2782 1.01485 0.39261 0.0
C1388 C 0.31351 0.98686 0.39907 0.0
C1389 C 0.30753 0.93917 0.39855 0.0
C1390 C 0.26669 0.91914 0.39144 0.0
C1391 C 0.23109 0.94872 0.38529 0.0
H1392 H 0.47289 0.80376 0.92189 0.0
H1393 H 0.42265 0.71002 0.87886 0.0
H1394 H 0.50229 0.69501 0.86853 0.0
H1395 H 0.56178 0.85222 0.8927 0.0
H1396 H 0.60193 0.85885 0.91197 0.0
H1397 H 0.54133 0.86056 0.91672 0.0
H1398 H 0.54985 0.79529 0.94141 0.0
H1399 H 0.61054 0.79356 0.93687 0.0
H1400 H 0.57665 0.74246 0.93434 0.0
H1401 H 0.58726 0.69048 0.86275 0.0
H1402 H 0.67116 0.69623 0.86163 0.0
H1403 H 0.66809 0.79525 0.90771 0.0
C1404 C 0.47866 0.77932 0.91054 0.0
C1405 C 0.44127 0.75743 0.90137 0.0
C1406 C 0.45046 0.72695 0.88617 0.0
C1407 C 0.49569 0.71828 0.8802 0.0
C1408 C 0.53159 0.74084 0.88938 0.0
C1409 C 0.52363 0.77085 0.9042 0.0
C1410 C 0.5683 0.79196 0.91113 0.0
C1411 C 0.56833 0.84397 0.90794 0.0
C1412 C 0.57683 0.7801 0.93219 0.0
C1413 C 0.60283 0.76846 0.89813 0.0
C1414 C 0.58068 0.73921 0.88569 0.0
C1415 C 0.60485 0.7133 0.87241 0.0
C1416 C 0.65274 0.71687 0.87191 0.0
C1417 C 0.67667 0.74624 0.88455 0.0
C1418 C 0.65105 0.77269 0.89776 0.0
H1419 H 0.32987 0.43423 0.37467 0.0
H1420 H 0.21535 0.41768 0.41362 0.0
H1421 H 0.20654 0.50128 0.41527 0.0
H1422 H 0.37704 0.53602 0.39773 0.0
H1423 H 0.39438 0.56183 0.3755 0.0
H1424 H 0.39202 0.50055 0.37764 0.0
H1425 H 0.33787 0.49704 0.3485 0.0
H1426 H 0.33961 0.55836 0.34642 0.0
H1427 H 0.28543 0.52944 0.3488 0.0
H1428 H 0.2076 0.5882 0.41145 0.0
H1429 H 0.22376 0.66989 0.40501 0.0
H1430 H 0.33913 0.63073 0.36959 0.0
C1431 C 0.3033 0.44808 0.38376 0.0
C1432 C 0.27326 0.41865 0.39398 0.0
C1433 C 0.23886 0.43883 0.40559 0.0
C1434 C 0.23344 0.48658 0.40659 0.0
C1435 C 0.26291 0.51442 0.39604 0.0
C1436 C 0.29763 0.4959 0.38507 0.0
C1437 C 0.32499 0.53351 0.37528 0.0
C1438 C 0.37507 0.53294 0.38194 0.0
C1439 C 0.32177 0.52932 0.35346 0.0
C1440 C 0.30019 0.57596 0.38239 0.0
C1441 C 0.26419 0.56423 0.39423 0.0
C1442 C 0.23591 0.59764 0.40227 0.0
C1443 C 0.24515 0.64409 0.39843 0.0
C1444 C 0.28264 0.65708 0.38677 0.0
C1445 C 0.31016 0.62219 0.37857 0.0
H1446 H 0.61876 0.34975 0.8662 0.0
H1447 H 0.65776 0.28355 0.91905 0.0
H1448 H 0.57623 0.28036 0.92874 0.0
H1449 H 0.52335 0.41825 0.88684 0.0
H1450 H 0.4895 0.41219 0.86553 0.0
H1451 H 0.55105 0.41288 0.86393 0.0
H1452 H 0.54881 0.33532 0.8462 0.0
H1453 H 0.48742 0.33383 0.84808 0.0
H1454 H 0.52093 0.28713 0.85728 0.0
H1455 H 0.48821 0.27442 0.93021 0.0
H1456 H 0.40405 0.27775 0.92576 0.0
H1457 H 0.42376 0.35241 0.87297 0.0
C1458 C 0.61038 0.33576 0.88008 0.0
C1459 C 0.6449 0.31679 0.89182 0.0
C1460 C 0.63221 0.29859 0.90983 0.0
C1461 C 0.58581 0.2963 0.91539 0.0
C1462 C 0.55249 0.31335 0.90301 0.0
C1463 C 0.56446 0.33393 0.88596 0.0
C1464 C 0.52239 0.34894 0.87497 0.0
C1465 C 0.52152 0.40117 0.87269 0.0
C1466 C 0.51976 0.32486 0.85548 0.0
C1467 C 0.48466 0.33267 0.88822 0.0
C1468 C 0.50255 0.31184 0.90427 0.0
C1469 C 0.47402 0.29147 0.91787 0.0
C1470 C 0.42624 0.29319 0.91516 0.0
C1471 C 0.40728 0.31562 0.89911 0.0
C1472 C 0.43714 0.33555 0.88553 0.0
H1473 H 0.79878 0.38729 0.39457 0.0
H1474 H 0.65297 0.38227 0.38337 0.0
H1475 H 0.64872 0.46619 0.38589 0.0
H1476 H 0.79977 0.47949 0.42821 0.0
H1477 H 0.85081 0.50567 0.41868 0.0
H1478 H 0.8423 0.44503 0.41633 0.0
H1479 H 0.8541 0.45273 0.38025 0.0
H1480 H 0.85878 0.51403 0.38127 0.0
H1481 H 0.81616 0.48821 0.36643 0.0
H1482 H 0.66069 0.5528 0.38915 0.0
H1483 H 0.68878 0.63253 0.39286 0.0
H1484 H 0.82576 0.58031 0.4022 0.0
C1485 C 0.76593 0.40382 0.39281 0.0
C1486 C 0.72619 0.37787 0.38888 0.0
C1487 C 0.68401 0.40116 0.38636 0.0
C1488 C 0.68115 0.44899 0.38781 0.0
C1489 C 0.72085 0.47365 0.39165 0.0
C1490 C 0.76251 0.45182 0.39402 0.0
C1491 C 0.8004 0.48644 0.39707 0.0
C1492 C 0.82474 0.47868 0.41622 0.0
C1493 C 0.83439 0.48519 0.38028 0.0
C1494 C 0.77328 0.53073 0.39708 0.0
C1495 C 0.72756 0.52294 0.39356 0.0
C1496 C 0.69646 0.55918 0.39209 0.0
C1497 C 0.7126 0.60442 0.39427 0.0
C1498 C 0.75931 0.61307 0.39819 0.0
C1499 C 0.78965 0.57532 0.39962 0.0
H1500 H 0.97517 0.70396 0.1006 0.0
H1501 H 0.92026 0.80716 0.13873 0.0
H1502 H 0.9988 0.82748 0.14856 0.0
H1503 H 0.0649 0.66648 0.13116 0.0
H1504 H 0.10608 0.65763 0.11233 0.0
H1505 H 0.04582 0.65235 0.10745 0.0
H1506 H 0.05269 0.71263 0.08055 0.0
H1507 H 0.11308 0.7178 0.08521 0.0
H1508 H 0.07711 0.76778 0.08579 0.0
H1509 H 0.08258 0.83491 0.15515 0.0
H1510 H 0.16636 0.83172 0.15732 0.0
H1511 H 0.16929 0.72362 0.11492 0.0
C1512 C 0.97965 0.73141 0.11077 0.0
C1513 C 0.94125 0.75399 0.1189 0.0
C1514 C 0.94885 0.78913 0.1324 0.0
C1515 C 0.99343 0.80096 0.13805 0.0
C1516 C 0.03033 0.77739 0.13008 0.0
C1517 C 1.02405 0.74354 0.11664 0.0
C1518 C 0.06975 0.7229 0.11066 0.0
C1519 C 0.07174 0.67181 0.11571 0.0
C1520 C 0.07868 0.73076 0.08928 0.0
C1521 C 0.10274 0.75044 0.12286 0.0
C1522 C 0.07902 0.78161 0.13394 0.0
C1523 C 0.10145 0.81078 0.14648 0.0
C1524 C 0.14928 0.80858 0.14761 0.0
C1525 C 0.17482 0.77742 0.1363 0.0
C1526 C 0.15095 0.74772 0.12381 0.0
H1527 H 0.26351 0.18135 0.60819 0.0
H1528 H 0.29172 0.18821 0.66875 0.0
H1529 H 0.29227 0.10388 0.67047 0.0
H1530 H 0.18804 0.08789 0.60997 0.0
H1531 H 0.20729 0.06065 0.58833 0.0
H1532 H 0.21319 0.12155 0.59111 0.0
H1533 H 0.30024 0.11592 0.58467 0.0
H1534 H 0.29447 0.05512 0.58143 0.0
H1535 H 0.33444 0.07722 0.59866 0.0
H1536 H 0.28082 1.01994 0.66657 0.0
H1537 H 0.27122 0.94018 0.65655 0.0
H1538 H 0.25426 0.9846 0.59781 0.0
C1539 C 0.27155 0.16489 0.6216 0.0
C1540 C 0.27894 0.19118 0.63829 0.0
C1541 C 0.2873 0.16861 0.65577 0.0
C1542 C 0.28717 0.12074 0.6569 0.0
C1543 C 0.27856 0.09567 0.64038 0.0
C1544 C 0.27191 0.11675 0.62295 0.0
C1545 C 0.26256 0.08129 0.60752 0.0
C1546 C 0.21494 0.08828 0.59871 0.0
C1547 C 0.30018 0.08246 0.59216 0.0
C1548 C 0.26443 0.03722 0.61907 0.0
C1549 C 0.27314 0.04661 0.63803 0.0
C1550 C 0.27464 1.01213 0.6517 0.0
C1551 C 0.26869 0.96671 0.64583 0.0
C1552 C 0.26208 0.9555 0.62631 0.0
C1553 C 0.25925 0.99166 0.61283 0.0
H1554 H 0.89027 0.22499 0.15676 0.0
H1555 H 0.85262 0.30596 0.10745 0.0
H1556 H 0.93444 0.31393 0.09887 0.0
H1557 H 0.9955 0.29262 0.16775 0.0
H1558 H 0.02658 0.24311 0.17581 0.0
H1559 H 0.96527 0.24545 0.17853 0.0
H1560 H 0.95798 0.16918 0.16007 0.0
H1561 H 1.01917 0.16691 0.15709 0.0
H1562 H 0.98242 0.16451 0.1365 0.0
H1563 H 1.01996 0.30553 0.09357 0.0
H1564 H 0.10314 0.29171 0.09437 0.0
H1565 H 0.08845 0.22243 0.14876 0.0
C1566 C 0.89934 0.2451 0.14435 0.0
C1567 C 0.8647 0.265 0.1328 0.0
C1568 C 0.87821 0.29087 0.11666 0.0
C1569 C 0.92475 0.29529 0.11159 0.0
C1570 C 0.9579 0.27451 0.12302 0.0
C1571 C 0.94593 0.25092 0.13936 0.0
C1572 C 0.98857 0.23255 0.14929 0.0
C1573 C 0.99431 0.25476 0.16902 0.0
C1574 C 0.98692 0.18018 0.15083 0.0
C1575 C 0.02625 0.24802 0.13565 0.0
C1576 C 1.00757 0.27188 0.12052 0.0
C1577 C 0.03486 0.28745 0.10551 0.0
C1578 C 0.08225 0.279 0.10601 0.0
C1579 C 0.10277 0.25575 0.12156 0.0
C1580 C 0.07408 0.24036 0.13667 0.0
H1581 H 0.70562 0.09383 0.61455 0.0
H1582 H 0.83238 0.15171 0.63584 0.0
H1583 H 0.86334 0.07332 0.6399 0.0
H1584 H 0.70065 1.00087 0.6471 0.0
H1585 H 0.67572 0.96234 0.63001 0.0
H1586 H 0.66583 1.02285 0.62798 0.0
H1587 H 0.69757 1.02045 0.59326 0.0
H1588 H 0.70802 0.96005 0.59552 0.0
H1589 H 0.75409 0.99796 0.58897 0.0
H1590 H 0.87848 0.98752 0.64291 0.0
H1591 H 0.87753 0.90331 0.64423 0.0
H1592 H 0.73957 0.90246 0.6215 0.0
C1593 C 0.74024 0.0904 0.61981 0.0
C1594 C 0.76677 0.12929 0.62468 0.0
C1595 C 0.81159 0.12268 0.63178 0.0
C1596 C 0.82932 0.07823 0.6342 0.0
C1597 C 0.80175 0.04076 0.62953 0.0
C1598 C 0.75817 0.04657 0.62244 0.0
C1599 C 0.73453 1.00105 0.61917 0.0
C1600 C 0.69163 0.99654 0.63181 0.0
C1601 C 0.72288 0.9945 0.59797 0.0
C1602 C 0.77162 0.96832 0.6255 0.0
C1603 C 0.81015 0.99187 0.63142 0.0
C1604 C 0.84853 0.96893 0.63822 0.0
C1605 C 0.84758 0.92095 0.63893 0.0
C1606 C 0.80847 0.89604 0.63294 0.0
C1607 C 0.77003 0.92032 0.62614 0.0
loop_
_geom_bond_atom_site_label_1
_geom_bond_atom_site_label_2
_geom_bond_distance
_geom_bond_site_symmetry_2
_ccdc_geom_bond_type
Co0 N4 2.148 . S
Co0 N10 2.128 . S
Co0 N20 2.194 . S
Co0 O25 2.351 . S
Co0 O26 2.155 . S
Co0 O27 2.096 . S
C1 N4 1.301 . S
C1 N5 1.328 . S
C1 H6 0.930 . S
C2 C3 1.333 . S
C2 N4 1.317 . S
C2 H7 0.930 . S
C3 C2 1.333 . S
C3 N5 1.350 . S
C3 H29 0.931 . S
N4 Co0 2.148 . S
N4 C1 1.301 . S
N4 C2 1.317 . S
N5 C1 1.328 . S
N5 C3 1.350 . S
H6 C1 0.930 . S
H7 C2 0.930 . S
C8 O9 1.224 1_455 S
C8 O27 1.247 . S
O9 C8 1.224 1_655 S
N10 Co0 2.128 . S
N10 C11 1.355 . S
N10 C13 1.311 . S
C11 N10 1.355 . S
C11 C12 1.363 . S
C11 H23 0.929 . S
C12 C11 1.363 . S
C12 N14 1.375 . S
C12 H30 0.931 . S
C13 N10 1.311 . S
C13 N14 1.347 . S
C13 H24 0.929 . S
N14 C12 1.375 . S
N14 C13 1.347 . S
C15 C18 1.365 . S
C15 N20 1.328 . S
C15 H21 0.929 . S
C16 C17 1.362 . S
C16 C19 1.378 . S
C16 H31 0.929 1_455 S
C17 C16 1.362 . S
C17 C18 1.366 . S
C18 C15 1.365 . S
C18 C17 1.366 . S
C18 H32 0.930 . S
C19 C16 1.378 . S
C19 N20 1.315 . S
C19 H22 0.930 . S
N20 Co0 2.194 . S
N20 C15 1.328 . S
N20 C19 1.315 . S
H21 C15 0.929 . S
H22 C19 0.930 . S
H23 C11 0.929 . S
H24 C13 0.929 . S
O25 Co0 2.351 . S
O25 C28 1.244 . S
O26 Co0 2.155 . S
O26 C28 1.240 . S
O27 Co0 2.096 . S
O27 C8 1.247 . S
C28 O25 1.244 . S
C28 O26 1.240 . S
H29 C3 0.931 . S
H30 C12 0.931 . S
H31 C16 0.929 1_655 S
H32 C18 0.930 . S
Co33 N37 2.148 . S
Co33 N43 2.128 . S
Co33 N53 2.194 . S
Co33 O58 2.351 . S
Co33 O59 2.155 . S
Co33 O60 2.096 . S
C34 N37 1.301 . S
C34 N38 1.328 . S
C34 H39 0.930 . S
C35 C36 1.333 . S
C35 N37 1.317 . S
C35 H40 0.930 . S
C36 C35 1.333 . S
C36 N38 1.350 . S
C36 H62 0.931 . S
N37 Co33 2.148 . S
N37 C34 1.301 . S
N37 C35 1.317 . S
N38 C34 1.328 . S
N38 C36 1.350 . S
H39 C34 0.930 . S
H40 C35 0.930 . S
C41 O42 1.224 1_545 S
C41 O60 1.247 . S
O42 C41 1.224 1_565 S
N43 Co33 2.128 . S
N43 C44 1.355 . S
N43 C46 1.311 . S
C44 N43 1.355 . S
C44 C45 1.363 . S
C44 H56 0.929 . S
C45 C44 1.363 . S
C45 N47 1.375 . S
C45 H63 0.931 . S
C46 N43 1.311 . S
C46 N47 1.347 . S
C46 H57 0.929 . S
N47 C45 1.375 . S
N47 C46 1.347 . S
C48 C51 1.365 . S
C48 N53 1.328 . S
C48 H54 0.929 . S
C49 C50 1.362 . S
C49 C52 1.378 . S
C49 H64 0.929 1_545 S
C50 C49 1.362 . S
C50 C51 1.366 . S
C51 C48 1.365 . S
C51 C50 1.366 . S
C51 H65 0.930 . S
C52 C49 1.378 . S
C52 N53 1.315 . S
C52 H55 0.930 . S
N53 Co33 2.194 . S
N53 C48 1.328 . S
N53 C52 1.315 . S
H54 C48 0.929 . S
H55 C52 0.930 . S
H56 C44 0.929 . S
H57 C46 0.929 . S
O58 Co33 2.351 . S
O58 C61 1.244 . S
O59 Co33 2.155 . S
O59 C61 1.240 . S
O60 Co33 2.096 . S
O60 C41 1.247 . S
C61 O58 1.244 . S
C61 O59 1.240 . S
H62 C36 0.931 . S
H63 C45 0.931 . S
H64 C49 0.929 1_565 S
H65 C51 0.930 . S
Co66 N70 2.148 . S
Co66 N76 2.128 . S
Co66 N86 2.194 . S
Co66 O91 2.351 . S
Co66 O92 2.155 . S
Co66 O93 2.096 . S
C67 N70 1.301 . S
C67 N71 1.328 . S
C67 H72 0.930 . S
C68 C69 1.333 . S
C68 N70 1.317 . S
C68 H73 0.930 . S
C69 C68 1.333 . S
C69 N71 1.350 . S
C69 H95 0.931 . S
N70 Co66 2.148 . S
N70 C67 1.301 . S
N70 C68 1.317 . S
N71 C67 1.328 . S
N71 C69 1.350 . S
H72 C67 0.930 . S
H73 C68 0.930 . S
C74 O75 1.224 1_655 S
C74 O93 1.247 . S
O75 C74 1.224 1_455 S
N76 Co66 2.128 . S
N76 C77 1.355 . S
N76 C79 1.311 . S
C77 N76 1.355 . S
C77 C78 1.363 . S
C77 H89 0.929 . S
C78 C77 1.363 . S
C78 N80 1.375 . S
C78 H96 0.931 . S
C79 N76 1.311 . S
C79 N80 1.347 . S
C79 H90 0.929 . S
N80 C78 1.375 . S
N80 C79 1.347 . S
C81 C84 1.365 . S
C81 N86 1.328 . S
C81 H87 0.929 . S
C82 C83 1.362 . S
C82 C85 1.378 . S
C82 H97 0.929 1_655 S
C83 C82 1.362 . S
C83 C84 1.366 . S
C84 C81 1.365 . S
C84 C83 1.366 . S
C84 H98 0.930 . S
C85 C82 1.378 . S
C85 N86 1.315 . S
C85 H88 0.930 . S
N86 Co66 2.194 . S
N86 C81 1.328 . S
N86 C85 1.315 . S
H87 C81 0.929 . S
H88 C85 0.930 . S
H89 C77 0.929 . S
H90 C79 0.929 . S
O91 Co66 2.351 . S
O91 C94 1.244 . S
O92 Co66 2.155 . S
O92 C94 1.240 . S
O93 Co66 2.096 . S
O93 C74 1.247 . S
C94 O91 1.244 . S
C94 O92 1.240 . S
H95 C69 0.931 . S
H96 C78 0.931 . S
H97 C82 0.929 1_455 S
H98 C84 0.930 . S
Co99 N103 2.148 . S
Co99 N109 2.128 . S
Co99 N119 2.194 . S
Co99 O124 2.351 . S
Co99 O125 2.155 . S
Co99 O126 2.096 . S
C100 N103 1.301 . S
C100 N104 1.328 . S
C100 H105 0.930 . S
C101 C102 1.333 . S
C101 N103 1.317 . S
C101 H106 0.930 . S
C102 C101 1.333 . S
C102 N104 1.350 . S
C102 H128 0.931 . S
N103 Co99 2.148 . S
N103 C100 1.301 . S
N103 C101 1.317 . S
N104 C100 1.328 . S
N104 C102 1.350 . S
H105 C100 0.930 . S
H106 C101 0.930 . S
C107 O108 1.224 1_565 S
C107 O126 1.247 . S
O108 C107 1.224 1_545 S
N109 Co99 2.128 . S
N109 C110 1.355 . S
N109 C112 1.311 . S
C110 N109 1.355 . S
C110 C111 1.363 . S
C110 H122 0.929 . S
C111 C110 1.363 . S
C111 N113 1.375 . S
C111 H129 0.931 . S
C112 N109 1.311 . S
C112 N113 1.347 . S
C112 H123 0.929 . S
N113 C111 1.375 . S
N113 C112 1.347 . S
C114 C117 1.365 . S
C114 N119 1.328 . S
C114 H120 0.929 . S
C115 C116 1.362 . S
C115 C118 1.378 . S
C115 H130 0.929 1_565 S
C116 C115 1.362 . S
C116 C117 1.366 . S
C117 C114 1.365 . S
C117 C116 1.366 . S
C117 H131 0.930 . S
C118 C115 1.378 . S
C118 N119 1.315 . S
C118 H121 0.930 . S
N119 Co99 2.194 . S
N119 C114 1.328 . S
N119 C118 1.315 . S
H120 C114 0.929 . S
H121 C118 0.930 . S
H122 C110 0.929 . S
H123 C112 0.929 . S
O124 Co99 2.351 . S
O124 C127 1.244 . S
O125 Co99 2.155 . S
O125 C127 1.240 . S
O126 Co99 2.096 . S
O126 C107 1.247 . S
C127 O124 1.244 . S
C127 O125 1.240 . S
H128 C102 0.931 . S
H129 C111 0.931 . S
H130 C115 0.929 1_545 S
H131 C117 0.930 . S
Co132 N136 2.148 . S
Co132 N142 2.128 . S
Co132 N152 2.194 . S
Co132 O157 2.351 . S
Co132 O158 2.155 . S
Co132 O159 2.096 . S
C133 N136 1.301 . S
C133 N137 1.328 . S
C133 H138 0.930 . S
C134 C135 1.333 . S
C134 N136 1.317 . S
C134 H139 0.930 . S
C135 C134 1.333 . S
C135 N137 1.350 . S
C135 H161 0.931 . S
N136 Co132 2.148 . S
N136 C133 1.301 . S
N136 C134 1.317 . S
N137 C133 1.328 . S
N137 C135 1.350 . S
H138 C133 0.930 . S
H139 C134 0.930 . S
C140 O141 1.224 . S
C140 O159 1.247 . S
O141 C140 1.224 . S
N142 Co132 2.128 . S
N142 C143 1.355 . S
N142 C145 1.311 . S
C143 N142 1.355 . S
C143 C144 1.363 . S
C143 H155 0.929 . S
C144 C143 1.363 . S
C144 N146 1.375 . S
C144 H162 0.931 . S
C145 N142 1.311 . S
C145 N146 1.347 . S
C145 H156 0.929 . S
N146 C144 1.375 . S
N146 C145 1.347 . S
C147 C150 1.365 . S
C147 N152 1.328 . S
C147 H153 0.929 . S
C148 C149 1.362 . S
C148 C151 1.378 . S
C148 H163 0.929 . S
C149 C148 1.362 . S
C149 C150 1.366 . S
C150 C147 1.365 . S
C150 C149 1.366 . S
C150 H164 0.930 . S
C151 C148 1.378 . S
C151 N152 1.315 . S
C151 H154 0.930 . S
N152 Co132 2.194 . S
N152 C147 1.328 . S
N152 C151 1.315 . S
H153 C147 0.929 . S
H154 C151 0.930 . S
H155 C143 0.929 . S
H156 C145 0.929 . S
O157 Co132 2.351 . S
O157 C160 1.244 . S
O158 Co132 2.155 . S
O158 C160 1.240 . S
O159 Co132 2.096 . S
O159 C140 1.247 . S
C160 O157 1.244 . S
C160 O158 1.240 . S
H161 C135 0.931 . S
H162 C144 0.931 . S
H163 C148 0.929 . S
H164 C150 0.930 . S
Co165 N169 2.148 . S
Co165 N175 2.128 . S
Co165 N185 2.194 . S
Co165 O190 2.351 . S
Co165 O191 2.155 . S
Co165 O192 2.096 . S
C166 N169 1.301 . S
C166 N170 1.328 . S
C166 H171 0.930 . S
C167 C168 1.333 . S
C167 N169 1.317 . S
C167 H172 0.930 . S
C168 C167 1.333 . S
C168 N170 1.350 . S
C168 H194 0.931 . S
N169 Co165 2.148 . S
N169 C166 1.301 . S
N169 C167 1.317 . S
N170 C166 1.328 . S
N170 C168 1.350 . S
H171 C166 0.930 . S
H172 C167 0.930 . S
C173 O174 1.224 . S
C173 O192 1.247 . S
O174 C173 1.224 . S
N175 Co165 2.128 . S
N175 C176 1.355 . S
N175 C178 1.311 . S
C176 N175 1.355 . S
C176 C177 1.363 . S
C176 H188 0.929 . S
C177 C176 1.363 . S
C177 N179 1.375 . S
C177 H195 0.931 . S
C178 N175 1.311 . S
C178 N179 1.347 . S
C178 H189 0.929 . S
N179 C177 1.375 . S
N179 C178 1.347 . S
C180 C183 1.365 . S
C180 N185 1.328 . S
C180 H186 0.929 . S
C181 C182 1.362 . S
C181 C184 1.378 . S
C181 H196 0.929 . S
C182 C181 1.362 . S
C182 C183 1.366 . S
C183 C180 1.365 . S
C183 C182 1.366 . S
C183 H197 0.930 . S
C184 C181 1.378 . S
C184 N185 1.315 . S
C184 H187 0.930 . S
N185 Co165 2.194 . S
N185 C180 1.328 . S
N185 C184 1.315 . S
H186 C180 0.929 . S
H187 C184 0.930 . S
H188 C176 0.929 . S
H189 C178 0.929 . S
O190 Co165 2.351 . S
O190 C193 1.244 . S
O191 Co165 2.155 . S
O191 C193 1.240 . S
O192 Co165 2.096 . S
O192 C173 1.247 . S
C193 O190 1.244 . S
C193 O191 1.240 . S
H194 C168 0.931 . S
H195 C177 0.931 . S
H196 C181 0.929 . S
H197 C183 0.930 . S
Co198 N202 2.148 . S
Co198 N208 2.128 . S
Co198 N218 2.194 . S
Co198 O223 2.351 . S
Co198 O224 2.155 . S
Co198 O225 2.096 . S
C199 N202 1.301 . S
C199 N203 1.328 . S
C199 H204 0.930 . S
C200 C201 1.333 . S
C200 N202 1.317 . S
C200 H205 0.930 . S
C201 C200 1.333 . S
C201 N203 1.350 . S
C201 H227 0.931 . S
N202 Co198 2.148 . S
N202 C199 1.301 . S
N202 C200 1.317 . S
N203 C199 1.328 . S
N203 C201 1.350 . S
H204 C199 0.930 . S
H205 C200 0.930 . S
C206 O207 1.224 . S
C206 O225 1.247 . S
O207 C206 1.224 . S
N208 Co198 2.128 . S
N208 C209 1.355 . S
N208 C211 1.311 . S
C209 N208 1.355 . S
C209 C210 1.363 . S
C209 H221 0.929 . S
C210 C209 1.363 . S
C210 N212 1.375 . S
C210 H228 0.931 . S
C211 N208 1.311 . S
C211 N212 1.347 . S
C211 H222 0.929 . S
N212 C210 1.375 . S
N212 C211 1.347 . S
C213 C216 1.365 . S
C213 N218 1.328 . S
C213 H219 0.929 . S
C214 C215 1.362 . S
C214 C217 1.378 . S
C214 H229 0.929 . S
C215 C214 1.362 . S
C215 C216 1.366 . S
C216 C213 1.365 . S
C216 C215 1.366 . S
C216 H230 0.930 . S
C217 C214 1.378 . S
C217 N218 1.315 . S
C217 H220 0.930 . S
N218 Co198 2.194 . S
N218 C213 1.328 . S
N218 C217 1.315 . S
H219 C213 0.929 . S
H220 C217 0.930 . S
H221 C209 0.929 . S
H222 C211 0.929 . S
O223 Co198 2.351 . S
O223 C226 1.244 . S
O224 Co198 2.155 . S
O224 C226 1.240 . S
O225 Co198 2.096 . S
O225 C206 1.247 . S
C226 O223 1.244 . S
C226 O224 1.240 . S
H227 C201 0.931 . S
H228 C210 0.931 . S
H229 C214 0.929 . S
H230 C216 0.930 . S
Co231 N235 2.148 . S
Co231 N241 2.128 . S
Co231 N251 2.194 . S
Co231 O256 2.351 . S
Co231 O257 2.155 . S
Co231 O258 2.096 . S
C232 N235 1.301 . S
C232 N236 1.328 . S
C232 H237 0.930 . S
C233 C234 1.333 . S
C233 N235 1.317 . S
C233 H238 0.930 . S
C234 C233 1.333 . S
C234 N236 1.350 . S
C234 H260 0.931 . S
N235 Co231 2.148 . S
N235 C232 1.301 . S
N235 C233 1.317 . S
N236 C232 1.328 . S
N236 C234 1.350 . S
H237 C232 0.930 . S
H238 C233 0.930 . S
C239 O240 1.224 . S
C239 O258 1.247 . S
O240 C239 1.224 . S
N241 Co231 2.128 . S
N241 C242 1.355 . S
N241 C244 1.311 . S
C242 N241 1.355 . S
C242 C243 1.363 . S
C242 H254 0.929 . S
C243 C242 1.363 . S
C243 N245 1.375 . S
C243 H261 0.931 . S
C244 N241 1.311 . S
C244 N245 1.347 . S
C244 H255 0.929 . S
N245 C243 1.375 . S
N245 C244 1.347 . S
C246 C249 1.365 . S
C246 N251 1.328 . S
C246 H252 0.929 . S
C247 C248 1.362 . S
C247 C250 1.378 . S
C247 H262 0.929 . S
C248 C247 1.362 . S
C248 C249 1.366 . S
C249 C246 1.365 . S
C249 C248 1.366 . S
C249 H263 0.930 . S
C250 C247 1.378 . S
C250 N251 1.315 . S
C250 H253 0.930 . S
N251 Co231 2.194 . S
N251 C246 1.328 . S
N251 C250 1.315 . S
H252 C246 0.929 . S
H253 C250 0.930 . S
H254 C242 0.929 . S
H255 C244 0.929 . S
O256 Co231 2.351 . S
O256 C259 1.244 . S
O257 Co231 2.155 . S
O257 C259 1.240 . S
O258 Co231 2.096 . S
O258 C239 1.247 . S
C259 O256 1.244 . S
C259 O257 1.240 . S
H260 C234 0.931 . S
H261 C243 0.931 . S
H262 C247 0.929 . S
H263 C249 0.930 . S
Co264 N268 2.148 . S
Co264 N274 2.128 . S
Co264 N284 2.194 . S
Co264 O289 2.351 . S
Co264 O290 2.155 . S
Co264 O291 2.096 . S
C265 N268 1.301 . S
C265 N269 1.328 . S
C265 H270 0.930 . S
C266 C267 1.333 . S
C266 N268 1.317 . S
C266 H271 0.930 . S
C267 C266 1.333 . S
C267 N269 1.350 . S
C267 H293 0.931 . S
N268 Co264 2.148 . S
N268 C265 1.301 . S
N268 C266 1.317 . S
N269 C265 1.328 . S
N269 C267 1.350 . S
H270 C265 0.930 . S
H271 C266 0.930 . S
C272 O273 1.224 1_655 S
C272 O291 1.247 . S
O273 C272 1.224 1_455 S
N274 Co264 2.128 . S
N274 C275 1.355 . S
N274 C277 1.311 . S
C275 N274 1.355 . S
C275 C276 1.363 . S
C275 H287 0.929 . S
C276 C275 1.363 . S
C276 N278 1.375 . S
C276 H294 0.931 . S
C277 N274 1.311 . S
C277 N278 1.347 . S
C277 H288 0.929 . S
N278 C276 1.375 . S
N278 C277 1.347 . S
C279 C282 1.365 . S
C279 N284 1.328 . S
C279 H285 0.929 . S
C280 C281 1.362 . S
C280 C283 1.378 . S
C280 H295 0.929 1_655 S
C281 C280 1.362 . S
C281 C282 1.366 . S
C282 C279 1.365 . S
C282 C281 1.366 . S
C282 H296 0.930 . S
C283 C280 1.378 . S
C283 N284 1.315 . S
C283 H286 0.930 . S
N284 Co264 2.194 . S
N284 C279 1.328 . S
N284 C283 1.315 . S
H285 C279 0.929 . S
H286 C283 0.930 . S
H287 C275 0.929 . S
H288 C277 0.929 . S
O289 Co264 2.351 . S
O289 C292 1.244 . S
O290 Co264 2.155 . S
O290 C292 1.240 . S
O291 Co264 2.096 . S
O291 C272 1.247 . S
C292 O289 1.244 . S
C292 O290 1.240 . S
H293 C267 0.931 . S
H294 C276 0.931 . S
H295 C280 0.929 1_455 S
H296 C282 0.930 . S
Co297 N301 2.148 . S
Co297 N307 2.128 . S
Co297 N317 2.194 . S
Co297 O322 2.351 . S
Co297 O323 2.155 . S
Co297 O324 2.096 . S
C298 N301 1.301 . S
C298 N302 1.328 . S
C298 H303 0.930 . S
C299 C300 1.333 . S
C299 N301 1.317 . S
C299 H304 0.930 . S
C300 C299 1.333 . S
C300 N302 1.350 . S
C300 H326 0.931 . S
N301 Co297 2.148 . S
N301 C298 1.301 . S
N301 C299 1.317 . S
N302 C298 1.328 . S
N302 C300 1.350 . S
H303 C298 0.930 . S
H304 C299 0.930 . S
C305 O306 1.224 1_565 S
C305 O324 1.247 . S
O306 C305 1.224 1_545 S
N307 Co297 2.128 . S
N307 C308 1.355 . S
N307 C310 1.311 . S
C308 N307 1.355 . S
C308 C309 1.363 . S
C308 H320 0.929 . S
C309 C308 1.363 . S
C309 N311 1.375 . S
C309 H327 0.931 . S
C310 N307 1.311 . S
C310 N311 1.347 . S
C310 H321 0.929 . S
N311 C309 1.375 . S
N311 C310 1.347 . S
C312 C315 1.365 . S
C312 N317 1.328 . S
C312 H318 0.929 . S
C313 C314 1.362 . S
C313 C316 1.378 . S
C313 H328 0.929 1_565 S
C314 C313 1.362 . S
C314 C315 1.366 . S
C315 C312 1.365 . S
C315 C314 1.366 . S
C315 H329 0.930 . S
C316 C313 1.378 . S
C316 N317 1.315 . S
C316 H319 0.930 . S
N317 Co297 2.194 . S
N317 C312 1.328 . S
N317 C316 1.315 . S
H318 C312 0.929 . S
H319 C316 0.930 . S
H320 C308 0.929 . S
H321 C310 0.929 . S
O322 Co297 2.351 . S
O322 C325 1.244 . S
O323 Co297 2.155 . S
O323 C325 1.240 . S
O324 Co297 2.096 . S
O324 C305 1.247 . S
C325 O322 1.244 . S
C325 O323 1.240 . S
H326 C300 0.931 . S
H327 C309 0.931 . S
H328 C313 0.929 1_545 S
H329 C315 0.930 . S
Co330 N334 2.148 . S
Co330 N340 2.128 . S
Co330 N350 2.194 . S
Co330 O355 2.351 . S
Co330 O356 2.155 . S
Co330 O357 2.096 . S
C331 N334 1.301 . S
C331 N335 1.328 . S
C331 H336 0.930 . S
C332 C333 1.333 . S
C332 N334 1.317 . S
C332 H337 0.930 . S
C333 C332 1.333 . S
C333 N335 1.350 . S
C333 H359 0.931 . S
N334 Co330 2.148 . S
N334 C331 1.301 . S
N334 C332 1.317 . S
N335 C331 1.328 . S
N335 C333 1.350 . S
H336 C331 0.930 . S
H337 C332 0.930 . S
C338 O339 1.224 1_455 S
C338 O357 1.247 . S
O339 C338 1.224 1_655 S
N340 Co330 2.128 . S
N340 C341 1.355 . S
N340 C343 1.311 . S
C341 N340 1.355 . S
C341 C342 1.363 . S
C341 H353 0.929 . S
C342 C341 1.363 . S
C342 N344 1.375 . S
C342 H360 0.931 . S
C343 N340 1.311 . S
C343 N344 1.347 . S
C343 H354 0.929 . S
N344 C342 1.375 . S
N344 C343 1.347 . S
C345 C348 1.365 . S
C345 N350 1.328 . S
C345 H351 0.929 . S
C346 C347 1.362 . S
C346 C349 1.378 . S
C346 H361 0.929 1_455 S
C347 C346 1.362 . S
C347 C348 1.366 . S
C348 C345 1.365 . S
C348 C347 1.366 . S
C348 H362 0.930 . S
C349 C346 1.378 . S
C349 N350 1.315 . S
C349 H352 0.930 . S
N350 Co330 2.194 . S
N350 C345 1.328 . S
N350 C349 1.315 . S
H351 C345 0.929 . S
H352 C349 0.930 . S
H353 C341 0.929 . S
H354 C343 0.929 . S
O355 Co330 2.351 . S
O355 C358 1.244 . S
O356 Co330 2.155 . S
O356 C358 1.240 . S
O357 Co330 2.096 . S
O357 C338 1.247 . S
C358 O355 1.244 . S
C358 O356 1.240 . S
H359 C333 0.931 . S
H360 C342 0.931 . S
H361 C346 0.929 1_655 S
H362 C348 0.930 . S
Co363 N367 2.148 . S
Co363 N373 2.128 . S
Co363 N383 2.194 . S
Co363 O388 2.351 . S
Co363 O389 2.155 . S
Co363 O390 2.096 . S
C364 N367 1.301 . S
C364 N368 1.328 . S
C364 H369 0.930 . S
C365 C366 1.333 . S
C365 N367 1.317 . S
C365 H370 0.930 . S
C366 C365 1.333 . S
C366 N368 1.350 . S
C366 H392 0.931 . S
N367 Co363 2.148 . S
N367 C364 1.301 . S
N367 C365 1.317 . S
N368 C364 1.328 . S
N368 C366 1.350 . S
H369 C364 0.930 . S
H370 C365 0.930 . S
C371 O372 1.224 1_545 S
C371 O390 1.247 . S
O372 C371 1.224 1_565 S
N373 Co363 2.128 . S
N373 C374 1.355 . S
N373 C376 1.311 . S
C374 N373 1.355 . S
C374 C375 1.363 . S
C374 H386 0.929 . S
C375 C374 1.363 . S
C375 N377 1.375 . S
C375 H393 0.931 . S
C376 N373 1.311 . S
C376 N377 1.347 . S
C376 H387 0.929 . S
N377 C375 1.375 . S
N377 C376 1.347 . S
C378 C381 1.365 . S
C378 N383 1.328 . S
C378 H384 0.929 . S
C379 C380 1.362 . S
C379 C382 1.378 . S
C379 H394 0.929 1_545 S
C380 C379 1.362 . S
C380 C381 1.366 . S
C381 C378 1.365 . S
C381 C380 1.366 . S
C381 H395 0.930 . S
C382 C379 1.378 . S
C382 N383 1.315 . S
C382 H385 0.930 . S
N383 Co363 2.194 . S
N383 C378 1.328 . S
N383 C382 1.315 . S
H384 C378 0.929 . S
H385 C382 0.930 . S
H386 C374 0.929 . S
H387 C376 0.929 . S
O388 Co363 2.351 . S
O388 C391 1.244 . S
O389 Co363 2.155 . S
O389 C391 1.240 . S
O390 Co363 2.096 . S
O390 C371 1.247 . S
C391 O388 1.244 . S
C391 O389 1.240 . S
H392 C366 0.931 . S
H393 C375 0.931 . S
H394 C379 0.929 1_565 S
H395 C381 0.930 . S
Co396 N400 2.148 . S
Co396 N406 2.128 . S
Co396 N416 2.194 . S
Co396 O421 2.351 . S
Co396 O422 2.155 . S
Co396 O423 2.096 . S
C397 N400 1.301 . S
C397 N401 1.328 . S
C397 H402 0.930 . S
C398 C399 1.333 . S
C398 N400 1.317 . S
C398 H403 0.930 . S
C399 C398 1.333 . S
C399 N401 1.350 . S
C399 H425 0.931 . S
N400 Co396 2.148 . S
N400 C397 1.301 . S
N400 C398 1.317 . S
N401 C397 1.328 . S
N401 C399 1.350 . S
H402 C397 0.930 . S
H403 C398 0.930 . S
C404 O405 1.224 . S
C404 O423 1.247 . S
O405 C404 1.224 . S
N406 Co396 2.128 . S
N406 C407 1.355 . S
N406 C409 1.311 . S
C407 N406 1.355 . S
C407 C408 1.363 . S
C407 H419 0.929 . S
C408 C407 1.363 . S
C408 N410 1.375 . S
C408 H426 0.931 . S
C409 N406 1.311 . S
C409 N410 1.347 . S
C409 H420 0.929 . S
N410 C408 1.375 . S
N410 C409 1.347 . S
C411 C414 1.365 . S
C411 N416 1.328 . S
C411 H417 0.929 . S
C412 C413 1.362 . S
C412 C415 1.378 . S
C412 H427 0.929 . S
C413 C412 1.362 . S
C413 C414 1.366 . S
C414 C411 1.365 . S
C414 C413 1.366 . S
C414 H428 0.930 . S
C415 C412 1.378 . S
C415 N416 1.315 . S
C415 H418 0.930 . S
N416 Co396 2.194 . S
N416 C411 1.328 . S
N416 C415 1.315 . S
H417 C411 0.929 . S
H418 C415 0.930 . S
H419 C407 0.929 . S
H420 C409 0.929 . S
O421 Co396 2.351 . S
O421 C424 1.244 . S
O422 Co396 2.155 . S
O422 C424 1.240 . S
O423 Co396 2.096 . S
O423 C404 1.247 . S
C424 O421 1.244 . S
C424 O422 1.240 . S
H425 C399 0.931 . S
H426 C408 0.931 . S
H427 C412 0.929 . S
H428 C414 0.930 . S
Co429 N433 2.148 . S
Co429 N439 2.128 . S
Co429 N449 2.194 . S
Co429 O454 2.351 . S
Co429 O455 2.155 . S
Co429 O456 2.096 . S
C430 N433 1.301 . S
C430 N434 1.328 . S
C430 H435 0.930 . S
C431 C432 1.333 . S
C431 N433 1.317 . S
C431 H436 0.930 . S
C432 C431 1.333 . S
C432 N434 1.350 . S
C432 H458 0.931 . S
N433 Co429 2.148 . S
N433 C430 1.301 . S
N433 C431 1.317 . S
N434 C430 1.328 . S
N434 C432 1.350 . S
H435 C430 0.930 . S
H436 C431 0.930 . S
C437 O438 1.224 . S
C437 O456 1.247 . S
O438 C437 1.224 . S
N439 Co429 2.128 . S
N439 C440 1.355 . S
N439 C442 1.311 . S
C440 N439 1.355 . S
C440 C441 1.363 . S
C440 H452 0.929 . S
C441 C440 1.363 . S
C441 N443 1.375 . S
C441 H459 0.931 . S
C442 N439 1.311 . S
C442 N443 1.347 . S
C442 H453 0.929 . S
N443 C441 1.375 . S
N443 C442 1.347 . S
C444 C447 1.365 . S
C444 N449 1.328 . S
C444 H450 0.929 . S
C445 C446 1.362 . S
C445 C448 1.378 . S
C445 H460 0.929 . S
C446 C445 1.362 . S
C446 C447 1.366 . S
C447 C444 1.365 . S
C447 C446 1.366 . S
C447 H461 0.930 . S
C448 C445 1.378 . S
C448 N449 1.315 . S
C448 H451 0.930 . S
N449 Co429 2.194 . S
N449 C444 1.328 . S
N449 C448 1.315 . S
H450 C444 0.929 . S
H451 C448 0.930 . S
H452 C440 0.929 . S
H453 C442 0.929 . S
O454 Co429 2.351 . S
O454 C457 1.244 . S
O455 Co429 2.155 . S
O455 C457 1.240 . S
O456 Co429 2.096 . S
O456 C437 1.247 . S
C457 O454 1.244 . S
C457 O455 1.240 . S
H458 C432 0.931 . S
H459 C441 0.931 . S
H460 C445 0.929 . S
H461 C447 0.930 . S
Co462 N466 2.148 . S
Co462 N472 2.128 . S
Co462 N482 2.194 . S
Co462 O487 2.351 . S
Co462 O488 2.155 . S
Co462 O489 2.096 . S
C463 N466 1.301 . S
C463 N467 1.328 . S
C463 H468 0.930 . S
C464 C465 1.333 . S
C464 N466 1.317 . S
C464 H469 0.930 . S
C465 C464 1.333 . S
C465 N467 1.350 . S
C465 H491 0.931 . S
N466 Co462 2.148 . S
N466 C463 1.301 . S
N466 C464 1.317 . S
N467 C463 1.328 . S
N467 C465 1.350 . S
H468 C463 0.930 . S
H469 C464 0.930 . S
C470 O471 1.224 . S
C470 O489 1.247 . S
O471 C470 1.224 . S
N472 Co462 2.128 . S
N472 C473 1.355 . S
N472 C475 1.311 . S
C473 N472 1.355 . S
C473 C474 1.363 . S
C473 H485 0.929 . S
C474 C473 1.363 . S
C474 N476 1.375 . S
C474 H492 0.931 . S
C475 N472 1.311 . S
C475 N476 1.347 . S
C475 H486 0.929 . S
N476 C474 1.375 . S
N476 C475 1.347 . S
C477 C480 1.365 . S
C477 N482 1.328 . S
C477 H483 0.929 . S
C478 C479 1.362 . S
C478 C481 1.378 . S
C478 H493 0.929 . S
C479 C478 1.362 . S
C479 C480 1.366 . S
C480 C477 1.365 . S
C480 C479 1.366 . S
C480 H494 0.930 . S
C481 C478 1.378 . S
C481 N482 1.315 . S
C481 H484 0.930 . S
N482 Co462 2.194 . S
N482 C477 1.328 . S
N482 C481 1.315 . S
H483 C477 0.929 . S
H484 C481 0.930 . S
H485 C473 0.929 . S
H486 C475 0.929 . S
O487 Co462 2.351 . S
O487 C490 1.244 . S
O488 Co462 2.155 . S
O488 C490 1.240 . S
O489 Co462 2.096 . S
O489 C470 1.247 . S
C490 O487 1.244 . S
C490 O488 1.240 . S
H491 C465 0.931 . S
H492 C474 0.931 . S
H493 C478 0.929 . S
H494 C480 0.930 . S
Co495 N499 2.148 . S
Co495 N505 2.128 . S
Co495 N515 2.194 . S
Co495 O520 2.351 . S
Co495 O521 2.155 . S
Co495 O522 2.096 . S
C496 N499 1.301 . S
C496 N500 1.328 . S
C496 H501 0.930 . S
C497 C498 1.333 . S
C497 N499 1.317 . S
C497 H502 0.930 . S
C498 C497 1.333 . S
C498 N500 1.350 . S
C498 H524 0.931 . S
N499 Co495 2.148 . S
N499 C496 1.301 . S
N499 C497 1.317 . S
N500 C496 1.328 . S
N500 C498 1.350 . S
H501 C496 0.930 . S
H502 C497 0.930 . S
C503 O504 1.224 . S
C503 O522 1.247 . S
O504 C503 1.224 . S
N505 Co495 2.128 . S
N505 C506 1.355 . S
N505 C508 1.311 . S
C506 N505 1.355 . S
C506 C507 1.363 . S
C506 H518 0.929 . S
C507 C506 1.363 . S
C507 N509 1.375 . S
C507 H525 0.931 . S
C508 N505 1.311 . S
C508 N509 1.347 . S
C508 H519 0.929 . S
N509 C507 1.375 . S
N509 C508 1.347 . S
C510 C513 1.365 . S
C510 N515 1.328 . S
C510 H516 0.929 . S
C511 C512 1.362 . S
C511 C514 1.378 . S
C511 H526 0.929 . S
C512 C511 1.362 . S
C512 C513 1.366 . S
C513 C510 1.365 . S
C513 C512 1.366 . S
C513 H527 0.930 . S
C514 C511 1.378 . S
C514 N515 1.315 . S
C514 H517 0.930 . S
N515 Co495 2.194 . S
N515 C510 1.328 . S
N515 C514 1.315 . S
H516 C510 0.929 . S
H517 C514 0.930 . S
H518 C506 0.929 . S
H519 C508 0.929 . S
O520 Co495 2.351 . S
O520 C523 1.244 . S
O521 Co495 2.155 . S
O521 C523 1.240 . S
O522 Co495 2.096 . S
O522 C503 1.247 . S
C523 O520 1.244 . S
C523 O521 1.240 . S
H524 C498 0.931 . S
H525 C507 0.931 . S
H526 C511 0.929 . S
H527 C513 0.930 . S
H528 C540 0.930 . S
H529 C542 0.930 . S
H530 C543 0.930 . S
H531 C547 0.959 . S
H532 C547 0.959 . S
H533 C547 0.961 . S
H534 C548 0.960 . S
H535 C548 0.961 . S
H536 C548 0.959 . S
H537 C551 0.929 . S
H538 C552 0.931 . S
H539 C554 0.930 . S
C540 H528 0.930 . S
C540 C541 1.399 . S
C540 C545 1.399 . S
C541 C540 1.399 . S
C541 C542 1.376 . S
C542 H529 0.930 . S
C542 C541 1.376 . S
C542 C543 1.388 . S
C543 H530 0.930 . S
C543 C542 1.388 . S
C543 C544 1.390 . S
C544 C543 1.390 . S
C544 C545 1.394 . S
C544 C550 1.465 . S
C545 C540 1.399 . S
C545 C544 1.394 . S
C545 C546 1.516 . S
C546 C545 1.516 . S
C546 C547 1.502 . S
C546 C548 1.561 . S
C546 C549 1.526 . S
C547 H531 0.959 . S
C547 H532 0.959 . S
C547 H533 0.961 . S
C547 C546 1.502 . S
C548 H534 0.960 . S
C548 H535 0.961 . S
C548 H536 0.959 . S
C548 C546 1.561 . S
C549 C546 1.526 . S
C549 C550 1.396 . S
C549 C554 1.390 . S
C550 C544 1.465 . S
C550 C549 1.396 . S
C550 C551 1.399 . S
C551 H537 0.929 . S
C551 C550 1.399 . S
C551 C552 1.385 . S
C552 H538 0.931 . S
C552 C551 1.385 . S
C552 C553 1.389 . S
C553 C552 1.389 . S
C553 C554 1.387 . S
C554 H539 0.930 . S
C554 C549 1.390 . S
C554 C553 1.387 . S
H555 C567 0.930 . S
H556 C569 0.930 . S
H557 C570 0.930 . S
H558 C574 0.959 . S
H559 C574 0.959 . S
H560 C574 0.961 . S
H561 C575 0.960 . S
H562 C575 0.961 . S
H563 C575 0.959 . S
H564 C578 0.929 . S
H565 C579 0.931 . S
H566 C581 0.930 . S
C567 H555 0.930 . S
C567 C568 1.399 . S
C567 C572 1.399 . S
C568 C567 1.399 . S
C568 C569 1.376 . S
C569 H556 0.930 . S
C569 C568 1.376 . S
C569 C570 1.388 . S
C570 H557 0.930 . S
C570 C569 1.388 . S
C570 C571 1.390 . S
C571 C570 1.390 . S
C571 C572 1.394 . S
C571 C577 1.465 . S
C572 C567 1.399 . S
C572 C571 1.394 . S
C572 C573 1.516 . S
C573 C572 1.516 . S
C573 C574 1.502 . S
C573 C575 1.561 . S
C573 C576 1.526 . S
C574 H558 0.959 . S
C574 H559 0.959 . S
C574 H560 0.961 . S
C574 C573 1.502 . S
C575 H561 0.960 . S
C575 H562 0.961 . S
C575 H563 0.959 . S
C575 C573 1.561 . S
C576 C573 1.526 . S
C576 C577 1.396 . S
C576 C581 1.390 . S
C577 C571 1.465 . S
C577 C576 1.396 . S
C577 C578 1.399 . S
C578 H564 0.929 . S
C578 C577 1.399 . S
C578 C579 1.385 . S
C579 H565 0.931 . S
C579 C578 1.385 . S
C579 C580 1.389 . S
C580 C579 1.389 . S
C580 C581 1.387 . S
C581 H566 0.930 . S
C581 C576 1.390 . S
C581 C580 1.387 . S
H582 C594 0.930 . S
H583 C596 0.930 . S
H584 C597 0.930 . S
H585 C601 0.959 . S
H586 C601 0.959 . S
H587 C601 0.961 . S
H588 C602 0.960 . S
H589 C602 0.961 . S
H590 C602 0.959 . S
H591 C605 0.929 . S
H592 C606 0.931 . S
H593 C608 0.930 . S
C594 H582 0.930 . S
C594 C595 1.399 . S
C594 C599 1.399 . S
C595 C594 1.399 . S
C595 C596 1.376 . S
C596 H583 0.930 . S
C596 C595 1.376 . S
C596 C597 1.388 . S
C597 H584 0.930 . S
C597 C596 1.388 . S
C597 C598 1.390 . S
C598 C597 1.390 . S
C598 C599 1.394 . S
C598 C604 1.465 . S
C599 C594 1.399 . S
C599 C598 1.394 . S
C599 C600 1.516 . S
C600 C599 1.516 . S
C600 C601 1.502 . S
C600 C602 1.561 . S
C600 C603 1.526 . S
C601 H585 0.959 . S
C601 H586 0.959 . S
C601 H587 0.961 . S
C601 C600 1.502 . S
C602 H588 0.960 . S
C602 H589 0.961 . S
C602 H590 0.959 . S
C602 C600 1.561 . S
C603 C600 1.526 . S
C603 C604 1.396 . S
C603 C608 1.390 . S
C604 C598 1.465 . S
C604 C603 1.396 . S
C604 C605 1.399 . S
C605 H591 0.929 . S
C605 C604 1.399 . S
C605 C606 1.385 . S
C606 H592 0.931 . S
C606 C605 1.385 . S
C606 C607 1.389 . S
C607 C606 1.389 . S
C607 C608 1.387 . S
C608 H593 0.930 . S
C608 C603 1.390 . S
C608 C607 1.387 . S
H609 C621 0.930 . S
H610 C623 0.930 . S
H611 C624 0.930 . S
H612 C628 0.959 . S
H613 C628 0.959 . S
H614 C628 0.961 . S
H615 C629 0.960 . S
H616 C629 0.961 . S
H617 C629 0.959 . S
H618 C632 0.929 . S
H619 C633 0.931 . S
H620 C635 0.930 . S
C621 H609 0.930 . S
C621 C622 1.399 . S
C621 C626 1.399 . S
C622 C621 1.399 . S
C622 C623 1.376 . S
C623 H610 0.930 . S
C623 C622 1.376 . S
C623 C624 1.388 . S
C624 H611 0.930 . S
C624 C623 1.388 . S
C624 C625 1.390 . S
C625 C624 1.390 . S
C625 C626 1.394 . S
C625 C631 1.465 . S
C626 C621 1.399 . S
C626 C625 1.394 . S
C626 C627 1.516 . S
C627 C626 1.516 . S
C627 C628 1.502 . S
C627 C629 1.561 . S
C627 C630 1.526 . S
C628 H612 0.959 . S
C628 H613 0.959 . S
C628 H614 0.961 . S
C628 C627 1.502 . S
C629 H615 0.960 . S
C629 H616 0.961 . S
C629 H617 0.959 . S
C629 C627 1.561 . S
C630 C627 1.526 . S
C630 C631 1.396 . S
C630 C635 1.390 . S
C631 C625 1.465 . S
C631 C630 1.396 . S
C631 C632 1.399 . S
C632 H618 0.929 . S
C632 C631 1.399 . S
C632 C633 1.385 . S
C633 H619 0.931 . S
C633 C632 1.385 . S
C633 C634 1.389 . S
C634 C633 1.389 . S
C634 C635 1.387 . S
C635 H620 0.930 . S
C635 C630 1.390 . S
C635 C634 1.387 . S
H636 C648 0.930 . S
H637 C650 0.930 . S
H638 C651 0.930 . S
H639 C655 0.959 . S
H640 C655 0.959 . S
H641 C655 0.961 . S
H642 C656 0.960 . S
H643 C656 0.961 . S
H644 C656 0.959 . S
H645 C659 0.929 . S
H646 C660 0.931 . S
H647 C662 0.930 . S
C648 H636 0.930 . S
C648 C649 1.399 . S
C648 C653 1.399 . S
C649 C648 1.399 . S
C649 C650 1.376 . S
C650 H637 0.930 . S
C650 C649 1.376 . S
C650 C651 1.388 . S
C651 H638 0.930 . S
C651 C650 1.388 . S
C651 C652 1.390 . S
C652 C651 1.390 . S
C652 C653 1.394 . S
C652 C658 1.465 . S
C653 C648 1.399 . S
C653 C652 1.394 . S
C653 C654 1.516 . S
C654 C653 1.516 . S
C654 C655 1.502 . S
C654 C656 1.561 . S
C654 C657 1.526 . S
C655 H639 0.959 . S
C655 H640 0.959 . S
C655 H641 0.961 . S
C655 C654 1.502 . S
C656 H642 0.960 . S
C656 H643 0.961 . S
C656 H644 0.959 . S
C656 C654 1.561 . S
C657 C654 1.526 . S
C657 C658 1.396 . S
C657 C662 1.390 . S
C658 C652 1.465 . S
C658 C657 1.396 . S
C658 C659 1.399 . S
C659 H645 0.929 . S
C659 C658 1.399 . S
C659 C660 1.385 . S
C660 H646 0.931 . S
C660 C659 1.385 . S
C660 C661 1.389 . S
C661 C660 1.389 . S
C661 C662 1.387 . S
C662 H647 0.930 . S
C662 C657 1.390 . S
C662 C661 1.387 . S
H663 C675 0.930 . S
H664 C677 0.930 . S
H665 C678 0.930 . S
H666 C682 0.959 . S
H667 C682 0.959 . S
H668 C682 0.961 . S
H669 C683 0.960 . S
H670 C683 0.961 . S
H671 C683 0.959 . S
H672 C686 0.929 . S
H673 C687 0.931 . S
H674 C689 0.930 . S
C675 H663 0.930 . S
C675 C676 1.399 . S
C675 C680 1.399 . S
C676 C675 1.399 . S
C676 C677 1.376 . S
C677 H664 0.930 . S
C677 C676 1.376 . S
C677 C678 1.388 . S
C678 H665 0.930 . S
C678 C677 1.388 . S
C678 C679 1.390 . S
C679 C678 1.390 . S
C679 C680 1.394 . S
C679 C685 1.465 . S
C680 C675 1.399 . S
C680 C679 1.394 . S
C680 C681 1.516 . S
C681 C680 1.516 . S
C681 C682 1.502 . S
C681 C683 1.561 . S
C681 C684 1.526 . S
C682 H666 0.959 . S
C682 H667 0.959 . S
C682 H668 0.961 . S
C682 C681 1.502 . S
C683 H669 0.960 . S
C683 H670 0.961 . S
C683 H671 0.959 . S
C683 C681 1.561 . S
C684 C681 1.526 . S
C684 C685 1.396 . S
C684 C689 1.390 . S
C685 C679 1.465 . S
C685 C684 1.396 . S
C685 C686 1.399 . S
C686 H672 0.929 . S
C686 C685 1.399 . S
C686 C687 1.385 . S
C687 H673 0.931 . S
C687 C686 1.385 . S
C687 C688 1.389 . S
C688 C687 1.389 . S
C688 C689 1.387 . S
C689 H674 0.930 . S
C689 C684 1.390 . S
C689 C688 1.387 . S
H690 C702 0.930 . S
H691 C704 0.930 . S
H692 C705 0.930 . S
H693 C709 0.959 . S
H694 C709 0.959 . S
H695 C709 0.961 . S
H696 C710 0.960 . S
H697 C710 0.961 . S
H698 C710 0.959 . S
H699 C713 0.929 . S
H700 C714 0.931 . S
H701 C716 0.930 . S
C702 H690 0.930 . S
C702 C703 1.399 . S
C702 C707 1.399 . S
C703 C702 1.399 . S
C703 C704 1.376 . S
C704 H691 0.930 . S
C704 C703 1.376 . S
C704 C705 1.388 . S
C705 H692 0.930 . S
C705 C704 1.388 . S
C705 C706 1.390 . S
C706 C705 1.390 . S
C706 C707 1.394 . S
C706 C712 1.465 . S
C707 C702 1.399 . S
C707 C706 1.394 . S
C707 C708 1.516 . S
C708 C707 1.516 . S
C708 C709 1.502 . S
C708 C710 1.561 . S
C708 C711 1.526 . S
C709 H693 0.959 . S
C709 H694 0.959 . S
C709 H695 0.961 . S
C709 C708 1.502 . S
C710 H696 0.960 . S
C710 H697 0.961 . S
C710 H698 0.959 . S
C710 C708 1.561 . S
C711 C708 1.526 . S
C711 C712 1.396 . S
C711 C716 1.390 . S
C712 C706 1.465 . S
C712 C711 1.396 . S
C712 C713 1.399 . S
C713 H699 0.929 . S
C713 C712 1.399 . S
C713 C714 1.385 . S
C714 H700 0.931 . S
C714 C713 1.385 . S
C714 C715 1.389 . S
C715 C714 1.389 . S
C715 C716 1.387 . S
C716 H701 0.930 . S
C716 C711 1.390 . S
C716 C715 1.387 . S
H717 C729 0.930 . S
H718 C731 0.930 . S
H719 C732 0.930 . S
H720 C736 0.959 . S
H721 C736 0.959 . S
H722 C736 0.961 . S
H723 C737 0.960 . S
H724 C737 0.961 . S
H725 C737 0.959 . S
H726 C740 0.929 . S
H727 C741 0.931 . S
H728 C743 0.930 . S
C729 H717 0.930 . S
C729 C730 1.399 . S
C729 C734 1.399 . S
C730 C729 1.399 . S
C730 C731 1.376 . S
C731 H718 0.930 . S
C731 C730 1.376 . S
C731 C732 1.388 . S
C732 H719 0.930 . S
C732 C731 1.388 . S
C732 C733 1.390 . S
C733 C732 1.390 . S
C733 C734 1.394 . S
C733 C739 1.465 . S
C734 C729 1.399 . S
C734 C733 1.394 . S
C734 C735 1.516 . S
C735 C734 1.516 . S
C735 C736 1.502 . S
C735 C737 1.561 . S
C735 C738 1.526 . S
C736 H720 0.959 . S
C736 H721 0.959 . S
C736 H722 0.961 . S
C736 C735 1.502 . S
C737 H723 0.960 . S
C737 H724 0.961 . S
C737 H725 0.959 . S
C737 C735 1.561 . S
C738 C735 1.526 . S
C738 C739 1.396 . S
C738 C743 1.390 . S
C739 C733 1.465 . S
C739 C738 1.396 . S
C739 C740 1.399 . S
C740 H726 0.929 . S
C740 C739 1.399 . S
C740 C741 1.385 . S
C741 H727 0.931 . S
C741 C740 1.385 . S
C741 C742 1.389 . S
C742 C741 1.389 . S
C742 C743 1.387 . S
C743 H728 0.930 . S
C743 C738 1.390 . S
C743 C742 1.387 . S
H744 C756 0.930 . S
H745 C758 0.930 . S
H746 C759 0.930 . S
H747 C763 0.962 . S
H748 C763 0.978 . S
H749 C763 0.941 1_554 S
H750 C764 0.959 1_554 S
H751 C764 0.962 . S
H752 C764 0.959 . S
H753 C767 0.929 . S
H754 C768 0.931 . S
H755 C770 0.930 . S
C756 H744 0.930 . S
C756 C757 1.399 . S
C756 C761 1.399 . S
C757 C756 1.399 . S
C757 C758 1.376 . S
C758 H745 0.930 . S
C758 C757 1.376 . S
C758 C759 1.388 . S
C759 H746 0.930 . S
C759 C758 1.388 . S
C759 C760 1.390 . S
C760 C759 1.390 . S
C760 C761 1.394 . S
C760 C766 1.465 1_554 S
C761 C756 1.399 . S
C761 C760 1.394 . S
C761 C762 1.518 1_554 S
C762 C761 1.518 1_556 S
C762 C763 1.502 1_455 S
C762 C764 1.561 . S
C762 C765 1.524 . S
C763 H747 0.962 . S
C763 H748 0.978 . S
C763 H749 0.941 1_556 S
C763 C762 1.502 1_655 S
C764 H750 0.959 1_556 S
C764 H751 0.962 . S
C764 H752 0.959 . S
C764 C762 1.561 . S
C765 C762 1.524 . S
C765 C766 1.396 . S
C765 C770 1.390 . S
C766 C760 1.465 1_556 S
C766 C765 1.396 . S
C766 C767 1.399 . S
C767 H753 0.929 . S
C767 C766 1.399 . S
C767 C768 1.385 . S
C768 H754 0.931 . S
C768 C767 1.385 . S
C768 C769 1.389 . S
C769 C768 1.389 . S
C769 C770 1.387 . S
C770 H755 0.930 . S
C770 C765 1.390 . S
C770 C769 1.387 . S
H771 C783 0.930 1_565 S
H772 C785 0.930 . S
H773 C786 0.930 . S
H774 C790 0.959 1_545 S
H775 C790 0.959 . S
H776 C790 0.961 . S
H777 C791 0.960 . S
H778 C791 0.961 . S
H779 C791 0.959 . S
H780 C794 0.929 . S
H781 C795 0.931 . S
H782 C797 0.930 1_565 S
C783 H771 0.930 1_545 S
C783 C784 1.399 . S
C783 C788 1.399 . S
C784 C783 1.399 . S
C784 C785 1.376 . S
C785 H772 0.930 . S
C785 C784 1.376 . S
C785 C786 1.388 . S
C786 H773 0.930 . S
C786 C785 1.388 . S
C786 C787 1.390 . S
C787 C786 1.390 . S
C787 C788 1.394 . S
C787 C793 1.465 . S
C788 C783 1.399 . S
C788 C787 1.394 . S
C788 C789 1.516 . S
C789 C788 1.516 . S
C789 C790 1.502 1_545 S
C789 C791 1.561 1_545 S
C789 C792 1.526 . S
C790 H774 0.959 1_565 S
C790 H775 0.959 . S
C790 H776 0.961 . S
C790 C789 1.502 1_565 S
C791 H777 0.960 . S
C791 H778 0.961 . S
C791 H779 0.959 . S
C791 C789 1.561 1_565 S
C792 C789 1.526 . S
C792 C793 1.396 . S
C792 C797 1.390 . S
C793 C787 1.465 . S
C793 C792 1.396 . S
C793 C794 1.399 . S
C794 H780 0.929 . S
C794 C793 1.399 . S
C794 C795 1.385 . S
C795 H781 0.931 . S
C795 C794 1.385 . S
C795 C796 1.389 . S
C796 C795 1.389 . S
C796 C797 1.387 . S
C797 H782 0.930 1_545 S
C797 C792 1.390 . S
C797 C796 1.387 . S
H798 C810 0.930 . S
H799 C812 0.930 . S
H800 C813 0.930 . S
H801 C817 0.962 . S
H802 C817 0.978 . S
H803 C817 0.941 1_556 S
H804 C818 0.959 1_556 S
H805 C818 0.962 . S
H806 C818 0.959 . S
H807 C821 0.929 . S
H808 C822 0.931 . S
H809 C824 0.930 . S
C810 H798 0.930 . S
C810 C811 1.399 . S
C810 C815 1.399 . S
C811 C810 1.399 . S
C811 C812 1.376 . S
C812 H799 0.930 . S
C812 C811 1.376 . S
C812 C813 1.388 . S
C813 H800 0.930 . S
C813 C812 1.388 . S
C813 C814 1.390 . S
C814 C813 1.390 . S
C814 C815 1.394 . S
C814 C820 1.465 1_556 S
C815 C810 1.399 . S
C815 C814 1.394 . S
C815 C816 1.518 1_556 S
C816 C815 1.518 1_554 S
C816 C817 1.502 1_655 S
C816 C818 1.561 . S
C816 C819 1.524 . S
C817 H801 0.962 . S
C817 H802 0.978 . S
C817 H803 0.941 1_554 S
C817 C816 1.502 1_455 S
C818 H804 0.959 1_554 S
C818 H805 0.962 . S
C818 H806 0.959 . S
C818 C816 1.561 . S
C819 C816 1.524 . S
C819 C820 1.396 . S
C819 C824 1.390 . S
C820 C814 1.465 1_554 S
C820 C819 1.396 . S
C820 C821 1.399 . S
C821 H807 0.929 . S
C821 C820 1.399 . S
C821 C822 1.385 . S
C822 H808 0.931 . S
C822 C821 1.385 . S
C822 C823 1.389 . S
C823 C822 1.389 . S
C823 C824 1.387 . S
C824 H809 0.930 . S
C824 C819 1.390 . S
C824 C823 1.387 . S
H825 C837 0.930 . S
H826 C839 0.930 1_545 S
H827 C840 0.930 1_545 S
H828 C844 0.959 . S
H829 C844 0.959 . S
H830 C844 0.961 . S
H831 C845 0.960 . S
H832 C845 0.961 . S
H833 C845 0.959 . S
H834 C848 0.929 1_545 S
H835 C849 0.931 1_545 S
H836 C851 0.930 . S
C837 H825 0.930 . S
C837 C838 1.399 . S
C837 C842 1.399 . S
C838 C837 1.399 . S
C838 C839 1.376 . S
C839 H826 0.930 1_565 S
C839 C838 1.376 . S
C839 C840 1.388 . S
C840 H827 0.930 1_565 S
C840 C839 1.388 . S
C840 C841 1.390 . S
C841 C840 1.390 . S
C841 C842 1.394 . S
C841 C847 1.465 . S
C842 C837 1.399 . S
C842 C841 1.394 . S
C842 C843 1.516 . S
C843 C842 1.516 . S
C843 C844 1.502 . S
C843 C845 1.561 . S
C843 C846 1.526 . S
C844 H828 0.959 . S
C844 H829 0.959 . S
C844 H830 0.961 . S
C844 C843 1.502 . S
C845 H831 0.960 . S
C845 H832 0.961 . S
C845 H833 0.959 . S
C845 C843 1.561 . S
C846 C843 1.526 . S
C846 C847 1.396 . S
C846 C851 1.390 . S
C847 C841 1.465 . S
C847 C846 1.396 . S
C847 C848 1.399 . S
C848 H834 0.929 1_565 S
C848 C847 1.399 . S
C848 C849 1.385 . S
C849 H835 0.931 1_565 S
C849 C848 1.385 . S
C849 C850 1.389 . S
C850 C849 1.389 . S
C850 C851 1.387 . S
C851 H836 0.930 . S
C851 C846 1.390 . S
C851 C850 1.387 . S
H852 C864 0.930 . S
H853 C866 0.930 . S
H854 C867 0.930 . S
H855 C871 0.962 . S
H856 C871 0.978 . S
H857 C871 0.941 1_554 S
H858 C872 0.959 1_554 S
H859 C872 0.962 . S
H860 C872 0.959 . S
H861 C875 0.929 . S
H862 C876 0.931 . S
H863 C878 0.930 . S
C864 H852 0.930 . S
C864 C865 1.399 . S
C864 C869 1.399 . S
C865 C864 1.399 . S
C865 C866 1.376 . S
C866 H853 0.930 . S
C866 C865 1.376 . S
C866 C867 1.388 . S
C867 H854 0.930 . S
C867 C866 1.388 . S
C867 C868 1.390 . S
C868 C867 1.390 . S
C868 C869 1.394 . S
C868 C874 1.465 1_554 S
C869 C864 1.399 . S
C869 C868 1.394 . S
C869 C870 1.518 1_554 S
C870 C869 1.518 1_556 S
C870 C871 1.502 . S
C870 C872 1.561 . S
C870 C873 1.524 . S
C871 H855 0.962 . S
C871 H856 0.978 . S
C871 H857 0.941 1_556 S
C871 C870 1.502 . S
C872 H858 0.959 1_556 S
C872 H859 0.962 . S
C872 H860 0.959 . S
C872 C870 1.561 . S
C873 C870 1.524 . S
C873 C874 1.396 . S
C873 C878 1.390 . S
C874 C868 1.465 1_556 S
C874 C873 1.396 . S
C874 C875 1.399 . S
C875 H861 0.929 . S
C875 C874 1.399 . S
C875 C876 1.385 . S
C876 H862 0.931 . S
C876 C875 1.385 . S
C876 C877 1.389 . S
C877 C876 1.389 . S
C877 C878 1.387 . S
C878 H863 0.930 . S
C878 C873 1.390 . S
C878 C877 1.387 . S
H879 C891 0.930 . S
H880 C893 0.930 . S
H881 C894 0.930 . S
H882 C898 0.959 . S
H883 C898 0.959 . S
H884 C898 0.961 . S
H885 C899 0.960 . S
H886 C899 0.961 . S
H887 C899 0.959 . S
H888 C902 0.929 . S
H889 C903 0.931 . S
H890 C905 0.930 . S
C891 H879 0.930 . S
C891 C892 1.399 . S
C891 C896 1.399 . S
C892 C891 1.399 . S
C892 C893 1.376 . S
C893 H880 0.930 . S
C893 C892 1.376 . S
C893 C894 1.388 . S
C894 H881 0.930 . S
C894 C893 1.388 . S
C894 C895 1.390 . S
C895 C894 1.390 . S
C895 C896 1.394 . S
C895 C901 1.465 . S
C896 C891 1.399 . S
C896 C895 1.394 . S
C896 C897 1.516 . S
C897 C896 1.516 . S
C897 C898 1.502 . S
C897 C899 1.561 . S
C897 C900 1.526 . S
C898 H882 0.959 . S
C898 H883 0.959 . S
C898 H884 0.961 . S
C898 C897 1.502 . S
C899 H885 0.960 . S
C899 H886 0.961 . S
C899 H887 0.959 . S
C899 C897 1.561 . S
C900 C897 1.526 . S
C900 C901 1.396 . S
C900 C905 1.390 . S
C901 C895 1.465 . S
C901 C900 1.396 . S
C901 C902 1.399 . S
C902 H888 0.929 . S
C902 C901 1.399 . S
C902 C903 1.385 . S
C903 H889 0.931 . S
C903 C902 1.385 . S
C903 C904 1.389 . S
C904 C903 1.389 . S
C904 C905 1.387 . S
C905 H890 0.930 . S
C905 C900 1.390 . S
C905 C904 1.387 . S
H906 C918 0.930 . S
H907 C920 0.930 . S
H908 C921 0.930 . S
H909 C925 0.962 . S
H910 C925 0.978 . S
H911 C925 0.941 1_554 S
H912 C926 0.959 1_554 S
H913 C926 0.962 . S
H914 C926 0.959 . S
H915 C929 0.929 . S
H916 C930 0.931 . S
H917 C932 0.930 . S
C918 H906 0.930 . S
C918 C919 1.399 . S
C918 C923 1.399 . S
C919 C918 1.399 . S
C919 C920 1.376 . S
C920 H907 0.930 . S
C920 C919 1.376 . S
C920 C921 1.388 . S
C921 H908 0.930 . S
C921 C920 1.388 . S
C921 C922 1.390 . S
C922 C921 1.390 . S
C922 C923 1.394 . S
C922 C928 1.465 1_554 S
C923 C918 1.399 . S
C923 C922 1.394 . S
C923 C924 1.518 1_554 S
C924 C923 1.518 1_556 S
C924 C925 1.502 . S
C924 C926 1.561 . S
C924 C927 1.524 . S
C925 H909 0.962 . S
C925 H910 0.978 . S
C925 H911 0.941 1_556 S
C925 C924 1.502 . S
C926 H912 0.959 1_556 S
C926 H913 0.962 . S
C926 H914 0.959 . S
C926 C924 1.561 . S
C927 C924 1.524 . S
C927 C928 1.396 . S
C927 C932 1.390 . S
C928 C922 1.465 1_556 S
C928 C927 1.396 . S
C928 C929 1.399 . S
C929 H915 0.929 . S
C929 C928 1.399 . S
C929 C930 1.385 . S
C930 H916 0.931 . S
C930 C929 1.385 . S
C930 C931 1.389 . S
C931 C930 1.389 . S
C931 C932 1.387 . S
C932 H917 0.930 . S
C932 C927 1.390 . S
C932 C931 1.387 . S
H933 C945 0.930 . S
H934 C947 0.930 . S
H935 C948 0.930 . S
H936 C952 0.959 . S
H937 C952 0.959 . S
H938 C952 0.961 . S
H939 C953 0.960 . S
H940 C953 0.961 . S
H941 C953 0.959 . S
H942 C956 0.929 . S
H943 C957 0.931 . S
H944 C959 0.930 . S
C945 H933 0.930 . S
C945 C946 1.399 . S
C945 C950 1.399 . S
C946 C945 1.399 . S
C946 C947 1.376 . S
C947 H934 0.930 . S
C947 C946 1.376 . S
C947 C948 1.388 . S
C948 H935 0.930 . S
C948 C947 1.388 . S
C948 C949 1.390 . S
C949 C948 1.390 . S
C949 C950 1.394 . S
C949 C955 1.465 . S
C950 C945 1.399 . S
C950 C949 1.394 . S
C950 C951 1.516 . S
C951 C950 1.516 . S
C951 C952 1.502 . S
C951 C953 1.561 . S
C951 C954 1.526 . S
C952 H936 0.959 . S
C952 H937 0.959 . S
C952 H938 0.961 . S
C952 C951 1.502 . S
C953 H939 0.960 . S
C953 H940 0.961 . S
C953 H941 0.959 . S
C953 C951 1.561 . S
C954 C951 1.526 . S
C954 C955 1.396 . S
C954 C959 1.390 . S
C955 C949 1.465 . S
C955 C954 1.396 . S
C955 C956 1.399 . S
C956 H942 0.929 . S
C956 C955 1.399 . S
C956 C957 1.385 . S
C957 H943 0.931 . S
C957 C956 1.385 . S
C957 C958 1.389 . S
C958 C957 1.389 . S
C958 C959 1.387 . S
C959 H944 0.930 . S
C959 C954 1.390 . S
C959 C958 1.387 . S
H960 C972 0.930 . S
H961 C974 0.930 . S
H962 C975 0.930 . S
H963 C979 0.959 . S
H964 C979 0.959 . S
H965 C979 0.961 . S
H966 C980 0.960 . S
H967 C980 0.961 . S
H968 C980 0.959 . S
H969 C983 0.929 . S
H970 C984 0.931 . S
H971 C986 0.930 . S
C972 H960 0.930 . S
C972 C973 1.399 . S
C972 C977 1.399 . S
C973 C972 1.399 . S
C973 C974 1.376 . S
C974 H961 0.930 . S
C974 C973 1.376 . S
C974 C975 1.388 . S
C975 H962 0.930 . S
C975 C974 1.388 . S
C975 C976 1.390 . S
C976 C975 1.390 . S
C976 C977 1.394 . S
C976 C982 1.465 1_455 S
C977 C972 1.399 . S
C977 C976 1.394 . S
C977 C978 1.516 . S
C978 C977 1.516 . S
C978 C979 1.502 . S
C978 C980 1.561 1_455 S
C978 C981 1.526 1_455 S
C979 H963 0.959 . S
C979 H964 0.959 . S
C979 H965 0.961 . S
C979 C978 1.502 . S
C980 H966 0.960 . S
C980 H967 0.961 . S
C980 H968 0.959 . S
C980 C978 1.561 1_655 S
C981 C978 1.526 1_655 S
C981 C982 1.396 . S
C981 C986 1.390 . S
C982 C976 1.465 1_655 S
C982 C981 1.396 . S
C982 C983 1.399 . S
C983 H969 0.929 . S
C983 C982 1.399 . S
C983 C984 1.385 . S
C984 H970 0.931 . S
C984 C983 1.385 . S
C984 C985 1.389 . S
C985 C984 1.389 . S
C985 C986 1.387 . S
C986 H971 0.930 . S
C986 C981 1.390 . S
C986 C985 1.387 . S
H987 C999 0.930 . S
H988 C1001 0.930 . S
H989 C1002 0.930 . S
H990 C1006 0.959 . S
H991 C1006 0.959 . S
H992 C1006 0.961 . S
H993 C1007 0.960 . S
H994 C1007 0.961 1_545 S
H995 C1007 0.959 . S
H996 C1010 0.929 . S
H997 C1011 0.931 . S
H998 C1013 0.930 . S
C999 H987 0.930 . S
C999 C1000 1.399 . S
C999 C1004 1.399 . S
C1000 C999 1.399 . S
C1000 C1001 1.376 . S
C1001 H988 0.930 . S
C1001 C1000 1.376 . S
C1001 C1002 1.388 . S
C1002 H989 0.930 . S
C1002 C1001 1.388 . S
C1002 C1003 1.390 . S
C1003 C1002 1.390 . S
C1003 C1004 1.394 . S
C1003 C1009 1.465 1_565 S
C1004 C999 1.399 . S
C1004 C1003 1.394 . S
C1004 C1005 1.516 1_565 S
C1005 C1004 1.516 1_545 S
C1005 C1006 1.502 . S
C1005 C1007 1.561 1_545 S
C1005 C1008 1.526 . S
C1006 H990 0.959 . S
C1006 H991 0.959 . S
C1006 H992 0.961 . S
C1006 C1005 1.502 . S
C1007 H993 0.960 . S
C1007 H994 0.961 1_565 S
C1007 H995 0.959 . S
C1007 C1005 1.561 1_565 S
C1008 C1005 1.526 . S
C1008 C1009 1.396 . S
C1008 C1013 1.390 . S
C1009 C1003 1.465 1_545 S
C1009 C1008 1.396 . S
C1009 C1010 1.399 . S
C1010 H996 0.929 . S
C1010 C1009 1.399 . S
C1010 C1011 1.385 . S
C1011 H997 0.931 . S
C1011 C1010 1.385 . S
C1011 C1012 1.389 . S
C1012 C1011 1.389 . S
C1012 C1013 1.387 . S
C1013 H998 0.930 . S
C1013 C1008 1.390 . S
C1013 C1012 1.387 . S
H1014 C1026 0.930 . S
H1015 C1028 0.930 . S
H1016 C1029 0.930 . S
H1017 C1033 0.959 . S
H1018 C1033 0.959 . S
H1019 C1033 0.961 . S
H1020 C1034 0.960 . S
H1021 C1034 0.961 1_545 S
H1022 C1034 0.959 . S
H1023 C1037 0.929 1_565 S
H1024 C1038 0.931 . S
H1025 C1040 0.930 . S
C1026 H1014 0.930 . S
C1026 C1027 1.399 . S
C1026 C1031 1.399 . S
C1027 C1026 1.399 . S
C1027 C1028 1.376 . S
C1028 H1015 0.930 . S
C1028 C1027 1.376 . S
C1028 C1029 1.388 . S
C1029 H1016 0.930 . S
C1029 C1028 1.388 . S
C1029 C1030 1.390 . S
C1030 C1029 1.390 . S
C1030 C1031 1.394 . S
C1030 C1036 1.465 1_565 S
C1031 C1026 1.399 . S
C1031 C1030 1.394 . S
C1031 C1032 1.516 1_565 S
C1032 C1031 1.516 1_545 S
C1032 C1033 1.502 . S
C1032 C1034 1.561 1_545 S
C1032 C1035 1.526 . S
C1033 H1017 0.959 . S
C1033 H1018 0.959 . S
C1033 H1019 0.961 . S
C1033 C1032 1.502 . S
C1034 H1020 0.960 . S
C1034 H1021 0.961 1_565 S
C1034 H1022 0.959 . S
C1034 C1032 1.561 1_565 S
C1035 C1032 1.526 . S
C1035 C1036 1.396 . S
C1035 C1040 1.390 . S
C1036 C1030 1.465 1_545 S
C1036 C1035 1.396 . S
C1036 C1037 1.399 . S
C1037 H1023 0.929 1_545 S
C1037 C1036 1.399 . S
C1037 C1038 1.385 . S
C1038 H1024 0.931 . S
C1038 C1037 1.385 . S
C1038 C1039 1.389 . S
C1039 C1038 1.389 . S
C1039 C1040 1.387 . S
C1040 H1025 0.930 . S
C1040 C1035 1.390 . S
C1040 C1039 1.387 . S
H1041 C1053 0.930 . S
H1042 C1055 0.930 . S
H1043 C1056 0.930 1_655 S
H1044 C1060 0.959 . S
H1045 C1060 0.959 . S
H1046 C1060 0.961 . S
H1047 C1061 0.960 . S
H1048 C1061 0.961 . S
H1049 C1061 0.959 1_655 S
H1050 C1064 0.929 . S
H1051 C1065 0.931 . S
H1052 C1067 0.930 . S
C1053 H1041 0.930 . S
C1053 C1054 1.399 . S
C1053 C1058 1.399 . S
C1054 C1053 1.399 . S
C1054 C1055 1.376 . S
C1055 H1042 0.930 . S
C1055 C1054 1.376 . S
C1055 C1056 1.388 . S
C1056 H1043 0.930 1_455 S
C1056 C1055 1.388 . S
C1056 C1057 1.390 . S
C1057 C1056 1.390 . S
C1057 C1058 1.394 . S
C1057 C1063 1.465 1_455 S
C1058 C1053 1.399 . S
C1058 C1057 1.394 . S
C1058 C1059 1.516 . S
C1059 C1058 1.516 . S
C1059 C1060 1.502 . S
C1059 C1061 1.561 . S
C1059 C1062 1.526 1_455 S
C1060 H1044 0.959 . S
C1060 H1045 0.959 . S
C1060 H1046 0.961 . S
C1060 C1059 1.502 . S
C1061 H1047 0.960 . S
C1061 H1048 0.961 . S
C1061 H1049 0.959 1_455 S
C1061 C1059 1.561 . S
C1062 C1059 1.526 1_655 S
C1062 C1063 1.396 . S
C1062 C1067 1.390 . S
C1063 C1057 1.465 1_655 S
C1063 C1062 1.396 . S
C1063 C1064 1.399 . S
C1064 H1050 0.929 . S
C1064 C1063 1.399 . S
C1064 C1065 1.385 . S
C1065 H1051 0.931 . S
C1065 C1064 1.385 . S
C1065 C1066 1.389 . S
C1066 C1065 1.389 . S
C1066 C1067 1.387 . S
C1067 H1052 0.930 . S
C1067 C1062 1.390 . S
C1067 C1066 1.387 . S
H1068 C1080 0.930 . S
H1069 C1082 0.930 . S
H1070 C1083 0.930 1_455 S
H1071 C1087 0.959 . S
H1072 C1087 0.959 . S
H1073 C1087 0.961 . S
H1074 C1088 0.960 . S
H1075 C1088 0.961 . S
H1076 C1088 0.959 . S
H1077 C1091 0.929 . S
H1078 C1092 0.931 . S
H1079 C1094 0.930 . S
C1080 H1068 0.930 . S
C1080 C1081 1.399 . S
C1080 C1085 1.399 . S
C1081 C1080 1.399 . S
C1081 C1082 1.376 . S
C1082 H1069 0.930 . S
C1082 C1081 1.376 . S
C1082 C1083 1.388 . S
C1083 H1070 0.930 1_655 S
C1083 C1082 1.388 . S
C1083 C1084 1.390 . S
C1084 C1083 1.390 . S
C1084 C1085 1.394 . S
C1084 C1090 1.465 1_655 S
C1085 C1080 1.399 . S
C1085 C1084 1.394 . S
C1085 C1086 1.516 . S
C1086 C1085 1.516 . S
C1086 C1087 1.502 . S
C1086 C1088 1.561 . S
C1086 C1089 1.526 1_655 S
C1087 H1071 0.959 . S
C1087 H1072 0.959 . S
C1087 H1073 0.961 . S
C1087 C1086 1.502 . S
C1088 H1074 0.960 . S
C1088 H1075 0.961 . S
C1088 H1076 0.959 . S
C1088 C1086 1.561 . S
C1089 C1086 1.526 1_455 S
C1089 C1090 1.396 . S
C1089 C1094 1.390 . S
C1090 C1084 1.465 1_455 S
C1090 C1089 1.396 . S
C1090 C1091 1.399 . S
C1091 H1077 0.929 . S
C1091 C1090 1.399 . S
C1091 C1092 1.385 . S
C1092 H1078 0.931 . S
C1092 C1091 1.385 . S
C1092 C1093 1.389 . S
C1093 C1092 1.389 . S
C1093 C1094 1.387 . S
C1094 H1079 0.930 . S
C1094 C1089 1.390 . S
C1094 C1093 1.387 . S
H1095 C1107 0.930 . S
H1096 C1109 0.930 . S
H1097 C1110 0.930 . S
H1098 C1114 0.959 . S
H1099 C1114 0.959 . S
H1100 C1114 0.961 . S
H1101 C1115 0.960 1_545 S
H1102 C1115 0.961 . S
H1103 C1115 0.959 . S
H1104 C1118 0.929 . S
H1105 C1119 0.931 . S
H1106 C1121 0.930 . S
C1107 H1095 0.930 . S
C1107 C1108 1.399 . S
C1107 C1112 1.399 . S
C1108 C1107 1.399 . S
C1108 C1109 1.376 . S
C1109 H1096 0.930 . S
C1109 C1108 1.376 . S
C1109 C1110 1.388 . S
C1110 H1097 0.930 . S
C1110 C1109 1.388 . S
C1110 C1111 1.390 . S
C1111 C1110 1.390 . S
C1111 C1112 1.394 . S
C1111 C1117 1.465 1_545 S
C1112 C1107 1.399 . S
C1112 C1111 1.394 . S
C1112 C1113 1.516 . S
C1113 C1112 1.516 . S
C1113 C1114 1.502 . S
C1113 C1115 1.561 1_545 S
C1113 C1116 1.526 1_545 S
C1114 H1098 0.959 . S
C1114 H1099 0.959 . S
C1114 H1100 0.961 . S
C1114 C1113 1.502 . S
C1115 H1101 0.960 1_565 S
C1115 H1102 0.961 . S
C1115 H1103 0.959 . S
C1115 C1113 1.561 1_565 S
C1116 C1113 1.526 1_565 S
C1116 C1117 1.396 . S
C1116 C1121 1.390 . S
C1117 C1111 1.465 1_565 S
C1117 C1116 1.396 . S
C1117 C1118 1.399 . S
C1118 H1104 0.929 . S
C1118 C1117 1.399 . S
C1118 C1119 1.385 . S
C1119 H1105 0.931 . S
C1119 C1118 1.385 . S
C1119 C1120 1.389 . S
C1120 C1119 1.389 . S
C1120 C1121 1.387 . S
C1121 H1106 0.930 . S
C1121 C1116 1.390 . S
C1121 C1120 1.387 . S
H1122 C1134 0.930 . S
H1123 C1136 0.930 . S
H1124 C1137 0.930 . S
H1125 C1141 0.959 . S
H1126 C1141 0.959 . S
H1127 C1141 0.961 . S
H1128 C1142 0.960 1_565 S
H1129 C1142 0.961 . S
H1130 C1142 0.959 . S
H1131 C1145 0.929 . S
H1132 C1146 0.931 . S
H1133 C1148 0.930 . S
C1134 H1122 0.930 . S
C1134 C1135 1.399 . S
C1134 C1139 1.399 . S
C1135 C1134 1.399 . S
C1135 C1136 1.376 . S
C1136 H1123 0.930 . S
C1136 C1135 1.376 . S
C1136 C1137 1.388 . S
C1137 H1124 0.930 . S
C1137 C1136 1.388 . S
C1137 C1138 1.390 . S
C1138 C1137 1.390 . S
C1138 C1139 1.394 . S
C1138 C1144 1.465 1_565 S
C1139 C1134 1.399 . S
C1139 C1138 1.394 . S
C1139 C1140 1.516 . S
C1140 C1139 1.516 . S
C1140 C1141 1.502 . S
C1140 C1142 1.561 1_565 S
C1140 C1143 1.526 1_565 S
C1141 H1125 0.959 . S
C1141 H1126 0.959 . S
C1141 H1127 0.961 . S
C1141 C1140 1.502 . S
C1142 H1128 0.960 1_545 S
C1142 H1129 0.961 . S
C1142 H1130 0.959 . S
C1142 C1140 1.561 1_545 S
C1143 C1140 1.526 1_545 S
C1143 C1144 1.396 . S
C1143 C1148 1.390 . S
C1144 C1138 1.465 1_545 S
C1144 C1143 1.396 . S
C1144 C1145 1.399 . S
C1145 H1131 0.929 . S
C1145 C1144 1.399 . S
C1145 C1146 1.385 . S
C1146 H1132 0.931 . S
C1146 C1145 1.385 . S
C1146 C1147 1.389 . S
C1147 C1146 1.389 . S
C1147 C1148 1.387 . S
C1148 H1133 0.930 . S
C1148 C1143 1.390 . S
C1148 C1147 1.387 . S
H1149 C1161 0.930 . S
H1150 C1163 0.930 . S
H1151 C1164 0.930 . S
H1152 C1168 0.959 . S
H1153 C1168 0.959 . S
H1154 C1168 0.961 . S
H1155 C1169 0.960 1_455 S
H1156 C1169 0.961 . S
H1157 C1169 0.959 . S
H1158 C1172 0.929 . S
H1159 C1173 0.931 . S
H1160 C1175 0.930 . S
C1161 H1149 0.930 . S
C1161 C1162 1.399 . S
C1161 C1166 1.399 . S
C1162 C1161 1.399 . S
C1162 C1163 1.376 . S
C1163 H1150 0.930 . S
C1163 C1162 1.376 . S
C1163 C1164 1.388 . S
C1164 H1151 0.930 . S
C1164 C1163 1.388 . S
C1164 C1165 1.390 . S
C1165 C1164 1.390 . S
C1165 C1166 1.394 . S
C1165 C1171 1.465 1_455 S
C1166 C1161 1.399 . S
C1166 C1165 1.394 . S
C1166 C1167 1.516 . S
C1167 C1166 1.516 . S
C1167 C1168 1.502 . S
C1167 C1169 1.561 1_455 S
C1167 C1170 1.526 1_455 S
C1168 H1152 0.959 . S
C1168 H1153 0.959 . S
C1168 H1154 0.961 . S
C1168 C1167 1.502 . S
C1169 H1155 0.960 1_655 S
C1169 H1156 0.961 . S
C1169 H1157 0.959 . S
C1169 C1167 1.561 1_655 S
C1170 C1167 1.526 1_655 S
C1170 C1171 1.396 . S
C1170 C1175 1.390 . S
C1171 C1165 1.465 1_655 S
C1171 C1170 1.396 . S
C1171 C1172 1.399 . S
C1172 H1158 0.929 . S
C1172 C1171 1.399 . S
C1172 C1173 1.385 . S
C1173 H1159 0.931 . S
C1173 C1172 1.385 . S
C1173 C1174 1.389 . S
C1174 C1173 1.389 . S
C1174 C1175 1.387 . S
C1175 H1160 0.930 . S
C1175 C1170 1.390 . S
C1175 C1174 1.387 . S
H1176 C1188 0.930 . S
H1177 C1190 0.930 . S
H1178 C1191 0.930 . S
H1179 C1195 0.959 . S
H1180 C1195 0.959 . S
H1181 C1195 0.961 . S
H1182 C1196 0.960 . S
H1183 C1196 0.961 . S
H1184 C1196 0.959 . S
H1185 C1199 0.929 . S
H1186 C1200 0.931 . S
H1187 C1202 0.930 . S
C1188 H1176 0.930 . S
C1188 C1189 1.399 . S
C1188 C1193 1.399 . S
C1189 C1188 1.399 . S
C1189 C1190 1.376 . S
C1190 H1177 0.930 . S
C1190 C1189 1.376 . S
C1190 C1191 1.388 . S
C1191 H1178 0.930 . S
C1191 C1190 1.388 . S
C1191 C1192 1.390 . S
C1192 C1191 1.390 . S
C1192 C1193 1.394 . S
C1192 C1198 1.465 . S
C1193 C1188 1.399 . S
C1193 C1192 1.394 . S
C1193 C1194 1.516 . S
C1194 C1193 1.516 . S
C1194 C1195 1.502 . S
C1194 C1196 1.561 . S
C1194 C1197 1.526 . S
C1195 H1179 0.959 . S
C1195 H1180 0.959 . S
C1195 H1181 0.961 . S
C1195 C1194 1.502 . S
C1196 H1182 0.960 . S
C1196 H1183 0.961 . S
C1196 H1184 0.959 . S
C1196 C1194 1.561 . S
C1197 C1194 1.526 . S
C1197 C1198 1.396 . S
C1197 C1202 1.390 . S
C1198 C1192 1.465 . S
C1198 C1197 1.396 . S
C1198 C1199 1.399 . S
C1199 H1185 0.929 . S
C1199 C1198 1.399 . S
C1199 C1200 1.385 . S
C1200 H1186 0.931 . S
C1200 C1199 1.385 . S
C1200 C1201 1.389 . S
C1201 C1200 1.389 . S
C1201 C1202 1.387 . S
C1202 H1187 0.930 . S
C1202 C1197 1.390 . S
C1202 C1201 1.387 . S
H1203 C1215 0.930 . S
H1204 C1217 0.930 . S
H1205 C1218 0.930 . S
H1206 C1222 0.959 . S
H1207 C1222 0.959 . S
H1208 C1222 0.961 . S
H1209 C1223 0.960 . S
H1210 C1223 0.961 . S
H1211 C1223 0.959 . S
H1212 C1226 0.929 . S
H1213 C1227 0.931 . S
H1214 C1229 0.930 . S
C1215 H1203 0.930 . S
C1215 C1216 1.399 . S
C1215 C1220 1.399 . S
C1216 C1215 1.399 . S
C1216 C1217 1.376 . S
C1217 H1204 0.930 . S
C1217 C1216 1.376 . S
C1217 C1218 1.388 . S
C1218 H1205 0.930 . S
C1218 C1217 1.388 . S
C1218 C1219 1.390 . S
C1219 C1218 1.390 . S
C1219 C1220 1.394 . S
C1219 C1225 1.465 . S
C1220 C1215 1.399 . S
C1220 C1219 1.394 . S
C1220 C1221 1.516 . S
C1221 C1220 1.516 . S
C1221 C1222 1.502 . S
C1221 C1223 1.561 . S
C1221 C1224 1.526 . S
C1222 H1206 0.959 . S
C1222 H1207 0.959 . S
C1222 H1208 0.961 . S
C1222 C1221 1.502 . S
C1223 H1209 0.960 . S
C1223 H1210 0.961 . S
C1223 H1211 0.959 . S
C1223 C1221 1.561 . S
C1224 C1221 1.526 . S
C1224 C1225 1.396 . S
C1224 C1229 1.390 . S
C1225 C1219 1.465 . S
C1225 C1224 1.396 . S
C1225 C1226 1.399 . S
C1226 H1212 0.929 . S
C1226 C1225 1.399 . S
C1226 C1227 1.385 . S
C1227 H1213 0.931 . S
C1227 C1226 1.385 . S
C1227 C1228 1.389 . S
C1228 C1227 1.389 . S
C1228 C1229 1.387 . S
C1229 H1214 0.930 . S
C1229 C1224 1.390 . S
C1229 C1228 1.387 . S
H1230 C1242 0.930 . S
H1231 C1244 0.930 . S
H1232 C1245 0.930 . S
H1233 C1249 0.959 . S
H1234 C1249 0.959 . S
H1235 C1249 0.961 . S
H1236 C1250 0.960 . S
H1237 C1250 0.961 . S
H1238 C1250 0.959 . S
H1239 C1253 0.929 . S
H1240 C1254 0.931 . S
H1241 C1256 0.930 . S
C1242 H1230 0.930 . S
C1242 C1243 1.399 . S
C1242 C1247 1.399 . S
C1243 C1242 1.399 . S
C1243 C1244 1.376 . S
C1244 H1231 0.930 . S
C1244 C1243 1.376 . S
C1244 C1245 1.388 . S
C1245 H1232 0.930 . S
C1245 C1244 1.388 . S
C1245 C1246 1.390 . S
C1246 C1245 1.390 . S
C1246 C1247 1.394 . S
C1246 C1252 1.465 . S
C1247 C1242 1.399 . S
C1247 C1246 1.394 . S
C1247 C1248 1.516 . S
C1248 C1247 1.516 . S
C1248 C1249 1.502 . S
C1248 C1250 1.561 . S
C1248 C1251 1.526 . S
C1249 H1233 0.959 . S
C1249 H1234 0.959 . S
C1249 H1235 0.961 . S
C1249 C1248 1.502 . S
C1250 H1236 0.960 . S
C1250 H1237 0.961 . S
C1250 H1238 0.959 . S
C1250 C1248 1.561 . S
C1251 C1248 1.526 . S
C1251 C1252 1.396 . S
C1251 C1256 1.390 . S
C1252 C1246 1.465 . S
C1252 C1251 1.396 . S
C1252 C1253 1.399 . S
C1253 H1239 0.929 . S
C1253 C1252 1.399 . S
C1253 C1254 1.385 . S
C1254 H1240 0.931 . S
C1254 C1253 1.385 . S
C1254 C1255 1.389 . S
C1255 C1254 1.389 . S
C1255 C1256 1.387 . S
C1256 H1241 0.930 . S
C1256 C1251 1.390 . S
C1256 C1255 1.387 . S
H1257 C1269 0.930 . S
H1258 C1271 0.930 . S
H1259 C1272 0.930 . S
H1260 C1276 0.959 . S
H1261 C1276 0.959 . S
H1262 C1276 0.961 . S
H1263 C1277 0.960 . S
H1264 C1277 0.961 . S
H1265 C1277 0.959 . S
H1266 C1280 0.929 . S
H1267 C1281 0.931 . S
H1268 C1283 0.930 . S
C1269 H1257 0.930 . S
C1269 C1270 1.399 . S
C1269 C1274 1.399 . S
C1270 C1269 1.399 . S
C1270 C1271 1.376 . S
C1271 H1258 0.930 . S
C1271 C1270 1.376 . S
C1271 C1272 1.388 . S
C1272 H1259 0.930 . S
C1272 C1271 1.388 . S
C1272 C1273 1.390 . S
C1273 C1272 1.390 . S
C1273 C1274 1.394 . S
C1273 C1279 1.465 . S
C1274 C1269 1.399 . S
C1274 C1273 1.394 . S
C1274 C1275 1.516 . S
C1275 C1274 1.516 . S
C1275 C1276 1.502 . S
C1275 C1277 1.561 . S
C1275 C1278 1.526 . S
C1276 H1260 0.959 . S
C1276 H1261 0.959 . S
C1276 H1262 0.961 . S
C1276 C1275 1.502 . S
C1277 H1263 0.960 . S
C1277 H1264 0.961 . S
C1277 H1265 0.959 . S
C1277 C1275 1.561 . S
C1278 C1275 1.526 . S
C1278 C1279 1.396 . S
C1278 C1283 1.390 . S
C1279 C1273 1.465 . S
C1279 C1278 1.396 . S
C1279 C1280 1.399 . S
C1280 H1266 0.929 . S
C1280 C1279 1.399 . S
C1280 C1281 1.385 . S
C1281 H1267 0.931 . S
C1281 C1280 1.385 . S
C1281 C1282 1.389 . S
C1282 C1281 1.389 . S
C1282 C1283 1.387 . S
C1283 H1268 0.930 . S
C1283 C1278 1.390 . S
C1283 C1282 1.387 . S
H1284 C1296 0.930 . S
H1285 C1298 0.930 . S
H1286 C1299 0.930 . S
H1287 C1303 0.959 . S
H1288 C1303 0.959 . S
H1289 C1303 0.961 . S
H1290 C1304 0.960 . S
H1291 C1304 0.961 . S
H1292 C1304 0.959 . S
H1293 C1307 0.929 . S
H1294 C1308 0.931 . S
H1295 C1310 0.930 . S
C1296 H1284 0.930 . S
C1296 C1297 1.399 . S
C1296 C1301 1.399 . S
C1297 C1296 1.399 . S
C1297 C1298 1.376 . S
C1298 H1285 0.930 . S
C1298 C1297 1.376 . S
C1298 C1299 1.388 . S
C1299 H1286 0.930 . S
C1299 C1298 1.388 . S
C1299 C1300 1.390 . S
C1300 C1299 1.390 . S
C1300 C1301 1.394 . S
C1300 C1306 1.465 . S
C1301 C1296 1.399 . S
C1301 C1300 1.394 . S
C1301 C1302 1.516 . S
C1302 C1301 1.516 . S
C1302 C1303 1.502 . S
C1302 C1304 1.561 . S
C1302 C1305 1.526 . S
C1303 H1287 0.959 . S
C1303 H1288 0.959 . S
C1303 H1289 0.961 . S
C1303 C1302 1.502 . S
C1304 H1290 0.960 . S
C1304 H1291 0.961 . S
C1304 H1292 0.959 . S
C1304 C1302 1.561 . S
C1305 C1302 1.526 . S
C1305 C1306 1.396 . S
C1305 C1310 1.390 . S
C1306 C1300 1.465 . S
C1306 C1305 1.396 . S
C1306 C1307 1.399 . S
C1307 H1293 0.929 . S
C1307 C1306 1.399 . S
C1307 C1308 1.385 . S
C1308 H1294 0.931 . S
C1308 C1307 1.385 . S
C1308 C1309 1.389 . S
C1309 C1308 1.389 . S
C1309 C1310 1.387 . S
C1310 H1295 0.930 . S
C1310 C1305 1.390 . S
C1310 C1309 1.387 . S
H1311 C1323 0.930 . S
H1312 C1325 0.930 . S
H1313 C1326 0.930 . S
H1314 C1330 0.959 . S
H1315 C1330 0.959 . S
H1316 C1330 0.961 . S
H1317 C1331 0.960 . S
H1318 C1331 0.961 . S
H1319 C1331 0.959 . S
H1320 C1334 0.929 . S
H1321 C1335 0.931 . S
H1322 C1337 0.930 . S
C1323 H1311 0.930 . S
C1323 C1324 1.399 . S
C1323 C1328 1.399 . S
C1324 C1323 1.399 . S
C1324 C1325 1.376 . S
C1325 H1312 0.930 . S
C1325 C1324 1.376 . S
C1325 C1326 1.388 . S
C1326 H1313 0.930 . S
C1326 C1325 1.388 . S
C1326 C1327 1.390 . S
C1327 C1326 1.390 . S
C1327 C1328 1.394 . S
C1327 C1333 1.465 . S
C1328 C1323 1.399 . S
C1328 C1327 1.394 . S
C1328 C1329 1.516 . S
C1329 C1328 1.516 . S
C1329 C1330 1.502 . S
C1329 C1331 1.561 . S
C1329 C1332 1.526 . S
C1330 H1314 0.959 . S
C1330 H1315 0.959 . S
C1330 H1316 0.961 . S
C1330 C1329 1.502 . S
C1331 H1317 0.960 . S
C1331 H1318 0.961 . S
C1331 H1319 0.959 . S
C1331 C1329 1.561 . S
C1332 C1329 1.526 . S
C1332 C1333 1.396 . S
C1332 C1337 1.390 . S
C1333 C1327 1.465 . S
C1333 C1332 1.396 . S
C1333 C1334 1.399 . S
C1334 H1320 0.929 . S
C1334 C1333 1.399 . S
C1334 C1335 1.385 . S
C1335 H1321 0.931 . S
C1335 C1334 1.385 . S
C1335 C1336 1.389 . S
C1336 C1335 1.389 . S
C1336 C1337 1.387 . S
C1337 H1322 0.930 . S
C1337 C1332 1.390 . S
C1337 C1336 1.387 . S
H1338 C1350 0.930 . S
H1339 C1352 0.930 . S
H1340 C1353 0.930 . S
H1341 C1357 0.959 . S
H1342 C1357 0.959 . S
H1343 C1357 0.961 . S
H1344 C1358 0.960 . S
H1345 C1358 0.961 . S
H1346 C1358 0.959 . S
H1347 C1361 0.929 . S
H1348 C1362 0.931 . S
H1349 C1364 0.930 . S
C1350 H1338 0.930 . S
C1350 C1351 1.399 . S
C1350 C1355 1.399 . S
C1351 C1350 1.399 . S
C1351 C1352 1.376 . S
C1352 H1339 0.930 . S
C1352 C1351 1.376 . S
C1352 C1353 1.388 . S
C1353 H1340 0.930 . S
C1353 C1352 1.388 . S
C1353 C1354 1.390 . S
C1354 C1353 1.390 . S
C1354 C1355 1.394 . S
C1354 C1360 1.465 . S
C1355 C1350 1.399 . S
C1355 C1354 1.394 . S
C1355 C1356 1.516 . S
C1356 C1355 1.516 . S
C1356 C1357 1.502 . S
C1356 C1358 1.561 . S
C1356 C1359 1.526 . S
C1357 H1341 0.959 . S
C1357 H1342 0.959 . S
C1357 H1343 0.961 . S
C1357 C1356 1.502 . S
C1358 H1344 0.960 . S
C1358 H1345 0.961 . S
C1358 H1346 0.959 . S
C1358 C1356 1.561 . S
C1359 C1356 1.526 . S
C1359 C1360 1.396 . S
C1359 C1364 1.390 . S
C1360 C1354 1.465 . S
C1360 C1359 1.396 . S
C1360 C1361 1.399 . S
C1361 H1347 0.929 . S
C1361 C1360 1.399 . S
C1361 C1362 1.385 . S
C1362 H1348 0.931 . S
C1362 C1361 1.385 . S
C1362 C1363 1.389 . S
C1363 C1362 1.389 . S
C1363 C1364 1.387 . S
C1364 H1349 0.930 . S
C1364 C1359 1.390 . S
C1364 C1363 1.387 . S
H1365 C1377 0.930 . S
H1366 C1379 0.930 . S
H1367 C1380 0.930 . S
H1368 C1384 0.959 . S
H1369 C1384 0.959 . S
H1370 C1384 0.961 . S
H1371 C1385 0.960 . S
H1372 C1385 0.961 . S
H1373 C1385 0.959 . S
H1374 C1388 0.929 . S
H1375 C1389 0.931 . S
H1376 C1391 0.930 . S
C1377 H1365 0.930 . S
C1377 C1378 1.399 . S
C1377 C1382 1.399 . S
C1378 C1377 1.399 . S
C1378 C1379 1.376 . S
C1379 H1366 0.930 . S
C1379 C1378 1.376 . S
C1379 C1380 1.388 . S
C1380 H1367 0.930 . S
C1380 C1379 1.388 . S
C1380 C1381 1.390 . S
C1381 C1380 1.390 . S
C1381 C1382 1.394 . S
C1381 C1387 1.465 . S
C1382 C1377 1.399 . S
C1382 C1381 1.394 . S
C1382 C1383 1.516 . S
C1383 C1382 1.516 . S
C1383 C1384 1.502 . S
C1383 C1385 1.561 . S
C1383 C1386 1.526 . S
C1384 H1368 0.959 . S
C1384 H1369 0.959 . S
C1384 H1370 0.961 . S
C1384 C1383 1.502 . S
C1385 H1371 0.960 . S
C1385 H1372 0.961 . S
C1385 H1373 0.959 . S
C1385 C1383 1.561 . S
C1386 C1383 1.526 . S
C1386 C1387 1.396 . S
C1386 C1391 1.390 . S
C1387 C1381 1.465 . S
C1387 C1386 1.396 . S
C1387 C1388 1.399 . S
C1388 H1374 0.929 . S
C1388 C1387 1.399 . S
C1388 C1389 1.385 . S
C1389 H1375 0.931 . S
C1389 C1388 1.385 . S
C1389 C1390 1.389 . S
C1390 C1389 1.389 . S
C1390 C1391 1.387 . S
C1391 H1376 0.930 . S
C1391 C1386 1.390 . S
C1391 C1390 1.387 . S
H1392 C1404 0.930 . S
H1393 C1406 0.930 . S
H1394 C1407 0.930 . S
H1395 C1411 0.959 . S
H1396 C1411 0.959 . S
H1397 C1411 0.961 . S
H1398 C1412 0.960 . S
H1399 C1412 0.961 . S
H1400 C1412 0.959 . S
H1401 C1415 0.929 . S
H1402 C1416 0.931 . S
H1403 C1418 0.930 . S
C1404 H1392 0.930 . S
C1404 C1405 1.399 . S
C1404 C1409 1.399 . S
C1405 C1404 1.399 . S
C1405 C1406 1.376 . S
C1406 H1393 0.930 . S
C1406 C1405 1.376 . S
C1406 C1407 1.388 . S
C1407 H1394 0.930 . S
C1407 C1406 1.388 . S
C1407 C1408 1.390 . S
C1408 C1407 1.390 . S
C1408 C1409 1.394 . S
C1408 C1414 1.465 . S
C1409 C1404 1.399 . S
C1409 C1408 1.394 . S
C1409 C1410 1.516 . S
C1410 C1409 1.516 . S
C1410 C1411 1.502 . S
C1410 C1412 1.561 . S
C1410 C1413 1.526 . S
C1411 H1395 0.959 . S
C1411 H1396 0.959 . S
C1411 H1397 0.961 . S
C1411 C1410 1.502 . S
C1412 H1398 0.960 . S
C1412 H1399 0.961 . S
C1412 H1400 0.959 . S
C1412 C1410 1.561 . S
C1413 C1410 1.526 . S
C1413 C1414 1.396 . S
C1413 C1418 1.390 . S
C1414 C1408 1.465 . S
C1414 C1413 1.396 . S
C1414 C1415 1.399 . S
C1415 H1401 0.929 . S
C1415 C1414 1.399 . S
C1415 C1416 1.385 . S
C1416 H1402 0.931 . S
C1416 C1415 1.385 . S
C1416 C1417 1.389 . S
C1417 C1416 1.389 . S
C1417 C1418 1.387 . S
C1418 H1403 0.930 . S
C1418 C1413 1.390 . S
C1418 C1417 1.387 . S
H1419 C1431 0.930 . S
H1420 C1433 0.930 . S
H1421 C1434 0.930 . S
H1422 C1438 0.959 . S
H1423 C1438 0.959 . S
H1424 C1438 0.961 . S
H1425 C1439 0.960 . S
H1426 C1439 0.961 . S
H1427 C1439 0.959 . S
H1428 C1442 0.929 . S
H1429 C1443 0.931 . S
H1430 C1445 0.930 . S
C1431 H1419 0.930 . S
C1431 C1432 1.399 . S
C1431 C1436 1.399 . S
C1432 C1431 1.399 . S
C1432 C1433 1.376 . S
C1433 H1420 0.930 . S
C1433 C1432 1.376 . S
C1433 C1434 1.388 . S
C1434 H1421 0.930 . S
C1434 C1433 1.388 . S
C1434 C1435 1.390 . S
C1435 C1434 1.390 . S
C1435 C1436 1.394 . S
C1435 C1441 1.465 . S
C1436 C1431 1.399 . S
C1436 C1435 1.394 . S
C1436 C1437 1.516 . S
C1437 C1436 1.516 . S
C1437 C1438 1.502 . S
C1437 C1439 1.561 . S
C1437 C1440 1.526 . S
C1438 H1422 0.959 . S
C1438 H1423 0.959 . S
C1438 H1424 0.961 . S
C1438 C1437 1.502 . S
C1439 H1425 0.960 . S
C1439 H1426 0.961 . S
C1439 H1427 0.959 . S
C1439 C1437 1.561 . S
C1440 C1437 1.526 . S
C1440 C1441 1.396 . S
C1440 C1445 1.390 . S
C1441 C1435 1.465 . S
C1441 C1440 1.396 . S
C1441 C1442 1.399 . S
C1442 H1428 0.929 . S
C1442 C1441 1.399 . S
C1442 C1443 1.385 . S
C1443 H1429 0.931 . S
C1443 C1442 1.385 . S
C1443 C1444 1.389 . S
C1444 C1443 1.389 . S
C1444 C1445 1.387 . S
C1445 H1430 0.930 . S
C1445 C1440 1.390 . S
C1445 C1444 1.387 . S
H1446 C1458 0.930 . S
H1447 C1460 0.930 . S
H1448 C1461 0.930 . S
H1449 C1465 0.959 . S
H1450 C1465 0.959 . S
H1451 C1465 0.961 . S
H1452 C1466 0.960 . S
H1453 C1466 0.961 . S
H1454 C1466 0.959 . S
H1455 C1469 0.929 . S
H1456 C1470 0.931 . S
H1457 C1472 0.930 . S
C1458 H1446 0.930 . S
C1458 C1459 1.399 . S
C1458 C1463 1.399 . S
C1459 C1458 1.399 . S
C1459 C1460 1.376 . S
C1460 H1447 0.930 . S
C1460 C1459 1.376 . S
C1460 C1461 1.388 . S
C1461 H1448 0.930 . S
C1461 C1460 1.388 . S
C1461 C1462 1.390 . S
C1462 C1461 1.390 . S
C1462 C1463 1.394 . S
C1462 C1468 1.465 . S
C1463 C1458 1.399 . S
C1463 C1462 1.394 . S
C1463 C1464 1.516 . S
C1464 C1463 1.516 . S
C1464 C1465 1.502 . S
C1464 C1466 1.561 . S
C1464 C1467 1.526 . S
C1465 H1449 0.959 . S
C1465 H1450 0.959 . S
C1465 H1451 0.961 . S
C1465 C1464 1.502 . S
C1466 H1452 0.960 . S
C1466 H1453 0.961 . S
C1466 H1454 0.959 . S
C1466 C1464 1.561 . S
C1467 C1464 1.526 . S
C1467 C1468 1.396 . S
C1467 C1472 1.390 . S
C1468 C1462 1.465 . S
C1468 C1467 1.396 . S
C1468 C1469 1.399 . S
C1469 H1455 0.929 . S
C1469 C1468 1.399 . S
C1469 C1470 1.385 . S
C1470 H1456 0.931 . S
C1470 C1469 1.385 . S
C1470 C1471 1.389 . S
C1471 C1470 1.389 . S
C1471 C1472 1.387 . S
C1472 H1457 0.930 . S
C1472 C1467 1.390 . S
C1472 C1471 1.387 . S
H1473 C1485 0.930 . S
H1474 C1487 0.930 . S
H1475 C1488 0.930 . S
H1476 C1492 0.959 . S
H1477 C1492 0.959 . S
H1478 C1492 0.961 . S
H1479 C1493 0.960 . S
H1480 C1493 0.961 . S
H1481 C1493 0.959 . S
H1482 C1496 0.929 . S
H1483 C1497 0.931 . S
H1484 C1499 0.930 . S
C1485 H1473 0.930 . S
C1485 C1486 1.399 . S
C1485 C1490 1.399 . S
C1486 C1485 1.399 . S
C1486 C1487 1.376 . S
C1487 H1474 0.930 . S
C1487 C1486 1.376 . S
C1487 C1488 1.388 . S
C1488 H1475 0.930 . S
C1488 C1487 1.388 . S
C1488 C1489 1.390 . S
C1489 C1488 1.390 . S
C1489 C1490 1.394 . S
C1489 C1495 1.465 . S
C1490 C1485 1.399 . S
C1490 C1489 1.394 . S
C1490 C1491 1.516 . S
C1491 C1490 1.516 . S
C1491 C1492 1.502 . S
C1491 C1493 1.561 . S
C1491 C1494 1.526 . S
C1492 H1476 0.959 . S
C1492 H1477 0.959 . S
C1492 H1478 0.961 . S
C1492 C1491 1.502 . S
C1493 H1479 0.960 . S
C1493 H1480 0.961 . S
C1493 H1481 0.959 . S
C1493 C1491 1.561 . S
C1494 C1491 1.526 . S
C1494 C1495 1.396 . S
C1494 C1499 1.390 . S
C1495 C1489 1.465 . S
C1495 C1494 1.396 . S
C1495 C1496 1.399 . S
C1496 H1482 0.929 . S
C1496 C1495 1.399 . S
C1496 C1497 1.385 . S
C1497 H1483 0.931 . S
C1497 C1496 1.385 . S
C1497 C1498 1.389 . S
C1498 C1497 1.389 . S
C1498 C1499 1.387 . S
C1499 H1484 0.930 . S
C1499 C1494 1.390 . S
C1499 C1498 1.387 . S
H1500 C1512 0.930 . S
H1501 C1514 0.930 . S
H1502 C1515 0.930 . S
H1503 C1519 0.959 . S
H1504 C1519 0.959 . S
H1505 C1519 0.961 . S
H1506 C1520 0.960 . S
H1507 C1520 0.961 . S
H1508 C1520 0.959 . S
H1509 C1523 0.929 . S
H1510 C1524 0.931 . S
H1511 C1526 0.930 . S
C1512 H1500 0.930 . S
C1512 C1513 1.399 . S
C1512 C1517 1.399 . S
C1513 C1512 1.399 . S
C1513 C1514 1.376 . S
C1514 H1501 0.930 . S
C1514 C1513 1.376 . S
C1514 C1515 1.388 . S
C1515 H1502 0.930 . S
C1515 C1514 1.388 . S
C1515 C1516 1.390 . S
C1516 C1515 1.390 . S
C1516 C1517 1.394 . S
C1516 C1522 1.465 . S
C1517 C1512 1.399 . S
C1517 C1516 1.394 . S
C1517 C1518 1.516 . S
C1518 C1517 1.516 . S
C1518 C1519 1.502 . S
C1518 C1520 1.561 . S
C1518 C1521 1.526 . S
C1519 H1503 0.959 . S
C1519 H1504 0.959 . S
C1519 H1505 0.961 . S
C1519 C1518 1.502 . S
C1520 H1506 0.960 . S
C1520 H1507 0.961 . S
C1520 H1508 0.959 . S
C1520 C1518 1.561 . S
C1521 C1518 1.526 . S
C1521 C1522 1.396 . S
C1521 C1526 1.390 . S
C1522 C1516 1.465 . S
C1522 C1521 1.396 . S
C1522 C1523 1.399 . S
C1523 H1509 0.929 . S
C1523 C1522 1.399 . S
C1523 C1524 1.385 . S
C1524 H1510 0.931 . S
C1524 C1523 1.385 . S
C1524 C1525 1.389 . S
C1525 C1524 1.389 . S
C1525 C1526 1.387 . S
C1526 H1511 0.930 . S
C1526 C1521 1.390 . S
C1526 C1525 1.387 . S
H1527 C1539 0.930 . S
H1528 C1541 0.930 . S
H1529 C1542 0.930 . S
H1530 C1546 0.959 . S
H1531 C1546 0.959 . S
H1532 C1546 0.961 . S
H1533 C1547 0.960 . S
H1534 C1547 0.961 . S
H1535 C1547 0.959 . S
H1536 C1550 0.929 . S
H1537 C1551 0.931 . S
H1538 C1553 0.930 . S
C1539 H1527 0.930 . S
C1539 C1540 1.399 . S
C1539 C1544 1.399 . S
C1540 C1539 1.399 . S
C1540 C1541 1.376 . S
C1541 H1528 0.930 . S
C1541 C1540 1.376 . S
C1541 C1542 1.388 . S
C1542 H1529 0.930 . S
C1542 C1541 1.388 . S
C1542 C1543 1.390 . S
C1543 C1542 1.390 . S
C1543 C1544 1.394 . S
C1543 C1549 1.465 . S
C1544 C1539 1.399 . S
C1544 C1543 1.394 . S
C1544 C1545 1.516 . S
C1545 C1544 1.516 . S
C1545 C1546 1.502 . S
C1545 C1547 1.561 . S
C1545 C1548 1.526 . S
C1546 H1530 0.959 . S
C1546 H1531 0.959 . S
C1546 H1532 0.961 . S
C1546 C1545 1.502 . S
C1547 H1533 0.960 . S
C1547 H1534 0.961 . S
C1547 H1535 0.959 . S
C1547 C1545 1.561 . S
C1548 C1545 1.526 . S
C1548 C1549 1.396 . S
C1548 C1553 1.390 . S
C1549 C1543 1.465 . S
C1549 C1548 1.396 . S
C1549 C1550 1.399 . S
C1550 H1536 0.929 . S
C1550 C1549 1.399 . S
C1550 C1551 1.385 . S
C1551 H1537 0.931 . S
C1551 C1550 1.385 . S
C1551 C1552 1.389 . S
C1552 C1551 1.389 . S
C1552 C1553 1.387 . S
C1553 H1538 0.930 . S
C1553 C1548 1.390 . S
C1553 C1552 1.387 . S
H1554 C1566 0.930 . S
H1555 C1568 0.930 . S
H1556 C1569 0.930 . S
H1557 C1573 0.959 . S
H1558 C1573 0.959 . S
H1559 C1573 0.961 . S
H1560 C1574 0.960 . S
H1561 C1574 0.961 . S
H1562 C1574 0.959 . S
H1563 C1577 0.929 . S
H1564 C1578 0.931 . S
H1565 C1580 0.930 . S
C1566 H1554 0.930 . S
C1566 C1567 1.399 . S
C1566 C1571 1.399 . S
C1567 C1566 1.399 . S
C1567 C1568 1.376 . S
C1568 H1555 0.930 . S
C1568 C1567 1.376 . S
C1568 C1569 1.388 . S
C1569 H1556 0.930 . S
C1569 C1568 1.388 . S
C1569 C1570 1.390 . S
C1570 C1569 1.390 . S
C1570 C1571 1.394 . S
C1570 C1576 1.465 . S
C1571 C1566 1.399 . S
C1571 C1570 1.394 . S
C1571 C1572 1.516 . S
C1572 C1571 1.516 . S
C1572 C1573 1.502 . S
C1572 C1574 1.561 . S
C1572 C1575 1.526 . S
C1573 H1557 0.959 . S
C1573 H1558 0.959 . S
C1573 H1559 0.961 . S
C1573 C1572 1.502 . S
C1574 H1560 0.960 . S
C1574 H1561 0.961 . S
C1574 H1562 0.959 . S
C1574 C1572 1.561 . S
C1575 C1572 1.526 . S
C1575 C1576 1.396 . S
C1575 C1580 1.390 . S
C1576 C1570 1.465 . S
C1576 C1575 1.396 . S
C1576 C1577 1.399 . S
C1577 H1563 0.929 . S
C1577 C1576 1.399 . S
C1577 C1578 1.385 . S
C1578 H1564 0.931 . S
C1578 C1577 1.385 . S
C1578 C1579 1.389 . S
C1579 C1578 1.389 . S
C1579 C1580 1.387 . S
C1580 H1565 0.930 . S
C1580 C1575 1.390 . S
C1580 C1579 1.387 . S
H1581 C1593 0.930 . S
H1582 C1595 0.930 . S
H1583 C1596 0.930 . S
H1584 C1600 0.959 . S
H1585 C1600 0.959 . S
H1586 C1600 0.961 . S
H1587 C1601 0.960 . S
H1588 C1601 0.961 . S
H1589 C1601 0.959 . S
H1590 C1604 0.929 . S
H1591 C1605 0.931 . S
H1592 C1607 0.930 . S
C1593 H1581 0.930 . S
C1593 C1594 1.399 . S
C1593 C1598 1.399 . S
C1594 C1593 1.399 . S
C1594 C1595 1.376 . S
C1595 H1582 0.930 . S
C1595 C1594 1.376 . S
C1595 C1596 1.388 . S
C1596 H1583 0.930 . S
C1596 C1595 1.388 . S
C1596 C1597 1.390 . S
C1597 C1596 1.390 . S
C1597 C1598 1.394 . S
C1597 C1603 1.465 . S
C1598 C1593 1.399 . S
C1598 C1597 1.394 . S
C1598 C1599 1.516 . S
C1599 C1598 1.516 . S
C1599 C1600 1.502 . S
C1599 C1601 1.561 . S
C1599 C1602 1.526 . S
C1600 H1584 0.959 . S
C1600 H1585 0.959 . S
C1600 H1586 0.961 . S
C1600 C1599 1.502 . S
C1601 H1587 0.960 . S
C1601 H1588 0.961 . S
C1601 H1589 0.959 . S
C1601 C1599 1.561 . S
C1602 C1599 1.526 . S
C1602 C1603 1.396 . S
C1602 C1607 1.390 . S
C1603 C1597 1.465 . S
C1603 C1602 1.396 . S
C1603 C1604 1.399 . S
C1604 H1590 0.929 . S
C1604 C1603 1.399 . S
C1604 C1605 1.385 . S
C1605 H1591 0.931 . S
C1605 C1604 1.385 . S
C1605 C1606 1.389 . S
C1606 C1605 1.389 . S
C1606 C1607 1.387 . S
C1607 H1592 0.930 . S
C1607 C1602 1.390 . S
C1607 C1606 1.387 . S
C541 N5 1.810 . S
C553 N236 1.813 . S
C568 N137 1.802 . S
C580 N38 1.804 . S
C595 N170 1.816 . S
C607 N71 1.815 . S
C622 N203 1.810 . S
C634 N104 1.807 . S
C649 N269 1.815 . S
C661 N500 1.815 . S
C676 N302 1.805 . S
C688 N401 1.806 . S
C703 N434 1.808 . S
C715 N335 1.809 . S
C730 N368 1.815 . S
C742 N467 1.816 . S
C757 N14 1.605 . S
C769 N344 1.617 . S
C784 N377 1.607 . S
C796 N47 1.596 . S
C811 N278 1.573 . S
C823 N80 1.578 . S
C838 N311 1.615 . S
C850 N113 1.626 . S
C865 N476 1.650 . S
C877 N146 1.647 . S
C892 N509 1.612 . S
C904 N179 1.601 . S
C919 N410 1.572 . S
C931 N212 1.576 . S
C946 N443 1.573 . S
C958 N245 1.574 . S
C973 C17 0.724 . S
C985 C83 0.795 . S
C1000 C116 0.859 . S
C1012 C50 0.763 . S
C1027 C215 0.711 . S
C1039 C149 0.818 . S
C1054 C248 0.865 . S
C1066 C182 0.739 . S
C1081 C281 0.733 . S
C1093 C347 0.829 . S
C1108 C380 0.743 . S
C1120 C314 0.842 . S
C1135 C413 0.833 . S
C1147 C479 0.731 . S
C1162 C446 0.832 . S
C1174 C512 0.732 . S
C1189 C470 1.759 . S
C1201 C28 1.843 . S
C1216 C61 1.872 . S
C1228 C503 1.708 . S
C1243 C404 1.760 . S
C1255 C94 1.842 . S
C1270 C437 1.709 . S
C1282 C127 1.868 . S
C1297 C338 1.704 1_655 S
C1309 C160 1.871 . S
C1324 C193 1.838 . S
C1336 C371 1.762 1_565 S
C1351 C272 1.718 1_455 S
C1363 C226 1.863 . S
C1378 C259 1.840 . S
C1390 C305 1.758 1_545 S
C1405 C206 1.765 . S
C1417 C292 1.852 . S
C1432 C239 1.760 . S
C1444 C325 1.856 . S
C1459 C140 1.688 . S
C1471 C358 1.871 . S
C1486 C391 1.829 . S
C1498 C173 1.762 . S
C1513 C74 1.776 1_455 S
C1525 C424 1.843 . S
C1540 C457 1.882 . S
C1552 C107 1.702 1_545 S
C1567 C490 1.836 . S
C1579 C8 1.743 1_655 S
C1594 C41 1.762 1_565 S
C1606 C523 1.855 . S
