# Generated by pormake.
# Topology afi, (4)-cn, num edge types: 1
# Building blocks:
#     Node 0, Type 0, BuildingBlock: UXUYUI_clean_sbu_0, # of connection points: 4
#     Node 1, Type 0, BuildingBlock: UXUYUI_clean_sbu_0, # of connection points: 4
#     Node 2, Type 0, BuildingBlock: UXUYUI_clean_sbu_0, # of connection points: 4
#     Node 3, Type 0, BuildingBlock: UXUYUI_clean_sbu_0, # of connection points: 4
#     Node 4, Type 0, BuildingBlock: UXUYUI_clean_sbu_0, # of connection points: 4
#     Node 5, Type 0, BuildingBlock: UXUYUI_clean_sbu_0, # of connection points: 4
#     Node 6, Type 0, BuildingBlock: UXUYUI_clean_sbu_0, # of connection points: 4
#     Node 7, Type 0, BuildingBlock: UXUYUI_clean_sbu_0, # of connection points: 4
#     Node 8, Type 0, BuildingBlock: UXUYUI_clean_sbu_0, # of connection points: 4
#     Node 9, Type 0, BuildingBlock: UXUYUI_clean_sbu_0, # of connection points: 4
#     Node 10, Type 0, BuildingBlock: UXUYUI_clean_sbu_0, # of connection points: 4
#     Node 11, Type 0, BuildingBlock: UXUYUI_clean_sbu_0, # of connection points: 4
#     Node 12, Type 0, BuildingBlock: UXUYUI_clean_sbu_0, # of connection points: 4
#     Node 13, Type 0, BuildingBlock: UXUYUI_clean_sbu_0, # of connection points: 4
#     Node 14, Type 0, BuildingBlock: UXUYUI_clean_sbu_0, # of connection points: 4
#     Node 15, Type 0, BuildingBlock: UXUYUI_clean_sbu_0, # of connection points: 4
#     Node 16, Type 0, BuildingBlock: UXUYUI_clean_sbu_0, # of connection points: 4
#     Node 17, Type 0, BuildingBlock: UXUYUI_clean_sbu_0, # of connection points: 4
#     Node 18, Type 0, BuildingBlock: UXUYUI_clean_sbu_0, # of connection points: 4
#     Node 19, Type 0, BuildingBlock: UXUYUI_clean_sbu_0, # of connection points: 4
#     Node 20, Type 0, BuildingBlock: UXUYUI_clean_sbu_0, # of connection points: 4
#     Node 21, Type 0, BuildingBlock: UXUYUI_clean_sbu_0, # of connection points: 4
#     Node 22, Type 0, BuildingBlock: UXUYUI_clean_sbu_0, # of connection points: 4
#     Node 23, Type 0, BuildingBlock: UXUYUI_clean_sbu_0, # of connection points: 4
#     Edge 24, Type (0, 0), BuildingBlock: XIVTED_clean_linker_0, # of connection points: 2
#     Edge 25, Type (0, 0), BuildingBlock: XIVTED_clean_linker_0, # of connection points: 2
#     Edge 26, Type (0, 0), BuildingBlock: XIVTED_clean_linker_0, # of connection points: 2
#     Edge 27, Type (0, 0), BuildingBlock: XIVTED_clean_linker_0, # of connection points: 2
#     Edge 28, Type (0, 0), BuildingBlock: XIVTED_clean_linker_0, # of connection points: 2
#     Edge 29, Type (0, 0), BuildingBlock: XIVTED_clean_linker_0, # of connection points: 2
#     Edge 30, Type (0, 0), BuildingBlock: XIVTED_clean_linker_0, # of connection points: 2
#     Edge 31, Type (0, 0), BuildingBlock: XIVTED_clean_linker_0, # of connection points: 2
#     Edge 32, Type (0, 0), BuildingBlock: XIVTED_clean_linker_0, # of connection points: 2
#     Edge 33, Type (0, 0), BuildingBlock: XIVTED_clean_linker_0, # of connection points: 2
#     Edge 34, Type (0, 0), BuildingBlock: XIVTED_clean_linker_0, # of connection points: 2
#     Edge 35, Type (0, 0), BuildingBlock: XIVTED_clean_linker_0, # of connection points: 2
#     Edge 36, Type (0, 0), BuildingBlock: XIVTED_clean_linker_0, # of connection points: 2
#     Edge 37, Type (0, 0), BuildingBlock: XIVTED_clean_linker_0, # of connection points: 2
#     Edge 38, Type (0, 0), BuildingBlock: XIVTED_clean_linker_0, # of connection points: 2
#     Edge 39, Type (0, 0), BuildingBlock: XIVTED_clean_linker_0, # of connection points: 2
#     Edge 40, Type (0, 0), BuildingBlock: XIVTED_clean_linker_0, # of connection points: 2
#     Edge 41, Type (0, 0), BuildingBlock: XIVTED_clean_linker_0, # of connection points: 2
#     Edge 42, Type (0, 0), BuildingBlock: XIVTED_clean_linker_0, # of connection points: 2
#     Edge 43, Type (0, 0), BuildingBlock: XIVTED_clean_linker_0, # of connection points: 2
#     Edge 44, Type (0, 0), BuildingBlock: XIVTED_clean_linker_0, # of connection points: 2
#     Edge 45, Type (0, 0), BuildingBlock: XIVTED_clean_linker_0, # of connection points: 2
#     Edge 46, Type (0, 0), BuildingBlock: XIVTED_clean_linker_0, # of connection points: 2
#     Edge 47, Type (0, 0), BuildingBlock: XIVTED_clean_linker_0, # of connection points: 2
#     Edge 48, Type (0, 0), BuildingBlock: XIVTED_clean_linker_0, # of connection points: 2
#     Edge 49, Type (0, 0), BuildingBlock: XIVTED_clean_linker_0, # of connection points: 2
#     Edge 50, Type (0, 0), BuildingBlock: XIVTED_clean_linker_0, # of connection points: 2
#     Edge 51, Type (0, 0), BuildingBlock: XIVTED_clean_linker_0, # of connection points: 2
#     Edge 52, Type (0, 0), BuildingBlock: XIVTED_clean_linker_0, # of connection points: 2
#     Edge 53, Type (0, 0), BuildingBlock: XIVTED_clean_linker_0, # of connection points: 2
#     Edge 54, Type (0, 0), BuildingBlock: XIVTED_clean_linker_0, # of connection points: 2
#     Edge 55, Type (0, 0), BuildingBlock: XIVTED_clean_linker_0, # of connection points: 2
#     Edge 56, Type (0, 0), BuildingBlock: XIVTED_clean_linker_0, # of connection points: 2
#     Edge 57, Type (0, 0), BuildingBlock: XIVTED_clean_linker_0, # of connection points: 2
#     Edge 58, Type (0, 0), BuildingBlock: XIVTED_clean_linker_0, # of connection points: 2
#     Edge 59, Type (0, 0), BuildingBlock: XIVTED_clean_linker_0, # of connection points: 2
#     Edge 60, Type (0, 0), BuildingBlock: XIVTED_clean_linker_0, # of connection points: 2
#     Edge 61, Type (0, 0), BuildingBlock: XIVTED_clean_linker_0, # of connection points: 2
#     Edge 62, Type (0, 0), BuildingBlock: XIVTED_clean_linker_0, # of connection points: 2
#     Edge 63, Type (0, 0), BuildingBlock: XIVTED_clean_linker_0, # of connection points: 2
#     Edge 64, Type (0, 0), BuildingBlock: XIVTED_clean_linker_0, # of connection points: 2
#     Edge 65, Type (0, 0), BuildingBlock: XIVTED_clean_linker_0, # of connection points: 2
#     Edge 66, Type (0, 0), BuildingBlock: XIVTED_clean_linker_0, # of connection points: 2
#     Edge 67, Type (0, 0), BuildingBlock: XIVTED_clean_linker_0, # of connection points: 2
#     Edge 68, Type (0, 0), BuildingBlock: XIVTED_clean_linker_0, # of connection points: 2
#     Edge 69, Type (0, 0), BuildingBlock: XIVTED_clean_linker_0, # of connection points: 2
#     Edge 70, Type (0, 0), BuildingBlock: XIVTED_clean_linker_0, # of connection points: 2
#     Edge 71, Type (0, 0), BuildingBlock: XIVTED_clean_linker_0, # of connection points: 2
# Relax obj value: 0.134
# Max RMSD: 0.127
# Mean RMSD: 0.126
data_MOF--net-afi--node1-UXUYUI_clean_sbu_0--edge1-XIVTED_clean_linker_0
_symmetry_space_group_name_H-M    P1
_symmetry_Int_Tables_number       1
_symmetry_cell_setting            triclinic
loop_
_symmetry_equiv_pos_as_xyz
'x, y, z'
_cell_length_a     97.459808
_cell_length_b     97.466543
_cell_length_c     60.68259
_cell_angle_alpha  90.012639
_cell_angle_beta   89.984172
_cell_angle_gamma 120.00634
loop_
_atom_site_label
_atom_site_type_symbol
_atom_site_fract_x
_atom_site_fract_y
_atom_site_fract_z
_atom_type_partial_charge
Li0 Li 0.46659 0.12055 0.19046 0.0
Li1 Li 0.43794 0.10263 0.19344 0.0
Li2 Li 0.45003 0.1177 0.15969 0.0
Li3 Li 0.44822 0.13084 0.19284 0.0
C4 C 0.45132 0.09181 0.15577 0.0
N5 N 0.4468 0.0738 0.11843 0.0
C6 C 0.4369 0.07788 0.15234 0.0
C7 C 0.46348 0.09653 0.14027 0.0
C8 C 0.43484 0.06894 0.13336 0.0
C9 C 0.46095 0.08728 0.12147 0.0
C10 C 0.44799 0.11146 0.23495 0.0
C11 C 0.42943 0.1011 0.26513 0.0
N12 N 0.43842 0.0957 0.27477 0.0
C13 C 0.4571 0.10588 0.24521 0.0
C14 C 0.43409 0.10914 0.24504 0.0
C15 C 0.45205 0.09792 0.26532 0.0
C16 C 0.49486 0.13424 0.21578 0.0
N17 N 0.48645 0.1234 0.1999 0.0
C18 C 0.50556 0.11491 0.19867 0.0
C19 C 0.49153 0.11387 0.19124 0.0
C20 C 0.5144 0.12581 0.2153 0.0
C21 C 0.50899 0.13571 0.22369 0.0
H22 H 0.49039 0.1415 0.2226 0.0
H23 H 0.48453 0.10524 0.17883 0.0
C24 C 0.40659 0.0774 0.20151 0.0
N25 N 0.42226 0.08295 0.20521 0.0
C26 C 0.39525 0.06269 0.20995 0.0
C27 C 0.41644 0.05987 0.22597 0.0
C28 C 0.42734 0.07442 0.21683 0.0
C29 C 0.40019 0.05385 0.22249 0.0
H30 H 0.4029 0.08427 0.19178 0.0
H31 H 0.43989 0.07889 0.21885 0.0
C32 C 0.48207 0.14913 0.1744 0.0
N33 N 0.5137 0.17164 0.17924 0.0
C34 C 0.48658 0.16194 0.18868 0.0
C35 C 0.49365 0.14781 0.16249 0.0
C36 C 0.50263 0.17319 0.19091 0.0
C37 C 0.50957 0.15929 0.16521 0.0
C38 C 0.41979 0.11909 0.17345 0.0
C39 C 0.41847 0.12601 0.15398 0.0
C40 C 0.41019 0.11754 0.19147 0.0
C41 C 0.40764 0.13141 0.15295 0.0
C42 C 0.39952 0.12312 0.1898 0.0
N43 N 0.39848 0.12988 0.17074 0.0
C44 C 0.43507 0.10627 0.11847 0.0
C45 C 0.46103 0.12847 0.1167 0.0
C46 C 0.43384 0.10591 0.09553 0.0
N47 N 0.44854 0.11741 0.1285 0.0
C48 C 0.46034 0.12853 0.09376 0.0
C49 C 0.4466 0.11716 0.08285 0.0
H50 H 0.42527 0.0977 0.12834 0.0
H51 H 0.47154 0.13725 0.12511 0.0
C52 C 0.44626 0.15044 0.2255 0.0
N53 N 0.44542 0.14754 0.20351 0.0
C54 C 0.44459 0.16294 0.23353 0.0
C55 C 0.44109 0.16913 0.1961 0.0
C56 C 0.44313 0.15671 0.1888 0.0
C57 C 0.44192 0.1725 0.21877 0.0
H58 H 0.44851 0.14322 0.23679 0.0
H59 H 0.44294 0.15439 0.17136 0.0
O60 O 0.45344 0.10092 0.17399 0.0
O61 O 0.45265 0.11914 0.21515 0.0
O62 O 0.46644 0.13785 0.17225 0.0
O63 O 0.43041 0.11384 0.17483 0.0
H64 H 0.42733 0.07408 0.1641 0.0
H65 H 0.47466 0.10738 0.14253 0.0
H66 H 0.42372 0.05817 0.13045 0.0
H67 H 0.4702 0.09087 0.10925 0.0
H68 H 0.41866 0.09915 0.27306 0.0
H69 H 0.46786 0.10752 0.23762 0.0
H70 H 0.42694 0.11343 0.23738 0.0
H71 H 0.45893 0.09346 0.27339 0.0
H72 H 0.50937 0.10717 0.19156 0.0
H73 H 0.51533 0.14412 0.23672 0.0
H74 H 0.3828 0.0583 0.20681 0.0
H75 H 0.42068 0.0532 0.23516 0.0
H76 H 0.4778 0.16314 0.19807 0.0
H77 H 0.49039 0.13787 0.15158 0.0
H78 H 0.50629 0.18313 0.20196 0.0
H79 H 0.51866 0.15835 0.15624 0.0
H80 H 0.42585 0.12735 0.1399 0.0
H81 H 0.41101 0.11217 0.20662 0.0
H82 H 0.40654 0.13686 0.13803 0.0
H83 H 0.39207 0.12207 0.20365 0.0
H84 H 0.42295 0.09706 0.08785 0.0
H85 H 0.47055 0.13728 0.08468 0.0
H86 H 0.44574 0.16527 0.25107 0.0
H87 H 0.43889 0.17599 0.18406 0.0
Li88 Li 0.34462 0.46687 0.19413 0.0
Li89 Li 0.33247 0.43676 0.19286 0.0
Li90 Li 0.33217 0.45194 0.16062 0.0
Li91 Li 0.31621 0.44903 0.19153 0.0
C92 C 0.36189 0.45938 0.15946 0.0
N93 N 0.38266 0.47039 0.12428 0.0
C94 C 0.36548 0.44913 0.14804 0.0
C95 C 0.36886 0.47524 0.15298 0.0
C96 C 0.37602 0.45492 0.1303 0.0
C97 C 0.37934 0.48057 0.13516 0.0
C98 C 0.32257 0.45041 0.23419 0.0
C99 C 0.30043 0.43691 0.25905 0.0
N100 N 0.30561 0.45059 0.2706 0.0
C101 C 0.32774 0.46429 0.24641 0.0
C102 C 0.30887 0.43656 0.24067 0.0
C103 C 0.31898 0.46416 0.26473 0.0
C104 C 0.35947 0.49821 0.21094 0.0
N105 N 0.36144 0.4857 0.20603 0.0
C106 C 0.38833 0.49982 0.21809 0.0
C107 C 0.37546 0.48623 0.20941 0.0
C108 C 0.38669 0.51294 0.22364 0.0
C109 C 0.372 0.51201 0.21991 0.0
H110 H 0.34812 0.49737 0.20811 0.0
H111 H 0.37666 0.47609 0.20522 0.0
C112 C 0.33989 0.41216 0.18997 0.0
N113 N 0.33508 0.41997 0.20365 0.0
C114 C 0.34361 0.4011 0.19845 0.0
C115 C 0.3362 0.40549 0.23466 0.0
C116 C 0.33297 0.4167 0.22555 0.0
C117 C 0.3421 0.39784 0.22122 0.0
H118 H 0.34127 0.41487 0.17257 0.0
H119 H 0.32912 0.42306 0.23607 0.0
C120 C 0.32054 0.47311 0.16245 0.0
N121 N 0.30223 0.4817 0.13775 0.0
C122 C 0.30718 0.46158 0.1513 0.0
C123 C 0.32457 0.489 0.16109 0.0
C124 C 0.29808 0.46616 0.13889 0.0
C125 C 0.31517 0.49311 0.14849 0.0
C126 C 0.30139 0.41786 0.17034 0.0
C127 C 0.29236 0.4145 0.15111 0.0
C128 C 0.29636 0.4066 0.1872 0.0
C129 C 0.27829 0.4 0.14924 0.0
C130 C 0.28223 0.39224 0.18469 0.0
N131 N 0.27355 0.38927 0.16593 0.0
C132 C 0.32967 0.43869 0.11886 0.0
C133 C 0.338 0.46608 0.11808 0.0
C134 C 0.33008 0.43822 0.0959 0.0
N135 N 0.33346 0.45243 0.12939 0.0
C136 C 0.3385 0.46614 0.09509 0.0
C137 C 0.3344 0.45205 0.08367 0.0
H138 H 0.32632 0.42808 0.12835 0.0
H139 H 0.34115 0.4769 0.12689 0.0
C140 C 0.29853 0.46093 0.2111 0.0
N141 N 0.29683 0.44771 0.20101 0.0
C142 C 0.28538 0.46124 0.2195 0.0
C143 C 0.26877 0.43457 0.20604 0.0
C144 C 0.28229 0.43471 0.19819 0.0
C145 C 0.2702 0.44791 0.21708 0.0
H146 H 0.31022 0.47118 0.21293 0.0
H147 H 0.28104 0.42439 0.18989 0.0
O148 O 0.35119 0.45386 0.17642 0.0
O149 O 0.33084 0.45042 0.21595 0.0
O150 O 0.3296 0.46894 0.17484 0.0
O151 O 0.31523 0.43197 0.17236 0.0
H152 H 0.36014 0.43681 0.1527 0.0
H153 H 0.36598 0.48328 0.16135 0.0
H154 H 0.37888 0.4471 0.12127 0.0
H155 H 0.38474 0.49279 0.1299 0.0
H156 H 0.28972 0.42632 0.2641 0.0
H157 H 0.33835 0.47509 0.24175 0.0
H158 H 0.30466 0.42572 0.2314 0.0
H159 H 0.3228 0.47484 0.27427 0.0
H160 H 0.39948 0.50006 0.22021 0.0
H161 H 0.37009 0.52172 0.22417 0.0
H162 H 0.34824 0.39569 0.18737 0.0
H163 H 0.3344 0.40313 0.25216 0.0
H164 H 0.30386 0.44924 0.15228 0.0
H165 H 0.33487 0.49806 0.16967 0.0
H166 H 0.2877 0.45735 0.13018 0.0
H167 H 0.31816 0.50537 0.14727 0.0
H168 H 0.29615 0.42299 0.13777 0.0
H169 H 0.30324 0.40892 0.20209 0.0
H170 H 0.27115 0.39727 0.13449 0.0
H171 H 0.27816 0.38345 0.19765 0.0
H172 H 0.32711 0.42717 0.08784 0.0
H173 H 0.34178 0.47705 0.08639 0.0
H174 H 0.28715 0.47173 0.2281 0.0
H175 H 0.25732 0.42414 0.20331 0.0
Li176 Li 0.87418 0.34691 0.19095 0.0
Li177 Li 0.89333 0.33641 0.19133 0.0
Li178 Li 0.87754 0.33362 0.16036 0.0
Li179 Li 0.86455 0.31721 0.19106 0.0
C180 C 0.90204 0.36196 0.15569 0.0
N181 N 0.9178 0.37748 0.1177 0.0
C182 C 0.91306 0.35861 0.14605 0.0
C183 C 0.8991 0.37328 0.14608 0.0
C184 C 0.92088 0.36655 0.12682 0.0
C185 C 0.90718 0.38098 0.12686 0.0
C186 C 0.8787 0.33596 0.23565 0.0
C187 C 0.87527 0.32594 0.2728 0.0
N188 N 0.88191 0.341 0.28065 0.0
C189 C 0.88539 0.35133 0.2441 0.0
C190 C 0.87351 0.32315 0.25011 0.0
C191 C 0.88695 0.35364 0.26689 0.0
C192 C 0.85589 0.35797 0.21231 0.0
N193 N 0.86992 0.36253 0.20204 0.0
C194 C 0.87827 0.38981 0.208 0.0
C195 C 0.8811 0.37806 0.1999 0.0
C196 C 0.86388 0.3855 0.21865 0.0
C197 C 0.85263 0.36934 0.22091 0.0
H198 H 0.84728 0.3455 0.21387 0.0
H199 H 0.8923 0.3813 0.19213 0.0
C200 C 0.92182 0.33523 0.19076 0.0
N201 N 0.91338 0.34049 0.20229 0.0
C202 C 0.93666 0.33836 0.19826 0.0
C203 C 0.93381 0.35218 0.22942 0.0
C204 C 0.91911 0.34889 0.22122 0.0
C205 C 0.94282 0.34695 0.21785 0.0
H206 H 0.91709 0.3287 0.1756 0.0
H207 H 0.91242 0.35329 0.2298 0.0
C208 C 0.84656 0.32461 0.15706 0.0
N209 N 0.82522 0.31475 0.12261 0.0
C210 C 0.84176 0.31005 0.14683 0.0
C211 C 0.84041 0.33408 0.14997 0.0
C212 C 0.831 0.3053 0.12938 0.0
C213 C 0.82965 0.3289 0.13247 0.0
C214 C 0.8842 0.30541 0.18058 0.0
C215 C 0.88512 0.29473 0.16611 0.0
C216 C 0.88596 0.30409 0.20321 0.0
C217 C 0.88777 0.28292 0.17454 0.0
C218 C 0.88861 0.29213 0.21099 0.0
N219 N 0.88945 0.28187 0.19662 0.0
C220 C 0.88224 0.32463 0.11817 0.0
C221 C 0.873 0.34296 0.11761 0.0
C222 C 0.88249 0.32435 0.09519 0.0
N223 N 0.8775 0.33379 0.12886 0.0
C224 C 0.87313 0.34311 0.09462 0.0
C225 C 0.87789 0.33368 0.08312 0.0
H226 H 0.88594 0.31761 0.12751 0.0
H227 H 0.86939 0.35024 0.1265 0.0
C228 C 0.83881 0.29877 0.21824 0.0
N229 N 0.84797 0.29781 0.20213 0.0
C230 C 0.82627 0.28503 0.22717 0.0
C231 C 0.83275 0.26955 0.20262 0.0
C232 C 0.84508 0.28361 0.19403 0.0
C233 C 0.82312 0.27012 0.21944 0.0
H234 H 0.84125 0.31027 0.22406 0.0
H235 H 0.85228 0.28316 0.18084 0.0
O236 O 0.89405 0.35405 0.17426 0.0
O237 O 0.87681 0.33344 0.21337 0.0
O238 O 0.85722 0.32955 0.17398 0.0
O239 O 0.88148 0.31696 0.17245 0.0
H240 H 0.91539 0.34981 0.15318 0.0
H241 H 0.89045 0.37587 0.15311 0.0
H242 H 0.92936 0.36399 0.11911 0.0
H243 H 0.90494 0.38968 0.11916 0.0
H244 H 0.87134 0.31613 0.28416 0.0
H245 H 0.88956 0.3614 0.23319 0.0
H246 H 0.86814 0.31114 0.24394 0.0
H247 H 0.8922 0.36547 0.27364 0.0
H248 H 0.88736 0.40213 0.20629 0.0
H249 H 0.84138 0.36557 0.22898 0.0
H250 H 0.94323 0.3341 0.18887 0.0
H251 H 0.93827 0.35915 0.24432 0.0
H252 H 0.84646 0.30261 0.15215 0.0
H253 H 0.84401 0.34537 0.1578 0.0
H254 H 0.82725 0.29412 0.12118 0.0
H255 H 0.82485 0.33614 0.12671 0.0
H256 H 0.88371 0.29549 0.14855 0.0
H257 H 0.88542 0.31226 0.21464 0.0
H258 H 0.88848 0.27457 0.16352 0.0
H259 H 0.89002 0.29102 0.22847 0.0
H260 H 0.88645 0.31708 0.08696 0.0
H261 H 0.86938 0.35038 0.08595 0.0
H262 H 0.81897 0.28611 0.23972 0.0
H263 H 0.83088 0.25837 0.19624 0.0
Li264 Li 0.55931 0.89526 0.19179 0.0
Li265 Li 0.53062 0.87734 0.18984 0.0
Li266 Li 0.54896 0.86637 0.19114 0.0
Li267 Li 0.54602 0.87891 0.15785 0.0
C268 C 0.55118 0.88055 0.23449 0.0
N269 N 0.56294 0.88338 0.2767 0.0
C270 C 0.54339 0.88273 0.25232 0.0
C271 C 0.56484 0.87962 0.23817 0.0
C272 C 0.54955 0.8842 0.27352 0.0
C273 C 0.57062 0.88112 0.25962 0.0
C274 C 0.53508 0.90363 0.1707 0.0
C275 C 0.51271 0.90522 0.15694 0.0
N276 N 0.51668 0.91787 0.17031 0.0
C277 C 0.53903 0.91672 0.18417 0.0
C278 C 0.5219 0.89789 0.15684 0.0
C279 C 0.52955 0.92373 0.18378 0.0
C280 C 0.58801 0.9243 0.18906 0.0
N281 N 0.57547 0.91516 0.20235 0.0
C282 C 0.5852 0.93529 0.22998 0.0
C283 C 0.57386 0.92034 0.22245 0.0
C284 C 0.5982 0.94509 0.21655 0.0
C285 C 0.5996 0.93941 0.19589 0.0
H286 H 0.58886 0.91994 0.17302 0.0
H287 H 0.56353 0.91308 0.23238 0.0
C288 C 0.49704 0.86243 0.19382 0.0
N289 N 0.51114 0.8748 0.20046 0.0
C290 C 0.48284 0.86068 0.20202 0.0
C291 C 0.498 0.8844 0.22371 0.0
C292 C 0.51187 0.88564 0.21518 0.0
C293 C 0.48321 0.87174 0.21723 0.0
H294 H 0.49681 0.85385 0.18233 0.0
H295 H 0.52326 0.89529 0.22028 0.0
C296 C 0.58014 0.88372 0.17018 0.0
N297 N 0.60901 0.88515 0.16502 0.0
C298 C 0.58329 0.8777 0.15112 0.0
C299 C 0.59179 0.89069 0.18645 0.0
C300 C 0.59792 0.87847 0.14886 0.0
C301 C 0.60628 0.89124 0.18358 0.0
C302 C 0.52186 0.84844 0.15703 0.0
C303 C 0.52429 0.83554 0.15478 0.0
C304 C 0.51153 0.85004 0.14268 0.0
C305 C 0.51647 0.82454 0.13798 0.0
C306 C 0.50396 0.8388 0.12608 0.0
N307 N 0.50657 0.82639 0.12408 0.0
C308 C 0.54109 0.84073 0.21869 0.0
C309 C 0.56267 0.84642 0.1951 0.0
C310 C 0.54185 0.82803 0.22797 0.0
N311 N 0.55144 0.84962 0.20262 0.0
C312 C 0.56394 0.83391 0.20402 0.0
C313 C 0.5534 0.82446 0.22066 0.0
H314 H 0.53218 0.84347 0.22418 0.0
H315 H 0.57063 0.85346 0.18213 0.0
C316 C 0.54741 0.89128 0.11541 0.0
N317 N 0.54666 0.87881 0.12651 0.0
C318 C 0.54778 0.89159 0.0924 0.0
C319 C 0.54653 0.86617 0.0927 0.0
C320 C 0.54649 0.86651 0.11568 0.0
C321 C 0.54718 0.87883 0.08084 0.0
H322 H 0.54772 0.901 0.12444 0.0
H323 H 0.54635 0.85696 0.12486 0.0
O324 O 0.5453 0.87916 0.21362 0.0
O325 O 0.54405 0.89644 0.17113 0.0
O326 O 0.56588 0.8831 0.17259 0.0
O327 O 0.52947 0.85937 0.17331 0.0
H328 H 0.53272 0.88336 0.2498 0.0
H329 H 0.57082 0.8776 0.22467 0.0
H330 H 0.54369 0.88598 0.28745 0.0
H331 H 0.58119 0.88042 0.26269 0.0
H332 H 0.50241 0.90084 0.1464 0.0
H333 H 0.54922 0.92133 0.19495 0.0
H334 H 0.51876 0.88785 0.1462 0.0
H335 H 0.5324 0.93381 0.19421 0.0
H336 H 0.58347 0.93936 0.2458 0.0
H337 H 0.60945 0.94661 0.18505 0.0
H338 H 0.47174 0.85061 0.1968 0.0
H339 H 0.49889 0.89335 0.23512 0.0
H340 H 0.57449 0.87238 0.13828 0.0
H341 H 0.58977 0.89575 0.20108 0.0
H342 H 0.60046 0.87376 0.13426 0.0
H343 H 0.61537 0.89656 0.19608 0.0
H344 H 0.5322 0.83409 0.16579 0.0
H345 H 0.50948 0.85992 0.14424 0.0
H346 H 0.5183 0.81454 0.13598 0.0
H347 H 0.49601 0.83995 0.11476 0.0
H348 H 0.53328 0.82093 0.24046 0.0
H349 H 0.57315 0.83175 0.19801 0.0
H350 H 0.54829 0.90154 0.08374 0.0
H351 H 0.54628 0.85625 0.0843 0.0
Li352 Li 0.65071 0.52856 0.18893 0.0
Li353 Li 0.66042 0.5572 0.19144 0.0
Li354 Li 0.66297 0.54491 0.15754 0.0
Li355 Li 0.6793 0.54779 0.18985 0.0
C356 C 0.63532 0.54254 0.15514 0.0
N357 N 0.62076 0.54616 0.11832 0.0
C358 C 0.63588 0.55694 0.1512 0.0
C359 C 0.62731 0.52996 0.14041 0.0
C360 C 0.62843 0.55853 0.13249 0.0
C361 C 0.62005 0.53204 0.12186 0.0
C362 C 0.66122 0.54739 0.23335 0.0
C363 C 0.67058 0.56519 0.26444 0.0
N364 N 0.65654 0.55597 0.27487 0.0
C365 C 0.64693 0.53802 0.24444 0.0
C366 C 0.6732 0.56102 0.24348 0.0
C367 C 0.64478 0.54259 0.2654 0.0
C368 C 0.63853 0.50104 0.21534 0.0
N369 N 0.63479 0.50847 0.19947 0.0
C370 C 0.60795 0.48734 0.19895 0.0
C371 C 0.61986 0.50198 0.19127 0.0
C372 C 0.61141 0.47938 0.21539 0.0
C373 C 0.62695 0.48639 0.22359 0.0
H374 H 0.65051 0.50656 0.22165 0.0
H375 H 0.61716 0.50827 0.17895 0.0
C376 C 0.66505 0.58817 0.19732 0.0
N377 N 0.65622 0.57272 0.20345 0.0
C378 C 0.66159 0.59945 0.20573 0.0
C379 C 0.64013 0.57871 0.22668 0.0
C380 C 0.64377 0.56781 0.21751 0.0
C381 C 0.64907 0.59473 0.22073 0.0
H382 H 0.67458 0.59169 0.18561 0.0
H383 H 0.63653 0.55538 0.22135 0.0
C384 C 0.66447 0.51384 0.17205 0.0
N385 N 0.65698 0.48268 0.17734 0.0
C386 C 0.67398 0.51016 0.18518 0.0
C387 C 0.65121 0.50166 0.16149 0.0
C388 C 0.66999 0.49434 0.18766 0.0
C389 C 0.64759 0.48598 0.16443 0.0
C390 C 0.69413 0.57696 0.17066 0.0
C391 C 0.70269 0.57965 0.1511 0.0
C392 C 0.70135 0.58668 0.18891 0.0
C393 C 0.71841 0.59197 0.1502 0.0
C394 C 0.71709 0.59886 0.18736 0.0
N395 N 0.72523 0.60123 0.1682 0.0
C396 C 0.6666 0.56005 0.11654 0.0
C397 C 0.65915 0.5329 0.11425 0.0
C398 C 0.6665 0.56113 0.0936 0.0
N399 N 0.663 0.54609 0.12631 0.0
C400 C 0.65862 0.53337 0.09132 0.0
C401 C 0.66238 0.54764 0.08077 0.0
H402 H 0.66953 0.57031 0.12661 0.0
H403 H 0.6564 0.52199 0.12243 0.0
C404 C 0.70037 0.54832 0.22173 0.0
N405 N 0.69925 0.55149 0.20023 0.0
C406 C 0.71461 0.55043 0.23012 0.0
C407 C 0.72637 0.55917 0.1941 0.0
C408 C 0.71178 0.55656 0.18632 0.0
C409 C 0.72795 0.55602 0.21631 0.0
H410 H 0.69008 0.54383 0.23229 0.0
H411 H 0.71044 0.55848 0.16912 0.0
O412 O 0.64292 0.5409 0.17303 0.0
O413 O 0.66352 0.54317 0.21277 0.0
O414 O 0.66805 0.52924 0.1697 0.0
O415 O 0.67875 0.56491 0.17188 0.0
H416 H 0.6421 0.56683 0.16233 0.0
H417 H 0.62698 0.51882 0.14299 0.0
H418 H 0.62882 0.56962 0.12919 0.0
H419 H 0.61393 0.52246 0.11022 0.0
H420 H 0.67972 0.57574 0.27243 0.0
H421 H 0.63752 0.52746 0.23685 0.0
H422 H 0.68439 0.56829 0.23525 0.0
H423 H 0.63375 0.53551 0.27412 0.0
H424 H 0.59606 0.48249 0.19247 0.0
H425 H 0.63013 0.48061 0.23618 0.0
H426 H 0.66861 0.61171 0.20062 0.0
H427 H 0.63014 0.5746 0.2378 0.0
H428 H 0.6843 0.5194 0.19345 0.0
H429 H 0.64355 0.50423 0.15156 0.0
H430 H 0.67721 0.49133 0.19783 0.0
H431 H 0.63727 0.47644 0.15654 0.0
H432 H 0.69732 0.57219 0.13684 0.0
H433 H 0.69486 0.58484 0.2041 0.0
H434 H 0.7252 0.59414 0.13521 0.0
H435 H 0.72284 0.60644 0.20139 0.0
H436 H 0.66939 0.57231 0.08599 0.0
H437 H 0.65553 0.52277 0.0819 0.0
H438 H 0.715 0.54734 0.24715 0.0
H439 H 0.73626 0.56362 0.18278 0.0
Li440 Li 0.11924 0.66515 0.15593 0.0
Li441 Li 0.1314 0.68051 0.18965 0.0
Li442 Li 0.1239 0.65271 0.18624 0.0
Li443 Li 0.103 0.65992 0.1894 0.0
C444 C 0.15211 0.66763 0.17026 0.0
N445 N 0.17576 0.66 0.17436 0.0
C446 C 0.16505 0.67651 0.1841 0.0
C447 C 0.15129 0.65496 0.15834 0.0
C448 C 0.17687 0.67245 0.18598 0.0
C449 C 0.16333 0.65125 0.1607 0.0
C450 C 0.11388 0.69316 0.16671 0.0
C451 C 0.10659 0.71298 0.17432 0.0
N452 N 0.11447 0.721 0.15589 0.0
C453 C 0.12182 0.70155 0.14777 0.0
C454 C 0.10611 0.69886 0.18002 0.0
C455 C 0.12201 0.71561 0.14261 0.0
C456 C 0.10704 0.66808 0.11491 0.0
N457 N 0.1187 0.66647 0.12471 0.0
C458 C 0.12944 0.66564 0.08972 0.0
C459 C 0.12989 0.66542 0.11267 0.0
C460 C 0.11755 0.66727 0.07915 0.0
C461 C 0.10631 0.66866 0.09197 0.0
H462 H 0.09827 0.66885 0.12495 0.0
H463 H 0.1391 0.6643 0.12087 0.0
C464 C 0.15358 0.7001 0.22135 0.0
N465 N 0.14677 0.70037 0.20194 0.0
C466 C 0.16563 0.7141 0.23049 0.0
C467 C 0.16326 0.7285 0.19972 0.0
C468 C 0.1514 0.71419 0.19105 0.0
C469 C 0.1707 0.72859 0.2196 0.0
H470 H 0.15001 0.68892 0.22941 0.0
H471 H 0.1462 0.71415 0.1754 0.0
C472 C 0.09537 0.6366 0.15106 0.0
N473 N 0.07843 0.62225 0.11323 0.0
C474 C 0.08056 0.63523 0.14752 0.0
C475 C 0.10151 0.63057 0.13542 0.0
C476 C 0.07219 0.62794 0.12829 0.0
C477 C 0.09279 0.62341 0.11638 0.0
C478 C 0.11681 0.66726 0.23139 0.0
C479 C 0.11584 0.65823 0.24983 0.0
C480 C 0.1145 0.68022 0.23379 0.0
C481 C 0.11253 0.66232 0.27042 0.0
C482 C 0.11124 0.68394 0.25466 0.0
N483 N 0.11032 0.67499 0.27239 0.0
C484 C 0.13752 0.64027 0.21513 0.0
C485 C 0.1225 0.62301 0.18606 0.0
C486 C 0.13996 0.62855 0.22441 0.0
N487 N 0.12876 0.63723 0.19647 0.0
C488 C 0.12481 0.61103 0.19459 0.0
C489 C 0.1334 0.61365 0.21421 0.0
H490 H 0.14227 0.65169 0.2231 0.0
H491 H 0.11537 0.62082 0.17147 0.0
C492 C 0.07277 0.65796 0.19359 0.0
N493 N 0.08278 0.65325 0.20165 0.0
C494 C 0.05745 0.65156 0.20216 0.0
C495 C 0.06335 0.63609 0.22755 0.0
C496 C 0.0784 0.64259 0.21831 0.0
C497 C 0.05249 0.64027 0.2192 0.0
H498 H 0.07649 0.66625 0.18002 0.0
H499 H 0.08652 0.6389 0.22415 0.0
O500 O 0.14025 0.67124 0.16854 0.0
O501 O 0.11334 0.67923 0.17186 0.0
O502 O 0.10392 0.64406 0.16954 0.0
O503 O 0.11985 0.66328 0.2111 0.0
H504 H 0.16599 0.68643 0.19328 0.0
H505 H 0.14129 0.64783 0.14774 0.0
H506 H 0.18692 0.6792 0.19668 0.0
H507 H 0.16275 0.64138 0.15175 0.0
H508 H 0.10067 0.71754 0.18451 0.0
H509 H 0.12799 0.6974 0.13734 0.0
H510 H 0.09971 0.69243 0.19457 0.0
H511 H 0.12819 0.72227 0.12809 0.0
H512 H 0.13838 0.66468 0.08032 0.0
H513 H 0.09693 0.66986 0.08431 0.0
H514 H 0.17123 0.71346 0.24556 0.0
H515 H 0.16661 0.73935 0.19081 0.0
H516 H 0.07562 0.63981 0.15938 0.0
H517 H 0.11303 0.63171 0.13769 0.0
H518 H 0.06074 0.62685 0.12531 0.0
H519 H 0.09748 0.61884 0.10404 0.0
H520 H 0.11754 0.64812 0.24821 0.0
H521 H 0.11531 0.68737 0.21971 0.0
H522 H 0.11171 0.65541 0.28483 0.0
H523 H 0.10945 0.69396 0.25676 0.0
H524 H 0.14672 0.63104 0.23951 0.0
H525 H 0.11937 0.59962 0.18642 0.0
H526 H 0.04944 0.65499 0.195 0.0
H527 H 0.06023 0.6277 0.24094 0.0
Li528 Li 0.86281 0.54735 0.30637 0.0
Li529 Li 0.87445 0.54383 0.34006 0.0
Li530 Li 0.89008 0.55372 0.30619 0.0
Li531 Li 0.86919 0.52607 0.3098 0.0
C532 C 0.87792 0.57611 0.32554 0.0
N533 N 0.87125 0.60047 0.32829 0.0
C534 C 0.87244 0.57899 0.34532 0.0
C535 C 0.88016 0.5857 0.30723 0.0
C536 C 0.86911 0.59135 0.34636 0.0
C537 C 0.87666 0.59793 0.30893 0.0
C538 C 0.84098 0.51419 0.32589 0.0
C539 C 0.82784 0.48668 0.33661 0.0
N540 N 0.81607 0.4835 0.32193 0.0
C541 C 0.82874 0.51066 0.31095 0.0
C542 C 0.84052 0.50212 0.33889 0.0
C543 C 0.81625 0.49507 0.30919 0.0
C544 C 0.84399 0.54968 0.27313 0.0
N545 N 0.84776 0.55237 0.29484 0.0
C546 C 0.82843 0.56026 0.30045 0.0
C547 C 0.84016 0.55741 0.30857 0.0
C548 C 0.82403 0.55734 0.27812 0.0
C549 C 0.83207 0.55202 0.2644 0.0
H550 H 0.84988 0.54522 0.26272 0.0
H551 H 0.84303 0.55896 0.32591 0.0
C552 C 0.888 0.55724 0.38144 0.0
N553 N 0.87494 0.54559 0.37123 0.0
C554 C 0.88882 0.55794 0.40443 0.0
C555 C 0.86249 0.53502 0.40584 0.0
C556 C 0.86221 0.53474 0.38287 0.0
C557 C 0.876 0.5466 0.41693 0.0
H558 H 0.89788 0.56581 0.37171 0.0
H559 H 0.85188 0.52579 0.37432 0.0
C560 C 0.88091 0.54428 0.26513 0.0
N561 N 0.89772 0.5524 0.22606 0.0
C562 C 0.88574 0.53424 0.2559 0.0
C563 C 0.88451 0.55838 0.25441 0.0
C564 C 0.89425 0.53857 0.23615 0.0
C565 C 0.89306 0.5623 0.2347 0.0
C566 C 0.89785 0.53796 0.34435 0.0
C567 C 0.91316 0.55083 0.34705 0.0
C568 C 0.89149 0.52605 0.36035 0.0
C569 C 0.92185 0.55158 0.36577 0.0
C570 C 0.90055 0.52725 0.37886 0.0
N571 N 0.91541 0.53988 0.38116 0.0
C572 C 0.91787 0.58283 0.2945 0.0
C573 C 0.9178 0.55906 0.28593 0.0
C574 C 0.93325 0.59187 0.28618 0.0
N575 N 0.91055 0.56675 0.29422 0.0
C576 C 0.93302 0.56758 0.27724 0.0
C577 C 0.94108 0.58423 0.27752 0.0
H578 H 0.9119 0.58862 0.30152 0.0
H579 H 0.91175 0.54626 0.28625 0.0
C580 C 0.85344 0.49868 0.28329 0.0
N581 N 0.86337 0.50518 0.30075 0.0
C582 C 0.85022 0.48401 0.27494 0.0
C583 C 0.86709 0.48281 0.30318 0.0
C584 C 0.87008 0.49754 0.31086 0.0
C585 C 0.85728 0.47599 0.28474 0.0
H586 H 0.84839 0.50512 0.27548 0.0
H587 H 0.87813 0.5031 0.32445 0.0
O588 O 0.88118 0.56402 0.32417 0.0
O589 O 0.85348 0.52931 0.32753 0.0
O590 O 0.87279 0.54038 0.28463 0.0
O591 O 0.88905 0.53713 0.3263 0.0
H592 H 0.87064 0.57168 0.35965 0.0
H593 H 0.88443 0.58366 0.29183 0.0
H594 H 0.86479 0.59367 0.36152 0.0
H595 H 0.87825 0.60539 0.29485 0.0
H596 H 0.82739 0.4772 0.34644 0.0
H597 H 0.82891 0.51983 0.30072 0.0
H598 H 0.84998 0.5046 0.35036 0.0
H599 H 0.80672 0.49216 0.29765 0.0
H600 H 0.8228 0.56455 0.31169 0.0
H601 H 0.82889 0.54916 0.24725 0.0
H602 H 0.8995 0.56701 0.41227 0.0
H603 H 0.8522 0.52627 0.41479 0.0
H604 H 0.88314 0.52333 0.26403 0.0
H605 H 0.8808 0.56625 0.2613 0.0
H606 H 0.89815 0.53096 0.22888 0.0
H607 H 0.89599 0.57321 0.22629 0.0
H608 H 0.91825 0.56022 0.33495 0.0
H609 H 0.87958 0.51612 0.35871 0.0
H610 H 0.93369 0.56149 0.3681 0.0
H611 H 0.89573 0.51819 0.39145 0.0
H612 H 0.93905 0.60467 0.28702 0.0
H613 H 0.93841 0.56114 0.2704 0.0
H614 H 0.84252 0.47912 0.26077 0.0
H615 H 0.87297 0.47715 0.31099 0.0
Li616 Li 0.3315 0.87894 0.33651 0.0
Li617 Li 0.31523 0.86584 0.30555 0.0
Li618 Li 0.34502 0.87605 0.30484 0.0
Li619 Li 0.33341 0.89414 0.30398 0.0
C620 C 0.32605 0.84877 0.33945 0.0
N621 N 0.32205 0.82836 0.3736 0.0
C622 C 0.31295 0.84333 0.35344 0.0
C623 C 0.33707 0.84378 0.34274 0.0
C624 C 0.31116 0.83304 0.37065 0.0
C625 C 0.33484 0.83346 0.36011 0.0
C626 C 0.29973 0.87943 0.32317 0.0
C627 C 0.27807 0.87945 0.30399 0.0
N628 N 0.26851 0.87231 0.32164 0.0
C629 C 0.28971 0.87218 0.34117 0.0
C630 C 0.29389 0.88317 0.30448 0.0
C631 C 0.27396 0.86865 0.34006 0.0
C632 C 0.3247 0.88653 0.37836 0.0
N633 N 0.33245 0.88003 0.368 0.0
C634 C 0.34113 0.87529 0.40252 0.0
C635 C 0.3409 0.8748 0.37955 0.0
C636 C 0.33279 0.88146 0.41371 0.0
C637 C 0.32465 0.88732 0.40131 0.0
H638 H 0.31855 0.89112 0.36878 0.0
H639 H 0.34752 0.87028 0.37094 0.0
C640 C 0.29416 0.84516 0.2735 0.0
N641 N 0.2955 0.84901 0.29522 0.0
C642 C 0.28003 0.83269 0.26526 0.0
C643 C 0.26888 0.82845 0.30187 0.0
C644 C 0.28329 0.84083 0.30943 0.0
C645 C 0.26711 0.82412 0.27951 0.0
H646 H 0.30415 0.8516 0.26261 0.0
H647 H 0.28469 0.84383 0.32669 0.0
C648 C 0.35942 0.9046 0.33925 0.0
N649 N 0.37521 0.92215 0.37598 0.0
C650 C 0.35636 0.91627 0.34717 0.0
C651 C 0.37055 0.90189 0.34993 0.0
C652 C 0.36445 0.925 0.36579 0.0
C653 C 0.3784 0.91089 0.36849 0.0
C654 C 0.33326 0.88402 0.26141 0.0
C655 C 0.34756 0.88888 0.25036 0.0
C656 C 0.3213 0.88563 0.25117 0.0
C657 C 0.34977 0.89559 0.2294 0.0
C658 C 0.32398 0.89241 0.2302 0.0
N659 N 0.33804 0.89722 0.21985 0.0
C660 C 0.35882 0.8594 0.28494 0.0
C661 C 0.37666 0.8858 0.29606 0.0
C662 C 0.37138 0.85772 0.27696 0.0
N663 N 0.36172 0.87327 0.29431 0.0
C664 C 0.38953 0.8846 0.28851 0.0
C665 C 0.38698 0.87043 0.27883 0.0
H666 H 0.34677 0.84967 0.28367 0.0
H667 H 0.37857 0.89678 0.30319 0.0
C668 C 0.32906 0.92084 0.30069 0.0
N669 N 0.33736 0.91404 0.29296 0.0
C670 C 0.33252 0.93579 0.29317 0.0
C671 C 0.35295 0.93638 0.2699 0.0
C672 C 0.34932 0.92161 0.27818 0.0
C673 C 0.34454 0.94365 0.27748 0.0
H674 H 0.31997 0.9148 0.313 0.0
H675 H 0.35625 0.91632 0.27314 0.0
O676 O 0.32808 0.85888 0.32255 0.0
O677 O 0.31518 0.88289 0.32389 0.0
O678 O 0.35128 0.89563 0.32144 0.0
O679 O 0.33094 0.87753 0.28202 0.0
H680 H 0.30447 0.84728 0.35133 0.0
H681 H 0.34727 0.8479 0.33205 0.0
H682 H 0.30116 0.82884 0.38172 0.0
H683 H 0.34329 0.82953 0.3629 0.0
H684 H 0.27339 0.88225 0.2896 0.0
H685 H 0.29395 0.86902 0.3557 0.0
H686 H 0.3015 0.88893 0.29053 0.0
H687 H 0.26605 0.86293 0.35379 0.0
H688 H 0.34788 0.87101 0.41143 0.0
H689 H 0.31808 0.89219 0.40926 0.0
H690 H 0.2794 0.82961 0.248 0.0
H691 H 0.25926 0.82236 0.31348 0.0
H692 H 0.34768 0.91841 0.33919 0.0
H693 H 0.37291 0.89276 0.34416 0.0
H694 H 0.36214 0.93402 0.37218 0.0
H695 H 0.38697 0.90885 0.37701 0.0
H696 H 0.35692 0.88765 0.25797 0.0
H697 H 0.31006 0.88164 0.25926 0.0
H698 H 0.36082 0.89952 0.22073 0.0
H699 H 0.31485 0.8938 0.22212 0.0
H700 H 0.36893 0.84658 0.26967 0.0
H701 H 0.40135 0.89477 0.2899 0.0
H702 H 0.32592 0.94115 0.29955 0.0
H703 H 0.36259 0.94229 0.25824 0.0
Li704 Li 0.43924 0.33531 0.30485 0.0
Li705 Li 0.46816 0.34517 0.3065 0.0
Li706 Li 0.44922 0.3164 0.30567 0.0
Li707 Li 0.45223 0.33322 0.33802 0.0
C708 C 0.45154 0.33392 0.26122 0.0
N709 N 0.4489 0.33733 0.21646 0.0
C710 C 0.46076 0.34866 0.25113 0.0
C711 C 0.4411 0.32088 0.24849 0.0
C712 C 0.45921 0.35015 0.2285 0.0
C713 C 0.4399 0.32286 0.2259 0.0
C714 C 0.45512 0.36135 0.34028 0.0
C715 C 0.46669 0.37658 0.37332 0.0
N716 N 0.45341 0.37758 0.37656 0.0
C717 C 0.44164 0.36263 0.34386 0.0
C718 C 0.46781 0.36849 0.35503 0.0
C719 C 0.44099 0.37086 0.36231 0.0
C720 C 0.40913 0.33319 0.30476 0.0
N721 N 0.42299 0.33881 0.29348 0.0
C722 C 0.41424 0.35057 0.26647 0.0
C723 C 0.42574 0.34746 0.27477 0.0
C724 C 0.39989 0.34503 0.27784 0.0
C725 C 0.39737 0.33624 0.29723 0.0
H726 H 0.40735 0.32665 0.31989 0.0
H727 H 0.43701 0.35233 0.26655 0.0
C728 C 0.49562 0.35731 0.27974 0.0
N729 N 0.48814 0.36105 0.29554 0.0
C730 C 0.51019 0.36894 0.27136 0.0
C731 C 0.5091 0.38797 0.29582 0.0
C732 C 0.49452 0.37601 0.30361 0.0
C733 C 0.5171 0.38452 0.27942 0.0
H734 H 0.49019 0.3453 0.27358 0.0
H735 H 0.48822 0.37869 0.31594 0.0
C736 C 0.41766 0.3038 0.32093 0.0
N737 N 0.38816 0.27753 0.31424 0.0
C738 C 0.40898 0.29441 0.33878 0.0
C739 C 0.41134 0.29987 0.2997 0.0
C740 C 0.39409 0.28116 0.33506 0.0
C741 C 0.3964 0.28654 0.29665 0.0
C742 C 0.48358 0.33247 0.32431 0.0
C743 C 0.48838 0.32369 0.31154 0.0
C744 C 0.49493 0.34586 0.33565 0.0
C745 C 0.50449 0.32858 0.31003 0.0
C746 C 0.51093 0.35038 0.3337 0.0
N747 N 0.51534 0.34173 0.32102 0.0
C748 C 0.45318 0.29679 0.27612 0.0
C749 C 0.43605 0.28293 0.30587 0.0
C750 C 0.45132 0.28271 0.26748 0.0
N751 N 0.44561 0.29664 0.29497 0.0
C752 C 0.43366 0.26852 0.29764 0.0
C753 C 0.44142 0.26827 0.27822 0.0
H754 H 0.46091 0.30792 0.26801 0.0
H755 H 0.43032 0.28317 0.321 0.0
C756 C 0.43869 0.33272 0.3794 0.0
N757 N 0.45131 0.3331 0.36926 0.0
C758 C 0.43808 0.33316 0.40237 0.0
C759 C 0.46324 0.33391 0.40393 0.0
C760 C 0.46338 0.33351 0.38097 0.0
C761 C 0.45052 0.33385 0.41495 0.0
H762 H 0.4292 0.33228 0.36961 0.0
H763 H 0.47312 0.33351 0.37249 0.0
O764 O 0.45302 0.3322 0.28334 0.0
O765 O 0.45585 0.35308 0.3225 0.0
O766 O 0.43232 0.3167 0.32434 0.0
O767 O 0.46787 0.32805 0.32562 0.0
H768 H 0.46883 0.35892 0.26071 0.0
H769 H 0.43405 0.30932 0.25588 0.0
H770 H 0.46619 0.36151 0.22051 0.0
H771 H 0.43184 0.31287 0.21587 0.0
H772 H 0.47637 0.38202 0.38498 0.0
H773 H 0.43175 0.35728 0.33258 0.0
H774 H 0.47832 0.36759 0.35259 0.0
H775 H 0.43059 0.37187 0.36533 0.0
H776 H 0.41678 0.35773 0.25175 0.0
H777 H 0.38648 0.33187 0.30652 0.0
H778 H 0.51602 0.36578 0.2588 0.0
H779 H 0.51388 0.39987 0.3022 0.0
H780 H 0.41375 0.29732 0.35533 0.0
H781 H 0.41785 0.30711 0.28579 0.0
H782 H 0.38724 0.27375 0.34871 0.0
H783 H 0.39134 0.28337 0.2803 0.0
H784 H 0.47978 0.31322 0.30284 0.0
H785 H 0.49146 0.35283 0.34557 0.0
H786 H 0.50836 0.32193 0.30012 0.0
H787 H 0.51984 0.3608 0.3422 0.0
H788 H 0.45787 0.28323 0.25279 0.0
H789 H 0.42579 0.25771 0.3064 0.0
H790 H 0.42811 0.33322 0.41015 0.0
H791 H 0.47291 0.33409 0.41295 0.0
Li792 Li 0.11783 0.46669 0.303 0.0
Li793 Li 0.10161 0.43751 0.30333 0.0
Li794 Li 0.11616 0.4506 0.33608 0.0
Li795 Li 0.12939 0.44923 0.30187 0.0
C796 C 0.09507 0.46222 0.33444 0.0
N797 N 0.08732 0.48119 0.35918 0.0
C798 C 0.07934 0.45876 0.33573 0.0
C799 C 0.10685 0.47532 0.34575 0.0
C800 C 0.07566 0.4685 0.34831 0.0
C801 C 0.1027 0.48476 0.35817 0.0
C802 C 0.1226 0.45198 0.26003 0.0
C803 C 0.13151 0.43997 0.23302 0.0
N804 N 0.13761 0.45341 0.22072 0.0
C805 C 0.12883 0.46561 0.247 0.0
C806 C 0.12381 0.43898 0.25288 0.0
C807 C 0.13641 0.46613 0.22722 0.0
C808 C 0.1355 0.49745 0.28638 0.0
N809 N 0.1207 0.48639 0.29299 0.0
C810 C 0.1108 0.50378 0.28452 0.0
C811 C 0.10839 0.4892 0.29206 0.0
C812 C 0.12596 0.51541 0.27751 0.0
C813 C 0.1384 0.5121 0.27845 0.0
H814 H 0.14502 0.49479 0.28706 0.0
H815 H 0.09667 0.4801 0.29699 0.0
C816 C 0.06884 0.41656 0.30585 0.0
N817 N 0.08188 0.42059 0.29334 0.0
C818 C 0.05386 0.40521 0.29835 0.0
C819 C 0.06609 0.40194 0.26562 0.0
C820 C 0.08082 0.41343 0.2737 0.0
C821 C 0.05231 0.39793 0.27777 0.0
H822 H 0.07006 0.42247 0.32142 0.0
H823 H 0.09135 0.41684 0.26409 0.0
C824 C 0.1493 0.47794 0.33009 0.0
N825 N 0.17842 0.49859 0.34852 0.0
C826 C 0.16014 0.47288 0.33458 0.0
C827 C 0.1533 0.49353 0.33496 0.0
C828 C 0.17479 0.48349 0.34391 0.0
C829 C 0.16807 0.50378 0.34429 0.0
C830 C 0.10467 0.41587 0.32264 0.0
C831 C 0.09342 0.40963 0.33951 0.0
C832 C 0.10487 0.40581 0.30638 0.0
C833 C 0.08243 0.39342 0.33971 0.0
C834 C 0.09368 0.38966 0.30716 0.0
N835 N 0.08278 0.38385 0.32366 0.0
C836 C 0.10252 0.44505 0.37866 0.0
C837 C 0.13037 0.45591 0.3784 0.0
C838 C 0.10236 0.44501 0.40168 0.0
N839 N 0.11642 0.45056 0.36754 0.0
C840 C 0.13079 0.45626 0.40137 0.0
C841 C 0.11667 0.45079 0.41328 0.0
H842 H 0.09155 0.44068 0.36965 0.0
H843 H 0.14119 0.45983 0.36932 0.0
C844 C 0.15814 0.46124 0.27896 0.0
N845 N 0.14741 0.44877 0.29113 0.0
C846 C 0.17163 0.46146 0.27086 0.0
C847 C 0.16308 0.43628 0.28876 0.0
C848 C 0.14964 0.43646 0.29626 0.0
C849 C 0.17429 0.44887 0.27576 0.0
H850 H 0.15616 0.471 0.27549 0.0
H851 H 0.14109 0.4269 0.30645 0.0
O852 O 0.09881 0.45279 0.3221 0.0
O853 O 0.11525 0.45133 0.27955 0.0
O854 O 0.13497 0.46781 0.32062 0.0
O855 O 0.11522 0.43179 0.32182 0.0
H856 H 0.07008 0.44869 0.32703 0.0
H857 H 0.11905 0.47811 0.34507 0.0
H858 H 0.06354 0.46597 0.34942 0.0
H859 H 0.11171 0.49492 0.36703 0.0
H860 H 0.13269 0.43007 0.22745 0.0
H861 H 0.12776 0.47568 0.25203 0.0
H862 H 0.11919 0.42838 0.26279 0.0
H863 H 0.14133 0.47663 0.21702 0.0
H864 H 0.10085 0.50581 0.28373 0.0
H865 H 0.15026 0.52078 0.27326 0.0
H866 H 0.04359 0.40268 0.30818 0.0
H867 H 0.0655 0.39647 0.24985 0.0
H868 H 0.15719 0.46081 0.33129 0.0
H869 H 0.14511 0.49771 0.3316 0.0
H870 H 0.18325 0.4797 0.34755 0.0
H871 H 0.1713 0.51587 0.34814 0.0
H872 H 0.09306 0.41725 0.35216 0.0
H873 H 0.11346 0.41042 0.29318 0.0
H874 H 0.07359 0.38844 0.35259 0.0
H875 H 0.09364 0.38175 0.29461 0.0
H876 H 0.09122 0.44072 0.41031 0.0
H877 H 0.14203 0.46055 0.40973 0.0
H878 H 0.17979 0.47132 0.2607 0.0
H879 H 0.16477 0.42651 0.29341 0.0
Li880 Li 0.66509 0.11846 0.33885 0.0
Li881 Li 0.68025 0.13144 0.30588 0.0
Li882 Li 0.65155 0.12092 0.30744 0.0
Li883 Li 0.66262 0.10328 0.30547 0.0
C884 C 0.66428 0.14965 0.32308 0.0
N885 N 0.65517 0.17208 0.31712 0.0
C886 C 0.67295 0.16256 0.30909 0.0
C887 C 0.65101 0.14819 0.33411 0.0
C888 C 0.66815 0.17377 0.3063 0.0
C889 C 0.64658 0.15963 0.33084 0.0
C890 C 0.69718 0.12061 0.32585 0.0
C891 C 0.72187 0.12561 0.30966 0.0
N892 N 0.72954 0.13283 0.32861 0.0
C893 C 0.70529 0.12803 0.34519 0.0
C894 C 0.70551 0.11931 0.30797 0.0
C895 C 0.72166 0.13414 0.34625 0.0
C896 C 0.66925 0.10798 0.38044 0.0
N897 N 0.66571 0.11821 0.37014 0.0
C898 C 0.66236 0.12789 0.40468 0.0
C899 C 0.66241 0.12815 0.38171 0.0
C900 C 0.66594 0.11744 0.41581 0.0
C901 C 0.66951 0.10745 0.40343 0.0
H902 H 0.67182 0.10021 0.37077 0.0
H903 H 0.65978 0.13624 0.3731 0.0
C904 C 0.70224 0.15062 0.27336 0.0
N905 N 0.69974 0.14831 0.29539 0.0
C906 C 0.7163 0.16333 0.2654 0.0
C907 C 0.72497 0.17093 0.30301 0.0
C908 C 0.71065 0.15821 0.31021 0.0
C909 C 0.72792 0.17373 0.2803 0.0
H910 H 0.69319 0.14279 0.26195 0.0
H911 H 0.70817 0.15629 0.32765 0.0
C912 C 0.63806 0.09251 0.3426 0.0
N913 N 0.62449 0.07484 0.38016 0.0
C914 C 0.63935 0.07913 0.34703 0.0
C915 C 0.62983 0.09688 0.35723 0.0
C916 C 0.63239 0.07034 0.3661 0.0
C917 C 0.62308 0.08781 0.37616 0.0
C918 C 0.66118 0.11117 0.26398 0.0
C919 C 0.64627 0.10499 0.25417 0.0
C920 C 0.6727 0.10866 0.25408 0.0
C921 C 0.64308 0.09626 0.2347 0.0
C922 C 0.66903 0.09984 0.23464 0.0
N923 N 0.65442 0.09386 0.22544 0.0
C924 C 0.63705 0.13439 0.28147 0.0
C925 C 0.6197 0.11333 0.30488 0.0
C926 C 0.62436 0.13555 0.27289 0.0
N927 N 0.63448 0.12339 0.29714 0.0
C928 C 0.60669 0.11404 0.29675 0.0
C929 C 0.6089 0.12515 0.28036 0.0
H930 H 0.64891 0.14204 0.27533 0.0
H931 H 0.61796 0.10454 0.31708 0.0
C932 C 0.66921 0.07842 0.29527 0.0
N933 N 0.65854 0.08351 0.29391 0.0
C934 C 0.66567 0.06385 0.28608 0.0
C935 C 0.64031 0.06016 0.27443 0.0
C936 C 0.6442 0.0746 0.28415 0.0
C937 C 0.65113 0.05466 0.27527 0.0
H938 H 0.68041 0.08563 0.30348 0.0
H939 H 0.63582 0.07879 0.28383 0.0
O940 O 0.66867 0.13843 0.32582 0.0
O941 O 0.68119 0.11467 0.32442 0.0
O942 O 0.64515 0.10151 0.32433 0.0
O943 O 0.66446 0.11952 0.28326 0.0
H944 H 0.68322 0.16389 0.30037 0.0
H945 H 0.644 0.13814 0.34472 0.0
H946 H 0.67473 0.1838 0.29548 0.0
H947 H 0.63626 0.15857 0.33912 0.0
H948 H 0.72847 0.12477 0.2959 0.0
H949 H 0.69907 0.12922 0.35914 0.0
H950 H 0.69943 0.11363 0.29287 0.0
H951 H 0.7281 0.13998 0.36107 0.0
H952 H 0.65972 0.1359 0.41366 0.0
H953 H 0.67222 0.09915 0.41143 0.0
H954 H 0.71783 0.16519 0.24778 0.0
H955 H 0.73359 0.17848 0.31514 0.0
H956 H 0.64578 0.07564 0.33599 0.0
H957 H 0.62891 0.10734 0.35422 0.0
H958 H 0.63334 0.05999 0.36978 0.0
H959 H 0.61679 0.09113 0.38771 0.0
H960 H 0.63718 0.10674 0.26163 0.0
H961 H 0.6843 0.11336 0.26143 0.0
H962 H 0.63156 0.09133 0.227 0.0
H963 H 0.6778 0.09772 0.22689 0.0
H964 H 0.62657 0.14415 0.26008 0.0
H965 H 0.595 0.1059 0.30313 0.0
H966 H 0.67426 0.05991 0.28713 0.0
H967 H 0.62885 0.05324 0.26663 0.0
Li968 Li 0.54804 0.68085 0.30642 0.0
Li969 Li 0.54622 0.66635 0.33999 0.0
Li970 Li 0.55843 0.66302 0.30663 0.0
Li971 Li 0.52982 0.6522 0.30931 0.0
C972 C 0.57619 0.69796 0.32612 0.0
N973 N 0.59684 0.73022 0.32878 0.0
C974 C 0.57675 0.70627 0.3452 0.0
C975 C 0.58622 0.70604 0.30848 0.0
C976 C 0.58726 0.72258 0.34621 0.0
C977 C 0.59655 0.72236 0.31011 0.0
C978 C 0.51408 0.6652 0.324 0.0
C979 C 0.48647 0.64784 0.33256 0.0
N980 N 0.48247 0.65556 0.31748 0.0
C981 C 0.5097 0.67297 0.3086 0.0
C982 C 0.50239 0.65255 0.33613 0.0
C983 C 0.49365 0.66792 0.30555 0.0
C984 C 0.55044 0.70235 0.27327 0.0
N985 N 0.55066 0.70021 0.29535 0.0
C986 C 0.55367 0.72566 0.30244 0.0
C987 C 0.55203 0.7114 0.30994 0.0
C988 C 0.55349 0.72828 0.27968 0.0
C989 C 0.55182 0.71635 0.26503 0.0
H990 H 0.54885 0.69306 0.26206 0.0
H991 H 0.55173 0.70918 0.32743 0.0
C992 C 0.56116 0.67076 0.38139 0.0
N993 N 0.54756 0.66784 0.37118 0.0
C994 C 0.5622 0.67156 0.40435 0.0
C995 C 0.53521 0.66634 0.40575 0.0
C996 C 0.53475 0.66577 0.38279 0.0
C997 C 0.54907 0.66928 0.41687 0.0
H998 H 0.5712 0.67245 0.37166 0.0
H999 H 0.52413 0.66355 0.37424 0.0
C1000 C 0.54896 0.66176 0.26494 0.0
N1001 N 0.55963 0.65607 0.22569 0.0
C1002 C 0.54025 0.64713 0.25437 0.0
C1003 C 0.56303 0.67353 0.25546 0.0
C1004 C 0.54585 0.64448 0.23455 0.0
C1005 C 0.56824 0.67041 0.23564 0.0
C1006 C 0.54546 0.63948 0.34484 0.0
C1007 C 0.56003 0.64024 0.34807 0.0
C1008 C 0.53357 0.63228 0.36077 0.0
C1009 C 0.56247 0.63382 0.36725 0.0
C1010 C 0.5365 0.62604 0.37975 0.0
N1011 N 0.55076 0.62693 0.38257 0.0
C1012 C 0.58976 0.66886 0.29786 0.0
C1013 C 0.56849 0.64476 0.28422 0.0
C1014 C 0.60078 0.66512 0.28914 0.0
N1015 N 0.57398 0.65873 0.29508 0.0
C1016 C 0.57904 0.64076 0.2748 0.0
C1017 C 0.59538 0.65099 0.27726 0.0
H1018 H 0.59378 0.67974 0.30697 0.0
H1019 H 0.55588 0.63672 0.28292 0.0
C1020 C 0.50246 0.63673 0.28234 0.0
N1021 N 0.51003 0.63501 0.30002 0.0
C1022 C 0.48841 0.62384 0.27459 0.0
C1023 C 0.49003 0.60787 0.30384 0.0
C1024 C 0.5041 0.62099 0.31084 0.0
C1025 C 0.4821 0.60909 0.28524 0.0
H1026 H 0.50755 0.64802 0.27395 0.0
H1027 H 0.51039 0.61993 0.32475 0.0
O1028 O 0.5659 0.68201 0.32476 0.0
O1029 O 0.52972 0.66976 0.32691 0.0
O1030 O 0.54378 0.66451 0.28451 0.0
O1031 O 0.54296 0.64602 0.3264 0.0
H1032 H 0.56902 0.70023 0.35899 0.0
H1033 H 0.586 0.69979 0.29364 0.0
H1034 H 0.58776 0.72918 0.36082 0.0
H1035 H 0.60433 0.72877 0.29653 0.0
H1036 H 0.47729 0.63799 0.3417 0.0
H1037 H 0.51855 0.68272 0.29898 0.0
H1038 H 0.50553 0.64621 0.34783 0.0
H1039 H 0.49009 0.6738 0.29365 0.0
H1040 H 0.55507 0.73452 0.31439 0.0
H1041 H 0.5512 0.71762 0.2474 0.0
H1042 H 0.57321 0.67409 0.41216 0.0
H1043 H 0.52471 0.66425 0.41465 0.0
H1044 H 0.5294 0.63784 0.26152 0.0
H1045 H 0.56989 0.68492 0.26339 0.0
H1046 H 0.53928 0.63319 0.22625 0.0
H1047 H 0.57915 0.67939 0.22819 0.0
H1048 H 0.5694 0.64583 0.33603 0.0
H1049 H 0.52233 0.63185 0.35876 0.0
H1050 H 0.5737 0.63437 0.37 0.0
H1051 H 0.52746 0.62058 0.3923 0.0
H1052 H 0.61334 0.67319 0.29148 0.0
H1053 H 0.57449 0.62961 0.2661 0.0
H1054 H 0.48286 0.62533 0.26005 0.0
H1055 H 0.48549 0.59686 0.31286 0.0
Li1056 Li 0.55801 0.89516 0.80609 0.0
Li1057 Li 0.5447 0.87906 0.83846 0.0
Li1058 Li 0.54573 0.86611 0.80294 0.0
Li1059 Li 0.52859 0.87763 0.80758 0.0
C1060 C 0.57884 0.88463 0.82338 0.0
N1061 N 0.61014 0.89202 0.82534 0.0
C1062 C 0.58795 0.89199 0.84209 0.0
C1063 C 0.58558 0.88073 0.80587 0.0
C1064 C 0.60377 0.89572 0.84271 0.0
C1065 C 0.60144 0.88464 0.80712 0.0
C1066 C 0.5428 0.9056 0.84292 0.0
C1067 C 0.53095 0.90908 0.87578 0.0
N1068 N 0.54391 0.92366 0.8787 0.0
C1069 C 0.55596 0.92065 0.84615 0.0
C1070 C 0.53014 0.89979 0.85775 0.0
C1071 C 0.55631 0.92959 0.86438 0.0
C1072 C 0.57085 0.92094 0.77774 0.0
N1073 N 0.5745 0.91486 0.79546 0.0
C1074 C 0.60071 0.93723 0.79658 0.0
C1075 C 0.58903 0.92272 0.80509 0.0
C1076 C 0.59733 0.94363 0.77803 0.0
C1077 C 0.58216 0.93529 0.7686 0.0
H1078 H 0.55907 0.91464 0.77076 0.0
H1079 H 0.59153 0.9179 0.81952 0.0
C1080 C 0.53579 0.86451 0.88027 0.0
N1081 N 0.54576 0.87823 0.8697 0.0
C1082 C 0.53596 0.86371 0.90324 0.0
C1083 C 0.55667 0.89118 0.90396 0.0
C1084 C 0.55628 0.89135 0.881 0.0
C1085 C 0.54638 0.87723 0.91548 0.0
H1086 H 0.52768 0.85417 0.87085 0.0
H1087 H 0.56425 0.90205 0.8722 0.0
C1088 C 0.54799 0.88192 0.76157 0.0
N1089 N 0.55751 0.88413 0.71817 0.0
C1090 C 0.53713 0.87853 0.74448 0.0
C1091 C 0.56373 0.88661 0.75655 0.0
C1092 C 0.54216 0.87965 0.72266 0.0
C1093 C 0.5683 0.88762 0.73453 0.0
C1094 C 0.51202 0.84875 0.82353 0.0
C1095 C 0.50611 0.83632 0.80832 0.0
C1096 C 0.50165 0.8502 0.83798 0.0
C1097 C 0.48982 0.82562 0.80766 0.0
C1098 C 0.48545 0.83927 0.83677 0.0
N1099 N 0.47992 0.82732 0.82176 0.0
C1100 C 0.55307 0.8418 0.80336 0.0
C1101 C 0.54367 0.84514 0.76893 0.0
C1102 C 0.55488 0.82948 0.79486 0.0
N1103 N 0.54765 0.84938 0.79031 0.0
C1104 C 0.54553 0.83309 0.75965 0.0
C1105 C 0.55117 0.82502 0.77264 0.0
H1106 H 0.55597 0.84533 0.8204 0.0
H1107 H 0.53899 0.85104 0.75901 0.0
C1108 C 0.50411 0.88528 0.80651 0.0
N1109 N 0.50909 0.87559 0.79809 0.0
C1110 C 0.49023 0.88443 0.79872 0.0
C1111 C 0.48686 0.86362 0.77377 0.0
C1112 C 0.50076 0.86483 0.78212 0.0
C1113 C 0.4815 0.8736 0.78196 0.0
H1114 H 0.51108 0.89391 0.81894 0.0
H1115 H 0.50507 0.85735 0.77563 0.0
O1116 O 0.56327 0.88077 0.82262 0.0
O1117 O 0.54232 0.89664 0.82527 0.0
O1118 O 0.5432 0.88078 0.78303 0.0
O1119 O 0.52789 0.85947 0.82422 0.0
H1120 H 0.5829 0.89492 0.85591 0.0
H1121 H 0.57864 0.87459 0.79155 0.0
H1122 H 0.61099 0.90154 0.85701 0.0
H1123 H 0.60681 0.88174 0.79364 0.0
H1124 H 0.52129 0.9047 0.88747 0.0
H1125 H 0.56583 0.92535 0.83479 0.0
H1126 H 0.51987 0.88818 0.85547 0.0
H1127 H 0.56644 0.94122 0.86715 0.0
H1128 H 0.61224 0.94335 0.8044 0.0
H1129 H 0.57894 0.94 0.75463 0.0
H1130 H 0.52805 0.85257 0.91125 0.0
H1131 H 0.56476 0.902 0.91251 0.0
H1132 H 0.52494 0.87504 0.74801 0.0
H1133 H 0.57237 0.88968 0.76949 0.0
H1134 H 0.53386 0.87699 0.70929 0.0
H1135 H 0.58045 0.89125 0.73044 0.0
H1136 H 0.51398 0.83502 0.79704 0.0
H1137 H 0.50607 0.85971 0.84991 0.0
H1138 H 0.48506 0.81599 0.7959 0.0
H1139 H 0.47727 0.8403 0.84777 0.0
H1140 H 0.55892 0.82342 0.80572 0.0
H1141 H 0.54268 0.83027 0.7424 0.0
H1142 H 0.48664 0.8925 0.80525 0.0
H1143 H 0.4804 0.855 0.76101 0.0
Li1144 Li 0.66441 0.54734 0.83907 0.0
Li1145 Li 0.66105 0.55836 0.80431 0.0
Li1146 Li 0.65098 0.53009 0.80682 0.0
Li1147 Li 0.67953 0.54968 0.80585 0.0
C1148 C 0.63152 0.53341 0.83726 0.0
N1149 N 0.60584 0.51424 0.86358 0.0
C1150 C 0.61906 0.53651 0.83952 0.0
C1151 C 0.63091 0.52054 0.84834 0.0
C1152 C 0.60618 0.52669 0.85292 0.0
C1153 C 0.61782 0.511 0.86158 0.0
C1154 C 0.69587 0.57686 0.825 0.0
C1155 C 0.72076 0.59616 0.80882 0.0
N1156 N 0.72846 0.59564 0.8272 0.0
C1157 C 0.70403 0.57659 0.84378 0.0
C1158 C 0.70428 0.5868 0.80742 0.0
C1159 C 0.7205 0.58615 0.84457 0.0
C1160 C 0.67368 0.54399 0.88175 0.0
N1161 N 0.66451 0.54833 0.87022 0.0
C1162 C 0.65502 0.55376 0.9035 0.0
C1163 C 0.65538 0.55329 0.88053 0.0
C1164 C 0.6644 0.54939 0.91583 0.0
C1165 C 0.67391 0.54455 0.90473 0.0
H1166 H 0.68088 0.54017 0.87305 0.0
H1167 H 0.64833 0.55684 0.87091 0.0
C1168 C 0.64158 0.56728 0.78263 0.0
N1169 N 0.65589 0.5732 0.79266 0.0
C1170 C 0.63738 0.57743 0.77241 0.0
C1171 C 0.66243 0.59968 0.78392 0.0
C1172 C 0.66622 0.58905 0.79376 0.0
C1173 C 0.64792 0.59385 0.77284 0.0
H1174 H 0.63356 0.55461 0.78227 0.0
H1175 H 0.67745 0.59341 0.80207 0.0
C1176 C 0.67068 0.51859 0.82583 0.0
N1177 N 0.67589 0.49321 0.82576 0.0
C1178 C 0.67654 0.51506 0.80693 0.0
C1179 C 0.66745 0.50921 0.84465 0.0
C1180 C 0.67913 0.50219 0.80726 0.0
C1181 C 0.67014 0.49642 0.84428 0.0
C1182 C 0.66005 0.54905 0.76308 0.0
C1183 C 0.64639 0.53864 0.7514 0.0
C1184 C 0.67003 0.56426 0.75478 0.0
C1185 C 0.64274 0.54376 0.7319 0.0
C1186 C 0.66596 0.56895 0.73525 0.0
N1187 N 0.6525 0.55869 0.72433 0.0
C1188 C 0.62017 0.50981 0.79231 0.0
C1189 C 0.63474 0.49652 0.79672 0.0
C1190 C 0.60703 0.49593 0.78476 0.0
N1191 N 0.63373 0.50992 0.79794 0.0
C1192 C 0.62188 0.48236 0.78925 0.0
C1193 C 0.60782 0.48197 0.78298 0.0
H1194 H 0.61969 0.52064 0.79322 0.0
H1195 H 0.64547 0.4967 0.80136 0.0
C1196 C 0.70908 0.55074 0.80946 0.0
N1197 N 0.69948 0.55316 0.79573 0.0
C1198 C 0.72333 0.55244 0.80167 0.0
C1199 C 0.71776 0.55965 0.76604 0.0
C1200 C 0.70356 0.5576 0.77443 0.0
C1201 C 0.72777 0.55681 0.77959 0.0
H1202 H 0.70548 0.54715 0.82633 0.0
H1203 H 0.6957 0.55939 0.76387 0.0
O1204 O 0.64419 0.54295 0.82417 0.0
O1205 O 0.67978 0.56726 0.82369 0.0
O1206 O 0.66831 0.53129 0.82611 0.0
O1207 O 0.66368 0.5443 0.78241 0.0
H1208 H 0.61937 0.54642 0.831 0.0
H1209 H 0.64042 0.51793 0.84675 0.0
H1210 H 0.59646 0.52896 0.85484 0.0
H1211 H 0.6172 0.501 0.87026 0.0
H1212 H 0.72742 0.60381 0.79525 0.0
H1213 H 0.69774 0.56902 0.85755 0.0
H1214 H 0.69821 0.58714 0.79272 0.0
H1215 H 0.72697 0.586 0.85896 0.0
H1216 H 0.64765 0.55768 0.91153 0.0
H1217 H 0.68123 0.54101 0.91374 0.0
H1218 H 0.62595 0.5725 0.76439 0.0
H1219 H 0.67085 0.61226 0.7846 0.0
H1220 H 0.67884 0.522 0.79208 0.0
H1221 H 0.66285 0.51175 0.85938 0.0
H1222 H 0.68363 0.4993 0.79276 0.0
H1223 H 0.66766 0.48904 0.85873 0.0
H1224 H 0.63871 0.52672 0.75721 0.0
H1225 H 0.68063 0.57251 0.76356 0.0
H1226 H 0.63215 0.53584 0.72278 0.0
H1227 H 0.67347 0.58076 0.72884 0.0
H1228 H 0.59653 0.49626 0.77983 0.0
H1229 H 0.62295 0.47183 0.78846 0.0
H1230 H 0.73053 0.54991 0.81267 0.0
H1231 H 0.72079 0.56333 0.74906 0.0
Li1232 Li 0.10368 0.66226 0.80422 0.0
Li1233 Li 0.11807 0.66608 0.83742 0.0
Li1234 Li 0.13111 0.68167 0.80266 0.0
Li1235 Li 0.12167 0.6526 0.80532 0.0
C1236 C 0.10534 0.68816 0.82556 0.0
N1237 N 0.08569 0.70045 0.8333 0.0
C1238 C 0.09215 0.68011 0.83927 0.0
C1239 C 0.10865 0.70252 0.81594 0.0
C1240 C 0.08232 0.6865 0.84292 0.0
C1241 C 0.09854 0.70852 0.82002 0.0
C1242 C 0.10086 0.63351 0.83723 0.0
C1243 C 0.11212 0.62171 0.86072 0.0
N1244 N 0.09737 0.60918 0.86432 0.0
C1245 C 0.08582 0.6205 0.84116 0.0
C1246 C 0.11413 0.63413 0.84709 0.0
C1247 C 0.08431 0.60833 0.85491 0.0
C1248 C 0.07309 0.64056 0.79238 0.0
N1249 N 0.08299 0.65646 0.79367 0.0
C1250 C 0.06257 0.66122 0.78069 0.0
C1251 C 0.07814 0.66682 0.78768 0.0
C1252 C 0.05198 0.64482 0.77979 0.0
C1253 C 0.05749 0.63446 0.78547 0.0
H1254 H 0.07736 0.63259 0.79666 0.0
H1255 H 0.08631 0.67941 0.78814 0.0
C1256 C 0.13097 0.67786 0.87958 0.0
N1257 N 0.11777 0.66717 0.86856 0.0
C1258 C 0.13093 0.67845 0.90259 0.0
C1259 C 0.1037 0.65707 0.90233 0.0
C1260 C 0.1042 0.65708 0.87939 0.0
C1261 C 0.11721 0.6678 0.91418 0.0
H1262 H 0.14155 0.68583 0.87048 0.0
H1263 H 0.09376 0.64895 0.87021 0.0
C1264 C 0.1102 0.66303 0.76276 0.0
N1265 N 0.09121 0.65946 0.72691 0.0
C1266 C 0.10286 0.64877 0.75107 0.0
C1267 C 0.10799 0.67552 0.75611 0.0
C1268 C 0.09326 0.64718 0.73303 0.0
C1269 C 0.09833 0.67348 0.73795 0.0
C1270 C 0.15348 0.67341 0.82278 0.0
C1271 C 0.16199 0.67799 0.80302 0.0
C1272 C 0.1607 0.67209 0.84192 0.0
C1273 C 0.17765 0.68119 0.80277 0.0
C1274 C 0.17637 0.67534 0.84096 0.0
N1275 N 0.18445 0.6798 0.82158 0.0
C1276 C 0.1575 0.71248 0.80604 0.0
C1277 C 0.14902 0.70349 0.7696 0.0
C1278 C 0.17013 0.72663 0.79811 0.0
N1279 N 0.14734 0.70127 0.79174 0.0
C1280 C 0.16127 0.71753 0.76097 0.0
C1281 C 0.1722 0.72929 0.77523 0.0
H1282 H 0.15597 0.71024 0.82358 0.0
H1283 H 0.14102 0.69424 0.75858 0.0
C1284 C 0.11153 0.62265 0.78874 0.0
N1285 N 0.12479 0.63554 0.79649 0.0
C1286 C 0.11209 0.60939 0.78139 0.0
C1287 C 0.1399 0.62264 0.79074 0.0
C1288 C 0.1388 0.63569 0.79787 0.0
C1289 C 0.12644 0.60927 0.78224 0.0
H1290 H 0.10047 0.62274 0.78818 0.0
H1291 H 0.14913 0.64583 0.80456 0.0
O1292 O 0.11511 0.68213 0.82172 0.0
O1293 O 0.10243 0.64551 0.82379 0.0
O1294 O 0.11941 0.66473 0.78074 0.0
O1295 O 0.13821 0.67042 0.82355 0.0
H1296 H 0.08943 0.66896 0.84677 0.0
H1297 H 0.11887 0.70888 0.80533 0.0
H1298 H 0.072 0.68036 0.85337 0.0
H1299 H 0.1009 0.71959 0.81262 0.0
H1300 H 0.12228 0.62205 0.86845 0.0
H1301 H 0.07542 0.61985 0.83373 0.0
H1302 H 0.12586 0.64405 0.84432 0.0
H1303 H 0.07273 0.5982 0.85812 0.0
H1304 H 0.05882 0.66962 0.77638 0.0
H1305 H 0.04987 0.62173 0.78445 0.0
H1306 H 0.14157 0.68686 0.91124 0.0
H1307 H 0.09285 0.64884 0.91074 0.0
H1308 H 0.10454 0.63903 0.75582 0.0
H1309 H 0.11339 0.68657 0.76516 0.0
H1310 H 0.08745 0.63618 0.72389 0.0
H1311 H 0.09641 0.683 0.73275 0.0
H1312 H 0.1565 0.67888 0.78801 0.0
H1313 H 0.15425 0.66853 0.85733 0.0
H1314 H 0.18438 0.68472 0.7876 0.0
H1315 H 0.18211 0.67433 0.85563 0.0
H1316 H 0.17839 0.73517 0.80977 0.0
H1317 H 0.16216 0.71907 0.74326 0.0
H1318 H 0.10143 0.59945 0.77478 0.0
H1319 H 0.15114 0.62296 0.79211 0.0
Li1320 Li 0.43601 0.10183 0.80679 0.0
Li1321 Li 0.44972 0.11756 0.84065 0.0
Li1322 Li 0.44806 0.13012 0.80491 0.0
Li1323 Li 0.46453 0.11858 0.80785 0.0
C1324 C 0.41478 0.10663 0.82846 0.0
N1325 N 0.38254 0.08792 0.83527 0.0
C1326 C 0.409 0.09971 0.84905 0.0
C1327 C 0.40415 0.10416 0.81139 0.0
C1328 C 0.39267 0.09027 0.85216 0.0
C1329 C 0.3879 0.09462 0.81514 0.0
C1330 C 0.45916 0.09203 0.82632 0.0
C1331 C 0.48012 0.08797 0.83982 0.0
N1332 N 0.47684 0.07709 0.82365 0.0
C1333 C 0.45594 0.08076 0.80989 0.0
C1334 C 0.47131 0.09565 0.84146 0.0
C1335 C 0.46503 0.07335 0.8088 0.0
C1336 C 0.41827 0.07879 0.77507 0.0
N1337 N 0.41917 0.08212 0.79693 0.0
C1338 C 0.39701 0.05653 0.80441 0.0
C1339 C 0.40894 0.07134 0.81163 0.0
C1340 C 0.39589 0.05264 0.78191 0.0
C1341 C 0.40669 0.06407 0.76717 0.0
H1342 H 0.42686 0.08738 0.76383 0.0
H1343 H 0.41021 0.07413 0.829 0.0
C1344 C 0.44877 0.13029 0.88185 0.0
N1345 N 0.44904 0.11802 0.87167 0.0
C1346 C 0.4479 0.13063 0.90479 0.0
C1347 C 0.44759 0.10567 0.90623 0.0
C1348 C 0.44838 0.10579 0.88328 0.0
C1349 C 0.44731 0.1182 0.91732 0.0
H1350 H 0.44913 0.13975 0.87208 0.0
H1351 H 0.44841 0.09609 0.87468 0.0
C1352 C 0.44972 0.12246 0.7639 0.0
N1353 N 0.4491 0.13643 0.72457 0.0
C1354 C 0.46378 0.13203 0.75243 0.0
C1355 C 0.43533 0.11992 0.75528 0.0
C1356 C 0.46322 0.13899 0.73257 0.0
C1357 C 0.43527 0.12712 0.73541 0.0
C1358 C 0.48198 0.14721 0.82838 0.0
C1359 C 0.4915 0.1558 0.81056 0.0
C1360 C 0.48862 0.14952 0.84942 0.0
C1361 C 0.50756 0.16652 0.81408 0.0
C1362 C 0.50472 0.16037 0.85227 0.0
N1363 N 0.51378 0.16857 0.83469 0.0
C1364 C 0.43225 0.14739 0.79821 0.0
C1365 C 0.45713 0.15813 0.78029 0.0
C1366 C 0.42988 0.15929 0.78947 0.0
N1367 N 0.44565 0.14695 0.79334 0.0
C1368 C 0.45516 0.17009 0.77096 0.0
C1369 C 0.44137 0.17073 0.77549 0.0
H1370 H 0.4234 0.1385 0.80888 0.0
H1371 H 0.46777 0.15771 0.77694 0.0
C1372 C 0.48247 0.11217 0.77808 0.0
N1373 N 0.48352 0.11914 0.7979 0.0
C1374 C 0.49547 0.11165 0.76946 0.0
C1375 C 0.51042 0.12528 0.80195 0.0
C1376 C 0.49703 0.12529 0.81012 0.0
C1377 C 0.50971 0.11843 0.78135 0.0
H1378 H 0.47145 0.1069 0.769 0.0
H1379 H 0.4974 0.13 0.82633 0.0
O1380 O 0.43074 0.11584 0.82506 0.0
O1381 O 0.45072 0.09976 0.82722 0.0
O1382 O 0.45003 0.11565 0.78348 0.0
O1383 O 0.46621 0.13675 0.82537 0.0
H1384 H 0.41704 0.10151 0.86247 0.0
H1385 H 0.4084 0.10949 0.7954 0.0
H1386 H 0.38803 0.08478 0.86798 0.0
H1387 H 0.37955 0.09254 0.80205 0.0
H1388 H 0.48964 0.09073 0.85132 0.0
H1389 H 0.44664 0.07792 0.79796 0.0
H1390 H 0.47407 0.10449 0.85411 0.0
H1391 H 0.46274 0.06467 0.7961 0.0
H1392 H 0.38892 0.04817 0.8164 0.0
H1393 H 0.40662 0.06152 0.74979 0.0
H1394 H 0.44747 0.1404 0.91259 0.0
H1395 H 0.44736 0.09595 0.91517 0.0
H1396 H 0.47506 0.13429 0.75893 0.0
H1397 H 0.42434 0.11253 0.76391 0.0
H1398 H 0.47402 0.1465 0.7236 0.0
H1399 H 0.42422 0.12531 0.72862 0.0
H1400 H 0.48664 0.15397 0.79412 0.0
H1401 H 0.48142 0.14296 0.86339 0.0
H1402 H 0.5151 0.17316 0.80042 0.0
H1403 H 0.51003 0.16225 0.86845 0.0
H1404 H 0.4191 0.15942 0.79335 0.0
H1405 H 0.46442 0.17888 0.76056 0.0
H1406 H 0.49447 0.10619 0.75354 0.0
H1407 H 0.52111 0.13031 0.8118 0.0
Li1408 Li 0.33003 0.45134 0.84125 0.0
Li1409 Li 0.33315 0.43834 0.80901 0.0
Li1410 Li 0.34363 0.46773 0.81006 0.0
Li1411 Li 0.31494 0.44897 0.8071 0.0
C1412 C 0.35829 0.45462 0.84567 0.0
N1413 N 0.37426 0.45396 0.88288 0.0
C1414 C 0.35862 0.44086 0.85118 0.0
C1415 C 0.3662 0.46808 0.85894 0.0
C1416 C 0.36675 0.44077 0.87009 0.0
C1417 C 0.37416 0.46749 0.87773 0.0
C1418 C 0.30227 0.4162 0.82282 0.0
C1419 C 0.28354 0.39566 0.79874 0.0
N1420 N 0.2795 0.38496 0.81536 0.0
C1421 C 0.29783 0.40502 0.83972 0.0
C1422 C 0.29499 0.41151 0.80222 0.0
C1423 C 0.28634 0.38928 0.8356 0.0
C1424 C 0.33053 0.46312 0.88405 0.0
N1425 N 0.32935 0.45062 0.87254 0.0
C1426 C 0.32871 0.43728 0.90587 0.0
C1427 C 0.32833 0.43779 0.88291 0.0
C1428 C 0.33018 0.45014 0.91823 0.0
C1429 C 0.33101 0.46315 0.90704 0.0
H1430 H 0.33121 0.47312 0.8754 0.0
H1431 H 0.32756 0.42809 0.8733 0.0
C1432 C 0.35086 0.43016 0.78351 0.0
N1433 N 0.33855 0.42355 0.79789 0.0
C1434 C 0.35714 0.42125 0.77491 0.0
C1435 C 0.33782 0.3987 0.79585 0.0
C1436 C 0.33188 0.40811 0.80411 0.0
C1437 C 0.3508 0.40539 0.78134 0.0
H1438 H 0.35596 0.4425 0.77903 0.0
H1439 H 0.3223 0.40321 0.81588 0.0
C1440 C 0.32963 0.48291 0.82629 0.0
N1441 N 0.33707 0.51419 0.82378 0.0
C1442 C 0.3204 0.48712 0.81346 0.0
C1443 C 0.34258 0.4946 0.83797 0.0
C1444 C 0.32436 0.503 0.81239 0.0
C1445 C 0.34617 0.51035 0.83644 0.0
C1446 C 0.32968 0.44993 0.76418 0.0
C1447 C 0.33479 0.46285 0.74992 0.0
C1448 C 0.32254 0.4346 0.75551 0.0
C1449 C 0.3324 0.46018 0.72726 0.0
C1450 C 0.32038 0.43242 0.73275 0.0
N1451 N 0.3253 0.44515 0.71922 0.0
C1452 C 0.37569 0.48962 0.80402 0.0
C1453 C 0.35879 0.49783 0.78801 0.0
C1454 C 0.38903 0.50303 0.79586 0.0
N1455 N 0.36095 0.48724 0.79993 0.0
C1456 C 0.37183 0.51147 0.77959 0.0
C1457 C 0.38719 0.51409 0.78327 0.0
H1458 H 0.3771 0.48094 0.81328 0.0
H1459 H 0.34694 0.49553 0.7846 0.0
C1460 C 0.28265 0.43927 0.80926 0.0
N1461 N 0.29543 0.44575 0.79562 0.0
C1462 C 0.26804 0.43688 0.80191 0.0
C1463 C 0.28001 0.44775 0.76656 0.0
C1464 C 0.2944 0.45006 0.77466 0.0
C1465 C 0.26662 0.44115 0.78029 0.0
H1466 H 0.28386 0.43602 0.82589 0.0
H1467 H 0.30476 0.45552 0.7643 0.0
O1468 O 0.35012 0.45484 0.82749 0.0
O1469 O 0.31355 0.43165 0.82663 0.0
O1470 O 0.32593 0.46742 0.82755 0.0
O1471 O 0.33203 0.45238 0.78643 0.0
H1472 H 0.35253 0.43034 0.84109 0.0
H1473 H 0.36606 0.47882 0.85487 0.0
H1474 H 0.36703 0.43018 0.87463 0.0
H1475 H 0.38024 0.47779 0.88825 0.0
H1476 H 0.27784 0.39188 0.78284 0.0
H1477 H 0.30323 0.40844 0.85584 0.0
H1478 H 0.29803 0.42001 0.78908 0.0
H1479 H 0.28285 0.3805 0.8485 0.0
H1480 H 0.32821 0.4271 0.91384 0.0
H1481 H 0.33193 0.4732 0.91595 0.0
H1482 H 0.36701 0.4268 0.76353 0.0
H1483 H 0.33273 0.38656 0.80137 0.0
H1484 H 0.31029 0.47823 0.80441 0.0
H1485 H 0.3499 0.49156 0.8479 0.0
H1486 H 0.31735 0.50643 0.80248 0.0
H1487 H 0.35622 0.51953 0.84527 0.0
H1488 H 0.3404 0.47479 0.75626 0.0
H1489 H 0.31884 0.42446 0.76613 0.0
H1490 H 0.3362 0.47007 0.71607 0.0
H1491 H 0.31485 0.42061 0.72585 0.0
H1492 H 0.40066 0.50467 0.79929 0.0
H1493 H 0.36987 0.51959 0.76973 0.0
H1494 H 0.25796 0.4317 0.81296 0.0
H1495 H 0.27947 0.45148 0.74993 0.0
Li1496 Li 0.8906 0.33294 0.80698 0.0
Li1497 Li 0.87671 0.33069 0.84088 0.0
Li1498 Li 0.86296 0.31322 0.80806 0.0
Li1499 Li 0.87201 0.34221 0.80749 0.0
C1500 C 0.88788 0.30625 0.82972 0.0
N1501 N 0.90382 0.28981 0.83612 0.0
C1502 C 0.89922 0.31084 0.8464 0.0
C1503 C 0.88448 0.2932 0.81646 0.0
C1504 C 0.90719 0.3024 0.84933 0.0
C1505 C 0.89273 0.28508 0.81991 0.0
C1506 C 0.89444 0.36348 0.83638 0.0
C1507 C 0.88516 0.37738 0.85933 0.0
N1508 N 0.89986 0.39045 0.85869 0.0
C1509 C 0.90943 0.37705 0.8359 0.0
C1510 C 0.88217 0.36364 0.84812 0.0
C1511 C 0.91194 0.39057 0.8473 0.0
C1512 C 0.9173 0.35355 0.7847 0.0
N1513 N 0.91113 0.33934 0.79507 0.0
C1514 C 0.93461 0.33816 0.7875 0.0
C1515 C 0.91936 0.33149 0.79642 0.0
C1516 C 0.94132 0.35292 0.77675 0.0
C1517 C 0.93225 0.36044 0.7751 0.0
H1518 H 0.91049 0.35952 0.78381 0.0
H1519 H 0.9143 0.32016 0.80451 0.0
C1520 C 0.86408 0.32084 0.8831 0.0
N1521 N 0.87745 0.33102 0.87199 0.0
C1522 C 0.86398 0.32071 0.90609 0.0
C1523 C 0.89145 0.34153 0.90571 0.0
C1524 C 0.89105 0.34118 0.88272 0.0
C1525 C 0.87778 0.3312 0.91769 0.0
H1526 H 0.85349 0.31285 0.87405 0.0
H1527 H 0.90156 0.34901 0.87341 0.0
C1528 C 0.88154 0.32963 0.76523 0.0
N1529 N 0.89774 0.33151 0.72694 0.0
C1530 C 0.88492 0.34162 0.74992 0.0
C1531 C 0.88621 0.31847 0.76093 0.0
C1532 C 0.89316 0.3424 0.73069 0.0
C1533 C 0.89446 0.31967 0.74152 0.0
C1534 C 0.84097 0.32267 0.82603 0.0
C1535 C 0.8327 0.31753 0.80614 0.0
C1536 C 0.83364 0.32488 0.8444 0.0
C1537 C 0.81715 0.31462 0.805 0.0
C1538 C 0.8181 0.3219 0.84257 0.0
N1539 N 0.81024 0.31686 0.82308 0.0
C1540 C 0.83558 0.28375 0.81495 0.0
C1541 C 0.84531 0.2883 0.77829 0.0
C1542 C 0.82244 0.26937 0.80878 0.0
N1543 N 0.84653 0.29293 0.79966 0.0
C1544 C 0.83249 0.27394 0.77145 0.0
C1545 C 0.82073 0.26441 0.78672 0.0
H1546 H 0.83683 0.28784 0.83181 0.0
H1547 H 0.85403 0.29596 0.76641 0.0
C1548 C 0.88167 0.3707 0.78691 0.0
N1549 N 0.86876 0.35882 0.79706 0.0
C1550 C 0.88135 0.38391 0.77884 0.0
C1551 C 0.85441 0.37256 0.79192 0.0
C1552 C 0.85529 0.35956 0.79985 0.0
C1553 C 0.86759 0.38497 0.78131 0.0
H1554 H 0.89229 0.3699 0.78517 0.0
H1555 H 0.84528 0.35025 0.80843 0.0
O1556 O 0.87978 0.31418 0.82681 0.0
O1557 O 0.89179 0.35031 0.82488 0.0
O1558 O 0.87372 0.32884 0.78435 0.0
O1559 O 0.85614 0.32547 0.82765 0.0
H1560 H 0.90187 0.32085 0.85689 0.0
H1561 H 0.87558 0.28939 0.80367 0.0
H1562 H 0.91606 0.30584 0.8621 0.0
H1563 H 0.89028 0.275 0.80972 0.0
H1564 H 0.87579 0.37767 0.86849 0.0
H1565 H 0.91901 0.37714 0.82673 0.0
H1566 H 0.87046 0.3533 0.84854 0.0
H1567 H 0.92349 0.40116 0.84707 0.0
H1568 H 0.94112 0.33193 0.78942 0.0
H1569 H 0.93658 0.37156 0.76646 0.0
H1570 H 0.85316 0.31266 0.9147 0.0
H1571 H 0.90239 0.34965 0.91402 0.0
H1572 H 0.88122 0.35023 0.75284 0.0
H1573 H 0.88373 0.30914 0.77263 0.0
H1574 H 0.89592 0.35166 0.71874 0.0
H1575 H 0.89828 0.3112 0.73809 0.0
H1576 H 0.83827 0.31592 0.7917 0.0
H1577 H 0.83993 0.32892 0.85989 0.0
H1578 H 0.8106 0.31063 0.78973 0.0
H1579 H 0.81229 0.32359 0.85664 0.0
H1580 H 0.81364 0.2623 0.82104 0.0
H1581 H 0.83147 0.27065 0.75423 0.0
H1582 H 0.89173 0.39313 0.77059 0.0
H1583 H 0.84366 0.37304 0.79444 0.0
Li1584 Li 0.1312 0.44892 0.69045 0.0
Li1585 Li 0.12236 0.46877 0.68742 0.0
Li1586 Li 0.10311 0.44033 0.68786 0.0
Li1587 Li 0.11927 0.45252 0.65577 0.0
C1588 C 0.10964 0.44932 0.73019 0.0
N1589 N 0.0907 0.44046 0.76736 0.0
C1590 C 0.10489 0.4595 0.73921 0.0
C1591 C 0.10488 0.43471 0.74024 0.0
C1592 C 0.0953 0.45479 0.75797 0.0
C1593 C 0.09526 0.43042 0.75896 0.0
C1594 C 0.15159 0.48304 0.67146 0.0
C1595 C 0.16369 0.51037 0.66013 0.0
N1596 N 0.17588 0.5141 0.6743 0.0
C1597 C 0.16426 0.48713 0.68584 0.0
C1598 C 0.15132 0.49472 0.65841 0.0
C1599 C 0.17642 0.50291 0.68705 0.0
C1600 C 0.15748 0.44428 0.689 0.0
N1601 N 0.14684 0.44513 0.70254 0.0
C1602 C 0.15932 0.44179 0.73427 0.0
C1603 C 0.14749 0.44391 0.72476 0.0
C1604 C 0.17073 0.44116 0.72079 0.0
C1605 C 0.16962 0.44233 0.69782 0.0
H1606 H 0.1567 0.44545 0.67138 0.0
H1607 H 0.1389 0.44472 0.73511 0.0
C1608 C 0.11525 0.49316 0.69169 0.0
N1609 N 0.12598 0.48879 0.69751 0.0
C1610 C 0.11626 0.50686 0.70044 0.0
C1611 C 0.13957 0.51155 0.72071 0.0
C1612 C 0.138 0.49763 0.71173 0.0
C1613 C 0.12843 0.51614 0.71534 0.0
H1614 H 0.10559 0.48574 0.68079 0.0
H1615 H 0.14607 0.49361 0.71664 0.0
C1616 C 0.10987 0.41675 0.67217 0.0
N1617 N 0.09939 0.38473 0.67546 0.0
C1618 C 0.10199 0.40665 0.6545 0.0
C1619 C 0.11255 0.41059 0.69144 0.0
C1620 C 0.09674 0.39048 0.6565 0.0
C1621 C 0.10712 0.39436 0.6928 0.0
C1622 C 0.09512 0.45762 0.65152 0.0
C1623 C 0.0801 0.44486 0.64671 0.0
C1624 C 0.10173 0.47098 0.63791 0.0
C1625 C 0.072 0.44562 0.62817 0.0
C1626 C 0.09327 0.47126 0.6195 0.0
N1627 N 0.07871 0.45869 0.61505 0.0
C1628 C 0.07474 0.43349 0.70616 0.0
C1629 C 0.07472 0.40985 0.69707 0.0
C1630 C 0.0594 0.42489 0.71443 0.0
N1631 N 0.08216 0.42594 0.69795 0.0
C1632 C 0.05918 0.40073 0.70478 0.0
C1633 C 0.05129 0.40824 0.71365 0.0
H1634 H 0.08082 0.44629 0.70633 0.0
H1635 H 0.08064 0.40401 0.69024 0.0
C1636 C 0.13265 0.46242 0.61321 0.0
N1637 N 0.11959 0.45179 0.62451 0.0
C1638 C 0.1327 0.46221 0.59019 0.0
C1639 C 0.10591 0.44005 0.59097 0.0
C1640 C 0.10646 0.44058 0.61393 0.0
C1641 C 0.11915 0.45099 0.57873 0.0
H1642 H 0.14302 0.47107 0.62205 0.0
H1643 H 0.09628 0.4322 0.62335 0.0
O1644 O 0.11882 0.45361 0.71158 0.0
O1645 O 0.13951 0.46769 0.67016 0.0
O1646 O 0.11517 0.43262 0.67038 0.0
O1647 O 0.10332 0.45702 0.66944 0.0
H1648 H 0.10841 0.47084 0.73171 0.0
H1649 H 0.10841 0.42667 0.73354 0.0
H1650 H 0.09146 0.46251 0.76503 0.0
H1651 H 0.0914 0.4191 0.76679 0.0
H1652 H 0.1636 0.51954 0.65022 0.0
H1653 H 0.16465 0.47825 0.69608 0.0
H1654 H 0.14161 0.49175 0.64718 0.0
H1655 H 0.18627 0.50626 0.69817 0.0
H1656 H 0.15953 0.4407 0.75201 0.0
H1657 H 0.17828 0.44217 0.68679 0.0
H1658 H 0.10748 0.51004 0.69583 0.0
H1659 H 0.14899 0.51828 0.73239 0.0
H1660 H 0.09993 0.41122 0.63939 0.0
H1661 H 0.11869 0.4182 0.70521 0.0
H1662 H 0.09058 0.38252 0.64298 0.0
H1663 H 0.10907 0.38943 0.70765 0.0
H1664 H 0.07481 0.4344 0.65701 0.0
H1665 H 0.11333 0.48096 0.64142 0.0
H1666 H 0.06041 0.4358 0.62417 0.0
H1667 H 0.0983 0.48148 0.60875 0.0
H1668 H 0.05407 0.4313 0.72151 0.0
H1669 H 0.05337 0.38796 0.70346 0.0
H1670 H 0.1433 0.47067 0.58152 0.0
H1671 H 0.09512 0.43133 0.58296 0.0
Li1672 Li 0.67717 0.13023 0.69334 0.0
Li1673 Li 0.64882 0.11705 0.6903 0.0
Li1674 Li 0.66116 0.10124 0.69239 0.0
Li1675 Li 0.6628 0.1164 0.6579 0.0
C1676 C 0.66833 0.11614 0.73456 0.0
N1677 N 0.68301 0.11701 0.77389 0.0
C1678 C 0.66315 0.11952 0.75422 0.0
C1679 C 0.68096 0.1132 0.7349 0.0
C1680 C 0.67074 0.11991 0.77394 0.0
C1681 C 0.68823 0.11368 0.75495 0.0
C1682 C 0.66149 0.14748 0.67323 0.0
C1683 C 0.6546 0.16516 0.65492 0.0
N1684 N 0.65483 0.17187 0.67467 0.0
C1685 C 0.66171 0.15458 0.69334 0.0
C1686 C 0.65795 0.1528 0.65384 0.0
C1687 C 0.65829 0.16688 0.69372 0.0
C1688 C 0.7097 0.15322 0.6939 0.0
N1689 N 0.69577 0.14767 0.7049 0.0
C1690 C 0.70854 0.16644 0.7338 0.0
C1691 C 0.69493 0.15409 0.72436 0.0
C1692 C 0.72318 0.17241 0.72297 0.0
C1693 C 0.72363 0.16567 0.70268 0.0
H1694 H 0.70998 0.14794 0.67835 0.0
H1695 H 0.68369 0.14953 0.73271 0.0
C1696 C 0.62434 0.11023 0.71978 0.0
N1697 N 0.63052 0.11765 0.70029 0.0
C1698 C 0.61085 0.10974 0.72845 0.0
C1699 C 0.61034 0.12464 0.69692 0.0
C1700 C 0.62369 0.12459 0.68865 0.0
C1701 C 0.60379 0.11713 0.71706 0.0
H1702 H 0.62984 0.10455 0.72848 0.0
H1703 H 0.62847 0.12994 0.67285 0.0
C1704 C 0.68993 0.10986 0.6678 0.0
N1705 N 0.70967 0.09868 0.65447 0.0
C1706 C 0.68672 0.10103 0.6484 0.0
C1707 C 0.70335 0.11323 0.68021 0.0
C1708 C 0.6968 0.09542 0.642 0.0
C1709 C 0.71313 0.1074 0.67327 0.0
C1710 C 0.62807 0.0909 0.67167 0.0
C1711 C 0.6193 0.07917 0.68722 0.0
C1712 C 0.62027 0.09544 0.65654 0.0
C1713 C 0.60281 0.07223 0.68749 0.0
C1714 C 0.60377 0.08821 0.65734 0.0
N1715 N 0.59546 0.07686 0.67268 0.0
C1716 C 0.65162 0.07689 0.72336 0.0
C1717 C 0.6635 0.07306 0.69165 0.0
C1718 C 0.64885 0.06253 0.73216 0.0
N1719 N 0.65891 0.08192 0.70351 0.0
C1720 C 0.66091 0.05856 0.6998 0.0
C1721 C 0.65341 0.0531 0.72027 0.0
H1722 H 0.64755 0.08383 0.73213 0.0
H1723 H 0.66879 0.07699 0.67563 0.0
C1724 C 0.67591 0.12904 0.61616 0.0
N1725 N 0.66378 0.11664 0.6268 0.0
C1726 C 0.67659 0.12926 0.59315 0.0
C1727 C 0.65226 0.10397 0.59264 0.0
C1728 C 0.65215 0.10417 0.61561 0.0
C1729 C 0.66457 0.11665 0.58113 0.0
H1730 H 0.68502 0.13876 0.62558 0.0
H1731 H 0.64281 0.09434 0.62454 0.0
O1732 O 0.66118 0.116 0.71509 0.0
O1733 O 0.66465 0.13533 0.67247 0.0
O1734 O 0.68032 0.11564 0.67416 0.0
O1735 O 0.64424 0.09815 0.67155 0.0
H1736 H 0.65345 0.12193 0.75422 0.0
H1737 H 0.68503 0.11048 0.71987 0.0
H1738 H 0.66688 0.12256 0.78928 0.0
H1739 H 0.69801 0.1114 0.75544 0.0
H1740 H 0.6518 0.16938 0.64006 0.0
H1741 H 0.66423 0.15044 0.7085 0.0
H1742 H 0.65772 0.14739 0.63816 0.0
H1743 H 0.65832 0.17243 0.70918 0.0
H1744 H 0.70761 0.17108 0.7496 0.0
H1745 H 0.73459 0.17004 0.69356 0.0
H1746 H 0.60613 0.10385 0.74405 0.0
H1747 H 0.60504 0.13025 0.68752 0.0
H1748 H 0.67643 0.09833 0.63855 0.0
H1749 H 0.70626 0.12036 0.69499 0.0
H1750 H 0.69438 0.08846 0.62713 0.0
H1751 H 0.7235 0.10986 0.68277 0.0
H1752 H 0.62516 0.07556 0.69909 0.0
H1753 H 0.62691 0.10466 0.64458 0.0
H1754 H 0.59587 0.06319 0.69952 0.0
H1755 H 0.59758 0.09169 0.64585 0.0
H1756 H 0.64264 0.05857 0.74772 0.0
H1757 H 0.66455 0.05162 0.69006 0.0
H1758 H 0.68623 0.13928 0.58484 0.0
H1759 H 0.64291 0.09393 0.58396 0.0
Li1760 Li 0.54673 0.68103 0.69391 0.0
Li1761 Li 0.52902 0.65223 0.69199 0.0
Li1762 Li 0.55818 0.66403 0.69242 0.0
Li1763 Li 0.5453 0.66595 0.6592 0.0
C1764 C 0.54361 0.6688 0.73677 0.0
N1765 N 0.54222 0.67738 0.77975 0.0
C1766 C 0.52911 0.66193 0.74792 0.0
C1767 C 0.5574 0.67997 0.74752 0.0
C1768 C 0.52866 0.66645 0.76964 0.0
C1769 C 0.55644 0.68417 0.76924 0.0
C1770 C 0.51519 0.66957 0.67055 0.0
C1771 C 0.49337 0.66588 0.64767 0.0
N1772 N 0.48791 0.67113 0.66443 0.0
C1773 C 0.50936 0.67489 0.68757 0.0
C1774 C 0.50715 0.66503 0.65043 0.0
C1775 C 0.49555 0.67561 0.68414 0.0
C1776 C 0.55705 0.71327 0.69004 0.0
N1777 N 0.54922 0.70068 0.70383 0.0
C1778 C 0.54535 0.71675 0.72997 0.0
C1779 C 0.54321 0.70213 0.72336 0.0
C1780 C 0.55336 0.7299 0.71607 0.0
C1781 C 0.55917 0.72808 0.6958 0.0
H1782 H 0.56154 0.71174 0.67448 0.0
H1783 H 0.53646 0.69193 0.73368 0.0
C1784 C 0.51119 0.62347 0.7135 0.0
N1785 N 0.50968 0.63462 0.70203 0.0
C1786 C 0.49784 0.61025 0.72208 0.0
C1787 C 0.48157 0.62015 0.70679 0.0
C1788 C 0.49523 0.63313 0.69839 0.0
C1789 C 0.48278 0.60852 0.71889 0.0
H1790 H 0.52285 0.62497 0.71612 0.0
H1791 H 0.49418 0.64192 0.68899 0.0
C1792 C 0.58009 0.69183 0.6751 0.0
N1793 N 0.61276 0.70911 0.67684 0.0
C1794 C 0.58908 0.69146 0.65741 0.0
C1795 C 0.58768 0.70112 0.69355 0.0
C1796 C 0.6056 0.70024 0.65865 0.0
C1797 C 0.60422 0.70974 0.69415 0.0
C1798 C 0.53342 0.63308 0.66154 0.0
C1799 C 0.53807 0.62174 0.65902 0.0
C1800 C 0.51946 0.63071 0.65163 0.0
C1801 C 0.52866 0.60817 0.64652 0.0
C1802 C 0.51036 0.61697 0.6393 0.0
N1803 N 0.51511 0.60609 0.63701 0.0
C1804 C 0.57719 0.65933 0.72339 0.0
C1805 C 0.58366 0.65893 0.68582 0.0
C1806 C 0.58865 0.6556 0.72995 0.0
N1807 N 0.5749 0.66085 0.70166 0.0
C1808 C 0.59529 0.65526 0.69163 0.0
C1809 C 0.59772 0.65327 0.71395 0.0
H1810 H 0.56974 0.66042 0.7356 0.0
H1811 H 0.58129 0.65984 0.66864 0.0
C1812 C 0.54347 0.67759 0.61771 0.0
N1813 N 0.5463 0.66691 0.62812 0.0
C1814 C 0.54418 0.6787 0.59477 0.0
C1815 C 0.55086 0.65793 0.59377 0.0
C1816 C 0.55016 0.65732 0.61673 0.0
C1817 C 0.54783 0.66872 0.58244 0.0
H1818 H 0.54071 0.68526 0.62729 0.0
H1819 H 0.55269 0.64917 0.62546 0.0
O1820 O 0.54427 0.66445 0.71555 0.0
O1821 O 0.52874 0.66889 0.67346 0.0
O1822 O 0.56393 0.68324 0.67427 0.0
O1823 O 0.54256 0.64641 0.67371 0.0
H1824 H 0.51831 0.6533 0.73986 0.0
H1825 H 0.56871 0.68538 0.73916 0.0
H1826 H 0.51752 0.66127 0.77845 0.0
H1827 H 0.56702 0.69284 0.77773 0.0
H1828 H 0.48701 0.66238 0.6322 0.0
H1829 H 0.51529 0.67822 0.70333 0.0
H1830 H 0.51147 0.66083 0.6371 0.0
H1831 H 0.49089 0.67969 0.69717 0.0
H1832 H 0.54043 0.7177 0.74553 0.0
H1833 H 0.56534 0.738 0.68465 0.0
H1834 H 0.49933 0.60163 0.73146 0.0
H1835 H 0.47017 0.61915 0.70365 0.0
H1836 H 0.58334 0.68436 0.64297 0.0
H1837 H 0.58086 0.70169 0.70723 0.0
H1838 H 0.61272 0.7 0.64514 0.0
H1839 H 0.61027 0.71695 0.70836 0.0
H1840 H 0.54887 0.62343 0.6666 0.0
H1841 H 0.51569 0.63935 0.65346 0.0
H1842 H 0.53212 0.5993 0.64438 0.0
H1843 H 0.49951 0.61497 0.63154 0.0
H1844 H 0.58985 0.65382 0.7473 0.0
H1845 H 0.60205 0.65364 0.67876 0.0
H1846 H 0.54207 0.68742 0.58682 0.0
H1847 H 0.55356 0.64988 0.58503 0.0
Li1848 Li 0.87255 0.52721 0.69052 0.0
Li1849 Li 0.86253 0.54582 0.69355 0.0
Li1850 Li 0.87657 0.54462 0.6594 0.0
Li1851 Li 0.89123 0.55672 0.69308 0.0
C1852 C 0.84389 0.51282 0.66972 0.0
N1853 N 0.81943 0.48195 0.66494 0.0
C1854 C 0.82992 0.50738 0.68186 0.0
C1855 C 0.84528 0.50263 0.65486 0.0
C1856 C 0.81772 0.49172 0.67928 0.0
C1857 C 0.83283 0.48705 0.65276 0.0
C1858 C 0.87121 0.54254 0.73619 0.0
C1859 C 0.86942 0.55721 0.76702 0.0
N1860 N 0.86203 0.54361 0.77898 0.0
C1861 C 0.86377 0.52874 0.74889 0.0
C1862 C 0.8742 0.55693 0.74541 0.0
C1863 C 0.85916 0.52951 0.77045 0.0
C1864 C 0.88251 0.50532 0.69864 0.0
N1865 N 0.86967 0.50726 0.6998 0.0
C1866 C 0.85445 0.48193 0.71697 0.0
C1867 C 0.85577 0.49591 0.70869 0.0
C1868 C 0.86762 0.4797 0.71626 0.0
C1869 C 0.88173 0.49155 0.70668 0.0
H1870 H 0.89352 0.51464 0.69193 0.0
H1871 H 0.84589 0.49794 0.71015 0.0
C1872 C 0.84303 0.55949 0.69476 0.0
N1873 N 0.84595 0.54872 0.70475 0.0
C1874 C 0.83111 0.56215 0.7027 0.0
C1875 C 0.82537 0.54251 0.73096 0.0
C1876 C 0.83723 0.5401 0.7223 0.0
C1877 C 0.82222 0.55367 0.72114 0.0
H1878 H 0.84999 0.56602 0.68061 0.0
H1879 H 0.83932 0.53116 0.72943 0.0
C1880 C 0.90069 0.53841 0.65765 0.0
N1881 N 0.91697 0.53372 0.6239 0.0
C1882 C 0.91612 0.55019 0.65239 0.0
C1883 C 0.89367 0.52413 0.646 0.0
C1884 C 0.92412 0.54763 0.63521 0.0
C1885 C 0.90205 0.52201 0.62892 0.0
C1886 C 0.88641 0.57972 0.67618 0.0
C1887 C 0.89637 0.58881 0.65901 0.0
C1888 C 0.88428 0.58728 0.69434 0.0
C1889 C 0.90436 0.60532 0.66055 0.0
C1890 C 0.89245 0.60381 0.69527 0.0
N1891 N 0.90226 0.61242 0.67852 0.0
C1892 C 0.86368 0.53662 0.61672 0.0
C1893 C 0.891 0.55589 0.61762 0.0
C1894 C 0.86372 0.5369 0.59373 0.0
N1895 N 0.87722 0.54591 0.62813 0.0
C1896 C 0.89157 0.5566 0.59464 0.0
C1897 C 0.87782 0.54694 0.58241 0.0
H1898 H 0.85282 0.52901 0.62547 0.0
H1899 H 0.90157 0.56325 0.62706 0.0
C1900 C 0.9134 0.57083 0.72686 0.0
N1901 N 0.91094 0.57226 0.70517 0.0
C1902 C 0.92806 0.58078 0.73646 0.0
C1903 C 0.93759 0.59354 0.70117 0.0
C1904 C 0.92259 0.58347 0.69232 0.0
C1905 C 0.94056 0.59205 0.72346 0.0
H1906 H 0.90416 0.56159 0.73663 0.0
H1907 H 0.92047 0.58414 0.67499 0.0
O1908 O 0.85597 0.52812 0.67209 0.0
O1909 O 0.87569 0.54197 0.71496 0.0
O1910 O 0.89258 0.54078 0.67425 0.0
O1911 O 0.87855 0.56352 0.675 0.0
H1912 H 0.82851 0.51512 0.6932 0.0
H1913 H 0.85581 0.50671 0.64493 0.0
H1914 H 0.8069 0.48733 0.68869 0.0
H1915 H 0.83381 0.47903 0.6414 0.0
H1916 H 0.87162 0.56826 0.7743 0.0
H1917 H 0.86152 0.51754 0.74219 0.0
H1918 H 0.88029 0.56778 0.73606 0.0
H1919 H 0.8533 0.51889 0.7804 0.0
H1920 H 0.84344 0.47324 0.72456 0.0
H1921 H 0.89212 0.49027 0.70558 0.0
H1922 H 0.82898 0.57083 0.69467 0.0
H1923 H 0.8185 0.53547 0.74488 0.0
H1924 H 0.92183 0.56123 0.66137 0.0
H1925 H 0.88192 0.51475 0.65019 0.0
H1926 H 0.93601 0.5567 0.63086 0.0
H1927 H 0.89671 0.51104 0.61971 0.0
H1928 H 0.89802 0.5832 0.64471 0.0
H1929 H 0.87629 0.58047 0.70748 0.0
H1930 H 0.9122 0.61249 0.64746 0.0
H1931 H 0.89095 0.6098 0.70928 0.0
H1932 H 0.85279 0.52946 0.58493 0.0
H1933 H 0.90271 0.56443 0.58656 0.0
H1934 H 0.92967 0.57935 0.75379 0.0
H1935 H 0.9469 0.60187 0.69041 0.0
Li1936 Li 0.34474 0.87871 0.6881 0.0
Li1937 Li 0.31641 0.86701 0.6913 0.0
Li1938 Li 0.33107 0.88055 0.65583 0.0
Li1939 Li 0.33344 0.89587 0.69059 0.0
C1940 C 0.33113 0.84884 0.66873 0.0
N1941 N 0.33706 0.82401 0.66564 0.0
C1942 C 0.32965 0.83974 0.68731 0.0
C1943 C 0.33556 0.84529 0.64855 0.0
C1944 C 0.33273 0.82724 0.68542 0.0
C1945 C 0.33852 0.8327 0.64733 0.0
C1946 C 0.32781 0.878 0.73393 0.0
C1947 C 0.3127 0.88018 0.76382 0.0
N1948 N 0.31752 0.87219 0.77715 0.0
C1949 C 0.33271 0.8699 0.74798 0.0
C1950 C 0.3178 0.88327 0.74194 0.0
C1951 C 0.32734 0.86703 0.76975 0.0
C1952 C 0.36907 0.88466 0.71734 0.0
N1953 N 0.36258 0.8772 0.698 0.0
C1954 C 0.38171 0.86878 0.69496 0.0
C1955 C 0.36882 0.86962 0.68653 0.0
C1956 C 0.38842 0.87605 0.71522 0.0
C1957 C 0.38202 0.88423 0.7263 0.0
H1958 H 0.36421 0.89106 0.72577 0.0
H1959 H 0.36391 0.8643 0.67079 0.0
C1960 C 0.28351 0.8461 0.69119 0.0
N1961 N 0.29712 0.85004 0.70226 0.0
C1962 C 0.26903 0.83378 0.69876 0.0
C1963 C 0.28286 0.82982 0.72896 0.0
C1964 C 0.29707 0.84201 0.72061 0.0
C1965 C 0.26863 0.82559 0.71798 0.0
H1966 H 0.28393 0.85252 0.67643 0.0
H1967 H 0.30804 0.84493 0.72868 0.0
C1968 C 0.3661 0.90408 0.66816 0.0
N1969 N 0.39833 0.91549 0.66604 0.0
C1970 C 0.37627 0.91552 0.68319 0.0
C1971 C 0.37229 0.89849 0.65198 0.0
C1972 C 0.39254 0.92113 0.68186 0.0
C1973 C 0.38863 0.9044 0.6512 0.0
C1974 C 0.30403 0.88806 0.67089 0.0
C1975 C 0.30308 0.89523 0.65145 0.0
C1976 C 0.29439 0.88666 0.6888 0.0
C1977 C 0.29266 0.90114 0.65039 0.0
C1978 C 0.28414 0.89273 0.68709 0.0
N1979 N 0.2835 0.8998 0.6681 0.0
C1980 C 0.31928 0.86723 0.61414 0.0
C1981 C 0.34022 0.89393 0.61378 0.0
C1982 C 0.31877 0.86692 0.59115 0.0
N1983 N 0.32999 0.88056 0.62486 0.0
C1984 C 0.34011 0.89416 0.5908 0.0
C1985 C 0.32935 0.88049 0.57917 0.0
H1986 H 0.31126 0.85681 0.62349 0.0
H1987 H 0.34858 0.90436 0.62283 0.0
C1988 C 0.34451 0.91994 0.72157 0.0
N1989 N 0.33652 0.91526 0.70218 0.0
C1990 C 0.34765 0.93415 0.73131 0.0
C1991 C 0.33442 0.93864 0.70083 0.0
C1992 C 0.3316 0.92434 0.6916 0.0
C1993 C 0.34257 0.94373 0.72096 0.0
H1994 H 0.34866 0.91269 0.72932 0.0
H1995 H 0.32569 0.92062 0.67589 0.0
O1996 O 0.32811 0.86107 0.67015 0.0
O1997 O 0.33302 0.88095 0.71258 0.0
O1998 O 0.35011 0.89807 0.66963 0.0
O1999 O 0.31418 0.88224 0.6722 0.0
H2000 H 0.32633 0.84241 0.70306 0.0
H2001 H 0.33678 0.85226 0.63402 0.0
H2002 H 0.33169 0.82013 0.69968 0.0
H2003 H 0.342 0.82984 0.63184 0.0
H2004 H 0.30494 0.88418 0.77023 0.0
H2005 H 0.34038 0.86564 0.74203 0.0
H2006 H 0.3141 0.88977 0.73143 0.0
H2007 H 0.33095 0.86068 0.78074 0.0
H2008 H 0.38623 0.86234 0.68582 0.0
H2009 H 0.38705 0.8904 0.74163 0.0
H2010 H 0.25827 0.83078 0.68983 0.0
H2011 H 0.28303 0.82351 0.74356 0.0
H2012 H 0.37163 0.91989 0.69587 0.0
H2013 H 0.36453 0.88951 0.64037 0.0
H2014 H 0.40056 0.92992 0.69345 0.0
H2015 H 0.39359 0.90011 0.63887 0.0
H2016 H 0.3104 0.8963 0.63739 0.0
H2017 H 0.29475 0.88086 0.70379 0.0
H2018 H 0.29186 0.9068 0.6355 0.0
H2019 H 0.27665 0.89178 0.70085 0.0
H2020 H 0.31014 0.8562 0.58285 0.0
H2021 H 0.34861 0.90481 0.58224 0.0
H2022 H 0.35437 0.93778 0.74651 0.0
H2023 H 0.33029 0.94564 0.69226 0.0
Li2024 Li 0.44943 0.31495 0.69048 0.0
Li2025 Li 0.46796 0.34369 0.6889 0.0
Li2026 Li 0.43844 0.33279 0.69115 0.0
Li2027 Li 0.45103 0.33104 0.65735 0.0
C2028 C 0.45166 0.32648 0.73406 0.0
N2029 N 0.4491 0.31677 0.77741 0.0
C2030 C 0.46526 0.33136 0.74684 0.0
C2031 C 0.43674 0.31693 0.7435 0.0
C2032 C 0.46372 0.32625 0.76867 0.0
C2033 C 0.4357 0.31208 0.76539 0.0
C2034 C 0.483 0.33061 0.66811 0.0
C2035 C 0.50948 0.34749 0.6543 0.0
N2036 N 0.51438 0.33843 0.66498 0.0
C2037 C 0.48828 0.32139 0.67879 0.0
C2038 C 0.49365 0.34368 0.65561 0.0
C2039 C 0.5042 0.32557 0.67705 0.0
C2040 C 0.43595 0.28169 0.69042 0.0
N2041 N 0.44649 0.29528 0.70085 0.0
C2042 C 0.45264 0.28074 0.72678 0.0
C2043 C 0.45498 0.29507 0.71846 0.0
C2044 C 0.44165 0.2665 0.71661 0.0
C2045 C 0.43333 0.26706 0.69807 0.0
H2046 H 0.42954 0.28222 0.67621 0.0
H2047 H 0.46376 0.30604 0.72588 0.0
C2048 C 0.48874 0.3753 0.69898 0.0
N2049 N 0.48751 0.36079 0.69927 0.0
C2050 C 0.50203 0.38839 0.70785 0.0
C2051 C 0.51272 0.37145 0.71699 0.0
C2052 C 0.49914 0.35863 0.70804 0.0
C2053 C 0.51417 0.38653 0.71721 0.0
H2054 H 0.47922 0.37666 0.69228 0.0
H2055 H 0.4977 0.34691 0.70871 0.0
C2056 C 0.4158 0.30413 0.67378 0.0
N2057 N 0.38337 0.28459 0.67714 0.0
C2058 C 0.40592 0.30307 0.65637 0.0
C2059 C 0.40919 0.29504 0.69273 0.0
C2060 C 0.38955 0.29318 0.65843 0.0
C2061 C 0.39277 0.28529 0.69417 0.0
C2062 C 0.4553 0.3604 0.65667 0.0
C2063 C 0.44216 0.36205 0.65201 0.0
C2064 C 0.46924 0.36904 0.64453 0.0
C2065 C 0.4431 0.37212 0.63498 0.0
C2066 C 0.46971 0.37898 0.62762 0.0
N2067 N 0.45673 0.38029 0.62322 0.0
C2068 C 0.42772 0.34481 0.72366 0.0
C2069 C 0.40969 0.33432 0.69381 0.0
C2070 C 0.41847 0.35018 0.73376 0.0
N2071 N 0.42328 0.33713 0.70402 0.0
C2072 C 0.40009 0.33962 0.70329 0.0
C2073 C 0.40465 0.34797 0.72332 0.0
H2074 H 0.43876 0.34723 0.73118 0.0
H2075 H 0.40667 0.32865 0.67787 0.0
C2076 C 0.46092 0.32955 0.6142 0.0
N2077 N 0.45006 0.33128 0.62607 0.0
C2078 C 0.46082 0.33008 0.59123 0.0
C2079 C 0.43814 0.33385 0.59309 0.0
C2080 C 0.43872 0.33329 0.61603 0.0
C2081 C 0.44935 0.33231 0.58039 0.0
H2082 H 0.46965 0.32771 0.62256 0.0
H2083 H 0.43019 0.33458 0.62585 0.0
O2084 O 0.45297 0.33136 0.71262 0.0
O2085 O 0.46745 0.3267 0.66963 0.0
O2086 O 0.43186 0.31383 0.67207 0.0
O2087 O 0.45456 0.35047 0.67313 0.0
H2088 H 0.47689 0.33887 0.73991 0.0
H2089 H 0.42608 0.31346 0.73413 0.0
H2090 H 0.47416 0.32982 0.77867 0.0
H2091 H 0.42422 0.30464 0.77286 0.0
H2092 H 0.51785 0.35763 0.64478 0.0
H2093 H 0.48019 0.31112 0.6883 0.0
H2094 H 0.48974 0.35084 0.64704 0.0
H2095 H 0.50845 0.31857 0.6853 0.0
H2096 H 0.45958 0.28081 0.74077 0.0
H2097 H 0.42479 0.25631 0.68975 0.0
H2098 H 0.50274 0.39984 0.70752 0.0
H2099 H 0.52171 0.36947 0.72433 0.0
H2100 H 0.41082 0.30985 0.64146 0.0
H2101 H 0.41666 0.29538 0.70609 0.0
H2102 H 0.38177 0.29234 0.64515 0.0
H2103 H 0.38751 0.27823 0.70878 0.0
H2104 H 0.43131 0.35551 0.66131 0.0
H2105 H 0.47959 0.36809 0.64814 0.0
H2106 H 0.43298 0.37343 0.63109 0.0
H2107 H 0.48039 0.38567 0.61802 0.0
H2108 H 0.42234 0.3564 0.74933 0.0
H2109 H 0.38966 0.33788 0.69453 0.0
H2110 H 0.4695 0.32857 0.58206 0.0
H2111 H 0.42918 0.33572 0.5854 0.0
H2112 H 0.37698 0.02877 0.19987 0.0
H2113 H 0.3513 0.96953 0.30255 0.0
H2114 H 0.39744 0.04309 0.26464 0.0
H2115 H 0.34828 0.95432 0.23511 0.0
H2116 H 0.36203 0.99688 0.28966 0.0
H2117 H 0.36019 0.00166 0.21365 0.0
C2118 C 0.3777 0.02623 0.21708 0.0
C2119 C 0.38864 0.03805 0.23115 0.0
C2120 C 0.35882 0.9875 0.2777 0.0
C2121 C 0.36958 0.00731 0.24694 0.0
C2122 C 0.35263 0.97193 0.28502 0.0
C2123 C 0.34905 0.95975 0.26983 0.0
C2124 C 0.36122 0.99081 0.25506 0.0
C2125 C 0.35108 0.96346 0.24731 0.0
C2126 C 0.36822 0.01081 0.22487 0.0
C2127 C 0.38925 0.03421 0.25326 0.0
N2128 N 0.35709 0.97869 0.24057 0.0
N2129 N 0.37987 0.01913 0.26049 0.0
H2130 H 0.38846 0.34311 0.23609 0.0
H2131 H 0.3559 0.40078 0.26174 0.0
H2132 H 0.38515 0.35741 0.30223 0.0
H2133 H 0.34156 0.37148 0.20329 0.0
H2134 H 0.3669 0.38522 0.27659 0.0
H2135 H 0.3717 0.35363 0.22315 0.0
C2136 C 0.38405 0.34832 0.24789 0.0
C2137 C 0.38823 0.34949 0.27022 0.0
C2138 C 0.36118 0.38208 0.26062 0.0
C2139 C 0.36928 0.36165 0.25557 0.0
C2140 C 0.35476 0.39091 0.25211 0.0
C2141 C 0.34774 0.38753 0.2311 0.0
C2142 C 0.36092 0.36994 0.24793 0.0
C2143 C 0.34712 0.3748 0.21933 0.0
C2144 C 0.37445 0.35424 0.24054 0.0
C2145 C 0.38213 0.35622 0.2849 0.0
N2146 N 0.35381 0.36659 0.22779 0.0
N2147 N 0.37315 0.36226 0.27726 0.0
H2148 H 0.96996 0.35778 0.19354 0.0
H2149 H 0.02546 0.37564 0.29924 0.0
H2150 H 0.95221 0.34592 0.26006 0.0
H2151 H 0.04267 0.39581 0.23484 0.0
H2152 H -0.0013 0.36053 0.28406 0.0
H2153 H 0.99679 0.36734 0.20738 0.0
C2154 C 0.97168 0.35696 0.21102 0.0
C2155 C 0.95886 0.3512 0.22571 0.0
C2156 C 0.00838 0.36815 0.27324 0.0
C2157 C 0.98953 0.36225 0.24168 0.0
C2158 C 0.02365 0.37684 0.2819 0.0
C2159 C 0.03635 0.38718 0.26838 0.0
C2160 C 0.00577 0.36977 0.25088 0.0
C2161 C 0.03332 0.38794 0.24591 0.0
C2162 C 0.98701 0.36252 0.21893 0.0
C2163 C 0.9618 0.35053 0.24822 0.0
N2164 N 0.01834 0.37946 0.23792 0.0
N2165 N 0.97684 0.35609 0.25554 0.0
H2166 H 0.61021 0.97211 0.19183 0.0
H2167 H 0.65315 0.03011 0.29376 0.0
H2168 H 0.61175 0.95553 0.25721 0.0
H2169 H 0.63943 0.04414 0.2341 0.0
H2170 H 0.64324 0.00357 0.27813 0.0
H2171 H 0.62631 -0.0006 0.20471 0.0
C2172 C 0.61417 0.97421 0.2088 0.0
C2173 C 0.60952 0.96154 0.22353 0.0
C2174 C 0.64256 0.01252 0.2684 0.0
C2175 C 0.62778 0.99273 0.23842 0.0
C2176 C 0.64828 0.02765 0.27724 0.0
C2177 C 0.64693 0.03921 0.26525 0.0
C2178 C 0.63562 0.00904 0.24735 0.0
C2179 C 0.64046 0.03545 0.24398 0.0
C2180 C 0.62325 0.98978 0.21618 0.0
C2181 C 0.61487 0.96497 0.24541 0.0
N2182 N 0.63498 0.02066 0.23574 0.0
N2183 N 0.62364 0.98025 0.25224 0.0
H2184 H 0.59764 0.64361 0.23468 0.0
H2185 H 0.64465 0.59998 0.26362 0.0
H2186 H 0.61801 0.64766 0.29905 0.0
H2187 H 0.64323 0.61518 0.19736 0.0
H2188 H 0.63447 0.61686 0.27726 0.0
H2189 H 0.6138 0.63275 0.22049 0.0
C2190 C 0.6057 0.64238 0.24571 0.0
C2191 C 0.60654 0.64645 0.26801 0.0
C2192 C 0.63661 0.61669 0.25977 0.0
C2193 C 0.62474 0.63382 0.25213 0.0
C2194 C 0.64234 0.60702 0.25201 0.0
C2195 C 0.64469 0.60619 0.22937 0.0
C2196 C 0.63288 0.62526 0.24471 0.0
C2197 C 0.64161 0.61557 0.21495 0.0
C2198 C 0.61493 0.63625 0.23764 0.0
C2199 C 0.61713 0.64468 0.28171 0.0
N2200 N 0.63561 0.62455 0.22283 0.0
N2201 N 0.62565 0.63823 0.27363 0.0
H2202 H 0.03408 0.60928 0.23154 0.0
H2203 H 0.95541 0.61251 0.25466 0.0
H2204 H 0.03292 0.65286 0.22565 0.0
H2205 H 0.96472 0.57703 0.28194 0.0
H2206 H 0.98265 0.62679 0.24062 0.0
H2207 H 0.00732 0.59635 0.24622 0.0
C2208 C 0.02829 0.61622 0.23354 0.0
C2209 C 0.03594 0.6323 0.22763 0.0
C2210 C 0.97867 0.61588 0.24972 0.0
C2211 C 0.00496 0.61732 0.24401 0.0
C2212 C 0.96316 0.60775 0.25783 0.0
C2213 C 0.95765 0.59342 0.26933 0.0
C2214 C 0.98866 0.60955 0.25298 0.0
C2215 C 0.96823 0.58778 0.2727 0.0
C2216 C 0.01293 0.60876 0.24182 0.0
C2217 C 0.0275 0.64044 0.22988 0.0
N2218 N 0.98314 0.5958 0.26446 0.0
N2219 N 0.01243 0.63285 0.2379 0.0
H2220 H 0.60458 0.95211 0.7348 0.0
H2221 H 0.65542 0.04433 0.76255 0.0
H2222 H 0.6169 0.97075 0.80085 0.0
H2223 H 0.64157 0.02551 0.6968 0.0
H2224 H 0.64491 0.01738 0.77649 0.0
H2225 H 0.62159 0.97874 0.72024 0.0
C2226 C 0.61097 0.96181 0.74623 0.0
C2227 C 0.60916 0.95927 0.76906 0.0
C2228 C 0.64435 0.01916 0.75898 0.0
C2229 C 0.62864 0.98978 0.75254 0.0
C2230 C 0.65029 0.03453 0.75103 0.0
C2231 C 0.64918 0.03715 0.72852 0.0
C2232 C 0.63716 0.0063 0.74433 0.0
C2233 C 0.64272 0.02406 0.71426 0.0
C2234 C 0.62072 0.977 0.73792 0.0
C2235 C 0.61796 0.97219 0.78313 0.0
N2236 N 0.63677 0.00919 0.72245 0.0
N2237 N 0.62717 0.98693 0.77464 0.0
H2238 H 0.63496 0.5908 0.73205 0.0
H2239 H 0.61782 0.66205 0.74957 0.0
H2240 H 0.65109 0.62161 0.78877 0.0
H2241 H 0.60196 0.63072 0.69331 0.0
H2242 H 0.63279 0.64954 0.76224 0.0
H2243 H 0.62556 0.60744 0.71559 0.0
C2244 C 0.63655 0.60112 0.741 0.0
C2245 C 0.64359 0.60473 0.76192 0.0
C2246 C 0.62619 0.64555 0.74698 0.0
C2247 C 0.63289 0.62385 0.74321 0.0
C2248 C 0.61759 0.65263 0.73979 0.0
C2249 C 0.6085 0.64734 0.72045 0.0
C2250 C 0.62562 0.63302 0.7348 0.0
C2251 C 0.60887 0.63529 0.70823 0.0
C2252 C 0.63126 0.61066 0.73157 0.0
C2253 C 0.6457 0.61842 0.7726 0.0
N2254 N 0.61714 0.62845 0.71573 0.0
N2255 N 0.64019 0.6274 0.76324 0.0
H2256 H 0.9637 0.62295 0.71481 0.0
H2257 H 0.02572 0.61989 0.79791 0.0
H2258 H 0.9547 0.58189 0.75308 0.0
H2259 H 0.04004 0.65519 0.7467 0.0
H2260 H -0.00157 0.6081 0.7853 0.0
H2261 H 0.99075 0.63702 0.72954 0.0
C2262 C 0.96735 0.61689 0.7263 0.0
C2263 C 0.95681 0.6012 0.73278 0.0
C2264 C 0.00753 0.61844 0.77681 0.0
C2265 C 0.98759 0.6173 0.74986 0.0
C2266 C 0.02313 0.62514 0.78395 0.0
C2267 C 0.03523 0.63839 0.77312 0.0
C2268 C 0.00391 0.62503 0.75873 0.0
C2269 C 0.03108 0.64498 0.75554 0.0
C2270 C 0.98276 0.62496 0.73475 0.0
C2271 C 0.96219 0.59405 0.74793 0.0
N2272 N 0.01574 0.63816 0.74878 0.0
N2273 N 0.97716 0.60215 0.75592 0.0
H2274 H 0.37962 0.04388 0.74258 0.0
H2275 H 0.34275 0.95121 0.7646 0.0
H2276 H 0.38591 0.0243 0.80309 0.0
H2277 H 0.35156 0.97179 0.69947 0.0
H2278 H 0.35268 0.97756 0.7804 0.0
H2279 H 0.36354 0.017 0.72818 0.0
C2280 C 0.37758 0.03397 0.75291 0.0
C2281 C 0.38438 0.03644 0.774 0.0
C2282 C 0.35228 0.97625 0.76265 0.0
C2283 C 0.3657 0.00567 0.75773 0.0
C2284 C 0.34669 0.96124 0.7536 0.0
C2285 C 0.34657 0.95929 0.73065 0.0
C2286 C 0.3577 0.98942 0.74867 0.0
C2287 C 0.35139 0.97268 0.71723 0.0
C2288 C 0.36832 0.01864 0.74469 0.0
C2289 C 0.38089 0.02307 0.78682 0.0
N2290 N 0.35689 0.98721 0.72645 0.0
N2291 N 0.37189 0.00829 0.77842 0.0
H2292 H 0.38233 0.41553 0.77923 0.0
H2293 H 0.37236 0.3359 0.7259 0.0
H2294 H 0.33655 0.37457 0.7665 0.0
H2295 H 0.41715 0.37746 0.74116 0.0
H2296 H 0.35866 0.34929 0.74069 0.0
H2297 H 0.39498 0.40114 0.76557 0.0
C2298 C 0.37493 0.40349 0.77343 0.0
C2299 C 0.35837 0.39629 0.77376 0.0
C2300 C 0.37148 0.3554 0.74088 0.0
C2301 C 0.37281 0.37959 0.75823 0.0
C2302 C 0.37929 0.34781 0.73236 0.0
C2303 C 0.39592 0.35552 0.73247 0.0
C2304 C 0.38039 0.37082 0.7494 0.0
C2305 C 0.40433 0.37091 0.74113 0.0
C2306 C 0.38216 0.39523 0.76573 0.0
C2307 C 0.34937 0.38053 0.76654 0.0
N2308 N 0.39648 0.37802 0.74919 0.0
N2309 N 0.35672 0.37271 0.75894 0.0
H2310 H 0.03661 0.37899 0.73416 0.0
H2311 H 0.96299 0.38474 0.77439 0.0
H2312 H 0.0279 0.41612 0.71198 0.0
H2313 H 0.95744 0.33895 0.75864 0.0
H2314 H 0.98923 0.39737 0.75792 0.0
H2315 H 0.0096 0.36471 0.74894 0.0
C2316 C 0.02907 0.38412 0.7322 0.0
C2317 C 0.03472 0.39894 0.72196 0.0
C2318 C 0.98221 0.38455 0.75806 0.0
C2319 C 0.00407 0.38284 0.73945 0.0
C2320 C 0.96714 0.37728 0.76732 0.0
C2321 C 0.95771 0.36067 0.76763 0.0
C2322 C 0.98817 0.37524 0.7495 0.0
C2323 C 0.96422 0.35176 0.75898 0.0
C2324 C 0.0137 0.37597 0.74075 0.0
C2325 C 0.02436 0.40501 0.72028 0.0
N2326 N 0.9791 0.35916 0.75032 0.0
N2327 N 0.00963 0.39704 0.72915 0.0
H2328 H 0.45214 0.20131 0.19869 0.0
H2329 H 0.43816 0.24256 0.3015 0.0
H2330 H 0.42859 0.17505 0.25752 0.0
H2331 H 0.44066 0.25948 0.23497 0.0
H2332 H 0.43666 0.21855 0.28672 0.0
H2333 H 0.45023 0.22373 0.21263 0.0
C2334 C 0.44639 0.20012 0.21441 0.0
C2335 C 0.4405 0.18615 0.22689 0.0
C2336 C 0.43743 0.22751 0.27541 0.0
C2337 C 0.43873 0.21208 0.2432 0.0
C2338 C 0.4382 0.2412 0.2838 0.0
C2339 C 0.43964 0.2532 0.2695 0.0
C2340 C 0.43834 0.22587 0.25257 0.0
C2341 C 0.43994 0.25079 0.2467 0.0
C2342 C 0.4454 0.213 0.2224 0.0
C2343 C 0.43357 0.18562 0.24745 0.0
N2344 N 0.43946 0.23748 0.23897 0.0
N2345 N 0.43299 0.19844 0.25503 0.0
H2346 H 0.20436 0.47433 0.27067 0.0
H2347 H 0.24366 0.42309 0.2357 0.0
H2348 H 0.17718 0.42355 0.26197 0.0
H2349 H 0.26424 0.47266 0.21916 0.0
H2350 H 0.22032 0.42325 0.24994 0.0
H2351 H 0.22766 0.47415 0.25634 0.0
C2352 C 0.20321 0.46315 0.26563 0.0
C2353 C 0.18868 0.44893 0.26747 0.0
C2354 C 0.22996 0.43407 0.24315 0.0
C2355 C 0.21549 0.44867 0.25154 0.0
C2356 C 0.24327 0.43399 0.23488 0.0
C2357 C 0.25598 0.44787 0.22607 0.0
C2358 C 0.22941 0.44817 0.2429 0.0
C2359 C 0.25489 0.46172 0.22606 0.0
C2360 C 0.21657 0.46307 0.25756 0.0
C2361 C 0.18812 0.43478 0.26118 0.0
N2362 N 0.24186 0.46152 0.2344 0.0
N2363 N 0.20134 0.43501 0.25356 0.0
H2364 H 0.74441 0.20343 0.29869 0.0
H2365 H 0.8031 0.24244 0.19765 0.0
H2366 H 0.7453 0.17602 0.24328 0.0
H2367 H 0.81247 0.26396 0.26223 0.0
H2368 H 0.78077 0.21855 0.213 0.0
H2369 H 0.76828 0.22635 0.2846 0.0
C2370 C 0.74968 0.20213 0.2837 0.0
C2371 C 0.74275 0.18768 0.2722 0.0
C2372 C 0.78778 0.22849 0.2238 0.0
C2373 C 0.76993 0.21411 0.25569 0.0
C2374 C 0.8006 0.24213 0.21509 0.0
C2375 C 0.80972 0.25532 0.22863 0.0
C2376 C 0.78391 0.22808 0.24615 0.0
C2377 C 0.80563 0.25425 0.25103 0.0
C2378 C 0.76328 0.21529 0.2756 0.0
C2379 C 0.75 0.18694 0.25255 0.0
N2380 N 0.79298 0.24092 0.25904 0.0
N2381 N 0.76313 0.19999 0.24485 0.0
H2382 H 0.5485 0.814 0.26355 0.0
H2383 H 0.56837 0.74502 0.24221 0.0
H2384 H 0.56035 0.80381 0.19929 0.0
H2385 H 0.54099 0.74548 0.29794 0.0
H2386 H 0.56899 0.76878 0.22809 0.0
H2387 H 0.54917 0.79105 0.27832 0.0
C2388 C 0.55118 0.80693 0.2525 0.0
C2389 C 0.55429 0.81085 0.23008 0.0
C2390 C 0.56288 0.76367 0.24343 0.0
C2391 C 0.55538 0.78473 0.24705 0.0
C2392 C 0.56244 0.75005 0.25147 0.0
C2393 C 0.55455 0.74312 0.27129 0.0
C2394 C 0.55553 0.77054 0.25538 0.0
C2395 C 0.54742 0.75046 0.28278 0.0
C2396 C 0.55164 0.79387 0.261 0.0
C2397 C 0.55807 0.80142 0.21672 0.0
N2398 N 0.54809 0.76376 0.27466 0.0
N2399 N 0.55851 0.7888 0.22542 0.0
H2400 H 0.75026 0.55167 0.19431 0.0
H2401 H 0.79701 0.55218 0.29983 0.0
H2402 H 0.7406 0.56494 0.25798 0.0
H2403 H 0.8202 0.56621 0.23639 0.0
H2404 H 0.77475 0.55389 0.28482 0.0
H2405 H 0.77459 0.55404 0.20921 0.0
C2406 C 0.75327 0.55527 0.21132 0.0
C2407 C 0.74319 0.55805 0.22487 0.0
C2408 C 0.7848 0.5567 0.27429 0.0
C2409 C 0.77085 0.56025 0.24212 0.0
C2410 C 0.79761 0.55584 0.28286 0.0
C2411 C 0.81065 0.55905 0.26942 0.0
C2412 C 0.78479 0.56044 0.252 0.0
C2413 C 0.81035 0.56328 0.24733 0.0
C2414 C 0.76715 0.55653 0.21981 0.0
C2415 C 0.7477 0.5623 0.24696 0.0
N2416 N 0.79755 0.56368 0.23925 0.0
N2417 N 0.76109 0.56309 0.25495 0.0
H2418 H 0.194 0.75369 0.19641 0.0
H2419 H 0.2471 0.79627 0.3009 0.0
H2420 H 0.17825 0.73766 0.2629 0.0
H2421 H 0.25275 0.82071 0.23921 0.0
H2422 H 0.22283 0.77385 0.28679 0.0
H2423 H 0.21656 0.77757 0.21122 0.0
C2424 C 0.19512 0.75523 0.21411 0.0
C2425 C 0.18413 0.74354 0.2284 0.0
C2426 C 0.22935 0.78417 0.27641 0.0
C2427 C 0.21026 0.77076 0.24541 0.0
C2428 C 0.2432 0.79706 0.28448 0.0
C2429 C 0.25208 0.8105 0.27126 0.0
C2430 C 0.22442 0.78458 0.25484 0.0
C2431 C 0.24651 0.81054 0.2499 0.0
C2432 C 0.20809 0.76886 0.22253 0.0
C2433 C 0.18652 0.74615 0.25121 0.0
N2434 N 0.2331 0.79774 0.24231 0.0
N2435 N 0.19939 0.75941 0.259 0.0
H2436 H 0.54427 0.74796 0.6929 0.0
H2437 H 0.57365 0.81668 0.78244 0.0
H2438 H 0.56603 0.7464 0.754 0.0
H2439 H 0.53275 0.80328 0.74108 0.0
H2440 H 0.57558 0.79441 0.76756 0.0
H2441 H 0.54497 0.77225 0.7055 0.0
C2442 C 0.54939 0.75289 0.70882 0.0
C2443 C 0.55505 0.74525 0.72253 0.0
C2444 C 0.56625 0.79646 0.76175 0.0
C2445 C 0.55595 0.77284 0.73689 0.0
C2446 C 0.56504 0.80909 0.77033 0.0
C2447 C 0.55294 0.81189 0.76317 0.0
C2448 C 0.55548 0.78672 0.74562 0.0
C2449 C 0.54243 0.80183 0.74692 0.0
C2450 C 0.54969 0.76663 0.71603 0.0
C2451 C 0.56146 0.75197 0.74308 0.0
N2452 N 0.54397 0.78972 0.73868 0.0
N2453 N 0.56177 0.76544 0.74966 0.0
H2454 H 0.73225 0.54828 0.73827 0.0
H2455 H 0.81637 0.55769 0.764 0.0
H2456 H 0.75658 0.56725 0.79997 0.0
H2457 H 0.79881 0.5548 0.69792 0.0
H2458 H 0.79396 0.55981 0.77816 0.0
H2459 H 0.75599 0.5493 0.72369 0.0
C2460 C 0.74262 0.55286 0.74871 0.0
C2461 C 0.74236 0.55775 0.77042 0.0
C2462 C 0.79509 0.55885 0.76056 0.0
C2463 C 0.76953 0.55853 0.75388 0.0
C2464 C 0.8078 0.55756 0.7525 0.0
C2465 C 0.80936 0.55602 0.72979 0.0
C2466 C 0.78375 0.55834 0.74581 0.0
C2467 C 0.79807 0.55607 0.71553 0.0
C2468 C 0.75617 0.55335 0.74037 0.0
C2469 C 0.75611 0.56314 0.78327 0.0
N2470 N 0.78564 0.55705 0.7238 0.0
N2471 N 0.76911 0.5633 0.77484 0.0
H2472 H 0.25698 0.82069 0.75994 0.0
H2473 H 0.18923 0.7325 0.73758 0.0
H2474 H 0.24627 0.8003 0.69477 0.0
H2475 H 0.18674 0.75957 0.79232 0.0
H2476 H 0.21166 0.75652 0.72303 0.0
H2477 H 0.23274 0.79763 0.77372 0.0
C2478 C 0.24946 0.81137 0.74855 0.0
C2479 C 0.25357 0.81231 0.72623 0.0
C2480 C 0.20612 0.75719 0.73816 0.0
C2481 C 0.22609 0.78598 0.74183 0.0
C2482 C 0.19323 0.74349 0.74647 0.0
C2483 C 0.18592 0.74394 0.76622 0.0
C2484 C 0.212 0.77145 0.74982 0.0
C2485 C 0.19207 0.75854 0.77723 0.0
C2486 C 0.23565 0.79829 0.75638 0.0
C2487 C 0.24344 0.80002 0.71208 0.0
N2488 N 0.20483 0.7717 0.76895 0.0
N2489 N 0.23023 0.78725 0.72017 0.0
H2490 H 0.43769 0.25653 0.75939 0.0
H2491 H 0.4462 0.18116 0.73289 0.0
H2492 H 0.44026 0.24185 0.69317 0.0
H2493 H 0.43179 0.18934 0.79647 0.0
H2494 H 0.4443 0.20347 0.71797 0.0
H2495 H 0.43569 0.23207 0.77341 0.0
C2496 C 0.43778 0.2481 0.74781 0.0
C2497 C 0.43924 0.25122 0.72511 0.0
C2498 C 0.44143 0.2003 0.73514 0.0
C2499 C 0.437 0.22329 0.74099 0.0
C2500 C 0.44259 0.18765 0.74367 0.0
C2501 C 0.43924 0.1835 0.76596 0.0
C2502 C 0.43707 0.209 0.74907 0.0
C2503 C 0.43441 0.19213 0.77917 0.0
C2504 C 0.43655 0.23413 0.7558 0.0
C2505 C 0.43908 0.23985 0.71078 0.0
N2506 N 0.43362 0.20458 0.77058 0.0
N2507 N 0.43815 0.22644 0.71898 0.0
H2508 H 0.187 0.45482 0.75893 0.0
H2509 H 0.25215 0.42941 0.74057 0.0
H2510 H 0.18491 0.42473 0.70521 0.0
H2511 H 0.24671 0.44888 0.80164 0.0
H2512 H 0.22797 0.42818 0.72671 0.0
H2513 H 0.20922 0.45324 0.77441 0.0
C2514 C 0.19106 0.44771 0.75049 0.0
C2515 C 0.184 0.43988 0.73069 0.0
C2516 C 0.232 0.4326 0.74321 0.0
C2517 C 0.20976 0.43833 0.74818 0.0
C2518 C 0.24583 0.43338 0.75107 0.0
C2519 C 0.25145 0.43931 0.77224 0.0
C2520 C 0.22386 0.43798 0.75652 0.0
C2521 C 0.24272 0.44412 0.78528 0.0
C2522 C 0.20383 0.4469 0.75931 0.0
C2523 C 0.1901 0.43118 0.7203 0.0
N2524 N 0.22943 0.44348 0.77713 0.0
N2525 N 0.20268 0.4307 0.72911 0.0
H2526 H 0.78996 0.25484 0.797 0.0
H2527 H 0.75327 0.17661 0.72284 0.0
H2528 H 0.81871 0.24116 0.75921 0.0
H2529 H 0.72651 0.19822 0.74579 0.0
H2530 H 0.7771 0.19837 0.73942 0.0
H2531 H 0.76618 0.23189 0.78242 0.0
C2532 C 0.79126 0.24688 0.78584 0.0
C2533 C 0.80631 0.24989 0.77927 0.0
C2534 C 0.76599 0.19831 0.74081 0.0
C2535 C 0.77918 0.22374 0.76235 0.0
C2536 C 0.75239 0.18595 0.73123 0.0
C2537 C 0.73782 0.18555 0.73287 0.0
C2538 C 0.765 0.2103 0.75225 0.0
C2539 C 0.73739 0.19785 0.74436 0.0
C2540 C 0.77769 0.23388 0.77738 0.0
C2541 C 0.80731 0.23933 0.76452 0.0
N2542 N 0.75076 0.20969 0.75362 0.0
N2543 N 0.79391 0.2267 0.75654 0.0
H2544 H 0.43316 0.09148 0.05504 0.0
H2545 H 0.46249 0.14361 0.94529 0.0
H2546 H 0.45794 0.14263 0.05485 0.0
H2547 H 0.43035 0.09306 0.9452 0.0
H2548 H 0.46144 0.14343 0.98547 0.0
H2549 H 0.43243 0.09171 0.01481 0.0
C2550 C 0.43833 0.10276 0.04658 0.0
C2551 C 0.44568 0.11706 0.0584 0.0
C2552 C 0.45457 0.13238 0.97665 0.0
C2553 C 0.4451 0.1174 0.01229 0.0
C2554 C 0.4551 0.13248 0.95368 0.0
C2555 C 0.44652 0.11832 0.94177 0.0
C2556 C 0.44548 0.118 0.98788 0.0
C2557 C 0.43738 0.10423 0.95364 0.0
C2558 C 0.43798 0.10288 0.02359 0.0
C2559 C 0.4524 0.13132 0.04647 0.0
N2560 N 0.43714 0.10442 0.97602 0.0
N2561 N 0.452 0.13112 0.0241 0.0
H2562 H 0.31229 0.4256 0.94639 0.0
H2563 H 0.35552 0.47471 0.05521 0.0
H2564 H 0.34985 0.47442 0.9456 0.0
H2565 H 0.31321 0.42864 0.05622 0.0
H2566 H 0.35473 0.47419 0.01498 0.0
H2567 H 0.31371 0.42577 0.98663 0.0
C2568 C 0.32089 0.43633 0.95469 0.0
C2569 C 0.33094 0.45003 0.94263 0.0
C2570 C 0.34563 0.46419 0.02402 0.0
C2571 C 0.33258 0.45034 0.98867 0.0
C2572 C 0.34603 0.46451 0.047 0.0
C2573 C 0.33439 0.45172 0.05918 0.0
C2574 C 0.33354 0.45097 0.01307 0.0
C2575 C 0.32256 0.43869 0.04758 0.0
C2576 C 0.32164 0.43645 0.97766 0.0
C2577 C 0.34174 0.46366 0.95426 0.0
N2578 N 0.32243 0.43866 0.02519 0.0
N2579 N 0.34229 0.46346 0.97662 0.0
H2580 H 0.86495 0.30585 0.94583 0.0
H2581 H 0.88835 0.35897 0.05502 0.0
H2582 H 0.89083 0.35697 0.94514 0.0
H2583 H 0.8678 0.30815 0.05563 0.0
H2584 H 0.88839 0.35845 0.01473 0.0
H2585 H 0.86494 0.30641 0.98609 0.0
C2586 C 0.87058 0.31719 0.95416 0.0
C2587 C 0.87789 0.33138 0.94212 0.0
C2588 C 0.88389 0.34741 0.02368 0.0
C2589 C 0.87799 0.33213 0.9882 0.0
C2590 C 0.88378 0.34769 0.04667 0.0
C2591 C 0.87806 0.33357 0.05869 0.0
C2592 C 0.87815 0.3329 0.01261 0.0
C2593 C 0.87248 0.31933 0.04702 0.0
C2594 C 0.87065 0.31751 0.97714 0.0
C2595 C 0.8852 0.34575 0.95378 0.0
N2596 N 0.87263 0.31935 0.02463 0.0
N2597 N 0.88502 0.34576 0.97617 0.0
H2598 H 0.56787 0.90205 0.05312 0.0
H2599 H 0.52115 0.86047 0.94353 0.0
H2600 H 0.52666 0.85529 0.05342 0.0
H2601 H 0.57163 0.8933 0.94378 0.0
H2602 H 0.52146 0.86049 0.98374 0.0
H2603 H 0.56785 0.90145 0.01268 0.0
C2604 C 0.55879 0.8917 0.04462 0.0
C2605 C 0.54726 0.8787 0.05649 0.0
C2606 C 0.53245 0.86764 0.97491 0.0
C2607 C 0.54708 0.87797 0.01051 0.0
C2608 C 0.53234 0.86758 0.95192 0.0
C2609 C 0.5464 0.8769 0.94004 0.0
C2610 C 0.54664 0.8773 0.98618 0.0
C2611 C 0.56042 0.88616 0.95206 0.0
C2612 C 0.55884 0.89132 0.02163 0.0
C2613 C 0.53581 0.86551 0.04479 0.0
N2614 N 0.56016 0.8862 0.97444 0.0
N2615 N 0.53592 0.86552 0.0224 0.0
H2616 H 0.63878 0.52788 0.05284 0.0
H2617 H 0.68975 0.56287 0.94378 0.0
H2618 H 0.68557 0.56905 0.05363 0.0
H2619 H 0.63865 0.53677 0.94305 0.0
H2620 H 0.68914 0.56306 0.98418 0.0
H2621 H 0.63908 0.52874 0.01246 0.0
C2622 C 0.6491 0.53709 0.04446 0.0
C2623 C 0.66217 0.54841 0.05646 0.0
C2624 C 0.67807 0.55736 0.97516 0.0
C2625 C 0.66267 0.54939 0.0105 0.0
C2626 C 0.67842 0.55716 0.95218 0.0
C2627 C 0.66422 0.54979 0.94018 0.0
C2628 C 0.66344 0.54987 0.98616 0.0
C2629 C 0.64984 0.54267 0.95176 0.0
C2630 C 0.64924 0.53763 0.02149 0.0
C2631 C 0.67522 0.56018 0.04491 0.0
N2632 N 0.64981 0.54277 0.97415 0.0
N2633 N 0.67521 0.56029 0.02251 0.0
H2634 H 0.10741 0.64226 0.94119 0.0
H2635 H 0.11576 0.68899 0.05263 0.0
H2636 H 0.12644 0.69284 0.94237 0.0
H2637 H 0.11781 0.64582 0.05065 0.0
H2638 H 0.11547 0.68926 0.01214 0.0
H2639 H 0.10698 0.642 0.98155 0.0
C2640 C 0.11144 0.6533 0.95 0.0
C2641 C 0.11699 0.6676 0.93854 0.0
C2642 C 0.11599 0.67975 0.02061 0.0
C2643 C 0.11642 0.66738 0.98452 0.0
C2644 C 0.11605 0.67954 0.04362 0.0
C2645 C 0.11686 0.6674 0.05485 0.0
C2646 C 0.11643 0.66756 0.00887 0.0
C2647 C 0.11731 0.65546 0.04252 0.0
C2648 C 0.11126 0.65315 0.97296 0.0
C2649 C 0.12219 0.6816 0.95067 0.0
N2650 N 0.117 0.65579 0.02017 0.0
N2651 N 0.12169 0.68113 0.97306 0.0
H2652 H 0.89251 0.57279 0.55515 0.0
H2653 H 0.8652 0.52108 0.4446 0.0
H2654 H 0.86394 0.52179 0.55406 0.0
H2655 H 0.8886 0.57218 0.44502 0.0
H2656 H 0.86592 0.52123 0.48475 0.0
H2657 H 0.89269 0.57292 0.51482 0.0
C2658 C 0.88635 0.56162 0.54642 0.0
C2659 C 0.87816 0.54725 0.55798 0.0
C2660 C 0.8709 0.53242 0.47608 0.0
C2661 C 0.87824 0.54732 0.51188 0.0
C2662 C 0.8704 0.53234 0.45313 0.0
C2663 C 0.87674 0.54664 0.44138 0.0
C2664 C 0.87782 0.54689 0.48746 0.0
C2665 C 0.88369 0.56088 0.45336 0.0
C2666 C 0.88638 0.5617 0.52342 0.0
C2667 C 0.87022 0.53314 0.54583 0.0
N2668 N 0.88401 0.56064 0.47575 0.0
N2669 N 0.87048 0.53353 0.52346 0.0
H2670 H 0.32615 0.85669 0.5518 0.0
H2671 H 0.33523 0.90507 0.4409 0.0
H2672 H 0.3328 0.90392 0.55079 0.0
H2673 H 0.32941 0.85816 0.44214 0.0
H2674 H 0.33402 0.90477 0.48114 0.0
H2675 H 0.32679 0.85683 0.51158 0.0
C2676 C 0.32762 0.86705 0.54312 0.0
C2677 C 0.32941 0.88031 0.55471 0.0
C2678 C 0.33302 0.89454 0.47261 0.0
C2679 C 0.33038 0.88064 0.50862 0.0
C2680 C 0.33364 0.89468 0.44964 0.0
C2681 C 0.33241 0.88162 0.43814 0.0
C2682 C 0.33112 0.88123 0.4842 0.0
C2683 C 0.3306 0.86857 0.45034 0.0
C2684 C 0.3281 0.86716 0.52015 0.0
C2685 C 0.33156 0.89351 0.54256 0.0
N2686 N 0.32998 0.8687 0.47269 0.0
N2687 N 0.33198 0.89333 0.52019 0.0
H2688 H 0.42359 0.31861 0.55288 0.0
H2689 H 0.47536 0.35136 0.44287 0.0
H2690 H 0.47456 0.34763 0.55234 0.0
H2691 H 0.42515 0.31774 0.4428 0.0
H2692 H 0.47497 0.35143 0.48305 0.0
H2693 H 0.42358 0.31962 0.5126 0.0
C2694 C 0.43477 0.32528 0.54429 0.0
C2695 C 0.4491 0.33301 0.55598 0.0
C2696 C 0.46403 0.34405 0.47426 0.0
C2697 C 0.4492 0.33413 0.50992 0.0
C2698 C 0.46425 0.34393 0.45129 0.0
C2699 C 0.45028 0.33444 0.43939 0.0
C2700 C 0.44973 0.33463 0.4855 0.0
C2701 C 0.43618 0.32535 0.45125 0.0
C2702 C 0.43477 0.32578 0.5213 0.0
C2703 C 0.46325 0.34132 0.54399 0.0
N2704 N 0.43627 0.32564 0.47364 0.0
N2705 N 0.46294 0.34166 0.52163 0.0
H2706 H 0.10471 0.42515 0.55118 0.0
H2707 H 0.13675 0.47504 0.44022 0.0
H2708 H 0.13263 0.47626 0.55016 0.0
H2709 H 0.09724 0.42722 0.44173 0.0
H2710 H 0.13743 0.47513 0.48053 0.0
H2711 H 0.1037 0.42512 0.51101 0.0
C2712 C 0.11055 0.43638 0.54259 0.0
C2713 C 0.11874 0.45074 0.55421 0.0
C2714 C 0.12858 0.46464 0.47205 0.0
C2715 C 0.11787 0.45072 0.50809 0.0
C2716 C 0.12824 0.46455 0.44907 0.0
C2717 C 0.11693 0.45109 0.43768 0.0
C2718 C 0.11765 0.4511 0.48371 0.0
C2719 C 0.10606 0.43787 0.44992 0.0
C2720 C 0.11002 0.43633 0.51961 0.0
C2721 C 0.12638 0.46488 0.542 0.0
N2722 N 0.10675 0.43817 0.4723 0.0
N2723 N 0.12579 0.4645 0.51963 0.0
H2724 H 0.68811 0.11713 0.44322 0.0
H2725 H 0.63988 0.10964 0.55335 0.0
H2726 H 0.64363 0.11671 0.44381 0.0
H2727 H 0.6895 0.12382 0.55346 0.0
H2728 H 0.64013 0.1095 0.51307 0.0
H2729 H 0.6879 0.11685 0.48362 0.0
C2730 C 0.67827 0.1169 0.45187 0.0
C2731 C 0.66589 0.11699 0.44021 0.0
C2732 C 0.65097 0.11267 0.52189 0.0
C2733 C 0.66557 0.11666 0.48627 0.0
C2734 C 0.65082 0.11267 0.54486 0.0
C2735 C 0.66469 0.11674 0.55672 0.0
C2736 C 0.66507 0.1166 0.51066 0.0
C2737 C 0.67858 0.12074 0.54491 0.0
C2738 C 0.67821 0.11684 0.47488 0.0
C2739 C 0.65349 0.11682 0.45219 0.0
N2740 N 0.67841 0.1205 0.52251 0.0
N2741 N 0.65362 0.11661 0.47457 0.0
H2742 H 0.56387 0.65843 0.44464 0.0
H2743 H 0.52873 0.67384 0.55437 0.0
H2744 H 0.53575 0.68141 0.44508 0.0
H2745 H 0.56814 0.66525 0.55452 0.0
H2746 H 0.52969 0.67477 0.5142 0.0
H2747 H 0.56423 0.659 0.48488 0.0
C2748 C 0.55788 0.66372 0.45313 0.0
C2749 C 0.54973 0.66985 0.44136 0.0
C2750 C 0.53816 0.67274 0.52306 0.0
C2751 C 0.54984 0.67023 0.48747 0.0
C2752 C 0.53768 0.67228 0.54602 0.0
C2753 C 0.54838 0.66947 0.55796 0.0
C2754 C 0.5493 0.67021 0.51185 0.0
C2755 C 0.55948 0.66719 0.54609 0.0
C2756 C 0.55803 0.66396 0.47613 0.0
C2757 C 0.54194 0.67627 0.45338 0.0
N2758 N 0.55961 0.66755 0.5237 0.0
N2759 N 0.54213 0.67622 0.47575 0.0
H2760 H 0.54278 0.15186 0.22695 0.0
H2761 H 0.58035 0.09981 0.26876 0.0
H2762 H 0.51864 0.10077 0.22487 0.0
H2763 H 0.60597 0.15094 0.26935 0.0
H2764 H 0.55758 0.10018 0.25289 0.0
H2765 H 0.56601 0.15203 0.24271 0.0
C2766 C 0.54235 0.14069 0.22984 0.0
C2767 C 0.52875 0.12628 0.2245 0.0
C2768 C 0.56816 0.11134 0.25648 0.0
C2769 C 0.55528 0.12639 0.24241 0.0
C2770 C 0.58115 0.11114 0.26569 0.0
C2771 C 0.59506 0.12537 0.27054 0.0
C2772 C 0.56902 0.12589 0.25206 0.0
C2773 C 0.59551 0.13969 0.26574 0.0
C2774 C 0.55564 0.1408 0.23874 0.0
C2775 C 0.52893 0.11217 0.22839 0.0
N2776 N 0.58266 0.13959 0.25682 0.0
N2777 N 0.54195 0.11259 0.23713 0.0
H2778 H 0.47596 0.5784 0.28397 0.0
H2779 H 0.3953 0.54418 0.2166 0.0
H2780 H 0.45548 0.60729 0.26641 0.0
H2781 H 0.40906 0.51482 0.25285 0.0
H2782 H 0.41807 0.5677 0.23216 0.0
H2783 H 0.45242 0.55522 0.26987 0.0
C2784 C 0.46646 0.57989 0.27738 0.0
C2785 C 0.46772 0.59488 0.2766 0.0
C2786 C 0.41604 0.55609 0.23672 0.0
C2787 C 0.44078 0.56828 0.25987 0.0
C2788 C 0.403 0.54263 0.22794 0.0
C2789 C 0.40024 0.52742 0.23329 0.0
C2790 C 0.4265 0.55434 0.2508 0.0
C2791 C 0.41083 0.52625 0.24782 0.0
C2792 C 0.45304 0.56661 0.26919 0.0
C2793 C 0.45515 0.59603 0.26718 0.0
N2794 N 0.4235 0.53951 0.25595 0.0
N2795 N 0.44222 0.58291 0.25914 0.0
H2796 H 0.85209 0.44891 0.30585 0.0
H2797 H 0.86886 0.41261 0.19833 0.0
H2798 H 0.85869 0.4697 0.24119 0.0
H2799 H 0.85197 0.38653 0.25915 0.0
H2800 H 0.86521 0.43368 0.21392 0.0
H2801 H 0.85186 0.42587 0.28933 0.0
C2802 C 0.85338 0.44856 0.28817 0.0
C2803 C 0.85546 0.46125 0.27488 0.0
C2804 C 0.86218 0.42331 0.22383 0.0
C2805 C 0.85529 0.43501 0.25589 0.0
C2806 C 0.86436 0.41133 0.21498 0.0
C2807 C 0.8608 0.39787 0.22753 0.0
C2808 C 0.85659 0.42193 0.24551 0.0
C2809 C 0.85479 0.39669 0.2489 0.0
C2810 C 0.85319 0.4354 0.27874 0.0
C2811 C 0.85692 0.46013 0.25203 0.0
N2812 N 0.85301 0.40865 0.25731 0.0
N2813 N 0.85697 0.44732 0.24329 0.0
H2814 H 0.45486 0.86212 0.19606 0.0
H2815 H 0.41535 0.88013 0.29926 0.0
H2816 H 0.47753 0.87756 0.25951 0.0
H2817 H 0.38964 0.85778 0.23974 0.0
H2818 H 0.4383 0.87936 0.28469 0.0
H2819 H 0.43083 0.86031 0.2115 0.0
C2820 C 0.45477 0.86501 0.21327 0.0
C2821 C 0.46832 0.8701 0.22645 0.0
C2822 C 0.42763 0.87454 0.27483 0.0
C2823 C 0.44089 0.86825 0.24414 0.0
C2824 C 0.41455 0.87505 0.2831 0.0
C2825 C 0.40061 0.8691 0.27063 0.0
C2826 C 0.42685 0.86815 0.25381 0.0
C2827 C 0.40013 0.86242 0.24994 0.0
C2828 C 0.44105 0.86404 0.22205 0.0
C2829 C 0.46752 0.87388 0.24857 0.0
N2830 N 0.41312 0.86223 0.2421 0.0
N2831 N 0.45408 0.87294 0.25667 0.0
H2832 H 0.58803 0.45415 0.19282 0.0
H2833 H 0.54228 0.40797 0.30191 0.0
H2834 H 0.60576 0.46999 0.25857 0.0
H2835 H 0.5264 0.39019 0.23619 0.0
H2836 H 0.56627 0.43013 0.28635 0.0
H2837 H 0.56602 0.43001 0.20832 0.0
C2838 C 0.5873 0.45252 0.21052 0.0
C2839 C 0.59869 0.46415 0.22443 0.0
C2840 C 0.5576 0.42133 0.27533 0.0
C2841 C 0.57354 0.43653 0.24231 0.0
C2842 C 0.54387 0.40872 0.2842 0.0
C2843 C 0.53227 0.39729 0.27031 0.0
C2844 C 0.55972 0.42261 0.25237 0.0
C2845 C 0.53507 0.39869 0.24751 0.0
C2846 C 0.57478 0.43871 0.21936 0.0
C2847 C 0.59731 0.4613 0.24722 0.0
N2848 N 0.54845 0.41119 0.23924 0.0
N2849 N 0.5849 0.44784 0.25546 0.0
H2850 H 0.12846 0.60457 0.25742 0.0
H2851 H 0.14206 0.53086 0.24025 0.0
H2852 H 0.14065 0.59273 0.19467 0.0
H2853 H 0.11603 0.53484 0.29503 0.0
H2854 H 0.14569 0.55587 0.22556 0.0
H2855 H 0.12811 0.58144 0.27376 0.0
C2856 C 0.13128 0.59722 0.24716 0.0
C2857 C 0.13455 0.60052 0.22465 0.0
C2858 C 0.13923 0.55128 0.24082 0.0
C2859 C 0.13405 0.57403 0.24317 0.0
C2860 C 0.13723 0.53708 0.24926 0.0
C2861 C 0.12868 0.53077 0.26883 0.0
C2862 C 0.13279 0.55932 0.25216 0.0
C2863 C 0.12254 0.53922 0.27976 0.0
C2864 C 0.13095 0.58396 0.25645 0.0
C2865 C 0.13792 0.59049 0.21204 0.0
N2866 N 0.12473 0.55308 0.27129 0.0
N2867 N 0.13758 0.57768 0.22148 0.0
H2868 H 0.4576 0.87499 0.80381 0.0
H2869 H 0.41383 0.87732 0.69359 0.0
H2870 H 0.47307 0.87137 0.73852 0.0
H2871 H 0.39406 0.87277 0.75869 0.0
H2872 H 0.43603 0.87594 0.70976 0.0
H2873 H 0.43474 0.87524 0.78762 0.0
C2874 C 0.45618 0.87426 0.78607 0.0
C2875 C 0.46725 0.87316 0.7725 0.0
C2876 C 0.42681 0.87521 0.7205 0.0
C2877 C 0.44112 0.8734 0.75386 0.0
C2878 C 0.41407 0.87592 0.71126 0.0
C2879 C 0.40201 0.87517 0.72477 0.0
C2880 C 0.42759 0.87385 0.74344 0.0
C2881 C 0.40318 0.87365 0.74763 0.0
C2882 C 0.4431 0.87432 0.77684 0.0
C2883 C 0.46474 0.87205 0.74962 0.0
N2884 N 0.41575 0.87308 0.75623 0.0
N2885 N 0.45198 0.87227 0.74102 0.0
H2886 H 0.60836 0.46018 0.75485 0.0
H2887 H 0.51402 0.40872 0.74456 0.0
H2888 H 0.57616 0.47014 0.79098 0.0
H2889 H 0.54563 0.39531 0.71418 0.0
H2890 H 0.53677 0.43148 0.76132 0.0
H2891 H 0.58569 0.43641 0.73973 0.0
C2892 C 0.59653 0.4573 0.75978 0.0
C2893 C 0.59418 0.46722 0.7742 0.0
C2894 C 0.53876 0.42356 0.75102 0.0
C2895 C 0.56815 0.44012 0.75667 0.0
C2896 C 0.52578 0.41062 0.74133 0.0
C2897 C 0.52795 0.40017 0.72782 0.0
C2898 C 0.55408 0.42617 0.74712 0.0
C2899 C 0.54342 0.40303 0.72457 0.0
C2900 C 0.58359 0.44377 0.75103 0.0
C2901 C 0.57856 0.46301 0.77967 0.0
N2902 N 0.55592 0.41582 0.73406 0.0
N2903 N 0.56616 0.44982 0.77087 0.0
H2904 H 0.10429 0.57779 0.78673 0.0
H2905 H 0.15408 0.54587 0.72143 0.0
H2906 H 0.15055 0.60892 0.75914 0.0
H2907 H 0.10387 0.51787 0.7339 0.0
H2908 H 0.15426 0.56863 0.73907 0.0
H2909 H 0.1052 0.55516 0.77131 0.0
C2910 C 0.11463 0.5799 0.77737 0.0
C2911 C 0.1273 0.59534 0.77406 0.0
C2912 C 0.14322 0.5575 0.73792 0.0
C2913 C 0.1285 0.56938 0.75661 0.0
C2914 C 0.14313 0.54452 0.72795 0.0
C2915 C 0.12892 0.53003 0.72607 0.0
C2916 C 0.12904 0.55587 0.7463 0.0
C2917 C 0.11504 0.5289 0.73471 0.0
C2918 C 0.11516 0.56694 0.76865 0.0
C2919 C 0.14056 0.59725 0.76227 0.0
N2920 N 0.11545 0.54163 0.74448 0.0
N2921 N 0.1408 0.58442 0.75391 0.0
H2922 H 0.5767 0.09181 0.73285 0.0
H2923 H 0.53995 0.14329 0.77809 0.0
H2924 H 0.59893 0.14222 0.72223 0.0
H2925 H 0.51129 0.0934 0.76393 0.0
H2926 H 0.56297 0.14301 0.76223 0.0
H2927 H 0.55367 0.09202 0.74875 0.0
C2928 C 0.57671 0.10291 0.73392 0.0
C2929 C 0.58967 0.11702 0.72623 0.0
C2930 C 0.55163 0.13214 0.76258 0.0
C2931 C 0.56354 0.11737 0.74449 0.0
C2932 C 0.53856 0.13227 0.77174 0.0
C2933 C 0.52375 0.11835 0.77225 0.0
C2934 C 0.54991 0.11793 0.75423 0.0
C2935 C 0.5225 0.1044 0.76366 0.0
C2936 C 0.56357 0.10302 0.74287 0.0
C2937 C 0.58909 0.13108 0.72783 0.0
N2938 N 0.53545 0.10452 0.7551 0.0
N2939 N 0.57628 0.13093 0.73693 0.0
H2940 H 0.41279 0.5149 0.76344 0.0
H2941 H 0.45743 0.60811 0.73919 0.0
H2942 H 0.39349 0.54484 0.78057 0.0
H2943 H 0.47542 0.57745 0.71978 0.0
H2944 H 0.43395 0.5852 0.75449 0.0
H2945 H 0.43593 0.53781 0.74769 0.0
C2946 C 0.41347 0.52633 0.76402 0.0
C2947 C 0.40122 0.52797 0.77347 0.0
C2948 C 0.44302 0.58348 0.74685 0.0
C2949 C 0.42766 0.55428 0.75522 0.0
C2950 C 0.45639 0.59654 0.73801 0.0
C2951 C 0.46842 0.5947 0.72818 0.0
C2952 C 0.44163 0.56844 0.74584 0.0
C2953 C 0.46655 0.57946 0.72745 0.0
C2954 C 0.42665 0.5394 0.75489 0.0
C2955 C 0.4026 0.54302 0.77332 0.0
N2956 N 0.45342 0.56693 0.73615 0.0
N2957 N 0.41561 0.5556 0.7644 0.0
H2958 H 0.8907 0.41608 0.78442 0.0
H2959 H 0.84331 0.44877 0.71465 0.0
H2960 H 0.84348 0.38592 0.75922 0.0
H2961 H 0.8903 0.47827 0.74103 0.0
H2962 H 0.84267 0.42563 0.7315 0.0
H2963 H 0.89036 0.43904 0.76915 0.0
C2964 C 0.88026 0.41429 0.7756 0.0
C2965 C 0.86714 0.39904 0.77294 0.0
C2966 C 0.85311 0.43718 0.73359 0.0
C2967 C 0.86662 0.42534 0.75551 0.0
C2968 C 0.85346 0.4504 0.72405 0.0
C2969 C 0.86693 0.46548 0.72629 0.0
C2970 C 0.86631 0.43907 0.74551 0.0
C2971 C 0.87979 0.46685 0.73849 0.0
C2972 C 0.88004 0.42742 0.76697 0.0
C2973 C 0.85382 0.39747 0.76176 0.0
N2974 N 0.87916 0.45383 0.7476 0.0
N2975 N 0.85392 0.41046 0.75335 0.0
loop_
_geom_bond_atom_site_label_1
_geom_bond_atom_site_label_2
_geom_bond_distance
_geom_bond_site_symmetry_2
_ccdc_geom_bond_type
Li0 N17 1.990 . S
Li0 O60 1.956 . S
Li0 O61 1.970 . S
Li0 O62 1.961 . S
Li1 N25 1.990 . S
Li1 O60 1.970 . S
Li1 O61 1.956 . S
Li1 O63 1.961 . S
Li2 N47 1.990 . S
Li2 O60 1.961 . S
Li2 O62 1.956 . S
Li2 O63 1.970 . S
Li3 N53 1.990 . S
Li3 O61 1.961 . S
Li3 O62 1.970 . S
Li3 O63 1.956 . S
C4 C6 1.348 . S
C4 C7 1.356 . S
C4 O60 1.325 . S
N5 C8 1.314 . S
N5 C9 1.279 . S
C6 C4 1.348 . S
C6 C8 1.353 . S
C6 H64 0.929 . S
C7 C4 1.356 . S
C7 C9 1.358 . S
C7 H65 0.930 . S
C8 N5 1.314 . S
C8 C6 1.353 . S
C8 H66 0.930 . S
C9 N5 1.279 . S
C9 C7 1.358 . S
C9 H67 0.930 . S
C10 C13 1.348 . S
C10 C14 1.356 . S
C10 O61 1.325 . S
C11 N12 1.279 . S
C11 C14 1.358 . S
C11 H68 0.930 . S
N12 C11 1.279 . S
N12 C15 1.314 . S
C13 C10 1.348 . S
C13 C15 1.353 . S
C13 H69 0.929 . S
C14 C10 1.356 . S
C14 C11 1.358 . S
C14 H70 0.930 . S
C15 N12 1.314 . S
C15 C13 1.353 . S
C15 H71 0.930 . S
C16 N17 1.314 . S
C16 C21 1.353 . S
C16 H22 0.930 . S
N17 Li0 1.990 . S
N17 C16 1.314 . S
N17 C19 1.279 . S
C18 C19 1.358 . S
C18 C20 1.356 . S
C18 H72 0.930 . S
C19 N17 1.279 . S
C19 C18 1.358 . S
C19 H23 0.930 . S
C20 C18 1.356 . S
C20 C21 1.348 . S
C21 C16 1.353 . S
C21 C20 1.348 . S
C21 H73 0.929 . S
H22 C16 0.930 . S
H23 C19 0.930 . S
C24 N25 1.314 . S
C24 C26 1.353 . S
C24 H30 0.930 . S
N25 Li1 1.990 . S
N25 C24 1.314 . S
N25 C28 1.279 . S
C26 C24 1.353 . S
C26 C29 1.348 . S
C26 H74 0.929 . S
C27 C28 1.358 . S
C27 C29 1.356 . S
C27 H75 0.930 . S
C28 N25 1.279 . S
C28 C27 1.358 . S
C28 H31 0.930 . S
C29 C26 1.348 . S
C29 C27 1.356 . S
H30 C24 0.930 . S
H31 C28 0.930 . S
C32 C34 1.348 . S
C32 C35 1.356 . S
C32 O62 1.325 . S
N33 C36 1.314 . S
N33 C37 1.279 . S
C34 C32 1.348 . S
C34 C36 1.353 . S
C34 H76 0.929 . S
C35 C32 1.356 . S
C35 C37 1.358 . S
C35 H77 0.930 . S
C36 N33 1.314 . S
C36 C34 1.353 . S
C36 H78 0.930 . S
C37 N33 1.279 . S
C37 C35 1.358 . S
C37 H79 0.930 . S
C38 C39 1.348 . S
C38 C40 1.356 . S
C38 O63 1.325 . S
C39 C38 1.348 . S
C39 C41 1.353 . S
C39 H80 0.929 . S
C40 C38 1.356 . S
C40 C42 1.358 . S
C40 H81 0.930 . S
C41 C39 1.353 . S
C41 N43 1.314 . S
C41 H82 0.930 . S
C42 C40 1.358 . S
C42 N43 1.279 . S
C42 H83 0.930 . S
N43 C41 1.314 . S
N43 C42 1.279 . S
C44 C46 1.353 . S
C44 N47 1.314 . S
C44 H50 0.930 . S
C45 N47 1.279 . S
C45 C48 1.358 . S
C45 H51 0.930 . S
C46 C44 1.353 . S
C46 C49 1.348 . S
C46 H84 0.929 . S
N47 Li2 1.990 . S
N47 C44 1.314 . S
N47 C45 1.279 . S
C48 C45 1.358 . S
C48 C49 1.356 . S
C48 H85 0.930 . S
C49 C46 1.348 . S
C49 C48 1.356 . S
H50 C44 0.930 . S
H51 C45 0.930 . S
C52 N53 1.314 . S
C52 C54 1.353 . S
C52 H58 0.930 . S
N53 Li3 1.990 . S
N53 C52 1.314 . S
N53 C56 1.279 . S
C54 C52 1.353 . S
C54 C57 1.348 . S
C54 H86 0.929 . S
C55 C56 1.358 . S
C55 C57 1.356 . S
C55 H87 0.930 . S
C56 N53 1.279 . S
C56 C55 1.358 . S
C56 H59 0.930 . S
C57 C54 1.348 . S
C57 C55 1.356 . S
H58 C52 0.930 . S
H59 C56 0.930 . S
O60 Li0 1.956 . S
O60 Li1 1.970 . S
O60 Li2 1.961 . S
O60 C4 1.325 . S
O61 Li0 1.970 . S
O61 Li1 1.956 . S
O61 Li3 1.961 . S
O61 C10 1.325 . S
O62 Li0 1.961 . S
O62 Li2 1.956 . S
O62 Li3 1.970 . S
O62 C32 1.325 . S
O63 Li1 1.961 . S
O63 Li2 1.970 . S
O63 Li3 1.956 . S
O63 C38 1.325 . S
H64 C6 0.929 . S
H65 C7 0.930 . S
H66 C8 0.930 . S
H67 C9 0.930 . S
H68 C11 0.930 . S
H69 C13 0.929 . S
H70 C14 0.930 . S
H71 C15 0.930 . S
H72 C18 0.930 . S
H73 C21 0.929 . S
H74 C26 0.929 . S
H75 C27 0.930 . S
H76 C34 0.929 . S
H77 C35 0.930 . S
H78 C36 0.930 . S
H79 C37 0.930 . S
H80 C39 0.929 . S
H81 C40 0.930 . S
H82 C41 0.930 . S
H83 C42 0.930 . S
H84 C46 0.929 . S
H85 C48 0.930 . S
H86 C54 0.929 . S
H87 C55 0.930 . S
Li88 N105 1.990 . S
Li88 O148 1.956 . S
Li88 O149 1.970 . S
Li88 O150 1.961 . S
Li89 N113 1.990 . S
Li89 O148 1.970 . S
Li89 O149 1.956 . S
Li89 O151 1.961 . S
Li90 N135 1.990 . S
Li90 O148 1.961 . S
Li90 O150 1.956 . S
Li90 O151 1.970 . S
Li91 N141 1.990 . S
Li91 O149 1.961 . S
Li91 O150 1.970 . S
Li91 O151 1.956 . S
C92 C94 1.348 . S
C92 C95 1.356 . S
C92 O148 1.325 . S
N93 C96 1.314 . S
N93 C97 1.279 . S
C94 C92 1.348 . S
C94 C96 1.353 . S
C94 H152 0.929 . S
C95 C92 1.356 . S
C95 C97 1.358 . S
C95 H153 0.930 . S
C96 N93 1.314 . S
C96 C94 1.353 . S
C96 H154 0.930 . S
C97 N93 1.279 . S
C97 C95 1.358 . S
C97 H155 0.930 . S
C98 C101 1.348 . S
C98 C102 1.356 . S
C98 O149 1.325 . S
C99 N100 1.279 . S
C99 C102 1.358 . S
C99 H156 0.930 . S
N100 C99 1.279 . S
N100 C103 1.314 . S
C101 C98 1.348 . S
C101 C103 1.353 . S
C101 H157 0.929 . S
C102 C98 1.356 . S
C102 C99 1.358 . S
C102 H158 0.930 . S
C103 N100 1.314 . S
C103 C101 1.353 . S
C103 H159 0.930 . S
C104 N105 1.314 . S
C104 C109 1.353 . S
C104 H110 0.930 . S
N105 Li88 1.990 . S
N105 C104 1.314 . S
N105 C107 1.279 . S
C106 C107 1.358 . S
C106 C108 1.356 . S
C106 H160 0.930 . S
C107 N105 1.279 . S
C107 C106 1.358 . S
C107 H111 0.930 . S
C108 C106 1.356 . S
C108 C109 1.348 . S
C109 C104 1.353 . S
C109 C108 1.348 . S
C109 H161 0.929 . S
H110 C104 0.930 . S
H111 C107 0.930 . S
C112 N113 1.314 . S
C112 C114 1.353 . S
C112 H118 0.930 . S
N113 Li89 1.990 . S
N113 C112 1.314 . S
N113 C116 1.279 . S
C114 C112 1.353 . S
C114 C117 1.348 . S
C114 H162 0.929 . S
C115 C116 1.358 . S
C115 C117 1.356 . S
C115 H163 0.930 . S
C116 N113 1.279 . S
C116 C115 1.358 . S
C116 H119 0.930 . S
C117 C114 1.348 . S
C117 C115 1.356 . S
H118 C112 0.930 . S
H119 C116 0.930 . S
C120 C122 1.348 . S
C120 C123 1.356 . S
C120 O150 1.325 . S
N121 C124 1.314 . S
N121 C125 1.279 . S
C122 C120 1.348 . S
C122 C124 1.353 . S
C122 H164 0.929 . S
C123 C120 1.356 . S
C123 C125 1.358 . S
C123 H165 0.930 . S
C124 N121 1.314 . S
C124 C122 1.353 . S
C124 H166 0.930 . S
C125 N121 1.279 . S
C125 C123 1.358 . S
C125 H167 0.930 . S
C126 C127 1.348 . S
C126 C128 1.356 . S
C126 O151 1.325 . S
C127 C126 1.348 . S
C127 C129 1.353 . S
C127 H168 0.929 . S
C128 C126 1.356 . S
C128 C130 1.358 . S
C128 H169 0.930 . S
C129 C127 1.353 . S
C129 N131 1.314 . S
C129 H170 0.930 . S
C130 C128 1.358 . S
C130 N131 1.279 . S
C130 H171 0.930 . S
N131 C129 1.314 . S
N131 C130 1.279 . S
C132 C134 1.353 . S
C132 N135 1.314 . S
C132 H138 0.930 . S
C133 N135 1.279 . S
C133 C136 1.358 . S
C133 H139 0.930 . S
C134 C132 1.353 . S
C134 C137 1.348 . S
C134 H172 0.929 . S
N135 Li90 1.990 . S
N135 C132 1.314 . S
N135 C133 1.279 . S
C136 C133 1.358 . S
C136 C137 1.356 . S
C136 H173 0.930 . S
C137 C134 1.348 . S
C137 C136 1.356 . S
H138 C132 0.930 . S
H139 C133 0.930 . S
C140 N141 1.314 . S
C140 C142 1.353 . S
C140 H146 0.930 . S
N141 Li91 1.990 . S
N141 C140 1.314 . S
N141 C144 1.279 . S
C142 C140 1.353 . S
C142 C145 1.348 . S
C142 H174 0.929 . S
C143 C144 1.358 . S
C143 C145 1.356 . S
C143 H175 0.930 . S
C144 N141 1.279 . S
C144 C143 1.358 . S
C144 H147 0.930 . S
C145 C142 1.348 . S
C145 C143 1.356 . S
H146 C140 0.930 . S
H147 C144 0.930 . S
O148 Li88 1.956 . S
O148 Li89 1.970 . S
O148 Li90 1.961 . S
O148 C92 1.325 . S
O149 Li88 1.970 . S
O149 Li89 1.956 . S
O149 Li91 1.961 . S
O149 C98 1.325 . S
O150 Li88 1.961 . S
O150 Li90 1.956 . S
O150 Li91 1.970 . S
O150 C120 1.325 . S
O151 Li89 1.961 . S
O151 Li90 1.970 . S
O151 Li91 1.956 . S
O151 C126 1.325 . S
H152 C94 0.929 . S
H153 C95 0.930 . S
H154 C96 0.930 . S
H155 C97 0.930 . S
H156 C99 0.930 . S
H157 C101 0.929 . S
H158 C102 0.930 . S
H159 C103 0.930 . S
H160 C106 0.930 . S
H161 C109 0.929 . S
H162 C114 0.929 . S
H163 C115 0.930 . S
H164 C122 0.929 . S
H165 C123 0.930 . S
H166 C124 0.930 . S
H167 C125 0.930 . S
H168 C127 0.929 . S
H169 C128 0.930 . S
H170 C129 0.930 . S
H171 C130 0.930 . S
H172 C134 0.929 . S
H173 C136 0.930 . S
H174 C142 0.929 . S
H175 C143 0.930 . S
Li176 N193 1.990 . S
Li176 O236 1.956 . S
Li176 O237 1.970 . S
Li176 O238 1.961 . S
Li177 N201 1.990 . S
Li177 O236 1.970 . S
Li177 O237 1.956 . S
Li177 O239 1.961 . S
Li178 N223 1.990 . S
Li178 O236 1.961 . S
Li178 O238 1.956 . S
Li178 O239 1.970 . S
Li179 N229 1.990 . S
Li179 O237 1.961 . S
Li179 O238 1.970 . S
Li179 O239 1.956 . S
C180 C182 1.348 . S
C180 C183 1.356 . S
C180 O236 1.325 . S
N181 C184 1.314 . S
N181 C185 1.279 . S
C182 C180 1.348 . S
C182 C184 1.353 . S
C182 H240 0.929 . S
C183 C180 1.356 . S
C183 C185 1.358 . S
C183 H241 0.930 . S
C184 N181 1.314 . S
C184 C182 1.353 . S
C184 H242 0.930 . S
C185 N181 1.279 . S
C185 C183 1.358 . S
C185 H243 0.930 . S
C186 C189 1.348 . S
C186 C190 1.356 . S
C186 O237 1.325 . S
C187 N188 1.279 . S
C187 C190 1.358 . S
C187 H244 0.930 . S
N188 C187 1.279 . S
N188 C191 1.314 . S
C189 C186 1.348 . S
C189 C191 1.353 . S
C189 H245 0.929 . S
C190 C186 1.356 . S
C190 C187 1.358 . S
C190 H246 0.930 . S
C191 N188 1.314 . S
C191 C189 1.353 . S
C191 H247 0.930 . S
C192 N193 1.314 . S
C192 C197 1.353 . S
C192 H198 0.930 . S
N193 Li176 1.990 . S
N193 C192 1.314 . S
N193 C195 1.279 . S
C194 C195 1.358 . S
C194 C196 1.356 . S
C194 H248 0.930 . S
C195 N193 1.279 . S
C195 C194 1.358 . S
C195 H199 0.930 . S
C196 C194 1.356 . S
C196 C197 1.348 . S
C197 C192 1.353 . S
C197 C196 1.348 . S
C197 H249 0.929 . S
H198 C192 0.930 . S
H199 C195 0.930 . S
C200 N201 1.314 . S
C200 C202 1.353 . S
C200 H206 0.930 . S
N201 Li177 1.990 . S
N201 C200 1.314 . S
N201 C204 1.279 . S
C202 C200 1.353 . S
C202 C205 1.348 . S
C202 H250 0.929 . S
C203 C204 1.358 . S
C203 C205 1.356 . S
C203 H251 0.930 . S
C204 N201 1.279 . S
C204 C203 1.358 . S
C204 H207 0.930 . S
C205 C202 1.348 . S
C205 C203 1.356 . S
H206 C200 0.930 . S
H207 C204 0.930 . S
C208 C210 1.348 . S
C208 C211 1.356 . S
C208 O238 1.325 . S
N209 C212 1.314 . S
N209 C213 1.279 . S
C210 C208 1.348 . S
C210 C212 1.353 . S
C210 H252 0.929 . S
C211 C208 1.356 . S
C211 C213 1.358 . S
C211 H253 0.930 . S
C212 N209 1.314 . S
C212 C210 1.353 . S
C212 H254 0.930 . S
C213 N209 1.279 . S
C213 C211 1.358 . S
C213 H255 0.930 . S
C214 C215 1.348 . S
C214 C216 1.356 . S
C214 O239 1.325 . S
C215 C214 1.348 . S
C215 C217 1.353 . S
C215 H256 0.929 . S
C216 C214 1.356 . S
C216 C218 1.358 . S
C216 H257 0.930 . S
C217 C215 1.353 . S
C217 N219 1.314 . S
C217 H258 0.930 . S
C218 C216 1.358 . S
C218 N219 1.279 . S
C218 H259 0.930 . S
N219 C217 1.314 . S
N219 C218 1.279 . S
C220 C222 1.353 . S
C220 N223 1.314 . S
C220 H226 0.930 . S
C221 N223 1.279 . S
C221 C224 1.358 . S
C221 H227 0.930 . S
C222 C220 1.353 . S
C222 C225 1.348 . S
C222 H260 0.929 . S
N223 Li178 1.990 . S
N223 C220 1.314 . S
N223 C221 1.279 . S
C224 C221 1.358 . S
C224 C225 1.356 . S
C224 H261 0.930 . S
C225 C222 1.348 . S
C225 C224 1.356 . S
H226 C220 0.930 . S
H227 C221 0.930 . S
C228 N229 1.314 . S
C228 C230 1.353 . S
C228 H234 0.930 . S
N229 Li179 1.990 . S
N229 C228 1.314 . S
N229 C232 1.279 . S
C230 C228 1.353 . S
C230 C233 1.348 . S
C230 H262 0.929 . S
C231 C232 1.358 . S
C231 C233 1.356 . S
C231 H263 0.930 . S
C232 N229 1.279 . S
C232 C231 1.358 . S
C232 H235 0.930 . S
C233 C230 1.348 . S
C233 C231 1.356 . S
H234 C228 0.930 . S
H235 C232 0.930 . S
O236 Li176 1.956 . S
O236 Li177 1.970 . S
O236 Li178 1.961 . S
O236 C180 1.325 . S
O237 Li176 1.970 . S
O237 Li177 1.956 . S
O237 Li179 1.961 . S
O237 C186 1.325 . S
O238 Li176 1.961 . S
O238 Li178 1.956 . S
O238 Li179 1.970 . S
O238 C208 1.325 . S
O239 Li177 1.961 . S
O239 Li178 1.970 . S
O239 Li179 1.956 . S
O239 C214 1.325 . S
H240 C182 0.929 . S
H241 C183 0.930 . S
H242 C184 0.930 . S
H243 C185 0.930 . S
H244 C187 0.930 . S
H245 C189 0.929 . S
H246 C190 0.930 . S
H247 C191 0.930 . S
H248 C194 0.930 . S
H249 C197 0.929 . S
H250 C202 0.929 . S
H251 C203 0.930 . S
H252 C210 0.929 . S
H253 C211 0.930 . S
H254 C212 0.930 . S
H255 C213 0.930 . S
H256 C215 0.929 . S
H257 C216 0.930 . S
H258 C217 0.930 . S
H259 C218 0.930 . S
H260 C222 0.929 . S
H261 C224 0.930 . S
H262 C230 0.929 . S
H263 C231 0.930 . S
Li264 N281 1.990 . S
Li264 O324 1.956 . S
Li264 O325 1.970 . S
Li264 O326 1.961 . S
Li265 N289 1.990 . S
Li265 O324 1.970 . S
Li265 O325 1.956 . S
Li265 O327 1.961 . S
Li266 N311 1.990 . S
Li266 O324 1.961 . S
Li266 O326 1.956 . S
Li266 O327 1.970 . S
Li267 N317 1.990 . S
Li267 O325 1.961 . S
Li267 O326 1.970 . S
Li267 O327 1.956 . S
C268 C270 1.348 . S
C268 C271 1.356 . S
C268 O324 1.325 . S
N269 C272 1.314 . S
N269 C273 1.279 . S
C270 C268 1.348 . S
C270 C272 1.353 . S
C270 H328 0.929 . S
C271 C268 1.356 . S
C271 C273 1.358 . S
C271 H329 0.930 . S
C272 N269 1.314 . S
C272 C270 1.353 . S
C272 H330 0.930 . S
C273 N269 1.279 . S
C273 C271 1.358 . S
C273 H331 0.930 . S
C274 C277 1.348 . S
C274 C278 1.356 . S
C274 O325 1.325 . S
C275 N276 1.279 . S
C275 C278 1.358 . S
C275 H332 0.930 . S
N276 C275 1.279 . S
N276 C279 1.314 . S
C277 C274 1.348 . S
C277 C279 1.353 . S
C277 H333 0.929 . S
C278 C274 1.356 . S
C278 C275 1.358 . S
C278 H334 0.930 . S
C279 N276 1.314 . S
C279 C277 1.353 . S
C279 H335 0.930 . S
C280 N281 1.314 . S
C280 C285 1.353 . S
C280 H286 0.930 . S
N281 Li264 1.990 . S
N281 C280 1.314 . S
N281 C283 1.279 . S
C282 C283 1.358 . S
C282 C284 1.356 . S
C282 H336 0.930 . S
C283 N281 1.279 . S
C283 C282 1.358 . S
C283 H287 0.930 . S
C284 C282 1.356 . S
C284 C285 1.348 . S
C285 C280 1.353 . S
C285 C284 1.348 . S
C285 H337 0.929 . S
H286 C280 0.930 . S
H287 C283 0.930 . S
C288 N289 1.314 . S
C288 C290 1.353 . S
C288 H294 0.930 . S
N289 Li265 1.990 . S
N289 C288 1.314 . S
N289 C292 1.279 . S
C290 C288 1.353 . S
C290 C293 1.348 . S
C290 H338 0.929 . S
C291 C292 1.358 . S
C291 C293 1.356 . S
C291 H339 0.930 . S
C292 N289 1.279 . S
C292 C291 1.358 . S
C292 H295 0.930 . S
C293 C290 1.348 . S
C293 C291 1.356 . S
H294 C288 0.930 . S
H295 C292 0.930 . S
C296 C298 1.348 . S
C296 C299 1.356 . S
C296 O326 1.325 . S
N297 C300 1.314 . S
N297 C301 1.279 . S
C298 C296 1.348 . S
C298 C300 1.353 . S
C298 H340 0.929 . S
C299 C296 1.356 . S
C299 C301 1.358 . S
C299 H341 0.930 . S
C300 N297 1.314 . S
C300 C298 1.353 . S
C300 H342 0.930 . S
C301 N297 1.279 . S
C301 C299 1.358 . S
C301 H343 0.930 . S
C302 C303 1.348 . S
C302 C304 1.356 . S
C302 O327 1.325 . S
C303 C302 1.348 . S
C303 C305 1.353 . S
C303 H344 0.929 . S
C304 C302 1.356 . S
C304 C306 1.358 . S
C304 H345 0.930 . S
C305 C303 1.353 . S
C305 N307 1.314 . S
C305 H346 0.930 . S
C306 C304 1.358 . S
C306 N307 1.279 . S
C306 H347 0.930 . S
N307 C305 1.314 . S
N307 C306 1.279 . S
C308 C310 1.353 . S
C308 N311 1.314 . S
C308 H314 0.930 . S
C309 N311 1.279 . S
C309 C312 1.358 . S
C309 H315 0.930 . S
C310 C308 1.353 . S
C310 C313 1.348 . S
C310 H348 0.929 . S
N311 Li266 1.990 . S
N311 C308 1.314 . S
N311 C309 1.279 . S
C312 C309 1.358 . S
C312 C313 1.356 . S
C312 H349 0.930 . S
C313 C310 1.348 . S
C313 C312 1.356 . S
H314 C308 0.930 . S
H315 C309 0.930 . S
C316 N317 1.314 . S
C316 C318 1.353 . S
C316 H322 0.930 . S
N317 Li267 1.990 . S
N317 C316 1.314 . S
N317 C320 1.279 . S
C318 C316 1.353 . S
C318 C321 1.348 . S
C318 H350 0.929 . S
C319 C320 1.358 . S
C319 C321 1.356 . S
C319 H351 0.930 . S
C320 N317 1.279 . S
C320 C319 1.358 . S
C320 H323 0.930 . S
C321 C318 1.348 . S
C321 C319 1.356 . S
H322 C316 0.930 . S
H323 C320 0.930 . S
O324 Li264 1.956 . S
O324 Li265 1.970 . S
O324 Li266 1.961 . S
O324 C268 1.325 . S
O325 Li264 1.970 . S
O325 Li265 1.956 . S
O325 Li267 1.961 . S
O325 C274 1.325 . S
O326 Li264 1.961 . S
O326 Li266 1.956 . S
O326 Li267 1.970 . S
O326 C296 1.325 . S
O327 Li265 1.961 . S
O327 Li266 1.970 . S
O327 Li267 1.956 . S
O327 C302 1.325 . S
H328 C270 0.929 . S
H329 C271 0.930 . S
H330 C272 0.930 . S
H331 C273 0.930 . S
H332 C275 0.930 . S
H333 C277 0.929 . S
H334 C278 0.930 . S
H335 C279 0.930 . S
H336 C282 0.930 . S
H337 C285 0.929 . S
H338 C290 0.929 . S
H339 C291 0.930 . S
H340 C298 0.929 . S
H341 C299 0.930 . S
H342 C300 0.930 . S
H343 C301 0.930 . S
H344 C303 0.929 . S
H345 C304 0.930 . S
H346 C305 0.930 . S
H347 C306 0.930 . S
H348 C310 0.929 . S
H349 C312 0.930 . S
H350 C318 0.929 . S
H351 C319 0.930 . S
Li352 N369 1.990 . S
Li352 O412 1.956 . S
Li352 O413 1.970 . S
Li352 O414 1.961 . S
Li353 N377 1.990 . S
Li353 O412 1.970 . S
Li353 O413 1.956 . S
Li353 O415 1.961 . S
Li354 N399 1.990 . S
Li354 O412 1.961 . S
Li354 O414 1.956 . S
Li354 O415 1.970 . S
Li355 N405 1.990 . S
Li355 O413 1.961 . S
Li355 O414 1.970 . S
Li355 O415 1.956 . S
C356 C358 1.348 . S
C356 C359 1.356 . S
C356 O412 1.325 . S
N357 C360 1.314 . S
N357 C361 1.279 . S
C358 C356 1.348 . S
C358 C360 1.353 . S
C358 H416 0.929 . S
C359 C356 1.356 . S
C359 C361 1.358 . S
C359 H417 0.930 . S
C360 N357 1.314 . S
C360 C358 1.353 . S
C360 H418 0.930 . S
C361 N357 1.279 . S
C361 C359 1.358 . S
C361 H419 0.930 . S
C362 C365 1.348 . S
C362 C366 1.356 . S
C362 O413 1.325 . S
C363 N364 1.279 . S
C363 C366 1.358 . S
C363 H420 0.930 . S
N364 C363 1.279 . S
N364 C367 1.314 . S
C365 C362 1.348 . S
C365 C367 1.353 . S
C365 H421 0.929 . S
C366 C362 1.356 . S
C366 C363 1.358 . S
C366 H422 0.930 . S
C367 N364 1.314 . S
C367 C365 1.353 . S
C367 H423 0.930 . S
C368 N369 1.314 . S
C368 C373 1.353 . S
C368 H374 0.930 . S
N369 Li352 1.990 . S
N369 C368 1.314 . S
N369 C371 1.279 . S
C370 C371 1.358 . S
C370 C372 1.356 . S
C370 H424 0.930 . S
C371 N369 1.279 . S
C371 C370 1.358 . S
C371 H375 0.930 . S
C372 C370 1.356 . S
C372 C373 1.348 . S
C373 C368 1.353 . S
C373 C372 1.348 . S
C373 H425 0.929 . S
H374 C368 0.930 . S
H375 C371 0.930 . S
C376 N377 1.314 . S
C376 C378 1.353 . S
C376 H382 0.930 . S
N377 Li353 1.990 . S
N377 C376 1.314 . S
N377 C380 1.279 . S
C378 C376 1.353 . S
C378 C381 1.348 . S
C378 H426 0.929 . S
C379 C380 1.358 . S
C379 C381 1.356 . S
C379 H427 0.930 . S
C380 N377 1.279 . S
C380 C379 1.358 . S
C380 H383 0.930 . S
C381 C378 1.348 . S
C381 C379 1.356 . S
H382 C376 0.930 . S
H383 C380 0.930 . S
C384 C386 1.348 . S
C384 C387 1.356 . S
C384 O414 1.325 . S
N385 C388 1.314 . S
N385 C389 1.279 . S
C386 C384 1.348 . S
C386 C388 1.353 . S
C386 H428 0.929 . S
C387 C384 1.356 . S
C387 C389 1.358 . S
C387 H429 0.930 . S
C388 N385 1.314 . S
C388 C386 1.353 . S
C388 H430 0.930 . S
C389 N385 1.279 . S
C389 C387 1.358 . S
C389 H431 0.930 . S
C390 C391 1.348 . S
C390 C392 1.356 . S
C390 O415 1.325 . S
C391 C390 1.348 . S
C391 C393 1.353 . S
C391 H432 0.929 . S
C392 C390 1.356 . S
C392 C394 1.358 . S
C392 H433 0.930 . S
C393 C391 1.353 . S
C393 N395 1.314 . S
C393 H434 0.930 . S
C394 C392 1.358 . S
C394 N395 1.279 . S
C394 H435 0.930 . S
N395 C393 1.314 . S
N395 C394 1.279 . S
C396 C398 1.353 . S
C396 N399 1.314 . S
C396 H402 0.930 . S
C397 N399 1.279 . S
C397 C400 1.358 . S
C397 H403 0.930 . S
C398 C396 1.353 . S
C398 C401 1.348 . S
C398 H436 0.929 . S
N399 Li354 1.990 . S
N399 C396 1.314 . S
N399 C397 1.279 . S
C400 C397 1.358 . S
C400 C401 1.356 . S
C400 H437 0.930 . S
C401 C398 1.348 . S
C401 C400 1.356 . S
H402 C396 0.930 . S
H403 C397 0.930 . S
C404 N405 1.314 . S
C404 C406 1.353 . S
C404 H410 0.930 . S
N405 Li355 1.990 . S
N405 C404 1.314 . S
N405 C408 1.279 . S
C406 C404 1.353 . S
C406 C409 1.348 . S
C406 H438 0.929 . S
C407 C408 1.358 . S
C407 C409 1.356 . S
C407 H439 0.930 . S
C408 N405 1.279 . S
C408 C407 1.358 . S
C408 H411 0.930 . S
C409 C406 1.348 . S
C409 C407 1.356 . S
H410 C404 0.930 . S
H411 C408 0.930 . S
O412 Li352 1.956 . S
O412 Li353 1.970 . S
O412 Li354 1.961 . S
O412 C356 1.325 . S
O413 Li352 1.970 . S
O413 Li353 1.956 . S
O413 Li355 1.961 . S
O413 C362 1.325 . S
O414 Li352 1.961 . S
O414 Li354 1.956 . S
O414 Li355 1.970 . S
O414 C384 1.325 . S
O415 Li353 1.961 . S
O415 Li354 1.970 . S
O415 Li355 1.956 . S
O415 C390 1.325 . S
H416 C358 0.929 . S
H417 C359 0.930 . S
H418 C360 0.930 . S
H419 C361 0.930 . S
H420 C363 0.930 . S
H421 C365 0.929 . S
H422 C366 0.930 . S
H423 C367 0.930 . S
H424 C370 0.930 . S
H425 C373 0.929 . S
H426 C378 0.929 . S
H427 C379 0.930 . S
H428 C386 0.929 . S
H429 C387 0.930 . S
H430 C388 0.930 . S
H431 C389 0.930 . S
H432 C391 0.929 . S
H433 C392 0.930 . S
H434 C393 0.930 . S
H435 C394 0.930 . S
H436 C398 0.929 . S
H437 C400 0.930 . S
H438 C406 0.929 . S
H439 C407 0.930 . S
Li440 N457 1.990 . S
Li440 O500 1.956 . S
Li440 O501 1.970 . S
Li440 O502 1.961 . S
Li441 N465 1.990 . S
Li441 O500 1.970 . S
Li441 O501 1.956 . S
Li441 O503 1.961 . S
Li442 N487 1.990 . S
Li442 O500 1.961 . S
Li442 O502 1.956 . S
Li442 O503 1.970 . S
Li443 N493 1.990 . S
Li443 O501 1.961 . S
Li443 O502 1.970 . S
Li443 O503 1.956 . S
C444 C446 1.348 . S
C444 C447 1.356 . S
C444 O500 1.325 . S
N445 C448 1.314 . S
N445 C449 1.279 . S
C446 C444 1.348 . S
C446 C448 1.353 . S
C446 H504 0.929 . S
C447 C444 1.356 . S
C447 C449 1.358 . S
C447 H505 0.930 . S
C448 N445 1.314 . S
C448 C446 1.353 . S
C448 H506 0.930 . S
C449 N445 1.279 . S
C449 C447 1.358 . S
C449 H507 0.930 . S
C450 C453 1.348 . S
C450 C454 1.356 . S
C450 O501 1.325 . S
C451 N452 1.279 . S
C451 C454 1.358 . S
C451 H508 0.930 . S
N452 C451 1.279 . S
N452 C455 1.314 . S
C453 C450 1.348 . S
C453 C455 1.353 . S
C453 H509 0.929 . S
C454 C450 1.356 . S
C454 C451 1.358 . S
C454 H510 0.930 . S
C455 N452 1.314 . S
C455 C453 1.353 . S
C455 H511 0.930 . S
C456 N457 1.314 . S
C456 C461 1.353 . S
C456 H462 0.930 . S
N457 Li440 1.990 . S
N457 C456 1.314 . S
N457 C459 1.279 . S
C458 C459 1.358 . S
C458 C460 1.356 . S
C458 H512 0.930 . S
C459 N457 1.279 . S
C459 C458 1.358 . S
C459 H463 0.930 . S
C460 C458 1.356 . S
C460 C461 1.348 . S
C461 C456 1.353 . S
C461 C460 1.348 . S
C461 H513 0.929 . S
H462 C456 0.930 . S
H463 C459 0.930 . S
C464 N465 1.314 . S
C464 C466 1.353 . S
C464 H470 0.930 . S
N465 Li441 1.990 . S
N465 C464 1.314 . S
N465 C468 1.279 . S
C466 C464 1.353 . S
C466 C469 1.348 . S
C466 H514 0.929 . S
C467 C468 1.358 . S
C467 C469 1.356 . S
C467 H515 0.930 . S
C468 N465 1.279 . S
C468 C467 1.358 . S
C468 H471 0.930 . S
C469 C466 1.348 . S
C469 C467 1.356 . S
H470 C464 0.930 . S
H471 C468 0.930 . S
C472 C474 1.348 . S
C472 C475 1.356 . S
C472 O502 1.325 . S
N473 C476 1.314 . S
N473 C477 1.279 . S
C474 C472 1.348 . S
C474 C476 1.353 . S
C474 H516 0.929 . S
C475 C472 1.356 . S
C475 C477 1.358 . S
C475 H517 0.930 . S
C476 N473 1.314 . S
C476 C474 1.353 . S
C476 H518 0.930 . S
C477 N473 1.279 . S
C477 C475 1.358 . S
C477 H519 0.930 . S
C478 C479 1.348 . S
C478 C480 1.356 . S
C478 O503 1.325 . S
C479 C478 1.348 . S
C479 C481 1.353 . S
C479 H520 0.929 . S
C480 C478 1.356 . S
C480 C482 1.358 . S
C480 H521 0.930 . S
C481 C479 1.353 . S
C481 N483 1.314 . S
C481 H522 0.930 . S
C482 C480 1.358 . S
C482 N483 1.279 . S
C482 H523 0.930 . S
N483 C481 1.314 . S
N483 C482 1.279 . S
C484 C486 1.353 . S
C484 N487 1.314 . S
C484 H490 0.930 . S
C485 N487 1.279 . S
C485 C488 1.358 . S
C485 H491 0.930 . S
C486 C484 1.353 . S
C486 C489 1.348 . S
C486 H524 0.929 . S
N487 Li442 1.990 . S
N487 C484 1.314 . S
N487 C485 1.279 . S
C488 C485 1.358 . S
C488 C489 1.356 . S
C488 H525 0.930 . S
C489 C486 1.348 . S
C489 C488 1.356 . S
H490 C484 0.930 . S
H491 C485 0.930 . S
C492 N493 1.314 . S
C492 C494 1.353 . S
C492 H498 0.930 . S
N493 Li443 1.990 . S
N493 C492 1.314 . S
N493 C496 1.279 . S
C494 C492 1.353 . S
C494 C497 1.348 . S
C494 H526 0.929 . S
C495 C496 1.358 . S
C495 C497 1.356 . S
C495 H527 0.930 . S
C496 N493 1.279 . S
C496 C495 1.358 . S
C496 H499 0.930 . S
C497 C494 1.348 . S
C497 C495 1.356 . S
H498 C492 0.930 . S
H499 C496 0.930 . S
O500 Li440 1.956 . S
O500 Li441 1.970 . S
O500 Li442 1.961 . S
O500 C444 1.325 . S
O501 Li440 1.970 . S
O501 Li441 1.956 . S
O501 Li443 1.961 . S
O501 C450 1.325 . S
O502 Li440 1.961 . S
O502 Li442 1.956 . S
O502 Li443 1.970 . S
O502 C472 1.325 . S
O503 Li441 1.961 . S
O503 Li442 1.970 . S
O503 Li443 1.956 . S
O503 C478 1.325 . S
H504 C446 0.929 . S
H505 C447 0.930 . S
H506 C448 0.930 . S
H507 C449 0.930 . S
H508 C451 0.930 . S
H509 C453 0.929 . S
H510 C454 0.930 . S
H511 C455 0.930 . S
H512 C458 0.930 . S
H513 C461 0.929 . S
H514 C466 0.929 . S
H515 C467 0.930 . S
H516 C474 0.929 . S
H517 C475 0.930 . S
H518 C476 0.930 . S
H519 C477 0.930 . S
H520 C479 0.929 . S
H521 C480 0.930 . S
H522 C481 0.930 . S
H523 C482 0.930 . S
H524 C486 0.929 . S
H525 C488 0.930 . S
H526 C494 0.929 . S
H527 C495 0.930 . S
Li528 N545 1.990 . S
Li528 O588 1.956 . S
Li528 O589 1.970 . S
Li528 O590 1.961 . S
Li529 N553 1.990 . S
Li529 O588 1.970 . S
Li529 O589 1.956 . S
Li529 O591 1.961 . S
Li530 N575 1.990 . S
Li530 O588 1.961 . S
Li530 O590 1.956 . S
Li530 O591 1.970 . S
Li531 N581 1.990 . S
Li531 O589 1.961 . S
Li531 O590 1.970 . S
Li531 O591 1.956 . S
C532 C534 1.348 . S
C532 C535 1.356 . S
C532 O588 1.325 . S
N533 C536 1.314 . S
N533 C537 1.279 . S
C534 C532 1.348 . S
C534 C536 1.353 . S
C534 H592 0.929 . S
C535 C532 1.356 . S
C535 C537 1.358 . S
C535 H593 0.930 . S
C536 N533 1.314 . S
C536 C534 1.353 . S
C536 H594 0.930 . S
C537 N533 1.279 . S
C537 C535 1.358 . S
C537 H595 0.930 . S
C538 C541 1.348 . S
C538 C542 1.356 . S
C538 O589 1.325 . S
C539 N540 1.279 . S
C539 C542 1.358 . S
C539 H596 0.930 . S
N540 C539 1.279 . S
N540 C543 1.314 . S
C541 C538 1.348 . S
C541 C543 1.353 . S
C541 H597 0.929 . S
C542 C538 1.356 . S
C542 C539 1.358 . S
C542 H598 0.930 . S
C543 N540 1.314 . S
C543 C541 1.353 . S
C543 H599 0.930 . S
C544 N545 1.314 . S
C544 C549 1.353 . S
C544 H550 0.930 . S
N545 Li528 1.990 . S
N545 C544 1.314 . S
N545 C547 1.279 . S
C546 C547 1.358 . S
C546 C548 1.356 . S
C546 H600 0.930 . S
C547 N545 1.279 . S
C547 C546 1.358 . S
C547 H551 0.930 . S
C548 C546 1.356 . S
C548 C549 1.348 . S
C549 C544 1.353 . S
C549 C548 1.348 . S
C549 H601 0.929 . S
H550 C544 0.930 . S
H551 C547 0.930 . S
C552 N553 1.314 . S
C552 C554 1.353 . S
C552 H558 0.930 . S
N553 Li529 1.990 . S
N553 C552 1.314 . S
N553 C556 1.279 . S
C554 C552 1.353 . S
C554 C557 1.348 . S
C554 H602 0.929 . S
C555 C556 1.358 . S
C555 C557 1.356 . S
C555 H603 0.930 . S
C556 N553 1.279 . S
C556 C555 1.358 . S
C556 H559 0.930 . S
C557 C554 1.348 . S
C557 C555 1.356 . S
H558 C552 0.930 . S
H559 C556 0.930 . S
C560 C562 1.348 . S
C560 C563 1.356 . S
C560 O590 1.325 . S
N561 C564 1.314 . S
N561 C565 1.279 . S
C562 C560 1.348 . S
C562 C564 1.353 . S
C562 H604 0.929 . S
C563 C560 1.356 . S
C563 C565 1.358 . S
C563 H605 0.930 . S
C564 N561 1.314 . S
C564 C562 1.353 . S
C564 H606 0.930 . S
C565 N561 1.279 . S
C565 C563 1.358 . S
C565 H607 0.930 . S
C566 C567 1.348 . S
C566 C568 1.356 . S
C566 O591 1.325 . S
C567 C566 1.348 . S
C567 C569 1.353 . S
C567 H608 0.929 . S
C568 C566 1.356 . S
C568 C570 1.358 . S
C568 H609 0.930 . S
C569 C567 1.353 . S
C569 N571 1.314 . S
C569 H610 0.930 . S
C570 C568 1.358 . S
C570 N571 1.279 . S
C570 H611 0.930 . S
N571 C569 1.314 . S
N571 C570 1.279 . S
C572 C574 1.353 . S
C572 N575 1.314 . S
C572 H578 0.930 . S
C573 N575 1.279 . S
C573 C576 1.358 . S
C573 H579 0.930 . S
C574 C572 1.353 . S
C574 C577 1.348 . S
C574 H612 0.929 . S
N575 Li530 1.990 . S
N575 C572 1.314 . S
N575 C573 1.279 . S
C576 C573 1.358 . S
C576 C577 1.356 . S
C576 H613 0.930 . S
C577 C574 1.348 . S
C577 C576 1.356 . S
H578 C572 0.930 . S
H579 C573 0.930 . S
C580 N581 1.314 . S
C580 C582 1.353 . S
C580 H586 0.930 . S
N581 Li531 1.990 . S
N581 C580 1.314 . S
N581 C584 1.279 . S
C582 C580 1.353 . S
C582 C585 1.348 . S
C582 H614 0.929 . S
C583 C584 1.358 . S
C583 C585 1.356 . S
C583 H615 0.930 . S
C584 N581 1.279 . S
C584 C583 1.358 . S
C584 H587 0.930 . S
C585 C582 1.348 . S
C585 C583 1.356 . S
H586 C580 0.930 . S
H587 C584 0.930 . S
O588 Li528 1.956 . S
O588 Li529 1.970 . S
O588 Li530 1.961 . S
O588 C532 1.325 . S
O589 Li528 1.970 . S
O589 Li529 1.956 . S
O589 Li531 1.961 . S
O589 C538 1.325 . S
O590 Li528 1.961 . S
O590 Li530 1.956 . S
O590 Li531 1.970 . S
O590 C560 1.325 . S
O591 Li529 1.961 . S
O591 Li530 1.970 . S
O591 Li531 1.956 . S
O591 C566 1.325 . S
H592 C534 0.929 . S
H593 C535 0.930 . S
H594 C536 0.930 . S
H595 C537 0.930 . S
H596 C539 0.930 . S
H597 C541 0.929 . S
H598 C542 0.930 . S
H599 C543 0.930 . S
H600 C546 0.930 . S
H601 C549 0.929 . S
H602 C554 0.929 . S
H603 C555 0.930 . S
H604 C562 0.929 . S
H605 C563 0.930 . S
H606 C564 0.930 . S
H607 C565 0.930 . S
H608 C567 0.929 . S
H609 C568 0.930 . S
H610 C569 0.930 . S
H611 C570 0.930 . S
H612 C574 0.929 . S
H613 C576 0.930 . S
H614 C582 0.929 . S
H615 C583 0.930 . S
Li616 N633 1.990 . S
Li616 O676 1.956 . S
Li616 O677 1.970 . S
Li616 O678 1.961 . S
Li617 N641 1.990 . S
Li617 O676 1.970 . S
Li617 O677 1.956 . S
Li617 O679 1.961 . S
Li618 N663 1.990 . S
Li618 O676 1.961 . S
Li618 O678 1.956 . S
Li618 O679 1.970 . S
Li619 N669 1.990 . S
Li619 O677 1.961 . S
Li619 O678 1.970 . S
Li619 O679 1.956 . S
C620 C622 1.348 . S
C620 C623 1.356 . S
C620 O676 1.325 . S
N621 C624 1.314 . S
N621 C625 1.279 . S
C622 C620 1.348 . S
C622 C624 1.353 . S
C622 H680 0.929 . S
C623 C620 1.356 . S
C623 C625 1.358 . S
C623 H681 0.930 . S
C624 N621 1.314 . S
C624 C622 1.353 . S
C624 H682 0.930 . S
C625 N621 1.279 . S
C625 C623 1.358 . S
C625 H683 0.930 . S
C626 C629 1.348 . S
C626 C630 1.356 . S
C626 O677 1.325 . S
C627 N628 1.279 . S
C627 C630 1.358 . S
C627 H684 0.930 . S
N628 C627 1.279 . S
N628 C631 1.314 . S
C629 C626 1.348 . S
C629 C631 1.353 . S
C629 H685 0.929 . S
C630 C626 1.356 . S
C630 C627 1.358 . S
C630 H686 0.930 . S
C631 N628 1.314 . S
C631 C629 1.353 . S
C631 H687 0.930 . S
C632 N633 1.314 . S
C632 C637 1.353 . S
C632 H638 0.930 . S
N633 Li616 1.990 . S
N633 C632 1.314 . S
N633 C635 1.279 . S
C634 C635 1.358 . S
C634 C636 1.356 . S
C634 H688 0.930 . S
C635 N633 1.279 . S
C635 C634 1.358 . S
C635 H639 0.930 . S
C636 C634 1.356 . S
C636 C637 1.348 . S
C637 C632 1.353 . S
C637 C636 1.348 . S
C637 H689 0.929 . S
H638 C632 0.930 . S
H639 C635 0.930 . S
C640 N641 1.314 . S
C640 C642 1.353 . S
C640 H646 0.930 . S
N641 Li617 1.990 . S
N641 C640 1.314 . S
N641 C644 1.279 . S
C642 C640 1.353 . S
C642 C645 1.348 . S
C642 H690 0.929 . S
C643 C644 1.358 . S
C643 C645 1.356 . S
C643 H691 0.930 . S
C644 N641 1.279 . S
C644 C643 1.358 . S
C644 H647 0.930 . S
C645 C642 1.348 . S
C645 C643 1.356 . S
H646 C640 0.930 . S
H647 C644 0.930 . S
C648 C650 1.348 . S
C648 C651 1.356 . S
C648 O678 1.325 . S
N649 C652 1.314 . S
N649 C653 1.279 . S
C650 C648 1.348 . S
C650 C652 1.353 . S
C650 H692 0.929 . S
C651 C648 1.356 . S
C651 C653 1.358 . S
C651 H693 0.930 . S
C652 N649 1.314 . S
C652 C650 1.353 . S
C652 H694 0.930 . S
C653 N649 1.279 . S
C653 C651 1.358 . S
C653 H695 0.930 . S
C654 C655 1.348 . S
C654 C656 1.356 . S
C654 O679 1.325 . S
C655 C654 1.348 . S
C655 C657 1.353 . S
C655 H696 0.929 . S
C656 C654 1.356 . S
C656 C658 1.358 . S
C656 H697 0.930 . S
C657 C655 1.353 . S
C657 N659 1.314 . S
C657 H698 0.930 . S
C658 C656 1.358 . S
C658 N659 1.279 . S
C658 H699 0.930 . S
N659 C657 1.314 . S
N659 C658 1.279 . S
C660 C662 1.353 . S
C660 N663 1.314 . S
C660 H666 0.930 . S
C661 N663 1.279 . S
C661 C664 1.358 . S
C661 H667 0.930 . S
C662 C660 1.353 . S
C662 C665 1.348 . S
C662 H700 0.929 . S
N663 Li618 1.990 . S
N663 C660 1.314 . S
N663 C661 1.279 . S
C664 C661 1.358 . S
C664 C665 1.356 . S
C664 H701 0.930 . S
C665 C662 1.348 . S
C665 C664 1.356 . S
H666 C660 0.930 . S
H667 C661 0.930 . S
C668 N669 1.314 . S
C668 C670 1.353 . S
C668 H674 0.930 . S
N669 Li619 1.990 . S
N669 C668 1.314 . S
N669 C672 1.279 . S
C670 C668 1.353 . S
C670 C673 1.348 . S
C670 H702 0.929 . S
C671 C672 1.358 . S
C671 C673 1.356 . S
C671 H703 0.930 . S
C672 N669 1.279 . S
C672 C671 1.358 . S
C672 H675 0.930 . S
C673 C670 1.348 . S
C673 C671 1.356 . S
H674 C668 0.930 . S
H675 C672 0.930 . S
O676 Li616 1.956 . S
O676 Li617 1.970 . S
O676 Li618 1.961 . S
O676 C620 1.325 . S
O677 Li616 1.970 . S
O677 Li617 1.956 . S
O677 Li619 1.961 . S
O677 C626 1.325 . S
O678 Li616 1.961 . S
O678 Li618 1.956 . S
O678 Li619 1.970 . S
O678 C648 1.325 . S
O679 Li617 1.961 . S
O679 Li618 1.970 . S
O679 Li619 1.956 . S
O679 C654 1.325 . S
H680 C622 0.929 . S
H681 C623 0.930 . S
H682 C624 0.930 . S
H683 C625 0.930 . S
H684 C627 0.930 . S
H685 C629 0.929 . S
H686 C630 0.930 . S
H687 C631 0.930 . S
H688 C634 0.930 . S
H689 C637 0.929 . S
H690 C642 0.929 . S
H691 C643 0.930 . S
H692 C650 0.929 . S
H693 C651 0.930 . S
H694 C652 0.930 . S
H695 C653 0.930 . S
H696 C655 0.929 . S
H697 C656 0.930 . S
H698 C657 0.930 . S
H699 C658 0.930 . S
H700 C662 0.929 . S
H701 C664 0.930 . S
H702 C670 0.929 . S
H703 C671 0.930 . S
Li704 N721 1.990 . S
Li704 O764 1.956 . S
Li704 O765 1.970 . S
Li704 O766 1.961 . S
Li705 N729 1.990 . S
Li705 O764 1.970 . S
Li705 O765 1.956 . S
Li705 O767 1.961 . S
Li706 N751 1.990 . S
Li706 O764 1.961 . S
Li706 O766 1.956 . S
Li706 O767 1.970 . S
Li707 N757 1.990 . S
Li707 O765 1.961 . S
Li707 O766 1.970 . S
Li707 O767 1.956 . S
C708 C710 1.348 . S
C708 C711 1.356 . S
C708 O764 1.325 . S
N709 C712 1.314 . S
N709 C713 1.279 . S
C710 C708 1.348 . S
C710 C712 1.353 . S
C710 H768 0.929 . S
C711 C708 1.356 . S
C711 C713 1.358 . S
C711 H769 0.930 . S
C712 N709 1.314 . S
C712 C710 1.353 . S
C712 H770 0.930 . S
C713 N709 1.279 . S
C713 C711 1.358 . S
C713 H771 0.930 . S
C714 C717 1.348 . S
C714 C718 1.356 . S
C714 O765 1.325 . S
C715 N716 1.279 . S
C715 C718 1.358 . S
C715 H772 0.930 . S
N716 C715 1.279 . S
N716 C719 1.314 . S
C717 C714 1.348 . S
C717 C719 1.353 . S
C717 H773 0.929 . S
C718 C714 1.356 . S
C718 C715 1.358 . S
C718 H774 0.930 . S
C719 N716 1.314 . S
C719 C717 1.353 . S
C719 H775 0.930 . S
C720 N721 1.314 . S
C720 C725 1.353 . S
C720 H726 0.930 . S
N721 Li704 1.990 . S
N721 C720 1.314 . S
N721 C723 1.279 . S
C722 C723 1.358 . S
C722 C724 1.356 . S
C722 H776 0.930 . S
C723 N721 1.279 . S
C723 C722 1.358 . S
C723 H727 0.930 . S
C724 C722 1.356 . S
C724 C725 1.348 . S
C725 C720 1.353 . S
C725 C724 1.348 . S
C725 H777 0.929 . S
H726 C720 0.930 . S
H727 C723 0.930 . S
C728 N729 1.314 . S
C728 C730 1.353 . S
C728 H734 0.930 . S
N729 Li705 1.990 . S
N729 C728 1.314 . S
N729 C732 1.279 . S
C730 C728 1.353 . S
C730 C733 1.348 . S
C730 H778 0.929 . S
C731 C732 1.358 . S
C731 C733 1.356 . S
C731 H779 0.930 . S
C732 N729 1.279 . S
C732 C731 1.358 . S
C732 H735 0.930 . S
C733 C730 1.348 . S
C733 C731 1.356 . S
H734 C728 0.930 . S
H735 C732 0.930 . S
C736 C738 1.348 . S
C736 C739 1.356 . S
C736 O766 1.325 . S
N737 C740 1.314 . S
N737 C741 1.279 . S
C738 C736 1.348 . S
C738 C740 1.353 . S
C738 H780 0.929 . S
C739 C736 1.356 . S
C739 C741 1.358 . S
C739 H781 0.930 . S
C740 N737 1.314 . S
C740 C738 1.353 . S
C740 H782 0.930 . S
C741 N737 1.279 . S
C741 C739 1.358 . S
C741 H783 0.930 . S
C742 C743 1.348 . S
C742 C744 1.356 . S
C742 O767 1.325 . S
C743 C742 1.348 . S
C743 C745 1.353 . S
C743 H784 0.929 . S
C744 C742 1.356 . S
C744 C746 1.358 . S
C744 H785 0.930 . S
C745 C743 1.353 . S
C745 N747 1.314 . S
C745 H786 0.930 . S
C746 C744 1.358 . S
C746 N747 1.279 . S
C746 H787 0.930 . S
N747 C745 1.314 . S
N747 C746 1.279 . S
C748 C750 1.353 . S
C748 N751 1.314 . S
C748 H754 0.930 . S
C749 N751 1.279 . S
C749 C752 1.358 . S
C749 H755 0.930 . S
C750 C748 1.353 . S
C750 C753 1.348 . S
C750 H788 0.929 . S
N751 Li706 1.990 . S
N751 C748 1.314 . S
N751 C749 1.279 . S
C752 C749 1.358 . S
C752 C753 1.356 . S
C752 H789 0.930 . S
C753 C750 1.348 . S
C753 C752 1.356 . S
H754 C748 0.930 . S
H755 C749 0.930 . S
C756 N757 1.314 . S
C756 C758 1.353 . S
C756 H762 0.930 . S
N757 Li707 1.990 . S
N757 C756 1.314 . S
N757 C760 1.279 . S
C758 C756 1.353 . S
C758 C761 1.348 . S
C758 H790 0.929 . S
C759 C760 1.358 . S
C759 C761 1.356 . S
C759 H791 0.930 . S
C760 N757 1.279 . S
C760 C759 1.358 . S
C760 H763 0.930 . S
C761 C758 1.348 . S
C761 C759 1.356 . S
H762 C756 0.930 . S
H763 C760 0.930 . S
O764 Li704 1.956 . S
O764 Li705 1.970 . S
O764 Li706 1.961 . S
O764 C708 1.325 . S
O765 Li704 1.970 . S
O765 Li705 1.956 . S
O765 Li707 1.961 . S
O765 C714 1.325 . S
O766 Li704 1.961 . S
O766 Li706 1.956 . S
O766 Li707 1.970 . S
O766 C736 1.325 . S
O767 Li705 1.961 . S
O767 Li706 1.970 . S
O767 Li707 1.956 . S
O767 C742 1.325 . S
H768 C710 0.929 . S
H769 C711 0.930 . S
H770 C712 0.930 . S
H771 C713 0.930 . S
H772 C715 0.930 . S
H773 C717 0.929 . S
H774 C718 0.930 . S
H775 C719 0.930 . S
H776 C722 0.930 . S
H777 C725 0.929 . S
H778 C730 0.929 . S
H779 C731 0.930 . S
H780 C738 0.929 . S
H781 C739 0.930 . S
H782 C740 0.930 . S
H783 C741 0.930 . S
H784 C743 0.929 . S
H785 C744 0.930 . S
H786 C745 0.930 . S
H787 C746 0.930 . S
H788 C750 0.929 . S
H789 C752 0.930 . S
H790 C758 0.929 . S
H791 C759 0.930 . S
Li792 N809 1.990 . S
Li792 O852 1.956 . S
Li792 O853 1.970 . S
Li792 O854 1.961 . S
Li793 N817 1.990 . S
Li793 O852 1.970 . S
Li793 O853 1.956 . S
Li793 O855 1.961 . S
Li794 N839 1.990 . S
Li794 O852 1.961 . S
Li794 O854 1.956 . S
Li794 O855 1.970 . S
Li795 N845 1.990 . S
Li795 O853 1.961 . S
Li795 O854 1.970 . S
Li795 O855 1.956 . S
C796 C798 1.348 . S
C796 C799 1.356 . S
C796 O852 1.325 . S
N797 C800 1.314 . S
N797 C801 1.279 . S
C798 C796 1.348 . S
C798 C800 1.353 . S
C798 H856 0.929 . S
C799 C796 1.356 . S
C799 C801 1.358 . S
C799 H857 0.930 . S
C800 N797 1.314 . S
C800 C798 1.353 . S
C800 H858 0.930 . S
C801 N797 1.279 . S
C801 C799 1.358 . S
C801 H859 0.930 . S
C802 C805 1.348 . S
C802 C806 1.356 . S
C802 O853 1.325 . S
C803 N804 1.279 . S
C803 C806 1.358 . S
C803 H860 0.930 . S
N804 C803 1.279 . S
N804 C807 1.314 . S
C805 C802 1.348 . S
C805 C807 1.353 . S
C805 H861 0.929 . S
C806 C802 1.356 . S
C806 C803 1.358 . S
C806 H862 0.930 . S
C807 N804 1.314 . S
C807 C805 1.353 . S
C807 H863 0.930 . S
C808 N809 1.314 . S
C808 C813 1.353 . S
C808 H814 0.930 . S
N809 Li792 1.990 . S
N809 C808 1.314 . S
N809 C811 1.279 . S
C810 C811 1.358 . S
C810 C812 1.356 . S
C810 H864 0.930 . S
C811 N809 1.279 . S
C811 C810 1.358 . S
C811 H815 0.930 . S
C812 C810 1.356 . S
C812 C813 1.348 . S
C813 C808 1.353 . S
C813 C812 1.348 . S
C813 H865 0.929 . S
H814 C808 0.930 . S
H815 C811 0.930 . S
C816 N817 1.314 . S
C816 C818 1.353 . S
C816 H822 0.930 . S
N817 Li793 1.990 . S
N817 C816 1.314 . S
N817 C820 1.279 . S
C818 C816 1.353 . S
C818 C821 1.348 . S
C818 H866 0.929 . S
C819 C820 1.358 . S
C819 C821 1.356 . S
C819 H867 0.930 . S
C820 N817 1.279 . S
C820 C819 1.358 . S
C820 H823 0.930 . S
C821 C818 1.348 . S
C821 C819 1.356 . S
H822 C816 0.930 . S
H823 C820 0.930 . S
C824 C826 1.348 . S
C824 C827 1.356 . S
C824 O854 1.325 . S
N825 C828 1.314 . S
N825 C829 1.279 . S
C826 C824 1.348 . S
C826 C828 1.353 . S
C826 H868 0.929 . S
C827 C824 1.356 . S
C827 C829 1.358 . S
C827 H869 0.930 . S
C828 N825 1.314 . S
C828 C826 1.353 . S
C828 H870 0.930 . S
C829 N825 1.279 . S
C829 C827 1.358 . S
C829 H871 0.930 . S
C830 C831 1.348 . S
C830 C832 1.356 . S
C830 O855 1.325 . S
C831 C830 1.348 . S
C831 C833 1.353 . S
C831 H872 0.929 . S
C832 C830 1.356 . S
C832 C834 1.358 . S
C832 H873 0.930 . S
C833 C831 1.353 . S
C833 N835 1.314 . S
C833 H874 0.930 . S
C834 C832 1.358 . S
C834 N835 1.279 . S
C834 H875 0.930 . S
N835 C833 1.314 . S
N835 C834 1.279 . S
C836 C838 1.353 . S
C836 N839 1.314 . S
C836 H842 0.930 . S
C837 N839 1.279 . S
C837 C840 1.358 . S
C837 H843 0.930 . S
C838 C836 1.353 . S
C838 C841 1.348 . S
C838 H876 0.929 . S
N839 Li794 1.990 . S
N839 C836 1.314 . S
N839 C837 1.279 . S
C840 C837 1.358 . S
C840 C841 1.356 . S
C840 H877 0.930 . S
C841 C838 1.348 . S
C841 C840 1.356 . S
H842 C836 0.930 . S
H843 C837 0.930 . S
C844 N845 1.314 . S
C844 C846 1.353 . S
C844 H850 0.930 . S
N845 Li795 1.990 . S
N845 C844 1.314 . S
N845 C848 1.279 . S
C846 C844 1.353 . S
C846 C849 1.348 . S
C846 H878 0.929 . S
C847 C848 1.358 . S
C847 C849 1.356 . S
C847 H879 0.930 . S
C848 N845 1.279 . S
C848 C847 1.358 . S
C848 H851 0.930 . S
C849 C846 1.348 . S
C849 C847 1.356 . S
H850 C844 0.930 . S
H851 C848 0.930 . S
O852 Li792 1.956 . S
O852 Li793 1.970 . S
O852 Li794 1.961 . S
O852 C796 1.325 . S
O853 Li792 1.970 . S
O853 Li793 1.956 . S
O853 Li795 1.961 . S
O853 C802 1.325 . S
O854 Li792 1.961 . S
O854 Li794 1.956 . S
O854 Li795 1.970 . S
O854 C824 1.325 . S
O855 Li793 1.961 . S
O855 Li794 1.970 . S
O855 Li795 1.956 . S
O855 C830 1.325 . S
H856 C798 0.929 . S
H857 C799 0.930 . S
H858 C800 0.930 . S
H859 C801 0.930 . S
H860 C803 0.930 . S
H861 C805 0.929 . S
H862 C806 0.930 . S
H863 C807 0.930 . S
H864 C810 0.930 . S
H865 C813 0.929 . S
H866 C818 0.929 . S
H867 C819 0.930 . S
H868 C826 0.929 . S
H869 C827 0.930 . S
H870 C828 0.930 . S
H871 C829 0.930 . S
H872 C831 0.929 . S
H873 C832 0.930 . S
H874 C833 0.930 . S
H875 C834 0.930 . S
H876 C838 0.929 . S
H877 C840 0.930 . S
H878 C846 0.929 . S
H879 C847 0.930 . S
Li880 N897 1.990 . S
Li880 O940 1.956 . S
Li880 O941 1.970 . S
Li880 O942 1.961 . S
Li881 N905 1.990 . S
Li881 O940 1.970 . S
Li881 O941 1.956 . S
Li881 O943 1.961 . S
Li882 N927 1.990 . S
Li882 O940 1.961 . S
Li882 O942 1.956 . S
Li882 O943 1.970 . S
Li883 N933 1.990 . S
Li883 O941 1.961 . S
Li883 O942 1.970 . S
Li883 O943 1.956 . S
C884 C886 1.348 . S
C884 C887 1.356 . S
C884 O940 1.325 . S
N885 C888 1.314 . S
N885 C889 1.279 . S
C886 C884 1.348 . S
C886 C888 1.353 . S
C886 H944 0.929 . S
C887 C884 1.356 . S
C887 C889 1.358 . S
C887 H945 0.930 . S
C888 N885 1.314 . S
C888 C886 1.353 . S
C888 H946 0.930 . S
C889 N885 1.279 . S
C889 C887 1.358 . S
C889 H947 0.930 . S
C890 C893 1.348 . S
C890 C894 1.356 . S
C890 O941 1.325 . S
C891 N892 1.279 . S
C891 C894 1.358 . S
C891 H948 0.930 . S
N892 C891 1.279 . S
N892 C895 1.314 . S
C893 C890 1.348 . S
C893 C895 1.353 . S
C893 H949 0.929 . S
C894 C890 1.356 . S
C894 C891 1.358 . S
C894 H950 0.930 . S
C895 N892 1.314 . S
C895 C893 1.353 . S
C895 H951 0.930 . S
C896 N897 1.314 . S
C896 C901 1.353 . S
C896 H902 0.930 . S
N897 Li880 1.990 . S
N897 C896 1.314 . S
N897 C899 1.279 . S
C898 C899 1.358 . S
C898 C900 1.356 . S
C898 H952 0.930 . S
C899 N897 1.279 . S
C899 C898 1.358 . S
C899 H903 0.930 . S
C900 C898 1.356 . S
C900 C901 1.348 . S
C901 C896 1.353 . S
C901 C900 1.348 . S
C901 H953 0.929 . S
H902 C896 0.930 . S
H903 C899 0.930 . S
C904 N905 1.314 . S
C904 C906 1.353 . S
C904 H910 0.930 . S
N905 Li881 1.990 . S
N905 C904 1.314 . S
N905 C908 1.279 . S
C906 C904 1.353 . S
C906 C909 1.348 . S
C906 H954 0.929 . S
C907 C908 1.358 . S
C907 C909 1.356 . S
C907 H955 0.930 . S
C908 N905 1.279 . S
C908 C907 1.358 . S
C908 H911 0.930 . S
C909 C906 1.348 . S
C909 C907 1.356 . S
H910 C904 0.930 . S
H911 C908 0.930 . S
C912 C914 1.348 . S
C912 C915 1.356 . S
C912 O942 1.325 . S
N913 C916 1.314 . S
N913 C917 1.279 . S
C914 C912 1.348 . S
C914 C916 1.353 . S
C914 H956 0.929 . S
C915 C912 1.356 . S
C915 C917 1.358 . S
C915 H957 0.930 . S
C916 N913 1.314 . S
C916 C914 1.353 . S
C916 H958 0.930 . S
C917 N913 1.279 . S
C917 C915 1.358 . S
C917 H959 0.930 . S
C918 C919 1.348 . S
C918 C920 1.356 . S
C918 O943 1.325 . S
C919 C918 1.348 . S
C919 C921 1.353 . S
C919 H960 0.929 . S
C920 C918 1.356 . S
C920 C922 1.358 . S
C920 H961 0.930 . S
C921 C919 1.353 . S
C921 N923 1.314 . S
C921 H962 0.930 . S
C922 C920 1.358 . S
C922 N923 1.279 . S
C922 H963 0.930 . S
N923 C921 1.314 . S
N923 C922 1.279 . S
C924 C926 1.353 . S
C924 N927 1.314 . S
C924 H930 0.930 . S
C925 N927 1.279 . S
C925 C928 1.358 . S
C925 H931 0.930 . S
C926 C924 1.353 . S
C926 C929 1.348 . S
C926 H964 0.929 . S
N927 Li882 1.990 . S
N927 C924 1.314 . S
N927 C925 1.279 . S
C928 C925 1.358 . S
C928 C929 1.356 . S
C928 H965 0.930 . S
C929 C926 1.348 . S
C929 C928 1.356 . S
H930 C924 0.930 . S
H931 C925 0.930 . S
C932 N933 1.314 . S
C932 C934 1.353 . S
C932 H938 0.930 . S
N933 Li883 1.990 . S
N933 C932 1.314 . S
N933 C936 1.279 . S
C934 C932 1.353 . S
C934 C937 1.348 . S
C934 H966 0.929 . S
C935 C936 1.358 . S
C935 C937 1.356 . S
C935 H967 0.930 . S
C936 N933 1.279 . S
C936 C935 1.358 . S
C936 H939 0.930 . S
C937 C934 1.348 . S
C937 C935 1.356 . S
H938 C932 0.930 . S
H939 C936 0.930 . S
O940 Li880 1.956 . S
O940 Li881 1.970 . S
O940 Li882 1.961 . S
O940 C884 1.325 . S
O941 Li880 1.970 . S
O941 Li881 1.956 . S
O941 Li883 1.961 . S
O941 C890 1.325 . S
O942 Li880 1.961 . S
O942 Li882 1.956 . S
O942 Li883 1.970 . S
O942 C912 1.325 . S
O943 Li881 1.961 . S
O943 Li882 1.970 . S
O943 Li883 1.956 . S
O943 C918 1.325 . S
H944 C886 0.929 . S
H945 C887 0.930 . S
H946 C888 0.930 . S
H947 C889 0.930 . S
H948 C891 0.930 . S
H949 C893 0.929 . S
H950 C894 0.930 . S
H951 C895 0.930 . S
H952 C898 0.930 . S
H953 C901 0.929 . S
H954 C906 0.929 . S
H955 C907 0.930 . S
H956 C914 0.929 . S
H957 C915 0.930 . S
H958 C916 0.930 . S
H959 C917 0.930 . S
H960 C919 0.929 . S
H961 C920 0.930 . S
H962 C921 0.930 . S
H963 C922 0.930 . S
H964 C926 0.929 . S
H965 C928 0.930 . S
H966 C934 0.929 . S
H967 C935 0.930 . S
Li968 N985 1.990 . S
Li968 O1028 1.956 . S
Li968 O1029 1.970 . S
Li968 O1030 1.961 . S
Li969 N993 1.990 . S
Li969 O1028 1.970 . S
Li969 O1029 1.956 . S
Li969 O1031 1.961 . S
Li970 N1015 1.990 . S
Li970 O1028 1.961 . S
Li970 O1030 1.956 . S
Li970 O1031 1.970 . S
Li971 N1021 1.990 . S
Li971 O1029 1.961 . S
Li971 O1030 1.970 . S
Li971 O1031 1.956 . S
C972 C974 1.348 . S
C972 C975 1.356 . S
C972 O1028 1.325 . S
N973 C976 1.314 . S
N973 C977 1.279 . S
C974 C972 1.348 . S
C974 C976 1.353 . S
C974 H1032 0.929 . S
C975 C972 1.356 . S
C975 C977 1.358 . S
C975 H1033 0.930 . S
C976 N973 1.314 . S
C976 C974 1.353 . S
C976 H1034 0.930 . S
C977 N973 1.279 . S
C977 C975 1.358 . S
C977 H1035 0.930 . S
C978 C981 1.348 . S
C978 C982 1.356 . S
C978 O1029 1.325 . S
C979 N980 1.279 . S
C979 C982 1.358 . S
C979 H1036 0.930 . S
N980 C979 1.279 . S
N980 C983 1.314 . S
C981 C978 1.348 . S
C981 C983 1.353 . S
C981 H1037 0.929 . S
C982 C978 1.356 . S
C982 C979 1.358 . S
C982 H1038 0.930 . S
C983 N980 1.314 . S
C983 C981 1.353 . S
C983 H1039 0.930 . S
C984 N985 1.314 . S
C984 C989 1.353 . S
C984 H990 0.930 . S
N985 Li968 1.990 . S
N985 C984 1.314 . S
N985 C987 1.279 . S
C986 C987 1.358 . S
C986 C988 1.356 . S
C986 H1040 0.930 . S
C987 N985 1.279 . S
C987 C986 1.358 . S
C987 H991 0.930 . S
C988 C986 1.356 . S
C988 C989 1.348 . S
C989 C984 1.353 . S
C989 C988 1.348 . S
C989 H1041 0.929 . S
H990 C984 0.930 . S
H991 C987 0.930 . S
C992 N993 1.314 . S
C992 C994 1.353 . S
C992 H998 0.930 . S
N993 Li969 1.990 . S
N993 C992 1.314 . S
N993 C996 1.279 . S
C994 C992 1.353 . S
C994 C997 1.348 . S
C994 H1042 0.929 . S
C995 C996 1.358 . S
C995 C997 1.356 . S
C995 H1043 0.930 . S
C996 N993 1.279 . S
C996 C995 1.358 . S
C996 H999 0.930 . S
C997 C994 1.348 . S
C997 C995 1.356 . S
H998 C992 0.930 . S
H999 C996 0.930 . S
C1000 C1002 1.348 . S
C1000 C1003 1.356 . S
C1000 O1030 1.325 . S
N1001 C1004 1.314 . S
N1001 C1005 1.279 . S
C1002 C1000 1.348 . S
C1002 C1004 1.353 . S
C1002 H1044 0.929 . S
C1003 C1000 1.356 . S
C1003 C1005 1.358 . S
C1003 H1045 0.930 . S
C1004 N1001 1.314 . S
C1004 C1002 1.353 . S
C1004 H1046 0.930 . S
C1005 N1001 1.279 . S
C1005 C1003 1.358 . S
C1005 H1047 0.930 . S
C1006 C1007 1.348 . S
C1006 C1008 1.356 . S
C1006 O1031 1.325 . S
C1007 C1006 1.348 . S
C1007 C1009 1.353 . S
C1007 H1048 0.929 . S
C1008 C1006 1.356 . S
C1008 C1010 1.358 . S
C1008 H1049 0.930 . S
C1009 C1007 1.353 . S
C1009 N1011 1.314 . S
C1009 H1050 0.930 . S
C1010 C1008 1.358 . S
C1010 N1011 1.279 . S
C1010 H1051 0.930 . S
N1011 C1009 1.314 . S
N1011 C1010 1.279 . S
C1012 C1014 1.353 . S
C1012 N1015 1.314 . S
C1012 H1018 0.930 . S
C1013 N1015 1.279 . S
C1013 C1016 1.358 . S
C1013 H1019 0.930 . S
C1014 C1012 1.353 . S
C1014 C1017 1.348 . S
C1014 H1052 0.929 . S
N1015 Li970 1.990 . S
N1015 C1012 1.314 . S
N1015 C1013 1.279 . S
C1016 C1013 1.358 . S
C1016 C1017 1.356 . S
C1016 H1053 0.930 . S
C1017 C1014 1.348 . S
C1017 C1016 1.356 . S
H1018 C1012 0.930 . S
H1019 C1013 0.930 . S
C1020 N1021 1.314 . S
C1020 C1022 1.353 . S
C1020 H1026 0.930 . S
N1021 Li971 1.990 . S
N1021 C1020 1.314 . S
N1021 C1024 1.279 . S
C1022 C1020 1.353 . S
C1022 C1025 1.348 . S
C1022 H1054 0.929 . S
C1023 C1024 1.358 . S
C1023 C1025 1.356 . S
C1023 H1055 0.930 . S
C1024 N1021 1.279 . S
C1024 C1023 1.358 . S
C1024 H1027 0.930 . S
C1025 C1022 1.348 . S
C1025 C1023 1.356 . S
H1026 C1020 0.930 . S
H1027 C1024 0.930 . S
O1028 Li968 1.956 . S
O1028 Li969 1.970 . S
O1028 Li970 1.961 . S
O1028 C972 1.325 . S
O1029 Li968 1.970 . S
O1029 Li969 1.956 . S
O1029 Li971 1.961 . S
O1029 C978 1.325 . S
O1030 Li968 1.961 . S
O1030 Li970 1.956 . S
O1030 Li971 1.970 . S
O1030 C1000 1.325 . S
O1031 Li969 1.961 . S
O1031 Li970 1.970 . S
O1031 Li971 1.956 . S
O1031 C1006 1.325 . S
H1032 C974 0.929 . S
H1033 C975 0.930 . S
H1034 C976 0.930 . S
H1035 C977 0.930 . S
H1036 C979 0.930 . S
H1037 C981 0.929 . S
H1038 C982 0.930 . S
H1039 C983 0.930 . S
H1040 C986 0.930 . S
H1041 C989 0.929 . S
H1042 C994 0.929 . S
H1043 C995 0.930 . S
H1044 C1002 0.929 . S
H1045 C1003 0.930 . S
H1046 C1004 0.930 . S
H1047 C1005 0.930 . S
H1048 C1007 0.929 . S
H1049 C1008 0.930 . S
H1050 C1009 0.930 . S
H1051 C1010 0.930 . S
H1052 C1014 0.929 . S
H1053 C1016 0.930 . S
H1054 C1022 0.929 . S
H1055 C1023 0.930 . S
Li1056 N1073 1.990 . S
Li1056 O1116 1.956 . S
Li1056 O1117 1.970 . S
Li1056 O1118 1.961 . S
Li1057 N1081 1.990 . S
Li1057 O1116 1.970 . S
Li1057 O1117 1.956 . S
Li1057 O1119 1.961 . S
Li1058 N1103 1.990 . S
Li1058 O1116 1.961 . S
Li1058 O1118 1.956 . S
Li1058 O1119 1.970 . S
Li1059 N1109 1.990 . S
Li1059 O1117 1.961 . S
Li1059 O1118 1.970 . S
Li1059 O1119 1.956 . S
C1060 C1062 1.348 . S
C1060 C1063 1.356 . S
C1060 O1116 1.325 . S
N1061 C1064 1.314 . S
N1061 C1065 1.279 . S
C1062 C1060 1.348 . S
C1062 C1064 1.353 . S
C1062 H1120 0.929 . S
C1063 C1060 1.356 . S
C1063 C1065 1.358 . S
C1063 H1121 0.930 . S
C1064 N1061 1.314 . S
C1064 C1062 1.353 . S
C1064 H1122 0.930 . S
C1065 N1061 1.279 . S
C1065 C1063 1.358 . S
C1065 H1123 0.930 . S
C1066 C1069 1.348 . S
C1066 C1070 1.356 . S
C1066 O1117 1.325 . S
C1067 N1068 1.279 . S
C1067 C1070 1.358 . S
C1067 H1124 0.930 . S
N1068 C1067 1.279 . S
N1068 C1071 1.314 . S
C1069 C1066 1.348 . S
C1069 C1071 1.353 . S
C1069 H1125 0.929 . S
C1070 C1066 1.356 . S
C1070 C1067 1.358 . S
C1070 H1126 0.930 . S
C1071 N1068 1.314 . S
C1071 C1069 1.353 . S
C1071 H1127 0.930 . S
C1072 N1073 1.314 . S
C1072 C1077 1.353 . S
C1072 H1078 0.930 . S
N1073 Li1056 1.990 . S
N1073 C1072 1.314 . S
N1073 C1075 1.279 . S
C1074 C1075 1.358 . S
C1074 C1076 1.356 . S
C1074 H1128 0.930 . S
C1075 N1073 1.279 . S
C1075 C1074 1.358 . S
C1075 H1079 0.930 . S
C1076 C1074 1.356 . S
C1076 C1077 1.348 . S
C1077 C1072 1.353 . S
C1077 C1076 1.348 . S
C1077 H1129 0.929 . S
H1078 C1072 0.930 . S
H1079 C1075 0.930 . S
C1080 N1081 1.314 . S
C1080 C1082 1.353 . S
C1080 H1086 0.930 . S
N1081 Li1057 1.990 . S
N1081 C1080 1.314 . S
N1081 C1084 1.279 . S
C1082 C1080 1.353 . S
C1082 C1085 1.348 . S
C1082 H1130 0.929 . S
C1083 C1084 1.358 . S
C1083 C1085 1.356 . S
C1083 H1131 0.930 . S
C1084 N1081 1.279 . S
C1084 C1083 1.358 . S
C1084 H1087 0.930 . S
C1085 C1082 1.348 . S
C1085 C1083 1.356 . S
H1086 C1080 0.930 . S
H1087 C1084 0.930 . S
C1088 C1090 1.348 . S
C1088 C1091 1.356 . S
C1088 O1118 1.325 . S
N1089 C1092 1.314 . S
N1089 C1093 1.279 . S
C1090 C1088 1.348 . S
C1090 C1092 1.353 . S
C1090 H1132 0.929 . S
C1091 C1088 1.356 . S
C1091 C1093 1.358 . S
C1091 H1133 0.930 . S
C1092 N1089 1.314 . S
C1092 C1090 1.353 . S
C1092 H1134 0.930 . S
C1093 N1089 1.279 . S
C1093 C1091 1.358 . S
C1093 H1135 0.930 . S
C1094 C1095 1.348 . S
C1094 C1096 1.356 . S
C1094 O1119 1.325 . S
C1095 C1094 1.348 . S
C1095 C1097 1.353 . S
C1095 H1136 0.929 . S
C1096 C1094 1.356 . S
C1096 C1098 1.358 . S
C1096 H1137 0.930 . S
C1097 C1095 1.353 . S
C1097 N1099 1.314 . S
C1097 H1138 0.930 . S
C1098 C1096 1.358 . S
C1098 N1099 1.279 . S
C1098 H1139 0.930 . S
N1099 C1097 1.314 . S
N1099 C1098 1.279 . S
C1100 C1102 1.353 . S
C1100 N1103 1.314 . S
C1100 H1106 0.930 . S
C1101 N1103 1.279 . S
C1101 C1104 1.358 . S
C1101 H1107 0.930 . S
C1102 C1100 1.353 . S
C1102 C1105 1.348 . S
C1102 H1140 0.929 . S
N1103 Li1058 1.990 . S
N1103 C1100 1.314 . S
N1103 C1101 1.279 . S
C1104 C1101 1.358 . S
C1104 C1105 1.356 . S
C1104 H1141 0.930 . S
C1105 C1102 1.348 . S
C1105 C1104 1.356 . S
H1106 C1100 0.930 . S
H1107 C1101 0.930 . S
C1108 N1109 1.314 . S
C1108 C1110 1.353 . S
C1108 H1114 0.930 . S
N1109 Li1059 1.990 . S
N1109 C1108 1.314 . S
N1109 C1112 1.279 . S
C1110 C1108 1.353 . S
C1110 C1113 1.348 . S
C1110 H1142 0.929 . S
C1111 C1112 1.358 . S
C1111 C1113 1.356 . S
C1111 H1143 0.930 . S
C1112 N1109 1.279 . S
C1112 C1111 1.358 . S
C1112 H1115 0.930 . S
C1113 C1110 1.348 . S
C1113 C1111 1.356 . S
H1114 C1108 0.930 . S
H1115 C1112 0.930 . S
O1116 Li1056 1.956 . S
O1116 Li1057 1.970 . S
O1116 Li1058 1.961 . S
O1116 C1060 1.325 . S
O1117 Li1056 1.970 . S
O1117 Li1057 1.956 . S
O1117 Li1059 1.961 . S
O1117 C1066 1.325 . S
O1118 Li1056 1.961 . S
O1118 Li1058 1.956 . S
O1118 Li1059 1.970 . S
O1118 C1088 1.325 . S
O1119 Li1057 1.961 . S
O1119 Li1058 1.970 . S
O1119 Li1059 1.956 . S
O1119 C1094 1.325 . S
H1120 C1062 0.929 . S
H1121 C1063 0.930 . S
H1122 C1064 0.930 . S
H1123 C1065 0.930 . S
H1124 C1067 0.930 . S
H1125 C1069 0.929 . S
H1126 C1070 0.930 . S
H1127 C1071 0.930 . S
H1128 C1074 0.930 . S
H1129 C1077 0.929 . S
H1130 C1082 0.929 . S
H1131 C1083 0.930 . S
H1132 C1090 0.929 . S
H1133 C1091 0.930 . S
H1134 C1092 0.930 . S
H1135 C1093 0.930 . S
H1136 C1095 0.929 . S
H1137 C1096 0.930 . S
H1138 C1097 0.930 . S
H1139 C1098 0.930 . S
H1140 C1102 0.929 . S
H1141 C1104 0.930 . S
H1142 C1110 0.929 . S
H1143 C1111 0.930 . S
Li1144 N1161 1.990 . S
Li1144 O1204 1.956 . S
Li1144 O1205 1.970 . S
Li1144 O1206 1.961 . S
Li1145 N1169 1.990 . S
Li1145 O1204 1.970 . S
Li1145 O1205 1.956 . S
Li1145 O1207 1.961 . S
Li1146 N1191 1.990 . S
Li1146 O1204 1.961 . S
Li1146 O1206 1.956 . S
Li1146 O1207 1.970 . S
Li1147 N1197 1.990 . S
Li1147 O1205 1.961 . S
Li1147 O1206 1.970 . S
Li1147 O1207 1.956 . S
C1148 C1150 1.348 . S
C1148 C1151 1.356 . S
C1148 O1204 1.325 . S
N1149 C1152 1.314 . S
N1149 C1153 1.279 . S
C1150 C1148 1.348 . S
C1150 C1152 1.353 . S
C1150 H1208 0.929 . S
C1151 C1148 1.356 . S
C1151 C1153 1.358 . S
C1151 H1209 0.930 . S
C1152 N1149 1.314 . S
C1152 C1150 1.353 . S
C1152 H1210 0.930 . S
C1153 N1149 1.279 . S
C1153 C1151 1.358 . S
C1153 H1211 0.930 . S
C1154 C1157 1.348 . S
C1154 C1158 1.356 . S
C1154 O1205 1.325 . S
C1155 N1156 1.279 . S
C1155 C1158 1.358 . S
C1155 H1212 0.930 . S
N1156 C1155 1.279 . S
N1156 C1159 1.314 . S
C1157 C1154 1.348 . S
C1157 C1159 1.353 . S
C1157 H1213 0.929 . S
C1158 C1154 1.356 . S
C1158 C1155 1.358 . S
C1158 H1214 0.930 . S
C1159 N1156 1.314 . S
C1159 C1157 1.353 . S
C1159 H1215 0.930 . S
C1160 N1161 1.314 . S
C1160 C1165 1.353 . S
C1160 H1166 0.930 . S
N1161 Li1144 1.990 . S
N1161 C1160 1.314 . S
N1161 C1163 1.279 . S
C1162 C1163 1.358 . S
C1162 C1164 1.356 . S
C1162 H1216 0.930 . S
C1163 N1161 1.279 . S
C1163 C1162 1.358 . S
C1163 H1167 0.930 . S
C1164 C1162 1.356 . S
C1164 C1165 1.348 . S
C1165 C1160 1.353 . S
C1165 C1164 1.348 . S
C1165 H1217 0.929 . S
H1166 C1160 0.930 . S
H1167 C1163 0.930 . S
C1168 N1169 1.314 . S
C1168 C1170 1.353 . S
C1168 H1174 0.930 . S
N1169 Li1145 1.990 . S
N1169 C1168 1.314 . S
N1169 C1172 1.279 . S
C1170 C1168 1.353 . S
C1170 C1173 1.348 . S
C1170 H1218 0.929 . S
C1171 C1172 1.358 . S
C1171 C1173 1.356 . S
C1171 H1219 0.930 . S
C1172 N1169 1.279 . S
C1172 C1171 1.358 . S
C1172 H1175 0.930 . S
C1173 C1170 1.348 . S
C1173 C1171 1.356 . S
H1174 C1168 0.930 . S
H1175 C1172 0.930 . S
C1176 C1178 1.348 . S
C1176 C1179 1.356 . S
C1176 O1206 1.325 . S
N1177 C1180 1.314 . S
N1177 C1181 1.279 . S
C1178 C1176 1.348 . S
C1178 C1180 1.353 . S
C1178 H1220 0.929 . S
C1179 C1176 1.356 . S
C1179 C1181 1.358 . S
C1179 H1221 0.930 . S
C1180 N1177 1.314 . S
C1180 C1178 1.353 . S
C1180 H1222 0.930 . S
C1181 N1177 1.279 . S
C1181 C1179 1.358 . S
C1181 H1223 0.930 . S
C1182 C1183 1.348 . S
C1182 C1184 1.356 . S
C1182 O1207 1.325 . S
C1183 C1182 1.348 . S
C1183 C1185 1.353 . S
C1183 H1224 0.929 . S
C1184 C1182 1.356 . S
C1184 C1186 1.358 . S
C1184 H1225 0.930 . S
C1185 C1183 1.353 . S
C1185 N1187 1.314 . S
C1185 H1226 0.930 . S
C1186 C1184 1.358 . S
C1186 N1187 1.279 . S
C1186 H1227 0.930 . S
N1187 C1185 1.314 . S
N1187 C1186 1.279 . S
C1188 C1190 1.353 . S
C1188 N1191 1.314 . S
C1188 H1194 0.930 . S
C1189 N1191 1.279 . S
C1189 C1192 1.358 . S
C1189 H1195 0.930 . S
C1190 C1188 1.353 . S
C1190 C1193 1.348 . S
C1190 H1228 0.929 . S
N1191 Li1146 1.990 . S
N1191 C1188 1.314 . S
N1191 C1189 1.279 . S
C1192 C1189 1.358 . S
C1192 C1193 1.356 . S
C1192 H1229 0.930 . S
C1193 C1190 1.348 . S
C1193 C1192 1.356 . S
H1194 C1188 0.930 . S
H1195 C1189 0.930 . S
C1196 N1197 1.314 . S
C1196 C1198 1.353 . S
C1196 H1202 0.930 . S
N1197 Li1147 1.990 . S
N1197 C1196 1.314 . S
N1197 C1200 1.279 . S
C1198 C1196 1.353 . S
C1198 C1201 1.348 . S
C1198 H1230 0.929 . S
C1199 C1200 1.358 . S
C1199 C1201 1.356 . S
C1199 H1231 0.930 . S
C1200 N1197 1.279 . S
C1200 C1199 1.358 . S
C1200 H1203 0.930 . S
C1201 C1198 1.348 . S
C1201 C1199 1.356 . S
H1202 C1196 0.930 . S
H1203 C1200 0.930 . S
O1204 Li1144 1.956 . S
O1204 Li1145 1.970 . S
O1204 Li1146 1.961 . S
O1204 C1148 1.325 . S
O1205 Li1144 1.970 . S
O1205 Li1145 1.956 . S
O1205 Li1147 1.961 . S
O1205 C1154 1.325 . S
O1206 Li1144 1.961 . S
O1206 Li1146 1.956 . S
O1206 Li1147 1.970 . S
O1206 C1176 1.325 . S
O1207 Li1145 1.961 . S
O1207 Li1146 1.970 . S
O1207 Li1147 1.956 . S
O1207 C1182 1.325 . S
H1208 C1150 0.929 . S
H1209 C1151 0.930 . S
H1210 C1152 0.930 . S
H1211 C1153 0.930 . S
H1212 C1155 0.930 . S
H1213 C1157 0.929 . S
H1214 C1158 0.930 . S
H1215 C1159 0.930 . S
H1216 C1162 0.930 . S
H1217 C1165 0.929 . S
H1218 C1170 0.929 . S
H1219 C1171 0.930 . S
H1220 C1178 0.929 . S
H1221 C1179 0.930 . S
H1222 C1180 0.930 . S
H1223 C1181 0.930 . S
H1224 C1183 0.929 . S
H1225 C1184 0.930 . S
H1226 C1185 0.930 . S
H1227 C1186 0.930 . S
H1228 C1190 0.929 . S
H1229 C1192 0.930 . S
H1230 C1198 0.929 . S
H1231 C1199 0.930 . S
Li1232 N1249 1.990 . S
Li1232 O1292 1.956 . S
Li1232 O1293 1.970 . S
Li1232 O1294 1.961 . S
Li1233 N1257 1.990 . S
Li1233 O1292 1.970 . S
Li1233 O1293 1.956 . S
Li1233 O1295 1.961 . S
Li1234 N1279 1.990 . S
Li1234 O1292 1.961 . S
Li1234 O1294 1.956 . S
Li1234 O1295 1.970 . S
Li1235 N1285 1.990 . S
Li1235 O1293 1.961 . S
Li1235 O1294 1.970 . S
Li1235 O1295 1.956 . S
C1236 C1238 1.348 . S
C1236 C1239 1.356 . S
C1236 O1292 1.325 . S
N1237 C1240 1.314 . S
N1237 C1241 1.279 . S
C1238 C1236 1.348 . S
C1238 C1240 1.353 . S
C1238 H1296 0.929 . S
C1239 C1236 1.356 . S
C1239 C1241 1.358 . S
C1239 H1297 0.930 . S
C1240 N1237 1.314 . S
C1240 C1238 1.353 . S
C1240 H1298 0.930 . S
C1241 N1237 1.279 . S
C1241 C1239 1.358 . S
C1241 H1299 0.930 . S
C1242 C1245 1.348 . S
C1242 C1246 1.356 . S
C1242 O1293 1.325 . S
C1243 N1244 1.279 . S
C1243 C1246 1.358 . S
C1243 H1300 0.930 . S
N1244 C1243 1.279 . S
N1244 C1247 1.314 . S
C1245 C1242 1.348 . S
C1245 C1247 1.353 . S
C1245 H1301 0.929 . S
C1246 C1242 1.356 . S
C1246 C1243 1.358 . S
C1246 H1302 0.930 . S
C1247 N1244 1.314 . S
C1247 C1245 1.353 . S
C1247 H1303 0.930 . S
C1248 N1249 1.314 . S
C1248 C1253 1.353 . S
C1248 H1254 0.930 . S
N1249 Li1232 1.990 . S
N1249 C1248 1.314 . S
N1249 C1251 1.279 . S
C1250 C1251 1.358 . S
C1250 C1252 1.356 . S
C1250 H1304 0.930 . S
C1251 N1249 1.279 . S
C1251 C1250 1.358 . S
C1251 H1255 0.930 . S
C1252 C1250 1.356 . S
C1252 C1253 1.348 . S
C1253 C1248 1.353 . S
C1253 C1252 1.348 . S
C1253 H1305 0.929 . S
H1254 C1248 0.930 . S
H1255 C1251 0.930 . S
C1256 N1257 1.314 . S
C1256 C1258 1.353 . S
C1256 H1262 0.930 . S
N1257 Li1233 1.990 . S
N1257 C1256 1.314 . S
N1257 C1260 1.279 . S
C1258 C1256 1.353 . S
C1258 C1261 1.348 . S
C1258 H1306 0.929 . S
C1259 C1260 1.358 . S
C1259 C1261 1.356 . S
C1259 H1307 0.930 . S
C1260 N1257 1.279 . S
C1260 C1259 1.358 . S
C1260 H1263 0.930 . S
C1261 C1258 1.348 . S
C1261 C1259 1.356 . S
H1262 C1256 0.930 . S
H1263 C1260 0.930 . S
C1264 C1266 1.348 . S
C1264 C1267 1.356 . S
C1264 O1294 1.325 . S
N1265 C1268 1.314 . S
N1265 C1269 1.279 . S
C1266 C1264 1.348 . S
C1266 C1268 1.353 . S
C1266 H1308 0.929 . S
C1267 C1264 1.356 . S
C1267 C1269 1.358 . S
C1267 H1309 0.930 . S
C1268 N1265 1.314 . S
C1268 C1266 1.353 . S
C1268 H1310 0.930 . S
C1269 N1265 1.279 . S
C1269 C1267 1.358 . S
C1269 H1311 0.930 . S
C1270 C1271 1.348 . S
C1270 C1272 1.356 . S
C1270 O1295 1.325 . S
C1271 C1270 1.348 . S
C1271 C1273 1.353 . S
C1271 H1312 0.929 . S
C1272 C1270 1.356 . S
C1272 C1274 1.358 . S
C1272 H1313 0.930 . S
C1273 C1271 1.353 . S
C1273 N1275 1.314 . S
C1273 H1314 0.930 . S
C1274 C1272 1.358 . S
C1274 N1275 1.279 . S
C1274 H1315 0.930 . S
N1275 C1273 1.314 . S
N1275 C1274 1.279 . S
C1276 C1278 1.353 . S
C1276 N1279 1.314 . S
C1276 H1282 0.930 . S
C1277 N1279 1.279 . S
C1277 C1280 1.358 . S
C1277 H1283 0.930 . S
C1278 C1276 1.353 . S
C1278 C1281 1.348 . S
C1278 H1316 0.929 . S
N1279 Li1234 1.990 . S
N1279 C1276 1.314 . S
N1279 C1277 1.279 . S
C1280 C1277 1.358 . S
C1280 C1281 1.356 . S
C1280 H1317 0.930 . S
C1281 C1278 1.348 . S
C1281 C1280 1.356 . S
H1282 C1276 0.930 . S
H1283 C1277 0.930 . S
C1284 N1285 1.314 . S
C1284 C1286 1.353 . S
C1284 H1290 0.930 . S
N1285 Li1235 1.990 . S
N1285 C1284 1.314 . S
N1285 C1288 1.279 . S
C1286 C1284 1.353 . S
C1286 C1289 1.348 . S
C1286 H1318 0.929 . S
C1287 C1288 1.358 . S
C1287 C1289 1.356 . S
C1287 H1319 0.930 . S
C1288 N1285 1.279 . S
C1288 C1287 1.358 . S
C1288 H1291 0.930 . S
C1289 C1286 1.348 . S
C1289 C1287 1.356 . S
H1290 C1284 0.930 . S
H1291 C1288 0.930 . S
O1292 Li1232 1.956 . S
O1292 Li1233 1.970 . S
O1292 Li1234 1.961 . S
O1292 C1236 1.325 . S
O1293 Li1232 1.970 . S
O1293 Li1233 1.956 . S
O1293 Li1235 1.961 . S
O1293 C1242 1.325 . S
O1294 Li1232 1.961 . S
O1294 Li1234 1.956 . S
O1294 Li1235 1.970 . S
O1294 C1264 1.325 . S
O1295 Li1233 1.961 . S
O1295 Li1234 1.970 . S
O1295 Li1235 1.956 . S
O1295 C1270 1.325 . S
H1296 C1238 0.929 . S
H1297 C1239 0.930 . S
H1298 C1240 0.930 . S
H1299 C1241 0.930 . S
H1300 C1243 0.930 . S
H1301 C1245 0.929 . S
H1302 C1246 0.930 . S
H1303 C1247 0.930 . S
H1304 C1250 0.930 . S
H1305 C1253 0.929 . S
H1306 C1258 0.929 . S
H1307 C1259 0.930 . S
H1308 C1266 0.929 . S
H1309 C1267 0.930 . S
H1310 C1268 0.930 . S
H1311 C1269 0.930 . S
H1312 C1271 0.929 . S
H1313 C1272 0.930 . S
H1314 C1273 0.930 . S
H1315 C1274 0.930 . S
H1316 C1278 0.929 . S
H1317 C1280 0.930 . S
H1318 C1286 0.929 . S
H1319 C1287 0.930 . S
Li1320 N1337 1.990 . S
Li1320 O1380 1.956 . S
Li1320 O1381 1.970 . S
Li1320 O1382 1.961 . S
Li1321 N1345 1.990 . S
Li1321 O1380 1.970 . S
Li1321 O1381 1.956 . S
Li1321 O1383 1.961 . S
Li1322 N1367 1.990 . S
Li1322 O1380 1.961 . S
Li1322 O1382 1.956 . S
Li1322 O1383 1.970 . S
Li1323 N1373 1.990 . S
Li1323 O1381 1.961 . S
Li1323 O1382 1.970 . S
Li1323 O1383 1.956 . S
C1324 C1326 1.348 . S
C1324 C1327 1.356 . S
C1324 O1380 1.325 . S
N1325 C1328 1.314 . S
N1325 C1329 1.279 . S
C1326 C1324 1.348 . S
C1326 C1328 1.353 . S
C1326 H1384 0.929 . S
C1327 C1324 1.356 . S
C1327 C1329 1.358 . S
C1327 H1385 0.930 . S
C1328 N1325 1.314 . S
C1328 C1326 1.353 . S
C1328 H1386 0.930 . S
C1329 N1325 1.279 . S
C1329 C1327 1.358 . S
C1329 H1387 0.930 . S
C1330 C1333 1.348 . S
C1330 C1334 1.356 . S
C1330 O1381 1.325 . S
C1331 N1332 1.279 . S
C1331 C1334 1.358 . S
C1331 H1388 0.930 . S
N1332 C1331 1.279 . S
N1332 C1335 1.314 . S
C1333 C1330 1.348 . S
C1333 C1335 1.353 . S
C1333 H1389 0.929 . S
C1334 C1330 1.356 . S
C1334 C1331 1.358 . S
C1334 H1390 0.930 . S
C1335 N1332 1.314 . S
C1335 C1333 1.353 . S
C1335 H1391 0.930 . S
C1336 N1337 1.314 . S
C1336 C1341 1.353 . S
C1336 H1342 0.930 . S
N1337 Li1320 1.990 . S
N1337 C1336 1.314 . S
N1337 C1339 1.279 . S
C1338 C1339 1.358 . S
C1338 C1340 1.356 . S
C1338 H1392 0.930 . S
C1339 N1337 1.279 . S
C1339 C1338 1.358 . S
C1339 H1343 0.930 . S
C1340 C1338 1.356 . S
C1340 C1341 1.348 . S
C1341 C1336 1.353 . S
C1341 C1340 1.348 . S
C1341 H1393 0.929 . S
H1342 C1336 0.930 . S
H1343 C1339 0.930 . S
C1344 N1345 1.314 . S
C1344 C1346 1.353 . S
C1344 H1350 0.930 . S
N1345 Li1321 1.990 . S
N1345 C1344 1.314 . S
N1345 C1348 1.279 . S
C1346 C1344 1.353 . S
C1346 C1349 1.348 . S
C1346 H1394 0.929 . S
C1347 C1348 1.358 . S
C1347 C1349 1.356 . S
C1347 H1395 0.930 . S
C1348 N1345 1.279 . S
C1348 C1347 1.358 . S
C1348 H1351 0.930 . S
C1349 C1346 1.348 . S
C1349 C1347 1.356 . S
H1350 C1344 0.930 . S
H1351 C1348 0.930 . S
C1352 C1354 1.348 . S
C1352 C1355 1.356 . S
C1352 O1382 1.325 . S
N1353 C1356 1.314 . S
N1353 C1357 1.279 . S
C1354 C1352 1.348 . S
C1354 C1356 1.353 . S
C1354 H1396 0.929 . S
C1355 C1352 1.356 . S
C1355 C1357 1.358 . S
C1355 H1397 0.930 . S
C1356 N1353 1.314 . S
C1356 C1354 1.353 . S
C1356 H1398 0.930 . S
C1357 N1353 1.279 . S
C1357 C1355 1.358 . S
C1357 H1399 0.930 . S
C1358 C1359 1.348 . S
C1358 C1360 1.356 . S
C1358 O1383 1.325 . S
C1359 C1358 1.348 . S
C1359 C1361 1.353 . S
C1359 H1400 0.929 . S
C1360 C1358 1.356 . S
C1360 C1362 1.358 . S
C1360 H1401 0.930 . S
C1361 C1359 1.353 . S
C1361 N1363 1.314 . S
C1361 H1402 0.930 . S
C1362 C1360 1.358 . S
C1362 N1363 1.279 . S
C1362 H1403 0.930 . S
N1363 C1361 1.314 . S
N1363 C1362 1.279 . S
C1364 C1366 1.353 . S
C1364 N1367 1.314 . S
C1364 H1370 0.930 . S
C1365 N1367 1.279 . S
C1365 C1368 1.358 . S
C1365 H1371 0.930 . S
C1366 C1364 1.353 . S
C1366 C1369 1.348 . S
C1366 H1404 0.929 . S
N1367 Li1322 1.990 . S
N1367 C1364 1.314 . S
N1367 C1365 1.279 . S
C1368 C1365 1.358 . S
C1368 C1369 1.356 . S
C1368 H1405 0.930 . S
C1369 C1366 1.348 . S
C1369 C1368 1.356 . S
H1370 C1364 0.930 . S
H1371 C1365 0.930 . S
C1372 N1373 1.314 . S
C1372 C1374 1.353 . S
C1372 H1378 0.930 . S
N1373 Li1323 1.990 . S
N1373 C1372 1.314 . S
N1373 C1376 1.279 . S
C1374 C1372 1.353 . S
C1374 C1377 1.348 . S
C1374 H1406 0.929 . S
C1375 C1376 1.358 . S
C1375 C1377 1.356 . S
C1375 H1407 0.930 . S
C1376 N1373 1.279 . S
C1376 C1375 1.358 . S
C1376 H1379 0.930 . S
C1377 C1374 1.348 . S
C1377 C1375 1.356 . S
H1378 C1372 0.930 . S
H1379 C1376 0.930 . S
O1380 Li1320 1.956 . S
O1380 Li1321 1.970 . S
O1380 Li1322 1.961 . S
O1380 C1324 1.325 . S
O1381 Li1320 1.970 . S
O1381 Li1321 1.956 . S
O1381 Li1323 1.961 . S
O1381 C1330 1.325 . S
O1382 Li1320 1.961 . S
O1382 Li1322 1.956 . S
O1382 Li1323 1.970 . S
O1382 C1352 1.325 . S
O1383 Li1321 1.961 . S
O1383 Li1322 1.970 . S
O1383 Li1323 1.956 . S
O1383 C1358 1.325 . S
H1384 C1326 0.929 . S
H1385 C1327 0.930 . S
H1386 C1328 0.930 . S
H1387 C1329 0.930 . S
H1388 C1331 0.930 . S
H1389 C1333 0.929 . S
H1390 C1334 0.930 . S
H1391 C1335 0.930 . S
H1392 C1338 0.930 . S
H1393 C1341 0.929 . S
H1394 C1346 0.929 . S
H1395 C1347 0.930 . S
H1396 C1354 0.929 . S
H1397 C1355 0.930 . S
H1398 C1356 0.930 . S
H1399 C1357 0.930 . S
H1400 C1359 0.929 . S
H1401 C1360 0.930 . S
H1402 C1361 0.930 . S
H1403 C1362 0.930 . S
H1404 C1366 0.929 . S
H1405 C1368 0.930 . S
H1406 C1374 0.929 . S
H1407 C1375 0.930 . S
Li1408 N1425 1.990 . S
Li1408 O1468 1.956 . S
Li1408 O1469 1.970 . S
Li1408 O1470 1.961 . S
Li1409 N1433 1.990 . S
Li1409 O1468 1.970 . S
Li1409 O1469 1.956 . S
Li1409 O1471 1.961 . S
Li1410 N1455 1.990 . S
Li1410 O1468 1.961 . S
Li1410 O1470 1.956 . S
Li1410 O1471 1.970 . S
Li1411 N1461 1.990 . S
Li1411 O1469 1.961 . S
Li1411 O1470 1.970 . S
Li1411 O1471 1.956 . S
C1412 C1414 1.348 . S
C1412 C1415 1.356 . S
C1412 O1468 1.325 . S
N1413 C1416 1.314 . S
N1413 C1417 1.279 . S
C1414 C1412 1.348 . S
C1414 C1416 1.353 . S
C1414 H1472 0.929 . S
C1415 C1412 1.356 . S
C1415 C1417 1.358 . S
C1415 H1473 0.930 . S
C1416 N1413 1.314 . S
C1416 C1414 1.353 . S
C1416 H1474 0.930 . S
C1417 N1413 1.279 . S
C1417 C1415 1.358 . S
C1417 H1475 0.930 . S
C1418 C1421 1.348 . S
C1418 C1422 1.356 . S
C1418 O1469 1.325 . S
C1419 N1420 1.279 . S
C1419 C1422 1.358 . S
C1419 H1476 0.930 . S
N1420 C1419 1.279 . S
N1420 C1423 1.314 . S
C1421 C1418 1.348 . S
C1421 C1423 1.353 . S
C1421 H1477 0.929 . S
C1422 C1418 1.356 . S
C1422 C1419 1.358 . S
C1422 H1478 0.930 . S
C1423 N1420 1.314 . S
C1423 C1421 1.353 . S
C1423 H1479 0.930 . S
C1424 N1425 1.314 . S
C1424 C1429 1.353 . S
C1424 H1430 0.930 . S
N1425 Li1408 1.990 . S
N1425 C1424 1.314 . S
N1425 C1427 1.279 . S
C1426 C1427 1.358 . S
C1426 C1428 1.356 . S
C1426 H1480 0.930 . S
C1427 N1425 1.279 . S
C1427 C1426 1.358 . S
C1427 H1431 0.930 . S
C1428 C1426 1.356 . S
C1428 C1429 1.348 . S
C1429 C1424 1.353 . S
C1429 C1428 1.348 . S
C1429 H1481 0.929 . S
H1430 C1424 0.930 . S
H1431 C1427 0.930 . S
C1432 N1433 1.314 . S
C1432 C1434 1.353 . S
C1432 H1438 0.930 . S
N1433 Li1409 1.990 . S
N1433 C1432 1.314 . S
N1433 C1436 1.279 . S
C1434 C1432 1.353 . S
C1434 C1437 1.348 . S
C1434 H1482 0.929 . S
C1435 C1436 1.358 . S
C1435 C1437 1.356 . S
C1435 H1483 0.930 . S
C1436 N1433 1.279 . S
C1436 C1435 1.358 . S
C1436 H1439 0.930 . S
C1437 C1434 1.348 . S
C1437 C1435 1.356 . S
H1438 C1432 0.930 . S
H1439 C1436 0.930 . S
C1440 C1442 1.348 . S
C1440 C1443 1.356 . S
C1440 O1470 1.325 . S
N1441 C1444 1.314 . S
N1441 C1445 1.279 . S
C1442 C1440 1.348 . S
C1442 C1444 1.353 . S
C1442 H1484 0.929 . S
C1443 C1440 1.356 . S
C1443 C1445 1.358 . S
C1443 H1485 0.930 . S
C1444 N1441 1.314 . S
C1444 C1442 1.353 . S
C1444 H1486 0.930 . S
C1445 N1441 1.279 . S
C1445 C1443 1.358 . S
C1445 H1487 0.930 . S
C1446 C1447 1.348 . S
C1446 C1448 1.356 . S
C1446 O1471 1.325 . S
C1447 C1446 1.348 . S
C1447 C1449 1.353 . S
C1447 H1488 0.929 . S
C1448 C1446 1.356 . S
C1448 C1450 1.358 . S
C1448 H1489 0.930 . S
C1449 C1447 1.353 . S
C1449 N1451 1.314 . S
C1449 H1490 0.930 . S
C1450 C1448 1.358 . S
C1450 N1451 1.279 . S
C1450 H1491 0.930 . S
N1451 C1449 1.314 . S
N1451 C1450 1.279 . S
C1452 C1454 1.353 . S
C1452 N1455 1.314 . S
C1452 H1458 0.930 . S
C1453 N1455 1.279 . S
C1453 C1456 1.358 . S
C1453 H1459 0.930 . S
C1454 C1452 1.353 . S
C1454 C1457 1.348 . S
C1454 H1492 0.929 . S
N1455 Li1410 1.990 . S
N1455 C1452 1.314 . S
N1455 C1453 1.279 . S
C1456 C1453 1.358 . S
C1456 C1457 1.356 . S
C1456 H1493 0.930 . S
C1457 C1454 1.348 . S
C1457 C1456 1.356 . S
H1458 C1452 0.930 . S
H1459 C1453 0.930 . S
C1460 N1461 1.314 . S
C1460 C1462 1.353 . S
C1460 H1466 0.930 . S
N1461 Li1411 1.990 . S
N1461 C1460 1.314 . S
N1461 C1464 1.279 . S
C1462 C1460 1.353 . S
C1462 C1465 1.348 . S
C1462 H1494 0.929 . S
C1463 C1464 1.358 . S
C1463 C1465 1.356 . S
C1463 H1495 0.930 . S
C1464 N1461 1.279 . S
C1464 C1463 1.358 . S
C1464 H1467 0.930 . S
C1465 C1462 1.348 . S
C1465 C1463 1.356 . S
H1466 C1460 0.930 . S
H1467 C1464 0.930 . S
O1468 Li1408 1.956 . S
O1468 Li1409 1.970 . S
O1468 Li1410 1.961 . S
O1468 C1412 1.325 . S
O1469 Li1408 1.970 . S
O1469 Li1409 1.956 . S
O1469 Li1411 1.961 . S
O1469 C1418 1.325 . S
O1470 Li1408 1.961 . S
O1470 Li1410 1.956 . S
O1470 Li1411 1.970 . S
O1470 C1440 1.325 . S
O1471 Li1409 1.961 . S
O1471 Li1410 1.970 . S
O1471 Li1411 1.956 . S
O1471 C1446 1.325 . S
H1472 C1414 0.929 . S
H1473 C1415 0.930 . S
H1474 C1416 0.930 . S
H1475 C1417 0.930 . S
H1476 C1419 0.930 . S
H1477 C1421 0.929 . S
H1478 C1422 0.930 . S
H1479 C1423 0.930 . S
H1480 C1426 0.930 . S
H1481 C1429 0.929 . S
H1482 C1434 0.929 . S
H1483 C1435 0.930 . S
H1484 C1442 0.929 . S
H1485 C1443 0.930 . S
H1486 C1444 0.930 . S
H1487 C1445 0.930 . S
H1488 C1447 0.929 . S
H1489 C1448 0.930 . S
H1490 C1449 0.930 . S
H1491 C1450 0.930 . S
H1492 C1454 0.929 . S
H1493 C1456 0.930 . S
H1494 C1462 0.929 . S
H1495 C1463 0.930 . S
Li1496 N1513 1.990 . S
Li1496 O1556 1.956 . S
Li1496 O1557 1.970 . S
Li1496 O1558 1.961 . S
Li1497 N1521 1.990 . S
Li1497 O1556 1.970 . S
Li1497 O1557 1.956 . S
Li1497 O1559 1.961 . S
Li1498 N1543 1.990 . S
Li1498 O1556 1.961 . S
Li1498 O1558 1.956 . S
Li1498 O1559 1.970 . S
Li1499 N1549 1.990 . S
Li1499 O1557 1.961 . S
Li1499 O1558 1.970 . S
Li1499 O1559 1.956 . S
C1500 C1502 1.348 . S
C1500 C1503 1.356 . S
C1500 O1556 1.325 . S
N1501 C1504 1.314 . S
N1501 C1505 1.279 . S
C1502 C1500 1.348 . S
C1502 C1504 1.353 . S
C1502 H1560 0.929 . S
C1503 C1500 1.356 . S
C1503 C1505 1.358 . S
C1503 H1561 0.930 . S
C1504 N1501 1.314 . S
C1504 C1502 1.353 . S
C1504 H1562 0.930 . S
C1505 N1501 1.279 . S
C1505 C1503 1.358 . S
C1505 H1563 0.930 . S
C1506 C1509 1.348 . S
C1506 C1510 1.356 . S
C1506 O1557 1.325 . S
C1507 N1508 1.279 . S
C1507 C1510 1.358 . S
C1507 H1564 0.930 . S
N1508 C1507 1.279 . S
N1508 C1511 1.314 . S
C1509 C1506 1.348 . S
C1509 C1511 1.353 . S
C1509 H1565 0.929 . S
C1510 C1506 1.356 . S
C1510 C1507 1.358 . S
C1510 H1566 0.930 . S
C1511 N1508 1.314 . S
C1511 C1509 1.353 . S
C1511 H1567 0.930 . S
C1512 N1513 1.314 . S
C1512 C1517 1.353 . S
C1512 H1518 0.930 . S
N1513 Li1496 1.990 . S
N1513 C1512 1.314 . S
N1513 C1515 1.279 . S
C1514 C1515 1.358 . S
C1514 C1516 1.356 . S
C1514 H1568 0.930 . S
C1515 N1513 1.279 . S
C1515 C1514 1.358 . S
C1515 H1519 0.930 . S
C1516 C1514 1.356 . S
C1516 C1517 1.348 . S
C1517 C1512 1.353 . S
C1517 C1516 1.348 . S
C1517 H1569 0.929 . S
H1518 C1512 0.930 . S
H1519 C1515 0.930 . S
C1520 N1521 1.314 . S
C1520 C1522 1.353 . S
C1520 H1526 0.930 . S
N1521 Li1497 1.990 . S
N1521 C1520 1.314 . S
N1521 C1524 1.279 . S
C1522 C1520 1.353 . S
C1522 C1525 1.348 . S
C1522 H1570 0.929 . S
C1523 C1524 1.358 . S
C1523 C1525 1.356 . S
C1523 H1571 0.930 . S
C1524 N1521 1.279 . S
C1524 C1523 1.358 . S
C1524 H1527 0.930 . S
C1525 C1522 1.348 . S
C1525 C1523 1.356 . S
H1526 C1520 0.930 . S
H1527 C1524 0.930 . S
C1528 C1530 1.348 . S
C1528 C1531 1.356 . S
C1528 O1558 1.325 . S
N1529 C1532 1.314 . S
N1529 C1533 1.279 . S
C1530 C1528 1.348 . S
C1530 C1532 1.353 . S
C1530 H1572 0.929 . S
C1531 C1528 1.356 . S
C1531 C1533 1.358 . S
C1531 H1573 0.930 . S
C1532 N1529 1.314 . S
C1532 C1530 1.353 . S
C1532 H1574 0.930 . S
C1533 N1529 1.279 . S
C1533 C1531 1.358 . S
C1533 H1575 0.930 . S
C1534 C1535 1.348 . S
C1534 C1536 1.356 . S
C1534 O1559 1.325 . S
C1535 C1534 1.348 . S
C1535 C1537 1.353 . S
C1535 H1576 0.929 . S
C1536 C1534 1.356 . S
C1536 C1538 1.358 . S
C1536 H1577 0.930 . S
C1537 C1535 1.353 . S
C1537 N1539 1.314 . S
C1537 H1578 0.930 . S
C1538 C1536 1.358 . S
C1538 N1539 1.279 . S
C1538 H1579 0.930 . S
N1539 C1537 1.314 . S
N1539 C1538 1.279 . S
C1540 C1542 1.353 . S
C1540 N1543 1.314 . S
C1540 H1546 0.930 . S
C1541 N1543 1.279 . S
C1541 C1544 1.358 . S
C1541 H1547 0.930 . S
C1542 C1540 1.353 . S
C1542 C1545 1.348 . S
C1542 H1580 0.929 . S
N1543 Li1498 1.990 . S
N1543 C1540 1.314 . S
N1543 C1541 1.279 . S
C1544 C1541 1.358 . S
C1544 C1545 1.356 . S
C1544 H1581 0.930 . S
C1545 C1542 1.348 . S
C1545 C1544 1.356 . S
H1546 C1540 0.930 . S
H1547 C1541 0.930 . S
C1548 N1549 1.314 . S
C1548 C1550 1.353 . S
C1548 H1554 0.930 . S
N1549 Li1499 1.990 . S
N1549 C1548 1.314 . S
N1549 C1552 1.279 . S
C1550 C1548 1.353 . S
C1550 C1553 1.348 . S
C1550 H1582 0.929 . S
C1551 C1552 1.358 . S
C1551 C1553 1.356 . S
C1551 H1583 0.930 . S
C1552 N1549 1.279 . S
C1552 C1551 1.358 . S
C1552 H1555 0.930 . S
C1553 C1550 1.348 . S
C1553 C1551 1.356 . S
H1554 C1548 0.930 . S
H1555 C1552 0.930 . S
O1556 Li1496 1.956 . S
O1556 Li1497 1.970 . S
O1556 Li1498 1.961 . S
O1556 C1500 1.325 . S
O1557 Li1496 1.970 . S
O1557 Li1497 1.956 . S
O1557 Li1499 1.961 . S
O1557 C1506 1.325 . S
O1558 Li1496 1.961 . S
O1558 Li1498 1.956 . S
O1558 Li1499 1.970 . S
O1558 C1528 1.325 . S
O1559 Li1497 1.961 . S
O1559 Li1498 1.970 . S
O1559 Li1499 1.956 . S
O1559 C1534 1.325 . S
H1560 C1502 0.929 . S
H1561 C1503 0.930 . S
H1562 C1504 0.930 . S
H1563 C1505 0.930 . S
H1564 C1507 0.930 . S
H1565 C1509 0.929 . S
H1566 C1510 0.930 . S
H1567 C1511 0.930 . S
H1568 C1514 0.930 . S
H1569 C1517 0.929 . S
H1570 C1522 0.929 . S
H1571 C1523 0.930 . S
H1572 C1530 0.929 . S
H1573 C1531 0.930 . S
H1574 C1532 0.930 . S
H1575 C1533 0.930 . S
H1576 C1535 0.929 . S
H1577 C1536 0.930 . S
H1578 C1537 0.930 . S
H1579 C1538 0.930 . S
H1580 C1542 0.929 . S
H1581 C1544 0.930 . S
H1582 C1550 0.929 . S
H1583 C1551 0.930 . S
Li1584 N1601 1.990 . S
Li1584 O1644 1.956 . S
Li1584 O1645 1.970 . S
Li1584 O1646 1.961 . S
Li1585 N1609 1.990 . S
Li1585 O1644 1.970 . S
Li1585 O1645 1.956 . S
Li1585 O1647 1.961 . S
Li1586 N1631 1.990 . S
Li1586 O1644 1.961 . S
Li1586 O1646 1.956 . S
Li1586 O1647 1.970 . S
Li1587 N1637 1.990 . S
Li1587 O1645 1.961 . S
Li1587 O1646 1.970 . S
Li1587 O1647 1.956 . S
C1588 C1590 1.348 . S
C1588 C1591 1.356 . S
C1588 O1644 1.325 . S
N1589 C1592 1.314 . S
N1589 C1593 1.279 . S
C1590 C1588 1.348 . S
C1590 C1592 1.353 . S
C1590 H1648 0.929 . S
C1591 C1588 1.356 . S
C1591 C1593 1.358 . S
C1591 H1649 0.930 . S
C1592 N1589 1.314 . S
C1592 C1590 1.353 . S
C1592 H1650 0.930 . S
C1593 N1589 1.279 . S
C1593 C1591 1.358 . S
C1593 H1651 0.930 . S
C1594 C1597 1.348 . S
C1594 C1598 1.356 . S
C1594 O1645 1.325 . S
C1595 N1596 1.279 . S
C1595 C1598 1.358 . S
C1595 H1652 0.930 . S
N1596 C1595 1.279 . S
N1596 C1599 1.314 . S
C1597 C1594 1.348 . S
C1597 C1599 1.353 . S
C1597 H1653 0.929 . S
C1598 C1594 1.356 . S
C1598 C1595 1.358 . S
C1598 H1654 0.930 . S
C1599 N1596 1.314 . S
C1599 C1597 1.353 . S
C1599 H1655 0.930 . S
C1600 N1601 1.314 . S
C1600 C1605 1.353 . S
C1600 H1606 0.930 . S
N1601 Li1584 1.990 . S
N1601 C1600 1.314 . S
N1601 C1603 1.279 . S
C1602 C1603 1.358 . S
C1602 C1604 1.356 . S
C1602 H1656 0.930 . S
C1603 N1601 1.279 . S
C1603 C1602 1.358 . S
C1603 H1607 0.930 . S
C1604 C1602 1.356 . S
C1604 C1605 1.348 . S
C1605 C1600 1.353 . S
C1605 C1604 1.348 . S
C1605 H1657 0.929 . S
H1606 C1600 0.930 . S
H1607 C1603 0.930 . S
C1608 N1609 1.314 . S
C1608 C1610 1.353 . S
C1608 H1614 0.930 . S
N1609 Li1585 1.990 . S
N1609 C1608 1.314 . S
N1609 C1612 1.279 . S
C1610 C1608 1.353 . S
C1610 C1613 1.348 . S
C1610 H1658 0.929 . S
C1611 C1612 1.358 . S
C1611 C1613 1.356 . S
C1611 H1659 0.930 . S
C1612 N1609 1.279 . S
C1612 C1611 1.358 . S
C1612 H1615 0.930 . S
C1613 C1610 1.348 . S
C1613 C1611 1.356 . S
H1614 C1608 0.930 . S
H1615 C1612 0.930 . S
C1616 C1618 1.348 . S
C1616 C1619 1.356 . S
C1616 O1646 1.325 . S
N1617 C1620 1.314 . S
N1617 C1621 1.279 . S
C1618 C1616 1.348 . S
C1618 C1620 1.353 . S
C1618 H1660 0.929 . S
C1619 C1616 1.356 . S
C1619 C1621 1.358 . S
C1619 H1661 0.930 . S
C1620 N1617 1.314 . S
C1620 C1618 1.353 . S
C1620 H1662 0.930 . S
C1621 N1617 1.279 . S
C1621 C1619 1.358 . S
C1621 H1663 0.930 . S
C1622 C1623 1.348 . S
C1622 C1624 1.356 . S
C1622 O1647 1.325 . S
C1623 C1622 1.348 . S
C1623 C1625 1.353 . S
C1623 H1664 0.929 . S
C1624 C1622 1.356 . S
C1624 C1626 1.358 . S
C1624 H1665 0.930 . S
C1625 C1623 1.353 . S
C1625 N1627 1.314 . S
C1625 H1666 0.930 . S
C1626 C1624 1.358 . S
C1626 N1627 1.279 . S
C1626 H1667 0.930 . S
N1627 C1625 1.314 . S
N1627 C1626 1.279 . S
C1628 C1630 1.353 . S
C1628 N1631 1.314 . S
C1628 H1634 0.930 . S
C1629 N1631 1.279 . S
C1629 C1632 1.358 . S
C1629 H1635 0.930 . S
C1630 C1628 1.353 . S
C1630 C1633 1.348 . S
C1630 H1668 0.929 . S
N1631 Li1586 1.990 . S
N1631 C1628 1.314 . S
N1631 C1629 1.279 . S
C1632 C1629 1.358 . S
C1632 C1633 1.356 . S
C1632 H1669 0.930 . S
C1633 C1630 1.348 . S
C1633 C1632 1.356 . S
H1634 C1628 0.930 . S
H1635 C1629 0.930 . S
C1636 N1637 1.314 . S
C1636 C1638 1.353 . S
C1636 H1642 0.930 . S
N1637 Li1587 1.990 . S
N1637 C1636 1.314 . S
N1637 C1640 1.279 . S
C1638 C1636 1.353 . S
C1638 C1641 1.348 . S
C1638 H1670 0.929 . S
C1639 C1640 1.358 . S
C1639 C1641 1.356 . S
C1639 H1671 0.930 . S
C1640 N1637 1.279 . S
C1640 C1639 1.358 . S
C1640 H1643 0.930 . S
C1641 C1638 1.348 . S
C1641 C1639 1.356 . S
H1642 C1636 0.930 . S
H1643 C1640 0.930 . S
O1644 Li1584 1.956 . S
O1644 Li1585 1.970 . S
O1644 Li1586 1.961 . S
O1644 C1588 1.325 . S
O1645 Li1584 1.970 . S
O1645 Li1585 1.956 . S
O1645 Li1587 1.961 . S
O1645 C1594 1.325 . S
O1646 Li1584 1.961 . S
O1646 Li1586 1.956 . S
O1646 Li1587 1.970 . S
O1646 C1616 1.325 . S
O1647 Li1585 1.961 . S
O1647 Li1586 1.970 . S
O1647 Li1587 1.956 . S
O1647 C1622 1.325 . S
H1648 C1590 0.929 . S
H1649 C1591 0.930 . S
H1650 C1592 0.930 . S
H1651 C1593 0.930 . S
H1652 C1595 0.930 . S
H1653 C1597 0.929 . S
H1654 C1598 0.930 . S
H1655 C1599 0.930 . S
H1656 C1602 0.930 . S
H1657 C1605 0.929 . S
H1658 C1610 0.929 . S
H1659 C1611 0.930 . S
H1660 C1618 0.929 . S
H1661 C1619 0.930 . S
H1662 C1620 0.930 . S
H1663 C1621 0.930 . S
H1664 C1623 0.929 . S
H1665 C1624 0.930 . S
H1666 C1625 0.930 . S
H1667 C1626 0.930 . S
H1668 C1630 0.929 . S
H1669 C1632 0.930 . S
H1670 C1638 0.929 . S
H1671 C1639 0.930 . S
Li1672 N1689 1.990 . S
Li1672 O1732 1.956 . S
Li1672 O1733 1.970 . S
Li1672 O1734 1.961 . S
Li1673 N1697 1.990 . S
Li1673 O1732 1.970 . S
Li1673 O1733 1.956 . S
Li1673 O1735 1.961 . S
Li1674 N1719 1.990 . S
Li1674 O1732 1.961 . S
Li1674 O1734 1.956 . S
Li1674 O1735 1.970 . S
Li1675 N1725 1.990 . S
Li1675 O1733 1.961 . S
Li1675 O1734 1.970 . S
Li1675 O1735 1.956 . S
C1676 C1678 1.348 . S
C1676 C1679 1.356 . S
C1676 O1732 1.325 . S
N1677 C1680 1.314 . S
N1677 C1681 1.279 . S
C1678 C1676 1.348 . S
C1678 C1680 1.353 . S
C1678 H1736 0.929 . S
C1679 C1676 1.356 . S
C1679 C1681 1.358 . S
C1679 H1737 0.930 . S
C1680 N1677 1.314 . S
C1680 C1678 1.353 . S
C1680 H1738 0.930 . S
C1681 N1677 1.279 . S
C1681 C1679 1.358 . S
C1681 H1739 0.930 . S
C1682 C1685 1.348 . S
C1682 C1686 1.356 . S
C1682 O1733 1.325 . S
C1683 N1684 1.279 . S
C1683 C1686 1.358 . S
C1683 H1740 0.930 . S
N1684 C1683 1.279 . S
N1684 C1687 1.314 . S
C1685 C1682 1.348 . S
C1685 C1687 1.353 . S
C1685 H1741 0.929 . S
C1686 C1682 1.356 . S
C1686 C1683 1.358 . S
C1686 H1742 0.930 . S
C1687 N1684 1.314 . S
C1687 C1685 1.353 . S
C1687 H1743 0.930 . S
C1688 N1689 1.314 . S
C1688 C1693 1.353 . S
C1688 H1694 0.930 . S
N1689 Li1672 1.990 . S
N1689 C1688 1.314 . S
N1689 C1691 1.279 . S
C1690 C1691 1.358 . S
C1690 C1692 1.356 . S
C1690 H1744 0.930 . S
C1691 N1689 1.279 . S
C1691 C1690 1.358 . S
C1691 H1695 0.930 . S
C1692 C1690 1.356 . S
C1692 C1693 1.348 . S
C1693 C1688 1.353 . S
C1693 C1692 1.348 . S
C1693 H1745 0.929 . S
H1694 C1688 0.930 . S
H1695 C1691 0.930 . S
C1696 N1697 1.314 . S
C1696 C1698 1.353 . S
C1696 H1702 0.930 . S
N1697 Li1673 1.990 . S
N1697 C1696 1.314 . S
N1697 C1700 1.279 . S
C1698 C1696 1.353 . S
C1698 C1701 1.348 . S
C1698 H1746 0.929 . S
C1699 C1700 1.358 . S
C1699 C1701 1.356 . S
C1699 H1747 0.930 . S
C1700 N1697 1.279 . S
C1700 C1699 1.358 . S
C1700 H1703 0.930 . S
C1701 C1698 1.348 . S
C1701 C1699 1.356 . S
H1702 C1696 0.930 . S
H1703 C1700 0.930 . S
C1704 C1706 1.348 . S
C1704 C1707 1.356 . S
C1704 O1734 1.325 . S
N1705 C1708 1.314 . S
N1705 C1709 1.279 . S
C1706 C1704 1.348 . S
C1706 C1708 1.353 . S
C1706 H1748 0.929 . S
C1707 C1704 1.356 . S
C1707 C1709 1.358 . S
C1707 H1749 0.930 . S
C1708 N1705 1.314 . S
C1708 C1706 1.353 . S
C1708 H1750 0.930 . S
C1709 N1705 1.279 . S
C1709 C1707 1.358 . S
C1709 H1751 0.930 . S
C1710 C1711 1.348 . S
C1710 C1712 1.356 . S
C1710 O1735 1.325 . S
C1711 C1710 1.348 . S
C1711 C1713 1.353 . S
C1711 H1752 0.929 . S
C1712 C1710 1.356 . S
C1712 C1714 1.358 . S
C1712 H1753 0.930 . S
C1713 C1711 1.353 . S
C1713 N1715 1.314 . S
C1713 H1754 0.930 . S
C1714 C1712 1.358 . S
C1714 N1715 1.279 . S
C1714 H1755 0.930 . S
N1715 C1713 1.314 . S
N1715 C1714 1.279 . S
C1716 C1718 1.353 . S
C1716 N1719 1.314 . S
C1716 H1722 0.930 . S
C1717 N1719 1.279 . S
C1717 C1720 1.358 . S
C1717 H1723 0.930 . S
C1718 C1716 1.353 . S
C1718 C1721 1.348 . S
C1718 H1756 0.929 . S
N1719 Li1674 1.990 . S
N1719 C1716 1.314 . S
N1719 C1717 1.279 . S
C1720 C1717 1.358 . S
C1720 C1721 1.356 . S
C1720 H1757 0.930 . S
C1721 C1718 1.348 . S
C1721 C1720 1.356 . S
H1722 C1716 0.930 . S
H1723 C1717 0.930 . S
C1724 N1725 1.314 . S
C1724 C1726 1.353 . S
C1724 H1730 0.930 . S
N1725 Li1675 1.990 . S
N1725 C1724 1.314 . S
N1725 C1728 1.279 . S
C1726 C1724 1.353 . S
C1726 C1729 1.348 . S
C1726 H1758 0.929 . S
C1727 C1728 1.358 . S
C1727 C1729 1.356 . S
C1727 H1759 0.930 . S
C1728 N1725 1.279 . S
C1728 C1727 1.358 . S
C1728 H1731 0.930 . S
C1729 C1726 1.348 . S
C1729 C1727 1.356 . S
H1730 C1724 0.930 . S
H1731 C1728 0.930 . S
O1732 Li1672 1.956 . S
O1732 Li1673 1.970 . S
O1732 Li1674 1.961 . S
O1732 C1676 1.325 . S
O1733 Li1672 1.970 . S
O1733 Li1673 1.956 . S
O1733 Li1675 1.961 . S
O1733 C1682 1.325 . S
O1734 Li1672 1.961 . S
O1734 Li1674 1.956 . S
O1734 Li1675 1.970 . S
O1734 C1704 1.325 . S
O1735 Li1673 1.961 . S
O1735 Li1674 1.970 . S
O1735 Li1675 1.956 . S
O1735 C1710 1.325 . S
H1736 C1678 0.929 . S
H1737 C1679 0.930 . S
H1738 C1680 0.930 . S
H1739 C1681 0.930 . S
H1740 C1683 0.930 . S
H1741 C1685 0.929 . S
H1742 C1686 0.930 . S
H1743 C1687 0.930 . S
H1744 C1690 0.930 . S
H1745 C1693 0.929 . S
H1746 C1698 0.929 . S
H1747 C1699 0.930 . S
H1748 C1706 0.929 . S
H1749 C1707 0.930 . S
H1750 C1708 0.930 . S
H1751 C1709 0.930 . S
H1752 C1711 0.929 . S
H1753 C1712 0.930 . S
H1754 C1713 0.930 . S
H1755 C1714 0.930 . S
H1756 C1718 0.929 . S
H1757 C1720 0.930 . S
H1758 C1726 0.929 . S
H1759 C1727 0.930 . S
Li1760 N1777 1.990 . S
Li1760 O1820 1.956 . S
Li1760 O1821 1.970 . S
Li1760 O1822 1.961 . S
Li1761 N1785 1.990 . S
Li1761 O1820 1.970 . S
Li1761 O1821 1.956 . S
Li1761 O1823 1.961 . S
Li1762 N1807 1.990 . S
Li1762 O1820 1.961 . S
Li1762 O1822 1.956 . S
Li1762 O1823 1.970 . S
Li1763 N1813 1.990 . S
Li1763 O1821 1.961 . S
Li1763 O1822 1.970 . S
Li1763 O1823 1.956 . S
C1764 C1766 1.348 . S
C1764 C1767 1.356 . S
C1764 O1820 1.325 . S
N1765 C1768 1.314 . S
N1765 C1769 1.279 . S
C1766 C1764 1.348 . S
C1766 C1768 1.353 . S
C1766 H1824 0.929 . S
C1767 C1764 1.356 . S
C1767 C1769 1.358 . S
C1767 H1825 0.930 . S
C1768 N1765 1.314 . S
C1768 C1766 1.353 . S
C1768 H1826 0.930 . S
C1769 N1765 1.279 . S
C1769 C1767 1.358 . S
C1769 H1827 0.930 . S
C1770 C1773 1.348 . S
C1770 C1774 1.356 . S
C1770 O1821 1.325 . S
C1771 N1772 1.279 . S
C1771 C1774 1.358 . S
C1771 H1828 0.930 . S
N1772 C1771 1.279 . S
N1772 C1775 1.314 . S
C1773 C1770 1.348 . S
C1773 C1775 1.353 . S
C1773 H1829 0.929 . S
C1774 C1770 1.356 . S
C1774 C1771 1.358 . S
C1774 H1830 0.930 . S
C1775 N1772 1.314 . S
C1775 C1773 1.353 . S
C1775 H1831 0.930 . S
C1776 N1777 1.314 . S
C1776 C1781 1.353 . S
C1776 H1782 0.930 . S
N1777 Li1760 1.990 . S
N1777 C1776 1.314 . S
N1777 C1779 1.279 . S
C1778 C1779 1.358 . S
C1778 C1780 1.356 . S
C1778 H1832 0.930 . S
C1779 N1777 1.279 . S
C1779 C1778 1.358 . S
C1779 H1783 0.930 . S
C1780 C1778 1.356 . S
C1780 C1781 1.348 . S
C1781 C1776 1.353 . S
C1781 C1780 1.348 . S
C1781 H1833 0.929 . S
H1782 C1776 0.930 . S
H1783 C1779 0.930 . S
C1784 N1785 1.314 . S
C1784 C1786 1.353 . S
C1784 H1790 0.930 . S
N1785 Li1761 1.990 . S
N1785 C1784 1.314 . S
N1785 C1788 1.279 . S
C1786 C1784 1.353 . S
C1786 C1789 1.348 . S
C1786 H1834 0.929 . S
C1787 C1788 1.358 . S
C1787 C1789 1.356 . S
C1787 H1835 0.930 . S
C1788 N1785 1.279 . S
C1788 C1787 1.358 . S
C1788 H1791 0.930 . S
C1789 C1786 1.348 . S
C1789 C1787 1.356 . S
H1790 C1784 0.930 . S
H1791 C1788 0.930 . S
C1792 C1794 1.348 . S
C1792 C1795 1.356 . S
C1792 O1822 1.325 . S
N1793 C1796 1.314 . S
N1793 C1797 1.279 . S
C1794 C1792 1.348 . S
C1794 C1796 1.353 . S
C1794 H1836 0.929 . S
C1795 C1792 1.356 . S
C1795 C1797 1.358 . S
C1795 H1837 0.930 . S
C1796 N1793 1.314 . S
C1796 C1794 1.353 . S
C1796 H1838 0.930 . S
C1797 N1793 1.279 . S
C1797 C1795 1.358 . S
C1797 H1839 0.930 . S
C1798 C1799 1.348 . S
C1798 C1800 1.356 . S
C1798 O1823 1.325 . S
C1799 C1798 1.348 . S
C1799 C1801 1.353 . S
C1799 H1840 0.929 . S
C1800 C1798 1.356 . S
C1800 C1802 1.358 . S
C1800 H1841 0.930 . S
C1801 C1799 1.353 . S
C1801 N1803 1.314 . S
C1801 H1842 0.930 . S
C1802 C1800 1.358 . S
C1802 N1803 1.279 . S
C1802 H1843 0.930 . S
N1803 C1801 1.314 . S
N1803 C1802 1.279 . S
C1804 C1806 1.353 . S
C1804 N1807 1.314 . S
C1804 H1810 0.930 . S
C1805 N1807 1.279 . S
C1805 C1808 1.358 . S
C1805 H1811 0.930 . S
C1806 C1804 1.353 . S
C1806 C1809 1.348 . S
C1806 H1844 0.929 . S
N1807 Li1762 1.990 . S
N1807 C1804 1.314 . S
N1807 C1805 1.279 . S
C1808 C1805 1.358 . S
C1808 C1809 1.356 . S
C1808 H1845 0.930 . S
C1809 C1806 1.348 . S
C1809 C1808 1.356 . S
H1810 C1804 0.930 . S
H1811 C1805 0.930 . S
C1812 N1813 1.314 . S
C1812 C1814 1.353 . S
C1812 H1818 0.930 . S
N1813 Li1763 1.990 . S
N1813 C1812 1.314 . S
N1813 C1816 1.279 . S
C1814 C1812 1.353 . S
C1814 C1817 1.348 . S
C1814 H1846 0.929 . S
C1815 C1816 1.358 . S
C1815 C1817 1.356 . S
C1815 H1847 0.930 . S
C1816 N1813 1.279 . S
C1816 C1815 1.358 . S
C1816 H1819 0.930 . S
C1817 C1814 1.348 . S
C1817 C1815 1.356 . S
H1818 C1812 0.930 . S
H1819 C1816 0.930 . S
O1820 Li1760 1.956 . S
O1820 Li1761 1.970 . S
O1820 Li1762 1.961 . S
O1820 C1764 1.325 . S
O1821 Li1760 1.970 . S
O1821 Li1761 1.956 . S
O1821 Li1763 1.961 . S
O1821 C1770 1.325 . S
O1822 Li1760 1.961 . S
O1822 Li1762 1.956 . S
O1822 Li1763 1.970 . S
O1822 C1792 1.325 . S
O1823 Li1761 1.961 . S
O1823 Li1762 1.970 . S
O1823 Li1763 1.956 . S
O1823 C1798 1.325 . S
H1824 C1766 0.929 . S
H1825 C1767 0.930 . S
H1826 C1768 0.930 . S
H1827 C1769 0.930 . S
H1828 C1771 0.930 . S
H1829 C1773 0.929 . S
H1830 C1774 0.930 . S
H1831 C1775 0.930 . S
H1832 C1778 0.930 . S
H1833 C1781 0.929 . S
H1834 C1786 0.929 . S
H1835 C1787 0.930 . S
H1836 C1794 0.929 . S
H1837 C1795 0.930 . S
H1838 C1796 0.930 . S
H1839 C1797 0.930 . S
H1840 C1799 0.929 . S
H1841 C1800 0.930 . S
H1842 C1801 0.930 . S
H1843 C1802 0.930 . S
H1844 C1806 0.929 . S
H1845 C1808 0.930 . S
H1846 C1814 0.929 . S
H1847 C1815 0.930 . S
Li1848 N1865 1.990 . S
Li1848 O1908 1.956 . S
Li1848 O1909 1.970 . S
Li1848 O1910 1.961 . S
Li1849 N1873 1.990 . S
Li1849 O1908 1.970 . S
Li1849 O1909 1.956 . S
Li1849 O1911 1.961 . S
Li1850 N1895 1.990 . S
Li1850 O1908 1.961 . S
Li1850 O1910 1.956 . S
Li1850 O1911 1.970 . S
Li1851 N1901 1.990 . S
Li1851 O1909 1.961 . S
Li1851 O1910 1.970 . S
Li1851 O1911 1.956 . S
C1852 C1854 1.348 . S
C1852 C1855 1.356 . S
C1852 O1908 1.325 . S
N1853 C1856 1.314 . S
N1853 C1857 1.279 . S
C1854 C1852 1.348 . S
C1854 C1856 1.353 . S
C1854 H1912 0.929 . S
C1855 C1852 1.356 . S
C1855 C1857 1.358 . S
C1855 H1913 0.930 . S
C1856 N1853 1.314 . S
C1856 C1854 1.353 . S
C1856 H1914 0.930 . S
C1857 N1853 1.279 . S
C1857 C1855 1.358 . S
C1857 H1915 0.930 . S
C1858 C1861 1.348 . S
C1858 C1862 1.356 . S
C1858 O1909 1.325 . S
C1859 N1860 1.279 . S
C1859 C1862 1.358 . S
C1859 H1916 0.930 . S
N1860 C1859 1.279 . S
N1860 C1863 1.314 . S
C1861 C1858 1.348 . S
C1861 C1863 1.353 . S
C1861 H1917 0.929 . S
C1862 C1858 1.356 . S
C1862 C1859 1.358 . S
C1862 H1918 0.930 . S
C1863 N1860 1.314 . S
C1863 C1861 1.353 . S
C1863 H1919 0.930 . S
C1864 N1865 1.314 . S
C1864 C1869 1.353 . S
C1864 H1870 0.930 . S
N1865 Li1848 1.990 . S
N1865 C1864 1.314 . S
N1865 C1867 1.279 . S
C1866 C1867 1.358 . S
C1866 C1868 1.356 . S
C1866 H1920 0.930 . S
C1867 N1865 1.279 . S
C1867 C1866 1.358 . S
C1867 H1871 0.930 . S
C1868 C1866 1.356 . S
C1868 C1869 1.348 . S
C1869 C1864 1.353 . S
C1869 C1868 1.348 . S
C1869 H1921 0.929 . S
H1870 C1864 0.930 . S
H1871 C1867 0.930 . S
C1872 N1873 1.314 . S
C1872 C1874 1.353 . S
C1872 H1878 0.930 . S
N1873 Li1849 1.990 . S
N1873 C1872 1.314 . S
N1873 C1876 1.279 . S
C1874 C1872 1.353 . S
C1874 C1877 1.348 . S
C1874 H1922 0.929 . S
C1875 C1876 1.358 . S
C1875 C1877 1.356 . S
C1875 H1923 0.930 . S
C1876 N1873 1.279 . S
C1876 C1875 1.358 . S
C1876 H1879 0.930 . S
C1877 C1874 1.348 . S
C1877 C1875 1.356 . S
H1878 C1872 0.930 . S
H1879 C1876 0.930 . S
C1880 C1882 1.348 . S
C1880 C1883 1.356 . S
C1880 O1910 1.325 . S
N1881 C1884 1.314 . S
N1881 C1885 1.279 . S
C1882 C1880 1.348 . S
C1882 C1884 1.353 . S
C1882 H1924 0.929 . S
C1883 C1880 1.356 . S
C1883 C1885 1.358 . S
C1883 H1925 0.930 . S
C1884 N1881 1.314 . S
C1884 C1882 1.353 . S
C1884 H1926 0.930 . S
C1885 N1881 1.279 . S
C1885 C1883 1.358 . S
C1885 H1927 0.930 . S
C1886 C1887 1.348 . S
C1886 C1888 1.356 . S
C1886 O1911 1.325 . S
C1887 C1886 1.348 . S
C1887 C1889 1.353 . S
C1887 H1928 0.929 . S
C1888 C1886 1.356 . S
C1888 C1890 1.358 . S
C1888 H1929 0.930 . S
C1889 C1887 1.353 . S
C1889 N1891 1.314 . S
C1889 H1930 0.930 . S
C1890 C1888 1.358 . S
C1890 N1891 1.279 . S
C1890 H1931 0.930 . S
N1891 C1889 1.314 . S
N1891 C1890 1.279 . S
C1892 C1894 1.353 . S
C1892 N1895 1.314 . S
C1892 H1898 0.930 . S
C1893 N1895 1.279 . S
C1893 C1896 1.358 . S
C1893 H1899 0.930 . S
C1894 C1892 1.353 . S
C1894 C1897 1.348 . S
C1894 H1932 0.929 . S
N1895 Li1850 1.990 . S
N1895 C1892 1.314 . S
N1895 C1893 1.279 . S
C1896 C1893 1.358 . S
C1896 C1897 1.356 . S
C1896 H1933 0.930 . S
C1897 C1894 1.348 . S
C1897 C1896 1.356 . S
H1898 C1892 0.930 . S
H1899 C1893 0.930 . S
C1900 N1901 1.314 . S
C1900 C1902 1.353 . S
C1900 H1906 0.930 . S
N1901 Li1851 1.990 . S
N1901 C1900 1.314 . S
N1901 C1904 1.279 . S
C1902 C1900 1.353 . S
C1902 C1905 1.348 . S
C1902 H1934 0.929 . S
C1903 C1904 1.358 . S
C1903 C1905 1.356 . S
C1903 H1935 0.930 . S
C1904 N1901 1.279 . S
C1904 C1903 1.358 . S
C1904 H1907 0.930 . S
C1905 C1902 1.348 . S
C1905 C1903 1.356 . S
H1906 C1900 0.930 . S
H1907 C1904 0.930 . S
O1908 Li1848 1.956 . S
O1908 Li1849 1.970 . S
O1908 Li1850 1.961 . S
O1908 C1852 1.325 . S
O1909 Li1848 1.970 . S
O1909 Li1849 1.956 . S
O1909 Li1851 1.961 . S
O1909 C1858 1.325 . S
O1910 Li1848 1.961 . S
O1910 Li1850 1.956 . S
O1910 Li1851 1.970 . S
O1910 C1880 1.325 . S
O1911 Li1849 1.961 . S
O1911 Li1850 1.970 . S
O1911 Li1851 1.956 . S
O1911 C1886 1.325 . S
H1912 C1854 0.929 . S
H1913 C1855 0.930 . S
H1914 C1856 0.930 . S
H1915 C1857 0.930 . S
H1916 C1859 0.930 . S
H1917 C1861 0.929 . S
H1918 C1862 0.930 . S
H1919 C1863 0.930 . S
H1920 C1866 0.930 . S
H1921 C1869 0.929 . S
H1922 C1874 0.929 . S
H1923 C1875 0.930 . S
H1924 C1882 0.929 . S
H1925 C1883 0.930 . S
H1926 C1884 0.930 . S
H1927 C1885 0.930 . S
H1928 C1887 0.929 . S
H1929 C1888 0.930 . S
H1930 C1889 0.930 . S
H1931 C1890 0.930 . S
H1932 C1894 0.929 . S
H1933 C1896 0.930 . S
H1934 C1902 0.929 . S
H1935 C1903 0.930 . S
Li1936 N1953 1.990 . S
Li1936 O1996 1.956 . S
Li1936 O1997 1.970 . S
Li1936 O1998 1.961 . S
Li1937 N1961 1.990 . S
Li1937 O1996 1.970 . S
Li1937 O1997 1.956 . S
Li1937 O1999 1.961 . S
Li1938 N1983 1.990 . S
Li1938 O1996 1.961 . S
Li1938 O1998 1.956 . S
Li1938 O1999 1.970 . S
Li1939 N1989 1.990 . S
Li1939 O1997 1.961 . S
Li1939 O1998 1.970 . S
Li1939 O1999 1.956 . S
C1940 C1942 1.348 . S
C1940 C1943 1.356 . S
C1940 O1996 1.325 . S
N1941 C1944 1.314 . S
N1941 C1945 1.279 . S
C1942 C1940 1.348 . S
C1942 C1944 1.353 . S
C1942 H2000 0.929 . S
C1943 C1940 1.356 . S
C1943 C1945 1.358 . S
C1943 H2001 0.930 . S
C1944 N1941 1.314 . S
C1944 C1942 1.353 . S
C1944 H2002 0.930 . S
C1945 N1941 1.279 . S
C1945 C1943 1.358 . S
C1945 H2003 0.930 . S
C1946 C1949 1.348 . S
C1946 C1950 1.356 . S
C1946 O1997 1.325 . S
C1947 N1948 1.279 . S
C1947 C1950 1.358 . S
C1947 H2004 0.930 . S
N1948 C1947 1.279 . S
N1948 C1951 1.314 . S
C1949 C1946 1.348 . S
C1949 C1951 1.353 . S
C1949 H2005 0.929 . S
C1950 C1946 1.356 . S
C1950 C1947 1.358 . S
C1950 H2006 0.930 . S
C1951 N1948 1.314 . S
C1951 C1949 1.353 . S
C1951 H2007 0.930 . S
C1952 N1953 1.314 . S
C1952 C1957 1.353 . S
C1952 H1958 0.930 . S
N1953 Li1936 1.990 . S
N1953 C1952 1.314 . S
N1953 C1955 1.279 . S
C1954 C1955 1.358 . S
C1954 C1956 1.356 . S
C1954 H2008 0.930 . S
C1955 N1953 1.279 . S
C1955 C1954 1.358 . S
C1955 H1959 0.930 . S
C1956 C1954 1.356 . S
C1956 C1957 1.348 . S
C1957 C1952 1.353 . S
C1957 C1956 1.348 . S
C1957 H2009 0.929 . S
H1958 C1952 0.930 . S
H1959 C1955 0.930 . S
C1960 N1961 1.314 . S
C1960 C1962 1.353 . S
C1960 H1966 0.930 . S
N1961 Li1937 1.990 . S
N1961 C1960 1.314 . S
N1961 C1964 1.279 . S
C1962 C1960 1.353 . S
C1962 C1965 1.348 . S
C1962 H2010 0.929 . S
C1963 C1964 1.358 . S
C1963 C1965 1.356 . S
C1963 H2011 0.930 . S
C1964 N1961 1.279 . S
C1964 C1963 1.358 . S
C1964 H1967 0.930 . S
C1965 C1962 1.348 . S
C1965 C1963 1.356 . S
H1966 C1960 0.930 . S
H1967 C1964 0.930 . S
C1968 C1970 1.348 . S
C1968 C1971 1.356 . S
C1968 O1998 1.325 . S
N1969 C1972 1.314 . S
N1969 C1973 1.279 . S
C1970 C1968 1.348 . S
C1970 C1972 1.353 . S
C1970 H2012 0.929 . S
C1971 C1968 1.356 . S
C1971 C1973 1.358 . S
C1971 H2013 0.930 . S
C1972 N1969 1.314 . S
C1972 C1970 1.353 . S
C1972 H2014 0.930 . S
C1973 N1969 1.279 . S
C1973 C1971 1.358 . S
C1973 H2015 0.930 . S
C1974 C1975 1.348 . S
C1974 C1976 1.356 . S
C1974 O1999 1.325 . S
C1975 C1974 1.348 . S
C1975 C1977 1.353 . S
C1975 H2016 0.929 . S
C1976 C1974 1.356 . S
C1976 C1978 1.358 . S
C1976 H2017 0.930 . S
C1977 C1975 1.353 . S
C1977 N1979 1.314 . S
C1977 H2018 0.930 . S
C1978 C1976 1.358 . S
C1978 N1979 1.279 . S
C1978 H2019 0.930 . S
N1979 C1977 1.314 . S
N1979 C1978 1.279 . S
C1980 C1982 1.353 . S
C1980 N1983 1.314 . S
C1980 H1986 0.930 . S
C1981 N1983 1.279 . S
C1981 C1984 1.358 . S
C1981 H1987 0.930 . S
C1982 C1980 1.353 . S
C1982 C1985 1.348 . S
C1982 H2020 0.929 . S
N1983 Li1938 1.990 . S
N1983 C1980 1.314 . S
N1983 C1981 1.279 . S
C1984 C1981 1.358 . S
C1984 C1985 1.356 . S
C1984 H2021 0.930 . S
C1985 C1982 1.348 . S
C1985 C1984 1.356 . S
H1986 C1980 0.930 . S
H1987 C1981 0.930 . S
C1988 N1989 1.314 . S
C1988 C1990 1.353 . S
C1988 H1994 0.930 . S
N1989 Li1939 1.990 . S
N1989 C1988 1.314 . S
N1989 C1992 1.279 . S
C1990 C1988 1.353 . S
C1990 C1993 1.348 . S
C1990 H2022 0.929 . S
C1991 C1992 1.358 . S
C1991 C1993 1.356 . S
C1991 H2023 0.930 . S
C1992 N1989 1.279 . S
C1992 C1991 1.358 . S
C1992 H1995 0.930 . S
C1993 C1990 1.348 . S
C1993 C1991 1.356 . S
H1994 C1988 0.930 . S
H1995 C1992 0.930 . S
O1996 Li1936 1.956 . S
O1996 Li1937 1.970 . S
O1996 Li1938 1.961 . S
O1996 C1940 1.325 . S
O1997 Li1936 1.970 . S
O1997 Li1937 1.956 . S
O1997 Li1939 1.961 . S
O1997 C1946 1.325 . S
O1998 Li1936 1.961 . S
O1998 Li1938 1.956 . S
O1998 Li1939 1.970 . S
O1998 C1968 1.325 . S
O1999 Li1937 1.961 . S
O1999 Li1938 1.970 . S
O1999 Li1939 1.956 . S
O1999 C1974 1.325 . S
H2000 C1942 0.929 . S
H2001 C1943 0.930 . S
H2002 C1944 0.930 . S
H2003 C1945 0.930 . S
H2004 C1947 0.930 . S
H2005 C1949 0.929 . S
H2006 C1950 0.930 . S
H2007 C1951 0.930 . S
H2008 C1954 0.930 . S
H2009 C1957 0.929 . S
H2010 C1962 0.929 . S
H2011 C1963 0.930 . S
H2012 C1970 0.929 . S
H2013 C1971 0.930 . S
H2014 C1972 0.930 . S
H2015 C1973 0.930 . S
H2016 C1975 0.929 . S
H2017 C1976 0.930 . S
H2018 C1977 0.930 . S
H2019 C1978 0.930 . S
H2020 C1982 0.929 . S
H2021 C1984 0.930 . S
H2022 C1990 0.929 . S
H2023 C1991 0.930 . S
Li2024 N2041 1.990 . S
Li2024 O2084 1.956 . S
Li2024 O2085 1.970 . S
Li2024 O2086 1.961 . S
Li2025 N2049 1.990 . S
Li2025 O2084 1.970 . S
Li2025 O2085 1.956 . S
Li2025 O2087 1.961 . S
Li2026 N2071 1.990 . S
Li2026 O2084 1.961 . S
Li2026 O2086 1.956 . S
Li2026 O2087 1.970 . S
Li2027 N2077 1.990 . S
Li2027 O2085 1.961 . S
Li2027 O2086 1.970 . S
Li2027 O2087 1.956 . S
C2028 C2030 1.348 . S
C2028 C2031 1.356 . S
C2028 O2084 1.325 . S
N2029 C2032 1.314 . S
N2029 C2033 1.279 . S
C2030 C2028 1.348 . S
C2030 C2032 1.353 . S
C2030 H2088 0.929 . S
C2031 C2028 1.356 . S
C2031 C2033 1.358 . S
C2031 H2089 0.930 . S
C2032 N2029 1.314 . S
C2032 C2030 1.353 . S
C2032 H2090 0.930 . S
C2033 N2029 1.279 . S
C2033 C2031 1.358 . S
C2033 H2091 0.930 . S
C2034 C2037 1.348 . S
C2034 C2038 1.356 . S
C2034 O2085 1.325 . S
C2035 N2036 1.279 . S
C2035 C2038 1.358 . S
C2035 H2092 0.930 . S
N2036 C2035 1.279 . S
N2036 C2039 1.314 . S
C2037 C2034 1.348 . S
C2037 C2039 1.353 . S
C2037 H2093 0.929 . S
C2038 C2034 1.356 . S
C2038 C2035 1.358 . S
C2038 H2094 0.930 . S
C2039 N2036 1.314 . S
C2039 C2037 1.353 . S
C2039 H2095 0.930 . S
C2040 N2041 1.314 . S
C2040 C2045 1.353 . S
C2040 H2046 0.930 . S
N2041 Li2024 1.990 . S
N2041 C2040 1.314 . S
N2041 C2043 1.279 . S
C2042 C2043 1.358 . S
C2042 C2044 1.356 . S
C2042 H2096 0.930 . S
C2043 N2041 1.279 . S
C2043 C2042 1.358 . S
C2043 H2047 0.930 . S
C2044 C2042 1.356 . S
C2044 C2045 1.348 . S
C2045 C2040 1.353 . S
C2045 C2044 1.348 . S
C2045 H2097 0.929 . S
H2046 C2040 0.930 . S
H2047 C2043 0.930 . S
C2048 N2049 1.314 . S
C2048 C2050 1.353 . S
C2048 H2054 0.930 . S
N2049 Li2025 1.990 . S
N2049 C2048 1.314 . S
N2049 C2052 1.279 . S
C2050 C2048 1.353 . S
C2050 C2053 1.348 . S
C2050 H2098 0.929 . S
C2051 C2052 1.358 . S
C2051 C2053 1.356 . S
C2051 H2099 0.930 . S
C2052 N2049 1.279 . S
C2052 C2051 1.358 . S
C2052 H2055 0.930 . S
C2053 C2050 1.348 . S
C2053 C2051 1.356 . S
H2054 C2048 0.930 . S
H2055 C2052 0.930 . S
C2056 C2058 1.348 . S
C2056 C2059 1.356 . S
C2056 O2086 1.325 . S
N2057 C2060 1.314 . S
N2057 C2061 1.279 . S
C2058 C2056 1.348 . S
C2058 C2060 1.353 . S
C2058 H2100 0.929 . S
C2059 C2056 1.356 . S
C2059 C2061 1.358 . S
C2059 H2101 0.930 . S
C2060 N2057 1.314 . S
C2060 C2058 1.353 . S
C2060 H2102 0.930 . S
C2061 N2057 1.279 . S
C2061 C2059 1.358 . S
C2061 H2103 0.930 . S
C2062 C2063 1.348 . S
C2062 C2064 1.356 . S
C2062 O2087 1.325 . S
C2063 C2062 1.348 . S
C2063 C2065 1.353 . S
C2063 H2104 0.929 . S
C2064 C2062 1.356 . S
C2064 C2066 1.358 . S
C2064 H2105 0.930 . S
C2065 C2063 1.353 . S
C2065 N2067 1.314 . S
C2065 H2106 0.930 . S
C2066 C2064 1.358 . S
C2066 N2067 1.279 . S
C2066 H2107 0.930 . S
N2067 C2065 1.314 . S
N2067 C2066 1.279 . S
C2068 C2070 1.353 . S
C2068 N2071 1.314 . S
C2068 H2074 0.930 . S
C2069 N2071 1.279 . S
C2069 C2072 1.358 . S
C2069 H2075 0.930 . S
C2070 C2068 1.353 . S
C2070 C2073 1.348 . S
C2070 H2108 0.929 . S
N2071 Li2026 1.990 . S
N2071 C2068 1.314 . S
N2071 C2069 1.279 . S
C2072 C2069 1.358 . S
C2072 C2073 1.356 . S
C2072 H2109 0.930 . S
C2073 C2070 1.348 . S
C2073 C2072 1.356 . S
H2074 C2068 0.930 . S
H2075 C2069 0.930 . S
C2076 N2077 1.314 . S
C2076 C2078 1.353 . S
C2076 H2082 0.930 . S
N2077 Li2027 1.990 . S
N2077 C2076 1.314 . S
N2077 C2080 1.279 . S
C2078 C2076 1.353 . S
C2078 C2081 1.348 . S
C2078 H2110 0.929 . S
C2079 C2080 1.358 . S
C2079 C2081 1.356 . S
C2079 H2111 0.930 . S
C2080 N2077 1.279 . S
C2080 C2079 1.358 . S
C2080 H2083 0.930 . S
C2081 C2078 1.348 . S
C2081 C2079 1.356 . S
H2082 C2076 0.930 . S
H2083 C2080 0.930 . S
O2084 Li2024 1.956 . S
O2084 Li2025 1.970 . S
O2084 Li2026 1.961 . S
O2084 C2028 1.325 . S
O2085 Li2024 1.970 . S
O2085 Li2025 1.956 . S
O2085 Li2027 1.961 . S
O2085 C2034 1.325 . S
O2086 Li2024 1.961 . S
O2086 Li2026 1.956 . S
O2086 Li2027 1.970 . S
O2086 C2056 1.325 . S
O2087 Li2025 1.961 . S
O2087 Li2026 1.970 . S
O2087 Li2027 1.956 . S
O2087 C2062 1.325 . S
H2088 C2030 0.929 . S
H2089 C2031 0.930 . S
H2090 C2032 0.930 . S
H2091 C2033 0.930 . S
H2092 C2035 0.930 . S
H2093 C2037 0.929 . S
H2094 C2038 0.930 . S
H2095 C2039 0.930 . S
H2096 C2042 0.930 . S
H2097 C2045 0.929 . S
H2098 C2050 0.929 . S
H2099 C2051 0.930 . S
H2100 C2058 0.929 . S
H2101 C2059 0.930 . S
H2102 C2060 0.930 . S
H2103 C2061 0.930 . S
H2104 C2063 0.929 . S
H2105 C2064 0.930 . S
H2106 C2065 0.930 . S
H2107 C2066 0.930 . S
H2108 C2070 0.929 . S
H2109 C2072 0.930 . S
H2110 C2078 0.929 . S
H2111 C2079 0.930 . S
H2112 C2118 0.930 . S
H2113 C2122 0.930 . S
H2114 C2127 0.929 . S
H2115 C2125 0.929 . S
H2116 C2120 0.929 . S
H2117 C2126 0.929 . S
C2118 H2112 0.930 . S
C2118 C2119 1.367 . S
C2118 C2126 1.378 . S
C2119 C2118 1.367 . S
C2119 C2127 1.433 . S
C2120 H2116 0.929 . S
C2120 C2122 1.378 . S
C2120 C2124 1.350 . S
C2121 C2124 1.463 1_545 S
C2121 C2126 1.350 . S
C2121 N2129 1.427 . S
C2122 H2113 0.930 . S
C2122 C2120 1.378 . S
C2122 C2123 1.367 . S
C2123 C2122 1.367 . S
C2123 C2125 1.433 . S
C2124 C2120 1.350 . S
C2124 C2121 1.463 1_565 S
C2124 N2128 1.427 . S
C2125 H2115 0.929 . S
C2125 C2123 1.433 . S
C2125 N2128 1.384 . S
C2126 H2117 0.929 . S
C2126 C2118 1.378 . S
C2126 C2121 1.350 . S
C2127 H2114 0.929 . S
C2127 C2119 1.433 . S
C2127 N2129 1.384 . S
N2128 C2124 1.427 . S
N2128 C2125 1.384 . S
N2129 C2121 1.427 . S
N2129 C2127 1.384 . S
H2130 C2136 0.930 . S
H2131 C2140 0.930 . S
H2132 C2145 0.929 . S
H2133 C2143 0.929 . S
H2134 C2138 0.929 . S
H2135 C2144 0.929 . S
C2136 H2130 0.930 . S
C2136 C2137 1.367 . S
C2136 C2144 1.378 . S
C2137 C2136 1.367 . S
C2137 C2145 1.433 . S
C2138 H2134 0.929 . S
C2138 C2140 1.378 . S
C2138 C2142 1.350 . S
C2139 C2142 1.463 . S
C2139 C2144 1.350 . S
C2139 N2147 1.427 . S
C2140 H2131 0.930 . S
C2140 C2138 1.378 . S
C2140 C2141 1.367 . S
C2141 C2140 1.367 . S
C2141 C2143 1.433 . S
C2142 C2138 1.350 . S
C2142 C2139 1.463 . S
C2142 N2146 1.427 . S
C2143 H2133 0.929 . S
C2143 C2141 1.433 . S
C2143 N2146 1.384 . S
C2144 H2135 0.929 . S
C2144 C2136 1.378 . S
C2144 C2139 1.350 . S
C2145 H2132 0.929 . S
C2145 C2137 1.433 . S
C2145 N2147 1.384 . S
N2146 C2142 1.427 . S
N2146 C2143 1.384 . S
N2147 C2139 1.427 . S
N2147 C2145 1.384 . S
H2148 C2154 0.930 . S
H2149 C2158 0.930 . S
H2150 C2163 0.929 . S
H2151 C2161 0.929 . S
H2152 C2156 0.929 . S
H2153 C2162 0.929 . S
C2154 H2148 0.930 . S
C2154 C2155 1.367 . S
C2154 C2162 1.378 . S
C2155 C2154 1.367 . S
C2155 C2163 1.433 . S
C2156 H2152 0.929 . S
C2156 C2158 1.378 . S
C2156 C2160 1.350 . S
C2157 C2160 1.463 1_655 S
C2157 C2162 1.350 . S
C2157 N2165 1.427 . S
C2158 H2149 0.930 . S
C2158 C2156 1.378 . S
C2158 C2159 1.367 . S
C2159 C2158 1.367 . S
C2159 C2161 1.433 . S
C2160 C2156 1.350 . S
C2160 C2157 1.463 1_455 S
C2160 N2164 1.427 . S
C2161 H2151 0.929 . S
C2161 C2159 1.433 . S
C2161 N2164 1.384 . S
C2162 H2153 0.929 . S
C2162 C2154 1.378 . S
C2162 C2157 1.350 . S
C2163 H2150 0.929 . S
C2163 C2155 1.433 . S
C2163 N2165 1.384 . S
N2164 C2160 1.427 . S
N2164 C2161 1.384 . S
N2165 C2157 1.427 . S
N2165 C2163 1.384 . S
H2166 C2172 0.930 . S
H2167 C2176 0.930 . S
H2168 C2181 0.929 . S
H2169 C2179 0.929 . S
H2170 C2174 0.929 . S
H2171 C2180 0.929 . S
C2172 H2166 0.930 . S
C2172 C2173 1.367 . S
C2172 C2180 1.378 . S
C2173 C2172 1.367 . S
C2173 C2181 1.433 . S
C2174 H2170 0.929 . S
C2174 C2176 1.378 . S
C2174 C2178 1.350 . S
C2175 C2178 1.463 1_565 S
C2175 C2180 1.350 . S
C2175 N2183 1.427 . S
C2176 H2167 0.930 . S
C2176 C2174 1.378 . S
C2176 C2177 1.367 . S
C2177 C2176 1.367 . S
C2177 C2179 1.433 . S
C2178 C2174 1.350 . S
C2178 C2175 1.463 1_545 S
C2178 N2182 1.427 . S
C2179 H2169 0.929 . S
C2179 C2177 1.433 . S
C2179 N2182 1.384 . S
C2180 H2171 0.929 . S
C2180 C2172 1.378 . S
C2180 C2175 1.350 . S
C2181 H2168 0.929 . S
C2181 C2173 1.433 . S
C2181 N2183 1.384 . S
N2182 C2178 1.427 . S
N2182 C2179 1.384 . S
N2183 C2175 1.427 . S
N2183 C2181 1.384 . S
H2184 C2190 0.930 . S
H2185 C2194 0.930 . S
H2186 C2199 0.929 . S
H2187 C2197 0.929 . S
H2188 C2192 0.929 . S
H2189 C2198 0.929 . S
C2190 H2184 0.930 . S
C2190 C2191 1.367 . S
C2190 C2198 1.378 . S
C2191 C2190 1.367 . S
C2191 C2199 1.433 . S
C2192 H2188 0.929 . S
C2192 C2194 1.378 . S
C2192 C2196 1.350 . S
C2193 C2196 1.463 . S
C2193 C2198 1.350 . S
C2193 N2201 1.427 . S
C2194 H2185 0.930 . S
C2194 C2192 1.378 . S
C2194 C2195 1.367 . S
C2195 C2194 1.367 . S
C2195 C2197 1.433 . S
C2196 C2192 1.350 . S
C2196 C2193 1.463 . S
C2196 N2200 1.427 . S
C2197 H2187 0.929 . S
C2197 C2195 1.433 . S
C2197 N2200 1.384 . S
C2198 H2189 0.929 . S
C2198 C2190 1.378 . S
C2198 C2193 1.350 . S
C2199 H2186 0.929 . S
C2199 C2191 1.433 . S
C2199 N2201 1.384 . S
N2200 C2196 1.427 . S
N2200 C2197 1.384 . S
N2201 C2193 1.427 . S
N2201 C2199 1.384 . S
H2202 C2208 0.930 . S
H2203 C2212 0.930 . S
H2204 C2217 0.929 . S
H2205 C2215 0.929 . S
H2206 C2210 0.929 . S
H2207 C2216 0.929 . S
C2208 H2202 0.930 . S
C2208 C2209 1.367 . S
C2208 C2216 1.378 . S
C2209 C2208 1.367 . S
C2209 C2217 1.433 . S
C2210 H2206 0.929 . S
C2210 C2212 1.378 . S
C2210 C2214 1.350 . S
C2211 C2214 1.463 1_455 S
C2211 C2216 1.350 . S
C2211 N2219 1.427 . S
C2212 H2203 0.930 . S
C2212 C2210 1.378 . S
C2212 C2213 1.367 . S
C2213 C2212 1.367 . S
C2213 C2215 1.433 . S
C2214 C2210 1.350 . S
C2214 C2211 1.463 1_655 S
C2214 N2218 1.427 . S
C2215 H2205 0.929 . S
C2215 C2213 1.433 . S
C2215 N2218 1.384 . S
C2216 H2207 0.929 . S
C2216 C2208 1.378 . S
C2216 C2211 1.350 . S
C2217 H2204 0.929 . S
C2217 C2209 1.433 . S
C2217 N2219 1.384 . S
N2218 C2214 1.427 . S
N2218 C2215 1.384 . S
N2219 C2211 1.427 . S
N2219 C2217 1.384 . S
H2220 C2226 0.930 . S
H2221 C2230 0.930 . S
H2222 C2235 0.929 . S
H2223 C2233 0.929 . S
H2224 C2228 0.929 . S
H2225 C2234 0.929 . S
C2226 H2220 0.930 . S
C2226 C2227 1.367 . S
C2226 C2234 1.378 . S
C2227 C2226 1.367 . S
C2227 C2235 1.433 . S
C2228 H2224 0.929 . S
C2228 C2230 1.378 . S
C2228 C2232 1.350 . S
C2229 C2232 1.463 1_565 S
C2229 C2234 1.350 . S
C2229 N2237 1.427 . S
C2230 H2221 0.930 . S
C2230 C2228 1.378 . S
C2230 C2231 1.367 . S
C2231 C2230 1.367 . S
C2231 C2233 1.433 . S
C2232 C2228 1.350 . S
C2232 C2229 1.463 1_545 S
C2232 N2236 1.427 . S
C2233 H2223 0.929 . S
C2233 C2231 1.433 . S
C2233 N2236 1.384 . S
C2234 H2225 0.929 . S
C2234 C2226 1.378 . S
C2234 C2229 1.350 . S
C2235 H2222 0.929 . S
C2235 C2227 1.433 . S
C2235 N2237 1.384 . S
N2236 C2232 1.427 . S
N2236 C2233 1.384 . S
N2237 C2229 1.427 . S
N2237 C2235 1.384 . S
H2238 C2244 0.930 . S
H2239 C2248 0.930 . S
H2240 C2253 0.929 . S
H2241 C2251 0.929 . S
H2242 C2246 0.929 . S
H2243 C2252 0.929 . S
C2244 H2238 0.930 . S
C2244 C2245 1.367 . S
C2244 C2252 1.378 . S
C2245 C2244 1.367 . S
C2245 C2253 1.433 . S
C2246 H2242 0.929 . S
C2246 C2248 1.378 . S
C2246 C2250 1.350 . S
C2247 C2250 1.463 . S
C2247 C2252 1.350 . S
C2247 N2255 1.427 . S
C2248 H2239 0.930 . S
C2248 C2246 1.378 . S
C2248 C2249 1.367 . S
C2249 C2248 1.367 . S
C2249 C2251 1.433 . S
C2250 C2246 1.350 . S
C2250 C2247 1.463 . S
C2250 N2254 1.427 . S
C2251 H2241 0.929 . S
C2251 C2249 1.433 . S
C2251 N2254 1.384 . S
C2252 H2243 0.929 . S
C2252 C2244 1.378 . S
C2252 C2247 1.350 . S
C2253 H2240 0.929 . S
C2253 C2245 1.433 . S
C2253 N2255 1.384 . S
N2254 C2250 1.427 . S
N2254 C2251 1.384 . S
N2255 C2247 1.427 . S
N2255 C2253 1.384 . S
H2256 C2262 0.930 . S
H2257 C2266 0.930 . S
H2258 C2271 0.929 . S
H2259 C2269 0.929 . S
H2260 C2264 0.929 . S
H2261 C2270 0.929 . S
C2262 H2256 0.930 . S
C2262 C2263 1.367 . S
C2262 C2270 1.378 . S
C2263 C2262 1.367 . S
C2263 C2271 1.433 . S
C2264 H2260 0.929 . S
C2264 C2266 1.378 . S
C2264 C2268 1.350 . S
C2265 C2268 1.463 1_655 S
C2265 C2270 1.350 . S
C2265 N2273 1.427 . S
C2266 H2257 0.930 . S
C2266 C2264 1.378 . S
C2266 C2267 1.367 . S
C2267 C2266 1.367 . S
C2267 C2269 1.433 . S
C2268 C2264 1.350 . S
C2268 C2265 1.463 1_455 S
C2268 N2272 1.427 . S
C2269 H2259 0.929 . S
C2269 C2267 1.433 . S
C2269 N2272 1.384 . S
C2270 H2261 0.929 . S
C2270 C2262 1.378 . S
C2270 C2265 1.350 . S
C2271 H2258 0.929 . S
C2271 C2263 1.433 . S
C2271 N2273 1.384 . S
N2272 C2268 1.427 . S
N2272 C2269 1.384 . S
N2273 C2265 1.427 . S
N2273 C2271 1.384 . S
H2274 C2280 0.930 . S
H2275 C2284 0.930 . S
H2276 C2289 0.929 . S
H2277 C2287 0.929 . S
H2278 C2282 0.929 . S
H2279 C2288 0.929 . S
C2280 H2274 0.930 . S
C2280 C2281 1.367 . S
C2280 C2288 1.378 . S
C2281 C2280 1.367 . S
C2281 C2289 1.433 . S
C2282 H2278 0.929 . S
C2282 C2284 1.378 . S
C2282 C2286 1.350 . S
C2283 C2286 1.463 1_545 S
C2283 C2288 1.350 . S
C2283 N2291 1.427 . S
C2284 H2275 0.930 . S
C2284 C2282 1.378 . S
C2284 C2285 1.367 . S
C2285 C2284 1.367 . S
C2285 C2287 1.433 . S
C2286 C2282 1.350 . S
C2286 C2283 1.463 1_565 S
C2286 N2290 1.427 . S
C2287 H2277 0.929 . S
C2287 C2285 1.433 . S
C2287 N2290 1.384 . S
C2288 H2279 0.929 . S
C2288 C2280 1.378 . S
C2288 C2283 1.350 . S
C2289 H2276 0.929 . S
C2289 C2281 1.433 . S
C2289 N2291 1.384 . S
N2290 C2286 1.427 . S
N2290 C2287 1.384 . S
N2291 C2283 1.427 . S
N2291 C2289 1.384 . S
H2292 C2298 0.930 . S
H2293 C2302 0.930 . S
H2294 C2307 0.929 . S
H2295 C2305 0.929 . S
H2296 C2300 0.929 . S
H2297 C2306 0.929 . S
C2298 H2292 0.930 . S
C2298 C2299 1.367 . S
C2298 C2306 1.378 . S
C2299 C2298 1.367 . S
C2299 C2307 1.433 . S
C2300 H2296 0.929 . S
C2300 C2302 1.378 . S
C2300 C2304 1.350 . S
C2301 C2304 1.463 . S
C2301 C2306 1.350 . S
C2301 N2309 1.427 . S
C2302 H2293 0.930 . S
C2302 C2300 1.378 . S
C2302 C2303 1.367 . S
C2303 C2302 1.367 . S
C2303 C2305 1.433 . S
C2304 C2300 1.350 . S
C2304 C2301 1.463 . S
C2304 N2308 1.427 . S
C2305 H2295 0.929 . S
C2305 C2303 1.433 . S
C2305 N2308 1.384 . S
C2306 H2297 0.929 . S
C2306 C2298 1.378 . S
C2306 C2301 1.350 . S
C2307 H2294 0.929 . S
C2307 C2299 1.433 . S
C2307 N2309 1.384 . S
N2308 C2304 1.427 . S
N2308 C2305 1.384 . S
N2309 C2301 1.427 . S
N2309 C2307 1.384 . S
H2310 C2316 0.930 . S
H2311 C2320 0.930 . S
H2312 C2325 0.929 . S
H2313 C2323 0.929 . S
H2314 C2318 0.929 . S
H2315 C2324 0.929 . S
C2316 H2310 0.930 . S
C2316 C2317 1.367 . S
C2316 C2324 1.378 . S
C2317 C2316 1.367 . S
C2317 C2325 1.433 . S
C2318 H2314 0.929 . S
C2318 C2320 1.378 . S
C2318 C2322 1.350 . S
C2319 C2322 1.463 1_455 S
C2319 C2324 1.350 . S
C2319 N2327 1.427 . S
C2320 H2311 0.930 . S
C2320 C2318 1.378 . S
C2320 C2321 1.367 . S
C2321 C2320 1.367 . S
C2321 C2323 1.433 . S
C2322 C2318 1.350 . S
C2322 C2319 1.463 1_655 S
C2322 N2326 1.427 . S
C2323 H2313 0.929 . S
C2323 C2321 1.433 . S
C2323 N2326 1.384 . S
C2324 H2315 0.929 . S
C2324 C2316 1.378 . S
C2324 C2319 1.350 . S
C2325 H2312 0.929 . S
C2325 C2317 1.433 . S
C2325 N2327 1.384 . S
N2326 C2322 1.427 . S
N2326 C2323 1.384 . S
N2327 C2319 1.427 . S
N2327 C2325 1.384 . S
H2328 C2334 0.930 . S
H2329 C2338 0.930 . S
H2330 C2343 0.929 . S
H2331 C2341 0.929 . S
H2332 C2336 0.929 . S
H2333 C2342 0.929 . S
C2334 H2328 0.930 . S
C2334 C2335 1.367 . S
C2334 C2342 1.378 . S
C2335 C2334 1.367 . S
C2335 C2343 1.433 . S
C2336 H2332 0.929 . S
C2336 C2338 1.378 . S
C2336 C2340 1.350 . S
C2337 C2340 1.463 . S
C2337 C2342 1.350 . S
C2337 N2345 1.427 . S
C2338 H2329 0.930 . S
C2338 C2336 1.378 . S
C2338 C2339 1.367 . S
C2339 C2338 1.367 . S
C2339 C2341 1.433 . S
C2340 C2336 1.350 . S
C2340 C2337 1.463 . S
C2340 N2344 1.427 . S
C2341 H2331 0.929 . S
C2341 C2339 1.433 . S
C2341 N2344 1.384 . S
C2342 H2333 0.929 . S
C2342 C2334 1.378 . S
C2342 C2337 1.350 . S
C2343 H2330 0.929 . S
C2343 C2335 1.433 . S
C2343 N2345 1.384 . S
N2344 C2340 1.427 . S
N2344 C2341 1.384 . S
N2345 C2337 1.427 . S
N2345 C2343 1.384 . S
H2346 C2352 0.930 . S
H2347 C2356 0.930 . S
H2348 C2361 0.929 . S
H2349 C2359 0.929 . S
H2350 C2354 0.929 . S
H2351 C2360 0.929 . S
C2352 H2346 0.930 . S
C2352 C2353 1.367 . S
C2352 C2360 1.378 . S
C2353 C2352 1.367 . S
C2353 C2361 1.433 . S
C2354 H2350 0.929 . S
C2354 C2356 1.378 . S
C2354 C2358 1.350 . S
C2355 C2358 1.463 . S
C2355 C2360 1.350 . S
C2355 N2363 1.427 . S
C2356 H2347 0.930 . S
C2356 C2354 1.378 . S
C2356 C2357 1.367 . S
C2357 C2356 1.367 . S
C2357 C2359 1.433 . S
C2358 C2354 1.350 . S
C2358 C2355 1.463 . S
C2358 N2362 1.427 . S
C2359 H2349 0.929 . S
C2359 C2357 1.433 . S
C2359 N2362 1.384 . S
C2360 H2351 0.929 . S
C2360 C2352 1.378 . S
C2360 C2355 1.350 . S
C2361 H2348 0.929 . S
C2361 C2353 1.433 . S
C2361 N2363 1.384 . S
N2362 C2358 1.427 . S
N2362 C2359 1.384 . S
N2363 C2355 1.427 . S
N2363 C2361 1.384 . S
H2364 C2370 0.930 . S
H2365 C2374 0.930 . S
H2366 C2379 0.929 . S
H2367 C2377 0.929 . S
H2368 C2372 0.929 . S
H2369 C2378 0.929 . S
C2370 H2364 0.930 . S
C2370 C2371 1.367 . S
C2370 C2378 1.378 . S
C2371 C2370 1.367 . S
C2371 C2379 1.433 . S
C2372 H2368 0.929 . S
C2372 C2374 1.378 . S
C2372 C2376 1.350 . S
C2373 C2376 1.463 . S
C2373 C2378 1.350 . S
C2373 N2381 1.427 . S
C2374 H2365 0.930 . S
C2374 C2372 1.378 . S
C2374 C2375 1.367 . S
C2375 C2374 1.367 . S
C2375 C2377 1.433 . S
C2376 C2372 1.350 . S
C2376 C2373 1.463 . S
C2376 N2380 1.427 . S
C2377 H2367 0.929 . S
C2377 C2375 1.433 . S
C2377 N2380 1.384 . S
C2378 H2369 0.929 . S
C2378 C2370 1.378 . S
C2378 C2373 1.350 . S
C2379 H2366 0.929 . S
C2379 C2371 1.433 . S
C2379 N2381 1.384 . S
N2380 C2376 1.427 . S
N2380 C2377 1.384 . S
N2381 C2373 1.427 . S
N2381 C2379 1.384 . S
H2382 C2388 0.930 . S
H2383 C2392 0.930 . S
H2384 C2397 0.929 . S
H2385 C2395 0.929 . S
H2386 C2390 0.929 . S
H2387 C2396 0.929 . S
C2388 H2382 0.930 . S
C2388 C2389 1.367 . S
C2388 C2396 1.378 . S
C2389 C2388 1.367 . S
C2389 C2397 1.433 . S
C2390 H2386 0.929 . S
C2390 C2392 1.378 . S
C2390 C2394 1.350 . S
C2391 C2394 1.463 . S
C2391 C2396 1.350 . S
C2391 N2399 1.427 . S
C2392 H2383 0.930 . S
C2392 C2390 1.378 . S
C2392 C2393 1.367 . S
C2393 C2392 1.367 . S
C2393 C2395 1.433 . S
C2394 C2390 1.350 . S
C2394 C2391 1.463 . S
C2394 N2398 1.427 . S
C2395 H2385 0.929 . S
C2395 C2393 1.433 . S
C2395 N2398 1.384 . S
C2396 H2387 0.929 . S
C2396 C2388 1.378 . S
C2396 C2391 1.350 . S
C2397 H2384 0.929 . S
C2397 C2389 1.433 . S
C2397 N2399 1.384 . S
N2398 C2394 1.427 . S
N2398 C2395 1.384 . S
N2399 C2391 1.427 . S
N2399 C2397 1.384 . S
H2400 C2406 0.930 . S
H2401 C2410 0.930 . S
H2402 C2415 0.929 . S
H2403 C2413 0.929 . S
H2404 C2408 0.929 . S
H2405 C2414 0.929 . S
C2406 H2400 0.930 . S
C2406 C2407 1.367 . S
C2406 C2414 1.378 . S
C2407 C2406 1.367 . S
C2407 C2415 1.433 . S
C2408 H2404 0.929 . S
C2408 C2410 1.378 . S
C2408 C2412 1.350 . S
C2409 C2412 1.463 . S
C2409 C2414 1.350 . S
C2409 N2417 1.427 . S
C2410 H2401 0.930 . S
C2410 C2408 1.378 . S
C2410 C2411 1.367 . S
C2411 C2410 1.367 . S
C2411 C2413 1.433 . S
C2412 C2408 1.350 . S
C2412 C2409 1.463 . S
C2412 N2416 1.427 . S
C2413 H2403 0.929 . S
C2413 C2411 1.433 . S
C2413 N2416 1.384 . S
C2414 H2405 0.929 . S
C2414 C2406 1.378 . S
C2414 C2409 1.350 . S
C2415 H2402 0.929 . S
C2415 C2407 1.433 . S
C2415 N2417 1.384 . S
N2416 C2412 1.427 . S
N2416 C2413 1.384 . S
N2417 C2409 1.427 . S
N2417 C2415 1.384 . S
H2418 C2424 0.930 . S
H2419 C2428 0.930 . S
H2420 C2433 0.929 . S
H2421 C2431 0.929 . S
H2422 C2426 0.929 . S
H2423 C2432 0.929 . S
C2424 H2418 0.930 . S
C2424 C2425 1.367 . S
C2424 C2432 1.378 . S
C2425 C2424 1.367 . S
C2425 C2433 1.433 . S
C2426 H2422 0.929 . S
C2426 C2428 1.378 . S
C2426 C2430 1.350 . S
C2427 C2430 1.463 . S
C2427 C2432 1.350 . S
C2427 N2435 1.427 . S
C2428 H2419 0.930 . S
C2428 C2426 1.378 . S
C2428 C2429 1.367 . S
C2429 C2428 1.367 . S
C2429 C2431 1.433 . S
C2430 C2426 1.350 . S
C2430 C2427 1.463 . S
C2430 N2434 1.427 . S
C2431 H2421 0.929 . S
C2431 C2429 1.433 . S
C2431 N2434 1.384 . S
C2432 H2423 0.929 . S
C2432 C2424 1.378 . S
C2432 C2427 1.350 . S
C2433 H2420 0.929 . S
C2433 C2425 1.433 . S
C2433 N2435 1.384 . S
N2434 C2430 1.427 . S
N2434 C2431 1.384 . S
N2435 C2427 1.427 . S
N2435 C2433 1.384 . S
H2436 C2442 0.930 . S
H2437 C2446 0.930 . S
H2438 C2451 0.929 . S
H2439 C2449 0.929 . S
H2440 C2444 0.929 . S
H2441 C2450 0.929 . S
C2442 H2436 0.930 . S
C2442 C2443 1.367 . S
C2442 C2450 1.378 . S
C2443 C2442 1.367 . S
C2443 C2451 1.433 . S
C2444 H2440 0.929 . S
C2444 C2446 1.378 . S
C2444 C2448 1.350 . S
C2445 C2448 1.463 . S
C2445 C2450 1.350 . S
C2445 N2453 1.427 . S
C2446 H2437 0.930 . S
C2446 C2444 1.378 . S
C2446 C2447 1.367 . S
C2447 C2446 1.367 . S
C2447 C2449 1.433 . S
C2448 C2444 1.350 . S
C2448 C2445 1.463 . S
C2448 N2452 1.427 . S
C2449 H2439 0.929 . S
C2449 C2447 1.433 . S
C2449 N2452 1.384 . S
C2450 H2441 0.929 . S
C2450 C2442 1.378 . S
C2450 C2445 1.350 . S
C2451 H2438 0.929 . S
C2451 C2443 1.433 . S
C2451 N2453 1.384 . S
N2452 C2448 1.427 . S
N2452 C2449 1.384 . S
N2453 C2445 1.427 . S
N2453 C2451 1.384 . S
H2454 C2460 0.930 . S
H2455 C2464 0.930 . S
H2456 C2469 0.929 . S
H2457 C2467 0.929 . S
H2458 C2462 0.929 . S
H2459 C2468 0.929 . S
C2460 H2454 0.930 . S
C2460 C2461 1.367 . S
C2460 C2468 1.378 . S
C2461 C2460 1.367 . S
C2461 C2469 1.433 . S
C2462 H2458 0.929 . S
C2462 C2464 1.378 . S
C2462 C2466 1.350 . S
C2463 C2466 1.463 . S
C2463 C2468 1.350 . S
C2463 N2471 1.427 . S
C2464 H2455 0.930 . S
C2464 C2462 1.378 . S
C2464 C2465 1.367 . S
C2465 C2464 1.367 . S
C2465 C2467 1.433 . S
C2466 C2462 1.350 . S
C2466 C2463 1.463 . S
C2466 N2470 1.427 . S
C2467 H2457 0.929 . S
C2467 C2465 1.433 . S
C2467 N2470 1.384 . S
C2468 H2459 0.929 . S
C2468 C2460 1.378 . S
C2468 C2463 1.350 . S
C2469 H2456 0.929 . S
C2469 C2461 1.433 . S
C2469 N2471 1.384 . S
N2470 C2466 1.427 . S
N2470 C2467 1.384 . S
N2471 C2463 1.427 . S
N2471 C2469 1.384 . S
H2472 C2478 0.930 . S
H2473 C2482 0.930 . S
H2474 C2487 0.929 . S
H2475 C2485 0.929 . S
H2476 C2480 0.929 . S
H2477 C2486 0.929 . S
C2478 H2472 0.930 . S
C2478 C2479 1.367 . S
C2478 C2486 1.378 . S
C2479 C2478 1.367 . S
C2479 C2487 1.433 . S
C2480 H2476 0.929 . S
C2480 C2482 1.378 . S
C2480 C2484 1.350 . S
C2481 C2484 1.463 . S
C2481 C2486 1.350 . S
C2481 N2489 1.427 . S
C2482 H2473 0.930 . S
C2482 C2480 1.378 . S
C2482 C2483 1.367 . S
C2483 C2482 1.367 . S
C2483 C2485 1.433 . S
C2484 C2480 1.350 . S
C2484 C2481 1.463 . S
C2484 N2488 1.427 . S
C2485 H2475 0.929 . S
C2485 C2483 1.433 . S
C2485 N2488 1.384 . S
C2486 H2477 0.929 . S
C2486 C2478 1.378 . S
C2486 C2481 1.350 . S
C2487 H2474 0.929 . S
C2487 C2479 1.433 . S
C2487 N2489 1.384 . S
N2488 C2484 1.427 . S
N2488 C2485 1.384 . S
N2489 C2481 1.427 . S
N2489 C2487 1.384 . S
H2490 C2496 0.930 . S
H2491 C2500 0.930 . S
H2492 C2505 0.929 . S
H2493 C2503 0.929 . S
H2494 C2498 0.929 . S
H2495 C2504 0.929 . S
C2496 H2490 0.930 . S
C2496 C2497 1.367 . S
C2496 C2504 1.378 . S
C2497 C2496 1.367 . S
C2497 C2505 1.433 . S
C2498 H2494 0.929 . S
C2498 C2500 1.378 . S
C2498 C2502 1.350 . S
C2499 C2502 1.463 . S
C2499 C2504 1.350 . S
C2499 N2507 1.427 . S
C2500 H2491 0.930 . S
C2500 C2498 1.378 . S
C2500 C2501 1.367 . S
C2501 C2500 1.367 . S
C2501 C2503 1.433 . S
C2502 C2498 1.350 . S
C2502 C2499 1.463 . S
C2502 N2506 1.427 . S
C2503 H2493 0.929 . S
C2503 C2501 1.433 . S
C2503 N2506 1.384 . S
C2504 H2495 0.929 . S
C2504 C2496 1.378 . S
C2504 C2499 1.350 . S
C2505 H2492 0.929 . S
C2505 C2497 1.433 . S
C2505 N2507 1.384 . S
N2506 C2502 1.427 . S
N2506 C2503 1.384 . S
N2507 C2499 1.427 . S
N2507 C2505 1.384 . S
H2508 C2514 0.930 . S
H2509 C2518 0.930 . S
H2510 C2523 0.929 . S
H2511 C2521 0.929 . S
H2512 C2516 0.929 . S
H2513 C2522 0.929 . S
C2514 H2508 0.930 . S
C2514 C2515 1.367 . S
C2514 C2522 1.378 . S
C2515 C2514 1.367 . S
C2515 C2523 1.433 . S
C2516 H2512 0.929 . S
C2516 C2518 1.378 . S
C2516 C2520 1.350 . S
C2517 C2520 1.463 . S
C2517 C2522 1.350 . S
C2517 N2525 1.427 . S
C2518 H2509 0.930 . S
C2518 C2516 1.378 . S
C2518 C2519 1.367 . S
C2519 C2518 1.367 . S
C2519 C2521 1.433 . S
C2520 C2516 1.350 . S
C2520 C2517 1.463 . S
C2520 N2524 1.427 . S
C2521 H2511 0.929 . S
C2521 C2519 1.433 . S
C2521 N2524 1.384 . S
C2522 H2513 0.929 . S
C2522 C2514 1.378 . S
C2522 C2517 1.350 . S
C2523 H2510 0.929 . S
C2523 C2515 1.433 . S
C2523 N2525 1.384 . S
N2524 C2520 1.427 . S
N2524 C2521 1.384 . S
N2525 C2517 1.427 . S
N2525 C2523 1.384 . S
H2526 C2532 0.930 . S
H2527 C2536 0.930 . S
H2528 C2541 0.929 . S
H2529 C2539 0.929 . S
H2530 C2534 0.929 . S
H2531 C2540 0.929 . S
C2532 H2526 0.930 . S
C2532 C2533 1.367 . S
C2532 C2540 1.378 . S
C2533 C2532 1.367 . S
C2533 C2541 1.433 . S
C2534 H2530 0.929 . S
C2534 C2536 1.378 . S
C2534 C2538 1.350 . S
C2535 C2538 1.463 . S
C2535 C2540 1.350 . S
C2535 N2543 1.427 . S
C2536 H2527 0.930 . S
C2536 C2534 1.378 . S
C2536 C2537 1.367 . S
C2537 C2536 1.367 . S
C2537 C2539 1.433 . S
C2538 C2534 1.350 . S
C2538 C2535 1.463 . S
C2538 N2542 1.427 . S
C2539 H2529 0.929 . S
C2539 C2537 1.433 . S
C2539 N2542 1.384 . S
C2540 H2531 0.929 . S
C2540 C2532 1.378 . S
C2540 C2535 1.350 . S
C2541 H2528 0.929 . S
C2541 C2533 1.433 . S
C2541 N2543 1.384 . S
N2542 C2538 1.427 . S
N2542 C2539 1.384 . S
N2543 C2535 1.427 . S
N2543 C2541 1.384 . S
H2544 C2550 0.930 . S
H2545 C2554 0.930 . S
H2546 C2559 0.929 . S
H2547 C2557 0.929 . S
H2548 C2552 0.929 . S
H2549 C2558 0.929 . S
C2550 H2544 0.930 . S
C2550 C2551 1.367 . S
C2550 C2558 1.378 . S
C2551 C2550 1.367 . S
C2551 C2559 1.433 . S
C2552 H2548 0.929 . S
C2552 C2554 1.378 . S
C2552 C2556 1.350 . S
C2553 C2556 1.463 1_554 S
C2553 C2558 1.350 . S
C2553 N2561 1.427 . S
C2554 H2545 0.930 . S
C2554 C2552 1.378 . S
C2554 C2555 1.367 . S
C2555 C2554 1.367 . S
C2555 C2557 1.433 . S
C2556 C2552 1.350 . S
C2556 C2553 1.463 1_556 S
C2556 N2560 1.427 . S
C2557 H2547 0.929 . S
C2557 C2555 1.433 . S
C2557 N2560 1.384 . S
C2558 H2549 0.929 . S
C2558 C2550 1.378 . S
C2558 C2553 1.350 . S
C2559 H2546 0.929 . S
C2559 C2551 1.433 . S
C2559 N2561 1.384 . S
N2560 C2556 1.427 . S
N2560 C2557 1.384 . S
N2561 C2553 1.427 . S
N2561 C2559 1.384 . S
H2562 C2568 0.930 . S
H2563 C2572 0.930 . S
H2564 C2577 0.929 . S
H2565 C2575 0.929 . S
H2566 C2570 0.929 . S
H2567 C2576 0.929 . S
C2568 H2562 0.930 . S
C2568 C2569 1.367 . S
C2568 C2576 1.378 . S
C2569 C2568 1.367 . S
C2569 C2577 1.433 . S
C2570 H2566 0.929 . S
C2570 C2572 1.378 . S
C2570 C2574 1.350 . S
C2571 C2574 1.463 1_556 S
C2571 C2576 1.350 . S
C2571 N2579 1.427 . S
C2572 H2563 0.930 . S
C2572 C2570 1.378 . S
C2572 C2573 1.367 . S
C2573 C2572 1.367 . S
C2573 C2575 1.433 . S
C2574 C2570 1.350 . S
C2574 C2571 1.463 1_554 S
C2574 N2578 1.427 . S
C2575 H2565 0.929 . S
C2575 C2573 1.433 . S
C2575 N2578 1.384 . S
C2576 H2567 0.929 . S
C2576 C2568 1.378 . S
C2576 C2571 1.350 . S
C2577 H2564 0.929 . S
C2577 C2569 1.433 . S
C2577 N2579 1.384 . S
N2578 C2574 1.427 . S
N2578 C2575 1.384 . S
N2579 C2571 1.427 . S
N2579 C2577 1.384 . S
H2580 C2586 0.930 . S
H2581 C2590 0.930 . S
H2582 C2595 0.929 . S
H2583 C2593 0.929 . S
H2584 C2588 0.929 . S
H2585 C2594 0.929 . S
C2586 H2580 0.930 . S
C2586 C2587 1.367 . S
C2586 C2594 1.378 . S
C2587 C2586 1.367 . S
C2587 C2595 1.433 . S
C2588 H2584 0.929 . S
C2588 C2590 1.378 . S
C2588 C2592 1.350 . S
C2589 C2592 1.463 1_556 S
C2589 C2594 1.350 . S
C2589 N2597 1.427 . S
C2590 H2581 0.930 . S
C2590 C2588 1.378 . S
C2590 C2591 1.367 . S
C2591 C2590 1.367 . S
C2591 C2593 1.433 . S
C2592 C2588 1.350 . S
C2592 C2589 1.463 1_554 S
C2592 N2596 1.427 . S
C2593 H2583 0.929 . S
C2593 C2591 1.433 . S
C2593 N2596 1.384 . S
C2594 H2585 0.929 . S
C2594 C2586 1.378 . S
C2594 C2589 1.350 . S
C2595 H2582 0.929 . S
C2595 C2587 1.433 . S
C2595 N2597 1.384 . S
N2596 C2592 1.427 . S
N2596 C2593 1.384 . S
N2597 C2589 1.427 . S
N2597 C2595 1.384 . S
H2598 C2604 0.930 . S
H2599 C2608 0.930 . S
H2600 C2613 0.929 . S
H2601 C2611 0.929 . S
H2602 C2606 0.929 . S
H2603 C2612 0.929 . S
C2604 H2598 0.930 . S
C2604 C2605 1.367 . S
C2604 C2612 1.378 . S
C2605 C2604 1.367 . S
C2605 C2613 1.433 . S
C2606 H2602 0.929 . S
C2606 C2608 1.378 . S
C2606 C2610 1.350 . S
C2607 C2610 1.463 1_554 S
C2607 C2612 1.350 . S
C2607 N2615 1.427 . S
C2608 H2599 0.930 . S
C2608 C2606 1.378 . S
C2608 C2609 1.367 . S
C2609 C2608 1.367 . S
C2609 C2611 1.433 . S
C2610 C2606 1.350 . S
C2610 C2607 1.463 1_556 S
C2610 N2614 1.427 . S
C2611 H2601 0.929 . S
C2611 C2609 1.433 . S
C2611 N2614 1.384 . S
C2612 H2603 0.929 . S
C2612 C2604 1.378 . S
C2612 C2607 1.350 . S
C2613 H2600 0.929 . S
C2613 C2605 1.433 . S
C2613 N2615 1.384 . S
N2614 C2610 1.427 . S
N2614 C2611 1.384 . S
N2615 C2607 1.427 . S
N2615 C2613 1.384 . S
H2616 C2622 0.930 . S
H2617 C2626 0.930 . S
H2618 C2631 0.929 . S
H2619 C2629 0.929 . S
H2620 C2624 0.929 . S
H2621 C2630 0.929 . S
C2622 H2616 0.930 . S
C2622 C2623 1.367 . S
C2622 C2630 1.378 . S
C2623 C2622 1.367 . S
C2623 C2631 1.433 . S
C2624 H2620 0.929 . S
C2624 C2626 1.378 . S
C2624 C2628 1.350 . S
C2625 C2628 1.463 1_554 S
C2625 C2630 1.350 . S
C2625 N2633 1.427 . S
C2626 H2617 0.930 . S
C2626 C2624 1.378 . S
C2626 C2627 1.367 . S
C2627 C2626 1.367 . S
C2627 C2629 1.433 . S
C2628 C2624 1.350 . S
C2628 C2625 1.463 1_556 S
C2628 N2632 1.427 . S
C2629 H2619 0.929 . S
C2629 C2627 1.433 . S
C2629 N2632 1.384 . S
C2630 H2621 0.929 . S
C2630 C2622 1.378 . S
C2630 C2625 1.350 . S
C2631 H2618 0.929 . S
C2631 C2623 1.433 . S
C2631 N2633 1.384 . S
N2632 C2628 1.427 . S
N2632 C2629 1.384 . S
N2633 C2625 1.427 . S
N2633 C2631 1.384 . S
H2634 C2640 0.930 . S
H2635 C2644 0.930 . S
H2636 C2649 0.929 . S
H2637 C2647 0.929 . S
H2638 C2642 0.929 . S
H2639 C2648 0.929 . S
C2640 H2634 0.930 . S
C2640 C2641 1.367 . S
C2640 C2648 1.378 . S
C2641 C2640 1.367 . S
C2641 C2649 1.433 . S
C2642 H2638 0.929 . S
C2642 C2644 1.378 . S
C2642 C2646 1.350 . S
C2643 C2646 1.463 1_556 S
C2643 C2648 1.350 . S
C2643 N2651 1.427 . S
C2644 H2635 0.930 . S
C2644 C2642 1.378 . S
C2644 C2645 1.367 . S
C2645 C2644 1.367 . S
C2645 C2647 1.433 . S
C2646 C2642 1.350 . S
C2646 C2643 1.463 1_554 S
C2646 N2650 1.427 . S
C2647 H2637 0.929 . S
C2647 C2645 1.433 . S
C2647 N2650 1.384 . S
C2648 H2639 0.929 . S
C2648 C2640 1.378 . S
C2648 C2643 1.350 . S
C2649 H2636 0.929 . S
C2649 C2641 1.433 . S
C2649 N2651 1.384 . S
N2650 C2646 1.427 . S
N2650 C2647 1.384 . S
N2651 C2643 1.427 . S
N2651 C2649 1.384 . S
H2652 C2658 0.930 . S
H2653 C2662 0.930 . S
H2654 C2667 0.929 . S
H2655 C2665 0.929 . S
H2656 C2660 0.929 . S
H2657 C2666 0.929 . S
C2658 H2652 0.930 . S
C2658 C2659 1.367 . S
C2658 C2666 1.378 . S
C2659 C2658 1.367 . S
C2659 C2667 1.433 . S
C2660 H2656 0.929 . S
C2660 C2662 1.378 . S
C2660 C2664 1.350 . S
C2661 C2664 1.463 . S
C2661 C2666 1.350 . S
C2661 N2669 1.427 . S
C2662 H2653 0.930 . S
C2662 C2660 1.378 . S
C2662 C2663 1.367 . S
C2663 C2662 1.367 . S
C2663 C2665 1.433 . S
C2664 C2660 1.350 . S
C2664 C2661 1.463 . S
C2664 N2668 1.427 . S
C2665 H2655 0.929 . S
C2665 C2663 1.433 . S
C2665 N2668 1.384 . S
C2666 H2657 0.929 . S
C2666 C2658 1.378 . S
C2666 C2661 1.350 . S
C2667 H2654 0.929 . S
C2667 C2659 1.433 . S
C2667 N2669 1.384 . S
N2668 C2664 1.427 . S
N2668 C2665 1.384 . S
N2669 C2661 1.427 . S
N2669 C2667 1.384 . S
H2670 C2676 0.930 . S
H2671 C2680 0.930 . S
H2672 C2685 0.929 . S
H2673 C2683 0.929 . S
H2674 C2678 0.929 . S
H2675 C2684 0.929 . S
C2676 H2670 0.930 . S
C2676 C2677 1.367 . S
C2676 C2684 1.378 . S
C2677 C2676 1.367 . S
C2677 C2685 1.433 . S
C2678 H2674 0.929 . S
C2678 C2680 1.378 . S
C2678 C2682 1.350 . S
C2679 C2682 1.463 . S
C2679 C2684 1.350 . S
C2679 N2687 1.427 . S
C2680 H2671 0.930 . S
C2680 C2678 1.378 . S
C2680 C2681 1.367 . S
C2681 C2680 1.367 . S
C2681 C2683 1.433 . S
C2682 C2678 1.350 . S
C2682 C2679 1.463 . S
C2682 N2686 1.427 . S
C2683 H2673 0.929 . S
C2683 C2681 1.433 . S
C2683 N2686 1.384 . S
C2684 H2675 0.929 . S
C2684 C2676 1.378 . S
C2684 C2679 1.350 . S
C2685 H2672 0.929 . S
C2685 C2677 1.433 . S
C2685 N2687 1.384 . S
N2686 C2682 1.427 . S
N2686 C2683 1.384 . S
N2687 C2679 1.427 . S
N2687 C2685 1.384 . S
H2688 C2694 0.930 . S
H2689 C2698 0.930 . S
H2690 C2703 0.929 . S
H2691 C2701 0.929 . S
H2692 C2696 0.929 . S
H2693 C2702 0.929 . S
C2694 H2688 0.930 . S
C2694 C2695 1.367 . S
C2694 C2702 1.378 . S
C2695 C2694 1.367 . S
C2695 C2703 1.433 . S
C2696 H2692 0.929 . S
C2696 C2698 1.378 . S
C2696 C2700 1.350 . S
C2697 C2700 1.463 . S
C2697 C2702 1.350 . S
C2697 N2705 1.427 . S
C2698 H2689 0.930 . S
C2698 C2696 1.378 . S
C2698 C2699 1.367 . S
C2699 C2698 1.367 . S
C2699 C2701 1.433 . S
C2700 C2696 1.350 . S
C2700 C2697 1.463 . S
C2700 N2704 1.427 . S
C2701 H2691 0.929 . S
C2701 C2699 1.433 . S
C2701 N2704 1.384 . S
C2702 H2693 0.929 . S
C2702 C2694 1.378 . S
C2702 C2697 1.350 . S
C2703 H2690 0.929 . S
C2703 C2695 1.433 . S
C2703 N2705 1.384 . S
N2704 C2700 1.427 . S
N2704 C2701 1.384 . S
N2705 C2697 1.427 . S
N2705 C2703 1.384 . S
H2706 C2712 0.930 . S
H2707 C2716 0.930 . S
H2708 C2721 0.929 . S
H2709 C2719 0.929 . S
H2710 C2714 0.929 . S
H2711 C2720 0.929 . S
C2712 H2706 0.930 . S
C2712 C2713 1.367 . S
C2712 C2720 1.378 . S
C2713 C2712 1.367 . S
C2713 C2721 1.433 . S
C2714 H2710 0.929 . S
C2714 C2716 1.378 . S
C2714 C2718 1.350 . S
C2715 C2718 1.463 . S
C2715 C2720 1.350 . S
C2715 N2723 1.427 . S
C2716 H2707 0.930 . S
C2716 C2714 1.378 . S
C2716 C2717 1.367 . S
C2717 C2716 1.367 . S
C2717 C2719 1.433 . S
C2718 C2714 1.350 . S
C2718 C2715 1.463 . S
C2718 N2722 1.427 . S
C2719 H2709 0.929 . S
C2719 C2717 1.433 . S
C2719 N2722 1.384 . S
C2720 H2711 0.929 . S
C2720 C2712 1.378 . S
C2720 C2715 1.350 . S
C2721 H2708 0.929 . S
C2721 C2713 1.433 . S
C2721 N2723 1.384 . S
N2722 C2718 1.427 . S
N2722 C2719 1.384 . S
N2723 C2715 1.427 . S
N2723 C2721 1.384 . S
H2724 C2730 0.930 . S
H2725 C2734 0.930 . S
H2726 C2739 0.929 . S
H2727 C2737 0.929 . S
H2728 C2732 0.929 . S
H2729 C2738 0.929 . S
C2730 H2724 0.930 . S
C2730 C2731 1.367 . S
C2730 C2738 1.378 . S
C2731 C2730 1.367 . S
C2731 C2739 1.433 . S
C2732 H2728 0.929 . S
C2732 C2734 1.378 . S
C2732 C2736 1.350 . S
C2733 C2736 1.463 . S
C2733 C2738 1.350 . S
C2733 N2741 1.427 . S
C2734 H2725 0.930 . S
C2734 C2732 1.378 . S
C2734 C2735 1.367 . S
C2735 C2734 1.367 . S
C2735 C2737 1.433 . S
C2736 C2732 1.350 . S
C2736 C2733 1.463 . S
C2736 N2740 1.427 . S
C2737 H2727 0.929 . S
C2737 C2735 1.433 . S
C2737 N2740 1.384 . S
C2738 H2729 0.929 . S
C2738 C2730 1.378 . S
C2738 C2733 1.350 . S
C2739 H2726 0.929 . S
C2739 C2731 1.433 . S
C2739 N2741 1.384 . S
N2740 C2736 1.427 . S
N2740 C2737 1.384 . S
N2741 C2733 1.427 . S
N2741 C2739 1.384 . S
H2742 C2748 0.930 . S
H2743 C2752 0.930 . S
H2744 C2757 0.929 . S
H2745 C2755 0.929 . S
H2746 C2750 0.929 . S
H2747 C2756 0.929 . S
C2748 H2742 0.930 . S
C2748 C2749 1.367 . S
C2748 C2756 1.378 . S
C2749 C2748 1.367 . S
C2749 C2757 1.433 . S
C2750 H2746 0.929 . S
C2750 C2752 1.378 . S
C2750 C2754 1.350 . S
C2751 C2754 1.463 . S
C2751 C2756 1.350 . S
C2751 N2759 1.427 . S
C2752 H2743 0.930 . S
C2752 C2750 1.378 . S
C2752 C2753 1.367 . S
C2753 C2752 1.367 . S
C2753 C2755 1.433 . S
C2754 C2750 1.350 . S
C2754 C2751 1.463 . S
C2754 N2758 1.427 . S
C2755 H2745 0.929 . S
C2755 C2753 1.433 . S
C2755 N2758 1.384 . S
C2756 H2747 0.929 . S
C2756 C2748 1.378 . S
C2756 C2751 1.350 . S
C2757 H2744 0.929 . S
C2757 C2749 1.433 . S
C2757 N2759 1.384 . S
N2758 C2754 1.427 . S
N2758 C2755 1.384 . S
N2759 C2751 1.427 . S
N2759 C2757 1.384 . S
H2760 C2766 0.930 . S
H2761 C2770 0.930 . S
H2762 C2775 0.929 . S
H2763 C2773 0.929 . S
H2764 C2768 0.929 . S
H2765 C2774 0.929 . S
C2766 H2760 0.930 . S
C2766 C2767 1.367 . S
C2766 C2774 1.378 . S
C2767 C2766 1.367 . S
C2767 C2775 1.433 . S
C2768 H2764 0.929 . S
C2768 C2770 1.378 . S
C2768 C2772 1.350 . S
C2769 C2772 1.463 . S
C2769 C2774 1.350 . S
C2769 N2777 1.427 . S
C2770 H2761 0.930 . S
C2770 C2768 1.378 . S
C2770 C2771 1.367 . S
C2771 C2770 1.367 . S
C2771 C2773 1.433 . S
C2772 C2768 1.350 . S
C2772 C2769 1.463 . S
C2772 N2776 1.427 . S
C2773 H2763 0.929 . S
C2773 C2771 1.433 . S
C2773 N2776 1.384 . S
C2774 H2765 0.929 . S
C2774 C2766 1.378 . S
C2774 C2769 1.350 . S
C2775 H2762 0.929 . S
C2775 C2767 1.433 . S
C2775 N2777 1.384 . S
N2776 C2772 1.427 . S
N2776 C2773 1.384 . S
N2777 C2769 1.427 . S
N2777 C2775 1.384 . S
H2778 C2784 0.930 . S
H2779 C2788 0.930 . S
H2780 C2793 0.929 . S
H2781 C2791 0.929 . S
H2782 C2786 0.929 . S
H2783 C2792 0.929 . S
C2784 H2778 0.930 . S
C2784 C2785 1.367 . S
C2784 C2792 1.378 . S
C2785 C2784 1.367 . S
C2785 C2793 1.433 . S
C2786 H2782 0.929 . S
C2786 C2788 1.378 . S
C2786 C2790 1.350 . S
C2787 C2790 1.463 . S
C2787 C2792 1.350 . S
C2787 N2795 1.427 . S
C2788 H2779 0.930 . S
C2788 C2786 1.378 . S
C2788 C2789 1.367 . S
C2789 C2788 1.367 . S
C2789 C2791 1.433 . S
C2790 C2786 1.350 . S
C2790 C2787 1.463 . S
C2790 N2794 1.427 . S
C2791 H2781 0.929 . S
C2791 C2789 1.433 . S
C2791 N2794 1.384 . S
C2792 H2783 0.929 . S
C2792 C2784 1.378 . S
C2792 C2787 1.350 . S
C2793 H2780 0.929 . S
C2793 C2785 1.433 . S
C2793 N2795 1.384 . S
N2794 C2790 1.427 . S
N2794 C2791 1.384 . S
N2795 C2787 1.427 . S
N2795 C2793 1.384 . S
H2796 C2802 0.930 . S
H2797 C2806 0.930 . S
H2798 C2811 0.929 . S
H2799 C2809 0.929 . S
H2800 C2804 0.929 . S
H2801 C2810 0.929 . S
C2802 H2796 0.930 . S
C2802 C2803 1.367 . S
C2802 C2810 1.378 . S
C2803 C2802 1.367 . S
C2803 C2811 1.433 . S
C2804 H2800 0.929 . S
C2804 C2806 1.378 . S
C2804 C2808 1.350 . S
C2805 C2808 1.463 . S
C2805 C2810 1.350 . S
C2805 N2813 1.427 . S
C2806 H2797 0.930 . S
C2806 C2804 1.378 . S
C2806 C2807 1.367 . S
C2807 C2806 1.367 . S
C2807 C2809 1.433 . S
C2808 C2804 1.350 . S
C2808 C2805 1.463 . S
C2808 N2812 1.427 . S
C2809 H2799 0.929 . S
C2809 C2807 1.433 . S
C2809 N2812 1.384 . S
C2810 H2801 0.929 . S
C2810 C2802 1.378 . S
C2810 C2805 1.350 . S
C2811 H2798 0.929 . S
C2811 C2803 1.433 . S
C2811 N2813 1.384 . S
N2812 C2808 1.427 . S
N2812 C2809 1.384 . S
N2813 C2805 1.427 . S
N2813 C2811 1.384 . S
H2814 C2820 0.930 . S
H2815 C2824 0.930 . S
H2816 C2829 0.929 . S
H2817 C2827 0.929 . S
H2818 C2822 0.929 . S
H2819 C2828 0.929 . S
C2820 H2814 0.930 . S
C2820 C2821 1.367 . S
C2820 C2828 1.378 . S
C2821 C2820 1.367 . S
C2821 C2829 1.433 . S
C2822 H2818 0.929 . S
C2822 C2824 1.378 . S
C2822 C2826 1.350 . S
C2823 C2826 1.463 . S
C2823 C2828 1.350 . S
C2823 N2831 1.427 . S
C2824 H2815 0.930 . S
C2824 C2822 1.378 . S
C2824 C2825 1.367 . S
C2825 C2824 1.367 . S
C2825 C2827 1.433 . S
C2826 C2822 1.350 . S
C2826 C2823 1.463 . S
C2826 N2830 1.427 . S
C2827 H2817 0.929 . S
C2827 C2825 1.433 . S
C2827 N2830 1.384 . S
C2828 H2819 0.929 . S
C2828 C2820 1.378 . S
C2828 C2823 1.350 . S
C2829 H2816 0.929 . S
C2829 C2821 1.433 . S
C2829 N2831 1.384 . S
N2830 C2826 1.427 . S
N2830 C2827 1.384 . S
N2831 C2823 1.427 . S
N2831 C2829 1.384 . S
H2832 C2838 0.930 . S
H2833 C2842 0.930 . S
H2834 C2847 0.929 . S
H2835 C2845 0.929 . S
H2836 C2840 0.929 . S
H2837 C2846 0.929 . S
C2838 H2832 0.930 . S
C2838 C2839 1.367 . S
C2838 C2846 1.378 . S
C2839 C2838 1.367 . S
C2839 C2847 1.433 . S
C2840 H2836 0.929 . S
C2840 C2842 1.378 . S
C2840 C2844 1.350 . S
C2841 C2844 1.463 . S
C2841 C2846 1.350 . S
C2841 N2849 1.427 . S
C2842 H2833 0.930 . S
C2842 C2840 1.378 . S
C2842 C2843 1.367 . S
C2843 C2842 1.367 . S
C2843 C2845 1.433 . S
C2844 C2840 1.350 . S
C2844 C2841 1.463 . S
C2844 N2848 1.427 . S
C2845 H2835 0.929 . S
C2845 C2843 1.433 . S
C2845 N2848 1.384 . S
C2846 H2837 0.929 . S
C2846 C2838 1.378 . S
C2846 C2841 1.350 . S
C2847 H2834 0.929 . S
C2847 C2839 1.433 . S
C2847 N2849 1.384 . S
N2848 C2844 1.427 . S
N2848 C2845 1.384 . S
N2849 C2841 1.427 . S
N2849 C2847 1.384 . S
H2850 C2856 0.930 . S
H2851 C2860 0.930 . S
H2852 C2865 0.929 . S
H2853 C2863 0.929 . S
H2854 C2858 0.929 . S
H2855 C2864 0.929 . S
C2856 H2850 0.930 . S
C2856 C2857 1.367 . S
C2856 C2864 1.378 . S
C2857 C2856 1.367 . S
C2857 C2865 1.433 . S
C2858 H2854 0.929 . S
C2858 C2860 1.378 . S
C2858 C2862 1.350 . S
C2859 C2862 1.463 . S
C2859 C2864 1.350 . S
C2859 N2867 1.427 . S
C2860 H2851 0.930 . S
C2860 C2858 1.378 . S
C2860 C2861 1.367 . S
C2861 C2860 1.367 . S
C2861 C2863 1.433 . S
C2862 C2858 1.350 . S
C2862 C2859 1.463 . S
C2862 N2866 1.427 . S
C2863 H2853 0.929 . S
C2863 C2861 1.433 . S
C2863 N2866 1.384 . S
C2864 H2855 0.929 . S
C2864 C2856 1.378 . S
C2864 C2859 1.350 . S
C2865 H2852 0.929 . S
C2865 C2857 1.433 . S
C2865 N2867 1.384 . S
N2866 C2862 1.427 . S
N2866 C2863 1.384 . S
N2867 C2859 1.427 . S
N2867 C2865 1.384 . S
H2868 C2874 0.930 . S
H2869 C2878 0.930 . S
H2870 C2883 0.929 . S
H2871 C2881 0.929 . S
H2872 C2876 0.929 . S
H2873 C2882 0.929 . S
C2874 H2868 0.930 . S
C2874 C2875 1.367 . S
C2874 C2882 1.378 . S
C2875 C2874 1.367 . S
C2875 C2883 1.433 . S
C2876 H2872 0.929 . S
C2876 C2878 1.378 . S
C2876 C2880 1.350 . S
C2877 C2880 1.463 . S
C2877 C2882 1.350 . S
C2877 N2885 1.427 . S
C2878 H2869 0.930 . S
C2878 C2876 1.378 . S
C2878 C2879 1.367 . S
C2879 C2878 1.367 . S
C2879 C2881 1.433 . S
C2880 C2876 1.350 . S
C2880 C2877 1.463 . S
C2880 N2884 1.427 . S
C2881 H2871 0.929 . S
C2881 C2879 1.433 . S
C2881 N2884 1.384 . S
C2882 H2873 0.929 . S
C2882 C2874 1.378 . S
C2882 C2877 1.350 . S
C2883 H2870 0.929 . S
C2883 C2875 1.433 . S
C2883 N2885 1.384 . S
N2884 C2880 1.427 . S
N2884 C2881 1.384 . S
N2885 C2877 1.427 . S
N2885 C2883 1.384 . S
H2886 C2892 0.930 . S
H2887 C2896 0.930 . S
H2888 C2901 0.929 . S
H2889 C2899 0.929 . S
H2890 C2894 0.929 . S
H2891 C2900 0.929 . S
C2892 H2886 0.930 . S
C2892 C2893 1.367 . S
C2892 C2900 1.378 . S
C2893 C2892 1.367 . S
C2893 C2901 1.433 . S
C2894 H2890 0.929 . S
C2894 C2896 1.378 . S
C2894 C2898 1.350 . S
C2895 C2898 1.463 . S
C2895 C2900 1.350 . S
C2895 N2903 1.427 . S
C2896 H2887 0.930 . S
C2896 C2894 1.378 . S
C2896 C2897 1.367 . S
C2897 C2896 1.367 . S
C2897 C2899 1.433 . S
C2898 C2894 1.350 . S
C2898 C2895 1.463 . S
C2898 N2902 1.427 . S
C2899 H2889 0.929 . S
C2899 C2897 1.433 . S
C2899 N2902 1.384 . S
C2900 H2891 0.929 . S
C2900 C2892 1.378 . S
C2900 C2895 1.350 . S
C2901 H2888 0.929 . S
C2901 C2893 1.433 . S
C2901 N2903 1.384 . S
N2902 C2898 1.427 . S
N2902 C2899 1.384 . S
N2903 C2895 1.427 . S
N2903 C2901 1.384 . S
H2904 C2910 0.930 . S
H2905 C2914 0.930 . S
H2906 C2919 0.929 . S
H2907 C2917 0.929 . S
H2908 C2912 0.929 . S
H2909 C2918 0.929 . S
C2910 H2904 0.930 . S
C2910 C2911 1.367 . S
C2910 C2918 1.378 . S
C2911 C2910 1.367 . S
C2911 C2919 1.433 . S
C2912 H2908 0.929 . S
C2912 C2914 1.378 . S
C2912 C2916 1.350 . S
C2913 C2916 1.463 . S
C2913 C2918 1.350 . S
C2913 N2921 1.427 . S
C2914 H2905 0.930 . S
C2914 C2912 1.378 . S
C2914 C2915 1.367 . S
C2915 C2914 1.367 . S
C2915 C2917 1.433 . S
C2916 C2912 1.350 . S
C2916 C2913 1.463 . S
C2916 N2920 1.427 . S
C2917 H2907 0.929 . S
C2917 C2915 1.433 . S
C2917 N2920 1.384 . S
C2918 H2909 0.929 . S
C2918 C2910 1.378 . S
C2918 C2913 1.350 . S
C2919 H2906 0.929 . S
C2919 C2911 1.433 . S
C2919 N2921 1.384 . S
N2920 C2916 1.427 . S
N2920 C2917 1.384 . S
N2921 C2913 1.427 . S
N2921 C2919 1.384 . S
H2922 C2928 0.930 . S
H2923 C2932 0.930 . S
H2924 C2937 0.929 . S
H2925 C2935 0.929 . S
H2926 C2930 0.929 . S
H2927 C2936 0.929 . S
C2928 H2922 0.930 . S
C2928 C2929 1.367 . S
C2928 C2936 1.378 . S
C2929 C2928 1.367 . S
C2929 C2937 1.433 . S
C2930 H2926 0.929 . S
C2930 C2932 1.378 . S
C2930 C2934 1.350 . S
C2931 C2934 1.463 . S
C2931 C2936 1.350 . S
C2931 N2939 1.427 . S
C2932 H2923 0.930 . S
C2932 C2930 1.378 . S
C2932 C2933 1.367 . S
C2933 C2932 1.367 . S
C2933 C2935 1.433 . S
C2934 C2930 1.350 . S
C2934 C2931 1.463 . S
C2934 N2938 1.427 . S
C2935 H2925 0.929 . S
C2935 C2933 1.433 . S
C2935 N2938 1.384 . S
C2936 H2927 0.929 . S
C2936 C2928 1.378 . S
C2936 C2931 1.350 . S
C2937 H2924 0.929 . S
C2937 C2929 1.433 . S
C2937 N2939 1.384 . S
N2938 C2934 1.427 . S
N2938 C2935 1.384 . S
N2939 C2931 1.427 . S
N2939 C2937 1.384 . S
H2940 C2946 0.930 . S
H2941 C2950 0.930 . S
H2942 C2955 0.929 . S
H2943 C2953 0.929 . S
H2944 C2948 0.929 . S
H2945 C2954 0.929 . S
C2946 H2940 0.930 . S
C2946 C2947 1.367 . S
C2946 C2954 1.378 . S
C2947 C2946 1.367 . S
C2947 C2955 1.433 . S
C2948 H2944 0.929 . S
C2948 C2950 1.378 . S
C2948 C2952 1.350 . S
C2949 C2952 1.463 . S
C2949 C2954 1.350 . S
C2949 N2957 1.427 . S
C2950 H2941 0.930 . S
C2950 C2948 1.378 . S
C2950 C2951 1.367 . S
C2951 C2950 1.367 . S
C2951 C2953 1.433 . S
C2952 C2948 1.350 . S
C2952 C2949 1.463 . S
C2952 N2956 1.427 . S
C2953 H2943 0.929 . S
C2953 C2951 1.433 . S
C2953 N2956 1.384 . S
C2954 H2945 0.929 . S
C2954 C2946 1.378 . S
C2954 C2949 1.350 . S
C2955 H2942 0.929 . S
C2955 C2947 1.433 . S
C2955 N2957 1.384 . S
N2956 C2952 1.427 . S
N2956 C2953 1.384 . S
N2957 C2949 1.427 . S
N2957 C2955 1.384 . S
H2958 C2964 0.930 . S
H2959 C2968 0.930 . S
H2960 C2973 0.929 . S
H2961 C2971 0.929 . S
H2962 C2966 0.929 . S
H2963 C2972 0.929 . S
C2964 H2958 0.930 . S
C2964 C2965 1.367 . S
C2964 C2972 1.378 . S
C2965 C2964 1.367 . S
C2965 C2973 1.433 . S
C2966 H2962 0.929 . S
C2966 C2968 1.378 . S
C2966 C2970 1.350 . S
C2967 C2970 1.463 . S
C2967 C2972 1.350 . S
C2967 N2975 1.427 . S
C2968 H2959 0.930 . S
C2968 C2966 1.378 . S
C2968 C2969 1.367 . S
C2969 C2968 1.367 . S
C2969 C2971 1.433 . S
C2970 C2966 1.350 . S
C2970 C2967 1.463 . S
C2970 N2974 1.427 . S
C2971 H2961 0.929 . S
C2971 C2969 1.433 . S
C2971 N2974 1.384 . S
C2972 H2963 0.929 . S
C2972 C2964 1.378 . S
C2972 C2967 1.350 . S
C2973 H2960 0.929 . S
C2973 C2965 1.433 . S
C2973 N2975 1.384 . S
N2974 C2970 1.427 . S
N2974 C2971 1.384 . S
N2975 C2967 1.427 . S
N2975 C2973 1.384 . S
C2119 C29 1.233 . S
C2123 C673 1.231 . S
C2137 C724 1.237 . S
C2141 C117 1.228 . S
C2155 C205 1.229 . S
C2159 C821 1.236 . S
C2173 C284 1.233 . S
C2177 C937 1.231 . S
C2191 C1017 1.232 . S
C2195 C381 1.232 . S
C2209 C497 1.227 . S
C2213 C577 1.237 . S
C2227 C1076 1.219 . S
C2231 C1721 1.222 . S
C2245 C1173 1.216 . S
C2249 C1809 1.223 . S
C2263 C1905 1.224 . S
C2267 C1252 1.215 . S
C2281 C1340 1.219 . S
C2285 C1993 1.222 . S
C2299 C1437 1.215 . S
C2303 C2073 1.224 . S
C2317 C1633 1.225 . S
C2321 C1516 1.215 . S
C2335 C57 1.005 . S
C2339 C753 1.003 . S
C2353 C849 1.003 . S
C2357 C145 1.007 . S
C2371 C909 1.004 . S
C2375 C233 1.004 . S
C2389 C313 1.008 . S
C2393 C988 1.008 . S
C2407 C409 1.004 . S
C2411 C548 1.004 . S
C2425 C469 1.005 . S
C2429 C645 1.003 . S
C2443 C1780 1.013 . S
C2447 C1105 1.017 . S
C2461 C1201 1.016 . S
C2465 C1877 1.019 . S
C2479 C1965 1.018 . S
C2483 C1281 1.016 . S
C2497 C2044 1.017 . S
C2501 C1369 1.018 . S
C2515 C1604 1.016 . S
C2519 C1465 1.019 . S
C2533 C1545 1.013 . S
C2537 C1692 1.017 . S
C2551 C49 1.526 . S
C2555 C1349 1.527 . S
C2569 C1428 1.528 . S
C2573 C137 1.525 . S
C2587 C1525 1.528 . S
C2591 C225 1.525 . S
C2605 C321 1.527 . S
C2609 C1085 1.526 . S
C2623 C401 1.525 . S
C2627 C1164 1.528 . S
C2641 C1261 1.525 . S
C2645 C460 1.528 . S
C2659 C1897 1.527 . S
C2663 C557 1.526 . S
C2677 C1985 1.527 . S
C2681 C636 1.526 . S
C2695 C2081 1.528 . S
C2699 C761 1.525 . S
C2713 C1641 1.527 . S
C2717 C841 1.526 . S
C2731 C900 1.528 . S
C2735 C1729 1.525 . S
C2749 C997 1.526 . S
C2753 C1817 1.527 . S
C2767 C20 1.622 . S
C2771 C929 1.618 . S
C2785 C1025 1.619 . S
C2789 C108 1.623 . S
C2803 C585 1.622 . S
C2807 C196 1.622 . S
C2821 C293 1.622 . S
C2825 C665 1.621 . S
C2839 C372 1.621 . S
C2843 C733 1.622 . S
C2857 C489 1.620 . S
C2861 C812 1.619 . S
C2875 C1113 1.621 . S
C2879 C1956 1.624 . S
C2893 C1193 1.622 . S
C2897 C2053 1.619 . S
C2911 C1289 1.622 . S
C2915 C1613 1.623 . S
C2929 C1701 1.620 . S
C2933 C1377 1.623 . S
C2947 C1457 1.619 . S
C2951 C1789 1.622 . S
C2965 C1553 1.620 . S
C2969 C1868 1.623 . S
