# Generated by pormake.
# Topology ung, (4)-cn, num edge types: 1
# Building blocks:
#     Node 0, Type 0, BuildingBlock: ICAMEG_clean_sbu_1, # of connection points: 4
#     Node 1, Type 0, BuildingBlock: ICAMEG_clean_sbu_1, # of connection points: 4
#     Node 2, Type 0, BuildingBlock: ICAMEG_clean_sbu_1, # of connection points: 4
#     Node 3, Type 0, BuildingBlock: ICAMEG_clean_sbu_1, # of connection points: 4
#     Node 4, Type 0, BuildingBlock: ICAMEG_clean_sbu_1, # of connection points: 4
#     Node 5, Type 0, BuildingBlock: ICAMEG_clean_sbu_1, # of connection points: 4
#     Node 6, Type 0, BuildingBlock: ICAMEG_clean_sbu_1, # of connection points: 4
#     Node 7, Type 0, BuildingBlock: ICAMEG_clean_sbu_1, # of connection points: 4
#     Node 8, Type 0, BuildingBlock: ICAMEG_clean_sbu_1, # of connection points: 4
#     Node 9, Type 0, BuildingBlock: ICAMEG_clean_sbu_1, # of connection points: 4
#     Node 10, Type 0, BuildingBlock: ICAMEG_clean_sbu_1, # of connection points: 4
#     Node 11, Type 0, BuildingBlock: ICAMEG_clean_sbu_1, # of connection points: 4
#     Node 12, Type 0, BuildingBlock: ICAMEG_clean_sbu_1, # of connection points: 4
#     Node 13, Type 0, BuildingBlock: ICAMEG_clean_sbu_1, # of connection points: 4
#     Node 14, Type 0, BuildingBlock: ICAMEG_clean_sbu_1, # of connection points: 4
#     Node 15, Type 0, BuildingBlock: ICAMEG_clean_sbu_1, # of connection points: 4
#     Node 16, Type 0, BuildingBlock: ICAMEG_clean_sbu_1, # of connection points: 4
#     Node 17, Type 0, BuildingBlock: ICAMEG_clean_sbu_1, # of connection points: 4
#     Edge 18, Type (0, 0), BuildingBlock: AJUNOK_clean_linker_0, # of connection points: 2
#     Edge 19, Type (0, 0), BuildingBlock: AJUNOK_clean_linker_0, # of connection points: 2
#     Edge 20, Type (0, 0), BuildingBlock: AJUNOK_clean_linker_0, # of connection points: 2
#     Edge 21, Type (0, 0), BuildingBlock: AJUNOK_clean_linker_0, # of connection points: 2
#     Edge 22, Type (0, 0), BuildingBlock: AJUNOK_clean_linker_0, # of connection points: 2
#     Edge 23, Type (0, 0), BuildingBlock: AJUNOK_clean_linker_0, # of connection points: 2
#     Edge 24, Type (0, 0), BuildingBlock: AJUNOK_clean_linker_0, # of connection points: 2
#     Edge 25, Type (0, 0), BuildingBlock: AJUNOK_clean_linker_0, # of connection points: 2
#     Edge 26, Type (0, 0), BuildingBlock: AJUNOK_clean_linker_0, # of connection points: 2
#     Edge 27, Type (0, 0), BuildingBlock: AJUNOK_clean_linker_0, # of connection points: 2
#     Edge 28, Type (0, 0), BuildingBlock: AJUNOK_clean_linker_0, # of connection points: 2
#     Edge 29, Type (0, 0), BuildingBlock: AJUNOK_clean_linker_0, # of connection points: 2
#     Edge 30, Type (0, 0), BuildingBlock: AJUNOK_clean_linker_0, # of connection points: 2
#     Edge 31, Type (0, 0), BuildingBlock: AJUNOK_clean_linker_0, # of connection points: 2
#     Edge 32, Type (0, 0), BuildingBlock: AJUNOK_clean_linker_0, # of connection points: 2
#     Edge 33, Type (0, 0), BuildingBlock: AJUNOK_clean_linker_0, # of connection points: 2
#     Edge 34, Type (0, 0), BuildingBlock: AJUNOK_clean_linker_0, # of connection points: 2
#     Edge 35, Type (0, 0), BuildingBlock: AJUNOK_clean_linker_0, # of connection points: 2
#     Edge 36, Type (0, 0), BuildingBlock: AJUNOK_clean_linker_0, # of connection points: 2
#     Edge 37, Type (0, 0), BuildingBlock: AJUNOK_clean_linker_0, # of connection points: 2
#     Edge 38, Type (0, 0), BuildingBlock: AJUNOK_clean_linker_0, # of connection points: 2
#     Edge 39, Type (0, 0), BuildingBlock: AJUNOK_clean_linker_0, # of connection points: 2
#     Edge 40, Type (0, 0), BuildingBlock: AJUNOK_clean_linker_0, # of connection points: 2
#     Edge 41, Type (0, 0), BuildingBlock: AJUNOK_clean_linker_0, # of connection points: 2
#     Edge 42, Type (0, 0), BuildingBlock: AJUNOK_clean_linker_0, # of connection points: 2
#     Edge 43, Type (0, 0), BuildingBlock: AJUNOK_clean_linker_0, # of connection points: 2
#     Edge 44, Type (0, 0), BuildingBlock: AJUNOK_clean_linker_0, # of connection points: 2
#     Edge 45, Type (0, 0), BuildingBlock: AJUNOK_clean_linker_0, # of connection points: 2
#     Edge 46, Type (0, 0), BuildingBlock: AJUNOK_clean_linker_0, # of connection points: 2
#     Edge 47, Type (0, 0), BuildingBlock: AJUNOK_clean_linker_0, # of connection points: 2
#     Edge 48, Type (0, 0), BuildingBlock: AJUNOK_clean_linker_0, # of connection points: 2
#     Edge 49, Type (0, 0), BuildingBlock: AJUNOK_clean_linker_0, # of connection points: 2
#     Edge 50, Type (0, 0), BuildingBlock: AJUNOK_clean_linker_0, # of connection points: 2
#     Edge 51, Type (0, 0), BuildingBlock: AJUNOK_clean_linker_0, # of connection points: 2
#     Edge 52, Type (0, 0), BuildingBlock: AJUNOK_clean_linker_0, # of connection points: 2
#     Edge 53, Type (0, 0), BuildingBlock: AJUNOK_clean_linker_0, # of connection points: 2
# Relax obj value: 0.025
# Max RMSD: 0.111
# Mean RMSD: 0.111
data_MOF--net-ung--node1-ICAMEG_clean_sbu_1--edge1-AJUNOK_clean_linker_0
_symmetry_space_group_name_H-M    P1
_symmetry_Int_Tables_number       1
_symmetry_cell_setting            triclinic
loop_
_symmetry_equiv_pos_as_xyz
'x, y, z'
_cell_length_a     57.036054
_cell_length_b     57.113629
_cell_length_c     18.28082
_cell_angle_alpha  90.066787
_cell_angle_beta   90.019189
_cell_angle_gamma 119.99947
loop_
_atom_site_label
_atom_site_type_symbol
_atom_site_fract_x
_atom_site_fract_y
_atom_site_fract_z
_atom_type_partial_charge
Co0 Co 0.097 0.65803 0.19951 0.0
Co1 Co 0.04621 0.63177 0.32638 0.0
O2 O 0.07189 0.62877 0.26254 0.0
C3 C 0.07107 0.60977 0.1036 0.0
O4 O 0.04771 0.60607 0.12711 0.0
C5 C 0.07419 0.61151 0.42052 0.0
O6 O 0.09679 0.63206 0.39641 0.0
O7 O 0.07607 0.66507 0.37141 0.0
O8 O 0.10195 0.68631 0.27395 0.0
H9 H 1.00648 0.68086 0.45942 0.0
H10 H 0.10713 0.61306 0.23344 0.0
O11 O 0.09293 0.6304 0.12487 0.0
H12 H 0.1878 0.69548 0.32273 0.0
H13 H 0.17375 0.70191 0.01919 0.0
H14 H 0.10321 0.71045 0.15222 0.0
H15 H 0.15059 0.69828 0.26248 0.0
H16 H 0.14313 0.66633 0.10478 0.0
O17 O 0.05158 0.60881 0.40025 0.0
H18 H 0.03772 0.67656 0.37444 0.0
H19 H 1.00132 0.59285 0.42233 0.0
H20 H 0.1336 0.7467 0.06793 0.0
H21 H 0.14404 0.60939 0.29243 0.0
H22 H 0.16915 0.7425 1.0005 0.0
H23 H 0.18467 0.65078 0.33796 0.0
O24 O 0.06639 0.66023 0.15487 0.0
H25 H 1.002 0.53645 0.23137 0.0
H26 H 0.99197 0.61669 0.26496 0.0
H27 H 0.95546 0.57611 0.20484 0.0
H28 H 0.96033 0.5356 0.18781 0.0
H29 H 0.03814 0.57753 0.29056 0.0
H30 H 0.96985 0.59625 0.50853 0.0
H31 H 0.97227 0.6405 0.52733 0.0
O32 O 0.04015 0.65454 0.25252 0.0
C33 C 0.09495 0.68609 0.3406 0.0
C34 C 1.0051 0.66142 0.45136 0.0
C35 C 0.98456 0.61395 0.47896 0.0
N36 N 0.02097 0.63439 0.39233 0.0
C37 C 0.02262 0.65884 0.40296 0.0
C38 C 1.00242 0.61214 0.43007 0.0
C39 C 0.98593 0.63878 0.4895 0.0
C40 C 0.12491 0.63121 0.25216 0.0
N41 N 0.12674 0.65587 0.24417 0.0
C42 C 0.14569 0.62899 0.28585 0.0
C43 C 0.16845 0.65222 0.31152 0.0
C44 C 0.1702 0.6773 0.30308 0.0
C45 C 0.14903 0.67875 0.26911 0.0
C46 C 0.15843 0.70403 0.04847 0.0
C47 C 0.11886 0.70867 0.12384 0.0
C48 C 0.14102 0.68394 0.09696 0.0
N49 N 0.12167 0.68652 0.1343 0.0
C50 C 0.13592 0.72918 0.07587 0.0
C51 C 0.15583 0.7268 0.03801 0.0
C52 C 0.0471 0.66163 0.18598 0.0
C53 C 0.9996 0.55394 0.23872 0.0
C54 C 0.99429 0.59917 0.25756 0.0
C55 C 0.97351 0.57623 0.22364 0.0
C56 C 0.97625 0.55349 0.21416 0.0
N57 N 0.01713 0.59944 0.28154 0.0
C58 C 0.01994 0.57722 0.27252 0.0
Co59 Co 0.50539 0.47798 0.32553 0.0
Co60 Co 0.48006 0.50352 0.19949 0.0
O61 O 0.50924 0.50718 0.26257 0.0
C62 C 0.52814 0.52618 0.42134 0.0
O63 O 0.50834 0.5298 0.39863 0.0
C64 C 0.52857 0.52633 0.10429 0.0
O65 O 0.53217 0.50652 0.12674 0.0
O66 O 0.47782 0.47093 0.15327 0.0
O67 O 0.48146 0.44959 0.25202 0.0
H68 H 0.39131 0.45236 0.0666 0.0
H69 H 0.56041 0.52275 0.28944 0.0
O70 O 0.52944 0.50568 0.39936 0.0
H71 H 0.55779 0.43991 0.20062 0.0
H72 H 0.53906 0.43436 0.50427 0.0
H73 H 0.45936 0.42558 0.37397 0.0
H74 H 0.51809 0.43746 0.26178 0.0
H75 H 0.54365 0.4698 0.41874 0.0
O76 O 0.5079 0.52746 0.12578 0.0
H77 H 0.42743 0.45772 0.15099 0.0
H78 H 0.47212 0.54183 0.10614 0.0
H79 H 0.45385 0.38946 0.45813 0.0
H80 H 0.60067 0.52608 0.22939 0.0
H81 H 0.4939 0.39379 0.52429 0.0
H82 H 0.59949 0.48446 0.18425 0.0
O83 O 0.47293 0.47599 0.37166 0.0
H84 H 0.52883 0.59869 0.29614 0.0
H85 H 0.43975 0.51666 0.26275 0.0
H86 H 0.44254 0.55649 0.32386 0.0
H87 H 0.48732 0.59791 0.34073 0.0
H88 H 0.52517 0.55831 0.23612 0.0
H89 H 0.43668 0.53739 0.02044 0.0
H90 H 0.39588 0.4924 1.00036 0.0
O91 O 0.45156 0.47984 0.27319 0.0
C92 C 0.47511 0.44984 0.18497 0.0
C93 C 0.40893 0.4721 0.07513 0.0
C94 C 0.43441 0.51981 0.04916 0.0
N95 N 0.45166 0.50011 0.13431 0.0
C96 C 0.42937 0.47527 0.12318 0.0
C97 C 0.45443 0.52221 0.09769 0.0
C98 C 0.41152 0.49456 0.03793 0.0
C99 C 0.55983 0.50451 0.2707 0.0
N100 N 0.53696 0.47993 0.27941 0.0
C101 C 0.58266 0.50654 0.23642 0.0
C102 C 0.58196 0.48319 0.21099 0.0
C103 C 0.55856 0.45819 0.22009 0.0
C104 C 0.53611 0.45694 0.25456 0.0
C105 C 0.52147 0.43219 0.47559 0.0
C106 C 0.47692 0.42741 0.40168 0.0
C107 C 0.52395 0.45221 0.42715 0.0
N108 N 0.50184 0.44957 0.39059 0.0
C109 C 0.47366 0.40697 0.44963 0.0
C110 C 0.49613 0.40943 0.48678 0.0
C111 C 0.45184 0.47356 0.34033 0.0
C112 C 0.5092 0.58079 0.28889 0.0
C113 C 0.45933 0.53456 0.27018 0.0
C114 C 0.46077 0.55708 0.30463 0.0
C115 C 0.4859 0.58033 0.31401 0.0
N116 N 0.48227 0.53518 0.24561 0.0
C117 C 0.50698 0.5579 0.25462 0.0
Co118 Co 0.63275 0.04012 0.2045 0.0
Co119 Co 0.65898 0.09361 0.32415 0.0
O120 O 0.62961 0.06663 0.26431 0.0
C121 C 0.61078 0.06555 0.10574 0.0
O122 O 0.63092 0.08893 0.12736 0.0
C123 C 0.61222 0.06622 0.42325 0.0
O124 O 0.61055 0.04365 0.40044 0.0
O125 O 0.66384 0.06508 0.37146 0.0
O126 O 0.65607 0.03571 0.28006 0.0
H127 H 0.75028 0.13741 0.44537 0.0
H128 H 0.57831 0.03195 0.2389 0.0
O129 O 0.60912 0.04372 0.12892 0.0
H130 H 0.57847 0.95163 0.33683 0.0
H131 H 0.59783 0.9615 0.02976 0.0
H132 H 0.67774 0.03099 0.16277 0.0
H133 H 0.61857 0.98725 0.27308 0.0
H134 H 0.59397 0.9936 0.11239 0.0
O135 O 0.63144 0.08878 0.4003 0.0
H136 H 0.71406 0.1049 0.36392 0.0
H137 H 0.66496 0.13885 0.4187 0.0
H138 H 0.68249 0.99914 0.08123 0.0
H139 H 0.53768 0.99665 0.30144 0.0
H140 H 0.64235 0.96416 0.01377 0.0
H141 H 0.53764 0.9562 0.35128 0.0
O142 O 0.66555 0.06936 0.15657 0.0
H143 H 0.60485 0.13456 0.2289 0.0
H144 H 0.69642 0.14702 0.25646 0.0
H145 H 0.69061 0.18202 0.19387 0.0
H146 H 0.64456 0.17591 0.17982 0.0
H147 H 0.61155 0.09996 0.29058 0.0
H148 H 0.70058 0.17162 0.50119 0.0
H149 H 0.7436 0.17101 0.51495 0.0
O150 O 0.68686 0.09895 0.24793 0.0
C151 C 0.66423 0.04465 0.34479 0.0
C152 C 0.73167 0.13795 0.43964 0.0
C153 C 0.70375 0.15712 0.47104 0.0
N154 N 0.68756 0.12017 0.38604 0.0
C155 C 0.71114 0.11967 0.39337 0.0
C156 C 0.68366 0.13852 0.4243 0.0
C157 C 0.72789 0.15678 0.47871 0.0
C158 C 0.57834 0.01425 0.25955 0.0
N159 N 0.60076 0.01162 0.25199 0.0
C160 C 0.55531 0.99438 0.29521 0.0
C161 C 0.55532 0.97171 0.32328 0.0
C162 C 0.57824 0.96915 0.31529 0.0
C163 C 0.60091 0.98943 0.2793 0.0
C164 C 0.61546 0.97663 0.0589 0.0
C165 C 0.66014 0.01564 0.13415 0.0
C166 C 0.6134 0.99489 0.10564 0.0
N167 N 0.63558 0.01404 0.14262 0.0
C168 C 0.66296 0.99773 0.08787 0.0
C169 C 0.64044 0.97812 0.04999 0.0
C170 C 0.6862 0.09005 0.18318 0.0
C171 C 0.62502 0.1375 0.23491 0.0
C172 C 0.67631 0.14419 0.25044 0.0
C173 C 0.67315 0.1641 0.21508 0.0
C174 C 0.64731 0.16067 0.20727 0.0
N175 N 0.65436 0.12152 0.27742 0.0
C176 C 0.62896 0.11803 0.27009 0.0
Co177 Co 0.04501 0.4793 0.82169 0.0
Co178 Co 0.09846 0.505 0.70213 0.0
O179 O 0.07204 0.50846 0.76164 0.0
C180 C 0.07226 0.52635 0.9202 0.0
O181 O 0.09496 0.52812 0.89792 0.0
C182 C 0.07317 0.52683 0.60256 0.0
O183 O 0.04974 0.50684 0.62433 0.0
O184 O 0.06903 0.47226 0.65435 0.0
O185 O 0.03967 0.45122 0.74611 0.0
H186 H 0.13882 0.45456 0.57963 0.0
H187 H 0.03861 0.52652 0.78667 0.0
O188 O 0.04975 0.50698 0.89723 0.0
H189 H 0.95645 0.44721 0.69051 0.0
H190 H 0.96682 0.43817 0.998 0.0
H191 H 0.03378 0.42444 0.86264 0.0
H192 H 0.99152 0.44164 0.75396 0.0
H193 H 0.99965 0.47353 0.91541 0.0
O194 O 0.09501 0.52853 0.62617 0.0
H195 H 0.10718 0.45973 0.66095 0.0
H196 H 0.14515 0.54334 0.61013 0.0
H197 H 1.0012 0.38847 0.9442 0.0
H198 H 1.00395 0.53298 0.7241 0.0
H199 H 0.96748 0.39527 0.01281 0.0
H200 H 0.96255 0.49315 0.6753 0.0
O201 O 0.07363 0.47464 0.86966 0.0
H202 H 0.14263 0.60021 0.79793 0.0
H203 H 0.1513 0.51894 0.77121 0.0
H204 H 0.1872 0.55902 0.83465 0.0
H205 H 0.18299 0.60005 0.84827 0.0
H206 H 0.10705 0.55959 0.73574 0.0
H207 H 0.17707 0.53906 0.52772 0.0
H208 H 0.174 0.4944 0.51205 0.0
O209 O 0.10268 0.48173 0.77796 0.0
C210 C 0.04839 0.45171 0.68127 0.0
C211 C 0.14041 0.47414 0.58613 0.0
C212 C 0.16185 0.52156 0.55692 0.0
N213 N 0.12443 0.50185 0.64057 0.0
C214 C 0.12261 0.47721 0.6323 0.0
C215 C 0.14369 0.52386 0.60354 0.0
C216 C 0.16013 0.4965 0.54818 0.0
C217 C 0.02052 0.50906 0.7663 0.0
N218 N 0.01704 0.48373 0.77427 0.0
C219 C 1.00101 0.51286 0.73062 0.0
C220 C 0.97781 0.4905 0.70314 0.0
C221 C 0.97439 0.46472 0.7116 0.0
C222 C 0.99435 0.4617 0.74744 0.0
C223 C 0.98137 0.43494 0.96828 0.0
C224 C 0.01896 0.42742 0.89168 0.0
C225 C 1.00001 0.45489 0.92149 0.0
N226 N 0.01843 0.45093 0.88376 0.0
C227 C 1.00064 0.40703 0.93801 0.0
C228 C 0.98175 0.41087 0.97654 0.0
C229 C 0.09388 0.4739 0.84288 0.0
C230 C 0.14475 0.5825 0.79207 0.0
C231 C 0.14929 0.53668 0.77709 0.0
C232 C 0.16971 0.55934 0.8129 0.0
C233 C 0.16736 0.58237 0.82043 0.0
N234 N 0.12714 0.53695 0.74951 0.0
C235 C 0.12472 0.55947 0.75662 0.0
Co236 Co 0.63285 0.65682 0.70237 0.0
Co237 Co 0.65966 0.6314 0.8258 0.0
O238 O 0.63012 0.62806 0.76503 0.0
C239 C 0.61244 0.60902 0.60671 0.0
O240 O 0.63307 0.60696 0.63032 0.0
C241 C 0.61251 0.61177 0.92405 0.0
O242 O 0.61032 0.63226 0.90021 0.0
O243 O 0.66402 0.66509 0.87057 0.0
O244 O 0.65599 0.68541 0.77632 0.0
H245 H 0.75106 0.68071 0.94612 0.0
H246 H 0.57868 0.61054 0.7384 0.0
O247 O 0.6096 0.6287 0.62824 0.0
H248 H 0.57777 0.6914 0.82938 0.0
H249 H 0.59652 0.69788 0.52353 0.0
H250 H 0.67754 0.71004 0.65401 0.0
H251 H 0.61806 0.69571 0.76684 0.0
H252 H 0.59342 0.66299 0.60894 0.0
O253 O 0.63223 0.60898 0.90242 0.0
H254 H 0.71447 0.67596 0.86444 0.0
H255 H 0.66632 0.5933 0.92322 0.0
H256 H 0.68154 0.74557 0.56977 0.0
H257 H 0.53787 0.60535 0.79986 0.0
H258 H 0.64082 0.73955 0.50362 0.0
H259 H 0.5373 0.64595 0.84619 0.0
O260 O 0.66589 0.66037 0.65582 0.0
H261 H 0.6066 0.53566 0.73451 0.0
H262 H 0.69767 0.61557 0.76051 0.0
H263 H 0.69242 0.57464 0.69969 0.0
H264 H 0.64662 0.53432 0.68635 0.0
H265 H 0.61272 0.57707 0.7943 0.0
H266 H 0.7023 0.5972 1.00603 0.0
H267 H 0.74505 0.64115 0.01779 0.0
O268 O 0.68745 0.65353 0.74912 0.0
C269 C 0.66455 0.68563 0.84125 0.0
C270 C 0.73257 0.66143 0.94127 0.0
C271 C 0.70518 0.61456 0.97496 0.0
N272 N 0.68841 0.63432 0.88859 0.0
C273 C 0.71183 0.65859 0.8949 0.0
C274 C 0.68488 0.61248 0.92806 0.0
C275 C 0.72917 0.63923 0.98152 0.0
C276 C 0.57846 0.62835 0.75751 0.0
N277 N 0.60068 0.65341 0.74868 0.0
C278 C 0.55534 0.62527 0.79257 0.0
C279 C 0.55505 0.64806 0.81869 0.0
C280 C 0.57777 0.67355 0.80937 0.0
C281 C 0.60055 0.67586 0.77408 0.0
C282 C 0.61437 0.70081 0.55235 0.0
C283 C 0.65967 0.7075 0.62635 0.0
C284 C 0.61273 0.68115 0.60082 0.0
N285 N 0.63518 0.68477 0.63757 0.0
C286 C 0.66208 0.7276 0.57834 0.0
C287 C 0.63924 0.72419 0.54119 0.0
C288 C 0.6867 0.66097 0.68354 0.0
C289 C 0.62667 0.55306 0.74029 0.0
C290 C 0.67767 0.59811 0.7549 0.0
C291 C 0.67483 0.57497 0.72053 0.0
C292 C 0.64913 0.55234 0.71314 0.0
N293 N 0.65554 0.59868 0.78126 0.0
C294 C 0.63028 0.57653 0.77441 0.0
Co295 Co 0.50603 0.09232 0.82737 0.0
Co296 Co 0.48024 0.04036 0.70337 0.0
O297 O 0.50924 0.06614 0.76617 0.0
C298 C 0.52562 0.06469 0.92504 0.0
O299 O 0.50498 0.04209 0.90116 0.0
C300 C 0.52853 0.06639 0.6078 0.0
O301 O 0.53175 0.08967 0.63022 0.0
O302 O 0.47754 0.07023 0.65649 0.0
O303 O 0.48376 0.09801 0.7509 0.0
H304 H 0.39168 1.00189 0.56921 0.0
H305 H 0.56036 0.09975 0.79535 0.0
O306 O 0.52855 0.08725 0.90365 0.0
H307 H 0.56286 0.18209 0.70328 0.0
H308 H 0.54054 0.16893 1.00866 0.0
H309 H 0.46152 0.10259 0.86645 0.0
H310 H 0.52182 0.14618 0.76301 0.0
H311 H 0.54432 0.13695 0.92526 0.0
O312 O 0.50819 0.04445 0.62977 0.0
H313 H 0.42751 0.033 0.65378 0.0
H314 H 0.47283 0.99397 0.61129 0.0
H315 H 0.45688 0.13432 0.94872 0.0
H316 H 0.60188 0.13526 0.73656 0.0
H317 H 0.49658 0.16773 0.02072 0.0
H318 H 0.60327 0.17675 0.68981 0.0
O319 O 0.47237 0.063 0.87219 0.0
H320 H 0.53011 0.99529 0.80147 0.0
H321 H 0.44047 0.98704 0.76798 0.0
H322 H 0.4439 0.95064 0.83063 0.0
H323 H 0.48897 0.95463 0.84762 0.0
H324 H 0.52582 0.03138 0.74007 0.0
H325 H 0.43767 0.96261 0.52552 0.0
H326 H 0.39669 0.96642 0.50414 0.0
O327 O 0.45168 0.03546 0.77671 0.0
C328 C 0.47667 0.09019 0.68482 0.0
C329 C 0.40936 0.99991 0.57833 0.0
C330 C 0.43519 0.97789 0.55376 0.0
N331 N 0.45201 0.01501 0.63839 0.0
C332 C 0.42964 0.01738 0.62649 0.0
C333 C 0.45504 0.99571 0.60237 0.0
C334 C 0.4122 0.98004 0.5418 0.0
C335 C 0.5609 0.11788 0.7759 0.0
N336 N 0.53873 0.12094 0.78294 0.0
C337 C 0.58443 0.13786 0.74234 0.0
C338 C 0.58518 0.16111 0.716 0.0
C339 C 0.56251 0.16411 0.7235 0.0
C340 C 0.53931 0.14368 0.75723 0.0
C341 C 0.52312 0.1545 0.97745 0.0
C342 C 0.47894 0.11726 0.89704 0.0
C343 C 0.52513 0.13633 0.93022 0.0
N344 N 0.50322 0.1181 0.89058 0.0
C345 C 0.47617 0.1351 0.94374 0.0
C346 C 0.49845 0.15383 0.98418 0.0
C347 C 0.45161 0.0434 0.84221 0.0
C348 C 0.51035 0.99327 0.79412 0.0
C349 C 0.46017 0.98898 0.7754 0.0
C350 C 0.46197 0.96826 0.81071 0.0
C351 C 0.48726 0.97049 0.82013 0.0
N352 N 0.48291 0.01128 0.7501 0.0
C353 C 0.50777 0.01359 0.75909 0.0
Co354 Co 0.71132 0.96499 0.66274 0.0
Co355 Co 0.76205 0.9898 0.53524 0.0
O356 O 0.73657 0.96119 0.59924 0.0
C357 C 0.73908 0.94471 0.75773 0.0
O358 O 0.76172 0.96499 0.7328 0.0
C359 C 0.73395 0.94149 0.44128 0.0
O360 O 0.71137 0.93938 0.46601 0.0
O361 O 0.73206 0.99316 0.49091 0.0
O362 O 0.7055 0.98761 0.5878 0.0
H363 H 0.80125 0.07835 0.40189 0.0
H364 H 0.70238 0.91022 0.62964 0.0
O365 O 0.71652 0.9422 0.73768 0.0
H366 H 0.62031 0.90967 0.54219 0.0
H367 H 0.63547 0.93141 0.84612 0.0
H368 H 0.70372 0.01051 0.70884 0.0
H369 H 0.65719 0.95027 0.60127 0.0
H370 H 0.66641 0.927 0.76012 0.0
O371 O 0.75658 0.96145 0.4612 0.0
H372 H 0.7702 0.04289 0.48708 0.0
H373 H 0.80687 0.99577 0.43883 0.0
H374 H 0.67302 0.01581 0.79356 0.0
H375 H 0.66585 0.86908 0.5717 0.0
H376 H 0.63862 0.97606 0.86309 0.0
H377 H 0.62452 0.86869 0.52713 0.0
O378 O 0.74155 0.99836 0.70634 0.0
H379 H 0.80651 0.93879 0.62919 0.0
H380 H 0.8163 0.02897 0.59655 0.0
H381 H 0.85283 0.02492 0.6567 0.0
H382 H 0.84805 0.97957 0.67333 0.0
H383 H 0.77033 0.9437 0.57014 0.0
H384 H 0.83815 0.03057 0.35239 0.0
H385 H 0.8355 0.07226 0.33368 0.0
O386 O 0.76816 0.01866 0.60913 0.0
C387 C 0.71281 0.99479 0.52148 0.0
C388 C 0.80274 0.06037 0.40993 0.0
C389 C 0.82342 0.03353 0.3821 0.0
N390 N 0.78711 0.01758 0.46908 0.0
C391 C 0.78533 0.04031 0.45846 0.0
C392 C 0.80568 0.01391 0.43115 0.0
C393 C 0.82192 0.05692 0.37162 0.0
C394 C 0.6843 0.91009 0.61132 0.0
N395 N 0.68187 0.93258 0.6192 0.0
C396 C 0.66373 0.88677 0.57824 0.0
C397 C 0.64057 0.88659 0.5531 0.0
C398 C 0.63822 0.90958 0.56145 0.0
C399 C 0.6592 0.93254 0.59477 0.0
C400 C 0.65027 0.94885 0.81583 0.0
C401 C 0.68853 0.99306 0.73803 0.0
C402 C 0.66782 0.94647 0.76704 0.0
N403 N 0.68648 0.96838 0.72842 0.0
C404 C 0.67132 0.99621 0.78629 0.0
C405 C 0.65205 0.97391 0.82534 0.0
C406 C 0.76091 0.01895 0.67529 0.0
C407 C 0.80887 0.95867 0.62197 0.0
C408 C 0.81404 0.00915 0.60371 0.0
C409 C 0.83483 0.007 0.63764 0.0
C410 C 0.83216 0.98156 0.64686 0.0
N411 N 0.79125 0.9866 0.57953 0.0
C412 C 0.78851 0.96159 0.58825 0.0
Co413 Co 0.1733 0.81144 0.6601 0.0
Co414 Co 0.14745 0.83796 0.53745 0.0
O415 O 0.17643 0.84102 0.60005 0.0
C416 C 0.19243 0.85816 0.75956 0.0
O417 O 0.17174 0.86008 0.73582 0.0
C418 C 0.19587 0.86072 0.44229 0.0
O419 O 0.19923 0.8407 0.46411 0.0
O420 O 0.14495 0.80564 0.48936 0.0
O421 O 0.15125 0.7838 0.58273 0.0
H422 H 0.05909 0.78813 0.40222 0.0
H423 H 0.22757 0.85858 0.62953 0.0
O424 O 0.19558 0.83873 0.73731 0.0
H425 H 0.23067 0.77936 0.53432 0.0
H426 H 0.20785 0.76895 0.83969 0.0
H427 H 0.12892 0.75646 0.69738 0.0
H428 H 0.18945 0.77383 0.59412 0.0
H429 H 0.21158 0.80491 0.75747 0.0
O430 O 0.17542 0.86212 0.46441 0.0
H431 H 0.09486 0.79268 0.48677 0.0
H432 H 0.13989 0.87715 0.44697 0.0
H433 H 0.12435 0.7199 0.77844 0.0
H434 H 0.26927 0.86499 0.57069 0.0
H435 H 0.16399 0.72608 0.85051 0.0
H436 H 0.27097 0.82521 0.52237 0.0
O437 O 0.1395 0.80676 0.70503 0.0
H438 H 0.19688 0.9325 0.63834 0.0
H439 H 0.10745 0.85111 0.60299 0.0
H440 H 0.11063 0.89065 0.6669 0.0
H441 H 0.1556 0.93174 0.68482 0.0
H442 H 0.19283 0.89239 0.57569 0.0
H443 H 0.10478 0.87351 0.36128 0.0
H444 H 0.06399 0.82874 0.33853 0.0
O445 O 0.11886 0.814 0.61021 0.0
C446 C 0.14415 0.78474 0.51682 0.0
C447 C 0.0767 0.80777 0.41193 0.0
C448 C 0.10236 0.85568 0.3889 0.0
N449 N 0.11922 0.83521 0.47268 0.0
C450 C 0.09694 0.81049 0.46006 0.0
C451 C 0.12218 0.85762 0.43746 0.0
C452 C 0.07947 0.83056 0.37617 0.0
C453 C 0.22824 0.84113 0.60938 0.0
N454 N 0.20614 0.81585 0.61558 0.0
C455 C 0.25188 0.8449 0.57581 0.0
C456 C 0.2528 0.82258 0.54858 0.0
C457 C 0.23019 0.79685 0.55522 0.0
C458 C 0.20689 0.79385 0.589 0.0
C459 C 0.19045 0.766 0.80845 0.0
C460 C 0.14633 0.75918 0.72797 0.0
C461 C 0.19244 0.78629 0.76188 0.0
N462 N 0.17055 0.78267 0.7222 0.0
C463 C 0.14359 0.73845 0.774 0.0
C464 C 0.16584 0.74194 0.81447 0.0
C465 C 0.11875 0.80571 0.67533 0.0
C466 C 0.17716 0.91476 0.63059 0.0
C467 C 0.1271 0.86887 0.61082 0.0
C468 C 0.12877 0.89123 0.64685 0.0
C469 C 0.15399 0.9143 0.65679 0.0
N470 N 0.14993 0.86947 0.58533 0.0
C471 C 0.17473 0.89202 0.59486 0.0
Co472 Co 0.32585 0.4275 0.65666 0.0
Co473 Co 0.29957 0.37372 0.53781 0.0
O474 O 0.29649 0.40039 0.59705 0.0
C475 C 0.27899 0.40025 0.75576 0.0
O476 O 0.27731 0.37762 0.73347 0.0
C477 C 0.2782 0.39931 0.43797 0.0
O478 O 0.29842 0.42263 0.4597 0.0
O479 O 0.33251 0.40275 0.48999 0.0
O480 O 0.3537 0.43281 0.58038 0.0
H481 H 0.34915 0.3324 0.41548 0.0
H482 H 0.27832 0.43364 0.62266 0.0
O483 O 0.2983 0.42276 0.73275 0.0
H484 H 0.35726 0.51572 0.52557 0.0
H485 H 0.36743 0.50582 0.83273 0.0
H486 H 0.38099 0.43898 0.69632 0.0
H487 H 0.36319 0.48086 0.58857 0.0
H488 H 0.33177 0.47283 0.75072 0.0
O489 O 0.27621 0.37741 0.4617 0.0
H490 H 0.34446 0.36432 0.49683 0.0
H491 H 0.26074 0.32714 0.44602 0.0
H492 H 0.41727 0.47172 0.77727 0.0
H493 H 0.2715 0.46809 0.56055 0.0
H494 H 0.41054 0.50537 0.84641 0.0
H495 H 0.31115 0.50945 0.51129 0.0
O496 O 0.33081 0.39905 0.70438 0.0
H497 H 0.20443 0.33091 0.63395 0.0
H498 H 0.28502 0.32089 0.60723 0.0
H499 H 0.24477 0.28555 0.67114 0.0
H500 H 0.20409 0.29044 0.68479 0.0
H501 H 0.24521 0.36592 0.57123 0.0
H502 H 0.26453 0.29492 0.36367 0.0
H503 H 0.30901 0.29747 0.34793 0.0
O504 O 0.32267 0.3693 0.61377 0.0
C505 C 0.3531 0.42364 0.51599 0.0
C506 C 0.32965 0.33104 0.42202 0.0
C507 C 0.28216 0.31003 0.39286 0.0
N508 N 0.30232 0.34747 0.47648 0.0
C509 C 0.32685 0.34899 0.4682 0.0
C510 C 0.28014 0.32834 0.43946 0.0
C511 C 0.30712 0.31146 0.38409 0.0
C512 C 0.2957 0.45172 0.60209 0.0
N513 N 0.32113 0.45529 0.60957 0.0
C514 C 0.2917 0.4711 0.56667 0.0
C515 C 0.31395 0.49428 0.53892 0.0
C516 C 0.33983 0.4978 0.54687 0.0
C517 C 0.34305 0.47796 0.58247 0.0
C518 C 0.37062 0.49129 0.80277 0.0
C519 C 0.37805 0.45377 0.72559 0.0
C520 C 0.3505 0.47256 0.75632 0.0
N521 N 0.35442 0.45419 0.71829 0.0
C522 C 0.39861 0.47218 0.77158 0.0
C523 C 0.39481 0.49104 0.8104 0.0
C524 C 0.33105 0.37847 0.67817 0.0
C525 C 0.22199 0.3285 0.62807 0.0
C526 C 0.26742 0.3232 0.61307 0.0
C527 C 0.24466 0.30308 0.64916 0.0
C528 C 0.22183 0.30582 0.65671 0.0
N529 N 0.26743 0.3454 0.58522 0.0
C530 C 0.2451 0.3482 0.59231 0.0
Co531 Co 0.70978 0.81089 0.15831 0.0
Co532 Co 0.76318 0.8379 0.03912 0.0
O533 O 0.73638 0.84065 0.0989 0.0
C534 C 0.73493 0.85798 0.25798 0.0
O535 O 0.75837 0.8613 0.23658 0.0
C536 C 0.73785 0.85997 0.94025 0.0
O537 O 0.7144 0.83981 0.96126 0.0
O538 O 0.73405 0.80529 0.99004 0.0
O539 O 0.70567 0.78326 0.08279 0.0
H540 H 0.80464 0.78888 0.9144 0.0
H541 H 0.70131 0.85686 0.12355 0.0
O542 O 0.7131 0.83796 0.23394 0.0
H543 H 0.62113 0.77604 0.02527 0.0
H544 H 0.63082 0.76674 0.33169 0.0
H545 H 0.7009 0.75693 0.20007 0.0
H546 H 0.65701 0.77193 0.08904 0.0
H547 H 0.66292 0.80277 0.24943 0.0
O548 O 0.75966 0.8617 0.96414 0.0
H549 H 0.77255 0.79322 0.99596 0.0
H550 H 0.80996 0.87706 0.94868 0.0
H551 H 0.66907 0.72028 0.28124 0.0
H552 H 0.66577 0.86184 0.06083 0.0
H553 H 0.6338 0.72513 0.34803 0.0
H554 H 0.62536 0.82124 1.01095 0.0
O555 O 0.73909 0.80758 0.20687 0.0
H556 H 0.80634 0.93251 0.13887 0.0
H557 H 0.81608 0.85198 0.10815 0.0
H558 H 0.85168 0.89194 0.1727 0.0
H559 H 0.84695 0.93259 0.1883 0.0
H560 H 0.77109 0.89203 0.07535 0.0
H561 H 0.84231 0.87362 0.86605 0.0
H562 H 0.83976 0.82926 0.84849 0.0
O563 O 0.76757 0.81438 0.11399 0.0
C564 C 0.71402 0.78426 0.01727 0.0
C565 C 0.806 0.80833 0.92171 0.0
C566 C 0.82712 0.85588 0.8945 0.0
N567 N 0.78948 0.83539 0.97732 0.0
C568 C 0.78795 0.81093 0.96801 0.0
C569 C 0.80872 0.85771 0.94122 0.0
C570 C 0.82568 0.83099 0.8847 0.0
C571 C 0.68365 0.83906 0.10271 0.0
N572 N 0.6812 0.81413 0.11024 0.0
C573 C 0.66365 0.84202 0.06695 0.0
C574 C 0.64101 0.81924 0.03885 0.0
C575 C 0.63863 0.79387 0.04681 0.0
C576 C 0.65905 0.79169 0.0828 0.0
C577 C 0.64608 0.76438 0.30286 0.0
C578 C 0.68543 0.75906 0.22838 0.0
C579 C 0.66434 0.78474 0.25634 0.0
N580 N 0.68366 0.78189 0.21975 0.0
C581 C 0.66752 0.73828 0.27446 0.0
C582 C 0.64775 0.74103 0.31196 0.0
C583 C 0.75926 0.80686 0.17944 0.0
C584 C 0.80868 0.91495 0.1322 0.0
C585 C 0.81382 0.86956 0.11493 0.0
C586 C 0.83409 0.89215 0.15137 0.0
C587 C 0.83143 0.91496 0.16004 0.0
N588 N 0.79156 0.8697 0.08775 0.0
C589 C 0.78884 0.89201 0.09597 0.0
Co590 Co 0.32634 0.96476 0.16092 0.0
Co591 Co 0.29939 0.99029 0.03854 0.0
O592 O 0.29661 0.96141 0.10077 0.0
C593 C 0.27958 0.9454 0.26012 0.0
O594 O 0.27752 0.96598 0.2365 0.0
C595 C 0.27694 0.94199 0.94273 0.0
O596 O 0.29708 0.93878 0.96463 0.0
O597 O 0.33192 0.99316 0.99052 0.0
O598 O 0.35392 0.98693 0.08377 0.0
H599 H 0.34864 0.07879 0.90497 0.0
H600 H 0.27937 0.91041 0.12988 0.0
O601 O 0.2991 0.94238 0.2379 0.0
H602 H 0.35901 0.90797 0.03466 0.0
H603 H 0.36935 0.93069 0.34033 0.0
H604 H 0.38126 0.00933 0.19867 0.0
H605 H 0.36426 0.94901 0.09481 0.0
H606 H 0.33323 0.92671 0.25795 0.0
O607 O 0.27537 0.96232 0.96505 0.0
H608 H 0.34441 0.04309 0.9889 0.0
H609 H 0.25989 0.99747 0.94803 0.0
H610 H 0.41798 0.01417 0.27994 0.0
H611 H 0.27324 0.86889 0.07069 0.0
H612 H 0.41209 0.97467 0.35168 0.0
H613 H 0.31323 0.86753 0.02236 0.0
O614 O 0.3308 0.99841 0.20617 0.0
H615 H 0.20475 0.94006 0.13873 0.0
H616 H 0.28569 0.02981 0.10452 0.0
H617 H 0.24591 0.02615 0.16837 0.0
H618 H 0.20505 0.98103 0.18571 0.0
H619 H 0.24509 0.94458 0.07614 0.0
H620 H 0.2632 0.0325 0.86294 0.0
H621 H 0.30783 0.07356 0.84107 0.0
O622 O 0.32316 0.01886 0.11179 0.0
C623 C 0.35291 0.99406 0.01797 0.0
C624 C 0.32905 0.06106 0.91428 0.0
C625 C 0.28111 0.03507 0.89065 0.0
N626 N 0.30188 0.01842 0.97418 0.0
C627 C 0.32652 0.04085 0.96203 0.0
C628 C 0.27936 0.01529 0.93885 0.0
C629 C 0.30616 0.0581 0.87841 0.0
C630 C 0.29691 0.90988 0.10973 0.0
N631 N 0.32215 0.93207 0.11612 0.0
C632 C 0.2933 0.88635 0.07595 0.0
C633 C 0.31574 0.88562 0.04873 0.0
C634 C 0.34142 0.90831 0.05556 0.0
C635 C 0.34427 0.93151 0.08954 0.0
C636 C 0.37218 0.94803 0.30923 0.0
C637 C 0.37868 0.99199 0.22912 0.0
C638 C 0.3518 0.9459 0.26257 0.0
N639 N 0.35526 0.96771 0.22308 0.0
C640 C 0.39949 0.99487 0.27526 0.0
C641 C 0.39616 0.97271 0.31556 0.0
C642 C 0.33155 0.01903 0.17688 0.0
C643 C 0.22239 0.95984 0.13122 0.0
C644 C 0.26803 0.01009 0.11209 0.0
C645 C 0.24553 0.00815 0.14809 0.0
C646 C 0.22259 0.98283 0.1577 0.0
N647 N 0.26768 0.98744 0.08632 0.0
C648 C 0.24525 0.96255 0.09552 0.0
Co649 Co 0.17412 0.42691 0.15893 0.0
Co650 Co 0.14704 0.37495 0.03495 0.0
O651 O 0.17672 0.4008 0.09601 0.0
C652 C 0.19423 0.39917 0.25409 0.0
O653 O 0.17343 0.37664 0.23049 0.0
C654 C 0.19476 0.40091 0.93713 0.0
O655 O 0.19818 0.42423 0.95994 0.0
O656 O 0.1438 0.4048 0.98961 0.0
O657 O 0.1511 0.43257 0.08494 0.0
H658 H 0.05634 0.33524 0.91155 0.0
H659 H 0.22821 0.43451 0.12262 0.0
O660 O 0.19727 0.42179 0.2329 0.0
H661 H 0.22966 0.51676 0.03415 0.0
H662 H 0.21059 0.50403 0.33898 0.0
H663 H 0.12961 0.43587 0.20693 0.0
H664 H 0.18917 0.48072 0.09553 0.0
H665 H 0.21359 0.4722 0.25325 0.0
O666 O 0.17434 0.37902 0.95909 0.0
H667 H 0.09303 0.36643 0.99402 0.0
H668 H 0.13916 0.32921 0.93936 0.0
H669 H 0.12572 0.46746 0.29146 0.0
H670 H 0.2692 0.47017 0.06215 0.0
H671 H 0.16642 0.50181 0.35839 0.0
H672 H 0.27007 0.51162 0.01723 0.0
O673 O 0.14101 0.39755 0.20531 0.0
H674 H 0.19797 0.33019 0.1275 0.0
H675 H 0.10793 0.32156 0.1004 0.0
H676 H 0.11202 0.28529 0.16156 0.0
H677 H 0.15729 0.28949 0.1754 0.0
H678 H 0.19303 0.36613 0.06755 0.0
H679 H 0.1031 0.29778 0.85575 0.0
H680 H 0.06131 0.30067 0.8415 0.0
O681 O 0.11919 0.37002 0.11075 0.0
C682 C 0.14307 0.42466 0.01937 0.0
C683 C 0.07442 0.33373 0.91742 0.0
C684 C 0.10068 0.31273 0.88603 0.0
N685 N 0.11813 0.34953 0.9718 0.0
C686 C 0.09522 0.35128 0.96422 0.0
C687 C 0.12106 0.33062 0.93333 0.0
C688 C 0.07723 0.31436 0.87809 0.0
C689 C 0.22853 0.45262 0.10394 0.0
N690 N 0.20637 0.45558 0.11291 0.0
C691 C 0.25176 0.47269 0.06943 0.0
C692 C 0.25221 0.49592 0.04412 0.0
C693 C 0.22953 0.4988 0.05354 0.0
C694 C 0.20664 0.47829 0.08817 0.0
C695 C 0.19275 0.48926 0.30983 0.0
C696 C 0.14748 0.45104 0.23494 0.0
C697 C 0.19433 0.47121 0.26119 0.0
N698 N 0.17189 0.45257 0.22402 0.0
C699 C 0.14512 0.46876 0.28311 0.0
C700 C 0.16796 0.488 0.3207 0.0
C701 C 0.12 0.37783 0.17682 0.0
C702 C 0.17812 0.32808 0.12152 0.0
C703 C 0.12771 0.32357 0.10633 0.0
C704 C 0.12989 0.30293 0.14085 0.0
C705 C 0.15529 0.30527 0.14852 0.0
N706 N 0.15021 0.34591 0.08012 0.0
C707 C 0.17517 0.34832 0.0873 0.0
Co708 Co 0.42813 0.32299 0.87174 0.0
Co709 Co 0.37536 0.29597 0.99361 0.0
O710 O 0.40178 0.29348 0.93188 0.0
C711 C 0.40094 0.27588 0.77314 0.0
O712 O 0.37817 0.27371 0.79637 0.0
C713 C 0.4031 0.27633 0.09041 0.0
O714 O 0.42564 0.29716 0.06708 0.0
O715 O 0.40441 0.32922 0.04035 0.0
O716 O 0.43347 0.3507 0.94851 0.0
H717 H 0.3342 0.34396 0.12533 0.0
H718 H 0.43556 0.27613 0.90356 0.0
O719 O 0.4234 0.29561 0.79511 0.0
H720 H 0.51735 0.35576 1.00003 0.0
H721 H 0.50553 0.36566 0.69327 0.0
H722 H 0.43845 0.37776 0.83335 0.0
H723 H 0.48175 0.36096 0.93838 0.0
H724 H 0.47324 0.3297 0.77541 0.0
O725 O 0.38044 0.27306 0.06834 0.0
H726 H 0.36612 0.34029 0.04164 0.0
H727 H 0.32962 0.25632 0.08592 0.0
H728 H 0.4705 0.41433 0.75233 0.0
H729 H 0.47078 0.27006 0.96414 0.0
H730 H 0.50428 0.40834 0.68136 0.0
H731 H 0.51197 0.31004 0.01323 0.0
O732 O 0.39889 0.32736 0.82617 0.0
H733 H 0.33311 0.20106 0.89639 0.0
H734 H 0.32175 0.28061 0.92744 0.0
H735 H 0.28627 0.24014 0.86428 0.0
H736 H 0.29184 0.19998 0.84847 0.0
H737 H 0.36823 0.24204 0.95845 0.0
H738 H 0.2974 0.25907 0.17071 0.0
H739 H 0.29956 0.30313 0.19079 0.0
O740 O 0.36986 0.31887 0.91917 0.0
C741 C 0.4247 0.35009 0.01337 0.0
C742 C 0.3329 0.3246 0.11663 0.0
C743 C 0.31228 0.27696 0.14216 0.0
N744 N 0.34933 0.29802 0.05761 0.0
C745 C 0.3508 0.32237 0.06887 0.0
C746 C 0.33054 0.27552 0.094 0.0
C747 C 0.3135 0.30169 0.15341 0.0
C748 C 0.45359 0.29368 0.92386 0.0
N749 N 0.45665 0.31889 0.91705 0.0
C750 C 0.47341 0.2901 0.95842 0.0
C751 C 0.49649 0.31253 0.98608 0.0
C752 C 0.4995 0.33818 0.97878 0.0
C753 C 0.47925 0.341 0.94394 0.0
C754 C 0.49094 0.36853 0.72401 0.0
C755 C 0.45328 0.37513 0.80322 0.0
C756 C 0.47259 0.34823 0.77053 0.0
N757 N 0.45415 0.35175 0.80956 0.0
C758 C 0.47131 0.39586 0.75722 0.0
C759 C 0.49024 0.39248 0.71738 0.0
C760 C 0.37866 0.32773 0.85478 0.0
C761 C 0.3304 0.21838 0.90326 0.0
C762 C 0.32434 0.26323 0.92065 0.0
C763 C 0.30415 0.24035 0.885 0.0
C764 C 0.30727 0.21781 0.87625 0.0
N765 N 0.34698 0.26364 0.94693 0.0
C766 C 0.35016 0.2416 0.93864 0.0
Co767 Co 0.8393 0.14537 0.99118 0.0
Co768 Co 0.81311 0.17143 0.86822 0.0
O769 O 0.84229 0.17478 0.93057 0.0
C770 C 0.85904 0.19244 0.08968 0.0
O771 O 0.83838 0.19451 0.06638 0.0
C772 C 0.86127 0.19409 0.77206 0.0
O773 O 0.8648 0.17421 0.7943 0.0
O774 O 0.81069 0.13906 0.82055 0.0
O775 O 0.81696 0.1175 0.91466 0.0
H776 H 0.72453 0.12093 0.73431 0.0
H777 H 0.8935 0.19231 0.95888 0.0
O778 O 0.86191 0.17284 0.06756 0.0
H779 H 0.89608 0.11266 0.86491 0.0
H780 H 0.87431 0.10317 0.17033 0.0
H781 H 0.79493 0.09058 0.03008 0.0
H782 H 0.85511 0.10743 0.92551 0.0
H783 H 0.87784 0.13898 0.08785 0.0
O784 O 0.84086 0.1955 0.79455 0.0
H785 H 0.76056 0.12587 0.81845 0.0
H786 H 0.8051 0.21027 0.77751 0.0
H787 H 0.79055 0.05416 0.11143 0.0
H788 H 0.93497 0.19842 0.89923 0.0
H789 H 0.83042 0.06038 0.18243 0.0
H790 H 0.9364 0.15842 0.85152 0.0
O791 O 0.80568 0.14096 0.03675 0.0
H792 H 0.86241 0.26616 0.96783 0.0
H793 H 0.77308 0.18449 0.93397 0.0
H794 H 0.77621 0.22406 0.99762 0.0
H795 H 0.82113 0.26528 0.01481 0.0
H796 H 0.85841 0.22603 0.90541 0.0
H797 H 0.76974 0.20626 0.69218 0.0
H798 H 0.72906 0.16133 0.67023 0.0
O799 O 0.78472 0.14755 0.94156 0.0
C800 C 0.8099 0.11825 0.84861 0.0
C801 C 0.74209 0.14065 0.74368 0.0
C802 C 0.76747 0.18853 0.71998 0.0
N803 N 0.78469 0.16838 0.80376 0.0
C804 C 0.76247 0.14358 0.79158 0.0
C805 C 0.78744 0.19068 0.76833 0.0
C806 C 0.74465 0.16331 0.7077 0.0
C807 C 0.89407 0.17477 0.93901 0.0
N808 N 0.87195 0.14953 0.94601 0.0
C809 C 0.91756 0.17837 0.90497 0.0
C810 C 0.91834 0.15592 0.87809 0.0
C811 C 0.89571 0.13025 0.88554 0.0
C812 C 0.87255 0.12742 0.91977 0.0
C813 C 0.85681 0.1002 0.13955 0.0
C814 C 0.81244 0.09332 0.06024 0.0
C815 C 0.85868 0.12041 0.09285 0.0
N816 N 0.83667 0.11676 0.05374 0.0
C817 C 0.80981 0.07268 0.10643 0.0
C818 C 0.83218 0.07619 0.1463 0.0
C819 C 0.7848 0.13964 1.00702 0.0
C820 C 0.84271 0.24836 0.96041 0.0
C821 C 0.79271 0.20231 0.94146 0.0
C822 C 0.79435 0.22469 0.97735 0.0
C823 C 0.81955 0.24783 0.98688 0.0
N824 N 0.81553 0.20298 0.91571 0.0
C825 C 0.84031 0.22561 0.9248 0.0
Co826 Co 0.96621 0.7071 0.87183 0.0
Co827 Co 0.99323 0.76038 0.99153 0.0
O828 O 0.96345 0.73385 0.93177 0.0
C829 C 0.94425 0.7325 0.77301 0.0
O830 O 0.96452 0.75588 0.79413 0.0
C831 C 0.94596 0.73535 0.09067 0.0
O832 O 0.94258 0.7119 0.06929 0.0
O833 O 0.99647 0.73106 0.03996 0.0
O834 O 0.98976 0.70271 0.94674 0.0
H835 H 0.08387 0.80084 0.11553 0.0
H836 H 0.91199 0.69919 0.90768 0.0
O837 O 0.94242 0.71067 0.7968 0.0
H838 H 0.91205 0.61865 1.00432 0.0
H839 H 0.93048 0.6282 0.69782 0.0
H840 H 0.01095 0.69772 0.8289 0.0
H841 H 0.9521 0.65426 0.94038 0.0
H842 H 0.92702 0.66048 0.78067 0.0
O843 O 0.96609 0.7571 0.06691 0.0
H844 H 0.04721 0.76915 0.03379 0.0
H845 H 1.00139 0.80717 0.08299 0.0
H846 H 0.0153 0.6657 0.74713 0.0
H847 H 0.87142 0.66393 0.97058 0.0
H848 H 0.97488 0.63071 0.68063 0.0
H849 H 0.87132 0.62334 0.01964 0.0
O850 O 0.99887 0.73619 0.82311 0.0
H851 H 0.9424 0.80448 0.89376 0.0
H852 H 0.03234 0.81308 0.92292 0.0
H853 H 0.02834 0.84898 0.85932 0.0
H854 H 0.98312 0.84483 0.84452 0.0
H855 H 0.94727 0.76892 0.95632 0.0
H856 H 0.03743 0.83913 0.16581 0.0
H857 H 0.07904 0.83606 0.18253 0.0
O858 O 0.02094 0.76446 0.91622 0.0
C859 C 0.99726 0.71097 0.0123 0.0
C860 C 0.06587 0.80242 0.10858 0.0
C861 C 0.03979 0.82389 0.13688 0.0
N862 N 0.02226 0.78641 0.05335 0.0
C863 C 0.04509 0.7846 0.06218 0.0
C864 C 0.01942 0.80571 0.09004 0.0
C865 C 0.06313 0.82217 0.1462 0.0
C866 C 0.91201 0.68145 0.92816 0.0
N867 N 0.93435 0.67874 0.92008 0.0
C868 C 0.88901 0.66161 0.96403 0.0
C869 C 0.88899 0.63886 0.99166 0.0
C870 C 0.91185 0.63623 0.98314 0.0
C871 C 0.93449 0.6565 0.94706 0.0
C872 C 0.94823 0.64334 0.72653 0.0
C873 C 0.99322 0.68237 0.80071 0.0
C874 C 0.9464 0.6617 0.77339 0.0
N875 N 0.96873 0.68086 0.80983 0.0
C876 C 0.99582 0.66436 0.75429 0.0
C877 C 0.97315 0.64475 0.71695 0.0
C878 C 0.01994 0.75616 0.85061 0.0
C879 C 0.96222 0.80656 0.90008 0.0
C880 C 0.01258 0.81107 0.91647 0.0
C881 C 0.01045 0.83151 0.88058 0.0
C882 C 0.98507 0.82917 0.87235 0.0
N883 N 0.99007 0.78896 0.94356 0.0
C884 C 0.96513 0.78655 0.93576 0.0
Co885 Co 0.37776 0.14414 0.4961 0.0
Co886 Co 0.42963 0.17134 0.37267 0.0
O887 O 0.40349 0.174 0.4354 0.0
C888 C 0.403 0.19182 0.59427 0.0
O889 O 0.4265 0.19552 0.57204 0.0
C890 C 0.40343 0.19337 0.27699 0.0
O891 O 0.38016 0.17316 0.2989 0.0
O892 O 0.39994 0.13889 0.32469 0.0
O893 O 0.37337 0.11647 0.42007 0.0
H894 H 0.46888 0.12228 0.23736 0.0
H895 H 0.36806 0.18946 0.46295 0.0
O896 O 0.38127 0.17125 0.57196 0.0
H897 H 0.28764 0.10766 0.3698 0.0
H898 H 0.30054 0.09936 0.67469 0.0
H899 H 0.36998 0.09048 0.5367 0.0
H900 H 0.32455 0.10441 0.43037 0.0
H901 H 0.33163 0.13554 0.59123 0.0
O902 O 0.42545 0.19525 0.29962 0.0
H903 H 0.43746 0.12644 0.32191 0.0
H904 H 0.47613 0.21084 0.28188 0.0
H905 H 0.33915 0.05368 0.61901 0.0
H906 H 0.33148 0.19357 0.4035 0.0
H907 H 0.3042 0.05805 0.68897 0.0
H908 H 0.29095 0.15248 0.35618 0.0
O909 O 0.4079 0.14146 0.54208 0.0
H910 H 0.47416 0.2659 0.47316 0.0
H911 H 0.48306 0.18509 0.4375 0.0
H912 H 0.51942 0.22493 0.5006 0.0
H913 H 0.51512 0.26574 0.51862 0.0
H914 H 0.43815 0.22552 0.41109 0.0
H915 H 0.50779 0.2076 0.19611 0.0
H916 H 0.50431 0.16307 0.17352 0.0
O917 O 0.43465 0.14759 0.44541 0.0
C918 C 0.38067 0.11763 0.35332 0.0
C919 C 0.4707 0.14183 0.24701 0.0
C920 C 0.49252 0.1897 0.22381 0.0
N921 N 0.45524 0.16892 0.30773 0.0
C922 C 0.45306 0.14432 0.29516 0.0
C923 C 0.47453 0.19142 0.2724 0.0
C924 C 0.49056 0.16471 0.21116 0.0
C925 C 0.35036 0.17145 0.44325 0.0
N926 N 0.34841 0.14672 0.45044 0.0
C927 C 0.32976 0.17392 0.40931 0.0
C928 C 0.30705 0.15086 0.38267 0.0
C929 C 0.30519 0.12571 0.39024 0.0
C930 C 0.3262 0.12401 0.42441 0.0
C931 C 0.31567 0.0972 0.64446 0.0
C932 C 0.35466 0.09241 0.56642 0.0
C933 C 0.33337 0.11765 0.59725 0.0
N934 N 0.35251 0.11506 0.55888 0.0
C935 C 0.33732 0.07155 0.61314 0.0
C936 C 0.31772 0.07402 0.65241 0.0
C937 C 0.4273 0.14011 0.51149 0.0
C938 C 0.47631 0.24828 0.46542 0.0
C939 C 0.48098 0.20272 0.44544 0.0
C940 C 0.50167 0.22525 0.48101 0.0
C941 C 0.49926 0.24815 0.49103 0.0
N942 N 0.45854 0.20301 0.4204 0.0
C943 C 0.45604 0.2254 0.43 0.0
Co944 Co 0.96755 0.32457 0.3659 0.0
Co945 Co 0.99232 0.29839 0.4923 0.0
O946 O 0.96346 0.29537 0.42908 0.0
C947 C 0.94463 0.27611 0.27067 0.0
O948 O 0.9643 0.27235 0.29378 0.0
C949 C 0.94439 0.27835 0.58768 0.0
O950 O 0.94229 0.29886 0.56355 0.0
O951 O 0.996 0.33178 0.53725 0.0
O952 O 0.99122 0.35293 0.43981 0.0
H953 H 0.08162 0.34756 0.62345 0.0
H954 H 0.91243 0.27978 0.40112 0.0
O955 O 0.94362 0.29686 0.29181 0.0
H956 H 0.91487 0.36251 0.49006 0.0
H957 H 0.93441 0.36838 0.18618 0.0
H958 H 0.0138 0.37683 0.31757 0.0
H959 H 0.95465 0.36506 0.42908 0.0
H960 H 0.92954 0.33291 0.27199 0.0
O961 O 0.9642 0.27557 0.56683 0.0
H962 H 0.04583 0.3432 0.53925 0.0
H963 H 0.99847 0.25956 0.58808 0.0
H964 H 0.01958 0.41296 0.23301 0.0
H965 H 0.87209 0.27637 0.46084 0.0
H966 H 0.97969 0.40881 0.16639 0.0
H967 H 0.8732 0.31792 0.50619 0.0
O968 O 1.00016 0.32658 0.32053 0.0
H969 H 0.94067 0.20293 0.39841 0.0
H970 H 0.0312 0.28315 0.43004 0.0
H971 H 0.02685 0.24246 0.37003 0.0
H972 H 0.98133 0.20196 0.35399 0.0
H973 H 0.94591 0.24413 0.45747 0.0
H974 H 0.0336 0.26303 0.67352 0.0
H975 H 0.07558 0.30727 0.69143 0.0
O976 O 0.02096 0.32102 0.41781 0.0
C977 C 0.99816 0.35278 0.50635 0.0
C978 C 0.0635 0.32813 0.61577 0.0
C979 C 0.03654 0.2807 0.64391 0.0
N980 N 0.02036 0.30106 0.55765 0.0
C981 C 0.04325 0.32551 0.56783 0.0
C982 C 0.01673 0.27885 0.59545 0.0
C983 C 0.06008 0.30553 0.65395 0.0
C984 C 0.91296 0.298 0.41977 0.0
N985 N 0.93584 0.3226 0.41126 0.0
C986 C 0.89009 0.29593 0.45387 0.0
C987 C 0.89075 0.31924 0.47944 0.0
C988 C 0.91414 0.34426 0.47049 0.0
C989 C 0.93663 0.34557 0.43612 0.0
C990 C 0.95193 0.37048 0.21509 0.0
C991 C 0.9963 0.37506 0.28954 0.0
C992 C 0.94929 0.35045 0.26371 0.0
N993 N 0.9713 0.353 0.30059 0.0
C994 C 0.99972 0.39551 0.24142 0.0
C995 C 0.97734 0.39316 0.20402 0.0
C996 C 0.02095 0.32803 0.35125 0.0
C997 C 0.96062 0.22042 0.40532 0.0
C998 C 0.01131 0.26564 0.42306 0.0
C999 C 0.00898 0.24263 0.38921 0.0
C1000 C 0.98344 0.21991 0.38029 0.0
N1001 N 0.98884 0.26598 0.44752 0.0
C1002 C 0.96373 0.24376 0.43905 0.0
Co1003 Co 0.83956 0.75963 0.49512 0.0
Co1004 Co 0.81424 0.70878 0.36776 0.0
O1005 O 0.84309 0.73427 0.43143 0.0
C1006 C 0.85973 0.73177 0.58988 0.0
O1007 O 0.8393 0.70922 0.56498 0.0
C1008 C 0.86239 0.73669 0.2732 0.0
O1009 O 0.8646 0.75928 0.29796 0.0
O1010 O 0.81074 0.7387 0.32374 0.0
O1011 O 0.81685 0.7655 0.42053 0.0
H1012 H 0.72511 0.66945 0.23608 0.0
H1013 H 0.89422 0.76822 0.46144 0.0
O1014 O 0.86243 0.75436 0.56977 0.0
H1015 H 0.89504 0.85028 0.37412 0.0
H1016 H 0.87396 0.83565 0.67828 0.0
H1017 H 0.79424 0.76751 0.54196 0.0
H1018 H 0.85443 0.81369 0.43369 0.0
H1019 H 0.87798 0.80453 0.59214 0.0
O1020 O 0.84242 0.71413 0.29323 0.0
H1021 H 0.7609 0.70055 0.3208 0.0
H1022 H 0.80796 0.66393 0.27098 0.0
H1023 H 0.78933 0.79839 0.62686 0.0
H1024 H 0.93535 0.80446 0.40298 0.0
H1025 H 0.8294 0.83274 0.6959 0.0
H1026 H 0.93588 0.84579 0.35847 0.0
O1027 O 0.80618 0.7296 0.539 0.0
H1028 H 0.86559 0.66458 0.46116 0.0
H1029 H 0.77518 0.65465 0.42918 0.0
H1030 H 0.77939 0.61829 0.48937 0.0
H1031 H 0.82486 0.62315 0.5057 0.0
H1032 H 0.8605 0.70056 0.40198 0.0
H1033 H 0.77283 0.6326 0.185 0.0
H1034 H 0.731 0.63519 0.16734 0.0
O1035 O 0.78559 0.70276 0.44221 0.0
C1036 C 0.80936 0.75807 0.35438 0.0
C1037 C 0.74316 0.66799 0.24365 0.0
C1038 C 0.76996 0.64733 0.21495 0.0
N1039 N 0.78621 0.68368 0.30194 0.0
C1040 C 0.76341 0.68544 0.29189 0.0
C1041 C 0.78977 0.66511 0.26372 0.0
C1042 C 0.74649 0.6488 0.20504 0.0
C1043 C 0.89441 0.7863 0.44316 0.0
N1044 N 0.87199 0.78888 0.45134 0.0
C1045 C 0.91772 0.8067 0.40977 0.0
C1046 C 0.91798 0.82986 0.38468 0.0
C1047 C 0.89506 0.83238 0.39335 0.0
C1048 C 0.87211 0.81156 0.42695 0.0
C1049 C 0.85639 0.82088 0.64821 0.0
C1050 C 0.81183 0.78267 0.57096 0.0
C1051 C 0.85855 0.80323 0.59934 0.0
N1052 N 0.83647 0.7846 0.56097 0.0
C1053 C 0.8089 0.79999 0.61931 0.0
C1054 C 0.83138 0.81924 0.65808 0.0
C1055 C 0.78549 0.71013 0.50837 0.0
C1056 C 0.84566 0.66218 0.45407 0.0
C1057 C 0.79504 0.65693 0.43615 0.0
C1058 C 0.79729 0.63624 0.47012 0.0
C1059 C 0.8228 0.63896 0.47918 0.0
N1060 N 0.81756 0.67966 0.41176 0.0
C1061 C 0.84263 0.68243 0.42027 0.0
C1062 C 0.04821 0.54555 0.99195 0.0
C1063 C 0.07269 0.5477 0.96801 0.0
C1064 C 0.04791 0.56575 0.03508 0.0
C1065 C 0.07207 0.58908 0.05604 0.0
H1066 H 0.02899 0.52811 0.97722 0.0
H1067 H 0.02848 0.56293 0.05219 0.0
S1068 S 0.14177 0.6047 1.00782 0.0
N1069 N 0.12186 0.57519 0.96885 0.0
N1070 N 0.12132 0.61306 0.04933 0.0
C1071 C 0.09674 0.59151 0.0325 0.0
C1072 C 0.09705 0.57088 0.98875 0.0
C1073 C 0.59329 0.56843 0.99514 0.0
C1074 C 0.59108 0.59071 0.97139 0.0
C1075 C 0.57296 0.54773 0.03737 0.0
C1076 C 0.54942 0.54829 0.05768 0.0
H1077 H 0.61086 0.56682 0.98083 0.0
H1078 H 0.57583 0.53116 0.0543 0.0
S1079 S 0.53355 0.60212 1.00971 0.0
N1080 N 0.5633 0.61206 0.97174 0.0
N1081 N 0.52518 0.57325 0.05061 0.0
C1082 C 0.54693 0.57048 0.03439 0.0
C1083 C 0.56769 0.59162 0.99149 0.0
C1084 C 0.58977 0.08877 0.03834 0.0
C1085 C 0.58897 0.06459 0.05867 0.0
C1086 C 0.56912 0.08855 0.99606 0.0
C1087 C 0.54666 0.06415 0.97225 0.0
H1088 H 0.60645 0.10814 0.05542 0.0
H1089 H 0.57089 0.10778 0.98182 0.0
S1090 S 0.53469 0.99509 1.01022 0.0
N1091 N 0.56367 0.01544 0.05129 0.0
N1092 N 0.52495 0.01504 0.97232 0.0
C1093 C 0.54554 0.03979 0.99223 0.0
C1094 C 0.56663 0.04001 0.0352 0.0
C1095 C 0.59255 0.08989 0.49479 0.0
C1096 C 0.59086 0.06556 0.47153 0.0
C1097 C 0.57229 0.08992 0.53823 0.0
C1098 C 0.54935 0.06563 0.56024 0.0
H1099 H 0.60966 0.10918 0.47919 0.0
H1100 H 0.57472 0.10924 0.5547 0.0
S1101 S 0.53506 0.99626 0.51434 0.0
N1102 N 0.56427 0.0164 0.47429 0.0
N1103 N 0.52626 0.01645 0.55539 0.0
C1104 C 0.5474 0.04112 0.53747 0.0
C1105 C 0.56809 0.04108 0.49338 0.0
C1106 C 0.05029 0.56849 0.49283 0.0
C1107 C 0.07473 0.59049 0.46754 0.0
C1108 C 0.05003 0.54796 0.53553 0.0
C1109 C 0.07417 0.54845 0.55485 0.0
H1110 H 0.03108 0.567 0.47957 0.0
H1111 H 0.03064 0.53166 0.55384 0.0
S1112 S 0.14371 0.60136 0.50187 0.0
N1113 N 0.12382 0.61135 0.4647 0.0
N1114 N 0.12332 0.57286 0.54457 0.0
C1115 C 0.09879 0.57029 0.52974 0.0
C1116 C 0.09906 0.59125 0.4863 0.0
C1117 C 0.56939 0.59007 0.53415 0.0
C1118 C 0.59158 0.58777 0.55856 0.0
C1119 C 0.54899 0.57003 0.49045 0.0
C1120 C 0.5498 0.54674 0.46928 0.0
H1121 H 0.56764 0.60751 0.54897 0.0
H1122 H 0.53248 0.57296 0.47304 0.0
S1123 S 0.60352 0.53075 0.51853 0.0
N1124 N 0.61312 0.56017 0.55802 0.0
N1125 N 0.57487 0.52259 0.47627 0.0
C1126 C 0.5719 0.54415 0.49325 0.0
C1127 C 0.59273 0.5646 0.53769 0.0
C1128 C 0.75805 0.9024 0.32432 0.0
C1129 C 0.73394 0.87857 0.30595 0.0
C1130 C 0.75778 0.92262 0.36735 0.0
C1131 C 0.73339 0.91997 0.39394 0.0
H1132 H 0.7774 0.90566 0.30497 0.0
H1133 H 0.77697 0.9405 0.37981 0.0
S1134 S 0.66453 0.86128 0.36275 0.0
N1135 N 0.68488 0.85339 0.31871 0.0
N1136 N 0.68438 0.89131 0.39918 0.0
C1137 C 0.70909 0.89621 0.37618 0.0
C1138 C 0.70936 0.87557 0.33239 0.0
C1139 C 0.24009 0.88173 0.37473 0.0
C1140 C 0.2167 0.88252 0.39536 0.0
C1141 C 0.26037 0.90225 0.33196 0.0
C1142 C 0.25823 0.92455 0.308 0.0
H1143 H 0.24289 0.86513 0.3918 0.0
H1144 H 0.27783 0.90048 0.3174 0.0
S1145 S 0.20108 0.93648 0.34695 0.0
N1146 N 0.19267 0.90768 0.38832 0.0
N1147 N 0.2307 0.94616 0.30849 0.0
C1148 C 0.235 0.92568 0.32844 0.0
C1149 C 0.21429 0.90473 0.37187 0.0
C1150 C 0.25795 0.42282 0.3687 0.0
C1151 C 0.25672 0.39854 0.38997 0.0
C1152 C 0.2376 0.42279 0.32549 0.0
C1153 C 0.21506 0.39846 0.30167 0.0
H1154 H 0.27472 0.44214 0.38578 0.0
H1155 H 0.23966 0.44208 0.31063 0.0
S1156 S 0.20203 0.32919 0.34192 0.0
N1157 N 0.23094 0.34937 0.38348 0.0
N1158 N 0.19279 0.34931 0.3027 0.0
C1159 C 0.21353 0.37399 0.32253 0.0
C1160 C 0.2343 0.37403 0.36646 0.0
C1161 C 0.2386 0.42425 0.86773 0.0
C1162 C 0.21565 0.40003 0.89003 0.0
C1163 C 0.25902 0.42411 0.82521 0.0
C1164 C 0.25748 0.39972 0.80322 0.0
H1165 H 0.24094 0.44362 0.8833 0.0
H1166 H 0.27612 0.44336 0.80933 0.0
S1167 S 0.20176 0.33054 0.84752 0.0
N1168 N 0.19275 0.35084 0.88695 0.0
N1169 N 0.23103 0.35058 0.80761 0.0
C1170 C 0.2347 0.37531 0.82538 0.0
C1171 C 0.21385 0.37546 0.86852 0.0
C1172 C 0.71477 0.88127 0.87347 0.0
C1173 C 0.73888 0.88166 0.89268 0.0
C1174 C 0.71509 0.90181 0.83066 0.0
C1175 C 0.73954 0.92372 0.80513 0.0
H1176 H 0.69537 0.86502 0.89192 0.0
H1177 H 0.6959 0.90039 0.81744 0.0
S1178 S 0.80845 0.93433 0.83915 0.0
N1179 N 0.78801 0.9059 0.88207 0.0
N1180 N 0.78862 0.94441 0.80206 0.0
C1181 C 0.76384 0.92439 0.82384 0.0
C1182 C 0.76351 0.90343 0.8674 0.0
C1183 C 0.25607 0.8978 0.87502 0.0
C1184 C 0.2552 0.92114 0.89549 0.0
C1185 C 0.23559 0.87749 0.83202 0.0
C1186 C 0.21324 0.87954 0.80764 0.0
H1187 H 0.2727 0.89506 0.89243 0.0
H1188 H 0.23742 0.86007 0.81763 0.0
S1189 S 0.20112 0.93656 0.84589 0.0
N1190 N 0.22992 0.94505 0.88776 0.0
N1191 N 0.19153 0.90697 0.80749 0.0
C1192 C 0.21203 0.90273 0.82789 0.0
C1193 C 0.23294 0.92347 0.87155 0.0
C1194 C 0.4253 0.25646 0.70363 0.0
C1195 C 0.40071 0.25439 0.72626 0.0
C1196 C 0.4258 0.23608 0.66183 0.0
C1197 C 0.40174 0.21262 0.64087 0.0
H1198 H 0.44445 0.27397 0.71846 0.0
H1199 H 0.44531 0.23887 0.64569 0.0
S1200 S 0.33184 0.19712 0.68584 0.0
N1201 N 0.35155 0.22682 0.72414 0.0
N1202 N 0.35248 0.18861 0.64613 0.0
C1203 C 0.37697 0.21026 0.66309 0.0
C1204 C 0.37646 0.23107 0.70553 0.0
C1205 C 0.90557 0.21532 0.70501 0.0
C1206 C 0.88186 0.2157 0.72422 0.0
C1207 C 0.92568 0.23572 0.66161 0.0
C1208 C 0.92303 0.25749 0.63551 0.0
H1209 H 0.9088 0.19916 0.72383 0.0
H1210 H 0.94345 0.23431 0.64841 0.0
S1211 S 0.86472 0.26804 0.66939 0.0
N1212 N 0.85686 0.2398 0.71309 0.0
N1213 N 0.89456 0.27805 0.63193 0.0
C1214 C 0.89942 0.25817 0.65426 0.0
C1215 C 0.87889 0.23734 0.69841 0.0
C1216 C 0.92351 0.75576 0.70464 0.0
C1217 C 0.92259 0.73157 0.72536 0.0
C1218 C 0.90303 0.75558 0.66165 0.0
C1219 C 0.88066 0.73119 0.63743 0.0
H1220 H 0.94015 0.77513 0.72198 0.0
H1221 H 0.90488 0.77482 0.6472 0.0
S1222 S 0.86847 0.6621 0.67604 0.0
N1223 N 0.89728 0.68242 0.71786 0.0
N1224 N 0.85891 0.68208 0.63742 0.0
C1225 C 0.87944 0.70681 0.6577 0.0
C1226 C 0.90034 0.707 0.70147 0.0
C1227 C 0.88134 0.71273 0.2001 0.0
C1228 C 0.88389 0.73715 0.2259 0.0
C1229 C 0.90158 0.71238 0.15728 0.0
C1230 C 0.92533 0.73644 0.13833 0.0
H1231 H 0.86354 0.69358 0.21308 0.0
H1232 H 0.8984 0.693 0.13861 0.0
S1233 S 0.9423 0.80592 0.19269 0.0
N1234 N 0.91235 0.78615 0.22957 0.0
N1235 N 0.95029 0.7855 0.1495 0.0
C1236 C 0.92822 0.76105 0.1639 0.0
C1237 C 0.90756 0.76141 0.20748 0.0
C1238 C 0.37969 0.21332 0.20724 0.0
C1239 C 0.40406 0.21471 0.22885 0.0
C1240 C 0.37961 0.23338 0.1632 0.0
C1241 C 0.40391 0.2558 0.13887 0.0
H1242 H 0.36039 0.1966 0.22455 0.0
H1243 H 0.36025 0.2312 0.14806 0.0
S1244 S 0.47339 0.26919 0.1798 0.0
N1245 N 0.45328 0.24053 0.2222 0.0
N1246 N 0.45313 0.27814 0.13988 0.0
C1247 C 0.42847 0.25751 0.16015 0.0
C1248 C 0.42855 0.23703 0.20492 0.0
C1249 C 0.92317 0.23181 0.20343 0.0
C1250 C 0.92265 0.25534 0.22381 0.0
C1251 C 0.90242 0.21155 0.16098 0.0
C1252 C 0.88015 0.21382 0.13713 0.0
H1253 H 0.93972 0.22889 0.22046 0.0
H1254 H 0.90398 0.19397 0.14663 0.0
S1255 S 0.86886 0.27136 0.17562 0.0
N1256 N 0.89775 0.27965 0.21672 0.0
N1257 N 0.85886 0.24164 0.13745 0.0
C1258 C 0.87929 0.2372 0.15731 0.0
C1259 C 0.90047 0.2579 0.2004 0.0
C1260 C 0.10848 0.71056 0.4611 0.0
C1261 C 0.10888 0.71157 0.38404 0.0
C1262 C 0.12061 0.73425 0.50356 0.0
C1263 C 0.13324 0.75998 0.47079 0.0
H1264 H 0.09866 0.69126 0.48908 0.0
H1265 H 0.11944 0.73233 0.56258 0.0
S1266 S 0.14058 0.774 0.27124 0.0
N1267 N 0.12375 0.74071 0.27694 0.0
N1268 N 0.14617 0.78507 0.35644 0.0
C1269 C 0.13411 0.76133 0.39385 0.0
C1270 C 0.12208 0.73721 0.35062 0.0
C1271 C 0.42727 0.46448 0.46008 0.0
C1272 C 0.42631 0.46185 0.38333 0.0
C1273 C 0.40353 0.45273 0.50234 0.0
C1274 C 0.37784 0.4374 0.46974 0.0
H1275 H 0.44656 0.47572 0.4879 0.0
H1276 H 0.40541 0.45516 0.5612 0.0
S1277 S 0.36412 0.4246 0.27065 0.0
N1278 N 0.39739 0.44307 0.27648 0.0
N1279 N 0.35291 0.42081 0.35548 0.0
C1280 C 0.37658 0.43483 0.39293 0.0
C1281 C 0.40073 0.4471 0.3499 0.0
C1282 C 0.69951 0.00579 0.4009 0.0
C1283 C 0.69893 0.00636 0.47798 0.0
C1284 C 0.68768 0.01761 0.35828 0.0
C1285 C 0.67525 0.03095 0.39092 0.0
H1286 H 0.70924 0.99618 0.37305 0.0
H1287 H 0.6889 0.01682 0.29927 0.0
S1288 S 0.66746 0.03753 0.59035 0.0
N1289 N 0.68402 0.02077 0.58489 0.0
N1290 N 0.66223 0.04324 0.50508 0.0
C1291 C 0.6742 0.03139 0.46785 0.0
C1292 C 0.68588 0.01901 0.51123 0.0
C1293 C 0.73676 0.11675 0.17008 0.0
C1294 C 0.71097 0.10381 0.13728 0.0
C1295 C 0.76045 0.12832 0.12759 0.0
C1296 C 0.75934 0.12792 0.05053 0.0
H1297 H 0.73871 0.11735 0.2291 0.0
H1298 H 0.7798 0.13767 0.15551 0.0
S1299 S 0.69673 0.09775 0.93782 0.0
N1300 N 0.68572 0.09203 0.02303 0.0
N1301 N 0.73007 0.11408 0.94345 0.0
C1302 C 0.73364 0.11566 0.01714 0.0
C1303 C 0.70954 0.10352 0.06037 0.0
C1304 C 0.02158 0.68473 0.02419 0.0
C1305 C 0.00844 0.69724 0.05762 0.0
C1306 C 0.03375 0.67308 0.06607 0.0
C1307 C 0.03284 0.67298 0.14315 0.0
H1308 H 0.02313 0.68453 0.96515 0.0
H1309 H 0.04404 0.66416 0.03762 0.0
S1310 S 0.99944 0.70175 0.2573 0.0
N1311 N 0.99435 0.70797 0.17238 0.0
N1312 N 0.01677 0.68579 0.25088 0.0
C1313 C 0.01905 0.68475 0.17714 0.0
C1314 C 0.00701 0.69697 0.13451 0.0
C1315 C 0.45573 0.40031 0.02631 0.0
C1316 C 0.43819 0.37512 0.0589 0.0
C1317 C 0.46761 0.42435 0.06737 0.0
C1318 C 0.46285 0.42415 0.14294 0.0
H1319 H 0.46001 0.40162 0.96826 0.0
H1320 H 0.48074 0.44324 0.03972 0.0
S1321 S 0.41852 0.36389 0.25524 0.0
N1322 N 0.41669 0.35174 0.17218 0.0
N1323 N 0.43914 0.3968 0.24863 0.0
C1324 C 0.44562 0.39918 0.17645 0.0
C1325 C 0.43326 0.37473 0.13468 0.0
C1326 C 0.00953 0.37744 0.62659 0.0
C1327 C 0.00996 0.37834 0.54951 0.0
C1328 C 0.0213 0.4012 0.66878 0.0
C1329 C 0.03446 0.42687 0.63566 0.0
H1330 H 1.00004 0.35819 0.65479 0.0
H1331 H 0.02068 0.39941 0.72783 0.0
S1332 S 0.04062 0.4406 0.43603 0.0
N1333 N 0.02405 0.40732 0.44207 0.0
N1334 N 0.04642 0.4518 0.52111 0.0
C1335 C 0.03475 0.42811 0.55874 0.0
C1336 C 0.02243 0.40393 0.51579 0.0
C1337 C 0.73726 0.68509 0.67097 0.0
C1338 C 0.71152 0.67181 0.63795 0.0
C1339 C 0.76098 0.69714 0.62868 0.0
C1340 C 0.75999 0.69598 0.55161 0.0
H1341 H 0.73914 0.68686 0.72996 0.0
H1342 H 0.78028 0.70756 0.6568 0.0
S1343 S 0.69751 0.66207 0.43851 0.0
N1344 N 0.68641 0.65726 0.52361 0.0
N1345 N 0.73084 0.67948 0.44438 0.0
C1346 C 0.73434 0.68201 0.51805 0.0
C1347 C 0.71018 0.67009 0.56109 0.0
C1348 C 0.44072 0.12868 0.63135 0.0
C1349 C 0.44131 0.12851 0.55427 0.0
C1350 C 0.45287 0.11699 0.67313 0.0
C1351 C 0.4657 0.10417 0.63959 0.0
H1352 H 0.43072 0.1379 0.65985 0.0
H1353 H 0.45156 0.11739 0.73219 0.0
S1354 S 0.47358 0.09868 0.43968 0.0
N1355 N 0.45657 0.11497 0.44634 0.0
N1356 N 0.47902 0.09276 0.52455 0.0
C1357 C 0.46677 0.10414 0.56263 0.0
C1358 C 0.45472 0.11637 0.52012 0.0
C1359 C 0.40348 0.01814 1.00497 0.0
C1360 C 0.3777 0.00508 0.97207 0.0
C1361 C 0.42718 0.03031 0.9626 0.0
C1362 C 0.42613 0.02951 0.88554 0.0
H1363 H 0.40541 0.0196 0.06398 0.0
H1364 H 0.44651 0.04046 0.99062 0.0
S1365 S 0.36361 0.99663 0.77251 0.0
N1366 N 0.35254 0.99136 0.85766 0.0
N1367 N 0.39694 0.01383 0.77832 0.0
C1368 C 0.40046 0.01589 0.85203 0.0
C1369 C 0.37632 1.00383 0.89514 0.0
C1370 C 0.11984 0.44936 0.8562 0.0
C1371 C 0.10743 0.46272 0.88889 0.0
C1372 C 0.13146 0.43734 0.89879 0.0
C1373 C 0.13164 0.43865 0.97582 0.0
H1374 H 0.12001 0.44757 0.79722 0.0
H1375 H 0.14035 0.4269 0.87094 0.0
S1376 S 0.1031 0.47269 0.08812 0.0
N1377 N 0.09683 0.47739 1.00288 0.0
N1378 N 0.11899 0.45526 0.08269 0.0
C1379 C 0.11995 0.45263 1.00906 0.0
C1380 C 0.10774 0.46449 0.96573 0.0
C1381 C 0.67666 0.71008 0.96174 0.0
C1382 C 0.67616 0.71109 0.88474 0.0
C1383 C 0.6883 0.73377 1.0042 0.0
C1384 C 0.70042 0.75948 0.97141 0.0
H1385 H 0.66798 0.69081 0.98965 0.0
H1386 H 0.68837 0.7319 0.06316 0.0
S1387 S 0.70395 0.77345 0.77221 0.0
N1388 N 0.68827 0.74017 0.7778 0.0
N1389 N 0.71047 0.78455 0.85735 0.0
C1390 C 0.69983 0.76082 0.89461 0.0
C1391 C 0.6876 0.7367 0.85141 0.0
C1392 C 0.77459 0.04389 0.79497 0.0
C1393 C 0.77501 0.0446 0.7179 0.0
C1394 C 0.78659 0.06774 0.83674 0.0
C1395 C 0.79907 0.09334 0.80323 0.0
H1396 H 0.76482 0.0247 0.8235 0.0
H1397 H 0.7854 0.06604 0.89581 0.0
S1398 S 0.80642 0.10657 0.6033 0.0
N1399 N 0.78977 0.0733 0.60996 0.0
N1400 N 0.81192 0.11798 0.68818 0.0
C1401 C 0.79999 0.09439 0.72626 0.0
C1402 C 0.78811 0.0701 0.68374 0.0
C1403 C 0.09422 0.79343 0.79561 0.0
C1404 C 0.09323 0.79392 0.7186 0.0
C1405 C 0.07051 0.7818 0.8379 0.0
C1406 C 0.04477 0.76972 0.80493 0.0
H1407 H 0.11352 0.80212 0.82368 0.0
H1408 H 0.07238 0.78175 0.89687 0.0
S1409 S 0.03079 0.76619 0.60562 0.0
N1410 N 0.06411 0.78183 0.61144 0.0
N1411 N 0.01967 0.75968 0.69068 0.0
C1412 C 0.04343 0.77029 0.72811 0.0
C1413 C 0.06759 0.78249 0.68508 0.0
C1414 C 0.35393 0.3509 0.69171 0.0
C1415 C 0.34204 0.36479 0.72439 0.0
C1416 C 0.36554 0.33886 0.73426 0.0
C1417 C 0.36521 0.33969 0.81126 0.0
H1418 H 0.35484 0.34982 0.63269 0.0
H1419 H 0.37482 0.32877 0.70651 0.0
S1420 S 0.33561 0.37261 0.92387 0.0
N1421 N 0.33011 0.37811 0.83864 0.0
N1422 N 0.35149 0.35517 0.91828 0.0
C1423 C 0.35283 0.35297 0.84461 0.0
C1424 C 0.34141 0.36561 0.80132 0.0
C1425 C 0.04562 0.34025 0.23103 0.0
C1426 C 0.0465 0.33941 0.30804 0.0
C1427 C 0.0694 0.35202 0.18893 0.0
C1428 C 0.09509 0.36391 0.2221 0.0
H1429 H 0.02638 0.33183 0.20279 0.0
H1430 H 0.06761 0.35241 0.13 0.0
S1431 S 0.10884 0.36629 0.42131 0.0
N1432 N 0.07553 0.3508 0.41526 0.0
N1433 N 0.12003 0.3732 0.3364 0.0
C1434 C 0.09632 0.36287 0.29885 0.0
C1435 C 0.07212 0.35054 0.34167 0.0
C1436 C 0.79763 0.77094 0.23415 0.0
C1437 C 0.79776 0.77201 0.31122 0.0
C1438 C 0.7858 0.78285 0.19196 0.0
C1439 C 0.77312 0.79588 0.22506 0.0
H1440 H 0.80671 0.76075 0.20595 0.0
H1441 H 0.78601 0.78122 0.13294 0.0
S1442 S 0.76853 0.80516 0.42459 0.0
N1443 N 0.78475 0.78807 0.41857 0.0
N1444 N 0.76222 0.80999 0.33953 0.0
C1445 C 0.77339 0.79744 0.30194 0.0
C1446 C 0.78579 0.78567 0.34488 0.0
C1447 C 0.34475 0.0435 0.29746 0.0
C1448 C 0.34308 0.04446 0.22064 0.0
C1449 C 0.35623 0.06714 0.3401 0.0
C1450 C 0.36697 0.0928 0.30765 0.0
H1451 H 0.33715 0.02429 0.32514 0.0
H1452 H 0.35729 0.0653 0.39883 0.0
S1453 S 0.36687 0.1067 0.10933 0.0
N1454 N 0.35247 0.07349 0.11445 0.0
N1455 N 0.37434 0.11778 0.19432 0.0
C1456 C 0.36514 0.09411 0.23113 0.0
C1457 C 0.3531 0.07002 0.18778 0.0
loop_
_geom_bond_atom_site_label_1
_geom_bond_atom_site_label_2
_geom_bond_distance
_geom_bond_site_symmetry_2
_ccdc_geom_bond_type
Co0 O2 2.143 . S
Co0 O8 2.074 . S
Co0 O11 2.093 . S
Co0 O24 2.097 . S
Co0 N41 2.151 . S
Co0 N49 2.214 . S
Co1 O2 2.160 . S
Co1 O7 2.058 . S
Co1 O17 2.057 . S
Co1 O32 2.037 . S
Co1 N36 2.145 . S
Co1 N57 2.257 . S
O2 Co0 2.143 . S
O2 Co1 2.160 . S
C3 O4 1.278 . S
C3 O11 1.224 . S
O4 C3 1.278 . S
C5 O6 1.245 . S
C5 O17 1.232 . S
O6 C5 1.245 . S
O7 Co1 2.058 . S
O7 C33 1.269 . S
O8 Co0 2.074 . S
O8 C33 1.257 . S
H9 C34 0.930 . S
H10 C40 0.930 . S
O11 Co0 2.093 . S
O11 C3 1.224 . S
H12 C44 0.929 . S
H13 C46 0.930 1_556 S
H14 C47 0.930 . S
H15 C45 0.929 . S
H16 C48 0.928 . S
O17 Co1 2.057 . S
O17 C5 1.232 . S
H18 C37 0.929 . S
H19 C38 0.929 . S
H20 C50 0.931 . S
H21 C42 0.929 . S
H22 C51 0.930 1_556 S
H23 C43 0.931 . S
O24 Co0 2.097 . S
O24 C52 1.214 . S
H25 C53 0.929 . S
H26 C54 0.929 . S
H27 C55 0.930 . S
H28 C56 0.929 . S
H29 C58 0.930 . S
H30 C35 0.930 . S
H31 C39 0.930 . S
O32 Co1 2.037 . S
O32 C52 1.234 . S
C33 O7 1.269 . S
C33 O8 1.257 . S
C34 H9 0.930 . S
C34 C37 1.388 1_655 S
C34 C39 1.418 . S
C35 H30 0.930 . S
C35 C38 1.404 1_655 S
C35 C39 1.353 . S
N36 Co1 2.145 . S
N36 C37 1.397 . S
N36 C38 1.334 . S
C37 H18 0.929 . S
C37 C34 1.388 1_455 S
C37 N36 1.397 . S
C38 H19 0.929 . S
C38 C35 1.404 1_455 S
C38 N36 1.334 . S
C39 H31 0.930 . S
C39 C34 1.418 . S
C39 C35 1.353 . S
C40 H10 0.930 . S
C40 N41 1.330 . S
C40 C42 1.446 . S
N41 Co0 2.151 . S
N41 C40 1.330 . S
N41 C45 1.418 . S
C42 H21 0.929 . S
C42 C40 1.446 . S
C42 C43 1.332 . S
C43 H23 0.931 . S
C43 C42 1.332 . S
C43 C44 1.267 . S
C44 H12 0.929 . S
C44 C43 1.267 . S
C44 C45 1.251 . S
C45 H15 0.929 . S
C45 N41 1.418 . S
C45 C44 1.251 . S
C46 H13 0.930 1_554 S
C46 C48 1.406 . S
C46 C51 1.261 . S
C47 H14 0.930 . S
C47 N49 1.325 . S
C47 C50 1.357 . S
C48 H16 0.928 . S
C48 C46 1.406 . S
C48 N49 1.261 . S
N49 Co0 2.214 . S
N49 C47 1.325 . S
N49 C48 1.261 . S
C50 H20 0.931 . S
C50 C47 1.357 . S
C50 C51 1.312 . S
C51 H22 0.930 1_554 S
C51 C46 1.261 . S
C51 C50 1.312 . S
C52 O24 1.214 . S
C52 O32 1.234 . S
C53 H25 0.929 . S
C53 C56 1.391 . S
C53 C58 1.391 1_655 S
C54 H26 0.929 . S
C54 C55 1.390 . S
C54 N57 1.391 1_655 S
C55 H27 0.930 . S
C55 C54 1.390 . S
C55 C56 1.392 . S
C56 H28 0.929 . S
C56 C53 1.391 . S
C56 C55 1.392 . S
N57 Co1 2.257 . S
N57 C54 1.391 1_455 S
N57 C58 1.388 . S
C58 H29 0.930 . S
C58 C53 1.391 1_455 S
C58 N57 1.388 . S
Co59 O61 2.143 . S
Co59 O67 2.074 . S
Co59 O70 2.093 . S
Co59 O83 2.097 . S
Co59 N100 2.151 . S
Co59 N108 2.214 . S
Co60 O61 2.160 . S
Co60 O66 2.058 . S
Co60 O76 2.057 . S
Co60 O91 2.037 . S
Co60 N95 2.145 . S
Co60 N116 2.257 . S
O61 Co59 2.143 . S
O61 Co60 2.160 . S
C62 O63 1.278 . S
C62 O70 1.224 . S
O63 C62 1.278 . S
C64 O65 1.245 . S
C64 O76 1.232 . S
O65 C64 1.245 . S
O66 Co60 2.058 . S
O66 C92 1.269 . S
O67 Co59 2.074 . S
O67 C92 1.257 . S
H68 C93 0.930 . S
H69 C99 0.930 . S
O70 Co59 2.093 . S
O70 C62 1.224 . S
H71 C103 0.929 . S
H72 C105 0.930 . S
H73 C106 0.930 . S
H74 C104 0.929 . S
H75 C107 0.928 . S
O76 Co60 2.057 . S
O76 C64 1.232 . S
H77 C96 0.929 . S
H78 C97 0.929 . S
H79 C109 0.931 . S
H80 C101 0.929 . S
H81 C110 0.930 . S
H82 C102 0.931 . S
O83 Co59 2.097 . S
O83 C111 1.214 . S
H84 C112 0.929 . S
H85 C113 0.929 . S
H86 C114 0.930 . S
H87 C115 0.929 . S
H88 C117 0.930 . S
H89 C94 0.930 1_556 S
H90 C98 0.930 1_556 S
O91 Co60 2.037 . S
O91 C111 1.234 . S
C92 O66 1.269 . S
C92 O67 1.257 . S
C93 H68 0.930 . S
C93 C96 1.388 . S
C93 C98 1.418 . S
C94 H89 0.930 1_554 S
C94 C97 1.404 . S
C94 C98 1.353 . S
N95 Co60 2.145 . S
N95 C96 1.397 . S
N95 C97 1.334 . S
C96 H77 0.929 . S
C96 C93 1.388 . S
C96 N95 1.397 . S
C97 H78 0.929 . S
C97 C94 1.404 . S
C97 N95 1.334 . S
C98 H90 0.930 1_554 S
C98 C93 1.418 . S
C98 C94 1.353 . S
C99 H69 0.930 . S
C99 N100 1.330 . S
C99 C101 1.446 . S
N100 Co59 2.151 . S
N100 C99 1.330 . S
N100 C104 1.418 . S
C101 H80 0.929 . S
C101 C99 1.446 . S
C101 C102 1.332 . S
C102 H82 0.931 . S
C102 C101 1.332 . S
C102 C103 1.267 . S
C103 H71 0.929 . S
C103 C102 1.267 . S
C103 C104 1.251 . S
C104 H74 0.929 . S
C104 N100 1.418 . S
C104 C103 1.251 . S
C105 H72 0.930 . S
C105 C107 1.406 . S
C105 C110 1.261 . S
C106 H73 0.930 . S
C106 N108 1.325 . S
C106 C109 1.357 . S
C107 H75 0.928 . S
C107 C105 1.406 . S
C107 N108 1.261 . S
N108 Co59 2.214 . S
N108 C106 1.325 . S
N108 C107 1.261 . S
C109 H79 0.931 . S
C109 C106 1.357 . S
C109 C110 1.312 . S
C110 H81 0.930 . S
C110 C105 1.261 . S
C110 C109 1.312 . S
C111 O83 1.214 . S
C111 O91 1.234 . S
C112 H84 0.929 . S
C112 C115 1.391 . S
C112 C117 1.391 . S
C113 H85 0.929 . S
C113 C114 1.390 . S
C113 N116 1.391 . S
C114 H86 0.930 . S
C114 C113 1.390 . S
C114 C115 1.392 . S
C115 H87 0.929 . S
C115 C112 1.391 . S
C115 C114 1.392 . S
N116 Co60 2.257 . S
N116 C113 1.391 . S
N116 C117 1.388 . S
C117 H88 0.930 . S
C117 C112 1.391 . S
C117 N116 1.388 . S
Co118 O120 2.143 . S
Co118 O126 2.074 . S
Co118 O129 2.093 . S
Co118 O142 2.097 . S
Co118 N159 2.172 . S
Co118 N167 2.214 . S
Co119 O120 2.160 . S
Co119 O125 2.058 . S
Co119 O135 2.057 . S
Co119 O150 2.037 . S
Co119 N154 2.145 . S
Co119 N175 2.257 . S
O120 Co118 2.143 . S
O120 Co119 2.160 . S
C121 O122 1.278 . S
C121 O129 1.224 . S
O122 C121 1.278 . S
C123 O124 1.245 . S
C123 O135 1.232 . S
O124 C123 1.245 . S
O125 Co119 2.058 . S
O125 C151 1.269 . S
O126 Co118 2.074 . S
O126 C151 1.257 . S
H127 C152 0.930 . S
H128 C158 0.930 1_545 S
O129 Co118 2.093 . S
O129 C121 1.224 . S
H130 C162 0.929 . S
H131 C164 0.930 1_556 S
H132 C165 0.930 . S
H133 C163 0.929 . S
H134 C166 0.924 . S
O135 Co119 2.057 . S
O135 C123 1.232 . S
H136 C155 0.929 . S
H137 C156 0.929 . S
H138 C168 0.931 . S
H139 C160 0.929 . S
H140 C169 0.930 1_556 S
H141 C161 0.931 . S
O142 Co118 2.097 . S
O142 C170 1.214 . S
H143 C171 0.929 . S
H144 C172 0.929 . S
H145 C173 0.930 . S
H146 C174 0.929 . S
H147 C176 0.930 . S
H148 C153 0.930 . S
H149 C157 0.930 . S
O150 Co119 2.037 . S
O150 C170 1.234 . S
C151 O125 1.269 . S
C151 O126 1.257 . S
C152 H127 0.930 . S
C152 C155 1.388 . S
C152 C157 1.418 . S
C153 H148 0.930 . S
C153 C156 1.404 . S
C153 C157 1.353 . S
N154 Co119 2.145 . S
N154 C155 1.397 . S
N154 C156 1.334 . S
C155 H136 0.929 . S
C155 C152 1.388 . S
C155 N154 1.397 . S
C156 H137 0.929 . S
C156 C153 1.404 . S
C156 N154 1.334 . S
C157 H149 0.930 . S
C157 C152 1.418 . S
C157 C153 1.353 . S
C158 H128 0.930 1_565 S
C158 N159 1.345 1_565 S
C158 C160 1.446 . S
N159 Co118 2.172 . S
N159 C158 1.345 1_545 S
N159 C163 1.380 1_545 S
C160 H139 0.929 . S
C160 C158 1.446 . S
C160 C161 1.332 . S
C161 H141 0.931 . S
C161 C160 1.332 . S
C161 C162 1.267 . S
C162 H130 0.929 . S
C162 C161 1.267 . S
C162 C163 1.251 . S
C163 H133 0.929 . S
C163 N159 1.380 1_565 S
C163 C162 1.251 . S
C164 H131 0.930 1_554 S
C164 C166 1.417 . S
C164 C169 1.261 . S
C165 H132 0.930 . S
C165 N167 1.325 . S
C165 C168 1.357 . S
C166 H134 0.924 . S
C166 C164 1.417 . S
C166 N167 1.254 1_565 S
N167 Co118 2.214 . S
N167 C165 1.325 . S
N167 C166 1.254 1_545 S
C168 H138 0.931 . S
C168 C165 1.357 . S
C168 C169 1.312 1_545 S
C169 H140 0.930 1_554 S
C169 C164 1.261 . S
C169 C168 1.312 1_565 S
C170 O142 1.214 . S
C170 O150 1.234 . S
C171 H143 0.929 . S
C171 C174 1.391 . S
C171 C176 1.391 . S
C172 H144 0.929 . S
C172 C173 1.390 . S
C172 N175 1.391 . S
C173 H145 0.930 . S
C173 C172 1.390 . S
C173 C174 1.392 . S
C174 H146 0.929 . S
C174 C171 1.391 . S
C174 C173 1.392 . S
N175 Co119 2.257 . S
N175 C172 1.391 . S
N175 C176 1.388 . S
C176 H147 0.930 . S
C176 C171 1.391 . S
C176 N175 1.388 . S
Co177 O179 2.143 . S
Co177 O185 2.074 . S
Co177 O188 2.093 . S
Co177 O201 2.097 . S
Co177 N218 2.193 . S
Co177 N226 2.214 . S
Co178 O179 2.160 . S
Co178 O184 2.058 . S
Co178 O194 2.057 . S
Co178 O209 2.037 . S
Co178 N213 2.145 . S
Co178 N234 2.257 . S
O179 Co177 2.143 . S
O179 Co178 2.160 . S
C180 O181 1.278 . S
C180 O188 1.224 . S
O181 C180 1.278 . S
C182 O183 1.245 . S
C182 O194 1.232 . S
O183 C182 1.245 . S
O184 Co178 2.058 . S
O184 C210 1.269 . S
O185 Co177 2.074 . S
O185 C210 1.257 . S
H186 C211 0.930 . S
H187 C217 0.930 1_455 S
O188 Co177 2.093 . S
O188 C180 1.224 . S
H189 C221 0.929 . S
H190 C223 0.930 1_554 S
H191 C224 0.930 . S
H192 C222 0.929 . S
H193 C225 0.933 . S
O194 Co178 2.057 . S
O194 C182 1.232 . S
H195 C214 0.929 . S
H196 C215 0.929 . S
H197 C227 0.931 . S
H198 C219 0.929 . S
H199 C228 0.930 1_554 S
H200 C220 0.931 . S
O201 Co177 2.097 . S
O201 C229 1.214 . S
H202 C230 0.929 . S
H203 C231 0.929 . S
H204 C232 0.930 . S
H205 C233 0.929 . S
H206 C235 0.930 . S
H207 C212 0.930 . S
H208 C216 0.930 . S
O209 Co178 2.037 . S
O209 C229 1.234 . S
C210 O184 1.269 . S
C210 O185 1.257 . S
C211 H186 0.930 . S
C211 C214 1.388 . S
C211 C216 1.418 . S
C212 H207 0.930 . S
C212 C215 1.404 . S
C212 C216 1.353 . S
N213 Co178 2.145 . S
N213 C214 1.397 . S
N213 C215 1.334 . S
C214 H195 0.929 . S
C214 C211 1.388 . S
C214 N213 1.397 . S
C215 H196 0.929 . S
C215 C212 1.404 . S
C215 N213 1.334 . S
C216 H208 0.930 . S
C216 C211 1.418 . S
C216 C212 1.353 . S
C217 H187 0.930 1_655 S
C217 N218 1.304 1_655 S
C217 C219 1.446 . S
N218 Co177 2.193 . S
N218 C217 1.304 1_455 S
N218 C222 1.398 1_455 S
C219 H198 0.929 . S
C219 C217 1.446 . S
C219 C220 1.332 . S
C220 H200 0.931 . S
C220 C219 1.332 . S
C220 C221 1.267 . S
C221 H189 0.929 . S
C221 C220 1.267 . S
C221 C222 1.251 . S
C222 H192 0.929 . S
C222 N218 1.398 1_655 S
C222 C221 1.251 . S
C223 H190 0.930 1_556 S
C223 C225 1.406 . S
C223 C228 1.261 . S
C224 H191 0.930 . S
C224 N226 1.325 . S
C224 C227 1.357 . S
C225 H193 0.933 . S
C225 C223 1.406 . S
C225 N226 1.256 1_655 S
N226 Co177 2.214 . S
N226 C224 1.325 . S
N226 C225 1.256 1_455 S
C227 H197 0.931 . S
C227 C224 1.357 . S
C227 C228 1.312 1_455 S
C228 H199 0.930 1_556 S
C228 C223 1.261 . S
C228 C227 1.312 1_655 S
C229 O201 1.214 . S
C229 O209 1.234 . S
C230 H202 0.929 . S
C230 C233 1.391 . S
C230 C235 1.391 . S
C231 H203 0.929 . S
C231 C232 1.390 . S
C231 N234 1.391 . S
C232 H204 0.930 . S
C232 C231 1.390 . S
C232 C233 1.392 . S
C233 H205 0.929 . S
C233 C230 1.391 . S
C233 C232 1.392 . S
N234 Co178 2.257 . S
N234 C231 1.391 . S
N234 C235 1.388 . S
C235 H206 0.930 . S
C235 C230 1.391 . S
C235 N234 1.388 . S
Co236 O238 2.143 . S
Co236 O244 2.074 . S
Co236 O247 2.093 . S
Co236 O260 2.097 . S
Co236 N277 2.151 . S
Co236 N285 2.214 . S
Co237 O238 2.160 . S
Co237 O243 2.058 . S
Co237 O253 2.057 . S
Co237 O268 2.037 . S
Co237 N272 2.145 . S
Co237 N293 2.257 . S
O238 Co236 2.143 . S
O238 Co237 2.160 . S
C239 O240 1.278 . S
C239 O247 1.224 . S
O240 C239 1.278 . S
C241 O242 1.245 . S
C241 O253 1.232 . S
O242 C241 1.245 . S
O243 Co237 2.058 . S
O243 C269 1.269 . S
O244 Co236 2.074 . S
O244 C269 1.257 . S
H245 C270 0.930 . S
H246 C276 0.930 . S
O247 Co236 2.093 . S
O247 C239 1.224 . S
H248 C280 0.929 . S
H249 C282 0.930 . S
H250 C283 0.930 . S
H251 C281 0.929 . S
H252 C284 0.928 . S
O253 Co237 2.057 . S
O253 C241 1.232 . S
H254 C273 0.929 . S
H255 C274 0.929 . S
H256 C286 0.931 . S
H257 C278 0.929 . S
H258 C287 0.930 . S
H259 C279 0.931 . S
O260 Co236 2.097 . S
O260 C288 1.214 . S
H261 C289 0.929 . S
H262 C290 0.929 . S
H263 C291 0.930 . S
H264 C292 0.929 . S
H265 C294 0.930 . S
H266 C271 0.930 1_554 S
H267 C275 0.930 1_554 S
O268 Co237 2.037 . S
O268 C288 1.234 . S
C269 O243 1.269 . S
C269 O244 1.257 . S
C270 H245 0.930 . S
C270 C273 1.388 . S
C270 C275 1.418 . S
C271 H266 0.930 1_556 S
C271 C274 1.404 . S
C271 C275 1.353 . S
N272 Co237 2.145 . S
N272 C273 1.397 . S
N272 C274 1.334 . S
C273 H254 0.929 . S
C273 C270 1.388 . S
C273 N272 1.397 . S
C274 H255 0.929 . S
C274 C271 1.404 . S
C274 N272 1.334 . S
C275 H267 0.930 1_556 S
C275 C270 1.418 . S
C275 C271 1.353 . S
C276 H246 0.930 . S
C276 N277 1.330 . S
C276 C278 1.446 . S
N277 Co236 2.151 . S
N277 C276 1.330 . S
N277 C281 1.418 . S
C278 H257 0.929 . S
C278 C276 1.446 . S
C278 C279 1.332 . S
C279 H259 0.931 . S
C279 C278 1.332 . S
C279 C280 1.267 . S
C280 H248 0.929 . S
C280 C279 1.267 . S
C280 C281 1.251 . S
C281 H251 0.929 . S
C281 N277 1.418 . S
C281 C280 1.251 . S
C282 H249 0.930 . S
C282 C284 1.406 . S
C282 C287 1.261 . S
C283 H250 0.930 . S
C283 N285 1.325 . S
C283 C286 1.357 . S
C284 H252 0.928 . S
C284 C282 1.406 . S
C284 N285 1.261 . S
N285 Co236 2.214 . S
N285 C283 1.325 . S
N285 C284 1.261 . S
C286 H256 0.931 . S
C286 C283 1.357 . S
C286 C287 1.312 . S
C287 H258 0.930 . S
C287 C282 1.261 . S
C287 C286 1.312 . S
C288 O260 1.214 . S
C288 O268 1.234 . S
C289 H261 0.929 . S
C289 C292 1.391 . S
C289 C294 1.391 . S
C290 H262 0.929 . S
C290 C291 1.390 . S
C290 N293 1.391 . S
C291 H263 0.930 . S
C291 C290 1.390 . S
C291 C292 1.392 . S
C292 H264 0.929 . S
C292 C289 1.391 . S
C292 C291 1.392 . S
N293 Co237 2.257 . S
N293 C290 1.391 . S
N293 C294 1.388 . S
C294 H265 0.930 . S
C294 C289 1.391 . S
C294 N293 1.388 . S
Co295 O297 2.143 . S
Co295 O303 2.074 . S
Co295 O306 2.093 . S
Co295 O319 2.097 . S
Co295 N336 2.151 . S
Co295 N344 2.214 . S
Co296 O297 2.160 . S
Co296 O302 2.058 . S
Co296 O312 2.057 . S
Co296 O327 2.037 . S
Co296 N331 2.145 . S
Co296 N352 2.257 . S
O297 Co295 2.143 . S
O297 Co296 2.160 . S
C298 O299 1.278 . S
C298 O306 1.224 . S
O299 C298 1.278 . S
C300 O301 1.245 . S
C300 O312 1.232 . S
O301 C300 1.245 . S
O302 Co296 2.058 . S
O302 C328 1.269 . S
O303 Co295 2.074 . S
O303 C328 1.257 . S
H304 C329 0.930 . S
H305 C335 0.930 . S
O306 Co295 2.093 . S
O306 C298 1.224 . S
H307 C339 0.929 . S
H308 C341 0.930 1_554 S
H309 C342 0.930 . S
H310 C340 0.929 . S
H311 C343 0.928 . S
O312 Co296 2.057 . S
O312 C300 1.232 . S
H313 C332 0.929 . S
H314 C333 0.929 . S
H315 C345 0.931 . S
H316 C337 0.929 . S
H317 C346 0.930 1_554 S
H318 C338 0.931 . S
O319 Co295 2.097 . S
O319 C347 1.214 . S
H320 C348 0.929 . S
H321 C349 0.929 . S
H322 C350 0.930 . S
H323 C351 0.929 . S
H324 C353 0.930 . S
H325 C330 0.930 . S
H326 C334 0.930 . S
O327 Co296 2.037 . S
O327 C347 1.234 . S
C328 O302 1.269 . S
C328 O303 1.257 . S
C329 H304 0.930 . S
C329 C332 1.388 1_565 S
C329 C334 1.418 . S
C330 H325 0.930 . S
C330 C333 1.404 1_565 S
C330 C334 1.353 . S
N331 Co296 2.145 . S
N331 C332 1.397 . S
N331 C333 1.334 . S
C332 H313 0.929 . S
C332 C329 1.388 1_545 S
C332 N331 1.397 . S
C333 H314 0.929 . S
C333 C330 1.404 1_545 S
C333 N331 1.334 . S
C334 H326 0.930 . S
C334 C329 1.418 . S
C334 C330 1.353 . S
C335 H305 0.930 . S
C335 N336 1.330 . S
C335 C337 1.446 . S
N336 Co295 2.151 . S
N336 C335 1.330 . S
N336 C340 1.418 . S
C337 H316 0.929 . S
C337 C335 1.446 . S
C337 C338 1.332 . S
C338 H318 0.931 . S
C338 C337 1.332 . S
C338 C339 1.267 . S
C339 H307 0.929 . S
C339 C338 1.267 . S
C339 C340 1.251 . S
C340 H310 0.929 . S
C340 N336 1.418 . S
C340 C339 1.251 . S
C341 H308 0.930 1_556 S
C341 C343 1.406 . S
C341 C346 1.261 . S
C342 H309 0.930 . S
C342 N344 1.325 . S
C342 C345 1.357 . S
C343 H311 0.928 . S
C343 C341 1.406 . S
C343 N344 1.261 . S
N344 Co295 2.214 . S
N344 C342 1.325 . S
N344 C343 1.261 . S
C345 H315 0.931 . S
C345 C342 1.357 . S
C345 C346 1.312 . S
C346 H317 0.930 1_556 S
C346 C341 1.261 . S
C346 C345 1.312 . S
C347 O319 1.214 . S
C347 O327 1.234 . S
C348 H320 0.929 . S
C348 C351 1.391 . S
C348 C353 1.391 1_565 S
C349 H321 0.929 . S
C349 C350 1.390 . S
C349 N352 1.391 1_565 S
C350 H322 0.930 . S
C350 C349 1.390 . S
C350 C351 1.392 . S
C351 H323 0.929 . S
C351 C348 1.391 . S
C351 C350 1.392 . S
N352 Co296 2.257 . S
N352 C349 1.391 1_545 S
N352 C353 1.388 . S
C353 H324 0.930 . S
C353 C348 1.391 1_545 S
C353 N352 1.388 . S
Co354 O356 2.143 . S
Co354 O362 2.074 . S
Co354 O365 2.093 . S
Co354 O378 2.097 . S
Co354 N395 2.151 . S
Co354 N403 2.214 . S
Co355 O356 2.160 . S
Co355 O361 2.058 . S
Co355 O371 2.057 . S
Co355 O386 2.037 1_565 S
Co355 N390 2.145 1_565 S
Co355 N411 2.257 . S
O356 Co354 2.143 . S
O356 Co355 2.160 . S
C357 O358 1.278 . S
C357 O365 1.224 . S
O358 C357 1.278 . S
C359 O360 1.245 . S
C359 O371 1.232 . S
O360 C359 1.245 . S
O361 Co355 2.058 . S
O361 C387 1.269 . S
O362 Co354 2.074 . S
O362 C387 1.257 . S
H363 C388 0.930 . S
H364 C394 0.930 . S
O365 Co354 2.093 . S
O365 C357 1.224 . S
H366 C398 0.929 . S
H367 C400 0.930 . S
H368 C401 0.935 . S
H369 C399 0.929 . S
H370 C402 0.928 . S
O371 Co355 2.057 . S
O371 C359 1.232 . S
H372 C391 0.929 . S
H373 C392 0.929 1_565 S
H374 C404 0.931 . S
H375 C396 0.929 . S
H376 C405 0.915 1_545 S
H377 C397 0.931 . S
O378 Co354 2.097 . S
O378 C406 1.214 1_565 S
H379 C407 0.929 . S
H380 C408 0.929 . S
H381 C409 0.930 . S
H382 C410 0.929 . S
H383 C412 0.930 . S
H384 C389 0.930 . S
H385 C393 0.930 . S
O386 Co355 2.037 1_545 S
O386 C406 1.234 . S
C387 O361 1.269 . S
C387 O362 1.257 . S
C388 H363 0.930 . S
C388 C391 1.388 . S
C388 C393 1.418 . S
C389 H384 0.930 . S
C389 C392 1.404 . S
C389 C393 1.353 . S
N390 Co355 2.145 1_545 S
N390 C391 1.397 . S
N390 C392 1.334 . S
C391 H372 0.929 . S
C391 C388 1.388 . S
C391 N390 1.397 . S
C392 H373 0.929 1_545 S
C392 C389 1.404 . S
C392 N390 1.334 . S
C393 H385 0.930 . S
C393 C388 1.418 . S
C393 C389 1.353 . S
C394 H364 0.930 . S
C394 N395 1.330 . S
C394 C396 1.446 . S
N395 Co354 2.151 . S
N395 C394 1.330 . S
N395 C399 1.418 . S
C396 H375 0.929 . S
C396 C394 1.446 . S
C396 C397 1.332 . S
C397 H377 0.931 . S
C397 C396 1.332 . S
C397 C398 1.267 . S
C398 H366 0.929 . S
C398 C397 1.267 . S
C398 C399 1.251 . S
C399 H369 0.929 . S
C399 N395 1.418 . S
C399 C398 1.251 . S
C400 H367 0.930 . S
C400 C402 1.406 . S
C400 C405 1.261 . S
C401 H368 0.935 . S
C401 N403 1.310 1_545 S
C401 C404 1.368 . S
C402 H370 0.928 . S
C402 C400 1.406 . S
C402 N403 1.261 . S
N403 Co354 2.214 . S
N403 C401 1.310 1_565 S
N403 C402 1.261 . S
C404 H374 0.931 . S
C404 C401 1.368 . S
C404 C405 1.312 1_545 S
C405 H376 0.915 1_565 S
C405 C400 1.261 . S
C405 C404 1.312 1_565 S
C406 O378 1.214 1_545 S
C406 O386 1.234 . S
C407 H379 0.929 . S
C407 C410 1.391 . S
C407 C412 1.391 . S
C408 H380 0.929 . S
C408 C409 1.390 . S
C408 N411 1.391 1_545 S
C409 H381 0.930 . S
C409 C408 1.390 . S
C409 C410 1.392 1_545 S
C410 H382 0.929 . S
C410 C407 1.391 . S
C410 C409 1.392 1_565 S
N411 Co355 2.257 . S
N411 C408 1.391 1_565 S
N411 C412 1.388 . S
C412 H383 0.930 . S
C412 C407 1.391 . S
C412 N411 1.388 . S
Co413 O415 2.143 . S
Co413 O421 2.074 . S
Co413 O424 2.093 . S
Co413 O437 2.097 . S
Co413 N454 2.151 . S
Co413 N462 2.214 . S
Co414 O415 2.160 . S
Co414 O420 2.058 . S
Co414 O430 2.057 . S
Co414 O445 2.037 . S
Co414 N449 2.145 . S
Co414 N470 2.257 . S
O415 Co413 2.143 . S
O415 Co414 2.160 . S
C416 O417 1.278 . S
C416 O424 1.224 . S
O417 C416 1.278 . S
C418 O419 1.245 . S
C418 O430 1.232 . S
O419 C418 1.245 . S
O420 Co414 2.058 . S
O420 C446 1.269 . S
O421 Co413 2.074 . S
O421 C446 1.257 . S
H422 C447 0.930 . S
H423 C453 0.930 . S
O424 Co413 2.093 . S
O424 C416 1.224 . S
H425 C457 0.929 . S
H426 C459 0.930 . S
H427 C460 0.930 . S
H428 C458 0.929 . S
H429 C461 0.928 . S
O430 Co414 2.057 . S
O430 C418 1.232 . S
H431 C450 0.929 . S
H432 C451 0.929 . S
H433 C463 0.931 . S
H434 C455 0.929 . S
H435 C464 0.930 . S
H436 C456 0.931 . S
O437 Co413 2.097 . S
O437 C465 1.214 . S
H438 C466 0.929 . S
H439 C467 0.929 . S
H440 C468 0.930 . S
H441 C469 0.929 . S
H442 C471 0.930 . S
H443 C448 0.930 . S
H444 C452 0.930 . S
O445 Co414 2.037 . S
O445 C465 1.234 . S
C446 O420 1.269 . S
C446 O421 1.257 . S
C447 H422 0.930 . S
C447 C450 1.388 . S
C447 C452 1.418 . S
C448 H443 0.930 . S
C448 C451 1.404 . S
C448 C452 1.353 . S
N449 Co414 2.145 . S
N449 C450 1.397 . S
N449 C451 1.334 . S
C450 H431 0.929 . S
C450 C447 1.388 . S
C450 N449 1.397 . S
C451 H432 0.929 . S
C451 C448 1.404 . S
C451 N449 1.334 . S
C452 H444 0.930 . S
C452 C447 1.418 . S
C452 C448 1.353 . S
C453 H423 0.930 . S
C453 N454 1.330 . S
C453 C455 1.446 . S
N454 Co413 2.151 . S
N454 C453 1.330 . S
N454 C458 1.418 . S
C455 H434 0.929 . S
C455 C453 1.446 . S
C455 C456 1.332 . S
C456 H436 0.931 . S
C456 C455 1.332 . S
C456 C457 1.267 . S
C457 H425 0.929 . S
C457 C456 1.267 . S
C457 C458 1.251 . S
C458 H428 0.929 . S
C458 N454 1.418 . S
C458 C457 1.251 . S
C459 H426 0.930 . S
C459 C461 1.406 . S
C459 C464 1.261 . S
C460 H427 0.930 . S
C460 N462 1.325 . S
C460 C463 1.357 . S
C461 H429 0.928 . S
C461 C459 1.406 . S
C461 N462 1.261 . S
N462 Co413 2.214 . S
N462 C460 1.325 . S
N462 C461 1.261 . S
C463 H433 0.931 . S
C463 C460 1.357 . S
C463 C464 1.312 . S
C464 H435 0.930 . S
C464 C459 1.261 . S
C464 C463 1.312 . S
C465 O437 1.214 . S
C465 O445 1.234 . S
C466 H438 0.929 . S
C466 C469 1.391 . S
C466 C471 1.391 . S
C467 H439 0.929 . S
C467 C468 1.390 . S
C467 N470 1.391 . S
C468 H440 0.930 . S
C468 C467 1.390 . S
C468 C469 1.392 . S
C469 H441 0.929 . S
C469 C466 1.391 . S
C469 C468 1.392 . S
N470 Co414 2.257 . S
N470 C467 1.391 . S
N470 C471 1.388 . S
C471 H442 0.930 . S
C471 C466 1.391 . S
C471 N470 1.388 . S
Co472 O474 2.143 . S
Co472 O480 2.074 . S
Co472 O483 2.093 . S
Co472 O496 2.097 . S
Co472 N513 2.151 . S
Co472 N521 2.214 . S
Co473 O474 2.160 . S
Co473 O479 2.058 . S
Co473 O489 2.057 . S
Co473 O504 2.037 . S
Co473 N508 2.145 . S
Co473 N529 2.257 . S
O474 Co472 2.143 . S
O474 Co473 2.160 . S
C475 O476 1.278 . S
C475 O483 1.224 . S
O476 C475 1.278 . S
C477 O478 1.245 . S
C477 O489 1.232 . S
O478 C477 1.245 . S
O479 Co473 2.058 . S
O479 C505 1.269 . S
O480 Co472 2.074 . S
O480 C505 1.257 . S
H481 C506 0.930 . S
H482 C512 0.930 . S
O483 Co472 2.093 . S
O483 C475 1.224 . S
H484 C516 0.929 . S
H485 C518 0.930 . S
H486 C519 0.930 . S
H487 C517 0.929 . S
H488 C520 0.928 . S
O489 Co473 2.057 . S
O489 C477 1.232 . S
H490 C509 0.929 . S
H491 C510 0.929 . S
H492 C522 0.931 . S
H493 C514 0.929 . S
H494 C523 0.930 . S
H495 C515 0.931 . S
O496 Co472 2.097 . S
O496 C524 1.214 . S
H497 C525 0.929 . S
H498 C526 0.929 . S
H499 C527 0.930 . S
H500 C528 0.929 . S
H501 C530 0.930 . S
H502 C507 0.930 . S
H503 C511 0.930 . S
O504 Co473 2.037 . S
O504 C524 1.234 . S
C505 O479 1.269 . S
C505 O480 1.257 . S
C506 H481 0.930 . S
C506 C509 1.388 . S
C506 C511 1.418 . S
C507 H502 0.930 . S
C507 C510 1.404 . S
C507 C511 1.353 . S
N508 Co473 2.145 . S
N508 C509 1.397 . S
N508 C510 1.334 . S
C509 H490 0.929 . S
C509 C506 1.388 . S
C509 N508 1.397 . S
C510 H491 0.929 . S
C510 C507 1.404 . S
C510 N508 1.334 . S
C511 H503 0.930 . S
C511 C506 1.418 . S
C511 C507 1.353 . S
C512 H482 0.930 . S
C512 N513 1.330 . S
C512 C514 1.446 . S
N513 Co472 2.151 . S
N513 C512 1.330 . S
N513 C517 1.418 . S
C514 H493 0.929 . S
C514 C512 1.446 . S
C514 C515 1.332 . S
C515 H495 0.931 . S
C515 C514 1.332 . S
C515 C516 1.267 . S
C516 H484 0.929 . S
C516 C515 1.267 . S
C516 C517 1.251 . S
C517 H487 0.929 . S
C517 N513 1.418 . S
C517 C516 1.251 . S
C518 H485 0.930 . S
C518 C520 1.406 . S
C518 C523 1.261 . S
C519 H486 0.930 . S
C519 N521 1.325 . S
C519 C522 1.357 . S
C520 H488 0.928 . S
C520 C518 1.406 . S
C520 N521 1.261 . S
N521 Co472 2.214 . S
N521 C519 1.325 . S
N521 C520 1.261 . S
C522 H492 0.931 . S
C522 C519 1.357 . S
C522 C523 1.312 . S
C523 H494 0.930 . S
C523 C518 1.261 . S
C523 C522 1.312 . S
C524 O496 1.214 . S
C524 O504 1.234 . S
C525 H497 0.929 . S
C525 C528 1.391 . S
C525 C530 1.391 . S
C526 H498 0.929 . S
C526 C527 1.390 . S
C526 N529 1.391 . S
C527 H499 0.930 . S
C527 C526 1.390 . S
C527 C528 1.392 . S
C528 H500 0.929 . S
C528 C525 1.391 . S
C528 C527 1.392 . S
N529 Co473 2.257 . S
N529 C526 1.391 . S
N529 C530 1.388 . S
C530 H501 0.930 . S
C530 C525 1.391 . S
C530 N529 1.388 . S
Co531 O533 2.143 . S
Co531 O539 2.074 . S
Co531 O542 2.093 . S
Co531 O555 2.097 . S
Co531 N572 2.151 . S
Co531 N580 2.214 . S
Co532 O533 2.160 . S
Co532 O538 2.058 1_554 S
Co532 O548 2.057 1_554 S
Co532 O563 2.037 . S
Co532 N567 2.145 1_554 S
Co532 N588 2.257 . S
O533 Co531 2.143 . S
O533 Co532 2.160 . S
C534 O535 1.278 . S
C534 O542 1.224 . S
O535 C534 1.278 . S
C536 O537 1.245 . S
C536 O548 1.232 . S
O537 C536 1.245 . S
O538 Co532 2.058 1_556 S
O538 C564 1.269 1_556 S
O539 Co531 2.074 . S
O539 C564 1.257 . S
H540 C565 0.930 . S
H541 C571 0.930 . S
O542 Co531 2.093 . S
O542 C534 1.224 . S
H543 C575 0.929 . S
H544 C577 0.930 . S
H545 C578 0.930 . S
H546 C576 0.929 . S
H547 C579 0.928 . S
O548 Co532 2.057 1_556 S
O548 C536 1.232 . S
H549 C568 0.929 . S
H550 C569 0.929 . S
H551 C581 0.931 . S
H552 C573 0.929 . S
H553 C582 0.930 . S
H554 C574 0.931 . S
O555 Co531 2.097 . S
O555 C583 1.214 . S
H556 C584 0.929 . S
H557 C585 0.929 . S
H558 C586 0.930 . S
H559 C587 0.929 . S
H560 C589 0.930 . S
H561 C566 0.930 . S
H562 C570 0.930 . S
O563 Co532 2.037 . S
O563 C583 1.234 . S
C564 O538 1.269 1_554 S
C564 O539 1.257 . S
C565 H540 0.930 . S
C565 C568 1.388 . S
C565 C570 1.418 . S
C566 H561 0.930 . S
C566 C569 1.404 . S
C566 C570 1.353 . S
N567 Co532 2.145 1_556 S
N567 C568 1.397 . S
N567 C569 1.334 . S
C568 H549 0.929 . S
C568 C565 1.388 . S
C568 N567 1.397 . S
C569 H550 0.929 . S
C569 C566 1.404 . S
C569 N567 1.334 . S
C570 H562 0.930 . S
C570 C565 1.418 . S
C570 C566 1.353 . S
C571 H541 0.930 . S
C571 N572 1.330 . S
C571 C573 1.446 . S
N572 Co531 2.151 . S
N572 C571 1.330 . S
N572 C576 1.418 . S
C573 H552 0.929 . S
C573 C571 1.446 . S
C573 C574 1.332 . S
C574 H554 0.931 . S
C574 C573 1.332 . S
C574 C575 1.267 . S
C575 H543 0.929 . S
C575 C574 1.267 . S
C575 C576 1.251 . S
C576 H546 0.929 . S
C576 N572 1.418 . S
C576 C575 1.251 . S
C577 H544 0.930 . S
C577 C579 1.406 . S
C577 C582 1.261 . S
C578 H545 0.930 . S
C578 N580 1.325 . S
C578 C581 1.357 . S
C579 H547 0.928 . S
C579 C577 1.406 . S
C579 N580 1.261 . S
N580 Co531 2.214 . S
N580 C578 1.325 . S
N580 C579 1.261 . S
C581 H551 0.931 . S
C581 C578 1.357 . S
C581 C582 1.312 . S
C582 H553 0.930 . S
C582 C577 1.261 . S
C582 C581 1.312 . S
C583 O555 1.214 . S
C583 O563 1.234 . S
C584 H556 0.929 . S
C584 C587 1.391 . S
C584 C589 1.391 . S
C585 H557 0.929 . S
C585 C586 1.390 . S
C585 N588 1.391 . S
C586 H558 0.930 . S
C586 C585 1.390 . S
C586 C587 1.392 . S
C587 H559 0.929 . S
C587 C584 1.391 . S
C587 C586 1.392 . S
N588 Co532 2.257 . S
N588 C585 1.391 . S
N588 C589 1.388 . S
C589 H560 0.930 . S
C589 C584 1.391 . S
C589 N588 1.388 . S
Co590 O592 2.143 . S
Co590 O598 2.074 . S
Co590 O601 2.093 . S
Co590 O614 2.097 . S
Co590 N631 2.151 . S
Co590 N639 2.214 . S
Co591 O592 2.160 . S
Co591 O597 2.058 1_554 S
Co591 O607 2.057 1_554 S
Co591 O622 2.037 1_565 S
Co591 N626 2.145 1_564 S
Co591 N647 2.257 . S
O592 Co590 2.143 . S
O592 Co591 2.160 . S
C593 O594 1.278 . S
C593 O601 1.224 . S
O594 C593 1.278 . S
C595 O596 1.245 . S
C595 O607 1.232 . S
O596 C595 1.245 . S
O597 Co591 2.058 1_556 S
O597 C623 1.269 1_556 S
O598 Co590 2.074 . S
O598 C623 1.257 . S
H599 C624 0.930 . S
H600 C630 0.930 . S
O601 Co590 2.093 . S
O601 C593 1.224 . S
H602 C634 0.929 . S
H603 C636 0.930 . S
H604 C637 0.948 . S
H605 C635 0.929 . S
H606 C638 0.928 . S
O607 Co591 2.057 1_556 S
O607 C595 1.232 . S
H608 C627 0.929 . S
H609 C628 0.929 1_565 S
H610 C640 0.931 . S
H611 C632 0.929 . S
H612 C641 0.934 1_545 S
H613 C633 0.931 . S
O614 Co590 2.097 . S
O614 C642 1.214 1_565 S
H615 C643 0.929 . S
H616 C644 0.929 . S
H617 C645 0.930 . S
H618 C646 0.929 . S
H619 C648 0.930 . S
H620 C625 0.930 . S
H621 C629 0.930 . S
O622 Co591 2.037 1_545 S
O622 C642 1.234 . S
C623 O597 1.269 1_554 S
C623 O598 1.257 . S
C624 H599 0.930 . S
C624 C627 1.388 . S
C624 C629 1.418 . S
C625 H620 0.930 . S
C625 C628 1.404 . S
C625 C629 1.353 . S
N626 Co591 2.145 1_546 S
N626 C627 1.397 . S
N626 C628 1.334 . S
C627 H608 0.929 . S
C627 C624 1.388 . S
C627 N626 1.397 . S
C628 H609 0.929 1_545 S
C628 C625 1.404 . S
C628 N626 1.334 . S
C629 H621 0.930 . S
C629 C624 1.418 . S
C629 C625 1.353 . S
C630 H600 0.930 . S
C630 N631 1.330 . S
C630 C632 1.446 . S
N631 Co590 2.151 . S
N631 C630 1.330 . S
N631 C635 1.418 . S
C632 H611 0.929 . S
C632 C630 1.446 . S
C632 C633 1.332 . S
C633 H613 0.931 . S
C633 C632 1.332 . S
C633 C634 1.267 . S
C634 H602 0.929 . S
C634 C633 1.267 . S
C634 C635 1.251 . S
C635 H605 0.929 . S
C635 N631 1.418 . S
C635 C634 1.251 . S
C636 H603 0.930 . S
C636 C638 1.406 . S
C636 C641 1.261 . S
C637 H604 0.948 . S
C637 N639 1.310 1_545 S
C637 C640 1.356 . S
C638 H606 0.928 . S
C638 C636 1.406 . S
C638 N639 1.261 . S
N639 Co590 2.214 . S
N639 C637 1.310 1_565 S
N639 C638 1.261 . S
C640 H610 0.931 . S
C640 C637 1.356 . S
C640 C641 1.312 1_545 S
C641 H612 0.934 1_565 S
C641 C636 1.261 . S
C641 C640 1.312 1_565 S
C642 O614 1.214 1_545 S
C642 O622 1.234 . S
C643 H615 0.929 . S
C643 C646 1.391 . S
C643 C648 1.391 . S
C644 H616 0.929 . S
C644 C645 1.390 . S
C644 N647 1.391 1_545 S
C645 H617 0.930 . S
C645 C644 1.390 . S
C645 C646 1.392 1_545 S
C646 H618 0.929 . S
C646 C643 1.391 . S
C646 C645 1.392 1_565 S
N647 Co591 2.257 . S
N647 C644 1.391 1_565 S
N647 C648 1.388 . S
C648 H619 0.930 . S
C648 C643 1.391 . S
C648 N647 1.388 . S
Co649 O651 2.143 . S
Co649 O657 2.074 . S
Co649 O660 2.093 . S
Co649 O673 2.097 . S
Co649 N690 2.151 . S
Co649 N698 2.214 . S
Co650 O651 2.160 . S
Co650 O656 2.058 1_554 S
Co650 O666 2.057 1_554 S
Co650 O681 2.037 . S
Co650 N685 2.145 1_554 S
Co650 N706 2.257 . S
O651 Co649 2.143 . S
O651 Co650 2.160 . S
C652 O653 1.278 . S
C652 O660 1.224 . S
O653 C652 1.278 . S
C654 O655 1.245 . S
C654 O666 1.232 . S
O655 C654 1.245 . S
O656 Co650 2.058 1_556 S
O656 C682 1.269 1_556 S
O657 Co649 2.074 . S
O657 C682 1.257 . S
H658 C683 0.930 . S
H659 C689 0.930 . S
O660 Co649 2.093 . S
O660 C652 1.224 . S
H661 C693 0.929 . S
H662 C695 0.930 . S
H663 C696 0.930 . S
H664 C694 0.929 . S
H665 C697 0.928 . S
O666 Co650 2.057 1_556 S
O666 C654 1.232 . S
H667 C686 0.929 . S
H668 C687 0.929 . S
H669 C699 0.931 . S
H670 C691 0.929 . S
H671 C700 0.930 . S
H672 C692 0.931 . S
O673 Co649 2.097 . S
O673 C701 1.214 . S
H674 C702 0.929 . S
H675 C703 0.929 . S
H676 C704 0.930 . S
H677 C705 0.929 . S
H678 C707 0.930 . S
H679 C684 0.930 . S
H680 C688 0.930 . S
O681 Co650 2.037 . S
O681 C701 1.234 . S
C682 O656 1.269 1_554 S
C682 O657 1.257 . S
C683 H658 0.930 . S
C683 C686 1.388 . S
C683 C688 1.418 . S
C684 H679 0.930 . S
C684 C687 1.404 . S
C684 C688 1.353 . S
N685 Co650 2.145 1_556 S
N685 C686 1.397 . S
N685 C687 1.334 . S
C686 H667 0.929 . S
C686 C683 1.388 . S
C686 N685 1.397 . S
C687 H668 0.929 . S
C687 C684 1.404 . S
C687 N685 1.334 . S
C688 H680 0.930 . S
C688 C683 1.418 . S
C688 C684 1.353 . S
C689 H659 0.930 . S
C689 N690 1.330 . S
C689 C691 1.446 . S
N690 Co649 2.151 . S
N690 C689 1.330 . S
N690 C694 1.418 . S
C691 H670 0.929 . S
C691 C689 1.446 . S
C691 C692 1.332 . S
C692 H672 0.931 . S
C692 C691 1.332 . S
C692 C693 1.267 . S
C693 H661 0.929 . S
C693 C692 1.267 . S
C693 C694 1.251 . S
C694 H664 0.929 . S
C694 N690 1.418 . S
C694 C693 1.251 . S
C695 H662 0.930 . S
C695 C697 1.406 . S
C695 C700 1.261 . S
C696 H663 0.930 . S
C696 N698 1.325 . S
C696 C699 1.357 . S
C697 H665 0.928 . S
C697 C695 1.406 . S
C697 N698 1.261 . S
N698 Co649 2.214 . S
N698 C696 1.325 . S
N698 C697 1.261 . S
C699 H669 0.931 . S
C699 C696 1.357 . S
C699 C700 1.312 . S
C700 H671 0.930 . S
C700 C695 1.261 . S
C700 C699 1.312 . S
C701 O673 1.214 . S
C701 O681 1.234 . S
C702 H674 0.929 . S
C702 C705 1.391 . S
C702 C707 1.391 . S
C703 H675 0.929 . S
C703 C704 1.390 . S
C703 N706 1.391 . S
C704 H676 0.930 . S
C704 C703 1.390 . S
C704 C705 1.392 . S
C705 H677 0.929 . S
C705 C702 1.391 . S
C705 C704 1.392 . S
N706 Co650 2.257 . S
N706 C703 1.391 . S
N706 C707 1.388 . S
C707 H678 0.930 . S
C707 C702 1.391 . S
C707 N706 1.388 . S
Co708 O710 2.143 . S
Co708 O716 2.074 . S
Co708 O719 2.093 . S
Co708 O732 2.097 . S
Co708 N749 2.151 . S
Co708 N757 2.214 . S
Co709 O710 2.160 . S
Co709 O715 2.058 1_556 S
Co709 O725 2.057 1_556 S
Co709 O740 2.037 . S
Co709 N744 2.145 1_556 S
Co709 N765 2.257 . S
O710 Co708 2.143 . S
O710 Co709 2.160 . S
C711 O712 1.278 . S
C711 O719 1.224 . S
O712 C711 1.278 . S
C713 O714 1.245 . S
C713 O725 1.232 . S
O714 C713 1.245 . S
O715 Co709 2.058 1_554 S
O715 C741 1.269 1_554 S
O716 Co708 2.074 . S
O716 C741 1.257 . S
H717 C742 0.930 . S
H718 C748 0.930 . S
O719 Co708 2.093 . S
O719 C711 1.224 . S
H720 C752 0.929 . S
H721 C754 0.930 . S
H722 C755 0.930 . S
H723 C753 0.929 . S
H724 C756 0.928 . S
O725 Co709 2.057 1_554 S
O725 C713 1.232 . S
H726 C745 0.929 . S
H727 C746 0.929 . S
H728 C758 0.931 . S
H729 C750 0.929 . S
H730 C759 0.930 . S
H731 C751 0.931 . S
O732 Co708 2.097 . S
O732 C760 1.214 . S
H733 C761 0.929 . S
H734 C762 0.929 . S
H735 C763 0.930 . S
H736 C764 0.929 . S
H737 C766 0.930 . S
H738 C743 0.930 . S
H739 C747 0.930 . S
O740 Co709 2.037 . S
O740 C760 1.234 . S
C741 O715 1.269 1_556 S
C741 O716 1.257 . S
C742 H717 0.930 . S
C742 C745 1.388 . S
C742 C747 1.418 . S
C743 H738 0.930 . S
C743 C746 1.404 . S
C743 C747 1.353 . S
N744 Co709 2.145 1_554 S
N744 C745 1.397 . S
N744 C746 1.334 . S
C745 H726 0.929 . S
C745 C742 1.388 . S
C745 N744 1.397 . S
C746 H727 0.929 . S
C746 C743 1.404 . S
C746 N744 1.334 . S
C747 H739 0.930 . S
C747 C742 1.418 . S
C747 C743 1.353 . S
C748 H718 0.930 . S
C748 N749 1.330 . S
C748 C750 1.446 . S
N749 Co708 2.151 . S
N749 C748 1.330 . S
N749 C753 1.418 . S
C750 H729 0.929 . S
C750 C748 1.446 . S
C750 C751 1.332 . S
C751 H731 0.931 . S
C751 C750 1.332 . S
C751 C752 1.267 . S
C752 H720 0.929 . S
C752 C751 1.267 . S
C752 C753 1.251 . S
C753 H723 0.929 . S
C753 N749 1.418 . S
C753 C752 1.251 . S
C754 H721 0.930 . S
C754 C756 1.406 . S
C754 C759 1.261 . S
C755 H722 0.930 . S
C755 N757 1.325 . S
C755 C758 1.357 . S
C756 H724 0.928 . S
C756 C754 1.406 . S
C756 N757 1.261 . S
N757 Co708 2.214 . S
N757 C755 1.325 . S
N757 C756 1.261 . S
C758 H728 0.931 . S
C758 C755 1.357 . S
C758 C759 1.312 . S
C759 H730 0.930 . S
C759 C754 1.261 . S
C759 C758 1.312 . S
C760 O732 1.214 . S
C760 O740 1.234 . S
C761 H733 0.929 . S
C761 C764 1.391 . S
C761 C766 1.391 . S
C762 H734 0.929 . S
C762 C763 1.390 . S
C762 N765 1.391 . S
C763 H735 0.930 . S
C763 C762 1.390 . S
C763 C764 1.392 . S
C764 H736 0.929 . S
C764 C761 1.391 . S
C764 C763 1.392 . S
N765 Co709 2.257 . S
N765 C762 1.391 . S
N765 C766 1.388 . S
C766 H737 0.930 . S
C766 C761 1.391 . S
C766 N765 1.388 . S
Co767 O769 2.143 . S
Co767 O775 2.074 . S
Co767 O778 2.093 1_556 S
Co767 O791 2.097 1_556 S
Co767 N808 2.151 . S
Co767 N816 2.214 1_556 S
Co768 O769 2.160 . S
Co768 O774 2.058 . S
Co768 O784 2.057 . S
Co768 O799 2.037 . S
Co768 N803 2.145 . S
Co768 N824 2.257 . S
O769 Co767 2.143 . S
O769 Co768 2.160 . S
C770 O771 1.278 . S
C770 O778 1.224 . S
O771 C770 1.278 . S
C772 O773 1.245 . S
C772 O784 1.232 . S
O773 C772 1.245 . S
O774 Co768 2.058 . S
O774 C800 1.269 . S
O775 Co767 2.074 . S
O775 C800 1.257 . S
H776 C801 0.930 . S
H777 C807 0.930 . S
O778 Co767 2.093 1_554 S
O778 C770 1.224 . S
H779 C811 0.929 . S
H780 C813 0.930 . S
H781 C814 0.930 . S
H782 C812 0.929 . S
H783 C815 0.928 . S
O784 Co768 2.057 . S
O784 C772 1.232 . S
H785 C804 0.929 . S
H786 C805 0.929 . S
H787 C817 0.931 . S
H788 C809 0.929 . S
H789 C818 0.930 . S
H790 C810 0.931 . S
O791 Co767 2.097 1_554 S
O791 C819 1.214 1_554 S
H792 C820 0.929 . S
H793 C821 0.929 . S
H794 C822 0.930 . S
H795 C823 0.929 . S
H796 C825 0.930 . S
H797 C802 0.930 . S
H798 C806 0.930 . S
O799 Co768 2.037 . S
O799 C819 1.234 . S
C800 O774 1.269 . S
C800 O775 1.257 . S
C801 H776 0.930 . S
C801 C804 1.388 . S
C801 C806 1.418 . S
C802 H797 0.930 . S
C802 C805 1.404 . S
C802 C806 1.353 . S
N803 Co768 2.145 . S
N803 C804 1.397 . S
N803 C805 1.334 . S
C804 H785 0.929 . S
C804 C801 1.388 . S
C804 N803 1.397 . S
C805 H786 0.929 . S
C805 C802 1.404 . S
C805 N803 1.334 . S
C806 H798 0.930 . S
C806 C801 1.418 . S
C806 C802 1.353 . S
C807 H777 0.930 . S
C807 N808 1.330 . S
C807 C809 1.446 . S
N808 Co767 2.151 . S
N808 C807 1.330 . S
N808 C812 1.418 . S
C809 H788 0.929 . S
C809 C807 1.446 . S
C809 C810 1.332 . S
C810 H790 0.931 . S
C810 C809 1.332 . S
C810 C811 1.267 . S
C811 H779 0.929 . S
C811 C810 1.267 . S
C811 C812 1.251 . S
C812 H782 0.929 . S
C812 N808 1.418 . S
C812 C811 1.251 . S
C813 H780 0.930 . S
C813 C815 1.406 . S
C813 C818 1.261 . S
C814 H781 0.930 . S
C814 N816 1.325 . S
C814 C817 1.357 . S
C815 H783 0.928 . S
C815 C813 1.406 . S
C815 N816 1.261 . S
N816 Co767 2.214 1_554 S
N816 C814 1.325 . S
N816 C815 1.261 . S
C817 H787 0.931 . S
C817 C814 1.357 . S
C817 C818 1.312 . S
C818 H789 0.930 . S
C818 C813 1.261 . S
C818 C817 1.312 . S
C819 O791 1.214 1_556 S
C819 O799 1.234 . S
C820 H792 0.929 . S
C820 C823 1.391 . S
C820 C825 1.391 . S
C821 H793 0.929 . S
C821 C822 1.390 . S
C821 N824 1.391 . S
C822 H794 0.930 . S
C822 C821 1.390 . S
C822 C823 1.392 . S
C823 H795 0.929 . S
C823 C820 1.391 . S
C823 C822 1.392 . S
N824 Co768 2.257 . S
N824 C821 1.391 . S
N824 C825 1.388 . S
C825 H796 0.930 . S
C825 C820 1.391 . S
C825 N824 1.388 . S
Co826 O828 2.143 . S
Co826 O834 2.074 . S
Co826 O837 2.093 . S
Co826 O850 2.097 . S
Co826 N867 2.151 . S
Co826 N875 2.214 . S
Co827 O828 2.160 . S
Co827 O833 2.058 1_556 S
Co827 O843 2.057 1_556 S
Co827 O858 2.037 1_655 S
Co827 N862 2.145 1_656 S
Co827 N883 2.257 . S
O828 Co826 2.143 . S
O828 Co827 2.160 . S
C829 O830 1.278 . S
C829 O837 1.224 . S
O830 C829 1.278 . S
C831 O832 1.245 . S
C831 O843 1.232 . S
O832 C831 1.245 . S
O833 Co827 2.058 1_554 S
O833 C859 1.269 1_554 S
O834 Co826 2.074 . S
O834 C859 1.257 . S
H835 C860 0.930 . S
H836 C866 0.930 . S
O837 Co826 2.093 . S
O837 C829 1.224 . S
H838 C870 0.929 . S
H839 C872 0.930 . S
H840 C873 0.937 . S
H841 C871 0.929 . S
H842 C874 0.928 . S
O843 Co827 2.057 1_554 S
O843 C831 1.232 . S
H844 C863 0.929 . S
H845 C864 0.929 1_655 S
H846 C876 0.931 . S
H847 C868 0.929 . S
H848 C877 0.913 1_455 S
H849 C869 0.931 . S
O850 Co826 2.097 . S
O850 C878 1.214 1_655 S
H851 C879 0.929 . S
H852 C880 0.929 . S
H853 C881 0.930 . S
H854 C882 0.929 . S
H855 C884 0.930 . S
H856 C861 0.930 . S
H857 C865 0.930 . S
O858 Co827 2.037 1_455 S
O858 C878 1.234 . S
C859 O833 1.269 1_556 S
C859 O834 1.257 . S
C860 H835 0.930 . S
C860 C863 1.388 . S
C860 C865 1.418 . S
C861 H856 0.930 . S
C861 C864 1.404 . S
C861 C865 1.353 . S
N862 Co827 2.145 1_454 S
N862 C863 1.397 . S
N862 C864 1.334 . S
C863 H844 0.929 . S
C863 C860 1.388 . S
C863 N862 1.397 . S
C864 H845 0.929 1_455 S
C864 C861 1.404 . S
C864 N862 1.334 . S
C865 H857 0.930 . S
C865 C860 1.418 . S
C865 C861 1.353 . S
C866 H836 0.930 . S
C866 N867 1.330 . S
C866 C868 1.446 . S
N867 Co826 2.151 . S
N867 C866 1.330 . S
N867 C871 1.418 . S
C868 H847 0.929 . S
C868 C866 1.446 . S
C868 C869 1.332 . S
C869 H849 0.931 . S
C869 C868 1.332 . S
C869 C870 1.267 . S
C870 H838 0.929 . S
C870 C869 1.267 . S
C870 C871 1.251 . S
C871 H841 0.929 . S
C871 N867 1.418 . S
C871 C870 1.251 . S
C872 H839 0.930 . S
C872 C874 1.406 . S
C872 C877 1.261 . S
C873 H840 0.937 . S
C873 N875 1.302 1_455 S
C873 C876 1.374 . S
C874 H842 0.928 . S
C874 C872 1.406 . S
C874 N875 1.261 . S
N875 Co826 2.214 . S
N875 C873 1.302 1_655 S
N875 C874 1.261 . S
C876 H846 0.931 . S
C876 C873 1.374 . S
C876 C877 1.312 1_455 S
C877 H848 0.913 1_655 S
C877 C872 1.261 . S
C877 C876 1.312 1_655 S
C878 O850 1.214 1_455 S
C878 O858 1.234 . S
C879 H851 0.929 . S
C879 C882 1.391 . S
C879 C884 1.391 . S
C880 H852 0.929 . S
C880 C881 1.390 . S
C880 N883 1.391 1_455 S
C881 H853 0.930 . S
C881 C880 1.390 . S
C881 C882 1.392 1_455 S
C882 H854 0.929 . S
C882 C879 1.391 . S
C882 C881 1.392 1_655 S
N883 Co827 2.257 . S
N883 C880 1.391 1_655 S
N883 C884 1.388 . S
C884 H855 0.930 . S
C884 C879 1.391 . S
C884 N883 1.388 . S
Co885 O887 2.143 . S
Co885 O893 2.074 . S
Co885 O896 2.093 . S
Co885 O909 2.097 . S
Co885 N926 2.151 . S
Co885 N934 2.214 . S
Co886 O887 2.160 . S
Co886 O892 2.058 . S
Co886 O902 2.057 . S
Co886 O917 2.037 . S
Co886 N921 2.145 . S
Co886 N942 2.257 . S
O887 Co885 2.143 . S
O887 Co886 2.160 . S
C888 O889 1.278 . S
C888 O896 1.224 . S
O889 C888 1.278 . S
C890 O891 1.245 . S
C890 O902 1.232 . S
O891 C890 1.245 . S
O892 Co886 2.058 . S
O892 C918 1.269 . S
O893 Co885 2.074 . S
O893 C918 1.257 . S
H894 C919 0.930 . S
H895 C925 0.930 . S
O896 Co885 2.093 . S
O896 C888 1.224 . S
H897 C929 0.929 . S
H898 C931 0.930 . S
H899 C932 0.930 . S
H900 C930 0.929 . S
H901 C933 0.928 . S
O902 Co886 2.057 . S
O902 C890 1.232 . S
H903 C922 0.929 . S
H904 C923 0.929 . S
H905 C935 0.931 . S
H906 C927 0.929 . S
H907 C936 0.930 . S
H908 C928 0.931 . S
O909 Co885 2.097 . S
O909 C937 1.214 . S
H910 C938 0.929 . S
H911 C939 0.929 . S
H912 C940 0.930 . S
H913 C941 0.929 . S
H914 C943 0.930 . S
H915 C920 0.930 . S
H916 C924 0.930 . S
O917 Co886 2.037 . S
O917 C937 1.234 . S
C918 O892 1.269 . S
C918 O893 1.257 . S
C919 H894 0.930 . S
C919 C922 1.388 . S
C919 C924 1.418 . S
C920 H915 0.930 . S
C920 C923 1.404 . S
C920 C924 1.353 . S
N921 Co886 2.145 . S
N921 C922 1.397 . S
N921 C923 1.334 . S
C922 H903 0.929 . S
C922 C919 1.388 . S
C922 N921 1.397 . S
C923 H904 0.929 . S
C923 C920 1.404 . S
C923 N921 1.334 . S
C924 H916 0.930 . S
C924 C919 1.418 . S
C924 C920 1.353 . S
C925 H895 0.930 . S
C925 N926 1.330 . S
C925 C927 1.446 . S
N926 Co885 2.151 . S
N926 C925 1.330 . S
N926 C930 1.418 . S
C927 H906 0.929 . S
C927 C925 1.446 . S
C927 C928 1.332 . S
C928 H908 0.931 . S
C928 C927 1.332 . S
C928 C929 1.267 . S
C929 H897 0.929 . S
C929 C928 1.267 . S
C929 C930 1.251 . S
C930 H900 0.929 . S
C930 N926 1.418 . S
C930 C929 1.251 . S
C931 H898 0.930 . S
C931 C933 1.406 . S
C931 C936 1.261 . S
C932 H899 0.930 . S
C932 N934 1.325 . S
C932 C935 1.357 . S
C933 H901 0.928 . S
C933 C931 1.406 . S
C933 N934 1.261 . S
N934 Co885 2.214 . S
N934 C932 1.325 . S
N934 C933 1.261 . S
C935 H905 0.931 . S
C935 C932 1.357 . S
C935 C936 1.312 . S
C936 H907 0.930 . S
C936 C931 1.261 . S
C936 C935 1.312 . S
C937 O909 1.214 . S
C937 O917 1.234 . S
C938 H910 0.929 . S
C938 C941 1.391 . S
C938 C943 1.391 . S
C939 H911 0.929 . S
C939 C940 1.390 . S
C939 N942 1.391 . S
C940 H912 0.930 . S
C940 C939 1.390 . S
C940 C941 1.392 . S
C941 H913 0.929 . S
C941 C938 1.391 . S
C941 C940 1.392 . S
N942 Co886 2.257 . S
N942 C939 1.391 . S
N942 C943 1.388 . S
C943 H914 0.930 . S
C943 C938 1.391 . S
C943 N942 1.388 . S
Co944 O946 2.143 . S
Co944 O952 2.074 . S
Co944 O955 2.093 . S
Co944 O968 2.097 . S
Co944 N985 2.151 . S
Co944 N993 2.214 . S
Co945 O946 2.160 . S
Co945 O951 2.058 . S
Co945 O961 2.057 . S
Co945 O976 2.037 1_655 S
Co945 N980 2.145 1_655 S
Co945 N1001 2.257 . S
O946 Co944 2.143 . S
O946 Co945 2.160 . S
C947 O948 1.278 . S
C947 O955 1.224 . S
O948 C947 1.278 . S
C949 O950 1.245 . S
C949 O961 1.232 . S
O950 C949 1.245 . S
O951 Co945 2.058 . S
O951 C977 1.269 . S
O952 Co944 2.074 . S
O952 C977 1.257 . S
H953 C978 0.930 . S
H954 C984 0.930 . S
O955 Co944 2.093 . S
O955 C947 1.224 . S
H956 C988 0.929 . S
H957 C990 0.930 . S
H958 C991 0.942 . S
H959 C989 0.929 . S
H960 C992 0.928 . S
O961 Co945 2.057 . S
O961 C949 1.232 . S
H962 C981 0.929 . S
H963 C982 0.929 1_655 S
H964 C994 0.931 . S
H965 C986 0.929 . S
H966 C995 0.931 1_455 S
H967 C987 0.931 . S
O968 Co944 2.097 . S
O968 C996 1.214 1_655 S
H969 C997 0.929 . S
H970 C998 0.929 . S
H971 C999 0.930 . S
H972 C1000 0.929 . S
H973 C1002 0.930 . S
H974 C979 0.930 . S
H975 C983 0.930 . S
O976 Co945 2.037 1_455 S
O976 C996 1.234 . S
C977 O951 1.269 . S
C977 O952 1.257 . S
C978 H953 0.930 . S
C978 C981 1.388 . S
C978 C983 1.418 . S
C979 H974 0.930 . S
C979 C982 1.404 . S
C979 C983 1.353 . S
N980 Co945 2.145 1_455 S
N980 C981 1.397 . S
N980 C982 1.334 . S
C981 H962 0.929 . S
C981 C978 1.388 . S
C981 N980 1.397 . S
C982 H963 0.929 1_455 S
C982 C979 1.404 . S
C982 N980 1.334 . S
C983 H975 0.930 . S
C983 C978 1.418 . S
C983 C979 1.353 . S
C984 H954 0.930 . S
C984 N985 1.330 . S
C984 C986 1.446 . S
N985 Co944 2.151 . S
N985 C984 1.330 . S
N985 C989 1.418 . S
C986 H965 0.929 . S
C986 C984 1.446 . S
C986 C987 1.332 . S
C987 H967 0.931 . S
C987 C986 1.332 . S
C987 C988 1.267 . S
C988 H956 0.929 . S
C988 C987 1.267 . S
C988 C989 1.251 . S
C989 H959 0.929 . S
C989 N985 1.418 . S
C989 C988 1.251 . S
C990 H957 0.930 . S
C990 C992 1.406 . S
C990 C995 1.261 . S
C991 H958 0.942 . S
C991 N993 1.315 1_455 S
C991 C994 1.356 . S
C992 H960 0.928 . S
C992 C990 1.406 . S
C992 N993 1.261 . S
N993 Co944 2.214 . S
N993 C991 1.315 1_655 S
N993 C992 1.261 . S
C994 H964 0.931 . S
C994 C991 1.356 . S
C994 C995 1.312 1_455 S
C995 H966 0.931 1_655 S
C995 C990 1.261 . S
C995 C994 1.312 1_655 S
C996 O968 1.214 1_455 S
C996 O976 1.234 . S
C997 H969 0.929 . S
C997 C1000 1.391 . S
C997 C1002 1.391 . S
C998 H970 0.929 . S
C998 C999 1.390 . S
C998 N1001 1.391 1_455 S
C999 H971 0.930 . S
C999 C998 1.390 . S
C999 C1000 1.392 1_455 S
C1000 H972 0.929 . S
C1000 C997 1.391 . S
C1000 C999 1.392 1_655 S
N1001 Co945 2.257 . S
N1001 C998 1.391 1_655 S
N1001 C1002 1.388 . S
C1002 H973 0.930 . S
C1002 C997 1.391 . S
C1002 N1001 1.388 . S
Co1003 O1005 2.143 . S
Co1003 O1011 2.074 . S
Co1003 O1014 2.093 . S
Co1003 O1027 2.097 . S
Co1003 N1044 2.151 . S
Co1003 N1052 2.214 . S
Co1004 O1005 2.160 . S
Co1004 O1010 2.058 . S
Co1004 O1020 2.057 . S
Co1004 O1035 2.037 . S
Co1004 N1039 2.145 . S
Co1004 N1060 2.257 . S
O1005 Co1003 2.143 . S
O1005 Co1004 2.160 . S
C1006 O1007 1.278 . S
C1006 O1014 1.224 . S
O1007 C1006 1.278 . S
C1008 O1009 1.245 . S
C1008 O1020 1.232 . S
O1009 C1008 1.245 . S
O1010 Co1004 2.058 . S
O1010 C1036 1.269 . S
O1011 Co1003 2.074 . S
O1011 C1036 1.257 . S
H1012 C1037 0.930 . S
H1013 C1043 0.930 . S
O1014 Co1003 2.093 . S
O1014 C1006 1.224 . S
H1015 C1047 0.929 . S
H1016 C1049 0.930 . S
H1017 C1050 0.930 . S
H1018 C1048 0.929 . S
H1019 C1051 0.928 . S
O1020 Co1004 2.057 . S
O1020 C1008 1.232 . S
H1021 C1040 0.929 . S
H1022 C1041 0.929 . S
H1023 C1053 0.931 . S
H1024 C1045 0.929 . S
H1025 C1054 0.930 . S
H1026 C1046 0.931 . S
O1027 Co1003 2.097 . S
O1027 C1055 1.214 . S
H1028 C1056 0.929 . S
H1029 C1057 0.929 . S
H1030 C1058 0.930 . S
H1031 C1059 0.929 . S
H1032 C1061 0.930 . S
H1033 C1038 0.930 . S
H1034 C1042 0.930 . S
O1035 Co1004 2.037 . S
O1035 C1055 1.234 . S
C1036 O1010 1.269 . S
C1036 O1011 1.257 . S
C1037 H1012 0.930 . S
C1037 C1040 1.388 . S
C1037 C1042 1.418 . S
C1038 H1033 0.930 . S
C1038 C1041 1.404 . S
C1038 C1042 1.353 . S
N1039 Co1004 2.145 . S
N1039 C1040 1.397 . S
N1039 C1041 1.334 . S
C1040 H1021 0.929 . S
C1040 C1037 1.388 . S
C1040 N1039 1.397 . S
C1041 H1022 0.929 . S
C1041 C1038 1.404 . S
C1041 N1039 1.334 . S
C1042 H1034 0.930 . S
C1042 C1037 1.418 . S
C1042 C1038 1.353 . S
C1043 H1013 0.930 . S
C1043 N1044 1.330 . S
C1043 C1045 1.446 . S
N1044 Co1003 2.151 . S
N1044 C1043 1.330 . S
N1044 C1048 1.418 . S
C1045 H1024 0.929 . S
C1045 C1043 1.446 . S
C1045 C1046 1.332 . S
C1046 H1026 0.931 . S
C1046 C1045 1.332 . S
C1046 C1047 1.267 . S
C1047 H1015 0.929 . S
C1047 C1046 1.267 . S
C1047 C1048 1.251 . S
C1048 H1018 0.929 . S
C1048 N1044 1.418 . S
C1048 C1047 1.251 . S
C1049 H1016 0.930 . S
C1049 C1051 1.406 . S
C1049 C1054 1.261 . S
C1050 H1017 0.930 . S
C1050 N1052 1.325 . S
C1050 C1053 1.357 . S
C1051 H1019 0.928 . S
C1051 C1049 1.406 . S
C1051 N1052 1.261 . S
N1052 Co1003 2.214 . S
N1052 C1050 1.325 . S
N1052 C1051 1.261 . S
C1053 H1023 0.931 . S
C1053 C1050 1.357 . S
C1053 C1054 1.312 . S
C1054 H1025 0.930 . S
C1054 C1049 1.261 . S
C1054 C1053 1.312 . S
C1055 O1027 1.214 . S
C1055 O1035 1.234 . S
C1056 H1028 0.929 . S
C1056 C1059 1.391 . S
C1056 C1061 1.391 . S
C1057 H1029 0.929 . S
C1057 C1058 1.390 . S
C1057 N1060 1.391 . S
C1058 H1030 0.930 . S
C1058 C1057 1.390 . S
C1058 C1059 1.392 . S
C1059 H1031 0.929 . S
C1059 C1056 1.391 . S
C1059 C1058 1.392 . S
N1060 Co1004 2.257 . S
N1060 C1057 1.391 . S
N1060 C1061 1.388 . S
C1061 H1032 0.930 . S
C1061 C1056 1.391 . S
C1061 N1060 1.388 . S
C1062 C1063 1.369 1_554 S
C1062 C1064 1.419 . S
C1062 H1066 0.930 . S
C1063 C1062 1.369 1_556 S
C1063 C1072 1.429 . S
C1064 C1062 1.419 . S
C1064 C1065 1.363 . S
C1064 H1067 0.929 . S
C1065 C1064 1.363 . S
C1065 C1071 1.428 1_554 S
H1066 C1062 0.930 . S
H1067 C1064 0.929 . S
S1068 N1069 1.613 . S
S1068 N1070 1.610 . S
N1069 S1068 1.613 . S
N1069 C1072 1.350 . S
N1070 S1068 1.610 . S
N1070 C1071 1.351 . S
C1071 C1065 1.428 1_556 S
C1071 N1070 1.351 . S
C1071 C1072 1.434 . S
C1072 C1063 1.429 . S
C1072 N1069 1.350 . S
C1072 C1071 1.434 . S
C1073 C1074 1.369 . S
C1073 C1075 1.419 1_556 S
C1073 H1077 0.930 . S
C1074 C1073 1.369 . S
C1074 C1083 1.429 . S
C1075 C1073 1.419 1_554 S
C1075 C1076 1.363 . S
C1075 H1078 0.929 . S
C1076 C1075 1.363 . S
C1076 C1082 1.428 . S
H1077 C1073 0.930 . S
H1078 C1075 0.929 . S
S1079 N1080 1.613 1_554 S
S1079 N1081 1.610 . S
N1080 S1079 1.613 1_556 S
N1080 C1083 1.350 . S
N1081 S1079 1.610 . S
N1081 C1082 1.351 . S
C1082 C1076 1.428 . S
C1082 N1081 1.351 . S
C1082 C1083 1.434 1_554 S
C1083 C1074 1.429 . S
C1083 N1080 1.350 . S
C1083 C1082 1.434 1_556 S
C1084 C1085 1.369 . S
C1084 C1086 1.419 1_554 S
C1084 H1088 0.930 . S
C1085 C1084 1.369 . S
C1085 C1094 1.429 . S
C1086 C1084 1.419 1_556 S
C1086 C1087 1.363 . S
C1086 H1089 0.929 . S
C1087 C1086 1.363 . S
C1087 C1093 1.428 . S
H1088 C1084 0.930 . S
H1089 C1086 0.929 . S
S1090 N1091 1.613 1_565 S
S1090 N1092 1.610 1_564 S
N1091 S1090 1.613 1_545 S
N1091 C1094 1.350 . S
N1092 S1090 1.610 1_546 S
N1092 C1093 1.351 . S
C1093 C1087 1.428 . S
C1093 N1092 1.351 . S
C1093 C1094 1.434 1_556 S
C1094 C1085 1.429 . S
C1094 N1091 1.350 . S
C1094 C1093 1.434 1_554 S
C1095 C1096 1.369 . S
C1095 C1097 1.419 . S
C1095 H1099 0.930 . S
C1096 C1095 1.369 . S
C1096 C1105 1.429 . S
C1097 C1095 1.419 . S
C1097 C1098 1.363 . S
C1097 H1100 0.929 . S
C1098 C1097 1.363 . S
C1098 C1104 1.428 . S
H1099 C1095 0.930 . S
H1100 C1097 0.929 . S
S1101 N1102 1.613 . S
S1101 N1103 1.610 . S
N1102 S1101 1.613 . S
N1102 C1105 1.350 . S
N1103 S1101 1.610 . S
N1103 C1104 1.351 . S
C1104 C1098 1.428 . S
C1104 N1103 1.351 . S
C1104 C1105 1.434 . S
C1105 C1096 1.429 . S
C1105 N1102 1.350 . S
C1105 C1104 1.434 . S
C1106 C1107 1.369 . S
C1106 C1108 1.419 . S
C1106 H1110 0.930 . S
C1107 C1106 1.369 . S
C1107 C1116 1.429 . S
C1108 C1106 1.419 . S
C1108 C1109 1.363 . S
C1108 H1111 0.929 . S
C1109 C1108 1.363 . S
C1109 C1115 1.428 . S
H1110 C1106 0.930 . S
H1111 C1108 0.929 . S
S1112 N1113 1.613 . S
S1112 N1114 1.610 . S
N1113 S1112 1.613 . S
N1113 C1116 1.350 . S
N1114 S1112 1.610 . S
N1114 C1115 1.351 . S
C1115 C1109 1.428 . S
C1115 N1114 1.351 . S
C1115 C1116 1.434 . S
C1116 C1107 1.429 . S
C1116 N1113 1.350 . S
C1116 C1115 1.434 . S
C1117 C1118 1.369 . S
C1117 C1119 1.419 . S
C1117 H1121 0.930 . S
C1118 C1117 1.369 . S
C1118 C1127 1.429 . S
C1119 C1117 1.419 . S
C1119 C1120 1.363 . S
C1119 H1122 0.929 . S
C1120 C1119 1.363 . S
C1120 C1126 1.428 . S
H1121 C1117 0.930 . S
H1122 C1119 0.929 . S
S1123 N1124 1.613 . S
S1123 N1125 1.610 . S
N1124 S1123 1.613 . S
N1124 C1127 1.350 . S
N1125 S1123 1.610 . S
N1125 C1126 1.351 . S
C1126 C1120 1.428 . S
C1126 N1125 1.351 . S
C1126 C1127 1.434 . S
C1127 C1118 1.429 . S
C1127 N1124 1.350 . S
C1127 C1126 1.434 . S
C1128 C1129 1.369 . S
C1128 C1130 1.419 . S
C1128 H1132 0.930 . S
C1129 C1128 1.369 . S
C1129 C1138 1.429 . S
C1130 C1128 1.419 . S
C1130 C1131 1.363 . S
C1130 H1133 0.929 . S
C1131 C1130 1.363 . S
C1131 C1137 1.428 . S
H1132 C1128 0.930 . S
H1133 C1130 0.929 . S
S1134 N1135 1.613 . S
S1134 N1136 1.610 . S
N1135 S1134 1.613 . S
N1135 C1138 1.350 . S
N1136 S1134 1.610 . S
N1136 C1137 1.351 . S
C1137 C1131 1.428 . S
C1137 N1136 1.351 . S
C1137 C1138 1.434 . S
C1138 C1129 1.429 . S
C1138 N1135 1.350 . S
C1138 C1137 1.434 . S
C1139 C1140 1.369 . S
C1139 C1141 1.419 . S
C1139 H1143 0.930 . S
C1140 C1139 1.369 . S
C1140 C1149 1.429 . S
C1141 C1139 1.419 . S
C1141 C1142 1.363 . S
C1141 H1144 0.929 . S
C1142 C1141 1.363 . S
C1142 C1148 1.428 . S
H1143 C1139 0.930 . S
H1144 C1141 0.929 . S
S1145 N1146 1.613 . S
S1145 N1147 1.610 . S
N1146 S1145 1.613 . S
N1146 C1149 1.350 . S
N1147 S1145 1.610 . S
N1147 C1148 1.351 . S
C1148 C1142 1.428 . S
C1148 N1147 1.351 . S
C1148 C1149 1.434 . S
C1149 C1140 1.429 . S
C1149 N1146 1.350 . S
C1149 C1148 1.434 . S
C1150 C1151 1.369 . S
C1150 C1152 1.419 . S
C1150 H1154 0.930 . S
C1151 C1150 1.369 . S
C1151 C1160 1.429 . S
C1152 C1150 1.419 . S
C1152 C1153 1.363 . S
C1152 H1155 0.929 . S
C1153 C1152 1.363 . S
C1153 C1159 1.428 . S
H1154 C1150 0.930 . S
H1155 C1152 0.929 . S
S1156 N1157 1.613 . S
S1156 N1158 1.610 . S
N1157 S1156 1.613 . S
N1157 C1160 1.350 . S
N1158 S1156 1.610 . S
N1158 C1159 1.351 . S
C1159 C1153 1.428 . S
C1159 N1158 1.351 . S
C1159 C1160 1.434 . S
C1160 C1151 1.429 . S
C1160 N1157 1.350 . S
C1160 C1159 1.434 . S
C1161 C1162 1.369 . S
C1161 C1163 1.419 . S
C1161 H1165 0.930 . S
C1162 C1161 1.369 . S
C1162 C1171 1.429 . S
C1163 C1161 1.419 . S
C1163 C1164 1.363 . S
C1163 H1166 0.929 . S
C1164 C1163 1.363 . S
C1164 C1170 1.428 . S
H1165 C1161 0.930 . S
H1166 C1163 0.929 . S
S1167 N1168 1.613 . S
S1167 N1169 1.610 . S
N1168 S1167 1.613 . S
N1168 C1171 1.350 . S
N1169 S1167 1.610 . S
N1169 C1170 1.351 . S
C1170 C1164 1.428 . S
C1170 N1169 1.351 . S
C1170 C1171 1.434 . S
C1171 C1162 1.429 . S
C1171 N1168 1.350 . S
C1171 C1170 1.434 . S
C1172 C1173 1.369 . S
C1172 C1174 1.419 . S
C1172 H1176 0.930 . S
C1173 C1172 1.369 . S
C1173 C1182 1.429 . S
C1174 C1172 1.419 . S
C1174 C1175 1.363 . S
C1174 H1177 0.929 . S
C1175 C1174 1.363 . S
C1175 C1181 1.428 . S
H1176 C1172 0.930 . S
H1177 C1174 0.929 . S
S1178 N1179 1.613 . S
S1178 N1180 1.610 . S
N1179 S1178 1.613 . S
N1179 C1182 1.350 . S
N1180 S1178 1.610 . S
N1180 C1181 1.351 . S
C1181 C1175 1.428 . S
C1181 N1180 1.351 . S
C1181 C1182 1.434 . S
C1182 C1173 1.429 . S
C1182 N1179 1.350 . S
C1182 C1181 1.434 . S
C1183 C1184 1.369 . S
C1183 C1185 1.419 . S
C1183 H1187 0.930 . S
C1184 C1183 1.369 . S
C1184 C1193 1.429 . S
C1185 C1183 1.419 . S
C1185 C1186 1.363 . S
C1185 H1188 0.929 . S
C1186 C1185 1.363 . S
C1186 C1192 1.428 . S
H1187 C1183 0.930 . S
H1188 C1185 0.929 . S
S1189 N1190 1.613 . S
S1189 N1191 1.610 . S
N1190 S1189 1.613 . S
N1190 C1193 1.350 . S
N1191 S1189 1.610 . S
N1191 C1192 1.351 . S
C1192 C1186 1.428 . S
C1192 N1191 1.351 . S
C1192 C1193 1.434 . S
C1193 C1184 1.429 . S
C1193 N1190 1.350 . S
C1193 C1192 1.434 . S
C1194 C1195 1.369 . S
C1194 C1196 1.419 . S
C1194 H1198 0.930 . S
C1195 C1194 1.369 . S
C1195 C1204 1.429 . S
C1196 C1194 1.419 . S
C1196 C1197 1.363 . S
C1196 H1199 0.929 . S
C1197 C1196 1.363 . S
C1197 C1203 1.428 . S
H1198 C1194 0.930 . S
H1199 C1196 0.929 . S
S1200 N1201 1.613 . S
S1200 N1202 1.610 . S
N1201 S1200 1.613 . S
N1201 C1204 1.350 . S
N1202 S1200 1.610 . S
N1202 C1203 1.351 . S
C1203 C1197 1.428 . S
C1203 N1202 1.351 . S
C1203 C1204 1.434 . S
C1204 C1195 1.429 . S
C1204 N1201 1.350 . S
C1204 C1203 1.434 . S
C1205 C1206 1.369 . S
C1205 C1207 1.419 . S
C1205 H1209 0.930 . S
C1206 C1205 1.369 . S
C1206 C1215 1.429 . S
C1207 C1205 1.419 . S
C1207 C1208 1.363 . S
C1207 H1210 0.929 . S
C1208 C1207 1.363 . S
C1208 C1214 1.428 . S
H1209 C1205 0.930 . S
H1210 C1207 0.929 . S
S1211 N1212 1.613 . S
S1211 N1213 1.610 . S
N1212 S1211 1.613 . S
N1212 C1215 1.350 . S
N1213 S1211 1.610 . S
N1213 C1214 1.351 . S
C1214 C1208 1.428 . S
C1214 N1213 1.351 . S
C1214 C1215 1.434 . S
C1215 C1206 1.429 . S
C1215 N1212 1.350 . S
C1215 C1214 1.434 . S
C1216 C1217 1.369 . S
C1216 C1218 1.419 . S
C1216 H1220 0.930 . S
C1217 C1216 1.369 . S
C1217 C1226 1.429 . S
C1218 C1216 1.419 . S
C1218 C1219 1.363 . S
C1218 H1221 0.929 . S
C1219 C1218 1.363 . S
C1219 C1225 1.428 . S
H1220 C1216 0.930 . S
H1221 C1218 0.929 . S
S1222 N1223 1.613 . S
S1222 N1224 1.610 . S
N1223 S1222 1.613 . S
N1223 C1226 1.350 . S
N1224 S1222 1.610 . S
N1224 C1225 1.351 . S
C1225 C1219 1.428 . S
C1225 N1224 1.351 . S
C1225 C1226 1.434 . S
C1226 C1217 1.429 . S
C1226 N1223 1.350 . S
C1226 C1225 1.434 . S
C1227 C1228 1.369 . S
C1227 C1229 1.419 . S
C1227 H1231 0.930 . S
C1228 C1227 1.369 . S
C1228 C1237 1.429 . S
C1229 C1227 1.419 . S
C1229 C1230 1.363 . S
C1229 H1232 0.929 . S
C1230 C1229 1.363 . S
C1230 C1236 1.428 . S
H1231 C1227 0.930 . S
H1232 C1229 0.929 . S
S1233 N1234 1.613 . S
S1233 N1235 1.610 . S
N1234 S1233 1.613 . S
N1234 C1237 1.350 . S
N1235 S1233 1.610 . S
N1235 C1236 1.351 . S
C1236 C1230 1.428 . S
C1236 N1235 1.351 . S
C1236 C1237 1.434 . S
C1237 C1228 1.429 . S
C1237 N1234 1.350 . S
C1237 C1236 1.434 . S
C1238 C1239 1.369 . S
C1238 C1240 1.419 . S
C1238 H1242 0.930 . S
C1239 C1238 1.369 . S
C1239 C1248 1.429 . S
C1240 C1238 1.419 . S
C1240 C1241 1.363 . S
C1240 H1243 0.929 . S
C1241 C1240 1.363 . S
C1241 C1247 1.428 . S
H1242 C1238 0.930 . S
H1243 C1240 0.929 . S
S1244 N1245 1.613 . S
S1244 N1246 1.610 . S
N1245 S1244 1.613 . S
N1245 C1248 1.350 . S
N1246 S1244 1.610 . S
N1246 C1247 1.351 . S
C1247 C1241 1.428 . S
C1247 N1246 1.351 . S
C1247 C1248 1.434 . S
C1248 C1239 1.429 . S
C1248 N1245 1.350 . S
C1248 C1247 1.434 . S
C1249 C1250 1.369 . S
C1249 C1251 1.419 . S
C1249 H1253 0.930 . S
C1250 C1249 1.369 . S
C1250 C1259 1.429 . S
C1251 C1249 1.419 . S
C1251 C1252 1.363 . S
C1251 H1254 0.929 . S
C1252 C1251 1.363 . S
C1252 C1258 1.428 . S
H1253 C1249 0.930 . S
H1254 C1251 0.929 . S
S1255 N1256 1.613 . S
S1255 N1257 1.610 . S
N1256 S1255 1.613 . S
N1256 C1259 1.350 . S
N1257 S1255 1.610 . S
N1257 C1258 1.351 . S
C1258 C1252 1.428 . S
C1258 N1257 1.351 . S
C1258 C1259 1.434 . S
C1259 C1250 1.429 . S
C1259 N1256 1.350 . S
C1259 C1258 1.434 . S
C1260 C1261 1.369 . S
C1260 C1262 1.419 . S
C1260 H1264 0.930 . S
C1261 C1260 1.369 . S
C1261 C1270 1.429 . S
C1262 C1260 1.419 . S
C1262 C1263 1.363 . S
C1262 H1265 0.929 . S
C1263 C1262 1.363 . S
C1263 C1269 1.428 . S
H1264 C1260 0.930 . S
H1265 C1262 0.929 . S
S1266 N1267 1.613 . S
S1266 N1268 1.610 . S
N1267 S1266 1.613 . S
N1267 C1270 1.350 . S
N1268 S1266 1.610 . S
N1268 C1269 1.351 . S
C1269 C1263 1.428 . S
C1269 N1268 1.351 . S
C1269 C1270 1.434 . S
C1270 C1261 1.429 . S
C1270 N1267 1.350 . S
C1270 C1269 1.434 . S
C1271 C1272 1.369 . S
C1271 C1273 1.419 . S
C1271 H1275 0.930 . S
C1272 C1271 1.369 . S
C1272 C1281 1.429 . S
C1273 C1271 1.419 . S
C1273 C1274 1.363 . S
C1273 H1276 0.929 . S
C1274 C1273 1.363 . S
C1274 C1280 1.428 . S
H1275 C1271 0.930 . S
H1276 C1273 0.929 . S
S1277 N1278 1.613 . S
S1277 N1279 1.610 . S
N1278 S1277 1.613 . S
N1278 C1281 1.350 . S
N1279 S1277 1.610 . S
N1279 C1280 1.351 . S
C1280 C1274 1.428 . S
C1280 N1279 1.351 . S
C1280 C1281 1.434 . S
C1281 C1272 1.429 . S
C1281 N1278 1.350 . S
C1281 C1280 1.434 . S
C1282 C1283 1.366 1_565 S
C1282 C1284 1.419 1_565 S
C1282 H1286 0.930 . S
C1283 C1282 1.366 1_545 S
C1283 C1292 1.449 . S
C1284 C1282 1.419 1_545 S
C1284 C1285 1.363 . S
C1284 H1287 0.929 . S
C1285 C1284 1.363 . S
C1285 C1291 1.428 . S
H1286 C1282 0.930 . S
H1287 C1284 0.929 . S
S1288 N1289 1.613 . S
S1288 N1290 1.610 . S
N1289 S1288 1.613 . S
N1289 C1292 1.350 . S
N1290 S1288 1.610 . S
N1290 C1291 1.351 . S
C1291 C1285 1.428 . S
C1291 N1290 1.351 . S
C1291 C1292 1.434 . S
C1292 C1283 1.449 . S
C1292 N1289 1.350 . S
C1292 C1291 1.434 . S
C1293 C1294 1.369 . S
C1293 C1295 1.419 . S
C1293 H1297 0.930 . S
C1294 C1293 1.369 . S
C1294 C1303 1.429 . S
C1295 C1293 1.419 . S
C1295 C1296 1.363 . S
C1295 H1298 0.929 . S
C1296 C1295 1.363 . S
C1296 C1302 1.428 . S
H1297 C1293 0.930 . S
H1298 C1295 0.929 . S
S1299 N1300 1.613 1_556 S
S1299 N1301 1.610 . S
N1300 S1299 1.613 1_554 S
N1300 C1303 1.350 . S
N1301 S1299 1.610 . S
N1301 C1302 1.351 1_556 S
C1302 C1296 1.428 . S
C1302 N1301 1.351 1_554 S
C1302 C1303 1.434 . S
C1303 C1294 1.429 . S
C1303 N1300 1.350 . S
C1303 C1302 1.434 . S
C1304 C1305 1.393 . S
C1304 C1306 1.419 . S
C1304 H1308 0.930 . S
C1305 C1304 1.393 . S
C1305 C1314 1.423 1_455 S
C1306 C1304 1.419 . S
C1306 C1307 1.363 . S
C1306 H1309 0.929 . S
C1307 C1306 1.363 . S
C1307 C1313 1.428 1_455 S
H1308 C1304 0.930 . S
H1309 C1306 0.929 . S
S1310 N1311 1.613 . S
S1310 N1312 1.610 . S
N1311 S1310 1.613 . S
N1311 C1314 1.350 . S
N1312 S1310 1.610 . S
N1312 C1313 1.351 . S
C1313 C1307 1.428 1_655 S
C1313 N1312 1.351 . S
C1313 C1314 1.434 . S
C1314 C1305 1.423 1_655 S
C1314 N1311 1.350 . S
C1314 C1313 1.434 . S
C1315 C1316 1.369 . S
C1315 C1317 1.419 . S
C1315 H1319 0.930 . S
C1316 C1315 1.369 . S
C1316 C1325 1.429 . S
C1317 C1315 1.419 . S
C1317 C1318 1.363 . S
C1317 H1320 0.929 . S
C1318 C1317 1.363 . S
C1318 C1324 1.428 . S
H1319 C1315 0.930 . S
H1320 C1317 0.929 . S
S1321 N1322 1.613 . S
S1321 N1323 1.610 . S
N1322 S1321 1.613 . S
N1322 C1325 1.350 . S
N1323 S1321 1.610 . S
N1323 C1324 1.351 . S
C1324 C1318 1.428 . S
C1324 N1323 1.351 . S
C1324 C1325 1.434 . S
C1325 C1316 1.429 . S
C1325 N1322 1.350 . S
C1325 C1324 1.434 . S
C1326 C1327 1.391 . S
C1326 C1328 1.419 . S
C1326 H1330 0.930 . S
C1327 C1326 1.391 . S
C1327 C1336 1.407 1_455 S
C1328 C1326 1.419 . S
C1328 C1329 1.363 . S
C1328 H1331 0.929 . S
C1329 C1328 1.363 . S
C1329 C1335 1.428 . S
H1330 C1326 0.930 . S
H1331 C1328 0.929 . S
S1332 N1333 1.613 . S
S1332 N1334 1.610 . S
N1333 S1332 1.613 . S
N1333 C1336 1.350 . S
N1334 S1332 1.610 . S
N1334 C1335 1.351 1_655 S
C1335 C1329 1.428 . S
C1335 N1334 1.351 1_455 S
C1335 C1336 1.434 1_455 S
C1336 C1327 1.407 1_655 S
C1336 N1333 1.350 . S
C1336 C1335 1.434 1_655 S
C1337 C1338 1.369 . S
C1337 C1339 1.419 . S
C1337 H1341 0.930 . S
C1338 C1337 1.369 . S
C1338 C1347 1.429 . S
C1339 C1337 1.419 . S
C1339 C1340 1.363 . S
C1339 H1342 0.929 . S
C1340 C1339 1.363 . S
C1340 C1346 1.428 . S
H1341 C1337 0.930 . S
H1342 C1339 0.929 . S
S1343 N1344 1.613 . S
S1343 N1345 1.610 . S
N1344 S1343 1.613 . S
N1344 C1347 1.350 . S
N1345 S1343 1.610 . S
N1345 C1346 1.351 . S
C1346 C1340 1.428 . S
C1346 N1345 1.351 . S
C1346 C1347 1.434 . S
C1347 C1338 1.429 . S
C1347 N1344 1.350 . S
C1347 C1346 1.434 . S
C1348 C1349 1.369 . S
C1348 C1350 1.419 . S
C1348 H1352 0.930 . S
C1349 C1348 1.369 . S
C1349 C1358 1.429 . S
C1350 C1348 1.419 . S
C1350 C1351 1.363 . S
C1350 H1353 0.929 . S
C1351 C1350 1.363 . S
C1351 C1357 1.428 . S
H1352 C1348 0.930 . S
H1353 C1350 0.929 . S
S1354 N1355 1.613 . S
S1354 N1356 1.610 . S
N1355 S1354 1.613 . S
N1355 C1358 1.350 . S
N1356 S1354 1.610 . S
N1356 C1357 1.351 . S
C1357 C1351 1.428 . S
C1357 N1356 1.351 . S
C1357 C1358 1.434 . S
C1358 C1349 1.429 . S
C1358 N1355 1.350 . S
C1358 C1357 1.434 . S
C1359 C1360 1.339 1_565 S
C1359 C1361 1.419 1_565 S
C1359 H1363 0.935 . S
C1360 C1359 1.339 1_545 S
C1360 C1369 1.459 . S
C1361 C1359 1.419 1_545 S
C1361 C1362 1.363 . S
C1361 H1364 0.929 1_545 S
C1362 C1361 1.363 . S
C1362 C1368 1.428 . S
H1363 C1359 0.935 . S
H1364 C1361 0.929 1_565 S
S1365 N1366 1.613 . S
S1365 N1367 1.610 . S
N1366 S1365 1.613 . S
N1366 C1369 1.350 . S
N1367 S1365 1.610 . S
N1367 C1368 1.351 . S
C1368 C1362 1.428 . S
C1368 N1367 1.351 . S
C1368 C1369 1.434 . S
C1369 C1360 1.459 . S
C1369 N1366 1.350 . S
C1369 C1368 1.434 . S
C1370 C1371 1.369 . S
C1370 C1372 1.419 . S
C1370 H1374 0.930 . S
C1371 C1370 1.369 . S
C1371 C1380 1.429 . S
C1372 C1370 1.419 . S
C1372 C1373 1.363 . S
C1372 H1375 0.929 . S
C1373 C1372 1.363 . S
C1373 C1379 1.428 . S
H1374 C1370 0.930 . S
H1375 C1372 0.929 . S
S1376 N1377 1.613 1_554 S
S1376 N1378 1.610 . S
N1377 S1376 1.613 1_556 S
N1377 C1380 1.350 . S
N1378 S1376 1.610 . S
N1378 C1379 1.351 1_554 S
C1379 C1373 1.428 . S
C1379 N1378 1.351 1_556 S
C1379 C1380 1.434 . S
C1380 C1371 1.429 . S
C1380 N1377 1.350 . S
C1380 C1379 1.434 . S
C1381 C1382 1.369 . S
C1381 C1383 1.419 . S
C1381 H1385 0.930 . S
C1382 C1381 1.369 . S
C1382 C1391 1.429 . S
C1383 C1381 1.419 . S
C1383 C1384 1.363 . S
C1383 H1386 0.929 1_556 S
C1384 C1383 1.363 . S
C1384 C1390 1.428 . S
H1385 C1381 0.930 . S
H1386 C1383 0.929 1_554 S
S1387 N1388 1.613 . S
S1387 N1389 1.610 . S
N1388 S1387 1.613 . S
N1388 C1391 1.350 . S
N1389 S1387 1.610 . S
N1389 C1390 1.351 . S
C1390 C1384 1.428 . S
C1390 N1389 1.351 . S
C1390 C1391 1.434 . S
C1391 C1382 1.429 . S
C1391 N1388 1.350 . S
C1391 C1390 1.434 . S
C1392 C1393 1.369 . S
C1392 C1394 1.419 . S
C1392 H1396 0.930 . S
C1393 C1392 1.369 . S
C1393 C1402 1.429 . S
C1394 C1392 1.419 . S
C1394 C1395 1.363 . S
C1394 H1397 0.929 . S
C1395 C1394 1.363 . S
C1395 C1401 1.428 . S
H1396 C1392 0.930 . S
H1397 C1394 0.929 . S
S1398 N1399 1.613 . S
S1398 N1400 1.610 . S
N1399 S1398 1.613 . S
N1399 C1402 1.350 . S
N1400 S1398 1.610 . S
N1400 C1401 1.351 . S
C1401 C1395 1.428 . S
C1401 N1400 1.351 . S
C1401 C1402 1.434 . S
C1402 C1393 1.429 . S
C1402 N1399 1.350 . S
C1402 C1401 1.434 . S
C1403 C1404 1.369 . S
C1403 C1405 1.419 . S
C1403 H1407 0.930 . S
C1404 C1403 1.369 . S
C1404 C1413 1.429 . S
C1405 C1403 1.419 . S
C1405 C1406 1.363 . S
C1405 H1408 0.929 . S
C1406 C1405 1.363 . S
C1406 C1412 1.428 . S
H1407 C1403 0.930 . S
H1408 C1405 0.929 . S
S1409 N1410 1.613 . S
S1409 N1411 1.610 . S
N1410 S1409 1.613 . S
N1410 C1413 1.350 . S
N1411 S1409 1.610 . S
N1411 C1412 1.351 . S
C1412 C1406 1.428 . S
C1412 N1411 1.351 . S
C1412 C1413 1.434 . S
C1413 C1404 1.429 . S
C1413 N1410 1.350 . S
C1413 C1412 1.434 . S
C1414 C1415 1.369 . S
C1414 C1416 1.419 . S
C1414 H1418 0.930 . S
C1415 C1414 1.369 . S
C1415 C1424 1.429 . S
C1416 C1414 1.419 . S
C1416 C1417 1.363 . S
C1416 H1419 0.929 . S
C1417 C1416 1.363 . S
C1417 C1423 1.428 . S
H1418 C1414 0.930 . S
H1419 C1416 0.929 . S
S1420 N1421 1.613 . S
S1420 N1422 1.610 . S
N1421 S1420 1.613 . S
N1421 C1424 1.350 . S
N1422 S1420 1.610 . S
N1422 C1423 1.351 . S
C1423 C1417 1.428 . S
C1423 N1422 1.351 . S
C1423 C1424 1.434 . S
C1424 C1415 1.429 . S
C1424 N1421 1.350 . S
C1424 C1423 1.434 . S
C1425 C1426 1.369 . S
C1425 C1427 1.419 . S
C1425 H1429 0.930 . S
C1426 C1425 1.369 . S
C1426 C1435 1.429 . S
C1427 C1425 1.419 . S
C1427 C1428 1.363 . S
C1427 H1430 0.929 . S
C1428 C1427 1.363 . S
C1428 C1434 1.428 . S
H1429 C1425 0.930 . S
H1430 C1427 0.929 . S
S1431 N1432 1.613 . S
S1431 N1433 1.610 . S
N1432 S1431 1.613 . S
N1432 C1435 1.350 . S
N1433 S1431 1.610 . S
N1433 C1434 1.351 . S
C1434 C1428 1.428 . S
C1434 N1433 1.351 . S
C1434 C1435 1.434 . S
C1435 C1426 1.429 . S
C1435 N1432 1.350 . S
C1435 C1434 1.434 . S
C1436 C1437 1.369 . S
C1436 C1438 1.419 . S
C1436 H1440 0.930 . S
C1437 C1436 1.369 . S
C1437 C1446 1.429 . S
C1438 C1436 1.419 . S
C1438 C1439 1.363 . S
C1438 H1441 0.929 . S
C1439 C1438 1.363 . S
C1439 C1445 1.428 . S
H1440 C1436 0.930 . S
H1441 C1438 0.929 . S
S1442 N1443 1.613 . S
S1442 N1444 1.610 . S
N1443 S1442 1.613 . S
N1443 C1446 1.350 . S
N1444 S1442 1.610 . S
N1444 C1445 1.351 . S
C1445 C1439 1.428 . S
C1445 N1444 1.351 . S
C1445 C1446 1.434 . S
C1446 C1437 1.429 . S
C1446 N1443 1.350 . S
C1446 C1445 1.434 . S
C1447 C1448 1.369 . S
C1447 C1449 1.419 . S
C1447 H1451 0.930 . S
C1448 C1447 1.369 . S
C1448 C1457 1.429 . S
C1449 C1447 1.419 . S
C1449 C1450 1.363 . S
C1449 H1452 0.929 . S
C1450 C1449 1.363 . S
C1450 C1456 1.428 . S
H1451 C1447 0.930 . S
H1452 C1449 0.929 . S
S1453 N1454 1.613 . S
S1453 N1455 1.610 . S
N1454 S1453 1.613 . S
N1454 C1457 1.350 . S
N1455 S1453 1.610 . S
N1455 C1456 1.351 . S
C1456 C1450 1.428 . S
C1456 N1455 1.351 . S
C1456 C1457 1.434 . S
C1457 C1448 1.429 . S
C1457 N1454 1.350 . S
C1457 C1456 1.434 . S
C1063 C180 1.360 . S
C1065 C3 1.362 . S
C1074 C241 1.360 . S
C1076 C64 1.364 . S
C1085 C121 1.365 . S
C1087 C298 1.358 . S
C1096 C123 1.358 . S
C1098 C300 1.363 . S
C1107 C5 1.357 . S
C1109 C182 1.363 . S
C1118 C239 1.357 . S
C1120 C62 1.361 . S
C1129 C534 1.357 . S
C1131 C359 1.360 . S
C1140 C418 1.361 . S
C1142 C593 1.360 . S
C1151 C477 1.365 . S
C1153 C652 1.356 . S
C1162 C654 1.366 . S
C1164 C475 1.360 . S
C1173 C536 1.367 . S
C1175 C357 1.359 . S
C1184 C595 1.366 . S
C1186 C416 1.360 . S
C1195 C711 1.359 . S
C1197 C888 1.363 . S
C1206 C772 1.364 . S
C1208 C949 1.361 . S
C1217 C829 1.364 . S
C1219 C1006 1.359 . S
C1228 C1008 1.359 . S
C1230 C831 1.363 . S
C1239 C890 1.362 . S
C1241 C713 1.360 . S
C1250 C947 1.362 . S
C1252 C770 1.358 . S
C1261 C33 1.538 . S
C1263 C446 1.536 . S
C1272 C111 1.538 . S
C1274 C505 1.538 . S
C1283 C387 1.523 1_545 S
C1285 C151 1.536 . S
C1294 C170 1.536 . S
C1296 C819 1.540 1_554 S
C1305 C859 1.520 1_454 S
C1307 C52 1.538 . S
C1316 C741 1.536 1_554 S
C1318 C92 1.535 . S
C1327 C977 1.541 1_455 S
C1329 C210 1.536 . S
C1338 C288 1.537 . S
C1340 C1055 1.540 . S
C1349 C937 1.537 . S
C1351 C328 1.537 . S
C1360 C623 1.538 1_546 S
C1362 C347 1.538 . S
C1371 C229 1.534 . S
C1373 C682 1.539 1_556 S
C1382 C269 1.538 . S
C1384 C564 1.535 1_556 S
C1393 C406 1.538 . S
C1395 C800 1.535 . S
C1404 C465 1.538 . S
C1406 C878 1.537 . S
C1415 C524 1.538 . S
C1417 C760 1.537 . S
C1426 C996 1.541 . S
C1428 C701 1.538 . S
C1437 C1036 1.540 . S
C1439 C583 1.536 . S
C1448 C642 1.539 . S
C1450 C918 1.539 . S
