# Generated by pormake.
# Topology bcu-j, (5)-cn, num edge types: 1
# Building blocks:
#     Node 0, Type 0, BuildingBlock: XOMCOT_clean_sbu_1, # of connection points: 5
#     Node 1, Type 0, BuildingBlock: XOMCOT_clean_sbu_1, # of connection points: 5
#     Node 2, Type 0, BuildingBlock: XOMCOT_clean_sbu_1, # of connection points: 5
#     Node 3, Type 0, BuildingBlock: XOMCOT_clean_sbu_1, # of connection points: 5
#     Node 4, Type 0, BuildingBlock: XOMCOT_clean_sbu_1, # of connection points: 5
#     Node 5, Type 0, BuildingBlock: XOMCOT_clean_sbu_1, # of connection points: 5
#     Node 6, Type 0, BuildingBlock: XOMCOT_clean_sbu_1, # of connection points: 5
#     Node 7, Type 0, BuildingBlock: XOMCOT_clean_sbu_1, # of connection points: 5
#     Node 8, Type 0, BuildingBlock: XOMCOT_clean_sbu_1, # of connection points: 5
#     Node 9, Type 0, BuildingBlock: XOMCOT_clean_sbu_1, # of connection points: 5
#     Node 10, Type 0, BuildingBlock: XOMCOT_clean_sbu_1, # of connection points: 5
#     Node 11, Type 0, BuildingBlock: XOMCOT_clean_sbu_1, # of connection points: 5
#     Node 12, Type 0, BuildingBlock: XOMCOT_clean_sbu_1, # of connection points: 5
#     Node 13, Type 0, BuildingBlock: XOMCOT_clean_sbu_1, # of connection points: 5
#     Node 14, Type 0, BuildingBlock: XOMCOT_clean_sbu_1, # of connection points: 5
#     Node 15, Type 0, BuildingBlock: XOMCOT_clean_sbu_1, # of connection points: 5
#     Edge 16, Type (0, 0), BuildingBlock: UVAHIK_clean_linker_0, # of connection points: 2
#     Edge 17, Type (0, 0), BuildingBlock: UVAHIK_clean_linker_0, # of connection points: 2
#     Edge 18, Type (0, 0), BuildingBlock: UVAHIK_clean_linker_0, # of connection points: 2
#     Edge 19, Type (0, 0), BuildingBlock: UVAHIK_clean_linker_0, # of connection points: 2
#     Edge 20, Type (0, 0), BuildingBlock: UVAHIK_clean_linker_0, # of connection points: 2
#     Edge 21, Type (0, 0), BuildingBlock: UVAHIK_clean_linker_0, # of connection points: 2
#     Edge 22, Type (0, 0), BuildingBlock: UVAHIK_clean_linker_0, # of connection points: 2
#     Edge 23, Type (0, 0), BuildingBlock: UVAHIK_clean_linker_0, # of connection points: 2
#     Edge 24, Type (0, 0), BuildingBlock: UVAHIK_clean_linker_0, # of connection points: 2
#     Edge 25, Type (0, 0), BuildingBlock: UVAHIK_clean_linker_0, # of connection points: 2
#     Edge 26, Type (0, 0), BuildingBlock: UVAHIK_clean_linker_0, # of connection points: 2
#     Edge 27, Type (0, 0), BuildingBlock: UVAHIK_clean_linker_0, # of connection points: 2
#     Edge 28, Type (0, 0), BuildingBlock: UVAHIK_clean_linker_0, # of connection points: 2
#     Edge 29, Type (0, 0), BuildingBlock: UVAHIK_clean_linker_0, # of connection points: 2
#     Edge 30, Type (0, 0), BuildingBlock: UVAHIK_clean_linker_0, # of connection points: 2
#     Edge 31, Type (0, 0), BuildingBlock: UVAHIK_clean_linker_0, # of connection points: 2
#     Edge 32, Type (0, 0), BuildingBlock: UVAHIK_clean_linker_0, # of connection points: 2
#     Edge 33, Type (0, 0), BuildingBlock: UVAHIK_clean_linker_0, # of connection points: 2
#     Edge 34, Type (0, 0), BuildingBlock: UVAHIK_clean_linker_0, # of connection points: 2
#     Edge 35, Type (0, 0), BuildingBlock: UVAHIK_clean_linker_0, # of connection points: 2
#     Edge 36, Type (0, 0), BuildingBlock: UVAHIK_clean_linker_0, # of connection points: 2
#     Edge 37, Type (0, 0), BuildingBlock: UVAHIK_clean_linker_0, # of connection points: 2
#     Edge 38, Type (0, 0), BuildingBlock: UVAHIK_clean_linker_0, # of connection points: 2
#     Edge 39, Type (0, 0), BuildingBlock: UVAHIK_clean_linker_0, # of connection points: 2
#     Edge 40, Type (0, 0), BuildingBlock: UVAHIK_clean_linker_0, # of connection points: 2
#     Edge 41, Type (0, 0), BuildingBlock: UVAHIK_clean_linker_0, # of connection points: 2
#     Edge 42, Type (0, 0), BuildingBlock: UVAHIK_clean_linker_0, # of connection points: 2
#     Edge 43, Type (0, 0), BuildingBlock: UVAHIK_clean_linker_0, # of connection points: 2
#     Edge 44, Type (0, 0), BuildingBlock: UVAHIK_clean_linker_0, # of connection points: 2
#     Edge 45, Type (0, 0), BuildingBlock: UVAHIK_clean_linker_0, # of connection points: 2
#     Edge 46, Type (0, 0), BuildingBlock: UVAHIK_clean_linker_0, # of connection points: 2
#     Edge 47, Type (0, 0), BuildingBlock: UVAHIK_clean_linker_0, # of connection points: 2
#     Edge 48, Type (0, 0), BuildingBlock: UVAHIK_clean_linker_0, # of connection points: 2
#     Edge 49, Type (0, 0), BuildingBlock: UVAHIK_clean_linker_0, # of connection points: 2
#     Edge 50, Type (0, 0), BuildingBlock: UVAHIK_clean_linker_0, # of connection points: 2
#     Edge 51, Type (0, 0), BuildingBlock: UVAHIK_clean_linker_0, # of connection points: 2
#     Edge 52, Type (0, 0), BuildingBlock: UVAHIK_clean_linker_0, # of connection points: 2
#     Edge 53, Type (0, 0), BuildingBlock: UVAHIK_clean_linker_0, # of connection points: 2
#     Edge 54, Type (0, 0), BuildingBlock: UVAHIK_clean_linker_0, # of connection points: 2
#     Edge 55, Type (0, 0), BuildingBlock: UVAHIK_clean_linker_0, # of connection points: 2
# Relax obj value: 0.634
# Max RMSD: 0.286
# Mean RMSD: 0.286
data_MOF--net-bcu-j--node1-XOMCOT_clean_sbu_1--edge1-UVAHIK_clean_linker_0
_symmetry_space_group_name_H-M    P1
_symmetry_Int_Tables_number       1
_symmetry_cell_setting            triclinic
loop_
_symmetry_equiv_pos_as_xyz
'x, y, z'
_cell_length_a     55.326349
_cell_length_b     55.419894
_cell_length_c     56.581713
_cell_angle_alpha  89.97815
_cell_angle_beta   90.004901
_cell_angle_gamma 89.977592
loop_
_atom_site_label
_atom_site_type_symbol
_atom_site_fract_x
_atom_site_fract_y
_atom_site_fract_z
_atom_type_partial_charge
C0 C 0.04468 0.16956 0.57892 0.0
C1 C 0.06727 0.16013 0.57451 0.0
N2 N 0.07339 0.14587 0.59284 0.0
N3 N 0.03668 0.16123 0.59989 0.0
C4 C 0.05453 0.14678 0.60788 0.0
H5 H 0.03453 0.18135 0.56737 0.0
Co6 Co 0.00649 0.16746 0.61267 0.0
C7 C 0.00576 0.14102 0.65894 0.0
O8 O 0.98278 0.1356 0.65645 0.0
N9 N 0.97581 0.17439 0.62507 0.0
C10 C 0.93644 0.17823 0.63233 0.0
C11 C 0.95342 0.17059 0.61623 0.0
C12 C 0.97187 0.18511 0.64611 0.0
N13 N 0.94815 0.18725 0.6512 0.0
O14 O 0.01795 0.19781 0.62344 0.0
H15 H 0.94931 0.16263 0.59933 0.0
H16 H 0.98632 0.19008 0.65803 0.0
O17 O 0.01663 0.15302 0.64281 0.0
C18 C 0.01471 0.21511 0.60904 0.0
O19 O 0.00238 0.21104 0.58959 0.0
N20 N 0.99586 0.13821 0.60024 0.0
C21 C 0.98504 0.09822 0.57249 0.0
C22 C 0.99613 0.09537 0.59458 0.0
C23 C 0.00181 0.11564 0.60803 0.0
C24 C 0.98539 0.14127 0.57867 0.0
C25 C 0.97937 0.12153 0.56468 0.0
H26 H 0.01242 0.11297 0.62374 0.0
H27 H 0.98235 0.15933 0.57202 0.0
H28 H 0.05339 0.1362 0.62385 0.0
H29 H 0.07828 0.16343 0.55903 0.0
H30 H 0.91702 0.17709 0.63033 0.0
H31 H 0.00179 0.07775 0.60078 0.0
H32 H 0.97106 0.12455 0.54761 0.0
C33 C 0.34115 0.02915 0.58128 0.0
C34 C 0.34675 0.05308 0.578 0.0
N35 N 0.34896 0.06359 0.5994 0.0
N36 N 0.33998 0.02452 0.6046 0.0
C37 C 0.34454 0.04586 0.61519 0.0
H38 H 0.33878 0.01576 0.56757 0.0
Co39 Co 0.3348 0.99427 0.61756 0.0
C40 C 0.35966 0.99626 0.66445 0.0
O41 O 0.36677 0.97377 0.66256 0.0
N42 N 0.32899 0.96293 0.63019 0.0
C43 C 0.33155 0.92432 0.64154 0.0
C44 C 0.34327 0.94299 0.63037 0.0
C45 C 0.30854 0.9555 0.6411 0.0
N46 N 0.30963 0.93227 0.64797 0.0
O47 O 0.30317 0.00449 0.62596 0.0
H48 H 0.36157 0.94203 0.62383 0.0
H49 H 0.29326 0.967 0.6449 0.0
O50 O 0.34685 0.00573 0.64811 0.0
C51 C 0.28809 0.00239 0.60911 0.0
O52 O 0.29517 0.99166 0.58958 0.0
N53 N 0.36544 0.9854 0.60711 0.0
C54 C 0.40687 0.9805 0.57969 0.0
C55 C 0.40726 0.99428 0.60047 0.0
C56 C 0.38623 0.99679 0.61379 0.0
C57 C 0.36494 0.97136 0.58736 0.0
C58 C 0.38558 0.96827 0.57362 0.0
H59 H 0.38629 0.00969 0.62804 0.0
H60 H 0.34802 0.96353 0.58161 0.0
H61 H 0.34481 0.0483 0.63412 0.0
H62 H 0.34984 0.06175 0.56114 0.0
H63 H 0.3387 0.90649 0.64507 0.0
H64 H 0.42303 0.00471 0.60536 0.0
H65 H 0.38451 0.95747 0.55771 0.0
C66 C 0.46019 0.35099 0.57529 0.0
C67 C 0.4377 0.36099 0.57194 0.0
N68 N 0.4258 0.36066 0.59275 0.0
N69 N 0.46259 0.34466 0.59815 0.0
C70 C 0.44124 0.35032 0.60823 0.0
H71 H 0.47421 0.3491 0.56209 0.0
Co72 Co 0.49027 0.33183 0.61187 0.0
C73 C 0.49216 0.3624 0.65596 0.0
O74 O 0.51453 0.36922 0.65185 0.0
N75 N 0.51807 0.3177 0.62477 0.0
C76 C 0.55065 0.29409 0.62641 0.0
C77 C 0.53217 0.30237 0.61235 0.0
C78 C 0.52767 0.31736 0.64673 0.0
N79 N 0.54785 0.30378 0.64801 0.0
O80 O 0.47238 0.30417 0.62117 0.0
H81 H 0.52892 0.29716 0.59421 0.0
H82 H 0.51935 0.32542 0.66202 0.0
O83 O 0.4817 0.34764 0.6419 0.0
C84 C 0.46767 0.28968 0.60438 0.0
O85 O 0.47577 0.29468 0.5831 0.0
N86 N 0.50787 0.3589 0.60122 0.0
C87 C 0.52751 0.39694 0.57531 0.0
C88 C 0.50934 0.40118 0.59204 0.0
C89 C 0.49951 0.38188 0.60454 0.0
C90 C 0.5261 0.35468 0.58551 0.0
C91 C 0.53644 0.37347 0.57268 0.0
H92 H 0.48385 0.38524 0.61544 0.0
H93 H 0.53147 0.33656 0.58126 0.0
H94 H 0.43713 0.34679 0.62653 0.0
H95 H 0.43107 0.36866 0.5556 0.0
H96 H 0.56478 0.28167 0.62122 0.0
H97 H 0.50131 0.41889 0.59403 0.0
H98 H 0.55023 0.36941 0.55968 0.0
C99 C 0.15232 0.4718 0.58232 0.0
C100 C 0.14518 0.44835 0.57873 0.0
N101 N 0.14239 0.43761 0.59998 0.0
N102 N 0.15388 0.47597 0.6057 0.0
C103 C 0.14808 0.45478 0.61599 0.0
H104 H 0.15532 0.48527 0.5688 0.0
Co105 Co 0.16027 0.5058 0.61915 0.0
C106 C 0.13261 0.50407 0.66473 0.0
O107 O 0.12529 0.52646 0.66245 0.0
N108 N 0.16721 0.53665 0.6323 0.0
C109 C 0.16559 0.57505 0.64433 0.0
C110 C 0.15317 0.55671 0.63344 0.0
C111 C 0.18826 0.54369 0.64231 0.0
N112 N 0.18772 0.5668 0.64965 0.0
O113 O 0.1909 0.4937 0.62887 0.0
H114 H 0.13465 0.55801 0.62754 0.0
H115 H 0.20364 0.532 0.64504 0.0
O116 O 0.1463 0.49474 0.64903 0.0
C117 C 0.20629 0.49395 0.61216 0.0
O118 O 0.20022 0.50425 0.59209 0.0
N119 N 0.13074 0.51658 0.60742 0.0
C120 C 0.09129 0.52461 0.57804 0.0
C121 C 0.08898 0.51021 0.59831 0.0
C122 C 0.10905 0.50612 0.61263 0.0
C123 C 0.13309 0.53131 0.58828 0.0
C124 C 0.11347 0.53592 0.57355 0.0
H125 H 0.10756 0.49279 0.62644 0.0
H126 H 0.15069 0.53843 0.58371 0.0
H127 H 0.14767 0.45216 0.63489 0.0
H128 H 0.14136 0.4403 0.56173 0.0
H129 H 0.15879 0.59289 0.64839 0.0
H130 H 0.07242 0.50047 0.60196 0.0
H131 H 0.11601 0.54711 0.55805 0.0
C132 C 0.02864 0.34601 0.91245 0.0
C133 C 0.05236 0.35248 0.91578 0.0
N134 N 0.06288 0.35502 0.89441 0.0
N135 N 0.02412 0.3446 0.88912 0.0
C136 C 0.04533 0.34997 0.87856 0.0
H137 H 0.01532 0.34309 0.92614 0.0
Co138 Co 0.99397 0.33782 0.87647 0.0
C139 C 0.99431 0.36418 0.83013 0.0
O140 O 0.97182 0.37118 0.83273 0.0
N141 N 0.9627 0.33043 0.86434 0.0
C142 C 0.92373 0.33148 0.85387 0.0
C143 C 0.94258 0.34442 0.86325 0.0
C144 C 0.95517 0.30888 0.85587 0.0
N145 N 0.9317 0.30907 0.84949 0.0
O146 O 0.00599 0.30712 0.86704 0.0
H147 H 0.94152 0.36319 0.86825 0.0
H148 H 0.96672 0.29333 0.8536 0.0
O149 O 0.00428 0.35115 0.846 0.0
C150 C 0.00657 0.29202 0.88397 0.0
O151 O 0.99697 0.29824 0.90433 0.0
N152 N 0.98331 0.36745 0.88774 0.0
C153 C 0.97448 0.4078 0.91553 0.0
C154 C 0.9888 0.4096 0.89515 0.0
C155 C 0.99331 0.38909 0.88164 0.0
C156 C 0.96885 0.36551 0.90713 0.0
C157 C 0.9638 0.38557 0.92105 0.0
H158 H 0.00646 0.39032 0.86762 0.0
H159 H 0.96212 0.34798 0.91239 0.0
H160 H 0.04782 0.35028 0.85963 0.0
H161 H 0.06088 0.35582 0.93267 0.0
H162 H 0.90571 0.33809 0.85017 0.0
H163 H 0.99807 0.42622 0.89076 0.0
H164 H 0.95272 0.38342 0.93668 0.0
C165 C 0.14617 0.03752 0.91905 0.0
C166 C 0.13772 0.0606 0.92233 0.0
N167 N 0.13848 0.07226 0.9014 0.0
N168 N 0.15198 0.03452 0.89613 0.0
C169 C 0.14759 0.05608 0.88593 0.0
H170 H 0.1472 0.02349 0.93231 0.0
Co171 Co 0.1622 0.00571 0.88271 0.0
C172 C 0.1331 0.00594 0.83779 0.0
O173 O 0.12495 0.98403 0.84179 0.0
N174 N 0.17378 0.9766 0.87024 0.0
C175 C 0.19429 0.94198 0.8691 0.0
C176 C 0.18656 0.96061 0.88324 0.0
C177 C 0.17515 0.96788 0.84799 0.0
N178 N 0.18682 0.94655 0.84695 0.0
O179 O 0.19173 0.02065 0.87397 0.0
H180 H 0.19079 0.9628 0.90177 0.0
H181 H 0.16947 0.97759 0.83245 0.0
O182 O 0.14803 0.01562 0.85224 0.0
C183 C 0.20659 0.02397 0.89078 0.0
O184 O 0.20091 0.01621 0.91202 0.0
N185 N 0.13304 0.99118 0.89265 0.0
C186 C 0.09166 0.97623 0.91673 0.0
C187 C 0.09039 0.99462 0.8998 0.0
C188 C 0.1113 0.00206 0.88826 0.0
C189 C 0.1344 0.97279 0.90864 0.0
C190 C 0.11388 0.96478 0.9206 0.0
H191 H 0.11021 0.01789 0.87719 0.0
H192 H 0.1516 0.9654 0.9137 0.0
H193 H 0.15095 0.05977 0.86751 0.0
H194 H 0.1306 0.06781 0.93868 0.0
H195 H 0.20503 0.92663 0.87455 0.0
H196 H 0.07381 0.00459 0.89688 0.0
H197 H 0.11569 0.95073 0.93379 0.0
C198 C 0.46699 0.15376 0.91128 0.0
C199 C 0.44315 0.14778 0.91471 0.0
N200 N 0.43268 0.14471 0.89339 0.0
N201 N 0.47161 0.15436 0.88794 0.0
C202 C 0.45036 0.14902 0.87747 0.0
H203 H 0.48035 0.15676 0.92492 0.0
Co204 Co 0.50198 0.15968 0.8752 0.0
C205 C 0.50058 0.13454 0.82844 0.0
O206 O 0.52294 0.12707 0.83086 0.0
N207 N 0.53348 0.16561 0.86293 0.0
C208 C 0.57228 0.16304 0.8521 0.0
C209 C 0.55334 0.15121 0.86272 0.0
C210 C 0.54123 0.18625 0.85266 0.0
N211 N 0.56459 0.18514 0.84608 0.0
O212 O 0.49156 0.19107 0.86633 0.0
H213 H 0.55409 0.1328 0.86891 0.0
H214 H 0.52989 0.20172 0.84914 0.0
O215 O 0.49091 0.14744 0.84458 0.0
C216 C 0.49233 0.20623 0.88318 0.0
O217 O 0.50226 0.19959 0.90327 0.0
N218 N 0.51096 0.12924 0.88598 0.0
C219 C 0.51543 0.08827 0.914 0.0
C220 C 0.50192 0.08761 0.89304 0.0
C221 C 0.49963 0.10841 0.8794 0.0
C222 C 0.52486 0.12997 0.90584 0.0
C223 C 0.52774 0.10955 0.91989 0.0
H224 H 0.48689 0.10819 0.86499 0.0
H225 H 0.53266 0.14693 0.91146 0.0
H226 H 0.44797 0.14802 0.85855 0.0
H227 H 0.43456 0.14498 0.93167 0.0
H228 H 0.59012 0.15583 0.84865 0.0
H229 H 0.49147 0.07184 0.88825 0.0
H230 H 0.53835 0.11082 0.93592 0.0
C231 C 0.35124 0.46027 0.91957 0.0
C232 C 0.35997 0.43732 0.92299 0.0
N233 N 0.3593 0.42551 0.90215 0.0
N234 N 0.34536 0.46305 0.89664 0.0
C235 C 0.34997 0.44149 0.88658 0.0
H236 H 0.35008 0.47438 0.93273 0.0
Co237 Co 0.33479 0.49166 0.88313 0.0
C238 C 0.36397 0.49193 0.83826 0.0
O239 O 0.37159 0.51402 0.84228 0.0
N240 N 0.32287 0.52061 0.87057 0.0
C241 C 0.30262 0.55539 0.86928 0.0
C242 C 0.31018 0.53672 0.88349 0.0
C243 C 0.32151 0.52925 0.84829 0.0
N244 N 0.3101 0.5507 0.84717 0.0
O245 O 0.30541 0.47633 0.87439 0.0
H246 H 0.30601 0.53466 0.90206 0.0
H247 H 0.32715 0.51947 0.83277 0.0
O248 O 0.34921 0.48189 0.85267 0.0
C249 C 0.29052 0.4729 0.89117 0.0
O250 O 0.29611 0.48067 0.91242 0.0
N251 N 0.3638 0.5066 0.89302 0.0
C252 C 0.4055 0.52374 0.91507 0.0
C253 C 0.40677 0.50475 0.89883 0.0
C254 C 0.38571 0.49615 0.88838 0.0
C255 C 0.36234 0.5252 0.90874 0.0
C256 C 0.38299 0.53427 0.91973 0.0
H257 H 0.38695 0.48008 0.87767 0.0
H258 H 0.34507 0.53213 0.91418 0.0
H259 H 0.34663 0.43768 0.86817 0.0
H260 H 0.36721 0.43034 0.93938 0.0
H261 H 0.29213 0.57092 0.87469 0.0
H262 H 0.42364 0.49543 0.89549 0.0
H263 H 0.3812 0.54863 0.9326 0.0
C264 C 0.95012 0.81699 0.40793 0.0
C265 C 0.92668 0.82497 0.4105 0.0
N266 N 0.92074 0.8377 0.39106 0.0
N267 N 0.95887 0.82486 0.38708 0.0
C268 C 0.94048 0.83728 0.37716 0.0
H269 H 0.96054 0.80707 0.42087 0.0
Co270 Co 0.99075 0.82232 0.37747 0.0
C271 C 0.99344 0.85042 0.33248 0.0
O272 O 0.01537 0.85794 0.33752 0.0
N273 N 0.02324 0.81928 0.36806 0.0
C274 C 0.06324 0.82137 0.3636 0.0
C275 C 0.04405 0.82716 0.37802 0.0
C276 C 0.03043 0.80826 0.34801 0.0
N277 N 0.05453 0.80946 0.34477 0.0
O278 O 0.98391 0.7912 0.36522 0.0
H279 H 0.04555 0.8369 0.39443 0.0
H280 H 0.01798 0.80059 0.33531 0.0
O281 O 0.9824 0.83645 0.34684 0.0
C282 C 0.98892 0.77394 0.37918 0.0
O283 O -0.00011 0.77891 0.3992 0.0
N284 N 0.99657 0.85221 0.39145 0.0
C285 C -0.00088 0.8922 0.42104 0.0
C286 C 0.98986 0.89437 0.39809 0.0
C287 C 0.9883 0.87405 0.38371 0.0
C288 C 0.00526 0.84975 0.41384 0.0
C289 C 0.00713 0.86958 0.42882 0.0
H290 H 0.97885 0.87588 0.36719 0.0
H291 H 0.01019 0.83203 0.42028 0.0
H292 H 0.94194 0.84732 0.36084 0.0
H293 H 0.91518 0.82231 0.42576 0.0
H294 H 0.08205 0.82576 0.36662 0.0
H295 H 0.98249 0.91131 0.3918 0.0
H296 H 0.01416 0.86707 0.44651 0.0
C297 C 0.66443 0.9658 0.41189 0.0
C298 C 0.65729 0.94293 0.41836 0.0
N299 N 0.65097 0.93084 0.39864 0.0
N300 N 0.66243 0.96811 0.38827 0.0
C301 C 0.65455 0.94642 0.38068 0.0
H302 H 0.66948 0.98026 0.42374 0.0
Co303 Co 0.66545 0.99682 0.37163 0.0
C304 C 0.65497 0.98142 0.32286 0.0
O305 O 0.67485 0.99178 0.3152 0.0
N306 N 0.66827 0.0259 0.35528 0.0
C307 C 0.65968 0.05865 0.33428 0.0
C308 C 0.65031 0.03827 0.34459 0.0
C309 C 0.68829 0.03917 0.35137 0.0
N310 N 0.68366 0.05917 0.33846 0.0
O311 O 0.696 0.98604 0.36018 0.0
H312 H 0.63163 0.03258 0.34393 0.0
H313 H 0.70614 0.03373 0.35698 0.0
O314 O 0.64938 0.98265 0.34467 0.0
C315 C 0.71288 0.98852 0.37526 0.0
O316 O 0.70813 9e-05 0.395 0.0
N317 N 0.63635 0.007 0.38447 0.0
C318 C 0.59712 0.01787 0.41311 0.0
C319 C 0.59484 0.0011 0.39468 0.0
C320 C 0.61477 0.99577 0.38061 0.0
C321 C 0.63861 0.02425 0.40145 0.0
C322 C 0.61912 0.03008 0.41596 0.0
H323 H 0.61316 0.98148 0.36777 0.0
H324 H 0.65602 0.03255 0.40452 0.0
H325 H 0.6499 0.94253 0.36254 0.0
H326 H 0.65594 0.93609 0.43623 0.0
H327 H 0.64963 0.07172 0.32401 0.0
H328 H 0.57833 0.9909 0.39221 0.0
H329 H 0.62156 0.04319 0.42995 0.0
C330 C 0.54689 0.66954 0.41051 0.0
C331 C 0.56999 0.66095 0.41368 0.0
N332 N 0.57604 0.64781 0.39454 0.0
N333 N 0.53845 0.66184 0.38949 0.0
C334 C 0.55666 0.64873 0.38012 0.0
H335 H 0.53655 0.67996 0.4231 0.0
Co336 Co 0.50699 0.6661 0.37915 0.0
C337 C 0.50539 0.64552 0.33012 0.0
O338 O 0.48201 0.64168 0.33114 0.0
N339 N 0.47449 0.67082 0.3694 0.0
C340 C 0.43483 0.66723 0.36252 0.0
C341 C 0.4548 0.65657 0.37261 0.0
C342 C 0.46571 0.69012 0.35755 0.0
N343 N 0.44183 0.68843 0.3534 0.0
O344 O 0.51525 0.6981 0.37031 0.0
H345 H 0.45475 0.63911 0.38107 0.0
H346 H 0.47661 0.70494 0.35119 0.0
O347 O 0.51633 0.65505 0.34767 0.0
C348 C 0.51158 0.71424 0.38588 0.0
O349 O 0.50014 0.70823 0.40538 0.0
N350 N 0.50015 0.63513 0.38978 0.0
C351 C 0.4998 0.59302 0.41646 0.0
C352 C 0.50807 0.59279 0.39302 0.0
C353 C 0.50822 0.61411 0.37996 0.0
C354 C 0.49102 0.63546 0.41211 0.0
C355 C 0.49027 0.61451 0.42564 0.0
H356 H 0.51673 0.61382 0.36286 0.0
H357 H 0.4854 0.65242 0.41981 0.0
H358 H 0.5553 0.63879 0.36374 0.0
H359 H 0.58124 0.66369 0.4291 0.0
H360 H 0.4167 0.65994 0.36174 0.0
H361 H 0.51609 0.57677 0.38538 0.0
H362 H 0.48338 0.61544 0.44353 0.0
C363 C 0.83668 0.52516 0.40682 0.0
C364 C 0.84604 0.54785 0.41055 0.0
N365 N 0.8547 0.55613 0.38983 0.0
N366 N 0.83956 0.51918 0.38391 0.0
C367 C 0.85041 0.53851 0.37398 0.0
H368 H 0.82927 0.5133 0.42015 0.0
Co369 Co 0.83328 0.48881 0.37156 0.0
C370 C 0.85779 0.48934 0.32419 0.0
O371 O 0.86391 0.46652 0.32564 0.0
N372 N 0.82651 0.45739 0.35969 0.0
C373 C 0.82814 0.41839 0.34958 0.0
C374 C 0.84061 0.43734 0.35947 0.0
C375 C 0.80544 0.44979 0.35013 0.0
N376 N 0.80596 0.42631 0.34405 0.0
O377 O 0.80209 0.5 0.36258 0.0
H378 H 0.85915 0.43641 0.36537 0.0
H379 H 0.78999 0.46125 0.3469 0.0
O380 O 0.84578 0.49914 0.34089 0.0
C381 C 0.78641 0.49842 0.37896 0.0
O382 O 0.79237 0.48724 0.3986 0.0
N383 N 0.86343 0.47907 0.38248 0.0
C384 C 0.90398 0.47417 0.41107 0.0
C385 C 0.90549 0.48633 0.38937 0.0
C386 C 0.88491 0.4888 0.3754 0.0
C387 C 0.86192 0.46618 0.40292 0.0
C388 C 0.88209 0.46314 0.41731 0.0
H389 H 0.88593 0.50051 0.36022 0.0
H390 H 0.84454 0.45948 0.40874 0.0
H391 H 0.85659 0.53915 0.35588 0.0
H392 H 0.84703 0.5572 0.42731 0.0
H393 H 0.83488 0.40032 0.3465 0.0
H394 H 0.92183 0.4957 0.38419 0.0
H395 H 0.88018 0.4535 0.43386 0.0
C396 C 0.96301 0.66162 0.09106 0.0
C397 C 0.94026 0.65204 0.08814 0.0
N398 N 0.93269 0.64362 0.10921 0.0
N399 N 0.96977 0.65911 0.11381 0.0
C400 C 0.95078 0.64832 0.12448 0.0
H401 H 0.97446 0.66875 0.07723 0.0
Co402 Co 0.0008 0.66512 0.12498 0.0
C403 C 0.00227 0.63711 0.1707 0.0
O404 O 0.02482 0.6304 0.16792 0.0
N405 N 0.0328 0.67151 0.13559 0.0
C406 C 0.07219 0.66884 0.14407 0.0
C407 C 0.05243 0.65681 0.13534 0.0
C408 C 0.04151 0.69257 0.14417 0.0
N409 N 0.06526 0.69138 0.14937 0.0
O410 O 0.98977 0.69546 0.13643 0.0
H411 H 0.05254 0.63814 0.12984 0.0
H412 H 0.03064 0.70843 0.14737 0.0
O413 O 0.99218 0.65057 0.15527 0.0
C414 C 0.98901 0.71153 0.12039 0.0
O415 O 0.99833 0.70649 0.0996 0.0
N416 N 0.01035 0.63596 0.11179 0.0
C417 C 0.01675 0.59692 0.08169 0.0
C418 C 0.0043 0.59416 0.10311 0.0
C419 C 0.00105 0.61401 0.11785 0.0
C420 C 0.02316 0.6388 0.09143 0.0
C421 C 0.02696 0.6194 0.07629 0.0
H422 H 0.98933 0.61202 0.13294 0.0
H423 H 0.02947 0.65656 0.08643 0.0
H424 H 0.95078 0.64234 0.14265 0.0
H425 H 0.93046 0.65055 0.07165 0.0
H426 H 0.09013 0.66151 0.1467 0.0
H427 H 0.99547 0.57733 0.1076 0.0
H428 H 0.03672 0.62228 0.05994 0.0
C429 C 0.83425 0.95584 0.08767 0.0
C430 C 0.84158 0.93224 0.08553 0.0
N431 N 0.84522 0.92315 0.10739 0.0
N432 N 0.83343 0.96171 0.11072 0.0
C433 C 0.8397 0.94136 0.12231 0.0
H434 H 0.83097 0.96835 0.07334 0.0
Co435 Co 0.82818 0.9927 0.122 0.0
C436 C 0.85978 0.99261 0.16483 0.0
O437 O 0.8698 0.01306 0.15827 0.0
N438 N 0.82171 0.02423 0.13267 0.0
C439 C 0.80709 0.06176 0.13276 0.0
C440 C 0.81199 0.04185 0.11912 0.0
C441 C 0.82137 0.0336 0.15473 0.0
N442 N 0.81328 0.05654 0.15513 0.0
O443 O 0.79729 0.98277 0.13297 0.0
H444 H 0.80735 0.03996 0.10067 0.0
H445 H 0.82505 0.02341 0.17058 0.0
O446 O 0.84268 0.98355 0.15246 0.0
C447 C 0.78132 0.98455 0.11689 0.0
O448 O 0.7875 0.99448 0.09667 0.0
N449 N 0.85846 0.00185 0.10934 0.0
C450 C 0.89955 0.00772 0.08129 0.0
C451 C 0.89961 0.99151 0.10025 0.0
C452 C 0.87882 0.98854 0.11376 0.0
C453 C 0.85835 0.01806 0.09119 0.0
C454 C 0.87881 0.02159 0.07722 0.0
H455 H 0.87866 0.9741 0.12655 0.0
H456 H 0.84192 0.02692 0.08603 0.0
H457 H 0.84102 0.94021 0.14131 0.0
H458 H 0.84525 0.92305 0.06906 0.0
H459 H 0.79876 0.0784 0.12689 0.0
H460 H 0.9149 0.97975 0.10348 0.0
H461 H 0.87789 0.03406 0.0625 0.0
C462 C 0.53146 0.83109 0.07962 0.0
C463 C 0.55451 0.83939 0.07551 0.0
N464 N 0.56408 0.84649 0.09628 0.0
N465 N 0.52649 0.83306 0.10283 0.0
C466 C 0.54682 0.84219 0.11258 0.0
H467 H 0.51879 0.82475 0.06646 0.0
Co468 Co 0.4965 0.82637 0.11598 0.0
C469 C 0.49813 0.85801 0.15907 0.0
O470 O 0.47694 0.86756 0.15423 0.0
N471 N 0.46605 0.8184 0.12846 0.0
C472 C 0.42959 0.80139 0.13095 0.0
C473 C 0.4483 0.80738 0.11608 0.0
C474 C 0.45804 0.81785 0.15101 0.0
N475 N 0.43574 0.80828 0.15288 0.0
O476 O 0.50867 0.79638 0.12686 0.0
H477 H 0.44943 0.80255 0.09761 0.0
H478 H 0.46895 0.82237 0.16619 0.0
O479 O 0.50675 0.84149 0.14572 0.0
C480 C 0.50738 0.77955 0.11166 0.0
O481 O 0.4966 0.784 0.09142 0.0
N482 N 0.48491 0.85579 0.1036 0.0
C483 C 0.47351 0.8965 0.07682 0.0
C484 C 0.49088 0.89774 0.09475 0.0
C485 C 0.49667 0.87711 0.10757 0.0
C486 C 0.46785 0.85439 0.08625 0.0
C487 C 0.4616 0.87459 0.07289 0.0
H488 H 0.51179 0.87809 0.11955 0.0
H489 H 0.46025 0.83727 0.08135 0.0
H490 H 0.54853 0.84686 0.13104 0.0
H491 H 0.56332 0.84054 0.05847 0.0
H492 H 0.41323 0.79183 0.1262 0.0
H493 H 0.50127 0.91404 0.09768 0.0
H494 H 0.44847 0.87276 0.0588 0.0
C495 C 0.67999 0.54237 0.08923 0.0
C496 C 0.67359 0.56615 0.08597 0.0
N497 N 0.66153 0.57361 0.10532 0.0
N498 N 0.67177 0.53489 0.11041 0.0
C499 C 0.66093 0.55443 0.11994 0.0
H500 H 0.68875 0.53082 0.07643 0.0
Co501 Co 0.67168 0.50301 0.12022 0.0
C502 C 0.63773 0.50363 0.16147 0.0
O503 O 0.62712 0.48375 0.15417 0.0
N504 N 0.67247 0.47045 0.12962 0.0
C505 C 0.67792 0.43052 0.13002 0.0
C506 C 0.67523 0.4506 0.11592 0.0
C507 C 0.67441 0.46194 0.1519 0.0
N508 N 0.677 0.43781 0.1526 0.0
O509 O 0.70204 0.50806 0.13494 0.0
H510 H 0.6767 0.45056 0.09694 0.0
H511 H 0.67528 0.47329 0.16743 0.0
O512 O 0.65544 0.51235 0.14971 0.0
C513 C 0.72001 0.50284 0.12191 0.0
O514 O 0.71591 0.49233 0.10148 0.0
N515 N 0.64237 0.49882 0.1039 0.0
C516 C 0.60393 0.49897 0.07193 0.0
C517 C 0.60202 0.51088 0.09367 0.0
C518 C 0.62156 0.51103 0.10914 0.0
C519 C 0.64469 0.48766 0.08256 0.0
C520 C 0.62555 0.48701 0.06654 0.0
H521 H 0.6203 0.52263 0.12433 0.0
H522 H 0.66204 0.48081 0.07708 0.0
H523 H 0.65096 0.55418 0.13637 0.0
H524 H 0.67653 0.57676 0.07016 0.0
H525 H 0.68104 0.41217 0.1242 0.0
H526 H 0.58617 0.52145 0.09806 0.0
H527 H 0.62806 0.47811 0.04968 0.0
C528 C 0.00779 0.11783 0.69688 0.0
C529 C 0.01975 0.1301 0.67857 0.0
C530 C 0.02089 0.10563 0.7143 0.0
C531 C 0.08304 0.09804 0.73935 0.0
H532 H 0.0556 0.0383 0.76271 0.0
C533 C 0.10961 0.00872 0.80003 0.0
C534 C 0.12315 0.02011 0.81781 0.0
C535 C 0.09843 0.02227 0.78227 0.0
C536 C 0.0638 0.05473 0.75616 0.0
H537 H 0.05499 0.14014 0.66496 0.0
H538 H 0.0778 0.11791 0.69445 0.0
H539 H 0.03365 0.06171 0.73366 0.0
H540 H 0.1362 0.05468 0.8303 0.0
H541 H 0.11587 0.07837 0.80027 0.0
H542 H 0.11377 0.09036 0.76098 0.0
C543 C 0.05828 0.11801 0.69574 0.0
C544 C 0.0509 0.0685 0.73977 0.0
C545 C 0.04515 0.13059 0.67857 0.0
C546 C 0.12582 0.0453 0.81702 0.0
C547 C 0.11427 0.05892 0.79955 0.0
C548 C 0.09613 0.08406 0.75549 0.0
C549 C 0.04633 0.10505 0.71367 0.0
C550 C 0.06023 0.09045 0.73122 0.0
C551 C 0.10014 0.04763 0.78207 0.0
C552 C 0.08664 0.06224 0.76423 0.0
H553 H 0.98823 0.11738 0.69764 0.0
H554 H 0.01099 0.09652 0.72818 0.0
H555 H 0.09077 0.11494 0.73345 0.0
H556 H 0.10744 0.98929 0.79993 0.0
H557 H 0.0883 0.0128 0.76879 0.0
C558 C 0.39191 0.00422 0.69435 0.0
C559 C 0.37089 0.01194 0.68261 0.0
C560 C 0.40441 0.01982 0.70936 0.0
C561 C 0.4001 0.07156 0.74783 0.0
H562 H 0.46801 0.08049 0.73329 0.0
C563 C 0.46185 0.13286 0.80511 0.0
C564 C 0.4854 0.1243 0.80932 0.0
C565 C 0.44701 0.12168 0.78827 0.0
C566 C 0.44917 0.07802 0.73784 0.0
H567 H 0.34587 0.04177 0.67834 0.0
H568 H 0.36756 0.06894 0.70526 0.0
H569 H 0.4431 0.05538 0.70775 0.0
H570 H 0.51186 0.09743 0.79891 0.0
H571 H 0.48605 0.07769 0.77031 0.0
H572 H 0.40631 0.09319 0.77858 0.0
C573 C 0.3744 0.05085 0.70245 0.0
C574 C 0.43489 0.06375 0.72308 0.0
C575 C 0.36207 0.03533 0.68704 0.0
C576 C 0.49391 0.10467 0.79602 0.0
C577 C 0.47907 0.09338 0.77943 0.0
C578 C 0.41451 0.08556 0.7629 0.0
C579 C 0.39597 0.04336 0.71331 0.0
C580 C 0.41034 0.06008 0.72811 0.0
C581 C 0.45535 0.1016 0.77537 0.0
C582 C 0.43937 0.08863 0.75831 0.0
H583 H 0.39928 0.98638 0.69131 0.0
H584 H 0.42088 0.01357 0.71772 0.0
H585 H 0.3812 0.06892 0.75208 0.0
H586 H 0.45479 0.14807 0.81493 0.0
H587 H 0.42902 0.12878 0.78542 0.0
C588 C 0.37349 0.45279 0.81802 0.0
C589 C 0.37427 0.47812 0.81825 0.0
C590 C 0.38538 0.43973 0.80037 0.0
C591 C 0.43365 0.44672 0.75492 0.0
H592 H 0.40977 0.38465 0.73381 0.0
C593 C 0.45328 0.3715 0.67701 0.0
C594 C 0.47858 0.37328 0.67587 0.0
C595 C 0.4403 0.38357 0.6946 0.0
C596 C 0.41662 0.40207 0.73926 0.0
H597 H 0.38706 0.50966 0.79937 0.0
H598 H 0.40678 0.48703 0.76797 0.0
H599 H 0.38647 0.40786 0.76219 0.0
H600 H 0.51022 0.38815 0.69315 0.0
H601 H 0.48779 0.40824 0.72447 0.0
H602 H 0.46314 0.44155 0.73113 0.0
C603 C 0.39787 0.4771 0.78195 0.0
C604 C 0.40338 0.41528 0.75588 0.0
C605 C 0.38635 0.49013 0.79986 0.0
C606 C 0.4907 0.38663 0.69333 0.0
C607 C 0.47777 0.39835 0.7112 0.0
C608 C 0.44668 0.4337 0.73805 0.0
C609 C 0.39799 0.45169 0.7822 0.0
C610 C 0.41174 0.43777 0.76402 0.0
C611 C 0.45234 0.39737 0.71184 0.0
C612 C 0.43843 0.41113 0.73002 0.0
H613 H 0.36439 0.44297 0.83188 0.0
H614 H 0.38526 0.42023 0.80145 0.0
H615 H 0.44099 0.46373 0.76099 0.0
H616 H 0.44335 0.36132 0.66396 0.0
H617 H 0.42077 0.38256 0.69421 0.0
C618 C 0.0002 0.39451 0.79794 0.0
C619 C 0.00916 0.37489 0.811 0.0
C620 C 0.01466 0.40612 0.78123 0.0
C621 C 0.07885 0.4149 0.76381 0.0
H622 H 0.04911 0.44455 0.70894 0.0
C623 C 0.1304 0.46525 0.68775 0.0
C624 C 0.12117 0.48837 0.68274 0.0
C625 C 0.11817 0.44977 0.70326 0.0
C626 C 0.05764 0.43636 0.7242 0.0
H627 H 0.04019 0.35155 0.81612 0.0
H628 H 0.0653 0.37142 0.78642 0.0
H629 H 0.02487 0.41928 0.73494 0.0
H630 H 0.09206 0.51344 0.69046 0.0
H631 H 0.07065 0.48631 0.7171 0.0
H632 H 0.11181 0.43186 0.75248 0.0
C633 C 0.04724 0.37824 0.78954 0.0
C634 C 0.04374 0.42197 0.73922 0.0
C635 C 0.03279 0.36674 0.80648 0.0
C636 C 0.09975 0.49581 0.69394 0.0
C637 C 0.08737 0.48023 0.70908 0.0
C638 C 0.09287 0.42901 0.74849 0.0
C639 C 0.03843 0.39826 0.77683 0.0
C640 C 0.05398 0.41151 0.75957 0.0
C641 C 0.09629 0.45699 0.71369 0.0
C642 C 0.08224 0.4403 0.72886 0.0
H643 H 0.98218 0.40144 0.80107 0.0
H644 H 0.00732 0.42175 0.77226 0.0
H645 H 0.08737 0.40738 0.77939 0.0
H646 H 0.14691 0.45902 0.67946 0.0
H647 H 0.12539 0.43191 0.70655 0.0
C648 C 0.98922 0.88266 0.30178 0.0
C649 C 0.97968 0.86226 0.31323 0.0
C650 C 0.97515 0.89583 0.28585 0.0
C651 C 0.92219 0.8936 0.24701 0.0
H652 H 0.92092 0.96284 0.25687 0.0
C653 C 0.86052 0.95646 0.19168 0.0
C654 C 0.87075 0.97842 0.18426 0.0
C655 C 0.87231 0.94203 0.2084 0.0
C656 C 0.92125 0.94358 0.25365 0.0
H657 H 0.94826 0.839 0.31596 0.0
H658 H 0.92378 0.86194 0.28781 0.0
H659 H 0.94519 0.93744 0.28275 0.0
H660 H 0.90119 0.00262 0.189 0.0
H661 H 0.92182 0.97745 0.21769 0.0
H662 H 0.89876 0.89975 0.2175 0.0
C663 C 0.94211 0.86776 0.29136 0.0
C664 C 0.93514 0.92903 0.26853 0.0
C665 C 0.95612 0.85468 0.30751 0.0
C666 C 0.89268 0.9859 0.19439 0.0
C667 C 0.90451 0.97146 0.21098 0.0
C668 C 0.90846 0.9082 0.23191 0.0
C669 C 0.95132 0.88878 0.2808 0.0
C670 C 0.93595 0.90393 0.26524 0.0
C671 C 0.89463 0.94921 0.21805 0.0
C672 C 0.908 0.93342 0.23491 0.0
H673 H 0.00729 0.889 0.30571 0.0
H674 H 0.98283 0.91177 0.27768 0.0
H675 H 0.92258 0.87429 0.24402 0.0
H676 H 0.84355 0.95024 0.18434 0.0
H677 H 0.86396 0.92521 0.21371 0.0
C678 C 0.61985 0.95402 0.31516 0.0
C679 C 0.63908 0.96798 0.30639 0.0
C680 C 0.60483 0.94122 0.2998 0.0
C681 C 0.60121 0.91729 0.23864 0.0
H682 H 0.53263 0.91437 0.25248 0.0
C683 C 0.5359 0.85836 0.18367 0.0
C684 C 0.51333 0.86851 0.17801 0.0
C685 C 0.55112 0.86954 0.20009 0.0
C686 C 0.5517 0.91513 0.24824 0.0
H687 H 0.65757 0.97941 0.27451 0.0
H688 H 0.63099 0.95749 0.24761 0.0
H689 H 0.55943 0.93648 0.27876 0.0
H690 H 0.48888 0.89812 0.18559 0.0
H691 H 0.51544 0.9177 0.21394 0.0
H692 H 0.59331 0.89661 0.20766 0.0
C693 C 0.6278 0.95608 0.26644 0.0
C694 C 0.56715 0.92757 0.2635 0.0
C695 C 0.64296 0.96879 0.28186 0.0
C696 C 0.50608 0.88973 0.1896 0.0
C697 C 0.52132 0.90094 0.20595 0.0
C698 C 0.58572 0.90491 0.22331 0.0
C699 C 0.6085 0.94216 0.27523 0.0
C700 C 0.59211 0.92884 0.25891 0.0
C701 C 0.54415 0.89114 0.21123 0.0
C702 C 0.56075 0.90372 0.22789 0.0
H703 H 0.61642 0.95277 0.33395 0.0
H704 H 0.59046 0.93036 0.30726 0.0
H705 H 0.62035 0.91763 0.23468 0.0
H706 H 0.54197 0.84191 0.17521 0.0
H707 H 0.56839 0.86124 0.20403 0.0
C708 C 0.54457 0.63926 0.30848 0.0
C709 C 0.51968 0.63463 0.3107 0.0
C710 C 0.55841 0.62706 0.29155 0.0
C711 C 0.55287 0.5885 0.23758 0.0
H712 H 0.61718 0.56718 0.25521 0.0
C713 C 0.60282 0.51292 0.18803 0.0
C714 C 0.62639 0.51824 0.18036 0.0
C715 C 0.59093 0.52815 0.20389 0.0
C716 C 0.59932 0.57319 0.25001 0.0
H717 H 0.48978 0.61385 0.29655 0.0
H718 H 0.51382 0.59226 0.26766 0.0
H719 H 0.59406 0.59262 0.28228 0.0
H720 H 0.6563 0.54326 0.18406 0.0
H721 H 0.6356 0.56961 0.21233 0.0
H722 H 0.55788 0.56824 0.20573 0.0
C723 C 0.5227 0.60567 0.27852 0.0
C724 C 0.58608 0.58789 0.26543 0.0
C725 C 0.50886 0.61801 0.29524 0.0
C726 C 0.63815 0.53867 0.18963 0.0
C727 C 0.62634 0.55373 0.20581 0.0
C728 C 0.56594 0.57354 0.22238 0.0
C729 C 0.54772 0.60982 0.27657 0.0
C730 C 0.56255 0.59554 0.25953 0.0
C731 C 0.60245 0.54885 0.21271 0.0
C732 C 0.58918 0.56554 0.22854 0.0
H733 H 0.55345 0.65208 0.32002 0.0
H734 H 0.57751 0.63108 0.29032 0.0
H735 H 0.53509 0.59446 0.2321 0.0
H736 H 0.5932 0.49739 0.18123 0.0
H737 H 0.5726 0.52384 0.20914 0.0
C738 C 0.86146 0.52879 0.30253 0.0
C739 C 0.86905 0.50481 0.30587 0.0
C740 C 0.87385 0.54405 0.28695 0.0
C741 C 0.91996 0.54345 0.23851 0.0
H742 H 0.92952 0.61022 0.25683 0.0
C743 C 0.9946 0.6027 0.1983 0.0
C744 C 0.987 0.62473 0.18847 0.0
C745 C 0.97904 0.58924 0.21258 0.0
C746 C 0.92683 0.59165 0.25145 0.0
H747 H 0.89539 0.47798 0.29512 0.0
H748 H 0.91726 0.50452 0.26864 0.0
H749 H 0.90391 0.58409 0.281 0.0
H750 H 0.9575 0.65048 0.1869 0.0
H751 H 0.93046 0.62708 0.21246 0.0
H752 H 0.94375 0.55089 0.20953 0.0
C753 C 0.90142 0.51155 0.27751 0.0
C754 C 0.91203 0.57667 0.26518 0.0
C755 C 0.88889 0.49627 0.29284 0.0
C756 C 0.96386 0.63353 0.19415 0.0
C757 C 0.9484 0.6202 0.20879 0.0
C758 C 0.93503 0.5583 0.22507 0.0
C759 C 0.89426 0.53574 0.27449 0.0
C760 C 0.90861 0.55226 0.25904 0.0
C761 C 0.95569 0.59768 0.21768 0.0
C762 C 0.93881 0.58245 0.23153 0.0
H763 H 0.84612 0.53588 0.31218 0.0
H764 H 0.86748 0.56239 0.2848 0.0
H765 H 0.91733 0.525 0.2328 0.0
H766 H 0.01225 0.59533 0.19423 0.0
H767 H 0.98516 0.57203 0.21943 0.0
C768 C 0.00423 0.93621 0.42948 0.0
C769 C 0.99825 0.91295 0.4374 0.0
C770 C 0.00158 0.95603 0.44444 0.0
C771 C 0.97838 0.99508 0.4742 0.0
H772 H -0.00054 0.99238 0.53953 0.0
C773 C 0.97424 0.05489 0.56564 0.0
C774 C 0.98194 0.07724 0.55667 0.0
C775 C 0.97379 0.03456 0.5511 0.0
C776 C 0.99312 0.99325 0.52144 0.0
H777 H 0.98489 0.89215 0.46716 0.0
H778 H 0.98045 0.92675 0.49332 0.0
H779 H 0.00488 0.95724 0.51415 0.0
H780 H 0.99488 0.09591 0.5254 0.0
H781 H 0.99396 0.06054 0.50008 0.0
H782 H 0.96683 0.03116 0.48143 0.0
C783 C 0.98743 0.92961 0.47565 0.0
C784 C 0.9963 0.97319 0.5069 0.0
C785 C 0.99005 0.90981 0.4607 0.0
C786 C 0.98843 0.07904 0.53273 0.0
C787 C 0.98794 0.05877 0.51822 0.0
C788 C 0.97517 0.01513 0.48874 0.0
C789 C 0.9929 0.95292 0.46757 0.0
C790 C 0.98916 0.974 0.4831 0.0
C791 C 0.98101 0.03626 0.52736 0.0
C792 C 0.98271 0.01447 0.51243 0.0
H793 H 0.01085 0.9391 0.41168 0.0
H794 H 0.00632 0.97378 0.4379 0.0
H795 H 0.97229 0.99602 0.45603 0.0
H796 H 0.9689 0.05306 0.58397 0.0
H797 H 0.96805 0.01746 0.55849 0.0
C798 C 0.58363 0.01917 0.45516 0.0
C799 C 0.57776 0.01999 0.431 0.0
C800 C 0.56548 0.01707 0.47211 0.0
C801 C 0.49993 0.02259 0.48221 0.0
H802 H 0.51069 0.97181 0.52829 0.0
C803 C 0.42269 0.98529 0.53864 0.0
C804 C 0.4273 0.98192 0.56285 0.0
C805 C 0.44157 0.9899 0.523 0.0
C806 C 0.50754 0.98623 0.51573 0.0
H807 H 0.54834 0.02076 0.40572 0.0
H808 H 0.51655 0.01689 0.4354 0.0
H809 H 0.54272 0.98239 0.50057 0.0
H810 H 0.45541 0.97972 0.58947 0.0
H811 H 0.48848 0.98817 0.56211 0.0
H812 H 0.4647 0.02635 0.49726 0.0
C813 C 0.53518 0.01794 0.4412 0.0
C814 C 0.52588 0.99233 0.49991 0.0
C815 C 0.55335 0.01999 0.42421 0.0
C816 C 0.45131 0.9824 0.57094 0.0
C817 C 0.47023 0.98708 0.55526 0.0
C818 C 0.48162 0.01653 0.49806 0.0
C819 C 0.54114 0.01577 0.46525 0.0
C820 C 0.52218 0.01045 0.48289 0.0
C821 C 0.46546 0.99138 0.53122 0.0
C822 C 0.48516 -0.00188 0.51483 0.0
H823 H 0.60229 0.01886 0.46093 0.0
H824 H 0.57054 0.01576 0.49057 0.0
H825 H 0.49671 0.03681 0.46945 0.0
H826 H 0.40439 0.98541 0.53185 0.0
H827 H 0.43739 0.99271 0.5045 0.0
C828 C 0.53643 0.44005 0.56514 0.0
C829 C 0.53375 0.41593 0.558 0.0
C830 C 0.53744 0.45846 0.54832 0.0
C831 C 0.5127 0.4709 0.49055 0.0
H832 H 0.55294 0.5281 0.49219 0.0
C833 C 0.50142 0.54824 0.42325 0.0
C834 C 0.50378 0.57185 0.432 0.0
C835 C 0.50727 0.52848 0.43746 0.0
C836 C 0.54141 0.51232 0.49166 0.0
H837 H 0.53139 0.39204 0.52766 0.0
H838 H 0.53339 0.42416 0.49842 0.0
H839 H 0.56137 0.49475 0.51922 0.0
H840 H 0.51418 0.59316 0.46258 0.0
H841 H 0.52311 0.55881 0.48761 0.0
H842 H 0.4921 0.48863 0.46378 0.0
C843 C 0.53459 0.4288 0.51698 0.0
C844 C 0.54636 0.49323 0.50702 0.0
C845 C 0.53372 0.41042 0.53375 0.0
C846 C 0.51169 0.57523 0.45538 0.0
C847 C 0.51731 0.55552 0.46961 0.0
C848 C 0.5076 0.49004 0.47538 0.0
C849 C 0.53559 0.453 0.52414 0.0
C850 C 0.53192 0.47245 0.5067 0.0
C851 C 0.51544 0.53193 0.46075 0.0
C852 C 0.52173 0.51107 0.47594 0.0
H853 H 0.53665 0.44474 0.58372 0.0
H854 H 0.53814 0.47702 0.55427 0.0
H855 H 0.50102 0.45522 0.49026 0.0
H856 H 0.49524 0.54502 0.40537 0.0
H857 H 0.50579 0.51053 0.43004 0.0
C858 C 0.91843 0.4817 0.45221 0.0
C859 C 0.92383 0.47632 0.42851 0.0
C860 C 0.93683 0.4871 0.46814 0.0
C861 C 0.00243 0.48275 0.47802 0.0
H862 H 0.99132 0.5375 0.5194 0.0
C863 C 0.07794 0.52099 0.53608 0.0
C864 C 0.07196 0.52458 0.55997 0.0
C865 C 0.05989 0.51707 0.51935 0.0
C866 C 0.99459 0.5221 0.50805 0.0
H867 H 0.95283 0.47137 0.40319 0.0
H868 H 0.98507 0.48121 0.43104 0.0
H869 H 0.95985 0.52504 0.49178 0.0
H870 H 0.04239 0.52822 0.58484 0.0
H871 H 0.01074 0.52113 0.55554 0.0
H872 H 0.03715 0.4798 0.49432 0.0
C873 C 0.96657 0.48107 0.43728 0.0
C874 C 0.97659 0.5149 0.49231 0.0
C875 C 0.94812 0.47559 0.42131 0.0
C876 C 0.0475 0.52535 0.56658 0.0
C877 C 0.02941 0.52145 0.5498 0.0
C878 C 0.02045 0.48998 0.49373 0.0
C879 C 0.96103 0.48738 0.46072 0.0
C880 C 0.98028 0.49506 0.47724 0.0
C881 C 0.03551 0.51663 0.52615 0.0
C882 C 0.01667 0.50967 0.50894 0.0
H883 H 0.8999 0.4828 0.45828 0.0
H884 H 0.93205 0.49149 0.4862 0.0
H885 H 0.00567 0.46723 0.46682 0.0
H886 H 0.09662 0.51996 0.53044 0.0
H887 H 0.06507 0.51375 0.50117 0.0
C888 C 0.97764 0.42313 0.9568 0.0
C889 C 0.97388 0.42789 0.93268 0.0
C890 C 0.98076 0.442 0.97273 0.0
C891 C 0.002 0.50431 0.97437 0.0
H892 H 0.9774 0.50266 0.03854 0.0
C893 C 0.01082 0.58322 0.04007 0.0
C894 C 0.01599 0.57752 0.06376 0.0
C895 C 0.00663 0.56499 0.02365 0.0
C896 C 0.98462 0.50317 0.02075 0.0
H897 H 0.96913 0.45608 0.90653 0.0
H898 H 0.97445 0.48924 0.93455 0.0
H899 H 0.96519 0.4715 0.01057 0.0
H900 H 0.02209 0.54826 0.08851 0.0
H901 H 0.01464 0.51628 0.05969 0.0
H902 H 0.0214 0.53603 0.98459 0.0
C903 C 0.97535 0.47085 0.94098 0.0
C904 C 0.97755 0.48543 0.00473 0.0
C905 C 0.97223 0.45193 0.92499 0.0
C906 C 0.01786 0.55317 0.07045 0.0
C907 C 0.01355 0.53492 0.05401 0.0
C908 C 0.00902 0.52209 0.99038 0.0
C909 C 0.98019 0.46602 0.9649 0.0
C910 C 0.98628 0.48575 0.98142 0.0
C911 C 0.0074 0.5407 0.0306 0.0
C912 C 0.00049 0.5216 0.01374 0.0
H913 H 0.97951 0.40481 0.96321 0.0
H914 H 0.9848 0.4377 0.99099 0.0
H915 H 0.00938 0.50475 0.95664 0.0
H916 H 0.00877 0.60178 0.03443 0.0
H917 H 0.00168 0.56995 0.00577 0.0
C918 C 0.04717 0.97261 0.92418 0.0
C919 C 0.07097 0.97213 0.9328 0.0
C920 C 0.0277 0.97373 0.93982 0.0
C921 C 0.01014 0.96761 0.00269 0.0
H922 H 0.96455 0.01847 0.98733 0.0
C923 C 0.94363 0.00494 0.07149 0.0
C924 C 0.91955 0.00727 0.06395 0.0
C925 C 0.96202 0.00077 0.05511 0.0
C926 C 0.977 0.00407 0.99175 0.0
H927 H 0.09299 0.97114 0.96455 0.0
H928 H 0.0591 0.9729 0.99172 0.0
H929 H 0.99584 0.00758 0.95897 0.0
H930 H 0.89595 0.00768 0.03329 0.0
H931 H 0.92804 0.00071 0.00477 0.0
H932 H 0.99142 0.96432 0.03561 0.0
C933 C 0.05542 0.97221 0.97293 0.0
C934 C 0.99482 0.99773 0.97548 0.0
C935 C 0.07486 0.97112 0.95732 0.0
C936 C 0.91438 0.00642 0.03964 0.0
C937 C 0.93275 0.0023 0.02329 0.0
C938 C 0.99232 0.97397 0.01898 0.0
C939 C 0.03171 0.97436 0.96433 0.0
C940 C 0.01165 0.97953 0.98084 0.0
C941 C 0.95665 -0.00111 0.03091 0.0
C942 C 0.97568 0.99237 0.01372 0.0
H943 H 0.04366 0.97311 0.90535 0.0
H944 H 0.00955 0.97491 0.93273 0.0
H945 H 0.02275 0.95338 0.0072 0.0
H946 H 0.94816 0.00576 0.0901 0.0
H947 H 0.98039 -0.00134 0.06141 0.0
C948 C 0.51291 0.04411 0.92351 0.0
C949 C 0.51358 0.06821 0.93118 0.0
C950 C 0.50774 0.02558 0.93944 0.0
C951 C 0.50595 0.01068 0.00275 0.0
H952 H 0.45792 0.96355 0.9837 0.0
C953 C 0.47062 0.94074 0.06846 0.0
C954 C 0.47085 0.91687 0.06016 0.0
C955 C 0.4728 0.95995 0.05267 0.0
C956 C 0.47143 0.97652 0.98921 0.0
H957 H 0.50971 0.0917 0.96168 0.0
H958 H 0.50115 0.05939 0.98942 0.0
H959 H 0.47036 0.99495 0.95598 0.0
H960 H 0.47231 0.89438 0.02881 0.0
H961 H 0.47612 0.92784 0.00131 0.0
H962 H 0.50732 0.99216 0.03582 0.0
C963 C 0.50482 0.0548 0.97116 0.0
C964 C 0.47863 0.99439 0.97333 0.0
C965 C 0.50987 0.0733 0.95525 0.0
C966 C 0.47174 0.9126 0.03571 0.0
C967 C 0.47398 0.93179 0.01994 0.0
C968 C 0.49881 0.99279 0.01859 0.0
C969 C 0.50324 0.03083 0.96333 0.0
C970 C 0.49601 0.01158 0.97994 0.0
C971 C 0.47533 0.9556 0.02832 0.0
C972 C 0.48152 0.97549 0.01197 0.0
H973 H 0.51592 0.03964 0.90511 0.0
H974 H 0.507 0.00718 0.93304 0.0
H975 H 0.51955 0.02358 0.00821 0.0
H976 H 0.46968 0.9445 0.08723 0.0
H977 H 0.47329 0.97817 0.05958 0.0
C978 C 0.44993 0.53115 0.91919 0.0
C979 C 0.4269 0.52976 0.92953 0.0
C980 C 0.47055 0.53226 0.93337 0.0
C981 C 0.49157 0.54031 0.99534 0.0
H982 H 0.54106 0.49446 0.97672 0.0
C983 C 0.5601 0.50134 0.06114 0.0
C984 C 0.58446 0.50153 0.05414 0.0
C985 C 0.54187 0.50653 0.04489 0.0
C986 C 0.52752 0.50752 0.982 0.0
H987 H 0.40727 0.52957 0.96271 0.0
H988 H 0.44308 0.5313 0.98738 0.0
H989 H 0.50772 0.50315 0.94989 0.0
H990 H 0.60875 0.50685 0.02444 0.0
H991 H 0.57679 0.51527 0.99595 0.0
H992 H 0.51103 0.54392 0.02784 0.0
C993 C 0.44534 0.53196 0.96838 0.0
C994 C 0.50851 0.51264 0.9666 0.0
C995 C 0.42477 0.53098 0.95422 0.0
C996 C 0.59015 0.50614 0.03033 0.0
C997 C 0.57189 0.51114 0.01404 0.0
C998 C 0.51048 0.53503 0.0108 0.0
C999 C 0.46848 0.53184 0.95813 0.0
C1000 C 0.49012 0.52881 0.97325 0.0
C1001 C 0.54765 0.51181 0.0213 0.0
C1002 C 0.52839 0.51831 0.0044 0.0
H1003 H 0.45202 0.53048 0.90016 0.0
H1004 H 0.48813 0.53262 0.92496 0.0
H1005 H 0.47789 0.55311 0.00083 0.0
H1006 H 0.55513 0.49749 0.07927 0.0
H1007 H 0.52325 0.50648 0.0508 0.0
C1008 C 0.91534 0.18676 0.68105 0.0
C1009 C 0.938 0.19522 0.67327 0.0
C1010 C 0.90674 0.19284 0.70355 0.0
C1011 C 0.89116 0.22521 0.74685 0.0
H1012 H 0.93938 0.21987 0.7963 0.0
C1013 C 0.90543 0.29573 0.81706 0.0
C1014 C 0.9193 0.29024 0.83708 0.0
C1015 C 0.89831 0.27743 0.80165 0.0
C1016 C 0.92521 0.22093 0.78314 0.0
H1017 H 0.96854 0.21792 0.68242 0.0
H1018 H 0.95384 0.22798 0.72158 0.0
H1019 H 0.94612 0.20018 0.75877 0.0
H1020 H 0.9337 0.26144 0.85868 0.0
H1021 H 0.92051 0.22918 0.83224 0.0
H1022 H 0.87078 0.24707 0.77089 0.0
C1023 C 0.94297 0.21633 0.71048 0.0
C1024 C 0.92929 0.20981 0.76148 0.0
C1025 C 0.95139 0.21053 0.68805 0.0
C1026 C 0.92346 0.26602 0.84299 0.0
C1027 C 0.91592 0.24764 0.82785 0.0
C1028 C 0.887 0.23638 0.76866 0.0
C1029 C 0.92083 0.20718 0.71858 0.0
C1030 C 0.913 0.21305 0.74279 0.0
C1031 C 0.90471 0.25328 0.80621 0.0
C1032 C 0.9047 0.23554 0.78654 0.0
H1033 H 0.90462 0.17483 0.67015 0.0
H1034 H 0.88951 0.18577 0.70946 0.0
H1035 H 0.87827 0.22774 0.73266 0.0
H1036 H 0.90201 0.31432 0.81219 0.0
H1037 H 0.88985 0.28257 0.78515 0.0
C1038 C 0.26734 0.92306 0.65738 0.0
C1039 C 0.29201 0.92004 0.66214 0.0
C1040 C 0.25006 0.9153 0.67363 0.0
C1041 C 0.24217 0.88535 0.73267 0.0
H1042 H 0.19916 0.93961 0.74271 0.0
C1043 C 0.21408 0.92068 0.82352 0.0
C1044 C 0.19206 0.93303 0.82591 0.0
C1045 C 0.22058 0.91057 0.80183 0.0
C1046 C 0.21049 0.92391 0.73999 0.0
H1047 H 0.31814 0.90504 0.68647 0.0
H1048 H 0.28819 0.89244 0.71549 0.0
H1049 H 0.22114 0.93654 0.7061 0.0
H1050 H 0.1585 0.94233 0.80843 0.0
H1051 H 0.16973 0.92453 0.77054 0.0
H1052 H 0.23252 0.87384 0.76761 0.0
C1053 C 0.28192 0.90013 0.699 0.0
C1054 C 0.22315 0.92209 0.71883 0.0
C1055 C 0.29915 0.90746 0.68247 0.0
C1056 C 0.17584 0.93341 0.80683 0.0
C1057 C 0.18223 0.92315 0.78522 0.0
C1058 C 0.22954 0.88727 0.754 0.0
C1059 C 0.25722 0.90499 0.69525 0.0
C1060 C 0.23989 0.90334 0.71525 0.0
C1061 C 0.20508 0.9125 0.78221 0.0
C1062 C 0.21428 0.9071 0.75819 0.0
H1063 H 0.26153 0.93239 0.64155 0.0
H1064 H 0.23117 0.91871 0.66987 0.0
H1065 H 0.25457 0.87042 0.73029 0.0
H1066 H 0.22693 0.92015 0.83794 0.0
H1067 H 0.23842 0.90273 0.80005 0.0
C1068 C 0.58997 0.19582 0.81205 0.0
C1069 C 0.57714 0.20282 0.83227 0.0
C1070 C 0.59764 0.21313 0.79579 0.0
C1071 C 0.57623 0.2722 0.77629 0.0
H1072 H 0.62337 0.2612 0.72676 0.0
C1073 C 0.5631 0.31649 0.687 0.0
C1074 C 0.56205 0.29924 0.66883 0.0
C1075 C 0.57414 0.31097 0.7085 0.0
C1076 C 0.6103 0.26469 0.7406 0.0
H1077 H 0.56475 0.23312 0.85302 0.0
H1078 H 0.57911 0.26363 0.8252 0.0
H1079 H 0.62739 0.24002 0.76446 0.0
H1080 H 0.57332 0.26336 0.65831 0.0
H1081 H 0.59226 0.25355 0.69591 0.0
H1082 H 0.55852 0.29592 0.75224 0.0
C1083 C 0.58241 0.24479 0.82128 0.0
C1084 C 0.61253 0.25253 0.76215 0.0
C1085 C 0.57427 0.22742 0.83725 0.0
C1086 C 0.57384 0.27702 0.67195 0.0
C1087 C 0.58484 0.27147 0.69348 0.0
C1088 C 0.57416 0.28447 0.75493 0.0
C1089 C 0.59292 0.23779 0.79969 0.0
C1090 C 0.59479 0.25521 0.77978 0.0
C1091 C 0.5843 0.28807 0.71226 0.0
C1092 C 0.59047 0.27996 0.73645 0.0
H1093 H 0.59229 0.17689 0.80789 0.0
H1094 H 0.60546 0.20693 0.77934 0.0
H1095 H 0.56199 0.27461 0.78919 0.0
H1096 H 0.55474 0.33402 0.68484 0.0
H1097 H 0.57376 0.32423 0.72256 0.0
C1098 C 0.23046 0.57496 0.65825 0.0
C1099 C 0.20595 0.57865 0.66339 0.0
C1100 C 0.24823 0.58263 0.67405 0.0
C1101 C 0.25765 0.61341 0.73249 0.0
H1102 H 0.29928 0.5582 0.74302 0.0
C1103 C 0.2838 0.57734 0.82349 0.0
C1104 C 0.30547 0.56445 0.82613 0.0
C1105 C 0.27789 0.58774 0.80176 0.0
C1106 C 0.28836 0.57415 0.74016 0.0
H1107 H 0.18069 0.59478 0.6879 0.0
H1108 H 0.21142 0.60721 0.71608 0.0
H1109 H 0.27738 0.56148 0.7064 0.0
H1110 H 0.3391 0.55452 0.80912 0.0
H1111 H 0.32887 0.57276 0.77115 0.0
H1112 H 0.26752 0.62494 0.76736 0.0
C1113 C 0.21722 0.59905 0.69965 0.0
C1114 C 0.27574 0.5761 0.71898 0.0
C1115 C 0.19952 0.5918 0.68359 0.0
C1116 C 0.32199 0.56383 0.8073 0.0
C1117 C 0.31619 0.57437 0.78566 0.0
C1118 C 0.27021 0.61135 0.75385 0.0
C1119 C 0.24172 0.59356 0.69557 0.0
C1120 C 0.2594 0.59518 0.71527 0.0
C1121 C 0.29365 0.58555 0.78237 0.0
C1122 C 0.2849 0.59115 0.75824 0.0
H1123 H 0.23576 0.56523 0.64249 0.0
H1124 H 0.26696 0.5787 0.67004 0.0
H1125 H 0.24562 0.62862 0.73 0.0
H1126 H 0.27075 0.57808 0.83772 0.0
H1127 H 0.26027 0.596 0.79974 0.0
C1128 C 0.09346 0.70289 0.18088 0.0
C1129 C 0.07902 0.7094 0.16156 0.0
C1130 C 0.10248 0.72058 0.19603 0.0
C1131 C 0.08124 0.77941 0.21573 0.0
H1132 H 0.12848 0.76685 0.26488 0.0
C1133 C 0.08713 0.81494 0.3153 0.0
C1134 C 0.06741 0.80164 0.32412 0.0
C1135 C 0.09729 0.80912 0.29336 0.0
C1136 C 0.11568 0.77106 0.25098 0.0
H1137 H 0.0653 0.73921 0.14089 0.0
H1138 H 0.08195 0.77037 0.16672 0.0
H1139 H 0.1332 0.74788 0.22604 0.0
H1140 H 0.04414 0.77086 0.31794 0.0
H1141 H 0.06171 0.76086 0.27965 0.0
H1142 H 0.06308 0.80141 0.24116 0.0
C1143 C 0.0855 0.75163 0.17087 0.0
C1144 C 0.11816 0.76005 0.22887 0.0
C1145 C 0.076 0.73388 0.15605 0.0
C1146 C 0.059 0.78164 0.31136 0.0
C1147 C 0.06911 0.77585 0.28961 0.0
C1148 C 0.07896 0.79052 0.23765 0.0
C1149 C 0.0975 0.74515 0.19189 0.0
C1150 C 0.10004 0.76281 0.21155 0.0
C1151 C 0.08785 0.78989 0.28022 0.0
C1152 C 0.09535 0.78529 0.25577 0.0
H1153 H 0.09601 0.68409 0.18543 0.0
H1154 H 0.11143 0.71471 0.21204 0.0
H1155 H 0.06679 0.782 0.2031 0.0
H1156 H 0.09384 0.83054 0.32476 0.0
H1157 H 0.11171 0.82015 0.28623 0.0
C1158 C 0.82492 0.06944 0.19515 0.0
C1159 C 0.80902 0.07084 0.17587 0.0
C1160 C 0.81903 0.08038 0.2166 0.0
C1161 C 0.77139 0.11771 0.24675 0.0
H1162 H 0.77832 0.0685 0.29493 0.0
C1163 C 0.69621 0.08648 0.30622 0.0
C1164 C 0.70132 0.07486 0.32774 0.0
C1165 C 0.71467 0.09721 0.29316 0.0
C1166 C 0.77672 0.08293 0.28212 0.0
H1167 H 0.77539 0.08605 0.16326 0.0
H1168 H 0.76449 0.10428 0.2008 0.0
H1169 H 0.80286 0.06643 0.25983 0.0
H1170 H 0.72923 0.06851 0.35396 0.0
H1171 H 0.7616 0.08685 0.33085 0.0
H1172 H 0.74352 0.13285 0.26849 0.0
C1173 C 0.78185 0.09538 0.19941 0.0
C1174 C 0.79089 0.08175 0.26181 0.0
C1175 C 0.78797 0.08477 0.17786 0.0
C1176 C 0.72483 0.07656 0.33708 0.0
C1177 C 0.74334 0.08724 0.32395 0.0
C1178 C 0.75704 0.11878 0.26706 0.0
C1179 C 0.79686 0.09251 0.21932 0.0
C1180 C 0.78738 0.09828 0.24325 0.0
C1181 C 0.73866 0.09653 0.3013 0.0
C1182 C 0.75861 0.10056 0.28427 0.0
H1183 H 0.84152 0.05917 0.1938 0.0
H1184 H 0.83128 0.07828 0.23139 0.0
H1185 H 0.76874 0.13115 0.23309 0.0
H1186 H 0.67839 0.08566 0.29842 0.0
H1187 H 0.71042 0.10402 0.2757 0.0
C1188 C 0.43016 0.72994 0.34385 0.0
C1189 C 0.42775 0.70512 0.33985 0.0
C1190 C 0.42038 0.74649 0.32794 0.0
C1191 C 0.38531 0.75212 0.27142 0.0
H1192 H 0.43681 0.79703 0.25662 0.0
C1193 C 0.41114 0.78131 0.1778 0.0
C1194 C 0.42321 0.80332 0.17454 0.0
C1195 C 0.40287 0.7747 0.20021 0.0
C1196 C 0.42181 0.78518 0.2607 0.0
H1197 H 0.41193 0.67787 0.31738 0.0
H1198 H 0.39577 0.70662 0.28875 0.0
H1199 H 0.43787 0.77527 0.29339 0.0
H1200 H 0.43372 0.83683 0.19121 0.0
H1201 H 0.41882 0.82561 0.23032 0.0
H1202 H 0.37024 0.76116 0.23763 0.0
C1203 C 0.40452 0.71353 0.30446 0.0
C1204 C 0.42241 0.77261 0.28196 0.0
C1205 C 0.41387 0.69701 0.32073 0.0
C1206 C 0.4249 0.81955 0.19349 0.0
C1207 C 0.41636 0.81311 0.2158 0.0
C1208 C 0.38477 0.76471 0.24998 0.0
C1209 C 0.40865 0.73844 0.30733 0.0
C1210 C 0.40467 0.75527 0.28725 0.0
C1211 C 0.40634 0.79013 0.21966 0.0
C1212 C 0.40352 0.78073 0.24405 0.0
H1213 H 0.44056 0.73645 0.35876 0.0
H1214 H 0.4233 0.76554 0.33106 0.0
H1215 H 0.37114 0.73919 0.27514 0.0
H1216 H 0.40967 0.76848 0.16345 0.0
H1217 H 0.39544 0.75679 0.20257 0.0
C1218 C 0.66598 0.42739 0.19324 0.0
C1219 C 0.68072 0.42367 0.17345 0.0
C1220 C 0.67202 0.41709 0.21493 0.0
C1221 C 0.71784 0.37824 0.24575 0.0
H1222 H 0.71537 0.43052 0.29114 0.0
C1223 C 0.79279 0.39979 0.3117 0.0
C1224 C 0.78726 0.4136 0.33174 0.0
C1225 C 0.77433 0.39195 0.29671 0.0
C1226 C 0.71574 0.41529 0.27915 0.0
H1227 H 0.71219 0.40512 0.16 0.0
H1228 H 0.72369 0.38806 0.19817 0.0
H1229 H 0.69168 0.4331 0.25568 0.0
H1230 H 0.75843 0.42755 0.3536 0.0
H1231 H 0.72601 0.41316 0.32793 0.0
H1232 H 0.74339 0.36131 0.26895 0.0
C1233 C 0.70703 0.39823 0.19699 0.0
C1234 C 0.70202 0.41678 0.25862 0.0
C1235 C 0.70061 0.40811 0.17515 0.0
C1236 C 0.76301 0.41729 0.33794 0.0
C1237 C 0.74454 0.40908 0.32324 0.0
C1238 C 0.73169 0.37677 0.26641 0.0
C1239 C 0.69339 0.40353 0.21736 0.0
C1240 C 0.70361 0.39877 0.2412 0.0
C1241 C 0.75006 0.39758 0.30174 0.0
C1242 C 0.7315 0.39578 0.28287 0.0
H1243 H 0.65035 0.43909 0.19207 0.0
H1244 H 0.66074 0.42099 0.2301 0.0
H1245 H 0.71913 0.36384 0.23288 0.0
H1246 H 0.81142 0.39679 0.30664 0.0
H1247 H 0.7793 0.38329 0.28026 0.0
C1248 C 0.24991 0.01538 0.58952 0.0
C1249 C 0.26429 0.01446 0.60998 0.0
C1250 C 0.22879 0.02909 0.5891 0.0
C1251 C 0.18188 0.0572 0.62498 0.0
H1252 H 0.17661 0.10159 0.5722 0.0
C1253 C 0.10455 0.12714 0.61811 0.0
C1254 C 0.09498 0.13167 0.59554 0.0
C1255 C 0.12533 0.11307 0.62079 0.0
C1256 C 0.17756 0.08908 0.58688 0.0
H1257 H 0.26717 0.02625 0.64642 0.0
H1258 H 0.22981 0.05005 0.64573 0.0
H1259 H 0.2119 0.0756 0.57554 0.0
H1260 H 0.09931 0.12466 0.55815 0.0
H1261 H 0.13519 0.09963 0.56274 0.0
H1262 H 0.14725 0.07018 0.63603 0.0
C1263 C 0.23513 0.04023 0.63002 0.0
C1264 C 0.19785 0.07428 0.58883 0.0
C1265 C 0.25649 0.02666 0.63039 0.0
C1266 C 0.10653 0.12179 0.57571 0.0
C1267 C 0.12713 0.10748 0.57838 0.0
C1268 C 0.16138 0.07183 0.62289 0.0
C1269 C 0.22144 0.042 0.60917 0.0
C1270 C 0.20013 0.05809 0.60778 0.0
C1271 C 0.13686 0.10299 0.60096 0.0
C1272 C 0.1589 0.08785 0.6037 0.0
H1273 H 0.25531 0.00612 0.57352 0.0
H1274 H 0.21836 0.02988 0.57291 0.0
H1275 H 0.18319 0.04476 0.6397 0.0
H1276 H 0.09615 0.13478 0.63368 0.0
H1277 H 0.1325 0.11035 0.6384 0.0
C1278 C 0.35439 0.10599 0.58685 0.0
C1279 C 0.3565 0.08803 0.60427 0.0
C1280 C 0.36329 0.12918 0.59083 0.0
C1281 C 0.40785 0.16173 0.62742 0.0
H1282 H 0.37845 0.21758 0.59773 0.0
C1283 C 0.44912 0.25832 0.63077 0.0
C1284 C 0.45239 0.26821 0.60812 0.0
C1285 C 0.43508 0.23752 0.6338 0.0
C1286 C 0.38676 0.20214 0.60623 0.0
H1287 H 0.36913 0.08085 0.63996 0.0
H1288 H 0.38385 0.12148 0.64715 0.0
H1289 H 0.3573 0.17897 0.59723 0.0
H1290 H 0.4431 0.26457 0.57104 0.0
H1291 H 0.41837 0.22868 0.57641 0.0
H1292 H 0.4374 0.18509 0.63622 0.0
C1293 C 0.37574 0.11745 0.63018 0.0
C1294 C 0.37476 0.18 0.60583 0.0
C1295 C 0.36699 0.09415 0.62613 0.0
C1296 C 0.44101 0.2573 0.58869 0.0
C1297 C 0.42669 0.23687 0.59177 0.0
C1298 C 0.41972 0.18398 0.62807 0.0
C1299 C 0.37433 0.13516 0.61244 0.0
C1300 C 0.38549 0.15934 0.61577 0.0
C1301 C 0.42372 0.22668 0.61429 0.0
C1302 C 0.40958 0.20419 0.61687 0.0
H1303 H 0.34612 0.10212 0.56996 0.0
H1304 H 0.36215 0.14221 0.57661 0.0
H1305 H 0.4168 0.14619 0.63505 0.0
H1306 H 0.45773 0.26638 0.64604 0.0
H1307 H 0.43303 0.22994 0.65133 0.0
C1308 C 0.38584 0.37526 0.57932 0.0
C1309 C 0.40233 0.3709 0.59772 0.0
C1310 C 0.36378 0.38657 0.58379 0.0
C1311 C 0.3333 0.42606 0.62734 0.0
H1312 H 0.27711 0.41047 0.58935 0.0
C1313 C 0.23759 0.47118 0.63553 0.0
C1314 C 0.22918 0.48032 0.61384 0.0
C1315 C 0.25843 0.4568 0.63633 0.0
C1316 C 0.29266 0.41493 0.60014 0.0
H1317 H 0.40809 0.37481 0.63551 0.0
H1318 H 0.36926 0.39369 0.6434 0.0
H1319 H 0.31344 0.38585 0.58599 0.0
H1320 H 0.2362 0.48185 0.5761 0.0
H1321 H 0.27206 0.45654 0.57754 0.0
H1322 H 0.31212 0.45517 0.64149 0.0
C1323 C 0.37364 0.38877 0.62538 0.0
C1324 C 0.31353 0.40096 0.59812 0.0
C1325 C 0.39585 0.37761 0.62087 0.0
C1326 C 0.24217 0.47515 0.59311 0.0
C1327 C 0.26263 0.46052 0.59387 0.0
C1328 C 0.31223 0.43986 0.62959 0.0
C1329 C 0.35743 0.39362 0.60685 0.0
C1330 C 0.33437 0.40675 0.61118 0.0
C1331 C 0.27079 0.451 0.6154 0.0
C1332 C 0.29199 0.43476 0.61552 0.0
H1333 H 0.38999 0.37012 0.56133 0.0
H1334 H 0.35197 0.39032 0.56897 0.0
H1335 H 0.34904 0.4312 0.63753 0.0
H1336 H 0.22794 0.47491 0.65178 0.0
H1337 H 0.26449 0.44966 0.65314 0.0
C1338 C 0.12392 0.40739 0.62697 0.0
C1339 C 0.13301 0.4137 0.60453 0.0
C1340 C 0.11342 0.38479 0.63083 0.0
C1341 C 0.10622 0.32383 0.60351 0.0
H1342 H 0.04792 0.32145 0.64156 0.0
C1343 C 0.03172 0.25304 0.59241 0.0
C1344 C 0.02757 0.23821 0.61214 0.0
C1345 C 0.04582 0.27376 0.59448 0.0
C1346 C 0.06436 0.32188 0.63115 0.0
H1347 H 0.13889 0.40036 0.5689 0.0
H1348 H 0.11963 0.36183 0.57526 0.0
H1349 H 0.0712 0.35888 0.63941 0.0
H1350 H 0.03413 0.23388 0.64969 0.0
H1351 H 0.05828 0.27095 0.65342 0.0
H1352 H 0.09833 0.28721 0.59414 0.0
C1353 C 0.12104 0.37408 0.59008 0.0
C1354 C 0.07779 0.34322 0.62997 0.0
C1355 C 0.13181 0.39651 0.5863 0.0
C1356 C 0.03709 0.24499 0.63421 0.0
C1357 C 0.05084 0.2661 0.63636 0.0
C1358 C 0.09256 0.30271 0.60436 0.0
C1359 C 0.1115 0.36797 0.61233 0.0
C1360 C 0.09864 0.34462 0.61572 0.0
C1361 C 0.05564 0.28032 0.61638 0.0
C1362 C 0.07135 0.30172 0.61786 0.0
H1363 H 0.1243 0.42001 0.64153 0.0
H1364 H 0.10661 0.38062 0.6483 0.0
H1365 H 0.12249 0.32397 0.59288 0.0
H1366 H 0.02474 0.24826 0.57515 0.0
H1367 H 0.04922 0.28462 0.5789 0.0
C1368 C 0.25839 0.45558 0.86478 0.0
C1369 C 0.26815 0.45889 0.8875 0.0
C1370 C 0.23714 0.4422 0.86171 0.0
C1371 C 0.20115 0.39457 0.88899 0.0
H1372 H 0.14524 0.42432 0.85969 0.0
C1373 C 0.10514 0.36108 0.90723 0.0
C1374 C 0.08723 0.36305 0.88972 0.0
C1375 C 0.12825 0.37037 0.90349 0.0
C1376 C 0.16078 0.41547 0.86746 0.0
H1377 H 0.26358 0.45053 0.9247 0.0
H1378 H 0.22693 0.42687 0.91924 0.0
H1379 H 0.18414 0.44516 0.85903 0.0
H1380 H 0.08004 0.37586 0.85412 0.0
H1381 H 0.12061 0.39135 0.84733 0.0
H1382 H 0.17809 0.36493 0.89752 0.0
C1383 C 0.23558 0.43471 0.90387 0.0
C1384 C 0.18302 0.42748 0.86712 0.0
C1385 C 0.25646 0.4484 0.90699 0.0
C1386 C 0.09333 0.37385 0.868 0.0
C1387 C 0.11657 0.38302 0.86419 0.0
C1388 C 0.17907 0.38243 0.88905 0.0
C1389 C 0.2257 0.43151 0.88125 0.0
C1390 C 0.20319 0.41742 0.87849 0.0
C1391 C 0.13423 0.38168 0.88202 0.0
C1392 C 0.1584 0.39305 0.87895 0.0
H1393 H 0.26703 0.46352 0.84946 0.0
H1394 H 0.2298 0.43997 0.8441 0.0
H1395 H 0.21658 0.38632 0.8976 0.0
H1396 H 0.10131 0.35257 0.92402 0.0
H1397 H 0.1412 0.36929 0.9178 0.0
C1398 C 0.12601 0.11294 0.91452 0.0
C1399 C 0.12914 0.09602 0.89629 0.0
C1400 C 0.11511 0.13519 0.91005 0.0
C1401 C 0.07414 0.1653 0.86763 0.0
H1402 H 0.09176 0.22184 0.9041 0.0
C1403 C 0.02844 0.26054 0.86012 0.0
C1404 C 0.02039 0.26929 0.88208 0.0
C1405 C 0.04294 0.23982 0.85899 0.0
C1406 C 0.08674 0.20619 0.89373 0.0
H1407 H 0.1237 0.08973 0.85877 0.0
H1408 H 0.10554 0.12885 0.85084 0.0
H1409 H 0.11637 0.18547 0.90691 0.0
H1410 H 0.02096 0.26307 0.91997 0.0
H1411 H 0.04646 0.2274 0.91793 0.0
H1412 H 0.04445 0.18638 0.85449 0.0
C1413 C 0.11107 0.12467 0.86874 0.0
C1414 C 0.10071 0.18531 0.89543 0.0
C1415 C 0.12182 0.1023 0.87326 0.0
C1416 C 0.0268 0.2568 0.90276 0.0
C1417 C 0.04155 0.23647 0.90165 0.0
C1418 C 0.06033 0.18637 0.86569 0.0
C1419 C 0.10727 0.14127 0.88716 0.0
C1420 C 0.0942 0.16436 0.88295 0.0
C1421 C 0.04995 0.22793 0.87982 0.0
C1422 C 0.06616 0.20674 0.87924 0.0
H1423 H 0.13168 0.10894 0.93239 0.0
H1424 H 0.11221 0.14732 0.92478 0.0
H1425 H 0.06843 0.14947 0.85791 0.0
H1426 H 0.02374 0.2698 0.8439 0.0
H1427 H 0.0492 0.23347 0.84195 0.0
C1428 C 0.40234 0.12537 0.86723 0.0
C1429 C 0.40836 0.1365 0.88881 0.0
C1430 C 0.37921 0.11593 0.86356 0.0
C1431 C 0.31678 0.11581 0.88857 0.0
H1432 H 0.31276 0.05279 0.859 0.0
C1433 C 0.24048 0.04859 0.90671 0.0
C1434 C 0.2289 0.03806 0.88719 0.0
C1435 C 0.26118 0.06255 0.90362 0.0
C1436 C 0.31359 0.07054 0.86697 0.0
H1437 H 0.3942 0.14733 0.92296 0.0
H1438 H 0.3545 0.13007 0.91701 0.0
H1439 H 0.35129 0.07424 0.85953 0.0
H1440 H 0.23004 0.03357 0.84914 0.0
H1441 H 0.26698 0.05757 0.84383 0.0
H1442 H 0.27934 0.11134 0.89714 0.0
C1443 C 0.36744 0.12895 0.9027 0.0
C1444 C 0.33561 0.08291 0.86722 0.0
C1445 C 0.39044 0.13855 0.90629 0.0
C1446 C 0.23861 0.04153 0.86448 0.0
C1447 C 0.25968 0.05518 0.86144 0.0
C1448 C 0.29491 0.10329 0.8886 0.0
C1449 C 0.36158 0.11727 0.8814 0.0
C1450 C 0.33761 0.10546 0.87852 0.0
C1451 C 0.27098 0.06595 0.881 0.0
C1452 C 0.29326 0.08036 0.87824 0.0
H1453 H 0.41561 0.12327 0.85335 0.0
H1454 H 0.37525 0.10735 0.84681 0.0
H1455 H 0.31747 0.13339 0.89688 0.0
H1456 H 0.23337 0.04634 0.92442 0.0
H1457 H 0.26974 0.07046 0.919 0.0
C1458 C 0.37593 0.39535 0.87413 0.0
C1459 C 0.36896 0.40184 0.8972 0.0
C1460 C 0.38704 0.37314 0.86974 0.0
C1461 C 0.39935 0.31319 0.8972 0.0
H1462 H 0.45426 0.31249 0.85454 0.0
C1463 C 0.47403 0.2422 0.90248 0.0
C1464 C 0.47921 0.22938 0.88167 0.0
C1465 C 0.45947 0.2627 0.90182 0.0
C1466 C 0.43878 0.31241 0.86626 0.0
H1467 H 0.36739 0.38938 0.93352 0.0
H1468 H 0.38754 0.35135 0.92612 0.0
H1469 H 0.4298 0.34904 0.85822 0.0
H1470 H 0.47401 0.22855 0.84368 0.0
H1471 H 0.44892 0.26513 0.84251 0.0
H1472 H 0.4092 0.27693 0.90607 0.0
C1473 C 0.38408 0.36318 0.91127 0.0
C1474 C 0.42468 0.33326 0.86833 0.0
C1475 C 0.37279 0.38525 0.91561 0.0
C1476 C 0.47028 0.23806 0.86 0.0
C1477 C 0.45598 0.25892 0.8593 0.0
C1478 C 0.41364 0.29254 0.89538 0.0
C1479 C 0.39159 0.35692 0.88833 0.0
C1480 C 0.40507 0.33406 0.8842 0.0
C1481 C 0.45007 0.27106 0.88031 0.0
C1482 C 0.43371 0.29213 0.88023 0.0
H1483 H 0.37349 0.40763 0.85948 0.0
H1484 H 0.39226 0.3688 0.85179 0.0
H1485 H 0.38404 0.31289 0.90911 0.0
H1486 H 0.48059 0.23601 0.91947 0.0
H1487 H 0.45539 0.27197 0.9182 0.0
C1488 C 0.89014 0.85504 0.36428 0.0
C1489 C 0.89942 0.852 0.38721 0.0
C1490 C 0.87052 0.8704 0.36024 0.0
C1491 C 0.8419 0.92423 0.38346 0.0
H1492 H 0.78344 0.90282 0.35204 0.0
C1493 C 0.7533 0.97683 0.39086 0.0
C1494 C 0.73642 0.97627 0.37233 0.0
C1495 C 0.77441 0.96318 0.38969 0.0
C1496 C 0.79981 0.9093 0.36037 0.0
H1497 H 0.89557 0.86258 0.42386 0.0
H1498 H 0.86145 0.88973 0.41677 0.0
H1499 H 0.81768 0.87523 0.35588 0.0
H1500 H 0.72899 0.96178 0.33749 0.0
H1501 H 0.7664 0.93836 0.33511 0.0
H1502 H 0.82448 0.95833 0.38775 0.0
C1503 C 0.86927 0.88006 0.40199 0.0
C1504 C 0.81932 0.89342 0.3627 0.0
C1505 C 0.88858 0.86438 0.40608 0.0
C1506 C 0.74163 0.96251 0.3521 0.0
C1507 C 0.76296 0.94895 0.35083 0.0
C1508 C 0.82261 0.94022 0.38081 0.0
C1509 C 0.86019 0.88333 0.37902 0.0
C1510 C 0.84028 0.90059 0.37477 0.0
C1511 C 0.77942 0.9488 0.36983 0.0
C1512 C 0.80105 0.93279 0.3698 0.0
H1513 H 0.8982 0.84562 0.34948 0.0
H1514 H 0.86383 0.87267 0.34238 0.0
H1515 H 0.85808 0.9303 0.39246 0.0
H1516 H 0.74985 0.98716 0.40675 0.0
H1517 H 0.78634 0.96325 0.40487 0.0
C1518 C 0.64029 0.89403 0.37641 0.0
C1519 C 0.63865 0.90802 0.39707 0.0
C1520 C 0.62631 0.87321 0.37379 0.0
C1521 C 0.56986 0.84604 0.39492 0.0
H1522 H 0.59624 0.78647 0.36993 0.0
C1523 C 0.52015 0.75526 0.402 0.0
C1524 C 0.52269 0.73837 0.38366 0.0
C1525 C 0.53304 0.77688 0.40154 0.0
C1526 C 0.58847 0.80309 0.37653 0.0
H1527 H 0.62139 0.91084 0.43136 0.0
H1528 H 0.59724 0.87434 0.42693 0.0
H1529 H 0.62227 0.82175 0.37394 0.0
H1530 H 0.53981 0.73144 0.34984 0.0
H1531 H 0.56206 0.76948 0.34886 0.0
H1532 H 0.53609 0.82748 0.39754 0.0
C1533 C 0.60919 0.87963 0.41267 0.0
C1534 C 0.60343 0.82325 0.37893 0.0
C1535 C 0.62326 0.90035 0.41535 0.0
C1536 C 0.53755 0.74405 0.3643 0.0
C1537 C 0.55044 0.76574 0.36383 0.0
C1538 C 0.55488 0.82594 0.39241 0.0
C1539 C 0.6103 0.86605 0.39173 0.0
C1540 C 0.59434 0.84483 0.38844 0.0
C1541 C 0.54871 0.78218 0.38269 0.0
C1542 C 0.56408 0.80413 0.38348 0.0
H1543 H 0.65213 0.89939 0.36212 0.0
H1544 H 0.6275 0.86313 0.35743 0.0
H1545 H 0.56223 0.8626 0.40185 0.0
H1546 H 0.50885 0.75145 0.41718 0.0
H1547 H 0.53145 0.78898 0.41649 0.0
C1548 C 0.75638 0.5239 0.35679 0.0
C1549 C 0.76311 0.51138 0.3774 0.0
C1550 C 0.73558 0.53832 0.35658 0.0
C1551 C 0.6992 0.57416 0.3968 0.0
H1552 H 0.64848 0.57154 0.34959 0.0
C1553 C 0.60914 0.62308 0.4108 0.0
C1554 C 0.59749 0.63351 0.39128 0.0
C1555 C 0.62948 0.60855 0.40768 0.0
C1556 C 0.66268 0.57279 0.3627 0.0
H1557 H 0.75272 0.50334 0.41357 0.0
H1558 H 0.71679 0.52862 0.41319 0.0
H1559 H 0.6836 0.54488 0.34608 0.0
H1560 H 0.59813 0.63713 0.35316 0.0
H1561 H 0.63413 0.6122 0.34765 0.0
H1562 H 0.67887 0.60221 0.41328 0.0
C1563 C 0.72763 0.52739 0.39729 0.0
C1564 C 0.68269 0.55745 0.36071 0.0
C1565 C 0.74816 0.51282 0.39743 0.0
C1566 C 0.60668 0.62918 0.36851 0.0
C1567 C 0.62723 0.61482 0.36538 0.0
C1568 C 0.67943 0.58964 0.39864 0.0
C1569 C 0.72141 0.54064 0.37705 0.0
C1570 C 0.70089 0.55773 0.378 0.0
C1571 C 0.63889 0.60431 0.38495 0.0
C1572 C 0.66067 0.58887 0.38188 0.0
H1573 H 0.76752 0.52308 0.34106 0.0
H1574 H 0.73112 0.54839 0.34076 0.0
H1575 H 0.71324 0.57503 0.41012 0.0
H1576 H 0.60217 0.62565 0.42849 0.0
H1577 H 0.63756 0.6003 0.42312 0.0
C1578 C 0.8839 0.58662 0.40372 0.0
C1579 C 0.8687 0.57763 0.3859 0.0
C1580 C 0.89858 0.60661 0.39946 0.0
C1581 C 0.90413 0.66067 0.36339 0.0
H1582 H 0.97122 0.65871 0.38321 0.0
C1583 C 0.96561 0.74421 0.35469 0.0
C1584 C 0.9796 0.74936 0.3748 0.0
C1585 C 0.9543 0.72176 0.35229 0.0
C1586 C 0.9525 0.65962 0.37768 0.0
H1587 H 0.85658 0.58278 0.34983 0.0
H1588 H 0.8821 0.61811 0.34247 0.0
H1589 H 0.94621 0.62268 0.38695 0.0
H1590 H 0.99362 0.73463 0.40759 0.0
H1591 H 0.97365 0.69595 0.40369 0.0
H1592 H 0.90999 0.69785 0.3551 0.0
C1593 C 0.8827 0.60951 0.35966 0.0
C1594 C 0.93822 0.63897 0.3798 0.0
C1595 C 0.86821 0.58929 0.36383 0.0
C1596 C 0.98295 0.73128 0.39188 0.0
C1597 C 0.9716 0.70896 0.38955 0.0
C1598 C 0.91834 0.68143 0.36151 0.0
C1599 C 0.89819 0.6182 0.37738 0.0
C1600 C 0.91379 0.63944 0.37311 0.0
C1601 C 0.95673 0.70407 0.36997 0.0
C1602 C 0.94257 0.68129 0.3691 0.0
H1603 H 0.88489 0.57783 0.42077 0.0
H1604 H 0.91018 0.61312 0.41351 0.0
H1605 H 0.8853 0.66153 0.35822 0.0
H1606 H 0.96279 0.75775 0.34115 0.0
H1607 H 0.94329 0.71845 0.3368 0.0
C1608 C 0.90037 0.62972 0.13606 0.0
C1609 C 0.91172 0.62902 0.11385 0.0
C1610 C 0.88077 0.61458 0.14096 0.0
C1611 C 0.8536 0.55723 0.12333 0.0
H1612 H 0.79311 0.58392 0.14597 0.0
C1613 C 0.76332 0.50854 0.11115 0.0
C1614 C 0.74439 0.51231 0.12726 0.0
C1615 C 0.7853 0.52052 0.11383 0.0
C1616 C 0.81 0.576 0.14019 0.0
H1617 H 0.91171 0.61177 0.07949 0.0
H1618 H 0.87758 0.58528 0.08804 0.0
H1619 H 0.82845 0.60996 0.14221 0.0
H1620 H 0.73423 0.5304 0.15977 0.0
H1621 H 0.77296 0.55095 0.1648 0.0
H1622 H 0.83536 0.52332 0.12121 0.0
C1623 C 0.88379 0.59758 0.10163 0.0
C1624 C 0.83019 0.59099 0.13792 0.0
C1625 C 0.90311 0.61294 0.09663 0.0
C1626 C 0.74844 0.52721 0.14697 0.0
C1627 C 0.77056 0.53915 0.14973 0.0
C1628 C 0.83355 0.54218 0.12588 0.0
C1629 C 0.87249 0.5982 0.12384 0.0
C1630 C 0.85196 0.58187 0.12885 0.0
C1631 C 0.78902 0.53645 0.13283 0.0
C1632 C 0.81128 0.55152 0.13367 0.0
H1633 H 0.90665 0.64199 0.14961 0.0
H1634 H 0.87235 0.61537 0.15822 0.0
H1635 H 0.87034 0.54969 0.11668 0.0
H1636 H 0.76085 0.49716 0.09578 0.0
H1637 H 0.7989 0.51818 0.10026 0.0
C1638 C 0.96717 0.74148 0.14608 0.0
C1639 C 0.97484 0.73388 0.12358 0.0
C1640 C 0.95196 0.76158 0.1484 0.0
C1641 C 0.90413 0.79235 0.11852 0.0
H1642 H 0.92405 0.8527 0.1471 0.0
C1643 C 0.85683 0.88148 0.0965 0.0
C1644 C 0.85602 0.90016 0.11328 0.0
C1645 C 0.86927 0.86011 0.10123 0.0
C1646 C 0.91789 0.83585 0.13953 0.0
H1647 H 0.9729 0.74154 0.08598 0.0
H1648 H 0.94601 0.77605 0.09011 0.0
H1649 H 0.95039 0.81736 0.1498 0.0
H1650 H 0.86718 0.91027 0.1488 0.0
H1651 H 0.88786 0.8727 0.15734 0.0
H1652 H 0.87169 0.81039 0.10826 0.0
C1653 C 0.95191 0.76662 0.10587 0.0
C1654 C 0.93306 0.8157 0.14103 0.0
C1655 C 0.96741 0.74695 0.10357 0.0
C1656 C 0.86717 0.8964 0.13537 0.0
C1657 C 0.8794 0.87487 0.14021 0.0
C1658 C 0.8888 0.8123 0.11735 0.0
C1659 C 0.94387 0.77392 0.12823 0.0
C1660 C 0.92654 0.79405 0.12996 0.0
C1661 C 0.88099 0.85661 0.12304 0.0
C1662 C 0.89579 0.83455 0.12718 0.0
H1663 H 0.97264 0.73174 0.1618 0.0
H1664 H 0.94594 0.76704 0.16582 0.0
H1665 H 0.89874 0.77569 0.11001 0.0
H1666 H 0.8482 0.88343 0.07946 0.0
H1667 H 0.87033 0.84668 0.08739 0.0
C1668 C 0.74094 0.9743 0.10031 0.0
C1669 C 0.75758 0.97247 0.11899 0.0
C1670 C 0.72002 0.96034 0.10017 0.0
C1671 C 0.6777 0.92513 0.13564 0.0
H1672 H 0.66744 0.89084 0.07672 0.0
C1673 C 0.59853 0.85771 0.12198 0.0
C1674 C 0.58672 0.8588 0.09999 0.0
C1675 C 0.62001 0.87046 0.12578 0.0
C1676 C 0.66985 0.90046 0.09322 0.0
H1677 H 0.7646 0.95556 0.15289 0.0
H1678 H 0.72755 0.93119 0.15272 0.0
H1679 H 0.70294 0.91626 0.08136 0.0
H1680 H 0.588 0.87455 0.06494 0.0
H1681 H 0.62514 0.89682 0.07151 0.0
H1682 H 0.6442 0.90977 0.14728 0.0
C1683 C 0.73097 0.94341 0.13815 0.0
C1684 C 0.69024 0.91496 0.09588 0.0
C1685 C 0.75212 0.95734 0.13824 0.0
C1686 C 0.59687 0.87287 0.0819 0.0
C1687 C 0.61822 0.88567 0.0857 0.0
C1688 C 0.65709 0.91072 0.1329 0.0
C1689 C 0.71512 0.9443 0.11875 0.0
C1690 C 0.69418 0.92776 0.11694 0.0
C1691 C 0.63009 0.88463 0.10766 0.0
C1692 C 0.65275 0.89853 0.11148 0.0
H1693 H 0.74443 0.98594 0.08531 0.0
H1694 H 0.70786 0.96172 0.08521 0.0
H1695 H 0.68034 0.93485 0.15205 0.0
H1696 H 0.59126 0.84686 0.13622 0.0
H1697 H 0.62882 0.86904 0.14281 0.0
C1698 C 0.64425 0.60563 0.13046 0.0
C1699 C 0.6476 0.59533 0.108 0.0
C1700 C 0.62871 0.62529 0.13345 0.0
C1701 C 0.57489 0.65215 0.10781 0.0
H1702 H 0.59426 0.71163 0.13848 0.0
C1703 C 0.52104 0.73953 0.0967 0.0
C1704 C 0.52032 0.75648 0.11513 0.0
C1705 C 0.53517 0.71881 0.09863 0.0
C1706 C 0.58836 0.69498 0.13032 0.0
H1707 H 0.63748 0.59756 0.07107 0.0
H1708 H 0.61019 0.6318 0.0763 0.0
H1709 H 0.62261 0.67786 0.13637 0.0
H1710 H 0.53311 0.7645 0.15049 0.0
H1711 H 0.55743 0.72784 0.15413 0.0
H1712 H 0.54065 0.66887 0.10189 0.0
C1713 C 0.61969 0.62472 0.09155 0.0
C1714 C 0.60467 0.67573 0.129 0.0
C1715 C 0.63549 0.60534 0.08851 0.0
C1716 C 0.53336 0.7518 0.13594 0.0
C1717 C 0.54744 0.7309 0.13795 0.0
C1718 C 0.5585 0.6712 0.1094 0.0
C1719 C 0.61595 0.63468 0.11407 0.0
C1720 C 0.59823 0.65439 0.11724 0.0
C1721 C 0.54879 0.71433 0.11914 0.0
C1722 C 0.56521 0.69309 0.12014 0.0
H1723 H 0.65343 0.59822 0.14573 0.0
H1724 H 0.62608 0.63267 0.15099 0.0
H1725 H 0.56937 0.63567 0.09905 0.0
H1726 H 0.51127 0.74258 0.08038 0.0
H1727 H 0.53605 0.70675 0.0836 0.0
loop_
_geom_bond_atom_site_label_1
_geom_bond_atom_site_label_2
_geom_bond_distance
_geom_bond_site_symmetry_2
_ccdc_geom_bond_type
C0 C1 1.351 . S
C0 N3 1.368 . S
C0 H5 0.931 . S
C1 C0 1.351 . S
C1 N2 1.373 . S
C1 H29 0.930 . S
N2 C1 1.373 . S
N2 C4 1.340 . S
N3 C0 1.368 . S
N3 C4 1.321 . S
N3 Co6 2.135 . S
C4 N2 1.340 . S
C4 N3 1.321 . S
C4 H28 0.930 . S
H5 C0 0.931 . S
Co6 N3 2.135 . S
Co6 N9 2.121 1_455 S
Co6 O14 2.055 . S
Co6 O17 2.039 . S
Co6 N20 2.140 1_455 S
C7 O8 1.227 . S
C7 O17 1.265 . S
O8 C7 1.227 . S
N9 Co6 2.121 1_655 S
N9 C11 1.375 . S
N9 C12 1.313 . S
C10 C11 1.338 . S
C10 N13 1.377 . S
C10 H30 0.930 . S
C11 N9 1.375 . S
C11 C10 1.338 . S
C11 H15 0.931 . S
C12 N9 1.313 . S
C12 N13 1.344 . S
C12 H16 0.930 . S
N13 C10 1.377 . S
N13 C12 1.344 . S
O14 Co6 2.055 . S
O14 C18 1.253 . S
H15 C11 0.931 . S
H16 C12 0.930 . S
O17 Co6 2.039 . S
O17 C7 1.265 . S
C18 O14 1.253 . S
C18 O19 1.227 . S
O19 C18 1.227 . S
N20 Co6 2.140 1_655 S
N20 C23 1.346 1_655 S
N20 C24 1.345 . S
C21 C22 1.387 . S
C21 C25 1.391 . S
C22 C21 1.387 . S
C22 C23 1.369 1_655 S
C22 H31 0.929 . S
C23 N20 1.346 1_455 S
C23 C22 1.369 1_455 S
C23 H26 0.928 . S
C24 N20 1.345 . S
C24 C25 1.371 . S
C24 H27 0.931 . S
C25 C21 1.391 . S
C25 C24 1.371 . S
C25 H32 0.930 . S
H26 C23 0.928 . S
H27 C24 0.931 . S
H28 C4 0.930 . S
H29 C1 0.930 . S
H30 C10 0.930 . S
H31 C22 0.929 . S
H32 C25 0.930 . S
C33 C34 1.351 . S
C33 N36 1.368 . S
C33 H38 0.931 . S
C34 C33 1.351 . S
C34 N35 1.373 . S
C34 H62 0.930 . S
N35 C34 1.373 . S
N35 C37 1.340 . S
N36 C33 1.368 . S
N36 C37 1.321 . S
N36 Co39 2.135 . S
C37 N35 1.340 . S
C37 N36 1.321 . S
C37 H61 0.930 . S
H38 C33 0.931 . S
Co39 N36 2.135 . S
Co39 N42 2.121 1_545 S
Co39 O47 2.055 . S
Co39 O50 2.039 . S
Co39 N53 2.140 1_545 S
C40 O41 1.227 . S
C40 O50 1.265 . S
O41 C40 1.227 . S
N42 Co39 2.121 1_565 S
N42 C44 1.375 . S
N42 C45 1.313 . S
C43 C44 1.338 . S
C43 N46 1.377 . S
C43 H63 0.930 . S
C44 N42 1.375 . S
C44 C43 1.338 . S
C44 H48 0.931 . S
C45 N42 1.313 . S
C45 N46 1.344 . S
C45 H49 0.930 . S
N46 C43 1.377 . S
N46 C45 1.344 . S
O47 Co39 2.055 . S
O47 C51 1.253 . S
H48 C44 0.931 . S
H49 C45 0.930 . S
O50 Co39 2.039 . S
O50 C40 1.265 . S
C51 O47 1.253 . S
C51 O52 1.227 . S
O52 C51 1.227 . S
N53 Co39 2.140 1_565 S
N53 C56 1.346 1_565 S
N53 C57 1.345 . S
C54 C55 1.387 . S
C54 C58 1.391 . S
C55 C54 1.387 . S
C55 C56 1.369 1_565 S
C55 H64 0.929 . S
C56 N53 1.346 1_545 S
C56 C55 1.369 1_545 S
C56 H59 0.928 . S
C57 N53 1.345 . S
C57 C58 1.371 . S
C57 H60 0.931 . S
C58 C54 1.391 . S
C58 C57 1.371 . S
C58 H65 0.930 . S
H59 C56 0.928 . S
H60 C57 0.931 . S
H61 C37 0.930 . S
H62 C34 0.930 . S
H63 C43 0.930 . S
H64 C55 0.929 . S
H65 C58 0.930 . S
C66 C67 1.351 . S
C66 N69 1.368 . S
C66 H71 0.931 . S
C67 C66 1.351 . S
C67 N68 1.373 . S
C67 H95 0.930 . S
N68 C67 1.373 . S
N68 C70 1.340 . S
N69 C66 1.368 . S
N69 C70 1.321 . S
N69 Co72 2.135 . S
C70 N68 1.340 . S
C70 N69 1.321 . S
C70 H94 0.930 . S
H71 C66 0.931 . S
Co72 N69 2.135 . S
Co72 N75 2.121 . S
Co72 O80 2.055 . S
Co72 O83 2.039 . S
Co72 N86 2.140 . S
C73 O74 1.227 . S
C73 O83 1.265 . S
O74 C73 1.227 . S
N75 Co72 2.121 . S
N75 C77 1.375 . S
N75 C78 1.313 . S
C76 C77 1.338 . S
C76 N79 1.377 . S
C76 H96 0.930 . S
C77 N75 1.375 . S
C77 C76 1.338 . S
C77 H81 0.931 . S
C78 N75 1.313 . S
C78 N79 1.344 . S
C78 H82 0.930 . S
N79 C76 1.377 . S
N79 C78 1.344 . S
O80 Co72 2.055 . S
O80 C84 1.253 . S
H81 C77 0.931 . S
H82 C78 0.930 . S
O83 Co72 2.039 . S
O83 C73 1.265 . S
C84 O80 1.253 . S
C84 O85 1.227 . S
O85 C84 1.227 . S
N86 Co72 2.140 . S
N86 C89 1.346 . S
N86 C90 1.345 . S
C87 C88 1.387 . S
C87 C91 1.391 . S
C88 C87 1.387 . S
C88 C89 1.369 . S
C88 H97 0.929 . S
C89 N86 1.346 . S
C89 C88 1.369 . S
C89 H92 0.928 . S
C90 N86 1.345 . S
C90 C91 1.371 . S
C90 H93 0.931 . S
C91 C87 1.391 . S
C91 C90 1.371 . S
C91 H98 0.930 . S
H92 C89 0.928 . S
H93 C90 0.931 . S
H94 C70 0.930 . S
H95 C67 0.930 . S
H96 C76 0.930 . S
H97 C88 0.929 . S
H98 C91 0.930 . S
C99 C100 1.351 . S
C99 N102 1.368 . S
C99 H104 0.931 . S
C100 C99 1.351 . S
C100 N101 1.373 . S
C100 H128 0.930 . S
N101 C100 1.373 . S
N101 C103 1.340 . S
N102 C99 1.368 . S
N102 C103 1.321 . S
N102 Co105 2.135 . S
C103 N101 1.340 . S
C103 N102 1.321 . S
C103 H127 0.930 . S
H104 C99 0.931 . S
Co105 N102 2.135 . S
Co105 N108 2.121 . S
Co105 O113 2.055 . S
Co105 O116 2.039 . S
Co105 N119 2.140 . S
C106 O107 1.227 . S
C106 O116 1.265 . S
O107 C106 1.227 . S
N108 Co105 2.121 . S
N108 C110 1.375 . S
N108 C111 1.313 . S
C109 C110 1.338 . S
C109 N112 1.377 . S
C109 H129 0.930 . S
C110 N108 1.375 . S
C110 C109 1.338 . S
C110 H114 0.931 . S
C111 N108 1.313 . S
C111 N112 1.344 . S
C111 H115 0.930 . S
N112 C109 1.377 . S
N112 C111 1.344 . S
O113 Co105 2.055 . S
O113 C117 1.253 . S
H114 C110 0.931 . S
H115 C111 0.930 . S
O116 Co105 2.039 . S
O116 C106 1.265 . S
C117 O113 1.253 . S
C117 O118 1.227 . S
O118 C117 1.227 . S
N119 Co105 2.140 . S
N119 C122 1.346 . S
N119 C123 1.345 . S
C120 C121 1.387 . S
C120 C124 1.391 . S
C121 C120 1.387 . S
C121 C122 1.369 . S
C121 H130 0.929 . S
C122 N119 1.346 . S
C122 C121 1.369 . S
C122 H125 0.928 . S
C123 N119 1.345 . S
C123 C124 1.371 . S
C123 H126 0.931 . S
C124 C120 1.391 . S
C124 C123 1.371 . S
C124 H131 0.930 . S
H125 C122 0.928 . S
H126 C123 0.931 . S
H127 C103 0.930 . S
H128 C100 0.930 . S
H129 C109 0.930 . S
H130 C121 0.929 . S
H131 C124 0.930 . S
C132 C133 1.351 . S
C132 N135 1.368 . S
C132 H137 0.931 . S
C133 C132 1.351 . S
C133 N134 1.373 . S
C133 H161 0.930 . S
N134 C133 1.373 . S
N134 C136 1.340 . S
N135 C132 1.368 . S
N135 C136 1.321 . S
N135 Co138 2.135 . S
C136 N134 1.340 . S
C136 N135 1.321 . S
C136 H160 0.930 . S
H137 C132 0.931 . S
Co138 N135 2.135 . S
Co138 N141 2.121 1_455 S
Co138 O146 2.055 . S
Co138 O149 2.039 . S
Co138 N152 2.140 1_455 S
C139 O140 1.227 . S
C139 O149 1.265 . S
O140 C139 1.227 . S
N141 Co138 2.121 1_655 S
N141 C143 1.375 . S
N141 C144 1.313 . S
C142 C143 1.338 . S
C142 N145 1.377 . S
C142 H162 0.930 . S
C143 N141 1.375 . S
C143 C142 1.338 . S
C143 H147 0.931 . S
C144 N141 1.313 . S
C144 N145 1.344 . S
C144 H148 0.930 . S
N145 C142 1.377 . S
N145 C144 1.344 . S
O146 Co138 2.055 . S
O146 C150 1.253 . S
H147 C143 0.931 . S
H148 C144 0.930 . S
O149 Co138 2.039 . S
O149 C139 1.265 . S
C150 O146 1.253 . S
C150 O151 1.227 . S
O151 C150 1.227 . S
N152 Co138 2.140 1_655 S
N152 C155 1.346 1_655 S
N152 C156 1.345 . S
C153 C154 1.387 . S
C153 C157 1.391 . S
C154 C153 1.387 . S
C154 C155 1.369 1_655 S
C154 H163 0.929 . S
C155 N152 1.346 1_455 S
C155 C154 1.369 1_455 S
C155 H158 0.928 . S
C156 N152 1.345 . S
C156 C157 1.371 . S
C156 H159 0.931 . S
C157 C153 1.391 . S
C157 C156 1.371 . S
C157 H164 0.930 . S
H158 C155 0.928 . S
H159 C156 0.931 . S
H160 C136 0.930 . S
H161 C133 0.930 . S
H162 C142 0.930 . S
H163 C154 0.929 . S
H164 C157 0.930 . S
C165 C166 1.351 . S
C165 N168 1.368 . S
C165 H170 0.931 . S
C166 C165 1.351 . S
C166 N167 1.373 . S
C166 H194 0.930 . S
N167 C166 1.373 . S
N167 C169 1.340 . S
N168 C165 1.368 . S
N168 C169 1.321 . S
N168 Co171 2.135 . S
C169 N167 1.340 . S
C169 N168 1.321 . S
C169 H193 0.930 . S
H170 C165 0.931 . S
Co171 N168 2.135 . S
Co171 N174 2.121 1_545 S
Co171 O179 2.055 . S
Co171 O182 2.039 . S
Co171 N185 2.140 1_545 S
C172 O173 1.227 . S
C172 O182 1.265 . S
O173 C172 1.227 . S
N174 Co171 2.121 1_565 S
N174 C176 1.375 . S
N174 C177 1.313 . S
C175 C176 1.338 . S
C175 N178 1.377 . S
C175 H195 0.930 . S
C176 N174 1.375 . S
C176 C175 1.338 . S
C176 H180 0.931 . S
C177 N174 1.313 . S
C177 N178 1.344 . S
C177 H181 0.930 . S
N178 C175 1.377 . S
N178 C177 1.344 . S
O179 Co171 2.055 . S
O179 C183 1.253 . S
H180 C176 0.931 . S
H181 C177 0.930 . S
O182 Co171 2.039 . S
O182 C172 1.265 . S
C183 O179 1.253 . S
C183 O184 1.227 . S
O184 C183 1.227 . S
N185 Co171 2.140 1_565 S
N185 C188 1.346 1_565 S
N185 C189 1.345 . S
C186 C187 1.387 . S
C186 C190 1.391 . S
C187 C186 1.387 . S
C187 C188 1.369 1_565 S
C187 H196 0.929 . S
C188 N185 1.346 1_545 S
C188 C187 1.369 1_545 S
C188 H191 0.928 . S
C189 N185 1.345 . S
C189 C190 1.371 . S
C189 H192 0.931 . S
C190 C186 1.391 . S
C190 C189 1.371 . S
C190 H197 0.930 . S
H191 C188 0.928 . S
H192 C189 0.931 . S
H193 C169 0.930 . S
H194 C166 0.930 . S
H195 C175 0.930 . S
H196 C187 0.929 . S
H197 C190 0.930 . S
C198 C199 1.351 . S
C198 N201 1.368 . S
C198 H203 0.931 . S
C199 C198 1.351 . S
C199 N200 1.373 . S
C199 H227 0.930 . S
N200 C199 1.373 . S
N200 C202 1.340 . S
N201 C198 1.368 . S
N201 C202 1.321 . S
N201 Co204 2.135 . S
C202 N200 1.340 . S
C202 N201 1.321 . S
C202 H226 0.930 . S
H203 C198 0.931 . S
Co204 N201 2.135 . S
Co204 N207 2.121 . S
Co204 O212 2.055 . S
Co204 O215 2.039 . S
Co204 N218 2.140 . S
C205 O206 1.227 . S
C205 O215 1.265 . S
O206 C205 1.227 . S
N207 Co204 2.121 . S
N207 C209 1.375 . S
N207 C210 1.313 . S
C208 C209 1.338 . S
C208 N211 1.377 . S
C208 H228 0.930 . S
C209 N207 1.375 . S
C209 C208 1.338 . S
C209 H213 0.931 . S
C210 N207 1.313 . S
C210 N211 1.344 . S
C210 H214 0.930 . S
N211 C208 1.377 . S
N211 C210 1.344 . S
O212 Co204 2.055 . S
O212 C216 1.253 . S
H213 C209 0.931 . S
H214 C210 0.930 . S
O215 Co204 2.039 . S
O215 C205 1.265 . S
C216 O212 1.253 . S
C216 O217 1.227 . S
O217 C216 1.227 . S
N218 Co204 2.140 . S
N218 C221 1.346 . S
N218 C222 1.345 . S
C219 C220 1.387 . S
C219 C223 1.391 . S
C220 C219 1.387 . S
C220 C221 1.369 . S
C220 H229 0.929 . S
C221 N218 1.346 . S
C221 C220 1.369 . S
C221 H224 0.928 . S
C222 N218 1.345 . S
C222 C223 1.371 . S
C222 H225 0.931 . S
C223 C219 1.391 . S
C223 C222 1.371 . S
C223 H230 0.930 . S
H224 C221 0.928 . S
H225 C222 0.931 . S
H226 C202 0.930 . S
H227 C199 0.930 . S
H228 C208 0.930 . S
H229 C220 0.929 . S
H230 C223 0.930 . S
C231 C232 1.351 . S
C231 N234 1.368 . S
C231 H236 0.931 . S
C232 C231 1.351 . S
C232 N233 1.373 . S
C232 H260 0.930 . S
N233 C232 1.373 . S
N233 C235 1.340 . S
N234 C231 1.368 . S
N234 C235 1.321 . S
N234 Co237 2.135 . S
C235 N233 1.340 . S
C235 N234 1.321 . S
C235 H259 0.930 . S
H236 C231 0.931 . S
Co237 N234 2.135 . S
Co237 N240 2.121 . S
Co237 O245 2.055 . S
Co237 O248 2.039 . S
Co237 N251 2.140 . S
C238 O239 1.227 . S
C238 O248 1.265 . S
O239 C238 1.227 . S
N240 Co237 2.121 . S
N240 C242 1.375 . S
N240 C243 1.313 . S
C241 C242 1.338 . S
C241 N244 1.377 . S
C241 H261 0.930 . S
C242 N240 1.375 . S
C242 C241 1.338 . S
C242 H246 0.931 . S
C243 N240 1.313 . S
C243 N244 1.344 . S
C243 H247 0.930 . S
N244 C241 1.377 . S
N244 C243 1.344 . S
O245 Co237 2.055 . S
O245 C249 1.253 . S
H246 C242 0.931 . S
H247 C243 0.930 . S
O248 Co237 2.039 . S
O248 C238 1.265 . S
C249 O245 1.253 . S
C249 O250 1.227 . S
O250 C249 1.227 . S
N251 Co237 2.140 . S
N251 C254 1.346 . S
N251 C255 1.345 . S
C252 C253 1.387 . S
C252 C256 1.391 . S
C253 C252 1.387 . S
C253 C254 1.369 . S
C253 H262 0.929 . S
C254 N251 1.346 . S
C254 C253 1.369 . S
C254 H257 0.928 . S
C255 N251 1.345 . S
C255 C256 1.371 . S
C255 H258 0.931 . S
C256 C252 1.391 . S
C256 C255 1.371 . S
C256 H263 0.930 . S
H257 C254 0.928 . S
H258 C255 0.931 . S
H259 C235 0.930 . S
H260 C232 0.930 . S
H261 C241 0.930 . S
H262 C253 0.929 . S
H263 C256 0.930 . S
C264 C265 1.351 . S
C264 N267 1.368 . S
C264 H269 0.931 . S
C265 C264 1.351 . S
C265 N266 1.373 . S
C265 H293 0.930 . S
N266 C265 1.373 . S
N266 C268 1.340 . S
N267 C264 1.368 . S
N267 C268 1.321 . S
N267 Co270 2.135 . S
C268 N266 1.340 . S
C268 N267 1.321 . S
C268 H292 0.930 . S
H269 C264 0.931 . S
Co270 N267 2.135 . S
Co270 N273 2.121 1_655 S
Co270 O278 2.055 . S
Co270 O281 2.039 . S
Co270 N284 2.140 1_655 S
C271 O272 1.227 . S
C271 O281 1.265 . S
O272 C271 1.227 . S
N273 Co270 2.121 1_455 S
N273 C275 1.375 . S
N273 C276 1.313 . S
C274 C275 1.338 . S
C274 N277 1.377 . S
C274 H294 0.930 . S
C275 N273 1.375 . S
C275 C274 1.338 . S
C275 H279 0.931 . S
C276 N273 1.313 . S
C276 N277 1.344 . S
C276 H280 0.930 . S
N277 C274 1.377 . S
N277 C276 1.344 . S
O278 Co270 2.055 . S
O278 C282 1.253 . S
H279 C275 0.931 . S
H280 C276 0.930 . S
O281 Co270 2.039 . S
O281 C271 1.265 . S
C282 O278 1.253 . S
C282 O283 1.227 . S
O283 C282 1.227 . S
N284 Co270 2.140 1_455 S
N284 C287 1.346 1_455 S
N284 C288 1.345 . S
C285 C286 1.387 . S
C285 C289 1.391 . S
C286 C285 1.387 . S
C286 C287 1.369 1_455 S
C286 H295 0.929 . S
C287 N284 1.346 1_655 S
C287 C286 1.369 1_655 S
C287 H290 0.928 . S
C288 N284 1.345 . S
C288 C289 1.371 . S
C288 H291 0.931 . S
C289 C285 1.391 . S
C289 C288 1.371 . S
C289 H296 0.930 . S
H290 C287 0.928 . S
H291 C288 0.931 . S
H292 C268 0.930 . S
H293 C265 0.930 . S
H294 C274 0.930 . S
H295 C286 0.929 . S
H296 C289 0.930 . S
C297 C298 1.351 . S
C297 N300 1.368 . S
C297 H302 0.931 . S
C298 C297 1.351 . S
C298 N299 1.373 . S
C298 H326 0.930 . S
N299 C298 1.373 . S
N299 C301 1.340 . S
N300 C297 1.368 . S
N300 C301 1.321 . S
N300 Co303 2.135 . S
C301 N299 1.340 . S
C301 N300 1.321 . S
C301 H325 0.930 . S
H302 C297 0.931 . S
Co303 N300 2.135 . S
Co303 N306 2.121 1_565 S
Co303 O311 2.055 . S
Co303 O314 2.039 . S
Co303 N317 2.140 1_565 S
C304 O305 1.227 . S
C304 O314 1.265 . S
O305 C304 1.227 . S
N306 Co303 2.121 1_545 S
N306 C308 1.375 . S
N306 C309 1.313 . S
C307 C308 1.338 . S
C307 N310 1.377 . S
C307 H327 0.930 . S
C308 N306 1.375 . S
C308 C307 1.338 . S
C308 H312 0.931 . S
C309 N306 1.313 . S
C309 N310 1.344 . S
C309 H313 0.930 . S
N310 C307 1.377 . S
N310 C309 1.344 . S
O311 Co303 2.055 . S
O311 C315 1.253 . S
H312 C308 0.931 . S
H313 C309 0.930 . S
O314 Co303 2.039 . S
O314 C304 1.265 . S
C315 O311 1.253 . S
C315 O316 1.227 . S
O316 C315 1.227 . S
N317 Co303 2.140 1_545 S
N317 C320 1.346 1_545 S
N317 C321 1.345 . S
C318 C319 1.387 . S
C318 C322 1.391 . S
C319 C318 1.387 . S
C319 C320 1.369 1_545 S
C319 H328 0.929 . S
C320 N317 1.346 1_565 S
C320 C319 1.369 1_565 S
C320 H323 0.928 . S
C321 N317 1.345 . S
C321 C322 1.371 . S
C321 H324 0.931 . S
C322 C318 1.391 . S
C322 C321 1.371 . S
C322 H329 0.930 . S
H323 C320 0.928 . S
H324 C321 0.931 . S
H325 C301 0.930 . S
H326 C298 0.930 . S
H327 C307 0.930 . S
H328 C319 0.929 . S
H329 C322 0.930 . S
C330 C331 1.351 . S
C330 N333 1.368 . S
C330 H335 0.931 . S
C331 C330 1.351 . S
C331 N332 1.373 . S
C331 H359 0.930 . S
N332 C331 1.373 . S
N332 C334 1.340 . S
N333 C330 1.368 . S
N333 C334 1.321 . S
N333 Co336 2.135 . S
C334 N332 1.340 . S
C334 N333 1.321 . S
C334 H358 0.930 . S
H335 C330 0.931 . S
Co336 N333 2.135 . S
Co336 N339 2.121 . S
Co336 O344 2.055 . S
Co336 O347 2.039 . S
Co336 N350 2.140 . S
C337 O338 1.227 . S
C337 O347 1.265 . S
O338 C337 1.227 . S
N339 Co336 2.121 . S
N339 C341 1.375 . S
N339 C342 1.313 . S
C340 C341 1.338 . S
C340 N343 1.377 . S
C340 H360 0.930 . S
C341 N339 1.375 . S
C341 C340 1.338 . S
C341 H345 0.931 . S
C342 N339 1.313 . S
C342 N343 1.344 . S
C342 H346 0.930 . S
N343 C340 1.377 . S
N343 C342 1.344 . S
O344 Co336 2.055 . S
O344 C348 1.253 . S
H345 C341 0.931 . S
H346 C342 0.930 . S
O347 Co336 2.039 . S
O347 C337 1.265 . S
C348 O344 1.253 . S
C348 O349 1.227 . S
O349 C348 1.227 . S
N350 Co336 2.140 . S
N350 C353 1.346 . S
N350 C354 1.345 . S
C351 C352 1.387 . S
C351 C355 1.391 . S
C352 C351 1.387 . S
C352 C353 1.369 . S
C352 H361 0.929 . S
C353 N350 1.346 . S
C353 C352 1.369 . S
C353 H356 0.928 . S
C354 N350 1.345 . S
C354 C355 1.371 . S
C354 H357 0.931 . S
C355 C351 1.391 . S
C355 C354 1.371 . S
C355 H362 0.930 . S
H356 C353 0.928 . S
H357 C354 0.931 . S
H358 C334 0.930 . S
H359 C331 0.930 . S
H360 C340 0.930 . S
H361 C352 0.929 . S
H362 C355 0.930 . S
C363 C364 1.351 . S
C363 N366 1.368 . S
C363 H368 0.931 . S
C364 C363 1.351 . S
C364 N365 1.373 . S
C364 H392 0.930 . S
N365 C364 1.373 . S
N365 C367 1.340 . S
N366 C363 1.368 . S
N366 C367 1.321 . S
N366 Co369 2.135 . S
C367 N365 1.340 . S
C367 N366 1.321 . S
C367 H391 0.930 . S
H368 C363 0.931 . S
Co369 N366 2.135 . S
Co369 N372 2.121 . S
Co369 O377 2.055 . S
Co369 O380 2.039 . S
Co369 N383 2.140 . S
C370 O371 1.227 . S
C370 O380 1.265 . S
O371 C370 1.227 . S
N372 Co369 2.121 . S
N372 C374 1.375 . S
N372 C375 1.313 . S
C373 C374 1.338 . S
C373 N376 1.377 . S
C373 H393 0.930 . S
C374 N372 1.375 . S
C374 C373 1.338 . S
C374 H378 0.931 . S
C375 N372 1.313 . S
C375 N376 1.344 . S
C375 H379 0.930 . S
N376 C373 1.377 . S
N376 C375 1.344 . S
O377 Co369 2.055 . S
O377 C381 1.253 . S
H378 C374 0.931 . S
H379 C375 0.930 . S
O380 Co369 2.039 . S
O380 C370 1.265 . S
C381 O377 1.253 . S
C381 O382 1.227 . S
O382 C381 1.227 . S
N383 Co369 2.140 . S
N383 C386 1.346 . S
N383 C387 1.345 . S
C384 C385 1.387 . S
C384 C388 1.391 . S
C385 C384 1.387 . S
C385 C386 1.369 . S
C385 H394 0.929 . S
C386 N383 1.346 . S
C386 C385 1.369 . S
C386 H389 0.928 . S
C387 N383 1.345 . S
C387 C388 1.371 . S
C387 H390 0.931 . S
C388 C384 1.391 . S
C388 C387 1.371 . S
C388 H395 0.930 . S
H389 C386 0.928 . S
H390 C387 0.931 . S
H391 C367 0.930 . S
H392 C364 0.930 . S
H393 C373 0.930 . S
H394 C385 0.929 . S
H395 C388 0.930 . S
C396 C397 1.351 . S
C396 N399 1.368 . S
C396 H401 0.931 . S
C397 C396 1.351 . S
C397 N398 1.373 . S
C397 H425 0.930 . S
N398 C397 1.373 . S
N398 C400 1.340 . S
N399 C396 1.368 . S
N399 C400 1.321 . S
N399 Co402 2.135 . S
C400 N398 1.340 . S
C400 N399 1.321 . S
C400 H424 0.930 . S
H401 C396 0.931 . S
Co402 N399 2.135 . S
Co402 N405 2.121 1_655 S
Co402 O410 2.055 . S
Co402 O413 2.039 . S
Co402 N416 2.140 1_655 S
C403 O404 1.227 . S
C403 O413 1.265 . S
O404 C403 1.227 . S
N405 Co402 2.121 1_455 S
N405 C407 1.375 . S
N405 C408 1.313 . S
C406 C407 1.338 . S
C406 N409 1.377 . S
C406 H426 0.930 . S
C407 N405 1.375 . S
C407 C406 1.338 . S
C407 H411 0.931 . S
C408 N405 1.313 . S
C408 N409 1.344 . S
C408 H412 0.930 . S
N409 C406 1.377 . S
N409 C408 1.344 . S
O410 Co402 2.055 . S
O410 C414 1.253 . S
H411 C407 0.931 . S
H412 C408 0.930 . S
O413 Co402 2.039 . S
O413 C403 1.265 . S
C414 O410 1.253 . S
C414 O415 1.227 . S
O415 C414 1.227 . S
N416 Co402 2.140 1_455 S
N416 C419 1.346 1_455 S
N416 C420 1.345 . S
C417 C418 1.387 . S
C417 C421 1.391 . S
C418 C417 1.387 . S
C418 C419 1.369 1_455 S
C418 H427 0.929 . S
C419 N416 1.346 1_655 S
C419 C418 1.369 1_655 S
C419 H422 0.928 . S
C420 N416 1.345 . S
C420 C421 1.371 . S
C420 H423 0.931 . S
C421 C417 1.391 . S
C421 C420 1.371 . S
C421 H428 0.930 . S
H422 C419 0.928 . S
H423 C420 0.931 . S
H424 C400 0.930 . S
H425 C397 0.930 . S
H426 C406 0.930 . S
H427 C418 0.929 . S
H428 C421 0.930 . S
C429 C430 1.351 . S
C429 N432 1.368 . S
C429 H434 0.931 . S
C430 C429 1.351 . S
C430 N431 1.373 . S
C430 H458 0.930 . S
N431 C430 1.373 . S
N431 C433 1.340 . S
N432 C429 1.368 . S
N432 C433 1.321 . S
N432 Co435 2.135 . S
C433 N431 1.340 . S
C433 N432 1.321 . S
C433 H457 0.930 . S
H434 C429 0.931 . S
Co435 N432 2.135 . S
Co435 N438 2.121 1_565 S
Co435 O443 2.055 . S
Co435 O446 2.039 . S
Co435 N449 2.140 1_565 S
C436 O437 1.227 . S
C436 O446 1.265 . S
O437 C436 1.227 . S
N438 Co435 2.121 1_545 S
N438 C440 1.375 . S
N438 C441 1.313 . S
C439 C440 1.338 . S
C439 N442 1.377 . S
C439 H459 0.930 . S
C440 N438 1.375 . S
C440 C439 1.338 . S
C440 H444 0.931 . S
C441 N438 1.313 . S
C441 N442 1.344 . S
C441 H445 0.930 . S
N442 C439 1.377 . S
N442 C441 1.344 . S
O443 Co435 2.055 . S
O443 C447 1.253 . S
H444 C440 0.931 . S
H445 C441 0.930 . S
O446 Co435 2.039 . S
O446 C436 1.265 . S
C447 O443 1.253 . S
C447 O448 1.227 . S
O448 C447 1.227 . S
N449 Co435 2.140 1_545 S
N449 C452 1.346 1_545 S
N449 C453 1.345 . S
C450 C451 1.387 . S
C450 C454 1.391 . S
C451 C450 1.387 . S
C451 C452 1.369 1_545 S
C451 H460 0.929 . S
C452 N449 1.346 1_565 S
C452 C451 1.369 1_565 S
C452 H455 0.928 . S
C453 N449 1.345 . S
C453 C454 1.371 . S
C453 H456 0.931 . S
C454 C450 1.391 . S
C454 C453 1.371 . S
C454 H461 0.930 . S
H455 C452 0.928 . S
H456 C453 0.931 . S
H457 C433 0.930 . S
H458 C430 0.930 . S
H459 C439 0.930 . S
H460 C451 0.929 . S
H461 C454 0.930 . S
C462 C463 1.351 . S
C462 N465 1.368 . S
C462 H467 0.931 . S
C463 C462 1.351 . S
C463 N464 1.373 . S
C463 H491 0.930 . S
N464 C463 1.373 . S
N464 C466 1.340 . S
N465 C462 1.368 . S
N465 C466 1.321 . S
N465 Co468 2.135 . S
C466 N464 1.340 . S
C466 N465 1.321 . S
C466 H490 0.930 . S
H467 C462 0.931 . S
Co468 N465 2.135 . S
Co468 N471 2.121 . S
Co468 O476 2.055 . S
Co468 O479 2.039 . S
Co468 N482 2.140 . S
C469 O470 1.227 . S
C469 O479 1.265 . S
O470 C469 1.227 . S
N471 Co468 2.121 . S
N471 C473 1.375 . S
N471 C474 1.313 . S
C472 C473 1.338 . S
C472 N475 1.377 . S
C472 H492 0.930 . S
C473 N471 1.375 . S
C473 C472 1.338 . S
C473 H477 0.931 . S
C474 N471 1.313 . S
C474 N475 1.344 . S
C474 H478 0.930 . S
N475 C472 1.377 . S
N475 C474 1.344 . S
O476 Co468 2.055 . S
O476 C480 1.253 . S
H477 C473 0.931 . S
H478 C474 0.930 . S
O479 Co468 2.039 . S
O479 C469 1.265 . S
C480 O476 1.253 . S
C480 O481 1.227 . S
O481 C480 1.227 . S
N482 Co468 2.140 . S
N482 C485 1.346 . S
N482 C486 1.345 . S
C483 C484 1.387 . S
C483 C487 1.391 . S
C484 C483 1.387 . S
C484 C485 1.369 . S
C484 H493 0.929 . S
C485 N482 1.346 . S
C485 C484 1.369 . S
C485 H488 0.928 . S
C486 N482 1.345 . S
C486 C487 1.371 . S
C486 H489 0.931 . S
C487 C483 1.391 . S
C487 C486 1.371 . S
C487 H494 0.930 . S
H488 C485 0.928 . S
H489 C486 0.931 . S
H490 C466 0.930 . S
H491 C463 0.930 . S
H492 C472 0.930 . S
H493 C484 0.929 . S
H494 C487 0.930 . S
C495 C496 1.351 . S
C495 N498 1.368 . S
C495 H500 0.931 . S
C496 C495 1.351 . S
C496 N497 1.373 . S
C496 H524 0.930 . S
N497 C496 1.373 . S
N497 C499 1.340 . S
N498 C495 1.368 . S
N498 C499 1.321 . S
N498 Co501 2.135 . S
C499 N497 1.340 . S
C499 N498 1.321 . S
C499 H523 0.930 . S
H500 C495 0.931 . S
Co501 N498 2.135 . S
Co501 N504 2.121 . S
Co501 O509 2.055 . S
Co501 O512 2.039 . S
Co501 N515 2.140 . S
C502 O503 1.227 . S
C502 O512 1.265 . S
O503 C502 1.227 . S
N504 Co501 2.121 . S
N504 C506 1.375 . S
N504 C507 1.313 . S
C505 C506 1.338 . S
C505 N508 1.377 . S
C505 H525 0.930 . S
C506 N504 1.375 . S
C506 C505 1.338 . S
C506 H510 0.931 . S
C507 N504 1.313 . S
C507 N508 1.344 . S
C507 H511 0.930 . S
N508 C505 1.377 . S
N508 C507 1.344 . S
O509 Co501 2.055 . S
O509 C513 1.253 . S
H510 C506 0.931 . S
H511 C507 0.930 . S
O512 Co501 2.039 . S
O512 C502 1.265 . S
C513 O509 1.253 . S
C513 O514 1.227 . S
O514 C513 1.227 . S
N515 Co501 2.140 . S
N515 C518 1.346 . S
N515 C519 1.345 . S
C516 C517 1.387 . S
C516 C520 1.391 . S
C517 C516 1.387 . S
C517 C518 1.369 . S
C517 H526 0.929 . S
C518 N515 1.346 . S
C518 C517 1.369 . S
C518 H521 0.928 . S
C519 N515 1.345 . S
C519 C520 1.371 . S
C519 H522 0.931 . S
C520 C516 1.391 . S
C520 C519 1.371 . S
C520 H527 0.930 . S
H521 C518 0.928 . S
H522 C519 0.931 . S
H523 C499 0.930 . S
H524 C496 0.930 . S
H525 C505 0.930 . S
H526 C517 0.929 . S
H527 C520 0.930 . S
C528 C529 1.349 . S
C528 C530 1.327 . S
C528 H553 0.950 1_455 S
C529 C528 1.349 . S
C529 C545 1.349 . S
C530 C528 1.327 . S
C530 C549 1.429 . S
C530 H554 0.950 . S
C531 C548 1.574 . S
C531 C550 1.368 . S
C531 H555 0.949 . S
H532 C536 0.949 . S
C533 C534 1.349 . S
C533 C535 1.327 . S
C533 H556 0.950 . S
C534 C533 1.349 . S
C534 C546 1.349 . S
C535 C533 1.327 . S
C535 C551 1.429 . S
C535 H557 0.950 . S
C536 H532 0.949 . S
C536 C544 1.574 . S
C536 C552 1.368 . S
H537 C545 0.950 . S
H538 C543 0.950 . S
H539 C544 0.949 . S
H540 C546 0.950 . S
H541 C547 0.950 . S
H542 C548 0.949 . S
C543 H538 0.950 . S
C543 C545 1.327 . S
C543 C549 1.429 . S
C544 C536 1.574 . S
C544 H539 0.949 . S
C544 C550 1.368 . S
C545 C529 1.349 . S
C545 H537 0.950 . S
C545 C543 1.327 . S
C546 C534 1.349 . S
C546 H540 0.950 . S
C546 C547 1.327 . S
C547 H541 0.950 . S
C547 C546 1.327 . S
C547 C551 1.429 . S
C548 C531 1.574 . S
C548 H542 0.949 . S
C548 C552 1.368 . S
C549 C530 1.429 . S
C549 C543 1.429 . S
C549 C550 1.523 . S
C550 C531 1.368 . S
C550 C544 1.368 . S
C550 C549 1.523 . S
C551 C535 1.429 . S
C551 C547 1.429 . S
C551 C552 1.523 . S
C552 C536 1.368 . S
C552 C548 1.368 . S
C552 C551 1.523 . S
H553 C528 0.950 1_655 S
H554 C530 0.950 . S
H555 C531 0.949 . S
H556 C533 0.950 . S
H557 C535 0.950 . S
C558 C559 1.349 . S
C558 C560 1.327 . S
C558 H583 0.925 1_545 S
C559 C558 1.349 . S
C559 C575 1.349 . S
C560 C558 1.327 . S
C560 C579 1.429 . S
C560 H584 0.950 . S
C561 C578 1.574 . S
C561 C580 1.368 . S
C561 H585 0.949 . S
H562 C566 0.949 . S
C563 C564 1.349 . S
C563 C565 1.327 . S
C563 H586 0.950 . S
C564 C563 1.349 . S
C564 C576 1.349 . S
C565 C563 1.327 . S
C565 C581 1.429 . S
C565 H587 0.950 . S
C566 H562 0.949 . S
C566 C574 1.574 . S
C566 C582 1.368 . S
H567 C575 0.950 . S
H568 C573 0.950 . S
H569 C574 0.949 . S
H570 C576 0.950 . S
H571 C577 0.950 . S
H572 C578 0.949 . S
C573 H568 0.950 . S
C573 C575 1.327 . S
C573 C579 1.429 . S
C574 C566 1.574 . S
C574 H569 0.949 . S
C574 C580 1.368 . S
C575 C559 1.349 . S
C575 H567 0.950 . S
C575 C573 1.327 . S
C576 C564 1.349 . S
C576 H570 0.950 . S
C576 C577 1.327 . S
C577 H571 0.950 . S
C577 C576 1.327 . S
C577 C581 1.429 . S
C578 C561 1.574 . S
C578 H572 0.949 . S
C578 C582 1.368 . S
C579 C560 1.429 . S
C579 C573 1.429 . S
C579 C580 1.523 . S
C580 C561 1.368 . S
C580 C574 1.368 . S
C580 C579 1.523 . S
C581 C565 1.429 . S
C581 C577 1.429 . S
C581 C582 1.523 . S
C582 C566 1.368 . S
C582 C578 1.368 . S
C582 C581 1.523 . S
H583 C558 0.925 1_565 S
H584 C560 0.950 . S
H585 C561 0.949 . S
H586 C563 0.950 . S
H587 C565 0.950 . S
C588 C589 1.349 . S
C588 C590 1.327 . S
C588 H613 0.950 . S
C589 C588 1.349 . S
C589 C605 1.349 . S
C590 C588 1.327 . S
C590 C609 1.429 . S
C590 H614 0.950 . S
C591 C608 1.574 . S
C591 C610 1.368 . S
C591 H615 0.949 . S
H592 C596 0.949 . S
C593 C594 1.349 . S
C593 C595 1.327 . S
C593 H616 0.950 . S
C594 C593 1.349 . S
C594 C606 1.349 . S
C595 C593 1.327 . S
C595 C611 1.429 . S
C595 H617 0.950 . S
C596 H592 0.949 . S
C596 C604 1.574 . S
C596 C612 1.368 . S
H597 C605 0.950 . S
H598 C603 0.950 . S
H599 C604 0.949 . S
H600 C606 0.950 . S
H601 C607 0.950 . S
H602 C608 0.949 . S
C603 H598 0.950 . S
C603 C605 1.327 . S
C603 C609 1.429 . S
C604 C596 1.574 . S
C604 H599 0.949 . S
C604 C610 1.368 . S
C605 C589 1.349 . S
C605 H597 0.950 . S
C605 C603 1.327 . S
C606 C594 1.349 . S
C606 H600 0.950 . S
C606 C607 1.327 . S
C607 H601 0.950 . S
C607 C606 1.327 . S
C607 C611 1.429 . S
C608 C591 1.574 . S
C608 H602 0.949 . S
C608 C612 1.368 . S
C609 C590 1.429 . S
C609 C603 1.429 . S
C609 C610 1.523 . S
C610 C591 1.368 . S
C610 C604 1.368 . S
C610 C609 1.523 . S
C611 C595 1.429 . S
C611 C607 1.429 . S
C611 C612 1.523 . S
C612 C596 1.368 . S
C612 C608 1.368 . S
C612 C611 1.523 . S
H613 C588 0.950 . S
H614 C590 0.950 . S
H615 C591 0.949 . S
H616 C593 0.950 . S
H617 C595 0.950 . S
C618 C619 1.349 . S
C618 C620 1.327 . S
C618 H643 0.950 1_455 S
C619 C618 1.349 . S
C619 C635 1.349 . S
C620 C618 1.327 . S
C620 C639 1.429 . S
C620 H644 0.950 . S
C621 C638 1.574 . S
C621 C640 1.368 . S
C621 H645 0.949 . S
H622 C626 0.949 . S
C623 C624 1.349 . S
C623 C625 1.327 . S
C623 H646 0.950 . S
C624 C623 1.349 . S
C624 C636 1.349 . S
C625 C623 1.327 . S
C625 C641 1.429 . S
C625 H647 0.950 . S
C626 H622 0.949 . S
C626 C634 1.574 . S
C626 C642 1.368 . S
H627 C635 0.950 . S
H628 C633 0.950 . S
H629 C634 0.949 . S
H630 C636 0.950 . S
H631 C637 0.950 . S
H632 C638 0.949 . S
C633 H628 0.950 . S
C633 C635 1.327 . S
C633 C639 1.429 . S
C634 C626 1.574 . S
C634 H629 0.949 . S
C634 C640 1.368 . S
C635 C619 1.349 . S
C635 H627 0.950 . S
C635 C633 1.327 . S
C636 C624 1.349 . S
C636 H630 0.950 . S
C636 C637 1.327 . S
C637 H631 0.950 . S
C637 C636 1.327 . S
C637 C641 1.429 . S
C638 C621 1.574 . S
C638 H632 0.949 . S
C638 C642 1.368 . S
C639 C620 1.429 . S
C639 C633 1.429 . S
C639 C640 1.523 . S
C640 C621 1.368 . S
C640 C634 1.368 . S
C640 C639 1.523 . S
C641 C625 1.429 . S
C641 C637 1.429 . S
C641 C642 1.523 . S
C642 C626 1.368 . S
C642 C638 1.368 . S
C642 C641 1.523 . S
H643 C618 0.950 1_655 S
H644 C620 0.950 . S
H645 C621 0.949 . S
H646 C623 0.950 . S
H647 C625 0.950 . S
C648 C649 1.349 . S
C648 C650 1.327 . S
C648 H673 0.950 1_655 S
C649 C648 1.349 . S
C649 C665 1.349 . S
C650 C648 1.327 . S
C650 C669 1.429 . S
C650 H674 0.950 . S
C651 C668 1.574 . S
C651 C670 1.368 . S
C651 H675 0.949 . S
H652 C656 0.949 . S
C653 C654 1.349 . S
C653 C655 1.327 . S
C653 H676 0.950 . S
C654 C653 1.349 . S
C654 C666 1.349 . S
C655 C653 1.327 . S
C655 C671 1.429 . S
C655 H677 0.950 . S
C656 H652 0.949 . S
C656 C664 1.574 . S
C656 C672 1.368 . S
H657 C665 0.950 . S
H658 C663 0.950 . S
H659 C664 0.949 . S
H660 C666 0.950 1_545 S
H661 C667 0.950 . S
H662 C668 0.949 . S
C663 H658 0.950 . S
C663 C665 1.327 . S
C663 C669 1.429 . S
C664 C656 1.574 . S
C664 H659 0.949 . S
C664 C670 1.368 . S
C665 C649 1.349 . S
C665 H657 0.950 . S
C665 C663 1.327 . S
C666 C654 1.349 . S
C666 H660 0.950 1_565 S
C666 C667 1.327 . S
C667 H661 0.950 . S
C667 C666 1.327 . S
C667 C671 1.429 . S
C668 C651 1.574 . S
C668 H662 0.949 . S
C668 C672 1.368 . S
C669 C650 1.429 . S
C669 C663 1.429 . S
C669 C670 1.523 . S
C670 C651 1.368 . S
C670 C664 1.368 . S
C670 C669 1.523 . S
C671 C655 1.429 . S
C671 C667 1.429 . S
C671 C672 1.523 . S
C672 C656 1.368 . S
C672 C668 1.368 . S
C672 C671 1.523 . S
H673 C648 0.950 1_455 S
H674 C650 0.950 . S
H675 C651 0.949 . S
H676 C653 0.950 . S
H677 C655 0.950 . S
C678 C679 1.349 . S
C678 C680 1.327 . S
C678 H703 0.950 . S
C679 C678 1.349 . S
C679 C695 1.349 . S
C680 C678 1.327 . S
C680 C699 1.429 . S
C680 H704 0.950 . S
C681 C698 1.574 . S
C681 C700 1.368 . S
C681 H705 0.949 . S
H682 C686 0.949 . S
C683 C684 1.349 . S
C683 C685 1.327 . S
C683 H706 0.950 . S
C684 C683 1.349 . S
C684 C696 1.349 . S
C685 C683 1.327 . S
C685 C701 1.429 . S
C685 H707 0.950 . S
C686 H682 0.949 . S
C686 C694 1.574 . S
C686 C702 1.368 . S
H687 C695 0.950 . S
H688 C693 0.950 . S
H689 C694 0.949 . S
H690 C696 0.950 . S
H691 C697 0.950 . S
H692 C698 0.949 . S
C693 H688 0.950 . S
C693 C695 1.327 . S
C693 C699 1.429 . S
C694 C686 1.574 . S
C694 H689 0.949 . S
C694 C700 1.368 . S
C695 C679 1.349 . S
C695 H687 0.950 . S
C695 C693 1.327 . S
C696 C684 1.349 . S
C696 H690 0.950 . S
C696 C697 1.327 . S
C697 H691 0.950 . S
C697 C696 1.327 . S
C697 C701 1.429 . S
C698 C681 1.574 . S
C698 H692 0.949 . S
C698 C702 1.368 . S
C699 C680 1.429 . S
C699 C693 1.429 . S
C699 C700 1.523 . S
C700 C681 1.368 . S
C700 C694 1.368 . S
C700 C699 1.523 . S
C701 C685 1.429 . S
C701 C697 1.429 . S
C701 C702 1.523 . S
C702 C686 1.368 . S
C702 C698 1.368 . S
C702 C701 1.523 . S
H703 C678 0.950 . S
H704 C680 0.950 . S
H705 C681 0.949 . S
H706 C683 0.950 . S
H707 C685 0.950 . S
C708 C709 1.349 . S
C708 C710 1.327 . S
C708 H733 0.950 . S
C709 C708 1.349 . S
C709 C725 1.349 . S
C710 C708 1.327 . S
C710 C729 1.429 . S
C710 H734 0.950 . S
C711 C728 1.574 . S
C711 C730 1.368 . S
C711 H735 0.949 . S
H712 C716 0.949 . S
C713 C714 1.349 . S
C713 C715 1.327 . S
C713 H736 0.950 . S
C714 C713 1.349 . S
C714 C726 1.349 . S
C715 C713 1.327 . S
C715 C731 1.429 . S
C715 H737 0.950 . S
C716 H712 0.949 . S
C716 C724 1.574 . S
C716 C732 1.368 . S
H717 C725 0.950 . S
H718 C723 0.950 . S
H719 C724 0.949 . S
H720 C726 0.950 . S
H721 C727 0.950 . S
H722 C728 0.949 . S
C723 H718 0.950 . S
C723 C725 1.327 . S
C723 C729 1.429 . S
C724 C716 1.574 . S
C724 H719 0.949 . S
C724 C730 1.368 . S
C725 C709 1.349 . S
C725 H717 0.950 . S
C725 C723 1.327 . S
C726 C714 1.349 . S
C726 H720 0.950 . S
C726 C727 1.327 . S
C727 H721 0.950 . S
C727 C726 1.327 . S
C727 C731 1.429 . S
C728 C711 1.574 . S
C728 H722 0.949 . S
C728 C732 1.368 . S
C729 C710 1.429 . S
C729 C723 1.429 . S
C729 C730 1.523 . S
C730 C711 1.368 . S
C730 C724 1.368 . S
C730 C729 1.523 . S
C731 C715 1.429 . S
C731 C727 1.429 . S
C731 C732 1.523 . S
C732 C716 1.368 . S
C732 C728 1.368 . S
C732 C731 1.523 . S
H733 C708 0.950 . S
H734 C710 0.950 . S
H735 C711 0.949 . S
H736 C713 0.950 . S
H737 C715 0.950 . S
C738 C739 1.349 . S
C738 C740 1.327 . S
C738 H763 0.950 . S
C739 C738 1.349 . S
C739 C755 1.349 . S
C740 C738 1.327 . S
C740 C759 1.429 . S
C740 H764 0.950 . S
C741 C758 1.574 . S
C741 C760 1.368 . S
C741 H765 0.949 . S
H742 C746 0.949 . S
C743 C744 1.349 . S
C743 C745 1.327 . S
C743 H766 0.950 . S
C744 C743 1.349 . S
C744 C756 1.349 . S
C745 C743 1.327 . S
C745 C761 1.429 . S
C745 H767 0.950 . S
C746 H742 0.949 . S
C746 C754 1.574 . S
C746 C762 1.368 . S
H747 C755 0.950 . S
H748 C753 0.950 . S
H749 C754 0.949 . S
H750 C756 0.950 . S
H751 C757 0.950 . S
H752 C758 0.949 . S
C753 H748 0.950 . S
C753 C755 1.327 . S
C753 C759 1.429 . S
C754 C746 1.574 . S
C754 H749 0.949 . S
C754 C760 1.368 . S
C755 C739 1.349 . S
C755 H747 0.950 . S
C755 C753 1.327 . S
C756 C744 1.349 . S
C756 H750 0.950 . S
C756 C757 1.327 . S
C757 H751 0.950 . S
C757 C756 1.327 . S
C757 C761 1.429 . S
C758 C741 1.574 . S
C758 H752 0.949 . S
C758 C762 1.368 . S
C759 C740 1.429 . S
C759 C753 1.429 . S
C759 C760 1.523 . S
C760 C741 1.368 . S
C760 C754 1.368 . S
C760 C759 1.523 . S
C761 C745 1.429 . S
C761 C757 1.429 . S
C761 C762 1.523 . S
C762 C746 1.368 . S
C762 C758 1.368 . S
C762 C761 1.523 . S
H763 C738 0.950 . S
H764 C740 0.950 . S
H765 C741 0.949 . S
H766 C743 0.950 . S
H767 C745 0.950 . S
C768 C769 1.349 . S
C768 C770 1.327 . S
C768 H793 0.950 . S
C769 C768 1.349 . S
C769 C785 1.349 . S
C770 C768 1.327 . S
C770 C789 1.429 . S
C770 H794 0.950 . S
C771 C788 1.574 1_565 S
C771 C790 1.368 1_655 S
C771 H795 0.949 . S
H772 C776 0.949 . S
C773 C774 1.349 . S
C773 C775 1.327 . S
C773 H796 0.950 . S
C774 C773 1.349 . S
C774 C786 1.349 . S
C775 C773 1.327 . S
C775 C791 1.429 . S
C775 H797 0.950 . S
C776 H772 0.949 . S
C776 C784 1.574 1_545 S
C776 C792 1.368 1_455 S
H777 C785 0.950 . S
H778 C783 0.950 1_655 S
H779 C784 0.949 . S
H780 C786 0.950 . S
H781 C787 0.950 1_455 S
H782 C788 0.949 . S
C783 H778 0.950 1_455 S
C783 C785 1.327 . S
C783 C789 1.429 . S
C784 C776 1.574 1_565 S
C784 H779 0.949 . S
C784 C790 1.368 . S
C785 C769 1.349 . S
C785 H777 0.950 . S
C785 C783 1.327 . S
C786 C774 1.349 . S
C786 H780 0.950 . S
C786 C787 1.327 . S
C787 H781 0.950 1_655 S
C787 C786 1.327 . S
C787 C791 1.429 . S
C788 C771 1.574 1_545 S
C788 H782 0.949 . S
C788 C792 1.368 . S
C789 C770 1.429 . S
C789 C783 1.429 . S
C789 C790 1.523 . S
C790 C771 1.368 1_455 S
C790 C784 1.368 . S
C790 C789 1.523 . S
C791 C775 1.429 . S
C791 C787 1.429 . S
C791 C792 1.523 . S
C792 C776 1.368 1_655 S
C792 C788 1.368 . S
C792 C791 1.523 . S
H793 C768 0.950 . S
H794 C770 0.950 . S
H795 C771 0.949 . S
H796 C773 0.950 . S
H797 C775 0.950 . S
C798 C799 1.349 . S
C798 C800 1.327 . S
C798 H823 0.950 . S
C799 C798 1.349 . S
C799 C815 1.349 . S
C800 C798 1.327 . S
C800 C819 1.429 . S
C800 H824 0.950 1_545 S
C801 C818 1.574 . S
C801 C820 1.368 . S
C801 H825 0.949 . S
H802 C806 0.949 . S
C803 C804 1.349 . S
C803 C805 1.327 . S
C803 H826 0.950 . S
C804 C803 1.349 . S
C804 C816 1.349 . S
C805 C803 1.327 . S
C805 C821 1.429 . S
C805 H827 0.950 1_565 S
C806 H802 0.949 . S
C806 C814 1.574 . S
C806 C822 1.368 . S
H807 C815 0.950 . S
H808 C813 0.950 . S
H809 C814 0.949 . S
H810 C816 0.950 . S
H811 C817 0.950 . S
H812 C818 0.949 . S
C813 H808 0.950 . S
C813 C815 1.327 . S
C813 C819 1.429 . S
C814 C806 1.574 . S
C814 H809 0.949 . S
C814 C820 1.368 1_565 S
C815 C799 1.349 . S
C815 H807 0.950 . S
C815 C813 1.327 . S
C816 C804 1.349 . S
C816 H810 0.950 . S
C816 C817 1.327 . S
C817 H811 0.950 . S
C817 C816 1.327 . S
C817 C821 1.429 . S
C818 C801 1.574 . S
C818 H812 0.949 . S
C818 C822 1.368 1_545 S
C819 C800 1.429 . S
C819 C813 1.429 . S
C819 C820 1.523 . S
C820 C801 1.368 . S
C820 C814 1.368 1_545 S
C820 C819 1.523 . S
C821 C805 1.429 . S
C821 C817 1.429 . S
C821 C822 1.523 . S
C822 C806 1.368 . S
C822 C818 1.368 1_565 S
C822 C821 1.523 . S
H823 C798 0.950 . S
H824 C800 0.950 1_565 S
H825 C801 0.949 . S
H826 C803 0.950 . S
H827 C805 0.950 1_545 S
C828 C829 1.349 . S
C828 C830 1.327 . S
C828 H853 0.950 . S
C829 C828 1.349 . S
C829 C845 1.349 . S
C830 C828 1.327 . S
C830 C849 1.429 . S
C830 H854 0.950 . S
C831 C848 1.574 . S
C831 C850 1.368 . S
C831 H855 0.949 . S
H832 C836 0.949 . S
C833 C834 1.349 . S
C833 C835 1.327 . S
C833 H856 0.950 . S
C834 C833 1.349 . S
C834 C846 1.349 . S
C835 C833 1.327 . S
C835 C851 1.429 . S
C835 H857 0.950 . S
C836 H832 0.949 . S
C836 C844 1.574 . S
C836 C852 1.368 . S
H837 C845 0.950 . S
H838 C843 0.950 . S
H839 C844 0.949 . S
H840 C846 0.950 . S
H841 C847 0.950 . S
H842 C848 0.949 . S
C843 H838 0.950 . S
C843 C845 1.327 . S
C843 C849 1.429 . S
C844 C836 1.574 . S
C844 H839 0.949 . S
C844 C850 1.368 . S
C845 C829 1.349 . S
C845 H837 0.950 . S
C845 C843 1.327 . S
C846 C834 1.349 . S
C846 H840 0.950 . S
C846 C847 1.327 . S
C847 H841 0.950 . S
C847 C846 1.327 . S
C847 C851 1.429 . S
C848 C831 1.574 . S
C848 H842 0.949 . S
C848 C852 1.368 . S
C849 C830 1.429 . S
C849 C843 1.429 . S
C849 C850 1.523 . S
C850 C831 1.368 . S
C850 C844 1.368 . S
C850 C849 1.523 . S
C851 C835 1.429 . S
C851 C847 1.429 . S
C851 C852 1.523 . S
C852 C836 1.368 . S
C852 C848 1.368 . S
C852 C851 1.523 . S
H853 C828 0.950 . S
H854 C830 0.950 . S
H855 C831 0.949 . S
H856 C833 0.950 . S
H857 C835 0.950 . S
C858 C859 1.349 . S
C858 C860 1.327 . S
C858 H883 0.950 . S
C859 C858 1.349 . S
C859 C875 1.349 . S
C860 C858 1.327 . S
C860 C879 1.429 . S
C860 H884 0.950 . S
C861 C878 1.574 . S
C861 C880 1.368 1_455 S
C861 H885 0.949 . S
H862 C866 0.949 . S
C863 C864 1.349 . S
C863 C865 1.327 . S
C863 H886 0.950 . S
C864 C863 1.349 . S
C864 C876 1.349 . S
C865 C863 1.327 . S
C865 C881 1.429 . S
C865 H887 0.950 . S
C866 H862 0.949 . S
C866 C874 1.574 . S
C866 C882 1.368 1_655 S
H867 C875 0.950 . S
H868 C873 0.950 . S
H869 C874 0.949 . S
H870 C876 0.950 . S
H871 C877 0.950 . S
H872 C878 0.949 . S
C873 H868 0.950 . S
C873 C875 1.327 . S
C873 C879 1.429 . S
C874 C866 1.574 . S
C874 H869 0.949 . S
C874 C880 1.368 . S
C875 C859 1.349 . S
C875 H867 0.950 . S
C875 C873 1.327 . S
C876 C864 1.349 . S
C876 H870 0.950 . S
C876 C877 1.327 . S
C877 H871 0.950 . S
C877 C876 1.327 . S
C877 C881 1.429 . S
C878 C861 1.574 . S
C878 H872 0.949 . S
C878 C882 1.368 . S
C879 C860 1.429 . S
C879 C873 1.429 . S
C879 C880 1.523 . S
C880 C861 1.368 1_655 S
C880 C874 1.368 . S
C880 C879 1.523 . S
C881 C865 1.429 . S
C881 C877 1.429 . S
C881 C882 1.523 . S
C882 C866 1.368 1_455 S
C882 C878 1.368 . S
C882 C881 1.523 . S
H883 C858 0.950 . S
H884 C860 0.950 . S
H885 C861 0.949 . S
H886 C863 0.950 . S
H887 C865 0.950 . S
C888 C889 1.349 . S
C888 C890 1.327 . S
C888 H913 0.950 . S
C889 C888 1.349 . S
C889 C905 1.349 . S
C890 C888 1.327 . S
C890 C909 1.429 . S
C890 H914 0.950 . S
C891 C908 1.574 . S
C891 C910 1.368 . S
C891 H915 0.949 . S
H892 C896 0.949 . S
C893 C894 1.349 . S
C893 C895 1.327 . S
C893 H916 0.950 . S
C894 C893 1.349 . S
C894 C906 1.349 . S
C895 C893 1.327 . S
C895 C911 1.429 . S
C895 H917 0.950 . S
C896 H892 0.949 . S
C896 C904 1.574 . S
C896 C912 1.368 . S
H897 C905 0.950 . S
H898 C903 0.950 . S
H899 C904 0.949 . S
H900 C906 0.950 . S
H901 C907 0.950 . S
H902 C908 0.949 . S
C903 H898 0.950 . S
C903 C905 1.327 . S
C903 C909 1.429 . S
C904 C896 1.574 . S
C904 H899 0.949 . S
C904 C910 1.368 1_454 S
C905 C889 1.349 . S
C905 H897 0.950 . S
C905 C903 1.327 . S
C906 C894 1.349 . S
C906 H900 0.950 . S
C906 C907 1.327 . S
C907 H901 0.950 . S
C907 C906 1.327 . S
C907 C911 1.429 . S
C908 C891 1.574 . S
C908 H902 0.949 . S
C908 C912 1.368 1_656 S
C909 C890 1.429 . S
C909 C903 1.429 . S
C909 C910 1.523 . S
C910 C891 1.368 . S
C910 C904 1.368 1_656 S
C910 C909 1.523 . S
C911 C895 1.429 . S
C911 C907 1.429 . S
C911 C912 1.523 . S
C912 C896 1.368 . S
C912 C908 1.368 1_454 S
C912 C911 1.523 . S
H913 C888 0.950 . S
H914 C890 0.950 . S
H915 C891 0.949 . S
H916 C893 0.950 . S
H917 C895 0.950 . S
C918 C919 1.349 . S
C918 C920 1.327 . S
C918 H943 0.950 . S
C919 C918 1.349 . S
C919 C935 1.349 . S
C920 C918 1.327 . S
C920 C939 1.429 . S
C920 H944 0.950 1_565 S
C921 C938 1.574 1_455 S
C921 C940 1.368 1_554 S
C921 H945 0.949 . S
H922 C926 0.949 . S
C923 C924 1.349 . S
C923 C925 1.327 . S
C923 H946 0.950 . S
C924 C923 1.349 . S
C924 C936 1.349 . S
C925 C923 1.327 . S
C925 C941 1.429 . S
C925 H947 0.950 1_545 S
C926 H922 0.949 . S
C926 C934 1.574 1_655 S
C926 C942 1.368 1_556 S
H927 C935 0.950 . S
H928 C933 0.950 . S
H929 C934 0.949 . S
H930 C936 0.950 . S
H931 C937 0.950 . S
H932 C938 0.949 . S
C933 H928 0.950 . S
C933 C935 1.327 . S
C933 C939 1.429 . S
C934 C926 1.574 1_455 S
C934 H929 0.949 . S
C934 C940 1.368 1_545 S
C935 C919 1.349 . S
C935 H927 0.950 . S
C935 C933 1.327 . S
C936 C924 1.349 . S
C936 H930 0.950 . S
C936 C937 1.327 . S
C937 H931 0.950 . S
C937 C936 1.327 . S
C937 C941 1.429 . S
C938 C921 1.574 1_655 S
C938 H932 0.949 . S
C938 C942 1.368 1_565 S
C939 C920 1.429 . S
C939 C933 1.429 . S
C939 C940 1.523 . S
C940 C921 1.368 1_556 S
C940 C934 1.368 1_565 S
C940 C939 1.523 . S
C941 C925 1.429 . S
C941 C937 1.429 . S
C941 C942 1.523 . S
C942 C926 1.368 1_554 S
C942 C938 1.368 1_545 S
C942 C941 1.523 . S
H943 C918 0.950 . S
H944 C920 0.950 1_545 S
H945 C921 0.949 . S
H946 C923 0.950 . S
H947 C925 0.950 1_565 S
C948 C949 1.349 . S
C948 C950 1.327 . S
C948 H973 0.950 . S
C949 C948 1.349 . S
C949 C965 1.349 . S
C950 C948 1.327 . S
C950 C969 1.429 . S
C950 H974 0.950 . S
C951 C968 1.574 . S
C951 C970 1.368 1_554 S
C951 H975 0.949 . S
H952 C956 0.949 . S
C953 C954 1.349 . S
C953 C955 1.327 . S
C953 H976 0.950 . S
C954 C953 1.349 . S
C954 C966 1.349 . S
C955 C953 1.327 . S
C955 C971 1.429 . S
C955 H977 0.950 . S
C956 H952 0.949 . S
C956 C964 1.574 . S
C956 C972 1.368 1_556 S
H957 C965 0.950 . S
H958 C963 0.950 . S
H959 C964 0.949 . S
H960 C966 0.950 . S
H961 C967 0.950 . S
H962 C968 0.949 . S
C963 H958 0.950 . S
C963 C965 1.327 . S
C963 C969 1.429 . S
C964 C956 1.574 . S
C964 H959 0.949 . S
C964 C970 1.368 1_565 S
C965 C949 1.349 . S
C965 H957 0.950 . S
C965 C963 1.327 . S
C966 C954 1.349 . S
C966 H960 0.950 . S
C966 C967 1.327 . S
C967 H961 0.950 . S
C967 C966 1.327 . S
C967 C971 1.429 . S
C968 C951 1.574 . S
C968 H962 0.949 . S
C968 C972 1.368 1_545 S
C969 C950 1.429 . S
C969 C963 1.429 . S
C969 C970 1.523 . S
C970 C951 1.368 1_556 S
C970 C964 1.368 1_545 S
C970 C969 1.523 . S
C971 C955 1.429 . S
C971 C967 1.429 . S
C971 C972 1.523 . S
C972 C956 1.368 1_554 S
C972 C968 1.368 1_565 S
C972 C971 1.523 . S
H973 C948 0.950 . S
H974 C950 0.950 . S
H975 C951 0.949 . S
H976 C953 0.950 . S
H977 C955 0.950 . S
C978 C979 1.349 . S
C978 C980 1.327 . S
C978 H1003 0.950 . S
C979 C978 1.349 . S
C979 C995 1.349 . S
C980 C978 1.327 . S
C980 C999 1.429 . S
C980 H1004 0.950 . S
C981 C998 1.574 . S
C981 C1000 1.368 1_554 S
C981 H1005 0.949 . S
H982 C986 0.949 . S
C983 C984 1.349 . S
C983 C985 1.327 . S
C983 H1006 0.950 . S
C984 C983 1.349 . S
C984 C996 1.349 . S
C985 C983 1.327 . S
C985 C1001 1.429 . S
C985 H1007 0.950 . S
C986 H982 0.949 . S
C986 C994 1.574 . S
C986 C1002 1.368 1_556 S
H987 C995 0.950 . S
H988 C993 0.950 . S
H989 C994 0.949 . S
H990 C996 0.950 . S
H991 C997 0.950 . S
H992 C998 0.949 . S
C993 H988 0.950 . S
C993 C995 1.327 . S
C993 C999 1.429 . S
C994 C986 1.574 . S
C994 H989 0.949 . S
C994 C1000 1.368 . S
C995 C979 1.349 . S
C995 H987 0.950 . S
C995 C993 1.327 . S
C996 C984 1.349 . S
C996 H990 0.950 . S
C996 C997 1.327 . S
C997 H991 0.950 . S
C997 C996 1.327 . S
C997 C1001 1.429 . S
C998 C981 1.574 . S
C998 H992 0.949 . S
C998 C1002 1.368 . S
C999 C980 1.429 . S
C999 C993 1.429 . S
C999 C1000 1.523 . S
C1000 C981 1.368 1_556 S
C1000 C994 1.368 . S
C1000 C999 1.523 . S
C1001 C985 1.429 . S
C1001 C997 1.429 . S
C1001 C1002 1.523 . S
C1002 C986 1.368 1_554 S
C1002 C998 1.368 . S
C1002 C1001 1.523 . S
H1003 C978 0.950 . S
H1004 C980 0.950 . S
H1005 C981 0.949 . S
H1006 C983 0.950 . S
H1007 C985 0.950 . S
C1008 C1009 1.349 . S
C1008 C1010 1.327 . S
C1008 H1033 0.950 . S
C1009 C1008 1.349 . S
C1009 C1025 1.349 . S
C1010 C1008 1.327 . S
C1010 C1029 1.429 . S
C1010 H1034 0.950 . S
C1011 C1028 1.574 . S
C1011 C1030 1.368 . S
C1011 H1035 0.949 . S
H1012 C1016 0.949 . S
C1013 C1014 1.349 . S
C1013 C1015 1.327 . S
C1013 H1036 0.950 . S
C1014 C1013 1.349 . S
C1014 C1026 1.349 . S
C1015 C1013 1.327 . S
C1015 C1031 1.429 . S
C1015 H1037 0.950 . S
C1016 H1012 0.949 . S
C1016 C1024 1.574 . S
C1016 C1032 1.368 . S
H1017 C1025 0.950 . S
H1018 C1023 0.950 . S
H1019 C1024 0.949 . S
H1020 C1026 0.950 . S
H1021 C1027 0.950 . S
H1022 C1028 0.949 . S
C1023 H1018 0.950 . S
C1023 C1025 1.327 . S
C1023 C1029 1.429 . S
C1024 C1016 1.574 . S
C1024 H1019 0.949 . S
C1024 C1030 1.368 . S
C1025 C1009 1.349 . S
C1025 H1017 0.950 . S
C1025 C1023 1.327 . S
C1026 C1014 1.349 . S
C1026 H1020 0.950 . S
C1026 C1027 1.327 . S
C1027 H1021 0.950 . S
C1027 C1026 1.327 . S
C1027 C1031 1.429 . S
C1028 C1011 1.574 . S
C1028 H1022 0.949 . S
C1028 C1032 1.368 . S
C1029 C1010 1.429 . S
C1029 C1023 1.429 . S
C1029 C1030 1.523 . S
C1030 C1011 1.368 . S
C1030 C1024 1.368 . S
C1030 C1029 1.523 . S
C1031 C1015 1.429 . S
C1031 C1027 1.429 . S
C1031 C1032 1.523 . S
C1032 C1016 1.368 . S
C1032 C1028 1.368 . S
C1032 C1031 1.523 . S
H1033 C1008 0.950 . S
H1034 C1010 0.950 . S
H1035 C1011 0.949 . S
H1036 C1013 0.950 . S
H1037 C1015 0.950 . S
C1038 C1039 1.349 . S
C1038 C1040 1.327 . S
C1038 H1063 0.950 . S
C1039 C1038 1.349 . S
C1039 C1055 1.349 . S
C1040 C1038 1.327 . S
C1040 C1059 1.429 . S
C1040 H1064 0.950 . S
C1041 C1058 1.574 . S
C1041 C1060 1.368 . S
C1041 H1065 0.949 . S
H1042 C1046 0.949 . S
C1043 C1044 1.349 . S
C1043 C1045 1.327 . S
C1043 H1066 0.950 . S
C1044 C1043 1.349 . S
C1044 C1056 1.349 . S
C1045 C1043 1.327 . S
C1045 C1061 1.429 . S
C1045 H1067 0.950 . S
C1046 H1042 0.949 . S
C1046 C1054 1.574 . S
C1046 C1062 1.368 . S
H1047 C1055 0.950 . S
H1048 C1053 0.950 . S
H1049 C1054 0.949 . S
H1050 C1056 0.950 . S
H1051 C1057 0.950 . S
H1052 C1058 0.949 . S
C1053 H1048 0.950 . S
C1053 C1055 1.327 . S
C1053 C1059 1.429 . S
C1054 C1046 1.574 . S
C1054 H1049 0.949 . S
C1054 C1060 1.368 . S
C1055 C1039 1.349 . S
C1055 H1047 0.950 . S
C1055 C1053 1.327 . S
C1056 C1044 1.349 . S
C1056 H1050 0.950 . S
C1056 C1057 1.327 . S
C1057 H1051 0.950 . S
C1057 C1056 1.327 . S
C1057 C1061 1.429 . S
C1058 C1041 1.574 . S
C1058 H1052 0.949 . S
C1058 C1062 1.368 . S
C1059 C1040 1.429 . S
C1059 C1053 1.429 . S
C1059 C1060 1.523 . S
C1060 C1041 1.368 . S
C1060 C1054 1.368 . S
C1060 C1059 1.523 . S
C1061 C1045 1.429 . S
C1061 C1057 1.429 . S
C1061 C1062 1.523 . S
C1062 C1046 1.368 . S
C1062 C1058 1.368 . S
C1062 C1061 1.523 . S
H1063 C1038 0.950 . S
H1064 C1040 0.950 . S
H1065 C1041 0.949 . S
H1066 C1043 0.950 . S
H1067 C1045 0.950 . S
C1068 C1069 1.349 . S
C1068 C1070 1.327 . S
C1068 H1093 0.950 . S
C1069 C1068 1.349 . S
C1069 C1085 1.349 . S
C1070 C1068 1.327 . S
C1070 C1089 1.429 . S
C1070 H1094 0.950 . S
C1071 C1088 1.574 . S
C1071 C1090 1.368 . S
C1071 H1095 0.949 . S
H1072 C1076 0.949 . S
C1073 C1074 1.349 . S
C1073 C1075 1.327 . S
C1073 H1096 0.950 . S
C1074 C1073 1.349 . S
C1074 C1086 1.349 . S
C1075 C1073 1.327 . S
C1075 C1091 1.429 . S
C1075 H1097 0.950 . S
C1076 H1072 0.949 . S
C1076 C1084 1.574 . S
C1076 C1092 1.368 . S
H1077 C1085 0.950 . S
H1078 C1083 0.950 . S
H1079 C1084 0.949 . S
H1080 C1086 0.950 . S
H1081 C1087 0.950 . S
H1082 C1088 0.949 . S
C1083 H1078 0.950 . S
C1083 C1085 1.327 . S
C1083 C1089 1.429 . S
C1084 C1076 1.574 . S
C1084 H1079 0.949 . S
C1084 C1090 1.368 . S
C1085 C1069 1.349 . S
C1085 H1077 0.950 . S
C1085 C1083 1.327 . S
C1086 C1074 1.349 . S
C1086 H1080 0.950 . S
C1086 C1087 1.327 . S
C1087 H1081 0.950 . S
C1087 C1086 1.327 . S
C1087 C1091 1.429 . S
C1088 C1071 1.574 . S
C1088 H1082 0.949 . S
C1088 C1092 1.368 . S
C1089 C1070 1.429 . S
C1089 C1083 1.429 . S
C1089 C1090 1.523 . S
C1090 C1071 1.368 . S
C1090 C1084 1.368 . S
C1090 C1089 1.523 . S
C1091 C1075 1.429 . S
C1091 C1087 1.429 . S
C1091 C1092 1.523 . S
C1092 C1076 1.368 . S
C1092 C1088 1.368 . S
C1092 C1091 1.523 . S
H1093 C1068 0.950 . S
H1094 C1070 0.950 . S
H1095 C1071 0.949 . S
H1096 C1073 0.950 . S
H1097 C1075 0.950 . S
C1098 C1099 1.349 . S
C1098 C1100 1.327 . S
C1098 H1123 0.950 . S
C1099 C1098 1.349 . S
C1099 C1115 1.349 . S
C1100 C1098 1.327 . S
C1100 C1119 1.429 . S
C1100 H1124 0.950 . S
C1101 C1118 1.574 . S
C1101 C1120 1.368 . S
C1101 H1125 0.949 . S
H1102 C1106 0.949 . S
C1103 C1104 1.349 . S
C1103 C1105 1.327 . S
C1103 H1126 0.950 . S
C1104 C1103 1.349 . S
C1104 C1116 1.349 . S
C1105 C1103 1.327 . S
C1105 C1121 1.429 . S
C1105 H1127 0.950 . S
C1106 H1102 0.949 . S
C1106 C1114 1.574 . S
C1106 C1122 1.368 . S
H1107 C1115 0.950 . S
H1108 C1113 0.950 . S
H1109 C1114 0.949 . S
H1110 C1116 0.950 . S
H1111 C1117 0.950 . S
H1112 C1118 0.949 . S
C1113 H1108 0.950 . S
C1113 C1115 1.327 . S
C1113 C1119 1.429 . S
C1114 C1106 1.574 . S
C1114 H1109 0.949 . S
C1114 C1120 1.368 . S
C1115 C1099 1.349 . S
C1115 H1107 0.950 . S
C1115 C1113 1.327 . S
C1116 C1104 1.349 . S
C1116 H1110 0.950 . S
C1116 C1117 1.327 . S
C1117 H1111 0.950 . S
C1117 C1116 1.327 . S
C1117 C1121 1.429 . S
C1118 C1101 1.574 . S
C1118 H1112 0.949 . S
C1118 C1122 1.368 . S
C1119 C1100 1.429 . S
C1119 C1113 1.429 . S
C1119 C1120 1.523 . S
C1120 C1101 1.368 . S
C1120 C1114 1.368 . S
C1120 C1119 1.523 . S
C1121 C1105 1.429 . S
C1121 C1117 1.429 . S
C1121 C1122 1.523 . S
C1122 C1106 1.368 . S
C1122 C1118 1.368 . S
C1122 C1121 1.523 . S
H1123 C1098 0.950 . S
H1124 C1100 0.950 . S
H1125 C1101 0.949 . S
H1126 C1103 0.950 . S
H1127 C1105 0.950 . S
C1128 C1129 1.349 . S
C1128 C1130 1.327 . S
C1128 H1153 0.950 . S
C1129 C1128 1.349 . S
C1129 C1145 1.349 . S
C1130 C1128 1.327 . S
C1130 C1149 1.429 . S
C1130 H1154 0.950 . S
C1131 C1148 1.574 . S
C1131 C1150 1.368 . S
C1131 H1155 0.949 . S
H1132 C1136 0.949 . S
C1133 C1134 1.349 . S
C1133 C1135 1.327 . S
C1133 H1156 0.950 . S
C1134 C1133 1.349 . S
C1134 C1146 1.349 . S
C1135 C1133 1.327 . S
C1135 C1151 1.429 . S
C1135 H1157 0.950 . S
C1136 H1132 0.949 . S
C1136 C1144 1.574 . S
C1136 C1152 1.368 . S
H1137 C1145 0.950 . S
H1138 C1143 0.950 . S
H1139 C1144 0.949 . S
H1140 C1146 0.950 . S
H1141 C1147 0.950 . S
H1142 C1148 0.949 . S
C1143 H1138 0.950 . S
C1143 C1145 1.327 . S
C1143 C1149 1.429 . S
C1144 C1136 1.574 . S
C1144 H1139 0.949 . S
C1144 C1150 1.368 . S
C1145 C1129 1.349 . S
C1145 H1137 0.950 . S
C1145 C1143 1.327 . S
C1146 C1134 1.349 . S
C1146 H1140 0.950 . S
C1146 C1147 1.327 . S
C1147 H1141 0.950 . S
C1147 C1146 1.327 . S
C1147 C1151 1.429 . S
C1148 C1131 1.574 . S
C1148 H1142 0.949 . S
C1148 C1152 1.368 . S
C1149 C1130 1.429 . S
C1149 C1143 1.429 . S
C1149 C1150 1.523 . S
C1150 C1131 1.368 . S
C1150 C1144 1.368 . S
C1150 C1149 1.523 . S
C1151 C1135 1.429 . S
C1151 C1147 1.429 . S
C1151 C1152 1.523 . S
C1152 C1136 1.368 . S
C1152 C1148 1.368 . S
C1152 C1151 1.523 . S
H1153 C1128 0.950 . S
H1154 C1130 0.950 . S
H1155 C1131 0.949 . S
H1156 C1133 0.950 . S
H1157 C1135 0.950 . S
C1158 C1159 1.349 . S
C1158 C1160 1.327 . S
C1158 H1183 0.950 . S
C1159 C1158 1.349 . S
C1159 C1175 1.349 . S
C1160 C1158 1.327 . S
C1160 C1179 1.429 . S
C1160 H1184 0.950 . S
C1161 C1178 1.574 . S
C1161 C1180 1.368 . S
C1161 H1185 0.949 . S
H1162 C1166 0.949 . S
C1163 C1164 1.349 . S
C1163 C1165 1.327 . S
C1163 H1186 0.950 . S
C1164 C1163 1.349 . S
C1164 C1176 1.349 . S
C1165 C1163 1.327 . S
C1165 C1181 1.429 . S
C1165 H1187 0.950 . S
C1166 H1162 0.949 . S
C1166 C1174 1.574 . S
C1166 C1182 1.368 . S
H1167 C1175 0.950 . S
H1168 C1173 0.950 . S
H1169 C1174 0.949 . S
H1170 C1176 0.950 . S
H1171 C1177 0.950 . S
H1172 C1178 0.949 . S
C1173 H1168 0.950 . S
C1173 C1175 1.327 . S
C1173 C1179 1.429 . S
C1174 C1166 1.574 . S
C1174 H1169 0.949 . S
C1174 C1180 1.368 . S
C1175 C1159 1.349 . S
C1175 H1167 0.950 . S
C1175 C1173 1.327 . S
C1176 C1164 1.349 . S
C1176 H1170 0.950 . S
C1176 C1177 1.327 . S
C1177 H1171 0.950 . S
C1177 C1176 1.327 . S
C1177 C1181 1.429 . S
C1178 C1161 1.574 . S
C1178 H1172 0.949 . S
C1178 C1182 1.368 . S
C1179 C1160 1.429 . S
C1179 C1173 1.429 . S
C1179 C1180 1.523 . S
C1180 C1161 1.368 . S
C1180 C1174 1.368 . S
C1180 C1179 1.523 . S
C1181 C1165 1.429 . S
C1181 C1177 1.429 . S
C1181 C1182 1.523 . S
C1182 C1166 1.368 . S
C1182 C1178 1.368 . S
C1182 C1181 1.523 . S
H1183 C1158 0.950 . S
H1184 C1160 0.950 . S
H1185 C1161 0.949 . S
H1186 C1163 0.950 . S
H1187 C1165 0.950 . S
C1188 C1189 1.349 . S
C1188 C1190 1.327 . S
C1188 H1213 0.950 . S
C1189 C1188 1.349 . S
C1189 C1205 1.349 . S
C1190 C1188 1.327 . S
C1190 C1209 1.429 . S
C1190 H1214 0.950 . S
C1191 C1208 1.574 . S
C1191 C1210 1.368 . S
C1191 H1215 0.949 . S
H1192 C1196 0.949 . S
C1193 C1194 1.349 . S
C1193 C1195 1.327 . S
C1193 H1216 0.950 . S
C1194 C1193 1.349 . S
C1194 C1206 1.349 . S
C1195 C1193 1.327 . S
C1195 C1211 1.429 . S
C1195 H1217 0.950 . S
C1196 H1192 0.949 . S
C1196 C1204 1.574 . S
C1196 C1212 1.368 . S
H1197 C1205 0.950 . S
H1198 C1203 0.950 . S
H1199 C1204 0.949 . S
H1200 C1206 0.950 . S
H1201 C1207 0.950 . S
H1202 C1208 0.949 . S
C1203 H1198 0.950 . S
C1203 C1205 1.327 . S
C1203 C1209 1.429 . S
C1204 C1196 1.574 . S
C1204 H1199 0.949 . S
C1204 C1210 1.368 . S
C1205 C1189 1.349 . S
C1205 H1197 0.950 . S
C1205 C1203 1.327 . S
C1206 C1194 1.349 . S
C1206 H1200 0.950 . S
C1206 C1207 1.327 . S
C1207 H1201 0.950 . S
C1207 C1206 1.327 . S
C1207 C1211 1.429 . S
C1208 C1191 1.574 . S
C1208 H1202 0.949 . S
C1208 C1212 1.368 . S
C1209 C1190 1.429 . S
C1209 C1203 1.429 . S
C1209 C1210 1.523 . S
C1210 C1191 1.368 . S
C1210 C1204 1.368 . S
C1210 C1209 1.523 . S
C1211 C1195 1.429 . S
C1211 C1207 1.429 . S
C1211 C1212 1.523 . S
C1212 C1196 1.368 . S
C1212 C1208 1.368 . S
C1212 C1211 1.523 . S
H1213 C1188 0.950 . S
H1214 C1190 0.950 . S
H1215 C1191 0.949 . S
H1216 C1193 0.950 . S
H1217 C1195 0.950 . S
C1218 C1219 1.349 . S
C1218 C1220 1.327 . S
C1218 H1243 0.950 . S
C1219 C1218 1.349 . S
C1219 C1235 1.349 . S
C1220 C1218 1.327 . S
C1220 C1239 1.429 . S
C1220 H1244 0.950 . S
C1221 C1238 1.574 . S
C1221 C1240 1.368 . S
C1221 H1245 0.949 . S
H1222 C1226 0.949 . S
C1223 C1224 1.349 . S
C1223 C1225 1.327 . S
C1223 H1246 0.950 . S
C1224 C1223 1.349 . S
C1224 C1236 1.349 . S
C1225 C1223 1.327 . S
C1225 C1241 1.429 . S
C1225 H1247 0.950 . S
C1226 H1222 0.949 . S
C1226 C1234 1.574 . S
C1226 C1242 1.368 . S
H1227 C1235 0.950 . S
H1228 C1233 0.950 . S
H1229 C1234 0.949 . S
H1230 C1236 0.950 . S
H1231 C1237 0.950 . S
H1232 C1238 0.949 . S
C1233 H1228 0.950 . S
C1233 C1235 1.327 . S
C1233 C1239 1.429 . S
C1234 C1226 1.574 . S
C1234 H1229 0.949 . S
C1234 C1240 1.368 . S
C1235 C1219 1.349 . S
C1235 H1227 0.950 . S
C1235 C1233 1.327 . S
C1236 C1224 1.349 . S
C1236 H1230 0.950 . S
C1236 C1237 1.327 . S
C1237 H1231 0.950 . S
C1237 C1236 1.327 . S
C1237 C1241 1.429 . S
C1238 C1221 1.574 . S
C1238 H1232 0.949 . S
C1238 C1242 1.368 . S
C1239 C1220 1.429 . S
C1239 C1233 1.429 . S
C1239 C1240 1.523 . S
C1240 C1221 1.368 . S
C1240 C1234 1.368 . S
C1240 C1239 1.523 . S
C1241 C1225 1.429 . S
C1241 C1237 1.429 . S
C1241 C1242 1.523 . S
C1242 C1226 1.368 . S
C1242 C1238 1.368 . S
C1242 C1241 1.523 . S
H1243 C1218 0.950 . S
H1244 C1220 0.950 . S
H1245 C1221 0.949 . S
H1246 C1223 0.950 . S
H1247 C1225 0.950 . S
C1248 C1249 1.349 . S
C1248 C1250 1.327 . S
C1248 H1273 0.950 . S
C1249 C1248 1.349 . S
C1249 C1265 1.349 . S
C1250 C1248 1.327 . S
C1250 C1269 1.429 . S
C1250 H1274 0.950 . S
C1251 C1268 1.574 . S
C1251 C1270 1.368 . S
C1251 H1275 0.949 . S
H1252 C1256 0.949 . S
C1253 C1254 1.349 . S
C1253 C1255 1.327 . S
C1253 H1276 0.950 . S
C1254 C1253 1.349 . S
C1254 C1266 1.349 . S
C1255 C1253 1.327 . S
C1255 C1271 1.429 . S
C1255 H1277 0.950 . S
C1256 H1252 0.949 . S
C1256 C1264 1.574 . S
C1256 C1272 1.368 . S
H1257 C1265 0.950 . S
H1258 C1263 0.950 . S
H1259 C1264 0.949 . S
H1260 C1266 0.950 . S
H1261 C1267 0.950 . S
H1262 C1268 0.949 . S
C1263 H1258 0.950 . S
C1263 C1265 1.327 . S
C1263 C1269 1.429 . S
C1264 C1256 1.574 . S
C1264 H1259 0.949 . S
C1264 C1270 1.368 . S
C1265 C1249 1.349 . S
C1265 H1257 0.950 . S
C1265 C1263 1.327 . S
C1266 C1254 1.349 . S
C1266 H1260 0.950 . S
C1266 C1267 1.327 . S
C1267 H1261 0.950 . S
C1267 C1266 1.327 . S
C1267 C1271 1.429 . S
C1268 C1251 1.574 . S
C1268 H1262 0.949 . S
C1268 C1272 1.368 . S
C1269 C1250 1.429 . S
C1269 C1263 1.429 . S
C1269 C1270 1.523 . S
C1270 C1251 1.368 . S
C1270 C1264 1.368 . S
C1270 C1269 1.523 . S
C1271 C1255 1.429 . S
C1271 C1267 1.429 . S
C1271 C1272 1.523 . S
C1272 C1256 1.368 . S
C1272 C1268 1.368 . S
C1272 C1271 1.523 . S
H1273 C1248 0.950 . S
H1274 C1250 0.950 . S
H1275 C1251 0.949 . S
H1276 C1253 0.950 . S
H1277 C1255 0.950 . S
C1278 C1279 1.349 . S
C1278 C1280 1.327 . S
C1278 H1303 0.950 . S
C1279 C1278 1.349 . S
C1279 C1295 1.349 . S
C1280 C1278 1.327 . S
C1280 C1299 1.429 . S
C1280 H1304 0.950 . S
C1281 C1298 1.574 . S
C1281 C1300 1.368 . S
C1281 H1305 0.949 . S
H1282 C1286 0.949 . S
C1283 C1284 1.349 . S
C1283 C1285 1.327 . S
C1283 H1306 0.950 . S
C1284 C1283 1.349 . S
C1284 C1296 1.349 . S
C1285 C1283 1.327 . S
C1285 C1301 1.429 . S
C1285 H1307 0.950 . S
C1286 H1282 0.949 . S
C1286 C1294 1.574 . S
C1286 C1302 1.368 . S
H1287 C1295 0.950 . S
H1288 C1293 0.950 . S
H1289 C1294 0.949 . S
H1290 C1296 0.950 . S
H1291 C1297 0.950 . S
H1292 C1298 0.949 . S
C1293 H1288 0.950 . S
C1293 C1295 1.327 . S
C1293 C1299 1.429 . S
C1294 C1286 1.574 . S
C1294 H1289 0.949 . S
C1294 C1300 1.368 . S
C1295 C1279 1.349 . S
C1295 H1287 0.950 . S
C1295 C1293 1.327 . S
C1296 C1284 1.349 . S
C1296 H1290 0.950 . S
C1296 C1297 1.327 . S
C1297 H1291 0.950 . S
C1297 C1296 1.327 . S
C1297 C1301 1.429 . S
C1298 C1281 1.574 . S
C1298 H1292 0.949 . S
C1298 C1302 1.368 . S
C1299 C1280 1.429 . S
C1299 C1293 1.429 . S
C1299 C1300 1.523 . S
C1300 C1281 1.368 . S
C1300 C1294 1.368 . S
C1300 C1299 1.523 . S
C1301 C1285 1.429 . S
C1301 C1297 1.429 . S
C1301 C1302 1.523 . S
C1302 C1286 1.368 . S
C1302 C1298 1.368 . S
C1302 C1301 1.523 . S
H1303 C1278 0.950 . S
H1304 C1280 0.950 . S
H1305 C1281 0.949 . S
H1306 C1283 0.950 . S
H1307 C1285 0.950 . S
C1308 C1309 1.349 . S
C1308 C1310 1.327 . S
C1308 H1333 0.950 . S
C1309 C1308 1.349 . S
C1309 C1325 1.349 . S
C1310 C1308 1.327 . S
C1310 C1329 1.429 . S
C1310 H1334 0.950 . S
C1311 C1328 1.574 . S
C1311 C1330 1.368 . S
C1311 H1335 0.949 . S
H1312 C1316 0.949 . S
C1313 C1314 1.349 . S
C1313 C1315 1.327 . S
C1313 H1336 0.950 . S
C1314 C1313 1.349 . S
C1314 C1326 1.349 . S
C1315 C1313 1.327 . S
C1315 C1331 1.429 . S
C1315 H1337 0.950 . S
C1316 H1312 0.949 . S
C1316 C1324 1.574 . S
C1316 C1332 1.368 . S
H1317 C1325 0.950 . S
H1318 C1323 0.950 . S
H1319 C1324 0.949 . S
H1320 C1326 0.950 . S
H1321 C1327 0.950 . S
H1322 C1328 0.949 . S
C1323 H1318 0.950 . S
C1323 C1325 1.327 . S
C1323 C1329 1.429 . S
C1324 C1316 1.574 . S
C1324 H1319 0.949 . S
C1324 C1330 1.368 . S
C1325 C1309 1.349 . S
C1325 H1317 0.950 . S
C1325 C1323 1.327 . S
C1326 C1314 1.349 . S
C1326 H1320 0.950 . S
C1326 C1327 1.327 . S
C1327 H1321 0.950 . S
C1327 C1326 1.327 . S
C1327 C1331 1.429 . S
C1328 C1311 1.574 . S
C1328 H1322 0.949 . S
C1328 C1332 1.368 . S
C1329 C1310 1.429 . S
C1329 C1323 1.429 . S
C1329 C1330 1.523 . S
C1330 C1311 1.368 . S
C1330 C1324 1.368 . S
C1330 C1329 1.523 . S
C1331 C1315 1.429 . S
C1331 C1327 1.429 . S
C1331 C1332 1.523 . S
C1332 C1316 1.368 . S
C1332 C1328 1.368 . S
C1332 C1331 1.523 . S
H1333 C1308 0.950 . S
H1334 C1310 0.950 . S
H1335 C1311 0.949 . S
H1336 C1313 0.950 . S
H1337 C1315 0.950 . S
C1338 C1339 1.349 . S
C1338 C1340 1.327 . S
C1338 H1363 0.950 . S
C1339 C1338 1.349 . S
C1339 C1355 1.349 . S
C1340 C1338 1.327 . S
C1340 C1359 1.429 . S
C1340 H1364 0.950 . S
C1341 C1358 1.574 . S
C1341 C1360 1.368 . S
C1341 H1365 0.949 . S
H1342 C1346 0.949 . S
C1343 C1344 1.349 . S
C1343 C1345 1.327 . S
C1343 H1366 0.950 . S
C1344 C1343 1.349 . S
C1344 C1356 1.349 . S
C1345 C1343 1.327 . S
C1345 C1361 1.429 . S
C1345 H1367 0.950 . S
C1346 H1342 0.949 . S
C1346 C1354 1.574 . S
C1346 C1362 1.368 . S
H1347 C1355 0.950 . S
H1348 C1353 0.950 . S
H1349 C1354 0.949 . S
H1350 C1356 0.950 . S
H1351 C1357 0.950 . S
H1352 C1358 0.949 . S
C1353 H1348 0.950 . S
C1353 C1355 1.327 . S
C1353 C1359 1.429 . S
C1354 C1346 1.574 . S
C1354 H1349 0.949 . S
C1354 C1360 1.368 . S
C1355 C1339 1.349 . S
C1355 H1347 0.950 . S
C1355 C1353 1.327 . S
C1356 C1344 1.349 . S
C1356 H1350 0.950 . S
C1356 C1357 1.327 . S
C1357 H1351 0.950 . S
C1357 C1356 1.327 . S
C1357 C1361 1.429 . S
C1358 C1341 1.574 . S
C1358 H1352 0.949 . S
C1358 C1362 1.368 . S
C1359 C1340 1.429 . S
C1359 C1353 1.429 . S
C1359 C1360 1.523 . S
C1360 C1341 1.368 . S
C1360 C1354 1.368 . S
C1360 C1359 1.523 . S
C1361 C1345 1.429 . S
C1361 C1357 1.429 . S
C1361 C1362 1.523 . S
C1362 C1346 1.368 . S
C1362 C1358 1.368 . S
C1362 C1361 1.523 . S
H1363 C1338 0.950 . S
H1364 C1340 0.950 . S
H1365 C1341 0.949 . S
H1366 C1343 0.950 . S
H1367 C1345 0.950 . S
C1368 C1369 1.349 . S
C1368 C1370 1.327 . S
C1368 H1393 0.950 . S
C1369 C1368 1.349 . S
C1369 C1385 1.349 . S
C1370 C1368 1.327 . S
C1370 C1389 1.429 . S
C1370 H1394 0.950 . S
C1371 C1388 1.574 . S
C1371 C1390 1.368 . S
C1371 H1395 0.949 . S
H1372 C1376 0.949 . S
C1373 C1374 1.349 . S
C1373 C1375 1.327 . S
C1373 H1396 0.950 . S
C1374 C1373 1.349 . S
C1374 C1386 1.349 . S
C1375 C1373 1.327 . S
C1375 C1391 1.429 . S
C1375 H1397 0.950 . S
C1376 H1372 0.949 . S
C1376 C1384 1.574 . S
C1376 C1392 1.368 . S
H1377 C1385 0.950 . S
H1378 C1383 0.950 . S
H1379 C1384 0.949 . S
H1380 C1386 0.950 . S
H1381 C1387 0.950 . S
H1382 C1388 0.949 . S
C1383 H1378 0.950 . S
C1383 C1385 1.327 . S
C1383 C1389 1.429 . S
C1384 C1376 1.574 . S
C1384 H1379 0.949 . S
C1384 C1390 1.368 . S
C1385 C1369 1.349 . S
C1385 H1377 0.950 . S
C1385 C1383 1.327 . S
C1386 C1374 1.349 . S
C1386 H1380 0.950 . S
C1386 C1387 1.327 . S
C1387 H1381 0.950 . S
C1387 C1386 1.327 . S
C1387 C1391 1.429 . S
C1388 C1371 1.574 . S
C1388 H1382 0.949 . S
C1388 C1392 1.368 . S
C1389 C1370 1.429 . S
C1389 C1383 1.429 . S
C1389 C1390 1.523 . S
C1390 C1371 1.368 . S
C1390 C1384 1.368 . S
C1390 C1389 1.523 . S
C1391 C1375 1.429 . S
C1391 C1387 1.429 . S
C1391 C1392 1.523 . S
C1392 C1376 1.368 . S
C1392 C1388 1.368 . S
C1392 C1391 1.523 . S
H1393 C1368 0.950 . S
H1394 C1370 0.950 . S
H1395 C1371 0.949 . S
H1396 C1373 0.950 . S
H1397 C1375 0.950 . S
C1398 C1399 1.349 . S
C1398 C1400 1.327 . S
C1398 H1423 0.950 . S
C1399 C1398 1.349 . S
C1399 C1415 1.349 . S
C1400 C1398 1.327 . S
C1400 C1419 1.429 . S
C1400 H1424 0.950 . S
C1401 C1418 1.574 . S
C1401 C1420 1.368 . S
C1401 H1425 0.949 . S
H1402 C1406 0.949 . S
C1403 C1404 1.349 . S
C1403 C1405 1.327 . S
C1403 H1426 0.950 . S
C1404 C1403 1.349 . S
C1404 C1416 1.349 . S
C1405 C1403 1.327 . S
C1405 C1421 1.429 . S
C1405 H1427 0.950 . S
C1406 H1402 0.949 . S
C1406 C1414 1.574 . S
C1406 C1422 1.368 . S
H1407 C1415 0.950 . S
H1408 C1413 0.950 . S
H1409 C1414 0.949 . S
H1410 C1416 0.950 . S
H1411 C1417 0.950 . S
H1412 C1418 0.949 . S
C1413 H1408 0.950 . S
C1413 C1415 1.327 . S
C1413 C1419 1.429 . S
C1414 C1406 1.574 . S
C1414 H1409 0.949 . S
C1414 C1420 1.368 . S
C1415 C1399 1.349 . S
C1415 H1407 0.950 . S
C1415 C1413 1.327 . S
C1416 C1404 1.349 . S
C1416 H1410 0.950 . S
C1416 C1417 1.327 . S
C1417 H1411 0.950 . S
C1417 C1416 1.327 . S
C1417 C1421 1.429 . S
C1418 C1401 1.574 . S
C1418 H1412 0.949 . S
C1418 C1422 1.368 . S
C1419 C1400 1.429 . S
C1419 C1413 1.429 . S
C1419 C1420 1.523 . S
C1420 C1401 1.368 . S
C1420 C1414 1.368 . S
C1420 C1419 1.523 . S
C1421 C1405 1.429 . S
C1421 C1417 1.429 . S
C1421 C1422 1.523 . S
C1422 C1406 1.368 . S
C1422 C1418 1.368 . S
C1422 C1421 1.523 . S
H1423 C1398 0.950 . S
H1424 C1400 0.950 . S
H1425 C1401 0.949 . S
H1426 C1403 0.950 . S
H1427 C1405 0.950 . S
C1428 C1429 1.349 . S
C1428 C1430 1.327 . S
C1428 H1453 0.950 . S
C1429 C1428 1.349 . S
C1429 C1445 1.349 . S
C1430 C1428 1.327 . S
C1430 C1449 1.429 . S
C1430 H1454 0.950 . S
C1431 C1448 1.574 . S
C1431 C1450 1.368 . S
C1431 H1455 0.949 . S
H1432 C1436 0.949 . S
C1433 C1434 1.349 . S
C1433 C1435 1.327 . S
C1433 H1456 0.950 . S
C1434 C1433 1.349 . S
C1434 C1446 1.349 . S
C1435 C1433 1.327 . S
C1435 C1451 1.429 . S
C1435 H1457 0.950 . S
C1436 H1432 0.949 . S
C1436 C1444 1.574 . S
C1436 C1452 1.368 . S
H1437 C1445 0.950 . S
H1438 C1443 0.950 . S
H1439 C1444 0.949 . S
H1440 C1446 0.950 . S
H1441 C1447 0.950 . S
H1442 C1448 0.949 . S
C1443 H1438 0.950 . S
C1443 C1445 1.327 . S
C1443 C1449 1.429 . S
C1444 C1436 1.574 . S
C1444 H1439 0.949 . S
C1444 C1450 1.368 . S
C1445 C1429 1.349 . S
C1445 H1437 0.950 . S
C1445 C1443 1.327 . S
C1446 C1434 1.349 . S
C1446 H1440 0.950 . S
C1446 C1447 1.327 . S
C1447 H1441 0.950 . S
C1447 C1446 1.327 . S
C1447 C1451 1.429 . S
C1448 C1431 1.574 . S
C1448 H1442 0.949 . S
C1448 C1452 1.368 . S
C1449 C1430 1.429 . S
C1449 C1443 1.429 . S
C1449 C1450 1.523 . S
C1450 C1431 1.368 . S
C1450 C1444 1.368 . S
C1450 C1449 1.523 . S
C1451 C1435 1.429 . S
C1451 C1447 1.429 . S
C1451 C1452 1.523 . S
C1452 C1436 1.368 . S
C1452 C1448 1.368 . S
C1452 C1451 1.523 . S
H1453 C1428 0.950 . S
H1454 C1430 0.950 . S
H1455 C1431 0.949 . S
H1456 C1433 0.950 . S
H1457 C1435 0.950 . S
C1458 C1459 1.349 . S
C1458 C1460 1.327 . S
C1458 H1483 0.950 . S
C1459 C1458 1.349 . S
C1459 C1475 1.349 . S
C1460 C1458 1.327 . S
C1460 C1479 1.429 . S
C1460 H1484 0.950 . S
C1461 C1478 1.574 . S
C1461 C1480 1.368 . S
C1461 H1485 0.949 . S
H1462 C1466 0.949 . S
C1463 C1464 1.349 . S
C1463 C1465 1.327 . S
C1463 H1486 0.950 . S
C1464 C1463 1.349 . S
C1464 C1476 1.349 . S
C1465 C1463 1.327 . S
C1465 C1481 1.429 . S
C1465 H1487 0.950 . S
C1466 H1462 0.949 . S
C1466 C1474 1.574 . S
C1466 C1482 1.368 . S
H1467 C1475 0.950 . S
H1468 C1473 0.950 . S
H1469 C1474 0.949 . S
H1470 C1476 0.950 . S
H1471 C1477 0.950 . S
H1472 C1478 0.949 . S
C1473 H1468 0.950 . S
C1473 C1475 1.327 . S
C1473 C1479 1.429 . S
C1474 C1466 1.574 . S
C1474 H1469 0.949 . S
C1474 C1480 1.368 . S
C1475 C1459 1.349 . S
C1475 H1467 0.950 . S
C1475 C1473 1.327 . S
C1476 C1464 1.349 . S
C1476 H1470 0.950 . S
C1476 C1477 1.327 . S
C1477 H1471 0.950 . S
C1477 C1476 1.327 . S
C1477 C1481 1.429 . S
C1478 C1461 1.574 . S
C1478 H1472 0.949 . S
C1478 C1482 1.368 . S
C1479 C1460 1.429 . S
C1479 C1473 1.429 . S
C1479 C1480 1.523 . S
C1480 C1461 1.368 . S
C1480 C1474 1.368 . S
C1480 C1479 1.523 . S
C1481 C1465 1.429 . S
C1481 C1477 1.429 . S
C1481 C1482 1.523 . S
C1482 C1466 1.368 . S
C1482 C1478 1.368 . S
C1482 C1481 1.523 . S
H1483 C1458 0.950 . S
H1484 C1460 0.950 . S
H1485 C1461 0.949 . S
H1486 C1463 0.950 . S
H1487 C1465 0.950 . S
C1488 C1489 1.349 . S
C1488 C1490 1.327 . S
C1488 H1513 0.950 . S
C1489 C1488 1.349 . S
C1489 C1505 1.349 . S
C1490 C1488 1.327 . S
C1490 C1509 1.429 . S
C1490 H1514 0.950 . S
C1491 C1508 1.574 . S
C1491 C1510 1.368 . S
C1491 H1515 0.949 . S
H1492 C1496 0.949 . S
C1493 C1494 1.349 . S
C1493 C1495 1.327 . S
C1493 H1516 0.950 . S
C1494 C1493 1.349 . S
C1494 C1506 1.349 . S
C1495 C1493 1.327 . S
C1495 C1511 1.429 . S
C1495 H1517 0.950 . S
C1496 H1492 0.949 . S
C1496 C1504 1.574 . S
C1496 C1512 1.368 . S
H1497 C1505 0.950 . S
H1498 C1503 0.950 . S
H1499 C1504 0.949 . S
H1500 C1506 0.950 . S
H1501 C1507 0.950 . S
H1502 C1508 0.949 . S
C1503 H1498 0.950 . S
C1503 C1505 1.327 . S
C1503 C1509 1.429 . S
C1504 C1496 1.574 . S
C1504 H1499 0.949 . S
C1504 C1510 1.368 . S
C1505 C1489 1.349 . S
C1505 H1497 0.950 . S
C1505 C1503 1.327 . S
C1506 C1494 1.349 . S
C1506 H1500 0.950 . S
C1506 C1507 1.327 . S
C1507 H1501 0.950 . S
C1507 C1506 1.327 . S
C1507 C1511 1.429 . S
C1508 C1491 1.574 . S
C1508 H1502 0.949 . S
C1508 C1512 1.368 . S
C1509 C1490 1.429 . S
C1509 C1503 1.429 . S
C1509 C1510 1.523 . S
C1510 C1491 1.368 . S
C1510 C1504 1.368 . S
C1510 C1509 1.523 . S
C1511 C1495 1.429 . S
C1511 C1507 1.429 . S
C1511 C1512 1.523 . S
C1512 C1496 1.368 . S
C1512 C1508 1.368 . S
C1512 C1511 1.523 . S
H1513 C1488 0.950 . S
H1514 C1490 0.950 . S
H1515 C1491 0.949 . S
H1516 C1493 0.950 . S
H1517 C1495 0.950 . S
C1518 C1519 1.349 . S
C1518 C1520 1.327 . S
C1518 H1543 0.950 . S
C1519 C1518 1.349 . S
C1519 C1535 1.349 . S
C1520 C1518 1.327 . S
C1520 C1539 1.429 . S
C1520 H1544 0.950 . S
C1521 C1538 1.574 . S
C1521 C1540 1.368 . S
C1521 H1545 0.949 . S
H1522 C1526 0.949 . S
C1523 C1524 1.349 . S
C1523 C1525 1.327 . S
C1523 H1546 0.950 . S
C1524 C1523 1.349 . S
C1524 C1536 1.349 . S
C1525 C1523 1.327 . S
C1525 C1541 1.429 . S
C1525 H1547 0.950 . S
C1526 H1522 0.949 . S
C1526 C1534 1.574 . S
C1526 C1542 1.368 . S
H1527 C1535 0.950 . S
H1528 C1533 0.950 . S
H1529 C1534 0.949 . S
H1530 C1536 0.950 . S
H1531 C1537 0.950 . S
H1532 C1538 0.949 . S
C1533 H1528 0.950 . S
C1533 C1535 1.327 . S
C1533 C1539 1.429 . S
C1534 C1526 1.574 . S
C1534 H1529 0.949 . S
C1534 C1540 1.368 . S
C1535 C1519 1.349 . S
C1535 H1527 0.950 . S
C1535 C1533 1.327 . S
C1536 C1524 1.349 . S
C1536 H1530 0.950 . S
C1536 C1537 1.327 . S
C1537 H1531 0.950 . S
C1537 C1536 1.327 . S
C1537 C1541 1.429 . S
C1538 C1521 1.574 . S
C1538 H1532 0.949 . S
C1538 C1542 1.368 . S
C1539 C1520 1.429 . S
C1539 C1533 1.429 . S
C1539 C1540 1.523 . S
C1540 C1521 1.368 . S
C1540 C1534 1.368 . S
C1540 C1539 1.523 . S
C1541 C1525 1.429 . S
C1541 C1537 1.429 . S
C1541 C1542 1.523 . S
C1542 C1526 1.368 . S
C1542 C1538 1.368 . S
C1542 C1541 1.523 . S
H1543 C1518 0.950 . S
H1544 C1520 0.950 . S
H1545 C1521 0.949 . S
H1546 C1523 0.950 . S
H1547 C1525 0.950 . S
C1548 C1549 1.349 . S
C1548 C1550 1.327 . S
C1548 H1573 0.950 . S
C1549 C1548 1.349 . S
C1549 C1565 1.349 . S
C1550 C1548 1.327 . S
C1550 C1569 1.429 . S
C1550 H1574 0.950 . S
C1551 C1568 1.574 . S
C1551 C1570 1.368 . S
C1551 H1575 0.949 . S
H1552 C1556 0.949 . S
C1553 C1554 1.349 . S
C1553 C1555 1.327 . S
C1553 H1576 0.950 . S
C1554 C1553 1.349 . S
C1554 C1566 1.349 . S
C1555 C1553 1.327 . S
C1555 C1571 1.429 . S
C1555 H1577 0.950 . S
C1556 H1552 0.949 . S
C1556 C1564 1.574 . S
C1556 C1572 1.368 . S
H1557 C1565 0.950 . S
H1558 C1563 0.950 . S
H1559 C1564 0.949 . S
H1560 C1566 0.950 . S
H1561 C1567 0.950 . S
H1562 C1568 0.949 . S
C1563 H1558 0.950 . S
C1563 C1565 1.327 . S
C1563 C1569 1.429 . S
C1564 C1556 1.574 . S
C1564 H1559 0.949 . S
C1564 C1570 1.368 . S
C1565 C1549 1.349 . S
C1565 H1557 0.950 . S
C1565 C1563 1.327 . S
C1566 C1554 1.349 . S
C1566 H1560 0.950 . S
C1566 C1567 1.327 . S
C1567 H1561 0.950 . S
C1567 C1566 1.327 . S
C1567 C1571 1.429 . S
C1568 C1551 1.574 . S
C1568 H1562 0.949 . S
C1568 C1572 1.368 . S
C1569 C1550 1.429 . S
C1569 C1563 1.429 . S
C1569 C1570 1.523 . S
C1570 C1551 1.368 . S
C1570 C1564 1.368 . S
C1570 C1569 1.523 . S
C1571 C1555 1.429 . S
C1571 C1567 1.429 . S
C1571 C1572 1.523 . S
C1572 C1556 1.368 . S
C1572 C1568 1.368 . S
C1572 C1571 1.523 . S
H1573 C1548 0.950 . S
H1574 C1550 0.950 . S
H1575 C1551 0.949 . S
H1576 C1553 0.950 . S
H1577 C1555 0.950 . S
C1578 C1579 1.349 . S
C1578 C1580 1.327 . S
C1578 H1603 0.950 . S
C1579 C1578 1.349 . S
C1579 C1595 1.349 . S
C1580 C1578 1.327 . S
C1580 C1599 1.429 . S
C1580 H1604 0.950 . S
C1581 C1598 1.574 . S
C1581 C1600 1.368 . S
C1581 H1605 0.949 . S
H1582 C1586 0.949 . S
C1583 C1584 1.349 . S
C1583 C1585 1.327 . S
C1583 H1606 0.950 . S
C1584 C1583 1.349 . S
C1584 C1596 1.349 . S
C1585 C1583 1.327 . S
C1585 C1601 1.429 . S
C1585 H1607 0.950 . S
C1586 H1582 0.949 . S
C1586 C1594 1.574 . S
C1586 C1602 1.368 . S
H1587 C1595 0.950 . S
H1588 C1593 0.950 . S
H1589 C1594 0.949 . S
H1590 C1596 0.950 . S
H1591 C1597 0.950 . S
H1592 C1598 0.949 . S
C1593 H1588 0.950 . S
C1593 C1595 1.327 . S
C1593 C1599 1.429 . S
C1594 C1586 1.574 . S
C1594 H1589 0.949 . S
C1594 C1600 1.368 . S
C1595 C1579 1.349 . S
C1595 H1587 0.950 . S
C1595 C1593 1.327 . S
C1596 C1584 1.349 . S
C1596 H1590 0.950 . S
C1596 C1597 1.327 . S
C1597 H1591 0.950 . S
C1597 C1596 1.327 . S
C1597 C1601 1.429 . S
C1598 C1581 1.574 . S
C1598 H1592 0.949 . S
C1598 C1602 1.368 . S
C1599 C1580 1.429 . S
C1599 C1593 1.429 . S
C1599 C1600 1.523 . S
C1600 C1581 1.368 . S
C1600 C1594 1.368 . S
C1600 C1599 1.523 . S
C1601 C1585 1.429 . S
C1601 C1597 1.429 . S
C1601 C1602 1.523 . S
C1602 C1586 1.368 . S
C1602 C1598 1.368 . S
C1602 C1601 1.523 . S
H1603 C1578 0.950 . S
H1604 C1580 0.950 . S
H1605 C1581 0.949 . S
H1606 C1583 0.950 . S
H1607 C1585 0.950 . S
C1608 C1609 1.349 . S
C1608 C1610 1.327 . S
C1608 H1633 0.950 . S
C1609 C1608 1.349 . S
C1609 C1625 1.349 . S
C1610 C1608 1.327 . S
C1610 C1629 1.429 . S
C1610 H1634 0.950 . S
C1611 C1628 1.574 . S
C1611 C1630 1.368 . S
C1611 H1635 0.949 . S
H1612 C1616 0.949 . S
C1613 C1614 1.349 . S
C1613 C1615 1.327 . S
C1613 H1636 0.950 . S
C1614 C1613 1.349 . S
C1614 C1626 1.349 . S
C1615 C1613 1.327 . S
C1615 C1631 1.429 . S
C1615 H1637 0.950 . S
C1616 H1612 0.949 . S
C1616 C1624 1.574 . S
C1616 C1632 1.368 . S
H1617 C1625 0.950 . S
H1618 C1623 0.950 . S
H1619 C1624 0.949 . S
H1620 C1626 0.950 . S
H1621 C1627 0.950 . S
H1622 C1628 0.949 . S
C1623 H1618 0.950 . S
C1623 C1625 1.327 . S
C1623 C1629 1.429 . S
C1624 C1616 1.574 . S
C1624 H1619 0.949 . S
C1624 C1630 1.368 . S
C1625 C1609 1.349 . S
C1625 H1617 0.950 . S
C1625 C1623 1.327 . S
C1626 C1614 1.349 . S
C1626 H1620 0.950 . S
C1626 C1627 1.327 . S
C1627 H1621 0.950 . S
C1627 C1626 1.327 . S
C1627 C1631 1.429 . S
C1628 C1611 1.574 . S
C1628 H1622 0.949 . S
C1628 C1632 1.368 . S
C1629 C1610 1.429 . S
C1629 C1623 1.429 . S
C1629 C1630 1.523 . S
C1630 C1611 1.368 . S
C1630 C1624 1.368 . S
C1630 C1629 1.523 . S
C1631 C1615 1.429 . S
C1631 C1627 1.429 . S
C1631 C1632 1.523 . S
C1632 C1616 1.368 . S
C1632 C1628 1.368 . S
C1632 C1631 1.523 . S
H1633 C1608 0.950 . S
H1634 C1610 0.950 . S
H1635 C1611 0.949 . S
H1636 C1613 0.950 . S
H1637 C1615 0.950 . S
C1638 C1639 1.349 . S
C1638 C1640 1.327 . S
C1638 H1663 0.950 . S
C1639 C1638 1.349 . S
C1639 C1655 1.349 . S
C1640 C1638 1.327 . S
C1640 C1659 1.429 . S
C1640 H1664 0.950 . S
C1641 C1658 1.574 . S
C1641 C1660 1.368 . S
C1641 H1665 0.949 . S
H1642 C1646 0.949 . S
C1643 C1644 1.349 . S
C1643 C1645 1.327 . S
C1643 H1666 0.950 . S
C1644 C1643 1.349 . S
C1644 C1656 1.349 . S
C1645 C1643 1.327 . S
C1645 C1661 1.429 . S
C1645 H1667 0.950 . S
C1646 H1642 0.949 . S
C1646 C1654 1.574 . S
C1646 C1662 1.368 . S
H1647 C1655 0.950 . S
H1648 C1653 0.950 . S
H1649 C1654 0.949 . S
H1650 C1656 0.950 . S
H1651 C1657 0.950 . S
H1652 C1658 0.949 . S
C1653 H1648 0.950 . S
C1653 C1655 1.327 . S
C1653 C1659 1.429 . S
C1654 C1646 1.574 . S
C1654 H1649 0.949 . S
C1654 C1660 1.368 . S
C1655 C1639 1.349 . S
C1655 H1647 0.950 . S
C1655 C1653 1.327 . S
C1656 C1644 1.349 . S
C1656 H1650 0.950 . S
C1656 C1657 1.327 . S
C1657 H1651 0.950 . S
C1657 C1656 1.327 . S
C1657 C1661 1.429 . S
C1658 C1641 1.574 . S
C1658 H1652 0.949 . S
C1658 C1662 1.368 . S
C1659 C1640 1.429 . S
C1659 C1653 1.429 . S
C1659 C1660 1.523 . S
C1660 C1641 1.368 . S
C1660 C1654 1.368 . S
C1660 C1659 1.523 . S
C1661 C1645 1.429 . S
C1661 C1657 1.429 . S
C1661 C1662 1.523 . S
C1662 C1646 1.368 . S
C1662 C1658 1.368 . S
C1662 C1661 1.523 . S
H1663 C1638 0.950 . S
H1664 C1640 0.950 . S
H1665 C1641 0.949 . S
H1666 C1643 0.950 . S
H1667 C1645 0.950 . S
C1668 C1669 1.349 . S
C1668 C1670 1.327 . S
C1668 H1693 0.950 . S
C1669 C1668 1.349 . S
C1669 C1685 1.349 . S
C1670 C1668 1.327 . S
C1670 C1689 1.429 . S
C1670 H1694 0.950 . S
C1671 C1688 1.574 . S
C1671 C1690 1.368 . S
C1671 H1695 0.949 . S
H1672 C1676 0.949 . S
C1673 C1674 1.349 . S
C1673 C1675 1.327 . S
C1673 H1696 0.950 . S
C1674 C1673 1.349 . S
C1674 C1686 1.349 . S
C1675 C1673 1.327 . S
C1675 C1691 1.429 . S
C1675 H1697 0.950 . S
C1676 H1672 0.949 . S
C1676 C1684 1.574 . S
C1676 C1692 1.368 . S
H1677 C1685 0.950 . S
H1678 C1683 0.950 . S
H1679 C1684 0.949 . S
H1680 C1686 0.950 . S
H1681 C1687 0.950 . S
H1682 C1688 0.949 . S
C1683 H1678 0.950 . S
C1683 C1685 1.327 . S
C1683 C1689 1.429 . S
C1684 C1676 1.574 . S
C1684 H1679 0.949 . S
C1684 C1690 1.368 . S
C1685 C1669 1.349 . S
C1685 H1677 0.950 . S
C1685 C1683 1.327 . S
C1686 C1674 1.349 . S
C1686 H1680 0.950 . S
C1686 C1687 1.327 . S
C1687 H1681 0.950 . S
C1687 C1686 1.327 . S
C1687 C1691 1.429 . S
C1688 C1671 1.574 . S
C1688 H1682 0.949 . S
C1688 C1692 1.368 . S
C1689 C1670 1.429 . S
C1689 C1683 1.429 . S
C1689 C1690 1.523 . S
C1690 C1671 1.368 . S
C1690 C1684 1.368 . S
C1690 C1689 1.523 . S
C1691 C1675 1.429 . S
C1691 C1687 1.429 . S
C1691 C1692 1.523 . S
C1692 C1676 1.368 . S
C1692 C1688 1.368 . S
C1692 C1691 1.523 . S
H1693 C1668 0.950 . S
H1694 C1670 0.950 . S
H1695 C1671 0.949 . S
H1696 C1673 0.950 . S
H1697 C1675 0.950 . S
C1698 C1699 1.349 . S
C1698 C1700 1.327 . S
C1698 H1723 0.950 . S
C1699 C1698 1.349 . S
C1699 C1715 1.349 . S
C1700 C1698 1.327 . S
C1700 C1719 1.429 . S
C1700 H1724 0.950 . S
C1701 C1718 1.574 . S
C1701 C1720 1.368 . S
C1701 H1725 0.949 . S
H1702 C1706 0.949 . S
C1703 C1704 1.349 . S
C1703 C1705 1.327 . S
C1703 H1726 0.950 . S
C1704 C1703 1.349 . S
C1704 C1716 1.349 . S
C1705 C1703 1.327 . S
C1705 C1721 1.429 . S
C1705 H1727 0.950 . S
C1706 H1702 0.949 . S
C1706 C1714 1.574 . S
C1706 C1722 1.368 . S
H1707 C1715 0.950 . S
H1708 C1713 0.950 . S
H1709 C1714 0.949 . S
H1710 C1716 0.950 . S
H1711 C1717 0.950 . S
H1712 C1718 0.949 . S
C1713 H1708 0.950 . S
C1713 C1715 1.327 . S
C1713 C1719 1.429 . S
C1714 C1706 1.574 . S
C1714 H1709 0.949 . S
C1714 C1720 1.368 . S
C1715 C1699 1.349 . S
C1715 H1707 0.950 . S
C1715 C1713 1.327 . S
C1716 C1704 1.349 . S
C1716 H1710 0.950 . S
C1716 C1717 1.327 . S
C1717 H1711 0.950 . S
C1717 C1716 1.327 . S
C1717 C1721 1.429 . S
C1718 C1701 1.574 . S
C1718 H1712 0.949 . S
C1718 C1722 1.368 . S
C1719 C1700 1.429 . S
C1719 C1713 1.429 . S
C1719 C1720 1.523 . S
C1720 C1701 1.368 . S
C1720 C1714 1.368 . S
C1720 C1719 1.523 . S
C1721 C1705 1.429 . S
C1721 C1717 1.429 . S
C1721 C1722 1.523 . S
C1722 C1706 1.368 . S
C1722 C1718 1.368 . S
C1722 C1721 1.523 . S
H1723 C1698 0.950 . S
H1724 C1700 0.950 . S
H1725 C1701 0.949 . S
H1726 C1703 0.950 . S
H1727 C1705 0.950 . S
C529 C7 0.243 . S
C534 C172 0.243 . S
C559 C40 0.243 . S
C564 C205 0.243 . S
C589 C238 0.243 . S
C594 C73 0.243 . S
C619 C139 0.243 . S
C624 C106 0.243 . S
C649 C271 0.243 . S
C654 C436 0.243 . S
C679 C304 0.243 . S
C684 C469 0.243 . S
C709 C337 0.243 . S
C714 C502 0.243 . S
C739 C370 0.243 . S
C744 C403 0.243 . S
C769 C285 1.256 . S
C774 C21 1.256 . S
C799 C318 1.256 . S
C804 C54 1.256 . S
C829 C87 1.255 . S
C834 C351 1.255 . S
C859 C384 1.256 . S
C864 C120 1.256 . S
C889 C153 1.256 . S
C894 C417 1.256 . S
C919 C186 1.256 . S
C924 C450 1.256 . S
C949 C219 1.255 . S
C954 C483 1.255 . S
C979 C252 1.255 . S
C984 C516 1.255 . S
C1009 N13 1.313 . S
C1014 N145 1.313 . S
C1039 N46 1.313 . S
C1044 N178 1.313 . S
C1069 N211 1.313 . S
C1074 N79 1.313 . S
C1099 N112 1.313 . S
C1104 N244 1.313 . S
C1129 N409 1.313 . S
C1134 N277 1.313 . S
C1159 N442 1.313 . S
C1164 N310 1.313 . S
C1189 N343 1.313 . S
C1194 N475 1.313 . S
C1219 N508 1.313 . S
C1224 N376 1.313 . S
C1249 C51 1.345 . S
C1254 N2 1.280 . S
C1279 N35 1.280 . S
C1284 C84 1.345 . S
C1309 N68 1.280 . S
C1314 C117 1.345 . S
C1339 N101 1.280 . S
C1344 C18 1.345 . S
C1369 C249 1.345 . S
C1374 N134 1.280 . S
C1399 N167 1.280 . S
C1404 C150 1.345 . S
C1429 N200 1.280 . S
C1434 C183 1.345 . S
C1459 N233 1.280 . S
C1464 C216 1.345 . S
C1489 N266 1.280 . S
C1494 C315 1.345 . S
C1519 N299 1.280 . S
C1524 C348 1.345 . S
C1549 C381 1.345 . S
C1554 N332 1.280 . S
C1579 N365 1.280 . S
C1584 C282 1.345 . S
C1609 N398 1.280 . S
C1614 C513 1.345 . S
C1639 C414 1.345 . S
C1644 N431 1.280 . S
C1669 C447 1.345 . S
C1674 N464 1.280 . S
C1699 N497 1.280 . S
C1704 C480 1.345 . S
