# Generated by pormake.
# Topology snk, (6)-cn, num edge types: 1
# Building blocks:
#     Node 0, Type 0, BuildingBlock: KUMJIN_clean_sbu_0, # of connection points: 6
#     Node 1, Type 0, BuildingBlock: KUMJIN_clean_sbu_0, # of connection points: 6
#     Node 2, Type 0, BuildingBlock: KUMJIN_clean_sbu_0, # of connection points: 6
#     Node 3, Type 0, BuildingBlock: KUMJIN_clean_sbu_0, # of connection points: 6
#     Node 4, Type 0, BuildingBlock: KUMJIN_clean_sbu_0, # of connection points: 6
#     Node 5, Type 0, BuildingBlock: KUMJIN_clean_sbu_0, # of connection points: 6
#     Node 6, Type 0, BuildingBlock: KUMJIN_clean_sbu_0, # of connection points: 6
#     Node 7, Type 0, BuildingBlock: KUMJIN_clean_sbu_0, # of connection points: 6
#     Edge 8, Type (0, 0), BuildingBlock: ZUJKAS_clean_linker_0, # of connection points: 2
#     Edge 9, Type (0, 0), BuildingBlock: ZUJKAS_clean_linker_0, # of connection points: 2
#     Edge 10, Type (0, 0), BuildingBlock: ZUJKAS_clean_linker_0, # of connection points: 2
#     Edge 11, Type (0, 0), BuildingBlock: ZUJKAS_clean_linker_0, # of connection points: 2
#     Edge 12, Type (0, 0), BuildingBlock: ZUJKAS_clean_linker_0, # of connection points: 2
#     Edge 13, Type (0, 0), BuildingBlock: ZUJKAS_clean_linker_0, # of connection points: 2
#     Edge 14, Type (0, 0), BuildingBlock: ZUJKAS_clean_linker_0, # of connection points: 2
#     Edge 15, Type (0, 0), BuildingBlock: ZUJKAS_clean_linker_0, # of connection points: 2
#     Edge 16, Type (0, 0), BuildingBlock: ZUJKAS_clean_linker_0, # of connection points: 2
#     Edge 17, Type (0, 0), BuildingBlock: ZUJKAS_clean_linker_0, # of connection points: 2
#     Edge 18, Type (0, 0), BuildingBlock: ZUJKAS_clean_linker_0, # of connection points: 2
#     Edge 19, Type (0, 0), BuildingBlock: ZUJKAS_clean_linker_0, # of connection points: 2
#     Edge 20, Type (0, 0), BuildingBlock: ZUJKAS_clean_linker_0, # of connection points: 2
#     Edge 21, Type (0, 0), BuildingBlock: ZUJKAS_clean_linker_0, # of connection points: 2
#     Edge 22, Type (0, 0), BuildingBlock: ZUJKAS_clean_linker_0, # of connection points: 2
#     Edge 23, Type (0, 0), BuildingBlock: ZUJKAS_clean_linker_0, # of connection points: 2
#     Edge 24, Type (0, 0), BuildingBlock: ZUJKAS_clean_linker_0, # of connection points: 2
#     Edge 25, Type (0, 0), BuildingBlock: ZUJKAS_clean_linker_0, # of connection points: 2
#     Edge 26, Type (0, 0), BuildingBlock: ZUJKAS_clean_linker_0, # of connection points: 2
#     Edge 27, Type (0, 0), BuildingBlock: ZUJKAS_clean_linker_0, # of connection points: 2
#     Edge 28, Type (0, 0), BuildingBlock: ZUJKAS_clean_linker_0, # of connection points: 2
#     Edge 29, Type (0, 0), BuildingBlock: ZUJKAS_clean_linker_0, # of connection points: 2
#     Edge 30, Type (0, 0), BuildingBlock: ZUJKAS_clean_linker_0, # of connection points: 2
#     Edge 31, Type (0, 0), BuildingBlock: ZUJKAS_clean_linker_0, # of connection points: 2
# Relax obj value: 0.014
# Max RMSD: 0.072
# Mean RMSD: 0.068
data_MOF--net-snk--node1-KUMJIN_clean_sbu_0--edge1-ZUJKAS_clean_linker_0
_symmetry_space_group_name_H-M    P1
_symmetry_Int_Tables_number       1
_symmetry_cell_setting            triclinic
loop_
_symmetry_equiv_pos_as_xyz
'x, y, z'
_cell_length_a     50.008871
_cell_length_b     50.060299
_cell_length_c     29.211894
_cell_angle_alpha  88.037563
_cell_angle_beta   87.827815
_cell_angle_gamma 89.919142
loop_
_atom_site_label
_atom_site_type_symbol
_atom_site_fract_x
_atom_site_fract_y
_atom_site_fract_z
_atom_type_partial_charge
Eu0 Eu 1.00404 0.98417 0.47086 0.0
C1 C 1.00493 0.09246 0.56687 0.0
C2 C 0.05099 0.10739 0.56249 0.0
C3 C 0.01495 0.14001 0.56189 0.0
C4 C 0.03194 0.08659 0.56421 0.0
C5 C 0.99612 0.11923 0.56702 0.0
C6 C 0.04236 0.13409 0.55968 0.0
C7 C 0.9511 0.10294 0.58266 0.0
N8 N 0.98735 0.07192 0.573 0.0
C9 C 0.96083 0.07673 0.58256 0.0
C10 C 0.96876 0.12429 0.57419 0.0
Eu11 Eu 1.00516 0.02807 0.57028 0.0
N12 N 0.03955 0.0606 0.56814 0.0
C13 C 0.06561 0.05419 0.5754 0.0
C14 C 0.07801 0.10077 0.56639 0.0
C15 C 0.08525 0.07412 0.57419 0.0
H16 H 0.94707 0.06027 0.58875 0.0
H17 H 0.106 0.06885 0.57881 0.0
H18 H 0.05672 0.15033 0.5577 0.0
H19 H 0.92999 0.10665 0.58914 0.0
H20 H 0.07148 0.03364 0.58116 0.0
H21 H 0.90084 0.94776 0.47249 0.0
H22 H 0.09327 0.11615 0.56541 0.0
H23 H 0.05912 0.95001 0.44204 0.0
H24 H 0.9366 0.98135 0.46839 0.0
H25 H 0.07447 0.90309 0.4384 0.0
H26 H 0.00858 0.16071 0.56139 0.0
H27 H 0.91201 0.89966 0.4796 0.0
H28 H 0.94726 0.86392 0.48149 0.0
H29 H 0.9612 0.14457 0.57453 0.0
H30 H 0.99483 0.85166 0.47283 0.0
N31 N 0.96814 0.95293 0.47444 0.0
C32 C 0.94199 0.96056 0.4715 0.0
C33 C 0.92789 0.9144 0.47801 0.0
C34 C 0.95473 0.9066 0.47829 0.0
C35 C 0.92152 0.9415 0.47384 0.0
C36 C 0.97464 0.9266 0.47588 0.0
H37 H 0.04244 0.86614 0.4558 0.0
N38 N 0.01939 0.9396 0.46389 0.0
C39 C 0.05384 0.90745 0.44793 0.0
C40 C 1.00124 0.9197 0.47085 0.0
C41 C 0.04512 0.93395 0.45005 0.0
C42 C 0.03574 0.88666 0.45796 0.0
C43 C 0.00888 0.89264 0.46836 0.0
O44 O 0.02371 0.98544 0.40251 0.0
O45 O 0.02039 0.02171 0.49863 0.0
O46 O 0.98565 0.05071 0.51184 0.0
O47 O 0.9702 0.01506 0.47143 0.0
O48 O 0.04654 0.9999 0.45882 0.0
O49 O 0.98164 0.99425 0.40974 0.0
O50 O 0.98463 0.02817 0.63783 0.0
O51 O 0.98977 0.98962 0.54375 0.0
O52 O 0.02883 0.96269 0.52412 0.0
O53 O 0.03892 0.99711 0.57326 0.0
O54 O 0.96292 0.01198 0.58172 0.0
O55 O 0.02713 0.02045 0.63269 0.0
C56 C 0.04417 0.02117 0.48221 0.0
C57 C 0.9965 0.9734 0.3422 0.0
C58 C 0.99257 0.96784 0.25973 0.0
C59 C 0.99815 0.98404 0.29689 0.0
C60 C 0.98571 0.94086 0.2688 0.0
C61 C 0.98947 0.94651 0.35012 0.0
C62 C 0.98418 0.93035 0.31365 0.0
C63 C 0.96974 0.04065 0.48166 0.0
C64 C 1.00178 0.99037 0.38114 0.0
C65 C 0.98933 0.87257 0.47404 0.0
C66 C 0.96226 0.87955 0.47893 0.0
C67 C 0.96609 0.98993 0.56073 0.0
C68 C 0.01069 0.04204 0.69863 0.0
C69 C 0.00964 0.03175 0.74417 0.0
C70 C 0.01434 0.04857 0.78089 0.0
C71 C 0.01982 0.07579 0.77117 0.0
C72 C 0.0162 0.06922 0.69004 0.0
C73 C 0.0207 0.08597 0.72609 0.0
C74 C 0.04246 0.97269 0.55764 0.0
C75 C 0.00646 0.02433 0.66023 0.0
H76 H 1.00331 1.00491 0.29073 0.0
H77 H 0.9818 0.92773 0.24112 0.0
H78 H 0.98801 0.93799 0.38448 0.0
H79 H 0.97889 0.90957 0.32017 0.0
H80 H 1.0056 0.01068 0.75088 0.0
H81 H 0.02309 0.08934 0.79853 0.0
H82 H 0.01707 0.07752 0.6555 0.0
H83 H 0.02487 0.10696 0.71907 0.0
Eu84 Eu 0.2738 0.74801 0.72309 0.0
C85 C 0.17206 0.77743 0.844 0.0
C86 C 0.16558 0.82502 0.83154 0.0
C87 C 0.12728 0.79628 0.85007 0.0
C88 C 0.1825 0.80247 0.83291 0.0
C89 C 0.14439 0.77409 0.85352 0.0
C90 C 0.13786 0.82171 0.83915 0.0
C91 C 0.15292 0.72761 0.87294 0.0
N92 N 0.18916 0.7565 0.84762 0.0
C93 C 0.18022 0.73197 0.86348 0.0
C94 C 0.13488 0.74869 0.86745 0.0
Eu95 Eu 0.23496 0.76519 0.83002 0.0
N96 N 0.2094 0.805 0.82605 0.0
C97 C 0.22083 0.82972 0.82055 0.0
C98 C 0.1771 0.8503 0.82383 0.0
C99 C 0.20487 0.85267 0.81883 0.0
H100 H 0.19414 0.71562 0.86759 0.0
H101 H 0.21403 0.87216 0.81362 0.0
H102 H 0.12452 0.83877 0.83772 0.0
H103 H 0.14583 0.70801 0.88447 0.0
H104 H 0.24224 0.83188 0.81663 0.0
H105 H 0.29259 0.64063 0.7422 0.0
H106 H 0.16478 0.86811 0.82266 0.0
H107 H 0.3158 0.79623 0.68426 0.0
H108 H 0.26516 0.68133 0.73657 0.0
H109 H 0.3644 0.80281 0.66868 0.0
H110 H 0.10593 0.7941 0.85688 0.0
H111 H 0.34193 0.64375 0.73569 0.0
H112 H 0.3829 0.67231 0.72178 0.0
H113 H 0.11375 0.7453 0.87502 0.0
H114 H 0.40249 0.71647 0.70176 0.0
N115 N 0.29854 0.70765 0.7283 0.0
C116 C 0.28663 0.68315 0.7337 0.0
C117 C 0.32998 0.66178 0.73338 0.0
C118 C 0.34204 0.6868 0.72551 0.0
C119 C 0.30214 0.65993 0.73691 0.0
C120 C 0.32555 0.70964 0.72268 0.0
H121 H 0.39572 0.76515 0.6811 0.0
N122 N 0.31988 0.75558 0.70628 0.0
C123 C 0.35685 0.7835 0.68085 0.0
C124 C 0.33656 0.7344 0.71132 0.0
C125 C 0.3294 0.77971 0.68955 0.0
C126 C 0.37447 0.7622 0.68803 0.0
C127 C 0.36437 0.73715 0.70272 0.0
O128 O 0.27363 0.76309 0.65179 0.0
O129 O 0.24109 0.77245 0.75445 0.0
O130 O 0.20712 0.74538 0.78285 0.0
O131 O 0.23771 0.721 0.73868 0.0
O132 O 0.26415 0.79133 0.70327 0.0
O133 O 0.25891 0.72333 0.66931 0.0
O134 O 0.23581 0.75017 0.9013 0.0
O135 O 0.2677 0.74099 0.79855 0.0
O136 O 0.30144 0.76841 0.76981 0.0
O137 O 0.27078 0.79258 0.81428 0.0
O138 O 0.24489 0.7219 0.8497 0.0
O139 O 0.24985 0.79015 0.8834 0.0
C140 C 0.24379 0.79399 0.73112 0.0
C141 C 0.27983 0.73042 0.59582 0.0
C142 C 0.28538 0.72644 0.51258 0.0
C143 C 0.27137 0.73658 0.55118 0.0
C144 C 0.30815 0.71046 0.51953 0.0
C145 C 0.3025 0.71432 0.60157 0.0
C146 C 0.31658 0.7045 0.56368 0.0
C147 C 0.21304 0.72625 0.75407 0.0
C148 C 0.265 0.74071 0.63622 0.0
C149 C 0.38104 0.71471 0.70775 0.0
C150 C 0.36989 0.68958 0.71913 0.0
C151 C 0.26523 0.71942 0.82177 0.0
C152 C 0.22971 0.78279 0.95744 0.0
C153 C 0.23846 0.77639 1.00181 0.0
C154 C 0.22475 0.7864 0.04082 0.0
C155 C 0.20198 0.80248 0.03455 0.0
C156 C 0.20705 0.79901 0.95238 0.0
C157 C 0.19326 0.80869 0.99068 0.0
C158 C 0.29542 0.78758 0.79845 0.0
C159 C 0.24427 0.77269 0.91663 0.0
H160 H 0.25372 0.74884 0.54662 0.0
H161 H 0.31968 0.70277 0.49074 0.0
H162 H 0.3093 0.70924 0.63533 0.0
H163 H 0.33413 0.69219 0.56854 0.0
H164 H 0.2561 0.76406 1.00585 0.0
H165 H 0.19068 0.81008 0.06368 0.0
H166 H 0.20005 0.80432 0.91885 0.0
H167 H 0.17572 0.82109 0.98634 0.0
Eu168 Eu 0.51243 0.98611 0.07177 0.0
C169 C 0.4757 0.08789 0.96029 0.0
C170 C 0.4277 0.08713 0.97444 0.0
C171 C 0.45062 0.12956 0.96053 0.0
C172 C 0.45244 0.07367 0.97016 0.0
C173 C 0.47494 0.11593 0.95383 0.0
C174 C 0.42702 0.11517 0.97082 0.0
C175 C 0.52142 0.11453 0.92833 0.0
N176 N 0.4987 0.07408 0.95307 0.0
C177 C 0.52102 0.08672 0.93474 0.0
C178 C 0.49839 0.12928 0.93874 0.0
Eu179 Eu 0.49719 0.02713 0.96572 0.0
N180 N 0.45381 0.04657 0.97287 0.0
C181 C 0.43084 0.03173 0.97666 0.0
C182 C 0.4043 0.072 0.9809 0.0
C183 C 0.40586 0.04417 0.9813 0.0
H184 H 0.53879 0.07526 0.92644 0.0
H185 H 0.38784 0.03226 0.9854 0.0
H186 H 0.40825 0.12587 0.97446 0.0
H187 H 0.53943 0.12454 0.91521 0.0
H188 H 0.43148 0.01023 0.97734 0.0
H189 H 0.62082 0.97162 0.0542 0.0
H190 H 0.38493 0.08157 0.98449 0.0
H191 H 0.46602 0.9418 0.1093 0.0
H192 H 0.5791 0.99738 0.06116 0.0
H193 H 0.46117 0.8928 0.12136 0.0
H194 H 0.44968 0.15112 0.95626 0.0
H195 H 0.61948 0.92224 0.05627 0.0
H196 H 0.59236 0.88011 0.06632 0.0
H197 H 0.49865 0.1508 0.93335 0.0
H198 H 0.54883 0.85858 0.08434 0.0
N199 N 0.55388 0.96304 0.06591 0.0
C200 C 0.57801 0.97588 0.0622 0.0
C201 C 0.60098 0.93345 0.05925 0.0
C202 C 0.57635 0.92038 0.06558 0.0
C203 C 0.60183 0.96132 0.05822 0.0
C204 C 0.55286 0.93594 0.06925 0.0
H205 H 0.49987 0.86316 0.10573 0.0
N206 N 0.50662 0.93956 0.08557 0.0
C207 C 0.48017 0.90124 0.10923 0.0
C208 C 0.52843 0.92381 0.07925 0.0
C209 C 0.48297 0.9289 0.10252 0.0
C210 C 0.50203 0.88457 0.10023 0.0
C211 C 0.52671 0.89583 0.08596 0.0
O212 O 0.49514 0.98477 0.14191 0.0
O213 O 0.48904 0.01972 0.04092 0.0
O214 O 0.52028 0.05386 1.0107 0.0
O215 O 0.5387 0.02311 0.06333 0.0
O216 O 0.4686 0.99501 0.08814 0.0
O217 O 0.53546 0.99925 0.12888 0.0
O218 O 0.51465 0.03126 0.8959 0.0
O219 O 0.521 0.99422 0.99702 0.0
O220 O 0.49232 0.9585 0.02466 0.0
O221 O 0.47337 0.98847 0.97145 0.0
O222 O 0.54105 0.01823 0.94845 0.0
O223 O 0.47604 0.01248 0.90754 0.0
C224 C 0.46689 0.01631 0.06233 0.0
C225 C 0.52599 0.97713 0.20033 0.0
C226 C 0.53006 0.97156 0.28341 0.0
C227 C 0.52078 0.98618 0.24494 0.0
C228 C 0.5442 0.94763 0.2764 0.0
C229 C 0.54024 0.95328 0.19443 0.0
C230 C 0.54919 0.9386 0.23225 0.0
C231 C 0.53676 0.04727 0.04368 0.0
C232 C 0.51701 0.9928 0.16006 0.0
C233 C 0.54979 0.88014 0.07987 0.0
C234 C 0.57458 0.8924 0.06967 0.0
C235 C 0.54304 0.99729 0.97513 0.0
C236 C 0.48364 0.03632 0.83714 0.0
C237 C 0.48916 0.02773 0.79233 0.0
C238 C 0.47883 0.04186 0.7542 0.0
C239 C 0.46328 0.06486 0.76181 0.0
C240 C 0.46792 0.05917 0.84363 0.0
C241 C 0.45791 0.07339 0.80618 0.0
C242 C 0.47649 0.96436 0.9906 0.0
C243 C 0.49391 0.02121 0.87697 0.0
H244 H 0.51002 1.00476 0.24956 0.0
H245 H 0.5512 0.93569 0.30517 0.0
H246 H 0.54461 0.94607 0.16062 0.0
H247 H 0.5601 0.92017 0.2273 0.0
H248 H 0.50102 0.00986 0.78732 0.0
H249 H 0.45545 0.07648 0.73336 0.0
H250 H 0.46325 0.06597 0.87763 0.0
H251 H 0.44588 0.09109 0.81156 0.0
Eu252 Eu 0.27823 0.25729 0.31962 0.0
C253 C 0.16942 0.25618 0.22551 0.0
C254 C 0.1545 0.21019 0.23104 0.0
C255 C 0.12184 0.24618 0.23221 0.0
C256 C 0.17531 0.22923 0.22835 0.0
C257 C 0.14262 0.26497 0.2261 0.0
C258 C 0.12778 0.2188 0.23466 0.0
C259 C 0.15885 0.30986 0.20948 0.0
N260 N 0.18996 0.2737 0.21868 0.0
C261 C 0.18509 0.30014 0.20897 0.0
C262 C 0.13751 0.29226 0.21876 0.0
Eu263 Eu 0.23391 0.25601 0.22105 0.0
N264 N 0.2013 0.22165 0.22377 0.0
C265 C 0.20768 0.19556 0.21675 0.0
C266 C 0.1611 0.18316 0.22737 0.0
C267 C 0.18774 0.17591 0.21884 0.0
H268 H 0.20153 0.31385 0.20223 0.0
H269 H 0.193 0.15515 0.21442 0.0
H270 H 0.11154 0.20446 0.23749 0.0
H271 H 0.1551 0.33091 0.20289 0.0
H272 H 0.22823 0.18967 0.21065 0.0
H273 H 0.3169 0.35926 0.32174 0.0
H274 H 0.14572 0.1679 0.22918 0.0
H275 H 0.31115 0.19986 0.33817 0.0
H276 H 0.28237 0.32429 0.32409 0.0
H277 H 0.35777 0.18357 0.3406 0.0
H278 H 0.10112 0.25254 0.23335 0.0
H279 H 0.3648 0.34699 0.31483 0.0
H280 H 0.39975 0.31093 0.31199 0.0
H281 H 0.1172 0.29982 0.21895 0.0
H282 H 0.4109 0.26303 0.31711 0.0
N283 N 0.31019 0.29229 0.31755 0.0
C284 C 0.30312 0.31852 0.32114 0.0
C285 C 0.34968 0.33148 0.31578 0.0
C286 C 0.35685 0.30449 0.31458 0.0
C287 C 0.32268 0.33849 0.31977 0.0
C288 C 0.33638 0.2851 0.31598 0.0
H289 H 0.39539 0.21542 0.32869 0.0
N290 N 0.32235 0.24034 0.32382 0.0
C291 C 0.35381 0.20461 0.33436 0.0
C292 C 0.34266 0.25824 0.31909 0.0
C293 C 0.32745 0.2139 0.33307 0.0
C294 C 0.37499 0.22264 0.32744 0.0
C295 C 0.36957 0.2499 0.32051 0.0
O296 O 0.27701 0.23705 0.38731 0.0
O297 O 0.24051 0.24095 0.29258 0.0
O298 O 0.21159 0.27596 0.27959 0.0
O299 O 0.24733 0.29117 0.32034 0.0
O300 O 0.26275 0.21466 0.33113 0.0
O301 O 0.26979 0.27954 0.38169 0.0
O302 O 0.23455 0.27619 0.15334 0.0
O303 O 0.2719 0.27201 0.2477 0.0
O304 O 0.30061 0.23699 0.26161 0.0
O305 O 0.26499 0.22215 0.21982 0.0
O306 O 0.24986 0.29836 0.20886 0.0
O307 O 0.24145 0.23363 0.15884 0.0
C308 C 0.24119 0.2172 0.30868 0.0
C309 C 0.29034 0.26302 0.44851 0.0
C310 C 0.29675 0.26336 0.53126 0.0
C311 C 0.28006 0.25978 0.49396 0.0
C312 C 0.3237 0.27047 0.52212 0.0
C313 C 0.31727 0.27004 0.44057 0.0
C314 C 0.33381 0.27377 0.47714 0.0
C315 C 0.22173 0.29176 0.30993 0.0
C316 C 0.27306 0.25895 0.4095 0.0
C317 C 0.3901 0.26905 0.31656 0.0
C318 C 0.38374 0.29632 0.31363 0.0
C319 C 0.27165 0.29557 0.23065 0.0
C320 C 0.22023 0.25028 0.09279 0.0
C321 C 0.23011 0.25304 0.04705 0.0
C322 C 0.21298 0.24958 1.01032 0.0
C323 C 0.18597 0.24306 1.02035 0.0
C324 C 0.19321 0.24388 0.10165 0.0
C325 C 0.17623 0.24026 0.06565 0.0
C326 C 0.29052 0.22133 0.23094 0.0
C327 C 0.23803 0.25423 0.13112 0.0
H328 H 0.25929 0.25415 0.50019 0.0
H329 H 0.33695 0.27387 0.54981 0.0
H330 H 0.32553 0.27272 0.40616 0.0
H331 H 0.35455 0.27931 0.47058 0.0
H332 H 0.25095 0.25823 0.04016 0.0
H333 H 0.17236 0.23975 0.99313 0.0
H334 H 0.18523 0.24165 0.13636 0.0
H335 H 0.15542 0.2352 0.07288 0.0
Eu336 Eu 0.77798 0.25569 0.22261 0.0
C337 C 0.67221 0.26931 0.34152 0.0
C338 C 0.6646 0.31719 0.33884 0.0
C339 C 0.6269 0.28683 0.34969 0.0
C340 C 0.68224 0.29518 0.3359 0.0
C341 C 0.64451 0.265 0.3497 0.0
C342 C 0.63693 0.31286 0.34447 0.0
C343 C 0.65385 0.21815 0.36387 0.0
N344 N 0.68963 0.2485 0.34268 0.0
C345 C 0.68111 0.22342 0.35618 0.0
C346 C 0.63541 0.23895 0.3598 0.0
Eu347 Eu 0.73518 0.25907 0.32833 0.0
N348 N 0.7092 0.29892 0.33078 0.0
C349 C 0.71965 0.32417 0.33152 0.0
C350 C 0.67531 0.34297 0.33791 0.0
C351 C 0.70292 0.34645 0.3344 0.0
H352 H 0.69531 0.20728 0.35959 0.0
H353 H 0.71139 0.36634 0.33427 0.0
H354 H 0.62316 0.32956 0.34621 0.0
H355 H 0.64711 0.19808 0.37311 0.0
H356 H 0.74083 0.32774 0.32914 0.0
H357 H 0.80229 0.14955 0.21299 0.0
H358 H 0.66247 0.36028 0.34129 0.0
H359 H 0.81881 0.30852 0.20737 0.0
H360 H 0.77284 0.1891 0.21324 0.0
H361 H 0.86744 0.31822 0.20487 0.0
H362 H 0.60556 0.28386 0.35544 0.0
H363 H 0.8512 0.15499 0.21869 0.0
H364 H 0.89066 0.18578 0.22224 0.0
H365 H 0.6143 0.23485 0.36622 0.0
H366 H 0.90841 0.23167 0.22018 0.0
N367 N 0.80466 0.21667 0.22006 0.0
C368 C 0.79414 0.19179 0.21552 0.0
C369 C 0.83837 0.17245 0.21877 0.0
C370 C 0.84914 0.19814 0.22093 0.0
C371 C 0.81078 0.1693 0.21542 0.0
C372 C 0.83154 0.22018 0.22114 0.0
H373 H 0.89994 0.28118 0.21297 0.0
N374 N 0.82404 0.26667 0.2181 0.0
C375 C 0.86041 0.29782 0.20941 0.0
C376 C 0.84154 0.24597 0.22037 0.0
C377 C 0.83298 0.29231 0.2107 0.0
C378 C 0.87869 0.27686 0.21416 0.0
C379 C 0.86938 0.2505 0.21889 0.0
O380 O 0.7817 0.27817 0.15719 0.0
O381 O 0.74154 0.27402 0.25558 0.0
O382 O 0.7113 0.23586 0.27903 0.0
O383 O 0.74241 0.22785 0.21873 0.0
O384 O 0.76587 0.29943 0.2158 0.0
O385 O 0.76983 0.23658 0.15843 0.0
O386 O 0.76271 0.25251 0.38443 0.0
O387 O 0.76939 0.23903 0.29339 0.0
O388 O 0.80165 0.27098 0.28021 0.0
O389 O 0.76771 0.29071 0.32377 0.0
O390 O 0.74343 0.21433 0.3313 0.0
O391 O 0.72187 0.26277 0.40021 0.0
C392 C 0.74365 0.29767 0.23962 0.0
C393 C 0.79429 0.25303 0.09271 0.0
C394 C 0.80117 0.24746 1.01021 0.0
C395 C 0.78408 0.2526 0.04847 0.0
C396 C 0.82856 0.24311 1.01693 0.0
C397 C 0.82167 0.24861 0.09838 0.0
C398 C 0.83868 0.24374 0.06071 0.0
C399 C 0.71866 0.22484 0.23995 0.0
C400 C 0.77628 0.25763 0.13279 0.0
C401 C 0.88696 0.22861 0.22074 0.0
C402 C 0.87685 0.20248 0.22184 0.0
C403 C 0.76567 0.21512 0.30722 0.0
C404 C 0.74349 0.23514 0.45436 0.0
C405 C 0.74851 0.2422 0.49949 0.0
C406 C 0.74763 0.22268 0.53555 0.0
C407 C 0.74152 0.1961 0.52565 0.0
C408 C 0.73725 0.20852 0.4456 0.0
C409 C 0.73637 0.18916 0.48103 0.0
C410 C 0.79326 0.28761 0.31174 0.0
C411 C 0.74459 0.25561 0.41682 0.0
H412 H 0.76288 0.25577 0.04399 0.0
H413 H 0.84226 0.23946 0.9882 0.0
H414 H 0.82994 0.24891 0.13182 0.0
H415 H 0.8598 0.2404 0.06547 0.0
H416 H 0.75335 0.26274 0.50638 0.0
H417 H 0.74026 0.1807 0.5526 0.0
H418 H 0.73291 0.20261 0.41156 0.0
H419 H 0.73152 0.16868 0.47391 0.0
Eu420 Eu 0.77768 0.75856 0.82632 0.0
C421 C 0.67048 0.75104 0.72564 0.0
C422 C 0.65695 0.70473 0.73592 0.0
C423 C 0.62323 0.73945 0.72848 0.0
C424 C 0.67715 0.72443 0.73243 0.0
C425 C 0.64349 0.7588 0.72239 0.0
C426 C 0.62996 0.71246 0.73525 0.0
C427 C 0.65869 0.80369 0.70265 0.0
N428 N 0.69054 0.76912 0.71912 0.0
C429 C 0.68515 0.79499 0.70603 0.0
C430 C 0.63773 0.7856 0.71151 0.0
Eu431 Eu 0.73483 0.75321 0.72677 0.0
N432 N 0.70344 0.71764 0.73206 0.0
C433 C 0.7109 0.69138 0.73137 0.0
C434 C 0.66453 0.67782 0.73824 0.0
C435 C 0.69162 0.67112 0.73517 0.0
H436 H 0.7013 0.80908 0.69946 0.0
H437 H 0.69769 0.65036 0.73594 0.0
H438 H 0.61417 0.69764 0.73847 0.0
H439 H 0.65447 0.82434 0.69334 0.0
H440 H 0.73174 0.68587 0.72919 0.0
H441 H 0.81038 0.86273 0.82394 0.0
H442 H 0.64964 0.66208 0.74114 0.0
H443 H 0.81331 0.70359 0.84997 0.0
H444 H 0.77795 0.82597 0.8248 0.0
H445 H 0.86071 0.69003 0.85558 0.0
H446 H 0.60235 0.74505 0.7266 0.0
H447 H 0.85881 0.85305 0.82282 0.0
H448 H 0.8958 0.81905 0.82217 0.0
H449 H 0.61725 0.79236 0.70869 0.0
H450 H 0.90957 0.77196 0.82973 0.0
N451 N 0.80756 0.79535 0.82201 0.0
C452 C 0.79897 0.82124 0.82362 0.0
C453 C 0.84466 0.83671 0.82217 0.0
C454 C 0.8534 0.81015 0.82181 0.0
C455 C 0.81733 0.84226 0.82317 0.0
C456 C 0.83409 0.78962 0.82227 0.0
H457 H 0.89662 0.72375 0.84307 0.0
N458 N 0.82254 0.7442 0.83255 0.0
C459 C 0.8557 0.71065 0.84746 0.0
C460 C 0.84183 0.76318 0.82739 0.0
C461 C 0.82893 0.71837 0.84434 0.0
C462 C 0.87591 0.72972 0.84015 0.0
C463 C 0.86909 0.75646 0.83101 0.0
O464 O 0.77731 0.73959 0.89502 0.0
O465 O 0.74026 0.74106 0.80022 0.0
O466 O 0.711 0.77532 0.781 0.0
O467 O 0.74546 0.79118 0.82426 0.0
O468 O 0.76277 0.71606 0.84105 0.0
O469 O 0.76833 0.78168 0.88704 0.0
O470 O 0.73662 0.77133 0.65739 0.0
O471 O 0.77231 0.77061 0.753 0.0
O472 O 0.80116 0.73649 0.77148 0.0
O473 O 0.76628 0.71991 0.73005 0.0
O474 O 0.75021 0.79562 0.71193 0.0
O475 O 0.74336 0.72893 0.66714 0.0
C476 C 0.74098 0.71794 0.819 0.0
C477 C 0.78951 0.76732 0.95463 0.0
C478 C 0.79634 0.76766 0.03719 0.0
C479 C 0.77988 0.7627 1.00015 0.0
C480 C 0.82242 0.77743 0.02779 0.0
C481 C 0.81555 0.7771 0.94639 0.0
C482 C 0.83188 0.78209 0.98273 0.0
C483 C 0.72027 0.7916 0.81146 0.0
C484 C 0.77246 0.76177 0.91593 0.0
C485 C 0.88852 0.77673 0.82743 0.0
C486 C 0.88067 0.80354 0.82311 0.0
C487 C 0.77186 0.79375 0.73437 0.0
C488 C 0.723 0.7435 0.59889 0.0
C489 C 0.7325 0.74806 0.55328 0.0
C490 C 0.7158 0.74345 0.51641 0.0
C491 C 0.68959 0.73411 0.5261 0.0
C492 C 0.69682 0.73416 0.60741 0.0
C493 C 0.68024 0.72952 0.57125 0.0
C494 C 0.79163 0.71973 0.74202 0.0
C495 C 0.74032 0.74866 0.63743 0.0
H496 H 0.7598 0.75499 1.00663 0.0
H497 H 0.83542 0.78188 0.05535 0.0
H498 H 0.82327 0.78097 0.91194 0.0
H499 H 0.85193 0.78973 0.97592 0.0
H500 H 0.75269 0.75544 0.54659 0.0
H501 H 0.67638 0.72991 0.49869 0.0
H502 H 0.68918 0.73033 0.64195 0.0
H503 H 0.66008 0.72222 0.57825 0.0
Eu504 Eu 0.50379 0.48395 0.96763 0.0
C505 C 0.51049 0.59144 0.06723 0.0
C506 C 0.55697 0.6047 0.05763 0.0
C507 C 0.52228 0.63859 0.06374 0.0
C508 C 0.53715 0.58462 0.06114 0.0
C509 C 0.5028 0.61846 0.06984 0.0
C510 C 0.54933 0.63171 0.05761 0.0
C511 C 0.45766 0.60359 0.08905 0.0
N512 N 0.49227 0.5715 0.07376 0.0
C513 C 0.4663 0.57708 0.08631 0.0
C514 C 0.47591 0.62439 0.08013 0.0
Eu515 Eu 0.50812 0.52715 0.06706 0.0
N516 N 0.54386 0.55833 0.06208 0.0
C517 C 0.57009 0.55078 0.06327 0.0
C518 C 0.58389 0.59702 0.05593 0.0
C519 C 0.59046 0.56994 0.05951 0.0
H520 H 0.4521 0.56104 0.09291 0.0
H521 H 0.61122 0.56379 0.0592 0.0
H522 H 0.56424 0.64741 0.05433 0.0
H523 H 0.43694 0.60795 0.09792 0.0
H524 H 0.5755 0.52994 0.06584 0.0
H525 H 0.39955 0.4514 0.96746 0.0
H526 H 0.59971 0.61181 0.05316 0.0
H527 H 0.55909 0.44818 0.94604 0.0
H528 H 0.43634 0.48376 0.96768 0.0
H529 H 0.57269 0.40079 0.94119 0.0
H530 H 0.51674 0.65948 0.0651 0.0
H531 H 0.4092 0.40302 0.9686 0.0
H532 H 0.44317 0.36602 0.97049 0.0
H533 H 0.4692 0.6449 0.08245 0.0
H534 H 0.49037 0.35218 0.96451 0.0
N535 N 0.46692 0.45415 0.97105 0.0
C536 C 0.44104 0.46276 0.9689 0.0
C537 C 0.42554 0.41713 0.96977 0.0
C538 C 0.4521 0.40837 0.97091 0.0
C539 C 0.42001 0.44444 0.96874 0.0
C540 C 0.47266 0.42764 0.97098 0.0
H541 H 0.53877 0.365 0.95275 0.0
N542 N 0.51823 0.43909 0.96217 0.0
C543 C 0.55196 0.40586 0.94859 0.0
C544 C 0.49917 0.41985 0.96681 0.0
C545 C 0.54422 0.43263 0.95128 0.0
C546 C 0.53278 0.38572 0.95536 0.0
C547 C 0.50591 0.3926 0.96355 0.0
O548 O 0.52365 0.4843 0.89951 0.0
O549 O 0.52109 0.52143 0.99391 0.0
O550 O 0.4866 0.55076 1.01214 0.0
O551 O 0.47117 0.51622 0.96853 0.0
O552 O 0.54655 0.49853 0.95433 0.0
O553 O 0.48135 0.49276 0.90607 0.0
O554 O 0.48922 0.52559 0.13596 0.0
O555 O 0.49092 0.48967 0.04058 0.0
O556 O 0.52494 0.46055 0.02342 0.0
O557 O 0.54125 0.49546 0.06514 0.0
O558 O 0.46549 0.51191 0.08093 0.0
O559 O 0.53181 0.51928 0.12747 0.0
C560 C 0.54447 0.52048 0.97594 0.0
C561 C 0.49693 0.47164 0.83891 0.0
C562 C 0.49696 0.46486 0.75625 0.0
C563 C 0.50101 0.48153 0.79343 0.0
C564 C 0.48859 0.43832 0.76544 0.0
C565 C 0.48853 0.44514 0.84692 0.0
C566 C 0.4844 0.42861 0.81044 0.0
C567 C 0.47065 0.54143 0.98128 0.0
C568 C 0.50171 0.48883 0.87782 0.0
C569 C 0.48558 0.37323 0.96654 0.0
C570 C 0.4587 0.38111 0.96995 0.0
C571 C 0.46758 0.49019 0.05864 0.0
C572 C 0.51617 0.53978 0.19517 0.0
C573 C 0.51212 0.53018 0.24082 0.0
C574 C 0.51593 0.54716 0.27767 0.0
C575 C 0.52401 0.57374 0.26795 0.0
C576 C 0.52429 0.56633 0.18663 0.0
C577 C 0.52815 0.58318 0.22278 0.0
C578 C 0.54135 0.47006 0.05346 0.0
C579 C 0.51169 0.52223 0.15661 0.0
H580 H 0.50764 0.50197 0.78709 0.0
H581 H 0.48487 0.42512 0.73776 0.0
H582 H 0.48509 0.43721 0.88131 0.0
H583 H 0.47784 0.4082 0.81708 0.0
H584 H 0.5057 0.5097 0.24755 0.0
H585 H 0.52755 0.58719 0.29535 0.0
H586 H 0.52773 0.57404 0.15207 0.0
H587 H 0.53449 0.60362 0.21575 0.0
Eu588 Eu 0.01449 0.48831 0.57096 0.0
C589 C 0.99316 0.59382 0.45509 0.0
C590 C 0.94533 0.60144 0.45795 0.0
C591 C 0.97581 0.63907 0.44692 0.0
C592 C 0.96738 0.58399 0.46114 0.0
C593 C 0.99767 0.62144 0.4474 0.0
C594 C 0.94968 0.62907 0.45182 0.0
C595 C 0.04481 0.61187 0.43618 0.0
N596 N 0.01376 0.57617 0.45389 0.0
C597 C 0.03927 0.58462 0.44302 0.0
C598 C 0.02395 0.6304 0.43877 0.0
Eu599 Eu 1.00285 0.53042 0.46574 0.0
N600 N 0.96381 0.55716 0.46641 0.0
C601 C 0.9387 0.54642 0.46746 0.0
C602 C 0.91959 0.59052 0.45909 0.0
C603 C 0.91625 0.56291 0.4642 0.0
H604 H 0.05543 0.57033 0.44084 0.0
H605 H 0.89639 0.55429 0.46502 0.0
H606 H 0.93296 0.6428 0.44982 0.0
H607 H 0.06513 0.61854 0.42864 0.0
H608 H 0.93581 0.5251 0.47069 0.0
H609 H 0.12172 0.46675 0.56158 0.0
H610 H 0.9022 0.60318 0.45512 0.0
H611 H 0.964 0.44683 0.60114 0.0
H612 H 0.08156 0.49518 0.56594 0.0
H613 H 0.95562 0.39818 0.61065 0.0
H614 H 0.97887 0.66037 0.44128 0.0
H615 H 0.11715 0.41757 0.56211 0.0
H616 H 0.08714 0.37726 0.5683 0.0
H617 H 0.02825 0.65147 0.43288 0.0
H618 H 0.04189 0.35856 0.58159 0.0
N619 N 0.05427 0.46253 0.56759 0.0
C620 C 0.07917 0.47378 0.56619 0.0
C621 C 0.09939 0.42995 0.56384 0.0
C622 C 0.07386 0.41851 0.56764 0.0
C623 C 0.10205 0.45771 0.56371 0.0
C624 C 0.0514 0.43556 0.56989 0.0
H625 H 0.99278 0.3662 0.59825 0.0
N626 N 1.00517 0.44216 0.5824 0.0
C627 C 0.9755 0.40546 0.60114 0.0
C628 C 0.02602 0.42503 0.57745 0.0
C629 C 0.98029 0.43293 0.59588 0.0
C630 C 0.99651 0.38747 0.59395 0.0
C631 C 0.02226 0.39718 0.58275 0.0
O632 O 0.99686 0.48697 0.64075 0.0
O633 O 0.992 0.52239 0.53976 0.0
O634 O 0.02008 0.55628 0.51869 0.0
O635 O 0.04261 0.52414 0.56212 0.0
O636 O 0.9707 0.49859 0.58674 0.0
O637 O 0.03757 0.50063 0.62866 0.0
O638 O 0.02081 0.53094 0.3962 0.0
O639 O 0.02487 0.49615 0.49686 0.0
O640 O 0.99528 0.46278 0.51954 0.0
O641 O 0.97391 0.49533 0.4749 0.0
O642 O 0.04665 0.51997 0.4506 0.0
O643 O 0.97982 0.51799 0.40802 0.0
C644 C 0.96949 0.51967 0.56027 0.0
C645 C 0.02717 0.47802 0.69941 0.0
C646 C 0.03119 0.47169 0.78238 0.0
C647 C 0.02296 0.48722 0.74414 0.0
C648 C 0.04337 0.44676 0.77498 0.0
C649 C 0.03948 0.45317 0.69316 0.0
C650 C 0.04746 0.43764 0.7307 0.0
C651 C 0.0378 0.54929 0.5493 0.0
C652 C 0.01883 0.49432 0.65942 0.0
C653 C 0.04439 0.38003 0.57813 0.0
C654 C 0.07016 0.39068 0.57059 0.0
C655 C 0.04744 0.49871 0.47663 0.0
C656 C 0.99105 0.53934 0.33639 0.0
C657 C 0.99526 0.5292 0.2923 0.0
C658 C 0.98749 0.54417 0.25312 0.0
C659 C 0.97579 0.56948 0.25892 0.0
C660 C 0.97927 0.56456 0.341 0.0
C661 C 0.97174 0.57953 0.30254 0.0
C662 C 0.97737 0.47024 0.48954 0.0
C663 C 0.99886 0.5236 0.3774 0.0
H664 H 0.01366 0.50654 0.74902 0.0
H665 H 0.04947 0.43409 0.80353 0.0
H666 H 0.04296 0.44575 0.6593 0.0
H667 H 0.05683 0.41842 0.72545 0.0
H668 H 1.00419 0.50961 0.28862 0.0
H669 H 0.97006 0.58173 0.22961 0.0
H670 H 0.97586 0.57272 0.37426 0.0
H671 H 0.96276 0.59904 0.30657 0.0
H672 H 0.03198 0.06663 0.43257 0.0
H673 H 0.06338 0.09979 0.39871 0.0
H674 H 0.12663 0.0633 0.47608 0.0
H675 H 0.09643 0.0272 0.50115 0.0
H676 H 0.08971 0.13621 0.40714 0.0
H677 H 0.17103 0.06599 0.37081 0.0
H678 H 0.13913 0.0541 0.39275 0.0
H679 H 0.16488 0.06365 0.4313 0.0
C680 C 0.05271 0.06578 0.44201 0.0
C681 C 0.06164 0.04459 0.47029 0.0
C682 C 0.07089 0.08489 0.42267 0.0
C683 C 0.09837 0.08406 0.43266 0.0
C684 C 0.10647 0.06387 0.46412 0.0
H685 H 0.19413 0.22959 0.35392 0.0
H686 H 0.16001 0.19855 0.38507 0.0
C687 C 0.08886 0.04354 0.48005 0.0
C688 C 0.11835 0.10391 0.41036 0.0
H689 H 0.18435 0.11152 0.37806 0.0
C690 C 0.11021 0.13034 0.39955 0.0
C691 C 0.1453 0.09705 0.3983 0.0
C692 C 0.15537 0.06857 0.39835 0.0
C693 C 0.12771 0.14945 0.37771 0.0
C694 C 0.15545 0.14346 0.37135 0.0
C695 C 0.16352 0.1171 0.38259 0.0
C696 C 0.17642 0.16339 0.35238 0.0
C697 C 0.11546 0.17508 0.35958 0.0
C698 C 0.19888 0.15459 0.32609 0.0
C699 C 0.21974 0.17209 0.31212 0.0
C700 C 0.21786 0.1995 0.32004 0.0
C701 C 0.19547 0.20875 0.34527 0.0
C702 C 0.17555 0.19082 0.36255 0.0
H703 H 0.09445 0.17183 0.34996 0.0
H704 H 0.11489 0.19 0.38682 0.0
H705 H 0.12673 0.18334 0.32885 0.0
H706 H 0.20069 0.134 0.31636 0.0
H707 H 0.23714 0.16428 0.29381 0.0
H708 H 0.0808 0.94291 0.51458 0.0
H709 H 0.11349 0.91302 0.54921 0.0
H710 H 0.08435 0.93472 0.68376 0.0
H711 H 0.05156 0.96498 0.6487 0.0
H712 H 0.13788 0.93273 0.67945 0.0
H713 H 0.09921 0.84039 0.60721 0.0
H714 H 0.10773 0.86514 0.56331 0.0
H715 H 0.08109 0.87155 0.60473 0.0
C716 C 0.08092 0.94085 0.55145 0.0
C717 C 0.06306 0.95559 0.57888 0.0
C718 C 0.09974 0.92382 0.57132 0.0
C719 C 0.1009 0.92089 0.6192 0.0
C720 C 0.08365 0.93635 0.64676 0.0
H721 H 0.18946 0.7861 0.73688 0.0
H722 H 0.15445 0.81774 0.71574 0.0
C723 C 0.06496 0.95364 0.62675 0.0
C724 C 0.12045 0.90205 0.6402 0.0
H725 H 0.14266 0.83753 0.63826 0.0
C726 C 0.13876 0.91183 0.67082 0.0
C727 C 0.12139 0.87464 0.62967 0.0
C728 C 0.10112 0.86224 0.59983 0.0
C729 C 0.15843 0.89524 0.69009 0.0
C730 C 0.16036 0.86815 0.6775 0.0
C731 C 0.14152 0.85826 0.64781 0.0
C732 C 0.18176 0.8497 0.69401 0.0
C733 C 0.17665 0.90707 0.72406 0.0
C734 C 0.20894 0.85683 0.68898 0.0
C735 C 0.22895 0.83896 0.70254 0.0
C736 C 0.22229 0.81344 0.72095 0.0
C737 C 0.19521 0.80597 0.72465 0.0
C738 C 0.17517 0.824 0.71195 0.0
H739 H 0.16658 0.92355 0.74257 0.0
H740 H 0.18327 0.89186 0.74964 0.0
H741 H 0.19458 0.9156 0.70541 0.0
H742 H 0.21479 0.876 0.67355 0.0
H743 H 0.24972 0.84494 0.69799 0.0
H744 H 0.29126 0.83273 0.84784 0.0
H745 H 0.32761 0.85964 0.87485 0.0
H746 H 0.38544 0.80721 0.81125 0.0
H747 H 0.34921 0.77947 0.78538 0.0
H748 H 0.39741 0.81949 0.89984 0.0
H749 H 0.37479 0.91086 0.7964 0.0
H750 H 0.34607 0.89876 0.82944 0.0
H751 H 0.36072 0.87866 0.78511 0.0
C752 C 0.31167 0.82692 0.83939 0.0
C753 C 0.31735 0.80422 0.8138 0.0
C754 C 0.3324 0.84241 0.85462 0.0
C755 C 0.35908 0.83565 0.84412 0.0
C756 C 0.3649 0.81283 0.81916 0.0
H757 H 0.47774 0.9549 0.90066 0.0
H758 H 0.45396 0.91993 0.86234 0.0
C759 C 0.34417 0.79719 0.80412 0.0
C760 C 0.38078 0.85222 0.86037 0.0
H761 H 0.40219 0.91663 0.86094 0.0
C762 C 0.39882 0.84067 0.8909 0.0
C763 C 0.38281 0.87964 0.84777 0.0
C764 C 0.36524 0.89265 0.81249 0.0
C765 C 0.41808 0.85626 0.91112 0.0
C766 C 0.4187 0.88409 0.90119 0.0
C767 C 0.40149 0.89531 0.86891 0.0
C768 C 0.43609 0.90239 0.92503 0.0
C769 C 0.43742 0.84279 0.94293 0.0
C770 C 0.43419 0.90382 0.97301 0.0
C771 C 0.44805 0.92357 0.99492 0.0
C772 C 0.46335 0.94239 0.96892 0.0
C773 C 0.46569 0.94065 0.92116 0.0
C774 C 0.4523 0.92067 0.89937 0.0
H775 H 0.4405 0.8215 0.93455 0.0
H776 H 0.45713 0.85304 0.94129 0.0
H777 H 0.42908 0.84328 0.97863 0.0
H778 H 0.42115 0.89041 0.99332 0.0
H779 H 0.44577 0.9249 0.03175 0.0
H780 H 0.47728 0.06996 0.06435 0.0
H781 H 0.44669 0.10536 0.08969 0.0
H782 H 0.38474 0.04677 0.11881 0.0
H783 H 0.41514 0.01133 0.09264 0.0
H784 H 0.38793 0.11541 0.05527 0.0
H785 H 0.39895 0.09121 0.24115 0.0
H786 H 0.42448 0.08297 0.19848 0.0
H787 H 0.39408 0.064 0.2035 0.0
C788 C 0.457 0.06471 0.07541 0.0
C789 C 0.44828 0.03802 0.07531 0.0
C790 C 0.43962 0.08491 0.09009 0.0
C791 C 0.41347 0.07865 0.10595 0.0
C792 C 0.40484 0.05198 0.10652 0.0
H793 H 0.27698 0.17972 0.17733 0.0
H794 H 0.30673 0.14575 0.14482 0.0
C795 C 0.42216 0.03181 0.0916 0.0
C796 C 0.39541 0.09989 0.12313 0.0
H797 H 0.36848 0.12535 0.22164 0.0
C798 C 0.38364 0.11763 0.09158 0.0
C799 C 0.39 0.10274 0.17055 0.0
C800 C 0.40256 0.08438 0.20566 0.0
C801 C 0.36638 0.13811 0.1063 0.0
C802 C 0.36074 0.14079 0.15375 0.0
C803 C 0.37274 0.12317 0.18528 0.0
C804 C 0.34278 0.16203 0.17156 0.0
C805 C 0.35459 0.15699 0.07114 0.0
C806 C 0.35316 0.18244 0.19737 0.0
C807 C 0.33628 0.20199 0.21569 0.0
C808 C 0.30852 0.20127 0.20938 0.0
C809 C 0.29821 0.18092 0.183 0.0
C810 C 0.31519 0.16149 0.16429 0.0
H811 H 0.36468 0.15531 0.0368 0.0
H812 H 0.33306 0.15231 0.06813 0.0
H813 H 0.35612 0.17798 0.08194 0.0
H814 H 0.3744 0.18327 0.20331 0.0
H815 H 0.34506 0.21764 0.23489 0.0
H816 H 0.97949 0.93649 0.57382 0.0
H817 H 0.94937 0.89945 0.59874 0.0
H818 H 0.88334 0.95482 0.60695 0.0
H819 H 0.91289 0.99112 0.5796 0.0
H820 H 0.92177 0.88846 0.67329 0.0
H821 H 0.84753 0.89944 0.53987 0.0
H822 H 0.87828 0.91813 0.53665 0.0
H823 H 0.84963 0.93016 0.5691 0.0
C824 C 0.95837 0.94049 0.57964 0.0
C825 C 0.94838 0.96658 0.57297 0.0
C826 C 0.94115 0.91936 0.59443 0.0
C827 C 0.91362 0.9239 0.60359 0.0
C828 C 0.90404 0.95022 0.59836 0.0
H829 H 0.77124 0.84726 0.71862 0.0
H830 H 0.80749 0.87637 0.68877 0.0
C831 C 0.92108 0.97114 0.58306 0.0
C832 C 0.89511 0.90175 0.62104 0.0
H833 H 0.8324 0.87595 0.60955 0.0
C834 C 0.90235 0.88554 0.65892 0.0
C835 C 0.86975 0.89738 0.60233 0.0
C836 C 0.86101 0.91203 0.55944 0.0
C837 C 0.8846 0.86644 0.67998 0.0
C838 C 0.85862 0.86322 0.66287 0.0
C839 C 0.85192 0.87861 0.62373 0.0
C840 C 0.83748 0.84516 0.68551 0.0
C841 C 0.89368 0.8507 0.7214 0.0
C842 C 0.8419 0.81768 0.69476 0.0
C843 C 0.82108 0.801 0.71287 0.0
C844 C 0.79527 0.81135 0.72172 0.0
C845 C 0.79095 0.83873 0.71271 0.0
C846 C 0.81173 0.85539 0.69535 0.0
H847 H 0.91035 0.86076 0.73807 0.0
H848 H 0.87699 0.84771 0.74686 0.0
H849 H 0.90088 0.8308 0.71076 0.0
H850 H 0.86117 0.80885 0.68656 0.0
H851 H 0.82491 0.77985 0.7183 0.0
H852 H 0.92838 0.0267 0.42807 0.0
H853 H 0.89472 0.05609 0.39424 0.0
H854 H 0.93182 0.12432 0.4516 0.0
H855 H 0.9661 0.09529 0.48432 0.0
H856 H 0.86993 0.11406 0.46755 0.0
H857 H 0.90979 0.1176 0.28671 0.0
H858 H 0.90906 0.08582 0.31775 0.0
H859 H 0.93114 0.11157 0.33458 0.0
C860 C 0.92954 0.04796 0.43337 0.0
C861 C 0.94977 0.05852 0.45974 0.0
C862 C 0.91026 0.06472 0.41394 0.0
C863 C 0.91077 0.09234 0.42052 0.0
C864 C 0.93102 0.10302 0.4463 0.0
H865 H 0.8182 0.22697 0.32037 0.0
H866 H 0.85341 0.19643 0.34543 0.0
C867 C 0.95049 0.08634 0.4653 0.0
C868 C 0.88975 0.10998 0.40149 0.0
H869 H 0.86893 0.13989 0.30202 0.0
C870 C 0.86965 0.11967 0.43138 0.0
C871 C 0.88956 0.11733 0.35433 0.0
C872 C 0.91105 0.10773 0.32122 0.0
C873 C 0.84918 0.13636 0.41517 0.0
C874 C 0.84889 0.14356 0.36798 0.0
C875 C 0.86913 0.13411 0.33813 0.0
C876 C 0.82797 0.16148 0.34951 0.0
C877 C 0.82807 0.1465 0.44852 0.0
C878 C 0.80209 0.15186 0.34301 0.0
C879 C 0.78201 0.16923 0.32796 0.0
C880 C 0.78756 0.19643 0.31885 0.0
C881 C 0.8135 0.20598 0.32559 0.0
C882 C 0.83361 0.18859 0.34025 0.0
H883 H 0.8325 0.14114 0.48467 0.0
H884 H 0.82634 0.16857 0.44462 0.0
H885 H 0.80837 0.13784 0.44087 0.0
H886 H 0.79735 0.131 0.35024 0.0
H887 H 0.76205 0.16148 0.32388 0.0
H888 H 0.71447 0.21856 0.14862 0.0
H889 H 0.68132 0.19211 0.11067 0.0
H890 H 0.64597 0.16749 0.24243 0.0
H891 H 0.67891 0.19399 0.28039 0.0
H892 H 0.67316 0.13862 0.11891 0.0
H893 H 0.58109 0.19247 0.17366 0.0
H894 H 0.61415 0.20616 0.17917 0.0
H895 H 0.60089 0.18193 0.22094 0.0
C896 C 0.69958 0.20753 0.16946 0.0
C897 C 0.69898 0.20855 0.21748 0.0
C898 C 0.68063 0.19258 0.14775 0.0
C899 C 0.66089 0.1784 0.17377 0.0
C900 C 0.66053 0.17903 0.22174 0.0
H901 H 0.55321 0.05148 0.13047 0.0
H902 H 0.58289 0.08533 0.15923 0.0
C903 C 0.67935 0.19415 0.24343 0.0
C904 C 0.64163 0.16164 0.1509 0.0
H905 H 0.57497 0.14913 0.14296 0.0
C906 C 0.65169 0.14113 0.1236 0.0
C907 C 0.61367 0.16514 0.15708 0.0
C908 C 0.6018 0.18779 0.18393 0.0
C909 C 0.63445 0.12332 0.10362 0.0
C910 C 0.60661 0.12624 0.11127 0.0
C911 C 0.59645 0.14708 0.13754 0.0
C912 C 0.58786 0.10686 0.09404 0.0
C913 C 0.64594 0.10096 0.07564 0.0
C914 C 0.58095 0.10812 0.04804 0.0
C915 C 0.56406 0.08883 0.03152 0.0
C916 C 0.55399 0.06812 0.06082 0.0
C917 C 0.56086 0.06713 0.10703 0.0
C918 C 0.5776 0.08647 0.12358 0.0
H919 H 0.66816 0.1006 0.07508 0.0
H920 H 0.63828 0.08142 0.0897 0.0
H921 H 0.63936 0.1033 0.03985 0.0
H922 H 0.58894 0.12376 0.0249 0.0
H923 H 0.55963 0.08973 0.99568 0.0
H924 H 0.73234 0.83265 0.86716 0.0
H925 H 0.70196 0.86643 0.89825 0.0
H926 H 0.63601 0.83033 0.83252 0.0
H927 H 0.66599 0.79598 0.80235 0.0
H928 H 0.64465 0.89005 0.81785 0.0
H929 H 0.63918 0.85381 1.00027 0.0
H930 H 0.67186 0.85579 0.97223 0.0
H931 H 0.64798 0.83213 0.95381 0.0
C932 C 0.71137 0.83173 0.85942 0.0
C933 C 0.70176 0.81175 0.83149 0.0
C934 C 0.69403 0.85107 0.87735 0.0
C935 C 0.66676 0.85085 0.86771 0.0
C936 C 0.65702 0.83088 0.84024 0.0
H937 H 0.53239 0.9437 0.97267 0.0
H938 H 0.56278 0.90818 0.9479 0.0
C939 C 0.67427 0.81137 0.8227 0.0
C940 C 0.64856 0.87195 0.88513 0.0
H941 H 0.6177 0.89476 0.98263 0.0
C942 C 0.63877 0.89113 0.85386 0.0
C943 C 0.64079 0.87314 0.93207 0.0
C944 C 0.65028 0.85258 0.96673 0.0
C945 C 0.62169 0.91175 0.86845 0.0
C946 C 0.61426 0.9132 0.91549 0.0
C947 C 0.62367 0.89375 0.94667 0.0
C948 C 0.59635 0.9346 0.93265 0.0
C949 C 0.61141 0.93169 0.83344 0.0
C950 C 0.60524 0.96119 0.93272 0.0
C951 C 0.58798 0.98148 0.94746 0.0
C952 C 0.56168 0.97546 0.96295 0.0
C953 C 0.55278 0.94884 0.96242 0.0
C954 C 0.57007 0.92855 0.94795 0.0
H955 H 0.61527 0.9252 0.7978 0.0
H956 H 0.58956 0.93484 0.83914 0.0
H957 H 0.6215 0.95119 0.83715 0.0
H958 H 0.62548 0.96626 0.92107 0.0
H959 H 0.59517 1.0019 0.94676 0.0
H960 H 0.5312 0.57373 0.9615 0.0
H961 H 0.56113 0.61028 0.93343 0.0
H962 H 0.62761 0.55537 0.93041 0.0
H963 H 0.5979 0.51906 0.95835 0.0
H964 H 0.6089 0.63178 0.96819 0.0
H965 H 0.62944 0.58741 0.79952 0.0
H966 H 0.60224 0.57626 0.83786 0.0
H967 H 0.63579 0.56471 0.84676 0.0
C968 C 0.55228 0.5696 0.95546 0.0
C969 C 0.56229 0.54357 0.96289 0.0
C970 C 0.56936 0.59047 0.93913 0.0
C971 C 0.59667 0.58561 0.92902 0.0
C972 C 0.60661 0.55966 0.93707 0.0
H973 H 0.74229 0.66455 0.83608 0.0
H974 H 0.70555 0.63469 0.86173 0.0
C975 C 0.58963 0.53891 0.95334 0.0
C976 C 0.61491 0.60728 0.90962 0.0
H977 H 0.65868 0.62246 0.81944 0.0
C978 C 0.61956 0.6299 0.93544 0.0
C979 C 0.62877 0.60507 0.86665 0.0
C980 C 0.62365 0.5822 0.83583 0.0
C981 C 0.6386 0.64952 0.92063 0.0
C982 C 0.65315 0.64676 0.87839 0.0
C983 C 0.64778 0.6246 0.85192 0.0
C984 C 0.67521 0.66554 0.8623 0.0
C985 C 0.6438 0.67243 0.95129 0.0
C986 C 0.67058 0.69298 0.85346 0.0
C987 C 0.6917 0.71013 0.83849 0.0
C988 C 0.7178 0.70013 0.83147 0.0
C989 C 0.72235 0.67277 0.84053 0.0
C990 C 0.70132 0.65568 0.85524 0.0
H991 H 0.63526 0.66867 0.98659 0.0
H992 H 0.66561 0.67614 0.95318 0.0
H993 H 0.63443 0.69082 0.93694 0.0
H994 H 0.65062 0.70113 0.85785 0.0
H995 H 0.68765 0.73121 0.83276 0.0
H996 H 0.74581 0.35029 0.21491 0.0
H997 H 0.70953 0.3787 0.18668 0.0
H998 H 0.65403 0.31334 0.20871 0.0
H999 H 0.69043 0.28459 0.23605 0.0
H1000 H 0.67224 0.35766 0.10644 0.0
H1001 H 0.62283 0.38822 0.27071 0.0
H1002 H 0.65851 0.38263 0.26586 0.0
H1003 H 0.63593 0.35482 0.26512 0.0
C1004 C 0.72579 0.3421 0.2143 0.0
C1005 C 0.72086 0.31538 0.22837 0.0
C1006 C 0.70513 0.35831 0.19812 0.0
C1007 C 0.67913 0.34813 0.19572 0.0
C1008 C 0.67395 0.3216 0.21056 0.0
H1009 H 0.54409 0.41543 0.0486 0.0
H1010 H 0.5773 0.38531 0.0817 0.0
C1011 C 0.6947 0.30528 0.22645 0.0
C1012 C 0.65786 0.36492 0.17523 0.0
H1013 H 0.60525 0.40577 0.20247 0.0
C1014 C 0.65746 0.36805 0.12734 0.0
C1015 C 0.63879 0.37856 0.2026 0.0
C1016 C 0.63881 0.37607 0.25405 0.0
C1017 C 0.63847 0.38462 0.10613 0.0
C1018 C 0.61938 0.39831 0.13359 0.0
C1019 C 0.61982 0.39516 0.18149 0.0
C1020 C 0.59922 0.41655 0.11325 0.0
C1021 C 0.63932 0.3879 0.05457 0.0
C1022 C 0.60025 0.44408 0.12057 0.0
C1023 C 0.58147 0.46144 0.10124 0.0
C1024 C 0.56112 0.45158 0.0744 0.0
C1025 C 0.55984 0.42386 0.06801 0.0
C1026 C 0.57876 0.40655 0.08707 0.0
H1027 H 0.65816 0.37996 0.03888 0.0
H1028 H 0.62228 0.37693 0.04082 0.0
H1029 H 0.63732 0.4093 0.04393 0.0
H1030 H 0.61579 0.45219 0.1409 0.0
H1031 H 0.58304 0.4826 0.10719 0.0
H1032 H 0.9323 0.47762 0.4409 0.0
H1033 H 0.90319 0.44319 0.41289 0.0
H1034 H 0.95395 0.38186 0.46999 0.0
H1035 H 0.9835 0.4161 0.49769 0.0
H1036 H 0.91964 0.39966 0.35289 0.0
H1037 H 0.87588 0.36583 0.5234 0.0
H1038 H 0.89206 0.39791 0.51404 0.0
H1039 H 0.91178 0.36801 0.51742 0.0
C1040 C 0.93733 0.45684 0.44754 0.0
C1041 C 0.95997 0.44957 0.47214 0.0
C1042 C 0.92068 0.43725 0.43153 0.0
C1043 C 0.92639 0.41018 0.44002 0.0
C1044 C 0.94913 0.40276 0.46389 0.0
H1045 H 0.84718 0.27969 0.3104 0.0
H1046 H 0.8809 0.30793 0.34279 0.0
C1047 C 0.96587 0.42233 0.47978 0.0
C1048 C 0.9085 0.38978 0.42333 0.0
H1049 H 0.86123 0.34385 0.45874 0.0
C1050 C 0.90697 0.38728 0.37589 0.0
C1051 C 0.89206 0.37395 0.45378 0.0
C1052 C 0.89277 0.37653 0.50504 0.0
C1053 C 0.88899 0.36942 0.35786 0.0
C1054 C 0.87243 0.35369 0.38831 0.0
C1055 C 0.87417 0.35596 0.43577 0.0
C1056 C 0.85218 0.33576 0.37123 0.0
C1057 C 0.88724 0.36802 0.30651 0.0
C1058 C 0.82499 0.34188 0.37772 0.0
C1059 C 0.80567 0.32595 0.35901 0.0
C1060 C 0.81338 0.30372 0.33359 0.0
C1061 C 0.84066 0.29712 0.32874 0.0
C1062 C 0.85994 0.31309 0.34737 0.0
H1063 H 0.89806 0.38478 0.28808 0.0
H1064 H 0.89622 0.34898 0.29506 0.0
H1065 H 0.86603 0.36837 0.29655 0.0
H1066 H 0.81878 0.35933 0.39633 0.0
H1067 H 0.78482 0.33138 0.36372 0.0
H1068 H 0.77885 0.67732 0.69 0.0
H1069 H 0.80908 0.64378 0.65782 0.0
H1070 H 0.87615 0.68236 0.71624 0.0
H1071 H 0.84623 0.7164 0.74769 0.0
H1072 H 0.85585 0.65406 0.59626 0.0
H1073 H 0.88095 0.60147 0.75993 0.0
H1074 H 0.85154 0.62219 0.75462 0.0
H1075 H 0.88386 0.63733 0.75803 0.0
C1076 C 0.80001 0.67873 0.69615 0.0
C1077 C 0.80999 0.6994 0.7222 0.0
C1078 C 0.81726 0.65948 0.67774 0.0
C1079 C 0.84478 0.66033 0.68527 0.0
C1080 C 0.85489 0.68103 0.71079 0.0
H1081 H 0.97852 0.57393 0.56015 0.0
H1082 H 0.94762 0.60856 0.58688 0.0
C1083 C 0.8377 0.70044 0.7289 0.0
C1084 C 0.86298 0.64001 0.66513 0.0
H1085 H 0.90389 0.58751 0.6925 0.0
C1086 C 0.86639 0.63954 0.61728 0.0
C1087 C 0.87657 0.62099 0.69266 0.0
C1088 C 0.87302 0.62024 0.74418 0.0
C1089 C 0.88326 0.62071 0.59626 0.0
C1090 C 0.89698 0.6018 0.62365 0.0
C1091 C 0.89342 0.60211 0.67154 0.0
C1092 C 0.91487 0.58128 0.6032 0.0
C1093 C 0.88602 0.62077 0.54487 0.0
C1094 C 0.9066 0.55452 0.60279 0.0
C1095 C 0.92407 0.53477 0.5866 0.0
C1096 C 0.95017 0.54137 0.57057 0.0
C1097 C 0.95833 0.56825 0.57072 0.0
C1098 C 0.94074 0.58806 0.58644 0.0
H1099 H 0.87261 0.63556 0.52819 0.0
H1100 H 0.90701 0.62562 0.53404 0.0
H1101 H 0.88133 0.60056 0.5329 0.0
H1102 H 0.88677 0.54885 0.6158 0.0
H1103 H 0.9174 0.51417 0.58766 0.0
H1104 H 0.32518 0.28242 0.21767 0.0
H1105 H 0.36224 0.31265 0.19351 0.0
H1106 H 0.30685 0.3787 0.18778 0.0
H1107 H 0.27043 0.34895 0.2142 0.0
H1108 H 0.37254 0.34066 0.11877 0.0
H1109 H 0.36311 0.41383 0.25473 0.0
H1110 H 0.34497 0.38274 0.25813 0.0
H1111 H 0.33192 0.41132 0.22706 0.0
C1112 C 0.32116 0.30355 0.21263 0.0
C1113 C 0.29502 0.31346 0.21957 0.0
C1114 C 0.34231 0.32084 0.19826 0.0
C1115 C 0.33776 0.34837 0.18986 0.0
C1116 C 0.31143 0.35795 0.19571 0.0
H1117 H 0.41399 0.49073 0.07484 0.0
H1118 H 0.38495 0.4545 0.10501 0.0
C1119 C 0.29046 0.34081 0.2105 0.0
C1120 C 0.35989 0.36687 0.17231 0.0
H1121 H 0.38614 0.42926 0.18486 0.0
C1122 C 0.37572 0.35989 0.13366 0.0
C1123 C 0.36459 0.39198 0.19171 0.0
C1124 C 0.35043 0.40025 0.23549 0.0
C1125 C 0.39474 0.37769 0.11255 0.0
C1126 C 0.39825 0.40345 0.13035 0.0
C1127 C 0.38325 0.4099 0.1702 0.0
C1128 C 0.41624 0.42461 0.1077 0.0
C1129 C 0.41008 0.36897 0.07031 0.0
C1130 C 0.44374 0.42021 0.0981 0.0
C1131 C 0.46039 0.44103 0.07997 0.0
C1132 C 0.44999 0.46679 0.0713 0.0
C1133 C 0.42257 0.47107 0.08058 0.0
C1134 C 0.40594 0.4503 0.09811 0.0
H1135 H 0.4 0.35226 0.05377 0.0
H1136 H 0.41252 0.3858 0.0451 0.0
H1137 H 0.43026 0.36203 0.07987 0.0
H1138 H 0.4526 0.40096 0.10607 0.0
H1139 H 0.48156 0.43722 0.07437 0.0
H1140 H 0.42965 0.52932 0.9255 0.0
H1141 H 0.39604 0.55974 0.89421 0.0
H1142 H 0.43259 0.62574 0.95918 0.0
H1143 H 0.46672 0.59574 0.98951 0.0
H1144 H 0.37325 0.61783 0.97485 0.0
H1145 H 0.40817 0.62166 0.79154 0.0
H1146 H 0.4059 0.58918 0.81993 0.0
H1147 H 0.43009 0.61279 0.83746 0.0
C1148 C 0.43071 0.55032 0.93298 0.0
C1149 C 0.45072 0.55994 0.96081 0.0
C1150 C 0.41148 0.56768 0.91493 0.0
C1151 C 0.41186 0.59497 0.92434 0.0
C1152 C 0.43191 0.60472 0.95162 0.0
H1153 H 0.31918 0.72935 0.81974 0.0
H1154 H 0.35484 0.69873 0.84288 0.0
C1155 C 0.45129 0.58745 0.96927 0.0
C1156 C 0.39077 0.61322 0.90718 0.0
H1157 H 0.36752 0.64368 0.80999 0.0
C1158 C 0.37194 0.62345 0.93882 0.0
C1159 C 0.38929 0.62068 0.86021 0.0
C1160 C 0.40949 0.61072 0.82513 0.0
C1161 C 0.35141 0.64067 0.92462 0.0
C1162 C 0.34964 0.64778 0.87755 0.0
C1163 C 0.36875 0.63794 0.84597 0.0
C1164 C 0.32818 0.66571 0.8608 0.0
C1165 C 0.3319 0.65144 0.96009 0.0
C1166 C 0.30142 0.65718 0.86261 0.0
C1167 C 0.28106 0.67455 0.84885 0.0
C1168 C 0.28715 0.70062 0.83243 0.0
C1169 C 0.31395 0.70913 0.83078 0.0
C1170 C 0.33433 0.69172 0.84431 0.0
H1171 H 0.33889 0.64809 0.99548 0.0
H1172 H 0.32866 0.67319 0.9538 0.0
H1173 H 0.31233 0.64125 0.95769 0.0
H1174 H 0.29628 0.63715 0.87513 0.0
H1175 H 0.26051 0.66766 0.85116 0.0
H1176 H 0.21702 0.68239 0.70153 0.0
H1177 H 0.18067 0.65799 0.66879 0.0
H1178 H 0.12292 0.70974 0.73414 0.0
H1179 H 0.1592 0.73472 0.7668 0.0
H1180 H 0.11305 0.6513 0.74288 0.0
H1181 H 0.13287 0.68965 0.56436 0.0
H1182 H 0.1622 0.67793 0.59257 0.0
H1183 H 0.14441 0.70648 0.6137 0.0
C1184 C 0.19664 0.68864 0.70912 0.0
C1185 C 0.191 0.71049 0.73684 0.0
C1186 C 0.17594 0.67473 0.69023 0.0
C1187 C 0.14934 0.68244 0.69867 0.0
C1188 C 0.14346 0.70373 0.72719 0.0
H1189 H 0.02879 0.60309 0.5419 0.0
H1190 H 0.05188 0.63829 0.58062 0.0
C1191 C 0.1642 0.71782 0.74598 0.0
C1192 C 0.12785 0.66776 0.67772 0.0
H1193 H 0.10694 0.64944 0.57378 0.0
C1194 C 0.11127 0.65119 0.70598 0.0
C1195 C 0.12545 0.66816 0.62971 0.0
C1196 C 0.142 0.6867 0.59826 0.0
C1197 C 0.09346 0.63347 0.68703 0.0
C1198 C 0.09268 0.63231 0.63884 0.0
C1199 C 0.1079 0.65024 0.61075 0.0
C1200 C 0.07804 0.61114 0.61681 0.0
C1201 C 0.07621 0.61565 0.71859 0.0
C1202 C 0.08561 0.58439 0.62382 0.0
C1203 C 0.07273 0.56426 0.60145 0.0
C1204 C 0.05217 0.57063 0.57151 0.0
C1205 C 0.04476 0.59753 0.56434 0.0
C1206 C 0.05774 0.61766 0.58667 0.0
H1207 H 0.07315 0.62436 0.75288 0.0
H1208 H 0.05639 0.61219 0.70397 0.0
H1209 H 0.08626 0.59603 0.72335 0.0
H1210 H 0.10173 0.57914 0.6462 0.0
H1211 H 0.07895 0.54376 0.60762 0.0
H1212 H 0.2356 0.33367 0.36254 0.0
H1213 H 0.206 0.36765 0.39547 0.0
H1214 H 0.13788 0.32951 0.33967 0.0
H1215 H 0.16706 0.29497 0.30796 0.0
H1216 H 0.14874 0.39118 0.32079 0.0
H1217 H 0.14328 0.35429 0.50305 0.0
H1218 H 0.17527 0.35422 0.47236 0.0
H1219 H 0.14941 0.33207 0.45627 0.0
C1220 C 0.21431 0.33234 0.3575 0.0
C1221 C 0.20381 0.31178 0.33177 0.0
C1222 C 0.19744 0.35179 0.37639 0.0
C1223 C 0.1698 0.35109 0.36989 0.0
C1224 C 0.15918 0.33044 0.34491 0.0
H1225 H 0.03571 0.44542 0.47164 0.0
H1226 H 0.0659 0.40951 0.44768 0.0
C1227 C 0.17597 0.31083 0.32646 0.0
C1228 C 0.15205 0.37243 0.38769 0.0
H1229 H 0.12092 0.39467 0.48537 0.0
C1230 C 0.14271 0.39204 0.35677 0.0
C1231 C 0.1441 0.37329 0.43457 0.0
C1232 C 0.15334 0.35235 0.46875 0.0
C1233 C 0.12581 0.41272 0.37165 0.0
C1234 C 0.11808 0.41378 0.41863 0.0
C1235 C 0.1271 0.39394 0.44947 0.0
C1236 C 0.10033 0.43527 0.43597 0.0
C1237 C 0.116 0.43316 0.33703 0.0
C1238 C 0.10977 0.46159 0.43781 0.0
C1239 C 0.09263 0.48208 0.4521 0.0
C1240 C 0.06586 0.47654 0.4653 0.0
C1241 C 0.05643 0.45018 0.46317 0.0
C1242 C 0.07361 0.42966 0.44917 0.0
H1243 H 0.12036 0.4272 0.30122 0.0
H1244 H 0.0941 0.43621 0.34201 0.0
H1245 H 0.12597 0.45258 0.34202 0.0
H1246 H 0.13034 0.46631 0.42771 0.0
H1247 H 0.10025 0.5023 0.45267 0.0
H1248 H 0.0489 0.05954 0.84816 0.0
H1249 H 0.04541 0.0458 0.92924 0.0
H1250 H 0.97449 1.00034 0.90495 0.0
H1251 H 0.97753 0.0145 0.82363 0.0
H1252 H 0.96916 0.03459 0.98008 0.0
H1253 H 0.0611 0.97283 0.99066 0.0
H1254 H 0.06643 0.00569 0.96538 0.0
H1255 H 0.04643 0.98204 0.93683 0.0
C1256 C 0.03258 0.04654 0.85998 0.0
C1257 C 0.01343 0.03818 0.82938 0.0
C1258 C 0.03077 0.03851 0.90631 0.0
C1259 C 0.00986 0.02182 0.92313 0.0
C1260 C 0.99088 0.01312 0.89265 0.0
H1261 H 0.95773 0.95872 0.19205 0.0
H1262 H 0.96179 0.97289 0.11131 0.0
C1263 C 0.99274 0.02107 0.84614 0.0
C1264 C 0.00713 0.01458 0.9729 0.0
H1265 H 0.03902 0.98325 0.0612 0.0
C1266 C 0.98435 0.02323 0.99779 0.0
C1267 C 0.02708 0.99996 0.99605 0.0
C1268 C 0.05155 0.98936 0.97087 0.0
C1269 C 0.98114 0.01798 0.04528 0.0
C1270 C 1.00102 1.00324 0.06841 0.0
C1271 C 0.02385 0.99466 0.04353 0.0
C1272 C 0.99809 0.99566 0.11805 0.0
C1273 C 0.95673 0.02877 0.0704 0.0
C1274 C 0.01733 1.00343 0.14881 0.0
C1275 C 0.01519 0.99512 0.19514 0.0
C1276 C 0.99392 0.97861 0.21147 0.0
C1277 C 0.97451 0.97121 0.1806 0.0
C1278 C 0.97664 0.97953 0.13444 0.0
H1279 H 0.94773 0.0458 0.05106 0.0
H1280 H 0.94144 0.01276 0.07474 0.0
H1281 H 0.9617 0.03546 0.10493 0.0
H1282 H 0.03415 0.01575 0.13686 0.0
H1283 H 0.03062 1.00095 0.21785 0.0
H1284 H 0.26849 0.77433 0.47478 0.0
H1285 H 0.25756 0.78427 0.39476 0.0
H1286 H 0.27288 0.70213 0.36245 0.0
H1287 H 0.28311 0.69193 0.44222 0.0
H1288 H 0.29154 0.77838 0.31702 0.0
H1289 H 0.2006 0.716 0.30598 0.0
H1290 H 0.21413 0.72455 0.36001 0.0
H1291 H 0.2289 0.69811 0.32743 0.0
C1292 C 0.26903 0.75829 0.45081 0.0
C1293 C 0.27672 0.73235 0.46496 0.0
C1294 C 0.26296 0.76404 0.40502 0.0
C1295 C 0.26414 0.7439 0.37263 0.0
C1296 C 0.2714 0.71792 0.38686 0.0
H1297 H 0.24174 0.73833 0.07778 0.0
H1298 H 0.25315 0.72808 0.1575 0.0
C1299 C 0.27751 0.71219 0.43247 0.0
C1300 C 0.25905 0.75018 0.32354 0.0
H1301 H 0.21967 0.73372 0.2356 0.0
C1302 C 0.27571 0.76875 0.29929 0.0
C1303 C 0.23854 0.73745 0.30027 0.0
C1304 C 0.21935 0.71809 0.32479 0.0
C1305 C 0.2727 0.77462 0.25233 0.0
C1306 C 0.25215 0.76193 0.22909 0.0
C1307 C 0.23551 0.74333 0.25332 0.0
C1308 C 0.24689 0.7684 0.18011 0.0
C1309 C 0.29191 0.79396 0.22781 0.0
C1310 C 0.23968 0.79445 0.16625 0.0
C1311 C 0.2333 0.80036 0.12083 0.0
C1312 C 0.23376 0.78031 0.08816 0.0
C1313 C 0.24145 0.75429 0.1019 0.0
C1314 C 0.24778 0.74837 0.14752 0.0
H1315 H 0.31074 0.79586 0.24645 0.0
H1316 H 0.29697 0.78762 0.19246 0.0
H1317 H 0.28247 0.81401 0.22552 0.0
H1318 H 0.23841 0.81016 0.19083 0.0
H1319 H 0.22773 0.82067 0.11137 0.0
H1320 H 0.52586 0.02326 0.71508 0.0
H1321 H 0.53468 0.01163 0.63498 0.0
H1322 H 0.45249 0.0287 0.60539 0.0
H1323 H 0.44349 0.04018 0.6851 0.0
H1324 H 0.51077 0.97313 0.58132 0.0
H1325 H 0.49399 0.0756 0.50956 0.0
H1326 H 0.49857 0.06872 0.56982 0.0
H1327 H 0.46676 0.06264 0.54547 0.0
C1328 C 0.50961 0.02429 0.69162 0.0
C1329 C 0.48404 0.03298 0.70645 0.0
C1330 C 0.51471 0.01777 0.6458 0.0
C1331 C 0.4944 0.01989 0.61393 0.0
C1332 C 0.46866 0.02763 0.62901 0.0
H1333 H 0.48374 0.99196 0.32205 0.0
H1334 H 0.47522 1.00385 0.40213 0.0
C1335 C 0.46356 0.03416 0.67467 0.0
C1336 C 0.49996 0.01386 0.56496 0.0
H1337 H 0.49895 0.04113 0.45608 0.0
C1338 C 0.50834 0.98802 0.55394 0.0
C1339 C 0.49667 0.0333 0.52923 0.0
C1340 C 0.48874 0.0617 0.53898 0.0
C1341 C 0.51301 0.98093 0.50816 0.0
C1342 C 0.50976 1.00038 0.47239 0.0
C1343 C 0.50139 0.02623 0.48344 0.0
C1344 C 0.51522 0.99432 0.42338 0.0
C1345 C 0.52075 0.95246 0.49849 0.0
C1346 C 0.54072 0.98581 0.40836 0.0
C1347 C 0.54561 0.97905 0.36276 0.0
C1348 C 0.52518 0.98086 0.33095 0.0
C1349 C 0.49992 0.99043 0.34561 0.0
C1350 C 0.495 0.9971 0.3914 0.0
H1351 H 0.5151 0.93859 0.52776 0.0
H1352 H 0.51112 0.94555 0.46737 0.0
H1353 H 0.54276 0.95129 0.49264 0.0
H1354 H 0.55686 0.98427 0.432 0.0
H1355 H 0.56545 0.97231 0.3524 0.0
H1356 H 0.18805 0.27421 0.93849 0.0
H1357 H 0.20226 0.27575 0.8575 0.0
H1358 H 0.27483 0.23389 0.89033 0.0
H1359 H 0.26035 0.23154 0.97152 0.0
H1360 H 0.24726 0.2978 0.81269 0.0
H1361 H 0.24418 0.18806 0.79156 0.0
H1362 H 0.22933 0.20381 0.84105 0.0
H1363 H 0.26487 0.19849 0.83659 0.0
C1364 C 0.20697 0.26515 0.92853 0.0
C1365 C 0.22289 0.25244 0.96155 0.0
C1366 C 0.21514 0.2662 0.88218 0.0
C1367 C 0.23936 0.25449 0.86763 0.0
C1368 C 0.25578 0.24257 0.9006 0.0
H1369 H 0.32134 0.23853 0.6032 0.0
H1370 H 0.30666 0.23666 0.68398 0.0
C1371 C 0.24763 0.24153 0.9471 0.0
C1372 C 0.24726 0.25481 0.81795 0.0
H1373 H 0.26141 0.21434 0.72824 0.0
C1374 C 0.25027 0.27956 0.79418 0.0
C1375 C 0.25111 0.23099 0.79375 0.0
C1376 C 0.24699 0.20381 0.81684 0.0
C1377 C 0.25753 0.28115 0.74717 0.0
C1378 C 0.2614 0.25733 0.72299 0.0
C1379 C 0.25837 0.23258 0.74674 0.0
C1380 C 0.26947 0.25767 0.67338 0.0
C1381 C 0.26166 0.30833 0.72406 0.0
C1382 C 0.25314 0.26952 0.64022 0.0
C1383 C 0.26155 0.27073 0.59384 0.0
C1384 C 0.28646 0.26008 0.57974 0.0
C1385 C 0.30227 0.24738 0.61292 0.0
C1386 C 0.29385 0.24615 0.65914 0.0
H1387 H 0.26428 0.32412 0.74933 0.0
H1388 H 0.27944 0.30836 0.70011 0.0
H1389 H 0.24387 0.31355 0.70402 0.0
H1390 H 0.23398 0.27806 0.65026 0.0
H1391 H 0.24891 0.2807 0.56926 0.0
H1392 H 0.76699 0.28244 0.96744 0.0
H1393 H 0.75284 0.2818 0.88774 0.0
H1394 H 0.79851 0.20979 0.86731 0.0
H1395 H 0.81236 0.21011 0.94654 0.0
H1396 H 0.78747 0.28283 0.80678 0.0
H1397 H 0.72446 0.1918 0.81937 0.0
H1398 H 0.73357 0.20977 0.86905 0.0
H1399 H 0.75682 0.18689 0.8429 0.0
C1400 C 0.77363 0.26627 0.94609 0.0
C1401 C 0.79082 0.24634 0.96323 0.0
C1402 C 0.76567 0.26602 0.90056 0.0
C1403 C 0.77442 0.24561 0.87174 0.0
C1404 C 0.79121 0.22552 0.88908 0.0
H1405 H 0.77767 0.195 0.5972 0.0
H1406 H 0.78251 0.20357 0.67825 0.0
C1407 C 0.79928 0.22585 0.93428 0.0
C1408 C 0.76717 0.24561 0.82291 0.0
H1409 H 0.73967 0.20632 0.74386 0.0
C1410 C 0.77663 0.26636 0.79301 0.0
C1411 C 0.75296 0.22414 0.80511 0.0
C1412 C 0.74113 0.20201 0.83582 0.0
C1413 C 0.77356 0.26541 0.74539 0.0
C1414 C 0.7604 0.24329 0.72744 0.0
C1415 C 0.74996 0.22315 0.75762 0.0
C1416 C 0.75861 0.23962 0.67738 0.0
C1417 C 0.7855 0.28737 0.71446 0.0
C1418 C 0.74381 0.25725 0.64972 0.0
C1419 C 0.74096 0.25235 0.60316 0.0
C1420 C 0.75269 0.22962 0.58363 0.0
C1421 C 0.76805 0.21246 0.61129 0.0
C1422 C 0.7709 0.21737 0.65761 0.0
H1423 H 0.7992 0.30037 0.73286 0.0
H1424 H 0.79671 0.27884 0.68484 0.0
H1425 H 0.76918 0.30003 0.70086 0.0
H1426 H 0.73382 0.27433 0.6644 0.0
H1427 H 0.72877 0.26578 0.58291 0.0
H1428 H 0.68874 0.76677 0.44582 0.0
H1429 H 0.7026 0.77026 0.36471 0.0
H1430 H 0.77856 0.73441 0.39552 0.0
H1431 H 0.76452 0.73014 0.4768 0.0
H1432 H 0.74579 0.79624 0.31995 0.0
H1433 H 0.75092 0.68673 0.29627 0.0
H1434 H 0.73497 0.70103 0.34621 0.0
H1435 H 0.77082 0.69846 0.34139 0.0
C1436 C 0.70837 0.7595 0.43538 0.0
C1437 C 0.72539 0.74786 0.46779 0.0
C1438 C 0.71631 0.76165 0.38899 0.0
C1439 C 0.7414 0.75213 0.37387 0.0
C1440 C 0.75888 0.74139 0.40628 0.0
H1441 H 0.82338 0.74464 0.10801 0.0
H1442 H 0.80926 0.74101 0.18901 0.0
C1443 C 0.75095 0.73926 0.45281 0.0
C1444 C 0.74904 0.75336 0.32414 0.0
H1445 H 0.7658 0.71462 0.23329 0.0
C1446 C 0.75009 0.7784 0.30095 0.0
C1447 C 0.75455 0.73005 0.29935 0.0
C1448 C 0.75256 0.7025 0.32187 0.0
C1449 C 0.75701 0.78081 0.25389 0.0
C1450 C 0.76255 0.75749 0.22912 0.0
C1451 C 0.76149 0.73246 0.25229 0.0
C1452 C 0.77033 0.75875 0.17946 0.0
C1453 C 0.75896 0.80834 0.23132 0.0
C1454 C 0.75285 0.7693 0.14688 0.0
C1455 C 0.76091 0.7715 0.10042 0.0
C1456 C 0.78661 0.76315 0.0857 0.0
C1457 C 0.80364 0.75169 0.11828 0.0
C1458 C 0.79556 0.74947 0.16458 0.0
H1459 H 0.76038 0.82416 0.25689 0.0
H1460 H 0.77665 0.80987 0.20723 0.0
H1461 H 0.7408 0.81226 0.21148 0.0
H1462 H 0.73308 0.77611 0.15746 0.0
H1463 H 0.74735 0.78047 0.07628 0.0
H1464 H 0.48097 0.51271 0.71727 0.0
H1465 H 0.4841 0.52673 0.63588 0.0
H1466 H 0.52519 0.45345 0.60453 0.0
H1467 H 0.52212 0.43934 0.68546 0.0
H1468 H 0.52797 0.53403 0.57426 0.0
H1469 H 0.46245 0.45272 0.5192 0.0
H1470 H 0.46502 0.46096 0.57854 0.0
H1471 H 0.49051 0.44115 0.55089 0.0
C1472 C 0.49094 0.49974 0.69309 0.0
C1473 C 0.501 0.47476 0.70778 0.0
C1474 C 0.49259 0.50771 0.64657 0.0
C1475 C 0.50428 0.49084 0.61393 0.0
C1476 C 0.51538 0.46645 0.62884 0.0
H1477 H 0.53213 0.49958 0.31736 0.0
H1478 H 0.52896 0.48589 0.39887 0.0
C1479 C 0.51367 0.45845 0.67517 0.0
C1480 C 0.50487 0.49862 0.56428 0.0
H1481 H 0.48484 0.47875 0.46008 0.0
C1482 C 0.51841 0.52204 0.54932 0.0
C1483 C 0.49244 0.48291 0.53171 0.0
C1484 C 0.47657 0.45816 0.54583 0.0
C1485 C 0.52034 0.52989 0.50262 0.0
C1486 C 0.50795 0.51416 0.47005 0.0
C1487 C 0.49438 0.49075 0.48502 0.0
C1488 C 0.50867 0.52182 0.42035 0.0
C1489 C 0.53618 0.55466 0.48849 0.0
C1490 C 0.49756 0.54615 0.40514 0.0
C1491 C 0.49928 0.55395 0.35871 0.0
C1492 C 0.51199 0.53752 0.32631 0.0
C1493 C 0.52212 0.51264 0.34135 0.0
C1494 C 0.52045 0.50486 0.38795 0.0
H1495 H 0.5502 0.56021 0.51521 0.0
H1496 H 0.54783 0.55181 0.4559 0.0
H1497 H 0.5222 0.57162 0.48318 0.0
H1498 H 0.48769 0.55922 0.42927 0.0
H1499 H 0.49076 0.57299 0.34817 0.0
H1500 H 0.06612 0.46812 0.85217 0.0
H1501 H 0.05817 0.47972 0.9321 0.0
H1502 H 0.97949 0.50865 0.90068 0.0
H1503 H 0.98699 0.49633 0.82068 0.0
H1504 H 0.04612 0.52832 0.97092 0.0
H1505 H 0.9641 0.45512 1.00753 0.0
H1506 H 0.98578 0.45407 0.9568 0.0
H1507 H 0.9588 0.47778 0.95973 0.0
C1508 C 0.04703 0.4768 0.86226 0.0
C1509 C 0.02705 0.48098 0.83008 0.0
C1510 C 0.04259 0.48356 0.90795 0.0
C1511 C 0.01805 0.49456 0.92261 0.0
C1512 C 0.99837 0.49965 0.89034 0.0
H1513 H 0.95275 0.54681 0.18306 0.0
H1514 H 0.96091 0.53417 0.10371 0.0
C1515 C 1.00281 0.4929 0.8445 0.0
C1516 C 0.01322 0.50062 0.97171 0.0
H1517 H 0.97304 0.48509 0.06611 0.0
C1518 C 0.03021 0.51881 0.9918 0.0
C1519 C 0.9925 0.48811 0.99895 0.0
C1520 C 0.97437 0.4675 0.97989 0.0
C1521 C 0.0267 0.52526 0.0381 0.0
C1522 C 1.00594 0.5128 0.06532 0.0
C1523 C 0.98898 0.49457 0.04525 0.0
C1524 C 1.00087 0.51917 0.11422 0.0
C1525 C 0.04482 0.54588 0.05717 0.0
C1526 C 0.02036 0.51429 0.14691 0.0
C1527 C 0.0158 0.52163 0.19243 0.0
C1528 C 0.99162 0.53396 0.20606 0.0
C1529 C 0.97179 0.53783 0.17354 0.0
C1530 C 0.97635 0.53048 0.12819 0.0
H1531 H 0.05532 0.55806 0.02953 0.0
H1532 H 0.03333 0.55949 0.07983 0.0
H1533 H 0.06019 0.53562 0.0778 0.0
H1534 H 0.03923 0.50507 0.13711 0.0
H1535 H 0.0315 0.51842 0.21655 0.0
loop_
_geom_bond_atom_site_label_1
_geom_bond_atom_site_label_2
_geom_bond_distance
_geom_bond_site_symmetry_2
_ccdc_geom_bond_type
Eu0 N31 2.648 1_455 S
Eu0 N38 2.609 1_455 S
Eu0 O44 2.563 . S
Eu0 O45 2.615 1_565 S
Eu0 O47 2.332 1_465 S
Eu0 O48 2.570 1_565 S
Eu0 O49 2.417 1_455 S
Eu0 O51 2.377 1_455 S
Eu0 O52 2.439 . S
Eu0 C64 2.849 . S
C1 C4 1.429 . S
C1 C5 1.411 . S
C1 N8 1.377 . S
C2 C4 1.420 . S
C2 C6 1.423 . S
C2 C14 1.392 . S
C3 C5 1.420 . S
C3 C6 1.351 . S
C3 H26 0.931 . S
C4 C1 1.429 . S
C4 C2 1.420 . S
C4 N12 1.362 . S
C5 C1 1.411 . S
C5 C3 1.420 . S
C5 C10 1.395 . S
C6 C2 1.423 . S
C6 C3 1.351 . S
C6 H18 0.930 . S
C7 C9 1.400 . S
C7 C10 1.386 1_655 S
C7 H19 0.930 . S
N8 C1 1.377 . S
N8 C9 1.321 1_455 S
N8 Eu11 2.609 1_455 S
C9 C7 1.400 . S
C9 N8 1.321 1_655 S
C9 H16 0.930 . S
C10 C5 1.395 . S
C10 C7 1.386 1_455 S
C10 H29 0.931 . S
Eu11 N8 2.609 1_655 S
Eu11 N12 2.657 1_655 S
Eu11 O45 2.381 1_655 S
Eu11 O46 2.431 . S
Eu11 O50 2.558 . S
Eu11 O51 2.612 1_545 S
Eu11 O53 2.339 1_645 S
Eu11 O54 2.563 1_545 S
Eu11 O55 2.419 1_655 S
Eu11 C75 2.847 . S
N12 C4 1.362 . S
N12 Eu11 2.657 1_455 S
N12 C13 1.334 . S
C13 N12 1.334 . S
C13 C15 1.413 . S
C13 H20 0.929 . S
C14 C2 1.392 . S
C14 C15 1.367 . S
C14 H22 0.930 . S
C15 C13 1.413 . S
C15 C14 1.367 . S
C15 H17 0.930 . S
H16 C9 0.930 . S
H17 C15 0.930 . S
H18 C6 0.930 . S
H19 C7 0.930 . S
H20 C13 0.929 . S
H21 C35 0.930 . S
H22 C14 0.930 . S
H23 C41 0.930 . S
H24 C32 0.929 . S
H25 C39 0.930 . S
H26 C3 0.931 . S
H27 C33 0.930 . S
H28 C66 0.930 . S
H29 C10 0.931 . S
H30 C65 0.931 . S
N31 Eu0 2.648 1_655 S
N31 C32 1.334 . S
N31 C36 1.362 . S
C32 H24 0.929 . S
C32 N31 1.334 . S
C32 C35 1.413 . S
C33 H27 0.930 . S
C33 C34 1.392 . S
C33 C35 1.367 . S
C34 C33 1.392 . S
C34 C36 1.420 . S
C34 C66 1.423 . S
C35 H21 0.930 . S
C35 C32 1.413 . S
C35 C33 1.367 . S
C36 N31 1.362 . S
C36 C34 1.420 . S
C36 C40 1.429 . S
H37 C42 0.929 . S
N38 Eu0 2.609 1_655 S
N38 C40 1.377 . S
N38 C41 1.321 1_655 S
C39 H25 0.930 . S
C39 C41 1.400 . S
C39 C42 1.347 1_455 S
C40 C36 1.429 . S
C40 N38 1.377 . S
C40 C43 1.411 . S
C41 H23 0.930 . S
C41 N38 1.321 1_455 S
C41 C39 1.400 . S
C42 H37 0.929 . S
C42 C39 1.347 1_655 S
C42 C43 1.435 . S
C43 C40 1.411 . S
C43 C42 1.435 . S
C43 C65 1.420 . S
O44 Eu0 2.563 . S
O44 C64 1.257 . S
O45 Eu0 2.615 1_545 S
O45 Eu11 2.381 1_455 S
O45 C56 1.276 . S
O46 Eu11 2.431 . S
O46 C63 1.264 . S
O47 Eu0 2.332 1_645 S
O47 C63 1.254 . S
O48 Eu0 2.570 1_545 S
O48 C56 1.235 . S
O49 Eu0 2.417 1_655 S
O49 C64 1.249 1_655 S
O50 Eu11 2.558 . S
O50 C75 1.257 . S
O51 Eu0 2.377 1_655 S
O51 Eu11 2.612 1_565 S
O51 C67 1.276 . S
O52 Eu0 2.439 . S
O52 C74 1.264 . S
O53 Eu11 2.339 1_465 S
O53 C74 1.254 . S
O54 Eu11 2.563 1_565 S
O54 C67 1.235 . S
O55 Eu11 2.419 1_455 S
O55 C75 1.249 1_455 S
C56 O45 1.276 . S
C56 O48 1.235 . S
C57 C59 1.393 . S
C57 C61 1.395 . S
C57 C64 1.492 . S
C58 C59 1.392 . S
C58 C60 1.386 . S
C59 C57 1.393 . S
C59 C58 1.392 . S
C59 H76 0.930 1_465 S
C60 C58 1.386 . S
C60 C62 1.395 . S
C60 H77 0.930 . S
C61 C57 1.395 . S
C61 C62 1.379 . S
C61 H78 0.930 . S
C62 C60 1.395 . S
C62 C61 1.379 . S
C62 H79 0.930 . S
C63 O46 1.264 . S
C63 O47 1.254 . S
C64 Eu0 2.849 . S
C64 O44 1.257 . S
C64 O49 1.249 1_455 S
C64 C57 1.492 . S
C65 H30 0.931 . S
C65 C43 1.420 . S
C65 C66 1.351 . S
C66 H28 0.930 . S
C66 C34 1.423 . S
C66 C65 1.351 . S
C67 O51 1.276 . S
C67 O54 1.235 . S
C68 C69 1.393 . S
C68 C72 1.395 . S
C68 C75 1.492 . S
C69 C68 1.393 . S
C69 C70 1.392 . S
C69 H80 0.930 1_645 S
C70 C69 1.392 . S
C70 C71 1.386 . S
C71 C70 1.386 . S
C71 C73 1.395 . S
C71 H81 0.930 . S
C72 C68 1.395 . S
C72 C73 1.379 . S
C72 H82 0.930 . S
C73 C71 1.395 . S
C73 C72 1.379 . S
C73 H83 0.930 . S
C74 O52 1.264 . S
C74 O53 1.254 . S
C75 Eu11 2.847 . S
C75 O50 1.257 . S
C75 O55 1.249 1_655 S
C75 C68 1.492 . S
H76 C59 0.930 1_645 S
H77 C60 0.930 . S
H78 C61 0.930 . S
H79 C62 0.930 . S
H80 C69 0.930 1_465 S
H81 C71 0.930 . S
H82 C72 0.930 . S
H83 C73 0.930 . S
Eu84 N115 2.657 . S
Eu84 N122 2.609 . S
Eu84 O128 2.558 . S
Eu84 O129 2.612 . S
Eu84 O131 2.339 . S
Eu84 O132 2.563 . S
Eu84 O133 2.419 . S
Eu84 O135 2.380 . S
Eu84 O136 2.432 . S
Eu84 C148 2.848 . S
C85 C88 1.429 . S
C85 C89 1.411 . S
C85 N92 1.377 . S
C86 C88 1.420 . S
C86 C90 1.423 . S
C86 C98 1.392 . S
C87 C89 1.420 . S
C87 C90 1.351 . S
C87 H110 0.931 . S
C88 C85 1.429 . S
C88 C86 1.420 . S
C88 N96 1.362 . S
C89 C85 1.411 . S
C89 C87 1.420 . S
C89 C94 1.395 . S
C90 C86 1.423 . S
C90 C87 1.351 . S
C90 H102 0.930 . S
C91 C93 1.400 . S
C91 C94 1.386 . S
C91 H103 0.930 . S
N92 C85 1.377 . S
N92 C93 1.321 . S
N92 Eu95 2.609 . S
C93 C91 1.400 . S
C93 N92 1.321 . S
C93 H100 0.930 . S
C94 C89 1.395 . S
C94 C91 1.386 . S
C94 H113 0.930 . S
Eu95 N92 2.609 . S
Eu95 N96 2.657 . S
Eu95 O129 2.380 . S
Eu95 O130 2.432 . S
Eu95 O134 2.558 . S
Eu95 O135 2.612 . S
Eu95 O137 2.339 . S
Eu95 O138 2.563 . S
Eu95 O139 2.419 . S
Eu95 C159 2.848 . S
N96 C88 1.362 . S
N96 Eu95 2.657 . S
N96 C97 1.334 . S
C97 N96 1.334 . S
C97 C99 1.413 . S
C97 H104 0.929 . S
C98 C86 1.392 . S
C98 C99 1.367 . S
C98 H106 0.930 . S
C99 C97 1.413 . S
C99 C98 1.367 . S
C99 H101 0.930 . S
H100 C93 0.930 . S
H101 C99 0.930 . S
H102 C90 0.930 . S
H103 C91 0.930 . S
H104 C97 0.929 . S
H105 C119 0.930 . S
H106 C98 0.930 . S
H107 C125 0.930 . S
H108 C116 0.929 . S
H109 C123 0.930 . S
H110 C87 0.931 . S
H111 C117 0.930 . S
H112 C150 0.930 . S
H113 C94 0.930 . S
H114 C149 0.931 . S
N115 Eu84 2.657 . S
N115 C116 1.334 . S
N115 C120 1.362 . S
C116 H108 0.929 . S
C116 N115 1.334 . S
C116 C119 1.413 . S
C117 H111 0.930 . S
C117 C118 1.392 . S
C117 C119 1.367 . S
C118 C117 1.392 . S
C118 C120 1.420 . S
C118 C150 1.423 . S
C119 H105 0.930 . S
C119 C116 1.413 . S
C119 C117 1.367 . S
C120 N115 1.362 . S
C120 C118 1.420 . S
C120 C124 1.429 . S
H121 C126 0.930 . S
N122 Eu84 2.609 . S
N122 C124 1.377 . S
N122 C125 1.321 . S
C123 H109 0.930 . S
C123 C125 1.400 . S
C123 C126 1.386 . S
C124 C120 1.429 . S
C124 N122 1.377 . S
C124 C127 1.411 . S
C125 H107 0.930 . S
C125 N122 1.321 . S
C125 C123 1.400 . S
C126 H121 0.930 . S
C126 C123 1.386 . S
C126 C127 1.395 . S
C127 C124 1.411 . S
C127 C126 1.395 . S
C127 C149 1.420 . S
O128 Eu84 2.558 . S
O128 C148 1.257 . S
O129 Eu84 2.612 . S
O129 Eu95 2.380 . S
O129 C140 1.276 . S
O130 Eu95 2.432 . S
O130 C147 1.264 . S
O131 Eu84 2.339 . S
O131 C147 1.254 . S
O132 Eu84 2.563 . S
O132 C140 1.235 . S
O133 Eu84 2.419 . S
O133 C148 1.249 . S
O134 Eu95 2.558 . S
O134 C159 1.257 . S
O135 Eu84 2.380 . S
O135 Eu95 2.612 . S
O135 C151 1.276 . S
O136 Eu84 2.432 . S
O136 C158 1.264 . S
O137 Eu95 2.339 . S
O137 C158 1.254 . S
O138 Eu95 2.563 . S
O138 C151 1.235 . S
O139 Eu95 2.419 . S
O139 C159 1.249 . S
C140 O129 1.276 . S
C140 O132 1.235 . S
C141 C143 1.393 . S
C141 C145 1.395 . S
C141 C148 1.492 . S
C142 C143 1.392 . S
C142 C144 1.386 . S
C143 C141 1.393 . S
C143 C142 1.392 . S
C143 H160 0.930 . S
C144 C142 1.386 . S
C144 C146 1.395 . S
C144 H161 0.930 . S
C145 C141 1.395 . S
C145 C146 1.379 . S
C145 H162 0.930 . S
C146 C144 1.395 . S
C146 C145 1.379 . S
C146 H163 0.930 . S
C147 O130 1.264 . S
C147 O131 1.254 . S
C148 Eu84 2.848 . S
C148 O128 1.257 . S
C148 O133 1.249 . S
C148 C141 1.492 . S
C149 H114 0.931 . S
C149 C127 1.420 . S
C149 C150 1.351 . S
C150 H112 0.930 . S
C150 C118 1.423 . S
C150 C149 1.351 . S
C151 O135 1.276 . S
C151 O138 1.235 . S
C152 C153 1.393 . S
C152 C156 1.395 . S
C152 C159 1.492 . S
C153 C152 1.393 . S
C153 C154 1.392 1_556 S
C153 H164 0.930 . S
C154 C153 1.392 1_554 S
C154 C155 1.386 . S
C155 C154 1.386 . S
C155 C157 1.395 . S
C155 H165 0.930 . S
C156 C152 1.395 . S
C156 C157 1.379 1_556 S
C156 H166 0.930 . S
C157 C155 1.395 . S
C157 C156 1.379 1_554 S
C157 H167 0.930 . S
C158 O136 1.264 . S
C158 O137 1.254 . S
C159 Eu95 2.848 . S
C159 O134 1.257 . S
C159 O139 1.249 . S
C159 C152 1.492 . S
H160 C143 0.930 . S
H161 C144 0.930 . S
H162 C145 0.930 . S
H163 C146 0.930 . S
H164 C153 0.930 . S
H165 C155 0.930 . S
H166 C156 0.930 . S
H167 C157 0.930 . S
Eu168 N199 2.657 . S
Eu168 N206 2.609 . S
Eu168 O212 2.558 . S
Eu168 O213 2.612 1_565 S
Eu168 O215 2.339 1_565 S
Eu168 O216 2.563 1_565 S
Eu168 O217 2.419 . S
Eu168 O219 2.380 1_554 S
Eu168 O220 2.432 . S
Eu168 C232 2.848 . S
C169 C172 1.429 . S
C169 C173 1.411 . S
C169 N176 1.377 . S
C170 C172 1.420 . S
C170 C174 1.423 . S
C170 C182 1.392 . S
C171 C173 1.420 . S
C171 C174 1.351 . S
C171 H194 0.931 . S
C172 C169 1.429 . S
C172 C170 1.420 . S
C172 N180 1.362 . S
C173 C169 1.411 . S
C173 C171 1.420 . S
C173 C178 1.395 . S
C174 C170 1.423 . S
C174 C171 1.351 . S
C174 H186 0.930 . S
C175 C177 1.400 . S
C175 C178 1.386 . S
C175 H187 0.930 . S
N176 C169 1.377 . S
N176 C177 1.321 . S
N176 Eu179 2.609 . S
C177 C175 1.400 . S
C177 N176 1.321 . S
C177 H184 0.930 . S
C178 C173 1.395 . S
C178 C175 1.386 . S
C178 H197 0.930 . S
Eu179 N176 2.609 . S
Eu179 N180 2.657 . S
Eu179 O213 2.380 1_556 S
Eu179 O214 2.432 . S
Eu179 O218 2.558 . S
Eu179 O219 2.612 1_545 S
Eu179 O221 2.339 1_545 S
Eu179 O222 2.563 1_545 S
Eu179 O223 2.419 . S
Eu179 C243 2.848 . S
N180 C172 1.362 . S
N180 Eu179 2.657 . S
N180 C181 1.334 . S
C181 N180 1.334 . S
C181 C183 1.413 . S
C181 H188 0.929 . S
C182 C170 1.392 . S
C182 C183 1.367 . S
C182 H190 0.930 . S
C183 C181 1.413 . S
C183 C182 1.367 . S
C183 H185 0.930 . S
H184 C177 0.930 . S
H185 C183 0.930 . S
H186 C174 0.930 . S
H187 C175 0.930 . S
H188 C181 0.929 . S
H189 C203 0.930 . S
H190 C182 0.930 . S
H191 C209 0.930 . S
H192 C200 0.929 . S
H193 C207 0.930 . S
H194 C171 0.931 . S
H195 C201 0.930 . S
H196 C234 0.930 . S
H197 C178 0.930 . S
H198 C233 0.931 . S
N199 Eu168 2.657 . S
N199 C200 1.334 . S
N199 C204 1.362 . S
C200 H192 0.929 . S
C200 N199 1.334 . S
C200 C203 1.413 . S
C201 H195 0.930 . S
C201 C202 1.392 . S
C201 C203 1.367 . S
C202 C201 1.392 . S
C202 C204 1.420 . S
C202 C234 1.423 . S
C203 H189 0.930 . S
C203 C200 1.413 . S
C203 C201 1.367 . S
C204 N199 1.362 . S
C204 C202 1.420 . S
C204 C208 1.429 . S
H205 C210 0.930 . S
N206 Eu168 2.609 . S
N206 C208 1.377 . S
N206 C209 1.321 . S
C207 H193 0.930 . S
C207 C209 1.400 . S
C207 C210 1.386 . S
C208 C204 1.429 . S
C208 N206 1.377 . S
C208 C211 1.411 . S
C209 H191 0.930 . S
C209 N206 1.321 . S
C209 C207 1.400 . S
C210 H205 0.930 . S
C210 C207 1.386 . S
C210 C211 1.395 . S
C211 C208 1.411 . S
C211 C210 1.395 . S
C211 C233 1.420 . S
O212 Eu168 2.558 . S
O212 C232 1.257 . S
O213 Eu168 2.612 1_545 S
O213 Eu179 2.380 1_554 S
O213 C224 1.276 . S
O214 Eu179 2.432 . S
O214 C231 1.264 1_556 S
O215 Eu168 2.339 1_545 S
O215 C231 1.254 . S
O216 Eu168 2.563 1_545 S
O216 C224 1.235 . S
O217 Eu168 2.419 . S
O217 C232 1.249 . S
O218 Eu179 2.558 . S
O218 C243 1.257 . S
O219 Eu168 2.380 1_556 S
O219 Eu179 2.612 1_565 S
O219 C235 1.276 . S
O220 Eu168 2.432 . S
O220 C242 1.264 1_554 S
O221 Eu179 2.339 1_565 S
O221 C242 1.254 . S
O222 Eu179 2.563 1_565 S
O222 C235 1.235 . S
O223 Eu179 2.419 . S
O223 C243 1.249 . S
C224 O213 1.276 . S
C224 O216 1.235 . S
C225 C227 1.393 . S
C225 C229 1.395 . S
C225 C232 1.492 . S
C226 C227 1.392 . S
C226 C228 1.386 . S
C227 C225 1.393 . S
C227 C226 1.392 . S
C227 H244 0.930 1_565 S
C228 C226 1.386 . S
C228 C230 1.395 . S
C228 H245 0.930 . S
C229 C225 1.395 . S
C229 C230 1.379 . S
C229 H246 0.930 . S
C230 C228 1.395 . S
C230 C229 1.379 . S
C230 H247 0.930 . S
C231 O214 1.264 1_554 S
C231 O215 1.254 . S
C232 Eu168 2.848 . S
C232 O212 1.257 . S
C232 O217 1.249 . S
C232 C225 1.492 . S
C233 H198 0.931 . S
C233 C211 1.420 . S
C233 C234 1.351 . S
C234 H196 0.930 . S
C234 C202 1.423 . S
C234 C233 1.351 . S
C235 O219 1.276 . S
C235 O222 1.235 . S
C236 C237 1.393 . S
C236 C240 1.395 . S
C236 C243 1.492 . S
C237 C236 1.393 . S
C237 C238 1.392 . S
C237 H248 0.930 1_545 S
C238 C237 1.392 . S
C238 C239 1.386 . S
C239 C238 1.386 . S
C239 C241 1.395 . S
C239 H249 0.930 . S
C240 C236 1.395 . S
C240 C241 1.379 . S
C240 H250 0.930 . S
C241 C239 1.395 . S
C241 C240 1.379 . S
C241 H251 0.930 . S
C242 O220 1.264 1_556 S
C242 O221 1.254 . S
C243 Eu179 2.848 . S
C243 O218 1.257 . S
C243 O223 1.249 . S
C243 C236 1.492 . S
H244 C227 0.930 1_545 S
H245 C228 0.930 . S
H246 C229 0.930 . S
H247 C230 0.930 . S
H248 C237 0.930 1_565 S
H249 C239 0.930 . S
H250 C240 0.930 . S
H251 C241 0.930 . S
Eu252 N283 2.657 . S
Eu252 N290 2.609 . S
Eu252 O296 2.558 . S
Eu252 O297 2.612 . S
Eu252 O299 2.339 . S
Eu252 O300 2.563 . S
Eu252 O301 2.419 . S
Eu252 O303 2.380 . S
Eu252 O304 2.432 . S
Eu252 C316 2.848 . S
C253 C256 1.429 . S
C253 C257 1.411 . S
C253 N260 1.377 . S
C254 C256 1.420 . S
C254 C258 1.423 . S
C254 C266 1.392 . S
C255 C257 1.420 . S
C255 C258 1.351 . S
C255 H278 0.931 . S
C256 C253 1.429 . S
C256 C254 1.420 . S
C256 N264 1.362 . S
C257 C253 1.411 . S
C257 C255 1.420 . S
C257 C262 1.395 . S
C258 C254 1.423 . S
C258 C255 1.351 . S
C258 H270 0.930 . S
C259 C261 1.400 . S
C259 C262 1.386 . S
C259 H271 0.930 . S
N260 C253 1.377 . S
N260 C261 1.321 . S
N260 Eu263 2.609 . S
C261 C259 1.400 . S
C261 N260 1.321 . S
C261 H268 0.930 . S
C262 C257 1.395 . S
C262 C259 1.386 . S
C262 H281 0.930 . S
Eu263 N260 2.609 . S
Eu263 N264 2.657 . S
Eu263 O297 2.380 . S
Eu263 O298 2.432 . S
Eu263 O302 2.558 . S
Eu263 O303 2.612 . S
Eu263 O305 2.339 . S
Eu263 O306 2.563 . S
Eu263 O307 2.419 . S
Eu263 C327 2.848 . S
N264 C256 1.362 . S
N264 Eu263 2.657 . S
N264 C265 1.334 . S
C265 N264 1.334 . S
C265 C267 1.413 . S
C265 H272 0.929 . S
C266 C254 1.392 . S
C266 C267 1.367 . S
C266 H274 0.930 . S
C267 C265 1.413 . S
C267 C266 1.367 . S
C267 H269 0.930 . S
H268 C261 0.930 . S
H269 C267 0.930 . S
H270 C258 0.930 . S
H271 C259 0.930 . S
H272 C265 0.929 . S
H273 C287 0.930 . S
H274 C266 0.930 . S
H275 C293 0.930 . S
H276 C284 0.929 . S
H277 C291 0.930 . S
H278 C255 0.931 . S
H279 C285 0.930 . S
H280 C318 0.930 . S
H281 C262 0.930 . S
H282 C317 0.931 . S
N283 Eu252 2.657 . S
N283 C284 1.334 . S
N283 C288 1.362 . S
C284 H276 0.929 . S
C284 N283 1.334 . S
C284 C287 1.413 . S
C285 H279 0.930 . S
C285 C286 1.392 . S
C285 C287 1.367 . S
C286 C285 1.392 . S
C286 C288 1.420 . S
C286 C318 1.423 . S
C287 H273 0.930 . S
C287 C284 1.413 . S
C287 C285 1.367 . S
C288 N283 1.362 . S
C288 C286 1.420 . S
C288 C292 1.429 . S
H289 C294 0.930 . S
N290 Eu252 2.609 . S
N290 C292 1.377 . S
N290 C293 1.321 . S
C291 H277 0.930 . S
C291 C293 1.400 . S
C291 C294 1.386 . S
C292 C288 1.429 . S
C292 N290 1.377 . S
C292 C295 1.411 . S
C293 H275 0.930 . S
C293 N290 1.321 . S
C293 C291 1.400 . S
C294 H289 0.930 . S
C294 C291 1.386 . S
C294 C295 1.395 . S
C295 C292 1.411 . S
C295 C294 1.395 . S
C295 C317 1.420 . S
O296 Eu252 2.558 . S
O296 C316 1.257 . S
O297 Eu252 2.612 . S
O297 Eu263 2.380 . S
O297 C308 1.276 . S
O298 Eu263 2.432 . S
O298 C315 1.264 . S
O299 Eu252 2.339 . S
O299 C315 1.254 . S
O300 Eu252 2.563 . S
O300 C308 1.235 . S
O301 Eu252 2.419 . S
O301 C316 1.249 . S
O302 Eu263 2.558 . S
O302 C327 1.257 . S
O303 Eu252 2.380 . S
O303 Eu263 2.612 . S
O303 C319 1.276 . S
O304 Eu252 2.432 . S
O304 C326 1.264 . S
O305 Eu263 2.339 . S
O305 C326 1.254 . S
O306 Eu263 2.563 . S
O306 C319 1.235 . S
O307 Eu263 2.419 . S
O307 C327 1.249 . S
C308 O297 1.276 . S
C308 O300 1.235 . S
C309 C311 1.393 . S
C309 C313 1.395 . S
C309 C316 1.492 . S
C310 C311 1.392 . S
C310 C312 1.386 . S
C311 C309 1.393 . S
C311 C310 1.392 . S
C311 H328 0.930 . S
C312 C310 1.386 . S
C312 C314 1.395 . S
C312 H329 0.930 . S
C313 C309 1.395 . S
C313 C314 1.379 . S
C313 H330 0.930 . S
C314 C312 1.395 . S
C314 C313 1.379 . S
C314 H331 0.930 . S
C315 O298 1.264 . S
C315 O299 1.254 . S
C316 Eu252 2.848 . S
C316 O296 1.257 . S
C316 O301 1.249 . S
C316 C309 1.492 . S
C317 H282 0.931 . S
C317 C295 1.420 . S
C317 C318 1.351 . S
C318 H280 0.930 . S
C318 C286 1.423 . S
C318 C317 1.351 . S
C319 O303 1.276 . S
C319 O306 1.235 . S
C320 C321 1.393 . S
C320 C324 1.395 . S
C320 C327 1.492 . S
C321 C320 1.393 . S
C321 C322 1.392 1_554 S
C321 H332 0.930 . S
C322 C321 1.392 1_556 S
C322 C323 1.386 . S
C323 C322 1.386 . S
C323 C325 1.395 . S
C323 H333 0.930 . S
C324 C320 1.395 . S
C324 C325 1.379 1_554 S
C324 H334 0.930 . S
C325 C323 1.395 . S
C325 C324 1.379 1_556 S
C325 H335 0.930 . S
C326 O304 1.264 . S
C326 O305 1.254 . S
C327 Eu263 2.848 . S
C327 O302 1.257 . S
C327 O307 1.249 . S
C327 C320 1.492 . S
H328 C311 0.930 . S
H329 C312 0.930 . S
H330 C313 0.930 . S
H331 C314 0.930 . S
H332 C321 0.930 . S
H333 C323 0.930 . S
H334 C324 0.930 . S
H335 C325 0.930 . S
Eu336 N367 2.657 . S
Eu336 N374 2.609 . S
Eu336 O380 2.558 . S
Eu336 O381 2.612 . S
Eu336 O383 2.339 . S
Eu336 O384 2.563 . S
Eu336 O385 2.419 . S
Eu336 O387 2.380 . S
Eu336 O388 2.432 . S
Eu336 C400 2.848 . S
C337 C340 1.429 . S
C337 C341 1.411 . S
C337 N344 1.377 . S
C338 C340 1.420 . S
C338 C342 1.423 . S
C338 C350 1.392 . S
C339 C341 1.420 . S
C339 C342 1.351 . S
C339 H362 0.931 . S
C340 C337 1.429 . S
C340 C338 1.420 . S
C340 N348 1.362 . S
C341 C337 1.411 . S
C341 C339 1.420 . S
C341 C346 1.395 . S
C342 C338 1.423 . S
C342 C339 1.351 . S
C342 H354 0.930 . S
C343 C345 1.400 . S
C343 C346 1.386 . S
C343 H355 0.930 . S
N344 C337 1.377 . S
N344 C345 1.321 . S
N344 Eu347 2.609 . S
C345 C343 1.400 . S
C345 N344 1.321 . S
C345 H352 0.930 . S
C346 C341 1.395 . S
C346 C343 1.386 . S
C346 H365 0.930 . S
Eu347 N344 2.609 . S
Eu347 N348 2.657 . S
Eu347 O381 2.380 . S
Eu347 O382 2.432 . S
Eu347 O386 2.558 . S
Eu347 O387 2.612 . S
Eu347 O389 2.339 . S
Eu347 O390 2.563 . S
Eu347 O391 2.419 . S
Eu347 C411 2.848 . S
N348 C340 1.362 . S
N348 Eu347 2.657 . S
N348 C349 1.334 . S
C349 N348 1.334 . S
C349 C351 1.413 . S
C349 H356 0.929 . S
C350 C338 1.392 . S
C350 C351 1.367 . S
C350 H358 0.930 . S
C351 C349 1.413 . S
C351 C350 1.367 . S
C351 H353 0.930 . S
H352 C345 0.930 . S
H353 C351 0.930 . S
H354 C342 0.930 . S
H355 C343 0.930 . S
H356 C349 0.929 . S
H357 C371 0.930 . S
H358 C350 0.930 . S
H359 C377 0.930 . S
H360 C368 0.929 . S
H361 C375 0.930 . S
H362 C339 0.931 . S
H363 C369 0.930 . S
H364 C402 0.930 . S
H365 C346 0.930 . S
H366 C401 0.931 . S
N367 Eu336 2.657 . S
N367 C368 1.334 . S
N367 C372 1.362 . S
C368 H360 0.929 . S
C368 N367 1.334 . S
C368 C371 1.413 . S
C369 H363 0.930 . S
C369 C370 1.392 . S
C369 C371 1.367 . S
C370 C369 1.392 . S
C370 C372 1.420 . S
C370 C402 1.423 . S
C371 H357 0.930 . S
C371 C368 1.413 . S
C371 C369 1.367 . S
C372 N367 1.362 . S
C372 C370 1.420 . S
C372 C376 1.429 . S
H373 C378 0.930 . S
N374 Eu336 2.609 . S
N374 C376 1.377 . S
N374 C377 1.321 . S
C375 H361 0.930 . S
C375 C377 1.400 . S
C375 C378 1.386 . S
C376 C372 1.429 . S
C376 N374 1.377 . S
C376 C379 1.411 . S
C377 H359 0.930 . S
C377 N374 1.321 . S
C377 C375 1.400 . S
C378 H373 0.930 . S
C378 C375 1.386 . S
C378 C379 1.395 . S
C379 C376 1.411 . S
C379 C378 1.395 . S
C379 C401 1.420 . S
O380 Eu336 2.558 . S
O380 C400 1.257 . S
O381 Eu336 2.612 . S
O381 Eu347 2.380 . S
O381 C392 1.276 . S
O382 Eu347 2.432 . S
O382 C399 1.264 . S
O383 Eu336 2.339 . S
O383 C399 1.254 . S
O384 Eu336 2.563 . S
O384 C392 1.235 . S
O385 Eu336 2.419 . S
O385 C400 1.249 . S
O386 Eu347 2.558 . S
O386 C411 1.257 . S
O387 Eu336 2.380 . S
O387 Eu347 2.612 . S
O387 C403 1.276 . S
O388 Eu336 2.432 . S
O388 C410 1.264 . S
O389 Eu347 2.339 . S
O389 C410 1.254 . S
O390 Eu347 2.563 . S
O390 C403 1.235 . S
O391 Eu347 2.419 . S
O391 C411 1.249 . S
C392 O381 1.276 . S
C392 O384 1.235 . S
C393 C395 1.393 . S
C393 C397 1.395 . S
C393 C400 1.492 . S
C394 C395 1.392 1_556 S
C394 C396 1.386 . S
C395 C393 1.393 . S
C395 C394 1.392 1_554 S
C395 H412 0.930 . S
C396 C394 1.386 . S
C396 C398 1.395 . S
C396 H413 0.930 . S
C397 C393 1.395 . S
C397 C398 1.379 1_554 S
C397 H414 0.930 . S
C398 C396 1.395 . S
C398 C397 1.379 1_556 S
C398 H415 0.930 . S
C399 O382 1.264 . S
C399 O383 1.254 . S
C400 Eu336 2.848 . S
C400 O380 1.257 . S
C400 O385 1.249 . S
C400 C393 1.492 . S
C401 H366 0.931 . S
C401 C379 1.420 . S
C401 C402 1.351 . S
C402 H364 0.930 . S
C402 C370 1.423 . S
C402 C401 1.351 . S
C403 O387 1.276 . S
C403 O390 1.235 . S
C404 C405 1.393 . S
C404 C408 1.395 . S
C404 C411 1.492 . S
C405 C404 1.393 . S
C405 C406 1.392 . S
C405 H416 0.930 . S
C406 C405 1.392 . S
C406 C407 1.386 . S
C407 C406 1.386 . S
C407 C409 1.395 . S
C407 H417 0.930 . S
C408 C404 1.395 . S
C408 C409 1.379 . S
C408 H418 0.930 . S
C409 C407 1.395 . S
C409 C408 1.379 . S
C409 H419 0.930 . S
C410 O388 1.264 . S
C410 O389 1.254 . S
C411 Eu347 2.848 . S
C411 O386 1.257 . S
C411 O391 1.249 . S
C411 C404 1.492 . S
H412 C395 0.930 . S
H413 C396 0.930 . S
H414 C397 0.930 . S
H415 C398 0.930 . S
H416 C405 0.930 . S
H417 C407 0.930 . S
H418 C408 0.930 . S
H419 C409 0.930 . S
Eu420 N451 2.657 . S
Eu420 N458 2.609 . S
Eu420 O464 2.558 . S
Eu420 O465 2.612 . S
Eu420 O467 2.339 . S
Eu420 O468 2.563 . S
Eu420 O469 2.419 . S
Eu420 O471 2.380 . S
Eu420 O472 2.432 . S
Eu420 C484 2.848 . S
C421 C424 1.429 . S
C421 C425 1.411 . S
C421 N428 1.377 . S
C422 C424 1.420 . S
C422 C426 1.423 . S
C422 C434 1.392 . S
C423 C425 1.420 . S
C423 C426 1.351 . S
C423 H446 0.931 . S
C424 C421 1.429 . S
C424 C422 1.420 . S
C424 N432 1.362 . S
C425 C421 1.411 . S
C425 C423 1.420 . S
C425 C430 1.395 . S
C426 C422 1.423 . S
C426 C423 1.351 . S
C426 H438 0.930 . S
C427 C429 1.400 . S
C427 C430 1.386 . S
C427 H439 0.930 . S
N428 C421 1.377 . S
N428 C429 1.321 . S
N428 Eu431 2.609 . S
C429 C427 1.400 . S
C429 N428 1.321 . S
C429 H436 0.930 . S
C430 C425 1.395 . S
C430 C427 1.386 . S
C430 H449 0.930 . S
Eu431 N428 2.609 . S
Eu431 N432 2.657 . S
Eu431 O465 2.380 . S
Eu431 O466 2.432 . S
Eu431 O470 2.558 . S
Eu431 O471 2.612 . S
Eu431 O473 2.339 . S
Eu431 O474 2.563 . S
Eu431 O475 2.419 . S
Eu431 C495 2.848 . S
N432 C424 1.362 . S
N432 Eu431 2.657 . S
N432 C433 1.334 . S
C433 N432 1.334 . S
C433 C435 1.413 . S
C433 H440 0.929 . S
C434 C422 1.392 . S
C434 C435 1.367 . S
C434 H442 0.930 . S
C435 C433 1.413 . S
C435 C434 1.367 . S
C435 H437 0.930 . S
H436 C429 0.930 . S
H437 C435 0.930 . S
H438 C426 0.930 . S
H439 C427 0.930 . S
H440 C433 0.929 . S
H441 C455 0.930 . S
H442 C434 0.930 . S
H443 C461 0.930 . S
H444 C452 0.929 . S
H445 C459 0.930 . S
H446 C423 0.931 . S
H447 C453 0.930 . S
H448 C486 0.930 . S
H449 C430 0.930 . S
H450 C485 0.931 . S
N451 Eu420 2.657 . S
N451 C452 1.334 . S
N451 C456 1.362 . S
C452 H444 0.929 . S
C452 N451 1.334 . S
C452 C455 1.413 . S
C453 H447 0.930 . S
C453 C454 1.392 . S
C453 C455 1.367 . S
C454 C453 1.392 . S
C454 C456 1.420 . S
C454 C486 1.423 . S
C455 H441 0.930 . S
C455 C452 1.413 . S
C455 C453 1.367 . S
C456 N451 1.362 . S
C456 C454 1.420 . S
C456 C460 1.429 . S
H457 C462 0.930 . S
N458 Eu420 2.609 . S
N458 C460 1.377 . S
N458 C461 1.321 . S
C459 H445 0.930 . S
C459 C461 1.400 . S
C459 C462 1.386 . S
C460 C456 1.429 . S
C460 N458 1.377 . S
C460 C463 1.411 . S
C461 H443 0.930 . S
C461 N458 1.321 . S
C461 C459 1.400 . S
C462 H457 0.930 . S
C462 C459 1.386 . S
C462 C463 1.395 . S
C463 C460 1.411 . S
C463 C462 1.395 . S
C463 C485 1.420 . S
O464 Eu420 2.558 . S
O464 C484 1.257 . S
O465 Eu420 2.612 . S
O465 Eu431 2.380 . S
O465 C476 1.276 . S
O466 Eu431 2.432 . S
O466 C483 1.264 . S
O467 Eu420 2.339 . S
O467 C483 1.254 . S
O468 Eu420 2.563 . S
O468 C476 1.235 . S
O469 Eu420 2.419 . S
O469 C484 1.249 . S
O470 Eu431 2.558 . S
O470 C495 1.257 . S
O471 Eu420 2.380 . S
O471 Eu431 2.612 . S
O471 C487 1.276 . S
O472 Eu420 2.432 . S
O472 C494 1.264 . S
O473 Eu431 2.339 . S
O473 C494 1.254 . S
O474 Eu431 2.563 . S
O474 C487 1.235 . S
O475 Eu431 2.419 . S
O475 C495 1.249 . S
C476 O465 1.276 . S
C476 O468 1.235 . S
C477 C479 1.393 . S
C477 C481 1.395 . S
C477 C484 1.492 . S
C478 C479 1.392 1_554 S
C478 C480 1.386 . S
C479 C477 1.393 . S
C479 C478 1.392 1_556 S
C479 H496 0.930 . S
C480 C478 1.386 . S
C480 C482 1.395 . S
C480 H497 0.930 . S
C481 C477 1.395 . S
C481 C482 1.379 1_556 S
C481 H498 0.930 . S
C482 C480 1.395 . S
C482 C481 1.379 1_554 S
C482 H499 0.930 . S
C483 O466 1.264 . S
C483 O467 1.254 . S
C484 Eu420 2.848 . S
C484 O464 1.257 . S
C484 O469 1.249 . S
C484 C477 1.492 . S
C485 H450 0.931 . S
C485 C463 1.420 . S
C485 C486 1.351 . S
C486 H448 0.930 . S
C486 C454 1.423 . S
C486 C485 1.351 . S
C487 O471 1.276 . S
C487 O474 1.235 . S
C488 C489 1.393 . S
C488 C492 1.395 . S
C488 C495 1.492 . S
C489 C488 1.393 . S
C489 C490 1.392 . S
C489 H500 0.930 . S
C490 C489 1.392 . S
C490 C491 1.386 . S
C491 C490 1.386 . S
C491 C493 1.395 . S
C491 H501 0.930 . S
C492 C488 1.395 . S
C492 C493 1.379 . S
C492 H502 0.930 . S
C493 C491 1.395 . S
C493 C492 1.379 . S
C493 H503 0.930 . S
C494 O472 1.264 . S
C494 O473 1.254 . S
C495 Eu431 2.848 . S
C495 O470 1.257 . S
C495 O475 1.249 . S
C495 C488 1.492 . S
H496 C479 0.930 . S
H497 C480 0.930 . S
H498 C481 0.930 . S
H499 C482 0.930 . S
H500 C489 0.930 . S
H501 C491 0.930 . S
H502 C492 0.930 . S
H503 C493 0.930 . S
Eu504 N535 2.657 . S
Eu504 N542 2.609 . S
Eu504 O548 2.558 . S
Eu504 O549 2.612 . S
Eu504 O551 2.339 . S
Eu504 O552 2.563 . S
Eu504 O553 2.419 . S
Eu504 O555 2.380 1_556 S
Eu504 O556 2.432 . S
Eu504 C568 2.848 . S
C505 C508 1.429 . S
C505 C509 1.411 . S
C505 N512 1.377 . S
C506 C508 1.420 . S
C506 C510 1.423 . S
C506 C518 1.392 . S
C507 C509 1.420 . S
C507 C510 1.351 . S
C507 H530 0.931 . S
C508 C505 1.429 . S
C508 C506 1.420 . S
C508 N516 1.362 . S
C509 C505 1.411 . S
C509 C507 1.420 . S
C509 C514 1.395 . S
C510 C506 1.423 . S
C510 C507 1.351 . S
C510 H522 0.930 . S
C511 C513 1.400 . S
C511 C514 1.386 . S
C511 H523 0.930 . S
N512 C505 1.377 . S
N512 C513 1.321 . S
N512 Eu515 2.609 . S
C513 C511 1.400 . S
C513 N512 1.321 . S
C513 H520 0.930 . S
C514 C509 1.395 . S
C514 C511 1.386 . S
C514 H533 0.930 . S
Eu515 N512 2.609 . S
Eu515 N516 2.657 . S
Eu515 O549 2.380 1_554 S
Eu515 O550 2.432 . S
Eu515 O554 2.558 . S
Eu515 O555 2.612 . S
Eu515 O557 2.339 . S
Eu515 O558 2.563 . S
Eu515 O559 2.419 . S
Eu515 C579 2.848 . S
N516 C508 1.362 . S
N516 Eu515 2.657 . S
N516 C517 1.334 . S
C517 N516 1.334 . S
C517 C519 1.413 . S
C517 H524 0.929 . S
C518 C506 1.392 . S
C518 C519 1.367 . S
C518 H526 0.930 . S
C519 C517 1.413 . S
C519 C518 1.367 . S
C519 H521 0.930 . S
H520 C513 0.930 . S
H521 C519 0.930 . S
H522 C510 0.930 . S
H523 C511 0.930 . S
H524 C517 0.929 . S
H525 C539 0.930 . S
H526 C518 0.930 . S
H527 C545 0.930 . S
H528 C536 0.929 . S
H529 C543 0.930 . S
H530 C507 0.931 . S
H531 C537 0.930 . S
H532 C570 0.930 . S
H533 C514 0.930 . S
H534 C569 0.931 . S
N535 Eu504 2.657 . S
N535 C536 1.334 . S
N535 C540 1.362 . S
C536 H528 0.929 . S
C536 N535 1.334 . S
C536 C539 1.413 . S
C537 H531 0.930 . S
C537 C538 1.392 . S
C537 C539 1.367 . S
C538 C537 1.392 . S
C538 C540 1.420 . S
C538 C570 1.423 . S
C539 H525 0.930 . S
C539 C536 1.413 . S
C539 C537 1.367 . S
C540 N535 1.362 . S
C540 C538 1.420 . S
C540 C544 1.429 . S
H541 C546 0.930 . S
N542 Eu504 2.609 . S
N542 C544 1.377 . S
N542 C545 1.321 . S
C543 H529 0.930 . S
C543 C545 1.400 . S
C543 C546 1.386 . S
C544 C540 1.429 . S
C544 N542 1.377 . S
C544 C547 1.411 . S
C545 H527 0.930 . S
C545 N542 1.321 . S
C545 C543 1.400 . S
C546 H541 0.930 . S
C546 C543 1.386 . S
C546 C547 1.395 . S
C547 C544 1.411 . S
C547 C546 1.395 . S
C547 C569 1.420 . S
O548 Eu504 2.558 . S
O548 C568 1.257 . S
O549 Eu504 2.612 . S
O549 Eu515 2.380 1_556 S
O549 C560 1.276 . S
O550 Eu515 2.432 . S
O550 C567 1.264 1_554 S
O551 Eu504 2.339 . S
O551 C567 1.254 . S
O552 Eu504 2.563 . S
O552 C560 1.235 . S
O553 Eu504 2.419 . S
O553 C568 1.249 . S
O554 Eu515 2.558 . S
O554 C579 1.257 . S
O555 Eu504 2.380 1_554 S
O555 Eu515 2.612 . S
O555 C571 1.276 . S
O556 Eu504 2.432 . S
O556 C578 1.264 1_556 S
O557 Eu515 2.339 . S
O557 C578 1.254 . S
O558 Eu515 2.563 . S
O558 C571 1.235 . S
O559 Eu515 2.419 . S
O559 C579 1.249 . S
C560 O549 1.276 . S
C560 O552 1.235 . S
C561 C563 1.393 . S
C561 C565 1.395 . S
C561 C568 1.492 . S
C562 C563 1.392 . S
C562 C564 1.386 . S
C563 C561 1.393 . S
C563 C562 1.392 . S
C563 H580 0.930 . S
C564 C562 1.386 . S
C564 C566 1.395 . S
C564 H581 0.930 . S
C565 C561 1.395 . S
C565 C566 1.379 . S
C565 H582 0.930 . S
C566 C564 1.395 . S
C566 C565 1.379 . S
C566 H583 0.930 . S
C567 O550 1.264 1_556 S
C567 O551 1.254 . S
C568 Eu504 2.848 . S
C568 O548 1.257 . S
C568 O553 1.249 . S
C568 C561 1.492 . S
C569 H534 0.931 . S
C569 C547 1.420 . S
C569 C570 1.351 . S
C570 H532 0.930 . S
C570 C538 1.423 . S
C570 C569 1.351 . S
C571 O555 1.276 . S
C571 O558 1.235 . S
C572 C573 1.393 . S
C572 C576 1.395 . S
C572 C579 1.492 . S
C573 C572 1.393 . S
C573 C574 1.392 . S
C573 H584 0.930 . S
C574 C573 1.392 . S
C574 C575 1.386 . S
C575 C574 1.386 . S
C575 C577 1.395 . S
C575 H585 0.930 . S
C576 C572 1.395 . S
C576 C577 1.379 . S
C576 H586 0.930 . S
C577 C575 1.395 . S
C577 C576 1.379 . S
C577 H587 0.930 . S
C578 O556 1.264 1_554 S
C578 O557 1.254 . S
C579 Eu515 2.848 . S
C579 O554 1.257 . S
C579 O559 1.249 . S
C579 C572 1.492 . S
H580 C563 0.930 . S
H581 C564 0.930 . S
H582 C565 0.930 . S
H583 C566 0.930 . S
H584 C573 0.930 . S
H585 C575 0.930 . S
H586 C576 0.930 . S
H587 C577 0.930 . S
Eu588 N619 2.658 1_655 S
Eu588 N626 2.609 1_655 S
Eu588 O632 2.558 . S
Eu588 O633 2.612 . S
Eu588 O635 2.339 1_655 S
Eu588 O636 2.563 . S
Eu588 O637 2.419 1_655 S
Eu588 O639 2.381 1_655 S
Eu588 O640 2.431 . S
Eu588 C652 2.847 . S
C589 C592 1.429 . S
C589 C593 1.411 . S
C589 N596 1.377 . S
C590 C592 1.420 . S
C590 C594 1.423 . S
C590 C602 1.392 . S
C591 C593 1.420 . S
C591 C594 1.351 . S
C591 H614 0.931 . S
C592 C589 1.429 . S
C592 C590 1.420 . S
C592 N600 1.362 . S
C593 C589 1.411 . S
C593 C591 1.420 . S
C593 C598 1.435 . S
C594 C590 1.423 . S
C594 C591 1.351 . S
C594 H606 0.930 . S
C595 C597 1.400 . S
C595 C598 1.347 1_455 S
C595 H607 0.930 . S
N596 C589 1.377 . S
N596 C597 1.321 1_655 S
N596 Eu599 2.609 1_655 S
C597 C595 1.400 . S
C597 N596 1.321 1_455 S
C597 H604 0.930 . S
C598 C593 1.435 . S
C598 C595 1.347 1_655 S
C598 H617 0.929 . S
Eu599 N596 2.609 1_455 S
Eu599 N600 2.648 1_455 S
Eu599 O633 2.377 1_455 S
Eu599 O634 2.439 . S
Eu599 O638 2.563 . S
Eu599 O639 2.615 . S
Eu599 O641 2.332 1_455 S
Eu599 O642 2.570 . S
Eu599 O643 2.417 1_455 S
Eu599 C663 2.849 . S
N600 C592 1.362 . S
N600 Eu599 2.648 1_655 S
N600 C601 1.334 . S
C601 N600 1.334 . S
C601 C603 1.413 . S
C601 H608 0.929 . S
C602 C590 1.392 . S
C602 C603 1.367 . S
C602 H610 0.930 . S
C603 C601 1.413 . S
C603 C602 1.367 . S
C603 H605 0.930 . S
H604 C597 0.930 . S
H605 C603 0.930 . S
H606 C594 0.930 . S
H607 C595 0.930 . S
H608 C601 0.929 . S
H609 C623 0.930 . S
H610 C602 0.930 . S
H611 C629 0.930 . S
H612 C620 0.929 . S
H613 C627 0.930 . S
H614 C591 0.931 . S
H615 C621 0.930 . S
H616 C654 0.930 . S
H617 C598 0.929 . S
H618 C653 0.931 . S
N619 Eu588 2.658 1_455 S
N619 C620 1.334 . S
N619 C624 1.362 . S
C620 H612 0.929 . S
C620 N619 1.334 . S
C620 C623 1.413 . S
C621 H615 0.930 . S
C621 C622 1.392 . S
C621 C623 1.367 . S
C622 C621 1.392 . S
C622 C624 1.420 . S
C622 C654 1.423 . S
C623 H609 0.930 . S
C623 C620 1.413 . S
C623 C621 1.367 . S
C624 N619 1.362 . S
C624 C622 1.420 . S
C624 C628 1.429 . S
H625 C630 0.931 . S
N626 Eu588 2.609 1_455 S
N626 C628 1.377 . S
N626 C629 1.321 1_455 S
C627 H613 0.930 . S
C627 C629 1.400 . S
C627 C630 1.386 1_655 S
C628 C624 1.429 . S
C628 N626 1.377 . S
C628 C631 1.411 . S
C629 H611 0.930 . S
C629 N626 1.321 1_655 S
C629 C627 1.400 . S
C630 H625 0.931 . S
C630 C627 1.386 1_455 S
C630 C631 1.395 . S
C631 C628 1.411 . S
C631 C630 1.395 . S
C631 C653 1.420 . S
O632 Eu588 2.558 . S
O632 C652 1.257 . S
O633 Eu588 2.612 . S
O633 Eu599 2.377 1_655 S
O633 C644 1.276 . S
O634 Eu599 2.439 . S
O634 C651 1.264 . S
O635 Eu588 2.339 1_455 S
O635 C651 1.254 . S
O636 Eu588 2.563 . S
O636 C644 1.235 . S
O637 Eu588 2.419 1_455 S
O637 C652 1.249 1_455 S
O638 Eu599 2.563 . S
O638 C663 1.257 . S
O639 Eu588 2.381 1_455 S
O639 Eu599 2.615 . S
O639 C655 1.276 . S
O640 Eu588 2.431 . S
O640 C662 1.264 . S
O641 Eu599 2.332 1_655 S
O641 C662 1.254 . S
O642 Eu599 2.570 . S
O642 C655 1.235 . S
O643 Eu599 2.417 1_655 S
O643 C663 1.249 1_655 S
C644 O633 1.276 . S
C644 O636 1.235 . S
C645 C647 1.393 . S
C645 C649 1.395 . S
C645 C652 1.492 . S
C646 C647 1.392 . S
C646 C648 1.386 . S
C647 C645 1.393 . S
C647 C646 1.392 . S
C647 H664 0.930 1_655 S
C648 C646 1.386 . S
C648 C650 1.395 . S
C648 H665 0.930 . S
C649 C645 1.395 . S
C649 C650 1.379 . S
C649 H666 0.930 . S
C650 C648 1.395 . S
C650 C649 1.379 . S
C650 H667 0.930 . S
C651 O634 1.264 . S
C651 O635 1.254 . S
C652 Eu588 2.847 . S
C652 O632 1.257 . S
C652 O637 1.249 1_655 S
C652 C645 1.492 . S
C653 H618 0.931 . S
C653 C631 1.420 . S
C653 C654 1.351 . S
C654 H616 0.930 . S
C654 C622 1.423 . S
C654 C653 1.351 . S
C655 O639 1.276 . S
C655 O642 1.235 . S
C656 C657 1.393 . S
C656 C660 1.395 . S
C656 C663 1.492 . S
C657 C656 1.393 . S
C657 C658 1.392 . S
C657 H668 0.930 1_455 S
C658 C657 1.392 . S
C658 C659 1.386 . S
C659 C658 1.386 . S
C659 C661 1.395 . S
C659 H669 0.930 . S
C660 C656 1.395 . S
C660 C661 1.379 . S
C660 H670 0.930 . S
C661 C659 1.395 . S
C661 C660 1.379 . S
C661 H671 0.930 . S
C662 O640 1.264 . S
C662 O641 1.254 . S
C663 Eu599 2.849 . S
C663 O638 1.257 . S
C663 O643 1.249 1_455 S
C663 C656 1.492 . S
H664 C647 0.930 1_455 S
H665 C648 0.930 . S
H666 C649 0.930 . S
H667 C650 0.930 . S
H668 C657 0.930 1_655 S
H669 C659 0.930 . S
H670 C660 0.930 . S
H671 C661 0.930 . S
H672 C680 0.929 . S
H673 C682 0.930 . S
H674 C684 0.930 . S
H675 C687 0.929 . S
H676 C690 0.930 . S
H677 C692 0.960 . S
H678 C692 0.960 . S
H679 C692 0.960 . S
C680 H672 0.929 . S
C680 C681 1.377 . S
C680 C682 1.384 . S
C681 C680 1.377 . S
C681 C687 1.390 . S
C682 H673 0.930 . S
C682 C680 1.384 . S
C682 C683 1.372 . S
C683 C682 1.372 . S
C683 C684 1.400 . S
C683 C688 1.490 . S
C684 H674 0.930 . S
C684 C683 1.400 . S
C684 C687 1.386 . S
H685 C701 0.930 . S
H686 C702 0.931 . S
C687 H675 0.929 . S
C687 C681 1.390 . S
C687 C684 1.386 . S
C688 C683 1.490 . S
C688 C690 1.395 . S
C688 C691 1.403 . S
H689 C695 0.930 . S
C690 H676 0.930 . S
C690 C688 1.395 . S
C690 C693 1.403 . S
C691 C688 1.403 . S
C691 C692 1.524 . S
C691 C695 1.400 . S
C692 H677 0.960 . S
C692 H678 0.960 . S
C692 H679 0.960 . S
C692 C691 1.524 . S
C693 C690 1.403 . S
C693 C694 1.392 . S
C693 C697 1.495 . S
C694 C693 1.392 . S
C694 C695 1.385 . S
C694 C696 1.478 . S
C695 H689 0.930 . S
C695 C691 1.400 . S
C695 C694 1.385 . S
C696 C694 1.478 . S
C696 C698 1.381 . S
C696 C702 1.383 . S
C697 C693 1.495 . S
C697 H703 0.959 . S
C697 H704 0.961 . S
C697 H705 0.960 . S
C698 C696 1.381 . S
C698 C699 1.394 . S
C698 H706 0.930 . S
C699 C698 1.394 . S
C699 C700 1.383 . S
C699 H707 0.929 . S
C700 C699 1.383 . S
C700 C701 1.377 . S
C701 H685 0.930 . S
C701 C700 1.377 . S
C701 C702 1.379 . S
C702 H686 0.931 . S
C702 C696 1.383 . S
C702 C701 1.379 . S
H703 C697 0.959 . S
H704 C697 0.961 . S
H705 C697 0.960 . S
H706 C698 0.930 . S
H707 C699 0.929 . S
H708 C716 0.929 . S
H709 C718 0.930 . S
H710 C720 0.930 . S
H711 C723 0.929 . S
H712 C726 0.930 . S
H713 C728 0.960 . S
H714 C728 0.960 . S
H715 C728 0.960 . S
C716 H708 0.929 . S
C716 C717 1.377 . S
C716 C718 1.384 . S
C717 C716 1.377 . S
C717 C723 1.390 . S
C718 H709 0.930 . S
C718 C716 1.384 . S
C718 C719 1.372 . S
C719 C718 1.372 . S
C719 C720 1.400 . S
C719 C724 1.490 . S
C720 H710 0.930 . S
C720 C719 1.400 . S
C720 C723 1.386 . S
H721 C737 0.930 . S
H722 C738 0.931 . S
C723 H711 0.929 . S
C723 C717 1.390 . S
C723 C720 1.386 . S
C724 C719 1.490 . S
C724 C726 1.395 . S
C724 C727 1.403 . S
H725 C731 0.930 . S
C726 H712 0.930 . S
C726 C724 1.395 . S
C726 C729 1.403 . S
C727 C724 1.403 . S
C727 C728 1.524 . S
C727 C731 1.400 . S
C728 H713 0.960 . S
C728 H714 0.960 . S
C728 H715 0.960 . S
C728 C727 1.524 . S
C729 C726 1.403 . S
C729 C730 1.392 . S
C729 C733 1.495 . S
C730 C729 1.392 . S
C730 C731 1.385 . S
C730 C732 1.478 . S
C731 H725 0.930 . S
C731 C727 1.400 . S
C731 C730 1.385 . S
C732 C730 1.478 . S
C732 C734 1.381 . S
C732 C738 1.383 . S
C733 C729 1.495 . S
C733 H739 0.959 . S
C733 H740 0.961 . S
C733 H741 0.960 . S
C734 C732 1.381 . S
C734 C735 1.394 . S
C734 H742 0.930 . S
C735 C734 1.394 . S
C735 C736 1.383 . S
C735 H743 0.929 . S
C736 C735 1.383 . S
C736 C737 1.377 . S
C737 H721 0.930 . S
C737 C736 1.377 . S
C737 C738 1.379 . S
C738 H722 0.931 . S
C738 C732 1.383 . S
C738 C737 1.379 . S
H739 C733 0.959 . S
H740 C733 0.961 . S
H741 C733 0.960 . S
H742 C734 0.930 . S
H743 C735 0.929 . S
H744 C752 0.929 . S
H745 C754 0.930 . S
H746 C756 0.930 . S
H747 C759 0.929 . S
H748 C762 0.930 . S
H749 C764 0.960 . S
H750 C764 0.960 . S
H751 C764 0.960 . S
C752 H744 0.929 . S
C752 C753 1.377 . S
C752 C754 1.384 . S
C753 C752 1.377 . S
C753 C759 1.390 . S
C754 H745 0.930 . S
C754 C752 1.384 . S
C754 C755 1.372 . S
C755 C754 1.372 . S
C755 C756 1.400 . S
C755 C760 1.490 . S
C756 H746 0.930 . S
C756 C755 1.400 . S
C756 C759 1.386 . S
H757 C773 0.930 . S
H758 C774 0.931 . S
C759 H747 0.929 . S
C759 C753 1.390 . S
C759 C756 1.386 . S
C760 C755 1.490 . S
C760 C762 1.395 . S
C760 C763 1.403 . S
H761 C767 0.930 . S
C762 H748 0.930 . S
C762 C760 1.395 . S
C762 C765 1.403 . S
C763 C760 1.403 . S
C763 C764 1.524 . S
C763 C767 1.400 . S
C764 H749 0.960 . S
C764 H750 0.960 . S
C764 H751 0.960 . S
C764 C763 1.524 . S
C765 C762 1.403 . S
C765 C766 1.392 . S
C765 C769 1.495 . S
C766 C765 1.392 . S
C766 C767 1.385 . S
C766 C768 1.478 . S
C767 H761 0.930 . S
C767 C763 1.400 . S
C767 C766 1.385 . S
C768 C766 1.478 . S
C768 C770 1.381 . S
C768 C774 1.383 . S
C769 C765 1.495 . S
C769 H775 0.959 . S
C769 H776 0.961 . S
C769 H777 0.960 . S
C770 C768 1.381 . S
C770 C771 1.394 . S
C770 H778 0.930 . S
C771 C770 1.394 . S
C771 C772 1.383 . S
C771 H779 0.929 . S
C772 C771 1.383 . S
C772 C773 1.377 . S
C773 H757 0.930 . S
C773 C772 1.377 . S
C773 C774 1.379 . S
C774 H758 0.931 . S
C774 C768 1.383 . S
C774 C773 1.379 . S
H775 C769 0.959 . S
H776 C769 0.961 . S
H777 C769 0.960 . S
H778 C770 0.930 . S
H779 C771 0.929 . S
H780 C788 0.929 . S
H781 C790 0.930 . S
H782 C792 0.930 . S
H783 C795 0.929 . S
H784 C798 0.930 . S
H785 C800 0.960 . S
H786 C800 0.960 . S
H787 C800 0.960 . S
C788 H780 0.929 . S
C788 C789 1.377 . S
C788 C790 1.384 . S
C789 C788 1.377 . S
C789 C795 1.390 . S
C790 H781 0.930 . S
C790 C788 1.384 . S
C790 C791 1.372 . S
C791 C790 1.372 . S
C791 C792 1.400 . S
C791 C796 1.490 . S
C792 H782 0.930 . S
C792 C791 1.400 . S
C792 C795 1.386 . S
H793 C809 0.930 . S
H794 C810 0.931 . S
C795 H783 0.929 . S
C795 C789 1.390 . S
C795 C792 1.386 . S
C796 C791 1.490 . S
C796 C798 1.395 . S
C796 C799 1.403 . S
H797 C803 0.930 . S
C798 H784 0.930 . S
C798 C796 1.395 . S
C798 C801 1.403 . S
C799 C796 1.403 . S
C799 C800 1.524 . S
C799 C803 1.400 . S
C800 H785 0.960 . S
C800 H786 0.960 . S
C800 H787 0.960 . S
C800 C799 1.524 . S
C801 C798 1.403 . S
C801 C802 1.392 . S
C801 C805 1.495 . S
C802 C801 1.392 . S
C802 C803 1.385 . S
C802 C804 1.478 . S
C803 H797 0.930 . S
C803 C799 1.400 . S
C803 C802 1.385 . S
C804 C802 1.478 . S
C804 C806 1.381 . S
C804 C810 1.383 . S
C805 C801 1.495 . S
C805 H811 0.959 . S
C805 H812 0.961 . S
C805 H813 0.960 . S
C806 C804 1.381 . S
C806 C807 1.394 . S
C806 H814 0.930 . S
C807 C806 1.394 . S
C807 C808 1.383 . S
C807 H815 0.929 . S
C808 C807 1.383 . S
C808 C809 1.377 . S
C809 H793 0.930 . S
C809 C808 1.377 . S
C809 C810 1.379 . S
C810 H794 0.931 . S
C810 C804 1.383 . S
C810 C809 1.379 . S
H811 C805 0.959 . S
H812 C805 0.961 . S
H813 C805 0.960 . S
H814 C806 0.930 . S
H815 C807 0.929 . S
H816 C824 0.929 . S
H817 C826 0.930 . S
H818 C828 0.930 . S
H819 C831 0.929 . S
H820 C834 0.930 . S
H821 C836 0.960 . S
H822 C836 0.960 . S
H823 C836 0.960 . S
C824 H816 0.929 . S
C824 C825 1.377 . S
C824 C826 1.384 . S
C825 C824 1.377 . S
C825 C831 1.390 . S
C826 H817 0.930 . S
C826 C824 1.384 . S
C826 C827 1.372 . S
C827 C826 1.372 . S
C827 C828 1.400 . S
C827 C832 1.490 . S
C828 H818 0.930 . S
C828 C827 1.400 . S
C828 C831 1.386 . S
H829 C845 0.930 . S
H830 C846 0.931 . S
C831 H819 0.929 . S
C831 C825 1.390 . S
C831 C828 1.386 . S
C832 C827 1.490 . S
C832 C834 1.395 . S
C832 C835 1.403 . S
H833 C839 0.930 . S
C834 H820 0.930 . S
C834 C832 1.395 . S
C834 C837 1.403 . S
C835 C832 1.403 . S
C835 C836 1.524 . S
C835 C839 1.400 . S
C836 H821 0.960 . S
C836 H822 0.960 . S
C836 H823 0.960 . S
C836 C835 1.524 . S
C837 C834 1.403 . S
C837 C838 1.392 . S
C837 C841 1.495 . S
C838 C837 1.392 . S
C838 C839 1.385 . S
C838 C840 1.478 . S
C839 H833 0.930 . S
C839 C835 1.400 . S
C839 C838 1.385 . S
C840 C838 1.478 . S
C840 C842 1.381 . S
C840 C846 1.383 . S
C841 C837 1.495 . S
C841 H847 0.959 . S
C841 H848 0.961 . S
C841 H849 0.960 . S
C842 C840 1.381 . S
C842 C843 1.394 . S
C842 H850 0.930 . S
C843 C842 1.394 . S
C843 C844 1.383 . S
C843 H851 0.929 . S
C844 C843 1.383 . S
C844 C845 1.377 . S
C845 H829 0.930 . S
C845 C844 1.377 . S
C845 C846 1.379 . S
C846 H830 0.931 . S
C846 C840 1.383 . S
C846 C845 1.379 . S
H847 C841 0.959 . S
H848 C841 0.961 . S
H849 C841 0.960 . S
H850 C842 0.930 . S
H851 C843 0.929 . S
H852 C860 0.929 . S
H853 C862 0.930 . S
H854 C864 0.930 . S
H855 C867 0.929 . S
H856 C870 0.930 . S
H857 C872 0.960 . S
H858 C872 0.960 . S
H859 C872 0.960 . S
C860 H852 0.929 . S
C860 C861 1.377 . S
C860 C862 1.384 . S
C861 C860 1.377 . S
C861 C867 1.390 . S
C862 H853 0.930 . S
C862 C860 1.384 . S
C862 C863 1.372 . S
C863 C862 1.372 . S
C863 C864 1.400 . S
C863 C868 1.490 . S
C864 H854 0.930 . S
C864 C863 1.400 . S
C864 C867 1.386 . S
H865 C881 0.930 . S
H866 C882 0.931 . S
C867 H855 0.929 . S
C867 C861 1.390 . S
C867 C864 1.386 . S
C868 C863 1.490 . S
C868 C870 1.395 . S
C868 C871 1.403 . S
H869 C875 0.930 . S
C870 H856 0.930 . S
C870 C868 1.395 . S
C870 C873 1.403 . S
C871 C868 1.403 . S
C871 C872 1.524 . S
C871 C875 1.400 . S
C872 H857 0.960 . S
C872 H858 0.960 . S
C872 H859 0.960 . S
C872 C871 1.524 . S
C873 C870 1.403 . S
C873 C874 1.392 . S
C873 C877 1.495 . S
C874 C873 1.392 . S
C874 C875 1.385 . S
C874 C876 1.478 . S
C875 H869 0.930 . S
C875 C871 1.400 . S
C875 C874 1.385 . S
C876 C874 1.478 . S
C876 C878 1.381 . S
C876 C882 1.383 . S
C877 C873 1.495 . S
C877 H883 0.959 . S
C877 H884 0.961 . S
C877 H885 0.960 . S
C878 C876 1.381 . S
C878 C879 1.394 . S
C878 H886 0.930 . S
C879 C878 1.394 . S
C879 C880 1.383 . S
C879 H887 0.929 . S
C880 C879 1.383 . S
C880 C881 1.377 . S
C881 H865 0.930 . S
C881 C880 1.377 . S
C881 C882 1.379 . S
C882 H866 0.931 . S
C882 C876 1.383 . S
C882 C881 1.379 . S
H883 C877 0.959 . S
H884 C877 0.961 . S
H885 C877 0.960 . S
H886 C878 0.930 . S
H887 C879 0.929 . S
H888 C896 0.929 . S
H889 C898 0.930 . S
H890 C900 0.930 . S
H891 C903 0.929 . S
H892 C906 0.930 . S
H893 C908 0.960 . S
H894 C908 0.960 . S
H895 C908 0.960 . S
C896 H888 0.929 . S
C896 C897 1.377 . S
C896 C898 1.384 . S
C897 C896 1.377 . S
C897 C903 1.390 . S
C898 H889 0.930 . S
C898 C896 1.384 . S
C898 C899 1.372 . S
C899 C898 1.372 . S
C899 C900 1.400 . S
C899 C904 1.490 . S
C900 H890 0.930 . S
C900 C899 1.400 . S
C900 C903 1.386 . S
H901 C917 0.930 . S
H902 C918 0.931 . S
C903 H891 0.929 . S
C903 C897 1.390 . S
C903 C900 1.386 . S
C904 C899 1.490 . S
C904 C906 1.395 . S
C904 C907 1.403 . S
H905 C911 0.930 . S
C906 H892 0.930 . S
C906 C904 1.395 . S
C906 C909 1.403 . S
C907 C904 1.403 . S
C907 C908 1.524 . S
C907 C911 1.400 . S
C908 H893 0.960 . S
C908 H894 0.960 . S
C908 H895 0.960 . S
C908 C907 1.524 . S
C909 C906 1.403 . S
C909 C910 1.392 . S
C909 C913 1.495 . S
C910 C909 1.392 . S
C910 C911 1.385 . S
C910 C912 1.478 . S
C911 H905 0.930 . S
C911 C907 1.400 . S
C911 C910 1.385 . S
C912 C910 1.478 . S
C912 C914 1.381 . S
C912 C918 1.383 . S
C913 C909 1.495 . S
C913 H919 0.959 . S
C913 H920 0.961 . S
C913 H921 0.960 . S
C914 C912 1.381 . S
C914 C915 1.394 . S
C914 H922 0.930 . S
C915 C914 1.394 . S
C915 C916 1.383 . S
C915 H923 0.929 1_554 S
C916 C915 1.383 . S
C916 C917 1.377 . S
C917 H901 0.930 . S
C917 C916 1.377 . S
C917 C918 1.379 . S
C918 H902 0.931 . S
C918 C912 1.383 . S
C918 C917 1.379 . S
H919 C913 0.959 . S
H920 C913 0.961 . S
H921 C913 0.960 . S
H922 C914 0.930 . S
H923 C915 0.929 1_556 S
H924 C932 0.929 . S
H925 C934 0.930 . S
H926 C936 0.930 . S
H927 C939 0.929 . S
H928 C942 0.930 . S
H929 C944 0.960 . S
H930 C944 0.960 . S
H931 C944 0.960 . S
C932 H924 0.929 . S
C932 C933 1.377 . S
C932 C934 1.384 . S
C933 C932 1.377 . S
C933 C939 1.390 . S
C934 H925 0.930 . S
C934 C932 1.384 . S
C934 C935 1.372 . S
C935 C934 1.372 . S
C935 C936 1.400 . S
C935 C940 1.490 . S
C936 H926 0.930 . S
C936 C935 1.400 . S
C936 C939 1.386 . S
H937 C953 0.930 . S
H938 C954 0.931 . S
C939 H927 0.929 . S
C939 C933 1.390 . S
C939 C936 1.386 . S
C940 C935 1.490 . S
C940 C942 1.395 . S
C940 C943 1.403 . S
H941 C947 0.930 . S
C942 H928 0.930 . S
C942 C940 1.395 . S
C942 C945 1.403 . S
C943 C940 1.403 . S
C943 C944 1.524 . S
C943 C947 1.400 . S
C944 H929 0.960 . S
C944 H930 0.960 . S
C944 H931 0.960 . S
C944 C943 1.524 . S
C945 C942 1.403 . S
C945 C946 1.392 . S
C945 C949 1.495 . S
C946 C945 1.392 . S
C946 C947 1.385 . S
C946 C948 1.478 . S
C947 H941 0.930 . S
C947 C943 1.400 . S
C947 C946 1.385 . S
C948 C946 1.478 . S
C948 C950 1.381 . S
C948 C954 1.383 . S
C949 C945 1.495 . S
C949 H955 0.959 . S
C949 H956 0.961 . S
C949 H957 0.960 . S
C950 C948 1.381 . S
C950 C951 1.394 . S
C950 H958 0.930 . S
C951 C950 1.394 . S
C951 C952 1.383 . S
C951 H959 0.929 . S
C952 C951 1.383 . S
C952 C953 1.377 . S
C953 H937 0.930 . S
C953 C952 1.377 . S
C953 C954 1.379 . S
C954 H938 0.931 . S
C954 C948 1.383 . S
C954 C953 1.379 . S
H955 C949 0.959 . S
H956 C949 0.961 . S
H957 C949 0.960 . S
H958 C950 0.930 . S
H959 C951 0.929 . S
H960 C968 0.929 . S
H961 C970 0.930 . S
H962 C972 0.930 . S
H963 C975 0.929 . S
H964 C978 0.930 . S
H965 C980 0.960 . S
H966 C980 0.960 . S
H967 C980 0.960 . S
C968 H960 0.929 . S
C968 C969 1.377 . S
C968 C970 1.384 . S
C969 C968 1.377 . S
C969 C975 1.390 . S
C970 H961 0.930 . S
C970 C968 1.384 . S
C970 C971 1.372 . S
C971 C970 1.372 . S
C971 C972 1.400 . S
C971 C976 1.490 . S
C972 H962 0.930 . S
C972 C971 1.400 . S
C972 C975 1.386 . S
H973 C989 0.930 . S
H974 C990 0.931 . S
C975 H963 0.929 . S
C975 C969 1.390 . S
C975 C972 1.386 . S
C976 C971 1.490 . S
C976 C978 1.395 . S
C976 C979 1.403 . S
H977 C983 0.930 . S
C978 H964 0.930 . S
C978 C976 1.395 . S
C978 C981 1.403 . S
C979 C976 1.403 . S
C979 C980 1.524 . S
C979 C983 1.400 . S
C980 H965 0.960 . S
C980 H966 0.960 . S
C980 H967 0.960 . S
C980 C979 1.524 . S
C981 C978 1.403 . S
C981 C982 1.392 . S
C981 C985 1.495 . S
C982 C981 1.392 . S
C982 C983 1.385 . S
C982 C984 1.478 . S
C983 H977 0.930 . S
C983 C979 1.400 . S
C983 C982 1.385 . S
C984 C982 1.478 . S
C984 C986 1.381 . S
C984 C990 1.383 . S
C985 C981 1.495 . S
C985 H991 0.959 . S
C985 H992 0.961 . S
C985 H993 0.960 . S
C986 C984 1.381 . S
C986 C987 1.394 . S
C986 H994 0.930 . S
C987 C986 1.394 . S
C987 C988 1.383 . S
C987 H995 0.929 . S
C988 C987 1.383 . S
C988 C989 1.377 . S
C989 H973 0.930 . S
C989 C988 1.377 . S
C989 C990 1.379 . S
C990 H974 0.931 . S
C990 C984 1.383 . S
C990 C989 1.379 . S
H991 C985 0.959 . S
H992 C985 0.961 . S
H993 C985 0.960 . S
H994 C986 0.930 . S
H995 C987 0.929 . S
H996 C1004 0.929 . S
H997 C1006 0.930 . S
H998 C1008 0.930 . S
H999 C1011 0.929 . S
H1000 C1014 0.930 . S
H1001 C1016 0.960 . S
H1002 C1016 0.960 . S
H1003 C1016 0.960 . S
C1004 H996 0.929 . S
C1004 C1005 1.377 . S
C1004 C1006 1.384 . S
C1005 C1004 1.377 . S
C1005 C1011 1.390 . S
C1006 H997 0.930 . S
C1006 C1004 1.384 . S
C1006 C1007 1.372 . S
C1007 C1006 1.372 . S
C1007 C1008 1.400 . S
C1007 C1012 1.490 . S
C1008 H998 0.930 . S
C1008 C1007 1.400 . S
C1008 C1011 1.386 . S
H1009 C1025 0.930 . S
H1010 C1026 0.931 . S
C1011 H999 0.929 . S
C1011 C1005 1.390 . S
C1011 C1008 1.386 . S
C1012 C1007 1.490 . S
C1012 C1014 1.395 . S
C1012 C1015 1.403 . S
H1013 C1019 0.930 . S
C1014 H1000 0.930 . S
C1014 C1012 1.395 . S
C1014 C1017 1.403 . S
C1015 C1012 1.403 . S
C1015 C1016 1.524 . S
C1015 C1019 1.400 . S
C1016 H1001 0.960 . S
C1016 H1002 0.960 . S
C1016 H1003 0.960 . S
C1016 C1015 1.524 . S
C1017 C1014 1.403 . S
C1017 C1018 1.392 . S
C1017 C1021 1.495 . S
C1018 C1017 1.392 . S
C1018 C1019 1.385 . S
C1018 C1020 1.478 . S
C1019 H1013 0.930 . S
C1019 C1015 1.400 . S
C1019 C1018 1.385 . S
C1020 C1018 1.478 . S
C1020 C1022 1.381 . S
C1020 C1026 1.383 . S
C1021 C1017 1.495 . S
C1021 H1027 0.959 . S
C1021 H1028 0.961 . S
C1021 H1029 0.960 . S
C1022 C1020 1.381 . S
C1022 C1023 1.394 . S
C1022 H1030 0.930 . S
C1023 C1022 1.394 . S
C1023 C1024 1.383 . S
C1023 H1031 0.929 . S
C1024 C1023 1.383 . S
C1024 C1025 1.377 . S
C1025 H1009 0.930 . S
C1025 C1024 1.377 . S
C1025 C1026 1.379 . S
C1026 H1010 0.931 . S
C1026 C1020 1.383 . S
C1026 C1025 1.379 . S
H1027 C1021 0.959 . S
H1028 C1021 0.961 . S
H1029 C1021 0.960 . S
H1030 C1022 0.930 . S
H1031 C1023 0.929 . S
H1032 C1040 0.929 . S
H1033 C1042 0.930 . S
H1034 C1044 0.930 . S
H1035 C1047 0.929 . S
H1036 C1050 0.930 . S
H1037 C1052 0.960 . S
H1038 C1052 0.960 . S
H1039 C1052 0.960 . S
C1040 H1032 0.929 . S
C1040 C1041 1.377 . S
C1040 C1042 1.384 . S
C1041 C1040 1.377 . S
C1041 C1047 1.390 . S
C1042 H1033 0.930 . S
C1042 C1040 1.384 . S
C1042 C1043 1.372 . S
C1043 C1042 1.372 . S
C1043 C1044 1.400 . S
C1043 C1048 1.490 . S
C1044 H1034 0.930 . S
C1044 C1043 1.400 . S
C1044 C1047 1.386 . S
H1045 C1061 0.930 . S
H1046 C1062 0.931 . S
C1047 H1035 0.929 . S
C1047 C1041 1.390 . S
C1047 C1044 1.386 . S
C1048 C1043 1.490 . S
C1048 C1050 1.395 . S
C1048 C1051 1.403 . S
H1049 C1055 0.930 . S
C1050 H1036 0.930 . S
C1050 C1048 1.395 . S
C1050 C1053 1.403 . S
C1051 C1048 1.403 . S
C1051 C1052 1.524 . S
C1051 C1055 1.400 . S
C1052 H1037 0.960 . S
C1052 H1038 0.960 . S
C1052 H1039 0.960 . S
C1052 C1051 1.524 . S
C1053 C1050 1.403 . S
C1053 C1054 1.392 . S
C1053 C1057 1.495 . S
C1054 C1053 1.392 . S
C1054 C1055 1.385 . S
C1054 C1056 1.478 . S
C1055 H1049 0.930 . S
C1055 C1051 1.400 . S
C1055 C1054 1.385 . S
C1056 C1054 1.478 . S
C1056 C1058 1.381 . S
C1056 C1062 1.383 . S
C1057 C1053 1.495 . S
C1057 H1063 0.959 . S
C1057 H1064 0.961 . S
C1057 H1065 0.960 . S
C1058 C1056 1.381 . S
C1058 C1059 1.394 . S
C1058 H1066 0.930 . S
C1059 C1058 1.394 . S
C1059 C1060 1.383 . S
C1059 H1067 0.929 . S
C1060 C1059 1.383 . S
C1060 C1061 1.377 . S
C1061 H1045 0.930 . S
C1061 C1060 1.377 . S
C1061 C1062 1.379 . S
C1062 H1046 0.931 . S
C1062 C1056 1.383 . S
C1062 C1061 1.379 . S
H1063 C1057 0.959 . S
H1064 C1057 0.961 . S
H1065 C1057 0.960 . S
H1066 C1058 0.930 . S
H1067 C1059 0.929 . S
H1068 C1076 0.929 . S
H1069 C1078 0.930 . S
H1070 C1080 0.930 . S
H1071 C1083 0.929 . S
H1072 C1086 0.930 . S
H1073 C1088 0.960 . S
H1074 C1088 0.960 . S
H1075 C1088 0.960 . S
C1076 H1068 0.929 . S
C1076 C1077 1.377 . S
C1076 C1078 1.384 . S
C1077 C1076 1.377 . S
C1077 C1083 1.390 . S
C1078 H1069 0.930 . S
C1078 C1076 1.384 . S
C1078 C1079 1.372 . S
C1079 C1078 1.372 . S
C1079 C1080 1.400 . S
C1079 C1084 1.490 . S
C1080 H1070 0.930 . S
C1080 C1079 1.400 . S
C1080 C1083 1.386 . S
H1081 C1097 0.930 . S
H1082 C1098 0.931 . S
C1083 H1071 0.929 . S
C1083 C1077 1.390 . S
C1083 C1080 1.386 . S
C1084 C1079 1.490 . S
C1084 C1086 1.395 . S
C1084 C1087 1.403 . S
H1085 C1091 0.930 . S
C1086 H1072 0.930 . S
C1086 C1084 1.395 . S
C1086 C1089 1.403 . S
C1087 C1084 1.403 . S
C1087 C1088 1.524 . S
C1087 C1091 1.400 . S
C1088 H1073 0.960 . S
C1088 H1074 0.960 . S
C1088 H1075 0.960 . S
C1088 C1087 1.524 . S
C1089 C1086 1.403 . S
C1089 C1090 1.392 . S
C1089 C1093 1.495 . S
C1090 C1089 1.392 . S
C1090 C1091 1.385 . S
C1090 C1092 1.478 . S
C1091 H1085 0.930 . S
C1091 C1087 1.400 . S
C1091 C1090 1.385 . S
C1092 C1090 1.478 . S
C1092 C1094 1.381 . S
C1092 C1098 1.383 . S
C1093 C1089 1.495 . S
C1093 H1099 0.959 . S
C1093 H1100 0.961 . S
C1093 H1101 0.960 . S
C1094 C1092 1.381 . S
C1094 C1095 1.394 . S
C1094 H1102 0.930 . S
C1095 C1094 1.394 . S
C1095 C1096 1.383 . S
C1095 H1103 0.929 . S
C1096 C1095 1.383 . S
C1096 C1097 1.377 . S
C1097 H1081 0.930 . S
C1097 C1096 1.377 . S
C1097 C1098 1.379 . S
C1098 H1082 0.931 . S
C1098 C1092 1.383 . S
C1098 C1097 1.379 . S
H1099 C1093 0.959 . S
H1100 C1093 0.961 . S
H1101 C1093 0.960 . S
H1102 C1094 0.930 . S
H1103 C1095 0.929 . S
H1104 C1112 0.929 . S
H1105 C1114 0.930 . S
H1106 C1116 0.930 . S
H1107 C1119 0.929 . S
H1108 C1122 0.930 . S
H1109 C1124 0.960 . S
H1110 C1124 0.960 . S
H1111 C1124 0.960 . S
C1112 H1104 0.929 . S
C1112 C1113 1.377 . S
C1112 C1114 1.384 . S
C1113 C1112 1.377 . S
C1113 C1119 1.390 . S
C1114 H1105 0.930 . S
C1114 C1112 1.384 . S
C1114 C1115 1.372 . S
C1115 C1114 1.372 . S
C1115 C1116 1.400 . S
C1115 C1120 1.490 . S
C1116 H1106 0.930 . S
C1116 C1115 1.400 . S
C1116 C1119 1.386 . S
H1117 C1133 0.930 . S
H1118 C1134 0.931 . S
C1119 H1107 0.929 . S
C1119 C1113 1.390 . S
C1119 C1116 1.386 . S
C1120 C1115 1.490 . S
C1120 C1122 1.395 . S
C1120 C1123 1.403 . S
H1121 C1127 0.930 . S
C1122 H1108 0.930 . S
C1122 C1120 1.395 . S
C1122 C1125 1.403 . S
C1123 C1120 1.403 . S
C1123 C1124 1.524 . S
C1123 C1127 1.400 . S
C1124 H1109 0.960 . S
C1124 H1110 0.960 . S
C1124 H1111 0.960 . S
C1124 C1123 1.524 . S
C1125 C1122 1.403 . S
C1125 C1126 1.392 . S
C1125 C1129 1.495 . S
C1126 C1125 1.392 . S
C1126 C1127 1.385 . S
C1126 C1128 1.478 . S
C1127 H1121 0.930 . S
C1127 C1123 1.400 . S
C1127 C1126 1.385 . S
C1128 C1126 1.478 . S
C1128 C1130 1.381 . S
C1128 C1134 1.383 . S
C1129 C1125 1.495 . S
C1129 H1135 0.959 . S
C1129 H1136 0.961 . S
C1129 H1137 0.960 . S
C1130 C1128 1.381 . S
C1130 C1131 1.394 . S
C1130 H1138 0.930 . S
C1131 C1130 1.394 . S
C1131 C1132 1.383 . S
C1131 H1139 0.929 . S
C1132 C1131 1.383 . S
C1132 C1133 1.377 . S
C1133 H1117 0.930 . S
C1133 C1132 1.377 . S
C1133 C1134 1.379 . S
C1134 H1118 0.931 . S
C1134 C1128 1.383 . S
C1134 C1133 1.379 . S
H1135 C1129 0.959 . S
H1136 C1129 0.961 . S
H1137 C1129 0.960 . S
H1138 C1130 0.930 . S
H1139 C1131 0.929 . S
H1140 C1148 0.929 . S
H1141 C1150 0.930 . S
H1142 C1152 0.930 . S
H1143 C1155 0.929 . S
H1144 C1158 0.930 . S
H1145 C1160 0.960 . S
H1146 C1160 0.960 . S
H1147 C1160 0.960 . S
C1148 H1140 0.929 . S
C1148 C1149 1.377 . S
C1148 C1150 1.384 . S
C1149 C1148 1.377 . S
C1149 C1155 1.390 . S
C1150 H1141 0.930 . S
C1150 C1148 1.384 . S
C1150 C1151 1.372 . S
C1151 C1150 1.372 . S
C1151 C1152 1.400 . S
C1151 C1156 1.490 . S
C1152 H1142 0.930 . S
C1152 C1151 1.400 . S
C1152 C1155 1.386 . S
H1153 C1169 0.930 . S
H1154 C1170 0.931 . S
C1155 H1143 0.929 . S
C1155 C1149 1.390 . S
C1155 C1152 1.386 . S
C1156 C1151 1.490 . S
C1156 C1158 1.395 . S
C1156 C1159 1.403 . S
H1157 C1163 0.930 . S
C1158 H1144 0.930 . S
C1158 C1156 1.395 . S
C1158 C1161 1.403 . S
C1159 C1156 1.403 . S
C1159 C1160 1.524 . S
C1159 C1163 1.400 . S
C1160 H1145 0.960 . S
C1160 H1146 0.960 . S
C1160 H1147 0.960 . S
C1160 C1159 1.524 . S
C1161 C1158 1.403 . S
C1161 C1162 1.392 . S
C1161 C1165 1.495 . S
C1162 C1161 1.392 . S
C1162 C1163 1.385 . S
C1162 C1164 1.478 . S
C1163 H1157 0.930 . S
C1163 C1159 1.400 . S
C1163 C1162 1.385 . S
C1164 C1162 1.478 . S
C1164 C1166 1.381 . S
C1164 C1170 1.383 . S
C1165 C1161 1.495 . S
C1165 H1171 0.959 . S
C1165 H1172 0.961 . S
C1165 H1173 0.960 . S
C1166 C1164 1.381 . S
C1166 C1167 1.394 . S
C1166 H1174 0.930 . S
C1167 C1166 1.394 . S
C1167 C1168 1.383 . S
C1167 H1175 0.929 . S
C1168 C1167 1.383 . S
C1168 C1169 1.377 . S
C1169 H1153 0.930 . S
C1169 C1168 1.377 . S
C1169 C1170 1.379 . S
C1170 H1154 0.931 . S
C1170 C1164 1.383 . S
C1170 C1169 1.379 . S
H1171 C1165 0.959 . S
H1172 C1165 0.961 . S
H1173 C1165 0.960 . S
H1174 C1166 0.930 . S
H1175 C1167 0.929 . S
H1176 C1184 0.929 . S
H1177 C1186 0.930 . S
H1178 C1188 0.930 . S
H1179 C1191 0.929 . S
H1180 C1194 0.930 . S
H1181 C1196 0.960 . S
H1182 C1196 0.960 . S
H1183 C1196 0.960 . S
C1184 H1176 0.929 . S
C1184 C1185 1.377 . S
C1184 C1186 1.384 . S
C1185 C1184 1.377 . S
C1185 C1191 1.390 . S
C1186 H1177 0.930 . S
C1186 C1184 1.384 . S
C1186 C1187 1.372 . S
C1187 C1186 1.372 . S
C1187 C1188 1.400 . S
C1187 C1192 1.490 . S
C1188 H1178 0.930 . S
C1188 C1187 1.400 . S
C1188 C1191 1.386 . S
H1189 C1205 0.930 . S
H1190 C1206 0.931 . S
C1191 H1179 0.929 . S
C1191 C1185 1.390 . S
C1191 C1188 1.386 . S
C1192 C1187 1.490 . S
C1192 C1194 1.395 . S
C1192 C1195 1.403 . S
H1193 C1199 0.930 . S
C1194 H1180 0.930 . S
C1194 C1192 1.395 . S
C1194 C1197 1.403 . S
C1195 C1192 1.403 . S
C1195 C1196 1.524 . S
C1195 C1199 1.400 . S
C1196 H1181 0.960 . S
C1196 H1182 0.960 . S
C1196 H1183 0.960 . S
C1196 C1195 1.524 . S
C1197 C1194 1.403 . S
C1197 C1198 1.392 . S
C1197 C1201 1.495 . S
C1198 C1197 1.392 . S
C1198 C1199 1.385 . S
C1198 C1200 1.478 . S
C1199 H1193 0.930 . S
C1199 C1195 1.400 . S
C1199 C1198 1.385 . S
C1200 C1198 1.478 . S
C1200 C1202 1.381 . S
C1200 C1206 1.383 . S
C1201 C1197 1.495 . S
C1201 H1207 0.959 . S
C1201 H1208 0.961 . S
C1201 H1209 0.960 . S
C1202 C1200 1.381 . S
C1202 C1203 1.394 . S
C1202 H1210 0.930 . S
C1203 C1202 1.394 . S
C1203 C1204 1.383 . S
C1203 H1211 0.929 . S
C1204 C1203 1.383 . S
C1204 C1205 1.377 . S
C1205 H1189 0.930 . S
C1205 C1204 1.377 . S
C1205 C1206 1.379 . S
C1206 H1190 0.931 . S
C1206 C1200 1.383 . S
C1206 C1205 1.379 . S
H1207 C1201 0.959 . S
H1208 C1201 0.961 . S
H1209 C1201 0.960 . S
H1210 C1202 0.930 . S
H1211 C1203 0.929 . S
H1212 C1220 0.929 . S
H1213 C1222 0.930 . S
H1214 C1224 0.930 . S
H1215 C1227 0.929 . S
H1216 C1230 0.930 . S
H1217 C1232 0.960 . S
H1218 C1232 0.960 . S
H1219 C1232 0.960 . S
C1220 H1212 0.929 . S
C1220 C1221 1.377 . S
C1220 C1222 1.384 . S
C1221 C1220 1.377 . S
C1221 C1227 1.390 . S
C1222 H1213 0.930 . S
C1222 C1220 1.384 . S
C1222 C1223 1.372 . S
C1223 C1222 1.372 . S
C1223 C1224 1.400 . S
C1223 C1228 1.490 . S
C1224 H1214 0.930 . S
C1224 C1223 1.400 . S
C1224 C1227 1.386 . S
H1225 C1241 0.930 . S
H1226 C1242 0.931 . S
C1227 H1215 0.929 . S
C1227 C1221 1.390 . S
C1227 C1224 1.386 . S
C1228 C1223 1.490 . S
C1228 C1230 1.395 . S
C1228 C1231 1.403 . S
H1229 C1235 0.930 . S
C1230 H1216 0.930 . S
C1230 C1228 1.395 . S
C1230 C1233 1.403 . S
C1231 C1228 1.403 . S
C1231 C1232 1.524 . S
C1231 C1235 1.400 . S
C1232 H1217 0.960 . S
C1232 H1218 0.960 . S
C1232 H1219 0.960 . S
C1232 C1231 1.524 . S
C1233 C1230 1.403 . S
C1233 C1234 1.392 . S
C1233 C1237 1.495 . S
C1234 C1233 1.392 . S
C1234 C1235 1.385 . S
C1234 C1236 1.478 . S
C1235 H1229 0.930 . S
C1235 C1231 1.400 . S
C1235 C1234 1.385 . S
C1236 C1234 1.478 . S
C1236 C1238 1.381 . S
C1236 C1242 1.383 . S
C1237 C1233 1.495 . S
C1237 H1243 0.959 . S
C1237 H1244 0.961 . S
C1237 H1245 0.960 . S
C1238 C1236 1.381 . S
C1238 C1239 1.394 . S
C1238 H1246 0.930 . S
C1239 C1238 1.394 . S
C1239 C1240 1.383 . S
C1239 H1247 0.929 . S
C1240 C1239 1.383 . S
C1240 C1241 1.377 . S
C1241 H1225 0.930 . S
C1241 C1240 1.377 . S
C1241 C1242 1.379 . S
C1242 H1226 0.931 . S
C1242 C1236 1.383 . S
C1242 C1241 1.379 . S
H1243 C1237 0.959 . S
H1244 C1237 0.961 . S
H1245 C1237 0.960 . S
H1246 C1238 0.930 . S
H1247 C1239 0.929 . S
H1248 C1256 0.929 . S
H1249 C1258 0.930 . S
H1250 C1260 0.934 . S
H1251 C1263 0.928 1_455 S
H1252 C1266 0.930 . S
H1253 C1268 0.960 . S
H1254 C1268 0.960 . S
H1255 C1268 0.960 . S
C1256 H1248 0.929 . S
C1256 C1257 1.377 1_545 S
C1256 C1258 1.384 . S
C1257 C1256 1.377 1_565 S
C1257 C1263 1.390 . S
C1258 H1249 0.930 . S
C1258 C1256 1.384 . S
C1258 C1259 1.372 1_545 S
C1259 C1258 1.372 1_565 S
C1259 C1260 1.398 1_655 S
C1259 C1264 1.489 1_565 S
C1260 H1250 0.934 . S
C1260 C1259 1.398 1_455 S
C1260 C1263 1.385 1_455 S
H1261 C1277 0.929 . S
H1262 C1278 0.931 . S
C1263 H1251 0.928 1_655 S
C1263 C1257 1.390 . S
C1263 C1260 1.385 1_655 S
C1264 C1259 1.489 1_545 S
C1264 C1266 1.407 . S
C1264 C1267 1.393 1_645 S
H1265 C1271 0.930 . S
C1266 H1252 0.930 . S
C1266 C1264 1.407 . S
C1266 C1269 1.403 1_556 S
C1267 C1264 1.393 1_465 S
C1267 C1268 1.524 . S
C1267 C1271 1.400 1_556 S
C1268 H1253 0.960 . S
C1268 H1254 0.960 . S
C1268 H1255 0.960 . S
C1268 C1267 1.524 . S
C1269 C1266 1.403 1_554 S
C1269 C1270 1.392 . S
C1269 C1273 1.495 . S
C1270 C1269 1.392 . S
C1270 C1271 1.385 1_645 S
C1270 C1272 1.478 . S
C1271 H1265 0.930 . S
C1271 C1267 1.400 1_554 S
C1271 C1270 1.385 1_465 S
C1272 C1270 1.478 . S
C1272 C1274 1.381 . S
C1272 C1278 1.383 1_545 S
C1273 C1269 1.495 . S
C1273 H1279 0.959 . S
C1273 H1280 0.961 . S
C1273 H1281 0.960 . S
C1274 C1272 1.381 . S
C1274 C1275 1.392 1_655 S
C1274 H1282 0.930 . S
C1275 C1274 1.392 1_455 S
C1275 C1276 1.384 . S
C1275 H1283 0.933 . S
C1276 C1275 1.384 . S
C1276 C1277 1.376 1_445 S
C1277 H1261 0.929 . S
C1277 C1276 1.376 1_665 S
C1277 C1278 1.381 . S
C1278 H1262 0.931 . S
C1278 C1272 1.383 1_565 S
C1278 C1277 1.381 . S
H1279 C1273 0.959 . S
H1280 C1273 0.961 . S
H1281 C1273 0.960 . S
H1282 C1274 0.930 . S
H1283 C1275 0.933 . S
H1284 C1292 0.929 . S
H1285 C1294 0.930 . S
H1286 C1296 0.930 . S
H1287 C1299 0.929 . S
H1288 C1302 0.930 . S
H1289 C1304 0.960 . S
H1290 C1304 0.960 . S
H1291 C1304 0.960 . S
C1292 H1284 0.929 . S
C1292 C1293 1.377 . S
C1292 C1294 1.384 . S
C1293 C1292 1.377 . S
C1293 C1299 1.390 . S
C1294 H1285 0.930 . S
C1294 C1292 1.384 . S
C1294 C1295 1.372 . S
C1295 C1294 1.372 . S
C1295 C1296 1.400 . S
C1295 C1300 1.490 . S
C1296 H1286 0.930 . S
C1296 C1295 1.400 . S
C1296 C1299 1.386 . S
H1297 C1313 0.930 . S
H1298 C1314 0.931 . S
C1299 H1287 0.929 . S
C1299 C1293 1.390 . S
C1299 C1296 1.386 . S
C1300 C1295 1.490 . S
C1300 C1302 1.395 . S
C1300 C1303 1.403 . S
H1301 C1307 0.930 . S
C1302 H1288 0.930 . S
C1302 C1300 1.395 . S
C1302 C1305 1.403 . S
C1303 C1300 1.403 . S
C1303 C1304 1.524 . S
C1303 C1307 1.400 . S
C1304 H1289 0.960 . S
C1304 H1290 0.960 . S
C1304 H1291 0.960 . S
C1304 C1303 1.524 . S
C1305 C1302 1.403 . S
C1305 C1306 1.392 . S
C1305 C1309 1.495 . S
C1306 C1305 1.392 . S
C1306 C1307 1.385 . S
C1306 C1308 1.478 . S
C1307 H1301 0.930 . S
C1307 C1303 1.400 . S
C1307 C1306 1.385 . S
C1308 C1306 1.478 . S
C1308 C1310 1.381 . S
C1308 C1314 1.383 . S
C1309 C1305 1.495 . S
C1309 H1315 0.959 . S
C1309 H1316 0.961 . S
C1309 H1317 0.960 . S
C1310 C1308 1.381 . S
C1310 C1311 1.394 . S
C1310 H1318 0.930 . S
C1311 C1310 1.394 . S
C1311 C1312 1.383 . S
C1311 H1319 0.929 . S
C1312 C1311 1.383 . S
C1312 C1313 1.377 . S
C1313 H1297 0.930 . S
C1313 C1312 1.377 . S
C1313 C1314 1.379 . S
C1314 H1298 0.931 . S
C1314 C1308 1.383 . S
C1314 C1313 1.379 . S
H1315 C1309 0.959 . S
H1316 C1309 0.961 . S
H1317 C1309 0.960 . S
H1318 C1310 0.930 . S
H1319 C1311 0.929 . S
H1320 C1328 0.929 1_545 S
H1321 C1330 0.930 . S
H1322 C1332 0.930 . S
H1323 C1335 0.929 . S
H1324 C1338 0.930 . S
H1325 C1340 0.960 . S
H1326 C1340 0.960 . S
H1327 C1340 0.960 . S
C1328 H1320 0.929 1_565 S
C1328 C1329 1.378 . S
C1328 C1330 1.384 1_565 S
C1329 C1328 1.378 . S
C1329 C1335 1.390 . S
C1330 H1321 0.930 . S
C1330 C1328 1.384 1_545 S
C1330 C1331 1.372 1_545 S
C1331 C1330 1.372 1_565 S
C1331 C1332 1.400 . S
C1331 C1336 1.490 . S
C1332 H1322 0.930 . S
C1332 C1331 1.400 . S
C1332 C1335 1.386 . S
H1333 C1349 0.930 . S
H1334 C1350 0.931 . S
C1335 H1323 0.929 . S
C1335 C1329 1.390 . S
C1335 C1332 1.386 . S
C1336 C1331 1.490 . S
C1336 C1338 1.395 . S
C1336 C1339 1.403 1_565 S
H1337 C1343 0.930 . S
C1338 H1324 0.930 . S
C1338 C1336 1.395 . S
C1338 C1341 1.403 . S
C1339 C1336 1.403 1_545 S
C1339 C1340 1.524 . S
C1339 C1343 1.400 . S
C1340 H1325 0.960 . S
C1340 H1326 0.960 . S
C1340 H1327 0.960 . S
C1340 C1339 1.524 . S
C1341 C1338 1.403 . S
C1341 C1342 1.392 . S
C1341 C1345 1.495 . S
C1342 C1341 1.392 . S
C1342 C1343 1.385 1_565 S
C1342 C1344 1.479 . S
C1343 H1337 0.930 . S
C1343 C1339 1.400 . S
C1343 C1342 1.385 1_545 S
C1344 C1342 1.479 . S
C1344 C1346 1.375 1_565 S
C1344 C1350 1.387 . S
C1345 C1341 1.495 . S
C1345 H1351 0.959 . S
C1345 H1352 0.961 . S
C1345 H1353 0.960 . S
C1346 C1344 1.375 1_545 S
C1346 C1347 1.394 . S
C1346 H1354 0.930 . S
C1347 C1346 1.394 . S
C1347 C1348 1.383 . S
C1347 H1355 0.929 . S
C1348 C1347 1.383 . S
C1348 C1349 1.377 1_545 S
C1349 H1333 0.930 . S
C1349 C1348 1.377 1_565 S
C1349 C1350 1.379 . S
C1350 H1334 0.931 . S
C1350 C1344 1.387 . S
C1350 C1349 1.379 . S
H1351 C1345 0.959 . S
H1352 C1345 0.961 . S
H1353 C1345 0.960 . S
H1354 C1346 0.930 . S
H1355 C1347 0.929 . S
H1356 C1364 0.929 . S
H1357 C1366 0.930 . S
H1358 C1368 0.930 . S
H1359 C1371 0.929 . S
H1360 C1374 0.930 . S
H1361 C1376 0.960 . S
H1362 C1376 0.960 . S
H1363 C1376 0.960 . S
C1364 H1356 0.929 . S
C1364 C1365 1.377 . S
C1364 C1366 1.384 . S
C1365 C1364 1.377 . S
C1365 C1371 1.390 . S
C1366 H1357 0.930 . S
C1366 C1364 1.384 . S
C1366 C1367 1.372 . S
C1367 C1366 1.372 . S
C1367 C1368 1.400 . S
C1367 C1372 1.490 . S
C1368 H1358 0.930 . S
C1368 C1367 1.400 . S
C1368 C1371 1.386 . S
H1369 C1385 0.930 . S
H1370 C1386 0.931 . S
C1371 H1359 0.929 . S
C1371 C1365 1.390 . S
C1371 C1368 1.386 . S
C1372 C1367 1.490 . S
C1372 C1374 1.395 . S
C1372 C1375 1.403 . S
H1373 C1379 0.930 . S
C1374 H1360 0.930 . S
C1374 C1372 1.395 . S
C1374 C1377 1.403 . S
C1375 C1372 1.403 . S
C1375 C1376 1.524 . S
C1375 C1379 1.400 . S
C1376 H1361 0.960 . S
C1376 H1362 0.960 . S
C1376 H1363 0.960 . S
C1376 C1375 1.524 . S
C1377 C1374 1.403 . S
C1377 C1378 1.392 . S
C1377 C1381 1.495 . S
C1378 C1377 1.392 . S
C1378 C1379 1.385 . S
C1378 C1380 1.478 . S
C1379 H1373 0.930 . S
C1379 C1375 1.400 . S
C1379 C1378 1.385 . S
C1380 C1378 1.478 . S
C1380 C1382 1.381 . S
C1380 C1386 1.383 . S
C1381 C1377 1.495 . S
C1381 H1387 0.959 . S
C1381 H1388 0.961 . S
C1381 H1389 0.960 . S
C1382 C1380 1.381 . S
C1382 C1383 1.394 . S
C1382 H1390 0.930 . S
C1383 C1382 1.394 . S
C1383 C1384 1.383 . S
C1383 H1391 0.929 . S
C1384 C1383 1.383 . S
C1384 C1385 1.377 . S
C1385 H1369 0.930 . S
C1385 C1384 1.377 . S
C1385 C1386 1.379 . S
C1386 H1370 0.931 . S
C1386 C1380 1.383 . S
C1386 C1385 1.379 . S
H1387 C1381 0.959 . S
H1388 C1381 0.961 . S
H1389 C1381 0.960 . S
H1390 C1382 0.930 . S
H1391 C1383 0.929 . S
H1392 C1400 0.929 . S
H1393 C1402 0.930 . S
H1394 C1404 0.930 . S
H1395 C1407 0.929 . S
H1396 C1410 0.930 . S
H1397 C1412 0.960 . S
H1398 C1412 0.960 . S
H1399 C1412 0.960 . S
C1400 H1392 0.929 . S
C1400 C1401 1.377 . S
C1400 C1402 1.384 . S
C1401 C1400 1.377 . S
C1401 C1407 1.390 . S
C1402 H1393 0.930 . S
C1402 C1400 1.384 . S
C1402 C1403 1.372 . S
C1403 C1402 1.372 . S
C1403 C1404 1.400 . S
C1403 C1408 1.490 . S
C1404 H1394 0.930 . S
C1404 C1403 1.400 . S
C1404 C1407 1.386 . S
H1405 C1421 0.930 . S
H1406 C1422 0.931 . S
C1407 H1395 0.929 . S
C1407 C1401 1.390 . S
C1407 C1404 1.386 . S
C1408 C1403 1.490 . S
C1408 C1410 1.395 . S
C1408 C1411 1.403 . S
H1409 C1415 0.930 . S
C1410 H1396 0.930 . S
C1410 C1408 1.395 . S
C1410 C1413 1.403 . S
C1411 C1408 1.403 . S
C1411 C1412 1.524 . S
C1411 C1415 1.400 . S
C1412 H1397 0.960 . S
C1412 H1398 0.960 . S
C1412 H1399 0.960 . S
C1412 C1411 1.524 . S
C1413 C1410 1.403 . S
C1413 C1414 1.392 . S
C1413 C1417 1.495 . S
C1414 C1413 1.392 . S
C1414 C1415 1.385 . S
C1414 C1416 1.478 . S
C1415 H1409 0.930 . S
C1415 C1411 1.400 . S
C1415 C1414 1.385 . S
C1416 C1414 1.478 . S
C1416 C1418 1.381 . S
C1416 C1422 1.383 . S
C1417 C1413 1.495 . S
C1417 H1423 0.959 . S
C1417 H1424 0.961 . S
C1417 H1425 0.960 . S
C1418 C1416 1.381 . S
C1418 C1419 1.394 . S
C1418 H1426 0.930 . S
C1419 C1418 1.394 . S
C1419 C1420 1.383 . S
C1419 H1427 0.929 . S
C1420 C1419 1.383 . S
C1420 C1421 1.377 . S
C1421 H1405 0.930 . S
C1421 C1420 1.377 . S
C1421 C1422 1.379 . S
C1422 H1406 0.931 . S
C1422 C1416 1.383 . S
C1422 C1421 1.379 . S
H1423 C1417 0.959 . S
H1424 C1417 0.961 . S
H1425 C1417 0.960 . S
H1426 C1418 0.930 . S
H1427 C1419 0.929 . S
H1428 C1436 0.929 . S
H1429 C1438 0.930 . S
H1430 C1440 0.930 . S
H1431 C1443 0.929 . S
H1432 C1446 0.930 . S
H1433 C1448 0.960 . S
H1434 C1448 0.960 . S
H1435 C1448 0.960 . S
C1436 H1428 0.929 . S
C1436 C1437 1.377 . S
C1436 C1438 1.384 . S
C1437 C1436 1.377 . S
C1437 C1443 1.390 . S
C1438 H1429 0.930 . S
C1438 C1436 1.384 . S
C1438 C1439 1.372 . S
C1439 C1438 1.372 . S
C1439 C1440 1.400 . S
C1439 C1444 1.490 . S
C1440 H1430 0.930 . S
C1440 C1439 1.400 . S
C1440 C1443 1.386 . S
H1441 C1457 0.930 . S
H1442 C1458 0.931 . S
C1443 H1431 0.929 . S
C1443 C1437 1.390 . S
C1443 C1440 1.386 . S
C1444 C1439 1.490 . S
C1444 C1446 1.395 . S
C1444 C1447 1.403 . S
H1445 C1451 0.930 . S
C1446 H1432 0.930 . S
C1446 C1444 1.395 . S
C1446 C1449 1.403 . S
C1447 C1444 1.403 . S
C1447 C1448 1.524 . S
C1447 C1451 1.400 . S
C1448 H1433 0.960 . S
C1448 H1434 0.960 . S
C1448 H1435 0.960 . S
C1448 C1447 1.524 . S
C1449 C1446 1.403 . S
C1449 C1450 1.392 . S
C1449 C1453 1.495 . S
C1450 C1449 1.392 . S
C1450 C1451 1.385 . S
C1450 C1452 1.478 . S
C1451 H1445 0.930 . S
C1451 C1447 1.400 . S
C1451 C1450 1.385 . S
C1452 C1450 1.478 . S
C1452 C1454 1.381 . S
C1452 C1458 1.383 . S
C1453 C1449 1.495 . S
C1453 H1459 0.959 . S
C1453 H1460 0.961 . S
C1453 H1461 0.960 . S
C1454 C1452 1.381 . S
C1454 C1455 1.394 . S
C1454 H1462 0.930 . S
C1455 C1454 1.394 . S
C1455 C1456 1.383 . S
C1455 H1463 0.929 . S
C1456 C1455 1.383 . S
C1456 C1457 1.377 . S
C1457 H1441 0.930 . S
C1457 C1456 1.377 . S
C1457 C1458 1.379 . S
C1458 H1442 0.931 . S
C1458 C1452 1.383 . S
C1458 C1457 1.379 . S
H1459 C1453 0.959 . S
H1460 C1453 0.961 . S
H1461 C1453 0.960 . S
H1462 C1454 0.930 . S
H1463 C1455 0.929 . S
H1464 C1472 0.929 . S
H1465 C1474 0.930 . S
H1466 C1476 0.930 . S
H1467 C1479 0.929 . S
H1468 C1482 0.930 . S
H1469 C1484 0.960 . S
H1470 C1484 0.960 . S
H1471 C1484 0.960 . S
C1472 H1464 0.929 . S
C1472 C1473 1.377 . S
C1472 C1474 1.384 . S
C1473 C1472 1.377 . S
C1473 C1479 1.390 . S
C1474 H1465 0.930 . S
C1474 C1472 1.384 . S
C1474 C1475 1.372 . S
C1475 C1474 1.372 . S
C1475 C1476 1.400 . S
C1475 C1480 1.490 . S
C1476 H1466 0.930 . S
C1476 C1475 1.400 . S
C1476 C1479 1.386 . S
H1477 C1493 0.930 . S
H1478 C1494 0.931 . S
C1479 H1467 0.929 . S
C1479 C1473 1.390 . S
C1479 C1476 1.386 . S
C1480 C1475 1.490 . S
C1480 C1482 1.395 . S
C1480 C1483 1.403 . S
H1481 C1487 0.930 . S
C1482 H1468 0.930 . S
C1482 C1480 1.395 . S
C1482 C1485 1.403 . S
C1483 C1480 1.403 . S
C1483 C1484 1.524 . S
C1483 C1487 1.400 . S
C1484 H1469 0.960 . S
C1484 H1470 0.960 . S
C1484 H1471 0.960 . S
C1484 C1483 1.524 . S
C1485 C1482 1.403 . S
C1485 C1486 1.392 . S
C1485 C1489 1.495 . S
C1486 C1485 1.392 . S
C1486 C1487 1.385 . S
C1486 C1488 1.478 . S
C1487 H1481 0.930 . S
C1487 C1483 1.400 . S
C1487 C1486 1.385 . S
C1488 C1486 1.478 . S
C1488 C1490 1.381 . S
C1488 C1494 1.383 . S
C1489 C1485 1.495 . S
C1489 H1495 0.959 . S
C1489 H1496 0.961 . S
C1489 H1497 0.960 . S
C1490 C1488 1.381 . S
C1490 C1491 1.394 . S
C1490 H1498 0.930 . S
C1491 C1490 1.394 . S
C1491 C1492 1.383 . S
C1491 H1499 0.929 . S
C1492 C1491 1.383 . S
C1492 C1493 1.377 . S
C1493 H1477 0.930 . S
C1493 C1492 1.377 . S
C1493 C1494 1.379 . S
C1494 H1478 0.931 . S
C1494 C1488 1.383 . S
C1494 C1493 1.379 . S
H1495 C1489 0.959 . S
H1496 C1489 0.961 . S
H1497 C1489 0.960 . S
H1498 C1490 0.930 . S
H1499 C1491 0.929 . S
H1500 C1508 0.929 . S
H1501 C1510 0.930 . S
H1502 C1512 0.930 . S
H1503 C1515 0.929 . S
H1504 C1518 0.930 . S
H1505 C1520 0.960 . S
H1506 C1520 0.960 . S
H1507 C1520 0.960 . S
C1508 H1500 0.929 . S
C1508 C1509 1.377 . S
C1508 C1510 1.384 . S
C1509 C1508 1.377 . S
C1509 C1515 1.390 . S
C1510 H1501 0.930 . S
C1510 C1508 1.384 . S
C1510 C1511 1.372 . S
C1511 C1510 1.372 . S
C1511 C1512 1.400 . S
C1511 C1516 1.490 . S
C1512 H1502 0.930 . S
C1512 C1511 1.400 . S
C1512 C1515 1.386 . S
H1513 C1529 0.930 . S
H1514 C1530 0.931 . S
C1515 H1503 0.929 . S
C1515 C1509 1.390 . S
C1515 C1512 1.386 . S
C1516 C1511 1.490 . S
C1516 C1518 1.397 1_655 S
C1516 C1519 1.400 . S
H1517 C1523 0.930 . S
C1518 H1504 0.930 . S
C1518 C1516 1.397 1_455 S
C1518 C1521 1.403 1_556 S
C1519 C1516 1.400 . S
C1519 C1520 1.524 . S
C1519 C1523 1.400 1_556 S
C1520 H1505 0.960 . S
C1520 H1506 0.960 . S
C1520 H1507 0.960 . S
C1520 C1519 1.524 . S
C1521 C1518 1.403 1_554 S
C1521 C1522 1.392 . S
C1521 C1525 1.495 . S
C1522 C1521 1.392 . S
C1522 C1523 1.385 1_455 S
C1522 C1524 1.478 . S
C1523 H1517 0.930 . S
C1523 C1519 1.400 1_554 S
C1523 C1522 1.385 1_655 S
C1524 C1522 1.478 . S
C1524 C1526 1.381 . S
C1524 C1530 1.383 . S
C1525 C1521 1.495 . S
C1525 H1531 0.959 . S
C1525 H1532 0.961 . S
C1525 H1533 0.960 . S
C1526 C1524 1.381 . S
C1526 C1527 1.394 . S
C1526 H1534 0.930 . S
C1527 C1526 1.394 . S
C1527 C1528 1.383 . S
C1527 H1535 0.929 . S
C1528 C1527 1.383 . S
C1528 C1529 1.377 . S
C1529 H1513 0.930 . S
C1529 C1528 1.377 . S
C1529 C1530 1.379 . S
C1530 H1514 0.931 . S
C1530 C1524 1.383 . S
C1530 C1529 1.379 . S
H1531 C1525 0.959 . S
H1532 C1525 0.961 . S
H1533 C1525 0.960 . S
H1534 C1526 0.930 . S
H1535 C1527 0.929 . S
C681 C56 1.614 . S
C700 C308 1.631 . S
C717 C74 1.471 . S
C736 C140 1.435 . S
C753 C158 1.304 . S
C772 C242 1.306 . S
C789 C224 1.453 . S
C808 C326 1.484 . S
C825 C67 1.623 . S
C844 C487 1.646 . S
C861 C63 1.476 . S
C880 C403 1.437 . S
C897 C399 1.314 . S
C916 C231 1.275 . S
C933 C483 1.474 . S
C952 C235 1.434 . S
C969 C560 1.614 . S
C988 C476 1.633 . S
C1005 C392 1.462 . S
C1024 C578 1.444 . S
C1041 C662 1.305 . S
C1060 C410 1.284 . S
C1077 C494 1.469 . S
C1096 C644 1.484 . S
C1113 C319 1.620 . S
C1132 C571 1.630 . S
C1149 C567 1.475 . S
C1168 C151 1.433 . S
C1185 C147 1.310 . S
C1204 C651 1.302 . S
C1221 C315 1.476 . S
C1240 C655 1.433 . S
C1257 C70 1.534 1_565 S
C1276 C58 1.560 1_545 S
C1293 C142 1.543 . S
C1312 C154 1.572 . S
C1329 C238 1.527 1_565 S
C1348 C226 1.507 1_545 S
C1365 C322 1.530 . S
C1384 C310 1.531 . S
C1401 C394 1.542 . S
C1420 C406 1.522 . S
C1437 C490 1.530 . S
C1456 C478 1.534 . S
C1473 C562 1.534 . S
C1492 C574 1.492 . S
C1509 C646 1.528 . S
C1528 C658 1.538 . S
