# Generated by pormake.
# Topology wka, (5)-cn, num edge types: 1
# Building blocks:
#     Node 0, Type 0, BuildingBlock: BEQFEK_clean_sbu_0, # of connection points: 5
#     Node 1, Type 0, BuildingBlock: BEQFEK_clean_sbu_0, # of connection points: 5
#     Node 2, Type 0, BuildingBlock: BEQFEK_clean_sbu_0, # of connection points: 5
#     Node 3, Type 0, BuildingBlock: BEQFEK_clean_sbu_0, # of connection points: 5
#     Node 4, Type 0, BuildingBlock: BEQFEK_clean_sbu_0, # of connection points: 5
#     Node 5, Type 0, BuildingBlock: BEQFEK_clean_sbu_0, # of connection points: 5
#     Node 6, Type 0, BuildingBlock: BEQFEK_clean_sbu_0, # of connection points: 5
#     Node 7, Type 0, BuildingBlock: BEQFEK_clean_sbu_0, # of connection points: 5
#     Node 8, Type 0, BuildingBlock: BEQFEK_clean_sbu_0, # of connection points: 5
#     Node 9, Type 0, BuildingBlock: BEQFEK_clean_sbu_0, # of connection points: 5
#     Node 10, Type 0, BuildingBlock: BEQFEK_clean_sbu_0, # of connection points: 5
#     Node 11, Type 0, BuildingBlock: BEQFEK_clean_sbu_0, # of connection points: 5
#     Edge 12, Type (0, 0), None
#     Edge 13, Type (0, 0), None
#     Edge 14, Type (0, 0), None
#     Edge 15, Type (0, 0), None
#     Edge 16, Type (0, 0), None
#     Edge 17, Type (0, 0), None
#     Edge 18, Type (0, 0), None
#     Edge 19, Type (0, 0), None
#     Edge 20, Type (0, 0), None
#     Edge 21, Type (0, 0), None
#     Edge 22, Type (0, 0), None
#     Edge 23, Type (0, 0), None
#     Edge 24, Type (0, 0), None
#     Edge 25, Type (0, 0), None
#     Edge 26, Type (0, 0), None
#     Edge 27, Type (0, 0), None
#     Edge 28, Type (0, 0), None
#     Edge 29, Type (0, 0), None
#     Edge 30, Type (0, 0), None
#     Edge 31, Type (0, 0), None
#     Edge 32, Type (0, 0), None
#     Edge 33, Type (0, 0), None
#     Edge 34, Type (0, 0), None
#     Edge 35, Type (0, 0), None
#     Edge 36, Type (0, 0), None
#     Edge 37, Type (0, 0), None
#     Edge 38, Type (0, 0), None
#     Edge 39, Type (0, 0), None
#     Edge 40, Type (0, 0), None
#     Edge 41, Type (0, 0), None
# Relax obj value: 0.547
# Max RMSD: 0.297
# Mean RMSD: 0.297
data_MOF--net-wka--node1-BEQFEK_clean_sbu_0--edge1-none
_symmetry_space_group_name_H-M    P1
_symmetry_Int_Tables_number       1
_symmetry_cell_setting            triclinic
loop_
_symmetry_equiv_pos_as_xyz
'x, y, z'
_cell_length_a     30.886609
_cell_length_b     30.886526
_cell_length_c     9.5891933
_cell_angle_alpha  89.996634
_cell_angle_beta   90.006731
_cell_angle_gamma 119.9981
loop_
_atom_site_label
_atom_site_type_symbol
_atom_site_fract_x
_atom_site_fract_y
_atom_site_fract_z
_atom_type_partial_charge
Co0 Co 0.13161 0.47119 0.92143 0.0
Co1 Co 0.0654 0.42196 0.17885 0.0
C2 C 0.01569 0.3982 0.91149 0.0
O3 O 0.05933 0.42737 0.86466 0.0
O4 O 0.00842 0.38984 0.04264 0.0
C5 C 0.13768 0.43702 0.6738 0.0
O6 O 0.1238 0.39474 0.73925 0.0
C7 C 0.07614 0.3987 0.46714 0.0
C8 C 0.09459 0.47428 0.53413 0.0
C9 C 0.10584 0.43705 0.55882 0.0
N10 N 0.0527 0.41499 0.38018 0.0
N11 N 0.06116 0.45861 0.42957 0.0
C12 C 0.05408 0.34477 0.50645 0.0
H13 H 0.02875 0.31996 0.42492 0.0
H14 H 0.08387 0.33593 0.53018 0.0
H15 H 0.03197 0.33718 0.60349 0.0
C16 C 0.19635 0.45174 0.12144 0.0
N17 N 0.15262 0.44236 0.0639 0.0
N18 N 0.11608 0.40578 0.13313 0.0
C19 C 0.13502 0.38605 0.22292 0.0
C20 C 0.18673 0.41618 0.22472 0.0
C21 C 0.24554 0.49654 0.08706 0.0
H22 H 0.24833 0.52948 0.14185 0.0
H23 H 0.24777 0.50415 0.97342 0.0
H24 H 0.27701 0.49143 0.12138 0.0
O25 O 0.14105 0.53526 0.98054 0.0
O26 O 0.09198 0.49613 0.15946 0.0
H27 H 0.11868 0.32168 0.3484 0.0
H28 H 0.1193 0.31319 0.1638 0.0
C29 C 0.10843 0.33087 0.24688 0.0
H30 H 0.06749 0.31472 0.23674 0.0
H31 H 0.04866 0.48071 0.38194 0.0
O32 O 0.16318 0.47749 0.74115 0.0
C33 C 0.11907 0.53595 0.09106 0.0
Co34 Co 0.65665 0.13349 0.08808 0.0
Co35 Co 0.63968 0.06727 0.34551 0.0
C36 C 0.61373 0.01757 0.07816 0.0
O37 O 0.6282 0.06121 0.03132 0.0
O38 O 0.61482 0.01029 0.20931 0.0
C39 C 0.69688 0.13956 0.84045 0.0
O40 O 0.72529 0.12568 0.90591 0.0
C41 C 0.67369 0.07802 0.6338 0.0
C42 C 0.61655 0.09646 0.70077 0.0
C43 C 0.66502 0.10771 0.72547 0.0
N44 N 0.63396 0.05458 0.54684 0.0
N45 N 0.59879 0.06303 0.59623 0.0
C46 C 0.70556 0.05597 0.67314 0.0
H47 H 0.70505 0.03064 0.59162 0.0
H48 H 0.74418 0.08576 0.69687 0.0
H49 H 0.69103 0.03385 0.77018 0.0
C50 C 0.74084 0.19823 0.28808 0.0
N51 N 0.7065 0.1545 0.23054 0.0
N52 N 0.70653 0.11795 0.29978 0.0
C53 C 0.7452 0.13689 0.38957 0.0
C54 C 0.76679 0.18861 0.39136 0.0
C55 C 0.74523 0.24742 0.25369 0.0
H56 H 0.71507 0.2502 0.30848 0.0
H57 H 0.73984 0.24965 0.14005 0.0
H58 H 0.78181 0.27889 0.288 0.0
O59 O 0.60203 0.14293 0.14718 0.0
O60 O 0.59209 0.09386 0.32611 0.0
H61 H 0.79324 0.12056 0.51506 0.0
H62 H 0.80235 0.12118 0.33047 0.0
C63 C 0.7738 0.11031 0.41355 0.0
H64 H 0.74901 0.06936 0.40341 0.0
H65 H 0.56418 0.05052 0.54859 0.0
O66 O 0.68192 0.16505 0.90778 0.0
C67 C 0.57936 0.12095 0.25771 0.0
Co68 Co 0.51941 0.65855 0.25472 0.0
Co69 Co 0.56865 0.64157 0.51216 0.0
C70 C 0.5924 0.61562 0.24483 0.0
O71 O 0.56323 0.63009 0.19799 0.0
O72 O 0.60076 0.61671 0.37598 0.0
C73 C 0.55358 0.69879 1.00709 0.0
O74 O 0.59587 0.72719 0.07254 0.0
C75 C 0.5919 0.67557 0.80044 0.0
C76 C 0.51632 0.61845 0.86744 0.0
C77 C 0.55356 0.66692 0.89212 0.0
N78 N 0.57561 0.63584 0.71349 0.0
N79 N 0.53199 0.60069 0.76289 0.0
C80 C 0.64583 0.70745 0.83974 0.0
H81 H 0.67064 0.70693 0.7582 0.0
H82 H 0.65466 0.74607 0.86346 0.0
H83 H 0.65343 0.69292 0.93678 0.0
C84 C 0.53886 0.74274 0.45475 0.0
N85 N 0.54825 0.7084 0.39719 0.0
N86 N 0.58482 0.70843 0.46641 0.0
C87 C 0.60456 0.7471 0.5562 0.0
C88 C 0.57442 0.76868 0.55802 0.0
C89 C 0.49405 0.74712 0.4204 0.0
H90 H 0.46112 0.71696 0.47521 0.0
H91 H 0.48642 0.74174 0.30676 0.0
H92 H 0.49916 0.7837 0.45471 0.0
O93 O 0.45534 0.60394 0.31381 0.0
O94 O 0.49448 0.59399 0.49274 0.0
H95 H 0.66895 0.79513 0.68163 0.0
H96 H 0.67741 0.80424 0.49703 0.0
C97 C 0.65974 0.77569 0.58012 0.0
H98 H 0.67589 0.7509 0.56997 0.0
H99 H 0.50988 0.56608 0.71526 0.0
O100 O 0.51312 0.68383 0.07442 0.0
C101 C 0.45465 0.58126 0.42433 0.0
Co102 Co 0.85708 0.5213 0.4214 0.0
Co103 Co 0.9233 0.57053 0.67883 0.0
C104 C 0.973 0.59429 0.41151 0.0
O105 O 0.92936 0.56511 0.36467 0.0
O106 O 0.98028 0.60265 0.54266 0.0
C107 C 0.85103 0.55548 0.17375 0.0
O108 O 0.86493 0.59778 0.23919 0.0
C109 C 0.91256 0.59378 0.96711 0.0
C110 C 0.89408 0.5182 0.03413 0.0
C111 C 0.88286 0.55545 0.0588 0.0
N112 N 0.93598 0.57747 0.88017 0.0
N113 N 0.92751 0.53385 0.92958 0.0
C114 C 0.93462 0.64772 1.00635 0.0
H115 H 0.95994 0.67252 0.9248 0.0
H116 H 0.90484 0.65656 0.03007 0.0
H117 H 0.95675 0.65532 0.10339 0.0
C118 C 0.79235 0.54074 0.62145 0.0
N119 N 0.83608 0.55013 0.56387 0.0
N120 N 0.87263 0.58671 0.63308 0.0
C121 C 0.8537 0.60645 0.72287 0.0
C122 C 0.80198 0.57631 0.72471 0.0
C123 C 0.74316 0.49594 0.58712 0.0
H124 H 0.74039 0.46301 0.64194 0.0
H125 H 0.74092 0.48831 0.47348 0.0
H126 H 0.71169 0.50104 0.62143 0.0
O127 O 0.84763 0.45723 0.48048 0.0
O128 O 0.89671 0.49636 0.6594 0.0
H129 H 0.87005 0.67084 0.84826 0.0
H130 H 0.86939 0.6793 0.66366 0.0
C131 C 0.88028 0.66163 0.74676 0.0
H132 H 0.92122 0.67779 0.7366 0.0
H133 H 0.94 0.51173 0.88196 0.0
O134 O 0.82551 0.51502 0.24111 0.0
C135 C 0.86961 0.45653 0.59099 0.0
Co136 Co 0.33202 0.85895 0.58812 0.0
Co137 Co 0.34902 0.92517 0.84554 0.0
C138 C 0.37496 0.97488 0.5782 0.0
O139 O 0.36049 0.93123 0.53137 0.0
O140 O 0.37388 0.98215 0.70936 0.0
C141 C 0.29179 0.8529 0.34047 0.0
O142 O 0.26339 0.8668 0.4059 0.0
C143 C 0.31502 0.91443 0.13381 0.0
C144 C 0.37213 0.89595 0.20085 0.0
C145 C 0.32366 0.88473 0.22551 0.0
N146 N 0.35476 0.93785 0.04687 0.0
N147 N 0.3899 0.92938 0.09629 0.0
C148 C 0.28316 0.93651 0.17306 0.0
H149 H 0.28368 0.96183 0.0915 0.0
H150 H 0.24453 0.90672 0.19676 0.0
H151 H 0.29768 0.95863 0.2701 0.0
C152 C 0.24784 0.79422 0.78816 0.0
N153 N 0.28219 0.83795 0.73059 0.0
N154 N 0.28216 0.8745 0.7998 0.0
C155 C 0.24349 0.85557 0.88958 0.0
C156 C 0.22191 0.80385 0.89141 0.0
C157 C 0.24345 0.74503 0.75381 0.0
H158 H 0.27361 0.74225 0.80863 0.0
H159 H 0.24883 0.74279 0.64018 0.0
H160 H 0.20687 0.71356 0.78812 0.0
O161 O 0.38664 0.8495 0.64722 0.0
O162 O 0.3966 0.89859 0.82612 0.0
H163 H 0.19546 0.87193 1.01497 0.0
H164 H 0.18635 0.87129 0.83037 0.0
C165 C 0.2149 0.88216 0.91347 0.0
H166 H 0.23969 0.9231 0.90332 0.0
H167 H 0.42451 0.94186 0.04868 0.0
O168 O 0.30674 0.82738 0.40784 0.0
C169 C 0.40933 0.87149 0.75772 0.0
Co170 Co 0.46932 0.33392 0.7548 0.0
Co171 Co 0.42009 0.35092 1.0122 0.0
C172 C 0.39633 0.37686 0.74485 0.0
O173 O 0.4255 0.36239 0.69803 0.0
O174 O 0.38797 0.37578 0.87601 0.0
C175 C 0.43514 0.29369 0.50716 0.0
O176 O 0.39285 0.26529 0.57258 0.0
C177 C 0.39683 0.31691 0.30048 0.0
C178 C 0.47242 0.37403 0.36751 0.0
C179 C 0.43518 0.32556 0.39218 0.0
N180 N 0.41314 0.35665 0.21353 0.0
N181 N 0.45676 0.3918 0.26294 0.0
C182 C 0.3429 0.28505 0.33975 0.0
H183 H 0.3181 0.28558 0.2582 0.0
H184 H 0.33406 0.24642 0.36346 0.0
H185 H 0.33531 0.29958 0.43679 0.0
C186 C 0.44986 0.24973 0.95482 0.0
N187 N 0.44048 0.28408 0.89727 0.0
N188 N 0.40391 0.28406 0.96647 0.0
C189 C 0.38417 0.24539 0.05626 0.0
C190 C 0.4143 0.2238 0.05808 0.0
C191 C 0.49465 0.24533 0.92046 0.0
H192 H 0.5276 0.27548 0.97527 0.0
H193 H 0.50227 0.25071 0.80683 0.0
H194 H 0.48954 0.20875 0.95478 0.0
O195 O 0.53339 0.38854 0.8139 0.0
O196 O 0.49426 0.3985 0.9928 0.0
H197 H 0.31979 0.19736 0.18168 0.0
H198 H 0.31131 0.18825 0.99707 0.0
C199 C 0.32899 0.2168 0.08017 0.0
H200 H 0.31284 0.2416 0.07002 0.0
H201 H 0.47887 0.4264 0.21532 0.0
O202 O 0.47561 0.30864 0.57452 0.0
C203 C 0.53408 0.41122 0.9244 0.0
Co204 Co 0.51962 0.85909 0.96819 0.0
Co205 Co 0.56875 0.9253 0.71081 0.0
C206 C 0.59249 0.97503 0.97807 0.0
O207 O 0.56336 0.93137 1.02491 0.0
O208 O 0.60084 0.98231 0.84692 0.0
C209 C 0.5539 0.85312 0.21579 0.0
O210 O 0.59621 0.86713 0.15036 0.0
C211 C 0.59205 0.91466 0.4225 0.0
C212 C 0.51642 0.896 0.35541 0.0
C213 C 0.55376 0.88492 0.33072 0.0
N214 N 0.57564 0.93797 0.50948 0.0
N215 N 0.53198 0.92939 0.46004 0.0
C216 C 0.64602 0.93681 0.38349 0.0
H217 H 0.67074 0.96209 0.46523 0.0
H218 H 0.65493 0.90708 0.35967 0.0
H219 H 0.65365 0.959 0.28657 0.0
C220 C 0.53893 0.7944 0.76764 0.0
N221 N 0.54842 0.83812 0.82557 0.0
N222 N 0.58503 0.87468 0.75649 0.0
C223 C 0.60468 0.85575 0.66641 0.0
C224 C 0.57441 0.80405 0.66412 0.0
C225 C 0.4941 0.74522 0.80192 0.0
H226 H 0.46118 0.74248 0.74711 0.0
H227 H 0.48648 0.74296 0.91555 0.0
H228 H 0.49919 0.71375 0.76752 0.0
O229 O 0.45549 0.84955 0.9093 0.0
O230 O 0.49457 0.89863 0.73035 0.0
H231 H 0.66903 0.87195 0.54103 0.0
H232 H 0.67746 0.87124 0.72565 0.0
C233 C 0.65986 0.88221 0.64256 0.0
H234 H 0.67612 0.92316 0.65279 0.0
H235 H 0.50979 0.94178 0.50767 0.0
O236 O 0.51345 0.82753 0.14843 0.0
C237 C 0.45476 0.87151 0.79878 0.0
Co238 Co 0.65677 0.5215 0.13489 0.0
Co239 Co 0.63969 0.57064 0.87749 0.0
C240 C 0.6137 0.59438 0.14474 0.0
O241 O 0.62822 0.56524 0.19159 0.0
O242 O 0.61477 0.60273 1.01359 0.0
C243 C 0.697 0.55578 0.38248 0.0
O244 O 0.72532 0.59809 0.31704 0.0
C245 C 0.67364 0.59394 0.58918 0.0
C246 C 0.61666 0.51831 0.5221 0.0
C247 C 0.66508 0.55565 0.49741 0.0
N248 N 0.63391 0.57753 0.67615 0.0
N249 N 0.59883 0.53388 0.62673 0.0
C250 C 0.70545 0.64791 0.55015 0.0
H251 H 0.7049 0.67263 0.63189 0.0
H252 H 0.74409 0.65681 0.52633 0.0
H253 H 0.69089 0.65554 0.45323 0.0
C254 C 0.74076 0.54081 0.93433 0.0
N255 N 0.70654 0.55031 0.99226 0.0
N256 N 0.70659 0.58692 0.92319 0.0
C257 C 0.74517 0.60657 0.83311 0.0
C258 C 0.76659 0.5763 0.83082 0.0
C259 C 0.74511 0.49598 0.96861 0.0
H260 H 0.71493 0.46306 0.91379 0.0
H261 H 0.73975 0.48835 0.08225 0.0
H262 H 0.78167 0.50107 0.93422 0.0
O263 O 0.60218 0.45738 0.076 0.0
O264 O 0.59218 0.49646 0.89704 0.0
H265 H 0.79331 0.67093 0.70772 0.0
H266 H 0.80245 0.67935 0.89235 0.0
C267 C 0.77389 0.66175 0.80925 0.0
H268 H 0.74919 0.67801 0.81949 0.0
H269 H 0.56424 0.51169 0.67436 0.0
O270 O 0.68215 0.51533 0.31513 0.0
C271 C 0.57949 0.45665 0.96547 0.0
Co272 Co 0.13148 0.65863 0.30157 0.0
Co273 Co 0.06527 0.64157 0.04416 0.0
C274 C 0.01555 0.61558 0.31143 0.0
O275 O 0.0592 0.63009 0.35827 0.0
O276 O 0.00827 0.61666 0.18027 0.0
C277 C 0.13745 0.69887 0.54915 0.0
O278 O 0.12346 0.72719 0.48369 0.0
C279 C 0.07592 0.67553 0.75584 0.0
C280 C 0.09455 0.61852 0.6888 0.0
C281 C 0.10565 0.66696 0.6641 0.0
N282 N 0.05259 0.63579 0.84283 0.0
N283 N 0.06115 0.60071 0.79342 0.0
C284 C 0.05378 0.70734 0.71676 0.0
H285 H 0.0285 0.7068 0.79847 0.0
H286 H 0.08352 0.74598 0.69293 0.0
H287 H 0.03159 0.69278 0.61983 0.0
C288 C 0.19617 0.74263 0.10104 0.0
N289 N 0.15245 0.70841 0.15895 0.0
N290 N 0.11589 0.70847 0.08985 0.0
C291 C 0.13483 0.74705 0.99977 0.0
C292 C 0.18653 0.76847 0.99751 0.0
C293 C 0.24535 0.74698 0.13535 0.0
H294 H 0.24809 0.71679 0.08056 0.0
H295 H 0.24761 0.74161 0.24899 0.0
H296 H 0.27683 0.78354 0.10096 0.0
O297 O 0.14101 0.60404 0.24268 0.0
O298 O 0.09193 0.59406 0.0637 0.0
H299 H 0.11864 0.7952 0.87432 0.0
H300 H 0.11934 0.80434 0.05893 0.0
C301 C 0.10838 0.77577 0.97585 0.0
H302 H 0.06742 0.75107 0.98607 0.0
H303 H 0.04874 0.56612 0.84106 0.0
O304 O 0.16304 0.684 0.48182 0.0
C305 C 0.11905 0.58136 0.13214 0.0
Co306 Co 0.46909 0.13335 0.46824 0.0
Co307 Co 0.41994 0.06714 0.21084 0.0
C308 C 0.39621 0.01742 0.47812 0.0
O309 O 0.42535 0.06107 0.52496 0.0
O310 O 0.38785 0.01014 0.34696 0.0
C311 C 0.43483 0.13933 0.71581 0.0
O312 O 0.39252 0.12535 0.65035 0.0
C313 C 0.39663 0.0778 0.92251 0.0
C314 C 0.47226 0.09641 0.85548 0.0
C315 C 0.43494 0.10753 0.83077 0.0
N316 N 0.41303 0.05446 1.00951 0.0
N317 N 0.45667 0.06301 0.96011 0.0
C318 C 0.34268 0.05566 0.88341 0.0
H319 H 0.31794 0.03038 0.96511 0.0
H320 H 0.33378 0.0854 0.85957 0.0
H321 H 0.33506 0.03348 0.78648 0.0
C322 C 0.44978 0.19805 0.26771 0.0
N323 N 0.44028 0.15433 0.32562 0.0
N324 N 0.40367 0.11777 0.25651 0.0
C325 C 0.38403 0.13672 0.16642 0.0
C326 C 0.41431 0.18841 0.16417 0.0
C327 C 0.49461 0.24723 0.30204 0.0
H328 H 0.52753 0.24997 0.24726 0.0
H329 H 0.50223 0.24948 0.41568 0.0
H330 H 0.48953 0.27871 0.26764 0.0
O331 O 0.53321 0.14288 0.40933 0.0
O332 O 0.49412 0.09381 0.23036 0.0
H333 H 0.3197 0.12053 0.04094 0.0
H334 H 0.31124 0.12122 0.22555 0.0
C335 C 0.32885 0.11026 0.14248 0.0
H336 H 0.3126 0.06931 0.1527 0.0
H337 H 0.47885 0.0506 1.00775 0.0
O338 O 0.47528 0.16491 0.64848 0.0
C339 C 0.53393 0.12092 0.29879 0.0
Co340 Co 0.33198 0.47099 0.63486 0.0
Co341 Co 0.34904 0.42184 0.37747 0.0
C342 C 0.37504 0.39811 0.64476 0.0
O343 O 0.36052 0.42725 0.69159 0.0
O344 O 0.37396 0.38975 0.51361 0.0
C345 C 0.29174 0.43673 0.88243 0.0
O346 O 0.26342 0.39442 0.81698 0.0
C347 C 0.31508 0.39854 0.08915 0.0
C348 C 0.37209 0.47417 1.0221 0.0
C349 C 0.32365 0.43684 0.99739 0.0
N350 N 0.35482 0.41493 0.17614 0.0
N351 N 0.3899 0.45858 0.12673 0.0
C352 C 0.28328 0.34458 0.05005 0.0
H353 H 0.28383 0.31984 0.13176 0.0
H354 H 0.24464 0.33568 1.02622 0.0
H355 H 0.29783 0.33696 0.95312 0.0
C356 C 0.24797 0.45168 0.43434 0.0
N357 N 0.28219 0.44218 0.49224 0.0
N358 N 0.28215 0.40557 0.42314 0.0
C359 C 0.24356 0.38593 0.33305 0.0
C360 C 0.22213 0.4162 0.33081 0.0
C361 C 0.2436 0.49649 0.46866 0.0
H362 H 0.27378 0.52942 0.41388 0.0
H363 H 0.24896 0.50411 0.58231 0.0
H364 H 0.20704 0.4914 0.43427 0.0
O365 O 0.38657 0.53511 0.57594 0.0
O366 O 0.39655 0.49602 0.39699 0.0
H367 H 0.19542 0.32159 0.20759 0.0
H368 H 0.18628 0.31313 0.3922 0.0
C369 C 0.21485 0.33075 0.30913 0.0
H370 H 0.23955 0.3145 0.31934 0.0
H371 H 0.42449 0.48076 0.17438 0.0
O372 O 0.30661 0.47718 0.81509 0.0
C373 C 0.40925 0.53583 0.46541 0.0
Co374 Co 0.85721 0.33385 0.80149 0.0
Co375 Co 0.92342 0.35092 0.54411 0.0
C376 C 0.97315 0.3769 0.8114 0.0
O377 O 0.9295 0.36239 0.85823 0.0
O378 O 0.98043 0.37583 0.68025 0.0
C379 C 0.85124 0.29361 0.04908 0.0
O380 O 0.86523 0.26528 0.98365 0.0
C381 C 0.91277 0.31696 0.2558 0.0
C382 C 0.89413 0.37395 0.18873 0.0
C383 C 0.88304 0.32553 0.16403 0.0
N384 N 0.9361 0.3567 0.34279 0.0
N385 N 0.92753 0.39178 0.29336 0.0
C386 C 0.93493 0.28516 0.21675 0.0
H387 H 0.96022 0.28572 0.29847 0.0
H388 H 0.9052 0.24652 0.19293 0.0
H389 H 0.95711 0.29972 0.11982 0.0
C390 C 0.79252 0.24984 0.60097 0.0
N391 N 0.83624 0.28407 0.65888 0.0
N392 N 0.8728 0.28402 0.58978 0.0
C393 C 0.85386 0.24543 0.49971 0.0
C394 C 0.80216 0.22401 0.49745 0.0
C395 C 0.74334 0.24548 0.63528 0.0
H396 H 0.74058 0.27565 0.58049 0.0
H397 H 0.74108 0.25084 0.74893 0.0
H398 H 0.71186 0.20891 0.60089 0.0
O399 O 0.84768 0.38844 0.74258 0.0
O400 O 0.89676 0.39843 0.56364 0.0
H401 H 0.87006 0.19729 0.37427 0.0
H402 H 0.86938 0.18816 0.55889 0.0
C403 C 0.88032 0.21672 0.47581 0.0
H404 H 0.92128 0.24142 0.48603 0.0
H405 H 0.93993 0.42637 0.341 0.0
O406 O 0.82565 0.30847 0.98172 0.0
C407 C 0.86964 0.41112 0.63207 0.0
loop_
_geom_bond_atom_site_label_1
_geom_bond_atom_site_label_2
_geom_bond_distance
_geom_bond_site_symmetry_2
_ccdc_geom_bond_type
Co0 O3 1.970 . S
Co0 N17 1.989 1_556 S
Co0 O25 1.967 . S
Co0 O32 1.920 . S
Co1 O4 1.966 . S
Co1 N10 2.022 . S
Co1 N18 1.993 . S
Co1 O26 1.941 . S
C2 O3 1.258 1_655 S
C2 O4 1.263 1_656 S
O3 Co0 1.970 . S
O3 C2 1.258 1_455 S
O4 Co1 1.966 . S
O4 C2 1.263 1_454 S
C5 O6 1.235 . S
C5 O32 1.289 . S
O6 C5 1.235 . S
C7 C9 1.400 . S
C7 N10 1.351 . S
C7 C12 1.501 1_455 S
C8 C9 1.387 . S
C8 N11 1.341 . S
C9 C7 1.400 . S
C9 C8 1.387 . S
N10 Co1 2.022 . S
N10 C7 1.351 . S
N10 N11 1.365 . S
N11 C8 1.341 . S
N11 N10 1.365 . S
N11 H31 0.862 . S
C12 C7 1.501 1_655 S
C12 H13 0.961 . S
C12 H14 0.961 . S
C12 H15 0.960 . S
H13 C12 0.961 . S
H14 C12 0.961 . S
H15 C12 0.960 . S
C16 N17 1.342 . S
C16 C20 1.401 . S
C16 C21 1.499 1_554 S
N17 Co0 1.989 1_554 S
N17 C16 1.342 . S
N17 N18 1.388 . S
N18 Co1 1.993 . S
N18 N17 1.388 . S
N18 C19 1.346 . S
C19 N18 1.346 . S
C19 C20 1.396 . S
C19 C29 1.510 . S
C20 C16 1.401 . S
C20 C19 1.396 . S
C21 C16 1.499 1_556 S
C21 H22 0.959 . S
C21 H23 0.960 . S
C21 H24 0.961 . S
H22 C21 0.959 . S
H23 C21 0.960 . S
H24 C21 0.961 . S
O25 Co0 1.967 . S
O25 C33 1.258 1_556 S
O26 Co1 1.941 . S
O26 C33 1.266 . S
H27 C29 0.959 . S
H28 C29 0.961 . S
C29 C19 1.510 . S
C29 H27 0.959 . S
C29 H28 0.961 . S
C29 H30 0.960 . S
H30 C29 0.960 . S
H31 N11 0.862 . S
O32 Co0 1.920 . S
O32 C5 1.289 . S
C33 O25 1.258 1_554 S
C33 O26 1.266 . S
Co34 O37 1.970 . S
Co34 N51 1.989 . S
Co34 O59 1.967 . S
Co34 O66 1.920 1_554 S
Co35 O38 1.966 . S
Co35 N44 2.022 . S
Co35 N52 1.993 . S
Co35 O60 1.941 . S
C36 O37 1.258 1_565 S
C36 O38 1.263 1_565 S
O37 Co34 1.970 . S
O37 C36 1.258 1_545 S
O38 Co35 1.966 . S
O38 C36 1.263 1_545 S
C39 O40 1.235 . S
C39 O66 1.289 . S
O40 C39 1.235 . S
C41 C43 1.400 . S
C41 N44 1.351 . S
C41 C46 1.501 1_545 S
C42 C43 1.387 . S
C42 N45 1.341 . S
C43 C41 1.400 . S
C43 C42 1.387 . S
N44 Co35 2.022 . S
N44 C41 1.351 . S
N44 N45 1.365 . S
N45 C42 1.341 . S
N45 N44 1.365 . S
N45 H65 0.862 . S
C46 C41 1.501 1_565 S
C46 H47 0.961 . S
C46 H48 0.961 . S
C46 H49 0.960 . S
H47 C46 0.961 . S
H48 C46 0.961 . S
H49 C46 0.960 . S
C50 N51 1.342 . S
C50 C54 1.401 . S
C50 C55 1.499 . S
N51 Co34 1.989 . S
N51 C50 1.342 . S
N51 N52 1.388 . S
N52 Co35 1.993 . S
N52 N51 1.388 . S
N52 C53 1.346 . S
C53 N52 1.346 . S
C53 C54 1.396 . S
C53 C63 1.510 . S
C54 C50 1.401 . S
C54 C53 1.396 . S
C55 C50 1.499 . S
C55 H56 0.959 . S
C55 H57 0.960 . S
C55 H58 0.961 . S
H56 C55 0.959 . S
H57 C55 0.960 . S
H58 C55 0.961 . S
O59 Co34 1.967 . S
O59 C67 1.258 . S
O60 Co35 1.941 . S
O60 C67 1.266 . S
H61 C63 0.959 . S
H62 C63 0.961 . S
C63 C53 1.510 . S
C63 H61 0.959 . S
C63 H62 0.961 . S
C63 H64 0.960 . S
H64 C63 0.960 . S
H65 N45 0.862 . S
O66 Co34 1.920 1_556 S
O66 C39 1.289 . S
C67 O59 1.258 . S
C67 O60 1.266 . S
Co68 O71 1.970 . S
Co68 N85 1.989 . S
Co68 O93 1.967 . S
Co68 O100 1.920 . S
Co69 O72 1.966 . S
Co69 N78 2.022 . S
Co69 N86 1.993 . S
Co69 O94 1.941 . S
C70 O71 1.258 . S
C70 O72 1.263 . S
O71 Co68 1.970 . S
O71 C70 1.258 . S
O72 Co69 1.966 . S
O72 C70 1.263 . S
C73 O74 1.235 1_556 S
C73 O100 1.289 1_556 S
O74 C73 1.235 1_554 S
C75 C77 1.400 . S
C75 N78 1.351 . S
C75 C80 1.501 . S
C76 C77 1.387 . S
C76 N79 1.341 . S
C77 C75 1.400 . S
C77 C76 1.387 . S
N78 Co69 2.022 . S
N78 C75 1.351 . S
N78 N79 1.365 . S
N79 C76 1.341 . S
N79 N78 1.365 . S
N79 H99 0.862 . S
C80 C75 1.501 . S
C80 H81 0.961 . S
C80 H82 0.961 . S
C80 H83 0.960 . S
H81 C80 0.961 . S
H82 C80 0.961 . S
H83 C80 0.960 . S
C84 N85 1.342 . S
C84 C88 1.401 . S
C84 C89 1.499 . S
N85 Co68 1.989 . S
N85 C84 1.342 . S
N85 N86 1.388 . S
N86 Co69 1.993 . S
N86 N85 1.388 . S
N86 C87 1.346 . S
C87 N86 1.346 . S
C87 C88 1.396 . S
C87 C97 1.510 . S
C88 C84 1.401 . S
C88 C87 1.396 . S
C89 C84 1.499 . S
C89 H90 0.959 . S
C89 H91 0.960 . S
C89 H92 0.961 . S
H90 C89 0.959 . S
H91 C89 0.960 . S
H92 C89 0.961 . S
O93 Co68 1.967 . S
O93 C101 1.258 . S
O94 Co69 1.941 . S
O94 C101 1.266 . S
H95 C97 0.959 . S
H96 C97 0.961 . S
C97 C87 1.510 . S
C97 H95 0.959 . S
C97 H96 0.961 . S
C97 H98 0.960 . S
H98 C97 0.960 . S
H99 N79 0.862 . S
O100 Co68 1.920 . S
O100 C73 1.289 1_554 S
C101 O93 1.258 . S
C101 O94 1.266 . S
Co102 O105 1.970 . S
Co102 N119 1.989 . S
Co102 O127 1.967 . S
Co102 O134 1.920 . S
Co103 O106 1.966 . S
Co103 N112 2.022 . S
Co103 N120 1.993 . S
Co103 O128 1.941 . S
C104 O105 1.258 1_455 S
C104 O106 1.263 1_455 S
O105 Co102 1.970 . S
O105 C104 1.258 1_655 S
O106 Co103 1.966 . S
O106 C104 1.263 1_655 S
C107 O108 1.235 . S
C107 O134 1.289 . S
O108 C107 1.235 . S
C109 C111 1.400 1_556 S
C109 N112 1.351 . S
C109 C114 1.501 1_655 S
C110 C111 1.387 . S
C110 N113 1.341 1_554 S
C111 C109 1.400 1_554 S
C111 C110 1.387 . S
N112 Co103 2.022 . S
N112 C109 1.351 . S
N112 N113 1.365 . S
N113 C110 1.341 1_556 S
N113 N112 1.365 . S
N113 H133 0.862 . S
C114 C109 1.501 1_455 S
C114 H115 0.961 . S
C114 H116 0.961 . S
C114 H117 0.960 . S
H115 C114 0.961 . S
H116 C114 0.961 . S
H117 C114 0.960 . S
C118 N119 1.342 . S
C118 C122 1.401 . S
C118 C123 1.499 . S
N119 Co102 1.989 . S
N119 C118 1.342 . S
N119 N120 1.388 . S
N120 Co103 1.993 . S
N120 N119 1.388 . S
N120 C121 1.346 . S
C121 N120 1.346 . S
C121 C122 1.396 . S
C121 C131 1.510 . S
C122 C118 1.401 . S
C122 C121 1.396 . S
C123 C118 1.499 . S
C123 H124 0.959 . S
C123 H125 0.960 . S
C123 H126 0.961 . S
H124 C123 0.959 . S
H125 C123 0.960 . S
H126 C123 0.961 . S
O127 Co102 1.967 . S
O127 C135 1.258 . S
O128 Co103 1.941 . S
O128 C135 1.266 . S
H129 C131 0.959 . S
H130 C131 0.961 . S
C131 C121 1.510 . S
C131 H129 0.959 . S
C131 H130 0.961 . S
C131 H132 0.960 . S
H132 C131 0.960 . S
H133 N113 0.862 . S
O134 Co102 1.920 . S
O134 C107 1.289 . S
C135 O127 1.258 . S
C135 O128 1.266 . S
Co136 O139 1.970 . S
Co136 N153 1.989 . S
Co136 O161 1.967 . S
Co136 O168 1.920 . S
Co137 O140 1.966 . S
Co137 N146 2.022 1_556 S
Co137 N154 1.993 . S
Co137 O162 1.941 . S
C138 O139 1.258 1_545 S
C138 O140 1.263 1_545 S
O139 Co136 1.970 . S
O139 C138 1.258 1_565 S
O140 Co137 1.966 . S
O140 C138 1.263 1_565 S
C141 O142 1.235 . S
C141 O168 1.289 . S
O142 C141 1.235 . S
C143 C145 1.400 . S
C143 N146 1.351 . S
C143 C148 1.501 1_565 S
C144 C145 1.387 . S
C144 N147 1.341 . S
C145 C143 1.400 . S
C145 C144 1.387 . S
N146 Co137 2.022 1_554 S
N146 C143 1.351 . S
N146 N147 1.365 . S
N147 C144 1.341 . S
N147 N146 1.365 . S
N147 H167 0.862 . S
C148 C143 1.501 1_545 S
C148 H149 0.961 1_554 S
C148 H150 0.961 . S
C148 H151 0.960 . S
H149 C148 0.961 1_556 S
H150 C148 0.961 . S
H151 C148 0.960 . S
C152 N153 1.342 . S
C152 C156 1.401 . S
C152 C157 1.499 . S
N153 Co136 1.989 . S
N153 C152 1.342 . S
N153 N154 1.388 . S
N154 Co137 1.993 . S
N154 N153 1.388 . S
N154 C155 1.346 . S
C155 N154 1.346 . S
C155 C156 1.396 . S
C155 C165 1.510 1_556 S
C156 C152 1.401 . S
C156 C155 1.396 . S
C157 C152 1.499 . S
C157 H158 0.959 . S
C157 H159 0.960 . S
C157 H160 0.961 . S
H158 C157 0.959 . S
H159 C157 0.960 . S
H160 C157 0.961 . S
O161 Co136 1.967 . S
O161 C169 1.258 . S
O162 Co137 1.941 . S
O162 C169 1.266 . S
H163 C165 0.959 . S
H164 C165 0.961 . S
C165 C155 1.510 1_554 S
C165 H163 0.959 . S
C165 H164 0.961 . S
C165 H166 0.960 . S
H166 C165 0.960 . S
H167 N147 0.862 . S
O168 Co136 1.920 . S
O168 C141 1.289 . S
C169 O161 1.258 . S
C169 O162 1.266 . S
Co170 O173 1.970 . S
Co170 N187 1.989 . S
Co170 O195 1.967 . S
Co170 O202 1.920 . S
Co171 O174 1.966 1_554 S
Co171 N180 2.022 . S
Co171 N188 1.993 1_554 S
Co171 O196 1.941 . S
C172 O173 1.258 . S
C172 O174 1.263 . S
O173 Co170 1.970 . S
O173 C172 1.258 . S
O174 Co171 1.966 1_556 S
O174 C172 1.263 . S
C175 O176 1.235 . S
C175 O202 1.289 . S
O176 C175 1.235 . S
C177 C179 1.400 . S
C177 N180 1.351 . S
C177 C182 1.501 . S
C178 C179 1.387 . S
C178 N181 1.341 . S
C179 C177 1.400 . S
C179 C178 1.387 . S
N180 Co171 2.022 . S
N180 C177 1.351 . S
N180 N181 1.365 . S
N181 C178 1.341 . S
N181 N180 1.365 . S
N181 H201 0.862 . S
C182 C177 1.501 . S
C182 H183 0.961 . S
C182 H184 0.961 . S
C182 H185 0.960 . S
H183 C182 0.961 . S
H184 C182 0.961 . S
H185 C182 0.960 . S
C186 N187 1.342 . S
C186 C190 1.401 . S
C186 C191 1.499 . S
N187 Co170 1.989 . S
N187 C186 1.342 . S
N187 N188 1.388 . S
N188 Co171 1.993 1_556 S
N188 N187 1.388 . S
N188 C189 1.346 1_556 S
C189 N188 1.346 1_554 S
C189 C190 1.396 1_554 S
C189 C199 1.510 . S
C190 C186 1.401 . S
C190 C189 1.396 1_556 S
C191 C186 1.499 . S
C191 H192 0.959 . S
C191 H193 0.960 . S
C191 H194 0.961 . S
H192 C191 0.959 . S
H193 C191 0.960 . S
H194 C191 0.961 . S
O195 Co170 1.967 . S
O195 C203 1.258 . S
O196 Co171 1.941 . S
O196 C203 1.266 1_554 S
H197 C199 0.959 . S
H198 C199 0.961 . S
C199 C189 1.510 . S
C199 H197 0.959 . S
C199 H198 0.961 . S
C199 H200 0.960 . S
H200 C199 0.960 . S
H201 N181 0.862 . S
O202 Co170 1.920 . S
O202 C175 1.289 . S
C203 O195 1.258 . S
C203 O196 1.266 1_556 S
Co204 O207 1.970 . S
Co204 N221 1.989 . S
Co204 O229 1.967 . S
Co204 O236 1.920 1_556 S
Co205 O208 1.966 . S
Co205 N214 2.022 . S
Co205 N222 1.993 . S
Co205 O230 1.941 . S
C206 O207 1.258 1_545 S
C206 O208 1.263 1_545 S
O207 Co204 1.970 . S
O207 C206 1.258 1_565 S
O208 Co205 1.966 . S
O208 C206 1.263 1_565 S
C209 O210 1.235 . S
C209 O236 1.289 . S
O210 C209 1.235 . S
C211 C213 1.400 . S
C211 N214 1.351 . S
C211 C216 1.501 1_565 S
C212 C213 1.387 . S
C212 N215 1.341 . S
C213 C211 1.400 . S
C213 C212 1.387 . S
N214 Co205 2.022 . S
N214 C211 1.351 . S
N214 N215 1.365 . S
N215 C212 1.341 . S
N215 N214 1.365 . S
N215 H235 0.862 . S
C216 C211 1.501 1_545 S
C216 H217 0.961 . S
C216 H218 0.961 . S
C216 H219 0.960 . S
H217 C216 0.961 . S
H218 C216 0.961 . S
H219 C216 0.960 . S
C220 N221 1.342 . S
C220 C224 1.401 . S
C220 C225 1.499 . S
N221 Co204 1.989 . S
N221 C220 1.342 . S
N221 N222 1.388 . S
N222 Co205 1.993 . S
N222 N221 1.388 . S
N222 C223 1.346 . S
C223 N222 1.346 . S
C223 C224 1.396 . S
C223 C233 1.510 . S
C224 C220 1.401 . S
C224 C223 1.396 . S
C225 C220 1.499 . S
C225 H226 0.959 . S
C225 H227 0.960 . S
C225 H228 0.961 . S
H226 C225 0.959 . S
H227 C225 0.960 . S
H228 C225 0.961 . S
O229 Co204 1.967 . S
O229 C237 1.258 . S
O230 Co205 1.941 . S
O230 C237 1.266 . S
H231 C233 0.959 . S
H232 C233 0.961 . S
C233 C223 1.510 . S
C233 H231 0.959 . S
C233 H232 0.961 . S
C233 H234 0.960 . S
H234 C233 0.960 . S
H235 N215 0.862 . S
O236 Co204 1.920 1_554 S
O236 C209 1.289 . S
C237 O229 1.258 . S
C237 O230 1.266 . S
Co238 O241 1.970 . S
Co238 N255 1.989 1_554 S
Co238 O263 1.967 . S
Co238 O270 1.920 . S
Co239 O242 1.966 . S
Co239 N248 2.022 . S
Co239 N256 1.993 . S
Co239 O264 1.941 . S
C240 O241 1.258 . S
C240 O242 1.263 1_554 S
O241 Co238 1.970 . S
O241 C240 1.258 . S
O242 Co239 1.966 . S
O242 C240 1.263 1_556 S
C243 O244 1.235 . S
C243 O270 1.289 . S
O244 C243 1.235 . S
C245 C247 1.400 . S
C245 N248 1.351 . S
C245 C250 1.501 . S
C246 C247 1.387 . S
C246 N249 1.341 . S
C247 C245 1.400 . S
C247 C246 1.387 . S
N248 Co239 2.022 . S
N248 C245 1.351 . S
N248 N249 1.365 . S
N249 C246 1.341 . S
N249 N248 1.365 . S
N249 H269 0.862 . S
C250 C245 1.501 . S
C250 H251 0.961 . S
C250 H252 0.961 . S
C250 H253 0.960 . S
H251 C250 0.961 . S
H252 C250 0.961 . S
H253 C250 0.960 . S
C254 N255 1.342 . S
C254 C258 1.401 . S
C254 C259 1.499 1_556 S
N255 Co238 1.989 1_556 S
N255 C254 1.342 . S
N255 N256 1.388 . S
N256 Co239 1.993 . S
N256 N255 1.388 . S
N256 C257 1.346 . S
C257 N256 1.346 . S
C257 C258 1.396 . S
C257 C267 1.510 . S
C258 C254 1.401 . S
C258 C257 1.396 . S
C259 C254 1.499 1_554 S
C259 H260 0.959 . S
C259 H261 0.960 . S
C259 H262 0.961 . S
H260 C259 0.959 . S
H261 C259 0.960 . S
H262 C259 0.961 . S
O263 Co238 1.967 . S
O263 C271 1.258 1_554 S
O264 Co239 1.941 . S
O264 C271 1.266 . S
H265 C267 0.959 . S
H266 C267 0.961 . S
C267 C257 1.510 . S
C267 H265 0.959 . S
C267 H266 0.961 . S
C267 H268 0.960 . S
H268 C267 0.960 . S
H269 N249 0.862 . S
O270 Co238 1.920 . S
O270 C243 1.289 . S
C271 O263 1.258 1_556 S
C271 O264 1.266 . S
Co272 O275 1.970 . S
Co272 N289 1.989 . S
Co272 O297 1.967 . S
Co272 O304 1.920 . S
Co273 O276 1.966 1_556 S
Co273 N282 2.022 . S
Co273 N290 1.993 1_556 S
Co273 O298 1.941 . S
C274 O275 1.258 1_655 S
C274 O276 1.263 1_655 S
O275 Co272 1.970 . S
O275 C274 1.258 1_455 S
O276 Co273 1.966 1_554 S
O276 C274 1.263 1_455 S
C277 O278 1.235 . S
C277 O304 1.289 . S
O278 C277 1.235 . S
C279 C281 1.400 . S
C279 N282 1.351 . S
C279 C284 1.501 1_455 S
C280 C281 1.387 . S
C280 N283 1.341 . S
C281 C279 1.400 . S
C281 C280 1.387 . S
N282 Co273 2.022 . S
N282 C279 1.351 . S
N282 N283 1.365 . S
N283 C280 1.341 . S
N283 N282 1.365 . S
N283 H303 0.862 . S
C284 C279 1.501 1_655 S
C284 H285 0.961 . S
C284 H286 0.961 . S
C284 H287 0.960 . S
H285 C284 0.961 . S
H286 C284 0.961 . S
H287 C284 0.960 . S
C288 N289 1.342 . S
C288 C292 1.401 . S
C288 C293 1.499 . S
N289 Co272 1.989 . S
N289 C288 1.342 . S
N289 N290 1.388 . S
N290 Co273 1.993 1_554 S
N290 N289 1.388 . S
N290 C291 1.346 1_554 S
C291 N290 1.346 1_556 S
C291 C292 1.396 1_556 S
C291 C301 1.510 . S
C292 C288 1.401 . S
C292 C291 1.396 1_554 S
C293 C288 1.499 . S
C293 H294 0.959 . S
C293 H295 0.960 . S
C293 H296 0.961 . S
H294 C293 0.959 . S
H295 C293 0.960 . S
H296 C293 0.961 . S
O297 Co272 1.967 . S
O297 C305 1.258 . S
O298 Co273 1.941 . S
O298 C305 1.266 1_556 S
H299 C301 0.959 . S
H300 C301 0.961 . S
C301 C291 1.510 . S
C301 H299 0.959 . S
C301 H300 0.961 . S
C301 H302 0.960 . S
H302 C301 0.960 . S
H303 N283 0.862 . S
O304 Co272 1.920 . S
O304 C277 1.289 . S
C305 O297 1.258 . S
C305 O298 1.266 1_554 S
Co306 O309 1.970 . S
Co306 N323 1.989 . S
Co306 O331 1.967 . S
Co306 O338 1.920 . S
Co307 O310 1.966 . S
Co307 N316 2.022 1_554 S
Co307 N324 1.993 . S
Co307 O332 1.941 . S
C308 O309 1.258 1_565 S
C308 O310 1.263 1_565 S
O309 Co306 1.970 . S
O309 C308 1.258 1_545 S
O310 Co307 1.966 . S
O310 C308 1.263 1_545 S
C311 O312 1.235 . S
C311 O338 1.289 . S
O312 C311 1.235 . S
C313 C315 1.400 . S
C313 N316 1.351 . S
C313 C318 1.501 1_545 S
C314 C315 1.387 . S
C314 N317 1.341 . S
C315 C313 1.400 . S
C315 C314 1.387 . S
N316 Co307 2.022 1_556 S
N316 C313 1.351 . S
N316 N317 1.365 . S
N317 C314 1.341 . S
N317 N316 1.365 . S
N317 H337 0.862 . S
C318 C313 1.501 1_565 S
C318 H319 0.961 1_556 S
C318 H320 0.961 . S
C318 H321 0.960 . S
H319 C318 0.961 1_554 S
H320 C318 0.961 . S
H321 C318 0.960 . S
C322 N323 1.342 . S
C322 C326 1.401 . S
C322 C327 1.499 . S
N323 Co306 1.989 . S
N323 C322 1.342 . S
N323 N324 1.388 . S
N324 Co307 1.993 . S
N324 N323 1.388 . S
N324 C325 1.346 . S
C325 N324 1.346 . S
C325 C326 1.396 . S
C325 C335 1.510 1_554 S
C326 C322 1.401 . S
C326 C325 1.396 . S
C327 C322 1.499 . S
C327 H328 0.959 . S
C327 H329 0.960 . S
C327 H330 0.961 . S
H328 C327 0.959 . S
H329 C327 0.960 . S
H330 C327 0.961 . S
O331 Co306 1.967 . S
O331 C339 1.258 . S
O332 Co307 1.941 . S
O332 C339 1.266 . S
H333 C335 0.959 . S
H334 C335 0.961 . S
C335 C325 1.510 1_556 S
C335 H333 0.959 . S
C335 H334 0.961 . S
C335 H336 0.960 . S
H336 C335 0.960 . S
H337 N317 0.862 . S
O338 Co306 1.920 . S
O338 C311 1.289 . S
C339 O331 1.258 . S
C339 O332 1.266 . S
Co340 O343 1.970 . S
Co340 N357 1.989 . S
Co340 O365 1.967 . S
Co340 O372 1.920 . S
Co341 O344 1.966 . S
Co341 N350 2.022 . S
Co341 N358 1.993 . S
Co341 O366 1.941 . S
C342 O343 1.258 . S
C342 O344 1.263 . S
O343 Co340 1.970 . S
O343 C342 1.258 . S
O344 Co341 1.966 . S
O344 C342 1.263 . S
C345 O346 1.235 . S
C345 O372 1.289 . S
O346 C345 1.235 . S
C347 C349 1.400 1_554 S
C347 N350 1.351 . S
C347 C352 1.501 . S
C348 C349 1.387 . S
C348 N351 1.341 1_556 S
C349 C347 1.400 1_556 S
C349 C348 1.387 . S
N350 Co341 2.022 . S
N350 C347 1.351 . S
N350 N351 1.365 . S
N351 C348 1.341 1_554 S
N351 N350 1.365 . S
N351 H371 0.862 . S
C352 C347 1.501 . S
C352 H353 0.961 . S
C352 H354 0.961 . S
C352 H355 0.960 . S
H353 C352 0.961 . S
H354 C352 0.961 . S
H355 C352 0.960 . S
C356 N357 1.342 . S
C356 C360 1.401 . S
C356 C361 1.499 . S
N357 Co340 1.989 . S
N357 C356 1.342 . S
N357 N358 1.388 . S
N358 Co341 1.993 . S
N358 N357 1.388 . S
N358 C359 1.346 . S
C359 N358 1.346 . S
C359 C360 1.396 . S
C359 C369 1.510 . S
C360 C356 1.401 . S
C360 C359 1.396 . S
C361 C356 1.499 . S
C361 H362 0.959 . S
C361 H363 0.960 . S
C361 H364 0.961 . S
H362 C361 0.959 . S
H363 C361 0.960 . S
H364 C361 0.961 . S
O365 Co340 1.967 . S
O365 C373 1.258 . S
O366 Co341 1.941 . S
O366 C373 1.266 . S
H367 C369 0.959 . S
H368 C369 0.961 . S
C369 C359 1.510 . S
C369 H367 0.959 . S
C369 H368 0.961 . S
C369 H370 0.960 . S
H370 C369 0.960 . S
H371 N351 0.862 . S
O372 Co340 1.920 . S
O372 C345 1.289 . S
C373 O365 1.258 . S
C373 O366 1.266 . S
Co374 O377 1.970 . S
Co374 N391 1.989 . S
Co374 O399 1.967 . S
Co374 O406 1.920 . S
Co375 O378 1.966 . S
Co375 N384 2.022 . S
Co375 N392 1.993 . S
Co375 O400 1.941 . S
C376 O377 1.258 1_455 S
C376 O378 1.263 1_455 S
O377 Co374 1.970 . S
O377 C376 1.258 1_655 S
O378 Co375 1.966 . S
O378 C376 1.263 1_655 S
C379 O380 1.235 1_554 S
C379 O406 1.289 1_554 S
O380 C379 1.235 1_556 S
C381 C383 1.400 . S
C381 N384 1.351 . S
C381 C386 1.501 1_655 S
C382 C383 1.387 . S
C382 N385 1.341 . S
C383 C381 1.400 . S
C383 C382 1.387 . S
N384 Co375 2.022 . S
N384 C381 1.351 . S
N384 N385 1.365 . S
N385 C382 1.341 . S
N385 N384 1.365 . S
N385 H405 0.862 . S
C386 C381 1.501 1_455 S
C386 H387 0.961 . S
C386 H388 0.961 . S
C386 H389 0.960 . S
H387 C386 0.961 . S
H388 C386 0.961 . S
H389 C386 0.960 . S
C390 N391 1.342 . S
C390 C394 1.401 . S
C390 C395 1.499 . S
N391 Co374 1.989 . S
N391 C390 1.342 . S
N391 N392 1.388 . S
N392 Co375 1.993 . S
N392 N391 1.388 . S
N392 C393 1.346 . S
C393 N392 1.346 . S
C393 C394 1.396 . S
C393 C403 1.510 . S
C394 C390 1.401 . S
C394 C393 1.396 . S
C395 C390 1.499 . S
C395 H396 0.959 . S
C395 H397 0.960 . S
C395 H398 0.961 . S
H396 C395 0.959 . S
H397 C395 0.960 . S
H398 C395 0.961 . S
O399 Co374 1.967 . S
O399 C407 1.258 . S
O400 Co375 1.941 . S
O400 C407 1.266 . S
H401 C403 0.959 . S
H402 C403 0.961 . S
C403 C393 1.510 . S
C403 H401 0.959 . S
C403 H402 0.961 . S
C403 H404 0.960 . S
H404 C403 0.960 . S
H405 N385 0.862 . S
O406 Co374 1.920 . S
O406 C379 1.289 1_556 S
C407 O399 1.258 . S
C407 O400 1.266 . S
C305 C33 1.669 . S
C339 C67 1.669 . S
C373 C101 1.669 . S
C407 C135 1.669 . S
C169 C237 1.669 . S
C271 C203 1.669 . S
C2 C376 3.086 1_655 S
C206 C36 3.086 1_546 S
C70 C240 3.086 . S
C104 C274 3.086 1_455 S
C308 C138 3.086 1_565 S
C172 C342 3.086 . S
C20 C360 2.133 . S
C54 C394 2.133 . S
C224 C88 2.133 . S
C258 C122 2.133 . S
C156 C292 2.133 1_556 S
C326 C190 2.133 1_554 S
C9 C5 2.744 . S
C39 C43 2.744 . S
C77 C73 2.744 . S
C111 C107 2.744 . S
C141 C145 2.744 . S
C175 C179 2.744 . S
C209 C213 2.744 . S
C243 C247 2.743 . S
C277 C281 2.744 . S
C311 C315 2.744 . S
C345 C349 2.744 . S
C383 C379 2.744 . S
