# Generated by pormake.
# Topology can, (4)-cn, num edge types: 1
# Building blocks:
#     Node 0, Type 0, BuildingBlock: ICAMEG_clean_sbu_1, # of connection points: 4
#     Node 1, Type 0, BuildingBlock: ICAMEG_clean_sbu_1, # of connection points: 4
#     Node 2, Type 0, BuildingBlock: ICAMEG_clean_sbu_1, # of connection points: 4
#     Node 3, Type 0, BuildingBlock: ICAMEG_clean_sbu_1, # of connection points: 4
#     Node 4, Type 0, BuildingBlock: ICAMEG_clean_sbu_1, # of connection points: 4
#     Node 5, Type 0, BuildingBlock: ICAMEG_clean_sbu_1, # of connection points: 4
#     Node 6, Type 0, BuildingBlock: ICAMEG_clean_sbu_1, # of connection points: 4
#     Node 7, Type 0, BuildingBlock: ICAMEG_clean_sbu_1, # of connection points: 4
#     Node 8, Type 0, BuildingBlock: ICAMEG_clean_sbu_1, # of connection points: 4
#     Node 9, Type 0, BuildingBlock: ICAMEG_clean_sbu_1, # of connection points: 4
#     Node 10, Type 0, BuildingBlock: ICAMEG_clean_sbu_1, # of connection points: 4
#     Node 11, Type 0, BuildingBlock: ICAMEG_clean_sbu_1, # of connection points: 4
#     Edge 12, Type (0, 0), BuildingBlock: OJICUG_clean_linker_0, # of connection points: 2
#     Edge 13, Type (0, 0), BuildingBlock: OJICUG_clean_linker_0, # of connection points: 2
#     Edge 14, Type (0, 0), BuildingBlock: OJICUG_clean_linker_0, # of connection points: 2
#     Edge 15, Type (0, 0), BuildingBlock: OJICUG_clean_linker_0, # of connection points: 2
#     Edge 16, Type (0, 0), BuildingBlock: OJICUG_clean_linker_0, # of connection points: 2
#     Edge 17, Type (0, 0), BuildingBlock: OJICUG_clean_linker_0, # of connection points: 2
#     Edge 18, Type (0, 0), BuildingBlock: OJICUG_clean_linker_0, # of connection points: 2
#     Edge 19, Type (0, 0), BuildingBlock: OJICUG_clean_linker_0, # of connection points: 2
#     Edge 20, Type (0, 0), BuildingBlock: OJICUG_clean_linker_0, # of connection points: 2
#     Edge 21, Type (0, 0), BuildingBlock: OJICUG_clean_linker_0, # of connection points: 2
#     Edge 22, Type (0, 0), BuildingBlock: OJICUG_clean_linker_0, # of connection points: 2
#     Edge 23, Type (0, 0), BuildingBlock: OJICUG_clean_linker_0, # of connection points: 2
#     Edge 24, Type (0, 0), BuildingBlock: OJICUG_clean_linker_0, # of connection points: 2
#     Edge 25, Type (0, 0), BuildingBlock: OJICUG_clean_linker_0, # of connection points: 2
#     Edge 26, Type (0, 0), BuildingBlock: OJICUG_clean_linker_0, # of connection points: 2
#     Edge 27, Type (0, 0), BuildingBlock: OJICUG_clean_linker_0, # of connection points: 2
#     Edge 28, Type (0, 0), BuildingBlock: OJICUG_clean_linker_0, # of connection points: 2
#     Edge 29, Type (0, 0), BuildingBlock: OJICUG_clean_linker_0, # of connection points: 2
#     Edge 30, Type (0, 0), BuildingBlock: OJICUG_clean_linker_0, # of connection points: 2
#     Edge 31, Type (0, 0), BuildingBlock: OJICUG_clean_linker_0, # of connection points: 2
#     Edge 32, Type (0, 0), BuildingBlock: OJICUG_clean_linker_0, # of connection points: 2
#     Edge 33, Type (0, 0), BuildingBlock: OJICUG_clean_linker_0, # of connection points: 2
#     Edge 34, Type (0, 0), BuildingBlock: OJICUG_clean_linker_0, # of connection points: 2
#     Edge 35, Type (0, 0), BuildingBlock: OJICUG_clean_linker_0, # of connection points: 2
# Relax obj value: 0.061
# Max RMSD: 0.076
# Mean RMSD: 0.076
data_MOF--net-can--node1-ICAMEG_clean_sbu_1--edge1-OJICUG_clean_linker_0
_symmetry_space_group_name_H-M    P1
_symmetry_Int_Tables_number       1
_symmetry_cell_setting            triclinic
loop_
_symmetry_equiv_pos_as_xyz
'x, y, z'
_cell_length_a     42.315237
_cell_length_b     42.269012
_cell_length_c     22.501365
_cell_angle_alpha  90.007961
_cell_angle_beta   90.001726
_cell_angle_gamma 120.05779
loop_
_atom_site_label
_atom_site_type_symbol
_atom_site_fract_x
_atom_site_fract_y
_atom_site_fract_z
_atom_type_partial_charge
Co0 Co 0.01677 0.37999 0.2553 0.0
Co1 Co 0.10142 0.4403 0.20207 0.0
O2 O 0.07004 0.40178 0.25865 0.0
C3 C 0.03349 0.39726 0.3822 0.0
O4 O 0.06196 0.42832 0.3662 0.0
C5 C 0.13658 0.39343 0.21866 0.0
O6 O 0.10448 0.36368 0.22226 0.0
O7 O 0.07522 0.40619 0.13463 0.0
O8 O 0.01785 0.38476 0.1664 0.0
H9 H 0.12633 0.5156 0.01687 0.0
H10 H 0.04734 0.34004 0.3185 0.0
O11 O 0.01326 0.37411 0.3434 0.0
H12 H 0.96864 0.25582 0.16179 0.0
H13 H 0.88671 0.29158 0.31375 0.0
H14 H 0.96728 0.39838 0.19018 0.0
H15 H 0.97465 0.31658 0.17355 0.0
H16 H 0.95349 0.31758 0.31611 0.0
O17 O 0.13892 0.42403 0.20648 0.0
H18 H 0.08783 0.46887 0.09048 0.0
H19 H 0.1818 0.49155 0.19115 0.0
H20 H 0.90062 0.37303 0.18599 0.0
H21 H 0.04175 0.27928 0.30889 0.0
H22 H 0.85986 0.31924 0.24812 0.0
H23 H 1.00226 0.23676 0.2299 0.0
O24 O 0.0229 0.42936 0.26569 0.0
H25 H 0.16353 0.4753 0.40142 0.0
H26 H 0.12297 0.51781 0.22906 0.0
H27 H 0.15286 0.55955 0.31324 0.0
H28 H 0.17355 0.53844 0.40017 0.0
H29 H 0.13272 0.43413 0.31689 0.0
H30 H 0.22133 0.53836 0.11842 0.0
H31 H 0.19361 0.55076 0.03062 0.0
O32 O 0.06641 0.45968 0.19789 0.0
C33 C 0.04076 0.39015 0.1252 0.0
C34 C 0.13874 0.5105 0.055 0.0
C35 C 0.19205 0.52323 0.11194 0.0
N36 N 0.1325 0.47751 0.14519 0.0
C37 C 0.11706 0.4841 0.0969 0.0
C38 C 0.16953 0.49658 0.15288 0.0
C39 C 0.17648 0.53019 0.06271 0.0
C40 C 0.02991 0.32156 0.28432 0.0
N41 N 0.01145 0.33189 0.24654 0.0
C42 C 0.02694 0.28725 0.27896 0.0
C43 C 1.00483 0.26343 0.23458 0.0
C44 C 0.986 0.27413 0.19629 0.0
C45 C 0.98966 0.30866 0.20297 0.0
C46 C 0.90418 0.31497 0.28637 0.0
C47 C 0.94969 0.37482 0.21703 0.0
C48 C 0.94202 0.32985 0.28759 0.0
N49 N 0.96423 0.35927 0.25289 0.0
C50 C 0.91198 0.36065 0.21461 0.0
C51 C 0.88913 0.33049 0.24952 0.0
C52 C 0.0427 0.45778 0.23499 0.0
C53 C 0.15474 0.48486 0.36372 0.0
C54 C 0.13161 0.50825 0.26685 0.0
C55 C 0.14868 0.53211 0.31432 0.0
C56 C 0.1603 0.52026 0.36304 0.0
N57 N 0.12608 0.47347 0.26789 0.0
C58 C 0.13748 0.46172 0.3155 0.0
Co59 Co 0.64362 0.01224 0.75413 0.0
Co60 Co 0.67287 0.09901 0.70299 0.0
O61 O 0.67704 0.06538 0.75858 0.0
C62 C 0.64006 0.02881 0.88006 0.0
O63 O 0.63821 0.05739 0.8623 0.0
C64 C 0.75478 0.13147 0.72395 0.0
O65 O 0.75086 0.09925 0.73525 0.0
O66 O 0.67804 0.07168 0.63417 0.0
O67 O 0.64207 0.01397 0.66523 0.0
H68 H 0.62594 0.12946 0.51932 0.0
H69 H 0.71204 0.03962 0.82281 0.0
O70 O 0.64369 0.00836 0.84256 0.0
H71 H 0.71824 0.9609 0.66691 0.0
H72 H 0.5961 0.88107 0.81294 0.0
H73 H 0.57669 0.96457 0.68506 0.0
H74 H 0.66483 0.96939 0.67429 0.0
H75 H 0.6387 0.94759 0.81654 0.0
O76 O 0.72749 0.13419 0.70654 0.0
H77 H 0.63124 0.08867 0.59185 0.0
H78 H 0.70632 0.18025 0.69395 0.0
H79 H 0.53361 0.89819 0.67962 0.0
H80 H 0.7658 0.0315 0.8176 0.0
H81 H 0.5432 0.85596 0.7439 0.0
H82 H 0.76918 0.992 0.73905 0.0
O83 O 0.60099 0.01967 0.76065 0.0
H84 H 0.70396 0.15835 0.90478 0.0
H85 H 0.62218 0.12691 0.73177 0.0
H86 H 0.61372 0.15822 0.81736 0.0
H87 H 0.65494 0.17437 0.90464 0.0
H88 H 0.71088 0.12625 0.81885 0.0
H89 H 0.7021 0.22205 0.62227 0.0
H90 H 0.66154 0.1967 0.53429 0.0
O91 O 0.6181 0.06718 0.69949 0.0
C92 C 0.65928 0.03721 0.62426 0.0
C93 C 0.64369 0.14085 0.5575 0.0
C94 C 0.68648 0.19281 0.61521 0.0
N95 N 0.66912 0.13202 0.64713 0.0
C96 C 0.64679 0.11788 0.59877 0.0
C97 C 0.68892 0.169 0.65552 0.0
C98 C 0.6637 0.17857 0.56589 0.0
C99 C 0.71323 0.02219 0.78878 0.0
N100 N 0.6854 1.00512 0.74879 0.0
C101 C 0.74378 0.01779 0.78593 0.0
C102 C 0.74568 0.99566 0.74179 0.0
C103 C 0.71713 0.97825 0.70125 0.0
C104 C 0.68704 0.98333 0.70544 0.0
C105 C 0.59169 0.89918 0.7846 0.0
C106 C 0.58117 0.94633 0.71287 0.0
C107 C 0.61568 0.93688 0.78651 0.0
N108 N 0.61036 0.9599 0.75063 0.0
C109 C 0.55663 0.90879 0.70973 0.0
C110 C 0.56201 0.88511 0.74585 0.0
C111 C 0.59426 0.0416 0.73207 0.0
C112 C 0.68592 0.15159 0.86692 0.0
C113 C 0.64 0.13347 0.76971 0.0
C114 C 0.6352 0.15141 0.81798 0.0
C115 C 0.65836 0.1605 0.86688 0.0
N116 N 0.66708 0.12477 0.77 0.0
C117 C 0.68987 0.13362 0.81787 0.0
Co118 Co 0.64371 0.63907 0.25675 0.0
Co119 Co 0.58955 0.67225 0.20536 0.0
O120 O 0.62614 0.67408 0.26125 0.0
C121 C 0.62525 0.6378 0.38295 0.0
O122 O 0.59555 0.63767 0.36586 0.0
C123 C 0.6394 0.75259 0.23785 0.0
O124 O 0.65959 0.74419 0.27104 0.0
O125 O 0.62135 0.67545 0.13697 0.0
O126 O 0.63967 0.63683 0.16799 0.0
H127 H 0.51112 0.62773 0.02237 0.0
H128 H 0.68834 0.70723 0.32474 0.0
O129 O 0.64832 0.6396 0.34498 0.0
H130 H 0.7693 0.70854 0.16599 0.0
H131 H 0.723 0.58645 0.31449 0.0
H132 H 0.62054 0.57077 0.18908 0.0
H133 H 0.70635 0.65699 0.17528 0.0
H134 H 0.70209 0.63141 0.31808 0.0
O135 O 0.61298 0.72794 0.20721 0.0
H136 H 0.55567 0.63008 0.09546 0.0
H137 H 0.54768 0.71166 0.19361 0.0
H138 H 0.64079 0.52533 0.18367 0.0
H139 H 0.75128 0.75922 0.31753 0.0
H140 H 0.69238 0.53304 0.2467 0.0
H141 H 0.79219 0.76014 0.23754 0.0
O142 O 0.59284 0.59843 0.26462 0.0
H143 H 0.56026 0.70251 0.40811 0.0
H144 H 0.51031 0.62493 0.23032 0.0
H145 H 0.46934 0.6175 0.31331 0.0
H146 H 0.49414 0.65666 0.40295 0.0
H147 H 0.60036 0.70835 0.32512 0.0
H148 H 0.50328 0.7104 0.12129 0.0
H149 H 0.48459 0.66809 0.03507 0.0
O150 O 0.5637 0.61686 0.20264 0.0
C151 C 0.63505 0.65498 0.12703 0.0
C152 C 0.51898 0.64622 0.05984 0.0
C153 C 0.51463 0.69266 0.1153 0.0
N154 N 0.55417 0.67085 0.1489 0.0
C155 C 0.54414 0.64762 0.10145 0.0
C156 C 0.5399 0.69335 0.15599 0.0
C157 C 0.50414 0.6689 0.06695 0.0
C158 C 0.706 0.70744 0.28985 0.0
N159 N 0.69351 0.67931 0.25007 0.0
C160 C 0.7416 0.73695 0.28597 0.0
C161 C 0.76453 0.73746 0.24106 0.0
C162 C 0.75169 0.70855 0.20085 0.0
C163 C 0.71591 0.67952 0.20609 0.0
C164 C 0.70056 0.58284 0.28669 0.0
C165 C 0.64317 0.57443 0.21634 0.0
C166 C 0.68856 0.60818 0.28859 0.0
N167 N 0.66035 0.60389 0.25338 0.0
C168 C 0.65444 0.54856 0.21322 0.0
C169 C 0.68337 0.55288 0.24864 0.0
C170 C 0.56453 0.5928 0.2361 0.0
C171 C 0.54902 0.68561 0.36897 0.0
C172 C 0.52148 0.64222 0.26898 0.0
C173 C 0.49804 0.63784 0.31592 0.0
C174 C 0.51196 0.6598 0.36616 0.0
N175 N 0.55784 0.6679 0.27161 0.0
C176 C 0.57165 0.68918 0.32118 0.0
Co177 Co 1.00389 0.63531 0.75365 0.0
Co178 Co 0.91952 0.57281 0.70161 0.0
O179 O 0.95052 0.61174 0.75778 0.0
C180 C 0.98773 0.61627 0.87984 0.0
O181 O 0.96026 0.58481 0.86272 0.0
C182 C 0.8836 0.61887 0.71666 0.0
O183 O 0.91562 0.64887 0.71641 0.0
O184 O 0.94458 0.60693 0.6338 0.0
O185 O 1.00251 0.63115 0.66473 0.0
H186 H 0.895 0.49698 0.5171 0.0
H187 H 0.97121 0.67255 0.8191 0.0
O188 O 1.00744 0.64041 0.84187 0.0
H189 H 0.04715 0.75938 0.66304 0.0
H190 H 0.13304 0.72686 0.81195 0.0
H191 H 0.05498 0.62012 0.68637 0.0
H192 H 0.04368 0.69964 0.67288 0.0
H193 H 0.06599 0.6985 0.81512 0.0
O194 O 0.88126 0.588 0.70703 0.0
H195 H 0.93328 0.54452 0.58983 0.0
H196 H 0.83939 0.52028 0.69201 0.0
H197 H 0.12193 0.64785 0.68134 0.0
H198 H 0.97424 0.73226 0.81141 0.0
H199 H 0.16143 0.70162 0.74448 0.0
H200 H 0.01234 0.77608 0.73277 0.0
O201 O 0.99994 0.5868 0.76243 0.0
H202 H 0.85849 0.5367 0.9017 0.0
H203 H 0.90052 0.49604 0.72884 0.0
H204 H 0.87205 0.45421 0.81338 0.0
H205 H 0.85064 0.47439 0.90058 0.0
H206 H 0.88791 0.57801 0.81676 0.0
H207 H 0.80008 0.47264 0.62018 0.0
H208 H 0.82788 0.46061 0.53209 0.0
O209 O 0.95559 0.55474 0.69659 0.0
C210 C 0.979 0.62431 0.62387 0.0
C211 C 0.88257 0.5019 0.55538 0.0
C212 C 0.82929 0.48829 0.61318 0.0
N213 N 0.88864 0.53511 0.64526 0.0
C214 C 0.90412 0.52876 0.59678 0.0
C215 C 0.85169 0.5154 0.65361 0.0
C216 C 0.84491 0.48154 0.56379 0.0
C217 C 0.98804 0.69161 0.78507 0.0
N218 N 1.00717 0.68259 0.74643 0.0
C219 C 0.98957 0.72532 0.78079 0.0
C220 C 0.0109 0.74987 0.73661 0.0
C221 C 0.0304 0.7405 0.69742 0.0
C222 C 0.02819 0.70654 0.70302 0.0
C223 C 0.11612 0.7035 0.78411 0.0
C224 C 0.07201 0.64367 0.71366 0.0
C225 C 0.07814 0.68729 0.78579 0.0
N226 N 0.05663 0.65789 0.75053 0.0
C227 C 0.10989 0.65918 0.71076 0.0
C228 C 0.13204 0.68933 0.74624 0.0
C229 C 0.98054 0.55801 0.73225 0.0
C230 C 0.86761 0.52756 0.86389 0.0
C231 C 0.89158 0.50522 0.76675 0.0
C232 C 0.87531 0.4813 0.81442 0.0
C233 C 0.86327 0.49262 0.86329 0.0
N234 N 0.89593 0.53954 0.76774 0.0
C235 C 0.88409 0.55077 0.81546 0.0
Co236 Co 0.38111 1.00587 0.25506 0.0
Co237 Co 0.34494 0.91691 0.20639 0.0
O238 O 0.3452 0.95335 0.26094 0.0
C239 C 0.38516 0.98875 0.38054 0.0
O240 O 0.38515 0.95928 0.36224 0.0
C241 C 0.26511 0.8888 0.23858 0.0
O242 O 0.27401 0.91715 0.27281 0.0
O243 O 0.34394 0.94592 0.13641 0.0
O244 O 0.38093 1.00362 0.16639 0.0
H245 H 0.38711 0.87828 0.02603 0.0
H246 H 0.31494 0.9834 0.32798 0.0
O247 O 0.38283 0.01019 0.34349 0.0
H248 H 0.31102 0.0633 0.17204 0.0
H249 H 0.43695 0.13831 0.31291 0.0
H250 H 0.44768 0.05018 0.18301 0.0
H251 H 0.362 0.05088 0.17654 0.0
H252 H 0.39143 0.07257 0.31799 0.0
O253 O 0.2893 0.88696 0.20701 0.0
H254 H 0.3871 0.92223 0.09814 0.0
H255 H 0.30155 0.83536 0.19527 0.0
H256 H 0.49364 0.11573 0.1761 0.0
H257 H 0.26358 0.99539 0.32555 0.0
H258 H 0.48842 0.16029 0.24138 0.0
H259 H 0.26135 0.03552 0.24702 0.0
O260 O 0.42179 0.99534 0.25852 0.0
H261 H 0.31279 0.86188 0.41255 0.0
H262 H 0.38577 0.87814 0.23282 0.0
H263 H 0.39004 0.84363 0.31729 0.0
H264 H 0.35308 0.83492 0.40796 0.0
H265 H 0.31019 0.89699 0.32811 0.0
H266 H 0.3004 0.79055 0.12387 0.0
H267 H 0.34352 0.81191 0.03867 0.0
O268 O 0.40007 0.94369 0.2053 0.0
C269 C 0.36339 0.98021 0.12592 0.0
C270 C 0.36826 0.86863 0.06308 0.0
C271 C 0.31955 0.8194 0.11792 0.0
N272 N 0.34453 0.88141 0.15108 0.0
C273 C 0.3682 0.89337 0.10415 0.0
C274 C 0.32023 0.84494 0.15808 0.0
C275 C 0.34377 0.8314 0.07016 0.0
C276 C 0.31419 1.00095 0.29377 0.0
N277 N 0.34128 0.01615 0.25219 0.0
C278 C 0.28503 1.00761 0.29257 0.0
C279 C 0.28378 0.03011 0.24848 0.0
C280 C 0.3116 0.04566 0.20635 0.0
C281 C 0.34031 0.03835 0.20891 0.0
C282 C 0.43947 0.11918 0.28413 0.0
C283 C 0.4451 0.06944 0.21128 0.0
C284 C 0.41381 0.08191 0.28686 0.0
N285 N 0.41671 0.05761 0.25041 0.0
C286 C 0.47126 0.10651 0.20729 0.0
C287 C 0.46834 0.13149 0.24398 0.0
C288 C 0.42591 0.97075 0.233 0.0
C289 C 0.32864 0.86502 0.37297 0.0
C290 C 0.36955 0.8746 0.27187 0.0
C291 C 0.37208 0.85493 0.31968 0.0
C292 C 0.35135 0.85004 0.37049 0.0
N293 N 0.34682 0.88888 0.27405 0.0
C294 C 0.32684 0.88455 0.32426 0.0
Co295 Co 0.37828 0.376 0.75573 0.0
Co296 Co 0.43344 0.34414 0.70415 0.0
O297 O 0.39648 0.34149 0.76007 0.0
C298 C 0.3962 0.37687 0.8821 0.0
O299 O 0.42611 0.37735 0.86527 0.0
C300 C 0.3848 0.26359 0.73654 0.0
O301 O 0.36423 0.27143 0.76984 0.0
O302 O 0.40132 0.3403 0.63587 0.0
O303 O 0.38274 0.37869 0.667 0.0
H304 H 0.51156 0.38975 0.52097 0.0
H305 H 0.33401 0.3073 0.82254 0.0
O306 O 0.3732 0.37498 0.84392 0.0
H307 H 0.25318 0.30582 0.6634 0.0
H308 H 0.29751 0.42697 0.8132 0.0
H309 H 0.40104 0.44447 0.68889 0.0
H310 H 0.3158 0.35782 0.67371 0.0
H311 H 0.3191 0.38255 0.81658 0.0
O312 O 0.41101 0.28856 0.70603 0.0
H313 H 0.46665 0.3865 0.59416 0.0
H314 H 0.47668 0.30615 0.69239 0.0
H315 H 0.38011 0.48938 0.68368 0.0
H316 H 0.27138 0.25484 0.8143 0.0
H317 H 0.32798 0.48076 0.74616 0.0
H318 H 0.23054 0.25384 0.73412 0.0
O319 O 0.42891 0.41695 0.76448 0.0
H320 H 0.46384 0.31497 0.90688 0.0
H321 H 0.51253 0.39271 0.72905 0.0
H322 H 0.55379 0.40111 0.8121 0.0
H323 H 0.52963 0.36187 0.90176 0.0
H324 H 0.4234 0.30822 0.82386 0.0
H325 H 0.52149 0.30834 0.62 0.0
H326 H 0.53932 0.35048 0.53368 0.0
O327 O 0.45835 0.39947 0.7014 0.0
C328 C 0.38745 0.36063 0.62598 0.0
C329 C 0.50408 0.37134 0.55848 0.0
C330 C 0.5096 0.3256 0.614 0.0
N331 N 0.46915 0.34629 0.64764 0.0
C332 C 0.47871 0.36943 0.60014 0.0
C333 C 0.4841 0.32438 0.65473 0.0
C334 C 0.51961 0.34927 0.5656 0.0
C335 C 0.31638 0.30704 0.78756 0.0
N336 N 0.32872 0.33539 0.74824 0.0
C337 C 0.28096 0.27727 0.7831 0.0
C338 C 0.25806 0.27672 0.73809 0.0
C339 C 0.27076 0.30585 0.69835 0.0
C340 C 0.30636 0.33513 0.70416 0.0
C341 C 0.32019 0.43097 0.78564 0.0
C342 C 0.37818 0.44041 0.7159 0.0
C343 C 0.33257 0.40595 0.78743 0.0
N344 N 0.36108 0.41074 0.75252 0.0
C345 C 0.36652 0.46598 0.7129 0.0
C346 C 0.3373 0.46114 0.74801 0.0
C347 C 0.45724 0.42308 0.73558 0.0
C348 C 0.47481 0.33192 0.86773 0.0
C349 C 0.50163 0.37538 0.76772 0.0
C350 C 0.52523 0.38032 0.81469 0.0
C351 C 0.51168 0.35832 0.86494 0.0
N352 N 0.46545 0.34916 0.77035 0.0
C353 C 0.45199 0.32782 0.81992 0.0
Co354 Co 0.64167 1.00601 0.25298 0.0
Co355 Co 0.58822 0.91617 0.30026 0.0
O356 O 0.62512 0.95337 0.2472 0.0
C357 C 0.62035 0.98884 0.12732 0.0
O358 O 0.59124 0.95887 0.1452 0.0
C359 C 0.6419 0.88986 0.27334 0.0
O360 O 0.66155 0.91825 0.23931 0.0
O361 O 0.61552 0.94586 0.37205 0.0
O362 O 0.64002 1.0039 0.34129 0.0
H363 H 0.50223 0.87589 0.47403 0.0
H364 H 0.68496 0.98345 0.17921 0.0
O365 O 0.64388 0.01035 0.1646 0.0
H366 H 0.76963 0.06347 0.33431 0.0
H367 H 0.71813 0.13843 0.19482 0.0
H368 H 0.61985 0.05043 0.32575 0.0
H369 H 0.7062 0.05103 0.3308 0.0
H370 H 0.6978 0.07268 0.1896 0.0
O371 O 0.61555 0.88789 0.30415 0.0
H372 H 0.54703 0.92027 0.4033 0.0
H373 H 0.55288 0.8348 0.3139 0.0
H374 H 0.63956 0.11598 0.3328 0.0
H375 H 0.74834 0.99549 0.18062 0.0
H376 H 0.68904 0.16048 0.26701 0.0
H377 H 0.79113 0.03567 0.25873 0.0
O378 O 0.59043 0.99567 0.2504 0.0
H379 H 0.57291 0.86196 0.09436 0.0
H380 H 0.50925 0.87298 0.26947 0.0
H381 H 0.47343 0.83596 0.18437 0.0
H382 H 0.50517 0.82994 0.09599 0.0
H383 H 0.60758 0.89906 0.17954 0.0
H384 H 0.50852 0.78963 0.38409 0.0
H385 H 0.48271 0.81005 0.46467 0.0
O386 O 0.5582 0.94105 0.29561 0.0
C387 C 0.63188 0.9803 0.38219 0.0
C388 C 0.51318 0.86664 0.43897 0.0
C389 C 0.51679 0.81824 0.38858 0.0
N390 N 0.5524 0.88018 0.35424 0.0
C391 C 0.53846 0.89162 0.39866 0.0
C392 C 0.54205 0.84401 0.34913 0.0
C393 C 0.50229 0.82971 0.43375 0.0
C394 C 0.70346 1.00106 0.2132 0.0
N395 N 0.69178 0.01628 0.25511 0.0
C396 C 0.7393 0.00773 0.21384 0.0
C397 C 0.76327 0.03025 0.25771 0.0
C398 C 0.75122 0.04581 0.30018 0.0
C399 C 0.71518 0.03849 0.29818 0.0
C400 C 0.6966 0.11932 0.22382 0.0
C401 C 0.64155 0.06965 0.29722 0.0
C402 C 0.68493 0.08204 0.221 0.0
N403 N 0.65787 0.05777 0.2577 0.0
C404 C 0.65253 0.10672 0.30131 0.0
C405 C 0.68027 0.13167 0.26434 0.0
C406 C 0.56082 0.96963 0.2713 0.0
C407 C 0.5587 0.8638 0.13304 0.0
C408 C 0.52348 0.87022 0.23175 0.0
C409 C 0.50293 0.84929 0.18342 0.0
C410 C 0.52073 0.84597 0.13386 0.0
N411 N 0.5608 0.88714 0.23138 0.0
C412 C 0.57834 0.88449 0.18222 0.0
Co413 Co 0.6462 0.63399 0.75561 0.0
Co414 Co 0.66971 0.57278 0.80793 0.0
O415 O 0.677 0.61149 0.75171 0.0
C416 C 0.64387 0.6153 0.62927 0.0
O417 O 0.64045 0.58404 0.64617 0.0
C418 C 0.75171 0.61947 0.79134 0.0
O419 O 0.7494 0.64925 0.78869 0.0
O420 O 0.67801 0.60675 0.87573 0.0
O421 O 0.64328 0.62976 0.84458 0.0
H422 H 0.61926 0.49702 0.99267 0.0
H423 H 0.71619 0.67263 0.69052 0.0
O424 O 0.64786 0.63919 0.66741 0.0
H425 H 0.7247 0.75851 0.84653 0.0
H426 H 0.606 0.72347 0.6971 0.0
H427 H 0.5793 0.61722 0.82242 0.0
H428 H 0.66927 0.69808 0.83646 0.0
H429 H 0.64589 0.69647 0.69416 0.0
O430 O 0.7234 0.58878 0.80304 0.0
H431 H 0.62767 0.54407 0.9196 0.0
H432 H 0.6984 0.52116 0.81782 0.0
H433 H 0.53889 0.64359 0.82722 0.0
H434 H 0.77202 0.73305 0.6984 0.0
H435 H 0.55215 0.6971 0.76421 0.0
H436 H 0.77655 0.77641 0.77702 0.0
O437 O 0.60229 0.58496 0.74645 0.0
H438 H 0.69605 0.53793 0.60788 0.0
H439 H 0.61315 0.49554 0.78049 0.0
H440 H 0.60082 0.45395 0.69592 0.0
H441 H 0.64253 0.475 0.60885 0.0
H442 H 0.70693 0.57895 0.69283 0.0
H443 H 0.69094 0.47403 0.89 0.0
H444 H 0.651 0.46159 0.97809 0.0
O445 O 0.6154 0.55374 0.81257 0.0
C446 C 0.66034 0.62351 0.88553 0.0
C447 C 0.63667 0.50214 0.95441 0.0
C448 C 0.67695 0.48928 0.89684 0.0
N449 N 0.66343 0.53533 0.86437 0.0
C450 C 0.64151 0.52872 0.91282 0.0
C451 C 0.68118 0.51611 0.85622 0.0
C452 C 0.65452 0.48229 0.94623 0.0
C453 C 0.7179 0.69148 0.72456 0.0
N454 N 0.68957 0.68179 0.7631 0.0
C455 C 0.7496 0.72559 0.72894 0.0
C456 C 0.75215 0.74988 0.77311 0.0
C457 C 0.72309 0.73984 0.81217 0.0
C458 C 0.69183 0.70548 0.80647 0.0
C459 C 0.59999 0.70021 0.72488 0.0
C460 C 0.58538 0.64066 0.79519 0.0
C461 C 0.62244 0.68477 0.72333 0.0
N462 N 0.6151 0.65551 0.75852 0.0
C463 C 0.56234 0.65541 0.79795 0.0
C464 C 0.56978 0.68541 0.76255 0.0
C465 C 0.59348 0.55625 0.77645 0.0
C466 C 0.67775 0.5284 0.64564 0.0
C467 C 0.63132 0.50508 0.74265 0.0
C468 C 0.62426 0.48131 0.69495 0.0
C469 C 0.64768 0.49312 0.64616 0.0
N470 N 0.66081 0.53973 0.74178 0.0
C471 C 0.68391 0.55145 0.6941 0.0
Co472 Co 0.0107 0.63982 0.25248 0.0
Co473 Co 0.09778 0.67169 0.30418 0.0
O474 O 0.06345 0.67423 0.2482 0.0
C475 C 0.02805 0.63849 0.12644 0.0
O476 O 0.05736 0.63794 0.14378 0.0
C477 C 0.12938 0.75224 0.27236 0.0
O478 O 0.10091 0.74433 0.23917 0.0
O479 O 0.06945 0.67541 0.37239 0.0
O480 O 0.01234 0.63745 0.34125 0.0
H481 H 0.13031 0.62604 0.48725 0.0
H482 H 0.03524 0.70821 0.18464 0.0
O483 O 1.00682 0.64051 0.16423 0.0
H484 H 0.95616 0.71069 0.34333 0.0
H485 H 0.87909 0.58905 0.19414 0.0
H486 H 0.96464 0.57166 0.3199 0.0
H487 H 0.96665 0.65858 0.334 0.0
H488 H 0.94518 0.63328 0.19089 0.0
O489 O 0.13076 0.72727 0.30262 0.0
H490 H 0.08863 0.62925 0.41404 0.0
H491 H 0.17903 0.70992 0.31615 0.0
H492 H 0.89872 0.52694 0.32497 0.0
H493 H 0.0252 0.76076 0.1919 0.0
H494 H 0.85545 0.53551 0.26175 0.0
H495 H 0.98549 0.76227 0.27185 0.0
O496 O 0.02011 0.59867 0.24458 0.0
H497 H 0.15781 0.70161 0.10184 0.0
H498 H 0.12843 0.6233 0.27901 0.0
H499 H 0.16158 0.61529 0.19601 0.0
H500 H 0.17682 0.65481 0.10668 0.0
H501 H 0.1239 0.70802 0.18484 0.0
H502 H 0.22167 0.70779 0.38858 0.0
H503 H 0.19736 0.6655 0.47473 0.0
O504 O 0.06748 0.61635 0.30676 0.0
C505 C 0.03521 0.65535 0.38224 0.0
C506 C 0.14124 0.64451 0.44981 0.0
C507 C 0.19251 0.69044 0.39449 0.0
N508 N 0.13135 0.66961 0.36072 0.0
C509 C 0.11777 0.64639 0.40814 0.0
C510 C 0.16822 0.69162 0.35374 0.0
C511 C 0.17885 0.66669 0.4428 0.0
C512 C 0.01791 0.70867 0.2195 0.0
N513 N 1.00191 0.68055 0.25923 0.0
C514 C 0.01234 0.7385 0.22342 0.0
C515 C 0.99008 0.73934 0.2683 0.0
C516 C 0.97366 0.71044 0.30847 0.0
C517 C 0.9799 0.68109 0.3032 0.0
C518 C 0.89766 0.58507 0.22202 0.0
C519 C 0.94595 0.57569 0.29257 0.0
C520 C 0.93511 0.60999 0.22031 0.0
N521 N 0.95869 0.60523 0.25562 0.0
C522 C 0.90867 0.55023 0.29549 0.0
C523 C 0.88441 0.55504 0.25997 0.0
C524 C 0.04236 0.59254 0.27329 0.0
C525 C 0.15176 0.68453 0.14084 0.0
C526 C 0.13492 0.64074 0.24048 0.0
C527 C 0.15376 0.63603 0.19353 0.0
C528 C 0.1623 0.65819 0.14347 0.0
N529 N 0.12491 0.6669 0.238 0.0
C530 C 0.13289 0.68842 0.18862 0.0
Co531 Co 0.37975 0.00908 0.75383 0.0
Co532 Co 0.43554 0.09832 0.80125 0.0
O533 O 0.39817 0.06203 0.74778 0.0
C534 C 0.40203 0.02594 0.62885 0.0
O535 O 0.43163 0.05507 0.64777 0.0
C536 C 0.3841 0.12721 0.77244 0.0
O537 O 0.36363 0.09855 0.73942 0.0
O538 O 0.40664 0.06968 0.87247 0.0
O539 O 0.38152 0.01141 0.84232 0.0
H540 H 0.51948 0.13612 0.97762 0.0
H541 H 0.33814 0.03337 0.67936 0.0
O542 O 0.37764 1.00477 0.66537 0.0
H543 H 0.2522 0.95596 0.83522 0.0
H544 H 0.29955 0.87711 0.69596 0.0
H545 H 0.39922 0.963 0.82701 0.0
H546 H 0.31486 0.96619 0.83197 0.0
H547 H 0.32219 0.94335 0.69044 0.0
O548 O 0.41047 0.12887 0.80285 0.0
H549 H 0.47398 0.09248 0.90687 0.0
H550 H 0.47472 0.17991 0.81254 0.0
H551 H 0.37718 0.89695 0.83439 0.0
H552 H 0.27555 0.02353 0.68048 0.0
H553 H 0.32699 0.85351 0.76853 0.0
H554 H 0.23213 0.98468 0.75898 0.0
O555 O 0.43024 0.01755 0.75125 0.0
H556 H 0.45592 0.15374 0.59564 0.0
H557 H 0.51459 0.13567 0.77127 0.0
H558 H 0.55238 0.17057 0.68613 0.0
H559 H 0.52316 0.1801 0.5975 0.0
H560 H 0.41918 0.1186 0.68092 0.0
H561 H 0.51992 0.22442 0.88261 0.0
H562 H 0.54275 0.20262 0.9657 0.0
O563 O 0.46328 0.07101 0.79933 0.0
C564 C 0.38982 0.03527 0.88295 0.0
C565 C 0.50983 0.14597 0.94147 0.0
C566 C 0.51002 0.19551 0.88823 0.0
N567 N 0.47185 0.1336 0.85541 0.0
C568 C 0.48415 0.12139 0.90118 0.0
C569 C 0.48429 0.17015 0.84883 0.0
C570 C 0.52284 0.18327 0.93481 0.0
C571 C 0.31936 0.01634 0.71352 0.0
N572 N 0.33026 1.00064 0.75581 0.0
C573 C 0.28397 0.01091 0.714 0.0
C574 C 0.25964 0.98914 0.75808 0.0
C575 C 0.2709 0.97307 0.80092 0.0
C576 C 0.30651 0.97914 0.79907 0.0
C577 C 0.32137 0.89575 0.725 0.0
C578 C 0.37719 0.94424 0.79849 0.0
C579 C 0.33434 0.93329 0.72202 0.0
N580 N 0.36176 0.95697 0.75877 0.0
C581 C 0.36491 0.90688 0.80274 0.0
C582 C 0.33677 0.88253 0.76574 0.0
C583 C 0.45985 0.04235 0.77411 0.0
C584 C 0.46907 0.15032 0.6344 0.0
C585 C 0.50151 0.13997 0.73335 0.0
C586 C 0.52315 0.15969 0.68506 0.0
C587 C 0.50676 0.16499 0.63536 0.0
N588 N 0.46452 0.12611 0.73274 0.0
C589 C 0.44831 0.13077 0.68356 0.0
Co590 Co 0.37578 0.38147 0.25469 0.0
Co591 Co 0.35176 0.44229 0.30697 0.0
O592 O 0.34463 0.40357 0.25093 0.0
C593 C 0.37736 0.39959 0.12821 0.0
O594 O 0.38043 0.43075 0.14485 0.0
C595 C 0.26972 0.3948 0.29177 0.0
O596 O 0.27229 0.36514 0.29015 0.0
O597 O 0.34399 0.40861 0.37493 0.0
O598 O 0.379 0.38596 0.34361 0.0
H599 H 0.40214 0.51861 0.49123 0.0
H600 H 0.30555 0.34224 0.19038 0.0
O601 O 0.37383 0.37598 0.16655 0.0
H602 H 0.29834 0.25707 0.34663 0.0
H603 H 0.41671 0.29253 0.19631 0.0
H604 H 0.44309 0.39899 0.3209 0.0
H605 H 0.35349 0.31765 0.33585 0.0
H606 H 0.37641 0.31906 0.19353 0.0
O607 O 0.29793 0.42576 0.30245 0.0
H608 H 0.39403 0.47158 0.4183 0.0
H609 H 0.32234 0.49331 0.3169 0.0
H610 H 0.48392 0.3731 0.32553 0.0
H611 H 0.24999 0.28167 0.19899 0.0
H612 H 0.47081 0.31948 0.26289 0.0
H613 H 0.24611 0.23867 0.27773 0.0
O614 O 0.41941 0.43066 0.24503 0.0
H615 H 0.32417 0.47606 0.10701 0.0
H616 H 0.40769 0.51963 0.27883 0.0
H617 H 0.41937 0.56085 0.19396 0.0
H618 H 0.37735 0.5392 0.10728 0.0
H619 H 0.31396 0.43543 0.19223 0.0
H620 H 0.32951 0.54041 0.38893 0.0
H621 H 0.36976 0.55343 0.47675 0.0
O622 O 0.4062 0.46187 0.31115 0.0
C623 C 0.36191 0.39209 0.38464 0.0
C624 C 0.38459 0.51325 0.45307 0.0
C625 C 0.34378 0.52544 0.39571 0.0
N626 N 0.35783 0.47975 0.36325 0.0
C627 C 0.37992 0.48667 0.41156 0.0
C628 C 0.33972 0.49863 0.35516 0.0
C629 C 0.36638 0.53275 0.44496 0.0
C630 C 0.30413 0.32355 0.22447 0.0
N631 N 0.33267 0.33352 0.26268 0.0
C632 C 0.27257 0.28935 0.22926 0.0
C633 C 0.27039 0.26526 0.2735 0.0
C634 C 0.29966 0.27559 0.31222 0.0
C635 C 0.33076 0.31002 0.30612 0.0
C636 C 0.42265 0.31583 0.22392 0.0
C637 C 0.43709 0.37551 0.29382 0.0
C638 C 0.39997 0.33102 0.22246 0.0
N639 N 0.40722 0.36034 0.25745 0.0
C640 C 0.46036 0.36103 0.29649 0.0
C641 C 0.45301 0.33097 0.2613 0.0
C642 C 0.42812 0.45935 0.27505 0.0
C643 C 0.34261 0.48586 0.14459 0.0
C644 C 0.38939 0.50984 0.24117 0.0
C645 C 0.39608 0.5334 0.1933 0.0
C646 C 0.37249 0.52125 0.14472 0.0
N647 N 0.3601 0.47507 0.24066 0.0
C648 C 0.33682 0.46302 0.1932 0.0
Co649 Co 1.00708 0.37179 0.75414 0.0
Co650 Co 0.92237 0.34801 0.80673 0.0
O651 O 0.95378 0.34063 0.75072 0.0
C652 C 0.99052 0.37347 0.62772 0.0
O653 O 0.96242 0.3764 0.64454 0.0
C654 C 0.88739 0.26563 0.7931 0.0
O655 O 0.91952 0.26799 0.79275 0.0
O656 O 0.94835 0.3405 0.87489 0.0
O657 O 1.00594 0.37529 0.84298 0.0
H658 H 0.89693 0.39971 0.98979 0.0
H659 H 0.97572 0.30132 0.69034 0.0
O660 O 1.01051 0.36972 0.66594 0.0
H661 H 0.05362 0.29435 0.8468 0.0
H662 H 0.13678 0.41251 0.69528 0.0
H663 H 0.05717 0.43934 0.81986 0.0
H664 H 0.04843 0.34959 0.83561 0.0
H665 H 0.0699 0.37216 0.69296 0.0
O666 O 0.88486 0.29409 0.80247 0.0
H667 H 0.93564 0.39094 0.91748 0.0
H668 H 0.84197 0.31855 0.81689 0.0
H669 H 0.12394 0.48023 0.82402 0.0
H670 H 0.98045 0.24564 0.69942 0.0
H671 H 0.16422 0.4669 0.76138 0.0
H672 H 0.01955 0.24189 0.77825 0.0
O673 O 1.00174 0.41548 0.74432 0.0
H674 H 0.86051 0.31998 0.6071 0.0
H675 H 0.90144 0.40417 0.77819 0.0
H676 H 0.87188 0.41577 0.69336 0.0
H677 H 0.85101 0.37341 0.60704 0.0
H678 H 0.89099 0.30985 0.69229 0.0
H679 H 0.80223 0.32636 0.88835 0.0
H680 H 0.8297 0.36732 0.97541 0.0
O681 O 0.95748 0.4025 0.81056 0.0
C682 C 0.98282 0.35865 0.88438 0.0
C683 C 0.88464 0.38184 0.95196 0.0
C684 C 0.83149 0.34063 0.89508 0.0
N685 N 0.89114 0.35435 0.86287 0.0
C686 C 0.90643 0.3768 0.91081 0.0
C687 C 0.85413 0.33621 0.85487 0.0
C688 C 0.84692 0.36364 0.9439 0.0
C689 C 0.99298 0.29994 0.72446 0.0
N690 N 0.01172 0.32862 0.76243 0.0
C691 C 0.99546 0.26833 0.72952 0.0
C692 C 0.01736 0.26622 0.77381 0.0
C693 C 0.03645 0.29562 0.81234 0.0
C694 C 0.03327 0.32678 0.80597 0.0
C695 C 0.11952 0.41855 0.7229 0.0
C696 C 0.07455 0.43323 0.79279 0.0
C697 C 0.08164 0.39584 0.7217 0.0
N698 N 0.05969 0.40322 0.75667 0.0
C699 C 0.11232 0.45654 0.7952 0.0
C700 C 0.1349 0.44906 0.76 0.0
C701 C 0.98199 0.42438 0.77445 0.0
C702 C 0.86938 0.33857 0.64451 0.0
C703 C 0.89274 0.38573 0.74067 0.0
C704 C 0.87585 0.39237 0.69283 0.0
C705 C 0.86412 0.36859 0.64446 0.0
N706 N 0.89797 0.3563 0.74035 0.0
C707 C 0.88646 0.33284 0.6931 0.0
C708 C 0.98808 0.36045 0.05338 0.0
C709 C 0.02613 0.37952 0.06361 0.0
H710 H 0.94455 0.33855 0.9896 0.0
C711 C 0.04954 0.38969 0.01431 0.0
H712 H 0.96902 0.35217 0.09008 0.0
C713 C 0.03535 0.38198 0.95648 0.0
C714 C 0.99732 0.36366 0.94621 0.0
H715 H 0.0789 0.40445 0.02022 0.0
H716 H 0.05443 0.39115 0.91972 0.0
C717 C 0.97388 0.35251 0.99556 0.0
C718 C 0.66099 0.03252 0.45523 0.0
C719 C 0.64113 0.99448 0.44438 0.0
H720 H 0.68254 0.07582 0.51954 0.0
C721 C 0.62896 0.9708 0.49347 0.0
H722 H 0.67081 0.05183 0.41878 0.0
C723 C 0.63565 0.98475 0.55154 0.0
C724 C 0.65487 0.02282 0.56232 0.0
H725 H 0.61351 0.94146 0.48713 0.0
H726 H 0.62505 0.9655 0.58803 0.0
C727 C 0.66784 0.04646 0.51326 0.0
C728 C 0.66198 0.62955 0.05441 0.0
C729 C 0.64416 0.64969 0.06511 0.0
H730 H 0.68145 0.60587 0.99015 0.0
C731 C 0.6335 0.66266 0.01603 0.0
H732 H 0.67051 0.61888 0.09092 0.0
C733 C 0.63951 0.65479 0.95801 0.0
C734 C 0.65671 0.63405 0.94735 0.0
H735 H 0.61957 0.67803 0.02232 0.0
H736 H 0.62997 0.66448 0.9215 0.0
C737 C 0.66833 0.62201 0.99641 0.0
C738 C 0.98295 0.62998 0.45501 0.0
C739 C 0.0209 0.65023 0.44415 0.0
H740 H 0.93994 0.60624 0.51951 0.0
C741 C 0.04463 0.6635 0.49308 0.0
H742 H 0.96368 0.61914 0.41858 0.0
C743 C 0.03088 0.6558 0.55115 0.0
C744 C 0.99298 0.63484 0.562 0.0
H745 H 0.07392 0.67901 0.48665 0.0
H746 H 0.0502 0.66575 0.58756 0.0
C747 C 0.96919 0.62252 0.51308 0.0
C748 C 0.39368 0.04562 0.99392 0.0
C749 C 0.38063 0.02157 0.94533 0.0
H750 H 0.39865 0.05165 0.0883 0.0
C751 C 0.36022 0.98365 0.9569 0.0
H752 H 0.40961 0.07488 0.987 0.0
C753 C 0.35372 0.97017 0.01521 0.0
C754 C 0.3676 0.99418 0.06376 0.0
H755 H 0.34971 0.96409 0.92081 0.0
H756 H 0.33855 0.94087 0.02209 0.0
C757 C 0.38736 0.03213 0.05223 0.0
C758 C 0.38312 0.36108 0.45697 0.0
C759 C 0.3657 0.38161 0.44642 0.0
H760 H 0.40325 0.33796 0.52116 0.0
C761 C 0.35393 0.39346 0.49554 0.0
H762 H 0.3928 0.35155 0.42041 0.0
C763 C 0.36033 0.38591 0.5535 0.0
C764 C 0.37834 0.36594 0.56409 0.0
H765 H 0.34064 0.40945 0.48936 0.0
H766 H 0.35167 0.39644 0.59006 0.0
C767 C 0.38917 0.35319 0.51495 0.0
C768 C 0.97094 0.60807 0.98709 0.0
C769 C 0.99785 0.62282 0.9429 0.0
H770 H 0.95961 0.60243 0.08045 0.0
C771 C 0.03482 0.64329 0.9593 0.0
H772 H 0.94229 0.59223 0.97535 0.0
C773 C 0.04478 0.64825 0.01918 0.0
C774 C 0.01785 0.63381 0.06337 0.0
H775 H 0.05606 0.65471 0.92581 0.0
H776 H 0.07345 0.6636 0.03093 0.0
C777 C 0.98084 0.61404 0.04696 0.0
C778 C 0.40765 0.03496 0.46184 0.0
C779 C 0.38929 0.99812 0.44405 0.0
H780 H 0.42679 0.07265 0.53484 0.0
C781 C 0.37508 0.97055 0.48731 0.0
H782 H 0.419 0.0567 0.42915 0.0
C783 C 0.3787 0.9797 0.54754 0.0
C784 C 0.39754 0.01653 0.56534 0.0
H785 H 0.36074 0.94199 0.47455 0.0
H786 H 0.3673 0.95796 0.58023 0.0
C787 C 0.41223 0.04409 0.52209 0.0
C788 C 0.37273 0.40102 0.96096 0.0
C789 C 0.3904 0.38159 0.94504 0.0
H790 H 0.35547 0.42269 0.03205 0.0
C791 C 0.40313 0.36762 0.98961 0.0
H792 H 0.3629 0.41227 0.9272 0.0
C793 C 0.39798 0.37273 0.04934 0.0
C794 C 0.38105 0.39287 0.06526 0.0
H795 H 0.4168 0.35255 0.97825 0.0
H796 H 0.40803 0.36169 0.08309 0.0
C797 C 0.36861 0.40712 0.0207 0.0
C798 C 0.97491 0.36572 0.51995 0.0
C799 C 1.00137 0.37821 0.5649 0.0
H800 H 0.96459 0.36124 0.42629 0.0
C801 C 0.03857 0.39649 0.54952 0.0
H802 H 0.9461 0.35159 0.53088 0.0
C803 C 0.04918 0.40297 0.48995 0.0
C804 C 0.02271 0.39019 0.44499 0.0
H805 H 0.05947 0.40664 0.58361 0.0
H806 H 0.07799 0.41769 0.47902 0.0
C807 C 0.9855 0.37113 0.46036 0.0
C808 C 0.64763 0.04571 0.9874 0.0
C809 C 0.63549 0.01869 0.9433 0.0
H810 H 0.65297 0.05725 0.0807 0.0
C811 C 0.61828 0.98168 0.95998 0.0
H812 H 0.66098 0.07439 0.97554 0.0
C813 C 0.61279 0.97182 0.01995 0.0
C814 C 0.62543 0.99887 0.06405 0.0
H815 H 0.60845 0.96034 0.92663 0.0
H816 H 0.59917 0.94313 0.03183 0.0
C817 C 0.64314 0.03589 0.04736 0.0
C818 C 0.61833 0.64726 0.4904 0.0
C819 C 0.63083 0.63298 0.44596 0.0
H820 H 0.61362 0.65353 0.58385 0.0
C821 C 0.64818 0.61328 0.46205 0.0
H822 H 0.60492 0.66255 0.47891 0.0
C823 C 0.65227 0.60726 0.52183 0.0
C824 C 0.64011 0.62186 0.56627 0.0
H825 H 0.65783 0.6018 0.42838 0.0
H826 H 0.66519 0.5915 0.53331 0.0
C827 C 0.62346 0.64222 0.55019 0.0
C828 C 0.03543 0.54215 0.20699 0.0
C829 C 0.04025 0.55688 0.26455 0.0
H830 H 0.03331 0.49943 0.15226 0.0
C831 C 0.04459 0.53809 0.31239 0.0
H832 H 0.03252 0.55641 0.16925 0.0
C833 C 0.04366 0.50488 0.30284 0.0
C834 C 0.03976 0.49068 0.24508 0.0
H835 H 0.0486 0.54904 0.35704 0.0
H836 H 0.04733 0.49093 0.34031 0.0
C837 C 0.03591 0.50969 0.19719 0.0
C838 C 0.50015 0.01555 0.7926 0.0
C839 C 0.49322 0.04061 0.7629 0.0
H840 H 0.53771 0.9961 0.80628 0.0
C841 C 0.51803 0.06375 0.71998 0.0
H842 H 0.48097 0.99704 0.82522 0.0
C843 C 0.54997 0.06288 0.70817 0.0
C844 C 0.55808 0.03901 0.73954 0.0
H845 H 0.51259 0.08244 0.69515 0.0
H846 H 0.5686 0.08145 0.67506 0.0
C847 C 0.53247 0.01491 0.78133 0.0
C848 C 0.5211 0.54217 0.30225 0.0
C849 C 0.53058 0.55744 0.24495 0.0
H850 H 0.48057 0.49939 0.35703 0.0
C851 C 0.5066 0.53954 0.19756 0.0
H852 H 0.53891 0.55574 0.33971 0.0
C853 C 0.47394 0.50669 0.20724 0.0
C854 C 0.46414 0.49197 0.26477 0.0
H855 H 0.51316 0.5509 0.15312 0.0
H856 H 0.4557 0.49342 0.17012 0.0
C857 C 0.48782 0.51007 0.31227 0.0
C858 C 0.98486 0.50449 0.69487 0.0
C859 C 0.9849 0.52592 0.74251 0.0
H860 H 0.98534 0.456 0.66809 0.0
C861 C 0.98587 0.51468 0.80097 0.0
H862 H 0.98367 0.5124 0.64949 0.0
C863 C 0.98549 0.48186 0.81166 0.0
C864 C 0.98559 0.46051 0.76402 0.0
H865 H 0.98524 0.53046 0.83845 0.0
H866 H 0.98479 0.473 0.85706 0.0
C867 C 0.98593 0.4724 0.70554 0.0
C868 C 0.49141 1.00159 0.2683 0.0
C869 C 0.46164 0.97214 0.23928 0.0
H870 H 0.54639 0.02404 0.30087 0.0
C871 C 0.46563 0.94272 0.21973 0.0
H872 H 0.48952 0.02487 0.28367 0.0
C873 C 0.49765 0.94192 0.23121 0.0
C874 C 0.5269 0.9708 0.26131 0.0
H875 H 0.44387 0.91996 0.19605 0.0
H876 H 0.49977 0.91896 0.21529 0.0
C877 C 0.52391 1.00111 0.27851 0.0
C878 C 0.53727 0.50099 0.81412 0.0
C879 C 0.55723 0.52368 0.76654 0.0
H880 H 0.48918 0.45172 0.8412 0.0
C881 C 0.54367 0.51344 0.70837 0.0
H882 H 0.54736 0.50807 0.85922 0.0
C883 C 0.51114 0.48059 0.69786 0.0
C884 C 0.49103 0.4582 0.74557 0.0
H885 H 0.55894 0.53019 0.67083 0.0
H886 H 0.50164 0.47272 0.65264 0.0
C887 C 0.5041 0.46887 0.80379 0.0
C888 C 0.17034 0.36002 0.24666 0.0
C889 C 0.17048 0.39293 0.23583 0.0
H890 H 0.20133 0.33457 0.27271 0.0
C891 C 0.20332 0.42605 0.24461 0.0
H892 H 0.14555 0.33398 0.24072 0.0
C893 C 0.23495 0.4264 0.26375 0.0
C894 C 0.23503 0.39363 0.27438 0.0
H895 H 0.20464 0.45201 0.2374 0.0
H896 H 0.25954 0.4526 0.26956 0.0
C897 C 0.2023 0.36036 0.26532 0.0
C898 C 0.82153 0.23103 0.76187 0.0
C899 C 0.85377 0.23076 0.77619 0.0
H900 H 0.76597 0.20079 0.73369 0.0
C901 C 0.85354 0.19739 0.77162 0.0
H902 H 0.82053 0.25611 0.76415 0.0
C903 C 0.82172 0.16514 0.75403 0.0
C904 C 0.78954 0.16562 0.73959 0.0
H905 H 0.87787 0.19611 0.78195 0.0
H906 H 0.82233 0.13986 0.75178 0.0
C907 C 0.7901 0.19913 0.74365 0.0
C908 C 0.64301 0.80192 0.30418 0.0
C909 C 0.64216 0.78876 0.24635 0.0
H910 H 0.64268 0.8438 0.35823 0.0
C911 C 0.64246 0.80972 0.19775 0.0
H912 H 0.64229 0.78605 0.3425 0.0
C913 C 0.64413 0.84341 0.20685 0.0
C914 C 0.64412 0.85616 0.2647 0.0
H915 H 0.64154 0.8001 0.15281 0.0
H916 H 0.64409 0.85891 0.16853 0.0
C917 C 0.64322 0.8349 0.31328 0.0
C918 C 0.81737 0.58691 0.74583 0.0
C919 C 0.85003 0.61978 0.73453 0.0
H920 H 0.76155 0.56107 0.77302 0.0
C921 C 0.85034 0.65295 0.74331 0.0
H922 H 0.81595 0.56079 0.74019 0.0
C923 C 0.81871 0.65311 0.76238 0.0
C924 C 0.78613 0.62012 0.77383 0.0
H925 H 0.875 0.6788 0.73541 0.0
H926 H 0.8198 0.67908 0.76809 0.0
C927 C 0.78605 0.58708 0.76531 0.0
C928 C 0.20836 0.83466 0.1981 0.0
C929 C 0.22909 0.85522 0.24695 0.0
H930 H 0.15989 0.78655 0.16823 0.0
C931 C 0.21641 0.84201 0.30464 0.0
H932 H 0.2177 0.84396 0.15325 0.0
C933 C 0.18408 0.8085 0.31325 0.0
C934 C 0.16306 0.78824 0.26439 0.0
H935 H 0.23222 0.85701 0.34312 0.0
H936 H 0.17544 0.79849 0.35804 0.0
C937 C 0.17532 0.80189 0.20676 0.0
C938 C 0.37862 0.20496 0.69731 0.0
C939 C 0.38303 0.22794 0.74541 0.0
H940 H 0.37417 0.15439 0.6687 0.0
C941 C 0.38679 0.21711 0.80291 0.0
H942 H 0.37588 0.21277 0.65259 0.0
C943 C 0.38698 0.18434 0.81202 0.0
C944 C 0.38195 0.161 0.76409 0.0
H945 H 0.39061 0.23455 0.84073 0.0
H946 H 0.39095 0.17718 0.85653 0.0
C947 C 0.37742 0.17151 0.7067 0.0
loop_
_geom_bond_atom_site_label_1
_geom_bond_atom_site_label_2
_geom_bond_distance
_geom_bond_site_symmetry_2
_ccdc_geom_bond_type
Co0 O2 2.143 1_655 S
Co0 O8 2.074 . S
Co0 O11 2.093 . S
Co0 O24 2.097 1_655 S
Co0 N41 2.151 . S
Co0 N49 2.214 . S
Co1 O2 2.160 . S
Co1 O7 2.058 . S
Co1 O17 2.057 . S
Co1 O32 2.037 . S
Co1 N36 2.145 . S
Co1 N57 2.257 . S
O2 Co0 2.143 1_455 S
O2 Co1 2.160 . S
C3 O4 1.278 . S
C3 O11 1.224 1_455 S
O4 C3 1.278 . S
C5 O6 1.245 . S
C5 O17 1.232 . S
O6 C5 1.245 . S
O7 Co1 2.058 . S
O7 C33 1.269 . S
O8 Co0 2.074 . S
O8 C33 1.257 1_655 S
H9 C34 0.930 . S
H10 C40 0.930 . S
O11 Co0 2.093 . S
O11 C3 1.224 1_655 S
H12 C44 0.929 . S
H13 C46 0.930 . S
H14 C47 0.930 . S
H15 C45 0.929 . S
H16 C48 0.928 . S
O17 Co1 2.057 . S
O17 C5 1.232 . S
H18 C37 0.929 . S
H19 C38 0.929 . S
H20 C50 0.931 . S
H21 C42 0.929 . S
H22 C51 0.930 . S
H23 C43 0.931 . S
O24 Co0 2.097 1_455 S
O24 C52 1.214 . S
H25 C53 0.929 . S
H26 C54 0.929 . S
H27 C55 0.930 . S
H28 C56 0.929 . S
H29 C58 0.930 . S
H30 C35 0.930 . S
H31 C39 0.930 . S
O32 Co1 2.037 . S
O32 C52 1.234 . S
C33 O7 1.269 . S
C33 O8 1.257 1_455 S
C34 H9 0.930 . S
C34 C37 1.388 . S
C34 C39 1.418 . S
C35 H30 0.930 . S
C35 C38 1.404 . S
C35 C39 1.353 . S
N36 Co1 2.145 . S
N36 C37 1.397 . S
N36 C38 1.334 . S
C37 H18 0.929 . S
C37 C34 1.388 . S
C37 N36 1.397 . S
C38 H19 0.929 . S
C38 C35 1.404 . S
C38 N36 1.334 . S
C39 H31 0.930 . S
C39 C34 1.418 . S
C39 C35 1.353 . S
C40 H10 0.930 . S
C40 N41 1.330 . S
C40 C42 1.446 . S
N41 Co0 2.151 . S
N41 C40 1.330 . S
N41 C45 1.418 . S
C42 H21 0.929 . S
C42 C40 1.446 . S
C42 C43 1.332 . S
C43 H23 0.931 . S
C43 C42 1.332 . S
C43 C44 1.267 . S
C44 H12 0.929 . S
C44 C43 1.267 . S
C44 C45 1.251 . S
C45 H15 0.929 . S
C45 N41 1.418 . S
C45 C44 1.251 . S
C46 H13 0.930 . S
C46 C48 1.406 . S
C46 C51 1.261 . S
C47 H14 0.930 . S
C47 N49 1.325 . S
C47 C50 1.357 . S
C48 H16 0.928 . S
C48 C46 1.406 . S
C48 N49 1.261 . S
N49 Co0 2.214 . S
N49 C47 1.325 . S
N49 C48 1.261 . S
C50 H20 0.931 . S
C50 C47 1.357 . S
C50 C51 1.312 . S
C51 H22 0.930 . S
C51 C46 1.261 . S
C51 C50 1.312 . S
C52 O24 1.214 . S
C52 O32 1.234 . S
C53 H25 0.929 . S
C53 C56 1.391 . S
C53 C58 1.391 . S
C54 H26 0.929 . S
C54 C55 1.390 . S
C54 N57 1.391 . S
C55 H27 0.930 . S
C55 C54 1.390 . S
C55 C56 1.392 . S
C56 H28 0.929 . S
C56 C53 1.391 . S
C56 C55 1.392 . S
N57 Co1 2.257 . S
N57 C54 1.391 . S
N57 C58 1.388 . S
C58 H29 0.930 . S
C58 C53 1.391 . S
C58 N57 1.388 . S
Co59 O61 2.143 1_565 S
Co59 O67 2.074 . S
Co59 O70 2.093 . S
Co59 O83 2.097 1_565 S
Co59 N100 2.151 . S
Co59 N108 2.214 . S
Co60 O61 2.160 . S
Co60 O66 2.058 . S
Co60 O76 2.057 . S
Co60 O91 2.037 . S
Co60 N95 2.145 . S
Co60 N116 2.257 . S
O61 Co59 2.143 1_545 S
O61 Co60 2.160 . S
C62 O63 1.278 . S
C62 O70 1.224 1_545 S
O63 C62 1.278 . S
C64 O65 1.245 . S
C64 O76 1.232 . S
O65 C64 1.245 . S
O66 Co60 2.058 . S
O66 C92 1.269 . S
O67 Co59 2.074 . S
O67 C92 1.257 1_565 S
H68 C93 0.930 . S
H69 C99 0.930 . S
O70 Co59 2.093 . S
O70 C62 1.224 1_565 S
H71 C103 0.929 . S
H72 C105 0.930 . S
H73 C106 0.930 . S
H74 C104 0.929 . S
H75 C107 0.928 . S
O76 Co60 2.057 . S
O76 C64 1.232 . S
H77 C96 0.929 . S
H78 C97 0.929 . S
H79 C109 0.931 . S
H80 C101 0.929 . S
H81 C110 0.930 . S
H82 C102 0.931 . S
O83 Co59 2.097 1_545 S
O83 C111 1.214 . S
H84 C112 0.929 . S
H85 C113 0.929 . S
H86 C114 0.930 . S
H87 C115 0.929 . S
H88 C117 0.930 . S
H89 C94 0.930 . S
H90 C98 0.930 . S
O91 Co60 2.037 . S
O91 C111 1.234 . S
C92 O66 1.269 . S
C92 O67 1.257 1_545 S
C93 H68 0.930 . S
C93 C96 1.388 . S
C93 C98 1.418 . S
C94 H89 0.930 . S
C94 C97 1.404 . S
C94 C98 1.353 . S
N95 Co60 2.145 . S
N95 C96 1.397 . S
N95 C97 1.334 . S
C96 H77 0.929 . S
C96 C93 1.388 . S
C96 N95 1.397 . S
C97 H78 0.929 . S
C97 C94 1.404 . S
C97 N95 1.334 . S
C98 H90 0.930 . S
C98 C93 1.418 . S
C98 C94 1.353 . S
C99 H69 0.930 . S
C99 N100 1.330 . S
C99 C101 1.446 . S
N100 Co59 2.151 . S
N100 C99 1.330 . S
N100 C104 1.418 . S
C101 H80 0.929 . S
C101 C99 1.446 . S
C101 C102 1.332 . S
C102 H82 0.931 . S
C102 C101 1.332 . S
C102 C103 1.267 . S
C103 H71 0.929 . S
C103 C102 1.267 . S
C103 C104 1.251 . S
C104 H74 0.929 . S
C104 N100 1.418 . S
C104 C103 1.251 . S
C105 H72 0.930 . S
C105 C107 1.406 . S
C105 C110 1.261 . S
C106 H73 0.930 . S
C106 N108 1.325 . S
C106 C109 1.357 . S
C107 H75 0.928 . S
C107 C105 1.406 . S
C107 N108 1.261 . S
N108 Co59 2.214 . S
N108 C106 1.325 . S
N108 C107 1.261 . S
C109 H79 0.931 . S
C109 C106 1.357 . S
C109 C110 1.312 . S
C110 H81 0.930 . S
C110 C105 1.261 . S
C110 C109 1.312 . S
C111 O83 1.214 . S
C111 O91 1.234 . S
C112 H84 0.929 . S
C112 C115 1.391 . S
C112 C117 1.391 . S
C113 H85 0.929 . S
C113 C114 1.390 . S
C113 N116 1.391 . S
C114 H86 0.930 . S
C114 C113 1.390 . S
C114 C115 1.392 . S
C115 H87 0.929 . S
C115 C112 1.391 . S
C115 C114 1.392 . S
N116 Co60 2.257 . S
N116 C113 1.391 . S
N116 C117 1.388 . S
C117 H88 0.930 . S
C117 C112 1.391 . S
C117 N116 1.388 . S
Co118 O120 2.143 . S
Co118 O126 2.074 . S
Co118 O129 2.093 . S
Co118 O142 2.097 . S
Co118 N159 2.151 . S
Co118 N167 2.214 . S
Co119 O120 2.160 . S
Co119 O125 2.058 . S
Co119 O135 2.057 . S
Co119 O150 2.037 . S
Co119 N154 2.145 . S
Co119 N175 2.257 . S
O120 Co118 2.143 . S
O120 Co119 2.160 . S
C121 O122 1.278 . S
C121 O129 1.224 . S
O122 C121 1.278 . S
C123 O124 1.245 . S
C123 O135 1.232 . S
O124 C123 1.245 . S
O125 Co119 2.058 . S
O125 C151 1.269 . S
O126 Co118 2.074 . S
O126 C151 1.257 . S
H127 C152 0.930 . S
H128 C158 0.930 . S
O129 Co118 2.093 . S
O129 C121 1.224 . S
H130 C162 0.929 . S
H131 C164 0.930 . S
H132 C165 0.930 . S
H133 C163 0.929 . S
H134 C166 0.928 . S
O135 Co119 2.057 . S
O135 C123 1.232 . S
H136 C155 0.929 . S
H137 C156 0.929 . S
H138 C168 0.931 . S
H139 C160 0.929 . S
H140 C169 0.930 . S
H141 C161 0.931 . S
O142 Co118 2.097 . S
O142 C170 1.214 . S
H143 C171 0.929 . S
H144 C172 0.929 . S
H145 C173 0.930 . S
H146 C174 0.929 . S
H147 C176 0.930 . S
H148 C153 0.930 . S
H149 C157 0.930 . S
O150 Co119 2.037 . S
O150 C170 1.234 . S
C151 O125 1.269 . S
C151 O126 1.257 . S
C152 H127 0.930 . S
C152 C155 1.388 . S
C152 C157 1.418 . S
C153 H148 0.930 . S
C153 C156 1.404 . S
C153 C157 1.353 . S
N154 Co119 2.145 . S
N154 C155 1.397 . S
N154 C156 1.334 . S
C155 H136 0.929 . S
C155 C152 1.388 . S
C155 N154 1.397 . S
C156 H137 0.929 . S
C156 C153 1.404 . S
C156 N154 1.334 . S
C157 H149 0.930 . S
C157 C152 1.418 . S
C157 C153 1.353 . S
C158 H128 0.930 . S
C158 N159 1.330 . S
C158 C160 1.446 . S
N159 Co118 2.151 . S
N159 C158 1.330 . S
N159 C163 1.418 . S
C160 H139 0.929 . S
C160 C158 1.446 . S
C160 C161 1.332 . S
C161 H141 0.931 . S
C161 C160 1.332 . S
C161 C162 1.267 . S
C162 H130 0.929 . S
C162 C161 1.267 . S
C162 C163 1.251 . S
C163 H133 0.929 . S
C163 N159 1.418 . S
C163 C162 1.251 . S
C164 H131 0.930 . S
C164 C166 1.406 . S
C164 C169 1.261 . S
C165 H132 0.930 . S
C165 N167 1.325 . S
C165 C168 1.357 . S
C166 H134 0.928 . S
C166 C164 1.406 . S
C166 N167 1.261 . S
N167 Co118 2.214 . S
N167 C165 1.325 . S
N167 C166 1.261 . S
C168 H138 0.931 . S
C168 C165 1.357 . S
C168 C169 1.312 . S
C169 H140 0.930 . S
C169 C164 1.261 . S
C169 C168 1.312 . S
C170 O142 1.214 . S
C170 O150 1.234 . S
C171 H143 0.929 . S
C171 C174 1.391 . S
C171 C176 1.391 . S
C172 H144 0.929 . S
C172 C173 1.390 . S
C172 N175 1.391 . S
C173 H145 0.930 . S
C173 C172 1.390 . S
C173 C174 1.392 . S
C174 H146 0.929 . S
C174 C171 1.391 . S
C174 C173 1.392 . S
N175 Co119 2.257 . S
N175 C172 1.391 . S
N175 C176 1.388 . S
C176 H147 0.930 . S
C176 C171 1.391 . S
C176 N175 1.388 . S
Co177 O179 2.143 1_455 S
Co177 O185 2.074 . S
Co177 O188 2.093 . S
Co177 O201 2.097 1_455 S
Co177 N218 2.151 . S
Co177 N226 2.214 . S
Co178 O179 2.160 . S
Co178 O184 2.058 . S
Co178 O194 2.057 . S
Co178 O209 2.037 . S
Co178 N213 2.145 . S
Co178 N234 2.257 . S
O179 Co177 2.143 1_655 S
O179 Co178 2.160 . S
C180 O181 1.278 . S
C180 O188 1.224 1_655 S
O181 C180 1.278 . S
C182 O183 1.245 . S
C182 O194 1.232 . S
O183 C182 1.245 . S
O184 Co178 2.058 . S
O184 C210 1.269 . S
O185 Co177 2.074 . S
O185 C210 1.257 1_455 S
H186 C211 0.930 . S
H187 C217 0.930 . S
O188 Co177 2.093 . S
O188 C180 1.224 1_455 S
H189 C221 0.929 . S
H190 C223 0.930 . S
H191 C224 0.930 . S
H192 C222 0.929 . S
H193 C225 0.928 . S
O194 Co178 2.057 . S
O194 C182 1.232 . S
H195 C214 0.929 . S
H196 C215 0.929 . S
H197 C227 0.931 . S
H198 C219 0.929 . S
H199 C228 0.930 . S
H200 C220 0.931 . S
O201 Co177 2.097 1_655 S
O201 C229 1.214 . S
H202 C230 0.929 . S
H203 C231 0.929 . S
H204 C232 0.930 . S
H205 C233 0.929 . S
H206 C235 0.930 . S
H207 C212 0.930 . S
H208 C216 0.930 . S
O209 Co178 2.037 . S
O209 C229 1.234 . S
C210 O184 1.269 . S
C210 O185 1.257 1_655 S
C211 H186 0.930 . S
C211 C214 1.388 . S
C211 C216 1.418 . S
C212 H207 0.930 . S
C212 C215 1.404 . S
C212 C216 1.353 . S
N213 Co178 2.145 . S
N213 C214 1.397 . S
N213 C215 1.334 . S
C214 H195 0.929 . S
C214 C211 1.388 . S
C214 N213 1.397 . S
C215 H196 0.929 . S
C215 C212 1.404 . S
C215 N213 1.334 . S
C216 H208 0.930 . S
C216 C211 1.418 . S
C216 C212 1.353 . S
C217 H187 0.930 . S
C217 N218 1.330 . S
C217 C219 1.446 . S
N218 Co177 2.151 . S
N218 C217 1.330 . S
N218 C222 1.418 . S
C219 H198 0.929 . S
C219 C217 1.446 . S
C219 C220 1.332 . S
C220 H200 0.931 . S
C220 C219 1.332 . S
C220 C221 1.267 . S
C221 H189 0.929 . S
C221 C220 1.267 . S
C221 C222 1.251 . S
C222 H192 0.929 . S
C222 N218 1.418 . S
C222 C221 1.251 . S
C223 H190 0.930 . S
C223 C225 1.406 . S
C223 C228 1.261 . S
C224 H191 0.930 . S
C224 N226 1.325 . S
C224 C227 1.357 . S
C225 H193 0.928 . S
C225 C223 1.406 . S
C225 N226 1.261 . S
N226 Co177 2.214 . S
N226 C224 1.325 . S
N226 C225 1.261 . S
C227 H197 0.931 . S
C227 C224 1.357 . S
C227 C228 1.312 . S
C228 H199 0.930 . S
C228 C223 1.261 . S
C228 C227 1.312 . S
C229 O201 1.214 . S
C229 O209 1.234 . S
C230 H202 0.929 . S
C230 C233 1.391 . S
C230 C235 1.391 . S
C231 H203 0.929 . S
C231 C232 1.390 . S
C231 N234 1.391 . S
C232 H204 0.930 . S
C232 C231 1.390 . S
C232 C233 1.392 . S
C233 H205 0.929 . S
C233 C230 1.391 . S
C233 C232 1.392 . S
N234 Co178 2.257 . S
N234 C231 1.391 . S
N234 C235 1.388 . S
C235 H206 0.930 . S
C235 C230 1.391 . S
C235 N234 1.388 . S
Co236 O238 2.143 1_545 S
Co236 O244 2.074 . S
Co236 O247 2.093 . S
Co236 O260 2.097 1_545 S
Co236 N277 2.151 . S
Co236 N285 2.214 . S
Co237 O238 2.160 . S
Co237 O243 2.058 . S
Co237 O253 2.057 . S
Co237 O268 2.037 . S
Co237 N272 2.145 . S
Co237 N293 2.257 . S
O238 Co236 2.143 1_565 S
O238 Co237 2.160 . S
C239 O240 1.278 . S
C239 O247 1.224 1_565 S
O240 C239 1.278 . S
C241 O242 1.245 . S
C241 O253 1.232 . S
O242 C241 1.245 . S
O243 Co237 2.058 . S
O243 C269 1.269 . S
O244 Co236 2.074 . S
O244 C269 1.257 1_545 S
H245 C270 0.930 . S
H246 C276 0.930 . S
O247 Co236 2.093 . S
O247 C239 1.224 1_545 S
H248 C280 0.929 . S
H249 C282 0.930 . S
H250 C283 0.930 . S
H251 C281 0.929 . S
H252 C284 0.928 . S
O253 Co237 2.057 . S
O253 C241 1.232 . S
H254 C273 0.929 . S
H255 C274 0.929 . S
H256 C286 0.931 . S
H257 C278 0.929 . S
H258 C287 0.930 . S
H259 C279 0.931 . S
O260 Co236 2.097 1_565 S
O260 C288 1.214 . S
H261 C289 0.929 . S
H262 C290 0.929 . S
H263 C291 0.930 . S
H264 C292 0.929 . S
H265 C294 0.930 . S
H266 C271 0.930 . S
H267 C275 0.930 . S
O268 Co237 2.037 . S
O268 C288 1.234 . S
C269 O243 1.269 . S
C269 O244 1.257 1_565 S
C270 H245 0.930 . S
C270 C273 1.388 . S
C270 C275 1.418 . S
C271 H266 0.930 . S
C271 C274 1.404 . S
C271 C275 1.353 . S
N272 Co237 2.145 . S
N272 C273 1.397 . S
N272 C274 1.334 . S
C273 H254 0.929 . S
C273 C270 1.388 . S
C273 N272 1.397 . S
C274 H255 0.929 . S
C274 C271 1.404 . S
C274 N272 1.334 . S
C275 H267 0.930 . S
C275 C270 1.418 . S
C275 C271 1.353 . S
C276 H246 0.930 . S
C276 N277 1.330 . S
C276 C278 1.446 . S
N277 Co236 2.151 . S
N277 C276 1.330 . S
N277 C281 1.418 . S
C278 H257 0.929 . S
C278 C276 1.446 . S
C278 C279 1.332 . S
C279 H259 0.931 . S
C279 C278 1.332 . S
C279 C280 1.267 . S
C280 H248 0.929 . S
C280 C279 1.267 . S
C280 C281 1.251 . S
C281 H251 0.929 . S
C281 N277 1.418 . S
C281 C280 1.251 . S
C282 H249 0.930 . S
C282 C284 1.406 . S
C282 C287 1.261 . S
C283 H250 0.930 . S
C283 N285 1.325 . S
C283 C286 1.357 . S
C284 H252 0.928 . S
C284 C282 1.406 . S
C284 N285 1.261 . S
N285 Co236 2.214 . S
N285 C283 1.325 . S
N285 C284 1.261 . S
C286 H256 0.931 . S
C286 C283 1.357 . S
C286 C287 1.312 . S
C287 H258 0.930 . S
C287 C282 1.261 . S
C287 C286 1.312 . S
C288 O260 1.214 . S
C288 O268 1.234 . S
C289 H261 0.929 . S
C289 C292 1.391 . S
C289 C294 1.391 . S
C290 H262 0.929 . S
C290 C291 1.390 . S
C290 N293 1.391 . S
C291 H263 0.930 . S
C291 C290 1.390 . S
C291 C292 1.392 . S
C292 H264 0.929 . S
C292 C289 1.391 . S
C292 C291 1.392 . S
N293 Co237 2.257 . S
N293 C290 1.391 . S
N293 C294 1.388 . S
C294 H265 0.930 . S
C294 C289 1.391 . S
C294 N293 1.388 . S
Co295 O297 2.143 . S
Co295 O303 2.074 . S
Co295 O306 2.093 . S
Co295 O319 2.097 . S
Co295 N336 2.151 . S
Co295 N344 2.214 . S
Co296 O297 2.160 . S
Co296 O302 2.058 . S
Co296 O312 2.057 . S
Co296 O327 2.037 . S
Co296 N331 2.145 . S
Co296 N352 2.257 . S
O297 Co295 2.143 . S
O297 Co296 2.160 . S
C298 O299 1.278 . S
C298 O306 1.224 . S
O299 C298 1.278 . S
C300 O301 1.245 . S
C300 O312 1.232 . S
O301 C300 1.245 . S
O302 Co296 2.058 . S
O302 C328 1.269 . S
O303 Co295 2.074 . S
O303 C328 1.257 . S
H304 C329 0.930 . S
H305 C335 0.930 . S
O306 Co295 2.093 . S
O306 C298 1.224 . S
H307 C339 0.929 . S
H308 C341 0.930 . S
H309 C342 0.930 . S
H310 C340 0.929 . S
H311 C343 0.928 . S
O312 Co296 2.057 . S
O312 C300 1.232 . S
H313 C332 0.929 . S
H314 C333 0.929 . S
H315 C345 0.931 . S
H316 C337 0.929 . S
H317 C346 0.930 . S
H318 C338 0.931 . S
O319 Co295 2.097 . S
O319 C347 1.214 . S
H320 C348 0.929 . S
H321 C349 0.929 . S
H322 C350 0.930 . S
H323 C351 0.929 . S
H324 C353 0.930 . S
H325 C330 0.930 . S
H326 C334 0.930 . S
O327 Co296 2.037 . S
O327 C347 1.234 . S
C328 O302 1.269 . S
C328 O303 1.257 . S
C329 H304 0.930 . S
C329 C332 1.388 . S
C329 C334 1.418 . S
C330 H325 0.930 . S
C330 C333 1.404 . S
C330 C334 1.353 . S
N331 Co296 2.145 . S
N331 C332 1.397 . S
N331 C333 1.334 . S
C332 H313 0.929 . S
C332 C329 1.388 . S
C332 N331 1.397 . S
C333 H314 0.929 . S
C333 C330 1.404 . S
C333 N331 1.334 . S
C334 H326 0.930 . S
C334 C329 1.418 . S
C334 C330 1.353 . S
C335 H305 0.930 . S
C335 N336 1.330 . S
C335 C337 1.446 . S
N336 Co295 2.151 . S
N336 C335 1.330 . S
N336 C340 1.418 . S
C337 H316 0.929 . S
C337 C335 1.446 . S
C337 C338 1.332 . S
C338 H318 0.931 . S
C338 C337 1.332 . S
C338 C339 1.267 . S
C339 H307 0.929 . S
C339 C338 1.267 . S
C339 C340 1.251 . S
C340 H310 0.929 . S
C340 N336 1.418 . S
C340 C339 1.251 . S
C341 H308 0.930 . S
C341 C343 1.406 . S
C341 C346 1.261 . S
C342 H309 0.930 . S
C342 N344 1.325 . S
C342 C345 1.357 . S
C343 H311 0.928 . S
C343 C341 1.406 . S
C343 N344 1.261 . S
N344 Co295 2.214 . S
N344 C342 1.325 . S
N344 C343 1.261 . S
C345 H315 0.931 . S
C345 C342 1.357 . S
C345 C346 1.312 . S
C346 H317 0.930 . S
C346 C341 1.261 . S
C346 C345 1.312 . S
C347 O319 1.214 . S
C347 O327 1.234 . S
C348 H320 0.929 . S
C348 C351 1.391 . S
C348 C353 1.391 . S
C349 H321 0.929 . S
C349 C350 1.390 . S
C349 N352 1.391 . S
C350 H322 0.930 . S
C350 C349 1.390 . S
C350 C351 1.392 . S
C351 H323 0.929 . S
C351 C348 1.391 . S
C351 C350 1.392 . S
N352 Co296 2.257 . S
N352 C349 1.391 . S
N352 C353 1.388 . S
C353 H324 0.930 . S
C353 C348 1.391 . S
C353 N352 1.388 . S
Co354 O356 2.143 1_545 S
Co354 O362 2.074 . S
Co354 O365 2.093 . S
Co354 O378 2.097 1_545 S
Co354 N395 2.151 . S
Co354 N403 2.214 . S
Co355 O356 2.160 . S
Co355 O361 2.058 . S
Co355 O371 2.057 . S
Co355 O386 2.037 . S
Co355 N390 2.145 . S
Co355 N411 2.257 . S
O356 Co354 2.143 1_565 S
O356 Co355 2.160 . S
C357 O358 1.278 . S
C357 O365 1.224 1_565 S
O358 C357 1.278 . S
C359 O360 1.245 . S
C359 O371 1.232 . S
O360 C359 1.245 . S
O361 Co355 2.058 . S
O361 C387 1.269 . S
O362 Co354 2.074 . S
O362 C387 1.257 1_545 S
H363 C388 0.930 . S
H364 C394 0.930 . S
O365 Co354 2.093 . S
O365 C357 1.224 1_545 S
H366 C398 0.929 . S
H367 C400 0.930 . S
H368 C401 0.930 . S
H369 C399 0.929 . S
H370 C402 0.928 . S
O371 Co355 2.057 . S
O371 C359 1.232 . S
H372 C391 0.929 . S
H373 C392 0.929 . S
H374 C404 0.931 . S
H375 C396 0.929 . S
H376 C405 0.930 . S
H377 C397 0.931 . S
O378 Co354 2.097 1_565 S
O378 C406 1.214 . S
H379 C407 0.929 . S
H380 C408 0.929 . S
H381 C409 0.930 . S
H382 C410 0.929 . S
H383 C412 0.930 . S
H384 C389 0.930 . S
H385 C393 0.930 . S
O386 Co355 2.037 . S
O386 C406 1.234 . S
C387 O361 1.269 . S
C387 O362 1.257 1_565 S
C388 H363 0.930 . S
C388 C391 1.388 . S
C388 C393 1.418 . S
C389 H384 0.930 . S
C389 C392 1.404 . S
C389 C393 1.353 . S
N390 Co355 2.145 . S
N390 C391 1.397 . S
N390 C392 1.334 . S
C391 H372 0.929 . S
C391 C388 1.388 . S
C391 N390 1.397 . S
C392 H373 0.929 . S
C392 C389 1.404 . S
C392 N390 1.334 . S
C393 H385 0.930 . S
C393 C388 1.418 . S
C393 C389 1.353 . S
C394 H364 0.930 . S
C394 N395 1.330 . S
C394 C396 1.446 . S
N395 Co354 2.151 . S
N395 C394 1.330 . S
N395 C399 1.418 . S
C396 H375 0.929 . S
C396 C394 1.446 . S
C396 C397 1.332 . S
C397 H377 0.931 . S
C397 C396 1.332 . S
C397 C398 1.267 . S
C398 H366 0.929 . S
C398 C397 1.267 . S
C398 C399 1.251 . S
C399 H369 0.929 . S
C399 N395 1.418 . S
C399 C398 1.251 . S
C400 H367 0.930 . S
C400 C402 1.406 . S
C400 C405 1.261 . S
C401 H368 0.930 . S
C401 N403 1.325 . S
C401 C404 1.357 . S
C402 H370 0.928 . S
C402 C400 1.406 . S
C402 N403 1.261 . S
N403 Co354 2.214 . S
N403 C401 1.325 . S
N403 C402 1.261 . S
C404 H374 0.931 . S
C404 C401 1.357 . S
C404 C405 1.312 . S
C405 H376 0.930 . S
C405 C400 1.261 . S
C405 C404 1.312 . S
C406 O378 1.214 . S
C406 O386 1.234 . S
C407 H379 0.929 . S
C407 C410 1.391 . S
C407 C412 1.391 . S
C408 H380 0.929 . S
C408 C409 1.390 . S
C408 N411 1.391 . S
C409 H381 0.930 . S
C409 C408 1.390 . S
C409 C410 1.392 . S
C410 H382 0.929 . S
C410 C407 1.391 . S
C410 C409 1.392 . S
N411 Co355 2.257 . S
N411 C408 1.391 . S
N411 C412 1.388 . S
C412 H383 0.930 . S
C412 C407 1.391 . S
C412 N411 1.388 . S
Co413 O415 2.143 . S
Co413 O421 2.074 . S
Co413 O424 2.093 . S
Co413 O437 2.097 . S
Co413 N454 2.151 . S
Co413 N462 2.214 . S
Co414 O415 2.160 . S
Co414 O420 2.058 . S
Co414 O430 2.057 . S
Co414 O445 2.037 . S
Co414 N449 2.145 . S
Co414 N470 2.257 . S
O415 Co413 2.143 . S
O415 Co414 2.160 . S
C416 O417 1.278 . S
C416 O424 1.224 . S
O417 C416 1.278 . S
C418 O419 1.245 . S
C418 O430 1.232 . S
O419 C418 1.245 . S
O420 Co414 2.058 . S
O420 C446 1.269 . S
O421 Co413 2.074 . S
O421 C446 1.257 . S
H422 C447 0.930 . S
H423 C453 0.930 . S
O424 Co413 2.093 . S
O424 C416 1.224 . S
H425 C457 0.929 . S
H426 C459 0.930 . S
H427 C460 0.930 . S
H428 C458 0.929 . S
H429 C461 0.928 . S
O430 Co414 2.057 . S
O430 C418 1.232 . S
H431 C450 0.929 . S
H432 C451 0.929 . S
H433 C463 0.931 . S
H434 C455 0.929 . S
H435 C464 0.930 . S
H436 C456 0.931 . S
O437 Co413 2.097 . S
O437 C465 1.214 . S
H438 C466 0.929 . S
H439 C467 0.929 . S
H440 C468 0.930 . S
H441 C469 0.929 . S
H442 C471 0.930 . S
H443 C448 0.930 . S
H444 C452 0.930 . S
O445 Co414 2.037 . S
O445 C465 1.234 . S
C446 O420 1.269 . S
C446 O421 1.257 . S
C447 H422 0.930 . S
C447 C450 1.388 . S
C447 C452 1.418 . S
C448 H443 0.930 . S
C448 C451 1.404 . S
C448 C452 1.353 . S
N449 Co414 2.145 . S
N449 C450 1.397 . S
N449 C451 1.334 . S
C450 H431 0.929 . S
C450 C447 1.388 . S
C450 N449 1.397 . S
C451 H432 0.929 . S
C451 C448 1.404 . S
C451 N449 1.334 . S
C452 H444 0.930 . S
C452 C447 1.418 . S
C452 C448 1.353 . S
C453 H423 0.930 . S
C453 N454 1.330 . S
C453 C455 1.446 . S
N454 Co413 2.151 . S
N454 C453 1.330 . S
N454 C458 1.418 . S
C455 H434 0.929 . S
C455 C453 1.446 . S
C455 C456 1.332 . S
C456 H436 0.931 . S
C456 C455 1.332 . S
C456 C457 1.267 . S
C457 H425 0.929 . S
C457 C456 1.267 . S
C457 C458 1.251 . S
C458 H428 0.929 . S
C458 N454 1.418 . S
C458 C457 1.251 . S
C459 H426 0.930 . S
C459 C461 1.406 . S
C459 C464 1.261 . S
C460 H427 0.930 . S
C460 N462 1.325 . S
C460 C463 1.357 . S
C461 H429 0.928 . S
C461 C459 1.406 . S
C461 N462 1.261 . S
N462 Co413 2.214 . S
N462 C460 1.325 . S
N462 C461 1.261 . S
C463 H433 0.931 . S
C463 C460 1.357 . S
C463 C464 1.312 . S
C464 H435 0.930 . S
C464 C459 1.261 . S
C464 C463 1.312 . S
C465 O437 1.214 . S
C465 O445 1.234 . S
C466 H438 0.929 . S
C466 C469 1.391 . S
C466 C471 1.391 . S
C467 H439 0.929 . S
C467 C468 1.390 . S
C467 N470 1.391 . S
C468 H440 0.930 . S
C468 C467 1.390 . S
C468 C469 1.392 . S
C469 H441 0.929 . S
C469 C466 1.391 . S
C469 C468 1.392 . S
N470 Co414 2.257 . S
N470 C467 1.391 . S
N470 C471 1.388 . S
C471 H442 0.930 . S
C471 C466 1.391 . S
C471 N470 1.388 . S
Co472 O474 2.143 1_655 S
Co472 O480 2.074 . S
Co472 O483 2.093 . S
Co472 O496 2.097 1_655 S
Co472 N513 2.151 . S
Co472 N521 2.214 . S
Co473 O474 2.160 . S
Co473 O479 2.058 . S
Co473 O489 2.057 . S
Co473 O504 2.037 . S
Co473 N508 2.145 . S
Co473 N529 2.257 . S
O474 Co472 2.143 1_455 S
O474 Co473 2.160 . S
C475 O476 1.278 . S
C475 O483 1.224 1_455 S
O476 C475 1.278 . S
C477 O478 1.245 . S
C477 O489 1.232 . S
O478 C477 1.245 . S
O479 Co473 2.058 . S
O479 C505 1.269 . S
O480 Co472 2.074 . S
O480 C505 1.257 1_655 S
H481 C506 0.930 . S
H482 C512 0.930 . S
O483 Co472 2.093 . S
O483 C475 1.224 1_655 S
H484 C516 0.929 . S
H485 C518 0.930 . S
H486 C519 0.930 . S
H487 C517 0.929 . S
H488 C520 0.928 . S
O489 Co473 2.057 . S
O489 C477 1.232 . S
H490 C509 0.929 . S
H491 C510 0.929 . S
H492 C522 0.931 . S
H493 C514 0.929 . S
H494 C523 0.930 . S
H495 C515 0.931 . S
O496 Co472 2.097 1_455 S
O496 C524 1.214 . S
H497 C525 0.929 . S
H498 C526 0.929 . S
H499 C527 0.930 . S
H500 C528 0.929 . S
H501 C530 0.930 . S
H502 C507 0.930 . S
H503 C511 0.930 . S
O504 Co473 2.037 . S
O504 C524 1.234 . S
C505 O479 1.269 . S
C505 O480 1.257 1_455 S
C506 H481 0.930 . S
C506 C509 1.388 . S
C506 C511 1.418 . S
C507 H502 0.930 . S
C507 C510 1.404 . S
C507 C511 1.353 . S
N508 Co473 2.145 . S
N508 C509 1.397 . S
N508 C510 1.334 . S
C509 H490 0.929 . S
C509 C506 1.388 . S
C509 N508 1.397 . S
C510 H491 0.929 . S
C510 C507 1.404 . S
C510 N508 1.334 . S
C511 H503 0.930 . S
C511 C506 1.418 . S
C511 C507 1.353 . S
C512 H482 0.930 . S
C512 N513 1.330 . S
C512 C514 1.446 . S
N513 Co472 2.151 . S
N513 C512 1.330 . S
N513 C517 1.418 . S
C514 H493 0.929 . S
C514 C512 1.446 . S
C514 C515 1.332 . S
C515 H495 0.931 . S
C515 C514 1.332 . S
C515 C516 1.267 . S
C516 H484 0.929 . S
C516 C515 1.267 . S
C516 C517 1.251 . S
C517 H487 0.929 . S
C517 N513 1.418 . S
C517 C516 1.251 . S
C518 H485 0.930 . S
C518 C520 1.406 . S
C518 C523 1.261 . S
C519 H486 0.930 . S
C519 N521 1.325 . S
C519 C522 1.357 . S
C520 H488 0.928 . S
C520 C518 1.406 . S
C520 N521 1.261 . S
N521 Co472 2.214 . S
N521 C519 1.325 . S
N521 C520 1.261 . S
C522 H492 0.931 . S
C522 C519 1.357 . S
C522 C523 1.312 . S
C523 H494 0.930 . S
C523 C518 1.261 . S
C523 C522 1.312 . S
C524 O496 1.214 . S
C524 O504 1.234 . S
C525 H497 0.929 . S
C525 C528 1.391 . S
C525 C530 1.391 . S
C526 H498 0.929 . S
C526 C527 1.390 . S
C526 N529 1.391 . S
C527 H499 0.930 . S
C527 C526 1.390 . S
C527 C528 1.392 . S
C528 H500 0.929 . S
C528 C525 1.391 . S
C528 C527 1.392 . S
N529 Co473 2.257 . S
N529 C526 1.391 . S
N529 C530 1.388 . S
C530 H501 0.930 . S
C530 C525 1.391 . S
C530 N529 1.388 . S
Co531 O533 2.143 1_565 S
Co531 O539 2.074 . S
Co531 O542 2.093 . S
Co531 O555 2.097 1_565 S
Co531 N572 2.151 . S
Co531 N580 2.214 . S
Co532 O533 2.160 . S
Co532 O538 2.058 . S
Co532 O548 2.057 . S
Co532 O563 2.037 . S
Co532 N567 2.145 . S
Co532 N588 2.257 . S
O533 Co531 2.143 1_545 S
O533 Co532 2.160 . S
C534 O535 1.278 . S
C534 O542 1.224 1_545 S
O535 C534 1.278 . S
C536 O537 1.245 . S
C536 O548 1.232 . S
O537 C536 1.245 . S
O538 Co532 2.058 . S
O538 C564 1.269 . S
O539 Co531 2.074 . S
O539 C564 1.257 1_565 S
H540 C565 0.930 . S
H541 C571 0.930 . S
O542 Co531 2.093 . S
O542 C534 1.224 1_565 S
H543 C575 0.929 . S
H544 C577 0.930 . S
H545 C578 0.930 . S
H546 C576 0.929 . S
H547 C579 0.928 . S
O548 Co532 2.057 . S
O548 C536 1.232 . S
H549 C568 0.929 . S
H550 C569 0.929 . S
H551 C581 0.931 . S
H552 C573 0.929 . S
H553 C582 0.930 . S
H554 C574 0.931 . S
O555 Co531 2.097 1_545 S
O555 C583 1.214 . S
H556 C584 0.929 . S
H557 C585 0.929 . S
H558 C586 0.930 . S
H559 C587 0.929 . S
H560 C589 0.930 . S
H561 C566 0.930 . S
H562 C570 0.930 . S
O563 Co532 2.037 . S
O563 C583 1.234 . S
C564 O538 1.269 . S
C564 O539 1.257 1_545 S
C565 H540 0.930 . S
C565 C568 1.388 . S
C565 C570 1.418 . S
C566 H561 0.930 . S
C566 C569 1.404 . S
C566 C570 1.353 . S
N567 Co532 2.145 . S
N567 C568 1.397 . S
N567 C569 1.334 . S
C568 H549 0.929 . S
C568 C565 1.388 . S
C568 N567 1.397 . S
C569 H550 0.929 . S
C569 C566 1.404 . S
C569 N567 1.334 . S
C570 H562 0.930 . S
C570 C565 1.418 . S
C570 C566 1.353 . S
C571 H541 0.930 . S
C571 N572 1.330 . S
C571 C573 1.446 . S
N572 Co531 2.151 . S
N572 C571 1.330 . S
N572 C576 1.418 . S
C573 H552 0.929 . S
C573 C571 1.446 . S
C573 C574 1.332 . S
C574 H554 0.931 . S
C574 C573 1.332 . S
C574 C575 1.267 . S
C575 H543 0.929 . S
C575 C574 1.267 . S
C575 C576 1.251 . S
C576 H546 0.929 . S
C576 N572 1.418 . S
C576 C575 1.251 . S
C577 H544 0.930 . S
C577 C579 1.406 . S
C577 C582 1.261 . S
C578 H545 0.930 . S
C578 N580 1.325 . S
C578 C581 1.357 . S
C579 H547 0.928 . S
C579 C577 1.406 . S
C579 N580 1.261 . S
N580 Co531 2.214 . S
N580 C578 1.325 . S
N580 C579 1.261 . S
C581 H551 0.931 . S
C581 C578 1.357 . S
C581 C582 1.312 . S
C582 H553 0.930 . S
C582 C577 1.261 . S
C582 C581 1.312 . S
C583 O555 1.214 . S
C583 O563 1.234 . S
C584 H556 0.929 . S
C584 C587 1.391 . S
C584 C589 1.391 . S
C585 H557 0.929 . S
C585 C586 1.390 . S
C585 N588 1.391 . S
C586 H558 0.930 . S
C586 C585 1.390 . S
C586 C587 1.392 . S
C587 H559 0.929 . S
C587 C584 1.391 . S
C587 C586 1.392 . S
N588 Co532 2.257 . S
N588 C585 1.391 . S
N588 C589 1.388 . S
C589 H560 0.930 . S
C589 C584 1.391 . S
C589 N588 1.388 . S
Co590 O592 2.143 . S
Co590 O598 2.074 . S
Co590 O601 2.093 . S
Co590 O614 2.097 . S
Co590 N631 2.151 . S
Co590 N639 2.214 . S
Co591 O592 2.160 . S
Co591 O597 2.058 . S
Co591 O607 2.057 . S
Co591 O622 2.037 . S
Co591 N626 2.145 . S
Co591 N647 2.257 . S
O592 Co590 2.143 . S
O592 Co591 2.160 . S
C593 O594 1.278 . S
C593 O601 1.224 . S
O594 C593 1.278 . S
C595 O596 1.245 . S
C595 O607 1.232 . S
O596 C595 1.245 . S
O597 Co591 2.058 . S
O597 C623 1.269 . S
O598 Co590 2.074 . S
O598 C623 1.257 . S
H599 C624 0.930 . S
H600 C630 0.930 . S
O601 Co590 2.093 . S
O601 C593 1.224 . S
H602 C634 0.929 . S
H603 C636 0.930 . S
H604 C637 0.930 . S
H605 C635 0.929 . S
H606 C638 0.928 . S
O607 Co591 2.057 . S
O607 C595 1.232 . S
H608 C627 0.929 . S
H609 C628 0.929 . S
H610 C640 0.931 . S
H611 C632 0.929 . S
H612 C641 0.930 . S
H613 C633 0.931 . S
O614 Co590 2.097 . S
O614 C642 1.214 . S
H615 C643 0.929 . S
H616 C644 0.929 . S
H617 C645 0.930 . S
H618 C646 0.929 . S
H619 C648 0.930 . S
H620 C625 0.930 . S
H621 C629 0.930 . S
O622 Co591 2.037 . S
O622 C642 1.234 . S
C623 O597 1.269 . S
C623 O598 1.257 . S
C624 H599 0.930 . S
C624 C627 1.388 . S
C624 C629 1.418 . S
C625 H620 0.930 . S
C625 C628 1.404 . S
C625 C629 1.353 . S
N626 Co591 2.145 . S
N626 C627 1.397 . S
N626 C628 1.334 . S
C627 H608 0.929 . S
C627 C624 1.388 . S
C627 N626 1.397 . S
C628 H609 0.929 . S
C628 C625 1.404 . S
C628 N626 1.334 . S
C629 H621 0.930 . S
C629 C624 1.418 . S
C629 C625 1.353 . S
C630 H600 0.930 . S
C630 N631 1.330 . S
C630 C632 1.446 . S
N631 Co590 2.151 . S
N631 C630 1.330 . S
N631 C635 1.418 . S
C632 H611 0.929 . S
C632 C630 1.446 . S
C632 C633 1.332 . S
C633 H613 0.931 . S
C633 C632 1.332 . S
C633 C634 1.267 . S
C634 H602 0.929 . S
C634 C633 1.267 . S
C634 C635 1.251 . S
C635 H605 0.929 . S
C635 N631 1.418 . S
C635 C634 1.251 . S
C636 H603 0.930 . S
C636 C638 1.406 . S
C636 C641 1.261 . S
C637 H604 0.930 . S
C637 N639 1.325 . S
C637 C640 1.357 . S
C638 H606 0.928 . S
C638 C636 1.406 . S
C638 N639 1.261 . S
N639 Co590 2.214 . S
N639 C637 1.325 . S
N639 C638 1.261 . S
C640 H610 0.931 . S
C640 C637 1.357 . S
C640 C641 1.312 . S
C641 H612 0.930 . S
C641 C636 1.261 . S
C641 C640 1.312 . S
C642 O614 1.214 . S
C642 O622 1.234 . S
C643 H615 0.929 . S
C643 C646 1.391 . S
C643 C648 1.391 . S
C644 H616 0.929 . S
C644 C645 1.390 . S
C644 N647 1.391 . S
C645 H617 0.930 . S
C645 C644 1.390 . S
C645 C646 1.392 . S
C646 H618 0.929 . S
C646 C643 1.391 . S
C646 C645 1.392 . S
N647 Co591 2.257 . S
N647 C644 1.391 . S
N647 C648 1.388 . S
C648 H619 0.930 . S
C648 C643 1.391 . S
C648 N647 1.388 . S
Co649 O651 2.143 1_455 S
Co649 O657 2.074 . S
Co649 O660 2.093 . S
Co649 O673 2.097 1_455 S
Co649 N690 2.151 . S
Co649 N698 2.214 . S
Co650 O651 2.160 . S
Co650 O656 2.058 . S
Co650 O666 2.057 . S
Co650 O681 2.037 . S
Co650 N685 2.145 . S
Co650 N706 2.257 . S
O651 Co649 2.143 1_655 S
O651 Co650 2.160 . S
C652 O653 1.278 . S
C652 O660 1.224 1_655 S
O653 C652 1.278 . S
C654 O655 1.245 . S
C654 O666 1.232 . S
O655 C654 1.245 . S
O656 Co650 2.058 . S
O656 C682 1.269 . S
O657 Co649 2.074 . S
O657 C682 1.257 1_455 S
H658 C683 0.930 . S
H659 C689 0.930 . S
O660 Co649 2.093 . S
O660 C652 1.224 1_455 S
H661 C693 0.929 . S
H662 C695 0.930 . S
H663 C696 0.930 . S
H664 C694 0.929 . S
H665 C697 0.928 . S
O666 Co650 2.057 . S
O666 C654 1.232 . S
H667 C686 0.929 . S
H668 C687 0.929 . S
H669 C699 0.931 . S
H670 C691 0.929 . S
H671 C700 0.930 . S
H672 C692 0.931 . S
O673 Co649 2.097 1_655 S
O673 C701 1.214 . S
H674 C702 0.929 . S
H675 C703 0.929 . S
H676 C704 0.930 . S
H677 C705 0.929 . S
H678 C707 0.930 . S
H679 C684 0.930 . S
H680 C688 0.930 . S
O681 Co650 2.037 . S
O681 C701 1.234 . S
C682 O656 1.269 . S
C682 O657 1.257 1_655 S
C683 H658 0.930 . S
C683 C686 1.388 . S
C683 C688 1.418 . S
C684 H679 0.930 . S
C684 C687 1.404 . S
C684 C688 1.353 . S
N685 Co650 2.145 . S
N685 C686 1.397 . S
N685 C687 1.334 . S
C686 H667 0.929 . S
C686 C683 1.388 . S
C686 N685 1.397 . S
C687 H668 0.929 . S
C687 C684 1.404 . S
C687 N685 1.334 . S
C688 H680 0.930 . S
C688 C683 1.418 . S
C688 C684 1.353 . S
C689 H659 0.930 . S
C689 N690 1.330 . S
C689 C691 1.446 . S
N690 Co649 2.151 . S
N690 C689 1.330 . S
N690 C694 1.418 . S
C691 H670 0.929 . S
C691 C689 1.446 . S
C691 C692 1.332 . S
C692 H672 0.931 . S
C692 C691 1.332 . S
C692 C693 1.267 . S
C693 H661 0.929 . S
C693 C692 1.267 . S
C693 C694 1.251 . S
C694 H664 0.929 . S
C694 N690 1.418 . S
C694 C693 1.251 . S
C695 H662 0.930 . S
C695 C697 1.406 . S
C695 C700 1.261 . S
C696 H663 0.930 . S
C696 N698 1.325 . S
C696 C699 1.357 . S
C697 H665 0.928 . S
C697 C695 1.406 . S
C697 N698 1.261 . S
N698 Co649 2.214 . S
N698 C696 1.325 . S
N698 C697 1.261 . S
C699 H669 0.931 . S
C699 C696 1.357 . S
C699 C700 1.312 . S
C700 H671 0.930 . S
C700 C695 1.261 . S
C700 C699 1.312 . S
C701 O673 1.214 . S
C701 O681 1.234 . S
C702 H674 0.929 . S
C702 C705 1.391 . S
C702 C707 1.391 . S
C703 H675 0.929 . S
C703 C704 1.390 . S
C703 N706 1.391 . S
C704 H676 0.930 . S
C704 C703 1.390 . S
C704 C705 1.392 . S
C705 H677 0.929 . S
C705 C702 1.391 . S
C705 C704 1.392 . S
N706 Co650 2.257 . S
N706 C703 1.391 . S
N706 C707 1.388 . S
C707 H678 0.930 . S
C707 C702 1.391 . S
C707 N706 1.388 . S
C708 C709 1.387 1_655 S
C708 H712 0.950 . S
C708 C717 1.390 1_554 S
C709 C708 1.387 1_455 S
C709 C711 1.387 . S
H710 C717 0.950 . S
C711 C709 1.387 . S
C711 C713 1.390 1_554 S
C711 H715 0.950 . S
H712 C708 0.950 . S
C713 C711 1.390 1_556 S
C713 C714 1.387 1_455 S
C713 H716 0.950 . S
C714 C713 1.387 1_655 S
C714 C717 1.387 . S
H715 C711 0.950 . S
H716 C713 0.950 . S
C717 C708 1.390 1_556 S
C717 H710 0.950 . S
C717 C714 1.387 . S
C718 C719 1.387 . S
C718 H722 0.950 . S
C718 C727 1.390 1_565 S
C719 C718 1.387 . S
C719 C721 1.387 . S
H720 C727 0.950 . S
C721 C719 1.387 . S
C721 C723 1.390 1_565 S
C721 H725 0.950 . S
H722 C718 0.950 . S
C723 C721 1.390 1_545 S
C723 C724 1.387 . S
C723 H726 0.950 . S
C724 C723 1.387 . S
C724 C727 1.387 . S
H725 C721 0.950 . S
H726 C723 0.950 . S
C727 C718 1.390 1_545 S
C727 H720 0.950 . S
C727 C724 1.387 . S
C728 C729 1.387 . S
C728 H732 0.950 . S
C728 C737 1.390 1_554 S
C729 C728 1.387 . S
C729 C731 1.387 . S
H730 C737 0.950 . S
C731 C729 1.387 . S
C731 C733 1.390 1_554 S
C731 H735 0.950 . S
H732 C728 0.950 . S
C733 C731 1.390 1_556 S
C733 C734 1.387 . S
C733 H736 0.950 . S
C734 C733 1.387 . S
C734 C737 1.387 . S
H735 C731 0.950 . S
H736 C733 0.950 . S
C737 C728 1.390 1_556 S
C737 H730 0.950 . S
C737 C734 1.387 . S
C738 C739 1.387 1_655 S
C738 H742 0.950 . S
C738 C747 1.390 . S
C739 C738 1.387 1_455 S
C739 C741 1.387 . S
H740 C747 0.950 . S
C741 C739 1.387 . S
C741 C743 1.390 . S
C741 H745 0.950 . S
H742 C738 0.950 . S
C743 C741 1.390 . S
C743 C744 1.387 1_455 S
C743 H746 0.950 . S
C744 C743 1.387 1_655 S
C744 C747 1.387 . S
H745 C741 0.950 . S
H746 C743 0.950 . S
C747 C738 1.390 . S
C747 H740 0.950 . S
C747 C744 1.387 . S
C748 C749 1.387 . S
C748 H752 0.950 . S
C748 C757 1.390 1_546 S
C749 C748 1.387 . S
C749 C751 1.387 . S
H750 C757 0.950 . S
C751 C749 1.387 . S
C751 C753 1.390 1_546 S
C751 H755 0.950 . S
H752 C748 0.950 . S
C753 C751 1.390 1_564 S
C753 C754 1.387 . S
C753 H756 0.950 . S
C754 C753 1.387 . S
C754 C757 1.387 . S
H755 C751 0.950 . S
H756 C753 0.950 . S
C757 C748 1.390 1_564 S
C757 H750 0.950 . S
C757 C754 1.387 . S
C758 C759 1.387 . S
C758 H762 0.950 . S
C758 C767 1.390 . S
C759 C758 1.387 . S
C759 C761 1.387 . S
H760 C767 0.950 . S
C761 C759 1.387 . S
C761 C763 1.390 . S
C761 H765 0.950 . S
H762 C758 0.950 . S
C763 C761 1.390 . S
C763 C764 1.387 . S
C763 H766 0.950 . S
C764 C763 1.387 . S
C764 C767 1.387 . S
H765 C761 0.950 . S
H766 C763 0.950 . S
C767 C758 1.390 . S
C767 H760 0.950 . S
C767 C764 1.387 . S
C768 C769 1.387 . S
C768 H772 0.950 . S
C768 C777 1.390 1_556 S
C769 C768 1.387 . S
C769 C771 1.387 1_655 S
H770 C777 0.950 . S
C771 C769 1.387 1_455 S
C771 C773 1.390 1_556 S
C771 H775 0.950 . S
H772 C768 0.950 . S
C773 C771 1.390 1_554 S
C773 C774 1.387 . S
C773 H776 0.950 . S
C774 C773 1.387 . S
C774 C777 1.387 1_455 S
H775 C771 0.950 . S
H776 C773 0.950 . S
C777 C768 1.390 1_554 S
C777 H770 0.950 . S
C777 C774 1.387 1_655 S
C778 C779 1.387 . S
C778 H782 0.950 . S
C778 C787 1.390 1_565 S
C779 C778 1.387 . S
C779 C781 1.387 . S
H780 C787 0.950 . S
C781 C779 1.387 . S
C781 C783 1.390 1_565 S
C781 H785 0.950 . S
H782 C778 0.950 . S
C783 C781 1.390 1_545 S
C783 C784 1.387 . S
C783 H786 0.950 . S
C784 C783 1.387 . S
C784 C787 1.387 . S
H785 C781 0.950 . S
H786 C783 0.950 . S
C787 C778 1.390 1_545 S
C787 H780 0.950 . S
C787 C784 1.387 . S
C788 C789 1.387 . S
C788 H792 0.950 . S
C788 C797 1.390 1_556 S
C789 C788 1.387 . S
C789 C791 1.387 . S
H790 C797 0.950 . S
C791 C789 1.387 . S
C791 C793 1.390 1_556 S
C791 H795 0.950 . S
H792 C788 0.950 . S
C793 C791 1.390 1_554 S
C793 C794 1.387 . S
C793 H796 0.950 . S
C794 C793 1.387 . S
C794 C797 1.387 . S
H795 C791 0.950 . S
H796 C793 0.950 . S
C797 C788 1.390 1_554 S
C797 H790 0.950 . S
C797 C794 1.387 . S
C798 C799 1.387 . S
C798 H802 0.950 . S
C798 C807 1.390 . S
C799 C798 1.387 . S
C799 C801 1.387 1_655 S
H800 C807 0.950 . S
C801 C799 1.387 1_455 S
C801 C803 1.390 . S
C801 H805 0.950 . S
H802 C798 0.950 . S
C803 C801 1.390 . S
C803 C804 1.387 . S
C803 H806 0.950 . S
C804 C803 1.387 . S
C804 C807 1.387 1_455 S
H805 C801 0.950 . S
H806 C803 0.950 . S
C807 C798 1.390 . S
C807 H800 0.950 . S
C807 C804 1.387 1_655 S
C808 C809 1.387 . S
C808 H812 0.950 . S
C808 C817 1.389 1_546 S
C809 C808 1.387 . S
C809 C811 1.372 . S
H810 C817 0.968 . S
C811 C809 1.372 . S
C811 C813 1.389 1_546 S
C811 H815 0.968 . S
H812 C808 0.950 . S
C813 C811 1.389 1_564 S
C813 C814 1.406 . S
C813 H816 0.934 . S
C814 C813 1.406 . S
C814 C817 1.372 . S
H815 C811 0.968 . S
H816 C813 0.934 . S
C817 C808 1.389 1_564 S
C817 H810 0.968 . S
C817 C814 1.372 . S
C818 C819 1.387 . S
C818 H822 0.950 . S
C818 C827 1.390 . S
C819 C818 1.387 . S
C819 C821 1.387 . S
H820 C827 0.950 . S
C821 C819 1.387 . S
C821 C823 1.390 . S
C821 H825 0.950 . S
H822 C818 0.950 . S
C823 C821 1.390 . S
C823 C824 1.387 . S
C823 H826 0.950 . S
C824 C823 1.387 . S
C824 C827 1.387 . S
H825 C821 0.950 . S
H826 C823 0.950 . S
C827 C818 1.390 . S
C827 H820 0.950 . S
C827 C824 1.387 . S
C828 C829 1.387 . S
C828 H832 0.950 . S
C828 C837 1.390 . S
C829 C828 1.387 . S
C829 C831 1.387 . S
H830 C837 0.950 . S
C831 C829 1.387 . S
C831 C833 1.390 . S
C831 H835 0.950 . S
H832 C828 0.950 . S
C833 C831 1.390 . S
C833 C834 1.387 . S
C833 H836 0.950 . S
C834 C833 1.387 . S
C834 C837 1.387 . S
H835 C831 0.950 . S
H836 C833 0.950 . S
C837 C828 1.390 . S
C837 H830 0.950 . S
C837 C834 1.387 . S
C838 C839 1.387 1_565 S
C838 H842 0.950 . S
C838 C847 1.390 . S
C839 C838 1.387 1_545 S
C839 C841 1.387 . S
H840 C847 0.950 . S
C841 C839 1.387 . S
C841 C843 1.390 . S
C841 H845 0.950 . S
H842 C838 0.950 . S
C843 C841 1.390 . S
C843 C844 1.387 . S
C843 H846 0.950 . S
C844 C843 1.387 . S
C844 C847 1.387 1_545 S
H845 C841 0.950 . S
H846 C843 0.950 . S
C847 C838 1.390 . S
C847 H840 0.950 . S
C847 C844 1.387 1_565 S
C848 C849 1.387 . S
C848 H852 0.950 . S
C848 C857 1.390 . S
C849 C848 1.387 . S
C849 C851 1.387 . S
H850 C857 0.950 . S
C851 C849 1.387 . S
C851 C853 1.390 . S
C851 H855 0.950 . S
H852 C848 0.950 . S
C853 C851 1.390 . S
C853 C854 1.387 . S
C853 H856 0.950 . S
C854 C853 1.387 . S
C854 C857 1.387 . S
H855 C851 0.950 . S
H856 C853 0.950 . S
C857 C848 1.390 . S
C857 H850 0.950 . S
C857 C854 1.387 . S
C858 C859 1.387 . S
C858 H862 0.950 . S
C858 C867 1.390 . S
C859 C858 1.387 . S
C859 C861 1.387 . S
H860 C867 0.950 . S
C861 C859 1.387 . S
C861 C863 1.390 . S
C861 H865 0.950 . S
H862 C858 0.950 . S
C863 C861 1.390 . S
C863 C864 1.387 . S
C863 H866 0.950 . S
C864 C863 1.387 . S
C864 C867 1.387 . S
H865 C861 0.950 . S
H866 C863 0.950 . S
C867 C858 1.390 . S
C867 H860 0.950 . S
C867 C864 1.387 . S
C868 C869 1.387 1_545 S
C868 H872 0.950 . S
C868 C877 1.390 . S
C869 C868 1.387 1_565 S
C869 C871 1.387 . S
H870 C877 0.950 . S
C871 C869 1.387 . S
C871 C873 1.390 . S
C871 H875 0.950 . S
H872 C868 0.950 . S
C873 C871 1.390 . S
C873 C874 1.387 . S
C873 H876 0.950 . S
C874 C873 1.387 . S
C874 C877 1.387 1_565 S
H875 C871 0.950 . S
H876 C873 0.950 . S
C877 C868 1.390 . S
C877 H870 0.950 . S
C877 C874 1.387 1_545 S
C878 C879 1.387 . S
C878 H882 0.950 . S
C878 C887 1.390 . S
C879 C878 1.387 . S
C879 C881 1.387 . S
H880 C887 0.950 . S
C881 C879 1.387 . S
C881 C883 1.390 . S
C881 H885 0.950 . S
H882 C878 0.950 . S
C883 C881 1.390 . S
C883 C884 1.387 . S
C883 H886 0.950 . S
C884 C883 1.387 . S
C884 C887 1.387 . S
H885 C881 0.950 . S
H886 C883 0.950 . S
C887 C878 1.390 . S
C887 H880 0.950 . S
C887 C884 1.387 . S
C888 C889 1.387 . S
C888 H892 0.950 . S
C888 C897 1.390 . S
C889 C888 1.387 . S
C889 C891 1.387 . S
H890 C897 0.950 . S
C891 C889 1.387 . S
C891 C893 1.390 . S
C891 H895 0.950 . S
H892 C888 0.950 . S
C893 C891 1.390 . S
C893 C894 1.387 . S
C893 H896 0.950 . S
C894 C893 1.387 . S
C894 C897 1.387 . S
H895 C891 0.950 . S
H896 C893 0.950 . S
C897 C888 1.390 . S
C897 H890 0.950 . S
C897 C894 1.387 . S
C898 C899 1.387 . S
C898 H902 0.950 . S
C898 C907 1.390 . S
C899 C898 1.387 . S
C899 C901 1.387 . S
H900 C907 0.950 . S
C901 C899 1.387 . S
C901 C903 1.390 . S
C901 H905 0.950 . S
H902 C898 0.950 . S
C903 C901 1.390 . S
C903 C904 1.387 . S
C903 H906 0.950 . S
C904 C903 1.387 . S
C904 C907 1.387 . S
H905 C901 0.950 . S
H906 C903 0.950 . S
C907 C898 1.390 . S
C907 H900 0.950 . S
C907 C904 1.387 . S
C908 C909 1.387 . S
C908 H912 0.950 . S
C908 C917 1.390 . S
C909 C908 1.387 . S
C909 C911 1.387 . S
H910 C917 0.950 . S
C911 C909 1.387 . S
C911 C913 1.390 . S
C911 H915 0.950 . S
H912 C908 0.950 . S
C913 C911 1.390 . S
C913 C914 1.387 . S
C913 H916 0.950 . S
C914 C913 1.387 . S
C914 C917 1.387 . S
H915 C911 0.950 . S
H916 C913 0.950 . S
C917 C908 1.390 . S
C917 H910 0.950 . S
C917 C914 1.387 . S
C918 C919 1.387 . S
C918 H922 0.950 . S
C918 C927 1.390 . S
C919 C918 1.387 . S
C919 C921 1.387 . S
H920 C927 0.950 . S
C921 C919 1.387 . S
C921 C923 1.390 . S
C921 H925 0.950 . S
H922 C918 0.950 . S
C923 C921 1.390 . S
C923 C924 1.387 . S
C923 H926 0.950 . S
C924 C923 1.387 . S
C924 C927 1.387 . S
H925 C921 0.950 . S
H926 C923 0.950 . S
C927 C918 1.390 . S
C927 H920 0.950 . S
C927 C924 1.387 . S
C928 C929 1.387 . S
C928 H932 0.950 . S
C928 C937 1.390 . S
C929 C928 1.387 . S
C929 C931 1.387 . S
H930 C937 0.950 . S
C931 C929 1.387 . S
C931 C933 1.390 . S
C931 H935 0.950 . S
H932 C928 0.950 . S
C933 C931 1.390 . S
C933 C934 1.387 . S
C933 H936 0.950 . S
C934 C933 1.387 . S
C934 C937 1.387 . S
H935 C931 0.950 . S
H936 C933 0.950 . S
C937 C928 1.390 . S
C937 H930 0.950 . S
C937 C934 1.387 . S
C938 C939 1.387 . S
C938 H942 0.950 . S
C938 C947 1.390 . S
C939 C938 1.387 . S
C939 C941 1.387 . S
H940 C947 0.950 . S
C941 C939 1.387 . S
C941 C943 1.390 . S
C941 H945 0.950 . S
H942 C938 0.950 . S
C943 C941 1.390 . S
C943 C944 1.387 . S
C943 H946 0.950 . S
C944 C943 1.387 . S
C944 C947 1.387 . S
H945 C941 0.950 . S
H946 C943 0.950 . S
C947 C938 1.390 . S
C947 H940 0.950 . S
C947 C944 1.387 . S
C709 C33 1.694 . S
C714 C682 1.694 . S
C719 C387 1.695 . S
C724 C92 1.695 . S
C729 C151 1.695 . S
C734 C446 1.695 . S
C739 C505 1.694 . S
C744 C210 1.694 . S
C749 C564 1.695 . S
C754 C269 1.695 . S
C759 C623 1.694 . S
C764 C328 1.694 . S
C769 C180 1.186 . S
C774 C475 1.186 . S
C779 C239 1.186 . S
C784 C534 1.186 . S
C789 C298 1.185 . S
C794 C593 1.187 . S
C799 C652 1.188 . S
C804 C3 1.187 . S
C809 C62 1.187 . S
C814 C357 1.187 . S
C819 C121 1.187 . S
C824 C416 1.187 . S
C829 C524 1.782 . S
C834 C52 1.781 . S
C839 C583 1.782 . S
C844 C111 1.782 . S
C849 C170 1.782 . S
C854 C642 1.781 . S
C859 C229 1.781 . S
C864 C701 1.782 . S
C869 C288 1.782 . S
C874 C406 1.782 . S
C879 C465 1.781 . S
C884 C347 1.782 . S
C889 C5 1.725 . S
C894 C595 1.725 . S
C899 C654 1.725 . S
C904 C64 1.724 . S
C909 C123 1.724 . S
C914 C359 1.725 . S
C919 C182 1.725 . S
C924 C418 1.725 . S
C929 C241 1.725 . S
C934 C477 1.724 . S
C939 C300 1.725 . S
C944 C536 1.724 . S
