# Generated by pormake.
# Topology neb, (4)-cn, num edge types: 1
# Building blocks:
#     Node 0, Type 0, BuildingBlock: QUQFOY_clean_sbu_1, # of connection points: 4
#     Node 1, Type 0, BuildingBlock: QUQFOY_clean_sbu_1, # of connection points: 4
#     Node 2, Type 0, BuildingBlock: QUQFOY_clean_sbu_1, # of connection points: 4
#     Node 3, Type 0, BuildingBlock: QUQFOY_clean_sbu_1, # of connection points: 4
#     Node 4, Type 0, BuildingBlock: QUQFOY_clean_sbu_1, # of connection points: 4
#     Node 5, Type 0, BuildingBlock: QUQFOY_clean_sbu_1, # of connection points: 4
#     Node 6, Type 0, BuildingBlock: QUQFOY_clean_sbu_1, # of connection points: 4
#     Node 7, Type 0, BuildingBlock: QUQFOY_clean_sbu_1, # of connection points: 4
#     Node 8, Type 0, BuildingBlock: QUQFOY_clean_sbu_1, # of connection points: 4
#     Node 9, Type 0, BuildingBlock: QUQFOY_clean_sbu_1, # of connection points: 4
#     Node 10, Type 0, BuildingBlock: QUQFOY_clean_sbu_1, # of connection points: 4
#     Node 11, Type 0, BuildingBlock: QUQFOY_clean_sbu_1, # of connection points: 4
#     Node 12, Type 0, BuildingBlock: QUQFOY_clean_sbu_1, # of connection points: 4
#     Node 13, Type 0, BuildingBlock: QUQFOY_clean_sbu_1, # of connection points: 4
#     Node 14, Type 0, BuildingBlock: QUQFOY_clean_sbu_1, # of connection points: 4
#     Node 15, Type 0, BuildingBlock: QUQFOY_clean_sbu_1, # of connection points: 4
#     Edge 16, Type (0, 0), BuildingBlock: EZIPEK_clean_linker_0, # of connection points: 2
#     Edge 17, Type (0, 0), BuildingBlock: EZIPEK_clean_linker_0, # of connection points: 2
#     Edge 18, Type (0, 0), BuildingBlock: EZIPEK_clean_linker_0, # of connection points: 2
#     Edge 19, Type (0, 0), BuildingBlock: EZIPEK_clean_linker_0, # of connection points: 2
#     Edge 20, Type (0, 0), BuildingBlock: EZIPEK_clean_linker_0, # of connection points: 2
#     Edge 21, Type (0, 0), BuildingBlock: EZIPEK_clean_linker_0, # of connection points: 2
#     Edge 22, Type (0, 0), BuildingBlock: EZIPEK_clean_linker_0, # of connection points: 2
#     Edge 23, Type (0, 0), BuildingBlock: EZIPEK_clean_linker_0, # of connection points: 2
#     Edge 24, Type (0, 0), BuildingBlock: EZIPEK_clean_linker_0, # of connection points: 2
#     Edge 25, Type (0, 0), BuildingBlock: EZIPEK_clean_linker_0, # of connection points: 2
#     Edge 26, Type (0, 0), BuildingBlock: EZIPEK_clean_linker_0, # of connection points: 2
#     Edge 27, Type (0, 0), BuildingBlock: EZIPEK_clean_linker_0, # of connection points: 2
#     Edge 28, Type (0, 0), BuildingBlock: EZIPEK_clean_linker_0, # of connection points: 2
#     Edge 29, Type (0, 0), BuildingBlock: EZIPEK_clean_linker_0, # of connection points: 2
#     Edge 30, Type (0, 0), BuildingBlock: EZIPEK_clean_linker_0, # of connection points: 2
#     Edge 31, Type (0, 0), BuildingBlock: EZIPEK_clean_linker_0, # of connection points: 2
#     Edge 32, Type (0, 0), BuildingBlock: EZIPEK_clean_linker_0, # of connection points: 2
#     Edge 33, Type (0, 0), BuildingBlock: EZIPEK_clean_linker_0, # of connection points: 2
#     Edge 34, Type (0, 0), BuildingBlock: EZIPEK_clean_linker_0, # of connection points: 2
#     Edge 35, Type (0, 0), BuildingBlock: EZIPEK_clean_linker_0, # of connection points: 2
#     Edge 36, Type (0, 0), BuildingBlock: EZIPEK_clean_linker_0, # of connection points: 2
#     Edge 37, Type (0, 0), BuildingBlock: EZIPEK_clean_linker_0, # of connection points: 2
#     Edge 38, Type (0, 0), BuildingBlock: EZIPEK_clean_linker_0, # of connection points: 2
#     Edge 39, Type (0, 0), BuildingBlock: EZIPEK_clean_linker_0, # of connection points: 2
#     Edge 40, Type (0, 0), BuildingBlock: EZIPEK_clean_linker_0, # of connection points: 2
#     Edge 41, Type (0, 0), BuildingBlock: EZIPEK_clean_linker_0, # of connection points: 2
#     Edge 42, Type (0, 0), BuildingBlock: EZIPEK_clean_linker_0, # of connection points: 2
#     Edge 43, Type (0, 0), BuildingBlock: EZIPEK_clean_linker_0, # of connection points: 2
#     Edge 44, Type (0, 0), BuildingBlock: EZIPEK_clean_linker_0, # of connection points: 2
#     Edge 45, Type (0, 0), BuildingBlock: EZIPEK_clean_linker_0, # of connection points: 2
#     Edge 46, Type (0, 0), BuildingBlock: EZIPEK_clean_linker_0, # of connection points: 2
#     Edge 47, Type (0, 0), BuildingBlock: EZIPEK_clean_linker_0, # of connection points: 2
# Relax obj value: 0.022
# Max RMSD: 0.099
# Mean RMSD: 0.099
data_MOF--net-neb--node1-QUQFOY_clean_sbu_1--edge1-EZIPEK_clean_linker_0
_symmetry_space_group_name_H-M    P1
_symmetry_Int_Tables_number       1
_symmetry_cell_setting            triclinic
loop_
_symmetry_equiv_pos_as_xyz
'x, y, z'
_cell_length_a     36.068607
_cell_length_b     16.402293
_cell_length_c     57.896896
_cell_angle_alpha  90.015583
_cell_angle_beta   90.090216
_cell_angle_gamma 90.11662
loop_
_atom_site_label
_atom_site_type_symbol
_atom_site_fract_x
_atom_site_fract_y
_atom_site_fract_z
_atom_type_partial_charge
O0 O 0.15837 -0.01214 0.42393 0.0
Cd1 Cd 0.13132 0.07632 0.4425 0.0
Cd2 Cd 0.20306 0.14163 0.44253 0.0
O3 O 0.21586 0.03553 0.4252 0.0
O4 O 0.08257 0.02613 0.45069 0.0
O5 O 0.12372 0.06595 0.47684 0.0
C6 C 0.09198 0.03339 0.47206 0.0
C7 C 0.24176 0.18894 0.472 0.0
C8 C 0.1924 0.98257 0.41855 0.0
C9 C 0.14232 0.23242 0.41718 0.0
O10 O 0.17629 0.22763 0.42282 0.0
O11 O 0.11881 0.17991 0.42395 0.0
O12 O 0.25163 0.19316 0.45066 0.0
O13 O 0.21001 0.15661 0.47683 0.0
O14 O 0.17981 -0.01487 0.84231 0.0
Cd15 Cd 0.2025 0.07866 0.82368 0.0
Cd16 Cd 0.12969 0.12965 0.82324 0.0
O17 O 0.12141 0.02619 0.84286 0.0
O18 O 0.25298 0.0375 0.81582 0.0
O19 O 0.21064 0.06787 0.78942 0.0
C20 C 0.2432 0.04035 0.79444 0.0
C21 C 0.08884 0.16541 0.7937 0.0
C22 C 0.14656 0.97659 0.84903 0.0
C23 C 0.18516 0.23304 0.84874 0.0
O24 O 0.15206 0.22427 0.84168 0.0
O25 O 0.21043 0.18314 0.84298 0.0
O26 O 0.07917 0.16991 0.81506 0.0
O27 O 0.12154 0.13831 0.78889 0.0
O28 O 0.93026 0.97493 0.59112 0.0
Cd29 Cd 0.95231 0.87961 0.5729 0.0
Cd30 Cd 0.87957 0.82965 0.5728 0.0
O31 O 0.8717 0.93444 0.59191 0.0
O32 O 1.00278 0.91867 0.56395 0.0
O33 O 0.95928 0.8865 0.53844 0.0
C34 C 0.99228 0.91338 0.54272 0.0
C35 C 0.83936 0.79092 0.54321 0.0
C36 C 0.89707 0.98406 0.5979 0.0
C37 C 0.93445 0.72741 0.59889 0.0
O38 O 0.90138 0.73626 0.59184 0.0
O39 O 0.95997 0.77645 0.59281 0.0
O40 O 0.82912 0.78878 0.56449 0.0
O41 O 0.8721 0.81819 0.53847 0.0
O42 O 0.90345 0.97833 0.17472 0.0
Cd43 Cd 0.88026 0.89063 0.19538 0.0
Cd44 Cd 0.95368 0.84158 0.19514 0.0
O45 O 0.96313 0.94988 0.17828 0.0
O46 O 0.83064 0.9363 0.20332 0.0
O47 O 0.87368 0.90877 0.22952 0.0
C48 C 0.84112 0.93655 0.22459 0.0
C49 C 0.99287 0.80012 0.22495 0.0
C50 C 0.93717 -0.00692 0.16998 0.0
C51 C 0.89601 0.73805 0.17049 0.0
O52 O 0.92992 0.75258 0.17491 0.0
O53 O 0.87035 0.78178 0.17892 0.0
O54 O 1.00367 0.79897 0.20375 0.0
O55 O 0.95982 0.82593 0.22942 0.0
O56 O 0.1536 0.49107 0.92329 0.0
Cd57 Cd 0.12969 0.57905 0.94357 0.0
Cd58 Cd 0.20259 0.63142 0.94329 0.0
O59 O 0.21297 0.52346 0.92655 0.0
O60 O 0.08037 0.53329 0.95224 0.0
O61 O 0.12391 0.56441 0.97787 0.0
C62 C 0.09112 0.5365 0.97345 0.0
C63 C 0.24198 0.67581 0.97264 0.0
C64 C 0.18745 0.47828 0.91847 0.0
C65 C 0.14414 0.73176 0.91856 0.0
O66 O 0.1781 0.71905 0.92314 0.0
O67 O 0.11882 0.68658 0.9268 0.0
O68 O 0.25216 0.67773 0.95133 0.0
O69 O 0.20943 0.64764 0.97749 0.0
O70 O 0.17631 0.48708 0.34409 0.0
Cd71 Cd 0.20309 0.5771 0.32584 0.0
Cd72 Cd 0.13172 0.64104 0.3259 0.0
O73 O 0.11913 0.53606 0.3438 0.0
O74 O 0.25163 0.52806 0.31688 0.0
O75 O 0.2101 0.57077 0.29138 0.0
C76 C 0.24187 0.53772 0.29565 0.0
C77 C 0.09276 0.68337 0.29601 0.0
C78 C 0.14246 0.48241 0.34999 0.0
C79 C 0.19228 0.73311 0.35116 0.0
O80 O 0.15846 0.729 0.3451 0.0
O81 O 0.2156 0.67972 0.34483 0.0
O82 O 0.0831 0.69084 0.31732 0.0
O83 O 0.12459 0.65114 0.29149 0.0
O84 O 0.92897 0.48485 0.09296 0.0
Cd85 Cd 0.95014 0.38973 0.07431 0.0
Cd86 Cd 0.87732 0.34118 0.07463 0.0
O87 O 0.87035 0.44505 0.09437 0.0
O88 O 1.0009 0.42786 0.06584 0.0
O89 O 0.95772 0.39779 0.03992 0.0
C90 C 0.99081 0.42339 0.04454 0.0
C91 C 0.83708 0.30738 0.04451 0.0
C92 C 0.89603 0.49417 0.10017 0.0
C93 C 0.93228 0.23663 0.09985 0.0
O94 O 0.89908 0.24583 0.09302 0.0
O95 O 0.95769 0.28594 0.09381 0.0
O96 O 0.82667 0.30272 0.06574 0.0
O97 O 0.87014 0.33363 0.04017 0.0
O98 O 0.90093 0.46855 0.67307 0.0
Cd99 Cd 0.87716 0.37966 0.69323 0.0
Cd100 Cd 0.95016 0.33001 0.69362 0.0
O101 O 0.96039 0.43866 0.67722 0.0
O102 O 0.82749 0.42301 0.70212 0.0
O103 O 0.87176 0.39527 0.72754 0.0
C104 C 0.83874 0.42179 0.72325 0.0
C105 C 0.98892 0.28609 0.7233 0.0
C106 C 0.93487 0.48275 0.66876 0.0
C107 C 0.8932 0.22788 0.66808 0.0
O108 O 0.92695 0.24213 0.67291 0.0
O109 O 0.86737 0.27149 0.67633 0.0
O110 O 0.99972 0.28518 0.70211 0.0
O111 O 0.95607 0.31297 0.72784 0.0
O112 O 0.657 -0.00673 0.92294 0.0
Cd113 Cd 0.62999 0.0819 0.94146 0.0
Cd114 Cd 0.70126 0.14689 0.94189 0.0
O115 O 0.71439 0.04134 0.92439 0.0
O116 O 0.58138 0.03175 0.95 0.0
O117 O 0.623 0.07185 0.97585 0.0
C118 C 0.59121 0.03905 0.97131 0.0
C119 C 0.73907 0.19095 0.97219 0.0
C120 C 0.69108 -0.01178 0.91766 0.0
C121 C 0.64114 0.2384 0.91631 0.0
O122 O 0.67502 0.23379 0.92219 0.0
O123 O 0.61761 0.18557 0.92286 0.0
O124 O 0.74963 0.19715 0.95102 0.0
O125 O 0.70691 0.15931 0.97633 0.0
O126 O 0.68809 0.02497 0.34795 0.0
Cd127 Cd 0.70219 0.10871 0.32318 0.0
Cd128 Cd 0.6306 0.11122 0.32138 0.0
O129 O 0.63381 -0.00703 0.33354 0.0
O130 O 0.75429 0.08335 0.31417 0.0
O131 O 0.70673 0.07622 0.28986 0.0
C132 C 0.74171 0.06651 0.29385 0.0
C133 C 0.59167 0.1517 0.2915 0.0
C134 C 0.65969 0.97924 0.34792 0.0
C135 C 0.6715 0.24191 0.34764 0.0
O136 O 0.64211 0.19953 0.34582 0.0
O137 O 0.69998 0.22477 0.33575 0.0
O138 O 0.57854 0.13283 0.3115 0.0
O139 O 0.62689 0.14391 0.28805 0.0
O140 O 0.43249 0.97858 0.09167 0.0
Cd141 Cd 0.45403 0.88328 0.07321 0.0
Cd142 Cd 0.38147 0.83467 0.073 0.0
O143 O 0.37383 0.93894 0.09233 0.0
O144 O 0.50442 0.92173 0.06388 0.0
O145 O 0.46021 0.89076 0.03871 0.0
C146 C 0.49338 0.91718 0.04274 0.0
C147 C 0.34172 0.79979 0.04281 0.0
C148 C 0.39931 -0.01193 0.09842 0.0
C149 C 0.43574 0.73071 0.09895 0.0
O150 O 0.40269 0.74009 0.09188 0.0
O151 O 0.46138 0.77953 0.09294 0.0
O152 O 0.33096 0.79619 0.06399 0.0
O153 O 0.37488 0.82563 0.03857 0.0
O154 O 0.39527 0.95396 0.67227 0.0
Cd155 Cd 0.38395 0.8671 0.6971 0.0
Cd156 Cd 0.45583 0.86404 0.69522 0.0
O157 O 0.45352 0.97884 0.68171 0.0
O158 O 0.33169 0.88888 0.70641 0.0
O159 O 0.37952 0.90147 0.73029 0.0
C160 C 0.34435 0.90869 0.72648 0.0
C161 C 0.49495 0.82374 0.72505 0.0
C162 C 0.42477 -0.00438 0.66997 0.0
C163 C 0.4131 0.73259 0.67143 0.0
O164 O 0.44169 0.77775 0.67119 0.0
O165 O 0.38709 0.74812 0.68552 0.0
O166 O 0.5078 0.83917 0.70473 0.0
O167 O 0.45994 0.83437 0.72875 0.0
O168 O 0.64052 0.51671 0.4224 0.0
Cd169 Cd 0.62701 0.60407 0.44664 0.0
Cd170 Cd 0.69879 0.60994 0.44644 0.0
O171 O 0.69768 0.49324 0.43421 0.0
O172 O 0.57518 0.57761 0.45591 0.0
O173 O 0.62314 0.57155 0.47995 0.0
C174 C 0.58819 0.56009 0.47607 0.0
C175 C 0.73873 0.65496 0.47532 0.0
C176 C 0.67006 0.47483 0.42165 0.0
C177 C 0.65634 0.73823 0.42122 0.0
O178 O 0.68496 0.69342 0.42161 0.0
O179 O 0.62965 0.72274 0.43481 0.0
O180 O 0.75095 0.63684 0.45505 0.0
O181 O 0.70387 0.64449 0.47958 0.0
O182 O 0.67562 0.49346 0.84346 0.0
Cd183 Cd 0.70258 0.58278 0.82505 0.0
Cd184 Cd 0.63122 0.64714 0.82504 0.0
O185 O 0.61823 0.54116 0.84242 0.0
O186 O 0.75095 0.53275 0.81615 0.0
O187 O 0.70942 0.57514 0.7906 0.0
C188 C 0.74108 0.54164 0.79491 0.0
C189 C 0.59297 0.69336 0.79526 0.0
C190 C 0.64162 0.48809 0.84895 0.0
C191 C 0.69186 0.73832 0.85053 0.0
O192 O 0.65794 0.73358 0.84474 0.0
O193 O 0.71532 0.68575 0.84385 0.0
O194 O 0.5828 0.69818 0.81653 0.0
O195 O 0.62477 0.6611 0.79068 0.0
O196 O 0.43856 0.44452 0.59776 0.0
Cd197 Cd 0.45128 0.36375 0.57202 0.0
Cd198 Cd 0.37975 0.36061 0.57156 0.0
O199 O 0.38397 0.47828 0.58421 0.0
O200 O 0.50319 0.38977 0.56275 0.0
O201 O 0.45481 0.4031 0.53928 0.0
C202 C 0.48996 0.4116 0.543 0.0
C203 C 0.34052 0.32161 0.5416 0.0
C204 C 0.41051 0.49096 0.59822 0.0
C205 C 0.42173 0.22748 0.59566 0.0
O206 O 0.39254 0.27066 0.59526 0.0
O207 O 0.44932 0.24573 0.5831 0.0
O208 O 0.32758 0.33872 0.56178 0.0
O209 O 0.3757 0.33038 0.53805 0.0
O210 O 0.40315 0.47223 0.17371 0.0
Cd211 Cd 0.37967 0.38305 0.19392 0.0
Cd212 Cd 0.45307 0.33378 0.19384 0.0
O213 O 0.46275 0.44289 0.1775 0.0
O214 O 0.32983 0.42564 0.20274 0.0
O215 O 0.37397 0.39811 0.22824 0.0
C216 C 0.34088 0.42404 0.2239 0.0
C217 C 0.49247 0.28768 0.22295 0.0
C218 C 0.43701 0.48674 0.1692 0.0
C219 C 0.39571 0.23175 0.16855 0.0
O220 O 0.42951 0.24626 0.17318 0.0
O221 O 0.36992 0.27504 0.17697 0.0
O222 O 0.50285 0.28843 0.20168 0.0
O223 O 0.45988 0.31502 0.22795 0.0
C224 C 0.32192 0.20863 0.5146 0.0
C225 C 0.31566 0.28829 0.52341 0.0
C226 C 0.25834 0.29808 0.5006 0.0
C227 C 0.26639 0.22157 0.49033 0.0
N228 N 0.30784 0.10787 0.48518 0.0
N229 N 0.28135 0.41418 0.52237 0.0
C230 C 0.29888 0.17817 0.49657 0.0
C231 C 0.28467 0.33439 0.51584 0.0
N232 N 0.34855 0.16023 0.52434 0.0
N233 N 0.22548 0.336 0.49582 0.0
H234 H 0.30046 0.44323 0.53315 0.0
H235 H 0.26165 0.4538 0.51557 0.0
H236 H 0.20624 0.31314 0.484 0.0
H237 H 0.21603 0.38706 0.5047 0.0
H238 H 0.35167 0.09864 0.52047 0.0
H239 H 0.36557 0.17932 0.53788 0.0
H240 H 0.33337 0.07892 0.48689 0.0
H241 H 0.29066 0.08103 0.47281 0.0
C242 C 0.05108 0.9006 0.51982 0.0
C243 C 1.0171 0.94183 0.52394 0.0
C244 C 1.0327 0.04395 0.49441 0.0
C245 C 0.06691 0.00355 0.49053 0.0
N246 N 0.10762 0.88961 0.49712 0.0
N247 N 0.97751 0.05832 0.51802 0.0
C248 C 0.07601 0.93117 0.50276 0.0
C249 C 1.00823 0.01458 0.51182 0.0
N250 N 0.05948 0.83259 0.53247 0.0
N251 N 1.02345 0.11002 0.48118 0.0
H252 H 0.95885 0.03913 0.53064 0.0
H253 H 0.97154 0.11649 0.51193 0.0
H254 H 0.04167 0.13703 0.46947 0.0
H255 H 0.99718 0.13604 0.48082 0.0
H256 H 0.08514 0.80387 0.53243 0.0
H257 H 1.04081 0.80534 0.54386 0.0
H258 H 0.11475 0.83274 0.50364 0.0
H259 H 0.12646 0.91017 0.48476 0.0
C260 C 0.32438 0.02263 0.75269 0.0
C261 C 0.31902 0.94204 0.74429 0.0
C262 C 0.26127 0.93086 0.76648 0.0
C263 C 0.26836 0.00858 0.77636 0.0
N264 N 0.30857 0.12488 0.7813 0.0
N265 N 0.28599 0.81427 0.74585 0.0
C266 C 0.3006 0.05325 0.77025 0.0
C267 C 0.28832 0.89483 0.75182 0.0
N268 N 0.35092 0.07154 0.74302 0.0
N269 N 0.22869 0.89139 0.77112 0.0
H270 H 0.30569 0.78531 0.73556 0.0
H271 H 0.26654 0.77413 0.75273 0.0
H272 H 0.20895 0.91375 0.78262 0.0
H273 H 0.21993 0.8393 0.76238 0.0
H274 H 0.35346 0.13353 0.74657 0.0
H275 H 0.36851 0.05221 0.72985 0.0
H276 H 0.33384 0.15516 0.77972 0.0
H277 H 0.29076 0.15168 0.79327 0.0
C278 C 0.04775 0.14059 0.75926 0.0
C279 C 0.06358 0.19579 0.77541 0.0
C280 C 1.02913 0.30967 0.75807 0.0
C281 C 1.01363 0.25479 0.74174 0.0
N282 N 1.00379 0.11783 0.72794 0.0
N283 N 0.07452 0.33348 0.78837 0.0
C284 C 1.02202 0.17015 0.74251 0.0
C285 C 0.0554 0.28046 0.77446 0.0
N286 N 0.05763 0.06009 0.75994 0.0
N287 N 1.01842 0.38967 0.75799 0.0
H288 H 0.09442 0.31474 0.80032 0.0
H289 H 0.07306 0.39661 0.78703 0.0
H290 H 1.00103 0.41445 0.74543 0.0
H291 H 1.02489 0.43102 0.77101 0.0
H292 H 0.05029 0.01723 0.74752 0.0
H293 H 0.07476 0.03577 0.77271 0.0
H294 H 1.00599 0.05471 0.72848 0.0
H295 H 0.98427 0.13719 0.71582 0.0
C296 C 0.82203 0.68082 0.51517 0.0
C297 C 0.81455 0.75843 0.52497 0.0
C298 C 0.75843 0.77026 0.50118 0.0
C299 C 0.76418 0.68972 0.49291 0.0
N300 N 0.79802 0.56331 0.49448 0.0
N301 N 0.77394 0.87385 0.52954 0.0
C302 C 0.7952 0.64375 0.50046 0.0
C303 C 0.78215 0.80209 0.51869 0.0
N304 N 0.85477 0.64239 0.51996 0.0
N305 N 0.7315 0.81788 0.49146 0.0
H306 H 0.79171 0.90158 0.54143 0.0
H307 H 0.74857 0.90346 0.52786 0.0
H308 H 0.71386 0.7974 0.47839 0.0
H309 H 0.72858 0.87984 0.49488 0.0
H310 H 0.86383 0.59053 0.51129 0.0
H311 H 0.87434 0.66538 0.53155 0.0
H312 H 0.81769 0.52385 0.50138 0.0
H313 H 0.77858 0.53367 0.48407 0.0
C314 C 0.78015 0.95191 0.27816 0.0
C315 C 0.76678 0.033 0.27595 0.0
C316 C 0.80531 0.05296 0.24153 0.0
C317 C 0.81642 0.96999 0.24271 0.0
N318 N 0.81036 0.83674 0.25986 0.0
N319 N 0.76266 0.15804 0.25425 0.0
C320 C 0.80294 0.91848 0.2605 0.0
C321 C 0.77806 0.08262 0.25717 0.0
N322 N 0.77104 0.90678 0.29718 0.0
N323 N 0.82216 0.10439 0.22617 0.0
H324 H 0.74393 0.18334 0.26593 0.0
H325 H 0.7664 0.19332 0.23949 0.0
H326 H 0.84279 0.08543 0.21477 0.0
H327 H 0.81825 0.16724 0.22605 0.0
H328 H 0.78352 0.8515 0.30133 0.0
H329 H 0.75241 0.92683 0.30968 0.0
H330 H 0.79795 0.7943 0.27077 0.0
H331 H 0.82674 0.80985 0.24715 0.0
C332 C 1.00962 0.69764 0.2554 0.0
C333 C 1.01792 0.77111 0.24353 0.0
C334 C 0.07716 0.78211 0.26432 0.0
C335 C 0.06767 0.71177 0.27735 0.0
N336 N 1.02372 0.60626 0.28716 0.0
N337 N 0.05645 0.88995 0.23864 0.0
C338 C 1.03346 0.67083 0.27349 0.0
C339 C 0.05096 0.81498 0.24843 0.0
N340 N 0.97991 0.65143 0.24861 0.0
N341 N 0.11122 0.8176 0.26715 0.0
H342 H 1.03772 0.9162 0.22709 0.0
H343 H 0.07785 0.92933 0.24329 0.0
H344 H 0.13032 0.79855 0.27955 0.0
H345 H 0.12164 0.86275 0.25632 0.0
H346 H 0.97468 0.5928 0.25466 0.0
H347 H 0.96177 0.669 0.23548 0.0
H348 H 0.99735 0.5804 0.28728 0.0
H349 H 0.04148 0.58086 0.29942 0.0
C350 C 0.28367 0.81288 0.01918 0.0
C351 C 0.31703 0.77034 0.02408 0.0
C352 C 0.30061 0.66466 0.99571 0.0
C353 C 0.26711 0.70682 0.99094 0.0
N354 N 0.22836 0.8253 0.99535 0.0
N355 N 0.35552 0.65127 0.01976 0.0
C356 C 0.25887 0.78179 1.00209 0.0
C357 C 0.32527 0.69542 0.01289 0.0
N358 N 0.27558 0.88251 0.03117 0.0
N359 N 0.30898 0.59554 0.98355 0.0
H360 H 0.37431 0.67161 0.0322 0.0
H361 H 0.36108 0.59207 0.01438 0.0
H362 H 0.29049 0.56771 0.97213 0.0
H363 H 0.33477 0.5673 0.98382 0.0
H364 H 0.25006 0.9118 0.03069 0.0
H365 H 0.2942 0.91007 0.04258 0.0
H366 H 0.22241 0.88415 1.00086 0.0
H367 H 0.20958 0.80452 0.98294 0.0
C368 C 0.05742 0.42288 0.9934 0.0
C369 C 0.06631 0.50723 0.99208 0.0
C370 C 1.02497 0.5363 0.02471 0.0
C371 C 1.01614 0.45194 0.02608 0.0
N372 N 1.02064 0.31528 0.01115 0.0
N373 N 0.06218 0.64364 1.00733 0.0
C374 C 1.0314 0.39528 0.01021 0.0
C375 C 0.05118 0.56376 1.00804 0.0
N376 N 0.0755 0.36888 0.97935 0.0
N377 N 1.00653 0.59061 0.03848 0.0
H378 H 0.07943 0.66713 0.99452 0.0
H379 H 0.05597 0.68637 0.02001 0.0
H380 H 0.98673 0.57307 0.05062 0.0
H381 H 1.00852 0.65362 0.03694 0.0
H382 H 0.07316 0.30586 0.98053 0.0
H383 H 0.09519 0.38675 0.96717 0.0
H384 H 1.0273 0.27183 0.99877 0.0
H385 H 1.00327 0.29225 0.02397 0.0
C386 C 0.28286 0.40875 0.24731 0.0
C387 C 0.31602 0.45241 0.24261 0.0
C388 C 0.30101 0.55099 0.27311 0.0
C389 C 0.26668 0.51037 0.27677 0.0
N390 N 0.22269 0.406 0.26601 0.0
N391 N 0.35439 0.57127 0.24826 0.0
C392 C 0.25686 0.44107 0.26336 0.0
C393 C 0.32462 0.52502 0.25485 0.0
N394 N 0.27709 0.3344 0.23718 0.0
N395 N 0.31106 0.61444 0.28713 0.0
H396 H 0.37233 0.55436 0.23499 0.0
H397 H 0.35983 0.62942 0.25463 0.0
H398 H 0.29349 0.63922 0.29957 0.0
H399 H 0.33752 0.63987 0.28736 0.0
H400 H 0.2556 0.29511 0.24166 0.0
H401 H 0.29568 0.30847 0.22552 0.0
H402 H 0.21206 0.36178 0.25492 0.0
H403 H 0.20372 0.42456 0.27851 0.0
C404 C 0.77127 0.30567 0.99279 0.0
C405 C 0.76337 0.2209 0.99112 0.0
C406 C 0.80425 0.1932 0.02419 0.0
C407 C 0.81224 0.27794 0.02581 0.0
N408 N 0.80698 0.41442 0.01086 0.0
N409 N 0.76908 0.08415 1.0059 0.0
C410 C 0.79681 0.33408 0.00984 0.0
C411 C 0.77887 0.16472 1.00708 0.0
N412 N 0.75264 0.35929 0.97888 0.0
N413 N 0.82276 0.1396 0.03819 0.0
H414 H 0.75268 0.06003 0.99271 0.0
H415 H 0.77556 0.04115 0.01845 0.0
H416 H 0.84195 0.15793 0.05065 0.0
H417 H 0.82136 0.07653 0.03664 0.0
H418 H 0.75406 0.42235 0.98047 0.0
H419 H 0.73327 0.34091 0.96653 0.0
H420 H 0.80039 0.45741 0.99833 0.0
H421 H 0.82395 0.43807 0.02385 0.0
C422 C 0.80005 0.55223 0.77209 0.0
C423 C 0.76558 0.51263 0.77607 0.0
C424 C 0.78095 0.409 0.747 0.0
C425 C 0.81425 0.45164 0.74196 0.0
N426 N 0.85326 0.56989 0.74693 0.0
N427 N 0.72101 0.40858 0.76599 0.0
C428 C 0.82334 0.5247 0.75385 0.0
C429 C 0.7553 0.44277 0.76302 0.0
N430 N 0.81057 0.61618 0.7858 0.0
N431 N 0.77472 0.33427 0.73721 0.0
H432 H 0.70228 0.42824 0.7785 0.0
H433 H 0.71005 0.36394 0.75517 0.0
H434 H 0.79305 0.30734 0.72557 0.0
H435 H 0.7531 0.29569 0.74194 0.0
H436 H 0.83715 0.641 0.78581 0.0
H437 H 0.79326 0.642 0.79821 0.0
H438 H 0.85904 0.62826 0.75302 0.0
H439 H 0.87098 0.55184 0.73367 0.0
C440 C 0.53244 0.04873 0.99421 0.0
C441 C 0.56663 0.00871 0.98996 0.0
C442 C 0.55165 0.90514 0.01927 0.0
C443 C 0.51774 0.94614 0.02378 0.0
N444 N 0.47796 0.06269 0.01845 0.0
N445 N 0.60784 0.89537 0.99615 0.0
C446 C 0.50849 0.01905 0.01186 0.0
C447 C 0.57618 0.9363 1.00205 0.0
N448 N 0.52269 0.11473 0.98109 0.0
N449 N 0.56033 0.83669 0.03166 0.0
H450 H 0.62634 0.9163 0.98365 0.0
H451 H 0.61544 0.83879 1.00266 0.0
H452 H 0.54193 0.80914 0.04315 0.0
H453 H 0.5859 0.80766 0.03124 0.0
H454 H 0.49633 0.14038 0.981 0.0
H455 H 0.54052 0.14196 0.96919 0.0
H456 H 0.47185 0.12097 0.0125 0.0
H457 H 0.4597 0.04336 0.03128 0.0
C458 C 0.51002 0.17553 0.25025 0.0
C459 C 0.5173 0.25403 0.24096 0.0
C460 C 0.57251 0.26682 0.26553 0.0
C461 C 0.56691 0.18575 0.27345 0.0
N462 N 0.53396 0.05811 0.27094 0.0
N463 N 0.5575 0.37096 0.23731 0.0
C464 C 0.53651 0.13885 0.26524 0.0
C465 C 0.54927 0.29848 0.24781 0.0
N466 N 0.47776 0.13602 0.24474 0.0
N467 N 0.59872 0.31517 0.27582 0.0
H468 H 0.54004 0.39864 0.22527 0.0
H469 H 0.58268 0.40122 0.23941 0.0
H470 H 0.61598 0.29501 0.2891 0.0
H471 H 0.60133 0.37739 0.27266 0.0
H472 H 0.46875 0.08315 0.25295 0.0
H473 H 0.45854 0.15893 0.23294 0.0
H474 H 0.51478 0.01816 0.26365 0.0
H475 H 0.5532 0.02891 0.28155 0.0
C476 C 0.51301 0.71185 0.75247 0.0
C477 C 0.51974 0.79083 0.7433 0.0
C478 C 0.57709 0.80094 0.76608 0.0
C479 C 0.56859 0.72522 0.77671 0.0
N480 N 0.52657 0.61242 0.7823 0.0
N481 N 0.55479 0.91608 0.74373 0.0
C482 C 0.53588 0.68198 0.77064 0.0
C483 C 0.551 0.83677 0.75065 0.0
N484 N 0.48603 0.66352 0.74297 0.0
N485 N 0.61014 0.8386 0.77073 0.0
H486 H 0.5359 0.9448 0.73278 0.0
H487 H 0.57471 0.95575 0.75035 0.0
H488 H 0.6292 0.81622 0.7827 0.0
H489 H 0.61991 0.88888 0.7616 0.0
H490 H 0.48251 0.60224 0.74712 0.0
H491 H 0.4691 0.68228 0.72937 0.0
H492 H 0.5009 0.58377 0.78071 0.0
H493 H 0.54364 0.58588 0.79475 0.0
C494 C 0.54224 0.40143 0.51468 0.0
C495 C 0.51455 0.44925 0.52551 0.0
C496 C 0.53452 0.56959 0.50352 0.0
C497 C 0.56373 0.52306 0.49378 0.0
N498 N 0.59789 0.39689 0.49121 0.0
N499 N 0.48735 0.58064 0.53321 0.0
C500 C 0.56844 0.43967 0.4998 0.0
C501 C 0.51135 0.53379 0.52065 0.0
N502 N 0.54238 0.31877 0.51787 0.0
N503 N 0.52887 0.64803 0.49634 0.0
H504 H 0.46983 0.55678 0.54584 0.0
H505 H 0.48664 0.64401 0.53246 0.0
H506 H 0.54675 0.67832 0.48508 0.0
H507 H 0.50542 0.68184 0.50049 0.0
H508 H 0.55911 0.27879 0.50864 0.0
H509 H 0.52351 0.28882 0.52857 0.0
H510 H 0.60557 0.33935 0.49705 0.0
H511 H 0.61623 0.42052 0.47902 0.0
C512 C 0.21028 0.87508 0.36176 0.0
C513 C 0.20275 0.79414 0.36869 0.0
C514 C 0.20228 0.83612 0.40931 0.0
C515 C 0.20331 0.91842 0.40206 0.0
N516 N 0.20822 0.01863 0.37164 0.0
N517 N 0.19232 0.69467 0.39868 0.0
C518 C 0.20813 0.9387 0.37837 0.0
C519 C 0.19966 0.77349 0.39243 0.0
N520 N 0.21928 0.89065 0.33926 0.0
N521 N 0.20383 0.81847 0.43237 0.0
H522 H 0.19175 0.64668 0.38686 0.0
H523 H 0.18514 0.67703 0.41535 0.0
H524 H 0.2059 0.8638 0.44497 0.0
H525 H 0.20631 0.75968 0.43894 0.0
H526 H 0.22835 0.94718 0.33335 0.0
H527 H 0.22078 0.84465 0.32683 0.0
H528 H 0.20691 0.03734 0.35449 0.0
H529 H 0.20763 0.06705 0.3833 0.0
C530 C 0.12422 0.37414 0.40667 0.0
C531 C 0.13176 0.29334 0.39968 0.0
C532 C 0.13267 0.33573 0.35912 0.0
C533 C 0.13168 0.41797 0.36645 0.0
N534 N 0.12676 0.51778 0.39699 0.0
N535 N 0.14235 0.1942 0.36966 0.0
C536 C 0.12667 0.43797 0.39014 0.0
C537 C 0.13508 0.27295 0.37595 0.0
N538 N 0.11498 0.38941 0.42914 0.0
N539 N 0.13124 0.31825 0.33604 0.0
H540 H 0.14267 0.14611 0.38145 0.0
H541 H 0.1497 0.17672 0.353 0.0
H542 H 0.1293 0.36365 0.32347 0.0
H543 H 0.12874 0.2595 0.32943 0.0
H544 H 0.10587 0.44583 0.43507 0.0
H545 H 0.11329 0.34325 0.44151 0.0
H546 H 0.12794 0.53618 0.41418 0.0
H547 H 0.12771 0.56643 0.38543 0.0
C548 C 0.17653 0.27611 0.88971 0.0
C549 C 0.19204 0.29181 0.86757 0.0
C550 C 0.2112 0.42784 0.88017 0.0
C551 C 0.19608 0.41123 0.90237 0.0
N552 N 0.17491 0.31299 0.93021 0.0
N553 N 0.23129 0.3737 0.8432 0.0
C554 C 0.18232 0.33289 0.90775 0.0
C555 C 0.21212 0.36452 0.86337 0.0
N556 N 0.15491 0.20873 0.89331 0.0
N557 N 0.22211 0.50518 0.87454 0.0
H558 H 0.23129 0.32954 0.83023 0.0
H559 H 0.24947 0.42188 0.84013 0.0
H560 H 0.22189 0.55356 0.88619 0.0
H561 H 0.22902 0.5229 0.85782 0.0
H562 H 0.13955 0.19938 0.9083 0.0
H563 H 0.14973 0.16505 0.88067 0.0
H564 H 0.1681 0.25423 0.93556 0.0
H565 H 0.17944 0.35359 0.94382 0.0
C566 C 0.1202 0.78206 0.8803 0.0
C567 C 0.13512 0.79881 0.90257 0.0
C568 C 0.1543 0.9343 0.89012 0.0
C569 C 0.13924 0.91825 0.86786 0.0
N570 N 0.10054 0.83591 0.84318 0.0
N571 N 0.15562 0.89713 0.93061 0.0
C572 C 0.11938 0.84532 0.8635 0.0
C573 C 0.14851 0.87734 0.90809 0.0
N574 N 0.10939 0.70465 0.87464 0.0
N575 N 0.17556 0.00215 0.89391 0.0
H576 H 0.15113 0.85626 0.94416 0.0
H577 H 0.16217 0.95595 0.93607 0.0
H578 H 0.18073 0.04591 0.88131 0.0
H579 H 0.19062 0.01191 0.90903 0.0
H580 H 0.10266 0.68676 0.85789 0.0
H581 H 0.10942 0.65644 0.88634 0.0
H582 H 0.08254 0.7875 0.83995 0.0
H583 H 0.10062 0.88007 0.83021 0.0
C584 C 0.87021 0.17784 0.62951 0.0
C585 C 0.88505 0.16099 0.65179 0.0
C586 C 0.90527 0.02669 0.63898 0.0
C587 C 0.89007 0.04265 0.61674 0.0
N588 N 0.85104 0.12441 0.59221 0.0
N589 N 0.90635 0.06275 0.67956 0.0
C590 C 0.86985 0.11505 0.61253 0.0
C591 C 0.89909 0.08293 0.65709 0.0
N592 N 0.85898 0.255 0.62402 0.0
N593 N 0.92687 0.95948 0.64264 0.0
H594 H 0.90155 0.10294 0.69321 0.0
H595 H 0.91333 0.00408 0.68487 0.0
H596 H 0.93215 0.91592 0.63 0.0
H597 H 0.94207 0.95004 0.6577 0.0
H598 H 0.85226 0.27315 0.6073 0.0
H599 H 0.85869 0.30288 0.63584 0.0
H600 H 0.83275 0.17221 0.58909 0.0
H601 H 0.8515 0.08079 0.57909 0.0
C602 C 0.9593 0.53291 0.63062 0.0
C603 C 0.94376 0.54974 0.65269 0.0
C604 C 0.9253 0.68532 0.63991 0.0
C605 C 0.9411 0.66921 0.61788 0.0
N606 N 0.98032 0.58655 0.59378 0.0
N607 N 0.9223 0.64806 0.68037 0.0
C608 C 0.96085 0.59614 0.61382 0.0
C609 C 0.93024 0.62825 0.65797 0.0
N610 N 0.97003 0.45541 0.6251 0.0
N611 N 0.90425 0.75346 0.64338 0.0
H612 H 0.92615 0.60722 0.69399 0.0
H613 H 0.91568 0.70687 0.68572 0.0
H614 H 0.8999 0.79758 0.63076 0.0
H615 H 0.88861 0.7633 0.65823 0.0
H616 H 0.97724 0.43749 0.60845 0.0
H617 H 0.96935 0.40711 0.63677 0.0
H618 H 0.9983 0.53807 0.59083 0.0
H619 H 0.98079 0.63064 0.5808 0.0
C620 C 0.90562 0.53594 0.14121 0.0
C621 C 0.88984 0.55258 0.11917 0.0
C622 C 0.87193 0.68887 0.13211 0.0
C623 C 0.88733 0.67143 0.1542 0.0
N624 N 0.90878 0.57248 0.18173 0.0
N625 N 0.8509 0.63617 0.09511 0.0
C626 C 0.90082 0.59276 0.15937 0.0
C627 C 0.8703 0.62599 0.11519 0.0
N628 N 0.92647 0.46742 0.14461 0.0
N629 N 0.86139 0.76658 0.12669 0.0
H630 H 0.85036 0.59232 0.08205 0.0
H631 H 0.83304 0.68491 0.09218 0.0
H632 H 0.86215 0.81466 0.13844 0.0
H633 H 0.85427 0.78491 0.11005 0.0
H634 H 0.94211 0.45712 0.15946 0.0
H635 H 0.9306 0.42337 0.13194 0.0
H636 H 0.91535 0.51353 0.187 0.0
H637 H 0.90504 0.61307 0.19543 0.0
C638 C 0.93101 0.13795 0.15903 0.0
C639 C 0.94509 0.05995 0.15369 0.0
C640 C 0.95959 0.10563 0.11436 0.0
C641 C 0.9394 0.178 0.11864 0.0
N642 N 0.9031 0.26149 0.14466 0.0
N643 N 0.97085 0.96587 0.12588 0.0
C644 C 0.92457 0.19413 0.14093 0.0
C645 C 0.9596 0.04301 0.13137 0.0
N646 N 0.924 0.15812 0.18152 0.0
N647 N 0.97805 0.09616 0.09395 0.0
H648 H 0.97146 0.91815 0.13774 0.0
H649 H 0.97731 0.94757 0.10914 0.0
H650 H 0.9773 0.1396 0.0808 0.0
H651 H 0.99634 0.04843 0.09077 0.0
H652 H 0.91701 0.21674 0.18686 0.0
H653 H 0.92899 0.11794 0.19516 0.0
H654 H 0.88814 0.27111 0.15978 0.0
H655 H 0.89772 0.30507 0.13204 0.0
C656 C 0.71005 0.88013 0.8611 0.0
C657 C 0.70238 0.79928 0.86806 0.0
C658 C 0.70117 0.84169 0.90862 0.0
C659 C 0.70228 0.92391 0.90129 0.0
N660 N 0.70776 0.02379 0.87083 0.0
N661 N 0.69159 0.70005 0.89805 0.0
C662 C 0.70757 0.94394 0.87764 0.0
C663 C 0.69891 0.77887 0.89179 0.0
N664 N 0.71943 0.89542 0.83865 0.0
N665 N 0.70231 0.82431 0.93171 0.0
H666 H 0.69136 0.65196 0.88625 0.0
H667 H 0.68416 0.68248 0.91468 0.0
H668 H 0.70411 0.86979 0.94428 0.0
H669 H 0.70467 0.76561 0.93835 0.0
H670 H 0.72858 0.95189 0.83274 0.0
H671 H 0.72116 0.84926 0.82628 0.0
H672 H 0.70681 0.04231 0.85365 0.0
H673 H 0.7069 0.07234 0.88244 0.0
C674 C 0.62319 0.3802 0.90567 0.0
C675 C 0.6308 0.29933 0.89875 0.0
C676 C 0.63182 0.34143 0.85814 0.0
C677 C 0.6307 0.42373 0.86541 0.0
N678 N 0.62555 0.52378 0.89586 0.0
N679 N 0.64163 0.20004 0.86878 0.0
C680 C 0.6256 0.44389 0.88908 0.0
C681 C 0.63423 0.27879 0.87502 0.0
N682 N 0.61388 0.39564 0.92811 0.0
N683 N 0.63054 0.32378 0.83508 0.0
H684 H 0.64201 0.15203 0.8806 0.0
H685 H 0.64905 0.18248 0.85215 0.0
H686 H 0.62862 0.36908 0.82247 0.0
H687 H 0.62813 0.26496 0.82849 0.0
H688 H 0.60473 0.45208 0.93399 0.0
H689 H 0.6122 0.3496 0.94052 0.0
H690 H 0.62666 0.54238 0.91304 0.0
H691 H 0.6264 0.57229 0.88425 0.0
C692 C 0.67837 0.38554 0.3617 0.0
C693 C 0.67435 0.30149 0.3666 0.0
C694 C 0.66885 0.33045 0.408 0.0
C695 C 0.67417 0.41409 0.40317 0.0
N696 N 0.69115 0.52095 0.37653 0.0
N697 N 0.67425 0.19145 0.39437 0.0
C698 C 0.68119 0.44156 0.38032 0.0
C699 C 0.67205 0.27312 0.38977 0.0
N700 N 0.67788 0.41202 0.3393 0.0
N701 N 0.65963 0.30619 0.42985 0.0
H702 H 0.67732 0.14744 0.38151 0.0
H703 H 0.67648 0.16763 0.41097 0.0
H704 H 0.65814 0.34655 0.44376 0.0
H705 H 0.65103 0.24728 0.43391 0.0
H706 H 0.67647 0.47322 0.33464 0.0
H707 H 0.67614 0.37242 0.32523 0.0
H708 H 0.70032 0.54281 0.36066 0.0
H709 H 0.69329 0.56388 0.38977 0.0
C710 C 0.62143 0.82636 0.39206 0.0
C711 C 0.65471 0.80511 0.40388 0.0
C712 C 0.68984 0.88096 0.37515 0.0
C713 C 0.65674 0.91448 0.3659 0.0
N714 N 0.5906 0.9353 0.3719 0.0
N715 N 0.71918 0.84001 0.41056 0.0
C716 C 0.62224 0.89219 0.37612 0.0
C717 C 0.6885 0.84133 0.39671 0.0
N718 N 0.58953 0.78252 0.39486 0.0
N719 N 0.72237 0.88367 0.36315 0.0
H720 H 0.71852 0.81833 0.4275 0.0
H721 H 0.74364 0.87031 0.40619 0.0
H722 H 0.72388 0.90399 0.34613 0.0
H723 H 0.74643 0.85522 0.36905 0.0
H724 H 0.56589 0.79341 0.38493 0.0
H725 H 0.58773 0.7297 0.40473 0.0
H726 H 0.56586 0.9234 0.3806 0.0
H727 H 0.58989 -0.01106 0.36233 0.0
C728 C 0.37275 0.18204 0.12999 0.0
C729 C 0.38743 0.16496 0.15228 0.0
C730 C 0.40729 0.03035 0.13953 0.0
C731 C 0.39235 0.04666 0.11725 0.0
N732 N 0.35377 0.12904 0.0926 0.0
N733 N 0.40832 0.06652 0.18011 0.0
C734 C 0.37237 0.11935 0.11299 0.0
C735 C 0.40122 0.08672 0.15762 0.0
N736 N 0.36167 0.25934 0.12452 0.0
N737 N 0.42856 0.96265 0.14324 0.0
H738 H 0.40362 0.10687 0.19375 0.0
H739 H 0.4151 0.00777 0.18546 0.0
H740 H 0.43371 0.91898 0.13061 0.0
H741 H 0.44359 0.95281 0.15836 0.0
H742 H 0.35508 0.27769 0.10779 0.0
H743 H 0.36133 0.30707 0.13638 0.0
H744 H 0.33564 0.17709 0.08943 0.0
H745 H 0.35423 0.08547 0.07947 0.0
C746 C 0.43183 0.63198 0.15814 0.0
C747 C 0.44547 0.55349 0.15293 0.0
C748 C 0.46198 0.59922 0.1139 0.0
C749 C 0.44224 0.67233 0.11793 0.0
N750 N 0.40555 0.75681 0.14346 0.0
N751 N 0.47137 0.45872 0.12533 0.0
C752 C 0.42662 0.68869 0.14 0.0
C753 C 0.46069 0.53629 0.1308 0.0
N754 N 0.42409 0.65219 0.18053 0.0
N755 N 0.48123 0.58931 0.09378 0.0
H756 H 0.47084 0.41059 0.13705 0.0
H757 H 0.47834 0.44054 0.10866 0.0
H758 H 0.48149 0.6331 0.08072 0.0
H759 H 0.49923 0.54086 0.09084 0.0
H760 H 0.41742 0.71106 0.18581 0.0
H761 H 0.42814 0.61167 0.19421 0.0
H762 H 0.39003 0.7668 0.15835 0.0
H763 H 0.40107 0.80076 0.13081 0.0
C764 C 0.37605 0.64496 0.64312 0.0
C765 C 0.41022 0.66605 0.654 0.0
C766 C 0.44294 0.58988 0.62425 0.0
C767 C 0.40909 0.55618 0.61611 0.0
N768 N 0.34337 0.53626 0.62384 0.0
N769 N 0.47516 0.63174 0.65864 0.0
C770 C 0.37546 0.57894 0.62723 0.0
C771 C 0.44339 0.63001 0.64578 0.0
N772 N 0.34457 0.68934 0.64665 0.0
N773 N 0.47446 0.58666 0.61125 0.0
H774 H 0.47591 0.65359 0.67556 0.0
H775 H 0.49922 0.60153 0.65352 0.0
H776 H 0.47465 0.56558 0.59425 0.0
H777 H 0.49903 0.61524 0.61633 0.0
H778 H 0.32021 0.67841 0.63741 0.0
H779 H 0.34374 0.74276 0.65631 0.0
H780 H 0.31932 0.54837 0.63321 0.0
H781 H 0.34174 0.48292 0.61416 0.0
C782 C 0.43469 0.19412 0.6368 0.0
C783 C 0.426 0.16673 0.61414 0.0
C784 C 0.42312 0.02611 0.62778 0.0
C785 C 0.42709 0.0547 0.65085 0.0
N786 N 0.43313 0.16562 0.6779 0.0
N787 N 0.40867 0.05925 0.58794 0.0
C788 C 0.43224 0.13862 0.65555 0.0
C789 C 0.41943 0.08334 0.60955 0.0
N790 N 0.44586 0.27291 0.6403 0.0
N791 N 0.42424 0.94429 0.62324 0.0
H792 H 0.4068 0.09951 0.57403 0.0
H793 H 0.39921 0.00074 0.58413 0.0
H794 H 0.42772 0.90033 0.63607 0.0
H795 H 0.42519 0.92013 0.60662 0.0
H796 H 0.45626 0.29435 0.65595 0.0
H797 H 0.44777 0.31552 0.62699 0.0
H798 H 0.43256 0.227 0.68246 0.0
H799 H 0.43161 0.12649 0.69206 0.0
loop_
_geom_bond_atom_site_label_1
_geom_bond_atom_site_label_2
_geom_bond_distance
_geom_bond_site_symmetry_2
_ccdc_geom_bond_type
O0 Cd1 2.223 . S
O0 C8 1.315 . S
Cd1 O0 2.223 . S
Cd1 O4 2.297 . S
Cd1 O5 2.439 . S
Cd1 O11 2.240 . S
Cd2 O3 2.240 . S
Cd2 O10 2.223 . S
Cd2 O12 2.297 . S
Cd2 O13 2.439 . S
O3 Cd2 2.240 . S
O3 C8 1.279 . S
O4 Cd1 2.297 . S
O4 C6 1.247 . S
O5 Cd1 2.439 . S
O5 C6 1.208 . S
C6 O4 1.247 . S
C6 O5 1.208 . S
C7 O12 1.247 . S
C7 O13 1.208 . S
C8 O0 1.315 . S
C8 O3 1.279 . S
C9 O10 1.315 . S
C9 O11 1.279 . S
O10 Cd2 2.223 . S
O10 C9 1.315 . S
O11 Cd1 2.240 . S
O11 C9 1.279 . S
O12 Cd2 2.297 . S
O12 C7 1.247 . S
O13 Cd2 2.439 . S
O13 C7 1.208 . S
O14 Cd15 2.223 . S
O14 C22 1.315 . S
Cd15 O14 2.223 . S
Cd15 O18 2.297 . S
Cd15 O19 2.439 . S
Cd15 O25 2.240 . S
Cd16 O17 2.240 . S
Cd16 O24 2.223 . S
Cd16 O26 2.297 . S
Cd16 O27 2.439 . S
O17 Cd16 2.240 . S
O17 C22 1.279 . S
O18 Cd15 2.297 . S
O18 C20 1.247 . S
O19 Cd15 2.439 . S
O19 C20 1.208 . S
C20 O18 1.247 . S
C20 O19 1.208 . S
C21 O26 1.247 . S
C21 O27 1.208 . S
C22 O14 1.315 . S
C22 O17 1.279 . S
C23 O24 1.315 . S
C23 O25 1.279 . S
O24 Cd16 2.223 . S
O24 C23 1.315 . S
O25 Cd15 2.240 . S
O25 C23 1.279 . S
O26 Cd16 2.297 . S
O26 C21 1.247 . S
O27 Cd16 2.439 . S
O27 C21 1.208 . S
O28 Cd29 2.223 . S
O28 C36 1.315 . S
Cd29 O28 2.223 . S
Cd29 O32 2.297 . S
Cd29 O33 2.439 . S
Cd29 O39 2.240 . S
Cd30 O31 2.240 . S
Cd30 O38 2.223 . S
Cd30 O40 2.297 . S
Cd30 O41 2.439 . S
O31 Cd30 2.240 . S
O31 C36 1.279 . S
O32 Cd29 2.297 . S
O32 C34 1.247 . S
O33 Cd29 2.439 . S
O33 C34 1.208 . S
C34 O32 1.247 . S
C34 O33 1.208 . S
C35 O40 1.247 . S
C35 O41 1.208 . S
C36 O28 1.315 . S
C36 O31 1.279 . S
C37 O38 1.315 . S
C37 O39 1.279 . S
O38 Cd30 2.223 . S
O38 C37 1.315 . S
O39 Cd29 2.240 . S
O39 C37 1.279 . S
O40 Cd30 2.297 . S
O40 C35 1.247 . S
O41 Cd30 2.439 . S
O41 C35 1.208 . S
O42 Cd43 2.223 . S
O42 C50 1.315 . S
Cd43 O42 2.223 . S
Cd43 O46 2.297 . S
Cd43 O47 2.439 . S
Cd43 O53 2.240 . S
Cd44 O45 2.240 . S
Cd44 O52 2.223 . S
Cd44 O54 2.297 . S
Cd44 O55 2.439 . S
O45 Cd44 2.240 . S
O45 C50 1.279 . S
O46 Cd43 2.297 . S
O46 C48 1.247 . S
O47 Cd43 2.439 . S
O47 C48 1.208 . S
C48 O46 1.247 . S
C48 O47 1.208 . S
C49 O54 1.247 . S
C49 O55 1.208 . S
C50 O42 1.315 . S
C50 O45 1.279 . S
C51 O52 1.315 . S
C51 O53 1.279 . S
O52 Cd44 2.223 . S
O52 C51 1.315 . S
O53 Cd43 2.240 . S
O53 C51 1.279 . S
O54 Cd44 2.297 . S
O54 C49 1.247 . S
O55 Cd44 2.439 . S
O55 C49 1.208 . S
O56 Cd57 2.223 . S
O56 C64 1.315 . S
Cd57 O56 2.223 . S
Cd57 O60 2.297 . S
Cd57 O61 2.439 . S
Cd57 O67 2.240 . S
Cd58 O59 2.240 . S
Cd58 O66 2.223 . S
Cd58 O68 2.297 . S
Cd58 O69 2.439 . S
O59 Cd58 2.240 . S
O59 C64 1.279 . S
O60 Cd57 2.297 . S
O60 C62 1.247 . S
O61 Cd57 2.439 . S
O61 C62 1.208 . S
C62 O60 1.247 . S
C62 O61 1.208 . S
C63 O68 1.247 . S
C63 O69 1.208 . S
C64 O56 1.315 . S
C64 O59 1.279 . S
C65 O66 1.315 . S
C65 O67 1.279 . S
O66 Cd58 2.223 . S
O66 C65 1.315 . S
O67 Cd57 2.240 . S
O67 C65 1.279 . S
O68 Cd58 2.297 . S
O68 C63 1.247 . S
O69 Cd58 2.439 . S
O69 C63 1.208 . S
O70 Cd71 2.223 . S
O70 C78 1.315 . S
Cd71 O70 2.223 . S
Cd71 O74 2.297 . S
Cd71 O75 2.439 . S
Cd71 O81 2.240 . S
Cd72 O73 2.240 . S
Cd72 O80 2.223 . S
Cd72 O82 2.297 . S
Cd72 O83 2.439 . S
O73 Cd72 2.240 . S
O73 C78 1.279 . S
O74 Cd71 2.297 . S
O74 C76 1.247 . S
O75 Cd71 2.439 . S
O75 C76 1.208 . S
C76 O74 1.247 . S
C76 O75 1.208 . S
C77 O82 1.247 . S
C77 O83 1.208 . S
C78 O70 1.315 . S
C78 O73 1.279 . S
C79 O80 1.315 . S
C79 O81 1.279 . S
O80 Cd72 2.223 . S
O80 C79 1.315 . S
O81 Cd71 2.240 . S
O81 C79 1.279 . S
O82 Cd72 2.297 . S
O82 C77 1.247 . S
O83 Cd72 2.439 . S
O83 C77 1.208 . S
O84 Cd85 2.223 . S
O84 C92 1.315 . S
Cd85 O84 2.223 . S
Cd85 O88 2.297 . S
Cd85 O89 2.439 . S
Cd85 O95 2.240 . S
Cd86 O87 2.240 . S
Cd86 O94 2.223 . S
Cd86 O96 2.297 . S
Cd86 O97 2.439 . S
O87 Cd86 2.240 . S
O87 C92 1.279 . S
O88 Cd85 2.297 . S
O88 C90 1.247 . S
O89 Cd85 2.439 . S
O89 C90 1.208 . S
C90 O88 1.247 . S
C90 O89 1.208 . S
C91 O96 1.247 . S
C91 O97 1.208 . S
C92 O84 1.315 . S
C92 O87 1.279 . S
C93 O94 1.315 . S
C93 O95 1.279 . S
O94 Cd86 2.223 . S
O94 C93 1.315 . S
O95 Cd85 2.240 . S
O95 C93 1.279 . S
O96 Cd86 2.297 . S
O96 C91 1.247 . S
O97 Cd86 2.439 . S
O97 C91 1.208 . S
O98 Cd99 2.223 . S
O98 C106 1.315 . S
Cd99 O98 2.223 . S
Cd99 O102 2.297 . S
Cd99 O103 2.439 . S
Cd99 O109 2.240 . S
Cd100 O101 2.240 . S
Cd100 O108 2.223 . S
Cd100 O110 2.297 . S
Cd100 O111 2.439 . S
O101 Cd100 2.240 . S
O101 C106 1.279 . S
O102 Cd99 2.297 . S
O102 C104 1.247 . S
O103 Cd99 2.439 . S
O103 C104 1.208 . S
C104 O102 1.247 . S
C104 O103 1.208 . S
C105 O110 1.247 . S
C105 O111 1.208 . S
C106 O98 1.315 . S
C106 O101 1.279 . S
C107 O108 1.315 . S
C107 O109 1.279 . S
O108 Cd100 2.223 . S
O108 C107 1.315 . S
O109 Cd99 2.240 . S
O109 C107 1.279 . S
O110 Cd100 2.297 . S
O110 C105 1.247 . S
O111 Cd100 2.439 . S
O111 C105 1.208 . S
O112 Cd113 2.223 . S
O112 C120 1.315 . S
Cd113 O112 2.223 . S
Cd113 O116 2.297 . S
Cd113 O117 2.439 . S
Cd113 O123 2.240 . S
Cd114 O115 2.240 . S
Cd114 O122 2.223 . S
Cd114 O124 2.297 . S
Cd114 O125 2.439 . S
O115 Cd114 2.240 . S
O115 C120 1.279 . S
O116 Cd113 2.297 . S
O116 C118 1.247 . S
O117 Cd113 2.439 . S
O117 C118 1.208 . S
C118 O116 1.247 . S
C118 O117 1.208 . S
C119 O124 1.247 . S
C119 O125 1.208 . S
C120 O112 1.315 . S
C120 O115 1.279 . S
C121 O122 1.315 . S
C121 O123 1.279 . S
O122 Cd114 2.223 . S
O122 C121 1.315 . S
O123 Cd113 2.240 . S
O123 C121 1.279 . S
O124 Cd114 2.297 . S
O124 C119 1.247 . S
O125 Cd114 2.439 . S
O125 C119 1.208 . S
O126 Cd127 2.223 . S
O126 C134 1.315 . S
Cd127 O126 2.223 . S
Cd127 O130 2.297 . S
Cd127 O131 2.439 . S
Cd127 O137 2.240 . S
Cd128 O129 2.240 . S
Cd128 O136 2.223 . S
Cd128 O138 2.297 . S
Cd128 O139 2.439 . S
O129 Cd128 2.240 . S
O129 C134 1.279 . S
O130 Cd127 2.297 . S
O130 C132 1.247 . S
O131 Cd127 2.439 . S
O131 C132 1.208 . S
C132 O130 1.247 . S
C132 O131 1.208 . S
C133 O138 1.247 . S
C133 O139 1.208 . S
C134 O126 1.315 . S
C134 O129 1.279 . S
C135 O136 1.315 . S
C135 O137 1.279 . S
O136 Cd128 2.223 . S
O136 C135 1.315 . S
O137 Cd127 2.240 . S
O137 C135 1.279 . S
O138 Cd128 2.297 . S
O138 C133 1.247 . S
O139 Cd128 2.439 . S
O139 C133 1.208 . S
O140 Cd141 2.223 . S
O140 C148 1.315 . S
Cd141 O140 2.223 . S
Cd141 O144 2.297 . S
Cd141 O145 2.439 . S
Cd141 O151 2.240 . S
Cd142 O143 2.240 . S
Cd142 O150 2.223 . S
Cd142 O152 2.297 . S
Cd142 O153 2.439 . S
O143 Cd142 2.240 . S
O143 C148 1.279 . S
O144 Cd141 2.297 . S
O144 C146 1.247 . S
O145 Cd141 2.439 . S
O145 C146 1.208 . S
C146 O144 1.247 . S
C146 O145 1.208 . S
C147 O152 1.247 . S
C147 O153 1.208 . S
C148 O140 1.315 . S
C148 O143 1.279 . S
C149 O150 1.315 . S
C149 O151 1.279 . S
O150 Cd142 2.223 . S
O150 C149 1.315 . S
O151 Cd141 2.240 . S
O151 C149 1.279 . S
O152 Cd142 2.297 . S
O152 C147 1.247 . S
O153 Cd142 2.439 . S
O153 C147 1.208 . S
O154 Cd155 2.223 . S
O154 C162 1.315 . S
Cd155 O154 2.223 . S
Cd155 O158 2.297 . S
Cd155 O159 2.439 . S
Cd155 O165 2.240 . S
Cd156 O157 2.240 . S
Cd156 O164 2.223 . S
Cd156 O166 2.297 . S
Cd156 O167 2.439 . S
O157 Cd156 2.240 . S
O157 C162 1.279 . S
O158 Cd155 2.297 . S
O158 C160 1.247 . S
O159 Cd155 2.439 . S
O159 C160 1.208 . S
C160 O158 1.247 . S
C160 O159 1.208 . S
C161 O166 1.247 . S
C161 O167 1.208 . S
C162 O154 1.315 . S
C162 O157 1.279 . S
C163 O164 1.315 . S
C163 O165 1.279 . S
O164 Cd156 2.223 . S
O164 C163 1.315 . S
O165 Cd155 2.240 . S
O165 C163 1.279 . S
O166 Cd156 2.297 . S
O166 C161 1.247 . S
O167 Cd156 2.439 . S
O167 C161 1.208 . S
O168 Cd169 2.223 . S
O168 C176 1.315 . S
Cd169 O168 2.223 . S
Cd169 O172 2.297 . S
Cd169 O173 2.439 . S
Cd169 O179 2.240 . S
Cd170 O171 2.240 . S
Cd170 O178 2.223 . S
Cd170 O180 2.297 . S
Cd170 O181 2.439 . S
O171 Cd170 2.240 . S
O171 C176 1.279 . S
O172 Cd169 2.297 . S
O172 C174 1.247 . S
O173 Cd169 2.439 . S
O173 C174 1.208 . S
C174 O172 1.247 . S
C174 O173 1.208 . S
C175 O180 1.247 . S
C175 O181 1.208 . S
C176 O168 1.315 . S
C176 O171 1.279 . S
C177 O178 1.315 . S
C177 O179 1.279 . S
O178 Cd170 2.223 . S
O178 C177 1.315 . S
O179 Cd169 2.240 . S
O179 C177 1.279 . S
O180 Cd170 2.297 . S
O180 C175 1.247 . S
O181 Cd170 2.439 . S
O181 C175 1.208 . S
O182 Cd183 2.223 . S
O182 C190 1.315 . S
Cd183 O182 2.223 . S
Cd183 O186 2.297 . S
Cd183 O187 2.439 . S
Cd183 O193 2.240 . S
Cd184 O185 2.240 . S
Cd184 O192 2.223 . S
Cd184 O194 2.297 . S
Cd184 O195 2.439 . S
O185 Cd184 2.240 . S
O185 C190 1.279 . S
O186 Cd183 2.297 . S
O186 C188 1.247 . S
O187 Cd183 2.439 . S
O187 C188 1.208 . S
C188 O186 1.247 . S
C188 O187 1.208 . S
C189 O194 1.247 . S
C189 O195 1.208 . S
C190 O182 1.315 . S
C190 O185 1.279 . S
C191 O192 1.315 . S
C191 O193 1.279 . S
O192 Cd184 2.223 . S
O192 C191 1.315 . S
O193 Cd183 2.240 . S
O193 C191 1.279 . S
O194 Cd184 2.297 . S
O194 C189 1.247 . S
O195 Cd184 2.439 . S
O195 C189 1.208 . S
O196 Cd197 2.223 . S
O196 C204 1.315 . S
Cd197 O196 2.223 . S
Cd197 O200 2.297 . S
Cd197 O201 2.439 . S
Cd197 O207 2.240 . S
Cd198 O199 2.240 . S
Cd198 O206 2.223 . S
Cd198 O208 2.297 . S
Cd198 O209 2.439 . S
O199 Cd198 2.240 . S
O199 C204 1.279 . S
O200 Cd197 2.297 . S
O200 C202 1.247 . S
O201 Cd197 2.439 . S
O201 C202 1.208 . S
C202 O200 1.247 . S
C202 O201 1.208 . S
C203 O208 1.247 . S
C203 O209 1.208 . S
C204 O196 1.315 . S
C204 O199 1.279 . S
C205 O206 1.315 . S
C205 O207 1.279 . S
O206 Cd198 2.223 . S
O206 C205 1.315 . S
O207 Cd197 2.240 . S
O207 C205 1.279 . S
O208 Cd198 2.297 . S
O208 C203 1.247 . S
O209 Cd198 2.439 . S
O209 C203 1.208 . S
O210 Cd211 2.223 . S
O210 C218 1.315 . S
Cd211 O210 2.223 . S
Cd211 O214 2.297 . S
Cd211 O215 2.439 . S
Cd211 O221 2.240 . S
Cd212 O213 2.240 . S
Cd212 O220 2.223 . S
Cd212 O222 2.297 . S
Cd212 O223 2.439 . S
O213 Cd212 2.240 . S
O213 C218 1.279 . S
O214 Cd211 2.297 . S
O214 C216 1.247 . S
O215 Cd211 2.439 . S
O215 C216 1.208 . S
C216 O214 1.247 . S
C216 O215 1.208 . S
C217 O222 1.247 . S
C217 O223 1.208 . S
C218 O210 1.315 . S
C218 O213 1.279 . S
C219 O220 1.315 . S
C219 O221 1.279 . S
O220 Cd212 2.223 . S
O220 C219 1.315 . S
O221 Cd211 2.240 . S
O221 C219 1.279 . S
O222 Cd212 2.297 . S
O222 C217 1.247 . S
O223 Cd212 2.439 . S
O223 C217 1.208 . S
C224 C225 1.363 . S
C224 C230 1.379 . S
C224 N232 1.356 . S
C225 C224 1.363 . S
C225 C231 1.363 . S
C226 C227 1.363 . S
C226 C231 1.379 . S
C226 N233 1.356 . S
C227 C226 1.363 . S
C227 C230 1.363 . S
N228 C230 1.356 . S
N228 H240 0.984 . S
N228 H241 0.985 . S
N229 C231 1.356 . S
N229 H234 0.984 . S
N229 H235 0.985 . S
C230 C224 1.379 . S
C230 C227 1.363 . S
C230 N228 1.356 . S
C231 C225 1.363 . S
C231 C226 1.379 . S
C231 N229 1.356 . S
N232 C224 1.356 . S
N232 H238 0.984 . S
N232 H239 0.984 . S
N233 C226 1.356 . S
N233 H236 0.984 . S
N233 H237 0.985 . S
H234 N229 0.984 . S
H235 N229 0.985 . S
H236 N233 0.984 . S
H237 N233 0.985 . S
H238 N232 0.984 . S
H239 N232 0.984 . S
H240 N228 0.984 . S
H241 N228 0.985 . S
C242 C243 1.364 1_455 S
C242 C248 1.378 . S
C242 N250 1.356 1_455 S
C243 C242 1.364 1_655 S
C243 C249 1.363 1_565 S
C244 C245 1.364 1_655 S
C244 C249 1.378 . S
C244 N251 1.356 1_655 S
C245 C244 1.364 1_455 S
C245 C248 1.363 1_545 S
N246 C248 1.356 . S
N246 H258 0.984 . S
N246 H259 0.985 . S
N247 C249 1.356 . S
N247 H252 0.984 . S
N247 H253 0.985 . S
C248 C242 1.378 . S
C248 C245 1.363 1_565 S
C248 N246 1.356 . S
C249 C243 1.363 1_545 S
C249 C244 1.378 . S
C249 N247 1.356 . S
N250 C242 1.356 1_655 S
N250 H256 0.984 1_655 S
N250 H257 0.984 . S
N251 C244 1.356 1_455 S
N251 H254 0.984 . S
N251 H255 0.985 1_455 S
H252 N247 0.984 . S
H253 N247 0.985 . S
H254 N251 0.984 . S
H255 N251 0.985 1_655 S
H256 N250 0.984 1_455 S
H257 N250 0.984 . S
H258 N246 0.984 . S
H259 N246 0.985 . S
C260 C261 1.363 1_545 S
C260 C266 1.379 . S
C260 N268 1.356 . S
C261 C260 1.363 1_565 S
C261 C267 1.363 . S
C262 C263 1.363 1_565 S
C262 C267 1.379 . S
C262 N269 1.356 . S
C263 C262 1.363 1_545 S
C263 C266 1.363 . S
N264 C266 1.356 . S
N264 H276 0.984 . S
N264 H277 0.985 . S
N265 C267 1.356 . S
N265 H270 0.984 . S
N265 H271 0.985 . S
C266 C260 1.379 . S
C266 C263 1.363 . S
C266 N264 1.356 . S
C267 C261 1.363 . S
C267 C262 1.379 . S
C267 N265 1.356 . S
N268 C260 1.356 . S
N268 H274 0.984 . S
N268 H275 0.984 . S
N269 C262 1.356 . S
N269 H272 0.984 . S
N269 H273 0.985 . S
H270 N265 0.984 . S
H271 N265 0.985 . S
H272 N269 0.984 . S
H273 N269 0.985 . S
H274 N268 0.984 . S
H275 N268 0.984 . S
H276 N264 0.984 . S
H277 N264 0.985 . S
C278 C279 1.363 . S
C278 C284 1.379 1_455 S
C278 N286 1.356 . S
C279 C278 1.363 . S
C279 C285 1.363 . S
C280 C281 1.363 . S
C280 C285 1.379 1_655 S
C280 N287 1.356 . S
C281 C280 1.363 . S
C281 C284 1.363 . S
N282 C284 1.356 . S
N282 H294 0.984 1_655 S
N282 H295 0.985 . S
N283 C285 1.356 . S
N283 H288 0.984 . S
N283 H289 0.985 1_455 S
C284 C278 1.379 1_655 S
C284 C281 1.363 . S
C284 N282 1.356 . S
C285 C279 1.363 . S
C285 C280 1.379 1_455 S
C285 N283 1.356 . S
N286 C278 1.356 . S
N286 H292 0.984 . S
N286 H293 0.984 . S
N287 C280 1.356 . S
N287 H290 0.984 . S
N287 H291 0.985 . S
H288 N283 0.984 . S
H289 N283 0.985 1_655 S
H290 N287 0.984 . S
H291 N287 0.985 . S
H292 N286 0.984 . S
H293 N286 0.984 . S
H294 N282 0.984 1_455 S
H295 N282 0.985 . S
C296 C297 1.363 . S
C296 C302 1.379 . S
C296 N304 1.356 . S
C297 C296 1.363 . S
C297 C303 1.363 . S
C298 C299 1.363 . S
C298 C303 1.379 . S
C298 N305 1.356 . S
C299 C298 1.363 . S
C299 C302 1.363 . S
N300 C302 1.356 . S
N300 H312 0.984 . S
N300 H313 0.985 . S
N301 C303 1.356 . S
N301 H306 0.984 . S
N301 H307 0.985 . S
C302 C296 1.379 . S
C302 C299 1.363 . S
C302 N300 1.356 . S
C303 C297 1.363 . S
C303 C298 1.379 . S
C303 N301 1.356 . S
N304 C296 1.356 . S
N304 H310 0.984 . S
N304 H311 0.984 . S
N305 C298 1.356 . S
N305 H308 0.984 . S
N305 H309 0.985 . S
H306 N301 0.984 . S
H307 N301 0.985 . S
H308 N305 0.984 . S
H309 N305 0.985 . S
H310 N304 0.984 . S
H311 N304 0.984 . S
H312 N300 0.984 . S
H313 N300 0.985 . S
C314 C315 1.363 1_565 S
C314 C320 1.379 . S
C314 N322 1.356 . S
C315 C314 1.363 1_545 S
C315 C321 1.363 . S
C316 C317 1.363 1_545 S
C316 C321 1.379 . S
C316 N323 1.356 . S
C317 C316 1.363 1_565 S
C317 C320 1.363 . S
N318 C320 1.356 . S
N318 H330 0.984 . S
N318 H331 0.985 . S
N319 C321 1.356 . S
N319 H324 0.984 . S
N319 H325 0.985 . S
C320 C314 1.379 . S
C320 C317 1.363 . S
C320 N318 1.356 . S
C321 C315 1.363 . S
C321 C316 1.379 . S
C321 N319 1.356 . S
N322 C314 1.356 . S
N322 H328 0.984 . S
N322 H329 0.984 . S
N323 C316 1.356 . S
N323 H326 0.984 . S
N323 H327 0.985 . S
H324 N319 0.984 . S
H325 N319 0.985 . S
H326 N323 0.984 . S
H327 N323 0.985 . S
H328 N322 0.984 . S
H329 N322 0.984 . S
H330 N318 0.984 . S
H331 N318 0.985 . S
C332 C333 1.363 . S
C332 C338 1.379 1_655 S
C332 N340 1.356 . S
C333 C332 1.363 . S
C333 C339 1.363 . S
C334 C335 1.363 . S
C334 C339 1.379 1_455 S
C334 N341 1.356 . S
C335 C334 1.363 . S
C335 C338 1.363 . S
N336 C338 1.356 . S
N336 H348 0.984 . S
N336 H349 0.985 . S
N337 C339 1.356 . S
N337 H342 0.984 . S
N337 H343 0.985 . S
C338 C332 1.379 1_455 S
C338 C335 1.363 . S
C338 N336 1.356 . S
C339 C333 1.363 . S
C339 C334 1.379 1_655 S
C339 N337 1.356 . S
N340 C332 1.356 . S
N340 H346 0.984 . S
N340 H347 0.984 . S
N341 C334 1.356 . S
N341 H344 0.984 . S
N341 H345 0.985 . S
H342 N337 0.984 . S
H343 N337 0.985 . S
H344 N341 0.984 . S
H345 N341 0.985 . S
H346 N340 0.984 . S
H347 N340 0.984 . S
H348 N336 0.984 . S
H349 N336 0.985 . S
C350 C351 1.363 . S
C350 C356 1.379 . S
C350 N358 1.356 . S
C351 C350 1.363 . S
C351 C357 1.363 1_554 S
C352 C353 1.363 . S
C352 C357 1.379 . S
C352 N359 1.356 . S
C353 C352 1.363 . S
C353 C356 1.363 1_556 S
N354 C356 1.356 . S
N354 H366 0.984 . S
N354 H367 0.985 1_554 S
N355 C357 1.356 . S
N355 H360 0.984 1_556 S
N355 H361 0.985 . S
C356 C350 1.379 . S
C356 C353 1.363 1_554 S
C356 N354 1.356 . S
C357 C351 1.363 1_556 S
C357 C352 1.379 . S
C357 N355 1.356 . S
N358 C350 1.356 . S
N358 H364 0.984 . S
N358 H365 0.984 . S
N359 C352 1.356 . S
N359 H362 0.984 . S
N359 H363 0.985 . S
H360 N355 0.984 1_554 S
H361 N355 0.985 . S
H362 N359 0.984 . S
H363 N359 0.985 . S
H364 N358 0.984 . S
H365 N358 0.984 . S
H366 N354 0.984 . S
H367 N354 0.985 1_556 S
C368 C369 1.363 . S
C368 C374 1.379 1_455 S
C368 N376 1.356 . S
C369 C368 1.363 . S
C369 C375 1.363 1_556 S
C370 C371 1.363 . S
C370 C375 1.379 1_655 S
C370 N377 1.356 . S
C371 C370 1.363 . S
C371 C374 1.363 1_554 S
N372 C374 1.356 . S
N372 H384 0.984 . S
N372 H385 0.985 1_556 S
N373 C375 1.356 . S
N373 H378 0.984 1_554 S
N373 H379 0.985 . S
C374 C368 1.379 1_655 S
C374 C371 1.363 1_556 S
C374 N372 1.356 . S
C375 C369 1.363 1_554 S
C375 C370 1.379 1_455 S
C375 N373 1.356 . S
N376 C368 1.356 . S
N376 H382 0.984 . S
N376 H383 0.984 . S
N377 C370 1.356 . S
N377 H380 0.984 . S
N377 H381 0.985 . S
H378 N373 0.984 1_556 S
H379 N373 0.985 . S
H380 N377 0.984 . S
H381 N377 0.985 . S
H382 N376 0.984 . S
H383 N376 0.984 . S
H384 N372 0.984 . S
H385 N372 0.985 1_554 S
C386 C387 1.363 . S
C386 C392 1.379 . S
C386 N394 1.356 . S
C387 C386 1.363 . S
C387 C393 1.363 . S
C388 C389 1.363 . S
C388 C393 1.379 . S
C388 N395 1.356 . S
C389 C388 1.363 . S
C389 C392 1.363 . S
N390 C392 1.356 . S
N390 H402 0.984 . S
N390 H403 0.985 . S
N391 C393 1.356 . S
N391 H396 0.984 . S
N391 H397 0.985 . S
C392 C386 1.379 . S
C392 C389 1.363 . S
C392 N390 1.356 . S
C393 C387 1.363 . S
C393 C388 1.379 . S
C393 N391 1.356 . S
N394 C386 1.356 . S
N394 H400 0.984 . S
N394 H401 0.984 . S
N395 C388 1.356 . S
N395 H398 0.984 . S
N395 H399 0.985 . S
H396 N391 0.984 . S
H397 N391 0.985 . S
H398 N395 0.984 . S
H399 N395 0.985 . S
H400 N394 0.984 . S
H401 N394 0.984 . S
H402 N390 0.984 . S
H403 N390 0.985 . S
C404 C405 1.363 . S
C404 C410 1.379 . S
C404 N412 1.356 . S
C405 C404 1.363 . S
C405 C411 1.363 1_556 S
C406 C407 1.363 . S
C406 C411 1.379 . S
C406 N413 1.356 . S
C407 C406 1.363 . S
C407 C410 1.363 1_554 S
N408 C410 1.356 . S
N408 H420 0.984 . S
N408 H421 0.985 1_556 S
N409 C411 1.356 . S
N409 H414 0.984 1_554 S
N409 H415 0.985 . S
C410 C404 1.379 . S
C410 C407 1.363 1_556 S
C410 N408 1.356 . S
C411 C405 1.363 1_554 S
C411 C406 1.379 . S
C411 N409 1.356 . S
N412 C404 1.356 . S
N412 H418 0.984 . S
N412 H419 0.984 . S
N413 C406 1.356 . S
N413 H416 0.984 . S
N413 H417 0.985 . S
H414 N409 0.984 1_556 S
H415 N409 0.985 . S
H416 N413 0.984 . S
H417 N413 0.985 . S
H418 N412 0.984 . S
H419 N412 0.984 . S
H420 N408 0.984 . S
H421 N408 0.985 1_554 S
C422 C423 1.363 . S
C422 C428 1.379 . S
C422 N430 1.356 . S
C423 C422 1.363 . S
C423 C429 1.363 . S
C424 C425 1.363 . S
C424 C429 1.379 . S
C424 N431 1.356 . S
C425 C424 1.363 . S
C425 C428 1.363 . S
N426 C428 1.356 . S
N426 H438 0.984 . S
N426 H439 0.985 . S
N427 C429 1.356 . S
N427 H432 0.984 . S
N427 H433 0.985 . S
C428 C422 1.379 . S
C428 C425 1.363 . S
C428 N426 1.356 . S
C429 C423 1.363 . S
C429 C424 1.379 . S
C429 N427 1.356 . S
N430 C422 1.356 . S
N430 H436 0.984 . S
N430 H437 0.984 . S
N431 C424 1.356 . S
N431 H434 0.984 . S
N431 H435 0.985 . S
H432 N427 0.984 . S
H433 N427 0.985 . S
H434 N431 0.984 . S
H435 N431 0.985 . S
H436 N430 0.984 . S
H437 N430 0.984 . S
H438 N426 0.984 . S
H439 N426 0.985 . S
C440 C441 1.363 . S
C440 C446 1.379 . S
C440 N448 1.356 . S
C441 C440 1.363 . S
C441 C447 1.363 1_546 S
C442 C443 1.363 . S
C442 C447 1.379 . S
C442 N449 1.356 . S
C443 C442 1.363 . S
C443 C446 1.363 1_564 S
N444 C446 1.356 . S
N444 H456 0.984 . S
N444 H457 0.985 1_556 S
N445 C447 1.356 . S
N445 H450 0.984 1_554 S
N445 H451 0.985 . S
C446 C440 1.379 . S
C446 C443 1.363 1_546 S
C446 N444 1.356 . S
C447 C441 1.363 1_564 S
C447 C442 1.379 . S
C447 N445 1.356 . S
N448 C440 1.356 . S
N448 H454 0.984 . S
N448 H455 0.984 . S
N449 C442 1.356 . S
N449 H452 0.984 . S
N449 H453 0.985 . S
H450 N445 0.984 1_556 S
H451 N445 0.985 . S
H452 N449 0.984 . S
H453 N449 0.985 . S
H454 N448 0.984 . S
H455 N448 0.984 . S
H456 N444 0.984 . S
H457 N444 0.985 1_554 S
C458 C459 1.363 . S
C458 C464 1.379 . S
C458 N466 1.356 . S
C459 C458 1.363 . S
C459 C465 1.363 . S
C460 C461 1.363 . S
C460 C465 1.379 . S
C460 N467 1.356 . S
C461 C460 1.363 . S
C461 C464 1.363 . S
N462 C464 1.356 . S
N462 H474 0.984 . S
N462 H475 0.985 . S
N463 C465 1.356 . S
N463 H468 0.984 . S
N463 H469 0.985 . S
C464 C458 1.379 . S
C464 C461 1.363 . S
C464 N462 1.356 . S
C465 C459 1.363 . S
C465 C460 1.379 . S
C465 N463 1.356 . S
N466 C458 1.356 . S
N466 H472 0.984 . S
N466 H473 0.984 . S
N467 C460 1.356 . S
N467 H470 0.984 . S
N467 H471 0.985 . S
H468 N463 0.984 . S
H469 N463 0.985 . S
H470 N467 0.984 . S
H471 N467 0.985 . S
H472 N466 0.984 . S
H473 N466 0.984 . S
H474 N462 0.984 . S
H475 N462 0.985 . S
C476 C477 1.363 . S
C476 C482 1.379 . S
C476 N484 1.356 . S
C477 C476 1.363 . S
C477 C483 1.363 . S
C478 C479 1.363 . S
C478 C483 1.379 . S
C478 N485 1.356 . S
C479 C478 1.363 . S
C479 C482 1.363 . S
N480 C482 1.356 . S
N480 H492 0.984 . S
N480 H493 0.985 . S
N481 C483 1.356 . S
N481 H486 0.984 . S
N481 H487 0.985 . S
C482 C476 1.379 . S
C482 C479 1.363 . S
C482 N480 1.356 . S
C483 C477 1.363 . S
C483 C478 1.379 . S
C483 N481 1.356 . S
N484 C476 1.356 . S
N484 H490 0.984 . S
N484 H491 0.984 . S
N485 C478 1.356 . S
N485 H488 0.984 . S
N485 H489 0.985 . S
H486 N481 0.984 . S
H487 N481 0.985 . S
H488 N485 0.984 . S
H489 N485 0.985 . S
H490 N484 0.984 . S
H491 N484 0.984 . S
H492 N480 0.984 . S
H493 N480 0.985 . S
C494 C495 1.363 . S
C494 C500 1.379 . S
C494 N502 1.356 . S
C495 C494 1.363 . S
C495 C501 1.363 . S
C496 C497 1.363 . S
C496 C501 1.379 . S
C496 N503 1.356 . S
C497 C496 1.363 . S
C497 C500 1.363 . S
N498 C500 1.356 . S
N498 H510 0.984 . S
N498 H511 0.985 . S
N499 C501 1.356 . S
N499 H504 0.984 . S
N499 H505 0.985 . S
C500 C494 1.379 . S
C500 C497 1.363 . S
C500 N498 1.356 . S
C501 C495 1.363 . S
C501 C496 1.379 . S
C501 N499 1.356 . S
N502 C494 1.356 . S
N502 H508 0.984 . S
N502 H509 0.984 . S
N503 C496 1.356 . S
N503 H506 0.984 . S
N503 H507 0.985 . S
H504 N499 0.984 . S
H505 N499 0.985 . S
H506 N503 0.984 . S
H507 N503 0.985 . S
H508 N502 0.984 . S
H509 N502 0.984 . S
H510 N498 0.984 . S
H511 N498 0.985 . S
C512 C513 1.363 . S
C512 C518 1.379 . S
C512 N520 1.356 . S
C513 C512 1.363 . S
C513 C519 1.363 . S
C514 C515 1.363 . S
C514 C519 1.379 . S
C514 N521 1.356 . S
C515 C514 1.363 . S
C515 C518 1.363 . S
N516 C518 1.356 1_545 S
N516 H528 0.984 . S
N516 H529 0.985 . S
N517 C519 1.356 . S
N517 H522 0.984 . S
N517 H523 0.985 . S
C518 C512 1.379 . S
C518 C515 1.363 . S
C518 N516 1.356 1_565 S
C519 C513 1.363 . S
C519 C514 1.379 . S
C519 N517 1.356 . S
N520 C512 1.356 . S
N520 H526 0.984 . S
N520 H527 0.984 . S
N521 C514 1.356 . S
N521 H524 0.984 . S
N521 H525 0.985 . S
H522 N517 0.984 . S
H523 N517 0.985 . S
H524 N521 0.984 . S
H525 N521 0.985 . S
H526 N520 0.984 . S
H527 N520 0.984 . S
H528 N516 0.984 . S
H529 N516 0.985 . S
C530 C531 1.363 . S
C530 C536 1.379 . S
C530 N538 1.356 . S
C531 C530 1.363 . S
C531 C537 1.363 . S
C532 C533 1.363 . S
C532 C537 1.379 . S
C532 N539 1.356 . S
C533 C532 1.363 . S
C533 C536 1.363 . S
N534 C536 1.356 . S
N534 H546 0.984 . S
N534 H547 0.985 . S
N535 C537 1.356 . S
N535 H540 0.984 . S
N535 H541 0.985 . S
C536 C530 1.379 . S
C536 C533 1.363 . S
C536 N534 1.356 . S
C537 C531 1.363 . S
C537 C532 1.379 . S
C537 N535 1.356 . S
N538 C530 1.356 . S
N538 H544 0.984 . S
N538 H545 0.984 . S
N539 C532 1.356 . S
N539 H542 0.984 . S
N539 H543 0.985 . S
H540 N535 0.984 . S
H541 N535 0.985 . S
H542 N539 0.984 . S
H543 N539 0.985 . S
H544 N538 0.984 . S
H545 N538 0.984 . S
H546 N534 0.984 . S
H547 N534 0.985 . S
C548 C549 1.363 . S
C548 C554 1.379 . S
C548 N556 1.356 . S
C549 C548 1.363 . S
C549 C555 1.363 . S
C550 C551 1.363 . S
C550 C555 1.379 . S
C550 N557 1.356 . S
C551 C550 1.363 . S
C551 C554 1.363 . S
N552 C554 1.356 . S
N552 H564 0.984 . S
N552 H565 0.985 . S
N553 C555 1.356 . S
N553 H558 0.984 . S
N553 H559 0.985 . S
C554 C548 1.379 . S
C554 C551 1.363 . S
C554 N552 1.356 . S
C555 C549 1.363 . S
C555 C550 1.379 . S
C555 N553 1.356 . S
N556 C548 1.356 . S
N556 H562 0.984 . S
N556 H563 0.984 . S
N557 C550 1.356 . S
N557 H560 0.984 . S
N557 H561 0.985 . S
H558 N553 0.984 . S
H559 N553 0.985 . S
H560 N557 0.984 . S
H561 N557 0.985 . S
H562 N556 0.984 . S
H563 N556 0.984 . S
H564 N552 0.984 . S
H565 N552 0.985 . S
C566 C567 1.363 . S
C566 C572 1.379 . S
C566 N574 1.356 . S
C567 C566 1.363 . S
C567 C573 1.363 . S
C568 C569 1.363 . S
C568 C573 1.379 . S
C568 N575 1.356 1_565 S
C569 C568 1.363 . S
C569 C572 1.363 . S
N570 C572 1.356 . S
N570 H582 0.984 . S
N570 H583 0.985 . S
N571 C573 1.356 . S
N571 H576 0.984 . S
N571 H577 0.985 . S
C572 C566 1.379 . S
C572 C569 1.363 . S
C572 N570 1.356 . S
C573 C567 1.363 . S
C573 C568 1.379 . S
C573 N571 1.356 . S
N574 C566 1.356 . S
N574 H580 0.984 . S
N574 H581 0.984 . S
N575 C568 1.356 1_545 S
N575 H578 0.984 . S
N575 H579 0.985 . S
H576 N571 0.984 . S
H577 N571 0.985 . S
H578 N575 0.984 . S
H579 N575 0.985 . S
H580 N574 0.984 . S
H581 N574 0.984 . S
H582 N570 0.984 . S
H583 N570 0.985 . S
C584 C585 1.363 . S
C584 C590 1.379 . S
C584 N592 1.356 . S
C585 C584 1.363 . S
C585 C591 1.363 . S
C586 C587 1.363 . S
C586 C591 1.379 . S
C586 N593 1.356 . S
C587 C586 1.363 . S
C587 C590 1.363 . S
N588 C590 1.356 . S
N588 H600 0.984 . S
N588 H601 0.985 . S
N589 C591 1.356 . S
N589 H594 0.984 . S
N589 H595 0.985 . S
C590 C584 1.379 . S
C590 C587 1.363 . S
C590 N588 1.356 . S
C591 C585 1.363 . S
C591 C586 1.379 . S
C591 N589 1.356 . S
N592 C584 1.356 . S
N592 H598 0.984 . S
N592 H599 0.984 . S
N593 C586 1.356 . S
N593 H596 0.984 1_545 S
N593 H597 0.985 . S
H594 N589 0.984 . S
H595 N589 0.985 . S
H596 N593 0.984 1_565 S
H597 N593 0.985 . S
H598 N592 0.984 . S
H599 N592 0.984 . S
H600 N588 0.984 . S
H601 N588 0.985 . S
C602 C603 1.363 . S
C602 C608 1.379 . S
C602 N610 1.356 . S
C603 C602 1.363 . S
C603 C609 1.363 . S
C604 C605 1.363 . S
C604 C609 1.379 . S
C604 N611 1.356 . S
C605 C604 1.363 . S
C605 C608 1.363 . S
N606 C608 1.356 . S
N606 H618 0.984 . S
N606 H619 0.985 . S
N607 C609 1.356 . S
N607 H612 0.984 . S
N607 H613 0.985 . S
C608 C602 1.379 . S
C608 C605 1.363 . S
C608 N606 1.356 . S
C609 C603 1.363 . S
C609 C604 1.379 . S
C609 N607 1.356 . S
N610 C602 1.356 . S
N610 H616 0.984 . S
N610 H617 0.984 . S
N611 C604 1.356 . S
N611 H614 0.984 . S
N611 H615 0.985 . S
H612 N607 0.984 . S
H613 N607 0.985 . S
H614 N611 0.984 . S
H615 N611 0.985 . S
H616 N610 0.984 . S
H617 N610 0.984 . S
H618 N606 0.984 . S
H619 N606 0.985 . S
C620 C621 1.363 . S
C620 C626 1.379 . S
C620 N628 1.356 . S
C621 C620 1.363 . S
C621 C627 1.363 . S
C622 C623 1.363 . S
C622 C627 1.379 . S
C622 N629 1.356 . S
C623 C622 1.363 . S
C623 C626 1.363 . S
N624 C626 1.356 . S
N624 H636 0.984 . S
N624 H637 0.985 . S
N625 C627 1.356 . S
N625 H630 0.984 . S
N625 H631 0.985 . S
C626 C620 1.379 . S
C626 C623 1.363 . S
C626 N624 1.356 . S
C627 C621 1.363 . S
C627 C622 1.379 . S
C627 N625 1.356 . S
N628 C620 1.356 . S
N628 H634 0.984 . S
N628 H635 0.984 . S
N629 C622 1.356 . S
N629 H632 0.984 . S
N629 H633 0.985 . S
H630 N625 0.984 . S
H631 N625 0.985 . S
H632 N629 0.984 . S
H633 N629 0.985 . S
H634 N628 0.984 . S
H635 N628 0.984 . S
H636 N624 0.984 . S
H637 N624 0.985 . S
C638 C639 1.363 . S
C638 C644 1.379 . S
C638 N646 1.356 . S
C639 C638 1.363 . S
C639 C645 1.363 . S
C640 C641 1.363 . S
C640 C645 1.379 . S
C640 N647 1.356 . S
C641 C640 1.363 . S
C641 C644 1.363 . S
N642 C644 1.356 . S
N642 H654 0.984 . S
N642 H655 0.985 . S
N643 C645 1.356 1_565 S
N643 H648 0.984 . S
N643 H649 0.985 . S
C644 C638 1.379 . S
C644 C641 1.363 . S
C644 N642 1.356 . S
C645 C639 1.363 . S
C645 C640 1.379 . S
C645 N643 1.356 1_545 S
N646 C638 1.356 . S
N646 H652 0.984 . S
N646 H653 0.984 . S
N647 C640 1.356 . S
N647 H650 0.984 . S
N647 H651 0.985 . S
H648 N643 0.984 . S
H649 N643 0.985 . S
H650 N647 0.984 . S
H651 N647 0.985 . S
H652 N646 0.984 . S
H653 N646 0.984 . S
H654 N642 0.984 . S
H655 N642 0.985 . S
C656 C657 1.363 . S
C656 C662 1.379 . S
C656 N664 1.356 . S
C657 C656 1.363 . S
C657 C663 1.363 . S
C658 C659 1.363 . S
C658 C663 1.379 . S
C658 N665 1.356 . S
C659 C658 1.363 . S
C659 C662 1.363 . S
N660 C662 1.356 1_545 S
N660 H672 0.984 . S
N660 H673 0.985 . S
N661 C663 1.356 . S
N661 H666 0.984 . S
N661 H667 0.985 . S
C662 C656 1.379 . S
C662 C659 1.363 . S
C662 N660 1.356 1_565 S
C663 C657 1.363 . S
C663 C658 1.379 . S
C663 N661 1.356 . S
N664 C656 1.356 . S
N664 H670 0.984 . S
N664 H671 0.984 . S
N665 C658 1.356 . S
N665 H668 0.984 . S
N665 H669 0.985 . S
H666 N661 0.984 . S
H667 N661 0.985 . S
H668 N665 0.984 . S
H669 N665 0.985 . S
H670 N664 0.984 . S
H671 N664 0.984 . S
H672 N660 0.984 . S
H673 N660 0.985 . S
C674 C675 1.363 . S
C674 C680 1.379 . S
C674 N682 1.356 . S
C675 C674 1.363 . S
C675 C681 1.363 . S
C676 C677 1.363 . S
C676 C681 1.379 . S
C676 N683 1.356 . S
C677 C676 1.363 . S
C677 C680 1.363 . S
N678 C680 1.356 . S
N678 H690 0.984 . S
N678 H691 0.985 . S
N679 C681 1.356 . S
N679 H684 0.984 . S
N679 H685 0.985 . S
C680 C674 1.379 . S
C680 C677 1.363 . S
C680 N678 1.356 . S
C681 C675 1.363 . S
C681 C676 1.379 . S
C681 N679 1.356 . S
N682 C674 1.356 . S
N682 H688 0.984 . S
N682 H689 0.984 . S
N683 C676 1.356 . S
N683 H686 0.984 . S
N683 H687 0.985 . S
H684 N679 0.984 . S
H685 N679 0.985 . S
H686 N683 0.984 . S
H687 N683 0.985 . S
H688 N682 0.984 . S
H689 N682 0.984 . S
H690 N678 0.984 . S
H691 N678 0.985 . S
C692 C693 1.363 . S
C692 C698 1.379 . S
C692 N700 1.356 . S
C693 C692 1.363 . S
C693 C699 1.363 . S
C694 C695 1.363 . S
C694 C699 1.379 . S
C694 N701 1.356 . S
C695 C694 1.363 . S
C695 C698 1.363 . S
N696 C698 1.356 . S
N696 H708 0.984 . S
N696 H709 0.985 . S
N697 C699 1.356 . S
N697 H702 0.984 . S
N697 H703 0.985 . S
C698 C692 1.379 . S
C698 C695 1.363 . S
C698 N696 1.356 . S
C699 C693 1.363 . S
C699 C694 1.379 . S
C699 N697 1.356 . S
N700 C692 1.356 . S
N700 H706 0.984 . S
N700 H707 0.984 . S
N701 C694 1.356 . S
N701 H704 0.984 . S
N701 H705 0.985 . S
H702 N697 0.984 . S
H703 N697 0.985 . S
H704 N701 0.984 . S
H705 N701 0.985 . S
H706 N700 0.984 . S
H707 N700 0.984 . S
H708 N696 0.984 . S
H709 N696 0.985 . S
C710 C711 1.363 . S
C710 C716 1.379 . S
C710 N718 1.356 . S
C711 C710 1.363 . S
C711 C717 1.363 . S
C712 C713 1.363 . S
C712 C717 1.379 . S
C712 N719 1.356 . S
C713 C712 1.363 . S
C713 C716 1.363 . S
N714 C716 1.356 . S
N714 H726 0.984 . S
N714 H727 0.985 . S
N715 C717 1.356 . S
N715 H720 0.984 . S
N715 H721 0.985 . S
C716 C710 1.379 . S
C716 C713 1.363 . S
C716 N714 1.356 . S
C717 C711 1.363 . S
C717 C712 1.379 . S
C717 N715 1.356 . S
N718 C710 1.356 . S
N718 H724 0.984 . S
N718 H725 0.984 . S
N719 C712 1.356 . S
N719 H722 0.984 1_565 S
N719 H723 0.985 . S
H720 N715 0.984 . S
H721 N715 0.985 . S
H722 N719 0.984 1_545 S
H723 N719 0.985 . S
H724 N718 0.984 . S
H725 N718 0.984 . S
H726 N714 0.984 . S
H727 N714 0.985 . S
C728 C729 1.363 . S
C728 C734 1.379 . S
C728 N736 1.356 . S
C729 C728 1.363 . S
C729 C735 1.363 . S
C730 C731 1.363 . S
C730 C735 1.379 . S
C730 N737 1.356 1_545 S
C731 C730 1.363 . S
C731 C734 1.363 . S
N732 C734 1.356 . S
N732 H744 0.984 . S
N732 H745 0.985 . S
N733 C735 1.356 . S
N733 H738 0.984 . S
N733 H739 0.985 . S
C734 C728 1.379 . S
C734 C731 1.363 . S
C734 N732 1.356 . S
C735 C729 1.363 . S
C735 C730 1.379 . S
C735 N733 1.356 . S
N736 C728 1.356 . S
N736 H742 0.984 . S
N736 H743 0.984 . S
N737 C730 1.356 1_565 S
N737 H740 0.984 . S
N737 H741 0.985 . S
H738 N733 0.984 . S
H739 N733 0.985 . S
H740 N737 0.984 . S
H741 N737 0.985 . S
H742 N736 0.984 . S
H743 N736 0.984 . S
H744 N732 0.984 . S
H745 N732 0.985 . S
C746 C747 1.363 . S
C746 C752 1.379 . S
C746 N754 1.356 . S
C747 C746 1.363 . S
C747 C753 1.363 . S
C748 C749 1.363 . S
C748 C753 1.379 . S
C748 N755 1.356 . S
C749 C748 1.363 . S
C749 C752 1.363 . S
N750 C752 1.356 . S
N750 H762 0.984 . S
N750 H763 0.985 . S
N751 C753 1.356 . S
N751 H756 0.984 . S
N751 H757 0.985 . S
C752 C746 1.379 . S
C752 C749 1.363 . S
C752 N750 1.356 . S
C753 C747 1.363 . S
C753 C748 1.379 . S
C753 N751 1.356 . S
N754 C746 1.356 . S
N754 H760 0.984 . S
N754 H761 0.984 . S
N755 C748 1.356 . S
N755 H758 0.984 . S
N755 H759 0.985 . S
H756 N751 0.984 . S
H757 N751 0.985 . S
H758 N755 0.984 . S
H759 N755 0.985 . S
H760 N754 0.984 . S
H761 N754 0.984 . S
H762 N750 0.984 . S
H763 N750 0.985 . S
C764 C765 1.363 . S
C764 C770 1.379 . S
C764 N772 1.356 . S
C765 C764 1.363 . S
C765 C771 1.363 . S
C766 C767 1.363 . S
C766 C771 1.379 . S
C766 N773 1.356 . S
C767 C766 1.363 . S
C767 C770 1.363 . S
N768 C770 1.356 . S
N768 H780 0.984 . S
N768 H781 0.985 . S
N769 C771 1.356 . S
N769 H774 0.984 . S
N769 H775 0.985 . S
C770 C764 1.379 . S
C770 C767 1.363 . S
C770 N768 1.356 . S
C771 C765 1.363 . S
C771 C766 1.379 . S
C771 N769 1.356 . S
N772 C764 1.356 . S
N772 H778 0.984 . S
N772 H779 0.984 . S
N773 C766 1.356 . S
N773 H776 0.984 . S
N773 H777 0.985 . S
H774 N769 0.984 . S
H775 N769 0.985 . S
H776 N773 0.984 . S
H777 N773 0.985 . S
H778 N772 0.984 . S
H779 N772 0.984 . S
H780 N768 0.984 . S
H781 N768 0.985 . S
C782 C783 1.363 . S
C782 C788 1.379 . S
C782 N790 1.356 . S
C783 C782 1.363 . S
C783 C789 1.363 . S
C784 C785 1.363 . S
C784 C789 1.379 . S
C784 N791 1.356 1_545 S
C785 C784 1.363 . S
C785 C788 1.363 . S
N786 C788 1.356 . S
N786 H798 0.984 . S
N786 H799 0.985 . S
N787 C789 1.356 . S
N787 H792 0.984 . S
N787 H793 0.985 . S
C788 C782 1.379 . S
C788 C785 1.363 . S
C788 N786 1.356 . S
C789 C783 1.363 . S
C789 C784 1.379 . S
C789 N787 1.356 . S
N790 C782 1.356 . S
N790 H796 0.984 . S
N790 H797 0.984 . S
N791 C784 1.356 1_565 S
N791 H794 0.984 . S
N791 H795 0.985 . S
H792 N787 0.984 . S
H793 N787 0.985 . S
H794 N791 0.984 . S
H795 N791 0.985 . S
H796 N790 0.984 . S
H797 N790 0.984 . S
H798 N786 0.984 . S
H799 N786 0.985 . S
C225 C203 1.490 . S
C227 C7 1.490 . S
C243 C34 1.490 . S
C245 C6 1.490 . S
C261 C160 1.490 . S
C263 C20 1.490 . S
C279 C21 1.490 . S
C281 C105 1.490 . S
C297 C35 1.490 . S
C299 C175 1.490 . S
C315 C132 1.490 . S
C317 C48 1.490 . S
C333 C49 1.490 . S
C335 C77 1.490 . S
C351 C147 1.490 . S
C353 C63 1.490 . S
C369 C62 1.490 . S
C371 C90 1.490 . S
C387 C216 1.490 . S
C389 C76 1.490 . S
C405 C119 1.490 . S
C407 C91 1.490 . S
C423 C188 1.490 . S
C425 C104 1.490 . S
C441 C118 1.490 . S
C443 C146 1.490 . S
C459 C217 1.490 . S
C461 C133 1.490 . S
C477 C161 1.490 . S
C479 C189 1.490 . S
C495 C202 1.490 . S
C497 C174 1.490 . S
C513 C79 1.660 . S
C515 C8 1.660 1_565 S
C531 C9 1.660 . S
C533 C78 1.660 . S
C549 C23 1.660 . S
C551 C64 1.660 . S
C567 C65 1.660 . S
C569 C22 1.660 1_565 S
C585 C107 1.660 . S
C587 C36 1.660 1_545 S
C603 C106 1.660 . S
C605 C37 1.660 . S
C621 C92 1.660 . S
C623 C51 1.660 . S
C639 C50 1.660 1_545 S
C641 C93 1.660 . S
C657 C191 1.660 . S
C659 C120 1.660 1_565 S
C675 C121 1.660 . S
C677 C190 1.660 . S
C693 C135 1.660 . S
C695 C176 1.660 . S
C711 C177 1.660 . S
C713 C134 1.660 1_565 S
C729 C219 1.660 . S
C731 C148 1.660 1_545 S
C747 C218 1.660 . S
C749 C149 1.660 . S
C765 C163 1.660 . S
C767 C204 1.660 . S
C783 C205 1.660 . S
C785 C162 1.660 1_545 S
