# Generated by pormake.
# Topology umr, (4)-cn, num edge types: 1
# Building blocks:
#     Node 0, Type 0, BuildingBlock: GALJAG_clean_sbu_0, # of connection points: 4
#     Node 1, Type 0, BuildingBlock: GALJAG_clean_sbu_0, # of connection points: 4
#     Node 2, Type 0, BuildingBlock: GALJAG_clean_sbu_0, # of connection points: 4
#     Node 3, Type 0, BuildingBlock: GALJAG_clean_sbu_0, # of connection points: 4
#     Node 4, Type 0, BuildingBlock: GALJAG_clean_sbu_0, # of connection points: 4
#     Node 5, Type 0, BuildingBlock: GALJAG_clean_sbu_0, # of connection points: 4
#     Node 6, Type 0, BuildingBlock: GALJAG_clean_sbu_0, # of connection points: 4
#     Node 7, Type 0, BuildingBlock: GALJAG_clean_sbu_0, # of connection points: 4
#     Node 8, Type 0, BuildingBlock: GALJAG_clean_sbu_0, # of connection points: 4
#     Node 9, Type 0, BuildingBlock: GALJAG_clean_sbu_0, # of connection points: 4
#     Node 10, Type 0, BuildingBlock: GALJAG_clean_sbu_0, # of connection points: 4
#     Node 11, Type 0, BuildingBlock: GALJAG_clean_sbu_0, # of connection points: 4
#     Node 12, Type 0, BuildingBlock: GALJAG_clean_sbu_0, # of connection points: 4
#     Node 13, Type 0, BuildingBlock: GALJAG_clean_sbu_0, # of connection points: 4
#     Node 14, Type 0, BuildingBlock: GALJAG_clean_sbu_0, # of connection points: 4
#     Node 15, Type 0, BuildingBlock: GALJAG_clean_sbu_0, # of connection points: 4
#     Node 16, Type 0, BuildingBlock: GALJAG_clean_sbu_0, # of connection points: 4
#     Node 17, Type 0, BuildingBlock: GALJAG_clean_sbu_0, # of connection points: 4
#     Node 18, Type 0, BuildingBlock: GALJAG_clean_sbu_0, # of connection points: 4
#     Node 19, Type 0, BuildingBlock: GALJAG_clean_sbu_0, # of connection points: 4
#     Node 20, Type 0, BuildingBlock: GALJAG_clean_sbu_0, # of connection points: 4
#     Node 21, Type 0, BuildingBlock: GALJAG_clean_sbu_0, # of connection points: 4
#     Node 22, Type 0, BuildingBlock: GALJAG_clean_sbu_0, # of connection points: 4
#     Node 23, Type 0, BuildingBlock: GALJAG_clean_sbu_0, # of connection points: 4
#     Node 24, Type 0, BuildingBlock: GALJAG_clean_sbu_0, # of connection points: 4
#     Node 25, Type 0, BuildingBlock: GALJAG_clean_sbu_0, # of connection points: 4
#     Node 26, Type 0, BuildingBlock: GALJAG_clean_sbu_0, # of connection points: 4
#     Node 27, Type 0, BuildingBlock: GALJAG_clean_sbu_0, # of connection points: 4
#     Node 28, Type 0, BuildingBlock: GALJAG_clean_sbu_0, # of connection points: 4
#     Node 29, Type 0, BuildingBlock: GALJAG_clean_sbu_0, # of connection points: 4
#     Node 30, Type 0, BuildingBlock: GALJAG_clean_sbu_0, # of connection points: 4
#     Node 31, Type 0, BuildingBlock: GALJAG_clean_sbu_0, # of connection points: 4
#     Edge 32, Type (0, 0), BuildingBlock: TEMPAE_clean_linker_10, # of connection points: 2
#     Edge 33, Type (0, 0), BuildingBlock: TEMPAE_clean_linker_10, # of connection points: 2
#     Edge 34, Type (0, 0), BuildingBlock: TEMPAE_clean_linker_10, # of connection points: 2
#     Edge 35, Type (0, 0), BuildingBlock: TEMPAE_clean_linker_10, # of connection points: 2
#     Edge 36, Type (0, 0), BuildingBlock: TEMPAE_clean_linker_10, # of connection points: 2
#     Edge 37, Type (0, 0), BuildingBlock: TEMPAE_clean_linker_10, # of connection points: 2
#     Edge 38, Type (0, 0), BuildingBlock: TEMPAE_clean_linker_10, # of connection points: 2
#     Edge 39, Type (0, 0), BuildingBlock: TEMPAE_clean_linker_10, # of connection points: 2
#     Edge 40, Type (0, 0), BuildingBlock: TEMPAE_clean_linker_10, # of connection points: 2
#     Edge 41, Type (0, 0), BuildingBlock: TEMPAE_clean_linker_10, # of connection points: 2
#     Edge 42, Type (0, 0), BuildingBlock: TEMPAE_clean_linker_10, # of connection points: 2
#     Edge 43, Type (0, 0), BuildingBlock: TEMPAE_clean_linker_10, # of connection points: 2
#     Edge 44, Type (0, 0), BuildingBlock: TEMPAE_clean_linker_10, # of connection points: 2
#     Edge 45, Type (0, 0), BuildingBlock: TEMPAE_clean_linker_10, # of connection points: 2
#     Edge 46, Type (0, 0), BuildingBlock: TEMPAE_clean_linker_10, # of connection points: 2
#     Edge 47, Type (0, 0), BuildingBlock: TEMPAE_clean_linker_10, # of connection points: 2
#     Edge 48, Type (0, 0), BuildingBlock: TEMPAE_clean_linker_10, # of connection points: 2
#     Edge 49, Type (0, 0), BuildingBlock: TEMPAE_clean_linker_10, # of connection points: 2
#     Edge 50, Type (0, 0), BuildingBlock: TEMPAE_clean_linker_10, # of connection points: 2
#     Edge 51, Type (0, 0), BuildingBlock: TEMPAE_clean_linker_10, # of connection points: 2
#     Edge 52, Type (0, 0), BuildingBlock: TEMPAE_clean_linker_10, # of connection points: 2
#     Edge 53, Type (0, 0), BuildingBlock: TEMPAE_clean_linker_10, # of connection points: 2
#     Edge 54, Type (0, 0), BuildingBlock: TEMPAE_clean_linker_10, # of connection points: 2
#     Edge 55, Type (0, 0), BuildingBlock: TEMPAE_clean_linker_10, # of connection points: 2
#     Edge 56, Type (0, 0), BuildingBlock: TEMPAE_clean_linker_10, # of connection points: 2
#     Edge 57, Type (0, 0), BuildingBlock: TEMPAE_clean_linker_10, # of connection points: 2
#     Edge 58, Type (0, 0), BuildingBlock: TEMPAE_clean_linker_10, # of connection points: 2
#     Edge 59, Type (0, 0), BuildingBlock: TEMPAE_clean_linker_10, # of connection points: 2
#     Edge 60, Type (0, 0), BuildingBlock: TEMPAE_clean_linker_10, # of connection points: 2
#     Edge 61, Type (0, 0), BuildingBlock: TEMPAE_clean_linker_10, # of connection points: 2
#     Edge 62, Type (0, 0), BuildingBlock: TEMPAE_clean_linker_10, # of connection points: 2
#     Edge 63, Type (0, 0), BuildingBlock: TEMPAE_clean_linker_10, # of connection points: 2
#     Edge 64, Type (0, 0), BuildingBlock: TEMPAE_clean_linker_10, # of connection points: 2
#     Edge 65, Type (0, 0), BuildingBlock: TEMPAE_clean_linker_10, # of connection points: 2
#     Edge 66, Type (0, 0), BuildingBlock: TEMPAE_clean_linker_10, # of connection points: 2
#     Edge 67, Type (0, 0), BuildingBlock: TEMPAE_clean_linker_10, # of connection points: 2
#     Edge 68, Type (0, 0), BuildingBlock: TEMPAE_clean_linker_10, # of connection points: 2
#     Edge 69, Type (0, 0), BuildingBlock: TEMPAE_clean_linker_10, # of connection points: 2
#     Edge 70, Type (0, 0), BuildingBlock: TEMPAE_clean_linker_10, # of connection points: 2
#     Edge 71, Type (0, 0), BuildingBlock: TEMPAE_clean_linker_10, # of connection points: 2
#     Edge 72, Type (0, 0), BuildingBlock: TEMPAE_clean_linker_10, # of connection points: 2
#     Edge 73, Type (0, 0), BuildingBlock: TEMPAE_clean_linker_10, # of connection points: 2
#     Edge 74, Type (0, 0), BuildingBlock: TEMPAE_clean_linker_10, # of connection points: 2
#     Edge 75, Type (0, 0), BuildingBlock: TEMPAE_clean_linker_10, # of connection points: 2
#     Edge 76, Type (0, 0), BuildingBlock: TEMPAE_clean_linker_10, # of connection points: 2
#     Edge 77, Type (0, 0), BuildingBlock: TEMPAE_clean_linker_10, # of connection points: 2
#     Edge 78, Type (0, 0), BuildingBlock: TEMPAE_clean_linker_10, # of connection points: 2
#     Edge 79, Type (0, 0), BuildingBlock: TEMPAE_clean_linker_10, # of connection points: 2
#     Edge 80, Type (0, 0), BuildingBlock: TEMPAE_clean_linker_10, # of connection points: 2
#     Edge 81, Type (0, 0), BuildingBlock: TEMPAE_clean_linker_10, # of connection points: 2
#     Edge 82, Type (0, 0), BuildingBlock: TEMPAE_clean_linker_10, # of connection points: 2
#     Edge 83, Type (0, 0), BuildingBlock: TEMPAE_clean_linker_10, # of connection points: 2
#     Edge 84, Type (0, 0), BuildingBlock: TEMPAE_clean_linker_10, # of connection points: 2
#     Edge 85, Type (0, 0), BuildingBlock: TEMPAE_clean_linker_10, # of connection points: 2
#     Edge 86, Type (0, 0), BuildingBlock: TEMPAE_clean_linker_10, # of connection points: 2
#     Edge 87, Type (0, 0), BuildingBlock: TEMPAE_clean_linker_10, # of connection points: 2
#     Edge 88, Type (0, 0), BuildingBlock: TEMPAE_clean_linker_10, # of connection points: 2
#     Edge 89, Type (0, 0), BuildingBlock: TEMPAE_clean_linker_10, # of connection points: 2
#     Edge 90, Type (0, 0), BuildingBlock: TEMPAE_clean_linker_10, # of connection points: 2
#     Edge 91, Type (0, 0), BuildingBlock: TEMPAE_clean_linker_10, # of connection points: 2
#     Edge 92, Type (0, 0), BuildingBlock: TEMPAE_clean_linker_10, # of connection points: 2
#     Edge 93, Type (0, 0), BuildingBlock: TEMPAE_clean_linker_10, # of connection points: 2
#     Edge 94, Type (0, 0), BuildingBlock: TEMPAE_clean_linker_10, # of connection points: 2
#     Edge 95, Type (0, 0), BuildingBlock: TEMPAE_clean_linker_10, # of connection points: 2
# Relax obj value: 0.027
# Max RMSD: 0.060
# Mean RMSD: 0.060
data_MOF--net-umr--node1-GALJAG_clean_sbu_0--edge1-TEMPAE_clean_linker_10
_symmetry_space_group_name_H-M    P1
_symmetry_Int_Tables_number       1
_symmetry_cell_setting            triclinic
loop_
_symmetry_equiv_pos_as_xyz
'x, y, z'
_cell_length_a     81.299135
_cell_length_b     81.326229
_cell_length_c     28.412906
_cell_angle_alpha  90.003481
_cell_angle_beta   89.976977
_cell_angle_gamma 90.01601
loop_
_atom_site_label
_atom_site_type_symbol
_atom_site_fract_x
_atom_site_fract_y
_atom_site_fract_z
_atom_type_partial_charge
In0 In 0.14958 0.27999 0.01419 0.0
O1 O 0.13268 0.26375 0.0598 0.0
O2 O 0.1581 0.26466 0.0762 0.0
C3 C 0.14155 0.27169 0.92472 0.0
C4 C 0.13332 0.30556 0.05192 0.0
C5 C 0.18185 0.28582 0.00258 0.0
O6 O 0.14389 0.26103 0.95636 0.0
O7 O 0.14282 0.28633 0.93864 0.0
O8 O 0.17126 0.29715 1.00042 0.0
O9 O 0.1761 0.27164 0.00993 0.0
C10 C 0.14406 0.25941 0.08737 0.0
O11 O 0.12678 0.2959 0.02262 0.0
O12 O 0.1482 0.30259 0.06112 0.0
In13 In 0.96735 0.90912 0.29621 0.0
O14 O 0.94027 0.90227 0.30407 0.0
O15 O 0.95828 0.88395 0.31836 0.0
C16 C 0.9638 0.94173 0.28612 0.0
C17 C 0.98241 0.90773 0.38036 0.0
C18 C 0.97866 0.90141 0.20947 0.0
O19 O 0.95175 0.93196 0.28389 0.0
O20 O 0.97758 0.93506 0.29348 0.0
O21 O 0.98799 0.90174 0.24497 0.0
O22 O 0.9638 0.90448 0.21823 0.0
C23 C 0.94326 0.88774 0.31703 0.0
O24 O 0.9874 0.89945 0.34545 0.0
O25 O 0.97013 0.9168 0.37234 0.0
In26 In 0.34184 0.71875 0.52247 0.0
O27 O 0.34002 0.69503 0.56495 0.0
O28 O 0.36277 0.70061 0.53169 0.0
C29 C 0.30962 0.71592 0.50293 0.0
C30 C 0.34845 0.73736 0.59899 0.0
C31 C 0.35242 0.72842 0.43651 0.0
O32 O 0.31976 0.7046 0.49394 0.0
O33 O 0.31575 0.72864 0.5213 0.0
O34 O 0.34809 0.73862 0.46769 0.0
O35 O 0.35183 0.71362 0.44936 0.0
C36 C 0.35473 0.69087 0.55746 0.0
O37 O 0.35938 0.73404 0.56882 0.0
O38 O 0.33434 0.73201 0.58906 0.0
In39 In 0.53423 0.09354 0.77712 0.0
O40 O 0.55763 0.09311 0.82135 0.0
O41 O 0.55308 0.11406 0.77856 0.0
C42 C 0.5355 0.06072 0.76812 0.0
C43 C 0.51542 0.10205 0.85164 0.0
C44 C 0.52544 0.10158 0.68829 0.0
O45 O 0.54796 0.06971 0.76159 0.0
O46 O 0.5225 0.06827 0.77905 0.0
O47 O 0.51549 0.1027 0.72229 0.0
O48 O 0.53961 0.0968 0.69954 0.0
C49 C 0.56237 0.10713 0.80802 0.0
O50 O 0.52158 0.11269 0.82448 0.0
O51 O 0.5181 0.08738 0.83967 0.0
In52 In 0.15517 0.71281 0.43346 0.0
O53 O 0.14177 0.73187 0.38786 0.0
O54 O 0.16244 0.71929 0.35901 0.0
C55 C 0.14693 0.7214 0.52243 0.0
C56 C 0.13663 0.68714 0.40686 0.0
C57 C 0.18794 0.71142 0.4438 0.0
O58 O 0.14888 0.73197 0.4903 0.0
O59 O 0.1486 0.70674 0.50912 0.0
O60 O 0.17895 0.69882 0.4475 0.0
O61 O 0.18041 0.72463 0.43489 0.0
C62 C 0.15105 0.72959 0.35269 0.0
O63 O 0.15189 0.68574 0.41419 0.0
O64 O 0.13082 0.70131 0.41392 0.0
In65 In 0.5321 0.90533 0.71682 0.0
O66 O 0.5131 0.8934 0.66719 0.0
O67 O 0.52866 0.91226 0.64052 0.0
C68 C 0.52061 0.89819 0.80377 0.0
C69 C 0.55841 0.88626 0.69891 0.0
C70 C 0.53361 0.93801 0.72858 0.0
O71 O 0.51163 0.89694 0.76758 0.0
O72 O 0.53519 0.90255 0.79557 0.0
O73 O 0.54577 0.92874 0.73631 0.0
O74 O 0.52069 0.93078 0.71515 0.0
C75 C 0.51732 0.90209 0.63225 0.0
O76 O 0.55885 0.90171 0.69554 0.0
O77 O 0.54478 0.88046 0.71215 0.0
In78 In 0.33569 0.28533 0.94615 0.0
O79 O 0.33993 0.31263 0.93193 0.0
O80 O 0.36078 0.29728 0.94301 0.0
C81 C 0.30346 0.29204 0.95473 0.0
C82 C 0.34125 0.2701 0.86307 0.0
C83 C 0.34055 0.26982 0.02925 0.0
O84 O 0.31421 0.29983 0.97789 0.0
O85 O 0.30903 0.28111 0.92765 0.0
O86 O 0.33101 0.26425 0.99806 0.0
O87 O 0.34812 0.28271 0.01771 0.0
C88 C 0.3554 0.31148 0.93402 0.0
O89 O 0.34756 0.26488 0.90091 0.0
O90 O 0.33236 0.28265 0.8677 0.0
In91 In 0.96407 0.09703 0.24184 0.0
O92 O 0.98334 0.09139 0.18611 0.0
O93 O 0.97425 0.11582 0.18906 0.0
C94 C 0.97416 0.10455 0.33037 0.0
C95 C 0.93632 0.11152 0.2114 0.0
C96 C 0.96043 0.06417 0.24576 0.0
O97 O 0.98341 0.10645 0.29509 0.0
O98 O 0.96008 0.09917 0.32063 0.0
O99 O 0.94942 0.0739 0.26006 0.0
O100 O 0.97313 0.071 0.2295 0.0
C101 C 0.98322 0.10553 0.16789 0.0
O102 O 0.94098 0.09768 0.19643 0.0
O103 O 0.94544 0.1178 0.24249 0.0
In104 In 0.83964 0.71837 0.95723 0.0
O105 O 0.84534 0.69076 0.95325 0.0
O106 O 0.85915 0.70714 0.91045 0.0
C107 C 0.80728 0.71442 0.97329 0.0
C108 C 0.84167 0.73933 0.88394 0.0
C109 C 0.85168 0.72599 0.04323 0.0
O110 O 0.81514 0.70527 0.94529 0.0
O111 O 0.81566 0.72567 0.99221 0.0
O112 O 0.84854 0.73682 0.0127 0.0
O113 O 0.84959 0.71142 0.02935 0.0
C114 C 0.8564 0.69252 0.9225 0.0
O115 O 0.85336 0.73736 0.91273 0.0
O116 O 0.82872 0.73151 0.89391 0.0
In117 In 0.03129 0.09988 0.74673 0.0
O118 O 0.01296 0.11283 0.69699 0.0
O119 O 0.02577 0.09171 0.67255 0.0
C120 C 0.01973 0.1095 0.83169 0.0
C121 C 0.05794 0.11702 0.72012 0.0
C122 C 0.03404 0.06753 0.76383 0.0
O123 O 0.01027 0.10507 0.79877 0.0
O124 O 0.03478 0.10953 0.82107 0.0
O125 O 0.04541 0.07753 0.77375 0.0
O126 O 0.02131 0.07389 0.74621 0.0
C127 C 0.01569 0.103 0.66332 0.0
O128 O 0.0578 0.10152 0.72146 0.0
O129 O 0.04481 0.12384 0.73359 0.0
In130 In 0.65666 0.27552 0.48654 0.0
O131 O 0.64411 0.25604 0.44052 0.0
O132 O 0.66824 0.26376 0.42203 0.0
C133 C 0.64557 0.26653 0.57272 0.0
C134 C 0.63795 0.3003 0.45368 0.0
C135 C 0.68904 0.28131 0.49773 0.0
O136 O 0.64884 0.25618 0.54096 0.0
O137 O 0.64737 0.2813 0.5604 0.0
O138 O 0.6799 0.2905 0.47328 0.0
O139 O 0.68182 0.26927 0.5167 0.0
C140 C 0.65588 0.25514 0.41153 0.0
O141 O 0.64937 0.30277 0.48288 0.0
O142 O 0.63575 0.28549 0.44255 0.0
In143 In 0.46016 0.90898 0.21622 0.0
O144 O 0.47876 0.89582 0.16791 0.0
O145 O 0.46345 0.91443 0.13884 0.0
C146 C 0.47136 0.90196 0.30349 0.0
C147 C 0.43324 0.89057 0.20022 0.0
C148 C 0.46051 0.94186 0.22406 0.0
O149 O 0.48016 0.89987 0.26725 0.0
O150 O 0.45709 0.90727 0.29529 0.0
O151 O 0.44786 0.93342 0.23323 0.0
O152 O 0.47296 0.93371 0.21143 0.0
C153 C 0.47456 0.90392 0.13182 0.0
O154 O 0.43327 0.90597 0.19512 0.0
O155 O 0.44663 0.88457 0.21454 0.0
In156 In 0.84509 0.28461 0.52559 0.0
O157 O 0.86287 0.27114 0.57535 0.0
O158 O 0.83735 0.2674 0.58489 0.0
C159 C 0.85444 0.27708 0.43692 0.0
C160 C 0.85984 0.31219 0.55658 0.0
C161 C 0.81236 0.28683 0.51356 0.0
O162 O 0.85584 0.26702 0.4706 0.0
O163 O 0.8487 0.29093 0.44836 0.0
O164 O 0.82086 0.2987 0.52874 0.0
O165 O 0.8204 0.27397 0.50408 0.0
C166 C 0.85166 0.26467 0.59976 0.0
O167 O 0.84575 0.30782 0.57035 0.0
O168 O 0.86618 0.30299 0.52578 0.0
In169 In 0.47049 0.09719 0.27153 0.0
O170 O 0.443 0.10108 0.28474 0.0
O171 O 0.45978 0.11975 0.30635 0.0
C172 C 0.46752 0.06471 0.25601 0.0
C173 C 0.48705 0.09878 0.35321 0.0
C174 C 0.48081 0.10857 0.18684 0.0
O175 O 0.45559 0.07449 0.25087 0.0
O176 O 0.48087 0.07135 0.26822 0.0
O177 O 0.49064 0.10323 0.21757 0.0
O178 O 0.46598 0.10867 0.19953 0.0
C179 C 0.44511 0.11478 0.30481 0.0
O180 O 0.48973 0.10884 0.32006 0.0
O181 O 0.47651 0.08782 0.34429 0.0
In182 In 0.65364 0.70994 0.05706 0.0
O183 O 0.64837 0.73102 0.10909 0.0
O184 O 0.65813 0.70846 0.13519 0.0
C185 C 0.64356 0.71967 0.9711 0.0
C186 C 0.63155 0.68646 0.07481 0.0
C187 C 0.68615 0.70864 0.04077 0.0
O188 O 0.64429 0.72956 0.00548 0.0
O189 O 0.64733 0.70502 0.98085 0.0
O190 O 0.67799 0.69599 0.05189 0.0
O191 O 0.67796 0.72177 0.03875 0.0
C192 C 0.65287 0.72267 0.14448 0.0
O193 O 0.646 0.68308 0.06134 0.0
O194 O 0.6282 0.70161 0.07744 0.0
In195 In 0.03881 0.91184 0.79781 0.0
O196 O 0.06618 0.90627 0.80744 0.0
O197 O 0.04915 0.88642 0.81011 0.0
C198 C 0.03987 0.94476 0.79493 0.0
C199 C 0.02424 0.90756 0.88184 0.0
C200 C 0.02778 0.90594 0.7097 0.0
O201 O 0.05256 0.93604 0.78894 0.0
O202 O 0.02673 0.93687 0.80208 0.0
O203 O 0.0187 0.9041 0.74542 0.0
O204 O 0.04228 0.91037 0.71876 0.0
C205 C 0.06389 0.89105 0.81333 0.0
O206 O 0.01939 0.9 0.84544 0.0
O207 O 0.03614 0.91726 0.87542 0.0
In208 In 0.65785 0.77743 0.56228 0.0
O209 O 0.63996 0.76433 0.6125 0.0
O210 O 0.66544 0.76026 0.62186 0.0
C211 C 0.65264 0.76013 0.48231 0.0
C212 C 0.64188 0.8055 0.58348 0.0
C213 C 0.68831 0.78901 0.5455 0.0
O214 O 0.66513 0.7581 0.50793 0.0
O215 O 0.64222 0.77011 0.49857 0.0
O216 O 0.67651 0.79138 0.51748 0.0
O217 O 0.68458 0.78133 0.58255 0.0
C218 C 0.65109 0.75775 0.63691 0.0
O219 O 0.65403 0.8004 0.6068 0.0
O220 O 0.63806 0.79666 0.54871 0.0
In221 In 0.46972 0.4018 0.7844 0.0
O222 O 0.4832 0.38427 0.83474 0.0
O223 O 0.4876 0.40979 0.84181 0.0
C224 C 0.47716 0.39228 0.69605 0.0
C225 C 0.44153 0.38739 0.81192 0.0
C226 C 0.46652 0.43425 0.76883 0.0
O227 O 0.48739 0.39108 0.72944 0.0
O228 O 0.46323 0.39771 0.70785 0.0
O229 O 0.45606 0.42611 0.79194 0.0
O230 O 0.47869 0.42609 0.75427 0.0
C231 C 0.49015 0.39557 0.85769 0.0
O232 O 0.44637 0.40092 0.82859 0.0
O233 O 0.45081 0.38125 0.78096 0.0
In234 In 0.84727 0.21939 0.02357 0.0
O235 O 0.86127 0.2378 0.07072 0.0
O236 O 0.83973 0.22625 0.09736 0.0
C237 C 0.85653 0.22946 0.93677 0.0
C238 C 0.86356 0.19228 0.05083 0.0
C239 C 0.81469 0.21759 0.00921 0.0
O240 O 0.85315 0.23952 0.96927 0.0
O241 O 0.8557 0.21457 0.94867 0.0
O242 O 0.82419 0.20575 0.99999 0.0
O243 O 0.82165 0.23035 0.02468 0.0
C244 C 0.85146 0.23602 0.10495 0.0
O245 O 0.84806 0.19303 0.05034 0.0
O246 O 0.87079 0.20509 0.03669 0.0
In247 In 0.02755 0.58346 0.2965 0.0
O248 O 0.00921 0.59795 0.3419 0.0
O249 O 0.0141 0.57313 0.36008 0.0
C250 C 0.01394 0.59289 0.21401 0.0
C251 C 0.05428 0.60151 0.31762 0.0
C252 C 0.03679 0.55172 0.28748 0.0
O253 O 0.00706 0.58293 0.24178 0.0
O254 O 0.02726 0.59886 0.22903 0.0
O255 O 0.04216 0.56082 0.31993 0.0
O256 O 0.02708 0.55871 0.25937 0.0
C257 C 0.00682 0.58631 0.37053 0.0
O258 O 0.05385 0.59226 0.28195 0.0
O259 O 0.0413 0.6017 0.34177 0.0
In260 In 0.65866 0.21031 0.98436 0.0
O261 O 0.65701 0.1841 0.95625 0.0
O262 O 0.63496 0.1958 0.97871 0.0
C263 C 0.69152 0.21087 0.99072 0.0
C264 C 0.65238 0.22716 0.90452 0.0
C265 C 0.65202 0.21856 0.07449 0.0
O266 O 0.68336 0.19778 0.99618 0.0
O267 O 0.6831 0.22361 0.98276 0.0
O268 O 0.6512 0.22894 0.04142 0.0
O269 O 0.65578 0.20422 0.06165 0.0
C270 C 0.64161 0.18318 0.96129 0.0
O271 O 0.64298 0.22818 0.93991 0.0
O272 O 0.66473 0.21803 0.91014 0.0
In273 In 0.03144 0.39668 0.26245 0.0
O274 O 0.01433 0.38149 0.21443 0.0
O275 O 0.01843 0.40649 0.19744 0.0
C276 C 0.02315 0.38818 0.35134 0.0
C277 C 0.05747 0.3795 0.23101 0.0
C278 C 0.03623 0.42892 0.27748 0.0
O279 O 0.01261 0.38955 0.3189 0.0
O280 O 0.0378 0.39059 0.33846 0.0
O281 O 0.04781 0.41935 0.26612 0.0
O282 O 0.02231 0.42217 0.2816 0.0
C283 C 0.01177 0.39312 0.18598 0.0
O284 O 0.05607 0.3948 0.2251 0.0
O285 O 0.04592 0.37292 0.25396 0.0
In286 In 0.8402 0.78099 0.45595 0.0
O287 O 0.85287 0.76106 0.41205 0.0
O288 O 0.83163 0.77273 0.38372 0.0
C289 C 0.84832 0.77289 0.54548 0.0
C290 C 0.86028 0.80515 0.42705 0.0
C291 C 0.80765 0.78572 0.46485 0.0
O292 O 0.84545 0.76216 0.51446 0.0
O293 O 0.84772 0.78746 0.53075 0.0
O294 O 0.81751 0.7974 0.45682 0.0
O295 O 0.81422 0.77168 0.46766 0.0
C296 C 0.84311 0.7625 0.37766 0.0
O297 O 0.84632 0.80811 0.44453 0.0
O298 O 0.86418 0.79018 0.42524 0.0
In299 In 0.45328 0.58874 0.71287 0.0
O300 O 0.4757 0.59634 0.66772 0.0
O301 O 0.45259 0.59297 0.63429 0.0
C302 C 0.46064 0.59536 0.80323 0.0
C303 C 0.42601 0.60689 0.70535 0.0
C304 C 0.45608 0.55582 0.7142 0.0
O305 O 0.46918 0.601 0.76958 0.0
O306 O 0.44844 0.5868 0.79088 0.0
O307 O 0.44254 0.56289 0.70618 0.0
O308 O 0.46811 0.56533 0.72046 0.0
C309 C 0.46754 0.59658 0.62984 0.0
O310 O 0.42594 0.59149 0.69901 0.0
O311 O 0.43976 0.61297 0.71677 0.0
In312 In 0.33716 0.21428 0.44861 0.0
O313 O 0.34054 0.23678 0.40022 0.0
O314 O 0.33633 0.21326 0.36943 0.0
C315 C 0.34544 0.22378 0.53634 0.0
C316 C 0.36006 0.19128 0.4341 0.0
C317 C 0.30432 0.2118 0.45579 0.0
O318 O 0.34813 0.23283 0.50088 0.0
O319 O 0.339 0.21005 0.52704 0.0
O320 O 0.3132 0.19968 0.44449 0.0
O321 O 0.31201 0.22504 0.463 0.0
C322 C 0.33906 0.22833 0.36299 0.0
O323 O 0.34552 0.18755 0.4459 0.0
O324 O 0.36307 0.20649 0.43182 0.0
In325 In 0.52167 0.58628 0.21254 0.0
O326 O 0.49991 0.59633 0.16957 0.0
O327 O 0.51631 0.57932 0.13724 0.0
C328 C 0.50717 0.59377 0.29587 0.0
C329 C 0.54672 0.60592 0.18649 0.0
C330 C 0.53074 0.5546 0.2219 0.0
O331 O 0.5025 0.58202 0.27025 0.0
O332 O 0.51861 0.60225 0.2785 0.0
O333 O 0.53829 0.56608 0.24261 0.0
O334 O 0.51879 0.55915 0.19688 0.0
C335 C 0.50385 0.58842 0.13286 0.0
O336 O 0.54905 0.59305 0.21034 0.0
O337 O 0.5319 0.60903 0.17732 0.0
In338 In 0.15855 0.77598 0.93456 0.0
O339 O 0.14289 0.75909 0.88822 0.0
O340 O 0.16816 0.76215 0.87082 0.0
C341 C 0.14591 0.76773 0.01951 0.0
C342 C 0.14381 0.80379 0.90503 0.0
C343 C 0.19128 0.7781 0.9476 0.0
O344 O 0.14878 0.75715 0.98801 0.0
O345 O 0.14873 0.78233 0.00725 0.0
O346 O 0.18354 0.7878 0.92096 0.0
O347 O 0.18254 0.76726 0.96717 0.0
C348 C 0.15447 0.75593 0.85988 0.0
O349 O 0.15418 0.80379 0.93803 0.0
O350 O 0.14083 0.78989 0.88763 0.0
In351 In 0.9661 0.3986 0.76253 0.0
O352 O 0.9814 0.3822 0.71299 0.0
O353 O 0.98159 0.40783 0.701 0.0
C354 C 0.97364 0.38923 0.8512 0.0
C355 C 0.93874 0.38319 0.73238 0.0
C356 C 0.96259 0.43104 0.77742 0.0
O357 O 0.98426 0.38988 0.81876 0.0
O358 O 0.95922 0.39282 0.83845 0.0
O359 O 0.95179 0.42253 0.75681 0.0
O360 O 0.97516 0.42318 0.79065 0.0
C361 C 0.98617 0.39387 0.68724 0.0
O362 O 0.94102 0.39841 0.72709 0.0
O363 O 0.95006 0.37581 0.75419 0.0
In364 In 0.3458 0.78002 0.0212 0.0
O365 O 0.34492 0.80358 0.06448 0.0
O366 O 0.36628 0.79897 0.02324 0.0
C367 C 0.31344 0.78124 0.00212 0.0
C368 C 0.35175 0.76081 0.09726 0.0
C369 C 0.3567 0.77271 0.93394 0.0
O370 O 0.32116 0.79337 0.01894 0.0
O371 O 0.32205 0.76858 0.99501 0.0
O372 O 0.35658 0.7622 0.96676 0.0
O373 O 0.35184 0.78684 0.94576 0.0
C374 C 0.35905 0.80831 0.05206 0.0
O375 O 0.33755 0.76364 0.08167 0.0
O376 O 0.36319 0.76681 0.07273 0.0
In377 In 0.96131 0.58741 0.79597 0.0
O378 O 0.93416 0.59391 0.80035 0.0
O379 O 0.9519 0.61324 0.80558 0.0
C380 C 0.96026 0.55433 0.79698 0.0
C381 C 0.97635 0.59341 0.87876 0.0
C382 C 0.96904 0.59395 0.70559 0.0
O383 O 0.94802 0.563 0.80847 0.0
O384 O 0.9729 0.56233 0.78546 0.0
O385 O 0.97904 0.59664 0.73886 0.0
O386 O 0.95528 0.58832 0.7183 0.0
C387 C 0.93692 0.60907 0.80658 0.0
O388 O 0.98434 0.59324 0.84053 0.0
O389 O 0.96124 0.59031 0.87487 0.0
In390 In 0.14946 0.21788 0.51157 0.0
O391 O 0.13283 0.23263 0.56161 0.0
O392 O 0.15858 0.2351 0.56929 0.0
C393 C 0.13888 0.22492 0.42379 0.0
C394 C 0.13462 0.19094 0.54616 0.0
C395 C 0.18164 0.21352 0.49328 0.0
O396 O 0.14003 0.23577 0.45551 0.0
O397 O 0.14256 0.21057 0.43695 0.0
O398 O 0.17309 0.20283 0.51423 0.0
O399 O 0.17397 0.22636 0.48155 0.0
C400 C 0.14454 0.23863 0.58503 0.0
O401 O 0.14892 0.19521 0.5582 0.0
O402 O 0.12797 0.2 0.5155 0.0
In403 In 0.53453 0.4004 0.2828 0.0
O404 O 0.5144 0.38871 0.32846 0.0
O405 O 0.52854 0.40837 0.35707 0.0
C406 C 0.52547 0.39144 0.19471 0.0
C407 C 0.55886 0.38077 0.3129 0.0
C408 C 0.5374 0.4331 0.27208 0.0
O409 O 0.51511 0.39464 0.22653 0.0
O410 O 0.54024 0.39229 0.20782 0.0
O411 O 0.54973 0.42367 0.27071 0.0
O412 O 0.52377 0.426 0.2784 0.0
C413 C 0.51737 0.39784 0.36352 0.0
O414 O 0.56153 0.3954 0.30007 0.0
O415 O 0.54417 0.37601 0.30877 0.0
C416 C 0.27487 0.28887 0.92563 0.0
C417 C 0.28565 0.29465 0.96032 0.0
C418 C 0.25783 0.28944 0.93225 0.0
C419 C 0.25144 0.29568 0.97499 0.0
C420 C 0.26225 0.30219 0.00938 0.0
C421 C 0.27929 0.30172 0.00143 0.0
C422 C 0.2467 0.28263 0.8944 0.0
C423 C 0.25588 0.30878 0.05558 0.0
C424 C 0.20547 0.30376 0.97933 0.0
C425 C 0.19964 0.28882 0.99743 0.0
C426 C 0.22239 0.30638 0.97275 0.0
C427 C 0.23364 0.29385 0.98523 0.0
C428 C 0.22781 0.27895 0.00489 0.0
C429 C 0.21086 0.27658 0.0104 0.0
C430 C 0.22818 0.32233 0.95115 0.0
C431 C 0.23945 0.26536 0.01917 0.0
H432 H 0.27979 0.28354 0.89359 0.0
H433 H 0.28765 0.30616 0.02832 0.0
H434 H 0.24083 0.27113 0.90708 0.0
H435 H 0.23671 0.29147 0.88631 0.0
H436 H 0.25348 0.27985 0.8614 0.0
H437 H 0.26567 0.31493 0.07641 0.0
H438 H 0.24575 0.31766 0.04951 0.0
H439 H 0.25078 0.29851 0.07675 0.0
H440 H 0.19679 0.31325 0.9693 0.0
H441 H 0.20639 0.26507 0.02484 0.0
H442 H 0.23394 0.31983 0.91646 0.0
H443 H 0.2377 0.32811 0.97368 0.0
H444 H 0.21796 0.33121 0.94605 0.0
H445 H 0.24583 0.26048 0.9876 0.0
H446 H 0.23301 0.25503 0.03691 0.0
H447 H 0.24902 0.27021 0.04328 0.0
C448 C 0.97351 0.97023 0.30097 0.0
C449 C 0.96198 0.95962 0.2806 0.0
C450 C 0.97213 0.98729 0.29567 0.0
C451 C 0.95917 0.99382 0.26814 0.0
C452 C 0.94749 0.98314 0.24739 0.0
C453 C 0.9489 0.96612 0.25447 0.0
C454 C 0.98459 -0.00167 0.31929 0.0
C455 C 0.93378 0.98964 0.21677 0.0
C456 C 0.94917 0.03904 0.28421 0.0
C457 C 0.95895 0.04619 0.24917 0.0
C458 C 0.94889 0.02193 0.29041 0.0
C459 C 0.95825 0.01181 0.25993 0.0
C460 C 0.96754 0.01898 0.22313 0.0
C461 C 0.96798 0.03613 0.21865 0.0
C462 C 0.93916 0.01473 0.33073 0.0
C463 C 0.97733 0.00857 0.18915 0.0
H464 H 0.98355 0.96517 0.32152 0.0
H465 H 0.94005 0.95786 0.23848 0.0
H466 H 0.9918 0.00504 0.29229 0.0
H467 H 0.97823 0.00766 0.34121 0.0
H468 H 0.99326 0.99135 0.34195 0.0
H469 H 0.9256 0.9797 0.20371 0.0
H470 H 0.92625 -0.00135 0.23665 0.0
H471 H 0.93906 0.99622 0.18605 0.0
H472 H 0.94227 0.04687 0.30797 0.0
H473 H 0.97543 0.0417 0.19128 0.0
H474 H 0.94765 0.00865 0.35585 0.0
H475 H 0.93055 0.00519 0.31766 0.0
H476 H 0.932 0.02422 0.35001 0.0
H477 H 0.98752 0.00239 0.2081 0.0
H478 H 0.98265 0.01596 0.15999 0.0
H479 H 0.96942 -0.00119 0.1739 0.0
C480 C 0.21579 0.72278 0.42819 0.0
C481 C 0.2059 0.71091 0.44993 0.0
C482 C 0.23287 0.72284 0.4348 0.0
C483 C 0.2401 0.71105 0.46503 0.0
C484 C 0.23014 0.69896 0.48688 0.0
C485 C 0.21314 0.69889 0.47847 0.0
C486 C 0.24314 0.73565 0.40993 0.0
C487 C 0.23737 0.68647 0.5203 0.0
C488 C 0.28617 0.7038 0.45829 0.0
C489 C 0.29189 0.71439 0.49353 0.0
C490 C 0.2693 0.70262 0.44839 0.0
C491 C 0.25796 0.71188 0.4754 0.0
C492 C 0.26371 0.72229 0.51179 0.0
C493 C 0.28065 0.7236 0.51994 0.0
C494 C 0.26363 0.69174 0.4085 0.0
C495 C 0.25196 0.73204 0.5421 0.0
H496 H 0.21017 0.73199 0.40577 0.0
H497 H 0.20543 0.68978 0.49548 0.0
H498 H 0.24877 0.74406 0.43612 0.0
H499 H 0.25334 0.72967 0.3904 0.0
H500 H 0.23579 0.74311 0.38482 0.0
H501 H 0.22799 0.6777 0.53366 0.0
H502 H 0.24727 0.67941 0.50261 0.0
H503 H 0.24302 0.69288 0.55077 0.0
H504 H 0.29491 0.69675 0.43774 0.0
H505 H 0.2851 0.73168 0.5475 0.0
H506 H 0.25696 0.69921 0.38199 0.0
H507 H 0.25491 0.68233 0.42177 0.0
H508 H 0.27404 0.68539 0.39081 0.0
H509 H 0.24516 0.74103 0.52013 0.0
H510 H 0.25839 0.73884 0.5706 0.0
H511 H 0.24274 0.72372 0.55825 0.0
C512 C 0.52476 0.033 0.7883 0.0
C513 C 0.53598 0.04273 0.76332 0.0
C514 C 0.52487 0.01585 0.78381 0.0
C515 C 0.53613 0.00835 0.75246 0.0
C516 C 0.54745 0.01815 0.72696 0.0
C517 C 0.5474 0.03526 0.73328 0.0
C518 C 0.51292 0.00576 0.81253 0.0
C519 C 0.55932 0.01061 0.69226 0.0
C520 C 0.54552 0.96293 0.76632 0.0
C521 C 0.53444 0.95595 0.73434 0.0
C522 C 0.54614 0.98001 0.77287 0.0
C523 C 0.53579 0.99028 0.74564 0.0
C524 C 0.52484 0.98326 0.71251 0.0
C525 C 0.52412 0.96613 0.7078 0.0
C526 C 0.55762 0.98704 0.80948 0.0
C527 C 0.51393 0.99385 0.68199 0.0
H528 H 0.51601 0.03881 0.81182 0.0
H529 H 0.55599 0.04284 0.71374 0.0
H530 H 0.5043 -0.00082 0.78886 0.0
H531 H 0.51966 0.99631 0.83306 0.0
H532 H 0.50563 0.01343 0.83726 0.0
H533 H 0.56725 0.01997 0.67502 0.0
H534 H 0.56732 0.00154 0.71028 0.0
H535 H 0.55241 0.00388 0.66464 0.0
H536 H 0.55342 0.955 0.78703 0.0
H537 H 0.51565 0.96069 0.68275 0.0
H538 H 0.55047 0.99414 0.83585 0.0
H539 H 0.56641 0.99569 0.79278 0.0
H540 H 0.56471 0.97734 0.82807 0.0
H541 H 0.5052 0.00086 0.70429 0.0
H542 H 0.50677 0.98649 0.65621 0.0
H543 H 0.52149 0.00295 0.66248 0.0
C544 C 0.71374 0.69518 0.04528 0.0
C545 C 0.70387 0.70824 0.03001 0.0
C546 C 0.73073 0.69512 0.0363 0.0
C547 C 0.73782 0.70826 0.01062 0.0
C548 C 0.72779 0.72125 0.99412 0.0
C549 C 0.71096 0.72117 0.00447 0.0
C550 C 0.74113 0.68124 0.05516 0.0
C551 C 0.73486 0.73533 0.96592 0.0
C552 C 0.78283 0.71926 0.02398 0.0
C553 C 0.78966 0.71219 0.9835 0.0
C554 C 0.76605 0.71755 0.03409 0.0
C555 C 0.75583 0.70885 0.00237 0.0
C556 C 0.7627 0.70154 0.96161 0.0
C557 C 0.77962 0.70316 0.9529 0.0
C558 C 0.75922 0.72527 0.07832 0.0
C559 C 0.75211 0.69245 0.92657 0.0
H560 H 0.70825 0.68521 0.06515 0.0
H561 H 0.7033 0.73121 0.99225 0.0
H562 H 0.74795 0.67523 0.02604 0.0
H563 H 0.7504 0.68617 0.08009 0.0
H564 H 0.73367 0.67178 0.07363 0.0
H565 H 0.72522 0.74397 0.95345 0.0
H566 H 0.74378 0.74229 0.98771 0.0
H567 H 0.74164 0.73054 0.93492 0.0
H568 H 0.79063 0.72611 0.04793 0.0
H569 H 0.78491 0.69771 0.92154 0.0
H570 H 0.75231 0.716 0.09904 0.0
H571 H 0.75046 0.7352 0.06892 0.0
H572 H 0.76902 0.73058 0.10094 0.0
H573 H 0.74517 0.6825 0.94442 0.0
H574 H 0.75944 0.68699 0.89752 0.0
H575 H 0.74294 0.70101 0.91119 0.0
C576 C 0.02829 0.97187 0.81786 0.0
C577 C 0.04024 0.96283 0.79356 0.0
C578 C 0.02809 0.98908 0.8158 0.0
C579 C 0.03981 0.99735 0.78758 0.0
C580 C 0.05201 0.98826 0.76329 0.0
C581 C 0.05222 0.97106 0.76715 0.0
C582 C 0.01516 -0.00162 0.84315 0.0
C583 C 0.06444 0.99664 0.73188 0.0
C584 C 0.0266 0.03898 0.74159 0.0
C585 C 0.03567 0.04966 0.77023 0.0
C586 C 0.02815 0.02191 0.7462 0.0
C587 C 0.03866 0.01542 0.78128 0.0
C588 C 0.04773 0.02617 0.81067 0.0
C589 C 0.04632 0.04322 0.80428 0.0
C590 C 0.01859 0.01084 0.71342 0.0
C591 C 0.0587 0.01965 0.84927 0.0
H592 H 0.01913 0.96547 0.83869 0.0
H593 H 0.06141 0.96402 0.74819 0.0
H594 H 0.021 0.00811 0.86483 0.0
H595 H 0.00659 0.00455 0.81844 0.0
H596 H 0.0079 0.99021 0.86661 0.0
H597 H 0.07343 0.98784 0.71663 0.0
H598 H 0.05798 0.00298 0.70266 0.0
H599 H 0.07126 0.00615 0.75189 0.0
H600 H 0.01849 0.04399 0.7149 0.0
H601 H 0.05327 0.05153 0.82652 0.0
H602 H 0.00977 0.00327 0.73385 0.0
H603 H 0.02708 0.00227 0.69519 0.0
H604 H 0.01163 0.01788 0.68648 0.0
H605 H 0.05135 0.01209 0.87409 0.0
H606 H 0.0648 0.02967 0.86933 0.0
H607 H 0.06831 0.01154 0.83416 0.0
C608 C 0.71515 0.29416 0.46987 0.0
C609 C 0.70694 0.28387 0.5017 0.0
C610 C 0.73234 0.29572 0.47107 0.0
C611 C 0.74142 0.287 0.50545 0.0
C612 C 0.73311 0.27704 0.53869 0.0
C613 C 0.71596 0.27547 0.53613 0.0
C614 C 0.7408 0.30627 0.43462 0.0
C615 C 0.74236 0.26777 0.57636 0.0
C616 C 0.78594 0.27563 0.48292 0.0
C617 C 0.7943 0.28757 0.50919 0.0
C618 C 0.76872 0.27561 0.48034 0.0
C619 C 0.75968 0.28764 0.50538 0.0
C620 C 0.76807 0.29986 0.53151 0.0
C621 C 0.78533 0.29977 0.53275 0.0
C622 C 0.76021 0.26255 0.45142 0.0
C623 C 0.75881 0.31272 0.55921 0.0
H624 H 0.7082 0.30061 0.44308 0.0
H625 H 0.70961 0.26758 0.56096 0.0
H626 H 0.74875 0.31554 0.452 0.0
H627 H 0.74889 0.29848 0.4124 0.0
H628 H 0.73192 0.31275 0.41144 0.0
H629 H 0.73398 0.26145 0.60141 0.0
H630 H 0.75045 0.25842 0.55985 0.0
H631 H 0.75037 0.2763 0.59642 0.0
H632 H 0.79287 0.26624 0.46444 0.0
H633 H 0.79178 0.30896 0.55329 0.0
H634 H 0.75171 0.26835 0.42578 0.0
H635 H 0.7527 0.25457 0.47471 0.0
H636 H 0.76906 0.25469 0.43189 0.0
H637 H 0.75031 0.31956 0.5358 0.0
H638 H 0.76718 0.32165 0.57658 0.0
H639 H 0.7512 0.30667 0.58663 0.0
C640 C 0.4502 0.96808 0.25845 0.0
C641 C 0.46074 0.95991 0.22729 0.0
C642 C 0.45076 0.98525 0.26299 0.0
C643 C 0.46178 0.9944 0.23458 0.0
C644 C 0.47209 0.98619 0.20202 0.0
C645 C 0.47163 0.96899 0.19932 0.0
C646 C 0.43992 0.99355 0.29902 0.0
C647 C 0.48367 0.99556 0.17026 0.0
C648 C 0.45392 0.04017 0.22046 0.0
C649 C 0.46593 0.04681 0.25023 0.0
C650 C 0.45252 0.02309 0.21455 0.0
C651 C 0.46303 0.0125 0.24023 0.0
C652 C 0.47496 0.01919 0.27104 0.0
C653 C 0.47643 0.03629 0.27509 0.0
C654 C 0.43997 0.01638 0.18039 0.0
C655 C 0.48611 0.00829 0.29995 0.0
H656 H 0.44183 0.961 0.28023 0.0
H657 H 0.47966 0.96264 0.17486 0.0
H658 H 0.44766 0.00016 0.32505 0.0
H659 H 0.43197 0.00284 0.28175 0.0
H660 H 0.43197 0.98466 0.31811 0.0
H661 H 0.49 0.98741 0.14462 0.0
H662 H 0.47683 0.00515 0.15057 0.0
H663 H 0.49314 0.00192 0.19169 0.0
H664 H 0.44586 0.04835 0.20109 0.0
H665 H 0.48562 0.04145 0.2985 0.0
H666 H 0.43117 0.00826 0.19908 0.0
H667 H 0.44621 0.0088 0.15326 0.0
H668 H 0.43295 0.02629 0.16251 0.0
H669 H 0.47864 -0.00034 0.32138 0.0
H670 H 0.4942 0.01546 0.32387 0.0
H671 H 0.49397 0.00077 0.2764 0.0
C672 C 0.70988 0.79619 0.48656 0.0
C673 C 0.70551 0.7929 0.53334 0.0
C674 C 0.72646 0.79701 0.47306 0.0
C675 C 0.73887 0.79468 0.50736 0.0
C676 C 0.73448 0.7925 0.55518 0.0
C677 C 0.71783 0.79153 0.56756 0.0
C678 C 0.73066 0.79926 0.4217 0.0
C679 C 0.74737 0.79022 0.59288 0.0
C680 C 0.77922 0.77477 0.47325 0.0
C681 C 0.78989 0.78829 0.47227 0.0
C682 C 0.76247 0.7768 0.4831 0.0
C683 C 0.7563 0.79273 0.49284 0.0
C684 C 0.76693 0.80648 0.49091 0.0
C685 C 0.78363 0.8041 0.48033 0.0
C686 C 0.75145 0.76184 0.4842 0.0
C687 C 0.7608 0.8236 0.50151 0.0
H688 H 0.70037 0.79722 0.45999 0.0
H689 H 0.71447 0.7891 0.60383 0.0
H690 H 0.74035 0.80875 0.41735 0.0
H691 H 0.73561 0.78756 0.4074 0.0
H692 H 0.71977 0.80286 0.40048 0.0
H693 H 0.74201 0.79056 0.62884 0.0
H694 H 0.75358 0.7782 0.58795 0.0
H695 H 0.75693 0.79992 0.59017 0.0
H696 H 0.78401 0.76254 0.46672 0.0
H697 H 0.79188 0.81458 0.47969 0.0
H698 H 0.74069 0.76371 0.46076 0.0
H699 H 0.74666 0.75996 0.52037 0.0
H700 H 0.75798 0.75049 0.47305 0.0
H701 H 0.74998 0.82654 0.47924 0.0
H702 H 0.7704 0.8331 0.49561 0.0
H703 H 0.75671 0.82429 0.53872 0.0
C704 C 0.45459 0.46166 0.78773 0.0
C705 C 0.46461 0.4519 0.75901 0.0
C706 C 0.45297 0.47856 0.77931 0.0
C707 C 0.46124 0.48571 0.7405 0.0
C708 C 0.47105 0.4758 0.71069 0.0
C709 C 0.4728 0.45902 0.72071 0.0
C710 C 0.44271 0.48883 0.81249 0.0
C711 C 0.47975 0.48294 0.66838 0.0
C712 C 0.44584 0.52735 0.69935 0.0
C713 C 0.45763 0.53787 0.71896 0.0
C714 C 0.44706 0.51026 0.7051 0.0
C715 C 0.46012 0.50368 0.73218 0.0
C716 C 0.47203 0.51429 0.75209 0.0
C717 C 0.47075 0.53126 0.7447 0.0
C718 C 0.43439 0.49925 0.6824 0.0
C719 C 0.48592 0.50775 0.78202 0.0
H720 H 0.4483 0.45613 0.81745 0.0
H721 H 0.48043 0.45142 0.69821 0.0
H722 H 0.45048 0.4985 0.82878 0.0
H723 H 0.43278 0.49515 0.79282 0.0
H724 H 0.43706 0.48136 0.84096 0.0
H725 H 0.48609 0.47337 0.64719 0.0
H726 H 0.4708 0.48944 0.6455 0.0
H727 H 0.48899 0.49213 0.67994 0.0
H728 H 0.43574 0.53248 0.67925 0.0
H729 H 0.4798 0.53942 0.76022 0.0
H730 H 0.42747 0.49246 0.70988 0.0
H731 H 0.44055 0.48997 0.65985 0.0
H732 H 0.42549 0.50626 0.66056 0.0
H733 H 0.48085 0.50092 0.81256 0.0
H734 H 0.49405 0.5177 0.79534 0.0
H735 H 0.49348 0.49899 0.7614 0.0
C736 C 0.71813 0.22321 0.96635 0.0
C737 C 0.70958 0.21128 0.99214 0.0
C738 C 0.73534 0.2238 0.96699 0.0
C739 C 0.74413 0.21251 0.99532 0.0
C740 C 0.73553 0.20046 0.02161 0.0
C741 C 0.71831 0.19982 0.01909 0.0
C742 C 0.74412 0.23652 0.93748 0.0
C743 C 0.74449 0.18852 0.05323 0.0
C744 C 0.78959 0.20547 0.97265 0.0
C745 C 0.79671 0.21638 0.00483 0.0
C746 C 0.77244 0.20421 0.96867 0.0
C747 C 0.76229 0.21371 0.9987 0.0
C748 C 0.76948 0.22457 0.03176 0.0
C749 C 0.78663 0.22596 0.03389 0.0
C750 C 0.76517 0.19287 0.93207 0.0
C751 C 0.75906 0.23458 0.06519 0.0
H752 H 0.71133 0.23195 0.94509 0.0
H753 H 0.71164 0.19065 0.03916 0.0
H754 H 0.75083 0.24522 0.96061 0.0
H755 H 0.75336 0.23049 0.91451 0.0
H756 H 0.73551 0.24366 0.91503 0.0
H757 H 0.73596 0.17992 0.07134 0.0
H758 H 0.75345 0.18124 0.03249 0.0
H759 H 0.75155 0.1954 0.08025 0.0
H760 H 0.79744 0.19812 0.95007 0.0
H761 H 0.79218 0.23427 0.05915 0.0
H762 H 0.75703 0.19994 0.90814 0.0
H763 H 0.75749 0.18335 0.94931 0.0
H764 H 0.77478 0.18666 0.91069 0.0
H765 H 0.75107 0.24311 0.04509 0.0
H766 H 0.76662 0.2419 0.09013 0.0
H767 H 0.75088 0.22634 0.08573 0.0
C768 C 0.02579 0.45647 0.30119 0.0
C769 C 0.03855 0.44679 0.28301 0.0
C770 C 0.02727 0.4736 0.30353 0.0
C771 C 0.04179 0.48123 0.28678 0.0
C772 C 0.05491 0.4715 0.26958 0.0
C773 C 0.05316 0.45434 0.26811 0.0
C774 C 0.01307 0.48357 0.32257 0.0
C775 C 0.07051 0.47924 0.25114 0.0
C776 C 0.03504 0.52492 0.24563 0.0
C777 C 0.04021 0.53395 0.28493 0.0
C778 C 0.03627 0.50775 0.24489 0.0
C779 C 0.04268 0.49944 0.2846 0.0
C780 C 0.04862 0.50854 0.32352 0.0
C781 C 0.04738 0.52575 0.32313 0.0
C782 C 0.02998 0.49848 0.20248 0.0
C783 C 0.05548 0.50007 0.36652 0.0
H784 H 0.01452 0.45065 0.31302 0.0
H785 H 0.06304 0.44688 0.25396 0.0
H786 H 0.01742 0.49198 0.3507 0.0
H787 H 0.00782 0.4913 0.29411 0.0
H788 H 0.00312 0.4757 0.33709 0.0
H789 H 0.08 0.46992 0.2422 0.0
H790 H 0.06772 0.48651 0.21908 0.0
H791 H 0.07569 0.48786 0.27753 0.0
H792 H 0.02959 0.53125 0.21589 0.0
H793 H 0.05138 0.53271 0.35358 0.0
H794 H 0.01884 0.49137 0.21232 0.0
H795 H 0.03934 0.48955 0.19007 0.0
H796 H 0.02677 0.50681 0.17289 0.0
H797 H 0.04548 0.49332 0.38479 0.0
H798 H 0.06106 0.5089 0.39172 0.0
H799 H 0.06492 0.4909 0.35626 0.0
C800 C 0.27802 0.22223 0.48867 0.0
C801 C 0.28634 0.21073 0.46074 0.0
C802 C 0.2609 0.22163 0.49361 0.0
C803 C 0.25186 0.2095 0.469 0.0
C804 C 0.26019 0.19785 0.44063 0.0
C805 C 0.27742 0.19848 0.43732 0.0
C806 C 0.25249 0.23403 0.52505 0.0
C807 C 0.2509 0.18498 0.41308 0.0
C808 C 0.20867 0.20087 0.51298 0.0
C809 C 0.19937 0.21148 0.48472 0.0
C810 C 0.22579 0.19983 0.50766 0.0
C811 C 0.23365 0.20931 0.47243 0.0
C812 C 0.22419 0.2195 0.44246 0.0
C813 C 0.20716 0.22064 0.44942 0.0
C814 C 0.23552 0.18913 0.54097 0.0
C815 C 0.2321 0.22951 0.40381 0.0
H816 H 0.28495 0.23163 0.50711 0.0
H817 H 0.28387 0.18964 0.41552 0.0
H818 H 0.24413 0.24187 0.50387 0.0
H819 H 0.24484 0.22762 0.55169 0.0
H820 H 0.2614 0.24211 0.5436 0.0
H821 H 0.25923 0.17679 0.39282 0.0
H822 H 0.24337 0.17734 0.43719 0.0
H823 H 0.24231 0.19105 0.38818 0.0
H824 H 0.20263 0.19385 0.54045 0.0
H825 H 0.19992 0.22873 0.42728 0.0
H826 H 0.24381 0.19693 0.56253 0.0
H827 H 0.24339 0.18046 0.52096 0.0
H828 H 0.22748 0.18195 0.565 0.0
H829 H 0.24007 0.23913 0.41946 0.0
H830 H 0.22285 0.23558 0.38087 0.0
H831 H 0.24005 0.22155 0.38169 0.0
C832 C 0.55249 0.45833 0.24622 0.0
C833 C 0.53863 0.45109 0.26696 0.0
C834 C 0.55322 0.4754 0.23894 0.0
C835 C 0.5399 0.48537 0.25363 0.0
C836 C 0.52616 0.47814 0.2762 0.0
C837 C 0.52562 0.46106 0.28215 0.0
C838 C 0.56793 0.48267 0.21409 0.0
C839 C 0.51182 0.48839 0.29307 0.0
C840 C 0.54358 0.53165 0.26732 0.0
C841 C 0.53492 0.5371 0.22767 0.0
C842 C 0.54589 0.51478 0.27552 0.0
C843 C 0.53964 0.50322 0.24278 0.0
C844 C 0.53171 0.50876 0.20139 0.0
C845 C 0.5293 0.52564 0.19459 0.0
C846 C 0.5542 0.50931 0.32036 0.0
C847 C 0.52513 0.49684 0.16522 0.0
H848 H 0.56254 0.4506 0.23441 0.0
H849 H 0.51497 0.45549 0.29867 0.0
H850 H 0.56403 0.4879 0.17978 0.0
H851 H 0.57319 0.4929 0.23509 0.0
H852 H 0.5777 0.47341 0.2076 0.0
H853 H 0.5027 0.48101 0.31315 0.0
H854 H 0.51626 0.49855 0.31582 0.0
H855 H 0.5055 0.49403 0.26248 0.0
H856 H 0.5479 0.54053 0.29296 0.0
H857 H 0.52274 0.52986 0.16364 0.0
H858 H 0.56396 0.50017 0.31262 0.0
H859 H 0.54506 0.50322 0.34354 0.0
H860 H 0.55975 0.51977 0.33987 0.0
H861 H 0.53473 0.48776 0.15545 0.0
H862 H 0.52086 0.50316 0.13279 0.0
H863 H 0.51464 0.48989 0.18033 0.0
C864 C 0.28573 0.79398 0.01176 0.0
C865 C 0.29565 0.78163 0.99238 0.0
C866 C 0.26867 0.79401 0.00441 0.0
C867 C 0.26148 0.78155 0.97634 0.0
C868 C 0.27151 0.76927 0.95578 0.0
C869 C 0.28848 0.76938 0.96441 0.0
C870 C 0.2583 0.80714 0.02746 0.0
C871 C 0.2643 0.75594 0.92505 0.0
C872 C 0.21649 0.77074 0.99265 0.0
C873 C 0.20917 0.77924 0.95524 0.0
C874 C 0.23349 0.77164 1.00042 0.0
C875 C 0.24339 0.78104 0.96951 0.0
C876 C 0.23606 0.78964 0.93163 0.0
C877 C 0.21898 0.78875 0.92518 0.0
C878 C 0.24085 0.76249 0.0416 0.0
C879 C 0.24629 0.79957 0.89756 0.0
H880 H 0.29126 0.80342 0.03357 0.0
H881 H 0.29615 0.75987 0.94914 0.0
H882 H 0.25116 0.81392 1.00046 0.0
H883 H 0.2493 0.80136 0.05175 0.0
H884 H 0.26583 0.81609 0.04766 0.0
H885 H 0.2739 0.74779 0.9099 0.0
H886 H 0.25565 0.7483 0.94589 0.0
H887 H 0.25718 0.7615 0.89579 0.0
H888 H 0.2089 0.76346 0.01612 0.0
H889 H 0.21333 0.79529 0.89613 0.0
H890 H 0.24781 0.77112 0.06435 0.0
H891 H 0.24967 0.7531 0.02875 0.0
H892 H 0.23135 0.75625 0.06334 0.0
H893 H 0.25325 0.80919 0.91676 0.0
H894 H 0.23868 0.80559 0.87006 0.0
H895 H 0.25544 0.79149 0.88008 0.0
C896 C 0.97056 0.45713 0.81739 0.0
C897 C 0.96098 0.44894 0.7838 0.0
C898 C 0.96966 0.47426 0.82235 0.0
C899 C 0.95924 0.48339 0.79217 0.0
C900 C 0.94938 0.47513 0.7586 0.0
C901 C 0.95023 0.45795 0.7552 0.0
C902 C 0.98009 0.48263 0.85924 0.0
C903 C 0.9384 0.48448 0.72512 0.0
C904 C 0.94812 0.52752 0.8222 0.0
C905 C 0.95986 0.53623 0.79608 0.0
C906 C 0.94789 0.51026 0.82185 0.0
C907 C 0.95941 0.50163 0.79377 0.0
C908 C 0.97114 0.51042 0.76687 0.0
C909 C 0.97134 0.52762 0.76882 0.0
C910 C 0.93545 0.50126 0.85176 0.0
C911 C 0.98339 0.50166 0.73572 0.0
H912 H 0.97878 0.45014 0.83977 0.0
H913 H 0.94286 0.45162 0.72906 0.0
H914 H 0.9895 0.49044 0.84194 0.0
H915 H 0.97237 0.4908 0.88136 0.0
H916 H 0.98647 0.47366 0.88244 0.0
H917 H 0.93112 0.47617 0.70211 0.0
H918 H 0.9298 0.49246 0.74502 0.0
H919 H 0.946 0.49262 0.70251 0.0
H920 H 0.9393 0.5342 0.84349 0.0
H921 H 0.98035 0.53436 0.74834 0.0
H922 H 0.94187 0.49285 0.87642 0.0
H923 H 0.92741 0.49358 0.82917 0.0
H924 H 0.92761 0.5098 0.87246 0.0
H925 H 0.99132 0.49351 0.75727 0.0
H926 H 0.99139 0.51034 0.71604 0.0
H927 H 0.97681 0.49375 0.71003 0.0
C928 C 0.14035 0.25126 0.85888 0.0
C929 C 0.13895 0.26753 0.87453 0.0
C930 C 0.13976 0.24748 0.81065 0.0
C931 C 0.13764 0.26028 0.77735 0.0
C932 C 0.13548 0.27664 0.79314 0.0
C933 C 0.13621 0.28008 0.84152 0.0
C934 C 0.1421 0.22986 0.79523 0.0
C935 C 0.13306 0.29061 0.75884 0.0
C936 C 0.15601 0.25202 0.65685 0.0
C937 C 0.14226 0.24667 0.63133 0.0
C938 C 0.15456 0.25701 0.70393 0.0
C939 C 0.13895 0.25668 0.72607 0.0
C940 C 0.12488 0.2521 0.69979 0.0
C941 C 0.1267 0.24713 0.65267 0.0
C942 C 0.16987 0.2619 0.73059 0.0
C943 C 0.10802 0.25172 0.72204 0.0
H944 H 0.14246 0.24152 0.88421 0.0
H945 H 0.13504 0.29269 0.8534 0.0
H946 H 0.13198 0.22608 0.7714 0.0
H947 H 0.15377 0.22873 0.77519 0.0
H948 H 0.14253 0.22123 0.8255 0.0
H949 H 0.13003 0.30235 0.77686 0.0
H950 H 0.14446 0.29243 0.738 0.0
H951 H 0.12306 0.28764 0.73368 0.0
H952 H 0.16807 0.25169 0.64058 0.0
H953 H 0.11602 0.24296 0.63319 0.0
H954 H 0.17221 0.25292 0.7592 0.0
H955 H 0.16815 0.27411 0.74728 0.0
H956 H 0.1809 0.26242 0.70756 0.0
H957 H 0.10755 0.24185 0.74895 0.0
H958 H 0.09816 0.24944 0.69578 0.0
H959 H 0.10545 0.26351 0.74027 0.0
C960 C 0.0186 0.91755 0.96283 0.0
C961 C 0.01686 0.90523 0.92878 0.0
C962 C 0.01209 0.91558 0.00813 0.0
C963 C 0.004 0.90073 0.02002 0.0
C964 C 0.00236 0.88814 0.98588 0.0
C965 C 0.00864 0.89063 0.94032 0.0
C966 C 0.01374 0.92948 0.04312 0.0
C967 C 0.99413 0.87202 0.99764 0.0
C968 C 0.0007 0.89378 0.15185 0.0
C969 C 0.98468 0.89927 0.1608 0.0
C970 C 0.00688 0.89326 0.10567 0.0
C971 C 0.9969 0.89874 0.06792 0.0
C972 C 0.98054 0.90379 0.07671 0.0
C973 C 0.97458 0.90383 0.12298 0.0
C974 C 0.02428 0.88743 0.09748 0.0
C975 C 0.96961 0.91004 0.03762 0.0
H976 H 0.0249 0.92888 0.95385 0.0
H977 H 0.00745 0.88103 0.91407 0.0
H978 H 0.00139 0.93334 0.05553 0.0
H979 H 0.02074 0.92527 0.07437 0.0
H980 H 0.02009 0.94035 0.02793 0.0
H981 H 0.99429 0.8633 0.96755 0.0
H982 H 0.0004 0.86619 0.02804 0.0
H983 H 0.98117 0.87419 0.00814 0.0
H984 H 0.0085 0.89014 0.18099 0.0
H985 H 0.96218 0.90813 0.12972 0.0
H986 H 0.0321 0.89798 0.08688 0.0
H987 H 0.02462 0.87835 0.06836 0.0
H988 H 0.0297 0.88175 0.12946 0.0
H989 H 0.97479 0.92161 0.02315 0.0
H990 H 0.95686 0.91249 0.04984 0.0
H991 H 0.96912 0.90102 0.00838 0.0
C992 C 0.36089 0.72093 0.35486 0.0
C993 C 0.35621 0.73306 0.38734 0.0
C994 C 0.36234 0.72454 0.30675 0.0
C995 C 0.35896 0.74066 0.29073 0.0
C996 C 0.35509 0.75316 0.32369 0.0
C997 C 0.35378 0.74921 0.37168 0.0
C998 C 0.36661 0.7109 0.27283 0.0
C999 C 0.35146 0.77052 0.30799 0.0
C1000 C 0.36974 0.75441 0.16643 0.0
C1001 C 0.35439 0.75334 0.14412 0.0
C1002 C 0.3716 0.74986 0.21388 0.0
C1003 C 0.35778 0.74409 0.23937 0.0
C1004 C 0.34247 0.74223 0.21626 0.0
C1005 C 0.34096 0.74689 0.16896 0.0
C1006 C 0.38814 0.7519 0.23724 0.0
C1007 C 0.32746 0.73597 0.24203 0.0
H1008 H 0.36288 0.70843 0.36679 0.0
H1009 H 0.3502 0.75864 0.39664 0.0
H1010 H 0.35565 0.7078 0.25134 0.0
H1011 H 0.37642 0.71492 0.24826 0.0
H1012 H 0.37077 0.6996 0.29128 0.0
H1013 H 0.35014 0.7791 0.33818 0.0
H1014 H 0.36139 0.7751 0.28463 0.0
H1015 H 0.33986 0.7707 0.28741 0.0
H1016 H 0.38015 0.75947 0.14744 0.0
H1017 H 0.32907 0.746 0.15188 0.0
H1018 H 0.39165 0.74048 0.25606 0.0
H1019 H 0.38744 0.76187 0.26383 0.0
H1020 H 0.39797 0.75502 0.21158 0.0
H1021 H 0.33015 0.72396 0.25884 0.0
H1022 H 0.31669 0.73446 0.21836 0.0
H1023 H 0.32409 0.7447 0.27047 0.0
C1024 C 0.53219 0.10091 0.60284 0.0
C1025 C 0.52076 0.10424 0.63861 0.0
C1026 C 0.52762 0.10145 0.55532 0.0
C1027 C 0.51126 0.10557 0.54326 0.0
C1028 C 0.49988 0.10979 0.57909 0.0
C1029 C 0.50476 0.109 0.62648 0.0
C1030 C 0.54008 0.09676 0.51823 0.0
C1031 C 0.48237 0.11443 0.56748 0.0
C1032 C 0.50135 0.11524 0.41535 0.0
C1033 C 0.49448 0.10033 0.40037 0.0
C1034 C 0.50686 0.11721 0.4619 0.0
C1035 C 0.50566 0.10385 0.49371 0.0
C1036 C 0.49914 0.08864 0.47825 0.0
C1037 C 0.49353 0.08711 0.43187 0.0
C1038 C 0.51361 0.13364 0.47733 0.0
C1039 C 0.49791 0.07402 0.51085 0.0
H1040 H 0.54461 0.09727 0.61198 0.0
H1041 H 0.49592 0.11166 0.65401 0.0
H1042 H 0.53638 0.08498 0.50158 0.0
H1043 H 0.54051 0.10619 0.49005 0.0
H1044 H 0.55263 0.09527 0.53306 0.0
H1045 H 0.4756 0.11907 0.59875 0.0
H1046 H 0.48213 0.12401 0.53968 0.0
H1047 H 0.47576 0.10353 0.55354 0.0
H1048 H 0.50194 0.12553 0.39114 0.0
H1049 H 0.48825 0.07555 0.42032 0.0
H1050 H 0.5262 0.13213 0.4917 0.0
H1051 H 0.50585 0.13873 0.50599 0.0
H1052 H 0.51403 0.14268 0.44805 0.0
H1053 H 0.51022 0.07099 0.52532 0.0
H1054 H 0.49294 0.06294 0.4929 0.0
H1055 H 0.4898 0.07702 0.54106 0.0
C1056 C 0.13584 0.7456 0.79631 0.0
C1057 C 0.1518 0.74786 0.81387 0.0
C1058 C 0.13325 0.74049 0.74964 0.0
C1059 C 0.14696 0.73748 0.72012 0.0
C1060 C 0.16309 0.73897 0.73847 0.0
C1061 C 0.1653 0.74419 0.78506 0.0
C1062 C 0.11589 0.739 0.73136 0.0
C1063 C 0.17804 0.73566 0.70834 0.0
C1064 C 0.14377 0.71317 0.60655 0.0
C1065 C 0.14463 0.72569 0.57262 0.0
C1066 C 0.14378 0.71685 0.65479 0.0
C1067 C 0.14463 0.73344 0.66946 0.0
C1068 C 0.14466 0.74617 0.63537 0.0
C1069 C 0.14468 0.74214 0.58729 0.0
C1070 C 0.14371 0.70293 0.68998 0.0
C1071 C 0.14543 0.76403 0.64968 0.0
H1072 H 0.12535 0.74852 0.81837 0.0
H1073 H 0.17767 0.74588 0.7985 0.0
H1074 H 0.11367 0.74862 0.70438 0.0
H1075 H 0.11405 0.72691 0.71406 0.0
H1076 H 0.10659 0.74041 0.75975 0.0
H1077 H 0.18968 0.73647 0.72868 0.0
H1078 H 0.17721 0.72325 0.69232 0.0
H1079 H 0.17857 0.7447 0.67913 0.0
H1080 H 0.14367 0.70042 0.59545 0.0
H1081 H 0.14531 0.75185 0.56124 0.0
H1082 H 0.1342 0.70505 0.71734 0.0
H1083 H 0.15579 0.70239 0.7081 0.0
H1084 H 0.14137 0.69084 0.67309 0.0
H1085 H 0.13572 0.7668 0.67596 0.0
H1086 H 0.14392 0.77245 0.61918 0.0
H1087 H 0.15746 0.76662 0.66653 0.0
C1088 C 0.49059 0.88717 0.07336 0.0
C1089 C 0.4818 0.90147 0.08457 0.0
C1090 C 0.49692 0.88474 0.02776 0.0
C1091 C 0.49466 0.89706 0.99306 0.0
C1092 C 0.48589 0.91156 0.00447 0.0
C1093 C 0.47946 0.91351 0.04989 0.0
C1094 C 0.50598 0.86902 0.01664 0.0
C1095 C 0.48348 0.92515 0.96887 0.0
C1096 C 0.5241 0.90149 0.89034 0.0
C1097 C 0.51443 0.89612 0.85244 0.0
C1098 C 0.51803 0.90129 0.93652 0.0
C1099 C 0.50198 0.89528 0.94524 0.0
C1100 C 0.49245 0.88907 0.90743 0.0
C1101 C 0.49873 0.88972 0.86132 0.0
C1102 C 0.52849 0.9083 0.97561 0.0
C1103 C 0.47539 0.8823 0.91547 0.0
H1104 H 0.49229 0.87778 0.1 0.0
H1105 H 0.47272 0.92461 0.05841 0.0
H1106 H 0.50017 0.86282 0.98608 0.0
H1107 H 0.51887 0.87183 0.00666 0.0
H1108 H 0.5061 0.86037 0.0469 0.0
H1109 H 0.47638 0.93566 0.98344 0.0
H1110 H 0.4956 0.92975 0.95668 0.0
H1111 H 0.47688 0.92036 0.93758 0.0
H1112 H 0.53625 0.90649 0.88374 0.0
H1113 H 0.49126 0.88546 0.83218 0.0
H1114 H 0.52945 0.89941 0.00507 0.0
H1115 H 0.52261 0.91958 0.9897 0.0
H1116 H 0.5411 0.91147 0.96352 0.0
H1117 H 0.47549 0.87328 0.94478 0.0
H1118 H 0.47036 0.87623 0.88353 0.0
H1119 H 0.46697 0.89242 0.92572 0.0
C1120 C 0.35515 0.2663 0.10586 0.0
C1121 C 0.34153 0.26292 0.07721 0.0
C1122 C 0.35567 0.26089 0.15278 0.0
C1123 C 0.34202 0.25235 0.1718 0.0
C1124 C 0.32824 0.24891 0.14292 0.0
C1125 C 0.32827 0.25404 0.09575 0.0
C1126 C 0.37079 0.26434 0.182 0.0
C1127 C 0.31332 0.24009 0.16211 0.0
C1128 C 0.34649 0.2249 0.27888 0.0
C1129 C 0.34076 0.23511 0.31509 0.0
C1130 C 0.34752 0.23057 0.23241 0.0
C1131 C 0.34222 0.2467 0.22163 0.0
C1132 C 0.33659 0.25715 0.25821 0.0
C1133 C 0.33616 0.25129 0.30479 0.0
C1134 C 0.35406 0.2192 0.19476 0.0
C1135 C 0.33052 0.27432 0.24791 0.0
H1136 H 0.36543 0.27317 0.09152 0.0
H1137 H 0.31763 0.25161 0.07381 0.0
H1138 H 0.36752 0.27218 0.21253 0.0
H1139 H 0.37581 0.25266 0.1962 0.0
H1140 H 0.38058 0.27061 0.16145 0.0
H1141 H 0.30341 0.23884 0.13546 0.0
H1142 H 0.31681 0.22764 0.17449 0.0
H1143 H 0.30837 0.24688 0.19291 0.0
H1144 H 0.35023 0.21241 0.28696 0.0
H1145 H 0.33166 0.25914 0.33281 0.0
H1146 H 0.36409 0.22532 0.17487 0.0
H1147 H 0.34416 0.21625 0.16927 0.0
H1148 H 0.35885 0.2075 0.20958 0.0
H1149 H 0.34023 0.28152 0.22985 0.0
H1150 H 0.32678 0.28098 0.28033 0.0
H1151 H 0.3198 0.27371 0.22376 0.0
C1152 C 0.01022 0.09181 0.58343 0.0
C1153 C 0.00844 0.10469 0.61583 0.0
C1154 C 0.00434 0.09322 0.53729 0.0
C1155 C 0.99659 0.10796 0.52287 0.0
C1156 C 0.99468 0.12103 0.55542 0.0
C1157 C 0.00056 0.11921 0.60173 0.0
C1158 C 0.00643 0.07889 0.50396 0.0
C1159 C 0.98658 0.13696 0.54114 0.0
C1160 C 0.99521 0.11326 0.38999 0.0
C1161 C 0.97947 0.10725 0.37959 0.0
C1162 C 0.00067 0.11444 0.43684 0.0
C1163 C 0.99019 0.10932 0.47394 0.0
C1164 C 0.97407 0.10385 0.46362 0.0
C1165 C 0.96889 0.10296 0.41664 0.0
C1166 C 0.01789 0.1205 0.44651 0.0
C1167 C 0.96256 0.09812 0.50202 0.0
H1168 H 0.01627 0.08054 0.59414 0.0
H1169 H -0.00072 0.12924 0.62658 0.0
H1170 H 0.99424 0.07479 0.49088 0.0
H1171 H 0.01376 0.08273 0.47291 0.0
H1172 H 0.01265 0.06825 0.52082 0.0
H1173 H 0.98617 0.14599 0.57046 0.0
H1174 H 0.99335 0.14251 0.51118 0.0
H1175 H 0.97384 0.13458 0.529 0.0
H1176 H 0.0034 0.11669 0.36151 0.0
H1177 H 0.95668 0.09835 0.40889 0.0
H1178 H 0.02557 0.11016 0.45939 0.0
H1179 H 0.01774 0.13001 0.47449 0.0
H1180 H 0.02379 0.12574 0.41458 0.0
H1181 H 0.96746 0.0867 0.51815 0.0
H1182 H 0.94998 0.09557 0.48857 0.0
H1183 H 0.96171 0.10748 0.53029 0.0
C1184 C 0.85334 0.71768 0.12758 0.0
C1185 C 0.85482 0.72998 0.09321 0.0
C1186 C 0.85313 0.72164 0.17566 0.0
C1187 C 0.8547 0.73826 0.18965 0.0
C1188 C 0.85742 0.75057 0.15522 0.0
C1189 C 0.85731 0.7463 0.10732 0.0
C1190 C 0.85007 0.70816 0.21116 0.0
C1191 C 0.85948 0.7684 0.1688 0.0
C1192 C 0.83287 0.7533 0.29947 0.0
C1193 C 0.84582 0.75441 0.33179 0.0
C1194 C 0.83554 0.7475 0.25364 0.0
C1195 C 0.85164 0.74303 0.23947 0.0
C1196 C 0.86471 0.74372 0.27236 0.0
C1197 C 0.8616 0.74928 0.31838 0.0
C1198 C 0.82119 0.7466 0.21997 0.0
C1199 C 0.88206 0.73928 0.25838 0.0
H1200 H 0.8514 0.70503 0.1169 0.0
H1201 H 0.85855 0.75584 0.0809 0.0
H1202 H 0.85891 0.70905 0.24077 0.0
H1203 H 0.83754 0.70958 0.22611 0.0
H1204 H 0.85106 0.69572 0.19524 0.0
H1205 H 0.86354 0.77609 0.13863 0.0
H1206 H 0.84761 0.7733 0.18196 0.0
H1207 H 0.86859 0.76962 0.19767 0.0
H1208 H 0.82065 0.75722 0.30983 0.0
H1209 H 0.87167 0.7503 0.3432 0.0
H1210 H 0.82036 0.73413 0.2043 0.0
H1211 H 0.82307 0.75543 0.19069 0.0
H1212 H 0.8093 0.74949 0.2374 0.0
H1213 H 0.88236 0.72694 0.24178 0.0
H1214 H 0.8906 0.73934 0.28889 0.0
H1215 H 0.88661 0.74821 0.23187 0.0
C1216 C 0.98805 0.12382 0.09826 0.0
C1217 C 0.99082 0.10886 0.1215 0.0
C1218 C 0.99301 0.12608 0.05127 0.0
C1219 C 0.00084 0.11302 0.02703 0.0
C1220 C 0.00426 0.09815 0.05102 0.0
C1221 C -0.00074 0.09627 0.09795 0.0
C1222 C 0.98931 0.14217 0.02704 0.0
C1223 C 0.01262 0.08393 0.02651 0.0
C1224 C -0.00194 0.10846 0.8942 0.0
C1225 C 0.01404 0.11272 0.88031 0.0
C1226 C 0.99335 0.10921 0.94174 0.0
C1227 C 0.00486 0.11448 0.97604 0.0
C1228 C 0.0207 0.1197 0.96177 0.0
C1229 C 0.02513 0.11867 0.9141 0.0
C1230 C 0.97634 0.1035 0.95554 0.0
C1231 C 0.03324 0.1256 0.9971 0.0
H1232 H 0.98148 0.13358 0.11621 0.0
H1233 H 0.00142 0.08467 0.11566 0.0
H1234 H 0.00052 0.14704 0.00969 0.0
H1235 H 0.97998 0.14016 0.99914 0.0
H1236 H 0.98455 0.15159 0.05189 0.0
H1237 H 0.01498 0.07346 0.05067 0.0
H1238 H 0.0048 0.07953 0.99708 0.0
H1239 H 0.02449 0.08797 0.01117 0.0
H1240 H 0.98946 0.10383 0.86823 0.0
H1241 H 0.03748 0.12209 0.90352 0.0
H1242 H 0.97024 0.11285 0.97796 0.0
H1243 H 0.97729 0.09204 0.97655 0.0
H1244 H 0.96844 0.10105 0.92444 0.0
H1245 H 0.02775 0.13495 0.02081 0.0
H1246 H 0.04426 0.13099 0.97986 0.0
H1247 H 0.03726 0.11514 0.01936 0.0
C1248 C 0.64216 0.27376 0.65759 0.0
C1249 C 0.64196 0.26181 0.62197 0.0
C1250 C 0.64153 0.26926 0.70526 0.0
C1251 C 0.6405 0.25243 0.71755 0.0
C1252 C 0.63906 0.24042 0.68165 0.0
C1253 C 0.63992 0.24524 0.63424 0.0
C1254 C 0.6432 0.28245 0.74237 0.0
C1255 C 0.63767 0.22236 0.69327 0.0
C1256 C 0.66225 0.23755 0.82743 0.0
C1257 C 0.64917 0.23523 0.85886 0.0
C1258 C 0.65957 0.24361 0.78197 0.0
C1259 C 0.64335 0.2472 0.76713 0.0
C1260 C 0.63009 0.24528 0.79907 0.0
C1261 C 0.63318 0.23942 0.84488 0.0
C1262 C 0.67412 0.24577 0.74942 0.0
C1263 C 0.61262 0.24881 0.78433 0.0
H1264 H 0.64368 0.2866 0.64835 0.0
H1265 H 0.63962 0.23597 0.60685 0.0
H1266 H 0.63405 0.28062 0.77085 0.0
H1267 H 0.65559 0.28167 0.75856 0.0
H1268 H 0.6416 0.29498 0.72751 0.0
H1269 H 0.63435 0.21488 0.66196 0.0
H1270 H 0.64962 0.21786 0.70709 0.0
H1271 H 0.6283 0.22034 0.72107 0.0
H1272 H 0.67465 0.23441 0.83827 0.0
H1273 H 0.62304 0.2375 0.86904 0.0
H1274 H 0.67439 0.25849 0.73531 0.0
H1275 H 0.67297 0.2373 0.71899 0.0
H1276 H 0.68602 0.24329 0.76727 0.0
H1277 H 0.61169 0.26129 0.76882 0.0
H1278 H 0.60386 0.24789 0.81425 0.0
H1279 H 0.60883 0.23993 0.75673 0.0
C1280 C 0.49276 0.89224 0.36075 0.0
C1281 C 0.4774 0.89944 0.35212 0.0
C1282 C 0.49892 0.89092 0.40686 0.0
C1283 C 0.48958 0.89719 0.445 0.0
C1284 C 0.47386 0.90402 0.43651 0.0
C1285 C 0.46792 0.90496 0.39026 0.0
C1286 C 0.51564 0.88333 0.4146 0.0
C1287 C 0.46361 0.91107 0.47602 0.0
C1288 C 0.50049 0.88691 0.57217 0.0
C1289 C 0.50991 0.90064 0.58489 0.0
C1290 C 0.49402 0.88541 0.52641 0.0
C1291 C 0.49683 0.89807 0.49308 0.0
C1292 C 0.50623 0.912 0.50604 0.0
C1293 C 0.51274 0.91305 0.55158 0.0
C1294 C 0.48423 0.87028 0.51365 0.0
C1295 C 0.5093 0.92592 0.4719 0.0
H1296 H 0.50008 0.88786 0.33143 0.0
H1297 H 0.45602 0.91054 0.38386 0.0
H1298 H 0.52443 0.89294 0.42622 0.0
H1299 H 0.51502 0.87394 0.44288 0.0
H1300 H 0.52054 0.87748 0.38216 0.0
H1301 H 0.4512 0.91494 0.46399 0.0
H1302 H 0.46216 0.90191 0.50462 0.0
H1303 H 0.46996 0.92191 0.49126 0.0
H1304 H 0.49838 0.87724 0.59773 0.0
H1305 H 0.51998 0.92372 0.56126 0.0
H1306 H 0.48986 0.86413 0.48272 0.0
H1307 H 0.47154 0.87382 0.50356 0.0
H1308 H 0.48357 0.86132 0.54311 0.0
H1309 H 0.51573 0.92124 0.44018 0.0
H1310 H 0.51682 0.93592 0.4876 0.0
H1311 H 0.4974 0.93119 0.46009 0.0
C1312 C 0.86849 0.25136 0.16434 0.0
C1313 C 0.85357 0.24399 0.15135 0.0
C1314 C 0.87072 0.2577 0.21002 0.0
C1315 C 0.85768 0.25675 0.24303 0.0
C1316 C 0.84248 0.2497 0.22951 0.0
C1317 C 0.84065 0.24336 0.184 0.0
C1318 C 0.88711 0.26508 0.22329 0.0
C1319 C 0.82818 0.24859 0.26338 0.0
C1320 C 0.86328 0.25682 0.37555 0.0
C1321 C 0.85774 0.27262 0.38729 0.0
C1322 C 0.86438 0.25182 0.32833 0.0
C1323 C 0.85972 0.26285 0.2921 0.0
C1324 C 0.85502 0.2791 0.3037 0.0
C1325 C 0.85411 0.2838 0.35116 0.0
C1326 C 0.8696 0.23442 0.31739 0.0
C1327 C 0.84991 0.29123 0.2662 0.0
H1328 H 0.87852 0.25179 0.13925 0.0
H1329 H 0.82906 0.23775 0.17409 0.0
H1330 H 0.88538 0.27773 0.237 0.0
H1331 H 0.89278 0.25773 0.25189 0.0
H1332 H 0.89576 0.26552 0.19306 0.0
H1333 H 0.81705 0.24317 0.24686 0.0
H1334 H 0.83164 0.24094 0.29414 0.0
H1335 H 0.82502 0.26101 0.2768 0.0
H1336 H 0.8662 0.24816 0.40331 0.0
H1337 H 0.8499 0.29607 0.35997 0.0
H1338 H 0.87892 0.23431 0.28887 0.0
H1339 H 0.85882 0.2273 0.30479 0.0
H1340 H 0.87477 0.22809 0.3487 0.0
H1341 H 0.85902 0.29144 0.23714 0.0
H1342 H 0.84855 0.30389 0.28037 0.0
H1343 H 0.83795 0.28737 0.25095 0.0
C1344 C 0.50202 0.10958 0.12325 0.0
C1345 C 0.48583 0.1124 0.13802 0.0
C1346 C 0.50628 0.11048 0.07542 0.0
C1347 C 0.49403 0.11431 0.04169 0.0
C1348 C 0.47793 0.1183 0.0568 0.0
C1349 C 0.47401 0.11727 0.10483 0.0
C1350 C 0.52362 0.10624 0.06075 0.0
C1351 C 0.46457 0.12259 0.02203 0.0
C1352 C 0.50901 0.12189 0.91661 0.0
C1353 C 0.50764 0.10609 0.89721 0.0
C1354 C 0.50404 0.12501 0.9632 0.0
C1355 C 0.49756 0.112 0.99072 0.0
C1356 C 0.49535 0.09627 0.97034 0.0
C1357 C 0.50042 0.09352 0.92388 0.0
C1358 C 0.50646 0.14196 0.98362 0.0
C1359 C 0.48835 0.08209 0.99829 0.0
H1360 H 0.51122 0.10589 0.14876 0.0
H1361 H 0.46148 0.11958 0.11608 0.0
H1362 H 0.52361 0.09427 0.04198 0.0
H1363 H 0.52848 0.11562 0.03606 0.0
H1364 H 0.53207 0.10531 0.09134 0.0
H1365 H 0.4535 0.12771 0.03966 0.0
H1366 H 0.46911 0.13165 0.99587 0.0
H1367 H 0.46089 0.11137 0.00245 0.0
H1368 H 0.51464 0.13164 0.89616 0.0
H1369 H 0.49926 0.0813 0.90898 0.0
H1370 H 0.51652 0.14162 0.01 0.0
H1371 H 0.49517 0.1461 0.0021 0.0
H1372 H 0.50969 0.15115 0.9562 0.0
H1373 H 0.49678 0.079 0.02769 0.0
H1374 H 0.48655 0.07091 0.97642 0.0
H1375 H 0.47636 0.08559 0.01397 0.0
C1376 C 0.63879 0.71304 0.88648 0.0
C1377 C 0.64049 0.72491 0.922 0.0
C1378 C 0.63846 0.71754 0.83882 0.0
C1379 C 0.64 0.73431 0.82634 0.0
C1380 C 0.64079 0.74643 0.86215 0.0
C1381 C 0.64097 0.74158 0.90963 0.0
C1382 C 0.63739 0.70426 0.80181 0.0
C1383 C 0.64245 0.76445 0.85028 0.0
C1384 C 0.66114 0.74488 0.71114 0.0
C1385 C 0.6479 0.74986 0.68297 0.0
C1386 C 0.65866 0.73953 0.75753 0.0
C1387 C 0.64251 0.73902 0.77619 0.0
C1388 C 0.62901 0.74339 0.74732 0.0
C1389 C 0.63187 0.74882 0.70103 0.0
C1390 C 0.67341 0.73497 0.7871 0.0
C1391 C 0.61161 0.7428 0.76577 0.0
H1392 H 0.6383 0.70013 0.89584 0.0
H1393 H 0.64229 0.7508 0.93693 0.0
H1394 H 0.62803 0.70747 0.77494 0.0
H1395 H 0.64938 0.70317 0.78345 0.0
H1396 H 0.63423 0.6921 0.81716 0.0
H1397 H 0.64137 0.77241 0.88191 0.0
H1398 H 0.65462 0.76669 0.83375 0.0
H1399 H 0.63292 0.76815 0.82446 0.0
H1400 H 0.67357 0.74568 0.69747 0.0
H1401 H 0.62158 0.7527 0.67946 0.0
H1402 H 0.67199 0.7223 0.80104 0.0
H1403 H 0.67432 0.74337 0.81777 0.0
H1404 H 0.68511 0.73563 0.76695 0.0
H1405 H 0.60897 0.73055 0.78118 0.0
H1406 H 0.6024 0.74539 0.73787 0.0
H1407 H 0.61009 0.752 0.79428 0.0
C1408 C -0.00038 0.89313 0.44021 0.0
C1409 C 0.98988 0.90664 0.4276 0.0
C1410 C 0.006 0.89166 0.486 0.0
C1411 C 0.00281 0.90419 0.51944 0.0
C1412 C 0.99319 0.91797 0.50653 0.0
C1413 C 0.98671 0.91894 0.46091 0.0
C1414 C 0.01599 0.87667 0.49875 0.0
C1415 C 0.98979 0.93175 0.54084 0.0
C1416 C 0.00643 0.89716 0.65129 0.0
C1417 C 0.02181 0.90418 0.66084 0.0
C1418 C 0.00036 0.89643 0.60503 0.0
C1419 C 0.00978 0.90317 0.56774 0.0
C1420 C 0.02547 0.90995 0.57716 0.0
C1421 C 0.03134 0.91025 0.62352 0.0
C1422 C 0.9837 0.88884 0.59619 0.0
C1423 C 0.03578 0.9175 0.53854 0.0
H1424 H 0.00196 0.88353 0.4146 0.0
H1425 H 0.97922 0.92944 0.45119 0.0
H1426 H 0.02853 0.8804 0.5098 0.0
H1427 H 0.01024 0.87025 0.52905 0.0
H1428 H 0.01706 0.86787 0.46898 0.0
H1429 H 0.98231 0.94174 0.52497 0.0
H1430 H 0.98317 0.92691 0.57205 0.0
H1431 H 0.00156 0.93707 0.55348 0.0
H1432 H -0.00093 0.89238 0.68003 0.0
H1433 H 0.04323 0.91573 0.63072 0.0
H1434 H 0.98454 0.87954 0.56771 0.0
H1435 H 0.97496 0.89845 0.58428 0.0
H1436 H 0.97858 0.88287 0.62818 0.0
H1437 H 0.03762 0.90855 0.50958 0.0
H1438 H 0.04802 0.9216 0.55137 0.0
H1439 H 0.02926 0.92827 0.52348 0.0
C1440 C 0.66578 0.74787 0.41131 0.0
C1441 C 0.6515 0.7533 0.43421 0.0
C1442 C 0.66544 0.74322 0.36378 0.0
C1443 C 0.65037 0.74362 0.33882 0.0
C1444 C 0.63581 0.74861 0.36217 0.0
C1445 C 0.63658 0.7536 0.4095 0.0
C1446 C 0.68129 0.73822 0.34 0.0
C1447 C 0.61944 0.74878 0.3371 0.0
C1448 C 0.65249 0.74514 0.20492 0.0
C1449 C 0.65141 0.72843 0.19357 0.0
C1450 C 0.65202 0.75033 0.25215 0.0
C1451 C 0.64992 0.73855 0.28847 0.0
C1452 C 0.64817 0.72173 0.27682 0.0
C1453 C 0.64918 0.71686 0.22959 0.0
C1454 C 0.6543 0.76834 0.2633 0.0
C1455 C 0.64546 0.70883 0.31428 0.0
H1456 H 0.67738 0.74783 0.4301 0.0
H1457 H 0.62553 0.75783 0.42709 0.0
H1458 H 0.6803 0.72543 0.32676 0.0
H1459 H 0.68362 0.74626 0.30916 0.0
H1460 H 0.69203 0.73897 0.36406 0.0
H1461 H 0.60917 0.75238 0.36075 0.0
H1462 H 0.61987 0.75751 0.30715 0.0
H1463 H 0.61678 0.73643 0.32235 0.0
H1464 H 0.65425 0.75407 0.17704 0.0
H1465 H 0.64811 0.70393 0.22078 0.0
H1466 H 0.66554 0.77001 0.28493 0.0
H1467 H 0.64376 0.77293 0.28434 0.0
H1468 H 0.65544 0.77597 0.23104 0.0
H1469 H 0.65646 0.708 0.33722 0.0
H1470 H 0.64304 0.69648 0.29905 0.0
H1471 H 0.6349 0.71231 0.33697 0.0
C1472 C 0.47035 0.39369 0.61063 0.0
C1473 C 0.48154 0.38945 0.64618 0.0
C1474 C 0.47499 0.39348 0.5631 0.0
C1475 C 0.49117 0.38875 0.55079 0.0
C1476 C 0.5022 0.38345 0.58629 0.0
C1477 C 0.49728 0.38395 0.63368 0.0
C1478 C 0.46289 0.39933 0.52641 0.0
C1479 C 0.51949 0.37808 0.57445 0.0
C1480 C 0.50164 0.38099 0.42203 0.0
C1481 C 0.50942 0.39578 0.40987 0.0
C1482 C 0.49556 0.37847 0.46782 0.0
C1483 C 0.49711 0.39114 0.50174 0.0
C1484 C 0.50451 0.40627 0.48905 0.0
C1485 C 0.51067 0.40834 0.4434 0.0
C1486 C 0.48789 0.36213 0.48025 0.0
C1487 C 0.50614 0.4202 0.52392 0.0
H1488 H 0.45813 0.39792 0.62004 0.0
H1489 H 0.50595 0.38057 0.661 0.0
H1490 H 0.46705 0.41132 0.51205 0.0
H1491 H 0.46232 0.39055 0.49661 0.0
H1492 H 0.45031 0.40091 0.54104 0.0
H1493 H 0.52583 0.37246 0.60511 0.0
H1494 H 0.51936 0.36909 0.5451 0.0
H1495 H 0.52675 0.38888 0.56263 0.0
H1496 H 0.50079 0.3712 0.39624 0.0
H1497 H 0.51664 0.41982 0.43405 0.0
H1498 H 0.47535 0.364 0.49465 0.0
H1499 H 0.49527 0.35605 0.50809 0.0
H1500 H 0.4871 0.35376 0.44943 0.0
H1501 H 0.49388 0.42347 0.53834 0.0
H1502 H 0.51167 0.43138 0.50791 0.0
H1503 H 0.51394 0.4163 0.55393 0.0
C1504 C 0.84148 0.25037 0.67164 0.0
C1505 C 0.85471 0.25682 0.64591 0.0
C1506 C 0.84348 0.24531 0.71846 0.0
C1507 C 0.8591 0.24672 0.74013 0.0
C1508 C 0.87268 0.2525 0.71368 0.0
C1509 C 0.87033 0.25749 0.66678 0.0
C1510 C 0.82869 0.23909 0.74531 0.0
C1511 C 0.88954 0.25406 0.73548 0.0
C1512 C 0.85714 0.25075 0.87317 0.0
C1513 C 0.85955 0.23443 0.88742 0.0
C1514 C 0.85773 0.25508 0.82533 0.0
C1515 C 0.86086 0.2428 0.79107 0.0
C1516 C 0.8642 0.2265 0.80554 0.0
C1517 C 0.86346 0.2225 0.85354 0.0
C1518 C 0.85415 0.27262 0.8113 0.0
C1519 C 0.86773 0.21309 0.77019 0.0
H1520 H 0.82938 0.24981 0.65569 0.0
H1521 H 0.88058 0.26253 0.64712 0.0
H1522 H 0.83136 0.22688 0.76095 0.0
H1523 H 0.82585 0.24761 0.77472 0.0
H1524 H 0.8176 0.23799 0.72268 0.0
H1525 H 0.89909 0.2573 0.70908 0.0
H1526 H 0.88932 0.26376 0.76295 0.0
H1527 H 0.8931 0.2424 0.75294 0.0
H1528 H 0.85414 0.26002 0.89921 0.0
H1529 H 0.86542 0.20987 0.86436 0.0
H1530 H 0.84231 0.27314 0.79193 0.0
H1531 H 0.86385 0.27728 0.78727 0.0
H1532 H 0.85334 0.28095 0.84221 0.0
H1533 H 0.85644 0.21043 0.7496 0.0
H1534 H 0.87185 0.20152 0.78732 0.0
H1535 H 0.87732 0.21713 0.74494 0.0
C1536 C 0.99739 0.58408 0.14481 0.0
C1537 C 0.0081 0.59551 0.16533 0.0
C1538 C 0.99318 0.5851 0.09705 0.0
C1539 C -0.0005 0.59813 0.06935 0.0
C1540 C 0.00989 0.61006 0.09026 0.0
C1541 C 0.01425 0.60848 0.13795 0.0
C1542 C 0.98226 0.57199 0.076 0.0
C1543 C 0.01646 0.62439 0.06222 0.0
C1544 C -0.00091 0.59037 0.93734 0.0
C1545 C 0.98369 0.59675 0.92517 0.0
C1546 C 0.00477 0.59129 0.98403 0.0
C1547 C 0.99499 0.5992 0.01866 0.0
C1548 C 0.97997 0.60668 0.00548 0.0
C1549 C 0.97438 0.60512 0.95906 0.0
C1550 C 0.02069 0.58288 0.99688 0.0
C1551 C 0.96941 0.61565 0.04088 0.0
H1552 H 0.99275 0.57393 0.1657 0.0
H1553 H 0.02255 0.61733 0.15374 0.0
H1554 H 0.97085 0.57763 0.062 0.0
H1555 H 0.98863 0.56597 0.04606 0.0
H1556 H 0.97879 0.5624 0.10202 0.0
H1557 H 0.02374 0.63302 0.08424 0.0
H1558 H 0.02439 0.61984 0.03324 0.0
H1559 H 0.00614 0.63124 0.04585 0.0
H1560 H 0.00621 0.58382 0.91108 0.0
H1561 H 0.96251 0.61018 0.9494 0.0
H1562 H 0.01804 0.57217 0.01986 0.0
H1563 H 0.02874 0.59134 0.01704 0.0
H1564 H 0.0275 0.57849 0.96537 0.0
H1565 H 0.96385 0.60668 0.0656 0.0
H1566 H 0.95934 0.62268 0.02375 0.0
H1567 H 0.97699 0.62428 0.06199 0.0
C1568 C 0.66834 0.2457 0.33612 0.0
C1569 C 0.65451 0.24683 0.36542 0.0
C1570 C 0.66692 0.24019 0.28955 0.0
C1571 C 0.65127 0.23578 0.2717 0.0
C1572 C 0.63735 0.23629 0.30164 0.0
C1573 C 0.63914 0.24177 0.34829 0.0
C1574 C 0.68211 0.23962 0.25895 0.0
C1575 C 0.62047 0.23169 0.28386 0.0
C1576 C 0.64733 0.23915 0.13875 0.0
C1577 C 0.65 0.22285 0.12478 0.0
C1578 C 0.64705 0.24344 0.18667 0.0
C1579 C 0.64955 0.23113 0.22127 0.0
C1580 C 0.6516 0.21457 0.20734 0.0
C1581 C 0.65179 0.21063 0.15928 0.0
C1582 C 0.64471 0.26124 0.2002 0.0
C1583 C 0.6543 0.20109 0.24309 0.0
H1584 H 0.68024 0.24958 0.34922 0.0
H1585 H 0.62839 0.24273 0.3707 0.0
H1586 H 0.68356 0.2272 0.24331 0.0
H1587 H 0.68083 0.24847 0.22946 0.0
H1588 H 0.69347 0.24267 0.27884 0.0
H1589 H 0.61111 0.23167 0.31238 0.0
H1590 H 0.61657 0.24054 0.25635 0.0
H1591 H 0.62075 0.21933 0.26736 0.0
H1592 H 0.6459 0.24863 0.11225 0.0
H1593 H 0.65381 0.19797 0.14874 0.0
H1594 H 0.65614 0.26599 0.21663 0.0
H1595 H 0.63473 0.2624 0.22664 0.0
H1596 H 0.64167 0.26909 0.16942 0.0
H1597 H 0.66625 0.20302 0.2611 0.0
H1598 H 0.65436 0.18868 0.22675 0.0
H1599 H 0.64457 0.20146 0.27046 0.0
C1600 C 0.99676 0.37554 0.6231 0.0
C1601 C 0.99446 0.3914 0.64139 0.0
C1602 C 0.00243 0.37323 0.5768 0.0
C1603 C 0.00582 0.3871 0.54826 0.0
C1604 C 0.00419 0.4031 0.56731 0.0
C1605 C -0.00145 0.40505 0.61362 0.0
C1606 C 0.00415 0.35598 0.55784 0.0
C1607 C 0.00775 0.41822 0.53814 0.0
C1608 C 0.03098 0.3848 0.43584 0.0
C1609 C 0.01868 0.38565 0.40131 0.0
C1610 C 0.02697 0.38447 0.4839 0.0
C1611 C 0.01026 0.38507 0.49773 0.0
C1612 C 0.99777 0.38515 0.46296 0.0
C1613 C 0.00213 0.38542 0.41514 0.0
C1614 C 0.04064 0.38426 0.51985 0.0
C1615 C 0.97979 0.38576 0.47627 0.0
H1616 H 0.99358 0.36494 0.64437 0.0
H1617 H 0.99682 0.41734 0.62755 0.0
H1618 H 0.99483 0.35387 0.52996 0.0
H1619 H 0.01643 0.35428 0.5415 0.0
H1620 H 0.00247 0.34653 0.58567 0.0
H1621 H 0.00667 0.42975 0.55891 0.0
H1622 H 0.02033 0.41754 0.52315 0.0
H1623 H -0.00099 0.41886 0.50819 0.0
H1624 H 0.04381 0.38492 0.42537 0.0
H1625 H 0.99257 0.38604 0.38862 0.0
H1626 H 0.03835 0.37462 0.54667 0.0
H1627 H 0.04104 0.39624 0.53849 0.0
H1628 H 0.05286 0.38203 0.50352 0.0
H1629 H 0.97686 0.37586 0.50176 0.0
H1630 H 0.9716 0.38446 0.44521 0.0
H1631 H 0.97706 0.39766 0.49372 0.0
C1632 C 0.83007 0.75066 0.80953 0.0
C1633 C 0.84379 0.74766 0.8381 0.0
C1634 C 0.83197 0.75593 0.76283 0.0
C1635 C 0.84798 0.75803 0.7441 0.0
C1636 C 0.86187 0.7557 0.77341 0.0
C1637 C 0.8596 0.75063 0.82024 0.0
C1638 C 0.81683 0.75857 0.73297 0.0
C1639 C 0.87912 0.75774 0.75466 0.0
C1640 C 0.85053 0.75264 0.61151 0.0
C1641 C 0.85035 0.76899 0.596 0.0
C1642 C 0.85047 0.7489 0.65978 0.0
C1643 C 0.85008 0.76183 0.69321 0.0
C1644 C 0.85055 0.77836 0.67772 0.0
C1645 C 0.85076 0.78173 0.62929 0.0
C1646 C 0.85019 0.73111 0.67497 0.0
C1647 C 0.85007 0.79248 0.7122 0.0
H1648 H 0.81783 0.74839 0.82324 0.0
H1649 H 0.87025 0.74819 0.84209 0.0
H1650 H 0.81726 0.77086 0.71604 0.0
H1651 H 0.81645 0.74926 0.70443 0.0
H1652 H 0.8053 0.75761 0.75376 0.0
H1653 H 0.88853 0.75685 0.7829 0.0
H1654 H 0.88164 0.74806 0.72811 0.0
H1655 H 0.88046 0.76979 0.73675 0.0
H1656 H 0.85026 0.74275 0.58594 0.0
H1657 H 0.85062 0.79441 0.61753 0.0
H1658 H 0.83826 0.7283 0.69212 0.0
H1659 H 0.86001 0.72877 0.70125 0.0
H1660 H 0.85189 0.72255 0.64489 0.0
H1661 H 0.83801 0.79261 0.73051 0.0
H1662 H 0.85187 0.80456 0.69468 0.0
H1663 H 0.8597 0.79093 0.73949 0.0
C1664 C 0.49903 0.57928 0.05056 0.0
C1665 C 0.4955 0.59035 0.08701 0.0
C1666 C 0.49241 0.58144 0.00549 0.0
C1667 C 0.48212 0.5951 0.99641 0.0
C1668 C 0.47831 0.60623 0.03321 0.0
C1669 C 0.485 0.60367 0.07829 0.0
C1670 C 0.49661 0.56915 0.96743 0.0
C1671 C 0.46745 0.62098 0.0247 0.0
C1672 C 0.47948 0.6057 0.8665 0.0
C1673 C 0.46511 0.59736 0.85337 0.0
C1674 C 0.4847 0.6059 0.91366 0.0
C1675 C 0.47537 0.59749 0.94824 0.0
C1676 C 0.46043 0.58978 0.93547 0.0
C1677 C 0.45547 0.58984 0.88823 0.0
C1678 C 0.50064 0.61439 0.92603 0.0
C1679 C 0.45015 0.58062 0.97118 0.0
H1680 H 0.50711 0.56894 0.05717 0.0
H1681 H 0.48236 0.61232 0.10632 0.0
H1682 H 0.48518 0.56372 0.9528 0.0
H1683 H 0.50308 0.57542 0.93811 0.0
H1684 H 0.50454 0.55902 0.98055 0.0
H1685 H 0.46538 0.62827 0.05724 0.0
H1686 H 0.47315 0.62907 0.9978 0.0
H1687 H 0.45536 0.61699 0.01066 0.0
H1688 H 0.48693 0.6116 0.83975 0.0
H1689 H 0.44429 0.58344 0.87838 0.0
H1690 H 0.51005 0.60506 0.93526 0.0
H1691 H 0.49895 0.62241 0.95725 0.0
H1692 H 0.50542 0.62196 0.89647 0.0
H1693 H 0.45685 0.56947 0.98293 0.0
H1694 H 0.43806 0.57678 0.95664 0.0
H1695 H 0.44799 0.58836 0.00273 0.0
C1696 C 0.35657 0.24384 0.59541 0.0
C1697 C 0.34817 0.2292 0.58544 0.0
C1698 C 0.35766 0.24977 0.6418 0.0
C1699 C 0.34989 0.24101 0.67876 0.0
C1700 C 0.34201 0.22587 0.66905 0.0
C1701 C 0.34137 0.22009 0.6226 0.0
C1702 C 0.36646 0.2658 0.65091 0.0
C1703 C 0.33332 0.21628 0.7072 0.0
C1704 C 0.357 0.25181 0.8078 0.0
C1705 C 0.3437 0.26233 0.81656 0.0
C1706 C 0.35946 0.24501 0.76275 0.0
C1707 C 0.34815 0.24859 0.7262 0.0
C1708 C 0.33463 0.25909 0.73522 0.0
C1709 C 0.33268 0.26594 0.78008 0.0
C1710 C 0.37417 0.23411 0.75414 0.0
C1711 C 0.32207 0.26296 0.69761 0.0
H1712 H 0.36197 0.25085 0.56686 0.0
H1713 H 0.33488 0.20874 0.61517 0.0
H1714 H 0.35733 0.2755 0.65939 0.0
H1715 H 0.37479 0.26462 0.68166 0.0
H1716 H 0.37376 0.26989 0.61998 0.0
H1717 H 0.32907 0.20405 0.69472 0.0
H1718 H 0.34154 0.21447 0.73789 0.0
H1719 H 0.32246 0.22332 0.71961 0.0
H1720 H 0.36561 0.24912 0.83588 0.0
H1721 H 0.32233 0.27402 0.78675 0.0
H1722 H 0.38163 0.2391 0.72471 0.0
H1723 H 0.37004 0.22165 0.74357 0.0
H1724 H 0.38212 0.23298 0.78577 0.0
H1725 H 0.32815 0.26892 0.66711 0.0
H1726 H 0.31218 0.27123 0.71056 0.0
H1727 H 0.31635 0.25142 0.68472 0.0
C1728 C 0.49096 0.59533 0.57274 0.0
C1729 C 0.47472 0.59979 0.58301 0.0
C1730 C 0.49685 0.59583 0.52619 0.0
C1731 C 0.48633 0.60128 0.48955 0.0
C1732 C 0.47029 0.60685 0.50049 0.0
C1733 C 0.46461 0.60582 0.54698 0.0
C1734 C 0.51395 0.58958 0.51585 0.0
C1735 C 0.45882 0.61314 0.46276 0.0
C1736 C 0.5048 0.61066 0.36929 0.0
C1737 C 0.50097 0.59629 0.3443 0.0
C1738 C 0.49998 0.61259 0.41651 0.0
C1739 C 0.49144 0.59968 0.43941 0.0
C1740 C 0.4875 0.58518 0.41418 0.0
C1741 C 0.49217 0.58374 0.36683 0.0
C1742 C 0.50406 0.62837 0.44192 0.0
C1743 C 0.47857 0.57106 0.43742 0.0
H1744 H 0.49873 0.59056 0.60057 0.0
H1745 H 0.45207 0.60941 0.55501 0.0
H1746 H 0.51312 0.57801 0.49523 0.0
H1747 H 0.52083 0.59859 0.49416 0.0
H1748 H 0.52105 0.58709 0.54849 0.0
H1749 H 0.44759 0.61888 0.47781 0.0
H1750 H 0.46518 0.62231 0.44028 0.0
H1751 H 0.45501 0.60281 0.43971 0.0
H1752 H 0.51162 0.62039 0.35198 0.0
H1753 H 0.48932 0.57254 0.3478 0.0
H1754 H 0.51215 0.62575 0.47244 0.0
H1755 H 0.49265 0.63404 0.45591 0.0
H1756 H 0.51033 0.6374 0.41871 0.0
H1757 H 0.48555 0.56682 0.4687 0.0
H1758 H 0.47683 0.56046 0.41325 0.0
H1759 H 0.46631 0.57518 0.44988 0.0
C1760 C 0.16151 0.73834 0.27451 0.0
C1761 C 0.14842 0.73739 0.30644 0.0
C1762 C 0.15913 0.74424 0.22871 0.0
C1763 C 0.14317 0.74898 0.2141 0.0
C1764 C 0.12992 0.74834 0.24647 0.0
C1765 C 0.13275 0.74268 0.29257 0.0
C1766 C 0.17367 0.74508 0.19566 0.0
C1767 C 0.11271 0.75306 0.23195 0.0
C1768 C 0.14323 0.7753 0.10418 0.0
C1769 C 0.14203 0.76333 0.06878 0.0
C1770 C 0.14263 0.77095 0.15192 0.0
C1771 C 0.14053 0.75425 0.16452 0.0
C1772 C 0.13803 0.7423 0.12893 0.0
C1773 C 0.13894 0.74696 0.0814 0.0
C1774 C 0.1455 0.78405 0.18868 0.0
C1775 C 0.13542 0.72441 0.14099 0.0
H1776 H 0.17365 0.73432 0.28527 0.0
H1777 H 0.12258 0.7418 0.31714 0.0
H1778 H 0.17175 0.73656 0.16566 0.0
H1779 H 0.17487 0.75766 0.18096 0.0
H1780 H 0.1854 0.74176 0.21331 0.0
H1781 H 0.10395 0.75277 0.26198 0.0
H1782 H 0.11263 0.76557 0.2164 0.0
H1783 H 0.10826 0.74446 0.20443 0.0
H1784 H 0.14558 0.788 0.09467 0.0
H1785 H 0.13789 0.73768 0.05417 0.0
H1786 H 0.15786 0.78233 0.20448 0.0
H1787 H 0.13636 0.78302 0.2175 0.0
H1788 H 0.14484 0.79664 0.17363 0.0
H1789 H 0.14709 0.71909 0.1543 0.0
H1790 H 0.13137 0.71713 0.11 0.0
H1791 H 0.1261 0.72313 0.1693 0.0
C1792 C 0.96575 0.38693 0.93599 0.0
C1793 C 0.97795 0.38624 0.90109 0.0
C1794 C 0.96988 0.38631 0.98395 0.0
C1795 C 0.9866 0.38501 0.99728 0.0
C1796 C -0.00113 0.38344 0.96214 0.0
C1797 C 0.9944 0.38408 0.91445 0.0
C1798 C 0.95642 0.38794 0.02029 0.0
C1799 C 0.01684 0.38198 0.97489 0.0
C1800 C 0.00092 0.40472 0.11105 0.0
C1801 C 0.00337 0.39102 0.14015 0.0
C1802 C 0.99502 0.40292 0.065 0.0
C1803 C 0.99145 0.38702 0.04749 0.0
C1804 C 0.99327 0.37317 0.07729 0.0
C1805 C -0.00079 0.37534 0.12338 0.0
C1806 C 0.99317 0.41803 0.0345 0.0
C1807 C 0.98952 0.35604 0.05993 0.0
H1808 H 0.95299 0.38853 0.92591 0.0
H1809 H 0.00387 0.38349 0.88764 0.0
H1810 H 0.95774 0.37836 0.04782 0.0
H1811 H 0.95743 0.40006 0.03795 0.0
H1812 H 0.94397 0.38692 0.00447 0.0
H1813 H 0.02467 0.37932 0.94374 0.0
H1814 H 0.02111 0.39365 0.99104 0.0
H1815 H 0.01866 0.37209 1.00128 0.0
H1816 H 0.00408 0.41688 0.12382 0.0
H1817 H 0.00114 0.3647 0.14568 0.0
H1818 H 0.98053 0.41869 0.01994 0.0
H1819 H 0.00178 0.4173 0.00427 0.0
H1820 H 0.99571 0.42957 0.05414 0.0
H1821 H 0.97707 0.35559 0.04405 0.0
H1822 H 0.99022 0.34676 0.08854 0.0
H1823 H -0.00157 0.3526 0.03202 0.0
C1824 C 0.36039 0.78089 0.84995 0.0
C1825 C 0.36025 0.7685 0.88431 0.0
C1826 C 0.36094 0.777 0.80187 0.0
C1827 C 0.36125 0.76031 0.78785 0.0
C1828 C 0.36224 0.74779 0.82245 0.0
C1829 C 0.36178 0.75205 0.87034 0.0
C1830 C 0.36005 0.79071 0.76615 0.0
C1831 C 0.36262 0.72984 0.80895 0.0
C1832 C 0.33892 0.74834 0.67598 0.0
C1833 C 0.35195 0.74514 0.64498 0.0
C1834 C 0.34184 0.75363 0.72212 0.0
C1835 C 0.35822 0.75586 0.73777 0.0
C1836 C 0.37144 0.75329 0.70612 0.0
C1837 C 0.36815 0.74792 0.65997 0.0
C1838 C 0.32736 0.7563 0.75463 0.0
C1839 C 0.38905 0.75567 0.72146 0.0
H1840 H 0.35935 0.79366 0.86055 0.0
H1841 H 0.36173 0.74243 0.89675 0.0
H1842 H 0.36911 0.78872 0.73753 0.0
H1843 H 0.34764 0.79086 0.74987 0.0
H1844 H 0.36234 0.80294 0.78232 0.0
H1845 H 0.36536 0.72177 0.8395 0.0
H1846 H 0.35049 0.72624 0.79428 0.0
H1847 H 0.37197 0.72763 0.78122 0.0
H1848 H 0.32637 0.74625 0.66459 0.0
H1849 H 0.37827 0.7454 0.63619 0.0
H1850 H 0.32771 0.76892 0.76942 0.0
H1851 H 0.32805 0.74759 0.78462 0.0
H1852 H 0.31538 0.75453 0.73653 0.0
H1853 H 0.39061 0.7679 0.73819 0.0
H1854 H 0.39781 0.75463 0.69159 0.0
H1855 H 0.39229 0.74628 0.74821 0.0
C1856 C 0.96122 0.59348 0.62069 0.0
C1857 C 0.97331 0.59589 0.65526 0.0
C1858 C 0.96528 0.59338 0.5727 0.0
C1859 C 0.98185 0.59564 0.55893 0.0
C1860 C 0.99399 0.59882 0.59356 0.0
C1861 C 0.98956 0.59896 0.64138 0.0
C1862 C 0.95195 0.5901 0.5369 0.0
C1863 C 0.0118 0.6013 0.58026 0.0
C1864 C 0.99699 0.57512 0.44715 0.0
C1865 C -0.00167 0.58847 0.41619 0.0
C1866 C 0.99128 0.57726 0.49331 0.0
C1867 C 0.98674 0.59316 0.50893 0.0
C1868 C 0.9874 0.60659 0.47725 0.0
C1869 C 0.99321 0.60409 0.43117 0.0
C1870 C 0.99068 0.56259 0.52588 0.0
C1871 C 0.98252 0.62368 0.49252 0.0
H1872 H 0.9486 0.59122 0.63118 0.0
H1873 H -0.00106 0.60085 0.66794 0.0
H1874 H 0.95245 0.59933 0.5082 0.0
H1875 H 0.95393 0.57784 0.52068 0.0
H1876 H 0.93947 0.59033 0.55283 0.0
H1877 H 0.01947 0.60497 0.61087 0.0
H1878 H 0.01682 0.58972 0.56544 0.0
H1879 H 0.01289 0.61088 0.55263 0.0
H1880 H 0.00092 0.56301 0.43581 0.0
H1881 H 0.99428 0.61447 0.40745 0.0
H1882 H 0.97816 0.56122 0.54092 0.0
H1883 H -0.00072 0.5645 0.5557 0.0
H1884 H 0.99404 0.55096 0.50775 0.0
H1885 H 0.97011 0.62352 0.50872 0.0
H1886 H 0.9825 0.63253 0.46272 0.0
H1887 H 0.99124 0.62818 0.51967 0.0
C1888 C 0.12513 0.24894 0.15036 0.0
C1889 C 0.14113 0.25101 0.13281 0.0
C1890 C 0.12248 0.2435 0.19677 0.0
C1891 C 0.13616 0.24014 0.22612 0.0
C1892 C 0.15229 0.24143 0.20768 0.0
C1893 C 0.15456 0.24681 0.16129 0.0
C1894 C 0.10511 0.2421 0.21503 0.0
C1895 C 0.16722 0.23787 0.23765 0.0
C1896 C 0.13485 0.24524 0.35877 0.0
C1897 C 0.1354 0.22885 0.37392 0.0
C1898 C 0.13415 0.24909 0.31063 0.0
C1899 C 0.13388 0.23625 0.27693 0.0
C1900 C 0.13334 0.2197 0.29221 0.0
C1901 C 0.13417 0.21619 0.34054 0.0
C1902 C 0.13474 0.26691 0.2958 0.0
C1903 C 0.13284 0.20566 0.25748 0.0
H1904 H 0.1147 0.25222 0.12855 0.0
H1905 H 0.16696 0.24834 0.1479 0.0
H1906 H 0.10329 0.23016 0.23317 0.0
H1907 H 0.10281 0.25195 0.24125 0.0
H1908 H 0.09586 0.24324 0.18644 0.0
H1909 H 0.17886 0.23863 0.21728 0.0
H1910 H 0.16785 0.24682 0.26708 0.0
H1911 H 0.16628 0.22542 0.25336 0.0
H1912 H 0.13576 0.25507 0.38439 0.0
H1913 H 0.13447 0.20349 0.35206 0.0
H1914 H 0.12491 0.26956 0.26981 0.0
H1915 H 0.1467 0.2695 0.27845 0.0
H1916 H 0.13332 0.27542 0.32612 0.0
H1917 H 0.12339 0.20793 0.23007 0.0
H1918 H 0.13016 0.19372 0.27486 0.0
H1919 H 0.1449 0.20468 0.2394 0.0
C1920 C 0.50456 0.39059 0.1302 0.0
C1921 C 0.52088 0.38856 0.14499 0.0
C1922 C 0.50044 0.38999 0.08224 0.0
C1923 C 0.51292 0.38721 0.04833 0.0
C1924 C 0.52927 0.38431 0.06328 0.0
C1925 C 0.53306 0.38508 0.11144 0.0
C1926 C 0.48285 0.39312 0.06773 0.0
C1927 C 0.54289 0.38114 0.0283 0.0
C1928 C 0.49823 0.37717 0.92449 0.0
C1929 C 0.49838 0.39278 0.90346 0.0
C1930 C 0.50354 0.375 0.97117 0.0
C1931 C 0.50907 0.38876 0.99729 0.0
C1932 C 0.51001 0.40437 0.97537 0.0
C1933 C 0.50468 0.40618 0.92873 0.0
C1934 C 0.50252 0.35813 0.99317 0.0
C1935 C 0.5159 0.41935 0.0019 0.0
H1936 H 0.4951 0.39327 0.15597 0.0
H1937 H 0.54569 0.38342 0.12267 0.0
H1938 H 0.48212 0.40485 0.04788 0.0
H1939 H 0.47848 0.38321 0.044 0.0
H1940 H 0.47442 0.39389 0.09844 0.0
H1941 H 0.55451 0.37737 0.04575 0.0
H1942 H 0.5392 0.37141 0.00305 0.0
H1943 H 0.54527 0.39247 0.00765 0.0
H1944 H 0.49335 0.36677 0.90516 0.0
H1945 H 0.50485 0.41827 0.91266 0.0
H1946 H 0.49277 0.35806 0.02052 0.0
H1947 H 0.51427 0.35499 0.01081 0.0
H1948 H 0.49964 0.34845 0.96685 0.0
H1949 H 0.50727 0.42211 0.03113 0.0
H1950 H 0.51681 0.43038 0.97899 0.0
H1951 H 0.52814 0.41698 0.01775 0.0
C1952 C 0.13038 0.32599 0.11681 0.0
C1953 C 0.12388 0.3184 0.07659 0.0
C1954 C 0.12086 0.33689 0.1436 0.0
C1955 C 0.10455 0.34038 0.1294 0.0
C1956 C 0.09818 0.33327 0.08773 0.0
C1957 C 0.10791 0.32228 0.06194 0.0
C1958 C 0.128 0.34417 0.18801 0.0
C1959 C 0.0809 0.33689 0.07117 0.0
C1960 C 0.07209 0.35297 0.21787 0.0
C1961 C 0.07078 0.36987 0.20911 0.0
C1962 C 0.08354 0.34333 0.19343 0.0
C1963 C 0.09378 0.35077 0.15921 0.0
C1964 C 0.09294 0.36794 0.1515 0.0
C1965 C 0.08146 0.37731 0.17674 0.0
C1966 C 0.08424 0.32507 0.20297 0.0
C1967 C 0.10364 0.37627 0.11517 0.0
H1968 H 0.14273 0.32296 0.12831 0.0
H1969 H 0.10289 0.31648 0.03073 0.0
H1970 H 0.12665 0.35774 0.18783 0.0
H1971 H 0.12114 0.33948 0.219 0.0
H1972 H 0.14122 0.34109 0.19245 0.0
H1973 H 0.07819 0.33118 0.0365 0.0
H1974 H 0.0719 0.33217 0.09727 0.0
H1975 H 0.07899 0.35036 0.06833 0.0
H1976 H 0.0639 0.3472 0.24304 0.0
H1977 H 0.08048 0.39038 0.16987 0.0
H1978 H 0.09707 0.32123 0.21042 0.0
H1979 H 0.08012 0.31822 0.17131 0.0
H1980 H 0.07635 0.32142 0.23315 0.0
H1981 H 0.11674 0.37305 0.12079 0.0
H1982 H 0.10238 0.38987 0.11604 0.0
H1983 H 0.10021 0.37187 0.07953 0.0
C1984 C 0.87122 0.83374 0.42938 0.0
C1985 C 0.87119 0.81808 0.40902 0.0
C1986 C 0.88233 0.84579 0.41394 0.0
C1987 C 0.89318 0.84215 0.37633 0.0
C1988 C 0.89264 0.82654 0.35441 0.0
C1989 C 0.88183 0.81457 0.37161 0.0
C1990 C 0.88291 0.86216 0.43899 0.0
C1991 C 0.90369 0.82237 0.31334 0.0
C1992 C 0.91445 0.87737 0.31331 0.0
C1993 C 0.93034 0.87626 0.33196 0.0
C1994 C 0.90216 0.86627 0.32725 0.0
C1995 C 0.90581 0.85424 0.36172 0.0
C1996 C 0.92177 0.85339 0.38143 0.0
C1997 C 0.93393 0.86425 0.36569 0.0
C1998 C 0.88541 0.86719 0.30447 0.0
C1999 C 0.92601 0.841 0.41915 0.0
H2000 H 0.86299 0.83636 0.45845 0.0
H2001 H 0.8816 0.80247 0.35557 0.0
H2002 H 0.89513 0.86379 0.45571 0.0
H2003 H 0.8813 0.87235 0.41348 0.0
H2004 H 0.87328 0.86321 0.4666 0.0
H2005 H 0.90064 0.81025 0.29754 0.0
H2006 H 0.90268 0.83195 0.28569 0.0
H2007 H 0.91669 0.82209 0.32509 0.0
H2008 H 0.91175 0.88666 0.28706 0.0
H2009 H 0.94621 0.86356 0.38047 0.0
H2010 H 0.87579 0.86911 0.33161 0.0
H2011 H 0.88262 0.85537 0.28664 0.0
H2012 H 0.88458 0.87727 0.27821 0.0
H2013 H 0.91723 0.84204 0.44891 0.0
H2014 H 0.93869 0.84268 0.43291 0.0
H2015 H 0.92492 0.82836 0.40487 0.0
C2016 C 0.37763 0.6708 0.56352 0.0
C2017 C 0.36237 0.67642 0.57964 0.0
C2018 C 0.3859 0.65811 0.58684 0.0
C2019 C 0.37882 0.65106 0.62767 0.0
C2020 C 0.36314 0.65631 0.64324 0.0
C2021 C 0.35502 0.6689 0.61876 0.0
C2022 C 0.40251 0.65266 0.5687 0.0
C2023 C 0.35531 0.64916 0.68685 0.0
C2024 C 0.39939 0.61138 0.66404 0.0
C2025 C 0.41183 0.61735 0.69359 0.0
C2026 C 0.38774 0.6221 0.64448 0.0
C2027 C 0.3885 0.63905 0.65541 0.0
C2028 C 0.40016 0.64485 0.68849 0.0
C2029 C 0.41179 0.63392 0.70693 0.0
C2030 C 0.37552 0.61548 0.60923 0.0
C2031 C 0.40114 0.66281 0.70175 0.0
H2032 H 0.38326 0.67653 0.53305 0.0
H2033 H 0.34322 0.67329 0.63135 0.0
H2034 H 0.41217 0.65584 0.59473 0.0
H2035 H 0.40272 0.63911 0.56406 0.0
H2036 H 0.4057 0.65853 0.53459 0.0
H2037 H 0.34239 0.65333 0.69144 0.0
H2038 H 0.35549 0.63553 0.68551 0.0
H2039 H 0.36247 0.65293 0.71828 0.0
H2040 H 0.3994 0.59855 0.65369 0.0
H2041 H 0.42132 0.63851 0.7302 0.0
H2042 H 0.37926 0.61933 0.57331 0.0
H2043 H 0.36308 0.62056 0.61583 0.0
H2044 H 0.37483 0.60184 0.61008 0.0
H2045 H 0.40601 0.66996 0.67154 0.0
H2046 H 0.4093 0.6649 0.73252 0.0
H2047 H 0.38873 0.66769 0.71005 0.0
C2048 C 0.61503 0.16828 0.95445 0.0
C2049 C 0.63187 0.1691 0.94436 0.0
C2050 C 0.60508 0.15624 0.93379 0.0
C2051 C 0.61215 0.14484 0.90204 0.0
C2052 C 0.6293 0.14506 0.89362 0.0
C2053 C 0.63901 0.15721 0.91507 0.0
C2054 C 0.58684 0.15628 0.94405 0.0
C2055 C 0.63725 0.13309 0.85998 0.0
C2056 C 0.58445 0.10923 0.86874 0.0
C2057 C 0.57677 0.1155 0.82839 0.0
C2058 C 0.59665 0.1183 0.89209 0.0
C2059 C 0.60125 0.1339 0.87436 0.0
C2060 C 0.5942 0.13981 0.83209 0.0
C2061 C 0.58199 0.13055 0.80969 0.0
C2062 C 0.60392 0.11162 0.93707 0.0
C2063 C 0.59891 0.15634 0.81183 0.0
H2064 H 0.60951 0.17739 0.97741 0.0
H2065 H 0.65205 0.15781 0.90727 0.0
H2066 H 0.57998 0.15988 0.91189 0.0
H2067 H 0.58265 0.14378 0.95407 0.0
H2068 H 0.58355 0.16495 0.97276 0.0
H2069 H 0.65089 0.13356 0.86176 0.0
H2070 H 0.63315 0.12035 0.86753 0.0
H2071 H 0.63341 0.13604 0.82346 0.0
H2072 H 0.58044 0.09757 0.88324 0.0
H2073 H 0.57616 0.13537 0.77826 0.0
H2074 H 0.59934 0.11891 0.96735 0.0
H2075 H 0.61752 0.11276 0.93667 0.0
H2076 H 0.60062 0.09852 0.94287 0.0
H2077 H 0.59471 0.16626 0.83581 0.0
H2078 H 0.59339 0.15845 0.77659 0.0
H2079 H 0.61248 0.15736 0.80877 0.0
C2080 C 0.06983 0.6182 0.37553 0.0
C2081 C 0.06855 0.61177 0.32996 0.0
C2082 C 0.08245 0.62914 0.38734 0.0
C2083 C 0.09388 0.63397 0.35241 0.0
C2084 C 0.09303 0.62703 0.30676 0.0
C2085 C 0.0804 0.61586 0.29614 0.0
C2086 C 0.0831 0.63607 0.43663 0.0
C2087 C 0.10491 0.63206 0.26853 0.0
C2088 C 0.11075 0.67674 0.37143 0.0
C2089 C 0.12625 0.67343 0.39068 0.0
C2090 C 0.1004 0.66396 0.35698 0.0
C2091 C 0.10558 0.64747 0.36271 0.0
C2092 C 0.12137 0.64404 0.3813 0.0
C2093 C 0.13162 0.65712 0.39475 0.0
C2094 C 0.08373 0.66812 0.33669 0.0
C2095 C 0.12718 0.62659 0.38847 0.0
H2096 H 0.06076 0.61489 0.40189 0.0
H2097 H 0.07939 0.61087 0.26087 0.0
H2098 H 0.09571 0.63494 0.45123 0.0
H2099 H 0.07999 0.64936 0.4358 0.0
H2100 H 0.07438 0.62979 0.46079 0.0
H2101 H 0.10363 0.62435 0.23646 0.0
H2102 H 0.10265 0.64508 0.25876 0.0
H2103 H 0.11777 0.63121 0.28131 0.0
H2104 H 0.10667 0.68936 0.36774 0.0
H2105 H 0.14363 0.65457 0.40963 0.0
H2106 H 0.07392 0.66374 0.36079 0.0
H2107 H 0.08198 0.66178 0.30248 0.0
H2108 H 0.08211 0.68155 0.33124 0.0
H2109 H 0.11938 0.62049 0.41537 0.0
H2110 H 0.1402 0.62602 0.4002 0.0
H2111 H 0.1259 0.61946 0.3554 0.0
C2112 C 0.63493 0.8273 0.6419 0.0
C2113 C 0.63191 0.81971 0.59845 0.0
C2114 C 0.62424 0.83937 0.65941 0.0
C2115 C 0.61032 0.84397 0.63262 0.0
C2116 C 0.6077 0.83694 0.58765 0.0
C2117 C 0.61853 0.82484 0.57115 0.0
C2118 C 0.62741 0.8466 0.70752 0.0
C2119 C 0.59306 0.84166 0.55789 0.0
C2120 C 0.57172 0.85876 0.69387 0.0
C2121 C 0.57238 0.87571 0.68551 0.0
C2122 C 0.58429 0.84836 0.67809 0.0
C2123 C 0.59775 0.85509 0.65299 0.0
C2124 C 0.59871 0.87227 0.64555 0.0
C2125 C 0.58601 0.88241 0.66212 0.0
C2126 C 0.58294 0.8301 0.68714 0.0
C2127 C 0.61285 0.87984 0.61875 0.0
H2128 H 0.64529 0.82337 0.6631 0.0
H2129 H 0.61621 0.81905 0.53742 0.0
H2130 H 0.62683 0.86022 0.70616 0.0
H2131 H 0.6177 0.84243 0.73228 0.0
H2132 H 0.63957 0.84289 0.72185 0.0
H2133 H 0.59356 0.83611 0.52219 0.0
H2134 H 0.58157 0.83753 0.57539 0.0
H2135 H 0.59233 0.85523 0.55423 0.0
H2136 H 0.56123 0.85356 0.71216 0.0
H2137 H 0.58654 0.89553 0.65555 0.0
H2138 H 0.59425 0.82555 0.70467 0.0
H2139 H 0.58178 0.82345 0.65321 0.0
H2140 H 0.57217 0.82697 0.7095 0.0
H2141 H 0.62475 0.87596 0.63426 0.0
H2142 H 0.6123 0.89349 0.61862 0.0
H2143 H 0.61267 0.87545 0.58178 0.0
C2144 C 0.41933 0.38374 0.87164 0.0
C2145 C 0.42679 0.37883 0.82942 0.0
C2146 C 0.40642 0.37457 0.89126 0.0
C2147 C 0.4008 0.36031 0.86771 0.0
C2148 C 0.40775 0.3558 0.82386 0.0
C2149 C 0.42075 0.36507 0.80539 0.0
C2150 C 0.39939 0.37966 0.93823 0.0
C2151 C 0.40192 0.34078 0.7974 0.0
C2152 C 0.38329 0.32393 0.93339 0.0
C2153 C 0.36652 0.32523 0.92287 0.0
C2154 C 0.39448 0.33583 0.9178 0.0
C2155 C 0.38873 0.3492 0.89049 0.0
C2156 C 0.3717 0.35101 0.88168 0.0
C2157 C 0.36073 0.339 0.89829 0.0
C2158 C 0.41254 0.33363 0.92857 0.0
C2159 C 0.36517 0.36507 0.8525 0.0
H2160 H 0.424 0.39439 0.8903 0.0
H2161 H 0.42641 0.36133 0.77253 0.0
H2162 H 0.38576 0.37991 0.93679 0.0
H2163 H 0.40292 0.37052 0.9654 0.0
H2164 H 0.40387 0.39195 0.9495 0.0
H2165 H 0.40759 0.33981 0.76192 0.0
H2166 H 0.40506 0.32954 0.81764 0.0
H2167 H 0.38835 0.34105 0.79337 0.0
H2168 H 0.38776 0.31336 0.95279 0.0
H2169 H 0.34775 0.34 0.8901 0.0
H2170 H 0.41776 0.34515 0.94323 0.0
H2171 H 0.41931 0.33085 0.8956 0.0
H2172 H 0.41477 0.32349 0.95398 0.0
H2173 H 0.37025 0.37694 0.86508 0.0
H2174 H 0.35152 0.36574 0.85337 0.0
H2175 H 0.36914 0.3635 0.81541 0.0
C2176 C 0.88969 0.17721 0.06523 0.0
C2177 C 0.87256 0.17804 0.06983 0.0
C2178 C 0.89866 0.16467 0.08714 0.0
C2179 C 0.89029 0.15281 0.11467 0.0
C2180 C 0.87293 0.15321 0.11796 0.0
C2181 C 0.86424 0.16582 0.09525 0.0
C2182 C 0.91717 0.16452 0.08235 0.0
C2183 C 0.86363 0.1408 0.14715 0.0
C2184 C 0.91586 0.11559 0.1471 0.0
C2185 C 0.92251 0.12062 0.19028 0.0
C2186 C 0.90464 0.1256 0.12289 0.0
C2187 C 0.89993 0.14085 0.14271 0.0
C2188 C 0.90579 0.14544 0.18774 0.0
C2189 C 0.9171 0.13529 0.2109 0.0
C2190 C 0.89867 0.12033 0.0749 0.0
C2191 C 0.90086 0.16152 0.21031 0.0
H2192 H 0.89614 0.18658 0.04532 0.0
H2193 H 0.85098 0.16645 0.09887 0.0
H2194 H 0.92289 0.16704 0.11706 0.0
H2195 H 0.92145 0.15221 0.07077 0.0
H2196 H 0.92165 0.17385 0.05681 0.0
H2197 H 0.8501 0.14184 0.14238 0.0
H2198 H 0.86749 0.12812 0.13791 0.0
H2199 H 0.86651 0.14268 0.18494 0.0
H2200 H 0.92004 0.10424 0.13106 0.0
H2201 H 0.92213 0.13913 0.24448 0.0
H2202 H 0.9044 0.12823 0.0476 0.0
H2203 H 0.88515 0.12189 0.07205 0.0
H2204 H 0.90181 0.10731 0.06712 0.0
H2205 H 0.90619 0.17189 0.19005 0.0
H2206 H 0.90514 0.16246 0.24733 0.0
H2207 H 0.88729 0.16296 0.20966 0.0
C2208 C 0.8724 0.68036 0.85697 0.0
C2209 C 0.86566 0.67876 0.90211 0.0
C2210 C 0.88245 0.66805 0.83807 0.0
C2211 C 0.88621 0.65407 0.86565 0.0
C2212 C 0.87897 0.65213 0.91068 0.0
C2213 C 0.86855 0.66445 0.92818 0.0
C2214 C 0.8896 0.67036 0.78944 0.0
C2215 C 0.88299 0.63754 0.94146 0.0
C2216 C 0.90733 0.6173 0.80962 0.0
C2217 C 0.92387 0.6208 0.81915 0.0
C2218 C 0.89485 0.62813 0.82399 0.0
C2219 C 0.89909 0.64248 0.84947 0.0
C2220 C 0.91579 0.64599 0.85924 0.0
C2221 C 0.92799 0.63521 0.84341 0.0
C2222 C 0.87719 0.62426 0.81193 0.0
C2223 C 0.92078 0.66104 0.88703 0.0
H2224 H 0.86996 0.69137 0.83659 0.0
H2225 H 0.86333 0.66328 0.96314 0.0
H2226 H 0.90299 0.67279 0.79218 0.0
H2227 H 0.88804 0.659 0.76824 0.0
H2228 H 0.88379 0.68078 0.7704 0.0
H2229 H 0.87532 0.63719 0.97382 0.0
H2230 H 0.8812 0.62591 0.92179 0.0
H2231 H 0.89612 0.6381 0.95198 0.0
H2232 H 0.90417 0.60614 0.79081 0.0
H2233 H 0.94078 0.63783 0.85129 0.0
H2234 H 0.87173 0.63459 0.79178 0.0
H2235 H 0.86987 0.62285 0.84462 0.0
H2236 H 0.87601 0.61282 0.79082 0.0
H2237 H 0.91694 0.67233 0.86812 0.0
H2238 H 0.93427 0.66163 0.89306 0.0
H2239 H 0.91448 0.66106 0.92169 0.0
C2240 C 0.11057 0.17208 0.55194 0.0
C2241 C 0.12569 0.17749 0.56971 0.0
C2242 C 0.10095 0.16081 0.5771 0.0
C2243 C 0.10653 0.15503 0.62131 0.0
C2244 C 0.12212 0.15991 0.63845 0.0
C2245 C 0.13159 0.17103 0.61222 0.0
C2246 C 0.08449 0.15566 0.55734 0.0
C2247 C 0.1284 0.1541 0.68561 0.0
C2248 C 0.07208 0.14359 0.70453 0.0
C2249 C 0.07169 0.12646 0.69987 0.0
C2250 C 0.08388 0.15298 0.68073 0.0
C2251 C 0.0954 0.14502 0.6511 0.0
C2252 C 0.09548 0.12766 0.64773 0.0
C2253 C 0.08365 0.11855 0.67247 0.0
C2254 C 0.0836 0.17147 0.6858 0.0
C2255 C 0.10752 0.11878 0.61623 0.0
H2256 H 0.10604 0.177 0.51892 0.0
H2257 H 0.14327 0.17523 0.6261 0.0
H2258 H 0.08332 0.14207 0.55784 0.0
H2259 H 0.07448 0.16071 0.5796 0.0
H2260 H 0.08266 0.16005 0.52069 0.0
H2261 H 0.1414 0.15771 0.69171 0.0
H2262 H 0.12072 0.15946 0.71405 0.0
H2263 H 0.1274 0.14053 0.68844 0.0
H2264 H 0.06289 0.14971 0.72594 0.0
H2265 H 0.08333 0.10529 0.66871 0.0
H2266 H 0.0801 0.17716 0.65176 0.0
H2267 H 0.09602 0.1761 0.69508 0.0
H2268 H 0.07475 0.17561 0.71314 0.0
H2269 H 0.1048 0.12174 0.57891 0.0
H2270 H 0.10693 0.10523 0.62078 0.0
H2271 H 0.12026 0.12295 0.62342 0.0
C2272 C 0.5883 0.37308 0.32534 0.0
C2273 C 0.57158 0.37022 0.33393 0.0
C2274 C 0.60034 0.36278 0.34496 0.0
C2275 C 0.59546 0.34967 0.37467 0.0
C2276 C 0.5786 0.34711 0.38457 0.0
C2277 C 0.56685 0.3573 0.36357 0.0
C2278 C 0.6182 0.3656 0.33284 0.0
C2279 C 0.57293 0.33347 0.41682 0.0
C2280 C 0.62078 0.31105 0.38863 0.0
C2281 C 0.62811 0.31356 0.43264 0.0
C2282 C 0.61082 0.32313 0.36826 0.0
C2283 C 0.60777 0.33788 0.39318 0.0
C2284 C 0.61542 0.34063 0.43728 0.0
C2285 C 0.62572 0.32846 0.45629 0.0
C2286 C 0.60317 0.31988 0.3207 0.0
C2287 C 0.61215 0.35607 0.46525 0.0
H2288 H 0.59192 0.3831 0.30241 0.0
H2289 H 0.55391 0.35525 0.37078 0.0
H2290 H 0.62561 0.36687 0.36541 0.0
H2291 H 0.62306 0.35481 0.3134 0.0
H2292 H 0.62 0.37676 0.31087 0.0
H2293 H 0.55949 0.33398 0.42377 0.0
H2294 H 0.57584 0.32137 0.40083 0.0
H2295 H 0.57954 0.33415 0.45092 0.0
H2296 H 0.62282 0.29958 0.37004 0.0
H2297 H 0.63141 0.33036 0.49037 0.0
H2298 H 0.60538 0.33043 0.29675 0.0
H2299 H 0.58966 0.31851 0.32456 0.0
H2300 H 0.6081 0.30856 0.30398 0.0
H2301 H 0.61441 0.36711 0.4433 0.0
H2302 H 0.61992 0.35683 0.49733 0.0
H2303 H 0.59903 0.35637 0.47605 0.0
C2304 C 0.36094 0.83003 0.11386 0.0
C2305 C 0.36718 0.82279 0.07277 0.0
C2306 C 0.36976 0.8424 0.13728 0.0
C2307 C 0.38502 0.84769 0.11875 0.0
C2308 C 0.3909 0.84103 0.07589 0.0
C2309 C 0.38194 0.82858 0.05355 0.0
C2310 C 0.36316 0.84918 0.18302 0.0
C2311 C 0.40704 0.84653 0.0547 0.0
C2312 C 0.40667 0.88662 0.15777 0.0
C2313 C 0.41933 0.88013 0.18565 0.0
C2314 C 0.39481 0.87628 0.13749 0.0
C2315 C 0.39562 0.85915 0.14576 0.0
C2316 C 0.40773 0.8527 0.17642 0.0
C2317 C 0.41951 0.86328 0.19582 0.0
C2318 C 0.38208 0.88357 0.10495 0.0
C2319 C 0.40884 0.83451 0.18662 0.0
H2320 H 0.34953 0.82554 0.12883 0.0
H2321 H 0.38672 0.82307 0.02159 0.0
H2322 H 0.37103 0.84494 0.21253 0.0
H2323 H 0.36355 0.86281 0.18285 0.0
H2324 H 0.35033 0.84514 0.1899 0.0
H2325 H 0.40917 0.84113 0.0193 0.0
H2326 H 0.40738 0.86012 0.05166 0.0
H2327 H 0.41733 0.84281 0.07805 0.0
H2328 H 0.4065 0.89966 0.14988 0.0
H2329 H 0.4292 0.85826 0.21771 0.0
H2330 H 0.36966 0.87877 0.11349 0.0
H2331 H 0.38487 0.87993 0.06817 0.0
H2332 H 0.38181 0.89722 0.10686 0.0
H2333 H 0.39665 0.82963 0.19725 0.0
H2334 H 0.41786 0.83173 0.21489 0.0
H2335 H 0.41263 0.82787 0.15428 0.0
C2336 C 0.92289 0.3575 0.71726 0.0
C2337 C 0.92474 0.37447 0.71077 0.0
C2338 C 0.91083 0.3487 0.69264 0.0
C2339 C 0.90044 0.35709 0.66066 0.0
C2340 C 0.90179 0.37433 0.65543 0.0
C2341 C 0.91393 0.38284 0.68068 0.0
C2342 C 0.90965 0.33031 0.69945 0.0
C2343 C 0.89091 0.38367 0.62169 0.0
C2344 C 0.88468 0.33 0.56227 0.0
C2345 C 0.86907 0.32567 0.5791 0.0
C2346 C 0.89471 0.34092 0.58741 0.0
C2347 C 0.889 0.34755 0.63049 0.0
C2348 C 0.87291 0.34392 0.64635 0.0
C2349 C 0.86309 0.33303 0.62032 0.0
C2350 C 0.91175 0.34465 0.56909 0.0
C2351 C 0.8664 0.35079 0.69208 0.0
H2352 H 0.93118 0.351 0.74063 0.0
H2353 H 0.91532 0.39598 0.67558 0.0
H2354 H 0.89682 0.32674 0.70799 0.0
H2355 H 0.91306 0.32396 0.66628 0.0
H2356 H 0.91786 0.32584 0.72796 0.0
H2357 H 0.89248 0.39719 0.62496 0.0
H2358 H 0.89389 0.38003 0.58502 0.0
H2359 H 0.8778 0.38058 0.62783 0.0
H2360 H 0.88931 0.3244 0.53028 0.0
H2361 H 0.85102 0.32971 0.63345 0.0
H2362 H 0.92107 0.33919 0.59295 0.0
H2363 H 0.91389 0.35812 0.56844 0.0
H2364 H 0.91376 0.3397 0.53311 0.0
H2365 H 0.87317 0.34518 0.72196 0.0
H2366 H 0.85307 0.34828 0.69677 0.0
H2367 H 0.86845 0.36426 0.69382 0.0
C2368 C 0.38408 0.18349 0.38557 0.0
C2369 C 0.37215 0.17898 0.41869 0.0
C2370 C 0.39516 0.17192 0.36773 0.0
C2371 C 0.39461 0.15556 0.38458 0.0
C2372 C 0.38273 0.15097 0.41863 0.0
C2373 C 0.37141 0.16273 0.43478 0.0
C2374 C 0.40739 0.1772 0.33061 0.0
C2375 C 0.38214 0.13374 0.43833 0.0
C2376 C 0.41586 0.12388 0.30779 0.0
C2377 C 0.43171 0.12407 0.3269 0.0
C2378 C 0.4034 0.13375 0.32709 0.0
C2379 C 0.40686 0.14351 0.3672 0.0
C2380 C 0.42265 0.14297 0.38806 0.0
C2381 C 0.43498 0.13346 0.36712 0.0
C2382 C 0.38683 0.13438 0.30318 0.0
C2383 C 0.42668 0.15284 0.43161 0.0
H2384 H 0.38448 0.19602 0.37258 0.0
H2385 H 0.36214 0.15929 0.4604 0.0
H2386 H 0.4201 0.17593 0.34434 0.0
H2387 H 0.40636 0.16913 0.29924 0.0
H2388 H 0.40554 0.19015 0.31936 0.0
H2389 H 0.37223 0.13221 0.46491 0.0
H2390 H 0.38014 0.12475 0.40957 0.0
H2391 H 0.3941 0.13069 0.45498 0.0
H2392 H 0.41341 0.11658 0.27664 0.0
H2393 H 0.44722 0.13335 0.38225 0.0
H2394 H 0.38484 0.14683 0.28826 0.0
H2395 H 0.37685 0.13213 0.32899 0.0
H2396 H 0.38578 0.12522 0.27431 0.0
H2397 H 0.42684 0.16613 0.42285 0.0
H2398 H 0.43884 0.14948 0.44663 0.0
H2399 H 0.41711 0.15096 0.45894 0.0
C2400 C 0.62133 0.6575 0.07453 0.0
C2401 C 0.61975 0.67379 0.08983 0.0
C2402 C 0.61014 0.64542 0.08939 0.0
C2403 C 0.59743 0.64974 0.12115 0.0
C2404 C 0.59604 0.66613 0.13739 0.0
C2405 C 0.6071 0.678 0.12103 0.0
C2406 C 0.61172 0.62814 0.07051 0.0
C2407 C 0.58283 0.67114 0.17197 0.0
C2408 C 0.55765 0.62584 0.1284 0.0
C2409 C 0.56014 0.61635 0.16889 0.0
C2410 C 0.57002 0.63619 0.11124 0.0
C2411 C 0.58506 0.6374 0.13601 0.0
C2412 C 0.58774 0.62766 0.17664 0.0
C2413 C 0.57527 0.61703 0.19229 0.0
C2414 C 0.56685 0.64609 0.06717 0.0
C2415 C 0.60349 0.62894 0.20451 0.0
H2416 H 0.63114 0.65427 0.05039 0.0
H2417 H 0.60602 0.69057 0.13338 0.0
H2418 H 0.61303 0.61929 0.09996 0.0
H2419 H 0.60038 0.62475 0.05104 0.0
H2420 H 0.62243 0.62674 0.04654 0.0
H2421 H 0.58409 0.68416 0.18329 0.0
H2422 H 0.57052 0.66951 0.15583 0.0
H2423 H 0.58332 0.66316 0.20362 0.0
H2424 H 0.546 0.62512 0.10994 0.0
H2425 H 0.57715 0.60967 0.22364 0.0
H2426 H 0.57707 0.64439 0.04171 0.0
H2427 H 0.56633 0.65937 0.07602 0.0
H2428 H 0.55512 0.6426 0.04979 0.0
H2429 H 0.61426 0.62686 0.18128 0.0
H2430 H 0.60395 0.61996 0.23396 0.0
H2431 H 0.60468 0.64152 0.21922 0.0
C2432 C 0.09368 0.8835 0.81665 0.0
C2433 C 0.07719 0.87957 0.82559 0.0
C2434 C 0.10629 0.87242 0.82829 0.0
C2435 C 0.10223 0.85733 0.85029 0.0
C2436 C 0.0856 0.85352 0.86021 0.0
C2437 C 0.07327 0.86461 0.84723 0.0
C2438 C 0.12386 0.87669 0.81633 0.0
C2439 C 0.0808 0.83767 0.88437 0.0
C2440 C 0.12821 0.81898 0.84397 0.0
C2441 C 0.13517 0.81864 0.88902 0.0
C2442 C 0.11839 0.83218 0.82962 0.0
C2443 C 0.11515 0.84511 0.86163 0.0
C2444 C 0.12277 0.84519 0.90645 0.0
C2445 C 0.13289 0.83198 0.91946 0.0
C2446 C 0.11077 0.83184 0.78116 0.0
C2447 C 0.11936 0.85863 0.94178 0.0
H2448 H 0.09668 0.89508 0.79983 0.0
H2449 H 0.06053 0.86164 0.85464 0.0
H2450 H 0.13159 0.8763 0.84846 0.0
H2451 H 0.12891 0.86745 0.79148 0.0
H2452 H 0.12498 0.88907 0.80012 0.0
H2453 H 0.0674 0.83701 0.89186 0.0
H2454 H 0.08418 0.82703 0.86191 0.0
H2455 H 0.08759 0.83638 0.91804 0.0
H2456 H 0.13016 0.80872 0.82022 0.0
H2457 H 0.13828 0.83167 0.95434 0.0
H2458 H 0.11228 0.84392 0.76352 0.0
H2459 H 0.09738 0.82944 0.78422 0.0
H2460 H 0.11626 0.82215 0.7585 0.0
H2461 H 0.12084 0.87091 0.92534 0.0
H2462 H 0.1276 0.85785 0.97289 0.0
H2463 H 0.10643 0.85767 0.95405 0.0
loop_
_geom_bond_atom_site_label_1
_geom_bond_atom_site_label_2
_geom_bond_distance
_geom_bond_site_symmetry_2
_ccdc_geom_bond_type
In0 O1 2.294 . S
In0 O2 2.326 . S
In0 O6 2.266 . S
In0 O7 2.326 1_554 S
In0 O8 2.266 . S
In0 O9 2.326 . S
In0 O11 2.294 . S
In0 O12 2.326 . S
O1 In0 2.294 . S
O1 C10 1.240 . S
O2 In0 2.326 . S
O2 C10 1.252 . S
C3 O6 1.252 1_556 S
C3 O7 1.260 . S
C4 O11 1.240 . S
C4 O12 1.252 . S
C5 O8 1.252 . S
C5 O9 1.260 . S
O6 In0 2.266 . S
O6 C3 1.252 1_554 S
O7 In0 2.326 1_556 S
O7 C3 1.260 . S
O8 In0 2.266 . S
O8 C5 1.252 . S
O9 In0 2.326 . S
O9 C5 1.260 . S
C10 O1 1.240 . S
C10 O2 1.252 . S
O11 In0 2.294 . S
O11 C4 1.240 . S
O12 In0 2.326 . S
O12 C4 1.252 . S
In13 O14 2.294 . S
In13 O15 2.326 . S
In13 O19 2.266 . S
In13 O20 2.326 . S
In13 O21 2.266 . S
In13 O22 2.326 . S
In13 O24 2.294 . S
In13 O25 2.326 . S
O14 In13 2.294 . S
O14 C23 1.240 . S
O15 In13 2.326 . S
O15 C23 1.252 . S
C16 O19 1.252 . S
C16 O20 1.260 . S
C17 O24 1.240 . S
C17 O25 1.252 . S
C18 O21 1.252 . S
C18 O22 1.260 . S
O19 In13 2.266 . S
O19 C16 1.252 . S
O20 In13 2.326 . S
O20 C16 1.260 . S
O21 In13 2.266 . S
O21 C18 1.252 . S
O22 In13 2.326 . S
O22 C18 1.260 . S
C23 O14 1.240 . S
C23 O15 1.252 . S
O24 In13 2.294 . S
O24 C17 1.240 . S
O25 In13 2.326 . S
O25 C17 1.252 . S
In26 O27 2.294 . S
In26 O28 2.326 . S
In26 O32 2.266 . S
In26 O33 2.326 . S
In26 O34 2.266 . S
In26 O35 2.326 . S
In26 O37 2.294 . S
In26 O38 2.326 . S
O27 In26 2.294 . S
O27 C36 1.240 . S
O28 In26 2.326 . S
O28 C36 1.252 . S
C29 O32 1.252 . S
C29 O33 1.260 . S
C30 O37 1.240 . S
C30 O38 1.252 . S
C31 O34 1.252 . S
C31 O35 1.260 . S
O32 In26 2.266 . S
O32 C29 1.252 . S
O33 In26 2.326 . S
O33 C29 1.260 . S
O34 In26 2.266 . S
O34 C31 1.252 . S
O35 In26 2.326 . S
O35 C31 1.260 . S
C36 O27 1.240 . S
C36 O28 1.252 . S
O37 In26 2.294 . S
O37 C30 1.240 . S
O38 In26 2.326 . S
O38 C30 1.252 . S
In39 O40 2.294 . S
In39 O41 2.326 . S
In39 O45 2.266 . S
In39 O46 2.326 . S
In39 O47 2.266 . S
In39 O48 2.326 . S
In39 O50 2.294 . S
In39 O51 2.326 . S
O40 In39 2.294 . S
O40 C49 1.240 . S
O41 In39 2.326 . S
O41 C49 1.252 . S
C42 O45 1.252 . S
C42 O46 1.260 . S
C43 O50 1.240 . S
C43 O51 1.252 . S
C44 O47 1.252 . S
C44 O48 1.260 . S
O45 In39 2.266 . S
O45 C42 1.252 . S
O46 In39 2.326 . S
O46 C42 1.260 . S
O47 In39 2.266 . S
O47 C44 1.252 . S
O48 In39 2.326 . S
O48 C44 1.260 . S
C49 O40 1.240 . S
C49 O41 1.252 . S
O50 In39 2.294 . S
O50 C43 1.240 . S
O51 In39 2.326 . S
O51 C43 1.252 . S
In52 O53 2.294 . S
In52 O54 2.326 . S
In52 O58 2.266 . S
In52 O59 2.326 . S
In52 O60 2.266 . S
In52 O61 2.326 . S
In52 O63 2.294 . S
In52 O64 2.326 . S
O53 In52 2.294 . S
O53 C62 1.240 . S
O54 In52 2.326 . S
O54 C62 1.252 . S
C55 O58 1.252 . S
C55 O59 1.260 . S
C56 O63 1.240 . S
C56 O64 1.252 . S
C57 O60 1.252 . S
C57 O61 1.260 . S
O58 In52 2.266 . S
O58 C55 1.252 . S
O59 In52 2.326 . S
O59 C55 1.260 . S
O60 In52 2.266 . S
O60 C57 1.252 . S
O61 In52 2.326 . S
O61 C57 1.260 . S
C62 O53 1.240 . S
C62 O54 1.252 . S
O63 In52 2.294 . S
O63 C56 1.240 . S
O64 In52 2.326 . S
O64 C56 1.252 . S
In65 O66 2.294 . S
In65 O67 2.326 . S
In65 O71 2.266 . S
In65 O72 2.326 . S
In65 O73 2.266 . S
In65 O74 2.326 . S
In65 O76 2.294 . S
In65 O77 2.326 . S
O66 In65 2.294 . S
O66 C75 1.240 . S
O67 In65 2.326 . S
O67 C75 1.252 . S
C68 O71 1.252 . S
C68 O72 1.260 . S
C69 O76 1.240 . S
C69 O77 1.252 . S
C70 O73 1.252 . S
C70 O74 1.260 . S
O71 In65 2.266 . S
O71 C68 1.252 . S
O72 In65 2.326 . S
O72 C68 1.260 . S
O73 In65 2.266 . S
O73 C70 1.252 . S
O74 In65 2.326 . S
O74 C70 1.260 . S
C75 O66 1.240 . S
C75 O67 1.252 . S
O76 In65 2.294 . S
O76 C69 1.240 . S
O77 In65 2.326 . S
O77 C69 1.252 . S
In78 O79 2.294 . S
In78 O80 2.326 . S
In78 O84 2.266 . S
In78 O85 2.326 . S
In78 O86 2.266 . S
In78 O87 2.326 1_556 S
In78 O89 2.294 . S
In78 O90 2.326 . S
O79 In78 2.294 . S
O79 C88 1.240 . S
O80 In78 2.326 . S
O80 C88 1.252 . S
C81 O84 1.252 . S
C81 O85 1.260 . S
C82 O89 1.240 . S
C82 O90 1.252 . S
C83 O86 1.252 1_554 S
C83 O87 1.260 . S
O84 In78 2.266 . S
O84 C81 1.252 . S
O85 In78 2.326 . S
O85 C81 1.260 . S
O86 In78 2.266 . S
O86 C83 1.252 1_556 S
O87 In78 2.326 1_554 S
O87 C83 1.260 . S
C88 O79 1.240 . S
C88 O80 1.252 . S
O89 In78 2.294 . S
O89 C82 1.240 . S
O90 In78 2.326 . S
O90 C82 1.252 . S
In91 O92 2.294 . S
In91 O93 2.326 . S
In91 O97 2.266 . S
In91 O98 2.326 . S
In91 O99 2.266 . S
In91 O100 2.326 . S
In91 O102 2.294 . S
In91 O103 2.326 . S
O92 In91 2.294 . S
O92 C101 1.240 . S
O93 In91 2.326 . S
O93 C101 1.252 . S
C94 O97 1.252 . S
C94 O98 1.260 . S
C95 O102 1.240 . S
C95 O103 1.252 . S
C96 O99 1.252 . S
C96 O100 1.260 . S
O97 In91 2.266 . S
O97 C94 1.252 . S
O98 In91 2.326 . S
O98 C94 1.260 . S
O99 In91 2.266 . S
O99 C96 1.252 . S
O100 In91 2.326 . S
O100 C96 1.260 . S
C101 O92 1.240 . S
C101 O93 1.252 . S
O102 In91 2.294 . S
O102 C95 1.240 . S
O103 In91 2.326 . S
O103 C95 1.252 . S
In104 O105 2.294 . S
In104 O106 2.326 . S
In104 O110 2.266 . S
In104 O111 2.326 . S
In104 O112 2.266 . S
In104 O113 2.326 1_556 S
In104 O115 2.294 . S
In104 O116 2.326 . S
O105 In104 2.294 . S
O105 C114 1.240 . S
O106 In104 2.326 . S
O106 C114 1.252 . S
C107 O110 1.252 . S
C107 O111 1.260 . S
C108 O115 1.240 . S
C108 O116 1.252 . S
C109 O112 1.252 1_554 S
C109 O113 1.260 . S
O110 In104 2.266 . S
O110 C107 1.252 . S
O111 In104 2.326 . S
O111 C107 1.260 . S
O112 In104 2.266 . S
O112 C109 1.252 1_556 S
O113 In104 2.326 1_554 S
O113 C109 1.260 . S
C114 O105 1.240 . S
C114 O106 1.252 . S
O115 In104 2.294 . S
O115 C108 1.240 . S
O116 In104 2.326 . S
O116 C108 1.252 . S
In117 O118 2.294 . S
In117 O119 2.326 . S
In117 O123 2.266 . S
In117 O124 2.326 . S
In117 O125 2.266 . S
In117 O126 2.326 . S
In117 O128 2.294 . S
In117 O129 2.326 . S
O118 In117 2.294 . S
O118 C127 1.240 . S
O119 In117 2.326 . S
O119 C127 1.252 . S
C120 O123 1.252 . S
C120 O124 1.260 . S
C121 O128 1.240 . S
C121 O129 1.252 . S
C122 O125 1.252 . S
C122 O126 1.260 . S
O123 In117 2.266 . S
O123 C120 1.252 . S
O124 In117 2.326 . S
O124 C120 1.260 . S
O125 In117 2.266 . S
O125 C122 1.252 . S
O126 In117 2.326 . S
O126 C122 1.260 . S
C127 O118 1.240 . S
C127 O119 1.252 . S
O128 In117 2.294 . S
O128 C121 1.240 . S
O129 In117 2.326 . S
O129 C121 1.252 . S
In130 O131 2.294 . S
In130 O132 2.326 . S
In130 O136 2.266 . S
In130 O137 2.326 . S
In130 O138 2.266 . S
In130 O139 2.326 . S
In130 O141 2.294 . S
In130 O142 2.326 . S
O131 In130 2.294 . S
O131 C140 1.240 . S
O132 In130 2.326 . S
O132 C140 1.252 . S
C133 O136 1.252 . S
C133 O137 1.260 . S
C134 O141 1.240 . S
C134 O142 1.252 . S
C135 O138 1.252 . S
C135 O139 1.260 . S
O136 In130 2.266 . S
O136 C133 1.252 . S
O137 In130 2.326 . S
O137 C133 1.260 . S
O138 In130 2.266 . S
O138 C135 1.252 . S
O139 In130 2.326 . S
O139 C135 1.260 . S
C140 O131 1.240 . S
C140 O132 1.252 . S
O141 In130 2.294 . S
O141 C134 1.240 . S
O142 In130 2.326 . S
O142 C134 1.252 . S
In143 O144 2.294 . S
In143 O145 2.326 . S
In143 O149 2.266 . S
In143 O150 2.326 . S
In143 O151 2.266 . S
In143 O152 2.326 . S
In143 O154 2.294 . S
In143 O155 2.326 . S
O144 In143 2.294 . S
O144 C153 1.240 . S
O145 In143 2.326 . S
O145 C153 1.252 . S
C146 O149 1.252 . S
C146 O150 1.260 . S
C147 O154 1.240 . S
C147 O155 1.252 . S
C148 O151 1.252 . S
C148 O152 1.260 . S
O149 In143 2.266 . S
O149 C146 1.252 . S
O150 In143 2.326 . S
O150 C146 1.260 . S
O151 In143 2.266 . S
O151 C148 1.252 . S
O152 In143 2.326 . S
O152 C148 1.260 . S
C153 O144 1.240 . S
C153 O145 1.252 . S
O154 In143 2.294 . S
O154 C147 1.240 . S
O155 In143 2.326 . S
O155 C147 1.252 . S
In156 O157 2.294 . S
In156 O158 2.326 . S
In156 O162 2.266 . S
In156 O163 2.326 . S
In156 O164 2.266 . S
In156 O165 2.326 . S
In156 O167 2.294 . S
In156 O168 2.326 . S
O157 In156 2.294 . S
O157 C166 1.240 . S
O158 In156 2.326 . S
O158 C166 1.252 . S
C159 O162 1.252 . S
C159 O163 1.260 . S
C160 O167 1.240 . S
C160 O168 1.252 . S
C161 O164 1.252 . S
C161 O165 1.260 . S
O162 In156 2.266 . S
O162 C159 1.252 . S
O163 In156 2.326 . S
O163 C159 1.260 . S
O164 In156 2.266 . S
O164 C161 1.252 . S
O165 In156 2.326 . S
O165 C161 1.260 . S
C166 O157 1.240 . S
C166 O158 1.252 . S
O167 In156 2.294 . S
O167 C160 1.240 . S
O168 In156 2.326 . S
O168 C160 1.252 . S
In169 O170 2.294 . S
In169 O171 2.326 . S
In169 O175 2.266 . S
In169 O176 2.326 . S
In169 O177 2.266 . S
In169 O178 2.326 . S
In169 O180 2.294 . S
In169 O181 2.326 . S
O170 In169 2.294 . S
O170 C179 1.240 . S
O171 In169 2.326 . S
O171 C179 1.252 . S
C172 O175 1.252 . S
C172 O176 1.260 . S
C173 O180 1.240 . S
C173 O181 1.252 . S
C174 O177 1.252 . S
C174 O178 1.260 . S
O175 In169 2.266 . S
O175 C172 1.252 . S
O176 In169 2.326 . S
O176 C172 1.260 . S
O177 In169 2.266 . S
O177 C174 1.252 . S
O178 In169 2.326 . S
O178 C174 1.260 . S
C179 O170 1.240 . S
C179 O171 1.252 . S
O180 In169 2.294 . S
O180 C173 1.240 . S
O181 In169 2.326 . S
O181 C173 1.252 . S
In182 O183 2.294 . S
In182 O184 2.326 . S
In182 O188 2.266 . S
In182 O189 2.326 1_554 S
In182 O190 2.266 . S
In182 O191 2.326 . S
In182 O193 2.294 . S
In182 O194 2.326 . S
O183 In182 2.294 . S
O183 C192 1.240 . S
O184 In182 2.326 . S
O184 C192 1.252 . S
C185 O188 1.252 1_556 S
C185 O189 1.260 . S
C186 O193 1.240 . S
C186 O194 1.252 . S
C187 O190 1.252 . S
C187 O191 1.260 . S
O188 In182 2.266 . S
O188 C185 1.252 1_554 S
O189 In182 2.326 1_556 S
O189 C185 1.260 . S
O190 In182 2.266 . S
O190 C187 1.252 . S
O191 In182 2.326 . S
O191 C187 1.260 . S
C192 O183 1.240 . S
C192 O184 1.252 . S
O193 In182 2.294 . S
O193 C186 1.240 . S
O194 In182 2.326 . S
O194 C186 1.252 . S
In195 O196 2.294 . S
In195 O197 2.326 . S
In195 O201 2.266 . S
In195 O202 2.326 . S
In195 O203 2.266 . S
In195 O204 2.326 . S
In195 O206 2.294 . S
In195 O207 2.326 . S
O196 In195 2.294 . S
O196 C205 1.240 . S
O197 In195 2.326 . S
O197 C205 1.252 . S
C198 O201 1.252 . S
C198 O202 1.260 . S
C199 O206 1.240 . S
C199 O207 1.252 . S
C200 O203 1.252 . S
C200 O204 1.260 . S
O201 In195 2.266 . S
O201 C198 1.252 . S
O202 In195 2.326 . S
O202 C198 1.260 . S
O203 In195 2.266 . S
O203 C200 1.252 . S
O204 In195 2.326 . S
O204 C200 1.260 . S
C205 O196 1.240 . S
C205 O197 1.252 . S
O206 In195 2.294 . S
O206 C199 1.240 . S
O207 In195 2.326 . S
O207 C199 1.252 . S
In208 O209 2.294 . S
In208 O210 2.326 . S
In208 O214 2.266 . S
In208 O215 2.326 . S
In208 O216 2.266 . S
In208 O217 2.326 . S
In208 O219 2.294 . S
In208 O220 2.326 . S
O209 In208 2.294 . S
O209 C218 1.240 . S
O210 In208 2.326 . S
O210 C218 1.252 . S
C211 O214 1.252 . S
C211 O215 1.260 . S
C212 O219 1.240 . S
C212 O220 1.252 . S
C213 O216 1.252 . S
C213 O217 1.260 . S
O214 In208 2.266 . S
O214 C211 1.252 . S
O215 In208 2.326 . S
O215 C211 1.260 . S
O216 In208 2.266 . S
O216 C213 1.252 . S
O217 In208 2.326 . S
O217 C213 1.260 . S
C218 O209 1.240 . S
C218 O210 1.252 . S
O219 In208 2.294 . S
O219 C212 1.240 . S
O220 In208 2.326 . S
O220 C212 1.252 . S
In221 O222 2.294 . S
In221 O223 2.326 . S
In221 O227 2.266 . S
In221 O228 2.326 . S
In221 O229 2.266 . S
In221 O230 2.326 . S
In221 O232 2.294 . S
In221 O233 2.326 . S
O222 In221 2.294 . S
O222 C231 1.240 . S
O223 In221 2.326 . S
O223 C231 1.252 . S
C224 O227 1.252 . S
C224 O228 1.260 . S
C225 O232 1.240 . S
C225 O233 1.252 . S
C226 O229 1.252 . S
C226 O230 1.260 . S
O227 In221 2.266 . S
O227 C224 1.252 . S
O228 In221 2.326 . S
O228 C224 1.260 . S
O229 In221 2.266 . S
O229 C226 1.252 . S
O230 In221 2.326 . S
O230 C226 1.260 . S
C231 O222 1.240 . S
C231 O223 1.252 . S
O232 In221 2.294 . S
O232 C225 1.240 . S
O233 In221 2.326 . S
O233 C225 1.252 . S
In234 O235 2.294 . S
In234 O236 2.326 . S
In234 O240 2.266 . S
In234 O241 2.326 1_554 S
In234 O242 2.266 . S
In234 O243 2.326 . S
In234 O245 2.294 . S
In234 O246 2.326 . S
O235 In234 2.294 . S
O235 C244 1.240 . S
O236 In234 2.326 . S
O236 C244 1.252 . S
C237 O240 1.252 1_556 S
C237 O241 1.260 . S
C238 O245 1.240 . S
C238 O246 1.252 . S
C239 O242 1.252 . S
C239 O243 1.260 . S
O240 In234 2.266 . S
O240 C237 1.252 1_554 S
O241 In234 2.326 1_556 S
O241 C237 1.260 . S
O242 In234 2.266 . S
O242 C239 1.252 . S
O243 In234 2.326 . S
O243 C239 1.260 . S
C244 O235 1.240 . S
C244 O236 1.252 . S
O245 In234 2.294 . S
O245 C238 1.240 . S
O246 In234 2.326 . S
O246 C238 1.252 . S
In247 O248 2.294 . S
In247 O249 2.326 . S
In247 O253 2.266 . S
In247 O254 2.326 . S
In247 O255 2.266 . S
In247 O256 2.326 . S
In247 O258 2.294 . S
In247 O259 2.326 . S
O248 In247 2.294 . S
O248 C257 1.240 . S
O249 In247 2.326 . S
O249 C257 1.252 . S
C250 O253 1.252 . S
C250 O254 1.260 . S
C251 O258 1.240 . S
C251 O259 1.252 . S
C252 O255 1.252 . S
C252 O256 1.260 . S
O253 In247 2.266 . S
O253 C250 1.252 . S
O254 In247 2.326 . S
O254 C250 1.260 . S
O255 In247 2.266 . S
O255 C252 1.252 . S
O256 In247 2.326 . S
O256 C252 1.260 . S
C257 O248 1.240 . S
C257 O249 1.252 . S
O258 In247 2.294 . S
O258 C251 1.240 . S
O259 In247 2.326 . S
O259 C251 1.252 . S
In260 O261 2.294 . S
In260 O262 2.326 . S
In260 O266 2.266 . S
In260 O267 2.326 . S
In260 O268 2.266 . S
In260 O269 2.326 1_556 S
In260 O271 2.294 . S
In260 O272 2.326 . S
O261 In260 2.294 . S
O261 C270 1.240 . S
O262 In260 2.326 . S
O262 C270 1.252 . S
C263 O266 1.252 . S
C263 O267 1.260 . S
C264 O271 1.240 . S
C264 O272 1.252 . S
C265 O268 1.252 1_554 S
C265 O269 1.260 . S
O266 In260 2.266 . S
O266 C263 1.252 . S
O267 In260 2.326 . S
O267 C263 1.260 . S
O268 In260 2.266 . S
O268 C265 1.252 1_556 S
O269 In260 2.326 1_554 S
O269 C265 1.260 . S
C270 O261 1.240 . S
C270 O262 1.252 . S
O271 In260 2.294 . S
O271 C264 1.240 . S
O272 In260 2.326 . S
O272 C264 1.252 . S
In273 O274 2.294 . S
In273 O275 2.326 . S
In273 O279 2.266 . S
In273 O280 2.326 . S
In273 O281 2.266 . S
In273 O282 2.326 . S
In273 O284 2.294 . S
In273 O285 2.326 . S
O274 In273 2.294 . S
O274 C283 1.240 . S
O275 In273 2.326 . S
O275 C283 1.252 . S
C276 O279 1.252 . S
C276 O280 1.260 . S
C277 O284 1.240 . S
C277 O285 1.252 . S
C278 O281 1.252 . S
C278 O282 1.260 . S
O279 In273 2.266 . S
O279 C276 1.252 . S
O280 In273 2.326 . S
O280 C276 1.260 . S
O281 In273 2.266 . S
O281 C278 1.252 . S
O282 In273 2.326 . S
O282 C278 1.260 . S
C283 O274 1.240 . S
C283 O275 1.252 . S
O284 In273 2.294 . S
O284 C277 1.240 . S
O285 In273 2.326 . S
O285 C277 1.252 . S
In286 O287 2.294 . S
In286 O288 2.326 . S
In286 O292 2.266 . S
In286 O293 2.326 . S
In286 O294 2.266 . S
In286 O295 2.326 . S
In286 O297 2.294 . S
In286 O298 2.326 . S
O287 In286 2.294 . S
O287 C296 1.240 . S
O288 In286 2.326 . S
O288 C296 1.252 . S
C289 O292 1.252 . S
C289 O293 1.260 . S
C290 O297 1.240 . S
C290 O298 1.252 . S
C291 O294 1.252 . S
C291 O295 1.260 . S
O292 In286 2.266 . S
O292 C289 1.252 . S
O293 In286 2.326 . S
O293 C289 1.260 . S
O294 In286 2.266 . S
O294 C291 1.252 . S
O295 In286 2.326 . S
O295 C291 1.260 . S
C296 O287 1.240 . S
C296 O288 1.252 . S
O297 In286 2.294 . S
O297 C290 1.240 . S
O298 In286 2.326 . S
O298 C290 1.252 . S
In299 O300 2.294 . S
In299 O301 2.326 . S
In299 O305 2.266 . S
In299 O306 2.326 . S
In299 O307 2.266 . S
In299 O308 2.326 . S
In299 O310 2.294 . S
In299 O311 2.326 . S
O300 In299 2.294 . S
O300 C309 1.240 . S
O301 In299 2.326 . S
O301 C309 1.252 . S
C302 O305 1.252 . S
C302 O306 1.260 . S
C303 O310 1.240 . S
C303 O311 1.252 . S
C304 O307 1.252 . S
C304 O308 1.260 . S
O305 In299 2.266 . S
O305 C302 1.252 . S
O306 In299 2.326 . S
O306 C302 1.260 . S
O307 In299 2.266 . S
O307 C304 1.252 . S
O308 In299 2.326 . S
O308 C304 1.260 . S
C309 O300 1.240 . S
C309 O301 1.252 . S
O310 In299 2.294 . S
O310 C303 1.240 . S
O311 In299 2.326 . S
O311 C303 1.252 . S
In312 O313 2.294 . S
In312 O314 2.326 . S
In312 O318 2.266 . S
In312 O319 2.326 . S
In312 O320 2.266 . S
In312 O321 2.326 . S
In312 O323 2.294 . S
In312 O324 2.326 . S
O313 In312 2.294 . S
O313 C322 1.240 . S
O314 In312 2.326 . S
O314 C322 1.252 . S
C315 O318 1.252 . S
C315 O319 1.260 . S
C316 O323 1.240 . S
C316 O324 1.252 . S
C317 O320 1.252 . S
C317 O321 1.260 . S
O318 In312 2.266 . S
O318 C315 1.252 . S
O319 In312 2.326 . S
O319 C315 1.260 . S
O320 In312 2.266 . S
O320 C317 1.252 . S
O321 In312 2.326 . S
O321 C317 1.260 . S
C322 O313 1.240 . S
C322 O314 1.252 . S
O323 In312 2.294 . S
O323 C316 1.240 . S
O324 In312 2.326 . S
O324 C316 1.252 . S
In325 O326 2.294 . S
In325 O327 2.326 . S
In325 O331 2.266 . S
In325 O332 2.326 . S
In325 O333 2.266 . S
In325 O334 2.326 . S
In325 O336 2.294 . S
In325 O337 2.326 . S
O326 In325 2.294 . S
O326 C335 1.240 . S
O327 In325 2.326 . S
O327 C335 1.252 . S
C328 O331 1.252 . S
C328 O332 1.260 . S
C329 O336 1.240 . S
C329 O337 1.252 . S
C330 O333 1.252 . S
C330 O334 1.260 . S
O331 In325 2.266 . S
O331 C328 1.252 . S
O332 In325 2.326 . S
O332 C328 1.260 . S
O333 In325 2.266 . S
O333 C330 1.252 . S
O334 In325 2.326 . S
O334 C330 1.260 . S
C335 O326 1.240 . S
C335 O327 1.252 . S
O336 In325 2.294 . S
O336 C329 1.240 . S
O337 In325 2.326 . S
O337 C329 1.252 . S
In338 O339 2.294 . S
In338 O340 2.326 . S
In338 O344 2.266 . S
In338 O345 2.326 1_556 S
In338 O346 2.266 . S
In338 O347 2.326 . S
In338 O349 2.294 . S
In338 O350 2.326 . S
O339 In338 2.294 . S
O339 C348 1.240 . S
O340 In338 2.326 . S
O340 C348 1.252 . S
C341 O344 1.252 1_554 S
C341 O345 1.260 . S
C342 O349 1.240 . S
C342 O350 1.252 . S
C343 O346 1.252 . S
C343 O347 1.260 . S
O344 In338 2.266 . S
O344 C341 1.252 1_556 S
O345 In338 2.326 1_554 S
O345 C341 1.260 . S
O346 In338 2.266 . S
O346 C343 1.252 . S
O347 In338 2.326 . S
O347 C343 1.260 . S
C348 O339 1.240 . S
C348 O340 1.252 . S
O349 In338 2.294 . S
O349 C342 1.240 . S
O350 In338 2.326 . S
O350 C342 1.252 . S
In351 O352 2.294 . S
In351 O353 2.326 . S
In351 O357 2.266 . S
In351 O358 2.326 . S
In351 O359 2.266 . S
In351 O360 2.326 . S
In351 O362 2.294 . S
In351 O363 2.326 . S
O352 In351 2.294 . S
O352 C361 1.240 . S
O353 In351 2.326 . S
O353 C361 1.252 . S
C354 O357 1.252 . S
C354 O358 1.260 . S
C355 O362 1.240 . S
C355 O363 1.252 . S
C356 O359 1.252 . S
C356 O360 1.260 . S
O357 In351 2.266 . S
O357 C354 1.252 . S
O358 In351 2.326 . S
O358 C354 1.260 . S
O359 In351 2.266 . S
O359 C356 1.252 . S
O360 In351 2.326 . S
O360 C356 1.260 . S
C361 O352 1.240 . S
C361 O353 1.252 . S
O362 In351 2.294 . S
O362 C355 1.240 . S
O363 In351 2.326 . S
O363 C355 1.252 . S
In364 O365 2.294 . S
In364 O366 2.326 . S
In364 O370 2.266 . S
In364 O371 2.326 . S
In364 O372 2.266 . S
In364 O373 2.326 1_554 S
In364 O375 2.294 . S
In364 O376 2.326 . S
O365 In364 2.294 . S
O365 C374 1.240 . S
O366 In364 2.326 . S
O366 C374 1.252 . S
C367 O370 1.252 . S
C367 O371 1.260 . S
C368 O375 1.240 . S
C368 O376 1.252 . S
C369 O372 1.252 1_556 S
C369 O373 1.260 . S
O370 In364 2.266 . S
O370 C367 1.252 . S
O371 In364 2.326 . S
O371 C367 1.260 . S
O372 In364 2.266 . S
O372 C369 1.252 1_554 S
O373 In364 2.326 1_556 S
O373 C369 1.260 . S
C374 O365 1.240 . S
C374 O366 1.252 . S
O375 In364 2.294 . S
O375 C368 1.240 . S
O376 In364 2.326 . S
O376 C368 1.252 . S
In377 O378 2.294 . S
In377 O379 2.326 . S
In377 O383 2.266 . S
In377 O384 2.326 . S
In377 O385 2.266 . S
In377 O386 2.326 . S
In377 O388 2.294 . S
In377 O389 2.326 . S
O378 In377 2.294 . S
O378 C387 1.240 . S
O379 In377 2.326 . S
O379 C387 1.252 . S
C380 O383 1.252 . S
C380 O384 1.260 . S
C381 O388 1.240 . S
C381 O389 1.252 . S
C382 O385 1.252 . S
C382 O386 1.260 . S
O383 In377 2.266 . S
O383 C380 1.252 . S
O384 In377 2.326 . S
O384 C380 1.260 . S
O385 In377 2.266 . S
O385 C382 1.252 . S
O386 In377 2.326 . S
O386 C382 1.260 . S
C387 O378 1.240 . S
C387 O379 1.252 . S
O388 In377 2.294 . S
O388 C381 1.240 . S
O389 In377 2.326 . S
O389 C381 1.252 . S
In390 O391 2.294 . S
In390 O392 2.326 . S
In390 O396 2.266 . S
In390 O397 2.326 . S
In390 O398 2.266 . S
In390 O399 2.326 . S
In390 O401 2.294 . S
In390 O402 2.326 . S
O391 In390 2.294 . S
O391 C400 1.240 . S
O392 In390 2.326 . S
O392 C400 1.252 . S
C393 O396 1.252 . S
C393 O397 1.260 . S
C394 O401 1.240 . S
C394 O402 1.252 . S
C395 O398 1.252 . S
C395 O399 1.260 . S
O396 In390 2.266 . S
O396 C393 1.252 . S
O397 In390 2.326 . S
O397 C393 1.260 . S
O398 In390 2.266 . S
O398 C395 1.252 . S
O399 In390 2.326 . S
O399 C395 1.260 . S
C400 O391 1.240 . S
C400 O392 1.252 . S
O401 In390 2.294 . S
O401 C394 1.240 . S
O402 In390 2.326 . S
O402 C394 1.252 . S
In403 O404 2.294 . S
In403 O405 2.326 . S
In403 O409 2.266 . S
In403 O410 2.326 . S
In403 O411 2.266 . S
In403 O412 2.326 . S
In403 O414 2.294 . S
In403 O415 2.326 . S
O404 In403 2.294 . S
O404 C413 1.240 . S
O405 In403 2.326 . S
O405 C413 1.252 . S
C406 O409 1.252 . S
C406 O410 1.260 . S
C407 O414 1.240 . S
C407 O415 1.252 . S
C408 O411 1.252 . S
C408 O412 1.260 . S
O409 In403 2.266 . S
O409 C406 1.252 . S
O410 In403 2.326 . S
O410 C406 1.260 . S
O411 In403 2.266 . S
O411 C408 1.252 . S
O412 In403 2.326 . S
O412 C408 1.260 . S
C413 O404 1.240 . S
C413 O405 1.252 . S
O414 In403 2.294 . S
O414 C407 1.240 . S
O415 In403 2.326 . S
O415 C407 1.252 . S
C416 C417 1.391 . S
C416 C418 1.394 . S
C416 H432 0.931 . S
C417 C416 1.391 . S
C417 C421 1.376 1_556 S
C418 C416 1.394 . S
C418 C419 1.369 . S
C418 C422 1.531 . S
C419 C418 1.369 . S
C419 C420 1.410 1_556 S
C419 C427 1.503 1_556 S
C420 C419 1.410 1_554 S
C420 C421 1.392 . S
C420 C423 1.511 . S
C421 C417 1.376 1_554 S
C421 C420 1.392 . S
C421 H433 0.929 . S
C422 C418 1.531 . S
C422 H434 0.960 . S
C422 H435 0.962 . S
C422 H436 0.960 . S
C423 C420 1.511 . S
C423 H437 0.961 . S
C423 H438 0.961 . S
C423 H439 0.961 . S
C424 C425 1.370 . S
C424 C426 1.363 . S
C424 H440 0.931 . S
C425 C424 1.370 . S
C425 C429 1.408 . S
C426 C424 1.363 . S
C426 C427 1.370 . S
C426 C430 1.524 . S
C427 C419 1.503 1_554 S
C427 C426 1.370 . S
C427 C428 1.403 . S
C428 C427 1.403 . S
C428 C429 1.404 . S
C428 C431 1.539 . S
C429 C425 1.408 . S
C429 C428 1.404 . S
C429 H441 0.930 . S
C430 C426 1.524 . S
C430 H442 0.956 1_554 S
C430 H443 0.961 . S
C430 H444 0.961 . S
C431 C428 1.539 . S
C431 H445 0.958 1_554 S
C431 H446 0.961 . S
C431 H447 0.960 . S
H432 C416 0.931 . S
H433 C421 0.929 . S
H434 C422 0.960 . S
H435 C422 0.962 . S
H436 C422 0.960 . S
H437 C423 0.961 . S
H438 C423 0.961 . S
H439 C423 0.961 . S
H440 C424 0.931 . S
H441 C429 0.930 . S
H442 C430 0.956 1_556 S
H443 C430 0.961 . S
H444 C430 0.961 . S
H445 C431 0.958 1_556 S
H446 C431 0.961 . S
H447 C431 0.960 . S
C448 C449 1.391 . S
C448 C450 1.394 . S
C448 H464 0.931 . S
C449 C448 1.391 . S
C449 C453 1.376 . S
C450 C448 1.394 . S
C450 C451 1.369 . S
C450 C454 1.494 1_655 S
C451 C450 1.369 . S
C451 C452 1.410 . S
C451 C459 1.503 1_565 S
C452 C451 1.410 . S
C452 C453 1.392 . S
C452 C455 1.511 . S
C453 C449 1.376 . S
C453 C452 1.392 . S
C453 H465 0.929 . S
C454 C450 1.494 1_455 S
C454 H466 0.964 1_565 S
C454 H467 0.960 . S
C454 H468 0.996 . S
C455 C452 1.511 . S
C455 H469 0.961 . S
C455 H470 1.017 . S
C455 H471 0.961 . S
C456 C457 1.370 . S
C456 C458 1.363 . S
C456 H472 0.931 . S
C457 C456 1.370 . S
C457 C461 1.408 . S
C458 C456 1.363 . S
C458 C459 1.370 . S
C458 C462 1.524 . S
C459 C451 1.503 1_545 S
C459 C458 1.370 . S
C459 C460 1.403 . S
C460 C459 1.403 . S
C460 C461 1.404 . S
C460 C463 1.539 . S
C461 C457 1.408 . S
C461 C460 1.404 . S
C461 H473 0.930 . S
C462 C458 1.524 . S
C462 H474 0.956 . S
C462 H475 0.961 . S
C462 H476 0.961 . S
C463 C460 1.539 . S
C463 H477 0.968 . S
C463 H478 0.961 . S
C463 H479 0.960 1_545 S
H464 C448 0.931 . S
H465 C453 0.929 . S
H466 C454 0.964 1_545 S
H467 C454 0.960 . S
H468 C454 0.996 . S
H469 C455 0.961 . S
H470 C455 1.017 . S
H471 C455 0.961 . S
H472 C456 0.931 . S
H473 C461 0.930 . S
H474 C462 0.956 . S
H475 C462 0.961 . S
H476 C462 0.961 . S
H477 C463 0.968 . S
H478 C463 0.961 . S
H479 C463 0.960 1_565 S
C480 C481 1.391 . S
C480 C482 1.394 . S
C480 H496 0.931 . S
C481 C480 1.391 . S
C481 C485 1.376 . S
C482 C480 1.394 . S
C482 C483 1.369 . S
C482 C486 1.531 . S
C483 C482 1.369 . S
C483 C484 1.410 . S
C483 C491 1.503 . S
C484 C483 1.410 . S
C484 C485 1.392 . S
C484 C487 1.511 . S
C485 C481 1.376 . S
C485 C484 1.392 . S
C485 H497 0.929 . S
C486 C482 1.531 . S
C486 H498 0.960 . S
C486 H499 0.962 . S
C486 H500 0.960 . S
C487 C484 1.511 . S
C487 H501 0.961 . S
C487 H502 0.961 . S
C487 H503 0.961 . S
C488 C489 1.370 . S
C488 C490 1.363 . S
C488 H504 0.931 . S
C489 C488 1.370 . S
C489 C493 1.408 . S
C490 C488 1.363 . S
C490 C491 1.370 . S
C490 C494 1.524 . S
C491 C483 1.503 . S
C491 C490 1.370 . S
C491 C492 1.403 . S
C492 C491 1.403 . S
C492 C493 1.404 . S
C492 C495 1.539 . S
C493 C489 1.408 . S
C493 C492 1.404 . S
C493 H505 0.930 . S
C494 C490 1.524 . S
C494 H506 0.956 . S
C494 H507 0.961 . S
C494 H508 0.961 . S
C495 C492 1.539 . S
C495 H509 0.958 . S
C495 H510 0.961 . S
C495 H511 0.960 . S
H496 C480 0.931 . S
H497 C485 0.929 . S
H498 C486 0.960 . S
H499 C486 0.962 . S
H500 C486 0.960 . S
H501 C487 0.961 . S
H502 C487 0.961 . S
H503 C487 0.961 . S
H504 C488 0.931 . S
H505 C493 0.930 . S
H506 C494 0.956 . S
H507 C494 0.961 . S
H508 C494 0.961 . S
H509 C495 0.958 . S
H510 C495 0.961 . S
H511 C495 0.960 . S
C512 C513 1.391 . S
C512 C514 1.394 . S
C512 H528 0.931 . S
C513 C512 1.391 . S
C513 C517 1.376 . S
C514 C512 1.394 . S
C514 C515 1.369 . S
C514 C518 1.531 . S
C515 C514 1.369 . S
C515 C516 1.410 . S
C515 C523 1.503 1_545 S
C516 C515 1.410 . S
C516 C517 1.392 . S
C516 C519 1.511 . S
C517 C513 1.376 . S
C517 C516 1.392 . S
C517 H529 0.929 . S
C518 C514 1.531 . S
C518 H530 0.960 1_545 S
C518 H531 0.962 1_545 S
C518 H532 0.960 . S
C519 C516 1.511 . S
C519 H533 0.961 . S
C519 H534 0.961 . S
C519 H535 0.961 . S
C520 C521 1.370 . S
C520 C522 1.363 . S
C520 H536 0.931 . S
C521 C520 1.370 . S
C521 C525 1.408 . S
C522 C520 1.363 . S
C522 C523 1.370 . S
C522 C526 1.524 . S
C523 C515 1.503 1_565 S
C523 C522 1.370 . S
C523 C524 1.403 . S
C524 C523 1.403 . S
C524 C525 1.404 . S
C524 C527 1.539 . S
C525 C521 1.408 . S
C525 C524 1.404 . S
C525 H537 0.930 . S
C526 C522 1.524 . S
C526 H538 0.956 . S
C526 H539 0.961 . S
C526 H540 0.961 . S
C527 C524 1.539 . S
C527 H541 0.958 . S
C527 H542 0.961 . S
C527 H543 0.960 1_565 S
H528 C512 0.931 . S
H529 C517 0.929 . S
H530 C518 0.960 1_565 S
H531 C518 0.962 1_565 S
H532 C518 0.960 . S
H533 C519 0.961 . S
H534 C519 0.961 . S
H535 C519 0.961 . S
H536 C520 0.931 . S
H537 C525 0.930 . S
H538 C526 0.956 . S
H539 C526 0.961 . S
H540 C526 0.961 . S
H541 C527 0.958 . S
H542 C527 0.961 . S
H543 C527 0.960 1_545 S
C544 C545 1.391 . S
C544 C546 1.394 . S
C544 H560 0.931 . S
C545 C544 1.391 . S
C545 C549 1.376 . S
C546 C544 1.394 . S
C546 C547 1.369 1_554 S
C546 C550 1.531 . S
C547 C546 1.369 1_556 S
C547 C548 1.410 . S
C547 C555 1.503 . S
C548 C547 1.410 . S
C548 C549 1.392 1_556 S
C548 C551 1.511 . S
C549 C545 1.376 . S
C549 C548 1.392 1_554 S
C549 H561 0.929 . S
C550 C546 1.531 . S
C550 H562 0.960 1_554 S
C550 H563 0.962 . S
C550 H564 0.960 . S
C551 C548 1.511 . S
C551 H565 0.961 . S
C551 H566 0.961 . S
C551 H567 0.961 . S
C552 C553 1.370 1_554 S
C552 C554 1.363 . S
C552 H568 0.931 . S
C553 C552 1.370 1_556 S
C553 C557 1.408 . S
C554 C552 1.363 . S
C554 C555 1.370 1_554 S
C554 C558 1.524 . S
C555 C547 1.503 . S
C555 C554 1.370 1_556 S
C555 C556 1.403 . S
C556 C555 1.403 . S
C556 C557 1.404 . S
C556 C559 1.539 . S
C557 C553 1.408 . S
C557 C556 1.404 . S
C557 H569 0.930 . S
C558 C554 1.524 . S
C558 H570 0.956 . S
C558 H571 0.961 . S
C558 H572 0.961 . S
C559 C556 1.539 . S
C559 H573 0.958 . S
C559 H574 0.961 . S
C559 H575 0.960 . S
H560 C544 0.931 . S
H561 C549 0.929 . S
H562 C550 0.960 1_556 S
H563 C550 0.962 . S
H564 C550 0.960 . S
H565 C551 0.961 . S
H566 C551 0.961 . S
H567 C551 0.961 . S
H568 C552 0.931 . S
H569 C557 0.930 . S
H570 C558 0.956 . S
H571 C558 0.961 . S
H572 C558 0.961 . S
H573 C559 0.958 . S
H574 C559 0.961 . S
H575 C559 0.960 . S
C576 C577 1.391 . S
C576 C578 1.394 . S
C576 H592 0.931 . S
C577 C576 1.391 . S
C577 C581 1.376 . S
C578 C576 1.394 . S
C578 C579 1.369 . S
C578 C582 1.566 . S
C579 C578 1.369 . S
C579 C580 1.410 . S
C579 C587 1.503 1_565 S
C580 C579 1.410 . S
C580 C581 1.392 . S
C580 C583 1.511 . S
C581 C577 1.376 . S
C581 C580 1.392 . S
C581 H593 0.929 . S
C582 C578 1.566 . S
C582 H594 0.971 1_565 S
C582 H595 0.941 1_455 S
C582 H596 0.937 1_455 S
C583 C580 1.511 . S
C583 H597 0.961 . S
C583 H598 0.967 . S
C583 H599 0.961 . S
C584 C585 1.370 . S
C584 C586 1.363 . S
C584 H600 0.931 . S
C585 C584 1.370 . S
C585 C589 1.408 . S
C586 C584 1.363 . S
C586 C587 1.370 . S
C586 C590 1.514 1_545 S
C587 C579 1.503 1_545 S
C587 C586 1.370 . S
C587 C588 1.403 . S
C588 C587 1.403 . S
C588 C589 1.404 . S
C588 C591 1.539 . S
C589 C585 1.408 . S
C589 C588 1.404 . S
C589 H601 0.930 . S
C590 C586 1.514 1_565 S
C590 H602 0.962 . S
C590 H603 0.970 . S
C590 H604 0.955 1_565 S
C591 C588 1.539 . S
C591 H605 0.958 . S
C591 H606 0.961 . S
C591 H607 0.960 . S
H592 C576 0.931 . S
H593 C581 0.929 . S
H594 C582 0.971 1_545 S
H595 C582 0.941 1_655 S
H596 C582 0.937 1_655 S
H597 C583 0.961 . S
H598 C583 0.967 . S
H599 C583 0.961 . S
H600 C584 0.931 . S
H601 C589 0.930 . S
H602 C590 0.962 . S
H603 C590 0.970 . S
H604 C590 0.955 1_545 S
H605 C591 0.958 . S
H606 C591 0.961 . S
H607 C591 0.960 . S
C608 C609 1.391 . S
C608 C610 1.394 . S
C608 H624 0.931 . S
C609 C608 1.391 . S
C609 C613 1.376 . S
C610 C608 1.394 . S
C610 C611 1.369 . S
C610 C614 1.531 . S
C611 C610 1.369 . S
C611 C612 1.410 . S
C611 C619 1.503 . S
C612 C611 1.410 . S
C612 C613 1.392 . S
C612 C615 1.511 . S
C613 C609 1.376 . S
C613 C612 1.392 . S
C613 H625 0.929 . S
C614 C610 1.531 . S
C614 H626 0.960 . S
C614 H627 0.962 . S
C614 H628 0.960 . S
C615 C612 1.511 . S
C615 H629 0.961 . S
C615 H630 0.961 . S
C615 H631 0.961 . S
C616 C617 1.370 . S
C616 C618 1.363 . S
C616 H632 0.931 . S
C617 C616 1.370 . S
C617 C621 1.408 . S
C618 C616 1.363 . S
C618 C619 1.370 . S
C618 C622 1.524 . S
C619 C611 1.503 . S
C619 C618 1.370 . S
C619 C620 1.403 . S
C620 C619 1.403 . S
C620 C621 1.404 . S
C620 C623 1.539 . S
C621 C617 1.408 . S
C621 C620 1.404 . S
C621 H633 0.930 . S
C622 C618 1.524 . S
C622 H634 0.956 . S
C622 H635 0.961 . S
C622 H636 0.961 . S
C623 C620 1.539 . S
C623 H637 0.958 . S
C623 H638 0.961 . S
C623 H639 0.960 . S
H624 C608 0.931 . S
H625 C613 0.929 . S
H626 C614 0.960 . S
H627 C614 0.962 . S
H628 C614 0.960 . S
H629 C615 0.961 . S
H630 C615 0.961 . S
H631 C615 0.961 . S
H632 C616 0.931 . S
H633 C621 0.930 . S
H634 C622 0.956 . S
H635 C622 0.961 . S
H636 C622 0.961 . S
H637 C623 0.958 . S
H638 C623 0.961 . S
H639 C623 0.960 . S
C640 C641 1.391 . S
C640 C642 1.394 . S
C640 H656 0.931 . S
C641 C640 1.391 . S
C641 C645 1.376 . S
C642 C640 1.394 . S
C642 C643 1.369 . S
C642 C646 1.531 . S
C643 C642 1.369 . S
C643 C644 1.410 . S
C643 C651 1.503 1_565 S
C644 C643 1.410 . S
C644 C645 1.392 . S
C644 C647 1.511 . S
C645 C641 1.376 . S
C645 C644 1.392 . S
C645 H657 0.929 . S
C646 C642 1.531 . S
C646 H658 0.960 . S
C646 H659 0.962 . S
C646 H660 0.960 . S
C647 C644 1.511 . S
C647 H661 0.961 . S
C647 H662 0.961 1_565 S
C647 H663 0.961 . S
C648 C649 1.370 . S
C648 C650 1.363 . S
C648 H664 0.931 . S
C649 C648 1.370 . S
C649 C653 1.408 . S
C650 C648 1.363 . S
C650 C651 1.370 . S
C650 C654 1.524 . S
C651 C643 1.503 1_545 S
C651 C650 1.370 . S
C651 C652 1.403 . S
C652 C651 1.403 . S
C652 C653 1.404 . S
C652 C655 1.539 . S
C653 C649 1.408 . S
C653 C652 1.404 . S
C653 H665 0.930 . S
C654 C650 1.524 . S
C654 H666 0.956 . S
C654 H667 0.961 . S
C654 H668 0.961 . S
C655 C652 1.539 . S
C655 H669 0.946 1_545 S
C655 H670 0.961 . S
C655 H671 0.960 1_545 S
H656 C640 0.931 . S
H657 C645 0.929 . S
H658 C646 0.960 . S
H659 C646 0.962 . S
H660 C646 0.960 . S
H661 C647 0.961 . S
H662 C647 0.961 1_545 S
H663 C647 0.961 . S
H664 C648 0.931 . S
H665 C653 0.930 . S
H666 C654 0.956 . S
H667 C654 0.961 . S
H668 C654 0.961 . S
H669 C655 0.946 1_565 S
H670 C655 0.961 . S
H671 C655 0.960 1_565 S
C672 C673 1.391 . S
C672 C674 1.394 . S
C672 H688 0.931 . S
C673 C672 1.391 . S
C673 C677 1.376 . S
C674 C672 1.394 . S
C674 C675 1.369 . S
C674 C678 1.531 . S
C675 C674 1.369 . S
C675 C676 1.410 . S
C675 C683 1.503 . S
C676 C675 1.410 . S
C676 C677 1.392 . S
C676 C679 1.511 . S
C677 C673 1.376 . S
C677 C676 1.392 . S
C677 H689 0.929 . S
C678 C674 1.531 . S
C678 H690 0.960 . S
C678 H691 0.962 . S
C678 H692 0.960 . S
C679 C676 1.511 . S
C679 H693 0.961 . S
C679 H694 0.961 . S
C679 H695 0.961 . S
C680 C681 1.370 . S
C680 C682 1.363 . S
C680 H696 0.931 . S
C681 C680 1.370 . S
C681 C685 1.408 . S
C682 C680 1.363 . S
C682 C683 1.370 . S
C682 C686 1.524 . S
C683 C675 1.503 . S
C683 C682 1.370 . S
C683 C684 1.403 . S
C684 C683 1.403 . S
C684 C685 1.404 . S
C684 C687 1.539 . S
C685 C681 1.408 . S
C685 C684 1.404 . S
C685 H697 0.930 . S
C686 C682 1.524 . S
C686 H698 0.956 . S
C686 H699 0.961 . S
C686 H700 0.961 . S
C687 C684 1.539 . S
C687 H701 0.958 . S
C687 H702 0.961 . S
C687 H703 0.960 . S
H688 C672 0.931 . S
H689 C677 0.929 . S
H690 C678 0.960 . S
H691 C678 0.962 . S
H692 C678 0.960 . S
H693 C679 0.961 . S
H694 C679 0.961 . S
H695 C679 0.961 . S
H696 C680 0.931 . S
H697 C685 0.930 . S
H698 C686 0.956 . S
H699 C686 0.961 . S
H700 C686 0.961 . S
H701 C687 0.958 . S
H702 C687 0.961 . S
H703 C687 0.960 . S
C704 C705 1.391 . S
C704 C706 1.394 . S
C704 H720 0.931 . S
C705 C704 1.391 . S
C705 C709 1.376 . S
C706 C704 1.394 . S
C706 C707 1.369 . S
C706 C710 1.531 . S
C707 C706 1.369 . S
C707 C708 1.410 . S
C707 C715 1.503 . S
C708 C707 1.410 . S
C708 C709 1.392 . S
C708 C711 1.511 . S
C709 C705 1.376 . S
C709 C708 1.392 . S
C709 H721 0.929 . S
C710 C706 1.531 . S
C710 H722 0.960 . S
C710 H723 0.962 . S
C710 H724 0.960 . S
C711 C708 1.511 . S
C711 H725 0.961 . S
C711 H726 0.961 . S
C711 H727 0.961 . S
C712 C713 1.370 . S
C712 C714 1.363 . S
C712 H728 0.931 . S
C713 C712 1.370 . S
C713 C717 1.408 . S
C714 C712 1.363 . S
C714 C715 1.370 . S
C714 C718 1.524 . S
C715 C707 1.503 . S
C715 C714 1.370 . S
C715 C716 1.403 . S
C716 C715 1.403 . S
C716 C717 1.404 . S
C716 C719 1.539 . S
C717 C713 1.408 . S
C717 C716 1.404 . S
C717 H729 0.930 . S
C718 C714 1.524 . S
C718 H730 0.956 . S
C718 H731 0.961 . S
C718 H732 0.961 . S
C719 C716 1.539 . S
C719 H733 0.958 . S
C719 H734 0.961 . S
C719 H735 0.960 . S
H720 C704 0.931 . S
H721 C709 0.929 . S
H722 C710 0.960 . S
H723 C710 0.962 . S
H724 C710 0.960 . S
H725 C711 0.961 . S
H726 C711 0.961 . S
H727 C711 0.961 . S
H728 C712 0.931 . S
H729 C717 0.930 . S
H730 C718 0.956 . S
H731 C718 0.961 . S
H732 C718 0.961 . S
H733 C719 0.958 . S
H734 C719 0.961 . S
H735 C719 0.960 . S
C736 C737 1.391 . S
C736 C738 1.394 . S
C736 H752 0.931 . S
C737 C736 1.391 . S
C737 C741 1.376 1_556 S
C738 C736 1.394 . S
C738 C739 1.368 1_556 S
C738 C742 1.531 . S
C739 C738 1.368 1_554 S
C739 C740 1.410 . S
C739 C747 1.504 . S
C740 C739 1.410 . S
C740 C741 1.392 . S
C740 C743 1.511 . S
C741 C737 1.376 1_554 S
C741 C740 1.392 . S
C741 H753 0.929 . S
C742 C738 1.531 . S
C742 H754 0.960 . S
C742 H755 0.962 . S
C742 H756 0.960 . S
C743 C740 1.511 . S
C743 H757 0.961 . S
C743 H758 0.961 . S
C743 H759 0.961 . S
C744 C745 1.370 1_556 S
C744 C746 1.363 . S
C744 H760 0.931 . S
C745 C744 1.370 1_554 S
C745 C749 1.408 . S
C746 C744 1.363 . S
C746 C747 1.370 1_556 S
C746 C750 1.524 . S
C747 C739 1.504 . S
C747 C746 1.370 1_554 S
C747 C748 1.403 . S
C748 C747 1.403 . S
C748 C749 1.404 . S
C748 C751 1.539 . S
C749 C745 1.408 . S
C749 C748 1.404 . S
C749 H761 0.930 . S
C750 C746 1.524 . S
C750 H762 0.956 . S
C750 H763 0.961 . S
C750 H764 0.961 . S
C751 C748 1.539 . S
C751 H765 0.958 . S
C751 H766 0.961 . S
C751 H767 0.960 . S
H752 C736 0.931 . S
H753 C741 0.929 . S
H754 C742 0.960 . S
H755 C742 0.962 . S
H756 C742 0.960 . S
H757 C743 0.961 . S
H758 C743 0.961 . S
H759 C743 0.961 . S
H760 C744 0.931 . S
H761 C749 0.930 . S
H762 C750 0.956 . S
H763 C750 0.961 . S
H764 C750 0.961 . S
H765 C751 0.958 . S
H766 C751 0.961 . S
H767 C751 0.960 . S
C768 C769 1.391 . S
C768 C770 1.394 . S
C768 H784 0.931 . S
C769 C768 1.391 . S
C769 C773 1.376 . S
C770 C768 1.394 . S
C770 C771 1.369 . S
C770 C774 1.531 . S
C771 C770 1.369 . S
C771 C772 1.410 . S
C771 C779 1.503 . S
C772 C771 1.410 . S
C772 C773 1.392 . S
C772 C775 1.511 . S
C773 C769 1.376 . S
C773 C772 1.392 . S
C773 H785 0.929 . S
C774 C770 1.531 . S
C774 H786 0.960 . S
C774 H787 0.962 1_455 S
C774 H788 0.960 . S
C775 C772 1.511 . S
C775 H789 0.961 . S
C775 H790 0.961 . S
C775 H791 0.961 . S
C776 C777 1.370 . S
C776 C778 1.363 . S
C776 H792 0.931 . S
C777 C776 1.370 . S
C777 C781 1.408 . S
C778 C776 1.363 . S
C778 C779 1.370 . S
C778 C782 1.524 . S
C779 C771 1.503 . S
C779 C778 1.370 . S
C779 C780 1.403 . S
C780 C779 1.403 . S
C780 C781 1.404 . S
C780 C783 1.539 . S
C781 C777 1.408 . S
C781 C780 1.404 . S
C781 H793 0.930 . S
C782 C778 1.524 . S
C782 H794 0.956 . S
C782 H795 0.961 . S
C782 H796 0.961 . S
C783 C780 1.539 . S
C783 H797 0.958 . S
C783 H798 0.961 . S
C783 H799 0.960 . S
H784 C768 0.931 . S
H785 C773 0.929 . S
H786 C774 0.960 . S
H787 C774 0.962 1_655 S
H788 C774 0.960 . S
H789 C775 0.961 . S
H790 C775 0.961 . S
H791 C775 0.961 . S
H792 C776 0.931 . S
H793 C781 0.930 . S
H794 C782 0.956 . S
H795 C782 0.961 . S
H796 C782 0.961 . S
H797 C783 0.958 . S
H798 C783 0.961 . S
H799 C783 0.960 . S
C800 C801 1.391 . S
C800 C802 1.394 . S
C800 H816 0.931 . S
C801 C800 1.391 . S
C801 C805 1.376 . S
C802 C800 1.394 . S
C802 C803 1.369 . S
C802 C806 1.531 . S
C803 C802 1.369 . S
C803 C804 1.410 . S
C803 C811 1.503 . S
C804 C803 1.410 . S
C804 C805 1.392 . S
C804 C807 1.511 . S
C805 C801 1.376 . S
C805 C804 1.392 . S
C805 H817 0.929 . S
C806 C802 1.531 . S
C806 H818 0.960 . S
C806 H819 0.962 . S
C806 H820 0.960 . S
C807 C804 1.511 . S
C807 H821 0.961 . S
C807 H822 0.961 . S
C807 H823 0.961 . S
C808 C809 1.370 . S
C808 C810 1.363 . S
C808 H824 0.931 . S
C809 C808 1.370 . S
C809 C813 1.408 . S
C810 C808 1.363 . S
C810 C811 1.370 . S
C810 C814 1.524 . S
C811 C803 1.503 . S
C811 C810 1.370 . S
C811 C812 1.403 . S
C812 C811 1.403 . S
C812 C813 1.404 . S
C812 C815 1.539 . S
C813 C809 1.408 . S
C813 C812 1.404 . S
C813 H825 0.930 . S
C814 C810 1.524 . S
C814 H826 0.956 . S
C814 H827 0.961 . S
C814 H828 0.961 . S
C815 C812 1.539 . S
C815 H829 0.958 . S
C815 H830 0.961 . S
C815 H831 0.960 . S
H816 C800 0.931 . S
H817 C805 0.929 . S
H818 C806 0.960 . S
H819 C806 0.962 . S
H820 C806 0.960 . S
H821 C807 0.961 . S
H822 C807 0.961 . S
H823 C807 0.961 . S
H824 C808 0.931 . S
H825 C813 0.930 . S
H826 C814 0.956 . S
H827 C814 0.961 . S
H828 C814 0.961 . S
H829 C815 0.958 . S
H830 C815 0.961 . S
H831 C815 0.960 . S
C832 C833 1.391 . S
C832 C834 1.394 . S
C832 H848 0.931 . S
C833 C832 1.391 . S
C833 C837 1.376 . S
C834 C832 1.394 . S
C834 C835 1.369 . S
C834 C838 1.531 . S
C835 C834 1.369 . S
C835 C836 1.410 . S
C835 C843 1.503 . S
C836 C835 1.410 . S
C836 C837 1.392 . S
C836 C839 1.511 . S
C837 C833 1.376 . S
C837 C836 1.392 . S
C837 H849 0.929 . S
C838 C834 1.531 . S
C838 H850 0.960 . S
C838 H851 0.962 . S
C838 H852 0.960 . S
C839 C836 1.511 . S
C839 H853 0.961 . S
C839 H854 0.961 . S
C839 H855 0.961 . S
C840 C841 1.370 . S
C840 C842 1.363 . S
C840 H856 0.931 . S
C841 C840 1.370 . S
C841 C845 1.408 . S
C842 C840 1.363 . S
C842 C843 1.370 . S
C842 C846 1.524 . S
C843 C835 1.503 . S
C843 C842 1.370 . S
C843 C844 1.403 . S
C844 C843 1.403 . S
C844 C845 1.404 . S
C844 C847 1.539 . S
C845 C841 1.408 . S
C845 C844 1.404 . S
C845 H857 0.930 . S
C846 C842 1.524 . S
C846 H858 0.956 . S
C846 H859 0.961 . S
C846 H860 0.961 . S
C847 C844 1.539 . S
C847 H861 0.958 . S
C847 H862 0.961 . S
C847 H863 0.960 . S
H848 C832 0.931 . S
H849 C837 0.929 . S
H850 C838 0.960 . S
H851 C838 0.962 . S
H852 C838 0.960 . S
H853 C839 0.961 . S
H854 C839 0.961 . S
H855 C839 0.961 . S
H856 C840 0.931 . S
H857 C845 0.930 . S
H858 C846 0.956 . S
H859 C846 0.961 . S
H860 C846 0.961 . S
H861 C847 0.958 . S
H862 C847 0.961 . S
H863 C847 0.960 . S
C864 C865 1.391 . S
C864 C866 1.394 . S
C864 H880 0.931 . S
C865 C864 1.391 . S
C865 C869 1.367 1_554 S
C866 C864 1.394 . S
C866 C867 1.369 1_554 S
C866 C870 1.531 . S
C867 C866 1.369 1_556 S
C867 C868 1.410 . S
C867 C875 1.503 . S
C868 C867 1.410 . S
C868 C869 1.398 . S
C868 C871 1.511 . S
C869 C865 1.367 1_556 S
C869 C868 1.398 . S
C869 H881 0.933 . S
C870 C866 1.531 . S
C870 H882 0.960 . S
C870 H883 0.962 . S
C870 H884 0.960 . S
C871 C868 1.511 . S
C871 H885 0.961 . S
C871 H886 0.961 . S
C871 H887 0.961 . S
C872 C873 1.370 1_554 S
C872 C874 1.363 . S
C872 H888 0.931 . S
C873 C872 1.370 1_556 S
C873 C877 1.408 . S
C874 C872 1.363 . S
C874 C875 1.370 1_554 S
C874 C878 1.524 . S
C875 C867 1.503 . S
C875 C874 1.370 1_556 S
C875 C876 1.403 . S
C876 C875 1.403 . S
C876 C877 1.404 . S
C876 C879 1.539 . S
C877 C873 1.408 . S
C877 C876 1.404 . S
C877 H889 0.930 . S
C878 C874 1.524 . S
C878 H890 0.956 . S
C878 H891 0.961 . S
C878 H892 0.961 . S
C879 C876 1.539 . S
C879 H893 0.958 . S
C879 H894 0.961 . S
C879 H895 0.960 . S
H880 C864 0.931 . S
H881 C869 0.933 . S
H882 C870 0.960 . S
H883 C870 0.962 . S
H884 C870 0.960 . S
H885 C871 0.961 . S
H886 C871 0.961 . S
H887 C871 0.961 . S
H888 C872 0.931 . S
H889 C877 0.930 . S
H890 C878 0.956 . S
H891 C878 0.961 . S
H892 C878 0.961 . S
H893 C879 0.958 . S
H894 C879 0.961 . S
H895 C879 0.960 . S
C896 C897 1.391 . S
C896 C898 1.394 . S
C896 H912 0.931 . S
C897 C896 1.391 . S
C897 C901 1.376 . S
C898 C896 1.394 . S
C898 C899 1.369 . S
C898 C902 1.531 . S
C899 C898 1.369 . S
C899 C900 1.410 . S
C899 C907 1.503 . S
C900 C899 1.410 . S
C900 C901 1.392 . S
C900 C903 1.511 . S
C901 C897 1.376 . S
C901 C900 1.392 . S
C901 H913 0.929 . S
C902 C898 1.531 . S
C902 H914 0.960 . S
C902 H915 0.962 . S
C902 H916 0.960 . S
C903 C900 1.511 . S
C903 H917 0.961 . S
C903 H918 0.961 . S
C903 H919 0.961 . S
C904 C905 1.370 . S
C904 C906 1.363 . S
C904 H920 0.931 . S
C905 C904 1.370 . S
C905 C909 1.408 . S
C906 C904 1.363 . S
C906 C907 1.370 . S
C906 C910 1.524 . S
C907 C899 1.503 . S
C907 C906 1.370 . S
C907 C908 1.403 . S
C908 C907 1.403 . S
C908 C909 1.404 . S
C908 C911 1.539 1_655 S
C909 C905 1.408 . S
C909 C908 1.404 . S
C909 H921 0.930 . S
C910 C906 1.524 . S
C910 H922 0.956 . S
C910 H923 0.961 . S
C910 H924 0.961 . S
C911 C908 1.539 1_455 S
C911 H925 0.958 . S
C911 H926 0.961 . S
C911 H927 0.960 . S
H912 C896 0.931 . S
H913 C901 0.929 . S
H914 C902 0.960 . S
H915 C902 0.962 . S
H916 C902 0.960 . S
H917 C903 0.961 . S
H918 C903 0.961 . S
H919 C903 0.961 . S
H920 C904 0.931 . S
H921 C909 0.930 . S
H922 C910 0.956 . S
H923 C910 0.961 . S
H924 C910 0.961 . S
H925 C911 0.958 . S
H926 C911 0.961 . S
H927 C911 0.960 . S
C928 C929 1.391 . S
C928 C930 1.394 . S
C928 H944 0.931 . S
C929 C928 1.391 . S
C929 C933 1.376 . S
C930 C928 1.394 . S
C930 C931 1.369 . S
C930 C934 1.531 . S
C931 C930 1.369 . S
C931 C932 1.410 . S
C931 C939 1.503 . S
C932 C931 1.410 . S
C932 C933 1.392 . S
C932 C935 1.511 . S
C933 C929 1.376 . S
C933 C932 1.392 . S
C933 H945 0.929 . S
C934 C930 1.531 . S
C934 H946 0.960 . S
C934 H947 0.962 . S
C934 H948 0.960 . S
C935 C932 1.511 . S
C935 H949 0.961 . S
C935 H950 0.961 . S
C935 H951 0.961 . S
C936 C937 1.370 . S
C936 C938 1.363 . S
C936 H952 0.931 . S
C937 C936 1.370 . S
C937 C941 1.408 . S
C938 C936 1.363 . S
C938 C939 1.370 . S
C938 C942 1.524 . S
C939 C931 1.503 . S
C939 C938 1.370 . S
C939 C940 1.403 . S
C940 C939 1.403 . S
C940 C941 1.404 . S
C940 C943 1.539 . S
C941 C937 1.408 . S
C941 C940 1.404 . S
C941 H953 0.930 . S
C942 C938 1.524 . S
C942 H954 0.956 . S
C942 H955 0.961 . S
C942 H956 0.961 . S
C943 C940 1.539 . S
C943 H957 0.958 . S
C943 H958 0.961 . S
C943 H959 0.960 . S
H944 C928 0.931 . S
H945 C933 0.929 . S
H946 C934 0.960 . S
H947 C934 0.962 . S
H948 C934 0.960 . S
H949 C935 0.961 . S
H950 C935 0.961 . S
H951 C935 0.961 . S
H952 C936 0.931 . S
H953 C941 0.930 . S
H954 C942 0.956 . S
H955 C942 0.961 . S
H956 C942 0.961 . S
H957 C943 0.958 . S
H958 C943 0.961 . S
H959 C943 0.960 . S
C960 C961 1.391 . S
C960 C962 1.394 1_556 S
C960 H976 0.931 . S
C961 C960 1.391 . S
C961 C965 1.376 1_455 S
C962 C960 1.394 1_554 S
C962 C963 1.369 . S
C962 C966 1.531 . S
C963 C962 1.369 . S
C963 C964 1.410 1_455 S
C963 C971 1.503 1_455 S
C964 C963 1.410 1_655 S
C964 C965 1.392 1_554 S
C964 C967 1.511 . S
C965 C961 1.376 1_655 S
C965 C964 1.392 1_556 S
C965 H977 0.929 . S
C966 C962 1.531 . S
C966 H978 0.960 . S
C966 H979 0.962 . S
C966 H980 0.960 . S
C967 C964 1.511 . S
C967 H981 0.961 1_554 S
C967 H982 0.961 . S
C967 H983 0.961 . S
C968 C969 1.370 . S
C968 C970 1.363 . S
C968 H984 0.931 . S
C969 C968 1.370 . S
C969 C973 1.408 . S
C970 C968 1.363 . S
C970 C971 1.370 . S
C970 C974 1.524 1_655 S
C971 C963 1.503 1_655 S
C971 C970 1.370 . S
C971 C972 1.403 . S
C972 C971 1.403 . S
C972 C973 1.404 . S
C972 C975 1.539 . S
C973 C969 1.408 . S
C973 C972 1.404 . S
C973 H985 0.930 . S
C974 C970 1.524 1_455 S
C974 H986 0.956 . S
C974 H987 0.933 1_455 S
C974 H988 0.961 . S
C975 C972 1.539 . S
C975 H989 0.958 . S
C975 H990 0.961 . S
C975 H991 0.960 . S
H976 C960 0.931 . S
H977 C965 0.929 . S
H978 C966 0.960 . S
H979 C966 0.962 . S
H980 C966 0.960 . S
H981 C967 0.961 1_556 S
H982 C967 0.961 . S
H983 C967 0.961 . S
H984 C968 0.931 . S
H985 C973 0.930 . S
H986 C974 0.956 . S
H987 C974 0.933 1_655 S
H988 C974 0.961 . S
H989 C975 0.958 . S
H990 C975 0.961 . S
H991 C975 0.960 . S
C992 C993 1.391 . S
C992 C994 1.394 . S
C992 H1008 0.931 . S
C993 C992 1.391 . S
C993 C997 1.376 . S
C994 C992 1.394 . S
C994 C995 1.369 . S
C994 C998 1.531 . S
C995 C994 1.369 . S
C995 C996 1.410 . S
C995 C1003 1.503 . S
C996 C995 1.410 . S
C996 C997 1.392 . S
C996 C999 1.511 . S
C997 C993 1.376 . S
C997 C996 1.392 . S
C997 H1009 0.929 . S
C998 C994 1.531 . S
C998 H1010 0.960 . S
C998 H1011 0.962 . S
C998 H1012 0.960 . S
C999 C996 1.511 . S
C999 H1013 0.961 . S
C999 H1014 0.961 . S
C999 H1015 0.961 . S
C1000 C1001 1.370 . S
C1000 C1002 1.363 . S
C1000 H1016 0.931 . S
C1001 C1000 1.370 . S
C1001 C1005 1.408 . S
C1002 C1000 1.363 . S
C1002 C1003 1.370 . S
C1002 C1006 1.524 . S
C1003 C995 1.503 . S
C1003 C1002 1.370 . S
C1003 C1004 1.403 . S
C1004 C1003 1.403 . S
C1004 C1005 1.404 . S
C1004 C1007 1.539 . S
C1005 C1001 1.408 . S
C1005 C1004 1.404 . S
C1005 H1017 0.930 . S
C1006 C1002 1.524 . S
C1006 H1018 0.956 . S
C1006 H1019 0.961 . S
C1006 H1020 0.961 . S
C1007 C1004 1.539 . S
C1007 H1021 0.958 . S
C1007 H1022 0.961 . S
C1007 H1023 0.960 . S
H1008 C992 0.931 . S
H1009 C997 0.929 . S
H1010 C998 0.960 . S
H1011 C998 0.962 . S
H1012 C998 0.960 . S
H1013 C999 0.961 . S
H1014 C999 0.961 . S
H1015 C999 0.961 . S
H1016 C1000 0.931 . S
H1017 C1005 0.930 . S
H1018 C1006 0.956 . S
H1019 C1006 0.961 . S
H1020 C1006 0.961 . S
H1021 C1007 0.958 . S
H1022 C1007 0.961 . S
H1023 C1007 0.960 . S
C1024 C1025 1.391 . S
C1024 C1026 1.394 . S
C1024 H1040 0.931 . S
C1025 C1024 1.391 . S
C1025 C1029 1.376 . S
C1026 C1024 1.394 . S
C1026 C1027 1.369 . S
C1026 C1030 1.531 . S
C1027 C1026 1.369 . S
C1027 C1028 1.410 . S
C1027 C1035 1.503 . S
C1028 C1027 1.410 . S
C1028 C1029 1.392 . S
C1028 C1031 1.511 . S
C1029 C1025 1.376 . S
C1029 C1028 1.392 . S
C1029 H1041 0.929 . S
C1030 C1026 1.531 . S
C1030 H1042 0.960 . S
C1030 H1043 0.962 . S
C1030 H1044 0.960 . S
C1031 C1028 1.511 . S
C1031 H1045 0.961 . S
C1031 H1046 0.961 . S
C1031 H1047 0.961 . S
C1032 C1033 1.370 . S
C1032 C1034 1.363 . S
C1032 H1048 0.931 . S
C1033 C1032 1.370 . S
C1033 C1037 1.408 . S
C1034 C1032 1.363 . S
C1034 C1035 1.370 . S
C1034 C1038 1.524 . S
C1035 C1027 1.503 . S
C1035 C1034 1.370 . S
C1035 C1036 1.403 . S
C1036 C1035 1.403 . S
C1036 C1037 1.404 . S
C1036 C1039 1.539 . S
C1037 C1033 1.408 . S
C1037 C1036 1.404 . S
C1037 H1049 0.930 . S
C1038 C1034 1.524 . S
C1038 H1050 0.956 . S
C1038 H1051 0.961 . S
C1038 H1052 0.961 . S
C1039 C1036 1.539 . S
C1039 H1053 0.958 . S
C1039 H1054 0.961 . S
C1039 H1055 0.960 . S
H1040 C1024 0.931 . S
H1041 C1029 0.929 . S
H1042 C1030 0.960 . S
H1043 C1030 0.962 . S
H1044 C1030 0.960 . S
H1045 C1031 0.961 . S
H1046 C1031 0.961 . S
H1047 C1031 0.961 . S
H1048 C1032 0.931 . S
H1049 C1037 0.930 . S
H1050 C1038 0.956 . S
H1051 C1038 0.961 . S
H1052 C1038 0.961 . S
H1053 C1039 0.958 . S
H1054 C1039 0.961 . S
H1055 C1039 0.960 . S
C1056 C1057 1.391 . S
C1056 C1058 1.394 . S
C1056 H1072 0.931 . S
C1057 C1056 1.391 . S
C1057 C1061 1.376 . S
C1058 C1056 1.394 . S
C1058 C1059 1.369 . S
C1058 C1062 1.531 . S
C1059 C1058 1.369 . S
C1059 C1060 1.410 . S
C1059 C1067 1.503 . S
C1060 C1059 1.410 . S
C1060 C1061 1.392 . S
C1060 C1063 1.511 . S
C1061 C1057 1.376 . S
C1061 C1060 1.392 . S
C1061 H1073 0.929 . S
C1062 C1058 1.531 . S
C1062 H1074 0.960 . S
C1062 H1075 0.962 . S
C1062 H1076 0.960 . S
C1063 C1060 1.511 . S
C1063 H1077 0.961 . S
C1063 H1078 0.961 . S
C1063 H1079 0.961 . S
C1064 C1065 1.370 . S
C1064 C1066 1.363 . S
C1064 H1080 0.931 . S
C1065 C1064 1.370 . S
C1065 C1069 1.408 . S
C1066 C1064 1.363 . S
C1066 C1067 1.370 . S
C1066 C1070 1.524 . S
C1067 C1059 1.503 . S
C1067 C1066 1.370 . S
C1067 C1068 1.403 . S
C1068 C1067 1.403 . S
C1068 C1069 1.404 . S
C1068 C1071 1.539 . S
C1069 C1065 1.408 . S
C1069 C1068 1.404 . S
C1069 H1081 0.930 . S
C1070 C1066 1.524 . S
C1070 H1082 0.956 . S
C1070 H1083 0.961 . S
C1070 H1084 0.961 . S
C1071 C1068 1.539 . S
C1071 H1085 0.958 . S
C1071 H1086 0.961 . S
C1071 H1087 0.960 . S
H1072 C1056 0.931 . S
H1073 C1061 0.929 . S
H1074 C1062 0.960 . S
H1075 C1062 0.962 . S
H1076 C1062 0.960 . S
H1077 C1063 0.961 . S
H1078 C1063 0.961 . S
H1079 C1063 0.961 . S
H1080 C1064 0.931 . S
H1081 C1069 0.930 . S
H1082 C1070 0.956 . S
H1083 C1070 0.961 . S
H1084 C1070 0.961 . S
H1085 C1071 0.958 . S
H1086 C1071 0.961 . S
H1087 C1071 0.960 . S
C1088 C1089 1.391 . S
C1088 C1090 1.394 1_554 S
C1088 H1104 0.931 . S
C1089 C1088 1.391 . S
C1089 C1093 1.376 . S
C1090 C1088 1.394 1_556 S
C1090 C1091 1.369 . S
C1090 C1094 1.531 . S
C1091 C1090 1.369 . S
C1091 C1092 1.410 . S
C1091 C1099 1.503 . S
C1092 C1091 1.410 . S
C1092 C1093 1.392 1_556 S
C1092 C1095 1.511 . S
C1093 C1089 1.376 . S
C1093 C1092 1.392 1_554 S
C1093 H1105 0.929 . S
C1094 C1090 1.531 . S
C1094 H1106 0.960 . S
C1094 H1107 0.962 . S
C1094 H1108 0.960 1_556 S
C1095 C1092 1.511 . S
C1095 H1109 0.961 . S
C1095 H1110 0.961 . S
C1095 H1111 0.961 . S
C1096 C1097 1.370 . S
C1096 C1098 1.363 . S
C1096 H1112 0.931 . S
C1097 C1096 1.370 . S
C1097 C1101 1.408 . S
C1098 C1096 1.363 . S
C1098 C1099 1.370 . S
C1098 C1102 1.524 . S
C1099 C1091 1.503 . S
C1099 C1098 1.370 . S
C1099 C1100 1.403 . S
C1100 C1099 1.403 . S
C1100 C1101 1.404 . S
C1100 C1103 1.539 . S
C1101 C1097 1.408 . S
C1101 C1100 1.404 . S
C1101 H1113 0.930 . S
C1102 C1098 1.524 . S
C1102 H1114 0.956 . S
C1102 H1115 0.961 . S
C1102 H1116 0.961 . S
C1103 C1100 1.539 . S
C1103 H1117 0.958 . S
C1103 H1118 0.961 . S
C1103 H1119 0.960 . S
H1104 C1088 0.931 . S
H1105 C1093 0.929 . S
H1106 C1094 0.960 . S
H1107 C1094 0.962 . S
H1108 C1094 0.960 1_554 S
H1109 C1095 0.961 . S
H1110 C1095 0.961 . S
H1111 C1095 0.961 . S
H1112 C1096 0.931 . S
H1113 C1101 0.930 . S
H1114 C1102 0.956 . S
H1115 C1102 0.961 . S
H1116 C1102 0.961 . S
H1117 C1103 0.958 . S
H1118 C1103 0.961 . S
H1119 C1103 0.960 . S
C1120 C1121 1.391 . S
C1120 C1122 1.394 . S
C1120 H1136 0.931 . S
C1121 C1120 1.391 . S
C1121 C1125 1.376 . S
C1122 C1120 1.394 . S
C1122 C1123 1.369 . S
C1122 C1126 1.531 . S
C1123 C1122 1.369 . S
C1123 C1124 1.410 . S
C1123 C1131 1.503 . S
C1124 C1123 1.410 . S
C1124 C1125 1.392 . S
C1124 C1127 1.511 . S
C1125 C1121 1.376 . S
C1125 C1124 1.392 . S
C1125 H1137 0.929 . S
C1126 C1122 1.531 . S
C1126 H1138 0.960 . S
C1126 H1139 0.962 . S
C1126 H1140 0.960 . S
C1127 C1124 1.511 . S
C1127 H1141 0.961 . S
C1127 H1142 0.961 . S
C1127 H1143 0.961 . S
C1128 C1129 1.370 . S
C1128 C1130 1.363 . S
C1128 H1144 0.931 . S
C1129 C1128 1.370 . S
C1129 C1133 1.408 . S
C1130 C1128 1.363 . S
C1130 C1131 1.370 . S
C1130 C1134 1.524 . S
C1131 C1123 1.503 . S
C1131 C1130 1.370 . S
C1131 C1132 1.403 . S
C1132 C1131 1.403 . S
C1132 C1133 1.404 . S
C1132 C1135 1.539 . S
C1133 C1129 1.408 . S
C1133 C1132 1.404 . S
C1133 H1145 0.930 . S
C1134 C1130 1.524 . S
C1134 H1146 0.956 . S
C1134 H1147 0.961 . S
C1134 H1148 0.961 . S
C1135 C1132 1.539 . S
C1135 H1149 0.958 . S
C1135 H1150 0.961 . S
C1135 H1151 0.960 . S
H1136 C1120 0.931 . S
H1137 C1125 0.929 . S
H1138 C1126 0.960 . S
H1139 C1126 0.962 . S
H1140 C1126 0.960 . S
H1141 C1127 0.961 . S
H1142 C1127 0.961 . S
H1143 C1127 0.961 . S
H1144 C1128 0.931 . S
H1145 C1133 0.930 . S
H1146 C1134 0.956 . S
H1147 C1134 0.961 . S
H1148 C1134 0.961 . S
H1149 C1135 0.958 . S
H1150 C1135 0.961 . S
H1151 C1135 0.960 . S
C1152 C1153 1.391 . S
C1152 C1154 1.394 . S
C1152 H1168 0.931 . S
C1153 C1152 1.391 . S
C1153 C1157 1.376 1_455 S
C1154 C1152 1.394 . S
C1154 C1155 1.428 . S
C1154 C1158 1.531 . S
C1155 C1154 1.428 . S
C1155 C1156 1.370 1_455 S
C1155 C1163 1.488 1_455 S
C1156 C1155 1.370 1_655 S
C1156 C1157 1.392 . S
C1156 C1159 1.511 . S
C1157 C1153 1.376 1_655 S
C1157 C1156 1.392 . S
C1157 H1169 0.929 . S
C1158 C1154 1.531 . S
C1158 H1170 0.960 . S
C1158 H1171 0.962 . S
C1158 H1172 0.960 . S
C1159 C1156 1.511 . S
C1159 H1173 0.961 . S
C1159 H1174 0.961 . S
C1159 H1175 0.961 . S
C1160 C1161 1.370 . S
C1160 C1162 1.353 1_655 S
C1160 H1176 0.931 1_655 S
C1161 C1160 1.370 . S
C1161 C1165 1.408 . S
C1162 C1160 1.353 1_455 S
C1162 C1163 1.359 1_455 S
C1162 C1166 1.547 . S
C1163 C1155 1.488 1_655 S
C1163 C1162 1.359 1_655 S
C1163 C1164 1.403 . S
C1164 C1163 1.403 . S
C1164 C1165 1.404 . S
C1164 C1167 1.539 . S
C1165 C1161 1.408 . S
C1165 C1164 1.404 . S
C1165 H1177 0.930 . S
C1166 C1162 1.547 . S
C1166 H1178 0.956 . S
C1166 H1179 0.961 . S
C1166 H1180 0.961 . S
C1167 C1164 1.539 . S
C1167 H1181 0.958 . S
C1167 H1182 0.961 . S
C1167 H1183 0.960 . S
H1168 C1152 0.931 . S
H1169 C1157 0.929 . S
H1170 C1158 0.960 . S
H1171 C1158 0.962 . S
H1172 C1158 0.960 . S
H1173 C1159 0.961 . S
H1174 C1159 0.961 . S
H1175 C1159 0.961 . S
H1176 C1160 0.931 1_455 S
H1177 C1165 0.930 . S
H1178 C1166 0.956 . S
H1179 C1166 0.961 . S
H1180 C1166 0.961 . S
H1181 C1167 0.958 . S
H1182 C1167 0.961 . S
H1183 C1167 0.960 . S
C1184 C1185 1.391 . S
C1184 C1186 1.394 . S
C1184 H1200 0.931 . S
C1185 C1184 1.391 . S
C1185 C1189 1.376 . S
C1186 C1184 1.394 . S
C1186 C1187 1.369 . S
C1186 C1190 1.531 . S
C1187 C1186 1.369 . S
C1187 C1188 1.410 . S
C1187 C1195 1.503 . S
C1188 C1187 1.410 . S
C1188 C1189 1.392 . S
C1188 C1191 1.511 . S
C1189 C1185 1.376 . S
C1189 C1188 1.392 . S
C1189 H1201 0.929 . S
C1190 C1186 1.531 . S
C1190 H1202 0.960 . S
C1190 H1203 0.962 . S
C1190 H1204 0.960 . S
C1191 C1188 1.511 . S
C1191 H1205 0.961 . S
C1191 H1206 0.961 . S
C1191 H1207 0.961 . S
C1192 C1193 1.370 . S
C1192 C1194 1.363 . S
C1192 H1208 0.931 . S
C1193 C1192 1.370 . S
C1193 C1197 1.408 . S
C1194 C1192 1.363 . S
C1194 C1195 1.370 . S
C1194 C1198 1.524 . S
C1195 C1187 1.503 . S
C1195 C1194 1.370 . S
C1195 C1196 1.403 . S
C1196 C1195 1.403 . S
C1196 C1197 1.404 . S
C1196 C1199 1.539 . S
C1197 C1193 1.408 . S
C1197 C1196 1.404 . S
C1197 H1209 0.930 . S
C1198 C1194 1.524 . S
C1198 H1210 0.956 . S
C1198 H1211 0.961 . S
C1198 H1212 0.961 . S
C1199 C1196 1.539 . S
C1199 H1213 0.958 . S
C1199 H1214 0.961 . S
C1199 H1215 0.960 . S
H1200 C1184 0.931 . S
H1201 C1189 0.929 . S
H1202 C1190 0.960 . S
H1203 C1190 0.962 . S
H1204 C1190 0.960 . S
H1205 C1191 0.961 . S
H1206 C1191 0.961 . S
H1207 C1191 0.961 . S
H1208 C1192 0.931 . S
H1209 C1197 0.930 . S
H1210 C1198 0.956 . S
H1211 C1198 0.961 . S
H1212 C1198 0.961 . S
H1213 C1199 0.958 . S
H1214 C1199 0.961 . S
H1215 C1199 0.960 . S
C1216 C1217 1.391 . S
C1216 C1218 1.394 1_554 S
C1216 H1232 0.931 . S
C1217 C1216 1.391 . S
C1217 C1221 1.376 1_655 S
C1218 C1216 1.394 1_556 S
C1218 C1219 1.370 . S
C1218 C1222 1.531 . S
C1219 C1218 1.370 . S
C1219 C1220 1.409 1_655 S
C1219 C1227 1.503 1_655 S
C1220 C1219 1.409 1_455 S
C1220 C1221 1.392 1_556 S
C1220 C1223 1.511 . S
C1221 C1217 1.376 1_455 S
C1221 C1220 1.392 1_554 S
C1221 H1233 0.929 . S
C1222 C1218 1.531 . S
C1222 H1234 0.960 . S
C1222 H1235 0.962 . S
C1222 H1236 0.960 . S
C1223 C1220 1.511 . S
C1223 H1237 0.966 . S
C1223 H1238 0.961 . S
C1223 H1239 0.961 . S
C1224 C1225 1.406 . S
C1224 C1226 1.352 1_455 S
C1224 H1240 0.908 1_455 S
C1225 C1224 1.406 . S
C1225 C1229 1.408 . S
C1226 C1224 1.352 1_655 S
C1226 C1227 1.370 1_655 S
C1226 C1230 1.524 . S
C1227 C1219 1.503 1_455 S
C1227 C1226 1.370 1_455 S
C1227 C1228 1.403 . S
C1228 C1227 1.403 . S
C1228 C1229 1.404 . S
C1228 C1231 1.539 . S
C1229 C1225 1.408 . S
C1229 C1228 1.404 . S
C1229 H1241 0.930 . S
C1230 C1226 1.524 . S
C1230 H1242 0.956 . S
C1230 H1243 0.961 . S
C1230 H1244 0.961 . S
C1231 C1228 1.539 . S
C1231 H1245 0.958 . S
C1231 H1246 0.961 . S
C1231 H1247 0.960 . S
H1232 C1216 0.931 . S
H1233 C1221 0.929 . S
H1234 C1222 0.960 . S
H1235 C1222 0.962 . S
H1236 C1222 0.960 . S
H1237 C1223 0.966 . S
H1238 C1223 0.961 . S
H1239 C1223 0.961 . S
H1240 C1224 0.908 1_655 S
H1241 C1229 0.930 . S
H1242 C1230 0.956 . S
H1243 C1230 0.961 . S
H1244 C1230 0.961 . S
H1245 C1231 0.958 . S
H1246 C1231 0.961 . S
H1247 C1231 0.960 . S
C1248 C1249 1.391 . S
C1248 C1250 1.394 . S
C1248 H1264 0.931 . S
C1249 C1248 1.391 . S
C1249 C1253 1.376 . S
C1250 C1248 1.394 . S
C1250 C1251 1.369 . S
C1250 C1254 1.531 . S
C1251 C1250 1.369 . S
C1251 C1252 1.410 . S
C1251 C1259 1.503 . S
C1252 C1251 1.410 . S
C1252 C1253 1.392 . S
C1252 C1255 1.511 . S
C1253 C1249 1.376 . S
C1253 C1252 1.392 . S
C1253 H1265 0.929 . S
C1254 C1250 1.531 . S
C1254 H1266 0.960 . S
C1254 H1267 0.962 . S
C1254 H1268 0.960 . S
C1255 C1252 1.511 . S
C1255 H1269 0.961 . S
C1255 H1270 0.961 . S
C1255 H1271 0.961 . S
C1256 C1257 1.370 . S
C1256 C1258 1.363 . S
C1256 H1272 0.931 . S
C1257 C1256 1.370 . S
C1257 C1261 1.408 . S
C1258 C1256 1.363 . S
C1258 C1259 1.370 . S
C1258 C1262 1.524 . S
C1259 C1251 1.503 . S
C1259 C1258 1.370 . S
C1259 C1260 1.403 . S
C1260 C1259 1.403 . S
C1260 C1261 1.404 . S
C1260 C1263 1.539 . S
C1261 C1257 1.408 . S
C1261 C1260 1.404 . S
C1261 H1273 0.930 . S
C1262 C1258 1.524 . S
C1262 H1274 0.956 . S
C1262 H1275 0.961 . S
C1262 H1276 0.961 . S
C1263 C1260 1.539 . S
C1263 H1277 0.958 . S
C1263 H1278 0.961 . S
C1263 H1279 0.960 . S
H1264 C1248 0.931 . S
H1265 C1253 0.929 . S
H1266 C1254 0.960 . S
H1267 C1254 0.962 . S
H1268 C1254 0.960 . S
H1269 C1255 0.961 . S
H1270 C1255 0.961 . S
H1271 C1255 0.961 . S
H1272 C1256 0.931 . S
H1273 C1261 0.930 . S
H1274 C1262 0.956 . S
H1275 C1262 0.961 . S
H1276 C1262 0.961 . S
H1277 C1263 0.958 . S
H1278 C1263 0.961 . S
H1279 C1263 0.960 . S
C1280 C1281 1.391 . S
C1280 C1282 1.394 . S
C1280 H1296 0.931 . S
C1281 C1280 1.391 . S
C1281 C1285 1.376 . S
C1282 C1280 1.394 . S
C1282 C1283 1.369 . S
C1282 C1286 1.531 . S
C1283 C1282 1.369 . S
C1283 C1284 1.410 . S
C1283 C1291 1.503 . S
C1284 C1283 1.410 . S
C1284 C1285 1.392 . S
C1284 C1287 1.511 . S
C1285 C1281 1.376 . S
C1285 C1284 1.392 . S
C1285 H1297 0.929 . S
C1286 C1282 1.531 . S
C1286 H1298 0.960 . S
C1286 H1299 0.962 . S
C1286 H1300 0.960 . S
C1287 C1284 1.511 . S
C1287 H1301 0.961 . S
C1287 H1302 0.961 . S
C1287 H1303 0.961 . S
C1288 C1289 1.370 . S
C1288 C1290 1.363 . S
C1288 H1304 0.931 . S
C1289 C1288 1.370 . S
C1289 C1293 1.408 . S
C1290 C1288 1.363 . S
C1290 C1291 1.370 . S
C1290 C1294 1.524 . S
C1291 C1283 1.503 . S
C1291 C1290 1.370 . S
C1291 C1292 1.403 . S
C1292 C1291 1.403 . S
C1292 C1293 1.404 . S
C1292 C1295 1.539 . S
C1293 C1289 1.408 . S
C1293 C1292 1.404 . S
C1293 H1305 0.930 . S
C1294 C1290 1.524 . S
C1294 H1306 0.956 . S
C1294 H1307 0.961 . S
C1294 H1308 0.961 . S
C1295 C1292 1.539 . S
C1295 H1309 0.958 . S
C1295 H1310 0.961 . S
C1295 H1311 0.960 . S
H1296 C1280 0.931 . S
H1297 C1285 0.929 . S
H1298 C1286 0.960 . S
H1299 C1286 0.962 . S
H1300 C1286 0.960 . S
H1301 C1287 0.961 . S
H1302 C1287 0.961 . S
H1303 C1287 0.961 . S
H1304 C1288 0.931 . S
H1305 C1293 0.930 . S
H1306 C1294 0.956 . S
H1307 C1294 0.961 . S
H1308 C1294 0.961 . S
H1309 C1295 0.958 . S
H1310 C1295 0.961 . S
H1311 C1295 0.960 . S
C1312 C1313 1.391 . S
C1312 C1314 1.394 . S
C1312 H1328 0.931 . S
C1313 C1312 1.391 . S
C1313 C1317 1.376 . S
C1314 C1312 1.394 . S
C1314 C1315 1.369 . S
C1314 C1318 1.531 . S
C1315 C1314 1.369 . S
C1315 C1316 1.410 . S
C1315 C1323 1.503 . S
C1316 C1315 1.410 . S
C1316 C1317 1.392 . S
C1316 C1319 1.511 . S
C1317 C1313 1.376 . S
C1317 C1316 1.392 . S
C1317 H1329 0.929 . S
C1318 C1314 1.531 . S
C1318 H1330 0.960 . S
C1318 H1331 0.962 . S
C1318 H1332 0.960 . S
C1319 C1316 1.511 . S
C1319 H1333 0.961 . S
C1319 H1334 0.961 . S
C1319 H1335 0.961 . S
C1320 C1321 1.370 . S
C1320 C1322 1.363 . S
C1320 H1336 0.931 . S
C1321 C1320 1.370 . S
C1321 C1325 1.408 . S
C1322 C1320 1.363 . S
C1322 C1323 1.370 . S
C1322 C1326 1.524 . S
C1323 C1315 1.503 . S
C1323 C1322 1.370 . S
C1323 C1324 1.403 . S
C1324 C1323 1.403 . S
C1324 C1325 1.404 . S
C1324 C1327 1.539 . S
C1325 C1321 1.408 . S
C1325 C1324 1.404 . S
C1325 H1337 0.930 . S
C1326 C1322 1.524 . S
C1326 H1338 0.956 . S
C1326 H1339 0.961 . S
C1326 H1340 0.961 . S
C1327 C1324 1.539 . S
C1327 H1341 0.958 . S
C1327 H1342 0.961 . S
C1327 H1343 0.960 . S
H1328 C1312 0.931 . S
H1329 C1317 0.929 . S
H1330 C1318 0.960 . S
H1331 C1318 0.962 . S
H1332 C1318 0.960 . S
H1333 C1319 0.961 . S
H1334 C1319 0.961 . S
H1335 C1319 0.961 . S
H1336 C1320 0.931 . S
H1337 C1325 0.930 . S
H1338 C1326 0.956 . S
H1339 C1326 0.961 . S
H1340 C1326 0.961 . S
H1341 C1327 0.958 . S
H1342 C1327 0.961 . S
H1343 C1327 0.960 . S
C1344 C1345 1.391 . S
C1344 C1346 1.394 . S
C1344 H1360 0.931 . S
C1345 C1344 1.391 . S
C1345 C1349 1.376 . S
C1346 C1344 1.394 . S
C1346 C1347 1.369 . S
C1346 C1350 1.531 . S
C1347 C1346 1.369 . S
C1347 C1348 1.410 . S
C1347 C1355 1.503 . S
C1348 C1347 1.410 . S
C1348 C1349 1.392 . S
C1348 C1351 1.511 . S
C1349 C1345 1.376 . S
C1349 C1348 1.392 . S
C1349 H1361 0.929 . S
C1350 C1346 1.531 . S
C1350 H1362 0.960 . S
C1350 H1363 0.962 . S
C1350 H1364 0.960 . S
C1351 C1348 1.511 . S
C1351 H1365 0.961 . S
C1351 H1366 0.961 . S
C1351 H1367 0.961 . S
C1352 C1353 1.370 . S
C1352 C1354 1.363 1_556 S
C1352 H1368 0.931 . S
C1353 C1352 1.370 . S
C1353 C1357 1.408 . S
C1354 C1352 1.363 1_554 S
C1354 C1355 1.370 . S
C1354 C1358 1.524 . S
C1355 C1347 1.503 . S
C1355 C1354 1.370 . S
C1355 C1356 1.403 . S
C1356 C1355 1.403 . S
C1356 C1357 1.404 1_554 S
C1356 C1359 1.539 . S
C1357 C1353 1.408 . S
C1357 C1356 1.404 1_556 S
C1357 H1369 0.930 . S
C1358 C1354 1.524 . S
C1358 H1370 0.956 . S
C1358 H1371 0.961 . S
C1358 H1372 0.961 . S
C1359 C1356 1.539 . S
C1359 H1373 0.958 . S
C1359 H1374 0.961 1_554 S
C1359 H1375 0.960 . S
H1360 C1344 0.931 . S
H1361 C1349 0.929 . S
H1362 C1350 0.960 . S
H1363 C1350 0.962 . S
H1364 C1350 0.960 . S
H1365 C1351 0.961 . S
H1366 C1351 0.961 . S
H1367 C1351 0.961 . S
H1368 C1352 0.931 . S
H1369 C1357 0.930 . S
H1370 C1358 0.956 . S
H1371 C1358 0.961 . S
H1372 C1358 0.961 . S
H1373 C1359 0.958 . S
H1374 C1359 0.961 1_556 S
H1375 C1359 0.960 . S
C1376 C1377 1.391 . S
C1376 C1378 1.394 . S
C1376 H1392 0.931 . S
C1377 C1376 1.391 . S
C1377 C1381 1.376 . S
C1378 C1376 1.394 . S
C1378 C1379 1.369 . S
C1378 C1382 1.531 . S
C1379 C1378 1.369 . S
C1379 C1380 1.410 . S
C1379 C1387 1.503 . S
C1380 C1379 1.410 . S
C1380 C1381 1.392 . S
C1380 C1383 1.511 . S
C1381 C1377 1.376 . S
C1381 C1380 1.392 . S
C1381 H1393 0.929 . S
C1382 C1378 1.531 . S
C1382 H1394 0.960 . S
C1382 H1395 0.962 . S
C1382 H1396 0.960 . S
C1383 C1380 1.511 . S
C1383 H1397 0.961 . S
C1383 H1398 0.961 . S
C1383 H1399 0.961 . S
C1384 C1385 1.370 . S
C1384 C1386 1.363 . S
C1384 H1400 0.931 . S
C1385 C1384 1.370 . S
C1385 C1389 1.408 . S
C1386 C1384 1.363 . S
C1386 C1387 1.370 . S
C1386 C1390 1.524 . S
C1387 C1379 1.503 . S
C1387 C1386 1.370 . S
C1387 C1388 1.403 . S
C1388 C1387 1.403 . S
C1388 C1389 1.404 . S
C1388 C1391 1.539 . S
C1389 C1385 1.408 . S
C1389 C1388 1.404 . S
C1389 H1401 0.930 . S
C1390 C1386 1.524 . S
C1390 H1402 0.956 . S
C1390 H1403 0.961 . S
C1390 H1404 0.961 . S
C1391 C1388 1.539 . S
C1391 H1405 0.958 . S
C1391 H1406 0.961 . S
C1391 H1407 0.960 . S
H1392 C1376 0.931 . S
H1393 C1381 0.929 . S
H1394 C1382 0.960 . S
H1395 C1382 0.962 . S
H1396 C1382 0.960 . S
H1397 C1383 0.961 . S
H1398 C1383 0.961 . S
H1399 C1383 0.961 . S
H1400 C1384 0.931 . S
H1401 C1389 0.930 . S
H1402 C1390 0.956 . S
H1403 C1390 0.961 . S
H1404 C1390 0.961 . S
H1405 C1391 0.958 . S
H1406 C1391 0.961 . S
H1407 C1391 0.960 . S
C1408 C1409 1.391 1_455 S
C1408 C1410 1.394 . S
C1408 H1424 0.931 . S
C1409 C1408 1.391 1_655 S
C1409 C1413 1.376 . S
C1410 C1408 1.394 . S
C1410 C1411 1.369 1_455 S
C1410 C1414 1.531 . S
C1411 C1410 1.369 1_655 S
C1411 C1412 1.410 . S
C1411 C1419 1.503 1_655 S
C1412 C1411 1.410 . S
C1412 C1413 1.392 . S
C1412 C1415 1.511 . S
C1413 C1409 1.376 . S
C1413 C1412 1.392 . S
C1413 H1425 0.929 . S
C1414 C1410 1.531 . S
C1414 H1426 0.960 . S
C1414 H1427 0.962 . S
C1414 H1428 0.960 . S
C1415 C1412 1.511 . S
C1415 H1429 0.961 . S
C1415 H1430 0.961 . S
C1415 H1431 0.961 . S
C1416 C1417 1.370 . S
C1416 C1418 1.363 . S
C1416 H1432 0.931 . S
C1417 C1416 1.370 . S
C1417 C1421 1.408 . S
C1418 C1416 1.363 . S
C1418 C1419 1.370 . S
C1418 C1422 1.517 1_455 S
C1419 C1411 1.503 1_455 S
C1419 C1418 1.370 . S
C1419 C1420 1.403 . S
C1420 C1419 1.403 . S
C1420 C1421 1.404 . S
C1420 C1423 1.539 . S
C1421 C1417 1.408 . S
C1421 C1420 1.404 . S
C1421 H1433 0.930 . S
C1422 C1418 1.517 1_655 S
C1422 H1434 0.935 1_655 S
C1422 H1435 0.989 . S
C1422 H1436 0.961 . S
C1423 C1420 1.539 . S
C1423 H1437 0.958 . S
C1423 H1438 0.961 . S
C1423 H1439 0.960 1_455 S
H1424 C1408 0.931 . S
H1425 C1413 0.929 . S
H1426 C1414 0.960 . S
H1427 C1414 0.962 . S
H1428 C1414 0.960 . S
H1429 C1415 0.961 . S
H1430 C1415 0.961 . S
H1431 C1415 0.961 . S
H1432 C1416 0.931 . S
H1433 C1421 0.930 . S
H1434 C1422 0.935 1_455 S
H1435 C1422 0.989 . S
H1436 C1422 0.961 . S
H1437 C1423 0.958 . S
H1438 C1423 0.961 . S
H1439 C1423 0.960 1_655 S
C1440 C1441 1.391 . S
C1440 C1442 1.394 . S
C1440 H1456 0.931 . S
C1441 C1440 1.391 . S
C1441 C1445 1.376 . S
C1442 C1440 1.394 . S
C1442 C1443 1.369 . S
C1442 C1446 1.531 . S
C1443 C1442 1.369 . S
C1443 C1444 1.410 . S
C1443 C1451 1.503 . S
C1444 C1443 1.410 . S
C1444 C1445 1.392 . S
C1444 C1447 1.511 . S
C1445 C1441 1.376 . S
C1445 C1444 1.392 . S
C1445 H1457 0.929 . S
C1446 C1442 1.531 . S
C1446 H1458 0.960 . S
C1446 H1459 0.962 . S
C1446 H1460 0.960 . S
C1447 C1444 1.511 . S
C1447 H1461 0.961 . S
C1447 H1462 0.961 . S
C1447 H1463 0.961 . S
C1448 C1449 1.370 . S
C1448 C1450 1.363 . S
C1448 H1464 0.931 . S
C1449 C1448 1.370 . S
C1449 C1453 1.408 . S
C1450 C1448 1.363 . S
C1450 C1451 1.370 . S
C1450 C1454 1.524 . S
C1451 C1443 1.503 . S
C1451 C1450 1.370 . S
C1451 C1452 1.403 . S
C1452 C1451 1.403 . S
C1452 C1453 1.404 . S
C1452 C1455 1.539 . S
C1453 C1449 1.408 . S
C1453 C1452 1.404 . S
C1453 H1465 0.930 . S
C1454 C1450 1.524 . S
C1454 H1466 0.956 . S
C1454 H1467 0.961 . S
C1454 H1468 0.961 . S
C1455 C1452 1.539 . S
C1455 H1469 0.958 . S
C1455 H1470 0.961 . S
C1455 H1471 0.960 . S
H1456 C1440 0.931 . S
H1457 C1445 0.929 . S
H1458 C1446 0.960 . S
H1459 C1446 0.962 . S
H1460 C1446 0.960 . S
H1461 C1447 0.961 . S
H1462 C1447 0.961 . S
H1463 C1447 0.961 . S
H1464 C1448 0.931 . S
H1465 C1453 0.930 . S
H1466 C1454 0.956 . S
H1467 C1454 0.961 . S
H1468 C1454 0.961 . S
H1469 C1455 0.958 . S
H1470 C1455 0.961 . S
H1471 C1455 0.960 . S
C1472 C1473 1.391 . S
C1472 C1474 1.394 . S
C1472 H1488 0.931 . S
C1473 C1472 1.391 . S
C1473 C1477 1.376 . S
C1474 C1472 1.394 . S
C1474 C1475 1.369 . S
C1474 C1478 1.531 . S
C1475 C1474 1.369 . S
C1475 C1476 1.410 . S
C1475 C1483 1.503 . S
C1476 C1475 1.410 . S
C1476 C1477 1.392 . S
C1476 C1479 1.511 . S
C1477 C1473 1.376 . S
C1477 C1476 1.392 . S
C1477 H1489 0.929 . S
C1478 C1474 1.531 . S
C1478 H1490 0.960 . S
C1478 H1491 0.962 . S
C1478 H1492 0.960 . S
C1479 C1476 1.511 . S
C1479 H1493 0.961 . S
C1479 H1494 0.961 . S
C1479 H1495 0.961 . S
C1480 C1481 1.370 . S
C1480 C1482 1.363 . S
C1480 H1496 0.931 . S
C1481 C1480 1.370 . S
C1481 C1485 1.408 . S
C1482 C1480 1.363 . S
C1482 C1483 1.370 . S
C1482 C1486 1.524 . S
C1483 C1475 1.503 . S
C1483 C1482 1.370 . S
C1483 C1484 1.403 . S
C1484 C1483 1.403 . S
C1484 C1485 1.404 . S
C1484 C1487 1.539 . S
C1485 C1481 1.408 . S
C1485 C1484 1.404 . S
C1485 H1497 0.930 . S
C1486 C1482 1.524 . S
C1486 H1498 0.956 . S
C1486 H1499 0.961 . S
C1486 H1500 0.961 . S
C1487 C1484 1.539 . S
C1487 H1501 0.958 . S
C1487 H1502 0.961 . S
C1487 H1503 0.960 . S
H1488 C1472 0.931 . S
H1489 C1477 0.929 . S
H1490 C1478 0.960 . S
H1491 C1478 0.962 . S
H1492 C1478 0.960 . S
H1493 C1479 0.961 . S
H1494 C1479 0.961 . S
H1495 C1479 0.961 . S
H1496 C1480 0.931 . S
H1497 C1485 0.930 . S
H1498 C1486 0.956 . S
H1499 C1486 0.961 . S
H1500 C1486 0.961 . S
H1501 C1487 0.958 . S
H1502 C1487 0.961 . S
H1503 C1487 0.960 . S
C1504 C1505 1.391 . S
C1504 C1506 1.394 . S
C1504 H1520 0.931 . S
C1505 C1504 1.391 . S
C1505 C1509 1.376 . S
C1506 C1504 1.394 . S
C1506 C1507 1.369 . S
C1506 C1510 1.531 . S
C1507 C1506 1.369 . S
C1507 C1508 1.410 . S
C1507 C1515 1.503 . S
C1508 C1507 1.410 . S
C1508 C1509 1.392 . S
C1508 C1511 1.511 . S
C1509 C1505 1.376 . S
C1509 C1508 1.392 . S
C1509 H1521 0.929 . S
C1510 C1506 1.531 . S
C1510 H1522 0.960 . S
C1510 H1523 0.962 . S
C1510 H1524 0.960 . S
C1511 C1508 1.511 . S
C1511 H1525 0.961 . S
C1511 H1526 0.961 . S
C1511 H1527 0.961 . S
C1512 C1513 1.370 . S
C1512 C1514 1.363 . S
C1512 H1528 0.931 . S
C1513 C1512 1.370 . S
C1513 C1517 1.408 . S
C1514 C1512 1.363 . S
C1514 C1515 1.370 . S
C1514 C1518 1.524 . S
C1515 C1507 1.503 . S
C1515 C1514 1.370 . S
C1515 C1516 1.403 . S
C1516 C1515 1.403 . S
C1516 C1517 1.404 . S
C1516 C1519 1.539 . S
C1517 C1513 1.408 . S
C1517 C1516 1.404 . S
C1517 H1529 0.930 . S
C1518 C1514 1.524 . S
C1518 H1530 0.956 . S
C1518 H1531 0.961 . S
C1518 H1532 0.961 . S
C1519 C1516 1.539 . S
C1519 H1533 0.958 . S
C1519 H1534 0.961 . S
C1519 H1535 0.960 . S
H1520 C1504 0.931 . S
H1521 C1509 0.929 . S
H1522 C1510 0.960 . S
H1523 C1510 0.962 . S
H1524 C1510 0.960 . S
H1525 C1511 0.961 . S
H1526 C1511 0.961 . S
H1527 C1511 0.961 . S
H1528 C1512 0.931 . S
H1529 C1517 0.930 . S
H1530 C1518 0.956 . S
H1531 C1518 0.961 . S
H1532 C1518 0.961 . S
H1533 C1519 0.958 . S
H1534 C1519 0.961 . S
H1535 C1519 0.960 . S
C1536 C1537 1.391 . S
C1536 C1538 1.394 . S
C1536 H1552 0.931 . S
C1537 C1536 1.391 . S
C1537 C1541 1.376 . S
C1538 C1536 1.394 . S
C1538 C1539 1.369 1_455 S
C1538 C1542 1.531 1_455 S
C1539 C1538 1.369 1_655 S
C1539 C1540 1.410 1_655 S
C1539 C1547 1.503 . S
C1540 C1539 1.410 1_455 S
C1540 C1541 1.392 . S
C1540 C1543 1.511 1_455 S
C1541 C1537 1.376 . S
C1541 C1540 1.392 . S
C1541 H1553 0.929 . S
C1542 C1538 1.531 1_655 S
C1542 H1554 0.960 . S
C1542 H1555 0.962 1_655 S
C1542 H1556 0.960 . S
C1543 C1540 1.511 1_655 S
C1543 H1557 0.961 1_655 S
C1543 H1558 0.962 . S
C1543 H1559 0.961 . S
C1544 C1545 1.370 1_455 S
C1544 C1546 1.363 1_556 S
C1544 H1560 0.931 . S
C1545 C1544 1.370 1_655 S
C1545 C1549 1.408 . S
C1546 C1544 1.363 1_554 S
C1546 C1547 1.370 1_455 S
C1546 C1550 1.524 . S
C1547 C1539 1.503 . S
C1547 C1546 1.370 1_655 S
C1547 C1548 1.403 . S
C1548 C1547 1.403 . S
C1548 C1549 1.404 1_554 S
C1548 C1551 1.539 . S
C1549 C1545 1.408 . S
C1549 C1548 1.404 1_556 S
C1549 H1561 0.930 . S
C1550 C1546 1.524 . S
C1550 H1562 0.956 . S
C1550 H1563 0.961 . S
C1550 H1564 0.961 1_554 S
C1551 C1548 1.539 . S
C1551 H1565 0.958 . S
C1551 H1566 0.961 . S
C1551 H1567 0.960 . S
H1552 C1536 0.931 . S
H1553 C1541 0.929 . S
H1554 C1542 0.960 . S
H1555 C1542 0.962 1_455 S
H1556 C1542 0.960 . S
H1557 C1543 0.961 1_455 S
H1558 C1543 0.962 . S
H1559 C1543 0.961 . S
H1560 C1544 0.931 . S
H1561 C1549 0.930 . S
H1562 C1550 0.956 . S
H1563 C1550 0.961 . S
H1564 C1550 0.961 1_556 S
H1565 C1551 0.958 . S
H1566 C1551 0.961 . S
H1567 C1551 0.960 . S
C1568 C1569 1.391 . S
C1568 C1570 1.394 . S
C1568 H1584 0.931 . S
C1569 C1568 1.391 . S
C1569 C1573 1.376 . S
C1570 C1568 1.394 . S
C1570 C1571 1.369 . S
C1570 C1574 1.531 . S
C1571 C1570 1.369 . S
C1571 C1572 1.410 . S
C1571 C1579 1.503 . S
C1572 C1571 1.410 . S
C1572 C1573 1.392 . S
C1572 C1575 1.511 . S
C1573 C1569 1.376 . S
C1573 C1572 1.392 . S
C1573 H1585 0.929 . S
C1574 C1570 1.531 . S
C1574 H1586 0.960 . S
C1574 H1587 0.962 . S
C1574 H1588 0.960 . S
C1575 C1572 1.511 . S
C1575 H1589 0.961 . S
C1575 H1590 0.961 . S
C1575 H1591 0.961 . S
C1576 C1577 1.370 . S
C1576 C1578 1.363 . S
C1576 H1592 0.931 . S
C1577 C1576 1.370 . S
C1577 C1581 1.408 . S
C1578 C1576 1.363 . S
C1578 C1579 1.370 . S
C1578 C1582 1.524 . S
C1579 C1571 1.503 . S
C1579 C1578 1.370 . S
C1579 C1580 1.403 . S
C1580 C1579 1.403 . S
C1580 C1581 1.404 . S
C1580 C1583 1.539 . S
C1581 C1577 1.408 . S
C1581 C1580 1.404 . S
C1581 H1593 0.930 . S
C1582 C1578 1.524 . S
C1582 H1594 0.956 . S
C1582 H1595 0.961 . S
C1582 H1596 0.961 . S
C1583 C1580 1.539 . S
C1583 H1597 0.958 . S
C1583 H1598 0.961 . S
C1583 H1599 0.960 . S
H1584 C1568 0.931 . S
H1585 C1573 0.929 . S
H1586 C1574 0.960 . S
H1587 C1574 0.962 . S
H1588 C1574 0.960 . S
H1589 C1575 0.961 . S
H1590 C1575 0.961 . S
H1591 C1575 0.961 . S
H1592 C1576 0.931 . S
H1593 C1581 0.930 . S
H1594 C1582 0.956 . S
H1595 C1582 0.961 . S
H1596 C1582 0.961 . S
H1597 C1583 0.958 . S
H1598 C1583 0.961 . S
H1599 C1583 0.960 . S
C1600 C1601 1.364 1_455 S
C1600 C1602 1.402 . S
C1600 H1616 0.950 . S
C1601 C1600 1.364 1_655 S
C1601 C1605 1.376 . S
C1602 C1600 1.402 . S
C1602 C1603 1.369 1_455 S
C1602 C1606 1.531 . S
C1603 C1602 1.369 1_655 S
C1603 C1604 1.410 . S
C1603 C1611 1.503 1_655 S
C1604 C1603 1.410 . S
C1604 C1605 1.392 . S
C1604 C1607 1.511 . S
C1605 C1601 1.376 . S
C1605 C1604 1.392 . S
C1605 H1617 0.929 . S
C1606 C1602 1.531 . S
C1606 H1618 0.960 . S
C1606 H1619 0.962 . S
C1606 H1620 0.960 . S
C1607 C1604 1.511 . S
C1607 H1621 0.961 . S
C1607 H1622 0.961 . S
C1607 H1623 0.961 . S
C1608 C1609 1.370 . S
C1608 C1610 1.363 . S
C1608 H1624 0.931 . S
C1609 C1608 1.370 . S
C1609 C1613 1.407 . S
C1610 C1608 1.363 . S
C1610 C1611 1.370 . S
C1610 C1614 1.524 . S
C1611 C1603 1.503 1_455 S
C1611 C1610 1.370 . S
C1611 C1612 1.403 1_455 S
C1612 C1611 1.403 1_655 S
C1612 C1613 1.405 1_655 S
C1612 C1615 1.539 . S
C1613 C1609 1.407 . S
C1613 C1612 1.405 1_455 S
C1613 H1625 0.931 1_455 S
C1614 C1610 1.524 . S
C1614 H1626 0.956 . S
C1614 H1627 0.961 . S
C1614 H1628 0.961 . S
C1615 C1612 1.539 . S
C1615 H1629 0.958 . S
C1615 H1630 0.961 . S
C1615 H1631 0.960 . S
H1616 C1600 0.950 . S
H1617 C1605 0.929 . S
H1618 C1606 0.960 . S
H1619 C1606 0.962 . S
H1620 C1606 0.960 . S
H1621 C1607 0.961 . S
H1622 C1607 0.961 . S
H1623 C1607 0.961 . S
H1624 C1608 0.931 . S
H1625 C1613 0.931 1_655 S
H1626 C1614 0.956 . S
H1627 C1614 0.961 . S
H1628 C1614 0.961 . S
H1629 C1615 0.958 . S
H1630 C1615 0.961 . S
H1631 C1615 0.960 . S
C1632 C1633 1.391 . S
C1632 C1634 1.394 . S
C1632 H1648 0.931 . S
C1633 C1632 1.391 . S
C1633 C1637 1.376 . S
C1634 C1632 1.394 . S
C1634 C1635 1.369 . S
C1634 C1638 1.531 . S
C1635 C1634 1.369 . S
C1635 C1636 1.410 . S
C1635 C1643 1.503 . S
C1636 C1635 1.410 . S
C1636 C1637 1.392 . S
C1636 C1639 1.511 . S
C1637 C1633 1.376 . S
C1637 C1636 1.392 . S
C1637 H1649 0.929 . S
C1638 C1634 1.531 . S
C1638 H1650 0.960 . S
C1638 H1651 0.962 . S
C1638 H1652 0.960 . S
C1639 C1636 1.511 . S
C1639 H1653 0.961 . S
C1639 H1654 0.961 . S
C1639 H1655 0.961 . S
C1640 C1641 1.370 . S
C1640 C1642 1.363 . S
C1640 H1656 0.931 . S
C1641 C1640 1.370 . S
C1641 C1645 1.408 . S
C1642 C1640 1.363 . S
C1642 C1643 1.370 . S
C1642 C1646 1.524 . S
C1643 C1635 1.503 . S
C1643 C1642 1.370 . S
C1643 C1644 1.403 . S
C1644 C1643 1.403 . S
C1644 C1645 1.404 . S
C1644 C1647 1.539 . S
C1645 C1641 1.408 . S
C1645 C1644 1.404 . S
C1645 H1657 0.930 . S
C1646 C1642 1.524 . S
C1646 H1658 0.956 . S
C1646 H1659 0.961 . S
C1646 H1660 0.961 . S
C1647 C1644 1.539 . S
C1647 H1661 0.958 . S
C1647 H1662 0.961 . S
C1647 H1663 0.960 . S
H1648 C1632 0.931 . S
H1649 C1637 0.929 . S
H1650 C1638 0.960 . S
H1651 C1638 0.962 . S
H1652 C1638 0.960 . S
H1653 C1639 0.961 . S
H1654 C1639 0.961 . S
H1655 C1639 0.961 . S
H1656 C1640 0.931 . S
H1657 C1645 0.930 . S
H1658 C1646 0.956 . S
H1659 C1646 0.961 . S
H1660 C1646 0.961 . S
H1661 C1647 0.958 . S
H1662 C1647 0.961 . S
H1663 C1647 0.960 . S
C1664 C1665 1.391 . S
C1664 C1666 1.394 1_554 S
C1664 H1680 0.931 . S
C1665 C1664 1.391 . S
C1665 C1669 1.376 . S
C1666 C1664 1.394 1_556 S
C1666 C1667 1.369 . S
C1666 C1670 1.531 . S
C1667 C1666 1.369 . S
C1667 C1668 1.410 . S
C1667 C1675 1.503 . S
C1668 C1667 1.410 . S
C1668 C1669 1.392 1_556 S
C1668 C1671 1.511 . S
C1669 C1665 1.376 . S
C1669 C1668 1.392 1_554 S
C1669 H1681 0.929 . S
C1670 C1666 1.531 . S
C1670 H1682 0.960 . S
C1670 H1683 0.962 . S
C1670 H1684 0.960 . S
C1671 C1668 1.511 . S
C1671 H1685 0.961 . S
C1671 H1686 0.961 . S
C1671 H1687 0.961 . S
C1672 C1673 1.370 . S
C1672 C1674 1.363 . S
C1672 H1688 0.931 . S
C1673 C1672 1.370 . S
C1673 C1677 1.408 . S
C1674 C1672 1.363 . S
C1674 C1675 1.370 . S
C1674 C1678 1.524 . S
C1675 C1667 1.503 . S
C1675 C1674 1.370 . S
C1675 C1676 1.403 . S
C1676 C1675 1.403 . S
C1676 C1677 1.404 . S
C1676 C1679 1.539 . S
C1677 C1673 1.408 . S
C1677 C1676 1.404 . S
C1677 H1689 0.930 . S
C1678 C1674 1.524 . S
C1678 H1690 0.956 . S
C1678 H1691 0.961 . S
C1678 H1692 0.961 . S
C1679 C1676 1.539 . S
C1679 H1693 0.958 . S
C1679 H1694 0.961 . S
C1679 H1695 0.960 . S
H1680 C1664 0.931 . S
H1681 C1669 0.929 . S
H1682 C1670 0.960 . S
H1683 C1670 0.962 . S
H1684 C1670 0.960 . S
H1685 C1671 0.961 . S
H1686 C1671 0.961 . S
H1687 C1671 0.961 . S
H1688 C1672 0.931 . S
H1689 C1677 0.930 . S
H1690 C1678 0.956 . S
H1691 C1678 0.961 . S
H1692 C1678 0.961 . S
H1693 C1679 0.958 . S
H1694 C1679 0.961 . S
H1695 C1679 0.960 . S
C1696 C1697 1.391 . S
C1696 C1698 1.394 . S
C1696 H1712 0.931 . S
C1697 C1696 1.391 . S
C1697 C1701 1.376 . S
C1698 C1696 1.394 . S
C1698 C1699 1.369 . S
C1698 C1702 1.531 . S
C1699 C1698 1.369 . S
C1699 C1700 1.410 . S
C1699 C1707 1.503 . S
C1700 C1699 1.410 . S
C1700 C1701 1.392 . S
C1700 C1703 1.511 . S
C1701 C1697 1.376 . S
C1701 C1700 1.392 . S
C1701 H1713 0.929 . S
C1702 C1698 1.531 . S
C1702 H1714 0.960 . S
C1702 H1715 0.962 . S
C1702 H1716 0.960 . S
C1703 C1700 1.511 . S
C1703 H1717 0.961 . S
C1703 H1718 0.961 . S
C1703 H1719 0.961 . S
C1704 C1705 1.370 . S
C1704 C1706 1.363 . S
C1704 H1720 0.931 . S
C1705 C1704 1.370 . S
C1705 C1709 1.408 . S
C1706 C1704 1.363 . S
C1706 C1707 1.370 . S
C1706 C1710 1.524 . S
C1707 C1699 1.503 . S
C1707 C1706 1.370 . S
C1707 C1708 1.403 . S
C1708 C1707 1.403 . S
C1708 C1709 1.404 . S
C1708 C1711 1.539 . S
C1709 C1705 1.408 . S
C1709 C1708 1.404 . S
C1709 H1721 0.930 . S
C1710 C1706 1.524 . S
C1710 H1722 0.956 . S
C1710 H1723 0.961 . S
C1710 H1724 0.961 . S
C1711 C1708 1.539 . S
C1711 H1725 0.958 . S
C1711 H1726 0.961 . S
C1711 H1727 0.960 . S
H1712 C1696 0.931 . S
H1713 C1701 0.929 . S
H1714 C1702 0.960 . S
H1715 C1702 0.962 . S
H1716 C1702 0.960 . S
H1717 C1703 0.961 . S
H1718 C1703 0.961 . S
H1719 C1703 0.961 . S
H1720 C1704 0.931 . S
H1721 C1709 0.930 . S
H1722 C1710 0.956 . S
H1723 C1710 0.961 . S
H1724 C1710 0.961 . S
H1725 C1711 0.958 . S
H1726 C1711 0.961 . S
H1727 C1711 0.960 . S
C1728 C1729 1.391 . S
C1728 C1730 1.394 . S
C1728 H1744 0.931 . S
C1729 C1728 1.391 . S
C1729 C1733 1.376 . S
C1730 C1728 1.394 . S
C1730 C1731 1.369 . S
C1730 C1734 1.531 . S
C1731 C1730 1.369 . S
C1731 C1732 1.410 . S
C1731 C1739 1.503 . S
C1732 C1731 1.410 . S
C1732 C1733 1.392 . S
C1732 C1735 1.511 . S
C1733 C1729 1.376 . S
C1733 C1732 1.392 . S
C1733 H1745 0.929 . S
C1734 C1730 1.531 . S
C1734 H1746 0.960 . S
C1734 H1747 0.962 . S
C1734 H1748 0.960 . S
C1735 C1732 1.511 . S
C1735 H1749 0.961 . S
C1735 H1750 0.961 . S
C1735 H1751 0.961 . S
C1736 C1737 1.370 . S
C1736 C1738 1.363 . S
C1736 H1752 0.931 . S
C1737 C1736 1.370 . S
C1737 C1741 1.408 . S
C1738 C1736 1.363 . S
C1738 C1739 1.370 . S
C1738 C1742 1.524 . S
C1739 C1731 1.503 . S
C1739 C1738 1.370 . S
C1739 C1740 1.403 . S
C1740 C1739 1.403 . S
C1740 C1741 1.404 . S
C1740 C1743 1.539 . S
C1741 C1737 1.408 . S
C1741 C1740 1.404 . S
C1741 H1753 0.930 . S
C1742 C1738 1.524 . S
C1742 H1754 0.956 . S
C1742 H1755 0.961 . S
C1742 H1756 0.961 . S
C1743 C1740 1.539 . S
C1743 H1757 0.958 . S
C1743 H1758 0.961 . S
C1743 H1759 0.960 . S
H1744 C1728 0.931 . S
H1745 C1733 0.929 . S
H1746 C1734 0.960 . S
H1747 C1734 0.962 . S
H1748 C1734 0.960 . S
H1749 C1735 0.961 . S
H1750 C1735 0.961 . S
H1751 C1735 0.961 . S
H1752 C1736 0.931 . S
H1753 C1741 0.930 . S
H1754 C1742 0.956 . S
H1755 C1742 0.961 . S
H1756 C1742 0.961 . S
H1757 C1743 0.958 . S
H1758 C1743 0.961 . S
H1759 C1743 0.960 . S
C1760 C1761 1.391 . S
C1760 C1762 1.394 . S
C1760 H1776 0.931 . S
C1761 C1760 1.391 . S
C1761 C1765 1.376 . S
C1762 C1760 1.394 . S
C1762 C1763 1.369 . S
C1762 C1766 1.531 . S
C1763 C1762 1.369 . S
C1763 C1764 1.410 . S
C1763 C1771 1.503 . S
C1764 C1763 1.410 . S
C1764 C1765 1.392 . S
C1764 C1767 1.511 . S
C1765 C1761 1.376 . S
C1765 C1764 1.392 . S
C1765 H1777 0.929 . S
C1766 C1762 1.531 . S
C1766 H1778 0.960 . S
C1766 H1779 0.962 . S
C1766 H1780 0.960 . S
C1767 C1764 1.511 . S
C1767 H1781 0.961 . S
C1767 H1782 0.961 . S
C1767 H1783 0.961 . S
C1768 C1769 1.370 . S
C1768 C1770 1.363 . S
C1768 H1784 0.931 . S
C1769 C1768 1.370 . S
C1769 C1773 1.408 . S
C1770 C1768 1.363 . S
C1770 C1771 1.370 . S
C1770 C1774 1.524 . S
C1771 C1763 1.503 . S
C1771 C1770 1.370 . S
C1771 C1772 1.403 . S
C1772 C1771 1.403 . S
C1772 C1773 1.404 . S
C1772 C1775 1.539 . S
C1773 C1769 1.408 . S
C1773 C1772 1.404 . S
C1773 H1785 0.930 . S
C1774 C1770 1.524 . S
C1774 H1786 0.956 . S
C1774 H1787 0.961 . S
C1774 H1788 0.961 . S
C1775 C1772 1.539 . S
C1775 H1789 0.958 . S
C1775 H1790 0.961 . S
C1775 H1791 0.960 . S
H1776 C1760 0.931 . S
H1777 C1765 0.929 . S
H1778 C1766 0.960 . S
H1779 C1766 0.962 . S
H1780 C1766 0.960 . S
H1781 C1767 0.961 . S
H1782 C1767 0.961 . S
H1783 C1767 0.961 . S
H1784 C1768 0.931 . S
H1785 C1773 0.930 . S
H1786 C1774 0.956 . S
H1787 C1774 0.961 . S
H1788 C1774 0.961 . S
H1789 C1775 0.958 . S
H1790 C1775 0.961 . S
H1791 C1775 0.960 . S
C1792 C1793 1.391 . S
C1792 C1794 1.394 . S
C1792 H1808 0.931 . S
C1793 C1792 1.391 . S
C1793 C1797 1.376 1_655 S
C1794 C1792 1.394 . S
C1794 C1795 1.369 . S
C1794 C1798 1.531 . S
C1795 C1794 1.369 . S
C1795 C1796 1.410 1_655 S
C1795 C1803 1.503 1_655 S
C1796 C1795 1.410 1_455 S
C1796 C1797 1.392 . S
C1796 C1799 1.511 . S
C1797 C1793 1.376 1_455 S
C1797 C1796 1.392 . S
C1797 H1809 0.929 . S
C1798 C1794 1.531 . S
C1798 H1810 0.960 . S
C1798 H1811 0.962 . S
C1798 H1812 0.960 . S
C1799 C1796 1.511 . S
C1799 H1813 0.961 . S
C1799 H1814 0.961 . S
C1799 H1815 0.961 . S
C1800 C1801 1.370 . S
C1800 C1802 1.363 1_554 S
C1800 H1816 0.931 . S
C1801 C1800 1.370 . S
C1801 C1805 1.408 . S
C1802 C1800 1.363 1_556 S
C1802 C1803 1.370 . S
C1802 C1806 1.524 1_455 S
C1803 C1795 1.503 1_455 S
C1803 C1802 1.370 . S
C1803 C1804 1.403 . S
C1804 C1803 1.403 . S
C1804 C1805 1.404 1_556 S
C1804 C1807 1.539 . S
C1805 C1801 1.408 . S
C1805 C1804 1.404 1_554 S
C1805 H1817 0.930 . S
C1806 C1802 1.524 1_655 S
C1806 H1818 0.956 . S
C1806 H1819 0.961 1_655 S
C1806 H1820 0.961 . S
C1807 C1804 1.539 . S
C1807 H1821 0.958 1_455 S
C1807 H1822 0.961 . S
C1807 H1823 0.960 . S
H1808 C1792 0.931 . S
H1809 C1797 0.929 . S
H1810 C1798 0.960 . S
H1811 C1798 0.962 . S
H1812 C1798 0.960 . S
H1813 C1799 0.961 . S
H1814 C1799 0.961 . S
H1815 C1799 0.961 . S
H1816 C1800 0.931 . S
H1817 C1805 0.930 . S
H1818 C1806 0.956 . S
H1819 C1806 0.961 1_455 S
H1820 C1806 0.961 . S
H1821 C1807 0.958 1_655 S
H1822 C1807 0.961 . S
H1823 C1807 0.960 . S
C1824 C1825 1.391 . S
C1824 C1826 1.394 . S
C1824 H1840 0.931 . S
C1825 C1824 1.391 . S
C1825 C1829 1.376 . S
C1826 C1824 1.394 . S
C1826 C1827 1.369 . S
C1826 C1830 1.531 . S
C1827 C1826 1.369 . S
C1827 C1828 1.410 . S
C1827 C1835 1.503 . S
C1828 C1827 1.410 . S
C1828 C1829 1.392 . S
C1828 C1831 1.511 . S
C1829 C1825 1.376 . S
C1829 C1828 1.392 . S
C1829 H1841 0.929 . S
C1830 C1826 1.531 . S
C1830 H1842 0.960 . S
C1830 H1843 0.962 . S
C1830 H1844 0.960 . S
C1831 C1828 1.511 . S
C1831 H1845 0.961 . S
C1831 H1846 0.961 . S
C1831 H1847 0.961 . S
C1832 C1833 1.370 . S
C1832 C1834 1.363 . S
C1832 H1848 0.931 . S
C1833 C1832 1.370 . S
C1833 C1837 1.408 . S
C1834 C1832 1.363 . S
C1834 C1835 1.370 . S
C1834 C1838 1.524 . S
C1835 C1827 1.503 . S
C1835 C1834 1.370 . S
C1835 C1836 1.403 . S
C1836 C1835 1.403 . S
C1836 C1837 1.404 . S
C1836 C1839 1.539 . S
C1837 C1833 1.408 . S
C1837 C1836 1.404 . S
C1837 H1849 0.930 . S
C1838 C1834 1.524 . S
C1838 H1850 0.956 . S
C1838 H1851 0.961 . S
C1838 H1852 0.961 . S
C1839 C1836 1.539 . S
C1839 H1853 0.958 . S
C1839 H1854 0.961 . S
C1839 H1855 0.960 . S
H1840 C1824 0.931 . S
H1841 C1829 0.929 . S
H1842 C1830 0.960 . S
H1843 C1830 0.962 . S
H1844 C1830 0.960 . S
H1845 C1831 0.961 . S
H1846 C1831 0.961 . S
H1847 C1831 0.961 . S
H1848 C1832 0.931 . S
H1849 C1837 0.930 . S
H1850 C1838 0.956 . S
H1851 C1838 0.961 . S
H1852 C1838 0.961 . S
H1853 C1839 0.958 . S
H1854 C1839 0.961 . S
H1855 C1839 0.960 . S
C1856 C1857 1.391 . S
C1856 C1858 1.394 . S
C1856 H1872 0.931 . S
C1857 C1856 1.391 . S
C1857 C1861 1.376 1_655 S
C1858 C1856 1.394 . S
C1858 C1859 1.369 . S
C1858 C1862 1.531 . S
C1859 C1858 1.369 . S
C1859 C1860 1.410 1_655 S
C1859 C1867 1.503 1_655 S
C1860 C1859 1.410 1_455 S
C1860 C1861 1.392 . S
C1860 C1863 1.511 . S
C1861 C1857 1.376 1_455 S
C1861 C1860 1.392 . S
C1861 H1873 0.929 . S
C1862 C1858 1.531 . S
C1862 H1874 0.960 . S
C1862 H1875 0.962 . S
C1862 H1876 0.960 . S
C1863 C1860 1.511 . S
C1863 H1877 0.961 . S
C1863 H1878 0.961 . S
C1863 H1879 0.961 . S
C1864 C1865 1.370 . S
C1864 C1866 1.363 . S
C1864 H1880 0.931 . S
C1865 C1864 1.370 . S
C1865 C1869 1.408 . S
C1866 C1864 1.363 . S
C1866 C1867 1.370 . S
C1866 C1870 1.524 1_455 S
C1867 C1859 1.503 1_455 S
C1867 C1866 1.370 . S
C1867 C1868 1.403 . S
C1868 C1867 1.403 . S
C1868 C1869 1.404 . S
C1868 C1871 1.539 . S
C1869 C1865 1.408 . S
C1869 C1868 1.404 . S
C1869 H1881 0.930 . S
C1870 C1866 1.524 1_655 S
C1870 H1882 0.956 . S
C1870 H1883 0.961 1_655 S
C1870 H1884 0.961 . S
C1871 C1868 1.539 . S
C1871 H1885 0.958 1_455 S
C1871 H1886 0.961 . S
C1871 H1887 0.960 . S
H1872 C1856 0.931 . S
H1873 C1861 0.929 . S
H1874 C1862 0.960 . S
H1875 C1862 0.962 . S
H1876 C1862 0.960 . S
H1877 C1863 0.961 . S
H1878 C1863 0.961 . S
H1879 C1863 0.961 . S
H1880 C1864 0.931 . S
H1881 C1869 0.930 . S
H1882 C1870 0.956 . S
H1883 C1870 0.961 1_455 S
H1884 C1870 0.961 . S
H1885 C1871 0.958 1_655 S
H1886 C1871 0.961 . S
H1887 C1871 0.960 . S
C1888 C1889 1.391 . S
C1888 C1890 1.394 . S
C1888 H1904 0.931 . S
C1889 C1888 1.391 . S
C1889 C1893 1.376 . S
C1890 C1888 1.394 . S
C1890 C1891 1.369 . S
C1890 C1894 1.531 . S
C1891 C1890 1.369 . S
C1891 C1892 1.410 . S
C1891 C1899 1.503 . S
C1892 C1891 1.410 . S
C1892 C1893 1.392 . S
C1892 C1895 1.511 . S
C1893 C1889 1.376 . S
C1893 C1892 1.392 . S
C1893 H1905 0.929 . S
C1894 C1890 1.531 . S
C1894 H1906 0.960 . S
C1894 H1907 0.962 . S
C1894 H1908 0.960 . S
C1895 C1892 1.511 . S
C1895 H1909 0.961 . S
C1895 H1910 0.961 . S
C1895 H1911 0.961 . S
C1896 C1897 1.370 . S
C1896 C1898 1.363 . S
C1896 H1912 0.931 . S
C1897 C1896 1.370 . S
C1897 C1901 1.408 . S
C1898 C1896 1.363 . S
C1898 C1899 1.370 . S
C1898 C1902 1.524 . S
C1899 C1891 1.503 . S
C1899 C1898 1.370 . S
C1899 C1900 1.403 . S
C1900 C1899 1.403 . S
C1900 C1901 1.404 . S
C1900 C1903 1.539 . S
C1901 C1897 1.408 . S
C1901 C1900 1.404 . S
C1901 H1913 0.930 . S
C1902 C1898 1.524 . S
C1902 H1914 0.956 . S
C1902 H1915 0.961 . S
C1902 H1916 0.961 . S
C1903 C1900 1.539 . S
C1903 H1917 0.958 . S
C1903 H1918 0.961 . S
C1903 H1919 0.960 . S
H1904 C1888 0.931 . S
H1905 C1893 0.929 . S
H1906 C1894 0.960 . S
H1907 C1894 0.962 . S
H1908 C1894 0.960 . S
H1909 C1895 0.961 . S
H1910 C1895 0.961 . S
H1911 C1895 0.961 . S
H1912 C1896 0.931 . S
H1913 C1901 0.930 . S
H1914 C1902 0.956 . S
H1915 C1902 0.961 . S
H1916 C1902 0.961 . S
H1917 C1903 0.958 . S
H1918 C1903 0.961 . S
H1919 C1903 0.960 . S
C1920 C1921 1.391 . S
C1920 C1922 1.394 . S
C1920 H1936 0.931 . S
C1921 C1920 1.391 . S
C1921 C1925 1.376 . S
C1922 C1920 1.394 . S
C1922 C1923 1.369 . S
C1922 C1926 1.531 . S
C1923 C1922 1.369 . S
C1923 C1924 1.410 . S
C1923 C1931 1.503 . S
C1924 C1923 1.410 . S
C1924 C1925 1.392 . S
C1924 C1927 1.511 . S
C1925 C1921 1.376 . S
C1925 C1924 1.392 . S
C1925 H1937 0.929 . S
C1926 C1922 1.531 . S
C1926 H1938 0.960 . S
C1926 H1939 0.962 . S
C1926 H1940 0.960 . S
C1927 C1924 1.511 . S
C1927 H1941 0.961 . S
C1927 H1942 0.961 . S
C1927 H1943 0.961 . S
C1928 C1929 1.370 . S
C1928 C1930 1.363 1_556 S
C1928 H1944 0.931 . S
C1929 C1928 1.370 . S
C1929 C1933 1.408 . S
C1930 C1928 1.363 1_554 S
C1930 C1931 1.370 . S
C1930 C1934 1.524 . S
C1931 C1923 1.503 . S
C1931 C1930 1.370 . S
C1931 C1932 1.403 . S
C1932 C1931 1.403 . S
C1932 C1933 1.404 1_554 S
C1932 C1935 1.539 . S
C1933 C1929 1.408 . S
C1933 C1932 1.404 1_556 S
C1933 H1945 0.930 . S
C1934 C1930 1.524 . S
C1934 H1946 0.956 . S
C1934 H1947 0.961 . S
C1934 H1948 0.961 . S
C1935 C1932 1.539 . S
C1935 H1949 0.958 . S
C1935 H1950 0.961 1_554 S
C1935 H1951 0.960 . S
H1936 C1920 0.931 . S
H1937 C1925 0.929 . S
H1938 C1926 0.960 . S
H1939 C1926 0.962 . S
H1940 C1926 0.960 . S
H1941 C1927 0.961 . S
H1942 C1927 0.961 . S
H1943 C1927 0.961 . S
H1944 C1928 0.931 . S
H1945 C1933 0.930 . S
H1946 C1934 0.956 . S
H1947 C1934 0.961 . S
H1948 C1934 0.961 . S
H1949 C1935 0.958 . S
H1950 C1935 0.961 1_556 S
H1951 C1935 0.960 . S
C1952 C1953 1.391 . S
C1952 C1954 1.394 . S
C1952 H1968 0.931 . S
C1953 C1952 1.391 . S
C1953 C1957 1.376 . S
C1954 C1952 1.394 . S
C1954 C1955 1.369 . S
C1954 C1958 1.531 . S
C1955 C1954 1.369 . S
C1955 C1956 1.410 . S
C1955 C1963 1.503 . S
C1956 C1955 1.410 . S
C1956 C1957 1.392 . S
C1956 C1959 1.511 . S
C1957 C1953 1.376 . S
C1957 C1956 1.392 . S
C1957 H1969 0.929 . S
C1958 C1954 1.531 . S
C1958 H1970 0.960 . S
C1958 H1971 0.962 . S
C1958 H1972 0.960 . S
C1959 C1956 1.511 . S
C1959 H1973 0.961 . S
C1959 H1974 0.961 . S
C1959 H1975 0.961 . S
C1960 C1961 1.370 . S
C1960 C1962 1.363 . S
C1960 H1976 0.931 . S
C1961 C1960 1.370 . S
C1961 C1965 1.408 . S
C1962 C1960 1.363 . S
C1962 C1963 1.370 . S
C1962 C1966 1.524 . S
C1963 C1955 1.503 . S
C1963 C1962 1.370 . S
C1963 C1964 1.403 . S
C1964 C1963 1.403 . S
C1964 C1965 1.404 . S
C1964 C1967 1.539 . S
C1965 C1961 1.408 . S
C1965 C1964 1.404 . S
C1965 H1977 0.930 . S
C1966 C1962 1.524 . S
C1966 H1978 0.956 . S
C1966 H1979 0.961 . S
C1966 H1980 0.961 . S
C1967 C1964 1.539 . S
C1967 H1981 0.958 . S
C1967 H1982 0.961 . S
C1967 H1983 0.960 . S
H1968 C1952 0.931 . S
H1969 C1957 0.929 . S
H1970 C1958 0.960 . S
H1971 C1958 0.962 . S
H1972 C1958 0.960 . S
H1973 C1959 0.961 . S
H1974 C1959 0.961 . S
H1975 C1959 0.961 . S
H1976 C1960 0.931 . S
H1977 C1965 0.930 . S
H1978 C1966 0.956 . S
H1979 C1966 0.961 . S
H1980 C1966 0.961 . S
H1981 C1967 0.958 . S
H1982 C1967 0.961 . S
H1983 C1967 0.960 . S
C1984 C1985 1.391 . S
C1984 C1986 1.394 . S
C1984 H2000 0.931 . S
C1985 C1984 1.391 . S
C1985 C1989 1.376 . S
C1986 C1984 1.394 . S
C1986 C1987 1.369 . S
C1986 C1990 1.531 . S
C1987 C1986 1.369 . S
C1987 C1988 1.410 . S
C1987 C1995 1.503 . S
C1988 C1987 1.410 . S
C1988 C1989 1.392 . S
C1988 C1991 1.511 . S
C1989 C1985 1.376 . S
C1989 C1988 1.392 . S
C1989 H2001 0.929 . S
C1990 C1986 1.531 . S
C1990 H2002 0.960 . S
C1990 H2003 0.962 . S
C1990 H2004 0.960 . S
C1991 C1988 1.511 . S
C1991 H2005 0.961 . S
C1991 H2006 0.961 . S
C1991 H2007 0.961 . S
C1992 C1993 1.370 . S
C1992 C1994 1.363 . S
C1992 H2008 0.931 . S
C1993 C1992 1.370 . S
C1993 C1997 1.408 . S
C1994 C1992 1.363 . S
C1994 C1995 1.370 . S
C1994 C1998 1.524 . S
C1995 C1987 1.503 . S
C1995 C1994 1.370 . S
C1995 C1996 1.403 . S
C1996 C1995 1.403 . S
C1996 C1997 1.404 . S
C1996 C1999 1.539 . S
C1997 C1993 1.408 . S
C1997 C1996 1.404 . S
C1997 H2009 0.930 . S
C1998 C1994 1.524 . S
C1998 H2010 0.956 . S
C1998 H2011 0.961 . S
C1998 H2012 0.961 . S
C1999 C1996 1.539 . S
C1999 H2013 0.958 . S
C1999 H2014 0.961 . S
C1999 H2015 0.960 . S
H2000 C1984 0.931 . S
H2001 C1989 0.929 . S
H2002 C1990 0.960 . S
H2003 C1990 0.962 . S
H2004 C1990 0.960 . S
H2005 C1991 0.961 . S
H2006 C1991 0.961 . S
H2007 C1991 0.961 . S
H2008 C1992 0.931 . S
H2009 C1997 0.930 . S
H2010 C1998 0.956 . S
H2011 C1998 0.961 . S
H2012 C1998 0.961 . S
H2013 C1999 0.958 . S
H2014 C1999 0.961 . S
H2015 C1999 0.960 . S
C2016 C2017 1.391 . S
C2016 C2018 1.394 . S
C2016 H2032 0.931 . S
C2017 C2016 1.391 . S
C2017 C2021 1.376 . S
C2018 C2016 1.394 . S
C2018 C2019 1.369 . S
C2018 C2022 1.531 . S
C2019 C2018 1.369 . S
C2019 C2020 1.410 . S
C2019 C2027 1.503 . S
C2020 C2019 1.410 . S
C2020 C2021 1.392 . S
C2020 C2023 1.511 . S
C2021 C2017 1.376 . S
C2021 C2020 1.392 . S
C2021 H2033 0.929 . S
C2022 C2018 1.531 . S
C2022 H2034 0.960 . S
C2022 H2035 0.962 . S
C2022 H2036 0.960 . S
C2023 C2020 1.511 . S
C2023 H2037 0.961 . S
C2023 H2038 0.961 . S
C2023 H2039 0.961 . S
C2024 C2025 1.370 . S
C2024 C2026 1.363 . S
C2024 H2040 0.931 . S
C2025 C2024 1.370 . S
C2025 C2029 1.408 . S
C2026 C2024 1.363 . S
C2026 C2027 1.370 . S
C2026 C2030 1.524 . S
C2027 C2019 1.503 . S
C2027 C2026 1.370 . S
C2027 C2028 1.403 . S
C2028 C2027 1.403 . S
C2028 C2029 1.404 . S
C2028 C2031 1.539 . S
C2029 C2025 1.408 . S
C2029 C2028 1.404 . S
C2029 H2041 0.930 . S
C2030 C2026 1.524 . S
C2030 H2042 0.956 . S
C2030 H2043 0.961 . S
C2030 H2044 0.961 . S
C2031 C2028 1.539 . S
C2031 H2045 0.958 . S
C2031 H2046 0.961 . S
C2031 H2047 0.960 . S
H2032 C2016 0.931 . S
H2033 C2021 0.929 . S
H2034 C2022 0.960 . S
H2035 C2022 0.962 . S
H2036 C2022 0.960 . S
H2037 C2023 0.961 . S
H2038 C2023 0.961 . S
H2039 C2023 0.961 . S
H2040 C2024 0.931 . S
H2041 C2029 0.930 . S
H2042 C2030 0.956 . S
H2043 C2030 0.961 . S
H2044 C2030 0.961 . S
H2045 C2031 0.958 . S
H2046 C2031 0.961 . S
H2047 C2031 0.960 . S
C2048 C2049 1.391 . S
C2048 C2050 1.394 . S
C2048 H2064 0.931 . S
C2049 C2048 1.391 . S
C2049 C2053 1.376 . S
C2050 C2048 1.394 . S
C2050 C2051 1.369 . S
C2050 C2054 1.531 . S
C2051 C2050 1.369 . S
C2051 C2052 1.410 . S
C2051 C2059 1.503 . S
C2052 C2051 1.410 . S
C2052 C2053 1.392 . S
C2052 C2055 1.511 . S
C2053 C2049 1.376 . S
C2053 C2052 1.392 . S
C2053 H2065 0.929 . S
C2054 C2050 1.531 . S
C2054 H2066 0.960 . S
C2054 H2067 0.962 . S
C2054 H2068 0.960 . S
C2055 C2052 1.511 . S
C2055 H2069 0.961 . S
C2055 H2070 0.961 . S
C2055 H2071 0.961 . S
C2056 C2057 1.370 . S
C2056 C2058 1.363 . S
C2056 H2072 0.931 . S
C2057 C2056 1.370 . S
C2057 C2061 1.408 . S
C2058 C2056 1.363 . S
C2058 C2059 1.370 . S
C2058 C2062 1.524 . S
C2059 C2051 1.503 . S
C2059 C2058 1.370 . S
C2059 C2060 1.403 . S
C2060 C2059 1.403 . S
C2060 C2061 1.404 . S
C2060 C2063 1.539 . S
C2061 C2057 1.408 . S
C2061 C2060 1.404 . S
C2061 H2073 0.930 . S
C2062 C2058 1.524 . S
C2062 H2074 0.956 . S
C2062 H2075 0.961 . S
C2062 H2076 0.961 . S
C2063 C2060 1.539 . S
C2063 H2077 0.958 . S
C2063 H2078 0.961 . S
C2063 H2079 0.960 . S
H2064 C2048 0.931 . S
H2065 C2053 0.929 . S
H2066 C2054 0.960 . S
H2067 C2054 0.962 . S
H2068 C2054 0.960 . S
H2069 C2055 0.961 . S
H2070 C2055 0.961 . S
H2071 C2055 0.961 . S
H2072 C2056 0.931 . S
H2073 C2061 0.930 . S
H2074 C2062 0.956 . S
H2075 C2062 0.961 . S
H2076 C2062 0.961 . S
H2077 C2063 0.958 . S
H2078 C2063 0.961 . S
H2079 C2063 0.960 . S
C2080 C2081 1.391 . S
C2080 C2082 1.394 . S
C2080 H2096 0.931 . S
C2081 C2080 1.391 . S
C2081 C2085 1.376 . S
C2082 C2080 1.394 . S
C2082 C2083 1.369 . S
C2082 C2086 1.531 . S
C2083 C2082 1.369 . S
C2083 C2084 1.410 . S
C2083 C2091 1.503 . S
C2084 C2083 1.410 . S
C2084 C2085 1.392 . S
C2084 C2087 1.511 . S
C2085 C2081 1.376 . S
C2085 C2084 1.392 . S
C2085 H2097 0.929 . S
C2086 C2082 1.531 . S
C2086 H2098 0.960 . S
C2086 H2099 0.962 . S
C2086 H2100 0.960 . S
C2087 C2084 1.511 . S
C2087 H2101 0.961 . S
C2087 H2102 0.961 . S
C2087 H2103 0.961 . S
C2088 C2089 1.370 . S
C2088 C2090 1.363 . S
C2088 H2104 0.931 . S
C2089 C2088 1.370 . S
C2089 C2093 1.408 . S
C2090 C2088 1.363 . S
C2090 C2091 1.370 . S
C2090 C2094 1.524 . S
C2091 C2083 1.503 . S
C2091 C2090 1.370 . S
C2091 C2092 1.403 . S
C2092 C2091 1.403 . S
C2092 C2093 1.404 . S
C2092 C2095 1.539 . S
C2093 C2089 1.408 . S
C2093 C2092 1.404 . S
C2093 H2105 0.930 . S
C2094 C2090 1.524 . S
C2094 H2106 0.956 . S
C2094 H2107 0.961 . S
C2094 H2108 0.961 . S
C2095 C2092 1.539 . S
C2095 H2109 0.958 . S
C2095 H2110 0.961 . S
C2095 H2111 0.960 . S
H2096 C2080 0.931 . S
H2097 C2085 0.929 . S
H2098 C2086 0.960 . S
H2099 C2086 0.962 . S
H2100 C2086 0.960 . S
H2101 C2087 0.961 . S
H2102 C2087 0.961 . S
H2103 C2087 0.961 . S
H2104 C2088 0.931 . S
H2105 C2093 0.930 . S
H2106 C2094 0.956 . S
H2107 C2094 0.961 . S
H2108 C2094 0.961 . S
H2109 C2095 0.958 . S
H2110 C2095 0.961 . S
H2111 C2095 0.960 . S
C2112 C2113 1.391 . S
C2112 C2114 1.394 . S
C2112 H2128 0.931 . S
C2113 C2112 1.391 . S
C2113 C2117 1.376 . S
C2114 C2112 1.394 . S
C2114 C2115 1.369 . S
C2114 C2118 1.531 . S
C2115 C2114 1.369 . S
C2115 C2116 1.410 . S
C2115 C2123 1.503 . S
C2116 C2115 1.410 . S
C2116 C2117 1.392 . S
C2116 C2119 1.511 . S
C2117 C2113 1.376 . S
C2117 C2116 1.392 . S
C2117 H2129 0.929 . S
C2118 C2114 1.531 . S
C2118 H2130 0.960 . S
C2118 H2131 0.962 . S
C2118 H2132 0.960 . S
C2119 C2116 1.511 . S
C2119 H2133 0.961 . S
C2119 H2134 0.961 . S
C2119 H2135 0.961 . S
C2120 C2121 1.370 . S
C2120 C2122 1.363 . S
C2120 H2136 0.931 . S
C2121 C2120 1.370 . S
C2121 C2125 1.408 . S
C2122 C2120 1.363 . S
C2122 C2123 1.370 . S
C2122 C2126 1.524 . S
C2123 C2115 1.503 . S
C2123 C2122 1.370 . S
C2123 C2124 1.403 . S
C2124 C2123 1.403 . S
C2124 C2125 1.404 . S
C2124 C2127 1.539 . S
C2125 C2121 1.408 . S
C2125 C2124 1.404 . S
C2125 H2137 0.930 . S
C2126 C2122 1.524 . S
C2126 H2138 0.956 . S
C2126 H2139 0.961 . S
C2126 H2140 0.961 . S
C2127 C2124 1.539 . S
C2127 H2141 0.958 . S
C2127 H2142 0.961 . S
C2127 H2143 0.960 . S
H2128 C2112 0.931 . S
H2129 C2117 0.929 . S
H2130 C2118 0.960 . S
H2131 C2118 0.962 . S
H2132 C2118 0.960 . S
H2133 C2119 0.961 . S
H2134 C2119 0.961 . S
H2135 C2119 0.961 . S
H2136 C2120 0.931 . S
H2137 C2125 0.930 . S
H2138 C2126 0.956 . S
H2139 C2126 0.961 . S
H2140 C2126 0.961 . S
H2141 C2127 0.958 . S
H2142 C2127 0.961 . S
H2143 C2127 0.960 . S
C2144 C2145 1.391 . S
C2144 C2146 1.394 . S
C2144 H2160 0.931 . S
C2145 C2144 1.391 . S
C2145 C2149 1.376 . S
C2146 C2144 1.394 . S
C2146 C2147 1.369 . S
C2146 C2150 1.531 . S
C2147 C2146 1.369 . S
C2147 C2148 1.410 . S
C2147 C2155 1.503 . S
C2148 C2147 1.410 . S
C2148 C2149 1.392 . S
C2148 C2151 1.511 . S
C2149 C2145 1.376 . S
C2149 C2148 1.392 . S
C2149 H2161 0.929 . S
C2150 C2146 1.531 . S
C2150 H2162 0.960 . S
C2150 H2163 0.962 . S
C2150 H2164 0.960 . S
C2151 C2148 1.511 . S
C2151 H2165 0.961 . S
C2151 H2166 0.961 . S
C2151 H2167 0.961 . S
C2152 C2153 1.370 . S
C2152 C2154 1.363 . S
C2152 H2168 0.931 . S
C2153 C2152 1.370 . S
C2153 C2157 1.408 . S
C2154 C2152 1.363 . S
C2154 C2155 1.370 . S
C2154 C2158 1.524 . S
C2155 C2147 1.503 . S
C2155 C2154 1.370 . S
C2155 C2156 1.403 . S
C2156 C2155 1.403 . S
C2156 C2157 1.404 . S
C2156 C2159 1.539 . S
C2157 C2153 1.408 . S
C2157 C2156 1.404 . S
C2157 H2169 0.930 . S
C2158 C2154 1.524 . S
C2158 H2170 0.956 . S
C2158 H2171 0.961 . S
C2158 H2172 0.961 . S
C2159 C2156 1.539 . S
C2159 H2173 0.958 . S
C2159 H2174 0.961 . S
C2159 H2175 0.960 . S
H2160 C2144 0.931 . S
H2161 C2149 0.929 . S
H2162 C2150 0.960 . S
H2163 C2150 0.962 . S
H2164 C2150 0.960 . S
H2165 C2151 0.961 . S
H2166 C2151 0.961 . S
H2167 C2151 0.961 . S
H2168 C2152 0.931 . S
H2169 C2157 0.930 . S
H2170 C2158 0.956 . S
H2171 C2158 0.961 . S
H2172 C2158 0.961 . S
H2173 C2159 0.958 . S
H2174 C2159 0.961 . S
H2175 C2159 0.960 . S
C2176 C2177 1.391 . S
C2176 C2178 1.394 . S
C2176 H2192 0.931 . S
C2177 C2176 1.391 . S
C2177 C2181 1.376 . S
C2178 C2176 1.394 . S
C2178 C2179 1.369 . S
C2178 C2182 1.531 . S
C2179 C2178 1.369 . S
C2179 C2180 1.410 . S
C2179 C2187 1.503 . S
C2180 C2179 1.410 . S
C2180 C2181 1.392 . S
C2180 C2183 1.511 . S
C2181 C2177 1.376 . S
C2181 C2180 1.392 . S
C2181 H2193 0.929 . S
C2182 C2178 1.531 . S
C2182 H2194 0.960 . S
C2182 H2195 0.962 . S
C2182 H2196 0.960 . S
C2183 C2180 1.511 . S
C2183 H2197 0.961 . S
C2183 H2198 0.961 . S
C2183 H2199 0.961 . S
C2184 C2185 1.370 . S
C2184 C2186 1.363 . S
C2184 H2200 0.931 . S
C2185 C2184 1.370 . S
C2185 C2189 1.408 . S
C2186 C2184 1.363 . S
C2186 C2187 1.370 . S
C2186 C2190 1.524 . S
C2187 C2179 1.503 . S
C2187 C2186 1.370 . S
C2187 C2188 1.403 . S
C2188 C2187 1.403 . S
C2188 C2189 1.404 . S
C2188 C2191 1.539 . S
C2189 C2185 1.408 . S
C2189 C2188 1.404 . S
C2189 H2201 0.930 . S
C2190 C2186 1.524 . S
C2190 H2202 0.956 . S
C2190 H2203 0.961 . S
C2190 H2204 0.961 . S
C2191 C2188 1.539 . S
C2191 H2205 0.958 . S
C2191 H2206 0.961 . S
C2191 H2207 0.960 . S
H2192 C2176 0.931 . S
H2193 C2181 0.929 . S
H2194 C2182 0.960 . S
H2195 C2182 0.962 . S
H2196 C2182 0.960 . S
H2197 C2183 0.961 . S
H2198 C2183 0.961 . S
H2199 C2183 0.961 . S
H2200 C2184 0.931 . S
H2201 C2189 0.930 . S
H2202 C2190 0.956 . S
H2203 C2190 0.961 . S
H2204 C2190 0.961 . S
H2205 C2191 0.958 . S
H2206 C2191 0.961 . S
H2207 C2191 0.960 . S
C2208 C2209 1.391 . S
C2208 C2210 1.394 . S
C2208 H2224 0.931 . S
C2209 C2208 1.391 . S
C2209 C2213 1.376 . S
C2210 C2208 1.394 . S
C2210 C2211 1.369 . S
C2210 C2214 1.531 . S
C2211 C2210 1.369 . S
C2211 C2212 1.410 . S
C2211 C2219 1.503 . S
C2212 C2211 1.410 . S
C2212 C2213 1.392 . S
C2212 C2215 1.511 . S
C2213 C2209 1.376 . S
C2213 C2212 1.392 . S
C2213 H2225 0.929 . S
C2214 C2210 1.531 . S
C2214 H2226 0.960 . S
C2214 H2227 0.962 . S
C2214 H2228 0.960 . S
C2215 C2212 1.511 . S
C2215 H2229 0.961 . S
C2215 H2230 0.961 . S
C2215 H2231 0.961 . S
C2216 C2217 1.370 . S
C2216 C2218 1.363 . S
C2216 H2232 0.931 . S
C2217 C2216 1.370 . S
C2217 C2221 1.408 . S
C2218 C2216 1.363 . S
C2218 C2219 1.370 . S
C2218 C2222 1.524 . S
C2219 C2211 1.503 . S
C2219 C2218 1.370 . S
C2219 C2220 1.403 . S
C2220 C2219 1.403 . S
C2220 C2221 1.404 . S
C2220 C2223 1.539 . S
C2221 C2217 1.408 . S
C2221 C2220 1.404 . S
C2221 H2233 0.930 . S
C2222 C2218 1.524 . S
C2222 H2234 0.956 . S
C2222 H2235 0.961 . S
C2222 H2236 0.961 . S
C2223 C2220 1.539 . S
C2223 H2237 0.958 . S
C2223 H2238 0.961 . S
C2223 H2239 0.960 . S
H2224 C2208 0.931 . S
H2225 C2213 0.929 . S
H2226 C2214 0.960 . S
H2227 C2214 0.962 . S
H2228 C2214 0.960 . S
H2229 C2215 0.961 . S
H2230 C2215 0.961 . S
H2231 C2215 0.961 . S
H2232 C2216 0.931 . S
H2233 C2221 0.930 . S
H2234 C2222 0.956 . S
H2235 C2222 0.961 . S
H2236 C2222 0.961 . S
H2237 C2223 0.958 . S
H2238 C2223 0.961 . S
H2239 C2223 0.960 . S
C2240 C2241 1.391 . S
C2240 C2242 1.394 . S
C2240 H2256 0.931 . S
C2241 C2240 1.391 . S
C2241 C2245 1.376 . S
C2242 C2240 1.394 . S
C2242 C2243 1.369 . S
C2242 C2246 1.531 . S
C2243 C2242 1.369 . S
C2243 C2244 1.410 . S
C2243 C2251 1.503 . S
C2244 C2243 1.410 . S
C2244 C2245 1.392 . S
C2244 C2247 1.511 . S
C2245 C2241 1.376 . S
C2245 C2244 1.392 . S
C2245 H2257 0.929 . S
C2246 C2242 1.531 . S
C2246 H2258 0.960 . S
C2246 H2259 0.962 . S
C2246 H2260 0.960 . S
C2247 C2244 1.511 . S
C2247 H2261 0.961 . S
C2247 H2262 0.961 . S
C2247 H2263 0.961 . S
C2248 C2249 1.370 . S
C2248 C2250 1.363 . S
C2248 H2264 0.931 . S
C2249 C2248 1.370 . S
C2249 C2253 1.408 . S
C2250 C2248 1.363 . S
C2250 C2251 1.370 . S
C2250 C2254 1.524 . S
C2251 C2243 1.503 . S
C2251 C2250 1.370 . S
C2251 C2252 1.403 . S
C2252 C2251 1.403 . S
C2252 C2253 1.404 . S
C2252 C2255 1.539 . S
C2253 C2249 1.408 . S
C2253 C2252 1.404 . S
C2253 H2265 0.930 . S
C2254 C2250 1.524 . S
C2254 H2266 0.956 . S
C2254 H2267 0.961 . S
C2254 H2268 0.961 . S
C2255 C2252 1.539 . S
C2255 H2269 0.958 . S
C2255 H2270 0.961 . S
C2255 H2271 0.960 . S
H2256 C2240 0.931 . S
H2257 C2245 0.929 . S
H2258 C2246 0.960 . S
H2259 C2246 0.962 . S
H2260 C2246 0.960 . S
H2261 C2247 0.961 . S
H2262 C2247 0.961 . S
H2263 C2247 0.961 . S
H2264 C2248 0.931 . S
H2265 C2253 0.930 . S
H2266 C2254 0.956 . S
H2267 C2254 0.961 . S
H2268 C2254 0.961 . S
H2269 C2255 0.958 . S
H2270 C2255 0.961 . S
H2271 C2255 0.960 . S
C2272 C2273 1.391 . S
C2272 C2274 1.394 . S
C2272 H2288 0.931 . S
C2273 C2272 1.391 . S
C2273 C2277 1.376 . S
C2274 C2272 1.394 . S
C2274 C2275 1.369 . S
C2274 C2278 1.531 . S
C2275 C2274 1.369 . S
C2275 C2276 1.410 . S
C2275 C2283 1.503 . S
C2276 C2275 1.410 . S
C2276 C2277 1.392 . S
C2276 C2279 1.511 . S
C2277 C2273 1.376 . S
C2277 C2276 1.392 . S
C2277 H2289 0.929 . S
C2278 C2274 1.531 . S
C2278 H2290 0.960 . S
C2278 H2291 0.962 . S
C2278 H2292 0.960 . S
C2279 C2276 1.511 . S
C2279 H2293 0.961 . S
C2279 H2294 0.961 . S
C2279 H2295 0.961 . S
C2280 C2281 1.370 . S
C2280 C2282 1.363 . S
C2280 H2296 0.931 . S
C2281 C2280 1.370 . S
C2281 C2285 1.408 . S
C2282 C2280 1.363 . S
C2282 C2283 1.370 . S
C2282 C2286 1.524 . S
C2283 C2275 1.503 . S
C2283 C2282 1.370 . S
C2283 C2284 1.403 . S
C2284 C2283 1.403 . S
C2284 C2285 1.404 . S
C2284 C2287 1.539 . S
C2285 C2281 1.408 . S
C2285 C2284 1.404 . S
C2285 H2297 0.930 . S
C2286 C2282 1.524 . S
C2286 H2298 0.956 . S
C2286 H2299 0.961 . S
C2286 H2300 0.961 . S
C2287 C2284 1.539 . S
C2287 H2301 0.958 . S
C2287 H2302 0.961 . S
C2287 H2303 0.960 . S
H2288 C2272 0.931 . S
H2289 C2277 0.929 . S
H2290 C2278 0.960 . S
H2291 C2278 0.962 . S
H2292 C2278 0.960 . S
H2293 C2279 0.961 . S
H2294 C2279 0.961 . S
H2295 C2279 0.961 . S
H2296 C2280 0.931 . S
H2297 C2285 0.930 . S
H2298 C2286 0.956 . S
H2299 C2286 0.961 . S
H2300 C2286 0.961 . S
H2301 C2287 0.958 . S
H2302 C2287 0.961 . S
H2303 C2287 0.960 . S
C2304 C2305 1.391 . S
C2304 C2306 1.394 . S
C2304 H2320 0.931 . S
C2305 C2304 1.391 . S
C2305 C2309 1.376 . S
C2306 C2304 1.394 . S
C2306 C2307 1.369 . S
C2306 C2310 1.531 . S
C2307 C2306 1.369 . S
C2307 C2308 1.410 . S
C2307 C2315 1.503 . S
C2308 C2307 1.410 . S
C2308 C2309 1.392 . S
C2308 C2311 1.511 . S
C2309 C2305 1.376 . S
C2309 C2308 1.392 . S
C2309 H2321 0.929 . S
C2310 C2306 1.531 . S
C2310 H2322 0.960 . S
C2310 H2323 0.962 . S
C2310 H2324 0.960 . S
C2311 C2308 1.511 . S
C2311 H2325 0.961 . S
C2311 H2326 0.961 . S
C2311 H2327 0.961 . S
C2312 C2313 1.370 . S
C2312 C2314 1.363 . S
C2312 H2328 0.931 . S
C2313 C2312 1.370 . S
C2313 C2317 1.408 . S
C2314 C2312 1.363 . S
C2314 C2315 1.370 . S
C2314 C2318 1.524 . S
C2315 C2307 1.503 . S
C2315 C2314 1.370 . S
C2315 C2316 1.403 . S
C2316 C2315 1.403 . S
C2316 C2317 1.404 . S
C2316 C2319 1.539 . S
C2317 C2313 1.408 . S
C2317 C2316 1.404 . S
C2317 H2329 0.930 . S
C2318 C2314 1.524 . S
C2318 H2330 0.956 . S
C2318 H2331 0.961 . S
C2318 H2332 0.961 . S
C2319 C2316 1.539 . S
C2319 H2333 0.958 . S
C2319 H2334 0.961 . S
C2319 H2335 0.960 . S
H2320 C2304 0.931 . S
H2321 C2309 0.929 . S
H2322 C2310 0.960 . S
H2323 C2310 0.962 . S
H2324 C2310 0.960 . S
H2325 C2311 0.961 . S
H2326 C2311 0.961 . S
H2327 C2311 0.961 . S
H2328 C2312 0.931 . S
H2329 C2317 0.930 . S
H2330 C2318 0.956 . S
H2331 C2318 0.961 . S
H2332 C2318 0.961 . S
H2333 C2319 0.958 . S
H2334 C2319 0.961 . S
H2335 C2319 0.960 . S
C2336 C2337 1.391 . S
C2336 C2338 1.394 . S
C2336 H2352 0.931 . S
C2337 C2336 1.391 . S
C2337 C2341 1.376 . S
C2338 C2336 1.394 . S
C2338 C2339 1.369 . S
C2338 C2342 1.531 . S
C2339 C2338 1.369 . S
C2339 C2340 1.410 . S
C2339 C2347 1.503 . S
C2340 C2339 1.410 . S
C2340 C2341 1.392 . S
C2340 C2343 1.511 . S
C2341 C2337 1.376 . S
C2341 C2340 1.392 . S
C2341 H2353 0.929 . S
C2342 C2338 1.531 . S
C2342 H2354 0.960 . S
C2342 H2355 0.962 . S
C2342 H2356 0.960 . S
C2343 C2340 1.511 . S
C2343 H2357 0.961 . S
C2343 H2358 0.961 . S
C2343 H2359 0.961 . S
C2344 C2345 1.370 . S
C2344 C2346 1.363 . S
C2344 H2360 0.931 . S
C2345 C2344 1.370 . S
C2345 C2349 1.408 . S
C2346 C2344 1.363 . S
C2346 C2347 1.370 . S
C2346 C2350 1.524 . S
C2347 C2339 1.503 . S
C2347 C2346 1.370 . S
C2347 C2348 1.403 . S
C2348 C2347 1.403 . S
C2348 C2349 1.404 . S
C2348 C2351 1.539 . S
C2349 C2345 1.408 . S
C2349 C2348 1.404 . S
C2349 H2361 0.930 . S
C2350 C2346 1.524 . S
C2350 H2362 0.956 . S
C2350 H2363 0.961 . S
C2350 H2364 0.961 . S
C2351 C2348 1.539 . S
C2351 H2365 0.958 . S
C2351 H2366 0.961 . S
C2351 H2367 0.960 . S
H2352 C2336 0.931 . S
H2353 C2341 0.929 . S
H2354 C2342 0.960 . S
H2355 C2342 0.962 . S
H2356 C2342 0.960 . S
H2357 C2343 0.961 . S
H2358 C2343 0.961 . S
H2359 C2343 0.961 . S
H2360 C2344 0.931 . S
H2361 C2349 0.930 . S
H2362 C2350 0.956 . S
H2363 C2350 0.961 . S
H2364 C2350 0.961 . S
H2365 C2351 0.958 . S
H2366 C2351 0.961 . S
H2367 C2351 0.960 . S
C2368 C2369 1.391 . S
C2368 C2370 1.394 . S
C2368 H2384 0.931 . S
C2369 C2368 1.391 . S
C2369 C2373 1.376 . S
C2370 C2368 1.394 . S
C2370 C2371 1.369 . S
C2370 C2374 1.531 . S
C2371 C2370 1.369 . S
C2371 C2372 1.410 . S
C2371 C2379 1.503 . S
C2372 C2371 1.410 . S
C2372 C2373 1.392 . S
C2372 C2375 1.511 . S
C2373 C2369 1.376 . S
C2373 C2372 1.392 . S
C2373 H2385 0.929 . S
C2374 C2370 1.531 . S
C2374 H2386 0.960 . S
C2374 H2387 0.962 . S
C2374 H2388 0.960 . S
C2375 C2372 1.511 . S
C2375 H2389 0.961 . S
C2375 H2390 0.961 . S
C2375 H2391 0.961 . S
C2376 C2377 1.370 . S
C2376 C2378 1.363 . S
C2376 H2392 0.931 . S
C2377 C2376 1.370 . S
C2377 C2381 1.408 . S
C2378 C2376 1.363 . S
C2378 C2379 1.370 . S
C2378 C2382 1.524 . S
C2379 C2371 1.503 . S
C2379 C2378 1.370 . S
C2379 C2380 1.403 . S
C2380 C2379 1.403 . S
C2380 C2381 1.404 . S
C2380 C2383 1.539 . S
C2381 C2377 1.408 . S
C2381 C2380 1.404 . S
C2381 H2393 0.930 . S
C2382 C2378 1.524 . S
C2382 H2394 0.956 . S
C2382 H2395 0.961 . S
C2382 H2396 0.961 . S
C2383 C2380 1.539 . S
C2383 H2397 0.958 . S
C2383 H2398 0.961 . S
C2383 H2399 0.960 . S
H2384 C2368 0.931 . S
H2385 C2373 0.929 . S
H2386 C2374 0.960 . S
H2387 C2374 0.962 . S
H2388 C2374 0.960 . S
H2389 C2375 0.961 . S
H2390 C2375 0.961 . S
H2391 C2375 0.961 . S
H2392 C2376 0.931 . S
H2393 C2381 0.930 . S
H2394 C2382 0.956 . S
H2395 C2382 0.961 . S
H2396 C2382 0.961 . S
H2397 C2383 0.958 . S
H2398 C2383 0.961 . S
H2399 C2383 0.960 . S
C2400 C2401 1.391 . S
C2400 C2402 1.394 . S
C2400 H2416 0.931 . S
C2401 C2400 1.391 . S
C2401 C2405 1.376 . S
C2402 C2400 1.394 . S
C2402 C2403 1.369 . S
C2402 C2406 1.531 . S
C2403 C2402 1.369 . S
C2403 C2404 1.410 . S
C2403 C2411 1.503 . S
C2404 C2403 1.410 . S
C2404 C2405 1.392 . S
C2404 C2407 1.511 . S
C2405 C2401 1.376 . S
C2405 C2404 1.392 . S
C2405 H2417 0.929 . S
C2406 C2402 1.531 . S
C2406 H2418 0.960 . S
C2406 H2419 0.962 . S
C2406 H2420 0.960 . S
C2407 C2404 1.511 . S
C2407 H2421 0.961 . S
C2407 H2422 0.961 . S
C2407 H2423 0.961 . S
C2408 C2409 1.370 . S
C2408 C2410 1.363 . S
C2408 H2424 0.931 . S
C2409 C2408 1.370 . S
C2409 C2413 1.408 . S
C2410 C2408 1.363 . S
C2410 C2411 1.370 . S
C2410 C2414 1.524 . S
C2411 C2403 1.503 . S
C2411 C2410 1.370 . S
C2411 C2412 1.403 . S
C2412 C2411 1.403 . S
C2412 C2413 1.404 . S
C2412 C2415 1.539 . S
C2413 C2409 1.408 . S
C2413 C2412 1.404 . S
C2413 H2425 0.930 . S
C2414 C2410 1.524 . S
C2414 H2426 0.956 . S
C2414 H2427 0.961 . S
C2414 H2428 0.961 . S
C2415 C2412 1.539 . S
C2415 H2429 0.958 . S
C2415 H2430 0.961 . S
C2415 H2431 0.960 . S
H2416 C2400 0.931 . S
H2417 C2405 0.929 . S
H2418 C2406 0.960 . S
H2419 C2406 0.962 . S
H2420 C2406 0.960 . S
H2421 C2407 0.961 . S
H2422 C2407 0.961 . S
H2423 C2407 0.961 . S
H2424 C2408 0.931 . S
H2425 C2413 0.930 . S
H2426 C2414 0.956 . S
H2427 C2414 0.961 . S
H2428 C2414 0.961 . S
H2429 C2415 0.958 . S
H2430 C2415 0.961 . S
H2431 C2415 0.960 . S
C2432 C2433 1.391 . S
C2432 C2434 1.394 . S
C2432 H2448 0.931 . S
C2433 C2432 1.391 . S
C2433 C2437 1.376 . S
C2434 C2432 1.394 . S
C2434 C2435 1.369 . S
C2434 C2438 1.531 . S
C2435 C2434 1.369 . S
C2435 C2436 1.410 . S
C2435 C2443 1.503 . S
C2436 C2435 1.410 . S
C2436 C2437 1.392 . S
C2436 C2439 1.511 . S
C2437 C2433 1.376 . S
C2437 C2436 1.392 . S
C2437 H2449 0.929 . S
C2438 C2434 1.531 . S
C2438 H2450 0.960 . S
C2438 H2451 0.962 . S
C2438 H2452 0.960 . S
C2439 C2436 1.511 . S
C2439 H2453 0.961 . S
C2439 H2454 0.961 . S
C2439 H2455 0.961 . S
C2440 C2441 1.370 . S
C2440 C2442 1.363 . S
C2440 H2456 0.931 . S
C2441 C2440 1.370 . S
C2441 C2445 1.408 . S
C2442 C2440 1.363 . S
C2442 C2443 1.370 . S
C2442 C2446 1.524 . S
C2443 C2435 1.503 . S
C2443 C2442 1.370 . S
C2443 C2444 1.403 . S
C2444 C2443 1.403 . S
C2444 C2445 1.404 . S
C2444 C2447 1.539 . S
C2445 C2441 1.408 . S
C2445 C2444 1.404 . S
C2445 H2457 0.930 . S
C2446 C2442 1.524 . S
C2446 H2458 0.956 . S
C2446 H2459 0.961 . S
C2446 H2460 0.961 . S
C2447 C2444 1.539 . S
C2447 H2461 0.958 . S
C2447 H2462 0.961 . S
C2447 H2463 0.960 . S
H2448 C2432 0.931 . S
H2449 C2437 0.929 . S
H2450 C2438 0.960 . S
H2451 C2438 0.962 . S
H2452 C2438 0.960 . S
H2453 C2439 0.961 . S
H2454 C2439 0.961 . S
H2455 C2439 0.961 . S
H2456 C2440 0.931 . S
H2457 C2445 0.930 . S
H2458 C2446 0.956 . S
H2459 C2446 0.961 . S
H2460 C2446 0.961 . S
H2461 C2447 0.958 . S
H2462 C2447 0.961 . S
H2463 C2447 0.960 . S
C417 C81 1.495 . S
C425 C5 1.502 . S
C449 C16 1.495 . S
C457 C96 1.504 . S
C481 C57 1.494 . S
C489 C29 1.503 . S
C513 C42 1.494 . S
C521 C70 1.503 . S
C545 C187 1.498 . S
C553 C107 1.505 . S
C577 C198 1.504 . S
C585 C122 1.503 . S
C609 C135 1.501 . S
C617 C161 1.506 . S
C641 C148 1.496 . S
C649 C172 1.504 . S
C673 C213 1.505 . S
C681 C291 1.505 . S
C705 C226 1.500 . S
C713 C304 1.502 . S
C737 C263 1.494 . S
C745 C239 1.503 . S
C769 C278 1.500 . S
C777 C252 1.506 . S
C801 C317 1.497 . S
C809 C395 1.501 . S
C833 C408 1.497 . S
C841 C330 1.504 . S
C865 C367 1.499 . S
C873 C343 1.505 . S
C897 C356 1.496 . S
C905 C380 1.501 . S
C929 C3 1.361 . S
C937 C400 1.355 . S
C961 C199 1.352 . S
C969 C18 1.343 . S
C993 C31 1.332 . S
C1001 C368 1.357 . S
C1025 C44 1.332 . S
C1033 C173 1.355 . S
C1057 C348 1.344 . S
C1065 C55 1.349 . S
C1089 C153 1.353 . S
C1097 C68 1.356 . S
C1121 C83 1.334 . S
C1129 C322 1.358 . S
C1153 C127 1.354 . S
C1161 C94 1.343 . S
C1185 C109 1.338 . S
C1193 C296 1.359 . S
C1217 C101 1.360 . S
C1225 C120 1.351 . S
C1249 C133 1.356 . S
C1257 C264 1.358 . S
C1281 C146 1.354 . S
C1289 C75 1.352 . S
C1313 C244 1.357 . S
C1321 C159 1.343 . S
C1345 C174 1.331 . S
C1353 C43 1.357 . S
C1377 C185 1.348 . S
C1385 C218 1.359 . S
C1409 C17 1.350 . S
C1417 C200 1.345 . S
C1441 C211 1.359 . S
C1449 C192 1.353 . S
C1473 C224 1.338 . S
C1481 C413 1.353 . S
C1505 C166 1.361 . S
C1513 C237 1.351 . S
C1537 C250 1.354 . S
C1545 C381 1.352 . S
C1569 C140 1.361 . S
C1577 C265 1.347 . S
C1601 C361 1.349 . S
C1609 C276 1.356 . S
C1633 C108 1.361 . S
C1641 C289 1.351 . S
C1665 C335 1.359 . S
C1673 C302 1.345 . S
C1697 C315 1.346 . S
C1705 C82 1.352 . S
C1729 C309 1.346 . S
C1737 C328 1.347 . S
C1761 C62 1.352 . S
C1769 C341 1.356 . S
C1793 C354 1.360 . S
C1801 C283 1.356 . S
C1825 C369 1.348 . S
C1833 C30 1.359 . S
C1857 C382 1.360 . S
C1865 C257 1.356 . S
C1889 C10 1.361 . S
C1897 C393 1.349 . S
C1921 C406 1.331 . S
C1929 C231 1.357 . S
C1953 C4 1.444 . S
C1961 C277 1.451 . S
C1985 C290 1.453 . S
C1993 C23 1.450 . S
C2017 C36 1.445 . S
C2025 C303 1.453 . S
C2049 C270 1.441 . S
C2057 C49 1.454 . S
C2081 C251 1.441 . S
C2089 C56 1.453 . S
C2113 C212 1.454 . S
C2121 C69 1.448 . S
C2145 C225 1.453 . S
C2153 C88 1.448 . S
C2177 C238 1.444 . S
C2185 C95 1.454 . S
C2209 C114 1.453 . S
C2217 C387 1.449 . S
C2241 C394 1.453 . S
C2249 C121 1.449 . S
C2273 C407 1.441 . S
C2281 C134 1.454 . S
C2305 C374 1.449 . S
C2313 C147 1.451 . S
C2337 C355 1.453 . S
C2345 C160 1.448 . S
C2369 C316 1.450 . S
C2377 C179 1.451 . S
C2401 C186 1.441 . S
C2409 C329 1.454 . S
C2433 C205 1.443 . S
C2441 C342 1.452 . S
